# Generated by pormake.
# Topology eea, (3,6)-cn, num edge types: 1
# Building blocks:
#     Node 0, Type 0, BuildingBlock: BETDIP_clean_linker_0, # of connection points: 3
#     Node 1, Type 0, BuildingBlock: BETDIP_clean_linker_0, # of connection points: 3
#     Node 2, Type 0, BuildingBlock: BETDIP_clean_linker_0, # of connection points: 3
#     Node 3, Type 0, BuildingBlock: BETDIP_clean_linker_0, # of connection points: 3
#     Node 4, Type 0, BuildingBlock: BETDIP_clean_linker_0, # of connection points: 3
#     Node 5, Type 0, BuildingBlock: BETDIP_clean_linker_0, # of connection points: 3
#     Node 6, Type 0, BuildingBlock: BETDIP_clean_linker_0, # of connection points: 3
#     Node 7, Type 0, BuildingBlock: BETDIP_clean_linker_0, # of connection points: 3
#     Node 8, Type 0, BuildingBlock: BETDIP_clean_linker_0, # of connection points: 3
#     Node 9, Type 0, BuildingBlock: BETDIP_clean_linker_0, # of connection points: 3
#     Node 10, Type 0, BuildingBlock: BETDIP_clean_linker_0, # of connection points: 3
#     Node 11, Type 0, BuildingBlock: BETDIP_clean_linker_0, # of connection points: 3
#     Node 12, Type 0, BuildingBlock: BETDIP_clean_linker_0, # of connection points: 3
#     Node 13, Type 0, BuildingBlock: BETDIP_clean_linker_0, # of connection points: 3
#     Node 14, Type 0, BuildingBlock: BETDIP_clean_linker_0, # of connection points: 3
#     Node 15, Type 0, BuildingBlock: BETDIP_clean_linker_0, # of connection points: 3
#     Node 16, Type 0, BuildingBlock: BETDIP_clean_linker_0, # of connection points: 3
#     Node 17, Type 0, BuildingBlock: BETDIP_clean_linker_0, # of connection points: 3
#     Node 18, Type 1, BuildingBlock: KUMBOL_clean_sbu_0, # of connection points: 6
#     Node 19, Type 1, BuildingBlock: KUMBOL_clean_sbu_0, # of connection points: 6
#     Node 20, Type 1, BuildingBlock: KUMBOL_clean_sbu_0, # of connection points: 6
#     Node 21, Type 1, BuildingBlock: KUMBOL_clean_sbu_0, # of connection points: 6
#     Node 22, Type 1, BuildingBlock: KUMBOL_clean_sbu_0, # of connection points: 6
#     Node 23, Type 1, BuildingBlock: KUMBOL_clean_sbu_0, # of connection points: 6
#     Node 24, Type 1, BuildingBlock: KUMBOL_clean_sbu_0, # of connection points: 6
#     Node 25, Type 1, BuildingBlock: KUMBOL_clean_sbu_0, # of connection points: 6
#     Node 26, Type 1, BuildingBlock: KUMBOL_clean_sbu_0, # of connection points: 6
#     Edge 27, Type (0, 1), BuildingBlock: MIFKUJ_clean_linker_0, # of connection points: 2
#     Edge 28, Type (0, 1), BuildingBlock: MIFKUJ_clean_linker_0, # of connection points: 2
#     Edge 29, Type (0, 1), BuildingBlock: MIFKUJ_clean_linker_0, # of connection points: 2
#     Edge 30, Type (0, 1), BuildingBlock: MIFKUJ_clean_linker_0, # of connection points: 2
#     Edge 31, Type (0, 1), BuildingBlock: MIFKUJ_clean_linker_0, # of connection points: 2
#     Edge 32, Type (0, 1), BuildingBlock: MIFKUJ_clean_linker_0, # of connection points: 2
#     Edge 33, Type (0, 1), BuildingBlock: MIFKUJ_clean_linker_0, # of connection points: 2
#     Edge 34, Type (0, 1), BuildingBlock: MIFKUJ_clean_linker_0, # of connection points: 2
#     Edge 35, Type (0, 1), BuildingBlock: MIFKUJ_clean_linker_0, # of connection points: 2
#     Edge 36, Type (0, 1), BuildingBlock: MIFKUJ_clean_linker_0, # of connection points: 2
#     Edge 37, Type (0, 1), BuildingBlock: MIFKUJ_clean_linker_0, # of connection points: 2
#     Edge 38, Type (0, 1), BuildingBlock: MIFKUJ_clean_linker_0, # of connection points: 2
#     Edge 39, Type (0, 1), BuildingBlock: MIFKUJ_clean_linker_0, # of connection points: 2
#     Edge 40, Type (0, 1), BuildingBlock: MIFKUJ_clean_linker_0, # of connection points: 2
#     Edge 41, Type (0, 1), BuildingBlock: MIFKUJ_clean_linker_0, # of connection points: 2
#     Edge 42, Type (0, 1), BuildingBlock: MIFKUJ_clean_linker_0, # of connection points: 2
#     Edge 43, Type (0, 1), BuildingBlock: MIFKUJ_clean_linker_0, # of connection points: 2
#     Edge 44, Type (0, 1), BuildingBlock: MIFKUJ_clean_linker_0, # of connection points: 2
#     Edge 45, Type (0, 1), BuildingBlock: MIFKUJ_clean_linker_0, # of connection points: 2
#     Edge 46, Type (0, 1), BuildingBlock: MIFKUJ_clean_linker_0, # of connection points: 2
#     Edge 47, Type (0, 1), BuildingBlock: MIFKUJ_clean_linker_0, # of connection points: 2
#     Edge 48, Type (0, 1), BuildingBlock: MIFKUJ_clean_linker_0, # of connection points: 2
#     Edge 49, Type (0, 1), BuildingBlock: MIFKUJ_clean_linker_0, # of connection points: 2
#     Edge 50, Type (0, 1), BuildingBlock: MIFKUJ_clean_linker_0, # of connection points: 2
#     Edge 51, Type (0, 1), BuildingBlock: MIFKUJ_clean_linker_0, # of connection points: 2
#     Edge 52, Type (0, 1), BuildingBlock: MIFKUJ_clean_linker_0, # of connection points: 2
#     Edge 53, Type (0, 1), BuildingBlock: MIFKUJ_clean_linker_0, # of connection points: 2
#     Edge 54, Type (0, 1), BuildingBlock: MIFKUJ_clean_linker_0, # of connection points: 2
#     Edge 55, Type (0, 1), BuildingBlock: MIFKUJ_clean_linker_0, # of connection points: 2
#     Edge 56, Type (0, 1), BuildingBlock: MIFKUJ_clean_linker_0, # of connection points: 2
#     Edge 57, Type (0, 1), BuildingBlock: MIFKUJ_clean_linker_0, # of connection points: 2
#     Edge 58, Type (0, 1), BuildingBlock: MIFKUJ_clean_linker_0, # of connection points: 2
#     Edge 59, Type (0, 1), BuildingBlock: MIFKUJ_clean_linker_0, # of connection points: 2
#     Edge 60, Type (0, 1), BuildingBlock: MIFKUJ_clean_linker_0, # of connection points: 2
#     Edge 61, Type (0, 1), BuildingBlock: MIFKUJ_clean_linker_0, # of connection points: 2
#     Edge 62, Type (0, 1), BuildingBlock: MIFKUJ_clean_linker_0, # of connection points: 2
#     Edge 63, Type (0, 1), BuildingBlock: MIFKUJ_clean_linker_0, # of connection points: 2
#     Edge 64, Type (0, 1), BuildingBlock: MIFKUJ_clean_linker_0, # of connection points: 2
#     Edge 65, Type (0, 1), BuildingBlock: MIFKUJ_clean_linker_0, # of connection points: 2
#     Edge 66, Type (0, 1), BuildingBlock: MIFKUJ_clean_linker_0, # of connection points: 2
#     Edge 67, Type (0, 1), BuildingBlock: MIFKUJ_clean_linker_0, # of connection points: 2
#     Edge 68, Type (0, 1), BuildingBlock: MIFKUJ_clean_linker_0, # of connection points: 2
#     Edge 69, Type (0, 1), BuildingBlock: MIFKUJ_clean_linker_0, # of connection points: 2
#     Edge 70, Type (0, 1), BuildingBlock: MIFKUJ_clean_linker_0, # of connection points: 2
#     Edge 71, Type (0, 1), BuildingBlock: MIFKUJ_clean_linker_0, # of connection points: 2
#     Edge 72, Type (0, 1), BuildingBlock: MIFKUJ_clean_linker_0, # of connection points: 2
#     Edge 73, Type (0, 1), BuildingBlock: MIFKUJ_clean_linker_0, # of connection points: 2
#     Edge 74, Type (0, 1), BuildingBlock: MIFKUJ_clean_linker_0, # of connection points: 2
#     Edge 75, Type (0, 1), BuildingBlock: MIFKUJ_clean_linker_0, # of connection points: 2
#     Edge 76, Type (0, 1), BuildingBlock: MIFKUJ_clean_linker_0, # of connection points: 2
#     Edge 77, Type (0, 1), BuildingBlock: MIFKUJ_clean_linker_0, # of connection points: 2
#     Edge 78, Type (0, 1), BuildingBlock: MIFKUJ_clean_linker_0, # of connection points: 2
#     Edge 79, Type (0, 1), BuildingBlock: MIFKUJ_clean_linker_0, # of connection points: 2
#     Edge 80, Type (0, 1), BuildingBlock: MIFKUJ_clean_linker_0, # of connection points: 2
# Relax obj value: 0.025
# Max RMSD: 0.154
# Mean RMSD: 0.114
data_MOF--net-eea--node1-KUMBOL_clean_sbu_0--node2-BETDIP_clean_linker_0--edge1-MIFKUJ_clean_linker_0
_symmetry_space_group_name_H-M    P1
_symmetry_Int_Tables_number       1
_symmetry_cell_setting            triclinic
loop_
_symmetry_equiv_pos_as_xyz
'x, y, z'
_cell_length_a     71.416525
_cell_length_b     72.883502
_cell_length_c     83.0768
_cell_angle_alpha  90.198114
_cell_angle_beta   90.2111
_cell_angle_gamma 119.98331
loop_
_atom_site_label
_atom_site_type_symbol
_atom_site_fract_x
_atom_site_fract_y
_atom_site_fract_z
_atom_type_partial_charge
H0 H 0.20598 0.09714 0.39342 0.0
H1 H 0.23634 0.14095 0.43268 0.0
H2 H 0.23432 0.0811 0.4328 0.0
H3 H 0.19142 0.11735 0.38762 0.0
C4 C 0.20155 0.13295 0.39285 0.0
C5 C 0.21425 0.10112 0.40492 0.0
C6 C 0.21903 0.08658 0.41233 0.0
C7 C 0.22042 0.12073 0.41238 0.0
C8 C 0.23162 0.1258 0.42703 0.0
C9 C 0.23636 0.11147 0.43459 0.0
C10 C 0.22999 0.09189 0.4272 0.0
N11 N 0.2162 0.13612 0.40557 0.0
H12 H 0.92467 0.11501 0.39081 0.0
H13 H 0.8894 0.09414 0.43503 0.0
H14 H 0.94271 0.15778 0.43126 0.0
H15 H 0.88924 0.06238 0.42585 0.0
C16 C 0.88286 0.0627 0.41402 0.0
C17 C 0.92241 0.11824 0.40317 0.0
C18 C 0.93571 0.13849 0.40989 0.0
C19 C 0.9061 0.10205 0.41232 0.0
C20 C 0.90268 0.10631 0.42822 0.0
C21 C 0.91559 0.12649 0.4351 0.0
C22 C 0.93221 0.14238 0.42588 0.0
N23 N 0.89261 0.08187 0.40512 0.0
H24 H 0.9045 0.81493 0.39328 0.0
H25 H 0.92667 0.79546 0.43461 0.0
H26 H 0.86558 0.7934 0.43606 0.0
H27 H 0.94155 0.7852 0.41452 0.0
C28 C 0.94886 0.79946 0.40726 0.0
C29 C 0.9021 0.80908 0.40551 0.0
C30 C 0.88321 0.80489 0.41388 0.0
C31 C 0.91781 0.8055 0.41279 0.0
C32 C 0.91452 0.79781 0.42867 0.0
C33 C 0.89577 0.79346 0.43715 0.0
C34 C 0.88035 0.79728 0.42973 0.0
N35 N 0.93685 0.80991 0.4041 0.0
H36 H 0.09457 0.19955 0.63601 0.0
H37 H 0.1347 0.21964 0.5938 0.0
H38 H 0.0781 0.22598 0.59578 0.0
H39 H 0.16079 0.22996 0.61402 0.0
C40 C 0.15394 0.21523 0.6207 0.0
C41 C 0.09791 0.20616 0.624 0.0
C42 C 0.08414 0.21257 0.61689 0.0
C43 C 0.11663 0.20929 0.61598 0.0
C44 C 0.12071 0.21771 0.60029 0.0
C45 C 0.10695 0.22384 0.59291 0.0
C46 C 0.08888 0.22142 0.6014 0.0
N47 N 0.13126 0.20411 0.62382 0.0
H48 H 0.82771 0.90446 0.63036 0.0
H49 H 0.80926 0.92863 0.58995 0.0
H50 H 0.79629 0.86442 0.58921 0.0
H51 H 0.84059 0.9597 0.59931 0.0
C52 C 0.83541 0.95802 0.61177 0.0
C53 C 0.82046 0.90201 0.6185 0.0
C54 C 0.81253 0.88241 0.61057 0.0
C55 C 0.81966 0.91879 0.61104 0.0
C56 C 0.81035 0.91584 0.59564 0.0
C57 C 0.80205 0.89631 0.58762 0.0
C58 C 0.80328 0.87972 0.59515 0.0
N59 N 0.82745 0.93821 0.61954 0.0
H60 H 0.10614 0.91958 0.62676 0.0
H61 H 0.08402 0.87576 0.58691 0.0
H62 H 0.14801 0.92961 0.58644 0.0
H63 H 0.05151 0.87345 0.59464 0.0
C64 C 0.05264 0.8712 0.60745 0.0
C65 C 0.10915 0.9148 0.61514 0.0
C66 C 0.12917 0.92724 0.60744 0.0
C67 C 0.09261 0.89646 0.60769 0.0
C68 C 0.09641 0.89015 0.5926 0.0
C69 C 0.11627 0.90222 0.58481 0.0
C70 C 0.13247 0.92069 0.59228 0.0
N71 N 0.07251 0.88426 0.61572 0.0
H72 H 0.87094 0.42903 0.72968 0.0
H73 H 0.89421 0.46896 0.77166 0.0
H74 H 0.90121 0.41393 0.76829 0.0
H75 H 0.86528 0.47347 0.76562 0.0
C76 C 0.86695 0.47536 0.75264 0.0
C77 C 0.87852 0.43237 0.74147 0.0
C78 C 0.8862 0.41946 0.74777 0.0
C79 C 0.88061 0.44975 0.75026 0.0
C80 C 0.89134 0.45483 0.76526 0.0
C81 C 0.89922 0.44219 0.77171 0.0
C82 C 0.8961 0.42431 0.76303 0.0
N83 N 0.8726 0.46237 0.74345 0.0
H84 H 0.59736 0.44573 0.72452 0.0
H85 H 0.55924 0.42514 0.76754 0.0
H86 H 0.61465 0.48773 0.7654 0.0
H87 H 0.55646 0.39271 0.75838 0.0
C88 C 0.55156 0.3938 0.74618 0.0
C89 C 0.59456 0.44883 0.73678 0.0
C90 C 0.60817 0.46874 0.74391 0.0
C91 C 0.57719 0.43289 0.74536 0.0
C92 C 0.5732 0.43705 0.76114 0.0
C93 C 0.58649 0.45688 0.76843 0.0
C94 C 0.604 0.47256 0.75974 0.0
N95 N 0.56329 0.41315 0.73765 0.0
H96 H 0.5648 0.14135 0.72465 0.0
H97 H 0.58975 0.12692 0.76712 0.0
H98 H 0.52662 0.11995 0.76784 0.0
H99 H 0.60773 0.11918 0.74945 0.0
C100 C 0.61279 0.13132 0.7403 0.0
C101 C 0.56291 0.13633 0.73709 0.0
C102 C 0.54355 0.13096 0.74531 0.0
C103 C 0.57954 0.13435 0.74464 0.0
C104 C 0.5769 0.12769 0.76081 0.0
C105 C 0.55781 0.12232 0.76918 0.0
C106 C 0.54137 0.12415 0.76139 0.0
N107 N 0.59864 0.13906 0.73585 0.0
H108 H 0.7566 0.52188 0.96527 0.0
H109 H 0.79898 0.54346 0.92434 0.0
H110 H 0.74233 0.54961 0.92468 0.0
H111 H 0.80379 0.51596 0.93197 0.0
C112 C 0.80609 0.51878 0.94486 0.0
C113 C 0.76061 0.529 0.95344 0.0
C114 C 0.74697 0.53524 0.94586 0.0
C115 C 0.77907 0.53125 0.94558 0.0
C116 C 0.78429 0.54064 0.93024 0.0
C117 C 0.77116 0.54737 0.92267 0.0
C118 C 0.75252 0.54447 0.93052 0.0
N119 N 0.79246 0.52452 0.95341 0.0
H120 H 0.47615 0.22821 0.96502 0.0
H121 H 0.45507 0.24744 0.92315 0.0
H122 H 0.44721 0.18517 0.92495 0.0
H123 H 0.48289 0.27991 0.93076 0.0
C124 C 0.48054 0.27933 0.9437 0.0
C125 C 0.46909 0.22468 0.95305 0.0
C126 C 0.46184 0.20462 0.94608 0.0
C127 C 0.46733 0.24039 0.94469 0.0
C128 C 0.45753 0.23579 0.92938 0.0
C129 C 0.45 0.21579 0.9223 0.0
C130 C 0.45237 0.20037 0.93065 0.0
N131 N 0.4748 0.26039 0.95222 0.0
H132 H 0.77618 0.24607 0.96676 0.0
H133 H 0.75489 0.20679 0.92431 0.0
H134 H 0.81798 0.26237 0.92571 0.0
H135 H 0.72157 0.20463 0.9333 0.0
C136 C 0.72289 0.20045 0.94563 0.0
C137 C 0.7792 0.24295 0.95456 0.0
C138 C 0.79926 0.25632 0.9473 0.0
C139 C 0.76291 0.22544 0.94616 0.0
C140 C 0.767 0.22087 0.93051 0.0
C141 C 0.78708 0.23386 0.92316 0.0
C142 C 0.80283 0.25174 0.93156 0.0
N143 N 0.74295 0.21205 0.95398 0.0
H144 H 0.53975 0.76002 0.05806 0.0
H145 H 0.55713 0.79666 0.10174 0.0
H146 H 0.56728 0.74355 0.0978 0.0
H147 H 0.52787 0.80001 0.09426 0.0
C148 C 0.5312 0.80323 0.08151 0.0
C149 C 0.54614 0.76272 0.07022 0.0
C150 C 0.55374 0.74986 0.07671 0.0
C151 C 0.54661 0.77912 0.07936 0.0
C152 C 0.55558 0.78327 0.09495 0.0
C153 C 0.5634 0.77069 0.1016 0.0
C154 C 0.56211 0.75386 0.09247 0.0
N155 N 0.53865 0.79166 0.07238 0.0
H156 H 0.26221 0.78031 0.06034 0.0
H157 H 0.22021 0.75898 0.10134 0.0
H158 H 0.27278 0.82309 0.09981 0.0
H159 H 0.22154 0.72739 0.09344 0.0
C160 C 0.21673 0.72788 0.08109 0.0
C161 C 0.25775 0.78361 0.07199 0.0
C162 C 0.27009 0.80378 0.07916 0.0
C163 C 0.24004 0.76729 0.08005 0.0
C164 C 0.23427 0.7713 0.09528 0.0
C165 C 0.24595 0.79145 0.1024 0.0
C166 C 0.26378 0.80754 0.09428 0.0
N167 N 0.2277 0.74718 0.0724 0.0
H168 H 0.23643 0.48354 0.05829 0.0
H169 H 0.25769 0.45951 0.09732 0.0
H170 H 0.19573 0.45522 0.09959 0.0
H171 H 0.29044 0.48662 0.08929 0.0
C172 C 0.28915 0.4842 0.07633 0.0
C173 C 0.23349 0.47592 0.06992 0.0
C174 C 0.21406 0.47012 0.07817 0.0
C175 C 0.24959 0.47261 0.07686 0.0
C176 C 0.24576 0.46268 0.09198 0.0
C177 C 0.22652 0.45671 0.10033 0.0
C178 C 0.21084 0.46046 0.09333 0.0
N179 N 0.26933 0.4791 0.06843 0.0
H180 H 0.42718 0.86046 0.30163 0.0
H181 H 0.471 0.88315 0.26157 0.0
H182 H 0.41562 0.89127 0.2617 0.0
H183 H 0.47606 0.85598 0.26902 0.0
C184 C 0.47746 0.85797 0.28201 0.0
C185 C 0.43178 0.86826 0.29007 0.0
C186 C 0.41875 0.87533 0.28256 0.0
C187 C 0.45042 0.87053 0.28246 0.0
C188 C 0.4563 0.88051 0.26734 0.0
C189 C 0.44378 0.88795 0.2598 0.0
C190 C 0.42518 0.88539 0.26752 0.0
N191 N 0.46328 0.86319 0.29034 0.0
H192 H 0.1454 0.5653 0.29934 0.0
H193 H 0.11937 0.58326 0.25975 0.0
H194 H 0.12008 0.52478 0.25754 0.0
H195 H 0.10687 0.59441 0.28169 0.0
C196 C 0.12232 0.60322 0.2879 0.0
C197 C 0.13803 0.56194 0.28748 0.0
C198 C 0.13384 0.54342 0.27916 0.0
C199 C 0.13223 0.57598 0.28075 0.0
C200 C 0.12303 0.57198 0.26527 0.0
C201 C 0.11875 0.55362 0.25675 0.0
C202 C 0.1242 0.53942 0.26378 0.0
N203 N 0.13567 0.59403 0.28973 0.0
H204 H 0.4417 0.58344 0.29812 0.0
H205 H 0.41772 0.54063 0.25771 0.0
H206 H 0.48024 0.59658 0.25532 0.0
H207 H 0.38538 0.54191 0.26812 0.0
C208 C 0.38747 0.5368 0.27994 0.0
C209 C 0.44396 0.57925 0.28605 0.0
C210 C 0.46296 0.59269 0.2775 0.0
C211 C 0.42739 0.56074 0.27883 0.0
C212 C 0.43022 0.55516 0.26318 0.0
C213 C 0.44922 0.5681 0.25464 0.0
C214 C 0.46537 0.58686 0.26181 0.0
N215 N 0.40814 0.54764 0.28753 0.0
Gd216 Gd 0.50229 0.01426 0.03497 0.0
Gd217 Gd 0.48953 0.99369 0.9931 0.0
C218 C 0.42491 0.93558 0.97956 0.0
C219 C 0.43596 0.91051 0.97099 0.0
C220 C 0.46275 0.94586 0.98002 0.0
C221 C 0.44665 0.95057 0.98303 0.0
C222 C 0.45769 0.92599 0.97353 0.0
C223 C 0.41958 0.91532 0.97396 0.0
C224 C 0.40932 0.94169 0.98115 0.0
C225 C 0.41559 0.96237 0.9859 0.0
N226 N 0.45245 0.9704 0.9882 0.0
C227 C 0.43737 0.97667 0.98919 0.0
H228 H 0.44196 0.99262 0.99274 0.0
C229 C 0.50011 0.95877 0.97681 0.0
N230 N 0.48353 0.96141 0.98214 0.0
C231 C 0.49597 0.93925 0.97051 0.0
C232 C 0.47466 0.92266 0.96911 0.0
H233 H 0.51661 0.97158 0.97787 0.0
H234 H 0.40293 0.90351 0.97141 0.0
H235 H 0.54998 0.01633 0.03771 0.0
H236 H 0.39256 0.93077 0.97819 0.0
H237 H 0.40371 0.96739 0.9869 0.0
H238 H 0.43171 0.89506 0.96617 0.0
H239 H 0.4733 0.03741 0.04438 0.0
H240 H 0.59792 0.07917 0.05172 0.0
H241 H 0.58786 0.0424 0.0445 0.0
H242 H 0.55664 0.11369 0.0604 0.0
H243 H 0.50919 0.93705 0.96671 0.0
H244 H 0.47146 0.90761 0.96409 0.0
H245 H 0.58612 0.10569 0.0576 0.0
H246 H 0.47965 0.07236 0.05352 0.0
N247 N 0.53882 0.03826 0.04057 0.0
C248 C 0.58129 0.06783 0.04866 0.0
C249 C 0.57566 0.04707 0.04465 0.0
C250 C 0.56524 0.07348 0.04925 0.0
C251 C 0.54384 0.05811 0.04514 0.0
C252 C 0.55417 0.03235 0.04076 0.0
N253 N 0.50674 0.04698 0.04367 0.0
C254 C 0.52729 0.06263 0.04673 0.0
C255 C 0.49319 0.06984 0.05166 0.0
C256 C 0.51428 0.08625 0.05452 0.0
C257 C 0.48965 0.05006 0.0465 0.0
C258 C 0.53162 0.08266 0.05236 0.0
H259 H 0.51696 0.10147 0.05872 0.0
O260 O 0.48333 0.00463 0.05688 0.0
O261 O 0.47829 0.98955 0.01848 0.0
O262 O 0.4793 0.01803 0.99907 0.0
O263 O 0.50329 0.03942 0.019 0.0
O264 O 0.46626 0.00176 0.0352 0.0
O265 O 0.51202 0.00175 0.05505 0.0
O266 O 0.5089 0.00515 0.97142 0.0
O267 O 0.51356 0.01721 0.00991 0.0
O268 O 0.51224 0.98954 0.03033 0.0
O269 O 0.49375 0.96978 0.00733 0.0
O270 O 0.52573 0.00635 0.99268 0.0
O271 O 0.48038 0.00803 0.974 0.0
C272 C 0.46102 0.98781 0.02394 0.0
C273 C 0.55297 0.09819 0.05608 0.0
C274 C 0.56977 0.09365 0.05445 0.0
C275 C 0.49647 0.9999 0.06433 0.0
C276 C 0.50263 0.00809 0.0809 0.0
C277 C 0.51352 0.02995 0.08391 0.0
C278 C 0.49737 0.99399 0.09388 0.0
C279 C 0.50293 0.00173 0.10982 0.0
C280 C 0.51903 0.03773 0.09958 0.0
C281 C 0.51374 0.0238 0.11245 0.0
C282 C 0.48995 0.03632 0.00693 0.0
C283 C 0.53105 0.01949 0.00455 0.0
C284 C 0.49589 0.0104 0.96447 0.0
C285 C 0.48964 0.00299 0.94776 0.0
C286 C 0.47412 0.98182 0.94455 0.0
C287 C 0.49956 0.01699 0.93486 0.0
C288 C 0.49426 0.00971 0.91883 0.0
C289 C 0.46877 0.97456 0.92873 0.0
C290 C 0.47882 0.98834 0.91594 0.0
C291 C 0.505 0.97267 0.02076 0.0
H292 H 0.51762 0.04101 0.07419 0.0
H293 H 0.48913 0.9771 0.09152 0.0
H294 H 0.52729 0.05464 0.10178 0.0
H295 H 0.51783 0.03035 0.12451 0.0
H296 H 0.46615 0.97091 0.95425 0.0
H297 H 0.51159 0.03337 0.93728 0.0
H298 H 0.45679 0.95818 0.92637 0.0
H299 H 0.4743 0.98236 0.90375 0.0
Gd300 Gd 0.99466 0.49103 0.03416 0.0
Gd301 Gd 0.02013 0.49325 0.99491 0.0
C302 C 0.08126 0.48843 0.99104 0.0
C303 C 0.1079 0.52398 0.98268 0.0
C304 C 0.07048 0.51469 0.98666 0.0
C305 C 0.0653 0.49443 0.99107 0.0
C306 C 0.09175 0.52961 0.98213 0.0
C307 C 0.10267 0.50343 0.98712 0.0
C308 C 0.07515 0.46745 0.99472 0.0
C309 C 0.05349 0.45295 0.99788 0.0
N310 N 0.04449 0.48038 0.99486 0.0
C311 C 0.03824 0.45966 0.99772 0.0
H312 H 0.02159 0.44832 1.00029 0.0
C313 C 0.05824 0.53854 0.98022 0.0
N314 N 0.05447 0.51955 0.98621 0.0
C315 C 0.07911 0.55393 0.97571 0.0
C316 C 0.09601 0.54955 0.97686 0.0
H317 H 0.04524 0.54203 0.97942 0.0
H318 H 0.1152 0.49918 0.9872 0.0
H319 H 0.99261 0.53566 0.02885 0.0
H320 H 0.08694 0.46223 0.99492 0.0
H321 H 0.04855 0.43663 1.00054 0.0
H322 H 0.12439 0.53528 0.97939 0.0
H323 H 0.97018 0.44239 0.04987 0.0
H324 H 0.92708 0.52108 0.03444 0.0
H325 H 0.96535 0.54697 0.0287 0.0
H326 H 0.89049 0.44819 0.05036 0.0
H327 H 0.08214 0.56914 0.97134 0.0
H328 H 0.11215 0.56149 0.97333 0.0
H329 H 0.89918 0.48408 0.04235 0.0
H330 H 0.93351 0.41511 0.05828 0.0
N331 N 0.96999 0.50352 0.03428 0.0
C332 C 0.93899 0.51602 0.03457 0.0
C333 C 0.96059 0.53068 0.03135 0.0
C334 C 0.93313 0.49511 0.03827 0.0
C335 C 0.94925 0.48932 0.03814 0.0
C336 C 0.97601 0.5242 0.03145 0.0
N337 N 0.96053 0.46455 0.04305 0.0
C338 C 0.94435 0.46917 0.04264 0.0
C339 C 0.93632 0.43023 0.05385 0.0
C340 C 0.91926 0.43439 0.0528 0.0
C341 C 0.95705 0.4457 0.04913 0.0
C342 C 0.92321 0.45417 0.04738 0.0
H343 H 0.90323 0.4224 0.05651 0.0
O344 O 1.00317 0.48619 0.05823 0.0
O345 O 0.02101 0.48972 0.02127 0.0
O346 O 0.99443 0.45944 0.00165 0.0
O347 O 0.97121 0.46285 0.01953 0.0
O348 O 0.00817 0.46946 0.0403 0.0
O349 O 0.00549 0.51618 0.05199 0.0
O350 O 0.01188 0.49854 0.97089 0.0
O351 O 0.99375 0.49453 0.00777 0.0
O352 O 0.01996 0.5248 0.02723 0.0
O353 O 0.04348 0.52146 0.00963 0.0
O354 O 0.0069 0.51503 0.98888 0.0
O355 O 0.00938 0.4684 0.97683 0.0
C356 C 0.02289 0.47617 0.02939 0.0
C357 C 0.90689 0.45956 0.0469 0.0
C358 C 0.91184 0.48 0.04235 0.0
C359 C 0.00682 0.50461 0.0634 0.0
C360 C 0.99688 0.50452 0.07884 0.0
C361 C 0.97513 0.49914 0.07972 0.0
C362 C 0.00922 0.50919 0.09297 0.0
C363 C 0.99989 0.50817 0.10808 0.0
C364 C 0.96574 0.49816 0.09461 0.0
C365 C 0.97795 0.50253 0.10873 0.0
C366 C 0.97535 0.45198 0.00875 0.0
C367 C 0.99207 0.50823 0.9997 0.0
C368 C 0.00823 0.4802 0.96553 0.0
C369 C 0.01826 0.48053 0.95008 0.0
C370 C 0.03952 0.48435 0.94932 0.0
C371 C 0.00653 0.47762 0.93582 0.0
C372 C 0.01597 0.47875 0.92074 0.0
C373 C 0.04902 0.48546 0.93444 0.0
C374 C 0.0374 0.48277 0.92022 0.0
C375 C 0.03918 0.53226 0.02038 0.0
H376 H 0.96541 0.49561 0.06897 0.0
H377 H 0.02613 0.5137 0.09212 0.0
H378 H 0.94888 0.49383 0.09523 0.0
H379 H 0.9701 0.50118 0.12014 0.0
H380 H 0.04879 0.48654 0.96017 0.0
H381 H 0.98998 0.47434 0.93655 0.0
H382 H 0.06549 0.48856 0.93392 0.0
H383 H 0.04531 0.4841 0.90884 0.0
Gd384 Gd 0.51356 0.51719 0.99104 0.0
Gd385 Gd 0.52694 0.51261 0.03313 0.0
C386 C 0.589 0.51566 0.05058 0.0
C387 C 0.57562 0.48047 0.06163 0.0
C388 C 0.55087 0.48971 0.04871 0.0
C389 C 0.56788 0.50973 0.0454 0.0
C390 C 0.55457 0.47479 0.05677 0.0
C391 C 0.5927 0.50097 0.05882 0.0
C392 C 0.60556 0.53651 0.04807 0.0
C393 C 0.60072 0.55103 0.04109 0.0
N394 N 0.56348 0.52401 0.03848 0.0
C395 C 0.5794 0.5446 0.03668 0.0
H396 H 0.57579 0.55614 0.03172 0.0
C397 C 0.5131 0.46619 0.04897 0.0
N398 N 0.53055 0.48522 0.04486 0.0
C399 C 0.51602 0.45064 0.05645 0.0
C400 C 0.53686 0.45494 0.06035 0.0
H401 H 0.4969 0.46282 0.04622 0.0
H402 H 0.60856 0.50551 0.06355 0.0
H403 H 0.46524 0.47278 0.99051 0.0
H404 H 0.62199 0.5417 0.05188 0.0
H405 H 0.61334 0.56729 0.03937 0.0
H406 H 0.57875 0.46936 0.06807 0.0
H407 H 0.54286 0.56707 0.97789 0.0
H408 H 0.41784 0.48826 0.97454 0.0
H409 H 0.42746 0.46174 0.9839 0.0
H410 H 0.45953 0.56233 0.96303 0.0
H411 H 0.50218 0.43547 0.0594 0.0
H412 H 0.53905 0.44302 0.06645 0.0
H413 H 0.42979 0.52595 0.96747 0.0
H414 H 0.53679 0.59523 0.96708 0.0
N415 N 0.47697 0.50533 0.98549 0.0
C416 C 0.43443 0.49322 0.97771 0.0
C417 C 0.4398 0.47822 0.98287 0.0
C418 C 0.45065 0.51439 0.97613 0.0
C419 C 0.4721 0.51998 0.98 0.0
C420 C 0.4613 0.48455 0.98659 0.0
N421 N 0.50935 0.54469 0.98013 0.0
C422 C 0.48881 0.54034 0.9773 0.0
C423 C 0.52315 0.57987 0.96994 0.0
C424 C 0.50207 0.5759 0.96753 0.0
C425 C 0.52653 0.56389 0.97602 0.0
C426 C 0.48458 0.55583 0.97095 0.0
H427 H 0.4995 0.58826 0.9627 0.0
O428 O 0.53223 0.52344 0.96912 0.0
O429 O 0.53784 0.51716 0.00778 0.0
O430 O 0.53836 0.54675 0.02583 0.0
O431 O 0.51511 0.54418 0.00513 0.0
O432 O 0.54985 0.53936 0.98994 0.0
O433 O 0.5031 0.49311 0.97231 0.0
O434 O 0.50873 0.50733 0.05521 0.0
O435 O 0.50245 0.51219 0.01636 0.0
O436 O 0.50236 0.48307 0.99824 0.0
O437 O 0.52498 0.4852 0.01936 0.0
O438 O 0.49074 0.49046 0.03454 0.0
O439 O 0.53791 0.53741 0.0513 0.0
C440 C 0.55516 0.53159 0.00185 0.0
C441 C 0.46314 0.55062 0.96781 0.0
C442 C 0.4462 0.52991 0.97035 0.0
C443 C 0.5186 0.50531 0.96253 0.0
C444 C 0.51229 0.50619 0.94579 0.0
C445 C 0.49692 0.51226 0.94236 0.0
C446 C 0.52219 0.50153 0.93308 0.0
C447 C 0.51702 0.50326 0.91698 0.0
C448 C 0.49167 0.51393 0.92645 0.0
C449 C 0.50169 0.50955 0.91382 0.0
C450 C 0.52863 0.55472 0.01701 0.0
C451 C 0.48523 0.49772 0.02244 0.0
C452 C 0.52269 0.52562 0.06141 0.0
C453 C 0.52946 0.52525 0.07812 0.0
C454 C 0.54752 0.52307 0.08142 0.0
C455 C 0.51748 0.52667 0.09097 0.0
C456 C 0.52328 0.52546 0.10699 0.0
C457 C 0.55328 0.52178 0.09725 0.0
C458 C 0.5412 0.52286 0.10998 0.0
C459 C 0.51168 0.47486 0.00728 0.0
H460 H 0.48903 0.51576 0.95192 0.0
H461 H 0.53418 0.49695 0.93569 0.0
H462 H 0.4798 0.51865 0.92391 0.0
H463 H 0.49726 0.51083 0.90156 0.0
H464 H 0.55724 0.52243 0.07181 0.0
H465 H 0.50354 0.52844 0.08852 0.0
H466 H 0.56722 0.52004 0.09965 0.0
H467 H 0.54611 0.52208 0.1222 0.0
Gd468 Gd 0.16549 0.3469 0.36628 0.0
Gd469 Gd 0.15495 0.32808 0.3239 0.0
C470 C 0.09384 0.26771 0.30834 0.0
C471 C 0.10791 0.24456 0.3011 0.0
C472 C 0.1322 0.28042 0.3106 0.0
C473 C 0.11489 0.28373 0.31257 0.0
C474 C 0.12899 0.26095 0.30455 0.0
C475 C 0.09037 0.24795 0.30296 0.0
C476 C 0.07704 0.27229 0.3091 0.0
C477 C 0.08151 0.29252 0.31372 0.0
N478 N 0.11886 0.30311 0.3176 0.0
C479 C 0.10267 0.3079 0.31777 0.0
H480 H 0.10592 0.32349 0.32127 0.0
C481 C 0.17016 0.29513 0.31018 0.0
N482 N 0.15236 0.29673 0.31377 0.0
C483 C 0.16779 0.27612 0.30425 0.0
C484 C 0.14711 0.25883 0.30164 0.0
H485 H 0.18618 0.30842 0.31221 0.0
H486 H 0.07426 0.23537 0.29981 0.0
H487 H 0.21266 0.347 0.36825 0.0
H488 H 0.06073 0.2605 0.30567 0.0
H489 H 0.06871 0.29636 0.31409 0.0
H490 H 0.10507 0.22942 0.29655 0.0
H491 H 0.13873 0.36965 0.38085 0.0
H492 H 0.26253 0.40881 0.38216 0.0
H493 H 0.25081 0.37181 0.37447 0.0
H494 H 0.22387 0.44512 0.39392 0.0
H495 H 0.18193 0.2749 0.30158 0.0
H496 H 0.14535 0.24414 0.29698 0.0
H497 H 0.25222 0.43577 0.38974 0.0
H498 H 0.14642 0.40434 0.39188 0.0
N499 N 0.20258 0.36979 0.37163 0.0
C500 C 0.2457 0.39801 0.37926 0.0
C501 C 0.23912 0.37712 0.37501 0.0
C502 C 0.23028 0.40442 0.38045 0.0
C503 C 0.20859 0.38978 0.37648 0.0
C504 C 0.21736 0.36307 0.37145 0.0
N505 N 0.17179 0.37945 0.37692 0.0
C506 C 0.19262 0.39482 0.37916 0.0
C507 C 0.15958 0.40193 0.38826 0.0
C508 C 0.18095 0.41828 0.38995 0.0
C509 C 0.15528 0.38235 0.38203 0.0
C510 C 0.19782 0.41468 0.38575 0.0
H511 H 0.18425 0.43328 0.39511 0.0
O512 O 0.14617 0.33669 0.38807 0.0
O513 O 0.14244 0.32309 0.3489 0.0
O514 O 0.14268 0.35083 0.32892 0.0
O515 O 0.16063 0.37053 0.35202 0.0
O516 O 0.12931 0.33356 0.36614 0.0
O517 O 0.17332 0.33163 0.38549 0.0
O518 O 0.17511 0.34017 0.30264 0.0
O519 O 0.17747 0.35251 0.34122 0.0
O520 O 0.17627 0.32281 0.36067 0.0
O521 O 0.15586 0.30295 0.3386 0.0
O522 O 0.19137 0.34235 0.32455 0.0
O523 O 0.14499 0.34047 0.30392 0.0
C524 C 0.1248 0.32068 0.35418 0.0
C525 C 0.21952 0.42975 0.38888 0.0
C526 C 0.23569 0.42452 0.38639 0.0
C527 C 0.15833 0.33042 0.39506 0.0
C528 C 0.16511 0.33785 0.41173 0.0
C529 C 0.18072 0.35903 0.41477 0.0
C530 C 0.15589 0.32385 0.42475 0.0
C531 C 0.16204 0.33114 0.44073 0.0
C532 C 0.18693 0.36631 0.4305 0.0
C533 C 0.17765 0.35252 0.4434 0.0
C534 C 0.14926 0.36745 0.33861 0.0
C535 C 0.19538 0.35543 0.33627 0.0
C536 C 0.16139 0.34388 0.29497 0.0
C537 C 0.1564 0.33604 0.27824 0.0
C538 C 0.14158 0.31466 0.27504 0.0
C539 C 0.16676 0.34987 0.26532 0.0
C540 C 0.16259 0.34222 0.24933 0.0
C541 C 0.13735 0.30702 0.25927 0.0
C542 C 0.14782 0.32065 0.24649 0.0
C543 C 0.16782 0.30553 0.35148 0.0
H544 H 0.18815 0.36995 0.40499 0.0
H545 H 0.14379 0.30746 0.42247 0.0
H546 H 0.19901 0.38269 0.43269 0.0
H547 H 0.18294 0.35854 0.4555 0.0
H548 H 0.13325 0.30386 0.2847 0.0
H549 H 0.17825 0.36642 0.26772 0.0
H550 H 0.12589 0.29048 0.25695 0.0
H551 H 0.14409 0.31438 0.23432 0.0
Gd552 Gd 0.66512 0.81879 0.36755 0.0
Gd553 Gd 0.68809 0.83013 0.32689 0.0
C554 C 0.74822 0.82829 0.31159 0.0
C555 C 0.77351 0.86535 0.30601 0.0
C556 C 0.73753 0.85462 0.31597 0.0
C557 C 0.73286 0.83378 0.31671 0.0
C558 C 0.75783 0.87062 0.31046 0.0
C559 C 0.7686 0.8442 0.30636 0.0
C560 C 0.74227 0.80687 0.31116 0.0
C561 C 0.7216 0.79155 0.31594 0.0
N562 N 0.71275 0.81867 0.32127 0.0
C563 C 0.70687 0.79774 0.32082 0.0
H564 H 0.69078 0.7857 0.32415 0.0
C565 C 0.72443 0.8787 0.3167 0.0
N566 N 0.72154 0.85893 0.31931 0.0
C567 C 0.74442 0.89515 0.31163 0.0
C568 C 0.76131 0.89118 0.30869 0.0
H569 H 0.71137 0.88183 0.31879 0.0
H570 H 0.78044 0.84027 0.30208 0.0
H571 H 0.66243 0.86345 0.36999 0.0
H572 H 0.75321 0.80194 0.30664 0.0
H573 H 0.71685 0.77493 0.31554 0.0
H574 H 0.78915 0.87738 0.30165 0.0
H575 H 0.6428 0.769 0.38042 0.0
H576 H 0.59794 0.84709 0.38227 0.0
H577 H 0.63562 0.87419 0.37582 0.0
H578 H 0.56253 0.7722 0.38989 0.0
H579 H 0.74663 0.91077 0.30973 0.0
H580 H 0.77668 0.90391 0.30448 0.0
H581 H 0.57042 0.80889 0.38645 0.0
H582 H 0.60717 0.74021 0.38937 0.0
N583 N 0.64019 0.83042 0.37232 0.0
C584 C 0.60958 0.84226 0.37929 0.0
C585 C 0.63085 0.85757 0.37582 0.0
C586 C 0.60381 0.8209 0.37964 0.0
C587 C 0.61976 0.81545 0.37626 0.0
C588 C 0.64607 0.85138 0.37254 0.0
N589 N 0.63177 0.79084 0.37647 0.0
C590 C 0.61532 0.79488 0.37821 0.0
C591 C 0.60919 0.75548 0.38617 0.0
C592 C 0.59173 0.75901 0.3871 0.0
C593 C 0.62933 0.7718 0.38112 0.0
C594 C 0.5948 0.77908 0.38351 0.0
H595 H 0.57621 0.74643 0.3912 0.0
O596 O 0.67393 0.8097 0.38999 0.0
O597 O 0.6913 0.82122 0.35176 0.0
O598 O 0.66308 0.79512 0.32944 0.0
O599 O 0.64175 0.79154 0.35188 0.0
O600 O 0.67914 0.79685 0.36785 0.0
O601 O 0.67887 0.84134 0.38728 0.0
O602 O 0.67963 0.84076 0.30511 0.0
O603 O 0.66133 0.82693 0.34244 0.0
O604 O 0.6893 0.85394 0.36364 0.0
O605 O 0.71242 0.8547 0.34373 0.0
O606 O 0.67463 0.85237 0.32713 0.0
O607 O 0.67635 0.80952 0.3059 0.0
C608 C 0.69345 0.80607 0.35682 0.0
C609 C 0.57843 0.78413 0.3859 0.0
C610 C 0.58294 0.80503 0.38398 0.0
C611 C 0.6795 0.82772 0.39705 0.0
C612 C 0.67068 0.82663 0.41319 0.0
C613 C 0.64835 0.81741 0.41554 0.0
C614 C 0.68479 0.83533 0.42638 0.0
C615 C 0.67666 0.83488 0.44188 0.0
C616 C 0.64016 0.81686 0.43085 0.0
C617 C 0.65419 0.82554 0.44397 0.0
C618 C 0.64546 0.78437 0.33829 0.0
C619 C 0.65961 0.84241 0.33753 0.0
C620 C 0.6751 0.82363 0.29705 0.0
C621 C 0.68412 0.8267 0.28077 0.0
C622 C 0.7065 0.83713 0.27834 0.0
C623 C 0.67011 0.81921 0.26744 0.0
C624 C 0.67839 0.8222 0.25171 0.0
C625 C 0.71486 0.84011 0.26282 0.0
C626 C 0.70094 0.83275 0.24956 0.0
C627 C 0.70817 0.86336 0.35614 0.0
H628 H 0.63724 0.81069 0.40559 0.0
H629 H 0.70208 0.84271 0.42452 0.0
H630 H 0.62289 0.80966 0.43255 0.0
H631 H 0.64743 0.82468 0.45577 0.0
H632 H 0.71753 0.84308 0.28835 0.0
H633 H 0.65279 0.81094 0.26936 0.0
H634 H 0.73218 0.84828 0.26107 0.0
H635 H 0.70785 0.83564 0.23763 0.0
Gd636 Gd 0.18088 0.85648 0.3248 0.0
Gd637 Gd 0.1985 0.85039 0.36544 0.0
C638 C 0.26394 0.85524 0.37431 0.0
C639 C 0.25346 0.81924 0.38206 0.0
C640 C 0.22602 0.82861 0.37579 0.0
C641 C 0.24193 0.84918 0.37262 0.0
C642 C 0.23157 0.81351 0.38089 0.0
C643 C 0.26961 0.84006 0.37876 0.0
C644 C 0.27956 0.87642 0.37172 0.0
C645 C 0.27305 0.89107 0.36801 0.0
N646 N 0.23588 0.86343 0.36834 0.0
C647 C 0.25102 0.88433 0.36655 0.0
H648 H 0.24629 0.89583 0.36358 0.0
C649 C 0.18883 0.80428 0.37945 0.0
N650 N 0.20506 0.82362 0.37458 0.0
C651 C 0.19351 0.78871 0.38448 0.0
C652 C 0.21496 0.79325 0.38502 0.0
H653 H 0.17222 0.80069 0.37898 0.0
H654 H 0.28644 0.84437 0.37997 0.0
H655 H 0.13249 0.81158 0.327 0.0
H656 H 0.29664 0.88168 0.37281 0.0
H657 H 0.285 0.90755 0.3662 0.0
H658 H 0.25806 0.80781 0.38581 0.0
H659 H 0.20676 0.90408 0.3078 0.0
H660 H 0.08279 0.82716 0.3199 0.0
H661 H 0.09394 0.80069 0.3256 0.0
H662 H 0.12212 0.9002 0.3047 0.0
H663 H 0.18058 0.77322 0.38794 0.0
H664 H 0.21856 0.78119 0.38897 0.0
H665 H 0.0935 0.86451 0.31238 0.0
H666 H 0.19888 0.9316 0.2981 0.0
N667 N 0.14345 0.84419 0.32266 0.0
C668 C 0.09982 0.83207 0.32051 0.0
C669 C 0.10605 0.81708 0.32367 0.0
C670 C 0.11566 0.85308 0.31758 0.0
C671 C 0.1376 0.85865 0.31863 0.0
C672 C 0.12803 0.82338 0.32444 0.0
N673 N 0.17434 0.88287 0.31465 0.0
C674 C 0.15361 0.8787 0.31448 0.0
C675 C 0.186 0.91683 0.30276 0.0
C676 C 0.1649 0.91328 0.30344 0.0
C677 C 0.1904 0.90122 0.30821 0.0
C678 C 0.14829 0.89384 0.30904 0.0
H679 H 0.16151 0.92536 0.29917 0.0
O680 O 0.19707 0.86247 0.30172 0.0
O681 O 0.20646 0.85595 0.33958 0.0
O682 O 0.20844 0.88472 0.36042 0.0
O683 O 0.1876 0.8856 0.33883 0.0
O684 O 0.21701 0.87803 0.32157 0.0
O685 O 0.16874 0.83202 0.30635 0.0
O686 O 0.18007 0.84279 0.38752 0.0
O687 O 0.17304 0.85163 0.35084 0.0
O688 O 0.16992 0.82217 0.33107 0.0
O689 O 0.19422 0.82301 0.35029 0.0
O690 O 0.16263 0.82799 0.36783 0.0
O691 O 0.2105 0.8723 0.3857 0.0
C692 C 0.22323 0.8701 0.33282 0.0
C693 C 0.12655 0.88877 0.30875 0.0
C694 C 0.11025 0.86842 0.31308 0.0
C695 C 0.18298 0.8441 0.29576 0.0
C696 C 0.17469 0.8443 0.27961 0.0
C697 C 0.15797 0.84887 0.27746 0.0
C698 C 0.18383 0.84012 0.26616 0.0
C699 C 0.17637 0.84053 0.25052 0.0
C700 C 0.15046 0.84928 0.26202 0.0
C701 C 0.15956 0.84515 0.24862 0.0
C702 C 0.20046 0.89429 0.35146 0.0
C703 C 0.1564 0.83681 0.3573 0.0
C704 C 0.19446 0.8598 0.39498 0.0
C705 C 0.19981 0.85658 0.4114 0.0
C706 C 0.21538 0.85061 0.41429 0.0
C707 C 0.18833 0.85853 0.42433 0.0
C708 C 0.19221 0.85441 0.44016 0.0
C709 C 0.21931 0.84648 0.42997 0.0
C710 C 0.20777 0.84829 0.44283 0.0
C711 C 0.17974 0.81336 0.33874 0.0
H712 H 0.15071 0.85207 0.28769 0.0
H713 H 0.19693 0.83684 0.26789 0.0
H714 H 0.1375 0.85275 0.26043 0.0
H715 H 0.15321 0.84527 0.23679 0.0
H716 H 0.22438 0.84905 0.40448 0.0
H717 H 0.1761 0.86289 0.42203 0.0
H718 H 0.23133 0.84186 0.43215 0.0
H719 H 0.21127 0.84523 0.45491 0.0
Gd720 Gd 0.83585 0.6836 0.70146 0.0
Gd721 Gd 0.82467 0.66295 0.65957 0.0
C722 C 0.76076 0.6028 0.64804 0.0
C723 C 0.7729 0.57841 0.6399 0.0
C724 C 0.79901 0.61464 0.64754 0.0
C725 C 0.78246 0.61872 0.65056 0.0
C726 C 0.79449 0.59466 0.64166 0.0
C727 C 0.75605 0.58246 0.64313 0.0
C728 C 0.74451 0.60798 0.65009 0.0
C729 C 0.75017 0.62879 0.65388 0.0
N730 N 0.78765 0.63862 0.65509 0.0
C731 C 0.77194 0.64407 0.6561 0.0
H732 H 0.77594 0.66002 0.65913 0.0
C733 C 0.83649 0.62859 0.64386 0.0
N734 N 0.81963 0.63075 0.64921 0.0
C735 C 0.83287 0.60907 0.63797 0.0
C736 C 0.81179 0.5919 0.63714 0.0
H737 H 0.85282 0.64181 0.64463 0.0
H738 H 0.73948 0.56996 0.64132 0.0
H739 H 0.88584 0.69066 0.7017 0.0
H740 H 0.72764 0.59618 0.64835 0.0
H741 H 0.73776 0.63308 0.65515 0.0
H742 H 0.76908 0.56286 0.63559 0.0
H743 H 0.80371 0.7004 0.71624 0.0
H744 H 0.9298 0.75377 0.71764 0.0
H745 H 0.923 0.71884 0.70805 0.0
H746 H 0.8831 0.78094 0.73134 0.0
H747 H 0.84633 0.60726 0.63414 0.0
H748 H 0.80901 0.57681 0.63254 0.0
H749 H 0.91452 0.77648 0.72696 0.0
H750 H 0.80677 0.73287 0.7282 0.0
N751 N 0.87188 0.70997 0.70635 0.0
C752 C 0.91351 0.74168 0.71443 0.0
C753 C 0.90973 0.72193 0.70912 0.0
C754 C 0.89611 0.74524 0.71623 0.0
C755 C 0.87522 0.7289 0.71195 0.0
C756 C 0.88863 0.70602 0.70548 0.0
N757 N 0.8375 0.71415 0.71237 0.0
C758 C 0.85743 0.73112 0.71494 0.0
C759 C 0.82115 0.73265 0.72444 0.0
C760 C 0.84148 0.75063 0.72643 0.0
C761 C 0.81947 0.7143 0.71764 0.0
C762 C 0.85998 0.74982 0.7221 0.0
H763 H 0.84277 0.76473 0.73192 0.0
O764 O 0.81673 0.67027 0.72307 0.0
O765 O 0.81342 0.65828 0.68482 0.0
O766 O 0.81292 0.68631 0.66413 0.0
O767 O 0.83022 0.70656 0.68715 0.0
O768 O 0.79945 0.66814 0.7018 0.0
O769 O 0.84814 0.67283 0.72104 0.0
O770 O 0.84408 0.67379 0.63784 0.0
O771 O 0.84738 0.68841 0.67617 0.0
O772 O 0.84871 0.66114 0.69653 0.0
O773 O 0.83017 0.64008 0.67415 0.0
O774 O 0.86098 0.67742 0.65972 0.0
O775 O 0.81474 0.67543 0.63968 0.0
C776 C 0.79552 0.65479 0.69029 0.0
C777 C 0.8808 0.76651 0.72572 0.0
C778 C 0.89877 0.76408 0.72303 0.0
C779 C 0.83156 0.66781 0.73027 0.0
C780 C 0.83642 0.67514 0.7471 0.0
C781 C 0.84721 0.69683 0.75075 0.0
C782 C 0.83023 0.66036 0.75966 0.0
C783 C 0.83473 0.66724 0.77585 0.0
C784 C 0.85152 0.70377 0.76668 0.0
C785 C 0.84528 0.68914 0.77916 0.0
C786 C 0.81907 0.70308 0.67361 0.0
C787 C 0.86519 0.69122 0.67096 0.0
C788 C 0.83059 0.67803 0.63043 0.0
C789 C 0.82472 0.66999 0.61383 0.0
C790 C 0.80928 0.64872 0.6109 0.0
C791 C 0.83462 0.68366 0.60077 0.0
C792 C 0.82926 0.67607 0.58482 0.0
C793 C 0.8039 0.6411 0.59516 0.0
C794 C 0.8138 0.65462 0.5822 0.0
C795 C 0.84164 0.64377 0.68756 0.0
H796 H 0.8523 0.70841 0.74133 0.0
H797 H 0.82221 0.6436 0.75678 0.0
H798 H 0.85969 0.72056 0.76939 0.0
H799 H 0.84852 0.69504 0.79142 0.0
H800 H 0.8013 0.63805 0.62074 0.0
H801 H 0.84662 0.70009 0.60305 0.0
H802 H 0.79192 0.62466 0.593 0.0
H803 H 0.80907 0.64835 0.5701 0.0
Gd804 Gd 0.32825 0.15635 0.6982 0.0
Gd805 Gd 0.35432 0.16249 0.6588 0.0
C806 C 0.41455 0.15718 0.65111 0.0
C807 C 0.4416 0.19345 0.64477 0.0
C808 C 0.40465 0.18446 0.65061 0.0
C809 C 0.39912 0.16363 0.65329 0.0
C810 C 0.42586 0.19955 0.64606 0.0
C811 C 0.43592 0.17227 0.64719 0.0
C812 C 0.40784 0.13564 0.65229 0.0
C813 C 0.38626 0.12113 0.65572 0.0
N814 N 0.37829 0.14938 0.65693 0.0
C815 C 0.37159 0.1283 0.65792 0.0
H816 H 0.35493 0.11692 0.66041 0.0
C817 C 0.39289 0.20929 0.6469 0.0
N818 N 0.3889 0.18965 0.65143 0.0
C819 C 0.41374 0.22487 0.64255 0.0
C820 C 0.43039 0.22008 0.64234 0.0
H821 H 0.38007 0.21306 0.64702 0.0
H822 H 0.44805 0.16764 0.64563 0.0
H823 H 0.32775 0.20227 0.69538 0.0
H824 H 0.41904 0.13002 0.65007 0.0
H825 H 0.38081 0.1044 0.65646 0.0
H826 H 0.45802 0.20483 0.64138 0.0
H827 H 0.30317 0.10856 0.71488 0.0
H828 H 0.26261 0.189 0.7002 0.0
H829 H 0.30134 0.21453 0.69577 0.0
H830 H 0.22414 0.11551 0.71426 0.0
H831 H 0.41688 0.24048 0.63922 0.0
H832 H 0.44649 0.23214 0.63882 0.0
H833 H 0.23374 0.15181 0.70669 0.0
H834 H 0.26637 0.08189 0.72358 0.0
N835 N 0.30428 0.16983 0.69905 0.0
C836 C 0.27415 0.18348 0.70002 0.0
C837 C 0.29601 0.19794 0.69757 0.0
C838 C 0.2676 0.16219 0.70279 0.0
C839 C 0.28328 0.15583 0.70236 0.0
C840 C 0.31097 0.19087 0.69737 0.0
N841 N 0.2938 0.13056 0.70709 0.0
C842 C 0.27784 0.13547 0.70648 0.0
C843 C 0.26933 0.09685 0.71868 0.0
C844 C 0.2524 0.10112 0.71714 0.0
C845 C 0.29013 0.11198 0.71379 0.0
C846 C 0.25663 0.12081 0.71131 0.0
H847 H 0.23632 0.08942 0.72099 0.0
O848 O 0.33634 0.14949 0.7218 0.0
O849 O 0.3549 0.15606 0.68475 0.0
O850 O 0.32789 0.1282 0.66284 0.0
O851 O 0.30531 0.12767 0.68351 0.0
O852 O 0.34088 0.13365 0.70235 0.0
O853 O 0.33997 0.1803 0.71704 0.0
O854 O 0.34766 0.17114 0.63539 0.0
O855 O 0.32707 0.16183 0.67204 0.0
O856 O 0.35383 0.19067 0.69283 0.0
O857 O 0.37782 0.18853 0.67513 0.0
O858 O 0.34177 0.1852 0.65505 0.0
O859 O 0.34411 0.14004 0.63897 0.0
C860 C 0.35597 0.14125 0.69171 0.0
C861 C 0.24061 0.12663 0.71082 0.0
C862 C 0.24609 0.1473 0.70653 0.0
C863 C 0.34065 0.16771 0.72783 0.0
C864 C 0.33067 0.16702 0.74338 0.0
C865 C 0.30894 0.16173 0.74435 0.0
C866 C 0.34299 0.17134 0.75751 0.0
C867 C 0.33364 0.17019 0.7726 0.0
C868 C 0.29954 0.16049 0.7593 0.0
C869 C 0.31176 0.16461 0.77338 0.0
C870 C 0.30952 0.11888 0.67107 0.0
C871 C 0.32611 0.17675 0.66517 0.0
C872 C 0.34383 0.15339 0.62866 0.0
C873 C 0.35445 0.15528 0.61317 0.0
C874 C 0.37602 0.16002 0.61242 0.0
C875 C 0.34288 0.1527 0.59889 0.0
C876 C 0.35284 0.15504 0.58389 0.0
C877 C 0.38604 0.16248 0.59757 0.0
C878 C 0.37457 0.16009 0.58334 0.0
C879 C 0.37321 0.19872 0.68617 0.0
H880 H 0.29926 0.15856 0.73361 0.0
H881 H 0.35975 0.1753 0.75675 0.0
H882 H 0.28274 0.15635 0.75996 0.0
H883 H 0.30422 0.16376 0.78486 0.0
H884 H 0.38512 0.16181 0.62322 0.0
H885 H 0.32622 0.14911 0.59947 0.0
H886 H 0.40271 0.16618 0.59708 0.0
H887 H 0.38254 0.16181 0.57192 0.0
Gd888 Gd 0.84579 0.18908 0.65729 0.0
Gd889 Gd 0.86045 0.18226 0.69868 0.0
C890 C 0.92635 0.18753 0.70671 0.0
C891 C 0.91625 0.1514 0.71371 0.0
C892 C 0.88858 0.16081 0.7086 0.0
C893 C 0.90428 0.18136 0.70537 0.0
C894 C 0.89434 0.14571 0.71328 0.0
C895 C 0.93225 0.1723 0.71041 0.0
C896 C 0.94177 0.20894 0.70481 0.0
C897 C 0.93496 0.22364 0.70234 0.0
N898 N 0.89793 0.19562 0.70194 0.0
C899 C 0.91285 0.21671 0.7011 0.0
H900 H 0.90791 0.22826 0.69899 0.0
C901 C 0.85174 0.13697 0.71391 0.0
N902 N 0.86764 0.15601 0.70826 0.0
C903 C 0.85658 0.12135 0.71853 0.0
C904 C 0.87794 0.12561 0.71794 0.0
H905 H 0.83519 0.13359 0.71422 0.0
H906 H 0.94912 0.17666 0.71125 0.0
H907 H 0.79777 0.14426 0.65607 0.0
H908 H 0.95889 0.21434 0.7057 0.0
H909 H 0.94673 0.24031 0.70122 0.0
H910 H 0.92102 0.13995 0.71705 0.0
H911 H 0.87437 0.2397 0.64569 0.0
H912 H 0.74959 0.16 0.64309 0.0
H913 H 0.75967 0.13321 0.65056 0.0
H914 H 0.79025 0.23454 0.63342 0.0
H915 H 0.84384 0.10605 0.7225 0.0
H916 H 0.88167 0.11353 0.72157 0.0
H917 H 0.7609 0.1978 0.63723 0.0
H918 H 0.86766 0.26809 0.63638 0.0
N919 N 0.80906 0.17701 0.65227 0.0
C920 C 0.76625 0.16489 0.64568 0.0
C921 C 0.77193 0.14976 0.6498 0.0
C922 C 0.78227 0.18616 0.64443 0.0
C923 C 0.80386 0.19177 0.64768 0.0
C924 C 0.79358 0.1561 0.65289 0.0
N925 N 0.84099 0.21685 0.64784 0.0
C926 C 0.82034 0.21236 0.64544 0.0
C927 C 0.8542 0.2525 0.63893 0.0
C928 C 0.83299 0.24836 0.63702 0.0
C929 C 0.85794 0.23638 0.64416 0.0
C930 C 0.81573 0.22801 0.64003 0.0
H931 H 0.83013 0.26084 0.63289 0.0
O932 O 0.86437 0.19712 0.63524 0.0
O933 O 0.87037 0.18812 0.6731 0.0
O934 O 0.87042 0.21658 0.69291 0.0
O935 O 0.84689 0.21487 0.67272 0.0
O936 O 0.88192 0.21165 0.65617 0.0
O937 O 0.83561 0.16624 0.6377 0.0
O938 O 0.8425 0.17445 0.72105 0.0
O939 O 0.83545 0.18231 0.68275 0.0
O940 O 0.8353 0.15459 0.66223 0.0
O941 O 0.85543 0.15397 0.68438 0.0
O942 O 0.82434 0.15962 0.70036 0.0
O943 O 0.8708 0.20539 0.7181 0.0
C944 C 0.88748 0.203 0.66727 0.0
C945 C 0.79415 0.22271 0.63745 0.0
C946 C 0.77744 0.2018 0.63962 0.0
C947 C 0.85109 0.17919 0.62821 0.0
C948 C 0.84487 0.1806 0.61161 0.0
C949 C 0.83041 0.18785 0.60833 0.0
C950 C 0.85391 0.17503 0.59885 0.0
C951 C 0.84873 0.17691 0.58281 0.0
C952 C 0.82516 0.1897 0.59246 0.0
C953 C 0.83428 0.18434 0.57975 0.0
C954 C 0.86037 0.2248 0.68476 0.0
C955 C 0.81846 0.16737 0.68876 0.0
C956 C 0.8559 0.19241 0.72793 0.0
C957 C 0.86307 0.19103 0.74425 0.0
C958 C 0.87875 0.18509 0.74663 0.0
C959 C 0.85387 0.19536 0.7576 0.0
C960 C 0.86024 0.19373 0.77337 0.0
C961 C 0.88507 0.18333 0.76218 0.0
C962 C 0.87589 0.18756 0.77547 0.0
C963 C 0.84309 0.1452 0.67155 0.0
H964 H 0.82325 0.19213 0.618 0.0
H965 H 0.86524 0.16959 0.6014 0.0
H966 H 0.81398 0.19532 0.59 0.0
H967 H 0.82985 0.18576 0.56752 0.0
H968 H 0.88606 0.18178 0.7365 0.0
H969 H 0.84198 0.20024 0.75567 0.0
H970 H 0.89709 0.1786 0.76395 0.0
H971 H 0.88089 0.18576 0.78741 0.0
H972 H 0.27613 0.81391 0.04696 0.0
H973 H 0.3081 0.84275 0.03417 0.0
H974 H 0.33972 0.86207 0.08048 0.0
H975 H 0.30852 0.83272 0.09315 0.0
H976 H 0.32623 0.88383 0.03708 0.0
H977 H 0.39182 0.88464 0.07826 0.0
H978 H 0.39886 0.8595 0.09323 0.0
H979 H 0.35921 0.81002 0.05972 0.0
H980 H 0.35195 0.83488 0.04456 0.0
H981 H 0.42274 0.98316 0.03345 0.0
H982 H 0.3895 0.95035 0.03935 0.0
H983 H 0.41842 0.91433 0.02196 0.0
H984 H 0.45232 0.94728 0.01742 0.0
H985 H 0.40076 0.89826 0.0477 0.0
H986 H 0.3706 0.91503 0.0014 0.0
H987 H 0.36229 0.9378 0.98424 0.0
H988 H 0.3304 0.94838 0.02389 0.0
H989 H 0.33847 0.92566 0.04116 0.0
C990 C 0.29005 0.82405 0.05438 0.0
C991 C 0.28965 0.82095 0.07112 0.0
C992 C 0.30826 0.84067 0.04706 0.0
C993 C 0.32648 0.85451 0.0563 0.0
C994 C 0.3261 0.85142 0.073 0.0
C995 C 0.30804 0.83475 0.08028 0.0
C996 C 0.34562 0.87263 0.04868 0.0
C997 C 0.34252 0.88687 0.03927 0.0
C998 C 0.36691 0.8766 0.05135 0.0
C999 C 0.37127 0.86158 0.06035 0.0
C1000 C 0.38464 0.8684 0.07409 0.0
C1001 C 0.38863 0.85419 0.08262 0.0
C1002 C 0.37948 0.83317 0.07744 0.0
C1003 C 0.36627 0.8263 0.06374 0.0
C1004 C 0.36215 0.84042 0.0552 0.0
C1005 C 0.42184 0.96822 0.03062 0.0
C1006 C 0.44 0.96782 0.02464 0.0
C1007 C 0.40269 0.94938 0.03383 0.0
C1008 C 0.40105 0.92963 0.03081 0.0
C1009 C 0.41907 0.92926 0.02435 0.0
C1010 C 0.43843 0.94814 0.02155 0.0
C1011 C 0.3815 0.90955 0.03595 0.0
C1012 C 0.3845 0.89505 0.04514 0.0
C1013 C 0.3601 0.90513 0.0328 0.0
C1014 C 0.35541 0.91895 0.02255 0.0
C1015 C 0.36204 0.92244 0.00643 0.0
C1016 C 0.35729 0.93523 0.9967 0.0
C1017 C 0.34598 0.94465 0.00301 0.0
C1018 C 0.33922 0.94114 0.01902 0.0
C1019 C 0.3438 0.92824 0.02876 0.0
H1020 H 0.34237 0.95458 0.99547 0.0
H1021 H 0.38265 0.82222 0.08403 0.0
H1022 H 0.18907 0.48309 0.09403 0.0
H1023 H 0.15821 0.48511 0.08377 0.0
H1024 H 0.16973 0.46923 0.03615 0.0
H1025 H 0.20002 0.4659 0.04661 0.0
H1026 H 0.15123 0.50754 0.06398 0.0
H1027 H 0.12203 0.44163 0.01559 0.0
H1028 H 0.12352 0.40915 0.00978 0.0
H1029 H 0.1303 0.40111 0.06024 0.0
H1030 H 0.12858 0.43337 0.06635 0.0
H1031 H 0.06447 0.50817 0.02415 0.0
H1032 H 0.09791 0.50808 0.0293 0.0
H1033 H 0.06148 0.4449 0.04854 0.0
H1034 H 0.02772 0.44434 0.04189 0.0
H1035 H 0.09323 0.44684 0.03366 0.0
H1036 H 0.0886 0.49344 0.07294 0.0
H1037 H 0.08417 0.52357 0.08133 0.0
H1038 H 0.14075 0.56619 0.0547 0.0
H1039 H 0.14545 0.53628 0.04609 0.0
C1040 C 0.18498 0.47982 0.08138 0.0
C1041 C 0.19686 0.47388 0.07124 0.0
C1042 C 0.1674 0.48123 0.07547 0.0
C1043 C 0.16124 0.47696 0.0592 0.0
C1044 C 0.17377 0.47215 0.04882 0.0
C1045 C 0.1913 0.4705 0.05479 0.0
C1046 C 0.14133 0.47693 0.05345 0.0
C1047 C 0.13862 0.49426 0.05731 0.0
C1048 C 0.12456 0.45956 0.04491 0.0
C1049 C 0.12545 0.44005 0.04139 0.0
C1050 C 0.1238 0.4329 0.02543 0.0
C1051 C 0.12468 0.41453 0.02209 0.0
C1052 C 0.12709 0.40312 0.03463 0.0
C1053 C 0.12853 0.41001 0.05054 0.0
C1054 C 0.12762 0.42834 0.05395 0.0
C1055 C 0.06348 0.49403 0.02903 0.0
C1056 C 0.04336 0.47601 0.03209 0.0
C1057 C 0.08275 0.49414 0.03232 0.0
C1058 C 0.08245 0.47664 0.03964 0.0
C1059 C 0.0623 0.45862 0.04283 0.0
C1060 C 0.04298 0.45833 0.03912 0.0
C1061 C 0.10302 0.4773 0.04439 0.0
C1062 C 0.1059 0.46015 0.04027 0.0
C1063 C 0.11963 0.49453 0.05317 0.0
C1064 C 0.11729 0.51262 0.0588 0.0
C1065 C 0.10009 0.50925 0.06888 0.0
C1066 C 0.09753 0.52628 0.07366 0.0
C1067 C 0.11215 0.54677 0.06852 0.0
C1068 C 0.12944 0.5503 0.05867 0.0
C1069 C 0.1321 0.53333 0.05387 0.0
H1070 H 0.11009 0.55993 0.07218 0.0
H1071 H 0.12779 0.38892 0.03201 0.0
H1072 H 0.52085 0.72185 0.05701 0.0
H1073 H 0.51763 0.69052 0.04358 0.0
H1074 H 0.57999 0.70521 0.0625 0.0
H1075 H 0.58385 0.73716 0.07521 0.0
H1076 H 0.57536 0.69012 0.03302 0.0
H1077 H 0.53248 0.66957 0.08104 0.0
H1078 H 0.50449 0.6671 0.09963 0.0
H1079 H 0.45577 0.63461 0.06334 0.0
H1080 H 0.48355 0.63719 0.04443 0.0
H1081 H 0.56153 0.58568 0.03498 0.0
H1082 H 0.56669 0.6206 0.04205 0.0
H1083 H 0.50946 0.60679 0.01492 0.0
H1084 H 0.50421 0.57203 0.00773 0.0
H1085 H 0.51082 0.62147 0.04684 0.0
H1086 H 0.55484 0.63998 0.99959 0.0
H1087 H 0.5835 0.64134 0.98234 0.0
H1088 H 0.63095 0.67661 0.01882 0.0
H1089 H 0.60249 0.67515 0.03642 0.0
C1090 C 0.53409 0.71869 0.05802 0.0
C1091 C 0.55249 0.73187 0.06736 0.0
C1092 C 0.53213 0.70065 0.05047 0.0
C1093 C 0.54837 0.69529 0.05233 0.0
C1094 C 0.56719 0.70895 0.06099 0.0
C1095 C 0.56925 0.72708 0.06841 0.0
C1096 C 0.54531 0.67491 0.04602 0.0
C1097 C 0.56133 0.6751 0.03614 0.0
C1098 C 0.52686 0.65532 0.04993 0.0
C1099 C 0.51013 0.6538 0.06126 0.0
C1100 C 0.51583 0.66207 0.07697 0.0
C1101 C 0.5 0.66062 0.08758 0.0
C1102 C 0.47837 0.65076 0.08265 0.0
C1103 C 0.47253 0.64229 0.06712 0.0
C1104 C 0.48831 0.64374 0.05646 0.0
C1105 C 0.55013 0.59014 0.03045 0.0
C1106 C 0.53249 0.57613 0.02079 0.0
C1107 C 0.55316 0.61009 0.03443 0.0
C1108 C 0.53849 0.61621 0.02893 0.0
C1109 C 0.52096 0.60232 0.01923 0.0
C1110 C 0.51806 0.58251 0.0151 0.0
C1111 C 0.54085 0.63673 0.03393 0.0
C1112 C 0.52473 0.63652 0.04361 0.0
C1113 C 0.55931 0.65622 0.03001 0.0
C1114 C 0.57649 0.65728 0.01939 0.0
C1115 C 0.57135 0.64787 0.004 0.0
C1116 C 0.58757 0.64869 0.99415 0.0
C1117 C 0.60903 0.65902 0.99949 0.0
C1118 C 0.61432 0.6686 0.0147 0.0
C1119 C 0.59815 0.66779 0.02462 0.0
H1120 H 0.62157 0.65964 0.99185 0.0
H1121 H 0.46613 0.64964 0.09088 0.0
H1122 H 0.79556 0.28551 0.96606 0.0
H1123 H 0.82485 0.31787 0.9783 0.0
H1124 H 0.8716 0.30235 0.95973 0.0
H1125 H 0.84247 0.26973 0.94804 0.0
H1126 H 0.88274 0.3176 0.98906 0.0
H1127 H 0.86021 0.33804 0.94115 0.0
H1128 H 0.83504 0.34142 0.92266 0.0
H1129 H 0.82254 0.37631 0.95865 0.0
H1130 H 0.84735 0.3728 0.97748 0.0
H1131 H 0.9772 0.42069 0.99147 0.0
H1132 H 0.94676 0.38658 0.98269 0.0
H1133 H 0.90229 0.4018 0.00595 0.0
H1134 H 0.93239 0.43574 0.01471 0.0
H1135 H 0.88961 0.38685 0.97519 0.0
H1136 H 0.91316 0.36693 0.02281 0.0
H1137 H 0.93965 0.36466 0.04057 0.0
H1138 H 0.95152 0.32983 0.00415 0.0
H1139 H 0.92532 0.33217 0.98606 0.0
C1140 C 0.81205 0.28883 0.96482 0.0
C1141 C 0.81668 0.27514 0.95591 0.0
C1142 C 0.82881 0.30745 0.97168 0.0
C1143 C 0.8505 0.31278 0.96969 0.0
C1144 C 0.85504 0.2987 0.96135 0.0
C1145 C 0.83836 0.28011 0.95455 0.0
C1146 C 0.86858 0.33318 0.97595 0.0
C1147 C 0.88432 0.33273 0.98589 0.0
C1148 C 0.87053 0.35298 0.97206 0.0
C1149 C 0.85539 0.35487 0.96082 0.0
C1150 C 0.8519 0.34621 0.9452 0.0
C1151 C 0.83773 0.34819 0.93464 0.0
C1152 C 0.82712 0.35899 0.9395 0.0
C1153 C 0.8307 0.36788 0.95492 0.0
C1154 C 0.8448 0.36588 0.96555 0.0
C1155 C 0.96096 0.41671 0.9948 0.0
C1156 C 0.95729 0.4309 0.00391 0.0
C1157 C 0.94358 0.3972 0.98981 0.0
C1158 C 0.92227 0.3916 0.99377 0.0
C1159 C 0.9186 0.40576 0.0028 0.0
C1160 C 0.9359 0.42513 0.00789 0.0
C1161 C 0.90369 0.37119 0.98821 0.0
C1162 C 0.88791 0.37167 0.9784 0.0
C1163 C 0.90177 0.35145 0.99213 0.0
C1164 C 0.91742 0.3499 0.00302 0.0
C1165 C 0.92154 0.35893 0.01853 0.0
C1166 C 0.93649 0.35761 0.02867 0.0
C1167 C 0.9473 0.34715 0.02348 0.0
C1168 C 0.94315 0.33795 0.00815 0.0
C1169 C 0.92824 0.33925 0.99795 0.0
H1170 H 0.95887 0.34614 0.03134 0.0
H1171 H 0.81619 0.36054 0.9313 0.0
H1172 H 0.70679 0.51937 0.93243 0.0
H1173 H 0.67475 0.51778 0.94428 0.0
H1174 H 0.70973 0.54348 0.98876 0.0
H1175 H 0.74184 0.5448 0.97697 0.0
H1176 H 0.66977 0.51356 0.99499 0.0
H1177 H 0.70171 0.57459 0.96065 0.0
H1178 H 0.71602 0.59365 0.93514 0.0
H1179 H 0.65427 0.55513 0.91238 0.0
H1180 H 0.63965 0.53563 0.93771 0.0
H1181 H 0.5947 0.56536 0.9964 0.0
H1182 H 0.62828 0.56539 0.99077 0.0
H1183 H 0.5959 0.49803 0.99922 0.0
H1184 H 0.5627 0.4983 0.00567 0.0
H1185 H 0.63529 0.54902 0.96687 0.0
H1186 H 0.62233 0.47921 0.00248 0.0
H1187 H 0.61546 0.46279 0.02938 0.0
H1188 H 0.64634 0.52445 0.0515 0.0
H1189 H 0.65246 0.5411 0.02475 0.0
C1190 C 0.70765 0.52464 0.94476 0.0
C1191 C 0.72695 0.53242 0.95371 0.0
C1192 C 0.68931 0.52378 0.95151 0.0
C1193 C 0.68988 0.53094 0.96732 0.0
C1194 C 0.70887 0.53794 0.97651 0.0
C1195 C 0.72721 0.53865 0.96978 0.0
C1196 C 0.67083 0.53147 0.97415 0.0
C1197 C 0.66226 0.52136 0.98883 0.0
C1198 C 0.66097 0.54171 0.96624 0.0
C1199 C 0.66966 0.55353 0.95104 0.0
C1200 C 0.69122 0.57009 0.95018 0.0
C1201 C 0.69938 0.58098 0.93576 0.0
C1202 C 0.68607 0.57557 0.92214 0.0
C1203 C 0.66456 0.55929 0.92293 0.0
C1204 C 0.65632 0.54832 0.93732 0.0
C1205 C 0.59499 0.5507 0.99754 0.0
C1206 C 0.57611 0.5319 0.0016 0.0
C1207 C 0.61418 0.55066 0.99424 0.0
C1208 C 0.61491 0.53172 0.99452 0.0
C1209 C 0.5962 0.51301 0.99927 0.0
C1210 C 0.57706 0.51314 0.00289 0.0
C1211 C 0.63426 0.53133 0.98796 0.0
C1212 C 0.64279 0.54129 0.97313 0.0
C1213 C 0.64427 0.5212 0.99581 0.0
C1214 C 0.63748 0.51131 0.01174 0.0
C1215 C 0.62715 0.48918 0.01314 0.0
C1216 C 0.62342 0.47985 0.02833 0.0
C1217 C 0.63046 0.49257 0.04213 0.0
C1218 C 0.64078 0.51462 0.04079 0.0
C1219 C 0.64408 0.52399 0.02565 0.0
H1220 H 0.6279 0.48534 0.05388 0.0
H1221 H 0.69242 0.58402 0.91099 0.0
H1222 H 0.49635 0.21002 0.96431 0.0
H1223 H 0.50126 0.18265 0.97724 0.0
H1224 H 0.43876 0.13469 0.95956 0.0
H1225 H 0.4332 0.16202 0.94738 0.0
H1226 H 0.44457 0.1257 0.9891 0.0
H1227 H 0.48688 0.14676 0.94054 0.0
H1228 H 0.51471 0.17153 0.92183 0.0
H1229 H 0.5637 0.1874 0.95795 0.0
H1230 H 0.53611 0.16295 0.97697 0.0
H1231 H 0.45731 0.03495 0.98873 0.0
H1232 H 0.45292 0.06491 0.98074 0.0
H1233 H 0.51172 0.10783 0.00604 0.0
H1234 H 0.51632 0.07812 0.01405 0.0
H1235 H 0.50923 0.12065 0.97472 0.0
H1236 H 0.46698 0.09745 0.02255 0.0
H1237 H 0.43925 0.0713 0.04059 0.0
H1238 H 0.39007 0.05836 0.00525 0.0
H1239 H 0.4176 0.08417 0.98684 0.0
C1240 C 0.48346 0.19369 0.96343 0.0
C1241 C 0.46446 0.1882 0.95467 0.0
C1242 C 0.48641 0.17804 0.97067 0.0
C1243 C 0.47055 0.15659 0.9691 0.0
C1244 C 0.45127 0.15113 0.96084 0.0
C1245 C 0.44823 0.16676 0.95374 0.0
C1246 C 0.47422 0.13972 0.9756 0.0
C1247 C 0.45861 0.1245 0.98583 0.0
C1248 C 0.49281 0.13843 0.97164 0.0
C1249 C 0.50938 0.15324 0.96024 0.0
C1250 C 0.50356 0.15569 0.94454 0.0
C1251 C 0.51929 0.16965 0.93387 0.0
C1252 C 0.54095 0.1811 0.93872 0.0
C1253 C 0.54692 0.17857 0.95423 0.0
C1254 C 0.53124 0.16467 0.96496 0.0
C1255 C 0.46928 0.05077 0.99259 0.0
C1256 C 0.48706 0.05417 0.00208 0.0
C1257 C 0.46671 0.06782 0.98809 0.0
C1258 C 0.48194 0.08849 0.99292 0.0
C1259 C 0.49981 0.09196 0.00225 0.0
C1260 C 0.50231 0.07494 0.00687 0.0
C1261 C 0.47944 0.10657 0.98794 0.0
C1262 C 0.49528 0.12199 0.97804 0.0
C1263 C 0.46104 0.10798 0.99213 0.0
C1264 C 0.44439 0.09263 0.00325 0.0
C1265 C 0.45028 0.08891 0.01856 0.0
C1266 C 0.43459 0.07416 0.02886 0.0
C1267 C 0.41291 0.06314 0.02406 0.0
C1268 C 0.40688 0.06689 0.00895 0.0
C1269 C 0.42252 0.0816 0.99857 0.0
H1270 H 0.40079 0.05173 0.03205 0.0
H1271 H 0.55311 0.19188 0.93043 0.0
H1272 H 0.72014 0.17946 0.97376 0.0
H1273 H 0.68741 0.15047 0.98583 0.0
H1274 H 0.64872 0.155 0.94778 0.0
H1275 H 0.68143 0.18366 0.93548 0.0
H1276 H 0.63137 0.15095 0.98019 0.0
H1277 H 0.65884 0.11809 0.94397 0.0
H1278 H 0.6869 0.11126 0.93313 0.0
H1279 H 0.69334 0.08845 0.97923 0.0
H1280 H 0.66552 0.09544 0.99041 0.0
H1281 H 0.53303 0.05432 0.99166 0.0
H1282 H 0.56505 0.08619 0.9828 0.0
H1283 H 0.60525 0.06428 0.00485 0.0
H1284 H 0.57288 0.03063 0.01086 0.0
H1285 H 0.623 0.07924 0.98091 0.0
H1286 H 0.59482 0.11227 0.01787 0.0
H1287 H 0.56754 0.1206 0.02829 0.0
H1288 H 0.56242 0.14345 0.98196 0.0
H1289 H 0.58981 0.13556 0.97123 0.0
C1290 C 0.70464 0.17439 0.96805 0.0
C1291 C 0.70328 0.18379 0.95368 0.0
C1292 C 0.68598 0.15782 0.97494 0.0
C1293 C 0.66566 0.15061 0.9677 0.0
C1294 C 0.66423 0.16039 0.9536 0.0
C1295 C 0.6829 0.17668 0.94656 0.0
C1296 C 0.646 0.13221 0.97437 0.0
C1297 C 0.62941 0.1352 0.98043 0.0
C1298 C 0.64364 0.11181 0.9748 0.0
C1299 C 0.6603 0.10753 0.96807 0.0
C1300 C 0.66639 0.11181 0.95183 0.0
C1301 C 0.68222 0.10787 0.94562 0.0
C1302 C 0.69195 0.09949 0.9555 0.0
C1303 C 0.68582 0.09498 0.9716 0.0
C1304 C 0.67002 0.09892 0.97788 0.0
C1305 C 0.54876 0.05662 0.99495 0.0
C1306 C 0.55052 0.04047 0.0027 0.0
C1307 C 0.56725 0.0751 0.99002 0.0
C1308 C 0.58806 0.07853 0.99362 0.0
C1309 C 0.58963 0.06243 0.00184 0.0
C1310 C 0.57111 0.04329 0.00566 0.0
C1311 C 0.60809 0.09771 0.98758 0.0
C1312 C 0.62483 0.09492 0.9813 0.0
C1313 C 0.61063 0.11837 0.98717 0.0
C1314 C 0.5943 0.12323 0.99374 0.0
C1315 C 0.58786 0.11904 0.0099 0.0
C1316 C 0.57237 0.12366 0.01586 0.0
C1317 C 0.56319 0.1324 0.00581 0.0
C1318 C 0.56955 0.13668 0.98975 0.0
C1319 C 0.58512 0.13224 0.98373 0.0
H1320 H 0.55122 0.13595 0.01048 0.0
H1321 H 0.70419 0.09644 0.95066 0.0
H1322 H 0.81738 0.52248 0.97719 0.0
H1323 H 0.84692 0.51893 0.98919 0.0
H1324 H 0.86367 0.50654 0.94213 0.0
H1325 H 0.83402 0.50956 0.93026 0.0
H1326 H 0.86619 0.48095 0.96253 0.0
H1327 H 0.89195 0.55616 0.96153 0.0
H1328 H 0.89097 0.58872 0.96798 0.0
H1329 H 0.89257 0.57723 0.01849 0.0
H1330 H 0.8933 0.54444 0.01233 0.0
H1331 H 0.98818 0.54059 0.98742 0.0
H1332 H 0.95497 0.54085 0.9805 0.0
H1333 H 0.91709 0.47754 0.99924 0.0
H1334 H 0.95014 0.47666 0.00477 0.0
H1335 H 0.92324 0.53935 0.99522 0.0
H1336 H 0.8688 0.45088 0.98125 0.0
H1337 H 0.87204 0.41994 0.9732 0.0
H1338 H 0.9312 0.46081 0.94857 0.0
H1339 H 0.92818 0.49194 0.95632 0.0
C1340 C 0.82733 0.5189 0.96946 0.0
C1341 C 0.82343 0.51634 0.95277 0.0
C1342 C 0.84427 0.51695 0.97631 0.0
C1343 C 0.85775 0.51263 0.96657 0.0
C1344 C 0.85355 0.50979 0.94995 0.0
C1345 C 0.83662 0.51161 0.94316 0.0
C1346 C 0.87653 0.51145 0.9734 0.0
C1347 C 0.8786 0.4937 0.96974 0.0
C1348 C 0.89288 0.52806 0.98276 0.0
C1349 C 0.89241 0.54773 0.98648 0.0
C1350 C 0.89192 0.56049 0.97401 0.0
C1351 C 0.89144 0.579 0.97761 0.0
C1352 C 0.89163 0.58501 0.99363 0.0
C1353 C 0.89237 0.57254 0.00609 0.0
C1354 C 0.89282 0.55399 0.00255 0.0
C1355 C 0.97273 0.52676 0.99006 0.0
C1356 C 0.97183 0.50881 0.99702 0.0
C1357 C 0.95371 0.52693 0.98619 0.0
C1358 C 0.93333 0.50913 0.98915 0.0
C1359 C 0.93247 0.49134 0.99645 0.0
C1360 C 0.95148 0.49098 0.99992 0.0
C1361 C 0.91318 0.50907 0.98405 0.0
C1362 C 0.91076 0.52651 0.98812 0.0
C1363 C 0.89674 0.49238 0.97474 0.0
C1364 C 0.89835 0.47374 0.96949 0.0
C1365 C 0.88242 0.45323 0.97403 0.0
C1366 C 0.88424 0.43567 0.96955 0.0
C1367 C 0.90185 0.43841 0.96043 0.0
C1368 C 0.9176 0.45871 0.95568 0.0
C1369 C 0.91584 0.47632 0.96011 0.0
H1370 H 0.90327 0.42481 0.95704 0.0
H1371 H 0.89127 0.59935 0.9964 0.0
H1372 H 0.4939 0.31777 0.93066 0.0
H1373 H 0.49975 0.35007 0.94429 0.0
H1374 H 0.4814 0.31678 0.98948 0.0
H1375 H 0.47539 0.28439 0.97588 0.0
H1376 H 0.46211 0.3405 0.98486 0.0
H1377 H 0.53351 0.35058 0.98251 0.0
H1378 H 0.56526 0.35201 0.96964 0.0
H1379 H 0.57169 0.40193 0.93874 0.0
H1380 H 0.53978 0.40059 0.95128 0.0
H1381 H 0.5334 0.45555 0.01869 0.0
H1382 H 0.52806 0.42088 0.01103 0.0
H1383 H 0.47603 0.41116 0.97916 0.0
H1384 H 0.48111 0.44577 0.98679 0.0
H1385 H 0.53202 0.40779 0.98097 0.0
H1386 H 0.43829 0.35821 0.97942 0.0
H1387 H 0.40736 0.35686 0.99363 0.0
H1388 H 0.4472 0.38547 0.0354 0.0
H1389 H 0.47826 0.3867 0.02155 0.0
C1390 C 0.4912 0.31741 0.94351 0.0
C1391 C 0.48432 0.29868 0.95223 0.0
C1392 C 0.49459 0.33583 0.95128 0.0
C1393 C 0.4912 0.33583 0.96791 0.0
C1394 C 0.48414 0.31708 0.97664 0.0
C1395 C 0.4808 0.29863 0.96887 0.0
C1396 C 0.49479 0.35541 0.97609 0.0
C1397 C 0.47741 0.3552 0.98408 0.0
C1398 C 0.51489 0.37446 0.9753 0.0
C1399 C 0.53414 0.37537 0.96776 0.0
C1400 C 0.54159 0.36175 0.97289 0.0
C1401 C 0.55964 0.36257 0.96567 0.0
C1402 C 0.57046 0.37702 0.95336 0.0
C1403 C 0.56328 0.39073 0.94827 0.0
C1404 C 0.54523 0.38997 0.95545 0.0
C1405 C 0.52063 0.44596 0.01019 0.0
C1406 C 0.50764 0.45341 0.00336 0.0
C1407 C 0.5177 0.4262 0.00579 0.0
C1408 C 0.5016 0.41347 0.99461 0.0
C1409 C 0.48839 0.42069 0.98795 0.0
C1410 C 0.49139 0.44051 0.99227 0.0
C1411 C 0.49918 0.39299 0.98935 0.0
C1412 C 0.51678 0.39305 0.98188 0.0
C1413 C 0.47938 0.37377 0.99081 0.0
C1414 C 0.46065 0.3727 0.99937 0.0
C1415 C 0.44042 0.3641 0.99166 0.0
C1416 C 0.42286 0.36338 0.99965 0.0
C1417 C 0.42532 0.37113 0.01539 0.0
C1418 C 0.44533 0.37954 0.02319 0.0
C1419 C 0.46292 0.38028 0.01527 0.0
H1420 H 0.41172 0.37058 0.02154 0.0
H1421 H 0.58443 0.37762 0.94778 0.0
H1422 H 0.19404 0.72335 0.0531 0.0
H1423 H 0.16351 0.69072 0.0423 0.0
H1424 H 0.17018 0.65531 0.08126 0.0
H1425 H 0.20001 0.68803 0.09244 0.0
H1426 H 0.15788 0.65542 0.03085 0.0
H1427 H 0.12263 0.61377 0.09155 0.0
H1428 H 0.1206 0.62304 0.11983 0.0
H1429 H 0.12703 0.68226 0.1049 0.0
H1430 H 0.12892 0.67328 0.07652 0.0
H1431 H 0.08242 0.54744 0.01691 0.0
H1432 H 0.11218 0.58083 0.02684 0.0
H1433 H 0.06667 0.59812 0.04534 0.0
H1434 H 0.03665 0.5641 0.03608 0.0
H1435 H 0.09707 0.60826 0.06636 0.0
H1436 H 0.09655 0.61985 0.00958 0.0
H1437 H 0.0962 0.61061 0.98095 0.0
H1438 H 0.15743 0.61368 0.98702 0.0
H1439 H 0.15804 0.62272 0.01575 0.0
C1440 C 0.18901 0.70858 0.05932 0.0
C1441 C 0.1993 0.70819 0.07366 0.0
C1442 C 0.17156 0.68992 0.05313 0.0
C1443 C 0.16419 0.67052 0.0611 0.0
C1444 C 0.17509 0.67008 0.0751 0.0
C1445 C 0.19225 0.68876 0.08142 0.0
C1446 C 0.14505 0.65082 0.05488 0.0
C1447 C 0.14458 0.64517 0.03863 0.0
C1448 C 0.12745 0.63745 0.06491 0.0
C1449 C 0.12613 0.64293 0.08193 0.0
C1450 C 0.12354 0.62874 0.0943 0.0
C1451 C 0.12242 0.63394 0.11035 0.0
C1452 C 0.12373 0.65324 0.11416 0.0
C1453 C 0.1261 0.66735 0.10193 0.0
C1454 C 0.12723 0.66223 0.08587 0.0
C1455 C 0.07868 0.55837 0.02299 0.0
C1456 C 0.05712 0.55317 0.02559 0.0
C1457 C 0.09577 0.57755 0.02862 0.0
C1458 C 0.09175 0.59225 0.03659 0.0
C1459 C 0.07022 0.58708 0.0392 0.0
C1460 C 0.05306 0.56768 0.03383 0.0
C1461 C 0.10998 0.61284 0.04239 0.0
C1462 C 0.11033 0.61859 0.05857 0.0
C1463 C 0.12721 0.62651 0.03222 0.0
C1464 C 0.12728 0.62186 0.01483 0.0
C1465 C 0.10992 0.61853 0.00481 0.0
C1466 C 0.10968 0.61332 0.98857 0.0
C1467 C 0.12677 0.61153 0.98218 0.0
C1468 C 0.14421 0.61507 0.99199 0.0
C1469 C 0.14454 0.62029 0.00825 0.0
H1470 H 0.12649 0.60739 0.96962 0.0
H1471 H 0.12287 0.65724 0.12659 0.0
H1472 H 0.32758 0.49383 0.08948 0.0
H1473 H 0.35975 0.49762 0.07621 0.0
H1474 H 0.32708 0.4847 0.03027 0.0
H1475 H 0.29451 0.48049 0.04366 0.0
H1476 H 0.34804 0.46356 0.03244 0.0
H1477 H 0.36742 0.53541 0.04095 0.0
H1478 H 0.37263 0.56689 0.05596 0.0
H1479 H 0.41826 0.56277 0.08736 0.0
H1480 H 0.41308 0.53107 0.07269 0.0
H1481 H 0.47502 0.5285 0.01463 0.0
H1482 H 0.44017 0.52677 0.01809 0.0
H1483 H 0.41287 0.46286 0.03573 0.0
H1484 H 0.44715 0.46411 0.03107 0.0
H1485 H 0.42085 0.52514 0.04321 0.0
H1486 H 0.36258 0.4354 0.03591 0.0
H1487 H 0.35638 0.40572 0.01803 0.0
H1488 H 0.38696 0.44913 0.97915 0.0
H1489 H 0.3935 0.47908 0.99693 0.0
C1490 C 0.32727 0.49191 0.07653 0.0
C1491 C 0.30854 0.48696 0.06763 0.0
C1492 C 0.34575 0.49419 0.06893 0.0
C1493 C 0.34608 0.4918 0.05216 0.0
C1494 C 0.32731 0.48674 0.0432 0.0
C1495 C 0.30871 0.48439 0.05085 0.0
C1496 C 0.36583 0.49391 0.04423 0.0
C1497 C 0.36394 0.47711 0.03472 0.0
C1498 C 0.38664 0.51174 0.04685 0.0
C1499 C 0.38973 0.53075 0.05578 0.0
C1500 C 0.37843 0.54111 0.05114 0.0
C1501 C 0.3814 0.55901 0.05957 0.0
C1502 C 0.39574 0.5668 0.07262 0.0
C1503 C 0.40715 0.55671 0.07725 0.0
C1504 C 0.40422 0.53878 0.06887 0.0
C1505 C 0.46133 0.51379 0.01857 0.0
C1506 C 0.4637 0.49622 0.02214 0.0
C1507 C 0.44139 0.51287 0.02077 0.0
C1508 C 0.4235 0.49455 0.027 0.0
C1509 C 0.42593 0.47696 0.03039 0.0
C1510 C 0.44569 0.47774 0.02788 0.0
C1511 C 0.4032 0.49457 0.03163 0.0
C1512 C 0.40497 0.51172 0.04069 0.0
C1513 C 0.38224 0.47729 0.02829 0.0
C1514 C 0.37879 0.45944 0.01774 0.0
C1515 C 0.36805 0.43858 0.02356 0.0
C1516 C 0.36452 0.42174 0.01347 0.0
C1517 C 0.37143 0.42556 0.99749 0.0
C1518 C 0.38185 0.44623 0.99158 0.0
C1519 C 0.3856 0.46315 0.00167 0.0
H1520 H 0.36861 0.4125 0.98968 0.0
H1521 H 0.39803 0.58068 0.07912 0.0
H1522 H 0.53792 0.81648 0.05005 0.0
H1523 H 0.53291 0.84447 0.03828 0.0
H1524 H 0.51159 0.85482 0.08421 0.0
H1525 H 0.51635 0.82666 0.09601 0.0
H1526 H 0.48629 0.85474 0.05968 0.0
H1527 H 0.56259 0.88747 0.07154 0.0
H1528 H 0.59881 0.89116 0.07022 0.0
H1529 H 0.59858 0.89674 0.01879 0.0
H1530 H 0.56221 0.8928 0.01979 0.0
H1531 H 0.50213 0.95807 0.05109 0.0
H1532 H 0.50609 0.92809 0.0598 0.0
H1533 H 0.52038 0.91882 0.01104 0.0
H1534 H 0.51655 0.94885 0.00234 0.0
H1535 H 0.54846 0.91731 0.0349 0.0
H1536 H 0.47334 0.88675 0.02298 0.0
H1537 H 0.43717 0.88318 0.02403 0.0
H1538 H 0.4351 0.87347 0.07509 0.0
H1539 H 0.47142 0.87735 0.07439 0.0
C1540 C 0.53207 0.82464 0.05762 0.0
C1541 C 0.52756 0.81949 0.07396 0.0
C1542 C 0.52929 0.84067 0.05089 0.0
C1543 C 0.52209 0.85185 0.06042 0.0
C1544 C 0.51716 0.84638 0.07666 0.0
C1545 C 0.51994 0.83037 0.08338 0.0
C1546 C 0.52005 0.86951 0.05361 0.0
C1547 C 0.49993 0.86851 0.05441 0.0
C1548 C 0.53772 0.8872 0.04633 0.0
C1549 C 0.55959 0.8896 0.04572 0.0
C1550 C 0.57019 0.88931 0.05994 0.0
C1551 C 0.59076 0.89148 0.05925 0.0
C1552 C 0.60096 0.89412 0.04443 0.0
C1553 C 0.59064 0.89466 0.03026 0.0
C1554 C 0.57006 0.89247 0.03088 0.0
C1555 C 0.50629 0.94972 0.04227 0.0
C1556 C 0.50875 0.95553 0.02599 0.0
C1557 C 0.50841 0.93257 0.04723 0.0
C1558 C 0.51328 0.92117 0.036 0.0
C1559 C 0.51645 0.92737 0.01983 0.0
C1560 C 0.51404 0.94435 0.01484 0.0
C1561 C 0.51483 0.90262 0.04121 0.0
C1562 C 0.53481 0.90346 0.04009 0.0
C1563 C 0.49704 0.88478 0.04816 0.0
C1564 C 0.47521 0.88253 0.04865 0.0
C1565 C 0.46527 0.88407 0.03446 0.0
C1566 C 0.44472 0.88193 0.03498 0.0
C1567 C 0.43384 0.87807 0.04961 0.0
C1568 C 0.44352 0.87642 0.06376 0.0
C1569 C 0.4641 0.87858 0.06331 0.0
H1570 H 0.41788 0.87627 0.04995 0.0
H1571 H 0.61689 0.8958 0.04393 0.0
H1572 H 0.96501 0.13583 0.39015 0.0
H1573 H 0.99554 0.1648 0.3761 0.0
H1574 H 0.97713 0.20893 0.39447 0.0
H1575 H 0.94636 0.18004 0.40818 0.0
H1576 H 0.98933 0.217 0.36332 0.0
H1577 H 0.01711 0.20388 0.41235 0.0
H1578 H 0.02381 0.18209 0.43161 0.0
H1579 H 0.05814 0.16875 0.39537 0.0
H1580 H 0.05138 0.19023 0.37581 0.0
H1581 H 0.08577 0.31611 0.36086 0.0
H1582 H 0.05199 0.28326 0.36551 0.0
H1583 H 0.08232 0.24731 0.35119 0.0
H1584 H 0.11653 0.28023 0.34774 0.0
H1585 H 0.0634 0.2325 0.37736 0.0
H1586 H 0.03613 0.24588 0.32828 0.0
H1587 H 0.0285 0.2668 0.30867 0.0
H1588 H 0.99338 0.27944 0.34465 0.0
H1589 H 1.00071 0.25853 0.36439 0.0
C1590 C 0.96729 0.15166 0.39099 0.0
C1591 C 0.95337 0.15567 0.4004 0.0
C1592 C 0.98484 0.16822 0.38306 0.0
C1593 C 0.9888 0.18909 0.3844 0.0
C1594 C 0.97446 0.19298 0.3933 0.0
C1595 C 0.95698 0.17648 0.40124 0.0
C1596 C 0.00827 0.20708 0.37709 0.0
C1597 C 0.00556 0.22047 0.36643 0.0
C1598 C 0.02942 0.21133 0.38082 0.0
C1599 C 0.03351 0.19844 0.39257 0.0
C1600 C 0.02593 0.19615 0.40845 0.0
C1601 C 0.02977 0.18388 0.41943 0.0
C1602 C 0.04133 0.17399 0.4147 0.0
C1603 C 0.04914 0.17639 0.399 0.0
C1604 C 0.04532 0.18861 0.38797 0.0
C1605 C 0.08506 0.30118 0.35836 0.0
C1606 C 0.10371 0.30079 0.35361 0.0
C1607 C 0.06564 0.28233 0.36086 0.0
C1608 C 0.0643 0.2626 0.35846 0.0
C1609 C 0.08278 0.26224 0.35308 0.0
C1610 C 0.10235 0.28113 0.3509 0.0
C1611 C 0.04462 0.24265 0.3635 0.0
C1612 C 0.04725 0.2289 0.3739 0.0
C1613 C 0.02339 0.23806 0.3595 0.0
C1614 C 0.01921 0.2509 0.3478 0.0
C1615 C 0.02698 0.25333 0.332 0.0
C1616 C 0.02262 0.26508 0.32087 0.0
C1617 C 0.0106 0.27456 0.32545 0.0
C1618 C 1.00275 0.27215 0.34113 0.0
C1619 C 0.00691 0.26027 0.35227 0.0
H1620 H 0.0073 0.2837 0.31682 0.0
H1621 H 0.04429 0.16451 0.42322 0.0
H1622 H 0.86286 0.8256 0.42534 0.0
H1623 H 0.83199 0.8267 0.41349 0.0
H1624 H 0.83222 0.78914 0.37328 0.0
H1625 H 0.8637 0.7889 0.38479 0.0
H1626 H 0.82335 0.81585 0.3622 0.0
H1627 H 0.79556 0.76867 0.40698 0.0
H1628 H 0.79322 0.75786 0.43534 0.0
H1629 H 0.77889 0.80621 0.44955 0.0
H1630 H 0.78145 0.8175 0.42128 0.0
H1631 H 0.69787 0.7723 0.36422 0.0
H1632 H 0.73113 0.77187 0.37065 0.0
H1633 H 0.76885 0.83775 0.35785 0.0
H1634 H 0.73555 0.83844 0.35199 0.0
H1635 H 0.7583 0.79625 0.39507 0.0
H1636 H 0.81455 0.8463 0.34466 0.0
H1637 H 0.82034 0.84811 0.31528 0.0
H1638 H 0.77593 0.78127 0.31111 0.0
H1639 H 0.76949 0.77927 0.34039 0.0
C1640 C 0.85641 0.81776 0.41389 0.0
C1641 C 0.8657 0.80716 0.40599 0.0
C1642 C 0.83862 0.81823 0.40717 0.0
C1643 C 0.82929 0.8076 0.39261 0.0
C1644 C 0.83898 0.79748 0.38452 0.0
C1645 C 0.85703 0.79736 0.39108 0.0
C1646 C 0.80944 0.80684 0.3858 0.0
C1647 C 0.80922 0.8117 0.36949 0.0
C1648 C 0.79062 0.80091 0.39506 0.0
C1649 C 0.78891 0.79406 0.41204 0.0
C1650 C 0.79204 0.77708 0.41616 0.0
C1651 C 0.79067 0.77086 0.43222 0.0
C1652 C 0.78596 0.78138 0.44424 0.0
C1653 C 0.78256 0.7981 0.44023 0.0
C1654 C 0.78396 0.8044 0.42419 0.0
C1655 C 0.71326 0.78659 0.36242 0.0
C1656 C 0.71395 0.80532 0.35738 0.0
C1657 C 0.7323 0.78632 0.3661 0.0
C1658 C 0.7526 0.80475 0.36471 0.0
C1659 C 0.75346 0.82323 0.35884 0.0
C1660 C 0.73433 0.82359 0.35541 0.0
C1661 C 0.77233 0.80531 0.37148 0.0
C1662 C 0.77255 0.8006 0.38787 0.0
C1663 C 0.79089 0.81065 0.36221 0.0
C1664 C 0.7912 0.81274 0.34457 0.0
C1665 C 0.8056 0.83214 0.33737 0.0
C1666 C 0.80915 0.83315 0.32079 0.0
C1667 C 0.79855 0.8148 0.31134 0.0
C1668 C 0.78411 0.79547 0.31844 0.0
C1669 C 0.78024 0.79445 0.33497 0.0
H1670 H 0.80145 0.81558 0.29852 0.0
H1671 H 0.78491 0.77654 0.45666 0.0
H1672 H 0.20226 0.04769 0.42627 0.0
H1673 H 0.19856 0.01538 0.41429 0.0
H1674 H 0.21951 0.04679 0.36857 0.0
H1675 H 0.22373 0.07944 0.38056 0.0
H1676 H 0.18443 0.00319 0.36682 0.0
H1677 H 0.25567 0.04529 0.38993 0.0
H1678 H 0.28138 0.06592 0.41163 0.0
H1679 H 0.25379 0.011 0.44187 0.0
H1680 H 0.22767 0.99012 0.42042 0.0
H1681 H 0.2092 0.92859 0.33304 0.0
H1682 H 0.21242 0.962 0.34208 0.0
H1683 H 0.2041 0.94046 0.39126 0.0
H1684 H 0.20129 0.90721 0.3822 0.0
H1685 H 0.2336 0.98036 0.3901 0.0
H1686 H 0.16214 0.93805 0.36804 0.0
H1687 H 0.13539 0.91676 0.34707 0.0
H1688 H 0.16158 0.97068 0.31585 0.0
H1689 H 0.18879 0.9922 0.3365 0.0
C1690 C 0.20596 0.04771 0.41364 0.0
C1691 C 0.2136 0.06621 0.40442 0.0
C1692 C 0.20373 0.02922 0.40681 0.0
C1693 C 0.20905 0.02886 0.39063 0.0
C1694 C 0.21535 0.04683 0.38109 0.0
C1695 C 0.21769 0.06542 0.38795 0.0
C1696 C 0.20966 0.01025 0.38413 0.0
C1697 C 0.19535 0.9983 0.37171 0.0
C1698 C 0.22366 0.00376 0.3908 0.0
C1699 C 0.23959 0.01619 0.40362 0.0
C1700 C 0.25498 0.03765 0.40125 0.0
C1701 C 0.26964 0.04939 0.4135 0.0
C1702 C 0.26919 0.03979 0.42813 0.0
C1703 C 0.25411 0.01842 0.43053 0.0
C1704 C 0.23938 0.00662 0.41833 0.0
C1705 C 0.20797 0.93098 0.34573 0.0
C1706 C 0.20464 0.91525 0.35688 0.0
C1707 C 0.20986 0.95008 0.35091 0.0
C1708 C 0.208 0.95354 0.36732 0.0
C1709 C 0.2055 0.93811 0.37853 0.0
C1710 C 0.20394 0.91916 0.37336 0.0
C1711 C 0.20817 0.973 0.37284 0.0
C1712 C 0.22269 0.98519 0.3851 0.0
C1713 C 0.19418 0.97954 0.36612 0.0
C1714 C 0.17762 0.9667 0.35378 0.0
C1715 C 0.16228 0.94534 0.35667 0.0
C1716 C 0.14704 0.93323 0.34484 0.0
C1717 C 0.14679 0.94238 0.33015 0.0
C1718 C 0.1618 0.96363 0.32724 0.0
C1719 C 0.17714 0.97579 0.339 0.0
H1720 H 0.13492 0.93305 0.32104 0.0
H1721 H 0.28054 0.0489 0.4376 0.0
H1722 H 0.48688 0.63112 0.26293 0.0
H1723 H 0.51781 0.66304 0.27389 0.0
H1724 H 0.50975 0.632 0.31952 0.0
H1725 H 0.47887 0.59972 0.30852 0.0
H1726 H 0.51895 0.67401 0.32267 0.0
H1727 H 0.54762 0.63556 0.29486 0.0
H1728 H 0.55195 0.61672 0.27174 0.0
H1729 H 0.57643 0.67302 0.24322 0.0
H1730 H 0.57194 0.69212 0.2661 0.0
H1731 H 0.62115 0.74777 0.35493 0.0
H1732 H 0.59022 0.71498 0.34509 0.0
H1733 H 0.60015 0.74139 0.29739 0.0
H1734 H 0.63125 0.7743 0.30733 0.0
H1735 H 0.58981 0.70113 0.29573 0.0
H1736 H 0.56119 0.73978 0.32287 0.0
H1737 H 0.55668 0.75911 0.34556 0.0
H1738 H 0.53174 0.70336 0.37476 0.0
H1739 H 0.53651 0.6838 0.35235 0.0
C1740 C 0.49169 0.631 0.27529 0.0
C1741 C 0.48053 0.6127 0.28477 0.0
C1742 C 0.50935 0.64931 0.28155 0.0
C1743 C 0.51631 0.6498 0.29744 0.0
C1744 C 0.50469 0.63194 0.3072 0.0
C1745 C 0.487 0.61352 0.30091 0.0
C1746 C 0.53612 0.66878 0.30362 0.0
C1747 C 0.53452 0.67979 0.31694 0.0
C1748 C 0.55632 0.6766 0.29589 0.0
C1749 C 0.55925 0.66521 0.28216 0.0
C1750 C 0.55378 0.64388 0.28362 0.0
C1751 C 0.55628 0.63316 0.27057 0.0
C1752 C 0.56441 0.64365 0.25601 0.0
C1753 C 0.57011 0.66491 0.25449 0.0
C1754 C 0.56761 0.67569 0.26751 0.0
C1755 C 0.61659 0.74668 0.34243 0.0
C1756 C 0.62826 0.76376 0.33202 0.0
C1757 C 0.59897 0.72787 0.33676 0.0
C1758 C 0.59248 0.72585 0.32057 0.0
C1759 C 0.60474 0.74259 0.30996 0.0
C1760 C 0.62252 0.76136 0.31563 0.0
C1761 C 0.57269 0.70648 0.31479 0.0
C1762 C 0.57428 0.69538 0.30151 0.0
C1763 C 0.55245 0.69868 0.3225 0.0
C1764 C 0.54935 0.71036 0.33595 0.0
C1765 C 0.55488 0.73167 0.33416 0.0
C1766 C 0.55226 0.74267 0.34697 0.0
C1767 C 0.54389 0.73245 0.36157 0.0
C1768 C 0.53819 0.71124 0.36343 0.0
C1769 C 0.54084 0.70019 0.35067 0.0
H1770 H 0.54175 0.74093 0.37145 0.0
H1771 H 0.56633 0.63533 0.24591 0.0
H1772 H 0.38032 0.86434 0.26753 0.0
H1773 H 0.34817 0.86265 0.27886 0.0
H1774 H 0.37751 0.87592 0.3261 0.0
H1775 H 0.41047 0.87891 0.31458 0.0
H1776 H 0.31899 0.83941 0.29846 0.0
H1777 H 0.35872 0.90273 0.34873 0.0
H1778 H 0.39355 0.93492 0.35479 0.0
H1779 H 0.40697 0.94531 0.30426 0.0
H1780 H 0.37213 0.91336 0.29791 0.0
H1781 H 0.2316 0.83771 0.3387 0.0
H1782 H 0.26528 0.83764 0.33428 0.0
H1783 H 0.29483 0.90185 0.31691 0.0
H1784 H 0.26156 0.90245 0.32266 0.0
H1785 H 0.32409 0.89852 0.33156 0.0
H1786 H 0.27173 0.85535 0.2913 0.0
H1787 H 0.2368 0.82627 0.28131 0.0
H1788 H 0.24877 0.78084 0.30502 0.0
H1789 H 0.28369 0.80968 0.3153 0.0
C1790 C 0.38013 0.86716 0.28032 0.0
C1791 C 0.39829 0.8722 0.29005 0.0
C1792 C 0.36152 0.86592 0.28684 0.0
C1793 C 0.36035 0.86946 0.30334 0.0
C1794 C 0.37807 0.87354 0.31327 0.0
C1795 C 0.39687 0.875 0.30669 0.0
C1796 C 0.34073 0.86931 0.30984 0.0
C1797 C 0.32018 0.85231 0.30579 0.0
C1798 C 0.34202 0.88623 0.31919 0.0
C1799 C 0.36296 0.9055 0.32287 0.0
C1800 C 0.3691 0.91191 0.33892 0.0
C1801 C 0.38884 0.93011 0.3424 0.0
C1802 C 0.4025 0.9421 0.32992 0.0
C1803 C 0.39642 0.93596 0.31392 0.0
C1804 C 0.37669 0.9178 0.31038 0.0
C1805 C 0.24544 0.85203 0.33444 0.0
C1806 C 0.24405 0.87028 0.33144 0.0
C1807 C 0.26469 0.85187 0.33162 0.0
C1808 C 0.28267 0.86961 0.32493 0.0
C1809 C 0.28134 0.88795 0.32212 0.0
C1810 C 0.26226 0.88826 0.32533 0.0
C1811 C 0.30239 0.86877 0.32 0.0
C1812 C 0.32292 0.88552 0.32439 0.0
C1813 C 0.30111 0.85203 0.31041 0.0
C1814 C 0.28022 0.83466 0.30416 0.0
C1815 C 0.26686 0.83916 0.29444 0.0
C1816 C 0.24708 0.82273 0.28873 0.0
C1817 C 0.24059 0.80174 0.29254 0.0
C1818 C 0.25384 0.79712 0.30209 0.0
C1819 C 0.27363 0.81349 0.30784 0.0
H1820 H 0.22535 0.78905 0.28804 0.0
H1821 H 0.41778 0.95617 0.33264 0.0
H1822 H 0.1507 0.52086 0.26516 0.0
H1823 H 0.15338 0.49149 0.27679 0.0
H1824 H 0.12965 0.50063 0.32202 0.0
H1825 H 0.12652 0.5298 0.31041 0.0
H1826 H 0.16365 0.4911 0.32527 0.0
H1827 H 0.09497 0.46452 0.29837 0.0
H1828 H 0.07133 0.46094 0.27544 0.0
H1829 H 0.10178 0.43448 0.24648 0.0
H1830 H 0.12587 0.43823 0.26917 0.0
H1831 H 0.13651 0.39062 0.35677 0.0
H1832 H 0.13243 0.42041 0.34785 0.0
H1833 H 0.14834 0.41173 0.29939 0.0
H1834 H 0.15204 0.38178 0.30826 0.0
H1835 H 0.11715 0.42129 0.29902 0.0
H1836 H 0.18492 0.44623 0.32641 0.0
H1837 H 0.20663 0.44749 0.34989 0.0
H1838 H 0.17949 0.4781 0.37779 0.0
H1839 H 0.1563 0.47555 0.35483 0.0
C1840 C 0.14615 0.5167 0.2776 0.0
C1841 C 0.13815 0.5275 0.2868 0.0
C1842 C 0.14779 0.50001 0.28425 0.0
C1843 C 0.14147 0.49379 0.30019 0.0
C1844 C 0.13463 0.50525 0.3097 0.0
C1845 C 0.13291 0.52193 0.30304 0.0
C1846 C 0.14038 0.47432 0.30647 0.0
C1847 C 0.15332 0.47578 0.3197 0.0
C1848 C 0.12706 0.45443 0.29901 0.0
C1849 C 0.11235 0.45183 0.28543 0.0
C1850 C 0.09673 0.45807 0.28708 0.0
C1851 C 0.08324 0.456 0.27413 0.0
C1852 C 0.08508 0.44754 0.2595 0.0
C1853 C 0.10038 0.44106 0.25781 0.0
C1854 C 0.11395 0.44314 0.27072 0.0
C1855 C 0.13921 0.39515 0.34428 0.0
C1856 C 0.145 0.38423 0.33328 0.0
C1857 C 0.13672 0.41204 0.33915 0.0
C1858 C 0.14049 0.41853 0.32301 0.0
C1859 C 0.14538 0.40702 0.3119 0.0
C1860 C 0.14753 0.38995 0.31698 0.0
C1861 C 0.1406 0.43799 0.31777 0.0
C1862 C 0.12746 0.43656 0.30469 0.0
C1863 C 0.15384 0.45789 0.32535 0.0
C1864 C 0.16865 0.46048 0.33891 0.0
C1865 C 0.18341 0.45307 0.33758 0.0
C1866 C 0.19593 0.45395 0.35083 0.0
C1867 C 0.19462 0.46308 0.36528 0.0
C1868 C 0.18053 0.47107 0.36657 0.0
C1869 C 0.16753 0.46974 0.35348 0.0
H1870 H 0.20452 0.46395 0.37547 0.0
H1871 H 0.07463 0.44596 0.24949 0.0
H1872 H 0.38624 0.51172 0.30504 0.0
H1873 H 0.3539 0.48202 0.31706 0.0
H1874 H 0.31332 0.49387 0.28527 0.0
H1875 H 0.34553 0.52306 0.27288 0.0
H1876 H 0.30253 0.48783 0.32114 0.0
H1877 H 0.31642 0.45656 0.27431 0.0
H1878 H 0.3394 0.44824 0.25723 0.0
H1879 H 0.34928 0.41602 0.29667 0.0
H1880 H 0.3266 0.42445 0.31406 0.0
H1881 H 0.19972 0.39467 0.33295 0.0
H1882 H 0.23263 0.42737 0.32628 0.0
H1883 H 0.26976 0.39597 0.33376 0.0
H1884 H 0.23634 0.36268 0.338 0.0
H1885 H 0.2837 0.41377 0.30991 0.0
H1886 H 0.27811 0.45172 0.3587 0.0
H1887 H 0.26407 0.46851 0.37734 0.0
H1888 H 0.24168 0.4895 0.33735 0.0
H1889 H 0.25658 0.4739 0.31848 0.0
C1890 C 0.37041 0.50805 0.30071 0.0
C1891 C 0.36831 0.51969 0.28808 0.0
C1892 C 0.352 0.49108 0.30754 0.0
C1893 C 0.33127 0.4858 0.30203 0.0
C1894 C 0.32918 0.49774 0.28969 0.0
C1895 C 0.34755 0.51436 0.28263 0.0
C1896 C 0.31172 0.46759 0.30892 0.0
C1897 C 0.29825 0.47153 0.31876 0.0
C1898 C 0.3065 0.4465 0.306 0.0
C1899 C 0.32005 0.44137 0.29553 0.0
C1900 C 0.32368 0.4479 0.27938 0.0
C1901 C 0.3366 0.44312 0.26964 0.0
C1902 C 0.34585 0.43167 0.27587 0.0
C1903 C 0.34214 0.42492 0.29186 0.0
C1904 C 0.32925 0.42969 0.30166 0.0
C1905 C 0.21502 0.39496 0.33345 0.0
C1906 C 0.21556 0.37621 0.33615 0.0
C1907 C 0.23406 0.41387 0.32982 0.0
C1908 C 0.25422 0.41468 0.32953 0.0
C1909 C 0.25465 0.39607 0.33347 0.0
C1910 C 0.23554 0.37698 0.33612 0.0
C1911 C 0.27426 0.43356 0.32311 0.0
C1912 C 0.28786 0.42985 0.31293 0.0
C1913 C 0.27983 0.45494 0.32604 0.0
C1914 C 0.26797 0.46122 0.33723 0.0
C1915 C 0.26976 0.45951 0.35392 0.0
C1916 C 0.26186 0.46898 0.3645 0.0
C1917 C 0.25166 0.47967 0.35855 0.0
C1918 C 0.24948 0.48111 0.34196 0.0
C1919 C 0.25774 0.47207 0.33132 0.0
H1920 H 0.24561 0.487 0.36679 0.0
H1921 H 0.35584 0.42797 0.26831 0.0
H1922 H 0.50612 0.84914 0.26805 0.0
H1923 H 0.53448 0.84469 0.28074 0.0
H1924 H 0.51483 0.85484 0.32743 0.0
H1925 H 0.48659 0.85979 0.31463 0.0
H1926 H 0.55704 0.87607 0.32574 0.0
H1927 H 0.50375 0.80465 0.31446 0.0
H1928 H 0.47732 0.7743 0.29815 0.0
H1929 H 0.52797 0.78132 0.26661 0.0
H1930 H 0.55467 0.81191 0.28261 0.0
H1931 H 0.61749 0.81016 0.34163 0.0
H1932 H 0.58441 0.81174 0.33707 0.0
H1933 H 0.62302 0.87744 0.3236 0.0
H1934 H 0.65578 0.8763 0.32963 0.0
H1935 H 0.56775 0.81557 0.31242 0.0
H1936 H 0.60116 0.90451 0.32333 0.0
H1937 H 0.62436 0.93287 0.34255 0.0
H1938 H 0.60769 0.88682 0.37994 0.0
H1939 H 0.58447 0.85821 0.36079 0.0
C1940 C 0.50776 0.85031 0.28104 0.0
C1941 C 0.49406 0.85473 0.29033 0.0
C1942 C 0.52393 0.84764 0.28831 0.0
C1943 C 0.52669 0.84907 0.30511 0.0
C1944 C 0.51303 0.85356 0.31445 0.0
C1945 C 0.49684 0.85634 0.30714 0.0
C1946 C 0.54432 0.8466 0.31273 0.0
C1947 C 0.55928 0.86275 0.32289 0.0
C1948 C 0.54718 0.82908 0.30935 0.0
C1949 C 0.53118 0.81069 0.29967 0.0
C1950 C 0.50923 0.79983 0.30398 0.0
C1951 C 0.4942 0.78256 0.2948 0.0
C1952 C 0.50096 0.77591 0.28133 0.0
C1953 C 0.52276 0.7865 0.27704 0.0
C1954 C 0.53785 0.80379 0.28617 0.0
C1955 C 0.61884 0.82514 0.33835 0.0
C1956 C 0.63927 0.84328 0.33649 0.0
C1957 C 0.59989 0.826 0.33551 0.0
C1958 C 0.6009 0.84486 0.33023 0.0
C1959 C 0.62142 0.8629 0.32828 0.0
C1960 C 0.64028 0.86217 0.33154 0.0
C1961 C 0.5808 0.84523 0.32532 0.0
C1962 C 0.56542 0.82876 0.3155 0.0
C1963 C 0.57724 0.8622 0.32932 0.0
C1964 C 0.59147 0.87926 0.34066 0.0
C1965 C 0.60256 0.90047 0.33564 0.0
C1966 C 0.61571 0.91656 0.34649 0.0
C1967 C 0.61764 0.91162 0.36242 0.0
C1968 C 0.60638 0.89059 0.36755 0.0
C1969 C 0.59336 0.87443 0.3567 0.0
H1970 H 0.62776 0.9241 0.37082 0.0
H1971 H 0.4893 0.76254 0.27424 0.0
H1972 H 0.1598 0.63097 0.30396 0.0
H1973 H 0.17053 0.66692 0.31307 0.0
H1974 H 0.11046 0.65953 0.29484 0.0
H1975 H 0.09979 0.6237 0.28555 0.0
H1976 H 0.14453 0.69684 0.28597 0.0
H1977 H 0.11808 0.6567 0.33485 0.0
H1978 H 0.11641 0.63246 0.35616 0.0
H1979 H 0.18308 0.67494 0.36805 0.0
H1980 H 0.18522 0.69931 0.34665 0.0
H1981 H 0.14403 0.78401 0.32231 0.0
H1982 H 0.13536 0.74841 0.3142 0.0
H1983 H 0.19461 0.75829 0.33614 0.0
H1984 H 0.20306 0.79372 0.34477 0.0
H1985 H 0.16294 0.72025 0.34284 0.0
H1986 H 0.18863 0.76167 0.29499 0.0
H1987 H 0.19011 0.7859 0.27369 0.0
H1988 H 0.12501 0.74101 0.25953 0.0
H1989 H 0.12301 0.71673 0.28093 0.0
C1990 C 0.14886 0.63699 0.30197 0.0
C1991 C 0.12893 0.62461 0.29409 0.0
C1992 C 0.15498 0.65749 0.30721 0.0
C1993 C 0.14122 0.66582 0.30471 0.0
C1994 C 0.12131 0.6534 0.29686 0.0
C1995 C 0.11521 0.63296 0.29164 0.0
C1996 C 0.14761 0.6876 0.30999 0.0
C1997 C 0.14833 0.70194 0.29843 0.0
C1998 C 0.15315 0.69433 0.32616 0.0
C1999 C 0.15187 0.67971 0.33903 0.0
C2000 C 0.13244 0.66078 0.34192 0.0
C2001 C 0.13139 0.64704 0.35403 0.0
C2002 C 0.14964 0.65212 0.36342 0.0
C2003 C 0.16896 0.671 0.36074 0.0
C2004 C 0.1701 0.68479 0.34864 0.0
C2005 C 0.15521 0.77861 0.32543 0.0
C2006 C 0.17424 0.79167 0.33415 0.0
C2007 C 0.15028 0.75829 0.32072 0.0
C2008 C 0.16453 0.75083 0.32431 0.0
C2009 C 0.18341 0.76374 0.33321 0.0
C2010 C 0.1882 0.78397 0.33813 0.0
C2011 C 0.15964 0.7295 0.31885 0.0
C2012 C 0.15925 0.71525 0.33035 0.0
C2013 C 0.15443 0.72286 0.3026 0.0
C2014 C 0.15564 0.73745 0.28966 0.0
C2015 C 0.1746 0.75705 0.2874 0.0
C2016 C 0.17552 0.77079 0.27531 0.0
C2017 C 0.15765 0.765 0.26529 0.0
C2018 C 0.13883 0.74548 0.26732 0.0
C2019 C 0.1378 0.73173 0.27943 0.0
H2020 H 0.15834 0.7756 0.25593 0.0
H2021 H 0.1488 0.64146 0.37279 0.0
H2022 H 0.85665 0.05776 0.38812 0.0
H2023 H 0.82566 0.02477 0.37832 0.0
H2024 H 0.83802 0.98988 0.41466 0.0
H2025 H 0.86831 0.02296 0.42494 0.0
H2026 H 0.82059 0.99107 0.36533 0.0
H2027 H 0.79335 0.94684 0.42635 0.0
H2028 H 0.79321 0.95533 0.45513 0.0
H2029 H 0.79365 0.01262 0.44253 0.0
H2030 H 0.79367 0.00445 0.4137 0.0
H2031 H 0.75134 0.88259 0.34988 0.0
H2032 H 0.77983 0.91702 0.35936 0.0
H2033 H 0.73251 0.92674 0.38426 0.0
H2034 H 0.70393 0.89177 0.3753 0.0
H2035 H 0.76528 0.93967 0.40262 0.0
H2036 H 0.75786 0.95425 0.34767 0.0
H2037 H 0.75547 0.94929 0.31819 0.0
H2038 H 0.81846 0.95538 0.31776 0.0
H2039 H 0.82128 0.96054 0.34724 0.0
C2040 C 0.85273 0.04303 0.394 0.0
C2041 C 0.86481 0.04286 0.40731 0.0
C2042 C 0.83502 0.02417 0.38838 0.0
C2043 C 0.82919 0.00478 0.39589 0.0
C2044 C 0.84173 0.00462 0.40891 0.0
C2045 C 0.85916 0.0235 0.4147 0.0
C2046 C 0.81019 0.98473 0.39001 0.0
C2047 C 0.80849 0.97989 0.37351 0.0
C2048 C 0.79402 0.97023 0.40055 0.0
C2049 C 0.7937 0.97511 0.41787 0.0
C2050 C 0.79333 0.9612 0.42973 0.0
C2051 C 0.79328 0.96596 0.44604 0.0
C2052 C 0.79343 0.98449 0.45065 0.0
C2053 C 0.79359 0.9983 0.43895 0.0
C2054 C 0.79367 0.99363 0.42262 0.0
C2055 C 0.74694 0.89207 0.35732 0.0
C2056 C 0.72532 0.88447 0.36176 0.0
C2057 C 0.76328 0.91187 0.36267 0.0
C2058 C 0.75836 0.92477 0.3723 0.0
C2059 C 0.73677 0.91715 0.37682 0.0
C2060 C 0.72042 0.89716 0.37166 0.0
C2061 C 0.77584 0.94593 0.37796 0.0
C2062 C 0.77732 0.95092 0.39444 0.0
C2063 C 0.79137 0.96091 0.36732 0.0
C2064 C 0.78971 0.95764 0.34964 0.0
C2065 C 0.77116 0.95445 0.34128 0.0
C2066 C 0.76978 0.9517 0.32458 0.0
C2067 C 0.7868 0.952 0.31611 0.0
C2068 C 0.8053 0.95517 0.32433 0.0
C2069 C 0.80684 0.95811 0.34102 0.0
H2070 H 0.78564 0.94974 0.30319 0.0
H2071 H 0.79341 0.98815 0.46328 0.0
H2072 H 0.97471 0.8347 0.38861 0.0
H2073 H 0.01131 0.8459 0.37877 0.0
H2074 H 0.00883 0.79149 0.4013 0.0
H2075 H 0.97267 0.78054 0.41127 0.0
H2076 H 0.04667 0.82508 0.40718 0.0
H2077 H 1.00139 0.79448 0.35997 0.0
H2078 H 0.97534 0.79116 0.33898 0.0
H2079 H 0.01859 0.85494 0.32387 0.0
H2080 H 0.04478 0.85871 0.34493 0.0
H2081 H 0.11886 0.80319 0.36662 0.0
H2082 H 0.08503 0.80211 0.37342 0.0
H2083 H 0.11274 0.86766 0.36 0.0
H2084 H 0.14704 0.86899 0.35359 0.0
H2085 H 0.06533 0.83532 0.34916 0.0
H2086 H 0.11166 0.86495 0.39563 0.0
H2087 H 0.13855 0.86639 0.41509 0.0
H2088 H 0.09361 0.80324 0.43051 0.0
H2089 H 0.06648 0.8014 0.41106 0.0
C2090 C 0.98199 0.82514 0.3914 0.0
C2091 C 0.97079 0.80669 0.40068 0.0
C2092 C 1.00291 0.83153 0.38575 0.0
C2093 C 0.01291 0.81951 0.38921 0.0
C2094 C 1.00163 0.80113 0.3985 0.0
C2095 C 0.98087 0.79481 0.40414 0.0
C2096 C 0.03505 0.82574 0.38329 0.0
C2097 C 0.05064 0.82732 0.39448 0.0
C2098 C 0.04067 0.82921 0.36675 0.0
C2099 C 0.02489 0.82698 0.35417 0.0
C2100 C 0.00524 0.80786 0.35228 0.0
C2101 C 0.99048 0.80588 0.34035 0.0
C2102 C 0.99527 0.82286 0.33014 0.0
C2103 C 0.01487 0.84182 0.33181 0.0
C2104 C 0.02968 0.84389 0.34374 0.0
C2105 C 0.11765 0.8173 0.36492 0.0
C2106 C 0.13543 0.83605 0.35932 0.0
C2107 C 0.09833 0.81666 0.36878 0.0
C2108 C 0.09637 0.83478 0.36719 0.0
C2109 C 0.11389 0.85346 0.36119 0.0
C2110 C 0.13341 0.85418 0.35749 0.0
C2111 C 0.07646 0.83422 0.37303 0.0
C2112 C 0.06137 0.83359 0.36187 0.0
C2113 C 0.07125 0.83163 0.38957 0.0
C2114 C 0.08709 0.833 0.40183 0.0
C2115 C 0.10753 0.85136 0.40315 0.0
C2116 C 0.12282 0.85225 0.41417 0.0
C2117 C 0.11784 0.83487 0.42396 0.0
C2118 C 0.09747 0.81665 0.42287 0.0
C2119 C 0.08209 0.81572 0.4119 0.0
H2120 H 0.12971 0.83558 0.43247 0.0
H2121 H 0.98383 0.82129 0.3209 0.0
H2122 H 0.22442 0.17436 0.40278 0.0
H2123 H 0.21813 0.20315 0.39543 0.0
H2124 H 0.16508 0.16063 0.36469 0.0
H2125 H 0.17151 0.13156 0.37189 0.0
H2126 H 0.19053 0.19828 0.35032 0.0
H2127 H 0.15547 0.175 0.40119 0.0
H2128 H 0.15234 0.16533 0.42987 0.0
H2129 H 0.20274 0.22827 0.4419 0.0
H2130 H 0.20642 0.23823 0.41325 0.0
H2131 H 0.14594 0.2649 0.34031 0.0
H2132 H 0.15206 0.23585 0.34695 0.0
H2133 H 0.20417 0.27698 0.37894 0.0
H2134 H 0.19797 0.30629 0.37246 0.0
H2135 H 0.17859 0.23958 0.39258 0.0
H2136 H 0.21448 0.2624 0.34155 0.0
H2137 H 0.21795 0.27178 0.31279 0.0
H2138 H 0.16557 0.20968 0.30116 0.0
H2139 H 0.16173 0.19994 0.32987 0.0
C2140 C 0.21139 0.17105 0.39445 0.0
C2141 C 0.1983 0.15064 0.38797 0.0
C2142 C 0.20777 0.18755 0.39032 0.0
C2143 C 0.19091 0.18394 0.37974 0.0
C2144 C 0.17811 0.16369 0.37295 0.0
C2145 C 0.18177 0.14714 0.37707 0.0
C2146 C 0.18684 0.20143 0.37572 0.0
C2147 C 0.18759 0.20711 0.35953 0.0
C2148 C 0.18353 0.21325 0.3878 0.0
C2149 C 0.18136 0.2073 0.40504 0.0
C2150 C 0.16602 0.18672 0.40993 0.0
C2151 C 0.16412 0.1812 0.42619 0.0
C2152 C 0.17737 0.19616 0.43769 0.0
C2153 C 0.19251 0.21669 0.43297 0.0
C2154 C 0.1945 0.22229 0.41673 0.0
C2155 C 0.15888 0.26791 0.34864 0.0
C2156 C 0.17167 0.28802 0.35571 0.0
C2157 C 0.16236 0.25124 0.3524 0.0
C2158 C 0.17883 0.25433 0.36321 0.0
C2159 C 0.19145 0.27429 0.37049 0.0
C2160 C 0.1879 0.29102 0.36678 0.0
C2161 C 0.18244 0.23654 0.36718 0.0
C2162 C 0.18155 0.23075 0.38337 0.0
C2163 C 0.1856 0.22461 0.3551 0.0
C2164 C 0.18774 0.23049 0.33786 0.0
C2165 C 0.20362 0.25078 0.33287 0.0
C2166 C 0.20571 0.25613 0.31657 0.0
C2167 C 0.19202 0.24131 0.30516 0.0
C2168 C 0.17619 0.22112 0.31001 0.0
C2169 C 0.17409 0.21566 0.32629 0.0
H2170 H 0.19363 0.24551 0.29255 0.0
H2171 H 0.17587 0.19185 0.45027 0.0
H2172 H 0.61967 0.51039 0.74162 0.0
H2173 H 0.65122 0.53882 0.72825 0.0
H2174 H 0.6703 0.49409 0.71261 0.0
H2175 H 0.6387 0.46547 0.72614 0.0
H2176 H 0.70435 0.53062 0.72597 0.0
H2177 H 0.65046 0.513 0.6855 0.0
H2178 H 0.61513 0.50518 0.67444 0.0
H2179 H 0.62817 0.56744 0.68788 0.0
H2180 H 0.66346 0.57554 0.69924 0.0
H2181 H 0.79141 0.61566 0.68504 0.0
H2182 H 0.75916 0.58108 0.689 0.0
H2183 H 0.72348 0.61198 0.70289 0.0
H2184 H 0.75534 0.64649 0.69789 0.0
H2185 H 0.69813 0.57824 0.68647 0.0
H2186 H 0.74948 0.59385 0.73034 0.0
H2187 H 0.78489 0.60202 0.74153 0.0
H2188 H 0.77653 0.54364 0.72221 0.0
H2189 H 0.74123 0.53533 0.71064 0.0
C2190 C 0.63056 0.50659 0.73531 0.0
C2191 C 0.62672 0.4857 0.73496 0.0
C2192 C 0.64851 0.52282 0.72759 0.0
C2193 C 0.66305 0.51856 0.71932 0.0
C2194 C 0.65925 0.49771 0.71887 0.0
C2195 C 0.64114 0.48138 0.72651 0.0
C2196 C 0.68248 0.53615 0.71164 0.0
C2197 C 0.70304 0.54081 0.7171 0.0
C2198 C 0.68075 0.54958 0.70021 0.0
C2199 C 0.65956 0.54482 0.69332 0.0
C2200 C 0.64574 0.52498 0.68621 0.0
C2201 C 0.62572 0.5205 0.67987 0.0
C2202 C 0.61939 0.53579 0.68048 0.0
C2203 C 0.63309 0.55561 0.68741 0.0
C2204 C 0.65311 0.56016 0.69379 0.0
C2205 C 0.77653 0.61505 0.68846 0.0
C2206 C 0.77575 0.63376 0.69085 0.0
C2207 C 0.75814 0.59526 0.69095 0.0
C2208 C 0.73892 0.59386 0.69655 0.0
C2209 C 0.73806 0.61257 0.69856 0.0
C2210 C 0.75628 0.6323 0.69577 0.0
C2211 C 0.72 0.5732 0.70123 0.0
C2212 C 0.69951 0.56791 0.69518 0.0
C2213 C 0.72181 0.55927 0.7122 0.0
C2214 C 0.74282 0.56408 0.71947 0.0
C2215 C 0.75525 0.58282 0.72841 0.0
C2216 C 0.77531 0.58748 0.7348 0.0
C2217 C 0.783 0.5734 0.73252 0.0
C2218 C 0.77059 0.55457 0.72391 0.0
C2219 C 0.75056 0.54988 0.71743 0.0
H2220 H 0.79854 0.57704 0.73747 0.0
H2221 H 0.60389 0.5323 0.67557 0.0
H2222 H 0.54468 0.16177 0.72542 0.0
H2223 H 0.51386 0.16363 0.7141 0.0
H2224 H 0.46995 0.10394 0.73624 0.0
H2225 H 0.50049 0.10166 0.74701 0.0
H2226 H 0.45608 0.10457 0.70737 0.0
H2227 H 0.48076 0.15288 0.75229 0.0
H2228 H 0.50722 0.18345 0.76841 0.0
H2229 H 0.51618 0.22513 0.72911 0.0
H2230 H 0.48997 0.19475 0.71267 0.0
H2231 H 0.35814 0.10739 0.70274 0.0
H2232 H 0.39019 0.10538 0.70992 0.0
H2233 H 0.4308 0.16909 0.69271 0.0
H2234 H 0.39867 0.17177 0.68718 0.0
H2235 H 0.44746 0.1669 0.71799 0.0
H2236 H 0.42952 0.11761 0.67175 0.0
H2237 H 0.40464 0.08685 0.65484 0.0
H2238 H 0.38404 0.0473 0.69671 0.0
H2239 H 0.40886 0.07788 0.71369 0.0
C2240 C 0.52846 0.14893 0.72769 0.0
C2241 C 0.52512 0.1317 0.73731 0.0
C2242 C 0.51081 0.15011 0.72136 0.0
C2243 C 0.48944 0.13411 0.72454 0.0
C2244 C 0.48617 0.11659 0.73367 0.0
C2245 C 0.50372 0.11539 0.73995 0.0
C2246 C 0.47037 0.13541 0.71848 0.0
C2247 C 0.45417 0.11817 0.70982 0.0
C2248 C 0.46785 0.15324 0.72133 0.0
C2249 C 0.48359 0.17151 0.73119 0.0
C2250 C 0.4885 0.16854 0.74704 0.0
C2251 C 0.50343 0.18584 0.75625 0.0
C2252 C 0.51343 0.20621 0.74977 0.0
C2253 C 0.50846 0.20934 0.7341 0.0
C2254 C 0.49356 0.19209 0.72484 0.0
C2255 C 0.37393 0.12086 0.70027 0.0
C2256 C 0.37575 0.13949 0.69384 0.0
C2257 C 0.39238 0.1196 0.70417 0.0
C2258 C 0.41327 0.1368 0.70143 0.0
C2259 C 0.41505 0.15542 0.69488 0.0
C2260 C 0.39657 0.15687 0.69144 0.0
C2261 C 0.43313 0.1361 0.70664 0.0
C2262 C 0.44944 0.1534 0.71531 0.0
C2263 C 0.43579 0.11831 0.70385 0.0
C2264 C 0.42047 0.10006 0.69391 0.0
C2265 C 0.41931 0.1024 0.67727 0.0
C2266 C 0.40541 0.085 0.6677 0.0
C2267 C 0.39258 0.06518 0.67473 0.0
C2268 C 0.39386 0.06268 0.6913 0.0
C2269 C 0.4079 0.08002 0.70087 0.0
H2270 H 0.38177 0.05173 0.66732 0.0
H2271 H 0.52498 0.21959 0.75692 0.0
H2272 H 0.91565 0.40603 0.74557 0.0
H2273 H 0.91104 0.37397 0.73278 0.0
H2274 H 0.8479 0.35923 0.7156 0.0
H2275 H 0.85185 0.39075 0.72933 0.0
H2276 H 0.84564 0.32532 0.72741 0.0
H2277 H 0.8928 0.37711 0.69005 0.0
H2278 H 0.92471 0.40998 0.68091 0.0
H2279 H 0.96648 0.3882 0.69917 0.0
H2280 H 0.93483 0.35531 0.70863 0.0
H2281 H 0.83603 0.24257 0.67633 0.0
H2282 H 0.84096 0.27679 0.68484 0.0
H2283 H 0.89738 0.28898 0.71236 0.0
H2284 H 0.89262 0.25464 0.70391 0.0
H2285 H 0.902 0.32417 0.69335 0.0
H2286 H 0.85351 0.273 0.73194 0.0
H2287 H 0.82093 0.2397 0.73957 0.0
H2288 H 0.78075 0.26059 0.71692 0.0
H2289 H 0.81314 0.2939 0.70895 0.0
C2290 C 0.9007 0.39594 0.73916 0.0
C2291 C 0.88403 0.4009 0.73862 0.0
C2292 C 0.89822 0.37773 0.73163 0.0
C2293 C 0.87924 0.36428 0.72302 0.0
C2294 C 0.86273 0.3694 0.72214 0.0
C2295 C 0.86509 0.38754 0.72986 0.0
C2296 C 0.87631 0.34437 0.7157 0.0
C2297 C 0.8578 0.32517 0.71971 0.0
C2298 C 0.89232 0.34404 0.70587 0.0
C2299 C 0.91142 0.3638 0.70016 0.0
C2300 C 0.90879 0.37939 0.69222 0.0
C2301 C 0.92684 0.39802 0.68697 0.0
C2302 C 0.94761 0.4012 0.68949 0.0
C2303 C 0.95038 0.38572 0.69724 0.0
C2304 C 0.93239 0.36707 0.70253 0.0
C2305 C 0.84963 0.25257 0.68407 0.0
C2306 C 0.86395 0.24588 0.68946 0.0
C2307 C 0.85236 0.27209 0.68895 0.0
C2308 C 0.86945 0.2853 0.69927 0.0
C2309 C 0.8841 0.27896 0.70437 0.0
C2310 C 0.88129 0.25932 0.6996 0.0
C2311 C 0.87154 0.30538 0.70521 0.0
C2312 C 0.88984 0.32451 0.70094 0.0
C2313 C 0.85525 0.30568 0.71463 0.0
C2314 C 0.83576 0.28585 0.71971 0.0
C2315 C 0.83773 0.27043 0.72849 0.0
C2316 C 0.8193 0.25156 0.73289 0.0
C2317 C 0.79878 0.248 0.72869 0.0
C2318 C 0.79665 0.26335 0.72014 0.0
C2319 C 0.81504 0.28224 0.7157 0.0
H2320 H 0.78453 0.23337 0.73208 0.0
H2321 H 0.96156 0.41563 0.68541 0.0
H2322 H 0.1415 0.93472 0.63937 0.0
H2323 H 0.17194 0.96657 0.65123 0.0
H2324 H 0.18763 0.99603 0.60456 0.0
H2325 H 0.15701 0.96467 0.59271 0.0
H2326 H 0.22337 0.99899 0.62052 0.0
H2327 H 0.16417 0.01139 0.63154 0.0
H2328 H 0.12864 0.00247 0.64263 0.0
H2329 H 0.15057 0.99901 0.69012 0.0
H2330 H 0.18615 0.00763 0.67928 0.0
H2331 H 0.29913 0.1056 0.64 0.0
H2332 H 0.26863 0.07239 0.63015 0.0
H2333 H 0.25036 0.05168 0.67911 0.0
H2334 H 0.28056 0.08509 0.68888 0.0
H2335 H 0.21595 0.04271 0.66315 0.0
H2336 H 0.27499 0.03107 0.65333 0.0
H2337 H 0.31066 0.03917 0.64307 0.0
H2338 H 0.28958 0.03958 0.59467 0.0
H2339 H 0.25386 0.03178 0.60466 0.0
C2340 C 0.1512 0.94809 0.63167 0.0
C2341 C 0.14683 0.94699 0.61504 0.0
C2342 C 0.16867 0.96625 0.63845 0.0
C2343 C 0.18212 0.98366 0.62876 0.0
C2344 C 0.17761 0.98272 0.61224 0.0
C2345 C 0.1601 0.9647 0.60548 0.0
C2346 C 0.20113 0.00278 0.63567 0.0
C2347 C 0.22176 0.00869 0.62974 0.0
C2348 C 0.1991 0.01503 0.64805 0.0
C2349 C 0.17774 0.00992 0.65457 0.0
C2350 C 0.16135 0.00854 0.64433 0.0
C2351 C 0.14122 0.00358 0.65057 0.0
C2352 C 0.13733 1.00011 0.66706 0.0
C2353 C 0.15359 0.00166 0.67735 0.0
C2354 C 0.17375 0.0066 0.67116 0.0
C2355 C 0.28874 0.09384 0.64865 0.0
C2356 C 0.29215 0.09801 0.66525 0.0
C2357 C 0.2713 0.07482 0.64302 0.0
C2358 C 0.2572 0.0593 0.65386 0.0
C2359 C 0.26085 0.06336 0.67046 0.0
C2360 C 0.2781 0.08253 0.67607 0.0
C2361 C 0.23833 0.03915 0.64792 0.0
C2362 C 0.21769 0.033 0.65402 0.0
C2363 C 0.24039 0.02649 0.63584 0.0
C2364 C 0.2618 0.03101 0.62976 0.0
C2365 C 0.278 0.03302 0.64051 0.0
C2366 C 0.29822 0.03754 0.63474 0.0
C2367 C 0.30239 0.03994 0.61824 0.0
C2368 C 0.28633 0.03775 0.60746 0.0
C2369 C 0.26608 0.03325 0.61316 0.0
H2370 H 0.31806 0.04344 0.6138 0.0
H2371 H 0.12173 0.99628 0.67187 0.0
H2372 H 0.07451 0.24369 0.62275 0.0
H2373 H 0.04144 0.24024 0.6344 0.0
H2374 H 0.01667 0.17343 0.64128 0.0
H2375 H 0.05009 0.17693 0.62984 0.0
H2376 H 0.98732 0.18444 0.62517 0.0
H2377 H 0.03104 0.20224 0.67308 0.0
H2378 H 0.06377 0.22343 0.68957 0.0
H2379 H 0.05646 0.2781 0.68413 0.0
H2380 H 0.02385 0.2573 0.6674 0.0
H2381 H 0.8944 0.16919 0.66864 0.0
H2382 H 0.92818 0.16934 0.66294 0.0
H2383 H 0.96089 0.23702 0.65639 0.0
H2384 H 0.92707 0.23686 0.66186 0.0
H2385 H 0.98579 0.22338 0.67381 0.0
H2386 H 0.94375 0.20763 0.62566 0.0
H2387 H 0.91144 0.18805 0.60847 0.0
H2388 H 0.91658 0.13201 0.61239 0.0
H2389 H 0.94886 0.15129 0.62981 0.0
C2390 C 0.06212 0.22831 0.62694 0.0
C2391 C 0.0649 0.21059 0.62544 0.0
C2392 C 0.04323 0.22636 0.6336 0.0
C2393 C 0.02654 0.20658 0.63873 0.0
C2394 C 0.02933 0.18885 0.63741 0.0
C2395 C 0.04846 0.19088 0.63099 0.0
C2396 C 0.00599 0.2045 0.64494 0.0
C2397 C 0.98687 0.19258 0.63599 0.0
C2398 C 0.00555 0.21572 0.65875 0.0
C2399 C 0.0251 0.22824 0.66886 0.0
C2400 C 0.03651 0.21882 0.67528 0.0
C2401 C 0.05502 0.23076 0.68469 0.0
C2402 C 0.06222 0.25211 0.68786 0.0
C2403 C 0.05088 0.26156 0.68166 0.0
C2404 C 0.03237 0.2497 0.67222 0.0
C2405 C 0.90889 0.18414 0.6663 0.0
C2406 C 0.90823 0.2031 0.66594 0.0
C2407 C 0.92816 0.18419 0.66295 0.0
C2408 C 0.94708 0.2032 0.65919 0.0
C2409 C 0.94655 0.2222 0.65933 0.0
C2410 C 0.92724 0.2221 0.66241 0.0
C2411 C 0.96709 0.20323 0.65409 0.0
C2412 C 0.98614 0.21494 0.66314 0.0
C2413 C 0.96753 0.1921 0.6402 0.0
C2414 C 0.94837 0.1807 0.62945 0.0
C2415 C 0.93783 0.19104 0.62308 0.0
C2416 C 0.91957 0.18005 0.61323 0.0
C2417 C 0.91185 0.15875 0.60945 0.0
C2418 C 0.92248 0.14847 0.61542 0.0
C2419 C 0.94074 0.15941 0.6253 0.0
H2420 H 0.89772 0.15026 0.60182 0.0
H2421 H 0.07655 0.26132 0.69516 0.0
H2422 H 0.82219 0.85422 0.59647 0.0
H2423 H 0.82153 0.82352 0.60872 0.0
H2424 H 0.8054 0.8398 0.65453 0.0
H2425 H 0.80538 0.87031 0.64227 0.0
H2426 H 0.83777 0.82737 0.6561 0.0
H2427 H 0.76643 0.80265 0.63482 0.0
H2428 H 0.73984 0.79826 0.61395 0.0
H2429 H 0.76209 0.76523 0.58372 0.0
H2430 H 0.78907 0.76973 0.60432 0.0
H2431 H 0.81074 0.72965 0.6916 0.0
H2432 H 0.80704 0.7593 0.68215 0.0
H2433 H 0.81404 0.74395 0.63314 0.0
H2434 H 0.81722 0.71394 0.6426 0.0
H2435 H 0.78472 0.75616 0.63477 0.0
H2436 H 0.85716 0.78222 0.65502 0.0
H2437 H 0.88281 0.7848 0.67609 0.0
H2438 H 0.85892 0.81485 0.70794 0.0
H2439 H 0.8328 0.81205 0.68716 0.0
C2440 C 0.81836 0.85124 0.60913 0.0
C2441 C 0.81359 0.86461 0.61834 0.0
C2442 C 0.81813 0.83377 0.61613 0.0
C2443 C 0.81323 0.82934 0.63248 0.0
C2444 C 0.80925 0.84302 0.64189 0.0
C2445 C 0.80931 0.86046 0.63487 0.0
C2446 C 0.81143 0.8099 0.63947 0.0
C2447 C 0.82599 0.81177 0.65162 0.0
C2448 C 0.79626 0.78963 0.63341 0.0
C2449 C 0.7799 0.7867 0.62106 0.0
C2450 C 0.76577 0.7946 0.62367 0.0
C2451 C 0.75061 0.79207 0.6119 0.0
C2452 C 0.74931 0.78152 0.5975 0.0
C2453 C 0.76313 0.77342 0.59487 0.0
C2454 C 0.77835 0.77594 0.6066 0.0
C2455 C 0.81144 0.73254 0.67887 0.0
C2456 C 0.81459 0.71965 0.66792 0.0
C2457 C 0.80926 0.74947 0.67344 0.0
C2458 C 0.81075 0.75412 0.65696 0.0
C2459 C 0.81291 0.74069 0.64592 0.0
C2460 C 0.81473 0.72355 0.65135 0.0
C2461 C 0.81123 0.77358 0.65126 0.0
C2462 C 0.79644 0.77173 0.63933 0.0
C2463 C 0.82629 0.79387 0.65745 0.0
C2464 C 0.84292 0.7968 0.66957 0.0
C2465 C 0.85738 0.78939 0.66652 0.0
C2466 C 0.87196 0.79084 0.67842 0.0
C2467 C 0.87246 0.79995 0.69335 0.0
C2468 C 0.85849 0.80777 0.69637 0.0
C2469 C 0.8438 0.80627 0.68453 0.0
H2470 H 0.88368 0.80097 0.70258 0.0
H2471 H 0.73757 0.77958 0.5884 0.0
H2472 H 0.04855 0.85843 0.63908 0.0
H2473 H 0.01656 0.8294 0.65178 0.0
H2474 H 0.98094 0.81759 0.60725 0.0
H2475 H 0.01299 0.84629 0.59446 0.0
H2476 H 0.97642 0.82208 0.65734 0.0
H2477 H 0.94567 0.76508 0.60324 0.0
H2478 H 0.95971 0.75713 0.57866 0.0
H2479 H 0.02155 0.78018 0.60152 0.0
H2480 H 0.00782 0.78802 0.62628 0.0
H2481 H 0.87022 0.73122 0.67188 0.0
H2482 H 0.90248 0.76416 0.66391 0.0
H2483 H 0.93797 0.73073 0.65996 0.0
H2484 H 0.9055 0.69775 0.66713 0.0
H2485 H 0.94211 0.74982 0.63378 0.0
H2486 H 0.95878 0.78076 0.69018 0.0
H2487 H 0.95217 0.79413 0.71564 0.0
H2488 H 0.92228 0.82356 0.68951 0.0
H2489 H 0.92944 0.81097 0.66389 0.0
C2490 C 0.03388 0.84969 0.63203 0.0
C2491 C 0.03326 0.85453 0.61575 0.0
C2492 C 0.01559 0.83313 0.6393 0.0
C2493 C 0.99639 0.8211 0.63043 0.0
C2494 C 0.99564 0.82636 0.61429 0.0
C2495 C 0.01392 0.84282 0.60701 0.0
C2496 C 0.97733 0.80285 0.63799 0.0
C2497 C 0.96892 0.80625 0.65219 0.0
C2498 C 0.96742 0.7822 0.63129 0.0
C2499 C 0.97577 0.7773 0.61655 0.0
C2500 C 0.96224 0.76836 0.60303 0.0
C2501 C 0.97014 0.7639 0.58907 0.0
C2502 C 0.99151 0.76821 0.58852 0.0
C2503 C 0.00502 0.77692 0.60194 0.0
C2504 C 0.99719 0.7814 0.61594 0.0
C2505 C 0.8851 0.73108 0.66975 0.0
C2506 C 0.88541 0.71194 0.67011 0.0
C2507 C 0.90364 0.74999 0.66525 0.0
C2508 C 0.92284 0.75009 0.66126 0.0
C2509 C 0.9234 0.73116 0.66279 0.0
C2510 C 0.90486 0.71229 0.66696 0.0
C2511 C 0.9414 0.76882 0.65351 0.0
C2512 C 0.94956 0.76558 0.63903 0.0
C2513 C 0.95115 0.78959 0.65998 0.0
C2514 C 0.94424 0.79461 0.67525 0.0
C2515 C 0.95048 0.78978 0.68993 0.0
C2516 C 0.94688 0.79744 0.70435 0.0
C2517 C 0.93662 0.80952 0.7042 0.0
C2518 C 0.93007 0.81407 0.68963 0.0
C2519 C 0.93402 0.80681 0.67516 0.0
H2520 H 0.93381 0.81539 0.71539 0.0
H2521 H 0.9976 0.76476 0.57769 0.0
H2522 H 0.14516 0.17867 0.63726 0.0
H2523 H 0.17146 0.16814 0.64591 0.0
H2524 H 0.22325 0.22613 0.62648 0.0
H2525 H 0.19719 0.23636 0.61764 0.0
H2526 H 0.22858 0.19474 0.61769 0.0
H2527 H 0.21203 0.21718 0.66786 0.0
H2528 H 0.18858 0.21641 0.68987 0.0
H2529 H 0.16998 0.15173 0.69977 0.0
H2530 H 0.1931 0.15203 0.67765 0.0
H2531 H 0.32391 0.21099 0.65555 0.0
H2532 H 0.29167 0.21327 0.64903 0.0
H2533 H 0.25116 0.14764 0.66172 0.0
H2534 H 0.28355 0.14515 0.66784 0.0
H2535 H 0.23684 0.17695 0.67389 0.0
H2536 H 0.25606 0.15587 0.62506 0.0
H2537 H 0.28104 0.15767 0.60391 0.0
H2538 H 0.29537 0.22064 0.59198 0.0
H2539 H 0.27077 0.21937 0.61328 0.0
C2540 C 0.16217 0.18916 0.63492 0.0
C2541 C 0.16912 0.20837 0.62677 0.0
C2542 C 0.17722 0.18317 0.63991 0.0
C2543 C 0.19948 0.19636 0.63694 0.0
C2544 C 0.20626 0.21557 0.62889 0.0
C2545 C 0.19132 0.22147 0.62388 0.0
C2546 C 0.21592 0.19034 0.64176 0.0
C2547 C 0.23038 0.19099 0.63002 0.0
C2548 C 0.21805 0.18476 0.65774 0.0
C2549 C 0.20403 0.18453 0.67094 0.0
C2550 C 0.20276 0.20272 0.67461 0.0
C2551 C 0.18957 0.20239 0.68713 0.0
C2552 C 0.17772 0.184 0.69617 0.0
C2553 C 0.17911 0.16593 0.69273 0.0
C2554 C 0.19225 0.16618 0.6802 0.0
C2555 C 0.30812 0.19709 0.65706 0.0
C2556 C 0.30624 0.17804 0.66255 0.0
C2557 C 0.28972 0.19841 0.65335 0.0
C2558 C 0.26898 0.18065 0.65492 0.0
C2559 C 0.26698 0.16159 0.66053 0.0
C2560 C 0.28548 0.1602 0.66408 0.0
C2561 C 0.24966 0.18203 0.6499 0.0
C2562 C 0.23475 0.18046 0.66155 0.0
C2563 C 0.2471 0.18684 0.63385 0.0
C2564 C 0.26169 0.18758 0.62086 0.0
C2565 C 0.26467 0.17017 0.61802 0.0
C2566 C 0.27874 0.17108 0.60599 0.0
C2567 C 0.28981 0.18927 0.59662 0.0
C2568 C 0.28679 0.20657 0.59925 0.0
C2569 C 0.27277 0.20575 0.61129 0.0
H2570 H 0.30071 0.18995 0.58732 0.0
H2571 H 0.16754 0.18378 0.70586 0.0
H2572 H 0.81952 0.95934 0.6416 0.0
H2573 H 0.82013 0.98997 0.65445 0.0
H2574 H 0.85444 0.02867 0.61375 0.0
H2575 H 0.85381 0.99812 0.60083 0.0
H2576 H 0.87143 0.04841 0.64321 0.0
H2577 H 0.80164 0.00935 0.61656 0.0
H2578 H 0.76622 0.97766 0.61113 0.0
H2579 H 0.74895 0.97572 0.66081 0.0
H2580 H 0.78442 0.00726 0.66657 0.0
H2581 H 0.85283 0.13483 0.64284 0.0
H2582 H 0.85087 0.10128 0.63544 0.0
H2583 H 0.82304 0.0753 0.68165 0.0
H2584 H 0.82532 0.10902 0.68915 0.0
H2585 H 0.80263 0.04764 0.65352 0.0
H2586 H 0.87047 0.09121 0.67882 0.0
H2587 H 0.90579 0.12298 0.68391 0.0
H2588 H 0.92803 0.11556 0.63772 0.0
H2589 H 0.89236 0.08486 0.63177 0.0
C2590 C 0.82734 0.97442 0.63546 0.0
C2591 C 0.83664 0.97644 0.62022 0.0
C2592 C 0.8276 0.99185 0.64279 0.0
C2593 C 0.83723 0.01151 0.635 0.0
C2594 C 0.84698 0.01363 0.61996 0.0
C2595 C 0.84656 0.9962 0.61259 0.0
C2596 C 0.83674 0.02987 0.64219 0.0
C2597 C 0.85643 0.04837 0.64536 0.0
C2598 C 0.81709 0.02941 0.64549 0.0
C2599 C 0.79577 0.01049 0.64203 0.0
C2600 C 0.79037 0.00205 0.62635 0.0
C2601 C 0.77027 0.98414 0.62321 0.0
C2602 C 0.75537 0.97463 0.63563 0.0
C2603 C 0.76052 0.98306 0.65121 0.0
C2604 C 0.78062 0.00096 0.65442 0.0
C2605 C 0.84602 0.12181 0.65128 0.0
C2606 C 0.83935 0.12435 0.66656 0.0
C2607 C 0.84502 0.10278 0.64711 0.0
C2608 C 0.837 0.08598 0.65808 0.0
C2609 C 0.82936 0.08817 0.67308 0.0
C2610 C 0.83079 0.10738 0.67738 0.0
C2611 C 0.83737 0.06644 0.654 0.0
C2612 C 0.81767 0.04769 0.65151 0.0
C2613 C 0.85707 0.06671 0.65134 0.0
C2614 C 0.87845 0.08581 0.65472 0.0
C2615 C 0.88264 0.09668 0.66953 0.0
C2616 C 0.90277 0.11461 0.67256 0.0
C2617 C 0.9191 0.12152 0.66106 0.0
C2618 C 0.91529 0.11053 0.64651 0.0
C2619 C 0.89504 0.09292 0.64325 0.0
H2620 H 0.93475 0.13529 0.66347 0.0
H2621 H 0.73982 0.96078 0.63317 0.0
H2622 H 0.52961 0.3908 0.71806 0.0
H2623 H 0.49799 0.35919 0.70708 0.0
H2624 H 0.50109 0.32217 0.74636 0.0
H2625 H 0.53209 0.35386 0.75766 0.0
H2626 H 0.49055 0.3233 0.69574 0.0
H2627 H 0.45223 0.28312 0.75676 0.0
H2628 H 0.44953 0.29361 0.78454 0.0
H2629 H 0.45969 0.35349 0.76762 0.0
H2630 H 0.46213 0.34325 0.73972 0.0
H2631 H 0.41664 0.21535 0.68257 0.0
H2632 H 0.44561 0.24968 0.69174 0.0
H2633 H 0.39853 0.26481 0.71034 0.0
H2634 H 0.36937 0.22991 0.70177 0.0
H2635 H 0.42874 0.27725 0.73086 0.0
H2636 H 0.42907 0.28846 0.67443 0.0
H2637 H 0.42929 0.28067 0.64554 0.0
H2638 H 0.49024 0.28311 0.65147 0.0
H2639 H 0.4904 0.29094 0.68041 0.0
C2640 C 0.52354 0.3759 0.72432 0.0
C2641 C 0.53323 0.37475 0.73875 0.0
C2642 C 0.50547 0.35783 0.71803 0.0
C2643 C 0.49684 0.3383 0.72602 0.0
C2644 C 0.50701 0.3371 0.74017 0.0
C2645 C 0.52484 0.35518 0.74656 0.0
C2646 C 0.4773 0.31914 0.71959 0.0
C2647 C 0.47702 0.31329 0.70343 0.0
C2648 C 0.45928 0.30628 0.72943 0.0
C2649 C 0.45756 0.31248 0.74617 0.0
C2650 C 0.45379 0.29849 0.75896 0.0
C2651 C 0.45232 0.3044 0.77473 0.0
C2652 C 0.4545 0.32423 0.77785 0.0
C2653 C 0.45808 0.33816 0.7652 0.0
C2654 C 0.45953 0.33232 0.74941 0.0
C2655 C 0.4124 0.22601 0.68852 0.0
C2656 C 0.39066 0.21992 0.69137 0.0
C2657 C 0.42904 0.24576 0.69369 0.0
C2658 C 0.42436 0.26014 0.70148 0.0
C2659 C 0.40262 0.25407 0.70433 0.0
C2660 C 0.38594 0.23412 0.6994 0.0
C2661 C 0.4422 0.28115 0.70711 0.0
C2662 C 0.44219 0.28734 0.72314 0.0
C2663 C 0.45959 0.29469 0.697 0.0
C2664 C 0.45968 0.29016 0.67959 0.0
C2665 C 0.44249 0.28727 0.66958 0.0
C2666 C 0.44258 0.28291 0.65319 0.0
C2667 C 0.45975 0.28136 0.64668 0.0
C2668 C 0.47695 0.28432 0.65653 0.0
C2669 C 0.47701 0.2888 0.67291 0.0
H2670 H 0.45972 0.27787 0.634 0.0
H2671 H 0.45339 0.32878 0.79007 0.0
H2672 H 0.64332 0.12271 0.75059 0.0
H2673 H 0.67847 0.13309 0.7388 0.0
H2674 H 0.66619 0.16643 0.7012 0.0
H2675 H 0.63075 0.15615 0.71316 0.0
H2676 H 0.68175 0.14078 0.68945 0.0
H2677 H 0.70265 0.19459 0.72927 0.0
H2678 H 0.70446 0.20983 0.75616 0.0
H2679 H 0.73404 0.17573 0.77536 0.0
H2680 H 0.73211 0.16002 0.74864 0.0
H2681 H 0.807 0.19784 0.68313 0.0
H2682 H 0.77129 0.19436 0.68705 0.0
H2683 H 0.74561 0.12922 0.70073 0.0
H2684 H 0.78081 0.13225 0.69593 0.0
H2685 H 0.74988 0.17627 0.7212 0.0
H2686 H 0.71817 0.11553 0.68122 0.0
H2687 H 0.71292 0.09977 0.65416 0.0
H2688 H 0.70183 0.14818 0.63498 0.0
H2689 H 0.70798 0.16475 0.66189 0.0
C2690 C 0.64814 0.13239 0.73986 0.0
C2691 C 0.63428 0.13864 0.73284 0.0
C2692 C 0.66831 0.1384 0.73317 0.0
C2693 C 0.67515 0.15075 0.71919 0.0
C2694 C 0.66131 0.15699 0.71204 0.0
C2695 C 0.6411 0.15115 0.71889 0.0
C2696 C 0.6964 0.15622 0.71189 0.0
C2697 C 0.6967 0.14882 0.69633 0.0
C2698 C 0.71597 0.16667 0.72082 0.0
C2699 C 0.71707 0.17599 0.73695 0.0
C2700 C 0.70936 0.19019 0.73925 0.0
C2701 C 0.71045 0.19894 0.75446 0.0
C2702 C 0.71932 0.19372 0.76747 0.0
C2703 C 0.72716 0.17975 0.76528 0.0
C2704 C 0.72609 0.17093 0.7501 0.0
C2705 C 0.79351 0.18252 0.68623 0.0
C2706 C 0.79658 0.16511 0.6887 0.0
C2707 C 0.7731 0.18057 0.68854 0.0
C2708 C 0.75546 0.16127 0.69358 0.0
C2709 C 0.75858 0.14394 0.69606 0.0
C2710 C 0.77882 0.14578 0.69351 0.0
C2711 C 0.73504 0.16014 0.69902 0.0
C2712 C 0.73497 0.16846 0.71427 0.0
C2713 C 0.71568 0.1505 0.68982 0.0
C2714 C 0.71436 0.14183 0.67347 0.0
C2715 C 0.71544 0.12328 0.67116 0.0
C2716 C 0.71205 0.11405 0.65586 0.0
C2717 C 0.70716 0.12302 0.64283 0.0
C2718 C 0.7057 0.14128 0.64506 0.0
C2719 C 0.70935 0.15071 0.6603 0.0
H2720 H 0.70442 0.11579 0.63101 0.0
H2721 H 0.72016 0.20053 0.77923 0.0
H2722 H 0.85465 0.5008 0.76725 0.0
H2723 H 0.84899 0.52817 0.75503 0.0
H2724 H 0.86413 0.51297 0.70837 0.0
H2725 H 0.87003 0.48574 0.72057 0.0
H2726 H 0.88537 0.55468 0.71339 0.0
H2727 H 0.81266 0.49879 0.71842 0.0
H2728 H 0.77993 0.47079 0.73147 0.0
H2729 H 0.77865 0.5169 0.76305 0.0
H2730 H 0.81163 0.54516 0.7504 0.0
H2731 H 0.84981 0.61662 0.6702 0.0
H2732 H 0.85332 0.58703 0.68037 0.0
H2733 H 0.84522 0.60309 0.72889 0.0
H2734 H 0.84154 0.63258 0.71871 0.0
H2735 H 0.81942 0.55997 0.72143 0.0
H2736 H 0.89376 0.61532 0.7171 0.0
H2737 H 0.92549 0.64321 0.70295 0.0
H2738 H 0.92219 0.59729 0.66882 0.0
H2739 H 0.89022 0.56916 0.68263 0.0
C2740 C 0.85661 0.50323 0.75437 0.0
C2741 C 0.86274 0.49116 0.74487 0.0
C2742 C 0.85328 0.51878 0.74739 0.0
C2743 C 0.85592 0.52248 0.73075 0.0
C2744 C 0.86195 0.51035 0.72122 0.0
C2745 C 0.86527 0.49476 0.7282 0.0
C2746 C 0.85334 0.53965 0.72347 0.0
C2747 C 0.87079 0.55562 0.71494 0.0
C2748 C 0.83447 0.54112 0.72573 0.0
C2749 C 0.81484 0.52408 0.7336 0.0
C2750 C 0.80559 0.50294 0.72829 0.0
C2751 C 0.78694 0.48702 0.73559 0.0
C2752 C 0.77727 0.49205 0.74813 0.0
C2753 C 0.7862 0.51302 0.75337 0.0
C2754 C 0.80488 0.52899 0.74615 0.0
C2755 C 0.84874 0.61382 0.68298 0.0
C2756 C 0.84544 0.62692 0.69363 0.0
C2757 C 0.85089 0.59701 0.68881 0.0
C2758 C 0.84962 0.59296 0.70538 0.0
C2759 C 0.84631 0.60601 0.71605 0.0
C2760 C 0.84442 0.62297 0.71023 0.0
C2761 C 0.85149 0.57496 0.71161 0.0
C2762 C 0.83392 0.55888 0.71989 0.0
C2763 C 0.87016 0.57332 0.70905 0.0
C2764 C 0.88947 0.59018 0.7008 0.0
C2765 C 0.89969 0.6112 0.7065 0.0
C2766 C 0.91774 0.62705 0.69855 0.0
C2767 C 0.92581 0.62204 0.68497 0.0
C2768 C 0.9159 0.60116 0.67933 0.0
C2769 C 0.89782 0.58525 0.68722 0.0
H2770 H 0.93979 0.63433 0.67883 0.0
H2771 H 0.7628 0.4797 0.75374 0.0
H2772 H 0.45577 0.87462 0.23293 0.0
H2773 H 0.46518 0.89145 0.20645 0.0
H2774 H 0.45561 0.94186 0.22421 0.0
H2775 H 0.4457 0.92481 0.25054 0.0
H2776 H 0.4387 0.93115 0.19578 0.0
H2777 H 0.50713 0.94742 0.21886 0.0
H2778 H 0.5335 0.93936 0.23146 0.0
H2779 H 0.53015 0.90222 0.19016 0.0
H2780 H 0.50354 0.90985 0.1774 0.0
H2781 H 0.52734 0.00677 0.13675 0.0
H2782 H 0.51665 0.98528 0.161 0.0
H2783 H 0.45561 0.94139 0.13876 0.0
H2784 H 0.46574 0.96353 0.1147 0.0
H2785 H 0.5071 0.94739 0.16881 0.0
H2786 H 0.4163 0.92095 0.16725 0.0
H2787 H 0.392 0.9329 0.15637 0.0
H2788 H 0.44396 0.99741 0.15764 0.0
H2789 H 0.46847 0.98586 0.16871 0.0
C2790 C 0.45581 0.88937 0.23118 0.0
C2791 C 0.45004 0.89842 0.24382 0.0
C2792 C 0.4612 0.89899 0.21605 0.0
C2793 C 0.46134 0.91809 0.21332 0.0
C2794 C 0.45554 0.92711 0.22595 0.0
C2795 C 0.44991 0.91737 0.24101 0.0
C2796 C 0.46754 0.92877 0.19736 0.0
C2797 C 0.45363 0.93461 0.18987 0.0
C2798 C 0.48711 0.93354 0.18965 0.0
C2799 C 0.50318 0.92903 0.19726 0.0
C2800 C 0.51191 0.93742 0.21252 0.0
C2801 C 0.52691 0.93294 0.21968 0.0
C2802 C 0.53345 0.92024 0.21164 0.0
C2803 C 0.52505 0.91203 0.19639 0.0
C2804 C 0.51002 0.91644 0.18918 0.0
C2805 C 0.51155 0.99263 0.13701 0.0
C2806 C 0.49726 0.98714 0.12382 0.0
C2807 C 0.50555 0.98019 0.15086 0.0
C2808 C 0.48516 0.96186 0.15188 0.0
C2809 C 0.47127 0.95568 0.13842 0.0
C2810 C 0.47719 0.96825 0.12458 0.0
C2811 C 0.47833 0.94987 0.16728 0.0
C2812 C 0.49207 0.94373 0.17465 0.0
C2813 C 0.45889 0.94534 0.17511 0.0
C2814 C 0.44425 0.95249 0.16862 0.0
C2815 C 0.42251 0.93768 0.16524 0.0
C2816 C 0.40871 0.94439 0.15904 0.0
C2817 C 0.41645 0.96589 0.15626 0.0
C2818 C 0.438 0.98075 0.15974 0.0
C2819 C 0.45186 0.97413 0.16596 0.0
H2820 H 0.40575 0.97105 0.15145 0.0
H2821 H 0.54507 0.91679 0.2172 0.0
H2822 H 0.08471 0.55864 0.24805 0.0
H2823 H 0.06608 0.55063 0.22213 0.0
H2824 H 0.10828 0.52914 0.20372 0.0
H2825 H 0.12756 0.5378 0.2296 0.0
H2826 H 0.10173 0.55337 0.18175 0.0
H2827 H 0.05834 0.49353 0.21464 0.0
H2828 H 0.03823 0.4747 0.23889 0.0
H2829 H 0.99541 0.49955 0.23256 0.0
H2830 H 0.01548 0.51881 0.20839 0.0
H2831 H 0.03127 0.49804 0.11501 0.0
H2832 H 0.0529 0.50604 0.1396 0.0
H2833 H 0.01922 0.53578 0.16003 0.0
H2834 H 0.99814 0.52875 0.13524 0.0
H2835 H 0.02216 0.50559 0.18037 0.0
H2836 H 0.06704 0.56646 0.14775 0.0
H2837 H 0.08692 0.58427 0.12314 0.0
H2838 H 0.12677 0.55594 0.12859 0.0
H2839 H 0.10686 0.53765 0.15312 0.0
C2840 C 0.09024 0.55247 0.23844 0.0
C2841 C 0.10763 0.54887 0.24087 0.0
C2842 C 0.07945 0.54772 0.22367 0.0
C2843 C 0.08564 0.53906 0.21107 0.0
C2844 C 0.10322 0.53575 0.21332 0.0
C2845 C 0.11408 0.54053 0.22814 0.0
C2846 C 0.07342 0.5332 0.19569 0.0
C2847 C 0.08439 0.54266 0.1814 0.0
C2848 C 0.05076 0.51942 0.19529 0.0
C2849 C 0.03854 0.50776 0.20977 0.0
C2850 C 0.04474 0.49511 0.21848 0.0
C2851 C 0.03333 0.48434 0.23221 0.0
C2852 C 0.01558 0.48597 0.23729 0.0
C2853 C 0.00918 0.49833 0.22862 0.0
C2854 C 0.02055 0.50916 0.2149 0.0
C2855 C 0.02866 0.5066 0.1246 0.0
C2856 C 0.01295 0.5128 0.12309 0.0
C2857 C 0.04096 0.51102 0.13868 0.0
C2858 C 0.03764 0.52152 0.15155 0.0
C2859 C 0.02191 0.52757 0.1502 0.0
C2860 C 0.0098 0.52341 0.13606 0.0
C2861 C 0.05041 0.526 0.16654 0.0
C2862 C 0.03952 0.51621 0.18074 0.0
C2863 C 0.07312 0.53932 0.16681 0.0
C2864 C 0.0853 0.5505 0.15217 0.0
C2865 C 0.07992 0.56388 0.14363 0.0
C2866 C 0.09122 0.57409 0.12971 0.0
C2867 C 0.10807 0.57121 0.12428 0.0
C2868 C 0.11369 0.55814 0.1328 0.0
C2869 C 0.10241 0.54786 0.14672 0.0
H2870 H 0.1168 0.57913 0.1135 0.0
H2871 H 0.00677 0.47761 0.24792 0.0
H2872 H 0.46252 0.59213 0.22744 0.0
H2873 H 0.47088 0.58243 0.20123 0.0
H2874 H 0.45271 0.52034 0.21927 0.0
H2875 H 0.44415 0.5299 0.24546 0.0
H2876 H 0.49418 0.54221 0.2046 0.0
H2877 H 0.42062 0.52352 0.19353 0.0
H2878 H 0.38976 0.52974 0.19202 0.0
H2879 H 0.42448 0.58048 0.15871 0.0
H2880 H 0.4557 0.57477 0.16021 0.0
H2881 H 0.50696 0.49923 0.13275 0.0
H2882 H 0.49028 0.50423 0.15677 0.0
H2883 H 0.49629 0.56136 0.13647 0.0
H2884 H 0.51237 0.55596 0.11216 0.0
H2885 H 0.45977 0.54125 0.15236 0.0
H2886 H 0.53353 0.56257 0.16404 0.0
H2887 H 0.5659 0.55875 0.16564 0.0
H2888 H 0.53308 0.5065 0.19804 0.0
H2889 H 0.50038 0.50981 0.19645 0.0
C2890 C 0.46013 0.57636 0.22574 0.0
C2891 C 0.4527 0.56175 0.23845 0.0
C2892 C 0.4648 0.57081 0.21078 0.0
C2893 C 0.46232 0.55065 0.20833 0.0
C2894 C 0.45464 0.53595 0.22093 0.0
C2895 C 0.44967 0.54138 0.23583 0.0
C2896 C 0.469 0.54537 0.19294 0.0
C2897 C 0.48643 0.54162 0.1932 0.0
C2898 C 0.45935 0.54539 0.17805 0.0
C2899 C 0.44059 0.54885 0.17711 0.0
C2900 C 0.42176 0.53614 0.186 0.0
C2901 C 0.40418 0.53954 0.18512 0.0
C2902 C 0.40518 0.55554 0.1753 0.0
C2903 C 0.42374 0.56812 0.16632 0.0
C2904 C 0.44138 0.56479 0.16717 0.0
C2905 C 0.50451 0.51273 0.13338 0.0
C2906 C 0.51112 0.52733 0.1207 0.0
C2907 C 0.49505 0.51562 0.14711 0.0
C2908 C 0.4925 0.53346 0.14861 0.0
C2909 C 0.49818 0.54754 0.13563 0.0
C2910 C 0.50735 0.54445 0.12176 0.0
C2911 C 0.48493 0.53793 0.164 0.0
C2912 C 0.46744 0.54167 0.16376 0.0
C2913 C 0.49477 0.53828 0.17894 0.0
C2914 C 0.51444 0.5363 0.17999 0.0
C2915 C 0.53316 0.55017 0.17141 0.0
C2916 C 0.55158 0.54811 0.17233 0.0
C2917 C 0.55153 0.53236 0.1819 0.0
C2918 C 0.53308 0.51867 0.19061 0.0
C2919 C 0.51461 0.52064 0.18971 0.0
H2920 H 0.5658 0.53079 0.18259 0.0
H2921 H 0.39155 0.55814 0.17463 0.0
H2922 H 0.93479 0.43919 0.77963 0.0
H2923 H 0.95294 0.446 0.80569 0.0
H2924 H 0.90959 0.46537 0.82517 0.0
H2925 H 0.89066 0.45781 0.7992 0.0
H2926 H 0.95535 0.49276 0.83296 0.0
H2927 H 0.89949 0.41968 0.83496 0.0
H2928 H 0.87848 0.38302 0.82473 0.0
H2929 H 0.93574 0.37777 0.82496 0.0
H2930 H 0.95718 0.41453 0.83495 0.0
H2931 H 0.98746 0.49266 0.91403 0.0
H2932 H 0.96637 0.48692 0.88946 0.0
H2933 H 0.99589 0.45344 0.86834 0.0
H2934 H 0.01605 0.45797 0.89321 0.0
H2935 H 0.95465 0.43308 0.86208 0.0
H2936 H 0.01114 0.50569 0.85832 0.0
H2937 H 0.03356 0.54274 0.8674 0.0
H2938 H 0.97724 0.54951 0.86938 0.0
H2939 H 0.95442 0.51238 0.86051 0.0
C2940 C 0.9289 0.44467 0.78947 0.0
C2941 C 0.91103 0.44766 0.78736 0.0
C2942 C 0.93941 0.4487 0.80432 0.0
C2943 C 0.93244 0.45598 0.81734 0.0
C2944 C 0.91516 0.45973 0.81522 0.0
C2945 C 0.90443 0.45548 0.80036 0.0
C2946 C 0.94304 0.45913 0.83322 0.0
C2947 C 0.95494 0.47972 0.83952 0.0
C2948 C 0.94286 0.44211 0.84147 0.0
C2949 C 0.92998 0.41993 0.83557 0.0
C2950 C 0.90764 0.41077 0.8327 0.0
C2951 C 0.89565 0.38996 0.82697 0.0
C2952 C 0.90578 0.37809 0.82416 0.0
C2953 C 0.92792 0.38699 0.82712 0.0
C2954 C 0.94 0.40781 0.83284 0.0
C2955 C 0.98929 0.48384 0.90424 0.0
C2956 C 1.0035 0.47578 0.90563 0.0
C2957 C 0.97742 0.48082 0.89011 0.0
C2958 C 0.97976 0.47001 0.87695 0.0
C2959 C 0.99386 0.4619 0.87831 0.0
C2960 C 0.00557 0.46471 0.89249 0.0
C2961 C 0.96734 0.46684 0.86184 0.0
C2962 C 0.95502 0.44619 0.85565 0.0
C2963 C 0.96736 0.48386 0.85361 0.0
C2964 C 0.98105 0.50619 0.85892 0.0
C2965 C 1.00351 0.51503 0.86081 0.0
C2966 C 0.0163 0.53605 0.8659 0.0
C2967 C 0.00682 0.54845 0.86901 0.0
C2968 C 0.98455 0.53987 0.867 0.0
C2969 C 0.97168 0.51885 0.86193 0.0
H2970 H 0.01675 0.56472 0.87295 0.0
H2971 H 0.89647 0.36198 0.81972 0.0
H2972 H 0.57412 0.43093 0.7948 0.0
H2973 H 0.56498 0.43801 0.8216 0.0
H2974 H 0.57899 0.50006 0.80625 0.0
H2975 H 0.58803 0.49307 0.77944 0.0
H2976 H 0.59523 0.50158 0.83603 0.0
H2977 H 0.52724 0.45925 0.80832 0.0
H2978 H 0.49992 0.42803 0.79321 0.0
H2979 H 0.49476 0.38772 0.83255 0.0
H2980 H 0.52229 0.41869 0.8478 0.0
H2981 H 0.53527 0.52713 0.89029 0.0
H2982 H 0.55017 0.51832 0.86697 0.0
H2983 H 0.53698 0.45988 0.88955 0.0
H2984 H 0.52201 0.46866 0.91299 0.0
H2985 H 0.52196 0.4545 0.8579 0.0
H2986 H 0.5874 0.49739 0.88672 0.0
H2987 H 0.61452 0.52865 0.90185 0.0
H2988 H 0.62447 0.56792 0.86071 0.0
H2989 H 0.59713 0.53694 0.84539 0.0
C2990 C 0.57517 0.44605 0.79711 0.0
C2991 C 0.58172 0.4614 0.78494 0.0
C2992 C 0.57 0.45009 0.81245 0.0
C2993 C 0.57111 0.46949 0.81589 0.0
C2994 C 0.57809 0.48501 0.80389 0.0
C2995 C 0.58329 0.481 0.78857 0.0
C2996 C 0.56443 0.47349 0.83184 0.0
C2997 C 0.57916 0.49139 0.84076 0.0
C2998 C 0.54366 0.45985 0.83823 0.0
C2999 C 0.527 0.44125 0.82912 0.0
C3000 C 0.5204 0.4437 0.81369 0.0
C3001 C 0.50486 0.42606 0.80511 0.0
C3002 C 0.49566 0.4059 0.8119 0.0
C3003 C 0.50193 0.40335 0.8273 0.0
C3004 C 0.51749 0.42094 0.83592 0.0
C3005 C 0.53566 0.51246 0.89031 0.0
C3006 C 0.52744 0.49855 0.90342 0.0
C3007 C 0.54429 0.50751 0.87704 0.0
C3008 C 0.54477 0.4885 0.87657 0.0
C3009 C 0.5368 0.47466 0.88971 0.0
C3010 C 0.52838 0.47973 0.9031 0.0
C3011 C 0.55265 0.48276 0.86196 0.0
C3012 C 0.53813 0.46455 0.85328 0.0
C3013 C 0.5736 0.49612 0.85579 0.0
C3014 C 0.59006 0.51485 0.86495 0.0
C3015 C 0.59522 0.51272 0.88094 0.0
C3016 C 0.61067 0.53039 0.88954 0.0
C3017 C 0.62119 0.55027 0.88226 0.0
C3018 C 0.6163 0.55251 0.86634 0.0
C3019 C 0.60083 0.53489 0.85768 0.0
H3020 H 0.63315 0.56393 0.88893 0.0
H3021 H 0.48363 0.39225 0.80523 0.0
H3022 H 0.56654 0.09227 0.78059 0.0
H3023 H 0.55852 0.07596 0.80722 0.0
H3024 H 0.53319 0.11607 0.82194 0.0
H3025 H 0.54138 0.13264 0.7953 0.0
H3026 H 0.5588 0.11107 0.84607 0.0
H3027 H 0.49876 0.06823 0.81085 0.0
H3028 H 0.48152 0.04786 0.78611 0.0
H3029 H 0.50575 0.00579 0.79644 0.0
H3030 H 0.52343 0.02613 0.82114 0.0
H3031 H 0.49845 0.04867 0.91366 0.0
H3032 H 0.51187 0.07039 0.88938 0.0
H3033 H 0.52698 0.02493 0.8687 0.0
H3034 H 0.51295 0.00297 0.89269 0.0
H3035 H 0.50652 0.0339 0.84766 0.0
H3036 H 0.56666 0.07607 0.88277 0.0
H3037 H 0.58475 0.09649 0.90732 0.0
H3038 H 0.56164 0.13955 0.8974 0.0
H3039 H 0.54317 0.11923 0.87289 0.0
C3040 C 0.55961 0.09788 0.78957 0.0
C3041 C 0.55451 0.11369 0.7858 0.0
C3042 C 0.55492 0.08847 0.80476 0.0
C3043 C 0.54509 0.09468 0.81651 0.0
C3044 C 0.54075 0.11103 0.81304 0.0
C3045 C 0.54529 0.12036 0.79778 0.0
C3046 C 0.53821 0.0832 0.83205 0.0
C3047 C 0.5472 0.09424 0.84649 0.0
C3048 C 0.52337 0.06119 0.83253 0.0
C3049 C 0.51259 0.04883 0.81776 0.0
C3050 C 0.50056 0.05474 0.80778 0.0
C3051 C 0.49068 0.04318 0.79377 0.0
C3052 C 0.49258 0.02557 0.78968 0.0
C3053 C 0.50431 0.01945 0.79962 0.0
C3054 C 0.51425 0.03098 0.81362 0.0
C3055 C 0.50495 0.04353 0.90401 0.0
C3056 C 0.50459 0.02411 0.90501 0.0
C3057 C 0.51267 0.05596 0.89014 0.0
C3058 C 0.52059 0.0494 0.87716 0.0
C3059 C 0.52086 0.03032 0.87845 0.0
C3060 C 0.51287 0.01778 0.89218 0.0
C3061 C 0.52737 0.0616 0.86185 0.0
C3062 C 0.51822 0.05071 0.84737 0.0
C3063 C 0.54218 0.0837 0.86138 0.0
C3064 C 0.55335 0.096 0.87607 0.0
C3065 C 0.5653 0.08981 0.88588 0.0
C3066 C 0.57565 0.10138 0.89978 0.0
C3067 C 0.5743 0.11927 0.90394 0.0
C3068 C 0.56265 0.12567 0.89418 0.0
C3069 C 0.55226 0.11414 0.88027 0.0
H3070 H 0.58232 0.12821 0.91471 0.0
H3071 H 0.48493 0.01664 0.77883 0.0
H3072 H 0.10528 0.25846 0.58223 0.0
H3073 H 0.11216 0.2732 0.55512 0.0
H3074 H 0.12565 0.22466 0.53903 0.0
H3075 H 0.11902 0.20998 0.56626 0.0
H3076 H 0.15423 0.26116 0.52686 0.0
H3077 H 0.07742 0.22311 0.52944 0.0
H3078 H 0.04144 0.21192 0.54075 0.0
H3079 H 0.0531 0.27553 0.53701 0.0
H3080 H 0.08929 0.28718 0.52589 0.0
H3081 H 0.15613 0.29119 0.44469 0.0
H3082 H 0.14403 0.26935 0.46904 0.0
H3083 H 0.13499 0.31705 0.4928 0.0
H3084 H 0.14678 0.33872 0.46853 0.0
H3085 H 0.10211 0.27697 0.49942 0.0
H3086 H 0.18054 0.3148 0.49904 0.0
H3087 H 0.21614 0.32516 0.48734 0.0
H3088 H 0.20019 0.26001 0.48623 0.0
H3089 H 0.16437 0.24925 0.49775 0.0
C3090 C 0.10955 0.25082 0.5729 0.0
C3091 C 0.11147 0.23296 0.5764 0.0
C3092 C 0.11344 0.25924 0.55737 0.0
C3093 C 0.11905 0.24984 0.54489 0.0
C3094 C 0.12129 0.23218 0.54841 0.0
C3095 C 0.11755 0.22383 0.56399 0.0
C3096 C 0.12294 0.25874 0.5283 0.0
C3097 C 0.14262 0.26423 0.52076 0.0
C3098 C 0.10795 0.26299 0.52031 0.0
C3099 C 0.08615 0.25605 0.52694 0.0
C3100 C 0.07238 0.23475 0.53113 0.0
C3101 C 0.05193 0.22831 0.5375 0.0
C3102 C 0.045 0.24301 0.53963 0.0
C3103 C 0.05849 0.26416 0.53536 0.0
C3104 C 0.07897 0.27069 0.52901 0.0
C3105 C 0.15121 0.29683 0.45502 0.0
C3106 C 0.15258 0.31676 0.45474 0.0
C3107 C 0.14446 0.28442 0.46896 0.0
C3108 C 0.13886 0.29169 0.48283 0.0
C3109 C 0.13929 0.31114 0.48229 0.0
C3110 C 0.14616 0.32357 0.46844 0.0
C3111 C 0.13348 0.27967 0.49819 0.0
C3112 C 0.11354 0.27362 0.50548 0.0
C3113 C 0.14813 0.27473 0.50588 0.0
C3114 C 0.16971 0.28121 0.49909 0.0
C3115 C 0.18457 0.30268 0.49619 0.0
C3116 C 0.20479 0.30862 0.48961 0.0
C3117 C 0.2104 0.29325 0.486 0.0
C3118 C 0.19581 0.2719 0.48901 0.0
C3119 C 0.17556 0.26587 0.49557 0.0
H3120 H 0.22606 0.29788 0.4809 0.0
H3121 H 0.02917 0.238 0.54455 0.0
H3122 H 0.7732 0.90841 0.57799 0.0
H3123 H 0.7541 0.90105 0.5522 0.0
H3124 H 0.78714 0.86868 0.53556 0.0
H3125 H 0.80672 0.87643 0.56122 0.0
H3126 H 0.78398 0.89393 0.51196 0.0
H3127 H 0.7374 0.84049 0.54965 0.0
H3128 H 0.71765 0.82754 0.57517 0.0
H3129 H 0.68181 0.8591 0.56498 0.0
H3130 H 0.70158 0.87249 0.53949 0.0
H3131 H 0.71175 0.83079 0.44933 0.0
H3132 H 0.73505 0.84437 0.47315 0.0
H3133 H 0.69828 0.87287 0.48997 0.0
H3134 H 0.67496 0.85937 0.46617 0.0
H3135 H 0.7039 0.85107 0.51332 0.0
H3136 H 0.74855 0.90269 0.47476 0.0
H3137 H 0.76781 0.91537 0.44905 0.0
H3138 H 0.80732 0.88811 0.46061 0.0
H3139 H 0.78789 0.87473 0.48621 0.0
C3140 C 0.77668 0.90003 0.56874 0.0
C3141 C 0.79138 0.8929 0.57165 0.0
C3142 C 0.76565 0.89572 0.55406 0.0
C3143 C 0.76906 0.88413 0.54205 0.0
C3144 C 0.78426 0.87762 0.54469 0.0
C3145 C 0.79527 0.88188 0.55939 0.0
C3146 C 0.75596 0.87788 0.52707 0.0
C3147 C 0.76648 0.88438 0.5122 0.0
C3148 C 0.73313 0.86583 0.52747 0.0
C3149 C 0.72113 0.85767 0.54274 0.0
C3150 C 0.72543 0.8448 0.55291 0.0
C3151 C 0.71421 0.83736 0.56736 0.0
C3152 C 0.69852 0.84254 0.57171 0.0
C3153 C 0.69398 0.85513 0.5616 0.0
C3154 C 0.70518 0.86264 0.54715 0.0
C3155 C 0.70883 0.84021 0.45799 0.0
C3156 C 0.69149 0.84397 0.4559 0.0
C3157 C 0.72215 0.84796 0.47159 0.0
C3158 C 0.71848 0.85975 0.48328 0.0
C3159 C 0.70135 0.86375 0.48112 0.0
C3160 C 0.688 0.85597 0.46755 0.0
C3161 C 0.73186 0.8671 0.49813 0.0
C3162 C 0.72139 0.86074 0.51301 0.0
C3163 C 0.75471 0.87933 0.4977 0.0
C3164 C 0.7666 0.88753 0.48236 0.0
C3165 C 0.76121 0.89923 0.47177 0.0
C3166 C 0.77218 0.90657 0.45722 0.0
C3167 C 0.7888 0.90257 0.4532 0.0
C3168 C 0.79445 0.8912 0.46373 0.0
C3169 C 0.78344 0.88371 0.47827 0.0
H3170 H 0.7973 0.90831 0.44194 0.0
H3171 H 0.68985 0.83676 0.5829 0.0
H3172 H 0.10832 0.86279 0.57597 0.0
H3173 H 0.11725 0.85221 0.55039 0.0
H3174 H 0.14256 0.91569 0.53247 0.0
H3175 H 0.1336 0.92635 0.55801 0.0
H3176 H 0.11696 0.8834 0.50959 0.0
H3177 H 0.17673 0.90274 0.54645 0.0
H3178 H 0.19324 0.90061 0.57198 0.0
H3179 H 0.17017 0.83455 0.5634 0.0
H3180 H 0.15323 0.83623 0.53792 0.0
H3181 H 0.18449 0.88694 0.44598 0.0
H3182 H 0.16729 0.89218 0.46953 0.0
H3183 H 0.15553 0.8324 0.48873 0.0
H3184 H 0.17324 0.82738 0.46533 0.0
H3185 H 0.1718 0.86059 0.51106 0.0
H3186 H 0.11188 0.83968 0.475 0.0
H3187 H 0.093 0.83972 0.45009 0.0
H3188 H 0.11465 0.90578 0.45682 0.0
H3189 H 0.13326 0.90603 0.482 0.0
C3190 C 0.11552 0.8744 0.56649 0.0
C3191 C 0.12038 0.89542 0.56899 0.0
C3192 C 0.12068 0.86836 0.55193 0.0
C3193 C 0.13067 0.88321 0.5396 0.0
C3194 C 0.13485 0.90401 0.54185 0.0
C3195 C 0.12988 0.9101 0.55646 0.0
C3196 C 0.13786 0.87739 0.52469 0.0
C3197 C 0.12907 0.87856 0.50985 0.0
C3198 C 0.1532 0.87054 0.52512 0.0
C3199 C 0.16352 0.86956 0.54037 0.0
C3200 C 0.17502 0.88772 0.55007 0.0
C3201 C 0.18449 0.8866 0.56452 0.0
C3202 C 0.18271 0.86744 0.56933 0.0
C3203 C 0.17151 0.84937 0.55967 0.0
C3204 C 0.16198 0.8504 0.54522 0.0
C3205 C 0.17795 0.87477 0.45512 0.0
C3206 C 0.18031 0.8568 0.45387 0.0
C3207 C 0.168 0.87773 0.46855 0.0
C3208 C 0.15985 0.86258 0.48088 0.0
C3209 C 0.16172 0.84435 0.47942 0.0
C3210 C 0.17189 0.84151 0.46608 0.0
C3211 C 0.15092 0.86653 0.4958 0.0
C3212 C 0.15948 0.86515 0.5107 0.0
C3213 C 0.13516 0.87291 0.49543 0.0
C3214 C 0.12411 0.87291 0.48029 0.0
C3215 C 0.1127 0.85424 0.47112 0.0
C3216 C 0.10202 0.8542 0.45697 0.0
C3217 C 0.10283 0.87279 0.45177 0.0
C3218 C 0.11409 0.89141 0.46083 0.0
C3219 C 0.12459 0.89148 0.4751 0.0
H3220 H 0.09464 0.87272 0.44076 0.0
H3221 H 0.19005 0.86661 0.58052 0.0
H3222 H 0.59937 0.76968 0.11154 0.0
H3223 H 0.61512 0.77643 0.13852 0.0
H3224 H 0.56585 0.78927 0.15564 0.0
H3225 H 0.54964 0.78211 0.12866 0.0
H3226 H 0.60712 0.81912 0.16584 0.0
H3227 H 0.56222 0.74376 0.16524 0.0
H3228 H 0.54762 0.70765 0.15426 0.0
H3229 H 0.61066 0.71403 0.157 0.0
H3230 H 0.62572 0.75032 0.16777 0.0
H3231 H 0.64143 0.82417 0.24692 0.0
H3232 H 0.61827 0.81324 0.22296 0.0
H3233 H 0.6594 0.7932 0.20028 0.0
H3234 H 0.68203 0.80318 0.22442 0.0
H3235 H 0.61813 0.76548 0.19434 0.0
H3236 H 0.66372 0.84148 0.19202 0.0
H3237 H 0.67929 0.87812 0.20213 0.0
H3238 H 0.61589 0.87093 0.20418 0.0
H3239 H 0.59991 0.83412 0.19427 0.0
C3240 C 0.59169 0.77367 0.12107 0.0
C3241 C 0.57314 0.7752 0.11798 0.0
C3242 C 0.60076 0.77758 0.13647 0.0
C3243 C 0.59148 0.78308 0.14909 0.0
C3244 C 0.5732 0.785 0.14603 0.0
C3245 C 0.56404 0.78099 0.13062 0.0
C3246 C 0.60118 0.7871 0.16539 0.0
C3247 C 0.60917 0.80728 0.17224 0.0
C3248 C 0.60417 0.77174 0.17354 0.0
C3249 C 0.59513 0.74983 0.16721 0.0
C3250 C 0.57301 0.73752 0.1634 0.0
C3251 C 0.56464 0.71701 0.15722 0.0
C3252 C 0.57821 0.70857 0.15491 0.0
C3253 C 0.60017 0.7206 0.1588 0.0
C3254 C 0.60863 0.74113 0.16495 0.0
C3255 C 0.64534 0.81711 0.23693 0.0
C3256 C 0.66368 0.8147 0.23752 0.0
C3257 C 0.63221 0.81107 0.22319 0.0
C3258 C 0.63731 0.80272 0.20975 0.0
C3259 C 0.65521 0.7997 0.21049 0.0
C3260 C 0.66827 0.80562 0.22424 0.0
C3261 C 0.62445 0.79764 0.19468 0.0
C3262 C 0.61584 0.77725 0.18806 0.0
C3263 C 0.62101 0.81285 0.18669 0.0
C3264 C 0.6306 0.83499 0.19259 0.0
C3265 C 0.65308 0.84767 0.19475 0.0
C3266 C 0.66199 0.86847 0.20042 0.0
C3267 C 0.64858 0.87683 0.20384 0.0
C3268 C 0.62625 0.86442 0.20155 0.0
C3269 C 0.61726 0.84359 0.1959 0.0
H3270 H 0.6555 0.89294 0.20823 0.0
H3271 H 0.5717 0.69269 0.15012 0.0
H3272 H 0.24137 0.82524 0.11071 0.0
H3273 H 0.23121 0.83297 0.13684 0.0
H3274 H 0.22579 0.77558 0.15606 0.0
H3275 H 0.23556 0.76757 0.12976 0.0
H3276 H 0.19353 0.77971 0.16632 0.0
H3277 H 0.2698 0.82511 0.16487 0.0
H3278 H 0.30489 0.85174 0.15369 0.0
H3279 H 0.28428 0.8979 0.15373 0.0
H3280 H 0.24892 0.87145 0.16469 0.0
H3281 H 0.1879 0.81005 0.24717 0.0
H3282 H 0.20173 0.80147 0.2231 0.0
H3283 H 0.20025 0.85211 0.1975 0.0
H3284 H 0.18666 0.86093 0.22155 0.0
H3285 H 0.23781 0.85032 0.19196 0.0
H3286 H 0.16019 0.8026 0.1921 0.0
H3287 H 0.12619 0.77566 0.20452 0.0
H3288 H 0.1514 0.7333 0.20841 0.0
H3289 H 0.18567 0.76012 0.19618 0.0
C3290 C 0.23813 0.81433 0.12054 0.0
C3291 C 0.23942 0.79588 0.11824 0.0
C3292 C 0.23237 0.81878 0.13548 0.0
C3293 C 0.22814 0.80507 0.14854 0.0
C3294 C 0.22905 0.78643 0.1462 0.0
C3295 C 0.23461 0.78186 0.13118 0.0
C3296 C 0.22255 0.81016 0.16454 0.0
C3297 C 0.20343 0.79503 0.17203 0.0
C3298 C 0.23533 0.83021 0.172 0.0
C3299 C 0.25663 0.84623 0.16548 0.0
C3300 C 0.27268 0.84089 0.16239 0.0
C3301 C 0.29263 0.85596 0.1561 0.0
C3302 C 0.2968 0.87648 0.15297 0.0
C3303 C 0.28103 0.88199 0.15615 0.0
C3304 C 0.26103 0.86697 0.16241 0.0
C3305 C 0.19068 0.81946 0.23647 0.0
C3306 C 0.18589 0.83599 0.23622 0.0
C3307 C 0.1985 0.81449 0.2227 0.0
C3308 C 0.20178 0.82601 0.20847 0.0
C3309 C 0.19774 0.84297 0.20835 0.0
C3310 C 0.18979 0.84786 0.22206 0.0
C3311 C 0.20872 0.82002 0.1935 0.0
C3312 C 0.22807 0.83497 0.18625 0.0
C3313 C 0.19632 0.79973 0.18638 0.0
C3314 C 0.17555 0.78343 0.19337 0.0
C3315 C 0.15851 0.78758 0.19568 0.0
C3316 C 0.1392 0.77233 0.20268 0.0
C3317 C 0.13666 0.7528 0.20729 0.0
C3318 C 0.1534 0.74844 0.20484 0.0
C3319 C 0.17276 0.76365 0.19786 0.0
H3320 H 0.1217 0.74103 0.21273 0.0
H3321 H 0.31225 0.88813 0.14811 0.0
H3322 H 0.21116 0.46602 0.1274 0.0
H3323 H 0.20328 0.44823 0.1535 0.0
H3324 H 0.22511 0.4065 0.13568 0.0
H3325 H 0.23286 0.42413 0.10948 0.0
H3326 H 0.18573 0.38515 0.15099 0.0
H3327 H 0.25597 0.44502 0.16169 0.0
H3328 H 0.28352 0.48293 0.16272 0.0
H3329 H 0.24396 0.49472 0.19512 0.0
H3330 H 0.21601 0.4569 0.19411 0.0
H3331 H 0.18246 0.33551 0.22389 0.0
H3332 H 0.19626 0.35678 0.19956 0.0
H3333 H 0.17996 0.40206 0.21879 0.0
H3334 H 0.16652 0.38095 0.2434 0.0
H3335 H 0.21713 0.42207 0.20282 0.0
H3336 H 0.14656 0.36352 0.1917 0.0
H3337 H 0.11797 0.32597 0.19063 0.0
H3338 H 0.15663 0.31218 0.1588 0.0
H3339 H 0.18561 0.34962 0.15986 0.0
C3340 C 0.21429 0.45306 0.12906 0.0
C3341 C 0.22261 0.44646 0.11638 0.0
C3342 C 0.20994 0.44302 0.14401 0.0
C3343 C 0.21375 0.42613 0.14658 0.0
C3344 C 0.22212 0.41954 0.13397 0.0
C3345 C 0.22665 0.4297 0.11905 0.0
C3346 C 0.20821 0.41482 0.16223 0.0
C3347 C 0.19286 0.39315 0.16229 0.0
C3348 C 0.21699 0.42542 0.17703 0.0
C3349 C 0.2338 0.44815 0.1777 0.0
C3350 C 0.25305 0.45572 0.16893 0.0
C3351 C 0.26877 0.47719 0.16953 0.0
C3352 C 0.26547 0.49124 0.17895 0.0
C3353 C 0.24648 0.48383 0.18782 0.0
C3354 C 0.2307 0.46237 0.18724 0.0
C3355 C 0.18197 0.35009 0.22298 0.0
C3356 C 0.17319 0.35646 0.23546 0.0
C3357 C 0.18982 0.36221 0.20905 0.0
C3358 C 0.18869 0.38078 0.20715 0.0
C3359 C 0.1809 0.38774 0.21993 0.0
C3360 C 0.17325 0.3757 0.23399 0.0
C3361 C 0.19474 0.39233 0.19157 0.0
C3362 C 0.21008 0.41405 0.19151 0.0
C3363 C 0.18579 0.38184 0.17674 0.0
C3364 C 0.16834 0.35933 0.17599 0.0
C3365 C 0.14903 0.35245 0.18456 0.0
C3366 C 0.13275 0.33119 0.18395 0.0
C3367 C 0.13551 0.31668 0.17469 0.0
C3368 C 0.15453 0.32343 0.16598 0.0
C3369 C 0.17089 0.34467 0.16658 0.0
H3370 H 0.12288 0.30023 0.17422 0.0
H3371 H 0.27766 0.50785 0.1794 0.0
H3372 H 0.78384 0.53472 0.89577 0.0
H3373 H 0.79358 0.55209 0.86949 0.0
H3374 H 0.78204 0.6012 0.88741 0.0
H3375 H 0.77182 0.58362 0.91351 0.0
H3376 H 0.76635 0.59107 0.8586 0.0
H3377 H 0.83411 0.60793 0.88334 0.0
H3378 H 0.86038 0.6001 0.8964 0.0
H3379 H 0.85988 0.56491 0.85468 0.0
H3380 H 0.83337 0.5723 0.84144 0.0
H3381 H 0.85755 0.67108 0.80343 0.0
H3382 H 0.84576 0.64811 0.82684 0.0
H3383 H 0.78647 0.60482 0.8022 0.0
H3384 H 0.79765 0.62845 0.77897 0.0
H3385 H 0.83659 0.61002 0.83345 0.0
H3386 H 0.74555 0.58201 0.82931 0.0
H3387 H 0.72132 0.59392 0.8182 0.0
H3388 H 0.7722 0.65872 0.82209 0.0
H3389 H 0.79661 0.6472 0.8334 0.0
C3390 C 0.78346 0.54925 0.89408 0.0
C3391 C 0.77711 0.55783 0.9067 0.0
C3392 C 0.78904 0.55919 0.87907 0.0
C3393 C 0.78879 0.57812 0.87647 0.0
C3394 C 0.78229 0.58658 0.88905 0.0
C3395 C 0.77646 0.57653 0.90398 0.0
C3396 C 0.79551 0.58934 0.86077 0.0
C3397 C 0.78167 0.59511 0.85308 0.0
C3398 C 0.81559 0.59486 0.85358 0.0
C3399 C 0.83159 0.59047 0.86148 0.0
C3400 C 0.83949 0.59839 0.877 0.0
C3401 C 0.85444 0.59405 0.88443 0.0
C3402 C 0.86175 0.58196 0.87639 0.0
C3403 C 0.85417 0.57424 0.8609 0.0
C3404 C 0.83919 0.57851 0.85342 0.0
C3405 C 0.84189 0.65678 0.80299 0.0
C3406 C 0.82838 0.65189 0.78938 0.0
C3407 C 0.83528 0.64348 0.81636 0.0
C3408 C 0.81506 0.62486 0.81645 0.0
C3409 C 0.80198 0.61931 0.80256 0.0
C3410 C 0.8085 0.63275 0.7892 0.0
C3411 C 0.80752 0.61192 0.83136 0.0
C3412 C 0.82115 0.60576 0.83888 0.0
C3413 C 0.78754 0.60659 0.83865 0.0
C3414 C 0.77295 0.61371 0.83201 0.0
C3415 C 0.75153 0.59879 0.82783 0.0
C3416 C 0.73777 0.60548 0.82149 0.0
C3417 C 0.74524 0.62706 0.81938 0.0
C3418 C 0.76646 0.64201 0.82367 0.0
C3419 C 0.78026 0.63541 0.83003 0.0
H3420 H 0.73458 0.6322 0.81446 0.0
H3421 H 0.87332 0.57862 0.88217 0.0
H3422 H 0.46311 0.24031 0.89532 0.0
H3423 H 0.44477 0.23261 0.86917 0.0
H3424 H 0.39436 0.17267 0.8871 0.0
H3425 H 0.41276 0.18021 0.9132 0.0
H3426 H 0.40549 0.16814 0.85748 0.0
H3427 H 0.38725 0.21577 0.88401 0.0
H3428 H 0.39472 0.24855 0.89819 0.0
H3429 H 0.43012 0.28543 0.85739 0.0
H3430 H 0.42312 0.25287 0.84304 0.0
H3431 H 0.32266 0.14735 0.80038 0.0
H3432 H 0.34422 0.15528 0.8251 0.0
H3433 H 0.39562 0.21134 0.80313 0.0
H3434 H 0.37407 0.20356 0.7784 0.0
H3435 H 0.38536 0.21845 0.83397 0.0
H3436 H 0.40187 0.17005 0.80707 0.0
H3437 H 0.39368 0.13694 0.79309 0.0
H3438 H 0.36045 0.10107 0.83487 0.0
H3439 H 0.36818 0.13396 0.84903 0.0
C3440 C 0.44808 0.22553 0.89367 0.0
C3441 C 0.43929 0.2109 0.9063 0.0
C3442 C 0.43763 0.22114 0.87874 0.0
C3443 C 0.41805 0.20219 0.87626 0.0
C3444 C 0.40947 0.18738 0.88875 0.0
C3445 C 0.41999 0.19169 0.90365 0.0
C3446 C 0.40631 0.19788 0.86071 0.0
C3447 C 0.40087 0.17902 0.85243 0.0
C3448 C 0.40071 0.21232 0.85395 0.0
C3449 C 0.40485 0.2319 0.86252 0.0
C3450 C 0.39677 0.23088 0.87811 0.0
C3451 C 0.4009 0.24942 0.88617 0.0
C3452 C 0.41294 0.26906 0.87871 0.0
C3453 C 0.42083 0.2702 0.86316 0.0
C3454 C 0.41677 0.25172 0.85505 0.0
C3455 C 0.33853 0.16139 0.80086 0.0
C3456 C 0.34672 0.17484 0.7875 0.0
C3457 C 0.35086 0.16581 0.81491 0.0
C3458 C 0.37155 0.1838 0.81585 0.0
C3459 C 0.37971 0.19734 0.80259 0.0
C3460 C 0.36746 0.19282 0.78847 0.0
C3461 C 0.38445 0.18868 0.83084 0.0
C3462 C 0.39008 0.20763 0.83901 0.0
C3463 C 0.3901 0.17428 0.83753 0.0
C3464 C 0.38543 0.15446 0.82905 0.0
C3465 C 0.39265 0.15509 0.81323 0.0
C3466 C 0.38812 0.13636 0.80528 0.0
C3467 C 0.3765 0.11691 0.81307 0.0
C3468 C 0.36943 0.11615 0.82885 0.0
C3469 C 0.37389 0.13483 0.83684 0.0
H3470 H 0.37302 0.10243 0.8069 0.0
H3471 H 0.41612 0.28339 0.88497 0.0
H3472 H 0.76037 0.21832 0.89653 0.0
H3473 H 0.76957 0.21113 0.86969 0.0
H3474 H 0.83427 0.23093 0.88617 0.0
H3475 H 0.82514 0.23749 0.91299 0.0
H3476 H 0.83299 0.24981 0.85723 0.0
H3477 H 0.79943 0.18001 0.88148 0.0
H3478 H 0.76952 0.14886 0.89454 0.0
H3479 H 0.72837 0.13954 0.85386 0.0
H3480 H 0.75797 0.17085 0.84065 0.0
H3481 H 0.8809 0.21465 0.80104 0.0
H3482 H 0.86527 0.22131 0.82481 0.0
H3483 H 0.80263 0.19117 0.80171 0.0
H3484 H 0.81802 0.18353 0.77805 0.0
H3485 H 0.79879 0.17848 0.8319 0.0
H3486 H 0.83221 0.24532 0.80618 0.0
H3487 H 0.86104 0.27681 0.79267 0.0
H3488 H 0.90079 0.29266 0.8351 0.0
H3489 H 0.87233 0.26108 0.84879 0.0
C3490 C 0.77647 0.22088 0.89449 0.0
C3491 C 0.79207 0.22869 0.90691 0.0
C3492 C 0.78172 0.21686 0.87913 0.0
C3493 C 0.80264 0.2206 0.87594 0.0
C3494 C 0.81811 0.22815 0.88834 0.0
C3495 C 0.81286 0.23199 0.90366 0.0
C3496 C 0.80876 0.21697 0.8597 0.0
C3497 C 0.82563 0.2342 0.85171 0.0
C3498 C 0.79856 0.19676 0.85226 0.0
C3499 C 0.78082 0.17791 0.86017 0.0
C3500 C 0.78394 0.17144 0.87539 0.0
C3501 C 0.76706 0.15373 0.8828 0.0
C3502 C 0.74703 0.14227 0.87506 0.0
C3503 C 0.74387 0.14846 0.85986 0.0
C3504 C 0.7607 0.16618 0.8524 0.0
C3505 C 0.86376 0.20926 0.80102 0.0
C3506 C 0.85073 0.1985 0.78761 0.0
C3507 C 0.85488 0.21333 0.81457 0.0
C3508 C 0.83281 0.20703 0.81499 0.0
C3509 C 0.81971 0.19628 0.80164 0.0
C3510 C 0.82858 0.1921 0.78807 0.0
C3511 C 0.82351 0.21125 0.82958 0.0
C3512 C 0.80601 0.19417 0.83725 0.0
C3513 C 0.83296 0.23168 0.83666 0.0
C3514 C 0.85017 0.25072 0.82848 0.0
C3515 C 0.84716 0.25542 0.81259 0.0
C3516 C 0.86343 0.27331 0.80491 0.0
C3517 C 0.88275 0.28671 0.81301 0.0
C3518 C 0.88582 0.28226 0.82883 0.0
C3519 C 0.86962 0.26438 0.83657 0.0
H3520 H 0.89532 0.30056 0.80705 0.0
H3521 H 0.73398 0.12856 0.88082 0.0
H3522 H 0.22648 0.08711 0.4615 0.0
H3523 H 0.24623 0.09629 0.48715 0.0
H3524 H 0.29254 0.15745 0.46831 0.0
H3525 H 0.27293 0.14832 0.44259 0.0
H3526 H 0.31137 0.13652 0.48369 0.0
H3527 H 0.25677 0.15513 0.49383 0.0
H3528 H 0.21959 0.14902 0.49484 0.0
H3529 H 0.20202 0.09831 0.52833 0.0
H3530 H 0.23904 0.1039 0.52734 0.0
H3531 H 0.36525 0.18048 0.55747 0.0
H3532 H 0.34517 0.17468 0.53225 0.0
H3533 H 0.29276 0.11658 0.55109 0.0
H3534 H 0.31259 0.12259 0.57644 0.0
H3535 H 0.27724 0.13738 0.53541 0.0
H3536 H 0.33036 0.11694 0.52459 0.0
H3537 H 0.36702 0.12169 0.52348 0.0
H3538 H 0.38675 0.17397 0.49118 0.0
H3539 H 0.35025 0.16971 0.49227 0.0
C3540 C 0.24091 0.10248 0.46284 0.0
C3541 C 0.24819 0.11703 0.45011 0.0
C3542 C 0.25206 0.10775 0.47749 0.0
C3543 C 0.27071 0.1276 0.47961 0.0
C3544 C 0.27812 0.14209 0.46688 0.0
C3545 C 0.26687 0.13691 0.45227 0.0
C3546 C 0.28272 0.13305 0.49502 0.0
C3547 C 0.30406 0.13705 0.49499 0.0
C3548 C 0.2729 0.13316 0.50974 0.0
C3549 C 0.25064 0.12981 0.51039 0.0
C3550 C 0.24494 0.14255 0.5013 0.0
C3551 C 0.2239 0.13921 0.50189 0.0
C3552 C 0.20844 0.12326 0.51161 0.0
C3553 C 0.21401 0.11065 0.52079 0.0
C3554 C 0.23502 0.11391 0.52023 0.0
C3555 C 0.34945 0.16647 0.55619 0.0
C3556 C 0.34049 0.15191 0.56882 0.0
C3557 C 0.33801 0.16316 0.5418 0.0
C3558 C 0.31762 0.14501 0.5397 0.0
C3559 C 0.30847 0.13068 0.55245 0.0
C3560 C 0.31979 0.13412 0.5669 0.0
C3561 C 0.30593 0.14075 0.52414 0.0
C3562 C 0.28463 0.13696 0.52413 0.0
C3563 C 0.31572 0.14062 0.50938 0.0
C3564 C 0.33764 0.14314 0.50864 0.0
C3565 C 0.34256 0.12955 0.51734 0.0
C3566 C 0.3633 0.13214 0.5167 0.0
C3567 C 0.37922 0.14816 0.5073 0.0
C3568 C 0.37441 0.16159 0.49848 0.0
C3569 C 0.3537 0.15909 0.49909 0.0
H3570 H 0.39527 0.15014 0.50682 0.0
H3571 H 0.19216 0.1207 0.51205 0.0
H3572 H 0.90472 0.10113 0.46181 0.0
H3573 H 0.89596 0.1084 0.48869 0.0
H3574 H 0.90817 0.16971 0.4729 0.0
H3575 H 0.91657 0.16246 0.44597 0.0
H3576 H 0.92574 0.17155 0.50279 0.0
H3577 H 0.85738 0.12915 0.47517 0.0
H3578 H 0.83004 0.09771 0.46029 0.0
H3579 H 0.82522 0.05796 0.49995 0.0
H3580 H 0.85277 0.08917 0.51498 0.0
H3581 H 0.86671 0.19952 0.55553 0.0
H3582 H 0.88108 0.1895 0.53256 0.0
H3583 H 0.8669 0.13151 0.5564 0.0
H3584 H 0.8524 0.14146 0.57948 0.0
H3585 H 0.85222 0.12537 0.5246 0.0
H3586 H 0.91726 0.168 0.5536 0.0
H3587 H 0.94449 0.19922 0.5687 0.0
H3588 H 0.95594 0.23812 0.52707 0.0
H3589 H 0.92848 0.20718 0.51178 0.0
C3590 C 0.90545 0.11613 0.46403 0.0
C3591 C 0.91127 0.13118 0.45169 0.0
C3592 C 0.90053 0.12029 0.47942 0.0
C3593 C 0.90129 0.13954 0.48275 0.0
C3594 C 0.90759 0.15479 0.4706 0.0
C3595 C 0.91245 0.15063 0.45522 0.0
C3596 C 0.89478 0.14363 0.49871 0.0
C3597 C 0.90963 0.16155 0.50753 0.0
C3598 C 0.87398 0.13018 0.5051 0.0
C3599 C 0.85731 0.11145 0.49612 0.0
C3600 C 0.85061 0.11368 0.48067 0.0
C3601 C 0.83506 0.09591 0.47221 0.0
C3602 C 0.82595 0.07584 0.47915 0.0
C3603 C 0.83232 0.07351 0.49458 0.0
C3604 C 0.8479 0.09124 0.50307 0.0
C3605 C 0.86668 0.18465 0.55588 0.0
C3606 C 0.85836 0.17123 0.56925 0.0
C3607 C 0.87503 0.17902 0.54282 0.0
C3608 C 0.87515 0.15982 0.54283 0.0
C3609 C 0.86698 0.14642 0.55619 0.0
C3610 C 0.85883 0.15216 0.56937 0.0
C3611 C 0.88303 0.15353 0.52853 0.0
C3612 C 0.86844 0.13522 0.52 0.0
C3613 C 0.90409 0.16657 0.52245 0.0
C3614 C 0.92065 0.18527 0.53157 0.0
C3615 C 0.92543 0.18324 0.5477 0.0
C3616 C 0.94094 0.20088 0.55628 0.0
C3617 C 0.95192 0.22065 0.54885 0.0
C3618 C 0.94742 0.2228 0.53281 0.0
C3619 C 0.93189 0.2052 0.52417 0.0
H3620 H 0.96393 0.23429 0.55551 0.0
H3621 H 0.81391 0.0621 0.47259 0.0
H3622 H 0.90049 0.76028 0.44689 0.0
H3623 H 0.89162 0.74278 0.4731 0.0
H3624 H 0.87281 0.78703 0.49041 0.0
H3625 H 0.88163 0.80465 0.46412 0.0
H3626 H 0.89845 0.77757 0.51309 0.0
H3627 H 0.83455 0.74253 0.47973 0.0
H3628 H 0.81424 0.72468 0.45503 0.0
H3629 H 0.83065 0.67591 0.46118 0.0
H3630 H 0.85136 0.69367 0.48579 0.0
H3631 H 0.83668 0.71651 0.58067 0.0
H3632 H 0.85062 0.73864 0.55667 0.0
H3633 H 0.85853 0.68997 0.53338 0.0
H3634 H 0.84456 0.66781 0.55725 0.0
H3635 H 0.83859 0.70296 0.51391 0.0
H3636 H 0.90187 0.73661 0.54706 0.0
H3637 H 0.92328 0.75412 0.57144 0.0
H3638 H 0.90985 0.80494 0.56566 0.0
H3639 H 0.88798 0.78752 0.54141 0.0
C3640 C 0.89476 0.76649 0.45635 0.0
C3641 C 0.89171 0.78382 0.45344 0.0
C3642 C 0.88963 0.75643 0.47129 0.0
C3643 C 0.88149 0.76358 0.48367 0.0
C3644 C 0.87911 0.78131 0.48102 0.0
C3645 C 0.884 0.79124 0.46598 0.0
C3646 C 0.87427 0.75166 0.49898 0.0
C3647 C 0.88518 0.76135 0.51337 0.0
C3648 C 0.85729 0.73036 0.49922 0.0
C3649 C 0.84468 0.71955 0.48451 0.0
C3650 C 0.83398 0.7281 0.47574 0.0
C3651 C 0.82237 0.71798 0.46177 0.0
C3652 C 0.8212 0.6992 0.45652 0.0
C3653 C 0.83159 0.69047 0.46525 0.0
C3654 C 0.84325 0.70055 0.47922 0.0
C3655 C 0.84172 0.71068 0.57052 0.0
C3656 C 0.83939 0.69034 0.57084 0.0
C3657 C 0.84968 0.72335 0.5568 0.0
C3658 C 0.8557 0.71602 0.54319 0.0
C3659 C 0.85388 0.69593 0.54366 0.0
C3660 C 0.84585 0.68326 0.55732 0.0
C3661 C 0.86287 0.72871 0.52815 0.0
C3662 C 0.85187 0.71918 0.51375 0.0
C3663 C 0.8799 0.75007 0.52793 0.0
C3664 C 0.89308 0.76063 0.5425 0.0
C3665 C 0.90331 0.75143 0.55106 0.0
C3666 C 0.91557 0.76135 0.56485 0.0
C3667 C 0.9179 0.78062 0.57011 0.0
C3668 C 0.908 0.79001 0.56158 0.0
C3669 C 0.89568 0.78011 0.54781 0.0
H3670 H 0.92742 0.78828 0.58078 0.0
H3671 H 0.8122 0.69138 0.4457 0.0
loop_
_geom_bond_atom_site_label_1
_geom_bond_atom_site_label_2
_geom_bond_distance
_geom_bond_site_symmetry_2
_ccdc_geom_bond_type
H0 C5 0.930 . S
H1 C8 0.930 . S
H2 C10 0.930 . S
H3 C4 1.016 . S
C4 H3 1.016 . S
C4 N11 1.286 . S
C5 H0 0.930 . S
C5 C6 1.397 . S
C5 C7 1.361 . S
C6 C5 1.397 . S
C6 C10 1.390 . S
C7 C5 1.361 . S
C7 C8 1.393 . S
C7 N11 1.413 . S
C8 H1 0.930 . S
C8 C7 1.393 . S
C8 C9 1.399 . S
C9 C8 1.399 . S
C9 C10 1.381 . S
C10 H2 0.930 . S
C10 C6 1.390 . S
C10 C9 1.381 . S
N11 C4 1.286 . S
N11 C7 1.413 . S
H12 C17 0.930 . S
H13 C20 0.930 . S
H14 C22 0.930 . S
H15 C16 1.016 . S
C16 H15 1.016 . S
C16 N23 1.286 . S
C17 H12 0.930 . S
C17 C18 1.397 . S
C17 C19 1.361 . S
C18 C17 1.397 . S
C18 C22 1.390 . S
C19 C17 1.361 . S
C19 C20 1.393 . S
C19 N23 1.413 . S
C20 H13 0.930 . S
C20 C19 1.393 . S
C20 C21 1.399 . S
C21 C20 1.399 . S
C21 C22 1.381 . S
C22 H14 0.930 . S
C22 C18 1.390 . S
C22 C21 1.381 . S
N23 C16 1.286 . S
N23 C19 1.413 . S
H24 C29 0.930 . S
H25 C32 0.930 . S
H26 C34 0.930 . S
H27 C28 1.016 . S
C28 H27 1.016 . S
C28 N35 1.286 . S
C29 H24 0.930 . S
C29 C30 1.397 . S
C29 C31 1.361 . S
C30 C29 1.397 . S
C30 C34 1.390 . S
C31 C29 1.361 . S
C31 C32 1.393 . S
C31 N35 1.413 . S
C32 H25 0.930 . S
C32 C31 1.393 . S
C32 C33 1.399 . S
C33 C32 1.399 . S
C33 C34 1.381 . S
C34 H26 0.930 . S
C34 C30 1.390 . S
C34 C33 1.381 . S
N35 C28 1.286 . S
N35 C31 1.413 . S
H36 C41 0.930 . S
H37 C44 0.930 . S
H38 C46 0.930 . S
H39 C40 1.016 . S
C40 H39 1.016 . S
C40 N47 1.286 . S
C41 H36 0.930 . S
C41 C42 1.397 . S
C41 C43 1.361 . S
C42 C41 1.397 . S
C42 C46 1.390 . S
C43 C41 1.361 . S
C43 C44 1.393 . S
C43 N47 1.413 . S
C44 H37 0.930 . S
C44 C43 1.393 . S
C44 C45 1.399 . S
C45 C44 1.399 . S
C45 C46 1.381 . S
C46 H38 0.930 . S
C46 C42 1.390 . S
C46 C45 1.381 . S
N47 C40 1.286 . S
N47 C43 1.413 . S
H48 C53 0.930 . S
H49 C56 0.930 . S
H50 C58 0.930 . S
H51 C52 1.016 . S
C52 H51 1.016 . S
C52 N59 1.286 . S
C53 H48 0.930 . S
C53 C54 1.397 . S
C53 C55 1.361 . S
C54 C53 1.397 . S
C54 C58 1.390 . S
C55 C53 1.361 . S
C55 C56 1.393 . S
C55 N59 1.413 . S
C56 H49 0.930 . S
C56 C55 1.393 . S
C56 C57 1.399 . S
C57 C56 1.399 . S
C57 C58 1.381 . S
C58 H50 0.930 . S
C58 C54 1.390 . S
C58 C57 1.381 . S
N59 C52 1.286 . S
N59 C55 1.413 . S
H60 C65 0.930 . S
H61 C68 0.930 . S
H62 C70 0.930 . S
H63 C64 1.016 . S
C64 H63 1.016 . S
C64 N71 1.286 . S
C65 H60 0.930 . S
C65 C66 1.397 . S
C65 C67 1.361 . S
C66 C65 1.397 . S
C66 C70 1.390 . S
C67 C65 1.361 . S
C67 C68 1.393 . S
C67 N71 1.413 . S
C68 H61 0.930 . S
C68 C67 1.393 . S
C68 C69 1.399 . S
C69 C68 1.399 . S
C69 C70 1.381 . S
C70 H62 0.930 . S
C70 C66 1.390 . S
C70 C69 1.381 . S
N71 C64 1.286 . S
N71 C67 1.413 . S
H72 C77 0.930 . S
H73 C80 0.930 . S
H74 C82 0.930 . S
H75 C76 1.016 . S
C76 H75 1.016 . S
C76 N83 1.286 . S
C77 H72 0.930 . S
C77 C78 1.397 . S
C77 C79 1.361 . S
C78 C77 1.397 . S
C78 C82 1.390 . S
C79 C77 1.361 . S
C79 C80 1.393 . S
C79 N83 1.413 . S
C80 H73 0.930 . S
C80 C79 1.393 . S
C80 C81 1.399 . S
C81 C80 1.399 . S
C81 C82 1.381 . S
C82 H74 0.930 . S
C82 C78 1.390 . S
C82 C81 1.381 . S
N83 C76 1.286 . S
N83 C79 1.413 . S
H84 C89 0.930 . S
H85 C92 0.930 . S
H86 C94 0.930 . S
H87 C88 1.016 . S
C88 H87 1.016 . S
C88 N95 1.286 . S
C89 H84 0.930 . S
C89 C90 1.397 . S
C89 C91 1.361 . S
C90 C89 1.397 . S
C90 C94 1.390 . S
C91 C89 1.361 . S
C91 C92 1.393 . S
C91 N95 1.413 . S
C92 H85 0.930 . S
C92 C91 1.393 . S
C92 C93 1.399 . S
C93 C92 1.399 . S
C93 C94 1.381 . S
C94 H86 0.930 . S
C94 C90 1.390 . S
C94 C93 1.381 . S
N95 C88 1.286 . S
N95 C91 1.413 . S
H96 C101 0.930 . S
H97 C104 0.930 . S
H98 C106 0.930 . S
H99 C100 1.016 . S
C100 H99 1.016 . S
C100 N107 1.286 . S
C101 H96 0.930 . S
C101 C102 1.397 . S
C101 C103 1.361 . S
C102 C101 1.397 . S
C102 C106 1.390 . S
C103 C101 1.361 . S
C103 C104 1.393 . S
C103 N107 1.413 . S
C104 H97 0.930 . S
C104 C103 1.393 . S
C104 C105 1.399 . S
C105 C104 1.399 . S
C105 C106 1.381 . S
C106 H98 0.930 . S
C106 C102 1.390 . S
C106 C105 1.381 . S
N107 C100 1.286 . S
N107 C103 1.413 . S
H108 C113 0.930 . S
H109 C116 0.930 . S
H110 C118 0.930 . S
H111 C112 1.016 . S
C112 H111 1.016 . S
C112 N119 1.286 . S
C113 H108 0.930 . S
C113 C114 1.397 . S
C113 C115 1.361 . S
C114 C113 1.397 . S
C114 C118 1.390 . S
C115 C113 1.361 . S
C115 C116 1.393 . S
C115 N119 1.413 . S
C116 H109 0.930 . S
C116 C115 1.393 . S
C116 C117 1.399 . S
C117 C116 1.399 . S
C117 C118 1.381 . S
C118 H110 0.930 . S
C118 C114 1.390 . S
C118 C117 1.381 . S
N119 C112 1.286 . S
N119 C115 1.413 . S
H120 C125 0.930 . S
H121 C128 0.930 . S
H122 C130 0.930 . S
H123 C124 1.016 . S
C124 H123 1.016 . S
C124 N131 1.286 . S
C125 H120 0.930 . S
C125 C126 1.397 . S
C125 C127 1.361 . S
C126 C125 1.397 . S
C126 C130 1.390 . S
C127 C125 1.361 . S
C127 C128 1.393 . S
C127 N131 1.413 . S
C128 H121 0.930 . S
C128 C127 1.393 . S
C128 C129 1.399 . S
C129 C128 1.399 . S
C129 C130 1.381 . S
C130 H122 0.930 . S
C130 C126 1.390 . S
C130 C129 1.381 . S
N131 C124 1.286 . S
N131 C127 1.413 . S
H132 C137 0.930 . S
H133 C140 0.930 . S
H134 C142 0.930 . S
H135 C136 1.016 . S
C136 H135 1.016 . S
C136 N143 1.286 . S
C137 H132 0.930 . S
C137 C138 1.397 . S
C137 C139 1.361 . S
C138 C137 1.397 . S
C138 C142 1.390 . S
C139 C137 1.361 . S
C139 C140 1.393 . S
C139 N143 1.413 . S
C140 H133 0.930 . S
C140 C139 1.393 . S
C140 C141 1.399 . S
C141 C140 1.399 . S
C141 C142 1.381 . S
C142 H134 0.930 . S
C142 C138 1.390 . S
C142 C141 1.381 . S
N143 C136 1.286 . S
N143 C139 1.413 . S
H144 C149 0.930 . S
H145 C152 0.930 . S
H146 C154 0.930 . S
H147 C148 1.016 . S
C148 H147 1.016 . S
C148 N155 1.286 . S
C149 H144 0.930 . S
C149 C150 1.397 . S
C149 C151 1.361 . S
C150 C149 1.397 . S
C150 C154 1.390 . S
C151 C149 1.361 . S
C151 C152 1.393 . S
C151 N155 1.413 . S
C152 H145 0.930 . S
C152 C151 1.393 . S
C152 C153 1.399 . S
C153 C152 1.399 . S
C153 C154 1.381 . S
C154 H146 0.930 . S
C154 C150 1.390 . S
C154 C153 1.381 . S
N155 C148 1.286 . S
N155 C151 1.413 . S
H156 C161 0.930 . S
H157 C164 0.930 . S
H158 C166 0.930 . S
H159 C160 1.016 . S
C160 H159 1.016 . S
C160 N167 1.286 . S
C161 H156 0.930 . S
C161 C162 1.397 . S
C161 C163 1.361 . S
C162 C161 1.397 . S
C162 C166 1.390 . S
C163 C161 1.361 . S
C163 C164 1.393 . S
C163 N167 1.413 . S
C164 H157 0.930 . S
C164 C163 1.393 . S
C164 C165 1.399 . S
C165 C164 1.399 . S
C165 C166 1.381 . S
C166 H158 0.930 . S
C166 C162 1.390 . S
C166 C165 1.381 . S
N167 C160 1.286 . S
N167 C163 1.413 . S
H168 C173 0.930 . S
H169 C176 0.930 . S
H170 C178 0.930 . S
H171 C172 1.016 . S
C172 H171 1.016 . S
C172 N179 1.286 . S
C173 H168 0.930 . S
C173 C174 1.397 . S
C173 C175 1.361 . S
C174 C173 1.397 . S
C174 C178 1.390 . S
C175 C173 1.361 . S
C175 C176 1.393 . S
C175 N179 1.413 . S
C176 H169 0.930 . S
C176 C175 1.393 . S
C176 C177 1.399 . S
C177 C176 1.399 . S
C177 C178 1.381 . S
C178 H170 0.930 . S
C178 C174 1.390 . S
C178 C177 1.381 . S
N179 C172 1.286 . S
N179 C175 1.413 . S
H180 C185 0.930 . S
H181 C188 0.930 . S
H182 C190 0.930 . S
H183 C184 1.016 . S
C184 H183 1.016 . S
C184 N191 1.286 . S
C185 H180 0.930 . S
C185 C186 1.397 . S
C185 C187 1.361 . S
C186 C185 1.397 . S
C186 C190 1.390 . S
C187 C185 1.361 . S
C187 C188 1.393 . S
C187 N191 1.413 . S
C188 H181 0.930 . S
C188 C187 1.393 . S
C188 C189 1.399 . S
C189 C188 1.399 . S
C189 C190 1.381 . S
C190 H182 0.930 . S
C190 C186 1.390 . S
C190 C189 1.381 . S
N191 C184 1.286 . S
N191 C187 1.413 . S
H192 C197 0.930 . S
H193 C200 0.930 . S
H194 C202 0.930 . S
H195 C196 1.016 . S
C196 H195 1.016 . S
C196 N203 1.286 . S
C197 H192 0.930 . S
C197 C198 1.397 . S
C197 C199 1.361 . S
C198 C197 1.397 . S
C198 C202 1.390 . S
C199 C197 1.361 . S
C199 C200 1.393 . S
C199 N203 1.413 . S
C200 H193 0.930 . S
C200 C199 1.393 . S
C200 C201 1.399 . S
C201 C200 1.399 . S
C201 C202 1.381 . S
C202 H194 0.930 . S
C202 C198 1.390 . S
C202 C201 1.381 . S
N203 C196 1.286 . S
N203 C199 1.413 . S
H204 C209 0.930 . S
H205 C212 0.930 . S
H206 C214 0.930 . S
H207 C208 1.016 . S
C208 H207 1.016 . S
C208 N215 1.286 . S
C209 H204 0.930 . S
C209 C210 1.397 . S
C209 C211 1.361 . S
C210 C209 1.397 . S
C210 C214 1.390 . S
C211 C209 1.361 . S
C211 C212 1.393 . S
C211 N215 1.413 . S
C212 H205 0.930 . S
C212 C211 1.393 . S
C212 C213 1.399 . S
C213 C212 1.399 . S
C213 C214 1.381 . S
C214 H206 0.930 . S
C214 C210 1.390 . S
C214 C213 1.381 . S
N215 C208 1.286 . S
N215 C211 1.413 . S
Gd216 N247 2.661 . S
Gd216 N253 2.601 . S
Gd216 O260 2.545 . S
Gd216 O261 2.606 1_545 S
Gd216 O263 2.429 . S
Gd216 O264 2.545 1_545 S
Gd216 O265 2.389 1_545 S
Gd216 O267 2.362 . S
Gd216 O268 2.324 1_545 S
Gd216 C275 2.828 . S
Gd217 N226 2.661 . S
Gd217 N230 2.601 . S
Gd217 O261 2.362 1_556 S
Gd217 O262 2.324 1_565 S
Gd217 O266 2.545 . S
Gd217 O267 2.606 1_566 S
Gd217 O269 2.429 1_556 S
Gd217 O270 2.545 1_565 S
Gd217 O271 2.412 1_565 S
Gd217 C284 2.828 1_565 S
C218 C221 1.417 . S
C218 C223 1.431 . S
C218 C224 1.412 . S
C219 C222 1.437 . S
C219 C223 1.317 . S
C219 H238 0.929 . S
C220 C221 1.426 . S
C220 C222 1.413 . S
C220 N230 1.359 . S
C221 C218 1.417 . S
C221 C220 1.426 . S
C221 N226 1.350 . S
C222 C219 1.437 . S
C222 C220 1.413 . S
C222 C232 1.391 . S
C223 C218 1.431 . S
C223 C219 1.317 . S
C223 H234 0.930 . S
C224 C218 1.412 . S
C224 C225 1.355 . S
C224 H236 0.930 . S
C225 C224 1.355 . S
C225 C227 1.402 . S
C225 H237 0.930 . S
N226 Gd217 2.661 . S
N226 C221 1.350 . S
N226 C227 1.307 . S
C227 C225 1.402 . S
C227 N226 1.307 . S
C227 H228 0.932 1_565 S
H228 C227 0.932 1_545 S
C229 N230 1.334 . S
C229 C231 1.394 . S
C229 H233 0.930 . S
N230 Gd217 2.601 . S
N230 C220 1.359 . S
N230 C229 1.334 . S
C231 C229 1.394 . S
C231 C232 1.359 . S
C231 H243 0.930 . S
C232 C222 1.391 . S
C232 C231 1.359 . S
C232 H244 0.929 . S
H233 C229 0.930 . S
H234 C223 0.930 . S
H235 C252 0.930 . S
H236 C224 0.930 . S
H237 C225 0.930 . S
H238 C219 0.929 . S
H239 C257 0.930 . S
H240 C248 0.930 . S
H241 C249 0.930 . S
H242 C273 0.929 . S
H243 C231 0.930 . S
H244 C232 0.929 . S
H245 C274 0.930 . S
H246 C255 0.930 . S
N247 Gd216 2.661 . S
N247 C251 1.350 . S
N247 C252 1.307 . S
C248 H240 0.930 . S
C248 C249 1.355 . S
C248 C250 1.412 . S
C249 H241 0.930 . S
C249 C248 1.355 . S
C249 C252 1.402 . S
C250 C248 1.412 . S
C250 C251 1.417 . S
C250 C274 1.431 . S
C251 N247 1.350 . S
C251 C250 1.417 . S
C251 C254 1.426 . S
C252 H235 0.930 . S
C252 N247 1.307 . S
C252 C249 1.402 . S
N253 Gd216 2.601 . S
N253 C254 1.359 . S
N253 C257 1.334 . S
C254 C251 1.426 . S
C254 N253 1.359 . S
C254 C258 1.413 . S
C255 H246 0.930 . S
C255 C256 1.359 . S
C255 C257 1.394 . S
C256 C255 1.359 . S
C256 C258 1.391 . S
C256 H259 0.929 . S
C257 H239 0.930 . S
C257 N253 1.334 . S
C257 C255 1.394 . S
C258 C254 1.413 . S
C258 C256 1.391 . S
C258 C273 1.437 . S
H259 C256 0.929 . S
O260 Gd216 2.545 . S
O260 C275 1.258 . S
O261 Gd216 2.606 1_565 S
O261 Gd217 2.362 1_554 S
O261 C272 1.284 . S
O262 Gd217 2.324 1_545 S
O262 C282 1.254 1_556 S
O263 Gd216 2.429 . S
O263 C282 1.268 . S
O264 Gd216 2.545 1_565 S
O264 C272 1.250 . S
O265 Gd216 2.389 1_565 S
O265 C275 1.214 1_565 S
O266 Gd217 2.545 . S
O266 C284 1.258 1_565 S
O267 Gd216 2.362 . S
O267 Gd217 2.606 1_544 S
O267 C283 1.284 1_554 S
O268 Gd216 2.324 1_565 S
O268 C291 1.254 . S
O269 Gd217 2.429 1_554 S
O269 C291 1.268 . S
O270 Gd217 2.545 1_545 S
O270 C283 1.250 . S
O271 Gd217 2.412 1_545 S
O271 C284 1.252 . S
C272 O261 1.284 . S
C272 O264 1.250 . S
C273 H242 0.929 . S
C273 C258 1.437 . S
C273 C274 1.317 . S
C274 H245 0.930 . S
C274 C250 1.431 . S
C274 C273 1.317 . S
C275 Gd216 2.828 . S
C275 O260 1.258 . S
C275 O265 1.214 1_545 S
C275 C276 1.497 . S
C276 C275 1.497 . S
C276 C277 1.395 . S
C276 C278 1.380 1_545 S
C277 C276 1.395 . S
C277 C280 1.398 . S
C277 H292 0.930 . S
C278 C276 1.380 1_565 S
C278 C279 1.391 . S
C278 H293 0.930 . S
C279 C278 1.391 . S
C279 C281 1.387 . S
C280 C277 1.398 . S
C280 C281 1.380 1_545 S
C280 H294 0.930 . S
C281 C279 1.387 . S
C281 C280 1.380 1_565 S
C281 H295 0.930 . S
C282 O262 1.254 1_554 S
C282 O263 1.268 . S
C283 O267 1.284 1_556 S
C283 O270 1.250 . S
C284 Gd217 2.828 1_545 S
C284 O266 1.258 1_545 S
C284 O271 1.252 . S
C284 C285 1.497 . S
C285 C284 1.497 . S
C285 C286 1.395 1_545 S
C285 C287 1.380 . S
C286 C285 1.395 1_565 S
C286 C289 1.401 . S
C286 H296 0.930 . S
C287 C285 1.380 . S
C287 C288 1.391 . S
C287 H297 0.930 . S
C288 C287 1.391 . S
C288 C290 1.387 . S
C289 C286 1.401 . S
C289 C290 1.365 1_565 S
C289 H298 0.943 . S
C290 C288 1.387 . S
C290 C289 1.365 1_545 S
C290 H299 0.930 . S
C291 O268 1.254 . S
C291 O269 1.268 . S
H292 C277 0.930 . S
H293 C278 0.930 . S
H294 C280 0.930 . S
H295 C281 0.930 . S
H296 C286 0.930 . S
H297 C287 0.930 . S
H298 C289 0.943 . S
H299 C290 0.930 . S
Gd300 N331 2.661 . S
Gd300 N337 2.601 . S
Gd300 O344 2.545 . S
Gd300 O345 2.606 1_655 S
Gd300 O347 2.429 . S
Gd300 O348 2.545 1_655 S
Gd300 O349 2.412 1_655 S
Gd300 O351 2.362 . S
Gd300 O352 2.324 1_655 S
Gd300 C359 2.828 1_655 S
Gd301 N310 2.661 . S
Gd301 N314 2.601 . S
Gd301 O345 2.362 1_556 S
Gd301 O346 2.324 1_455 S
Gd301 O350 2.545 . S
Gd301 O351 2.606 1_456 S
Gd301 O353 2.429 1_556 S
Gd301 O354 2.545 1_455 S
Gd301 O355 2.412 . S
Gd301 C368 2.828 . S
C302 C305 1.417 . S
C302 C307 1.431 . S
C302 C308 1.412 . S
C303 C306 1.437 . S
C303 C307 1.317 . S
C303 H322 0.929 . S
C304 C305 1.426 . S
C304 C306 1.413 . S
C304 N314 1.359 . S
C305 C302 1.417 . S
C305 C304 1.426 . S
C305 N310 1.350 . S
C306 C303 1.437 . S
C306 C304 1.413 . S
C306 C316 1.391 . S
C307 C302 1.431 . S
C307 C303 1.317 . S
C307 H318 0.930 . S
C308 C302 1.412 . S
C308 C309 1.355 . S
C308 H320 0.930 . S
C309 C308 1.355 . S
C309 C311 1.402 . S
C309 H321 0.930 . S
N310 Gd301 2.661 . S
N310 C305 1.350 . S
N310 C311 1.307 . S
C311 C309 1.402 . S
C311 N310 1.307 . S
C311 H312 0.930 . S
H312 C311 0.930 . S
C313 N314 1.334 . S
C313 C315 1.394 . S
C313 H317 0.930 . S
N314 Gd301 2.601 . S
N314 C304 1.359 . S
N314 C313 1.334 . S
C315 C313 1.394 . S
C315 C316 1.359 . S
C315 H327 0.930 . S
C316 C306 1.391 . S
C316 C315 1.359 . S
C316 H328 0.929 . S
H317 C313 0.930 . S
H318 C307 0.930 . S
H319 C336 0.912 1_455 S
H320 C308 0.930 . S
H321 C309 0.930 . S
H322 C303 0.929 . S
H323 C341 0.930 . S
H324 C332 0.930 . S
H325 C333 0.930 . S
H326 C357 0.929 . S
H327 C315 0.930 . S
H328 C316 0.929 . S
H329 C358 0.930 . S
H330 C339 0.930 . S
N331 Gd300 2.661 . S
N331 C335 1.350 . S
N331 C336 1.307 . S
C332 H324 0.930 . S
C332 C333 1.355 . S
C332 C334 1.412 . S
C333 H325 0.930 . S
C333 C332 1.355 . S
C333 C336 1.402 . S
C334 C332 1.412 . S
C334 C335 1.417 . S
C334 C358 1.431 . S
C335 N331 1.350 . S
C335 C334 1.417 . S
C335 C338 1.426 . S
C336 H319 0.912 1_655 S
C336 N331 1.307 . S
C336 C333 1.402 . S
N337 Gd300 2.601 . S
N337 C338 1.359 . S
N337 C341 1.334 . S
C338 C335 1.426 . S
C338 N337 1.359 . S
C338 C342 1.413 . S
C339 H330 0.930 . S
C339 C340 1.359 . S
C339 C341 1.394 . S
C340 C339 1.359 . S
C340 C342 1.391 . S
C340 H343 0.929 . S
C341 H323 0.930 . S
C341 N337 1.334 . S
C341 C339 1.394 . S
C342 C338 1.413 . S
C342 C340 1.391 . S
C342 C357 1.437 . S
H343 C340 0.929 . S
O344 Gd300 2.545 . S
O344 C359 1.258 1_655 S
O345 Gd300 2.606 1_455 S
O345 Gd301 2.362 1_554 S
O345 C356 1.284 . S
O346 Gd301 2.324 1_655 S
O346 C366 1.254 1_556 S
O347 Gd300 2.429 . S
O347 C366 1.268 . S
O348 Gd300 2.545 1_455 S
O348 C356 1.250 . S
O349 Gd300 2.412 1_455 S
O349 C359 1.252 . S
O350 Gd301 2.545 . S
O350 C368 1.258 . S
O351 Gd300 2.362 . S
O351 Gd301 2.606 1_654 S
O351 C367 1.284 1_554 S
O352 Gd300 2.324 1_455 S
O352 C375 1.254 . S
O353 Gd301 2.429 1_554 S
O353 C375 1.268 . S
O354 Gd301 2.545 1_655 S
O354 C367 1.250 . S
O355 Gd301 2.412 . S
O355 C368 1.252 . S
C356 O345 1.284 . S
C356 O348 1.250 . S
C357 H326 0.929 . S
C357 C342 1.437 . S
C357 C358 1.317 . S
C358 H329 0.930 . S
C358 C334 1.431 . S
C358 C357 1.317 . S
C359 Gd300 2.828 1_455 S
C359 O344 1.258 1_455 S
C359 O349 1.252 . S
C359 C360 1.497 . S
C360 C359 1.497 . S
C360 C361 1.395 1_455 S
C360 C362 1.380 . S
C361 C360 1.395 1_655 S
C361 C364 1.398 . S
C361 H376 0.930 . S
C362 C360 1.380 . S
C362 C363 1.391 . S
C362 H377 0.930 . S
C363 C362 1.391 . S
C363 C365 1.387 . S
C364 C361 1.398 . S
C364 C365 1.380 1_655 S
C364 H378 0.930 . S
C365 C363 1.387 . S
C365 C364 1.380 1_455 S
C365 H379 0.930 . S
C366 O346 1.254 1_554 S
C366 O347 1.268 . S
C367 O351 1.284 1_556 S
C367 O354 1.250 . S
C368 Gd301 2.828 . S
C368 O350 1.258 . S
C368 O355 1.252 . S
C368 C369 1.497 . S
C369 C368 1.497 . S
C369 C370 1.395 . S
C369 C371 1.380 1_455 S
C370 C369 1.395 . S
C370 C373 1.398 . S
C370 H380 0.930 . S
C371 C369 1.380 1_655 S
C371 C372 1.391 . S
C371 H381 0.930 . S
C372 C371 1.391 . S
C372 C374 1.387 . S
C373 C370 1.398 . S
C373 C374 1.380 1_455 S
C373 H382 0.930 . S
C374 C372 1.387 . S
C374 C373 1.380 1_655 S
C374 H383 0.930 . S
C375 O352 1.254 . S
C375 O353 1.268 . S
H376 C361 0.930 . S
H377 C362 0.930 . S
H378 C364 0.930 . S
H379 C365 0.930 . S
H380 C370 0.930 . S
H381 C371 0.930 . S
H382 C373 0.930 . S
H383 C374 0.930 . S
Gd384 N415 2.661 . S
Gd384 N421 2.601 . S
Gd384 O428 2.545 . S
Gd384 O429 2.606 1_556 S
Gd384 O431 2.429 1_556 S
Gd384 O432 2.545 . S
Gd384 O433 2.412 . S
Gd384 O435 2.362 1_556 S
Gd384 O436 2.324 . S
Gd384 C443 2.828 . S
Gd385 N394 2.661 . S
Gd385 N398 2.601 . S
Gd385 O429 2.362 . S
Gd385 O430 2.324 . S
Gd385 O434 2.545 . S
Gd385 O435 2.606 . S
Gd385 O437 2.429 . S
Gd385 O438 2.545 . S
Gd385 O439 2.412 . S
Gd385 C452 2.828 . S
C386 C389 1.417 . S
C386 C391 1.431 . S
C386 C392 1.412 . S
C387 C390 1.437 . S
C387 C391 1.317 . S
C387 H406 0.929 . S
C388 C389 1.426 . S
C388 C390 1.413 . S
C388 N398 1.359 . S
C389 C386 1.417 . S
C389 C388 1.426 . S
C389 N394 1.350 . S
C390 C387 1.437 . S
C390 C388 1.413 . S
C390 C400 1.391 . S
C391 C386 1.431 . S
C391 C387 1.317 . S
C391 H402 0.930 . S
C392 C386 1.412 . S
C392 C393 1.355 . S
C392 H404 0.930 . S
C393 C392 1.355 . S
C393 C395 1.402 . S
C393 H405 0.930 . S
N394 Gd385 2.661 . S
N394 C389 1.350 . S
N394 C395 1.307 . S
C395 C393 1.402 . S
C395 N394 1.307 . S
C395 H396 0.930 . S
H396 C395 0.930 . S
C397 N398 1.334 . S
C397 C399 1.394 . S
C397 H401 0.930 . S
N398 Gd385 2.601 . S
N398 C388 1.359 . S
N398 C397 1.334 . S
C399 C397 1.394 . S
C399 C400 1.359 . S
C399 H411 0.930 . S
C400 C390 1.391 . S
C400 C399 1.359 . S
C400 H412 0.929 . S
H401 C397 0.930 . S
H402 C391 0.930 . S
H403 C420 0.930 . S
H404 C392 0.930 . S
H405 C393 0.930 . S
H406 C387 0.929 . S
H407 C425 0.930 . S
H408 C416 0.930 . S
H409 C417 0.930 . S
H410 C441 0.929 . S
H411 C399 0.930 . S
H412 C400 0.929 . S
H413 C442 0.930 . S
H414 C423 0.930 . S
N415 Gd384 2.661 . S
N415 C419 1.350 . S
N415 C420 1.307 . S
C416 H408 0.930 . S
C416 C417 1.355 . S
C416 C418 1.412 . S
C417 H409 0.930 . S
C417 C416 1.355 . S
C417 C420 1.402 . S
C418 C416 1.412 . S
C418 C419 1.417 . S
C418 C442 1.431 . S
C419 N415 1.350 . S
C419 C418 1.417 . S
C419 C422 1.426 . S
C420 H403 0.930 . S
C420 N415 1.307 . S
C420 C417 1.402 . S
N421 Gd384 2.601 . S
N421 C422 1.359 . S
N421 C425 1.334 . S
C422 C419 1.426 . S
C422 N421 1.359 . S
C422 C426 1.413 . S
C423 H414 0.930 . S
C423 C424 1.359 . S
C423 C425 1.394 . S
C424 C423 1.359 . S
C424 C426 1.391 . S
C424 H427 0.929 . S
C425 H407 0.930 . S
C425 N421 1.334 . S
C425 C423 1.394 . S
C426 C422 1.413 . S
C426 C424 1.391 . S
C426 C441 1.437 . S
H427 C424 0.929 . S
O428 Gd384 2.545 . S
O428 C443 1.258 . S
O429 Gd384 2.606 1_554 S
O429 Gd385 2.362 . S
O429 C440 1.284 1_554 S
O430 Gd385 2.324 . S
O430 C450 1.254 . S
O431 Gd384 2.429 1_554 S
O431 C450 1.268 . S
O432 Gd384 2.545 . S
O432 C440 1.250 . S
O433 Gd384 2.412 . S
O433 C443 1.252 . S
O434 Gd385 2.545 . S
O434 C452 1.258 . S
O435 Gd384 2.362 1_554 S
O435 Gd385 2.606 . S
O435 C451 1.284 . S
O436 Gd384 2.324 . S
O436 C459 1.254 1_556 S
O437 Gd385 2.429 . S
O437 C459 1.268 . S
O438 Gd385 2.545 . S
O438 C451 1.250 . S
O439 Gd385 2.412 . S
O439 C452 1.252 . S
C440 O429 1.284 1_556 S
C440 O432 1.250 . S
C441 H410 0.929 . S
C441 C426 1.437 . S
C441 C442 1.317 . S
C442 H413 0.930 . S
C442 C418 1.431 . S
C442 C441 1.317 . S
C443 Gd384 2.828 . S
C443 O428 1.258 . S
C443 O433 1.252 . S
C443 C444 1.497 . S
C444 C443 1.497 . S
C444 C445 1.395 . S
C444 C446 1.380 . S
C445 C444 1.395 . S
C445 C448 1.398 . S
C445 H460 0.930 . S
C446 C444 1.380 . S
C446 C447 1.391 . S
C446 H461 0.930 . S
C447 C446 1.391 . S
C447 C449 1.387 . S
C448 C445 1.398 . S
C448 C449 1.380 . S
C448 H462 0.930 . S
C449 C447 1.387 . S
C449 C448 1.380 . S
C449 H463 0.930 . S
C450 O430 1.254 . S
C450 O431 1.268 . S
C451 O435 1.284 . S
C451 O438 1.250 . S
C452 Gd385 2.828 . S
C452 O434 1.258 . S
C452 O439 1.252 . S
C452 C453 1.497 . S
C453 C452 1.497 . S
C453 C454 1.395 . S
C453 C455 1.380 . S
C454 C453 1.395 . S
C454 C457 1.398 . S
C454 H464 0.930 . S
C455 C453 1.380 . S
C455 C456 1.391 . S
C455 H465 0.930 . S
C456 C455 1.391 . S
C456 C458 1.387 . S
C457 C454 1.398 . S
C457 C458 1.380 . S
C457 H466 0.930 . S
C458 C456 1.387 . S
C458 C457 1.380 . S
C458 H467 0.930 . S
C459 O436 1.254 1_554 S
C459 O437 1.268 . S
H460 C445 0.930 . S
H461 C446 0.930 . S
H462 C448 0.930 . S
H463 C449 0.930 . S
H464 C454 0.930 . S
H465 C455 0.930 . S
H466 C457 0.930 . S
H467 C458 0.930 . S
Gd468 N499 2.661 . S
Gd468 N505 2.601 . S
Gd468 O512 2.545 . S
Gd468 O513 2.606 . S
Gd468 O515 2.429 . S
Gd468 O516 2.545 . S
Gd468 O517 2.412 . S
Gd468 O519 2.362 . S
Gd468 O520 2.324 . S
Gd468 C527 2.828 . S
Gd469 N478 2.661 . S
Gd469 N482 2.601 . S
Gd469 O513 2.362 . S
Gd469 O514 2.324 . S
Gd469 O518 2.545 . S
Gd469 O519 2.606 . S
Gd469 O521 2.429 . S
Gd469 O522 2.545 . S
Gd469 O523 2.412 . S
Gd469 C536 2.828 . S
C470 C473 1.417 . S
C470 C475 1.431 . S
C470 C476 1.412 . S
C471 C474 1.437 . S
C471 C475 1.317 . S
C471 H490 0.929 . S
C472 C473 1.426 . S
C472 C474 1.413 . S
C472 N482 1.359 . S
C473 C470 1.417 . S
C473 C472 1.426 . S
C473 N478 1.350 . S
C474 C471 1.437 . S
C474 C472 1.413 . S
C474 C484 1.391 . S
C475 C470 1.431 . S
C475 C471 1.317 . S
C475 H486 0.930 . S
C476 C470 1.412 . S
C476 C477 1.355 . S
C476 H488 0.930 . S
C477 C476 1.355 . S
C477 C479 1.402 . S
C477 H489 0.930 . S
N478 Gd469 2.661 . S
N478 C473 1.350 . S
N478 C479 1.307 . S
C479 C477 1.402 . S
C479 N478 1.307 . S
C479 H480 0.930 . S
H480 C479 0.930 . S
C481 N482 1.334 . S
C481 C483 1.394 . S
C481 H485 0.930 . S
N482 Gd469 2.601 . S
N482 C472 1.359 . S
N482 C481 1.334 . S
C483 C481 1.394 . S
C483 C484 1.359 . S
C483 H495 0.930 . S
C484 C474 1.391 . S
C484 C483 1.359 . S
C484 H496 0.929 . S
H485 C481 0.930 . S
H486 C475 0.930 . S
H487 C504 0.930 . S
H488 C476 0.930 . S
H489 C477 0.930 . S
H490 C471 0.929 . S
H491 C509 0.930 . S
H492 C500 0.930 . S
H493 C501 0.930 . S
H494 C525 0.929 . S
H495 C483 0.930 . S
H496 C484 0.929 . S
H497 C526 0.930 . S
H498 C507 0.930 . S
N499 Gd468 2.661 . S
N499 C503 1.350 . S
N499 C504 1.307 . S
C500 H492 0.930 . S
C500 C501 1.355 . S
C500 C502 1.412 . S
C501 H493 0.930 . S
C501 C500 1.355 . S
C501 C504 1.402 . S
C502 C500 1.412 . S
C502 C503 1.417 . S
C502 C526 1.431 . S
C503 N499 1.350 . S
C503 C502 1.417 . S
C503 C506 1.426 . S
C504 H487 0.930 . S
C504 N499 1.307 . S
C504 C501 1.402 . S
N505 Gd468 2.601 . S
N505 C506 1.359 . S
N505 C509 1.334 . S
C506 C503 1.426 . S
C506 N505 1.359 . S
C506 C510 1.413 . S
C507 H498 0.930 . S
C507 C508 1.359 . S
C507 C509 1.394 . S
C508 C507 1.359 . S
C508 C510 1.391 . S
C508 H511 0.929 . S
C509 H491 0.930 . S
C509 N505 1.334 . S
C509 C507 1.394 . S
C510 C506 1.413 . S
C510 C508 1.391 . S
C510 C525 1.437 . S
H511 C508 0.929 . S
O512 Gd468 2.545 . S
O512 C527 1.258 . S
O513 Gd468 2.606 . S
O513 Gd469 2.362 . S
O513 C524 1.284 . S
O514 Gd469 2.324 . S
O514 C534 1.254 . S
O515 Gd468 2.429 . S
O515 C534 1.268 . S
O516 Gd468 2.545 . S
O516 C524 1.250 . S
O517 Gd468 2.412 . S
O517 C527 1.252 . S
O518 Gd469 2.545 . S
O518 C536 1.258 . S
O519 Gd468 2.362 . S
O519 Gd469 2.606 . S
O519 C535 1.284 . S
O520 Gd468 2.324 . S
O520 C543 1.254 . S
O521 Gd469 2.429 . S
O521 C543 1.268 . S
O522 Gd469 2.545 . S
O522 C535 1.250 . S
O523 Gd469 2.412 . S
O523 C536 1.252 . S
C524 O513 1.284 . S
C524 O516 1.250 . S
C525 H494 0.929 . S
C525 C510 1.437 . S
C525 C526 1.317 . S
C526 H497 0.930 . S
C526 C502 1.431 . S
C526 C525 1.317 . S
C527 Gd468 2.828 . S
C527 O512 1.258 . S
C527 O517 1.252 . S
C527 C528 1.497 . S
C528 C527 1.497 . S
C528 C529 1.395 . S
C528 C530 1.380 . S
C529 C528 1.395 . S
C529 C532 1.398 . S
C529 H544 0.930 . S
C530 C528 1.380 . S
C530 C531 1.391 . S
C530 H545 0.930 . S
C531 C530 1.391 . S
C531 C533 1.387 . S
C532 C529 1.398 . S
C532 C533 1.380 . S
C532 H546 0.930 . S
C533 C531 1.387 . S
C533 C532 1.380 . S
C533 H547 0.930 . S
C534 O514 1.254 . S
C534 O515 1.268 . S
C535 O519 1.284 . S
C535 O522 1.250 . S
C536 Gd469 2.828 . S
C536 O518 1.258 . S
C536 O523 1.252 . S
C536 C537 1.497 . S
C537 C536 1.497 . S
C537 C538 1.395 . S
C537 C539 1.380 . S
C538 C537 1.395 . S
C538 C541 1.398 . S
C538 H548 0.930 . S
C539 C537 1.380 . S
C539 C540 1.391 . S
C539 H549 0.930 . S
C540 C539 1.391 . S
C540 C542 1.387 . S
C541 C538 1.398 . S
C541 C542 1.380 . S
C541 H550 0.930 . S
C542 C540 1.387 . S
C542 C541 1.380 . S
C542 H551 0.930 . S
C543 O520 1.254 . S
C543 O521 1.268 . S
H544 C529 0.930 . S
H545 C530 0.930 . S
H546 C532 0.930 . S
H547 C533 0.930 . S
H548 C538 0.930 . S
H549 C539 0.930 . S
H550 C541 0.930 . S
H551 C542 0.930 . S
Gd552 N583 2.661 . S
Gd552 N589 2.601 . S
Gd552 O596 2.545 . S
Gd552 O597 2.606 . S
Gd552 O599 2.429 . S
Gd552 O600 2.545 . S
Gd552 O601 2.412 . S
Gd552 O603 2.362 . S
Gd552 O604 2.324 . S
Gd552 C611 2.828 . S
Gd553 N562 2.661 . S
Gd553 N566 2.601 . S
Gd553 O597 2.362 . S
Gd553 O598 2.324 . S
Gd553 O602 2.545 . S
Gd553 O603 2.606 . S
Gd553 O605 2.429 . S
Gd553 O606 2.545 . S
Gd553 O607 2.412 . S
Gd553 C620 2.828 . S
C554 C557 1.417 . S
C554 C559 1.431 . S
C554 C560 1.412 . S
C555 C558 1.437 . S
C555 C559 1.317 . S
C555 H574 0.929 . S
C556 C557 1.426 . S
C556 C558 1.413 . S
C556 N566 1.359 . S
C557 C554 1.417 . S
C557 C556 1.426 . S
C557 N562 1.350 . S
C558 C555 1.437 . S
C558 C556 1.413 . S
C558 C568 1.391 . S
C559 C554 1.431 . S
C559 C555 1.317 . S
C559 H570 0.930 . S
C560 C554 1.412 . S
C560 C561 1.355 . S
C560 H572 0.930 . S
C561 C560 1.355 . S
C561 C563 1.402 . S
C561 H573 0.930 . S
N562 Gd553 2.661 . S
N562 C557 1.350 . S
N562 C563 1.307 . S
C563 C561 1.402 . S
C563 N562 1.307 . S
C563 H564 0.930 . S
H564 C563 0.930 . S
C565 N566 1.334 . S
C565 C567 1.394 . S
C565 H569 0.930 . S
N566 Gd553 2.601 . S
N566 C556 1.359 . S
N566 C565 1.334 . S
C567 C565 1.394 . S
C567 C568 1.359 . S
C567 H579 0.930 . S
C568 C558 1.391 . S
C568 C567 1.359 . S
C568 H580 0.929 . S
H569 C565 0.930 . S
H570 C559 0.930 . S
H571 C588 0.930 . S
H572 C560 0.930 . S
H573 C561 0.930 . S
H574 C555 0.929 . S
H575 C593 0.930 . S
H576 C584 0.930 . S
H577 C585 0.930 . S
H578 C609 0.929 . S
H579 C567 0.930 . S
H580 C568 0.929 . S
H581 C610 0.930 . S
H582 C591 0.930 . S
N583 Gd552 2.661 . S
N583 C587 1.350 . S
N583 C588 1.307 . S
C584 H576 0.930 . S
C584 C585 1.355 . S
C584 C586 1.412 . S
C585 H577 0.930 . S
C585 C584 1.355 . S
C585 C588 1.402 . S
C586 C584 1.412 . S
C586 C587 1.417 . S
C586 C610 1.431 . S
C587 N583 1.350 . S
C587 C586 1.417 . S
C587 C590 1.426 . S
C588 H571 0.930 . S
C588 N583 1.307 . S
C588 C585 1.402 . S
N589 Gd552 2.601 . S
N589 C590 1.359 . S
N589 C593 1.334 . S
C590 C587 1.426 . S
C590 N589 1.359 . S
C590 C594 1.413 . S
C591 H582 0.930 . S
C591 C592 1.359 . S
C591 C593 1.394 . S
C592 C591 1.359 . S
C592 C594 1.391 . S
C592 H595 0.929 . S
C593 H575 0.930 . S
C593 N589 1.334 . S
C593 C591 1.394 . S
C594 C590 1.413 . S
C594 C592 1.391 . S
C594 C609 1.437 . S
H595 C592 0.929 . S
O596 Gd552 2.545 . S
O596 C611 1.258 . S
O597 Gd552 2.606 . S
O597 Gd553 2.362 . S
O597 C608 1.284 . S
O598 Gd553 2.324 . S
O598 C618 1.254 . S
O599 Gd552 2.429 . S
O599 C618 1.268 . S
O600 Gd552 2.545 . S
O600 C608 1.250 . S
O601 Gd552 2.412 . S
O601 C611 1.252 . S
O602 Gd553 2.545 . S
O602 C620 1.258 . S
O603 Gd552 2.362 . S
O603 Gd553 2.606 . S
O603 C619 1.284 . S
O604 Gd552 2.324 . S
O604 C627 1.254 . S
O605 Gd553 2.429 . S
O605 C627 1.268 . S
O606 Gd553 2.545 . S
O606 C619 1.250 . S
O607 Gd553 2.412 . S
O607 C620 1.252 . S
C608 O597 1.284 . S
C608 O600 1.250 . S
C609 H578 0.929 . S
C609 C594 1.437 . S
C609 C610 1.317 . S
C610 H581 0.930 . S
C610 C586 1.431 . S
C610 C609 1.317 . S
C611 Gd552 2.828 . S
C611 O596 1.258 . S
C611 O601 1.252 . S
C611 C612 1.497 . S
C612 C611 1.497 . S
C612 C613 1.395 . S
C612 C614 1.380 . S
C613 C612 1.395 . S
C613 C616 1.398 . S
C613 H628 0.930 . S
C614 C612 1.380 . S
C614 C615 1.391 . S
C614 H629 0.930 . S
C615 C614 1.391 . S
C615 C617 1.387 . S
C616 C613 1.398 . S
C616 C617 1.380 . S
C616 H630 0.930 . S
C617 C615 1.387 . S
C617 C616 1.380 . S
C617 H631 0.930 . S
C618 O598 1.254 . S
C618 O599 1.268 . S
C619 O603 1.284 . S
C619 O606 1.250 . S
C620 Gd553 2.828 . S
C620 O602 1.258 . S
C620 O607 1.252 . S
C620 C621 1.497 . S
C621 C620 1.497 . S
C621 C622 1.395 . S
C621 C623 1.380 . S
C622 C621 1.395 . S
C622 C625 1.398 . S
C622 H632 0.930 . S
C623 C621 1.380 . S
C623 C624 1.391 . S
C623 H633 0.930 . S
C624 C623 1.391 . S
C624 C626 1.387 . S
C625 C622 1.398 . S
C625 C626 1.380 . S
C625 H634 0.930 . S
C626 C624 1.387 . S
C626 C625 1.380 . S
C626 H635 0.930 . S
C627 O604 1.254 . S
C627 O605 1.268 . S
H628 C613 0.930 . S
H629 C614 0.930 . S
H630 C616 0.930 . S
H631 C617 0.930 . S
H632 C622 0.930 . S
H633 C623 0.930 . S
H634 C625 0.930 . S
H635 C626 0.930 . S
Gd636 N667 2.661 . S
Gd636 N673 2.601 . S
Gd636 O680 2.545 . S
Gd636 O681 2.606 . S
Gd636 O683 2.429 . S
Gd636 O684 2.545 . S
Gd636 O685 2.412 . S
Gd636 O687 2.362 . S
Gd636 O688 2.324 . S
Gd636 C695 2.828 . S
Gd637 N646 2.661 . S
Gd637 N650 2.601 . S
Gd637 O681 2.362 . S
Gd637 O682 2.324 . S
Gd637 O686 2.545 . S
Gd637 O687 2.606 . S
Gd637 O689 2.429 . S
Gd637 O690 2.545 . S
Gd637 O691 2.412 . S
Gd637 C704 2.828 . S
C638 C641 1.417 . S
C638 C643 1.431 . S
C638 C644 1.412 . S
C639 C642 1.437 . S
C639 C643 1.317 . S
C639 H658 0.929 . S
C640 C641 1.426 . S
C640 C642 1.413 . S
C640 N650 1.359 . S
C641 C638 1.417 . S
C641 C640 1.426 . S
C641 N646 1.350 . S
C642 C639 1.437 . S
C642 C640 1.413 . S
C642 C652 1.391 . S
C643 C638 1.431 . S
C643 C639 1.317 . S
C643 H654 0.930 . S
C644 C638 1.412 . S
C644 C645 1.355 . S
C644 H656 0.930 . S
C645 C644 1.355 . S
C645 C647 1.402 . S
C645 H657 0.930 . S
N646 Gd637 2.661 . S
N646 C641 1.350 . S
N646 C647 1.307 . S
C647 C645 1.402 . S
C647 N646 1.307 . S
C647 H648 0.930 . S
H648 C647 0.930 . S
C649 N650 1.334 . S
C649 C651 1.394 . S
C649 H653 0.930 . S
N650 Gd637 2.601 . S
N650 C640 1.359 . S
N650 C649 1.334 . S
C651 C649 1.394 . S
C651 C652 1.359 . S
C651 H663 0.930 . S
C652 C642 1.391 . S
C652 C651 1.359 . S
C652 H664 0.929 . S
H653 C649 0.930 . S
H654 C643 0.930 . S
H655 C672 0.930 . S
H656 C644 0.930 . S
H657 C645 0.930 . S
H658 C639 0.929 . S
H659 C677 0.930 . S
H660 C668 0.930 . S
H661 C669 0.930 . S
H662 C693 0.929 . S
H663 C651 0.930 . S
H664 C652 0.929 . S
H665 C694 0.930 . S
H666 C675 0.930 . S
N667 Gd636 2.661 . S
N667 C671 1.350 . S
N667 C672 1.307 . S
C668 H660 0.930 . S
C668 C669 1.355 . S
C668 C670 1.412 . S
C669 H661 0.930 . S
C669 C668 1.355 . S
C669 C672 1.402 . S
C670 C668 1.412 . S
C670 C671 1.417 . S
C670 C694 1.431 . S
C671 N667 1.350 . S
C671 C670 1.417 . S
C671 C674 1.426 . S
C672 H655 0.930 . S
C672 N667 1.307 . S
C672 C669 1.402 . S
N673 Gd636 2.601 . S
N673 C674 1.359 . S
N673 C677 1.334 . S
C674 C671 1.426 . S
C674 N673 1.359 . S
C674 C678 1.413 . S
C675 H666 0.930 . S
C675 C676 1.359 . S
C675 C677 1.394 . S
C676 C675 1.359 . S
C676 C678 1.391 . S
C676 H679 0.929 . S
C677 H659 0.930 . S
C677 N673 1.334 . S
C677 C675 1.394 . S
C678 C674 1.413 . S
C678 C676 1.391 . S
C678 C693 1.437 . S
H679 C676 0.929 . S
O680 Gd636 2.545 . S
O680 C695 1.258 . S
O681 Gd636 2.606 . S
O681 Gd637 2.362 . S
O681 C692 1.284 . S
O682 Gd637 2.324 . S
O682 C702 1.254 . S
O683 Gd636 2.429 . S
O683 C702 1.268 . S
O684 Gd636 2.545 . S
O684 C692 1.250 . S
O685 Gd636 2.412 . S
O685 C695 1.252 . S
O686 Gd637 2.545 . S
O686 C704 1.258 . S
O687 Gd636 2.362 . S
O687 Gd637 2.606 . S
O687 C703 1.284 . S
O688 Gd636 2.324 . S
O688 C711 1.254 . S
O689 Gd637 2.429 . S
O689 C711 1.268 . S
O690 Gd637 2.545 . S
O690 C703 1.250 . S
O691 Gd637 2.412 . S
O691 C704 1.252 . S
C692 O681 1.284 . S
C692 O684 1.250 . S
C693 H662 0.929 . S
C693 C678 1.437 . S
C693 C694 1.317 . S
C694 H665 0.930 . S
C694 C670 1.431 . S
C694 C693 1.317 . S
C695 Gd636 2.828 . S
C695 O680 1.258 . S
C695 O685 1.252 . S
C695 C696 1.497 . S
C696 C695 1.497 . S
C696 C697 1.395 . S
C696 C698 1.380 . S
C697 C696 1.395 . S
C697 C700 1.398 . S
C697 H712 0.930 . S
C698 C696 1.380 . S
C698 C699 1.391 . S
C698 H713 0.930 . S
C699 C698 1.391 . S
C699 C701 1.387 . S
C700 C697 1.398 . S
C700 C701 1.380 . S
C700 H714 0.930 . S
C701 C699 1.387 . S
C701 C700 1.380 . S
C701 H715 0.930 . S
C702 O682 1.254 . S
C702 O683 1.268 . S
C703 O687 1.284 . S
C703 O690 1.250 . S
C704 Gd637 2.828 . S
C704 O686 1.258 . S
C704 O691 1.252 . S
C704 C705 1.497 . S
C705 C704 1.497 . S
C705 C706 1.395 . S
C705 C707 1.380 . S
C706 C705 1.395 . S
C706 C709 1.398 . S
C706 H716 0.930 . S
C707 C705 1.380 . S
C707 C708 1.391 . S
C707 H717 0.930 . S
C708 C707 1.391 . S
C708 C710 1.387 . S
C709 C706 1.398 . S
C709 C710 1.380 . S
C709 H718 0.930 . S
C710 C708 1.387 . S
C710 C709 1.380 . S
C710 H719 0.930 . S
C711 O688 1.254 . S
C711 O689 1.268 . S
H712 C697 0.930 . S
H713 C698 0.930 . S
H714 C700 0.930 . S
H715 C701 0.930 . S
H716 C706 0.930 . S
H717 C707 0.930 . S
H718 C709 0.930 . S
H719 C710 0.930 . S
Gd720 N751 2.661 . S
Gd720 N757 2.601 . S
Gd720 O764 2.545 . S
Gd720 O765 2.606 . S
Gd720 O767 2.429 . S
Gd720 O768 2.545 . S
Gd720 O769 2.412 . S
Gd720 O771 2.362 . S
Gd720 O772 2.324 . S
Gd720 C779 2.828 . S
Gd721 N730 2.661 . S
Gd721 N734 2.601 . S
Gd721 O765 2.362 . S
Gd721 O766 2.324 . S
Gd721 O770 2.545 . S
Gd721 O771 2.606 . S
Gd721 O773 2.429 . S
Gd721 O774 2.545 . S
Gd721 O775 2.412 . S
Gd721 C788 2.828 . S
C722 C725 1.417 . S
C722 C727 1.431 . S
C722 C728 1.412 . S
C723 C726 1.437 . S
C723 C727 1.317 . S
C723 H742 0.929 . S
C724 C725 1.426 . S
C724 C726 1.413 . S
C724 N734 1.359 . S
C725 C722 1.417 . S
C725 C724 1.426 . S
C725 N730 1.350 . S
C726 C723 1.437 . S
C726 C724 1.413 . S
C726 C736 1.391 . S
C727 C722 1.431 . S
C727 C723 1.317 . S
C727 H738 0.930 . S
C728 C722 1.412 . S
C728 C729 1.355 . S
C728 H740 0.930 . S
C729 C728 1.355 . S
C729 C731 1.402 . S
C729 H741 0.930 . S
N730 Gd721 2.661 . S
N730 C725 1.350 . S
N730 C731 1.307 . S
C731 C729 1.402 . S
C731 N730 1.307 . S
C731 H732 0.930 . S
H732 C731 0.930 . S
C733 N734 1.334 . S
C733 C735 1.394 . S
C733 H737 0.930 . S
N734 Gd721 2.601 . S
N734 C724 1.359 . S
N734 C733 1.334 . S
C735 C733 1.394 . S
C735 C736 1.359 . S
C735 H747 0.930 . S
C736 C726 1.391 . S
C736 C735 1.359 . S
C736 H748 0.929 . S
H737 C733 0.930 . S
H738 C727 0.930 . S
H739 C756 0.930 . S
H740 C728 0.930 . S
H741 C729 0.930 . S
H742 C723 0.929 . S
H743 C761 0.930 . S
H744 C752 0.930 . S
H745 C753 0.930 . S
H746 C777 0.929 . S
H747 C735 0.930 . S
H748 C736 0.929 . S
H749 C778 0.930 . S
H750 C759 0.930 . S
N751 Gd720 2.661 . S
N751 C755 1.350 . S
N751 C756 1.307 . S
C752 H744 0.930 . S
C752 C753 1.355 . S
C752 C754 1.412 . S
C753 H745 0.930 . S
C753 C752 1.355 . S
C753 C756 1.402 . S
C754 C752 1.412 . S
C754 C755 1.417 . S
C754 C778 1.431 . S
C755 N751 1.350 . S
C755 C754 1.417 . S
C755 C758 1.426 . S
C756 H739 0.930 . S
C756 N751 1.307 . S
C756 C753 1.402 . S
N757 Gd720 2.601 . S
N757 C758 1.359 . S
N757 C761 1.334 . S
C758 C755 1.426 . S
C758 N757 1.359 . S
C758 C762 1.413 . S
C759 H750 0.930 . S
C759 C760 1.359 . S
C759 C761 1.394 . S
C760 C759 1.359 . S
C760 C762 1.391 . S
C760 H763 0.929 . S
C761 H743 0.930 . S
C761 N757 1.334 . S
C761 C759 1.394 . S
C762 C758 1.413 . S
C762 C760 1.391 . S
C762 C777 1.437 . S
H763 C760 0.929 . S
O764 Gd720 2.545 . S
O764 C779 1.258 . S
O765 Gd720 2.606 . S
O765 Gd721 2.362 . S
O765 C776 1.284 . S
O766 Gd721 2.324 . S
O766 C786 1.254 . S
O767 Gd720 2.429 . S
O767 C786 1.268 . S
O768 Gd720 2.545 . S
O768 C776 1.250 . S
O769 Gd720 2.412 . S
O769 C779 1.252 . S
O770 Gd721 2.545 . S
O770 C788 1.258 . S
O771 Gd720 2.362 . S
O771 Gd721 2.606 . S
O771 C787 1.284 . S
O772 Gd720 2.324 . S
O772 C795 1.254 . S
O773 Gd721 2.429 . S
O773 C795 1.268 . S
O774 Gd721 2.545 . S
O774 C787 1.250 . S
O775 Gd721 2.412 . S
O775 C788 1.252 . S
C776 O765 1.284 . S
C776 O768 1.250 . S
C777 H746 0.929 . S
C777 C762 1.437 . S
C777 C778 1.317 . S
C778 H749 0.930 . S
C778 C754 1.431 . S
C778 C777 1.317 . S
C779 Gd720 2.828 . S
C779 O764 1.258 . S
C779 O769 1.252 . S
C779 C780 1.497 . S
C780 C779 1.497 . S
C780 C781 1.395 . S
C780 C782 1.380 . S
C781 C780 1.395 . S
C781 C784 1.398 . S
C781 H796 0.930 . S
C782 C780 1.380 . S
C782 C783 1.391 . S
C782 H797 0.930 . S
C783 C782 1.391 . S
C783 C785 1.387 . S
C784 C781 1.398 . S
C784 C785 1.380 . S
C784 H798 0.930 . S
C785 C783 1.387 . S
C785 C784 1.380 . S
C785 H799 0.930 . S
C786 O766 1.254 . S
C786 O767 1.268 . S
C787 O771 1.284 . S
C787 O774 1.250 . S
C788 Gd721 2.828 . S
C788 O770 1.258 . S
C788 O775 1.252 . S
C788 C789 1.497 . S
C789 C788 1.497 . S
C789 C790 1.395 . S
C789 C791 1.380 . S
C790 C789 1.395 . S
C790 C793 1.398 . S
C790 H800 0.930 . S
C791 C789 1.380 . S
C791 C792 1.391 . S
C791 H801 0.930 . S
C792 C791 1.391 . S
C792 C794 1.387 . S
C793 C790 1.398 . S
C793 C794 1.380 . S
C793 H802 0.930 . S
C794 C792 1.387 . S
C794 C793 1.380 . S
C794 H803 0.930 . S
C795 O772 1.254 . S
C795 O773 1.268 . S
H796 C781 0.930 . S
H797 C782 0.930 . S
H798 C784 0.930 . S
H799 C785 0.930 . S
H800 C790 0.930 . S
H801 C791 0.930 . S
H802 C793 0.930 . S
H803 C794 0.930 . S
Gd804 N835 2.661 . S
Gd804 N841 2.601 . S
Gd804 O848 2.545 . S
Gd804 O849 2.606 . S
Gd804 O851 2.429 . S
Gd804 O852 2.545 . S
Gd804 O853 2.412 . S
Gd804 O855 2.362 . S
Gd804 O856 2.324 . S
Gd804 C863 2.828 . S
Gd805 N814 2.661 . S
Gd805 N818 2.601 . S
Gd805 O849 2.362 . S
Gd805 O850 2.324 . S
Gd805 O854 2.545 . S
Gd805 O855 2.606 . S
Gd805 O857 2.429 . S
Gd805 O858 2.545 . S
Gd805 O859 2.412 . S
Gd805 C872 2.828 . S
C806 C809 1.417 . S
C806 C811 1.431 . S
C806 C812 1.412 . S
C807 C810 1.437 . S
C807 C811 1.317 . S
C807 H826 0.929 . S
C808 C809 1.426 . S
C808 C810 1.413 . S
C808 N818 1.359 . S
C809 C806 1.417 . S
C809 C808 1.426 . S
C809 N814 1.350 . S
C810 C807 1.437 . S
C810 C808 1.413 . S
C810 C820 1.391 . S
C811 C806 1.431 . S
C811 C807 1.317 . S
C811 H822 0.930 . S
C812 C806 1.412 . S
C812 C813 1.355 . S
C812 H824 0.930 . S
C813 C812 1.355 . S
C813 C815 1.402 . S
C813 H825 0.930 . S
N814 Gd805 2.661 . S
N814 C809 1.350 . S
N814 C815 1.307 . S
C815 C813 1.402 . S
C815 N814 1.307 . S
C815 H816 0.930 . S
H816 C815 0.930 . S
C817 N818 1.334 . S
C817 C819 1.394 . S
C817 H821 0.930 . S
N818 Gd805 2.601 . S
N818 C808 1.359 . S
N818 C817 1.334 . S
C819 C817 1.394 . S
C819 C820 1.359 . S
C819 H831 0.930 . S
C820 C810 1.391 . S
C820 C819 1.359 . S
C820 H832 0.929 . S
H821 C817 0.930 . S
H822 C811 0.930 . S
H823 C840 0.930 . S
H824 C812 0.930 . S
H825 C813 0.930 . S
H826 C807 0.929 . S
H827 C845 0.930 . S
H828 C836 0.930 . S
H829 C837 0.930 . S
H830 C861 0.929 . S
H831 C819 0.930 . S
H832 C820 0.929 . S
H833 C862 0.930 . S
H834 C843 0.930 . S
N835 Gd804 2.661 . S
N835 C839 1.350 . S
N835 C840 1.307 . S
C836 H828 0.930 . S
C836 C837 1.355 . S
C836 C838 1.412 . S
C837 H829 0.930 . S
C837 C836 1.355 . S
C837 C840 1.402 . S
C838 C836 1.412 . S
C838 C839 1.417 . S
C838 C862 1.431 . S
C839 N835 1.350 . S
C839 C838 1.417 . S
C839 C842 1.426 . S
C840 H823 0.930 . S
C840 N835 1.307 . S
C840 C837 1.402 . S
N841 Gd804 2.601 . S
N841 C842 1.359 . S
N841 C845 1.334 . S
C842 C839 1.426 . S
C842 N841 1.359 . S
C842 C846 1.413 . S
C843 H834 0.930 . S
C843 C844 1.359 . S
C843 C845 1.394 . S
C844 C843 1.359 . S
C844 C846 1.391 . S
C844 H847 0.929 . S
C845 H827 0.930 . S
C845 N841 1.334 . S
C845 C843 1.394 . S
C846 C842 1.413 . S
C846 C844 1.391 . S
C846 C861 1.437 . S
H847 C844 0.929 . S
O848 Gd804 2.545 . S
O848 C863 1.258 . S
O849 Gd804 2.606 . S
O849 Gd805 2.362 . S
O849 C860 1.284 . S
O850 Gd805 2.324 . S
O850 C870 1.254 . S
O851 Gd804 2.429 . S
O851 C870 1.268 . S
O852 Gd804 2.545 . S
O852 C860 1.250 . S
O853 Gd804 2.412 . S
O853 C863 1.252 . S
O854 Gd805 2.545 . S
O854 C872 1.258 . S
O855 Gd804 2.362 . S
O855 Gd805 2.606 . S
O855 C871 1.284 . S
O856 Gd804 2.324 . S
O856 C879 1.254 . S
O857 Gd805 2.429 . S
O857 C879 1.268 . S
O858 Gd805 2.545 . S
O858 C871 1.250 . S
O859 Gd805 2.412 . S
O859 C872 1.252 . S
C860 O849 1.284 . S
C860 O852 1.250 . S
C861 H830 0.929 . S
C861 C846 1.437 . S
C861 C862 1.317 . S
C862 H833 0.930 . S
C862 C838 1.431 . S
C862 C861 1.317 . S
C863 Gd804 2.828 . S
C863 O848 1.258 . S
C863 O853 1.252 . S
C863 C864 1.497 . S
C864 C863 1.497 . S
C864 C865 1.395 . S
C864 C866 1.380 . S
C865 C864 1.395 . S
C865 C868 1.398 . S
C865 H880 0.930 . S
C866 C864 1.380 . S
C866 C867 1.391 . S
C866 H881 0.930 . S
C867 C866 1.391 . S
C867 C869 1.387 . S
C868 C865 1.398 . S
C868 C869 1.380 . S
C868 H882 0.930 . S
C869 C867 1.387 . S
C869 C868 1.380 . S
C869 H883 0.930 . S
C870 O850 1.254 . S
C870 O851 1.268 . S
C871 O855 1.284 . S
C871 O858 1.250 . S
C872 Gd805 2.828 . S
C872 O854 1.258 . S
C872 O859 1.252 . S
C872 C873 1.497 . S
C873 C872 1.497 . S
C873 C874 1.395 . S
C873 C875 1.380 . S
C874 C873 1.395 . S
C874 C877 1.398 . S
C874 H884 0.930 . S
C875 C873 1.380 . S
C875 C876 1.391 . S
C875 H885 0.930 . S
C876 C875 1.391 . S
C876 C878 1.387 . S
C877 C874 1.398 . S
C877 C878 1.380 . S
C877 H886 0.930 . S
C878 C876 1.387 . S
C878 C877 1.380 . S
C878 H887 0.930 . S
C879 O856 1.254 . S
C879 O857 1.268 . S
H880 C865 0.930 . S
H881 C866 0.930 . S
H882 C868 0.930 . S
H883 C869 0.930 . S
H884 C874 0.930 . S
H885 C875 0.930 . S
H886 C877 0.930 . S
H887 C878 0.930 . S
Gd888 N919 2.661 . S
Gd888 N925 2.601 . S
Gd888 O932 2.545 . S
Gd888 O933 2.606 . S
Gd888 O935 2.429 . S
Gd888 O936 2.545 . S
Gd888 O937 2.412 . S
Gd888 O939 2.362 . S
Gd888 O940 2.324 . S
Gd888 C947 2.828 . S
Gd889 N898 2.661 . S
Gd889 N902 2.601 . S
Gd889 O933 2.362 . S
Gd889 O934 2.324 . S
Gd889 O938 2.545 . S
Gd889 O939 2.606 . S
Gd889 O941 2.429 . S
Gd889 O942 2.545 . S
Gd889 O943 2.412 . S
Gd889 C956 2.828 . S
C890 C893 1.417 . S
C890 C895 1.431 . S
C890 C896 1.412 . S
C891 C894 1.437 . S
C891 C895 1.317 . S
C891 H910 0.929 . S
C892 C893 1.426 . S
C892 C894 1.413 . S
C892 N902 1.359 . S
C893 C890 1.417 . S
C893 C892 1.426 . S
C893 N898 1.350 . S
C894 C891 1.437 . S
C894 C892 1.413 . S
C894 C904 1.391 . S
C895 C890 1.431 . S
C895 C891 1.317 . S
C895 H906 0.930 . S
C896 C890 1.412 . S
C896 C897 1.355 . S
C896 H908 0.930 . S
C897 C896 1.355 . S
C897 C899 1.402 . S
C897 H909 0.930 . S
N898 Gd889 2.661 . S
N898 C893 1.350 . S
N898 C899 1.307 . S
C899 C897 1.402 . S
C899 N898 1.307 . S
C899 H900 0.930 . S
H900 C899 0.930 . S
C901 N902 1.334 . S
C901 C903 1.394 . S
C901 H905 0.930 . S
N902 Gd889 2.601 . S
N902 C892 1.359 . S
N902 C901 1.334 . S
C903 C901 1.394 . S
C903 C904 1.359 . S
C903 H915 0.930 . S
C904 C894 1.391 . S
C904 C903 1.359 . S
C904 H916 0.929 . S
H905 C901 0.930 . S
H906 C895 0.930 . S
H907 C924 0.930 . S
H908 C896 0.930 . S
H909 C897 0.930 . S
H910 C891 0.929 . S
H911 C929 0.930 . S
H912 C920 0.930 . S
H913 C921 0.930 . S
H914 C945 0.929 . S
H915 C903 0.930 . S
H916 C904 0.929 . S
H917 C946 0.930 . S
H918 C927 0.930 . S
N919 Gd888 2.661 . S
N919 C923 1.350 . S
N919 C924 1.307 . S
C920 H912 0.930 . S
C920 C921 1.355 . S
C920 C922 1.412 . S
C921 H913 0.930 . S
C921 C920 1.355 . S
C921 C924 1.402 . S
C922 C920 1.412 . S
C922 C923 1.417 . S
C922 C946 1.431 . S
C923 N919 1.350 . S
C923 C922 1.417 . S
C923 C926 1.426 . S
C924 H907 0.930 . S
C924 N919 1.307 . S
C924 C921 1.402 . S
N925 Gd888 2.601 . S
N925 C926 1.359 . S
N925 C929 1.334 . S
C926 C923 1.426 . S
C926 N925 1.359 . S
C926 C930 1.413 . S
C927 H918 0.930 . S
C927 C928 1.359 . S
C927 C929 1.394 . S
C928 C927 1.359 . S
C928 C930 1.391 . S
C928 H931 0.929 . S
C929 H911 0.930 . S
C929 N925 1.334 . S
C929 C927 1.394 . S
C930 C926 1.413 . S
C930 C928 1.391 . S
C930 C945 1.437 . S
H931 C928 0.929 . S
O932 Gd888 2.545 . S
O932 C947 1.258 . S
O933 Gd888 2.606 . S
O933 Gd889 2.362 . S
O933 C944 1.284 . S
O934 Gd889 2.324 . S
O934 C954 1.254 . S
O935 Gd888 2.429 . S
O935 C954 1.268 . S
O936 Gd888 2.545 . S
O936 C944 1.250 . S
O937 Gd888 2.412 . S
O937 C947 1.252 . S
O938 Gd889 2.545 . S
O938 C956 1.258 . S
O939 Gd888 2.362 . S
O939 Gd889 2.606 . S
O939 C955 1.284 . S
O940 Gd888 2.324 . S
O940 C963 1.254 . S
O941 Gd889 2.429 . S
O941 C963 1.268 . S
O942 Gd889 2.545 . S
O942 C955 1.250 . S
O943 Gd889 2.412 . S
O943 C956 1.252 . S
C944 O933 1.284 . S
C944 O936 1.250 . S
C945 H914 0.929 . S
C945 C930 1.437 . S
C945 C946 1.317 . S
C946 H917 0.930 . S
C946 C922 1.431 . S
C946 C945 1.317 . S
C947 Gd888 2.828 . S
C947 O932 1.258 . S
C947 O937 1.252 . S
C947 C948 1.497 . S
C948 C947 1.497 . S
C948 C949 1.395 . S
C948 C950 1.380 . S
C949 C948 1.395 . S
C949 C952 1.398 . S
C949 H964 0.930 . S
C950 C948 1.380 . S
C950 C951 1.391 . S
C950 H965 0.930 . S
C951 C950 1.391 . S
C951 C953 1.387 . S
C952 C949 1.398 . S
C952 C953 1.380 . S
C952 H966 0.930 . S
C953 C951 1.387 . S
C953 C952 1.380 . S
C953 H967 0.930 . S
C954 O934 1.254 . S
C954 O935 1.268 . S
C955 O939 1.284 . S
C955 O942 1.250 . S
C956 Gd889 2.828 . S
C956 O938 1.258 . S
C956 O943 1.252 . S
C956 C957 1.497 . S
C957 C956 1.497 . S
C957 C958 1.395 . S
C957 C959 1.380 . S
C958 C957 1.395 . S
C958 C961 1.398 . S
C958 H968 0.930 . S
C959 C957 1.380 . S
C959 C960 1.391 . S
C959 H969 0.930 . S
C960 C959 1.391 . S
C960 C962 1.387 . S
C961 C958 1.398 . S
C961 C962 1.380 . S
C961 H970 0.930 . S
C962 C960 1.387 . S
C962 C961 1.380 . S
C962 H971 0.930 . S
C963 O940 1.254 . S
C963 O941 1.268 . S
H964 C949 0.930 . S
H965 C950 0.930 . S
H966 C952 0.930 . S
H967 C953 0.930 . S
H968 C958 0.930 . S
H969 C959 0.930 . S
H970 C961 0.930 . S
H971 C962 0.930 . S
H972 C990 0.951 . S
H973 C992 0.951 . S
H974 C994 0.950 . S
H975 C995 0.950 . S
H976 C997 0.950 . S
H977 C1000 0.950 . S
H978 C1001 0.950 . S
H979 C1003 0.950 1_556 S
H980 C1004 0.950 . S
H981 C1005 0.951 . S
H982 C1007 0.951 . S
H983 C1009 0.950 . S
H984 C1010 0.950 . S
H985 C1012 0.950 . S
H986 C1015 0.950 . S
H987 C1016 0.950 . S
H988 C1018 0.950 . S
H989 C1019 0.950 . S
C990 H972 0.951 . S
C990 C991 1.366 . S
C990 C992 1.388 . S
C991 C990 1.366 . S
C991 C995 1.385 . S
C992 H973 0.951 . S
C992 C990 1.388 . S
C992 C993 1.366 . S
C993 C992 1.366 . S
C993 C994 1.414 . S
C993 C996 1.499 . S
C994 H974 0.950 . S
C994 C993 1.414 . S
C994 C995 1.374 . S
C995 H975 0.950 . S
C995 C991 1.385 . S
C995 C994 1.374 . S
C996 C993 1.499 . S
C996 C997 1.373 . S
C996 C998 1.389 . S
C997 H976 0.950 . S
C997 C996 1.373 . S
C997 C1013 1.377 . S
C998 C996 1.389 . S
C998 C999 1.524 . S
C998 C1012 1.377 . S
C999 C998 1.524 . S
C999 C1000 1.397 . S
C999 C1004 1.363 . S
C1000 H977 0.950 . S
C1000 C999 1.397 . S
C1000 C1001 1.334 . S
C1001 H978 0.950 . S
C1001 C1000 1.334 . S
C1001 C1002 1.287 . S
C1002 C1001 1.287 . S
C1002 C1003 1.524 . S
C1002 H1021 0.913 . S
C1003 H979 0.950 1_554 S
C1003 C1002 1.524 . S
C1003 C1004 1.415 . S
C1004 H980 0.950 . S
C1004 C999 1.363 . S
C1004 C1003 1.415 . S
C1005 H981 0.951 . S
C1005 C1006 1.366 . S
C1005 C1007 1.388 . S
C1006 C1005 1.366 . S
C1006 C1010 1.385 . S
C1007 H982 0.951 . S
C1007 C1005 1.388 . S
C1007 C1008 1.366 . S
C1008 C1007 1.366 . S
C1008 C1009 1.414 . S
C1008 C1011 1.499 . S
C1009 H983 0.950 . S
C1009 C1008 1.414 . S
C1009 C1010 1.374 . S
C1010 H984 0.950 . S
C1010 C1006 1.385 . S
C1010 C1009 1.374 . S
C1011 C1008 1.499 . S
C1011 C1012 1.373 . S
C1011 C1013 1.389 . S
C1012 H985 0.950 . S
C1012 C998 1.377 . S
C1012 C1011 1.373 . S
C1013 C997 1.377 . S
C1013 C1011 1.389 . S
C1013 C1014 1.524 . S
C1014 C1013 1.524 . S
C1014 C1015 1.397 . S
C1014 C1019 1.363 . S
C1015 H986 0.950 . S
C1015 C1014 1.397 . S
C1015 C1016 1.334 . S
C1016 H987 0.950 . S
C1016 C1015 1.334 . S
C1016 C1017 1.287 . S
C1017 C1016 1.287 . S
C1017 C1018 1.524 . S
C1017 H1020 0.999 . S
C1018 H988 0.950 . S
C1018 C1017 1.524 . S
C1018 C1019 1.415 . S
C1019 H989 0.950 . S
C1019 C1014 1.363 . S
C1019 C1018 1.415 . S
H1020 C1017 0.999 . S
H1021 C1002 0.913 . S
H1022 C1040 0.951 . S
H1023 C1042 0.951 . S
H1024 C1044 0.950 . S
H1025 C1045 0.950 . S
H1026 C1047 0.950 . S
H1027 C1050 0.950 . S
H1028 C1051 0.950 . S
H1029 C1053 0.950 . S
H1030 C1054 0.950 . S
H1031 C1055 0.951 . S
H1032 C1057 0.951 . S
H1033 C1059 0.950 . S
H1034 C1060 0.950 . S
H1035 C1062 0.950 . S
H1036 C1065 0.950 . S
H1037 C1066 0.950 . S
H1038 C1068 0.950 1_556 S
H1039 C1069 0.950 . S
C1040 H1022 0.951 . S
C1040 C1041 1.366 . S
C1040 C1042 1.388 . S
C1041 C1040 1.366 . S
C1041 C1045 1.385 . S
C1042 H1023 0.951 . S
C1042 C1040 1.388 . S
C1042 C1043 1.366 . S
C1043 C1042 1.366 . S
C1043 C1044 1.414 . S
C1043 C1046 1.499 . S
C1044 H1024 0.950 . S
C1044 C1043 1.414 . S
C1044 C1045 1.374 . S
C1045 H1025 0.950 . S
C1045 C1041 1.385 . S
C1045 C1044 1.374 . S
C1046 C1043 1.499 . S
C1046 C1047 1.373 . S
C1046 C1048 1.389 . S
C1047 H1026 0.950 . S
C1047 C1046 1.373 . S
C1047 C1063 1.377 . S
C1048 C1046 1.389 . S
C1048 C1049 1.524 . S
C1048 C1062 1.377 . S
C1049 C1048 1.524 . S
C1049 C1050 1.397 . S
C1049 C1054 1.363 . S
C1050 H1027 0.950 . S
C1050 C1049 1.397 . S
C1050 C1051 1.334 . S
C1051 H1028 0.950 . S
C1051 C1050 1.334 . S
C1051 C1052 1.287 . S
C1052 C1051 1.287 . S
C1052 C1053 1.524 . S
C1052 H1071 0.913 . S
C1053 H1029 0.950 . S
C1053 C1052 1.524 . S
C1053 C1054 1.415 . S
C1054 H1030 0.950 . S
C1054 C1049 1.363 . S
C1054 C1053 1.415 . S
C1055 H1031 0.951 . S
C1055 C1056 1.366 . S
C1055 C1057 1.388 . S
C1056 C1055 1.366 . S
C1056 C1060 1.385 . S
C1057 H1032 0.951 . S
C1057 C1055 1.388 . S
C1057 C1058 1.366 . S
C1058 C1057 1.366 . S
C1058 C1059 1.414 . S
C1058 C1061 1.499 . S
C1059 H1033 0.950 . S
C1059 C1058 1.414 . S
C1059 C1060 1.374 . S
C1060 H1034 0.950 . S
C1060 C1056 1.385 . S
C1060 C1059 1.374 . S
C1061 C1058 1.499 . S
C1061 C1062 1.373 . S
C1061 C1063 1.389 . S
C1062 H1035 0.950 . S
C1062 C1048 1.377 . S
C1062 C1061 1.373 . S
C1063 C1047 1.377 . S
C1063 C1061 1.389 . S
C1063 C1064 1.524 . S
C1064 C1063 1.524 . S
C1064 C1065 1.397 . S
C1064 C1069 1.363 . S
C1065 H1036 0.950 . S
C1065 C1064 1.397 . S
C1065 C1066 1.334 . S
C1066 H1037 0.950 . S
C1066 C1065 1.334 . S
C1066 C1067 1.287 . S
C1067 C1066 1.287 . S
C1067 C1068 1.524 . S
C1067 H1070 0.999 . S
C1068 H1038 0.950 1_554 S
C1068 C1067 1.524 . S
C1068 C1069 1.415 . S
C1069 H1039 0.950 . S
C1069 C1064 1.363 . S
C1069 C1068 1.415 . S
H1070 C1067 0.999 . S
H1071 C1052 0.913 . S
H1072 C1090 0.951 . S
H1073 C1092 0.951 . S
H1074 C1094 0.950 . S
H1075 C1095 0.950 . S
H1076 C1097 0.950 . S
H1077 C1100 0.950 . S
H1078 C1101 0.950 . S
H1079 C1103 0.950 . S
H1080 C1104 0.950 . S
H1081 C1105 0.951 . S
H1082 C1107 0.951 . S
H1083 C1109 0.950 . S
H1084 C1110 0.950 . S
H1085 C1112 0.950 . S
H1086 C1115 0.950 . S
H1087 C1116 0.950 . S
H1088 C1118 0.950 . S
H1089 C1119 0.950 . S
C1090 H1072 0.951 . S
C1090 C1091 1.366 . S
C1090 C1092 1.388 . S
C1091 C1090 1.366 . S
C1091 C1095 1.385 . S
C1092 H1073 0.951 . S
C1092 C1090 1.388 . S
C1092 C1093 1.366 . S
C1093 C1092 1.366 . S
C1093 C1094 1.414 . S
C1093 C1096 1.499 . S
C1094 H1074 0.950 . S
C1094 C1093 1.414 . S
C1094 C1095 1.374 . S
C1095 H1075 0.950 . S
C1095 C1091 1.385 . S
C1095 C1094 1.374 . S
C1096 C1093 1.499 . S
C1096 C1097 1.373 . S
C1096 C1098 1.389 . S
C1097 H1076 0.950 . S
C1097 C1096 1.373 . S
C1097 C1113 1.377 . S
C1098 C1096 1.389 . S
C1098 C1099 1.524 . S
C1098 C1112 1.377 . S
C1099 C1098 1.524 . S
C1099 C1100 1.397 . S
C1099 C1104 1.363 . S
C1100 H1077 0.950 . S
C1100 C1099 1.397 . S
C1100 C1101 1.334 . S
C1101 H1078 0.950 . S
C1101 C1100 1.334 . S
C1101 C1102 1.287 . S
C1102 C1101 1.287 . S
C1102 C1103 1.524 . S
C1102 H1121 0.913 . S
C1103 H1079 0.950 . S
C1103 C1102 1.524 . S
C1103 C1104 1.415 . S
C1104 H1080 0.950 . S
C1104 C1099 1.363 . S
C1104 C1103 1.415 . S
C1105 H1081 0.951 . S
C1105 C1106 1.366 . S
C1105 C1107 1.388 . S
C1106 C1105 1.366 . S
C1106 C1110 1.385 . S
C1107 H1082 0.951 . S
C1107 C1105 1.388 . S
C1107 C1108 1.366 . S
C1108 C1107 1.366 . S
C1108 C1109 1.414 . S
C1108 C1111 1.499 . S
C1109 H1083 0.950 . S
C1109 C1108 1.414 . S
C1109 C1110 1.374 . S
C1110 H1084 0.950 . S
C1110 C1106 1.385 . S
C1110 C1109 1.374 . S
C1111 C1108 1.499 . S
C1111 C1112 1.373 . S
C1111 C1113 1.389 . S
C1112 H1085 0.950 . S
C1112 C1098 1.377 . S
C1112 C1111 1.373 . S
C1113 C1097 1.377 . S
C1113 C1111 1.389 . S
C1113 C1114 1.524 . S
C1114 C1113 1.524 . S
C1114 C1115 1.397 . S
C1114 C1119 1.363 . S
C1115 H1086 0.950 . S
C1115 C1114 1.397 . S
C1115 C1116 1.334 . S
C1116 H1087 0.950 . S
C1116 C1115 1.334 . S
C1116 C1117 1.287 . S
C1117 C1116 1.287 . S
C1117 C1118 1.524 . S
C1117 H1120 0.999 . S
C1118 H1088 0.950 . S
C1118 C1117 1.524 . S
C1118 C1119 1.415 . S
C1119 H1089 0.950 . S
C1119 C1114 1.363 . S
C1119 C1118 1.415 . S
H1120 C1117 0.999 . S
H1121 C1102 0.913 . S
H1122 C1140 0.951 . S
H1123 C1142 0.951 . S
H1124 C1144 0.950 . S
H1125 C1145 0.950 . S
H1126 C1147 0.950 . S
H1127 C1150 0.950 . S
H1128 C1151 0.950 . S
H1129 C1153 0.950 . S
H1130 C1154 0.950 . S
H1131 C1155 0.951 . S
H1132 C1157 0.951 . S
H1133 C1159 0.940 1_554 S
H1134 C1160 0.950 . S
H1135 C1162 0.950 . S
H1136 C1165 0.950 . S
H1137 C1166 0.950 . S
H1138 C1168 0.962 . S
H1139 C1169 0.950 . S
C1140 H1122 0.951 . S
C1140 C1141 1.366 . S
C1140 C1142 1.388 . S
C1141 C1140 1.366 . S
C1141 C1145 1.385 . S
C1142 H1123 0.951 . S
C1142 C1140 1.388 . S
C1142 C1143 1.366 . S
C1143 C1142 1.366 . S
C1143 C1144 1.414 . S
C1143 C1146 1.499 . S
C1144 H1124 0.950 . S
C1144 C1143 1.414 . S
C1144 C1145 1.374 . S
C1145 H1125 0.950 . S
C1145 C1141 1.385 . S
C1145 C1144 1.374 . S
C1146 C1143 1.499 . S
C1146 C1147 1.373 . S
C1146 C1148 1.389 . S
C1147 H1126 0.950 . S
C1147 C1146 1.373 . S
C1147 C1163 1.377 . S
C1148 C1146 1.389 . S
C1148 C1149 1.524 . S
C1148 C1162 1.377 . S
C1149 C1148 1.524 . S
C1149 C1150 1.397 . S
C1149 C1154 1.363 . S
C1150 H1127 0.950 . S
C1150 C1149 1.397 . S
C1150 C1151 1.334 . S
C1151 H1128 0.950 . S
C1151 C1150 1.334 . S
C1151 C1152 1.287 . S
C1152 C1151 1.287 . S
C1152 C1153 1.524 . S
C1152 H1171 0.913 . S
C1153 H1129 0.950 . S
C1153 C1152 1.524 . S
C1153 C1154 1.415 . S
C1154 H1130 0.950 . S
C1154 C1149 1.363 . S
C1154 C1153 1.415 . S
C1155 H1131 0.951 . S
C1155 C1156 1.366 . S
C1155 C1157 1.388 . S
C1156 C1155 1.366 . S
C1156 C1160 1.385 1_556 S
C1157 H1132 0.951 . S
C1157 C1155 1.388 . S
C1157 C1158 1.366 . S
C1158 C1157 1.366 . S
C1158 C1159 1.414 . S
C1158 C1161 1.499 . S
C1159 H1133 0.940 1_556 S
C1159 C1158 1.414 . S
C1159 C1160 1.374 1_556 S
C1160 H1134 0.950 . S
C1160 C1156 1.385 1_554 S
C1160 C1159 1.374 1_554 S
C1161 C1158 1.499 . S
C1161 C1162 1.373 . S
C1161 C1163 1.389 . S
C1162 H1135 0.950 . S
C1162 C1148 1.377 . S
C1162 C1161 1.373 . S
C1163 C1147 1.377 . S
C1163 C1161 1.389 . S
C1163 C1164 1.524 . S
C1164 C1163 1.524 . S
C1164 C1165 1.397 1_556 S
C1164 C1169 1.363 . S
C1165 H1136 0.950 . S
C1165 C1164 1.397 1_554 S
C1165 C1166 1.334 . S
C1166 H1137 0.950 . S
C1166 C1165 1.334 . S
C1166 C1167 1.287 . S
C1167 C1166 1.287 . S
C1167 C1168 1.490 1_554 S
C1167 H1170 0.999 . S
C1168 H1138 0.962 . S
C1168 C1167 1.490 1_556 S
C1168 C1169 1.436 . S
C1169 H1139 0.950 . S
C1169 C1164 1.363 . S
C1169 C1168 1.436 . S
H1170 C1167 0.999 . S
H1171 C1152 0.913 . S
H1172 C1190 0.951 . S
H1173 C1192 0.951 . S
H1174 C1194 0.950 . S
H1175 C1195 0.950 . S
H1176 C1197 0.950 . S
H1177 C1200 0.950 . S
H1178 C1201 0.950 . S
H1179 C1203 0.950 . S
H1180 C1204 0.950 . S
H1181 C1205 0.951 . S
H1182 C1207 0.951 . S
H1183 C1209 0.950 . S
H1184 C1210 0.950 . S
H1185 C1212 0.950 . S
H1186 C1215 0.940 1_556 S
H1187 C1216 0.950 . S
H1188 C1218 0.950 . S
H1189 C1219 0.950 . S
C1190 H1172 0.951 . S
C1190 C1191 1.366 . S
C1190 C1192 1.388 . S
C1191 C1190 1.366 . S
C1191 C1195 1.385 . S
C1192 H1173 0.951 . S
C1192 C1190 1.388 . S
C1192 C1193 1.366 . S
C1193 C1192 1.366 . S
C1193 C1194 1.414 . S
C1193 C1196 1.499 . S
C1194 H1174 0.950 . S
C1194 C1193 1.414 . S
C1194 C1195 1.374 . S
C1195 H1175 0.950 . S
C1195 C1191 1.385 . S
C1195 C1194 1.374 . S
C1196 C1193 1.499 . S
C1196 C1197 1.373 . S
C1196 C1198 1.389 . S
C1197 H1176 0.950 . S
C1197 C1196 1.373 . S
C1197 C1213 1.377 . S
C1198 C1196 1.389 . S
C1198 C1199 1.524 . S
C1198 C1212 1.377 . S
C1199 C1198 1.524 . S
C1199 C1200 1.397 . S
C1199 C1204 1.363 . S
C1200 H1177 0.950 . S
C1200 C1199 1.397 . S
C1200 C1201 1.334 . S
C1201 H1178 0.950 . S
C1201 C1200 1.334 . S
C1201 C1202 1.287 . S
C1202 C1201 1.287 . S
C1202 C1203 1.524 . S
C1202 H1221 0.913 . S
C1203 H1179 0.950 . S
C1203 C1202 1.524 . S
C1203 C1204 1.415 . S
C1204 H1180 0.950 . S
C1204 C1199 1.363 . S
C1204 C1203 1.415 . S
C1205 H1181 0.951 . S
C1205 C1206 1.366 1_554 S
C1205 C1207 1.388 . S
C1206 C1205 1.366 1_556 S
C1206 C1210 1.385 . S
C1207 H1182 0.951 . S
C1207 C1205 1.388 . S
C1207 C1208 1.366 1_554 S
C1208 C1207 1.366 1_556 S
C1208 C1209 1.414 . S
C1208 C1211 1.499 . S
C1209 H1183 0.950 . S
C1209 C1208 1.414 . S
C1209 C1210 1.374 . S
C1210 H1184 0.950 . S
C1210 C1206 1.385 . S
C1210 C1209 1.374 . S
C1211 C1208 1.499 . S
C1211 C1212 1.373 . S
C1211 C1213 1.389 . S
C1212 H1185 0.950 . S
C1212 C1198 1.377 . S
C1212 C1211 1.373 . S
C1213 C1197 1.377 . S
C1213 C1211 1.389 . S
C1213 C1214 1.524 1_556 S
C1214 C1213 1.524 1_554 S
C1214 C1215 1.397 . S
C1214 C1219 1.363 . S
C1215 H1186 0.940 1_554 S
C1215 C1214 1.397 . S
C1215 C1216 1.334 . S
C1216 H1187 0.950 . S
C1216 C1215 1.334 . S
C1216 C1217 1.287 . S
C1217 C1216 1.287 . S
C1217 C1218 1.524 . S
C1217 H1220 0.999 . S
C1218 H1188 0.950 . S
C1218 C1217 1.524 . S
C1218 C1219 1.415 . S
C1219 H1189 0.950 . S
C1219 C1214 1.363 . S
C1219 C1218 1.415 . S
H1220 C1217 0.999 . S
H1221 C1202 0.913 . S
H1222 C1240 0.951 . S
H1223 C1242 0.951 . S
H1224 C1244 0.950 . S
H1225 C1245 0.950 . S
H1226 C1247 0.950 . S
H1227 C1250 0.950 . S
H1228 C1251 0.950 . S
H1229 C1253 0.950 1_554 S
H1230 C1254 0.950 1_554 S
H1231 C1255 0.951 . S
H1232 C1257 0.951 . S
H1233 C1259 0.950 . S
H1234 C1260 0.950 . S
H1235 C1262 0.950 . S
H1236 C1265 0.950 1_554 S
H1237 C1266 0.950 1_554 S
H1238 C1268 0.950 . S
H1239 C1269 0.950 . S
C1240 H1222 0.951 . S
C1240 C1241 1.366 . S
C1240 C1242 1.388 . S
C1241 C1240 1.366 . S
C1241 C1245 1.385 . S
C1242 H1223 0.951 . S
C1242 C1240 1.388 . S
C1242 C1243 1.366 . S
C1243 C1242 1.366 . S
C1243 C1244 1.414 . S
C1243 C1246 1.499 . S
C1244 H1224 0.950 . S
C1244 C1243 1.414 . S
C1244 C1245 1.374 . S
C1245 H1225 0.950 . S
C1245 C1241 1.385 . S
C1245 C1244 1.374 . S
C1246 C1243 1.499 . S
C1246 C1247 1.373 . S
C1246 C1248 1.389 . S
C1247 H1226 0.950 . S
C1247 C1246 1.373 . S
C1247 C1263 1.377 . S
C1248 C1246 1.389 . S
C1248 C1249 1.524 . S
C1248 C1262 1.377 . S
C1249 C1248 1.524 . S
C1249 C1250 1.397 . S
C1249 C1254 1.363 . S
C1250 H1227 0.950 . S
C1250 C1249 1.397 . S
C1250 C1251 1.334 . S
C1251 H1228 0.950 . S
C1251 C1250 1.334 . S
C1251 C1252 1.287 . S
C1252 C1251 1.287 . S
C1252 C1253 1.524 . S
C1252 H1271 0.913 . S
C1253 H1229 0.950 1_556 S
C1253 C1252 1.524 . S
C1253 C1254 1.415 . S
C1254 H1230 0.950 1_556 S
C1254 C1249 1.363 . S
C1254 C1253 1.415 . S
C1255 H1231 0.951 . S
C1255 C1256 1.379 . S
C1255 C1257 1.388 . S
C1256 C1255 1.379 . S
C1256 C1260 1.375 1_556 S
C1257 H1232 0.951 . S
C1257 C1255 1.388 . S
C1257 C1258 1.366 . S
C1258 C1257 1.366 . S
C1258 C1259 1.414 1_556 S
C1258 C1261 1.499 . S
C1259 H1233 0.950 . S
C1259 C1258 1.414 1_554 S
C1259 C1260 1.374 . S
C1260 H1234 0.950 . S
C1260 C1256 1.375 1_554 S
C1260 C1259 1.374 . S
C1261 C1258 1.499 . S
C1261 C1262 1.373 . S
C1261 C1263 1.389 . S
C1262 H1235 0.950 . S
C1262 C1248 1.377 . S
C1262 C1261 1.373 . S
C1263 C1247 1.377 . S
C1263 C1261 1.389 . S
C1263 C1264 1.524 . S
C1264 C1263 1.524 . S
C1264 C1265 1.397 . S
C1264 C1269 1.363 . S
C1265 H1236 0.950 1_556 S
C1265 C1264 1.397 . S
C1265 C1266 1.334 . S
C1266 H1237 0.950 1_556 S
C1266 C1265 1.334 . S
C1266 C1267 1.287 . S
C1267 C1266 1.287 . S
C1267 C1268 1.524 . S
C1267 H1270 0.999 . S
C1268 H1238 0.950 . S
C1268 C1267 1.524 . S
C1268 C1269 1.415 . S
C1269 H1239 0.950 . S
C1269 C1264 1.363 . S
C1269 C1268 1.415 . S
H1270 C1267 0.999 . S
H1271 C1252 0.913 . S
H1272 C1290 0.951 . S
H1273 C1292 0.951 . S
H1274 C1294 0.950 . S
H1275 C1295 0.950 . S
H1276 C1297 0.950 . S
H1277 C1300 0.950 . S
H1278 C1301 0.950 . S
H1279 C1303 0.950 . S
H1280 C1304 0.950 . S
H1281 C1305 0.951 . S
H1282 C1307 0.951 . S
H1283 C1309 0.950 . S
H1284 C1310 0.950 . S
H1285 C1312 0.950 . S
H1286 C1315 0.950 . S
H1287 C1316 0.950 . S
H1288 C1318 0.950 . S
H1289 C1319 0.950 . S
C1290 H1272 0.951 . S
C1290 C1291 1.366 . S
C1290 C1292 1.388 . S
C1291 C1290 1.366 . S
C1291 C1295 1.385 . S
C1292 H1273 0.951 . S
C1292 C1290 1.388 . S
C1292 C1293 1.366 . S
C1293 C1292 1.366 . S
C1293 C1294 1.414 . S
C1293 C1296 1.499 . S
C1294 H1274 0.950 . S
C1294 C1293 1.414 . S
C1294 C1295 1.374 . S
C1295 H1275 0.950 . S
C1295 C1291 1.385 . S
C1295 C1294 1.374 . S
C1296 C1293 1.499 . S
C1296 C1297 1.373 . S
C1296 C1298 1.389 . S
C1297 H1276 0.950 . S
C1297 C1296 1.373 . S
C1297 C1313 1.377 . S
C1298 C1296 1.389 . S
C1298 C1299 1.524 . S
C1298 C1312 1.377 . S
C1299 C1298 1.524 . S
C1299 C1300 1.397 . S
C1299 C1304 1.363 . S
C1300 H1277 0.950 . S
C1300 C1299 1.397 . S
C1300 C1301 1.334 . S
C1301 H1278 0.950 . S
C1301 C1300 1.334 . S
C1301 C1302 1.287 . S
C1302 C1301 1.287 . S
C1302 C1303 1.524 . S
C1302 H1321 0.913 . S
C1303 H1279 0.950 . S
C1303 C1302 1.524 . S
C1303 C1304 1.415 . S
C1304 H1280 0.950 . S
C1304 C1299 1.363 . S
C1304 C1303 1.415 . S
C1305 H1281 0.951 . S
C1305 C1306 1.366 . S
C1305 C1307 1.388 . S
C1306 C1305 1.366 . S
C1306 C1310 1.385 1_556 S
C1307 H1282 0.951 . S
C1307 C1305 1.388 . S
C1307 C1308 1.366 . S
C1308 C1307 1.366 . S
C1308 C1309 1.414 1_556 S
C1308 C1311 1.499 . S
C1309 H1283 0.950 . S
C1309 C1308 1.414 1_554 S
C1309 C1310 1.374 . S
C1310 H1284 0.950 . S
C1310 C1306 1.385 1_554 S
C1310 C1309 1.374 . S
C1311 C1308 1.499 . S
C1311 C1312 1.373 . S
C1311 C1313 1.389 . S
C1312 H1285 0.950 . S
C1312 C1298 1.377 . S
C1312 C1311 1.373 . S
C1313 C1297 1.377 . S
C1313 C1311 1.389 . S
C1313 C1314 1.524 . S
C1314 C1313 1.524 . S
C1314 C1315 1.397 1_556 S
C1314 C1319 1.363 . S
C1315 H1286 0.950 . S
C1315 C1314 1.397 1_554 S
C1315 C1316 1.334 . S
C1316 H1287 0.950 . S
C1316 C1315 1.334 . S
C1316 C1317 1.287 . S
C1317 C1316 1.287 . S
C1317 C1318 1.524 1_554 S
C1317 H1320 0.999 . S
C1318 H1288 0.950 . S
C1318 C1317 1.524 1_556 S
C1318 C1319 1.415 . S
C1319 H1289 0.950 . S
C1319 C1314 1.363 . S
C1319 C1318 1.415 . S
H1320 C1317 0.999 . S
H1321 C1302 0.913 . S
H1322 C1340 0.951 . S
H1323 C1342 0.951 . S
H1324 C1344 0.950 . S
H1325 C1345 0.950 . S
H1326 C1347 0.950 . S
H1327 C1350 0.950 . S
H1328 C1351 0.950 . S
H1329 C1353 0.950 . S
H1330 C1354 0.950 . S
H1331 C1355 0.951 . S
H1332 C1357 0.951 . S
H1333 C1359 0.950 . S
H1334 C1360 0.950 . S
H1335 C1362 0.950 1_554 S
H1336 C1365 0.950 . S
H1337 C1366 0.950 . S
H1338 C1368 0.950 . S
H1339 C1369 0.950 . S
C1340 H1322 0.951 . S
C1340 C1341 1.366 . S
C1340 C1342 1.388 . S
C1341 C1340 1.366 . S
C1341 C1345 1.385 . S
C1342 H1323 0.951 . S
C1342 C1340 1.388 . S
C1342 C1343 1.366 . S
C1343 C1342 1.366 . S
C1343 C1344 1.414 . S
C1343 C1346 1.499 . S
C1344 H1324 0.950 . S
C1344 C1343 1.414 . S
C1344 C1345 1.374 . S
C1345 H1325 0.950 . S
C1345 C1341 1.385 . S
C1345 C1344 1.374 . S
C1346 C1343 1.499 . S
C1346 C1347 1.373 . S
C1346 C1348 1.389 . S
C1347 H1326 0.950 . S
C1347 C1346 1.373 . S
C1347 C1363 1.377 . S
C1348 C1346 1.389 . S
C1348 C1349 1.524 . S
C1348 C1362 1.377 . S
C1349 C1348 1.524 . S
C1349 C1350 1.397 . S
C1349 C1354 1.363 1_556 S
C1350 H1327 0.950 . S
C1350 C1349 1.397 . S
C1350 C1351 1.334 . S
C1351 H1328 0.950 . S
C1351 C1350 1.334 . S
C1351 C1352 1.287 1_556 S
C1352 C1351 1.287 1_554 S
C1352 C1353 1.524 . S
C1352 H1371 0.913 . S
C1353 H1329 0.950 . S
C1353 C1352 1.524 . S
C1353 C1354 1.415 . S
C1354 H1330 0.950 . S
C1354 C1349 1.363 1_554 S
C1354 C1353 1.415 . S
C1355 H1331 0.951 . S
C1355 C1356 1.366 . S
C1355 C1357 1.388 . S
C1356 C1355 1.366 . S
C1356 C1360 1.385 1_556 S
C1357 H1332 0.951 . S
C1357 C1355 1.388 . S
C1357 C1358 1.366 . S
C1358 C1357 1.366 . S
C1358 C1359 1.414 1_556 S
C1358 C1361 1.499 . S
C1359 H1333 0.950 . S
C1359 C1358 1.414 1_554 S
C1359 C1360 1.374 . S
C1360 H1334 0.950 . S
C1360 C1356 1.385 1_554 S
C1360 C1359 1.374 . S
C1361 C1358 1.499 . S
C1361 C1362 1.373 . S
C1361 C1363 1.389 . S
C1362 H1335 0.950 1_556 S
C1362 C1348 1.377 . S
C1362 C1361 1.373 . S
C1363 C1347 1.377 . S
C1363 C1361 1.389 . S
C1363 C1364 1.524 . S
C1364 C1363 1.524 . S
C1364 C1365 1.397 . S
C1364 C1369 1.363 . S
C1365 H1336 0.950 . S
C1365 C1364 1.397 . S
C1365 C1366 1.334 . S
C1366 H1337 0.950 . S
C1366 C1365 1.334 . S
C1366 C1367 1.287 . S
C1367 C1366 1.287 . S
C1367 C1368 1.524 . S
C1367 H1370 0.999 . S
C1368 H1338 0.950 . S
C1368 C1367 1.524 . S
C1368 C1369 1.415 . S
C1369 H1339 0.950 . S
C1369 C1364 1.363 . S
C1369 C1368 1.415 . S
H1370 C1367 0.999 . S
H1371 C1352 0.913 . S
H1372 C1390 0.951 . S
H1373 C1392 0.951 . S
H1374 C1394 0.950 . S
H1375 C1395 0.950 . S
H1376 C1397 0.950 . S
H1377 C1400 0.950 . S
H1378 C1401 0.950 . S
H1379 C1403 0.950 . S
H1380 C1404 0.950 . S
H1381 C1405 0.951 . S
H1382 C1407 0.951 . S
H1383 C1409 0.950 . S
H1384 C1410 0.950 . S
H1385 C1412 0.950 . S
H1386 C1415 0.950 . S
H1387 C1416 0.950 . S
H1388 C1418 0.950 . S
H1389 C1419 0.950 . S
C1390 H1372 0.951 . S
C1390 C1391 1.366 . S
C1390 C1392 1.388 . S
C1391 C1390 1.366 . S
C1391 C1395 1.385 . S
C1392 H1373 0.951 . S
C1392 C1390 1.388 . S
C1392 C1393 1.366 . S
C1393 C1392 1.366 . S
C1393 C1394 1.414 . S
C1393 C1396 1.499 . S
C1394 H1374 0.950 . S
C1394 C1393 1.414 . S
C1394 C1395 1.374 . S
C1395 H1375 0.950 . S
C1395 C1391 1.385 . S
C1395 C1394 1.374 . S
C1396 C1393 1.499 . S
C1396 C1397 1.373 . S
C1396 C1398 1.389 . S
C1397 H1376 0.950 . S
C1397 C1396 1.373 . S
C1397 C1413 1.377 . S
C1398 C1396 1.389 . S
C1398 C1399 1.524 . S
C1398 C1412 1.377 . S
C1399 C1398 1.524 . S
C1399 C1400 1.397 . S
C1399 C1404 1.363 . S
C1400 H1377 0.950 . S
C1400 C1399 1.397 . S
C1400 C1401 1.334 . S
C1401 H1378 0.950 . S
C1401 C1400 1.334 . S
C1401 C1402 1.287 . S
C1402 C1401 1.287 . S
C1402 C1403 1.524 . S
C1402 H1421 0.913 . S
C1403 H1379 0.950 . S
C1403 C1402 1.524 . S
C1403 C1404 1.415 . S
C1404 H1380 0.950 . S
C1404 C1399 1.363 . S
C1404 C1403 1.415 . S
C1405 H1381 0.951 . S
C1405 C1406 1.370 . S
C1405 C1407 1.388 . S
C1406 C1405 1.370 . S
C1406 C1410 1.379 1_554 S
C1407 H1382 0.951 . S
C1407 C1405 1.388 . S
C1407 C1408 1.366 1_554 S
C1408 C1407 1.366 1_556 S
C1408 C1409 1.414 . S
C1408 C1411 1.499 . S
C1409 H1383 0.950 . S
C1409 C1408 1.414 . S
C1409 C1410 1.374 . S
C1410 H1384 0.950 . S
C1410 C1406 1.379 1_556 S
C1410 C1409 1.374 . S
C1411 C1408 1.499 . S
C1411 C1412 1.373 . S
C1411 C1413 1.389 . S
C1412 H1385 0.950 . S
C1412 C1398 1.377 . S
C1412 C1411 1.373 . S
C1413 C1397 1.377 . S
C1413 C1411 1.389 . S
C1413 C1414 1.524 . S
C1414 C1413 1.524 . S
C1414 C1415 1.397 . S
C1414 C1419 1.363 1_556 S
C1415 H1386 0.950 . S
C1415 C1414 1.397 . S
C1415 C1416 1.334 . S
C1416 H1387 0.950 . S
C1416 C1415 1.334 . S
C1416 C1417 1.287 . S
C1417 C1416 1.287 . S
C1417 C1418 1.524 1_556 S
C1417 H1420 0.999 . S
C1418 H1388 0.950 . S
C1418 C1417 1.524 1_554 S
C1418 C1419 1.415 . S
C1419 H1389 0.950 . S
C1419 C1414 1.363 1_554 S
C1419 C1418 1.415 . S
H1420 C1417 0.999 . S
H1421 C1402 0.913 . S
H1422 C1440 0.951 . S
H1423 C1442 0.951 . S
H1424 C1444 0.950 . S
H1425 C1445 0.950 . S
H1426 C1447 0.950 . S
H1427 C1450 0.950 . S
H1428 C1451 0.950 . S
H1429 C1453 0.950 . S
H1430 C1454 0.950 . S
H1431 C1455 0.951 . S
H1432 C1457 0.951 . S
H1433 C1459 0.950 . S
H1434 C1460 0.950 . S
H1435 C1462 0.950 . S
H1436 C1465 0.950 . S
H1437 C1466 0.950 . S
H1438 C1468 0.950 . S
H1439 C1469 0.950 . S
C1440 H1422 0.951 . S
C1440 C1441 1.366 . S
C1440 C1442 1.388 . S
C1441 C1440 1.366 . S
C1441 C1445 1.385 . S
C1442 H1423 0.951 . S
C1442 C1440 1.388 . S
C1442 C1443 1.366 . S
C1443 C1442 1.366 . S
C1443 C1444 1.414 . S
C1443 C1446 1.499 . S
C1444 H1424 0.950 . S
C1444 C1443 1.414 . S
C1444 C1445 1.374 . S
C1445 H1425 0.950 . S
C1445 C1441 1.385 . S
C1445 C1444 1.374 . S
C1446 C1443 1.499 . S
C1446 C1447 1.373 . S
C1446 C1448 1.389 . S
C1447 H1426 0.950 . S
C1447 C1446 1.373 . S
C1447 C1463 1.377 . S
C1448 C1446 1.389 . S
C1448 C1449 1.524 . S
C1448 C1462 1.377 . S
C1449 C1448 1.524 . S
C1449 C1450 1.397 . S
C1449 C1454 1.363 . S
C1450 H1427 0.950 . S
C1450 C1449 1.397 . S
C1450 C1451 1.334 . S
C1451 H1428 0.950 . S
C1451 C1450 1.334 . S
C1451 C1452 1.287 . S
C1452 C1451 1.287 . S
C1452 C1453 1.524 . S
C1452 H1471 0.913 . S
C1453 H1429 0.950 . S
C1453 C1452 1.524 . S
C1453 C1454 1.415 . S
C1454 H1430 0.950 . S
C1454 C1449 1.363 . S
C1454 C1453 1.415 . S
C1455 H1431 0.951 . S
C1455 C1456 1.366 . S
C1455 C1457 1.388 . S
C1456 C1455 1.366 . S
C1456 C1460 1.385 . S
C1457 H1432 0.951 . S
C1457 C1455 1.388 . S
C1457 C1458 1.366 . S
C1458 C1457 1.366 . S
C1458 C1459 1.414 . S
C1458 C1461 1.499 . S
C1459 H1433 0.950 . S
C1459 C1458 1.414 . S
C1459 C1460 1.374 . S
C1460 H1434 0.950 . S
C1460 C1456 1.385 . S
C1460 C1459 1.374 . S
C1461 C1458 1.499 . S
C1461 C1462 1.373 . S
C1461 C1463 1.389 . S
C1462 H1435 0.950 . S
C1462 C1448 1.377 . S
C1462 C1461 1.373 . S
C1463 C1447 1.377 . S
C1463 C1461 1.389 . S
C1463 C1464 1.524 . S
C1464 C1463 1.524 . S
C1464 C1465 1.397 . S
C1464 C1469 1.363 . S
C1465 H1436 0.950 . S
C1465 C1464 1.397 . S
C1465 C1466 1.334 1_554 S
C1466 H1437 0.950 . S
C1466 C1465 1.334 1_556 S
C1466 C1467 1.287 . S
C1467 C1466 1.287 . S
C1467 C1468 1.524 1_556 S
C1467 H1470 0.999 . S
C1468 H1438 0.950 . S
C1468 C1467 1.524 1_554 S
C1468 C1469 1.415 . S
C1469 H1439 0.950 . S
C1469 C1464 1.363 . S
C1469 C1468 1.415 . S
H1470 C1467 0.999 . S
H1471 C1452 0.913 . S
H1472 C1490 0.951 . S
H1473 C1492 0.951 . S
H1474 C1494 0.950 . S
H1475 C1495 0.950 . S
H1476 C1497 0.950 . S
H1477 C1500 0.950 . S
H1478 C1501 0.950 . S
H1479 C1503 0.950 . S
H1480 C1504 0.950 . S
H1481 C1505 0.951 . S
H1482 C1507 0.951 . S
H1483 C1509 0.950 . S
H1484 C1510 0.950 . S
H1485 C1512 0.950 . S
H1486 C1515 0.950 . S
H1487 C1516 0.950 . S
H1488 C1518 0.950 . S
H1489 C1519 0.950 . S
C1490 H1472 0.951 . S
C1490 C1491 1.366 . S
C1490 C1492 1.388 . S
C1491 C1490 1.366 . S
C1491 C1495 1.385 . S
C1492 H1473 0.951 . S
C1492 C1490 1.388 . S
C1492 C1493 1.366 . S
C1493 C1492 1.366 . S
C1493 C1494 1.414 . S
C1493 C1496 1.499 . S
C1494 H1474 0.950 . S
C1494 C1493 1.414 . S
C1494 C1495 1.374 . S
C1495 H1475 0.950 . S
C1495 C1491 1.385 . S
C1495 C1494 1.374 . S
C1496 C1493 1.499 . S
C1496 C1497 1.373 . S
C1496 C1498 1.389 . S
C1497 H1476 0.950 . S
C1497 C1496 1.373 . S
C1497 C1513 1.377 . S
C1498 C1496 1.389 . S
C1498 C1499 1.524 . S
C1498 C1512 1.377 . S
C1499 C1498 1.524 . S
C1499 C1500 1.397 . S
C1499 C1504 1.363 . S
C1500 H1477 0.950 . S
C1500 C1499 1.397 . S
C1500 C1501 1.334 . S
C1501 H1478 0.950 . S
C1501 C1500 1.334 . S
C1501 C1502 1.287 . S
C1502 C1501 1.287 . S
C1502 C1503 1.524 . S
C1502 H1521 0.913 . S
C1503 H1479 0.950 . S
C1503 C1502 1.524 . S
C1503 C1504 1.415 . S
C1504 H1480 0.950 . S
C1504 C1499 1.363 . S
C1504 C1503 1.415 . S
C1505 H1481 0.951 . S
C1505 C1506 1.366 . S
C1505 C1507 1.388 . S
C1506 C1505 1.366 . S
C1506 C1510 1.385 . S
C1507 H1482 0.951 . S
C1507 C1505 1.388 . S
C1507 C1508 1.366 . S
C1508 C1507 1.366 . S
C1508 C1509 1.414 . S
C1508 C1511 1.499 . S
C1509 H1483 0.950 . S
C1509 C1508 1.414 . S
C1509 C1510 1.374 . S
C1510 H1484 0.950 . S
C1510 C1506 1.385 . S
C1510 C1509 1.374 . S
C1511 C1508 1.499 . S
C1511 C1512 1.373 . S
C1511 C1513 1.389 . S
C1512 H1485 0.950 . S
C1512 C1498 1.377 . S
C1512 C1511 1.373 . S
C1513 C1497 1.377 . S
C1513 C1511 1.389 . S
C1513 C1514 1.524 . S
C1514 C1513 1.524 . S
C1514 C1515 1.397 . S
C1514 C1519 1.363 . S
C1515 H1486 0.950 . S
C1515 C1514 1.397 . S
C1515 C1516 1.334 . S
C1516 H1487 0.950 . S
C1516 C1515 1.334 . S
C1516 C1517 1.287 . S
C1517 C1516 1.287 . S
C1517 C1518 1.524 1_554 S
C1517 H1520 0.976 1_554 S
C1518 H1488 0.950 . S
C1518 C1517 1.524 1_556 S
C1518 C1519 1.415 1_556 S
C1519 H1489 0.950 . S
C1519 C1514 1.363 . S
C1519 C1518 1.415 1_554 S
H1520 C1517 0.976 1_556 S
H1521 C1502 0.913 . S
H1522 C1540 0.951 . S
H1523 C1542 0.951 . S
H1524 C1544 0.950 . S
H1525 C1545 0.950 . S
H1526 C1547 0.950 . S
H1527 C1550 0.950 . S
H1528 C1551 0.950 . S
H1529 C1553 0.950 . S
H1530 C1554 0.950 . S
H1531 C1555 0.951 . S
H1532 C1557 0.951 . S
H1533 C1559 0.950 . S
H1534 C1560 0.950 . S
H1535 C1562 0.950 . S
H1536 C1565 0.950 . S
H1537 C1566 0.950 . S
H1538 C1568 0.950 . S
H1539 C1569 0.950 . S
C1540 H1522 0.951 . S
C1540 C1541 1.366 . S
C1540 C1542 1.388 . S
C1541 C1540 1.366 . S
C1541 C1545 1.385 . S
C1542 H1523 0.951 . S
C1542 C1540 1.388 . S
C1542 C1543 1.366 . S
C1543 C1542 1.366 . S
C1543 C1544 1.414 . S
C1543 C1546 1.499 . S
C1544 H1524 0.950 . S
C1544 C1543 1.414 . S
C1544 C1545 1.374 . S
C1545 H1525 0.950 . S
C1545 C1541 1.385 . S
C1545 C1544 1.374 . S
C1546 C1543 1.499 . S
C1546 C1547 1.373 . S
C1546 C1548 1.389 . S
C1547 H1526 0.950 . S
C1547 C1546 1.373 . S
C1547 C1563 1.377 . S
C1548 C1546 1.389 . S
C1548 C1549 1.524 . S
C1548 C1562 1.377 . S
C1549 C1548 1.524 . S
C1549 C1550 1.397 . S
C1549 C1554 1.363 . S
C1550 H1527 0.950 . S
C1550 C1549 1.397 . S
C1550 C1551 1.334 . S
C1551 H1528 0.950 . S
C1551 C1550 1.334 . S
C1551 C1552 1.287 . S
C1552 C1551 1.287 . S
C1552 C1553 1.524 . S
C1552 H1571 0.913 . S
C1553 H1529 0.950 . S
C1553 C1552 1.524 . S
C1553 C1554 1.415 . S
C1554 H1530 0.950 . S
C1554 C1549 1.363 . S
C1554 C1553 1.415 . S
C1555 H1531 0.951 . S
C1555 C1556 1.366 . S
C1555 C1557 1.388 . S
C1556 C1555 1.366 . S
C1556 C1560 1.385 . S
C1557 H1532 0.951 . S
C1557 C1555 1.388 . S
C1557 C1558 1.366 . S
C1558 C1557 1.366 . S
C1558 C1559 1.414 . S
C1558 C1561 1.499 . S
C1559 H1533 0.950 . S
C1559 C1558 1.414 . S
C1559 C1560 1.374 . S
C1560 H1534 0.950 . S
C1560 C1556 1.385 . S
C1560 C1559 1.374 . S
C1561 C1558 1.499 . S
C1561 C1562 1.373 . S
C1561 C1563 1.389 . S
C1562 H1535 0.950 . S
C1562 C1548 1.377 . S
C1562 C1561 1.373 . S
C1563 C1547 1.377 . S
C1563 C1561 1.389 . S
C1563 C1564 1.524 . S
C1564 C1563 1.524 . S
C1564 C1565 1.397 . S
C1564 C1569 1.363 . S
C1565 H1536 0.950 . S
C1565 C1564 1.397 . S
C1565 C1566 1.334 1_554 S
C1566 H1537 0.950 . S
C1566 C1565 1.334 1_556 S
C1566 C1567 1.287 1_556 S
C1567 C1566 1.287 1_554 S
C1567 C1568 1.524 . S
C1567 H1570 0.999 1_554 S
C1568 H1538 0.950 . S
C1568 C1567 1.524 . S
C1568 C1569 1.415 . S
C1569 H1539 0.950 . S
C1569 C1564 1.363 . S
C1569 C1568 1.415 . S
H1570 C1567 0.999 1_556 S
H1571 C1552 0.913 . S
H1572 C1590 0.951 . S
H1573 C1592 0.951 . S
H1574 C1594 0.950 . S
H1575 C1595 0.950 . S
H1576 C1597 0.950 . S
H1577 C1600 0.950 . S
H1578 C1601 0.962 1_655 S
H1579 C1603 0.950 . S
H1580 C1604 0.950 . S
H1581 C1605 0.951 . S
H1582 C1607 0.951 . S
H1583 C1609 0.950 . S
H1584 C1610 0.950 . S
H1585 C1612 0.950 . S
H1586 C1615 0.950 . S
H1587 C1616 0.950 . S
H1588 C1618 0.950 . S
H1589 C1619 0.950 . S
C1590 H1572 0.951 . S
C1590 C1591 1.366 . S
C1590 C1592 1.388 . S
C1591 C1590 1.366 . S
C1591 C1595 1.385 . S
C1592 H1573 0.951 . S
C1592 C1590 1.388 . S
C1592 C1593 1.366 . S
C1593 C1592 1.366 . S
C1593 C1594 1.414 . S
C1593 C1596 1.499 . S
C1594 H1574 0.950 . S
C1594 C1593 1.414 . S
C1594 C1595 1.374 . S
C1595 H1575 0.950 . S
C1595 C1591 1.385 . S
C1595 C1594 1.374 . S
C1596 C1593 1.499 . S
C1596 C1597 1.373 . S
C1596 C1598 1.389 1_655 S
C1597 H1576 0.950 . S
C1597 C1596 1.373 . S
C1597 C1613 1.377 1_655 S
C1598 C1596 1.389 1_455 S
C1598 C1599 1.524 . S
C1598 C1612 1.377 . S
C1599 C1598 1.524 . S
C1599 C1600 1.397 . S
C1599 C1604 1.363 . S
C1600 H1577 0.950 . S
C1600 C1599 1.397 . S
C1600 C1601 1.313 . S
C1601 H1578 0.962 1_455 S
C1601 C1600 1.313 . S
C1601 C1602 1.299 . S
C1602 C1601 1.299 . S
C1602 C1603 1.524 . S
C1602 H1621 0.913 . S
C1603 H1579 0.950 . S
C1603 C1602 1.524 . S
C1603 C1604 1.415 . S
C1604 H1580 0.950 . S
C1604 C1599 1.363 . S
C1604 C1603 1.415 . S
C1605 H1581 0.951 . S
C1605 C1606 1.366 . S
C1605 C1607 1.388 . S
C1606 C1605 1.366 . S
C1606 C1610 1.385 . S
C1607 H1582 0.951 . S
C1607 C1605 1.388 . S
C1607 C1608 1.366 . S
C1608 C1607 1.366 . S
C1608 C1609 1.414 . S
C1608 C1611 1.499 . S
C1609 H1583 0.950 . S
C1609 C1608 1.414 . S
C1609 C1610 1.374 . S
C1610 H1584 0.950 . S
C1610 C1606 1.385 . S
C1610 C1609 1.374 . S
C1611 C1608 1.499 . S
C1611 C1612 1.373 . S
C1611 C1613 1.389 . S
C1612 H1585 0.950 . S
C1612 C1598 1.377 . S
C1612 C1611 1.373 . S
C1613 C1597 1.377 1_455 S
C1613 C1611 1.389 . S
C1613 C1614 1.524 . S
C1614 C1613 1.524 . S
C1614 C1615 1.397 . S
C1614 C1619 1.363 . S
C1615 H1586 0.950 . S
C1615 C1614 1.397 . S
C1615 C1616 1.334 . S
C1616 H1587 0.950 . S
C1616 C1615 1.334 . S
C1616 C1617 1.287 . S
C1617 C1616 1.287 . S
C1617 C1618 1.524 . S
C1617 H1620 0.999 . S
C1618 H1588 0.950 . S
C1618 C1617 1.524 . S
C1618 C1619 1.415 . S
C1619 H1589 0.950 . S
C1619 C1614 1.363 . S
C1619 C1618 1.415 . S
H1620 C1617 0.999 . S
H1621 C1602 0.913 . S
H1622 C1640 0.951 . S
H1623 C1642 0.951 . S
H1624 C1644 0.950 . S
H1625 C1645 0.950 . S
H1626 C1647 0.950 . S
H1627 C1650 0.950 . S
H1628 C1651 0.950 . S
H1629 C1653 0.950 . S
H1630 C1654 0.950 . S
H1631 C1655 0.951 . S
H1632 C1657 0.951 . S
H1633 C1659 0.950 . S
H1634 C1660 0.950 . S
H1635 C1662 0.950 . S
H1636 C1665 0.950 . S
H1637 C1666 0.950 . S
H1638 C1668 0.950 . S
H1639 C1669 0.950 . S
C1640 H1622 0.951 . S
C1640 C1641 1.366 . S
C1640 C1642 1.388 . S
C1641 C1640 1.366 . S
C1641 C1645 1.385 . S
C1642 H1623 0.951 . S
C1642 C1640 1.388 . S
C1642 C1643 1.366 . S
C1643 C1642 1.366 . S
C1643 C1644 1.414 . S
C1643 C1646 1.499 . S
C1644 H1624 0.950 . S
C1644 C1643 1.414 . S
C1644 C1645 1.374 . S
C1645 H1625 0.950 . S
C1645 C1641 1.385 . S
C1645 C1644 1.374 . S
C1646 C1643 1.499 . S
C1646 C1647 1.373 . S
C1646 C1648 1.389 . S
C1647 H1626 0.950 . S
C1647 C1646 1.373 . S
C1647 C1663 1.377 . S
C1648 C1646 1.389 . S
C1648 C1649 1.524 . S
C1648 C1662 1.377 . S
C1649 C1648 1.524 . S
C1649 C1650 1.397 . S
C1649 C1654 1.363 . S
C1650 H1627 0.950 . S
C1650 C1649 1.397 . S
C1650 C1651 1.334 . S
C1651 H1628 0.950 . S
C1651 C1650 1.334 . S
C1651 C1652 1.287 . S
C1652 C1651 1.287 . S
C1652 C1653 1.524 . S
C1652 H1671 0.913 . S
C1653 H1629 0.950 . S
C1653 C1652 1.524 . S
C1653 C1654 1.415 . S
C1654 H1630 0.950 . S
C1654 C1649 1.363 . S
C1654 C1653 1.415 . S
C1655 H1631 0.951 . S
C1655 C1656 1.366 . S
C1655 C1657 1.388 . S
C1656 C1655 1.366 . S
C1656 C1660 1.385 . S
C1657 H1632 0.951 . S
C1657 C1655 1.388 . S
C1657 C1658 1.366 . S
C1658 C1657 1.366 . S
C1658 C1659 1.414 . S
C1658 C1661 1.499 . S
C1659 H1633 0.950 . S
C1659 C1658 1.414 . S
C1659 C1660 1.374 . S
C1660 H1634 0.950 . S
C1660 C1656 1.385 . S
C1660 C1659 1.374 . S
C1661 C1658 1.499 . S
C1661 C1662 1.373 . S
C1661 C1663 1.389 . S
C1662 H1635 0.950 . S
C1662 C1648 1.377 . S
C1662 C1661 1.373 . S
C1663 C1647 1.377 . S
C1663 C1661 1.389 . S
C1663 C1664 1.524 . S
C1664 C1663 1.524 . S
C1664 C1665 1.397 . S
C1664 C1669 1.363 . S
C1665 H1636 0.950 . S
C1665 C1664 1.397 . S
C1665 C1666 1.334 . S
C1666 H1637 0.950 . S
C1666 C1665 1.334 . S
C1666 C1667 1.287 . S
C1667 C1666 1.287 . S
C1667 C1668 1.524 . S
C1667 H1670 0.999 . S
C1668 H1638 0.950 . S
C1668 C1667 1.524 . S
C1668 C1669 1.415 . S
C1669 H1639 0.950 . S
C1669 C1664 1.363 . S
C1669 C1668 1.415 . S
H1670 C1667 0.999 . S
H1671 C1652 0.913 . S
H1672 C1690 0.951 . S
H1673 C1692 0.951 . S
H1674 C1694 0.950 . S
H1675 C1695 0.950 . S
H1676 C1697 0.950 . S
H1677 C1700 0.950 . S
H1678 C1701 0.950 . S
H1679 C1703 0.950 . S
H1680 C1704 0.950 1_565 S
H1681 C1705 0.951 . S
H1682 C1707 0.951 . S
H1683 C1709 0.950 . S
H1684 C1710 0.950 . S
H1685 C1712 0.950 . S
H1686 C1715 0.950 . S
H1687 C1716 0.950 . S
H1688 C1718 0.950 1_545 S
H1689 C1719 0.950 . S
C1690 H1672 0.951 . S
C1690 C1691 1.366 . S
C1690 C1692 1.388 . S
C1691 C1690 1.366 . S
C1691 C1695 1.385 . S
C1692 H1673 0.951 . S
C1692 C1690 1.388 . S
C1692 C1693 1.366 . S
C1693 C1692 1.366 . S
C1693 C1694 1.414 . S
C1693 C1696 1.499 . S
C1694 H1674 0.950 . S
C1694 C1693 1.414 . S
C1694 C1695 1.374 . S
C1695 H1675 0.950 . S
C1695 C1691 1.385 . S
C1695 C1694 1.374 . S
C1696 C1693 1.499 . S
C1696 C1697 1.373 . S
C1696 C1698 1.389 . S
C1697 H1676 0.950 . S
C1697 C1696 1.373 . S
C1697 C1713 1.377 1_545 S
C1698 C1696 1.389 . S
C1698 C1699 1.524 . S
C1698 C1712 1.377 1_545 S
C1699 C1698 1.524 . S
C1699 C1700 1.397 . S
C1699 C1704 1.363 . S
C1700 H1677 0.950 . S
C1700 C1699 1.397 . S
C1700 C1701 1.334 . S
C1701 H1678 0.950 . S
C1701 C1700 1.334 . S
C1701 C1702 1.287 . S
C1702 C1701 1.287 . S
C1702 C1703 1.524 . S
C1702 H1721 0.913 . S
C1703 H1679 0.950 . S
C1703 C1702 1.524 . S
C1703 C1704 1.415 . S
C1704 H1680 0.950 1_545 S
C1704 C1699 1.363 . S
C1704 C1703 1.415 . S
C1705 H1681 0.951 . S
C1705 C1706 1.366 . S
C1705 C1707 1.388 . S
C1706 C1705 1.366 . S
C1706 C1710 1.385 . S
C1707 H1682 0.951 . S
C1707 C1705 1.388 . S
C1707 C1708 1.366 . S
C1708 C1707 1.366 . S
C1708 C1709 1.414 . S
C1708 C1711 1.499 . S
C1709 H1683 0.950 . S
C1709 C1708 1.414 . S
C1709 C1710 1.374 . S
C1710 H1684 0.950 . S
C1710 C1706 1.385 . S
C1710 C1709 1.374 . S
C1711 C1708 1.499 . S
C1711 C1712 1.373 . S
C1711 C1713 1.389 . S
C1712 H1685 0.950 . S
C1712 C1698 1.377 1_565 S
C1712 C1711 1.373 . S
C1713 C1697 1.377 1_565 S
C1713 C1711 1.389 . S
C1713 C1714 1.524 . S
C1714 C1713 1.524 . S
C1714 C1715 1.397 . S
C1714 C1719 1.363 1_565 S
C1715 H1686 0.950 . S
C1715 C1714 1.397 . S
C1715 C1716 1.334 . S
C1716 H1687 0.950 . S
C1716 C1715 1.334 . S
C1716 C1717 1.287 . S
C1717 C1716 1.287 . S
C1717 C1718 1.524 . S
C1717 H1720 0.999 . S
C1718 H1688 0.950 1_565 S
C1718 C1717 1.524 . S
C1718 C1719 1.415 1_565 S
C1719 H1689 0.950 . S
C1719 C1714 1.363 1_545 S
C1719 C1718 1.415 1_545 S
H1720 C1717 0.999 . S
H1721 C1702 0.913 . S
H1722 C1740 0.951 . S
H1723 C1742 0.951 . S
H1724 C1744 0.950 . S
H1725 C1745 0.950 . S
H1726 C1747 0.950 . S
H1727 C1750 0.950 . S
H1728 C1751 0.950 . S
H1729 C1753 0.950 . S
H1730 C1754 0.950 . S
H1731 C1755 0.951 . S
H1732 C1757 0.951 . S
H1733 C1759 0.950 . S
H1734 C1760 0.950 . S
H1735 C1762 0.950 . S
H1736 C1765 0.950 . S
H1737 C1766 0.950 . S
H1738 C1768 0.950 . S
H1739 C1769 0.950 . S
C1740 H1722 0.951 . S
C1740 C1741 1.366 . S
C1740 C1742 1.388 . S
C1741 C1740 1.366 . S
C1741 C1745 1.385 . S
C1742 H1723 0.951 . S
C1742 C1740 1.388 . S
C1742 C1743 1.366 . S
C1743 C1742 1.366 . S
C1743 C1744 1.414 . S
C1743 C1746 1.499 . S
C1744 H1724 0.950 . S
C1744 C1743 1.414 . S
C1744 C1745 1.374 . S
C1745 H1725 0.950 . S
C1745 C1741 1.385 . S
C1745 C1744 1.374 . S
C1746 C1743 1.499 . S
C1746 C1747 1.373 . S
C1746 C1748 1.389 . S
C1747 H1726 0.950 . S
C1747 C1746 1.373 . S
C1747 C1763 1.377 . S
C1748 C1746 1.389 . S
C1748 C1749 1.524 . S
C1748 C1762 1.377 . S
C1749 C1748 1.524 . S
C1749 C1750 1.397 . S
C1749 C1754 1.363 . S
C1750 H1727 0.950 . S
C1750 C1749 1.397 . S
C1750 C1751 1.334 . S
C1751 H1728 0.950 . S
C1751 C1750 1.334 . S
C1751 C1752 1.287 . S
C1752 C1751 1.287 . S
C1752 C1753 1.524 . S
C1752 H1771 0.913 . S
C1753 H1729 0.950 . S
C1753 C1752 1.524 . S
C1753 C1754 1.415 . S
C1754 H1730 0.950 . S
C1754 C1749 1.363 . S
C1754 C1753 1.415 . S
C1755 H1731 0.951 . S
C1755 C1756 1.366 . S
C1755 C1757 1.388 . S
C1756 C1755 1.366 . S
C1756 C1760 1.385 . S
C1757 H1732 0.951 . S
C1757 C1755 1.388 . S
C1757 C1758 1.366 . S
C1758 C1757 1.366 . S
C1758 C1759 1.414 . S
C1758 C1761 1.499 . S
C1759 H1733 0.950 . S
C1759 C1758 1.414 . S
C1759 C1760 1.374 . S
C1760 H1734 0.950 . S
C1760 C1756 1.385 . S
C1760 C1759 1.374 . S
C1761 C1758 1.499 . S
C1761 C1762 1.373 . S
C1761 C1763 1.389 . S
C1762 H1735 0.950 . S
C1762 C1748 1.377 . S
C1762 C1761 1.373 . S
C1763 C1747 1.377 . S
C1763 C1761 1.389 . S
C1763 C1764 1.524 . S
C1764 C1763 1.524 . S
C1764 C1765 1.397 . S
C1764 C1769 1.363 . S
C1765 H1736 0.950 . S
C1765 C1764 1.397 . S
C1765 C1766 1.334 . S
C1766 H1737 0.950 . S
C1766 C1765 1.334 . S
C1766 C1767 1.287 . S
C1767 C1766 1.287 . S
C1767 C1768 1.524 . S
C1767 H1770 0.999 . S
C1768 H1738 0.950 . S
C1768 C1767 1.524 . S
C1768 C1769 1.415 . S
C1769 H1739 0.950 . S
C1769 C1764 1.363 . S
C1769 C1768 1.415 . S
H1770 C1767 0.999 . S
H1771 C1752 0.913 . S
H1772 C1790 0.951 . S
H1773 C1792 0.951 . S
H1774 C1794 0.950 . S
H1775 C1795 0.950 . S
H1776 C1797 0.950 . S
H1777 C1800 0.950 . S
H1778 C1801 0.950 . S
H1779 C1803 0.950 . S
H1780 C1804 0.950 . S
H1781 C1805 0.951 . S
H1782 C1807 0.951 . S
H1783 C1809 0.950 . S
H1784 C1810 0.950 . S
H1785 C1812 0.950 . S
H1786 C1815 0.950 . S
H1787 C1816 0.950 . S
H1788 C1818 0.950 . S
H1789 C1819 0.950 . S
C1790 H1772 0.951 . S
C1790 C1791 1.366 . S
C1790 C1792 1.388 . S
C1791 C1790 1.366 . S
C1791 C1795 1.385 . S
C1792 H1773 0.951 . S
C1792 C1790 1.388 . S
C1792 C1793 1.366 . S
C1793 C1792 1.366 . S
C1793 C1794 1.414 . S
C1793 C1796 1.499 . S
C1794 H1774 0.950 . S
C1794 C1793 1.414 . S
C1794 C1795 1.374 . S
C1795 H1775 0.950 . S
C1795 C1791 1.385 . S
C1795 C1794 1.374 . S
C1796 C1793 1.499 . S
C1796 C1797 1.373 . S
C1796 C1798 1.389 . S
C1797 H1776 0.950 . S
C1797 C1796 1.373 . S
C1797 C1813 1.377 . S
C1798 C1796 1.389 . S
C1798 C1799 1.524 . S
C1798 C1812 1.377 . S
C1799 C1798 1.524 . S
C1799 C1800 1.397 . S
C1799 C1804 1.363 . S
C1800 H1777 0.950 . S
C1800 C1799 1.397 . S
C1800 C1801 1.334 . S
C1801 H1778 0.950 . S
C1801 C1800 1.334 . S
C1801 C1802 1.287 . S
C1802 C1801 1.287 . S
C1802 C1803 1.524 . S
C1802 H1821 0.913 . S
C1803 H1779 0.950 . S
C1803 C1802 1.524 . S
C1803 C1804 1.415 . S
C1804 H1780 0.950 . S
C1804 C1799 1.363 . S
C1804 C1803 1.415 . S
C1805 H1781 0.951 . S
C1805 C1806 1.366 . S
C1805 C1807 1.388 . S
C1806 C1805 1.366 . S
C1806 C1810 1.385 . S
C1807 H1782 0.951 . S
C1807 C1805 1.388 . S
C1807 C1808 1.366 . S
C1808 C1807 1.366 . S
C1808 C1809 1.414 . S
C1808 C1811 1.499 . S
C1809 H1783 0.950 . S
C1809 C1808 1.414 . S
C1809 C1810 1.374 . S
C1810 H1784 0.950 . S
C1810 C1806 1.385 . S
C1810 C1809 1.374 . S
C1811 C1808 1.499 . S
C1811 C1812 1.373 . S
C1811 C1813 1.389 . S
C1812 H1785 0.950 . S
C1812 C1798 1.377 . S
C1812 C1811 1.373 . S
C1813 C1797 1.377 . S
C1813 C1811 1.389 . S
C1813 C1814 1.524 . S
C1814 C1813 1.524 . S
C1814 C1815 1.397 . S
C1814 C1819 1.363 . S
C1815 H1786 0.950 . S
C1815 C1814 1.397 . S
C1815 C1816 1.334 . S
C1816 H1787 0.950 . S
C1816 C1815 1.334 . S
C1816 C1817 1.287 . S
C1817 C1816 1.287 . S
C1817 C1818 1.524 . S
C1817 H1820 0.999 . S
C1818 H1788 0.950 . S
C1818 C1817 1.524 . S
C1818 C1819 1.415 . S
C1819 H1789 0.950 . S
C1819 C1814 1.363 . S
C1819 C1818 1.415 . S
H1820 C1817 0.999 . S
H1821 C1802 0.913 . S
H1822 C1840 0.951 . S
H1823 C1842 0.951 . S
H1824 C1844 0.950 . S
H1825 C1845 0.950 . S
H1826 C1847 0.950 . S
H1827 C1850 0.950 . S
H1828 C1851 0.950 . S
H1829 C1853 0.950 . S
H1830 C1854 0.950 . S
H1831 C1855 0.951 . S
H1832 C1857 0.951 . S
H1833 C1859 0.950 . S
H1834 C1860 0.950 . S
H1835 C1862 0.950 . S
H1836 C1865 0.950 . S
H1837 C1866 0.950 . S
H1838 C1868 0.950 . S
H1839 C1869 0.950 . S
C1840 H1822 0.951 . S
C1840 C1841 1.366 . S
C1840 C1842 1.388 . S
C1841 C1840 1.366 . S
C1841 C1845 1.385 . S
C1842 H1823 0.951 . S
C1842 C1840 1.388 . S
C1842 C1843 1.366 . S
C1843 C1842 1.366 . S
C1843 C1844 1.414 . S
C1843 C1846 1.499 . S
C1844 H1824 0.950 . S
C1844 C1843 1.414 . S
C1844 C1845 1.374 . S
C1845 H1825 0.950 . S
C1845 C1841 1.385 . S
C1845 C1844 1.374 . S
C1846 C1843 1.499 . S
C1846 C1847 1.373 . S
C1846 C1848 1.389 . S
C1847 H1826 0.950 . S
C1847 C1846 1.373 . S
C1847 C1863 1.377 . S
C1848 C1846 1.389 . S
C1848 C1849 1.524 . S
C1848 C1862 1.377 . S
C1849 C1848 1.524 . S
C1849 C1850 1.397 . S
C1849 C1854 1.363 . S
C1850 H1827 0.950 . S
C1850 C1849 1.397 . S
C1850 C1851 1.334 . S
C1851 H1828 0.950 . S
C1851 C1850 1.334 . S
C1851 C1852 1.287 . S
C1852 C1851 1.287 . S
C1852 C1853 1.524 . S
C1852 H1871 0.913 . S
C1853 H1829 0.950 . S
C1853 C1852 1.524 . S
C1853 C1854 1.415 . S
C1854 H1830 0.950 . S
C1854 C1849 1.363 . S
C1854 C1853 1.415 . S
C1855 H1831 0.951 . S
C1855 C1856 1.366 . S
C1855 C1857 1.388 . S
C1856 C1855 1.366 . S
C1856 C1860 1.385 . S
C1857 H1832 0.951 . S
C1857 C1855 1.388 . S
C1857 C1858 1.366 . S
C1858 C1857 1.366 . S
C1858 C1859 1.414 . S
C1858 C1861 1.499 . S
C1859 H1833 0.950 . S
C1859 C1858 1.414 . S
C1859 C1860 1.374 . S
C1860 H1834 0.950 . S
C1860 C1856 1.385 . S
C1860 C1859 1.374 . S
C1861 C1858 1.499 . S
C1861 C1862 1.373 . S
C1861 C1863 1.389 . S
C1862 H1835 0.950 . S
C1862 C1848 1.377 . S
C1862 C1861 1.373 . S
C1863 C1847 1.377 . S
C1863 C1861 1.389 . S
C1863 C1864 1.524 . S
C1864 C1863 1.524 . S
C1864 C1865 1.397 . S
C1864 C1869 1.363 . S
C1865 H1836 0.950 . S
C1865 C1864 1.397 . S
C1865 C1866 1.334 . S
C1866 H1837 0.950 . S
C1866 C1865 1.334 . S
C1866 C1867 1.287 . S
C1867 C1866 1.287 . S
C1867 C1868 1.524 . S
C1867 H1870 0.999 . S
C1868 H1838 0.950 . S
C1868 C1867 1.524 . S
C1868 C1869 1.415 . S
C1869 H1839 0.950 . S
C1869 C1864 1.363 . S
C1869 C1868 1.415 . S
H1870 C1867 0.999 . S
H1871 C1852 0.913 . S
H1872 C1890 0.951 . S
H1873 C1892 0.951 . S
H1874 C1894 0.950 . S
H1875 C1895 0.950 . S
H1876 C1897 0.950 . S
H1877 C1900 0.950 . S
H1878 C1901 0.950 . S
H1879 C1903 0.950 . S
H1880 C1904 0.950 . S
H1881 C1905 0.951 . S
H1882 C1907 0.951 . S
H1883 C1909 0.950 . S
H1884 C1910 0.950 . S
H1885 C1912 0.950 . S
H1886 C1915 0.950 . S
H1887 C1916 0.950 . S
H1888 C1918 0.950 . S
H1889 C1919 0.950 . S
C1890 H1872 0.951 . S
C1890 C1891 1.366 . S
C1890 C1892 1.388 . S
C1891 C1890 1.366 . S
C1891 C1895 1.385 . S
C1892 H1873 0.951 . S
C1892 C1890 1.388 . S
C1892 C1893 1.366 . S
C1893 C1892 1.366 . S
C1893 C1894 1.414 . S
C1893 C1896 1.499 . S
C1894 H1874 0.950 . S
C1894 C1893 1.414 . S
C1894 C1895 1.374 . S
C1895 H1875 0.950 . S
C1895 C1891 1.385 . S
C1895 C1894 1.374 . S
C1896 C1893 1.499 . S
C1896 C1897 1.373 . S
C1896 C1898 1.389 . S
C1897 H1876 0.950 . S
C1897 C1896 1.373 . S
C1897 C1913 1.377 . S
C1898 C1896 1.389 . S
C1898 C1899 1.524 . S
C1898 C1912 1.377 . S
C1899 C1898 1.524 . S
C1899 C1900 1.397 . S
C1899 C1904 1.363 . S
C1900 H1877 0.950 . S
C1900 C1899 1.397 . S
C1900 C1901 1.334 . S
C1901 H1878 0.950 . S
C1901 C1900 1.334 . S
C1901 C1902 1.287 . S
C1902 C1901 1.287 . S
C1902 C1903 1.524 . S
C1902 H1921 0.913 . S
C1903 H1879 0.950 . S
C1903 C1902 1.524 . S
C1903 C1904 1.415 . S
C1904 H1880 0.950 . S
C1904 C1899 1.363 . S
C1904 C1903 1.415 . S
C1905 H1881 0.951 . S
C1905 C1906 1.366 . S
C1905 C1907 1.388 . S
C1906 C1905 1.366 . S
C1906 C1910 1.385 . S
C1907 H1882 0.951 . S
C1907 C1905 1.388 . S
C1907 C1908 1.366 . S
C1908 C1907 1.366 . S
C1908 C1909 1.414 . S
C1908 C1911 1.499 . S
C1909 H1883 0.950 . S
C1909 C1908 1.414 . S
C1909 C1910 1.374 . S
C1910 H1884 0.950 . S
C1910 C1906 1.385 . S
C1910 C1909 1.374 . S
C1911 C1908 1.499 . S
C1911 C1912 1.373 . S
C1911 C1913 1.389 . S
C1912 H1885 0.950 . S
C1912 C1898 1.377 . S
C1912 C1911 1.373 . S
C1913 C1897 1.377 . S
C1913 C1911 1.389 . S
C1913 C1914 1.524 . S
C1914 C1913 1.524 . S
C1914 C1915 1.397 . S
C1914 C1919 1.363 . S
C1915 H1886 0.950 . S
C1915 C1914 1.397 . S
C1915 C1916 1.334 . S
C1916 H1887 0.950 . S
C1916 C1915 1.334 . S
C1916 C1917 1.287 . S
C1917 C1916 1.287 . S
C1917 C1918 1.524 . S
C1917 H1920 0.999 . S
C1918 H1888 0.950 . S
C1918 C1917 1.524 . S
C1918 C1919 1.415 . S
C1919 H1889 0.950 . S
C1919 C1914 1.363 . S
C1919 C1918 1.415 . S
H1920 C1917 0.999 . S
H1921 C1902 0.913 . S
H1922 C1940 0.951 . S
H1923 C1942 0.951 . S
H1924 C1944 0.950 . S
H1925 C1945 0.950 . S
H1926 C1947 0.950 . S
H1927 C1950 0.950 . S
H1928 C1951 0.950 . S
H1929 C1953 0.950 . S
H1930 C1954 0.950 . S
H1931 C1955 0.951 . S
H1932 C1957 0.951 . S
H1933 C1959 0.950 . S
H1934 C1960 0.950 . S
H1935 C1962 0.950 . S
H1936 C1965 0.950 . S
H1937 C1966 0.950 . S
H1938 C1968 0.950 . S
H1939 C1969 0.950 . S
C1940 H1922 0.951 . S
C1940 C1941 1.366 . S
C1940 C1942 1.388 . S
C1941 C1940 1.366 . S
C1941 C1945 1.385 . S
C1942 H1923 0.951 . S
C1942 C1940 1.388 . S
C1942 C1943 1.366 . S
C1943 C1942 1.366 . S
C1943 C1944 1.414 . S
C1943 C1946 1.499 . S
C1944 H1924 0.950 . S
C1944 C1943 1.414 . S
C1944 C1945 1.374 . S
C1945 H1925 0.950 . S
C1945 C1941 1.385 . S
C1945 C1944 1.374 . S
C1946 C1943 1.499 . S
C1946 C1947 1.373 . S
C1946 C1948 1.389 . S
C1947 H1926 0.950 . S
C1947 C1946 1.373 . S
C1947 C1963 1.377 . S
C1948 C1946 1.389 . S
C1948 C1949 1.524 . S
C1948 C1962 1.377 . S
C1949 C1948 1.524 . S
C1949 C1950 1.397 . S
C1949 C1954 1.363 . S
C1950 H1927 0.950 . S
C1950 C1949 1.397 . S
C1950 C1951 1.334 . S
C1951 H1928 0.950 . S
C1951 C1950 1.334 . S
C1951 C1952 1.287 . S
C1952 C1951 1.287 . S
C1952 C1953 1.524 . S
C1952 H1971 0.913 . S
C1953 H1929 0.950 . S
C1953 C1952 1.524 . S
C1953 C1954 1.415 . S
C1954 H1930 0.950 . S
C1954 C1949 1.363 . S
C1954 C1953 1.415 . S
C1955 H1931 0.951 . S
C1955 C1956 1.366 . S
C1955 C1957 1.388 . S
C1956 C1955 1.366 . S
C1956 C1960 1.385 . S
C1957 H1932 0.951 . S
C1957 C1955 1.388 . S
C1957 C1958 1.366 . S
C1958 C1957 1.366 . S
C1958 C1959 1.414 . S
C1958 C1961 1.499 . S
C1959 H1933 0.950 . S
C1959 C1958 1.414 . S
C1959 C1960 1.374 . S
C1960 H1934 0.950 . S
C1960 C1956 1.385 . S
C1960 C1959 1.374 . S
C1961 C1958 1.499 . S
C1961 C1962 1.373 . S
C1961 C1963 1.389 . S
C1962 H1935 0.950 . S
C1962 C1948 1.377 . S
C1962 C1961 1.373 . S
C1963 C1947 1.377 . S
C1963 C1961 1.389 . S
C1963 C1964 1.524 . S
C1964 C1963 1.524 . S
C1964 C1965 1.397 . S
C1964 C1969 1.363 . S
C1965 H1936 0.950 . S
C1965 C1964 1.397 . S
C1965 C1966 1.334 . S
C1966 H1937 0.950 . S
C1966 C1965 1.334 . S
C1966 C1967 1.287 . S
C1967 C1966 1.287 . S
C1967 C1968 1.524 . S
C1967 H1970 0.999 . S
C1968 H1938 0.950 . S
C1968 C1967 1.524 . S
C1968 C1969 1.415 . S
C1969 H1939 0.950 . S
C1969 C1964 1.363 . S
C1969 C1968 1.415 . S
H1970 C1967 0.999 . S
H1971 C1952 0.913 . S
H1972 C1990 0.951 . S
H1973 C1992 0.951 . S
H1974 C1994 0.950 . S
H1975 C1995 0.950 . S
H1976 C1997 0.950 . S
H1977 C2000 0.950 . S
H1978 C2001 0.950 . S
H1979 C2003 0.950 . S
H1980 C2004 0.950 . S
H1981 C2005 0.951 . S
H1982 C2007 0.951 . S
H1983 C2009 0.950 . S
H1984 C2010 0.950 . S
H1985 C2012 0.950 . S
H1986 C2015 0.950 . S
H1987 C2016 0.950 . S
H1988 C2018 0.950 . S
H1989 C2019 0.950 . S
C1990 H1972 0.951 . S
C1990 C1991 1.366 . S
C1990 C1992 1.388 . S
C1991 C1990 1.366 . S
C1991 C1995 1.385 . S
C1992 H1973 0.951 . S
C1992 C1990 1.388 . S
C1992 C1993 1.366 . S
C1993 C1992 1.366 . S
C1993 C1994 1.414 . S
C1993 C1996 1.499 . S
C1994 H1974 0.950 . S
C1994 C1993 1.414 . S
C1994 C1995 1.374 . S
C1995 H1975 0.950 . S
C1995 C1991 1.385 . S
C1995 C1994 1.374 . S
C1996 C1993 1.499 . S
C1996 C1997 1.373 . S
C1996 C1998 1.389 . S
C1997 H1976 0.950 . S
C1997 C1996 1.373 . S
C1997 C2013 1.377 . S
C1998 C1996 1.389 . S
C1998 C1999 1.524 . S
C1998 C2012 1.377 . S
C1999 C1998 1.524 . S
C1999 C2000 1.397 . S
C1999 C2004 1.363 . S
C2000 H1977 0.950 . S
C2000 C1999 1.397 . S
C2000 C2001 1.334 . S
C2001 H1978 0.950 . S
C2001 C2000 1.334 . S
C2001 C2002 1.287 . S
C2002 C2001 1.287 . S
C2002 C2003 1.524 . S
C2002 H2021 0.913 . S
C2003 H1979 0.950 . S
C2003 C2002 1.524 . S
C2003 C2004 1.415 . S
C2004 H1980 0.950 . S
C2004 C1999 1.363 . S
C2004 C2003 1.415 . S
C2005 H1981 0.951 . S
C2005 C2006 1.366 . S
C2005 C2007 1.388 . S
C2006 C2005 1.366 . S
C2006 C2010 1.385 . S
C2007 H1982 0.951 . S
C2007 C2005 1.388 . S
C2007 C2008 1.366 . S
C2008 C2007 1.366 . S
C2008 C2009 1.414 . S
C2008 C2011 1.499 . S
C2009 H1983 0.950 . S
C2009 C2008 1.414 . S
C2009 C2010 1.374 . S
C2010 H1984 0.950 . S
C2010 C2006 1.385 . S
C2010 C2009 1.374 . S
C2011 C2008 1.499 . S
C2011 C2012 1.373 . S
C2011 C2013 1.389 . S
C2012 H1985 0.950 . S
C2012 C1998 1.377 . S
C2012 C2011 1.373 . S
C2013 C1997 1.377 . S
C2013 C2011 1.389 . S
C2013 C2014 1.524 . S
C2014 C2013 1.524 . S
C2014 C2015 1.397 . S
C2014 C2019 1.363 . S
C2015 H1986 0.950 . S
C2015 C2014 1.397 . S
C2015 C2016 1.334 . S
C2016 H1987 0.950 . S
C2016 C2015 1.334 . S
C2016 C2017 1.287 . S
C2017 C2016 1.287 . S
C2017 C2018 1.524 . S
C2017 H2020 0.999 . S
C2018 H1988 0.950 . S
C2018 C2017 1.524 . S
C2018 C2019 1.415 . S
C2019 H1989 0.950 . S
C2019 C2014 1.363 . S
C2019 C2018 1.415 . S
H2020 C2017 0.999 . S
H2021 C2002 0.913 . S
H2022 C2040 0.951 . S
H2023 C2042 0.951 . S
H2024 C2044 0.950 1_565 S
H2025 C2045 0.950 . S
H2026 C2047 0.950 . S
H2027 C2050 0.950 . S
H2028 C2051 0.950 . S
H2029 C2053 0.950 . S
H2030 C2054 0.950 . S
H2031 C2055 0.951 . S
H2032 C2057 0.951 . S
H2033 C2059 0.950 . S
H2034 C2060 0.950 . S
H2035 C2062 0.950 . S
H2036 C2065 0.950 . S
H2037 C2066 0.950 . S
H2038 C2068 0.950 . S
H2039 C2069 0.950 . S
C2040 H2022 0.951 . S
C2040 C2041 1.366 . S
C2040 C2042 1.388 . S
C2041 C2040 1.366 . S
C2041 C2045 1.385 . S
C2042 H2023 0.951 . S
C2042 C2040 1.388 . S
C2042 C2043 1.366 1_545 S
C2043 C2042 1.366 1_565 S
C2043 C2044 1.414 1_565 S
C2043 C2046 1.499 . S
C2044 H2024 0.950 1_545 S
C2044 C2043 1.414 1_545 S
C2044 C2045 1.374 . S
C2045 H2025 0.950 . S
C2045 C2041 1.385 . S
C2045 C2044 1.374 . S
C2046 C2043 1.499 . S
C2046 C2047 1.373 . S
C2046 C2048 1.389 . S
C2047 H2026 0.950 . S
C2047 C2046 1.373 . S
C2047 C2063 1.377 . S
C2048 C2046 1.389 . S
C2048 C2049 1.524 . S
C2048 C2062 1.377 . S
C2049 C2048 1.524 . S
C2049 C2050 1.397 . S
C2049 C2054 1.363 . S
C2050 H2027 0.950 . S
C2050 C2049 1.397 . S
C2050 C2051 1.334 . S
C2051 H2028 0.950 . S
C2051 C2050 1.334 . S
C2051 C2052 1.287 . S
C2052 C2051 1.287 . S
C2052 C2053 1.524 . S
C2052 H2071 0.913 . S
C2053 H2029 0.950 . S
C2053 C2052 1.524 . S
C2053 C2054 1.415 . S
C2054 H2030 0.950 . S
C2054 C2049 1.363 . S
C2054 C2053 1.415 . S
C2055 H2031 0.951 . S
C2055 C2056 1.366 . S
C2055 C2057 1.388 . S
C2056 C2055 1.366 . S
C2056 C2060 1.385 . S
C2057 H2032 0.951 . S
C2057 C2055 1.388 . S
C2057 C2058 1.366 . S
C2058 C2057 1.366 . S
C2058 C2059 1.414 . S
C2058 C2061 1.499 . S
C2059 H2033 0.950 . S
C2059 C2058 1.414 . S
C2059 C2060 1.374 . S
C2060 H2034 0.950 . S
C2060 C2056 1.385 . S
C2060 C2059 1.374 . S
C2061 C2058 1.499 . S
C2061 C2062 1.373 . S
C2061 C2063 1.389 . S
C2062 H2035 0.950 . S
C2062 C2048 1.377 . S
C2062 C2061 1.373 . S
C2063 C2047 1.377 . S
C2063 C2061 1.389 . S
C2063 C2064 1.524 . S
C2064 C2063 1.524 . S
C2064 C2065 1.397 . S
C2064 C2069 1.363 . S
C2065 H2036 0.950 . S
C2065 C2064 1.397 . S
C2065 C2066 1.334 . S
C2066 H2037 0.950 . S
C2066 C2065 1.334 . S
C2066 C2067 1.287 . S
C2067 C2066 1.287 . S
C2067 C2068 1.524 . S
C2067 H2070 0.999 . S
C2068 H2038 0.950 . S
C2068 C2067 1.524 . S
C2068 C2069 1.415 . S
C2069 H2039 0.950 . S
C2069 C2064 1.363 . S
C2069 C2068 1.415 . S
H2070 C2067 0.999 . S
H2071 C2052 0.913 . S
H2072 C2090 0.951 . S
H2073 C2092 0.951 . S
H2074 C2094 0.950 . S
H2075 C2095 0.950 . S
H2076 C2097 0.950 . S
H2077 C2100 0.950 . S
H2078 C2101 0.950 . S
H2079 C2103 0.950 . S
H2080 C2104 0.950 . S
H2081 C2105 0.951 . S
H2082 C2107 0.951 . S
H2083 C2109 0.950 . S
H2084 C2110 0.950 . S
H2085 C2112 0.950 . S
H2086 C2115 0.950 . S
H2087 C2116 0.950 . S
H2088 C2118 0.950 . S
H2089 C2119 0.950 . S
C2090 H2072 0.951 . S
C2090 C2091 1.366 . S
C2090 C2092 1.388 1_655 S
C2091 C2090 1.366 . S
C2091 C2095 1.385 . S
C2092 H2073 0.951 . S
C2092 C2090 1.388 1_455 S
C2092 C2093 1.366 . S
C2093 C2092 1.366 . S
C2093 C2094 1.414 . S
C2093 C2096 1.499 . S
C2094 H2074 0.950 . S
C2094 C2093 1.414 . S
C2094 C2095 1.374 1_455 S
C2095 H2075 0.950 . S
C2095 C2091 1.385 . S
C2095 C2094 1.374 1_655 S
C2096 C2093 1.499 . S
C2096 C2097 1.373 . S
C2096 C2098 1.389 . S
C2097 H2076 0.950 . S
C2097 C2096 1.373 . S
C2097 C2113 1.377 . S
C2098 C2096 1.389 . S
C2098 C2099 1.524 . S
C2098 C2112 1.377 . S
C2099 C2098 1.524 . S
C2099 C2100 1.397 . S
C2099 C2104 1.363 . S
C2100 H2077 0.950 . S
C2100 C2099 1.397 . S
C2100 C2101 1.334 1_455 S
C2101 H2078 0.950 . S
C2101 C2100 1.334 1_655 S
C2101 C2102 1.287 . S
C2102 C2101 1.287 . S
C2102 C2103 1.524 1_655 S
C2102 H2121 0.912 . S
C2103 H2079 0.950 . S
C2103 C2102 1.524 1_455 S
C2103 C2104 1.415 . S
C2104 H2080 0.950 . S
C2104 C2099 1.363 . S
C2104 C2103 1.415 . S
C2105 H2081 0.951 . S
C2105 C2106 1.366 . S
C2105 C2107 1.388 . S
C2106 C2105 1.366 . S
C2106 C2110 1.385 . S
C2107 H2082 0.951 . S
C2107 C2105 1.388 . S
C2107 C2108 1.366 . S
C2108 C2107 1.366 . S
C2108 C2109 1.414 . S
C2108 C2111 1.499 . S
C2109 H2083 0.950 . S
C2109 C2108 1.414 . S
C2109 C2110 1.374 . S
C2110 H2084 0.950 . S
C2110 C2106 1.385 . S
C2110 C2109 1.374 . S
C2111 C2108 1.499 . S
C2111 C2112 1.373 . S
C2111 C2113 1.389 . S
C2112 H2085 0.950 . S
C2112 C2098 1.377 . S
C2112 C2111 1.373 . S
C2113 C2097 1.377 . S
C2113 C2111 1.389 . S
C2113 C2114 1.524 . S
C2114 C2113 1.524 . S
C2114 C2115 1.397 . S
C2114 C2119 1.363 . S
C2115 H2086 0.950 . S
C2115 C2114 1.397 . S
C2115 C2116 1.334 . S
C2116 H2087 0.950 . S
C2116 C2115 1.334 . S
C2116 C2117 1.287 . S
C2117 C2116 1.287 . S
C2117 C2118 1.524 . S
C2117 H2120 0.999 . S
C2118 H2088 0.950 . S
C2118 C2117 1.524 . S
C2118 C2119 1.415 . S
C2119 H2089 0.950 . S
C2119 C2114 1.363 . S
C2119 C2118 1.415 . S
H2120 C2117 0.999 . S
H2121 C2102 0.912 . S
H2122 C2140 0.951 . S
H2123 C2142 0.951 . S
H2124 C2144 0.950 . S
H2125 C2145 0.950 . S
H2126 C2147 0.950 . S
H2127 C2150 0.950 . S
H2128 C2151 0.950 . S
H2129 C2153 0.950 . S
H2130 C2154 0.950 . S
H2131 C2155 0.951 . S
H2132 C2157 0.951 . S
H2133 C2159 0.950 . S
H2134 C2160 0.950 . S
H2135 C2162 0.950 . S
H2136 C2165 0.950 . S
H2137 C2166 0.950 . S
H2138 C2168 0.950 . S
H2139 C2169 0.950 . S
C2140 H2122 0.951 . S
C2140 C2141 1.366 . S
C2140 C2142 1.388 . S
C2141 C2140 1.366 . S
C2141 C2145 1.385 . S
C2142 H2123 0.951 . S
C2142 C2140 1.388 . S
C2142 C2143 1.366 . S
C2143 C2142 1.366 . S
C2143 C2144 1.414 . S
C2143 C2146 1.499 . S
C2144 H2124 0.950 . S
C2144 C2143 1.414 . S
C2144 C2145 1.374 . S
C2145 H2125 0.950 . S
C2145 C2141 1.385 . S
C2145 C2144 1.374 . S
C2146 C2143 1.499 . S
C2146 C2147 1.373 . S
C2146 C2148 1.389 . S
C2147 H2126 0.950 . S
C2147 C2146 1.373 . S
C2147 C2163 1.377 . S
C2148 C2146 1.389 . S
C2148 C2149 1.524 . S
C2148 C2162 1.377 . S
C2149 C2148 1.524 . S
C2149 C2150 1.397 . S
C2149 C2154 1.363 . S
C2150 H2127 0.950 . S
C2150 C2149 1.397 . S
C2150 C2151 1.334 . S
C2151 H2128 0.950 . S
C2151 C2150 1.334 . S
C2151 C2152 1.287 . S
C2152 C2151 1.287 . S
C2152 C2153 1.524 . S
C2152 H2171 0.913 . S
C2153 H2129 0.950 . S
C2153 C2152 1.524 . S
C2153 C2154 1.415 . S
C2154 H2130 0.950 . S
C2154 C2149 1.363 . S
C2154 C2153 1.415 . S
C2155 H2131 0.951 . S
C2155 C2156 1.366 . S
C2155 C2157 1.388 . S
C2156 C2155 1.366 . S
C2156 C2160 1.385 . S
C2157 H2132 0.951 . S
C2157 C2155 1.388 . S
C2157 C2158 1.366 . S
C2158 C2157 1.366 . S
C2158 C2159 1.414 . S
C2158 C2161 1.499 . S
C2159 H2133 0.950 . S
C2159 C2158 1.414 . S
C2159 C2160 1.374 . S
C2160 H2134 0.950 . S
C2160 C2156 1.385 . S
C2160 C2159 1.374 . S
C2161 C2158 1.499 . S
C2161 C2162 1.373 . S
C2161 C2163 1.389 . S
C2162 H2135 0.950 . S
C2162 C2148 1.377 . S
C2162 C2161 1.373 . S
C2163 C2147 1.377 . S
C2163 C2161 1.389 . S
C2163 C2164 1.524 . S
C2164 C2163 1.524 . S
C2164 C2165 1.397 . S
C2164 C2169 1.363 . S
C2165 H2136 0.950 . S
C2165 C2164 1.397 . S
C2165 C2166 1.334 . S
C2166 H2137 0.950 . S
C2166 C2165 1.334 . S
C2166 C2167 1.287 . S
C2167 C2166 1.287 . S
C2167 C2168 1.524 . S
C2167 H2170 0.999 . S
C2168 H2138 0.950 . S
C2168 C2167 1.524 . S
C2168 C2169 1.415 . S
C2169 H2139 0.950 . S
C2169 C2164 1.363 . S
C2169 C2168 1.415 . S
H2170 C2167 0.999 . S
H2171 C2152 0.913 . S
H2172 C2190 0.951 . S
H2173 C2192 0.951 . S
H2174 C2194 0.950 . S
H2175 C2195 0.950 . S
H2176 C2197 0.950 . S
H2177 C2200 0.950 . S
H2178 C2201 0.950 . S
H2179 C2203 0.950 . S
H2180 C2204 0.950 . S
H2181 C2205 0.951 . S
H2182 C2207 0.951 . S
H2183 C2209 0.950 . S
H2184 C2210 0.950 . S
H2185 C2212 0.950 . S
H2186 C2215 0.950 . S
H2187 C2216 0.950 . S
H2188 C2218 0.950 . S
H2189 C2219 0.950 . S
C2190 H2172 0.951 . S
C2190 C2191 1.366 . S
C2190 C2192 1.388 . S
C2191 C2190 1.366 . S
C2191 C2195 1.385 . S
C2192 H2173 0.951 . S
C2192 C2190 1.388 . S
C2192 C2193 1.366 . S
C2193 C2192 1.366 . S
C2193 C2194 1.414 . S
C2193 C2196 1.499 . S
C2194 H2174 0.950 . S
C2194 C2193 1.414 . S
C2194 C2195 1.374 . S
C2195 H2175 0.950 . S
C2195 C2191 1.385 . S
C2195 C2194 1.374 . S
C2196 C2193 1.499 . S
C2196 C2197 1.373 . S
C2196 C2198 1.389 . S
C2197 H2176 0.950 . S
C2197 C2196 1.373 . S
C2197 C2213 1.377 . S
C2198 C2196 1.389 . S
C2198 C2199 1.524 . S
C2198 C2212 1.377 . S
C2199 C2198 1.524 . S
C2199 C2200 1.397 . S
C2199 C2204 1.363 . S
C2200 H2177 0.950 . S
C2200 C2199 1.397 . S
C2200 C2201 1.334 . S
C2201 H2178 0.950 . S
C2201 C2200 1.334 . S
C2201 C2202 1.287 . S
C2202 C2201 1.287 . S
C2202 C2203 1.524 . S
C2202 H2221 0.913 . S
C2203 H2179 0.950 . S
C2203 C2202 1.524 . S
C2203 C2204 1.415 . S
C2204 H2180 0.950 . S
C2204 C2199 1.363 . S
C2204 C2203 1.415 . S
C2205 H2181 0.951 . S
C2205 C2206 1.366 . S
C2205 C2207 1.388 . S
C2206 C2205 1.366 . S
C2206 C2210 1.385 . S
C2207 H2182 0.951 . S
C2207 C2205 1.388 . S
C2207 C2208 1.366 . S
C2208 C2207 1.366 . S
C2208 C2209 1.414 . S
C2208 C2211 1.499 . S
C2209 H2183 0.950 . S
C2209 C2208 1.414 . S
C2209 C2210 1.374 . S
C2210 H2184 0.950 . S
C2210 C2206 1.385 . S
C2210 C2209 1.374 . S
C2211 C2208 1.499 . S
C2211 C2212 1.373 . S
C2211 C2213 1.389 . S
C2212 H2185 0.950 . S
C2212 C2198 1.377 . S
C2212 C2211 1.373 . S
C2213 C2197 1.377 . S
C2213 C2211 1.389 . S
C2213 C2214 1.524 . S
C2214 C2213 1.524 . S
C2214 C2215 1.397 . S
C2214 C2219 1.363 . S
C2215 H2186 0.950 . S
C2215 C2214 1.397 . S
C2215 C2216 1.334 . S
C2216 H2187 0.950 . S
C2216 C2215 1.334 . S
C2216 C2217 1.287 . S
C2217 C2216 1.287 . S
C2217 C2218 1.524 . S
C2217 H2220 0.999 . S
C2218 H2188 0.950 . S
C2218 C2217 1.524 . S
C2218 C2219 1.415 . S
C2219 H2189 0.950 . S
C2219 C2214 1.363 . S
C2219 C2218 1.415 . S
H2220 C2217 0.999 . S
H2221 C2202 0.913 . S
H2222 C2240 0.951 . S
H2223 C2242 0.951 . S
H2224 C2244 0.950 . S
H2225 C2245 0.950 . S
H2226 C2247 0.950 . S
H2227 C2250 0.950 . S
H2228 C2251 0.950 . S
H2229 C2253 0.950 . S
H2230 C2254 0.950 . S
H2231 C2255 0.951 . S
H2232 C2257 0.951 . S
H2233 C2259 0.950 . S
H2234 C2260 0.950 . S
H2235 C2262 0.950 . S
H2236 C2265 0.950 . S
H2237 C2266 0.950 . S
H2238 C2268 0.950 . S
H2239 C2269 0.950 . S
C2240 H2222 0.951 . S
C2240 C2241 1.366 . S
C2240 C2242 1.388 . S
C2241 C2240 1.366 . S
C2241 C2245 1.385 . S
C2242 H2223 0.951 . S
C2242 C2240 1.388 . S
C2242 C2243 1.366 . S
C2243 C2242 1.366 . S
C2243 C2244 1.414 . S
C2243 C2246 1.499 . S
C2244 H2224 0.950 . S
C2244 C2243 1.414 . S
C2244 C2245 1.374 . S
C2245 H2225 0.950 . S
C2245 C2241 1.385 . S
C2245 C2244 1.374 . S
C2246 C2243 1.499 . S
C2246 C2247 1.373 . S
C2246 C2248 1.389 . S
C2247 H2226 0.950 . S
C2247 C2246 1.373 . S
C2247 C2263 1.377 . S
C2248 C2246 1.389 . S
C2248 C2249 1.524 . S
C2248 C2262 1.377 . S
C2249 C2248 1.524 . S
C2249 C2250 1.397 . S
C2249 C2254 1.363 . S
C2250 H2227 0.950 . S
C2250 C2249 1.397 . S
C2250 C2251 1.334 . S
C2251 H2228 0.950 . S
C2251 C2250 1.334 . S
C2251 C2252 1.287 . S
C2252 C2251 1.287 . S
C2252 C2253 1.524 . S
C2252 H2271 0.913 . S
C2253 H2229 0.950 . S
C2253 C2252 1.524 . S
C2253 C2254 1.415 . S
C2254 H2230 0.950 . S
C2254 C2249 1.363 . S
C2254 C2253 1.415 . S
C2255 H2231 0.951 . S
C2255 C2256 1.366 . S
C2255 C2257 1.388 . S
C2256 C2255 1.366 . S
C2256 C2260 1.385 . S
C2257 H2232 0.951 . S
C2257 C2255 1.388 . S
C2257 C2258 1.366 . S
C2258 C2257 1.366 . S
C2258 C2259 1.414 . S
C2258 C2261 1.499 . S
C2259 H2233 0.950 . S
C2259 C2258 1.414 . S
C2259 C2260 1.374 . S
C2260 H2234 0.950 . S
C2260 C2256 1.385 . S
C2260 C2259 1.374 . S
C2261 C2258 1.499 . S
C2261 C2262 1.373 . S
C2261 C2263 1.389 . S
C2262 H2235 0.950 . S
C2262 C2248 1.377 . S
C2262 C2261 1.373 . S
C2263 C2247 1.377 . S
C2263 C2261 1.389 . S
C2263 C2264 1.524 . S
C2264 C2263 1.524 . S
C2264 C2265 1.397 . S
C2264 C2269 1.363 . S
C2265 H2236 0.950 . S
C2265 C2264 1.397 . S
C2265 C2266 1.334 . S
C2266 H2237 0.950 . S
C2266 C2265 1.334 . S
C2266 C2267 1.287 . S
C2267 C2266 1.287 . S
C2267 C2268 1.524 . S
C2267 H2270 0.999 . S
C2268 H2238 0.950 . S
C2268 C2267 1.524 . S
C2268 C2269 1.415 . S
C2269 H2239 0.950 . S
C2269 C2264 1.363 . S
C2269 C2268 1.415 . S
H2270 C2267 0.999 . S
H2271 C2252 0.913 . S
H2272 C2290 0.951 . S
H2273 C2292 0.951 . S
H2274 C2294 0.950 . S
H2275 C2295 0.950 . S
H2276 C2297 0.950 . S
H2277 C2300 0.950 . S
H2278 C2301 0.950 . S
H2279 C2303 0.950 . S
H2280 C2304 0.950 . S
H2281 C2305 0.951 . S
H2282 C2307 0.951 . S
H2283 C2309 0.950 . S
H2284 C2310 0.950 . S
H2285 C2312 0.950 . S
H2286 C2315 0.950 . S
H2287 C2316 0.950 . S
H2288 C2318 0.950 . S
H2289 C2319 0.950 . S
C2290 H2272 0.951 . S
C2290 C2291 1.366 . S
C2290 C2292 1.388 . S
C2291 C2290 1.366 . S
C2291 C2295 1.385 . S
C2292 H2273 0.951 . S
C2292 C2290 1.388 . S
C2292 C2293 1.366 . S
C2293 C2292 1.366 . S
C2293 C2294 1.414 . S
C2293 C2296 1.499 . S
C2294 H2274 0.950 . S
C2294 C2293 1.414 . S
C2294 C2295 1.374 . S
C2295 H2275 0.950 . S
C2295 C2291 1.385 . S
C2295 C2294 1.374 . S
C2296 C2293 1.499 . S
C2296 C2297 1.373 . S
C2296 C2298 1.389 . S
C2297 H2276 0.950 . S
C2297 C2296 1.373 . S
C2297 C2313 1.377 . S
C2298 C2296 1.389 . S
C2298 C2299 1.524 . S
C2298 C2312 1.377 . S
C2299 C2298 1.524 . S
C2299 C2300 1.397 . S
C2299 C2304 1.363 . S
C2300 H2277 0.950 . S
C2300 C2299 1.397 . S
C2300 C2301 1.334 . S
C2301 H2278 0.950 . S
C2301 C2300 1.334 . S
C2301 C2302 1.287 . S
C2302 C2301 1.287 . S
C2302 C2303 1.524 . S
C2302 H2321 0.913 . S
C2303 H2279 0.950 . S
C2303 C2302 1.524 . S
C2303 C2304 1.415 . S
C2304 H2280 0.950 . S
C2304 C2299 1.363 . S
C2304 C2303 1.415 . S
C2305 H2281 0.951 . S
C2305 C2306 1.366 . S
C2305 C2307 1.388 . S
C2306 C2305 1.366 . S
C2306 C2310 1.385 . S
C2307 H2282 0.951 . S
C2307 C2305 1.388 . S
C2307 C2308 1.366 . S
C2308 C2307 1.366 . S
C2308 C2309 1.414 . S
C2308 C2311 1.499 . S
C2309 H2283 0.950 . S
C2309 C2308 1.414 . S
C2309 C2310 1.374 . S
C2310 H2284 0.950 . S
C2310 C2306 1.385 . S
C2310 C2309 1.374 . S
C2311 C2308 1.499 . S
C2311 C2312 1.373 . S
C2311 C2313 1.389 . S
C2312 H2285 0.950 . S
C2312 C2298 1.377 . S
C2312 C2311 1.373 . S
C2313 C2297 1.377 . S
C2313 C2311 1.389 . S
C2313 C2314 1.524 . S
C2314 C2313 1.524 . S
C2314 C2315 1.397 . S
C2314 C2319 1.363 . S
C2315 H2286 0.950 . S
C2315 C2314 1.397 . S
C2315 C2316 1.334 . S
C2316 H2287 0.950 . S
C2316 C2315 1.334 . S
C2316 C2317 1.287 . S
C2317 C2316 1.287 . S
C2317 C2318 1.524 . S
C2317 H2320 0.999 . S
C2318 H2288 0.950 . S
C2318 C2317 1.524 . S
C2318 C2319 1.415 . S
C2319 H2289 0.950 . S
C2319 C2314 1.363 . S
C2319 C2318 1.415 . S
H2320 C2317 0.999 . S
H2321 C2302 0.913 . S
H2322 C2340 0.951 . S
H2323 C2342 0.951 . S
H2324 C2344 0.950 . S
H2325 C2345 0.950 . S
H2326 C2347 0.950 . S
H2327 C2350 0.950 . S
H2328 C2351 0.950 . S
H2329 C2353 0.950 . S
H2330 C2354 0.950 . S
H2331 C2355 0.951 . S
H2332 C2357 0.951 . S
H2333 C2359 0.950 . S
H2334 C2360 0.950 . S
H2335 C2362 0.950 . S
H2336 C2365 0.950 . S
H2337 C2366 0.950 . S
H2338 C2368 0.950 . S
H2339 C2369 0.950 . S
C2340 H2322 0.951 . S
C2340 C2341 1.366 . S
C2340 C2342 1.388 . S
C2341 C2340 1.366 . S
C2341 C2345 1.385 . S
C2342 H2323 0.951 . S
C2342 C2340 1.388 . S
C2342 C2343 1.366 . S
C2343 C2342 1.366 . S
C2343 C2344 1.414 . S
C2343 C2346 1.499 . S
C2344 H2324 0.950 . S
C2344 C2343 1.414 . S
C2344 C2345 1.374 . S
C2345 H2325 0.950 . S
C2345 C2341 1.385 . S
C2345 C2344 1.374 . S
C2346 C2343 1.499 . S
C2346 C2347 1.373 . S
C2346 C2348 1.367 1_565 S
C2347 H2326 0.950 . S
C2347 C2346 1.373 . S
C2347 C2363 1.377 1_565 S
C2348 C2346 1.367 1_545 S
C2348 C2349 1.534 1_545 S
C2348 C2362 1.393 . S
C2349 C2348 1.534 1_565 S
C2349 C2350 1.397 . S
C2349 C2354 1.363 . S
C2350 H2327 0.950 . S
C2350 C2349 1.397 . S
C2350 C2351 1.334 . S
C2351 H2328 0.950 . S
C2351 C2350 1.334 . S
C2351 C2352 1.287 . S
C2352 C2351 1.287 . S
C2352 C2353 1.524 . S
C2352 H2371 0.913 . S
C2353 H2329 0.950 . S
C2353 C2352 1.524 . S
C2353 C2354 1.415 . S
C2354 H2330 0.950 . S
C2354 C2349 1.363 . S
C2354 C2353 1.415 . S
C2355 H2331 0.951 . S
C2355 C2356 1.366 . S
C2355 C2357 1.388 . S
C2356 C2355 1.366 . S
C2356 C2360 1.385 . S
C2357 H2332 0.951 . S
C2357 C2355 1.388 . S
C2357 C2358 1.366 . S
C2358 C2357 1.366 . S
C2358 C2359 1.414 . S
C2358 C2361 1.499 . S
C2359 H2333 0.950 . S
C2359 C2358 1.414 . S
C2359 C2360 1.374 . S
C2360 H2334 0.950 . S
C2360 C2356 1.385 . S
C2360 C2359 1.374 . S
C2361 C2358 1.499 . S
C2361 C2362 1.373 . S
C2361 C2363 1.389 . S
C2362 H2335 0.950 . S
C2362 C2348 1.393 . S
C2362 C2361 1.373 . S
C2363 C2347 1.377 1_545 S
C2363 C2361 1.389 . S
C2363 C2364 1.524 . S
C2364 C2363 1.524 . S
C2364 C2365 1.397 . S
C2364 C2369 1.363 . S
C2365 H2336 0.950 . S
C2365 C2364 1.397 . S
C2365 C2366 1.334 . S
C2366 H2337 0.950 . S
C2366 C2365 1.334 . S
C2366 C2367 1.287 . S
C2367 C2366 1.287 . S
C2367 C2368 1.524 . S
C2367 H2370 0.999 . S
C2368 H2338 0.950 . S
C2368 C2367 1.524 . S
C2368 C2369 1.415 . S
C2369 H2339 0.950 . S
C2369 C2364 1.363 . S
C2369 C2368 1.415 . S
H2370 C2367 0.999 . S
H2371 C2352 0.913 . S
H2372 C2390 0.951 . S
H2373 C2392 0.951 . S
H2374 C2394 0.950 . S
H2375 C2395 0.950 . S
H2376 C2397 0.933 1_455 S
H2377 C2400 0.950 . S
H2378 C2401 0.950 . S
H2379 C2403 0.950 . S
H2380 C2404 0.950 . S
H2381 C2405 0.951 . S
H2382 C2407 0.951 . S
H2383 C2409 0.950 . S
H2384 C2410 0.950 . S
H2385 C2412 0.950 . S
H2386 C2415 0.950 . S
H2387 C2416 0.950 . S
H2388 C2418 0.950 . S
H2389 C2419 0.950 . S
C2390 H2372 0.951 . S
C2390 C2391 1.366 . S
C2390 C2392 1.388 . S
C2391 C2390 1.366 . S
C2391 C2395 1.385 . S
C2392 H2373 0.951 . S
C2392 C2390 1.388 . S
C2392 C2393 1.366 . S
C2393 C2392 1.366 . S
C2393 C2394 1.414 . S
C2393 C2396 1.499 . S
C2394 H2374 0.950 . S
C2394 C2393 1.414 . S
C2394 C2395 1.374 . S
C2395 H2375 0.950 . S
C2395 C2391 1.385 . S
C2395 C2394 1.374 . S
C2396 C2393 1.499 . S
C2396 C2397 1.375 1_455 S
C2396 C2398 1.389 . S
C2397 H2376 0.933 1_655 S
C2397 C2396 1.375 1_655 S
C2397 C2413 1.373 . S
C2398 C2396 1.389 . S
C2398 C2399 1.524 . S
C2398 C2412 1.377 1_455 S
C2399 C2398 1.524 . S
C2399 C2400 1.397 . S
C2399 C2404 1.363 . S
C2400 H2377 0.950 . S
C2400 C2399 1.397 . S
C2400 C2401 1.334 . S
C2401 H2378 0.950 . S
C2401 C2400 1.334 . S
C2401 C2402 1.287 . S
C2402 C2401 1.287 . S
C2402 C2403 1.524 . S
C2402 H2421 0.913 . S
C2403 H2379 0.950 . S
C2403 C2402 1.524 . S
C2403 C2404 1.415 . S
C2404 H2380 0.950 . S
C2404 C2399 1.363 . S
C2404 C2403 1.415 . S
C2405 H2381 0.951 . S
C2405 C2406 1.366 . S
C2405 C2407 1.388 . S
C2406 C2405 1.366 . S
C2406 C2410 1.385 . S
C2407 H2382 0.951 . S
C2407 C2405 1.388 . S
C2407 C2408 1.366 . S
C2408 C2407 1.366 . S
C2408 C2409 1.414 . S
C2408 C2411 1.499 . S
C2409 H2383 0.950 . S
C2409 C2408 1.414 . S
C2409 C2410 1.374 . S
C2410 H2384 0.950 . S
C2410 C2406 1.385 . S
C2410 C2409 1.374 . S
C2411 C2408 1.499 . S
C2411 C2412 1.373 . S
C2411 C2413 1.389 . S
C2412 H2385 0.950 . S
C2412 C2398 1.377 1_655 S
C2412 C2411 1.373 . S
C2413 C2397 1.373 . S
C2413 C2411 1.389 . S
C2413 C2414 1.524 . S
C2414 C2413 1.524 . S
C2414 C2415 1.397 . S
C2414 C2419 1.363 . S
C2415 H2386 0.950 . S
C2415 C2414 1.397 . S
C2415 C2416 1.334 . S
C2416 H2387 0.950 . S
C2416 C2415 1.334 . S
C2416 C2417 1.287 . S
C2417 C2416 1.287 . S
C2417 C2418 1.524 . S
C2417 H2420 0.999 . S
C2418 H2388 0.950 . S
C2418 C2417 1.524 . S
C2418 C2419 1.415 . S
C2419 H2389 0.950 . S
C2419 C2414 1.363 . S
C2419 C2418 1.415 . S
H2420 C2417 0.999 . S
H2421 C2402 0.913 . S
H2422 C2440 0.951 . S
H2423 C2442 0.951 . S
H2424 C2444 0.950 . S
H2425 C2445 0.950 . S
H2426 C2447 0.950 . S
H2427 C2450 0.950 . S
H2428 C2451 0.950 . S
H2429 C2453 0.950 . S
H2430 C2454 0.950 . S
H2431 C2455 0.951 . S
H2432 C2457 0.951 . S
H2433 C2459 0.950 . S
H2434 C2460 0.950 . S
H2435 C2462 0.950 . S
H2436 C2465 0.950 . S
H2437 C2466 0.950 . S
H2438 C2468 0.950 . S
H2439 C2469 0.950 . S
C2440 H2422 0.951 . S
C2440 C2441 1.366 . S
C2440 C2442 1.388 . S
C2441 C2440 1.366 . S
C2441 C2445 1.385 . S
C2442 H2423 0.951 . S
C2442 C2440 1.388 . S
C2442 C2443 1.366 . S
C2443 C2442 1.366 . S
C2443 C2444 1.414 . S
C2443 C2446 1.499 . S
C2444 H2424 0.950 . S
C2444 C2443 1.414 . S
C2444 C2445 1.374 . S
C2445 H2425 0.950 . S
C2445 C2441 1.385 . S
C2445 C2444 1.374 . S
C2446 C2443 1.499 . S
C2446 C2447 1.373 . S
C2446 C2448 1.389 . S
C2447 H2426 0.950 . S
C2447 C2446 1.373 . S
C2447 C2463 1.377 . S
C2448 C2446 1.389 . S
C2448 C2449 1.524 . S
C2448 C2462 1.377 . S
C2449 C2448 1.524 . S
C2449 C2450 1.397 . S
C2449 C2454 1.363 . S
C2450 H2427 0.950 . S
C2450 C2449 1.397 . S
C2450 C2451 1.334 . S
C2451 H2428 0.950 . S
C2451 C2450 1.334 . S
C2451 C2452 1.287 . S
C2452 C2451 1.287 . S
C2452 C2453 1.524 . S
C2452 H2471 0.913 . S
C2453 H2429 0.950 . S
C2453 C2452 1.524 . S
C2453 C2454 1.415 . S
C2454 H2430 0.950 . S
C2454 C2449 1.363 . S
C2454 C2453 1.415 . S
C2455 H2431 0.951 . S
C2455 C2456 1.366 . S
C2455 C2457 1.388 . S
C2456 C2455 1.366 . S
C2456 C2460 1.385 . S
C2457 H2432 0.951 . S
C2457 C2455 1.388 . S
C2457 C2458 1.366 . S
C2458 C2457 1.366 . S
C2458 C2459 1.414 . S
C2458 C2461 1.499 . S
C2459 H2433 0.950 . S
C2459 C2458 1.414 . S
C2459 C2460 1.374 . S
C2460 H2434 0.950 . S
C2460 C2456 1.385 . S
C2460 C2459 1.374 . S
C2461 C2458 1.499 . S
C2461 C2462 1.373 . S
C2461 C2463 1.389 . S
C2462 H2435 0.950 . S
C2462 C2448 1.377 . S
C2462 C2461 1.373 . S
C2463 C2447 1.377 . S
C2463 C2461 1.389 . S
C2463 C2464 1.524 . S
C2464 C2463 1.524 . S
C2464 C2465 1.397 . S
C2464 C2469 1.363 . S
C2465 H2436 0.950 . S
C2465 C2464 1.397 . S
C2465 C2466 1.334 . S
C2466 H2437 0.950 . S
C2466 C2465 1.334 . S
C2466 C2467 1.287 . S
C2467 C2466 1.287 . S
C2467 C2468 1.524 . S
C2467 H2470 0.999 . S
C2468 H2438 0.950 . S
C2468 C2467 1.524 . S
C2468 C2469 1.415 . S
C2469 H2439 0.950 . S
C2469 C2464 1.363 . S
C2469 C2468 1.415 . S
H2470 C2467 0.999 . S
H2471 C2452 0.913 . S
H2472 C2490 0.951 . S
H2473 C2492 0.951 . S
H2474 C2494 0.950 . S
H2475 C2495 0.950 . S
H2476 C2497 0.950 . S
H2477 C2500 0.950 . S
H2478 C2501 0.950 . S
H2479 C2503 0.950 . S
H2480 C2504 0.950 . S
H2481 C2505 0.951 . S
H2482 C2507 0.951 . S
H2483 C2509 0.950 . S
H2484 C2510 0.950 . S
H2485 C2512 0.950 . S
H2486 C2515 0.950 . S
H2487 C2516 0.950 . S
H2488 C2518 0.950 . S
H2489 C2519 0.950 . S
C2490 H2472 0.951 . S
C2490 C2491 1.366 . S
C2490 C2492 1.388 . S
C2491 C2490 1.366 . S
C2491 C2495 1.385 . S
C2492 H2473 0.951 . S
C2492 C2490 1.388 . S
C2492 C2493 1.366 1_455 S
C2493 C2492 1.366 1_655 S
C2493 C2494 1.414 . S
C2493 C2496 1.499 . S
C2494 H2474 0.950 . S
C2494 C2493 1.414 . S
C2494 C2495 1.374 1_655 S
C2495 H2475 0.950 . S
C2495 C2491 1.385 . S
C2495 C2494 1.374 1_455 S
C2496 C2493 1.499 . S
C2496 C2497 1.373 . S
C2496 C2498 1.389 . S
C2497 H2476 0.950 . S
C2497 C2496 1.373 . S
C2497 C2513 1.377 . S
C2498 C2496 1.389 . S
C2498 C2499 1.524 . S
C2498 C2512 1.377 . S
C2499 C2498 1.524 . S
C2499 C2500 1.397 . S
C2499 C2504 1.363 . S
C2500 H2477 0.950 . S
C2500 C2499 1.397 . S
C2500 C2501 1.334 . S
C2501 H2478 0.950 . S
C2501 C2500 1.334 . S
C2501 C2502 1.287 . S
C2502 C2501 1.287 . S
C2502 C2503 1.524 . S
C2502 H2521 0.913 . S
C2503 H2479 0.950 . S
C2503 C2502 1.524 . S
C2503 C2504 1.415 . S
C2504 H2480 0.950 . S
C2504 C2499 1.363 . S
C2504 C2503 1.415 . S
C2505 H2481 0.951 . S
C2505 C2506 1.366 . S
C2505 C2507 1.388 . S
C2506 C2505 1.366 . S
C2506 C2510 1.385 . S
C2507 H2482 0.951 . S
C2507 C2505 1.388 . S
C2507 C2508 1.366 . S
C2508 C2507 1.366 . S
C2508 C2509 1.414 . S
C2508 C2511 1.499 . S
C2509 H2483 0.950 . S
C2509 C2508 1.414 . S
C2509 C2510 1.374 . S
C2510 H2484 0.950 . S
C2510 C2506 1.385 . S
C2510 C2509 1.374 . S
C2511 C2508 1.499 . S
C2511 C2512 1.373 . S
C2511 C2513 1.389 . S
C2512 H2485 0.950 . S
C2512 C2498 1.377 . S
C2512 C2511 1.373 . S
C2513 C2497 1.377 . S
C2513 C2511 1.389 . S
C2513 C2514 1.524 . S
C2514 C2513 1.524 . S
C2514 C2515 1.397 . S
C2514 C2519 1.363 . S
C2515 H2486 0.950 . S
C2515 C2514 1.397 . S
C2515 C2516 1.334 . S
C2516 H2487 0.950 . S
C2516 C2515 1.334 . S
C2516 C2517 1.287 . S
C2517 C2516 1.287 . S
C2517 C2518 1.524 . S
C2517 H2520 0.999 . S
C2518 H2488 0.950 . S
C2518 C2517 1.524 . S
C2518 C2519 1.415 . S
C2519 H2489 0.950 . S
C2519 C2514 1.363 . S
C2519 C2518 1.415 . S
H2520 C2517 0.999 . S
H2521 C2502 0.913 . S
H2522 C2540 0.951 . S
H2523 C2542 0.951 . S
H2524 C2544 0.950 . S
H2525 C2545 0.950 . S
H2526 C2547 0.950 . S
H2527 C2550 0.950 . S
H2528 C2551 0.950 . S
H2529 C2553 0.950 . S
H2530 C2554 0.950 . S
H2531 C2555 0.951 . S
H2532 C2557 0.951 . S
H2533 C2559 0.950 . S
H2534 C2560 0.950 . S
H2535 C2562 0.950 . S
H2536 C2565 0.950 . S
H2537 C2566 0.950 . S
H2538 C2568 0.950 . S
H2539 C2569 0.950 . S
C2540 H2522 0.951 . S
C2540 C2541 1.366 . S
C2540 C2542 1.388 . S
C2541 C2540 1.366 . S
C2541 C2545 1.385 . S
C2542 H2523 0.951 . S
C2542 C2540 1.388 . S
C2542 C2543 1.366 . S
C2543 C2542 1.366 . S
C2543 C2544 1.414 . S
C2543 C2546 1.499 . S
C2544 H2524 0.950 . S
C2544 C2543 1.414 . S
C2544 C2545 1.374 . S
C2545 H2525 0.950 . S
C2545 C2541 1.385 . S
C2545 C2544 1.374 . S
C2546 C2543 1.499 . S
C2546 C2547 1.373 . S
C2546 C2548 1.389 . S
C2547 H2526 0.950 . S
C2547 C2546 1.373 . S
C2547 C2563 1.377 . S
C2548 C2546 1.389 . S
C2548 C2549 1.524 . S
C2548 C2562 1.377 . S
C2549 C2548 1.524 . S
C2549 C2550 1.397 . S
C2549 C2554 1.363 . S
C2550 H2527 0.950 . S
C2550 C2549 1.397 . S
C2550 C2551 1.334 . S
C2551 H2528 0.950 . S
C2551 C2550 1.334 . S
C2551 C2552 1.287 . S
C2552 C2551 1.287 . S
C2552 C2553 1.524 . S
C2552 H2571 0.913 . S
C2553 H2529 0.950 . S
C2553 C2552 1.524 . S
C2553 C2554 1.415 . S
C2554 H2530 0.950 . S
C2554 C2549 1.363 . S
C2554 C2553 1.415 . S
C2555 H2531 0.951 . S
C2555 C2556 1.366 . S
C2555 C2557 1.388 . S
C2556 C2555 1.366 . S
C2556 C2560 1.385 . S
C2557 H2532 0.951 . S
C2557 C2555 1.388 . S
C2557 C2558 1.366 . S
C2558 C2557 1.366 . S
C2558 C2559 1.414 . S
C2558 C2561 1.499 . S
C2559 H2533 0.950 . S
C2559 C2558 1.414 . S
C2559 C2560 1.374 . S
C2560 H2534 0.950 . S
C2560 C2556 1.385 . S
C2560 C2559 1.374 . S
C2561 C2558 1.499 . S
C2561 C2562 1.373 . S
C2561 C2563 1.389 . S
C2562 H2535 0.950 . S
C2562 C2548 1.377 . S
C2562 C2561 1.373 . S
C2563 C2547 1.377 . S
C2563 C2561 1.389 . S
C2563 C2564 1.524 . S
C2564 C2563 1.524 . S
C2564 C2565 1.397 . S
C2564 C2569 1.363 . S
C2565 H2536 0.950 . S
C2565 C2564 1.397 . S
C2565 C2566 1.334 . S
C2566 H2537 0.950 . S
C2566 C2565 1.334 . S
C2566 C2567 1.287 . S
C2567 C2566 1.287 . S
C2567 C2568 1.524 . S
C2567 H2570 0.999 . S
C2568 H2538 0.950 . S
C2568 C2567 1.524 . S
C2568 C2569 1.415 . S
C2569 H2539 0.950 . S
C2569 C2564 1.363 . S
C2569 C2568 1.415 . S
H2570 C2567 0.999 . S
H2571 C2552 0.913 . S
H2572 C2590 0.951 . S
H2573 C2592 0.980 . S
H2574 C2594 0.950 . S
H2575 C2595 0.950 . S
H2576 C2597 0.950 . S
H2577 C2600 0.950 . S
H2578 C2601 0.950 1_565 S
H2579 C2603 0.950 . S
H2580 C2604 0.950 . S
H2581 C2605 0.951 . S
H2582 C2607 0.951 . S
H2583 C2609 0.950 . S
H2584 C2610 0.950 . S
H2585 C2612 0.950 . S
H2586 C2615 0.950 . S
H2587 C2616 0.950 . S
H2588 C2618 0.950 . S
H2589 C2619 0.950 . S
C2590 H2572 0.951 . S
C2590 C2591 1.366 . S
C2590 C2592 1.388 . S
C2591 C2590 1.366 . S
C2591 C2595 1.385 . S
C2592 H2573 0.980 . S
C2592 C2590 1.388 . S
C2592 C2593 1.366 1_565 S
C2593 C2592 1.366 1_545 S
C2593 C2594 1.414 . S
C2593 C2596 1.499 . S
C2594 H2574 0.950 . S
C2594 C2593 1.414 . S
C2594 C2595 1.374 1_545 S
C2595 H2575 0.950 . S
C2595 C2591 1.385 . S
C2595 C2594 1.374 1_565 S
C2596 C2593 1.499 . S
C2596 C2597 1.373 . S
C2596 C2598 1.389 . S
C2597 H2576 0.950 . S
C2597 C2596 1.373 . S
C2597 C2613 1.377 . S
C2598 C2596 1.389 . S
C2598 C2599 1.524 . S
C2598 C2612 1.377 . S
C2599 C2598 1.524 . S
C2599 C2600 1.397 . S
C2599 C2604 1.363 . S
C2600 H2577 0.950 . S
C2600 C2599 1.397 . S
C2600 C2601 1.334 . S
C2601 H2578 0.950 1_545 S
C2601 C2600 1.334 . S
C2601 C2602 1.287 . S
C2602 C2601 1.287 . S
C2602 C2603 1.524 . S
C2602 H2621 0.913 1_545 S
C2603 H2579 0.950 . S
C2603 C2602 1.524 . S
C2603 C2604 1.415 . S
C2604 H2580 0.950 . S
C2604 C2599 1.363 . S
C2604 C2603 1.415 . S
C2605 H2581 0.951 . S
C2605 C2606 1.366 . S
C2605 C2607 1.388 . S
C2606 C2605 1.366 . S
C2606 C2610 1.385 . S
C2607 H2582 0.951 . S
C2607 C2605 1.388 . S
C2607 C2608 1.366 . S
C2608 C2607 1.366 . S
C2608 C2609 1.414 . S
C2608 C2611 1.499 . S
C2609 H2583 0.950 . S
C2609 C2608 1.414 . S
C2609 C2610 1.374 . S
C2610 H2584 0.950 . S
C2610 C2606 1.385 . S
C2610 C2609 1.374 . S
C2611 C2608 1.499 . S
C2611 C2612 1.373 . S
C2611 C2613 1.389 . S
C2612 H2585 0.950 . S
C2612 C2598 1.377 . S
C2612 C2611 1.373 . S
C2613 C2597 1.377 . S
C2613 C2611 1.389 . S
C2613 C2614 1.524 . S
C2614 C2613 1.524 . S
C2614 C2615 1.397 . S
C2614 C2619 1.363 . S
C2615 H2586 0.950 . S
C2615 C2614 1.397 . S
C2615 C2616 1.334 . S
C2616 H2587 0.950 . S
C2616 C2615 1.334 . S
C2616 C2617 1.287 . S
C2617 C2616 1.287 . S
C2617 C2618 1.524 . S
C2617 H2620 0.999 . S
C2618 H2588 0.950 . S
C2618 C2617 1.524 . S
C2618 C2619 1.415 . S
C2619 H2589 0.950 . S
C2619 C2614 1.363 . S
C2619 C2618 1.415 . S
H2620 C2617 0.999 . S
H2621 C2602 0.913 1_565 S
H2622 C2640 0.951 . S
H2623 C2642 0.951 . S
H2624 C2644 0.950 . S
H2625 C2645 0.950 . S
H2626 C2647 0.950 . S
H2627 C2650 0.950 . S
H2628 C2651 0.950 . S
H2629 C2653 0.950 . S
H2630 C2654 0.950 . S
H2631 C2655 0.951 . S
H2632 C2657 0.951 . S
H2633 C2659 0.950 . S
H2634 C2660 0.950 . S
H2635 C2662 0.950 . S
H2636 C2665 0.950 . S
H2637 C2666 0.950 . S
H2638 C2668 0.950 . S
H2639 C2669 0.950 . S
C2640 H2622 0.951 . S
C2640 C2641 1.366 . S
C2640 C2642 1.388 . S
C2641 C2640 1.366 . S
C2641 C2645 1.385 . S
C2642 H2623 0.951 . S
C2642 C2640 1.388 . S
C2642 C2643 1.366 . S
C2643 C2642 1.366 . S
C2643 C2644 1.414 . S
C2643 C2646 1.499 . S
C2644 H2624 0.950 . S
C2644 C2643 1.414 . S
C2644 C2645 1.374 . S
C2645 H2625 0.950 . S
C2645 C2641 1.385 . S
C2645 C2644 1.374 . S
C2646 C2643 1.499 . S
C2646 C2647 1.373 . S
C2646 C2648 1.389 . S
C2647 H2626 0.950 . S
C2647 C2646 1.373 . S
C2647 C2663 1.377 . S
C2648 C2646 1.389 . S
C2648 C2649 1.524 . S
C2648 C2662 1.377 . S
C2649 C2648 1.524 . S
C2649 C2650 1.397 . S
C2649 C2654 1.363 . S
C2650 H2627 0.950 . S
C2650 C2649 1.397 . S
C2650 C2651 1.334 . S
C2651 H2628 0.950 . S
C2651 C2650 1.334 . S
C2651 C2652 1.287 . S
C2652 C2651 1.287 . S
C2652 C2653 1.524 . S
C2652 H2671 0.913 . S
C2653 H2629 0.950 . S
C2653 C2652 1.524 . S
C2653 C2654 1.415 . S
C2654 H2630 0.950 . S
C2654 C2649 1.363 . S
C2654 C2653 1.415 . S
C2655 H2631 0.951 . S
C2655 C2656 1.366 . S
C2655 C2657 1.388 . S
C2656 C2655 1.366 . S
C2656 C2660 1.385 . S
C2657 H2632 0.951 . S
C2657 C2655 1.388 . S
C2657 C2658 1.366 . S
C2658 C2657 1.366 . S
C2658 C2659 1.414 . S
C2658 C2661 1.499 . S
C2659 H2633 0.950 . S
C2659 C2658 1.414 . S
C2659 C2660 1.374 . S
C2660 H2634 0.950 . S
C2660 C2656 1.385 . S
C2660 C2659 1.374 . S
C2661 C2658 1.499 . S
C2661 C2662 1.373 . S
C2661 C2663 1.389 . S
C2662 H2635 0.950 . S
C2662 C2648 1.377 . S
C2662 C2661 1.373 . S
C2663 C2647 1.377 . S
C2663 C2661 1.389 . S
C2663 C2664 1.524 . S
C2664 C2663 1.524 . S
C2664 C2665 1.397 . S
C2664 C2669 1.363 . S
C2665 H2636 0.950 . S
C2665 C2664 1.397 . S
C2665 C2666 1.334 . S
C2666 H2637 0.950 . S
C2666 C2665 1.334 . S
C2666 C2667 1.287 . S
C2667 C2666 1.287 . S
C2667 C2668 1.524 . S
C2667 H2670 0.999 . S
C2668 H2638 0.950 . S
C2668 C2667 1.524 . S
C2668 C2669 1.415 . S
C2669 H2639 0.950 . S
C2669 C2664 1.363 . S
C2669 C2668 1.415 . S
H2670 C2667 0.999 . S
H2671 C2652 0.913 . S
H2672 C2690 0.951 . S
H2673 C2692 0.951 . S
H2674 C2694 0.950 . S
H2675 C2695 0.950 . S
H2676 C2697 0.950 . S
H2677 C2700 0.950 . S
H2678 C2701 0.950 . S
H2679 C2703 0.950 . S
H2680 C2704 0.950 . S
H2681 C2705 0.951 . S
H2682 C2707 0.951 . S
H2683 C2709 0.950 . S
H2684 C2710 0.950 . S
H2685 C2712 0.950 . S
H2686 C2715 0.950 . S
H2687 C2716 0.950 . S
H2688 C2718 0.950 . S
H2689 C2719 0.950 . S
C2690 H2672 0.951 . S
C2690 C2691 1.366 . S
C2690 C2692 1.388 . S
C2691 C2690 1.366 . S
C2691 C2695 1.385 . S
C2692 H2673 0.951 . S
C2692 C2690 1.388 . S
C2692 C2693 1.366 . S
C2693 C2692 1.366 . S
C2693 C2694 1.414 . S
C2693 C2696 1.499 . S
C2694 H2674 0.950 . S
C2694 C2693 1.414 . S
C2694 C2695 1.374 . S
C2695 H2675 0.950 . S
C2695 C2691 1.385 . S
C2695 C2694 1.374 . S
C2696 C2693 1.499 . S
C2696 C2697 1.373 . S
C2696 C2698 1.389 . S
C2697 H2676 0.950 . S
C2697 C2696 1.373 . S
C2697 C2713 1.377 . S
C2698 C2696 1.389 . S
C2698 C2699 1.524 . S
C2698 C2712 1.377 . S
C2699 C2698 1.524 . S
C2699 C2700 1.397 . S
C2699 C2704 1.363 . S
C2700 H2677 0.950 . S
C2700 C2699 1.397 . S
C2700 C2701 1.334 . S
C2701 H2678 0.950 . S
C2701 C2700 1.334 . S
C2701 C2702 1.287 . S
C2702 C2701 1.287 . S
C2702 C2703 1.524 . S
C2702 H2721 0.913 . S
C2703 H2679 0.950 . S
C2703 C2702 1.524 . S
C2703 C2704 1.415 . S
C2704 H2680 0.950 . S
C2704 C2699 1.363 . S
C2704 C2703 1.415 . S
C2705 H2681 0.951 . S
C2705 C2706 1.366 . S
C2705 C2707 1.388 . S
C2706 C2705 1.366 . S
C2706 C2710 1.385 . S
C2707 H2682 0.951 . S
C2707 C2705 1.388 . S
C2707 C2708 1.366 . S
C2708 C2707 1.366 . S
C2708 C2709 1.414 . S
C2708 C2711 1.499 . S
C2709 H2683 0.950 . S
C2709 C2708 1.414 . S
C2709 C2710 1.374 . S
C2710 H2684 0.950 . S
C2710 C2706 1.385 . S
C2710 C2709 1.374 . S
C2711 C2708 1.499 . S
C2711 C2712 1.373 . S
C2711 C2713 1.389 . S
C2712 H2685 0.950 . S
C2712 C2698 1.377 . S
C2712 C2711 1.373 . S
C2713 C2697 1.377 . S
C2713 C2711 1.389 . S
C2713 C2714 1.524 . S
C2714 C2713 1.524 . S
C2714 C2715 1.397 . S
C2714 C2719 1.363 . S
C2715 H2686 0.950 . S
C2715 C2714 1.397 . S
C2715 C2716 1.334 . S
C2716 H2687 0.950 . S
C2716 C2715 1.334 . S
C2716 C2717 1.287 . S
C2717 C2716 1.287 . S
C2717 C2718 1.524 . S
C2717 H2720 0.999 . S
C2718 H2688 0.950 . S
C2718 C2717 1.524 . S
C2718 C2719 1.415 . S
C2719 H2689 0.950 . S
C2719 C2714 1.363 . S
C2719 C2718 1.415 . S
H2720 C2717 0.999 . S
H2721 C2702 0.913 . S
H2722 C2740 0.951 . S
H2723 C2742 0.951 . S
H2724 C2744 0.950 . S
H2725 C2745 0.950 . S
H2726 C2747 0.950 . S
H2727 C2750 0.950 . S
H2728 C2751 0.950 . S
H2729 C2753 0.950 . S
H2730 C2754 0.950 . S
H2731 C2755 0.951 . S
H2732 C2757 0.951 . S
H2733 C2759 0.950 . S
H2734 C2760 0.950 . S
H2735 C2762 0.950 . S
H2736 C2765 0.950 . S
H2737 C2766 0.950 . S
H2738 C2768 0.950 . S
H2739 C2769 0.950 . S
C2740 H2722 0.951 . S
C2740 C2741 1.366 . S
C2740 C2742 1.388 . S
C2741 C2740 1.366 . S
C2741 C2745 1.385 . S
C2742 H2723 0.951 . S
C2742 C2740 1.388 . S
C2742 C2743 1.366 . S
C2743 C2742 1.366 . S
C2743 C2744 1.414 . S
C2743 C2746 1.499 . S
C2744 H2724 0.950 . S
C2744 C2743 1.414 . S
C2744 C2745 1.374 . S
C2745 H2725 0.950 . S
C2745 C2741 1.385 . S
C2745 C2744 1.374 . S
C2746 C2743 1.499 . S
C2746 C2747 1.373 . S
C2746 C2748 1.389 . S
C2747 H2726 0.950 . S
C2747 C2746 1.373 . S
C2747 C2763 1.377 . S
C2748 C2746 1.389 . S
C2748 C2749 1.524 . S
C2748 C2762 1.377 . S
C2749 C2748 1.524 . S
C2749 C2750 1.397 . S
C2749 C2754 1.363 . S
C2750 H2727 0.950 . S
C2750 C2749 1.397 . S
C2750 C2751 1.334 . S
C2751 H2728 0.950 . S
C2751 C2750 1.334 . S
C2751 C2752 1.287 . S
C2752 C2751 1.287 . S
C2752 C2753 1.524 . S
C2752 H2771 0.913 . S
C2753 H2729 0.950 . S
C2753 C2752 1.524 . S
C2753 C2754 1.415 . S
C2754 H2730 0.950 . S
C2754 C2749 1.363 . S
C2754 C2753 1.415 . S
C2755 H2731 0.951 . S
C2755 C2756 1.366 . S
C2755 C2757 1.388 . S
C2756 C2755 1.366 . S
C2756 C2760 1.385 . S
C2757 H2732 0.951 . S
C2757 C2755 1.388 . S
C2757 C2758 1.366 . S
C2758 C2757 1.366 . S
C2758 C2759 1.414 . S
C2758 C2761 1.499 . S
C2759 H2733 0.950 . S
C2759 C2758 1.414 . S
C2759 C2760 1.374 . S
C2760 H2734 0.950 . S
C2760 C2756 1.385 . S
C2760 C2759 1.374 . S
C2761 C2758 1.499 . S
C2761 C2762 1.373 . S
C2761 C2763 1.389 . S
C2762 H2735 0.950 . S
C2762 C2748 1.377 . S
C2762 C2761 1.373 . S
C2763 C2747 1.377 . S
C2763 C2761 1.389 . S
C2763 C2764 1.524 . S
C2764 C2763 1.524 . S
C2764 C2765 1.397 . S
C2764 C2769 1.363 . S
C2765 H2736 0.950 . S
C2765 C2764 1.397 . S
C2765 C2766 1.334 . S
C2766 H2737 0.950 . S
C2766 C2765 1.334 . S
C2766 C2767 1.287 . S
C2767 C2766 1.287 . S
C2767 C2768 1.524 . S
C2767 H2770 0.999 . S
C2768 H2738 0.950 . S
C2768 C2767 1.524 . S
C2768 C2769 1.415 . S
C2769 H2739 0.950 . S
C2769 C2764 1.363 . S
C2769 C2768 1.415 . S
H2770 C2767 0.999 . S
H2771 C2752 0.913 . S
H2772 C2790 0.951 . S
H2773 C2792 0.951 . S
H2774 C2794 0.950 . S
H2775 C2795 0.950 . S
H2776 C2797 0.950 . S
H2777 C2800 0.950 . S
H2778 C2801 0.950 . S
H2779 C2803 0.950 . S
H2780 C2804 0.950 . S
H2781 C2805 0.951 . S
H2782 C2807 0.951 . S
H2783 C2809 0.950 . S
H2784 C2810 0.950 . S
H2785 C2812 0.950 . S
H2786 C2815 0.950 . S
H2787 C2816 0.950 . S
H2788 C2818 0.950 . S
H2789 C2819 0.950 . S
C2790 H2772 0.951 . S
C2790 C2791 1.366 . S
C2790 C2792 1.388 . S
C2791 C2790 1.366 . S
C2791 C2795 1.385 . S
C2792 H2773 0.951 . S
C2792 C2790 1.388 . S
C2792 C2793 1.366 . S
C2793 C2792 1.366 . S
C2793 C2794 1.414 . S
C2793 C2796 1.499 . S
C2794 H2774 0.950 . S
C2794 C2793 1.414 . S
C2794 C2795 1.374 . S
C2795 H2775 0.950 . S
C2795 C2791 1.385 . S
C2795 C2794 1.374 . S
C2796 C2793 1.499 . S
C2796 C2797 1.373 . S
C2796 C2798 1.389 . S
C2797 H2776 0.950 . S
C2797 C2796 1.373 . S
C2797 C2813 1.377 . S
C2798 C2796 1.389 . S
C2798 C2799 1.524 . S
C2798 C2812 1.377 . S
C2799 C2798 1.524 . S
C2799 C2800 1.397 . S
C2799 C2804 1.363 . S
C2800 H2777 0.950 . S
C2800 C2799 1.397 . S
C2800 C2801 1.334 . S
C2801 H2778 0.950 . S
C2801 C2800 1.334 . S
C2801 C2802 1.287 . S
C2802 C2801 1.287 . S
C2802 C2803 1.524 . S
C2802 H2821 0.913 . S
C2803 H2779 0.950 . S
C2803 C2802 1.524 . S
C2803 C2804 1.415 . S
C2804 H2780 0.950 . S
C2804 C2799 1.363 . S
C2804 C2803 1.415 . S
C2805 H2781 0.951 . S
C2805 C2806 1.366 . S
C2805 C2807 1.388 . S
C2806 C2805 1.366 . S
C2806 C2810 1.385 . S
C2807 H2782 0.951 . S
C2807 C2805 1.388 . S
C2807 C2808 1.366 . S
C2808 C2807 1.366 . S
C2808 C2809 1.414 . S
C2808 C2811 1.499 . S
C2809 H2783 0.950 . S
C2809 C2808 1.414 . S
C2809 C2810 1.374 . S
C2810 H2784 0.950 . S
C2810 C2806 1.385 . S
C2810 C2809 1.374 . S
C2811 C2808 1.499 . S
C2811 C2812 1.373 . S
C2811 C2813 1.389 . S
C2812 H2785 0.950 . S
C2812 C2798 1.377 . S
C2812 C2811 1.373 . S
C2813 C2797 1.377 . S
C2813 C2811 1.389 . S
C2813 C2814 1.524 . S
C2814 C2813 1.524 . S
C2814 C2815 1.397 . S
C2814 C2819 1.363 . S
C2815 H2786 0.950 . S
C2815 C2814 1.397 . S
C2815 C2816 1.334 . S
C2816 H2787 0.950 . S
C2816 C2815 1.334 . S
C2816 C2817 1.287 . S
C2817 C2816 1.287 . S
C2817 C2818 1.524 . S
C2817 H2820 0.999 . S
C2818 H2788 0.950 . S
C2818 C2817 1.524 . S
C2818 C2819 1.415 . S
C2819 H2789 0.950 . S
C2819 C2814 1.363 . S
C2819 C2818 1.415 . S
H2820 C2817 0.999 . S
H2821 C2802 0.913 . S
H2822 C2840 0.951 . S
H2823 C2842 0.951 . S
H2824 C2844 0.950 . S
H2825 C2845 0.950 . S
H2826 C2847 0.950 . S
H2827 C2850 0.950 . S
H2828 C2851 0.950 . S
H2829 C2853 0.950 . S
H2830 C2854 0.950 . S
H2831 C2855 0.951 . S
H2832 C2857 0.951 . S
H2833 C2859 0.950 . S
H2834 C2860 0.950 . S
H2835 C2862 0.950 . S
H2836 C2865 0.950 . S
H2837 C2866 0.950 . S
H2838 C2868 0.950 . S
H2839 C2869 0.950 . S
C2840 H2822 0.951 . S
C2840 C2841 1.366 . S
C2840 C2842 1.388 . S
C2841 C2840 1.366 . S
C2841 C2845 1.385 . S
C2842 H2823 0.951 . S
C2842 C2840 1.388 . S
C2842 C2843 1.366 . S
C2843 C2842 1.366 . S
C2843 C2844 1.414 . S
C2843 C2846 1.499 . S
C2844 H2824 0.950 . S
C2844 C2843 1.414 . S
C2844 C2845 1.374 . S
C2845 H2825 0.950 . S
C2845 C2841 1.385 . S
C2845 C2844 1.374 . S
C2846 C2843 1.499 . S
C2846 C2847 1.373 . S
C2846 C2848 1.389 . S
C2847 H2826 0.950 . S
C2847 C2846 1.373 . S
C2847 C2863 1.377 . S
C2848 C2846 1.389 . S
C2848 C2849 1.524 . S
C2848 C2862 1.377 . S
C2849 C2848 1.524 . S
C2849 C2850 1.397 . S
C2849 C2854 1.363 . S
C2850 H2827 0.950 . S
C2850 C2849 1.397 . S
C2850 C2851 1.334 . S
C2851 H2828 0.950 . S
C2851 C2850 1.334 . S
C2851 C2852 1.287 . S
C2852 C2851 1.287 . S
C2852 C2853 1.524 . S
C2852 H2871 0.913 . S
C2853 H2829 0.950 . S
C2853 C2852 1.524 . S
C2853 C2854 1.415 . S
C2854 H2830 0.950 . S
C2854 C2849 1.363 . S
C2854 C2853 1.415 . S
C2855 H2831 0.951 . S
C2855 C2856 1.366 . S
C2855 C2857 1.388 . S
C2856 C2855 1.366 . S
C2856 C2860 1.385 . S
C2857 H2832 0.951 . S
C2857 C2855 1.388 . S
C2857 C2858 1.366 . S
C2858 C2857 1.366 . S
C2858 C2859 1.414 . S
C2858 C2861 1.499 . S
C2859 H2833 0.950 . S
C2859 C2858 1.414 . S
C2859 C2860 1.374 . S
C2860 H2834 0.950 . S
C2860 C2856 1.385 . S
C2860 C2859 1.374 . S
C2861 C2858 1.499 . S
C2861 C2862 1.373 . S
C2861 C2863 1.389 . S
C2862 H2835 0.950 . S
C2862 C2848 1.377 . S
C2862 C2861 1.373 . S
C2863 C2847 1.377 . S
C2863 C2861 1.389 . S
C2863 C2864 1.524 . S
C2864 C2863 1.524 . S
C2864 C2865 1.397 . S
C2864 C2869 1.363 . S
C2865 H2836 0.950 . S
C2865 C2864 1.397 . S
C2865 C2866 1.334 . S
C2866 H2837 0.950 . S
C2866 C2865 1.334 . S
C2866 C2867 1.287 . S
C2867 C2866 1.287 . S
C2867 C2868 1.524 . S
C2867 H2870 0.999 . S
C2868 H2838 0.950 . S
C2868 C2867 1.524 . S
C2868 C2869 1.415 . S
C2869 H2839 0.950 . S
C2869 C2864 1.363 . S
C2869 C2868 1.415 . S
H2870 C2867 0.999 . S
H2871 C2852 0.913 . S
H2872 C2890 0.951 . S
H2873 C2892 0.951 . S
H2874 C2894 0.950 . S
H2875 C2895 0.950 . S
H2876 C2897 0.950 . S
H2877 C2900 0.950 . S
H2878 C2901 0.950 . S
H2879 C2903 0.950 . S
H2880 C2904 0.950 . S
H2881 C2905 0.951 . S
H2882 C2907 0.951 . S
H2883 C2909 0.950 . S
H2884 C2910 0.950 . S
H2885 C2912 0.950 . S
H2886 C2915 0.950 . S
H2887 C2916 0.950 . S
H2888 C2918 0.950 . S
H2889 C2919 0.950 . S
C2890 H2872 0.951 . S
C2890 C2891 1.366 . S
C2890 C2892 1.388 . S
C2891 C2890 1.366 . S
C2891 C2895 1.385 . S
C2892 H2873 0.951 . S
C2892 C2890 1.388 . S
C2892 C2893 1.366 . S
C2893 C2892 1.366 . S
C2893 C2894 1.414 . S
C2893 C2896 1.499 . S
C2894 H2874 0.950 . S
C2894 C2893 1.414 . S
C2894 C2895 1.374 . S
C2895 H2875 0.950 . S
C2895 C2891 1.385 . S
C2895 C2894 1.374 . S
C2896 C2893 1.499 . S
C2896 C2897 1.373 . S
C2896 C2898 1.389 . S
C2897 H2876 0.950 . S
C2897 C2896 1.373 . S
C2897 C2913 1.377 . S
C2898 C2896 1.389 . S
C2898 C2899 1.524 . S
C2898 C2912 1.377 . S
C2899 C2898 1.524 . S
C2899 C2900 1.397 . S
C2899 C2904 1.363 . S
C2900 H2877 0.950 . S
C2900 C2899 1.397 . S
C2900 C2901 1.334 . S
C2901 H2878 0.950 . S
C2901 C2900 1.334 . S
C2901 C2902 1.287 . S
C2902 C2901 1.287 . S
C2902 C2903 1.524 . S
C2902 H2921 0.913 . S
C2903 H2879 0.950 . S
C2903 C2902 1.524 . S
C2903 C2904 1.415 . S
C2904 H2880 0.950 . S
C2904 C2899 1.363 . S
C2904 C2903 1.415 . S
C2905 H2881 0.951 . S
C2905 C2906 1.366 . S
C2905 C2907 1.388 . S
C2906 C2905 1.366 . S
C2906 C2910 1.385 . S
C2907 H2882 0.951 . S
C2907 C2905 1.388 . S
C2907 C2908 1.366 . S
C2908 C2907 1.366 . S
C2908 C2909 1.414 . S
C2908 C2911 1.499 . S
C2909 H2883 0.950 . S
C2909 C2908 1.414 . S
C2909 C2910 1.374 . S
C2910 H2884 0.950 . S
C2910 C2906 1.385 . S
C2910 C2909 1.374 . S
C2911 C2908 1.499 . S
C2911 C2912 1.373 . S
C2911 C2913 1.389 . S
C2912 H2885 0.950 . S
C2912 C2898 1.377 . S
C2912 C2911 1.373 . S
C2913 C2897 1.377 . S
C2913 C2911 1.389 . S
C2913 C2914 1.524 . S
C2914 C2913 1.524 . S
C2914 C2915 1.397 . S
C2914 C2919 1.363 . S
C2915 H2886 0.950 . S
C2915 C2914 1.397 . S
C2915 C2916 1.334 . S
C2916 H2887 0.950 . S
C2916 C2915 1.334 . S
C2916 C2917 1.287 . S
C2917 C2916 1.287 . S
C2917 C2918 1.524 . S
C2917 H2920 0.999 . S
C2918 H2888 0.950 . S
C2918 C2917 1.524 . S
C2918 C2919 1.415 . S
C2919 H2889 0.950 . S
C2919 C2914 1.363 . S
C2919 C2918 1.415 . S
H2920 C2917 0.999 . S
H2921 C2902 0.913 . S
H2922 C2940 0.951 . S
H2923 C2942 0.951 . S
H2924 C2944 0.950 . S
H2925 C2945 0.950 . S
H2926 C2947 0.950 . S
H2927 C2950 0.950 . S
H2928 C2951 0.950 . S
H2929 C2953 0.950 . S
H2930 C2954 0.950 . S
H2931 C2955 0.951 . S
H2932 C2957 0.951 . S
H2933 C2959 0.950 . S
H2934 C2960 0.950 . S
H2935 C2962 0.950 . S
H2936 C2965 0.950 . S
H2937 C2966 0.950 . S
H2938 C2968 0.952 1_455 S
H2939 C2969 0.950 . S
C2940 H2922 0.951 . S
C2940 C2941 1.366 . S
C2940 C2942 1.388 . S
C2941 C2940 1.366 . S
C2941 C2945 1.385 . S
C2942 H2923 0.951 . S
C2942 C2940 1.388 . S
C2942 C2943 1.366 . S
C2943 C2942 1.366 . S
C2943 C2944 1.414 . S
C2943 C2946 1.499 . S
C2944 H2924 0.950 . S
C2944 C2943 1.414 . S
C2944 C2945 1.374 . S
C2945 H2925 0.950 . S
C2945 C2941 1.385 . S
C2945 C2944 1.374 . S
C2946 C2943 1.499 . S
C2946 C2947 1.373 . S
C2946 C2948 1.389 . S
C2947 H2926 0.950 . S
C2947 C2946 1.373 . S
C2947 C2963 1.377 . S
C2948 C2946 1.389 . S
C2948 C2949 1.524 . S
C2948 C2962 1.377 . S
C2949 C2948 1.524 . S
C2949 C2950 1.397 . S
C2949 C2954 1.363 . S
C2950 H2927 0.950 . S
C2950 C2949 1.397 . S
C2950 C2951 1.334 . S
C2951 H2928 0.950 . S
C2951 C2950 1.334 . S
C2951 C2952 1.287 . S
C2952 C2951 1.287 . S
C2952 C2953 1.524 . S
C2952 H2971 0.913 . S
C2953 H2929 0.950 . S
C2953 C2952 1.524 . S
C2953 C2954 1.415 . S
C2954 H2930 0.950 . S
C2954 C2949 1.363 . S
C2954 C2953 1.415 . S
C2955 H2931 0.951 . S
C2955 C2956 1.366 . S
C2955 C2957 1.388 . S
C2956 C2955 1.366 . S
C2956 C2960 1.385 . S
C2957 H2932 0.951 . S
C2957 C2955 1.388 . S
C2957 C2958 1.366 . S
C2958 C2957 1.366 . S
C2958 C2959 1.414 . S
C2958 C2961 1.499 . S
C2959 H2933 0.950 . S
C2959 C2958 1.414 . S
C2959 C2960 1.374 . S
C2960 H2934 0.950 . S
C2960 C2956 1.385 . S
C2960 C2959 1.374 . S
C2961 C2958 1.499 . S
C2961 C2962 1.373 . S
C2961 C2963 1.389 . S
C2962 H2935 0.950 . S
C2962 C2948 1.377 . S
C2962 C2961 1.373 . S
C2963 C2947 1.377 . S
C2963 C2961 1.389 . S
C2963 C2964 1.524 . S
C2964 C2963 1.524 . S
C2964 C2965 1.397 . S
C2964 C2969 1.363 . S
C2965 H2936 0.950 . S
C2965 C2964 1.397 . S
C2965 C2966 1.334 1_655 S
C2966 H2937 0.950 . S
C2966 C2965 1.334 1_455 S
C2966 C2967 1.287 . S
C2967 C2966 1.287 . S
C2967 C2968 1.517 1_455 S
C2967 H2970 0.999 . S
C2968 H2938 0.952 1_655 S
C2968 C2967 1.517 1_655 S
C2968 C2969 1.419 . S
C2969 H2939 0.950 . S
C2969 C2964 1.363 . S
C2969 C2968 1.419 . S
H2970 C2967 0.999 . S
H2971 C2952 0.913 . S
H2972 C2990 0.951 . S
H2973 C2992 0.951 . S
H2974 C2994 0.950 . S
H2975 C2995 0.950 . S
H2976 C2997 0.950 . S
H2977 C3000 0.950 . S
H2978 C3001 0.950 . S
H2979 C3003 0.950 . S
H2980 C3004 0.950 . S
H2981 C3005 0.951 . S
H2982 C3007 0.951 . S
H2983 C3009 0.950 . S
H2984 C3010 0.950 . S
H2985 C3012 0.950 . S
H2986 C3015 0.950 . S
H2987 C3016 0.950 . S
H2988 C3018 0.950 . S
H2989 C3019 0.950 . S
C2990 H2972 0.951 . S
C2990 C2991 1.366 . S
C2990 C2992 1.388 . S
C2991 C2990 1.366 . S
C2991 C2995 1.385 . S
C2992 H2973 0.951 . S
C2992 C2990 1.388 . S
C2992 C2993 1.366 . S
C2993 C2992 1.366 . S
C2993 C2994 1.414 . S
C2993 C2996 1.499 . S
C2994 H2974 0.950 . S
C2994 C2993 1.414 . S
C2994 C2995 1.374 . S
C2995 H2975 0.950 . S
C2995 C2991 1.385 . S
C2995 C2994 1.374 . S
C2996 C2993 1.499 . S
C2996 C2997 1.373 . S
C2996 C2998 1.389 . S
C2997 H2976 0.950 . S
C2997 C2996 1.373 . S
C2997 C3013 1.377 . S
C2998 C2996 1.389 . S
C2998 C2999 1.524 . S
C2998 C3012 1.377 . S
C2999 C2998 1.524 . S
C2999 C3000 1.397 . S
C2999 C3004 1.363 . S
C3000 H2977 0.950 . S
C3000 C2999 1.397 . S
C3000 C3001 1.334 . S
C3001 H2978 0.950 . S
C3001 C3000 1.334 . S
C3001 C3002 1.287 . S
C3002 C3001 1.287 . S
C3002 C3003 1.524 . S
C3002 H3021 0.913 . S
C3003 H2979 0.950 . S
C3003 C3002 1.524 . S
C3003 C3004 1.415 . S
C3004 H2980 0.950 . S
C3004 C2999 1.363 . S
C3004 C3003 1.415 . S
C3005 H2981 0.951 . S
C3005 C3006 1.366 . S
C3005 C3007 1.388 . S
C3006 C3005 1.366 . S
C3006 C3010 1.385 . S
C3007 H2982 0.951 . S
C3007 C3005 1.388 . S
C3007 C3008 1.366 . S
C3008 C3007 1.366 . S
C3008 C3009 1.414 . S
C3008 C3011 1.499 . S
C3009 H2983 0.950 . S
C3009 C3008 1.414 . S
C3009 C3010 1.374 . S
C3010 H2984 0.950 . S
C3010 C3006 1.385 . S
C3010 C3009 1.374 . S
C3011 C3008 1.499 . S
C3011 C3012 1.373 . S
C3011 C3013 1.389 . S
C3012 H2985 0.950 . S
C3012 C2998 1.377 . S
C3012 C3011 1.373 . S
C3013 C2997 1.377 . S
C3013 C3011 1.389 . S
C3013 C3014 1.524 . S
C3014 C3013 1.524 . S
C3014 C3015 1.397 . S
C3014 C3019 1.363 . S
C3015 H2986 0.950 . S
C3015 C3014 1.397 . S
C3015 C3016 1.334 . S
C3016 H2987 0.950 . S
C3016 C3015 1.334 . S
C3016 C3017 1.287 . S
C3017 C3016 1.287 . S
C3017 C3018 1.524 . S
C3017 H3020 0.999 . S
C3018 H2988 0.950 . S
C3018 C3017 1.524 . S
C3018 C3019 1.415 . S
C3019 H2989 0.950 . S
C3019 C3014 1.363 . S
C3019 C3018 1.415 . S
H3020 C3017 0.999 . S
H3021 C3002 0.913 . S
H3022 C3040 0.951 . S
H3023 C3042 0.951 . S
H3024 C3044 0.950 . S
H3025 C3045 0.950 . S
H3026 C3047 0.950 . S
H3027 C3050 0.950 . S
H3028 C3051 0.950 . S
H3029 C3053 0.950 . S
H3030 C3054 0.950 . S
H3031 C3055 0.951 . S
H3032 C3057 0.951 . S
H3033 C3059 0.950 . S
H3034 C3060 0.950 . S
H3035 C3062 0.950 . S
H3036 C3065 0.950 . S
H3037 C3066 0.950 . S
H3038 C3068 0.950 . S
H3039 C3069 0.950 . S
C3040 H3022 0.951 . S
C3040 C3041 1.366 . S
C3040 C3042 1.388 . S
C3041 C3040 1.366 . S
C3041 C3045 1.385 . S
C3042 H3023 0.951 . S
C3042 C3040 1.388 . S
C3042 C3043 1.366 . S
C3043 C3042 1.366 . S
C3043 C3044 1.414 . S
C3043 C3046 1.499 . S
C3044 H3024 0.950 . S
C3044 C3043 1.414 . S
C3044 C3045 1.374 . S
C3045 H3025 0.950 . S
C3045 C3041 1.385 . S
C3045 C3044 1.374 . S
C3046 C3043 1.499 . S
C3046 C3047 1.373 . S
C3046 C3048 1.389 . S
C3047 H3026 0.950 . S
C3047 C3046 1.373 . S
C3047 C3063 1.377 . S
C3048 C3046 1.389 . S
C3048 C3049 1.524 . S
C3048 C3062 1.377 . S
C3049 C3048 1.524 . S
C3049 C3050 1.397 . S
C3049 C3054 1.363 . S
C3050 H3027 0.950 . S
C3050 C3049 1.397 . S
C3050 C3051 1.334 . S
C3051 H3028 0.950 . S
C3051 C3050 1.334 . S
C3051 C3052 1.287 . S
C3052 C3051 1.287 . S
C3052 C3053 1.524 . S
C3052 H3071 0.913 . S
C3053 H3029 0.950 . S
C3053 C3052 1.524 . S
C3053 C3054 1.415 . S
C3054 H3030 0.950 . S
C3054 C3049 1.363 . S
C3054 C3053 1.415 . S
C3055 H3031 0.951 . S
C3055 C3056 1.366 . S
C3055 C3057 1.388 . S
C3056 C3055 1.366 . S
C3056 C3060 1.385 . S
C3057 H3032 0.951 . S
C3057 C3055 1.388 . S
C3057 C3058 1.366 . S
C3058 C3057 1.366 . S
C3058 C3059 1.414 . S
C3058 C3061 1.499 . S
C3059 H3033 0.950 . S
C3059 C3058 1.414 . S
C3059 C3060 1.374 . S
C3060 H3034 0.950 . S
C3060 C3056 1.385 . S
C3060 C3059 1.374 . S
C3061 C3058 1.499 . S
C3061 C3062 1.373 . S
C3061 C3063 1.389 . S
C3062 H3035 0.950 . S
C3062 C3048 1.377 . S
C3062 C3061 1.373 . S
C3063 C3047 1.377 . S
C3063 C3061 1.389 . S
C3063 C3064 1.524 . S
C3064 C3063 1.524 . S
C3064 C3065 1.397 . S
C3064 C3069 1.363 . S
C3065 H3036 0.950 . S
C3065 C3064 1.397 . S
C3065 C3066 1.334 . S
C3066 H3037 0.950 . S
C3066 C3065 1.334 . S
C3066 C3067 1.287 . S
C3067 C3066 1.287 . S
C3067 C3068 1.524 . S
C3067 H3070 0.999 . S
C3068 H3038 0.950 . S
C3068 C3067 1.524 . S
C3068 C3069 1.415 . S
C3069 H3039 0.950 . S
C3069 C3064 1.363 . S
C3069 C3068 1.415 . S
H3070 C3067 0.999 . S
H3071 C3052 0.913 . S
H3072 C3090 0.951 . S
H3073 C3092 0.951 . S
H3074 C3094 0.950 . S
H3075 C3095 0.950 . S
H3076 C3097 0.950 . S
H3077 C3100 0.950 . S
H3078 C3101 0.950 . S
H3079 C3103 0.950 . S
H3080 C3104 0.950 . S
H3081 C3105 0.951 . S
H3082 C3107 0.951 . S
H3083 C3109 0.950 . S
H3084 C3110 0.950 . S
H3085 C3112 0.950 . S
H3086 C3115 0.950 . S
H3087 C3116 0.950 . S
H3088 C3118 0.950 . S
H3089 C3119 0.950 . S
C3090 H3072 0.951 . S
C3090 C3091 1.366 . S
C3090 C3092 1.388 . S
C3091 C3090 1.366 . S
C3091 C3095 1.385 . S
C3092 H3073 0.951 . S
C3092 C3090 1.388 . S
C3092 C3093 1.366 . S
C3093 C3092 1.366 . S
C3093 C3094 1.414 . S
C3093 C3096 1.499 . S
C3094 H3074 0.950 . S
C3094 C3093 1.414 . S
C3094 C3095 1.374 . S
C3095 H3075 0.950 . S
C3095 C3091 1.385 . S
C3095 C3094 1.374 . S
C3096 C3093 1.499 . S
C3096 C3097 1.373 . S
C3096 C3098 1.389 . S
C3097 H3076 0.950 . S
C3097 C3096 1.373 . S
C3097 C3113 1.377 . S
C3098 C3096 1.389 . S
C3098 C3099 1.524 . S
C3098 C3112 1.377 . S
C3099 C3098 1.524 . S
C3099 C3100 1.397 . S
C3099 C3104 1.363 . S
C3100 H3077 0.950 . S
C3100 C3099 1.397 . S
C3100 C3101 1.334 . S
C3101 H3078 0.950 . S
C3101 C3100 1.334 . S
C3101 C3102 1.287 . S
C3102 C3101 1.287 . S
C3102 C3103 1.524 . S
C3102 H3121 0.913 . S
C3103 H3079 0.950 . S
C3103 C3102 1.524 . S
C3103 C3104 1.415 . S
C3104 H3080 0.950 . S
C3104 C3099 1.363 . S
C3104 C3103 1.415 . S
C3105 H3081 0.951 . S
C3105 C3106 1.366 . S
C3105 C3107 1.388 . S
C3106 C3105 1.366 . S
C3106 C3110 1.385 . S
C3107 H3082 0.951 . S
C3107 C3105 1.388 . S
C3107 C3108 1.366 . S
C3108 C3107 1.366 . S
C3108 C3109 1.414 . S
C3108 C3111 1.499 . S
C3109 H3083 0.950 . S
C3109 C3108 1.414 . S
C3109 C3110 1.374 . S
C3110 H3084 0.950 . S
C3110 C3106 1.385 . S
C3110 C3109 1.374 . S
C3111 C3108 1.499 . S
C3111 C3112 1.373 . S
C3111 C3113 1.389 . S
C3112 H3085 0.950 . S
C3112 C3098 1.377 . S
C3112 C3111 1.373 . S
C3113 C3097 1.377 . S
C3113 C3111 1.389 . S
C3113 C3114 1.524 . S
C3114 C3113 1.524 . S
C3114 C3115 1.397 . S
C3114 C3119 1.363 . S
C3115 H3086 0.950 . S
C3115 C3114 1.397 . S
C3115 C3116 1.334 . S
C3116 H3087 0.950 . S
C3116 C3115 1.334 . S
C3116 C3117 1.287 . S
C3117 C3116 1.287 . S
C3117 C3118 1.524 . S
C3117 H3120 0.999 . S
C3118 H3088 0.950 . S
C3118 C3117 1.524 . S
C3118 C3119 1.415 . S
C3119 H3089 0.950 . S
C3119 C3114 1.363 . S
C3119 C3118 1.415 . S
H3120 C3117 0.999 . S
H3121 C3102 0.913 . S
H3122 C3140 0.951 . S
H3123 C3142 0.951 . S
H3124 C3144 0.950 . S
H3125 C3145 0.950 . S
H3126 C3147 0.950 . S
H3127 C3150 0.950 . S
H3128 C3151 0.950 . S
H3129 C3153 0.950 . S
H3130 C3154 0.950 . S
H3131 C3155 0.951 . S
H3132 C3157 0.951 . S
H3133 C3159 0.950 . S
H3134 C3160 0.950 . S
H3135 C3162 0.950 . S
H3136 C3165 0.950 . S
H3137 C3166 0.950 . S
H3138 C3168 0.950 . S
H3139 C3169 0.950 . S
C3140 H3122 0.951 . S
C3140 C3141 1.366 . S
C3140 C3142 1.388 . S
C3141 C3140 1.366 . S
C3141 C3145 1.385 . S
C3142 H3123 0.951 . S
C3142 C3140 1.388 . S
C3142 C3143 1.366 . S
C3143 C3142 1.366 . S
C3143 C3144 1.414 . S
C3143 C3146 1.499 . S
C3144 H3124 0.950 . S
C3144 C3143 1.414 . S
C3144 C3145 1.374 . S
C3145 H3125 0.950 . S
C3145 C3141 1.385 . S
C3145 C3144 1.374 . S
C3146 C3143 1.499 . S
C3146 C3147 1.373 . S
C3146 C3148 1.389 . S
C3147 H3126 0.950 . S
C3147 C3146 1.373 . S
C3147 C3163 1.377 . S
C3148 C3146 1.389 . S
C3148 C3149 1.524 . S
C3148 C3162 1.377 . S
C3149 C3148 1.524 . S
C3149 C3150 1.397 . S
C3149 C3154 1.363 . S
C3150 H3127 0.950 . S
C3150 C3149 1.397 . S
C3150 C3151 1.334 . S
C3151 H3128 0.950 . S
C3151 C3150 1.334 . S
C3151 C3152 1.287 . S
C3152 C3151 1.287 . S
C3152 C3153 1.524 . S
C3152 H3171 0.913 . S
C3153 H3129 0.950 . S
C3153 C3152 1.524 . S
C3153 C3154 1.415 . S
C3154 H3130 0.950 . S
C3154 C3149 1.363 . S
C3154 C3153 1.415 . S
C3155 H3131 0.951 . S
C3155 C3156 1.366 . S
C3155 C3157 1.388 . S
C3156 C3155 1.366 . S
C3156 C3160 1.385 . S
C3157 H3132 0.951 . S
C3157 C3155 1.388 . S
C3157 C3158 1.366 . S
C3158 C3157 1.366 . S
C3158 C3159 1.414 . S
C3158 C3161 1.499 . S
C3159 H3133 0.950 . S
C3159 C3158 1.414 . S
C3159 C3160 1.374 . S
C3160 H3134 0.950 . S
C3160 C3156 1.385 . S
C3160 C3159 1.374 . S
C3161 C3158 1.499 . S
C3161 C3162 1.373 . S
C3161 C3163 1.389 . S
C3162 H3135 0.950 . S
C3162 C3148 1.377 . S
C3162 C3161 1.373 . S
C3163 C3147 1.377 . S
C3163 C3161 1.389 . S
C3163 C3164 1.524 . S
C3164 C3163 1.524 . S
C3164 C3165 1.397 . S
C3164 C3169 1.363 . S
C3165 H3136 0.950 . S
C3165 C3164 1.397 . S
C3165 C3166 1.334 . S
C3166 H3137 0.950 . S
C3166 C3165 1.334 . S
C3166 C3167 1.287 . S
C3167 C3166 1.287 . S
C3167 C3168 1.524 . S
C3167 H3170 0.999 . S
C3168 H3138 0.950 . S
C3168 C3167 1.524 . S
C3168 C3169 1.415 . S
C3169 H3139 0.950 . S
C3169 C3164 1.363 . S
C3169 C3168 1.415 . S
H3170 C3167 0.999 . S
H3171 C3152 0.913 . S
H3172 C3190 0.951 . S
H3173 C3192 0.951 . S
H3174 C3194 0.950 . S
H3175 C3195 0.950 . S
H3176 C3197 0.950 . S
H3177 C3200 0.950 . S
H3178 C3201 0.950 . S
H3179 C3203 0.950 . S
H3180 C3204 0.950 . S
H3181 C3205 0.951 . S
H3182 C3207 0.951 . S
H3183 C3209 0.950 . S
H3184 C3210 0.950 . S
H3185 C3212 0.950 . S
H3186 C3215 0.950 . S
H3187 C3216 0.950 . S
H3188 C3218 0.950 . S
H3189 C3219 0.950 . S
C3190 H3172 0.951 . S
C3190 C3191 1.366 . S
C3190 C3192 1.388 . S
C3191 C3190 1.366 . S
C3191 C3195 1.385 . S
C3192 H3173 0.951 . S
C3192 C3190 1.388 . S
C3192 C3193 1.366 . S
C3193 C3192 1.366 . S
C3193 C3194 1.414 . S
C3193 C3196 1.499 . S
C3194 H3174 0.950 . S
C3194 C3193 1.414 . S
C3194 C3195 1.374 . S
C3195 H3175 0.950 . S
C3195 C3191 1.385 . S
C3195 C3194 1.374 . S
C3196 C3193 1.499 . S
C3196 C3197 1.373 . S
C3196 C3198 1.389 . S
C3197 H3176 0.950 . S
C3197 C3196 1.373 . S
C3197 C3213 1.377 . S
C3198 C3196 1.389 . S
C3198 C3199 1.524 . S
C3198 C3212 1.377 . S
C3199 C3198 1.524 . S
C3199 C3200 1.397 . S
C3199 C3204 1.363 . S
C3200 H3177 0.950 . S
C3200 C3199 1.397 . S
C3200 C3201 1.334 . S
C3201 H3178 0.950 . S
C3201 C3200 1.334 . S
C3201 C3202 1.287 . S
C3202 C3201 1.287 . S
C3202 C3203 1.524 . S
C3202 H3221 0.913 . S
C3203 H3179 0.950 . S
C3203 C3202 1.524 . S
C3203 C3204 1.415 . S
C3204 H3180 0.950 . S
C3204 C3199 1.363 . S
C3204 C3203 1.415 . S
C3205 H3181 0.951 . S
C3205 C3206 1.366 . S
C3205 C3207 1.388 . S
C3206 C3205 1.366 . S
C3206 C3210 1.385 . S
C3207 H3182 0.951 . S
C3207 C3205 1.388 . S
C3207 C3208 1.366 . S
C3208 C3207 1.366 . S
C3208 C3209 1.414 . S
C3208 C3211 1.499 . S
C3209 H3183 0.950 . S
C3209 C3208 1.414 . S
C3209 C3210 1.374 . S
C3210 H3184 0.950 . S
C3210 C3206 1.385 . S
C3210 C3209 1.374 . S
C3211 C3208 1.499 . S
C3211 C3212 1.373 . S
C3211 C3213 1.389 . S
C3212 H3185 0.950 . S
C3212 C3198 1.377 . S
C3212 C3211 1.373 . S
C3213 C3197 1.377 . S
C3213 C3211 1.389 . S
C3213 C3214 1.524 . S
C3214 C3213 1.524 . S
C3214 C3215 1.397 . S
C3214 C3219 1.363 . S
C3215 H3186 0.950 . S
C3215 C3214 1.397 . S
C3215 C3216 1.334 . S
C3216 H3187 0.950 . S
C3216 C3215 1.334 . S
C3216 C3217 1.287 . S
C3217 C3216 1.287 . S
C3217 C3218 1.524 . S
C3217 H3220 0.999 . S
C3218 H3188 0.950 . S
C3218 C3217 1.524 . S
C3218 C3219 1.415 . S
C3219 H3189 0.950 . S
C3219 C3214 1.363 . S
C3219 C3218 1.415 . S
H3220 C3217 0.999 . S
H3221 C3202 0.913 . S
H3222 C3240 0.951 . S
H3223 C3242 0.951 . S
H3224 C3244 0.950 . S
H3225 C3245 0.950 . S
H3226 C3247 0.950 . S
H3227 C3250 0.950 . S
H3228 C3251 0.950 . S
H3229 C3253 0.950 . S
H3230 C3254 0.950 . S
H3231 C3255 0.951 . S
H3232 C3257 0.951 . S
H3233 C3259 0.950 . S
H3234 C3260 0.950 . S
H3235 C3262 0.950 . S
H3236 C3265 0.950 . S
H3237 C3266 0.950 . S
H3238 C3268 0.950 . S
H3239 C3269 0.950 . S
C3240 H3222 0.951 . S
C3240 C3241 1.366 . S
C3240 C3242 1.388 . S
C3241 C3240 1.366 . S
C3241 C3245 1.385 . S
C3242 H3223 0.951 . S
C3242 C3240 1.388 . S
C3242 C3243 1.366 . S
C3243 C3242 1.366 . S
C3243 C3244 1.414 . S
C3243 C3246 1.499 . S
C3244 H3224 0.950 . S
C3244 C3243 1.414 . S
C3244 C3245 1.374 . S
C3245 H3225 0.950 . S
C3245 C3241 1.385 . S
C3245 C3244 1.374 . S
C3246 C3243 1.499 . S
C3246 C3247 1.373 . S
C3246 C3248 1.389 . S
C3247 H3226 0.950 . S
C3247 C3246 1.373 . S
C3247 C3263 1.377 . S
C3248 C3246 1.389 . S
C3248 C3249 1.524 . S
C3248 C3262 1.377 . S
C3249 C3248 1.524 . S
C3249 C3250 1.397 . S
C3249 C3254 1.363 . S
C3250 H3227 0.950 . S
C3250 C3249 1.397 . S
C3250 C3251 1.334 . S
C3251 H3228 0.950 . S
C3251 C3250 1.334 . S
C3251 C3252 1.287 . S
C3252 C3251 1.287 . S
C3252 C3253 1.524 . S
C3252 H3271 0.913 . S
C3253 H3229 0.950 . S
C3253 C3252 1.524 . S
C3253 C3254 1.415 . S
C3254 H3230 0.950 . S
C3254 C3249 1.363 . S
C3254 C3253 1.415 . S
C3255 H3231 0.951 . S
C3255 C3256 1.366 . S
C3255 C3257 1.388 . S
C3256 C3255 1.366 . S
C3256 C3260 1.385 . S
C3257 H3232 0.951 . S
C3257 C3255 1.388 . S
C3257 C3258 1.366 . S
C3258 C3257 1.366 . S
C3258 C3259 1.414 . S
C3258 C3261 1.499 . S
C3259 H3233 0.950 . S
C3259 C3258 1.414 . S
C3259 C3260 1.374 . S
C3260 H3234 0.950 . S
C3260 C3256 1.385 . S
C3260 C3259 1.374 . S
C3261 C3258 1.499 . S
C3261 C3262 1.373 . S
C3261 C3263 1.389 . S
C3262 H3235 0.950 . S
C3262 C3248 1.377 . S
C3262 C3261 1.373 . S
C3263 C3247 1.377 . S
C3263 C3261 1.389 . S
C3263 C3264 1.524 . S
C3264 C3263 1.524 . S
C3264 C3265 1.397 . S
C3264 C3269 1.363 . S
C3265 H3236 0.950 . S
C3265 C3264 1.397 . S
C3265 C3266 1.334 . S
C3266 H3237 0.950 . S
C3266 C3265 1.334 . S
C3266 C3267 1.287 . S
C3267 C3266 1.287 . S
C3267 C3268 1.524 . S
C3267 H3270 0.999 . S
C3268 H3238 0.950 . S
C3268 C3267 1.524 . S
C3268 C3269 1.415 . S
C3269 H3239 0.950 . S
C3269 C3264 1.363 . S
C3269 C3268 1.415 . S
H3270 C3267 0.999 . S
H3271 C3252 0.913 . S
H3272 C3290 0.951 . S
H3273 C3292 0.951 . S
H3274 C3294 0.950 . S
H3275 C3295 0.950 . S
H3276 C3297 0.950 . S
H3277 C3300 0.950 . S
H3278 C3301 0.950 . S
H3279 C3303 0.950 . S
H3280 C3304 0.950 . S
H3281 C3305 0.951 . S
H3282 C3307 0.951 . S
H3283 C3309 0.950 . S
H3284 C3310 0.950 . S
H3285 C3312 0.950 . S
H3286 C3315 0.950 . S
H3287 C3316 0.950 . S
H3288 C3318 0.950 . S
H3289 C3319 0.950 . S
C3290 H3272 0.951 . S
C3290 C3291 1.366 . S
C3290 C3292 1.388 . S
C3291 C3290 1.366 . S
C3291 C3295 1.385 . S
C3292 H3273 0.951 . S
C3292 C3290 1.388 . S
C3292 C3293 1.366 . S
C3293 C3292 1.366 . S
C3293 C3294 1.414 . S
C3293 C3296 1.499 . S
C3294 H3274 0.950 . S
C3294 C3293 1.414 . S
C3294 C3295 1.374 . S
C3295 H3275 0.950 . S
C3295 C3291 1.385 . S
C3295 C3294 1.374 . S
C3296 C3293 1.499 . S
C3296 C3297 1.373 . S
C3296 C3298 1.389 . S
C3297 H3276 0.950 . S
C3297 C3296 1.373 . S
C3297 C3313 1.377 . S
C3298 C3296 1.389 . S
C3298 C3299 1.524 . S
C3298 C3312 1.377 . S
C3299 C3298 1.524 . S
C3299 C3300 1.397 . S
C3299 C3304 1.363 . S
C3300 H3277 0.950 . S
C3300 C3299 1.397 . S
C3300 C3301 1.334 . S
C3301 H3278 0.950 . S
C3301 C3300 1.334 . S
C3301 C3302 1.287 . S
C3302 C3301 1.287 . S
C3302 C3303 1.524 . S
C3302 H3321 0.913 . S
C3303 H3279 0.950 . S
C3303 C3302 1.524 . S
C3303 C3304 1.415 . S
C3304 H3280 0.950 . S
C3304 C3299 1.363 . S
C3304 C3303 1.415 . S
C3305 H3281 0.951 . S
C3305 C3306 1.366 . S
C3305 C3307 1.388 . S
C3306 C3305 1.366 . S
C3306 C3310 1.385 . S
C3307 H3282 0.951 . S
C3307 C3305 1.388 . S
C3307 C3308 1.366 . S
C3308 C3307 1.366 . S
C3308 C3309 1.414 . S
C3308 C3311 1.499 . S
C3309 H3283 0.950 . S
C3309 C3308 1.414 . S
C3309 C3310 1.374 . S
C3310 H3284 0.950 . S
C3310 C3306 1.385 . S
C3310 C3309 1.374 . S
C3311 C3308 1.499 . S
C3311 C3312 1.373 . S
C3311 C3313 1.389 . S
C3312 H3285 0.950 . S
C3312 C3298 1.377 . S
C3312 C3311 1.373 . S
C3313 C3297 1.377 . S
C3313 C3311 1.389 . S
C3313 C3314 1.524 . S
C3314 C3313 1.524 . S
C3314 C3315 1.397 . S
C3314 C3319 1.363 . S
C3315 H3286 0.950 . S
C3315 C3314 1.397 . S
C3315 C3316 1.334 . S
C3316 H3287 0.950 . S
C3316 C3315 1.334 . S
C3316 C3317 1.287 . S
C3317 C3316 1.287 . S
C3317 C3318 1.524 . S
C3317 H3320 0.999 . S
C3318 H3288 0.950 . S
C3318 C3317 1.524 . S
C3318 C3319 1.415 . S
C3319 H3289 0.950 . S
C3319 C3314 1.363 . S
C3319 C3318 1.415 . S
H3320 C3317 0.999 . S
H3321 C3302 0.913 . S
H3322 C3340 0.951 . S
H3323 C3342 0.951 . S
H3324 C3344 0.950 . S
H3325 C3345 0.950 . S
H3326 C3347 0.950 . S
H3327 C3350 0.950 . S
H3328 C3351 0.950 . S
H3329 C3353 0.950 . S
H3330 C3354 0.950 . S
H3331 C3355 0.951 . S
H3332 C3357 0.951 . S
H3333 C3359 0.950 . S
H3334 C3360 0.950 . S
H3335 C3362 0.950 . S
H3336 C3365 0.950 . S
H3337 C3366 0.950 . S
H3338 C3368 0.950 . S
H3339 C3369 0.950 . S
C3340 H3322 0.951 . S
C3340 C3341 1.366 . S
C3340 C3342 1.388 . S
C3341 C3340 1.366 . S
C3341 C3345 1.385 . S
C3342 H3323 0.951 . S
C3342 C3340 1.388 . S
C3342 C3343 1.366 . S
C3343 C3342 1.366 . S
C3343 C3344 1.414 . S
C3343 C3346 1.499 . S
C3344 H3324 0.950 . S
C3344 C3343 1.414 . S
C3344 C3345 1.374 . S
C3345 H3325 0.950 . S
C3345 C3341 1.385 . S
C3345 C3344 1.374 . S
C3346 C3343 1.499 . S
C3346 C3347 1.373 . S
C3346 C3348 1.389 . S
C3347 H3326 0.950 . S
C3347 C3346 1.373 . S
C3347 C3363 1.377 . S
C3348 C3346 1.389 . S
C3348 C3349 1.524 . S
C3348 C3362 1.377 . S
C3349 C3348 1.524 . S
C3349 C3350 1.397 . S
C3349 C3354 1.363 . S
C3350 H3327 0.950 . S
C3350 C3349 1.397 . S
C3350 C3351 1.334 . S
C3351 H3328 0.950 . S
C3351 C3350 1.334 . S
C3351 C3352 1.287 . S
C3352 C3351 1.287 . S
C3352 C3353 1.524 . S
C3352 H3371 0.913 . S
C3353 H3329 0.950 . S
C3353 C3352 1.524 . S
C3353 C3354 1.415 . S
C3354 H3330 0.950 . S
C3354 C3349 1.363 . S
C3354 C3353 1.415 . S
C3355 H3331 0.951 . S
C3355 C3356 1.366 . S
C3355 C3357 1.388 . S
C3356 C3355 1.366 . S
C3356 C3360 1.385 . S
C3357 H3332 0.951 . S
C3357 C3355 1.388 . S
C3357 C3358 1.366 . S
C3358 C3357 1.366 . S
C3358 C3359 1.414 . S
C3358 C3361 1.499 . S
C3359 H3333 0.950 . S
C3359 C3358 1.414 . S
C3359 C3360 1.374 . S
C3360 H3334 0.950 . S
C3360 C3356 1.385 . S
C3360 C3359 1.374 . S
C3361 C3358 1.499 . S
C3361 C3362 1.373 . S
C3361 C3363 1.389 . S
C3362 H3335 0.950 . S
C3362 C3348 1.377 . S
C3362 C3361 1.373 . S
C3363 C3347 1.377 . S
C3363 C3361 1.389 . S
C3363 C3364 1.524 . S
C3364 C3363 1.524 . S
C3364 C3365 1.397 . S
C3364 C3369 1.363 . S
C3365 H3336 0.950 . S
C3365 C3364 1.397 . S
C3365 C3366 1.334 . S
C3366 H3337 0.950 . S
C3366 C3365 1.334 . S
C3366 C3367 1.287 . S
C3367 C3366 1.287 . S
C3367 C3368 1.524 . S
C3367 H3370 0.999 . S
C3368 H3338 0.950 . S
C3368 C3367 1.524 . S
C3368 C3369 1.415 . S
C3369 H3339 0.950 . S
C3369 C3364 1.363 . S
C3369 C3368 1.415 . S
H3370 C3367 0.999 . S
H3371 C3352 0.913 . S
H3372 C3390 0.951 . S
H3373 C3392 0.951 . S
H3374 C3394 0.950 . S
H3375 C3395 0.950 . S
H3376 C3397 0.950 . S
H3377 C3400 0.950 . S
H3378 C3401 0.950 . S
H3379 C3403 0.950 . S
H3380 C3404 0.950 . S
H3381 C3405 0.951 . S
H3382 C3407 0.951 . S
H3383 C3409 0.950 . S
H3384 C3410 0.950 . S
H3385 C3412 0.950 . S
H3386 C3415 0.950 . S
H3387 C3416 0.950 . S
H3388 C3418 0.950 . S
H3389 C3419 0.950 . S
C3390 H3372 0.951 . S
C3390 C3391 1.366 . S
C3390 C3392 1.388 . S
C3391 C3390 1.366 . S
C3391 C3395 1.385 . S
C3392 H3373 0.951 . S
C3392 C3390 1.388 . S
C3392 C3393 1.366 . S
C3393 C3392 1.366 . S
C3393 C3394 1.414 . S
C3393 C3396 1.499 . S
C3394 H3374 0.950 . S
C3394 C3393 1.414 . S
C3394 C3395 1.374 . S
C3395 H3375 0.950 . S
C3395 C3391 1.385 . S
C3395 C3394 1.374 . S
C3396 C3393 1.499 . S
C3396 C3397 1.373 . S
C3396 C3398 1.389 . S
C3397 H3376 0.950 . S
C3397 C3396 1.373 . S
C3397 C3413 1.377 . S
C3398 C3396 1.389 . S
C3398 C3399 1.524 . S
C3398 C3412 1.377 . S
C3399 C3398 1.524 . S
C3399 C3400 1.397 . S
C3399 C3404 1.363 . S
C3400 H3377 0.950 . S
C3400 C3399 1.397 . S
C3400 C3401 1.334 . S
C3401 H3378 0.950 . S
C3401 C3400 1.334 . S
C3401 C3402 1.287 . S
C3402 C3401 1.287 . S
C3402 C3403 1.524 . S
C3402 H3421 0.913 . S
C3403 H3379 0.950 . S
C3403 C3402 1.524 . S
C3403 C3404 1.415 . S
C3404 H3380 0.950 . S
C3404 C3399 1.363 . S
C3404 C3403 1.415 . S
C3405 H3381 0.951 . S
C3405 C3406 1.366 . S
C3405 C3407 1.388 . S
C3406 C3405 1.366 . S
C3406 C3410 1.385 . S
C3407 H3382 0.951 . S
C3407 C3405 1.388 . S
C3407 C3408 1.366 . S
C3408 C3407 1.366 . S
C3408 C3409 1.414 . S
C3408 C3411 1.499 . S
C3409 H3383 0.950 . S
C3409 C3408 1.414 . S
C3409 C3410 1.374 . S
C3410 H3384 0.950 . S
C3410 C3406 1.385 . S
C3410 C3409 1.374 . S
C3411 C3408 1.499 . S
C3411 C3412 1.373 . S
C3411 C3413 1.389 . S
C3412 H3385 0.950 . S
C3412 C3398 1.377 . S
C3412 C3411 1.373 . S
C3413 C3397 1.377 . S
C3413 C3411 1.389 . S
C3413 C3414 1.524 . S
C3414 C3413 1.524 . S
C3414 C3415 1.397 . S
C3414 C3419 1.363 . S
C3415 H3386 0.950 . S
C3415 C3414 1.397 . S
C3415 C3416 1.334 . S
C3416 H3387 0.950 . S
C3416 C3415 1.334 . S
C3416 C3417 1.287 . S
C3417 C3416 1.287 . S
C3417 C3418 1.524 . S
C3417 H3420 0.999 . S
C3418 H3388 0.950 . S
C3418 C3417 1.524 . S
C3418 C3419 1.415 . S
C3419 H3389 0.950 . S
C3419 C3414 1.363 . S
C3419 C3418 1.415 . S
H3420 C3417 0.999 . S
H3421 C3402 0.913 . S
H3422 C3440 0.951 . S
H3423 C3442 0.951 . S
H3424 C3444 0.950 . S
H3425 C3445 0.950 . S
H3426 C3447 0.950 . S
H3427 C3450 0.950 . S
H3428 C3451 0.950 . S
H3429 C3453 0.950 . S
H3430 C3454 0.950 . S
H3431 C3455 0.951 . S
H3432 C3457 0.951 . S
H3433 C3459 0.950 . S
H3434 C3460 0.950 . S
H3435 C3462 0.950 . S
H3436 C3465 0.950 . S
H3437 C3466 0.950 . S
H3438 C3468 0.950 . S
H3439 C3469 0.950 . S
C3440 H3422 0.951 . S
C3440 C3441 1.366 . S
C3440 C3442 1.388 . S
C3441 C3440 1.366 . S
C3441 C3445 1.385 . S
C3442 H3423 0.951 . S
C3442 C3440 1.388 . S
C3442 C3443 1.366 . S
C3443 C3442 1.366 . S
C3443 C3444 1.414 . S
C3443 C3446 1.499 . S
C3444 H3424 0.950 . S
C3444 C3443 1.414 . S
C3444 C3445 1.374 . S
C3445 H3425 0.950 . S
C3445 C3441 1.385 . S
C3445 C3444 1.374 . S
C3446 C3443 1.499 . S
C3446 C3447 1.373 . S
C3446 C3448 1.389 . S
C3447 H3426 0.950 . S
C3447 C3446 1.373 . S
C3447 C3463 1.377 . S
C3448 C3446 1.389 . S
C3448 C3449 1.524 . S
C3448 C3462 1.377 . S
C3449 C3448 1.524 . S
C3449 C3450 1.397 . S
C3449 C3454 1.363 . S
C3450 H3427 0.950 . S
C3450 C3449 1.397 . S
C3450 C3451 1.334 . S
C3451 H3428 0.950 . S
C3451 C3450 1.334 . S
C3451 C3452 1.287 . S
C3452 C3451 1.287 . S
C3452 C3453 1.524 . S
C3452 H3471 0.913 . S
C3453 H3429 0.950 . S
C3453 C3452 1.524 . S
C3453 C3454 1.415 . S
C3454 H3430 0.950 . S
C3454 C3449 1.363 . S
C3454 C3453 1.415 . S
C3455 H3431 0.951 . S
C3455 C3456 1.366 . S
C3455 C3457 1.388 . S
C3456 C3455 1.366 . S
C3456 C3460 1.385 . S
C3457 H3432 0.951 . S
C3457 C3455 1.388 . S
C3457 C3458 1.366 . S
C3458 C3457 1.366 . S
C3458 C3459 1.414 . S
C3458 C3461 1.499 . S
C3459 H3433 0.950 . S
C3459 C3458 1.414 . S
C3459 C3460 1.374 . S
C3460 H3434 0.950 . S
C3460 C3456 1.385 . S
C3460 C3459 1.374 . S
C3461 C3458 1.499 . S
C3461 C3462 1.373 . S
C3461 C3463 1.389 . S
C3462 H3435 0.950 . S
C3462 C3448 1.377 . S
C3462 C3461 1.373 . S
C3463 C3447 1.377 . S
C3463 C3461 1.389 . S
C3463 C3464 1.524 . S
C3464 C3463 1.524 . S
C3464 C3465 1.397 . S
C3464 C3469 1.363 . S
C3465 H3436 0.950 . S
C3465 C3464 1.397 . S
C3465 C3466 1.334 . S
C3466 H3437 0.950 . S
C3466 C3465 1.334 . S
C3466 C3467 1.287 . S
C3467 C3466 1.287 . S
C3467 C3468 1.524 . S
C3467 H3470 0.999 . S
C3468 H3438 0.950 . S
C3468 C3467 1.524 . S
C3468 C3469 1.415 . S
C3469 H3439 0.950 . S
C3469 C3464 1.363 . S
C3469 C3468 1.415 . S
H3470 C3467 0.999 . S
H3471 C3452 0.913 . S
H3472 C3490 0.951 . S
H3473 C3492 0.951 . S
H3474 C3494 0.950 . S
H3475 C3495 0.950 . S
H3476 C3497 0.950 . S
H3477 C3500 0.950 . S
H3478 C3501 0.950 . S
H3479 C3503 0.950 . S
H3480 C3504 0.950 . S
H3481 C3505 0.951 . S
H3482 C3507 0.951 . S
H3483 C3509 0.950 . S
H3484 C3510 0.950 . S
H3485 C3512 0.950 . S
H3486 C3515 0.950 . S
H3487 C3516 0.950 . S
H3488 C3518 0.950 . S
H3489 C3519 0.950 . S
C3490 H3472 0.951 . S
C3490 C3491 1.366 . S
C3490 C3492 1.388 . S
C3491 C3490 1.366 . S
C3491 C3495 1.385 . S
C3492 H3473 0.951 . S
C3492 C3490 1.388 . S
C3492 C3493 1.366 . S
C3493 C3492 1.366 . S
C3493 C3494 1.414 . S
C3493 C3496 1.499 . S
C3494 H3474 0.950 . S
C3494 C3493 1.414 . S
C3494 C3495 1.374 . S
C3495 H3475 0.950 . S
C3495 C3491 1.385 . S
C3495 C3494 1.374 . S
C3496 C3493 1.499 . S
C3496 C3497 1.373 . S
C3496 C3498 1.389 . S
C3497 H3476 0.950 . S
C3497 C3496 1.373 . S
C3497 C3513 1.377 . S
C3498 C3496 1.389 . S
C3498 C3499 1.524 . S
C3498 C3512 1.377 . S
C3499 C3498 1.524 . S
C3499 C3500 1.397 . S
C3499 C3504 1.363 . S
C3500 H3477 0.950 . S
C3500 C3499 1.397 . S
C3500 C3501 1.334 . S
C3501 H3478 0.950 . S
C3501 C3500 1.334 . S
C3501 C3502 1.287 . S
C3502 C3501 1.287 . S
C3502 C3503 1.524 . S
C3502 H3521 0.913 . S
C3503 H3479 0.950 . S
C3503 C3502 1.524 . S
C3503 C3504 1.415 . S
C3504 H3480 0.950 . S
C3504 C3499 1.363 . S
C3504 C3503 1.415 . S
C3505 H3481 0.951 . S
C3505 C3506 1.366 . S
C3505 C3507 1.388 . S
C3506 C3505 1.366 . S
C3506 C3510 1.385 . S
C3507 H3482 0.951 . S
C3507 C3505 1.388 . S
C3507 C3508 1.366 . S
C3508 C3507 1.366 . S
C3508 C3509 1.414 . S
C3508 C3511 1.499 . S
C3509 H3483 0.950 . S
C3509 C3508 1.414 . S
C3509 C3510 1.374 . S
C3510 H3484 0.950 . S
C3510 C3506 1.385 . S
C3510 C3509 1.374 . S
C3511 C3508 1.499 . S
C3511 C3512 1.373 . S
C3511 C3513 1.389 . S
C3512 H3485 0.950 . S
C3512 C3498 1.377 . S
C3512 C3511 1.373 . S
C3513 C3497 1.377 . S
C3513 C3511 1.389 . S
C3513 C3514 1.524 . S
C3514 C3513 1.524 . S
C3514 C3515 1.397 . S
C3514 C3519 1.363 . S
C3515 H3486 0.950 . S
C3515 C3514 1.397 . S
C3515 C3516 1.334 . S
C3516 H3487 0.950 . S
C3516 C3515 1.334 . S
C3516 C3517 1.287 . S
C3517 C3516 1.287 . S
C3517 C3518 1.524 . S
C3517 H3520 0.999 . S
C3518 H3488 0.950 . S
C3518 C3517 1.524 . S
C3518 C3519 1.415 . S
C3519 H3489 0.950 . S
C3519 C3514 1.363 . S
C3519 C3518 1.415 . S
H3520 C3517 0.999 . S
H3521 C3502 0.913 . S
H3522 C3540 0.951 . S
H3523 C3542 0.951 . S
H3524 C3544 0.950 . S
H3525 C3545 0.950 . S
H3526 C3547 0.950 . S
H3527 C3550 0.950 . S
H3528 C3551 0.950 . S
H3529 C3553 0.950 . S
H3530 C3554 0.950 . S
H3531 C3555 0.951 . S
H3532 C3557 0.951 . S
H3533 C3559 0.950 . S
H3534 C3560 0.950 . S
H3535 C3562 0.950 . S
H3536 C3565 0.950 . S
H3537 C3566 0.950 . S
H3538 C3568 0.950 . S
H3539 C3569 0.950 . S
C3540 H3522 0.951 . S
C3540 C3541 1.366 . S
C3540 C3542 1.388 . S
C3541 C3540 1.366 . S
C3541 C3545 1.385 . S
C3542 H3523 0.951 . S
C3542 C3540 1.388 . S
C3542 C3543 1.366 . S
C3543 C3542 1.366 . S
C3543 C3544 1.414 . S
C3543 C3546 1.499 . S
C3544 H3524 0.950 . S
C3544 C3543 1.414 . S
C3544 C3545 1.374 . S
C3545 H3525 0.950 . S
C3545 C3541 1.385 . S
C3545 C3544 1.374 . S
C3546 C3543 1.499 . S
C3546 C3547 1.373 . S
C3546 C3548 1.389 . S
C3547 H3526 0.950 . S
C3547 C3546 1.373 . S
C3547 C3563 1.377 . S
C3548 C3546 1.389 . S
C3548 C3549 1.524 . S
C3548 C3562 1.377 . S
C3549 C3548 1.524 . S
C3549 C3550 1.397 . S
C3549 C3554 1.363 . S
C3550 H3527 0.950 . S
C3550 C3549 1.397 . S
C3550 C3551 1.334 . S
C3551 H3528 0.950 . S
C3551 C3550 1.334 . S
C3551 C3552 1.287 . S
C3552 C3551 1.287 . S
C3552 C3553 1.524 . S
C3552 H3571 0.913 . S
C3553 H3529 0.950 . S
C3553 C3552 1.524 . S
C3553 C3554 1.415 . S
C3554 H3530 0.950 . S
C3554 C3549 1.363 . S
C3554 C3553 1.415 . S
C3555 H3531 0.951 . S
C3555 C3556 1.366 . S
C3555 C3557 1.388 . S
C3556 C3555 1.366 . S
C3556 C3560 1.385 . S
C3557 H3532 0.951 . S
C3557 C3555 1.388 . S
C3557 C3558 1.366 . S
C3558 C3557 1.366 . S
C3558 C3559 1.414 . S
C3558 C3561 1.499 . S
C3559 H3533 0.950 . S
C3559 C3558 1.414 . S
C3559 C3560 1.374 . S
C3560 H3534 0.950 . S
C3560 C3556 1.385 . S
C3560 C3559 1.374 . S
C3561 C3558 1.499 . S
C3561 C3562 1.373 . S
C3561 C3563 1.389 . S
C3562 H3535 0.950 . S
C3562 C3548 1.377 . S
C3562 C3561 1.373 . S
C3563 C3547 1.377 . S
C3563 C3561 1.389 . S
C3563 C3564 1.524 . S
C3564 C3563 1.524 . S
C3564 C3565 1.397 . S
C3564 C3569 1.363 . S
C3565 H3536 0.950 . S
C3565 C3564 1.397 . S
C3565 C3566 1.334 . S
C3566 H3537 0.950 . S
C3566 C3565 1.334 . S
C3566 C3567 1.287 . S
C3567 C3566 1.287 . S
C3567 C3568 1.524 . S
C3567 H3570 0.999 . S
C3568 H3538 0.950 . S
C3568 C3567 1.524 . S
C3568 C3569 1.415 . S
C3569 H3539 0.950 . S
C3569 C3564 1.363 . S
C3569 C3568 1.415 . S
H3570 C3567 0.999 . S
H3571 C3552 0.913 . S
H3572 C3590 0.951 . S
H3573 C3592 0.951 . S
H3574 C3594 0.950 . S
H3575 C3595 0.950 . S
H3576 C3597 0.950 . S
H3577 C3600 0.950 . S
H3578 C3601 0.950 . S
H3579 C3603 0.950 . S
H3580 C3604 0.950 . S
H3581 C3605 0.951 . S
H3582 C3607 0.951 . S
H3583 C3609 0.950 . S
H3584 C3610 0.950 . S
H3585 C3612 0.950 . S
H3586 C3615 0.950 . S
H3587 C3616 0.950 . S
H3588 C3618 0.950 . S
H3589 C3619 0.950 . S
C3590 H3572 0.951 . S
C3590 C3591 1.366 . S
C3590 C3592 1.388 . S
C3591 C3590 1.366 . S
C3591 C3595 1.385 . S
C3592 H3573 0.951 . S
C3592 C3590 1.388 . S
C3592 C3593 1.366 . S
C3593 C3592 1.366 . S
C3593 C3594 1.414 . S
C3593 C3596 1.499 . S
C3594 H3574 0.950 . S
C3594 C3593 1.414 . S
C3594 C3595 1.374 . S
C3595 H3575 0.950 . S
C3595 C3591 1.385 . S
C3595 C3594 1.374 . S
C3596 C3593 1.499 . S
C3596 C3597 1.373 . S
C3596 C3598 1.389 . S
C3597 H3576 0.950 . S
C3597 C3596 1.373 . S
C3597 C3613 1.377 . S
C3598 C3596 1.389 . S
C3598 C3599 1.524 . S
C3598 C3612 1.377 . S
C3599 C3598 1.524 . S
C3599 C3600 1.397 . S
C3599 C3604 1.363 . S
C3600 H3577 0.950 . S
C3600 C3599 1.397 . S
C3600 C3601 1.334 . S
C3601 H3578 0.950 . S
C3601 C3600 1.334 . S
C3601 C3602 1.287 . S
C3602 C3601 1.287 . S
C3602 C3603 1.524 . S
C3602 H3621 0.913 . S
C3603 H3579 0.950 . S
C3603 C3602 1.524 . S
C3603 C3604 1.415 . S
C3604 H3580 0.950 . S
C3604 C3599 1.363 . S
C3604 C3603 1.415 . S
C3605 H3581 0.951 . S
C3605 C3606 1.366 . S
C3605 C3607 1.388 . S
C3606 C3605 1.366 . S
C3606 C3610 1.385 . S
C3607 H3582 0.951 . S
C3607 C3605 1.388 . S
C3607 C3608 1.366 . S
C3608 C3607 1.366 . S
C3608 C3609 1.414 . S
C3608 C3611 1.499 . S
C3609 H3583 0.950 . S
C3609 C3608 1.414 . S
C3609 C3610 1.374 . S
C3610 H3584 0.950 . S
C3610 C3606 1.385 . S
C3610 C3609 1.374 . S
C3611 C3608 1.499 . S
C3611 C3612 1.373 . S
C3611 C3613 1.389 . S
C3612 H3585 0.950 . S
C3612 C3598 1.377 . S
C3612 C3611 1.373 . S
C3613 C3597 1.377 . S
C3613 C3611 1.389 . S
C3613 C3614 1.524 . S
C3614 C3613 1.524 . S
C3614 C3615 1.397 . S
C3614 C3619 1.363 . S
C3615 H3586 0.950 . S
C3615 C3614 1.397 . S
C3615 C3616 1.334 . S
C3616 H3587 0.950 . S
C3616 C3615 1.334 . S
C3616 C3617 1.287 . S
C3617 C3616 1.287 . S
C3617 C3618 1.524 . S
C3617 H3620 0.999 . S
C3618 H3588 0.950 . S
C3618 C3617 1.524 . S
C3618 C3619 1.415 . S
C3619 H3589 0.950 . S
C3619 C3614 1.363 . S
C3619 C3618 1.415 . S
H3620 C3617 0.999 . S
H3621 C3602 0.913 . S
H3622 C3640 0.951 . S
H3623 C3642 0.951 . S
H3624 C3644 0.950 . S
H3625 C3645 0.950 . S
H3626 C3647 0.950 . S
H3627 C3650 0.950 . S
H3628 C3651 0.950 . S
H3629 C3653 0.950 . S
H3630 C3654 0.950 . S
H3631 C3655 0.951 . S
H3632 C3657 0.951 . S
H3633 C3659 0.950 . S
H3634 C3660 0.950 . S
H3635 C3662 0.950 . S
H3636 C3665 0.950 . S
H3637 C3666 0.950 . S
H3638 C3668 0.950 . S
H3639 C3669 0.950 . S
C3640 H3622 0.951 . S
C3640 C3641 1.366 . S
C3640 C3642 1.388 . S
C3641 C3640 1.366 . S
C3641 C3645 1.385 . S
C3642 H3623 0.951 . S
C3642 C3640 1.388 . S
C3642 C3643 1.366 . S
C3643 C3642 1.366 . S
C3643 C3644 1.414 . S
C3643 C3646 1.499 . S
C3644 H3624 0.950 . S
C3644 C3643 1.414 . S
C3644 C3645 1.374 . S
C3645 H3625 0.950 . S
C3645 C3641 1.385 . S
C3645 C3644 1.374 . S
C3646 C3643 1.499 . S
C3646 C3647 1.373 . S
C3646 C3648 1.389 . S
C3647 H3626 0.950 . S
C3647 C3646 1.373 . S
C3647 C3663 1.377 . S
C3648 C3646 1.389 . S
C3648 C3649 1.524 . S
C3648 C3662 1.377 . S
C3649 C3648 1.524 . S
C3649 C3650 1.397 . S
C3649 C3654 1.363 . S
C3650 H3627 0.950 . S
C3650 C3649 1.397 . S
C3650 C3651 1.334 . S
C3651 H3628 0.950 . S
C3651 C3650 1.334 . S
C3651 C3652 1.287 . S
C3652 C3651 1.287 . S
C3652 C3653 1.524 . S
C3652 H3671 0.913 . S
C3653 H3629 0.950 . S
C3653 C3652 1.524 . S
C3653 C3654 1.415 . S
C3654 H3630 0.950 . S
C3654 C3649 1.363 . S
C3654 C3653 1.415 . S
C3655 H3631 0.951 . S
C3655 C3656 1.366 . S
C3655 C3657 1.388 . S
C3656 C3655 1.366 . S
C3656 C3660 1.385 . S
C3657 H3632 0.951 . S
C3657 C3655 1.388 . S
C3657 C3658 1.366 . S
C3658 C3657 1.366 . S
C3658 C3659 1.414 . S
C3658 C3661 1.499 . S
C3659 H3633 0.950 . S
C3659 C3658 1.414 . S
C3659 C3660 1.374 . S
C3660 H3634 0.950 . S
C3660 C3656 1.385 . S
C3660 C3659 1.374 . S
C3661 C3658 1.499 . S
C3661 C3662 1.373 . S
C3661 C3663 1.389 . S
C3662 H3635 0.950 . S
C3662 C3648 1.377 . S
C3662 C3661 1.373 . S
C3663 C3647 1.377 . S
C3663 C3661 1.389 . S
C3663 C3664 1.524 . S
C3664 C3663 1.524 . S
C3664 C3665 1.397 . S
C3664 C3669 1.363 . S
C3665 H3636 0.950 . S
C3665 C3664 1.397 . S
C3665 C3666 1.334 . S
C3666 H3637 0.950 . S
C3666 C3665 1.334 . S
C3666 C3667 1.287 . S
C3667 C3666 1.287 . S
C3667 C3668 1.524 . S
C3667 H3670 0.999 . S
C3668 H3638 0.950 . S
C3668 C3667 1.524 . S
C3668 C3669 1.415 . S
C3669 H3639 0.950 . S
C3669 C3664 1.363 . S
C3669 C3668 1.415 . S
H3670 C3667 0.999 . S
H3671 C3652 0.913 . S
C991 C162 1.430 . S
C1006 C272 1.372 . S
C1041 C174 1.457 . S
C1056 C356 1.402 . S
C1091 C150 1.424 . S
C1106 C450 1.417 . S
C1141 C138 1.401 . S
C1156 C366 1.395 1_556 S
C1206 C440 1.350 . S
C1191 C114 1.409 . S
C1241 C126 1.377 . S
C1256 C282 1.364 1_556 S
C1306 C283 1.430 . S
C1291 C136 1.486 . S
C1356 C367 1.458 . S
C1341 C112 1.511 . S
C1391 C124 1.503 . S
C1406 C459 1.479 . S
C1441 C160 1.472 . S
C1456 C375 1.445 . S
C1491 C172 1.456 . S
C1506 C451 1.400 . S
C1556 C291 1.421 . S
C1541 C148 1.448 . S
C1606 C524 1.372 . S
C1591 C18 1.430 . S
C1641 C30 1.457 . S
C1656 C608 1.402 . S
C1691 C6 1.424 . S
C1706 C702 1.416 . S
C1741 C210 1.402 . S
C1756 C618 1.395 . S
C1791 C186 1.409 . S
C1806 C692 1.351 . S
C1841 C198 1.377 . S
C1856 C534 1.368 . S
C1891 C208 1.486 . S
C1906 C535 1.430 . S
C1941 C184 1.511 . S
C1956 C619 1.458 . S
C2006 C711 1.476 . S
C1991 C196 1.502 . S
C2041 C16 1.472 . S
C2056 C627 1.445 . S
C2106 C703 1.400 . S
C2091 C28 1.456 . S
C2141 C4 1.448 . S
C2156 C543 1.421 . S
C2206 C776 1.372 . S
C2191 C90 1.430 . S
C2241 C102 1.457 . S
C2256 C860 1.402 . S
C2306 C954 1.416 . S
C2291 C78 1.424 . S
C2356 C870 1.395 . S
C2341 C66 1.401 . S
C2406 C944 1.351 . S
C2391 C42 1.409 . S
C2441 C54 1.377 . S
C2456 C786 1.368 . S
C2491 C64 1.486 . S
C2506 C787 1.430 . S
C2541 C40 1.511 . S
C2556 C871 1.458 . S
C2606 C963 1.476 . S
C2591 C52 1.503 . S
C2641 C88 1.472 . S
C2656 C879 1.445 . S
C2691 C100 1.457 . S
C2706 C955 1.400 . S
C2741 C76 1.447 . S
C2756 C795 1.421 . S
C2791 C189 1.558 . S
C2806 C279 1.433 . S
C2856 C363 1.486 . S
C2841 C201 1.633 . S
C2891 C213 1.573 . S
C2906 C456 1.393 . S
C2941 C81 1.605 . S
C2956 C372 1.414 . S
C2991 C93 1.588 . S
C3006 C447 1.449 . S
C3056 C288 1.363 . S
C3041 C105 1.530 . S
C3091 C45 1.559 . S
C3106 C531 1.434 . S
C3141 C57 1.633 . S
C3156 C615 1.485 . S
C3191 C69 1.573 . S
C3206 C708 1.392 . S
C3241 C153 1.605 . S
C3256 C624 1.414 . S
C3306 C699 1.451 . S
C3291 C165 1.589 . S
C3341 C177 1.530 . S
C3356 C540 1.364 . S
C3391 C117 1.558 . S
C3406 C783 1.433 . S
C3441 C129 1.633 . S
C3456 C867 1.486 . S
C3506 C960 1.392 . S
C3491 C141 1.573 . S
C3541 C9 1.605 . S
C3556 C876 1.414 . S
C3591 C21 1.589 . S
C3606 C951 1.449 . S
C3641 C33 1.530 . S
C3656 C792 1.363 . S
