# Generated by pormake.
# Topology zzz, (3,6)-cn, num edge types: 1
# Building blocks:
#     Node 0, Type 0, BuildingBlock: CUQRIR_clean_linker_1, # of connection points: 3
#     Node 1, Type 0, BuildingBlock: CUQRIR_clean_linker_1, # of connection points: 3
#     Node 2, Type 0, BuildingBlock: CUQRIR_clean_linker_1, # of connection points: 3
#     Node 3, Type 0, BuildingBlock: CUQRIR_clean_linker_1, # of connection points: 3
#     Node 4, Type 0, BuildingBlock: CUQRIR_clean_linker_1, # of connection points: 3
#     Node 5, Type 0, BuildingBlock: CUQRIR_clean_linker_1, # of connection points: 3
#     Node 6, Type 0, BuildingBlock: CUQRIR_clean_linker_1, # of connection points: 3
#     Node 7, Type 0, BuildingBlock: CUQRIR_clean_linker_1, # of connection points: 3
#     Node 8, Type 1, BuildingBlock: KUMBUR_clean_sbu_0, # of connection points: 6
#     Node 9, Type 1, BuildingBlock: KUMBUR_clean_sbu_0, # of connection points: 6
#     Node 10, Type 1, BuildingBlock: KUMBUR_clean_sbu_0, # of connection points: 6
#     Node 11, Type 1, BuildingBlock: KUMBUR_clean_sbu_0, # of connection points: 6
#     Edge 12, Type (0, 1), BuildingBlock: UVAHIK_clean_linker_0, # of connection points: 2
#     Edge 13, Type (0, 1), BuildingBlock: UVAHIK_clean_linker_0, # of connection points: 2
#     Edge 14, Type (0, 1), BuildingBlock: UVAHIK_clean_linker_0, # of connection points: 2
#     Edge 15, Type (0, 1), BuildingBlock: UVAHIK_clean_linker_0, # of connection points: 2
#     Edge 16, Type (0, 1), BuildingBlock: UVAHIK_clean_linker_0, # of connection points: 2
#     Edge 17, Type (0, 1), BuildingBlock: UVAHIK_clean_linker_0, # of connection points: 2
#     Edge 18, Type (0, 1), BuildingBlock: UVAHIK_clean_linker_0, # of connection points: 2
#     Edge 19, Type (0, 1), BuildingBlock: UVAHIK_clean_linker_0, # of connection points: 2
#     Edge 20, Type (0, 1), BuildingBlock: UVAHIK_clean_linker_0, # of connection points: 2
#     Edge 21, Type (0, 1), BuildingBlock: UVAHIK_clean_linker_0, # of connection points: 2
#     Edge 22, Type (0, 1), BuildingBlock: UVAHIK_clean_linker_0, # of connection points: 2
#     Edge 23, Type (0, 1), BuildingBlock: UVAHIK_clean_linker_0, # of connection points: 2
#     Edge 24, Type (0, 1), BuildingBlock: UVAHIK_clean_linker_0, # of connection points: 2
#     Edge 25, Type (0, 1), BuildingBlock: UVAHIK_clean_linker_0, # of connection points: 2
#     Edge 26, Type (0, 1), BuildingBlock: UVAHIK_clean_linker_0, # of connection points: 2
#     Edge 27, Type (0, 1), BuildingBlock: UVAHIK_clean_linker_0, # of connection points: 2
#     Edge 28, Type (0, 1), BuildingBlock: UVAHIK_clean_linker_0, # of connection points: 2
#     Edge 29, Type (0, 1), BuildingBlock: UVAHIK_clean_linker_0, # of connection points: 2
#     Edge 30, Type (0, 1), BuildingBlock: UVAHIK_clean_linker_0, # of connection points: 2
#     Edge 31, Type (0, 1), BuildingBlock: UVAHIK_clean_linker_0, # of connection points: 2
#     Edge 32, Type (0, 1), BuildingBlock: UVAHIK_clean_linker_0, # of connection points: 2
#     Edge 33, Type (0, 1), BuildingBlock: UVAHIK_clean_linker_0, # of connection points: 2
#     Edge 34, Type (0, 1), BuildingBlock: UVAHIK_clean_linker_0, # of connection points: 2
#     Edge 35, Type (0, 1), BuildingBlock: UVAHIK_clean_linker_0, # of connection points: 2
# Relax obj value: 0.165
# Max RMSD: 0.155
# Mean RMSD: 0.116
data_MOF--net-zzz--node1-KUMBUR_clean_sbu_0--node2-CUQRIR_clean_linker_1--edge1-UVAHIK_clean_linker_0
_symmetry_space_group_name_H-M    P1
_symmetry_Int_Tables_number       1
_symmetry_cell_setting            triclinic
loop_
_symmetry_equiv_pos_as_xyz
'x, y, z'
_cell_length_a     62.298819
_cell_length_b     62.062061
_cell_length_c     17.359374
_cell_angle_alpha  91.227058
_cell_angle_beta   89.741832
_cell_angle_gamma 90.103139
loop_
_atom_site_label
_atom_site_type_symbol
_atom_site_fract_x
_atom_site_fract_y
_atom_site_fract_z
_atom_type_partial_charge
C0 C 0.75449 0.53951 0.16647 0.0
N1 N 0.77526 0.54617 0.16917 0.0
N2 N 0.74461 0.54705 0.10269 0.0
C3 C 0.74419 0.52462 0.22268 0.0
C4 C 0.76019 0.55842 0.06685 0.0
N5 N 0.77862 0.55802 0.10748 0.0
C6 C 0.7574 0.56989 0.99225 0.0
H7 H 0.73613 0.51118 0.19096 0.0
H8 H 0.73165 0.53357 0.25571 0.0
H9 H 0.75607 0.51808 0.26342 0.0
H10 H 0.74068 0.57577 0.98653 0.0
H11 H 0.76077 0.55844 0.94376 0.0
H12 H 0.76875 0.58364 0.98831 0.0
C13 C 0.01832 0.75995 0.20786 0.0
N14 N 1.00819 0.77825 0.23301 0.0
N15 N 1.00492 0.74732 0.16405 0.0
C16 C 0.04157 0.75523 0.22103 0.0
C17 C 0.98636 0.75872 0.16374 0.0
N18 N 0.98828 0.77722 0.20593 0.0
C19 C 0.96647 0.75188 0.12114 0.0
H20 H 0.05117 0.76258 0.17443 0.0
H21 H 0.0445 0.7376 0.21966 0.0
H22 H 0.04688 0.76236 0.27695 0.0
H23 H 0.95197 0.75946 0.14722 0.0
H24 H 0.96474 0.73407 0.12105 0.0
H25 H 0.96786 0.75698 0.06046 0.0
C26 C 0.77039 0.99746 0.2303 0.0
N27 N 0.75059 0.98836 0.23673 0.0
N28 N 0.78216 0.98722 0.17426 0.0
C29 C 0.77837 0.01594 0.27936 0.0
C30 C 0.76865 0.9718 0.14634 0.0
N31 N 0.74961 0.97245 0.18428 0.0
C32 C 0.77332 0.95753 0.07709 0.0
H33 H 0.77415 0.03125 0.25134 0.0
H34 H 0.79609 0.01525 0.28528 0.0
H35 H 0.77071 0.01585 0.33718 0.0
H36 H 0.77982 0.94198 0.09695 0.0
H37 H 0.78536 0.96499 0.03861 0.0
H38 H 0.75851 0.95414 0.04372 0.0
C39 C 0.53907 0.77313 0.16645 0.0
N40 N 0.54518 0.75262 0.18026 0.0
N41 N 0.55163 0.78186 0.11071 0.0
C42 C 0.51988 0.78392 0.20285 0.0
C43 C 0.56558 0.76576 0.09169 0.0
N44 N 0.56166 0.74812 0.13395 0.0
C45 C 0.58371 0.76749 0.03469 0.0
H46 H 0.50808 0.77185 0.22308 0.0
H47 H 0.51202 0.79477 0.16157 0.0
H48 H 0.52524 0.79373 0.25337 0.0
H49 H 0.59724 0.75693 0.05091 0.0
H50 H 0.58947 0.78437 0.03125 0.0
H51 H 0.57799 0.76213 0.97696 0.0
C52 C 0.27697 0.51205 0.1163 0.0
N53 N 0.25739 0.50293 0.10429 0.0
N54 N 0.28803 0.50123 0.17077 0.0
C55 C 0.28471 0.53229 0.07937 0.0
C56 C 0.2744 0.48525 0.19114 0.0
N57 N 0.25595 0.48623 0.1507 0.0
C58 C 0.27919 0.46854 0.25004 0.0
H59 H 0.29618 0.5279 0.03257 0.0
H60 H 0.29336 0.5426 0.12211 0.0
H61 H 0.27124 0.54144 0.05439 0.0
H62 H 0.27418 0.47476 0.30776 0.0
H63 H 0.29664 0.46503 0.25156 0.0
H64 H 0.27017 0.45344 0.23738 0.0
C65 C 0.03798 0.28999 0.03095 0.0
N66 N 0.0416 0.26843 0.03914 0.0
N67 N 0.04024 0.30096 0.09985 0.0
C68 C 0.03117 0.30007 0.95737 0.0
C69 C 0.04544 0.28523 0.1494 0.0
N70 N 0.04616 0.26577 0.11304 0.0
C71 C 0.04846 0.28865 0.23487 0.0
H72 H 0.0362 0.3172 0.95592 0.0
H73 H 0.0134 0.29941 0.95357 0.0
H74 H 0.03797 0.29108 0.90703 0.0
H75 H 0.05392 0.3053 0.24861 0.0
H76 H 0.06037 0.27721 0.25761 0.0
H77 H 0.03294 0.28579 0.26462 0.0
C78 C 0.26015 0.03539 0.09152 0.0
N79 N 0.27851 0.04624 0.07445 0.0
N80 N 0.24607 0.04837 0.13078 0.0
C81 C 0.25656 0.01186 0.07453 0.0
C82 C 0.25661 0.06747 0.13696 0.0
N83 N 0.27625 0.06619 0.10312 0.0
C84 C 0.24813 0.08697 0.18019 0.0
H85 H 0.23923 1.00776 0.0769 0.0
H86 H 0.26515 1.00236 0.11815 0.0
H87 H 0.26314 1.00728 0.01705 0.0
H88 H 0.24765 0.08357 0.24268 0.0
H89 H 0.23152 0.09053 0.1619 0.0
H90 H 0.25813 0.10146 0.17046 0.0
C91 C 0.48818 0.25355 0.06845 0.0
N92 N 0.48075 0.27373 0.05674 0.0
N93 N 0.47501 0.24283 0.11735 0.0
C94 C 0.50875 0.24478 0.03554 0.0
C95 C 0.45953 0.25743 0.13557 0.0
N96 N 0.46298 0.2761 0.09857 0.0
C97 C 0.44206 0.25391 0.19412 0.0
H98 H 0.50822 0.22692 0.0313 0.0
H99 H 0.52216 0.24963 0.07406 0.0
H100 H 0.51189 0.25152 0.97787 0.0
H101 H 0.4493 0.24892 0.24925 0.0
H102 H 0.43143 0.24064 0.17372 0.0
H103 H 0.43213 0.26851 0.20417 0.0
Tb104 Tb 0.0327 0.01481 0.75328 0.0
C105 C 0.99522 0.99079 0.44902 0.0
C106 C 0.01141 1.00811 0.33912 0.0
C107 C 0.99656 0.97207 0.32427 0.0
C108 C 1.00561 1.00836 0.41792 0.0
C109 C 0.99011 0.97267 0.40182 0.0
C110 C 1.00722 0.98973 0.29299 0.0
C111 C 0.97128 0.9576 0.50964 0.0
N112 N 0.98927 0.99179 0.5245 0.0
C113 C 0.97666 0.97584 0.55425 0.0
C114 C 0.97828 0.95585 0.43346 0.0
Tb115 Tb 0.99874 0.02274 0.59098 0.0
N116 N 1.00923 0.02601 0.46397 0.0
C117 C 0.01741 0.04445 0.43254 0.0
C118 C 0.02077 0.02652 0.30834 0.0
C119 C 0.02357 0.04482 0.35508 0.0
H120 H 0.97086 0.97658 0.61267 0.0
H121 H 0.03044 0.0593 0.33144 0.0
H122 H 0.0117 0.98921 0.23258 0.0
H123 H 0.96176 0.94485 0.53429 0.0
H124 H 0.01996 0.05887 0.46678 0.0
H125 H 0.01887 0.08385 0.94284 0.0
H126 H 0.02547 0.02693 0.24821 0.0
H127 H 0.07901 0.98916 0.71392 0.0
H128 H 1.00903 0.05112 0.86969 0.0
H129 H 0.1175 0.9969 0.71938 0.0
H130 H 0.99299 0.9582 0.28761 0.0
H131 H 0.05635 0.09703 0.94167 0.0
H132 H 0.09476 0.09084 0.90178 0.0
H133 H 0.97412 0.94167 0.39916 0.0
H134 H 0.12178 0.06697 0.84093 0.0
N135 N 0.04061 0.04537 0.82559 0.0
C136 C 0.02553 0.05635 0.86848 0.0
C137 C 0.05216 0.08247 0.90953 0.0
C138 C 0.06777 0.07053 0.86952 0.0
C139 C 0.03103 0.07505 0.91049 0.0
C140 C 0.0614 0.05169 0.8287 0.0
H141 H 0.13045 0.03166 0.77389 0.0
N142 N 0.06943 0.01972 0.76188 0.0
C143 C 0.10611 1.00879 0.7406 0.0
C144 C 0.07644 0.03832 0.7956 0.0
C145 C 0.08407 1.00451 0.73755 0.0
C146 C 0.11336 0.02843 0.77125 0.0
C147 C 0.09849 0.04333 0.8007 0.0
O148 O 0.03771 0.98453 0.80333 0.0
O149 O 0.01371 0.99922 0.66133 0.0
O150 O 0.98196 1.00614 0.68395 0.0
O151 O 0.99908 0.02202 0.78634 0.0
O152 O 0.04233 0.98555 0.68821 0.0
O153 O 0.02504 1.01058 0.87067 0.0
O154 O 0.97493 0.04444 0.6302 0.0
O155 O 0.01325 0.03757 0.6925 0.0
O156 O 0.05336 0.02686 0.65966 0.0
O157 O 0.03238 0.02089 0.54886 0.0
O158 O 0.01153 0.05581 0.59638 0.0
O159 O 0.96949 0.02462 0.53069 0.0
C160 C 0.02654 0.98413 0.64154 0.0
C161 C 1.00928 0.97678 0.88786 0.0
C162 C 0.98526 0.96153 0.9838 0.0
C163 C 1.00437 0.97251 0.96519 0.0
C164 C 0.97115 0.95517 0.92437 0.0
C165 C 0.99522 0.96961 0.82973 0.0
C166 C 0.97621 0.95909 0.84789 0.0
C167 C 0.98165 0.01321 0.75612 0.0
C168 C 0.02805 0.98997 0.86705 0.0
C169 C 0.10494 0.0627 0.83709 0.0
C170 C 0.08957 0.07629 0.87161 0.0
C171 C 0.0183 0.05593 0.66628 0.0
C172 C 0.95303 0.05845 0.53544 0.0
C173 C 0.96687 0.07261 0.49842 0.0
C174 C 0.95898 0.0912 0.46454 0.0
C175 C 0.93686 0.09554 0.46751 0.0
C176 C 0.93095 0.06269 0.53779 0.0
C177 C 0.9229 0.0812 0.50363 0.0
C178 C 0.05106 0.02502 0.58349 0.0
C179 C 0.96184 0.03989 0.57461 0.0
H180 H 0.01528 0.97767 0.01043 0.0
H181 H 0.95655 0.94636 0.93674 0.0
H182 H 0.99863 0.97274 0.7701 0.0
H183 H 0.96538 0.95394 0.80247 0.0
H184 H 0.98391 0.06949 0.49806 0.0
H185 H 0.93043 0.10987 0.44169 0.0
H186 H 0.92004 0.05186 0.56664 0.0
H187 H 0.90585 0.08453 0.50571 0.0
Tb188 Tb 0.51699 0.03332 0.71858 0.0
C189 C 0.53204 0.95819 0.48639 0.0
C190 C 0.55789 0.97138 0.39446 0.0
C191 C 0.55617 0.93309 0.42047 0.0
C192 C 0.54129 0.97511 0.44864 0.0
C193 C 0.53903 0.93689 0.47185 0.0
C194 C 0.5656 0.95033 0.38182 0.0
C195 C 0.51062 0.92467 0.55541 0.0
N196 N 0.51554 0.96258 0.53522 0.0
C197 C 0.50429 0.94609 0.56784 0.0
C198 C 0.52825 0.92006 0.50793 0.0
Tb199 Tb 0.5067 0.9982 0.55444 0.0
N200 N 0.5333 0.99514 0.46247 0.0
C201 C 0.54017 0.01196 0.41888 0.0
C202 C 0.56583 0.98881 0.35326 0.0
C203 C 0.55669 1.00913 0.36473 0.0
H204 H 0.4908 0.94941 0.60537 0.0
H205 H 0.56243 0.02268 0.33219 0.0
H206 H 0.57848 0.94716 0.34101 0.0
H207 H 0.50197 0.91176 0.58276 0.0
H208 H 0.53355 0.02786 0.42696 0.0
H209 H 0.46244 1.00825 0.94383 0.0
H210 H 0.57863 0.98666 0.31134 0.0
H211 H 0.53267 0.08224 0.66875 0.0
H212 H 0.49057 1.00325 0.84621 0.0
H213 H 0.5217 0.11985 0.69366 0.0
H214 H 0.56191 0.91687 0.40897 0.0
H215 H 0.44665 0.04429 0.96817 0.0
H216 H 0.44664 0.08386 0.93997 0.0
H217 H 0.53311 0.90346 0.49834 0.0
H218 H 0.46281 0.11433 0.87179 0.0
N219 N 0.49083 0.03614 0.81238 0.0
C220 C 0.48412 0.01917 0.8556 0.0
C221 C 0.45911 0.04223 0.92492 0.0
C222 C 0.46681 0.05976 0.88373 0.0
C223 C 0.46803 0.02189 0.91146 0.0
C224 C 0.48301 0.05615 0.82788 0.0
H225 H 0.49105 0.12795 0.78063 0.0
N226 N 0.50824 0.06889 0.73982 0.0
C227 C 0.51315 0.10686 0.72102 0.0
C228 C 0.49203 0.07316 0.79002 0.0
C229 C 0.51936 0.08547 0.70727 0.0
C230 C 0.49581 0.11137 0.76992 0.0
C231 C 0.4852 0.09444 0.80609 0.0
O232 O 0.54571 0.04712 0.75973 0.0
O233 O 0.53026 0.01539 0.6215 0.0
O234 O 0.52579 0.97985 0.63607 0.0
O235 O 0.5169 0.99877 0.74895 0.0
O236 O 0.54329 0.0448 0.64472 0.0
O237 O 0.53004 0.0217 0.82123 0.0
O238 O 0.47865 0.98383 0.51044 0.0
O239 O 0.49339 0.01616 0.65142 0.0
O240 O 0.49829 0.05197 0.63617 0.0
O241 O 0.50676 0.03263 0.52354 0.0
O242 O 0.48005 0.98695 0.6272 0.0
O243 O 0.49402 1.00994 0.4514 0.0
C244 C 0.54487 0.02808 0.60032 0.0
C245 C 0.5675 0.01889 0.80509 0.0
C246 C 0.58655 0.98595 0.83721 0.0
C247 C 0.56954 1.00044 0.85018 0.0
C248 C 0.60164 0.99015 0.77897 0.0
C249 C 0.58332 0.02318 0.74925 0.0
C250 C 0.60014 1.00878 0.73602 0.0
C251 C 0.5245 0.98135 0.71227 0.0
C252 C 0.54789 0.03225 0.81102 0.0
C253 C 0.46843 0.09812 0.8591 0.0
C254 C 0.45923 0.08079 0.89791 0.0
C255 C 0.47856 1.0036 0.67189 0.0
C256 C 0.45627 1.01116 0.46213 0.0
C257 C 0.45394 0.02966 0.41735 0.0
C258 C 0.43543 0.04256 0.42415 0.0
C259 C 0.41926 0.0366 0.47667 0.0
C260 C 0.43975 1.00555 0.51354 0.0
C261 C 0.42148 0.0183 0.52097 0.0
C262 C 0.49958 0.05028 0.55989 0.0
C263 C 0.47648 0.9987 0.45912 0.0
H264 H 0.55778 0.9972 0.8947 0.0
H265 H 0.61516 0.97948 0.76886 0.0
H266 H 0.58251 0.0374 0.71439 0.0
H267 H 0.61208 0.01211 0.69233 0.0
H268 H 0.46665 0.0341 0.37798 0.0
H269 H 0.40449 0.04568 0.48214 0.0
H270 H 0.44096 0.99145 0.5489 0.0
H271 H 0.4089 0.01389 0.56089 0.0
Tb272 Tb 0.53473 0.50987 0.58092 0.0
C273 C 0.44683 0.53441 0.67718 0.0
C274 C 0.43983 0.57263 0.68979 0.0
C275 C 0.41149 0.54844 0.64625 0.0
C276 C 0.45387 0.5549 0.69438 0.0
C277 C 0.42539 0.53084 0.6541 0.0
C278 C 0.41871 0.56934 0.66409 0.0
C279 C 0.43274 0.49277 0.65117 0.0
N280 N 0.46089 0.51793 0.68479 0.0
C281 C 0.45388 0.49713 0.67353 0.0
C282 C 0.41848 0.50969 0.64045 0.0
Tb283 Tb 0.49554 0.52693 0.72063 0.0
N284 N 0.47432 0.55733 0.71881 0.0
C285 C 0.48122 0.57707 0.74621 0.0
C286 C 0.44726 0.59301 0.71302 0.0
C287 C 0.46798 0.59518 0.7424 0.0
H288 H 0.46435 0.48355 0.67952 0.0
H289 H 0.47378 0.61079 0.76204 0.0
H290 H 0.40772 0.58276 0.65939 0.0
H291 H 0.42753 0.4763 0.64125 0.0
H292 H 0.4973 0.57897 0.76849 0.0
H293 H 0.6045 0.48432 0.74137 0.0
H294 H 0.43699 0.60705 0.71029 0.0
H295 H 0.53388 0.53663 0.414 0.0
H296 H 0.56757 0.48165 0.69605 0.0
H297 H 0.55729 0.56175 0.34568 0.0
H298 H 0.39506 0.54604 0.62774 0.0
H299 H 0.62824 0.51337 0.69604 0.0
H300 H 0.63414 0.54399 0.60647 0.0
H301 H 0.40218 0.50626 0.62239 0.0
H302 H 0.62128 0.56511 0.49774 0.0
N303 N 0.56928 0.50978 0.62689 0.0
C304 C 0.57728 0.49467 0.67544 0.0
C305 C 0.61184 0.51241 0.6757 0.0
C306 C 0.6042 0.52669 0.62108 0.0
C307 C 0.5985 0.49596 0.70125 0.0
C308 C 0.58269 0.52473 0.59652 0.0
H309 H 0.59288 0.57138 0.39868 0.0
N310 N 0.5553 0.53285 0.50877 0.0
C311 C 0.56251 0.55501 0.39946 0.0
C312 C 0.57551 0.53658 0.53516 0.0
C313 C 0.5492 0.54077 0.43888 0.0
C314 C 0.58257 0.56043 0.42961 0.0
C315 C 0.58954 0.55076 0.49712 0.0
O316 O 0.55563 0.49028 0.51434 0.0
O317 O 0.50087 0.51207 0.60937 0.0
O318 O 0.49814 0.49162 0.72074 0.0
O319 O 0.53168 0.4846 0.66767 0.0
O320 O 0.50994 0.51916 0.49873 0.0
O321 O 0.52209 0.48339 0.51737 0.0
O322 O 0.48807 0.50675 0.81385 0.0
O323 O 0.52919 0.51876 0.69992 0.0
O324 O 0.53299 0.54537 0.58012 0.0
O325 O 0.49988 0.55319 0.63807 0.0
O326 O 0.52282 0.54627 0.76191 0.0
O327 O 0.49316 0.54038 0.8323 0.0
C328 C 0.49381 0.51804 0.54479 0.0
C329 C 0.53913 0.47994 0.39642 0.0
C330 C 0.52031 0.47009 0.27754 0.0
C331 C 0.5222 0.46936 0.35816 0.0
C332 C 0.53557 0.48168 0.23525 0.0
C333 C 0.55437 0.49128 0.3529 0.0
C334 C 0.55247 0.49223 0.2729 0.0
C335 C 0.51453 0.47851 0.70712 0.0
C336 C 0.54004 0.47978 0.48157 0.0
C337 C 0.61039 0.55403 0.52543 0.0
C338 C 0.61771 0.54201 0.58738 0.0
C339 C 0.538 0.53437 0.73541 0.0
C340 C 0.50786 0.51775 0.92521 0.0
C341 C 0.51717 0.53525 0.96558 0.0
C342 C 0.53421 0.53221 0.01683 0.0
C343 C 0.54172 0.51128 0.02919 0.0
C344 C 0.51521 0.49682 0.93976 0.0
C345 C 0.53201 0.49366 0.99161 0.0
C346 C 0.51693 0.55872 0.59682 0.0
C347 C 0.49167 0.52188 0.86489 0.0
H348 H 0.51067 0.46023 0.39127 0.0
H349 H 0.53446 0.4825 0.17314 0.0
H350 H 0.56766 0.49959 0.38049 0.0
H351 H 0.56417 0.50112 0.23992 0.0
H352 H 0.51171 0.5515 0.95492 0.0
H353 H 0.55492 0.50859 0.06821 0.0
H354 H 0.50831 0.48296 0.91013 0.0
H355 H 0.53773 0.47752 1.00185 0.0
Tb356 Tb 0.02811 0.54591 0.56368 0.0
C357 C 0.01385 0.45631 0.60957 0.0
C358 C 0.97831 0.44248 0.58222 0.0
C359 C 1.00949 0.42101 0.54725 0.0
C360 C 0.99196 0.45908 0.61024 0.0
C361 C 0.02287 0.43694 0.57984 0.0
C362 C 0.98722 0.4238 0.5483 0.0
C363 C 0.05756 0.4499 0.61997 0.0
N364 N 0.02629 0.47225 0.64041 0.0
C365 C 0.04797 0.4689 0.64767 0.0
C366 C 0.04501 0.43397 0.58485 0.0
Tb367 Tb 1.00865 0.50316 0.68383 0.0
N368 N 0.98397 0.47723 0.6442 0.0
C369 C 0.96248 0.47805 0.66251 0.0
C370 C 0.95617 0.44466 0.59267 0.0
C371 C 0.94826 0.46229 0.63481 0.0
H372 H 0.05844 0.48078 0.67296 0.0
H373 H 0.93124 0.46366 0.64677 0.0
H374 H 0.97701 0.41107 0.52534 0.0
H375 H 0.07472 0.44768 0.62493 0.0
H376 H 0.95615 0.49133 0.69689 0.0
H377 H 0.10606 0.58487 0.57228 0.0
H378 H 0.94517 0.43231 0.57199 0.0
H379 H 0.97818 0.56705 0.59508 0.0
H380 H 0.08065 0.55508 0.54762 0.0
H381 H 0.96265 0.60132 0.63334 0.0
H382 H 0.01617 0.40625 0.52287 0.0
H383 H 0.09295 0.61984 0.62436 0.0
H384 H 0.06185 0.64307 0.66454 0.0
H385 H 0.05253 0.41935 0.56273 0.0
H386 H 0.02285 0.64765 0.67906 0.0
N387 N 0.0532 0.57265 0.5876 0.0
C388 C 0.07463 0.5703 0.57037 0.0
C389 C 0.08169 0.6068 0.61368 0.0
C390 C 0.05971 0.60963 0.62666 0.0
C391 C 0.08914 0.58712 0.58423 0.0
C392 C 0.04569 0.59212 0.61173 0.0
H393 H 0.98588 0.63235 0.66655 0.0
N394 N 0.01097 0.57752 0.60284 0.0
C395 C 0.97992 0.59974 0.62934 0.0
C396 C 0.02384 0.59472 0.61893 0.0
C397 C 0.98909 0.58007 0.60643 0.0
C398 C 0.99305 0.61719 0.64819 0.0
C399 C 0.01528 0.61489 0.64272 0.0
O400 O 0.01237 0.55396 0.4602 0.0
O401 O 0.02017 0.51179 0.57009 0.0
O402 O 0.0418 0.51125 0.71885 0.0
O403 O 0.05391 0.54055 0.64806 0.0
O404 O 0.04881 0.51969 0.52055 0.0
O405 O 0.04671 0.55239 0.46638 0.0
O406 O 0.02335 0.48974 0.78126 0.0
O407 O 0.01677 0.53695 0.67602 0.0
O408 O 0.99464 0.53876 0.531 0.0
O409 O 0.98133 0.51218 0.61186 0.0
O410 O 0.99127 0.52975 0.74364 0.0
O411 O 0.98929 0.49542 0.77794 0.0
C412 C 0.03596 0.50392 0.53316 0.0
C413 C 0.03135 0.54245 0.34715 0.0
C414 C 0.05057 0.51708 0.26162 0.0
C415 C 0.04653 0.52598 0.33531 0.0
C416 C 0.03812 0.52413 0.19968 0.0
C417 C 0.01895 0.54905 0.28487 0.0
C418 C 0.02223 0.53979 0.21163 0.0
C419 C 0.0567 0.52567 0.70101 0.0
C420 C 0.0303 0.55445 0.4215 0.0
C421 C 0.02915 0.63215 0.66013 0.0
C422 C 0.05134 0.62952 0.65212 0.0
C423 C 1.00313 0.54543 0.72124 0.0
C424 C 1.00556 0.49669 0.90074 0.0
C425 C 0.99134 0.51272 0.92787 0.0
C426 C 0.98894 0.51705 1.00727 0.0
C427 C 1.00125 0.50534 0.0594 0.0
C428 C 0.01814 0.48561 0.95364 0.0
C429 C 0.01598 0.48996 0.03253 0.0
C430 C 0.97905 0.52596 0.55536 0.0
C431 C 1.00534 0.48924 0.81953 0.0
H432 H 0.05598 0.52067 0.38308 0.0
H433 H 0.04117 0.51818 0.14164 0.0
H434 H 1.00722 0.5618 0.29238 0.0
H435 H 0.0129 0.5453 0.16343 0.0
H436 H 0.98107 0.52088 0.88771 0.0
H437 H 0.99922 0.5078 0.12089 0.0
H438 H 0.02902 0.47301 0.93413 0.0
H439 H 0.02522 0.48086 0.07306 0.0
C440 C 0.20693 0.05378 0.14846 0.0
C441 C 0.22587 0.04292 0.16754 0.0
C442 C 0.18788 0.05067 0.19045 0.0
C443 C 0.16805 0.03079 0.38064 0.0
H444 H 0.11237 0.03614 0.28443 0.0
C445 C 0.0896 0.03665 0.56344 0.0
C446 C 0.0707 0.02718 0.53406 0.0
C447 C 0.10824 0.03803 0.51787 0.0
C448 C 0.12772 0.03436 0.31254 0.0
H449 H 0.23954 0.01969 0.24393 0.0
H450 H 0.20621 0.01356 0.31609 0.0
H451 H 0.14475 0.03799 0.20608 0.0
H452 H 0.05687 0.01169 0.43274 0.0
H453 H 0.0892 0.01384 0.35389 0.0
H454 H 0.151 0.02654 0.48674 0.0
C455 C 0.20605 0.02497 0.26982 0.0
C456 C 0.14646 0.03573 0.2674 0.0
C457 C 0.22514 0.0282 0.22785 0.0
C458 C 0.07098 0.0193 0.45739 0.0
C459 C 0.08964 0.0206 0.41187 0.0
C460 C 0.14931 0.02931 0.42572 0.0
C461 C 0.18714 0.03643 0.25273 0.0
C462 C 0.16699 0.0341 0.30063 0.0
C463 C 0.10866 0.02993 0.44129 0.0
C464 C 0.12878 0.03119 0.39264 0.0
H465 H 0.20703 0.06512 0.10193 0.0
H466 H 0.17393 0.06002 0.17542 0.0
H467 H 0.18341 0.0297 0.40917 0.0
H468 H 0.08999 0.04319 0.62172 0.0
H469 H 0.12226 0.04574 0.5427 0.0
C470 C 0.46198 0.20627 0.14692 0.0
C471 C 0.47805 0.22212 0.15227 0.0
C472 C 0.46357 0.18719 0.1883 0.0
C473 C 0.4903 0.1648 0.36005 0.0
H474 H 0.47082 0.10987 0.27557 0.0
C475 C 0.49808 0.06884 0.43247 0.0
C476 C 0.4942 0.06931 0.51248 0.0
C477 C 0.49438 0.08702 0.38805 0.0
C478 C 0.4764 0.12506 0.30001 0.0
H479 H 0.50856 0.23035 0.20367 0.0
H480 H 0.51174 0.19683 0.27502 0.0
H481 H 0.4692 0.14197 0.19689 0.0
H482 H 0.48196 0.08913 0.60713 0.0
H483 H 0.476 0.12104 0.52999 0.0
H484 H 0.49787 0.14782 0.46262 0.0
C485 C 0.49769 0.1992 0.23971 0.0
C486 C 0.4753 0.14355 0.25505 0.0
C487 C 0.49607 0.21827 0.19812 0.0
C488 C 0.48574 0.0883 0.54624 0.0
C489 C 0.48226 0.10661 0.50187 0.0
C490 C 0.49133 0.14634 0.40506 0.0
C491 C 0.4813 0.1835 0.23635 0.0
C492 C 0.48238 0.16369 0.28419 0.0
C493 C 0.48681 0.10631 0.42228 0.0
C494 C 0.48454 0.12617 0.37554 0.0
H495 H 0.44797 0.2089 0.11173 0.0
H496 H 0.45055 0.17565 0.18448 0.0
H497 H 0.49557 0.18003 0.38512 0.0
H498 H 0.50438 0.05452 0.40387 0.0
H499 H 0.49817 0.08615 0.32711 0.0
C500 C 0.30982 0.51012 0.28585 0.0
C501 C 0.30846 0.50648 0.20587 0.0
C502 C 0.32976 0.51295 0.3218 0.0
C503 C 0.38748 0.50026 0.29525 0.0
H504 H 0.39508 0.54016 0.46805 0.0
C505 C 0.46241 0.49764 0.49238 0.0
C506 C 0.47152 0.51739 0.51593 0.0
C507 C 0.44254 0.49698 0.45473 0.0
C508 C 0.3933 0.52901 0.41963 0.0
H509 H 0.32681 0.50347 0.10042 0.0
H510 H 0.36187 0.50857 0.1628 0.0
H511 H 0.36082 0.53885 0.40005 0.0
H512 H 0.46784 0.55198 0.51378 0.0
H513 H 0.43282 0.55097 0.44989 0.0
H514 H 0.41997 0.49048 0.31463 0.0
C515 C 0.3475 0.50904 0.1981 0.0
C516 C 0.37356 0.52813 0.38093 0.0
C517 C 0.32746 0.50635 0.1621 0.0
C518 C 0.46072 0.53653 0.49898 0.0
C519 C 0.4407 0.5359 0.46213 0.0
C520 C 0.40717 0.50105 0.33426 0.0
C521 C 0.34896 0.51212 0.2787 0.0
C522 C 0.37032 0.5137 0.31823 0.0
C523 C 0.43138 0.5161 0.43896 0.0
C524 C 0.41036 0.51539 0.39716 0.0
H525 H 0.29537 0.51035 0.32075 0.0
H526 H 0.33014 0.51508 0.38385 0.0
H527 H 0.38559 0.48878 0.24792 0.0
H528 H 0.47084 0.4827 0.50222 0.0
H529 H 0.43589 0.48144 0.43809 0.0
C530 C 0.02069 0.32816 0.17978 0.0
C531 C 0.03585 0.32337 0.12165 0.0
C532 C 0.01964 0.3487 0.21541 0.0
C533 C 0.05149 0.40104 0.23788 0.0
H534 H 1.00147 0.4177 0.35783 0.0
C535 C 0.05429 0.47457 0.45436 0.0
C536 C 0.03521 0.48473 0.47881 0.0
C537 C 0.05389 0.45627 0.40496 0.0
C538 C 0.01558 0.41375 0.32389 0.0
H539 H 0.06117 0.33706 0.05292 0.0
H540 H 0.05838 0.37338 0.10993 0.0
H541 H 1.00053 0.38519 0.27961 0.0
H542 H 1.00081 0.48495 0.46293 0.0
H543 H 0.99994 0.45376 0.37508 0.0
H544 H 0.06598 0.43045 0.27836 0.0
C545 C 0.04776 0.36105 0.13128 0.0
C546 C 0.01522 0.39447 0.27949 0.0
C547 C 0.0491 0.34023 0.09677 0.0
C548 C 0.01577 0.47704 0.44773 0.0
C549 C 0.01534 0.45893 0.39726 0.0
C550 C 0.05166 0.42061 0.28087 0.0
C551 C 0.03341 0.36564 0.19317 0.0
C552 C 0.0333 0.38737 0.2364 0.0
C553 C 0.03436 0.44778 0.37602 0.0
C554 C 0.03382 0.42729 0.32596 0.0
H555 H 0.01036 0.31551 0.20083 0.0
H556 H 1.00854 0.35077 0.26299 0.0
H557 H 0.06598 0.39656 0.20709 0.0
H558 H 0.0696 0.48039 0.47564 0.0
H559 H 0.06901 0.44851 0.39155 0.0
C560 C 0.80829 0.0118 0.1127 0.0
C561 C 0.80357 0.99193 0.14615 0.0
C562 C 0.82812 0.01516 0.07558 0.0
C563 C 0.88402 0.99384 0.05567 0.0
H564 H 0.88291 0.02129 0.85724 0.0
C565 C 0.96196 0.01483 0.88385 0.0
C566 C 0.96169 1.01109 0.80355 0.0
C567 C 0.94315 0.01279 0.9282 0.0
C568 C 0.88355 0.01351 0.91242 0.0
H569 H 0.816 0.96026 0.16897 0.0
H570 H 0.85068 0.96607 0.10553 0.0
H571 H 0.84975 0.01772 0.93141 0.0
H572 H 0.94122 1.00214 0.70739 0.0
H573 H 0.9085 0.99887 0.78423 0.0
H574 H 0.9178 0.98948 0.03627 0.0
C575 C 0.83921 0.97916 0.1078 0.0
C576 C 0.86451 0.01168 0.95551 0.0
C577 C 0.81934 0.97577 0.1441 0.0
C578 C 0.94208 1.00523 0.76895 0.0
C579 C 0.92324 1.00346 0.8131 0.0
C580 C 0.90312 0.99588 0.01292 0.0
C581 C 0.84378 0.99876 0.07167 0.0
C582 C 0.86439 1.00167 0.02757 0.0
C583 C 0.92344 1.00727 0.89341 0.0
C584 C 0.90316 1.00557 0.94027 0.0
H585 H 0.79632 0.02442 0.11276 0.0
H586 H 0.83109 0.03054 0.04922 0.0
H587 H 0.88466 0.98618 0.11106 0.0
H588 H 0.97677 0.01923 0.91269 0.0
H589 H 0.944 0.01593 0.98971 0.0
C590 C 0.54979 0.80436 0.99469 0.0
C591 C 0.54974 0.80271 0.07535 0.0
C592 C 0.54887 0.8245 0.96 0.0
C593 C 0.53035 0.87994 0.98915 0.0
H594 H 0.57027 0.89332 0.82491 0.0
C595 C 0.52694 0.96218 0.83852 0.0
C596 C 0.53059 0.96232 0.75848 0.0
C597 C 0.53142 0.94383 0.88128 0.0
C598 C 0.55877 0.88981 0.86986 0.0
H599 H 0.54831 0.82097 0.18278 0.0
H600 H 0.5458 0.85628 0.1221 0.0
H601 H 0.5731 0.85904 0.89041 0.0
H602 H 0.54325 0.94352 0.66197 0.0
H603 H 0.54987 0.91127 0.73497 0.0
H604 H 0.51534 0.91011 0.9669 0.0
C605 C 0.54684 0.84191 0.08581 0.0
C606 C 0.5605 0.87016 0.90774 0.0
C607 C 0.54817 0.82172 0.12056 0.0
C608 C 0.53965 0.94387 0.72301 0.0
C609 C 0.54381 0.92539 0.76549 0.0
C610 C 0.52837 0.89944 0.95044 0.0
C611 C 0.5474 0.84354 1.00505 0.0
C612 C 0.54621 0.86491 0.96744 0.0
C613 C 0.53945 0.92493 0.84521 0.0
C614 C 0.54243 0.90464 0.88962 0.0
H615 H 0.55045 0.78999 0.95834 0.0
H616 H 0.54895 0.82516 0.89769 0.0
H617 H 0.51898 0.8763 0.03447 0.0
H618 H 0.52036 0.97617 0.8684 0.0
H619 H 0.52843 0.94448 0.94275 0.0
C620 C 0.71988 0.53211 1.00425 0.0
C621 C 0.72309 0.54291 0.07517 0.0
C622 C 0.69923 0.52997 0.97311 0.0
C623 C 0.64611 0.55609 0.97517 0.0
H624 H 0.62709 0.50322 0.87351 0.0
C625 C 0.57303 0.55188 0.76771 0.0
C626 C 0.55909 0.53424 0.77425 0.0
C627 C 0.59235 0.55268 0.80895 0.0
C628 C 0.63209 0.51807 0.90208 0.0
H629 H 0.70737 0.55979 0.16957 0.0
H630 H 0.67108 0.55626 0.11516 0.0
H631 H 0.66191 0.50436 0.93821 0.0
H632 H 0.55337 0.50449 0.83369 0.0
H633 H 0.58727 0.50565 0.90536 0.0
H634 H 0.61645 0.5699 0.93769 0.0
C635 C 0.68453 0.54937 0.08355 0.0
C636 C 0.65214 0.51878 0.9387 0.0
C637 C 0.70521 0.55123 0.11515 0.0
C638 C 0.56426 0.51788 0.82566 0.0
C639 C 0.58363 0.5186 0.86668 0.0
C640 C 0.62621 0.55547 0.93756 0.0
C641 C 0.68128 0.53887 0.01169 0.0
C642 C 0.65948 0.53782 0.97558 0.0
C643 C 0.59801 0.53594 0.85842 0.0
C644 C 0.61895 0.53647 0.90034 0.0
H645 H 0.73348 0.52568 0.97231 0.0
H646 H 0.69742 0.52197 0.91746 0.0
H647 H 0.65128 0.57109 1.00231 0.0
H648 H 0.56905 0.56499 0.73011 0.0
H649 H 0.60302 0.56626 0.80116 0.0
C650 C 1.0095 0.70749 0.16072 0.0
C651 C 1.00911 0.72718 0.12223 0.0
C652 C 0.01033 0.6877 0.11919 0.0
C653 C 0.02328 0.66268 0.92566 0.0
H654 H 0.98625 0.61636 0.9924 0.0
C655 C 0.02505 0.5761 0.78174 0.0
C656 C 1.00509 0.56618 0.76712 0.0
C657 C 0.0264 0.59547 0.8256 0.0
C658 C 0.99668 0.6291 0.97257 0.0
H659 H 1.00933 0.74153 0.01008 0.0
H660 H 0.01136 0.7072 0.93733 0.0
H661 H 0.98746 0.65027 0.06651 0.0
H662 H 0.97112 0.56815 0.79255 0.0
H663 H 0.97341 0.60157 0.86935 0.0
H664 H 0.03248 0.64147 0.83169 0.0
C665 C 0.01115 0.70689 0.99967 0.0
C666 C 0.99754 0.64858 0.01576 0.0
C667 C 0.01002 0.72662 0.04124 0.0
C668 C 0.98671 0.57556 0.80115 0.0
C669 C 0.98806 0.59475 0.84567 0.0
C670 C 0.02266 0.64307 0.88306 0.0
C671 C 0.01097 0.68702 0.03779 0.0
C672 C 0.01073 0.66582 0.99286 0.0
C673 C 1.00791 0.60518 0.85827 0.0
C674 C 1.00919 0.62597 0.90531 0.0
H675 H 1.00844 0.70743 0.22299 0.0
H676 H 0.01034 0.67289 0.151 0.0
H677 H 0.03378 0.67539 0.90611 0.0
H678 H 0.03964 0.56898 0.75892 0.0
H679 H 0.04204 0.6027 0.83475 0.0
C680 C 0.02569 0.23359 0.1442 0.0
C681 C 0.04476 0.24542 0.15028 0.0
C682 C 0.02415 0.21338 0.17635 0.0
C683 C 0.03868 0.18377 0.33574 0.0
H684 H 0.01449 0.13619 0.21596 0.0
C685 C 0.97387 0.12817 0.44941 0.0
C686 C 0.97426 0.1062 0.42906 0.0
C687 C 0.98922 0.14209 0.41955 0.0
C688 C 0.02172 0.14904 0.25023 0.0
H689 H 0.07724 0.24584 0.1936 0.0
H690 H 0.07412 0.21041 0.25511 0.0
H691 H 0.03075 0.16651 0.15016 0.0
H692 H 0.99077 0.08142 0.36192 0.0
H693 H 0.01755 0.1059 0.30873 0.0
H694 H 0.02812 0.16709 0.43583 0.0
C695 C 0.06063 0.21675 0.22371 0.0
C696 C 0.03099 0.16634 0.21257 0.0
C697 C 0.06233 0.23692 0.18964 0.0
C698 C 0.99023 0.09834 0.37848 0.0
C699 C 1.00552 0.11228 0.34825 0.0
C700 C 0.02922 0.16652 0.37351 0.0
C701 C 0.04154 0.20484 0.21647 0.0
C702 C 0.03853 0.18425 0.25507 0.0
C703 C 1.00512 0.13428 0.3685 0.0
C704 C 0.01973 0.14956 0.33082 0.0
H705 H 0.01201 0.24008 0.11423 0.0
H706 H 1.00914 0.20461 0.1715 0.0
H707 H 0.04433 0.19753 0.36939 0.0
H708 H 0.96187 0.13451 0.48912 0.0
H709 H 0.98832 0.15908 0.43487 0.0
C710 C 0.30566 0.08726 0.04539 0.0
C711 C 0.29348 0.08163 0.11024 0.0
C712 C 0.32586 0.09685 0.05457 0.0
C713 C 0.371 0.08813 0.11376 0.0
H714 H 0.38988 0.1275 0.27577 0.0
C715 C 0.4378 0.05998 0.2946 0.0
C716 C 0.43185 0.06115 0.37282 0.0
C717 C 0.42904 0.0743 0.24218 0.0
C718 C 0.385 0.1164 0.23019 0.0
H719 H 0.29166 0.0836 0.23457 0.0
H720 H 0.32631 0.1012 0.25078 0.0
H721 H 0.35448 0.132 0.21875 0.0
H722 H 0.41565 0.08098 0.45934 0.0
H723 H 0.39901 0.10448 0.36883 0.0
H724 H 0.39971 0.07068 0.13068 0.0
C725 C 0.32047 0.09816 0.19286 0.0
C726 C 0.36481 0.11922 0.19688 0.0
C727 C 0.3006 0.08807 0.18373 0.0
C728 C 0.41962 0.07888 0.39884 0.0
C729 C 0.41038 0.09277 0.34638 0.0
C730 C 0.39088 0.08497 0.14816 0.0
C731 C 0.33382 0.10149 0.12875 0.0
C732 C 0.35713 0.10424 0.14187 0.0
C733 C 0.41358 0.08958 0.26652 0.0
C734 C 0.39745 0.09806 0.21118 0.0
H735 H 0.30036 0.08249 0.98819 0.0
H736 H 0.33591 0.09912 1.0043 0.0
H737 H 0.36543 0.07628 0.07182 0.0
H738 H 0.44766 0.0469 0.27234 0.0
H739 H 0.43293 0.07204 0.18171 0.0
C740 C 0.44379 0.30816 0.05508 0.0
C741 C 0.45311 0.2966 0.11473 0.0
C742 C 0.4395 0.33016 0.06499 0.0
C743 C 0.4534 0.37673 0.07737 0.0
H744 H 0.44893 0.40377 0.27996 0.0
C745 C 0.50872 0.44384 0.17496 0.0
C746 C 0.50335 0.45736 0.23788 0.0
C747 C 0.49395 0.42879 0.14647 0.0
C748 C 0.4497 0.39682 0.22228 0.0
H749 H 0.4643 0.29818 0.23207 0.0
H750 H 0.45722 0.33642 0.25005 0.0
H751 H 0.43582 0.36732 0.25985 0.0
H752 H 0.47763 0.46745 0.31497 0.0
H753 H 0.4516 0.44137 0.26425 0.0
H754 H 0.46748 0.40619 0.04008 0.0
C755 C 0.45254 0.32877 0.19607 0.0
C756 C 0.44244 0.3757 0.21105 0.0
C757 C 0.45666 0.30682 0.18611 0.0
C758 C 0.48231 0.45686 0.2674 0.0
C759 C 0.46743 0.44193 0.23835 0.0
C760 C 0.46034 0.39798 0.0883 0.0
C761 C 0.44473 0.34094 0.13461 0.0
C762 C 0.44562 0.3649 0.13992 0.0
C763 C 0.47339 0.42705 0.17982 0.0
C764 C 0.45995 0.40773 0.16214 0.0
H765 H 0.44113 0.30044 0.99941 0.0
H766 H 0.4332 0.33891 0.01681 0.0
H767 H 0.45594 0.36911 0.02141 0.0
H768 H 0.52484 0.44379 0.15127 0.0
H769 H 0.49932 0.41747 0.1022 0.0
C770 C 0.22604 0.47585 0.23429 0.0
C771 C 0.23662 0.4741 0.16319 0.0
C772 C 0.20486 0.46882 0.24157 0.0
C773 C 0.15744 0.46463 0.11977 0.0
H774 H 0.13091 0.45289 0.31691 0.0
C775 C 0.06875 0.48567 0.19223 0.0
C776 C 0.06908 0.50214 0.24938 0.0
C777 C 0.08696 0.47292 0.17798 0.0
C778 C 0.13804 0.45567 0.26093 0.0
H779 H 0.23444 0.46217 0.04574 0.0
H780 H 0.19735 0.44943 0.05817 0.0
H781 H 0.16908 0.44559 0.29768 0.0
H782 H 0.08922 0.51782 0.33628 0.0
H783 H 0.12001 0.49503 0.31431 0.0
H784 H 0.12655 0.47589 0.08485 0.0
C785 C 0.2052 0.45652 0.10816 0.0
C786 C 0.1599 0.45169 0.25004 0.0
C787 C 0.2264 0.46364 0.10102 0.0
C788 C 0.08782 0.50495 0.29355 0.0
C789 C 0.10565 0.49191 0.2808 0.0
C790 C 0.13551 0.46842 0.13048 0.0
C791 C 0.19388 0.45985 0.1777 0.0
C792 C 0.17012 0.45745 0.18105 0.0
C793 C 0.10557 0.47606 0.22215 0.0
C794 C 0.12597 0.46515 0.20262 0.0
H795 H 0.23357 0.48423 0.28238 0.0
H796 H 0.19665 0.47204 0.29567 0.0
H797 H 0.1647 0.46925 0.06582 0.0
H798 H 0.05457 0.48279 0.15791 0.0
H799 H 0.08664 0.46084 0.13202 0.0
C800 C 0.96763 0.80326 0.28462 0.0
C801 C 0.97327 0.79475 0.21176 0.0
C802 C 0.95978 0.82428 0.29223 0.0
C803 C 0.94106 0.87153 0.18422 0.0
H804 H 0.98528 0.90273 0.29748 0.0
C805 C 0.95983 0.95457 0.09216 0.0
C806 C 0.98087 0.95394 0.06261 0.0
C807 C 0.95355 0.94039 0.14946 0.0
C808 C 0.97247 0.89438 0.26708 0.0
H809 H 0.97288 0.80016 0.08941 0.0
H810 H 0.95828 0.83654 0.10167 0.0
H811 H 0.98032 0.8642 0.31682 0.0
H812 H 0.01264 0.94071 0.07824 0.0
H813 H 1.0018 0.91595 0.17758 0.0
H814 H 0.93436 0.90109 0.12909 0.0
C815 C 0.96013 0.82722 0.15327 0.0
C816 C 0.96955 0.87234 0.27851 0.0
C817 C 0.96837 0.80638 0.14595 0.0
C818 C 0.99629 0.94144 0.09961 0.0
C819 C 0.99001 0.92721 0.15679 0.0
C820 C 0.94383 0.89356 0.17318 0.0
C821 C 0.95691 0.83679 0.22667 0.0
C822 C 0.95474 0.8605 0.23366 0.0
C823 C 0.96824 0.92538 0.17775 0.0
C824 C 0.96048 0.90492 0.21084 0.0
H825 H 0.97114 0.79433 0.33593 0.0
H826 H 0.95735 0.83123 0.34937 0.0
H827 H 0.92942 0.86279 0.14943 0.0
H828 H 0.94774 0.96443 0.06549 0.0
H829 H 0.93676 0.93966 0.16578 0.0
C830 C 0.72935 0.93861 0.15908 0.0
C831 C 0.73024 0.96125 0.16241 0.0
C832 C 0.7102 0.92806 0.13872 0.0
C833 C 0.66993 0.92486 0.01731 0.0
H834 H 0.61887 0.93455 0.14164 0.0
C835 C 0.59684 0.94767 0.86119 0.0
C836 C 0.59047 0.968 0.89002 0.0
C837 C 0.60751 0.93334 0.90886 0.0
C838 C 0.63289 0.93138 0.10615 0.0
H839 H 0.71235 0.99058 0.14549 0.0
H840 H 0.67876 0.97228 0.11328 0.0
H841 H 0.65418 0.93593 0.20192 0.0
H842 H 0.58713 0.98797 0.99305 0.0
H843 H 0.60617 0.96375 0.07506 0.0
H844 H 0.64941 0.92344 0.91992 0.0
C845 C 0.69273 0.9627 0.12685 0.0
C846 C 0.65308 0.9319 0.14102 0.0
C847 C 0.71185 0.97314 0.14516 0.0
C848 C 0.59208 0.97247 0.96921 0.0
C849 C 0.603 0.95836 0.01652 0.0
C850 C 0.64983 0.92478 0.98215 0.0
C851 C 0.69175 0.94014 0.12335 0.0
C852 C 0.67172 0.93009 0.09582 0.0
C853 C 0.61241 0.93942 0.98543 0.0
C854 C 0.63121 0.92989 0.02531 0.0
H855 H 0.74345 0.92922 0.17218 0.0
H856 H 0.70977 0.91062 0.13488 0.0
H857 H 0.68417 0.92355 0.98145 0.0
H858 H 0.59517 0.94364 0.80047 0.0
H859 H 0.61373 0.9185 0.88366 0.0
C860 C 0.57935 0.71678 0.19032 0.0
C861 C 0.57128 0.72712 0.12548 0.0
C862 C 0.58303 0.69457 0.18809 0.0
C863 C 0.56786 0.64802 0.18266 0.0
H864 H 0.58694 0.61494 1.00316 0.0
C865 C 0.53161 0.56694 0.09098 0.0
C866 C 0.54444 0.55128 0.0539 0.0
C867 C 0.54037 0.58671 0.11427 0.0
C868 C 0.58195 0.62385 0.0545 0.0
H869 H 0.5623 0.723 1.00612 0.0
H870 H 0.56914 0.68423 1.00101 0.0
H871 H 0.59421 0.65359 0.0116 0.0
H872 H 0.57669 0.54339 0.016 0.0
H873 H 0.59211 0.57823 0.05636 0.0
H874 H 0.55487 0.61846 0.22419 0.0
C875 C 0.57266 0.69316 0.05374 0.0
C876 C 0.58593 0.64602 0.05893 0.0
C877 C 0.56883 0.71535 0.05632 0.0
C878 C 0.56649 0.55523 0.04451 0.0
C879 C 0.57525 0.57518 0.06709 0.0
C880 C 0.56381 0.62588 0.17807 0.0
C881 C 0.57892 0.68238 0.12054 0.0
C882 C 0.57835 0.65846 0.12193 0.0
C883 C 0.56213 0.59133 0.10037 0.0
C884 C 0.57018 0.61368 0.11275 0.0
H885 H 0.58137 0.72569 0.24412 0.0
H886 H 0.58809 0.68678 0.2402 0.0
H887 H 0.56161 0.65714 0.23169 0.0
H888 H 0.51458 0.56421 0.09908 0.0
H889 H 0.52976 0.59884 0.13901 0.0
C890 C 0.80997 0.58073 0.1358 0.0
C891 C 0.79924 0.56637 0.08582 0.0
C892 C 0.83198 0.58429 0.12738 0.0
C893 C 0.87851 0.57058 0.13814 0.0
H894 H 0.90917 0.56795 0.94344 0.0
C895 C 0.95744 0.52547 0.09253 0.0
C896 C 0.97174 0.53188 0.03458 0.0
C897 C 0.93865 0.53711 0.10712 0.0
C898 C 0.901 0.56917 0.99856 0.0
H899 H 0.8023 0.5456 0.98517 0.0
H900 H 0.84079 0.55186 0.96916 0.0
H901 H 0.87094 0.57598 0.94508 0.0
H902 H 0.97885 0.55674 0.95256 0.0
H903 H 0.94594 0.57713 0.97782 0.0
H904 H 0.90841 0.56299 0.19141 0.0
C905 C 0.83234 0.56058 0.01464 0.0
C906 C 0.87902 0.57353 0.99931 0.0
C907 C 0.81033 0.557 0.02337 0.0
C908 C 0.96782 0.5512 0.99628 0.0
C909 C 0.94902 0.56285 0.01079 0.0
C910 C 0.90049 0.56617 0.1374 0.0
C911 C 0.84356 0.57357 0.06847 0.0
C912 C 0.86739 0.57348 0.06877 0.0
C913 C 0.93379 0.55541 0.06408 0.0
C914 C 0.91182 0.56462 0.06731 0.0
H915 H 0.80154 0.58805 0.18431 0.0
H916 H 0.84011 0.5946 0.16914 0.0
H917 H 0.87001 0.57032 0.19268 0.0
H918 H 0.95994 0.5106 0.12275 0.0
H919 H 0.92723 0.53081 0.14814 0.0
C920 C 0.05751 0.23518 0.98178 0.0
C921 C 0.04081 0.25044 0.98309 0.0
C922 C 0.05526 0.21497 0.94441 0.0
C923 C 0.01317 0.17716 0.85591 0.0
H924 H 0.06369 0.14336 0.80632 0.0
C925 C 1.00518 0.08671 0.75206 0.0
C926 C 0.02187 0.07685 0.70936 0.0
C927 C 1.00751 0.10771 0.78411 0.0
C928 C 0.0492 0.15241 0.81822 0.0
H929 H 1.00869 0.25631 0.9424 0.0
H930 H 1.00516 0.22184 0.87182 0.0
H931 H 0.06767 0.17983 0.85391 0.0
H932 H 0.05337 0.08226 0.6613 0.0
H933 H 0.0574 0.11871 0.71414 0.0
H934 H 0.99471 0.15013 0.81516 0.0
C935 C 0.01993 0.22502 0.90248 0.0
C936 C 0.05153 0.17364 0.84778 0.0
C937 C 0.02209 0.24523 0.94153 0.0
C938 C 0.04056 0.08899 0.69665 0.0
C939 C 0.04282 0.11009 0.72764 0.0
C940 C 0.01083 0.15604 0.82465 0.0
C941 C 0.0363 0.20914 0.90461 0.0
C942 C 0.0336 0.18654 0.86839 0.0
C943 C 0.02637 0.12004 0.77242 0.0
C944 C 0.0288 0.14302 0.80551 0.0
H945 H 0.07204 0.23847 0.01397 0.0
H946 H 0.06828 0.20365 0.95021 0.0
H947 H 0.99873 0.18592 0.87123 0.0
H948 H 0.99024 0.07813 0.76071 0.0
H949 H 0.99439 0.11409 0.8185 0.0
C950 C 0.29775 0.03251 0.95788 0.0
C951 C 0.29781 0.038 0.03683 0.0
C952 C 0.31707 0.02814 0.91819 0.0
C953 C 0.3752 0.04053 0.92437 0.0
H954 H 0.3812 0.99258 0.77931 0.0
C955 C 0.4468 0.9918 0.74834 0.0
C956 C 0.45836 1.00871 0.71491 0.0
C957 C 0.42712 0.99559 0.78568 0.0
C958 C 0.37982 1.00606 0.81965 0.0
H959 H 0.31812 0.04259 0.13648 0.0
H960 H 0.35187 0.03532 0.06737 0.0
H961 H 0.34731 0.99789 0.849 0.0
H962 H 0.45751 0.04272 0.69008 0.0
H963 H 0.42333 0.04959 0.75776 0.0
H964 H 0.40769 0.04879 0.8946 0.0
C965 C 0.33692 0.03439 0.03586 0.0
C966 C 0.36031 1.00917 0.85933 0.0
C967 C 0.31759 0.03835 0.0757 0.0
C968 C 0.4494 0.0295 0.71772 0.0
C969 C 0.42975 0.03338 0.75609 0.0
C970 C 0.39461 0.03763 0.88377 0.0
C971 C 0.337 0.02951 0.95623 0.0
C972 C 0.35775 0.02634 0.91288 0.0
C973 C 0.41831 0.01643 0.79052 0.0
C974 C 0.39728 0.02023 0.83129 0.0
H975 H 0.28282 0.03252 0.92625 0.0
H976 H 0.31646 0.02454 0.85692 0.0
H977 H 0.37378 0.05408 0.96421 0.0
H978 H 0.45307 0.97553 0.74588 0.0
H979 H 0.4189 0.98217 0.81168 0.0
C980 C 0.48719 0.2942 0.93851 0.0
C981 C 0.49118 0.29113 0.01694 0.0
C982 C 0.4929 0.31362 0.90362 0.0
C983 C 0.50289 0.37122 0.95557 0.0
H984 H 0.51983 0.37526 0.74117 0.0
C985 C 0.52998 0.44123 0.7258 0.0
C986 C 0.5138 0.45658 0.74107 0.0
C987 C 0.52908 0.42072 0.75864 0.0
C988 C 0.51525 0.37443 0.80129 0.0
H989 H 0.50459 0.30553 0.1202 0.0
H990 H 0.51521 0.33923 0.05957 0.0
H991 H 0.51607 0.33985 0.79909 0.0
H992 H 0.48384 0.46199 0.80297 0.0
H993 H 0.48253 0.42666 0.8605 0.0
H994 H 0.50197 0.40576 0.95763 0.0
C995 C 0.50747 0.32686 0.0246 0.0
C996 C 0.51289 0.35408 0.83441 0.0
C997 C 0.50174 0.30745 0.05924 0.0
C998 C 0.49672 0.45078 0.78994 0.0
C999 C 0.49598 0.43046 0.82344 0.0
C1000 C 0.50505 0.3915 0.92229 0.0
C1001 C 0.50265 0.33049 0.94666 0.0
C1002 C 0.50647 0.35215 0.91195 0.0
C1003 C 0.51213 0.41512 0.80838 0.0
C1004 C 0.51104 0.39342 0.84449 0.0
H1005 H 0.47855 0.28203 0.90548 0.0
H1006 H 0.48863 0.3158 0.84392 0.0
H1007 H 0.49787 0.37055 0.01522 0.0
H1008 H 0.54336 0.44503 0.68837 0.0
H1009 H 0.54185 0.40934 0.74603 0.0
C1010 C 0.2382 0.5071 0.98097 0.0
C1011 C 0.23952 0.51109 0.06065 0.0
C1012 C 0.21887 0.51051 0.94153 0.0
C1013 C 0.15986 0.51408 0.97849 0.0
H1014 H 0.15768 0.53324 0.76769 0.0
C1015 C 0.0821 0.50817 0.79431 0.0
C1016 C 0.07745 0.5252 0.74455 0.0
C1017 C 0.10178 0.50727 0.83328 0.0
C1018 C 0.15794 0.52798 0.82676 0.0
H1019 H 0.22205 0.52231 0.16129 0.0
H1020 H 0.1885 0.52891 0.09297 0.0
H1021 H 0.19217 0.53135 0.83345 0.0
H1022 H 0.08993 0.5552 0.70127 0.0
H1023 H 0.12416 0.5535 0.76756 0.0
H1024 H 0.12564 0.51082 0.97202 0.0
C1025 C 0.20216 0.52282 0.06048 0.0
C1026 C 0.17781 0.52668 0.86434 0.0
C1027 C 0.22145 0.5194 0.0996 0.0
C1028 C 0.09299 0.54151 0.73665 0.0
C1029 C 0.11272 0.54055 0.77516 0.0
C1030 C 0.14002 0.51522 0.94076 0.0
C1031 C 0.20036 0.51794 0.9811 0.0
C1032 C 0.17911 0.51971 0.94087 0.0
C1033 C 0.1175 0.52335 0.82379 0.0
C1034 C 0.13873 0.5222 0.86428 0.0
H1035 H 0.25179 0.5002 0.95021 0.0
H1036 H 0.21817 0.50634 0.88073 0.0
H1037 H 0.16008 0.50847 0.03708 0.0
H1038 H 0.07061 0.49532 0.80283 0.0
H1039 H 0.10483 0.49369 0.86979 0.0
C1040 C 0.02078 0.81618 0.23137 0.0
C1041 C 0.01695 0.79724 0.27254 0.0
C1042 C 0.02332 0.83627 0.26979 0.0
C1043 C 1.00686 0.86507 0.44942 0.0
H1044 H 0.04916 0.90779 0.39335 0.0
C1045 C 0.01395 0.94569 0.62613 0.0
C1046 C 0.02287 0.96417 0.59312 0.0
C1047 C 0.01344 0.92579 0.5857 0.0
C1048 C 0.03686 0.8964 0.40932 0.0
H1049 H 0.01293 0.78468 0.3866 0.0
H1050 H 0.01745 0.81962 0.45421 0.0
H1051 H 0.04879 0.87276 0.32726 0.0
H1052 H 0.03981 0.97557 0.49305 0.0
H1053 H 0.03768 0.94156 0.41995 0.0
H1054 H 0.99399 0.8887 0.528 0.0
C1055 C 0.01868 0.81897 0.39197 0.0
C1056 C 0.03683 0.87604 0.3714 0.0
C1057 C 0.01648 0.79884 0.35345 0.0
C1058 C 0.03198 0.96192 0.51911 0.0
C1059 C 0.0311 0.94209 0.47769 0.0
C1060 C 1.0065 0.88556 0.4859 0.0
C1061 C 0.02171 0.83811 0.35072 0.0
C1062 C 0.02198 0.85992 0.3914 0.0
C1063 C 0.02193 0.92345 0.51028 0.0
C1064 C 0.02169 0.90167 0.46767 0.0
H1065 H 0.02052 0.81558 0.169 0.0
H1066 H 0.02535 0.85055 0.23573 0.0
H1067 H 0.99479 0.85337 0.46531 0.0
H1068 H 1.00787 0.94633 0.68446 0.0
H1069 H 1.00694 0.9121 0.61543 0.0
C1070 C 0.72364 0.01459 0.28755 0.0
C1071 C 0.73311 0.99409 0.28889 0.0
C1072 C 0.70388 0.01853 0.32495 0.0
C1073 C 0.66469 0.99563 0.46753 0.0
H1074 H 0.62367 0.03066 0.35944 0.0
C1075 C 0.5747 1.00215 0.56225 0.0
C1076 C 0.56537 0.02275 0.55979 0.0
C1077 C 0.59507 0.99826 0.52936 0.0
C1078 C 0.63495 0.02098 0.39095 0.0
H1079 H 0.72984 0.96198 0.33303 0.0
H1080 H 0.69559 0.96865 0.3981 0.0
H1081 H 0.65967 0.02566 0.30669 0.0
H1082 H 0.57036 0.05547 0.52318 0.0
H1083 H 0.60561 0.04879 0.46584 0.0
H1084 H 0.63981 0.99086 0.55154 0.0
C1085 C 0.70329 0.98187 0.36902 0.0
C1086 C 0.65574 0.01817 0.36072 0.0
C1087 C 0.72298 0.97798 0.33175 0.0
C1088 C 0.57695 0.03934 0.52462 0.0
C1089 C 0.59716 0.03546 0.49145 0.0
C1090 C 0.64386 0.9984 0.49768 0.0
C1091 C 0.69311 1.00206 0.36476 0.0
C1092 C 0.67102 1.0055 0.39855 0.0
C1093 C 0.60664 0.0149 0.49355 0.0
C1094 C 0.62867 1.01119 0.46002 0.0
H1095 H 0.7309 0.02719 0.25399 0.0
H1096 H 0.69684 0.03441 0.32123 0.0
H1097 H 0.67594 0.98596 0.49912 0.0
H1098 H 0.56648 0.98918 0.59091 0.0
H1099 H 0.60174 0.9822 0.53201 0.0
C1100 C 0.52581 0.71846 0.19783 0.0
C1101 C 0.53514 0.73717 0.22999 0.0
C1102 C 0.52108 0.7008 0.2438 0.0
C1103 C 0.53871 0.67628 0.42485 0.0
H1104 H 0.49112 0.63724 0.38638 0.0
C1105 C 0.5374 0.58943 0.53954 0.0
C1106 C 0.51775 0.58066 0.56389 0.0
C1107 C 0.5382 0.60947 0.50415 0.0
C1108 C 0.50439 0.64806 0.39861 0.0
H1109 H 0.54586 0.75265 0.3354 0.0
H1110 H 0.53698 0.72203 0.41715 0.0
H1111 H 0.4934 0.67094 0.3169 0.0
H1112 H 0.48351 0.58655 0.57203 0.0
H1113 H 0.48491 0.62171 0.51161 0.0
H1114 H 0.54969 0.65347 0.50665 0.0
C1115 C 0.53365 0.72079 0.35605 0.0
C1116 C 0.50582 0.66732 0.35809 0.0
C1117 C 0.53839 0.73846 0.30979 0.0
C1118 C 0.49894 0.59276 0.55392 0.0
C1119 C 0.49972 0.61287 0.51851 0.0
C1120 C 0.53731 0.65702 0.46524 0.0
C1121 C 0.52552 0.70147 0.32327 0.0
C1122 C 0.52309 0.68164 0.3702 0.0
C1123 C 0.51935 0.62144 0.49253 0.0
C1124 C 0.52024 0.64251 0.45223 0.0
H1125 H 0.52348 0.71707 0.13615 0.0
H1126 H 0.51509 0.6862 0.21615 0.0
H1127 H 0.55241 0.6867 0.43508 0.0
H1128 H 0.55225 0.58077 0.54761 0.0
H1129 H 0.55359 0.61537 0.48443 0.0
C1130 C 0.80763 0.52464 0.19276 0.0
C1131 C 0.79225 0.53949 0.21987 0.0
C1132 C 0.82714 0.52207 0.23152 0.0
C1133 C 0.85592 0.53572 0.41612 0.0
H1134 H 0.90656 0.52584 0.28972 0.0
C1135 C 0.95549 0.53648 0.44376 0.0
C1136 C 0.95762 0.52736 0.51696 0.0
C1137 C 0.93532 0.53775 0.40796 0.0
C1138 C 0.89268 0.52881 0.32615 0.0
H1139 H 0.78503 0.56316 0.30885 0.0
H1140 H 0.81899 0.55884 0.37736 0.0
H1141 H 0.87153 0.52809 0.22928 0.0
H1142 H 0.93965 0.51332 0.61046 0.0
H1143 H 0.90506 0.51451 0.54757 0.0
H1144 H 0.87713 0.5372 0.51271 0.0
C1145 C 0.81598 0.54873 0.32701 0.0
C1146 C 0.87239 0.52977 0.29138 0.0
C1147 C 0.79639 0.55115 0.28827 0.0
C1148 C 0.93894 0.51981 0.55341 0.0
C1149 C 0.91885 0.52094 0.51761 0.0
C1150 C 0.8762 0.53484 0.45086 0.0
C1151 C 0.83192 0.53449 0.29825 0.0
C1152 C 0.85363 0.53319 0.33575 0.0
C1153 C 0.91663 0.52996 0.4443 0.0
C1154 C 0.89495 0.53129 0.40659 0.0
H1155 H 0.80494 0.51584 0.13914 0.0
H1156 H 0.83866 0.51064 0.208 0.0
H1157 H 0.84199 0.53817 0.45275 0.0
H1158 H 0.96943 0.54259 0.41374 0.0
H1159 H 0.9344 0.54513 0.35213 0.0
loop_
_geom_bond_atom_site_label_1
_geom_bond_atom_site_label_2
_geom_bond_distance
_geom_bond_site_symmetry_2
_ccdc_geom_bond_type
C0 N1 1.317 . S
C0 N2 1.348 . S
C0 C3 1.485 . S
N1 C0 1.317 . S
N1 N5 1.370 . S
N2 C0 1.348 . S
N2 C4 1.346 . S
C3 C0 1.485 . S
C3 H7 0.960 . S
C3 H8 0.961 . S
C3 H9 0.960 . S
C4 N2 1.346 . S
C4 N5 1.307 . S
C4 C6 1.486 . S
N5 N1 1.370 . S
N5 C4 1.307 . S
C6 C4 1.486 . S
C6 H10 0.960 . S
C6 H11 0.960 . S
C6 H12 0.959 . S
H7 C3 0.960 . S
H8 C3 0.961 . S
H9 C3 0.960 . S
H10 C6 0.960 . S
H11 C6 0.960 . S
H12 C6 0.959 . S
C13 N14 1.317 . S
C13 N15 1.348 . S
C13 C16 1.485 . S
N14 C13 1.317 . S
N14 N18 1.370 . S
N15 C13 1.348 . S
N15 C17 1.346 . S
C16 C13 1.485 . S
C16 H20 0.960 . S
C16 H21 0.961 . S
C16 H22 0.960 . S
C17 N15 1.346 . S
C17 N18 1.307 . S
C17 C19 1.486 . S
N18 N14 1.370 . S
N18 C17 1.307 . S
C19 C17 1.486 . S
C19 H23 0.960 . S
C19 H24 0.960 . S
C19 H25 0.959 . S
H20 C16 0.960 . S
H21 C16 0.961 . S
H22 C16 0.960 . S
H23 C19 0.960 . S
H24 C19 0.960 . S
H25 C19 0.959 . S
C26 N27 1.317 . S
C26 N28 1.348 . S
C26 C29 1.485 . S
N27 C26 1.317 . S
N27 N31 1.370 . S
N28 C26 1.348 . S
N28 C30 1.346 . S
C29 C26 1.485 . S
C29 H33 0.960 . S
C29 H34 0.961 . S
C29 H35 0.960 . S
C30 N28 1.346 . S
C30 N31 1.307 . S
C30 C32 1.486 . S
N31 N27 1.370 . S
N31 C30 1.307 . S
C32 C30 1.486 . S
C32 H36 0.960 . S
C32 H37 0.960 . S
C32 H38 0.959 . S
H33 C29 0.960 . S
H34 C29 0.961 . S
H35 C29 0.960 . S
H36 C32 0.960 . S
H37 C32 0.960 . S
H38 C32 0.959 . S
C39 N40 1.317 . S
C39 N41 1.348 . S
C39 C42 1.485 . S
N40 C39 1.317 . S
N40 N44 1.370 . S
N41 C39 1.348 . S
N41 C43 1.346 . S
C42 C39 1.485 . S
C42 H46 0.960 . S
C42 H47 0.961 . S
C42 H48 0.960 . S
C43 N41 1.346 . S
C43 N44 1.307 . S
C43 C45 1.486 . S
N44 N40 1.370 . S
N44 C43 1.307 . S
C45 C43 1.486 . S
C45 H49 0.960 . S
C45 H50 0.960 . S
C45 H51 0.959 . S
H46 C42 0.960 . S
H47 C42 0.961 . S
H48 C42 0.960 . S
H49 C45 0.960 . S
H50 C45 0.960 . S
H51 C45 0.959 . S
C52 N53 1.317 . S
C52 N54 1.348 1_556 S
C52 C55 1.485 . S
N53 C52 1.317 . S
N53 N57 1.370 1_556 S
N54 C52 1.348 1_554 S
N54 C56 1.346 . S
C55 C52 1.485 . S
C55 H59 0.960 . S
C55 H60 0.961 . S
C55 H61 0.960 . S
C56 N54 1.346 . S
C56 N57 1.307 . S
C56 C58 1.486 . S
N57 N53 1.370 1_554 S
N57 C56 1.307 . S
C58 C56 1.486 . S
C58 H62 0.960 . S
C58 H63 0.960 . S
C58 H64 0.959 . S
H59 C55 0.960 . S
H60 C55 0.961 . S
H61 C55 0.960 . S
H62 C58 0.960 . S
H63 C58 0.960 . S
H64 C58 0.959 . S
C65 N66 1.317 . S
C65 N67 1.348 1_556 S
C65 C68 1.485 . S
N66 C65 1.317 . S
N66 N70 1.370 1_556 S
N67 C65 1.348 1_554 S
N67 C69 1.346 . S
C68 C65 1.485 . S
C68 H72 0.960 . S
C68 H73 0.961 . S
C68 H74 0.960 . S
C69 N67 1.346 . S
C69 N70 1.307 . S
C69 C71 1.486 . S
N70 N66 1.370 1_554 S
N70 C69 1.307 . S
C71 C69 1.486 . S
C71 H75 0.960 . S
C71 H76 0.960 . S
C71 H77 0.959 . S
H72 C68 0.960 . S
H73 C68 0.961 . S
H74 C68 0.960 . S
H75 C71 0.960 . S
H76 C71 0.960 . S
H77 C71 0.959 . S
C78 N79 1.317 . S
C78 N80 1.348 1_556 S
C78 C81 1.485 . S
N79 C78 1.317 . S
N79 N83 1.370 1_556 S
N80 C78 1.348 1_554 S
N80 C82 1.346 . S
C81 C78 1.485 . S
C81 H85 0.960 . S
C81 H86 0.961 . S
C81 H87 0.960 . S
C82 N80 1.346 . S
C82 N83 1.307 . S
C82 C84 1.486 . S
N83 N79 1.370 1_554 S
N83 C82 1.307 . S
C84 C82 1.486 . S
C84 H88 0.960 . S
C84 H89 0.960 . S
C84 H90 0.959 . S
H85 C81 0.960 . S
H86 C81 0.961 . S
H87 C81 0.960 . S
H88 C84 0.960 . S
H89 C84 0.960 . S
H90 C84 0.959 . S
C91 N92 1.317 . S
C91 N93 1.348 1_556 S
C91 C94 1.485 . S
N92 C91 1.317 . S
N92 N96 1.370 1_556 S
N93 C91 1.348 1_554 S
N93 C95 1.346 . S
C94 C91 1.485 . S
C94 H98 0.960 . S
C94 H99 0.961 . S
C94 H100 0.960 . S
C95 N93 1.346 . S
C95 N96 1.307 . S
C95 C97 1.486 . S
N96 N92 1.370 1_554 S
N96 C95 1.307 . S
C97 C95 1.486 . S
C97 H101 0.960 . S
C97 H102 0.960 . S
C97 H103 0.959 . S
H98 C94 0.960 . S
H99 C94 0.961 . S
H100 C94 0.960 . S
H101 C97 0.960 . S
H102 C97 0.960 . S
H103 C97 0.959 . S
Tb104 N135 2.660 1_565 S
Tb104 N142 2.589 1_565 S
Tb104 O148 2.546 . S
Tb104 O149 2.610 1_455 S
Tb104 O151 2.320 1_455 S
Tb104 O152 2.552 . S
Tb104 O153 2.413 . S
Tb104 O155 2.362 1_565 S
Tb104 O156 2.421 . S
Tb104 C168 2.833 . S
C105 C108 1.432 1_545 S
C105 C109 1.414 . S
C105 N112 1.359 . S
C106 C108 1.417 . S
C106 C110 1.432 . S
C106 C118 1.410 . S
C107 C109 1.444 1_565 S
C107 C110 1.317 . S
C107 H130 0.929 . S
C108 C105 1.432 1_565 S
C108 C106 1.417 . S
C108 N116 1.360 1_565 S
C109 C105 1.414 . S
C109 C107 1.444 1_545 S
C109 C114 1.385 . S
C110 C106 1.432 . S
C110 C107 1.317 . S
C110 H122 0.930 . S
C111 C113 1.392 . S
C111 C114 1.370 . S
C111 H123 0.931 . S
N112 C105 1.359 . S
N112 C113 1.327 . S
N112 Tb115 2.600 . S
C113 C111 1.392 . S
C113 N112 1.327 . S
C113 H120 0.930 . S
C114 C109 1.385 . S
C114 C111 1.370 . S
C114 H133 0.930 . S
Tb115 N112 2.600 . S
Tb115 N116 2.660 . S
Tb115 O149 2.362 1_545 S
Tb115 O150 2.421 . S
Tb115 O154 2.546 . S
Tb115 O155 2.610 1_655 S
Tb115 O157 2.320 1_655 S
Tb115 O158 2.552 1_655 S
Tb115 O159 2.413 . S
Tb115 C179 2.833 . S
N116 C108 1.360 1_545 S
N116 Tb115 2.660 . S
N116 C117 1.305 1_645 S
C117 N116 1.305 1_465 S
C117 C119 1.407 . S
C117 H124 0.930 . S
C118 C106 1.410 . S
C118 C119 1.345 1_655 S
C118 H126 0.930 . S
C119 C117 1.407 . S
C119 C118 1.345 1_455 S
C119 H121 0.930 . S
H120 C113 0.930 . S
H121 C119 0.930 . S
H122 C110 0.930 . S
H123 C111 0.931 . S
H124 C117 0.930 . S
H125 C139 0.930 1_655 S
H126 C118 0.930 . S
H127 C145 0.930 . S
H128 C136 0.930 1_655 S
H129 C143 0.931 . S
H130 C107 0.929 . S
H131 C137 0.930 1_554 S
H132 C170 0.930 1_554 S
H133 C114 0.930 . S
H134 C169 0.929 . S
N135 Tb104 2.660 1_545 S
N135 C136 1.305 . S
N135 C140 1.360 . S
C136 H128 0.930 1_455 S
C136 N135 1.305 . S
C136 C139 1.407 . S
C137 H131 0.930 1_556 S
C137 C138 1.410 . S
C137 C139 1.345 . S
C138 C137 1.410 . S
C138 C140 1.417 . S
C138 C170 1.432 . S
C139 H125 0.930 1_455 S
C139 C136 1.407 . S
C139 C137 1.345 . S
C140 N135 1.360 . S
C140 C138 1.417 . S
C140 C144 1.432 . S
H141 C146 0.930 . S
N142 Tb104 2.589 1_545 S
N142 C144 1.385 . S
N142 C145 1.309 1_545 S
C143 H129 0.931 . S
C143 C145 1.392 . S
C143 C146 1.370 1_565 S
C144 C140 1.432 . S
C144 N142 1.385 . S
C144 C147 1.414 . S
C145 H127 0.930 . S
C145 N142 1.309 1_565 S
C145 C143 1.392 . S
C146 H141 0.930 . S
C146 C143 1.370 1_545 S
C146 C147 1.385 . S
C147 C144 1.414 . S
C147 C146 1.385 . S
C147 C169 1.444 . S
O148 Tb104 2.546 . S
O148 C168 1.251 . S
O149 Tb104 2.610 1_655 S
O149 Tb115 2.362 1_565 S
O149 C160 1.283 . S
O150 Tb115 2.421 . S
O150 C167 1.262 . S
O151 Tb104 2.320 1_655 S
O151 C167 1.260 1_565 S
O152 Tb104 2.552 . S
O152 C160 1.243 1_455 S
O153 Tb104 2.413 . S
O153 C168 1.256 . S
O154 Tb115 2.546 . S
O154 C179 1.251 . S
O155 Tb104 2.362 1_545 S
O155 Tb115 2.610 1_455 S
O155 C171 1.283 . S
O156 Tb104 2.421 . S
O156 C178 1.262 1_565 S
O157 Tb115 2.320 1_455 S
O157 C178 1.260 . S
O158 Tb115 2.552 1_455 S
O158 C171 1.243 . S
O159 Tb115 2.413 . S
O159 C179 1.256 . S
C160 O149 1.283 . S
C160 O152 1.243 1_655 S
C161 C163 1.382 . S
C161 C165 1.393 . S
C161 C168 1.500 . S
C162 C163 1.400 . S
C162 C164 1.384 . S
C163 C161 1.382 . S
C163 C162 1.400 . S
C163 H180 0.902 1_455 S
C164 C162 1.384 . S
C164 C166 1.392 . S
C164 H181 0.931 . S
C165 C161 1.393 . S
C165 C166 1.401 . S
C165 H182 0.930 . S
C166 C164 1.392 . S
C166 C165 1.401 . S
C166 H183 0.930 . S
C167 O150 1.262 . S
C167 O151 1.260 1_545 S
C168 Tb104 2.833 . S
C168 O148 1.251 . S
C168 O153 1.256 . S
C168 C161 1.500 . S
C169 H134 0.929 . S
C169 C147 1.444 . S
C169 C170 1.317 . S
C170 H132 0.930 1_556 S
C170 C138 1.432 . S
C170 C169 1.317 . S
C171 O155 1.283 . S
C171 O158 1.243 . S
C172 C173 1.382 . S
C172 C176 1.393 . S
C172 C179 1.500 . S
C173 C172 1.382 . S
C173 C174 1.400 . S
C173 H184 0.930 1_655 S
C174 C173 1.400 . S
C174 C175 1.384 . S
C175 C174 1.384 . S
C175 C177 1.392 . S
C175 H185 0.931 . S
C176 C172 1.393 . S
C176 C177 1.401 . S
C176 H186 0.930 . S
C177 C175 1.392 . S
C177 C176 1.401 . S
C177 H187 0.930 . S
C178 O156 1.262 1_545 S
C178 O157 1.260 . S
C179 Tb115 2.833 . S
C179 O154 1.251 . S
C179 O159 1.256 . S
C179 C172 1.500 . S
H180 C163 0.902 1_655 S
H181 C164 0.931 . S
H182 C165 0.930 . S
H183 C166 0.930 . S
H184 C173 0.930 1_455 S
H185 C175 0.931 . S
H186 C176 0.930 . S
H187 C177 0.930 . S
Tb188 N219 2.660 . S
Tb188 N226 2.600 . S
Tb188 O232 2.546 . S
Tb188 O233 2.591 1_545 S
Tb188 O235 2.320 1_545 S
Tb188 O236 2.552 . S
Tb188 O237 2.413 . S
Tb188 O239 2.362 . S
Tb188 O240 2.421 . S
Tb188 C252 2.833 . S
C189 C192 1.432 . S
C189 C193 1.414 . S
C189 N196 1.359 . S
C190 C192 1.417 . S
C190 C194 1.432 . S
C190 C202 1.410 . S
C191 C193 1.444 . S
C191 C194 1.317 . S
C191 H214 0.929 . S
C192 C189 1.432 . S
C192 C190 1.417 . S
C192 N200 1.360 . S
C193 C189 1.414 . S
C193 C191 1.444 . S
C193 C198 1.385 . S
C194 C190 1.432 . S
C194 C191 1.317 . S
C194 H206 0.930 . S
C195 C197 1.392 . S
C195 C198 1.370 . S
C195 H207 0.931 . S
N196 C189 1.359 . S
N196 C197 1.327 . S
N196 Tb199 2.600 . S
C197 C195 1.392 . S
C197 N196 1.327 . S
C197 H204 0.930 . S
C198 C193 1.385 . S
C198 C195 1.370 . S
C198 H217 0.930 . S
Tb199 N196 2.600 . S
Tb199 N200 2.660 . S
Tb199 O233 2.367 . S
Tb199 O234 2.421 . S
Tb199 O238 2.546 . S
Tb199 O239 2.610 1_565 S
Tb199 O241 2.320 1_565 S
Tb199 O242 2.552 1_565 S
Tb199 O243 2.404 1_565 S
Tb199 C263 2.833 . S
N200 C192 1.360 . S
N200 Tb199 2.660 . S
N200 C201 1.305 1_565 S
C201 N200 1.305 1_545 S
C201 C203 1.407 . S
C201 H208 0.930 . S
C202 C190 1.410 . S
C202 C203 1.345 1_565 S
C202 H210 0.930 . S
C203 C201 1.407 . S
C203 C202 1.345 1_545 S
C203 H205 0.930 . S
H204 C197 0.930 . S
H205 C203 0.930 . S
H206 C194 0.930 . S
H207 C195 0.931 . S
H208 C201 0.930 . S
H209 C223 0.930 1_565 S
H210 C202 0.930 . S
H211 C229 0.930 . S
H212 C220 0.930 1_565 S
H213 C227 0.931 . S
H214 C191 0.929 . S
H215 C221 0.930 1_554 S
H216 C254 0.930 1_554 S
H217 C198 0.930 . S
H218 C253 0.929 . S
N219 Tb188 2.660 . S
N219 C220 1.305 . S
N219 C224 1.360 . S
C220 H212 0.930 1_545 S
C220 N219 1.305 . S
C220 C223 1.407 . S
C221 H215 0.930 1_556 S
C221 C222 1.410 . S
C221 C223 1.345 . S
C222 C221 1.410 . S
C222 C224 1.417 . S
C222 C254 1.432 . S
C223 H209 0.930 1_545 S
C223 C220 1.407 . S
C223 C221 1.345 . S
C224 N219 1.360 . S
C224 C222 1.417 . S
C224 C228 1.432 . S
H225 C230 0.930 . S
N226 Tb188 2.600 . S
N226 C228 1.359 . S
N226 C229 1.327 . S
C227 H213 0.931 . S
C227 C229 1.392 . S
C227 C230 1.370 . S
C228 C224 1.432 . S
C228 N226 1.359 . S
C228 C231 1.414 . S
C229 H211 0.930 . S
C229 N226 1.327 . S
C229 C227 1.392 . S
C230 H225 0.930 . S
C230 C227 1.370 . S
C230 C231 1.385 . S
C231 C228 1.414 . S
C231 C230 1.385 . S
C231 C253 1.444 . S
O232 Tb188 2.546 . S
O232 C252 1.251 . S
O233 Tb188 2.591 1_565 S
O233 Tb199 2.367 . S
O233 C244 1.282 1_565 S
O234 Tb199 2.421 . S
O234 C251 1.262 . S
O235 Tb188 2.320 1_565 S
O235 C251 1.260 . S
O236 Tb188 2.552 . S
O236 C244 1.239 . S
O237 Tb188 2.413 . S
O237 C252 1.256 . S
O238 Tb199 2.546 . S
O238 C263 1.251 . S
O239 Tb188 2.362 . S
O239 Tb199 2.610 1_545 S
O239 C255 1.283 . S
O240 Tb188 2.421 . S
O240 C262 1.262 . S
O241 Tb199 2.320 1_545 S
O241 C262 1.260 . S
O242 Tb199 2.552 1_545 S
O242 C255 1.243 . S
O243 Tb199 2.404 1_545 S
O243 C263 1.218 1_545 S
C244 O233 1.282 1_545 S
C244 O236 1.239 . S
C245 C247 1.382 . S
C245 C249 1.393 . S
C245 C252 1.500 . S
C246 C247 1.400 . S
C246 C248 1.384 . S
C247 C245 1.382 . S
C247 C246 1.400 . S
C247 H264 0.930 . S
C248 C246 1.384 . S
C248 C250 1.392 . S
C248 H265 0.931 . S
C249 C245 1.393 . S
C249 C250 1.401 . S
C249 H266 0.930 . S
C250 C248 1.392 . S
C250 C249 1.401 . S
C250 H267 0.930 . S
C251 O234 1.262 . S
C251 O235 1.260 . S
C252 Tb188 2.833 . S
C252 O232 1.251 . S
C252 O237 1.256 . S
C252 C245 1.500 . S
C253 H218 0.929 . S
C253 C231 1.444 . S
C253 C254 1.317 . S
C254 H216 0.930 1_556 S
C254 C222 1.432 . S
C254 C253 1.317 . S
C255 O239 1.283 . S
C255 O242 1.243 . S
C256 C257 1.361 1_565 S
C256 C260 1.393 . S
C256 C263 1.500 . S
C257 C256 1.361 1_545 S
C257 C258 1.398 1_545 S
C257 H268 0.953 . S
C258 C257 1.398 1_565 S
C258 C259 1.384 . S
C259 C258 1.384 . S
C259 C261 1.392 . S
C259 H269 0.931 . S
C260 C256 1.393 . S
C260 C261 1.401 . S
C260 H270 0.930 . S
C261 C259 1.392 . S
C261 C260 1.401 . S
C261 H271 0.930 . S
C262 O240 1.262 . S
C262 O241 1.260 . S
C263 Tb199 2.833 . S
C263 O238 1.251 . S
C263 O243 1.218 1_565 S
C263 C256 1.500 . S
H264 C247 0.930 . S
H265 C248 0.931 . S
H266 C249 0.930 . S
H267 C250 0.930 . S
H268 C257 0.953 . S
H269 C259 0.931 . S
H270 C260 0.930 . S
H271 C261 0.930 . S
Tb272 N303 2.660 . S
Tb272 N310 2.600 . S
Tb272 O316 2.546 . S
Tb272 O317 2.610 . S
Tb272 O319 2.320 . S
Tb272 O320 2.552 . S
Tb272 O321 2.413 . S
Tb272 O323 2.362 . S
Tb272 O324 2.421 . S
Tb272 C336 2.833 . S
C273 C276 1.432 . S
C273 C277 1.414 . S
C273 N280 1.359 . S
C274 C276 1.417 . S
C274 C278 1.432 . S
C274 C286 1.410 . S
C275 C277 1.444 . S
C275 C278 1.317 . S
C275 H298 0.929 . S
C276 C273 1.432 . S
C276 C274 1.417 . S
C276 N284 1.360 . S
C277 C273 1.414 . S
C277 C275 1.444 . S
C277 C282 1.385 . S
C278 C274 1.432 . S
C278 C275 1.317 . S
C278 H290 0.930 . S
C279 C281 1.392 . S
C279 C282 1.370 . S
C279 H291 0.931 . S
N280 C273 1.359 . S
N280 C281 1.327 . S
N280 Tb283 2.600 . S
C281 C279 1.392 . S
C281 N280 1.327 . S
C281 H288 0.930 . S
C282 C277 1.385 . S
C282 C279 1.370 . S
C282 H301 0.930 . S
Tb283 N280 2.600 . S
Tb283 N284 2.660 . S
Tb283 O317 2.362 . S
Tb283 O318 2.421 . S
Tb283 O322 2.546 . S
Tb283 O323 2.610 . S
Tb283 O325 2.320 . S
Tb283 O326 2.552 . S
Tb283 O327 2.413 . S
Tb283 C347 2.833 . S
N284 C276 1.360 . S
N284 Tb283 2.660 . S
N284 C285 1.305 . S
C285 N284 1.305 . S
C285 C287 1.407 . S
C285 H292 0.930 . S
C286 C274 1.410 . S
C286 C287 1.345 . S
C286 H294 0.930 . S
C287 C285 1.407 . S
C287 C286 1.345 . S
C287 H289 0.930 . S
H288 C281 0.930 . S
H289 C287 0.930 . S
H290 C278 0.930 . S
H291 C279 0.931 . S
H292 C285 0.930 . S
H293 C307 0.930 . S
H294 C286 0.930 . S
H295 C313 0.930 . S
H296 C304 0.930 . S
H297 C311 0.931 . S
H298 C275 0.929 . S
H299 C305 0.930 . S
H300 C338 0.930 . S
H301 C282 0.930 . S
H302 C337 0.929 . S
N303 Tb272 2.660 . S
N303 C304 1.305 . S
N303 C308 1.360 . S
C304 H296 0.930 . S
C304 N303 1.305 . S
C304 C307 1.407 . S
C305 H299 0.930 . S
C305 C306 1.410 . S
C305 C307 1.345 . S
C306 C305 1.410 . S
C306 C308 1.417 . S
C306 C338 1.432 . S
C307 H293 0.930 . S
C307 C304 1.407 . S
C307 C305 1.345 . S
C308 N303 1.360 . S
C308 C306 1.417 . S
C308 C312 1.432 . S
H309 C314 0.930 . S
N310 Tb272 2.600 . S
N310 C312 1.359 . S
N310 C313 1.327 . S
C311 H297 0.931 . S
C311 C313 1.392 . S
C311 C314 1.370 . S
C312 C308 1.432 . S
C312 N310 1.359 . S
C312 C315 1.414 . S
C313 H295 0.930 . S
C313 N310 1.327 . S
C313 C311 1.392 . S
C314 H309 0.930 . S
C314 C311 1.370 . S
C314 C315 1.385 . S
C315 C312 1.414 . S
C315 C314 1.385 . S
C315 C337 1.444 . S
O316 Tb272 2.546 . S
O316 C336 1.251 . S
O317 Tb272 2.610 . S
O317 Tb283 2.362 . S
O317 C328 1.283 . S
O318 Tb283 2.421 . S
O318 C335 1.262 . S
O319 Tb272 2.320 . S
O319 C335 1.260 . S
O320 Tb272 2.552 . S
O320 C328 1.243 . S
O321 Tb272 2.413 . S
O321 C336 1.256 . S
O322 Tb283 2.546 . S
O322 C347 1.251 . S
O323 Tb272 2.362 . S
O323 Tb283 2.610 . S
O323 C339 1.283 . S
O324 Tb272 2.421 . S
O324 C346 1.262 . S
O325 Tb283 2.320 . S
O325 C346 1.260 . S
O326 Tb283 2.552 . S
O326 C339 1.243 . S
O327 Tb283 2.413 . S
O327 C347 1.256 . S
C328 O317 1.283 . S
C328 O320 1.243 . S
C329 C331 1.382 . S
C329 C333 1.393 . S
C329 C336 1.500 . S
C330 C331 1.400 . S
C330 C332 1.384 . S
C331 C329 1.382 . S
C331 C330 1.400 . S
C331 H348 0.930 . S
C332 C330 1.384 . S
C332 C334 1.392 . S
C332 H349 0.931 . S
C333 C329 1.393 . S
C333 C334 1.401 . S
C333 H350 0.930 . S
C334 C332 1.392 . S
C334 C333 1.401 . S
C334 H351 0.930 . S
C335 O318 1.262 . S
C335 O319 1.260 . S
C336 Tb272 2.833 . S
C336 O316 1.251 . S
C336 O321 1.256 . S
C336 C329 1.500 . S
C337 H302 0.929 . S
C337 C315 1.444 . S
C337 C338 1.317 . S
C338 H300 0.930 . S
C338 C306 1.432 . S
C338 C337 1.317 . S
C339 O323 1.283 . S
C339 O326 1.243 . S
C340 C341 1.382 . S
C340 C344 1.393 . S
C340 C347 1.500 . S
C341 C340 1.382 . S
C341 C342 1.400 . S
C341 H352 0.930 . S
C342 C341 1.400 . S
C342 C343 1.384 1_556 S
C343 C342 1.384 1_554 S
C343 C345 1.392 . S
C343 H353 0.931 . S
C344 C340 1.393 . S
C344 C345 1.401 1_556 S
C344 H354 0.930 . S
C345 C343 1.392 . S
C345 C344 1.401 1_554 S
C345 H355 0.930 . S
C346 O324 1.262 . S
C346 O325 1.260 . S
C347 Tb283 2.833 . S
C347 O322 1.251 . S
C347 O327 1.256 . S
C347 C340 1.500 . S
H348 C331 0.930 . S
H349 C332 0.931 . S
H350 C333 0.930 . S
H351 C334 0.930 . S
H352 C341 0.930 . S
H353 C343 0.931 . S
H354 C344 0.930 . S
H355 C345 0.930 . S
Tb356 N387 2.660 . S
Tb356 N394 2.600 . S
Tb356 O400 2.546 . S
Tb356 O401 2.610 . S
Tb356 O403 2.320 . S
Tb356 O404 2.552 . S
Tb356 O405 2.413 . S
Tb356 O407 2.362 . S
Tb356 O408 2.421 1_455 S
Tb356 C420 2.833 . S
C357 C360 1.432 . S
C357 C361 1.414 . S
C357 N364 1.359 . S
C358 C360 1.417 . S
C358 C362 1.432 . S
C358 C370 1.410 . S
C359 C361 1.444 . S
C359 C362 1.317 . S
C359 H382 0.929 . S
C360 C357 1.432 . S
C360 C358 1.417 . S
C360 N368 1.360 . S
C361 C357 1.414 . S
C361 C359 1.444 . S
C361 C366 1.385 1_655 S
C362 C358 1.432 . S
C362 C359 1.317 . S
C362 H374 0.930 . S
C363 C365 1.392 . S
C363 C366 1.370 . S
C363 H375 0.931 . S
N364 C357 1.359 . S
N364 C365 1.327 1_655 S
N364 Tb367 2.600 . S
C365 C363 1.392 . S
C365 N364 1.327 1_455 S
C365 H372 0.930 . S
C366 C361 1.385 1_455 S
C366 C363 1.370 . S
C366 H385 0.930 . S
Tb367 N364 2.600 . S
Tb367 N368 2.660 . S
Tb367 O401 2.362 1_655 S
Tb367 O402 2.421 1_655 S
Tb367 O406 2.546 . S
Tb367 O407 2.610 1_655 S
Tb367 O409 2.320 . S
Tb367 O410 2.552 . S
Tb367 O411 2.413 . S
Tb367 C431 2.833 . S
N368 C360 1.360 . S
N368 Tb367 2.660 . S
N368 C369 1.305 . S
C369 N368 1.305 . S
C369 C371 1.407 . S
C369 H376 0.930 . S
C370 C358 1.410 . S
C370 C371 1.345 . S
C370 H378 0.930 . S
C371 C369 1.407 . S
C371 C370 1.345 . S
C371 H373 0.930 . S
H372 C365 0.930 . S
H373 C371 0.930 . S
H374 C362 0.930 . S
H375 C363 0.931 . S
H376 C369 0.930 . S
H377 C391 0.930 . S
H378 C370 0.930 . S
H379 C397 0.930 1_655 S
H380 C388 0.930 . S
H381 C395 0.947 . S
H382 C359 0.929 . S
H383 C389 0.930 . S
H384 C422 0.930 . S
H385 C366 0.930 . S
H386 C421 0.929 . S
N387 Tb356 2.660 . S
N387 C388 1.305 . S
N387 C392 1.360 . S
C388 H380 0.930 . S
C388 N387 1.305 . S
C388 C391 1.407 . S
C389 H383 0.930 . S
C389 C390 1.410 . S
C389 C391 1.345 . S
C390 C389 1.410 . S
C390 C392 1.417 . S
C390 C422 1.432 . S
C391 H377 0.930 . S
C391 C388 1.407 . S
C391 C389 1.345 . S
C392 N387 1.360 . S
C392 C390 1.417 . S
C392 C396 1.432 . S
H393 C398 0.930 . S
N394 Tb356 2.600 . S
N394 C396 1.359 . S
N394 C397 1.327 . S
C395 H381 0.947 . S
C395 C397 1.389 1_655 S
C395 C398 1.358 1_655 S
C396 C392 1.432 . S
C396 N394 1.359 . S
C396 C399 1.414 . S
C397 H379 0.930 1_455 S
C397 N394 1.327 . S
C397 C395 1.389 1_455 S
C398 H393 0.930 . S
C398 C395 1.358 1_455 S
C398 C399 1.385 . S
C399 C396 1.414 . S
C399 C398 1.385 . S
C399 C421 1.444 . S
O400 Tb356 2.546 . S
O400 C420 1.251 . S
O401 Tb356 2.610 . S
O401 Tb367 2.362 1_455 S
O401 C412 1.283 . S
O402 Tb367 2.421 1_455 S
O402 C419 1.262 . S
O403 Tb356 2.320 . S
O403 C419 1.260 . S
O404 Tb356 2.552 . S
O404 C412 1.243 . S
O405 Tb356 2.413 . S
O405 C420 1.256 . S
O406 Tb367 2.546 . S
O406 C431 1.251 . S
O407 Tb356 2.362 . S
O407 Tb367 2.610 1_455 S
O407 C423 1.283 1_455 S
O408 Tb356 2.421 1_655 S
O408 C430 1.262 . S
O409 Tb367 2.320 . S
O409 C430 1.260 . S
O410 Tb367 2.552 . S
O410 C423 1.243 . S
O411 Tb367 2.413 . S
O411 C431 1.256 . S
C412 O401 1.283 . S
C412 O404 1.243 . S
C413 C415 1.382 . S
C413 C417 1.393 . S
C413 C420 1.500 . S
C414 C415 1.400 . S
C414 C416 1.384 . S
C415 C413 1.382 . S
C415 C414 1.400 . S
C415 H432 0.930 . S
C416 C414 1.384 . S
C416 C418 1.392 . S
C416 H433 0.931 . S
C417 C413 1.393 . S
C417 C418 1.401 . S
C417 H434 0.930 . S
C418 C416 1.392 . S
C418 C417 1.401 . S
C418 H435 0.930 . S
C419 O402 1.262 . S
C419 O403 1.260 . S
C420 Tb356 2.833 . S
C420 O400 1.251 . S
C420 O405 1.256 . S
C420 C413 1.500 . S
C421 H386 0.929 . S
C421 C399 1.444 . S
C421 C422 1.317 . S
C422 H384 0.930 . S
C422 C390 1.432 . S
C422 C421 1.317 . S
C423 O407 1.283 1_655 S
C423 O410 1.243 . S
C424 C425 1.382 . S
C424 C428 1.393 . S
C424 C431 1.500 . S
C425 C424 1.382 . S
C425 C426 1.400 . S
C425 H436 0.930 . S
C426 C425 1.400 . S
C426 C427 1.384 1_556 S
C427 C426 1.384 1_554 S
C427 C429 1.392 . S
C427 H437 0.931 . S
C428 C424 1.393 . S
C428 C429 1.401 1_556 S
C428 H438 0.930 . S
C429 C427 1.392 . S
C429 C428 1.401 1_554 S
C429 H439 0.930 . S
C430 O408 1.262 . S
C430 O409 1.260 . S
C431 Tb367 2.833 . S
C431 O406 1.251 . S
C431 O411 1.256 . S
C431 C424 1.500 . S
H432 C415 0.930 . S
H433 C416 0.931 . S
H434 C417 0.930 . S
H435 C418 0.930 . S
H436 C425 0.930 . S
H437 C427 0.931 . S
H438 C428 0.930 . S
H439 C429 0.930 . S
C440 C441 1.349 . S
C440 C442 1.327 . S
C440 H465 0.950 . S
C441 C440 1.349 . S
C441 C457 1.349 . S
C442 C440 1.327 . S
C442 C461 1.429 . S
C442 H466 0.950 . S
C443 C460 1.574 . S
C443 C462 1.368 . S
C443 H467 0.949 . S
H444 C448 0.949 . S
C445 C446 1.349 . S
C445 C447 1.327 . S
C445 H468 0.950 1_545 S
C446 C445 1.349 . S
C446 C458 1.349 . S
C447 C445 1.327 . S
C447 C463 1.429 . S
C447 H469 0.950 . S
C448 H444 0.949 . S
C448 C456 1.574 . S
C448 C464 1.368 . S
H449 C457 0.950 . S
H450 C455 0.950 . S
H451 C456 0.949 . S
H452 C458 0.950 . S
H453 C459 0.950 . S
H454 C460 0.949 . S
C455 H450 0.950 . S
C455 C457 1.327 . S
C455 C461 1.429 . S
C456 C448 1.574 . S
C456 H451 0.949 . S
C456 C462 1.368 . S
C457 C441 1.349 . S
C457 H449 0.950 . S
C457 C455 1.327 . S
C458 C446 1.349 . S
C458 H452 0.950 . S
C458 C459 1.327 . S
C459 H453 0.950 . S
C459 C458 1.327 . S
C459 C463 1.429 . S
C460 C443 1.574 . S
C460 H454 0.949 . S
C460 C464 1.368 . S
C461 C442 1.429 . S
C461 C455 1.429 . S
C461 C462 1.523 . S
C462 C443 1.368 . S
C462 C456 1.368 . S
C462 C461 1.523 . S
C463 C447 1.429 . S
C463 C459 1.429 . S
C463 C464 1.523 . S
C464 C448 1.368 . S
C464 C460 1.368 . S
C464 C463 1.523 . S
H465 C440 0.950 . S
H466 C442 0.950 . S
H467 C443 0.949 . S
H468 C445 0.950 1_565 S
H469 C447 0.950 . S
C470 C471 1.349 . S
C470 C472 1.327 . S
C470 H495 0.950 . S
C471 C470 1.349 . S
C471 C487 1.349 . S
C472 C470 1.327 . S
C472 C491 1.429 . S
C472 H496 0.950 . S
C473 C490 1.574 . S
C473 C492 1.368 . S
C473 H497 0.949 . S
H474 C478 0.949 . S
C475 C476 1.349 . S
C475 C477 1.327 . S
C475 H498 0.950 . S
C476 C475 1.349 . S
C476 C488 1.349 . S
C477 C475 1.327 . S
C477 C493 1.429 . S
C477 H499 0.950 . S
C478 H474 0.949 . S
C478 C486 1.574 . S
C478 C494 1.368 . S
H479 C487 0.950 . S
H480 C485 0.950 . S
H481 C486 0.949 . S
H482 C488 0.950 . S
H483 C489 0.950 . S
H484 C490 0.949 . S
C485 H480 0.950 . S
C485 C487 1.327 . S
C485 C491 1.429 . S
C486 C478 1.574 . S
C486 H481 0.949 . S
C486 C492 1.368 . S
C487 C471 1.349 . S
C487 H479 0.950 . S
C487 C485 1.327 . S
C488 C476 1.349 . S
C488 H482 0.950 . S
C488 C489 1.327 . S
C489 H483 0.950 . S
C489 C488 1.327 . S
C489 C493 1.429 . S
C490 C473 1.574 . S
C490 H484 0.949 . S
C490 C494 1.368 . S
C491 C472 1.429 . S
C491 C485 1.429 . S
C491 C492 1.523 . S
C492 C473 1.368 . S
C492 C486 1.368 . S
C492 C491 1.523 . S
C493 C477 1.429 . S
C493 C489 1.429 . S
C493 C494 1.523 . S
C494 C478 1.368 . S
C494 C490 1.368 . S
C494 C493 1.523 . S
H495 C470 0.950 . S
H496 C472 0.950 . S
H497 C473 0.949 . S
H498 C475 0.950 . S
H499 C477 0.950 . S
C500 C501 1.349 . S
C500 C502 1.327 . S
C500 H525 0.950 . S
C501 C500 1.349 . S
C501 C517 1.349 . S
C502 C500 1.327 . S
C502 C521 1.429 . S
C502 H526 0.950 . S
C503 C520 1.574 . S
C503 C522 1.368 . S
C503 H527 0.949 . S
H504 C508 0.949 . S
C505 C506 1.349 . S
C505 C507 1.327 . S
C505 H528 0.950 . S
C506 C505 1.349 . S
C506 C518 1.349 . S
C507 C505 1.327 . S
C507 C523 1.429 . S
C507 H529 0.950 . S
C508 H504 0.949 . S
C508 C516 1.574 . S
C508 C524 1.368 . S
H509 C517 0.950 . S
H510 C515 0.950 . S
H511 C516 0.949 . S
H512 C518 0.950 . S
H513 C519 0.950 . S
H514 C520 0.949 . S
C515 H510 0.950 . S
C515 C517 1.327 . S
C515 C521 1.429 . S
C516 C508 1.574 . S
C516 H511 0.949 . S
C516 C522 1.368 . S
C517 C501 1.349 . S
C517 H509 0.950 . S
C517 C515 1.327 . S
C518 C506 1.349 . S
C518 H512 0.950 . S
C518 C519 1.327 . S
C519 H513 0.950 . S
C519 C518 1.327 . S
C519 C523 1.429 . S
C520 C503 1.574 . S
C520 H514 0.949 . S
C520 C524 1.368 . S
C521 C502 1.429 . S
C521 C515 1.429 . S
C521 C522 1.523 . S
C522 C503 1.368 . S
C522 C516 1.368 . S
C522 C521 1.523 . S
C523 C507 1.429 . S
C523 C519 1.429 . S
C523 C524 1.523 . S
C524 C508 1.368 . S
C524 C520 1.368 . S
C524 C523 1.523 . S
H525 C500 0.950 . S
H526 C502 0.950 . S
H527 C503 0.949 . S
H528 C505 0.950 . S
H529 C507 0.950 . S
C530 C531 1.349 . S
C530 C532 1.327 . S
C530 H555 0.950 . S
C531 C530 1.349 . S
C531 C547 1.349 . S
C532 C530 1.327 . S
C532 C551 1.429 . S
C532 H556 0.950 . S
C533 C550 1.574 . S
C533 C552 1.368 . S
C533 H557 0.949 . S
H534 C538 0.949 . S
C535 C536 1.349 . S
C535 C537 1.327 . S
C535 H558 0.950 . S
C536 C535 1.349 . S
C536 C548 1.349 . S
C537 C535 1.327 . S
C537 C553 1.429 . S
C537 H559 0.950 . S
C538 H534 0.949 . S
C538 C546 1.574 . S
C538 C554 1.368 . S
H539 C547 0.950 . S
H540 C545 0.950 . S
H541 C546 0.949 . S
H542 C548 0.950 1_655 S
H543 C549 0.950 . S
H544 C550 0.949 . S
C545 H540 0.950 . S
C545 C547 1.327 . S
C545 C551 1.429 . S
C546 C538 1.574 . S
C546 H541 0.949 . S
C546 C552 1.368 . S
C547 C531 1.349 . S
C547 H539 0.950 . S
C547 C545 1.327 . S
C548 C536 1.349 . S
C548 H542 0.950 1_455 S
C548 C549 1.327 . S
C549 H543 0.950 . S
C549 C548 1.327 . S
C549 C553 1.429 . S
C550 C533 1.574 . S
C550 H544 0.949 . S
C550 C554 1.368 . S
C551 C532 1.429 . S
C551 C545 1.429 . S
C551 C552 1.523 . S
C552 C533 1.368 . S
C552 C546 1.368 . S
C552 C551 1.523 . S
C553 C537 1.429 . S
C553 C549 1.429 . S
C553 C554 1.523 . S
C554 C538 1.368 . S
C554 C550 1.368 . S
C554 C553 1.523 . S
H555 C530 0.950 . S
H556 C532 0.950 . S
H557 C533 0.949 . S
H558 C535 0.950 . S
H559 C537 0.950 . S
C560 C561 1.349 . S
C560 C562 1.327 . S
C560 H585 0.950 . S
C561 C560 1.349 . S
C561 C577 1.349 . S
C562 C560 1.327 . S
C562 C581 1.429 . S
C562 H586 0.950 . S
C563 C580 1.574 1_554 S
C563 C582 1.368 . S
C563 H587 0.949 . S
H564 C568 0.949 1_545 S
C565 C566 1.349 . S
C565 C567 1.327 . S
C565 H588 0.950 . S
C566 C565 1.349 . S
C566 C578 1.349 1_565 S
C567 C565 1.327 . S
C567 C583 1.429 . S
C567 H589 0.950 . S
C568 H564 0.949 1_565 S
C568 C576 1.574 . S
C568 C584 1.368 . S
H569 C577 0.950 . S
H570 C575 0.950 . S
H571 C576 0.947 1_544 S
H572 C578 0.950 . S
H573 C579 0.950 . S
H574 C580 0.949 . S
C575 H570 0.950 . S
C575 C577 1.327 . S
C575 C581 1.429 . S
C576 C568 1.574 . S
C576 H571 0.947 1_566 S
C576 C582 1.368 1_556 S
C577 C561 1.349 . S
C577 H569 0.950 . S
C577 C575 1.327 . S
C578 C566 1.349 1_545 S
C578 H572 0.950 . S
C578 C579 1.327 . S
C579 H573 0.950 . S
C579 C578 1.327 . S
C579 C583 1.429 1_545 S
C580 C563 1.574 1_556 S
C580 H574 0.949 . S
C580 C584 1.368 . S
C581 C562 1.429 . S
C581 C575 1.429 . S
C581 C582 1.523 . S
C582 C563 1.368 . S
C582 C576 1.368 1_554 S
C582 C581 1.523 . S
C583 C567 1.429 . S
C583 C579 1.429 1_565 S
C583 C584 1.523 . S
C584 C568 1.368 . S
C584 C580 1.368 . S
C584 C583 1.523 . S
H585 C560 0.950 . S
H586 C562 0.950 . S
H587 C563 0.949 . S
H588 C565 0.950 . S
H589 C567 0.950 . S
C590 C591 1.349 . S
C590 C592 1.327 . S
C590 H615 0.950 . S
C591 C590 1.349 . S
C591 C607 1.349 . S
C592 C590 1.327 . S
C592 C611 1.429 . S
C592 H616 0.950 . S
C593 C610 1.574 1_554 S
C593 C612 1.368 . S
C593 H617 0.949 . S
H594 C598 0.949 . S
C595 C596 1.349 . S
C595 C597 1.327 . S
C595 H618 0.950 . S
C596 C595 1.349 . S
C596 C608 1.349 . S
C597 C595 1.327 . S
C597 C613 1.429 . S
C597 H619 0.950 . S
C598 H594 0.949 . S
C598 C606 1.574 . S
C598 C614 1.368 . S
H599 C607 0.950 . S
H600 C605 0.950 . S
H601 C606 0.949 . S
H602 C608 0.950 . S
H603 C609 0.950 . S
H604 C610 0.949 . S
C605 H600 0.950 . S
C605 C607 1.327 . S
C605 C611 1.429 . S
C606 C598 1.574 . S
C606 H601 0.949 . S
C606 C612 1.368 1_556 S
C607 C591 1.349 . S
C607 H599 0.950 . S
C607 C605 1.327 . S
C608 C596 1.349 . S
C608 H602 0.950 . S
C608 C609 1.327 . S
C609 H603 0.950 . S
C609 C608 1.327 . S
C609 C613 1.429 . S
C610 C593 1.574 1_556 S
C610 H604 0.949 . S
C610 C614 1.368 . S
C611 C592 1.429 . S
C611 C605 1.429 . S
C611 C612 1.523 . S
C612 C593 1.368 . S
C612 C606 1.368 1_554 S
C612 C611 1.523 . S
C613 C597 1.429 . S
C613 C609 1.429 . S
C613 C614 1.523 . S
C614 C598 1.368 . S
C614 C610 1.368 . S
C614 C613 1.523 . S
H615 C590 0.950 . S
H616 C592 0.950 . S
H617 C593 0.949 . S
H618 C595 0.950 . S
H619 C597 0.950 . S
C620 C621 1.349 . S
C620 C622 1.327 . S
C620 H645 0.950 . S
C621 C620 1.349 . S
C621 C637 1.349 . S
C622 C620 1.327 . S
C622 C641 1.429 . S
C622 H646 0.950 . S
C623 C640 1.574 . S
C623 C642 1.368 1_556 S
C623 H647 0.949 . S
H624 C628 0.949 . S
C625 C626 1.349 . S
C625 C627 1.327 . S
C625 H648 0.950 . S
C626 C625 1.349 . S
C626 C638 1.349 . S
C627 C625 1.327 . S
C627 C643 1.429 . S
C627 H649 0.950 . S
C628 H624 0.949 . S
C628 C636 1.574 1_556 S
C628 C644 1.368 . S
H629 C637 0.950 . S
H630 C635 0.950 . S
H631 C636 0.949 . S
H632 C638 0.950 . S
H633 C639 0.950 . S
H634 C640 0.949 . S
C635 H630 0.950 . S
C635 C637 1.327 . S
C635 C641 1.429 . S
C636 C628 1.574 1_554 S
C636 H631 0.949 . S
C636 C642 1.368 . S
C637 C621 1.349 . S
C637 H629 0.950 . S
C637 C635 1.327 . S
C638 C626 1.349 . S
C638 H632 0.950 . S
C638 C639 1.327 . S
C639 H633 0.950 . S
C639 C638 1.327 . S
C639 C643 1.429 . S
C640 C623 1.574 . S
C640 H634 0.949 . S
C640 C644 1.368 . S
C641 C622 1.429 . S
C641 C635 1.429 . S
C641 C642 1.523 . S
C642 C623 1.368 1_554 S
C642 C636 1.368 . S
C642 C641 1.523 . S
C643 C627 1.429 . S
C643 C639 1.429 . S
C643 C644 1.523 . S
C644 C628 1.368 . S
C644 C640 1.368 . S
C644 C643 1.523 . S
H645 C620 0.950 . S
H646 C622 0.950 . S
H647 C623 0.949 . S
H648 C625 0.950 . S
H649 C627 0.950 . S
C650 C651 1.349 . S
C650 C652 1.327 . S
C650 H675 0.950 . S
C651 C650 1.349 . S
C651 C667 1.349 . S
C652 C650 1.327 . S
C652 C671 1.429 . S
C652 H676 0.950 . S
C653 C670 1.574 1_554 S
C653 C672 1.368 . S
C653 H677 0.949 . S
H654 C658 0.949 . S
C655 C656 1.349 1_455 S
C655 C657 1.327 . S
C655 H678 0.950 . S
C656 C655 1.349 1_655 S
C656 C668 1.349 . S
C657 C655 1.327 . S
C657 C673 1.429 1_455 S
C657 H679 0.950 . S
C658 H654 0.949 . S
C658 C666 1.574 . S
C658 C674 1.368 . S
H659 C667 0.950 . S
H660 C665 0.950 . S
H661 C666 0.949 . S
H662 C668 0.950 . S
H663 C669 0.950 . S
H664 C670 0.949 1_455 S
C665 H660 0.950 . S
C665 C667 1.327 . S
C665 C671 1.429 . S
C666 C658 1.574 . S
C666 H661 0.949 . S
C666 C672 1.368 1_556 S
C667 C651 1.349 . S
C667 H659 0.950 . S
C667 C665 1.327 . S
C668 C656 1.349 . S
C668 H662 0.950 . S
C668 C669 1.327 . S
C669 H663 0.950 . S
C669 C668 1.327 . S
C669 C673 1.429 . S
C670 C653 1.574 1_556 S
C670 H664 0.949 1_655 S
C670 C674 1.368 . S
C671 C652 1.429 . S
C671 C665 1.429 . S
C671 C672 1.523 . S
C672 C653 1.368 . S
C672 C666 1.368 1_554 S
C672 C671 1.523 . S
C673 C657 1.429 1_655 S
C673 C669 1.429 . S
C673 C674 1.523 . S
C674 C658 1.368 . S
C674 C670 1.368 . S
C674 C673 1.523 . S
H675 C650 0.950 . S
H676 C652 0.950 . S
H677 C653 0.949 . S
H678 C655 0.950 . S
H679 C657 0.950 . S
C680 C681 1.349 . S
C680 C682 1.327 . S
C680 H705 0.950 1_554 S
C681 C680 1.349 . S
C681 C697 1.349 . S
C682 C680 1.327 . S
C682 C701 1.429 . S
C682 H706 0.950 . S
C683 C700 1.574 . S
C683 C702 1.368 . S
C683 H707 0.949 . S
H684 C688 0.949 . S
C685 C686 1.349 . S
C685 C687 1.327 . S
C685 H708 0.950 . S
C686 C685 1.349 . S
C686 C698 1.349 1_455 S
C687 C685 1.327 . S
C687 C703 1.429 . S
C687 H709 0.950 . S
C688 H684 0.949 . S
C688 C696 1.574 . S
C688 C704 1.368 . S
H689 C697 0.950 . S
H690 C695 0.950 . S
H691 C696 0.949 . S
H692 C698 0.950 . S
H693 C699 0.949 1_655 S
H694 C700 0.949 . S
C695 H690 0.950 . S
C695 C697 1.327 . S
C695 C701 1.429 . S
C696 C688 1.574 . S
C696 H691 0.949 . S
C696 C702 1.368 . S
C697 C681 1.349 . S
C697 H689 0.950 . S
C697 C695 1.327 . S
C698 C686 1.349 1_655 S
C698 H692 0.950 . S
C698 C699 1.327 1_655 S
C699 H693 0.949 1_455 S
C699 C698 1.327 1_455 S
C699 C703 1.429 . S
C700 C683 1.574 . S
C700 H694 0.949 . S
C700 C704 1.368 . S
C701 C682 1.429 . S
C701 C695 1.429 . S
C701 C702 1.523 . S
C702 C683 1.368 . S
C702 C696 1.368 . S
C702 C701 1.523 . S
C703 C687 1.429 . S
C703 C699 1.429 . S
C703 C704 1.523 . S
C704 C688 1.368 . S
C704 C700 1.368 . S
C704 C703 1.523 . S
H705 C680 0.950 1_556 S
H706 C682 0.950 . S
H707 C683 0.949 . S
H708 C685 0.950 . S
H709 C687 0.950 . S
C710 C711 1.349 . S
C710 C712 1.327 . S
C710 H735 0.950 . S
C711 C710 1.349 . S
C711 C727 1.349 . S
C712 C710 1.327 . S
C712 C731 1.429 . S
C712 H736 0.950 . S
C713 C730 1.574 . S
C713 C732 1.368 . S
C713 H737 0.949 . S
H714 C718 0.949 . S
C715 C716 1.349 1_565 S
C715 C717 1.341 . S
C715 H738 0.950 . S
C716 C715 1.349 1_545 S
C716 C728 1.349 . S
C717 C715 1.341 . S
C717 C733 1.384 1_565 S
C717 H739 0.982 . S
C718 H714 0.949 . S
C718 C726 1.574 . S
C718 C734 1.368 . S
H719 C727 0.950 . S
H720 C725 0.950 . S
H721 C726 0.949 . S
H722 C728 0.950 . S
H723 C729 0.950 . S
H724 C730 0.949 1_565 S
C725 H720 0.950 . S
C725 C727 1.327 . S
C725 C731 1.429 . S
C726 C718 1.574 . S
C726 H721 0.949 . S
C726 C732 1.368 . S
C727 C711 1.349 . S
C727 H719 0.950 . S
C727 C725 1.327 . S
C728 C716 1.349 . S
C728 H722 0.950 . S
C728 C729 1.327 . S
C729 H723 0.950 . S
C729 C728 1.327 . S
C729 C733 1.429 . S
C730 C713 1.574 . S
C730 H724 0.949 1_545 S
C730 C734 1.368 . S
C731 C712 1.429 . S
C731 C725 1.429 . S
C731 C732 1.523 . S
C732 C713 1.368 . S
C732 C726 1.368 . S
C732 C731 1.523 . S
C733 C717 1.384 1_545 S
C733 C729 1.429 . S
C733 C734 1.523 . S
C734 C718 1.368 . S
C734 C730 1.368 . S
C734 C733 1.523 . S
H735 C710 0.950 . S
H736 C712 0.950 . S
H737 C713 0.949 . S
H738 C715 0.950 . S
H739 C717 0.982 . S
C740 C741 1.349 . S
C740 C742 1.327 . S
C740 H765 0.950 . S
C741 C740 1.349 . S
C741 C757 1.349 . S
C742 C740 1.327 . S
C742 C761 1.429 . S
C742 H766 0.950 . S
C743 C760 1.574 . S
C743 C762 1.368 . S
C743 H767 0.949 . S
H744 C748 0.949 . S
C745 C746 1.349 . S
C745 C747 1.327 . S
C745 H768 0.950 . S
C746 C745 1.349 . S
C746 C758 1.349 . S
C747 C745 1.327 . S
C747 C763 1.429 . S
C747 H769 0.950 . S
C748 H744 0.949 . S
C748 C756 1.574 . S
C748 C764 1.368 . S
H749 C757 0.950 . S
H750 C755 0.950 . S
H751 C756 0.949 . S
H752 C758 0.950 . S
H753 C759 0.950 . S
H754 C760 0.949 . S
C755 H750 0.950 . S
C755 C757 1.327 . S
C755 C761 1.429 . S
C756 C748 1.574 . S
C756 H751 0.949 . S
C756 C762 1.368 . S
C757 C741 1.349 . S
C757 H749 0.950 . S
C757 C755 1.327 . S
C758 C746 1.349 . S
C758 H752 0.950 . S
C758 C759 1.327 . S
C759 H753 0.950 . S
C759 C758 1.327 . S
C759 C763 1.429 . S
C760 C743 1.574 . S
C760 H754 0.949 . S
C760 C764 1.368 . S
C761 C742 1.429 . S
C761 C755 1.429 . S
C761 C762 1.523 . S
C762 C743 1.368 . S
C762 C756 1.368 . S
C762 C761 1.523 . S
C763 C747 1.429 . S
C763 C759 1.429 . S
C763 C764 1.523 . S
C764 C748 1.368 . S
C764 C760 1.368 . S
C764 C763 1.523 . S
H765 C740 0.950 . S
H766 C742 0.950 . S
H767 C743 0.949 . S
H768 C745 0.950 . S
H769 C747 0.950 . S
C770 C771 1.349 . S
C770 C772 1.327 . S
C770 H795 0.950 . S
C771 C770 1.349 . S
C771 C787 1.349 . S
C772 C770 1.327 . S
C772 C791 1.429 . S
C772 H796 0.950 . S
C773 C790 1.574 . S
C773 C792 1.368 . S
C773 H797 0.949 . S
H774 C778 0.949 . S
C775 C776 1.349 . S
C775 C777 1.327 . S
C775 H798 0.950 . S
C776 C775 1.349 . S
C776 C788 1.349 . S
C777 C775 1.327 . S
C777 C793 1.429 . S
C777 H799 0.950 . S
C778 H774 0.949 . S
C778 C786 1.574 . S
C778 C794 1.368 . S
H779 C787 0.950 1_556 S
H780 C785 0.950 . S
H781 C786 0.949 . S
H782 C788 0.950 . S
H783 C789 0.950 . S
H784 C790 0.949 . S
C785 H780 0.950 . S
C785 C787 1.327 . S
C785 C791 1.429 . S
C786 C778 1.574 . S
C786 H781 0.949 . S
C786 C792 1.368 . S
C787 C771 1.349 . S
C787 H779 0.950 1_554 S
C787 C785 1.327 . S
C788 C776 1.349 . S
C788 H782 0.950 . S
C788 C789 1.327 . S
C789 H783 0.950 . S
C789 C788 1.327 . S
C789 C793 1.429 . S
C790 C773 1.574 . S
C790 H784 0.949 . S
C790 C794 1.368 . S
C791 C772 1.429 . S
C791 C785 1.429 . S
C791 C792 1.523 . S
C792 C773 1.368 . S
C792 C786 1.368 . S
C792 C791 1.523 . S
C793 C777 1.429 . S
C793 C789 1.429 . S
C793 C794 1.523 . S
C794 C778 1.368 . S
C794 C790 1.368 . S
C794 C793 1.523 . S
H795 C770 0.950 . S
H796 C772 0.950 . S
H797 C773 0.949 . S
H798 C775 0.950 . S
H799 C777 0.950 . S
C800 C801 1.349 . S
C800 C802 1.327 . S
C800 H825 0.950 . S
C801 C800 1.349 . S
C801 C817 1.349 . S
C802 C800 1.327 . S
C802 C821 1.429 . S
C802 H826 0.950 . S
C803 C820 1.574 1_554 S
C803 C822 1.368 . S
C803 H827 0.949 . S
H804 C808 0.949 . S
C805 C806 1.349 . S
C805 C807 1.327 . S
C805 H828 0.950 . S
C806 C805 1.349 . S
C806 C818 1.349 1_455 S
C807 C805 1.327 . S
C807 C823 1.429 1_455 S
C807 H829 0.950 . S
C808 H804 0.949 . S
C808 C816 1.574 . S
C808 C824 1.368 . S
H809 C817 0.950 . S
H810 C815 0.950 . S
H811 C816 0.949 . S
H812 C818 0.950 . S
H813 C819 0.950 . S
H814 C820 0.949 . S
C815 H810 0.950 . S
C815 C817 1.327 . S
C815 C821 1.429 . S
C816 C808 1.574 . S
C816 H811 0.949 . S
C816 C822 1.368 . S
C817 C801 1.349 . S
C817 H809 0.950 . S
C817 C815 1.327 . S
C818 C806 1.349 1_655 S
C818 H812 0.950 . S
C818 C819 1.327 1_556 S
C819 H813 0.950 . S
C819 C818 1.327 1_554 S
C819 C823 1.429 1_554 S
C820 C803 1.574 1_556 S
C820 H814 0.949 . S
C820 C824 1.368 1_556 S
C821 C802 1.429 . S
C821 C815 1.429 . S
C821 C822 1.523 . S
C822 C803 1.368 . S
C822 C816 1.368 . S
C822 C821 1.523 . S
C823 C807 1.429 1_655 S
C823 C819 1.429 1_556 S
C823 C824 1.523 1_556 S
C824 C808 1.368 . S
C824 C820 1.368 1_554 S
C824 C823 1.523 1_554 S
H825 C800 0.950 . S
H826 C802 0.950 . S
H827 C803 0.949 . S
H828 C805 0.950 . S
H829 C807 0.950 . S
C830 C831 1.349 . S
C830 C832 1.327 . S
C830 H855 0.950 . S
C831 C830 1.349 . S
C831 C847 1.349 . S
C832 C830 1.327 . S
C832 C851 1.429 . S
C832 H856 0.950 . S
C833 C850 1.574 1_565 S
C833 C852 1.368 . S
C833 H857 0.949 1_565 S
H834 C838 0.949 . S
C835 C836 1.349 . S
C835 C837 1.327 . S
C835 H858 0.950 . S
C836 C835 1.349 . S
C836 C848 1.349 1_545 S
C837 C835 1.327 . S
C837 C853 1.429 1_545 S
C837 H859 0.950 . S
C838 H834 0.949 . S
C838 C846 1.574 . S
C838 C854 1.368 . S
H839 C847 0.950 . S
H840 C845 0.950 . S
H841 C846 0.949 . S
H842 C848 0.950 . S
H843 C849 0.950 . S
H844 C850 0.949 . S
C845 H840 0.950 . S
C845 C847 1.327 . S
C845 C851 1.429 . S
C846 C838 1.574 . S
C846 H841 0.949 . S
C846 C852 1.368 . S
C847 C831 1.349 . S
C847 H839 0.950 . S
C847 C845 1.327 . S
C848 C836 1.349 1_565 S
C848 H842 0.950 . S
C848 C849 1.327 . S
C849 H843 0.950 . S
C849 C848 1.327 . S
C849 C853 1.429 . S
C850 C833 1.574 1_545 S
C850 H844 0.949 . S
C850 C854 1.368 1_545 S
C851 C832 1.429 . S
C851 C845 1.429 . S
C851 C852 1.523 . S
C852 C833 1.368 . S
C852 C846 1.368 . S
C852 C851 1.523 . S
C853 C837 1.429 1_565 S
C853 C849 1.429 . S
C853 C854 1.523 1_556 S
C854 C838 1.368 . S
C854 C850 1.368 1_565 S
C854 C853 1.523 1_554 S
H855 C830 0.950 . S
H856 C832 0.950 . S
H857 C833 0.949 1_545 S
H858 C835 0.950 . S
H859 C837 0.950 . S
C860 C861 1.349 . S
C860 C862 1.327 . S
C860 H885 0.950 . S
C861 C860 1.349 . S
C861 C877 1.349 . S
C862 C860 1.327 . S
C862 C881 1.429 . S
C862 H886 0.950 . S
C863 C880 1.574 . S
C863 C882 1.368 . S
C863 H887 0.949 . S
H864 C868 0.949 . S
C865 C866 1.349 . S
C865 C867 1.327 1_556 S
C865 H888 0.950 1_556 S
C866 C865 1.349 . S
C866 C878 1.349 . S
C867 C865 1.327 1_554 S
C867 C883 1.429 1_554 S
C867 H889 0.950 . S
C868 H864 0.949 . S
C868 C876 1.574 1_556 S
C868 C884 1.368 1_556 S
H869 C877 0.950 . S
H870 C875 0.950 . S
H871 C876 0.949 . S
H872 C878 0.950 . S
H873 C879 0.950 . S
H874 C880 0.949 . S
C875 H870 0.950 . S
C875 C877 1.327 . S
C875 C881 1.429 . S
C876 C868 1.574 1_554 S
C876 H871 0.949 . S
C876 C882 1.368 . S
C877 C861 1.349 . S
C877 H869 0.950 . S
C877 C875 1.327 . S
C878 C866 1.349 . S
C878 H872 0.950 . S
C878 C879 1.327 . S
C879 H873 0.950 . S
C879 C878 1.327 . S
C879 C883 1.429 . S
C880 C863 1.574 . S
C880 H874 0.949 . S
C880 C884 1.368 . S
C881 C862 1.429 . S
C881 C875 1.429 . S
C881 C882 1.523 . S
C882 C863 1.368 . S
C882 C876 1.368 . S
C882 C881 1.523 . S
C883 C867 1.429 1_556 S
C883 C879 1.429 . S
C883 C884 1.523 1_556 S
C884 C868 1.368 1_554 S
C884 C880 1.368 . S
C884 C883 1.523 1_554 S
H885 C860 0.950 . S
H886 C862 0.950 . S
H887 C863 0.949 . S
H888 C865 0.950 1_554 S
H889 C867 0.950 . S
C890 C891 1.349 . S
C890 C892 1.327 . S
C890 H915 0.950 . S
C891 C890 1.349 . S
C891 C907 1.349 . S
C892 C890 1.327 . S
C892 C911 1.429 . S
C892 H916 0.950 . S
C893 C910 1.574 . S
C893 C912 1.368 . S
C893 H917 0.949 . S
H894 C898 0.949 . S
C895 C896 1.349 . S
C895 C897 1.327 1_556 S
C895 H918 0.950 1_556 S
C896 C895 1.349 . S
C896 C908 1.349 . S
C897 C895 1.327 1_554 S
C897 C913 1.429 1_554 S
C897 H919 0.950 . S
C898 H894 0.949 . S
C898 C906 1.574 1_556 S
C898 C914 1.368 1_556 S
H899 C907 0.950 . S
H900 C905 0.950 . S
H901 C906 0.949 . S
H902 C908 0.950 . S
H903 C909 0.950 . S
H904 C910 0.949 . S
C905 H900 0.950 . S
C905 C907 1.327 . S
C905 C911 1.429 . S
C906 C898 1.574 1_554 S
C906 H901 0.949 . S
C906 C912 1.368 . S
C907 C891 1.349 . S
C907 H899 0.950 . S
C907 C905 1.327 . S
C908 C896 1.349 . S
C908 H902 0.950 . S
C908 C909 1.327 . S
C909 H903 0.950 . S
C909 C908 1.327 . S
C909 C913 1.429 . S
C910 C893 1.574 . S
C910 H904 0.949 . S
C910 C914 1.368 . S
C911 C892 1.429 . S
C911 C905 1.429 . S
C911 C912 1.523 . S
C912 C893 1.368 . S
C912 C906 1.368 . S
C912 C911 1.523 . S
C913 C897 1.429 1_556 S
C913 C909 1.429 . S
C913 C914 1.523 1_556 S
C914 C898 1.368 1_554 S
C914 C910 1.368 . S
C914 C913 1.523 1_554 S
H915 C890 0.950 . S
H916 C892 0.950 . S
H917 C893 0.949 . S
H918 C895 0.950 1_554 S
H919 C897 0.950 . S
C920 C921 1.349 . S
C920 C922 1.327 . S
C920 H945 0.950 . S
C921 C920 1.349 . S
C921 C937 1.349 . S
C922 C920 1.327 . S
C922 C941 1.429 . S
C922 H946 0.950 . S
C923 C940 1.574 . S
C923 C942 1.368 . S
C923 H947 0.949 . S
H924 C928 0.949 . S
C925 C926 1.349 . S
C925 C927 1.327 . S
C925 H948 0.950 . S
C926 C925 1.349 . S
C926 C938 1.349 . S
C927 C925 1.327 . S
C927 C943 1.429 . S
C927 H949 0.950 . S
C928 H924 0.949 . S
C928 C936 1.574 . S
C928 C944 1.368 . S
H929 C937 0.950 . S
H930 C935 0.950 . S
H931 C936 0.949 . S
H932 C938 0.950 . S
H933 C939 0.950 . S
H934 C940 0.949 . S
C935 H930 0.950 . S
C935 C937 1.327 . S
C935 C941 1.429 . S
C936 C928 1.574 . S
C936 H931 0.949 . S
C936 C942 1.368 . S
C937 C921 1.349 . S
C937 H929 0.950 . S
C937 C935 1.327 . S
C938 C926 1.349 . S
C938 H932 0.950 . S
C938 C939 1.327 . S
C939 H933 0.950 . S
C939 C938 1.327 . S
C939 C943 1.429 . S
C940 C923 1.574 . S
C940 H934 0.949 . S
C940 C944 1.368 . S
C941 C922 1.429 . S
C941 C935 1.429 . S
C941 C942 1.523 . S
C942 C923 1.368 . S
C942 C936 1.368 . S
C942 C941 1.523 . S
C943 C927 1.429 . S
C943 C939 1.429 . S
C943 C944 1.523 . S
C944 C928 1.368 . S
C944 C940 1.368 . S
C944 C943 1.523 . S
H945 C920 0.950 . S
H946 C922 0.950 . S
H947 C923 0.949 . S
H948 C925 0.950 . S
H949 C927 0.950 . S
C950 C951 1.349 . S
C950 C952 1.327 . S
C950 H975 0.950 . S
C951 C950 1.349 . S
C951 C967 1.349 . S
C952 C950 1.327 . S
C952 C971 1.429 . S
C952 H976 0.950 . S
C953 C970 1.574 . S
C953 C972 1.368 . S
C953 H977 0.949 . S
H954 C958 0.949 . S
C955 C956 1.349 . S
C955 C957 1.327 . S
C955 H978 0.950 1_545 S
C956 C955 1.349 . S
C956 C968 1.349 . S
C957 C955 1.327 . S
C957 C973 1.429 . S
C957 H979 0.950 . S
C958 H954 0.949 . S
C958 C966 1.574 . S
C958 C974 1.368 . S
H959 C967 0.950 . S
H960 C965 0.950 . S
H961 C966 0.949 . S
H962 C968 0.950 . S
H963 C969 0.950 . S
H964 C970 0.949 . S
C965 H960 0.950 . S
C965 C967 1.327 . S
C965 C971 1.429 . S
C966 C958 1.574 . S
C966 H961 0.949 . S
C966 C972 1.368 . S
C967 C951 1.349 . S
C967 H959 0.950 . S
C967 C965 1.327 . S
C968 C956 1.349 . S
C968 H962 0.950 . S
C968 C969 1.327 . S
C969 H963 0.950 . S
C969 C968 1.327 . S
C969 C973 1.429 . S
C970 C953 1.574 . S
C970 H964 0.949 . S
C970 C974 1.368 . S
C971 C952 1.429 . S
C971 C965 1.429 . S
C971 C972 1.523 . S
C972 C953 1.368 . S
C972 C966 1.368 . S
C972 C971 1.523 . S
C973 C957 1.429 . S
C973 C969 1.429 . S
C973 C974 1.523 . S
C974 C958 1.368 . S
C974 C970 1.368 . S
C974 C973 1.523 . S
H975 C950 0.950 . S
H976 C952 0.950 . S
H977 C953 0.949 . S
H978 C955 0.950 1_565 S
H979 C957 0.950 . S
C980 C981 1.349 . S
C980 C982 1.327 . S
C980 H1005 0.950 . S
C981 C980 1.349 . S
C981 C997 1.349 . S
C982 C980 1.327 . S
C982 C1001 1.429 . S
C982 H1006 0.950 . S
C983 C1000 1.574 . S
C983 C1002 1.368 . S
C983 H1007 0.949 . S
H984 C988 0.949 . S
C985 C986 1.349 . S
C985 C987 1.327 . S
C985 H1008 0.950 . S
C986 C985 1.349 . S
C986 C998 1.349 . S
C987 C985 1.327 . S
C987 C1003 1.429 . S
C987 H1009 0.950 . S
C988 H984 0.949 . S
C988 C996 1.574 . S
C988 C1004 1.368 . S
H989 C997 0.950 . S
H990 C995 0.950 . S
H991 C996 0.949 . S
H992 C998 0.950 . S
H993 C999 0.950 . S
H994 C1000 0.949 . S
C995 H990 0.950 . S
C995 C997 1.327 . S
C995 C1001 1.429 . S
C996 C988 1.574 . S
C996 H991 0.949 . S
C996 C1002 1.368 . S
C997 C981 1.349 . S
C997 H989 0.950 . S
C997 C995 1.327 . S
C998 C986 1.349 . S
C998 H992 0.950 . S
C998 C999 1.327 . S
C999 H993 0.950 . S
C999 C998 1.327 . S
C999 C1003 1.429 . S
C1000 C983 1.574 . S
C1000 H994 0.949 . S
C1000 C1004 1.368 . S
C1001 C982 1.429 . S
C1001 C995 1.429 . S
C1001 C1002 1.523 . S
C1002 C983 1.368 . S
C1002 C996 1.368 . S
C1002 C1001 1.523 . S
C1003 C987 1.429 . S
C1003 C999 1.429 . S
C1003 C1004 1.523 . S
C1004 C988 1.368 . S
C1004 C1000 1.368 . S
C1004 C1003 1.523 . S
H1005 C980 0.950 . S
H1006 C982 0.950 . S
H1007 C983 0.949 . S
H1008 C985 0.950 . S
H1009 C987 0.950 . S
C1010 C1011 1.349 . S
C1010 C1012 1.327 . S
C1010 H1035 0.950 . S
C1011 C1010 1.349 . S
C1011 C1027 1.349 . S
C1012 C1010 1.327 . S
C1012 C1031 1.429 . S
C1012 H1036 0.950 . S
C1013 C1030 1.574 . S
C1013 C1032 1.368 . S
C1013 H1037 0.949 . S
H1014 C1018 0.949 . S
C1015 C1016 1.349 . S
C1015 C1017 1.327 . S
C1015 H1038 0.950 . S
C1016 C1015 1.349 . S
C1016 C1028 1.349 . S
C1017 C1015 1.327 . S
C1017 C1033 1.429 . S
C1017 H1039 0.950 . S
C1018 H1014 0.949 . S
C1018 C1026 1.574 . S
C1018 C1034 1.368 . S
H1019 C1027 0.950 1_554 S
H1020 C1025 0.950 . S
H1021 C1026 0.949 . S
H1022 C1028 0.950 . S
H1023 C1029 0.950 . S
H1024 C1030 0.949 . S
C1025 H1020 0.950 . S
C1025 C1027 1.327 . S
C1025 C1031 1.429 . S
C1026 C1018 1.574 . S
C1026 H1021 0.949 . S
C1026 C1032 1.368 . S
C1027 C1011 1.349 . S
C1027 H1019 0.950 1_556 S
C1027 C1025 1.327 . S
C1028 C1016 1.349 . S
C1028 H1022 0.950 . S
C1028 C1029 1.327 . S
C1029 H1023 0.950 . S
C1029 C1028 1.327 . S
C1029 C1033 1.429 . S
C1030 C1013 1.574 . S
C1030 H1024 0.949 . S
C1030 C1034 1.368 . S
C1031 C1012 1.429 . S
C1031 C1025 1.429 . S
C1031 C1032 1.523 . S
C1032 C1013 1.368 . S
C1032 C1026 1.368 . S
C1032 C1031 1.523 . S
C1033 C1017 1.429 . S
C1033 C1029 1.429 . S
C1033 C1034 1.523 . S
C1034 C1018 1.368 . S
C1034 C1030 1.368 . S
C1034 C1033 1.523 . S
H1035 C1010 0.950 . S
H1036 C1012 0.950 . S
H1037 C1013 0.949 . S
H1038 C1015 0.950 . S
H1039 C1017 0.950 . S
C1040 C1041 1.349 . S
C1040 C1042 1.327 . S
C1040 H1065 0.950 . S
C1041 C1040 1.349 . S
C1041 C1057 1.349 . S
C1042 C1040 1.327 . S
C1042 C1061 1.429 . S
C1042 H1066 0.950 . S
C1043 C1060 1.574 . S
C1043 C1062 1.368 . S
C1043 H1067 0.949 . S
H1044 C1048 0.949 . S
C1045 C1046 1.349 . S
C1045 C1047 1.327 . S
C1045 H1068 0.950 . S
C1046 C1045 1.349 . S
C1046 C1058 1.349 . S
C1047 C1045 1.327 . S
C1047 C1063 1.429 . S
C1047 H1069 0.950 . S
C1048 H1044 0.949 . S
C1048 C1056 1.574 . S
C1048 C1064 1.368 . S
H1049 C1057 0.950 . S
H1050 C1055 0.950 . S
H1051 C1056 0.949 . S
H1052 C1058 0.950 1_455 S
H1053 C1059 0.950 . S
H1054 C1060 0.949 . S
C1055 H1050 0.950 . S
C1055 C1057 1.327 . S
C1055 C1061 1.429 . S
C1056 C1048 1.574 . S
C1056 H1051 0.949 . S
C1056 C1062 1.368 . S
C1057 C1041 1.349 . S
C1057 H1049 0.950 . S
C1057 C1055 1.327 . S
C1058 C1046 1.349 . S
C1058 H1052 0.950 1_655 S
C1058 C1059 1.327 . S
C1059 H1053 0.950 . S
C1059 C1058 1.327 . S
C1059 C1063 1.429 . S
C1060 C1043 1.574 . S
C1060 H1054 0.949 . S
C1060 C1064 1.368 . S
C1061 C1042 1.429 . S
C1061 C1055 1.429 . S
C1061 C1062 1.523 . S
C1062 C1043 1.368 . S
C1062 C1056 1.368 . S
C1062 C1061 1.523 . S
C1063 C1047 1.429 . S
C1063 C1059 1.429 . S
C1063 C1064 1.523 . S
C1064 C1048 1.368 . S
C1064 C1060 1.368 . S
C1064 C1063 1.523 . S
H1065 C1040 0.950 . S
H1066 C1042 0.950 . S
H1067 C1043 0.949 . S
H1068 C1045 0.950 . S
H1069 C1047 0.950 . S
C1070 C1071 1.349 . S
C1070 C1072 1.327 . S
C1070 H1095 0.950 . S
C1071 C1070 1.349 . S
C1071 C1087 1.349 . S
C1072 C1070 1.327 . S
C1072 C1091 1.429 . S
C1072 H1096 0.981 . S
C1073 C1090 1.574 . S
C1073 C1092 1.368 . S
C1073 H1097 0.949 . S
H1074 C1078 0.949 1_545 S
C1075 C1076 1.349 . S
C1075 C1077 1.327 . S
C1075 H1098 0.950 . S
C1076 C1075 1.349 . S
C1076 C1088 1.349 1_565 S
C1077 C1075 1.327 . S
C1077 C1093 1.429 . S
C1077 H1099 0.950 . S
C1078 H1074 0.949 1_565 S
C1078 C1086 1.574 . S
C1078 C1094 1.368 . S
H1079 C1087 0.950 . S
H1080 C1085 0.950 . S
H1081 C1086 0.949 1_545 S
H1082 C1088 0.950 . S
H1083 C1089 0.950 . S
H1084 C1090 0.949 . S
C1085 H1080 0.950 . S
C1085 C1087 1.327 . S
C1085 C1091 1.429 . S
C1086 C1078 1.574 . S
C1086 H1081 0.949 1_565 S
C1086 C1092 1.368 . S
C1087 C1071 1.349 . S
C1087 H1079 0.950 . S
C1087 C1085 1.327 . S
C1088 C1076 1.349 1_545 S
C1088 H1082 0.950 . S
C1088 C1089 1.327 . S
C1089 H1083 0.950 . S
C1089 C1088 1.327 . S
C1089 C1093 1.429 1_545 S
C1090 C1073 1.574 . S
C1090 H1084 0.949 . S
C1090 C1094 1.368 . S
C1091 C1072 1.429 . S
C1091 C1085 1.429 . S
C1091 C1092 1.523 . S
C1092 C1073 1.368 . S
C1092 C1086 1.368 . S
C1092 C1091 1.523 . S
C1093 C1077 1.429 . S
C1093 C1089 1.429 1_565 S
C1093 C1094 1.523 . S
C1094 C1078 1.368 . S
C1094 C1090 1.368 . S
C1094 C1093 1.523 . S
H1095 C1070 0.950 . S
H1096 C1072 0.981 . S
H1097 C1073 0.949 . S
H1098 C1075 0.950 . S
H1099 C1077 0.950 . S
C1100 C1101 1.349 . S
C1100 C1102 1.327 . S
C1100 H1125 0.950 . S
C1101 C1100 1.349 . S
C1101 C1117 1.349 . S
C1102 C1100 1.327 . S
C1102 C1121 1.429 . S
C1102 H1126 0.950 . S
C1103 C1120 1.574 . S
C1103 C1122 1.368 . S
C1103 H1127 0.949 . S
H1104 C1108 0.949 . S
C1105 C1106 1.349 . S
C1105 C1107 1.327 . S
C1105 H1128 0.950 . S
C1106 C1105 1.349 . S
C1106 C1118 1.349 . S
C1107 C1105 1.327 . S
C1107 C1123 1.429 . S
C1107 H1129 0.950 . S
C1108 H1104 0.949 . S
C1108 C1116 1.574 . S
C1108 C1124 1.368 . S
H1109 C1117 0.950 . S
H1110 C1115 0.950 . S
H1111 C1116 0.949 . S
H1112 C1118 0.950 . S
H1113 C1119 0.950 . S
H1114 C1120 0.949 . S
C1115 H1110 0.950 . S
C1115 C1117 1.327 . S
C1115 C1121 1.429 . S
C1116 C1108 1.574 . S
C1116 H1111 0.949 . S
C1116 C1122 1.368 . S
C1117 C1101 1.349 . S
C1117 H1109 0.950 . S
C1117 C1115 1.327 . S
C1118 C1106 1.349 . S
C1118 H1112 0.950 . S
C1118 C1119 1.327 . S
C1119 H1113 0.950 . S
C1119 C1118 1.327 . S
C1119 C1123 1.429 . S
C1120 C1103 1.574 . S
C1120 H1114 0.949 . S
C1120 C1124 1.368 . S
C1121 C1102 1.429 . S
C1121 C1115 1.429 . S
C1121 C1122 1.523 . S
C1122 C1103 1.368 . S
C1122 C1116 1.368 . S
C1122 C1121 1.523 . S
C1123 C1107 1.429 . S
C1123 C1119 1.429 . S
C1123 C1124 1.523 . S
C1124 C1108 1.368 . S
C1124 C1120 1.368 . S
C1124 C1123 1.523 . S
H1125 C1100 0.950 . S
H1126 C1102 0.950 . S
H1127 C1103 0.949 . S
H1128 C1105 0.950 . S
H1129 C1107 0.950 . S
C1130 C1131 1.349 . S
C1130 C1132 1.327 . S
C1130 H1155 0.950 . S
C1131 C1130 1.349 . S
C1131 C1147 1.349 . S
C1132 C1130 1.327 . S
C1132 C1151 1.429 . S
C1132 H1156 0.950 . S
C1133 C1150 1.574 . S
C1133 C1152 1.368 . S
C1133 H1157 0.949 . S
H1134 C1138 0.949 . S
C1135 C1136 1.349 . S
C1135 C1137 1.327 . S
C1135 H1158 0.950 . S
C1136 C1135 1.349 . S
C1136 C1148 1.349 . S
C1137 C1135 1.327 . S
C1137 C1153 1.429 . S
C1137 H1159 0.950 . S
C1138 H1134 0.949 . S
C1138 C1146 1.574 . S
C1138 C1154 1.368 . S
H1139 C1147 0.950 . S
H1140 C1145 0.950 . S
H1141 C1146 0.949 . S
H1142 C1148 0.950 . S
H1143 C1149 0.950 . S
H1144 C1150 0.949 . S
C1145 H1140 0.950 . S
C1145 C1147 1.327 . S
C1145 C1151 1.429 . S
C1146 C1138 1.574 . S
C1146 H1141 0.949 . S
C1146 C1152 1.368 . S
C1147 C1131 1.349 . S
C1147 H1139 0.950 . S
C1147 C1145 1.327 . S
C1148 C1136 1.349 . S
C1148 H1142 0.950 . S
C1148 C1149 1.327 . S
C1149 H1143 0.950 . S
C1149 C1148 1.327 . S
C1149 C1153 1.429 . S
C1150 C1133 1.574 . S
C1150 H1144 0.949 . S
C1150 C1154 1.368 . S
C1151 C1132 1.429 . S
C1151 C1145 1.429 . S
C1151 C1152 1.523 . S
C1152 C1133 1.368 . S
C1152 C1146 1.368 . S
C1152 C1151 1.523 . S
C1153 C1137 1.429 . S
C1153 C1149 1.429 . S
C1153 C1154 1.523 . S
C1154 C1138 1.368 . S
C1154 C1150 1.368 . S
C1154 C1153 1.523 . S
H1155 C1130 0.950 . S
H1156 C1132 0.950 . S
H1157 C1133 0.949 . S
H1158 C1135 0.950 . S
H1159 C1137 0.950 . S
C441 N80 1.844 . S
C446 C178 1.852 . S
C476 C262 1.879 . S
C471 N93 1.869 . S
C506 C328 1.905 . S
C501 N54 1.983 . S
C536 C412 1.881 . S
C531 N67 1.959 . S
C566 C167 1.852 1_565 S
C561 N28 1.853 . S
C591 N41 1.879 . S
C596 C251 1.879 . S
C621 N2 1.994 . S
C626 C339 1.905 . S
C651 N15 1.970 . S
C656 C423 1.881 . S
C686 C174 0.507 1_455 S
C681 N70 0.416 . S
C716 C258 0.497 1_545 S
C711 N83 0.384 . S
C746 C330 0.485 . S
C741 N96 0.348 . S
C771 N57 0.379 . S
C776 C414 0.492 . S
C801 N18 0.408 . S
C806 C162 0.507 . S
C836 C246 0.497 . S
C831 N31 0.375 . S
C866 C342 0.485 . S
C861 N44 0.338 . S
C891 N5 0.370 . S
C896 C426 0.492 . S
C921 N66 2.014 . S
C926 C171 1.960 . S
C951 N79 1.980 . S
C956 C255 1.927 . S
C986 C335 1.906 . S
C981 N92 1.870 . S
C1016 C419 1.938 . S
C1011 N53 1.901 . S
C1041 N14 2.031 . S
C1046 C160 1.961 . S
C1076 C244 1.928 1_565 S
C1071 N27 1.995 . S
C1106 C346 1.906 . S
C1101 N40 1.887 . S
C1131 N1 1.919 . S
C1136 C430 1.937 . S
