# Generated by pormake.
# Topology zzz, (3,6)-cn, num edge types: 1
# Building blocks:
#     Node 0, Type 0, BuildingBlock: QEWDON_clean_linker_0, # of connection points: 3
#     Node 1, Type 0, BuildingBlock: QEWDON_clean_linker_0, # of connection points: 3
#     Node 2, Type 0, BuildingBlock: QEWDON_clean_linker_0, # of connection points: 3
#     Node 3, Type 0, BuildingBlock: QEWDON_clean_linker_0, # of connection points: 3
#     Node 4, Type 0, BuildingBlock: QEWDON_clean_linker_0, # of connection points: 3
#     Node 5, Type 0, BuildingBlock: QEWDON_clean_linker_0, # of connection points: 3
#     Node 6, Type 0, BuildingBlock: QEWDON_clean_linker_0, # of connection points: 3
#     Node 7, Type 0, BuildingBlock: QEWDON_clean_linker_0, # of connection points: 3
#     Node 8, Type 1, BuildingBlock: KUMBUR_clean_sbu_1, # of connection points: 6
#     Node 9, Type 1, BuildingBlock: KUMBUR_clean_sbu_1, # of connection points: 6
#     Node 10, Type 1, BuildingBlock: KUMBUR_clean_sbu_1, # of connection points: 6
#     Node 11, Type 1, BuildingBlock: KUMBUR_clean_sbu_1, # of connection points: 6
#     Edge 12, Type (0, 1), BuildingBlock: UVAHIK_clean_linker_0, # of connection points: 2
#     Edge 13, Type (0, 1), BuildingBlock: UVAHIK_clean_linker_0, # of connection points: 2
#     Edge 14, Type (0, 1), BuildingBlock: UVAHIK_clean_linker_0, # of connection points: 2
#     Edge 15, Type (0, 1), BuildingBlock: UVAHIK_clean_linker_0, # of connection points: 2
#     Edge 16, Type (0, 1), BuildingBlock: UVAHIK_clean_linker_0, # of connection points: 2
#     Edge 17, Type (0, 1), BuildingBlock: UVAHIK_clean_linker_0, # of connection points: 2
#     Edge 18, Type (0, 1), BuildingBlock: UVAHIK_clean_linker_0, # of connection points: 2
#     Edge 19, Type (0, 1), BuildingBlock: UVAHIK_clean_linker_0, # of connection points: 2
#     Edge 20, Type (0, 1), BuildingBlock: UVAHIK_clean_linker_0, # of connection points: 2
#     Edge 21, Type (0, 1), BuildingBlock: UVAHIK_clean_linker_0, # of connection points: 2
#     Edge 22, Type (0, 1), BuildingBlock: UVAHIK_clean_linker_0, # of connection points: 2
#     Edge 23, Type (0, 1), BuildingBlock: UVAHIK_clean_linker_0, # of connection points: 2
#     Edge 24, Type (0, 1), BuildingBlock: UVAHIK_clean_linker_0, # of connection points: 2
#     Edge 25, Type (0, 1), BuildingBlock: UVAHIK_clean_linker_0, # of connection points: 2
#     Edge 26, Type (0, 1), BuildingBlock: UVAHIK_clean_linker_0, # of connection points: 2
#     Edge 27, Type (0, 1), BuildingBlock: UVAHIK_clean_linker_0, # of connection points: 2
#     Edge 28, Type (0, 1), BuildingBlock: UVAHIK_clean_linker_0, # of connection points: 2
#     Edge 29, Type (0, 1), BuildingBlock: UVAHIK_clean_linker_0, # of connection points: 2
#     Edge 30, Type (0, 1), BuildingBlock: UVAHIK_clean_linker_0, # of connection points: 2
#     Edge 31, Type (0, 1), BuildingBlock: UVAHIK_clean_linker_0, # of connection points: 2
#     Edge 32, Type (0, 1), BuildingBlock: UVAHIK_clean_linker_0, # of connection points: 2
#     Edge 33, Type (0, 1), BuildingBlock: UVAHIK_clean_linker_0, # of connection points: 2
#     Edge 34, Type (0, 1), BuildingBlock: UVAHIK_clean_linker_0, # of connection points: 2
#     Edge 35, Type (0, 1), BuildingBlock: UVAHIK_clean_linker_0, # of connection points: 2
# Relax obj value: 0.091
# Max RMSD: 0.084
# Mean RMSD: 0.034
data_MOF--net-zzz--node1-KUMBUR_clean_sbu_1--node2-QEWDON_clean_linker_0--edge1-UVAHIK_clean_linker_0
_symmetry_space_group_name_H-M    P1
_symmetry_Int_Tables_number       1
_symmetry_cell_setting            triclinic
loop_
_symmetry_equiv_pos_as_xyz
'x, y, z'
_cell_length_a     69.660783
_cell_length_b     69.688263
_cell_length_c     19.870969
_cell_angle_alpha  90.159768
_cell_angle_beta   89.93713
_cell_angle_gamma 90.27153
loop_
_atom_site_label
_atom_site_type_symbol
_atom_site_fract_x
_atom_site_fract_y
_atom_site_fract_z
_atom_type_partial_charge
H0 H 0.75424 0.55496 0.12432 0.0
C1 C 0.76485 0.54951 0.15893 0.0
C2 C 0.78342 0.55735 0.15611 0.0
C3 C 0.76 0.53505 0.20561 0.0
H4 H 0.8117 0.55717 0.20025 0.0
C5 C 0.79722 0.55145 0.20299 0.0
C6 C 0.79317 0.53746 0.25122 0.0
C7 C 0.77467 0.52885 0.25127 0.0
C8 C 0.73963 0.52705 0.20718 0.0
H9 H 0.77191 0.51751 0.28705 0.0
C10 C 0.72678 0.5281 0.15084 0.0
C11 C 0.70766 0.52096 0.15489 0.0
C12 C 0.73249 0.5188 0.26691 0.0
H13 H 0.74108 0.51824 0.31211 0.0
C14 C 0.71384 0.51151 0.27052 0.0
H15 H 0.73151 0.53401 0.10337 0.0
C16 C 0.70159 0.51251 0.21531 0.0
H17 H 0.68711 0.50696 0.22032 0.0
H18 H 0.70874 0.50523 0.31703 0.0
H19 H 0.98797 0.76605 0.08264 0.0
C20 C 0.99051 0.7764 0.12217 0.0
C21 C 0.98509 0.79535 0.10974 0.0
C22 C 0.99873 0.77101 0.18412 0.0
H23 H 0.9832 0.82397 0.14867 0.0
C24 C 0.98712 0.80928 0.15992 0.0
C25 C 0.99513 0.80492 0.22261 0.0
C26 C 1.00142 0.78581 0.23389 0.0
C27 C 1.00359 0.74998 0.19665 0.0
H28 H 0.00817 0.78273 0.28151 0.0
C29 C 1.00521 0.73602 0.14351 0.0
C30 C 1.00776 0.71618 0.15733 0.0
C31 C 1.00549 0.74331 0.2632 0.0
H32 H 1.00385 0.75274 0.30598 0.0
C33 C 0.00899 0.72403 0.27671 0.0
H34 H 1.00414 0.74021 0.09142 0.0
C35 C 0.01003 0.71064 0.22476 0.0
H36 H 0.01258 0.69577 0.23767 0.0
H37 H 0.0105 0.71933 0.32832 0.0
H38 H 0.76518 0.99401 0.07324 0.0
C39 C 0.75577 0.99802 0.11424 0.0
C40 C 0.73597 0.99667 0.1039 0.0
C41 C 0.76326 1.00372 0.17718 0.0
H42 H 0.7079 0.99875 0.14808 0.0
C43 C 0.72322 1.0004 0.15658 0.0
C44 C 0.72982 1.00565 0.22038 0.0
C45 C 0.74989 1.00778 0.23031 0.0
C46 C 0.78483 1.00364 0.18788 0.0
H47 H 0.75489 0.01217 0.27953 0.0
C48 C 0.79827 1.00582 0.13374 0.0
C49 C 0.81826 1.00318 0.14392 0.0
C50 C 0.79222 0.99971 0.25232 0.0
H51 H 0.78285 0.99737 0.29493 0.0
C52 C 0.81191 0.99785 0.26283 0.0
H53 H 0.79333 1.00908 0.08348 0.0
C54 C 0.82477 0.99937 0.20934 0.0
H55 H 0.83994 0.9975 0.21916 0.0
H56 H 0.81723 0.99475 0.31277 0.0
H57 H 0.54411 0.76825 0.07492 0.0
C58 C 0.54086 0.75863 0.11603 0.0
C59 C 0.54483 0.73914 0.10694 0.0
C60 C 0.5337 0.76568 0.17768 0.0
H61 H 0.54469 0.71114 0.15139 0.0
C62 C 0.54188 0.72626 0.15986 0.0
C63 C 0.53496 0.73228 0.22265 0.0
C64 C 0.53042 0.75206 0.23089 0.0
C65 C 0.5314 0.78728 0.18679 0.0
H66 H 0.52474 0.7567 0.27887 0.0
C67 C 0.52922 0.80028 0.13127 0.0
C68 C 0.52987 0.82051 0.14083 0.0
C69 C 0.53315 0.79535 0.25158 0.0
H70 H 0.53532 0.78648 0.2954 0.0
C71 C 0.53305 0.81519 0.2612 0.0
H72 H 0.52748 0.79491 0.08054 0.0
C73 C 0.53167 0.82762 0.20661 0.0
H74 H 0.53211 0.84295 0.21582 0.0
H75 H 0.53456 0.82102 0.31149 0.0
H76 H 0.26354 0.50572 0.19055 0.0
C77 C 0.25369 0.50574 0.14864 0.0
C78 C 0.23433 0.50133 0.16102 0.0
C79 C 0.26023 0.51096 0.08414 0.0
H80 H 0.20608 0.4994 0.11751 0.0
C81 C 0.22119 0.50186 0.1075 0.0
C82 C 0.22687 0.50655 0.04179 0.0
C83 C 0.24649 0.51119 0.03041 0.0
C84 C 0.28091 0.51761 0.07556 0.0
H85 H 0.25092 0.51472 0.97975 0.0
C86 C 0.29606 0.512 0.12025 0.0
C87 C 0.31488 0.51993 0.11492 0.0
C88 C 0.2854 0.53102 0.02505 0.0
H89 H 0.27454 0.53634 0.99116 0.0
C90 C 0.30387 0.53858 0.01886 0.0
H91 H 0.29344 0.50137 0.15874 0.0
C92 C 0.31836 0.53327 0.06327 0.0
H93 H 0.33228 0.54007 0.05786 0.0
H94 H 0.3069 0.54904 0.98005 0.0
H95 H 0.05215 0.27573 0.14708 0.0
C96 C 0.04648 0.26549 0.11112 0.0
C97 C 0.05254 0.24646 0.1156 0.0
C98 C 0.03369 0.27128 0.06018 0.0
H99 H 0.05049 0.21799 0.07479 0.0
C100 C 0.0459 0.23277 0.0696 0.0
C101 C 0.0329 0.23755 0.01886 0.0
C102 C 0.02689 0.25696 0.01376 0.0
C103 C 0.02852 0.29233 0.05442 0.0
H104 H 0.01666 0.26065 0.97502 0.0
C105 C 0.02878 0.30518 0.1109 0.0
C106 C 0.02633 0.32525 0.10239 0.0
C107 C 0.02481 0.30016 0.99054 0.0
H108 H 0.02485 0.29126 0.94586 0.0
C109 C 0.02182 0.3198 0.98248 0.0
H110 H 0.03126 0.29981 0.16115 0.0
C111 C 0.02278 0.33224 0.03748 0.0
H112 H 0.02074 0.34746 0.02926 0.0
H113 H 0.01914 0.32551 0.93277 0.0
H114 H 0.25899 0.05515 0.14513 0.0
C115 C 0.26922 0.04941 0.10945 0.0
C116 C 0.28847 0.0551 0.11529 0.0
C117 C 0.26319 0.03693 0.05746 0.0
H118 H 0.31693 0.05254 0.07429 0.0
C119 C 0.30199 0.04838 0.06876 0.0
C120 C 0.29688 0.03586 0.01662 0.0
C121 C 0.27738 0.03018 0.01085 0.0
C122 C 0.24209 0.03186 0.05077 0.0
H123 H 0.27352 0.02019 0.97131 0.0
C124 C 0.2291 0.03204 0.10673 0.0
C125 C 0.20906 0.02922 0.09749 0.0
C126 C 0.23444 0.028 0.98656 0.0
H127 H 0.24341 0.02818 0.94211 0.0
C128 C 0.21488 0.02452 0.97779 0.0
H129 H 0.23434 0.03473 0.15712 0.0
C130 C 0.20232 0.02526 0.03231 0.0
H131 H 0.18718 0.02274 0.02338 0.0
H132 H 0.20933 0.02162 0.9279 0.0
H133 H 0.48472 0.26478 0.18194 0.0
C134 C 0.48817 0.27513 0.14338 0.0
C135 C 0.48111 0.29373 0.15181 0.0
C136 C 0.49939 0.27003 0.08717 0.0
H137 H 0.47865 0.3219 0.10912 0.0
C138 C 0.48404 0.30748 0.10157 0.0
C139 C 0.49492 0.30335 0.04395 0.0
C140 C 0.50302 0.28468 0.03779 0.0
C141 C 0.50669 0.24946 0.08079 0.0
H142 H 0.51196 0.28182 0.99449 0.0
C143 C 0.50752 0.23638 0.1367 0.0
C144 C 0.51357 0.21705 0.1285 0.0
C145 C 0.51221 0.24231 0.01731 0.0
H146 H 0.51134 0.25101 0.97255 0.0
C147 C 0.51855 0.22346 0.00944 0.0
H148 H 0.50392 0.241 0.18704 0.0
C149 C 0.51924 0.21101 0.06412 0.0
H150 H 0.52388 0.19638 0.05565 0.0
H151 H 0.5227 0.21836 0.96005 0.0
Tb152 Tb 0.99937 0.03191 0.55248 0.0
C153 C 0.04311 0.03902 0.81106 0.0
N154 N 0.04878 0.03224 0.75026 0.0
C155 C 0.07765 0.05106 0.7569 0.0
C156 C 0.05397 0.05297 0.84576 0.0
C157 C 0.06624 0.03734 0.72417 0.0
C158 C 0.07134 0.05916 0.81744 0.0
C159 C 0.02069 0.03723 0.90376 0.0
C160 C 0.0268 0.03122 0.83945 0.0
C161 C 0.03073 0.05201 0.93706 0.0
C162 C 0.04739 0.05983 0.90818 0.0
Tb163 Tb 0.02949 0.0097 0.70069 0.0
N164 N 0.01792 0.0166 0.80639 0.0
C165 C 1.00527 0.0276 0.93389 0.0
C166 C 1.0042 1.00596 0.8387 0.0
C167 C 0.99726 0.01163 0.90176 0.0
H168 H 0.07112 0.0311 0.67738 0.0
H169 H 0.986 1.00343 0.92609 0.0
H170 H 0.95347 0.03494 0.60496 0.0
H171 H 0.02566 1.00813 0.31173 0.0
H172 H 0.99876 0.99287 0.8166 0.0
H173 H 1.0001 0.03178 0.98321 0.0
H174 H 0.02636 0.02679 0.41794 0.0
H175 H 0.09126 0.05542 0.73536 0.0
H176 H 0.02613 0.05698 0.98619 0.0
H177 H 0.05537 0.07076 0.93532 0.0
H178 H 0.92332 0.0173 0.58524 0.0
H179 H 0.08016 0.06982 0.84259 0.0
H180 H 0.99804 0.98673 0.28698 0.0
N181 N 0.96962 0.0185 0.53431 0.0
C182 C 0.96847 1.00616 0.48138 0.0
C183 C 0.93601 0.01374 0.55646 0.0
C184 C 0.95126 0.99638 0.46591 0.0
C185 C 0.95332 0.02341 0.56862 0.0
C186 C 0.93509 0.99983 0.50584 0.0
N187 N 0.99988 0.01546 0.45336 0.0
C188 C 0.01439 0.01738 0.40755 0.0
C189 C 0.98296 0.99396 0.37896 0.0
C190 C 0.98405 1.00488 0.43858 0.0
C191 C 0.99834 0.99484 0.33357 0.0
C192 C 0.01396 1.00691 0.34734 0.0
H193 H 0.92158 0.9926 0.49572 0.0
H194 H 0.93748 0.9765 0.39686 0.0
H195 H 0.96528 0.97442 0.32052 0.0
O196 O 0.00933 0.05927 0.52772 0.0
O197 O 0.01281 1.00338 0.53804 0.0
O198 O 0.01131 0.98975 0.64235 0.0
O199 O 0.9821 0.04929 0.49045 0.0
O200 O 0.03077 0.03599 0.54331 0.0
O201 O 0.04496 0.01162 0.60438 0.0
O202 O 0.03826 0.98898 0.77146 0.0
O203 O 0.0296 0.04113 0.67994 0.0
O204 O 0.99888 0.04707 0.64923 0.0
O205 O 0.0545 0.99402 0.68156 0.0
O206 O 0.99833 1.00247 0.70095 0.0
O207 O 0.98448 0.02865 0.65018 0.0
C208 C 0.01132 0.98805 0.5764 0.0
C209 C 1.00045 0.07028 0.42051 0.0
C210 C 0.02124 0.09153 0.35436 0.0
C211 C 0.00915 0.08842 0.2984 0.0
C212 C 0.98874 0.06733 0.36402 0.0
C213 C 0.99325 0.0762 0.30312 0.0
C214 C 0.01691 0.08189 0.41461 0.0
C215 C 0.04556 0.02489 0.55724 0.0
C216 C 0.99513 0.06268 0.48724 0.0
C217 C 0.9505 0.98433 0.4091 0.0
C218 C 0.96631 0.98316 0.36555 0.0
C219 C 0.01454 0.05248 0.68062 0.0
C220 C 0.05368 0.96239 0.71916 0.0
C221 C 0.03986 0.93017 0.71475 0.0
C222 C 0.05675 0.92353 0.68378 0.0
C223 C 0.07047 0.95542 0.68882 0.0
C224 C 0.03836 0.94971 0.73191 0.0
C225 C 0.07193 0.93611 0.67099 0.0
C226 C 0.98366 0.0142 0.69289 0.0
C227 C 0.05227 0.98307 0.73358 0.0
H228 H 0.0115 0.09583 0.25134 0.0
H229 H 0.97596 0.05845 0.36709 0.0
H230 H 0.98405 0.07404 0.25985 0.0
H231 H 0.02614 0.08365 0.45793 0.0
H232 H 0.0584 0.90852 0.67083 0.0
H233 H 0.0824 0.96499 0.67823 0.0
H234 H 0.02524 0.95502 0.75444 0.0
H235 H 0.08492 0.93087 0.64748 0.0
Tb236 Tb 0.52525 0.0302 0.70969 0.0
C237 C 0.51834 0.9601 0.54123 0.0
N238 N 0.52358 0.97794 0.5205 0.0
C239 C 0.55062 0.96445 0.46211 0.0
C240 C 0.52954 0.94385 0.52607 0.0
C241 C 0.53879 0.98003 0.47742 0.0
C242 C 0.54621 0.94633 0.48772 0.0
C243 C 0.49404 0.93967 0.59157 0.0
C244 C 0.50092 0.95797 0.57336 0.0
C245 C 0.50556 0.92352 0.57977 0.0
C246 C 0.52332 0.92561 0.5472 0.0
Tb247 Tb 0.50373 1.00258 0.55355 0.0
N248 N 0.49042 0.97396 0.58513 0.0
C249 C 0.47564 0.93817 0.61961 0.0
C250 C 0.47206 0.97255 0.6091 0.0
C251 C 0.46448 0.95466 0.62738 0.0
H252 H 0.54174 0.99359 0.45338 0.0
H253 H 0.4501 0.95362 0.64778 0.0
H254 H 0.488 0.05589 0.75731 0.0
H255 H 0.60028 0.04968 0.68497 0.0
H256 H 0.46347 0.98529 0.6155 0.0
H257 H 0.4698 0.92436 0.63413 0.0
H258 H 0.57321 0.02755 0.70463 0.0
H259 H 0.56292 0.96637 0.42945 0.0
H260 H 0.50068 0.90932 0.59413 0.0
H261 H 0.53183 0.91298 0.53665 0.0
H262 H 0.48002 0.09025 0.77105 0.0
H263 H 0.55524 0.93423 0.47497 0.0
H264 H 0.5945 0.08461 0.67681 0.0
N265 N 0.51637 0.06143 0.72261 0.0
C266 C 0.53031 0.07479 0.71269 0.0
C267 C 0.49417 0.0861 0.75399 0.0
C268 C 0.52649 0.09452 0.72008 0.0
C269 C 0.49869 0.06668 0.74591 0.0
C270 C 0.50806 0.10011 0.74017 0.0
N271 N 0.55192 0.04931 0.69824 0.0
C272 C 0.57032 0.04258 0.69704 0.0
C273 C 0.56378 0.08182 0.69072 0.0
C274 C 0.54865 0.0685 0.69853 0.0
C275 C 0.58247 0.07487 0.68305 0.0
C276 C 0.58579 0.05517 0.68752 0.0
H277 H 0.50454 0.11513 0.74656 0.0
H278 H 0.53859 0.12317 0.71332 0.0
H279 H 0.57128 0.11204 0.68738 0.0
O280 O 0.53984 0.0358 0.80024 0.0
O281 O 0.51048 0.04794 0.63176 0.0
O282 O 0.51498 0.03145 0.53268 0.0
O283 O 0.51344 0.01975 0.80003 0.0
O284 O 0.54603 0.01474 0.64482 0.0
O285 O 0.53268 0.01539 0.53896 0.0
O286 O 0.47659 1.00696 0.51246 0.0
O287 O 0.50482 0.98951 0.65527 0.0
O288 O 0.53338 1.00007 0.6947 0.0
O289 O 0.49953 0.99704 0.44976 0.0
O290 O 0.48305 0.02019 0.61036 0.0
O291 O 0.49499 0.02124 0.71848 0.0
C292 C 0.51204 0.04762 0.56541 0.0
C293 C 0.5376 1.00901 0.87242 0.0
C294 C 0.56484 0.98763 0.89048 0.0
C295 C 0.55431 0.97817 0.94106 0.0
C296 C 0.52737 0.99943 0.92306 0.0
C297 C 0.53566 0.984 0.95685 0.0
C298 C 0.55616 1.00281 0.8556 0.0
C299 C 0.54786 0.01526 0.57876 0.0
C300 C 0.52849 0.02467 0.83469 0.0
C301 C 0.54127 0.10792 0.70884 0.0
C302 C 0.55988 0.10158 0.69393 0.0
C303 C 0.52024 0.98657 0.69172 0.0
C304 C 0.47643 0.01813 0.40104 0.0
C305 C 0.45271 0.04174 0.36368 0.0
C306 C 0.46255 0.04306 0.30179 0.0
C307 C 0.48593 0.0197 0.33904 0.0
C308 C 0.46031 0.02968 0.41359 0.0
C309 C 0.47916 0.03235 0.29021 0.0
C310 C 0.48049 0.02123 0.67597 0.0
C311 C 0.4821 1.00359 0.45127 0.0
H312 H 0.56059 0.96655 0.96947 0.0
H313 H 0.51292 1.00379 0.93603 0.0
H314 H 0.52769 0.97665 0.99589 0.0
H315 H 0.56381 0.0097 0.81476 0.0
H316 H 0.45716 0.05179 0.26113 0.0
H317 H 0.49837 0.01098 0.3279 0.0
H318 H 0.45341 0.02886 0.46227 0.0
H319 H 0.48647 0.03339 0.24224 0.0
Tb320 Tb 0.52726 0.50813 0.56428 0.0
C321 C 0.48078 0.49993 0.81579 0.0
N322 N 0.4757 0.50718 0.75511 0.0
C323 C 0.4465 0.4888 0.75723 0.0
C324 C 0.46946 0.48589 0.84791 0.0
C325 C 0.45835 0.5026 0.72705 0.0
C326 C 0.45223 0.48016 0.81736 0.0
C327 C 0.50259 0.50054 0.91035 0.0
C328 C 0.49705 0.50721 0.84635 0.0
C329 C 0.49205 0.48569 0.94103 0.0
C330 C 0.47546 0.47841 0.90995 0.0
Tb331 Tb 0.49573 0.52977 0.70998 0.0
N332 N 0.50651 0.52188 0.81571 0.0
C333 C 0.51798 0.50958 0.94282 0.0
C334 C 0.5202 0.53198 0.85048 0.0
C335 C 0.52655 0.52564 0.91333 0.0
H336 H 0.45394 0.50928 0.68058 0.0
H337 H 0.53781 0.53337 0.93953 0.0
H338 H 0.57232 0.50879 0.62561 0.0
H339 H 0.50124 0.53195 0.32394 0.0
H340 H 0.52616 0.54511 0.83047 0.0
H341 H 0.52272 0.50488 0.99197 0.0
H342 H 0.50064 0.51303 0.42922 0.0
H343 H 0.43301 0.48481 0.73406 0.0
H344 H 0.49621 0.48021 0.98985 0.0
H345 H 0.46713 0.46739 0.93509 0.0
H346 H 0.60155 0.52811 0.60974 0.0
H347 H 0.44308 0.46943 0.8405 0.0
H348 H 0.52847 0.55397 0.3008 0.0
N349 N 0.55631 0.52345 0.5502 0.0
C350 C 0.55755 0.53546 0.49663 0.0
C351 C 0.58914 0.5306 0.57827 0.0
C352 C 0.57431 0.54624 0.48358 0.0
C353 C 0.57228 0.51999 0.58823 0.0
C354 C 0.59004 0.54409 0.52654 0.0
N355 N 0.52693 0.52466 0.46546 0.0
C356 C 0.51251 0.52264 0.41942 0.0
C357 C 0.54344 0.5469 0.39288 0.0
C358 C 0.54245 0.53579 0.45188 0.0
C359 C 0.52826 0.54569 0.34688 0.0
C360 C 0.51286 0.53328 0.35977 0.0
H361 H 0.6032 0.5521 0.51835 0.0
H362 H 0.58776 0.56672 0.41615 0.0
H363 H 0.56064 0.56732 0.33666 0.0
O364 O 0.5175 0.48341 0.51447 0.0
O365 O 0.51454 0.53701 0.55072 0.0
O366 O 0.51457 0.55026 0.65618 0.0
O367 O 0.54764 0.49001 0.51858 0.0
O368 O 0.49589 0.50317 0.55449 0.0
O369 O 0.48174 0.52848 0.61088 0.0
O370 O 0.48577 0.549 0.78402 0.0
O371 O 0.49511 0.49829 0.68772 0.0
O372 O 0.5259 0.49199 0.65891 0.0
O373 O 0.47155 0.54655 0.68885 0.0
O374 O 0.52691 0.53674 0.7144 0.0
O375 O 0.54023 0.51005 0.66551 0.0
C376 C 0.51569 0.55217 0.5903 0.0
C377 C 0.53794 0.45773 0.53624 0.0
C378 C 0.5258 0.42521 0.55381 0.0
C379 C 0.53997 0.42226 0.6029 0.0
C380 C 0.55215 0.45453 0.58514 0.0
C381 C 0.55315 0.43684 0.61797 0.0
C382 C 0.52494 0.44299 0.52086 0.0
C383 C 0.48131 0.51493 0.56447 0.0
C384 C 0.5348 0.47684 0.50667 0.0
C385 C 0.57508 0.55816 0.42665 0.0
C386 C 0.55967 0.55847 0.38128 0.0
C387 C 0.50988 0.48658 0.68787 0.0
C388 C 0.47081 0.57662 0.74064 0.0
C389 C 0.48554 0.60834 0.72885 0.0
C390 C 0.46706 0.61648 0.73328 0.0
C391 C 0.45265 0.58503 0.74419 0.0
C392 C 0.48715 0.58818 0.73163 0.0
C393 C 0.45079 0.60488 0.74015 0.0
C394 C 0.54129 0.52459 0.70786 0.0
C395 C 0.47234 0.55572 0.7456 0.0
H396 H 0.54103 0.40865 0.62877 0.0
H397 H 0.56215 0.46578 0.59924 0.0
H398 H 0.56403 0.4345 0.65591 0.0
H399 H 0.5137 0.44563 0.48435 0.0
H400 H 0.46503 0.63186 0.73377 0.0
H401 H 0.4399 0.57623 0.75044 0.0
H402 H 0.501 0.58135 0.72771 0.0
H403 H 0.43673 0.61134 0.74369 0.0
Tb404 Tb 0.02022 0.5358 0.54748 0.0
C405 C 0.01085 0.46465 0.76548 0.0
N406 N 0.99931 0.47204 0.71746 0.0
C407 C 0.98746 0.44055 0.69125 0.0
C408 C 0.01154 0.44477 0.77765 0.0
C409 C 0.98715 0.46045 0.6819 0.0
C410 C 0.99989 0.43263 0.7388 0.0
C411 C 0.032 0.47056 0.85973 0.0
C412 C 0.02091 0.47728 0.80552 0.0
C413 C 0.03354 0.4507 0.87049 0.0
C414 C 0.02332 0.4378 0.82942 0.0
Tb415 Tb 1.00123 0.50432 0.70053 0.0
N416 N 0.01877 0.49628 0.79374 0.0
C417 C 0.04063 0.48403 0.9026 0.0
C418 C 0.02614 0.50949 0.83796 0.0
C419 C 0.03743 0.50358 0.89222 0.0
H420 H 0.97732 0.46658 0.64589 0.0
H421 H 0.04365 0.51411 0.92601 0.0
H422 H 0.99852 0.5767 0.58529 0.0
H423 H 0.0135 0.48879 0.33042 0.0
H424 H 0.02378 0.52463 0.83049 0.0
H425 H 0.04929 0.47949 0.94485 0.0
H426 H 0.02982 0.50274 0.42866 0.0
H427 H 0.97805 0.43135 0.66206 0.0
H428 H 0.04214 0.44521 0.91146 0.0
H429 H 0.02421 0.42255 0.8393 0.0
H430 H 0.9717 0.59598 0.54124 0.0
H431 H 0.99999 0.41724 0.7464 0.0
H432 H 0.98333 0.50313 0.28908 0.0
N433 N 0.99538 0.55458 0.51186 0.0
C434 C 0.98608 0.5486 0.4555 0.0
C435 C 0.97553 0.58262 0.51687 0.0
C436 C 0.97056 0.55905 0.42905 0.0
C437 C 0.9907 0.57165 0.54175 0.0
C438 C 0.9653 0.57622 0.46063 0.0
N439 N 1.00752 0.52253 0.45109 0.0
C440 C 0.01591 0.5081 0.41495 0.0
C441 C 0.98271 0.52499 0.36666 0.0
C442 C 0.99205 0.53176 0.42513 0.0
C443 C 0.99007 0.5088 0.33409 0.0
C444 C 1.00701 0.50059 0.35751 0.0
H445 H 0.95345 0.58467 0.44185 0.0
H446 H 0.94862 0.55965 0.35182 0.0
H447 H 0.95932 0.52984 0.29696 0.0
O448 O 0.04001 0.53947 0.46807 0.0
O449 O 0.9901 0.53384 0.58344 0.0
O450 O 0.98521 0.50268 0.60576 0.0
O451 O 0.03199 0.56315 0.53047 0.0
O452 O 0.0296 0.50518 0.54884 0.0
O453 O 1.0049 0.48947 0.60365 0.0
O454 O 0.97867 0.52363 0.71576 0.0
O455 O 0.03257 0.50814 0.70345 0.0
O456 O 0.04361 0.52833 0.61768 0.0
O457 O 0.97941 0.49637 0.76816 0.0
O458 O 1.00784 0.53445 0.72602 0.0
O459 O 0.02081 0.55297 0.63943 0.0
C460 C 0.97952 0.51832 0.57584 0.0
C461 C 0.06378 0.56279 0.49443 0.0
C462 C 0.09699 0.55497 0.52193 0.0
C463 C 0.10154 0.57467 0.52029 0.0
C464 C 0.06867 0.58232 0.49275 0.0
C465 C 0.08744 0.58821 0.50596 0.0
C466 C 0.07794 0.54915 0.50955 0.0
C467 C 0.01937 0.48947 0.56085 0.0
C468 C 0.04361 0.55719 0.48422 0.0
C469 C 0.96075 0.55197 0.3724 0.0
C470 C 0.96679 0.53495 0.34138 0.0
C471 C 0.04629 0.51778 0.67222 0.0
C472 C 0.96444 0.5228 0.82235 0.0
C473 C 0.94108 0.54411 0.87511 0.0
C474 C 0.95051 0.54149 0.93716 0.0
C475 C 0.97372 0.52044 0.88432 0.0
C476 C 0.9486 0.53499 0.81771 0.0
C477 C 0.96682 0.52992 0.94135 0.0
C478 C 0.01465 0.55075 0.70161 0.0
C479 C 0.97066 0.51277 0.7612 0.0
H480 H 0.11612 0.57964 0.52804 0.0
H481 H 0.0579 0.59303 0.48183 0.0
H482 H 0.09113 0.60331 0.50445 0.0
H483 H 0.07414 0.53408 0.51206 0.0
H484 H 0.94505 0.54787 0.98301 0.0
H485 H 0.98612 0.51123 0.88875 0.0
H486 H 0.94206 0.53712 0.76887 0.0
H487 H 0.97389 0.52797 0.98932 0.0
C488 C 0.19623 0.0204 0.21369 0.0
C489 C 0.19463 0.03095 0.15364 0.0
C490 C 0.18124 0.02042 0.26167 0.0
C491 C 0.13712 0.04732 0.31506 0.0
H492 H 0.12139 0.99893 0.39358 0.0
C493 C 0.06479 0.03972 0.46151 0.0
C494 C 0.06343 0.02649 0.51487 0.0
C495 C 0.08129 0.04065 0.4206 0.0
C496 C 0.12567 0.01269 0.37322 0.0
H497 H 0.17624 0.0504 0.09884 0.0
H498 H 0.1505 0.05062 0.18186 0.0
H499 H 0.14946 1.00017 0.32026 0.0
H500 H 0.07904 1.0042 0.56726 0.0
H501 H 0.10774 1.00616 0.49782 0.0
H502 H 0.1135 0.05992 0.36808 0.0
C503 C 0.1632 0.04225 0.19232 0.0
C504 C 0.14188 0.01338 0.33082 0.0
C505 C 0.17799 0.04205 0.14431 0.0
C506 C 0.07932 0.0145 0.52658 0.0
C507 C 0.09586 0.01552 0.48603 0.0
C508 C 0.12101 0.04667 0.35782 0.0
C509 C 0.16438 0.03122 0.25142 0.0
C510 C 0.14779 0.03067 0.30043 0.0
C511 C 0.09716 0.02852 0.43186 0.0
C512 C 0.11483 0.02931 0.38733 0.0
H513 H 0.20875 0.0116 0.22244 0.0
H514 H 0.18284 0.01188 0.30673 0.0
H515 H 0.1413 0.06099 0.29369 0.0
H516 H 0.05299 0.04929 0.45069 0.0
H517 H 0.0814 0.05071 0.37922 0.0
C518 C 0.53023 0.19123 0.19573 0.0
C519 C 0.51388 0.20263 0.18515 0.0
C520 C 0.52995 0.17576 0.24108 0.0
C521 C 0.50059 0.15159 0.37855 0.0
H522 H 0.53287 0.10843 0.33227 0.0
C523 C 0.50705 0.08387 0.55397 0.0
C524 C 0.51118 0.06591 0.52474 0.0
C525 C 0.50708 0.10086 0.51525 0.0
C526 C 0.5235 0.12014 0.3461 0.0
H527 H 0.4844 0.20667 0.21603 0.0
H528 H 0.48363 0.17948 0.29402 0.0
H529 H 0.5331 0.13667 0.26199 0.0
H530 H 0.51755 0.05205 0.42941 0.0
H531 H 0.51685 0.08102 0.36237 0.0
H532 H 0.4904 0.13454 0.46126 0.0
C533 C 0.49696 0.18267 0.26825 0.0
C534 C 0.52392 0.13674 0.30592 0.0
C535 C 0.49735 0.19839 0.22333 0.0
C536 C 0.51461 0.0655 0.45477 0.0
C537 C 0.5144 0.08236 0.41596 0.0
C538 C 0.50005 0.13485 0.41858 0.0
C539 C 0.51316 0.17075 0.27706 0.0
C540 C 0.51255 0.15291 0.32121 0.0
C541 C 0.51093 0.1005 0.44534 0.0
C542 C 0.51148 0.11871 0.40314 0.0
H543 H 0.54328 0.19408 0.16771 0.0
H544 H 0.54301 0.16761 0.24723 0.0
H545 H 0.49169 0.16357 0.39322 0.0
H546 H 0.50371 0.08484 0.60683 0.0
H547 H 0.50435 0.11432 0.5407 0.0
C548 C 0.35014 0.51413 0.13989 0.0
C549 C 0.33102 0.5152 0.16315 0.0
C550 C 0.36565 0.51231 0.18457 0.0
C551 C 0.37904 0.51895 0.36704 0.0
H552 H 0.42647 0.49541 0.30817 0.0
C553 C 0.44973 0.52801 0.52149 0.0
C554 C 0.4638 0.51353 0.52014 0.0
C555 C 0.43342 0.52707 0.47989 0.0
C556 C 0.41336 0.50188 0.32634 0.0
H557 H 0.31357 0.51428 0.25336 0.0
H558 H 0.34048 0.51039 0.33122 0.0
H559 H 0.39854 0.49456 0.23536 0.0
H560 H 0.47124 0.48648 0.47326 0.0
H561 H 0.44269 0.48451 0.40229 0.0
H562 H 0.39367 0.52567 0.45902 0.0
C563 C 0.34357 0.51152 0.27799 0.0
C564 C 0.39722 0.50166 0.28362 0.0
C565 C 0.32797 0.51346 0.23302 0.0
C566 C 0.46087 0.49798 0.47581 0.0
C567 C 0.44441 0.49694 0.43449 0.0
C568 C 0.39514 0.51903 0.41002 0.0
C569 C 0.36278 0.51123 0.25472 0.0
C570 C 0.37976 0.51041 0.30262 0.0
C571 C 0.43033 0.51151 0.43551 0.0
C572 C 0.41274 0.51069 0.39033 0.0
H573 H 0.35325 0.51507 0.0866 0.0
H574 H 0.37999 0.51238 0.16364 0.0
H575 H 0.36613 0.52604 0.38414 0.0
H576 H 0.4514 0.54034 0.5543 0.0
H577 H 0.42338 0.53886 0.4819 0.0
C578 C 0.04182 0.35431 0.1558 0.0
C579 C 0.02801 0.33949 0.15911 0.0
C580 C 0.04199 0.36939 0.20302 0.0
C581 C 0.00978 0.39637 0.31691 0.0
H582 H 0.05672 0.41716 0.39283 0.0
C583 C 1.00677 0.45825 0.51286 0.0
C584 C 0.02186 0.47173 0.51792 0.0
C585 C 0.00826 0.44186 0.47203 0.0
C586 C 0.04342 0.41185 0.37153 0.0
H587 H 1.00358 0.32901 0.21545 0.0
H588 H 1.00365 0.35549 0.29764 0.0
H589 H 0.058 0.38917 0.31875 0.0
H590 H 0.05066 0.47796 0.48308 0.0
H591 H 0.05303 0.44986 0.40925 0.0
H592 H 0.99517 0.41928 0.36667 0.0
C593 C 0.0145 0.35534 0.25859 0.0
C594 C 0.04418 0.39559 0.32909 0.0
C595 C 0.01456 0.34002 0.21191 0.0
C596 C 0.03866 0.46805 0.48056 0.0
C597 C 0.04005 0.45171 0.43846 0.0
C598 C 0.00904 0.41277 0.35835 0.0
C599 C 0.0281 0.37041 0.25444 0.0
C600 C 0.02735 0.38751 0.30132 0.0
C601 C 0.02479 0.4383 0.43303 0.0
C602 C 0.02582 0.42083 0.38708 0.0
H603 H 0.05227 0.35446 0.11538 0.0
H604 H 0.05259 0.3807 0.19751 0.0
H605 H 0.99653 0.39089 0.2956 0.0
H606 H 0.99346 0.46046 0.5397 0.0
H607 H 0.99627 0.43194 0.47158 0.0
C608 C 0.84581 0.98826 0.08054 0.0
C609 C 0.83273 1.0035 0.08764 0.0
C610 C 0.86096 0.98913 0.03393 0.0
C611 C 0.89169 0.02381 0.94161 0.0
H612 H 0.9076 0.9791 0.83975 0.0
C613 C 0.95433 0.02848 0.74803 0.0
C614 C 0.96609 0.0124 0.73658 0.0
C615 C 0.93778 0.02723 0.78826 0.0
C616 C 0.90365 0.99171 0.86841 0.0
H617 H 0.82532 0.03157 0.04975 0.0
H618 H 0.85193 0.03324 0.96835 0.0
H619 H 0.87923 0.97733 0.91149 0.0
H620 H 0.9693 0.98223 0.75924 0.0
H621 H 0.94096 0.98013 0.83169 0.0
H622 H 0.91632 0.03808 0.90055 0.0
C623 C 0.85041 0.02053 0.99916 0.0
C624 C 0.88719 0.9907 0.90953 0.0
C625 C 0.83501 0.01952 0.04533 0.0
C626 C 0.96075 0.99498 0.76715 0.0
C627 C 0.94424 0.99375 0.80822 0.0
C628 C 0.90827 0.02476 0.90112 0.0
C629 C 0.86376 1.00541 0.99322 0.0
C630 C 0.88092 1.00673 0.9469 0.0
C631 C 0.9324 0.00988 0.81958 0.0
C632 C 0.91461 1.00874 0.86356 0.0
H633 H 0.84453 0.9757 0.11228 0.0
H634 H 0.87091 0.97726 0.03159 0.0
H635 H 0.88761 0.03637 0.97032 0.0
H636 H 0.95795 0.04223 0.72599 0.0
H637 H 0.9291 0.03996 0.79399 0.0
C638 C 0.54521 0.84759 0.07574 0.0
C639 C 0.52968 0.83477 0.08391 0.0
C640 C 0.54436 0.86288 0.02973 0.0
C641 C 0.5097 0.89462 0.94187 0.0
H642 H 0.55385 0.90974 0.83548 0.0
C643 C 0.50501 0.95829 0.75177 0.0
C644 C 0.52152 0.96911 0.73605 0.0
C645 C 0.50602 0.94167 0.79169 0.0
C646 C 0.54139 0.90607 0.86542 0.0
H647 H 0.50099 0.82816 0.04925 0.0
H648 H 0.49935 0.85498 0.96904 0.0
H649 H 0.55552 0.88139 0.90662 0.0
H650 H 0.55219 0.97081 0.75218 0.0
H651 H 0.55397 0.94242 0.82362 0.0
H652 H 0.49571 0.91952 0.90295 0.0
C653 C 0.51233 0.8531 0.99819 0.0
C654 C 0.54235 0.88957 0.90626 0.0
C655 C 0.51332 0.83755 0.04364 0.0
C656 C 0.53911 0.96292 0.76294 0.0
C657 C 0.54014 0.94638 0.80363 0.0
C658 C 0.50881 0.91127 0.90177 0.0
C659 C 0.52778 0.86618 0.99093 0.0
C660 C 0.52652 0.88351 0.94524 0.0
C661 C 0.52361 0.93531 0.81883 0.0
C662 C 0.52463 0.91739 0.86245 0.0
H663 H 0.55795 0.84604 0.10646 0.0
H664 H 0.5565 0.8726 0.02652 0.0
H665 H 0.49728 0.89074 0.97178 0.0
H666 H 0.49112 0.96273 0.73354 0.0
H667 H 0.49289 0.93371 0.80039 0.0
C668 C 0.6836 0.50559 0.07652 0.0
C669 C 0.69345 0.52218 0.09803 0.0
C670 C 0.66797 0.50671 0.03205 0.0
C671 C 0.64068 0.54002 0.91617 0.0
H672 H 0.60058 0.50197 0.94134 0.0
C673 C 0.56545 0.54316 0.7797 0.0
C674 C 0.55839 0.52566 0.75387 0.0
C675 C 0.58196 0.54368 0.82102 0.0
C676 C 0.61166 0.51267 0.93302 0.0
H677 H 0.6946 0.55305 0.08797 0.0
H678 H 0.66711 0.55517 0.01136 0.0
H679 H 0.62906 0.50114 0.01153 0.0
H680 H 0.56325 0.49497 0.75248 0.0
H681 H 0.59154 0.49583 0.82429 0.0
H682 H 0.62275 0.55173 0.83828 0.0
C683 C 0.67167 0.54112 0.02773 0.0
C684 C 0.62823 0.51214 0.97333 0.0
C685 C 0.68755 0.53994 0.07175 0.0
C686 C 0.5682 0.50874 0.77117 0.0
C687 C 0.58445 0.50922 0.81292 0.0
C688 C 0.62394 0.54066 0.87618 0.0
C689 C 0.66127 0.52453 0.00817 0.0
C690 C 0.64325 0.52563 0.96529 0.0
C691 C 0.5917 0.52667 0.83856 0.0
C692 C 0.60923 0.52684 0.88338 0.0
H693 H 0.68774 0.49166 0.09556 0.0
H694 H 0.661 0.49345 0.01715 0.0
H695 H 0.65179 0.55064 0.90739 0.0
H696 H 0.55836 0.55648 0.76727 0.0
H697 H 0.58696 0.5574 0.83997 0.0
C698 C 0.99784 0.68323 0.11581 0.0
C699 C 1.00739 0.70077 0.1035 0.0
C700 C 0.99848 0.66801 0.0695 0.0
C701 C 0.02634 0.64888 0.92227 0.0
H702 H 0.98289 0.61416 0.90811 0.0
C703 C 0.0236 0.58545 0.7273 0.0
C704 C 0.01491 0.56805 0.74735 0.0
C705 C 0.02292 0.60191 0.76862 0.0
C706 C 0.9953 0.62352 0.9118 0.0
H707 H 0.02476 0.71589 0.03021 0.0
H708 H 0.02563 0.68941 0.94842 0.0
H709 H 0.98076 0.64237 0.97999 0.0
H710 H 0.9987 0.5547 0.82808 0.0
H711 H 0.9976 0.58313 0.89962 0.0
H712 H 0.04079 0.62995 0.85344 0.0
C713 C 0.01785 0.68735 0.99506 0.0
C714 C 0.99408 0.63985 0.95337 0.0
C715 C 0.01718 0.70271 0.04174 0.0
C716 C 1.00565 0.56768 0.81049 0.0
C717 C 1.00486 0.58416 0.85155 0.0
C718 C 0.02752 0.63255 0.88034 0.0
C719 C 0.00861 0.66964 0.00837 0.0
C720 C 0.00965 0.65276 0.96016 0.0
C721 C 0.01338 0.60164 0.83128 0.0
C722 C 0.01208 0.61944 0.87487 0.0
H723 H 0.98988 0.68114 0.16208 0.0
H724 H 0.99134 0.65472 0.0828 0.0
H725 H 0.03877 0.65819 0.92628 0.0
H726 H 0.03082 0.58647 0.67914 0.0
H727 H 0.02952 0.61501 0.75054 0.0
C728 C 0.08204 0.23159 0.16225 0.0
C729 C 0.06391 0.23969 0.17303 0.0
C730 C 0.08956 0.21864 0.20876 0.0
C731 C 0.07386 0.18999 0.36139 0.0
H732 H 0.09036 0.14814 0.24713 0.0
C733 C 0.04306 0.11601 0.40983 0.0
C734 C 0.03735 0.10581 0.35171 0.0
C735 C 0.05646 0.13091 0.40602 0.0
C736 C 0.08547 0.15958 0.27971 0.0
H737 H 0.04041 0.24265 0.24311 0.0
H738 H 0.05264 0.2196 0.32208 0.0
H739 H 0.09584 0.18061 0.2116 0.0
H740 H 0.04309 0.10249 0.24486 0.0
H741 H 0.06435 0.12961 0.23668 0.0
H742 H 0.06105 0.1691 0.42471 0.0
C743 C 0.06168 0.22325 0.2797 0.0
C744 C 0.08909 0.17847 0.26004 0.0
C745 C 0.05449 0.23657 0.23417 0.0
C746 C 0.04638 0.11035 0.29047 0.0
C747 C 0.05918 0.12578 0.28619 0.0
C748 C 0.06949 0.17114 0.37961 0.0
C749 C 0.07862 0.21296 0.26509 0.0
C750 C 0.08191 0.19398 0.29801 0.0
C751 C 0.06393 0.13678 0.34358 0.0
C752 C 0.07395 0.15572 0.33629 0.0
H753 H 0.08956 0.23397 0.11523 0.0
H754 H 0.10307 0.21179 0.19708 0.0
H755 H 0.06917 0.20145 0.39428 0.0
H756 H 0.03656 0.11331 0.45834 0.0
H757 H 0.06018 0.13836 0.45204 0.0
C758 C 0.29181 0.05985 0.23922 0.0
C759 C 0.29544 0.0664 0.17369 0.0
C760 C 0.30392 0.06535 0.29198 0.0
C761 C 0.35002 0.09169 0.32954 0.0
H762 H 0.36572 0.04062 0.38142 0.0
C763 C 0.42872 0.06803 0.3385 0.0
C764 C 0.43373 0.05135 0.37423 0.0
C765 C 0.40993 0.07505 0.34055 0.0
C766 C 0.36157 0.05518 0.36975 0.0
H767 H 0.31209 0.08643 0.11403 0.0
H768 H 0.33354 0.09551 0.20485 0.0
H769 H 0.33369 0.04562 0.34206 0.0
H770 H 0.4226 0.03014 0.44507 0.0
H771 H 0.39104 0.04343 0.45343 0.0
H772 H 0.37856 0.10091 0.35433 0.0
C773 C 0.32152 0.08618 0.2164 0.0
C774 C 0.34294 0.05807 0.34702 0.0
C775 C 0.30931 0.08084 0.16395 0.0
C776 C 0.4198 0.04308 0.41694 0.0
C777 C 0.40131 0.05052 0.42083 0.0
C778 C 0.36876 0.08881 0.35298 0.0
C779 C 0.31994 0.07723 0.27951 0.0
C780 C 0.3372 0.07613 0.3233 0.0
C781 C 0.39578 0.0659 0.37984 0.0
C782 C 0.37503 0.07029 0.37026 0.0
H783 H 0.28105 0.04888 0.24832 0.0
H784 H 0.30198 0.05866 0.34068 0.0
H785 H 0.34596 0.10585 0.31252 0.0
H786 H 0.43905 0.07532 0.30684 0.0
H787 H 0.40632 0.08697 0.30819 0.0
C788 C 0.48393 0.29703 0.27574 0.0
C789 C 0.47299 0.29964 0.21738 0.0
C790 C 0.4791 0.30654 0.33507 0.0
C791 C 0.45597 0.35232 0.37522 0.0
H792 H 0.48537 0.3437 0.53775 0.0
C793 C 0.50798 0.40679 0.46647 0.0
C794 C 0.51215 0.40978 0.53473 0.0
C795 C 0.49499 0.3927 0.44689 0.0
C796 C 0.47658 0.34632 0.49381 0.0
H797 H 0.44704 0.31202 0.17696 0.0
H798 H 0.43784 0.32788 0.28184 0.0
H799 H 0.47438 0.31639 0.47132 0.0
H800 H 0.50594 0.40029 0.63639 0.0
H801 H 0.48328 0.37499 0.6015 0.0
H802 H 0.4584 0.38222 0.39741 0.0
C803 C 0.45073 0.31928 0.2813 0.0
C804 C 0.47052 0.33066 0.45494 0.0
C805 C 0.45589 0.31012 0.22124 0.0
C806 C 0.50308 0.39818 0.5833 0.0
C807 C 0.49003 0.38386 0.56348 0.0
C808 C 0.46159 0.36787 0.41485 0.0
C809 C 0.46301 0.31872 0.33769 0.0
C810 C 0.46179 0.3336 0.39179 0.0
C811 C 0.48579 0.38109 0.49493 0.0
C812 C 0.47348 0.36508 0.47094 0.0
H813 H 0.49721 0.28901 0.27398 0.0
H814 H 0.48912 0.30566 0.37646 0.0
H815 H 0.449 0.35545 0.32792 0.0
H816 H 0.51507 0.41515 0.42775 0.0
H817 H 0.49263 0.39051 0.39354 0.0
C818 C 0.21172 0.4853 0.24248 0.0
C819 C 0.22729 0.49778 0.23088 0.0
C820 C 0.20252 0.48497 0.30489 0.0
C821 C 0.19478 0.51927 0.44295 0.0
H822 H 0.15663 0.48115 0.49224 0.0
C823 C 0.11298 0.52423 0.48901 0.0
C824 C 0.1125 0.54061 0.53039 0.0
C825 C 0.12956 0.51313 0.48491 0.0
C826 C 0.16743 0.49183 0.48008 0.0
H827 H 0.2468 0.51797 0.27926 0.0
H828 H 0.23175 0.51624 0.38885 0.0
H829 H 0.18399 0.47182 0.42269 0.0
H830 H 0.128 0.55654 0.60712 0.0
H831 H 0.15713 0.53731 0.59895 0.0
H832 H 0.17793 0.53941 0.49765 0.0
C833 C 0.22593 0.50746 0.34865 0.0
C834 C 0.18303 0.48656 0.4397 0.0
C835 C 0.23481 0.50822 0.28565 0.0
C836 C 0.12815 0.54435 0.5732 0.0
C837 C 0.14476 0.53325 0.56901 0.0
C838 C 0.17944 0.52442 0.48403 0.0
C839 C 0.20895 0.49678 0.35798 0.0
C840 C 0.1962 0.50051 0.41694 0.0
C841 C 0.146 0.51824 0.52189 0.0
C842 C 0.16497 0.51106 0.49951 0.0
H843 H 0.20594 0.47651 0.20223 0.0
H844 H 0.18954 0.47649 0.30944 0.0
H845 H 0.2044 0.53058 0.42668 0.0
H846 H 0.10122 0.5209 0.45528 0.0
H847 H 0.13007 0.50174 0.44777 0.0
C848 C 0.96256 0.81199 0.03171 0.0
C849 C 0.97943 0.80148 0.04165 0.0
C850 C 0.9599 0.82229 0.97221 0.0
C851 C 0.98565 0.83604 0.81155 0.0
H852 H 0.96902 0.88673 0.86579 0.0
C853 C 0.01569 0.91706 0.79575 0.0
C854 C 0.02429 0.91648 0.73197 0.0
C855 C 1.00279 0.90275 0.81527 0.0
C856 C 0.97383 0.87269 0.84975 0.0
H857 H 1.00592 0.79197 0.996 0.0
H858 H 1.00201 0.81051 0.89446 0.0
H859 H 0.95976 0.85933 0.93225 0.0
H860 H 0.02526 0.90123 0.63725 0.0
H861 H 1.0019 0.87681 0.66935 0.0
H862 H 1.00174 0.84971 0.73408 0.0
C863 C 0.99036 0.81058 0.93049 0.0
C864 C 0.96814 0.85676 0.8873 0.0
C865 C 0.99274 0.79994 0.98914 0.0
C866 C 0.01888 0.90193 0.68675 0.0
C867 C 1.00559 0.88786 0.70552 0.0
C868 C 0.99185 0.85205 0.77527 0.0
C869 C 0.97441 0.82278 0.92275 0.0
C870 C 0.97501 0.83833 0.87125 0.0
C871 C 0.99787 0.88766 0.77099 0.0
C872 C 0.987 0.87069 0.79655 0.0
H873 H 0.95202 0.81318 0.07161 0.0
H874 H 0.9471 0.83091 0.96725 0.0
H875 H 0.99051 0.82201 0.79562 0.0
H876 H 0.01977 0.92794 0.83212 0.0
H877 H 0.99763 0.90301 0.86664 0.0
C878 C 0.71853 1.00378 0.99864 0.0
C879 C 0.72797 0.9904 0.03905 0.0
C880 C 0.70579 0.99759 0.94895 0.0
C881 C 0.67146 0.95935 0.93801 0.0
H882 H 0.65387 0.9892 0.78603 0.0
C883 C 0.59143 0.96334 0.87944 0.0
C884 C 0.58513 0.98247 0.87611 0.0
C885 C 0.61089 0.95897 0.8717 0.0
C886 C 0.65864 0.98055 0.82794 0.0
H887 H 0.73306 0.96025 0.05656 0.0
H888 H 0.7107 0.94925 0.96925 0.0
H889 H 0.68751 0.99103 0.82002 0.0
H890 H 0.59446 0.01191 0.86028 0.0
H891 H 0.62805 1.00436 0.84742 0.0
H892 H 0.64243 0.95013 0.94987 0.0
C893 C 0.71313 0.96451 0.97569 0.0
C894 C 0.67791 0.98154 0.84719 0.0
C895 C 0.72597 0.97075 0.02525 0.0
C896 C 0.59864 0.99697 0.86198 0.0
C897 C 0.618 0.99261 0.85423 0.0
C898 C 0.65222 0.95842 0.91897 0.0
C899 C 0.70212 0.97788 0.93967 0.0
C900 C 0.68422 0.97187 0.90497 0.0
C901 C 0.62446 0.97363 0.86068 0.0
C902 C 0.64537 0.96994 0.86638 0.0
H903 H 0.71978 0.019 0.00928 0.0
H904 H 0.69743 1.00829 0.92277 0.0
H905 H 0.67578 0.95178 0.983 0.0
H906 H 0.58142 0.95177 0.88947 0.0
H907 H 0.61539 0.94418 0.87649 0.0
C908 C 0.54025 0.73463 0.98329 0.0
C909 C 0.55137 0.73165 0.04112 0.0
C910 C 0.54334 0.72352 0.92564 0.0
C911 C 0.55201 0.69676 0.8076 0.0
H912 H 0.54895 0.6455 0.88149 0.0
C913 C 0.50205 0.63976 0.70271 0.0
C914 C 0.50296 0.62096 0.72814 0.0
C915 C 0.51639 0.65315 0.71786 0.0
C916 C 0.5504 0.65945 0.85831 0.0
H917 H 0.57598 0.71678 0.08167 0.0
H918 H 0.58159 0.69753 0.98071 0.0
H919 H 0.55981 0.67136 0.95129 0.0
H920 H 0.52174 0.6008 0.77928 0.0
H921 H 0.54732 0.62342 0.79902 0.0
H922 H 0.54191 0.68477 0.71485 0.0
C923 C 0.57023 0.70809 0.98018 0.0
C924 C 0.55665 0.67447 0.89909 0.0
C925 C 0.56702 0.71906 0.03791 0.0
C926 C 0.52006 0.61515 0.75967 0.0
C927 C 0.53476 0.62834 0.77226 0.0
C928 C 0.54603 0.68158 0.76609 0.0
C929 C 0.55766 0.70934 0.92506 0.0
C930 C 0.55655 0.69342 0.87544 0.0
C931 C 0.53238 0.64789 0.75683 0.0
C932 C 0.54405 0.66288 0.79216 0.0
H933 H 0.5281 0.74428 0.98464 0.0
H934 H 0.53335 0.72478 0.8842 0.0
H935 H 0.55208 0.71122 0.78772 0.0
H936 H 0.48967 0.64459 0.67468 0.0
H937 H 0.51399 0.66791 0.70356 0.0
C938 C 0.78469 0.56479 0.03306 0.0
C939 C 0.78955 0.56985 0.09942 0.0
C940 C 0.79573 0.57155 0.9793 0.0
C941 C 0.84193 0.59786 0.94096 0.0
H942 H 0.85459 0.54821 0.86547 0.0
C943 C 0.9187 0.57018 0.91554 0.0
C944 C 0.92271 0.55501 0.87088 0.0
C945 C 0.9004 0.57834 0.91783 0.0
C946 C 0.85124 0.56243 0.88394 0.0
H947 H 0.80703 0.58897 0.16026 0.0
H948 H 0.82698 0.59973 0.06784 0.0
H949 H 0.82339 0.55315 0.91262 0.0
H950 H 0.91061 0.53774 0.78961 0.0
H951 H 0.8796 0.55285 0.79047 0.0
H952 H 0.87061 0.60653 0.91565 0.0
C953 C 0.81477 0.59063 0.05634 0.0
C954 C 0.83309 0.56533 0.91117 0.0
C955 C 0.80347 0.58421 0.10981 0.0
C956 C 0.9084 0.54943 0.82462 0.0
C957 C 0.89034 0.55794 0.8257 0.0
C958 C 0.86022 0.59495 0.91344 0.0
C959 C 0.81207 0.58302 0.99136 0.0
C960 C 0.82852 0.5827 0.94349 0.0
C961 C 0.88578 0.57179 0.87458 0.0
C962 C 0.86538 0.57685 0.8878 0.0
H963 H 0.7738 0.55403 0.02297 0.0
H964 H 0.79276 0.56605 0.92934 0.0
H965 H 0.83876 0.61156 0.96416 0.0
H966 H 0.92945 0.57534 0.95055 0.0
H967 H 0.89747 0.58895 0.95637 0.0
C968 C 0.01739 0.20513 0.00533 0.0
C969 C 0.02574 0.22139 0.97495 0.0
C970 C 0.01469 0.18794 0.96939 0.0
C971 C 0.03283 0.16133 0.81766 0.0
H972 H 0.99197 0.12587 0.86425 0.0
C973 C 0.03307 0.08147 0.7245 0.0
C974 C 0.01545 0.07218 0.71177 0.0
C975 C 0.03376 0.0999 0.75388 0.0
C976 C 1.00342 0.13555 0.84969 0.0
H977 H 0.03737 0.23224 0.88156 0.0
H978 H 0.03217 0.2024 0.8177 0.0
H979 H 0.99288 0.15755 0.91545 0.0
H980 H 0.98463 0.07558 0.71884 0.0
H981 H 0.98572 0.10766 0.76796 0.0
H982 H 0.04311 0.13942 0.75071 0.0
C983 C 0.0279 0.20284 0.87007 0.0
C984 C 1.0041 0.15383 0.88007 0.0
C985 C 0.03058 0.22016 0.90631 0.0
C986 C 0.99852 0.08212 0.7282 0.0
C987 C 0.99917 0.10058 0.75718 0.0
C988 C 0.03212 0.14303 0.78709 0.0
C989 C 0.02028 0.18625 0.90141 0.0
C990 C 0.01891 0.16707 0.8652 0.0
C991 C 0.01681 0.10987 0.77091 0.0
C992 C 0.01747 0.1297 0.80279 0.0
H993 H 0.01378 0.20542 0.05839 0.0
H994 H 0.00904 0.17566 0.99633 0.0
H995 H 0.04463 0.17081 0.80493 0.0
H996 H 0.0464 0.07459 0.71095 0.0
H997 H 0.0477 0.10623 0.76381 0.0
C998 C 0.32951 0.02135 1.00016 0.0
C999 C 0.31272 0.0289 0.9713 0.0
C1000 C 0.34624 0.0187 0.96199 0.0
C1001 C 0.37042 0.03537 0.80339 0.0
H1002 H 0.40772 0.99696 0.85415 0.0
C1003 C 0.44426 0.02469 0.66306 0.0
C1004 C 0.46045 0.02179 0.70428 0.0
C1005 C 0.42556 0.02484 0.69054 0.0
C1006 C 0.39756 1.00789 0.83944 0.0
H1007 H 0.30033 0.03887 0.8781 0.0
H1008 H 0.3294 0.03365 0.81029 0.0
H1009 H 0.37635 0.99724 0.90796 0.0
H1010 H 0.46928 0.01671 0.80735 0.0
H1011 H 0.43703 0.01678 0.85451 0.0
H1012 H 0.39181 0.0458 0.73409 0.0
C1013 C 0.32974 0.03011 0.86327 0.0
C1014 C 0.37944 1.0081 0.87063 0.0
C1015 C 0.31289 0.03281 0.90185 0.0
C1016 C 0.45731 0.01902 0.77366 0.0
C1017 C 0.43869 0.01892 0.80085 0.0
C1018 C 0.38854 0.03501 0.77158 0.0
C1019 C 0.34689 0.0234 0.89305 0.0
C1020 C 0.36561 0.02208 0.85433 0.0
C1021 C 0.42246 0.02179 0.7599 0.0
C1022 C 0.40255 0.02148 0.79002 0.0
H1023 H 0.32998 0.01832 0.05359 0.0
H1024 H 0.35896 0.01379 0.98785 0.0
H1025 H 0.36045 0.04654 0.78947 0.0
H1026 H 0.446 0.02686 0.60944 0.0
H1027 H 0.41349 0.027 0.65718 0.0
C1028 C 0.51592 0.32623 0.97498 0.0
C1029 C 0.49762 0.31923 0.99296 0.0
C1030 C 0.518 0.34331 0.93708 0.0
C1031 C 0.49074 0.37813 0.82733 0.0
H1032 H 0.53025 0.41435 0.88059 0.0
C1033 C 0.49107 0.45739 0.72893 0.0
C1034 C 0.5087 0.46699 0.71985 0.0
C1035 C 0.49018 0.43906 0.75894 0.0
C1036 C 0.51925 0.4044 0.86395 0.0
H1037 H 0.46719 0.32465 0.98267 0.0
H1038 H 0.47071 0.35384 0.91643 0.0
H1039 H 0.52836 0.38307 0.93495 0.0
H1040 H 0.53935 0.46429 0.73467 0.0
H1041 H 0.53797 0.43243 0.785 0.0
H1042 H 0.48166 0.39935 0.75615 0.0
C1043 C 0.48357 0.34628 0.93118 0.0
C1044 C 0.51817 0.38629 0.89549 0.0
C1045 C 0.48153 0.32943 0.9695 0.0
C1046 C 0.52545 0.45749 0.74094 0.0
C1047 C 0.52461 0.43915 0.77067 0.0
C1048 C 0.49188 0.39619 0.79553 0.0
C1049 C 0.50183 0.35382 0.9152 0.0
C1050 C 0.50378 0.37283 0.87832 0.0
C1051 C 0.50695 0.42952 0.78062 0.0
C1052 C 0.50605 0.40982 0.81355 0.0
H1053 H 0.52866 0.31898 0.99277 0.0
H1054 H 0.53233 0.34838 0.92551 0.0
H1055 H 0.47961 0.36822 0.81139 0.0
H1056 H 0.47789 0.46396 0.71213 0.0
H1057 H 0.47621 0.43249 0.76584 0.0
C1058 C 0.19775 0.49205 0.98482 0.0
C1059 C 0.21155 0.5069 0.98783 0.0
C1060 C 0.18145 0.49338 0.94356 0.0
C1061 C 0.15069 0.52916 0.85228 0.0
H1062 H 0.12629 0.48307 0.7832 0.0
C1063 C 0.08021 0.53092 0.68866 0.0
C1064 C 0.06623 0.51668 0.70153 0.0
C1065 C 0.09858 0.53012 0.71855 0.0
C1066 C 0.13273 0.49613 0.80252 0.0
H1067 H 0.21898 0.53467 0.94667 0.0
H1068 H 0.19075 0.53686 0.87301 0.0
H1069 H 0.15709 0.4809 0.84012 0.0
H1070 H 0.06115 0.49023 0.75602 0.0
H1071 H 0.09285 0.48879 0.80734 0.0
H1072 H 0.12622 0.54435 0.81387 0.0
C1073 C 0.19239 0.52421 0.90392 0.0
C1074 C 0.15055 0.49489 0.8356 0.0
C1075 C 0.20883 0.52285 0.94551 0.0
C1076 C 0.07136 0.50153 0.74473 0.0
C1077 C 0.08974 0.50062 0.77392 0.0
C1078 C 0.13287 0.53041 0.81866 0.0
C1079 C 0.17819 0.50961 0.90298 0.0
C1080 C 0.15979 0.51132 0.86231 0.0
C1081 C 0.10373 0.5149 0.76161 0.0
C1082 C 0.12339 0.51387 0.79411 0.0
H1083 H 0.19925 0.4795 0.01639 0.0
H1084 H 0.171 0.48185 0.94577 0.0
H1085 H 0.15699 0.54219 0.87232 0.0
H1086 H 0.07685 0.54294 0.65647 0.0
H1087 H 0.10882 0.5414 0.70748 0.0
C1088 C 0.9813 0.83381 0.28187 0.0
C1089 C 0.99676 0.82101 0.2735 0.0
C1090 C 0.98334 0.85092 0.31859 0.0
C1091 C 0.01309 0.87728 0.44478 0.0
H1092 H 0.9907 0.9223 0.36215 0.0
C1093 C 1.00539 0.95198 0.5818 0.0
C1094 C 0.01055 0.96841 0.5445 0.0
C1095 C 1.00429 0.93373 0.55095 0.0
C1096 C 0.99708 0.90992 0.38603 0.0
H1097 H 0.02634 0.81604 0.30143 0.0
H1098 H 0.02983 0.84585 0.36727 0.0
H1099 H 0.98781 0.89107 0.3068 0.0
H1100 H 0.01963 0.97787 0.44585 0.0
H1101 H 0.01709 0.94647 0.39191 0.0
H1102 H 0.02244 0.89631 0.52366 0.0
C1103 C 0.01608 0.8426 0.34446 0.0
C1104 C 0.9953 0.89189 0.35447 0.0
C1105 C 0.01407 0.8254 0.30697 0.0
C1106 C 0.01495 0.96585 0.47586 0.0
C1107 C 0.01364 0.9477 0.44491 0.0
C1108 C 0.01465 0.89532 0.47682 0.0
C1109 C 1.00088 0.85592 0.34915 0.0
C1110 C 1.00321 0.87522 0.38328 0.0
C1111 C 0.0083 0.93131 0.48187 0.0
C1112 C 1.00664 0.91194 0.44806 0.0
H1113 H 0.96763 0.83087 0.25791 0.0
H1114 H 0.97112 0.86043 0.32225 0.0
H1115 H 0.01937 0.86488 0.4688 0.0
H1116 H 1.00192 0.95322 0.63477 0.0
H1117 H 0.99978 0.92156 0.5808 0.0
C1118 C 0.7044 0.99101 0.2938 0.0
C1119 C 0.71509 1.00735 0.27529 0.0
C1120 C 0.68769 0.99255 0.3331 0.0
C1121 C 0.64938 0.02763 0.38067 0.0
H1122 H 0.63337 0.98685 0.50072 0.0
C1123 C 0.57077 0.02227 0.4826 0.0
C1124 C 0.56758 0.015 0.54775 0.0
C1125 C 0.58918 0.02199 0.45322 0.0
C1126 C 0.63756 0.99854 0.46801 0.0
H1127 H 0.71653 0.03822 0.28448 0.0
H1128 H 0.68758 0.04102 0.35467 0.0
H1129 H 0.66487 0.98563 0.44796 0.0
H1130 H 0.58154 1.00133 0.63218 0.0
H1131 H 0.61357 1.00132 0.58227 0.0
H1132 H 0.62216 0.04068 0.40158 0.0
C1133 C 0.69205 0.0269 0.33837 0.0
C1134 C 0.65571 0.99771 0.43681 0.0
C1135 C 0.70889 0.02531 0.29904 0.0
C1136 C 0.58341 1.00736 0.58243 0.0
C1137 C 0.60184 1.00712 0.55317 0.0
C1138 C 0.63122 0.02846 0.41191 0.0
C1139 C 0.68091 0.01055 0.35502 0.0
C1140 C 0.66193 0.01214 0.392 0.0
C1141 C 0.60511 0.01441 0.48788 0.0
C1142 C 0.62487 0.01385 0.45582 0.0
H1143 H 0.70851 0.977 0.27504 0.0
H1144 H 0.67959 0.97959 0.34341 0.0
H1145 H 0.65336 0.03898 0.34621 0.0
H1146 H 0.55898 0.02824 0.45412 0.0
H1147 H 0.59081 0.02747 0.40261 0.0
C1148 C 0.51624 0.71407 0.31419 0.0
C1149 C 0.53327 0.71723 0.2773 0.0
C1150 C 0.51399 0.6975 0.3549 0.0
C1151 C 0.53198 0.64738 0.36525 0.0
H1152 H 0.50948 0.64532 0.54355 0.0
C1153 C 0.51191 0.57469 0.49128 0.0
C1154 C 0.51687 0.5719 0.55924 0.0
C1155 C 0.51347 0.59283 0.46075 0.0
C1156 C 0.51584 0.64562 0.49382 0.0
H1157 H 0.56174 0.70586 0.25923 0.0
H1158 H 0.55778 0.67739 0.3285 0.0
H1159 H 0.51281 0.67635 0.48556 0.0
H1160 H 0.52717 0.58662 0.64832 0.0
H1161 H 0.52926 0.61845 0.59583 0.0
H1162 H 0.53489 0.61681 0.37263 0.0
C1163 C 0.54598 0.68741 0.32542 0.0
C1164 C 0.51762 0.66344 0.46027 0.0
C1165 C 0.54828 0.7039 0.28574 0.0
C1166 C 0.52299 0.58812 0.59619 0.0
C1167 C 0.52424 0.60644 0.56591 0.0
C1168 C 0.52991 0.62962 0.39807 0.0
C1169 C 0.52864 0.68357 0.35933 0.0
C1170 C 0.52588 0.66464 0.39553 0.0
C1171 C 0.51971 0.60906 0.49731 0.0
C1172 C 0.52187 0.62836 0.46304 0.0
H1173 H 0.5043 0.72384 0.30887 0.0
H1174 H 0.50042 0.69514 0.3803 0.0
H1175 H 0.53827 0.64754 0.31538 0.0
H1176 H 0.50661 0.56283 0.4614 0.0
H1177 H 0.50953 0.59416 0.40827 0.0
C1178 C 0.81758 0.54719 0.33812 0.0
C1179 C 0.809 0.53249 0.29961 0.0
C1180 C 0.83493 0.54427 0.37257 0.0
C1181 C 0.87861 0.5131 0.37152 0.0
H1182 H 0.88987 0.53984 0.53821 0.0
C1183 C 0.95147 0.50309 0.51463 0.0
C1184 C 0.95963 0.51917 0.54696 0.0
C1185 C 0.93294 0.50389 0.48635 0.0
C1186 C 0.88716 0.53242 0.49122 0.0
H1187 H 0.81206 0.50293 0.26836 0.0
H1188 H 0.84224 0.49756 0.32959 0.0
H1189 H 0.85795 0.54199 0.48909 0.0
H1190 H 0.95423 0.54853 0.57659 0.0
H1191 H 0.92223 0.55014 0.52673 0.0
H1192 H 0.90791 0.50363 0.37357 0.0
C1193 C 0.83555 0.51153 0.33282 0.0
C1194 C 0.86868 0.53362 0.46286 0.0
C1195 C 0.81803 0.51446 0.2985 0.0
C1196 C 0.94856 0.53596 0.55126 0.0
C1197 C 0.93002 0.53677 0.52317 0.0
C1198 C 0.89712 0.51189 0.39994 0.0
C1199 C 0.84452 0.52652 0.36952 0.0
C1200 C 0.86405 0.52414 0.40211 0.0
C1201 C 0.92182 0.52076 0.49007 0.0
C1202 C 0.90182 0.52165 0.46012 0.0
H1203 H 0.81124 0.56136 0.33919 0.0
H1204 H 0.84125 0.55632 0.39908 0.0
H1205 H 0.8759 0.50578 0.32433 0.0
H1206 H 0.95954 0.48989 0.51052 0.0
H1207 H 0.92723 0.49113 0.46234 0.0
loop_
_geom_bond_atom_site_label_1
_geom_bond_atom_site_label_2
_geom_bond_distance
_geom_bond_site_symmetry_2
_ccdc_geom_bond_type
H0 C1 0.949 . S
C1 H0 0.949 . S
C1 C2 1.395 . S
C1 C3 1.391 . S
C2 C1 1.395 . S
C2 C5 1.390 . S
C3 C1 1.391 . S
C3 C7 1.387 . S
C3 C8 1.491 . S
H4 C5 0.950 . S
C5 C2 1.390 . S
C5 H4 0.950 . S
C5 C6 1.378 . S
C6 C5 1.378 . S
C6 C7 1.409 . S
C7 C3 1.387 . S
C7 C6 1.409 . S
C7 H9 0.951 . S
C8 C3 1.491 . S
C8 C10 1.382 . S
C8 C12 1.404 . S
H9 C7 0.951 . S
C10 C8 1.382 . S
C10 C11 1.390 . S
C10 H15 0.949 . S
C11 C10 1.390 . S
C11 C16 1.399 . S
C12 C8 1.404 . S
C12 H13 0.950 . S
C12 C14 1.375 . S
H13 C12 0.950 . S
C14 C12 1.375 . S
C14 C16 1.382 . S
C14 H18 0.950 . S
H15 C10 0.949 . S
C16 C11 1.399 . S
C16 C14 1.382 . S
C16 H17 0.952 . S
H17 C16 0.952 . S
H18 C14 0.950 . S
H19 C20 0.949 . S
C20 H19 0.949 . S
C20 C21 1.395 . S
C20 C22 1.391 . S
C21 C20 1.395 . S
C21 C24 1.390 . S
C22 C20 1.391 . S
C22 C26 1.387 . S
C22 C27 1.491 . S
H23 C24 0.950 . S
C24 C21 1.390 . S
C24 H23 0.950 . S
C24 C25 1.378 . S
C25 C24 1.378 . S
C25 C26 1.409 . S
C26 C22 1.387 . S
C26 C25 1.409 . S
C26 H28 0.951 . S
C27 C22 1.491 . S
C27 C29 1.382 . S
C27 C31 1.404 . S
H28 C26 0.951 . S
C29 C27 1.382 . S
C29 C30 1.390 . S
C29 H34 0.949 . S
C30 C29 1.390 . S
C30 C35 1.399 . S
C31 C27 1.404 . S
C31 H32 0.950 . S
C31 C33 1.375 . S
H32 C31 0.950 . S
C33 C31 1.375 . S
C33 C35 1.382 . S
C33 H37 0.950 . S
H34 C29 0.949 . S
C35 C30 1.399 . S
C35 C33 1.382 . S
C35 H36 0.952 . S
H36 C35 0.952 . S
H37 C33 0.950 . S
H38 C39 0.949 . S
C39 H38 0.949 . S
C39 C40 1.395 . S
C39 C41 1.391 . S
C40 C39 1.395 . S
C40 C43 1.390 . S
C41 C39 1.391 . S
C41 C45 1.387 . S
C41 C46 1.491 . S
H42 C43 0.950 . S
C43 C40 1.390 . S
C43 H42 0.950 . S
C43 C44 1.378 . S
C44 C43 1.378 . S
C44 C45 1.409 . S
C45 C41 1.387 . S
C45 C44 1.409 . S
C45 H47 0.951 . S
C46 C41 1.491 . S
C46 C48 1.382 . S
C46 C50 1.404 . S
H47 C45 0.951 . S
C48 C46 1.382 . S
C48 C49 1.390 . S
C48 H53 0.949 . S
C49 C48 1.390 . S
C49 C54 1.399 . S
C50 C46 1.404 . S
C50 H51 0.950 . S
C50 C52 1.375 . S
H51 C50 0.950 . S
C52 C50 1.375 . S
C52 C54 1.382 . S
C52 H56 0.950 . S
H53 C48 0.949 . S
C54 C49 1.399 . S
C54 C52 1.382 . S
C54 H55 0.952 . S
H55 C54 0.952 . S
H56 C52 0.950 . S
H57 C58 0.949 . S
C58 H57 0.949 . S
C58 C59 1.395 . S
C58 C60 1.391 . S
C59 C58 1.395 . S
C59 C62 1.390 . S
C60 C58 1.391 . S
C60 C64 1.387 . S
C60 C65 1.491 . S
H61 C62 0.950 . S
C62 C59 1.390 . S
C62 H61 0.950 . S
C62 C63 1.378 . S
C63 C62 1.378 . S
C63 C64 1.409 . S
C64 C60 1.387 . S
C64 C63 1.409 . S
C64 H66 0.951 . S
C65 C60 1.491 . S
C65 C67 1.382 . S
C65 C69 1.404 . S
H66 C64 0.951 . S
C67 C65 1.382 . S
C67 C68 1.390 . S
C67 H72 0.949 . S
C68 C67 1.390 . S
C68 C73 1.399 . S
C69 C65 1.404 . S
C69 H70 0.950 . S
C69 C71 1.375 . S
H70 C69 0.950 . S
C71 C69 1.375 . S
C71 C73 1.382 . S
C71 H75 0.950 . S
H72 C67 0.949 . S
C73 C68 1.399 . S
C73 C71 1.382 . S
C73 H74 0.952 . S
H74 C73 0.952 . S
H75 C71 0.950 . S
H76 C77 0.949 . S
C77 H76 0.949 . S
C77 C78 1.395 . S
C77 C79 1.391 . S
C78 C77 1.395 . S
C78 C81 1.403 . S
C79 C77 1.391 . S
C79 C83 1.387 1_554 S
C79 C84 1.491 . S
H80 C81 0.949 1_556 S
C81 C78 1.403 . S
C81 H80 0.949 1_554 S
C81 C82 1.366 1_554 S
C82 C81 1.366 1_556 S
C82 C83 1.409 . S
C83 C79 1.387 1_556 S
C83 C82 1.409 . S
C83 H85 0.951 . S
C84 C79 1.491 . S
C84 C86 1.382 . S
C84 C88 1.404 1_554 S
H85 C83 0.951 . S
C86 C84 1.382 . S
C86 C87 1.390 . S
C86 H91 0.949 . S
C87 C86 1.390 . S
C87 C92 1.399 . S
C88 C84 1.404 1_556 S
C88 H89 0.950 . S
C88 C90 1.375 . S
H89 C88 0.950 . S
C90 C88 1.375 . S
C90 C92 1.382 1_556 S
C90 H94 0.950 . S
H91 C86 0.949 . S
C92 C87 1.399 . S
C92 C90 1.382 1_554 S
C92 H93 0.952 . S
H93 C92 0.952 . S
H94 C90 0.950 . S
H95 C96 0.949 . S
C96 H95 0.949 . S
C96 C97 1.395 . S
C96 C98 1.391 . S
C97 C96 1.395 . S
C97 C100 1.390 . S
C98 C96 1.391 . S
C98 C102 1.387 1_554 S
C98 C103 1.491 . S
H99 C100 0.950 . S
C100 C97 1.390 . S
C100 H99 0.950 . S
C100 C101 1.378 1_554 S
C101 C100 1.378 1_556 S
C101 C102 1.409 . S
C102 C98 1.387 1_556 S
C102 C101 1.409 . S
C102 H104 0.951 . S
C103 C98 1.491 . S
C103 C105 1.382 . S
C103 C107 1.404 1_554 S
H104 C102 0.951 . S
C105 C103 1.382 . S
C105 C106 1.390 . S
C105 H110 0.949 . S
C106 C105 1.390 . S
C106 C111 1.399 . S
C107 C103 1.404 1_556 S
C107 H108 0.950 . S
C107 C109 1.375 . S
H108 C107 0.950 . S
C109 C107 1.375 . S
C109 C111 1.382 1_556 S
C109 H113 0.950 . S
H110 C105 0.949 . S
C111 C106 1.399 . S
C111 C109 1.382 1_554 S
C111 H112 0.952 . S
H112 C111 0.952 . S
H113 C109 0.950 . S
H114 C115 0.949 . S
C115 H114 0.949 . S
C115 C116 1.395 . S
C115 C117 1.391 . S
C116 C115 1.395 . S
C116 C119 1.390 . S
C117 C115 1.391 . S
C117 C121 1.387 1_554 S
C117 C122 1.491 . S
H118 C119 0.950 . S
C119 C116 1.390 . S
C119 H118 0.950 . S
C119 C120 1.378 1_554 S
C120 C119 1.378 1_556 S
C120 C121 1.409 . S
C121 C117 1.387 1_556 S
C121 C120 1.409 . S
C121 H123 0.951 . S
C122 C117 1.491 . S
C122 C124 1.382 . S
C122 C126 1.404 1_554 S
H123 C121 0.951 . S
C124 C122 1.382 . S
C124 C125 1.390 . S
C124 H129 0.949 . S
C125 C124 1.390 . S
C125 C130 1.399 . S
C126 C122 1.404 1_556 S
C126 H127 0.950 . S
C126 C128 1.375 . S
H127 C126 0.950 . S
C128 C126 1.375 . S
C128 C130 1.382 1_556 S
C128 H132 0.950 . S
H129 C124 0.949 . S
C130 C125 1.399 . S
C130 C128 1.382 1_554 S
C130 H131 0.952 . S
H131 C130 0.952 . S
H132 C128 0.950 . S
H133 C134 0.949 . S
C134 H133 0.949 . S
C134 C135 1.395 . S
C134 C136 1.391 . S
C135 C134 1.395 . S
C135 C138 1.390 1_554 S
C136 C134 1.391 . S
C136 C140 1.387 1_554 S
C136 C141 1.491 . S
H137 C138 0.950 . S
C138 C135 1.390 1_556 S
C138 H137 0.950 . S
C138 C139 1.378 . S
C139 C138 1.378 . S
C139 C140 1.409 . S
C140 C136 1.387 1_556 S
C140 C139 1.409 . S
C140 H142 0.951 . S
C141 C136 1.491 . S
C141 C143 1.382 . S
C141 C145 1.404 1_554 S
H142 C140 0.951 . S
C143 C141 1.382 . S
C143 C144 1.390 . S
C143 H148 0.949 . S
C144 C143 1.390 . S
C144 C149 1.399 . S
C145 C141 1.404 1_556 S
C145 H146 0.950 . S
C145 C147 1.375 . S
H146 C145 0.950 . S
C147 C145 1.375 . S
C147 C149 1.382 1_556 S
C147 H151 0.950 . S
H148 C143 0.949 . S
C149 C144 1.399 . S
C149 C147 1.382 1_554 S
C149 H150 0.952 . S
H150 C149 0.952 . S
H151 C147 0.950 . S
Tb152 N181 2.617 . S
Tb152 N187 2.572 . S
Tb152 O196 2.465 1_655 S
Tb152 O197 2.387 1_545 S
Tb152 O199 2.428 . S
Tb152 O200 2.308 1_655 S
Tb152 O204 2.349 1_655 S
Tb152 O207 2.393 . S
Tb152 C216 2.802 . S
C153 N154 1.379 . S
C153 C156 1.416 . S
C153 C160 1.424 . S
N154 C153 1.379 . S
N154 C157 1.334 . S
N154 Tb163 2.617 1_545 S
C155 C157 1.390 . S
C155 C158 1.339 . S
C155 H175 0.930 . S
C156 C153 1.416 . S
C156 C158 1.416 . S
C156 C162 1.448 . S
C157 N154 1.334 . S
C157 C155 1.390 . S
C157 H168 0.930 1_545 S
C158 C155 1.339 . S
C158 C156 1.416 . S
C158 H179 0.930 . S
C159 C160 1.413 . S
C159 C161 1.427 . S
C159 C165 1.416 . S
C160 C153 1.424 . S
C160 C159 1.413 . S
C160 N164 1.361 . S
C161 C159 1.427 . S
C161 C162 1.328 . S
C161 H176 0.929 . S
C162 C156 1.448 . S
C162 C161 1.328 . S
C162 H177 0.930 . S
Tb163 N154 2.617 1_565 S
Tb163 N164 2.572 1_565 S
Tb163 O198 2.349 . S
Tb163 O201 2.393 1_565 S
Tb163 O202 2.465 . S
Tb163 O203 2.387 1_565 S
Tb163 O205 2.428 . S
Tb163 O206 2.308 1_465 S
Tb163 C227 2.802 . S
N164 C160 1.361 . S
N164 Tb163 2.572 1_545 S
N164 C166 1.340 . S
C165 C159 1.416 . S
C165 C167 1.332 . S
C165 H173 0.931 . S
C166 N164 1.340 . S
C166 C167 1.407 . S
C166 H172 0.930 1_455 S
C167 C165 1.332 . S
C167 C166 1.407 . S
C167 H169 0.929 1_455 S
H168 C157 0.930 1_565 S
H169 C167 0.929 1_655 S
H170 C185 0.930 . S
H171 C192 0.935 . S
H172 C166 0.930 1_655 S
H173 C165 0.931 . S
H174 C188 0.930 . S
H175 C155 0.930 . S
H176 C161 0.929 . S
H177 C162 0.930 . S
H178 C183 0.930 . S
H179 C158 0.930 . S
H180 C191 0.931 . S
N181 Tb152 2.617 . S
N181 C182 1.379 . S
N181 C185 1.334 . S
C182 N181 1.379 . S
C182 C184 1.435 . S
C182 C190 1.424 . S
C183 H178 0.930 . S
C183 C185 1.390 . S
C183 C186 1.339 . S
C184 C182 1.435 . S
C184 C186 1.421 . S
C184 C217 1.426 1_545 S
C185 H170 0.930 . S
C185 N181 1.334 . S
C185 C183 1.390 . S
C186 C183 1.339 . S
C186 C184 1.421 . S
C186 H193 0.930 1_545 S
N187 Tb152 2.572 . S
N187 C188 1.340 1_655 S
N187 C190 1.361 . S
C188 H174 0.930 . S
C188 N187 1.340 1_455 S
C188 C192 1.407 . S
C189 C190 1.413 1_565 S
C189 C191 1.416 . S
C189 C218 1.427 . S
C190 C182 1.424 . S
C190 N187 1.361 . S
C190 C189 1.413 1_545 S
C191 H180 0.931 . S
C191 C189 1.416 . S
C191 C192 1.332 1_665 S
C192 H171 0.935 . S
C192 C188 1.407 . S
C192 C191 1.332 1_445 S
H193 C186 0.930 1_565 S
H194 C217 0.930 . S
H195 C218 0.929 . S
O196 Tb152 2.465 1_455 S
O196 C216 1.264 1_455 S
O197 Tb152 2.387 1_565 S
O197 C208 1.264 . S
O198 Tb163 2.349 . S
O198 C208 1.243 1_455 S
O199 Tb152 2.428 . S
O199 C216 1.256 . S
O200 Tb152 2.308 1_455 S
O200 C215 1.266 . S
O201 Tb163 2.393 1_545 S
O201 C215 1.248 . S
O202 Tb163 2.465 . S
O202 C227 1.264 . S
O203 Tb163 2.387 1_545 S
O203 C219 1.264 . S
O204 Tb152 2.349 1_455 S
O204 C219 1.243 . S
O205 Tb163 2.428 . S
O205 C227 1.256 . S
O206 Tb163 2.308 1_645 S
O206 C226 1.266 . S
O207 Tb152 2.393 . S
O207 C226 1.248 . S
C208 O197 1.264 . S
C208 O198 1.243 1_655 S
C209 C212 1.399 . S
C209 C214 1.383 1_655 S
C209 C216 1.496 . S
C210 C211 1.399 1_455 S
C210 C214 1.389 . S
C211 C210 1.399 1_655 S
C211 C213 1.380 . S
C211 H228 0.929 . S
C212 C209 1.399 . S
C212 C213 1.392 . S
C212 H229 0.929 . S
C213 C211 1.380 . S
C213 C212 1.392 . S
C213 H230 0.929 . S
C214 C209 1.383 1_455 S
C214 C210 1.389 . S
C214 H231 0.931 . S
C215 O200 1.266 . S
C215 O201 1.248 . S
C216 Tb152 2.802 . S
C216 O196 1.264 1_655 S
C216 O199 1.256 . S
C216 C209 1.496 . S
C217 C184 1.426 1_565 S
C217 H194 0.930 . S
C217 C218 1.328 . S
C218 C189 1.427 . S
C218 H195 0.929 . S
C218 C217 1.328 . S
C219 O203 1.264 . S
C219 O204 1.243 . S
C220 C223 1.399 . S
C220 C224 1.383 . S
C220 C227 1.496 . S
C221 C222 1.399 . S
C221 C224 1.389 . S
C222 C221 1.399 . S
C222 C225 1.380 . S
C222 H232 0.929 . S
C223 C220 1.399 . S
C223 C225 1.392 . S
C223 H233 0.929 . S
C224 C220 1.383 . S
C224 C221 1.389 . S
C224 H234 0.931 1_455 S
C225 C222 1.380 . S
C225 C223 1.392 . S
C225 H235 0.929 . S
C226 O206 1.266 . S
C226 O207 1.248 . S
C227 Tb163 2.802 . S
C227 O202 1.264 . S
C227 O205 1.256 . S
C227 C220 1.496 . S
H228 C211 0.929 . S
H229 C212 0.929 . S
H230 C213 0.929 . S
H231 C214 0.931 . S
H232 C222 0.929 . S
H233 C223 0.929 . S
H234 C224 0.931 1_655 S
H235 C225 0.929 . S
Tb236 N265 2.617 . S
Tb236 N271 2.572 . S
Tb236 O280 2.465 . S
Tb236 O281 2.387 . S
Tb236 O283 2.428 . S
Tb236 O284 2.308 . S
Tb236 O288 2.349 1_545 S
Tb236 O291 2.393 . S
Tb236 C300 2.802 . S
C237 N238 1.379 . S
C237 C240 1.416 . S
C237 C244 1.424 . S
N238 C237 1.379 . S
N238 C241 1.334 . S
N238 Tb247 2.617 . S
C239 C241 1.390 . S
C239 C242 1.339 . S
C239 H259 0.930 . S
C240 C237 1.416 . S
C240 C242 1.416 . S
C240 C246 1.448 . S
C241 N238 1.334 . S
C241 C239 1.390 . S
C241 H252 0.930 . S
C242 C239 1.339 . S
C242 C240 1.416 . S
C242 H263 0.930 . S
C243 C244 1.413 . S
C243 C245 1.427 . S
C243 C249 1.416 . S
C244 C237 1.424 . S
C244 C243 1.413 . S
C244 N248 1.361 . S
C245 C243 1.427 . S
C245 C246 1.328 . S
C245 H260 0.929 . S
C246 C240 1.448 . S
C246 C245 1.328 . S
C246 H261 0.930 . S
Tb247 N238 2.617 . S
Tb247 N248 2.572 . S
Tb247 O282 2.349 1_565 S
Tb247 O285 2.400 . S
Tb247 O286 2.465 1_565 S
Tb247 O287 2.387 . S
Tb247 O289 2.428 . S
Tb247 O290 2.308 1_565 S
Tb247 C311 2.802 1_565 S
N248 C244 1.361 . S
N248 Tb247 2.572 . S
N248 C250 1.340 . S
C249 C243 1.416 . S
C249 C251 1.332 . S
C249 H257 0.931 . S
C250 N248 1.340 . S
C250 C251 1.407 . S
C250 H256 0.930 . S
C251 C249 1.332 . S
C251 C250 1.407 . S
C251 H253 0.929 . S
H252 C241 0.930 . S
H253 C251 0.929 . S
H254 C269 0.930 . S
H255 C276 0.929 . S
H256 C250 0.930 . S
H257 C249 0.931 . S
H258 C272 0.930 . S
H259 C239 0.930 . S
H260 C245 0.929 . S
H261 C246 0.930 . S
H262 C267 0.930 . S
H263 C242 0.930 . S
H264 C275 0.931 . S
N265 Tb236 2.617 . S
N265 C266 1.379 . S
N265 C269 1.334 . S
C266 N265 1.379 . S
C266 C268 1.416 . S
C266 C274 1.424 . S
C267 H262 0.930 . S
C267 C269 1.390 . S
C267 C270 1.339 . S
C268 C266 1.416 . S
C268 C270 1.416 . S
C268 C301 1.448 . S
C269 H254 0.930 . S
C269 N265 1.334 . S
C269 C267 1.390 . S
C270 C267 1.339 . S
C270 C268 1.416 . S
C270 H277 0.930 . S
N271 Tb236 2.572 . S
N271 C272 1.340 . S
N271 C274 1.361 . S
C272 H258 0.930 . S
C272 N271 1.340 . S
C272 C276 1.407 . S
C273 C274 1.413 . S
C273 C275 1.416 . S
C273 C302 1.427 . S
C274 C266 1.424 . S
C274 N271 1.361 . S
C274 C273 1.413 . S
C275 H264 0.931 . S
C275 C273 1.416 . S
C275 C276 1.332 . S
C276 H255 0.929 . S
C276 C272 1.407 . S
C276 C275 1.332 . S
H277 C270 0.930 . S
H278 C301 0.930 . S
H279 C302 0.929 . S
O280 Tb236 2.465 . S
O280 C300 1.264 . S
O281 Tb236 2.387 . S
O281 C292 1.264 . S
O282 Tb247 2.349 1_545 S
O282 C292 1.243 . S
O283 Tb236 2.428 . S
O283 C300 1.256 . S
O284 Tb236 2.308 . S
O284 C299 1.266 . S
O285 Tb247 2.400 . S
O285 C299 1.230 1_565 S
O286 Tb247 2.465 1_545 S
O286 C311 1.264 . S
O287 Tb247 2.387 . S
O287 C303 1.264 . S
O288 Tb236 2.349 1_565 S
O288 C303 1.243 . S
O289 Tb247 2.428 . S
O289 C311 1.256 1_565 S
O290 Tb247 2.308 1_545 S
O290 C310 1.266 . S
O291 Tb236 2.393 . S
O291 C310 1.248 . S
C292 O281 1.264 . S
C292 O282 1.243 . S
C293 C296 1.399 . S
C293 C298 1.383 . S
C293 C300 1.496 . S
C294 C295 1.399 . S
C294 C298 1.389 . S
C295 C294 1.399 . S
C295 C297 1.380 . S
C295 H312 0.929 . S
C296 C293 1.399 . S
C296 C297 1.392 . S
C296 H313 0.929 . S
C297 C295 1.380 . S
C297 C296 1.392 . S
C297 H314 0.929 1_556 S
C298 C293 1.383 . S
C298 C294 1.389 . S
C298 H315 0.931 . S
C299 O284 1.266 . S
C299 O285 1.230 1_545 S
C300 Tb236 2.802 . S
C300 O280 1.264 . S
C300 O283 1.256 . S
C300 C293 1.496 . S
C301 C268 1.448 . S
C301 H278 0.930 . S
C301 C302 1.328 . S
C302 C273 1.427 . S
C302 H279 0.929 . S
C302 C301 1.328 . S
C303 O287 1.264 . S
C303 O288 1.243 . S
C304 C307 1.406 . S
C304 C308 1.383 . S
C304 C311 1.496 . S
C305 C306 1.399 . S
C305 C308 1.389 . S
C306 C305 1.399 . S
C306 C309 1.380 . S
C306 H316 0.929 . S
C307 C304 1.406 . S
C307 C309 1.396 . S
C307 H317 0.920 1_545 S
C308 C304 1.383 . S
C308 C305 1.389 . S
C308 H318 0.931 . S
C309 C306 1.380 . S
C309 C307 1.396 . S
C309 H319 0.932 . S
C310 O290 1.266 . S
C310 O291 1.248 . S
C311 Tb247 2.802 1_545 S
C311 O286 1.264 . S
C311 O289 1.256 1_545 S
C311 C304 1.496 . S
H312 C295 0.929 . S
H313 C296 0.929 . S
H314 C297 0.929 1_554 S
H315 C298 0.931 . S
H316 C306 0.929 . S
H317 C307 0.920 1_565 S
H318 C308 0.931 . S
H319 C309 0.932 . S
Tb320 N349 2.617 . S
Tb320 N355 2.572 . S
Tb320 O364 2.465 . S
Tb320 O365 2.387 . S
Tb320 O367 2.428 . S
Tb320 O368 2.308 . S
Tb320 O372 2.349 . S
Tb320 O375 2.393 . S
Tb320 C384 2.802 . S
C321 N322 1.379 . S
C321 C324 1.416 . S
C321 C328 1.424 . S
N322 C321 1.379 . S
N322 C325 1.334 . S
N322 Tb331 2.617 . S
C323 C325 1.390 . S
C323 C326 1.339 . S
C323 H343 0.930 . S
C324 C321 1.416 . S
C324 C326 1.416 . S
C324 C330 1.448 . S
C325 N322 1.334 . S
C325 C323 1.390 . S
C325 H336 0.930 . S
C326 C323 1.339 . S
C326 C324 1.416 . S
C326 H347 0.930 . S
C327 C328 1.413 . S
C327 C329 1.427 . S
C327 C333 1.416 . S
C328 C321 1.424 . S
C328 C327 1.413 . S
C328 N332 1.361 . S
C329 C327 1.427 . S
C329 C330 1.328 . S
C329 H344 0.929 . S
C330 C324 1.448 . S
C330 C329 1.328 . S
C330 H345 0.930 . S
Tb331 N322 2.617 . S
Tb331 N332 2.572 . S
Tb331 O366 2.349 . S
Tb331 O369 2.393 . S
Tb331 O370 2.465 . S
Tb331 O371 2.387 . S
Tb331 O373 2.428 . S
Tb331 O374 2.308 . S
Tb331 C395 2.802 . S
N332 C328 1.361 . S
N332 Tb331 2.572 . S
N332 C334 1.340 . S
C333 C327 1.416 . S
C333 C335 1.332 . S
C333 H341 0.931 . S
C334 N332 1.340 . S
C334 C335 1.407 . S
C334 H340 0.930 . S
C335 C333 1.332 . S
C335 C334 1.407 . S
C335 H337 0.929 . S
H336 C325 0.930 . S
H337 C335 0.929 . S
H338 C353 0.930 . S
H339 C360 0.929 . S
H340 C334 0.930 . S
H341 C333 0.931 . S
H342 C356 0.930 . S
H343 C323 0.930 . S
H344 C329 0.929 . S
H345 C330 0.930 . S
H346 C351 0.930 . S
H347 C326 0.930 . S
H348 C359 0.931 . S
N349 Tb320 2.617 . S
N349 C350 1.379 . S
N349 C353 1.334 . S
C350 N349 1.379 . S
C350 C352 1.416 . S
C350 C358 1.424 . S
C351 H346 0.930 . S
C351 C353 1.390 . S
C351 C354 1.339 . S
C352 C350 1.416 . S
C352 C354 1.416 . S
C352 C385 1.448 . S
C353 H338 0.930 . S
C353 N349 1.334 . S
C353 C351 1.390 . S
C354 C351 1.339 . S
C354 C352 1.416 . S
C354 H361 0.930 . S
N355 Tb320 2.572 . S
N355 C356 1.340 . S
N355 C358 1.361 . S
C356 H342 0.930 . S
C356 N355 1.340 . S
C356 C360 1.407 . S
C357 C358 1.413 . S
C357 C359 1.416 . S
C357 C386 1.427 . S
C358 C350 1.424 . S
C358 N355 1.361 . S
C358 C357 1.413 . S
C359 H348 0.931 . S
C359 C357 1.416 . S
C359 C360 1.332 . S
C360 H339 0.929 . S
C360 C356 1.407 . S
C360 C359 1.332 . S
H361 C354 0.930 . S
H362 C385 0.930 . S
H363 C386 0.929 . S
O364 Tb320 2.465 . S
O364 C384 1.264 . S
O365 Tb320 2.387 . S
O365 C376 1.264 . S
O366 Tb331 2.349 . S
O366 C376 1.243 . S
O367 Tb320 2.428 . S
O367 C384 1.256 . S
O368 Tb320 2.308 . S
O368 C383 1.266 . S
O369 Tb331 2.393 . S
O369 C383 1.248 . S
O370 Tb331 2.465 . S
O370 C395 1.264 . S
O371 Tb331 2.387 . S
O371 C387 1.264 . S
O372 Tb320 2.349 . S
O372 C387 1.243 . S
O373 Tb331 2.428 . S
O373 C395 1.256 . S
O374 Tb331 2.308 . S
O374 C394 1.266 . S
O375 Tb320 2.393 . S
O375 C394 1.248 . S
C376 O365 1.264 . S
C376 O366 1.243 . S
C377 C380 1.399 . S
C377 C382 1.383 . S
C377 C384 1.496 . S
C378 C379 1.399 . S
C378 C382 1.389 . S
C379 C378 1.399 . S
C379 C381 1.380 . S
C379 H396 0.929 . S
C380 C377 1.399 . S
C380 C381 1.392 . S
C380 H397 0.929 . S
C381 C379 1.380 . S
C381 C380 1.392 . S
C381 H398 0.929 . S
C382 C377 1.383 . S
C382 C378 1.389 . S
C382 H399 0.931 . S
C383 O368 1.266 . S
C383 O369 1.248 . S
C384 Tb320 2.802 . S
C384 O364 1.264 . S
C384 O367 1.256 . S
C384 C377 1.496 . S
C385 C352 1.448 . S
C385 H362 0.930 . S
C385 C386 1.328 . S
C386 C357 1.427 . S
C386 H363 0.929 . S
C386 C385 1.328 . S
C387 O371 1.264 . S
C387 O372 1.243 . S
C388 C391 1.399 . S
C388 C392 1.383 . S
C388 C395 1.496 . S
C389 C390 1.399 . S
C389 C392 1.389 . S
C390 C389 1.399 . S
C390 C393 1.380 . S
C390 H400 0.929 . S
C391 C388 1.399 . S
C391 C393 1.392 . S
C391 H401 0.929 . S
C392 C388 1.383 . S
C392 C389 1.389 . S
C392 H402 0.931 . S
C393 C390 1.380 . S
C393 C391 1.392 . S
C393 H403 0.929 . S
C394 O374 1.266 . S
C394 O375 1.248 . S
C395 Tb331 2.802 . S
C395 O370 1.264 . S
C395 O373 1.256 . S
C395 C388 1.496 . S
H396 C379 0.929 . S
H397 C380 0.929 . S
H398 C381 0.929 . S
H399 C382 0.931 . S
H400 C390 0.929 . S
H401 C391 0.929 . S
H402 C392 0.931 . S
H403 C393 0.929 . S
Tb404 N433 2.617 . S
Tb404 N439 2.572 . S
Tb404 O448 2.465 . S
Tb404 O449 2.387 1_455 S
Tb404 O451 2.428 . S
Tb404 O452 2.308 . S
Tb404 O456 2.349 . S
Tb404 O459 2.393 . S
Tb404 C468 2.802 . S
C405 N406 1.378 . S
C405 C408 1.416 . S
C405 C412 1.424 . S
N406 C405 1.378 . S
N406 C409 1.335 1_455 S
N406 Tb415 2.618 1_455 S
C407 C409 1.390 1_455 S
C407 C410 1.339 . S
C407 H427 0.930 . S
C408 C405 1.416 . S
C408 C410 1.416 . S
C408 C414 1.448 . S
C409 N406 1.335 1_655 S
C409 C407 1.390 1_655 S
C409 H420 0.930 . S
C410 C407 1.339 . S
C410 C408 1.416 . S
C410 H431 0.930 . S
C411 C412 1.413 . S
C411 C413 1.427 . S
C411 C417 1.416 . S
C412 C405 1.424 . S
C412 C411 1.413 . S
C412 N416 1.361 . S
C413 C411 1.427 . S
C413 C414 1.328 . S
C413 H428 0.929 . S
C414 C408 1.448 . S
C414 C413 1.328 . S
C414 H429 0.930 . S
Tb415 N406 2.618 1_655 S
Tb415 N416 2.572 1_655 S
Tb415 O450 2.349 . S
Tb415 O453 2.393 . S
Tb415 O454 2.465 . S
Tb415 O455 2.387 1_655 S
Tb415 O457 2.428 . S
Tb415 O458 2.308 1_655 S
Tb415 C479 2.802 . S
N416 C412 1.361 . S
N416 Tb415 2.572 1_455 S
N416 C418 1.340 . S
C417 C411 1.416 . S
C417 C419 1.332 . S
C417 H425 0.931 . S
C418 N416 1.340 . S
C418 C419 1.407 . S
C418 H424 0.930 . S
C419 C417 1.332 . S
C419 C418 1.407 . S
C419 H421 0.929 . S
H420 C409 0.930 . S
H421 C419 0.929 . S
H422 C437 0.930 . S
H423 C444 0.929 . S
H424 C418 0.930 . S
H425 C417 0.931 . S
H426 C440 0.930 . S
H427 C407 0.930 . S
H428 C413 0.929 . S
H429 C414 0.930 . S
H430 C435 0.930 . S
H431 C410 0.930 . S
H432 C443 0.931 . S
N433 Tb404 2.617 . S
N433 C434 1.379 . S
N433 C437 1.334 . S
C434 N433 1.379 . S
C434 C436 1.416 1_455 S
C434 C442 1.424 . S
C435 H430 0.930 . S
C435 C437 1.390 . S
C435 C438 1.320 1_455 S
C436 C434 1.416 1_655 S
C436 C438 1.420 . S
C436 C469 1.448 . S
C437 H422 0.930 . S
C437 N433 1.334 . S
C437 C435 1.390 . S
C438 C435 1.320 1_655 S
C438 C436 1.420 . S
C438 H445 0.946 . S
N439 Tb404 2.572 . S
N439 C440 1.340 . S
N439 C442 1.361 . S
C440 H426 0.930 . S
C440 N439 1.340 . S
C440 C444 1.407 1_455 S
C441 C442 1.413 1_655 S
C441 C443 1.416 . S
C441 C470 1.427 . S
C442 C434 1.424 . S
C442 N439 1.361 . S
C442 C441 1.413 1_455 S
C443 H432 0.931 . S
C443 C441 1.416 . S
C443 C444 1.332 . S
C444 H423 0.929 . S
C444 C440 1.407 1_655 S
C444 C443 1.332 . S
H445 C438 0.946 . S
H446 C469 0.930 . S
H447 C470 0.929 . S
O448 Tb404 2.465 . S
O448 C468 1.264 . S
O449 Tb404 2.387 1_655 S
O449 C460 1.264 . S
O450 Tb415 2.349 . S
O450 C460 1.243 . S
O451 Tb404 2.428 . S
O451 C468 1.256 . S
O452 Tb404 2.308 . S
O452 C467 1.266 . S
O453 Tb415 2.393 . S
O453 C467 1.248 1_655 S
O454 Tb415 2.465 . S
O454 C479 1.264 . S
O455 Tb415 2.387 1_455 S
O455 C471 1.264 . S
O456 Tb404 2.349 . S
O456 C471 1.243 . S
O457 Tb415 2.428 . S
O457 C479 1.256 . S
O458 Tb415 2.308 1_455 S
O458 C478 1.266 . S
O459 Tb404 2.393 . S
O459 C478 1.248 . S
C460 O449 1.264 . S
C460 O450 1.243 . S
C461 C464 1.399 . S
C461 C466 1.383 . S
C461 C468 1.496 . S
C462 C463 1.399 . S
C462 C466 1.389 . S
C463 C462 1.399 . S
C463 C465 1.380 . S
C463 H480 0.929 . S
C464 C461 1.399 . S
C464 C465 1.392 . S
C464 H481 0.929 . S
C465 C463 1.380 . S
C465 C464 1.392 . S
C465 H482 0.929 . S
C466 C461 1.383 . S
C466 C462 1.389 . S
C466 H483 0.931 . S
C467 O452 1.266 . S
C467 O453 1.248 1_455 S
C468 Tb404 2.802 . S
C468 O448 1.264 . S
C468 O451 1.256 . S
C468 C461 1.496 . S
C469 C436 1.448 . S
C469 H446 0.930 . S
C469 C470 1.328 . S
C470 C441 1.427 . S
C470 H447 0.929 . S
C470 C469 1.328 . S
C471 O455 1.264 . S
C471 O456 1.243 . S
C472 C475 1.399 . S
C472 C476 1.383 . S
C472 C479 1.496 . S
C473 C474 1.399 . S
C473 C476 1.389 . S
C474 C473 1.399 . S
C474 C477 1.380 . S
C474 H484 0.929 . S
C475 C472 1.399 . S
C475 C477 1.392 . S
C475 H485 0.929 . S
C476 C472 1.383 . S
C476 C473 1.389 . S
C476 H486 0.931 . S
C477 C474 1.380 . S
C477 C475 1.392 . S
C477 H487 0.929 . S
C478 O458 1.266 . S
C478 O459 1.248 . S
C479 Tb415 2.802 . S
C479 O454 1.264 . S
C479 O457 1.256 . S
C479 C472 1.496 . S
H480 C463 0.929 . S
H481 C464 0.929 . S
H482 C465 0.929 . S
H483 C466 0.931 . S
H484 C474 0.929 . S
H485 C475 0.929 . S
H486 C476 0.931 . S
H487 C477 0.929 . S
C488 C489 1.349 . S
C488 C490 1.327 . S
C488 H513 0.950 . S
C489 C488 1.349 . S
C489 C505 1.349 . S
C490 C488 1.327 . S
C490 C509 1.429 . S
C490 H514 0.950 . S
C491 C508 1.574 . S
C491 C510 1.368 . S
C491 H515 0.949 . S
H492 C496 0.992 . S
C493 C494 1.349 . S
C493 C495 1.327 . S
C493 H516 0.950 . S
C494 C493 1.349 . S
C494 C506 1.349 . S
C495 C493 1.327 . S
C495 C511 1.429 . S
C495 H517 0.950 . S
C496 H492 0.992 . S
C496 C504 1.574 . S
C496 C512 1.368 . S
H497 C505 0.950 . S
H498 C503 0.950 . S
H499 C504 0.949 . S
H500 C506 0.950 1_565 S
H501 C507 0.950 1_565 S
H502 C508 0.949 . S
C503 H498 0.950 . S
C503 C505 1.327 . S
C503 C509 1.429 . S
C504 C496 1.574 . S
C504 H499 0.949 . S
C504 C510 1.368 . S
C505 C489 1.349 . S
C505 H497 0.950 . S
C505 C503 1.327 . S
C506 C494 1.349 . S
C506 H500 0.950 1_545 S
C506 C507 1.327 . S
C507 H501 0.950 1_545 S
C507 C506 1.327 . S
C507 C511 1.429 . S
C508 C491 1.574 . S
C508 H502 0.949 . S
C508 C512 1.368 . S
C509 C490 1.429 . S
C509 C503 1.429 . S
C509 C510 1.523 . S
C510 C491 1.368 . S
C510 C504 1.368 . S
C510 C509 1.523 . S
C511 C495 1.429 . S
C511 C507 1.429 . S
C511 C512 1.523 . S
C512 C496 1.368 . S
C512 C508 1.368 . S
C512 C511 1.523 . S
H513 C488 0.950 . S
H514 C490 0.950 . S
H515 C491 0.949 . S
H516 C493 0.950 . S
H517 C495 0.950 . S
C518 C519 1.349 . S
C518 C520 1.327 . S
C518 H543 0.950 . S
C519 C518 1.349 . S
C519 C535 1.349 . S
C520 C518 1.327 . S
C520 C539 1.429 . S
C520 H544 0.950 . S
C521 C538 1.574 . S
C521 C540 1.368 . S
C521 H545 0.949 . S
H522 C526 0.949 . S
C523 C524 1.349 . S
C523 C525 1.327 . S
C523 H546 0.950 . S
C524 C523 1.349 . S
C524 C536 1.349 . S
C525 C523 1.327 . S
C525 C541 1.429 . S
C525 H547 0.950 . S
C526 H522 0.949 . S
C526 C534 1.574 . S
C526 C542 1.368 . S
H527 C535 0.950 . S
H528 C533 0.950 . S
H529 C534 0.949 . S
H530 C536 0.950 . S
H531 C537 0.950 . S
H532 C538 0.949 . S
C533 H528 0.950 . S
C533 C535 1.327 . S
C533 C539 1.429 . S
C534 C526 1.574 . S
C534 H529 0.949 . S
C534 C540 1.368 . S
C535 C519 1.349 . S
C535 H527 0.950 . S
C535 C533 1.327 . S
C536 C524 1.349 . S
C536 H530 0.950 . S
C536 C537 1.327 . S
C537 H531 0.950 . S
C537 C536 1.327 . S
C537 C541 1.429 . S
C538 C521 1.574 . S
C538 H532 0.949 . S
C538 C542 1.368 . S
C539 C520 1.429 . S
C539 C533 1.429 . S
C539 C540 1.523 . S
C540 C521 1.368 . S
C540 C534 1.368 . S
C540 C539 1.523 . S
C541 C525 1.429 . S
C541 C537 1.429 . S
C541 C542 1.523 . S
C542 C526 1.368 . S
C542 C538 1.368 . S
C542 C541 1.523 . S
H543 C518 0.950 . S
H544 C520 0.950 . S
H545 C521 0.949 . S
H546 C523 0.950 . S
H547 C525 0.950 . S
C548 C549 1.349 . S
C548 C550 1.327 . S
C548 H573 0.950 . S
C549 C548 1.349 . S
C549 C565 1.349 . S
C550 C548 1.327 . S
C550 C569 1.429 . S
C550 H574 0.950 . S
C551 C568 1.574 . S
C551 C570 1.368 . S
C551 H575 0.949 . S
H552 C556 0.949 . S
C553 C554 1.349 . S
C553 C555 1.327 . S
C553 H576 0.950 . S
C554 C553 1.349 . S
C554 C566 1.349 . S
C555 C553 1.327 . S
C555 C571 1.429 . S
C555 H577 0.950 . S
C556 H552 0.949 . S
C556 C564 1.574 . S
C556 C572 1.368 . S
H557 C565 0.950 . S
H558 C563 0.950 . S
H559 C564 0.949 . S
H560 C566 0.950 . S
H561 C567 0.950 . S
H562 C568 0.949 . S
C563 H558 0.950 . S
C563 C565 1.327 . S
C563 C569 1.429 . S
C564 C556 1.574 . S
C564 H559 0.949 . S
C564 C570 1.368 . S
C565 C549 1.349 . S
C565 H557 0.950 . S
C565 C563 1.327 . S
C566 C554 1.349 . S
C566 H560 0.950 . S
C566 C567 1.327 . S
C567 H561 0.950 . S
C567 C566 1.327 . S
C567 C571 1.429 . S
C568 C551 1.574 . S
C568 H562 0.949 . S
C568 C572 1.368 . S
C569 C550 1.429 . S
C569 C563 1.429 . S
C569 C570 1.523 . S
C570 C551 1.368 . S
C570 C564 1.368 . S
C570 C569 1.523 . S
C571 C555 1.429 . S
C571 C567 1.429 . S
C571 C572 1.523 . S
C572 C556 1.368 . S
C572 C568 1.368 . S
C572 C571 1.523 . S
H573 C548 0.950 . S
H574 C550 0.950 . S
H575 C551 0.949 . S
H576 C553 0.950 . S
H577 C555 0.950 . S
C578 C579 1.349 . S
C578 C580 1.327 . S
C578 H603 0.950 . S
C579 C578 1.349 . S
C579 C595 1.349 . S
C580 C578 1.327 . S
C580 C599 1.429 . S
C580 H604 0.950 . S
C581 C598 1.574 . S
C581 C600 1.368 . S
C581 H605 0.949 1_455 S
H582 C586 0.949 . S
C583 C584 1.349 1_655 S
C583 C585 1.322 1_655 S
C583 H606 0.950 . S
C584 C583 1.349 1_455 S
C584 C596 1.349 . S
C585 C583 1.322 1_455 S
C585 C601 1.480 . S
C585 H607 0.904 1_455 S
C586 H582 0.949 . S
C586 C594 1.574 . S
C586 C602 1.368 . S
H587 C595 0.950 . S
H588 C593 0.950 . S
H589 C594 0.949 . S
H590 C596 0.950 . S
H591 C597 0.950 . S
H592 C598 0.949 1_655 S
C593 H588 0.950 . S
C593 C595 1.327 . S
C593 C599 1.429 . S
C594 C586 1.574 . S
C594 H589 0.949 . S
C594 C600 1.368 . S
C595 C579 1.349 . S
C595 H587 0.950 . S
C595 C593 1.327 . S
C596 C584 1.349 . S
C596 H590 0.950 . S
C596 C597 1.327 . S
C597 H591 0.950 . S
C597 C596 1.327 . S
C597 C601 1.429 . S
C598 C581 1.574 . S
C598 H592 0.949 1_455 S
C598 C602 1.368 . S
C599 C580 1.429 . S
C599 C593 1.429 . S
C599 C600 1.523 . S
C600 C581 1.368 . S
C600 C594 1.368 . S
C600 C599 1.523 . S
C601 C585 1.480 . S
C601 C597 1.429 . S
C601 C602 1.523 . S
C602 C586 1.368 . S
C602 C598 1.368 . S
C602 C601 1.523 . S
H603 C578 0.950 . S
H604 C580 0.950 . S
H605 C581 0.949 1_655 S
H606 C583 0.950 . S
H607 C585 0.904 1_655 S
C608 C609 1.349 . S
C608 C610 1.327 . S
C608 H633 0.950 . S
C609 C608 1.349 . S
C609 C625 1.349 . S
C610 C608 1.327 . S
C610 C629 1.429 . S
C610 H634 0.950 . S
C611 C628 1.574 . S
C611 C630 1.368 1_545 S
C611 H635 0.949 . S
H612 C616 0.949 . S
C613 C614 1.349 . S
C613 C615 1.327 . S
C613 H636 0.950 . S
C614 C613 1.349 . S
C614 C626 1.349 1_545 S
C615 C613 1.327 . S
C615 C631 1.429 1_545 S
C615 H637 0.950 . S
C616 H612 0.949 . S
C616 C624 1.574 . S
C616 C632 1.368 . S
H617 C625 0.950 1_545 S
H618 C623 0.950 . S
H619 C624 0.949 . S
H620 C626 0.950 . S
H621 C627 0.950 . S
H622 C628 0.949 . S
C623 H618 0.950 . S
C623 C625 1.327 1_545 S
C623 C629 1.429 1_545 S
C624 C616 1.574 . S
C624 H619 0.949 . S
C624 C630 1.368 . S
C625 C609 1.349 . S
C625 H617 0.950 1_565 S
C625 C623 1.327 1_565 S
C626 C614 1.349 1_565 S
C626 H620 0.950 . S
C626 C627 1.327 . S
C627 H621 0.950 . S
C627 C626 1.327 . S
C627 C631 1.429 . S
C628 C611 1.574 . S
C628 H622 0.949 . S
C628 C632 1.368 1_545 S
C629 C610 1.429 . S
C629 C623 1.429 1_565 S
C629 C630 1.523 1_554 S
C630 C611 1.368 1_565 S
C630 C624 1.368 . S
C630 C629 1.523 1_556 S
C631 C615 1.429 1_565 S
C631 C627 1.429 . S
C631 C632 1.523 . S
C632 C616 1.368 . S
C632 C628 1.368 1_565 S
C632 C631 1.523 . S
H633 C608 0.950 . S
H634 C610 0.950 . S
H635 C611 0.949 . S
H636 C613 0.950 . S
H637 C615 0.950 . S
C638 C639 1.349 . S
C638 C640 1.327 . S
C638 H663 0.950 . S
C639 C638 1.349 . S
C639 C655 1.349 . S
C640 C638 1.327 . S
C640 C659 1.429 . S
C640 H664 0.950 . S
C641 C658 1.574 . S
C641 C660 1.368 . S
C641 H665 0.949 . S
H642 C646 0.949 . S
C643 C644 1.349 . S
C643 C645 1.327 . S
C643 H666 0.950 . S
C644 C643 1.349 . S
C644 C656 1.349 . S
C645 C643 1.327 . S
C645 C661 1.429 . S
C645 H667 0.950 . S
C646 H642 0.949 . S
C646 C654 1.574 . S
C646 C662 1.368 . S
H647 C655 0.950 . S
H648 C653 0.950 . S
H649 C654 0.949 . S
H650 C656 0.950 . S
H651 C657 0.950 . S
H652 C658 0.949 . S
C653 H648 0.950 . S
C653 C655 1.327 . S
C653 C659 1.429 . S
C654 C646 1.574 . S
C654 H649 0.949 . S
C654 C660 1.368 . S
C655 C639 1.349 . S
C655 H647 0.950 . S
C655 C653 1.327 . S
C656 C644 1.349 . S
C656 H650 0.950 . S
C656 C657 1.327 . S
C657 H651 0.950 . S
C657 C656 1.327 . S
C657 C661 1.429 . S
C658 C641 1.574 . S
C658 H652 0.949 . S
C658 C662 1.368 . S
C659 C640 1.429 . S
C659 C653 1.429 . S
C659 C660 1.523 1_554 S
C660 C641 1.368 . S
C660 C654 1.368 . S
C660 C659 1.523 1_556 S
C661 C645 1.429 . S
C661 C657 1.429 . S
C661 C662 1.523 . S
C662 C646 1.368 . S
C662 C658 1.368 . S
C662 C661 1.523 . S
H663 C638 0.950 . S
H664 C640 0.950 . S
H665 C641 0.949 . S
H666 C643 0.950 . S
H667 C645 0.950 . S
C668 C669 1.349 . S
C668 C670 1.327 . S
C668 H693 0.950 . S
C669 C668 1.349 . S
C669 C685 1.349 . S
C670 C668 1.327 . S
C670 C689 1.429 . S
C670 H694 0.950 . S
C671 C688 1.574 . S
C671 C690 1.368 . S
C671 H695 0.949 . S
H672 C676 0.949 . S
C673 C674 1.349 . S
C673 C675 1.327 . S
C673 H696 0.950 . S
C674 C673 1.349 . S
C674 C686 1.349 . S
C675 C673 1.327 . S
C675 C691 1.429 . S
C675 H697 0.950 . S
C676 H672 0.949 . S
C676 C684 1.574 1_556 S
C676 C692 1.368 . S
H677 C685 0.950 . S
H678 C683 0.950 1_556 S
H679 C684 0.949 . S
H680 C686 0.950 . S
H681 C687 0.950 . S
H682 C688 0.949 . S
C683 H678 0.950 1_554 S
C683 C685 1.327 . S
C683 C689 1.429 . S
C684 C676 1.574 1_554 S
C684 H679 0.949 . S
C684 C690 1.368 1_554 S
C685 C669 1.349 . S
C685 H677 0.950 . S
C685 C683 1.327 . S
C686 C674 1.349 . S
C686 H680 0.950 . S
C686 C687 1.327 . S
C687 H681 0.950 . S
C687 C686 1.327 . S
C687 C691 1.429 . S
C688 C671 1.574 . S
C688 H682 0.949 . S
C688 C692 1.368 . S
C689 C670 1.429 . S
C689 C683 1.429 . S
C689 C690 1.523 1_554 S
C690 C671 1.368 . S
C690 C684 1.368 1_556 S
C690 C689 1.523 1_556 S
C691 C675 1.429 . S
C691 C687 1.429 . S
C691 C692 1.523 . S
C692 C676 1.368 . S
C692 C688 1.368 . S
C692 C691 1.523 . S
H693 C668 0.950 . S
H694 C670 0.950 . S
H695 C671 0.949 . S
H696 C673 0.950 . S
H697 C675 0.950 . S
C698 C699 1.349 . S
C698 C700 1.327 . S
C698 H723 0.950 . S
C699 C698 1.349 . S
C699 C715 1.349 . S
C700 C698 1.327 . S
C700 C719 1.429 . S
C700 H724 0.950 . S
C701 C718 1.574 . S
C701 C720 1.368 1_455 S
C701 H725 0.949 . S
H702 C706 0.949 . S
C703 C704 1.349 1_455 S
C703 C705 1.327 . S
C703 H726 0.950 . S
C704 C703 1.349 1_655 S
C704 C716 1.349 . S
C705 C703 1.327 . S
C705 C721 1.429 1_455 S
C705 H727 0.950 . S
C706 H702 0.949 . S
C706 C714 1.574 . S
C706 C722 1.368 . S
H707 C715 0.950 1_455 S
H708 C713 0.950 1_455 S
H709 C714 0.949 . S
H710 C716 0.950 . S
H711 C717 0.950 . S
H712 C718 0.949 . S
C713 H708 0.950 1_655 S
C713 C715 1.327 . S
C713 C719 1.429 . S
C714 C706 1.574 . S
C714 H709 0.949 . S
C714 C720 1.368 . S
C715 C699 1.349 . S
C715 H707 0.950 1_655 S
C715 C713 1.327 . S
C716 C704 1.349 . S
C716 H710 0.950 . S
C716 C717 1.327 . S
C717 H711 0.950 . S
C717 C716 1.327 . S
C717 C721 1.429 . S
C718 C701 1.574 . S
C718 H712 0.949 . S
C718 C722 1.368 1_455 S
C719 C700 1.429 . S
C719 C713 1.429 . S
C719 C720 1.523 1_554 S
C720 C701 1.368 1_655 S
C720 C714 1.368 . S
C720 C719 1.523 1_556 S
C721 C705 1.429 1_655 S
C721 C717 1.429 . S
C721 C722 1.523 . S
C722 C706 1.368 . S
C722 C718 1.368 1_655 S
C722 C721 1.523 . S
H723 C698 0.950 . S
H724 C700 0.950 . S
H725 C701 0.949 . S
H726 C703 0.950 . S
H727 C705 0.950 . S
C728 C729 1.349 . S
C728 C730 1.327 . S
C728 H753 0.950 . S
C729 C728 1.349 . S
C729 C745 1.349 . S
C730 C728 1.327 . S
C730 C749 1.429 . S
C730 H754 0.950 . S
C731 C748 1.574 . S
C731 C750 1.368 . S
C731 H755 0.949 . S
H732 C736 0.949 . S
C733 C734 1.349 . S
C733 C735 1.327 . S
C733 H756 0.950 1_455 S
C734 C733 1.349 . S
C734 C746 1.349 . S
C735 C733 1.327 . S
C735 C751 1.429 . S
C735 H757 0.950 . S
C736 H732 0.949 . S
C736 C744 1.574 . S
C736 C752 1.368 . S
H737 C745 0.950 . S
H738 C743 0.950 . S
H739 C744 0.949 . S
H740 C746 0.950 . S
H741 C747 0.950 . S
H742 C748 0.949 . S
C743 H738 0.950 . S
C743 C745 1.327 . S
C743 C749 1.429 . S
C744 C736 1.574 . S
C744 H739 0.949 . S
C744 C750 1.368 . S
C745 C729 1.349 . S
C745 H737 0.950 . S
C745 C743 1.327 . S
C746 C734 1.349 . S
C746 H740 0.950 . S
C746 C747 1.327 . S
C747 H741 0.950 . S
C747 C746 1.327 . S
C747 C751 1.429 . S
C748 C731 1.574 . S
C748 H742 0.949 . S
C748 C752 1.368 . S
C749 C730 1.429 . S
C749 C743 1.429 . S
C749 C750 1.523 . S
C750 C731 1.368 . S
C750 C744 1.368 . S
C750 C749 1.523 . S
C751 C735 1.429 . S
C751 C747 1.429 . S
C751 C752 1.523 . S
C752 C736 1.368 . S
C752 C748 1.368 . S
C752 C751 1.523 . S
H753 C728 0.950 . S
H754 C730 0.950 . S
H755 C731 0.949 . S
H756 C733 0.950 1_655 S
H757 C735 0.950 . S
C758 C759 1.349 . S
C758 C760 1.327 . S
C758 H783 0.950 . S
C759 C758 1.349 . S
C759 C775 1.349 . S
C760 C758 1.327 . S
C760 C779 1.429 . S
C760 H784 0.950 . S
C761 C778 1.574 . S
C761 C780 1.368 . S
C761 H785 0.949 . S
H762 C766 0.927 1_565 S
C763 C764 1.349 . S
C763 C765 1.327 . S
C763 H786 0.950 . S
C764 C763 1.349 . S
C764 C776 1.349 . S
C765 C763 1.327 . S
C765 C781 1.429 . S
C765 H787 0.950 . S
C766 H762 0.927 1_545 S
C766 C774 1.574 . S
C766 C782 1.368 . S
H767 C775 0.950 . S
H768 C773 0.950 . S
H769 C774 0.949 . S
H770 C776 0.950 1_565 S
H771 C777 0.950 1_565 S
H772 C778 0.949 . S
C773 H768 0.950 . S
C773 C775 1.327 . S
C773 C779 1.429 . S
C774 C766 1.574 . S
C774 H769 0.949 . S
C774 C780 1.368 . S
C775 C759 1.349 . S
C775 H767 0.950 . S
C775 C773 1.327 . S
C776 C764 1.349 . S
C776 H770 0.950 1_545 S
C776 C777 1.327 . S
C777 H771 0.950 1_545 S
C777 C776 1.327 . S
C777 C781 1.429 . S
C778 C761 1.574 . S
C778 H772 0.949 . S
C778 C782 1.368 . S
C779 C760 1.429 . S
C779 C773 1.429 . S
C779 C780 1.523 . S
C780 C761 1.368 . S
C780 C774 1.368 . S
C780 C779 1.523 . S
C781 C765 1.429 . S
C781 C777 1.429 . S
C781 C782 1.523 . S
C782 C766 1.368 . S
C782 C778 1.368 . S
C782 C781 1.523 . S
H783 C758 0.950 . S
H784 C760 0.950 . S
H785 C761 0.949 . S
H786 C763 0.950 . S
H787 C765 0.950 . S
C788 C789 1.349 . S
C788 C790 1.327 . S
C788 H813 0.950 . S
C789 C788 1.349 . S
C789 C805 1.349 . S
C790 C788 1.327 . S
C790 C809 1.429 . S
C790 H814 0.950 . S
C791 C808 1.574 . S
C791 C810 1.368 . S
C791 H815 0.949 . S
H792 C796 0.949 . S
C793 C794 1.349 . S
C793 C795 1.327 . S
C793 H816 0.950 . S
C794 C793 1.349 . S
C794 C806 1.349 . S
C795 C793 1.327 . S
C795 C811 1.429 . S
C795 H817 0.950 . S
C796 H792 0.949 . S
C796 C804 1.574 . S
C796 C812 1.368 . S
H797 C805 0.950 . S
H798 C803 0.950 . S
H799 C804 0.949 . S
H800 C806 0.950 . S
H801 C807 0.950 . S
H802 C808 0.949 . S
C803 H798 0.950 . S
C803 C805 1.327 . S
C803 C809 1.429 . S
C804 C796 1.574 . S
C804 H799 0.949 . S
C804 C810 1.368 . S
C805 C789 1.349 . S
C805 H797 0.950 . S
C805 C803 1.327 . S
C806 C794 1.349 . S
C806 H800 0.950 . S
C806 C807 1.327 . S
C807 H801 0.950 . S
C807 C806 1.327 . S
C807 C811 1.429 . S
C808 C791 1.574 . S
C808 H802 0.949 . S
C808 C812 1.368 . S
C809 C790 1.429 . S
C809 C803 1.429 . S
C809 C810 1.523 . S
C810 C791 1.368 . S
C810 C804 1.368 . S
C810 C809 1.523 . S
C811 C795 1.429 . S
C811 C807 1.429 . S
C811 C812 1.523 . S
C812 C796 1.368 . S
C812 C808 1.368 . S
C812 C811 1.523 . S
H813 C788 0.950 . S
H814 C790 0.950 . S
H815 C791 0.949 . S
H816 C793 0.950 . S
H817 C795 0.950 . S
C818 C819 1.349 . S
C818 C820 1.327 . S
C818 H843 0.950 . S
C819 C818 1.349 . S
C819 C835 1.349 . S
C820 C818 1.327 . S
C820 C839 1.429 . S
C820 H844 0.950 . S
C821 C838 1.574 . S
C821 C840 1.368 . S
C821 H845 0.949 . S
H822 C826 0.949 . S
C823 C824 1.349 . S
C823 C825 1.327 . S
C823 H846 0.950 . S
C824 C823 1.349 . S
C824 C836 1.349 . S
C825 C823 1.327 . S
C825 C841 1.429 . S
C825 H847 0.950 . S
C826 H822 0.949 . S
C826 C834 1.574 . S
C826 C842 1.368 . S
H827 C835 0.950 . S
H828 C833 0.950 . S
H829 C834 0.949 . S
H830 C836 0.950 . S
H831 C837 0.950 . S
H832 C838 0.949 . S
C833 H828 0.950 . S
C833 C835 1.327 . S
C833 C839 1.429 . S
C834 C826 1.574 . S
C834 H829 0.949 . S
C834 C840 1.368 . S
C835 C819 1.349 . S
C835 H827 0.950 . S
C835 C833 1.327 . S
C836 C824 1.349 . S
C836 H830 0.950 . S
C836 C837 1.327 . S
C837 H831 0.950 . S
C837 C836 1.327 . S
C837 C841 1.429 . S
C838 C821 1.574 . S
C838 H832 0.949 . S
C838 C842 1.368 . S
C839 C820 1.429 . S
C839 C833 1.429 . S
C839 C840 1.523 . S
C840 C821 1.368 . S
C840 C834 1.368 . S
C840 C839 1.523 . S
C841 C825 1.429 . S
C841 C837 1.429 . S
C841 C842 1.523 . S
C842 C826 1.368 . S
C842 C838 1.368 . S
C842 C841 1.523 . S
H843 C818 0.950 . S
H844 C820 0.950 . S
H845 C821 0.949 . S
H846 C823 0.950 . S
H847 C825 0.950 . S
C848 C849 1.349 . S
C848 C850 1.327 . S
C848 H873 0.950 . S
C849 C848 1.349 . S
C849 C865 1.349 . S
C850 C848 1.327 . S
C850 C869 1.429 . S
C850 H874 0.950 . S
C851 C868 1.574 1_554 S
C851 C870 1.368 1_455 S
C851 H875 0.949 . S
H852 C856 0.950 . S
C853 C854 1.349 . S
C853 C855 1.327 . S
C853 H876 0.950 . S
C854 C853 1.349 . S
C854 C866 1.349 1_455 S
C855 C853 1.327 . S
C855 C871 1.429 1_455 S
C855 H877 0.950 . S
C856 H852 0.950 . S
C856 C864 1.572 1_556 S
C856 C872 1.369 . S
H857 C865 0.950 1_455 S
H858 C863 0.950 1_455 S
H859 C864 0.949 . S
H860 C866 0.950 . S
H861 C867 0.950 . S
H862 C868 0.949 . S
C863 H858 0.950 1_655 S
C863 C865 1.327 . S
C863 C869 1.429 . S
C864 C856 1.572 1_554 S
C864 H859 0.949 . S
C864 C870 1.368 . S
C865 C849 1.349 . S
C865 H857 0.950 1_655 S
C865 C863 1.327 . S
C866 C854 1.349 1_655 S
C866 H860 0.950 . S
C866 C867 1.327 . S
C867 H861 0.950 . S
C867 C866 1.327 . S
C867 C871 1.429 . S
C868 C851 1.574 1_556 S
C868 H862 0.949 . S
C868 C872 1.368 1_455 S
C869 C850 1.429 . S
C869 C863 1.429 . S
C869 C870 1.523 . S
C870 C851 1.368 1_655 S
C870 C864 1.368 . S
C870 C869 1.523 . S
C871 C855 1.429 1_655 S
C871 C867 1.429 . S
C871 C872 1.523 . S
C872 C856 1.369 . S
C872 C868 1.368 1_655 S
C872 C871 1.523 . S
H873 C848 0.950 . S
H874 C850 0.950 . S
H875 C851 0.949 . S
H876 C853 0.950 . S
H877 C855 0.950 . S
C878 C879 1.349 . S
C878 C880 1.327 . S
C878 H903 0.950 1_565 S
C879 C878 1.349 . S
C879 C895 1.349 . S
C880 C878 1.327 . S
C880 C899 1.429 . S
C880 H904 0.950 1_565 S
C881 C898 1.574 . S
C881 C900 1.368 . S
C881 H905 0.949 . S
H882 C886 0.949 . S
C883 C884 1.349 1_565 S
C883 C885 1.327 . S
C883 H906 0.950 . S
C884 C883 1.349 1_545 S
C884 C896 1.349 . S
C885 C883 1.327 . S
C885 C901 1.449 . S
C885 H907 0.950 . S
C886 H882 0.949 . S
C886 C894 1.574 1_556 S
C886 C902 1.368 1_545 S
H887 C895 0.950 . S
H888 C893 0.950 . S
H889 C894 0.949 . S
H890 C896 0.950 . S
H891 C897 0.950 . S
H892 C898 0.949 . S
C893 H888 0.950 . S
C893 C895 1.327 . S
C893 C899 1.429 . S
C894 C886 1.574 1_554 S
C894 H889 0.949 . S
C894 C900 1.368 1_545 S
C895 C879 1.349 . S
C895 H887 0.950 . S
C895 C893 1.327 . S
C896 C884 1.349 . S
C896 H890 0.950 . S
C896 C897 1.327 . S
C897 H891 0.950 . S
C897 C896 1.327 . S
C897 C901 1.402 1_545 S
C898 C881 1.574 . S
C898 H892 0.949 . S
C898 C902 1.368 1_554 S
C899 C880 1.429 . S
C899 C893 1.429 . S
C899 C900 1.523 . S
C900 C881 1.368 . S
C900 C894 1.368 1_565 S
C900 C899 1.523 . S
C901 C885 1.449 . S
C901 C897 1.402 1_565 S
C901 C902 1.530 . S
C902 C886 1.368 1_565 S
C902 C898 1.368 1_556 S
C902 C901 1.530 . S
H903 C878 0.950 1_545 S
H904 C880 0.950 1_545 S
H905 C881 0.949 . S
H906 C883 0.950 . S
H907 C885 0.950 . S
C908 C909 1.349 . S
C908 C910 1.327 . S
C908 H933 0.950 . S
C909 C908 1.349 . S
C909 C925 1.349 . S
C910 C908 1.327 . S
C910 C929 1.429 . S
C910 H934 0.950 . S
C911 C928 1.574 1_554 S
C911 C930 1.368 . S
C911 H935 0.949 . S
H912 C916 0.949 . S
C913 C914 1.349 . S
C913 C915 1.327 . S
C913 H936 0.950 . S
C914 C913 1.349 . S
C914 C926 1.349 . S
C915 C913 1.327 . S
C915 C931 1.429 . S
C915 H937 0.950 . S
C916 H912 0.949 . S
C916 C924 1.574 . S
C916 C932 1.368 1_554 S
H917 C925 0.950 . S
H918 C923 0.950 . S
H919 C924 0.949 . S
H920 C926 0.950 . S
H921 C927 0.950 . S
H922 C928 0.949 . S
C923 H918 0.950 . S
C923 C925 1.327 . S
C923 C929 1.429 . S
C924 C916 1.574 . S
C924 H919 0.949 . S
C924 C930 1.368 . S
C925 C909 1.349 . S
C925 H917 0.950 . S
C925 C923 1.327 . S
C926 C914 1.349 . S
C926 H920 0.950 . S
C926 C927 1.327 . S
C927 H921 0.950 . S
C927 C926 1.327 . S
C927 C931 1.429 . S
C928 C911 1.574 1_556 S
C928 H922 0.949 . S
C928 C932 1.368 . S
C929 C910 1.429 . S
C929 C923 1.429 . S
C929 C930 1.523 . S
C930 C911 1.368 . S
C930 C924 1.368 . S
C930 C929 1.523 . S
C931 C915 1.429 . S
C931 C927 1.429 . S
C931 C932 1.523 . S
C932 C916 1.368 1_556 S
C932 C928 1.368 . S
C932 C931 1.523 . S
H933 C908 0.950 . S
H934 C910 0.950 . S
H935 C911 0.949 . S
H936 C913 0.950 . S
H937 C915 0.950 . S
C938 C939 1.349 . S
C938 C940 1.327 . S
C938 H963 0.950 . S
C939 C938 1.349 . S
C939 C955 1.349 . S
C940 C938 1.327 . S
C940 C959 1.429 . S
C940 H964 0.950 . S
C941 C958 1.574 . S
C941 C960 1.368 . S
C941 H965 0.949 . S
H942 C946 0.949 . S
C943 C944 1.349 . S
C943 C945 1.327 . S
C943 H966 0.950 . S
C944 C943 1.349 . S
C944 C956 1.349 . S
C945 C943 1.327 . S
C945 C961 1.429 . S
C945 H967 0.950 . S
C946 H942 0.949 . S
C946 C954 1.574 1_556 S
C946 C962 1.368 . S
H947 C955 0.950 . S
H948 C953 0.950 . S
H949 C954 0.949 . S
H950 C956 0.950 . S
H951 C957 0.950 . S
H952 C958 0.949 . S
C953 H948 0.950 . S
C953 C955 1.327 . S
C953 C959 1.429 . S
C954 C946 1.574 1_554 S
C954 H949 0.949 . S
C954 C960 1.368 . S
C955 C939 1.349 . S
C955 H947 0.950 . S
C955 C953 1.327 . S
C956 C944 1.349 . S
C956 H950 0.950 . S
C956 C957 1.327 . S
C957 H951 0.950 . S
C957 C956 1.327 . S
C957 C961 1.429 . S
C958 C941 1.574 . S
C958 H952 0.949 . S
C958 C962 1.368 1_554 S
C959 C940 1.429 . S
C959 C953 1.429 . S
C959 C960 1.523 . S
C960 C941 1.368 . S
C960 C954 1.368 . S
C960 C959 1.523 . S
C961 C945 1.429 . S
C961 C957 1.429 . S
C961 C962 1.523 . S
C962 C946 1.368 . S
C962 C958 1.368 1_556 S
C962 C961 1.523 . S
H963 C938 0.950 . S
H964 C940 0.950 . S
H965 C941 0.949 . S
H966 C943 0.950 . S
H967 C945 0.950 . S
C968 C969 1.349 . S
C968 C970 1.327 . S
C968 H993 0.950 . S
C969 C968 1.349 . S
C969 C985 1.349 . S
C970 C968 1.327 . S
C970 C989 1.429 . S
C970 H994 0.950 . S
C971 C988 1.574 . S
C971 C990 1.368 . S
C971 H995 0.949 . S
H972 C976 0.949 1_655 S
C973 C974 1.349 . S
C973 C975 1.327 . S
C973 H996 0.950 . S
C974 C973 1.349 . S
C974 C986 1.349 . S
C975 C973 1.327 . S
C975 C991 1.429 . S
C975 H997 0.950 . S
C976 H972 0.949 1_455 S
C976 C984 1.574 . S
C976 C992 1.368 . S
H977 C985 0.950 . S
H978 C983 0.950 . S
H979 C984 0.906 1_655 S
H980 C986 0.950 1_655 S
H981 C987 0.950 1_655 S
H982 C988 0.949 . S
C983 H978 0.950 . S
C983 C985 1.327 . S
C983 C989 1.429 . S
C984 C976 1.574 . S
C984 H979 0.906 1_455 S
C984 C990 1.368 . S
C985 C969 1.349 . S
C985 H977 0.950 . S
C985 C983 1.327 . S
C986 C974 1.349 . S
C986 H980 0.950 1_455 S
C986 C987 1.327 . S
C987 H981 0.950 1_455 S
C987 C986 1.327 . S
C987 C991 1.429 . S
C988 C971 1.574 . S
C988 H982 0.949 . S
C988 C992 1.368 . S
C989 C970 1.429 . S
C989 C983 1.429 . S
C989 C990 1.523 . S
C990 C971 1.368 . S
C990 C984 1.368 . S
C990 C989 1.523 . S
C991 C975 1.429 . S
C991 C987 1.429 . S
C991 C992 1.523 . S
C992 C976 1.368 . S
C992 C988 1.368 . S
C992 C991 1.523 . S
H993 C968 0.950 . S
H994 C970 0.950 . S
H995 C971 0.949 . S
H996 C973 0.950 . S
H997 C975 0.950 . S
C998 C999 1.349 . S
C998 C1000 1.327 . S
C998 H1023 0.950 . S
C999 C998 1.349 . S
C999 C1015 1.349 . S
C1000 C998 1.327 . S
C1000 C1019 1.429 . S
C1000 H1024 0.950 . S
C1001 C1018 1.574 . S
C1001 C1020 1.368 . S
C1001 H1025 0.949 . S
H1002 C1006 0.947 1_565 S
C1003 C1004 1.349 . S
C1003 C1005 1.327 . S
C1003 H1026 0.950 . S
C1004 C1003 1.349 . S
C1004 C1016 1.349 . S
C1005 C1003 1.327 . S
C1005 C1021 1.429 . S
C1005 H1027 0.950 . S
C1006 H1002 0.947 1_545 S
C1006 C1014 1.574 . S
C1006 C1022 1.368 . S
H1007 C1015 0.950 . S
H1008 C1013 0.950 . S
H1009 C1014 0.949 . S
H1010 C1016 0.950 1_565 S
H1011 C1017 0.950 1_565 S
H1012 C1018 0.949 . S
C1013 H1008 0.950 . S
C1013 C1015 1.327 . S
C1013 C1019 1.429 . S
C1014 C1006 1.574 . S
C1014 H1009 0.949 . S
C1014 C1020 1.368 . S
C1015 C999 1.349 . S
C1015 H1007 0.950 . S
C1015 C1013 1.327 . S
C1016 C1004 1.349 . S
C1016 H1010 0.950 1_545 S
C1016 C1017 1.327 . S
C1017 H1011 0.950 1_545 S
C1017 C1016 1.327 . S
C1017 C1021 1.429 . S
C1018 C1001 1.574 . S
C1018 H1012 0.949 . S
C1018 C1022 1.368 . S
C1019 C1000 1.429 . S
C1019 C1013 1.429 . S
C1019 C1020 1.523 . S
C1020 C1001 1.368 . S
C1020 C1014 1.368 . S
C1020 C1019 1.523 . S
C1021 C1005 1.429 . S
C1021 C1017 1.429 . S
C1021 C1022 1.523 . S
C1022 C1006 1.368 . S
C1022 C1018 1.368 . S
C1022 C1021 1.523 . S
H1023 C998 0.950 . S
H1024 C1000 0.950 . S
H1025 C1001 0.949 . S
H1026 C1003 0.950 . S
H1027 C1005 0.950 . S
C1028 C1029 1.349 . S
C1028 C1030 1.327 . S
C1028 H1053 0.950 . S
C1029 C1028 1.349 . S
C1029 C1045 1.349 . S
C1030 C1028 1.327 . S
C1030 C1049 1.429 . S
C1030 H1054 0.950 . S
C1031 C1048 1.574 . S
C1031 C1050 1.368 . S
C1031 H1055 0.949 . S
H1032 C1036 0.949 . S
C1033 C1034 1.349 . S
C1033 C1035 1.327 . S
C1033 H1056 0.950 . S
C1034 C1033 1.349 . S
C1034 C1046 1.349 . S
C1035 C1033 1.327 . S
C1035 C1051 1.429 . S
C1035 H1057 0.950 . S
C1036 H1032 0.949 . S
C1036 C1044 1.574 . S
C1036 C1052 1.368 . S
H1037 C1045 0.950 . S
H1038 C1043 0.950 . S
H1039 C1044 0.949 . S
H1040 C1046 0.950 . S
H1041 C1047 0.950 . S
H1042 C1048 0.949 . S
C1043 H1038 0.950 . S
C1043 C1045 1.327 . S
C1043 C1049 1.429 . S
C1044 C1036 1.574 . S
C1044 H1039 0.949 . S
C1044 C1050 1.368 . S
C1045 C1029 1.349 . S
C1045 H1037 0.950 . S
C1045 C1043 1.327 . S
C1046 C1034 1.349 . S
C1046 H1040 0.950 . S
C1046 C1047 1.327 . S
C1047 H1041 0.950 . S
C1047 C1046 1.327 . S
C1047 C1051 1.429 . S
C1048 C1031 1.574 . S
C1048 H1042 0.949 . S
C1048 C1052 1.368 . S
C1049 C1030 1.429 . S
C1049 C1043 1.429 . S
C1049 C1050 1.523 . S
C1050 C1031 1.368 . S
C1050 C1044 1.368 . S
C1050 C1049 1.523 . S
C1051 C1035 1.429 . S
C1051 C1047 1.429 . S
C1051 C1052 1.523 . S
C1052 C1036 1.368 . S
C1052 C1048 1.368 . S
C1052 C1051 1.523 . S
H1053 C1028 0.950 . S
H1054 C1030 0.950 . S
H1055 C1031 0.949 . S
H1056 C1033 0.950 . S
H1057 C1035 0.950 . S
C1058 C1059 1.349 . S
C1058 C1060 1.327 . S
C1058 H1083 0.950 . S
C1059 C1058 1.349 . S
C1059 C1075 1.349 . S
C1060 C1058 1.327 . S
C1060 C1079 1.429 . S
C1060 H1084 0.950 . S
C1061 C1078 1.574 . S
C1061 C1080 1.368 . S
C1061 H1085 0.949 . S
H1062 C1066 0.949 . S
C1063 C1064 1.349 . S
C1063 C1065 1.327 . S
C1063 H1086 0.950 . S
C1064 C1063 1.349 . S
C1064 C1076 1.349 . S
C1065 C1063 1.327 . S
C1065 C1081 1.429 . S
C1065 H1087 0.950 . S
C1066 H1062 0.949 . S
C1066 C1074 1.574 . S
C1066 C1082 1.368 . S
H1067 C1075 0.950 . S
H1068 C1073 0.950 . S
H1069 C1074 0.949 . S
H1070 C1076 0.950 . S
H1071 C1077 0.950 . S
H1072 C1078 0.949 . S
C1073 H1068 0.950 . S
C1073 C1075 1.327 . S
C1073 C1079 1.429 . S
C1074 C1066 1.574 . S
C1074 H1069 0.949 . S
C1074 C1080 1.368 . S
C1075 C1059 1.349 . S
C1075 H1067 0.950 . S
C1075 C1073 1.327 . S
C1076 C1064 1.349 . S
C1076 H1070 0.950 . S
C1076 C1077 1.327 . S
C1077 H1071 0.950 . S
C1077 C1076 1.327 . S
C1077 C1081 1.429 . S
C1078 C1061 1.574 . S
C1078 H1072 0.949 . S
C1078 C1082 1.368 . S
C1079 C1060 1.429 . S
C1079 C1073 1.429 . S
C1079 C1080 1.523 . S
C1080 C1061 1.368 . S
C1080 C1074 1.368 . S
C1080 C1079 1.523 . S
C1081 C1065 1.429 . S
C1081 C1077 1.429 . S
C1081 C1082 1.523 . S
C1082 C1066 1.368 . S
C1082 C1078 1.368 . S
C1082 C1081 1.523 . S
H1083 C1058 0.950 . S
H1084 C1060 0.950 . S
H1085 C1061 0.949 . S
H1086 C1063 0.950 . S
H1087 C1065 0.950 . S
C1088 C1089 1.349 . S
C1088 C1090 1.327 . S
C1088 H1113 0.950 . S
C1089 C1088 1.349 . S
C1089 C1105 1.349 . S
C1090 C1088 1.327 . S
C1090 C1109 1.429 . S
C1090 H1114 0.950 . S
C1091 C1108 1.581 . S
C1091 C1110 1.368 . S
C1091 H1115 0.949 1_655 S
H1092 C1096 0.949 . S
C1093 C1094 1.349 1_455 S
C1093 C1095 1.327 . S
C1093 H1116 0.950 . S
C1094 C1093 1.349 1_655 S
C1094 C1106 1.349 . S
C1095 C1093 1.327 . S
C1095 C1111 1.429 1_455 S
C1095 H1117 0.950 . S
C1096 H1092 0.949 . S
C1096 C1104 1.574 . S
C1096 C1112 1.368 . S
H1097 C1105 0.950 . S
H1098 C1103 0.973 . S
H1099 C1104 0.949 . S
H1100 C1106 0.950 . S
H1101 C1107 0.950 . S
H1102 C1108 0.917 1_455 S
C1103 H1098 0.973 . S
C1103 C1105 1.327 . S
C1103 C1109 1.429 . S
C1104 C1096 1.574 . S
C1104 H1099 0.949 . S
C1104 C1110 1.368 . S
C1105 C1089 1.349 . S
C1105 H1097 0.950 . S
C1105 C1103 1.327 . S
C1106 C1094 1.349 . S
C1106 H1100 0.950 . S
C1106 C1107 1.327 . S
C1107 H1101 0.950 . S
C1107 C1106 1.327 . S
C1107 C1111 1.429 . S
C1108 C1091 1.581 . S
C1108 H1102 0.917 1_655 S
C1108 C1112 1.400 . S
C1109 C1090 1.429 . S
C1109 C1103 1.429 . S
C1109 C1110 1.523 . S
C1110 C1091 1.368 . S
C1110 C1104 1.368 . S
C1110 C1109 1.523 . S
C1111 C1095 1.429 1_655 S
C1111 C1107 1.429 . S
C1111 C1112 1.523 . S
C1112 C1096 1.368 . S
C1112 C1108 1.400 . S
C1112 C1111 1.523 . S
H1113 C1088 0.950 . S
H1114 C1090 0.950 . S
H1115 C1091 0.949 1_455 S
H1116 C1093 0.950 . S
H1117 C1095 0.950 . S
C1118 C1119 1.349 . S
C1118 C1120 1.327 . S
C1118 H1143 0.950 . S
C1119 C1118 1.349 . S
C1119 C1135 1.349 . S
C1120 C1118 1.327 . S
C1120 C1139 1.429 . S
C1120 H1144 0.950 . S
C1121 C1138 1.574 . S
C1121 C1140 1.368 1_545 S
C1121 H1145 0.949 . S
H1122 C1126 0.949 . S
C1123 C1124 1.351 . S
C1123 C1125 1.327 . S
C1123 H1146 0.950 . S
C1124 C1123 1.351 . S
C1124 C1136 1.346 1_545 S
C1125 C1123 1.327 . S
C1125 C1141 1.429 1_545 S
C1125 H1147 0.950 . S
C1126 H1122 0.949 . S
C1126 C1134 1.574 . S
C1126 C1142 1.368 . S
H1127 C1135 0.950 1_545 S
H1128 C1133 0.984 . S
H1129 C1134 0.949 . S
H1130 C1136 0.950 . S
H1131 C1137 0.950 . S
H1132 C1138 0.949 . S
C1133 H1128 0.984 . S
C1133 C1135 1.322 1_545 S
C1133 C1139 1.401 1_545 S
C1134 C1126 1.574 . S
C1134 H1129 0.949 . S
C1134 C1140 1.368 . S
C1135 C1119 1.349 . S
C1135 H1127 0.950 1_565 S
C1135 C1133 1.322 1_565 S
C1136 C1124 1.346 1_565 S
C1136 H1130 0.950 . S
C1136 C1137 1.327 . S
C1137 H1131 0.950 . S
C1137 C1136 1.327 . S
C1137 C1141 1.429 . S
C1138 C1121 1.574 . S
C1138 H1132 0.949 . S
C1138 C1142 1.368 1_545 S
C1139 C1120 1.429 . S
C1139 C1133 1.401 1_565 S
C1139 C1140 1.523 . S
C1140 C1121 1.368 1_565 S
C1140 C1134 1.368 . S
C1140 C1139 1.523 . S
C1141 C1125 1.429 1_565 S
C1141 C1137 1.429 . S
C1141 C1142 1.523 . S
C1142 C1126 1.368 . S
C1142 C1138 1.368 1_565 S
C1142 C1141 1.523 . S
H1143 C1118 0.950 . S
H1144 C1120 0.950 . S
H1145 C1121 0.949 . S
H1146 C1123 0.950 . S
H1147 C1125 0.950 . S
C1148 C1149 1.349 . S
C1148 C1150 1.327 . S
C1148 H1173 0.950 . S
C1149 C1148 1.349 . S
C1149 C1165 1.349 . S
C1150 C1148 1.327 . S
C1150 C1169 1.429 . S
C1150 H1174 0.950 . S
C1151 C1168 1.574 . S
C1151 C1170 1.368 . S
C1151 H1175 0.949 . S
H1152 C1156 0.949 . S
C1153 C1154 1.349 . S
C1153 C1155 1.327 . S
C1153 H1176 0.950 . S
C1154 C1153 1.349 . S
C1154 C1166 1.349 . S
C1155 C1153 1.327 . S
C1155 C1171 1.429 . S
C1155 H1177 0.950 . S
C1156 H1152 0.949 . S
C1156 C1164 1.574 . S
C1156 C1172 1.368 . S
H1157 C1165 0.950 . S
H1158 C1163 0.950 . S
H1159 C1164 0.949 . S
H1160 C1166 0.950 . S
H1161 C1167 0.950 . S
H1162 C1168 0.949 . S
C1163 H1158 0.950 . S
C1163 C1165 1.327 . S
C1163 C1169 1.429 . S
C1164 C1156 1.574 . S
C1164 H1159 0.949 . S
C1164 C1170 1.368 . S
C1165 C1149 1.349 . S
C1165 H1157 0.950 . S
C1165 C1163 1.327 . S
C1166 C1154 1.349 . S
C1166 H1160 0.950 . S
C1166 C1167 1.327 . S
C1167 H1161 0.950 . S
C1167 C1166 1.327 . S
C1167 C1171 1.429 . S
C1168 C1151 1.574 . S
C1168 H1162 0.949 . S
C1168 C1172 1.368 . S
C1169 C1150 1.429 . S
C1169 C1163 1.429 . S
C1169 C1170 1.523 . S
C1170 C1151 1.368 . S
C1170 C1164 1.368 . S
C1170 C1169 1.523 . S
C1171 C1155 1.429 . S
C1171 C1167 1.429 . S
C1171 C1172 1.523 . S
C1172 C1156 1.368 . S
C1172 C1168 1.368 . S
C1172 C1171 1.523 . S
H1173 C1148 0.950 . S
H1174 C1150 0.950 . S
H1175 C1151 0.949 . S
H1176 C1153 0.950 . S
H1177 C1155 0.950 . S
C1178 C1179 1.349 . S
C1178 C1180 1.327 . S
C1178 H1203 0.950 . S
C1179 C1178 1.349 . S
C1179 C1195 1.349 . S
C1180 C1178 1.327 . S
C1180 C1199 1.429 . S
C1180 H1204 0.950 . S
C1181 C1198 1.574 . S
C1181 C1200 1.368 . S
C1181 H1205 0.949 . S
H1182 C1186 0.949 . S
C1183 C1184 1.349 . S
C1183 C1185 1.327 . S
C1183 H1206 0.950 . S
C1184 C1183 1.349 . S
C1184 C1196 1.349 . S
C1185 C1183 1.327 . S
C1185 C1201 1.429 . S
C1185 H1207 0.950 . S
C1186 H1182 0.949 . S
C1186 C1194 1.574 . S
C1186 C1202 1.368 . S
H1187 C1195 0.950 . S
H1188 C1193 0.950 . S
H1189 C1194 0.949 . S
H1190 C1196 0.950 . S
H1191 C1197 0.950 . S
H1192 C1198 0.949 . S
C1193 H1188 0.950 . S
C1193 C1195 1.327 . S
C1193 C1199 1.429 . S
C1194 C1186 1.574 . S
C1194 H1189 0.949 . S
C1194 C1200 1.368 . S
C1195 C1179 1.349 . S
C1195 H1187 0.950 . S
C1195 C1193 1.327 . S
C1196 C1184 1.349 . S
C1196 H1190 0.950 . S
C1196 C1197 1.327 . S
C1197 H1191 0.950 . S
C1197 C1196 1.327 . S
C1197 C1201 1.429 . S
C1198 C1181 1.574 . S
C1198 H1192 0.949 . S
C1198 C1202 1.368 . S
C1199 C1180 1.429 . S
C1199 C1193 1.429 . S
C1199 C1200 1.523 . S
C1200 C1181 1.368 . S
C1200 C1194 1.368 . S
C1200 C1199 1.523 . S
C1201 C1185 1.429 . S
C1201 C1197 1.429 . S
C1201 C1202 1.523 . S
C1202 C1186 1.368 . S
C1202 C1198 1.368 . S
C1202 C1201 1.523 . S
H1203 C1178 0.950 . S
H1204 C1180 0.950 . S
H1205 C1181 0.949 . S
H1206 C1183 0.950 . S
H1207 C1185 0.950 . S
C489 C125 1.891 . S
C494 C215 1.963 . S
C524 C292 1.983 . S
C519 C144 1.899 . S
C554 C383 1.951 . S
C549 C87 1.882 . S
C584 C467 1.943 . S
C579 C106 1.873 . S
C614 C226 1.964 . S
C609 C49 1.953 . S
C639 C68 1.961 . S
C644 C303 1.983 . S
C669 C11 1.940 . S
C674 C394 1.951 . S
C699 C30 1.930 . S
C704 C478 1.942 1_655 S
C734 C210 0.614 . S
C729 C97 0.572 . S
C764 C305 0.589 . S
C759 C116 0.546 . S
C794 C378 0.614 . S
C789 C135 0.573 . S
C819 C78 0.554 . S
C824 C462 0.602 . S
C849 C21 0.571 . S
C854 C221 0.614 . S
C884 C294 0.589 . S
C879 C40 0.545 . S
C914 C389 0.614 . S
C909 C59 0.572 . S
C939 C2 0.554 . S
C944 C473 0.602 . S
C969 C101 1.893 . S
C974 C219 2.026 . S
C999 C120 1.889 . S
C1004 C310 2.029 . S
C1034 C387 2.046 . S
C1029 C139 1.911 . S
C1064 C471 2.051 . S
C1059 C82 1.917 . S
C1089 C25 1.896 . S
C1094 C208 2.026 . S
C1124 C299 2.030 . S
C1119 C44 1.892 . S
C1154 C376 2.047 . S
C1149 C63 1.914 . S
C1179 C6 1.920 . S
C1184 C460 2.051 . S
