# Generated by pormake.
# Topology pts, (4,4)-cn, num edge types: 1
# Building blocks:
#     Node 0, Type 0, BuildingBlock: GIZVER_clean_linker_0, # of connection points: 4
#     Node 1, Type 0, BuildingBlock: GIZVER_clean_linker_0, # of connection points: 4
#     Node 2, Type 1, BuildingBlock: UXUYUI_clean_sbu_0, # of connection points: 4
#     Node 3, Type 1, BuildingBlock: UXUYUI_clean_sbu_0, # of connection points: 4
#     Edge 4, Type (0, 1), BuildingBlock: FUNLAD_clean_linker_1, # of connection points: 2
#     Edge 5, Type (0, 1), BuildingBlock: FUNLAD_clean_linker_1, # of connection points: 2
#     Edge 6, Type (0, 1), BuildingBlock: FUNLAD_clean_linker_1, # of connection points: 2
#     Edge 7, Type (0, 1), BuildingBlock: FUNLAD_clean_linker_1, # of connection points: 2
#     Edge 8, Type (0, 1), BuildingBlock: FUNLAD_clean_linker_1, # of connection points: 2
#     Edge 9, Type (0, 1), BuildingBlock: FUNLAD_clean_linker_1, # of connection points: 2
#     Edge 10, Type (0, 1), BuildingBlock: FUNLAD_clean_linker_1, # of connection points: 2
#     Edge 11, Type (0, 1), BuildingBlock: FUNLAD_clean_linker_1, # of connection points: 2
# Relax obj value: 0.010
# Max RMSD: 0.058
# Mean RMSD: 0.057
data_MOF--net-pts--node1-UXUYUI_clean_sbu_0--node2-GIZVER_clean_linker_0--edge1-FUNLAD_clean_linker_1
_symmetry_space_group_name_H-M    P1
_symmetry_Int_Tables_number       1
_symmetry_cell_setting            triclinic
loop_
_symmetry_equiv_pos_as_xyz
'x, y, z'
_cell_length_a     32.99183
_cell_length_b     33.553828
_cell_length_c     42.658989
_cell_angle_alpha  90.22842
_cell_angle_beta   89.839184
_cell_angle_gamma 90.091201
loop_
_atom_site_label
_atom_site_type_symbol
_atom_site_fract_x
_atom_site_fract_y
_atom_site_fract_z
_atom_type_partial_charge
H0 H 0.57261 0.05488 0.04885 0.0
H1 H 0.57416 0.03984 0.94846 0.0
H2 H 0.67266 0.99562 0.00373 0.0
H3 H 0.52634 0.09276 0.01587 0.0
H4 H 0.52872 0.08885 0.97424 0.0
H5 H 0.48597 0.04473 0.0471 0.0
H6 H 0.39288 0.98092 0.99752 0.0
H7 H 0.48667 0.04108 0.94603 0.0
C8 C 0.58692 0.04312 0.02786 0.0
C9 C 0.62553 0.0257 0.02987 0.0
C10 C 0.56781 0.04779 0.99856 0.0
C11 C 0.58788 0.03484 0.97115 0.0
C12 C 0.62606 0.01643 0.97307 0.0
C13 C 0.64354 0.01043 0.0025 0.0
C14 C 0.52867 0.07102 0.99618 0.0
C15 C 0.49182 0.04414 0.99657 0.0
C16 C 0.47325 0.03395 0.02525 0.0
C17 C 0.43738 0.01124 0.0256 0.0
C18 C 0.42115 0.99753 0.99729 0.0
C19 C 0.43788 0.00909 0.96858 0.0
C20 C 0.47368 0.03188 0.96822 0.0
H21 H 0.06651 0.5649 0.44882 0.0
H22 H 0.08201 0.56707 0.54916 0.0
H23 H 0.02188 0.66354 0.50256 0.0
H24 H 0.11784 0.52318 0.47448 0.0
H25 H 0.12372 0.5237 0.51593 0.0
H26 H 0.06759 0.47987 0.44919 0.0
H27 H 0.02423 0.38172 0.50396 0.0
H28 H 0.08176 0.48117 0.54959 0.0
C29 C 0.06085 0.57879 0.4714 0.0
C30 C 0.04274 0.61653 0.4727 0.0
C31 C 0.07483 0.56049 0.49901 0.0
C32 C 0.06955 0.58006 0.52805 0.0
C33 C 0.04999 0.61717 0.52974 0.0
C34 C 0.03598 0.63454 0.50194 0.0
C35 C 0.10063 0.52341 0.49696 0.0
C36 C 0.07581 0.48563 0.49928 0.0
C37 C 0.0621 0.46641 0.47187 0.0
C38 C 0.04448 0.4284 0.47347 0.0
C39 C 0.03784 0.41102 0.50292 0.0
C40 C 0.05101 0.42974 0.53061 0.0
C41 C 0.07003 0.46713 0.52855 0.0
Li42 Li 0.0341 0.05658 0.27506 0.0
Li43 Li 0.03456 0.98409 0.27242 0.0
Li44 Li 0.07489 0.02517 0.23555 0.0
Li45 Li 1.00043 0.02248 0.23065 0.0
C46 C 0.1024 0.03648 0.30556 0.0
N47 N 0.14556 0.07037 0.35434 0.0
C48 C 0.10633 0.01628 0.33399 0.0
C49 C 0.12091 0.07368 0.30183 0.0
C50 C 0.12814 0.03398 0.3584 0.0
C51 C 0.14245 0.09038 0.32679 0.0
C52 C 0.96819 0.02011 0.30514 0.0
C53 C 0.90945 0.03163 0.33775 0.0
N54 N 0.93133 0.0213 0.36343 0.0
C55 C 0.98996 0.00944 0.33184 0.0
C56 C 0.92751 0.03113 0.30808 0.0
C57 C 0.97087 0.01029 0.36109 0.0
C58 C 0.02308 0.13841 0.28681 0.0
N59 N 0.02987 0.1031 0.30141 0.0
C60 C 0.0329 0.1361 0.35114 0.0
C61 C 0.03437 0.10136 0.33305 0.0
C62 C 0.02647 0.17311 0.33673 0.0
C63 C 0.02135 0.17393 0.30399 0.0
H64 H 0.0194 0.1391 0.26165 0.0
H65 H 0.03999 0.07318 0.34432 0.0
C66 C 0.07074 0.9169 0.29947 0.0
N67 N 0.03431 0.93438 0.29415 0.0
C68 C 0.07282 0.88061 0.31531 0.0
C69 C 0.99976 0.88051 0.31938 0.0
C70 C 0.99911 0.9169 0.30352 0.0
C71 C 0.0371 0.86183 0.32545 0.0
H72 H 0.09823 0.93136 0.29157 0.0
H73 H 0.97048 0.93136 0.29891 0.0
C74 C 0.05344 0.09091 0.20604 0.0
N75 N 0.08984 0.13193 0.15746 0.0
C76 C 0.0408 0.08459 0.17518 0.0
C77 C 0.08428 0.11841 0.21224 0.0
C78 C 0.05965 0.10555 0.15093 0.0
C79 C 0.10241 0.13874 0.18735 0.0
C80 C 0.02169 0.94351 0.21616 0.0
C81 C 0.04217 0.91696 0.19644 0.0
C82 C 0.98245 0.93444 0.22637 0.0
C83 C 0.023 0.88167 0.18719 0.0
C84 C 0.96433 0.89887 0.21662 0.0
N85 N 0.9848 0.87344 0.1974 0.0
C86 C 0.16018 0.03096 0.22984 0.0
C87 C 0.1264 0.02454 0.18121 0.0
C88 C 0.19767 0.03326 0.21473 0.0
N89 N 0.12543 0.0272 0.21303 0.0
C90 C 0.16335 0.02668 0.16505 0.0
C91 C 0.19976 0.03101 0.18195 0.0
H92 H 0.15899 0.03195 0.25507 0.0
H93 H 0.09844 0.02095 0.16833 0.0
C94 C 0.92155 0.04476 0.21414 0.0
N95 N 0.95425 0.02399 0.20365 0.0
C96 C 0.8859 0.0459 0.19656 0.0
C97 C 0.91873 1.00543 0.15702 0.0
C98 C 0.95364 1.00477 0.17552 0.0
C99 C 0.88405 0.02564 0.16769 0.0
H100 H 0.92328 0.06061 0.23619 0.0
H101 H 0.98023 0.98889 0.16747 0.0
O102 O 0.08105 0.01965 0.28138 0.0
O103 O 0.98628 0.01923 0.27621 0.0
O104 O 0.03572 0.07027 0.23006 0.0
O105 O 0.04022 0.97804 0.22551 0.0
H106 H 0.09271 0.98725 0.33724 0.0
H107 H 0.1184 0.0896 0.27996 0.0
H108 H 0.13126 0.01876 0.38057 0.0
H109 H 0.15666 0.11927 0.32427 0.0
H110 H 0.87801 0.04016 0.34035 0.0
H111 H 0.02133 1.0007 0.33003 0.0
H112 H 0.90994 0.03911 0.28771 0.0
H113 H 0.98751 1.00221 0.38193 0.0
H114 H 0.03711 0.13404 0.37626 0.0
H115 H 0.01667 0.20139 0.2914 0.0
H116 H 0.1022 0.86738 0.31968 0.0
H117 H 0.97132 0.86801 0.3273 0.0
H118 H 0.01699 0.06346 0.16994 0.0
H119 H 0.09414 0.124 0.23599 0.0
H120 H 0.05033 0.10078 0.12691 0.0
H121 H 0.12645 0.15996 0.19179 0.0
H122 H 0.07259 0.92357 0.18837 0.0
H123 H 0.96611 0.95466 0.24162 0.0
H124 H 0.03849 0.86083 0.17192 0.0
H125 H 0.93398 0.89148 0.22434 0.0
H126 H 0.22492 0.03647 0.22864 0.0
H127 H 0.16298 0.02556 0.13973 0.0
H128 H 0.86054 0.06309 0.20531 0.0
H129 H 0.91868 0.98995 0.13468 0.0
Li130 Li 0.99084 0.02216 0.76735 0.0
Li131 Li 0.06818 0.02285 0.76918 0.0
Li132 Li 0.02836 0.0596 0.72692 0.0
Li133 Li 0.03039 0.98809 0.72995 0.0
C134 C 0.02459 0.08953 0.80035 0.0
N135 N 0.01666 0.13188 0.8557 0.0
C136 C 0.03775 0.07301 0.82857 0.0
C137 C 1.00754 0.12764 0.80025 0.0
C138 C 0.03348 0.09491 0.85631 0.0
C139 C 1.00371 0.14853 0.82849 0.0
C140 C 0.02932 0.93786 0.77672 0.0
C141 C 0.06475 0.87514 0.77904 0.0
N142 N 0.02888 0.85553 0.77581 0.0
C143 C 0.99278 0.9171 0.77364 0.0
C144 C 0.06561 0.91677 0.77958 0.0
C145 C 0.99321 0.87547 0.77313 0.0
C146 C 0.90936 1.00082 0.77531 0.0
N147 N 0.94006 0.02042 0.79008 0.0
C148 C 0.8954 0.03835 0.83219 0.0
C149 C 0.93383 0.03869 0.81822 0.0
C150 C 0.86302 0.01902 0.81701 0.0
C151 C 0.87042 1.00018 0.78821 0.0
H152 H 0.91495 0.98616 0.75311 0.0
H153 H 0.95827 0.05409 0.82974 0.0
C154 C 0.14426 0.05435 0.78297 0.0
N155 N 0.11716 0.02647 0.79272 0.0
C156 C 0.18169 0.05832 0.79788 0.0
C157 C 0.16264 1.00492 0.83281 0.0
C158 C 0.12543 1.00208 0.81726 0.0
C159 C 0.19159 0.03314 0.82288 0.0
H160 H 0.13682 0.07334 0.76338 0.0
H161 H 0.1031 0.98051 0.82483 0.0
C162 C 0.94938 0.04418 0.71349 0.0
N163 N 0.88252 0.08956 0.69812 0.0
C164 C 0.9246 0.03294 0.68844 0.0
C165 C 0.94021 0.07863 0.73063 0.0
C166 C 0.89092 0.05625 0.68106 0.0
C167 C 0.90626 0.10112 0.72253 0.0
C168 C 0.09749 0.01015 0.69842 0.0
C169 C 0.07988 0.01034 0.66867 0.0
C170 C 0.13629 0.99436 0.70241 0.0
C171 C 0.10129 0.99416 0.64336 0.0
C172 C 0.15673 0.97852 0.67649 0.0
N173 N 0.13894 0.97871 0.64776 0.0
C174 C 0.04479 0.14058 0.71517 0.0
C175 C 1.01252 0.10695 0.67316 0.0
C176 C 0.04457 0.17637 0.6985 0.0
N177 N 0.02879 0.10693 0.70238 0.0
C178 C 1.01166 0.14202 0.65565 0.0
C179 C 0.02782 0.17743 0.66817 0.0
H180 H 0.05755 0.13966 0.73848 0.0
H181 H 0.99995 0.07978 0.66351 0.0
C182 C 0.99532 0.92928 0.69138 0.0
N183 N 0.03075 0.93989 0.70528 0.0
C184 C 0.99265 0.89404 0.674 0.0
C185 C 0.06294 0.88088 0.68569 0.0
C186 C 0.06423 0.91644 0.70286 0.0
C187 C 0.02661 0.86915 0.67105 0.0
H188 H 0.96894 0.94803 0.69407 0.0
H189 H 0.09191 0.92505 0.71454 0.0
O190 O 0.02909 0.06888 0.77286 0.0
O191 O 0.02957 0.97862 0.77666 0.0
O192 O 0.98271 0.02171 0.72069 0.0
O193 O 0.07689 0.02543 0.72353 0.0
H194 H 0.05046 0.04336 0.82915 0.0
H195 H 0.99737 0.14097 0.7786 0.0
H196 H 0.04336 0.08243 0.87834 0.0
H197 H 0.99049 0.17802 0.82878 0.0
H198 H 0.09264 0.85842 0.78099 0.0
H199 H 0.96446 0.93296 0.77133 0.0
H200 H 0.09422 0.93235 0.78158 0.0
H201 H 0.96519 0.85902 0.77054 0.0
H202 H 0.89103 0.05413 0.85411 0.0
H203 H 0.84626 0.98507 0.77575 0.0
H204 H 0.20292 0.08069 0.78971 0.0
H205 H 0.16815 0.98562 0.85258 0.0
H206 H 0.93138 1.00656 0.67474 0.0
H207 H 0.95896 0.08791 0.75001 0.0
H208 H 0.8715 0.04788 0.66172 0.0
H209 H 0.89881 0.12778 0.73566 0.0
H210 H 0.0498 0.02235 0.66528 0.0
H211 H 0.15029 0.99408 0.72534 0.0
H212 H 0.08795 0.99381 0.62022 0.0
H213 H 0.18671 0.966 0.67923 0.0
H214 H 0.05714 0.20256 0.70963 0.0
H215 H 0.99847 0.14143 0.63242 0.0
H216 H 0.96414 0.88622 0.66302 0.0
H217 H 0.09032 0.8634 0.68376 0.0
H218 H 0.39388 0.97862 0.05526 0.0
C219 C 0.41266 1.00529 0.05425 0.0
H220 H 0.41994 0.06374 0.07157 0.0
H221 H 0.23293 0.07928 0.1003 0.0
H222 H 0.24261 0.12663 0.05811 0.0
H223 H 0.30849 0.13214 0.03099 0.0
H224 H 0.36515 0.09078 0.04604 0.0
C225 C 0.40415 0.03547 0.07399 0.0
C226 C 0.36586 0.03456 0.09268 0.0
C227 C 0.33299 0.0592 0.08359 0.0
C228 C 0.29474 0.05552 0.09881 0.0
C229 C 0.26249 0.08049 0.08927 0.0
C230 C 0.26762 0.10785 0.06511 0.0
C231 C 0.30472 0.11099 0.04988 0.0
C232 C 0.33709 0.08704 0.05885 0.0
H233 H 0.26509 0.0463 0.18044 0.0
C234 C 0.24026 0.0342 0.16661 0.0
H235 H 0.22471 0.0093 0.12251 0.0
H236 H 0.42349 0.98613 0.11798 0.0
H237 H 0.41336 0.93742 0.15927 0.0
H238 H 0.34617 0.92858 0.18385 0.0
H239 H 0.28886 0.96862 0.16762 0.0
C240 C 0.24828 0.02188 0.13721 0.0
C241 C 0.28923 0.02709 0.12293 0.0
C242 C 0.32226 1.00293 0.13241 0.0
C243 C 0.36074 0.0071 0.11755 0.0
C244 C 0.39342 0.98334 0.12794 0.0
C245 C 0.38806 0.95544 0.15169 0.0
C246 C 0.35025 0.95054 0.16558 0.0
C247 C 0.31762 0.97387 0.15613 0.0
H248 H 0.07573 0.41313 0.57706 0.0
C249 C 0.05098 0.40763 0.56081 0.0
H250 H 0.99884 0.37255 0.55175 0.0
H251 H 0.09145 0.22401 0.61097 0.0
H252 H 0.11977 0.21968 0.55859 0.0
H253 H 0.10835 0.27324 0.52018 0.0
H254 H 0.06918 0.33169 0.53412 0.0
C255 C 0.0246 0.37799 0.56695 0.0
C256 C 0.03327 0.34717 0.59092 0.0
C257 C 0.05559 0.31276 0.58215 0.0
C258 C 0.06102 0.28127 0.60394 0.0
C259 C 0.08497 0.24808 0.59498 0.0
C260 C 0.10172 0.24536 0.56504 0.0
C261 C 0.09537 0.27554 0.54345 0.0
C262 C 0.07273 0.30896 0.55178 0.0
H263 H 1.01024 0.21235 0.62652 0.0
C264 C 0.02644 0.2142 0.64867 0.0
H265 H 0.06103 0.25307 0.67767 0.0
H266 H 0.99119 0.40992 0.61545 0.0
H267 H 0.96265 0.41444 0.66797 0.0
H268 H 0.97047 0.35915 0.70543 0.0
H269 H 1.00686 0.29904 0.69074 0.0
C270 C 0.04485 0.24894 0.65584 0.0
C271 C 0.0428 0.28357 0.63407 0.0
C272 C 0.02178 0.31863 0.64319 0.0
C273 C 0.01704 0.35048 0.62155 0.0
C274 C 0.99548 0.3849 0.63103 0.0
C275 C 0.97901 0.38786 0.66106 0.0
C276 C 0.98344 0.35673 0.68216 0.0
C277 C 1.00445 0.32241 0.67345 0.0
H278 H 0.6313 0.02681 0.082 0.0
C279 C 0.64818 0.02615 0.06009 0.0
H280 H 0.70595 0.03194 0.03905 0.0
H281 H 0.81201 0.10527 0.14175 0.0
H282 H 0.79859 0.16387 0.11023 0.0
H283 H 0.7457 0.16271 0.06945 0.0
H284 H 0.70585 0.10297 0.05997 0.0
C285 C 0.68901 0.02849 0.06072 0.0
C286 C 0.71342 0.03149 0.08993 0.0
C287 C 0.73603 0.06678 0.09554 0.0
C288 C 0.76649 0.06749 0.11904 0.0
C289 C 0.78879 0.10304 0.12396 0.0
C290 C 0.78129 0.13692 0.10612 0.0
C291 C 0.75152 0.13626 0.08316 0.0
C292 C 0.72903 0.10172 0.07785 0.0
H293 H 0.85133 0.02125 0.12258 0.0
C294 C 0.84731 0.02643 0.14759 0.0
H295 H 0.80361 0.03476 0.18365 0.0
H296 H 0.67434 0.95936 0.08657 0.0
H297 H 0.68599 0.902 0.11967 0.0
H298 H 0.73756 0.90408 0.16141 0.0
H299 H 0.77814 0.96359 0.17008 0.0
C300 C 0.80948 0.03202 0.1587 0.0
C301 C 0.77431 0.03289 0.13692 0.0
C302 C 0.74977 0.99856 0.13295 0.0
C303 C 0.71952 0.99764 0.10919 0.0
C304 C 0.6971 0.9621 0.1046 0.0
C305 C 0.70358 0.92886 0.12341 0.0
C306 C 0.73265 0.93001 0.1469 0.0
C307 C 0.7557 0.96431 0.15163 0.0
H308 H 0.07629 0.63728 0.57491 0.0
C309 C 0.05045 0.64076 0.5594 0.0
H310 H 0.99671 0.67297 0.55062 0.0
H311 H 0.04155 0.74619 0.69101 0.0
H312 H 0.0279 0.67994 0.71112 0.0
H313 H 1.01549 0.62354 0.67512 0.0
H314 H 0.0167 0.633 0.61874 0.0
C315 C 0.02307 0.66954 0.56555 0.0
C316 C 0.03179 0.70272 0.58783 0.0
C317 C 0.03122 0.69663 0.62068 0.0
C318 C 0.03814 0.72928 0.64145 0.0
C319 C 0.03673 0.72247 0.67417 0.0
C320 C 0.02884 0.68461 0.68603 0.0
C321 C 0.02187 0.65283 0.66576 0.0
C322 C 0.02284 0.65863 0.63345 0.0
H323 H 0.99688 0.83005 0.63615 0.0
C324 C 0.0231 0.83249 0.65146 0.0
H325 H 0.0756 0.80217 0.66723 0.0
H326 H 0.03588 0.72484 0.526 0.0
H327 H 0.05118 0.79038 0.5059 0.0
H328 H 0.0662 0.8462 0.54187 0.0
H329 H 0.06524 0.83671 0.59808 0.0
C330 C 0.05027 0.80255 0.6511 0.0
C331 C 0.0454 0.76797 0.62932 0.0
C332 C 0.04742 0.77374 0.59641 0.0
C333 C 0.03989 0.74129 0.57569 0.0
C334 C 0.04131 0.74821 0.54292 0.0
C335 C 0.05027 0.78577 0.531 0.0
C336 C 0.05863 0.81718 0.55124 0.0
C337 C 0.05755 0.81137 0.58353 0.0
H338 H 0.396 0.97362 0.93952 0.0
C339 C 0.41368 1.00102 0.94005 0.0
H340 H 0.41839 0.05925 0.92214 0.0
H341 H 0.29328 0.9629 0.82317 0.0
H342 H 0.35263 0.92593 0.80616 0.0
H343 H 0.41856 0.93545 0.83232 0.0
H344 H 0.42556 0.98203 0.87572 0.0
C345 C 0.40388 0.03026 0.92004 0.0
C346 C 0.36552 0.02741 0.90172 0.0
C347 C 0.36197 1.00043 0.87624 0.0
C348 C 0.32393 0.99512 0.86106 0.0
C349 C 0.32133 0.96793 0.83567 0.0
C350 C 0.35519 0.9466 0.82561 0.0
C351 C 0.39231 0.95194 0.84035 0.0
C352 C 0.39588 0.97859 0.86532 0.0
H353 H 0.2475 0.06635 0.8351 0.0
C354 C 0.23157 0.03827 0.83852 0.0
H355 H 0.23609 0.98061 0.85817 0.0
H356 H 0.36187 0.08211 0.94964 0.0
H357 H 0.30251 0.11815 0.96723 0.0
H358 H 0.23633 0.10798 0.94167 0.0
H359 H 0.22918 0.06175 0.89835 0.0
C360 C 0.24943 0.01005 0.85604 0.0
C361 C 0.28953 0.01702 0.87124 0.0
C362 C 0.29318 0.04432 0.8966 0.0
C363 C 0.33128 0.0498 0.91162 0.0
C364 C 0.33385 0.07683 0.93719 0.0
C365 C 0.29993 0.0977 0.94764 0.0
C366 C 0.2627 0.092 0.93323 0.0
C367 C 0.25912 0.06553 0.90816 0.0
H368 H 0.02483 0.42128 0.42379 0.0
C369 C 0.03569 0.40553 0.44433 0.0
H370 H 0.05484 0.35033 0.46282 0.0
H371 H 0.95345 0.23362 0.38171 0.0
H372 H 0.91096 0.23637 0.42821 0.0
H373 H 0.92299 0.28697 0.46929 0.0
H374 H 0.97731 0.33536 0.46396 0.0
C375 C 0.0426 0.36601 0.44273 0.0
C376 C 0.03134 0.34077 0.41539 0.0
C377 C 0.99952 0.31269 0.41885 0.0
C378 C 0.99303 0.2831 0.39546 0.0
C379 C 0.96047 0.25596 0.39924 0.0
C380 C 0.93566 0.25741 0.4257 0.0
C381 C 0.94241 0.28591 0.44881 0.0
C382 C 0.97382 0.31338 0.44552 0.0
H383 H 0.03473 0.20599 0.38124 0.0
C384 C 0.02638 0.20962 0.35676 0.0
H385 H 1.00845 0.25238 0.32285 0.0
H386 H 0.09332 0.39177 0.40048 0.0
H387 H 0.13434 0.39023 0.35323 0.0
H388 H 0.12283 0.33908 0.3125 0.0
H389 H 0.07033 0.289 0.31885 0.0
C390 C 0.01661 0.24652 0.34696 0.0
C391 C 0.01897 0.28111 0.36894 0.0
C392 C 0.04889 0.31094 0.36438 0.0
C393 C 0.0553 0.34069 0.38775 0.0
C394 C 0.08672 0.36891 0.3833 0.0
C395 C 0.11058 0.36829 0.35631 0.0
C396 C 0.10411 0.33948 0.33338 0.0
C397 C 0.07383 0.31093 0.33731 0.0
H398 H 0.67407 0.98364 0.94801 0.0
C399 C 0.65128 1.00678 0.94523 0.0
H400 H 0.6343 0.0566 0.9184 0.0
H401 H 0.81602 0.09228 0.8812 0.0
H402 H 0.79706 0.151 0.911 0.0
H403 H 0.73034 0.1553 0.93698 0.0
H404 H 0.68205 0.10125 0.93303 0.0
C405 C 0.65458 0.03131 0.92051 0.0
C406 C 0.6924 0.03063 0.90115 0.0
C407 C 0.72031 0.06273 0.90367 0.0
C408 C 0.7592 0.0599 0.88931 0.0
C409 C 0.78637 0.09248 0.8921 0.0
C410 C 0.77585 0.12647 0.90907 0.0
C411 C 0.73828 0.12891 0.92365 0.0
C412 C 0.71076 0.09755 0.92111 0.0
H413 H 0.79604 0.01774 0.81324 0.0
C414 C 0.82103 0.01957 0.82975 0.0
H415 H 0.83714 0.02244 0.87759 0.0
H416 H 0.64389 0.96698 0.8875 0.0
H417 H 0.66341 0.90716 0.85894 0.0
H418 H 0.73257 0.89986 0.83756 0.0
H419 H 0.78232 0.95242 0.844 0.0
C420 C 0.81271 0.02113 0.86061 0.0
C421 C 0.77044 0.02483 0.8728 0.0
C422 C 0.74212 0.99316 0.86953 0.0
C423 C 0.70276 0.99654 0.88311 0.0
C424 C 0.67457 0.96523 0.87856 0.0
C425 C 0.68532 0.93089 0.86211 0.0
C426 C 0.72422 0.92684 0.84997 0.0
C427 C 0.75244 0.95743 0.85365 0.0
H428 H 0.01954 0.62413 0.42401 0.0
C429 C 0.03396 0.63916 0.44364 0.0
H430 H 0.05931 0.69243 0.46124 0.0
H431 H 0.04983 0.74936 0.31417 0.0
H432 H 0.09454 0.69405 0.30161 0.0
H433 H 0.11129 0.64365 0.34147 0.0
H434 H 0.08307 0.64784 0.39391 0.0
C435 C 0.04395 0.67805 0.4417 0.0
C436 C 0.03063 0.70481 0.416 0.0
C437 C 0.04785 0.70201 0.38557 0.0
C438 C 0.03927 0.73182 0.36286 0.0
C439 C 0.05622 0.72807 0.33248 0.0
C440 C 0.08177 0.69642 0.32495 0.0
C441 C 0.09112 0.66798 0.34737 0.0
C442 C 0.07456 0.67065 0.37739 0.0
H443 H 0.06983 0.81733 0.35387 0.0
C444 C 0.04045 0.82428 0.34374 0.0
H445 H 0.97971 0.80411 0.33925 0.0
H446 H 0.9899 0.71737 0.47125 0.0
H447 H 0.94632 0.77322 0.48389 0.0
H448 H 0.93289 0.82565 0.44491 0.0
H449 H 0.96312 0.82253 0.39308 0.0
C450 C 1.00958 0.79883 0.3489 0.0
C451 C 1.01447 0.76483 0.3709 0.0
C452 C 0.99593 0.7667 0.40086 0.0
C453 C 1.004 0.73669 0.42341 0.0
C454 C 0.9854 0.73962 0.45333 0.0
C455 C 0.96012 0.77145 0.46088 0.0
C456 C 0.95254 0.80094 0.43892 0.0
C457 C 0.9701 0.79876 0.40924 0.0
loop_
_geom_bond_atom_site_label_1
_geom_bond_atom_site_label_2
_geom_bond_distance
_geom_bond_site_symmetry_2
_ccdc_geom_bond_type
H0 C8 0.930 . S
H1 C11 0.930 . S
H2 C13 0.930 1_565 S
H3 C14 0.970 . S
H4 C14 0.970 1_556 S
H5 C16 0.930 . S
H6 C18 0.930 1_565 S
H7 C20 0.930 . S
C8 H0 0.930 . S
C8 C9 1.382 . S
C8 C10 1.426 . S
C9 C8 1.382 . S
C9 C13 1.389 . S
C10 C8 1.426 . S
C10 C11 1.375 1_554 S
C10 C14 1.532 . S
C11 H1 0.930 . S
C11 C10 1.375 1_556 S
C11 C12 1.416 . S
C12 C11 1.416 . S
C12 C13 1.371 1_556 S
C13 H2 0.930 1_545 S
C13 C9 1.389 . S
C13 C12 1.371 1_554 S
C14 H3 0.970 . S
C14 H4 0.970 1_554 S
C14 C10 1.532 . S
C14 C15 1.499 . S
C15 C14 1.499 . S
C15 C16 1.370 . S
C15 C20 1.415 1_554 S
C16 H5 0.930 . S
C16 C15 1.370 . S
C16 C17 1.407 . S
C17 C16 1.407 . S
C17 C18 1.365 . S
C18 H6 0.930 1_545 S
C18 C17 1.365 . S
C18 C19 1.393 1_554 S
C19 C18 1.393 1_556 S
C19 C20 1.387 . S
C20 H7 0.930 . S
C20 C15 1.415 1_556 S
C20 C19 1.387 . S
H21 C29 0.930 . S
H22 C32 0.930 . S
H23 C34 0.930 1_655 S
H24 C35 0.970 . S
H25 C35 0.970 . S
H26 C37 0.930 . S
H27 C39 0.930 1_655 S
H28 C41 0.930 . S
C29 H21 0.930 . S
C29 C30 1.382 . S
C29 C31 1.426 . S
C30 C29 1.382 . S
C30 C34 1.389 . S
C31 C29 1.426 . S
C31 C32 1.375 . S
C31 C35 1.532 . S
C32 H22 0.930 . S
C32 C31 1.375 . S
C32 C33 1.416 . S
C33 C32 1.416 . S
C33 C34 1.371 . S
C34 H23 0.930 1_455 S
C34 C30 1.389 . S
C34 C33 1.371 . S
C35 H24 0.970 . S
C35 H25 0.970 . S
C35 C31 1.532 . S
C35 C36 1.499 . S
C36 C35 1.499 . S
C36 C37 1.370 . S
C36 C41 1.415 . S
C37 H26 0.930 . S
C37 C36 1.370 . S
C37 C38 1.407 . S
C38 C37 1.407 . S
C38 C39 1.365 . S
C39 H27 0.930 1_455 S
C39 C38 1.365 . S
C39 C40 1.393 . S
C40 C39 1.393 . S
C40 C41 1.387 . S
C41 H28 0.930 . S
C41 C36 1.415 . S
C41 C40 1.387 . S
Li42 N59 1.990 . S
Li42 O102 1.956 . S
Li42 O103 1.970 1_455 S
Li42 O104 1.961 . S
Li43 N67 1.990 . S
Li43 O102 1.970 1_565 S
Li43 O103 1.956 1_465 S
Li43 O105 1.961 . S
Li44 N89 1.990 . S
Li44 O102 1.961 . S
Li44 O104 1.956 . S
Li44 O105 1.970 1_545 S
Li45 N95 1.990 . S
Li45 O103 1.961 . S
Li45 O104 1.970 1_655 S
Li45 O105 1.956 1_645 S
C46 C48 1.348 1_545 S
C46 C49 1.356 . S
C46 O102 1.325 . S
N47 C50 1.297 1_545 S
N47 C51 1.279 . S
C48 C46 1.348 1_565 S
C48 C50 1.355 . S
C48 H106 0.929 . S
C49 C46 1.356 . S
C49 C51 1.358 . S
C49 H107 0.930 . S
C50 N47 1.297 1_565 S
C50 C48 1.355 . S
C50 H108 0.947 . S
C51 N47 1.279 . S
C51 C49 1.358 . S
C51 H109 0.930 . S
C52 C55 1.348 . S
C52 C56 1.356 1_545 S
C52 O103 1.325 . S
C53 N54 1.279 1_565 S
C53 C56 1.358 . S
C53 H110 0.930 . S
N54 C53 1.279 1_545 S
N54 C57 1.314 . S
C55 C52 1.348 . S
C55 C57 1.353 . S
C55 H111 0.929 . S
C56 C52 1.356 1_565 S
C56 C53 1.358 . S
C56 H112 0.930 . S
C57 N54 1.314 . S
C57 C55 1.353 . S
C57 H113 0.930 . S
C58 N59 1.314 1_655 S
C58 C63 1.353 . S
C58 H64 0.930 . S
N59 Li42 1.990 . S
N59 C58 1.314 1_455 S
N59 C61 1.279 . S
C60 C61 1.358 . S
C60 C62 1.356 . S
C60 H114 0.930 . S
C61 N59 1.279 . S
C61 C60 1.358 . S
C61 H65 0.930 . S
C62 C60 1.356 . S
C62 C63 1.348 1_455 S
C63 C58 1.353 . S
C63 C62 1.348 1_655 S
C63 H115 0.929 . S
H64 C58 0.930 . S
H65 C61 0.930 . S
C66 N67 1.314 . S
C66 C68 1.353 . S
C66 H72 0.930 . S
N67 Li43 1.990 . S
N67 C66 1.314 . S
N67 C70 1.279 1_455 S
C68 C66 1.353 . S
C68 C71 1.348 . S
C68 H116 0.929 . S
C69 C70 1.358 . S
C69 C71 1.356 1_655 S
C69 H117 0.930 . S
C70 N67 1.279 1_655 S
C70 C69 1.358 . S
C70 H73 0.930 . S
C71 C68 1.348 . S
C71 C69 1.356 1_455 S
H72 C66 0.930 . S
H73 C70 0.930 . S
C74 C76 1.348 1_455 S
C74 C77 1.356 . S
C74 O104 1.325 . S
N75 C78 1.297 1_455 S
N75 C79 1.279 . S
C76 C74 1.348 1_655 S
C76 C78 1.355 . S
C76 H118 0.929 . S
C77 C74 1.356 . S
C77 C79 1.358 . S
C77 H119 0.930 . S
C78 N75 1.297 1_655 S
C78 C76 1.355 . S
C78 H120 0.947 . S
C79 N75 1.279 . S
C79 C77 1.358 . S
C79 H121 0.930 . S
C80 C81 1.348 . S
C80 C82 1.356 1_455 S
C80 O105 1.325 . S
C81 C80 1.348 . S
C81 C83 1.353 . S
C81 H122 0.929 . S
C82 C80 1.356 1_655 S
C82 C84 1.358 . S
C82 H123 0.930 . S
C83 C81 1.353 . S
C83 N85 1.314 . S
C83 H124 0.930 . S
C84 C82 1.358 . S
C84 N85 1.279 1_655 S
C84 H125 0.930 . S
N85 C83 1.314 . S
N85 C84 1.279 1_455 S
C86 C88 1.353 . S
C86 N89 1.314 1_565 S
C86 H92 0.930 . S
C87 N89 1.279 . S
C87 C90 1.358 . S
C87 H93 0.930 . S
C88 C86 1.353 . S
C88 C91 1.348 1_565 S
C88 H126 0.929 . S
N89 Li44 1.990 . S
N89 C86 1.314 1_545 S
N89 C87 1.279 . S
C90 C87 1.358 . S
C90 C91 1.356 . S
C90 H127 0.930 . S
C91 C88 1.348 1_545 S
C91 C90 1.356 . S
H92 C86 0.930 . S
H93 C87 0.930 . S
C94 N95 1.314 . S
C94 C96 1.353 . S
C94 H100 0.930 . S
N95 Li45 1.990 . S
N95 C94 1.314 . S
N95 C98 1.279 1_545 S
C96 C94 1.353 . S
C96 C99 1.348 . S
C96 H128 0.929 . S
C97 C98 1.358 . S
C97 C99 1.356 1_565 S
C97 H129 0.930 . S
C98 N95 1.279 1_565 S
C98 C97 1.358 . S
C98 H101 0.930 . S
C99 C96 1.348 . S
C99 C97 1.356 1_545 S
H100 C94 0.930 . S
H101 C98 0.930 . S
O102 Li42 1.956 . S
O102 Li43 1.970 1_545 S
O102 Li44 1.961 . S
O102 C46 1.325 . S
O103 Li42 1.970 1_655 S
O103 Li43 1.956 1_645 S
O103 Li45 1.961 . S
O103 C52 1.325 . S
O104 Li42 1.961 . S
O104 Li44 1.956 . S
O104 Li45 1.970 1_455 S
O104 C74 1.325 . S
O105 Li43 1.961 . S
O105 Li44 1.970 1_565 S
O105 Li45 1.956 1_465 S
O105 C80 1.325 . S
H106 C48 0.929 . S
H107 C49 0.930 . S
H108 C50 0.947 . S
H109 C51 0.930 . S
H110 C53 0.930 . S
H111 C55 0.929 . S
H112 C56 0.930 . S
H113 C57 0.930 . S
H114 C60 0.930 . S
H115 C63 0.929 . S
H116 C68 0.929 . S
H117 C69 0.930 . S
H118 C76 0.929 . S
H119 C77 0.930 . S
H120 C78 0.947 . S
H121 C79 0.930 . S
H122 C81 0.929 . S
H123 C82 0.930 . S
H124 C83 0.930 . S
H125 C84 0.930 . S
H126 C88 0.929 . S
H127 C90 0.930 . S
H128 C96 0.929 . S
H129 C97 0.930 . S
Li130 N147 1.990 . S
Li130 O190 1.956 1_655 S
Li130 O191 1.970 1_645 S
Li130 O192 1.961 . S
Li131 N155 1.990 . S
Li131 O190 1.970 . S
Li131 O191 1.956 1_545 S
Li131 O193 1.961 . S
Li132 N177 1.990 . S
Li132 O190 1.961 . S
Li132 O192 1.956 1_455 S
Li132 O193 1.970 . S
Li133 N183 1.990 . S
Li133 O191 1.961 . S
Li133 O192 1.970 1_465 S
Li133 O193 1.956 1_565 S
C134 C136 1.348 . S
C134 C137 1.356 1_455 S
C134 O190 1.325 . S
N135 C138 1.314 . S
N135 C139 1.279 1_455 S
C136 C134 1.348 . S
C136 C138 1.353 . S
C136 H194 0.929 . S
C137 C134 1.356 1_655 S
C137 C139 1.358 . S
C137 H195 0.930 . S
C138 N135 1.314 . S
C138 C136 1.353 . S
C138 H196 0.930 . S
C139 N135 1.279 1_655 S
C139 C137 1.358 . S
C139 H197 0.930 . S
C140 C143 1.348 1_455 S
C140 C144 1.356 . S
C140 O191 1.325 . S
C141 N142 1.279 . S
C141 C144 1.358 . S
C141 H198 0.930 . S
N142 C141 1.279 . S
N142 C145 1.314 1_455 S
C143 C140 1.348 1_655 S
C143 C145 1.353 . S
C143 H199 0.929 . S
C144 C140 1.356 . S
C144 C141 1.358 . S
C144 H200 0.930 . S
C145 N142 1.314 1_655 S
C145 C143 1.353 . S
C145 H201 0.930 . S
C146 N147 1.314 1_565 S
C146 C151 1.353 . S
C146 H152 0.930 . S
N147 Li130 1.990 . S
N147 C146 1.314 1_545 S
N147 C149 1.279 . S
C148 C149 1.358 . S
C148 C150 1.356 . S
C148 H202 0.930 . S
C149 N147 1.279 . S
C149 C148 1.358 . S
C149 H153 0.930 . S
C150 C148 1.356 . S
C150 C151 1.348 1_545 S
C151 C146 1.353 . S
C151 C150 1.348 1_565 S
C151 H203 0.929 . S
H152 C146 0.930 . S
H153 C149 0.930 . S
C154 N155 1.314 . S
C154 C156 1.353 . S
C154 H160 0.930 . S
N155 Li131 1.990 . S
N155 C154 1.314 . S
N155 C158 1.279 1_545 S
C156 C154 1.353 . S
C156 C159 1.348 . S
C156 H204 0.929 . S
C157 C158 1.358 . S
C157 C159 1.356 1_565 S
C157 H205 0.930 . S
C158 N155 1.279 1_565 S
C158 C157 1.358 . S
C158 H161 0.930 . S
C159 C156 1.348 . S
C159 C157 1.356 1_545 S
H160 C154 0.930 . S
H161 C158 0.930 . S
C162 C164 1.348 1_545 S
C162 C165 1.356 . S
C162 O192 1.325 . S
N163 C166 1.314 1_545 S
N163 C167 1.279 . S
C164 C162 1.348 1_565 S
C164 C166 1.353 . S
C164 H206 0.929 . S
C165 C162 1.356 . S
C165 C167 1.358 . S
C165 H207 0.930 . S
C166 N163 1.314 1_565 S
C166 C164 1.353 . S
C166 H208 0.930 . S
C167 N163 1.279 . S
C167 C165 1.358 . S
C167 H209 0.930 . S
C168 C169 1.348 . S
C168 C170 1.356 1_545 S
C168 O193 1.325 . S
C169 C168 1.348 . S
C169 C171 1.353 . S
C169 H210 0.929 . S
C170 C168 1.356 1_565 S
C170 C172 1.358 . S
C170 H211 0.930 . S
C171 C169 1.353 . S
C171 N173 1.314 . S
C171 H212 0.930 . S
C172 C170 1.358 . S
C172 N173 1.279 1_565 S
C172 H213 0.930 . S
N173 C171 1.314 . S
N173 C172 1.279 1_545 S
C174 C176 1.353 . S
C174 N177 1.314 . S
C174 H180 0.930 . S
C175 N177 1.279 1_655 S
C175 C178 1.358 . S
C175 H181 0.930 . S
C176 C174 1.353 . S
C176 C179 1.348 . S
C176 H214 0.929 . S
N177 Li132 1.990 . S
N177 C174 1.314 . S
N177 C175 1.279 1_455 S
C178 C175 1.358 . S
C178 C179 1.356 1_655 S
C178 H215 0.930 . S
C179 C176 1.348 . S
C179 C178 1.356 1_455 S
H180 C174 0.930 . S
H181 C175 0.930 . S
C182 N183 1.314 1_655 S
C182 C184 1.353 . S
C182 H188 0.930 . S
N183 Li133 1.990 . S
N183 C182 1.314 1_455 S
N183 C186 1.279 . S
C184 C182 1.353 . S
C184 C187 1.348 1_655 S
C184 H216 0.929 . S
C185 C186 1.358 . S
C185 C187 1.356 . S
C185 H217 0.930 . S
C186 N183 1.279 . S
C186 C185 1.358 . S
C186 H189 0.930 . S
C187 C184 1.348 1_455 S
C187 C185 1.356 . S
H188 C182 0.930 . S
H189 C186 0.930 . S
O190 Li130 1.956 1_455 S
O190 Li131 1.970 . S
O190 Li132 1.961 . S
O190 C134 1.325 . S
O191 Li130 1.970 1_465 S
O191 Li131 1.956 1_565 S
O191 Li133 1.961 . S
O191 C140 1.325 . S
O192 Li130 1.961 . S
O192 Li132 1.956 1_655 S
O192 Li133 1.970 1_645 S
O192 C162 1.325 . S
O193 Li131 1.961 . S
O193 Li132 1.970 . S
O193 Li133 1.956 1_545 S
O193 C168 1.325 . S
H194 C136 0.929 . S
H195 C137 0.930 . S
H196 C138 0.930 . S
H197 C139 0.930 . S
H198 C141 0.930 . S
H199 C143 0.929 . S
H200 C144 0.930 . S
H201 C145 0.930 . S
H202 C148 0.930 . S
H203 C151 0.929 . S
H204 C156 0.929 . S
H205 C157 0.930 . S
H206 C164 0.929 . S
H207 C165 0.930 . S
H208 C166 0.930 . S
H209 C167 0.930 . S
H210 C169 0.929 . S
H211 C170 0.930 . S
H212 C171 0.930 . S
H213 C172 0.930 . S
H214 C176 0.929 . S
H215 C178 0.930 . S
H216 C184 0.929 . S
H217 C185 0.930 . S
H218 C219 0.951 . S
C219 H218 0.951 . S
C219 C225 1.265 . S
H220 C225 0.950 . S
H221 C229 0.949 . S
H222 C230 0.950 . S
H223 C231 0.951 . S
H224 C232 0.951 . S
C225 C219 1.265 . S
C225 H220 0.950 . S
C225 C226 1.478 . S
C226 C225 1.478 . S
C226 C227 1.397 . S
C226 C243 1.394 1_545 S
C227 C226 1.397 . S
C227 C228 1.438 . S
C227 C232 1.429 . S
C228 C227 1.438 . S
C228 C229 1.428 . S
C228 C241 1.394 . S
C229 H221 0.949 . S
C229 C228 1.428 . S
C229 C230 1.345 . S
C230 H222 0.950 . S
C230 C229 1.345 . S
C230 C231 1.424 . S
C231 H223 0.951 . S
C231 C230 1.424 . S
C231 C232 1.347 . S
C232 H224 0.951 . S
C232 C227 1.429 . S
C232 C231 1.347 . S
H233 C234 0.951 . S
C234 H233 0.951 . S
C234 C240 1.265 . S
H235 C240 0.950 . S
H236 C244 0.949 . S
H237 C245 0.950 . S
H238 C246 0.951 . S
H239 C247 0.951 . S
C240 C234 1.265 . S
C240 H235 0.950 . S
C240 C241 1.478 . S
C241 C228 1.394 . S
C241 C240 1.478 . S
C241 C242 1.397 1_545 S
C242 C241 1.397 1_565 S
C242 C243 1.438 . S
C242 C247 1.429 . S
C243 C226 1.394 1_565 S
C243 C242 1.438 . S
C243 C244 1.428 . S
C244 H236 0.949 . S
C244 C243 1.428 . S
C244 C245 1.345 . S
C245 H237 0.950 . S
C245 C244 1.345 . S
C245 C246 1.424 . S
C246 H238 0.951 . S
C246 C245 1.424 . S
C246 C247 1.347 . S
C247 H239 0.951 . S
C247 C242 1.429 . S
C247 C246 1.347 . S
H248 C249 0.951 . S
C249 H248 0.951 . S
C249 C255 1.265 . S
H250 C255 0.950 . S
H251 C259 0.949 . S
H252 C260 0.950 . S
H253 C261 0.951 . S
H254 C262 0.951 . S
C255 C249 1.265 . S
C255 H250 0.950 . S
C255 C256 1.478 . S
C256 C255 1.478 . S
C256 C257 1.397 . S
C256 C273 1.394 1_455 S
C257 C256 1.397 . S
C257 C258 1.438 . S
C257 C262 1.429 . S
C258 C257 1.438 . S
C258 C259 1.428 . S
C258 C271 1.394 . S
C259 H251 0.949 . S
C259 C258 1.428 . S
C259 C260 1.345 . S
C260 H252 0.950 . S
C260 C259 1.345 . S
C260 C261 1.424 . S
C261 H253 0.951 . S
C261 C260 1.424 . S
C261 C262 1.347 . S
C262 H254 0.951 . S
C262 C257 1.429 . S
C262 C261 1.347 . S
H263 C264 0.951 . S
C264 H263 0.951 . S
C264 C270 1.265 . S
H265 C270 0.950 . S
H266 C274 0.949 . S
H267 C275 0.950 . S
H268 C276 0.951 . S
H269 C277 0.951 . S
C270 C264 1.265 . S
C270 H265 0.950 . S
C270 C271 1.478 . S
C271 C258 1.394 . S
C271 C270 1.478 . S
C271 C272 1.397 1_455 S
C272 C271 1.397 1_655 S
C272 C273 1.438 . S
C272 C277 1.429 . S
C273 C256 1.394 1_655 S
C273 C272 1.438 . S
C273 C274 1.428 . S
C274 H266 0.949 . S
C274 C273 1.428 . S
C274 C275 1.345 . S
C275 H267 0.950 . S
C275 C274 1.345 . S
C275 C276 1.424 . S
C276 H268 0.951 . S
C276 C275 1.424 . S
C276 C277 1.347 . S
C277 H269 0.951 . S
C277 C272 1.429 . S
C277 C276 1.347 . S
H278 C279 0.951 . S
C279 H278 0.951 . S
C279 C285 1.265 . S
H280 C285 0.950 . S
H281 C289 0.949 . S
H282 C290 0.950 . S
H283 C291 0.951 . S
H284 C292 0.951 . S
C285 C279 1.265 . S
C285 H280 0.950 . S
C285 C286 1.478 . S
C286 C285 1.478 . S
C286 C287 1.397 . S
C286 C303 1.394 1_545 S
C287 C286 1.397 . S
C287 C288 1.438 . S
C287 C292 1.429 . S
C288 C287 1.438 . S
C288 C289 1.428 . S
C288 C301 1.394 . S
C289 H281 0.949 . S
C289 C288 1.428 . S
C289 C290 1.345 . S
C290 H282 0.950 . S
C290 C289 1.345 . S
C290 C291 1.424 . S
C291 H283 0.951 . S
C291 C290 1.424 . S
C291 C292 1.347 . S
C292 H284 0.951 . S
C292 C287 1.429 . S
C292 C291 1.347 . S
H293 C294 0.951 . S
C294 H293 0.951 . S
C294 C300 1.265 . S
H295 C300 0.950 . S
H296 C304 0.949 . S
H297 C305 0.950 . S
H298 C306 0.951 . S
H299 C307 0.951 . S
C300 C294 1.265 . S
C300 H295 0.950 . S
C300 C301 1.478 . S
C301 C288 1.394 . S
C301 C300 1.478 . S
C301 C302 1.397 1_545 S
C302 C301 1.397 1_565 S
C302 C303 1.438 . S
C302 C307 1.429 . S
C303 C286 1.394 1_565 S
C303 C302 1.438 . S
C303 C304 1.428 . S
C304 H296 0.949 . S
C304 C303 1.428 . S
C304 C305 1.345 . S
C305 H297 0.950 . S
C305 C304 1.345 . S
C305 C306 1.424 . S
C306 H298 0.951 . S
C306 C305 1.424 . S
C306 C307 1.347 . S
C307 H299 0.951 . S
C307 C302 1.429 . S
C307 C306 1.347 . S
H308 C309 0.951 . S
C309 H308 0.951 . S
C309 C315 1.265 1_455 S
H310 C315 0.950 . S
H311 C319 0.949 . S
H312 C320 0.950 . S
H313 C321 0.951 . S
H314 C322 0.951 . S
C315 C309 1.265 1_655 S
C315 H310 0.950 . S
C315 C316 1.478 1_655 S
C316 C315 1.478 1_455 S
C316 C317 1.397 1_455 S
C316 C333 1.394 . S
C317 C316 1.397 1_655 S
C317 C318 1.438 1_655 S
C317 C322 1.429 . S
C318 C317 1.438 1_455 S
C318 C319 1.427 1_455 S
C318 C331 1.394 . S
C319 H311 0.949 . S
C319 C318 1.427 1_655 S
C319 C320 1.345 . S
C320 H312 0.950 . S
C320 C319 1.345 . S
C320 C321 1.424 . S
C321 H313 0.951 . S
C321 C320 1.424 . S
C321 C322 1.347 . S
C322 H314 0.951 . S
C322 C317 1.429 . S
C322 C321 1.347 . S
H323 C324 0.951 1_655 S
C324 H323 0.951 1_455 S
C324 C330 1.265 . S
H325 C330 0.950 . S
H326 C334 0.949 . S
H327 C335 0.950 . S
H328 C336 0.951 . S
H329 C337 0.951 . S
C330 C324 1.265 . S
C330 H325 0.950 . S
C330 C331 1.478 . S
C331 C318 1.394 . S
C331 C330 1.478 . S
C331 C332 1.397 . S
C332 C331 1.397 . S
C332 C333 1.438 . S
C332 C337 1.429 . S
C333 C316 1.394 . S
C333 C332 1.438 . S
C333 C334 1.428 . S
C334 H326 0.949 . S
C334 C333 1.428 . S
C334 C335 1.345 . S
C335 H327 0.950 . S
C335 C334 1.345 . S
C335 C336 1.424 . S
C336 H328 0.951 . S
C336 C335 1.424 . S
C336 C337 1.347 . S
C337 H329 0.951 . S
C337 C332 1.429 . S
C337 C336 1.347 . S
H338 C339 0.951 . S
C339 H338 0.951 . S
C339 C345 1.265 . S
H340 C345 0.950 . S
H341 C349 0.949 . S
H342 C350 0.950 . S
H343 C351 0.951 . S
H344 C352 0.951 . S
C345 C339 1.265 . S
C345 H340 0.950 . S
C345 C346 1.478 . S
C346 C345 1.478 . S
C346 C347 1.397 1_545 S
C346 C363 1.394 . S
C347 C346 1.397 1_565 S
C347 C348 1.438 . S
C347 C352 1.429 . S
C348 C347 1.438 . S
C348 C349 1.428 . S
C348 C361 1.394 1_565 S
C349 H341 0.949 . S
C349 C348 1.428 . S
C349 C350 1.345 . S
C350 H342 0.950 . S
C350 C349 1.345 . S
C350 C351 1.424 . S
C351 H343 0.951 . S
C351 C350 1.424 . S
C351 C352 1.347 . S
C352 H344 0.951 . S
C352 C347 1.429 . S
C352 C351 1.347 . S
H353 C354 0.951 . S
C354 H353 0.951 . S
C354 C360 1.265 . S
H355 C360 0.950 . S
H356 C364 0.949 . S
H357 C365 0.950 . S
H358 C366 0.951 . S
H359 C367 0.951 . S
C360 C354 1.265 . S
C360 H355 0.950 . S
C360 C361 1.478 . S
C361 C348 1.394 1_545 S
C361 C360 1.478 . S
C361 C362 1.397 . S
C362 C361 1.397 . S
C362 C363 1.438 . S
C362 C367 1.429 . S
C363 C346 1.394 . S
C363 C362 1.438 . S
C363 C364 1.428 . S
C364 H356 0.949 . S
C364 C363 1.428 . S
C364 C365 1.345 . S
C365 H357 0.950 . S
C365 C364 1.345 . S
C365 C366 1.424 . S
C366 H358 0.951 . S
C366 C365 1.424 . S
C366 C367 1.347 . S
C367 H359 0.951 . S
C367 C362 1.429 . S
C367 C366 1.347 . S
H368 C369 0.951 1_655 S
C369 H368 0.951 1_455 S
C369 C375 1.265 . S
H370 C375 0.950 . S
H371 C379 0.947 1_655 S
H372 C380 0.950 1_655 S
H373 C381 0.951 . S
H374 C382 0.951 . S
C375 C369 1.265 . S
C375 H370 0.950 . S
C375 C376 1.478 . S
C376 C375 1.478 . S
C376 C377 1.397 . S
C376 C393 1.394 . S
C377 C376 1.397 . S
C377 C378 1.438 . S
C377 C382 1.429 . S
C378 C377 1.438 . S
C378 C379 1.430 . S
C378 C391 1.394 . S
C379 H371 0.947 1_455 S
C379 C378 1.430 . S
C379 C380 1.345 . S
C380 H372 0.950 1_455 S
C380 C379 1.345 . S
C380 C381 1.424 . S
C381 H373 0.951 . S
C381 C380 1.424 . S
C381 C382 1.347 . S
C382 H374 0.951 . S
C382 C377 1.429 . S
C382 C381 1.347 . S
H383 C384 0.951 . S
C384 H383 0.951 . S
C384 C390 1.260 1_455 S
H385 C390 0.957 . S
H386 C394 0.949 . S
H387 C395 0.950 . S
H388 C396 0.951 . S
H389 C397 0.951 . S
C390 C384 1.260 1_655 S
C390 H385 0.957 . S
C390 C391 1.477 1_655 S
C391 C378 1.394 . S
C391 C390 1.477 1_455 S
C391 C392 1.397 . S
C392 C391 1.397 . S
C392 C393 1.438 . S
C392 C397 1.429 . S
C393 C376 1.394 . S
C393 C392 1.438 . S
C393 C394 1.428 . S
C394 H386 0.949 . S
C394 C393 1.428 . S
C394 C395 1.345 . S
C395 H387 0.950 . S
C395 C394 1.345 . S
C395 C396 1.424 . S
C396 H388 0.951 . S
C396 C395 1.424 . S
C396 C397 1.347 . S
C397 H389 0.951 . S
C397 C392 1.429 . S
C397 C396 1.347 . S
H398 C399 0.951 . S
C399 H398 0.951 . S
C399 C405 1.265 . S
H400 C405 0.950 . S
H401 C409 0.949 . S
H402 C410 0.950 . S
H403 C411 0.951 . S
H404 C412 0.951 . S
C405 C399 1.265 . S
C405 H400 0.950 . S
C405 C406 1.478 . S
C406 C405 1.478 . S
C406 C407 1.397 . S
C406 C423 1.394 1_545 S
C407 C406 1.397 . S
C407 C408 1.438 . S
C407 C412 1.429 . S
C408 C407 1.438 . S
C408 C409 1.428 . S
C408 C421 1.394 . S
C409 H401 0.949 . S
C409 C408 1.428 . S
C409 C410 1.345 . S
C410 H402 0.950 . S
C410 C409 1.345 . S
C410 C411 1.424 . S
C411 H403 0.951 . S
C411 C410 1.424 . S
C411 C412 1.347 . S
C412 H404 0.951 . S
C412 C407 1.429 . S
C412 C411 1.347 . S
H413 C414 0.951 . S
C414 H413 0.951 . S
C414 C420 1.265 . S
H415 C420 0.950 . S
H416 C424 0.949 . S
H417 C425 0.950 . S
H418 C426 0.951 . S
H419 C427 0.951 . S
C420 C414 1.265 . S
C420 H415 0.950 . S
C420 C421 1.478 . S
C421 C408 1.394 . S
C421 C420 1.478 . S
C421 C422 1.397 1_545 S
C422 C421 1.397 1_565 S
C422 C423 1.438 . S
C422 C427 1.429 . S
C423 C406 1.394 1_565 S
C423 C422 1.438 . S
C423 C424 1.428 . S
C424 H416 0.949 . S
C424 C423 1.428 . S
C424 C425 1.345 . S
C425 H417 0.950 . S
C425 C424 1.345 . S
C425 C426 1.424 . S
C426 H418 0.951 . S
C426 C425 1.424 . S
C426 C427 1.347 . S
C427 H419 0.951 . S
C427 C422 1.429 . S
C427 C426 1.347 . S
H428 C429 0.951 1_655 S
C429 H428 0.951 1_455 S
C429 C435 1.265 . S
H430 C435 0.950 . S
H431 C439 0.949 . S
H432 C440 0.950 . S
H433 C441 0.951 . S
H434 C442 0.951 . S
C435 C429 1.265 . S
C435 H430 0.950 . S
C435 C436 1.478 . S
C436 C435 1.478 . S
C436 C437 1.397 . S
C436 C453 1.394 . S
C437 C436 1.397 . S
C437 C438 1.438 . S
C437 C442 1.429 . S
C438 C437 1.438 . S
C438 C439 1.428 . S
C438 C451 1.394 . S
C439 H431 0.949 . S
C439 C438 1.428 . S
C439 C440 1.345 . S
C440 H432 0.950 . S
C440 C439 1.345 . S
C440 C441 1.424 . S
C441 H433 0.951 . S
C441 C440 1.424 . S
C441 C442 1.347 . S
C442 H434 0.951 . S
C442 C437 1.429 . S
C442 C441 1.347 . S
H443 C444 0.951 . S
C444 H443 0.951 . S
C444 C450 1.249 1_455 S
H445 C450 0.973 . S
H446 C454 0.949 . S
H447 C455 0.950 . S
H448 C456 0.951 . S
H449 C457 0.951 . S
C450 C444 1.249 1_655 S
C450 H445 0.973 . S
C450 C451 1.472 1_655 S
C451 C438 1.394 . S
C451 C450 1.472 1_455 S
C451 C452 1.397 . S
C452 C451 1.397 . S
C452 C453 1.438 . S
C452 C457 1.429 1_455 S
C453 C436 1.394 . S
C453 C452 1.438 . S
C453 C454 1.428 . S
C454 H446 0.949 . S
C454 C453 1.428 . S
C454 C455 1.345 1_455 S
C455 H447 0.950 . S
C455 C454 1.345 1_655 S
C455 C456 1.424 . S
C456 H448 0.951 . S
C456 C455 1.424 . S
C456 C457 1.347 . S
C457 H449 0.951 . S
C457 C452 1.429 1_655 S
C457 C456 1.347 . S
C234 C91 1.542 . S
C219 C17 1.407 . S
C264 C179 1.545 . S
C249 C40 1.507 . S
C294 C99 1.560 . S
C279 C9 1.520 . S
C324 C187 1.547 . S
C309 C33 1.411 . S
C354 C159 1.532 . S
C339 C19 1.420 . S
C384 C62 1.552 . S
C369 C38 1.506 . S
C414 C150 1.536 . S
C399 C12 1.395 . S
C429 C30 1.493 . S
C444 C71 1.555 . S
