# Generated by pormake.
# Topology ssb, (4,4)-cn, num edge types: 1
# Building blocks:
#     Node 0, Type 0, BuildingBlock: MUDLON_clean_linker_0, # of connection points: 4
#     Node 1, Type 0, BuildingBlock: MUDLON_clean_linker_0, # of connection points: 4
#     Node 2, Type 0, BuildingBlock: MUDLON_clean_linker_0, # of connection points: 4
#     Node 3, Type 0, BuildingBlock: MUDLON_clean_linker_0, # of connection points: 4
#     Node 4, Type 0, BuildingBlock: MUDLON_clean_linker_0, # of connection points: 4
#     Node 5, Type 0, BuildingBlock: MUDLON_clean_linker_0, # of connection points: 4
#     Node 6, Type 0, BuildingBlock: MUDLON_clean_linker_0, # of connection points: 4
#     Node 7, Type 0, BuildingBlock: MUDLON_clean_linker_0, # of connection points: 4
#     Node 8, Type 1, BuildingBlock: KOZSID_clean_sbu_0, # of connection points: 4
#     Node 9, Type 1, BuildingBlock: KOZSID_clean_sbu_0, # of connection points: 4
#     Node 10, Type 1, BuildingBlock: KOZSID_clean_sbu_0, # of connection points: 4
#     Node 11, Type 1, BuildingBlock: KOZSID_clean_sbu_0, # of connection points: 4
#     Node 12, Type 1, BuildingBlock: KOZSID_clean_sbu_0, # of connection points: 4
#     Node 13, Type 1, BuildingBlock: KOZSID_clean_sbu_0, # of connection points: 4
#     Node 14, Type 1, BuildingBlock: KOZSID_clean_sbu_0, # of connection points: 4
#     Node 15, Type 1, BuildingBlock: KOZSID_clean_sbu_0, # of connection points: 4
#     Edge 16, Type (0, 1), BuildingBlock: TEMPAE_clean_linker_10, # of connection points: 2
#     Edge 17, Type (0, 1), BuildingBlock: TEMPAE_clean_linker_10, # of connection points: 2
#     Edge 18, Type (0, 1), BuildingBlock: TEMPAE_clean_linker_10, # of connection points: 2
#     Edge 19, Type (0, 1), BuildingBlock: TEMPAE_clean_linker_10, # of connection points: 2
#     Edge 20, Type (0, 1), BuildingBlock: TEMPAE_clean_linker_10, # of connection points: 2
#     Edge 21, Type (0, 1), BuildingBlock: TEMPAE_clean_linker_10, # of connection points: 2
#     Edge 22, Type (0, 1), BuildingBlock: TEMPAE_clean_linker_10, # of connection points: 2
#     Edge 23, Type (0, 1), BuildingBlock: TEMPAE_clean_linker_10, # of connection points: 2
#     Edge 24, Type (0, 1), BuildingBlock: TEMPAE_clean_linker_10, # of connection points: 2
#     Edge 25, Type (0, 1), BuildingBlock: TEMPAE_clean_linker_10, # of connection points: 2
#     Edge 26, Type (0, 1), BuildingBlock: TEMPAE_clean_linker_10, # of connection points: 2
#     Edge 27, Type (0, 1), BuildingBlock: TEMPAE_clean_linker_10, # of connection points: 2
#     Edge 28, Type (0, 1), BuildingBlock: TEMPAE_clean_linker_10, # of connection points: 2
#     Edge 29, Type (0, 1), BuildingBlock: TEMPAE_clean_linker_10, # of connection points: 2
#     Edge 30, Type (0, 1), BuildingBlock: TEMPAE_clean_linker_10, # of connection points: 2
#     Edge 31, Type (0, 1), BuildingBlock: TEMPAE_clean_linker_10, # of connection points: 2
#     Edge 32, Type (0, 1), BuildingBlock: TEMPAE_clean_linker_10, # of connection points: 2
#     Edge 33, Type (0, 1), BuildingBlock: TEMPAE_clean_linker_10, # of connection points: 2
#     Edge 34, Type (0, 1), BuildingBlock: TEMPAE_clean_linker_10, # of connection points: 2
#     Edge 35, Type (0, 1), BuildingBlock: TEMPAE_clean_linker_10, # of connection points: 2
#     Edge 36, Type (0, 1), BuildingBlock: TEMPAE_clean_linker_10, # of connection points: 2
#     Edge 37, Type (0, 1), BuildingBlock: TEMPAE_clean_linker_10, # of connection points: 2
#     Edge 38, Type (0, 1), BuildingBlock: TEMPAE_clean_linker_10, # of connection points: 2
#     Edge 39, Type (0, 1), BuildingBlock: TEMPAE_clean_linker_10, # of connection points: 2
#     Edge 40, Type (0, 1), BuildingBlock: TEMPAE_clean_linker_10, # of connection points: 2
#     Edge 41, Type (0, 1), BuildingBlock: TEMPAE_clean_linker_10, # of connection points: 2
#     Edge 42, Type (0, 1), BuildingBlock: TEMPAE_clean_linker_10, # of connection points: 2
#     Edge 43, Type (0, 1), BuildingBlock: TEMPAE_clean_linker_10, # of connection points: 2
#     Edge 44, Type (0, 1), BuildingBlock: TEMPAE_clean_linker_10, # of connection points: 2
#     Edge 45, Type (0, 1), BuildingBlock: TEMPAE_clean_linker_10, # of connection points: 2
#     Edge 46, Type (0, 1), BuildingBlock: TEMPAE_clean_linker_10, # of connection points: 2
#     Edge 47, Type (0, 1), BuildingBlock: TEMPAE_clean_linker_10, # of connection points: 2
# Relax obj value: 0.003
# Max RMSD: 0.058
# Mean RMSD: 0.024
data_MOF--net-ssb--node1-KOZSID_clean_sbu_0--node2-MUDLON_clean_linker_0--edge1-TEMPAE_clean_linker_10
_symmetry_space_group_name_H-M    P1
_symmetry_Int_Tables_number       1
_symmetry_cell_setting            triclinic
loop_
_symmetry_equiv_pos_as_xyz
'x, y, z'
_cell_length_a     70.559911
_cell_length_b     70.529086
_cell_length_c     52.016604
_cell_angle_alpha  92.145865
_cell_angle_beta   94.272812
_cell_angle_gamma 89.969124
loop_
_atom_site_label
_atom_site_type_symbol
_atom_site_fract_x
_atom_site_fract_y
_atom_site_fract_z
_atom_type_partial_charge
H0 H 0.26623 0.29919 0.15676 0.0
N1 N 0.2947 0.28826 0.18902 0.0
H2 H 0.26052 0.33085 0.14054 0.0
H3 H 0.31281 0.3209 0.20758 0.0
H4 H 0.3062 0.35281 0.19347 0.0
H5 H 0.32999 0.28944 0.21502 0.0
H6 H 0.36035 0.28371 0.19602 0.0
H7 H 0.29993 0.27504 0.14173 0.0
H8 H 0.33023 0.26952 0.12254 0.0
H9 H 0.27632 0.25592 0.19387 0.0
H10 H 0.30192 0.30314 0.23862 0.0
H11 H 0.26737 0.24179 0.23351 0.0
H12 H 0.29239 0.28971 0.27793 0.0
H13 H 0.22158 0.2185 0.34308 0.0
H14 H 0.19143 0.2273 0.35984 0.0
H15 H 0.21773 0.27727 0.39777 0.0
H16 H 0.24824 0.26774 0.38177 0.0
H17 H 0.27377 0.22811 0.39934 0.0
H18 H 0.27959 0.19668 0.41666 0.0
H19 H 0.25552 0.17079 0.345 0.0
H20 H 0.24975 0.20234 0.32787 0.0
H21 H 0.23648 0.23262 0.30681 0.0
H22 H 0.24623 0.24512 0.26671 0.0
H23 H 0.29882 0.26505 0.30666 0.0
N24 N 0.25587 0.23635 0.35453 0.0
H25 H 0.28846 0.2532 0.34692 0.0
C26 C 0.28962 0.30763 0.18374 0.0
C27 C 0.27472 0.31096 0.16516 0.0
C28 C 0.27147 0.32915 0.15598 0.0
C29 C 0.28292 0.3446 0.16553 0.0
C30 C 0.29728 0.34133 0.18518 0.0
C31 C 0.30082 0.32304 0.19383 0.0
C32 C 0.31265 0.2825 0.17975 0.0
C33 C 0.32989 0.28468 0.19501 0.0
C34 C 0.34723 0.28142 0.18413 0.0
C35 C 0.34761 0.27629 0.15778 0.0
C36 C 0.33034 0.27361 0.14283 0.0
C37 C 0.31307 0.27661 0.15378 0.0
C38 C 0.28962 0.28066 0.21301 0.0
C39 C 0.27987 0.26332 0.21222 0.0
C40 C 0.27467 0.25533 0.23492 0.0
C41 C 0.27907 0.26459 0.25906 0.0
C42 C 0.28896 0.28198 0.2598 0.0
C43 C 0.29428 0.28986 0.23711 0.0
C44 C 0.23731 0.24239 0.36146 0.0
C45 C 0.22091 0.2314 0.35486 0.0
C46 C 0.20354 0.23657 0.36433 0.0
C47 C 0.20209 0.25296 0.38037 0.0
C48 C 0.21836 0.26436 0.38592 0.0
C49 C 0.23577 0.25906 0.37662 0.0
C50 C 0.26135 0.21761 0.36242 0.0
C51 C 0.27012 0.21563 0.38723 0.0
C52 C 0.27344 0.19766 0.39705 0.0
C53 C 0.26794 0.18122 0.38224 0.0
C54 C 0.25973 0.18319 0.35697 0.0
C55 C 0.25653 0.20122 0.34709 0.0
C56 C 0.26169 0.24221 0.33002 0.0
C57 C 0.25009 0.23967 0.30697 0.0
C58 C 0.25579 0.24674 0.28392 0.0
C59 C 0.27328 0.2563 0.28335 0.0
C60 C 0.28507 0.2582 0.30636 0.0
C61 C 0.27928 0.25128 0.32938 0.0
H62 H 0.73326 0.32483 0.237 0.0
N63 N 0.73037 0.29025 0.21103 0.0
H64 H 0.74237 0.35483 0.21933 0.0
H65 H 0.74141 0.29581 0.16424 0.0
H66 H 0.75064 0.32584 0.1464 0.0
H67 H 0.71504 0.26007 0.18551 0.0
H68 H 0.68165 0.2552 0.17038 0.0
H69 H 0.70044 0.31257 0.22424 0.0
H70 H 0.66708 0.30767 0.20967 0.0
H71 H 0.71735 0.29658 0.25922 0.0
H72 H 0.76333 0.27261 0.21864 0.0
H73 H 0.73365 0.28842 0.30019 0.0
H74 H 0.78019 0.26504 0.25973 0.0
H75 H 0.80933 0.275 0.42528 0.0
H76 H 0.84265 0.28193 0.43918 0.0
H77 H 0.85926 0.26126 0.36498 0.0
H78 H 0.82607 0.2544 0.35125 0.0
H79 H 0.81704 0.22555 0.37561 0.0
H80 H 0.80991 0.19435 0.3901 0.0
H81 H 0.75709 0.21544 0.4172 0.0
H82 H 0.76504 0.24725 0.40394 0.0
H83 H 0.77649 0.28931 0.37017 0.0
H84 H 0.76052 0.29746 0.32865 0.0
H85 H 0.77945 0.24447 0.29482 0.0
N86 N 0.79573 0.25796 0.3814 0.0
H87 H 0.79592 0.23691 0.33591 0.0
C88 C 0.73675 0.30802 0.20187 0.0
C89 C 0.73723 0.32485 0.21732 0.0
C90 C 0.7425 0.342 0.20723 0.0
C91 C 0.74719 0.34267 0.18149 0.0
C92 C 0.74693 0.32578 0.16623 0.0
C93 C 0.74177 0.30864 0.17638 0.0
C94 C 0.7103 0.28663 0.20586 0.0
C95 C 0.70455 0.2703 0.19124 0.0
C96 C 0.68546 0.26752 0.18272 0.0
C97 C 0.67171 0.28112 0.1887 0.0
C98 C 0.67736 0.29707 0.20445 0.0
C99 C 0.69646 0.29982 0.21294 0.0
C100 C 0.73904 0.28495 0.2357 0.0
C101 C 0.73091 0.28947 0.25903 0.0
C102 C 0.7404 0.28499 0.28258 0.0
C103 C 0.75829 0.27609 0.28333 0.0
C104 C 0.76632 0.2716 0.25992 0.0
C105 C 0.75676 0.27596 0.23642 0.0
C106 C 0.81512 0.26418 0.38734 0.0
C107 C 0.82014 0.27235 0.41188 0.0
C108 C 0.83915 0.27631 0.41974 0.0
C109 C 0.85354 0.27202 0.4032 0.0
C110 C 0.84846 0.26454 0.37821 0.0
C111 C 0.82943 0.26074 0.37028 0.0
C112 C 0.79171 0.239 0.38919 0.0
C113 C 0.80403 0.22368 0.38493 0.0
C114 C 0.79975 0.20562 0.39291 0.0
C115 C 0.78288 0.20227 0.40483 0.0
C116 C 0.77037 0.21752 0.40851 0.0
C117 C 0.77481 0.23569 0.40085 0.0
C118 C 0.78729 0.26254 0.35628 0.0
C119 C 0.77727 0.27958 0.35368 0.0
C120 C 0.76802 0.28409 0.33001 0.0
C121 C 0.76854 0.27154 0.30839 0.0
C122 C 0.77888 0.25457 0.31094 0.0
C123 C 0.78824 0.25014 0.33457 0.0
H124 H 0.80679 0.78635 0.38946 0.0
N125 N 0.79518 0.80344 0.34636 0.0
H126 H 0.83946 0.77806 0.4043 0.0
H127 H 0.82663 0.80559 0.31846 0.0
H128 H 0.85909 0.79726 0.33302 0.0
H129 H 0.82064 0.83341 0.35494 0.0
H130 H 0.81412 0.86418 0.37332 0.0
H131 H 0.7612 0.81856 0.35381 0.0
H132 H 0.75418 0.85051 0.36997 0.0
H133 H 0.77222 0.77361 0.33975 0.0
H134 H 0.79821 0.81713 0.29834 0.0
H135 H 0.75791 0.7596 0.29928 0.0
H136 H 0.78535 0.80247 0.25746 0.0
H137 H 0.72509 0.71198 0.19352 0.0
H138 H 0.73139 0.67947 0.17904 0.0
H139 H 0.77468 0.69978 0.13228 0.0
H140 H 0.76844 0.73239 0.14731 0.0
H141 H 0.73044 0.75832 0.13231 0.0
H142 H 0.6979 0.76529 0.11556 0.0
H143 H 0.67702 0.74815 0.18716 0.0
H144 H 0.70968 0.74139 0.20383 0.0
H145 H 0.75178 0.72649 0.22332 0.0
H146 H 0.76449 0.74154 0.26339 0.0
H147 H 0.75916 0.79644 0.22919 0.0
N148 N 0.74168 0.74425 0.17756 0.0
H149 H 0.74767 0.781 0.18828 0.0
C150 C 0.81416 0.79654 0.35292 0.0
C151 C 0.81812 0.7884 0.37688 0.0
C152 C 0.83675 0.78364 0.38526 0.0
C153 C 0.85182 0.7871 0.36983 0.0
C154 C 0.84776 0.79456 0.34537 0.0
C155 C 0.82912 0.79916 0.33692 0.0
C156 C 0.7914 0.82317 0.35318 0.0
C157 C 0.80602 0.83675 0.35799 0.0
C158 C 0.80219 0.85478 0.36837 0.0
C159 C 0.78357 0.86012 0.37351 0.0
C160 C 0.7688 0.84693 0.36712 0.0
C161 C 0.77274 0.82866 0.35744 0.0
C162 C 0.78645 0.79618 0.32202 0.0
C163 C 0.77494 0.78002 0.32178 0.0
C164 C 0.76697 0.77192 0.29853 0.0
C165 C 0.77063 0.77963 0.27479 0.0
C166 C 0.78197 0.79614 0.27519 0.0
C167 C 0.78961 0.80445 0.29857 0.0
C168 C 0.74633 0.7247 0.17145 0.0
C169 C 0.73603 0.70949 0.18032 0.0
C170 C 0.7396 0.69085 0.17191 0.0
C171 C 0.75344 0.68699 0.15431 0.0
C172 C 0.76406 0.7022 0.14603 0.0
C173 C 0.76051 0.72084 0.15453 0.0
C174 C 0.72245 0.74928 0.16915 0.0
C175 C 0.71883 0.75627 0.14443 0.0
C176 C 0.70028 0.7603 0.13497 0.0
C177 C 0.68492 0.75724 0.15005 0.0
C178 C 0.68857 0.75047 0.17503 0.0
C179 C 0.7072 0.74662 0.18458 0.0
C180 C 0.74876 0.75258 0.20233 0.0
C181 C 0.75335 0.74173 0.22411 0.0
C182 C 0.76052 0.75048 0.24741 0.0
C183 C 0.7629 0.77033 0.24985 0.0
C184 C 0.75797 0.78113 0.22814 0.0
C185 C 0.75119 0.77233 0.20472 0.0
H186 H 0.28924 0.76215 0.11657 0.0
N187 N 0.28422 0.7508 0.16354 0.0
H188 H 0.31887 0.77283 0.09994 0.0
H189 H 0.31764 0.75977 0.19276 0.0
H190 H 0.34701 0.77038 0.17631 0.0
H191 H 0.31084 0.72414 0.17795 0.0
H192 H 0.30976 0.69038 0.16593 0.0
H193 H 0.25653 0.73206 0.13609 0.0
H194 H 0.25554 0.69827 0.12333 0.0
H195 H 0.25483 0.77357 0.16957 0.0
H196 H 0.29688 0.74056 0.21231 0.0
H197 H 0.24041 0.78244 0.20958 0.0
H198 H 0.28369 0.75042 0.25234 0.0
H199 H 0.21131 0.82161 0.32702 0.0
H200 H 0.21917 0.85339 0.34479 0.0
H201 H 0.27429 0.83358 0.37376 0.0
H202 H 0.26616 0.80146 0.35643 0.0
H203 H 0.22609 0.77624 0.37751 0.0
H204 H 0.19509 0.76982 0.39317 0.0
H205 H 0.16812 0.78269 0.31848 0.0
H206 H 0.19926 0.78979 0.30336 0.0
H207 H 0.23084 0.81015 0.28824 0.0
H208 H 0.24335 0.80082 0.24741 0.0
H209 H 0.25867 0.74605 0.27752 0.0
N210 N 0.23337 0.78973 0.33246 0.0
H211 H 0.24744 0.75622 0.31907 0.0
C212 C 0.30101 0.76014 0.15585 0.0
C213 C 0.3017 0.76435 0.12981 0.0
C214 C 0.31863 0.77031 0.12033 0.0
C215 C 0.33525 0.77231 0.13682 0.0
C216 C 0.33437 0.76911 0.1632 0.0
C217 C 0.31746 0.76297 0.17263 0.0
C218 C 0.28367 0.73063 0.15789 0.0
C219 C 0.2986 0.71861 0.16632 0.0
C220 C 0.29804 0.6993 0.15924 0.0
C221 C 0.2826 0.69164 0.14359 0.0
C222 C 0.26753 0.70366 0.13566 0.0
C223 C 0.26809 0.72296 0.14278 0.0
C224 C 0.27709 0.75672 0.18784 0.0
C225 C 0.26117 0.76857 0.18767 0.0
C226 C 0.25302 0.77368 0.21063 0.0
C227 C 0.26083 0.7672 0.23442 0.0
C228 C 0.27697 0.75543 0.23449 0.0
C229 C 0.28482 0.75002 0.21148 0.0
C230 C 0.23808 0.80901 0.34088 0.0
C231 C 0.22507 0.82399 0.33724 0.0
C232 C 0.22957 0.84218 0.34732 0.0
C233 C 0.24726 0.84583 0.36075 0.0
C234 C 0.26058 0.8311 0.36339 0.0
C235 C 0.25595 0.81281 0.35363 0.0
C236 C 0.21504 0.7834 0.33936 0.0
C237 C 0.21349 0.77732 0.36442 0.0
C238 C 0.19574 0.77357 0.37326 0.0
C239 C 0.17904 0.77574 0.3571 0.0
C240 C 0.18066 0.7811 0.33154 0.0
C241 C 0.19848 0.78497 0.32276 0.0
C242 C 0.23865 0.78399 0.30704 0.0
C243 C 0.237 0.79618 0.28618 0.0
C244 C 0.24401 0.7907 0.26259 0.0
C245 C 0.25236 0.77273 0.25907 0.0
C246 C 0.25296 0.76023 0.27961 0.0
C247 C 0.24633 0.76589 0.30333 0.0
H248 H 0.20247 0.85117 0.69413 0.0
N249 N 0.22487 0.82301 0.71024 0.0
H250 H 0.21097 0.87948 0.67274 0.0
H251 H 0.26173 0.83584 0.70468 0.0
H252 H 0.27045 0.86497 0.6854 0.0
H253 H 0.22802 0.81483 0.65888 0.0
H254 H 0.20292 0.80146 0.62829 0.0
H255 H 0.19229 0.80745 0.72148 0.0
H256 H 0.1674 0.7935 0.69109 0.0
H257 H 0.2269 0.81799 0.76067 0.0
H258 H 0.25271 0.80081 0.69112 0.0
H259 H 0.24699 0.79569 0.78507 0.0
H260 H 0.27363 0.77916 0.7154 0.0
H261 H 0.31424 0.74389 0.8579 0.0
H262 H 0.34408 0.75333 0.88137 0.0
H263 H 0.373 0.74644 0.81143 0.0
H264 H 0.34296 0.73622 0.78787 0.0
H265 H 0.31604 0.69458 0.79937 0.0
H266 H 0.30488 0.66824 0.82383 0.0
H267 H 0.27203 0.70751 0.86797 0.0
H268 H 0.28272 0.73371 0.84283 0.0
H269 H 0.29674 0.76549 0.82632 0.0
H270 H 0.27745 0.78861 0.8026 0.0
H271 H 0.27348 0.75017 0.73562 0.0
N272 N 0.30941 0.73133 0.80709 0.0
H273 H 0.2938 0.72763 0.7592 0.0
C274 C 0.2312 0.84085 0.70057 0.0
C275 C 0.21737 0.85405 0.69227 0.0
C276 C 0.22234 0.87048 0.68023 0.0
C277 C 0.2415 0.87474 0.67702 0.0
C278 C 0.25551 0.86205 0.68669 0.0
C279 C 0.25046 0.84523 0.69806 0.0
C280 C 0.21181 0.81241 0.69244 0.0
C281 C 0.21495 0.80993 0.6661 0.0
C282 C 0.20065 0.80232 0.64867 0.0
C283 C 0.18327 0.79655 0.6574 0.0
C284 C 0.18073 0.79775 0.68394 0.0
C285 C 0.19486 0.80573 0.70126 0.0
C286 C 0.23844 0.81121 0.72425 0.0
C287 C 0.23725 0.80966 0.75083 0.0
C288 C 0.24881 0.79693 0.76473 0.0
C289 C 0.26201 0.7855 0.75231 0.0
C290 C 0.26343 0.78739 0.72562 0.0
C291 C 0.25163 0.79994 0.71169 0.0
C292 C 0.32639 0.7389 0.82105 0.0
C293 C 0.32688 0.74428 0.84744 0.0
C294 C 0.34396 0.74978 0.86091 0.0
C295 C 0.36078 0.75045 0.8482 0.0
C296 C 0.36016 0.74604 0.8216 0.0
C297 C 0.3431 0.74019 0.8082 0.0
C298 C 0.30039 0.71607 0.81937 0.0
C299 C 0.30608 0.69741 0.8139 0.0
C300 C 0.29971 0.68242 0.82786 0.0
C301 C 0.28771 0.6859 0.84787 0.0
C302 C 0.28138 0.7045 0.85273 0.0
C303 C 0.28747 0.71945 0.83837 0.0
C304 C 0.29696 0.74487 0.79435 0.0
C305 C 0.29183 0.76207 0.80651 0.0
C306 C 0.2806 0.77526 0.79289 0.0
C307 C 0.27394 0.77143 0.76699 0.0
C308 C 0.27869 0.75393 0.75525 0.0
C309 C 0.29013 0.74089 0.76876 0.0
H310 H 0.29727 0.28576 0.95366 0.0
N311 N 0.28197 0.28873 0.90588 0.0
H312 H 0.33082 0.28072 0.96752 0.0
H313 H 0.31041 0.2799 0.87411 0.0
H314 H 0.34385 0.27445 0.8879 0.0
H315 H 0.3019 0.31625 0.88357 0.0
H316 H 0.29851 0.35048 0.89026 0.0
H317 H 0.25578 0.30688 0.93151 0.0
H318 H 0.25238 0.34125 0.93854 0.0
H319 H 0.26362 0.2561 0.90788 0.0
H320 H 0.27865 0.29809 0.85476 0.0
H321 H 0.24616 0.23823 0.87261 0.0
H322 H 0.26036 0.28105 0.81979 0.0
H323 H 0.21721 0.17851 0.77311 0.0
H324 H 0.23268 0.15509 0.74566 0.0
H325 H 0.24161 0.19842 0.69124 0.0
H326 H 0.22603 0.22157 0.71852 0.0
H327 H 0.17491 0.19904 0.75536 0.0
H328 H 0.14821 0.20975 0.72679 0.0
H329 H 0.18095 0.25868 0.709 0.0
H330 H 0.20746 0.24798 0.73796 0.0
H331 H 0.20057 0.22011 0.81137 0.0
H332 H 0.21804 0.23891 0.84572 0.0
H333 H 0.25917 0.25397 0.79224 0.0
N334 N 0.20918 0.21441 0.763 0.0
H335 H 0.24099 0.23614 0.75787 0.0
C336 C 0.30125 0.28306 0.91297 0.0
C337 C 0.30732 0.28296 0.93924 0.0
C338 C 0.32644 0.2802 0.9471 0.0
C339 C 0.33985 0.27724 0.92875 0.0
C340 C 0.33372 0.27655 0.9024 0.0
C341 C 0.3146 0.27962 0.89452 0.0
C342 C 0.27909 0.30899 0.90723 0.0
C343 C 0.29091 0.32155 0.89535 0.0
C344 C 0.28902 0.34113 0.89928 0.0
C345 C 0.27528 0.34854 0.91508 0.0
C346 C 0.263 0.33597 0.92609 0.0
C347 C 0.26494 0.31637 0.92219 0.0
C348 C 0.27223 0.27852 0.88421 0.0
C349 C 0.26301 0.26152 0.88863 0.0
C350 C 0.25288 0.25145 0.86845 0.0
C351 C 0.25156 0.25829 0.84329 0.0
C352 C 0.26113 0.27522 0.8388 0.0
C353 C 0.27149 0.28515 0.85896 0.0
C354 C 0.22031 0.20168 0.74786 0.0
C355 C 0.22279 0.18295 0.75545 0.0
C356 C 0.2317 0.16966 0.73982 0.0
C357 C 0.23824 0.17491 0.71622 0.0
C358 C 0.23648 0.19391 0.70916 0.0
C359 C 0.22762 0.20718 0.72482 0.0
C360 C 0.1931 0.22265 0.74881 0.0
C361 C 0.17614 0.21225 0.74565 0.0
C362 C 0.16101 0.2183 0.72917 0.0
C363 C 0.16256 0.23495 0.71542 0.0
C364 C 0.17929 0.24585 0.71944 0.0
C365 C 0.19447 0.23974 0.73596 0.0
C366 C 0.21952 0.22645 0.78219 0.0
C367 C 0.21328 0.22764 0.80711 0.0
C368 C 0.22343 0.23823 0.82675 0.0
C369 C 0.24026 0.24777 0.82196 0.0
C370 C 0.24624 0.24696 0.7967 0.0
C371 C 0.2359 0.23656 0.77697 0.0
H372 H 0.8003 0.25397 0.6284 0.0
N373 N 0.79182 0.24512 0.67525 0.0
H374 H 0.83179 0.26015 0.61372 0.0
H375 H 0.82491 0.248 0.70593 0.0
H376 H 0.85666 0.25394 0.69139 0.0
H377 H 0.80983 0.21584 0.69987 0.0
H378 H 0.80568 0.18205 0.68854 0.0
H379 H 0.76516 0.22936 0.64254 0.0
H380 H 0.76113 0.19564 0.6306 0.0
H381 H 0.77841 0.28009 0.67231 0.0
H382 H 0.78797 0.23495 0.72529 0.0
H383 H 0.76411 0.29931 0.70558 0.0
H384 H 0.77252 0.25351 0.75825 0.0
H385 H 0.71921 0.35799 0.7987 0.0
H386 H 0.72934 0.38589 0.82573 0.0
H387 H 0.76178 0.34963 0.87769 0.0
H388 H 0.75194 0.32202 0.85025 0.0
H389 H 0.72731 0.29931 0.84981 0.0
H390 H 0.70003 0.2891 0.8721 0.0
H391 H 0.66223 0.31352 0.81293 0.0
H392 H 0.68977 0.32472 0.79188 0.0
H393 H 0.71975 0.32054 0.75757 0.0
H394 H 0.73621 0.30159 0.72606 0.0
H395 H 0.77338 0.27957 0.78783 0.0
N396 N 0.72616 0.32184 0.80837 0.0
H397 H 0.75585 0.2978 0.81923 0.0
C398 C 0.81032 0.25055 0.66812 0.0
C399 C 0.81255 0.2542 0.64226 0.0
C400 C 0.83053 0.25757 0.63392 0.0
C401 C 0.84674 0.25734 0.65135 0.0
C402 C 0.84444 0.2543 0.67754 0.0
C403 C 0.82635 0.25086 0.68587 0.0
C404 C 0.78769 0.22511 0.67206 0.0
C405 C 0.79888 0.2115 0.68516 0.0
C406 C 0.79661 0.19219 0.67846 0.0
C407 C 0.78318 0.1861 0.65848 0.0
C408 C 0.77146 0.19975 0.64626 0.0
C409 C 0.77372 0.21903 0.65302 0.0
C410 C 0.78401 0.256 0.69601 0.0
C411 C 0.77727 0.27429 0.69112 0.0
C412 C 0.76891 0.28518 0.71017 0.0
C413 C 0.76673 0.27791 0.73464 0.0
C414 C 0.77399 0.25969 0.73977 0.0
C415 C 0.7827 0.24891 0.72075 0.0
C416 C 0.73481 0.33798 0.82237 0.0
C417 C 0.72886 0.35619 0.81561 0.0
C418 C 0.73451 0.37205 0.83122 0.0
C419 C 0.7462 0.36999 0.85406 0.0
C420 C 0.7529 0.35177 0.86015 0.0
C421 C 0.74724 0.3359 0.84446 0.0
C422 C 0.71048 0.31304 0.81945 0.0
C423 C 0.71315 0.30239 0.84166 0.0
C424 C 0.69746 0.2964 0.85424 0.0
C425 C 0.67882 0.30069 0.84457 0.0
C426 C 0.67632 0.31038 0.82137 0.0
C427 C 0.692 0.3166 0.80911 0.0
C428 C 0.73675 0.31082 0.79059 0.0
C429 C 0.73149 0.31163 0.76421 0.0
C430 C 0.74108 0.30087 0.74623 0.0
C431 C 0.75643 0.28916 0.7542 0.0
C432 C 0.76161 0.28829 0.78086 0.0
C433 C 0.75174 0.29891 0.79891 0.0
H434 H 0.78612 0.78782 0.63032 0.0
N435 N 0.79334 0.77632 0.67798 0.0
H436 H 0.78039 0.8203 0.6167 0.0
H437 H 0.78836 0.80755 0.70994 0.0
H438 H 0.78228 0.83985 0.69658 0.0
H439 H 0.82232 0.79765 0.70239 0.0
H440 H 0.85578 0.79455 0.69496 0.0
H441 H 0.80979 0.74646 0.6565 0.0
H442 H 0.84359 0.74218 0.65082 0.0
H443 H 0.76561 0.75168 0.66608 0.0
H444 H 0.79712 0.77969 0.73066 0.0
H445 H 0.7464 0.73529 0.69536 0.0
H446 H 0.77695 0.76471 0.7603 0.0
H447 H 0.67955 0.69204 0.79813 0.0
H448 H 0.65431 0.70481 0.82316 0.0
H449 H 0.68898 0.75424 0.84498 0.0
H450 H 0.7146 0.74064 0.8211 0.0
H451 H 0.73007 0.71033 0.84426 0.0
H452 H 0.74386 0.68526 0.87069 0.0
H453 H 0.73473 0.64515 0.80605 0.0
H454 H 0.72035 0.67036 0.77991 0.0
H455 H 0.70336 0.71999 0.74939 0.0
H456 H 0.72211 0.73877 0.7221 0.0
H457 H 0.76976 0.73691 0.77938 0.0
N458 N 0.71401 0.70612 0.79487 0.0
H459 H 0.75043 0.71968 0.80725 0.0
C460 C 0.7876 0.79517 0.67103 0.0
C461 C 0.78495 0.7991 0.64483 0.0
C462 C 0.78164 0.81763 0.63712 0.0
C463 C 0.78094 0.83264 0.65559 0.0
C464 C 0.78295 0.8286 0.68191 0.0
C465 C 0.78626 0.81005 0.68958 0.0
C466 C 0.81346 0.77259 0.67915 0.0
C467 C 0.82682 0.78546 0.69123 0.0
C468 C 0.84611 0.7835 0.68719 0.0
C469 C 0.85246 0.76835 0.67165 0.0
C470 C 0.8392 0.75442 0.66205 0.0
C471 C 0.81989 0.75668 0.66552 0.0
C472 C 0.78249 0.76705 0.69616 0.0
C473 C 0.76813 0.75447 0.68667 0.0
C474 C 0.75702 0.74532 0.70351 0.0
C475 C 0.7598 0.74885 0.73035 0.0
C476 C 0.77441 0.76146 0.73984 0.0
C477 C 0.78582 0.77028 0.72291 0.0
C478 C 0.69882 0.71539 0.80752 0.0
C479 C 0.68155 0.70573 0.8081 0.0
C480 C 0.6671 0.71316 0.82231 0.0
C481 C 0.66948 0.73067 0.83609 0.0
C482 C 0.68669 0.74063 0.83493 0.0
C483 C 0.7013 0.73298 0.82099 0.0
C484 C 0.72396 0.69209 0.81016 0.0
C485 C 0.73112 0.69618 0.83573 0.0
C486 C 0.73919 0.68185 0.85075 0.0
C487 C 0.74032 0.66318 0.8405 0.0
C488 C 0.73383 0.65933 0.8146 0.0
C489 C 0.72571 0.67368 0.79962 0.0
C490 C 0.72545 0.71803 0.78011 0.0
C491 C 0.71779 0.72386 0.75609 0.0
C492 C 0.72866 0.73442 0.74042 0.0
C493 C 0.7477 0.73908 0.74816 0.0
C494 C 0.75517 0.73376 0.77269 0.0
C495 C 0.7441 0.72359 0.78865 0.0
C496 C 0.05387 0.2825 0.56992 0.0
C497 C 0.06065 0.29892 0.58304 0.0
C498 C 0.05271 0.3138 0.57013 0.0
C499 C 0.04151 0.30566 0.55005 0.0
N500 N 0.04181 0.28646 0.54932 0.0
Co501 Co 0.0272 0.26897 0.52376 0.0
N502 N 0.01539 0.29086 0.50504 0.0
C503 C 0.01961 0.30946 0.50927 0.0
C504 C 0.00846 0.32118 0.4941 0.0
C505 C 0.99617 0.30938 0.47968 0.0
C506 C 0.00059 0.29107 0.48688 0.0
N507 N 0.01189 0.25152 0.49895 0.0
C508 C 0.99716 0.25556 0.48186 0.0
C509 C 0.9893 0.23928 0.46962 0.0
C510 C 0.99909 0.22432 0.47991 0.0
C511 C 0.01228 0.23233 0.49775 0.0
N512 N 0.0394 0.24702 0.54195 0.0
C513 C 0.03737 0.2284 0.53504 0.0
C514 C 0.04807 0.21664 0.55068 0.0
C515 C 0.05762 0.22844 0.56855 0.0
C516 C 0.05213 0.24681 0.56279 0.0
N517 N 0.00597 0.26893 0.54661 0.0
C518 C 0.97366 0.2687 0.57534 0.0
C519 C 0.98207 0.25176 0.56727 0.0
C520 C 0.9981 0.25219 0.55313 0.0
C521 C 0.9821 0.28578 0.5694 0.0
C522 C 0.99817 0.28557 0.55521 0.0
N523 N 0.04862 0.26895 0.50067 0.0
C524 C 0.06866 0.25216 0.47158 0.0
C525 C 0.08072 0.26781 0.47104 0.0
C526 C 0.07601 0.2843 0.48488 0.0
C527 C 0.06 0.2846 0.49924 0.0
C528 C 0.05294 0.253 0.48637 0.0
H529 H 0.05737 0.29762 0.50927 0.0
H530 H 0.0447 0.24042 0.48599 0.0
H531 H 0.00368 0.23881 0.54718 0.0
H532 H 0.00391 0.29903 0.55104 0.0
C533 C 0.03143 0.31557 0.5307 0.0
C534 C 0.05968 0.26354 0.5774 0.0
C535 C 0.98941 0.27444 0.47784 0.0
C536 C 0.02452 0.22231 0.51466 0.0
H537 H 0.07052 0.3 0.59999 0.0
H538 H 0.05506 0.32876 0.57461 0.0
H539 H 0.0084 0.33654 0.49473 0.0
H540 H 0.98472 0.31387 0.4663 0.0
H541 H 0.97734 0.23834 0.45532 0.0
H542 H 0.99644 0.20938 0.4756 0.0
H543 H 0.04872 0.20131 0.54937 0.0
H544 H 0.06756 0.22404 0.58405 0.0
H545 H 0.97599 0.23815 0.57117 0.0
H546 H 0.9763 0.29927 0.57559 0.0
H547 H 0.07131 0.23917 0.46065 0.0
H548 H 0.08487 0.29685 0.48524 0.0
C549 C 0.76005 0.04448 0.57033 0.0
C550 C 0.74317 0.0504 0.58009 0.0
C551 C 0.72899 0.04011 0.56685 0.0
C552 C 0.738 0.02856 0.54985 0.0
N553 N 0.75713 0.03057 0.55176 0.0
Co554 Co 0.77572 0.01741 0.52977 0.0
N555 N 0.75473 0.00424 0.50777 0.0
C556 C 0.73583 0.00615 0.51004 0.0
C557 C 0.72489 0.99445 0.49339 0.0
C558 C 0.73751 0.98428 0.47985 0.0
C559 C 0.75556 0.99049 0.48888 0.0
N560 N 0.79436 0.00407 0.50807 0.0
C561 C 0.79142 0.9908 0.48866 0.0
C562 C 0.80837 0.98525 0.47865 0.0
C563 C 0.82257 0.9948 0.49289 0.0
C564 C 0.81354 0.00573 0.51052 0.0
N565 N 0.7967 0.03079 0.55149 0.0
C566 C 0.81561 0.02909 0.54926 0.0
C567 C 0.82643 0.04095 0.56591 0.0
C568 C 0.81366 0.05114 0.57919 0.0
C569 C 0.79575 0.04487 0.5698 0.0
N570 N 0.77701 0.99576 0.55317 0.0
C571 C 0.77863 0.96279 0.58219 0.0
C572 C 0.79523 0.97168 0.57582 0.0
C573 C 0.79411 0.98806 0.56153 0.0
C574 C 0.76124 0.97111 0.57469 0.0
C575 C 0.76076 0.98746 0.56038 0.0
N576 N 0.77444 0.03909 0.50648 0.0
C577 C 0.79046 0.06284 0.48373 0.0
C578 C 0.77358 0.07299 0.4794 0.0
C579 C 0.75692 0.06523 0.48756 0.0
C580 C 0.75764 0.04828 0.50065 0.0
C581 C 0.79059 0.04616 0.49729 0.0
H582 H 0.74449 0.04317 0.50648 0.0
H583 H 0.80403 0.03951 0.50058 0.0
H584 H 0.80726 0.99402 0.55711 0.0
H585 H 0.74705 0.99284 0.5549 0.0
C586 C 0.72886 0.01737 0.52994 0.0
C587 C 0.77828 0.05353 0.57774 0.0
C588 C 0.77307 0.9822 0.48004 0.0
C589 C 0.82267 0.0174 0.52993 0.0
H590 H 0.74125 0.06152 0.59458 0.0
H591 H 0.71386 0.04156 0.56853 0.0
H592 H 0.70959 0.99284 0.49212 0.0
H593 H 0.73372 0.9731 0.46563 0.0
H594 H 0.81031 0.97501 0.46305 0.0
H595 H 0.83769 0.99365 0.49091 0.0
H596 H 0.84174 0.04252 0.56746 0.0
H597 H 0.81707 0.06235 0.59359 0.0
H598 H 0.80907 0.96594 0.58164 0.0
H599 H 0.74796 0.9647 0.57906 0.0
H600 H 0.80368 0.06785 0.47705 0.0
H601 H 0.74343 0.07246 0.48469 0.0
C602 C 0.04847 0.79933 0.54962 0.0
C603 C 0.05513 0.81692 0.5593 0.0
C604 C 0.04131 0.82987 0.55267 0.0
C605 C 0.02714 0.81959 0.53909 0.0
N606 N 0.0312 0.80098 0.53672 0.0
Co607 Co 0.01528 0.78127 0.5173 0.0
N608 N 0.0004 0.80069 0.4978 0.0
C609 C 0.99999 0.81942 0.50387 0.0
C610 C 0.98866 0.82946 0.48668 0.0
C611 C 0.98118 0.81619 0.4689 0.0
C612 C 0.98826 0.79869 0.47643 0.0
N613 N 0.99922 0.76146 0.49823 0.0
C614 C 0.98672 0.76274 0.47728 0.0
C615 C 0.97782 0.74541 0.47115 0.0
C616 C 0.98477 0.73299 0.48911 0.0
C617 C 0.99748 0.74335 0.50518 0.0
N618 N 0.03031 0.76196 0.53669 0.0
C619 C 0.02512 0.74389 0.53975 0.0
C620 C 0.03849 0.73394 0.55428 0.0
C621 C 0.05297 0.74658 0.56078 0.0
C622 C 0.04759 0.76357 0.54974 0.0
N623 N 0.9973 0.78258 0.54418 0.0
C624 C 0.97131 0.78274 0.58217 0.0
C625 C 0.99083 0.78179 0.58896 0.0
C626 C 0.00362 0.78201 0.56967 0.0
C627 C 0.96506 0.78389 0.55615 0.0
C628 C 0.97822 0.78362 0.53749 0.0
N629 N 0.03331 0.77991 0.49058 0.0
C630 C 0.05325 0.7614 0.46372 0.0
C631 C 0.06168 0.77795 0.45579 0.0
C632 C 0.05514 0.7955 0.46492 0.0
C633 C 0.04087 0.79618 0.48211 0.0
C634 C 0.03916 0.76269 0.48119 0.0
H635 H 0.03629 0.80989 0.489 0.0
H636 H 0.03335 0.74972 0.48762 0.0
H637 H 0.01861 0.78148 0.57539 0.0
H638 H 0.97286 0.78397 0.51763 0.0
C639 C 0.01218 0.82732 0.52382 0.0
C640 C 0.05844 0.78128 0.55372 0.0
C641 C 0.98092 0.78049 0.46507 0.0
C642 C 0.00943 0.73608 0.52512 0.0
H643 H 0.06863 0.82021 0.56971 0.0
H644 H 0.04207 0.8451 0.55597 0.0
H645 H 0.98636 0.84463 0.48678 0.0
H646 H 0.97116 0.81899 0.45271 0.0
H647 H 0.96697 0.74218 0.4558 0.0
H648 H 0.98111 0.71816 0.49016 0.0
H649 H 0.03812 0.71908 0.55876 0.0
H650 H 0.06593 0.74368 0.57244 0.0
H651 H 0.99613 0.78094 0.60897 0.0
H652 H 0.95003 0.78444 0.55018 0.0
H653 H 0.05799 0.74754 0.45721 0.0
H654 H 0.06113 0.80864 0.45898 0.0
C655 C 0.2822 0.99293 0.5595 0.0
C656 C 0.29916 0.98543 0.57 0.0
C657 C 0.31349 0.99524 0.56035 0.0
C658 C 0.30459 0.00798 0.54434 0.0
N659 N 0.28538 0.00696 0.54315 0.0
Co660 Co 0.26702 0.02205 0.52068 0.0
N661 N 0.28825 0.03589 0.50567 0.0
C662 C 0.3071 0.03342 0.51118 0.0
C663 C 0.31826 0.04538 0.49863 0.0
C664 C 0.30581 0.0563 0.48438 0.0
C665 C 0.28769 0.05028 0.489 0.0
N666 N 0.24864 0.03717 0.49829 0.0
C667 C 0.25184 0.0513 0.48215 0.0
C668 C 0.23501 0.058 0.47025 0.0
C669 C 0.22063 0.04805 0.47957 0.0
C670 C 0.22945 0.03582 0.49644 0.0
N671 N 0.24577 0.00826 0.53564 0.0
C672 C 0.2269 0.01072 0.53003 0.0
C673 C 0.21569 0.99983 0.54402 0.0
C674 C 0.22808 0.98962 0.55933 0.0
C675 C 0.24627 0.99471 0.55355 0.0
N676 N 0.26642 0.04201 0.54851 0.0
C677 C 0.26514 0.06991 0.58856 0.0
C678 C 0.24855 0.06352 0.57462 0.0
C679 C 0.2495 0.04971 0.55491 0.0
C680 C 0.28245 0.06227 0.58189 0.0
C681 C 0.28276 0.04843 0.56195 0.0
N682 N 0.26761 0.00196 0.49292 0.0
C683 C 0.25096 0.98026 0.46196 0.0
C684 C 0.26785 0.9709 0.45737 0.0
C685 C 0.28473 0.97776 0.46997 0.0
C686 C 0.28432 0.99338 0.48726 0.0
C687 C 0.25115 0.99557 0.47975 0.0
H688 H 0.29767 0.99799 0.49613 0.0
H689 H 0.23772 0.00166 0.48294 0.0
H690 H 0.23634 0.04555 0.5451 0.0
H691 H 0.29637 0.0431 0.55779 0.0
C692 C 0.31388 0.02042 0.52921 0.0
C693 C 0.26349 0.98597 0.56523 0.0
C694 C 0.27042 0.05918 0.47795 0.0
C695 C 0.22009 0.02348 0.51165 0.0
H696 H 0.30109 0.97385 0.58298 0.0
H697 H 0.32861 0.99304 0.5641 0.0
H698 H 0.33362 0.04636 0.50015 0.0
H699 H 0.30968 0.06767 0.47237 0.0
H700 H 0.23329 0.06914 0.4565 0.0
H701 H 0.20552 0.04976 0.47495 0.0
H702 H 0.20032 0.99939 0.5432 0.0
H703 H 0.22411 0.97951 0.57312 0.0
H704 H 0.23481 0.06931 0.57865 0.0
H705 H 0.2957 0.06674 0.5922 0.0
H706 H 0.23753 0.97532 0.45264 0.0
H707 H 0.29818 0.97102 0.46666 0.0
C708 C 0.54628 0.78906 0.05196 0.0
C709 C 0.55382 0.80659 0.06035 0.0
C710 C 0.54415 0.81987 0.04621 0.0
C711 C 0.53133 0.80976 0.03001 0.0
N712 N 0.53205 0.79082 0.03319 0.0
Co713 Co 0.51647 0.77079 0.0129 0.0
N714 N 0.50446 0.79 0.98935 0.0
C715 C 0.50833 0.8088 0.98975 0.0
C716 C 0.49825 0.81833 0.97076 0.0
C717 C 0.4872 0.80485 0.95749 0.0
C718 C 0.49107 0.78782 0.96935 0.0
N719 N 0.50045 0.7508 0.99322 0.0
C720 C 0.48678 0.75244 0.97367 0.0
C721 C 0.47801 0.7351 0.96705 0.0
C722 C 0.48655 0.72206 0.98271 0.0
C723 C 0.49984 0.7321 0.99815 0.0
N724 N 0.52901 0.75148 0.03585 0.0
C725 C 0.5257 0.73257 0.03503 0.0
C726 C 0.53718 0.72283 0.05236 0.0
C727 C 0.54885 0.73626 0.06463 0.0
C728 C 0.54379 0.75345 0.05394 0.0
N729 N 0.49583 0.77461 0.03663 0.0
C730 C 0.46355 0.77927 0.06522 0.0
C731 C 0.47187 0.76146 0.06176 0.0
C732 C 0.48791 0.75951 0.04776 0.0
C733 C 0.47226 0.79486 0.05513 0.0
C734 C 0.48826 0.79224 0.04108 0.0
N735 N 0.53695 0.76698 0.9891 0.0
C736 C 0.55532 0.74619 0.9626 0.0
C737 C 0.56643 0.76137 0.95578 0.0
C738 C 0.5624 0.77944 0.96593 0.0
C739 C 0.54763 0.78193 0.98218 0.0
C740 C 0.54095 0.74925 0.97931 0.0
H741 H 0.5452 0.79608 0.98903 0.0
H742 H 0.53326 0.73703 0.98404 0.0
H743 H 0.49333 0.74553 0.04573 0.0
H744 H 0.494 0.80466 0.03362 0.0
C745 C 0.52051 0.81728 0.00924 0.0
C746 C 0.55402 0.77107 0.06083 0.0
C747 C 0.48127 0.77011 0.96134 0.0
C748 C 0.51199 0.72434 0.01738 0.0
H749 H 0.56559 0.80947 0.07449 0.0
H750 H 0.54685 0.83499 0.04669 0.0
H751 H 0.49862 0.83336 0.9673 0.0
H752 H 0.4772 0.80732 0.94115 0.0
H753 H 0.46642 0.73212 0.95267 0.0
H754 H 0.48329 0.70708 0.98301 0.0
H755 H 0.53732 0.70772 0.05533 0.0
H756 H 0.5601 0.73366 0.07939 0.0
H757 H 0.46568 0.74886 0.06902 0.0
H758 H 0.46666 0.80904 0.05779 0.0
H759 H 0.55751 0.73193 0.95496 0.0
H760 H 0.5707 0.79168 0.96166 0.0
C761 C 0.25996 0.55033 0.05923 0.0
C762 C 0.24304 0.55757 0.06741 0.0
C763 C 0.22875 0.54833 0.0529 0.0
C764 C 0.23775 0.53606 0.03678 0.0
N765 N 0.25692 0.53655 0.04055 0.0
Co766 Co 0.2756 0.52249 0.01984 0.0
N767 N 0.25467 0.50958 0.99761 0.0
C768 C 0.23575 0.51137 0.99966 0.0
C769 C 0.22496 0.49939 0.98314 0.0
C770 C 0.23778 0.48893 0.97027 0.0
C771 C 0.25566 0.49525 0.97971 0.0
N772 N 0.29426 0.50926 0.99821 0.0
C773 C 0.2913 0.49564 0.97932 0.0
C774 C 0.30816 0.48991 0.96935 0.0
C775 C 0.32235 0.50006 0.98285 0.0
C776 C 0.31336 0.51138 0.00017 0.0
N777 N 0.29655 0.53449 0.04303 0.0
C778 C 0.31542 0.53139 0.04221 0.0
C779 C 0.32632 0.54189 0.06047 0.0
C780 C 0.31367 0.55249 0.07348 0.0
C781 C 0.29572 0.54784 0.06231 0.0
N782 N 0.2757 0.50065 0.04297 0.0
C783 C 0.27525 0.46789 0.07223 0.0
C784 C 0.29168 0.47331 0.06111 0.0
C785 C 0.29169 0.48977 0.04701 0.0
C786 C 0.25918 0.47933 0.06914 0.0
C787 C 0.25964 0.49546 0.05432 0.0
N788 N 0.27554 0.54428 0.99657 0.0
C789 C 0.29231 0.56951 0.97751 0.0
C790 C 0.2757 0.57534 0.96366 0.0
C791 C 0.25894 0.56536 0.96685 0.0
C792 C 0.25915 0.55014 0.9834 0.0
C793 C 0.29195 0.55404 0.99343 0.0
H794 H 0.24585 0.54335 0.98515 0.0
H795 H 0.3052 0.55033 0.00306 0.0
H796 H 0.30477 0.49324 0.03931 0.0
H797 H 0.24675 0.50331 0.05198 0.0
C798 C 0.22866 0.524 0.01785 0.0
C799 C 0.27851 0.55778 0.06872 0.0
C800 C 0.27315 0.48636 0.97242 0.0
C801 C 0.32248 0.52119 0.02144 0.0
H802 H 0.24128 0.56869 0.08194 0.0
H803 H 0.21361 0.55056 0.05365 0.0
H804 H 0.20964 0.49802 0.98126 0.0
H805 H 0.23445 0.47756 0.95609 0.0
H806 H 0.31007 0.47886 0.95478 0.0
H807 H 0.3375 0.49842 0.98142 0.0
H808 H 0.34167 0.54263 0.06298 0.0
H809 H 0.31731 0.56307 0.08863 0.0
H810 H 0.30451 0.4649 0.06336 0.0
H811 H 0.24615 0.47555 0.07752 0.0
H812 H 0.30563 0.57693 0.97635 0.0
H813 H 0.24569 0.56906 0.95643 0.0
C814 C 0.49121 0.29398 0.98434 0.0
C815 C 0.48561 0.31173 0.97598 0.0
C816 C 0.49988 0.32415 0.98465 0.0
C817 C 0.51327 0.31338 0.99794 0.0
N818 N 0.50825 0.29501 0.99802 0.0
Co819 Co 0.5223 0.27464 0.0164 0.0
N820 N 0.53646 0.29328 0.03991 0.0
C821 C 0.5385 0.31189 0.03569 0.0
C822 C 0.54959 0.32126 0.05489 0.0
C823 C 0.55508 0.30765 0.07204 0.0
C824 C 0.547 0.29064 0.0623 0.0
N825 N 0.53626 0.2541 0.03456 0.0
C826 C 0.54671 0.25466 0.05748 0.0
C827 C 0.55427 0.23691 0.06279 0.0
C828 C 0.54871 0.22504 0.04214 0.0
C829 C 0.53801 0.23608 0.02545 0.0
N830 N 0.50817 0.2562 0.99274 0.0
C831 C 0.51309 0.23816 0.98742 0.0
C832 C 0.49983 0.22887 0.97075 0.0
C833 C 0.48574 0.24195 0.96548 0.0
C834 C 0.49126 0.25845 0.97933 0.0
N835 N 0.54233 0.27586 0.9924 0.0
C836 C 0.57119 0.27895 0.95845 0.0
C837 C 0.55196 0.2794 0.94937 0.0
C838 C 0.53779 0.27772 0.96659 0.0
C839 C 0.57555 0.27655 0.98486 0.0
C840 C 0.561 0.27517 0.00143 0.0
N841 N 0.50225 0.27349 0.04026 0.0
C842 C 0.47907 0.25542 0.06069 0.0
C843 C 0.47072 0.27215 0.06992 0.0
C844 C 0.47899 0.28953 0.06465 0.0
C845 C 0.49477 0.28987 0.05001 0.0
C846 C 0.49477 0.2564 0.04591 0.0
H847 H 0.50056 0.30347 0.0459 0.0
H848 H 0.50057 0.24333 0.03853 0.0
H849 H 0.52313 0.27818 0.95907 0.0
H850 H 0.56496 0.27366 0.02162 0.0
C851 C 0.52788 0.32043 0.01538 0.0
C852 C 0.48059 0.27622 0.979 0.0
C853 C 0.55178 0.27205 0.07295 0.0
C854 C 0.52748 0.22954 0.0029 0.0
H855 H 0.47252 0.31549 0.96528 0.0
H856 H 0.49982 0.33941 0.983 0.0
H857 H 0.55302 0.33623 0.05649 0.0
H858 H 0.56441 0.30993 0.08936 0.0
H859 H 0.56329 0.23307 0.07953 0.0
H860 H 0.55182 0.21007 0.03982 0.0
H861 H 0.49978 0.21406 0.96448 0.0
H862 H 0.47281 0.23959 0.95323 0.0
H863 H 0.54782 0.28142 0.9292 0.0
H864 H 0.59013 0.27569 0.99282 0.0
H865 H 0.47345 0.24164 0.06464 0.0
H866 H 0.47299 0.30287 0.07106 0.0
C867 C 0.74793 0.54529 0.06866 0.0
C868 C 0.73064 0.55191 0.0764 0.0
C869 C 0.71692 0.54062 0.06393 0.0
C870 C 0.72658 0.52779 0.04939 0.0
N871 N 0.74568 0.53 0.05213 0.0
Co872 Co 0.76516 0.51504 0.03377 0.0
N873 N 0.74488 0.50025 0.01257 0.0
C874 C 0.72583 0.50207 0.01353 0.0
C875 C 0.71549 0.49018 0.99643 0.0
C876 C 0.72867 0.48009 0.98379 0.0
C877 C 0.74639 0.48637 0.99407 0.0
N878 N 0.78464 0.50002 0.0155 0.0
C879 C 0.78239 0.48603 0.99688 0.0
C880 C 0.79976 0.47906 0.9899 0.0
C881 C 0.81347 0.48899 0.00458 0.0
C882 C 0.80377 0.50137 0.01968 0.0
N883 N 0.78538 0.53007 0.05473 0.0
C884 C 0.80442 0.52799 0.05434 0.0
C885 C 0.81467 0.54104 0.06985 0.0
C886 C 0.8014 0.55238 0.08045 0.0
C887 C 0.78377 0.54552 0.07075 0.0
N888 N 0.76552 0.49563 0.06061 0.0
C889 C 0.76576 0.46573 0.09519 0.0
C890 C 0.78272 0.47385 0.08869 0.0
C891 C 0.78228 0.48871 0.07159 0.0
C892 C 0.74871 0.47329 0.08482 0.0
C893 C 0.74892 0.48811 0.06786 0.0
N894 N 0.76479 0.53432 0.00703 0.0
C895 C 0.78127 0.55486 0.97988 0.0
C896 C 0.76409 0.56274 0.97048 0.0
C897 C 0.74728 0.55594 0.97934 0.0
C898 C 0.74795 0.54181 0.99739 0.0
C899 C 0.78131 0.54079 0.9981 0.0
H900 H 0.73465 0.53725 0.00334 0.0
H901 H 0.79484 0.53547 0.00487 0.0
H902 H 0.79568 0.49414 0.06734 0.0
H903 H 0.73542 0.49292 0.06052 0.0
C904 C 0.71808 0.51487 0.03103 0.0
C905 C 0.76596 0.55467 0.0763 0.0
C906 C 0.76419 0.47859 0.98569 0.0
C907 C 0.81219 0.51454 0.03777 0.0
H908 H 0.7282 0.56403 0.08912 0.0
H909 H 0.70169 0.54208 0.06455 0.0
H910 H 0.70018 0.48894 0.99356 0.0
H911 H 0.72557 0.46928 0.96875 0.0
H912 H 0.80226 0.46784 0.97579 0.0
H913 H 0.82871 0.48734 0.00432 0.0
H914 H 0.82996 0.54255 0.07245 0.0
H915 H 0.80432 0.5646 0.09334 0.0
H916 H 0.79632 0.46869 0.09658 0.0
H917 H 0.73516 0.4674 0.08903 0.0
H918 H 0.79466 0.55977 0.97358 0.0
H919 H 0.7336 0.56139 0.97223 0.0
C920 C 0.18428 0.26432 0.41809 0.0
C921 C 0.18397 0.25747 0.39236 0.0
C922 C 0.16739 0.26732 0.43031 0.0
C923 C 0.1497 0.26314 0.41662 0.0
C924 C 0.14922 0.25668 0.39047 0.0
C925 C 0.16633 0.25404 0.37863 0.0
C926 C 0.16851 0.27437 0.45815 0.0
C927 C 0.13065 0.25198 0.37525 0.0
C928 C 0.10904 0.24995 0.45647 0.0
C929 C 0.09826 0.26669 0.45672 0.0
C930 C 0.12563 0.24857 0.44323 0.0
C931 C 0.13183 0.2644 0.43014 0.0
C932 C 0.12112 0.28138 0.43035 0.0
C933 C 0.10443 0.2823 0.44352 0.0
C934 C 0.13659 0.23016 0.4434 0.0
C935 C 0.12736 0.29861 0.41678 0.0
H936 H 0.19778 0.26677 0.42906 0.0
H937 H 0.16588 0.24907 0.35862 0.0
H938 H 0.15912 0.28685 0.46047 0.0
H939 H 0.16345 0.26314 0.47037 0.0
H940 H 0.18321 0.27841 0.46543 0.0
H941 H 0.13263 0.24801 0.35475 0.0
H942 H 0.12365 0.23999 0.38403 0.0
H943 H 0.12086 0.26427 0.3759 0.0
H944 H 0.10468 0.23793 0.46701 0.0
H945 H 0.09611 0.29522 0.44327 0.0
H946 H 0.15109 0.23257 0.45273 0.0
H947 H 0.13819 0.22485 0.42333 0.0
H948 H 0.12955 0.21899 0.45382 0.0
H949 H 0.14176 0.30309 0.42476 0.0
H950 H 0.11748 0.31075 0.4188 0.0
H951 H 0.12831 0.29507 0.39596 0.0
C952 C 0.78397 0.16673 0.3999 0.0
C953 C 0.77875 0.18305 0.41397 0.0
C954 C 0.78195 0.14859 0.40952 0.0
C955 C 0.7741 0.14666 0.43353 0.0
C956 C 0.76788 0.16294 0.44722 0.0
C957 C 0.77045 0.18095 0.43741 0.0
C958 C 0.78896 0.13158 0.3945 0.0
C959 C 0.75914 0.16139 0.47269 0.0
C960 C 0.75823 0.09752 0.45069 0.0
C961 C 0.77358 0.09182 0.46736 0.0
C962 C 0.75805 0.11543 0.43976 0.0
C963 C 0.77375 0.12778 0.44523 0.0
C964 C 0.78932 0.12209 0.46187 0.0
C965 C 0.78894 0.10432 0.47295 0.0
C966 C 0.74106 0.12117 0.42243 0.0
C967 C 0.80644 0.13478 0.46796 0.0
H968 H 0.78995 0.16813 0.38147 0.0
H969 H 0.76654 0.19341 0.44861 0.0
H970 H 0.80098 0.12494 0.40581 0.0
H971 H 0.77756 0.12075 0.39121 0.0
H972 H 0.79382 0.13539 0.37553 0.0
H973 H 0.75323 0.17512 0.47953 0.0
H974 H 0.74762 0.15062 0.471 0.0
H975 H 0.77005 0.15664 0.48753 0.0
H976 H 0.74638 0.08793 0.44599 0.0
H977 H 0.80066 0.10031 0.48629 0.0
H978 H 0.74547 0.12384 0.40286 0.0
H979 H 0.73502 0.13461 0.43001 0.0
H980 H 0.72973 0.11016 0.42074 0.0
H981 H 0.81266 0.13854 0.44985 0.0
H982 H 0.81763 0.12799 0.48066 0.0
H983 H 0.80211 0.14821 0.47763 0.0
C984 C 0.88517 0.79889 0.37844 0.0
C985 C 0.8718 0.78437 0.38012 0.0
C986 C 0.90362 0.79748 0.3903 0.0
C987 C 0.90887 0.78107 0.40396 0.0
C988 C 0.89569 0.766 0.40476 0.0
C989 C 0.87724 0.7679 0.39298 0.0
C990 C 0.91715 0.81398 0.38931 0.0
C991 C 0.90084 0.74818 0.41885 0.0
C992 C 0.96146 0.77376 0.42329 0.0
C993 C 0.96262 0.78059 0.44895 0.0
C994 C 0.94398 0.77355 0.40837 0.0
C995 C 0.92746 0.78051 0.41946 0.0
C996 C 0.92866 0.78733 0.44549 0.0
C997 C 0.94619 0.78709 0.45997 0.0
C998 C 0.94316 0.76592 0.38082 0.0
C999 C 0.91147 0.79502 0.45801 0.0
H1000 H 0.88096 0.81175 0.36878 0.0
H1001 H 0.86698 0.75658 0.3941 0.0
H1002 H 0.92003 0.82049 0.40897 0.0
H1003 H 0.93094 0.80902 0.38266 0.0
H1004 H 0.91139 0.82508 0.37631 0.0
H1005 H 0.88975 0.73702 0.41537 0.0
H1006 H 0.91453 0.74242 0.4128 0.0
H1007 H 0.90275 0.75153 0.43989 0.0
H1008 H 0.97419 0.76853 0.415 0.0
H1009 H 0.94715 0.7921 0.47999 0.0
H1010 H 0.93836 0.77721 0.36756 0.0
H1011 H 0.93263 0.75421 0.37801 0.0
H1012 H 0.95716 0.76057 0.37532 0.0
H1013 H 0.9054 0.8071 0.44708 0.0
H1014 H 0.91489 0.79994 0.47837 0.0
H1015 H 0.9003 0.78393 0.45758 0.0
C1016 C 0.26813 0.87444 0.36912 0.0
C1017 C 0.25136 0.86473 0.37319 0.0
C1018 C 0.27212 0.89229 0.3812 0.0
C1019 C 0.25921 0.90032 0.39812 0.0
C1020 C 0.2423 0.89048 0.40233 0.0
C1021 C 0.23851 0.87287 0.38962 0.0
C1022 C 0.2901 0.90255 0.37589 0.0
C1023 C 0.22834 0.89839 0.42058 0.0
C1024 C 0.27571 0.93672 0.4505 0.0
C1025 C 0.26754 0.95336 0.44085 0.0
C1026 C 0.27363 0.91941 0.43641 0.0
C1027 C 0.26341 0.91885 0.4119 0.0
C1028 C 0.25592 0.93581 0.40154 0.0
C1029 C 0.2579 0.95286 0.41629 0.0
C1030 C 0.28152 0.90158 0.44831 0.0
C1031 C 0.24527 0.93584 0.37527 0.0
H1032 H 0.278 0.86815 0.35628 0.0
H1033 H 0.22564 0.86523 0.39296 0.0
H1034 H 0.2866 0.91682 0.36859 0.0
H1035 H 0.29928 0.90469 0.39402 0.0
H1036 H 0.29831 0.89467 0.36154 0.0
H1037 H 0.21595 0.88885 0.42188 0.0
H1038 H 0.23552 0.90067 0.44017 0.0
H1039 H 0.22305 0.91238 0.41415 0.0
H1040 H 0.28299 0.93709 0.46963 0.0
H1041 H 0.25169 0.96579 0.4088 0.0
H1042 H 0.29053 0.89386 0.43483 0.0
H1043 H 0.26965 0.89198 0.45202 0.0
H1044 H 0.29009 0.90461 0.46679 0.0
H1045 H 0.25362 0.92841 0.36072 0.0
H1046 H 0.24209 0.95044 0.36892 0.0
H1047 H 0.23166 0.92804 0.37575 0.0
C1048 C 0.16072 0.80415 0.62015 0.0
C1049 C 0.16702 0.79134 0.63886 0.0
C1050 C 0.14373 0.80094 0.60483 0.0
C1051 C 0.13303 0.78431 0.60795 0.0
C1052 C 0.13994 0.77078 0.62578 0.0
C1053 C 0.15674 0.7746 0.64134 0.0
C1054 C 0.13667 0.81593 0.58647 0.0
C1055 C 0.1292 0.75265 0.62917 0.0
C1056 C 0.07974 0.78818 0.59348 0.0
C1057 C 0.07746 0.78107 0.56796 0.0
C1058 C 0.09775 0.78915 0.60676 0.0
C1059 C 0.11374 0.78213 0.59451 0.0
C1060 C 0.11131 0.77394 0.56918 0.0
C1061 C 0.09314 0.77363 0.55609 0.0
C1062 C 0.09972 0.79824 0.63358 0.0
C1063 C 0.12791 0.7658 0.55581 0.0
H1064 H 0.16857 0.8172 0.61847 0.0
H1065 H 0.16169 0.76468 0.65578 0.0
H1066 H 0.13327 0.80951 0.56688 0.0
H1067 H 0.12336 0.82224 0.59304 0.0
H1068 H 0.14721 0.82748 0.58519 0.0
H1069 H 0.13772 0.74251 0.64107 0.0
H1070 H 0.11599 0.75593 0.63874 0.0
H1071 H 0.12496 0.74568 0.61013 0.0
H1072 H 0.06743 0.79344 0.6028 0.0
H1073 H 0.09119 0.7678 0.53648 0.0
H1074 H 0.10935 0.8107 0.63393 0.0
H1075 H 0.10618 0.7881 0.64746 0.0
H1076 H 0.08585 0.803 0.6403 0.0
H1077 H 0.138 0.77731 0.55228 0.0
H1078 H 0.12338 0.75852 0.53704 0.0
H1079 H 0.13574 0.75554 0.5683 0.0
C1080 C 0.23881 0.16001 0.67198 0.0
C1081 C 0.24543 0.16033 0.69809 0.0
C1082 C 0.24399 0.14542 0.65488 0.0
C1083 C 0.25614 0.1308 0.66409 0.0
C1084 C 0.26345 0.13138 0.6902 0.0
C1085 C 0.25792 0.14611 0.70696 0.0
C1086 C 0.23577 0.14524 0.62721 0.0
C1087 C 0.27661 0.11615 0.70061 0.0
C1088 C 0.24963 0.08394 0.62655 0.0
C1089 C 0.26417 0.08462 0.60961 0.0
C1090 C 0.24731 0.09857 0.64499 0.0
C1091 C 0.25993 0.11424 0.64672 0.0
C1092 C 0.27517 0.11462 0.63053 0.0
C1093 C 0.27709 0.0998 0.61209 0.0
C1094 C 0.23088 0.09761 0.66194 0.0
C1095 C 0.28898 0.13103 0.63196 0.0
H1096 H 0.22894 0.17081 0.6651 0.0
H1097 H 0.26321 0.14642 0.72708 0.0
H1098 H 0.2473 0.14393 0.61387 0.0
H1099 H 0.22631 0.13274 0.62331 0.0
H1100 H 0.22746 0.15825 0.62275 0.0
H1101 H 0.28239 0.11957 0.72071 0.0
H1102 H 0.26885 0.10246 0.70031 0.0
H1103 H 0.28865 0.11412 0.68823 0.0
H1104 H 0.23984 0.07204 0.6251 0.0
H1105 H 0.28829 0.10048 0.59898 0.0
H1106 H 0.22082 0.10936 0.65754 0.0
H1107 H 0.23605 0.09943 0.68254 0.0
H1108 H 0.223 0.08397 0.65916 0.0
H1109 H 0.28155 0.14396 0.62509 0.0
H1110 H 0.30118 0.12823 0.62002 0.0
H1111 H 0.29452 0.13408 0.65221 0.0
C1112 C 0.87052 0.2497 0.61917 0.0
C1113 C 0.86594 0.25952 0.64183 0.0
C1114 C 0.88841 0.25171 0.6095 0.0
C1115 C 0.90211 0.26387 0.62276 0.0
C1116 C 0.89766 0.27374 0.64577 0.0
C1117 C 0.87964 0.27138 0.6551 0.0
C1118 C 0.89264 0.24079 0.58505 0.0
C1119 C 0.91186 0.28692 0.66034 0.0
C1120 C 0.95336 0.25509 0.60781 0.0
C1121 C 0.95587 0.26846 0.58902 0.0
C1122 C 0.93612 0.25381 0.61951 0.0
C1123 C 0.92104 0.26623 0.61234 0.0
C1124 C 0.92367 0.28013 0.59396 0.0
C1125 C 0.94103 0.28105 0.58249 0.0
C1126 C 0.93388 0.23879 0.63901 0.0
C1127 C 0.90793 0.29362 0.58578 0.0
H1128 H 0.86012 0.24026 0.60908 0.0
H1129 H 0.87612 0.27909 0.67252 0.0
H1130 H 0.89617 0.25077 0.57012 0.0
H1131 H 0.9052 0.23155 0.5888 0.0
H1132 H 0.88048 0.2318 0.57718 0.0
H1133 H 0.90629 0.29337 0.67806 0.0
H1134 H 0.92511 0.2791 0.66585 0.0
H1135 H 0.91572 0.29846 0.64776 0.0
H1136 H 0.96485 0.2455 0.61325 0.0
H1137 H 0.94275 0.29125 0.56776 0.0
H1138 H 0.92275 0.22849 0.63147 0.0
H1139 H 0.92915 0.24532 0.65717 0.0
H1140 H 0.94728 0.23092 0.64351 0.0
H1141 H 0.89593 0.28556 0.5756 0.0
H1142 H 0.9127 0.3045 0.57274 0.0
H1143 H 0.90242 0.30093 0.60294 0.0
C1144 C 0.79107 0.8667 0.65958 0.0
C1145 C 0.7793 0.85253 0.64733 0.0
C1146 C 0.79079 0.88525 0.65072 0.0
C1147 C 0.77847 0.8897 0.62908 0.0
C1148 C 0.76617 0.87561 0.61709 0.0
C1149 C 0.76673 0.85719 0.62637 0.0
C1150 C 0.80413 0.8999 0.66398 0.0
C1151 C 0.75276 0.87987 0.59404 0.0
C1152 C 0.76724 0.94111 0.61496 0.0
C1153 C 0.77934 0.9445 0.5954 0.0
C1154 C 0.76701 0.92342 0.62644 0.0
C1155 C 0.77914 0.90881 0.6181 0.0
C1156 C 0.79162 0.91226 0.59871 0.0
C1157 C 0.79157 0.93006 0.5876 0.0
C1158 C 0.7536 0.92027 0.64719 0.0
C1159 C 0.80474 0.89701 0.58928 0.0
H1160 H 0.801 0.86314 0.67557 0.0
H1161 H 0.75743 0.84634 0.61706 0.0
H1162 H 0.81471 0.90418 0.65054 0.0
H1163 H 0.79615 0.91282 0.66939 0.0
H1164 H 0.81186 0.89452 0.68162 0.0
H1165 H 0.74349 0.86759 0.58771 0.0
H1166 H 0.74364 0.89217 0.59864 0.0
H1167 H 0.76103 0.88378 0.57769 0.0
H1168 H 0.75792 0.95229 0.62126 0.0
H1169 H 0.80074 0.93251 0.57223 0.0
H1170 H 0.76164 0.91553 0.66494 0.0
H1171 H 0.74333 0.90886 0.64073 0.0
H1172 H 0.74554 0.93329 0.65208 0.0
H1173 H 0.81387 0.89164 0.60571 0.0
H1174 H 0.81402 0.90219 0.57468 0.0
H1175 H 0.79626 0.88484 0.58059 0.0
C1176 C 0.87532 0.76226 0.63765 0.0
C1177 C 0.87218 0.76828 0.66303 0.0
C1178 C 0.8932 0.764 0.62797 0.0
C1179 C 0.90834 0.77239 0.64378 0.0
C1180 C 0.90556 0.77794 0.66966 0.0
C1181 C 0.88755 0.77566 0.67906 0.0
C1182 C 0.89562 0.75765 0.60033 0.0
C1183 C 0.92134 0.78707 0.68703 0.0
C1184 C 0.95647 0.76574 0.61679 0.0
C1185 C 0.95722 0.78171 0.60169 0.0
C1186 C 0.94113 0.76297 0.63198 0.0
C1187 C 0.92644 0.77666 0.63224 0.0
C1188 C 0.92795 0.79349 0.61848 0.0
C1189 C 0.94323 0.7957 0.60311 0.0
C1190 C 0.93994 0.74476 0.64611 0.0
C1191 C 0.9128 0.80861 0.61864 0.0
H1192 H 0.8636 0.75692 0.62479 0.0
H1193 H 0.88544 0.78007 0.69881 0.0
H1194 H 0.89787 0.77021 0.58869 0.0
H1195 H 0.90832 0.74846 0.59926 0.0
H1196 H 0.88303 0.74973 0.59144 0.0
H1197 H 0.91752 0.78881 0.70731 0.0
H1198 H 0.93452 0.77852 0.68661 0.0
H1199 H 0.92457 0.80127 0.67993 0.0
H1200 H 0.96727 0.75487 0.61549 0.0
H1201 H 0.94394 0.8081 0.5915 0.0
H1202 H 0.92887 0.73546 0.63595 0.0
H1203 H 0.93571 0.74761 0.66599 0.0
H1204 H 0.95364 0.73695 0.6471 0.0
H1205 H 0.89968 0.80326 0.60765 0.0
H1206 H 0.9173 0.82182 0.60981 0.0
H1207 H 0.90916 0.8121 0.63865 0.0
C1208 C 0.23509 0.90821 0.66302 0.0
C1209 C 0.2466 0.89191 0.66279 0.0
C1210 C 0.23847 0.92361 0.64763 0.0
C1211 C 0.25431 0.92323 0.63245 0.0
C1212 C 0.26663 0.90738 0.63317 0.0
C1213 C 0.26244 0.8918 0.64787 0.0
C1214 C 0.22471 0.94003 0.64697 0.0
C1215 C 0.28404 0.90671 0.61795 0.0
C1216 C 0.25259 0.95296 0.57282 0.0
C1217 C 0.26185 0.96961 0.58235 0.0
C1218 C 0.24993 0.93782 0.58896 0.0
C1219 C 0.25744 0.93905 0.615 0.0
C1220 C 0.26741 0.95561 0.62447 0.0
C1221 C 0.2691 0.97088 0.60818 0.0
C1222 C 0.23867 0.92071 0.57829 0.0
C1223 C 0.27626 0.95722 0.6518 0.0
H1224 H 0.22318 0.90893 0.67499 0.0
H1225 H 0.27138 0.87935 0.64704 0.0
H1226 H 0.23223 0.95341 0.65321 0.0
H1227 H 0.21858 0.94178 0.62692 0.0
H1228 H 0.21289 0.93802 0.65957 0.0
H1229 H 0.29335 0.89446 0.62292 0.0
H1230 H 0.2797 0.90559 0.59702 0.0
H1231 H 0.29242 0.91998 0.62153 0.0
H1232 H 0.24702 0.95199 0.55281 0.0
H1233 H 0.27618 0.98381 0.61557 0.0
H1234 H 0.22632 0.91853 0.5899 0.0
H1235 H 0.24757 0.90778 0.57968 0.0
H1236 H 0.23336 0.9222 0.55782 0.0
H1237 H 0.26499 0.95727 0.66557 0.0
H1238 H 0.2849 0.97033 0.65547 0.0
H1239 H 0.28546 0.94476 0.65588 0.0
C1240 C 0.14102 0.25906 0.69405 0.0
C1241 C 0.14719 0.24022 0.69589 0.0
C1242 C 0.12661 0.26405 0.6754 0.0
C1243 C 0.11831 0.24987 0.6581 0.0
C1244 C 0.12454 0.23086 0.65984 0.0
C1245 C 0.13887 0.22627 0.6787 0.0
C1246 C 0.12026 0.28445 0.67419 0.0
C1247 C 0.11617 0.21535 0.64161 0.0
C1248 C 0.0697 0.25671 0.62315 0.0
C1249 C 0.07464 0.26124 0.59858 0.0
C1250 C 0.0838 0.25353 0.64301 0.0
C1251 C 0.10322 0.25483 0.63796 0.0
C1252 C 0.10818 0.25979 0.61318 0.0
C1253 C 0.09378 0.26296 0.59374 0.0
C1254 C 0.07795 0.24833 0.66916 0.0
C1255 C 0.12869 0.26121 0.60699 0.0
H1256 H 0.14732 0.26986 0.7074 0.0
H1257 H 0.14382 0.21174 0.67971 0.0
H1258 H 0.12248 0.28993 0.65493 0.0
H1259 H 0.10482 0.28542 0.67682 0.0
H1260 H 0.12804 0.29375 0.68914 0.0
H1261 H 0.12251 0.20125 0.64563 0.0
H1262 H 0.1006 0.21444 0.6431 0.0
H1263 H 0.11847 0.21874 0.62141 0.0
H1264 H 0.05481 0.25541 0.62665 0.0
H1265 H 0.09742 0.26645 0.57459 0.0
H1266 H 0.08489 0.25795 0.6844 0.0
H1267 H 0.08272 0.2337 0.67335 0.0
H1268 H 0.06231 0.24906 0.67037 0.0
H1269 H 0.13013 0.26614 0.58719 0.0
H1270 H 0.13559 0.24714 0.60876 0.0
H1271 H 0.13653 0.27116 0.62098 0.0
C1272 C 0.79903 0.15552 0.64627 0.0
C1273 C 0.78225 0.16585 0.64915 0.0
C1274 C 0.7985 0.13689 0.63571 0.0
C1275 C 0.78078 0.12835 0.62771 0.0
C1276 C 0.76377 0.13852 0.63107 0.0
C1277 C 0.76471 0.15712 0.64177 0.0
C1278 C 0.81696 0.12652 0.63247 0.0
C1279 C 0.7446 0.12988 0.62285 0.0
C1280 C 0.78005 0.08871 0.57602 0.0
C1281 C 0.7789 0.07262 0.59072 0.0
C1282 C 0.78061 0.10695 0.58781 0.0
C1283 C 0.78008 0.10905 0.61497 0.0
C1284 C 0.77898 0.09271 0.62986 0.0
C1285 C 0.77839 0.07463 0.61751 0.0
C1286 C 0.78177 0.12397 0.57122 0.0
C1287 C 0.77846 0.09433 0.65882 0.0
H1288 H 0.81266 0.16221 0.65152 0.0
H1289 H 0.75167 0.16489 0.64421 0.0
H1290 H 0.81678 0.11263 0.64179 0.0
H1291 H 0.81866 0.12359 0.61167 0.0
H1292 H 0.82949 0.13476 0.64088 0.0
H1293 H 0.73269 0.13938 0.62763 0.0
H1294 H 0.74351 0.12677 0.60172 0.0
H1295 H 0.74295 0.11622 0.63235 0.0
H1296 H 0.78045 0.08697 0.55525 0.0
H1297 H 0.77755 0.06204 0.62871 0.0
H1298 H 0.79479 0.13229 0.57725 0.0
H1299 H 0.76943 0.13342 0.57382 0.0
H1300 H 0.78199 0.11989 0.5504 0.0
H1301 H 0.79141 0.10174 0.66744 0.0
H1302 H 0.77756 0.08026 0.66756 0.0
H1303 H 0.76607 0.10297 0.664 0.0
C1304 C 0.8804 0.29047 0.42652 0.0
C1305 C 0.87384 0.27403 0.41267 0.0
C1306 C 0.89936 0.29198 0.43679 0.0
C1307 C 0.91192 0.27657 0.43341 0.0
C1308 C 0.9054 0.26004 0.41918 0.0
C1309 C 0.88647 0.25901 0.40888 0.0
C1310 C 0.90587 0.30993 0.45155 0.0
C1311 C 0.91829 0.24321 0.41542 0.0
C1312 C 0.96552 0.28301 0.44213 0.0
C1313 C 0.96951 0.27642 0.46697 0.0
C1314 C 0.94673 0.28374 0.43122 0.0
C1315 C 0.93173 0.27739 0.44542 0.0
C1316 C 0.93577 0.27092 0.4707 0.0
C1317 C 0.95465 0.27054 0.48118 0.0
C1318 C 0.94298 0.29088 0.40433 0.0
C1319 C 0.92022 0.26388 0.4864 0.0
H1320 H 0.87069 0.30216 0.42932 0.0
H1321 H 0.88137 0.24617 0.39851 0.0
H1322 H 0.91014 0.30672 0.47188 0.0
H1323 H 0.91854 0.3158 0.4432 0.0
H1324 H 0.89461 0.32095 0.45138 0.0
H1325 H 0.91114 0.23158 0.40339 0.0
H1326 H 0.93114 0.24762 0.40609 0.0
H1327 H 0.92315 0.2376 0.43444 0.0
H1328 H 0.97715 0.28732 0.43113 0.0
H1329 H 0.9579 0.26533 0.50038 0.0
H1330 H 0.93209 0.30223 0.4042 0.0
H1331 H 0.93727 0.27917 0.39114 0.0
H1332 H 0.95603 0.29652 0.39662 0.0
H1333 H 0.90908 0.27487 0.48801 0.0
H1334 H 0.92567 0.26011 0.50615 0.0
H1335 H 0.91335 0.25117 0.47655 0.0
C1336 C 0.76531 0.88085 0.40376 0.0
C1337 C 0.77988 0.87888 0.38678 0.0
C1338 C 0.76261 0.89795 0.41775 0.0
C1339 C 0.7752 0.91332 0.41562 0.0
C1340 C 0.78972 0.91163 0.39832 0.0
C1341 C 0.79159 0.89466 0.38373 0.0
C1342 C 0.74654 0.8994 0.43534 0.0
C1343 C 0.80376 0.92751 0.39591 0.0
C1344 C 0.76359 0.96355 0.43886 0.0
C1345 C 0.77262 0.96429 0.4638 0.0
C1346 C 0.76369 0.94683 0.42328 0.0
C1347 C 0.77385 0.9308 0.43243 0.0
C1348 C 0.78321 0.9316 0.45752 0.0
C1349 C 0.78217 0.94822 0.47305 0.0
C1350 C 0.75297 0.94635 0.39705 0.0
C1351 C 0.79473 0.91509 0.46773 0.0
H1352 H 0.75627 0.86887 0.40682 0.0
H1353 H 0.80252 0.89373 0.37019 0.0
H1354 H 0.75236 0.9 0.45575 0.0
H1355 H 0.73837 0.91264 0.43199 0.0
H1356 H 0.73663 0.88713 0.43246 0.0
H1357 H 0.81434 0.92392 0.38171 0.0
H1358 H 0.7962 0.9406 0.38995 0.0
H1359 H 0.81148 0.93078 0.41494 0.0
H1360 H 0.75647 0.97609 0.43155 0.0
H1361 H 0.78923 0.94885 0.49231 0.0
H1362 H 0.7433 0.93389 0.39495 0.0
H1363 H 0.76308 0.9448 0.38177 0.0
H1364 H 0.74446 0.95941 0.39373 0.0
H1365 H 0.78553 0.9024 0.46837 0.0
H1366 H 0.80153 0.91819 0.48739 0.0
H1367 H 0.80599 0.91143 0.4546 0.0
C1368 C 0.14551 0.78673 0.36139 0.0
C1369 C 0.16011 0.77378 0.36766 0.0
C1370 C 0.12842 0.78652 0.37358 0.0
C1371 C 0.12594 0.7732 0.39275 0.0
C1372 C 0.14024 0.75958 0.39838 0.0
C1373 C 0.15707 0.75994 0.38564 0.0
C1374 C 0.11341 0.80114 0.36682 0.0
C1375 C 0.13815 0.74518 0.41876 0.0
C1376 C 0.09434 0.78754 0.44609 0.0
C1377 C 0.07785 0.77693 0.43916 0.0
C1378 C 0.11006 0.78643 0.43112 0.0
C1379 C 0.10918 0.77457 0.40848 0.0
C1380 C 0.09247 0.76396 0.40121 0.0
C1381 C 0.07703 0.76515 0.41678 0.0
C1382 C 0.1277 0.79777 0.43975 0.0
C1383 C 0.09092 0.75139 0.37701 0.0
H1384 H 0.14774 0.79762 0.34776 0.0
H1385 H 0.16809 0.74964 0.39025 0.0
H1386 H 0.09927 0.79428 0.36317 0.0
H1387 H 0.11249 0.81147 0.38329 0.0
H1388 H 0.11654 0.80903 0.34954 0.0
H1389 H 0.14994 0.73472 0.41956 0.0
H1390 H 0.13792 0.75257 0.43795 0.0
H1391 H 0.1245 0.73741 0.41507 0.0
H1392 H 0.0951 0.79645 0.46359 0.0
H1393 H 0.06423 0.75703 0.41132 0.0
H1394 H 0.1311 0.80755 0.42451 0.0
H1395 H 0.14 0.7881 0.44287 0.0
H1396 H 0.12609 0.80626 0.45788 0.0
H1397 H 0.09337 0.75987 0.36003 0.0
H1398 H 0.0768 0.74438 0.37378 0.0
H1399 H 0.10204 0.74027 0.37819 0.0
C1400 C 0.28609 0.15745 0.40916 0.0
C1401 C 0.2697 0.16225 0.39385 0.0
C1402 C 0.28725 0.14026 0.42202 0.0
C1403 C 0.27159 0.12761 0.41964 0.0
C1404 C 0.2552 0.13214 0.40368 0.0
C1405 C 0.25447 0.14938 0.39094 0.0
C1406 C 0.30505 0.13586 0.43865 0.0
C1407 C 0.23815 0.11909 0.40075 0.0
C1408 C 0.27813 0.07621 0.43854 0.0
C1409 C 0.27155 0.07681 0.46329 0.0
C1410 C 0.27849 0.0927 0.42419 0.0
C1411 C 0.27195 0.11008 0.43484 0.0
C1412 C 0.26538 0.11067 0.45996 0.0
C1413 C 0.26529 0.09401 0.47389 0.0
C1414 C 0.28568 0.09148 0.39757 0.0
C1415 C 0.25819 0.12886 0.47198 0.0
H1416 H 0.29799 0.16724 0.41127 0.0
H1417 H 0.24166 0.15309 0.37942 0.0
H1418 H 0.30168 0.13529 0.4591 0.0
H1419 H 0.31062 0.12173 0.43295 0.0
H1420 H 0.31637 0.14663 0.43726 0.0
H1421 H 0.22688 0.12422 0.38665 0.0
H1422 H 0.24248 0.10464 0.39438 0.0
H1423 H 0.23206 0.11786 0.41968 0.0
H1424 H 0.28282 0.0628 0.43038 0.0
H1425 H 0.26015 0.09433 0.49303 0.0
H1426 H 0.29743 0.10178 0.39633 0.0
H1427 H 0.27414 0.09534 0.38304 0.0
H1428 H 0.29086 0.07706 0.39244 0.0
H1429 H 0.26941 0.13992 0.47286 0.0
H1430 H 0.25378 0.12696 0.49178 0.0
H1431 H 0.24586 0.1342 0.45988 0.0
C1432 C 0.63512 0.73464 0.84491 0.0
C1433 C 0.6544 0.73788 0.85254 0.0
C1434 C 0.62086 0.73948 0.86137 0.0
C1435 C 0.62591 0.74826 0.88582 0.0
C1436 C 0.6452 0.75248 0.89315 0.0
C1437 C 0.65923 0.74705 0.87657 0.0
C1438 C 0.60045 0.73453 0.85296 0.0
C1439 C 0.6511 0.76221 0.91885 0.0
C1440 C 0.58617 0.77202 0.92053 0.0
C1441 C 0.58205 0.75831 0.93825 0.0
C1442 C 0.60071 0.76917 0.90377 0.0
C1443 C 0.6111 0.752 0.90426 0.0
C1444 C 0.60707 0.73813 0.92205 0.0
C1445 C 0.5928 0.74155 0.93902 0.0
C1446 C 0.60486 0.78446 0.88541 0.0
C1447 C 0.61766 0.71952 0.92295 0.0
H1448 H 0.63114 0.728 0.82617 0.0
H1449 H 0.67404 0.74945 0.8829 0.0
H1450 H 0.595 0.72425 0.86629 0.0
H1451 H 0.59141 0.74737 0.85389 0.0
H1452 H 0.59883 0.72821 0.83303 0.0
H1453 H 0.66638 0.76622 0.92054 0.0
H1454 H 0.64249 0.77518 0.92172 0.0
H1455 H 0.64847 0.75264 0.93466 0.0
H1456 H 0.57784 0.78491 0.9194 0.0
H1457 H 0.59013 0.73104 0.95298 0.0
H1458 H 0.6018 0.7791 0.86521 0.0
H1459 H 0.62015 0.78833 0.88773 0.0
H1460 H 0.5963 0.79745 0.88852 0.0
H1461 H 0.61594 0.71197 0.90381 0.0
H1462 H 0.6126 0.71008 0.93765 0.0
H1463 H 0.63308 0.72215 0.92736 0.0
C1464 C 0.27592 0.65302 0.85425 0.0
C1465 C 0.28312 0.67035 0.86482 0.0
C1466 C 0.27308 0.63768 0.87002 0.0
C1467 C 0.27804 0.63959 0.8969 0.0
C1468 C 0.28499 0.65721 0.9077 0.0
C1469 C 0.28727 0.67243 0.89155 0.0
C1470 C 0.26522 0.61928 0.85785 0.0
C1471 C 0.29082 0.65974 0.93615 0.0
C1472 C 0.26044 0.60403 0.94314 0.0
C1473 C 0.27599 0.59161 0.94605 0.0
C1474 C 0.26073 0.61946 0.92682 0.0
C1475 C 0.27709 0.62287 0.91349 0.0
C1476 C 0.29281 0.61045 0.91631 0.0
C1477 C 0.29197 0.59488 0.93223 0.0
C1478 C 0.24356 0.63221 0.92397 0.0
C1479 C 0.31064 0.6137 0.9027 0.0
H1480 H 0.27264 0.65145 0.83358 0.0
H1481 H 0.29306 0.68577 0.89969 0.0
H1482 H 0.27624 0.60808 0.85946 0.0
H1483 H 0.253 0.61447 0.86819 0.0
H1484 H 0.26051 0.62062 0.83714 0.0
H1485 H 0.2952 0.67455 0.94168 0.0
H1486 H 0.27895 0.65577 0.94772 0.0
H1487 H 0.30289 0.65016 0.94133 0.0
H1488 H 0.24811 0.60189 0.95391 0.0
H1489 H 0.3039 0.58522 0.93373 0.0
H1490 H 0.23869 0.6332 0.90328 0.0
H1491 H 0.24738 0.64676 0.93139 0.0
H1492 H 0.23157 0.62705 0.93453 0.0
H1493 H 0.30728 0.61324 0.88152 0.0
H1494 H 0.32178 0.60297 0.90737 0.0
H1495 H 0.31652 0.62799 0.90821 0.0
C1496 C 0.36881 0.29031 0.95366 0.0
C1497 C 0.36034 0.2761 0.93708 0.0
C1498 C 0.38835 0.29001 0.96096 0.0
C1499 C 0.3996 0.27493 0.95181 0.0
C1500 C 0.39102 0.2603 0.93554 0.0
C1501 C 0.37149 0.26118 0.9281 0.0
C1502 C 0.39702 0.30605 0.97794 0.0
C1503 C 0.40248 0.24378 0.9259 0.0
C1504 C 0.45248 0.28358 0.94881 0.0
C1505 C 0.45988 0.27598 0.97189 0.0
C1506 C 0.43285 0.28342 0.94212 0.0
C1507 C 0.42046 0.27489 0.95855 0.0
C1508 C 0.428 0.26664 0.98154 0.0
C1509 C 0.44767 0.26738 0.98799 0.0
C1510 C 0.42537 0.29255 0.9176 0.0
C1511 C 0.41531 0.25719 0.99941 0.0
H1512 H 0.3602 0.30196 0.96038 0.0
H1513 H 0.36488 0.25013 0.91542 0.0
H1514 H 0.40419 0.30041 0.99574 0.0
H1515 H 0.408 0.31336 0.9677 0.0
H1516 H 0.38627 0.31666 0.98351 0.0
H1517 H 0.41346 0.24892 0.91364 0.0
H1518 H 0.41001 0.23675 0.94244 0.0
H1519 H 0.39349 0.23308 0.9145 0.0
H1520 H 0.46208 0.28966 0.936 0.0
H1521 H 0.45354 0.26128 0.00569 0.0
H1522 H 0.41505 0.30385 0.92213 0.0
H1523 H 0.41769 0.28189 0.90451 0.0
H1524 H 0.43688 0.29888 0.90722 0.0
H1525 H 0.40623 0.26799 0.00845 0.0
H1526 H 0.42358 0.24973 0.01498 0.0
H1527 H 0.40574 0.24681 0.98842 0.0
C1528 C 0.73575 0.39937 0.87767 0.0
C1529 C 0.75028 0.38652 0.87232 0.0
C1530 C 0.73895 0.41451 0.89575 0.0
C1531 C 0.75713 0.41691 0.90893 0.0
C1532 C 0.77195 0.40418 0.90341 0.0
C1533 C 0.76834 0.38913 0.8852 0.0
C1534 C 0.72274 0.42772 0.90114 0.0
C1535 C 0.79153 0.40633 0.91699 0.0
C1536 C 0.7677 0.46556 0.94089 0.0
C1537 C 0.76367 0.46252 0.96634 0.0
C1538 C 0.76613 0.45071 0.92208 0.0
C1539 C 0.76035 0.43246 0.929 0.0
C1540 C 0.75669 0.4293 0.95492 0.0
C1541 C 0.7584 0.44441 0.9733 0.0
C1542 C 0.77016 0.45465 0.89469 0.0
C1543 C 0.7505 0.41009 0.96311 0.0
H1544 H 0.72166 0.39729 0.86818 0.0
H1545 H 0.77969 0.37938 0.88102 0.0
H1546 H 0.71948 0.42692 0.92161 0.0
H1547 H 0.72684 0.44259 0.89804 0.0
H1548 H 0.70963 0.42425 0.88869 0.0
H1549 H 0.80167 0.39562 0.90995 0.0
H1550 H 0.79723 0.4207 0.91416 0.0
H1551 H 0.79073 0.40487 0.93805 0.0
H1552 H 0.77174 0.47966 0.93567 0.0
H1553 H 0.75531 0.44219 0.99308 0.0
H1554 H 0.75698 0.45272 0.88185 0.0
H1555 H 0.78078 0.44442 0.88777 0.0
H1556 H 0.77557 0.46928 0.8928 0.0
H1557 H 0.73659 0.40622 0.95291 0.0
H1558 H 0.74911 0.40977 0.98422 0.0
H1559 H 0.76087 0.39909 0.95767 0.0
C1560 C 0.64303 0.29537 0.16567 0.0
C1561 C 0.65198 0.27948 0.17657 0.0
C1562 C 0.62544 0.29372 0.15134 0.0
C1563 C 0.61654 0.27573 0.14776 0.0
C1564 C 0.62501 0.25981 0.15978 0.0
C1565 C 0.64266 0.26187 0.174 0.0
C1566 C 0.61692 0.31104 0.13877 0.0
C1567 C 0.61588 0.24043 0.15657 0.0
C1568 C 0.56532 0.27491 0.1189 0.0
C1569 C 0.56797 0.27133 0.09279 0.0
C1570 C 0.58098 0.27585 0.1373 0.0
C1571 C 0.59958 0.27329 0.12917 0.0
C1572 C 0.60216 0.26933 0.10276 0.0
C1573 C 0.58631 0.26846 0.08489 0.0
C1574 C 0.57769 0.28009 0.16526 0.0
C1575 C 0.62172 0.2666 0.09322 0.0
H1576 H 0.65022 0.30899 0.16727 0.0
H1577 H 0.64937 0.24958 0.18267 0.0
H1578 H 0.61744 0.30942 0.11753 0.0
H1579 H 0.60176 0.31256 0.1428 0.0
H1580 H 0.62458 0.32427 0.14551 0.0
H1581 H 0.62314 0.23 0.1694 0.0
H1582 H 0.6007 0.24125 0.16071 0.0
H1583 H 0.61639 0.23512 0.13629 0.0
H1584 H 0.55107 0.27732 0.12478 0.0
H1585 H 0.58823 0.26595 0.06455 0.0
H1586 H 0.58394 0.29411 0.17146 0.0
H1587 H 0.58491 0.26936 0.1776 0.0
H1588 H 0.56234 0.2803 0.1687 0.0
H1589 H 0.63014 0.27983 0.09693 0.0
H1590 H 0.62118 0.26285 0.07224 0.0
H1591 H 0.62937 0.25521 0.10385 0.0
C1592 C 0.77451 0.6603 0.14027 0.0
C1593 C 0.75622 0.66729 0.14386 0.0
C1594 C 0.77717 0.64192 0.12975 0.0
C1595 C 0.76118 0.63023 0.12265 0.0
C1596 C 0.74271 0.63714 0.12642 0.0
C1597 C 0.74046 0.65556 0.13691 0.0
C1598 C 0.79709 0.63504 0.12608 0.0
C1599 C 0.72528 0.62514 0.11905 0.0
C1600 C 0.76451 0.58978 0.07276 0.0
C1601 C 0.766 0.57406 0.08836 0.0
C1602 C 0.76336 0.60821 0.08371 0.0
C1603 C 0.76365 0.61087 0.11088 0.0
C1604 C 0.76549 0.59493 0.1267 0.0
C1605 C 0.76664 0.57666 0.1152 0.0
C1606 C 0.76143 0.62479 0.06617 0.0
C1607 C 0.76581 0.59714 0.1557 0.0
H1608 H 0.78677 0.66917 0.14584 0.0
H1609 H 0.72626 0.66092 0.13919 0.0
H1610 H 0.79991 0.62187 0.13672 0.0
H1611 H 0.7986 0.63151 0.10536 0.0
H1612 H 0.80804 0.64578 0.13286 0.0
H1613 H 0.71195 0.63243 0.12377 0.0
H1614 H 0.72441 0.62155 0.09805 0.0
H1615 H 0.72628 0.61158 0.12921 0.0
H1616 H 0.76395 0.58758 0.05197 0.0
H1617 H 0.76772 0.56435 0.12709 0.0
H1618 H 0.77279 0.63538 0.07163 0.0
H1619 H 0.74762 0.63196 0.06838 0.0
H1620 H 0.76224 0.62038 0.04555 0.0
H1621 H 0.77717 0.60723 0.1631 0.0
H1622 H 0.76818 0.58343 0.16527 0.0
H1623 H 0.7521 0.60316 0.16127 0.0
C1624 C 0.35907 0.76527 0.10466 0.0
C1625 C 0.35379 0.77599 0.1262 0.0
C1626 C 0.37708 0.76735 0.09541 0.0
C1627 C 0.39009 0.78063 0.10784 0.0
C1628 C 0.38466 0.79189 0.12918 0.0
C1629 C 0.3666 0.78932 0.13826 0.0
C1630 C 0.38239 0.75491 0.07279 0.0
C1631 C 0.39803 0.80641 0.14264 0.0
C1632 C 0.44199 0.77013 0.09906 0.0
C1633 C 0.44545 0.78127 0.07809 0.0
C1634 C 0.42422 0.77028 0.1095 0.0
C1635 C 0.40959 0.78206 0.09899 0.0
C1636 C 0.41325 0.79406 0.07872 0.0
C1637 C 0.43108 0.79344 0.06839 0.0
C1638 C 0.42086 0.75721 0.13106 0.0
C1639 C 0.39808 0.80698 0.06719 0.0
H1640 H 0.34932 0.75474 0.09554 0.0
H1641 H 0.36249 0.79769 0.15483 0.0
H1642 H 0.38684 0.76378 0.05713 0.0
H1643 H 0.39465 0.74582 0.07882 0.0
H1644 H 0.37047 0.74561 0.0649 0.0
H1645 H 0.39124 0.81481 0.15793 0.0
H1646 H 0.41073 0.79922 0.15155 0.0
H1647 H 0.40307 0.81627 0.12847 0.0
H1648 H 0.45311 0.76099 0.10706 0.0
H1649 H 0.43349 0.80196 0.05203 0.0
H1650 H 0.40998 0.74644 0.12424 0.0
H1651 H 0.41529 0.76531 0.14755 0.0
H1652 H 0.43401 0.74972 0.13804 0.0
H1653 H 0.38667 0.79834 0.05663 0.0
H1654 H 0.40379 0.81691 0.05357 0.0
H1655 H 0.39148 0.81536 0.08263 0.0
C1656 C 0.29679 0.3751 0.15135 0.0
C1657 C 0.28077 0.36364 0.15382 0.0
C1658 C 0.29522 0.39255 0.13924 0.0
C1659 C 0.27728 0.39855 0.12856 0.0
C1660 C 0.26102 0.38722 0.13107 0.0
C1661 C 0.26291 0.37007 0.14397 0.0
C1662 C 0.31287 0.40438 0.13742 0.0
C1663 C 0.24169 0.39296 0.11954 0.0
C1664 C 0.27104 0.45055 0.11252 0.0
C1665 C 0.2749 0.45014 0.08649 0.0
C1666 C 0.27169 0.43385 0.1265 0.0
C1667 C 0.27576 0.41631 0.11387 0.0
C1668 C 0.27909 0.41583 0.08732 0.0
C1669 C 0.27893 0.43281 0.07407 0.0
C1670 C 0.26858 0.43504 0.15491 0.0
C1671 C 0.283 0.39742 0.07294 0.0
H1672 H 0.31075 0.37026 0.15826 0.0
H1673 H 0.25034 0.36164 0.14612 0.0
H1674 H 0.31619 0.40506 0.11696 0.0
H1675 H 0.31048 0.41913 0.14461 0.0
H1676 H 0.32542 0.39853 0.14862 0.0
H1677 H 0.23041 0.38269 0.12339 0.0
H1678 H 0.23782 0.40716 0.1274 0.0
H1679 H 0.24206 0.39405 0.09835 0.0
H1680 H 0.26807 0.46403 0.12209 0.0
H1681 H 0.28186 0.43257 0.0539 0.0
H1682 H 0.28153 0.43018 0.16618 0.0
H1683 H 0.25678 0.42551 0.15908 0.0
H1684 H 0.26522 0.44969 0.16172 0.0
H1685 H 0.2966 0.39132 0.08086 0.0
H1686 H 0.28388 0.39932 0.05195 0.0
H1687 H 0.27164 0.38694 0.07556 0.0
C1688 C 0.3683 0.28454 0.12289 0.0
C1689 C 0.36588 0.27482 0.14544 0.0
C1690 C 0.38553 0.28367 0.11105 0.0
C1691 C 0.40063 0.27257 0.12181 0.0
C1692 C 0.39819 0.26254 0.14445 0.0
C1693 C 0.38089 0.26394 0.15616 0.0
C1694 C 0.38765 0.29485 0.08722 0.0
C1695 C 0.41383 0.25028 0.15621 0.0
C1696 C 0.43872 0.25837 0.07681 0.0
C1697 C 0.45318 0.27158 0.08419 0.0
C1698 C 0.42175 0.2582 0.08932 0.0
C1699 C 0.41903 0.27173 0.1095 0.0
C1700 C 0.43361 0.28497 0.11724 0.0
C1701 C 0.45053 0.28465 0.10464 0.0
C1702 C 0.4066 0.24377 0.08057 0.0
C1703 C 0.43117 0.29978 0.13846 0.0
H1704 H 0.35679 0.29316 0.11476 0.0
H1705 H 0.37898 0.25633 0.17351 0.0
H1706 H 0.3996 0.30506 0.09077 0.0
H1707 H 0.39109 0.28519 0.07092 0.0
H1708 H 0.37456 0.30285 0.08135 0.0
H1709 H 0.40953 0.24303 0.17346 0.0
H1710 H 0.41798 0.23938 0.14176 0.0
H1711 H 0.42661 0.25905 0.16191 0.0
H1712 H 0.44045 0.24839 0.06081 0.0
H1713 H 0.4617 0.29471 0.1108 0.0
H1714 H 0.39378 0.2511 0.07224 0.0
H1715 H 0.4023 0.2359 0.09728 0.0
H1716 H 0.41143 0.23343 0.06581 0.0
H1717 H 0.41883 0.30895 0.13305 0.0
H1718 H 0.44396 0.3089 0.14243 0.0
H1719 H 0.42812 0.29285 0.1565 0.0
C1720 C 0.74308 0.36554 0.14601 0.0
C1721 C 0.75157 0.36102 0.17022 0.0
C1722 C 0.74662 0.38299 0.13524 0.0
C1723 C 0.75904 0.39621 0.14896 0.0
C1724 C 0.76781 0.39168 0.17331 0.0
C1725 C 0.7639 0.37414 0.18373 0.0
C1726 C 0.73685 0.38737 0.10931 0.0
C1727 C 0.78127 0.40536 0.18836 0.0
C1728 C 0.77831 0.43384 0.10762 0.0
C1729 C 0.76567 0.44886 0.11146 0.0
C1730 C 0.77691 0.41689 0.12066 0.0
C1731 C 0.76244 0.4149 0.13782 0.0
C1732 C 0.7502 0.43031 0.14268 0.0
C1733 C 0.75201 0.44713 0.12951 0.0
C1734 C 0.79031 0.4008 0.11511 0.0
C1735 C 0.73462 0.42875 0.16089 0.0
H1736 H 0.73333 0.35555 0.13569 0.0
H1737 H 0.77061 0.3706 0.20236 0.0
H1738 H 0.72786 0.40019 0.11121 0.0
H1739 H 0.74757 0.39051 0.0955 0.0
H1740 H 0.72775 0.37546 0.10105 0.0
H1741 H 0.78723 0.39952 0.20678 0.0
H1742 H 0.79317 0.40893 0.17661 0.0
H1743 H 0.77377 0.4188 0.19274 0.0
H1744 H 0.78879 0.43498 0.09354 0.0
H1745 H 0.74242 0.45882 0.13294 0.0
H1746 H 0.78232 0.38909 0.10436 0.0
H1747 H 0.7966 0.39504 0.13338 0.0
H1748 H 0.80199 0.40528 0.10348 0.0
H1749 H 0.72397 0.4181 0.15291 0.0
H1750 H 0.72725 0.44247 0.16404 0.0
H1751 H 0.7405 0.42376 0.17981 0.0
C1752 C 0.66053 0.77689 0.12573 0.0
C1753 C 0.66515 0.76047 0.13924 0.0
C1754 C 0.64221 0.77954 0.11397 0.0
C1755 C 0.62821 0.76533 0.11555 0.0
C1756 C 0.63268 0.7489 0.12961 0.0
C1757 C 0.65107 0.74671 0.14139 0.0
C1758 C 0.63793 0.79735 0.09941 0.0
C1759 C 0.6182 0.73336 0.13153 0.0
C1760 C 0.57603 0.7771 0.1004 0.0
C1761 C 0.57313 0.77029 0.0748 0.0
C1762 C 0.59396 0.77581 0.11388 0.0
C1763 C 0.60919 0.76723 0.10147 0.0
C1764 C 0.60621 0.76027 0.07558 0.0
C1765 C 0.5882 0.76194 0.06253 0.0
C1766 C 0.59661 0.78349 0.14138 0.0
C1767 C 0.622 0.7509 0.06173 0.0
H1768 H 0.67132 0.78766 0.12428 0.0
H1769 H 0.65463 0.7339 0.15157 0.0
H1770 H 0.63458 0.79364 0.07866 0.0
H1771 H 0.62525 0.80452 0.10659 0.0
H1772 H 0.65003 0.8075 0.10125 0.0
H1773 H 0.62367 0.72185 0.14407 0.0
H1774 H 0.60513 0.73927 0.13931 0.0
H1775 H 0.61408 0.7271 0.11202 0.0
H1776 H 0.56421 0.78335 0.10986 0.0
H1777 H 0.58579 0.75658 0.04274 0.0
H1778 H 0.60823 0.79416 0.14329 0.0
H1779 H 0.60084 0.77187 0.1544 0.0
H1780 H 0.58348 0.7902 0.14797 0.0
H1781 H 0.63411 0.76087 0.06124 0.0
H1782 H 0.61732 0.74625 0.04161 0.0
H1783 H 0.62731 0.73836 0.0723 0.0
C1784 C 0.26574 0.6606 0.13392 0.0
C1785 C 0.2825 0.67137 0.13474 0.0
C1786 C 0.26524 0.64174 0.12428 0.0
C1787 C 0.28191 0.63345 0.11531 0.0
C1788 C 0.29898 0.64409 0.11662 0.0
C1789 C 0.29906 0.66293 0.12627 0.0
C1790 C 0.24679 0.63081 0.12322 0.0
C1791 C 0.31703 0.63572 0.10721 0.0
C1792 C 0.28432 0.57974 0.10738 0.0
C1793 C 0.27982 0.57709 0.08085 0.0
C1794 C 0.28516 0.59806 0.11892 0.0
C1795 C 0.28129 0.61394 0.10348 0.0
C1796 C 0.27672 0.6112 0.07661 0.0
C1797 C 0.27604 0.59275 0.06562 0.0
C1798 C 0.29011 0.60044 0.1476 0.0
C1799 C 0.27248 0.62775 0.0595 0.0
H1800 H 0.25297 0.66695 0.14077 0.0
H1801 H 0.312 0.67123 0.12652 0.0
H1802 H 0.24212 0.62688 0.10287 0.0
H1803 H 0.24885 0.61742 0.1336 0.0
H1804 H 0.23528 0.63908 0.13182 0.0
H1805 H 0.32934 0.64552 0.11084 0.0
H1806 H 0.32046 0.62224 0.11685 0.0
H1807 H 0.31502 0.63234 0.08618 0.0
H1808 H 0.2871 0.56746 0.11901 0.0
H1809 H 0.27251 0.5905 0.04507 0.0
H1810 H 0.27831 0.60766 0.15696 0.0
H1811 H 0.30289 0.60957 0.15134 0.0
H1812 H 0.29291 0.58665 0.15679 0.0
H1813 H 0.26014 0.63581 0.06615 0.0
H1814 H 0.26928 0.62316 0.03897 0.0
H1815 H 0.28479 0.63761 0.06078 0.0
C1816 C 0.39069 0.76955 0.85649 0.0
C1817 C 0.37906 0.75468 0.86311 0.0
C1818 C 0.40784 0.77381 0.8711 0.0
C1819 C 0.4136 0.7626 0.89233 0.0
C1820 C 0.40201 0.74734 0.8987 0.0
C1821 C 0.38477 0.74371 0.88418 0.0
C1822 C 0.41963 0.79043 0.86409 0.0
C1823 C 0.40782 0.7348 0.92085 0.0
C1824 C 0.46517 0.76001 0.91848 0.0
C1825 C 0.46464 0.77021 0.94202 0.0
C1826 C 0.44878 0.75795 0.90159 0.0
C1827 C 0.43166 0.76674 0.90818 0.0
C1828 C 0.43145 0.77809 0.93122 0.0
C1829 C 0.44793 0.77952 0.94803 0.0
C1830 C 0.44953 0.74547 0.87746 0.0
C1831 C 0.41361 0.78804 0.93867 0.0
H1832 H 0.38617 0.77806 0.84023 0.0
H1833 H 0.37581 0.73209 0.88908 0.0
H1834 H 0.42136 0.80079 0.88068 0.0
H1835 H 0.43406 0.78558 0.85981 0.0
H1836 H 0.41313 0.79777 0.84709 0.0
H1837 H 0.39755 0.72306 0.92259 0.0
H1838 H 0.42203 0.72859 0.91824 0.0
H1839 H 0.40893 0.74334 0.93924 0.0
H1840 H 0.47821 0.75294 0.9139 0.0
H1841 H 0.44763 0.78746 0.96626 0.0
H1842 H 0.44362 0.75303 0.86036 0.0
H1843 H 0.44064 0.73266 0.87909 0.0
H1844 H 0.46424 0.74086 0.87414 0.0
H1845 H 0.41639 0.79809 0.95548 0.0
H1846 H 0.40305 0.77739 0.94367 0.0
H1847 H 0.40711 0.79594 0.92221 0.0
C1848 C 0.257 0.37865 0.92147 0.0
C1849 C 0.27449 0.36921 0.9213 0.0
C1850 C 0.25613 0.398 0.92864 0.0
C1851 C 0.27315 0.40807 0.93595 0.0
C1852 C 0.29086 0.39869 0.93545 0.0
C1853 C 0.29131 0.37938 0.92809 0.0
C1854 C 0.237 0.40758 0.9289 0.0
C1855 C 0.3093 0.40893 0.94329 0.0
C1856 C 0.27375 0.46194 0.93649 0.0
C1857 C 0.27275 0.4664 0.96275 0.0
C1858 C 0.27362 0.44295 0.92737 0.0
C1859 C 0.27246 0.42826 0.94505 0.0
C1860 C 0.27118 0.43284 0.97162 0.0
C1861 C 0.27137 0.45193 0.98016 0.0
C1862 C 0.27493 0.4386 0.89892 0.0
C1863 C 0.26999 0.41762 0.9911 0.0
H1864 H 0.24398 0.37087 0.91601 0.0
H1865 H 0.30485 0.37209 0.92837 0.0
H1866 H 0.23453 0.41258 0.94885 0.0
H1867 H 0.2367 0.42024 0.91684 0.0
H1868 H 0.22517 0.39795 0.92167 0.0
H1869 H 0.32191 0.39978 0.94084 0.0
H1870 H 0.31055 0.42168 0.93166 0.0
H1871 H 0.30948 0.41387 0.96381 0.0
H1872 H 0.27475 0.47331 0.9232 0.0
H1873 H 0.2706 0.4556 0.0005 0.0
H1874 H 0.26269 0.42969 0.89123 0.0
H1875 H 0.28803 0.43037 0.89587 0.0
H1876 H 0.27516 0.45167 0.88766 0.0
H1877 H 0.25888 0.40705 0.9845 0.0
H1878 H 0.26676 0.42356 0.01036 0.0
H1879 H 0.28374 0.40998 0.99316 0.0
C1880 C 0.64693 0.30895 0.86041 0.0
C1881 C 0.66215 0.29615 0.85935 0.0
C1882 C 0.63157 0.30548 0.87525 0.0
C1883 C 0.63152 0.28896 0.88986 0.0
C1884 C 0.64664 0.27583 0.88867 0.0
C1885 C 0.66169 0.2795 0.8733 0.0
C1886 C 0.61564 0.31976 0.87581 0.0
C1887 C 0.64718 0.25813 0.90416 0.0
C1888 C 0.60317 0.29157 0.94916 0.0
C1889 C 0.58665 0.28133 0.94074 0.0
C1890 C 0.61797 0.29385 0.93295 0.0
C1891 C 0.61614 0.286 0.90745 0.0
C1892 C 0.59949 0.27576 0.89868 0.0
C1893 C 0.58501 0.27345 0.91547 0.0
C1894 C 0.63553 0.30479 0.9431 0.0
C1895 C 0.59693 0.26738 0.87151 0.0
H1896 H 0.64722 0.32204 0.85019 0.0
H1897 H 0.67317 0.26935 0.87235 0.0
H1898 H 0.60173 0.31259 0.87132 0.0
H1899 H 0.61545 0.32644 0.89544 0.0
H1900 H 0.61708 0.33113 0.86186 0.0
H1901 H 0.65959 0.24901 0.90043 0.0
H1902 H 0.64783 0.26211 0.92505 0.0
H1903 H 0.63399 0.24972 0.8996 0.0
H1904 H 0.60448 0.29808 0.96841 0.0
H1905 H 0.57246 0.2653 0.90882 0.0
H1906 H 0.63709 0.31758 0.93166 0.0
H1907 H 0.64837 0.29595 0.941 0.0
H1908 H 0.63506 0.30934 0.96372 0.0
H1909 H 0.5977 0.27878 0.85748 0.0
H1910 H 0.58314 0.25984 0.86764 0.0
H1911 H 0.60859 0.25727 0.86801 0.0
C1912 C 0.76238 0.65031 0.87573 0.0
C1913 C 0.74692 0.64761 0.85738 0.0
C1914 C 0.76736 0.63642 0.89364 0.0
C1915 C 0.75662 0.61946 0.89313 0.0
C1916 C 0.74154 0.61629 0.87395 0.0
C1917 C 0.73685 0.63042 0.85635 0.0
C1918 C 0.7836 0.64024 0.91375 0.0
C1919 C 0.72976 0.59837 0.87278 0.0
C1920 C 0.7741 0.57649 0.92985 0.0
C1921 C 0.76348 0.57796 0.95157 0.0
C1922 C 0.77246 0.5902 0.91092 0.0
C1923 C 0.75998 0.60571 0.91392 0.0
C1924 C 0.74975 0.60759 0.93628 0.0
C1925 C 0.75162 0.59368 0.95481 0.0
C1926 C 0.78357 0.58775 0.88732 0.0
C1927 C 0.73639 0.62401 0.94029 0.0
H1928 H 0.77039 0.66346 0.87638 0.0
H1929 H 0.72474 0.62831 0.84246 0.0
H1930 H 0.77799 0.6419 0.93307 0.0
H1931 H 0.79356 0.62807 0.91436 0.0
H1932 H 0.79162 0.65329 0.91005 0.0
H1933 H 0.7196 0.5974 0.8554 0.0
H1934 H 0.73908 0.5857 0.87275 0.0
H1935 H 0.72157 0.59792 0.89016 0.0
H1936 H 0.7832 0.56429 0.92723 0.0
H1937 H 0.74366 0.59502 0.97183 0.0
H1938 H 0.79151 0.60093 0.88418 0.0
H1939 H 0.77363 0.58504 0.87002 0.0
H1940 H 0.79379 0.57578 0.88887 0.0
H1941 H 0.74396 0.63766 0.93883 0.0
H1942 H 0.73024 0.62388 0.95933 0.0
H1943 H 0.72458 0.62346 0.92495 0.0
loop_
_geom_bond_atom_site_label_1
_geom_bond_atom_site_label_2
_geom_bond_distance
_geom_bond_site_symmetry_2
_ccdc_geom_bond_type
H0 C27 0.929 . S
N1 C26 1.433 . S
N1 C32 1.435 . S
N1 C38 1.423 . S
H2 C28 0.930 . S
H3 C31 0.931 . S
H4 C30 0.929 . S
H5 C33 0.930 . S
H6 C34 0.932 . S
H7 C37 0.929 . S
H8 C36 0.931 . S
H9 C39 0.929 . S
H10 C43 0.932 . S
H11 C40 0.931 . S
H12 C42 0.929 . S
H13 C45 0.929 . S
H14 C46 0.930 . S
H15 C48 0.929 . S
H16 C49 0.931 . S
H17 C51 0.930 . S
H18 C52 0.932 . S
H19 C54 0.931 . S
H20 C55 0.929 . S
H21 C57 0.929 . S
H22 C58 0.931 . S
H23 C60 0.929 . S
N24 C44 1.433 . S
N24 C50 1.435 . S
N24 C56 1.423 . S
H25 C61 0.932 . S
C26 N1 1.433 . S
C26 C27 1.363 . S
C26 C31 1.370 . S
C27 H0 0.929 . S
C27 C26 1.363 . S
C27 C28 1.385 . S
C28 H2 0.930 . S
C28 C27 1.385 . S
C28 C29 1.357 . S
C29 C28 1.357 . S
C29 C30 1.406 . S
C30 H4 0.929 . S
C30 C29 1.406 . S
C30 C31 1.391 . S
C31 H3 0.931 . S
C31 C26 1.370 . S
C31 C30 1.391 . S
C32 N1 1.435 . S
C32 C33 1.358 . S
C32 C37 1.371 . S
C33 H5 0.930 . S
C33 C32 1.358 . S
C33 C34 1.405 . S
C34 H6 0.932 . S
C34 C33 1.405 . S
C34 C35 1.383 . S
C35 C34 1.383 . S
C35 C36 1.393 . S
C36 H8 0.931 . S
C36 C35 1.393 . S
C36 C37 1.382 . S
C37 H7 0.929 . S
C37 C32 1.371 . S
C37 C36 1.382 . S
C38 N1 1.423 . S
C38 C39 1.362 . S
C38 C43 1.388 . S
C39 H9 0.929 . S
C39 C38 1.362 . S
C39 C40 1.376 . S
C40 H11 0.931 . S
C40 C39 1.376 . S
C40 C41 1.396 . S
C41 C40 1.396 . S
C41 C42 1.348 . S
C41 C59 1.472 . S
C42 H12 0.929 . S
C42 C41 1.348 . S
C42 C43 1.443 . S
C43 H10 0.932 . S
C43 C38 1.388 . S
C43 C42 1.443 . S
C44 N24 1.433 . S
C44 C45 1.363 . S
C44 C49 1.370 . S
C45 H13 0.929 . S
C45 C44 1.363 . S
C45 C46 1.385 . S
C46 H14 0.930 . S
C46 C45 1.385 . S
C46 C47 1.357 . S
C47 C46 1.357 . S
C47 C48 1.406 . S
C48 H15 0.929 . S
C48 C47 1.406 . S
C48 C49 1.391 . S
C49 H16 0.931 . S
C49 C44 1.370 . S
C49 C48 1.391 . S
C50 N24 1.435 . S
C50 C51 1.358 . S
C50 C55 1.371 . S
C51 H17 0.930 . S
C51 C50 1.358 . S
C51 C52 1.405 . S
C52 H18 0.932 . S
C52 C51 1.405 . S
C52 C53 1.383 . S
C53 C52 1.383 . S
C53 C54 1.393 . S
C54 H19 0.931 . S
C54 C53 1.393 . S
C54 C55 1.382 . S
C55 H20 0.929 . S
C55 C50 1.371 . S
C55 C54 1.382 . S
C56 N24 1.423 . S
C56 C57 1.362 . S
C56 C61 1.388 . S
C57 H21 0.929 . S
C57 C56 1.362 . S
C57 C58 1.376 . S
C58 H22 0.931 . S
C58 C57 1.376 . S
C58 C59 1.396 . S
C59 C41 1.472 . S
C59 C58 1.396 . S
C59 C60 1.348 . S
C60 H23 0.929 . S
C60 C59 1.348 . S
C60 C61 1.443 . S
C61 H25 0.932 . S
C61 C56 1.388 . S
C61 C60 1.443 . S
H62 C89 0.929 . S
N63 C88 1.433 . S
N63 C94 1.435 . S
N63 C100 1.423 . S
H64 C90 0.930 . S
H65 C93 0.931 . S
H66 C92 0.929 . S
H67 C95 0.930 . S
H68 C96 0.932 . S
H69 C99 0.929 . S
H70 C98 0.931 . S
H71 C101 0.929 . S
H72 C105 0.932 . S
H73 C102 0.931 . S
H74 C104 0.929 . S
H75 C107 0.929 . S
H76 C108 0.930 . S
H77 C110 0.929 . S
H78 C111 0.931 . S
H79 C113 0.930 . S
H80 C114 0.932 . S
H81 C116 0.931 . S
H82 C117 0.929 . S
H83 C119 0.929 . S
H84 C120 0.931 . S
H85 C122 0.929 . S
N86 C106 1.433 . S
N86 C112 1.435 . S
N86 C118 1.423 . S
H87 C123 0.932 . S
C88 N63 1.433 . S
C88 C89 1.363 . S
C88 C93 1.370 . S
C89 H62 0.929 . S
C89 C88 1.363 . S
C89 C90 1.385 . S
C90 H64 0.930 . S
C90 C89 1.385 . S
C90 C91 1.357 . S
C91 C90 1.357 . S
C91 C92 1.406 . S
C92 H66 0.929 . S
C92 C91 1.406 . S
C92 C93 1.391 . S
C93 H65 0.931 . S
C93 C88 1.370 . S
C93 C92 1.391 . S
C94 N63 1.435 . S
C94 C95 1.358 . S
C94 C99 1.371 . S
C95 H67 0.930 . S
C95 C94 1.358 . S
C95 C96 1.405 . S
C96 H68 0.932 . S
C96 C95 1.405 . S
C96 C97 1.383 . S
C97 C96 1.383 . S
C97 C98 1.393 . S
C98 H70 0.931 . S
C98 C97 1.393 . S
C98 C99 1.382 . S
C99 H69 0.929 . S
C99 C94 1.371 . S
C99 C98 1.382 . S
C100 N63 1.423 . S
C100 C101 1.362 . S
C100 C105 1.388 . S
C101 H71 0.929 . S
C101 C100 1.362 . S
C101 C102 1.376 . S
C102 H73 0.931 . S
C102 C101 1.376 . S
C102 C103 1.396 . S
C103 C102 1.396 . S
C103 C104 1.348 . S
C103 C121 1.472 . S
C104 H74 0.929 . S
C104 C103 1.348 . S
C104 C105 1.443 . S
C105 H72 0.932 . S
C105 C100 1.388 . S
C105 C104 1.443 . S
C106 N86 1.433 . S
C106 C107 1.363 . S
C106 C111 1.370 . S
C107 H75 0.929 . S
C107 C106 1.363 . S
C107 C108 1.385 . S
C108 H76 0.930 . S
C108 C107 1.385 . S
C108 C109 1.357 . S
C109 C108 1.357 . S
C109 C110 1.406 . S
C110 H77 0.929 . S
C110 C109 1.406 . S
C110 C111 1.391 . S
C111 H78 0.931 . S
C111 C106 1.370 . S
C111 C110 1.391 . S
C112 N86 1.435 . S
C112 C113 1.358 . S
C112 C117 1.371 . S
C113 H79 0.930 . S
C113 C112 1.358 . S
C113 C114 1.405 . S
C114 H80 0.932 . S
C114 C113 1.405 . S
C114 C115 1.383 . S
C115 C114 1.383 . S
C115 C116 1.393 . S
C116 H81 0.931 . S
C116 C115 1.393 . S
C116 C117 1.382 . S
C117 H82 0.929 . S
C117 C112 1.371 . S
C117 C116 1.382 . S
C118 N86 1.423 . S
C118 C119 1.362 . S
C118 C123 1.388 . S
C119 H83 0.929 . S
C119 C118 1.362 . S
C119 C120 1.376 . S
C120 H84 0.931 . S
C120 C119 1.376 . S
C120 C121 1.396 . S
C121 C103 1.472 . S
C121 C120 1.396 . S
C121 C122 1.348 . S
C122 H85 0.929 . S
C122 C121 1.348 . S
C122 C123 1.443 . S
C123 H87 0.932 . S
C123 C118 1.388 . S
C123 C122 1.443 . S
H124 C151 0.929 . S
N125 C150 1.433 . S
N125 C156 1.435 . S
N125 C162 1.423 . S
H126 C152 0.930 . S
H127 C155 0.931 . S
H128 C154 0.929 . S
H129 C157 0.930 . S
H130 C158 0.932 . S
H131 C161 0.929 . S
H132 C160 0.931 . S
H133 C163 0.929 . S
H134 C167 0.932 . S
H135 C164 0.931 . S
H136 C166 0.929 . S
H137 C169 0.929 . S
H138 C170 0.930 . S
H139 C172 0.929 . S
H140 C173 0.931 . S
H141 C175 0.930 . S
H142 C176 0.932 . S
H143 C178 0.931 . S
H144 C179 0.929 . S
H145 C181 0.929 . S
H146 C182 0.931 . S
H147 C184 0.929 . S
N148 C168 1.433 . S
N148 C174 1.435 . S
N148 C180 1.423 . S
H149 C185 0.932 . S
C150 N125 1.433 . S
C150 C151 1.363 . S
C150 C155 1.370 . S
C151 H124 0.929 . S
C151 C150 1.363 . S
C151 C152 1.385 . S
C152 H126 0.930 . S
C152 C151 1.385 . S
C152 C153 1.357 . S
C153 C152 1.357 . S
C153 C154 1.406 . S
C154 H128 0.929 . S
C154 C153 1.406 . S
C154 C155 1.391 . S
C155 H127 0.931 . S
C155 C150 1.370 . S
C155 C154 1.391 . S
C156 N125 1.435 . S
C156 C157 1.358 . S
C156 C161 1.371 . S
C157 H129 0.930 . S
C157 C156 1.358 . S
C157 C158 1.405 . S
C158 H130 0.932 . S
C158 C157 1.405 . S
C158 C159 1.383 . S
C159 C158 1.383 . S
C159 C160 1.393 . S
C160 H132 0.931 . S
C160 C159 1.393 . S
C160 C161 1.382 . S
C161 H131 0.929 . S
C161 C156 1.371 . S
C161 C160 1.382 . S
C162 N125 1.423 . S
C162 C163 1.362 . S
C162 C167 1.388 . S
C163 H133 0.929 . S
C163 C162 1.362 . S
C163 C164 1.376 . S
C164 H135 0.931 . S
C164 C163 1.376 . S
C164 C165 1.396 . S
C165 C164 1.396 . S
C165 C166 1.348 . S
C165 C183 1.472 . S
C166 H136 0.929 . S
C166 C165 1.348 . S
C166 C167 1.443 . S
C167 H134 0.932 . S
C167 C162 1.388 . S
C167 C166 1.443 . S
C168 N148 1.433 . S
C168 C169 1.363 . S
C168 C173 1.370 . S
C169 H137 0.929 . S
C169 C168 1.363 . S
C169 C170 1.385 . S
C170 H138 0.930 . S
C170 C169 1.385 . S
C170 C171 1.357 . S
C171 C170 1.357 . S
C171 C172 1.406 . S
C172 H139 0.929 . S
C172 C171 1.406 . S
C172 C173 1.391 . S
C173 H140 0.931 . S
C173 C168 1.370 . S
C173 C172 1.391 . S
C174 N148 1.435 . S
C174 C175 1.358 . S
C174 C179 1.371 . S
C175 H141 0.930 . S
C175 C174 1.358 . S
C175 C176 1.405 . S
C176 H142 0.932 . S
C176 C175 1.405 . S
C176 C177 1.383 . S
C177 C176 1.383 . S
C177 C178 1.393 . S
C178 H143 0.931 . S
C178 C177 1.393 . S
C178 C179 1.382 . S
C179 H144 0.929 . S
C179 C174 1.371 . S
C179 C178 1.382 . S
C180 N148 1.423 . S
C180 C181 1.362 . S
C180 C185 1.388 . S
C181 H145 0.929 . S
C181 C180 1.362 . S
C181 C182 1.376 . S
C182 H146 0.931 . S
C182 C181 1.376 . S
C182 C183 1.396 . S
C183 C165 1.472 . S
C183 C182 1.396 . S
C183 C184 1.348 . S
C184 H147 0.929 . S
C184 C183 1.348 . S
C184 C185 1.443 . S
C185 H149 0.932 . S
C185 C180 1.388 . S
C185 C184 1.443 . S
H186 C213 0.929 . S
N187 C212 1.433 . S
N187 C218 1.435 . S
N187 C224 1.423 . S
H188 C214 0.930 . S
H189 C217 0.931 . S
H190 C216 0.929 . S
H191 C219 0.930 . S
H192 C220 0.932 . S
H193 C223 0.929 . S
H194 C222 0.931 . S
H195 C225 0.929 . S
H196 C229 0.932 . S
H197 C226 0.931 . S
H198 C228 0.929 . S
H199 C231 0.929 . S
H200 C232 0.930 . S
H201 C234 0.929 . S
H202 C235 0.931 . S
H203 C237 0.930 . S
H204 C238 0.932 . S
H205 C240 0.931 . S
H206 C241 0.929 . S
H207 C243 0.929 . S
H208 C244 0.931 . S
H209 C246 0.929 . S
N210 C230 1.433 . S
N210 C236 1.435 . S
N210 C242 1.423 . S
H211 C247 0.932 . S
C212 N187 1.433 . S
C212 C213 1.363 . S
C212 C217 1.370 . S
C213 H186 0.929 . S
C213 C212 1.363 . S
C213 C214 1.385 . S
C214 H188 0.930 . S
C214 C213 1.385 . S
C214 C215 1.357 . S
C215 C214 1.357 . S
C215 C216 1.406 . S
C216 H190 0.929 . S
C216 C215 1.406 . S
C216 C217 1.391 . S
C217 H189 0.931 . S
C217 C212 1.370 . S
C217 C216 1.391 . S
C218 N187 1.435 . S
C218 C219 1.358 . S
C218 C223 1.371 . S
C219 H191 0.930 . S
C219 C218 1.358 . S
C219 C220 1.405 . S
C220 H192 0.932 . S
C220 C219 1.405 . S
C220 C221 1.383 . S
C221 C220 1.383 . S
C221 C222 1.393 . S
C222 H194 0.931 . S
C222 C221 1.393 . S
C222 C223 1.382 . S
C223 H193 0.929 . S
C223 C218 1.371 . S
C223 C222 1.382 . S
C224 N187 1.423 . S
C224 C225 1.362 . S
C224 C229 1.388 . S
C225 H195 0.929 . S
C225 C224 1.362 . S
C225 C226 1.376 . S
C226 H197 0.931 . S
C226 C225 1.376 . S
C226 C227 1.396 . S
C227 C226 1.396 . S
C227 C228 1.348 . S
C227 C245 1.472 . S
C228 H198 0.929 . S
C228 C227 1.348 . S
C228 C229 1.443 . S
C229 H196 0.932 . S
C229 C224 1.388 . S
C229 C228 1.443 . S
C230 N210 1.433 . S
C230 C231 1.363 . S
C230 C235 1.370 . S
C231 H199 0.929 . S
C231 C230 1.363 . S
C231 C232 1.385 . S
C232 H200 0.930 . S
C232 C231 1.385 . S
C232 C233 1.357 . S
C233 C232 1.357 . S
C233 C234 1.406 . S
C234 H201 0.929 . S
C234 C233 1.406 . S
C234 C235 1.391 . S
C235 H202 0.931 . S
C235 C230 1.370 . S
C235 C234 1.391 . S
C236 N210 1.435 . S
C236 C237 1.358 . S
C236 C241 1.371 . S
C237 H203 0.930 . S
C237 C236 1.358 . S
C237 C238 1.405 . S
C238 H204 0.932 . S
C238 C237 1.405 . S
C238 C239 1.383 . S
C239 C238 1.383 . S
C239 C240 1.393 . S
C240 H205 0.931 . S
C240 C239 1.393 . S
C240 C241 1.382 . S
C241 H206 0.929 . S
C241 C236 1.371 . S
C241 C240 1.382 . S
C242 N210 1.423 . S
C242 C243 1.362 . S
C242 C247 1.388 . S
C243 H207 0.929 . S
C243 C242 1.362 . S
C243 C244 1.376 . S
C244 H208 0.931 . S
C244 C243 1.376 . S
C244 C245 1.396 . S
C245 C227 1.472 . S
C245 C244 1.396 . S
C245 C246 1.348 . S
C246 H209 0.929 . S
C246 C245 1.348 . S
C246 C247 1.443 . S
C247 H211 0.932 . S
C247 C242 1.388 . S
C247 C246 1.443 . S
H248 C275 0.929 . S
N249 C274 1.433 . S
N249 C280 1.435 . S
N249 C286 1.423 . S
H250 C276 0.930 . S
H251 C279 0.931 . S
H252 C278 0.929 . S
H253 C281 0.930 . S
H254 C282 0.932 . S
H255 C285 0.929 . S
H256 C284 0.931 . S
H257 C287 0.929 . S
H258 C291 0.932 . S
H259 C288 0.931 . S
H260 C290 0.929 . S
H261 C293 0.929 . S
H262 C294 0.930 . S
H263 C296 0.929 . S
H264 C297 0.931 . S
H265 C299 0.930 . S
H266 C300 0.932 . S
H267 C302 0.931 . S
H268 C303 0.929 . S
H269 C305 0.929 . S
H270 C306 0.931 . S
H271 C308 0.929 . S
N272 C292 1.433 . S
N272 C298 1.435 . S
N272 C304 1.423 . S
H273 C309 0.932 . S
C274 N249 1.433 . S
C274 C275 1.363 . S
C274 C279 1.370 . S
C275 H248 0.929 . S
C275 C274 1.363 . S
C275 C276 1.385 . S
C276 H250 0.930 . S
C276 C275 1.385 . S
C276 C277 1.357 . S
C277 C276 1.357 . S
C277 C278 1.406 . S
C278 H252 0.929 . S
C278 C277 1.406 . S
C278 C279 1.391 . S
C279 H251 0.931 . S
C279 C274 1.370 . S
C279 C278 1.391 . S
C280 N249 1.435 . S
C280 C281 1.358 . S
C280 C285 1.371 . S
C281 H253 0.930 . S
C281 C280 1.358 . S
C281 C282 1.405 . S
C282 H254 0.932 . S
C282 C281 1.405 . S
C282 C283 1.383 . S
C283 C282 1.383 . S
C283 C284 1.393 . S
C284 H256 0.931 . S
C284 C283 1.393 . S
C284 C285 1.382 . S
C285 H255 0.929 . S
C285 C280 1.371 . S
C285 C284 1.382 . S
C286 N249 1.423 . S
C286 C287 1.362 . S
C286 C291 1.388 . S
C287 H257 0.929 . S
C287 C286 1.362 . S
C287 C288 1.376 . S
C288 H259 0.931 . S
C288 C287 1.376 . S
C288 C289 1.396 . S
C289 C288 1.396 . S
C289 C290 1.348 . S
C289 C307 1.472 . S
C290 H260 0.929 . S
C290 C289 1.348 . S
C290 C291 1.443 . S
C291 H258 0.932 . S
C291 C286 1.388 . S
C291 C290 1.443 . S
C292 N272 1.433 . S
C292 C293 1.363 . S
C292 C297 1.370 . S
C293 H261 0.929 . S
C293 C292 1.363 . S
C293 C294 1.385 . S
C294 H262 0.930 . S
C294 C293 1.385 . S
C294 C295 1.357 . S
C295 C294 1.357 . S
C295 C296 1.406 . S
C296 H263 0.929 . S
C296 C295 1.406 . S
C296 C297 1.391 . S
C297 H264 0.931 . S
C297 C292 1.370 . S
C297 C296 1.391 . S
C298 N272 1.435 . S
C298 C299 1.358 . S
C298 C303 1.371 . S
C299 H265 0.930 . S
C299 C298 1.358 . S
C299 C300 1.405 . S
C300 H266 0.932 . S
C300 C299 1.405 . S
C300 C301 1.383 . S
C301 C300 1.383 . S
C301 C302 1.393 . S
C302 H267 0.931 . S
C302 C301 1.393 . S
C302 C303 1.382 . S
C303 H268 0.929 . S
C303 C298 1.371 . S
C303 C302 1.382 . S
C304 N272 1.423 . S
C304 C305 1.362 . S
C304 C309 1.388 . S
C305 H269 0.929 . S
C305 C304 1.362 . S
C305 C306 1.376 . S
C306 H270 0.931 . S
C306 C305 1.376 . S
C306 C307 1.396 . S
C307 C289 1.472 . S
C307 C306 1.396 . S
C307 C308 1.348 . S
C308 H271 0.929 . S
C308 C307 1.348 . S
C308 C309 1.443 . S
C309 H273 0.932 . S
C309 C304 1.388 . S
C309 C308 1.443 . S
H310 C337 0.929 . S
N311 C336 1.433 . S
N311 C342 1.435 . S
N311 C348 1.423 . S
H312 C338 0.930 . S
H313 C341 0.931 . S
H314 C340 0.929 . S
H315 C343 0.930 . S
H316 C344 0.932 . S
H317 C347 0.929 . S
H318 C346 0.931 . S
H319 C349 0.929 . S
H320 C353 0.932 . S
H321 C350 0.931 . S
H322 C352 0.929 . S
H323 C355 0.929 . S
H324 C356 0.930 . S
H325 C358 0.929 . S
H326 C359 0.931 . S
H327 C361 0.930 . S
H328 C362 0.932 . S
H329 C364 0.931 . S
H330 C365 0.929 . S
H331 C367 0.929 . S
H332 C368 0.931 . S
H333 C370 0.929 . S
N334 C354 1.433 . S
N334 C360 1.435 . S
N334 C366 1.423 . S
H335 C371 0.932 . S
C336 N311 1.433 . S
C336 C337 1.363 . S
C336 C341 1.370 . S
C337 H310 0.929 . S
C337 C336 1.363 . S
C337 C338 1.385 . S
C338 H312 0.930 . S
C338 C337 1.385 . S
C338 C339 1.357 . S
C339 C338 1.357 . S
C339 C340 1.406 . S
C340 H314 0.929 . S
C340 C339 1.406 . S
C340 C341 1.391 . S
C341 H313 0.931 . S
C341 C336 1.370 . S
C341 C340 1.391 . S
C342 N311 1.435 . S
C342 C343 1.358 . S
C342 C347 1.371 . S
C343 H315 0.930 . S
C343 C342 1.358 . S
C343 C344 1.405 . S
C344 H316 0.932 . S
C344 C343 1.405 . S
C344 C345 1.383 . S
C345 C344 1.383 . S
C345 C346 1.393 . S
C346 H318 0.931 . S
C346 C345 1.393 . S
C346 C347 1.382 . S
C347 H317 0.929 . S
C347 C342 1.371 . S
C347 C346 1.382 . S
C348 N311 1.423 . S
C348 C349 1.362 . S
C348 C353 1.388 . S
C349 H319 0.929 . S
C349 C348 1.362 . S
C349 C350 1.376 . S
C350 H321 0.931 . S
C350 C349 1.376 . S
C350 C351 1.396 . S
C351 C350 1.396 . S
C351 C352 1.348 . S
C351 C369 1.472 . S
C352 H322 0.929 . S
C352 C351 1.348 . S
C352 C353 1.443 . S
C353 H320 0.932 . S
C353 C348 1.388 . S
C353 C352 1.443 . S
C354 N334 1.433 . S
C354 C355 1.363 . S
C354 C359 1.370 . S
C355 H323 0.929 . S
C355 C354 1.363 . S
C355 C356 1.385 . S
C356 H324 0.930 . S
C356 C355 1.385 . S
C356 C357 1.357 . S
C357 C356 1.357 . S
C357 C358 1.406 . S
C358 H325 0.929 . S
C358 C357 1.406 . S
C358 C359 1.391 . S
C359 H326 0.931 . S
C359 C354 1.370 . S
C359 C358 1.391 . S
C360 N334 1.435 . S
C360 C361 1.358 . S
C360 C365 1.371 . S
C361 H327 0.930 . S
C361 C360 1.358 . S
C361 C362 1.405 . S
C362 H328 0.932 . S
C362 C361 1.405 . S
C362 C363 1.383 . S
C363 C362 1.383 . S
C363 C364 1.393 . S
C364 H329 0.931 . S
C364 C363 1.393 . S
C364 C365 1.382 . S
C365 H330 0.929 . S
C365 C360 1.371 . S
C365 C364 1.382 . S
C366 N334 1.423 . S
C366 C367 1.362 . S
C366 C371 1.388 . S
C367 H331 0.929 . S
C367 C366 1.362 . S
C367 C368 1.376 . S
C368 H332 0.931 . S
C368 C367 1.376 . S
C368 C369 1.396 . S
C369 C351 1.472 . S
C369 C368 1.396 . S
C369 C370 1.348 . S
C370 H333 0.929 . S
C370 C369 1.348 . S
C370 C371 1.443 . S
C371 H335 0.932 . S
C371 C366 1.388 . S
C371 C370 1.443 . S
H372 C399 0.929 . S
N373 C398 1.433 . S
N373 C404 1.435 . S
N373 C410 1.423 . S
H374 C400 0.930 . S
H375 C403 0.931 . S
H376 C402 0.929 . S
H377 C405 0.930 . S
H378 C406 0.932 . S
H379 C409 0.929 . S
H380 C408 0.931 . S
H381 C411 0.929 . S
H382 C415 0.932 . S
H383 C412 0.931 . S
H384 C414 0.929 . S
H385 C417 0.929 . S
H386 C418 0.930 . S
H387 C420 0.929 . S
H388 C421 0.931 . S
H389 C423 0.930 . S
H390 C424 0.932 . S
H391 C426 0.931 . S
H392 C427 0.929 . S
H393 C429 0.929 . S
H394 C430 0.931 . S
H395 C432 0.929 . S
N396 C416 1.433 . S
N396 C422 1.435 . S
N396 C428 1.423 . S
H397 C433 0.932 . S
C398 N373 1.433 . S
C398 C399 1.363 . S
C398 C403 1.370 . S
C399 H372 0.929 . S
C399 C398 1.363 . S
C399 C400 1.385 . S
C400 H374 0.930 . S
C400 C399 1.385 . S
C400 C401 1.357 . S
C401 C400 1.357 . S
C401 C402 1.406 . S
C402 H376 0.929 . S
C402 C401 1.406 . S
C402 C403 1.391 . S
C403 H375 0.931 . S
C403 C398 1.370 . S
C403 C402 1.391 . S
C404 N373 1.435 . S
C404 C405 1.358 . S
C404 C409 1.371 . S
C405 H377 0.930 . S
C405 C404 1.358 . S
C405 C406 1.405 . S
C406 H378 0.932 . S
C406 C405 1.405 . S
C406 C407 1.383 . S
C407 C406 1.383 . S
C407 C408 1.393 . S
C408 H380 0.931 . S
C408 C407 1.393 . S
C408 C409 1.382 . S
C409 H379 0.929 . S
C409 C404 1.371 . S
C409 C408 1.382 . S
C410 N373 1.423 . S
C410 C411 1.362 . S
C410 C415 1.388 . S
C411 H381 0.929 . S
C411 C410 1.362 . S
C411 C412 1.376 . S
C412 H383 0.931 . S
C412 C411 1.376 . S
C412 C413 1.396 . S
C413 C412 1.396 . S
C413 C414 1.348 . S
C413 C431 1.472 . S
C414 H384 0.929 . S
C414 C413 1.348 . S
C414 C415 1.443 . S
C415 H382 0.932 . S
C415 C410 1.388 . S
C415 C414 1.443 . S
C416 N396 1.433 . S
C416 C417 1.363 . S
C416 C421 1.370 . S
C417 H385 0.929 . S
C417 C416 1.363 . S
C417 C418 1.385 . S
C418 H386 0.930 . S
C418 C417 1.385 . S
C418 C419 1.357 . S
C419 C418 1.357 . S
C419 C420 1.406 . S
C420 H387 0.929 . S
C420 C419 1.406 . S
C420 C421 1.391 . S
C421 H388 0.931 . S
C421 C416 1.370 . S
C421 C420 1.391 . S
C422 N396 1.435 . S
C422 C423 1.358 . S
C422 C427 1.371 . S
C423 H389 0.930 . S
C423 C422 1.358 . S
C423 C424 1.405 . S
C424 H390 0.932 . S
C424 C423 1.405 . S
C424 C425 1.383 . S
C425 C424 1.383 . S
C425 C426 1.393 . S
C426 H391 0.931 . S
C426 C425 1.393 . S
C426 C427 1.382 . S
C427 H392 0.929 . S
C427 C422 1.371 . S
C427 C426 1.382 . S
C428 N396 1.423 . S
C428 C429 1.362 . S
C428 C433 1.388 . S
C429 H393 0.929 . S
C429 C428 1.362 . S
C429 C430 1.376 . S
C430 H394 0.931 . S
C430 C429 1.376 . S
C430 C431 1.396 . S
C431 C413 1.472 . S
C431 C430 1.396 . S
C431 C432 1.348 . S
C432 H395 0.929 . S
C432 C431 1.348 . S
C432 C433 1.443 . S
C433 H397 0.932 . S
C433 C428 1.388 . S
C433 C432 1.443 . S
H434 C461 0.929 . S
N435 C460 1.433 . S
N435 C466 1.435 . S
N435 C472 1.423 . S
H436 C462 0.930 . S
H437 C465 0.931 . S
H438 C464 0.929 . S
H439 C467 0.930 . S
H440 C468 0.932 . S
H441 C471 0.929 . S
H442 C470 0.931 . S
H443 C473 0.929 . S
H444 C477 0.932 . S
H445 C474 0.931 . S
H446 C476 0.929 . S
H447 C479 0.929 . S
H448 C480 0.930 . S
H449 C482 0.929 . S
H450 C483 0.931 . S
H451 C485 0.930 . S
H452 C486 0.932 . S
H453 C488 0.931 . S
H454 C489 0.929 . S
H455 C491 0.929 . S
H456 C492 0.931 . S
H457 C494 0.929 . S
N458 C478 1.433 . S
N458 C484 1.435 . S
N458 C490 1.423 . S
H459 C495 0.932 . S
C460 N435 1.433 . S
C460 C461 1.363 . S
C460 C465 1.370 . S
C461 H434 0.929 . S
C461 C460 1.363 . S
C461 C462 1.385 . S
C462 H436 0.930 . S
C462 C461 1.385 . S
C462 C463 1.357 . S
C463 C462 1.357 . S
C463 C464 1.406 . S
C464 H438 0.929 . S
C464 C463 1.406 . S
C464 C465 1.391 . S
C465 H437 0.931 . S
C465 C460 1.370 . S
C465 C464 1.391 . S
C466 N435 1.435 . S
C466 C467 1.358 . S
C466 C471 1.371 . S
C467 H439 0.930 . S
C467 C466 1.358 . S
C467 C468 1.405 . S
C468 H440 0.932 . S
C468 C467 1.405 . S
C468 C469 1.383 . S
C469 C468 1.383 . S
C469 C470 1.393 . S
C470 H442 0.931 . S
C470 C469 1.393 . S
C470 C471 1.382 . S
C471 H441 0.929 . S
C471 C466 1.371 . S
C471 C470 1.382 . S
C472 N435 1.423 . S
C472 C473 1.362 . S
C472 C477 1.388 . S
C473 H443 0.929 . S
C473 C472 1.362 . S
C473 C474 1.376 . S
C474 H445 0.931 . S
C474 C473 1.376 . S
C474 C475 1.396 . S
C475 C474 1.396 . S
C475 C476 1.348 . S
C475 C493 1.472 . S
C476 H446 0.929 . S
C476 C475 1.348 . S
C476 C477 1.443 . S
C477 H444 0.932 . S
C477 C472 1.388 . S
C477 C476 1.443 . S
C478 N458 1.433 . S
C478 C479 1.363 . S
C478 C483 1.370 . S
C479 H447 0.929 . S
C479 C478 1.363 . S
C479 C480 1.385 . S
C480 H448 0.930 . S
C480 C479 1.385 . S
C480 C481 1.357 . S
C481 C480 1.357 . S
C481 C482 1.406 . S
C482 H449 0.929 . S
C482 C481 1.406 . S
C482 C483 1.391 . S
C483 H450 0.931 . S
C483 C478 1.370 . S
C483 C482 1.391 . S
C484 N458 1.435 . S
C484 C485 1.358 . S
C484 C489 1.371 . S
C485 H451 0.930 . S
C485 C484 1.358 . S
C485 C486 1.405 . S
C486 H452 0.932 . S
C486 C485 1.405 . S
C486 C487 1.383 . S
C487 C486 1.383 . S
C487 C488 1.393 . S
C488 H453 0.931 . S
C488 C487 1.393 . S
C488 C489 1.382 . S
C489 H454 0.929 . S
C489 C484 1.371 . S
C489 C488 1.382 . S
C490 N458 1.423 . S
C490 C491 1.362 . S
C490 C495 1.388 . S
C491 H455 0.929 . S
C491 C490 1.362 . S
C491 C492 1.376 . S
C492 H456 0.931 . S
C492 C491 1.376 . S
C492 C493 1.396 . S
C493 C475 1.472 . S
C493 C492 1.396 . S
C493 C494 1.348 . S
C494 H457 0.929 . S
C494 C493 1.348 . S
C494 C495 1.443 . S
C495 H459 0.932 . S
C495 C490 1.388 . S
C495 C494 1.443 . S
C496 C497 1.443 . S
C496 N500 1.376 . S
C496 C534 1.389 . S
C497 C496 1.443 . S
C497 C498 1.340 . S
C497 H537 0.951 . S
C498 C497 1.340 . S
C498 C499 1.439 . S
C498 H538 0.950 . S
C499 C498 1.439 . S
C499 N500 1.374 . S
C499 C533 1.395 . S
N500 C496 1.376 . S
N500 C499 1.374 . S
N500 Co501 2.008 . S
Co501 N500 2.008 . S
Co501 N502 1.995 1_455 S
Co501 N507 2.008 1_455 S
Co501 N512 1.995 . S
Co501 N517 2.282 1_455 S
Co501 N523 2.282 . S
N502 Co501 1.995 1_655 S
N502 C503 1.376 1_655 S
N502 C506 1.383 . S
C503 N502 1.376 1_455 S
C503 C504 1.446 1_455 S
C503 C533 1.391 . S
C504 C503 1.446 1_655 S
C504 C505 1.339 . S
C504 H539 0.949 . S
C505 C504 1.339 . S
C505 C506 1.439 . S
C505 H540 0.950 . S
C506 N502 1.383 . S
C506 C505 1.439 . S
C506 C535 1.392 . S
N507 Co501 2.008 1_655 S
N507 C508 1.376 . S
N507 C511 1.374 . S
C508 N507 1.376 . S
C508 C509 1.443 . S
C508 C535 1.389 . S
C509 C508 1.443 . S
C509 C510 1.340 . S
C509 H541 0.951 . S
C510 C509 1.340 . S
C510 C511 1.439 . S
C510 H542 0.950 . S
C511 N507 1.374 . S
C511 C510 1.439 . S
C511 C536 1.395 1_655 S
N512 Co501 1.995 . S
N512 C513 1.376 . S
N512 C516 1.383 . S
C513 N512 1.376 . S
C513 C514 1.446 . S
C513 C536 1.391 . S
C514 C513 1.446 . S
C514 C515 1.339 . S
C514 H543 0.949 . S
C515 C514 1.339 . S
C515 C516 1.439 . S
C515 H544 0.950 . S
C516 N512 1.383 . S
C516 C515 1.439 . S
C516 C534 1.392 . S
N517 Co501 2.282 1_655 S
N517 C520 1.332 . S
N517 C522 1.332 . S
C518 C519 1.386 . S
C518 C521 1.388 . S
C519 C518 1.386 . S
C519 C520 1.382 . S
C519 H545 0.950 . S
C520 N517 1.332 . S
C520 C519 1.382 . S
C520 H531 0.952 . S
C521 C518 1.388 . S
C521 C522 1.382 . S
C521 H546 0.950 . S
C522 N517 1.332 . S
C522 C521 1.382 . S
C522 H532 0.948 . S
N523 Co501 2.282 . S
N523 C527 1.332 . S
N523 C528 1.332 . S
C524 C525 1.388 . S
C524 C528 1.382 . S
C524 H547 0.950 . S
C525 C524 1.388 . S
C525 C526 1.386 . S
C526 C525 1.386 . S
C526 C527 1.382 . S
C526 H548 0.950 . S
C527 N523 1.332 . S
C527 C526 1.382 . S
C527 H529 0.952 . S
C528 N523 1.332 . S
C528 C524 1.382 . S
C528 H530 0.948 . S
H529 C527 0.952 . S
H530 C528 0.948 . S
H531 C520 0.952 . S
H532 C522 0.948 . S
C533 C499 1.395 . S
C533 C503 1.391 . S
C534 C496 1.389 . S
C534 C516 1.392 . S
C535 C506 1.392 . S
C535 C508 1.389 . S
C536 C511 1.395 1_455 S
C536 C513 1.391 . S
H537 C497 0.951 . S
H538 C498 0.950 . S
H539 C504 0.949 . S
H540 C505 0.950 . S
H541 C509 0.951 . S
H542 C510 0.950 . S
H543 C514 0.949 . S
H544 C515 0.950 . S
H545 C519 0.950 . S
H546 C521 0.950 . S
H547 C524 0.950 . S
H548 C526 0.950 . S
C549 C550 1.443 . S
C549 N553 1.376 . S
C549 C587 1.389 . S
C550 C549 1.443 . S
C550 C551 1.340 . S
C550 H590 0.951 . S
C551 C550 1.340 . S
C551 C552 1.439 . S
C551 H591 0.950 . S
C552 C551 1.439 . S
C552 N553 1.374 . S
C552 C586 1.395 . S
N553 C549 1.376 . S
N553 C552 1.374 . S
N553 Co554 2.008 . S
Co554 N553 2.008 . S
Co554 N555 1.993 . S
Co554 N560 2.008 1_545 S
Co554 N565 1.995 . S
Co554 N570 2.282 1_545 S
Co554 N576 2.282 . S
N555 Co554 1.993 . S
N555 C556 1.376 . S
N555 C559 1.386 1_545 S
C556 N555 1.376 . S
C556 C557 1.446 1_545 S
C556 C586 1.391 . S
C557 C556 1.446 1_565 S
C557 C558 1.339 . S
C557 H592 0.949 . S
C558 C557 1.339 . S
C558 C559 1.439 . S
C558 H593 0.950 . S
C559 N555 1.386 1_565 S
C559 C558 1.439 . S
C559 C588 1.392 . S
N560 Co554 2.008 1_565 S
N560 C561 1.376 . S
N560 C564 1.374 . S
C561 N560 1.376 . S
C561 C562 1.443 . S
C561 C588 1.389 . S
C562 C561 1.443 . S
C562 C563 1.340 . S
C562 H594 0.951 . S
C563 C562 1.340 . S
C563 C564 1.439 . S
C563 H595 0.950 . S
C564 N560 1.374 . S
C564 C563 1.439 . S
C564 C589 1.395 1_565 S
N565 Co554 1.995 . S
N565 C566 1.376 . S
N565 C569 1.383 . S
C566 N565 1.376 . S
C566 C567 1.446 . S
C566 C589 1.391 . S
C567 C566 1.446 . S
C567 C568 1.339 . S
C567 H596 0.949 . S
C568 C567 1.339 . S
C568 C569 1.439 . S
C568 H597 0.950 . S
C569 N565 1.383 . S
C569 C568 1.439 . S
C569 C587 1.392 . S
N570 Co554 2.282 1_565 S
N570 C573 1.332 . S
N570 C575 1.332 . S
C571 C572 1.386 . S
C571 C574 1.388 . S
C572 C571 1.386 . S
C572 C573 1.382 . S
C572 H598 0.950 . S
C573 N570 1.332 . S
C573 C572 1.382 . S
C573 H584 0.952 . S
C574 C571 1.388 . S
C574 C575 1.382 . S
C574 H599 0.950 . S
C575 N570 1.332 . S
C575 C574 1.382 . S
C575 H585 0.948 . S
N576 Co554 2.282 . S
N576 C580 1.332 . S
N576 C581 1.332 . S
C577 C578 1.388 . S
C577 C581 1.382 . S
C577 H600 0.950 . S
C578 C577 1.388 . S
C578 C579 1.386 . S
C579 C578 1.386 . S
C579 C580 1.382 . S
C579 H601 0.950 . S
C580 N576 1.332 . S
C580 C579 1.382 . S
C580 H582 0.952 . S
C581 N576 1.332 . S
C581 C577 1.382 . S
C581 H583 0.948 . S
H582 C580 0.952 . S
H583 C581 0.948 . S
H584 C573 0.952 . S
H585 C575 0.948 . S
C586 C552 1.395 . S
C586 C556 1.391 . S
C587 C549 1.389 . S
C587 C569 1.392 . S
C588 C559 1.392 . S
C588 C561 1.389 . S
C589 C564 1.395 1_545 S
C589 C566 1.391 . S
H590 C550 0.951 . S
H591 C551 0.950 . S
H592 C557 0.949 . S
H593 C558 0.950 . S
H594 C562 0.951 . S
H595 C563 0.950 . S
H596 C567 0.949 . S
H597 C568 0.950 . S
H598 C572 0.950 . S
H599 C574 0.950 . S
H600 C577 0.950 . S
H601 C579 0.950 . S
C602 C603 1.443 . S
C602 N606 1.376 . S
C602 C640 1.389 . S
C603 C602 1.443 . S
C603 C604 1.340 . S
C603 H643 0.951 . S
C604 C603 1.340 . S
C604 C605 1.439 . S
C604 H644 0.950 . S
C605 C604 1.439 . S
C605 N606 1.374 . S
C605 C639 1.395 . S
N606 C602 1.376 . S
N606 C605 1.374 . S
N606 Co607 2.008 . S
Co607 N606 2.008 . S
Co607 N608 1.995 1_455 S
Co607 N613 2.008 1_455 S
Co607 N618 1.995 . S
Co607 N623 2.282 1_455 S
Co607 N629 2.282 . S
N608 Co607 1.995 1_655 S
N608 C609 1.381 . S
N608 C612 1.383 . S
C609 N608 1.381 . S
C609 C610 1.469 . S
C609 C639 1.369 1_655 S
C610 C609 1.469 . S
C610 C611 1.339 . S
C610 H645 0.949 . S
C611 C610 1.339 . S
C611 C612 1.439 . S
C611 H646 0.950 . S
C612 N608 1.383 . S
C612 C611 1.439 . S
C612 C641 1.392 . S
N613 Co607 2.008 1_655 S
N613 C614 1.376 . S
N613 C617 1.374 . S
C614 N613 1.376 . S
C614 C615 1.443 . S
C614 C641 1.389 . S
C615 C614 1.443 . S
C615 C616 1.340 . S
C615 H647 0.951 . S
C616 C615 1.340 . S
C616 C617 1.439 . S
C616 H648 0.950 . S
C617 N613 1.374 . S
C617 C616 1.439 . S
C617 C642 1.395 1_655 S
N618 Co607 1.995 . S
N618 C619 1.376 . S
N618 C622 1.383 . S
C619 N618 1.376 . S
C619 C620 1.446 . S
C619 C642 1.391 . S
C620 C619 1.446 . S
C620 C621 1.339 . S
C620 H649 0.949 . S
C621 C620 1.339 . S
C621 C622 1.439 . S
C621 H650 0.950 . S
C622 N618 1.383 . S
C622 C621 1.439 . S
C622 C640 1.392 . S
N623 Co607 2.282 1_655 S
N623 C626 1.332 . S
N623 C628 1.332 . S
C624 C625 1.386 . S
C624 C627 1.388 . S
C625 C624 1.386 . S
C625 C626 1.382 . S
C625 H651 0.950 . S
C626 N623 1.332 . S
C626 C625 1.382 . S
C626 H637 0.952 . S
C627 C624 1.388 . S
C627 C628 1.382 . S
C627 H652 0.950 . S
C628 N623 1.332 . S
C628 C627 1.382 . S
C628 H638 0.948 . S
N629 Co607 2.282 . S
N629 C633 1.332 . S
N629 C634 1.332 . S
C630 C631 1.388 . S
C630 C634 1.382 . S
C630 H653 0.950 . S
C631 C630 1.388 . S
C631 C632 1.386 . S
C632 C631 1.386 . S
C632 C633 1.382 . S
C632 H654 0.950 . S
C633 N629 1.332 . S
C633 C632 1.382 . S
C633 H635 0.952 . S
C634 N629 1.332 . S
C634 C630 1.382 . S
C634 H636 0.948 . S
H635 C633 0.952 . S
H636 C634 0.948 . S
H637 C626 0.952 . S
H638 C628 0.948 . S
C639 C605 1.395 . S
C639 C609 1.369 1_455 S
C640 C602 1.389 . S
C640 C622 1.392 . S
C641 C612 1.392 . S
C641 C614 1.389 . S
C642 C617 1.395 1_455 S
C642 C619 1.391 . S
H643 C603 0.951 . S
H644 C604 0.950 . S
H645 C610 0.949 . S
H646 C611 0.950 . S
H647 C615 0.951 . S
H648 C616 0.950 . S
H649 C620 0.949 . S
H650 C621 0.950 . S
H651 C625 0.950 . S
H652 C627 0.950 . S
H653 C630 0.950 . S
H654 C632 0.950 . S
C655 C656 1.443 . S
C655 N659 1.376 . S
C655 C693 1.389 . S
C656 C655 1.443 . S
C656 C657 1.340 . S
C656 H696 0.951 . S
C657 C656 1.340 . S
C657 C658 1.461 . S
C657 H697 0.950 . S
C658 C657 1.461 . S
C658 N659 1.375 . S
C658 C692 1.376 1_565 S
N659 C655 1.376 . S
N659 C658 1.375 . S
N659 Co660 2.008 1_565 S
Co660 N659 2.008 1_545 S
Co660 N661 1.995 . S
Co660 N666 2.008 . S
Co660 N671 2.016 . S
Co660 N676 2.282 . S
Co660 N682 2.282 1_545 S
N661 Co660 1.995 . S
N661 C662 1.376 . S
N661 C665 1.383 . S
C662 N661 1.376 . S
C662 C663 1.446 . S
C662 C692 1.391 . S
C663 C662 1.446 . S
C663 C664 1.339 . S
C663 H698 0.949 . S
C664 C663 1.339 . S
C664 C665 1.439 . S
C664 H699 0.950 . S
C665 N661 1.383 . S
C665 C664 1.439 . S
C665 C694 1.392 . S
N666 Co660 2.008 . S
N666 C667 1.376 . S
N666 C670 1.374 . S
C667 N666 1.376 . S
C667 C668 1.443 . S
C667 C694 1.389 . S
C668 C667 1.443 . S
C668 C669 1.340 . S
C668 H700 0.951 . S
C669 C668 1.340 . S
C669 C670 1.439 . S
C669 H701 0.950 . S
C670 N666 1.374 . S
C670 C669 1.439 . S
C670 C695 1.395 . S
N671 Co660 2.016 . S
N671 C672 1.382 . S
N671 C675 1.350 1_545 S
C672 N671 1.382 . S
C672 C673 1.446 1_545 S
C672 C695 1.391 . S
C673 C672 1.446 1_565 S
C673 C674 1.339 . S
C673 H702 0.949 . S
C674 C673 1.339 . S
C674 C675 1.439 . S
C674 H703 0.950 . S
C675 N671 1.350 1_565 S
C675 C674 1.439 . S
C675 C693 1.392 . S
N676 Co660 2.282 . S
N676 C679 1.332 . S
N676 C681 1.332 . S
C677 C678 1.386 . S
C677 C680 1.388 . S
C678 C677 1.386 . S
C678 C679 1.382 . S
C678 H704 0.950 . S
C679 N676 1.332 . S
C679 C678 1.382 . S
C679 H690 0.952 . S
C680 C677 1.388 . S
C680 C681 1.382 . S
C680 H705 0.950 . S
C681 N676 1.332 . S
C681 C680 1.382 . S
C681 H691 0.948 . S
N682 Co660 2.282 1_565 S
N682 C686 1.332 . S
N682 C687 1.332 . S
C683 C684 1.388 . S
C683 C687 1.382 . S
C683 H706 0.950 . S
C684 C683 1.388 . S
C684 C685 1.386 . S
C685 C684 1.386 . S
C685 C686 1.382 . S
C685 H707 0.950 . S
C686 N682 1.332 . S
C686 C685 1.382 . S
C686 H688 0.952 . S
C687 N682 1.332 . S
C687 C683 1.382 . S
C687 H689 0.948 . S
H688 C686 0.952 . S
H689 C687 0.948 . S
H690 C679 0.952 . S
H691 C681 0.948 . S
C692 C658 1.376 1_545 S
C692 C662 1.391 . S
C693 C655 1.389 . S
C693 C675 1.392 . S
C694 C665 1.392 . S
C694 C667 1.389 . S
C695 C670 1.395 . S
C695 C672 1.391 . S
H696 C656 0.951 . S
H697 C657 0.950 . S
H698 C663 0.949 . S
H699 C664 0.950 . S
H700 C668 0.951 . S
H701 C669 0.950 . S
H702 C673 0.949 . S
H703 C674 0.950 . S
H704 C678 0.950 . S
H705 C680 0.950 . S
H706 C683 0.950 . S
H707 C685 0.950 . S
C708 C709 1.443 . S
C708 N712 1.376 . S
C708 C746 1.389 . S
C709 C708 1.443 . S
C709 C710 1.340 . S
C709 H749 0.951 . S
C710 C709 1.340 . S
C710 C711 1.439 . S
C710 H750 0.950 . S
C711 C710 1.439 . S
C711 N712 1.374 . S
C711 C745 1.395 1_554 S
N712 C708 1.376 . S
N712 C711 1.374 . S
N712 Co713 2.015 . S
Co713 N712 2.015 . S
Co713 N714 1.987 1_554 S
Co713 N719 2.002 1_554 S
Co713 N724 2.003 . S
Co713 N729 2.294 . S
Co713 N735 2.271 1_554 S
N714 Co713 1.987 1_556 S
N714 C715 1.376 . S
N714 C718 1.383 . S
C715 N714 1.376 . S
C715 C716 1.446 . S
C715 C745 1.391 . S
C716 C715 1.446 . S
C716 C717 1.339 . S
C716 H751 0.949 . S
C717 C716 1.339 . S
C717 C718 1.439 . S
C717 H752 0.950 . S
C718 N714 1.383 . S
C718 C717 1.439 . S
C718 C747 1.392 . S
N719 Co713 2.002 1_556 S
N719 C720 1.376 . S
N719 C723 1.374 . S
C720 N719 1.376 . S
C720 C721 1.443 . S
C720 C747 1.389 . S
C721 C720 1.443 . S
C721 C722 1.340 . S
C721 H753 0.951 . S
C722 C721 1.340 . S
C722 C723 1.439 . S
C722 H754 0.950 . S
C723 N719 1.374 . S
C723 C722 1.439 . S
C723 C748 1.395 1_556 S
N724 Co713 2.003 . S
N724 C725 1.376 . S
N724 C728 1.383 . S
C725 N724 1.376 . S
C725 C726 1.446 . S
C725 C748 1.391 . S
C726 C725 1.446 . S
C726 C727 1.339 . S
C726 H755 0.949 . S
C727 C726 1.339 . S
C727 C728 1.439 . S
C727 H756 0.950 . S
C728 N724 1.383 . S
C728 C727 1.439 . S
C728 C746 1.392 . S
N729 Co713 2.294 . S
N729 C732 1.332 . S
N729 C734 1.332 . S
C730 C731 1.386 . S
C730 C733 1.388 . S
C731 C730 1.386 . S
C731 C732 1.382 . S
C731 H757 0.950 . S
C732 N729 1.332 . S
C732 C731 1.382 . S
C732 H743 0.952 . S
C733 C730 1.388 . S
C733 C734 1.382 . S
C733 H758 0.950 . S
C734 N729 1.332 . S
C734 C733 1.382 . S
C734 H744 0.948 . S
N735 Co713 2.271 1_556 S
N735 C739 1.332 . S
N735 C740 1.332 . S
C736 C737 1.388 . S
C736 C740 1.382 . S
C736 H759 0.950 . S
C737 C736 1.388 . S
C737 C738 1.386 . S
C738 C737 1.386 . S
C738 C739 1.382 . S
C738 H760 0.950 . S
C739 N735 1.332 . S
C739 C738 1.382 . S
C739 H741 0.952 . S
C740 N735 1.332 . S
C740 C736 1.382 . S
C740 H742 0.948 . S
H741 C739 0.952 . S
H742 C740 0.948 . S
H743 C732 0.952 . S
H744 C734 0.948 . S
C745 C711 1.395 1_556 S
C745 C715 1.391 . S
C746 C708 1.389 . S
C746 C728 1.392 . S
C747 C718 1.392 . S
C747 C720 1.389 . S
C748 C723 1.395 1_554 S
C748 C725 1.391 . S
H749 C709 0.951 . S
H750 C710 0.950 . S
H751 C716 0.949 . S
H752 C717 0.950 . S
H753 C721 0.951 . S
H754 C722 0.950 . S
H755 C726 0.949 . S
H756 C727 0.950 . S
H757 C731 0.950 . S
H758 C733 0.950 . S
H759 C736 0.950 . S
H760 C738 0.950 . S
C761 C762 1.443 . S
C761 N765 1.376 . S
C761 C799 1.389 . S
C762 C761 1.443 . S
C762 C763 1.340 . S
C762 H802 0.951 . S
C763 C762 1.340 . S
C763 C764 1.439 . S
C763 H803 0.950 . S
C764 C763 1.439 . S
C764 N765 1.374 . S
C764 C798 1.395 . S
N765 C761 1.376 . S
N765 C764 1.374 . S
N765 Co766 2.008 . S
Co766 N765 2.008 . S
Co766 N767 1.995 . S
Co766 N772 2.008 . S
Co766 N777 1.995 . S
Co766 N782 2.282 . S
Co766 N788 2.282 . S
N767 Co766 1.995 . S
N767 C768 1.376 . S
N767 C771 1.383 1_554 S
C768 N767 1.376 . S
C768 C769 1.446 1_554 S
C768 C798 1.391 . S
C769 C768 1.446 1_556 S
C769 C770 1.339 . S
C769 H804 0.949 . S
C770 C769 1.339 . S
C770 C771 1.439 . S
C770 H805 0.950 . S
C771 N767 1.383 1_556 S
C771 C770 1.439 . S
C771 C800 1.392 . S
N772 Co766 2.008 . S
N772 C773 1.376 . S
N772 C776 1.374 . S
C773 N772 1.376 . S
C773 C774 1.443 . S
C773 C800 1.389 1_554 S
C774 C773 1.443 . S
C774 C775 1.340 . S
C774 H806 0.951 1_554 S
C775 C774 1.340 . S
C775 C776 1.439 . S
C775 H807 0.950 . S
C776 N772 1.374 . S
C776 C775 1.439 . S
C776 C801 1.395 . S
N777 Co766 1.995 . S
N777 C778 1.376 . S
N777 C781 1.383 . S
C778 N777 1.376 . S
C778 C779 1.446 . S
C778 C801 1.391 . S
C779 C778 1.446 . S
C779 C780 1.339 . S
C779 H808 0.949 . S
C780 C779 1.339 . S
C780 C781 1.439 . S
C780 H809 0.950 . S
C781 N777 1.383 . S
C781 C780 1.439 . S
C781 C799 1.392 . S
N782 Co766 2.282 . S
N782 C785 1.332 . S
N782 C787 1.332 . S
C783 C784 1.386 . S
C783 C786 1.388 . S
C784 C783 1.386 . S
C784 C785 1.382 . S
C784 H810 0.950 . S
C785 N782 1.332 . S
C785 C784 1.382 . S
C785 H796 0.952 . S
C786 C783 1.388 . S
C786 C787 1.382 . S
C786 H811 0.950 . S
C787 N782 1.332 . S
C787 C786 1.382 . S
C787 H797 0.948 . S
N788 Co766 2.282 . S
N788 C792 1.332 1_554 S
N788 C793 1.332 . S
C789 C790 1.388 . S
C789 C793 1.382 1_556 S
C789 H812 0.950 . S
C790 C789 1.388 . S
C790 C791 1.386 . S
C791 C790 1.386 . S
C791 C792 1.382 . S
C791 H813 0.950 . S
C792 N788 1.332 1_556 S
C792 C791 1.382 . S
C792 H794 0.952 . S
C793 N788 1.332 . S
C793 C789 1.382 1_554 S
C793 H795 0.948 . S
H794 C792 0.952 . S
H795 C793 0.948 . S
H796 C785 0.952 . S
H797 C787 0.948 . S
C798 C764 1.395 . S
C798 C768 1.391 . S
C799 C761 1.389 . S
C799 C781 1.392 . S
C800 C771 1.392 . S
C800 C773 1.389 1_556 S
C801 C776 1.395 . S
C801 C778 1.391 . S
H802 C762 0.951 . S
H803 C763 0.950 . S
H804 C769 0.949 . S
H805 C770 0.950 . S
H806 C774 0.951 1_556 S
H807 C775 0.950 . S
H808 C779 0.949 . S
H809 C780 0.950 . S
H810 C784 0.950 . S
H811 C786 0.950 . S
H812 C789 0.950 . S
H813 C791 0.950 . S
C814 C815 1.443 . S
C814 N818 1.376 1_556 S
C814 C852 1.389 . S
C815 C814 1.443 . S
C815 C816 1.340 1_556 S
C815 H855 0.951 . S
C816 C815 1.340 1_554 S
C816 C817 1.439 . S
C816 H856 0.950 . S
C817 C816 1.439 . S
C817 N818 1.374 . S
C817 C851 1.395 . S
N818 C814 1.376 1_554 S
N818 C817 1.374 . S
N818 Co819 2.008 . S
Co819 N818 2.008 . S
Co819 N820 1.995 . S
Co819 N825 2.008 . S
Co819 N830 1.995 . S
Co819 N835 2.282 1_554 S
Co819 N841 2.282 . S
N820 Co819 1.995 . S
N820 C821 1.376 . S
N820 C824 1.383 . S
C821 N820 1.376 . S
C821 C822 1.446 . S
C821 C851 1.391 . S
C822 C821 1.446 . S
C822 C823 1.339 . S
C822 H857 0.949 . S
C823 C822 1.339 . S
C823 C824 1.439 . S
C823 H858 0.950 . S
C824 N820 1.383 . S
C824 C823 1.439 . S
C824 C853 1.392 . S
N825 Co819 2.008 . S
N825 C826 1.376 . S
N825 C829 1.374 . S
C826 N825 1.376 . S
C826 C827 1.443 . S
C826 C853 1.389 . S
C827 C826 1.443 . S
C827 C828 1.340 . S
C827 H859 0.951 . S
C828 C827 1.340 . S
C828 C829 1.439 . S
C828 H860 0.950 . S
C829 N825 1.374 . S
C829 C828 1.439 . S
C829 C854 1.395 . S
N830 Co819 1.995 . S
N830 C831 1.376 . S
N830 C834 1.383 1_554 S
C831 N830 1.376 . S
C831 C832 1.446 1_554 S
C831 C854 1.391 . S
C832 C831 1.446 1_556 S
C832 C833 1.339 . S
C832 H861 0.949 . S
C833 C832 1.339 . S
C833 C834 1.439 . S
C833 H862 0.950 . S
C834 N830 1.383 1_556 S
C834 C833 1.439 . S
C834 C852 1.392 . S
N835 Co819 2.282 1_556 S
N835 C838 1.332 . S
N835 C840 1.332 . S
C836 C837 1.386 . S
C836 C839 1.388 . S
C837 C836 1.386 . S
C837 C838 1.382 . S
C837 H863 0.950 . S
C838 N835 1.332 . S
C838 C837 1.382 . S
C838 H849 0.952 . S
C839 C836 1.388 . S
C839 C840 1.382 . S
C839 H864 0.950 . S
C840 N835 1.332 . S
C840 C839 1.382 . S
C840 H850 0.948 1_556 S
N841 Co819 2.282 . S
N841 C845 1.332 . S
N841 C846 1.332 . S
C842 C843 1.388 . S
C842 C846 1.382 . S
C842 H865 0.950 . S
C843 C842 1.388 . S
C843 C844 1.386 . S
C844 C843 1.386 . S
C844 C845 1.382 . S
C844 H866 0.950 . S
C845 N841 1.332 . S
C845 C844 1.382 . S
C845 H847 0.952 . S
C846 N841 1.332 . S
C846 C842 1.382 . S
C846 H848 0.948 . S
H847 C845 0.952 . S
H848 C846 0.948 . S
H849 C838 0.952 . S
H850 C840 0.948 1_554 S
C851 C817 1.395 . S
C851 C821 1.391 . S
C852 C814 1.389 . S
C852 C834 1.392 . S
C853 C824 1.392 . S
C853 C826 1.389 . S
C854 C829 1.395 . S
C854 C831 1.391 . S
H855 C815 0.951 . S
H856 C816 0.950 . S
H857 C822 0.949 . S
H858 C823 0.950 . S
H859 C827 0.951 . S
H860 C828 0.950 . S
H861 C832 0.949 . S
H862 C833 0.950 . S
H863 C837 0.950 . S
H864 C839 0.950 . S
H865 C842 0.950 . S
H866 C844 0.950 . S
C867 C868 1.443 . S
C867 N871 1.376 . S
C867 C905 1.389 . S
C868 C867 1.443 . S
C868 C869 1.340 . S
C868 H908 0.951 . S
C869 C868 1.340 . S
C869 C870 1.439 . S
C869 H909 0.950 . S
C870 C869 1.439 . S
C870 N871 1.374 . S
C870 C904 1.395 . S
N871 C867 1.376 . S
N871 C870 1.374 . S
N871 Co872 2.008 . S
Co872 N871 2.008 . S
Co872 N873 1.995 . S
Co872 N878 2.008 . S
Co872 N883 1.995 . S
Co872 N888 2.282 . S
Co872 N894 2.282 1_554 S
N873 Co872 1.995 . S
N873 C874 1.376 . S
N873 C877 1.383 1_554 S
C874 N873 1.376 . S
C874 C875 1.446 1_554 S
C874 C904 1.391 . S
C875 C874 1.446 1_556 S
C875 C876 1.339 . S
C875 H910 0.949 . S
C876 C875 1.339 . S
C876 C877 1.439 . S
C876 H911 0.950 . S
C877 N873 1.383 1_556 S
C877 C876 1.439 . S
C877 C906 1.392 . S
N878 Co872 2.008 . S
N878 C879 1.376 1_554 S
N878 C882 1.374 . S
C879 N878 1.376 1_556 S
C879 C880 1.443 . S
C879 C906 1.389 . S
C880 C879 1.443 . S
C880 C881 1.340 1_556 S
C880 H912 0.951 . S
C881 C880 1.340 1_554 S
C881 C882 1.439 . S
C881 H913 0.950 . S
C882 N878 1.374 . S
C882 C881 1.439 . S
C882 C907 1.395 . S
N883 Co872 1.995 . S
N883 C884 1.376 . S
N883 C887 1.383 . S
C884 N883 1.376 . S
C884 C885 1.446 . S
C884 C907 1.391 . S
C885 C884 1.446 . S
C885 C886 1.339 . S
C885 H914 0.949 . S
C886 C885 1.339 . S
C886 C887 1.439 . S
C886 H915 0.950 . S
C887 N883 1.383 . S
C887 C886 1.439 . S
C887 C905 1.392 . S
N888 Co872 2.282 . S
N888 C891 1.332 . S
N888 C893 1.332 . S
C889 C890 1.386 . S
C889 C892 1.388 . S
C890 C889 1.386 . S
C890 C891 1.382 . S
C890 H916 0.950 . S
C891 N888 1.332 . S
C891 C890 1.382 . S
C891 H902 0.952 . S
C892 C889 1.388 . S
C892 C893 1.382 . S
C892 H917 0.950 . S
C893 N888 1.332 . S
C893 C892 1.382 . S
C893 H903 0.948 . S
N894 Co872 2.282 1_556 S
N894 C898 1.332 . S
N894 C899 1.332 . S
C895 C896 1.388 . S
C895 C899 1.382 . S
C895 H918 0.950 . S
C896 C895 1.388 . S
C896 C897 1.386 . S
C897 C896 1.386 . S
C897 C898 1.382 . S
C897 H919 0.950 . S
C898 N894 1.332 . S
C898 C897 1.382 . S
C898 H900 0.952 . S
C899 N894 1.332 . S
C899 C895 1.382 . S
C899 H901 0.948 1_556 S
H900 C898 0.952 . S
H901 C899 0.948 1_554 S
H902 C891 0.952 . S
H903 C893 0.948 . S
C904 C870 1.395 . S
C904 C874 1.391 . S
C905 C867 1.389 . S
C905 C887 1.392 . S
C906 C877 1.392 . S
C906 C879 1.389 . S
C907 C882 1.395 . S
C907 C884 1.391 . S
H908 C868 0.951 . S
H909 C869 0.950 . S
H910 C875 0.949 . S
H911 C876 0.950 . S
H912 C880 0.951 . S
H913 C881 0.950 . S
H914 C885 0.949 . S
H915 C886 0.950 . S
H916 C890 0.950 . S
H917 C892 0.950 . S
H918 C895 0.950 . S
H919 C897 0.950 . S
C920 C921 1.391 . S
C920 C922 1.394 . S
C920 H936 0.931 . S
C921 C920 1.391 . S
C921 C925 1.376 . S
C922 C920 1.394 . S
C922 C923 1.369 . S
C922 C926 1.531 . S
C923 C922 1.369 . S
C923 C924 1.410 . S
C923 C931 1.503 . S
C924 C923 1.410 . S
C924 C925 1.392 . S
C924 C927 1.511 . S
C925 C921 1.376 . S
C925 C924 1.392 . S
C925 H937 0.929 . S
C926 C922 1.531 . S
C926 H938 0.960 . S
C926 H939 0.962 . S
C926 H940 0.960 . S
C927 C924 1.511 . S
C927 H941 0.961 . S
C927 H942 0.961 . S
C927 H943 0.961 . S
C928 C929 1.370 . S
C928 C930 1.363 . S
C928 H944 0.931 . S
C929 C928 1.370 . S
C929 C933 1.408 . S
C930 C928 1.363 . S
C930 C931 1.370 . S
C930 C934 1.524 . S
C931 C923 1.503 . S
C931 C930 1.370 . S
C931 C932 1.403 . S
C932 C931 1.403 . S
C932 C933 1.404 . S
C932 C935 1.539 . S
C933 C929 1.408 . S
C933 C932 1.404 . S
C933 H945 0.930 . S
C934 C930 1.524 . S
C934 H946 0.956 . S
C934 H947 0.961 . S
C934 H948 0.961 . S
C935 C932 1.539 . S
C935 H949 0.958 . S
C935 H950 0.961 . S
C935 H951 0.960 . S
H936 C920 0.931 . S
H937 C925 0.929 . S
H938 C926 0.960 . S
H939 C926 0.962 . S
H940 C926 0.960 . S
H941 C927 0.961 . S
H942 C927 0.961 . S
H943 C927 0.961 . S
H944 C928 0.931 . S
H945 C933 0.930 . S
H946 C934 0.956 . S
H947 C934 0.961 . S
H948 C934 0.961 . S
H949 C935 0.958 . S
H950 C935 0.961 . S
H951 C935 0.960 . S
C952 C953 1.391 . S
C952 C954 1.394 . S
C952 H968 0.931 . S
C953 C952 1.391 . S
C953 C957 1.376 . S
C954 C952 1.394 . S
C954 C955 1.369 . S
C954 C958 1.531 . S
C955 C954 1.369 . S
C955 C956 1.410 . S
C955 C963 1.503 . S
C956 C955 1.410 . S
C956 C957 1.392 . S
C956 C959 1.511 . S
C957 C953 1.376 . S
C957 C956 1.392 . S
C957 H969 0.929 . S
C958 C954 1.531 . S
C958 H970 0.960 . S
C958 H971 0.962 . S
C958 H972 0.960 . S
C959 C956 1.511 . S
C959 H973 0.961 . S
C959 H974 0.961 . S
C959 H975 0.961 . S
C960 C961 1.370 . S
C960 C962 1.363 . S
C960 H976 0.931 . S
C961 C960 1.370 . S
C961 C965 1.408 . S
C962 C960 1.363 . S
C962 C963 1.370 . S
C962 C966 1.524 . S
C963 C955 1.503 . S
C963 C962 1.370 . S
C963 C964 1.403 . S
C964 C963 1.403 . S
C964 C965 1.404 . S
C964 C967 1.539 . S
C965 C961 1.408 . S
C965 C964 1.404 . S
C965 H977 0.930 . S
C966 C962 1.524 . S
C966 H978 0.956 . S
C966 H979 0.961 . S
C966 H980 0.961 . S
C967 C964 1.539 . S
C967 H981 0.958 . S
C967 H982 0.961 . S
C967 H983 0.960 . S
H968 C952 0.931 . S
H969 C957 0.929 . S
H970 C958 0.960 . S
H971 C958 0.962 . S
H972 C958 0.960 . S
H973 C959 0.961 . S
H974 C959 0.961 . S
H975 C959 0.961 . S
H976 C960 0.931 . S
H977 C965 0.930 . S
H978 C966 0.956 . S
H979 C966 0.961 . S
H980 C966 0.961 . S
H981 C967 0.958 . S
H982 C967 0.961 . S
H983 C967 0.960 . S
C984 C985 1.391 . S
C984 C986 1.394 . S
C984 H1000 0.931 . S
C985 C984 1.391 . S
C985 C989 1.376 . S
C986 C984 1.394 . S
C986 C987 1.369 . S
C986 C990 1.531 . S
C987 C986 1.369 . S
C987 C988 1.410 . S
C987 C995 1.503 . S
C988 C987 1.410 . S
C988 C989 1.392 . S
C988 C991 1.511 . S
C989 C985 1.376 . S
C989 C988 1.392 . S
C989 H1001 0.929 . S
C990 C986 1.531 . S
C990 H1002 0.960 . S
C990 H1003 0.962 . S
C990 H1004 0.960 . S
C991 C988 1.511 . S
C991 H1005 0.961 . S
C991 H1006 0.961 . S
C991 H1007 0.961 . S
C992 C993 1.370 . S
C992 C994 1.363 . S
C992 H1008 0.931 . S
C993 C992 1.370 . S
C993 C997 1.408 . S
C994 C992 1.363 . S
C994 C995 1.370 . S
C994 C998 1.524 . S
C995 C987 1.503 . S
C995 C994 1.370 . S
C995 C996 1.403 . S
C996 C995 1.403 . S
C996 C997 1.404 . S
C996 C999 1.539 . S
C997 C993 1.408 . S
C997 C996 1.404 . S
C997 H1009 0.930 . S
C998 C994 1.524 . S
C998 H1010 0.956 . S
C998 H1011 0.961 . S
C998 H1012 0.961 . S
C999 C996 1.539 . S
C999 H1013 0.958 . S
C999 H1014 0.961 . S
C999 H1015 0.960 . S
H1000 C984 0.931 . S
H1001 C989 0.929 . S
H1002 C990 0.960 . S
H1003 C990 0.962 . S
H1004 C990 0.960 . S
H1005 C991 0.961 . S
H1006 C991 0.961 . S
H1007 C991 0.961 . S
H1008 C992 0.931 . S
H1009 C997 0.930 . S
H1010 C998 0.956 . S
H1011 C998 0.961 . S
H1012 C998 0.961 . S
H1013 C999 0.958 . S
H1014 C999 0.961 . S
H1015 C999 0.960 . S
C1016 C1017 1.391 . S
C1016 C1018 1.394 . S
C1016 H1032 0.931 . S
C1017 C1016 1.391 . S
C1017 C1021 1.376 . S
C1018 C1016 1.394 . S
C1018 C1019 1.369 . S
C1018 C1022 1.531 . S
C1019 C1018 1.369 . S
C1019 C1020 1.410 . S
C1019 C1027 1.503 . S
C1020 C1019 1.410 . S
C1020 C1021 1.392 . S
C1020 C1023 1.511 . S
C1021 C1017 1.376 . S
C1021 C1020 1.392 . S
C1021 H1033 0.929 . S
C1022 C1018 1.531 . S
C1022 H1034 0.960 . S
C1022 H1035 0.962 . S
C1022 H1036 0.960 . S
C1023 C1020 1.511 . S
C1023 H1037 0.961 . S
C1023 H1038 0.961 . S
C1023 H1039 0.961 . S
C1024 C1025 1.370 . S
C1024 C1026 1.363 . S
C1024 H1040 0.931 . S
C1025 C1024 1.370 . S
C1025 C1029 1.408 . S
C1026 C1024 1.363 . S
C1026 C1027 1.370 . S
C1026 C1030 1.524 . S
C1027 C1019 1.503 . S
C1027 C1026 1.370 . S
C1027 C1028 1.403 . S
C1028 C1027 1.403 . S
C1028 C1029 1.404 . S
C1028 C1031 1.539 . S
C1029 C1025 1.408 . S
C1029 C1028 1.404 . S
C1029 H1041 0.930 . S
C1030 C1026 1.524 . S
C1030 H1042 0.956 . S
C1030 H1043 0.961 . S
C1030 H1044 0.961 . S
C1031 C1028 1.539 . S
C1031 H1045 0.958 . S
C1031 H1046 0.961 . S
C1031 H1047 0.960 . S
H1032 C1016 0.931 . S
H1033 C1021 0.929 . S
H1034 C1022 0.960 . S
H1035 C1022 0.962 . S
H1036 C1022 0.960 . S
H1037 C1023 0.961 . S
H1038 C1023 0.961 . S
H1039 C1023 0.961 . S
H1040 C1024 0.931 . S
H1041 C1029 0.930 . S
H1042 C1030 0.956 . S
H1043 C1030 0.961 . S
H1044 C1030 0.961 . S
H1045 C1031 0.958 . S
H1046 C1031 0.961 . S
H1047 C1031 0.960 . S
C1048 C1049 1.391 . S
C1048 C1050 1.394 . S
C1048 H1064 0.931 . S
C1049 C1048 1.391 . S
C1049 C1053 1.376 . S
C1050 C1048 1.394 . S
C1050 C1051 1.369 . S
C1050 C1054 1.531 . S
C1051 C1050 1.369 . S
C1051 C1052 1.410 . S
C1051 C1059 1.503 . S
C1052 C1051 1.410 . S
C1052 C1053 1.392 . S
C1052 C1055 1.511 . S
C1053 C1049 1.376 . S
C1053 C1052 1.392 . S
C1053 H1065 0.929 . S
C1054 C1050 1.531 . S
C1054 H1066 0.960 . S
C1054 H1067 0.962 . S
C1054 H1068 0.960 . S
C1055 C1052 1.511 . S
C1055 H1069 0.961 . S
C1055 H1070 0.961 . S
C1055 H1071 0.961 . S
C1056 C1057 1.370 . S
C1056 C1058 1.363 . S
C1056 H1072 0.931 . S
C1057 C1056 1.370 . S
C1057 C1061 1.408 . S
C1058 C1056 1.363 . S
C1058 C1059 1.370 . S
C1058 C1062 1.524 . S
C1059 C1051 1.503 . S
C1059 C1058 1.370 . S
C1059 C1060 1.403 . S
C1060 C1059 1.403 . S
C1060 C1061 1.404 . S
C1060 C1063 1.539 . S
C1061 C1057 1.408 . S
C1061 C1060 1.404 . S
C1061 H1073 0.930 . S
C1062 C1058 1.524 . S
C1062 H1074 0.956 . S
C1062 H1075 0.961 . S
C1062 H1076 0.961 . S
C1063 C1060 1.539 . S
C1063 H1077 0.958 . S
C1063 H1078 0.961 . S
C1063 H1079 0.960 . S
H1064 C1048 0.931 . S
H1065 C1053 0.929 . S
H1066 C1054 0.960 . S
H1067 C1054 0.962 . S
H1068 C1054 0.960 . S
H1069 C1055 0.961 . S
H1070 C1055 0.961 . S
H1071 C1055 0.961 . S
H1072 C1056 0.931 . S
H1073 C1061 0.930 . S
H1074 C1062 0.956 . S
H1075 C1062 0.961 . S
H1076 C1062 0.961 . S
H1077 C1063 0.958 . S
H1078 C1063 0.961 . S
H1079 C1063 0.960 . S
C1080 C1081 1.391 . S
C1080 C1082 1.394 . S
C1080 H1096 0.931 . S
C1081 C1080 1.391 . S
C1081 C1085 1.376 . S
C1082 C1080 1.394 . S
C1082 C1083 1.369 . S
C1082 C1086 1.531 . S
C1083 C1082 1.369 . S
C1083 C1084 1.410 . S
C1083 C1091 1.503 . S
C1084 C1083 1.410 . S
C1084 C1085 1.392 . S
C1084 C1087 1.511 . S
C1085 C1081 1.376 . S
C1085 C1084 1.392 . S
C1085 H1097 0.929 . S
C1086 C1082 1.531 . S
C1086 H1098 0.960 . S
C1086 H1099 0.962 . S
C1086 H1100 0.960 . S
C1087 C1084 1.511 . S
C1087 H1101 0.961 . S
C1087 H1102 0.961 . S
C1087 H1103 0.961 . S
C1088 C1089 1.370 . S
C1088 C1090 1.363 . S
C1088 H1104 0.931 . S
C1089 C1088 1.370 . S
C1089 C1093 1.408 . S
C1090 C1088 1.363 . S
C1090 C1091 1.370 . S
C1090 C1094 1.524 . S
C1091 C1083 1.503 . S
C1091 C1090 1.370 . S
C1091 C1092 1.403 . S
C1092 C1091 1.403 . S
C1092 C1093 1.404 . S
C1092 C1095 1.539 . S
C1093 C1089 1.408 . S
C1093 C1092 1.404 . S
C1093 H1105 0.930 . S
C1094 C1090 1.524 . S
C1094 H1106 0.956 . S
C1094 H1107 0.961 . S
C1094 H1108 0.961 . S
C1095 C1092 1.539 . S
C1095 H1109 0.958 . S
C1095 H1110 0.961 . S
C1095 H1111 0.960 . S
H1096 C1080 0.931 . S
H1097 C1085 0.929 . S
H1098 C1086 0.960 . S
H1099 C1086 0.962 . S
H1100 C1086 0.960 . S
H1101 C1087 0.961 . S
H1102 C1087 0.961 . S
H1103 C1087 0.961 . S
H1104 C1088 0.931 . S
H1105 C1093 0.930 . S
H1106 C1094 0.956 . S
H1107 C1094 0.961 . S
H1108 C1094 0.961 . S
H1109 C1095 0.958 . S
H1110 C1095 0.961 . S
H1111 C1095 0.960 . S
C1112 C1113 1.391 . S
C1112 C1114 1.394 . S
C1112 H1128 0.931 . S
C1113 C1112 1.391 . S
C1113 C1117 1.376 . S
C1114 C1112 1.394 . S
C1114 C1115 1.369 . S
C1114 C1118 1.531 . S
C1115 C1114 1.369 . S
C1115 C1116 1.410 . S
C1115 C1123 1.503 . S
C1116 C1115 1.410 . S
C1116 C1117 1.392 . S
C1116 C1119 1.511 . S
C1117 C1113 1.376 . S
C1117 C1116 1.392 . S
C1117 H1129 0.929 . S
C1118 C1114 1.531 . S
C1118 H1130 0.960 . S
C1118 H1131 0.962 . S
C1118 H1132 0.960 . S
C1119 C1116 1.511 . S
C1119 H1133 0.961 . S
C1119 H1134 0.961 . S
C1119 H1135 0.961 . S
C1120 C1121 1.370 . S
C1120 C1122 1.363 . S
C1120 H1136 0.931 . S
C1121 C1120 1.370 . S
C1121 C1125 1.408 . S
C1122 C1120 1.363 . S
C1122 C1123 1.370 . S
C1122 C1126 1.524 . S
C1123 C1115 1.503 . S
C1123 C1122 1.370 . S
C1123 C1124 1.403 . S
C1124 C1123 1.403 . S
C1124 C1125 1.404 . S
C1124 C1127 1.539 . S
C1125 C1121 1.408 . S
C1125 C1124 1.404 . S
C1125 H1137 0.930 . S
C1126 C1122 1.524 . S
C1126 H1138 0.956 . S
C1126 H1139 0.961 . S
C1126 H1140 0.961 . S
C1127 C1124 1.539 . S
C1127 H1141 0.958 . S
C1127 H1142 0.961 . S
C1127 H1143 0.960 . S
H1128 C1112 0.931 . S
H1129 C1117 0.929 . S
H1130 C1118 0.960 . S
H1131 C1118 0.962 . S
H1132 C1118 0.960 . S
H1133 C1119 0.961 . S
H1134 C1119 0.961 . S
H1135 C1119 0.961 . S
H1136 C1120 0.931 . S
H1137 C1125 0.930 . S
H1138 C1126 0.956 . S
H1139 C1126 0.961 . S
H1140 C1126 0.961 . S
H1141 C1127 0.958 . S
H1142 C1127 0.961 . S
H1143 C1127 0.960 . S
C1144 C1145 1.391 . S
C1144 C1146 1.394 . S
C1144 H1160 0.931 . S
C1145 C1144 1.391 . S
C1145 C1149 1.376 . S
C1146 C1144 1.394 . S
C1146 C1147 1.369 . S
C1146 C1150 1.531 . S
C1147 C1146 1.369 . S
C1147 C1148 1.410 . S
C1147 C1155 1.503 . S
C1148 C1147 1.410 . S
C1148 C1149 1.392 . S
C1148 C1151 1.511 . S
C1149 C1145 1.376 . S
C1149 C1148 1.392 . S
C1149 H1161 0.929 . S
C1150 C1146 1.531 . S
C1150 H1162 0.960 . S
C1150 H1163 0.962 . S
C1150 H1164 0.960 . S
C1151 C1148 1.511 . S
C1151 H1165 0.961 . S
C1151 H1166 0.961 . S
C1151 H1167 0.961 . S
C1152 C1153 1.370 . S
C1152 C1154 1.363 . S
C1152 H1168 0.931 . S
C1153 C1152 1.370 . S
C1153 C1157 1.408 . S
C1154 C1152 1.363 . S
C1154 C1155 1.370 . S
C1154 C1158 1.524 . S
C1155 C1147 1.503 . S
C1155 C1154 1.370 . S
C1155 C1156 1.403 . S
C1156 C1155 1.403 . S
C1156 C1157 1.404 . S
C1156 C1159 1.539 . S
C1157 C1153 1.408 . S
C1157 C1156 1.404 . S
C1157 H1169 0.930 . S
C1158 C1154 1.524 . S
C1158 H1170 0.956 . S
C1158 H1171 0.961 . S
C1158 H1172 0.961 . S
C1159 C1156 1.539 . S
C1159 H1173 0.958 . S
C1159 H1174 0.961 . S
C1159 H1175 0.960 . S
H1160 C1144 0.931 . S
H1161 C1149 0.929 . S
H1162 C1150 0.960 . S
H1163 C1150 0.962 . S
H1164 C1150 0.960 . S
H1165 C1151 0.961 . S
H1166 C1151 0.961 . S
H1167 C1151 0.961 . S
H1168 C1152 0.931 . S
H1169 C1157 0.930 . S
H1170 C1158 0.956 . S
H1171 C1158 0.961 . S
H1172 C1158 0.961 . S
H1173 C1159 0.958 . S
H1174 C1159 0.961 . S
H1175 C1159 0.960 . S
C1176 C1177 1.391 . S
C1176 C1178 1.394 . S
C1176 H1192 0.931 . S
C1177 C1176 1.391 . S
C1177 C1181 1.376 . S
C1178 C1176 1.394 . S
C1178 C1179 1.369 . S
C1178 C1182 1.531 . S
C1179 C1178 1.369 . S
C1179 C1180 1.410 . S
C1179 C1187 1.503 . S
C1180 C1179 1.410 . S
C1180 C1181 1.392 . S
C1180 C1183 1.511 . S
C1181 C1177 1.376 . S
C1181 C1180 1.392 . S
C1181 H1193 0.929 . S
C1182 C1178 1.531 . S
C1182 H1194 0.960 . S
C1182 H1195 0.962 . S
C1182 H1196 0.960 . S
C1183 C1180 1.511 . S
C1183 H1197 0.961 . S
C1183 H1198 0.961 . S
C1183 H1199 0.961 . S
C1184 C1185 1.370 . S
C1184 C1186 1.363 . S
C1184 H1200 0.931 . S
C1185 C1184 1.370 . S
C1185 C1189 1.408 . S
C1186 C1184 1.363 . S
C1186 C1187 1.370 . S
C1186 C1190 1.524 . S
C1187 C1179 1.503 . S
C1187 C1186 1.370 . S
C1187 C1188 1.403 . S
C1188 C1187 1.403 . S
C1188 C1189 1.404 . S
C1188 C1191 1.539 . S
C1189 C1185 1.408 . S
C1189 C1188 1.404 . S
C1189 H1201 0.930 . S
C1190 C1186 1.524 . S
C1190 H1202 0.956 . S
C1190 H1203 0.961 . S
C1190 H1204 0.961 . S
C1191 C1188 1.539 . S
C1191 H1205 0.958 . S
C1191 H1206 0.961 . S
C1191 H1207 0.960 . S
H1192 C1176 0.931 . S
H1193 C1181 0.929 . S
H1194 C1182 0.960 . S
H1195 C1182 0.962 . S
H1196 C1182 0.960 . S
H1197 C1183 0.961 . S
H1198 C1183 0.961 . S
H1199 C1183 0.961 . S
H1200 C1184 0.931 . S
H1201 C1189 0.930 . S
H1202 C1190 0.956 . S
H1203 C1190 0.961 . S
H1204 C1190 0.961 . S
H1205 C1191 0.958 . S
H1206 C1191 0.961 . S
H1207 C1191 0.960 . S
C1208 C1209 1.391 . S
C1208 C1210 1.394 . S
C1208 H1224 0.931 . S
C1209 C1208 1.391 . S
C1209 C1213 1.376 . S
C1210 C1208 1.394 . S
C1210 C1211 1.369 . S
C1210 C1214 1.531 . S
C1211 C1210 1.369 . S
C1211 C1212 1.410 . S
C1211 C1219 1.503 . S
C1212 C1211 1.410 . S
C1212 C1213 1.392 . S
C1212 C1215 1.511 . S
C1213 C1209 1.376 . S
C1213 C1212 1.392 . S
C1213 H1225 0.929 . S
C1214 C1210 1.531 . S
C1214 H1226 0.960 . S
C1214 H1227 0.962 . S
C1214 H1228 0.960 . S
C1215 C1212 1.511 . S
C1215 H1229 0.961 . S
C1215 H1230 0.961 . S
C1215 H1231 0.961 . S
C1216 C1217 1.370 . S
C1216 C1218 1.363 . S
C1216 H1232 0.931 . S
C1217 C1216 1.370 . S
C1217 C1221 1.408 . S
C1218 C1216 1.363 . S
C1218 C1219 1.370 . S
C1218 C1222 1.524 . S
C1219 C1211 1.503 . S
C1219 C1218 1.370 . S
C1219 C1220 1.403 . S
C1220 C1219 1.403 . S
C1220 C1221 1.404 . S
C1220 C1223 1.539 . S
C1221 C1217 1.408 . S
C1221 C1220 1.404 . S
C1221 H1233 0.930 . S
C1222 C1218 1.524 . S
C1222 H1234 0.956 . S
C1222 H1235 0.961 . S
C1222 H1236 0.961 . S
C1223 C1220 1.539 . S
C1223 H1237 0.958 . S
C1223 H1238 0.961 . S
C1223 H1239 0.960 . S
H1224 C1208 0.931 . S
H1225 C1213 0.929 . S
H1226 C1214 0.960 . S
H1227 C1214 0.962 . S
H1228 C1214 0.960 . S
H1229 C1215 0.961 . S
H1230 C1215 0.961 . S
H1231 C1215 0.961 . S
H1232 C1216 0.931 . S
H1233 C1221 0.930 . S
H1234 C1222 0.956 . S
H1235 C1222 0.961 . S
H1236 C1222 0.961 . S
H1237 C1223 0.958 . S
H1238 C1223 0.961 . S
H1239 C1223 0.960 . S
C1240 C1241 1.391 . S
C1240 C1242 1.394 . S
C1240 H1256 0.931 . S
C1241 C1240 1.391 . S
C1241 C1245 1.376 . S
C1242 C1240 1.394 . S
C1242 C1243 1.369 . S
C1242 C1246 1.531 . S
C1243 C1242 1.369 . S
C1243 C1244 1.410 . S
C1243 C1251 1.503 . S
C1244 C1243 1.410 . S
C1244 C1245 1.392 . S
C1244 C1247 1.511 . S
C1245 C1241 1.376 . S
C1245 C1244 1.392 . S
C1245 H1257 0.929 . S
C1246 C1242 1.531 . S
C1246 H1258 0.960 . S
C1246 H1259 0.962 . S
C1246 H1260 0.960 . S
C1247 C1244 1.511 . S
C1247 H1261 0.961 . S
C1247 H1262 0.961 . S
C1247 H1263 0.961 . S
C1248 C1249 1.370 . S
C1248 C1250 1.363 . S
C1248 H1264 0.931 . S
C1249 C1248 1.370 . S
C1249 C1253 1.408 . S
C1250 C1248 1.363 . S
C1250 C1251 1.370 . S
C1250 C1254 1.524 . S
C1251 C1243 1.503 . S
C1251 C1250 1.370 . S
C1251 C1252 1.403 . S
C1252 C1251 1.403 . S
C1252 C1253 1.404 . S
C1252 C1255 1.539 . S
C1253 C1249 1.408 . S
C1253 C1252 1.404 . S
C1253 H1265 0.930 . S
C1254 C1250 1.524 . S
C1254 H1266 0.956 . S
C1254 H1267 0.961 . S
C1254 H1268 0.961 . S
C1255 C1252 1.539 . S
C1255 H1269 0.958 . S
C1255 H1270 0.961 . S
C1255 H1271 0.960 . S
H1256 C1240 0.931 . S
H1257 C1245 0.929 . S
H1258 C1246 0.960 . S
H1259 C1246 0.962 . S
H1260 C1246 0.960 . S
H1261 C1247 0.961 . S
H1262 C1247 0.961 . S
H1263 C1247 0.961 . S
H1264 C1248 0.931 . S
H1265 C1253 0.930 . S
H1266 C1254 0.956 . S
H1267 C1254 0.961 . S
H1268 C1254 0.961 . S
H1269 C1255 0.958 . S
H1270 C1255 0.961 . S
H1271 C1255 0.960 . S
C1272 C1273 1.391 . S
C1272 C1274 1.394 . S
C1272 H1288 0.931 . S
C1273 C1272 1.391 . S
C1273 C1277 1.376 . S
C1274 C1272 1.394 . S
C1274 C1275 1.369 . S
C1274 C1278 1.531 . S
C1275 C1274 1.369 . S
C1275 C1276 1.410 . S
C1275 C1283 1.503 . S
C1276 C1275 1.410 . S
C1276 C1277 1.392 . S
C1276 C1279 1.511 . S
C1277 C1273 1.376 . S
C1277 C1276 1.392 . S
C1277 H1289 0.929 . S
C1278 C1274 1.531 . S
C1278 H1290 0.960 . S
C1278 H1291 0.962 . S
C1278 H1292 0.960 . S
C1279 C1276 1.511 . S
C1279 H1293 0.961 . S
C1279 H1294 0.961 . S
C1279 H1295 0.961 . S
C1280 C1281 1.370 . S
C1280 C1282 1.363 . S
C1280 H1296 0.931 . S
C1281 C1280 1.370 . S
C1281 C1285 1.408 . S
C1282 C1280 1.363 . S
C1282 C1283 1.370 . S
C1282 C1286 1.524 . S
C1283 C1275 1.503 . S
C1283 C1282 1.370 . S
C1283 C1284 1.403 . S
C1284 C1283 1.403 . S
C1284 C1285 1.404 . S
C1284 C1287 1.539 . S
C1285 C1281 1.408 . S
C1285 C1284 1.404 . S
C1285 H1297 0.930 . S
C1286 C1282 1.524 . S
C1286 H1298 0.956 . S
C1286 H1299 0.961 . S
C1286 H1300 0.961 . S
C1287 C1284 1.539 . S
C1287 H1301 0.958 . S
C1287 H1302 0.961 . S
C1287 H1303 0.960 . S
H1288 C1272 0.931 . S
H1289 C1277 0.929 . S
H1290 C1278 0.960 . S
H1291 C1278 0.962 . S
H1292 C1278 0.960 . S
H1293 C1279 0.961 . S
H1294 C1279 0.961 . S
H1295 C1279 0.961 . S
H1296 C1280 0.931 . S
H1297 C1285 0.930 . S
H1298 C1286 0.956 . S
H1299 C1286 0.961 . S
H1300 C1286 0.961 . S
H1301 C1287 0.958 . S
H1302 C1287 0.961 . S
H1303 C1287 0.960 . S
C1304 C1305 1.391 . S
C1304 C1306 1.394 . S
C1304 H1320 0.931 . S
C1305 C1304 1.391 . S
C1305 C1309 1.376 . S
C1306 C1304 1.394 . S
C1306 C1307 1.369 . S
C1306 C1310 1.531 . S
C1307 C1306 1.369 . S
C1307 C1308 1.410 . S
C1307 C1315 1.503 . S
C1308 C1307 1.410 . S
C1308 C1309 1.392 . S
C1308 C1311 1.511 . S
C1309 C1305 1.376 . S
C1309 C1308 1.392 . S
C1309 H1321 0.929 . S
C1310 C1306 1.531 . S
C1310 H1322 0.960 . S
C1310 H1323 0.962 . S
C1310 H1324 0.960 . S
C1311 C1308 1.511 . S
C1311 H1325 0.961 . S
C1311 H1326 0.961 . S
C1311 H1327 0.961 . S
C1312 C1313 1.370 . S
C1312 C1314 1.363 . S
C1312 H1328 0.931 . S
C1313 C1312 1.370 . S
C1313 C1317 1.408 . S
C1314 C1312 1.363 . S
C1314 C1315 1.370 . S
C1314 C1318 1.524 . S
C1315 C1307 1.503 . S
C1315 C1314 1.370 . S
C1315 C1316 1.403 . S
C1316 C1315 1.403 . S
C1316 C1317 1.404 . S
C1316 C1319 1.539 . S
C1317 C1313 1.408 . S
C1317 C1316 1.404 . S
C1317 H1329 0.930 . S
C1318 C1314 1.524 . S
C1318 H1330 0.956 . S
C1318 H1331 0.961 . S
C1318 H1332 0.961 . S
C1319 C1316 1.539 . S
C1319 H1333 0.958 . S
C1319 H1334 0.961 . S
C1319 H1335 0.960 . S
H1320 C1304 0.931 . S
H1321 C1309 0.929 . S
H1322 C1310 0.960 . S
H1323 C1310 0.962 . S
H1324 C1310 0.960 . S
H1325 C1311 0.961 . S
H1326 C1311 0.961 . S
H1327 C1311 0.961 . S
H1328 C1312 0.931 . S
H1329 C1317 0.930 . S
H1330 C1318 0.956 . S
H1331 C1318 0.961 . S
H1332 C1318 0.961 . S
H1333 C1319 0.958 . S
H1334 C1319 0.961 . S
H1335 C1319 0.960 . S
C1336 C1337 1.391 . S
C1336 C1338 1.394 . S
C1336 H1352 0.931 . S
C1337 C1336 1.391 . S
C1337 C1341 1.376 . S
C1338 C1336 1.394 . S
C1338 C1339 1.369 . S
C1338 C1342 1.531 . S
C1339 C1338 1.369 . S
C1339 C1340 1.410 . S
C1339 C1347 1.503 . S
C1340 C1339 1.410 . S
C1340 C1341 1.392 . S
C1340 C1343 1.511 . S
C1341 C1337 1.376 . S
C1341 C1340 1.392 . S
C1341 H1353 0.929 . S
C1342 C1338 1.531 . S
C1342 H1354 0.960 . S
C1342 H1355 0.962 . S
C1342 H1356 0.960 . S
C1343 C1340 1.511 . S
C1343 H1357 0.961 . S
C1343 H1358 0.961 . S
C1343 H1359 0.961 . S
C1344 C1345 1.370 . S
C1344 C1346 1.363 . S
C1344 H1360 0.931 . S
C1345 C1344 1.370 . S
C1345 C1349 1.408 . S
C1346 C1344 1.363 . S
C1346 C1347 1.370 . S
C1346 C1350 1.524 . S
C1347 C1339 1.503 . S
C1347 C1346 1.370 . S
C1347 C1348 1.403 . S
C1348 C1347 1.403 . S
C1348 C1349 1.404 . S
C1348 C1351 1.539 . S
C1349 C1345 1.408 . S
C1349 C1348 1.404 . S
C1349 H1361 0.930 . S
C1350 C1346 1.524 . S
C1350 H1362 0.956 . S
C1350 H1363 0.961 . S
C1350 H1364 0.961 . S
C1351 C1348 1.539 . S
C1351 H1365 0.958 . S
C1351 H1366 0.961 . S
C1351 H1367 0.960 . S
H1352 C1336 0.931 . S
H1353 C1341 0.929 . S
H1354 C1342 0.960 . S
H1355 C1342 0.962 . S
H1356 C1342 0.960 . S
H1357 C1343 0.961 . S
H1358 C1343 0.961 . S
H1359 C1343 0.961 . S
H1360 C1344 0.931 . S
H1361 C1349 0.930 . S
H1362 C1350 0.956 . S
H1363 C1350 0.961 . S
H1364 C1350 0.961 . S
H1365 C1351 0.958 . S
H1366 C1351 0.961 . S
H1367 C1351 0.960 . S
C1368 C1369 1.391 . S
C1368 C1370 1.394 . S
C1368 H1384 0.931 . S
C1369 C1368 1.391 . S
C1369 C1373 1.376 . S
C1370 C1368 1.394 . S
C1370 C1371 1.369 . S
C1370 C1374 1.531 . S
C1371 C1370 1.369 . S
C1371 C1372 1.410 . S
C1371 C1379 1.503 . S
C1372 C1371 1.410 . S
C1372 C1373 1.392 . S
C1372 C1375 1.511 . S
C1373 C1369 1.376 . S
C1373 C1372 1.392 . S
C1373 H1385 0.929 . S
C1374 C1370 1.531 . S
C1374 H1386 0.960 . S
C1374 H1387 0.962 . S
C1374 H1388 0.960 . S
C1375 C1372 1.511 . S
C1375 H1389 0.961 . S
C1375 H1390 0.961 . S
C1375 H1391 0.961 . S
C1376 C1377 1.370 . S
C1376 C1378 1.363 . S
C1376 H1392 0.931 . S
C1377 C1376 1.370 . S
C1377 C1381 1.408 . S
C1378 C1376 1.363 . S
C1378 C1379 1.370 . S
C1378 C1382 1.524 . S
C1379 C1371 1.503 . S
C1379 C1378 1.370 . S
C1379 C1380 1.403 . S
C1380 C1379 1.403 . S
C1380 C1381 1.404 . S
C1380 C1383 1.539 . S
C1381 C1377 1.408 . S
C1381 C1380 1.404 . S
C1381 H1393 0.930 . S
C1382 C1378 1.524 . S
C1382 H1394 0.956 . S
C1382 H1395 0.961 . S
C1382 H1396 0.961 . S
C1383 C1380 1.539 . S
C1383 H1397 0.958 . S
C1383 H1398 0.961 . S
C1383 H1399 0.960 . S
H1384 C1368 0.931 . S
H1385 C1373 0.929 . S
H1386 C1374 0.960 . S
H1387 C1374 0.962 . S
H1388 C1374 0.960 . S
H1389 C1375 0.961 . S
H1390 C1375 0.961 . S
H1391 C1375 0.961 . S
H1392 C1376 0.931 . S
H1393 C1381 0.930 . S
H1394 C1382 0.956 . S
H1395 C1382 0.961 . S
H1396 C1382 0.961 . S
H1397 C1383 0.958 . S
H1398 C1383 0.961 . S
H1399 C1383 0.960 . S
C1400 C1401 1.391 . S
C1400 C1402 1.394 . S
C1400 H1416 0.931 . S
C1401 C1400 1.391 . S
C1401 C1405 1.376 . S
C1402 C1400 1.394 . S
C1402 C1403 1.369 . S
C1402 C1406 1.531 . S
C1403 C1402 1.369 . S
C1403 C1404 1.410 . S
C1403 C1411 1.503 . S
C1404 C1403 1.410 . S
C1404 C1405 1.392 . S
C1404 C1407 1.511 . S
C1405 C1401 1.376 . S
C1405 C1404 1.392 . S
C1405 H1417 0.929 . S
C1406 C1402 1.531 . S
C1406 H1418 0.960 . S
C1406 H1419 0.962 . S
C1406 H1420 0.960 . S
C1407 C1404 1.511 . S
C1407 H1421 0.961 . S
C1407 H1422 0.961 . S
C1407 H1423 0.961 . S
C1408 C1409 1.370 . S
C1408 C1410 1.363 . S
C1408 H1424 0.931 . S
C1409 C1408 1.370 . S
C1409 C1413 1.408 . S
C1410 C1408 1.363 . S
C1410 C1411 1.370 . S
C1410 C1414 1.524 . S
C1411 C1403 1.503 . S
C1411 C1410 1.370 . S
C1411 C1412 1.403 . S
C1412 C1411 1.403 . S
C1412 C1413 1.404 . S
C1412 C1415 1.539 . S
C1413 C1409 1.408 . S
C1413 C1412 1.404 . S
C1413 H1425 0.930 . S
C1414 C1410 1.524 . S
C1414 H1426 0.956 . S
C1414 H1427 0.961 . S
C1414 H1428 0.961 . S
C1415 C1412 1.539 . S
C1415 H1429 0.958 . S
C1415 H1430 0.961 . S
C1415 H1431 0.960 . S
H1416 C1400 0.931 . S
H1417 C1405 0.929 . S
H1418 C1406 0.960 . S
H1419 C1406 0.962 . S
H1420 C1406 0.960 . S
H1421 C1407 0.961 . S
H1422 C1407 0.961 . S
H1423 C1407 0.961 . S
H1424 C1408 0.931 . S
H1425 C1413 0.930 . S
H1426 C1414 0.956 . S
H1427 C1414 0.961 . S
H1428 C1414 0.961 . S
H1429 C1415 0.958 . S
H1430 C1415 0.961 . S
H1431 C1415 0.960 . S
C1432 C1433 1.391 . S
C1432 C1434 1.394 . S
C1432 H1448 0.931 . S
C1433 C1432 1.391 . S
C1433 C1437 1.376 . S
C1434 C1432 1.394 . S
C1434 C1435 1.369 . S
C1434 C1438 1.531 . S
C1435 C1434 1.369 . S
C1435 C1436 1.410 . S
C1435 C1443 1.503 . S
C1436 C1435 1.410 . S
C1436 C1437 1.392 . S
C1436 C1439 1.511 . S
C1437 C1433 1.376 . S
C1437 C1436 1.392 . S
C1437 H1449 0.929 . S
C1438 C1434 1.531 . S
C1438 H1450 0.960 . S
C1438 H1451 0.962 . S
C1438 H1452 0.960 . S
C1439 C1436 1.511 . S
C1439 H1453 0.961 . S
C1439 H1454 0.961 . S
C1439 H1455 0.961 . S
C1440 C1441 1.370 . S
C1440 C1442 1.363 . S
C1440 H1456 0.931 . S
C1441 C1440 1.370 . S
C1441 C1445 1.408 . S
C1442 C1440 1.363 . S
C1442 C1443 1.370 . S
C1442 C1446 1.524 . S
C1443 C1435 1.503 . S
C1443 C1442 1.370 . S
C1443 C1444 1.403 . S
C1444 C1443 1.403 . S
C1444 C1445 1.404 . S
C1444 C1447 1.539 . S
C1445 C1441 1.408 . S
C1445 C1444 1.404 . S
C1445 H1457 0.930 . S
C1446 C1442 1.524 . S
C1446 H1458 0.956 . S
C1446 H1459 0.961 . S
C1446 H1460 0.961 . S
C1447 C1444 1.539 . S
C1447 H1461 0.958 . S
C1447 H1462 0.961 . S
C1447 H1463 0.960 . S
H1448 C1432 0.931 . S
H1449 C1437 0.929 . S
H1450 C1438 0.960 . S
H1451 C1438 0.962 . S
H1452 C1438 0.960 . S
H1453 C1439 0.961 . S
H1454 C1439 0.961 . S
H1455 C1439 0.961 . S
H1456 C1440 0.931 . S
H1457 C1445 0.930 . S
H1458 C1446 0.956 . S
H1459 C1446 0.961 . S
H1460 C1446 0.961 . S
H1461 C1447 0.958 . S
H1462 C1447 0.961 . S
H1463 C1447 0.960 . S
C1464 C1465 1.391 . S
C1464 C1466 1.394 . S
C1464 H1480 0.931 . S
C1465 C1464 1.391 . S
C1465 C1469 1.376 . S
C1466 C1464 1.394 . S
C1466 C1467 1.369 . S
C1466 C1470 1.531 . S
C1467 C1466 1.369 . S
C1467 C1468 1.410 . S
C1467 C1475 1.503 . S
C1468 C1467 1.410 . S
C1468 C1469 1.392 . S
C1468 C1471 1.511 . S
C1469 C1465 1.376 . S
C1469 C1468 1.392 . S
C1469 H1481 0.929 . S
C1470 C1466 1.531 . S
C1470 H1482 0.960 . S
C1470 H1483 0.962 . S
C1470 H1484 0.960 . S
C1471 C1468 1.511 . S
C1471 H1485 0.961 . S
C1471 H1486 0.961 . S
C1471 H1487 0.961 . S
C1472 C1473 1.370 . S
C1472 C1474 1.363 . S
C1472 H1488 0.931 . S
C1473 C1472 1.370 . S
C1473 C1477 1.408 . S
C1474 C1472 1.363 . S
C1474 C1475 1.370 . S
C1474 C1478 1.524 . S
C1475 C1467 1.503 . S
C1475 C1474 1.370 . S
C1475 C1476 1.403 . S
C1476 C1475 1.403 . S
C1476 C1477 1.404 . S
C1476 C1479 1.539 . S
C1477 C1473 1.408 . S
C1477 C1476 1.404 . S
C1477 H1489 0.930 . S
C1478 C1474 1.524 . S
C1478 H1490 0.956 . S
C1478 H1491 0.961 . S
C1478 H1492 0.961 . S
C1479 C1476 1.539 . S
C1479 H1493 0.958 . S
C1479 H1494 0.961 . S
C1479 H1495 0.960 . S
H1480 C1464 0.931 . S
H1481 C1469 0.929 . S
H1482 C1470 0.960 . S
H1483 C1470 0.962 . S
H1484 C1470 0.960 . S
H1485 C1471 0.961 . S
H1486 C1471 0.961 . S
H1487 C1471 0.961 . S
H1488 C1472 0.931 . S
H1489 C1477 0.930 . S
H1490 C1478 0.956 . S
H1491 C1478 0.961 . S
H1492 C1478 0.961 . S
H1493 C1479 0.958 . S
H1494 C1479 0.961 . S
H1495 C1479 0.960 . S
C1496 C1497 1.391 . S
C1496 C1498 1.394 . S
C1496 H1512 0.931 . S
C1497 C1496 1.391 . S
C1497 C1501 1.376 . S
C1498 C1496 1.394 . S
C1498 C1499 1.369 . S
C1498 C1502 1.531 . S
C1499 C1498 1.369 . S
C1499 C1500 1.410 . S
C1499 C1507 1.503 . S
C1500 C1499 1.410 . S
C1500 C1501 1.392 . S
C1500 C1503 1.511 . S
C1501 C1497 1.376 . S
C1501 C1500 1.392 . S
C1501 H1513 0.929 . S
C1502 C1498 1.531 . S
C1502 H1514 0.960 . S
C1502 H1515 0.962 . S
C1502 H1516 0.960 . S
C1503 C1500 1.511 . S
C1503 H1517 0.961 . S
C1503 H1518 0.961 . S
C1503 H1519 0.961 . S
C1504 C1505 1.370 . S
C1504 C1506 1.363 . S
C1504 H1520 0.931 . S
C1505 C1504 1.370 . S
C1505 C1509 1.408 . S
C1506 C1504 1.363 . S
C1506 C1507 1.370 . S
C1506 C1510 1.524 . S
C1507 C1499 1.503 . S
C1507 C1506 1.370 . S
C1507 C1508 1.403 . S
C1508 C1507 1.403 . S
C1508 C1509 1.404 . S
C1508 C1511 1.539 . S
C1509 C1505 1.408 . S
C1509 C1508 1.404 . S
C1509 H1521 0.930 . S
C1510 C1506 1.524 . S
C1510 H1522 0.956 . S
C1510 H1523 0.961 . S
C1510 H1524 0.961 . S
C1511 C1508 1.539 . S
C1511 H1525 0.958 . S
C1511 H1526 0.961 . S
C1511 H1527 0.960 . S
H1512 C1496 0.931 . S
H1513 C1501 0.929 . S
H1514 C1502 0.960 . S
H1515 C1502 0.962 . S
H1516 C1502 0.960 . S
H1517 C1503 0.961 . S
H1518 C1503 0.961 . S
H1519 C1503 0.961 . S
H1520 C1504 0.931 . S
H1521 C1509 0.930 . S
H1522 C1510 0.956 . S
H1523 C1510 0.961 . S
H1524 C1510 0.961 . S
H1525 C1511 0.958 . S
H1526 C1511 0.961 . S
H1527 C1511 0.960 . S
C1528 C1529 1.391 . S
C1528 C1530 1.394 . S
C1528 H1544 0.931 . S
C1529 C1528 1.391 . S
C1529 C1533 1.376 . S
C1530 C1528 1.394 . S
C1530 C1531 1.369 . S
C1530 C1534 1.531 . S
C1531 C1530 1.369 . S
C1531 C1532 1.410 . S
C1531 C1539 1.503 . S
C1532 C1531 1.410 . S
C1532 C1533 1.392 . S
C1532 C1535 1.511 . S
C1533 C1529 1.376 . S
C1533 C1532 1.392 . S
C1533 H1545 0.929 . S
C1534 C1530 1.531 . S
C1534 H1546 0.960 . S
C1534 H1547 0.962 . S
C1534 H1548 0.960 . S
C1535 C1532 1.511 . S
C1535 H1549 0.961 . S
C1535 H1550 0.961 . S
C1535 H1551 0.961 . S
C1536 C1537 1.370 . S
C1536 C1538 1.363 . S
C1536 H1552 0.931 . S
C1537 C1536 1.370 . S
C1537 C1541 1.408 . S
C1538 C1536 1.363 . S
C1538 C1539 1.370 . S
C1538 C1542 1.524 . S
C1539 C1531 1.503 . S
C1539 C1538 1.370 . S
C1539 C1540 1.403 . S
C1540 C1539 1.403 . S
C1540 C1541 1.404 . S
C1540 C1543 1.539 . S
C1541 C1537 1.408 . S
C1541 C1540 1.404 . S
C1541 H1553 0.930 . S
C1542 C1538 1.524 . S
C1542 H1554 0.956 . S
C1542 H1555 0.961 . S
C1542 H1556 0.961 . S
C1543 C1540 1.539 . S
C1543 H1557 0.958 . S
C1543 H1558 0.961 . S
C1543 H1559 0.960 . S
H1544 C1528 0.931 . S
H1545 C1533 0.929 . S
H1546 C1534 0.960 . S
H1547 C1534 0.962 . S
H1548 C1534 0.960 . S
H1549 C1535 0.961 . S
H1550 C1535 0.961 . S
H1551 C1535 0.961 . S
H1552 C1536 0.931 . S
H1553 C1541 0.930 . S
H1554 C1542 0.956 . S
H1555 C1542 0.961 . S
H1556 C1542 0.961 . S
H1557 C1543 0.958 . S
H1558 C1543 0.961 . S
H1559 C1543 0.960 . S
C1560 C1561 1.391 . S
C1560 C1562 1.394 . S
C1560 H1576 0.931 . S
C1561 C1560 1.391 . S
C1561 C1565 1.376 . S
C1562 C1560 1.394 . S
C1562 C1563 1.369 . S
C1562 C1566 1.531 . S
C1563 C1562 1.369 . S
C1563 C1564 1.410 . S
C1563 C1571 1.503 . S
C1564 C1563 1.410 . S
C1564 C1565 1.392 . S
C1564 C1567 1.511 . S
C1565 C1561 1.376 . S
C1565 C1564 1.392 . S
C1565 H1577 0.929 . S
C1566 C1562 1.531 . S
C1566 H1578 0.960 . S
C1566 H1579 0.962 . S
C1566 H1580 0.960 . S
C1567 C1564 1.511 . S
C1567 H1581 0.961 . S
C1567 H1582 0.961 . S
C1567 H1583 0.961 . S
C1568 C1569 1.370 . S
C1568 C1570 1.363 . S
C1568 H1584 0.931 . S
C1569 C1568 1.370 . S
C1569 C1573 1.408 . S
C1570 C1568 1.363 . S
C1570 C1571 1.370 . S
C1570 C1574 1.524 . S
C1571 C1563 1.503 . S
C1571 C1570 1.370 . S
C1571 C1572 1.403 . S
C1572 C1571 1.403 . S
C1572 C1573 1.404 . S
C1572 C1575 1.539 . S
C1573 C1569 1.408 . S
C1573 C1572 1.404 . S
C1573 H1585 0.930 . S
C1574 C1570 1.524 . S
C1574 H1586 0.956 . S
C1574 H1587 0.961 . S
C1574 H1588 0.961 . S
C1575 C1572 1.539 . S
C1575 H1589 0.958 . S
C1575 H1590 0.961 . S
C1575 H1591 0.960 . S
H1576 C1560 0.931 . S
H1577 C1565 0.929 . S
H1578 C1566 0.960 . S
H1579 C1566 0.962 . S
H1580 C1566 0.960 . S
H1581 C1567 0.961 . S
H1582 C1567 0.961 . S
H1583 C1567 0.961 . S
H1584 C1568 0.931 . S
H1585 C1573 0.930 . S
H1586 C1574 0.956 . S
H1587 C1574 0.961 . S
H1588 C1574 0.961 . S
H1589 C1575 0.958 . S
H1590 C1575 0.961 . S
H1591 C1575 0.960 . S
C1592 C1593 1.391 . S
C1592 C1594 1.394 . S
C1592 H1608 0.931 . S
C1593 C1592 1.391 . S
C1593 C1597 1.376 . S
C1594 C1592 1.394 . S
C1594 C1595 1.369 . S
C1594 C1598 1.531 . S
C1595 C1594 1.369 . S
C1595 C1596 1.410 . S
C1595 C1603 1.503 . S
C1596 C1595 1.410 . S
C1596 C1597 1.392 . S
C1596 C1599 1.511 . S
C1597 C1593 1.376 . S
C1597 C1596 1.392 . S
C1597 H1609 0.929 . S
C1598 C1594 1.531 . S
C1598 H1610 0.960 . S
C1598 H1611 0.962 . S
C1598 H1612 0.960 . S
C1599 C1596 1.511 . S
C1599 H1613 0.961 . S
C1599 H1614 0.961 . S
C1599 H1615 0.961 . S
C1600 C1601 1.370 . S
C1600 C1602 1.363 . S
C1600 H1616 0.931 . S
C1601 C1600 1.370 . S
C1601 C1605 1.408 . S
C1602 C1600 1.363 . S
C1602 C1603 1.370 . S
C1602 C1606 1.524 . S
C1603 C1595 1.503 . S
C1603 C1602 1.370 . S
C1603 C1604 1.403 . S
C1604 C1603 1.403 . S
C1604 C1605 1.404 . S
C1604 C1607 1.539 . S
C1605 C1601 1.408 . S
C1605 C1604 1.404 . S
C1605 H1617 0.930 . S
C1606 C1602 1.524 . S
C1606 H1618 0.956 . S
C1606 H1619 0.961 . S
C1606 H1620 0.961 . S
C1607 C1604 1.539 . S
C1607 H1621 0.958 . S
C1607 H1622 0.961 . S
C1607 H1623 0.960 . S
H1608 C1592 0.931 . S
H1609 C1597 0.929 . S
H1610 C1598 0.960 . S
H1611 C1598 0.962 . S
H1612 C1598 0.960 . S
H1613 C1599 0.961 . S
H1614 C1599 0.961 . S
H1615 C1599 0.961 . S
H1616 C1600 0.931 . S
H1617 C1605 0.930 . S
H1618 C1606 0.956 . S
H1619 C1606 0.961 . S
H1620 C1606 0.961 . S
H1621 C1607 0.958 . S
H1622 C1607 0.961 . S
H1623 C1607 0.960 . S
C1624 C1625 1.391 . S
C1624 C1626 1.394 . S
C1624 H1640 0.931 . S
C1625 C1624 1.391 . S
C1625 C1629 1.376 . S
C1626 C1624 1.394 . S
C1626 C1627 1.369 . S
C1626 C1630 1.531 . S
C1627 C1626 1.369 . S
C1627 C1628 1.410 . S
C1627 C1635 1.503 . S
C1628 C1627 1.410 . S
C1628 C1629 1.392 . S
C1628 C1631 1.511 . S
C1629 C1625 1.376 . S
C1629 C1628 1.392 . S
C1629 H1641 0.929 . S
C1630 C1626 1.531 . S
C1630 H1642 0.960 . S
C1630 H1643 0.962 . S
C1630 H1644 0.960 . S
C1631 C1628 1.511 . S
C1631 H1645 0.961 . S
C1631 H1646 0.961 . S
C1631 H1647 0.961 . S
C1632 C1633 1.370 . S
C1632 C1634 1.363 . S
C1632 H1648 0.931 . S
C1633 C1632 1.370 . S
C1633 C1637 1.408 . S
C1634 C1632 1.363 . S
C1634 C1635 1.370 . S
C1634 C1638 1.524 . S
C1635 C1627 1.503 . S
C1635 C1634 1.370 . S
C1635 C1636 1.403 . S
C1636 C1635 1.403 . S
C1636 C1637 1.404 . S
C1636 C1639 1.539 . S
C1637 C1633 1.408 . S
C1637 C1636 1.404 . S
C1637 H1649 0.930 . S
C1638 C1634 1.524 . S
C1638 H1650 0.956 . S
C1638 H1651 0.961 . S
C1638 H1652 0.961 . S
C1639 C1636 1.539 . S
C1639 H1653 0.958 . S
C1639 H1654 0.961 . S
C1639 H1655 0.960 . S
H1640 C1624 0.931 . S
H1641 C1629 0.929 . S
H1642 C1630 0.960 . S
H1643 C1630 0.962 . S
H1644 C1630 0.960 . S
H1645 C1631 0.961 . S
H1646 C1631 0.961 . S
H1647 C1631 0.961 . S
H1648 C1632 0.931 . S
H1649 C1637 0.930 . S
H1650 C1638 0.956 . S
H1651 C1638 0.961 . S
H1652 C1638 0.961 . S
H1653 C1639 0.958 . S
H1654 C1639 0.961 . S
H1655 C1639 0.960 . S
C1656 C1657 1.391 . S
C1656 C1658 1.394 . S
C1656 H1672 0.931 . S
C1657 C1656 1.391 . S
C1657 C1661 1.376 . S
C1658 C1656 1.394 . S
C1658 C1659 1.369 . S
C1658 C1662 1.531 . S
C1659 C1658 1.369 . S
C1659 C1660 1.410 . S
C1659 C1667 1.503 . S
C1660 C1659 1.410 . S
C1660 C1661 1.392 . S
C1660 C1663 1.511 . S
C1661 C1657 1.376 . S
C1661 C1660 1.392 . S
C1661 H1673 0.929 . S
C1662 C1658 1.531 . S
C1662 H1674 0.960 . S
C1662 H1675 0.962 . S
C1662 H1676 0.960 . S
C1663 C1660 1.511 . S
C1663 H1677 0.961 . S
C1663 H1678 0.961 . S
C1663 H1679 0.961 . S
C1664 C1665 1.370 . S
C1664 C1666 1.363 . S
C1664 H1680 0.931 . S
C1665 C1664 1.370 . S
C1665 C1669 1.408 . S
C1666 C1664 1.363 . S
C1666 C1667 1.370 . S
C1666 C1670 1.524 . S
C1667 C1659 1.503 . S
C1667 C1666 1.370 . S
C1667 C1668 1.403 . S
C1668 C1667 1.403 . S
C1668 C1669 1.404 . S
C1668 C1671 1.539 . S
C1669 C1665 1.408 . S
C1669 C1668 1.404 . S
C1669 H1681 0.930 . S
C1670 C1666 1.524 . S
C1670 H1682 0.956 . S
C1670 H1683 0.961 . S
C1670 H1684 0.961 . S
C1671 C1668 1.539 . S
C1671 H1685 0.958 . S
C1671 H1686 0.961 . S
C1671 H1687 0.960 . S
H1672 C1656 0.931 . S
H1673 C1661 0.929 . S
H1674 C1662 0.960 . S
H1675 C1662 0.962 . S
H1676 C1662 0.960 . S
H1677 C1663 0.961 . S
H1678 C1663 0.961 . S
H1679 C1663 0.961 . S
H1680 C1664 0.931 . S
H1681 C1669 0.930 . S
H1682 C1670 0.956 . S
H1683 C1670 0.961 . S
H1684 C1670 0.961 . S
H1685 C1671 0.958 . S
H1686 C1671 0.961 . S
H1687 C1671 0.960 . S
C1688 C1689 1.391 . S
C1688 C1690 1.394 . S
C1688 H1704 0.931 . S
C1689 C1688 1.391 . S
C1689 C1693 1.376 . S
C1690 C1688 1.394 . S
C1690 C1691 1.369 . S
C1690 C1694 1.531 . S
C1691 C1690 1.369 . S
C1691 C1692 1.410 . S
C1691 C1699 1.503 . S
C1692 C1691 1.410 . S
C1692 C1693 1.392 . S
C1692 C1695 1.511 . S
C1693 C1689 1.376 . S
C1693 C1692 1.392 . S
C1693 H1705 0.929 . S
C1694 C1690 1.531 . S
C1694 H1706 0.960 . S
C1694 H1707 0.962 . S
C1694 H1708 0.960 . S
C1695 C1692 1.511 . S
C1695 H1709 0.961 . S
C1695 H1710 0.961 . S
C1695 H1711 0.961 . S
C1696 C1697 1.370 . S
C1696 C1698 1.363 . S
C1696 H1712 0.931 . S
C1697 C1696 1.370 . S
C1697 C1701 1.408 . S
C1698 C1696 1.363 . S
C1698 C1699 1.370 . S
C1698 C1702 1.524 . S
C1699 C1691 1.503 . S
C1699 C1698 1.370 . S
C1699 C1700 1.403 . S
C1700 C1699 1.403 . S
C1700 C1701 1.404 . S
C1700 C1703 1.539 . S
C1701 C1697 1.408 . S
C1701 C1700 1.404 . S
C1701 H1713 0.930 . S
C1702 C1698 1.524 . S
C1702 H1714 0.956 . S
C1702 H1715 0.961 . S
C1702 H1716 0.961 . S
C1703 C1700 1.539 . S
C1703 H1717 0.958 . S
C1703 H1718 0.961 . S
C1703 H1719 0.960 . S
H1704 C1688 0.931 . S
H1705 C1693 0.929 . S
H1706 C1694 0.960 . S
H1707 C1694 0.962 . S
H1708 C1694 0.960 . S
H1709 C1695 0.961 . S
H1710 C1695 0.961 . S
H1711 C1695 0.961 . S
H1712 C1696 0.931 . S
H1713 C1701 0.930 . S
H1714 C1702 0.956 . S
H1715 C1702 0.961 . S
H1716 C1702 0.961 . S
H1717 C1703 0.958 . S
H1718 C1703 0.961 . S
H1719 C1703 0.960 . S
C1720 C1721 1.391 . S
C1720 C1722 1.394 . S
C1720 H1736 0.931 . S
C1721 C1720 1.391 . S
C1721 C1725 1.376 . S
C1722 C1720 1.394 . S
C1722 C1723 1.369 . S
C1722 C1726 1.531 . S
C1723 C1722 1.369 . S
C1723 C1724 1.410 . S
C1723 C1731 1.503 . S
C1724 C1723 1.410 . S
C1724 C1725 1.392 . S
C1724 C1727 1.511 . S
C1725 C1721 1.376 . S
C1725 C1724 1.392 . S
C1725 H1737 0.929 . S
C1726 C1722 1.531 . S
C1726 H1738 0.960 . S
C1726 H1739 0.962 . S
C1726 H1740 0.960 . S
C1727 C1724 1.511 . S
C1727 H1741 0.961 . S
C1727 H1742 0.961 . S
C1727 H1743 0.961 . S
C1728 C1729 1.370 . S
C1728 C1730 1.363 . S
C1728 H1744 0.931 . S
C1729 C1728 1.370 . S
C1729 C1733 1.408 . S
C1730 C1728 1.363 . S
C1730 C1731 1.370 . S
C1730 C1734 1.524 . S
C1731 C1723 1.503 . S
C1731 C1730 1.370 . S
C1731 C1732 1.403 . S
C1732 C1731 1.403 . S
C1732 C1733 1.404 . S
C1732 C1735 1.539 . S
C1733 C1729 1.408 . S
C1733 C1732 1.404 . S
C1733 H1745 0.930 . S
C1734 C1730 1.524 . S
C1734 H1746 0.956 . S
C1734 H1747 0.961 . S
C1734 H1748 0.961 . S
C1735 C1732 1.539 . S
C1735 H1749 0.958 . S
C1735 H1750 0.961 . S
C1735 H1751 0.960 . S
H1736 C1720 0.931 . S
H1737 C1725 0.929 . S
H1738 C1726 0.960 . S
H1739 C1726 0.962 . S
H1740 C1726 0.960 . S
H1741 C1727 0.961 . S
H1742 C1727 0.961 . S
H1743 C1727 0.961 . S
H1744 C1728 0.931 . S
H1745 C1733 0.930 . S
H1746 C1734 0.956 . S
H1747 C1734 0.961 . S
H1748 C1734 0.961 . S
H1749 C1735 0.958 . S
H1750 C1735 0.961 . S
H1751 C1735 0.960 . S
C1752 C1753 1.391 . S
C1752 C1754 1.394 . S
C1752 H1768 0.931 . S
C1753 C1752 1.391 . S
C1753 C1757 1.376 . S
C1754 C1752 1.394 . S
C1754 C1755 1.369 . S
C1754 C1758 1.531 . S
C1755 C1754 1.369 . S
C1755 C1756 1.410 . S
C1755 C1763 1.503 . S
C1756 C1755 1.410 . S
C1756 C1757 1.392 . S
C1756 C1759 1.511 . S
C1757 C1753 1.376 . S
C1757 C1756 1.392 . S
C1757 H1769 0.929 . S
C1758 C1754 1.531 . S
C1758 H1770 0.960 . S
C1758 H1771 0.962 . S
C1758 H1772 0.960 . S
C1759 C1756 1.511 . S
C1759 H1773 0.961 . S
C1759 H1774 0.961 . S
C1759 H1775 0.961 . S
C1760 C1761 1.370 . S
C1760 C1762 1.363 . S
C1760 H1776 0.931 . S
C1761 C1760 1.370 . S
C1761 C1765 1.408 . S
C1762 C1760 1.363 . S
C1762 C1763 1.370 . S
C1762 C1766 1.524 . S
C1763 C1755 1.503 . S
C1763 C1762 1.370 . S
C1763 C1764 1.403 . S
C1764 C1763 1.403 . S
C1764 C1765 1.404 . S
C1764 C1767 1.539 . S
C1765 C1761 1.408 . S
C1765 C1764 1.404 . S
C1765 H1777 0.930 . S
C1766 C1762 1.524 . S
C1766 H1778 0.956 . S
C1766 H1779 0.961 . S
C1766 H1780 0.961 . S
C1767 C1764 1.539 . S
C1767 H1781 0.958 . S
C1767 H1782 0.961 . S
C1767 H1783 0.960 . S
H1768 C1752 0.931 . S
H1769 C1757 0.929 . S
H1770 C1758 0.960 . S
H1771 C1758 0.962 . S
H1772 C1758 0.960 . S
H1773 C1759 0.961 . S
H1774 C1759 0.961 . S
H1775 C1759 0.961 . S
H1776 C1760 0.931 . S
H1777 C1765 0.930 . S
H1778 C1766 0.956 . S
H1779 C1766 0.961 . S
H1780 C1766 0.961 . S
H1781 C1767 0.958 . S
H1782 C1767 0.961 . S
H1783 C1767 0.960 . S
C1784 C1785 1.391 . S
C1784 C1786 1.394 . S
C1784 H1800 0.931 . S
C1785 C1784 1.391 . S
C1785 C1789 1.376 . S
C1786 C1784 1.394 . S
C1786 C1787 1.369 . S
C1786 C1790 1.531 . S
C1787 C1786 1.369 . S
C1787 C1788 1.410 . S
C1787 C1795 1.503 . S
C1788 C1787 1.410 . S
C1788 C1789 1.392 . S
C1788 C1791 1.511 . S
C1789 C1785 1.376 . S
C1789 C1788 1.392 . S
C1789 H1801 0.929 . S
C1790 C1786 1.531 . S
C1790 H1802 0.960 . S
C1790 H1803 0.962 . S
C1790 H1804 0.960 . S
C1791 C1788 1.511 . S
C1791 H1805 0.961 . S
C1791 H1806 0.961 . S
C1791 H1807 0.961 . S
C1792 C1793 1.370 . S
C1792 C1794 1.363 . S
C1792 H1808 0.931 . S
C1793 C1792 1.370 . S
C1793 C1797 1.408 . S
C1794 C1792 1.363 . S
C1794 C1795 1.370 . S
C1794 C1798 1.524 . S
C1795 C1787 1.503 . S
C1795 C1794 1.370 . S
C1795 C1796 1.403 . S
C1796 C1795 1.403 . S
C1796 C1797 1.404 . S
C1796 C1799 1.539 . S
C1797 C1793 1.408 . S
C1797 C1796 1.404 . S
C1797 H1809 0.930 . S
C1798 C1794 1.524 . S
C1798 H1810 0.956 . S
C1798 H1811 0.961 . S
C1798 H1812 0.961 . S
C1799 C1796 1.539 . S
C1799 H1813 0.958 . S
C1799 H1814 0.961 . S
C1799 H1815 0.960 . S
H1800 C1784 0.931 . S
H1801 C1789 0.929 . S
H1802 C1790 0.960 . S
H1803 C1790 0.962 . S
H1804 C1790 0.960 . S
H1805 C1791 0.961 . S
H1806 C1791 0.961 . S
H1807 C1791 0.961 . S
H1808 C1792 0.931 . S
H1809 C1797 0.930 . S
H1810 C1798 0.956 . S
H1811 C1798 0.961 . S
H1812 C1798 0.961 . S
H1813 C1799 0.958 . S
H1814 C1799 0.961 . S
H1815 C1799 0.960 . S
C1816 C1817 1.391 . S
C1816 C1818 1.394 . S
C1816 H1832 0.931 . S
C1817 C1816 1.391 . S
C1817 C1821 1.376 . S
C1818 C1816 1.394 . S
C1818 C1819 1.369 . S
C1818 C1822 1.531 . S
C1819 C1818 1.369 . S
C1819 C1820 1.410 . S
C1819 C1827 1.503 . S
C1820 C1819 1.410 . S
C1820 C1821 1.392 . S
C1820 C1823 1.511 . S
C1821 C1817 1.376 . S
C1821 C1820 1.392 . S
C1821 H1833 0.929 . S
C1822 C1818 1.531 . S
C1822 H1834 0.960 . S
C1822 H1835 0.962 . S
C1822 H1836 0.960 . S
C1823 C1820 1.511 . S
C1823 H1837 0.961 . S
C1823 H1838 0.961 . S
C1823 H1839 0.961 . S
C1824 C1825 1.370 . S
C1824 C1826 1.363 . S
C1824 H1840 0.931 . S
C1825 C1824 1.370 . S
C1825 C1829 1.408 . S
C1826 C1824 1.363 . S
C1826 C1827 1.370 . S
C1826 C1830 1.524 . S
C1827 C1819 1.503 . S
C1827 C1826 1.370 . S
C1827 C1828 1.403 . S
C1828 C1827 1.403 . S
C1828 C1829 1.404 . S
C1828 C1831 1.539 . S
C1829 C1825 1.408 . S
C1829 C1828 1.404 . S
C1829 H1841 0.930 . S
C1830 C1826 1.524 . S
C1830 H1842 0.956 . S
C1830 H1843 0.961 . S
C1830 H1844 0.961 . S
C1831 C1828 1.539 . S
C1831 H1845 0.958 . S
C1831 H1846 0.961 . S
C1831 H1847 0.960 . S
H1832 C1816 0.931 . S
H1833 C1821 0.929 . S
H1834 C1822 0.960 . S
H1835 C1822 0.962 . S
H1836 C1822 0.960 . S
H1837 C1823 0.961 . S
H1838 C1823 0.961 . S
H1839 C1823 0.961 . S
H1840 C1824 0.931 . S
H1841 C1829 0.930 . S
H1842 C1830 0.956 . S
H1843 C1830 0.961 . S
H1844 C1830 0.961 . S
H1845 C1831 0.958 . S
H1846 C1831 0.961 . S
H1847 C1831 0.960 . S
C1848 C1849 1.391 . S
C1848 C1850 1.394 . S
C1848 H1864 0.931 . S
C1849 C1848 1.391 . S
C1849 C1853 1.376 . S
C1850 C1848 1.394 . S
C1850 C1851 1.369 . S
C1850 C1854 1.531 . S
C1851 C1850 1.369 . S
C1851 C1852 1.410 . S
C1851 C1859 1.503 . S
C1852 C1851 1.410 . S
C1852 C1853 1.392 . S
C1852 C1855 1.511 . S
C1853 C1849 1.376 . S
C1853 C1852 1.392 . S
C1853 H1865 0.929 . S
C1854 C1850 1.531 . S
C1854 H1866 0.960 . S
C1854 H1867 0.962 . S
C1854 H1868 0.960 . S
C1855 C1852 1.511 . S
C1855 H1869 0.961 . S
C1855 H1870 0.961 . S
C1855 H1871 0.961 . S
C1856 C1857 1.370 . S
C1856 C1858 1.363 . S
C1856 H1872 0.931 . S
C1857 C1856 1.370 . S
C1857 C1861 1.408 . S
C1858 C1856 1.363 . S
C1858 C1859 1.370 . S
C1858 C1862 1.524 . S
C1859 C1851 1.503 . S
C1859 C1858 1.370 . S
C1859 C1860 1.403 . S
C1860 C1859 1.403 . S
C1860 C1861 1.404 . S
C1860 C1863 1.539 . S
C1861 C1857 1.408 . S
C1861 C1860 1.404 . S
C1861 H1873 0.930 1_556 S
C1862 C1858 1.524 . S
C1862 H1874 0.956 . S
C1862 H1875 0.961 . S
C1862 H1876 0.961 . S
C1863 C1860 1.539 . S
C1863 H1877 0.951 1_556 S
C1863 H1878 0.961 1_556 S
C1863 H1879 0.960 . S
H1864 C1848 0.931 . S
H1865 C1853 0.929 . S
H1866 C1854 0.960 . S
H1867 C1854 0.962 . S
H1868 C1854 0.960 . S
H1869 C1855 0.961 . S
H1870 C1855 0.961 . S
H1871 C1855 0.961 . S
H1872 C1856 0.931 . S
H1873 C1861 0.930 1_554 S
H1874 C1862 0.956 . S
H1875 C1862 0.961 . S
H1876 C1862 0.961 . S
H1877 C1863 0.951 1_554 S
H1878 C1863 0.961 1_554 S
H1879 C1863 0.960 . S
C1880 C1881 1.391 . S
C1880 C1882 1.394 . S
C1880 H1896 0.931 . S
C1881 C1880 1.391 . S
C1881 C1885 1.376 . S
C1882 C1880 1.394 . S
C1882 C1883 1.369 . S
C1882 C1886 1.531 . S
C1883 C1882 1.369 . S
C1883 C1884 1.410 . S
C1883 C1891 1.503 . S
C1884 C1883 1.410 . S
C1884 C1885 1.392 . S
C1884 C1887 1.511 . S
C1885 C1881 1.376 . S
C1885 C1884 1.392 . S
C1885 H1897 0.929 . S
C1886 C1882 1.531 . S
C1886 H1898 0.960 . S
C1886 H1899 0.962 . S
C1886 H1900 0.960 . S
C1887 C1884 1.511 . S
C1887 H1901 0.961 . S
C1887 H1902 0.961 . S
C1887 H1903 0.961 . S
C1888 C1889 1.370 . S
C1888 C1890 1.363 . S
C1888 H1904 0.931 . S
C1889 C1888 1.370 . S
C1889 C1893 1.408 . S
C1890 C1888 1.363 . S
C1890 C1891 1.370 . S
C1890 C1894 1.524 . S
C1891 C1883 1.503 . S
C1891 C1890 1.370 . S
C1891 C1892 1.403 . S
C1892 C1891 1.403 . S
C1892 C1893 1.404 . S
C1892 C1895 1.539 . S
C1893 C1889 1.408 . S
C1893 C1892 1.404 . S
C1893 H1905 0.930 . S
C1894 C1890 1.524 . S
C1894 H1906 0.956 . S
C1894 H1907 0.961 . S
C1894 H1908 0.961 . S
C1895 C1892 1.539 . S
C1895 H1909 0.958 . S
C1895 H1910 0.961 . S
C1895 H1911 0.960 . S
H1896 C1880 0.931 . S
H1897 C1885 0.929 . S
H1898 C1886 0.960 . S
H1899 C1886 0.962 . S
H1900 C1886 0.960 . S
H1901 C1887 0.961 . S
H1902 C1887 0.961 . S
H1903 C1887 0.961 . S
H1904 C1888 0.931 . S
H1905 C1893 0.930 . S
H1906 C1894 0.956 . S
H1907 C1894 0.961 . S
H1908 C1894 0.961 . S
H1909 C1895 0.958 . S
H1910 C1895 0.961 . S
H1911 C1895 0.960 . S
C1912 C1913 1.391 . S
C1912 C1914 1.394 . S
C1912 H1928 0.931 . S
C1913 C1912 1.391 . S
C1913 C1917 1.376 . S
C1914 C1912 1.394 . S
C1914 C1915 1.369 . S
C1914 C1918 1.531 . S
C1915 C1914 1.369 . S
C1915 C1916 1.410 . S
C1915 C1923 1.503 . S
C1916 C1915 1.410 . S
C1916 C1917 1.392 . S
C1916 C1919 1.511 . S
C1917 C1913 1.376 . S
C1917 C1916 1.392 . S
C1917 H1929 0.929 . S
C1918 C1914 1.531 . S
C1918 H1930 0.960 . S
C1918 H1931 0.962 . S
C1918 H1932 0.960 . S
C1919 C1916 1.511 . S
C1919 H1933 0.961 . S
C1919 H1934 0.961 . S
C1919 H1935 0.961 . S
C1920 C1921 1.370 . S
C1920 C1922 1.363 . S
C1920 H1936 0.931 . S
C1921 C1920 1.370 . S
C1921 C1925 1.408 . S
C1922 C1920 1.363 . S
C1922 C1923 1.370 . S
C1922 C1926 1.524 . S
C1923 C1915 1.503 . S
C1923 C1922 1.370 . S
C1923 C1924 1.403 . S
C1924 C1923 1.403 . S
C1924 C1925 1.404 . S
C1924 C1927 1.539 . S
C1925 C1921 1.408 . S
C1925 C1924 1.404 . S
C1925 H1937 0.930 . S
C1926 C1922 1.524 . S
C1926 H1938 0.956 . S
C1926 H1939 0.961 . S
C1926 H1940 0.961 . S
C1927 C1924 1.539 . S
C1927 H1941 0.958 . S
C1927 H1942 0.961 . S
C1927 H1943 0.960 . S
H1928 C1912 0.931 . S
H1929 C1917 0.929 . S
H1930 C1918 0.960 . S
H1931 C1918 0.962 . S
H1932 C1918 0.960 . S
H1933 C1919 0.961 . S
H1934 C1919 0.961 . S
H1935 C1919 0.961 . S
H1936 C1920 0.931 . S
H1937 C1925 0.930 . S
H1938 C1926 0.956 . S
H1939 C1926 0.961 . S
H1940 C1926 0.961 . S
H1941 C1927 0.958 . S
H1942 C1927 0.961 . S
H1943 C1927 0.960 . S
C929 C525 1.591 . S
C921 C47 1.515 . S
C961 C578 1.331 . S
C953 C115 1.270 . S
C993 C641 1.583 . S
C985 C153 1.410 . S
C1025 C684 1.434 . S
C1017 C233 1.329 . S
C1049 C283 1.523 . S
C1057 C640 1.554 . S
C1089 C677 1.428 . S
C1081 C357 1.342 . S
C1121 C518 1.631 . S
C1113 C401 1.481 . S
C1153 C571 1.333 . S
C1145 C463 1.180 . S
C1185 C624 1.433 . S
C1177 C469 1.347 . S
C1217 C693 1.806 . S
C1209 C277 1.711 . S
C1249 C534 1.575 . S
C1241 C363 1.566 . S
C1281 C587 1.621 . S
C1273 C407 1.600 . S
C1313 C535 1.570 . S
C1305 C109 1.415 . S
C1345 C588 1.690 . S
C1337 C159 1.619 . S
C1377 C631 1.398 . S
C1369 C239 1.393 . S
C1409 C694 1.730 . S
C1401 C53 1.681 . S
C1441 C737 1.576 . S
C1433 C481 1.408 . S
C1465 C301 1.627 . S
C1473 C790 1.697 . S
C1497 C339 1.504 . S
C1505 C852 1.597 . S
C1529 C419 1.697 . S
C1537 C906 1.842 . S
C1561 C97 1.453 . S
C1569 C853 1.523 . S
C1593 C171 1.739 . S
C1601 C905 1.860 . S
C1625 C215 1.510 . S
C1633 C730 1.643 . S
C1665 C783 1.721 . S
C1657 C29 1.528 . S
C1697 C843 1.403 . S
C1689 C35 1.341 . S
C1721 C91 1.240 . S
C1729 C889 1.356 . S
C1753 C177 1.575 . S
C1761 C746 1.612 . S
C1785 C221 1.226 . S
C1793 C799 1.258 . S
C1825 C747 1.550 . S
C1817 C295 1.442 . S
C1857 C800 1.311 . S
C1849 C345 1.262 . S
C1881 C425 1.408 . S
C1889 C836 1.418 . S
C1921 C896 1.302 . S
C1913 C487 1.256 . S
