# Generated by pormake.
# Topology anh, (6,3)-cn, num edge types: 1
# Building blocks:
#     Node 0, Type 0, BuildingBlock: MIFKUJ_clean_sbu_0, # of connection points: 6
#     Node 1, Type 0, BuildingBlock: MIFKUJ_clean_sbu_0, # of connection points: 6
#     Node 2, Type 0, BuildingBlock: MIFKUJ_clean_sbu_0, # of connection points: 6
#     Node 3, Type 1, BuildingBlock: BELTOD_clean_linker_0, # of connection points: 3
#     Node 4, Type 1, BuildingBlock: BELTOD_clean_linker_0, # of connection points: 3
#     Node 5, Type 1, BuildingBlock: BELTOD_clean_linker_0, # of connection points: 3
#     Node 6, Type 1, BuildingBlock: BELTOD_clean_linker_0, # of connection points: 3
#     Node 7, Type 1, BuildingBlock: BELTOD_clean_linker_0, # of connection points: 3
#     Node 8, Type 1, BuildingBlock: BELTOD_clean_linker_0, # of connection points: 3
#     Edge 9, Type (0, 1), BuildingBlock: UVAHIK_clean_linker_0, # of connection points: 2
#     Edge 10, Type (0, 1), BuildingBlock: UVAHIK_clean_linker_0, # of connection points: 2
#     Edge 11, Type (0, 1), BuildingBlock: UVAHIK_clean_linker_0, # of connection points: 2
#     Edge 12, Type (0, 1), BuildingBlock: UVAHIK_clean_linker_0, # of connection points: 2
#     Edge 13, Type (0, 1), BuildingBlock: UVAHIK_clean_linker_0, # of connection points: 2
#     Edge 14, Type (0, 1), BuildingBlock: UVAHIK_clean_linker_0, # of connection points: 2
#     Edge 15, Type (0, 1), BuildingBlock: UVAHIK_clean_linker_0, # of connection points: 2
#     Edge 16, Type (0, 1), BuildingBlock: UVAHIK_clean_linker_0, # of connection points: 2
#     Edge 17, Type (0, 1), BuildingBlock: UVAHIK_clean_linker_0, # of connection points: 2
#     Edge 18, Type (0, 1), BuildingBlock: UVAHIK_clean_linker_0, # of connection points: 2
#     Edge 19, Type (0, 1), BuildingBlock: UVAHIK_clean_linker_0, # of connection points: 2
#     Edge 20, Type (0, 1), BuildingBlock: UVAHIK_clean_linker_0, # of connection points: 2
#     Edge 21, Type (0, 1), BuildingBlock: UVAHIK_clean_linker_0, # of connection points: 2
#     Edge 22, Type (0, 1), BuildingBlock: UVAHIK_clean_linker_0, # of connection points: 2
#     Edge 23, Type (0, 1), BuildingBlock: UVAHIK_clean_linker_0, # of connection points: 2
#     Edge 24, Type (0, 1), BuildingBlock: UVAHIK_clean_linker_0, # of connection points: 2
#     Edge 25, Type (0, 1), BuildingBlock: UVAHIK_clean_linker_0, # of connection points: 2
#     Edge 26, Type (0, 1), BuildingBlock: UVAHIK_clean_linker_0, # of connection points: 2
# Relax obj value: 0.123
# Max RMSD: 0.176
# Mean RMSD: 0.132
data_MOF--net-anh--node1-MIFKUJ_clean_sbu_0--node2-BELTOD_clean_linker_0--edge1-UVAHIK_clean_linker_0
_symmetry_space_group_name_H-M    P1
_symmetry_Int_Tables_number       1
_symmetry_cell_setting            triclinic
loop_
_symmetry_equiv_pos_as_xyz
'x, y, z'
_cell_length_a     43.012733
_cell_length_b     43.018631
_cell_length_c     73.527431
_cell_angle_alpha  94.025031
_cell_angle_beta   90.755457
_cell_angle_gamma 119.88611
loop_
_atom_site_label
_atom_site_type_symbol
_atom_site_fract_x
_atom_site_fract_y
_atom_site_fract_z
_atom_type_partial_charge
Zn0 Zn 0.02529 0.57589 0.167 0.0
Zn1 Zn 0.95898 0.49699 0.16125 0.0
C2 C 0.08705 0.56896 0.17455 0.0
O3 O 0.09065 0.59164 0.18845 0.0
C4 C 0.9066 0.51461 0.14979 0.0
O5 O 0.90827 0.49706 0.13481 0.0
O6 O 0.05658 0.62953 0.16983 0.0
O7 O 0.99569 0.56526 0.14352 0.0
O8 O 0.98579 0.51016 0.13824 0.0
C9 C 0.07578 0.64438 0.15664 0.0
O10 O 0.07355 0.62418 0.14186 0.0
O11 O 0.05981 0.55687 0.16342 0.0
C12 C 0.90403 0.43332 0.17216 0.0
O13 O 0.90801 0.45714 0.18555 0.0
O14 O 0.92403 0.44393 0.15875 0.0
O15 O 0.98708 0.50487 0.18489 0.0
O16 O 0.00191 0.56145 0.19096 0.0
O17 O 0.92743 0.5198 0.16354 0.0
C18 C 0.99252 0.53982 0.13235 0.0
C19 C 0.9951 0.53146 0.19643 0.0
Zn20 Zn 0.51832 0.04621 0.50251 0.0
Zn21 Zn 0.52814 0.97753 0.50163 0.0
C22 C 0.58875 0.10726 0.51129 0.0
O23 O 0.57068 0.11446 0.52351 0.0
C24 C 0.45849 0.92406 0.48596 0.0
O25 O 0.4778 0.92658 0.47186 0.0
O26 O 0.50018 0.08106 0.50209 0.0
O27 O 0.49871 0.01415 0.47897 0.0
O28 O 0.54409 0.00442 0.47921 0.0
C29 C 0.5087 0.10061 0.48879 0.0
O30 O 0.52649 0.09531 0.4757 0.0
O31 O 0.57242 0.07788 0.50109 0.0
C32 C 0.53815 0.92157 0.51275 0.0
O33 O 0.51728 0.9226 0.52539 0.0
O34 O 0.5475 0.94368 0.50059 0.0
O35 O 0.54518 0.00544 0.5262 0.0
O36 O 0.50694 0.02538 0.527 0.0
O37 O 0.47384 0.94458 0.50047 0.0
C38 C 0.52153 0.00924 0.47038 0.0
C39 C 0.52699 0.01636 0.53525 0.0
Zn40 Zn 0.55189 0.52572 0.83528 0.0
Zn41 Zn 0.47301 0.50769 0.82856 0.0
C42 C 0.54049 0.45738 0.84404 0.0
O43 O 0.55916 0.47771 0.85877 0.0
C44 C 0.48089 0.57324 0.81836 0.0
O45 O 0.46138 0.55043 0.80446 0.0
O46 O 0.60522 0.54685 0.83868 0.0
O47 O 0.54456 0.54384 0.81217 0.0
O48 O 0.49153 0.49635 0.80533 0.0
C49 C 0.62061 0.53932 0.82589 0.0
O50 O 0.60122 0.51918 0.81127 0.0
O51 O 0.53218 0.47164 0.83167 0.0
C52 C 0.39957 0.47938 0.83786 0.0
O53 O 0.41403 0.48459 0.85443 0.0
O54 O 0.41942 0.48581 0.82436 0.0
O55 O 0.48127 0.49115 0.85243 0.0
O56 O 0.53494 0.53815 0.85853 0.0
O57 O 0.49123 0.56164 0.83126 0.0
C58 C 0.52102 0.52137 0.80025 0.0
C59 C 0.50582 0.51342 0.86403 0.0
P60 P 0.53257 0.96704 0.21199 0.0
H61 H 0.48536 0.91244 0.18319 0.0
H62 H 0.42365 0.89148 0.17249 0.0
H63 H 0.42309 0.9758 0.20795 0.0
H64 H 0.48407 0.99521 0.21929 0.0
H65 H 0.59698 0.98597 0.19164 0.0
H66 H 0.6455 0.04358 0.18318 0.0
H67 H 0.59029 0.09682 0.20599 0.0
H68 H 0.54272 0.03955 0.21491 0.0
H69 H 0.47718 0.92856 0.23741 0.0
H70 H 0.5873 0.01505 0.24056 0.0
O71 O 0.54166 0.93427 0.20634 0.0
H72 H 0.47544 0.9359 0.27057 0.0
H73 H 0.58561 0.02273 0.2737 0.0
C74 C 0.48916 0.95515 0.20214 0.0
C75 C 0.47206 0.92661 0.18852 0.0
C76 C 0.43682 0.9149 0.18228 0.0
C77 C 0.41823 0.93184 0.18942 0.0
C78 C 0.43635 0.96177 0.20235 0.0
C79 C 0.47143 0.97319 0.20871 0.0
C80 C 0.56617 0.00847 0.20384 0.0
C81 C 0.59516 0.00998 0.19464 0.0
C82 C 0.62279 0.0429 0.18972 0.0
C83 C 0.6218 0.07477 0.194 0.0
C84 C 0.59208 0.07283 0.20273 0.0
C85 C 0.56461 0.03999 0.20766 0.0
C86 C 0.53201 0.97196 0.23647 0.0
C87 C 0.50089 0.94934 0.24521 0.0
C88 C 0.49988 0.95361 0.26416 0.0
C89 C 0.53025 0.98018 0.27471 0.0
C90 C 0.5618 0.002 0.26594 0.0
C91 C 0.5627 0.9978 0.24697 0.0
P92 P 0.66385 0.57323 0.55568 0.0
H93 H 0.68442 0.52417 0.53716 0.0
H94 H 0.64915 0.46275 0.52287 0.0
H95 H 0.55145 0.46518 0.53248 0.0
H96 H 0.58699 0.5267 0.54684 0.0
H97 H 0.68039 0.64465 0.56998 0.0
H98 H 0.66917 0.68985 0.55808 0.0
H99 H 0.62436 0.6223 0.5075 0.0
H100 H 0.63505 0.57681 0.51972 0.0
H101 H 0.68965 0.55859 0.58926 0.0
H102 H 0.60347 0.57563 0.57205 0.0
O103 O 0.70752 0.5864 0.55625 0.0
H104 H 0.6679 0.55053 0.62012 0.0
H105 H 0.58099 0.56666 0.60264 0.0
C106 C 0.63828 0.52986 0.54313 0.0
C107 C 0.65546 0.51171 0.53597 0.0
C108 C 0.63525 0.47664 0.52771 0.0
C109 C 0.59751 0.45912 0.52659 0.0
C110 C 0.58046 0.47786 0.53332 0.0
C111 C 0.60073 0.513 0.54149 0.0
C112 C 0.65776 0.60709 0.54592 0.0
C113 C 0.66823 0.63964 0.55631 0.0
C114 C 0.66209 0.66559 0.54941 0.0
C115 C 0.64571 0.65963 0.53185 0.0
C116 C 0.63648 0.62744 0.52119 0.0
C117 C 0.64261 0.60143 0.52815 0.0
C118 C 0.64862 0.56847 0.57851 0.0
C119 C 0.66614 0.56075 0.59216 0.0
C120 C 0.65345 0.55579 0.60974 0.0
C121 C 0.62277 0.55811 0.61388 0.0
C122 C 0.60505 0.56536 0.60002 0.0
C123 C 0.61781 0.57037 0.58249 0.0
P124 P 0.08939 0.63407 0.88446 0.0
H125 H 0.13831 0.64312 0.85557 0.0
H126 H 0.16041 0.60466 0.84223 0.0
H127 H 0.08977 0.51977 0.87485 0.0
H128 H 0.0683 0.55859 0.88833 0.0
H129 H 0.06227 0.68368 0.88408 0.0
H130 H 0.00575 0.67724 0.8724 0.0
H131 H 0.97193 0.56859 0.85038 0.0
H132 H 0.02889 0.57556 0.86178 0.0
H133 H 0.13403 0.66469 0.91846 0.0
H134 H 0.02569 0.58169 0.9019 0.0
O135 O 0.12302 0.67631 0.88397 0.0
H136 H 0.12223 0.65138 0.95031 0.0
H137 H 0.0138 0.56819 0.93364 0.0
C138 C 0.10243 0.60409 0.8733 0.0
C139 C 0.12745 0.61616 0.85977 0.0
C140 C 0.13981 0.59399 0.85203 0.0
C141 C 0.1271 0.55925 0.85762 0.0
C142 C 0.10058 0.54663 0.87051 0.0
C143 C 0.08828 0.56884 0.87824 0.0
C144 C 0.04998 0.63036 0.87352 0.0
C145 C 0.04298 0.65875 0.87641 0.0
C146 C 0.01052 0.6549 0.86988 0.0
C147 C 0.9843 0.62236 0.86051 0.0
C148 C 0.99177 0.59417 0.85731 0.0
C149 C 0.02432 0.5981 0.86385 0.0
C150 C 0.08057 0.62458 0.90788 0.0
C151 C 0.10766 0.64378 0.92168 0.0
C152 C 0.10089 0.63618 0.93986 0.0
C153 C 0.06706 0.60883 0.94444 0.0
C154 C 0.04017 0.58926 0.9305 0.0
C155 C 0.04687 0.59715 0.91238 0.0
P156 P 0.04702 0.47661 0.44776 0.0
H157 H 0.10505 0.50864 0.47628 0.0
H158 H 0.14796 0.57135 0.48648 0.0
H159 H 0.08548 0.60526 0.45577 0.0
H160 H 0.04255 0.54231 0.44563 0.0
H161 H 0.01749 0.40147 0.45455 0.0
H162 H 0.95983 0.35623 0.46447 0.0
H163 H 0.92701 0.43608 0.47164 0.0
H164 H 0.9857 0.48183 0.46192 0.0
H165 H 0.09315 0.52381 0.42148 0.0
H166 H 0.98272 0.43917 0.42217 0.0
O167 O 0.07458 0.45975 0.44739 0.0
H168 H 0.08336 0.53088 0.3896 0.0
H169 H 0.97274 0.44625 0.3903 0.0
C170 C 0.07104 0.52085 0.45988 0.0
C171 C 0.09998 0.52946 0.47216 0.0
C172 C 0.12452 0.56541 0.47802 0.0
C173 C 0.12053 0.59338 0.47165 0.0
C174 C 0.08967 0.58437 0.46064 0.0
C175 C 0.06497 0.54836 0.45493 0.0
C176 C 0.00618 0.44522 0.45777 0.0
C177 C 0.99827 0.40957 0.45857 0.0
C178 C 0.96499 0.38351 0.46406 0.0
C179 C 0.93856 0.39236 0.4687 0.0
C180 C 0.94685 0.4284 0.46831 0.0
C181 C 0.98037 0.45459 0.46278 0.0
C182 C 0.03858 0.48143 0.42433 0.0
C183 C 0.0667 0.50696 0.41482 0.0
C184 C 0.06104 0.51107 0.39661 0.0
C185 C 0.02719 0.48931 0.38747 0.0
C186 C 0.99915 0.46332 0.39696 0.0
C187 C 0.0048 0.45941 0.41525 0.0
P188 P 0.58315 0.04899 0.79434 0.0
H189 H 0.61345 0.11133 0.82143 0.0
H190 H 0.59438 0.15445 0.8307 0.0
H191 H 0.49354 0.08808 0.79959 0.0
H192 H 0.51324 0.04515 0.7901 0.0
H193 H 0.61955 0.01924 0.81482 0.0
H194 H 0.6011 0.95862 0.8226 0.0
H195 H 0.4931 0.92255 0.80153 0.0
H196 H 0.51213 0.98365 0.79345 0.0
H197 H 0.57943 0.09597 0.76865 0.0
H198 H 0.5684 0.99041 0.76616 0.0
O199 O 0.6278 0.07272 0.79754 0.0
H200 H 0.56891 0.08982 0.73557 0.0
H201 H 0.55721 0.98381 0.7331 0.0
C202 C 0.56496 0.07524 0.80488 0.0
C203 C 0.58693 0.1056 0.81689 0.0
C204 C 0.57589 0.13027 0.82225 0.0
C205 C 0.54257 0.12504 0.81571 0.0
C206 C 0.51962 0.09328 0.80462 0.0
C207 C 0.53068 0.06851 0.79933 0.0
C208 C 0.56724 0.006 0.80348 0.0
C209 C 0.59172 0.99854 0.81215 0.0
C210 C 0.58106 0.96372 0.81668 0.0
C211 C 0.54564 0.9355 0.81259 0.0
C212 C 0.52071 0.9435 0.80465 0.0
C213 C 0.53143 0.97848 0.80018 0.0
C214 C 0.57345 0.04316 0.77 0.0
C215 C 0.57403 0.07115 0.76105 0.0
C216 C 0.56798 0.0676 0.7421 0.0
C217 C 0.56182 0.03616 0.73169 0.0
C218 C 0.56193 0.0084 0.7407 0.0
C219 C 0.56793 0.01199 0.75967 0.0
P220 P 0.45839 0.46372 0.11894 0.0
H221 H 0.49254 0.45061 0.14978 0.0
H222 H 0.55557 0.47449 0.15922 0.0
H223 H 0.58671 0.55479 0.12058 0.0
H224 H 0.52362 0.53057 0.11111 0.0
H225 H 0.38119 0.42318 0.11999 0.0
H226 H 0.33617 0.43922 0.12844 0.0
H227 H 0.42011 0.54851 0.14407 0.0
H228 H 0.46548 0.5318 0.13581 0.0
H229 H 0.46291 0.41939 0.08823 0.0
H230 H 0.4598 0.51805 0.09645 0.0
O231 O 0.44209 0.42033 0.12206 0.0
H232 H 0.46742 0.42575 0.05542 0.0
H233 H 0.46452 0.52466 0.06364 0.0
C234 C 0.50334 0.48823 0.12945 0.0
C235 C 0.51285 0.4739 0.14364 0.0
C236 C 0.54899 0.48768 0.14907 0.0
C237 C 0.57629 0.51613 0.1404 0.0
C238 C 0.56639 0.53233 0.12724 0.0
C239 C 0.53022 0.51859 0.12188 0.0
C240 C 0.42669 0.4761 0.12761 0.0
C241 C 0.39004 0.45047 0.12555 0.0
C242 C 0.36424 0.45981 0.13018 0.0
C243 C 0.37444 0.49524 0.1368 0.0
C244 C 0.41135 0.5209 0.13916 0.0
C245 C 0.43731 0.51143 0.13448 0.0
C246 C 0.46039 0.46791 0.09473 0.0
C247 C 0.46284 0.44223 0.08296 0.0
C248 C 0.46538 0.44587 0.06422 0.0
C249 C 0.46616 0.47561 0.05697 0.0
C250 C 0.46412 0.50154 0.06885 0.0
C251 C 0.46116 0.49765 0.08757 0.0
C252 C 0.11377 0.53784 0.15575 0.0
C253 C 0.11568 0.55978 0.17132 0.0
C254 C 0.14179 0.53085 0.15235 0.0
C255 C 0.23861 0.56674 0.16403 0.0
H256 H 0.21817 0.47203 0.14444 0.0
C257 C 0.34926 0.52721 0.15636 0.0
C258 C 0.34632 0.50507 0.14066 0.0
C259 C 0.32161 0.53456 0.16031 0.0
C260 C 0.22441 0.49877 0.14972 0.0
H261 H 0.14838 0.59104 0.1957 0.0
H262 H 0.19685 0.57852 0.18989 0.0
H263 H 0.16875 0.48276 0.15097 0.0
H264 H 0.31277 0.47484 0.11634 0.0
H265 H 0.26492 0.48768 0.12315 0.0
H266 H 0.29431 0.58273 0.16274 0.0
C267 C 0.174 0.56716 0.18013 0.0
C268 C 0.19601 0.50491 0.15347 0.0
C269 C 0.14602 0.57412 0.18353 0.0
C270 C 0.31558 0.49131 0.12878 0.0
C271 C 0.28806 0.49864 0.1327 0.0
C272 C 0.26704 0.56059 0.16027 0.0
C273 C 0.17241 0.54565 0.16444 0.0
C274 C 0.20271 0.539 0.16062 0.0
C275 C 0.29046 0.51999 0.14862 0.0
C276 C 0.26031 0.52656 0.15299 0.0
H277 H 0.09087 0.52647 0.14602 0.0
H278 H 0.13979 0.51447 0.14003 0.0
H279 H 0.24482 0.59348 0.16928 0.0
H280 H 0.37245 0.53804 0.16586 0.0
H281 H 0.32427 0.5509 0.17276 0.0
C282 C 0.64481 0.12943 0.49379 0.0
C283 C 0.62629 0.13488 0.50814 0.0
C284 C 0.67904 0.15684 0.48997 0.0
C285 C 0.75707 0.24343 0.5096 0.0
H286 H 0.77775 0.25906 0.45882 0.0
C287 C 0.88409 0.36938 0.48768 0.0
C288 C 0.90226 0.3636 0.47324 0.0
C289 C 0.85044 0.34172 0.49212 0.0
C290 C 0.77259 0.25488 0.47308 0.0
H291 H 0.62973 0.17331 0.52998 0.0
H292 H 0.68903 0.22097 0.52325 0.0
H293 H 0.72004 0.20973 0.46646 0.0
H294 H 0.8986 0.32441 0.4518 0.0
H295 H 0.84052 0.27629 0.45968 0.0
H296 H 0.80964 0.28874 0.51619 0.0
C297 C 0.67737 0.19544 0.51504 0.0
C298 C 0.73948 0.22648 0.47746 0.0
C299 C 0.6432 0.16807 0.51885 0.0
C300 C 0.88567 0.3297 0.46319 0.0
C301 C 0.85209 0.30217 0.46757 0.0
C302 C 0.7902 0.27189 0.50521 0.0
C303 C 0.69561 0.19038 0.50041 0.0
C304 C 0.73125 0.22031 0.49578 0.0
C305 C 0.83405 0.30771 0.48214 0.0
C306 C 0.79844 0.27794 0.48688 0.0
H307 H 0.63262 0.1042 0.48528 0.0
H308 H 0.69249 0.15176 0.47878 0.0
H309 H 0.75189 0.23926 0.52385 0.0
H310 H 0.89614 0.39509 0.49575 0.0
H311 H 0.83714 0.34706 0.5033 0.0
C312 C 0.508 0.63601 0.83414 0.0
C313 C 0.48869 0.61109 0.81913 0.0
C314 C 0.51369 0.67119 0.83488 0.0
C315 C 0.47702 0.72448 0.81548 0.0
H316 H 0.56957 0.807 0.83133 0.0
C317 C 0.5142 0.86941 0.80217 0.0
C318 C 0.53567 0.89769 0.81546 0.0
C319 C 0.50727 0.83439 0.80404 0.0
C320 C 0.54337 0.78425 0.82712 0.0
H321 H 0.46085 0.60399 0.79299 0.0
H322 H 0.47096 0.6649 0.79425 0.0
H323 H 0.56052 0.74636 0.83199 0.0
H324 H 0.56556 0.91082 0.84153 0.0
H325 H 0.55333 0.84971 0.84482 0.0
H326 H 0.45986 0.76218 0.81048 0.0
C327 C 0.48124 0.65727 0.80559 0.0
C328 C 0.53821 0.74945 0.82749 0.0
C329 C 0.47568 0.62232 0.80482 0.0
C330 C 0.54933 0.88982 0.83089 0.0
C331 C 0.54238 0.85477 0.83277 0.0
C332 C 0.48215 0.75919 0.81513 0.0
C333 C 0.50003 0.68212 0.82068 0.0
C334 C 0.50511 0.71913 0.82143 0.0
C335 C 0.52156 0.82664 0.81926 0.0
C336 C 0.51552 0.78959 0.82072 0.0
H337 H 0.51836 0.62824 0.8454 0.0
H338 H 0.52815 0.68959 0.84675 0.0
H339 H 0.45094 0.70174 0.81107 0.0
H340 H 0.50376 0.87451 0.78995 0.0
H341 H 0.49159 0.8136 0.79322 0.0
C342 C 0.86097 0.52574 0.1348 0.0
C343 C 0.87859 0.52508 0.15087 0.0
C344 C 0.83218 0.53215 0.1356 0.0
C345 C 0.75977 0.52084 0.16467 0.0
H346 H 0.7463 0.57909 0.13098 0.0
C347 C 0.62881 0.52784 0.16128 0.0
C348 C 0.61459 0.5262 0.14367 0.0
C349 C 0.66375 0.53374 0.1639 0.0
C350 C 0.74946 0.56248 0.1404 0.0
H351 H 0.88032 0.5315 0.18044 0.0
H352 H 0.82952 0.54229 0.18184 0.0
H353 H 0.80273 0.57858 0.13233 0.0
H354 H 0.62621 0.52969 0.11503 0.0
H355 H 0.68656 0.53953 0.11951 0.0
H356 H 0.70606 0.50349 0.17223 0.0
C357 C 0.83816 0.53789 0.16862 0.0
C358 C 0.7819 0.56234 0.14122 0.0
C359 C 0.86736 0.53195 0.16781 0.0
C360 C 0.63648 0.53149 0.12883 0.0
C361 C 0.67124 0.53717 0.13142 0.0
C362 C 0.72717 0.52073 0.16375 0.0
C363 C 0.82 0.53765 0.1525 0.0
C364 C 0.7872 0.54101 0.15312 0.0
C365 C 0.68526 0.53791 0.14895 0.0
C366 C 0.72129 0.54101 0.15134 0.0
H367 H 0.86899 0.52062 0.12153 0.0
H368 H 0.81859 0.53143 0.12294 0.0
H369 H 0.76287 0.50382 0.17385 0.0
H370 H 0.6128 0.52421 0.17303 0.0
H371 H 0.67379 0.53472 0.17763 0.0
C372 C 0.40139 0.87938 0.46847 0.0
C373 C 0.42033 0.89517 0.48536 0.0
C374 C 0.36668 0.84961 0.4676 0.0
C375 C 0.28934 0.79357 0.49581 0.0
H376 H 0.26708 0.72163 0.45532 0.0
C377 C 0.16981 0.64537 0.49161 0.0
C378 C 0.15046 0.63137 0.47463 0.0
C379 C 0.20057 0.67965 0.4936 0.0
C380 C 0.27271 0.74161 0.46661 0.0
H381 H 0.41736 0.89269 0.51465 0.0
H382 H 0.35723 0.83992 0.51317 0.0
H383 H 0.32461 0.77707 0.45751 0.0
H384 H 0.14802 0.64281 0.44655 0.0
H385 H 0.20152 0.70236 0.45003 0.0
H386 H 0.2375 0.75688 0.50515 0.0
C387 C 0.36875 0.85097 0.50055 0.0
C388 C 0.30573 0.77361 0.46785 0.0
C389 C 0.40334 0.88122 0.50143 0.0
C390 C 0.16198 0.65288 0.45987 0.0
C391 C 0.19287 0.68687 0.4618 0.0
C392 C 0.25638 0.76119 0.49468 0.0
C393 C 0.35016 0.8343 0.48358 0.0
C394 C 0.31454 0.80025 0.48239 0.0
C395 C 0.2129 0.7004 0.47859 0.0
C396 C 0.24765 0.73496 0.48 0.0
H397 H 0.41359 0.88978 0.45585 0.0
H398 H 0.35299 0.83837 0.45429 0.0
H399 H 0.29484 0.81347 0.5071 0.0
H400 H 0.16155 0.62952 0.50325 0.0
H401 H 0.21552 0.68931 0.50668 0.0
C402 C 0.54148 0.40427 0.85536 0.0
C403 C 0.5323 0.41943 0.84139 0.0
C404 C 0.53663 0.36961 0.85256 0.0
C405 C 0.52954 0.30325 0.81572 0.0
H406 H 0.5017 0.2394 0.85454 0.0
C407 C 0.51798 0.16339 0.80516 0.0
C408 C 0.53336 0.15402 0.81926 0.0
C409 C 0.51286 0.19304 0.80783 0.0
C410 C 0.50973 0.25699 0.84359 0.0
H411 H 0.50976 0.40947 0.81362 0.0
H412 H 0.50101 0.34874 0.80876 0.0
H413 H 0.50135 0.29595 0.85913 0.0
H414 H 0.55389 0.16773 0.8475 0.0
H415 H 0.54547 0.21968 0.85208 0.0
H416 H 0.53853 0.26465 0.8003 0.0
C417 C 0.51241 0.36392 0.82185 0.0
C418 C 0.50952 0.28944 0.84621 0.0
C419 C 0.51719 0.39865 0.82467 0.0
C420 C 0.54232 0.17436 0.83629 0.0
C421 C 0.53714 0.20398 0.83896 0.0
C422 C 0.52974 0.2708 0.8131 0.0
C423 C 0.52248 0.34912 0.83569 0.0
C424 C 0.51988 0.31324 0.8324 0.0
C425 C 0.52293 0.2141 0.82467 0.0
C426 C 0.52027 0.24744 0.82707 0.0
H427 H 0.55318 0.41947 0.86842 0.0
H428 H 0.54512 0.35937 0.86347 0.0
H429 H 0.5382 0.3211 0.80488 0.0
H430 H 0.5111 0.14863 0.7918 0.0
H431 H 0.50141 0.19974 0.79659 0.0
C432 C 0.54018 0.87091 0.52631 0.0
C433 C 0.54976 0.89448 0.51247 0.0
C434 C 0.55057 0.84491 0.52599 0.0
C435 C 0.61645 0.82231 0.50704 0.0
H436 H 0.5499 0.72796 0.52212 0.0
C437 C 0.66038 0.72328 0.529 0.0
C438 C 0.63669 0.68615 0.5252 0.0
C439 C 0.65019 0.74812 0.52461 0.0
C440 C 0.56867 0.75396 0.5176 0.0
H441 H 0.57779 0.90927 0.48742 0.0
H442 H 0.59566 0.86354 0.48679 0.0
H443 H 0.5306 0.772 0.51993 0.0
H444 H 0.58426 0.64608 0.51309 0.0
H445 H 0.56687 0.68947 0.50498 0.0
H446 H 0.65446 0.80409 0.50461 0.0
C447 C 0.58044 0.86547 0.49799 0.0
C448 C 0.55775 0.7794 0.5166 0.0
C449 C 0.57008 0.89157 0.49832 0.0
C450 C 0.60325 0.67449 0.51612 0.0
C451 C 0.5931 0.69935 0.51167 0.0
C452 C 0.62737 0.7968 0.508 0.0
C453 C 0.5707 0.84178 0.5118 0.0
C454 C 0.58168 0.81405 0.5116 0.0
C455 C 0.61612 0.73639 0.51625 0.0
C456 C 0.60376 0.7625 0.51356 0.0
H457 H 0.52468 0.87254 0.53745 0.0
H458 H 0.54318 0.82751 0.53701 0.0
H459 H 0.63559 0.84883 0.50323 0.0
H460 H 0.68656 0.73316 0.53574 0.0
H461 H 0.6685 0.77643 0.52845 0.0
C462 C 0.68012 0.57224 0.84352 0.0
C463 C 0.65938 0.55154 0.82771 0.0
C464 C 0.71638 0.58238 0.84553 0.0
C465 C 0.78084 0.55545 0.82956 0.0
H466 H 0.85189 0.65008 0.85136 0.0
C467 C 0.93117 0.59896 0.83812 0.0
C468 C 0.94858 0.61721 0.85503 0.0
C469 C 0.89691 0.593 0.83339 0.0
C470 C 0.83231 0.62346 0.84536 0.0
H471 H 0.66066 0.52593 0.80145 0.0
H472 H 0.72398 0.54382 0.80495 0.0
H473 H 0.79002 0.63605 0.84571 0.0
H474 H 0.94353 0.64319 0.88029 0.0
H475 H 0.88393 0.63277 0.87207 0.0
H476 H 0.82292 0.54262 0.8295 0.0
C477 C 0.71207 0.55183 0.81587 0.0
C478 C 0.7969 0.61544 0.84213 0.0
C479 C 0.67584 0.54175 0.81383 0.0
C480 C 0.93115 0.62965 0.86701 0.0
C481 C 0.89696 0.62368 0.8623 0.0
C482 C 0.81624 0.56345 0.83282 0.0
C483 C 0.73267 0.57201 0.8318 0.0
C484 C 0.7707 0.58123 0.83436 0.0
C485 C 0.87934 0.60511 0.84548 0.0
C486 C 0.84229 0.59742 0.84094 0.0
H487 H 0.66824 0.58019 0.85447 0.0
H488 H 0.73143 0.59759 0.85806 0.0
H489 H 0.76118 0.52869 0.82378 0.0
H490 H 0.94408 0.58942 0.82851 0.0
H491 H 0.88422 0.57899 0.82023 0.0
C492 C 0.12716 0.69839 0.14489 0.0
C493 C 0.10306 0.68305 0.15865 0.0
C494 C 0.15593 0.73358 0.14772 0.0
C495 C 0.21356 0.79572 0.18566 0.0
H496 H 0.25827 0.85997 0.14773 0.0
C497 C 0.35588 0.91392 0.19847 0.0
C498 C 0.37922 0.91602 0.18478 0.0
C499 C 0.31875 0.89398 0.19498 0.0
C500 C 0.24606 0.84234 0.15847 0.0
H501 H 0.08854 0.69346 0.18561 0.0
H502 H 0.13862 0.75504 0.19049 0.0
H503 H 0.19755 0.80845 0.14204 0.0
H504 H 0.38172 0.90144 0.15621 0.0
H505 H 0.31695 0.86542 0.15031 0.0
H506 H 0.26232 0.82818 0.2018 0.0
C507 C 0.13565 0.73961 0.17765 0.0
C508 C 0.21131 0.8129 0.15522 0.0
C509 C 0.10693 0.70437 0.17483 0.0
C510 C 0.36451 0.89974 0.16717 0.0
C511 C 0.32732 0.87951 0.16372 0.0
C512 C 0.24818 0.82501 0.18889 0.0
C513 C 0.16111 0.75419 0.16436 0.0
C514 C 0.19511 0.78871 0.16862 0.0
C515 C 0.30404 0.87534 0.17778 0.0
C516 C 0.26525 0.84811 0.17518 0.0
H517 H 0.12479 0.68274 0.13221 0.0
H518 H 0.17522 0.74384 0.13728 0.0
H519 H 0.20217 0.77734 0.19617 0.0
H520 H 0.36614 0.9259 0.21223 0.0
H521 H 0.30154 0.89184 0.20601 0.0
C522 C 0.52043 0.15836 0.47701 0.0
C523 C 0.50362 0.13221 0.48943 0.0
C524 C 0.52018 0.19074 0.47915 0.0
C525 C 0.51379 0.24969 0.51566 0.0
H526 H 0.52044 0.30664 0.47573 0.0
C527 C 0.54723 0.39635 0.52923 0.0
C528 C 0.57619 0.42066 0.5196 0.0
C529 C 0.52989 0.35944 0.52402 0.0
C530 C 0.51851 0.29097 0.487 0.0
H531 H 0.47105 0.11833 0.51302 0.0
H532 H 0.46988 0.17452 0.5165 0.0
H533 H 0.50372 0.24357 0.46922 0.0
H534 H 0.6082 0.42564 0.49629 0.0
H535 H 0.5781 0.36112 0.48726 0.0
H536 H 0.52936 0.2972 0.53339 0.0
C537 C 0.48411 0.17043 0.5054 0.0
C538 C 0.50903 0.2549 0.4833 0.0
C539 C 0.48461 0.13814 0.50335 0.0
C540 C 0.58622 0.40748 0.50409 0.0
C541 C 0.56874 0.37059 0.49881 0.0
C542 C 0.523 0.2856 0.51936 0.0
C543 C 0.50285 0.19758 0.49367 0.0
C544 C 0.50749 0.23409 0.49756 0.0
C545 C 0.54101 0.34612 0.50901 0.0
C546 C 0.52633 0.30687 0.50505 0.0
H547 H 0.53529 0.15463 0.46612 0.0
H548 H 0.53525 0.21111 0.46997 0.0
H549 H 0.5135 0.23477 0.52699 0.0
H550 H 0.53903 0.40565 0.54132 0.0
H551 H 0.50839 0.34122 0.53203 0.0
C552 C 0.34914 0.47514 0.81833 0.0
C553 C 0.36216 0.47169 0.83527 0.0
C554 C 0.316 0.47369 0.81673 0.0
C555 C 0.23267 0.45148 0.84072 0.0
H556 H 0.2413 0.53522 0.81946 0.0
C557 C 0.15274 0.51971 0.86362 0.0
C558 C 0.14361 0.53758 0.85116 0.0
C559 C 0.17223 0.50299 0.85824 0.0
C560 C 0.23792 0.51118 0.82507 0.0
H561 H 0.34947 0.46134 0.86344 0.0
H562 H 0.29195 0.45901 0.86069 0.0
H563 H 0.28849 0.52025 0.81593 0.0
H564 H 0.14578 0.54988 0.82295 0.0
H565 H 0.17986 0.52053 0.8135 0.0
H566 H 0.18267 0.44329 0.85047 0.0
C567 C 0.30717 0.46272 0.84861 0.0
C568 C 0.26506 0.50258 0.82304 0.0
C569 C 0.34032 0.46433 0.85023 0.0
C570 C 0.15293 0.53683 0.83294 0.0
C571 C 0.1724 0.52001 0.82753 0.0
C572 C 0.20544 0.46002 0.84271 0.0
C573 C 0.29516 0.46853 0.832 0.0
C574 C 0.2633 0.47334 0.83134 0.0
C575 C 0.18305 0.50366 0.84024 0.0
C576 C 0.20835 0.49068 0.83542 0.0
H577 H 0.36525 0.48067 0.8065 0.0
H578 H 0.30723 0.47782 0.8037 0.0
H579 H 0.23032 0.42844 0.84702 0.0
H580 H 0.14645 0.52021 0.87782 0.0
H581 H 0.18045 0.49121 0.86847 0.0
C582 C 0.87105 0.36913 0.15854 0.0
C583 C 0.87702 0.39498 0.17302 0.0
C584 C 0.84546 0.33289 0.15966 0.0
C585 C 0.79618 0.26817 0.19326 0.0
H586 H 0.72634 0.21322 0.1531 0.0
C587 C 0.66488 0.13958 0.20358 0.0
C588 C 0.65249 0.11019 0.19034 0.0
C589 C 0.69408 0.17286 0.20049 0.0
C590 C 0.746 0.22805 0.16433 0.0
H591 H 0.86075 0.40315 0.19993 0.0
H592 H 0.81626 0.34029 0.2018 0.0
H593 H 0.77469 0.27436 0.14936 0.0
H594 H 0.66091 0.09272 0.16339 0.0
H595 H 0.71248 0.15113 0.15805 0.0
H596 H 0.76739 0.2223 0.20834 0.0
C597 C 0.83157 0.34784 0.1897 0.0
C598 C 0.77364 0.26301 0.16218 0.0
C599 C 0.85693 0.38393 0.18856 0.0
C600 C 0.67 0.11485 0.17389 0.0
C601 C 0.6993 0.1483 0.17078 0.0
C602 C 0.76867 0.23333 0.19539 0.0
C603 C 0.82565 0.32191 0.17531 0.0
C604 C 0.79852 0.28367 0.17679 0.0
C605 C 0.71173 0.17758 0.18411 0.0
C606 C 0.74282 0.21318 0.1811 0.0
H607 H 0.88612 0.37686 0.14638 0.0
H608 H 0.84152 0.31341 0.1484 0.0
H609 H 0.81542 0.2832 0.20463 0.0
H610 H 0.6523 0.13678 0.21649 0.0
H611 H 0.70267 0.19504 0.21093 0.0
C612 C 0.01021 0.57973 0.10674 0.0
C613 C 0.99799 0.5454 0.11276 0.0
C614 C 0.01732 0.58565 0.08846 0.0
C615 C 0.99633 0.5409 0.04212 0.0
H616 H 0.08644 0.6236 0.03135 0.0
C617 C 0.04214 0.56519 0.9684 0.0
C618 C 0.0597 0.60088 0.96371 0.0
C619 C 0.03486 0.55772 0.98655 0.0
C620 C 0.06093 0.60066 0.03409 0.0
H621 H 0.98269 0.49011 0.10414 0.0
H622 H 0.99471 0.50046 0.07206 0.0
H623 H 0.07232 0.61183 0.063 0.0
H624 H 0.08295 0.65671 0.97424 0.0
H625 H 0.0696 0.64378 0.00584 0.0
H626 H 0.98448 0.53007 0.01327 0.0
C627 C 0.99892 0.52276 0.08159 0.0
C628 C 0.05293 0.59388 0.05223 0.0
C629 C 0.99217 0.5169 0.09996 0.0
C630 C 0.06981 0.62896 0.97751 0.0
C631 C 0.06223 0.62151 0.99563 0.0
C632 C 0.00416 0.54787 0.02395 0.0
C633 C 0.01197 0.5573 0.07572 0.0
C634 C 0.02052 0.56401 0.05643 0.0
C635 C 0.04469 0.58578 0.0004 0.0
C636 C 0.03654 0.57792 0.01971 0.0
H637 H 0.01479 0.60225 0.11621 0.0
H638 H 0.02691 0.61244 0.08425 0.0
H639 H 0.97099 0.51786 0.04499 0.0
H640 H 0.03443 0.54304 0.95805 0.0
H641 H 0.02189 0.52994 0.98974 0.0
C642 C 0.54982 0.00752 0.44116 0.0
C643 C 0.52177 0.00856 0.45025 0.0
C644 C 0.55026 0.00668 0.42217 0.0
C645 C 0.49174 0.98105 0.38079 0.0
H646 H 0.58084 0.04019 0.3579 0.0
C647 C 0.499 0.98469 0.30248 0.0
C648 C 0.52895 0.98514 0.2948 0.0
C649 C 0.49773 0.98932 0.3214 0.0
C650 C 0.55582 0.02322 0.36407 0.0
H651 H 0.47217 0.00957 0.44654 0.0
H652 H 0.47287 0.00784 0.41322 0.0
H653 H 0.57921 0.04522 0.39107 0.0
H654 H 0.58084 0.99032 0.30091 0.0
H655 H 0.57852 0.99798 0.33393 0.0
H656 H 0.46849 0.95846 0.35385 0.0
C657 C 0.49445 0.00762 0.42087 0.0
C658 C 0.55488 0.0262 0.38306 0.0
C659 C 0.49414 0.00877 0.43993 0.0
C660 C 0.55762 0.99034 0.30643 0.0
C661 C 0.5563 0.99481 0.32534 0.0
C662 C 0.49271 0.97792 0.36178 0.0
C663 C 0.52256 0.00662 0.41182 0.0
C664 C 0.52293 0.0049 0.39162 0.0
C665 C 0.52634 0.99437 0.33306 0.0
C666 C 0.52486 0.99873 0.35321 0.0
H667 H 0.57154 0.00736 0.4487 0.0
H668 H 0.57203 0.00546 0.41556 0.0
H669 H 0.46683 0.96401 0.38703 0.0
H670 H 0.47671 0.98125 0.29384 0.0
H671 H 0.47451 0.98938 0.32688 0.0
C672 C 0.56222 0.55091 0.77548 0.0
C673 C 0.5285 0.52444 0.78068 0.0
C674 C 0.56986 0.55389 0.75711 0.0
C675 C 0.54227 0.50303 0.71185 0.0
H676 H 0.59832 0.59796 0.69484 0.0
C677 C 0.60909 0.52641 0.64265 0.0
C678 C 0.60931 0.5531 0.63257 0.0
C679 C 0.59679 0.52203 0.6603 0.0
C680 C 0.58232 0.57124 0.69929 0.0
H681 H 0.47627 0.48038 0.77059 0.0
H682 H 0.48958 0.48584 0.73836 0.0
H683 H 0.58043 0.59218 0.72623 0.0
H684 H 0.59675 0.59614 0.63319 0.0
H685 H 0.57458 0.58799 0.66379 0.0
H686 H 0.54385 0.48211 0.6848 0.0
C687 C 0.5102 0.50403 0.74859 0.0
C688 C 0.57242 0.56793 0.71736 0.0
C689 C 0.50253 0.50101 0.76704 0.0
C690 C 0.59664 0.57509 0.6405 0.0
C691 C 0.5843 0.57069 0.65813 0.0
C692 C 0.55216 0.50634 0.69375 0.0
C693 C 0.54398 0.53055 0.74343 0.0
C694 C 0.55262 0.53381 0.72392 0.0
C695 C 0.5844 0.54424 0.66828 0.0
C696 C 0.57257 0.5405 0.6873 0.0
H697 H 0.58297 0.56926 0.78562 0.0
H698 H 0.59635 0.57419 0.75364 0.0
H699 H 0.52724 0.47636 0.71651 0.0
H700 H 0.61826 0.50872 0.63687 0.0
H701 H 0.5976 0.50166 0.66782 0.0
C702 C 0.51073 0.03176 0.56596 0.0
C703 C 0.52905 0.01807 0.55547 0.0
C704 C 0.51273 0.03312 0.58504 0.0
C705 C 0.5338 0.99328 0.62296 0.0
H706 H 0.54701 0.07811 0.65209 0.0
C707 C 0.57234 0.01784 0.7002 0.0
C708 C 0.55608 0.03274 0.7115 0.0
C709 C 0.56758 0.01532 0.68121 0.0
C710 C 0.54286 0.05403 0.64416 0.0
H711 H 0.56386 0.99509 0.55685 0.0
H712 H 0.56754 0.99776 0.59001 0.0
H713 H 0.54124 0.07516 0.61887 0.0
H714 H 0.52144 0.05598 0.71165 0.0
H715 H 0.51309 0.05154 0.6785 0.0
H716 H 0.53557 0.97219 0.64822 0.0
C717 C 0.55129 0.00706 0.58352 0.0
C718 C 0.53956 0.05234 0.62512 0.0
C719 C 0.54937 0.00578 0.56448 0.0
C720 C 0.53476 0.04485 0.70334 0.0
C721 C 0.52999 0.04232 0.68434 0.0
C722 C 0.53708 0.99495 0.64198 0.0
C723 C 0.53297 0.02069 0.59403 0.0
C724 C 0.53524 0.02205 0.61429 0.0
C725 C 0.54642 0.02762 0.67304 0.0
C726 C 0.54188 0.02543 0.65282 0.0
H727 H 0.49481 0.04142 0.55946 0.0
H728 H 0.49803 0.04346 0.59274 0.0
H729 H 0.52988 0.96928 0.61503 0.0
H730 H 0.5894 0.0088 0.70603 0.0
H731 H 0.5811 0.00439 0.67291 0.0
C732 C 0.47231 0.47867 0.89 0.0
C733 C 0.50107 0.50976 0.88382 0.0
C734 C 0.46815 0.47498 0.90869 0.0
C735 C 0.49098 0.52693 0.95336 0.0
H736 H 0.47305 0.43793 0.97234 0.0
C737 C 0.494 0.51291 0.03081 0.0
C738 C 0.46944 0.47972 0.03711 0.0
C739 C 0.49756 0.51661 0.01209 0.0
C740 C 0.47749 0.46278 0.96727 0.0
H741 H 0.5478 0.56152 0.89243 0.0
H742 H 0.54025 0.55518 0.92507 0.0
H743 H 0.47925 0.44422 0.93969 0.0
H744 H 0.42877 0.42459 0.02881 0.0
H745 H 0.43425 0.43114 0.99615 0.0
H746 H 0.48861 0.54537 0.9808 0.0
C747 C 0.52097 0.53369 0.91543 0.0
C748 C 0.48116 0.46639 0.94856 0.0
C749 C 0.52538 0.53721 0.89674 0.0
C750 C 0.44825 0.45038 0.02433 0.0
C751 C 0.45153 0.45414 0.00561 0.0
C752 C 0.48694 0.52321 0.97206 0.0
C753 C 0.49241 0.50248 0.92159 0.0
C754 C 0.48807 0.49853 0.94142 0.0
C755 C 0.47636 0.48726 0.99923 0.0
C756 C 0.48026 0.49112 0.97928 0.0
H757 H 0.45312 0.457 0.8804 0.0
H758 H 0.44571 0.45076 0.91305 0.0
H759 H 0.49586 0.55186 0.9482 0.0
H760 H 0.51101 0.53587 0.04037 0.0
H761 H 0.51742 0.54234 0.00774 0.0
C762 C 0.98402 0.49299 0.22232 0.0
C763 C 0.99688 0.52733 0.21619 0.0
C764 C 0.98606 0.48888 0.24089 0.0
C765 C 0.99802 0.53558 0.28703 0.0
H766 H 0.02286 0.46533 0.30148 0.0
C767 C 0.03555 0.52791 0.36182 0.0
C768 C 0.02149 0.49348 0.36802 0.0
C769 C 0.03124 0.53192 0.34342 0.0
C770 C 0.01551 0.48478 0.29766 0.0
H771 H 0.02193 0.5843 0.22482 0.0
H772 H 0.02612 0.57721 0.25724 0.0
H773 H 0.0184 0.47293 0.26921 0.0
H774 H 0.99178 0.43624 0.35975 0.0
H775 H 0.98408 0.44322 0.32759 0.0
H776 H 0.99569 0.54772 0.31557 0.0
C777 C 0.01386 0.55336 0.2477 0.0
C778 C 0.0129 0.48913 0.27915 0.0
C779 C 0.01163 0.55746 0.2291 0.0
C780 C 0.00269 0.46312 0.35542 0.0
C781 C 0.99859 0.46712 0.33698 0.0
C782 C 1.00083 0.53135 0.30556 0.0
C783 C 1.00121 0.51901 0.25383 0.0
C784 C 0.00406 0.51454 0.27358 0.0
C785 C 0.01297 0.50157 0.33076 0.0
C786 C 0.00956 0.50587 0.31108 0.0
H787 H 0.97219 0.46915 0.21276 0.0
H788 H 0.97543 0.46197 0.24512 0.0
H789 H 0.99063 0.55501 0.28324 0.0
H790 H 0.04987 0.55182 0.37123 0.0
H791 H 0.04286 0.55882 0.33903 0.0
loop_
_geom_bond_atom_site_label_1
_geom_bond_atom_site_label_2
_geom_bond_distance
_geom_bond_site_symmetry_2
_ccdc_geom_bond_type
Zn0 O6 1.969 . S
Zn0 O7 1.965 . S
Zn0 O11 2.024 . S
Zn0 O16 1.969 . S
Zn1 O8 1.969 . S
Zn1 O14 1.969 . S
Zn1 O15 1.965 . S
Zn1 O17 2.024 . S
C2 O3 1.229 . S
C2 O11 1.058 . S
O3 C2 1.229 . S
C4 O5 1.229 . S
C4 O17 1.058 . S
O5 C4 1.229 . S
O6 Zn0 1.969 . S
O6 C9 1.267 . S
O7 Zn0 1.965 . S
O7 C18 1.260 1_455 S
O8 Zn1 1.969 . S
O8 C18 1.258 . S
C9 O6 1.267 . S
C9 O10 1.228 . S
O10 C9 1.228 . S
O11 Zn0 2.024 . S
O11 C2 1.058 . S
C12 O13 1.228 . S
C12 O14 1.267 . S
O13 C12 1.228 . S
O14 Zn1 1.969 . S
O14 C12 1.267 . S
O15 Zn1 1.965 . S
O15 C19 1.260 1_655 S
O16 Zn0 1.969 . S
O16 C19 1.258 . S
O17 Zn1 2.024 . S
O17 C4 1.058 . S
C18 O7 1.260 1_655 S
C18 O8 1.258 . S
C19 O15 1.260 1_455 S
C19 O16 1.258 . S
Zn20 O26 1.969 . S
Zn20 O27 1.965 . S
Zn20 O31 2.024 . S
Zn20 O36 1.969 . S
Zn21 O28 1.969 . S
Zn21 O34 1.969 . S
Zn21 O35 1.965 . S
Zn21 O37 2.024 . S
C22 O23 1.229 . S
C22 O31 1.058 . S
O23 C22 1.229 . S
C24 O25 1.229 . S
C24 O37 1.058 . S
O25 C24 1.229 . S
O26 Zn20 1.969 . S
O26 C29 1.267 . S
O27 Zn20 1.965 . S
O27 C38 1.260 . S
O28 Zn21 1.969 . S
O28 C38 1.258 1_565 S
C29 O26 1.267 . S
C29 O30 1.228 . S
O30 C29 1.228 . S
O31 Zn20 2.024 . S
O31 C22 1.058 . S
C32 O33 1.228 . S
C32 O34 1.267 . S
O33 C32 1.228 . S
O34 Zn21 1.969 . S
O34 C32 1.267 . S
O35 Zn21 1.965 . S
O35 C39 1.260 1_565 S
O36 Zn20 1.969 . S
O36 C39 1.258 . S
O37 Zn21 2.024 . S
O37 C24 1.058 . S
C38 O27 1.260 . S
C38 O28 1.258 1_545 S
C39 O35 1.260 1_545 S
C39 O36 1.258 . S
Zn40 O46 1.969 . S
Zn40 O47 1.965 . S
Zn40 O51 2.024 . S
Zn40 O56 1.969 . S
Zn41 O48 1.969 . S
Zn41 O54 1.969 . S
Zn41 O55 1.965 . S
Zn41 O57 2.024 . S
C42 O43 1.229 . S
C42 O51 1.058 . S
O43 C42 1.229 . S
C44 O45 1.229 . S
C44 O57 1.058 . S
O45 C44 1.229 . S
O46 Zn40 1.969 . S
O46 C49 1.267 . S
O47 Zn40 1.965 . S
O47 C58 1.260 . S
O48 Zn41 1.969 . S
O48 C58 1.258 . S
C49 O46 1.267 . S
C49 O50 1.228 . S
O50 C49 1.228 . S
O51 Zn40 2.024 . S
O51 C42 1.058 . S
C52 O53 1.228 . S
C52 O54 1.267 . S
O53 C52 1.228 . S
O54 Zn41 1.969 . S
O54 C52 1.267 . S
O55 Zn41 1.965 . S
O55 C59 1.260 . S
O56 Zn40 1.969 . S
O56 C59 1.258 . S
O57 Zn41 2.024 . S
O57 C44 1.058 . S
C58 O47 1.260 . S
C58 O48 1.258 . S
C59 O55 1.260 . S
C59 O56 1.258 . S
P60 O71 1.490 1_545 S
P60 C74 1.812 1_545 S
P60 C80 1.803 . S
P60 C86 1.819 . S
H61 C75 0.941 . S
H62 C76 0.939 . S
H63 C78 0.940 . S
H64 C79 0.940 1_545 S
H65 C81 0.939 . S
H66 C82 0.942 . S
H67 C84 0.940 . S
H68 C85 0.939 . S
H69 C87 0.941 . S
H70 C91 0.939 . S
O71 P60 1.490 1_565 S
H72 C88 0.939 . S
H73 C90 0.940 . S
C74 P60 1.812 1_565 S
C74 C75 1.389 . S
C74 C79 1.391 . S
C75 H61 0.941 . S
C75 C74 1.389 . S
C75 C76 1.397 . S
C76 H62 0.939 . S
C76 C75 1.397 . S
C76 C77 1.378 . S
C77 C76 1.378 . S
C77 C78 1.378 . S
C78 H63 0.940 . S
C78 C77 1.378 . S
C78 C79 1.396 . S
C79 H64 0.940 1_565 S
C79 C74 1.391 . S
C79 C78 1.396 . S
C80 P60 1.803 . S
C80 C81 1.378 . S
C80 C85 1.400 . S
C81 H65 0.939 . S
C81 C80 1.378 . S
C81 C82 1.361 . S
C82 H66 0.942 . S
C82 C81 1.361 . S
C82 C83 1.369 . S
C83 C82 1.369 . S
C83 C84 1.404 . S
C84 H67 0.940 . S
C84 C83 1.404 . S
C84 C85 1.389 . S
C85 H68 0.939 . S
C85 C80 1.400 . S
C85 C84 1.389 . S
C86 P60 1.819 . S
C86 C87 1.391 1_545 S
C86 C91 1.391 . S
C87 H69 0.941 . S
C87 C86 1.391 1_565 S
C87 C88 1.396 . S
C88 H72 0.939 . S
C88 C87 1.396 . S
C88 C89 1.397 1_565 S
C89 C88 1.397 1_545 S
C89 C90 1.385 . S
C90 H73 0.940 . S
C90 C89 1.385 . S
C90 C91 1.388 . S
C91 H70 0.939 . S
C91 C86 1.391 . S
C91 C90 1.388 . S
P92 O103 1.490 . S
P92 C106 1.812 . S
P92 C112 1.803 . S
P92 C118 1.819 . S
H93 C107 0.941 . S
H94 C108 0.939 . S
H95 C110 0.940 . S
H96 C111 0.940 . S
H97 C113 0.939 . S
H98 C114 0.942 . S
H99 C116 0.940 . S
H100 C117 0.939 . S
H101 C119 0.941 . S
H102 C123 0.939 . S
O103 P92 1.490 . S
H104 C120 0.939 . S
H105 C122 0.940 . S
C106 P92 1.812 . S
C106 C107 1.389 . S
C106 C111 1.391 . S
C107 H93 0.941 . S
C107 C106 1.389 . S
C107 C108 1.397 . S
C108 H94 0.939 . S
C108 C107 1.397 . S
C108 C109 1.378 . S
C109 C108 1.378 . S
C109 C110 1.378 . S
C110 H95 0.940 . S
C110 C109 1.378 . S
C110 C111 1.396 . S
C111 H96 0.940 . S
C111 C106 1.391 . S
C111 C110 1.396 . S
C112 P92 1.803 . S
C112 C113 1.378 . S
C112 C117 1.400 . S
C113 H97 0.939 . S
C113 C112 1.378 . S
C113 C114 1.361 . S
C114 H98 0.942 . S
C114 C113 1.361 . S
C114 C115 1.369 . S
C115 C114 1.369 . S
C115 C116 1.404 . S
C116 H99 0.940 . S
C116 C115 1.404 . S
C116 C117 1.389 . S
C117 H100 0.939 . S
C117 C112 1.400 . S
C117 C116 1.389 . S
C118 P92 1.819 . S
C118 C119 1.391 . S
C118 C123 1.391 . S
C119 H101 0.941 . S
C119 C118 1.391 . S
C119 C120 1.396 . S
C120 H104 0.939 . S
C120 C119 1.396 . S
C120 C121 1.397 . S
C121 C120 1.397 . S
C121 C122 1.385 . S
C122 H105 0.940 . S
C122 C121 1.385 . S
C122 C123 1.388 . S
C123 H102 0.939 . S
C123 C118 1.391 . S
C123 C122 1.388 . S
P124 O135 1.490 . S
P124 C138 1.812 . S
P124 C144 1.803 . S
P124 C150 1.819 . S
H125 C139 0.941 . S
H126 C140 0.939 . S
H127 C142 0.940 . S
H128 C143 0.940 . S
H129 C145 0.939 1_455 S
H130 C146 0.942 . S
H131 C148 0.940 . S
H132 C149 0.939 1_455 S
H133 C151 0.941 . S
H134 C155 0.939 1_655 S
O135 P124 1.490 . S
H136 C152 0.939 . S
H137 C154 0.940 1_655 S
C138 P124 1.812 . S
C138 C139 1.389 . S
C138 C143 1.391 . S
C139 H125 0.941 . S
C139 C138 1.389 . S
C139 C140 1.397 . S
C140 H126 0.939 . S
C140 C139 1.397 . S
C140 C141 1.378 . S
C141 C140 1.378 . S
C141 C142 1.378 . S
C142 H127 0.940 . S
C142 C141 1.378 . S
C142 C143 1.396 . S
C143 H128 0.940 . S
C143 C138 1.391 . S
C143 C142 1.396 . S
C144 P124 1.803 . S
C144 C145 1.378 1_455 S
C144 C149 1.400 1_455 S
C145 H129 0.939 1_655 S
C145 C144 1.378 1_655 S
C145 C146 1.361 . S
C146 H130 0.942 . S
C146 C145 1.361 . S
C146 C147 1.369 . S
C147 C146 1.369 . S
C147 C148 1.404 . S
C148 H131 0.940 . S
C148 C147 1.404 . S
C148 C149 1.389 . S
C149 H132 0.939 1_655 S
C149 C144 1.400 1_655 S
C149 C148 1.389 . S
C150 P124 1.819 . S
C150 C151 1.391 . S
C150 C155 1.391 . S
C151 H133 0.941 . S
C151 C150 1.391 . S
C151 C152 1.396 . S
C152 H136 0.939 . S
C152 C151 1.396 . S
C152 C153 1.397 . S
C153 C152 1.397 . S
C153 C154 1.385 . S
C154 H137 0.940 1_455 S
C154 C153 1.385 . S
C154 C155 1.388 . S
C155 H134 0.939 1_455 S
C155 C150 1.391 . S
C155 C154 1.388 . S
P156 O167 1.490 . S
P156 C170 1.812 . S
P156 C176 1.803 . S
P156 C182 1.819 . S
H157 C171 0.941 . S
H158 C172 0.939 . S
H159 C174 0.940 . S
H160 C175 0.940 . S
H161 C177 0.939 . S
H162 C178 0.942 . S
H163 C180 0.940 . S
H164 C181 0.939 . S
H165 C183 0.941 . S
H166 C187 0.939 . S
O167 P156 1.490 . S
H168 C184 0.939 . S
H169 C186 0.940 . S
C170 P156 1.812 . S
C170 C171 1.389 . S
C170 C175 1.391 . S
C171 H157 0.941 . S
C171 C170 1.389 . S
C171 C172 1.397 . S
C172 H158 0.939 . S
C172 C171 1.397 . S
C172 C173 1.378 . S
C173 C172 1.378 . S
C173 C174 1.378 . S
C174 H159 0.940 . S
C174 C173 1.378 . S
C174 C175 1.396 . S
C175 H160 0.940 . S
C175 C170 1.391 . S
C175 C174 1.396 . S
C176 P156 1.803 . S
C176 C177 1.378 1_455 S
C176 C181 1.400 1_455 S
C177 H161 0.939 . S
C177 C176 1.378 1_655 S
C177 C178 1.361 . S
C178 H162 0.942 . S
C178 C177 1.361 . S
C178 C179 1.369 . S
C179 C178 1.369 . S
C179 C180 1.404 . S
C180 H163 0.940 . S
C180 C179 1.404 . S
C180 C181 1.389 . S
C181 H164 0.939 . S
C181 C176 1.400 1_655 S
C181 C180 1.389 . S
C182 P156 1.819 . S
C182 C183 1.391 . S
C182 C187 1.391 1_455 S
C183 H165 0.941 . S
C183 C182 1.391 . S
C183 C184 1.396 . S
C184 H168 0.939 . S
C184 C183 1.396 . S
C184 C185 1.397 . S
C185 C184 1.397 . S
C185 C186 1.385 1_455 S
C186 H169 0.940 . S
C186 C185 1.385 1_655 S
C186 C187 1.388 . S
C187 H166 0.939 . S
C187 C182 1.391 1_655 S
C187 C186 1.388 . S
P188 O199 1.490 . S
P188 C202 1.812 . S
P188 C208 1.803 . S
P188 C214 1.819 . S
H189 C203 0.941 . S
H190 C204 0.939 . S
H191 C206 0.940 . S
H192 C207 0.940 . S
H193 C209 0.939 . S
H194 C210 0.942 . S
H195 C212 0.940 . S
H196 C213 0.939 . S
H197 C215 0.941 . S
H198 C219 0.939 1_565 S
O199 P188 1.490 . S
H200 C216 0.939 . S
H201 C218 0.940 . S
C202 P188 1.812 . S
C202 C203 1.389 . S
C202 C207 1.391 . S
C203 H189 0.941 . S
C203 C202 1.389 . S
C203 C204 1.397 . S
C204 H190 0.939 . S
C204 C203 1.397 . S
C204 C205 1.378 . S
C205 C204 1.378 . S
C205 C206 1.378 . S
C206 H191 0.940 . S
C206 C205 1.378 . S
C206 C207 1.396 . S
C207 H192 0.940 . S
C207 C202 1.391 . S
C207 C206 1.396 . S
C208 P188 1.803 . S
C208 C209 1.378 1_545 S
C208 C213 1.400 1_545 S
C209 H193 0.939 . S
C209 C208 1.378 1_565 S
C209 C210 1.361 . S
C210 H194 0.942 . S
C210 C209 1.361 . S
C210 C211 1.369 . S
C211 C210 1.369 . S
C211 C212 1.404 . S
C212 H195 0.940 . S
C212 C211 1.404 . S
C212 C213 1.389 . S
C213 H196 0.939 . S
C213 C208 1.400 1_565 S
C213 C212 1.389 . S
C214 P188 1.819 . S
C214 C215 1.391 . S
C214 C219 1.391 . S
C215 H197 0.941 . S
C215 C214 1.391 . S
C215 C216 1.396 . S
C216 H200 0.939 . S
C216 C215 1.396 . S
C216 C217 1.397 . S
C217 C216 1.397 . S
C217 C218 1.385 1_545 S
C218 H201 0.940 . S
C218 C217 1.385 1_565 S
C218 C219 1.388 1_565 S
C219 H198 0.939 1_545 S
C219 C214 1.391 . S
C219 C218 1.388 1_545 S
P220 O231 1.490 . S
P220 C234 1.812 . S
P220 C240 1.803 . S
P220 C246 1.819 . S
H221 C235 0.941 . S
H222 C236 0.939 . S
H223 C238 0.940 . S
H224 C239 0.940 . S
H225 C241 0.939 . S
H226 C242 0.942 . S
H227 C244 0.940 . S
H228 C245 0.939 . S
H229 C247 0.941 . S
H230 C251 0.939 . S
O231 P220 1.490 . S
H232 C248 0.939 . S
H233 C250 0.940 . S
C234 P220 1.812 . S
C234 C235 1.389 . S
C234 C239 1.391 . S
C235 H221 0.941 . S
C235 C234 1.389 . S
C235 C236 1.397 . S
C236 H222 0.939 . S
C236 C235 1.397 . S
C236 C237 1.378 . S
C237 C236 1.378 . S
C237 C238 1.378 . S
C238 H223 0.940 . S
C238 C237 1.378 . S
C238 C239 1.396 . S
C239 H224 0.940 . S
C239 C234 1.391 . S
C239 C238 1.396 . S
C240 P220 1.803 . S
C240 C241 1.378 . S
C240 C245 1.400 . S
C241 H225 0.939 . S
C241 C240 1.378 . S
C241 C242 1.361 . S
C242 H226 0.942 . S
C242 C241 1.361 . S
C242 C243 1.369 . S
C243 C242 1.369 . S
C243 C244 1.404 . S
C244 H227 0.940 . S
C244 C243 1.404 . S
C244 C245 1.389 . S
C245 H228 0.939 . S
C245 C240 1.400 . S
C245 C244 1.389 . S
C246 P220 1.819 . S
C246 C247 1.391 . S
C246 C251 1.391 . S
C247 H229 0.941 . S
C247 C246 1.391 . S
C247 C248 1.396 . S
C248 H232 0.939 . S
C248 C247 1.396 . S
C248 C249 1.397 . S
C249 C248 1.397 . S
C249 C250 1.385 . S
C250 H233 0.940 . S
C250 C249 1.385 . S
C250 C251 1.388 . S
C251 H230 0.939 . S
C251 C246 1.391 . S
C251 C250 1.388 . S
C252 C253 1.349 . S
C252 C254 1.327 . S
C252 H277 0.950 . S
C253 C252 1.349 . S
C253 C269 1.349 . S
C254 C252 1.327 . S
C254 C273 1.429 . S
C254 H278 0.950 . S
C255 C272 1.574 . S
C255 C274 1.368 . S
C255 H279 0.949 . S
H256 C260 0.949 . S
C257 C258 1.349 . S
C257 C259 1.327 . S
C257 H280 0.950 . S
C258 C257 1.349 . S
C258 C270 1.349 . S
C259 C257 1.327 . S
C259 C275 1.429 . S
C259 H281 0.950 . S
C260 H256 0.949 . S
C260 C268 1.574 . S
C260 C276 1.368 . S
H261 C269 0.950 . S
H262 C267 0.950 . S
H263 C268 0.949 . S
H264 C270 0.950 . S
H265 C271 0.950 . S
H266 C272 0.949 . S
C267 H262 0.950 . S
C267 C269 1.327 . S
C267 C273 1.429 . S
C268 C260 1.574 . S
C268 H263 0.949 . S
C268 C274 1.368 . S
C269 C253 1.349 . S
C269 H261 0.950 . S
C269 C267 1.327 . S
C270 C258 1.349 . S
C270 H264 0.950 . S
C270 C271 1.327 . S
C271 H265 0.950 . S
C271 C270 1.327 . S
C271 C275 1.429 . S
C272 C255 1.574 . S
C272 H266 0.949 . S
C272 C276 1.368 . S
C273 C254 1.429 . S
C273 C267 1.429 . S
C273 C274 1.523 . S
C274 C255 1.368 . S
C274 C268 1.368 . S
C274 C273 1.523 . S
C275 C259 1.429 . S
C275 C271 1.429 . S
C275 C276 1.523 . S
C276 C260 1.368 . S
C276 C272 1.368 . S
C276 C275 1.523 . S
H277 C252 0.950 . S
H278 C254 0.950 . S
H279 C255 0.949 . S
H280 C257 0.950 . S
H281 C259 0.950 . S
C282 C283 1.349 . S
C282 C284 1.327 . S
C282 H307 0.950 . S
C283 C282 1.349 . S
C283 C299 1.349 . S
C284 C282 1.327 . S
C284 C303 1.429 . S
C284 H308 0.950 . S
C285 C302 1.574 . S
C285 C304 1.368 . S
C285 H309 0.949 . S
H286 C290 0.949 . S
C287 C288 1.349 . S
C287 C289 1.327 . S
C287 H310 0.950 . S
C288 C287 1.349 . S
C288 C300 1.349 . S
C289 C287 1.327 . S
C289 C305 1.429 . S
C289 H311 0.950 . S
C290 H286 0.949 . S
C290 C298 1.574 . S
C290 C306 1.368 . S
H291 C299 0.950 . S
H292 C297 0.950 . S
H293 C298 0.949 . S
H294 C300 0.950 . S
H295 C301 0.950 . S
H296 C302 0.949 . S
C297 H292 0.950 . S
C297 C299 1.327 . S
C297 C303 1.429 . S
C298 C290 1.574 . S
C298 H293 0.949 . S
C298 C304 1.368 . S
C299 C283 1.349 . S
C299 H291 0.950 . S
C299 C297 1.327 . S
C300 C288 1.349 . S
C300 H294 0.950 . S
C300 C301 1.327 . S
C301 H295 0.950 . S
C301 C300 1.327 . S
C301 C305 1.429 . S
C302 C285 1.574 . S
C302 H296 0.949 . S
C302 C306 1.368 . S
C303 C284 1.429 . S
C303 C297 1.429 . S
C303 C304 1.523 . S
C304 C285 1.368 . S
C304 C298 1.368 . S
C304 C303 1.523 . S
C305 C289 1.429 . S
C305 C301 1.429 . S
C305 C306 1.523 . S
C306 C290 1.368 . S
C306 C302 1.368 . S
C306 C305 1.523 . S
H307 C282 0.950 . S
H308 C284 0.950 . S
H309 C285 0.949 . S
H310 C287 0.950 . S
H311 C289 0.950 . S
C312 C313 1.349 . S
C312 C314 1.327 . S
C312 H337 0.950 . S
C313 C312 1.349 . S
C313 C329 1.349 . S
C314 C312 1.327 . S
C314 C333 1.429 . S
C314 H338 0.950 . S
C315 C332 1.574 . S
C315 C334 1.368 . S
C315 H339 0.949 . S
H316 C320 0.949 . S
C317 C318 1.349 . S
C317 C319 1.327 . S
C317 H340 0.950 . S
C318 C317 1.349 . S
C318 C330 1.349 . S
C319 C317 1.327 . S
C319 C335 1.429 . S
C319 H341 0.950 . S
C320 H316 0.949 . S
C320 C328 1.574 . S
C320 C336 1.368 . S
H321 C329 0.950 . S
H322 C327 0.950 . S
H323 C328 0.949 . S
H324 C330 0.950 . S
H325 C331 0.950 . S
H326 C332 0.949 . S
C327 H322 0.950 . S
C327 C329 1.327 . S
C327 C333 1.429 . S
C328 C320 1.574 . S
C328 H323 0.949 . S
C328 C334 1.368 . S
C329 C313 1.349 . S
C329 H321 0.950 . S
C329 C327 1.327 . S
C330 C318 1.349 . S
C330 H324 0.950 . S
C330 C331 1.327 . S
C331 H325 0.950 . S
C331 C330 1.327 . S
C331 C335 1.429 . S
C332 C315 1.574 . S
C332 H326 0.949 . S
C332 C336 1.368 . S
C333 C314 1.429 . S
C333 C327 1.429 . S
C333 C334 1.523 . S
C334 C315 1.368 . S
C334 C328 1.368 . S
C334 C333 1.523 . S
C335 C319 1.429 . S
C335 C331 1.429 . S
C335 C336 1.523 . S
C336 C320 1.368 . S
C336 C332 1.368 . S
C336 C335 1.523 . S
H337 C312 0.950 . S
H338 C314 0.950 . S
H339 C315 0.949 . S
H340 C317 0.950 . S
H341 C319 0.950 . S
C342 C343 1.349 . S
C342 C344 1.327 . S
C342 H367 0.950 . S
C343 C342 1.349 . S
C343 C359 1.349 . S
C344 C342 1.327 . S
C344 C363 1.429 . S
C344 H368 0.950 . S
C345 C362 1.574 . S
C345 C364 1.368 . S
C345 H369 0.949 . S
H346 C350 0.949 . S
C347 C348 1.349 . S
C347 C349 1.327 . S
C347 H370 0.950 . S
C348 C347 1.349 . S
C348 C360 1.349 . S
C349 C347 1.327 . S
C349 C365 1.429 . S
C349 H371 0.950 . S
C350 H346 0.949 . S
C350 C358 1.574 . S
C350 C366 1.368 . S
H351 C359 0.950 . S
H352 C357 0.950 . S
H353 C358 0.949 . S
H354 C360 0.950 . S
H355 C361 0.950 . S
H356 C362 0.949 . S
C357 H352 0.950 . S
C357 C359 1.327 . S
C357 C363 1.429 . S
C358 C350 1.574 . S
C358 H353 0.949 . S
C358 C364 1.368 . S
C359 C343 1.349 . S
C359 H351 0.950 . S
C359 C357 1.327 . S
C360 C348 1.349 . S
C360 H354 0.950 . S
C360 C361 1.327 . S
C361 H355 0.950 . S
C361 C360 1.327 . S
C361 C365 1.429 . S
C362 C345 1.574 . S
C362 H356 0.949 . S
C362 C366 1.368 . S
C363 C344 1.429 . S
C363 C357 1.429 . S
C363 C364 1.523 . S
C364 C345 1.368 . S
C364 C358 1.368 . S
C364 C363 1.523 . S
C365 C349 1.429 . S
C365 C361 1.429 . S
C365 C366 1.523 . S
C366 C350 1.368 . S
C366 C362 1.368 . S
C366 C365 1.523 . S
H367 C342 0.950 . S
H368 C344 0.950 . S
H369 C345 0.949 . S
H370 C347 0.950 . S
H371 C349 0.950 . S
C372 C373 1.349 . S
C372 C374 1.327 . S
C372 H397 0.950 . S
C373 C372 1.349 . S
C373 C389 1.349 . S
C374 C372 1.327 . S
C374 C393 1.429 . S
C374 H398 0.950 . S
C375 C392 1.574 . S
C375 C394 1.368 . S
C375 H399 0.949 . S
H376 C380 0.949 . S
C377 C378 1.349 . S
C377 C379 1.327 . S
C377 H400 0.950 . S
C378 C377 1.349 . S
C378 C390 1.349 . S
C379 C377 1.327 . S
C379 C395 1.429 . S
C379 H401 0.950 . S
C380 H376 0.949 . S
C380 C388 1.574 . S
C380 C396 1.368 . S
H381 C389 0.950 . S
H382 C387 0.950 . S
H383 C388 0.949 . S
H384 C390 0.950 . S
H385 C391 0.950 . S
H386 C392 0.949 . S
C387 H382 0.950 . S
C387 C389 1.327 . S
C387 C393 1.429 . S
C388 C380 1.574 . S
C388 H383 0.949 . S
C388 C394 1.368 . S
C389 C373 1.349 . S
C389 H381 0.950 . S
C389 C387 1.327 . S
C390 C378 1.349 . S
C390 H384 0.950 . S
C390 C391 1.327 . S
C391 H385 0.950 . S
C391 C390 1.327 . S
C391 C395 1.429 . S
C392 C375 1.574 . S
C392 H386 0.949 . S
C392 C396 1.368 . S
C393 C374 1.429 . S
C393 C387 1.429 . S
C393 C394 1.523 . S
C394 C375 1.368 . S
C394 C388 1.368 . S
C394 C393 1.523 . S
C395 C379 1.429 . S
C395 C391 1.429 . S
C395 C396 1.523 . S
C396 C380 1.368 . S
C396 C392 1.368 . S
C396 C395 1.523 . S
H397 C372 0.950 . S
H398 C374 0.950 . S
H399 C375 0.949 . S
H400 C377 0.950 . S
H401 C379 0.950 . S
C402 C403 1.349 . S
C402 C404 1.327 . S
C402 H427 0.950 . S
C403 C402 1.349 . S
C403 C419 1.349 . S
C404 C402 1.327 . S
C404 C423 1.429 . S
C404 H428 0.950 . S
C405 C422 1.574 . S
C405 C424 1.368 . S
C405 H429 0.949 . S
H406 C410 0.949 . S
C407 C408 1.349 . S
C407 C409 1.327 . S
C407 H430 0.950 . S
C408 C407 1.349 . S
C408 C420 1.349 . S
C409 C407 1.327 . S
C409 C425 1.429 . S
C409 H431 0.950 . S
C410 H406 0.949 . S
C410 C418 1.574 . S
C410 C426 1.368 . S
H411 C419 0.950 . S
H412 C417 0.950 . S
H413 C418 0.949 . S
H414 C420 0.950 . S
H415 C421 0.950 . S
H416 C422 0.949 . S
C417 H412 0.950 . S
C417 C419 1.327 . S
C417 C423 1.429 . S
C418 C410 1.574 . S
C418 H413 0.949 . S
C418 C424 1.368 . S
C419 C403 1.349 . S
C419 H411 0.950 . S
C419 C417 1.327 . S
C420 C408 1.349 . S
C420 H414 0.950 . S
C420 C421 1.327 . S
C421 H415 0.950 . S
C421 C420 1.327 . S
C421 C425 1.429 . S
C422 C405 1.574 . S
C422 H416 0.949 . S
C422 C426 1.368 . S
C423 C404 1.429 . S
C423 C417 1.429 . S
C423 C424 1.523 . S
C424 C405 1.368 . S
C424 C418 1.368 . S
C424 C423 1.523 . S
C425 C409 1.429 . S
C425 C421 1.429 . S
C425 C426 1.523 . S
C426 C410 1.368 . S
C426 C422 1.368 . S
C426 C425 1.523 . S
H427 C402 0.950 . S
H428 C404 0.950 . S
H429 C405 0.949 . S
H430 C407 0.950 . S
H431 C409 0.950 . S
C432 C433 1.349 . S
C432 C434 1.327 . S
C432 H457 0.950 . S
C433 C432 1.349 . S
C433 C449 1.349 . S
C434 C432 1.327 . S
C434 C453 1.429 . S
C434 H458 0.950 . S
C435 C452 1.574 . S
C435 C454 1.368 . S
C435 H459 0.949 . S
H436 C440 0.949 . S
C437 C438 1.349 . S
C437 C439 1.327 . S
C437 H460 0.950 . S
C438 C437 1.349 . S
C438 C450 1.349 . S
C439 C437 1.327 . S
C439 C455 1.429 . S
C439 H461 0.950 . S
C440 H436 0.949 . S
C440 C448 1.574 . S
C440 C456 1.368 . S
H441 C449 0.950 . S
H442 C447 0.950 . S
H443 C448 0.949 . S
H444 C450 0.950 . S
H445 C451 0.950 . S
H446 C452 0.949 . S
C447 H442 0.950 . S
C447 C449 1.327 . S
C447 C453 1.429 . S
C448 C440 1.574 . S
C448 H443 0.949 . S
C448 C454 1.368 . S
C449 C433 1.349 . S
C449 H441 0.950 . S
C449 C447 1.327 . S
C450 C438 1.349 . S
C450 H444 0.950 . S
C450 C451 1.327 . S
C451 H445 0.950 . S
C451 C450 1.327 . S
C451 C455 1.429 . S
C452 C435 1.574 . S
C452 H446 0.949 . S
C452 C456 1.368 . S
C453 C434 1.429 . S
C453 C447 1.429 . S
C453 C454 1.523 . S
C454 C435 1.368 . S
C454 C448 1.368 . S
C454 C453 1.523 . S
C455 C439 1.429 . S
C455 C451 1.429 . S
C455 C456 1.523 . S
C456 C440 1.368 . S
C456 C452 1.368 . S
C456 C455 1.523 . S
H457 C432 0.950 . S
H458 C434 0.950 . S
H459 C435 0.949 . S
H460 C437 0.950 . S
H461 C439 0.950 . S
C462 C463 1.349 . S
C462 C464 1.327 . S
C462 H487 0.950 . S
C463 C462 1.349 . S
C463 C479 1.349 . S
C464 C462 1.327 . S
C464 C483 1.429 . S
C464 H488 0.950 . S
C465 C482 1.574 . S
C465 C484 1.368 . S
C465 H489 0.949 . S
H466 C470 0.949 . S
C467 C468 1.349 . S
C467 C469 1.327 . S
C467 H490 0.950 . S
C468 C467 1.349 . S
C468 C480 1.349 . S
C469 C467 1.327 . S
C469 C485 1.429 . S
C469 H491 0.950 . S
C470 H466 0.949 . S
C470 C478 1.574 . S
C470 C486 1.368 . S
H471 C479 0.950 . S
H472 C477 0.950 . S
H473 C478 0.949 . S
H474 C480 0.950 . S
H475 C481 0.950 . S
H476 C482 0.949 . S
C477 H472 0.950 . S
C477 C479 1.327 . S
C477 C483 1.429 . S
C478 C470 1.574 . S
C478 H473 0.949 . S
C478 C484 1.368 . S
C479 C463 1.349 . S
C479 H471 0.950 . S
C479 C477 1.327 . S
C480 C468 1.349 . S
C480 H474 0.950 . S
C480 C481 1.327 . S
C481 H475 0.950 . S
C481 C480 1.327 . S
C481 C485 1.429 . S
C482 C465 1.574 . S
C482 H476 0.949 . S
C482 C486 1.368 . S
C483 C464 1.429 . S
C483 C477 1.429 . S
C483 C484 1.523 . S
C484 C465 1.368 . S
C484 C478 1.368 . S
C484 C483 1.523 . S
C485 C469 1.429 . S
C485 C481 1.429 . S
C485 C486 1.523 . S
C486 C470 1.368 . S
C486 C482 1.368 . S
C486 C485 1.523 . S
H487 C462 0.950 . S
H488 C464 0.950 . S
H489 C465 0.949 . S
H490 C467 0.950 . S
H491 C469 0.950 . S
C492 C493 1.349 . S
C492 C494 1.327 . S
C492 H517 0.950 . S
C493 C492 1.349 . S
C493 C509 1.349 . S
C494 C492 1.327 . S
C494 C513 1.429 . S
C494 H518 0.950 . S
C495 C512 1.574 . S
C495 C514 1.368 . S
C495 H519 0.949 . S
H496 C500 0.949 . S
C497 C498 1.349 . S
C497 C499 1.327 . S
C497 H520 0.950 . S
C498 C497 1.349 . S
C498 C510 1.349 . S
C499 C497 1.327 . S
C499 C515 1.429 . S
C499 H521 0.950 . S
C500 H496 0.949 . S
C500 C508 1.574 . S
C500 C516 1.368 . S
H501 C509 0.950 . S
H502 C507 0.950 . S
H503 C508 0.949 . S
H504 C510 0.950 . S
H505 C511 0.950 . S
H506 C512 0.949 . S
C507 H502 0.950 . S
C507 C509 1.327 . S
C507 C513 1.429 . S
C508 C500 1.574 . S
C508 H503 0.949 . S
C508 C514 1.368 . S
C509 C493 1.349 . S
C509 H501 0.950 . S
C509 C507 1.327 . S
C510 C498 1.349 . S
C510 H504 0.950 . S
C510 C511 1.327 . S
C511 H505 0.950 . S
C511 C510 1.327 . S
C511 C515 1.429 . S
C512 C495 1.574 . S
C512 H506 0.949 . S
C512 C516 1.368 . S
C513 C494 1.429 . S
C513 C507 1.429 . S
C513 C514 1.523 . S
C514 C495 1.368 . S
C514 C508 1.368 . S
C514 C513 1.523 . S
C515 C499 1.429 . S
C515 C511 1.429 . S
C515 C516 1.523 . S
C516 C500 1.368 . S
C516 C512 1.368 . S
C516 C515 1.523 . S
H517 C492 0.950 . S
H518 C494 0.950 . S
H519 C495 0.949 . S
H520 C497 0.950 . S
H521 C499 0.950 . S
C522 C523 1.349 . S
C522 C524 1.327 . S
C522 H547 0.950 . S
C523 C522 1.349 . S
C523 C539 1.349 . S
C524 C522 1.327 . S
C524 C543 1.429 . S
C524 H548 0.950 . S
C525 C542 1.574 . S
C525 C544 1.368 . S
C525 H549 0.949 . S
H526 C530 0.949 . S
C527 C528 1.349 . S
C527 C529 1.327 . S
C527 H550 0.950 . S
C528 C527 1.349 . S
C528 C540 1.349 . S
C529 C527 1.327 . S
C529 C545 1.429 . S
C529 H551 0.950 . S
C530 H526 0.949 . S
C530 C538 1.574 . S
C530 C546 1.368 . S
H531 C539 0.950 . S
H532 C537 0.950 . S
H533 C538 0.949 . S
H534 C540 0.950 . S
H535 C541 0.950 . S
H536 C542 0.949 . S
C537 H532 0.950 . S
C537 C539 1.327 . S
C537 C543 1.429 . S
C538 C530 1.574 . S
C538 H533 0.949 . S
C538 C544 1.368 . S
C539 C523 1.349 . S
C539 H531 0.950 . S
C539 C537 1.327 . S
C540 C528 1.349 . S
C540 H534 0.950 . S
C540 C541 1.327 . S
C541 H535 0.950 . S
C541 C540 1.327 . S
C541 C545 1.429 . S
C542 C525 1.574 . S
C542 H536 0.949 . S
C542 C546 1.368 . S
C543 C524 1.429 . S
C543 C537 1.429 . S
C543 C544 1.523 . S
C544 C525 1.368 . S
C544 C538 1.368 . S
C544 C543 1.523 . S
C545 C529 1.429 . S
C545 C541 1.429 . S
C545 C546 1.523 . S
C546 C530 1.368 . S
C546 C542 1.368 . S
C546 C545 1.523 . S
H547 C522 0.950 . S
H548 C524 0.950 . S
H549 C525 0.949 . S
H550 C527 0.950 . S
H551 C529 0.950 . S
C552 C553 1.349 . S
C552 C554 1.327 . S
C552 H577 0.950 . S
C553 C552 1.349 . S
C553 C569 1.349 . S
C554 C552 1.327 . S
C554 C573 1.429 . S
C554 H578 0.950 . S
C555 C572 1.574 . S
C555 C574 1.368 . S
C555 H579 0.949 . S
H556 C560 0.949 . S
C557 C558 1.349 . S
C557 C559 1.327 . S
C557 H580 0.950 . S
C558 C557 1.349 . S
C558 C570 1.349 . S
C559 C557 1.327 . S
C559 C575 1.429 . S
C559 H581 0.950 . S
C560 H556 0.949 . S
C560 C568 1.574 . S
C560 C576 1.368 . S
H561 C569 0.950 . S
H562 C567 0.950 . S
H563 C568 0.949 . S
H564 C570 0.950 . S
H565 C571 0.950 . S
H566 C572 0.949 . S
C567 H562 0.950 . S
C567 C569 1.327 . S
C567 C573 1.429 . S
C568 C560 1.574 . S
C568 H563 0.949 . S
C568 C574 1.368 . S
C569 C553 1.349 . S
C569 H561 0.950 . S
C569 C567 1.327 . S
C570 C558 1.349 . S
C570 H564 0.950 . S
C570 C571 1.327 . S
C571 H565 0.950 . S
C571 C570 1.327 . S
C571 C575 1.429 . S
C572 C555 1.574 . S
C572 H566 0.949 . S
C572 C576 1.368 . S
C573 C554 1.429 . S
C573 C567 1.429 . S
C573 C574 1.523 . S
C574 C555 1.368 . S
C574 C568 1.368 . S
C574 C573 1.523 . S
C575 C559 1.429 . S
C575 C571 1.429 . S
C575 C576 1.523 . S
C576 C560 1.368 . S
C576 C572 1.368 . S
C576 C575 1.523 . S
H577 C552 0.950 . S
H578 C554 0.950 . S
H579 C555 0.949 . S
H580 C557 0.950 . S
H581 C559 0.950 . S
C582 C583 1.349 . S
C582 C584 1.327 . S
C582 H607 0.950 . S
C583 C582 1.349 . S
C583 C599 1.349 . S
C584 C582 1.327 . S
C584 C603 1.429 . S
C584 H608 0.950 . S
C585 C602 1.574 . S
C585 C604 1.368 . S
C585 H609 0.949 . S
H586 C590 0.949 . S
C587 C588 1.349 . S
C587 C589 1.327 . S
C587 H610 0.950 . S
C588 C587 1.349 . S
C588 C600 1.349 . S
C589 C587 1.327 . S
C589 C605 1.429 . S
C589 H611 0.950 . S
C590 H586 0.949 . S
C590 C598 1.574 . S
C590 C606 1.368 . S
H591 C599 0.950 . S
H592 C597 0.950 . S
H593 C598 0.949 . S
H594 C600 0.950 . S
H595 C601 0.950 . S
H596 C602 0.949 . S
C597 H592 0.950 . S
C597 C599 1.327 . S
C597 C603 1.429 . S
C598 C590 1.574 . S
C598 H593 0.949 . S
C598 C604 1.368 . S
C599 C583 1.349 . S
C599 H591 0.950 . S
C599 C597 1.327 . S
C600 C588 1.349 . S
C600 H594 0.950 . S
C600 C601 1.327 . S
C601 H595 0.950 . S
C601 C600 1.327 . S
C601 C605 1.429 . S
C602 C585 1.574 . S
C602 H596 0.949 . S
C602 C606 1.368 . S
C603 C584 1.429 . S
C603 C597 1.429 . S
C603 C604 1.523 . S
C604 C585 1.368 . S
C604 C598 1.368 . S
C604 C603 1.523 . S
C605 C589 1.429 . S
C605 C601 1.429 . S
C605 C606 1.523 . S
C606 C590 1.368 . S
C606 C602 1.368 . S
C606 C605 1.523 . S
H607 C582 0.950 . S
H608 C584 0.950 . S
H609 C585 0.949 . S
H610 C587 0.950 . S
H611 C589 0.950 . S
C612 C613 1.349 . S
C612 C614 1.327 . S
C612 H637 0.950 . S
C613 C612 1.349 . S
C613 C629 1.349 1_455 S
C614 C612 1.327 . S
C614 C633 1.429 . S
C614 H638 0.950 . S
C615 C632 1.574 . S
C615 C634 1.368 1_655 S
C615 H639 0.949 . S
H616 C620 0.949 . S
C617 C618 1.350 . S
C617 C619 1.327 1_455 S
C617 H640 0.949 1_455 S
C618 C617 1.350 . S
C618 C630 1.349 . S
C619 C617 1.327 1_655 S
C619 C635 1.429 1_656 S
C619 H641 0.950 . S
C620 H616 0.949 . S
C620 C628 1.574 . S
C620 C636 1.368 . S
H621 C629 0.950 . S
H622 C627 0.950 . S
H623 C628 0.949 . S
H624 C630 0.950 . S
H625 C631 0.950 1_554 S
H626 C632 0.949 . S
C627 H622 0.950 . S
C627 C629 1.327 . S
C627 C633 1.429 1_655 S
C628 C620 1.574 . S
C628 H623 0.949 . S
C628 C634 1.368 . S
C629 C613 1.349 1_655 S
C629 H621 0.950 . S
C629 C627 1.327 . S
C630 C618 1.349 . S
C630 H624 0.950 . S
C630 C631 1.327 . S
C631 H625 0.950 1_556 S
C631 C630 1.327 . S
C631 C635 1.429 1_556 S
C632 C615 1.574 . S
C632 H626 0.949 . S
C632 C636 1.368 1_655 S
C633 C614 1.429 . S
C633 C627 1.429 1_455 S
C633 C634 1.523 . S
C634 C615 1.368 1_455 S
C634 C628 1.368 . S
C634 C633 1.523 . S
C635 C619 1.429 1_454 S
C635 C631 1.429 1_554 S
C635 C636 1.523 . S
C636 C620 1.368 . S
C636 C632 1.368 1_455 S
C636 C635 1.523 . S
H637 C612 0.950 . S
H638 C614 0.950 . S
H639 C615 0.949 . S
H640 C617 0.949 1_655 S
H641 C619 0.950 . S
C642 C643 1.349 . S
C642 C644 1.327 . S
C642 H667 0.950 . S
C643 C642 1.349 . S
C643 C659 1.349 1_545 S
C644 C642 1.327 . S
C644 C663 1.429 . S
C644 H668 0.950 . S
C645 C662 1.574 . S
C645 C664 1.368 1_565 S
C645 H669 0.949 . S
H646 C650 0.949 . S
C647 C648 1.349 . S
C647 C649 1.327 . S
C647 H670 0.950 1_545 S
C648 C647 1.349 . S
C648 C660 1.349 . S
C649 C647 1.327 . S
C649 C665 1.429 . S
C649 H671 0.950 1_545 S
C650 H646 0.949 . S
C650 C658 1.574 . S
C650 C666 1.368 . S
H651 C659 0.950 . S
H652 C657 0.950 . S
H653 C658 0.949 . S
H654 C660 0.950 . S
H655 C661 0.950 . S
H656 C662 0.949 . S
C657 H652 0.950 . S
C657 C659 1.327 . S
C657 C663 1.429 1_565 S
C658 C650 1.574 . S
C658 H653 0.949 . S
C658 C664 1.368 . S
C659 C643 1.349 1_565 S
C659 H651 0.950 . S
C659 C657 1.327 . S
C660 C648 1.349 . S
C660 H654 0.950 . S
C660 C661 1.327 . S
C661 H655 0.950 . S
C661 C660 1.327 . S
C661 C665 1.429 . S
C662 C645 1.574 . S
C662 H656 0.949 . S
C662 C666 1.368 1_565 S
C663 C644 1.429 . S
C663 C657 1.429 1_545 S
C663 C664 1.523 . S
C664 C645 1.368 1_545 S
C664 C658 1.368 . S
C664 C663 1.523 . S
C665 C649 1.429 . S
C665 C661 1.429 . S
C665 C666 1.523 . S
C666 C650 1.368 . S
C666 C662 1.368 1_545 S
C666 C665 1.523 . S
H667 C642 0.950 . S
H668 C644 0.950 . S
H669 C645 0.949 . S
H670 C647 0.950 1_565 S
H671 C649 0.950 1_565 S
C672 C673 1.349 . S
C672 C674 1.327 . S
C672 H697 0.950 . S
C673 C672 1.349 . S
C673 C689 1.349 . S
C674 C672 1.327 . S
C674 C693 1.429 . S
C674 H698 0.950 . S
C675 C692 1.574 . S
C675 C694 1.368 . S
C675 H699 0.949 . S
H676 C680 0.949 . S
C677 C678 1.349 . S
C677 C679 1.327 . S
C677 H700 0.950 . S
C678 C677 1.349 . S
C678 C690 1.349 . S
C679 C677 1.327 . S
C679 C695 1.429 . S
C679 H701 0.950 . S
C680 H676 0.949 . S
C680 C688 1.574 . S
C680 C696 1.368 . S
H681 C689 0.950 . S
H682 C687 0.950 . S
H683 C688 0.949 . S
H684 C690 0.950 . S
H685 C691 0.950 . S
H686 C692 0.949 . S
C687 H682 0.950 . S
C687 C689 1.327 . S
C687 C693 1.429 . S
C688 C680 1.574 . S
C688 H683 0.949 . S
C688 C694 1.368 . S
C689 C673 1.349 . S
C689 H681 0.950 . S
C689 C687 1.327 . S
C690 C678 1.349 . S
C690 H684 0.950 . S
C690 C691 1.327 . S
C691 H685 0.950 . S
C691 C690 1.327 . S
C691 C695 1.429 . S
C692 C675 1.574 . S
C692 H686 0.949 . S
C692 C696 1.368 . S
C693 C674 1.429 . S
C693 C687 1.429 . S
C693 C694 1.523 . S
C694 C675 1.368 . S
C694 C688 1.368 . S
C694 C693 1.523 . S
C695 C679 1.429 . S
C695 C691 1.429 . S
C695 C696 1.523 . S
C696 C680 1.368 . S
C696 C692 1.368 . S
C696 C695 1.523 . S
H697 C672 0.950 . S
H698 C674 0.950 . S
H699 C675 0.949 . S
H700 C677 0.950 . S
H701 C679 0.950 . S
C702 C703 1.349 . S
C702 C704 1.327 . S
C702 H727 0.950 . S
C703 C702 1.349 . S
C703 C719 1.349 1_545 S
C704 C702 1.327 . S
C704 C723 1.429 . S
C704 H728 0.950 . S
C705 C722 1.574 . S
C705 C724 1.368 1_565 S
C705 H729 0.949 . S
H706 C710 0.949 . S
C707 C708 1.349 1_565 S
C707 C709 1.327 . S
C707 H730 0.950 . S
C708 C707 1.349 1_545 S
C708 C720 1.349 . S
C709 C707 1.327 . S
C709 C725 1.429 1_565 S
C709 H731 0.950 . S
C710 H706 0.949 . S
C710 C718 1.574 . S
C710 C726 1.368 . S
H711 C719 0.950 . S
H712 C717 0.950 . S
H713 C718 0.949 . S
H714 C720 0.950 . S
H715 C721 0.950 . S
H716 C722 0.949 . S
C717 H712 0.950 . S
C717 C719 1.327 . S
C717 C723 1.429 1_565 S
C718 C710 1.574 . S
C718 H713 0.949 . S
C718 C724 1.368 . S
C719 C703 1.349 1_565 S
C719 H711 0.950 . S
C719 C717 1.327 . S
C720 C708 1.349 . S
C720 H714 0.950 . S
C720 C721 1.327 . S
C721 H715 0.950 . S
C721 C720 1.327 . S
C721 C725 1.429 . S
C722 C705 1.574 . S
C722 H716 0.949 . S
C722 C726 1.368 1_565 S
C723 C704 1.429 . S
C723 C717 1.429 1_545 S
C723 C724 1.523 . S
C724 C705 1.368 1_545 S
C724 C718 1.368 . S
C724 C723 1.523 . S
C725 C709 1.429 1_545 S
C725 C721 1.429 . S
C725 C726 1.523 . S
C726 C710 1.368 . S
C726 C722 1.368 1_545 S
C726 C725 1.523 . S
H727 C702 0.950 . S
H728 C704 0.950 . S
H729 C705 0.949 . S
H730 C707 0.950 . S
H731 C709 0.950 . S
C732 C733 1.349 . S
C732 C734 1.327 . S
C732 H757 0.950 . S
C733 C732 1.349 . S
C733 C749 1.349 . S
C734 C732 1.327 . S
C734 C753 1.429 . S
C734 H758 0.950 . S
C735 C752 1.574 . S
C735 C754 1.368 . S
C735 H759 0.949 . S
H736 C740 0.949 . S
C737 C738 1.349 . S
C737 C739 1.327 . S
C737 H760 0.950 . S
C738 C737 1.349 . S
C738 C750 1.349 . S
C739 C737 1.327 . S
C739 C755 1.429 1_554 S
C739 H761 0.956 . S
C740 H736 0.949 . S
C740 C748 1.574 . S
C740 C756 1.368 . S
H741 C749 0.950 . S
H742 C747 0.950 . S
H743 C748 0.949 . S
H744 C750 0.950 . S
H745 C751 0.950 1_556 S
H746 C752 0.949 . S
C747 H742 0.950 . S
C747 C749 1.327 . S
C747 C753 1.429 . S
C748 C740 1.574 . S
C748 H743 0.949 . S
C748 C754 1.368 . S
C749 C733 1.349 . S
C749 H741 0.950 . S
C749 C747 1.327 . S
C750 C738 1.349 . S
C750 H744 0.950 . S
C750 C751 1.327 . S
C751 H745 0.950 1_554 S
C751 C750 1.327 . S
C751 C755 1.429 1_554 S
C752 C735 1.574 . S
C752 H746 0.949 . S
C752 C756 1.368 . S
C753 C734 1.429 . S
C753 C747 1.429 . S
C753 C754 1.523 . S
C754 C735 1.368 . S
C754 C748 1.368 . S
C754 C753 1.523 . S
C755 C739 1.429 1_556 S
C755 C751 1.429 1_556 S
C755 C756 1.523 . S
C756 C740 1.368 . S
C756 C752 1.368 . S
C756 C755 1.523 . S
H757 C732 0.950 . S
H758 C734 0.950 . S
H759 C735 0.949 . S
H760 C737 0.950 . S
H761 C739 0.956 . S
C762 C763 1.349 1_455 S
C762 C764 1.327 . S
C762 H787 0.950 . S
C763 C762 1.349 1_655 S
C763 C779 1.349 . S
C764 C762 1.327 . S
C764 C783 1.429 . S
C764 H788 0.950 . S
C765 C782 1.574 . S
C765 C784 1.368 . S
C765 H789 0.949 1_455 S
H766 C770 0.949 . S
C767 C768 1.349 . S
C767 C769 1.327 . S
C767 H790 0.950 . S
C768 C767 1.349 . S
C768 C780 1.349 . S
C769 C767 1.327 . S
C769 C785 1.429 . S
C769 H791 0.950 . S
C770 H766 0.949 . S
C770 C778 1.574 . S
C770 C786 1.368 . S
H771 C779 0.950 . S
H772 C777 0.950 . S
H773 C778 0.949 . S
H774 C780 0.950 . S
H775 C781 0.950 . S
H776 C782 0.949 . S
C777 H772 0.950 . S
C777 C779 1.327 . S
C777 C783 1.429 1_655 S
C778 C770 1.574 . S
C778 H773 0.949 . S
C778 C784 1.368 . S
C779 C763 1.349 . S
C779 H771 0.950 . S
C779 C777 1.327 . S
C780 C768 1.349 . S
C780 H774 0.950 . S
C780 C781 1.327 . S
C781 H775 0.950 . S
C781 C780 1.327 . S
C781 C785 1.429 . S
C782 C765 1.574 . S
C782 H776 0.949 . S
C782 C786 1.368 . S
C783 C764 1.429 . S
C783 C777 1.429 1_455 S
C783 C784 1.523 . S
C784 C765 1.368 . S
C784 C778 1.368 . S
C784 C783 1.523 . S
C785 C769 1.429 . S
C785 C781 1.429 . S
C785 C786 1.523 . S
C786 C770 1.368 . S
C786 C782 1.368 . S
C786 C785 1.523 . S
H787 C762 0.950 . S
H788 C764 0.950 . S
H789 C765 0.949 1_655 S
H790 C767 0.950 . S
H791 C769 0.950 . S
C253 C2 1.253 . S
C258 C243 1.303 . S
C283 C22 1.264 . S
C288 C179 1.322 . S
C313 C44 1.314 . S
C318 C211 1.375 . S
C343 C4 1.483 . S
C348 C237 1.559 . S
C378 C173 1.547 . S
C373 C24 1.486 . S
C408 C205 1.487 . S
C403 C42 1.416 . S
C433 C32 1.261 . S
C438 C115 1.272 . S
C463 C49 1.167 . S
C468 C147 1.168 . S
C493 C9 1.162 . S
C498 C77 1.163 . S
C528 C109 1.166 . S
C523 C29 1.136 . S
C558 C141 1.253 . S
C553 C52 1.210 . S
C583 C12 1.195 . S
C588 C83 1.211 . S
C618 C153 1.419 . S
C613 C18 1.432 1_455 S
C643 C38 1.423 . S
C648 C89 1.404 . S
C673 C58 1.423 . S
C678 C121 1.425 . S
C708 C217 1.468 . S
C703 C39 1.484 . S
C738 C249 1.460 . S
C733 C59 1.465 . S
C763 C19 1.468 1_655 S
C768 C185 1.463 . S
