# Generated by pormake.
# Topology the, (3,8)-cn, num edge types: 1
# Building blocks:
#     Node 0, Type 0, BuildingBlock: CUQRIR_clean_linker_1, # of connection points: 3
#     Node 1, Type 0, BuildingBlock: CUQRIR_clean_linker_1, # of connection points: 3
#     Node 2, Type 0, BuildingBlock: CUQRIR_clean_linker_1, # of connection points: 3
#     Node 3, Type 0, BuildingBlock: CUQRIR_clean_linker_1, # of connection points: 3
#     Node 4, Type 0, BuildingBlock: CUQRIR_clean_linker_1, # of connection points: 3
#     Node 5, Type 0, BuildingBlock: CUQRIR_clean_linker_1, # of connection points: 3
#     Node 6, Type 0, BuildingBlock: CUQRIR_clean_linker_1, # of connection points: 3
#     Node 7, Type 0, BuildingBlock: CUQRIR_clean_linker_1, # of connection points: 3
#     Node 8, Type 1, BuildingBlock: GIZVER_clean_sbu_0, # of connection points: 8
#     Node 9, Type 1, BuildingBlock: GIZVER_clean_sbu_0, # of connection points: 8
#     Node 10, Type 1, BuildingBlock: GIZVER_clean_sbu_0, # of connection points: 8
#     Edge 11, Type (0, 1), BuildingBlock: OJICUG_clean_linker_0, # of connection points: 2
#     Edge 12, Type (0, 1), BuildingBlock: OJICUG_clean_linker_0, # of connection points: 2
#     Edge 13, Type (0, 1), BuildingBlock: OJICUG_clean_linker_0, # of connection points: 2
#     Edge 14, Type (0, 1), BuildingBlock: OJICUG_clean_linker_0, # of connection points: 2
#     Edge 15, Type (0, 1), BuildingBlock: OJICUG_clean_linker_0, # of connection points: 2
#     Edge 16, Type (0, 1), BuildingBlock: OJICUG_clean_linker_0, # of connection points: 2
#     Edge 17, Type (0, 1), BuildingBlock: OJICUG_clean_linker_0, # of connection points: 2
#     Edge 18, Type (0, 1), BuildingBlock: OJICUG_clean_linker_0, # of connection points: 2
#     Edge 19, Type (0, 1), BuildingBlock: OJICUG_clean_linker_0, # of connection points: 2
#     Edge 20, Type (0, 1), BuildingBlock: OJICUG_clean_linker_0, # of connection points: 2
#     Edge 21, Type (0, 1), BuildingBlock: OJICUG_clean_linker_0, # of connection points: 2
#     Edge 22, Type (0, 1), BuildingBlock: OJICUG_clean_linker_0, # of connection points: 2
#     Edge 23, Type (0, 1), BuildingBlock: OJICUG_clean_linker_0, # of connection points: 2
#     Edge 24, Type (0, 1), BuildingBlock: OJICUG_clean_linker_0, # of connection points: 2
#     Edge 25, Type (0, 1), BuildingBlock: OJICUG_clean_linker_0, # of connection points: 2
#     Edge 26, Type (0, 1), BuildingBlock: OJICUG_clean_linker_0, # of connection points: 2
#     Edge 27, Type (0, 1), BuildingBlock: OJICUG_clean_linker_0, # of connection points: 2
#     Edge 28, Type (0, 1), BuildingBlock: OJICUG_clean_linker_0, # of connection points: 2
#     Edge 29, Type (0, 1), BuildingBlock: OJICUG_clean_linker_0, # of connection points: 2
#     Edge 30, Type (0, 1), BuildingBlock: OJICUG_clean_linker_0, # of connection points: 2
#     Edge 31, Type (0, 1), BuildingBlock: OJICUG_clean_linker_0, # of connection points: 2
#     Edge 32, Type (0, 1), BuildingBlock: OJICUG_clean_linker_0, # of connection points: 2
#     Edge 33, Type (0, 1), BuildingBlock: OJICUG_clean_linker_0, # of connection points: 2
#     Edge 34, Type (0, 1), BuildingBlock: OJICUG_clean_linker_0, # of connection points: 2
# Relax obj value: 0.079
# Max RMSD: 0.240
# Mean RMSD: 0.148
data_MOF--net-the--node1-GIZVER_clean_sbu_0--node2-CUQRIR_clean_linker_1--edge1-OJICUG_clean_linker_0
_symmetry_space_group_name_H-M    P1
_symmetry_Int_Tables_number       1
_symmetry_cell_setting            triclinic
loop_
_symmetry_equiv_pos_as_xyz
'x, y, z'
_cell_length_a     28.004986
_cell_length_b     25.798835
_cell_length_c     23.258412
_cell_angle_alpha  83.361743
_cell_angle_beta   100.59679
_cell_angle_gamma 112.79178
loop_
_atom_site_label
_atom_site_type_symbol
_atom_site_fract_x
_atom_site_fract_y
_atom_site_fract_z
_atom_type_partial_charge
C0 C 0.35 0.29665 0.44569 0.0
N1 N 0.38557 0.30721 0.40931 0.0
N2 N 0.33559 0.34107 0.4446 0.0
C3 C 0.3301 0.24332 0.48284 0.0
C4 C 0.36318 0.37882 0.40583 0.0
N5 N 0.39436 0.3587 0.38507 0.0
C6 C 0.35519 0.43266 0.3834 0.0
H7 H 0.30519 0.24639 0.51312 0.0
H8 H 0.36367 0.23386 0.50827 0.0
H9 H 0.30665 0.20784 0.4541 0.0
H10 H 0.31468 0.42899 0.38511 0.0
H11 H 0.36287 0.44433 0.33765 0.0
H12 H 0.38275 0.46722 0.4114 0.0
C13 C 0.7162 0.30499 0.23297 0.0
N14 N 0.74965 0.29769 0.28043 0.0
N15 N 0.72993 0.35997 0.21494 0.0
C16 C 0.66575 0.25915 0.209 0.0
C17 C 0.77447 0.38592 0.25191 0.0
N18 N 0.78655 0.3483 0.29153 0.0
C19 C 0.80136 0.44878 0.25515 0.0
H20 H 0.67314 0.22097 0.20329 0.0
H21 H 0.64806 0.27262 0.16615 0.0
H22 H 0.63757 0.24785 0.24056 0.0
H23 H 0.8011 0.46953 0.21068 0.0
H24 H 0.84244 0.46075 0.27749 0.0
H25 H 0.77985 0.4643 0.28017 0.0
C26 C 0.85354 0.80995 0.36775 0.0
N27 N 0.84585 0.7679 0.33303 0.0
N28 N 0.82069 0.83721 0.34712 0.0
C29 C 0.88884 0.81984 0.42576 0.0
C30 C 0.79351 0.81078 0.29746 0.0
N31 N 0.80831 0.76847 0.28883 0.0
C32 C 0.74586 0.81969 0.26338 0.0
H33 H 0.87935 0.77985 0.45274 0.0
H34 H 0.88548 0.85292 0.44941 0.0
H35 H 0.93003 0.83296 0.41841 0.0
H36 H 0.74295 0.81428 0.21608 0.0
H37 H 0.7472 0.86229 0.2695 0.0
H38 H 0.71025 0.78786 0.27907 0.0
C39 C 0.33824 0.66645 0.3075 0.0
N40 N 0.38797 0.70511 0.31042 0.0
N41 N 0.31306 0.67479 0.34808 0.0
C42 C 0.31464 0.61946 0.26552 0.0
C43 C 0.34929 0.72072 0.37542 0.0
N44 N 0.39473 0.7394 0.35259 0.0
C45 C 0.34202 0.74422 0.4281 0.0
H46 H 0.27142 0.59991 0.26249 0.0
H47 H 0.33174 0.58699 0.28018 0.0
H48 H 0.32381 0.63538 0.22098 0.0
H49 H 0.31757 0.71008 0.45605 0.0
H50 H 0.32171 0.77382 0.41301 0.0
H51 H 0.3801 0.76738 0.45487 0.0
C52 C 0.37643 0.69582 0.7743 0.0
N53 N 0.42569 0.73601 0.78075 0.0
N54 N 0.34397 0.71179 0.73182 0.0
C55 C 0.36193 0.63756 0.8033 0.0
C56 C 0.37533 0.76299 0.71257 0.0
N57 N 0.42525 0.7775 0.74091 0.0
C58 C 0.35709 0.79741 0.66318 0.0
H59 H 0.32585 0.60701 0.77937 0.0
H60 H 0.3548 0.63903 0.84833 0.0
H61 H 0.39443 0.6224 0.80646 0.0
H62 H 0.31545 0.79047 0.66339 0.0
H63 H 0.35983 0.78389 0.62073 0.0
H64 H 0.3815 0.8429 0.66684 0.0
C65 C 0.36581 0.27875 0.69215 0.0
N66 N 0.36443 0.31817 0.72524 0.0
N67 N 0.41236 0.272 0.70562 0.0
C68 C 0.32477 0.25314 0.64095 0.0
C69 C 0.43921 0.30875 0.74827 0.0
N70 N 0.41048 0.33697 0.7602 0.0
C71 C 0.49494 0.31959 0.77606 0.0
H72 H 0.28854 0.22372 0.65734 0.0
H73 H 0.33762 0.22959 0.61424 0.0
H74 H 0.31504 0.28657 0.6128 0.0
H75 H 0.52159 0.35663 0.75309 0.0
H76 H 0.50536 0.28275 0.773 0.0
H77 H 0.50086 0.3293 0.82271 0.0
C78 C 0.74573 0.31597 0.77048 0.0
N79 N 0.77866 0.30983 0.73816 0.0
N80 N 0.76783 0.36535 0.79743 0.0
C81 C 0.69016 0.2754 0.77197 0.0
C82 C 0.81567 0.38938 0.78048 0.0
N83 N 0.82271 0.35552 0.74492 0.0
C84 C 0.85185 0.44964 0.79097 0.0
H85 H 0.66487 0.28274 0.73176 0.0
H86 H 0.67515 0.28097 0.81084 0.0
H87 H 0.6878 0.2314 0.77271 0.0
H88 H 0.87974 0.45074 0.83184 0.0
H89 H 0.82982 0.47601 0.79614 0.0
H90 H 0.87445 0.46854 0.75425 0.0
C91 C 0.8384 0.77778 0.71429 0.0
N92 N 0.84876 0.73031 0.71807 0.0
N93 N 0.84246 0.80309 0.6603 0.0
C94 C 0.81617 0.7944 0.76045 0.0
C95 C 0.85459 0.76896 0.63087 0.0
N96 N 0.85801 0.72441 0.6657 0.0
C97 C 0.863 0.77945 0.56805 0.0
H98 H 0.7785 0.76033 0.76811 0.0
H99 H 0.80928 0.83397 0.7482 0.0
H100 H 0.84362 0.79993 0.80229 0.0
H101 H 0.8667 0.82286 0.55211 0.0
H102 H 0.82913 0.74909 0.54088 0.0
H103 H 0.89886 0.77286 0.56302 0.0
Co104 Co 0.16305 0.45344 0.58614 0.0
Co105 Co 0.10609 0.41893 0.48395 0.0
Co106 Co 0.06318 0.49785 0.53455 0.0
O107 O 0.08891 0.43379 0.55221 0.0
H108 H 0.06513 0.40058 0.57036 0.0
O109 O 0.04131 0.56349 0.52036 0.0
Co110 Co 0.97252 0.55812 0.48731 0.0
Co111 Co 1.02617 0.57419 0.5912 0.0
H112 H 0.06821 0.59713 0.50703 0.0
O113 O 0.11846 0.3541 0.47669 0.0
O114 O 0.17669 0.43597 0.51234 0.0
O115 O 0.10578 0.47138 0.41791 0.0
O116 O 0.11224 0.53794 0.47467 0.0
O117 O 1.00503 0.4555 0.47124 0.0
O118 O 0.91035 0.55944 0.4531 0.0
O119 O 0.9887 0.63139 0.46416 0.0
O120 O 0.94805 0.48009 0.50436 0.0
O121 O 1.01288 0.45635 0.59164 0.0
O122 O 1.0223 0.51779 0.65532 0.0
O123 O 0.95878 0.57168 0.565 0.0
O124 O 1.02942 0.64202 0.60911 0.0
C125 C 0.21027 0.41402 0.63436 0.0
C126 C 0.16688 0.55554 0.59278 0.0
C127 C 0.12259 0.5229 0.42935 0.0
C128 C 0.16637 0.38583 0.49598 0.0
C129 C 0.93877 0.61223 0.44327 0.0
C130 C 0.95741 0.45002 0.47152 0.0
C131 C 1.00494 0.46751 0.64007 0.0
C132 C 0.97906 0.61806 0.59341 0.0
O133 O 0.22822 0.46694 0.61823 0.0
O134 O 0.16025 0.38406 0.6194 0.0
O135 O 0.119 0.54163 0.59813 0.0
O136 O 0.17815 0.52788 0.55956 0.0
Co137 Co 0.66038 0.95139 0.49928 0.0
Co138 Co 0.68235 0.99429 0.6033 0.0
Co139 Co 0.60112 0.03763 0.52241 0.0
O140 O 0.66403 1.01904 0.52737 0.0
H141 H 0.69369 0.05095 0.51631 0.0
O142 O 0.53929 0.06041 0.51681 0.0
Co143 Co 0.55056 0.13314 0.54492 0.0
Co144 Co 0.52405 0.0907 0.44133 0.0
H145 H 0.50885 1.03018 0.52874 0.0
O146 O 0.74995 0.99694 0.62943 0.0
O147 O 0.68288 0.92845 0.5802 0.0
O148 O 0.63118 0.97238 0.65613 0.0
O149 O 0.56832 0.97773 0.58411 0.0
O150 O 0.64256 0.09358 0.58402 0.0
O151 O 0.5554 0.19647 0.57268 0.0
O152 O 0.4847 0.11577 0.56168 0.0
O153 O 0.62145 0.16112 0.53432 0.0
O154 O 0.63507 0.09651 0.46153 0.0
O155 O 0.57494 0.10662 0.38916 0.0
O156 O 0.5316 0.1607 0.46428 0.0
O157 O 0.46011 0.09888 0.41355 0.0
C158 C 0.71005 0.92559 0.46625 0.0
C159 C 0.55718 0.92811 0.46975 0.0
C160 C 0.58315 0.95989 0.63545 0.0
C161 C 0.7309 0.94794 0.60687 0.0
C162 C 0.507 0.16725 0.57945 0.0
C163 C 0.65195 0.14595 0.57369 0.0
C164 C 0.62223 0.11473 0.41013 0.0
C165 C 0.48486 0.14843 0.43449 0.0
O166 O 0.66273 0.89126 0.47233 0.0
O167 O 0.72693 0.97711 0.48299 0.0
O168 O 0.55999 0.9793 0.46129 0.0
O169 O 0.58983 0.91653 0.50943 0.0
Co170 Co 0.54119 0.59331 0.14064 0.0
Co171 Co 0.50223 0.49362 0.1032 0.0
Co172 Co 0.58734 0.57229 1.02214 0.0
O173 O 0.52746 0.56372 0.06402 0.0
H174 H 0.49952 0.57148 0.03819 0.0
O175 O 0.64787 0.57917 0.9843 0.0
Co176 Co 0.63594 0.53629 0.91871 0.0
Co177 Co 0.67233 0.63972 0.93518 0.0
H178 H 0.67691 0.57692 1.01282 0.0
O179 O 0.43663 0.46005 0.12518 0.0
O180 O 0.51115 0.51671 0.17825 0.0
O181 O 0.54222 0.44675 0.10822 0.0
O182 O 0.60944 0.51421 0.07338 0.0
O183 O 0.53624 0.51224 0.96704 0.0
O184 O 0.62857 0.49397 0.86057 0.0
O185 O 0.69179 0.5159 0.93923 0.0
O186 O 0.57511 0.551 0.89044 0.0
O187 O 0.56648 0.63156 0.96807 0.0
O188 O 0.62597 0.67885 0.90894 0.0
O189 O 0.67764 0.60387 0.87378 0.0
O190 O 0.74265 0.6683 0.93059 0.0
C191 C 0.50383 0.62697 0.18667 0.0
C192 C 0.64434 0.62145 0.13235 0.0
C193 C 0.58944 0.46634 0.09952 0.0
C194 C 0.46429 0.47778 0.17541 0.0
C195 C 0.6707 0.48921 0.8909 0.0
C196 C 0.53519 0.51656 0.91139 0.0
C197 C 0.58268 0.66862 0.92649 0.0
C198 C 0.72716 0.63534 0.88698 0.0
O199 O 0.54869 0.62359 0.20939 0.0
O200 O 0.48095 0.60592 0.13567 0.0
O201 O 0.63878 0.63134 0.07688 0.0
O202 O 0.60641 0.58582 0.15554 0.0
C203 C 0.30353 0.39159 0.50119 0.0
C204 C 0.29403 0.3447 0.46962 0.0
H205 H 0.27045 0.44217 0.53328 0.0
C206 C 0.24249 0.30694 0.45408 0.0
H207 H 0.34324 0.421 0.51341 0.0
C208 C 0.20059 0.3183 0.46611 0.0
C209 C 0.2099 0.36802 0.49311 0.0
H210 H 0.23466 0.27082 0.42915 0.0
H211 H 0.16104 0.28997 0.45103 0.0
C212 C 0.26182 0.40353 0.51238 0.0
C213 C 0.72338 0.19721 0.31199 0.0
C214 C 0.73192 0.25269 0.32366 0.0
H215 H 0.68068 0.10889 0.32994 0.0
C216 C 0.70858 0.26143 0.36817 0.0
H217 H 0.73994 0.18962 0.27676 0.0
C218 C 0.67479 0.21594 0.39785 0.0
C219 C 0.66326 0.16075 0.38322 0.0
H220 H 0.71238 0.30342 0.37602 0.0
H221 H 0.65522 0.224 0.42993 0.0
C222 C 0.68901 0.15132 0.34155 0.0
C223 C 0.8366 0.67379 0.37782 0.0
C224 C 0.86641 0.72412 0.34988 0.0
H225 H 0.83585 0.59876 0.42854 0.0
C226 C 0.9201 0.73673 0.35146 0.0
H227 H 0.79615 0.66473 0.38087 0.0
C228 C 0.94374 0.70029 0.38133 0.0
C229 C 0.9139 0.65014 0.40973 0.0
H230 H 0.94416 0.7763 0.33204 0.0
H231 H 0.98547 0.71178 0.38292 0.0
C232 C 0.85982 0.6367 0.40647 0.0
C233 C 0.4393 0.84237 0.36129 0.0
C234 C 0.44079 0.78803 0.37153 0.0
H235 H 0.4744 0.92936 0.38368 0.0
C236 C 0.48184 0.78104 0.41186 0.0
H237 H 0.40696 0.84843 0.33177 0.0
C238 C 0.51982 0.8268 0.44223 0.0
C239 C 0.51772 0.88109 0.43363 0.0
H240 H 0.48276 0.73949 0.42259 0.0
H241 H 0.55006 0.81898 0.47405 0.0
C242 C 0.47748 0.88849 0.39164 0.0
C243 C 0.2486 0.65428 0.71482 0.0
C244 C 0.29811 0.67466 0.6968 0.0
H245 H 0.16709 0.60074 0.6953 0.0
C246 C 0.30331 0.65788 0.64392 0.0
H247 H 0.24409 0.66692 0.75566 0.0
C248 C 0.26014 0.62066 0.60983 0.0
C249 C 0.21045 0.59913 0.62774 0.0
H250 H 0.34128 0.67313 0.62955 0.0
H251 H 0.26595 0.60816 0.56956 0.0
C252 C 0.2048 0.61689 0.68025 0.0
C253 C 0.47721 0.27767 0.64404 0.0
C254 C 0.43381 0.24514 0.67163 0.0
H255 H 0.5337 0.27875 0.59299 0.0
C256 C 0.41188 0.18661 0.66539 0.0
H257 H 0.49402 0.32295 0.64714 0.0
C258 C 0.43412 0.16095 0.63349 0.0
C259 C 0.47894 0.19347 0.60777 0.0
H260 H 0.3781 0.16085 0.686 0.0
H261 H 0.41729 0.11565 0.63053 0.0
C262 C 0.49962 0.25223 0.61277 0.0
C263 C 0.86741 0.37116 0.65807 0.0
C264 C 0.86951 0.36879 0.71899 0.0
H265 H 0.90957 0.40223 0.5856 0.0
C266 C 0.91895 0.3903 0.75418 0.0
H267 H 0.83049 0.35654 0.62933 0.0
C268 C 0.96426 0.41995 0.72891 0.0
C269 C 0.96136 0.4257 0.6679 0.0
H270 H 0.92174 0.38841 0.80137 0.0
H271 H 1.00098 0.44056 0.75687 0.0
C272 C 0.91307 0.39831 0.63287 0.0
C273 C 0.76824 0.82292 0.60559 0.0
C274 C 0.81943 0.84275 0.63571 0.0
H275 H 0.69944 0.84044 0.57406 0.0
C276 C 0.8436 0.89888 0.65121 0.0
H277 H 0.74914 0.77927 0.59429 0.0
C278 C 0.81549 0.93421 0.63972 0.0
C279 C 0.76283 0.91333 0.61304 0.0
H280 H 0.88302 0.9141 0.67522 0.0
H281 H 0.83425 0.97695 0.65396 0.0
C282 C 0.73993 0.85783 0.59463 0.0
C283 C 0.46559 0.28658 0.43215 0.0
C284 C 0.41355 0.27191 0.40469 0.0
H285 H 0.52898 0.25887 0.46386 0.0
C286 C 0.3862 0.21789 0.38352 0.0
H287 H 0.48678 0.32777 0.44982 0.0
C288 C 0.40976 0.17815 0.39193 0.0
C289 C 0.46111 0.1917 0.42207 0.0
H290 H 0.34573 0.20581 0.3629 0.0
H291 H 0.38707 0.1363 0.37647 0.0
C292 C 0.48924 0.24683 0.44087 0.0
C293 C 0.81964 0.38716 0.38892 0.0
C294 C 0.8267 0.36258 0.34223 0.0
H295 H 0.85443 0.43183 0.46688 0.0
C296 C 0.87649 0.36207 0.34067 0.0
H297 H 0.78222 0.38988 0.38994 0.0
C298 C 0.91913 0.38798 0.38406 0.0
C299 C 0.9124 0.41469 0.42971 0.0
H300 H 0.88291 0.34443 0.3041 0.0
H301 H 0.95758 0.3893 0.38037 0.0
C302 C 0.86158 0.41205 0.43248 0.0
C303 C 0.75961 0.82505 0.41483 0.0
C304 C 0.79881 0.86116 0.38319 0.0
H305 H 0.70084 0.81721 0.46562 0.0
C306 C 0.81219 0.91949 0.3828 0.0
H307 H 0.7489 0.77992 0.41527 0.0
C308 C 0.78516 0.9413 0.41235 0.0
C309 C 0.74384 0.90472 0.44142 0.0
H310 H 0.84224 0.94773 0.35821 0.0
H311 H 0.79488 0.98633 0.41017 0.0
C312 C 0.73214 0.8465 0.44326 0.0
C313 C 0.2529 0.57917 0.37427 0.0
C314 C 0.2636 0.63712 0.36558 0.0
H315 H 0.1994 0.49797 0.39839 0.0
C316 C 0.22606 0.65744 0.37576 0.0
H317 H 0.28169 0.56242 0.36893 0.0
C318 C 0.17918 0.62048 0.39501 0.0
C319 C 0.1683 0.56233 0.40242 0.0
H320 H 0.23329 0.70191 0.36944 0.0
H321 H 0.15165 0.63729 0.40441 0.0
C322 C 0.20558 0.54221 0.39123 0.0
C323 C 0.4747 0.82039 0.65946 0.0
C324 C 0.46993 0.82028 0.71857 0.0
H325 H 0.51215 0.86561 0.58676 0.0
C326 C 0.50476 0.86574 0.75189 0.0
H327 H 0.4491 0.78521 0.63324 0.0
C328 C 0.54235 0.91155 0.72548 0.0
C329 C 0.54417 0.91302 0.66513 0.0
H330 H 0.50178 0.8665 0.79751 0.0
H331 H 0.56883 0.94644 0.75161 0.0
C332 C 0.51047 0.86656 0.63279 0.0
C333 C 0.34061 0.40023 0.69212 0.0
C334 C 0.32594 0.34406 0.71301 0.0
H335 H 0.31619 0.46606 0.65209 0.0
C336 C 0.27215 0.31106 0.71151 0.0
H337 H 0.38125 0.42593 0.69004 0.0
C338 C 0.23384 0.33336 0.68728 0.0
C339 C 0.24882 0.38939 0.6649 0.0
H340 H 0.25987 0.26729 0.72686 0.0
H341 H 0.1928 0.30652 0.68483 0.0
C342 C 0.30277 0.42277 0.66916 0.0
C343 C 0.73349 0.28696 0.63876 0.0
C344 C 0.76027 0.27201 0.69093 0.0
H345 H 0.67965 0.2596 0.5605 0.0
C346 C 0.75544 0.21564 0.70183 0.0
H347 H 0.73506 0.32976 0.63066 0.0
C348 C 0.7224 0.17453 0.66232 0.0
C349 C 0.69337 0.18927 0.6115 0.0
H350 H 0.77427 0.20293 0.74284 0.0
H351 H 0.71742 0.13095 0.67316 0.0
C352 C 0.70104 0.24641 0.59921 0.0
C353 C 0.86301 0.65518 0.60475 0.0
C354 C 0.88274 0.68832 0.6539 0.0
H355 H 0.8783 0.60642 0.54672 0.0
C356 C 0.93207 0.69444 0.6853 0.0
H357 H 0.82496 0.65042 0.57994 0.0
C358 C 0.963 0.67101 0.66568 0.0
C359 C 0.94462 0.64012 0.61481 0.0
H360 H 0.94794 0.72046 0.72287 0.0
H361 H 1.00174 0.67799 0.68986 0.0
C362 C 0.89361 0.63067 0.58558 0.0
C363 C 0.39408 0.36005 0.27975 0.0
C364 C 0.41921 0.38234 0.3343 0.0
H365 H 0.38734 0.37336 0.18651 0.0
C366 C 0.45999 0.43542 0.33656 0.0
H367 H 0.3615 0.31984 0.27736 0.0
C368 C 0.47434 0.46665 0.28494 0.0
C369 C 0.44771 0.44551 0.23004 0.0
H370 H 0.47865 0.45384 0.37838 0.0
H371 H 0.50542 0.50794 0.28811 0.0
C372 C 0.40801 0.39139 0.22801 0.0
C373 C 0.5144 0.73208 0.79762 0.0
C374 C 0.47046 0.73053 0.81962 0.0
H375 H 0.58465 0.71473 0.81434 0.0
C376 C 0.46689 0.71457 0.87916 0.0
H377 H 0.51776 0.74288 0.75179 0.0
C378 C 0.50424 0.69654 0.91482 0.0
C379 C 0.54696 0.69542 0.89215 0.0
H380 H 0.4335 0.71337 0.89727 0.0
H381 H 0.4988 0.68188 0.9596 0.0
C382 C 0.55249 0.71532 0.83361 0.0
C383 C 0.46676 0.43623 0.77396 0.0
C384 C 0.43133 0.38575 0.79549 0.0
H385 H 0.5254 0.51727 0.79269 0.0
C386 C 0.42604 0.38037 0.8551 0.0
H387 H 0.47276 0.44061 0.72868 0.0
C388 C 0.45742 0.424 0.89293 0.0
C389 C 0.49475 0.4737 0.87162 0.0
H390 H 0.40002 0.34111 0.87297 0.0
H391 H 0.4544 0.41757 0.93916 0.0
C392 C 0.4974 0.47981 0.81112 0.0
C393 C 0.69717 0.40075 0.79139 0.0
C394 C 0.74174 0.39307 0.8232 0.0
H395 H 0.63968 0.43665 0.78793 0.0
C396 C 0.76271 0.41635 0.8782 0.0
H397 H 0.68121 0.38436 0.74825 0.0
C398 C 0.73954 0.44732 0.90087 0.0
C399 C 0.69498 0.4553 0.86875 0.0
H400 H 0.79743 0.41119 0.903 0.0
H401 H 0.75674 0.46534 0.94314 0.0
C402 C 0.67382 0.4312 0.81401 0.0
C403 C 0.85063 0.69446 0.81957 0.0
C404 C 0.82952 0.6853 0.76047 0.0
H405 H 0.83388 0.68622 0.90694 0.0
C406 C 0.77869 0.64521 0.74625 0.0
H407 H 0.88987 0.72509 0.83126 0.0
C408 C 0.7461 0.62338 0.78922 0.0
C409 C 0.76444 0.64143 0.84673 0.0
H410 H 0.76179 0.63757 0.70078 0.0
H411 H 0.70525 0.59767 0.77596 0.0
C412 C 0.81812 0.67313 0.86254 0.0
C413 C 0.73375 0.67985 0.27184 0.0
C414 C 0.77635 0.72315 0.25119 0.0
H415 H 0.65993 0.61353 0.25123 0.0
C416 C 0.77792 0.73008 0.19058 0.0
H417 H 0.72969 0.67611 0.31762 0.0
C418 C 0.73625 0.69568 0.15121 0.0
C419 C 0.69244 0.65381 0.17211 0.0
H420 H 0.80954 0.76472 0.17363 0.0
H421 H 0.73723 0.70356 0.1046 0.0
C422 C 0.69288 0.64507 0.23311 0.0
C423 C 0.42286 0.70636 0.22008 0.0
C424 C 0.42746 0.70008 0.28152 0.0
H425 H 0.44155 0.68648 0.1418 0.0
C426 C 0.46063 0.67332 0.31157 0.0
H427 H 0.39664 0.72567 0.19579 0.0
C428 C 0.48691 0.65145 0.28088 0.0
C429 C 0.47919 0.65412 0.21922 0.0
H430 H 0.46322 0.66568 0.35855 0.0
H431 H 0.51092 0.62959 0.30538 0.0
C432 C 0.44774 0.68294 0.18922 0.0
C433 C 0.70647 0.42173 0.13458 0.0
C434 C 0.69434 0.38552 0.18412 0.0
H435 H 0.68253 0.4758 0.06849 0.0
C436 C 0.64694 0.37473 0.20436 0.0
H437 H 0.74273 0.43037 0.11823 0.0
C438 C 0.61202 0.39921 0.17544 0.0
C439 C 0.62429 0.43625 0.12635 0.0
H440 H 0.63729 0.34772 0.24319 0.0
H441 H 0.57618 0.39055 0.19277 0.0
C442 C 0.67192 0.44729 0.10614 0.0
loop_
_geom_bond_atom_site_label_1
_geom_bond_atom_site_label_2
_geom_bond_distance
_geom_bond_site_symmetry_2
_ccdc_geom_bond_type
C0 N1 1.317 . S
C0 N2 1.348 . S
C0 C3 1.485 . S
N1 C0 1.317 . S
N1 N5 1.370 . S
N2 C0 1.348 . S
N2 C4 1.346 . S
C3 C0 1.485 . S
C3 H7 0.960 . S
C3 H8 0.961 . S
C3 H9 0.960 . S
C4 N2 1.346 . S
C4 N5 1.307 . S
C4 C6 1.486 . S
N5 N1 1.370 . S
N5 C4 1.307 . S
C6 C4 1.486 . S
C6 H10 0.960 . S
C6 H11 0.960 . S
C6 H12 0.959 . S
H7 C3 0.960 . S
H8 C3 0.961 . S
H9 C3 0.960 . S
H10 C6 0.960 . S
H11 C6 0.960 . S
H12 C6 0.959 . S
C13 N14 1.317 . S
C13 N15 1.348 . S
C13 C16 1.485 . S
N14 C13 1.317 . S
N14 N18 1.370 . S
N15 C13 1.348 . S
N15 C17 1.346 . S
C16 C13 1.485 . S
C16 H20 0.960 . S
C16 H21 0.961 . S
C16 H22 0.960 . S
C17 N15 1.346 . S
C17 N18 1.307 . S
C17 C19 1.486 . S
N18 N14 1.370 . S
N18 C17 1.307 . S
C19 C17 1.486 . S
C19 H23 0.960 . S
C19 H24 0.960 . S
C19 H25 0.959 . S
H20 C16 0.960 . S
H21 C16 0.961 . S
H22 C16 0.960 . S
H23 C19 0.960 . S
H24 C19 0.960 . S
H25 C19 0.959 . S
C26 N27 1.317 . S
C26 N28 1.348 . S
C26 C29 1.485 . S
N27 C26 1.317 . S
N27 N31 1.370 . S
N28 C26 1.348 . S
N28 C30 1.346 . S
C29 C26 1.485 . S
C29 H33 0.960 . S
C29 H34 0.961 . S
C29 H35 0.960 . S
C30 N28 1.346 . S
C30 N31 1.307 . S
C30 C32 1.486 . S
N31 N27 1.370 . S
N31 C30 1.307 . S
C32 C30 1.486 . S
C32 H36 0.960 . S
C32 H37 0.960 . S
C32 H38 0.959 . S
H33 C29 0.960 . S
H34 C29 0.961 . S
H35 C29 0.960 . S
H36 C32 0.960 . S
H37 C32 0.960 . S
H38 C32 0.959 . S
C39 N40 1.317 . S
C39 N41 1.348 . S
C39 C42 1.485 . S
N40 C39 1.317 . S
N40 N44 1.370 . S
N41 C39 1.348 . S
N41 C43 1.346 . S
C42 C39 1.485 . S
C42 H46 0.960 . S
C42 H47 0.961 . S
C42 H48 0.960 . S
C43 N41 1.346 . S
C43 N44 1.307 . S
C43 C45 1.486 . S
N44 N40 1.370 . S
N44 C43 1.307 . S
C45 C43 1.486 . S
C45 H49 0.960 . S
C45 H50 0.960 . S
C45 H51 0.959 . S
H46 C42 0.960 . S
H47 C42 0.961 . S
H48 C42 0.960 . S
H49 C45 0.960 . S
H50 C45 0.960 . S
H51 C45 0.959 . S
C52 N53 1.317 . S
C52 N54 1.348 . S
C52 C55 1.485 . S
N53 C52 1.317 . S
N53 N57 1.370 . S
N54 C52 1.348 . S
N54 C56 1.346 . S
C55 C52 1.485 . S
C55 H59 0.960 . S
C55 H60 0.961 . S
C55 H61 0.960 . S
C56 N54 1.346 . S
C56 N57 1.307 . S
C56 C58 1.486 . S
N57 N53 1.370 . S
N57 C56 1.307 . S
C58 C56 1.486 . S
C58 H62 0.960 . S
C58 H63 0.960 . S
C58 H64 0.959 . S
H59 C55 0.960 . S
H60 C55 0.961 . S
H61 C55 0.960 . S
H62 C58 0.960 . S
H63 C58 0.960 . S
H64 C58 0.959 . S
C65 N66 1.317 . S
C65 N67 1.348 . S
C65 C68 1.485 . S
N66 C65 1.317 . S
N66 N70 1.370 . S
N67 C65 1.348 . S
N67 C69 1.346 . S
C68 C65 1.485 . S
C68 H72 0.960 . S
C68 H73 0.961 . S
C68 H74 0.960 . S
C69 N67 1.346 . S
C69 N70 1.307 . S
C69 C71 1.486 . S
N70 N66 1.370 . S
N70 C69 1.307 . S
C71 C69 1.486 . S
C71 H75 0.960 . S
C71 H76 0.960 . S
C71 H77 0.959 . S
H72 C68 0.960 . S
H73 C68 0.961 . S
H74 C68 0.960 . S
H75 C71 0.960 . S
H76 C71 0.960 . S
H77 C71 0.959 . S
C78 N79 1.317 . S
C78 N80 1.348 . S
C78 C81 1.485 . S
N79 C78 1.317 . S
N79 N83 1.370 . S
N80 C78 1.348 . S
N80 C82 1.346 . S
C81 C78 1.485 . S
C81 H85 0.960 . S
C81 H86 0.961 . S
C81 H87 0.960 . S
C82 N80 1.346 . S
C82 N83 1.307 . S
C82 C84 1.486 . S
N83 N79 1.370 . S
N83 C82 1.307 . S
C84 C82 1.486 . S
C84 H88 0.960 . S
C84 H89 0.960 . S
C84 H90 0.959 . S
H85 C81 0.960 . S
H86 C81 0.961 . S
H87 C81 0.960 . S
H88 C84 0.960 . S
H89 C84 0.960 . S
H90 C84 0.959 . S
C91 N92 1.317 . S
C91 N93 1.348 . S
C91 C94 1.485 . S
N92 C91 1.317 . S
N92 N96 1.370 . S
N93 C91 1.348 . S
N93 C95 1.346 . S
C94 C91 1.485 . S
C94 H98 0.960 . S
C94 H99 0.961 . S
C94 H100 0.960 . S
C95 N93 1.346 . S
C95 N96 1.307 . S
C95 C97 1.486 . S
N96 N92 1.370 . S
N96 C95 1.307 . S
C97 C95 1.486 . S
C97 H101 0.960 . S
C97 H102 0.960 . S
C97 H103 0.959 . S
H98 C94 0.960 . S
H99 C94 0.961 . S
H100 C94 0.960 . S
H101 C97 0.960 . S
H102 C97 0.960 . S
H103 C97 0.959 . S
Co104 O107 2.042 . S
Co104 O114 2.264 . S
Co104 O133 2.286 . S
Co104 O134 2.069 . S
Co104 O136 2.015 . S
Co105 O107 2.122 . S
Co105 O113 2.073 . S
Co105 O114 2.327 . S
Co105 O115 1.976 . S
Co106 O107 2.087 . S
Co106 O109 2.087 . S
Co106 O116 2.111 . S
Co106 O117 2.143 1_455 S
Co106 O121 2.103 1_455 S
Co106 O135 2.143 . S
O107 Co104 2.042 . S
O107 Co105 2.122 . S
O107 Co106 2.087 . S
O107 H108 0.980 . S
H108 O107 0.980 . S
O109 Co106 2.087 . S
O109 Co110 2.042 1_455 S
O109 Co111 2.122 1_455 S
O109 H112 0.980 . S
Co110 O109 2.042 1_655 S
Co110 O118 2.286 . S
Co110 O119 2.069 . S
Co110 O120 2.015 . S
Co110 O123 2.264 . S
Co111 O109 2.122 1_655 S
Co111 O122 1.976 . S
Co111 O123 2.327 . S
Co111 O124 2.073 . S
H112 O109 0.980 . S
O113 Co105 2.073 . S
O113 C128 1.245 . S
O114 Co104 2.264 . S
O114 Co105 2.327 . S
O114 C128 1.257 . S
O115 Co105 1.976 . S
O115 C127 1.251 . S
O116 Co106 2.111 . S
O116 C127 1.274 . S
O117 Co106 2.143 1_655 S
O117 C130 1.246 . S
O118 Co110 2.286 . S
O118 C129 1.259 . S
O119 Co110 2.069 . S
O119 C129 1.289 . S
O120 Co110 2.015 . S
O120 C130 1.257 . S
O121 Co106 2.103 1_655 S
O121 C131 1.295 . S
O122 Co111 1.976 . S
O122 C131 1.251 . S
O123 Co110 2.264 . S
O123 Co111 2.327 . S
O123 C132 1.257 . S
O124 Co111 2.073 . S
O124 C132 1.245 . S
C125 O133 1.259 . S
C125 O134 1.289 . S
C126 O135 1.246 . S
C126 O136 1.257 . S
C127 O115 1.251 . S
C127 O116 1.274 . S
C128 O113 1.245 . S
C128 O114 1.257 . S
C129 O118 1.259 . S
C129 O119 1.289 . S
C130 O117 1.246 . S
C130 O120 1.257 . S
C131 O121 1.295 . S
C131 O122 1.251 . S
C132 O123 1.257 . S
C132 O124 1.245 . S
O133 Co104 2.286 . S
O133 C125 1.259 . S
O134 Co104 2.069 . S
O134 C125 1.289 . S
O135 Co106 2.143 . S
O135 C126 1.246 . S
O136 Co104 2.015 . S
O136 C126 1.257 . S
Co137 O140 2.042 . S
Co137 O147 2.264 . S
Co137 O166 2.286 . S
Co137 O167 2.069 . S
Co137 O169 2.015 . S
Co138 O140 2.122 . S
Co138 O146 2.073 . S
Co138 O147 2.327 . S
Co138 O148 1.976 . S
Co139 O140 2.087 1_545 S
Co139 O142 2.087 . S
Co139 O149 2.111 1_545 S
Co139 O150 2.143 . S
Co139 O154 2.111 . S
Co139 O168 2.143 1_545 S
O140 Co137 2.042 . S
O140 Co138 2.122 . S
O140 Co139 2.087 1_565 S
O140 H141 0.980 1_565 S
H141 O140 0.980 1_545 S
O142 Co139 2.087 . S
O142 Co143 2.042 . S
O142 Co144 2.122 . S
O142 H145 0.980 . S
Co143 O142 2.042 . S
Co143 O151 2.286 . S
Co143 O152 2.069 . S
Co143 O153 2.015 . S
Co143 O156 2.264 . S
Co144 O142 2.122 . S
Co144 O155 1.976 . S
Co144 O156 2.327 . S
Co144 O157 2.073 . S
H145 O142 0.980 . S
O146 Co138 2.073 . S
O146 C161 1.245 . S
O147 Co137 2.264 . S
O147 Co138 2.327 . S
O147 C161 1.257 . S
O148 Co138 1.976 . S
O148 C160 1.251 . S
O149 Co139 2.111 1_565 S
O149 C160 1.274 . S
O150 Co139 2.143 . S
O150 C163 1.246 . S
O151 Co143 2.286 . S
O151 C162 1.259 . S
O152 Co143 2.069 . S
O152 C162 1.289 . S
O153 Co143 2.015 . S
O153 C163 1.257 . S
O154 Co139 2.111 . S
O154 C164 1.274 . S
O155 Co144 1.976 . S
O155 C164 1.251 . S
O156 Co143 2.264 . S
O156 Co144 2.327 . S
O156 C165 1.257 . S
O157 Co144 2.073 . S
O157 C165 1.245 . S
C158 O166 1.259 . S
C158 O167 1.289 . S
C159 O168 1.246 . S
C159 O169 1.257 . S
C160 O148 1.251 . S
C160 O149 1.274 . S
C161 O146 1.245 . S
C161 O147 1.257 . S
C162 O151 1.259 . S
C162 O152 1.289 . S
C163 O150 1.246 . S
C163 O153 1.257 . S
C164 O154 1.274 . S
C164 O155 1.251 . S
C165 O156 1.257 . S
C165 O157 1.245 . S
O166 Co137 2.286 . S
O166 C158 1.259 . S
O167 Co137 2.069 . S
O167 C158 1.289 . S
O168 Co139 2.143 1_565 S
O168 C159 1.246 . S
O169 Co137 2.015 . S
O169 C159 1.257 . S
Co170 O173 2.042 . S
Co170 O180 2.264 . S
Co170 O199 2.286 . S
Co170 O200 2.069 . S
Co170 O202 2.015 . S
Co171 O173 2.122 . S
Co171 O179 2.073 . S
Co171 O180 2.327 . S
Co171 O181 1.976 . S
Co172 O173 2.087 . S
Co172 O175 2.087 1_554 S
Co172 O182 2.111 . S
Co172 O183 2.143 1_554 S
Co172 O187 2.111 1_554 S
Co172 O201 2.143 . S
O173 Co170 2.042 . S
O173 Co171 2.122 . S
O173 Co172 2.087 . S
O173 H174 0.980 . S
H174 O173 0.980 . S
O175 Co172 2.087 1_556 S
O175 Co176 2.042 . S
O175 Co177 2.122 . S
O175 H178 0.980 . S
Co176 O175 2.042 . S
Co176 O184 2.286 . S
Co176 O185 2.069 . S
Co176 O186 2.015 . S
Co176 O189 2.264 . S
Co177 O175 2.122 . S
Co177 O188 1.976 . S
Co177 O189 2.327 . S
Co177 O190 2.073 . S
H178 O175 0.980 . S
O179 Co171 2.073 . S
O179 C194 1.245 . S
O180 Co170 2.264 . S
O180 Co171 2.327 . S
O180 C194 1.257 . S
O181 Co171 1.976 . S
O181 C193 1.251 . S
O182 Co172 2.111 . S
O182 C193 1.274 . S
O183 Co172 2.143 1_556 S
O183 C196 1.246 . S
O184 Co176 2.286 . S
O184 C195 1.259 . S
O185 Co176 2.069 . S
O185 C195 1.289 . S
O186 Co176 2.015 . S
O186 C196 1.257 . S
O187 Co172 2.111 1_556 S
O187 C197 1.274 . S
O188 Co177 1.976 . S
O188 C197 1.251 . S
O189 Co176 2.264 . S
O189 Co177 2.327 . S
O189 C198 1.257 . S
O190 Co177 2.073 . S
O190 C198 1.245 . S
C191 O199 1.259 . S
C191 O200 1.289 . S
C192 O201 1.246 . S
C192 O202 1.257 . S
C193 O181 1.251 . S
C193 O182 1.274 . S
C194 O179 1.245 . S
C194 O180 1.257 . S
C195 O184 1.259 . S
C195 O185 1.289 . S
C196 O183 1.246 . S
C196 O186 1.257 . S
C197 O187 1.274 . S
C197 O188 1.251 . S
C198 O189 1.257 . S
C198 O190 1.245 . S
O199 Co170 2.286 . S
O199 C191 1.259 . S
O200 Co170 2.069 . S
O200 C191 1.289 . S
O201 Co172 2.143 . S
O201 C192 1.246 . S
O202 Co170 2.015 . S
O202 C192 1.257 . S
C203 C204 1.387 . S
C203 H207 0.950 . S
C203 C212 1.390 . S
C204 C203 1.387 . S
C204 C206 1.387 . S
H205 C212 0.950 . S
C206 C204 1.387 . S
C206 C208 1.390 . S
C206 H210 0.950 . S
H207 C203 0.950 . S
C208 C206 1.390 . S
C208 C209 1.387 . S
C208 H211 0.950 . S
C209 C208 1.387 . S
C209 C212 1.387 . S
H210 C206 0.950 . S
H211 C208 0.950 . S
C212 C203 1.390 . S
C212 H205 0.950 . S
C212 C209 1.387 . S
C213 C214 1.387 . S
C213 H217 0.950 . S
C213 C222 1.390 . S
C214 C213 1.387 . S
C214 C216 1.387 . S
H215 C222 0.950 . S
C216 C214 1.387 . S
C216 C218 1.390 . S
C216 H220 0.950 . S
H217 C213 0.950 . S
C218 C216 1.390 . S
C218 C219 1.387 . S
C218 H221 0.950 . S
C219 C218 1.387 . S
C219 C222 1.387 . S
H220 C216 0.950 . S
H221 C218 0.950 . S
C222 C213 1.390 . S
C222 H215 0.950 . S
C222 C219 1.387 . S
C223 C224 1.387 . S
C223 H227 0.950 . S
C223 C232 1.390 . S
C224 C223 1.387 . S
C224 C226 1.387 . S
H225 C232 0.950 . S
C226 C224 1.387 . S
C226 C228 1.390 . S
C226 H230 0.950 . S
H227 C223 0.950 . S
C228 C226 1.390 . S
C228 C229 1.387 . S
C228 H231 0.950 . S
C229 C228 1.387 . S
C229 C232 1.387 . S
H230 C226 0.950 . S
H231 C228 0.950 . S
C232 C223 1.390 . S
C232 H225 0.950 . S
C232 C229 1.387 . S
C233 C234 1.387 . S
C233 H237 0.950 . S
C233 C242 1.390 . S
C234 C233 1.387 . S
C234 C236 1.387 . S
H235 C242 0.950 . S
C236 C234 1.387 . S
C236 C238 1.390 . S
C236 H240 0.950 . S
H237 C233 0.950 . S
C238 C236 1.390 . S
C238 C239 1.387 . S
C238 H241 0.950 . S
C239 C238 1.387 . S
C239 C242 1.387 . S
H240 C236 0.950 . S
H241 C238 0.950 . S
C242 C233 1.390 . S
C242 H235 0.950 . S
C242 C239 1.387 . S
C243 C244 1.387 . S
C243 H247 0.950 . S
C243 C252 1.390 . S
C244 C243 1.387 . S
C244 C246 1.387 . S
H245 C252 0.950 . S
C246 C244 1.387 . S
C246 C248 1.390 . S
C246 H250 0.950 . S
H247 C243 0.950 . S
C248 C246 1.390 . S
C248 C249 1.387 . S
C248 H251 0.950 . S
C249 C248 1.387 . S
C249 C252 1.387 . S
H250 C246 0.950 . S
H251 C248 0.950 . S
C252 C243 1.390 . S
C252 H245 0.950 . S
C252 C249 1.387 . S
C253 C254 1.387 . S
C253 H257 0.950 . S
C253 C262 1.390 . S
C254 C253 1.387 . S
C254 C256 1.387 . S
H255 C262 0.950 . S
C256 C254 1.387 . S
C256 C258 1.390 . S
C256 H260 0.950 . S
H257 C253 0.950 . S
C258 C256 1.390 . S
C258 C259 1.387 . S
C258 H261 0.950 . S
C259 C258 1.387 . S
C259 C262 1.387 . S
H260 C256 0.950 . S
H261 C258 0.950 . S
C262 C253 1.390 . S
C262 H255 0.950 . S
C262 C259 1.387 . S
C263 C264 1.387 . S
C263 H267 0.950 . S
C263 C272 1.390 . S
C264 C263 1.387 . S
C264 C266 1.387 . S
H265 C272 0.950 . S
C266 C264 1.387 . S
C266 C268 1.390 . S
C266 H270 0.950 . S
H267 C263 0.950 . S
C268 C266 1.390 . S
C268 C269 1.387 . S
C268 H271 0.950 . S
C269 C268 1.387 . S
C269 C272 1.387 . S
H270 C266 0.950 . S
H271 C268 0.950 . S
C272 C263 1.390 . S
C272 H265 0.950 . S
C272 C269 1.387 . S
C273 C274 1.387 . S
C273 H277 0.950 . S
C273 C282 1.390 . S
C274 C273 1.387 . S
C274 C276 1.387 . S
H275 C282 0.950 . S
C276 C274 1.387 . S
C276 C278 1.390 . S
C276 H280 0.950 . S
H277 C273 0.950 . S
C278 C276 1.390 . S
C278 C279 1.387 . S
C278 H281 0.950 . S
C279 C278 1.387 . S
C279 C282 1.387 . S
H280 C276 0.950 . S
H281 C278 0.950 . S
C282 C273 1.390 . S
C282 H275 0.950 . S
C282 C279 1.387 . S
C283 C284 1.387 . S
C283 H287 0.950 . S
C283 C292 1.390 . S
C284 C283 1.387 . S
C284 C286 1.387 . S
H285 C292 0.950 . S
C286 C284 1.387 . S
C286 C288 1.390 . S
C286 H290 0.950 . S
H287 C283 0.950 . S
C288 C286 1.390 . S
C288 C289 1.387 . S
C288 H291 0.950 . S
C289 C288 1.387 . S
C289 C292 1.387 . S
H290 C286 0.950 . S
H291 C288 0.950 . S
C292 C283 1.390 . S
C292 H285 0.950 . S
C292 C289 1.387 . S
C293 C294 1.387 . S
C293 H297 0.950 . S
C293 C302 1.390 . S
C294 C293 1.387 . S
C294 C296 1.387 . S
H295 C302 0.950 . S
C296 C294 1.387 . S
C296 C298 1.390 . S
C296 H300 0.950 . S
H297 C293 0.950 . S
C298 C296 1.390 . S
C298 C299 1.387 . S
C298 H301 0.950 . S
C299 C298 1.387 . S
C299 C302 1.387 . S
H300 C296 0.950 . S
H301 C298 0.950 . S
C302 C293 1.390 . S
C302 H295 0.950 . S
C302 C299 1.387 . S
C303 C304 1.387 . S
C303 H307 0.950 . S
C303 C312 1.390 . S
C304 C303 1.387 . S
C304 C306 1.387 . S
H305 C312 0.950 . S
C306 C304 1.387 . S
C306 C308 1.390 . S
C306 H310 0.950 . S
H307 C303 0.950 . S
C308 C306 1.390 . S
C308 C309 1.387 . S
C308 H311 0.950 . S
C309 C308 1.387 . S
C309 C312 1.387 . S
H310 C306 0.950 . S
H311 C308 0.950 . S
C312 C303 1.390 . S
C312 H305 0.950 . S
C312 C309 1.387 . S
C313 C314 1.387 . S
C313 H317 0.950 . S
C313 C322 1.390 . S
C314 C313 1.387 . S
C314 C316 1.387 . S
H315 C322 0.950 . S
C316 C314 1.387 . S
C316 C318 1.390 . S
C316 H320 0.950 . S
H317 C313 0.950 . S
C318 C316 1.390 . S
C318 C319 1.387 . S
C318 H321 0.950 . S
C319 C318 1.387 . S
C319 C322 1.387 . S
H320 C316 0.950 . S
H321 C318 0.950 . S
C322 C313 1.390 . S
C322 H315 0.950 . S
C322 C319 1.387 . S
C323 C324 1.387 . S
C323 H327 0.950 . S
C323 C332 1.390 . S
C324 C323 1.387 . S
C324 C326 1.387 . S
H325 C332 0.950 . S
C326 C324 1.387 . S
C326 C328 1.390 . S
C326 H330 0.950 . S
H327 C323 0.950 . S
C328 C326 1.390 . S
C328 C329 1.387 . S
C328 H331 0.950 . S
C329 C328 1.387 . S
C329 C332 1.387 . S
H330 C326 0.950 . S
H331 C328 0.950 . S
C332 C323 1.390 . S
C332 H325 0.950 . S
C332 C329 1.387 . S
C333 C334 1.387 . S
C333 H337 0.950 . S
C333 C342 1.390 . S
C334 C333 1.387 . S
C334 C336 1.387 . S
H335 C342 0.950 . S
C336 C334 1.387 . S
C336 C338 1.390 . S
C336 H340 0.950 . S
H337 C333 0.950 . S
C338 C336 1.390 . S
C338 C339 1.387 . S
C338 H341 0.950 . S
C339 C338 1.387 . S
C339 C342 1.387 . S
H340 C336 0.950 . S
H341 C338 0.950 . S
C342 C333 1.390 . S
C342 H335 0.950 . S
C342 C339 1.387 . S
C343 C344 1.387 . S
C343 H347 0.950 . S
C343 C352 1.390 . S
C344 C343 1.387 . S
C344 C346 1.387 . S
H345 C352 0.950 . S
C346 C344 1.387 . S
C346 C348 1.390 . S
C346 H350 0.950 . S
H347 C343 0.950 . S
C348 C346 1.390 . S
C348 C349 1.387 . S
C348 H351 0.950 . S
C349 C348 1.387 . S
C349 C352 1.387 . S
H350 C346 0.950 . S
H351 C348 0.950 . S
C352 C343 1.390 . S
C352 H345 0.950 . S
C352 C349 1.387 . S
C353 C354 1.387 . S
C353 H357 0.950 . S
C353 C362 1.390 . S
C354 C353 1.387 . S
C354 C356 1.387 . S
H355 C362 0.950 . S
C356 C354 1.387 . S
C356 C358 1.390 . S
C356 H360 0.950 . S
H357 C353 0.950 . S
C358 C356 1.390 . S
C358 C359 1.387 . S
C358 H361 0.950 . S
C359 C358 1.387 . S
C359 C362 1.387 . S
H360 C356 0.950 . S
H361 C358 0.950 . S
C362 C353 1.390 . S
C362 H355 0.950 . S
C362 C359 1.387 . S
C363 C364 1.387 . S
C363 H367 0.950 . S
C363 C372 1.390 . S
C364 C363 1.387 . S
C364 C366 1.387 . S
H365 C372 0.950 . S
C366 C364 1.387 . S
C366 C368 1.390 . S
C366 H370 0.950 . S
H367 C363 0.950 . S
C368 C366 1.390 . S
C368 C369 1.387 . S
C368 H371 0.950 . S
C369 C368 1.387 . S
C369 C372 1.387 . S
H370 C366 0.950 . S
H371 C368 0.950 . S
C372 C363 1.390 . S
C372 H365 0.950 . S
C372 C369 1.387 . S
C373 C374 1.387 . S
C373 H377 0.950 . S
C373 C382 1.390 . S
C374 C373 1.387 . S
C374 C376 1.387 . S
H375 C382 0.950 . S
C376 C374 1.387 . S
C376 C378 1.390 . S
C376 H380 0.950 . S
H377 C373 0.950 . S
C378 C376 1.390 . S
C378 C379 1.387 . S
C378 H381 0.950 . S
C379 C378 1.387 . S
C379 C382 1.387 . S
H380 C376 0.950 . S
H381 C378 0.950 . S
C382 C373 1.390 . S
C382 H375 0.950 . S
C382 C379 1.387 . S
C383 C384 1.387 . S
C383 H387 0.950 . S
C383 C392 1.390 . S
C384 C383 1.387 . S
C384 C386 1.387 . S
H385 C392 0.950 . S
C386 C384 1.387 . S
C386 C388 1.390 . S
C386 H390 0.950 . S
H387 C383 0.950 . S
C388 C386 1.390 . S
C388 C389 1.387 . S
C388 H391 0.950 . S
C389 C388 1.387 . S
C389 C392 1.387 . S
H390 C386 0.950 . S
H391 C388 0.950 . S
C392 C383 1.390 . S
C392 H385 0.950 . S
C392 C389 1.387 . S
C393 C394 1.387 . S
C393 H397 0.950 . S
C393 C402 1.390 . S
C394 C393 1.387 . S
C394 C396 1.387 . S
H395 C402 0.950 . S
C396 C394 1.387 . S
C396 C398 1.390 . S
C396 H400 0.950 . S
H397 C393 0.950 . S
C398 C396 1.390 . S
C398 C399 1.387 . S
C398 H401 0.950 . S
C399 C398 1.387 . S
C399 C402 1.387 . S
H400 C396 0.950 . S
H401 C398 0.950 . S
C402 C393 1.390 . S
C402 H395 0.950 . S
C402 C399 1.387 . S
C403 C404 1.387 . S
C403 H407 0.950 . S
C403 C412 1.390 . S
C404 C403 1.387 . S
C404 C406 1.387 . S
H405 C412 0.950 . S
C406 C404 1.387 . S
C406 C408 1.390 . S
C406 H410 0.950 . S
H407 C403 0.950 . S
C408 C406 1.390 . S
C408 C409 1.387 . S
C408 H411 0.950 . S
C409 C408 1.387 . S
C409 C412 1.387 . S
H410 C406 0.950 . S
H411 C408 0.950 . S
C412 C403 1.390 . S
C412 H405 0.950 . S
C412 C409 1.387 . S
C413 C414 1.387 . S
C413 H417 0.950 . S
C413 C422 1.390 . S
C414 C413 1.387 . S
C414 C416 1.387 . S
H415 C422 0.950 . S
C416 C414 1.387 . S
C416 C418 1.390 . S
C416 H420 0.950 . S
H417 C413 0.950 . S
C418 C416 1.390 . S
C418 C419 1.387 . S
C418 H421 0.950 . S
C419 C418 1.387 . S
C419 C422 1.387 . S
H420 C416 0.950 . S
H421 C418 0.950 . S
C422 C413 1.390 . S
C422 H415 0.950 . S
C422 C419 1.387 . S
C423 C424 1.387 . S
C423 H427 0.950 . S
C423 C432 1.390 . S
C424 C423 1.387 . S
C424 C426 1.387 . S
H425 C432 0.950 . S
C426 C424 1.387 . S
C426 C428 1.390 . S
C426 H430 0.950 . S
H427 C423 0.950 . S
C428 C426 1.390 . S
C428 C429 1.387 . S
C428 H431 0.950 . S
C429 C428 1.387 . S
C429 C432 1.387 . S
H430 C426 0.950 . S
H431 C428 0.950 . S
C432 C423 1.390 . S
C432 H425 0.950 . S
C432 C429 1.387 . S
C433 C434 1.387 . S
C433 H437 0.950 . S
C433 C442 1.390 . S
C434 C433 1.387 . S
C434 C436 1.387 . S
H435 C442 0.950 . S
C436 C434 1.387 . S
C436 C438 1.390 . S
C436 H440 0.950 . S
H437 C433 0.950 . S
C438 C436 1.390 . S
C438 C439 1.387 . S
C438 H441 0.950 . S
C439 C438 1.387 . S
C439 C442 1.387 . S
H440 C436 0.950 . S
H441 C438 0.950 . S
C442 C433 1.390 . S
C442 H435 0.950 . S
C442 C439 1.387 . S
C209 C128 1.324 . S
C204 N2 1.461 . S
C219 C164 1.319 . S
C214 N14 1.380 . S
C229 C129 1.515 . S
C224 N27 1.502 . S
C239 C159 1.666 . S
C234 N44 1.704 . S
C249 C126 1.232 . S
C244 N54 1.282 . S
C254 N67 1.556 . S
C259 C162 1.579 . S
C264 N83 1.025 . S
C269 C131 0.938 . S
C279 C161 1.289 . S
C274 N93 1.319 . S
C289 C165 1.603 . S
C284 N1 1.640 . S
C299 C130 1.200 . S
C294 N18 1.277 . S
C309 C158 1.354 . S
C304 N28 1.352 . S
C319 C127 1.263 . S
C314 N41 1.409 . S
C329 C160 1.748 . S
C324 N57 1.846 . S
C334 N66 1.511 . S
C339 C125 1.468 . S
C344 N79 1.500 . S
C349 C163 1.452 . S
C359 C132 1.477 . S
C354 N96 1.530 . S
C369 C194 1.687 . S
C364 N5 1.791 . S
C374 N53 1.936 . S
C379 C197 1.809 . S
C389 C196 1.795 . S
C384 N70 1.815 . S
C394 N80 1.684 . S
C399 C195 1.646 . S
C409 C198 1.641 . S
C404 N92 1.722 . S
C414 N31 1.616 . S
C419 C192 1.593 . S
C429 C191 2.050 . S
C424 N40 2.005 . S
C434 N15 1.439 . S
C439 C193 1.306 . S
