# Generated by pormake.
# Topology pts, (4,4)-cn, num edge types: 1
# Building blocks:
#     Node 0, Type 0, BuildingBlock: MUDLON_clean_linker_0, # of connection points: 4
#     Node 1, Type 0, BuildingBlock: MUDLON_clean_linker_0, # of connection points: 4
#     Node 2, Type 1, BuildingBlock: AZAVOO_clean_sbu_0, # of connection points: 4
#     Node 3, Type 1, BuildingBlock: AZAVOO_clean_sbu_0, # of connection points: 4
#     Edge 4, Type (0, 1), BuildingBlock: UVAHIK_clean_linker_0, # of connection points: 2
#     Edge 5, Type (0, 1), BuildingBlock: UVAHIK_clean_linker_0, # of connection points: 2
#     Edge 6, Type (0, 1), BuildingBlock: UVAHIK_clean_linker_0, # of connection points: 2
#     Edge 7, Type (0, 1), BuildingBlock: UVAHIK_clean_linker_0, # of connection points: 2
#     Edge 8, Type (0, 1), BuildingBlock: UVAHIK_clean_linker_0, # of connection points: 2
#     Edge 9, Type (0, 1), BuildingBlock: UVAHIK_clean_linker_0, # of connection points: 2
#     Edge 10, Type (0, 1), BuildingBlock: UVAHIK_clean_linker_0, # of connection points: 2
#     Edge 11, Type (0, 1), BuildingBlock: UVAHIK_clean_linker_0, # of connection points: 2
# Relax obj value: 0.016
# Max RMSD: 0.070
# Mean RMSD: 0.066
data_MOF--net-pts--node1-AZAVOO_clean_sbu_0--node2-MUDLON_clean_linker_0--edge1-UVAHIK_clean_linker_0
_symmetry_space_group_name_H-M    P1
_symmetry_Int_Tables_number       1
_symmetry_cell_setting            triclinic
loop_
_symmetry_equiv_pos_as_xyz
'x, y, z'
_cell_length_a     40.898117
_cell_length_b     42.086387
_cell_length_c     54.391794
_cell_angle_alpha  90.10065
_cell_angle_beta   95.675963
_cell_angle_gamma 89.84175
loop_
_atom_site_label
_atom_site_type_symbol
_atom_site_fract_x
_atom_site_fract_y
_atom_site_fract_z
_atom_type_partial_charge
H0 H 0.67854 0.10416 0.05177 0.0
N1 N 0.65856 0.07692 0.00881 0.0
H2 H 0.71734 0.08233 0.08476 0.0
H3 H 0.67905 0.01493 0.01279 0.0
H4 H 0.7183 0.99326 0.04533 0.0
H5 H 0.65071 0.03222 0.97217 0.0
H6 H 0.68517 0.02609 0.93806 0.0
H7 H 0.70335 0.1172 -0.00429 0.0
H8 H 0.73748 0.11176 0.96143 0.0
H9 H 0.61846 0.12449 0.99531 0.0
H10 H 0.6188 0.0257 0.01595 0.0
H11 H 0.55859 0.12493 0.99152 0.0
H12 H 0.55885 0.02627 0.01374 0.0
H13 H 0.36608 0.12293 0.01062 0.0
H14 H 0.33248 0.11547 0.04479 0.0
H15 H 0.38943 0.0319 0.06744 0.0
H16 H 0.42178 0.03885 0.03238 0.0
H17 H 0.38777 0.02443 0.99016 0.0
H18 H 0.34778 0.0069 0.95671 0.0
H19 H 0.35575 0.09755 0.92049 0.0
H20 H 0.39466 0.11533 0.95479 0.0
H21 H 0.45546 0.12863 0.01252 0.0
H22 H 0.51524 0.12523 0.01609 0.0
H23 H 0.50864 0.02883 0.98836 0.0
N24 N 0.41235 0.08462 -0.00335 0.0
H25 H 0.44882 0.03195 0.98635 0.0
C26 C 0.67615 0.06142 0.02976 0.0
C27 C 0.68644 0.07966 0.05064 0.0
C28 C 0.70858 0.06717 0.0694 0.0
C29 C 0.72108 0.03624 0.0674 0.0
C30 C 0.70934 0.01731 0.04714 0.0
C31 C 0.68682 0.02967 0.02858 0.0
C32 C 0.67462 0.07522 0.98644 0.0
C33 C 0.66923 0.04992 0.96964 0.0
C34 C 0.68892 0.0465 0.95016 0.0
C35 C 0.71433 0.06826 0.94722 0.0
C36 C 0.71854 0.09428 0.96345 0.0
C37 C 0.69889 0.09765 0.98285 0.0
C38 C 0.62316 0.07539 0.00626 0.0
C39 C 0.6055 0.10295 -0.00078 0.0
C40 C 0.57124 0.10317 -0.00268 0.0
C41 C 0.55364 0.0758 0.0028 0.0
C42 C 0.57142 0.04779 0.00928 0.0
C43 C 0.60585 0.04749 0.01079 0.0
C44 C 0.39647 0.08168 0.01904 0.0
C45 C 0.37156 0.10332 0.02325 0.0
C46 C 0.35248 0.09904 0.04288 0.0
C47 C 0.35809 0.073 0.05895 0.0
C48 C 0.384 0.05192 0.05523 0.0
C49 C 0.40285 0.05606 0.03536 0.0
C50 C 0.39385 0.07145 0.97508 0.0
C51 C 0.38126 0.04036 0.97486 0.0
C52 C 0.35846 0.0303 0.95559 0.0
C53 C 0.34804 0.05099 0.93604 0.0
C54 C 0.36253 0.08127 0.93554 0.0
C55 C 0.38506 0.09138 0.95493 0.0
C56 C 0.44761 0.08091 -0.00118 0.0
C57 C 0.467 0.10675 0.00733 0.0
C58 C 0.50122 0.10479 0.00911 0.0
C59 C 0.51703 0.07693 0.00206 0.0
C60 C 0.49748 0.05064 0.99406 0.0
C61 C 0.46311 0.05249 0.99265 0.0
H62 H 0.02437 0.64786 0.50578 0.0
N63 N 0.07835 0.61021 0.50064 0.0
H64 H 0.01785 0.68557 0.53877 0.0
H65 H 0.11867 0.61932 0.54166 0.0
H66 H 0.11179 0.65711 0.57538 0.0
H67 H 0.12448 0.64018 0.47851 0.0
H68 H 0.11737 0.67107 0.44013 0.0
H69 H 0.0219 0.61492 0.46919 0.0
H70 H 0.01452 0.64618 0.43113 0.0
H71 H 0.02354 0.58958 0.52236 0.0
H72 H 0.10111 0.5592 0.47922 0.0
H73 H 1.00225 0.53612 0.5219 0.0
H74 H 0.07819 0.50582 0.47691 0.0
H75 H 0.93882 0.35306 0.51359 0.0
H76 H 0.94251 0.31875 0.55 0.0
H77 H 0.03943 0.35562 0.57241 0.0
H78 H 0.03628 0.38836 0.53582 0.0
H79 H 0.03852 0.35035 0.49504 0.0
H80 H 0.0473 0.31445 0.46107 0.0
H81 H 0.95763 0.34842 0.42083 0.0
H82 H 0.94876 0.38407 0.45526 0.0
H83 H 0.95215 0.44374 0.49888 0.0
H84 H 0.97365 0.49781 0.4985 0.0
H85 H 0.07214 0.45983 0.49846 0.0
N86 N 0.98543 0.38961 0.49815 0.0
H87 H 0.05006 0.40644 0.49679 0.0
C88 C 0.07251 0.63105 0.52093 0.0
C89 C 0.0438 0.64968 0.52067 0.0
C90 C 0.03997 0.67122 0.53964 0.0
C91 C 0.06448 0.67447 0.55943 0.0
C92 C 0.09253 0.655 0.56031 0.0
C93 C 0.09652 0.63356 0.5411 0.0
C94 C 0.07382 0.62554 0.47682 0.0
C95 C 0.10058 0.64101 0.468 0.0
C96 C 0.09649 0.65847 0.4461 0.0
C97 C 0.06537 0.66104 0.43278 0.0
C98 C 0.03871 0.64472 0.44118 0.0
C99 C 0.04293 0.62688 0.46289 0.0
C100 C 0.06453 0.57861 0.50103 0.0
C101 C 0.03609 0.5716 0.51264 0.0
C102 C 0.02349 0.54077 0.51208 0.0
C103 C 0.03835 0.51635 0.49935 0.0
C104 C 0.06641 0.52362 0.48743 0.0
C105 C 0.07947 0.55424 0.48853 0.0
C106 C 0.98705 0.37337 0.52166 0.0
C107 C 0.96062 0.35403 0.5266 0.0
C108 C 0.96273 0.33458 0.54751 0.0
C109 C 0.99141 0.33421 0.56408 0.0
C110 C 0.01722 0.35484 0.5598 0.0
C111 C 0.01526 0.37396 0.53877 0.0
C112 C 0.9927 0.36976 0.47773 0.0
C113 C 0.02091 0.35038 0.47884 0.0
C114 C 0.02603 0.32996 0.45929 0.0
C115 C 1.0031 0.3285 0.43827 0.0
C116 C 0.97553 0.3487 0.4369 0.0
C117 C 0.97046 0.36913 0.45645 0.0
C118 C 0.99934 0.42106 0.49817 0.0
C119 C 0.97834 0.44728 0.49867 0.0
C120 C 0.9908 0.47816 0.49869 0.0
C121 C 0.0248 0.48346 0.49866 0.0
C122 C 0.0458 0.45696 0.49806 0.0
C123 C 0.03319 0.42617 0.49741 0.0
Mg124 Mg 0.07466 0.99021 0.26808 0.0
O125 O 0.0243 0.9882 0.24445 0.0
O126 O 0.98717 0.97661 0.27069 0.0
Mg127 Mg 0.01203 0.97131 0.3097 0.0
C128 C 0.99466 0.98289 0.24898 0.0
C129 C 0.12403 0.99515 0.23037 0.0
O130 O 0.13026 0.96804 0.24181 0.0
O131 O 0.06118 0.03887 0.28329 0.0
O132 O 0.02386 0.02444 0.30855 0.0
O133 O 0.08165 0.93796 0.26313 0.0
O134 O 0.05742 0.95893 0.29374 0.0
C135 C 0.04077 0.04567 0.29885 0.0
C136 C 0.0663 0.93386 0.28252 0.0
O137 O 0.10048 0.01224 0.23661 0.0
Mg138 Mg 0.99556 0.98994 0.73571 0.0
O139 O 0.04651 0.99044 0.7583 0.0
O140 O 0.08379 0.9852 0.73111 0.0
Mg141 Mg 0.05793 0.98172 0.69215 0.0
C142 C 0.07635 0.98841 0.75324 0.0
C143 C 0.93836 0.00512 0.76418 0.0
O144 O 0.92591 0.9952 0.74231 0.0
O145 O 1.00322 0.04095 0.72298 0.0
O146 O 0.04051 0.03317 0.69608 0.0
O147 O 0.99408 0.93663 0.73731 0.0
O148 O 0.0143 0.96418 0.70787 0.0
C149 C 0.02182 0.05143 0.70729 0.0
C150 C 0.0086 0.93697 0.71721 0.0
O151 O 0.96944 0.00657 0.76856 0.0
C152 C 0.32672 0.03575 0.08403 0.0
C153 C 0.33578 0.06697 0.07852 0.0
C154 C 0.30438 0.03005 0.10134 0.0
C155 C 0.23582 0.06588 0.12969 0.0
H156 H 0.25361 -0.00018 0.17878 0.0
C157 C 0.14815 0.0376 0.20505 0.0
C158 C 0.14545 0.00548 0.21153 0.0
C159 C 0.17116 0.047 0.18901 0.0
C160 C 0.24799 0.01808 0.165 0.0
H161 H 0.32883 0.11666 0.08761 0.0
H162 H 0.28913 0.10659 0.11738 0.0
H163 H 0.29475 0.01249 0.15094 0.0
H164 H 0.16331 0.95787 0.20524 0.0
H165 H 0.20226 0.97395 0.17687 0.0
H166 H 0.18864 0.07088 0.14329 0.0
C167 C 0.29937 0.08662 0.10813 0.0
C168 C 0.27169 0.02541 0.14913 0.0
C169 C 0.32206 0.09233 0.09102 0.0
C170 C 0.16512 0.98288 0.2009 0.0
C171 C 0.18771 0.99216 0.18476 0.0
C172 C 0.21188 0.05831 0.14543 0.0
C173 C 0.29025 0.05542 0.1134 0.0
C174 C 0.26573 0.04912 0.13114 0.0
C175 C 0.19164 0.02439 0.17902 0.0
C176 C 0.21751 0.03397 0.16306 0.0
H177 H 0.33612 0.01562 0.07446 0.0
H178 H 0.29748 0.00576 0.10482 0.0
H179 H 0.23052 0.08416 0.11586 0.0
H180 H 0.13335 0.05555 0.21303 0.0
H181 H 0.17358 0.07205 0.18506 0.0
C182 C 0.02596 0.29474 0.58946 0.0
C183 C 0.99563 0.31039 0.58433 0.0
C184 C 0.02945 0.27013 0.60662 0.0
C185 C 0.99221 0.23026 0.65759 0.0
H186 H 0.03748 0.15684 0.63409 0.0
C187 C 0.99201 0.10354 0.70123 0.0
C188 C 0.02078 0.08539 0.70041 0.0
C189 C 0.98963 0.13386 0.69054 0.0
C190 C 0.02525 0.17727 0.64119 0.0
H191 H 0.94562 0.31333 0.59426 0.0
H192 H 0.95159 0.26957 0.62393 0.0
H193 H 0.03188 0.20437 0.60898 0.0
H194 H 0.0706 0.08577 0.68997 0.0
H195 H 0.0668 0.13867 0.67209 0.0
H196 H 0.98532 0.20256 0.6898 0.0
C197 C 0.97269 0.27669 0.61473 0.0
C198 C 0.022 0.20456 0.62674 0.0
C199 C 0.96919 0.3015 0.59753 0.0
C200 C 0.04788 0.09897 0.69047 0.0
C201 C 0.04565 0.12923 0.68011 0.0
C202 C 0.99551 0.20277 0.67217 0.0
C203 C 1.00268 0.26026 0.61899 0.0
C204 C 0.00569 0.23147 0.6348 0.0
C205 C 0.01609 0.1465 0.67909 0.0
C206 C 0.01234 0.17606 0.66417 0.0
H207 H 0.04678 0.30058 0.57949 0.0
H208 H 0.05303 0.25827 0.60978 0.0
H209 H 0.97955 0.25067 0.66429 0.0
H210 H 0.97074 0.09363 0.70878 0.0
H211 H 0.96652 0.14658 0.69005 0.0
C212 C 0.77692 0.01221 0.07667 0.0
C213 C 0.74831 0.02489 0.08525 0.0
C214 C 0.80396 0.00419 0.09327 0.0
C215 C 0.82884 0.98338 0.15768 0.0
H216 H 0.91293 0.02034 0.14665 0.0
C217 C 0.93495 0.98778 0.23471 0.0
C218 C 0.96754 0.98493 0.22884 0.0
C219 C 0.90901 0.99003 0.21615 0.0
C220 C 0.88985 0.00928 0.14982 0.0
H221 H 0.72508 0.03823 0.11786 0.0
H222 H 0.7722 0.02356 0.14701 0.0
H223 H 0.8657 0.028 0.11613 0.0
H224 H 0.99837 0.98198 0.19871 0.0
H225 H 0.9528 0.985 0.16609 0.0
H226 H 0.85275 0.96424 0.19111 0.0
C227 C 0.77372 0.02002 0.12742 0.0
C228 C 0.86276 0.01381 0.13235 0.0
C229 C 0.74687 0.02853 0.11079 0.0
C230 C 0.97355 0.98427 0.20384 0.0
C231 C 0.94741 0.98615 0.18516 0.0
C232 C 0.85598 0.97845 0.17495 0.0
C233 C 0.80269 0.00823 0.11879 0.0
C234 C 0.83189 0.00137 0.13635 0.0
C235 C 0.91477 0.98907 0.19111 0.0
C236 C 0.88671 0.9919 0.17153 0.0
H237 H 0.77881 0.00948 0.05705 0.0
H238 H 0.82594 0.99501 0.08617 0.0
H239 H 0.80541 0.97315 0.16101 0.0
H240 H 0.92938 0.98879 0.25376 0.0
H241 H 0.88441 0.99311 0.22154 0.0
C242 C 0.06549 0.69216 0.60369 0.0
C243 C 0.06108 0.69924 0.57835 0.0
C244 C 0.0602 0.71558 0.62123 0.0
C245 C 0.01791 0.79321 0.62596 0.0
H246 H 0.07371 0.80272 0.68746 0.0
C247 C 0.02584 0.90896 0.6803 0.0
C248 C 0.01771 0.90748 0.70477 0.0
C249 C 0.03157 0.88129 0.66733 0.0
C250 C 0.05778 0.79999 0.67046 0.0
H251 H 0.04957 0.73651 0.55145 0.0
H252 H 0.04129 0.77742 0.58179 0.0
H253 H 0.08318 0.7584 0.65962 0.0
H254 H 0.0105 0.87586 0.7352 0.0
H255 H 0.02137 0.82703 0.71238 0.0
H256 H 0.99352 0.83551 0.63627 0.0
C257 C 0.04756 0.75365 0.58829 0.0
C258 C 0.06309 0.77467 0.65455 0.0
C259 C 0.05247 0.73028 0.57087 0.0
C260 C 0.01666 0.87768 0.71634 0.0
C261 C 0.02294 0.84984 0.70338 0.0
C262 C 0.01295 0.8186 0.64162 0.0
C263 C 0.0507 0.74651 0.61366 0.0
C264 C 0.04364 0.77144 0.63183 0.0
C265 C 0.02973 0.85151 0.67861 0.0
C266 C 0.03319 0.82255 0.66375 0.0
H267 H 0.07208 0.66833 0.60989 0.0
H268 H 0.06273 0.70925 0.64061 0.0
H269 H 1.0018 0.79095 0.60901 0.0
H270 H 0.02673 0.93149 0.67079 0.0
H271 H 0.03699 0.8831 0.64828 0.0
C272 C 0.29669 0.06466 0.9089 0.0
C273 C 0.32054 0.04199 0.91732 0.0
C274 C 0.26995 0.05621 0.89225 0.0
C275 C 0.2062 0.02947 0.86825 0.0
H276 H 0.21789 0.97169 0.81425 0.0
C277 C 0.09721 0.9919 0.79833 0.0
C278 C 0.1035 0.9907 0.77339 0.0
C279 C 0.12309 0.99507 0.81705 0.0
C280 C 0.2142 0.98799 0.82916 0.0
H281 H 0.33494 0.99258 0.91444 0.0
H282 H 0.28774 0.97762 0.88587 0.0
H283 H 0.26444 0.9841 0.8441 0.0
H284 H 0.14212 0.99172 0.74869 0.0
H285 H 0.18675 -0.00205 0.78108 0.0
H286 H 0.15637 0.03451 0.85269 0.0
C287 C 0.29002 0.0021 0.89193 0.0
C288 C 0.24085 0.9948 0.84648 0.0
C289 C 0.31695 0.01061 0.90852 0.0
C290 C 0.13626 0.9924 0.76768 0.0
C291 C 0.16201 0.99574 0.78632 0.0
C292 C 0.17962 0.02282 0.85085 0.0
C293 C 0.26609 0.02479 0.88368 0.0
C294 C 0.23731 0.01599 0.86606 0.0
C295 C 0.1558 -0.00274 0.81125 0.0
C296 C 0.18338 0.00234 0.83088 0.0
H297 H 0.29825 0.08893 0.91555 0.0
H298 H 0.25236 0.07447 0.886 0.0
H299 H 0.20238 0.04543 0.88335 0.0
H300 H 0.07232 0.99049 0.80341 0.0
H301 H 0.11743 0.99576 0.83609 0.0
C302 C 0.03761 0.29731 0.41081 0.0
C303 C 0.00669 0.30429 0.4188 0.0
C304 C 0.04122 0.27231 0.39427 0.0
C305 C 1.00313 0.19635 0.37668 0.0
H306 H 0.05527 0.19837 0.32089 0.0
C307 C 0.00579 0.08853 0.31377 0.0
C308 C 0.03632 0.07893 0.30658 0.0
C309 C 1.00197 0.1184 0.32418 0.0
C310 C 0.04087 0.19739 0.33654 0.0
H311 H 0.9552 0.29104 0.41511 0.0
H312 H 0.96147 0.24779 0.38618 0.0
H313 H 0.04919 0.24669 0.34533 0.0
H314 H 0.08646 0.09358 0.30344 0.0
H315 H 0.08013 0.14579 0.32251 0.0
H316 H 0.99541 0.14722 0.36868 0.0
C317 C 0.98294 0.26151 0.39281 0.0
C318 C 0.03735 0.22504 0.35047 0.0
C319 C 0.9793 0.28651 0.4092 0.0
C320 C 0.06264 0.10045 0.30884 0.0
C321 C 0.05896 0.13035 0.3197 0.0
C322 C 0.00683 0.16883 0.36298 0.0
C323 C 0.01402 0.2537 0.38558 0.0
C324 C 0.01817 0.2248 0.37055 0.0
C325 C 0.02877 0.13925 0.32815 0.0
C326 C 0.02545 0.16898 0.34257 0.0
H327 H 0.0591 0.31082 0.41768 0.0
H328 H 0.06548 0.26676 0.38908 0.0
H329 H 0.98887 0.19521 0.39241 0.0
H330 H 0.98489 0.07263 0.31182 0.0
H331 H 0.97809 0.12483 0.3297 0.0
C332 C 0.72619 0.05295 0.90422 0.0
C333 C 0.73751 0.06307 0.92819 0.0
C334 C 0.7483 0.04781 0.88655 0.0
C335 C 0.83586 0.03121 0.88047 0.0
H336 H 0.8143 0.05971 0.81307 0.0
C337 C 0.92882 0.0238 0.80687 0.0
C338 C 0.91627 0.01359 0.78319 0.0
C339 C 0.90754 0.03109 0.82475 0.0
C340 C 0.82057 0.05134 0.83176 0.0
H341 H 0.781 0.07513 0.95251 0.0
H342 H 0.81939 0.06664 0.92164 0.0
H343 H 0.77582 0.06945 0.84375 0.0
H344 H 0.87151 0.00311 0.75973 0.0
H345 H 0.83468 0.01539 0.79084 0.0
H346 H 0.88049 0.01285 0.86844 0.0
C347 C 0.79348 0.06254 0.9165 0.0
C348 C 0.79849 0.0569 0.84933 0.0
C349 C 0.77141 0.06778 0.93411 0.0
C350 C 0.88206 0.01101 0.77775 0.0
C351 C 0.86086 0.01826 0.79557 0.0
C352 C 0.85793 0.02558 0.86288 0.0
C353 C 0.78222 0.05249 0.89252 0.0
C354 C 0.80582 0.04679 0.87387 0.0
C355 C 0.87329 0.02834 0.81929 0.0
C356 C 0.85047 0.03543 0.83827 0.0
H357 H 0.70022 0.04925 0.89906 0.0
H358 H 0.73887 0.03976 0.8683 0.0
H359 H 0.84206 0.02276 0.89915 0.0
H360 H 0.95506 0.02609 0.81162 0.0
H361 H 0.91791 0.03911 0.84278 0.0
C362 C 0.03528 0.70563 0.41033 0.0
C363 C 0.06034 0.6827 0.41134 0.0
C364 C 0.03256 0.72846 0.39166 0.0
C365 C 0.08333 0.76766 0.34801 0.0
H366 H 1.0004 0.80804 0.32548 0.0
C367 C 0.07532 0.87508 0.282 0.0
C368 C 0.06 0.90162 0.29169 0.0
C369 C 0.07234 0.845 0.29238 0.0
C370 C 0.02368 0.79683 0.33154 0.0
H371 H 0.1011 0.66443 0.393 0.0
H372 H 0.09573 0.7036 0.35975 0.0
H373 H 1.0007 0.76011 0.35074 0.0
H374 H 0.02849 0.91705 0.31927 0.0
H375 H 0.02272 0.86451 0.33695 0.0
H376 H 0.10618 0.80452 0.32876 0.0
C377 C 0.07876 0.70467 0.3738 0.0
C378 C 0.02394 0.76951 0.34613 0.0
C379 C 0.08177 0.68211 0.39273 0.0
C380 C 0.04048 0.89719 0.31125 0.0
C381 C 0.03707 0.86705 0.32136 0.0
C382 C 0.083 0.79466 0.33311 0.0
C383 C 0.0546 0.72863 0.37335 0.0
C384 C 0.05384 0.75506 0.35512 0.0
C385 C 0.05354 0.84082 0.31236 0.0
C386 C 0.05326 0.80992 0.32525 0.0
H387 H 0.01869 0.70683 0.42465 0.0
H388 H 0.01404 0.74679 0.39229 0.0
H389 H 0.10688 0.75764 0.35486 0.0
H390 H 0.09057 0.87768 0.26695 0.0
H391 H 0.08519 0.82508 0.28508 0.0
loop_
_geom_bond_atom_site_label_1
_geom_bond_atom_site_label_2
_geom_bond_distance
_geom_bond_site_symmetry_2
_ccdc_geom_bond_type
H0 C27 0.929 . S
N1 C26 1.433 . S
N1 C32 1.435 1_554 S
N1 C38 1.423 1_554 S
H2 C28 0.930 . S
H3 C31 0.931 1_565 S
H4 C30 0.929 . S
H5 C33 0.930 . S
H6 C34 0.932 . S
H7 C37 0.929 . S
H8 C36 0.931 . S
H9 C39 0.929 . S
H10 C43 0.932 1_565 S
H11 C40 0.931 . S
H12 C42 0.929 . S
H13 C45 0.929 . S
H14 C46 0.930 . S
H15 C48 0.929 . S
H16 C49 0.931 1_565 S
H17 C51 0.930 . S
H18 C52 0.932 . S
H19 C54 0.931 . S
H20 C55 0.929 . S
H21 C57 0.929 . S
H22 C58 0.931 . S
H23 C60 0.929 . S
N24 C44 1.476 . S
N24 C50 1.402 1_554 S
N24 C56 1.415 1_554 S
H25 C61 0.932 1_565 S
C26 N1 1.433 . S
C26 C27 1.363 . S
C26 C31 1.370 . S
C27 H0 0.929 . S
C27 C26 1.363 . S
C27 C28 1.385 . S
C28 H2 0.930 . S
C28 C27 1.385 . S
C28 C29 1.357 . S
C29 C28 1.357 . S
C29 C30 1.406 1_545 S
C30 H4 0.929 . S
C30 C29 1.406 1_565 S
C30 C31 1.391 1_565 S
C31 H3 0.931 1_545 S
C31 C26 1.370 . S
C31 C30 1.391 1_545 S
C32 N1 1.435 1_556 S
C32 C33 1.358 1_545 S
C32 C37 1.371 . S
C33 H5 0.930 . S
C33 C32 1.358 1_565 S
C33 C34 1.405 . S
C34 H6 0.932 . S
C34 C33 1.405 . S
C34 C35 1.383 1_565 S
C35 C34 1.383 1_545 S
C35 C36 1.393 . S
C36 H8 0.931 . S
C36 C35 1.393 . S
C36 C37 1.382 . S
C37 H7 0.929 . S
C37 C32 1.371 . S
C37 C36 1.382 . S
C38 N1 1.423 1_556 S
C38 C39 1.365 1_556 S
C38 C43 1.386 . S
C39 H9 0.929 . S
C39 C38 1.365 1_554 S
C39 C40 1.376 . S
C40 H11 0.931 . S
C40 C39 1.376 . S
C40 C41 1.396 1_554 S
C41 C40 1.396 1_556 S
C41 C42 1.348 . S
C41 C59 1.472 . S
C42 H12 0.929 . S
C42 C41 1.348 . S
C42 C43 1.443 . S
C43 H10 0.932 1_545 S
C43 C38 1.386 . S
C43 C42 1.443 . S
C44 N24 1.476 . S
C44 C45 1.363 . S
C44 C49 1.370 . S
C45 H13 0.929 . S
C45 C44 1.363 . S
C45 C46 1.385 . S
C46 H14 0.930 . S
C46 C45 1.385 . S
C46 C47 1.357 . S
C47 C46 1.357 . S
C47 C48 1.406 1_545 S
C48 H15 0.929 . S
C48 C47 1.406 1_565 S
C48 C49 1.391 1_565 S
C49 H16 0.931 1_545 S
C49 C44 1.370 . S
C49 C48 1.391 1_545 S
C50 N24 1.402 1_556 S
C50 C51 1.358 1_545 S
C50 C55 1.371 . S
C51 H17 0.930 . S
C51 C50 1.358 1_565 S
C51 C52 1.405 . S
C52 H18 0.932 . S
C52 C51 1.405 . S
C52 C53 1.383 1_565 S
C53 C52 1.383 1_545 S
C53 C54 1.393 . S
C54 H19 0.931 . S
C54 C53 1.393 . S
C54 C55 1.382 . S
C55 H20 0.929 . S
C55 C50 1.371 . S
C55 C54 1.382 . S
C56 N24 1.415 1_556 S
C56 C57 1.362 1_556 S
C56 C61 1.388 . S
C57 H21 0.929 . S
C57 C56 1.362 1_554 S
C57 C58 1.376 . S
C58 H22 0.931 . S
C58 C57 1.376 . S
C58 C59 1.396 1_554 S
C59 C41 1.472 . S
C59 C58 1.396 1_556 S
C59 C60 1.348 . S
C60 H23 0.929 . S
C60 C59 1.348 . S
C60 C61 1.443 . S
C61 H25 0.932 1_545 S
C61 C56 1.388 . S
C61 C60 1.443 . S
H62 C89 0.929 1_655 S
N63 C88 1.433 . S
N63 C94 1.435 . S
N63 C100 1.423 . S
H64 C90 0.930 1_655 S
H65 C93 0.931 . S
H66 C92 0.929 . S
H67 C95 0.930 . S
H68 C96 0.932 . S
H69 C99 0.929 1_655 S
H70 C98 0.931 . S
H71 C101 0.929 . S
H72 C105 0.932 . S
H73 C102 0.931 . S
H74 C104 0.929 . S
H75 C107 0.929 1_655 S
H76 C108 0.930 1_655 S
H77 C110 0.929 . S
H78 C111 0.931 . S
H79 C113 0.930 . S
H80 C114 0.932 . S
H81 C116 0.931 . S
H82 C117 0.929 1_655 S
H83 C119 0.929 . S
H84 C120 0.931 . S
H85 C122 0.929 . S
N86 C106 1.433 . S
N86 C112 1.435 . S
N86 C118 1.423 . S
H87 C123 0.932 . S
C88 N63 1.433 . S
C88 C89 1.363 . S
C88 C93 1.370 . S
C89 H62 0.929 1_455 S
C89 C88 1.363 . S
C89 C90 1.385 . S
C90 H64 0.930 1_455 S
C90 C89 1.385 . S
C90 C91 1.357 . S
C91 C90 1.357 . S
C91 C92 1.406 . S
C92 H66 0.929 . S
C92 C91 1.406 . S
C92 C93 1.391 . S
C93 H65 0.931 . S
C93 C88 1.370 . S
C93 C92 1.391 . S
C94 N63 1.435 . S
C94 C95 1.358 . S
C94 C99 1.371 . S
C95 H67 0.930 . S
C95 C94 1.358 . S
C95 C96 1.405 . S
C96 H68 0.932 . S
C96 C95 1.405 . S
C96 C97 1.383 . S
C97 C96 1.383 . S
C97 C98 1.393 . S
C98 H70 0.931 . S
C98 C97 1.393 . S
C98 C99 1.382 . S
C99 H69 0.929 1_455 S
C99 C94 1.371 . S
C99 C98 1.382 . S
C100 N63 1.423 . S
C100 C101 1.362 1_455 S
C100 C105 1.388 . S
C101 H71 0.929 . S
C101 C100 1.362 1_655 S
C101 C102 1.376 . S
C102 H73 0.931 . S
C102 C101 1.376 . S
C102 C103 1.396 1_655 S
C103 C102 1.396 1_455 S
C103 C104 1.348 . S
C103 C121 1.472 . S
C104 H74 0.929 . S
C104 C103 1.348 . S
C104 C105 1.443 . S
C105 H72 0.932 . S
C105 C100 1.388 . S
C105 C104 1.443 . S
C106 N86 1.433 . S
C106 C107 1.363 . S
C106 C111 1.370 . S
C107 H75 0.929 1_455 S
C107 C106 1.363 . S
C107 C108 1.385 . S
C108 H76 0.930 1_455 S
C108 C107 1.385 . S
C108 C109 1.357 . S
C109 C108 1.357 . S
C109 C110 1.406 . S
C110 H77 0.929 . S
C110 C109 1.406 . S
C110 C111 1.391 . S
C111 H78 0.931 . S
C111 C106 1.370 . S
C111 C110 1.391 . S
C112 N86 1.435 . S
C112 C113 1.358 . S
C112 C117 1.371 . S
C113 H79 0.930 . S
C113 C112 1.358 . S
C113 C114 1.405 . S
C114 H80 0.932 . S
C114 C113 1.405 . S
C114 C115 1.383 . S
C115 C114 1.383 . S
C115 C116 1.393 . S
C116 H81 0.931 . S
C116 C115 1.393 . S
C116 C117 1.382 . S
C117 H82 0.929 1_455 S
C117 C112 1.371 . S
C117 C116 1.382 . S
C118 N86 1.423 . S
C118 C119 1.362 1_455 S
C118 C123 1.388 . S
C119 H83 0.929 . S
C119 C118 1.362 1_655 S
C119 C120 1.376 . S
C120 H84 0.931 . S
C120 C119 1.376 . S
C120 C121 1.396 1_655 S
C121 C103 1.472 . S
C121 C120 1.396 1_455 S
C121 C122 1.348 . S
C122 H85 0.929 . S
C122 C121 1.348 . S
C122 C123 1.443 . S
C123 H87 0.932 . S
C123 C118 1.388 . S
C123 C122 1.443 . S
Mg124 O125 2.028 . S
Mg124 O131 1.986 . S
Mg124 O133 2.114 1_545 S
Mg124 O134 2.251 1_545 S
Mg124 O137 2.010 . S
O125 Mg124 2.028 . S
O125 C128 1.267 . S
O126 Mg127 2.028 . S
O126 C128 1.238 1_655 S
Mg127 O126 2.028 . S
Mg127 O132 2.032 1_655 S
Mg127 O134 2.079 1_645 S
C128 O125 1.267 . S
C128 O126 1.238 1_455 S
C129 O130 1.264 . S
C129 O137 1.249 . S
O130 C129 1.264 . S
O131 Mg124 1.986 . S
O131 C135 1.246 . S
O132 Mg127 2.032 1_455 S
O132 C135 1.259 . S
O133 Mg124 2.114 1_565 S
O133 C136 1.252 . S
O134 Mg124 2.251 1_565 S
O134 Mg127 2.079 1_465 S
O134 C136 1.273 . S
C135 O131 1.246 . S
C135 O132 1.259 . S
C136 O133 1.252 . S
C136 O134 1.273 . S
O137 Mg124 2.010 . S
O137 C129 1.249 . S
Mg138 O139 2.028 1_655 S
Mg138 O145 1.988 . S
Mg138 O147 2.114 1_545 S
Mg138 O148 2.251 1_645 S
Mg138 O151 2.010 . S
O139 Mg138 2.028 1_455 S
O139 C142 1.250 . S
O140 Mg141 2.028 . S
O140 C142 1.248 . S
Mg141 O140 2.028 . S
Mg141 O146 2.032 . S
Mg141 O148 2.079 1_545 S
C142 O139 1.250 . S
C142 O140 1.248 . S
C143 O144 1.264 . S
C143 O151 1.249 . S
O144 C143 1.264 . S
O145 Mg138 1.988 . S
O145 C149 1.236 1_655 S
O146 Mg141 2.032 . S
O146 C149 1.259 . S
O147 Mg138 2.114 1_565 S
O147 C150 1.252 1_655 S
O148 Mg138 2.251 1_465 S
O148 Mg141 2.079 1_565 S
O148 C150 1.273 . S
C149 O145 1.236 1_455 S
C149 O146 1.259 . S
C150 O147 1.252 1_455 S
C150 O148 1.273 . S
O151 Mg138 2.010 . S
O151 C143 1.249 . S
C152 C153 1.349 1_565 S
C152 C154 1.327 . S
C152 H177 0.950 . S
C153 C152 1.349 1_545 S
C153 C169 1.349 . S
C154 C152 1.327 . S
C154 C173 1.429 1_565 S
C154 H178 0.950 . S
C155 C172 1.574 . S
C155 C174 1.368 . S
C155 H179 0.949 . S
H156 C160 0.949 . S
C157 C158 1.349 . S
C157 C159 1.327 . S
C157 H180 0.950 . S
C158 C157 1.349 . S
C158 C170 1.349 1_545 S
C159 C157 1.327 . S
C159 C175 1.429 . S
C159 H181 0.950 . S
C160 H156 0.949 . S
C160 C168 1.574 . S
C160 C176 1.368 1_565 S
H161 C169 0.950 . S
H162 C167 0.950 . S
H163 C168 0.949 . S
H164 C170 0.950 . S
H165 C171 0.950 . S
H166 C172 0.949 . S
C167 H162 0.950 . S
C167 C169 1.327 . S
C167 C173 1.429 . S
C168 C160 1.574 . S
C168 H163 0.949 . S
C168 C174 1.368 1_565 S
C169 C153 1.349 . S
C169 H161 0.950 . S
C169 C167 1.327 . S
C170 C158 1.349 1_565 S
C170 H164 0.950 . S
C170 C171 1.327 . S
C171 H165 0.950 . S
C171 C170 1.327 . S
C171 C175 1.429 1_565 S
C172 C155 1.574 . S
C172 H166 0.949 . S
C172 C176 1.368 . S
C173 C154 1.429 1_545 S
C173 C167 1.429 . S
C173 C174 1.523 . S
C174 C155 1.368 . S
C174 C168 1.368 1_545 S
C174 C173 1.523 . S
C175 C159 1.429 . S
C175 C171 1.429 1_545 S
C175 C176 1.523 . S
C176 C160 1.368 1_545 S
C176 C172 1.368 . S
C176 C175 1.523 . S
H177 C152 0.950 . S
H178 C154 0.950 . S
H179 C155 0.949 . S
H180 C157 0.950 . S
H181 C159 0.950 . S
C182 C183 1.349 . S
C182 C184 1.327 . S
C182 H207 0.950 . S
C183 C182 1.349 . S
C183 C199 1.349 1_455 S
C184 C182 1.327 . S
C184 C203 1.429 . S
C184 H208 0.950 . S
C185 C202 1.574 . S
C185 C204 1.368 1_655 S
C185 H209 0.949 . S
H186 C190 0.949 . S
C187 C188 1.349 1_655 S
C187 C189 1.327 . S
C187 H210 0.950 . S
C188 C187 1.349 1_455 S
C188 C200 1.349 . S
C189 C187 1.327 . S
C189 C205 1.429 1_655 S
C189 H211 0.950 . S
C190 H186 0.949 . S
C190 C198 1.574 . S
C190 C206 1.368 . S
H191 C199 0.950 . S
H192 C197 0.950 . S
H193 C198 0.949 . S
H194 C200 0.950 . S
H195 C201 0.950 . S
H196 C202 0.949 . S
C197 H192 0.950 . S
C197 C199 1.327 . S
C197 C203 1.429 1_655 S
C198 C190 1.574 . S
C198 H193 0.949 . S
C198 C204 1.368 . S
C199 C183 1.349 1_655 S
C199 H191 0.950 . S
C199 C197 1.327 . S
C200 C188 1.349 . S
C200 H194 0.950 . S
C200 C201 1.327 . S
C201 H195 0.950 . S
C201 C200 1.327 . S
C201 C205 1.429 . S
C202 C185 1.574 . S
C202 H196 0.949 . S
C202 C206 1.368 1_655 S
C203 C184 1.429 . S
C203 C197 1.429 1_455 S
C203 C204 1.523 . S
C204 C185 1.368 1_455 S
C204 C198 1.368 . S
C204 C203 1.523 . S
C205 C189 1.429 1_455 S
C205 C201 1.429 . S
C205 C206 1.523 . S
C206 C190 1.368 . S
C206 C202 1.368 1_455 S
C206 C205 1.523 . S
H207 C182 0.950 . S
H208 C184 0.950 . S
H209 C185 0.949 . S
H210 C187 0.950 . S
H211 C189 0.950 . S
C212 C213 1.349 1_565 S
C212 C214 1.327 . S
C212 H237 0.950 . S
C213 C212 1.349 1_545 S
C213 C229 1.349 . S
C214 C212 1.327 . S
C214 C233 1.429 1_565 S
C214 H238 0.950 . S
C215 C232 1.574 . S
C215 C234 1.368 . S
C215 H239 0.949 . S
H216 C220 0.949 . S
C217 C218 1.349 . S
C217 C219 1.327 . S
C217 H240 0.950 . S
C218 C217 1.349 . S
C218 C230 1.349 1_545 S
C219 C217 1.327 . S
C219 C235 1.429 . S
C219 H241 0.950 . S
C220 H216 0.949 . S
C220 C228 1.574 . S
C220 C236 1.368 1_565 S
H221 C229 0.950 . S
H222 C227 0.950 . S
H223 C228 0.949 . S
H224 C230 0.950 . S
H225 C231 0.950 . S
H226 C232 0.949 . S
C227 H222 0.950 . S
C227 C229 1.327 . S
C227 C233 1.429 . S
C228 C220 1.574 . S
C228 H223 0.949 . S
C228 C234 1.368 1_565 S
C229 C213 1.349 . S
C229 H221 0.950 . S
C229 C227 1.327 . S
C230 C218 1.349 1_565 S
C230 H224 0.950 . S
C230 C231 1.327 . S
C231 H225 0.950 . S
C231 C230 1.327 . S
C231 C235 1.429 1_565 S
C232 C215 1.574 . S
C232 H226 0.949 . S
C232 C236 1.368 . S
C233 C214 1.429 1_545 S
C233 C227 1.429 . S
C233 C234 1.523 . S
C234 C215 1.368 . S
C234 C228 1.368 1_545 S
C234 C233 1.523 . S
C235 C219 1.429 . S
C235 C231 1.429 1_545 S
C235 C236 1.523 . S
C236 C220 1.368 1_545 S
C236 C232 1.368 . S
C236 C235 1.523 . S
H237 C212 0.950 . S
H238 C214 0.950 . S
H239 C215 0.949 . S
H240 C217 0.950 . S
H241 C219 0.950 . S
C242 C243 1.349 . S
C242 C244 1.327 . S
C242 H267 0.950 . S
C243 C242 1.349 . S
C243 C259 1.349 . S
C244 C242 1.327 . S
C244 C263 1.429 . S
C244 H268 0.950 . S
C245 C262 1.574 . S
C245 C264 1.368 . S
C245 H269 0.949 1_455 S
H246 C250 0.949 . S
C247 C248 1.349 . S
C247 C249 1.327 . S
C247 H270 0.950 1_455 S
C248 C247 1.349 . S
C248 C260 1.349 . S
C249 C247 1.327 . S
C249 C265 1.429 . S
C249 H271 0.950 1_455 S
C250 H246 0.949 . S
C250 C258 1.574 . S
C250 C266 1.368 . S
H251 C259 0.942 1_655 S
H252 C257 0.950 1_655 S
H253 C258 0.949 . S
H254 C260 0.950 . S
H255 C261 0.950 . S
H256 C262 0.949 1_655 S
C257 H252 0.950 1_455 S
C257 C259 1.327 . S
C257 C263 1.429 . S
C258 C250 1.574 . S
C258 H253 0.949 . S
C258 C264 1.368 . S
C259 C243 1.349 . S
C259 H251 0.942 1_455 S
C259 C257 1.327 . S
C260 C248 1.349 . S
C260 H254 0.950 . S
C260 C261 1.327 . S
C261 H255 0.950 . S
C261 C260 1.327 . S
C261 C265 1.429 . S
C262 C245 1.574 . S
C262 H256 0.949 1_455 S
C262 C266 1.368 . S
C263 C244 1.429 . S
C263 C257 1.429 . S
C263 C264 1.523 . S
C264 C245 1.368 . S
C264 C258 1.368 . S
C264 C263 1.523 . S
C265 C249 1.429 . S
C265 C261 1.429 . S
C265 C266 1.523 . S
C266 C250 1.368 . S
C266 C262 1.368 . S
C266 C265 1.523 . S
H267 C242 0.950 . S
H268 C244 0.950 . S
H269 C245 0.949 1_655 S
H270 C247 0.950 1_655 S
H271 C249 0.950 1_655 S
C272 C273 1.349 . S
C272 C274 1.327 . S
C272 H297 0.950 . S
C273 C272 1.349 . S
C273 C289 1.349 1_545 S
C274 C272 1.327 . S
C274 C293 1.429 . S
C274 H298 0.950 . S
C275 C292 1.574 . S
C275 C294 1.368 1_565 S
C275 H299 0.949 . S
H276 C280 0.949 . S
C277 C278 1.349 1_565 S
C277 C279 1.327 . S
C277 H300 0.950 . S
C278 C277 1.349 1_545 S
C278 C290 1.349 . S
C279 C277 1.327 . S
C279 C295 1.429 1_565 S
C279 H301 0.950 . S
C280 H276 0.949 . S
C280 C288 1.574 . S
C280 C296 1.368 . S
H281 C289 0.950 . S
H282 C287 0.950 . S
H283 C288 0.949 . S
H284 C290 0.950 . S
H285 C291 0.950 . S
H286 C292 0.949 . S
C287 H282 0.950 . S
C287 C289 1.327 . S
C287 C293 1.429 1_565 S
C288 C280 1.574 . S
C288 H283 0.949 . S
C288 C294 1.368 . S
C289 C273 1.349 1_565 S
C289 H281 0.950 . S
C289 C287 1.327 . S
C290 C278 1.349 . S
C290 H284 0.950 . S
C290 C291 1.327 . S
C291 H285 0.950 . S
C291 C290 1.327 . S
C291 C295 1.429 . S
C292 C275 1.574 . S
C292 H286 0.949 . S
C292 C296 1.368 1_565 S
C293 C274 1.429 . S
C293 C287 1.429 1_545 S
C293 C294 1.523 . S
C294 C275 1.368 1_545 S
C294 C288 1.368 . S
C294 C293 1.523 . S
C295 C279 1.429 1_545 S
C295 C291 1.429 . S
C295 C296 1.523 . S
C296 C280 1.368 . S
C296 C292 1.368 1_545 S
C296 C295 1.523 . S
H297 C272 0.950 . S
H298 C274 0.950 . S
H299 C275 0.949 . S
H300 C277 0.950 . S
H301 C279 0.950 . S
C302 C303 1.349 . S
C302 C304 1.327 . S
C302 H327 0.950 . S
C303 C302 1.349 . S
C303 C319 1.349 . S
C304 C302 1.327 . S
C304 C323 1.429 . S
C304 H328 0.950 . S
C305 C322 1.574 . S
C305 C324 1.368 . S
C305 H329 0.949 1_455 S
H306 C310 0.949 . S
C307 C308 1.349 . S
C307 C309 1.327 . S
C307 H330 0.962 . S
C308 C307 1.349 . S
C308 C320 1.349 . S
C309 C307 1.327 . S
C309 C325 1.429 . S
C309 H331 0.950 1_455 S
C310 H306 0.949 . S
C310 C318 1.574 . S
C310 C326 1.368 . S
H311 C319 0.950 1_655 S
H312 C317 0.950 1_655 S
H313 C318 0.949 . S
H314 C320 0.950 . S
H315 C321 0.950 . S
H316 C322 0.949 1_655 S
C317 H312 0.950 1_455 S
C317 C319 1.327 . S
C317 C323 1.429 . S
C318 C310 1.574 . S
C318 H313 0.949 . S
C318 C324 1.368 . S
C319 C303 1.349 . S
C319 H311 0.950 1_455 S
C319 C317 1.327 . S
C320 C308 1.349 . S
C320 H314 0.950 . S
C320 C321 1.327 . S
C321 H315 0.950 . S
C321 C320 1.327 . S
C321 C325 1.429 . S
C322 C305 1.574 . S
C322 H316 0.949 1_455 S
C322 C326 1.368 . S
C323 C304 1.429 . S
C323 C317 1.429 . S
C323 C324 1.523 . S
C324 C305 1.368 . S
C324 C318 1.368 . S
C324 C323 1.523 . S
C325 C309 1.429 . S
C325 C321 1.429 . S
C325 C326 1.523 . S
C326 C310 1.368 . S
C326 C322 1.368 . S
C326 C325 1.523 . S
H327 C302 0.950 . S
H328 C304 0.950 . S
H329 C305 0.949 1_655 S
H330 C307 0.962 . S
H331 C309 0.950 1_655 S
C332 C333 1.349 1_565 S
C332 C334 1.327 . S
C332 H357 0.950 . S
C333 C332 1.349 1_545 S
C333 C349 1.349 . S
C334 C332 1.327 . S
C334 C353 1.429 1_565 S
C334 H358 0.950 . S
C335 C352 1.574 . S
C335 C354 1.368 . S
C335 H359 0.949 . S
H336 C340 0.949 . S
C337 C338 1.349 . S
C337 C339 1.327 . S
C337 H360 0.950 . S
C338 C337 1.349 . S
C338 C350 1.349 1_545 S
C339 C337 1.327 . S
C339 C355 1.429 . S
C339 H361 0.950 . S
C340 H336 0.949 . S
C340 C348 1.574 . S
C340 C356 1.368 1_565 S
H341 C349 0.950 . S
H342 C347 0.950 . S
H343 C348 0.949 . S
H344 C350 0.950 . S
H345 C351 0.950 . S
H346 C352 0.949 . S
C347 H342 0.950 . S
C347 C349 1.327 . S
C347 C353 1.429 . S
C348 C340 1.574 . S
C348 H343 0.949 . S
C348 C354 1.368 1_565 S
C349 C333 1.349 . S
C349 H341 0.950 . S
C349 C347 1.327 . S
C350 C338 1.349 1_565 S
C350 H344 0.950 . S
C350 C351 1.327 . S
C351 H345 0.950 . S
C351 C350 1.327 . S
C351 C355 1.429 1_565 S
C352 C335 1.574 . S
C352 H346 0.949 . S
C352 C356 1.368 . S
C353 C334 1.429 1_545 S
C353 C347 1.429 . S
C353 C354 1.523 . S
C354 C335 1.368 . S
C354 C348 1.368 1_545 S
C354 C353 1.523 . S
C355 C339 1.429 . S
C355 C351 1.429 1_545 S
C355 C356 1.523 . S
C356 C340 1.368 1_545 S
C356 C352 1.368 . S
C356 C355 1.523 . S
H357 C332 0.950 . S
H358 C334 0.950 . S
H359 C335 0.949 . S
H360 C337 0.950 . S
H361 C339 0.950 . S
C362 C363 1.349 . S
C362 C364 1.327 . S
C362 H387 0.950 1_455 S
C363 C362 1.349 . S
C363 C379 1.349 . S
C364 C362 1.327 . S
C364 C383 1.429 . S
C364 H388 0.950 1_455 S
C365 C382 1.574 . S
C365 C384 1.368 . S
C365 H389 0.949 . S
H366 C370 0.949 1_655 S
C367 C368 1.349 . S
C367 C369 1.327 . S
C367 H390 0.950 . S
C368 C367 1.349 . S
C368 C380 1.349 . S
C369 C367 1.327 . S
C369 C385 1.429 . S
C369 H391 0.950 . S
C370 H366 0.949 1_455 S
C370 C378 1.574 . S
C370 C386 1.368 . S
H371 C379 0.950 . S
H372 C377 0.950 . S
H373 C378 0.949 1_655 S
H374 C380 0.950 . S
H375 C381 0.961 . S
H376 C382 0.949 . S
C377 H372 0.950 . S
C377 C379 1.327 . S
C377 C383 1.429 . S
C378 C370 1.574 . S
C378 H373 0.949 1_455 S
C378 C384 1.368 . S
C379 C363 1.349 . S
C379 H371 0.950 . S
C379 C377 1.327 . S
C380 C368 1.349 . S
C380 H374 0.950 . S
C380 C381 1.327 . S
C381 H375 0.961 . S
C381 C380 1.327 . S
C381 C385 1.429 . S
C382 C365 1.574 . S
C382 H376 0.949 . S
C382 C386 1.368 . S
C383 C364 1.429 . S
C383 C377 1.429 . S
C383 C384 1.523 . S
C384 C365 1.368 . S
C384 C378 1.368 . S
C384 C383 1.523 . S
C385 C369 1.429 . S
C385 C381 1.429 . S
C385 C386 1.523 . S
C386 C370 1.368 . S
C386 C382 1.368 . S
C386 C385 1.523 . S
H387 C362 0.950 1_655 S
H388 C364 0.950 1_655 S
H389 C365 0.949 . S
H390 C367 0.950 . S
H391 C369 0.950 . S
C158 C129 1.456 . S
C153 C47 1.660 . S
C188 C149 1.746 . S
C183 C109 1.652 . S
C218 C128 1.684 1_655 S
C213 C29 1.645 . S
C248 C150 1.770 . S
C243 C91 1.655 . S
C278 C142 1.355 . S
C273 C53 1.373 . S
C308 C135 1.364 . S
C303 C115 1.371 . S
C338 C143 1.188 . S
C333 C35 1.394 . S
C363 C97 1.374 . S
C368 C136 1.391 . S
