# Generated by pormake.
# Topology anh, (6,3)-cn, num edge types: 1
# Building blocks:
#     Node 0, Type 0, BuildingBlock: BETFAJ_clean_sbu_0, # of connection points: 6
#     Node 1, Type 0, BuildingBlock: BETFAJ_clean_sbu_0, # of connection points: 6
#     Node 2, Type 0, BuildingBlock: BETFAJ_clean_sbu_0, # of connection points: 6
#     Node 3, Type 1, BuildingBlock: PAMTOO_clean_linker_0, # of connection points: 3
#     Node 4, Type 1, BuildingBlock: PAMTOO_clean_linker_0, # of connection points: 3
#     Node 5, Type 1, BuildingBlock: PAMTOO_clean_linker_0, # of connection points: 3
#     Node 6, Type 1, BuildingBlock: PAMTOO_clean_linker_0, # of connection points: 3
#     Node 7, Type 1, BuildingBlock: PAMTOO_clean_linker_0, # of connection points: 3
#     Node 8, Type 1, BuildingBlock: PAMTOO_clean_linker_0, # of connection points: 3
#     Edge 9, Type (0, 1), BuildingBlock: CIFDUS_clean_linker_0, # of connection points: 2
#     Edge 10, Type (0, 1), BuildingBlock: CIFDUS_clean_linker_0, # of connection points: 2
#     Edge 11, Type (0, 1), BuildingBlock: CIFDUS_clean_linker_0, # of connection points: 2
#     Edge 12, Type (0, 1), BuildingBlock: CIFDUS_clean_linker_0, # of connection points: 2
#     Edge 13, Type (0, 1), BuildingBlock: CIFDUS_clean_linker_0, # of connection points: 2
#     Edge 14, Type (0, 1), BuildingBlock: CIFDUS_clean_linker_0, # of connection points: 2
#     Edge 15, Type (0, 1), BuildingBlock: CIFDUS_clean_linker_0, # of connection points: 2
#     Edge 16, Type (0, 1), BuildingBlock: CIFDUS_clean_linker_0, # of connection points: 2
#     Edge 17, Type (0, 1), BuildingBlock: CIFDUS_clean_linker_0, # of connection points: 2
#     Edge 18, Type (0, 1), BuildingBlock: CIFDUS_clean_linker_0, # of connection points: 2
#     Edge 19, Type (0, 1), BuildingBlock: CIFDUS_clean_linker_0, # of connection points: 2
#     Edge 20, Type (0, 1), BuildingBlock: CIFDUS_clean_linker_0, # of connection points: 2
#     Edge 21, Type (0, 1), BuildingBlock: CIFDUS_clean_linker_0, # of connection points: 2
#     Edge 22, Type (0, 1), BuildingBlock: CIFDUS_clean_linker_0, # of connection points: 2
#     Edge 23, Type (0, 1), BuildingBlock: CIFDUS_clean_linker_0, # of connection points: 2
#     Edge 24, Type (0, 1), BuildingBlock: CIFDUS_clean_linker_0, # of connection points: 2
#     Edge 25, Type (0, 1), BuildingBlock: CIFDUS_clean_linker_0, # of connection points: 2
#     Edge 26, Type (0, 1), BuildingBlock: CIFDUS_clean_linker_0, # of connection points: 2
# Relax obj value: 0.188
# Max RMSD: 0.195
# Mean RMSD: 0.128
data_MOF--net-anh--node1-BETFAJ_clean_sbu_0--node2-PAMTOO_clean_linker_0--edge1-CIFDUS_clean_linker_0
_symmetry_space_group_name_H-M    P1
_symmetry_Int_Tables_number       1
_symmetry_cell_setting            triclinic
loop_
_symmetry_equiv_pos_as_xyz
'x, y, z'
_cell_length_a     28.798224
_cell_length_b     34.197421
_cell_length_c     43.250036
_cell_angle_alpha  87.120487
_cell_angle_beta   92.981976
_cell_angle_gamma 131.07375
loop_
_atom_site_label
_atom_site_type_symbol
_atom_site_fract_x
_atom_site_fract_y
_atom_site_fract_z
_atom_type_partial_charge
Sm0 Sm 0.19694 0.56025 0.14601 0.0
Sm1 Sm 0.12137 0.58937 0.15688 0.0
C2 C 0.26988 0.54775 0.12333 0.0
C3 C 0.26884 0.50705 0.11275 0.0
C4 C 0.3092 0.51942 0.08968 0.0
C5 C 0.31547 0.48395 0.0821 0.0
C6 C 0.28165 0.43553 0.09764 0.0
C7 C 0.23829 0.42196 0.11941 0.0
C8 C 0.2319 0.45751 0.12692 0.0
C9 C 0.18058 0.56386 0.20703 0.0
C10 C 0.26712 0.68719 0.15021 0.0
C11 C 1.04465 0.5974 0.17994 0.0
C12 C 0.97808 0.561 0.18536 0.0
C13 C 0.94783 0.5104 0.19675 0.0
C14 C 0.88355 0.47327 0.19652 0.0
C15 C 0.84881 0.48672 0.1857 0.0
C16 C 0.87916 0.53836 0.17663 0.0
C17 C 0.94343 0.57519 0.17626 0.0
C18 C 0.13399 0.58135 0.09526 0.0
C19 C 1.05035 0.46275 0.15601 0.0
O20 O 0.26311 0.54795 0.15297 0.0
O21 O 0.24108 0.5587 0.10588 0.0
O22 O 0.19306 0.59687 0.18653 0.0
O23 O 0.17952 0.5286 0.19611 0.0
O24 O 0.27071 0.65255 0.14118 0.0
O25 O 0.21466 0.67158 0.16018 0.0
O26 O 0.07743 0.59027 0.19707 0.0
O27 O 1.06034 0.6078 0.15089 0.0
O28 O 0.12365 0.55069 0.1169 0.0
O29 O 0.1355 0.61728 0.10554 0.0
O30 O 1.05015 0.49948 0.16432 0.0
O31 O 0.10116 0.47564 0.14506 0.0
H32 H 0.33767 0.55733 0.07834 0.0
H33 H 0.34845 0.49512 0.06484 0.0
H34 H 0.2118 0.38507 0.13186 0.0
H35 H 0.20004 0.44711 0.14466 0.0
H36 H 0.9738 0.49898 0.20458 0.0
H37 H 0.86098 0.43368 0.20368 0.0
H38 H 0.85317 0.54944 0.16792 0.0
H39 H 0.96596 0.61409 0.16753 0.0
Sm40 Sm 0.72945 0.07954 0.47179 0.0
Sm41 Sm 0.65005 0.10361 0.4615 0.0
C42 C 0.78549 0.04341 0.48816 0.0
C43 C 0.7729 0.99654 0.50052 0.0
C44 C 0.71386 0.94734 0.4984 0.0
C45 C 0.70382 0.90321 0.50958 0.0
C46 C 0.75268 0.90774 0.5231 0.0
C47 C 0.81163 0.95728 0.52513 0.0
C48 C 0.82155 1.00119 0.51397 0.0
C49 C 0.72648 0.10581 0.41105 0.0
C50 C 0.57919 0.98192 0.46412 0.0
C51 C 0.59726 0.14282 0.44585 0.0
C52 C 0.60069 0.18498 0.45706 0.0
C53 C 0.65426 0.23759 0.45411 0.0
C54 C 0.65697 0.27641 0.46609 0.0
C55 C 0.60644 0.26341 0.48148 0.0
C56 C 0.55272 0.21089 0.48396 0.0
C57 C 0.54982 0.17223 0.47178 0.0
C58 C 0.65947 0.08344 0.52306 0.0
C59 C 0.80285 0.20261 0.46967 0.0
O60 O 0.77914 0.06824 0.50701 0.0
O61 O 0.76479 0.04101 0.46011 0.0
O62 O 0.67897 0.07544 0.42737 0.0
O63 O 0.77588 0.1226 0.42665 0.0
O64 O 0.63115 0.99932 0.47851 0.0
O65 O 0.57678 0.01561 0.44964 0.0
O66 O 0.64501 0.15592 0.4318 0.0
O67 O 0.57269 0.10283 0.46458 0.0
O68 O 0.7038 0.11075 0.50482 0.0
O69 O 0.60905 0.06816 0.50952 0.0
O70 O 0.74836 0.18781 0.46136 0.0
O71 O 0.80737 0.16749 0.47793 0.0
H72 H 0.67575 0.94307 0.488 0.0
H73 H 0.65778 0.86569 0.50795 0.0
H74 H 0.85044 0.96209 0.53495 0.0
H75 H 0.86749 0.03886 0.5156 0.0
H76 H 0.69438 0.24882 0.44292 0.0
H77 H 0.69909 0.31649 0.46393 0.0
H78 H 0.51266 0.19965 0.49524 0.0
H79 H 0.50781 0.13211 0.47419 0.0
Sm80 Sm 0.64857 0.56776 0.84369 0.0
Sm81 Sm 0.56341 0.45414 0.84653 0.0
C82 C 0.70844 0.66766 0.83179 0.0
C83 C 0.69567 0.70135 0.81926 0.0
C84 C 0.69178 0.70834 0.78718 0.0
C85 C 0.68143 0.74125 0.77573 0.0
C86 C 0.67481 0.76828 0.79599 0.0
C87 C 0.67904 0.7614 0.82808 0.0
C88 C 0.68951 0.72859 0.83952 0.0
C89 C 0.63404 0.52532 0.90188 0.0
C90 C 0.49309 0.50641 0.8464 0.0
C91 C 0.49057 0.35281 0.85688 0.0
C92 C 0.49449 0.31284 0.85002 0.0
C93 C 0.49074 0.28201 0.87422 0.0
C94 C 0.49684 0.24558 0.86853 0.0
C95 C 0.50653 0.23869 0.83838 0.0
C96 C 0.51038 0.26977 0.81415 0.0
C97 C 0.50462 0.30645 0.81989 0.0
C98 C 0.60974 0.49454 0.78842 0.0
C99 C 0.71758 0.515 0.84815 0.0
O100 O 0.70548 0.63761 0.81255 0.0
O101 O 0.68622 0.64521 0.85886 0.0
O102 O 0.5919 0.51092 0.88248 0.0
O103 O 0.68775 0.56328 0.89079 0.0
O104 O 0.5517 0.55182 0.84468 0.0
O105 O 0.48612 0.46324 0.84731 0.0
O106 O 0.53035 0.38688 0.87763 0.0
O107 O 0.48209 0.37349 0.83339 0.0
O108 O 0.59117 0.5101 0.8058 0.0
O109 O 0.60299 0.45625 0.80128 0.0
O110 O 0.6605 0.47354 0.85718 0.0
O111 O 0.72426 0.55649 0.83794 0.0
H112 H 0.69708 0.68863 0.77081 0.0
H113 H 0.67953 0.74607 0.75089 0.0
H114 H 0.6735 0.7809 0.84448 0.0
H115 H 0.69284 0.72458 0.86435 0.0
H116 H 0.48369 0.28647 0.8977 0.0
H117 H 0.49472 0.22326 0.88796 0.0
H118 H 0.51702 0.26534 0.79058 0.0
H119 H 0.50833 0.3299 0.8007 0.0
H120 H 0.77218 0.18561 0.22511 0.0
H121 H 0.62551 0.0203 0.2184 0.0
H122 H 0.73028 0.11097 0.1381 0.0
H123 H 0.58578 1.00329 0.12093 0.0
C124 C 0.57885 0.99321 0.14604 0.0
O125 O 0.63576 0.01501 0.16011 0.0
H126 H 0.56111 1.01085 0.15545 0.0
C127 C 0.74444 0.15088 0.21141 0.0
C128 C 0.75786 0.15513 0.17997 0.0
C129 C 0.69766 0.10268 0.22581 0.0
C130 C 0.66112 0.0579 0.20777 0.0
C131 C 0.67139 0.06034 0.17614 0.0
C132 C 0.72085 0.10907 0.1623 0.0
H133 H 0.66647 0.65217 0.61204 0.0
H134 H 0.66749 0.52819 0.60028 0.0
H135 H 0.68345 0.61673 0.52151 0.0
H136 H 0.60313 0.50679 0.5074 0.0
C137 C 0.61719 0.49382 0.52694 0.0
O138 O 0.67164 0.53663 0.54024 0.0
H139 H 0.57969 0.47278 0.54408 0.0
C140 C 0.6706 0.62977 0.59752 0.0
C141 C 0.67774 0.64086 0.56551 0.0
C142 C 0.66766 0.58979 0.61082 0.0
C143 C 0.66905 0.55904 0.59105 0.0
C144 C 0.67301 0.56796 0.55895 0.0
C145 C 0.67836 0.60926 0.54627 0.0
H146 H 1.01626 0.54165 0.90988 0.0
H147 H 0.16979 0.54789 0.90828 0.0
H148 H 1.06099 0.51355 0.82407 0.0
H149 H 0.14864 0.45886 0.84853 0.0
C150 C 0.1848 0.49731 0.85906 0.0
O151 O 0.16733 0.52848 0.85076 0.0
H152 H 0.17896 0.48932 0.8844 0.0
C153 C 1.04307 0.53699 0.89647 0.0
C154 C 1.02751 0.52544 0.86495 0.0
C155 C 0.09337 0.54516 0.91156 0.0
C156 C 0.1309 0.54011 0.89586 0.0
C157 C 0.12139 0.52722 0.86448 0.0
C158 C 0.0689 0.52099 0.84862 0.0
H159 H 1.05325 0.47251 0.39253 0.0
H160 H 0.2043 0.63779 0.39053 0.0
H161 H 0.12476 0.55714 0.47745 0.0
H162 H 0.29073 0.66127 0.4385 0.0
C163 C 0.27534 0.6733 0.45592 0.0
O164 O 0.21406 0.65032 0.44971 0.0
H165 H 0.27754 0.65839 0.47889 0.0
C166 C 0.08568 0.50886 0.40454 0.0
C167 C 0.08263 0.50854 0.43681 0.0
C168 C 0.12876 0.55496 0.38749 0.0
C169 C 0.17133 0.60178 0.40332 0.0
C170 C 0.17174 0.60322 0.43569 0.0
C171 C 0.12631 0.55631 0.45255 0.0
H172 H 0.65124 0.97174 0.70181 0.0
H173 H 0.61501 0.07295 0.71659 0.0
H174 H 0.63582 1.00291 0.79467 0.0
H175 H 0.54493 0.02121 0.80552 0.0
C176 C 0.5602 0.04816 0.78527 0.0
O177 O 0.61751 0.06679 0.77684 0.0
H178 H 0.52579 0.02614 0.76601 0.0
C179 C 0.6437 0.99065 0.71757 0.0
C180 C 0.64485 0.98268 0.74986 0.0
C181 C 0.63235 0.02269 0.7054 0.0
C182 C 0.62328 0.04781 0.72568 0.0
C183 C 0.62482 0.04093 0.75775 0.0
C184 C 0.63543 1.00836 0.7698 0.0
H185 H 0.59726 0.36762 0.06133 0.0
H186 H 0.40653 0.29422 0.04711 0.0
H187 H 0.46404 0.25647 0.12783 0.0
H188 H 0.28299 0.18521 0.10107 0.0
C189 C 0.31718 0.22238 0.08824 0.0
O190 O 0.37435 0.24785 0.10255 0.0
H191 H 0.31632 0.21257 0.06397 0.0
C192 C 0.54932 0.33861 0.06749 0.0
C193 C 0.53501 0.30995 0.09517 0.0
C194 C 0.50359 0.33387 0.04974 0.0
C195 C 0.44265 0.29862 0.06019 0.0
C196 C 0.42802 0.27051 0.08831 0.0
C197 C 0.47431 0.2757 0.10536 0.0
H198 H 0.20223 0.32987 0.09165 0.0
H199 H 0.39552 0.46656 0.09554 0.0
H200 H 0.42308 0.41329 0.09235 0.0
H201 H 0.39331 0.32911 0.09127 0.0
H202 H 0.20138 0.19048 0.08609 0.0
H203 H 0.17212 0.24353 0.08766 0.0
C204 C 0.2503 0.34783 0.09173 0.0
C205 C 0.29673 0.40215 0.09366 0.0
C206 C 0.26606 0.3168 0.09007 0.0
C207 C 0.35886 0.42499 0.09353 0.0
C208 C 0.37473 0.39453 0.09199 0.0
C209 C 0.34497 0.30994 0.09009 0.0
C210 C 0.29954 0.2555 0.08887 0.0
C211 C 0.32879 0.3405 0.09057 0.0
C212 C 0.23722 0.23224 0.08747 0.0
C213 C 0.22054 0.26254 0.08829 0.0
H214 H 0.82006 0.29319 0.47131 0.0
H215 H 0.91896 0.23986 0.462 0.0
H216 H 1.01438 0.32885 0.45436 0.0
H217 H 0.07008 0.42233 0.44643 0.0
H218 H 0.97483 0.47801 0.45789 0.0
H219 H 0.8794 0.3891 0.46902 0.0
C220 C 0.86256 0.30105 0.46788 0.0
C221 C 0.86135 0.25893 0.46716 0.0
C222 C 0.91874 0.35337 0.46407 0.0
C223 C 0.91761 0.2707 0.46285 0.0
C224 C 0.97267 0.32196 0.45839 0.0
C225 C 1.02897 0.41525 0.45243 0.0
C226 C 1.0305 0.45746 0.45204 0.0
C227 C 0.97393 0.36368 0.45863 0.0
C228 C 0.97589 0.44689 0.4589 0.0
C229 C 0.92086 0.39569 0.46482 0.0
H230 H 0.7203 0.86194 0.81826 0.0
H231 H 0.6023 0.75302 0.74593 0.0
H232 H 0.58339 0.80929 0.72535 0.0
H233 H 0.59896 0.88897 0.72801 0.0
H234 H 0.71601 0.9976 0.80054 0.0
H235 H 0.73506 0.94133 0.82123 0.0
C236 C 0.68993 0.85012 0.79817 0.0
C237 C 0.66309 0.80305 0.78371 0.0
C238 C 0.67864 0.88258 0.78651 0.0
C239 C 0.62459 0.7892 0.75737 0.0
C240 C 0.61332 0.82128 0.74564 0.0
C241 C 0.62908 0.90065 0.7482 0.0
C242 C 0.65595 0.94775 0.7626 0.0
C243 C 0.64014 0.86812 0.75997 0.0
C244 C 0.69399 0.96147 0.78911 0.0
C245 C 0.70527 0.92937 0.80088 0.0
H246 H 0.79284 0.40332 0.15031 0.0
H247 H 0.75668 0.4815 0.20586 0.0
H248 H 0.64958 0.42449 0.18656 0.0
H249 H 0.57245 0.36268 0.14762 0.0
H250 H 0.61341 0.29282 0.08738 0.0
H251 H 0.71213 0.33532 0.11501 0.0
C252 C 0.76083 0.40671 0.15881 0.0
C253 C 0.78203 0.44622 0.17941 0.0
C254 C 0.70052 0.37555 0.1465 0.0
C255 C 0.74092 0.45121 0.18995 0.0
C256 C 0.67997 0.41883 0.17884 0.0
C257 C 0.60234 0.3556 0.14134 0.0
C258 C 0.5861 0.32451 0.11593 0.0
C259 C 0.66005 0.38229 0.15623 0.0
C260 C 0.62525 0.31629 0.10719 0.0
C261 C 0.68167 0.34087 0.12279 0.0
H262 H 0.46395 0.92184 0.43225 0.0
H263 H 0.56888 0.90993 0.50087 0.0
H264 H 0.48499 0.81707 0.50535 0.0
H265 H 0.38281 0.73727 0.4894 0.0
H266 H 0.27587 0.74441 0.42001 0.0
H267 H 0.35799 0.83948 0.41649 0.0
C268 C 0.4684 0.89901 0.44827 0.0
C269 C 0.52402 0.92411 0.46605 0.0
C270 C 0.41888 0.84405 0.45083 0.0
C271 C 0.52788 0.89287 0.48656 0.0
C272 C 0.4794 0.83919 0.48931 0.0
C273 C 0.37673 0.75962 0.4739 0.0
C274 C 0.32174 0.73322 0.45579 0.0
C275 C 0.42481 0.81419 0.47156 0.0
C276 C 0.31639 0.76325 0.435 0.0
C277 C 0.36388 0.81785 0.43281 0.0
H278 H 0.58124 0.24434 0.79755 0.0
H279 H 0.44226 0.142 0.86537 0.0
H280 H 0.4496 0.07656 0.85626 0.0
H281 H 0.49293 0.04662 0.82807 0.0
H282 H 0.62762 0.14619 0.75836 0.0
H283 H 0.62389 0.21384 0.76884 0.0
C284 C 0.55213 0.20761 0.8102 0.0
C285 C 0.51146 0.19869 0.83233 0.0
C286 C 0.5559 0.16946 0.80454 0.0
C287 C 0.47487 0.1508 0.84866 0.0
C288 C 0.47867 0.11299 0.8433 0.0
C289 C 0.52212 0.08345 0.8155 0.0
C290 C 0.5619 0.09188 0.79315 0.0
C291 C 0.51892 0.12181 0.8213 0.0
C292 C 0.59791 0.13919 0.7763 0.0
C293 C 0.59546 0.17777 0.78216 0.0
H294 H 0.68467 0.81269 0.49667 0.0
H295 H 0.79862 0.89864 0.57698 0.0
H296 H 0.78685 0.82449 0.5964 0.0
H297 H 0.74557 0.73604 0.59051 0.0
H298 H 0.62811 0.64769 0.5116 0.0
H299 H 0.64052 0.72223 0.49152 0.0
C300 C 0.70635 0.81496 0.51858 0.0
C301 C 0.74276 0.86134 0.53524 0.0
C302 C 0.69919 0.77194 0.52975 0.0
C303 C 0.77115 0.86379 0.56342 0.0
C304 C 0.76425 0.82131 0.57463 0.0
C305 C 0.72197 0.73273 0.56909 0.0
C306 C 0.68567 0.68613 0.55271 0.0
C307 C 0.7286 0.77533 0.55795 0.0
C308 C 0.65679 0.68317 0.52458 0.0
C309 C 0.66351 0.72568 0.51319 0.0
H310 H 0.83594 0.56573 0.8151 0.0
H311 H 0.72968 0.45902 0.89088 0.0
H312 H 0.80707 0.45084 0.90106 0.0
H313 H 0.90821 0.47345 0.89079 0.0
H314 H 1.01447 0.57514 0.81366 0.0
H315 H 0.93678 0.58396 0.80237 0.0
C316 C 0.82889 0.54055 0.83406 0.0
C317 C 0.77325 0.51365 0.85231 0.0
C318 C 0.87524 0.53423 0.83971 0.0
C319 C 0.76911 0.48111 0.87604 0.0
C320 C 0.81461 0.47613 0.88203 0.0
C321 C 0.91501 0.49713 0.87091 0.0
C322 C 0.97051 0.52256 0.85308 0.0
C323 C 0.86835 0.50221 0.86426 0.0
C324 C 0.97433 0.55321 0.82799 0.0
C325 C 0.92893 0.55894 0.82164 0.0
H326 H 0.39409 0.74301 0.14337 0.0
H327 H 0.26379 0.76374 0.1567 0.0
H328 H 0.34673 0.85673 0.15854 0.0
H329 H 0.45595 0.93394 0.15568 0.0
H330 H 0.58964 0.9181 0.14158 0.0
H331 H 0.50704 0.82303 0.14098 0.0
C332 C 0.38383 0.76784 0.14659 0.0
C333 C 0.32161 0.74511 0.14993 0.0
C334 C 0.43289 0.82287 0.14782 0.0
C335 C 0.31031 0.77886 0.15419 0.0
C336 C 0.35809 0.83265 0.15528 0.0
C337 C 0.46741 0.90978 0.15305 0.0
C338 C 0.52967 0.93368 0.14962 0.0
C339 C 0.4195 0.85522 0.15222 0.0
C340 C 0.54269 0.9012 0.14517 0.0
C341 C 0.49512 0.84661 0.14454 0.0
H342 H 0.6509 0.35652 0.45558 0.0
H343 H 0.5687 0.26155 0.53846 0.0
H344 H 0.5678 0.32542 0.56045 0.0
H345 H 0.5862 0.40661 0.55531 0.0
H346 H 0.66675 0.50123 0.47239 0.0
H347 H 0.67353 0.43984 0.4514 0.0
C348 C 0.63345 0.35014 0.47859 0.0
C349 C 0.60942 0.30408 0.49523 0.0
C350 C 0.63267 0.38696 0.49104 0.0
C351 C 0.58652 0.29622 0.52494 0.0
C352 C 0.58623 0.33284 0.5376 0.0
C353 C 0.60543 0.41374 0.53271 0.0
C354 C 0.62511 0.45779 0.51515 0.0
C355 C 0.60842 0.378 0.52072 0.0
C356 C 0.65077 0.46718 0.4861 0.0
C357 C 0.65452 0.43209 0.47412 0.0
H358 H 0.47349 0.58297 0.84842 0.0
H359 H 0.36892 0.41795 0.8468 0.0
H360 H 0.2737 0.40271 0.84842 0.0
H361 H 0.21382 0.43271 0.8515 0.0
H362 H 0.31304 0.5961 0.85485 0.0
H363 H 0.41081 0.6137 0.85137 0.0
C364 C 0.43027 0.54328 0.84831 0.0
C365 C 0.43285 0.50178 0.84733 0.0
C366 C 0.37186 0.53386 0.8494 0.0
C367 C 0.37292 0.45167 0.84745 0.0
C368 C 0.31666 0.44259 0.84838 0.0
C369 C 0.25633 0.47278 0.85079 0.0
C370 C 0.25154 0.51262 0.85219 0.0
C371 C 0.31451 0.48288 0.84936 0.0
C372 C 0.31073 0.56347 0.85266 0.0
C373 C 0.36825 0.57367 0.85094 0.0
H374 H 1.02224 0.36934 0.14164 0.0
H375 H 0.94129 0.42819 0.17672 0.0
H376 H 0.84513 0.34097 0.18469 0.0
H377 H 0.7831 0.24685 0.18449 0.0
H378 H 0.85816 0.18383 0.14871 0.0
H379 H 0.95517 0.27218 0.13769 0.0
C380 C 0.9836 0.36313 0.15097 0.0
C381 C 0.99084 0.4067 0.15912 0.0
C382 C 0.92629 0.31138 0.15523 0.0
C383 C 0.93899 0.39671 0.17076 0.0
C384 C 0.88309 0.34624 0.17521 0.0
C385 C 0.82031 0.25225 0.17386 0.0
C386 C 0.81266 0.20814 0.16747 0.0
C387 C 0.87619 0.30321 0.16791 0.0
C388 C 0.86186 0.21655 0.15359 0.0
C389 C 0.91787 0.26738 0.1476 0.0
H390 H 0.13456 0.63301 0.04498 0.0
H391 H 0.12783 0.50602 0.07103 0.0
H392 H 0.11905 0.4856 0.01655 0.0
H393 H 0.10788 0.50105 0.96124 0.0
H394 H 0.11071 0.62602 0.93558 0.0
H395 H 0.12647 0.65001 0.98981 0.0
C396 C 0.13156 0.60109 0.03869 0.0
C397 C 0.13181 0.5711 0.06205 0.0
C398 C 0.12553 0.58902 0.00727 0.0
C399 C 0.12775 0.52976 0.05352 0.0
C400 C 0.12263 0.51799 0.02233 0.0
C401 C 0.11269 0.53387 0.96758 0.0
C402 C 0.10789 0.56158 0.94445 0.0
C403 C 0.12078 0.54697 -0.00103 0.0
C404 C 0.11371 0.60381 0.953 0.0
C405 C 0.12277 0.61757 0.984 0.0
H406 H 0.62924 0.05478 0.36843 0.0
H407 H 0.82692 0.17532 0.37728 0.0
H408 H 0.83501 0.18551 0.32138 0.0
H409 H 0.78809 0.1569 0.27015 0.0
H410 H 0.59049 0.03917 0.2591 0.0
H411 H 0.58053 0.03046 0.31545 0.0
C412 C 0.67383 0.08359 0.35802 0.0
C413 C 0.72744 0.11384 0.37704 0.0
C414 C 0.67844 0.08932 0.32543 0.0
C415 C 0.78496 0.15111 0.36324 0.0
C416 C 0.78976 0.15702 0.3312 0.0
C417 C 0.74252 0.13013 0.27982 0.0
C418 C 0.69021 0.09892 0.26012 0.0
C419 C 0.73704 0.12585 0.31209 0.0
C420 C 0.63183 0.06336 0.27355 0.0
C421 C 0.62601 0.05856 0.30584 0.0
H422 H 0.66415 0.58606 0.75768 0.0
H423 H 0.5699 0.42497 0.74395 0.0
H424 H 0.57767 0.4396 0.6879 0.0
H425 H 0.6093 0.49757 0.64295 0.0
H426 H 0.71665 0.66146 0.65681 0.0
H427 H 0.70445 0.64603 0.71241 0.0
C428 C 0.6455 0.55436 0.74232 0.0
C429 C 0.61624 0.50457 0.75475 0.0
C430 C 0.65196 0.56339 0.71012 0.0
C431 C 0.59277 0.46373 0.7348 0.0
C432 C 0.59707 0.47201 0.70277 0.0
C433 C 0.63125 0.53031 0.65794 0.0
C434 C 0.66302 0.58053 0.64516 0.0
C435 C 0.6266 0.5217 0.69016 0.0
C436 C 0.69006 0.62197 0.66549 0.0
C437 C 0.68377 0.61338 0.69751 0.0
H438 H 0.57233 0.04218 0.56597 0.0
H439 H 0.75869 0.10567 0.55514 0.0
H440 H 0.76597 0.08984 0.61038 0.0
H441 H 0.7193 0.05907 0.66227 0.0
H442 H 0.53523 1.00095 0.67284 0.0
H443 H 0.52687 1.01338 0.61731 0.0
C444 C 0.61457 0.05256 0.57569 0.0
C445 C 0.66483 0.07488 0.55649 0.0
C446 C 0.61871 0.04424 0.60748 0.0
C447 C 0.71933 0.08835 0.56945 0.0
C448 C 0.72347 0.07929 0.60103 0.0
C449 C 0.67736 0.04889 0.65224 0.0
C450 C 0.62779 0.02894 0.67147 0.0
C451 C 0.67346 0.05732 0.62032 0.0
C452 C 0.5739 0.01644 0.65842 0.0
C453 C 0.56914 0.02354 0.62671 0.0
H454 H 0.54031 0.48145 0.94009 0.0
H455 H 0.70128 0.50049 0.92636 0.0
H456 H 0.67292 0.43988 0.96976 0.0
H457 H 0.59959 0.37897 0.00986 0.0
H458 H 0.44762 0.37179 0.02812 0.0
H459 H 0.47405 0.42869 0.98396 0.0
C460 C 0.56951 0.47274 0.94696 0.0
C461 C 0.62261 0.49505 0.9303 0.0
C462 C 0.55376 0.43912 0.97224 0.0
C463 C 0.66044 0.48392 0.9392 0.0
C464 C 0.64394 0.44903 0.96379 0.0
C465 C 0.57261 0.39032 0.00476 0.0
C466 C 0.52051 0.36939 0.02239 0.0
C467 C 0.5903 0.42603 0.98032 0.0
C468 C 0.48623 0.38473 0.01459 0.0
C469 C 0.50195 0.4183 0.9895 0.0
H470 H 0.08246 0.51444 0.24335 0.0
H471 H 0.2806 0.62909 0.24437 0.0
H472 H 0.2826 0.63767 0.30054 0.0
H473 H 0.22765 0.60942 0.34949 0.0
H474 H 1.02865 0.49802 0.34773 0.0
H475 H 1.02722 0.49094 0.29187 0.0
C476 C 0.12586 0.5414 0.25603 0.0
C477 C 0.18131 0.57094 0.24023 0.0
C478 C 0.12645 0.54637 0.28812 0.0
C479 C 0.2375 0.60606 0.25642 0.0
C480 C 0.23857 0.61085 0.28842 0.0
C481 C 0.18392 0.58417 0.33689 0.0
C482 C 0.12841 0.55374 0.35304 0.0
C483 C 0.1833 0.58085 0.30457 0.0
C484 C 0.07221 0.52094 0.33616 0.0
C485 C 0.07124 0.51708 0.30411 0.0
loop_
_geom_bond_atom_site_label_1
_geom_bond_atom_site_label_2
_geom_bond_distance
_geom_bond_site_symmetry_2
_ccdc_geom_bond_type
Sm0 C2 2.846 . S
Sm0 O20 2.543 . S
Sm0 O21 2.450 . S
Sm0 O22 2.681 1_455 S
Sm0 O23 2.464 . S
Sm0 O24 2.396 . S
Sm0 O28 2.386 . S
Sm0 O31 2.408 1_455 S
Sm1 C11 2.846 . S
Sm1 O22 2.386 . S
Sm1 O25 2.408 1_655 S
Sm1 O26 2.543 . S
Sm1 O27 2.450 . S
Sm1 O28 2.681 1_655 S
Sm1 O29 2.464 . S
Sm1 O30 2.396 . S
C2 Sm0 2.846 . S
C2 C3 1.506 . S
C2 O20 1.261 . S
C2 O21 1.242 . S
C3 C2 1.506 . S
C3 C4 1.358 . S
C3 C8 1.382 . S
C4 C3 1.358 . S
C4 C5 1.385 . S
C4 H32 0.930 . S
C5 C4 1.385 . S
C5 C6 1.395 . S
C5 H33 0.929 . S
C6 C5 1.395 . S
C6 C7 1.335 . S
C7 C6 1.335 . S
C7 C8 1.398 . S
C7 H34 0.930 . S
C8 C3 1.382 . S
C8 C7 1.398 . S
C8 H35 0.929 . S
C9 O22 1.271 1_455 S
C9 O23 1.251 . S
C10 O24 1.252 . S
C10 O25 1.272 . S
C11 Sm1 2.846 . S
C11 C12 1.506 . S
C11 O26 1.261 . S
C11 O27 1.242 . S
C12 C11 1.506 . S
C12 C13 1.358 . S
C12 C17 1.382 . S
C13 C12 1.358 . S
C13 C14 1.385 . S
C13 H36 0.930 . S
C14 C13 1.385 . S
C14 C15 1.395 . S
C14 H37 0.929 . S
C15 C14 1.395 . S
C15 C16 1.335 . S
C16 C15 1.335 . S
C16 C17 1.398 . S
C16 H38 0.930 . S
C17 C12 1.382 . S
C17 C16 1.398 . S
C17 H39 0.929 . S
C18 O28 1.271 . S
C18 O29 1.251 1_455 S
C19 O30 1.252 . S
C19 O31 1.272 . S
O20 Sm0 2.543 . S
O20 C2 1.261 . S
O21 Sm0 2.450 . S
O21 C2 1.242 . S
O22 Sm0 2.681 1_655 S
O22 Sm1 2.386 . S
O22 C9 1.271 1_655 S
O23 Sm0 2.464 . S
O23 C9 1.251 . S
O24 Sm0 2.396 . S
O24 C10 1.252 . S
O25 Sm1 2.408 1_455 S
O25 C10 1.272 . S
O26 Sm1 2.543 . S
O26 C11 1.261 . S
O27 Sm1 2.450 . S
O27 C11 1.242 . S
O28 Sm0 2.386 . S
O28 Sm1 2.681 1_455 S
O28 C18 1.271 . S
O29 Sm1 2.464 . S
O29 C18 1.251 1_655 S
O30 Sm1 2.396 . S
O30 C19 1.252 . S
O31 Sm0 2.408 1_655 S
O31 C19 1.272 . S
H32 C4 0.930 . S
H33 C5 0.929 . S
H34 C7 0.930 . S
H35 C8 0.929 . S
H36 C13 0.930 . S
H37 C14 0.929 . S
H38 C16 0.930 . S
H39 C17 0.929 . S
Sm40 C42 2.835 1_545 S
Sm40 O60 2.534 1_545 S
Sm40 O61 2.439 1_545 S
Sm40 O62 2.690 . S
Sm40 O63 2.465 . S
Sm40 O64 2.394 1_545 S
Sm40 O68 2.392 . S
Sm40 O71 2.417 . S
Sm41 C51 2.846 . S
Sm41 O62 2.386 . S
Sm41 O65 2.408 1_545 S
Sm41 O66 2.543 . S
Sm41 O67 2.450 . S
Sm41 O68 2.681 . S
Sm41 O69 2.464 . S
Sm41 O70 2.396 . S
C42 Sm40 2.835 1_565 S
C42 C43 1.506 . S
C42 O60 1.261 . S
C42 O61 1.242 . S
C43 C42 1.506 . S
C43 C44 1.358 . S
C43 C48 1.382 . S
C44 C43 1.358 . S
C44 C45 1.385 . S
C44 H72 0.930 . S
C45 C44 1.385 . S
C45 C46 1.395 . S
C45 H73 0.929 . S
C46 C45 1.395 . S
C46 C47 1.335 . S
C47 C46 1.335 . S
C47 C48 1.398 . S
C47 H74 0.930 . S
C48 C43 1.382 . S
C48 C47 1.398 . S
C48 H75 0.929 . S
C49 O62 1.271 . S
C49 O63 1.251 . S
C50 O64 1.252 . S
C50 O65 1.272 . S
C51 Sm41 2.846 . S
C51 C52 1.506 . S
C51 O66 1.261 . S
C51 O67 1.242 . S
C52 C51 1.506 . S
C52 C53 1.358 . S
C52 C57 1.382 . S
C53 C52 1.358 . S
C53 C54 1.385 . S
C53 H76 0.930 . S
C54 C53 1.385 . S
C54 C55 1.395 . S
C54 H77 0.929 . S
C55 C54 1.395 . S
C55 C56 1.335 . S
C56 C55 1.335 . S
C56 C57 1.398 . S
C56 H78 0.930 . S
C57 C52 1.382 . S
C57 C56 1.398 . S
C57 H79 0.929 . S
C58 O68 1.271 . S
C58 O69 1.251 . S
C59 O70 1.252 . S
C59 O71 1.272 . S
O60 Sm40 2.534 1_565 S
O60 C42 1.261 . S
O61 Sm40 2.439 1_565 S
O61 C42 1.242 . S
O62 Sm40 2.690 . S
O62 Sm41 2.386 . S
O62 C49 1.271 . S
O63 Sm40 2.465 . S
O63 C49 1.251 . S
O64 Sm40 2.394 1_565 S
O64 C50 1.252 . S
O65 Sm41 2.408 1_565 S
O65 C50 1.272 . S
O66 Sm41 2.543 . S
O66 C51 1.261 . S
O67 Sm41 2.450 . S
O67 C51 1.242 . S
O68 Sm40 2.392 . S
O68 Sm41 2.681 . S
O68 C58 1.271 . S
O69 Sm41 2.464 . S
O69 C58 1.251 . S
O70 Sm41 2.396 . S
O70 C59 1.252 . S
O71 Sm40 2.417 . S
O71 C59 1.272 . S
H72 C44 0.930 . S
H73 C45 0.929 . S
H74 C47 0.930 . S
H75 C48 0.929 . S
H76 C53 0.930 . S
H77 C54 0.929 . S
H78 C56 0.930 . S
H79 C57 0.929 . S
Sm80 C82 2.846 . S
Sm80 O100 2.543 . S
Sm80 O101 2.450 . S
Sm80 O102 2.681 . S
Sm80 O103 2.464 . S
Sm80 O104 2.396 . S
Sm80 O108 2.386 . S
Sm80 O111 2.408 . S
Sm81 C91 2.846 . S
Sm81 O102 2.386 . S
Sm81 O105 2.408 . S
Sm81 O106 2.543 . S
Sm81 O107 2.450 . S
Sm81 O108 2.681 . S
Sm81 O109 2.464 . S
Sm81 O110 2.396 . S
C82 Sm80 2.846 . S
C82 C83 1.506 . S
C82 O100 1.261 . S
C82 O101 1.242 . S
C83 C82 1.506 . S
C83 C84 1.358 . S
C83 C88 1.382 . S
C84 C83 1.358 . S
C84 C85 1.385 . S
C84 H112 0.930 . S
C85 C84 1.385 . S
C85 C86 1.395 . S
C85 H113 0.929 . S
C86 C85 1.395 . S
C86 C87 1.335 . S
C87 C86 1.335 . S
C87 C88 1.398 . S
C87 H114 0.930 . S
C88 C83 1.382 . S
C88 C87 1.398 . S
C88 H115 0.929 . S
C89 O102 1.271 . S
C89 O103 1.251 . S
C90 O104 1.252 . S
C90 O105 1.272 . S
C91 Sm81 2.846 . S
C91 C92 1.506 . S
C91 O106 1.261 . S
C91 O107 1.242 . S
C92 C91 1.506 . S
C92 C93 1.358 . S
C92 C97 1.382 . S
C93 C92 1.358 . S
C93 C94 1.385 . S
C93 H116 0.930 . S
C94 C93 1.385 . S
C94 C95 1.395 . S
C94 H117 0.929 . S
C95 C94 1.395 . S
C95 C96 1.335 . S
C96 C95 1.335 . S
C96 C97 1.398 . S
C96 H118 0.930 . S
C97 C92 1.382 . S
C97 C96 1.398 . S
C97 H119 0.929 . S
C98 O108 1.271 . S
C98 O109 1.251 . S
C99 O110 1.252 . S
C99 O111 1.272 . S
O100 Sm80 2.543 . S
O100 C82 1.261 . S
O101 Sm80 2.450 . S
O101 C82 1.242 . S
O102 Sm80 2.681 . S
O102 Sm81 2.386 . S
O102 C89 1.271 . S
O103 Sm80 2.464 . S
O103 C89 1.251 . S
O104 Sm80 2.396 . S
O104 C90 1.252 . S
O105 Sm81 2.408 . S
O105 C90 1.272 . S
O106 Sm81 2.543 . S
O106 C91 1.261 . S
O107 Sm81 2.450 . S
O107 C91 1.242 . S
O108 Sm80 2.386 . S
O108 Sm81 2.681 . S
O108 C98 1.271 . S
O109 Sm81 2.464 . S
O109 C98 1.251 . S
O110 Sm81 2.396 . S
O110 C99 1.252 . S
O111 Sm80 2.408 . S
O111 C99 1.272 . S
H112 C84 0.930 . S
H113 C85 0.929 . S
H114 C87 0.930 . S
H115 C88 0.929 . S
H116 C93 0.930 . S
H117 C94 0.929 . S
H118 C96 0.930 . S
H119 C97 0.929 . S
H120 C127 0.929 . S
H121 C130 0.930 . S
H122 C132 0.929 . S
H123 C124 0.969 . S
C124 H123 0.969 . S
C124 O125 1.550 . S
C124 H126 0.973 . S
O125 C124 1.550 . S
O125 C131 1.412 . S
H126 C124 0.973 . S
C127 H120 0.929 . S
C127 C128 1.400 . S
C127 C129 1.364 . S
C128 C127 1.400 . S
C128 C132 1.377 . S
C129 C127 1.364 . S
C129 C130 1.374 1_545 S
C130 H121 0.930 . S
C130 C129 1.374 1_565 S
C130 C131 1.383 . S
C131 O125 1.412 . S
C131 C130 1.383 . S
C131 C132 1.394 1_565 S
C132 H122 0.929 . S
C132 C128 1.377 . S
C132 C131 1.394 1_545 S
H133 C140 0.929 . S
H134 C143 0.930 . S
H135 C145 0.929 . S
H136 C137 0.969 . S
C137 H136 0.969 . S
C137 O138 1.550 . S
C137 H139 0.973 . S
O138 C137 1.550 . S
O138 C144 1.412 . S
H139 C137 0.973 . S
C140 H133 0.929 . S
C140 C141 1.400 . S
C140 C142 1.364 . S
C141 C140 1.400 . S
C141 C145 1.377 . S
C142 C140 1.364 . S
C142 C143 1.374 . S
C143 H134 0.930 . S
C143 C142 1.374 . S
C143 C144 1.383 . S
C144 O138 1.412 . S
C144 C143 1.383 . S
C144 C145 1.394 . S
C145 H135 0.929 . S
C145 C141 1.377 . S
C145 C144 1.394 . S
H146 C153 0.929 . S
H147 C156 0.930 . S
H148 C158 0.929 . S
H149 C150 0.969 . S
C150 H149 0.969 . S
C150 O151 1.550 . S
C150 H152 0.973 . S
O151 C150 1.550 . S
O151 C157 1.412 . S
H152 C150 0.973 . S
C153 H146 0.929 . S
C153 C154 1.400 . S
C153 C155 1.364 . S
C154 C153 1.400 . S
C154 C158 1.377 . S
C155 C153 1.364 . S
C155 C156 1.374 . S
C156 H147 0.930 . S
C156 C155 1.374 . S
C156 C157 1.383 . S
C157 O151 1.412 . S
C157 C156 1.383 . S
C157 C158 1.394 . S
C158 H148 0.929 . S
C158 C154 1.377 . S
C158 C157 1.394 . S
H159 C166 0.929 . S
H160 C169 0.930 . S
H161 C171 0.929 . S
H162 C163 0.969 . S
C163 H162 0.969 . S
C163 O164 1.550 . S
C163 H165 0.973 . S
O164 C163 1.550 . S
O164 C170 1.412 . S
H165 C163 0.973 . S
C166 H159 0.929 . S
C166 C167 1.400 . S
C166 C168 1.364 1_655 S
C167 C166 1.400 . S
C167 C171 1.377 1_655 S
C168 C166 1.364 1_455 S
C168 C169 1.374 . S
C169 H160 0.930 . S
C169 C168 1.374 . S
C169 C170 1.383 . S
C170 O164 1.412 . S
C170 C169 1.383 . S
C170 C171 1.394 . S
C171 H161 0.929 . S
C171 C167 1.377 1_455 S
C171 C170 1.394 . S
H172 C179 0.929 . S
H173 C182 0.930 . S
H174 C184 0.929 . S
H175 C176 0.969 . S
C176 H175 0.969 . S
C176 O177 1.550 . S
C176 H178 0.973 . S
O177 C176 1.550 . S
O177 C183 1.412 . S
H178 C176 0.973 . S
C179 H172 0.929 . S
C179 C180 1.400 . S
C179 C181 1.364 1_565 S
C180 C179 1.400 . S
C180 C184 1.377 1_565 S
C181 C179 1.364 1_545 S
C181 C182 1.374 . S
C182 H173 0.930 . S
C182 C181 1.374 . S
C182 C183 1.383 . S
C183 O177 1.412 . S
C183 C182 1.383 . S
C183 C184 1.394 . S
C184 H174 0.929 . S
C184 C180 1.377 1_545 S
C184 C183 1.394 . S
H185 C192 0.929 . S
H186 C195 0.930 . S
H187 C197 0.929 . S
H188 C189 0.969 . S
C189 H188 0.969 . S
C189 O190 1.550 . S
C189 H191 0.973 . S
O190 C189 1.550 . S
O190 C196 1.412 . S
H191 C189 0.973 . S
C192 H185 0.929 . S
C192 C193 1.400 . S
C192 C194 1.364 . S
C193 C192 1.400 . S
C193 C197 1.377 . S
C194 C192 1.364 . S
C194 C195 1.374 . S
C195 H186 0.930 . S
C195 C194 1.374 . S
C195 C196 1.383 . S
C196 O190 1.412 . S
C196 C195 1.383 . S
C196 C197 1.394 . S
C197 H187 0.929 . S
C197 C193 1.377 . S
C197 C196 1.394 . S
H198 C204 0.930 . S
H199 C207 0.930 . S
H200 C208 0.930 . S
H201 C209 0.930 . S
H202 C212 0.930 . S
H203 C213 0.930 . S
C204 H198 0.930 . S
C204 C205 1.355 . S
C204 C206 1.415 . S
C205 C204 1.355 . S
C205 C207 1.419 . S
C206 C204 1.415 . S
C206 C211 1.425 . S
C206 C213 1.409 . S
C207 H199 0.930 . S
C207 C205 1.419 . S
C207 C208 1.362 . S
C208 H200 0.930 . S
C208 C207 1.362 . S
C208 C211 1.409 . S
C209 H201 0.930 . S
C209 C210 1.355 . S
C209 C211 1.415 . S
C210 C209 1.355 . S
C210 C212 1.419 . S
C211 C206 1.425 . S
C211 C208 1.409 . S
C211 C209 1.415 . S
C212 H202 0.930 . S
C212 C210 1.419 . S
C212 C213 1.362 . S
C213 H203 0.930 . S
C213 C206 1.409 . S
C213 C212 1.362 . S
H214 C220 0.930 . S
H215 C223 0.930 . S
H216 C224 0.930 . S
H217 C225 0.930 . S
H218 C228 0.930 . S
H219 C229 0.930 . S
C220 H214 0.930 . S
C220 C221 1.355 . S
C220 C222 1.415 . S
C221 C220 1.355 . S
C221 C223 1.419 . S
C222 C220 1.415 . S
C222 C227 1.425 . S
C222 C229 1.409 . S
C223 H215 0.930 . S
C223 C221 1.419 . S
C223 C224 1.362 . S
C224 H216 0.930 . S
C224 C223 1.362 . S
C224 C227 1.409 . S
C225 H217 0.930 . S
C225 C226 1.355 . S
C225 C227 1.415 . S
C226 C225 1.355 . S
C226 C228 1.419 . S
C227 C222 1.425 . S
C227 C224 1.409 . S
C227 C225 1.415 . S
C228 H218 0.930 . S
C228 C226 1.419 . S
C228 C229 1.362 . S
C229 H219 0.930 . S
C229 C222 1.409 . S
C229 C228 1.362 . S
H230 C236 0.930 . S
H231 C239 0.930 . S
H232 C240 0.930 . S
H233 C241 0.930 . S
H234 C244 0.930 1_545 S
H235 C245 0.930 . S
C236 H230 0.930 . S
C236 C237 1.355 . S
C236 C238 1.415 . S
C237 C236 1.355 . S
C237 C239 1.419 . S
C238 C236 1.415 . S
C238 C243 1.425 . S
C238 C245 1.409 . S
C239 H231 0.930 . S
C239 C237 1.419 . S
C239 C240 1.362 . S
C240 H232 0.930 . S
C240 C239 1.362 . S
C240 C243 1.409 . S
C241 H233 0.930 . S
C241 C242 1.355 . S
C241 C243 1.415 . S
C242 C241 1.355 . S
C242 C244 1.419 . S
C243 C238 1.425 . S
C243 C240 1.409 . S
C243 C241 1.415 . S
C244 H234 0.930 1_565 S
C244 C242 1.419 . S
C244 C245 1.362 . S
C245 H235 0.930 . S
C245 C238 1.409 . S
C245 C244 1.362 . S
H246 C252 0.930 . S
H247 C255 0.930 . S
H248 C256 0.930 . S
H249 C257 0.930 . S
H250 C260 0.930 . S
H251 C261 0.930 . S
C252 H246 0.930 . S
C252 C253 1.355 . S
C252 C254 1.415 . S
C253 C252 1.355 . S
C253 C255 1.419 . S
C254 C252 1.415 . S
C254 C259 1.425 . S
C254 C261 1.409 . S
C255 H247 0.930 . S
C255 C253 1.419 . S
C255 C256 1.362 . S
C256 H248 0.930 . S
C256 C255 1.362 . S
C256 C259 1.409 . S
C257 H249 0.930 . S
C257 C258 1.355 . S
C257 C259 1.415 . S
C258 C257 1.355 . S
C258 C260 1.419 . S
C259 C254 1.425 . S
C259 C256 1.409 . S
C259 C257 1.415 . S
C260 H250 0.930 . S
C260 C258 1.419 . S
C260 C261 1.362 . S
C261 H251 0.930 . S
C261 C254 1.409 . S
C261 C260 1.362 . S
H262 C268 0.930 . S
H263 C271 0.930 . S
H264 C272 0.930 . S
H265 C273 0.930 . S
H266 C276 0.930 . S
H267 C277 0.930 . S
C268 H262 0.930 . S
C268 C269 1.355 . S
C268 C270 1.415 . S
C269 C268 1.355 . S
C269 C271 1.419 . S
C270 C268 1.415 . S
C270 C275 1.425 . S
C270 C277 1.409 . S
C271 H263 0.930 . S
C271 C269 1.419 . S
C271 C272 1.362 . S
C272 H264 0.930 . S
C272 C271 1.362 . S
C272 C275 1.409 . S
C273 H265 0.930 . S
C273 C274 1.355 . S
C273 C275 1.415 . S
C274 C273 1.355 . S
C274 C276 1.419 . S
C275 C270 1.425 . S
C275 C272 1.409 . S
C275 C273 1.415 . S
C276 H266 0.930 . S
C276 C274 1.419 . S
C276 C277 1.362 . S
C277 H267 0.930 . S
C277 C270 1.409 . S
C277 C276 1.362 . S
H278 C284 0.930 . S
H279 C287 0.930 . S
H280 C288 0.930 . S
H281 C289 0.930 . S
H282 C292 0.930 . S
H283 C293 0.930 . S
C284 H278 0.930 . S
C284 C285 1.355 . S
C284 C286 1.415 . S
C285 C284 1.355 . S
C285 C287 1.419 . S
C286 C284 1.415 . S
C286 C291 1.425 . S
C286 C293 1.409 . S
C287 H279 0.930 . S
C287 C285 1.419 . S
C287 C288 1.362 . S
C288 H280 0.930 . S
C288 C287 1.362 . S
C288 C291 1.409 . S
C289 H281 0.930 . S
C289 C290 1.355 . S
C289 C291 1.415 . S
C290 C289 1.355 . S
C290 C292 1.419 . S
C291 C286 1.425 . S
C291 C288 1.409 . S
C291 C289 1.415 . S
C292 H282 0.930 . S
C292 C290 1.419 . S
C292 C293 1.362 . S
C293 H283 0.930 . S
C293 C286 1.409 . S
C293 C292 1.362 . S
H294 C300 0.930 . S
H295 C303 0.930 . S
H296 C304 0.930 . S
H297 C305 0.930 . S
H298 C308 0.930 . S
H299 C309 0.930 . S
C300 H294 0.930 . S
C300 C301 1.355 . S
C300 C302 1.415 . S
C301 C300 1.355 . S
C301 C303 1.419 . S
C302 C300 1.415 . S
C302 C307 1.425 . S
C302 C309 1.409 . S
C303 H295 0.930 . S
C303 C301 1.419 . S
C303 C304 1.362 . S
C304 H296 0.930 . S
C304 C303 1.362 . S
C304 C307 1.409 . S
C305 H297 0.930 . S
C305 C306 1.355 . S
C305 C307 1.415 . S
C306 C305 1.355 . S
C306 C308 1.419 . S
C307 C302 1.425 . S
C307 C304 1.409 . S
C307 C305 1.415 . S
C308 H298 0.930 . S
C308 C306 1.419 . S
C308 C309 1.362 . S
C309 H299 0.930 . S
C309 C302 1.409 . S
C309 C308 1.362 . S
H310 C316 0.930 . S
H311 C319 0.930 . S
H312 C320 0.930 . S
H313 C321 0.930 . S
H314 C324 0.930 1_455 S
H315 C325 0.930 . S
C316 H310 0.930 . S
C316 C317 1.355 . S
C316 C318 1.415 . S
C317 C316 1.355 . S
C317 C319 1.419 . S
C318 C316 1.415 . S
C318 C323 1.425 . S
C318 C325 1.409 . S
C319 H311 0.930 . S
C319 C317 1.419 . S
C319 C320 1.362 . S
C320 H312 0.930 . S
C320 C319 1.362 . S
C320 C323 1.409 . S
C321 H313 0.930 . S
C321 C322 1.355 . S
C321 C323 1.415 . S
C322 C321 1.355 . S
C322 C324 1.419 . S
C323 C318 1.425 . S
C323 C320 1.409 . S
C323 C321 1.415 . S
C324 H314 0.930 1_655 S
C324 C322 1.419 . S
C324 C325 1.362 . S
C325 H315 0.930 . S
C325 C318 1.409 . S
C325 C324 1.362 . S
H326 C332 0.930 . S
H327 C335 0.930 . S
H328 C336 0.930 . S
H329 C337 0.930 . S
H330 C340 0.930 . S
H331 C341 0.930 . S
C332 H326 0.930 . S
C332 C333 1.355 . S
C332 C334 1.415 . S
C333 C332 1.355 . S
C333 C335 1.419 . S
C334 C332 1.415 . S
C334 C339 1.425 . S
C334 C341 1.409 . S
C335 H327 0.930 . S
C335 C333 1.419 . S
C335 C336 1.362 . S
C336 H328 0.930 . S
C336 C335 1.362 . S
C336 C339 1.409 . S
C337 H329 0.930 . S
C337 C338 1.355 . S
C337 C339 1.415 . S
C338 C337 1.355 . S
C338 C340 1.419 . S
C339 C334 1.425 . S
C339 C336 1.409 . S
C339 C337 1.415 . S
C340 H330 0.930 . S
C340 C338 1.419 . S
C340 C341 1.362 . S
C341 H331 0.930 . S
C341 C334 1.409 . S
C341 C340 1.362 . S
H342 C348 0.930 . S
H343 C351 0.930 . S
H344 C352 0.930 . S
H345 C353 0.930 . S
H346 C356 0.930 . S
H347 C357 0.930 . S
C348 H342 0.930 . S
C348 C349 1.355 . S
C348 C350 1.415 . S
C349 C348 1.355 . S
C349 C351 1.419 . S
C350 C348 1.415 . S
C350 C355 1.425 . S
C350 C357 1.409 . S
C351 H343 0.930 . S
C351 C349 1.419 . S
C351 C352 1.362 . S
C352 H344 0.930 . S
C352 C351 1.362 . S
C352 C355 1.409 . S
C353 H345 0.930 . S
C353 C354 1.355 . S
C353 C355 1.415 . S
C354 C353 1.355 . S
C354 C356 1.419 . S
C355 C350 1.425 . S
C355 C352 1.409 . S
C355 C353 1.415 . S
C356 H346 0.930 . S
C356 C354 1.419 . S
C356 C357 1.362 . S
C357 H347 0.930 . S
C357 C350 1.409 . S
C357 C356 1.362 . S
H358 C364 0.930 . S
H359 C367 0.930 . S
H360 C368 0.930 . S
H361 C369 0.930 . S
H362 C372 0.930 . S
H363 C373 0.930 . S
C364 H358 0.930 . S
C364 C365 1.355 . S
C364 C366 1.415 . S
C365 C364 1.355 . S
C365 C367 1.419 . S
C366 C364 1.415 . S
C366 C371 1.425 . S
C366 C373 1.409 . S
C367 H359 0.930 . S
C367 C365 1.419 . S
C367 C368 1.362 . S
C368 H360 0.930 . S
C368 C367 1.362 . S
C368 C371 1.409 . S
C369 H361 0.930 . S
C369 C370 1.355 . S
C369 C371 1.415 . S
C370 C369 1.355 . S
C370 C372 1.419 . S
C371 C366 1.425 . S
C371 C368 1.409 . S
C371 C369 1.415 . S
C372 H362 0.930 . S
C372 C370 1.419 . S
C372 C373 1.362 . S
C373 H363 0.930 . S
C373 C366 1.409 . S
C373 C372 1.362 . S
H374 C380 0.930 . S
H375 C383 0.930 . S
H376 C384 0.930 . S
H377 C385 0.930 . S
H378 C388 0.930 . S
H379 C389 0.930 . S
C380 H374 0.930 . S
C380 C381 1.355 . S
C380 C382 1.415 . S
C381 C380 1.355 . S
C381 C383 1.419 . S
C382 C380 1.415 . S
C382 C387 1.425 . S
C382 C389 1.409 . S
C383 H375 0.930 . S
C383 C381 1.419 . S
C383 C384 1.362 . S
C384 H376 0.930 . S
C384 C383 1.362 . S
C384 C387 1.409 . S
C385 H377 0.930 . S
C385 C386 1.355 . S
C385 C387 1.415 . S
C386 C385 1.355 . S
C386 C388 1.419 . S
C387 C382 1.425 . S
C387 C384 1.409 . S
C387 C385 1.415 . S
C388 H378 0.930 . S
C388 C386 1.419 . S
C388 C389 1.362 . S
C389 H379 0.930 . S
C389 C382 1.409 . S
C389 C388 1.362 . S
H390 C396 0.930 . S
H391 C399 0.930 . S
H392 C400 0.930 . S
H393 C401 0.930 1_655 S
H394 C404 0.930 . S
H395 C405 0.930 . S
C396 H390 0.930 . S
C396 C397 1.355 . S
C396 C398 1.415 . S
C397 C396 1.355 . S
C397 C399 1.419 1_455 S
C398 C396 1.415 . S
C398 C403 1.425 . S
C398 C405 1.409 . S
C399 H391 0.930 . S
C399 C397 1.419 1_655 S
C399 C400 1.362 . S
C400 H392 0.930 . S
C400 C399 1.362 . S
C400 C403 1.409 1_655 S
C401 H393 0.930 1_455 S
C401 C402 1.355 . S
C401 C403 1.415 1_556 S
C402 C401 1.355 . S
C402 C404 1.419 . S
C403 C398 1.425 . S
C403 C400 1.409 1_455 S
C403 C401 1.415 1_554 S
C404 H394 0.930 . S
C404 C402 1.419 . S
C404 C405 1.362 1_556 S
C405 H395 0.930 . S
C405 C398 1.409 . S
C405 C404 1.362 1_554 S
H406 C412 0.930 1_565 S
H407 C415 0.930 . S
H408 C416 0.930 . S
H409 C417 0.930 . S
H410 C420 0.930 . S
H411 C421 0.930 . S
C412 H406 0.930 1_545 S
C412 C413 1.355 . S
C412 C414 1.415 . S
C413 C412 1.355 . S
C413 C415 1.419 . S
C414 C412 1.415 . S
C414 C419 1.425 . S
C414 C421 1.409 1_545 S
C415 H407 0.930 . S
C415 C413 1.419 . S
C415 C416 1.362 . S
C416 H408 0.930 . S
C416 C415 1.362 . S
C416 C419 1.409 . S
C417 H409 0.930 . S
C417 C418 1.355 . S
C417 C419 1.415 . S
C418 C417 1.355 . S
C418 C420 1.419 1_545 S
C419 C414 1.425 . S
C419 C416 1.409 . S
C419 C417 1.415 . S
C420 H410 0.930 . S
C420 C418 1.419 1_565 S
C420 C421 1.362 . S
C421 H411 0.930 . S
C421 C414 1.409 1_565 S
C421 C420 1.362 . S
H422 C428 0.930 . S
H423 C431 0.930 . S
H424 C432 0.930 . S
H425 C433 0.930 . S
H426 C436 0.930 . S
H427 C437 0.930 . S
C428 H422 0.930 . S
C428 C429 1.355 . S
C428 C430 1.415 . S
C429 C428 1.355 . S
C429 C431 1.419 . S
C430 C428 1.415 . S
C430 C435 1.425 . S
C430 C437 1.409 . S
C431 H423 0.930 . S
C431 C429 1.419 . S
C431 C432 1.362 . S
C432 H424 0.930 . S
C432 C431 1.362 . S
C432 C435 1.409 . S
C433 H425 0.930 . S
C433 C434 1.355 . S
C433 C435 1.415 . S
C434 C433 1.355 . S
C434 C436 1.419 . S
C435 C430 1.425 . S
C435 C432 1.409 . S
C435 C433 1.415 . S
C436 H426 0.930 . S
C436 C434 1.419 . S
C436 C437 1.362 . S
C437 H427 0.930 . S
C437 C430 1.409 . S
C437 C436 1.362 . S
H438 C444 0.930 . S
H439 C447 0.930 . S
H440 C448 0.930 . S
H441 C449 0.930 . S
H442 C452 0.930 . S
H443 C453 0.930 . S
C444 H438 0.930 . S
C444 C445 1.355 1_565 S
C444 C446 1.415 . S
C445 C444 1.355 1_545 S
C445 C447 1.419 . S
C446 C444 1.415 . S
C446 C451 1.425 1_565 S
C446 C453 1.409 . S
C447 H439 0.930 . S
C447 C445 1.419 . S
C447 C448 1.362 . S
C448 H440 0.930 . S
C448 C447 1.362 . S
C448 C451 1.409 . S
C449 H441 0.930 . S
C449 C450 1.355 . S
C449 C451 1.415 . S
C450 C449 1.355 . S
C450 C452 1.419 1_545 S
C451 C446 1.425 1_545 S
C451 C448 1.409 . S
C451 C449 1.415 . S
C452 H442 0.930 . S
C452 C450 1.419 1_565 S
C452 C453 1.362 . S
C453 H443 0.930 . S
C453 C446 1.409 . S
C453 C452 1.362 . S
H454 C460 0.930 . S
H455 C463 0.930 . S
H456 C464 0.930 . S
H457 C465 0.930 . S
H458 C468 0.930 . S
H459 C469 0.930 . S
C460 H454 0.930 . S
C460 C461 1.355 . S
C460 C462 1.415 . S
C461 C460 1.355 . S
C461 C463 1.419 . S
C462 C460 1.415 . S
C462 C467 1.425 . S
C462 C469 1.409 1_556 S
C463 H455 0.930 . S
C463 C461 1.419 . S
C463 C464 1.362 . S
C464 H456 0.930 . S
C464 C463 1.362 . S
C464 C467 1.409 . S
C465 H457 0.930 . S
C465 C466 1.355 . S
C465 C467 1.415 1_554 S
C466 C465 1.355 . S
C466 C468 1.419 . S
C467 C462 1.425 . S
C467 C464 1.409 . S
C467 C465 1.415 1_556 S
C468 H458 0.930 . S
C468 C466 1.419 . S
C468 C469 1.362 . S
C469 H459 0.930 . S
C469 C462 1.409 1_554 S
C469 C468 1.362 . S
H470 C476 0.930 . S
H471 C479 0.930 . S
H472 C480 0.930 . S
H473 C481 0.930 . S
H474 C484 0.930 . S
H475 C485 0.930 . S
C476 H470 0.930 . S
C476 C477 1.355 1_655 S
C476 C478 1.415 . S
C477 C476 1.355 1_455 S
C477 C479 1.419 . S
C478 C476 1.415 . S
C478 C483 1.425 1_655 S
C478 C485 1.409 . S
C479 H471 0.930 . S
C479 C477 1.419 . S
C479 C480 1.362 . S
C480 H472 0.930 . S
C480 C479 1.362 . S
C480 C483 1.409 . S
C481 H473 0.930 . S
C481 C482 1.355 . S
C481 C483 1.415 . S
C482 C481 1.355 . S
C482 C484 1.419 1_455 S
C483 C478 1.425 1_455 S
C483 C480 1.409 . S
C483 C481 1.415 . S
C484 H474 0.930 . S
C484 C482 1.419 1_655 S
C484 C485 1.362 . S
C485 H475 0.930 . S
C485 C478 1.409 . S
C485 C484 1.362 . S
C205 C6 0.791 . S
C210 C189 0.819 . S
C221 C59 1.845 . S
C226 C167 1.825 . S
C237 C86 1.207 . S
C242 C180 1.229 . S
C253 C15 0.632 . S
C258 C193 0.413 . S
C274 C163 1.828 . S
C269 C50 2.028 . S
C290 C176 1.329 . S
C285 C95 1.326 . S
C301 C46 1.100 . S
C306 C141 1.123 . S
C317 C99 3.039 . S
C322 C154 2.999 1_655 S
C333 C10 2.003 . S
C338 C124 1.912 . S
C354 C137 1.340 . S
C349 C55 1.375 . S
C370 C150 2.919 . S
C365 C90 3.060 . S
C381 C19 1.861 . S
C386 C128 1.831 . S
C402 C155 1.761 . S
C397 C18 1.701 . S
C413 C49 1.424 . S
C418 C129 1.485 . S
C429 C98 1.451 . S
C434 C142 1.583 . S
C450 C181 1.522 . S
C445 C58 1.417 . S
C466 C194 1.290 . S
C461 C89 1.310 . S
C477 C9 1.378 . S
C482 C168 1.458 . S
