# Generated by pormake.
# Topology apo, (3,6)-cn, num edge types: 1
# Building blocks:
#     Node 0, Type 0, BuildingBlock: QEWDON_clean_linker_0, # of connection points: 3
#     Node 1, Type 0, BuildingBlock: QEWDON_clean_linker_0, # of connection points: 3
#     Node 2, Type 0, BuildingBlock: QEWDON_clean_linker_0, # of connection points: 3
#     Node 3, Type 0, BuildingBlock: QEWDON_clean_linker_0, # of connection points: 3
#     Node 4, Type 0, BuildingBlock: QEWDON_clean_linker_0, # of connection points: 3
#     Node 5, Type 0, BuildingBlock: QEWDON_clean_linker_0, # of connection points: 3
#     Node 6, Type 0, BuildingBlock: QEWDON_clean_linker_0, # of connection points: 3
#     Node 7, Type 0, BuildingBlock: QEWDON_clean_linker_0, # of connection points: 3
#     Node 8, Type 1, BuildingBlock: KUMBOL_clean_sbu_1, # of connection points: 6
#     Node 9, Type 1, BuildingBlock: KUMBOL_clean_sbu_1, # of connection points: 6
#     Node 10, Type 1, BuildingBlock: KUMBOL_clean_sbu_1, # of connection points: 6
#     Node 11, Type 1, BuildingBlock: KUMBOL_clean_sbu_1, # of connection points: 6
#     Edge 12, Type (0, 1), BuildingBlock: MIFKUJ_clean_linker_0, # of connection points: 2
#     Edge 13, Type (0, 1), BuildingBlock: MIFKUJ_clean_linker_0, # of connection points: 2
#     Edge 14, Type (0, 1), BuildingBlock: MIFKUJ_clean_linker_0, # of connection points: 2
#     Edge 15, Type (0, 1), BuildingBlock: MIFKUJ_clean_linker_0, # of connection points: 2
#     Edge 16, Type (0, 1), BuildingBlock: MIFKUJ_clean_linker_0, # of connection points: 2
#     Edge 17, Type (0, 1), BuildingBlock: MIFKUJ_clean_linker_0, # of connection points: 2
#     Edge 18, Type (0, 1), BuildingBlock: MIFKUJ_clean_linker_0, # of connection points: 2
#     Edge 19, Type (0, 1), BuildingBlock: MIFKUJ_clean_linker_0, # of connection points: 2
#     Edge 20, Type (0, 1), BuildingBlock: MIFKUJ_clean_linker_0, # of connection points: 2
#     Edge 21, Type (0, 1), BuildingBlock: MIFKUJ_clean_linker_0, # of connection points: 2
#     Edge 22, Type (0, 1), BuildingBlock: MIFKUJ_clean_linker_0, # of connection points: 2
#     Edge 23, Type (0, 1), BuildingBlock: MIFKUJ_clean_linker_0, # of connection points: 2
#     Edge 24, Type (0, 1), BuildingBlock: MIFKUJ_clean_linker_0, # of connection points: 2
#     Edge 25, Type (0, 1), BuildingBlock: MIFKUJ_clean_linker_0, # of connection points: 2
#     Edge 26, Type (0, 1), BuildingBlock: MIFKUJ_clean_linker_0, # of connection points: 2
#     Edge 27, Type (0, 1), BuildingBlock: MIFKUJ_clean_linker_0, # of connection points: 2
#     Edge 28, Type (0, 1), BuildingBlock: MIFKUJ_clean_linker_0, # of connection points: 2
#     Edge 29, Type (0, 1), BuildingBlock: MIFKUJ_clean_linker_0, # of connection points: 2
#     Edge 30, Type (0, 1), BuildingBlock: MIFKUJ_clean_linker_0, # of connection points: 2
#     Edge 31, Type (0, 1), BuildingBlock: MIFKUJ_clean_linker_0, # of connection points: 2
#     Edge 32, Type (0, 1), BuildingBlock: MIFKUJ_clean_linker_0, # of connection points: 2
#     Edge 33, Type (0, 1), BuildingBlock: MIFKUJ_clean_linker_0, # of connection points: 2
#     Edge 34, Type (0, 1), BuildingBlock: MIFKUJ_clean_linker_0, # of connection points: 2
#     Edge 35, Type (0, 1), BuildingBlock: MIFKUJ_clean_linker_0, # of connection points: 2
# Relax obj value: 0.074
# Max RMSD: 0.251
# Mean RMSD: 0.202
data_MOF--net-apo--node1-KUMBOL_clean_sbu_1--node2-QEWDON_clean_linker_0--edge1-MIFKUJ_clean_linker_0
_symmetry_space_group_name_H-M    P1
_symmetry_Int_Tables_number       1
_symmetry_cell_setting            triclinic
loop_
_symmetry_equiv_pos_as_xyz
'x, y, z'
_cell_length_a     38.144243
_cell_length_b     55.937585
_cell_length_c     64.876048
_cell_angle_alpha  89.929567
_cell_angle_beta   89.908926
_cell_angle_gamma 90.312436
loop_
_atom_site_label
_atom_site_type_symbol
_atom_site_fract_x
_atom_site_fract_y
_atom_site_fract_z
_atom_type_partial_charge
H0 H 0.27632 0.38679 0.38867 0.0
C1 C 0.28871 0.38628 0.40368 0.0
C2 C 0.3192 0.39995 0.40735 0.0
C3 C 0.27327 0.37284 0.41965 0.0
H4 H 0.35631 0.4115 0.43032 0.0
C5 C 0.33409 0.39992 0.42719 0.0
C6 C 0.3192 0.38649 0.44334 0.0
C7 C 0.28913 0.37267 0.43923 0.0
C8 C 0.23831 0.36139 0.41699 0.0
H9 H 0.27736 0.36209 0.45143 0.0
C10 C 0.23085 0.34562 0.40054 0.0
C11 C 0.19725 0.33498 0.39878 0.0
C12 C 0.21185 0.36654 0.4314 0.0
H13 H 0.21671 0.37881 0.444 0.0
C14 C 0.17879 0.35613 0.4297 0.0
H15 H 0.25104 0.34157 0.38933 0.0
C16 C 0.17154 0.34043 0.41363 0.0
H17 H 0.14578 0.33221 0.41305 0.0
H18 H 0.15872 0.36016 0.44097 0.0
H19 H 0.23262 0.13537 0.89179 0.0
C20 C 0.21972 0.13516 0.90669 0.0
C21 C 0.18936 0.1211 0.90972 0.0
C22 C 0.2343 0.14819 0.92313 0.0
H23 H 0.15032 0.10962 0.93175 0.0
C24 C 0.17344 0.12061 0.92931 0.0
C25 C 0.18784 0.13337 0.94597 0.0
C26 C 0.21816 0.14721 0.94261 0.0
C27 C 0.26845 0.1608 0.92095 0.0
H28 H 0.23018 0.15661 0.9554 0.0
C29 C 0.27344 0.17965 0.90672 0.0
C30 C 0.30524 0.19269 0.90659 0.0
C31 C 0.29596 0.15457 0.93427 0.0
H32 H 0.29281 0.14005 0.94521 0.0
C33 C 0.32766 0.16703 0.93374 0.0
H34 H 0.2523 0.18477 0.89651 0.0
C35 C 0.33222 0.18608 0.92014 0.0
H36 H 0.35698 0.19567 0.92014 0.0
H37 H 0.34864 0.16208 0.94408 0.0
H38 H 0.77627 0.13781 0.63603 0.0
C39 C 0.78962 0.13999 0.62138 0.0
C40 C 0.82066 0.12735 0.61737 0.0
C41 C 0.77495 0.15469 0.60619 0.0
H42 H 0.85988 0.11897 0.59461 0.0
C43 C 0.83696 0.12964 0.59796 0.0
C44 C 0.82252 0.1443 0.58251 0.0
C45 C 0.79177 0.15707 0.58705 0.0
C46 C 0.73987 0.16533 0.60905 0.0
H47 H 0.78026 0.16869 0.57556 0.0
C48 C 0.73361 0.18317 0.62392 0.0
C49 C 0.70048 0.1942 0.62507 0.0
C50 C 0.71258 0.15809 0.59592 0.0
H51 H 0.71689 0.14437 0.58443 0.0
C52 C 0.67958 0.16847 0.59745 0.0
H53 H 0.75473 0.18907 0.63388 0.0
C54 C 0.67356 0.18647 0.61183 0.0
H55 H 0.64772 0.19436 0.61262 0.0
H56 H 0.65867 0.1627 0.58731 0.0
H57 H 0.74844 0.38791 0.13189 0.0
C58 C 0.73535 0.38649 0.11712 0.0
C59 C 0.70435 0.39937 0.11345 0.0
C60 C 0.75043 0.37257 0.10149 0.0
H61 H 0.665 0.40814 0.09082 0.0
C62 C 0.68812 0.3976 0.09401 0.0
C63 C 0.70269 0.38353 0.07825 0.0
C64 C 0.73383 0.37103 0.08222 0.0
C65 C 0.78547 0.36175 0.10435 0.0
H66 H 0.74549 0.36014 0.07025 0.0
C67 C 0.79251 0.34593 0.12076 0.0
C68 C 0.82634 0.33625 0.12318 0.0
C69 C 0.81242 0.3677 0.09045 0.0
H70 H 0.80765 0.37992 0.07779 0.0
C71 C 0.84588 0.35828 0.09289 0.0
H72 H 0.77183 0.34117 0.13151 0.0
C73 C 0.85287 0.3427 0.10912 0.0
H74 H 0.87897 0.33533 0.11048 0.0
H75 H 0.86648 0.36302 0.08211 0.0
H76 H 0.69577 0.65118 0.63954 0.0
C77 C 0.69322 0.64629 0.62345 0.0
C78 C 0.68334 0.62278 0.61809 0.0
C79 C 0.69793 0.66384 0.60814 0.0
H80 H 0.66991 0.59918 0.59297 0.0
C81 C 0.679 0.61692 0.59715 0.0
C82 C 0.68348 0.63423 0.58167 0.0
C83 C 0.6933 0.65755 0.58732 0.0
C84 C 0.70323 0.68938 0.61373 0.0
H85 H 0.69667 0.67105 0.57547 0.0
C86 C 0.72971 0.69685 0.62757 0.0
C87 C 0.73361 0.72133 0.63254 0.0
C88 C 0.68088 0.70658 0.60507 0.0
H89 H 0.66009 0.70133 0.59462 0.0
C90 C 0.68472 0.73067 0.60993 0.0
H91 H 0.7471 0.68378 0.63435 0.0
C92 C 0.71085 0.73803 0.62349 0.0
H93 H 0.71356 0.75695 0.62671 0.0
H94 H 0.66739 0.74373 0.6031 0.0
H95 H 0.82454 0.86594 0.13977 0.0
C96 C 0.82905 0.87015 0.12367 0.0
C97 C 0.84163 0.89298 0.11792 0.0
C98 C 0.82363 0.85237 0.10869 0.0
H99 H 0.86022 0.9146 0.09257 0.0
C100 C 0.84849 0.89767 0.09695 0.0
C101 C 0.84236 0.88031 0.08173 0.0
C102 C 0.82946 0.85782 0.08781 0.0
C103 C 0.81589 0.82723 0.1146 0.0
H104 H 0.82446 0.84418 0.07633 0.0
C105 C 0.78679 0.82094 0.12698 0.0
C106 C 0.77968 0.79667 0.13127 0.0
C107 C 0.83793 0.8091 0.10712 0.0
H108 H 0.86062 0.81348 0.09775 0.0
C109 C 0.83108 0.78518 0.11165 0.0
H110 H 0.76945 0.83467 0.13278 0.0
C111 C 0.80205 0.77897 0.12357 0.0
H112 H 0.79695 0.76025 0.12679 0.0
H113 H 0.84823 0.7714 0.10579 0.0
H114 H 0.19976 0.86263 0.37908 0.0
C115 C 0.19405 0.86627 0.39514 0.0
C116 C 0.1815 0.88895 0.40105 0.0
C117 C 0.19802 0.84798 0.40987 0.0
H118 H 0.16196 0.90994 0.4266 0.0
C119 C 0.17299 0.89298 0.42189 0.0
C120 C 0.17768 0.87509 0.43672 0.0
C121 C 0.19062 0.85282 0.43068 0.0
C122 C 0.2068 0.82315 0.40369 0.0
H123 H 0.1936 0.83886 0.44215 0.0
C124 C 0.23558 0.81805 0.39076 0.0
C125 C 0.24451 0.79413 0.38656 0.0
C126 C 0.18645 0.80412 0.41152 0.0
H127 H 0.16382 0.80751 0.42118 0.0
C128 C 0.195 0.78051 0.40705 0.0
H129 H 0.25162 0.83247 0.38465 0.0
C130 C 0.22403 0.77551 0.3948 0.0
H131 H 0.23046 0.75702 0.39163 0.0
H132 H 0.17922 0.76604 0.41322 0.0
H133 H 0.3168 0.6565 0.88324 0.0
C134 C 0.31945 0.65214 0.89944 0.0
C135 C 0.33187 0.62944 0.90536 0.0
C136 C 0.3133 0.66986 0.91437 0.0
H137 H 0.34647 0.60709 0.93113 0.0
C138 C 0.33698 0.6245 0.92643 0.0
C139 C 0.33027 0.64186 0.94151 0.0
C140 C 0.31813 0.66436 0.93533 0.0
C141 C 0.30657 0.69506 0.90838 0.0
H142 H 0.31405 0.67813 0.94683 0.0
C143 C 0.27803 0.70159 0.89576 0.0
C144 C 0.27111 0.72598 0.89194 0.0
C145 C 0.32873 0.71303 0.91625 0.0
H146 H 0.35107 0.70846 0.92574 0.0
C147 C 0.32235 0.73702 0.91206 0.0
H148 H 0.26063 0.68795 0.88968 0.0
C149 C 0.29361 0.7435 0.90015 0.0
H150 H 0.28898 0.7623 0.89725 0.0
H151 H 0.33958 0.75067 0.91824 0.0
C152 C 0.89359 0.09925 0.27611 0.0
C153 C 0.88754 0.05781 0.28694 0.0
C154 C 0.90809 0.07862 0.28443 0.0
C155 C 0.85244 0.05783 0.28056 0.0
C156 C 0.85811 0.09934 0.26997 0.0
C157 C 0.83788 0.0784 0.27184 0.0
N158 N 0.91328 0.11962 0.27549 0.0
C159 C 0.89805 0.14097 0.27066 0.0
C160 C 0.84344 0.1208 0.26314 0.0
C161 C 0.86336 0.14177 0.2638 0.0
Gd162 Gd 0.04074 0.11498 0.2401 0.0
Gd163 Gd 0.97141 0.11568 0.28716 0.0
N164 N 0.9419 0.07924 0.29097 0.0
C165 C 0.90252 0.03786 0.29651 0.0
C166 C 0.95606 0.0604 0.3014 0.0
C167 C 0.93682 0.03925 0.30395 0.0
H168 H 0.98233 0.06168 0.3075 0.0
H169 H 0.94833 0.02414 0.31181 0.0
H170 H 0.01039 0.1604 0.21025 0.0
H171 H 0.91212 0.1576 0.27251 0.0
H172 H 0.02339 0.20294 0.20505 0.0
H173 H 0.88755 0.02152 0.29866 0.0
H174 H 0.83602 0.04225 0.28293 0.0
H175 H 0.11141 0.09081 0.26116 0.0
H176 H 0.81632 0.12158 0.25826 0.0
H177 H 0.85174 0.15868 0.25954 0.0
H178 H 0.13607 0.21398 0.23655 0.0
H179 H 0.81054 0.0782 0.26732 0.0
H180 H 0.19048 0.1452 0.26679 0.0
H181 H 0.17114 0.10325 0.27183 0.0
N182 N 0.09745 0.1254 0.25058 0.0
C183 C 0.10811 0.14815 0.2467 0.0
C184 C 0.11982 0.10911 0.25894 0.0
C185 C 0.16444 0.13978 0.26199 0.0
C186 C 0.15358 0.11609 0.26491 0.0
C187 C 0.14167 0.15614 0.2527 0.0
H188 H 0.17684 0.18667 0.254 0.0
N189 N 0.0538 0.15462 0.2302 0.0
C190 C 0.08521 0.1634 0.23671 0.0
C191 C 0.07214 0.20185 0.22168 0.0
C192 C 0.09521 0.18727 0.23267 0.0
C193 C 0.03303 0.16808 0.21767 0.0
C194 C 0.04108 0.19209 0.21398 0.0
O195 O 0.97371 0.08375 0.2655 0.0
O196 O 0.98566 0.10159 0.23466 0.0
O197 O 0.05938 0.11547 0.20804 0.0
O198 O 0.06109 0.08263 0.22639 0.0
O199 O 0.02263 0.09672 0.29337 0.0
O200 O 0.04277 0.08305 0.26162 0.0
O201 O 0.05553 0.12979 0.27161 0.0
O202 O 1.00516 0.14818 0.28156 0.0
O203 O 0.98934 0.1185 0.31899 0.0
O204 O 0.93552 0.12592 0.31142 0.0
O205 O 0.98727 0.13132 0.23392 0.0
O206 O 0.97125 0.14749 0.26527 0.0
C207 C 0.97092 0.08436 0.24535 0.0
C208 C 0.04087 0.08176 0.28192 0.0
C209 C 0.08346 0.0797 0.19141 0.0
C210 C 0.09995 0.07646 0.15498 0.0
C211 C 0.11262 0.04405 0.17888 0.0
C212 C 0.09741 0.05687 0.19493 0.0
C213 C 0.11399 0.05373 0.1591 0.0
C214 C 0.08489 0.0895 0.17137 0.0
C215 C 0.06774 0.09296 0.20882 0.0
C216 C 0.12809 0.19564 0.23936 0.0
C217 C 0.15134 0.18008 0.24925 0.0
H218 H 0.07856 0.22038 0.21847 0.0
C219 C 0.03948 0.14733 0.28111 0.0
C220 C 0.9702 0.14727 0.24496 0.0
C221 C 0.95905 0.14672 0.33943 0.0
C222 C 0.94629 0.16375 0.37319 0.0
C223 C 0.95935 0.18974 0.34406 0.0
C224 C 0.96355 0.16981 0.33136 0.0
C225 C 0.95018 0.18678 0.36478 0.0
C226 C 0.95106 0.14374 0.36041 0.0
C227 C 0.95913 0.12581 0.32579 0.0
H228 H 0.12356 0.02656 0.18181 0.0
H229 H 0.09683 0.04892 0.21017 0.0
H230 H 0.12651 0.04345 0.14704 0.0
H231 H 0.07383 0.10698 0.16849 0.0
H232 H 0.96265 0.20753 0.33775 0.0
H233 H 0.96936 0.17238 0.31517 0.0
H234 H 0.94661 0.20246 0.37432 0.0
H235 H 0.94716 0.12589 0.36659 0.0
C236 C 0.6021 0.44227 0.77991 0.0
C237 C 0.59023 0.48048 0.79594 0.0
C238 C 0.57954 0.45709 0.7907 0.0
C239 C 0.62342 0.48882 0.78975 0.0
C240 C 0.63566 0.45043 0.77394 0.0
C241 C 0.64598 0.47391 0.77865 0.0
N242 N 0.59139 0.41965 0.77553 0.0
C243 C 0.61365 0.40375 0.76649 0.0
C244 C 0.65807 0.43457 0.76376 0.0
C245 C 0.64711 0.41106 0.76019 0.0
Gd246 Gd 0.46448 0.40369 0.74096 0.0
Gd247 Gd 0.53559 0.40852 0.78728 0.0
N248 N 0.54809 0.44819 0.79711 0.0
C249 C 0.5678 0.4945 0.80792 0.0
C250 C 0.52751 0.46113 0.81016 0.0
C251 C 0.5365 0.48466 0.81528 0.0
H252 H 0.50465 0.45321 0.81721 0.0
H253 H 0.51967 0.49497 0.82531 0.0
H254 H 0.4767 0.34858 0.72402 0.0
H255 H 0.60549 0.38547 0.76409 0.0
H256 H 0.44478 0.30982 0.72325 0.0
H257 H 0.575 0.5126 0.81218 0.0
H258 H 0.63235 0.50649 0.79404 0.0
H259 H 0.40326 0.4451 0.75371 0.0
H260 H 0.68405 0.44016 0.75892 0.0
H261 H 0.66449 0.39852 0.75271 0.0
H262 H 0.33545 0.32659 0.75709 0.0
H263 H 0.67165 0.48054 0.77421 0.0
H264 H 0.31173 0.40809 0.77472 0.0
H265 H 0.34422 0.44588 0.76875 0.0
N266 N 0.40664 0.40707 0.75362 0.0
C267 C 0.3883 0.38624 0.75538 0.0
C268 C 0.39046 0.42837 0.75733 0.0
C269 C 0.33824 0.40757 0.76871 0.0
C270 C 0.35651 0.42893 0.76545 0.0
C271 C 0.35368 0.3859 0.76307 0.0
H272 H 0.30857 0.36352 0.77002 0.0
N273 N 0.43639 0.36643 0.74042 0.0
C274 C 0.40332 0.36538 0.74811 0.0
C275 C 0.39963 0.32347 0.73936 0.0
C276 C 0.38426 0.34373 0.74818 0.0
C277 C 0.45095 0.34711 0.73091 0.0
C278 C 0.43294 0.32526 0.73043 0.0
O279 O 0.54851 0.42347 0.75542 0.0
O280 O 0.49614 0.43773 0.74341 0.0
O281 O 0.4787 0.39785 0.70901 0.0
O282 O 0.43005 0.4154 0.7162 0.0
O283 O 0.48186 0.42474 0.79273 0.0
O284 O 0.46339 0.43739 0.76058 0.0
O285 O 0.47002 0.37421 0.76484 0.0
O286 O 0.48123 0.39471 0.79447 0.0
O287 O 0.5548 0.41068 0.81883 0.0
O288 O 0.55882 0.37758 0.80197 0.0
O289 O 0.51816 0.38806 0.73528 0.0
O290 O 0.53867 0.37559 0.76712 0.0
C291 C 0.53037 0.43944 0.74514 0.0
C292 C 0.46404 0.43944 0.78084 0.0
C293 C 0.45726 0.42491 0.68442 0.0
C294 C 0.45142 0.43407 0.64775 0.0
C295 C 0.48488 0.46046 0.67026 0.0
C296 C 0.47759 0.44561 0.68706 0.0
C297 C 0.47202 0.45473 0.65069 0.0
C298 C 0.44406 0.41927 0.66481 0.0
C299 C 0.45109 0.40836 0.70166 0.0
C300 C 0.35037 0.34311 0.75665 0.0
C301 C 0.33513 0.36415 0.76409 0.0
H302 H 0.3858 0.3065 0.73906 0.0
C303 C 0.46631 0.37678 0.78482 0.0
C304 C 0.53727 0.37381 0.74686 0.0
C305 C 0.54877 0.37501 0.83795 0.0
C306 C 0.55028 0.3674 0.87511 0.0
C307 C 0.50812 0.34658 0.85334 0.0
C308 C 0.52119 0.35844 0.83602 0.0
C309 C 0.52248 0.35099 0.87275 0.0
C310 C 0.5633 0.37938 0.85752 0.0
C311 C 0.56225 0.38806 0.81978 0.0
H312 H 0.50068 0.4764 0.67238 0.0
H313 H 0.48805 0.45007 0.70205 0.0
H314 H 0.47791 0.46656 0.63791 0.0
H315 H 0.42879 0.40304 0.66277 0.0
H316 H 0.48687 0.33381 0.8517 0.0
H317 H 0.50982 0.35462 0.82111 0.0
H318 H 0.51219 0.34122 0.88588 0.0
H319 H 0.58441 0.3923 0.85905 0.0
C320 C 0.8915 0.8885 0.77426 0.0
C321 C 0.89139 0.84526 0.77784 0.0
C322 C 0.9094 0.86734 0.77817 0.0
C323 C 0.85536 0.8447 0.77344 0.0
C324 C 0.85531 0.88797 0.76986 0.0
C325 C 0.83738 0.86598 0.76946 0.0
N326 N 0.90963 0.90951 0.77428 0.0
C327 C 0.89306 0.93066 0.77063 0.0
C328 C 0.83824 0.90957 0.76582 0.0
C329 C 0.85719 0.931 0.76631 0.0
Gd330 Gd 0.0406 0.90795 0.73632 0.0
Gd331 Gd 0.96948 0.90681 0.78184 0.0
N332 N 0.94462 0.86831 0.78162 0.0
C333 C 0.91016 0.82437 0.78186 0.0
C334 C 0.9627 0.8481 0.7864 0.0
C335 C 0.94591 0.82581 0.7863 0.0
H336 H 0.98985 0.84902 0.79065 0.0
H337 H 0.96048 0.80979 0.78988 0.0
H338 H 0.02382 0.9662 0.72912 0.0
H339 H 0.90728 0.94737 0.77146 0.0
H340 H 0.05637 1.00434 0.72823 0.0
H341 H 0.89718 0.8071 0.78185 0.0
H342 H 0.84116 0.82788 0.77303 0.0
H343 H 0.10073 0.86508 0.74182 0.0
H344 H 0.81045 0.90992 0.76241 0.0
H345 H 0.84414 0.9478 0.7635 0.0
H346 H 0.17544 0.98203 0.74184 0.0
H347 H 0.8096 0.86523 0.76605 0.0
H348 H 0.20084 0.89865 0.74971 0.0
H349 H 0.16434 0.86195 0.74752 0.0
N350 N 0.10073 0.90299 0.74189 0.0
C351 C 0.12034 0.92335 0.7422 0.0
C352 C 0.11615 0.88115 0.74351 0.0
C353 C 0.17278 0.9001 0.74751 0.0
C354 C 0.1523 0.87936 0.74645 0.0
C355 C 0.15693 0.92246 0.74514 0.0
H356 H 0.20466 0.94348 0.74755 0.0
N357 N 0.06839 0.94544 0.73667 0.0
C358 C 0.10381 0.94516 0.73917 0.0
C359 C 0.1061 0.98799 0.73483 0.0
C360 C 0.12352 0.96652 0.73876 0.0
C361 C 0.05142 0.96624 0.73237 0.0
C362 C 0.06992 0.98785 0.73162 0.0
O363 O 0.9557 0.88938 0.75127 0.0
O364 O 0.00713 0.87453 0.73813 0.0
O365 O 0.02981 0.91923 0.70501 0.0
O366 O 0.0683 0.89176 0.71056 0.0
O367 O 0.02286 0.88994 0.78724 0.0
O368 O 0.04119 0.87476 0.75601 0.0
O369 O 0.05462 0.92733 0.76627 0.0
O370 O 1.00233 0.9403 0.78004 0.0
O371 O 0.97917 0.89801 0.81397 0.0
O372 O 0.93759 0.92239 0.80602 0.0
O373 O 0.98735 0.92495 0.73135 0.0
O374 O 0.96929 0.94039 0.76252 0.0
C375 C 0.97282 0.87395 0.73984 0.0
C376 C 0.04128 0.87462 0.77629 0.0
C377 C 0.03713 0.89018 0.67925 0.0
C378 C 0.0398 0.8795 0.64279 0.0
C379 C 0.9934 0.86351 0.66473 0.0
C380 C 0.00692 0.87607 0.68152 0.0
C381 C 0.00965 0.86519 0.64547 0.0
C382 C 0.05355 0.89184 0.65991 0.0
C383 C 0.05112 0.90382 0.69675 0.0
C384 C 0.1599 0.96576 0.74198 0.0
C385 C 0.17654 0.9438 0.74524 0.0
H386 H 0.12044 1.00463 0.73369 0.0
C387 C 0.0365 0.94209 0.77792 0.0
C388 C 0.97009 0.94087 0.74224 0.0
C389 C 0.96422 0.92744 0.83843 0.0
C390 C 0.95936 0.93636 0.87522 0.0
C391 C 0.99266 0.9627 0.85239 0.0
C392 C 0.98483 0.94797 0.83566 0.0
C393 C 0.9799 0.95706 0.87203 0.0
C394 C 0.95182 0.92157 0.85818 0.0
C395 C 0.95483 0.91218 0.82086 0.0
H396 H 0.97014 0.85254 0.66663 0.0
H397 H 0.9937 0.875 0.69622 0.0
H398 H 0.99873 0.85518 0.6327 0.0
H399 H 0.0765 0.90318 0.65813 0.0
H400 H 0.00842 0.97864 0.85011 0.0
H401 H 0.99457 0.95259 0.82055 0.0
H402 H 0.98577 0.96913 0.88461 0.0
H403 H 0.93651 0.90536 0.8602 0.0
C404 C 0.62949 0.62658 0.27197 0.0
C405 C 0.63697 0.66898 0.27893 0.0
C406 C 0.61567 0.6483 0.27826 0.0
C407 C 0.67198 0.66772 0.27237 0.0
C408 C 0.6651 0.62508 0.26625 0.0
C409 C 0.68607 0.64577 0.26625 0.0
N410 N 0.60911 0.6066 0.27335 0.0
C411 C 0.62366 0.5845 0.27091 0.0
C412 C 0.67915 0.60262 0.2618 0.0
C413 C 0.65845 0.5822 0.26444 0.0
Gd414 Gd 0.47879 0.6077 0.23854 0.0
Gd415 Gd 0.5509 0.61282 0.28419 0.0
N416 N 0.582 0.64889 0.28503 0.0
C417 C 0.6229 0.69002 0.28711 0.0
C418 C 0.56881 0.66886 0.29424 0.0
C419 C 0.58884 0.68985 0.29511 0.0
H420 H 0.54262 0.6686 0.30061 0.0
H421 H 0.57808 0.70583 0.30198 0.0
H422 H 0.51112 0.55913 0.21316 0.0
H423 H 0.6088 0.56848 0.27427 0.0
H424 H 0.49972 0.51583 0.21202 0.0
H425 H 0.63845 0.70626 0.28792 0.0
H426 H 0.68878 0.6834 0.27274 0.0
H427 H 0.40745 0.63234 0.2583 0.0
H428 H 0.70634 0.60076 0.25725 0.0
H429 H 0.66952 0.56465 0.26201 0.0
H430 H 0.39052 0.50606 0.24754 0.0
H431 H 0.71364 0.64476 0.26243 0.0
H432 H 0.33255 0.57684 0.27107 0.0
H433 H 0.34901 0.61966 0.27102 0.0
N434 N 0.4235 0.59702 0.25126 0.0
C435 C 0.41433 0.57358 0.25003 0.0
C436 C 0.40034 0.61363 0.25825 0.0
C437 C 0.35804 0.58231 0.26531 0.0
C438 C 0.36731 0.60651 0.26544 0.0
C439 C 0.3816 0.56549 0.25746 0.0
H440 H 0.34869 0.53437 0.26275 0.0
N441 N 0.46852 0.56641 0.23343 0.0
C442 C 0.43793 0.55772 0.24137 0.0
C443 C 0.45259 0.51791 0.23002 0.0
C444 C 0.4293 0.53321 0.24005 0.0
C445 C 0.48944 0.55191 0.22186 0.0
C446 C 0.48245 0.52739 0.22058 0.0
O447 O 0.54617 0.64281 0.26072 0.0
O448 O 0.53178 0.62368 0.23065 0.0
O449 O 0.45878 0.60169 0.20755 0.0
O450 O 0.45295 0.63624 0.22183 0.0
O451 O 0.5002 0.63306 0.28936 0.0
O452 O 0.47562 0.64171 0.25729 0.0
O453 O 0.46749 0.59628 0.2716 0.0
O454 O 0.51904 0.5792 0.28083 0.0
O455 O 0.53154 0.61219 0.31582 0.0
O456 O 0.58622 0.60586 0.30961 0.0
O457 O 0.53312 0.59332 0.23182 0.0
O458 O 0.5515 0.57989 0.26362 0.0
C459 C 0.54821 0.64086 0.24057 0.0
C460 C 0.47922 0.64558 0.27727 0.0
C461 C 0.46274 0.63531 0.18585 0.0
C462 C 0.45949 0.64049 0.14848 0.0
C463 C 0.50556 0.66022 0.16814 0.0
C464 C 0.49232 0.65034 0.18631 0.0
C465 C 0.48939 0.65529 0.14932 0.0
C466 C 0.44621 0.63057 0.16691 0.0
C467 C 0.44984 0.62388 0.20493 0.0
C468 C 0.39737 0.52487 0.24823 0.0
C469 C 0.37349 0.54099 0.25683 0.0
H470 H 0.44705 0.49895 0.22875 0.0
C471 C 0.48476 0.57955 0.28144 0.0
C472 C 0.55312 0.57962 0.24335 0.0
C473 C 0.56281 0.58772 0.33916 0.0
C474 C 0.57717 0.57508 0.37423 0.0
C475 C 0.55882 0.54586 0.34852 0.0
C476 C 0.55544 0.56397 0.33384 0.0
C477 C 0.56992 0.5513 0.36852 0.0
C478 C 0.57346 0.59323 0.35932 0.0
C479 C 0.56192 0.60677 0.3236 0.0
H480 H 0.52841 0.67176 0.16863 0.0
H481 H 0.5052 0.65441 0.20073 0.0
H482 H 0.49996 0.66337 0.13544 0.0
H483 H 0.42346 0.61888 0.16648 0.0
H484 H 0.55305 0.52752 0.34436 0.0
H485 H 0.54775 0.55946 0.31829 0.0
H486 H 0.57224 0.5369 0.37959 0.0
H487 H 0.57983 0.6116 0.36317 0.0
H488 H 0.19452 0.93686 0.40496 0.0
H489 H 0.17495 0.96898 0.38227 0.0
H490 H 0.13459 0.91702 0.33931 0.0
H491 H 0.15312 0.88462 0.36226 0.0
H492 H 0.17083 0.95994 0.32122 0.0
H493 H 0.0789 0.93737 0.36952 0.0
H494 H 0.05688 0.92879 0.40454 0.0
H495 H 0.0841 1.0 0.42356 0.0
H496 H 0.10685 1.00886 0.38872 0.0
H497 H 0.05623 0.03752 0.26671 0.0
H498 H 0.08362 1.00424 0.28498 0.0
H499 H 0.09542 0.04859 0.33899 0.0
H500 H 0.06637 0.08141 0.3211 0.0
H501 H 0.07438 1.00819 0.35093 0.0
H502 H 0.16573 0.03255 0.30486 0.0
H503 H 0.19235 0.04276 0.2713 0.0
H504 H 0.17225 0.97154 0.24953 0.0
H505 H 0.14498 0.961 0.28287 0.0
C506 C 0.18166 0.9322 0.39064 0.0
C507 C 0.17489 0.90814 0.38561 0.0
C508 C 0.17074 0.95059 0.37763 0.0
C509 C 0.15305 0.94534 0.35924 0.0
C510 C 0.14828 0.92139 0.35344 0.0
C511 C 0.15898 0.90291 0.36656 0.0
C512 C 0.13665 0.96487 0.34724 0.0
C513 C 0.14944 0.97036 0.32752 0.0
C514 C 0.10946 0.97881 0.35579 0.0
C515 C 0.09485 0.9737 0.37657 0.0
C516 C 0.08038 0.95115 0.38121 0.0
C517 C 0.06776 0.94624 0.40102 0.0
C518 C 0.06917 0.96382 0.41628 0.0
C519 C 0.08306 0.98639 0.41173 0.0
C520 C 0.0958 0.99137 0.39195 0.0
C521 C 0.06491 0.04017 0.28244 0.0
C522 C 0.05924 0.06205 0.29248 0.0
C523 C 0.08074 0.02117 0.29286 0.0
C524 C 0.09217 0.0239 0.31334 0.0
C525 C 0.08682 0.04592 0.32325 0.0
C526 C 0.07029 0.06472 0.313 0.0
C527 C 0.10863 1.00369 0.32472 0.0
C528 C 0.09577 0.99793 0.34444 0.0
C529 C 0.13625 0.98987 0.31628 0.0
C530 C 0.153 0.99606 0.2963 0.0
C531 C 0.16678 0.01911 0.29287 0.0
C532 C 0.182 0.02495 0.27389 0.0
C533 C 0.18391 1.00782 0.25828 0.0
C534 C 0.17071 0.98479 0.26164 0.0
C535 C 0.15538 0.97887 0.28057 0.0
H536 H 0.1957 0.01238 0.24359 0.0
H537 H 0.05944 0.95997 0.43162 0.0
H538 H 0.39191 0.60332 0.90422 0.0
H539 H 0.40874 0.57277 0.87931 0.0
H540 H 0.31257 0.58413 0.84594 0.0
H541 H 0.29531 0.61479 0.8711 0.0
H542 H 0.32738 0.53569 0.85187 0.0
H543 H 0.38561 0.6053 0.82604 0.0
H544 H 0.42262 0.6415 0.82788 0.0
H545 H 0.51067 0.599 0.8462 0.0
H546 H 0.47404 0.56257 0.84477 0.0
H547 H 0.44824 0.48303 0.76434 0.0
H548 H 0.41939 0.51666 0.78152 0.0
H549 H 0.40812 0.4743 0.83678 0.0
H550 H 0.43635 0.4406 0.81959 0.0
H551 H 0.44098 0.54106 0.81469 0.0
H552 H 0.33636 0.49025 0.86268 0.0
H553 H 0.29856 0.45449 0.85955 0.0
H554 H 0.3002 0.46112 0.79364 0.0
H555 H 0.33808 0.49687 0.79633 0.0
C556 C 0.37422 0.59926 0.89164 0.0
C557 C 0.34216 0.61138 0.88969 0.0
C558 C 0.384 0.58191 0.87733 0.0
C559 C 0.36202 0.57625 0.86069 0.0
C560 C 0.32993 0.58824 0.85866 0.0
C561 C 0.32021 0.60583 0.87294 0.0
C562 C 0.37279 0.55761 0.84567 0.0
C563 C 0.35209 0.53692 0.84362 0.0
C564 C 0.40478 0.55935 0.83465 0.0
C565 C 0.42698 0.58122 0.83544 0.0
C566 C 0.41279 0.60369 0.83061 0.0
C567 C 0.43372 0.62425 0.83156 0.0
C568 C 0.46896 0.62256 0.83719 0.0
C569 C 0.48336 0.60029 0.84185 0.0
C570 C 0.46254 0.57967 0.84095 0.0
C571 C 0.43912 0.48081 0.78005 0.0
C572 C 0.44462 0.45924 0.79066 0.0
C573 C 0.42281 0.50006 0.78988 0.0
C574 C 0.41135 0.49798 0.8104 0.0
C575 C 0.41625 0.47625 0.82086 0.0
C576 C 0.43261 0.45706 0.81107 0.0
C577 C 0.39606 0.51884 0.82132 0.0
C578 C 0.41603 0.53993 0.82269 0.0
C579 C 0.36325 0.51754 0.83151 0.0
C580 C 0.3402 0.49618 0.82973 0.0
C581 C 0.32857 0.48412 0.84752 0.0
C582 C 0.30724 0.46381 0.84582 0.0
C583 C 0.29713 0.45549 0.8264 0.0
C584 C 0.3083 0.46748 0.80865 0.0
C585 C 0.32977 0.48773 0.81025 0.0
H586 H 0.28054 0.43981 0.82511 0.0
H587 H 0.48512 0.6385 0.83791 0.0
H588 H 0.70103 0.57542 0.61965 0.0
H589 H 0.67859 0.54494 0.64342 0.0
H590 H 0.62065 0.59895 0.6762 0.0
H591 H 0.64324 0.6295 0.6526 0.0
H592 H 0.64617 0.56753 0.70274 0.0
H593 H 0.58165 0.56378 0.63947 0.0
H594 H 0.57391 0.56018 0.60187 0.0
H595 H 0.62071 0.49055 0.60315 0.0
H596 H 0.62924 0.4939 0.64074 0.0
H597 H 0.50154 0.4808 0.73091 0.0
H598 H 0.53024 0.51274 0.71129 0.0
H599 H 0.62893 0.47605 0.71601 0.0
H600 H 0.59985 0.44305 0.73433 0.0
H601 H 0.58224 0.49905 0.6716 0.0
H602 H 0.6743 0.53726 0.73307 0.0
H603 H 0.67662 0.54579 0.77039 0.0
H604 H 0.56438 0.55076 0.77232 0.0
H605 H 0.5615 0.54287 0.735 0.0
C606 C 0.6838 0.58082 0.63206 0.0
C607 C 0.67377 0.60486 0.63417 0.0
C608 C 0.67093 0.56338 0.64562 0.0
C609 C 0.64739 0.56955 0.66139 0.0
C610 C 0.63873 0.59372 0.66415 0.0
C611 C 0.65178 0.6112 0.65068 0.0
C612 C 0.63037 0.55076 0.67431 0.0
C613 C 0.63234 0.55253 0.69588 0.0
C614 C 0.61171 0.53133 0.66546 0.0
C615 C 0.60643 0.52921 0.64288 0.0
C616 C 0.59054 0.54778 0.63171 0.0
C617 C 0.58598 0.54578 0.6104 0.0
C618 C 0.5969 0.52518 0.60012 0.0
C619 C 0.61232 0.50652 0.61114 0.0
C620 C 0.61702 0.50846 0.63244 0.0
C621 C 0.52936 0.47945 0.72778 0.0
C622 C 0.54851 0.45942 0.73439 0.0
C623 C 0.54572 0.49781 0.71669 0.0
C624 C 0.58175 0.49691 0.71255 0.0
C625 C 0.60116 0.47722 0.71938 0.0
C626 C 0.58459 0.45849 0.73002 0.0
C627 C 0.59852 0.51579 0.69986 0.0
C628 C 0.59649 0.51394 0.67836 0.0
C629 C 0.6163 0.53543 0.70875 0.0
C630 C 0.61768 0.53902 0.73134 0.0
C631 C 0.65014 0.54008 0.7415 0.0
C632 C 0.65156 0.54497 0.76262 0.0
C633 C 0.62067 0.54894 0.77368 0.0
C634 C 0.58828 0.54772 0.76372 0.0
C635 C 0.58674 0.54294 0.7426 0.0
H636 H 0.62182 0.5528 0.79001 0.0
H637 H 0.59334 0.52366 0.58362 0.0
H638 H 0.83134 0.94131 0.11503 0.0
H639 H 0.85191 0.97241 0.13851 0.0
H640 H 0.89044 0.91859 0.18018 0.0
H641 H 0.87125 0.8872 0.15634 0.0
H642 H 0.85225 0.9585 0.19914 0.0
H643 H 0.94775 0.94327 0.15242 0.0
H644 H 0.97462 0.93823 0.11813 0.0
H645 H 0.94633 1.01005 0.102 0.0
H646 H 0.91874 0.01539 0.1361 0.0
H647 H 0.95729 0.03885 0.25908 0.0
H648 H 0.93164 1.00567 0.23967 0.0
H649 H 0.91844 0.05207 0.18707 0.0
H650 H 0.94477 0.08506 0.20629 0.0
H651 H 0.9455 0.01364 0.17434 0.0
H652 H 0.84321 0.02819 0.21609 0.0
H653 H 0.80629 0.03323 0.24701 0.0
H654 H 0.84166 0.96575 0.27053 0.0
H655 H 0.87816 0.96007 0.23947 0.0
C656 C 0.84429 0.93599 0.12914 0.0
C657 C 0.85002 0.91167 0.1336 0.0
C658 C 0.85588 0.95383 0.14259 0.0
C659 C 0.87307 0.94779 0.16093 0.0
C660 C 0.87728 0.92359 0.16605 0.0
C661 C 0.86606 0.90567 0.15244 0.0
C662 C 0.88762 0.9669 0.17432 0.0
C663 C 0.87307 0.97035 0.19392 0.0
C664 C 0.914 0.98274 0.16719 0.0
C665 C 0.93089 0.97965 0.14675 0.0
C666 C 0.94699 0.95792 0.1415 0.0
C667 C 0.9624 0.95502 0.12211 0.0
C668 C 0.96211 0.97379 0.10787 0.0
C669 C 0.94649 0.99552 0.11303 0.0
C670 C 0.93099 0.9985 0.1324 0.0
C671 C 0.94838 0.04206 0.2435 0.0
C672 C 0.95309 0.06459 0.23423 0.0
C673 C 0.93357 0.02306 0.2324 0.0
C674 C 0.92276 0.02627 0.21186 0.0
C675 C 0.92668 0.04899 0.20282 0.0
C676 C 0.94176 0.06788 0.21383 0.0
C677 C 0.90972 1.00573 0.19926 0.0
C678 C 0.92477 1.00185 0.17975 0.0
C679 C 0.88333 0.98975 0.20632 0.0
C680 C 0.86365 0.99386 0.22563 0.0
C681 C 0.84338 0.01456 0.22797 0.0
C682 C 0.82229 0.01742 0.24541 0.0
C683 C 0.82169 0.99984 0.26075 0.0
C684 C 0.84215 0.97934 0.25865 0.0
C685 C 0.86288 0.97624 0.24108 0.0
H686 H 0.80536 1.00209 0.27425 0.0
H687 H 0.97405 0.97151 0.09287 0.0
H688 H 0.88807 0.12348 0.63111 0.0
H689 H 0.91191 0.0933 0.65452 0.0
H690 H 0.80897 0.06166 0.66082 0.0
H691 H 0.78494 0.09236 0.63805 0.0
H692 H 0.83938 0.0593 0.69601 0.0
H693 H 0.87343 0.039 0.62726 0.0
H694 H 0.8999 0.04558 0.593 0.0
H695 H 1.00042 0.05744 0.621 0.0
H696 H 0.97442 0.05126 0.65547 0.0
H697 H 0.94783 0.9402 0.70238 0.0
H698 H 0.9198 0.97228 0.68311 0.0
H699 H 0.92356 0.01737 0.73703 0.0
H700 H 0.95048 0.98486 0.75662 0.0
H701 H 0.94191 0.01288 0.67183 0.0
H702 H 0.86123 0.05861 0.73611 0.0
H703 H 0.82831 0.04779 0.7676 0.0
H704 H 0.81009 0.97729 0.74365 0.0
H705 H 0.84312 0.98763 0.71214 0.0
C706 C 0.87055 0.11018 0.63766 0.0
C707 C 0.8347 0.11019 0.63273 0.0
C708 C 0.88418 0.09288 0.65097 0.0
C709 C 0.8624 0.07484 0.65917 0.0
C710 C 0.82636 0.07533 0.65474 0.0
C711 C 0.81263 0.09288 0.64172 0.0
C712 C 0.8773 0.05494 0.67166 0.0
C713 C 0.86187 0.04921 0.69073 0.0
C714 C 0.90615 0.0413 0.66466 0.0
C715 C 0.92191 0.04491 0.64395 0.0
C716 C 0.90113 0.04317 0.62612 0.0
C717 C 0.91605 0.04681 0.60666 0.0
C718 C 0.9518 0.05199 0.60483 0.0
C719 C 0.97272 0.05347 0.62245 0.0
C720 C 0.95791 0.04989 0.64195 0.0
C721 C 0.94237 0.95687 0.71021 0.0
C722 C 0.95126 0.95998 0.73105 0.0
C723 C 0.92642 0.97526 0.69914 0.0
C724 C 0.9193 0.99731 0.70856 0.0
C725 C 0.92805 1.00042 0.72945 0.0
C726 C 0.94355 0.98184 0.74065 0.0
C727 C 0.90401 0.01719 0.69621 0.0
C728 C 0.91949 0.02301 0.67718 0.0
C729 C 0.87442 0.03028 0.70289 0.0
C730 C 0.85491 0.02384 0.72189 0.0
C731 C 0.85024 0.04079 0.73761 0.0
C732 C 0.83166 0.03471 0.75548 0.0
C733 C 0.81734 0.0118 0.75769 0.0
C734 C 0.82153 0.99493 0.74202 0.0
C735 C 0.84027 1.00087 0.72419 0.0
H736 H 0.80288 1.00715 0.7715 0.0
H737 H 0.9633 0.0548 0.58975 0.0
H738 H 0.74085 0.43039 0.13822 0.0
H739 H 0.71723 0.45966 0.16241 0.0
H740 H 0.61222 0.43579 0.14843 0.0
H741 H 0.63568 0.40638 0.12426 0.0
H742 H 0.61589 0.48298 0.14712 0.0
H743 H 0.65128 0.42221 0.19454 0.0
H744 H 0.69196 0.39366 0.21066 0.0
H745 H 0.75985 0.45153 0.22841 0.0
H746 H 0.7198 0.48042 0.21213 0.0
H747 H 0.56398 0.53328 0.25492 0.0
H748 H 0.59189 0.50179 0.23446 0.0
H749 H 0.61912 0.55382 0.18782 0.0
H750 H 0.58961 0.58491 0.20773 0.0
H751 H 0.65299 0.49122 0.22006 0.0
H752 H 0.61627 0.53226 0.14166 0.0
H753 H 0.57097 0.55856 0.12686 0.0
H754 H 0.49734 0.53477 0.17274 0.0
H755 H 0.54226 0.50805 0.18753 0.0
C756 C 0.71275 0.43104 0.14057 0.0
C757 C 0.69015 0.41599 0.1293 0.0
C758 C 0.69928 0.44785 0.15439 0.0
C759 C 0.66293 0.44988 0.15734 0.0
C760 C 0.64035 0.43463 0.14636 0.0
C761 C 0.65379 0.41785 0.13252 0.0
C762 C 0.64835 0.46854 0.17121 0.0
C763 C 0.62405 0.48474 0.16306 0.0
C764 C 0.65861 0.47077 0.19209 0.0
C765 C 0.6827 0.45346 0.20194 0.0
C766 C 0.67503 0.42883 0.20174 0.0
C767 C 0.69794 0.41259 0.21093 0.0
C768 C 0.72851 0.42077 0.22051 0.0
C769 C 0.73618 0.44522 0.22096 0.0
C770 C 0.71337 0.46154 0.21177 0.0
C771 C 0.57634 0.53795 0.24041 0.0
C772 C 0.57444 0.56139 0.23276 0.0
C773 C 0.59225 0.51998 0.22871 0.0
C774 C 0.60692 0.52524 0.2093 0.0
C775 C 0.60704 0.54908 0.20239 0.0
C776 C 0.59045 0.56688 0.21383 0.0
C777 C 0.62069 0.50574 0.19592 0.0
C778 C 0.6449 0.48946 0.20411 0.0
C779 C 0.60983 0.50307 0.17515 0.0
C780 C 0.5826 0.51849 0.16588 0.0
C781 C 0.59035 0.5326 0.14851 0.0
C782 C 0.5648 0.54757 0.14013 0.0
C783 C 0.53135 0.54844 0.14893 0.0
C784 C 0.52331 0.5342 0.16602 0.0
C785 C 0.54877 0.51918 0.17442 0.0
H786 H 0.51164 0.56008 0.14245 0.0
H787 H 0.74622 0.40816 0.22762 0.0
H788 H 0.28446 0.43038 0.38133 0.0
H789 H 0.3102 0.46036 0.35819 0.0
H790 H 0.41378 0.43602 0.37419 0.0
H791 H 0.38822 0.40612 0.39733 0.0
H792 H 0.40966 0.48308 0.37787 0.0
H793 H 0.37709 0.4254 0.32643 0.0
H794 H 0.33695 0.39858 0.30756 0.0
H795 H 0.27355 0.45852 0.29028 0.0
H796 H 0.31305 0.48569 0.3093 0.0
H797 H 0.50949 0.53678 0.29534 0.0
H798 H 0.47864 0.50701 0.31639 0.0
H799 H 0.38568 0.55044 0.31549 0.0
H800 H 0.41731 0.58128 0.2959 0.0
H801 H 0.38154 0.49567 0.30404 0.0
H802 H 0.41549 0.55341 0.35466 0.0
H803 H 0.45448 0.57993 0.37453 0.0
H804 H 0.51434 0.51943 0.39446 0.0
H805 H 0.47667 0.4926 0.37393 0.0
C806 C 0.31268 0.43106 0.37954 0.0
C807 C 0.33431 0.41592 0.39121 0.0
C808 C 0.32739 0.44826 0.36635 0.0
C809 C 0.36398 0.45048 0.36442 0.0
C810 C 0.38551 0.43477 0.3755 0.0
C811 C 0.37087 0.41768 0.38872 0.0
C812 C 0.38004 0.47003 0.35193 0.0
C813 C 0.40385 0.48559 0.36165 0.0
C814 C 0.3716 0.47385 0.33093 0.0
C815 C 0.34781 0.45754 0.3195 0.0
C816 C 0.35441 0.43284 0.31877 0.0
C817 C 0.33181 0.41758 0.30801 0.0
C818 C 0.30266 0.42683 0.29778 0.0
C819 C 0.2961 0.45138 0.29824 0.0
C820 C 0.3186 0.46671 0.309 0.0
C821 C 0.48267 0.54021 0.29989 0.0
C822 C 0.46578 0.56138 0.29386 0.0
C823 C 0.46502 0.52309 0.31177 0.0
C824 C 0.42993 0.52656 0.31743 0.0
C825 C 0.41275 0.54744 0.31118 0.0
C826 C 0.43076 0.56493 0.29986 0.0
C827 C 0.41145 0.50829 0.32997 0.0
C828 C 0.38725 0.49306 0.32026 0.0
C829 C 0.41955 0.50472 0.35099 0.0
C830 C 0.44354 0.52099 0.36241 0.0
C831 C 0.43748 0.54578 0.36283 0.0
C832 C 0.45928 0.56088 0.3743 0.0
C833 C 0.4869 0.55138 0.38573 0.0
C834 C 0.49298 0.52678 0.38555 0.0
C835 C 0.47153 0.51163 0.37391 0.0
H836 H 0.50354 0.56308 0.39476 0.0
H837 H 0.2852 0.41498 0.28946 0.0
H838 H 0.12119 0.11508 0.89767 0.0
H839 H 0.09778 0.08568 0.87338 0.0
H840 H 0.20265 0.06126 0.86054 0.0
H841 H 0.22622 0.09097 0.88461 0.0
H842 H 0.16607 0.06185 0.82616 0.0
H843 H 0.14678 0.03109 0.89392 0.0
H844 H 0.12598 0.03137 0.92991 0.0
H845 H 0.01981 0.0389 0.90911 0.0
H846 H 0.04001 0.0391 0.87298 0.0
H847 H 0.10708 0.94755 0.78561 0.0
H848 H 0.13579 0.9797 0.80511 0.0
H849 H 0.03593 0.01405 0.81368 0.0
H850 H 0.00735 0.98267 0.79363 0.0
H851 H 0.07245 1.00673 0.85054 0.0
H852 H 0.09363 0.04479 0.78401 0.0
H853 H 0.11495 0.04776 0.74816 0.0
H854 H 0.21708 0.02475 0.76735 0.0
H855 H 0.19648 0.02225 0.80342 0.0
C856 C 0.13926 0.10356 0.88955 0.0
C857 C 0.17554 0.10527 0.89314 0.0
C858 C 0.12585 0.08667 0.87573 0.0
C859 C 0.14835 0.07081 0.86545 0.0
C860 C 0.18471 0.07317 0.86835 0.0
C861 C 0.19818 0.09024 0.88204 0.0
C862 C 0.13385 0.05152 0.85203 0.0
C863 C 0.146 0.04958 0.83165 0.0
C864 C 0.10726 0.03561 0.85899 0.0
C865 C 0.09498 0.03537 0.88072 0.0
C866 C 0.11902 0.03301 0.89701 0.0
C867 C 0.10733 0.03306 0.91745 0.0
C868 C 0.07161 0.03523 0.9218 0.0
C869 C 0.04748 0.03728 0.90572 0.0
C870 C 0.05904 0.0373 0.88525 0.0
C871 C 0.09132 0.96215 0.79135 0.0
C872 C 0.05478 0.96226 0.78837 0.0
C873 C 0.10778 0.98053 0.8025 0.0
C874 C 0.08796 0.99922 0.81097 0.0
C875 C 0.05172 0.99974 0.80742 0.0
C876 C 0.0354 0.98165 0.79604 0.0
C877 C 0.10435 0.0174 0.82469 0.0
C878 C 0.09266 0.01898 0.84517 0.0
C879 C 0.13146 0.03284 0.81792 0.0
C880 C 0.14347 0.03313 0.79627 0.0
C881 C 0.12056 0.04023 0.78052 0.0
C882 C 0.1326 0.04206 0.76023 0.0
C883 C 0.16735 0.03642 0.75548 0.0
C884 C 0.19018 0.02911 0.77105 0.0
C885 C 0.17841 0.02764 0.79143 0.0
H886 H 0.17654 0.03768 0.73972 0.0
H887 H 0.06261 0.03526 0.93763 0.0
H888 H 0.16203 0.09286 0.96456 0.0
H889 H 0.1406 0.08823 0.99978 0.0
H890 H 0.15964 0.16311 1.01115 0.0
H891 H 0.18049 0.16807 0.97567 0.0
H892 H 0.18622 0.13469 0.04172 0.0
H893 H 0.07675 0.14312 1.00676 0.0
H894 H 0.03281 0.13446 0.97992 0.0
H895 H 0.02573 0.06164 1.0006 0.0
H896 H 0.07 0.06978 0.0274 0.0
H897 H 0.1148 0.12256 0.14258 0.0
H898 H 0.12277 0.13721 0.10726 0.0
H899 H 0.09847 0.06691 0.08382 0.0
H900 H 0.08875 0.05255 0.11882 0.0
H901 H 0.07095 0.09865 0.05951 0.0
H902 H 0.18488 0.08801 0.09064 0.0
H903 H 0.2309 0.09487 0.11667 0.0
H904 H 0.23136 0.16988 0.10251 0.0
H905 H 0.185 0.1635 0.07655 0.0
C906 C 0.16098 0.10851 0.97434 0.0
C907 C 0.17288 0.13089 0.96715 0.0
C908 C 0.14883 0.10579 0.99455 0.0
C909 C 0.14822 0.12536 1.00808 0.0
C910 C 0.15987 0.14776 1.00099 0.0
C911 C 0.1719 0.15053 0.98071 0.0
C912 C 0.13682 0.12207 0.02984 0.0
C913 C 0.16073 0.12727 0.04565 0.0
C914 C 0.10385 0.11193 0.03496 0.0
C915 C 0.07688 0.10704 0.01901 0.0
C916 C 0.06599 0.12522 1.00551 0.0
C917 C 0.041 0.12041 0.99031 0.0
C918 C 0.02654 0.09751 0.98853 0.0
C919 C 0.03696 0.07938 1.00199 0.0
C920 C 0.06196 0.08409 0.01721 0.0
C921 C 0.11047 0.11035 0.12988 0.0
C922 C 0.10165 0.08626 0.1336 0.0
C923 C 0.11541 0.11869 0.10968 0.0
C924 C 0.11197 0.10305 0.09283 0.0
C925 C 0.10154 0.07933 0.0965 0.0
C926 C 0.09635 0.07106 0.11659 0.0
C927 C 0.12064 0.11081 0.07141 0.0
C928 C 0.09623 0.10643 0.05564 0.0
C929 C 0.15332 0.12147 0.06629 0.0
C930 C 0.1812 0.12532 0.08185 0.0
C931 C 0.19462 0.10599 0.09319 0.0
C932 C 0.22079 0.10979 0.10791 0.0
C933 C 0.23396 0.13281 0.11129 0.0
C934 C 0.22107 0.15207 0.09991 0.0
C935 C 0.19486 0.14838 0.08519 0.0
H936 H 0.25422 0.13571 0.12269 0.0
H937 H 0.00721 0.09381 0.97674 0.0
H938 H 0.28255 0.38707 0.47989 0.0
H939 H 0.30534 0.39246 0.51458 0.0
H940 H 0.41044 0.39778 0.49032 0.0
H941 H 0.38811 0.39064 0.45559 0.0
H942 H 0.41228 0.37414 0.52474 0.0
H943 H 0.36042 0.44818 0.50413 0.0
H944 H 0.31379 0.47448 0.49102 0.0
H945 H 0.24788 0.45493 0.54211 0.0
H946 H 0.29397 0.42825 0.55538 0.0
H947 H 0.48705 0.43505 0.61109 0.0
H948 H 0.46473 0.42509 0.57676 0.0
H949 H 0.36329 0.40898 0.60289 0.0
H950 H 0.38539 0.41907 0.63727 0.0
H951 H 0.35975 0.43779 0.56791 0.0
H952 H 0.41466 0.3644 0.58871 0.0
H953 H 0.46325 0.33957 0.60147 0.0
H954 H 0.52612 0.36014 0.54936 0.0
H955 H 0.47806 0.38539 0.53644 0.0
C956 C 0.31062 0.38881 0.48186 0.0
C957 C 0.3334 0.38848 0.46475 0.0
C958 C 0.32359 0.39229 0.50178 0.0
C959 C 0.35957 0.39613 0.5051 0.0
C960 C 0.38254 0.39508 0.48819 0.0
C961 C 0.36964 0.39123 0.46826 0.0
C962 C 0.3731 0.40172 0.52612 0.0
C963 C 0.40104 0.38827 0.53404 0.0
C964 C 0.3582 0.41991 0.53851 0.0
C965 C 0.33052 0.43605 0.53064 0.0
C966 C 0.33589 0.44937 0.51249 0.0
C967 C 0.30957 0.46436 0.50504 0.0
C968 C 0.27786 0.46633 0.5157 0.0
C969 C 0.27244 0.45336 0.53386 0.0
C970 C 0.29866 0.43832 0.54136 0.0
C971 C 0.45995 0.42948 0.60951 0.0
C972 C 0.43797 0.42784 0.6269 0.0
C973 C 0.44731 0.42362 0.58991 0.0
C974 C 0.41241 0.41612 0.58728 0.0
C975 C 0.39033 0.41466 0.60458 0.0
C976 C 0.40304 0.42029 0.62422 0.0
C977 C 0.39877 0.41021 0.56644 0.0
C978 C 0.37088 0.42365 0.55857 0.0
C979 C 0.41401 0.39224 0.55403 0.0
C980 C 0.44287 0.37697 0.56172 0.0
C981 C 0.43895 0.36379 0.58006 0.0
C982 C 0.46637 0.34961 0.5873 0.0
C983 C 0.49778 0.34832 0.57626 0.0
C984 C 0.50179 0.36117 0.55791 0.0
C985 C 0.47445 0.37541 0.55062 0.0
H986 H 0.51898 0.33733 0.58189 0.0
H987 H 0.25751 0.47794 0.50991 0.0
H988 H 0.73577 0.38431 0.04066 0.0
H989 H 0.70928 0.38276 1.0065 0.0
H990 H 0.60631 0.3807 0.03404 0.0
H991 H 0.63274 0.38119 0.0684 0.0
H992 H 0.61023 0.34937 1.00351 0.0
H993 H 0.63988 0.43216 1.01156 0.0
H994 H 0.67853 0.46657 0.01894 0.0
H995 H 0.74536 0.44704 0.96844 0.0
H996 H 0.70736 0.41231 0.96093 0.0
H997 H 0.51584 0.37253 0.91189 0.0
H998 H 0.54128 0.3768 0.94624 0.0
H999 H 0.6451 0.37619 0.91982 0.0
H1000 H 0.61979 0.37187 0.88535 0.0
H1001 H 0.63996 0.40951 0.94988 0.0
H1002 H 0.61078 0.32627 0.94242 0.0
H1003 H 0.57187 0.29201 0.935 0.0
H1004 H 0.5038 0.31271 0.98456 0.0
H1005 H 0.54207 0.34731 0.99209 0.0
C1006 C 0.70749 0.38324 0.03952 0.0
C1007 C 0.68641 0.3828 0.05735 0.0
C1008 C 0.69234 0.38267 0.01991 0.0
C1009 C 0.65574 0.38196 0.01764 0.0
C1010 C 0.6346 0.38136 0.03538 0.0
C1011 C 0.64975 0.38183 0.05503 0.0
C1012 C 0.6396 0.38144 0.99675 0.0
C1013 C 0.61634 0.36275 0.9919 0.0
C1014 C 0.64813 0.39856 0.98139 0.0
C1015 C 0.67093 0.41951 0.9858 0.0
C1016 C 0.66296 0.4351 1.00212 0.0
C1017 C 0.68473 0.45468 1.00631 0.0
C1018 C 0.71443 0.45896 0.9942 0.0
C1019 C 0.72237 0.44369 0.97783 0.0
C1020 C 0.7007 0.42407 0.97358 0.0
C1021 C 0.5441 0.37323 0.91338 0.0
C1022 C 0.56578 0.37162 0.89587 0.0
C1023 C 0.55861 0.37571 0.93304 0.0
C1024 C 0.59514 0.37643 0.93567 0.0
C1025 C 0.61685 0.37563 0.91818 0.0
C1026 C 0.60233 0.37322 0.89848 0.0
C1027 C 0.61064 0.37746 0.95669 0.0
C1028 C 0.6338 0.39621 0.96154 0.0
C1029 C 0.602 0.36042 0.97207 0.0
C1030 C 0.57912 0.3395 0.96769 0.0
C1031 C 0.58738 0.32361 0.95164 0.0
C1032 C 0.56546 0.30412 0.94743 0.0
C1033 C 0.53533 0.30022 0.95927 0.0
C1034 C 0.52712 0.31577 0.97539 0.0
C1035 C 0.54893 0.33531 0.97965 0.0
H1036 H 0.51839 0.28512 0.95598 0.0
H1037 H 0.73125 0.47412 0.99747 0.0
H1038 H 0.89225 0.14159 0.57104 0.0
H1039 H 0.9167 0.14217 0.53627 0.0
H1040 H 0.81295 0.15136 0.51115 0.0
H1041 H 0.78809 0.14847 0.54548 0.0
H1042 H 0.84405 0.12304 0.48791 0.0
H1043 H 0.87786 0.19873 0.51696 0.0
H1044 H 0.90526 0.22592 0.5422 0.0
H1045 H 0.00569 0.19433 0.5305 0.0
H1046 H 0.97878 0.16675 0.50535 0.0
H1047 H 0.89125 0.18389 0.3934 0.0
H1048 H 0.87411 0.17828 0.42958 0.0
H1049 H 0.96227 0.13161 0.43878 0.0
H1050 H 0.97897 0.13659 0.40237 0.0
H1051 H 0.94361 0.17652 0.46976 0.0
H1052 H 0.90493 0.1012 0.43889 0.0
H1053 H 0.87412 0.07785 0.41219 0.0
H1054 H 0.77809 0.11404 0.42643 0.0
H1055 H 0.80854 0.1379 0.45299 0.0
C1056 C 0.87451 0.14339 0.55814 0.0
C1057 C 0.83807 0.14526 0.56131 0.0
C1058 C 0.88865 0.1441 0.53819 0.0
C1059 C 0.86683 0.14732 0.52096 0.0
C1060 C 0.83051 0.14898 0.52409 0.0
C1061 C 0.81631 0.14773 0.54392 0.0
C1062 C 0.88142 0.14877 0.49962 0.0
C1063 C 0.8657 0.13489 0.48406 0.0
C1064 C 0.91002 0.16394 0.49436 0.0
C1065 C 0.92624 0.1805 0.50946 0.0
C1066 C 0.90574 0.19747 0.51988 0.0
C1067 C 0.92119 0.21297 0.53415 0.0
C1068 C 0.95717 0.21181 0.538 0.0
C1069 C 0.97781 0.19518 0.52753 0.0
C1070 C 0.96248 0.17962 0.51326 0.0
C1071 C 0.90699 0.17248 0.40317 0.0
C1072 C 0.93638 0.16064 0.39514 0.0
C1073 C 0.89718 0.16928 0.42376 0.0
C1074 C 0.91697 0.15455 0.43676 0.0
C1075 C 0.94672 0.14304 0.42893 0.0
C1076 C 0.9561 0.14581 0.40818 0.0
C1077 C 0.90598 0.151 0.45844 0.0
C1078 C 0.92227 0.16454 0.4739 0.0
C1079 C 0.87746 0.13595 0.46357 0.0
C1080 C 0.8591 0.12152 0.44773 0.0
C1081 C 0.87735 0.10436 0.43616 0.0
C1082 C 0.85993 0.09099 0.4211 0.0
C1083 C 0.82419 0.09451 0.41757 0.0
C1084 C 0.80579 0.11136 0.42915 0.0
C1085 C 0.8231 0.1248 0.44422 0.0
H1086 H 0.81075 0.08414 0.40591 0.0
H1087 H 0.96909 0.22382 0.54905 0.0
H1088 H 0.83613 0.92258 0.06025 0.0
H1089 H 0.85452 0.93105 0.025 0.0
H1090 H 0.8853 0.85747 0.01739 0.0
H1091 H 0.86984 0.84933 0.05311 0.0
H1092 H 0.93217 0.88283 1.00119 0.0
H1093 H 0.80782 0.88248 0.99529 0.0
H1094 H 0.7469 0.89349 1.00359 0.0
H1095 H 0.76937 0.96673 0.98844 0.0
H1096 H 0.83058 0.95622 0.9803 0.0
H1097 H 0.89591 0.91598 0.88554 0.0
H1098 H 0.87478 0.90469 0.9197 0.0
H1099 H 0.9693 0.93327 0.94681 0.0
H1100 H 0.99176 0.94302 0.91264 0.0
H1101 H 0.85757 0.92759 0.9521 0.0
H1102 H 0.9914 0.90383 0.98968 0.0
H1103 H 0.0486 0.88717 0.97944 0.0
H1104 H 1.0004 0.85193 0.92792 0.0
H1105 H 0.94287 0.8681 0.93799 0.0
C1106 C 0.84715 0.90821 0.05119 0.0
C1107 C 0.85138 0.88522 0.05969 0.0
C1108 C 0.85718 0.91302 0.03086 0.0
C1109 C 0.87085 0.89484 0.01831 0.0
C1110 C 0.87476 0.87183 0.02667 0.0
C1111 C 0.86538 0.86712 0.04711 0.0
C1112 C 0.88222 0.89991 0.99675 0.0
C1113 C 0.91575 0.89257 0.99048 0.0
C1114 C 0.86066 0.91217 0.98249 0.0
C1115 C 0.82387 0.91859 0.98736 0.0
C1116 C 0.79984 0.90096 0.99387 0.0
C1117 C 0.76524 0.90711 0.99852 0.0
C1118 C 0.7543 0.9308 0.99659 0.0
C1119 C 0.7779 0.94839 0.98995 0.0
C1120 C 0.81254 0.94234 0.9853 0.0
C1121 C 0.91257 0.91948 0.8987 0.0
C1122 C 0.94579 0.93023 0.89618 0.0
C1123 C 0.9002 0.91328 0.9183 0.0
C1124 C 0.92058 0.9178 0.93588 0.0
C1125 C 0.95332 0.92911 0.93349 0.0
C1126 C 0.96595 0.935 0.91388 0.0
C1127 C 0.90761 0.91073 0.95669 0.0
C1128 C 0.87388 0.91777 0.96282 0.0
C1129 C 0.92843 0.89737 0.97057 0.0
C1130 C 0.9629 0.88739 0.96449 0.0
C1131 C 0.993 0.89245 0.97621 0.0
C1132 C 0.02548 0.88311 0.97043 0.0
C1133 C 0.02815 0.86856 0.953 0.0
C1134 C 0.99832 0.86327 0.94136 0.0
C1135 C 0.96578 0.87255 0.94709 0.0
H1136 H 0.05332 0.86136 0.94855 0.0
H1137 H 0.7275 0.93552 1.0002 0.0
H1138 H 0.7021 0.59453 0.55948 0.0
H1139 H 0.68527 0.58436 0.52408 0.0
H1140 H 0.62832 0.65052 0.51927 0.0
H1141 H 0.64469 0.66064 0.55465 0.0
H1142 H 0.58997 0.61208 0.50535 0.0
H1143 H 0.70549 0.64497 0.49546 0.0
H1144 H 0.76912 0.64854 0.50145 0.0
H1145 H 0.78339 0.57605 0.48155 0.0
H1146 H 0.71973 0.57194 0.47572 0.0
H1147 H 0.5584 0.6135 0.39798 0.0
H1148 H 0.57807 0.62334 0.43277 0.0
H1149 H 0.64087 0.55946 0.43406 0.0
H1150 H 0.62252 0.55004 0.39889 0.0
H1151 H 0.67657 0.59588 0.45003 0.0
H1152 H 0.56188 0.56268 0.45941 0.0
H1153 H 0.49838 0.55858 0.45324 0.0
H1154 H 0.48233 0.63038 0.47444 0.0
H1155 H 0.54586 0.63507 0.4804 0.0
C1156 C 0.68606 0.60691 0.55085 0.0
C1157 C 0.67492 0.62846 0.55983 0.0
C1158 C 0.6766 0.60115 0.53059 0.0
C1159 C 0.65569 0.61675 0.51897 0.0
C1160 C 0.64452 0.63824 0.52792 0.0
C1161 C 0.65418 0.6441 0.54808 0.0
C1162 C 0.64483 0.61051 0.49763 0.0
C1163 C 0.60889 0.60883 0.49318 0.0
C1164 C 0.66951 0.60563 0.48189 0.0
C1165 C 0.70779 0.60807 0.48537 0.0
C1166 C 0.72215 0.62972 0.49254 0.0
C1167 C 0.75823 0.63186 0.49587 0.0
C1168 C 0.78027 0.61252 0.49194 0.0
C1169 C 0.76628 0.59101 0.48462 0.0
C1170 C 0.7302 0.58877 0.48129 0.0
C1171 C 0.5767 0.60166 0.40555 0.0
C1172 C 0.58881 0.58094 0.39559 0.0
C1173 C 0.58765 0.60718 0.42556 0.0
C1174 C 0.61062 0.59199 0.43619 0.0
C1175 C 0.62304 0.57143 0.42623 0.0
C1176 C 0.61222 0.56593 0.40617 0.0
C1177 C 0.62165 0.59755 0.45768 0.0
C1178 C 0.65761 0.59908 0.46218 0.0
C1179 C 0.59698 0.60215 0.47351 0.0
C1180 C 0.55869 0.5993 0.47018 0.0
C1181 C 0.54485 0.57766 0.46262 0.0
C1182 C 0.50884 0.57522 0.45917 0.0
C1183 C 0.48634 0.59422 0.46341 0.0
C1184 C 0.4998 0.61569 0.47115 0.0
C1185 C 0.53581 0.61824 0.47457 0.0
H1186 H 0.45847 0.5923 0.46073 0.0
H1187 H 0.8082 0.61421 0.49452 0.0
H1188 H 0.3901 0.62255 0.95722 0.0
H1189 H 0.4065 0.61829 0.99339 0.0
H1190 H 0.30627 0.64671 0.01182 0.0
H1191 H 0.29018 0.65162 0.97551 0.0
H1192 H 0.35431 0.66718 0.03319 0.0
H1193 H 0.32906 0.58572 0.01797 0.0
H1194 H 0.33165 0.54782 0.99868 0.0
H1195 H 0.44242 0.54366 1.00967 0.0
H1196 H 0.4406 0.58172 0.02879 0.0
H1197 H 0.38961 0.64311 0.1392 0.0
H1198 H 0.36223 0.63912 0.10515 0.0
H1199 H 0.4631 0.62369 0.07833 0.0
H1200 H 0.49053 0.62758 0.11226 0.0
H1201 H 0.40886 0.59456 0.06283 0.0
H1202 H 0.43292 0.6785 0.0754 0.0
H1203 H 0.42876 0.71601 0.09516 0.0
H1204 H 0.3166 0.71422 0.08969 0.0
H1205 H 0.32009 0.67648 0.07013 0.0
C1206 C 0.37132 0.6275 0.96899 0.0
C1207 C 0.33878 0.63731 0.96353 0.0
C1208 C 0.38068 0.62501 0.9897 0.0
C1209 C 0.35746 0.63184 1.00546 0.0
C1210 C 0.32467 0.64128 1.00001 0.0
C1211 C 0.31547 0.64407 0.97926 0.0
C1212 C 0.36829 0.63046 0.02751 0.0
C1213 C 0.36553 0.65109 0.03973 0.0
C1214 C 0.38351 0.60964 0.03612 0.0
C1215 C 0.38472 0.58669 0.02469 0.0
C1216 C 0.35402 0.57681 0.01615 0.0
C1217 C 0.35534 0.55529 1.00526 0.0
C1218 C 0.38719 0.54336 1.00291 0.0
C1219 C 0.41777 0.55292 1.01149 0.0
C1220 C 0.4166 0.57446 0.02238 0.0
C1221 C 0.40582 0.6385 0.12608 0.0
C1222 C 0.44224 0.63584 0.12834 0.0
C1223 C 0.39019 0.63634 0.10664 0.0
C1224 C 0.4107 0.63131 0.08918 0.0
C1225 C 0.44681 0.6276 0.09158 0.0
C1226 C 0.46247 0.62999 0.11094 0.0
C1227 C 0.39507 0.63126 0.06822 0.0
C1228 C 0.39709 0.61044 0.05625 0.0
C1229 C 0.37883 0.65179 0.05989 0.0
C1230 C 0.37674 0.67454 0.07152 0.0
C1231 C 0.40736 0.686 0.07856 0.0
C1232 C 0.40513 0.70732 0.08969 0.0
C1233 C 0.37243 0.71746 0.09373 0.0
C1234 C 0.3419 0.70633 0.08658 0.0
C1235 C 0.34399 0.68498 0.07547 0.0
H1236 H 0.37075 0.73397 0.10235 0.0
H1237 H 0.38815 0.5267 0.99448 0.0
H1238 H 0.11319 0.88805 0.45037 0.0
H1239 H 0.09325 0.89152 0.48606 0.0
H1240 H 0.19752 0.87488 0.5074 0.0
H1241 H 0.21689 0.87009 0.47157 0.0
H1242 H 0.15438 0.8515 0.52925 0.0
H1243 H 0.15935 0.93369 0.5095 0.0
H1244 H 0.14775 0.9687 0.48745 0.0
H1245 H 0.03705 0.95978 0.49704 0.0
H1246 H 0.04795 0.92451 0.51893 0.0
H1247 H 0.10994 0.87927 0.63332 0.0
H1248 H 0.137 0.88201 0.59913 0.0
H1249 H 0.03462 0.88705 0.57139 0.0
H1250 H 0.00745 0.88495 0.6055 0.0
H1251 H 0.08127 0.91866 0.55412 0.0
H1252 H 0.07832 0.83441 0.57205 0.0
H1253 H 0.09145 0.79965 0.5941 0.0
H1254 H 0.20171 0.81412 0.58837 0.0
H1255 H 0.18919 0.84917 0.5665 0.0
C1256 C 0.13186 0.8854 0.46273 0.0
C1257 C 0.16658 0.87897 0.45832 0.0
C1258 C 0.12054 0.88751 0.48313 0.0
C1259 C 0.144 0.88395 0.49955 0.0
C1260 C 0.17889 0.87778 0.49507 0.0
C1261 C 0.19 0.87512 0.47464 0.0
C1262 C 0.13169 0.88552 0.52132 0.0
C1263 C 0.13901 0.86646 0.53475 0.0
C1264 C 0.11111 0.90482 0.52856 0.0
C1265 C 0.10448 0.92634 0.51575 0.0
C1266 C 0.13253 0.93913 0.50683 0.0
C1267 C 0.12607 0.95902 0.49437 0.0
C1268 C 0.09168 0.96643 0.49081 0.0
C1269 C 0.06368 0.95402 0.4998 0.0
C1270 C 0.06998 0.93409 0.51227 0.0
C1271 C 0.09321 0.88123 0.61996 0.0
C1272 C 0.05651 0.88171 0.62212 0.0
C1273 C 0.10871 0.88263 0.60042 0.0
C1274 C 0.08781 0.88449 0.58269 0.0
C1275 C 0.05125 0.88557 0.58485 0.0
C1276 C 0.03575 0.88412 0.60435 0.0
C1277 C 0.10379 0.8846 0.5618 0.0
C1278 C 0.09708 0.90393 0.54859 0.0
C1279 C 0.1253 0.86572 0.55482 0.0
C1280 C 0.1328 0.84454 0.56782 0.0
C1281 C 0.10534 0.83027 0.57562 0.0
C1282 C 0.11268 0.81051 0.58806 0.0
C1283 C 0.14739 0.80472 0.59268 0.0
C1284 C 0.17484 0.81865 0.58481 0.0
C1285 C 0.16764 0.83845 0.57238 0.0
H1286 H 0.15301 0.78941 0.60232 0.0
H1287 H 0.08674 0.9818 0.48111 0.0
H1288 H 0.23683 0.29759 0.38402 0.0
H1289 H 0.21688 0.26509 0.36128 0.0
H1290 H 0.11721 0.30005 0.35413 0.0
H1291 H 0.13715 0.33271 0.37614 0.0
H1292 H 0.11514 0.25156 0.37029 0.0
H1293 H 0.16674 0.29854 0.31491 0.0
H1294 H 0.21552 0.31904 0.29711 0.0
H1295 H 0.2721 0.253 0.29375 0.0
H1296 H 0.22384 0.23216 0.31183 0.0
H1297 H 0.01686 0.19084 0.29455 0.0
H1298 H 0.05008 0.22114 0.3135 0.0
H1299 H 0.1421 0.17682 0.31101 0.0
H1300 H 0.1083 0.14571 0.29321 0.0
H1301 H 0.15478 0.22644 0.30079 0.0
H1302 H 0.10617 0.17838 0.35303 0.0
H1303 H 0.06354 0.15593 0.37415 0.0
H1304 H 0.00776 0.2207 0.38688 0.0
H1305 H 0.04934 0.24348 0.36523 0.0
C1306 C 0.21107 0.29867 0.3771 0.0
C1307 C 0.18838 0.31756 0.38217 0.0
C1308 C 0.19965 0.28005 0.3642 0.0
C1309 C 0.16542 0.28007 0.35622 0.0
C1310 C 0.1436 0.29958 0.36028 0.0
C1311 C 0.15503 0.3182 0.37293 0.0
C1312 C 0.15074 0.25894 0.34532 0.0
C1313 C 0.12349 0.24623 0.35498 0.0
C1314 C 0.16291 0.25132 0.32581 0.0
C1315 C 0.19188 0.26386 0.31497 0.0
C1316 C 0.18974 0.28844 0.31059 0.0
C1317 C 0.21726 0.30011 0.3004 0.0
C1318 C 0.24695 0.28735 0.29437 0.0
C1319 C 0.24913 0.26287 0.29847 0.0
C1320 C 0.22169 0.25113 0.30868 0.0
C1321 C 0.04406 0.18739 0.2982 0.0
C1322 C 0.06001 0.16589 0.2922 0.0
C1323 C 0.06307 0.20481 0.30892 0.0
C1324 C 0.09858 0.20126 0.31362 0.0
C1325 C 0.1148 0.18 0.30739 0.0
C1326 C 0.09552 0.16231 0.29708 0.0
C1327 C 0.11821 0.21966 0.32548 0.0
C1328 C 0.14644 0.23174 0.31611 0.0
C1329 C 0.10743 0.22648 0.34549 0.0
C1330 C 0.08076 0.21263 0.35729 0.0
C1331 C 0.08441 0.1878 0.35995 0.0
C1332 C 0.0605 0.17501 0.37209 0.0
C1333 C 0.03308 0.18691 0.38191 0.0
C1334 C 0.02909 0.21153 0.37929 0.0
C1335 C 0.05274 0.22438 0.36702 0.0
H1336 H 0.015 0.17705 0.3916 0.0
H1337 H 0.26822 0.29642 0.28647 0.0
H1338 H 0.30243 0.19414 0.86444 0.0
H1339 H 0.32297 0.22687 0.84202 0.0
H1340 H 0.34261 0.27059 0.89553 0.0
H1341 H 0.32248 0.23794 0.91786 0.0
H1342 H 0.31519 0.29677 0.86186 0.0
H1343 H 0.40743 0.24026 0.87695 0.0
H1344 H 0.43364 0.20007 0.87798 0.0
H1345 H 0.42352 0.19433 0.81225 0.0
H1346 H 0.39672 0.23437 0.81089 0.0
H1347 H 0.44 0.38071 0.82401 0.0
H1348 H 0.40778 0.35048 0.84372 0.0
H1349 H 0.41384 0.30212 0.79202 0.0
H1350 H 0.44927 0.33129 0.77334 0.0
H1351 H 0.42429 0.27804 0.82357 0.0
H1352 H 0.33578 0.33635 0.80771 0.0
H1353 H 0.31003 0.37675 0.80696 0.0
H1354 H 0.31209 0.3795 0.87303 0.0
H1355 H 0.33824 0.33929 0.87424 0.0
C1356 C 0.3103 0.21097 0.87131 0.0
C1357 C 0.31104 0.21355 0.89283 0.0
C1358 C 0.32217 0.22959 0.85854 0.0
C1359 C 0.33462 0.25111 0.86713 0.0
C1360 C 0.33311 0.2542 0.88856 0.0
C1361 C 0.32171 0.23553 0.9013 0.0
C1362 C 0.35245 0.26945 0.85416 0.0
C1363 C 0.33907 0.29277 0.85347 0.0
C1364 C 0.38337 0.26414 0.84305 0.0
C1365 C 0.3997 0.24016 0.84385 0.0
C1366 C 0.41052 0.23034 0.86274 0.0
C1367 C 0.42553 0.20761 0.86338 0.0
C1368 C 0.43015 0.19462 0.8452 0.0
C1369 C 0.41986 0.20438 0.82633 0.0
C1370 C 0.40476 0.22709 0.82561 0.0
C1371 C 0.43448 0.3636 0.81688 0.0
C1372 C 0.44632 0.35866 0.7968 0.0
C1373 C 0.41562 0.34639 0.82808 0.0
C1374 C 0.40721 0.32413 0.81921 0.0
C1375 C 0.41947 0.31916 0.79924 0.0
C1376 C 0.43925 0.33606 0.78835 0.0
C1377 C 0.38694 0.3056 0.83089 0.0
C1378 C 0.40004 0.28217 0.83154 0.0
C1379 C 0.35561 0.31085 0.8418 0.0
C1380 C 0.33919 0.33484 0.84106 0.0
C1381 C 0.33087 0.3456 0.82208 0.0
C1382 C 0.31623 0.36846 0.82156 0.0
C1383 C 0.30954 0.38067 0.83991 0.0
C1384 C 0.31732 0.37002 0.85883 0.0
C1385 C 0.332 0.34719 0.85944 0.0
H1386 H 0.29825 0.39837 0.83947 0.0
H1387 H 0.44178 0.17703 0.84573 0.0
H1388 H 0.71438 0.19656 0.66655 0.0
H1389 H 0.69578 0.22792 0.6907 0.0
H1390 H 0.65178 0.26788 0.64014 0.0
H1391 H 0.67052 0.2369 0.61612 0.0
H1392 H 0.68424 0.29728 0.66768 0.0
H1393 H 0.60084 0.23132 0.66902 0.0
H1394 H 0.58328 0.18923 0.67417 0.0
H1395 H 0.61945 0.19215 0.73678 0.0
H1396 H 0.63766 0.2342 0.73189 0.0
H1397 H 0.54652 0.36716 0.70545 0.0
H1398 H 0.58246 0.33727 0.68833 0.0
H1399 H 0.61338 0.30881 0.74733 0.0
H1400 H 0.57708 0.33864 0.76473 0.0
H1401 H 0.59603 0.27346 0.72024 0.0
H1402 H 0.67049 0.3418 0.72035 0.0
H1403 H 0.68607 0.38421 0.71518 0.0
H1404 H 0.6668 0.37733 0.65026 0.0
H1405 H 0.6505 0.33496 0.65508 0.0
C1406 C 0.70132 0.21227 0.66062 0.0
C1407 C 0.69351 0.21419 0.63952 0.0
C1408 C 0.69054 0.23009 0.67441 0.0
C1409 C 0.672 0.25012 0.66725 0.0
C1410 C 0.66596 0.2526 0.64604 0.0
C1411 C 0.67647 0.2348 0.63234 0.0
C1412 C 0.65659 0.26779 0.68171 0.0
C1413 C 0.66494 0.2921 0.67916 0.0
C1414 C 0.63205 0.26099 0.69706 0.0
C1415 C 0.62101 0.23577 0.70002 0.0
C1416 C 0.6053 0.22292 0.68383 0.0
C1417 C 0.59519 0.19909 0.68671 0.0
C1418 C 0.60036 0.188 0.70577 0.0
C1419 C 0.61554 0.20074 0.72201 0.0
C1420 C 0.62576 0.22457 0.71919 0.0
C1421 C 0.56092 0.3546 0.71487 0.0
C1422 C 0.55897 0.35542 0.73651 0.0
C1423 C 0.58165 0.33757 0.70502 0.0
C1424 C 0.60104 0.32102 0.71655 0.0
C1425 C 0.59879 0.3215 0.73814 0.0
C1426 C 0.57806 0.3386 0.74804 0.0
C1427 C 0.62304 0.30301 0.70586 0.0
C1428 C 0.61589 0.27866 0.70909 0.0
C1429 C 0.64872 0.30979 0.69115 0.0
C1430 C 0.65905 0.3352 0.6881 0.0
C1431 C 0.66935 0.34935 0.70498 0.0
C1432 C 0.67833 0.37339 0.70212 0.0
C1433 C 0.67737 0.38347 0.68241 0.0
C1434 C 0.66752 0.3695 0.66552 0.0
C1435 C 0.65845 0.34545 0.66831 0.0
H1436 H 0.68431 0.40209 0.68023 0.0
H1437 H 0.5925 0.16955 0.70797 0.0
H1438 H 0.79048 0.29537 0.1335 0.0
H1439 H 0.81017 0.26347 0.15669 0.0
H1440 H 0.90053 0.30602 0.17322 0.0
H1441 H 0.88127 0.33759 0.14985 0.0
H1442 H 0.92045 0.26356 0.16181 0.0
H1443 H 0.83206 0.29376 0.20754 0.0
H1444 H 0.77257 0.30604 0.21784 0.0
H1445 H 0.73409 0.23503 0.20631 0.0
H1446 H 0.79328 0.22241 0.19566 0.0
H1447 H 0.96222 0.19382 0.2565 0.0
H1448 H 0.934 0.22597 0.23684 0.0
H1449 H 0.9056 0.17554 0.18946 0.0
H1450 H 0.93488 0.14353 0.20865 0.0
H1451 H 0.85395 0.22097 0.21653 0.0
H1452 H 0.9422 0.19484 0.1637 0.0
H1453 H 1.00194 0.18511 0.15193 0.0
H1454 H 0.04041 0.25119 0.17708 0.0
H1455 H 0.98096 0.26092 0.18953 0.0
C1456 C 0.81407 0.29809 0.14248 0.0
C1457 C 0.83449 0.31886 0.13978 0.0
C1458 C 0.82533 0.27986 0.15573 0.0
C1459 C 0.85694 0.28227 0.1667 0.0
C1460 C 0.87624 0.30362 0.16482 0.0
C1461 C 0.86519 0.32167 0.15149 0.0
C1462 C 0.87172 0.26195 0.17867 0.0
C1463 C 0.90584 0.25443 0.17387 0.0
C1464 C 0.85264 0.24965 0.19419 0.0
C1465 C 0.81705 0.25721 0.2006 0.0
C1466 C 0.81086 0.28082 0.20703 0.0
C1467 C 0.7772 0.28783 0.21296 0.0
C1468 C 0.74955 0.27135 0.21267 0.0
C1469 C 0.75553 0.24779 0.2065 0.0
C1470 C 0.78913 0.24069 0.20053 0.0
C1471 C 0.9498 0.18961 0.24194 0.0
C1472 C 0.95085 0.16626 0.23401 0.0
C1473 C 0.93386 0.20796 0.23071 0.0
C1474 C 0.91833 0.20316 0.21155 0.0
C1475 C 0.91814 0.17968 0.204 0.0
C1476 C 0.93467 0.16143 0.21501 0.0
C1477 C 0.90234 0.22277 0.19948 0.0
C1478 C 0.86822 0.23016 0.20437 0.0
C1479 C 0.92129 0.23502 0.18399 0.0
C1480 C 0.95737 0.22828 0.17801 0.0
C1481 C 0.96356 0.20697 0.1672 0.0
C1482 C 0.99731 0.20156 0.16024 0.0
C1483 C 0.02497 0.21753 0.16374 0.0
C1484 C 0.01898 0.23885 0.17436 0.0
C1485 C 0.98531 0.24424 0.18149 0.0
H1486 H 0.05105 0.21335 0.15828 0.0
H1487 H 0.72352 0.27681 0.21728 0.0
H1488 H 0.7264 0.75255 0.66435 0.0
H1489 H 0.77287 0.77372 0.68276 0.0
H1490 H 0.85074 0.732 0.651 0.0
H1491 H 0.80399 0.71073 0.63224 0.0
H1492 H 0.86638 0.74326 0.6949 0.0
H1493 H 0.83669 0.78175 0.63113 0.0
H1494 H 0.79596 0.79793 0.60522 0.0
H1495 H 0.75671 0.84808 0.64956 0.0
H1496 H 0.79679 0.8319 0.67586 0.0
H1497 H 0.99632 0.83264 0.7214 0.0
H1498 H 0.96129 0.80264 0.70292 0.0
H1499 H 0.86766 0.84314 0.71543 0.0
H1500 H 0.90252 0.87362 0.73251 0.0
H1501 H 0.86658 0.82972 0.67769 0.0
H1502 H 0.8924 0.78942 0.74229 0.0
H1503 H 0.93144 0.77244 0.76882 0.0
H1504 H 0.97749 0.72614 0.7237 0.0
H1505 H 0.93893 0.74289 0.69687 0.0
C1506 C 0.75339 0.74757 0.66152 0.0
C1507 C 0.76157 0.73022 0.64662 0.0
C1508 C 0.77991 0.75965 0.67209 0.0
C1509 C 0.81526 0.7547 0.66802 0.0
C1510 C 0.82361 0.73611 0.65434 0.0
C1511 C 0.7969 0.72394 0.64368 0.0
C1512 C 0.84284 0.77081 0.67645 0.0
C1513 C 0.86689 0.7621 0.69094 0.0
C1514 C 0.84329 0.79543 0.67139 0.0
C1515 C 0.81956 0.80548 0.65551 0.0
C1516 C 0.8192 0.79611 0.6354 0.0
C1517 C 0.79624 0.8053 0.62064 0.0
C1518 C 0.77371 0.82399 0.62575 0.0
C1519 C 0.77416 0.83359 0.64563 0.0
C1520 C 0.79701 0.82443 0.66046 0.0
C1521 C 0.96827 0.83512 0.72014 0.0
C1522 C 0.9522 0.85541 0.72871 0.0
C1523 C 0.9482 0.81785 0.70973 0.0
C1524 C 0.91163 0.82036 0.70799 0.0
C1525 C 0.89575 0.84066 0.71653 0.0
C1526 C 0.91576 0.85802 0.72656 0.0
C1527 C 0.88953 0.80248 0.69684 0.0
C1528 C 0.86648 0.81087 0.68164 0.0
C1529 C 0.89003 0.77766 0.70137 0.0
C1530 C 0.91305 0.76757 0.71754 0.0
C1531 C 0.91102 0.77573 0.738 0.0
C1532 C 0.93302 0.76615 0.75309 0.0
C1533 C 0.957 0.74834 0.74792 0.0
C1534 C 0.95894 0.73998 0.72767 0.0
C1535 C 0.937 0.74947 0.71253 0.0
H1536 H 0.97401 0.74096 0.75963 0.0
H1537 H 0.75596 0.83108 0.6143 0.0
H1538 H 0.71635 0.78219 0.1169 0.0
H1539 H 0.67174 0.75942 0.13602 0.0
H1540 H 0.73111 0.76901 0.192 0.0
H1541 H 0.77573 0.79168 0.17277 0.0
H1542 H 0.71848 0.7227 0.18428 0.0
H1543 H 0.65053 0.7944 0.18616 0.0
H1544 H 0.62068 0.8297 0.17187 0.0
H1545 H 0.55454 0.78416 0.13533 0.0
H1546 H 0.58433 0.74858 0.14918 0.0
H1547 H 0.5712 0.68496 0.25299 0.0
H1548 H 0.60858 0.71309 0.23412 0.0
H1549 H 0.60594 0.66677 0.18114 0.0
H1550 H 0.57137 0.63741 0.20065 0.0
H1551 H 0.58926 0.7314 0.18739 0.0
H1552 H 0.66719 0.66036 0.18133 0.0
H1553 H 0.70003 0.62619 0.19532 0.0
H1554 H 0.75051 0.67253 0.23899 0.0
H1555 H 0.71629 0.70669 0.22605 0.0
C1556 C 0.71904 0.78017 0.13343 0.0
C1557 C 0.74901 0.78893 0.14351 0.0
C1558 C 0.69366 0.76712 0.14434 0.0
C1559 C 0.69802 0.76251 0.16547 0.0
C1560 C 0.72714 0.77238 0.17572 0.0
C1561 C 0.75244 0.78549 0.16482 0.0
C1562 C 0.67475 0.74509 0.17628 0.0
C1563 C 0.69024 0.72479 0.18507 0.0
C1564 C 0.63782 0.74745 0.17695 0.0
C1565 C 0.61993 0.76882 0.16856 0.0
C1566 C 0.62985 0.79191 0.17493 0.0
C1567 C 0.61289 0.81197 0.16694 0.0
C1568 C 0.5858 0.80918 0.15266 0.0
C1569 C 0.57556 0.7863 0.14637 0.0
C1570 C 0.59245 0.76618 0.1543 0.0
C1571 C 0.57957 0.68033 0.23762 0.0
C1572 C 0.56926 0.65854 0.22866 0.0
C1573 C 0.60052 0.6966 0.22673 0.0
C1574 C 0.61081 0.69171 0.20643 0.0
C1575 C 0.59925 0.67052 0.19703 0.0
C1576 C 0.57916 0.65389 0.20815 0.0
C1577 C 0.63313 0.7091 0.19511 0.0
C1578 C 0.61748 0.7294 0.1864 0.0
C1579 C 0.66996 0.70676 0.19433 0.0
C1580 C 0.68832 0.68589 0.20317 0.0
C1581 C 0.6843 0.66309 0.1944 0.0
C1582 C 0.70334 0.64374 0.20206 0.0
C1583 C 0.72718 0.64714 0.21813 0.0
C1584 C 0.73187 0.66988 0.22663 0.0
C1585 C 0.71237 0.68917 0.21931 0.0
H1586 H 0.74211 0.63219 0.22394 0.0
H1587 H 0.57269 0.82473 0.1465 0.0
H1588 H 0.3031 0.77152 0.39932 0.0
H1589 H 0.34843 0.75351 0.37766 0.0
H1590 H 0.29927 0.78299 0.32352 0.0
H1591 H 0.25394 0.8013 0.34535 0.0
H1592 H 0.30776 0.7339 0.32189 0.0
H1593 H 0.37924 0.80203 0.33615 0.0
H1594 H 0.40787 0.83261 0.35778 0.0
H1595 H 0.46499 0.77797 0.38965 0.0
H1596 H 0.43632 0.74701 0.36842 0.0
H1597 H 0.43347 0.67634 0.25835 0.0
H1598 H 0.39777 0.70731 0.27441 0.0
H1599 H 0.44164 0.68995 0.33376 0.0
H1600 H 0.47761 0.65907 0.31789 0.0
H1601 H 0.43713 0.73754 0.32914 0.0
H1602 H 0.3589 0.6704 0.32183 0.0
H1603 H 0.3274 0.6379 0.30397 0.0
H1604 H 0.28242 0.68871 0.2621 0.0
H1605 H 0.31349 0.72157 0.2799 0.0
C1606 C 0.3027 0.77475 0.38285 0.0
C1607 C 0.27536 0.78787 0.37393 0.0
C1608 C 0.32857 0.7645 0.37049 0.0
C1609 C 0.32733 0.76699 0.34897 0.0
C1610 C 0.30081 0.78098 0.3401 0.0
C1611 C 0.27512 0.79153 0.35253 0.0
C1612 C 0.35114 0.75256 0.33587 0.0
C1613 C 0.3361 0.73515 0.32304 0.0
C1614 C 0.38804 0.7536 0.33797 0.0
C1615 C 0.40542 0.77217 0.35076 0.0
C1616 C 0.39769 0.7965 0.34788 0.0
C1617 C 0.41397 0.81392 0.36005 0.0
C1618 C 0.43819 0.80723 0.3751 0.0
C1619 C 0.44622 0.78312 0.37798 0.0
C1620 C 0.43 0.76563 0.36587 0.0
C1621 C 0.43565 0.67909 0.27482 0.0
C1622 C 0.45833 0.66501 0.28681 0.0
C1623 C 0.41511 0.69681 0.28399 0.0
C1624 C 0.41675 0.70083 0.30533 0.0
C1625 C 0.43994 0.68721 0.31726 0.0
C1626 C 0.46043 0.66946 0.30813 0.0
C1627 C 0.39367 0.71876 0.31536 0.0
C1628 C 0.40883 0.73669 0.32765 0.0
C1629 C 0.35679 0.71802 0.31308 0.0
C1630 C 0.33882 0.69835 0.302 0.0
C1631 C 0.34253 0.6746 0.3087 0.0
C1632 C 0.32463 0.65614 0.29866 0.0
C1633 C 0.30307 0.66122 0.28183 0.0
C1634 C 0.2992 0.6848 0.2751 0.0
C1635 C 0.31684 0.70336 0.28521 0.0
H1636 H 0.28929 0.64688 0.27404 0.0
H1637 H 0.45077 0.82074 0.3845 0.0
H1638 H 0.21934 0.75555 0.90456 0.0
H1639 H 0.17508 0.77503 0.88325 0.0
H1640 H 0.21029 0.73498 0.8304 0.0
H1641 H 0.25482 0.71532 0.8519 0.0
H1642 H 0.20888 0.78325 0.82321 0.0
H1643 H 0.12948 0.72482 0.84975 0.0
H1644 H 0.09997 0.70042 0.87634 0.0
H1645 H 0.05908 0.76392 0.90442 0.0
H1646 H 0.08878 0.78875 0.87817 0.0
H1647 H 0.07346 0.83477 0.7604 0.0
H1648 H 0.1099 0.80582 0.77865 0.0
H1649 H 0.09097 0.84277 0.83582 0.0
H1650 H 0.05588 0.87249 0.81758 0.0
H1651 H 0.08212 0.79231 0.83829 0.0
H1652 H 0.16624 0.85051 0.81569 0.0
H1653 H 0.19994 0.87622 0.79187 0.0
H1654 H 0.2337 0.81437 0.75828 0.0
H1655 H 0.19985 0.78828 0.78179 0.0
C1656 C 0.21701 0.75047 0.8885 0.0
C1657 C 0.24037 0.73392 0.87984 0.0
C1658 C 0.19167 0.76156 0.87634 0.0
C1659 C 0.18922 0.75643 0.85522 0.0
C1660 C 0.21163 0.73915 0.84668 0.0
C1661 C 0.23684 0.72782 0.85895 0.0
C1662 C 0.16573 0.77093 0.8419 0.0
C1663 C 0.18097 0.78474 0.82614 0.0
C1664 C 0.12954 0.77353 0.84622 0.0
C1665 C 0.11159 0.75867 0.86205 0.0
C1666 C 0.11444 0.73361 0.86168 0.0
C1667 C 0.09762 0.71969 0.87668 0.0
C1668 C 0.07772 0.73062 0.89208 0.0
C1669 C 0.07453 0.75548 0.89249 0.0
C1670 C 0.09131 0.76949 0.87753 0.0
C1671 C 0.07766 0.83712 0.77676 0.0
C1672 C 0.06246 0.85642 0.78737 0.0
C1673 C 0.09824 0.82038 0.78721 0.0
C1674 C 0.10338 0.82225 0.80856 0.0
C1675 C 0.08741 0.84103 0.81932 0.0
C1676 C 0.06737 0.85803 0.80883 0.0
C1677 C 0.1254 0.80464 0.81972 0.0
C1678 C 0.10989 0.7904 0.8351 0.0
C1679 C 0.16143 0.80176 0.81519 0.0
C1680 C 0.18013 0.81746 0.80033 0.0
C1681 C 0.18041 0.84241 0.80304 0.0
C1682 C 0.19976 0.85704 0.78969 0.0
C1683 C 0.21906 0.84692 0.77363 0.0
C1684 C 0.21881 0.82217 0.77076 0.0
C1685 C 0.19954 0.80746 0.78409 0.0
H1686 H 0.23408 0.85828 0.76333 0.0
H1687 H 0.06471 0.71981 0.90367 0.0
loop_
_geom_bond_atom_site_label_1
_geom_bond_atom_site_label_2
_geom_bond_distance
_geom_bond_site_symmetry_2
_ccdc_geom_bond_type
H0 C1 0.949 . S
C1 H0 0.949 . S
C1 C2 1.395 . S
C1 C3 1.391 . S
C2 C1 1.395 . S
C2 C5 1.390 . S
C3 C1 1.391 . S
C3 C7 1.387 . S
C3 C8 1.491 . S
H4 C5 0.950 . S
C5 C2 1.390 . S
C5 H4 0.950 . S
C5 C6 1.378 . S
C6 C5 1.378 . S
C6 C7 1.409 . S
C7 C3 1.387 . S
C7 C6 1.409 . S
C7 H9 0.951 . S
C8 C3 1.491 . S
C8 C10 1.382 . S
C8 C12 1.404 . S
H9 C7 0.951 . S
C10 C8 1.382 . S
C10 C11 1.390 . S
C10 H15 0.949 . S
C11 C10 1.390 . S
C11 C16 1.399 . S
C12 C8 1.404 . S
C12 H13 0.950 . S
C12 C14 1.375 . S
H13 C12 0.950 . S
C14 C12 1.375 . S
C14 C16 1.382 . S
C14 H18 0.950 . S
H15 C10 0.949 . S
C16 C11 1.399 . S
C16 C14 1.382 . S
C16 H17 0.952 . S
H17 C16 0.952 . S
H18 C14 0.950 . S
H19 C20 0.949 . S
C20 H19 0.949 . S
C20 C21 1.395 . S
C20 C22 1.391 . S
C21 C20 1.395 . S
C21 C24 1.390 . S
C22 C20 1.391 . S
C22 C26 1.387 . S
C22 C27 1.491 . S
H23 C24 0.950 . S
C24 C21 1.390 . S
C24 H23 0.950 . S
C24 C25 1.378 . S
C25 C24 1.378 . S
C25 C26 1.409 . S
C26 C22 1.387 . S
C26 C25 1.409 . S
C26 H28 0.951 . S
C27 C22 1.491 . S
C27 C29 1.382 . S
C27 C31 1.404 . S
H28 C26 0.951 . S
C29 C27 1.382 . S
C29 C30 1.390 . S
C29 H34 0.949 . S
C30 C29 1.390 . S
C30 C35 1.399 . S
C31 C27 1.404 . S
C31 H32 0.950 . S
C31 C33 1.375 . S
H32 C31 0.950 . S
C33 C31 1.375 . S
C33 C35 1.382 . S
C33 H37 0.950 . S
H34 C29 0.949 . S
C35 C30 1.399 . S
C35 C33 1.382 . S
C35 H36 0.952 . S
H36 C35 0.952 . S
H37 C33 0.950 . S
H38 C39 0.949 . S
C39 H38 0.949 . S
C39 C40 1.395 . S
C39 C41 1.391 . S
C40 C39 1.395 . S
C40 C43 1.390 . S
C41 C39 1.391 . S
C41 C45 1.387 . S
C41 C46 1.491 . S
H42 C43 0.950 . S
C43 C40 1.390 . S
C43 H42 0.950 . S
C43 C44 1.378 . S
C44 C43 1.378 . S
C44 C45 1.409 . S
C45 C41 1.387 . S
C45 C44 1.409 . S
C45 H47 0.951 . S
C46 C41 1.491 . S
C46 C48 1.382 . S
C46 C50 1.404 . S
H47 C45 0.951 . S
C48 C46 1.382 . S
C48 C49 1.390 . S
C48 H53 0.949 . S
C49 C48 1.390 . S
C49 C54 1.399 . S
C50 C46 1.404 . S
C50 H51 0.950 . S
C50 C52 1.375 . S
H51 C50 0.950 . S
C52 C50 1.375 . S
C52 C54 1.382 . S
C52 H56 0.950 . S
H53 C48 0.949 . S
C54 C49 1.399 . S
C54 C52 1.382 . S
C54 H55 0.952 . S
H55 C54 0.952 . S
H56 C52 0.950 . S
H57 C58 0.949 . S
C58 H57 0.949 . S
C58 C59 1.395 . S
C58 C60 1.391 . S
C59 C58 1.395 . S
C59 C62 1.390 . S
C60 C58 1.391 . S
C60 C64 1.387 . S
C60 C65 1.491 . S
H61 C62 0.950 . S
C62 C59 1.390 . S
C62 H61 0.950 . S
C62 C63 1.378 . S
C63 C62 1.378 . S
C63 C64 1.409 . S
C64 C60 1.387 . S
C64 C63 1.409 . S
C64 H66 0.951 . S
C65 C60 1.491 . S
C65 C67 1.382 . S
C65 C69 1.404 . S
H66 C64 0.951 . S
C67 C65 1.382 . S
C67 C68 1.390 . S
C67 H72 0.949 . S
C68 C67 1.390 . S
C68 C73 1.399 . S
C69 C65 1.404 . S
C69 H70 0.950 . S
C69 C71 1.375 . S
H70 C69 0.950 . S
C71 C69 1.375 . S
C71 C73 1.382 . S
C71 H75 0.950 . S
H72 C67 0.949 . S
C73 C68 1.399 . S
C73 C71 1.382 . S
C73 H74 0.952 . S
H74 C73 0.952 . S
H75 C71 0.950 . S
H76 C77 0.949 . S
C77 H76 0.949 . S
C77 C78 1.395 . S
C77 C79 1.391 . S
C78 C77 1.395 . S
C78 C81 1.390 . S
C79 C77 1.391 . S
C79 C83 1.387 . S
C79 C84 1.491 . S
H80 C81 0.950 . S
C81 C78 1.390 . S
C81 H80 0.950 . S
C81 C82 1.378 . S
C82 C81 1.378 . S
C82 C83 1.409 . S
C83 C79 1.387 . S
C83 C82 1.409 . S
C83 H85 0.951 . S
C84 C79 1.491 . S
C84 C86 1.382 . S
C84 C88 1.404 . S
H85 C83 0.951 . S
C86 C84 1.382 . S
C86 C87 1.390 . S
C86 H91 0.949 . S
C87 C86 1.390 . S
C87 C92 1.399 . S
C88 C84 1.404 . S
C88 H89 0.950 . S
C88 C90 1.375 . S
H89 C88 0.950 . S
C90 C88 1.375 . S
C90 C92 1.382 . S
C90 H94 0.950 . S
H91 C86 0.949 . S
C92 C87 1.399 . S
C92 C90 1.382 . S
C92 H93 0.952 . S
H93 C92 0.952 . S
H94 C90 0.950 . S
H95 C96 0.949 . S
C96 H95 0.949 . S
C96 C97 1.395 . S
C96 C98 1.391 . S
C97 C96 1.395 . S
C97 C100 1.390 . S
C98 C96 1.391 . S
C98 C102 1.387 . S
C98 C103 1.491 . S
H99 C100 0.950 . S
C100 C97 1.390 . S
C100 H99 0.950 . S
C100 C101 1.378 . S
C101 C100 1.378 . S
C101 C102 1.409 . S
C102 C98 1.387 . S
C102 C101 1.409 . S
C102 H104 0.951 . S
C103 C98 1.491 . S
C103 C105 1.382 . S
C103 C107 1.404 . S
H104 C102 0.951 . S
C105 C103 1.382 . S
C105 C106 1.390 . S
C105 H110 0.949 . S
C106 C105 1.390 . S
C106 C111 1.399 . S
C107 C103 1.404 . S
C107 H108 0.950 . S
C107 C109 1.375 . S
H108 C107 0.950 . S
C109 C107 1.375 . S
C109 C111 1.382 . S
C109 H113 0.950 . S
H110 C105 0.949 . S
C111 C106 1.399 . S
C111 C109 1.382 . S
C111 H112 0.952 . S
H112 C111 0.952 . S
H113 C109 0.950 . S
H114 C115 0.949 . S
C115 H114 0.949 . S
C115 C116 1.395 . S
C115 C117 1.391 . S
C116 C115 1.395 . S
C116 C119 1.390 . S
C117 C115 1.391 . S
C117 C121 1.387 . S
C117 C122 1.491 . S
H118 C119 0.950 . S
C119 C116 1.390 . S
C119 H118 0.950 . S
C119 C120 1.378 . S
C120 C119 1.378 . S
C120 C121 1.409 . S
C121 C117 1.387 . S
C121 C120 1.409 . S
C121 H123 0.951 . S
C122 C117 1.491 . S
C122 C124 1.382 . S
C122 C126 1.404 . S
H123 C121 0.951 . S
C124 C122 1.382 . S
C124 C125 1.390 . S
C124 H129 0.949 . S
C125 C124 1.390 . S
C125 C130 1.399 . S
C126 C122 1.404 . S
C126 H127 0.950 . S
C126 C128 1.375 . S
H127 C126 0.950 . S
C128 C126 1.375 . S
C128 C130 1.382 . S
C128 H132 0.950 . S
H129 C124 0.949 . S
C130 C125 1.399 . S
C130 C128 1.382 . S
C130 H131 0.952 . S
H131 C130 0.952 . S
H132 C128 0.950 . S
H133 C134 0.949 . S
C134 H133 0.949 . S
C134 C135 1.395 . S
C134 C136 1.391 . S
C135 C134 1.395 . S
C135 C138 1.390 . S
C136 C134 1.391 . S
C136 C140 1.387 . S
C136 C141 1.491 . S
H137 C138 0.950 . S
C138 C135 1.390 . S
C138 H137 0.950 . S
C138 C139 1.378 . S
C139 C138 1.378 . S
C139 C140 1.409 . S
C140 C136 1.387 . S
C140 C139 1.409 . S
C140 H142 0.951 . S
C141 C136 1.491 . S
C141 C143 1.382 . S
C141 C145 1.404 . S
H142 C140 0.951 . S
C143 C141 1.382 . S
C143 C144 1.390 . S
C143 H148 0.949 . S
C144 C143 1.390 . S
C144 C149 1.399 . S
C145 C141 1.404 . S
C145 H146 0.950 . S
C145 C147 1.375 . S
H146 C145 0.950 . S
C147 C145 1.375 . S
C147 C149 1.382 . S
C147 H151 0.950 . S
H148 C143 0.949 . S
C149 C144 1.399 . S
C149 C147 1.382 . S
C149 H150 0.952 . S
H150 C149 0.952 . S
H151 C147 0.950 . S
C152 C154 1.422 . S
C152 C156 1.415 . S
C152 N158 1.369 . S
C153 C154 1.421 . S
C153 C155 1.417 . S
C153 C165 1.422 . S
C154 C152 1.422 . S
C154 C153 1.421 . S
C154 N164 1.359 . S
C155 C153 1.417 . S
C155 C157 1.329 . S
C155 H174 0.930 . S
C156 C152 1.415 . S
C156 C157 1.437 . S
C156 C160 1.413 . S
C157 C155 1.329 . S
C157 C156 1.437 . S
C157 H179 0.929 . S
N158 C152 1.369 . S
N158 C159 1.338 . S
N158 Gd163 2.622 . S
C159 N158 1.338 . S
C159 C161 1.378 . S
C159 H171 0.929 . S
C160 C156 1.413 . S
C160 C161 1.348 . S
C160 H176 0.931 . S
C161 C159 1.378 . S
C161 C160 1.348 . S
C161 H177 0.930 . S
Gd162 N182 2.622 . S
Gd162 N189 2.570 . S
Gd162 O196 2.365 . S
Gd162 O197 2.468 . S
Gd162 O198 2.427 . S
Gd162 O200 2.388 . S
Gd162 O201 2.386 . S
Gd162 O205 2.305 1_455 S
Gd162 C215 2.805 . S
Gd163 N158 2.622 . S
Gd163 N164 2.570 . S
Gd163 O195 2.386 . S
Gd163 O199 2.307 1_655 S
Gd163 O202 2.353 1_655 S
Gd163 O203 2.468 . S
Gd163 O204 2.427 . S
Gd163 O206 2.388 . S
Gd163 C227 2.805 . S
N164 C154 1.359 . S
N164 Gd163 2.570 . S
N164 C166 1.343 . S
C165 C153 1.422 . S
C165 C167 1.321 . S
C165 H173 0.931 1_545 S
C166 N164 1.343 . S
C166 C167 1.390 . S
C166 H168 0.931 . S
C167 C165 1.321 . S
C167 C166 1.390 . S
C167 H169 0.930 1_545 S
H168 C166 0.931 . S
H169 C167 0.930 1_565 S
H170 C193 0.931 . S
H171 C159 0.929 . S
H172 C194 0.930 . S
H173 C165 0.931 1_565 S
H174 C155 0.930 . S
H175 C184 0.929 . S
H176 C160 0.931 . S
H177 C161 0.930 . S
H178 C216 0.930 . S
H179 C157 0.929 . S
H180 C185 0.931 . S
H181 C186 0.930 . S
N182 Gd162 2.622 . S
N182 C183 1.369 . S
N182 C184 1.338 . S
C183 N182 1.369 . S
C183 C187 1.415 . S
C183 C190 1.422 . S
C184 H175 0.929 . S
C184 N182 1.338 . S
C184 C186 1.378 . S
C185 H180 0.931 . S
C185 C186 1.348 . S
C185 C187 1.413 . S
C186 H181 0.930 . S
C186 C184 1.378 . S
C186 C185 1.348 . S
C187 C183 1.415 . S
C187 C185 1.413 . S
C187 C217 1.437 . S
H188 C217 0.929 . S
N189 Gd162 2.570 . S
N189 C190 1.359 . S
N189 C193 1.343 . S
C190 C183 1.422 . S
C190 N189 1.359 . S
C190 C192 1.421 . S
C191 C192 1.422 . S
C191 C194 1.321 . S
C191 H218 0.931 . S
C192 C190 1.421 . S
C192 C191 1.422 . S
C192 C216 1.417 . S
C193 H170 0.931 . S
C193 N189 1.343 . S
C193 C194 1.390 . S
C194 H172 0.930 . S
C194 C191 1.321 . S
C194 C193 1.390 . S
O195 Gd163 2.386 . S
O195 C207 1.265 . S
O196 Gd162 2.365 . S
O196 C207 1.227 1_455 S
O197 Gd162 2.468 . S
O197 C215 1.263 . S
O198 Gd162 2.427 . S
O198 C215 1.252 . S
O199 Gd163 2.307 1_455 S
O199 C208 1.261 . S
O200 Gd162 2.388 . S
O200 C208 1.252 . S
O201 Gd162 2.386 . S
O201 C219 1.265 . S
O202 Gd163 2.353 1_455 S
O202 C219 1.242 . S
O203 Gd163 2.468 . S
O203 C227 1.263 . S
O204 Gd163 2.427 . S
O204 C227 1.252 . S
O205 Gd162 2.305 1_655 S
O205 C220 1.264 . S
O206 Gd163 2.388 . S
O206 C220 1.252 . S
C207 O195 1.265 . S
C207 O196 1.227 1_655 S
C208 O199 1.261 . S
C208 O200 1.252 . S
C209 C212 1.394 . S
C209 C214 1.370 . S
C209 C215 1.500 . S
C210 C213 1.383 . S
C210 C214 1.395 . S
C211 C212 1.396 . S
C211 C213 1.365 . S
C211 H228 0.929 . S
C212 C209 1.394 . S
C212 C211 1.396 . S
C212 H229 0.930 . S
C213 C210 1.383 . S
C213 C211 1.365 . S
C213 H230 0.931 . S
C214 C209 1.370 . S
C214 C210 1.395 . S
C214 H231 0.930 . S
C215 Gd162 2.805 . S
C215 O197 1.263 . S
C215 O198 1.252 . S
C215 C209 1.500 . S
C216 H178 0.930 . S
C216 C192 1.417 . S
C216 C217 1.329 . S
C217 C187 1.437 . S
C217 H188 0.929 . S
C217 C216 1.329 . S
H218 C191 0.931 . S
C219 O201 1.265 . S
C219 O202 1.242 . S
C220 O205 1.264 . S
C220 O206 1.252 . S
C221 C224 1.394 . S
C221 C226 1.370 . S
C221 C227 1.500 . S
C222 C225 1.383 . S
C222 C226 1.395 . S
C223 C224 1.396 . S
C223 C225 1.365 . S
C223 H232 0.929 . S
C224 C221 1.394 . S
C224 C223 1.396 . S
C224 H233 0.930 . S
C225 C222 1.383 . S
C225 C223 1.365 . S
C225 H234 0.931 . S
C226 C221 1.370 . S
C226 C222 1.395 . S
C226 H235 0.930 . S
C227 Gd163 2.805 . S
C227 O203 1.263 . S
C227 O204 1.252 . S
C227 C221 1.500 . S
H228 C211 0.929 . S
H229 C212 0.930 . S
H230 C213 0.931 . S
H231 C214 0.930 . S
H232 C223 0.929 . S
H233 C224 0.930 . S
H234 C225 0.931 . S
H235 C226 0.930 . S
C236 C238 1.422 . S
C236 C240 1.415 . S
C236 N242 1.369 . S
C237 C238 1.421 . S
C237 C239 1.417 . S
C237 C249 1.422 . S
C238 C236 1.422 . S
C238 C237 1.421 . S
C238 N248 1.359 . S
C239 C237 1.417 . S
C239 C241 1.329 . S
C239 H258 0.930 . S
C240 C236 1.415 . S
C240 C241 1.437 . S
C240 C244 1.413 . S
C241 C239 1.329 . S
C241 C240 1.437 . S
C241 H263 0.929 . S
N242 C236 1.369 . S
N242 C243 1.338 . S
N242 Gd247 2.622 . S
C243 N242 1.338 . S
C243 C245 1.378 . S
C243 H255 0.929 . S
C244 C240 1.413 . S
C244 C245 1.348 . S
C244 H260 0.931 . S
C245 C243 1.378 . S
C245 C244 1.348 . S
C245 H261 0.930 . S
Gd246 N266 2.622 . S
Gd246 N273 2.570 . S
Gd246 O280 2.353 . S
Gd246 O281 2.468 . S
Gd246 O282 2.427 . S
Gd246 O284 2.388 . S
Gd246 O285 2.386 . S
Gd246 O289 2.307 . S
Gd246 C299 2.805 . S
Gd247 N242 2.622 . S
Gd247 N248 2.570 . S
Gd247 O279 2.386 . S
Gd247 O283 2.307 . S
Gd247 O286 2.353 . S
Gd247 O287 2.468 . S
Gd247 O288 2.427 . S
Gd247 O290 2.388 . S
Gd247 C311 2.805 . S
N248 C238 1.359 . S
N248 Gd247 2.570 . S
N248 C250 1.343 . S
C249 C237 1.422 . S
C249 C251 1.321 . S
C249 H257 0.931 . S
C250 N248 1.343 . S
C250 C251 1.390 . S
C250 H252 0.931 . S
C251 C249 1.321 . S
C251 C250 1.390 . S
C251 H253 0.930 . S
H252 C250 0.931 . S
H253 C251 0.930 . S
H254 C277 0.931 . S
H255 C243 0.929 . S
H256 C278 0.930 . S
H257 C249 0.931 . S
H258 C239 0.930 . S
H259 C268 0.929 . S
H260 C244 0.931 . S
H261 C245 0.930 . S
H262 C300 0.930 . S
H263 C241 0.929 . S
H264 C269 0.931 . S
H265 C270 0.930 . S
N266 Gd246 2.622 . S
N266 C267 1.369 . S
N266 C268 1.338 . S
C267 N266 1.369 . S
C267 C271 1.415 . S
C267 C274 1.422 . S
C268 H259 0.929 . S
C268 N266 1.338 . S
C268 C270 1.378 . S
C269 H264 0.931 . S
C269 C270 1.348 . S
C269 C271 1.413 . S
C270 H265 0.930 . S
C270 C268 1.378 . S
C270 C269 1.348 . S
C271 C267 1.415 . S
C271 C269 1.413 . S
C271 C301 1.437 . S
H272 C301 0.929 . S
N273 Gd246 2.570 . S
N273 C274 1.359 . S
N273 C277 1.343 . S
C274 C267 1.422 . S
C274 N273 1.359 . S
C274 C276 1.421 . S
C275 C276 1.422 . S
C275 C278 1.321 . S
C275 H302 0.931 . S
C276 C274 1.421 . S
C276 C275 1.422 . S
C276 C300 1.417 . S
C277 H254 0.931 . S
C277 N273 1.343 . S
C277 C278 1.390 . S
C278 H256 0.930 . S
C278 C275 1.321 . S
C278 C277 1.390 . S
O279 Gd247 2.386 . S
O279 C291 1.265 . S
O280 Gd246 2.353 . S
O280 C291 1.242 . S
O281 Gd246 2.468 . S
O281 C299 1.263 . S
O282 Gd246 2.427 . S
O282 C299 1.252 . S
O283 Gd247 2.307 . S
O283 C292 1.261 . S
O284 Gd246 2.388 . S
O284 C292 1.252 . S
O285 Gd246 2.386 . S
O285 C303 1.265 . S
O286 Gd247 2.353 . S
O286 C303 1.242 . S
O287 Gd247 2.468 . S
O287 C311 1.263 . S
O288 Gd247 2.427 . S
O288 C311 1.252 . S
O289 Gd246 2.307 . S
O289 C304 1.261 . S
O290 Gd247 2.388 . S
O290 C304 1.252 . S
C291 O279 1.265 . S
C291 O280 1.242 . S
C292 O283 1.261 . S
C292 O284 1.252 . S
C293 C296 1.394 . S
C293 C298 1.370 . S
C293 C299 1.500 . S
C294 C297 1.383 . S
C294 C298 1.395 . S
C295 C296 1.396 . S
C295 C297 1.365 . S
C295 H312 0.929 . S
C296 C293 1.394 . S
C296 C295 1.396 . S
C296 H313 0.930 . S
C297 C294 1.383 . S
C297 C295 1.365 . S
C297 H314 0.931 . S
C298 C293 1.370 . S
C298 C294 1.395 . S
C298 H315 0.930 . S
C299 Gd246 2.805 . S
C299 O281 1.263 . S
C299 O282 1.252 . S
C299 C293 1.500 . S
C300 H262 0.930 . S
C300 C276 1.417 . S
C300 C301 1.329 . S
C301 C271 1.437 . S
C301 H272 0.929 . S
C301 C300 1.329 . S
H302 C275 0.931 . S
C303 O285 1.265 . S
C303 O286 1.242 . S
C304 O289 1.261 . S
C304 O290 1.252 . S
C305 C308 1.394 . S
C305 C310 1.370 . S
C305 C311 1.500 . S
C306 C309 1.383 . S
C306 C310 1.395 . S
C307 C308 1.396 . S
C307 C309 1.365 . S
C307 H316 0.929 . S
C308 C305 1.394 . S
C308 C307 1.396 . S
C308 H317 0.930 . S
C309 C306 1.383 . S
C309 C307 1.365 . S
C309 H318 0.931 . S
C310 C305 1.370 . S
C310 C306 1.395 . S
C310 H319 0.930 . S
C311 Gd247 2.805 . S
C311 O287 1.263 . S
C311 O288 1.252 . S
C311 C305 1.500 . S
H312 C295 0.929 . S
H313 C296 0.930 . S
H314 C297 0.931 . S
H315 C298 0.930 . S
H316 C307 0.929 . S
H317 C308 0.930 . S
H318 C309 0.931 . S
H319 C310 0.930 . S
C320 C322 1.422 . S
C320 C324 1.415 . S
C320 N326 1.369 . S
C321 C322 1.421 . S
C321 C323 1.417 . S
C321 C333 1.422 . S
C322 C320 1.422 . S
C322 C321 1.421 . S
C322 N332 1.359 . S
C323 C321 1.417 . S
C323 C325 1.329 . S
C323 H342 0.930 . S
C324 C320 1.415 . S
C324 C325 1.437 . S
C324 C328 1.413 . S
C325 C323 1.329 . S
C325 C324 1.437 . S
C325 H347 0.929 . S
N326 C320 1.369 . S
N326 C327 1.338 . S
N326 Gd331 2.622 . S
C327 N326 1.338 . S
C327 C329 1.378 . S
C327 H339 0.929 . S
C328 C324 1.413 . S
C328 C329 1.348 . S
C328 H344 0.931 . S
C329 C327 1.378 . S
C329 C328 1.348 . S
C329 H345 0.930 . S
Gd330 N350 2.622 . S
Gd330 N357 2.570 . S
Gd330 O364 2.353 . S
Gd330 O365 2.468 . S
Gd330 O366 2.427 . S
Gd330 O368 2.388 . S
Gd330 O369 2.386 . S
Gd330 O373 2.307 . S
Gd330 C383 2.805 . S
Gd331 N326 2.622 . S
Gd331 N332 2.570 . S
Gd331 O363 2.386 . S
Gd331 O367 2.307 1_655 S
Gd331 O370 2.353 1_655 S
Gd331 O371 2.468 . S
Gd331 O372 2.427 . S
Gd331 O374 2.388 . S
Gd331 C395 2.805 . S
N332 C322 1.359 . S
N332 Gd331 2.570 . S
N332 C334 1.343 . S
C333 C321 1.422 . S
C333 C335 1.321 . S
C333 H341 0.931 . S
C334 N332 1.343 . S
C334 C335 1.390 . S
C334 H336 0.931 . S
C335 C333 1.321 . S
C335 C334 1.390 . S
C335 H337 0.930 . S
H336 C334 0.931 . S
H337 C335 0.930 . S
H338 C361 0.931 . S
H339 C327 0.929 . S
H340 C362 0.930 1_545 S
H341 C333 0.931 . S
H342 C323 0.930 . S
H343 C352 0.929 . S
H344 C328 0.931 . S
H345 C329 0.930 . S
H346 C384 0.930 . S
H347 C325 0.929 . S
H348 C353 0.931 . S
H349 C354 0.930 . S
N350 Gd330 2.622 . S
N350 C351 1.369 . S
N350 C352 1.338 . S
C351 N350 1.369 . S
C351 C355 1.415 . S
C351 C358 1.422 . S
C352 H343 0.929 . S
C352 N350 1.338 . S
C352 C354 1.378 . S
C353 H348 0.931 . S
C353 C354 1.348 . S
C353 C355 1.413 . S
C354 H349 0.930 . S
C354 C352 1.378 . S
C354 C353 1.348 . S
C355 C351 1.415 . S
C355 C353 1.413 . S
C355 C385 1.437 . S
H356 C385 0.929 . S
N357 Gd330 2.570 . S
N357 C358 1.359 . S
N357 C361 1.343 . S
C358 C351 1.422 . S
C358 N357 1.359 . S
C358 C360 1.421 . S
C359 C360 1.422 . S
C359 C362 1.321 . S
C359 H386 0.931 1_565 S
C360 C358 1.421 . S
C360 C359 1.422 . S
C360 C384 1.417 . S
C361 H338 0.931 . S
C361 N357 1.343 . S
C361 C362 1.390 . S
C362 H340 0.930 1_565 S
C362 C359 1.321 . S
C362 C361 1.390 . S
O363 Gd331 2.386 . S
O363 C375 1.265 . S
O364 Gd330 2.353 . S
O364 C375 1.242 1_455 S
O365 Gd330 2.468 . S
O365 C383 1.263 . S
O366 Gd330 2.427 . S
O366 C383 1.252 . S
O367 Gd331 2.307 1_455 S
O367 C376 1.261 . S
O368 Gd330 2.388 . S
O368 C376 1.252 . S
O369 Gd330 2.386 . S
O369 C387 1.265 . S
O370 Gd331 2.353 1_455 S
O370 C387 1.242 . S
O371 Gd331 2.468 . S
O371 C395 1.263 . S
O372 Gd331 2.427 . S
O372 C395 1.252 . S
O373 Gd330 2.307 . S
O373 C388 1.261 1_455 S
O374 Gd331 2.388 . S
O374 C388 1.252 . S
C375 O363 1.265 . S
C375 O364 1.242 1_655 S
C376 O367 1.261 . S
C376 O368 1.252 . S
C377 C380 1.394 . S
C377 C382 1.370 . S
C377 C383 1.500 . S
C378 C381 1.383 . S
C378 C382 1.395 . S
C379 C380 1.396 . S
C379 C381 1.365 . S
C379 H396 0.929 . S
C380 C377 1.394 . S
C380 C379 1.396 . S
C380 H397 0.930 . S
C381 C378 1.383 . S
C381 C379 1.365 . S
C381 H398 0.931 . S
C382 C377 1.370 . S
C382 C378 1.395 . S
C382 H399 0.930 . S
C383 Gd330 2.805 . S
C383 O365 1.263 . S
C383 O366 1.252 . S
C383 C377 1.500 . S
C384 H346 0.930 . S
C384 C360 1.417 . S
C384 C385 1.329 . S
C385 C355 1.437 . S
C385 H356 0.929 . S
C385 C384 1.329 . S
H386 C359 0.931 1_545 S
C387 O369 1.265 . S
C387 O370 1.242 . S
C388 O373 1.261 1_655 S
C388 O374 1.252 . S
C389 C392 1.394 . S
C389 C394 1.370 . S
C389 C395 1.500 . S
C390 C393 1.383 . S
C390 C394 1.395 . S
C391 C392 1.396 . S
C391 C393 1.365 . S
C391 H400 0.929 . S
C392 C389 1.394 . S
C392 C391 1.396 . S
C392 H401 0.930 . S
C393 C390 1.383 . S
C393 C391 1.365 . S
C393 H402 0.931 . S
C394 C389 1.370 . S
C394 C390 1.395 . S
C394 H403 0.930 . S
C395 Gd331 2.805 . S
C395 O371 1.263 . S
C395 O372 1.252 . S
C395 C389 1.500 . S
H396 C379 0.929 . S
H397 C380 0.930 . S
H398 C381 0.931 . S
H399 C382 0.930 . S
H400 C391 0.929 . S
H401 C392 0.930 . S
H402 C393 0.931 . S
H403 C394 0.930 . S
C404 C406 1.422 . S
C404 C408 1.415 . S
C404 N410 1.369 . S
C405 C406 1.421 . S
C405 C407 1.417 . S
C405 C417 1.422 . S
C406 C404 1.422 . S
C406 C405 1.421 . S
C406 N416 1.359 . S
C407 C405 1.417 . S
C407 C409 1.329 . S
C407 H426 0.930 . S
C408 C404 1.415 . S
C408 C409 1.437 . S
C408 C412 1.413 . S
C409 C407 1.329 . S
C409 C408 1.437 . S
C409 H431 0.929 . S
N410 C404 1.369 . S
N410 C411 1.338 . S
N410 Gd415 2.622 . S
C411 N410 1.338 . S
C411 C413 1.378 . S
C411 H423 0.929 . S
C412 C408 1.413 . S
C412 C413 1.348 . S
C412 H428 0.931 . S
C413 C411 1.378 . S
C413 C412 1.348 . S
C413 H429 0.930 . S
Gd414 N434 2.622 . S
Gd414 N441 2.570 . S
Gd414 O448 2.353 . S
Gd414 O449 2.468 . S
Gd414 O450 2.427 . S
Gd414 O452 2.388 . S
Gd414 O453 2.386 . S
Gd414 O457 2.307 . S
Gd414 C467 2.805 . S
Gd415 N410 2.622 . S
Gd415 N416 2.570 . S
Gd415 O447 2.386 . S
Gd415 O451 2.307 . S
Gd415 O454 2.353 . S
Gd415 O455 2.468 . S
Gd415 O456 2.427 . S
Gd415 O458 2.388 . S
Gd415 C479 2.805 . S
N416 C406 1.359 . S
N416 Gd415 2.570 . S
N416 C418 1.343 . S
C417 C405 1.422 . S
C417 C419 1.321 . S
C417 H425 0.931 . S
C418 N416 1.343 . S
C418 C419 1.390 . S
C418 H420 0.931 . S
C419 C417 1.321 . S
C419 C418 1.390 . S
C419 H421 0.930 . S
H420 C418 0.931 . S
H421 C419 0.930 . S
H422 C445 0.931 . S
H423 C411 0.929 . S
H424 C446 0.930 . S
H425 C417 0.931 . S
H426 C407 0.930 . S
H427 C436 0.929 . S
H428 C412 0.931 . S
H429 C413 0.930 . S
H430 C468 0.930 . S
H431 C409 0.929 . S
H432 C437 0.931 . S
H433 C438 0.930 . S
N434 Gd414 2.622 . S
N434 C435 1.369 . S
N434 C436 1.338 . S
C435 N434 1.369 . S
C435 C439 1.415 . S
C435 C442 1.422 . S
C436 H427 0.929 . S
C436 N434 1.338 . S
C436 C438 1.378 . S
C437 H432 0.931 . S
C437 C438 1.348 . S
C437 C439 1.413 . S
C438 H433 0.930 . S
C438 C436 1.378 . S
C438 C437 1.348 . S
C439 C435 1.415 . S
C439 C437 1.413 . S
C439 C469 1.437 . S
H440 C469 0.929 . S
N441 Gd414 2.570 . S
N441 C442 1.359 . S
N441 C445 1.343 . S
C442 C435 1.422 . S
C442 N441 1.359 . S
C442 C444 1.421 . S
C443 C444 1.422 . S
C443 C446 1.321 . S
C443 H470 0.931 . S
C444 C442 1.421 . S
C444 C443 1.422 . S
C444 C468 1.417 . S
C445 H422 0.931 . S
C445 N441 1.343 . S
C445 C446 1.390 . S
C446 H424 0.930 . S
C446 C443 1.321 . S
C446 C445 1.390 . S
O447 Gd415 2.386 . S
O447 C459 1.265 . S
O448 Gd414 2.353 . S
O448 C459 1.242 . S
O449 Gd414 2.468 . S
O449 C467 1.263 . S
O450 Gd414 2.427 . S
O450 C467 1.252 . S
O451 Gd415 2.307 . S
O451 C460 1.261 . S
O452 Gd414 2.388 . S
O452 C460 1.252 . S
O453 Gd414 2.386 . S
O453 C471 1.265 . S
O454 Gd415 2.353 . S
O454 C471 1.242 . S
O455 Gd415 2.468 . S
O455 C479 1.263 . S
O456 Gd415 2.427 . S
O456 C479 1.252 . S
O457 Gd414 2.307 . S
O457 C472 1.261 . S
O458 Gd415 2.388 . S
O458 C472 1.252 . S
C459 O447 1.265 . S
C459 O448 1.242 . S
C460 O451 1.261 . S
C460 O452 1.252 . S
C461 C464 1.394 . S
C461 C466 1.370 . S
C461 C467 1.500 . S
C462 C465 1.383 . S
C462 C466 1.395 . S
C463 C464 1.396 . S
C463 C465 1.365 . S
C463 H480 0.929 . S
C464 C461 1.394 . S
C464 C463 1.396 . S
C464 H481 0.930 . S
C465 C462 1.383 . S
C465 C463 1.365 . S
C465 H482 0.931 . S
C466 C461 1.370 . S
C466 C462 1.395 . S
C466 H483 0.930 . S
C467 Gd414 2.805 . S
C467 O449 1.263 . S
C467 O450 1.252 . S
C467 C461 1.500 . S
C468 H430 0.930 . S
C468 C444 1.417 . S
C468 C469 1.329 . S
C469 C439 1.437 . S
C469 H440 0.929 . S
C469 C468 1.329 . S
H470 C443 0.931 . S
C471 O453 1.265 . S
C471 O454 1.242 . S
C472 O457 1.261 . S
C472 O458 1.252 . S
C473 C476 1.394 . S
C473 C478 1.370 . S
C473 C479 1.500 . S
C474 C477 1.383 . S
C474 C478 1.395 . S
C475 C476 1.396 . S
C475 C477 1.365 . S
C475 H484 0.929 . S
C476 C473 1.394 . S
C476 C475 1.396 . S
C476 H485 0.930 . S
C477 C474 1.383 . S
C477 C475 1.365 . S
C477 H486 0.931 . S
C478 C473 1.370 . S
C478 C474 1.395 . S
C478 H487 0.930 . S
C479 Gd415 2.805 . S
C479 O455 1.263 . S
C479 O456 1.252 . S
C479 C473 1.500 . S
H480 C463 0.929 . S
H481 C464 0.930 . S
H482 C465 0.931 . S
H483 C466 0.930 . S
H484 C475 0.929 . S
H485 C476 0.930 . S
H486 C477 0.931 . S
H487 C478 0.930 . S
H488 C506 0.951 . S
H489 C508 0.951 . S
H490 C510 0.950 . S
H491 C511 0.950 . S
H492 C513 0.950 . S
H493 C516 0.950 . S
H494 C517 0.950 . S
H495 C519 0.950 1_545 S
H496 C520 0.921 1_545 S
H497 C521 0.951 . S
H498 C523 0.951 . S
H499 C525 0.950 . S
H500 C526 0.950 . S
H501 C528 0.950 . S
H502 C531 0.950 . S
H503 C532 0.952 1_545 S
H504 C534 0.950 . S
H505 C535 0.950 . S
C506 H488 0.951 . S
C506 C507 1.366 . S
C506 C508 1.388 . S
C507 C506 1.366 . S
C507 C511 1.385 . S
C508 H489 0.951 . S
C508 C506 1.388 . S
C508 C509 1.366 . S
C509 C508 1.366 . S
C509 C510 1.414 . S
C509 C512 1.499 . S
C510 H490 0.950 . S
C510 C509 1.414 . S
C510 C511 1.374 . S
C511 H491 0.950 . S
C511 C507 1.385 . S
C511 C510 1.374 . S
C512 C509 1.499 . S
C512 C513 1.373 . S
C512 C514 1.389 . S
C513 H492 0.950 . S
C513 C512 1.373 . S
C513 C529 1.377 . S
C514 C512 1.389 . S
C514 C515 1.524 . S
C514 C528 1.377 . S
C515 C514 1.524 . S
C515 C516 1.397 . S
C515 C520 1.363 . S
C516 H493 0.950 . S
C516 C515 1.397 . S
C516 C517 1.334 . S
C517 H494 0.950 . S
C517 C516 1.334 . S
C517 C518 1.287 . S
C518 C517 1.287 . S
C518 C519 1.524 . S
C518 H537 0.913 . S
C519 H495 0.950 1_565 S
C519 C518 1.524 . S
C519 C520 1.415 . S
C520 H496 0.921 1_565 S
C520 C515 1.363 . S
C520 C519 1.415 . S
C521 H497 0.951 . S
C521 C522 1.366 . S
C521 C523 1.388 1_545 S
C522 C521 1.366 . S
C522 C526 1.385 . S
C523 H498 0.951 . S
C523 C521 1.388 1_565 S
C523 C524 1.363 1_565 S
C524 C523 1.363 1_545 S
C524 C525 1.425 . S
C524 C527 1.491 1_545 S
C525 H499 0.950 . S
C525 C524 1.425 . S
C525 C526 1.374 . S
C526 H500 0.950 . S
C526 C522 1.385 . S
C526 C525 1.374 . S
C527 C524 1.491 1_565 S
C527 C528 1.373 . S
C527 C529 1.389 . S
C528 H501 0.950 . S
C528 C514 1.377 . S
C528 C527 1.373 . S
C529 C513 1.377 . S
C529 C527 1.389 . S
C529 C530 1.524 . S
C530 C529 1.524 . S
C530 C531 1.397 . S
C530 C535 1.363 . S
C531 H502 0.950 . S
C531 C530 1.397 . S
C531 C532 1.334 . S
C532 H503 0.952 1_565 S
C532 C531 1.334 . S
C532 C533 1.287 . S
C533 C532 1.287 . S
C533 C534 1.524 . S
C533 H536 0.999 . S
C534 H504 0.950 . S
C534 C533 1.524 . S
C534 C535 1.415 . S
C535 H505 0.950 . S
C535 C530 1.363 . S
C535 C534 1.415 . S
H536 C533 0.999 . S
H537 C518 0.913 . S
H538 C556 0.951 . S
H539 C558 0.951 . S
H540 C560 0.950 . S
H541 C561 0.950 . S
H542 C563 0.950 . S
H543 C566 0.950 . S
H544 C567 0.950 . S
H545 C569 0.950 . S
H546 C570 0.950 . S
H547 C571 0.951 . S
H548 C573 0.951 . S
H549 C575 0.950 . S
H550 C576 0.950 . S
H551 C578 0.950 . S
H552 C581 0.950 . S
H553 C582 0.950 . S
H554 C584 0.950 . S
H555 C585 0.950 . S
C556 H538 0.951 . S
C556 C557 1.366 . S
C556 C558 1.388 . S
C557 C556 1.366 . S
C557 C561 1.385 . S
C558 H539 0.951 . S
C558 C556 1.388 . S
C558 C559 1.366 . S
C559 C558 1.366 . S
C559 C560 1.414 . S
C559 C562 1.499 . S
C560 H540 0.950 . S
C560 C559 1.414 . S
C560 C561 1.374 . S
C561 H541 0.950 . S
C561 C557 1.385 . S
C561 C560 1.374 . S
C562 C559 1.499 . S
C562 C563 1.373 . S
C562 C564 1.389 . S
C563 H542 0.950 . S
C563 C562 1.373 . S
C563 C579 1.377 . S
C564 C562 1.389 . S
C564 C565 1.524 . S
C564 C578 1.377 . S
C565 C564 1.524 . S
C565 C566 1.397 . S
C565 C570 1.363 . S
C566 H543 0.950 . S
C566 C565 1.397 . S
C566 C567 1.334 . S
C567 H544 0.950 . S
C567 C566 1.334 . S
C567 C568 1.287 . S
C568 C567 1.287 . S
C568 C569 1.524 . S
C568 H587 0.913 . S
C569 H545 0.950 . S
C569 C568 1.524 . S
C569 C570 1.415 . S
C570 H546 0.950 . S
C570 C565 1.363 . S
C570 C569 1.415 . S
C571 H547 0.951 . S
C571 C572 1.366 . S
C571 C573 1.388 . S
C572 C571 1.366 . S
C572 C576 1.385 . S
C573 H548 0.951 . S
C573 C571 1.388 . S
C573 C574 1.366 . S
C574 C573 1.366 . S
C574 C575 1.414 . S
C574 C577 1.499 . S
C575 H549 0.950 . S
C575 C574 1.414 . S
C575 C576 1.374 . S
C576 H550 0.950 . S
C576 C572 1.385 . S
C576 C575 1.374 . S
C577 C574 1.499 . S
C577 C578 1.373 . S
C577 C579 1.389 . S
C578 H551 0.950 . S
C578 C564 1.377 . S
C578 C577 1.373 . S
C579 C563 1.377 . S
C579 C577 1.389 . S
C579 C580 1.524 . S
C580 C579 1.524 . S
C580 C581 1.397 . S
C580 C585 1.363 . S
C581 H552 0.950 . S
C581 C580 1.397 . S
C581 C582 1.334 . S
C582 H553 0.950 . S
C582 C581 1.334 . S
C582 C583 1.287 . S
C583 C582 1.287 . S
C583 C584 1.524 . S
C583 H586 0.999 . S
C584 H554 0.950 . S
C584 C583 1.524 . S
C584 C585 1.415 . S
C585 H555 0.950 . S
C585 C580 1.363 . S
C585 C584 1.415 . S
H586 C583 0.999 . S
H587 C568 0.913 . S
H588 C606 0.951 . S
H589 C608 0.951 . S
H590 C610 0.950 . S
H591 C611 0.950 . S
H592 C613 0.950 . S
H593 C616 0.950 . S
H594 C617 0.950 . S
H595 C619 0.950 . S
H596 C620 0.950 . S
H597 C621 0.951 . S
H598 C623 0.951 . S
H599 C625 0.950 . S
H600 C626 0.950 . S
H601 C628 0.950 . S
H602 C631 0.950 . S
H603 C632 0.950 . S
H604 C634 0.950 . S
H605 C635 0.950 . S
C606 H588 0.951 . S
C606 C607 1.366 . S
C606 C608 1.388 . S
C607 C606 1.366 . S
C607 C611 1.385 . S
C608 H589 0.951 . S
C608 C606 1.388 . S
C608 C609 1.366 . S
C609 C608 1.366 . S
C609 C610 1.414 . S
C609 C612 1.499 . S
C610 H590 0.950 . S
C610 C609 1.414 . S
C610 C611 1.374 . S
C611 H591 0.950 . S
C611 C607 1.385 . S
C611 C610 1.374 . S
C612 C609 1.499 . S
C612 C613 1.373 . S
C612 C614 1.389 . S
C613 H592 0.950 . S
C613 C612 1.373 . S
C613 C629 1.377 . S
C614 C612 1.389 . S
C614 C615 1.524 . S
C614 C628 1.377 . S
C615 C614 1.524 . S
C615 C616 1.397 . S
C615 C620 1.363 . S
C616 H593 0.950 . S
C616 C615 1.397 . S
C616 C617 1.334 . S
C617 H594 0.950 . S
C617 C616 1.334 . S
C617 C618 1.287 . S
C618 C617 1.287 . S
C618 C619 1.524 . S
C618 H637 0.913 . S
C619 H595 0.950 . S
C619 C618 1.524 . S
C619 C620 1.415 . S
C620 H596 0.950 . S
C620 C615 1.363 . S
C620 C619 1.415 . S
C621 H597 0.951 . S
C621 C622 1.366 . S
C621 C623 1.388 . S
C622 C621 1.366 . S
C622 C626 1.385 . S
C623 H598 0.951 . S
C623 C621 1.388 . S
C623 C624 1.366 . S
C624 C623 1.366 . S
C624 C625 1.414 . S
C624 C627 1.499 . S
C625 H599 0.950 . S
C625 C624 1.414 . S
C625 C626 1.374 . S
C626 H600 0.950 . S
C626 C622 1.385 . S
C626 C625 1.374 . S
C627 C624 1.499 . S
C627 C628 1.373 . S
C627 C629 1.389 . S
C628 H601 0.950 . S
C628 C614 1.377 . S
C628 C627 1.373 . S
C629 C613 1.377 . S
C629 C627 1.389 . S
C629 C630 1.524 . S
C630 C629 1.524 . S
C630 C631 1.397 . S
C630 C635 1.363 . S
C631 H602 0.950 . S
C631 C630 1.397 . S
C631 C632 1.334 . S
C632 H603 0.950 . S
C632 C631 1.334 . S
C632 C633 1.287 . S
C633 C632 1.287 . S
C633 C634 1.524 . S
C633 H636 0.999 . S
C634 H604 0.950 . S
C634 C633 1.524 . S
C634 C635 1.415 . S
C635 H605 0.950 . S
C635 C630 1.363 . S
C635 C634 1.415 . S
H636 C633 0.999 . S
H637 C618 0.913 . S
H638 C656 0.951 . S
H639 C658 0.951 . S
H640 C660 0.950 . S
H641 C661 0.950 . S
H642 C663 0.950 . S
H643 C666 0.950 . S
H644 C667 0.950 . S
H645 C669 0.950 . S
H646 C670 0.950 . S
H647 C671 0.951 . S
H648 C673 0.951 . S
H649 C675 0.950 . S
H650 C676 0.950 . S
H651 C678 0.950 . S
H652 C681 0.950 1_545 S
H653 C682 0.950 1_545 S
H654 C684 0.950 . S
H655 C685 0.950 . S
C656 H638 0.951 . S
C656 C657 1.366 . S
C656 C658 1.388 . S
C657 C656 1.366 . S
C657 C661 1.385 . S
C658 H639 0.951 . S
C658 C656 1.388 . S
C658 C659 1.366 . S
C659 C658 1.366 . S
C659 C660 1.414 . S
C659 C662 1.499 . S
C660 H640 0.950 . S
C660 C659 1.414 . S
C660 C661 1.374 . S
C661 H641 0.950 . S
C661 C657 1.385 . S
C661 C660 1.374 . S
C662 C659 1.499 . S
C662 C663 1.373 . S
C662 C664 1.389 . S
C663 H642 0.950 . S
C663 C662 1.373 . S
C663 C679 1.377 . S
C664 C662 1.389 . S
C664 C665 1.524 . S
C664 C678 1.377 . S
C665 C664 1.524 . S
C665 C666 1.397 . S
C665 C670 1.363 . S
C666 H643 0.950 . S
C666 C665 1.397 . S
C666 C667 1.334 . S
C667 H644 0.950 . S
C667 C666 1.334 . S
C667 C668 1.287 . S
C668 C667 1.287 . S
C668 C669 1.524 . S
C668 H687 0.913 . S
C669 H645 0.950 . S
C669 C668 1.524 . S
C669 C670 1.415 . S
C670 H646 0.950 . S
C670 C665 1.363 . S
C670 C669 1.415 . S
C671 H647 0.951 . S
C671 C672 1.366 . S
C671 C673 1.388 1_545 S
C672 C671 1.366 . S
C672 C676 1.385 . S
C673 H648 0.951 . S
C673 C671 1.388 1_565 S
C673 C674 1.357 1_565 S
C674 C673 1.357 1_545 S
C674 C675 1.443 . S
C674 C677 1.479 1_545 S
C675 H649 0.950 . S
C675 C674 1.443 . S
C675 C676 1.374 . S
C676 H650 0.950 . S
C676 C672 1.385 . S
C676 C675 1.374 . S
C677 C674 1.479 1_565 S
C677 C678 1.373 . S
C677 C679 1.389 . S
C678 H651 0.950 . S
C678 C664 1.377 . S
C678 C677 1.373 . S
C679 C663 1.377 . S
C679 C677 1.389 . S
C679 C680 1.524 . S
C680 C679 1.524 . S
C680 C681 1.397 . S
C680 C685 1.363 . S
C681 H652 0.950 1_565 S
C681 C680 1.397 . S
C681 C682 1.334 . S
C682 H653 0.950 1_565 S
C682 C681 1.334 . S
C682 C683 1.287 . S
C683 C682 1.287 . S
C683 C684 1.524 . S
C683 H686 0.999 . S
C684 H654 0.950 . S
C684 C683 1.524 . S
C684 C685 1.415 . S
C685 H655 0.950 . S
C685 C680 1.363 . S
C685 C684 1.415 . S
H686 C683 0.999 . S
H687 C668 0.913 . S
H688 C706 0.951 . S
H689 C708 0.951 . S
H690 C710 0.950 . S
H691 C711 0.950 . S
H692 C713 0.950 . S
H693 C716 0.950 . S
H694 C717 0.950 . S
H695 C719 0.950 . S
H696 C720 0.950 . S
H697 C721 0.951 . S
H698 C723 0.951 . S
H699 C725 0.950 . S
H700 C726 0.950 . S
H701 C728 0.950 . S
H702 C731 0.950 . S
H703 C732 0.950 . S
H704 C734 0.950 . S
H705 C735 0.950 . S
C706 H688 0.951 . S
C706 C707 1.366 . S
C706 C708 1.388 . S
C707 C706 1.366 . S
C707 C711 1.385 . S
C708 H689 0.951 . S
C708 C706 1.388 . S
C708 C709 1.366 . S
C709 C708 1.366 . S
C709 C710 1.414 . S
C709 C712 1.499 . S
C710 H690 0.950 . S
C710 C709 1.414 . S
C710 C711 1.374 . S
C711 H691 0.950 . S
C711 C707 1.385 . S
C711 C710 1.374 . S
C712 C709 1.499 . S
C712 C713 1.373 . S
C712 C714 1.389 . S
C713 H692 0.950 . S
C713 C712 1.373 . S
C713 C729 1.377 . S
C714 C712 1.389 . S
C714 C715 1.524 . S
C714 C728 1.377 . S
C715 C714 1.524 . S
C715 C716 1.397 . S
C715 C720 1.363 . S
C716 H693 0.950 . S
C716 C715 1.397 . S
C716 C717 1.334 . S
C717 H694 0.950 . S
C717 C716 1.334 . S
C717 C718 1.287 . S
C718 C717 1.287 . S
C718 C719 1.524 . S
C718 H737 0.913 . S
C719 H695 0.950 . S
C719 C718 1.524 . S
C719 C720 1.415 . S
C720 H696 0.950 . S
C720 C715 1.363 . S
C720 C719 1.415 . S
C721 H697 0.951 . S
C721 C722 1.366 . S
C721 C723 1.388 . S
C722 C721 1.366 . S
C722 C726 1.385 . S
C723 H698 0.951 . S
C723 C721 1.388 . S
C723 C724 1.347 1_565 S
C724 C723 1.347 1_545 S
C724 C725 1.417 . S
C724 C727 1.514 . S
C725 H699 0.950 . S
C725 C724 1.417 . S
C725 C726 1.374 1_545 S
C726 H700 0.950 . S
C726 C722 1.385 . S
C726 C725 1.374 1_565 S
C727 C724 1.514 . S
C727 C728 1.373 . S
C727 C729 1.389 . S
C728 H701 0.950 . S
C728 C714 1.377 . S
C728 C727 1.373 . S
C729 C713 1.377 . S
C729 C727 1.389 . S
C729 C730 1.524 . S
C730 C729 1.524 . S
C730 C731 1.397 . S
C730 C735 1.363 . S
C731 H702 0.950 . S
C731 C730 1.397 . S
C731 C732 1.334 . S
C732 H703 0.950 . S
C732 C731 1.334 . S
C732 C733 1.287 . S
C733 C732 1.287 . S
C733 C734 1.524 . S
C733 H736 0.999 . S
C734 H704 0.950 . S
C734 C733 1.524 . S
C734 C735 1.415 . S
C735 H705 0.950 . S
C735 C730 1.363 . S
C735 C734 1.415 . S
H736 C733 0.999 . S
H737 C718 0.913 . S
H738 C756 0.951 . S
H739 C758 0.951 . S
H740 C760 0.950 . S
H741 C761 0.950 . S
H742 C763 0.950 . S
H743 C766 0.950 . S
H744 C767 0.950 . S
H745 C769 0.950 . S
H746 C770 0.950 . S
H747 C771 0.951 . S
H748 C773 0.951 . S
H749 C775 0.950 . S
H750 C776 0.950 . S
H751 C778 0.950 . S
H752 C781 0.950 . S
H753 C782 0.950 . S
H754 C784 0.950 . S
H755 C785 0.950 . S
C756 H738 0.951 . S
C756 C757 1.366 . S
C756 C758 1.388 . S
C757 C756 1.366 . S
C757 C761 1.385 . S
C758 H739 0.951 . S
C758 C756 1.388 . S
C758 C759 1.366 . S
C759 C758 1.366 . S
C759 C760 1.414 . S
C759 C762 1.499 . S
C760 H740 0.950 . S
C760 C759 1.414 . S
C760 C761 1.374 . S
C761 H741 0.950 . S
C761 C757 1.385 . S
C761 C760 1.374 . S
C762 C759 1.499 . S
C762 C763 1.373 . S
C762 C764 1.389 . S
C763 H742 0.950 . S
C763 C762 1.373 . S
C763 C779 1.377 . S
C764 C762 1.389 . S
C764 C765 1.524 . S
C764 C778 1.377 . S
C765 C764 1.524 . S
C765 C766 1.397 . S
C765 C770 1.363 . S
C766 H743 0.950 . S
C766 C765 1.397 . S
C766 C767 1.334 . S
C767 H744 0.950 . S
C767 C766 1.334 . S
C767 C768 1.287 . S
C768 C767 1.287 . S
C768 C769 1.524 . S
C768 H787 0.913 . S
C769 H745 0.950 . S
C769 C768 1.524 . S
C769 C770 1.415 . S
C770 H746 0.950 . S
C770 C765 1.363 . S
C770 C769 1.415 . S
C771 H747 0.951 . S
C771 C772 1.366 . S
C771 C773 1.388 . S
C772 C771 1.366 . S
C772 C776 1.385 . S
C773 H748 0.951 . S
C773 C771 1.388 . S
C773 C774 1.366 . S
C774 C773 1.366 . S
C774 C775 1.414 . S
C774 C777 1.499 . S
C775 H749 0.950 . S
C775 C774 1.414 . S
C775 C776 1.374 . S
C776 H750 0.950 . S
C776 C772 1.385 . S
C776 C775 1.374 . S
C777 C774 1.499 . S
C777 C778 1.373 . S
C777 C779 1.389 . S
C778 H751 0.950 . S
C778 C764 1.377 . S
C778 C777 1.373 . S
C779 C763 1.377 . S
C779 C777 1.389 . S
C779 C780 1.524 . S
C780 C779 1.524 . S
C780 C781 1.397 . S
C780 C785 1.363 . S
C781 H752 0.950 . S
C781 C780 1.397 . S
C781 C782 1.334 . S
C782 H753 0.950 . S
C782 C781 1.334 . S
C782 C783 1.287 . S
C783 C782 1.287 . S
C783 C784 1.524 . S
C783 H786 0.999 . S
C784 H754 0.950 . S
C784 C783 1.524 . S
C784 C785 1.415 . S
C785 H755 0.950 . S
C785 C780 1.363 . S
C785 C784 1.415 . S
H786 C783 0.999 . S
H787 C768 0.913 . S
H788 C806 0.951 . S
H789 C808 0.951 . S
H790 C810 0.950 . S
H791 C811 0.950 . S
H792 C813 0.950 . S
H793 C816 0.950 . S
H794 C817 0.950 . S
H795 C819 0.950 . S
H796 C820 0.950 . S
H797 C821 0.951 . S
H798 C823 0.951 . S
H799 C825 0.950 . S
H800 C826 0.950 . S
H801 C828 0.950 . S
H802 C831 0.950 . S
H803 C832 0.950 . S
H804 C834 0.950 . S
H805 C835 0.950 . S
C806 H788 0.951 . S
C806 C807 1.366 . S
C806 C808 1.388 . S
C807 C806 1.366 . S
C807 C811 1.385 . S
C808 H789 0.951 . S
C808 C806 1.388 . S
C808 C809 1.366 . S
C809 C808 1.366 . S
C809 C810 1.414 . S
C809 C812 1.499 . S
C810 H790 0.950 . S
C810 C809 1.414 . S
C810 C811 1.374 . S
C811 H791 0.950 . S
C811 C807 1.385 . S
C811 C810 1.374 . S
C812 C809 1.499 . S
C812 C813 1.373 . S
C812 C814 1.389 . S
C813 H792 0.950 . S
C813 C812 1.373 . S
C813 C829 1.377 . S
C814 C812 1.389 . S
C814 C815 1.524 . S
C814 C828 1.377 . S
C815 C814 1.524 . S
C815 C816 1.397 . S
C815 C820 1.363 . S
C816 H793 0.950 . S
C816 C815 1.397 . S
C816 C817 1.334 . S
C817 H794 0.950 . S
C817 C816 1.334 . S
C817 C818 1.287 . S
C818 C817 1.287 . S
C818 C819 1.524 . S
C818 H837 0.913 . S
C819 H795 0.950 . S
C819 C818 1.524 . S
C819 C820 1.415 . S
C820 H796 0.950 . S
C820 C815 1.363 . S
C820 C819 1.415 . S
C821 H797 0.951 . S
C821 C822 1.366 . S
C821 C823 1.388 . S
C822 C821 1.366 . S
C822 C826 1.385 . S
C823 H798 0.951 . S
C823 C821 1.388 . S
C823 C824 1.366 . S
C824 C823 1.366 . S
C824 C825 1.414 . S
C824 C827 1.499 . S
C825 H799 0.950 . S
C825 C824 1.414 . S
C825 C826 1.374 . S
C826 H800 0.950 . S
C826 C822 1.385 . S
C826 C825 1.374 . S
C827 C824 1.499 . S
C827 C828 1.373 . S
C827 C829 1.389 . S
C828 H801 0.950 . S
C828 C814 1.377 . S
C828 C827 1.373 . S
C829 C813 1.377 . S
C829 C827 1.389 . S
C829 C830 1.524 . S
C830 C829 1.524 . S
C830 C831 1.397 . S
C830 C835 1.363 . S
C831 H802 0.950 . S
C831 C830 1.397 . S
C831 C832 1.334 . S
C832 H803 0.950 . S
C832 C831 1.334 . S
C832 C833 1.287 . S
C833 C832 1.287 . S
C833 C834 1.524 . S
C833 H836 0.999 . S
C834 H804 0.950 . S
C834 C833 1.524 . S
C834 C835 1.415 . S
C835 H805 0.950 . S
C835 C830 1.363 . S
C835 C834 1.415 . S
H836 C833 0.999 . S
H837 C818 0.913 . S
H838 C856 0.951 . S
H839 C858 0.951 . S
H840 C860 0.950 . S
H841 C861 0.950 . S
H842 C863 0.950 . S
H843 C866 0.950 . S
H844 C867 0.950 . S
H845 C869 0.950 . S
H846 C870 0.950 . S
H847 C871 0.951 . S
H848 C873 0.951 . S
H849 C875 0.950 . S
H850 C876 0.950 . S
H851 C878 0.950 . S
H852 C881 0.950 . S
H853 C882 0.950 . S
H854 C884 0.950 . S
H855 C885 0.950 . S
C856 H838 0.951 . S
C856 C857 1.366 . S
C856 C858 1.388 . S
C857 C856 1.366 . S
C857 C861 1.385 . S
C858 H839 0.951 . S
C858 C856 1.388 . S
C858 C859 1.366 . S
C859 C858 1.366 . S
C859 C860 1.414 . S
C859 C862 1.499 . S
C860 H840 0.950 . S
C860 C859 1.414 . S
C860 C861 1.374 . S
C861 H841 0.950 . S
C861 C857 1.385 . S
C861 C860 1.374 . S
C862 C859 1.499 . S
C862 C863 1.373 . S
C862 C864 1.389 . S
C863 H842 0.950 . S
C863 C862 1.373 . S
C863 C879 1.377 . S
C864 C862 1.389 . S
C864 C865 1.524 . S
C864 C878 1.377 . S
C865 C864 1.524 . S
C865 C866 1.397 . S
C865 C870 1.363 . S
C866 H843 0.950 . S
C866 C865 1.397 . S
C866 C867 1.334 . S
C867 H844 0.950 . S
C867 C866 1.334 . S
C867 C868 1.287 . S
C868 C867 1.287 . S
C868 C869 1.524 . S
C868 H887 0.913 . S
C869 H845 0.950 . S
C869 C868 1.524 . S
C869 C870 1.415 . S
C870 H846 0.950 . S
C870 C865 1.363 . S
C870 C869 1.415 . S
C871 H847 0.951 . S
C871 C872 1.366 . S
C871 C873 1.388 . S
C872 C871 1.366 . S
C872 C876 1.385 . S
C873 H848 0.951 . S
C873 C871 1.388 . S
C873 C874 1.363 1_565 S
C874 C873 1.363 1_545 S
C874 C875 1.415 . S
C874 C877 1.501 . S
C875 H849 0.950 . S
C875 C874 1.415 . S
C875 C876 1.374 1_545 S
C876 H850 0.950 . S
C876 C872 1.385 . S
C876 C875 1.374 1_565 S
C877 C874 1.501 . S
C877 C878 1.373 . S
C877 C879 1.389 . S
C878 H851 0.950 . S
C878 C864 1.377 . S
C878 C877 1.373 . S
C879 C863 1.377 . S
C879 C877 1.389 . S
C879 C880 1.524 . S
C880 C879 1.524 . S
C880 C881 1.397 . S
C880 C885 1.363 . S
C881 H852 0.950 . S
C881 C880 1.397 . S
C881 C882 1.334 . S
C882 H853 0.950 . S
C882 C881 1.334 . S
C882 C883 1.287 . S
C883 C882 1.287 . S
C883 C884 1.524 1_545 S
C883 H886 0.999 1_545 S
C884 H854 0.950 . S
C884 C883 1.524 1_565 S
C884 C885 1.415 1_565 S
C885 H855 0.950 . S
C885 C880 1.363 . S
C885 C884 1.415 1_545 S
H886 C883 0.999 1_565 S
H887 C868 0.913 . S
H888 C906 0.951 . S
H889 C908 0.951 . S
H890 C910 0.950 1_554 S
H891 C911 0.950 . S
H892 C913 0.950 . S
H893 C916 0.950 . S
H894 C917 0.950 . S
H895 C919 0.950 . S
H896 C920 0.921 1_554 S
H897 C921 0.951 . S
H898 C923 0.951 . S
H899 C925 0.950 . S
H900 C926 0.950 . S
H901 C928 0.950 . S
H902 C931 0.950 . S
H903 C932 0.950 . S
H904 C934 0.950 . S
H905 C935 0.950 . S
C906 H888 0.951 . S
C906 C907 1.366 . S
C906 C908 1.388 . S
C907 C906 1.366 . S
C907 C911 1.385 . S
C908 H889 0.951 . S
C908 C906 1.388 . S
C908 C909 1.366 . S
C909 C908 1.366 . S
C909 C910 1.414 . S
C909 C912 1.499 1_556 S
C910 H890 0.950 1_556 S
C910 C909 1.414 . S
C910 C911 1.374 . S
C911 H891 0.950 . S
C911 C907 1.385 . S
C911 C910 1.374 . S
C912 C909 1.499 1_554 S
C912 C913 1.373 . S
C912 C914 1.389 . S
C913 H892 0.950 . S
C913 C912 1.373 . S
C913 C929 1.377 . S
C914 C912 1.389 . S
C914 C915 1.524 . S
C914 C928 1.377 . S
C915 C914 1.524 . S
C915 C916 1.397 1_554 S
C915 C920 1.358 1_554 S
C916 H893 0.950 . S
C916 C915 1.397 1_556 S
C916 C917 1.334 . S
C917 H894 0.950 . S
C917 C916 1.334 . S
C917 C918 1.287 . S
C918 C917 1.287 . S
C918 C919 1.524 . S
C918 H937 0.913 . S
C919 H895 0.950 . S
C919 C918 1.524 . S
C919 C920 1.451 . S
C920 H896 0.921 1_556 S
C920 C915 1.358 1_556 S
C920 C919 1.451 . S
C921 H897 0.951 . S
C921 C922 1.366 . S
C921 C923 1.388 . S
C922 C921 1.366 . S
C922 C926 1.385 . S
C923 H898 0.951 . S
C923 C921 1.388 . S
C923 C924 1.366 . S
C924 C923 1.366 . S
C924 C925 1.414 . S
C924 C927 1.499 . S
C925 H899 0.950 . S
C925 C924 1.414 . S
C925 C926 1.374 . S
C926 H900 0.950 . S
C926 C922 1.385 . S
C926 C925 1.374 . S
C927 C924 1.499 . S
C927 C928 1.373 . S
C927 C929 1.389 . S
C928 H901 0.950 . S
C928 C914 1.377 . S
C928 C927 1.373 . S
C929 C913 1.377 . S
C929 C927 1.389 . S
C929 C930 1.524 . S
C930 C929 1.524 . S
C930 C931 1.397 . S
C930 C935 1.363 . S
C931 H902 0.950 . S
C931 C930 1.397 . S
C931 C932 1.334 . S
C932 H903 0.950 . S
C932 C931 1.334 . S
C932 C933 1.287 . S
C933 C932 1.287 . S
C933 C934 1.524 . S
C933 H936 0.999 . S
C934 H904 0.950 . S
C934 C933 1.524 . S
C934 C935 1.415 . S
C935 H905 0.950 . S
C935 C930 1.363 . S
C935 C934 1.415 . S
H936 C933 0.999 . S
H937 C918 0.913 . S
H938 C956 0.951 . S
H939 C958 0.951 . S
H940 C960 0.950 . S
H941 C961 0.950 . S
H942 C963 0.950 . S
H943 C966 0.950 . S
H944 C967 0.950 . S
H945 C969 0.950 . S
H946 C970 0.950 . S
H947 C971 0.951 . S
H948 C973 0.951 . S
H949 C975 0.950 . S
H950 C976 0.950 . S
H951 C978 0.950 . S
H952 C981 0.950 . S
H953 C982 0.950 . S
H954 C984 0.950 . S
H955 C985 0.950 . S
C956 H938 0.951 . S
C956 C957 1.366 . S
C956 C958 1.388 . S
C957 C956 1.366 . S
C957 C961 1.385 . S
C958 H939 0.951 . S
C958 C956 1.388 . S
C958 C959 1.366 . S
C959 C958 1.366 . S
C959 C960 1.414 . S
C959 C962 1.499 . S
C960 H940 0.950 . S
C960 C959 1.414 . S
C960 C961 1.374 . S
C961 H941 0.950 . S
C961 C957 1.385 . S
C961 C960 1.374 . S
C962 C959 1.499 . S
C962 C963 1.373 . S
C962 C964 1.389 . S
C963 H942 0.950 . S
C963 C962 1.373 . S
C963 C979 1.377 . S
C964 C962 1.389 . S
C964 C965 1.524 . S
C964 C978 1.377 . S
C965 C964 1.524 . S
C965 C966 1.397 . S
C965 C970 1.363 . S
C966 H943 0.950 . S
C966 C965 1.397 . S
C966 C967 1.334 . S
C967 H944 0.950 . S
C967 C966 1.334 . S
C967 C968 1.287 . S
C968 C967 1.287 . S
C968 C969 1.524 . S
C968 H987 0.913 . S
C969 H945 0.950 . S
C969 C968 1.524 . S
C969 C970 1.415 . S
C970 H946 0.950 . S
C970 C965 1.363 . S
C970 C969 1.415 . S
C971 H947 0.951 . S
C971 C972 1.366 . S
C971 C973 1.388 . S
C972 C971 1.366 . S
C972 C976 1.385 . S
C973 H948 0.951 . S
C973 C971 1.388 . S
C973 C974 1.366 . S
C974 C973 1.366 . S
C974 C975 1.414 . S
C974 C977 1.499 . S
C975 H949 0.950 . S
C975 C974 1.414 . S
C975 C976 1.374 . S
C976 H950 0.950 . S
C976 C972 1.385 . S
C976 C975 1.374 . S
C977 C974 1.499 . S
C977 C978 1.373 . S
C977 C979 1.389 . S
C978 H951 0.950 . S
C978 C964 1.377 . S
C978 C977 1.373 . S
C979 C963 1.377 . S
C979 C977 1.389 . S
C979 C980 1.524 . S
C980 C979 1.524 . S
C980 C981 1.397 . S
C980 C985 1.363 . S
C981 H952 0.950 . S
C981 C980 1.397 . S
C981 C982 1.334 . S
C982 H953 0.950 . S
C982 C981 1.334 . S
C982 C983 1.287 . S
C983 C982 1.287 . S
C983 C984 1.524 . S
C983 H986 0.999 . S
C984 H954 0.950 . S
C984 C983 1.524 . S
C984 C985 1.415 . S
C985 H955 0.950 . S
C985 C980 1.363 . S
C985 C984 1.415 . S
H986 C983 0.999 . S
H987 C968 0.913 . S
H988 C1006 0.951 . S
H989 C1008 0.951 1_556 S
H990 C1010 0.950 . S
H991 C1011 0.950 . S
H992 C1013 0.950 . S
H993 C1016 0.950 . S
H994 C1017 0.950 . S
H995 C1019 0.950 . S
H996 C1020 0.950 . S
H997 C1021 0.951 . S
H998 C1023 0.951 . S
H999 C1025 0.950 . S
H1000 C1026 0.950 . S
H1001 C1028 0.950 . S
H1002 C1031 0.950 . S
H1003 C1032 0.950 . S
H1004 C1034 0.950 . S
H1005 C1035 0.950 . S
C1006 H988 0.951 . S
C1006 C1007 1.366 . S
C1006 C1008 1.388 . S
C1007 C1006 1.366 . S
C1007 C1011 1.385 . S
C1008 H989 0.951 1_554 S
C1008 C1006 1.388 . S
C1008 C1009 1.366 . S
C1009 C1008 1.366 . S
C1009 C1010 1.414 . S
C1009 C1012 1.499 1_554 S
C1010 H990 0.950 . S
C1010 C1009 1.414 . S
C1010 C1011 1.374 . S
C1011 H991 0.950 . S
C1011 C1007 1.385 . S
C1011 C1010 1.374 . S
C1012 C1009 1.499 1_556 S
C1012 C1013 1.373 . S
C1012 C1014 1.389 . S
C1013 H992 0.950 . S
C1013 C1012 1.373 . S
C1013 C1029 1.377 . S
C1014 C1012 1.389 . S
C1014 C1015 1.524 . S
C1014 C1028 1.377 . S
C1015 C1014 1.524 . S
C1015 C1016 1.397 . S
C1015 C1020 1.363 . S
C1016 H993 0.950 . S
C1016 C1015 1.397 . S
C1016 C1017 1.334 . S
C1017 H994 0.950 . S
C1017 C1016 1.334 . S
C1017 C1018 1.287 . S
C1018 C1017 1.287 . S
C1018 C1019 1.524 . S
C1018 H1037 0.913 . S
C1019 H995 0.950 . S
C1019 C1018 1.524 . S
C1019 C1020 1.415 . S
C1020 H996 0.950 . S
C1020 C1015 1.363 . S
C1020 C1019 1.415 . S
C1021 H997 0.951 . S
C1021 C1022 1.366 . S
C1021 C1023 1.388 . S
C1022 C1021 1.366 . S
C1022 C1026 1.385 . S
C1023 H998 0.951 . S
C1023 C1021 1.388 . S
C1023 C1024 1.366 . S
C1024 C1023 1.366 . S
C1024 C1025 1.414 . S
C1024 C1027 1.499 . S
C1025 H999 0.950 . S
C1025 C1024 1.414 . S
C1025 C1026 1.374 . S
C1026 H1000 0.950 . S
C1026 C1022 1.385 . S
C1026 C1025 1.374 . S
C1027 C1024 1.499 . S
C1027 C1028 1.373 . S
C1027 C1029 1.389 . S
C1028 H1001 0.950 . S
C1028 C1014 1.377 . S
C1028 C1027 1.373 . S
C1029 C1013 1.377 . S
C1029 C1027 1.389 . S
C1029 C1030 1.524 . S
C1030 C1029 1.524 . S
C1030 C1031 1.397 . S
C1030 C1035 1.363 . S
C1031 H1002 0.950 . S
C1031 C1030 1.397 . S
C1031 C1032 1.334 . S
C1032 H1003 0.950 . S
C1032 C1031 1.334 . S
C1032 C1033 1.287 . S
C1033 C1032 1.287 . S
C1033 C1034 1.524 . S
C1033 H1036 0.999 . S
C1034 H1004 0.950 . S
C1034 C1033 1.524 . S
C1034 C1035 1.415 . S
C1035 H1005 0.950 . S
C1035 C1030 1.363 . S
C1035 C1034 1.415 . S
H1036 C1033 0.999 . S
H1037 C1018 0.913 . S
H1038 C1056 0.951 . S
H1039 C1058 0.951 . S
H1040 C1060 0.950 . S
H1041 C1061 0.950 . S
H1042 C1063 0.950 . S
H1043 C1066 0.950 . S
H1044 C1067 0.950 . S
H1045 C1069 0.950 . S
H1046 C1070 0.950 . S
H1047 C1071 0.951 . S
H1048 C1073 0.951 . S
H1049 C1075 0.950 . S
H1050 C1076 0.950 . S
H1051 C1078 0.950 . S
H1052 C1081 0.950 . S
H1053 C1082 0.950 . S
H1054 C1084 0.950 . S
H1055 C1085 0.950 . S
C1056 H1038 0.951 . S
C1056 C1057 1.366 . S
C1056 C1058 1.388 . S
C1057 C1056 1.366 . S
C1057 C1061 1.385 . S
C1058 H1039 0.951 . S
C1058 C1056 1.388 . S
C1058 C1059 1.366 . S
C1059 C1058 1.366 . S
C1059 C1060 1.414 . S
C1059 C1062 1.499 . S
C1060 H1040 0.950 . S
C1060 C1059 1.414 . S
C1060 C1061 1.374 . S
C1061 H1041 0.950 . S
C1061 C1057 1.385 . S
C1061 C1060 1.374 . S
C1062 C1059 1.499 . S
C1062 C1063 1.373 . S
C1062 C1064 1.389 . S
C1063 H1042 0.950 . S
C1063 C1062 1.373 . S
C1063 C1079 1.377 . S
C1064 C1062 1.389 . S
C1064 C1065 1.524 . S
C1064 C1078 1.377 . S
C1065 C1064 1.524 . S
C1065 C1066 1.397 . S
C1065 C1070 1.363 . S
C1066 H1043 0.950 . S
C1066 C1065 1.397 . S
C1066 C1067 1.334 . S
C1067 H1044 0.950 . S
C1067 C1066 1.334 . S
C1067 C1068 1.287 . S
C1068 C1067 1.287 . S
C1068 C1069 1.524 . S
C1068 H1087 0.913 . S
C1069 H1045 0.950 . S
C1069 C1068 1.524 . S
C1069 C1070 1.415 . S
C1070 H1046 0.950 . S
C1070 C1065 1.363 . S
C1070 C1069 1.415 . S
C1071 H1047 0.951 . S
C1071 C1072 1.366 . S
C1071 C1073 1.388 . S
C1072 C1071 1.366 . S
C1072 C1076 1.385 . S
C1073 H1048 0.951 . S
C1073 C1071 1.388 . S
C1073 C1074 1.366 . S
C1074 C1073 1.366 . S
C1074 C1075 1.414 . S
C1074 C1077 1.499 . S
C1075 H1049 0.950 . S
C1075 C1074 1.414 . S
C1075 C1076 1.374 . S
C1076 H1050 0.950 . S
C1076 C1072 1.385 . S
C1076 C1075 1.374 . S
C1077 C1074 1.499 . S
C1077 C1078 1.373 . S
C1077 C1079 1.389 . S
C1078 H1051 0.950 . S
C1078 C1064 1.377 . S
C1078 C1077 1.373 . S
C1079 C1063 1.377 . S
C1079 C1077 1.389 . S
C1079 C1080 1.524 . S
C1080 C1079 1.524 . S
C1080 C1081 1.397 . S
C1080 C1085 1.363 . S
C1081 H1052 0.950 . S
C1081 C1080 1.397 . S
C1081 C1082 1.334 . S
C1082 H1053 0.950 . S
C1082 C1081 1.334 . S
C1082 C1083 1.287 . S
C1083 C1082 1.287 . S
C1083 C1084 1.524 . S
C1083 H1086 0.999 . S
C1084 H1054 0.950 . S
C1084 C1083 1.524 . S
C1084 C1085 1.415 . S
C1085 H1055 0.950 . S
C1085 C1080 1.363 . S
C1085 C1084 1.415 . S
H1086 C1083 0.999 . S
H1087 C1068 0.913 . S
H1088 C1106 0.951 . S
H1089 C1108 0.951 . S
H1090 C1110 0.957 . S
H1091 C1111 0.950 . S
H1092 C1113 0.950 . S
H1093 C1116 0.950 . S
H1094 C1117 0.950 . S
H1095 C1119 0.950 . S
H1096 C1120 0.950 . S
H1097 C1121 0.951 . S
H1098 C1123 0.951 . S
H1099 C1125 0.950 . S
H1100 C1126 0.950 . S
H1101 C1128 0.950 . S
H1102 C1131 0.950 . S
H1103 C1132 0.950 1_455 S
H1104 C1134 0.950 . S
H1105 C1135 0.950 . S
C1106 H1088 0.951 . S
C1106 C1107 1.366 . S
C1106 C1108 1.388 . S
C1107 C1106 1.366 . S
C1107 C1111 1.385 . S
C1108 H1089 0.951 . S
C1108 C1106 1.388 . S
C1108 C1109 1.394 . S
C1109 C1108 1.394 . S
C1109 C1110 1.431 . S
C1109 C1112 1.457 1_554 S
C1110 H1090 0.957 . S
C1110 C1109 1.431 . S
C1110 C1111 1.374 . S
C1111 H1091 0.950 . S
C1111 C1107 1.385 . S
C1111 C1110 1.374 . S
C1112 C1109 1.457 1_556 S
C1112 C1113 1.373 . S
C1112 C1114 1.389 . S
C1113 H1092 0.950 . S
C1113 C1112 1.373 . S
C1113 C1129 1.377 . S
C1114 C1112 1.389 . S
C1114 C1115 1.524 . S
C1114 C1128 1.377 . S
C1115 C1114 1.524 . S
C1115 C1116 1.397 . S
C1115 C1120 1.363 . S
C1116 H1093 0.950 . S
C1116 C1115 1.397 . S
C1116 C1117 1.334 . S
C1117 H1094 0.950 . S
C1117 C1116 1.334 . S
C1117 C1118 1.287 . S
C1118 C1117 1.287 . S
C1118 C1119 1.524 . S
C1118 H1137 0.913 . S
C1119 H1095 0.950 . S
C1119 C1118 1.524 . S
C1119 C1120 1.415 . S
C1120 H1096 0.950 . S
C1120 C1115 1.363 . S
C1120 C1119 1.415 . S
C1121 H1097 0.951 . S
C1121 C1122 1.366 . S
C1121 C1123 1.388 . S
C1122 C1121 1.366 . S
C1122 C1126 1.385 . S
C1123 H1098 0.951 . S
C1123 C1121 1.388 . S
C1123 C1124 1.366 . S
C1124 C1123 1.366 . S
C1124 C1125 1.414 . S
C1124 C1127 1.499 . S
C1125 H1099 0.950 . S
C1125 C1124 1.414 . S
C1125 C1126 1.374 . S
C1126 H1100 0.950 . S
C1126 C1122 1.385 . S
C1126 C1125 1.374 . S
C1127 C1124 1.499 . S
C1127 C1128 1.373 . S
C1127 C1129 1.389 . S
C1128 H1101 0.950 . S
C1128 C1114 1.377 . S
C1128 C1127 1.373 . S
C1129 C1113 1.377 . S
C1129 C1127 1.389 . S
C1129 C1130 1.524 . S
C1130 C1129 1.524 . S
C1130 C1131 1.397 . S
C1130 C1135 1.363 . S
C1131 H1102 0.950 . S
C1131 C1130 1.397 . S
C1131 C1132 1.334 . S
C1132 H1103 0.950 1_655 S
C1132 C1131 1.334 . S
C1132 C1133 1.287 1_655 S
C1133 C1132 1.287 1_455 S
C1133 C1134 1.524 1_455 S
C1133 H1136 0.999 . S
C1134 H1104 0.950 . S
C1134 C1133 1.524 1_655 S
C1134 C1135 1.415 . S
C1135 H1105 0.950 . S
C1135 C1130 1.363 . S
C1135 C1134 1.415 . S
H1136 C1133 0.999 . S
H1137 C1118 0.913 . S
H1138 C1156 0.951 . S
H1139 C1158 0.951 . S
H1140 C1160 0.950 . S
H1141 C1161 0.950 . S
H1142 C1163 0.950 . S
H1143 C1166 0.950 . S
H1144 C1167 0.950 . S
H1145 C1169 0.950 . S
H1146 C1170 0.950 . S
H1147 C1171 0.951 . S
H1148 C1173 0.951 . S
H1149 C1175 0.950 . S
H1150 C1176 0.950 . S
H1151 C1178 0.950 . S
H1152 C1181 0.950 . S
H1153 C1182 0.950 . S
H1154 C1184 0.950 . S
H1155 C1185 0.950 . S
C1156 H1138 0.951 . S
C1156 C1157 1.366 . S
C1156 C1158 1.388 . S
C1157 C1156 1.366 . S
C1157 C1161 1.385 . S
C1158 H1139 0.951 . S
C1158 C1156 1.388 . S
C1158 C1159 1.366 . S
C1159 C1158 1.366 . S
C1159 C1160 1.414 . S
C1159 C1162 1.499 . S
C1160 H1140 0.950 . S
C1160 C1159 1.414 . S
C1160 C1161 1.374 . S
C1161 H1141 0.950 . S
C1161 C1157 1.385 . S
C1161 C1160 1.374 . S
C1162 C1159 1.499 . S
C1162 C1163 1.373 . S
C1162 C1164 1.389 . S
C1163 H1142 0.950 . S
C1163 C1162 1.373 . S
C1163 C1179 1.377 . S
C1164 C1162 1.389 . S
C1164 C1165 1.524 . S
C1164 C1178 1.377 . S
C1165 C1164 1.524 . S
C1165 C1166 1.397 . S
C1165 C1170 1.363 . S
C1166 H1143 0.950 . S
C1166 C1165 1.397 . S
C1166 C1167 1.334 . S
C1167 H1144 0.950 . S
C1167 C1166 1.334 . S
C1167 C1168 1.287 . S
C1168 C1167 1.287 . S
C1168 C1169 1.524 . S
C1168 H1187 0.913 . S
C1169 H1145 0.950 . S
C1169 C1168 1.524 . S
C1169 C1170 1.415 . S
C1170 H1146 0.950 . S
C1170 C1165 1.363 . S
C1170 C1169 1.415 . S
C1171 H1147 0.951 . S
C1171 C1172 1.366 . S
C1171 C1173 1.388 . S
C1172 C1171 1.366 . S
C1172 C1176 1.385 . S
C1173 H1148 0.951 . S
C1173 C1171 1.388 . S
C1173 C1174 1.366 . S
C1174 C1173 1.366 . S
C1174 C1175 1.414 . S
C1174 C1177 1.499 . S
C1175 H1149 0.950 . S
C1175 C1174 1.414 . S
C1175 C1176 1.374 . S
C1176 H1150 0.950 . S
C1176 C1172 1.385 . S
C1176 C1175 1.374 . S
C1177 C1174 1.499 . S
C1177 C1178 1.373 . S
C1177 C1179 1.389 . S
C1178 H1151 0.950 . S
C1178 C1164 1.377 . S
C1178 C1177 1.373 . S
C1179 C1163 1.377 . S
C1179 C1177 1.389 . S
C1179 C1180 1.524 . S
C1180 C1179 1.524 . S
C1180 C1181 1.397 . S
C1180 C1185 1.363 . S
C1181 H1152 0.950 . S
C1181 C1180 1.397 . S
C1181 C1182 1.334 . S
C1182 H1153 0.950 . S
C1182 C1181 1.334 . S
C1182 C1183 1.287 . S
C1183 C1182 1.287 . S
C1183 C1184 1.524 . S
C1183 H1186 0.999 . S
C1184 H1154 0.950 . S
C1184 C1183 1.524 . S
C1184 C1185 1.415 . S
C1185 H1155 0.950 . S
C1185 C1180 1.363 . S
C1185 C1184 1.415 . S
H1186 C1183 0.999 . S
H1187 C1168 0.913 . S
H1188 C1206 0.951 . S
H1189 C1208 0.951 . S
H1190 C1210 0.950 1_554 S
H1191 C1211 0.950 . S
H1192 C1213 0.950 . S
H1193 C1216 0.950 . S
H1194 C1217 0.950 . S
H1195 C1219 0.950 . S
H1196 C1220 0.950 1_554 S
H1197 C1221 0.951 . S
H1198 C1223 0.951 . S
H1199 C1225 0.950 . S
H1200 C1226 0.950 . S
H1201 C1228 0.950 . S
H1202 C1231 0.950 . S
H1203 C1232 0.950 . S
H1204 C1234 0.950 . S
H1205 C1235 0.950 . S
C1206 H1188 0.951 . S
C1206 C1207 1.366 . S
C1206 C1208 1.388 . S
C1207 C1206 1.366 . S
C1207 C1211 1.385 . S
C1208 H1189 0.951 . S
C1208 C1206 1.388 . S
C1208 C1209 1.366 . S
C1209 C1208 1.366 . S
C1209 C1210 1.414 . S
C1209 C1212 1.499 1_556 S
C1210 H1190 0.950 1_556 S
C1210 C1209 1.414 . S
C1210 C1211 1.374 . S
C1211 H1191 0.950 . S
C1211 C1207 1.385 . S
C1211 C1210 1.374 . S
C1212 C1209 1.499 1_554 S
C1212 C1213 1.373 . S
C1212 C1214 1.389 . S
C1213 H1192 0.950 . S
C1213 C1212 1.373 . S
C1213 C1229 1.377 . S
C1214 C1212 1.389 . S
C1214 C1215 1.524 . S
C1214 C1228 1.377 . S
C1215 C1214 1.524 . S
C1215 C1216 1.397 1_554 S
C1215 C1220 1.363 1_554 S
C1216 H1193 0.950 . S
C1216 C1215 1.397 1_556 S
C1216 C1217 1.334 . S
C1217 H1194 0.950 . S
C1217 C1216 1.334 . S
C1217 C1218 1.287 . S
C1218 C1217 1.287 . S
C1218 C1219 1.524 . S
C1218 H1237 0.913 . S
C1219 H1195 0.950 . S
C1219 C1218 1.524 . S
C1219 C1220 1.415 . S
C1220 H1196 0.950 1_556 S
C1220 C1215 1.363 1_556 S
C1220 C1219 1.415 . S
C1221 H1197 0.951 . S
C1221 C1222 1.366 . S
C1221 C1223 1.388 . S
C1222 C1221 1.366 . S
C1222 C1226 1.385 . S
C1223 H1198 0.951 . S
C1223 C1221 1.388 . S
C1223 C1224 1.366 . S
C1224 C1223 1.366 . S
C1224 C1225 1.414 . S
C1224 C1227 1.499 . S
C1225 H1199 0.950 . S
C1225 C1224 1.414 . S
C1225 C1226 1.374 . S
C1226 H1200 0.950 . S
C1226 C1222 1.385 . S
C1226 C1225 1.374 . S
C1227 C1224 1.499 . S
C1227 C1228 1.373 . S
C1227 C1229 1.389 . S
C1228 H1201 0.950 . S
C1228 C1214 1.377 . S
C1228 C1227 1.373 . S
C1229 C1213 1.377 . S
C1229 C1227 1.389 . S
C1229 C1230 1.524 . S
C1230 C1229 1.524 . S
C1230 C1231 1.397 . S
C1230 C1235 1.363 . S
C1231 H1202 0.950 . S
C1231 C1230 1.397 . S
C1231 C1232 1.334 . S
C1232 H1203 0.950 . S
C1232 C1231 1.334 . S
C1232 C1233 1.287 . S
C1233 C1232 1.287 . S
C1233 C1234 1.524 . S
C1233 H1236 0.999 . S
C1234 H1204 0.950 . S
C1234 C1233 1.524 . S
C1234 C1235 1.415 . S
C1235 H1205 0.950 . S
C1235 C1230 1.363 . S
C1235 C1234 1.415 . S
H1236 C1233 0.999 . S
H1237 C1218 0.913 . S
H1238 C1256 0.951 . S
H1239 C1258 0.951 . S
H1240 C1260 0.950 . S
H1241 C1261 0.950 . S
H1242 C1263 0.950 . S
H1243 C1266 0.950 . S
H1244 C1267 0.950 . S
H1245 C1269 0.950 . S
H1246 C1270 0.950 . S
H1247 C1271 0.951 . S
H1248 C1273 0.951 . S
H1249 C1275 0.950 . S
H1250 C1276 0.950 . S
H1251 C1278 0.950 . S
H1252 C1281 0.950 . S
H1253 C1282 0.950 . S
H1254 C1284 0.950 . S
H1255 C1285 0.950 . S
C1256 H1238 0.951 . S
C1256 C1257 1.366 . S
C1256 C1258 1.388 . S
C1257 C1256 1.366 . S
C1257 C1261 1.385 . S
C1258 H1239 0.951 . S
C1258 C1256 1.388 . S
C1258 C1259 1.366 . S
C1259 C1258 1.366 . S
C1259 C1260 1.414 . S
C1259 C1262 1.499 . S
C1260 H1240 0.950 . S
C1260 C1259 1.414 . S
C1260 C1261 1.374 . S
C1261 H1241 0.950 . S
C1261 C1257 1.385 . S
C1261 C1260 1.374 . S
C1262 C1259 1.499 . S
C1262 C1263 1.373 . S
C1262 C1264 1.389 . S
C1263 H1242 0.950 . S
C1263 C1262 1.373 . S
C1263 C1279 1.377 . S
C1264 C1262 1.389 . S
C1264 C1265 1.524 . S
C1264 C1278 1.377 . S
C1265 C1264 1.524 . S
C1265 C1266 1.397 . S
C1265 C1270 1.363 . S
C1266 H1243 0.950 . S
C1266 C1265 1.397 . S
C1266 C1267 1.334 . S
C1267 H1244 0.950 . S
C1267 C1266 1.334 . S
C1267 C1268 1.287 . S
C1268 C1267 1.287 . S
C1268 C1269 1.524 . S
C1268 H1287 0.913 . S
C1269 H1245 0.950 . S
C1269 C1268 1.524 . S
C1269 C1270 1.415 . S
C1270 H1246 0.950 . S
C1270 C1265 1.363 . S
C1270 C1269 1.415 . S
C1271 H1247 0.951 . S
C1271 C1272 1.366 . S
C1271 C1273 1.388 . S
C1272 C1271 1.366 . S
C1272 C1276 1.385 . S
C1273 H1248 0.951 . S
C1273 C1271 1.388 . S
C1273 C1274 1.366 . S
C1274 C1273 1.366 . S
C1274 C1275 1.414 . S
C1274 C1277 1.499 . S
C1275 H1249 0.950 . S
C1275 C1274 1.414 . S
C1275 C1276 1.374 . S
C1276 H1250 0.950 . S
C1276 C1272 1.385 . S
C1276 C1275 1.374 . S
C1277 C1274 1.499 . S
C1277 C1278 1.373 . S
C1277 C1279 1.389 . S
C1278 H1251 0.950 . S
C1278 C1264 1.377 . S
C1278 C1277 1.373 . S
C1279 C1263 1.377 . S
C1279 C1277 1.389 . S
C1279 C1280 1.524 . S
C1280 C1279 1.524 . S
C1280 C1281 1.397 . S
C1280 C1285 1.363 . S
C1281 H1252 0.950 . S
C1281 C1280 1.397 . S
C1281 C1282 1.334 . S
C1282 H1253 0.950 . S
C1282 C1281 1.334 . S
C1282 C1283 1.287 . S
C1283 C1282 1.287 . S
C1283 C1284 1.524 . S
C1283 H1286 0.999 . S
C1284 H1254 0.950 . S
C1284 C1283 1.524 . S
C1284 C1285 1.415 . S
C1285 H1255 0.950 . S
C1285 C1280 1.363 . S
C1285 C1284 1.415 . S
H1286 C1283 0.999 . S
H1287 C1268 0.913 . S
H1288 C1306 0.951 . S
H1289 C1308 0.951 . S
H1290 C1310 0.950 . S
H1291 C1311 0.950 . S
H1292 C1313 0.950 . S
H1293 C1316 0.950 . S
H1294 C1317 0.950 . S
H1295 C1319 0.950 . S
H1296 C1320 0.950 . S
H1297 C1321 0.951 . S
H1298 C1323 0.951 . S
H1299 C1325 0.950 . S
H1300 C1326 0.950 . S
H1301 C1328 0.950 . S
H1302 C1331 0.950 . S
H1303 C1332 0.950 . S
H1304 C1334 0.950 1_655 S
H1305 C1335 0.950 . S
C1306 H1288 0.951 . S
C1306 C1307 1.366 . S
C1306 C1308 1.388 . S
C1307 C1306 1.366 . S
C1307 C1311 1.385 . S
C1308 H1289 0.951 . S
C1308 C1306 1.388 . S
C1308 C1309 1.366 . S
C1309 C1308 1.366 . S
C1309 C1310 1.414 . S
C1309 C1312 1.499 . S
C1310 H1290 0.950 . S
C1310 C1309 1.414 . S
C1310 C1311 1.374 . S
C1311 H1291 0.950 . S
C1311 C1307 1.385 . S
C1311 C1310 1.374 . S
C1312 C1309 1.499 . S
C1312 C1313 1.373 . S
C1312 C1314 1.389 . S
C1313 H1292 0.950 . S
C1313 C1312 1.373 . S
C1313 C1329 1.377 . S
C1314 C1312 1.389 . S
C1314 C1315 1.524 . S
C1314 C1328 1.377 . S
C1315 C1314 1.524 . S
C1315 C1316 1.397 . S
C1315 C1320 1.363 . S
C1316 H1293 0.950 . S
C1316 C1315 1.397 . S
C1316 C1317 1.334 . S
C1317 H1294 0.950 . S
C1317 C1316 1.334 . S
C1317 C1318 1.287 . S
C1318 C1317 1.287 . S
C1318 C1319 1.524 . S
C1318 H1337 0.913 . S
C1319 H1295 0.950 . S
C1319 C1318 1.524 . S
C1319 C1320 1.415 . S
C1320 H1296 0.950 . S
C1320 C1315 1.363 . S
C1320 C1319 1.415 . S
C1321 H1297 0.951 . S
C1321 C1322 1.366 . S
C1321 C1323 1.388 . S
C1322 C1321 1.366 . S
C1322 C1326 1.385 . S
C1323 H1298 0.951 . S
C1323 C1321 1.388 . S
C1323 C1324 1.366 . S
C1324 C1323 1.366 . S
C1324 C1325 1.414 . S
C1324 C1327 1.499 . S
C1325 H1299 0.950 . S
C1325 C1324 1.414 . S
C1325 C1326 1.374 . S
C1326 H1300 0.950 . S
C1326 C1322 1.385 . S
C1326 C1325 1.374 . S
C1327 C1324 1.499 . S
C1327 C1328 1.373 . S
C1327 C1329 1.389 . S
C1328 H1301 0.950 . S
C1328 C1314 1.377 . S
C1328 C1327 1.373 . S
C1329 C1313 1.377 . S
C1329 C1327 1.389 . S
C1329 C1330 1.524 . S
C1330 C1329 1.524 . S
C1330 C1331 1.397 . S
C1330 C1335 1.363 . S
C1331 H1302 0.950 . S
C1331 C1330 1.397 . S
C1331 C1332 1.334 . S
C1332 H1303 0.950 . S
C1332 C1331 1.334 . S
C1332 C1333 1.287 . S
C1333 C1332 1.287 . S
C1333 C1334 1.524 . S
C1333 H1336 0.999 1_455 S
C1334 H1304 0.950 1_455 S
C1334 C1333 1.524 . S
C1334 C1335 1.415 . S
C1335 H1305 0.950 . S
C1335 C1330 1.363 . S
C1335 C1334 1.415 . S
H1336 C1333 0.999 1_655 S
H1337 C1318 0.913 . S
H1338 C1356 0.951 . S
H1339 C1358 0.951 . S
H1340 C1360 0.950 . S
H1341 C1361 0.950 . S
H1342 C1363 0.950 . S
H1343 C1366 0.950 . S
H1344 C1367 0.950 . S
H1345 C1369 0.950 . S
H1346 C1370 0.950 . S
H1347 C1371 0.951 . S
H1348 C1373 0.951 . S
H1349 C1375 0.950 . S
H1350 C1376 0.950 . S
H1351 C1378 0.950 . S
H1352 C1381 0.950 . S
H1353 C1382 0.950 . S
H1354 C1384 0.950 . S
H1355 C1385 0.950 . S
C1356 H1338 0.951 . S
C1356 C1357 1.366 . S
C1356 C1358 1.388 . S
C1357 C1356 1.366 . S
C1357 C1361 1.385 . S
C1358 H1339 0.951 . S
C1358 C1356 1.388 . S
C1358 C1359 1.366 . S
C1359 C1358 1.366 . S
C1359 C1360 1.414 . S
C1359 C1362 1.499 . S
C1360 H1340 0.950 . S
C1360 C1359 1.414 . S
C1360 C1361 1.374 . S
C1361 H1341 0.950 . S
C1361 C1357 1.385 . S
C1361 C1360 1.374 . S
C1362 C1359 1.499 . S
C1362 C1363 1.373 . S
C1362 C1364 1.389 . S
C1363 H1342 0.950 . S
C1363 C1362 1.373 . S
C1363 C1379 1.377 . S
C1364 C1362 1.389 . S
C1364 C1365 1.524 . S
C1364 C1378 1.377 . S
C1365 C1364 1.524 . S
C1365 C1366 1.397 . S
C1365 C1370 1.363 . S
C1366 H1343 0.950 . S
C1366 C1365 1.397 . S
C1366 C1367 1.334 . S
C1367 H1344 0.950 . S
C1367 C1366 1.334 . S
C1367 C1368 1.287 . S
C1368 C1367 1.287 . S
C1368 C1369 1.524 . S
C1368 H1387 0.913 . S
C1369 H1345 0.950 . S
C1369 C1368 1.524 . S
C1369 C1370 1.415 . S
C1370 H1346 0.950 . S
C1370 C1365 1.363 . S
C1370 C1369 1.415 . S
C1371 H1347 0.951 . S
C1371 C1372 1.366 . S
C1371 C1373 1.388 . S
C1372 C1371 1.366 . S
C1372 C1376 1.385 . S
C1373 H1348 0.951 . S
C1373 C1371 1.388 . S
C1373 C1374 1.366 . S
C1374 C1373 1.366 . S
C1374 C1375 1.414 . S
C1374 C1377 1.499 . S
C1375 H1349 0.950 . S
C1375 C1374 1.414 . S
C1375 C1376 1.374 . S
C1376 H1350 0.950 . S
C1376 C1372 1.385 . S
C1376 C1375 1.374 . S
C1377 C1374 1.499 . S
C1377 C1378 1.373 . S
C1377 C1379 1.389 . S
C1378 H1351 0.950 . S
C1378 C1364 1.377 . S
C1378 C1377 1.373 . S
C1379 C1363 1.377 . S
C1379 C1377 1.389 . S
C1379 C1380 1.524 . S
C1380 C1379 1.524 . S
C1380 C1381 1.397 . S
C1380 C1385 1.363 . S
C1381 H1352 0.950 . S
C1381 C1380 1.397 . S
C1381 C1382 1.334 . S
C1382 H1353 0.950 . S
C1382 C1381 1.334 . S
C1382 C1383 1.287 . S
C1383 C1382 1.287 . S
C1383 C1384 1.524 . S
C1383 H1386 0.999 . S
C1384 H1354 0.950 . S
C1384 C1383 1.524 . S
C1384 C1385 1.415 . S
C1385 H1355 0.950 . S
C1385 C1380 1.363 . S
C1385 C1384 1.415 . S
H1386 C1383 0.999 . S
H1387 C1368 0.913 . S
H1388 C1406 0.951 . S
H1389 C1408 0.951 . S
H1390 C1410 0.950 . S
H1391 C1411 0.950 . S
H1392 C1413 0.950 . S
H1393 C1416 0.950 . S
H1394 C1417 0.950 . S
H1395 C1419 0.950 . S
H1396 C1420 0.950 . S
H1397 C1421 0.951 . S
H1398 C1423 0.951 . S
H1399 C1425 0.950 . S
H1400 C1426 0.950 . S
H1401 C1428 0.950 . S
H1402 C1431 0.950 . S
H1403 C1432 0.950 . S
H1404 C1434 0.950 . S
H1405 C1435 0.950 . S
C1406 H1388 0.951 . S
C1406 C1407 1.366 . S
C1406 C1408 1.388 . S
C1407 C1406 1.366 . S
C1407 C1411 1.385 . S
C1408 H1389 0.951 . S
C1408 C1406 1.388 . S
C1408 C1409 1.366 . S
C1409 C1408 1.366 . S
C1409 C1410 1.414 . S
C1409 C1412 1.499 . S
C1410 H1390 0.950 . S
C1410 C1409 1.414 . S
C1410 C1411 1.374 . S
C1411 H1391 0.950 . S
C1411 C1407 1.385 . S
C1411 C1410 1.374 . S
C1412 C1409 1.499 . S
C1412 C1413 1.373 . S
C1412 C1414 1.389 . S
C1413 H1392 0.950 . S
C1413 C1412 1.373 . S
C1413 C1429 1.377 . S
C1414 C1412 1.389 . S
C1414 C1415 1.524 . S
C1414 C1428 1.377 . S
C1415 C1414 1.524 . S
C1415 C1416 1.397 . S
C1415 C1420 1.363 . S
C1416 H1393 0.950 . S
C1416 C1415 1.397 . S
C1416 C1417 1.334 . S
C1417 H1394 0.950 . S
C1417 C1416 1.334 . S
C1417 C1418 1.287 . S
C1418 C1417 1.287 . S
C1418 C1419 1.524 . S
C1418 H1437 0.913 . S
C1419 H1395 0.950 . S
C1419 C1418 1.524 . S
C1419 C1420 1.415 . S
C1420 H1396 0.950 . S
C1420 C1415 1.363 . S
C1420 C1419 1.415 . S
C1421 H1397 0.951 . S
C1421 C1422 1.366 . S
C1421 C1423 1.388 . S
C1422 C1421 1.366 . S
C1422 C1426 1.385 . S
C1423 H1398 0.951 . S
C1423 C1421 1.388 . S
C1423 C1424 1.366 . S
C1424 C1423 1.366 . S
C1424 C1425 1.414 . S
C1424 C1427 1.499 . S
C1425 H1399 0.950 . S
C1425 C1424 1.414 . S
C1425 C1426 1.374 . S
C1426 H1400 0.950 . S
C1426 C1422 1.385 . S
C1426 C1425 1.374 . S
C1427 C1424 1.499 . S
C1427 C1428 1.373 . S
C1427 C1429 1.389 . S
C1428 H1401 0.950 . S
C1428 C1414 1.377 . S
C1428 C1427 1.373 . S
C1429 C1413 1.377 . S
C1429 C1427 1.389 . S
C1429 C1430 1.524 . S
C1430 C1429 1.524 . S
C1430 C1431 1.397 . S
C1430 C1435 1.363 . S
C1431 H1402 0.950 . S
C1431 C1430 1.397 . S
C1431 C1432 1.334 . S
C1432 H1403 0.950 . S
C1432 C1431 1.334 . S
C1432 C1433 1.287 . S
C1433 C1432 1.287 . S
C1433 C1434 1.524 . S
C1433 H1436 0.999 . S
C1434 H1404 0.950 . S
C1434 C1433 1.524 . S
C1434 C1435 1.415 . S
C1435 H1405 0.950 . S
C1435 C1430 1.363 . S
C1435 C1434 1.415 . S
H1436 C1433 0.999 . S
H1437 C1418 0.913 . S
H1438 C1456 0.951 . S
H1439 C1458 0.951 . S
H1440 C1460 0.950 . S
H1441 C1461 0.950 . S
H1442 C1463 0.950 . S
H1443 C1466 0.950 . S
H1444 C1467 0.950 . S
H1445 C1469 0.950 . S
H1446 C1470 0.950 . S
H1447 C1471 0.951 . S
H1448 C1473 0.951 . S
H1449 C1475 0.950 . S
H1450 C1476 0.950 . S
H1451 C1478 0.950 . S
H1452 C1481 0.950 . S
H1453 C1482 0.950 1_455 S
H1454 C1484 0.950 . S
H1455 C1485 0.950 . S
C1456 H1438 0.951 . S
C1456 C1457 1.366 . S
C1456 C1458 1.388 . S
C1457 C1456 1.366 . S
C1457 C1461 1.385 . S
C1458 H1439 0.951 . S
C1458 C1456 1.388 . S
C1458 C1459 1.366 . S
C1459 C1458 1.366 . S
C1459 C1460 1.414 . S
C1459 C1462 1.499 . S
C1460 H1440 0.950 . S
C1460 C1459 1.414 . S
C1460 C1461 1.374 . S
C1461 H1441 0.950 . S
C1461 C1457 1.385 . S
C1461 C1460 1.374 . S
C1462 C1459 1.499 . S
C1462 C1463 1.373 . S
C1462 C1464 1.389 . S
C1463 H1442 0.950 . S
C1463 C1462 1.373 . S
C1463 C1479 1.377 . S
C1464 C1462 1.389 . S
C1464 C1465 1.524 . S
C1464 C1478 1.377 . S
C1465 C1464 1.524 . S
C1465 C1466 1.397 . S
C1465 C1470 1.363 . S
C1466 H1443 0.950 . S
C1466 C1465 1.397 . S
C1466 C1467 1.334 . S
C1467 H1444 0.950 . S
C1467 C1466 1.334 . S
C1467 C1468 1.287 . S
C1468 C1467 1.287 . S
C1468 C1469 1.524 . S
C1468 H1487 0.913 . S
C1469 H1445 0.950 . S
C1469 C1468 1.524 . S
C1469 C1470 1.415 . S
C1470 H1446 0.950 . S
C1470 C1465 1.363 . S
C1470 C1469 1.415 . S
C1471 H1447 0.951 . S
C1471 C1472 1.366 . S
C1471 C1473 1.388 . S
C1472 C1471 1.366 . S
C1472 C1476 1.385 . S
C1473 H1448 0.951 . S
C1473 C1471 1.388 . S
C1473 C1474 1.366 . S
C1474 C1473 1.366 . S
C1474 C1475 1.414 . S
C1474 C1477 1.499 . S
C1475 H1449 0.950 . S
C1475 C1474 1.414 . S
C1475 C1476 1.374 . S
C1476 H1450 0.950 . S
C1476 C1472 1.385 . S
C1476 C1475 1.374 . S
C1477 C1474 1.499 . S
C1477 C1478 1.373 . S
C1477 C1479 1.389 . S
C1478 H1451 0.950 . S
C1478 C1464 1.377 . S
C1478 C1477 1.373 . S
C1479 C1463 1.377 . S
C1479 C1477 1.389 . S
C1479 C1480 1.524 . S
C1480 C1479 1.524 . S
C1480 C1481 1.397 . S
C1480 C1485 1.363 . S
C1481 H1452 0.950 . S
C1481 C1480 1.397 . S
C1481 C1482 1.334 . S
C1482 H1453 0.950 1_655 S
C1482 C1481 1.334 . S
C1482 C1483 1.287 1_655 S
C1483 C1482 1.287 1_455 S
C1483 C1484 1.524 . S
C1483 H1486 0.999 . S
C1484 H1454 0.950 . S
C1484 C1483 1.524 . S
C1484 C1485 1.415 1_455 S
C1485 H1455 0.950 . S
C1485 C1480 1.363 . S
C1485 C1484 1.415 1_655 S
H1486 C1483 0.999 . S
H1487 C1468 0.913 . S
H1488 C1506 0.951 . S
H1489 C1508 0.951 . S
H1490 C1510 0.950 . S
H1491 C1511 0.950 . S
H1492 C1513 0.950 . S
H1493 C1516 0.950 . S
H1494 C1517 0.950 . S
H1495 C1519 0.950 . S
H1496 C1520 0.950 . S
H1497 C1521 0.951 . S
H1498 C1523 0.951 . S
H1499 C1525 0.950 . S
H1500 C1526 0.950 . S
H1501 C1528 0.950 . S
H1502 C1531 0.950 . S
H1503 C1532 0.950 . S
H1504 C1534 0.950 . S
H1505 C1535 0.950 . S
C1506 H1488 0.951 . S
C1506 C1507 1.366 . S
C1506 C1508 1.388 . S
C1507 C1506 1.366 . S
C1507 C1511 1.385 . S
C1508 H1489 0.951 . S
C1508 C1506 1.388 . S
C1508 C1509 1.366 . S
C1509 C1508 1.366 . S
C1509 C1510 1.414 . S
C1509 C1512 1.499 . S
C1510 H1490 0.950 . S
C1510 C1509 1.414 . S
C1510 C1511 1.374 . S
C1511 H1491 0.950 . S
C1511 C1507 1.385 . S
C1511 C1510 1.374 . S
C1512 C1509 1.499 . S
C1512 C1513 1.373 . S
C1512 C1514 1.389 . S
C1513 H1492 0.950 . S
C1513 C1512 1.373 . S
C1513 C1529 1.377 . S
C1514 C1512 1.389 . S
C1514 C1515 1.524 . S
C1514 C1528 1.377 . S
C1515 C1514 1.524 . S
C1515 C1516 1.397 . S
C1515 C1520 1.363 . S
C1516 H1493 0.950 . S
C1516 C1515 1.397 . S
C1516 C1517 1.334 . S
C1517 H1494 0.950 . S
C1517 C1516 1.334 . S
C1517 C1518 1.287 . S
C1518 C1517 1.287 . S
C1518 C1519 1.524 . S
C1518 H1537 0.913 . S
C1519 H1495 0.950 . S
C1519 C1518 1.524 . S
C1519 C1520 1.415 . S
C1520 H1496 0.950 . S
C1520 C1515 1.363 . S
C1520 C1519 1.415 . S
C1521 H1497 0.951 . S
C1521 C1522 1.366 . S
C1521 C1523 1.388 . S
C1522 C1521 1.366 . S
C1522 C1526 1.385 . S
C1523 H1498 0.951 . S
C1523 C1521 1.388 . S
C1523 C1524 1.366 . S
C1524 C1523 1.366 . S
C1524 C1525 1.414 . S
C1524 C1527 1.499 . S
C1525 H1499 0.950 . S
C1525 C1524 1.414 . S
C1525 C1526 1.374 . S
C1526 H1500 0.950 . S
C1526 C1522 1.385 . S
C1526 C1525 1.374 . S
C1527 C1524 1.499 . S
C1527 C1528 1.373 . S
C1527 C1529 1.389 . S
C1528 H1501 0.950 . S
C1528 C1514 1.377 . S
C1528 C1527 1.373 . S
C1529 C1513 1.377 . S
C1529 C1527 1.389 . S
C1529 C1530 1.524 . S
C1530 C1529 1.524 . S
C1530 C1531 1.397 . S
C1530 C1535 1.363 . S
C1531 H1502 0.950 . S
C1531 C1530 1.397 . S
C1531 C1532 1.334 . S
C1532 H1503 0.950 . S
C1532 C1531 1.334 . S
C1532 C1533 1.287 . S
C1533 C1532 1.287 . S
C1533 C1534 1.524 . S
C1533 H1536 0.999 . S
C1534 H1504 0.950 . S
C1534 C1533 1.524 . S
C1534 C1535 1.415 . S
C1535 H1505 0.950 . S
C1535 C1530 1.363 . S
C1535 C1534 1.415 . S
H1536 C1533 0.999 . S
H1537 C1518 0.913 . S
H1538 C1556 0.951 . S
H1539 C1558 0.951 . S
H1540 C1560 0.950 . S
H1541 C1561 0.950 . S
H1542 C1563 0.950 . S
H1543 C1566 0.950 . S
H1544 C1567 0.950 . S
H1545 C1569 0.950 . S
H1546 C1570 0.950 . S
H1547 C1571 0.951 . S
H1548 C1573 0.951 . S
H1549 C1575 0.950 . S
H1550 C1576 0.950 . S
H1551 C1578 0.950 . S
H1552 C1581 0.950 . S
H1553 C1582 0.950 . S
H1554 C1584 0.950 . S
H1555 C1585 0.950 . S
C1556 H1538 0.951 . S
C1556 C1557 1.366 . S
C1556 C1558 1.388 . S
C1557 C1556 1.366 . S
C1557 C1561 1.385 . S
C1558 H1539 0.951 . S
C1558 C1556 1.388 . S
C1558 C1559 1.366 . S
C1559 C1558 1.366 . S
C1559 C1560 1.414 . S
C1559 C1562 1.499 . S
C1560 H1540 0.950 . S
C1560 C1559 1.414 . S
C1560 C1561 1.374 . S
C1561 H1541 0.950 . S
C1561 C1557 1.385 . S
C1561 C1560 1.374 . S
C1562 C1559 1.499 . S
C1562 C1563 1.373 . S
C1562 C1564 1.389 . S
C1563 H1542 0.950 . S
C1563 C1562 1.373 . S
C1563 C1579 1.377 . S
C1564 C1562 1.389 . S
C1564 C1565 1.524 . S
C1564 C1578 1.377 . S
C1565 C1564 1.524 . S
C1565 C1566 1.397 . S
C1565 C1570 1.363 . S
C1566 H1543 0.950 . S
C1566 C1565 1.397 . S
C1566 C1567 1.334 . S
C1567 H1544 0.950 . S
C1567 C1566 1.334 . S
C1567 C1568 1.287 . S
C1568 C1567 1.287 . S
C1568 C1569 1.524 . S
C1568 H1587 0.913 . S
C1569 H1545 0.950 . S
C1569 C1568 1.524 . S
C1569 C1570 1.415 . S
C1570 H1546 0.950 . S
C1570 C1565 1.363 . S
C1570 C1569 1.415 . S
C1571 H1547 0.951 . S
C1571 C1572 1.366 . S
C1571 C1573 1.388 . S
C1572 C1571 1.366 . S
C1572 C1576 1.385 . S
C1573 H1548 0.951 . S
C1573 C1571 1.388 . S
C1573 C1574 1.366 . S
C1574 C1573 1.366 . S
C1574 C1575 1.414 . S
C1574 C1577 1.499 . S
C1575 H1549 0.950 . S
C1575 C1574 1.414 . S
C1575 C1576 1.374 . S
C1576 H1550 0.950 . S
C1576 C1572 1.385 . S
C1576 C1575 1.374 . S
C1577 C1574 1.499 . S
C1577 C1578 1.373 . S
C1577 C1579 1.389 . S
C1578 H1551 0.950 . S
C1578 C1564 1.377 . S
C1578 C1577 1.373 . S
C1579 C1563 1.377 . S
C1579 C1577 1.389 . S
C1579 C1580 1.524 . S
C1580 C1579 1.524 . S
C1580 C1581 1.397 . S
C1580 C1585 1.363 . S
C1581 H1552 0.950 . S
C1581 C1580 1.397 . S
C1581 C1582 1.334 . S
C1582 H1553 0.950 . S
C1582 C1581 1.334 . S
C1582 C1583 1.287 . S
C1583 C1582 1.287 . S
C1583 C1584 1.524 . S
C1583 H1586 0.999 . S
C1584 H1554 0.950 . S
C1584 C1583 1.524 . S
C1584 C1585 1.415 . S
C1585 H1555 0.950 . S
C1585 C1580 1.363 . S
C1585 C1584 1.415 . S
H1586 C1583 0.999 . S
H1587 C1568 0.913 . S
H1588 C1606 0.951 . S
H1589 C1608 0.951 . S
H1590 C1610 0.950 . S
H1591 C1611 0.950 . S
H1592 C1613 0.950 . S
H1593 C1616 0.950 . S
H1594 C1617 0.950 . S
H1595 C1619 0.950 . S
H1596 C1620 0.950 . S
H1597 C1621 0.951 . S
H1598 C1623 0.951 . S
H1599 C1625 0.950 . S
H1600 C1626 0.950 . S
H1601 C1628 0.950 . S
H1602 C1631 0.950 . S
H1603 C1632 0.950 . S
H1604 C1634 0.950 . S
H1605 C1635 0.950 . S
C1606 H1588 0.951 . S
C1606 C1607 1.366 . S
C1606 C1608 1.388 . S
C1607 C1606 1.366 . S
C1607 C1611 1.385 . S
C1608 H1589 0.951 . S
C1608 C1606 1.388 . S
C1608 C1609 1.366 . S
C1609 C1608 1.366 . S
C1609 C1610 1.414 . S
C1609 C1612 1.499 . S
C1610 H1590 0.950 . S
C1610 C1609 1.414 . S
C1610 C1611 1.374 . S
C1611 H1591 0.950 . S
C1611 C1607 1.385 . S
C1611 C1610 1.374 . S
C1612 C1609 1.499 . S
C1612 C1613 1.373 . S
C1612 C1614 1.389 . S
C1613 H1592 0.950 . S
C1613 C1612 1.373 . S
C1613 C1629 1.377 . S
C1614 C1612 1.389 . S
C1614 C1615 1.524 . S
C1614 C1628 1.377 . S
C1615 C1614 1.524 . S
C1615 C1616 1.397 . S
C1615 C1620 1.363 . S
C1616 H1593 0.950 . S
C1616 C1615 1.397 . S
C1616 C1617 1.334 . S
C1617 H1594 0.950 . S
C1617 C1616 1.334 . S
C1617 C1618 1.287 . S
C1618 C1617 1.287 . S
C1618 C1619 1.524 . S
C1618 H1637 0.913 . S
C1619 H1595 0.950 . S
C1619 C1618 1.524 . S
C1619 C1620 1.415 . S
C1620 H1596 0.950 . S
C1620 C1615 1.363 . S
C1620 C1619 1.415 . S
C1621 H1597 0.951 . S
C1621 C1622 1.366 . S
C1621 C1623 1.388 . S
C1622 C1621 1.366 . S
C1622 C1626 1.385 . S
C1623 H1598 0.951 . S
C1623 C1621 1.388 . S
C1623 C1624 1.366 . S
C1624 C1623 1.366 . S
C1624 C1625 1.414 . S
C1624 C1627 1.499 . S
C1625 H1599 0.950 . S
C1625 C1624 1.414 . S
C1625 C1626 1.374 . S
C1626 H1600 0.950 . S
C1626 C1622 1.385 . S
C1626 C1625 1.374 . S
C1627 C1624 1.499 . S
C1627 C1628 1.373 . S
C1627 C1629 1.389 . S
C1628 H1601 0.950 . S
C1628 C1614 1.377 . S
C1628 C1627 1.373 . S
C1629 C1613 1.377 . S
C1629 C1627 1.389 . S
C1629 C1630 1.524 . S
C1630 C1629 1.524 . S
C1630 C1631 1.397 . S
C1630 C1635 1.363 . S
C1631 H1602 0.950 . S
C1631 C1630 1.397 . S
C1631 C1632 1.334 . S
C1632 H1603 0.950 . S
C1632 C1631 1.334 . S
C1632 C1633 1.287 . S
C1633 C1632 1.287 . S
C1633 C1634 1.524 . S
C1633 H1636 0.999 . S
C1634 H1604 0.950 . S
C1634 C1633 1.524 . S
C1634 C1635 1.415 . S
C1635 H1605 0.950 . S
C1635 C1630 1.363 . S
C1635 C1634 1.415 . S
H1636 C1633 0.999 . S
H1637 C1618 0.913 . S
H1638 C1656 0.951 . S
H1639 C1658 0.951 . S
H1640 C1660 0.950 . S
H1641 C1661 0.950 . S
H1642 C1663 0.950 . S
H1643 C1666 0.950 . S
H1644 C1667 0.950 . S
H1645 C1669 0.950 . S
H1646 C1670 0.950 . S
H1647 C1671 0.951 . S
H1648 C1673 0.951 . S
H1649 C1675 0.950 . S
H1650 C1676 0.950 . S
H1651 C1678 0.950 . S
H1652 C1681 0.950 . S
H1653 C1682 0.950 . S
H1654 C1684 0.950 . S
H1655 C1685 0.950 . S
C1656 H1638 0.951 . S
C1656 C1657 1.366 . S
C1656 C1658 1.388 . S
C1657 C1656 1.366 . S
C1657 C1661 1.385 . S
C1658 H1639 0.951 . S
C1658 C1656 1.388 . S
C1658 C1659 1.366 . S
C1659 C1658 1.366 . S
C1659 C1660 1.414 . S
C1659 C1662 1.499 . S
C1660 H1640 0.950 . S
C1660 C1659 1.414 . S
C1660 C1661 1.374 . S
C1661 H1641 0.950 . S
C1661 C1657 1.385 . S
C1661 C1660 1.374 . S
C1662 C1659 1.499 . S
C1662 C1663 1.373 . S
C1662 C1664 1.389 . S
C1663 H1642 0.950 . S
C1663 C1662 1.373 . S
C1663 C1679 1.377 . S
C1664 C1662 1.389 . S
C1664 C1665 1.524 . S
C1664 C1678 1.377 . S
C1665 C1664 1.524 . S
C1665 C1666 1.397 . S
C1665 C1670 1.363 . S
C1666 H1643 0.950 . S
C1666 C1665 1.397 . S
C1666 C1667 1.334 . S
C1667 H1644 0.950 . S
C1667 C1666 1.334 . S
C1667 C1668 1.287 . S
C1668 C1667 1.287 . S
C1668 C1669 1.524 . S
C1668 H1687 0.913 . S
C1669 H1645 0.950 . S
C1669 C1668 1.524 . S
C1669 C1670 1.415 . S
C1670 H1646 0.950 . S
C1670 C1665 1.363 . S
C1670 C1669 1.415 . S
C1671 H1647 0.951 . S
C1671 C1672 1.366 . S
C1671 C1673 1.388 . S
C1672 C1671 1.366 . S
C1672 C1676 1.385 . S
C1673 H1648 0.951 . S
C1673 C1671 1.388 . S
C1673 C1674 1.366 . S
C1674 C1673 1.366 . S
C1674 C1675 1.414 . S
C1674 C1677 1.499 . S
C1675 H1649 0.950 . S
C1675 C1674 1.414 . S
C1675 C1676 1.374 . S
C1676 H1650 0.950 . S
C1676 C1672 1.385 . S
C1676 C1675 1.374 . S
C1677 C1674 1.499 . S
C1677 C1678 1.373 . S
C1677 C1679 1.389 . S
C1678 H1651 0.950 . S
C1678 C1664 1.377 . S
C1678 C1677 1.373 . S
C1679 C1663 1.377 . S
C1679 C1677 1.389 . S
C1679 C1680 1.524 . S
C1680 C1679 1.524 . S
C1680 C1681 1.397 . S
C1680 C1685 1.363 . S
C1681 H1652 0.950 . S
C1681 C1680 1.397 . S
C1681 C1682 1.334 . S
C1682 H1653 0.950 . S
C1682 C1681 1.334 . S
C1682 C1683 1.287 . S
C1683 C1682 1.287 . S
C1683 C1684 1.524 . S
C1683 H1686 0.999 . S
C1684 H1654 0.950 . S
C1684 C1683 1.524 . S
C1684 C1685 1.415 . S
C1685 H1655 0.950 . S
C1685 C1680 1.363 . S
C1685 C1684 1.415 . S
H1686 C1683 0.999 . S
H1687 C1668 0.913 . S
C507 C116 1.839 . S
C522 C208 1.829 . S
C572 C292 1.829 . S
C557 C135 1.839 . S
C622 C291 1.839 . S
C607 C78 1.832 . S
C657 C97 1.832 . S
C672 C207 1.839 . S
C722 C388 1.829 . S
C707 C40 1.840 . S
C772 C472 1.829 . S
C757 C59 1.840 . S
C807 C2 1.832 . S
C822 C471 1.839 . S
C857 C21 1.833 . S
C872 C387 1.839 . S
C922 C210 1.594 . S
C907 C25 1.767 . S
C972 C294 1.593 . S
C957 C6 1.767 . S
C1022 C306 1.513 . S
C1007 C63 1.774 . S
C1072 C222 1.513 . S
C1057 C44 1.774 . S
C1122 C390 1.593 . S
C1107 C101 1.765 . S
C1157 C82 1.765 . S
C1172 C474 1.594 . S
C1222 C462 1.514 . S
C1207 C139 1.772 . S
C1257 C120 1.772 . S
C1272 C378 1.514 . S
C1322 C219 1.544 . S
C1307 C11 1.469 . S
C1372 C303 1.543 . S
C1357 C30 1.470 . S
C1407 C49 1.461 . S
C1422 C304 1.509 . S
C1472 C220 1.509 . S
C1457 C68 1.460 . S
C1522 C375 1.543 . S
C1507 C87 1.425 . S
C1557 C106 1.423 . S
C1572 C459 1.543 . S
C1607 C125 1.421 . S
C1622 C460 1.509 . S
C1657 C144 1.421 . S
C1672 C376 1.509 . S
