# Generated by pormake.
# Topology eea, (3,6)-cn, num edge types: 1
# Building blocks:
#     Node 0, Type 0, BuildingBlock: PAMTOO_clean_linker_0, # of connection points: 3
#     Node 1, Type 0, BuildingBlock: PAMTOO_clean_linker_0, # of connection points: 3
#     Node 2, Type 0, BuildingBlock: PAMTOO_clean_linker_0, # of connection points: 3
#     Node 3, Type 0, BuildingBlock: PAMTOO_clean_linker_0, # of connection points: 3
#     Node 4, Type 0, BuildingBlock: PAMTOO_clean_linker_0, # of connection points: 3
#     Node 5, Type 0, BuildingBlock: PAMTOO_clean_linker_0, # of connection points: 3
#     Node 6, Type 0, BuildingBlock: PAMTOO_clean_linker_0, # of connection points: 3
#     Node 7, Type 0, BuildingBlock: PAMTOO_clean_linker_0, # of connection points: 3
#     Node 8, Type 0, BuildingBlock: PAMTOO_clean_linker_0, # of connection points: 3
#     Node 9, Type 0, BuildingBlock: PAMTOO_clean_linker_0, # of connection points: 3
#     Node 10, Type 0, BuildingBlock: PAMTOO_clean_linker_0, # of connection points: 3
#     Node 11, Type 0, BuildingBlock: PAMTOO_clean_linker_0, # of connection points: 3
#     Node 12, Type 0, BuildingBlock: PAMTOO_clean_linker_0, # of connection points: 3
#     Node 13, Type 0, BuildingBlock: PAMTOO_clean_linker_0, # of connection points: 3
#     Node 14, Type 0, BuildingBlock: PAMTOO_clean_linker_0, # of connection points: 3
#     Node 15, Type 0, BuildingBlock: PAMTOO_clean_linker_0, # of connection points: 3
#     Node 16, Type 0, BuildingBlock: PAMTOO_clean_linker_0, # of connection points: 3
#     Node 17, Type 0, BuildingBlock: PAMTOO_clean_linker_0, # of connection points: 3
#     Node 18, Type 1, BuildingBlock: HISSIN_clean_sbu_0, # of connection points: 6
#     Node 19, Type 1, BuildingBlock: HISSIN_clean_sbu_0, # of connection points: 6
#     Node 20, Type 1, BuildingBlock: HISSIN_clean_sbu_0, # of connection points: 6
#     Node 21, Type 1, BuildingBlock: HISSIN_clean_sbu_0, # of connection points: 6
#     Node 22, Type 1, BuildingBlock: HISSIN_clean_sbu_0, # of connection points: 6
#     Node 23, Type 1, BuildingBlock: HISSIN_clean_sbu_0, # of connection points: 6
#     Node 24, Type 1, BuildingBlock: HISSIN_clean_sbu_0, # of connection points: 6
#     Node 25, Type 1, BuildingBlock: HISSIN_clean_sbu_0, # of connection points: 6
#     Node 26, Type 1, BuildingBlock: HISSIN_clean_sbu_0, # of connection points: 6
#     Edge 27, Type (0, 1), BuildingBlock: ZUJKAS_clean_linker_0, # of connection points: 2
#     Edge 28, Type (0, 1), BuildingBlock: ZUJKAS_clean_linker_0, # of connection points: 2
#     Edge 29, Type (0, 1), BuildingBlock: ZUJKAS_clean_linker_0, # of connection points: 2
#     Edge 30, Type (0, 1), BuildingBlock: ZUJKAS_clean_linker_0, # of connection points: 2
#     Edge 31, Type (0, 1), BuildingBlock: ZUJKAS_clean_linker_0, # of connection points: 2
#     Edge 32, Type (0, 1), BuildingBlock: ZUJKAS_clean_linker_0, # of connection points: 2
#     Edge 33, Type (0, 1), BuildingBlock: ZUJKAS_clean_linker_0, # of connection points: 2
#     Edge 34, Type (0, 1), BuildingBlock: ZUJKAS_clean_linker_0, # of connection points: 2
#     Edge 35, Type (0, 1), BuildingBlock: ZUJKAS_clean_linker_0, # of connection points: 2
#     Edge 36, Type (0, 1), BuildingBlock: ZUJKAS_clean_linker_0, # of connection points: 2
#     Edge 37, Type (0, 1), BuildingBlock: ZUJKAS_clean_linker_0, # of connection points: 2
#     Edge 38, Type (0, 1), BuildingBlock: ZUJKAS_clean_linker_0, # of connection points: 2
#     Edge 39, Type (0, 1), BuildingBlock: ZUJKAS_clean_linker_0, # of connection points: 2
#     Edge 40, Type (0, 1), BuildingBlock: ZUJKAS_clean_linker_0, # of connection points: 2
#     Edge 41, Type (0, 1), BuildingBlock: ZUJKAS_clean_linker_0, # of connection points: 2
#     Edge 42, Type (0, 1), BuildingBlock: ZUJKAS_clean_linker_0, # of connection points: 2
#     Edge 43, Type (0, 1), BuildingBlock: ZUJKAS_clean_linker_0, # of connection points: 2
#     Edge 44, Type (0, 1), BuildingBlock: ZUJKAS_clean_linker_0, # of connection points: 2
#     Edge 45, Type (0, 1), BuildingBlock: ZUJKAS_clean_linker_0, # of connection points: 2
#     Edge 46, Type (0, 1), BuildingBlock: ZUJKAS_clean_linker_0, # of connection points: 2
#     Edge 47, Type (0, 1), BuildingBlock: ZUJKAS_clean_linker_0, # of connection points: 2
#     Edge 48, Type (0, 1), BuildingBlock: ZUJKAS_clean_linker_0, # of connection points: 2
#     Edge 49, Type (0, 1), BuildingBlock: ZUJKAS_clean_linker_0, # of connection points: 2
#     Edge 50, Type (0, 1), BuildingBlock: ZUJKAS_clean_linker_0, # of connection points: 2
#     Edge 51, Type (0, 1), BuildingBlock: ZUJKAS_clean_linker_0, # of connection points: 2
#     Edge 52, Type (0, 1), BuildingBlock: ZUJKAS_clean_linker_0, # of connection points: 2
#     Edge 53, Type (0, 1), BuildingBlock: ZUJKAS_clean_linker_0, # of connection points: 2
#     Edge 54, Type (0, 1), BuildingBlock: ZUJKAS_clean_linker_0, # of connection points: 2
#     Edge 55, Type (0, 1), BuildingBlock: ZUJKAS_clean_linker_0, # of connection points: 2
#     Edge 56, Type (0, 1), BuildingBlock: ZUJKAS_clean_linker_0, # of connection points: 2
#     Edge 57, Type (0, 1), BuildingBlock: ZUJKAS_clean_linker_0, # of connection points: 2
#     Edge 58, Type (0, 1), BuildingBlock: ZUJKAS_clean_linker_0, # of connection points: 2
#     Edge 59, Type (0, 1), BuildingBlock: ZUJKAS_clean_linker_0, # of connection points: 2
#     Edge 60, Type (0, 1), BuildingBlock: ZUJKAS_clean_linker_0, # of connection points: 2
#     Edge 61, Type (0, 1), BuildingBlock: ZUJKAS_clean_linker_0, # of connection points: 2
#     Edge 62, Type (0, 1), BuildingBlock: ZUJKAS_clean_linker_0, # of connection points: 2
#     Edge 63, Type (0, 1), BuildingBlock: ZUJKAS_clean_linker_0, # of connection points: 2
#     Edge 64, Type (0, 1), BuildingBlock: ZUJKAS_clean_linker_0, # of connection points: 2
#     Edge 65, Type (0, 1), BuildingBlock: ZUJKAS_clean_linker_0, # of connection points: 2
#     Edge 66, Type (0, 1), BuildingBlock: ZUJKAS_clean_linker_0, # of connection points: 2
#     Edge 67, Type (0, 1), BuildingBlock: ZUJKAS_clean_linker_0, # of connection points: 2
#     Edge 68, Type (0, 1), BuildingBlock: ZUJKAS_clean_linker_0, # of connection points: 2
#     Edge 69, Type (0, 1), BuildingBlock: ZUJKAS_clean_linker_0, # of connection points: 2
#     Edge 70, Type (0, 1), BuildingBlock: ZUJKAS_clean_linker_0, # of connection points: 2
#     Edge 71, Type (0, 1), BuildingBlock: ZUJKAS_clean_linker_0, # of connection points: 2
#     Edge 72, Type (0, 1), BuildingBlock: ZUJKAS_clean_linker_0, # of connection points: 2
#     Edge 73, Type (0, 1), BuildingBlock: ZUJKAS_clean_linker_0, # of connection points: 2
#     Edge 74, Type (0, 1), BuildingBlock: ZUJKAS_clean_linker_0, # of connection points: 2
#     Edge 75, Type (0, 1), BuildingBlock: ZUJKAS_clean_linker_0, # of connection points: 2
#     Edge 76, Type (0, 1), BuildingBlock: ZUJKAS_clean_linker_0, # of connection points: 2
#     Edge 77, Type (0, 1), BuildingBlock: ZUJKAS_clean_linker_0, # of connection points: 2
#     Edge 78, Type (0, 1), BuildingBlock: ZUJKAS_clean_linker_0, # of connection points: 2
#     Edge 79, Type (0, 1), BuildingBlock: ZUJKAS_clean_linker_0, # of connection points: 2
#     Edge 80, Type (0, 1), BuildingBlock: ZUJKAS_clean_linker_0, # of connection points: 2
# Relax obj value: 0.056
# Max RMSD: 0.196
# Mean RMSD: 0.137
data_MOF--net-eea--node1-HISSIN_clean_sbu_0--node2-PAMTOO_clean_linker_0--edge1-ZUJKAS_clean_linker_0
_symmetry_space_group_name_H-M    P1
_symmetry_Int_Tables_number       1
_symmetry_cell_setting            triclinic
loop_
_symmetry_equiv_pos_as_xyz
'x, y, z'
_cell_length_a     71.237321
_cell_length_b     71.734593
_cell_length_c     85.850953
_cell_angle_alpha  93.384934
_cell_angle_beta   93.406138
_cell_angle_gamma 119.81075
loop_
_atom_site_label
_atom_site_type_symbol
_atom_site_fract_x
_atom_site_fract_y
_atom_site_fract_z
_atom_type_partial_charge
H0 H 0.27102 0.10946 0.42617 0.0
H1 H 0.26998 0.16829 0.42076 0.0
H2 H 0.24493 0.11849 0.38252 0.0
H3 H 0.26666 0.16214 0.37175 0.0
C4 C 0.26585 0.17113 0.38245 0.0
O5 O 0.25183 0.15673 0.39195 0.0
H6 H 0.28255 0.18073 0.38866 0.0
C7 C 0.26725 0.11935 0.41903 0.0
C8 C 0.25767 0.11143 0.40351 0.0
C9 C 0.2717 0.1398 0.42548 0.0
C10 C 0.26663 0.15244 0.41612 0.0
C11 C 0.25724 0.14475 0.40066 0.0
C12 C 0.25272 0.12435 0.3944 0.0
H13 H 0.93022 0.1695 0.43179 0.0
H14 H 0.8726 0.10636 0.42638 0.0
H15 H 0.91432 0.12677 0.38956 0.0
H16 H 0.86747 0.10046 0.37733 0.0
C17 C 0.8612 0.09294 0.38824 0.0
O18 O 0.87843 0.09574 0.39833 0.0
H19 H 0.85287 0.10097 0.39366 0.0
C20 C 0.91953 0.15416 0.42492 0.0
C21 C 0.92471 0.15004 0.41001 0.0
C22 C 0.90075 0.13854 0.43104 0.0
C23 C 0.88703 0.11878 0.42192 0.0
C24 C 0.89189 0.11471 0.407 0.0
C25 C 0.91075 0.13018 0.40113 0.0
H26 H 0.85889 0.76951 0.44151 0.0
H27 H 0.92176 0.77441 0.4428 0.0
H28 H 0.89943 0.7963 0.4043 0.0
H29 H 0.92117 0.77199 0.39585 0.0
C30 C 0.93345 0.77732 0.40623 0.0
O31 O 0.93137 0.79173 0.41635 0.0
H32 H 0.93031 0.76282 0.41218 0.0
C33 C 0.87374 0.77378 0.43619 0.0
C34 C 0.87698 0.78306 0.42191 0.0
C35 C 0.88972 0.77056 0.44391 0.0
C36 C 0.90929 0.77693 0.43718 0.0
C37 C 0.91268 0.7861 0.4229 0.0
C38 C 0.89665 0.78931 0.41537 0.0
H39 H 0.07889 0.2353 0.58451 0.0
H40 H 0.13618 0.22921 0.58642 0.0
H41 H 0.09482 0.20861 0.62346 0.0
H42 H 0.14167 0.23029 0.63431 0.0
C43 C 0.14774 0.22687 0.62348 0.0
O44 O 0.13021 0.21244 0.61304 0.0
H45 H 0.15737 0.24237 0.61831 0.0
C46 C 0.08962 0.23079 0.59053 0.0
C47 C 0.08443 0.22165 0.60485 0.0
C48 C 0.10817 0.2335 0.58366 0.0
C49 C 0.12163 0.227 0.59134 0.0
C50 C 0.11682 0.21817 0.60565 0.0
C51 C 0.09823 0.21536 0.61232 0.0
H52 H 0.75843 0.84601 0.60498 0.0
H53 H 0.75991 0.90677 0.61168 0.0
H54 H 0.77696 0.88179 0.65071 0.0
H55 H 0.75565 0.90667 0.66077 0.0
C56 C 0.75693 0.91443 0.64974 0.0
O57 O 0.7726 0.91355 0.64157 0.0
H58 H 0.74071 0.90553 0.64273 0.0
C59 C 0.76123 0.85995 0.61258 0.0
C60 C 0.76815 0.86184 0.62858 0.0
C61 C 0.7581 0.87598 0.60627 0.0
C62 C 0.76184 0.89399 0.61625 0.0
C63 C 0.76856 0.89593 0.6322 0.0
C64 C 0.77177 0.87999 0.63833 0.0
H65 H 0.15626 0.90378 0.59225 0.0
H66 H 0.09433 0.8455 0.59166 0.0
H67 H 0.11923 0.89211 0.63205 0.0
H68 H 0.0974 0.84689 0.639 0.0
C69 C 0.08512 0.83931 0.62856 0.0
O70 O 0.08668 0.85517 0.61948 0.0
H71 H 0.08853 0.82785 0.62172 0.0
C72 C 0.14213 0.89343 0.59806 0.0
C73 C 0.14006 0.90035 0.61321 0.0
C74 C 0.12584 0.87366 0.59012 0.0
C75 C 0.10708 0.86086 0.59747 0.0
C76 C 0.1048 0.86759 0.61253 0.0
C77 C 0.12119 0.88726 0.62035 0.0
H78 H 0.93259 0.43877 0.75984 0.0
H79 H 0.9321 0.49839 0.7577 0.0
H80 H 0.90857 0.45221 0.7172 0.0
H81 H 0.93266 0.49711 0.70898 0.0
C82 C 0.93107 0.50528 0.71983 0.0
O83 O 0.91614 0.49009 0.72842 0.0
H84 H 0.94735 0.51435 0.72672 0.0
C85 C 0.92881 0.44923 0.75341 0.0
C86 C 0.91984 0.4428 0.73766 0.0
C87 C 0.93327 0.46922 0.76086 0.0
C88 C 0.92911 0.48303 0.75222 0.0
C89 C 0.92055 0.47692 0.73648 0.0
C90 C 0.91579 0.45687 0.72927 0.0
H91 H 0.5999 0.49824 0.76693 0.0
H92 H 0.54017 0.43701 0.76086 0.0
H93 H 0.58096 0.45695 0.7235 0.0
H94 H 0.53488 0.43156 0.71145 0.0
C95 C 0.5284 0.42436 0.72241 0.0
O96 O 0.54519 0.42629 0.73254 0.0
H97 H 0.52087 0.43329 0.72773 0.0
C98 C 0.5884 0.48357 0.75965 0.0
C99 C 0.59292 0.47973 0.74441 0.0
C100 C 0.56945 0.46829 0.76577 0.0
C101 C 0.55498 0.44894 0.75648 0.0
C102 C 0.55925 0.44497 0.74133 0.0
C103 C 0.57812 0.46025 0.73534 0.0
H104 H 0.52502 0.10425 0.77478 0.0
H105 H 0.58788 0.10895 0.77657 0.0
H106 H 0.56602 0.13111 0.73789 0.0
H107 H 0.58709 0.10574 0.72945 0.0
C108 C 0.59938 0.11103 0.73981 0.0
O109 O 0.59755 0.12567 0.74987 0.0
H110 H 0.59609 0.09655 0.74585 0.0
C111 C 0.54017 0.10886 0.76977 0.0
C112 C 0.54364 0.11806 0.7555 0.0
C113 C 0.55606 0.10564 0.77761 0.0
C114 C 0.57541 0.1113 0.77074 0.0
C115 C 0.57893 0.12035 0.75641 0.0
C116 C 0.56317 0.124 0.74891 0.0
H117 H 0.74514 0.56831 0.91878 0.0
H118 H 0.80337 0.56382 0.92034 0.0
H119 H 0.76176 0.54123 0.95712 0.0
H120 H 0.8076 0.56231 0.96893 0.0
C121 C 0.81448 0.56092 0.95791 0.0
O122 O 0.79782 0.5467 0.94681 0.0
H123 H 0.82314 0.57731 0.95379 0.0
C124 C 0.75596 0.5637 0.92453 0.0
C125 C 0.75094 0.55422 0.93873 0.0
C126 C 0.77485 0.56732 0.91772 0.0
C127 C 0.78881 0.56139 0.92537 0.0
C128 C 0.78406 0.55204 0.93951 0.0
C129 C 0.76511 0.54831 0.94609 0.0
H130 H 0.41726 0.17124 0.93884 0.0
H131 H 0.42135 0.23342 0.94216 0.0
H132 H 0.44111 0.21236 0.98238 0.0
H133 H 0.41893 0.23797 0.99072 0.0
C134 C 0.42091 0.2455 0.97953 0.0
O135 O 0.43609 0.24316 0.97172 0.0
H136 H 0.40482 0.23728 0.97236 0.0
C137 C 0.42114 0.18618 0.9456 0.0
C138 C 0.42961 0.18993 0.96139 0.0
C139 C 0.41815 0.20177 0.93841 0.0
C140 C 0.42321 0.22099 0.94741 0.0
C141 C 0.43117 0.22458 0.96325 0.0
C142 C 0.43459 0.20923 0.97017 0.0
H143 H 0.81962 0.24203 0.92347 0.0
H144 H 0.75886 0.18278 0.92379 0.0
H145 H 0.78509 0.22862 0.96468 0.0
H146 H 0.76507 0.18455 0.97204 0.0
C147 C 0.75285 0.17622 0.96165 0.0
O148 O 0.75274 0.19132 0.95247 0.0
H149 H 0.75754 0.16571 0.95488 0.0
C150 C 0.80582 0.23152 0.92952 0.0
C151 C 0.80457 0.23786 0.94506 0.0
C152 C 0.78949 0.2117 0.9217 0.0
C153 C 0.77168 0.19809 0.92961 0.0
C154 C 0.77011 0.20434 0.94503 0.0
C155 C 0.78643 0.22418 0.95269 0.0
H156 H 0.60179 0.7734 0.09354 0.0
H157 H 0.60206 0.83299 0.08864 0.0
H158 H 0.57631 0.78359 0.0501 0.0
H159 H 0.59901 0.8273 0.03972 0.0
C160 C 0.59817 0.83633 0.05039 0.0
O161 O 0.58394 0.82201 0.05982 0.0
H162 H 0.61483 0.8458 0.0567 0.0
C163 C 0.59828 0.78356 0.08651 0.0
C164 C 0.58869 0.77595 0.07096 0.0
C165 C 0.60312 0.80409 0.0931 0.0
C166 C 0.59838 0.81707 0.08389 0.0
C167 C 0.58897 0.80967 0.06841 0.0
C168 C 0.58408 0.78921 0.06199 0.0
H169 H 0.26531 0.83572 0.09902 0.0
H170 H 0.20695 0.77323 0.09373 0.0
H171 H 0.24774 0.79323 0.05639 0.0
H172 H 0.20023 0.76769 0.04487 0.0
C173 C 0.19436 0.75983 0.05574 0.0
O174 O 0.21191 0.76258 0.06542 0.0
H175 H 0.18605 0.76755 0.06162 0.0
C176 C 0.25446 0.82043 0.09217 0.0
C177 C 0.25907 0.81644 0.077 0.0
C178 C 0.23561 0.80505 0.09836 0.0
C179 C 0.22137 0.78552 0.08917 0.0
C180 C 0.22568 0.7815 0.07405 0.0
C181 C 0.24445 0.79684 0.06801 0.0
H182 H 0.19172 0.43598 0.1086 0.0
H183 H 0.25436 0.4405 0.10886 0.0
H184 H 0.23166 0.46323 0.07115 0.0
H185 H 0.25332 0.43928 0.06172 0.0
C186 C 0.26538 0.44391 0.07215 0.0
O187 O 0.26362 0.45826 0.08257 0.0
H188 H 0.2617 0.42903 0.07776 0.0
C189 C 0.20646 0.44028 0.10309 0.0
C190 C 0.20951 0.44981 0.08892 0.0
C191 C 0.22247 0.43682 0.11048 0.0
C192 C 0.24188 0.44321 0.10351 0.0
C193 C 0.24509 0.45264 0.08935 0.0
C194 C 0.22903 0.45607 0.08215 0.0
H195 H 0.41272 0.90157 0.25164 0.0
H196 H 0.47072 0.89669 0.25343 0.0
H197 H 0.42958 0.87552 0.29057 0.0
H198 H 0.47644 0.89801 0.30121 0.0
C199 C 0.48257 0.89442 0.29047 0.0
O200 O 0.4651 0.87988 0.28003 0.0
H201 H 0.49224 0.90982 0.28519 0.0
C202 C 0.4237 0.89735 0.25764 0.0
C203 C 0.41876 0.88825 0.27198 0.0
C204 C 0.44233 0.90038 0.25071 0.0
C205 C 0.4561 0.89423 0.25837 0.0
C206 C 0.45149 0.88537 0.2727 0.0
C207 C 0.43283 0.88227 0.27942 0.0
H208 H 0.08987 0.51079 0.27215 0.0
H209 H 0.08884 0.57031 0.27786 0.0
H210 H 0.10911 0.54834 0.31726 0.0
H211 H 0.08715 0.57286 0.32694 0.0
C212 C 0.0881 0.58026 0.31577 0.0
O213 O 0.10354 0.57912 0.30747 0.0
H214 H 0.07174 0.57117 0.30898 0.0
C215 C 0.09205 0.52458 0.27962 0.0
C216 C 0.09974 0.52739 0.29555 0.0
C217 C 0.08802 0.53991 0.27306 0.0
C218 C 0.09186 0.55828 0.28263 0.0
C219 C 0.09942 0.56117 0.29849 0.0
C220 C 0.10333 0.54582 0.30493 0.0
H221 H 0.4878 0.57418 0.25834 0.0
H222 H 0.42834 0.51356 0.25898 0.0
H223 H 0.44985 0.56248 0.2976 0.0
H224 H 0.4305 0.5198 0.30745 0.0
C225 C 0.41949 0.51014 0.29675 0.0
O226 O 0.41944 0.5238 0.28611 0.0
H227 H 0.4256 0.49985 0.29152 0.0
C228 C 0.47372 0.56364 0.26411 0.0
C229 C 0.47096 0.57083 0.27894 0.0
C230 C 0.45848 0.54302 0.25667 0.0
C231 C 0.44024 0.52959 0.26432 0.0
C232 C 0.43727 0.53665 0.27904 0.0
C233 C 0.45253 0.55718 0.28629 0.0
Eu234 Eu 0.49225 0.99513 0.99633 0.0
Eu235 Eu 0.50597 0.01538 0.03365 0.0
C236 C 0.48813 0.03538 0.00847 0.0
C237 C 0.48884 0.99131 0.95172 0.0
C238 C 0.49531 0.01313 0.95078 0.0
C239 C 0.49523 0.9882 0.92445 0.0
C240 C 0.50151 0.02237 0.93673 0.0
C241 C 0.48891 0.97895 0.93849 0.0
C242 C 0.50155 0.01003 0.92336 0.0
C243 C 0.48244 0.98139 0.96647 0.0
O244 O 0.47658 0.98241 0.03321 0.0
O245 O 0.46134 0.97976 0.00835 0.0
C246 C 0.45967 0.97385 0.02265 0.0
O247 O 0.49728 0.97104 0.0088 0.0
O248 O 0.49728 0.02626 0.05485 0.0
O249 O 0.52811 0.02719 0.05525 0.0
O250 O 0.52044 0.99402 0.02975 0.0
C251 C 0.51213 0.97587 0.02055 0.0
O252 O 0.52856 0.01748 0.99915 0.0
O253 O 0.53245 0.04012 0.02072 0.0
O254 O 0.48616 0.0286 0.02245 0.0
O255 O 0.49759 0.98059 0.9752 0.0
O256 O 0.47095 0.9871 0.9747 0.0
O257 O 0.49539 0.0279 0.99751 0.0
C258 C 0.51007 0.01902 0.07823 0.0
C259 C 0.49906 0.99645 0.07797 0.0
C260 C 0.51111 0.02212 0.10662 0.0
C261 C 0.49401 0.98675 0.09196 0.0
C262 C 0.51616 0.03179 0.09262 0.0
C263 C 0.49985 0.99948 0.10647 0.0
C264 C 0.51439 0.02931 0.06353 0.0
C265 C 0.53994 0.03575 0.00822 0.0
H266 H 0.49552 0.02302 0.96091 0.0
H267 H 0.49541 0.97829 0.91451 0.0
H268 H 0.50599 0.03912 0.9363 0.0
H269 H 0.48417 0.96214 0.93903 0.0
H270 H 0.4941 0.98634 0.06692 0.0
H271 H 0.51611 0.0324 0.11758 0.0
H272 H 0.48511 0.96929 0.09139 0.0
H273 H 0.52465 0.04924 0.09301 0.0
Eu274 Eu 0.01242 0.4915 0.9978 0.0
Eu275 Eu 0.99683 0.49082 0.03326 0.0
C276 C 0.97508 0.44901 0.00918 0.0
C277 C 0.01962 0.49655 0.95399 0.0
C278 C 0.00418 0.50301 0.95129 0.0
C279 C 0.02529 0.49765 0.92643 0.0
C280 C 0.99911 0.5065 0.93614 0.0
C281 C 0.03033 0.49417 0.94155 0.0
C282 C 0.00941 0.50357 0.92349 0.0
C283 C 0.02373 0.49084 0.96943 0.0
O284 O 0.02087 0.47897 0.03533 0.0
O285 O 0.0388 0.49148 0.0135 0.0
C286 C 0.03735 0.48355 0.02707 0.0
O287 O 0.02535 0.5261 0.00742 0.0
O288 O 0.98286 0.47289 0.05318 0.0
O289 O 0.99092 0.50633 0.05344 0.0
O290 O 0.02874 0.52166 0.03339 0.0
C291 C 0.03411 0.53405 0.02188 0.0
O292 O 0.98166 0.49309 0.99408 0.0
O293 O 0.98026 0.5051 0.01918 0.0
O294 O 0.97075 0.46135 0.01832 0.0
O295 O 0.03512 0.50673 0.98034 0.0
O296 O 0.00709 0.47475 0.9746 0.0
O297 O 0.99404 0.45707 0.00366 0.0
C298 C 0.99391 0.49374 0.07766 0.0
C299 C 0.01654 0.50484 0.08141 0.0
C300 C 0.98898 0.49041 0.10526 0.0
C301 C 0.02535 0.50884 0.09706 0.0
C302 C 0.98021 0.48651 0.08964 0.0
C303 C 0.01164 0.50165 0.10915 0.0
C304 C 0.98432 0.48956 0.06136 0.0
C305 C 0.97388 0.50144 0.00408 0.0
H306 H 0.99575 0.5049 0.96082 0.0
H307 H 0.03328 0.4949 0.91695 0.0
H308 H 0.98696 0.51125 0.93429 0.0
H309 H 0.04219 0.48905 0.94345 0.0
H310 H 0.02735 0.51042 0.07225 0.0
H311 H 0.978 0.48491 0.11432 0.0
H312 H 0.04287 0.51734 0.09969 0.0
H313 H 0.9627 0.47793 0.08692 0.0
Eu314 Eu 0.52446 0.51652 0.02836 0.0
Eu315 Eu 0.50666 0.5168 0.99193 0.0
C316 C 0.5301 0.55937 0.01549 0.0
C317 C 0.52769 0.5156 0.0727 0.0
C318 C 0.51536 0.5256 0.07548 0.0
C319 C 0.52291 0.5039 0.09889 0.0
C320 C 0.50723 0.5251 0.08996 0.0
C321 C 0.53125 0.50461 0.08444 0.0
C322 C 0.51103 0.51435 0.10185 0.0
C323 C 0.53693 0.5166 0.05767 0.0
O324 O 0.54241 0.52815 0.99175 0.0
O325 O 0.54866 0.51436 0.01371 0.0
C326 C 0.55437 0.52254 1.00032 0.0
O327 O 0.50048 0.48219 0.01886 0.0
O328 O 0.50956 0.53433 0.97148 0.0
O329 O 0.4843 0.50079 0.97073 0.0
O330 O 0.50649 0.4855 0.9931 0.0
C331 C 0.49977 0.47358 0.00478 0.0
O332 O 0.49382 0.51794 0.03051 0.0
O333 O 0.47711 0.50469 0.0054 0.0
O334 O 0.51285 0.54739 0.00554 0.0
O335 O 0.52697 0.49922 0.04784 0.0
O336 O 0.54257 0.53404 0.05073 0.0
O337 O 0.54055 0.55091 0.02244 0.0
C338 C 0.50028 0.51297 0.94741 0.0
C339 C 0.51346 0.50365 0.94618 0.0
C340 C 0.49926 0.51523 0.91931 0.0
C341 C 0.51945 0.50006 0.93157 0.0
C342 C 0.4932 0.51872 0.93391 0.0
C343 C 0.51247 0.50588 0.91797 0.0
C344 C 0.49438 0.51735 0.96274 0.0
C345 C 0.47643 0.5095 0.02032 0.0
H346 H 0.51213 0.53394 0.06651 0.0
H347 H 0.52618 0.4956 0.10787 0.0
H348 H 0.49788 0.53304 0.09186 0.0
H349 H 0.54064 0.49672 0.08248 0.0
H350 H 0.51924 0.4993 0.95655 0.0
H351 H 0.49342 0.51967 0.90903 0.0
H352 H 0.52985 0.49308 0.93096 0.0
H353 H 0.48306 0.52599 0.93467 0.0
Eu354 Eu 0.15763 0.32843 0.32911 0.0
Eu355 Eu 0.17175 0.3487 0.36647 0.0
C356 C 0.15402 0.36917 0.34127 0.0
C357 C 0.15446 0.32419 0.28468 0.0
C358 C 0.16915 0.34641 0.28503 0.0
C359 C 0.15324 0.32074 0.25628 0.0
C360 C 0.17583 0.35576 0.27107 0.0
C361 C 0.14656 0.31142 0.27025 0.0
C362 C 0.16795 0.34304 0.25651 0.0
C363 C 0.14752 0.31425 0.29932 0.0
O364 O 0.14255 0.31552 0.36582 0.0
O365 O 0.12688 0.31361 0.34131 0.0
C366 C 0.12544 0.3073 0.35546 0.0
O367 O 0.16318 0.30463 0.34162 0.0
O368 O 0.16263 0.35872 0.38784 0.0
O369 O 0.19402 0.36083 0.38798 0.0
O370 O 0.18673 0.32788 0.36231 0.0
C371 C 0.17837 0.30968 0.35317 0.0
O372 O 0.1938 0.35149 0.33144 0.0
O373 O 0.19819 0.37349 0.35362 0.0
O374 O 0.15295 0.36311 0.35548 0.0
O375 O 0.16232 0.31305 0.30818 0.0
O376 O 0.13647 0.32068 0.3074 0.0
O377 O 0.16027 0.36094 0.33008 0.0
C378 C 0.17625 0.35209 0.41111 0.0
C379 C 0.17009 0.33023 0.4112 0.0
C380 C 0.17274 0.35413 0.43902 0.0
C381 C 0.16526 0.32037 0.42514 0.0
C382 C 0.17762 0.36397 0.42509 0.0
C383 C 0.16639 0.33216 0.43923 0.0
C384 C 0.18006 0.36232 0.39639 0.0
C385 C 0.20534 0.36949 0.34078 0.0
H386 H 0.17542 0.35651 0.2961 0.0
H387 H 0.14709 0.31042 0.24532 0.0
H388 H 0.18695 0.37299 0.27169 0.0
H389 H 0.1353 0.29422 0.26979 0.0
H390 H 0.1688 0.32076 0.40046 0.0
H391 H 0.17344 0.36363 0.44955 0.0
H392 H 0.1607 0.30352 0.42489 0.0
H393 H 0.18212 0.3808 0.42519 0.0
Eu394 Eu 0.67981 0.82453 0.33069 0.0
Eu395 Eu 0.66453 0.82382 0.36635 0.0
C396 C 0.64213 0.78196 0.34213 0.0
C397 C 0.68679 0.82979 0.2868 0.0
C398 C 0.66689 0.82854 0.28234 0.0
C399 C 0.69747 0.83819 0.26067 0.0
C400 C 0.66211 0.83161 0.267 0.0
C401 C 0.70218 0.83502 0.27598 0.0
C402 C 0.67719 0.83604 0.25589 0.0
C403 C 0.69126 0.82441 0.30231 0.0
O404 O 0.68826 0.81157 0.36802 0.0
O405 O 0.70624 0.82448 0.34629 0.0
C406 C 0.70474 0.81628 0.35975 0.0
O407 O 0.69243 0.85903 0.3404 0.0
O408 O 0.65156 0.80627 0.38667 0.0
O409 O 0.65846 0.83933 0.38643 0.0
O410 O 0.69638 0.85464 0.3663 0.0
C411 C 0.70146 0.86701 0.35479 0.0
O412 O 0.64905 0.82608 0.32705 0.0
O413 O 0.64718 0.83737 0.35228 0.0
O414 O 0.63824 0.79424 0.35171 0.0
O415 O 0.70228 0.84044 0.31318 0.0
O416 O 0.67513 0.80789 0.30756 0.0
O417 O 0.66078 0.78992 0.33612 0.0
C418 C 0.66271 0.82779 0.41096 0.0
C419 C 0.68421 0.84449 0.41519 0.0
C420 C 0.65924 0.82014 0.43812 0.0
C421 C 0.69308 0.84916 0.43086 0.0
C422 C 0.65035 0.81559 0.4225 0.0
C423 C 0.68065 0.83705 0.44249 0.0
C424 C 0.65277 0.82294 0.39466 0.0
C425 C 0.64094 0.83393 0.33715 0.0
H426 H 0.65482 0.82458 0.29058 0.0
H427 H 0.70961 0.842 0.2525 0.0
H428 H 0.64627 0.82966 0.26369 0.0
H429 H 0.71767 0.83617 0.27927 0.0
H430 H 0.6941 0.85399 0.40641 0.0
H431 H 0.64921 0.81068 0.44685 0.0
H432 H 0.70969 0.86212 0.43386 0.0
H433 H 0.63374 0.80264 0.41943 0.0
Eu434 Eu 0.19311 0.85188 0.36242 0.0
Eu435 Eu 0.17479 0.8512 0.32597 0.0
C436 C 0.19889 0.89425 0.34893 0.0
C437 C 0.19641 0.84892 0.40661 0.0
C438 C 0.17843 0.85155 0.40868 0.0
C439 C 0.19701 0.84073 0.43361 0.0
C440 C 0.17004 0.84918 0.42321 0.0
C441 C 0.20545 0.84323 0.41909 0.0
C442 C 0.1794 0.844 0.43593 0.0
C443 C 0.2063 0.85289 0.39172 0.0
O444 O 0.21046 0.86255 0.3254 0.0
O445 O 0.21746 0.84995 0.34776 0.0
C446 C 0.22278 0.85754 0.33414 0.0
O447 O 0.16843 0.81747 0.3536 0.0
O448 O 0.177 0.86818 0.30531 0.0
O449 O 0.15242 0.83443 0.30486 0.0
O450 O 0.17482 0.82009 0.32789 0.0
C451 C 0.16772 0.80843 0.33968 0.0
O452 O 0.16201 0.85248 0.36457 0.0
O453 O 0.1453 0.83941 0.33943 0.0
O454 O 0.1813 0.88209 0.33933 0.0
O455 O 0.19961 0.83616 0.38145 0.0
O456 O 0.20818 0.86967 0.3853 0.0
O457 O 0.20953 0.88588 0.35571 0.0
C458 C 0.16804 0.8465 0.28143 0.0
C459 C 0.18399 0.84054 0.2805 0.0
C460 C 0.16399 0.84494 0.25305 0.0
C461 C 0.18991 0.83681 0.2659 0.0
C462 C 0.15808 0.84867 0.26765 0.0
C463 C 0.17999 0.83898 0.25199 0.0
C464 C 0.16205 0.8509 0.29672 0.0
C465 C 0.14463 0.8441 0.35437 0.0
H466 H 0.1712 0.85592 0.39917 0.0
H467 H 0.20437 0.83637 0.44305 0.0
H468 H 0.15667 0.85207 0.42457 0.0
H469 H 0.21925 0.84101 0.41767 0.0
H470 H 0.19186 0.83882 0.29107 0.0
H471 H 0.15625 0.84708 0.2426 0.0
H472 H 0.2021 0.83201 0.26551 0.0
H473 H 0.14584 0.85339 0.26819 0.0
Eu474 Eu 0.82358 0.66198 0.66273 0.0
Eu475 Eu 0.8374 0.68169 0.70012 0.0
C476 C 0.81864 0.70192 0.67608 0.0
C477 C 0.8198 0.65828 0.61815 0.0
C478 C 0.83295 0.68076 0.61842 0.0
C479 C 0.81893 0.65486 0.58977 0.0
C480 C 0.83916 0.69023 0.60444 0.0
C481 C 0.81275 0.64542 0.60376 0.0
C482 C 0.83233 0.67738 0.58994 0.0
C483 C 0.81427 0.64809 0.63283 0.0
O484 O 0.80112 0.65901 0.6971 0.0
O485 O 0.79836 0.63645 0.67593 0.0
C486 C 0.79047 0.64044 0.68833 0.0
O487 O 0.84467 0.64983 0.67324 0.0
O488 O 0.83156 0.69552 0.72133 0.0
O489 O 0.85863 0.68972 0.72181 0.0
O490 O 0.83633 0.6498 0.6985 0.0
C491 C 0.84388 0.64317 0.68721 0.0
O492 O 0.85377 0.69441 0.66306 0.0
O493 O 0.8684 0.69733 0.68825 0.0
O494 O 0.83371 0.7065 0.68759 0.0
O495 O 0.83049 0.64923 0.64153 0.0
O496 O 0.80171 0.65215 0.64109 0.0
O497 O 0.80924 0.68333 0.66733 0.0
C498 C 0.8406 0.68467 0.74461 0.0
C499 C 0.82552 0.66252 0.74407 0.0
C500 C 0.84416 0.68706 0.77306 0.0
C501 C 0.8198 0.65269 0.75797 0.0
C502 C 0.84985 0.69687 0.75916 0.0
C503 C 0.8291 0.66483 0.77265 0.0
C504 C 0.84692 0.69505 0.73006 0.0
C505 C 0.87046 0.70287 0.67384 0.0
H506 H 0.83858 0.69094 0.62946 0.0
H507 H 0.81361 0.64446 0.57886 0.0
H508 H 0.84925 0.70762 0.605 0.0
H509 H 0.80273 0.62802 0.60336 0.0
H510 H 0.81828 0.65283 0.7329 0.0
H511 H 0.8514 0.69695 0.78414 0.0
H512 H 0.80836 0.6355 0.7572 0.0
H513 H 0.86148 0.714 0.75977 0.0
Eu514 Eu 0.3452 0.15687 0.6628 0.0
Eu515 Eu 0.32928 0.15606 0.69827 0.0
C516 C 0.30817 0.11409 0.67417 0.0
C517 C 0.35263 0.16332 0.61906 0.0
C518 C 0.33242 0.16111 0.61411 0.0
C519 C 0.36487 0.17444 0.59367 0.0
C520 C 0.32828 0.165 0.59887 0.0
C521 C 0.36894 0.17041 0.60886 0.0
C522 C 0.34432 0.17129 0.58836 0.0
C523 C 0.35656 0.15706 0.63438 0.0
O524 O 0.35418 0.14542 0.70092 0.0
O525 O 0.37098 0.15544 0.67823 0.0
C526 C 0.36999 0.14875 0.69224 0.0
O527 O 0.35833 0.19142 0.67275 0.0
O528 O 0.31509 0.13792 0.71808 0.0
O529 O 0.32271 0.17125 0.71828 0.0
O530 O 0.36136 0.18673 0.69869 0.0
C531 C 0.36702 0.1992 0.68725 0.0
O532 O 0.3142 0.15805 0.65913 0.0
O533 O 0.31308 0.17059 0.68412 0.0
O534 O 0.30367 0.12631 0.6833 0.0
O535 O 0.36812 0.1726 0.6455 0.0
O536 O 0.33997 0.14072 0.63941 0.0
O537 O 0.32701 0.12234 0.66845 0.0
C538 C 0.32568 0.15867 0.74262 0.0
C539 C 0.34754 0.17426 0.74713 0.0
C540 C 0.32102 0.15034 0.76958 0.0
C541 C 0.35601 0.17802 0.76285 0.0
C542 C 0.31252 0.14672 0.75391 0.0
C543 C 0.34282 0.16608 0.77422 0.0
C544 C 0.31632 0.15451 0.72622 0.0
C545 C 0.30651 0.1666 0.66904 0.0
H546 H 0.31962 0.15575 0.62185 0.0
H547 H 0.37773 0.17968 0.58599 0.0
H548 H 0.31222 0.16222 0.59517 0.0
H549 H 0.38468 0.17234 0.61252 0.0
H550 H 0.35802 0.18352 0.73853 0.0
H551 H 0.31042 0.14105 0.77811 0.0
H552 H 0.37294 0.19008 0.76607 0.0
H553 H 0.29563 0.1346 0.75061 0.0
Eu554 Eu 0.8594 0.18655 0.69546 0.0
Eu555 Eu 0.83995 0.1838 0.65891 0.0
C556 C 0.86373 0.22769 0.68083 0.0
C557 C 0.8648 0.18617 0.73995 0.0
C558 C 0.8785 0.19071 0.75373 0.0
C559 C 0.83475 0.17817 0.7555 0.0
C560 C 0.87047 0.18924 0.76834 0.0
C561 C 0.84282 0.17963 0.74088 0.0
C562 C 0.84857 0.18327 0.76943 0.0
C563 C 0.87395 0.18976 0.7248 0.0
O564 O 0.87571 0.1958 0.65801 0.0
O565 O 0.88373 0.18464 0.68077 0.0
C566 C 0.88854 0.1916 0.66691 0.0
O567 O 0.83545 0.15163 0.6875 0.0
O568 O 0.84091 0.19983 0.63794 0.0
O569 O 0.81751 0.1658 0.63804 0.0
O570 O 0.84097 0.15332 0.6616 0.0
C571 C 0.83455 0.14217 0.67371 0.0
O572 O 0.82781 0.18614 0.69761 0.0
O573 O 0.81074 0.17191 0.67267 0.0
O574 O 0.84592 0.21486 0.67163 0.0
O575 O 0.86769 0.17272 0.71493 0.0
O576 O 0.87424 0.20564 0.71798 0.0
O577 O 0.87496 0.21998 0.68771 0.0
C578 C 0.83221 0.17775 0.6143 0.0
C579 C 0.84858 0.1724 0.61326 0.0
C580 C 0.82778 0.17609 0.58592 0.0
C581 C 0.85455 0.16894 0.5986 0.0
C582 C 0.82183 0.17953 0.60058 0.0
C583 C 0.84425 0.1708 0.58474 0.0
C584 C 0.82629 0.18208 0.62963 0.0
C585 C 0.81024 0.17705 0.68756 0.0
H586 H 0.89552 0.1958 0.7532 0.0
H587 H 0.81788 0.17374 0.75589 0.0
H588 H 0.88146 0.19293 0.7788 0.0
H589 H 0.83204 0.17615 0.73032 0.0
H590 H 0.85679 0.171 0.62378 0.0
H591 H 0.81975 0.17798 0.57553 0.0
H592 H 0.8671 0.16465 0.59812 0.0
H593 H 0.80926 0.18379 0.6012 0.0
H594 H 0.26372 0.82908 0.04727 0.0
H595 H 0.29719 0.85489 0.0367 0.0
H596 H 0.33323 0.86657 0.08182 0.0
H597 H 0.30003 0.84038 0.09236 0.0
H598 H 0.32556 0.899 0.04674 0.0
H599 H 0.36766 0.85177 0.0517 0.0
H600 H 0.33882 0.84004 0.053 0.0
H601 H 0.35795 0.85605 0.06963 0.0
C602 C 0.27882 0.83698 0.0549 0.0
C603 C 0.27922 0.83257 0.07064 0.0
C604 C 0.29788 0.85181 0.04887 0.0
C605 C 0.31773 0.86238 0.05841 0.0
C606 C 0.31815 0.85829 0.07417 0.0
H607 H 0.45051 0.95825 0.05117 0.0
H608 H 0.41552 0.93117 0.05879 0.0
C609 C 0.29911 0.8435 0.08023 0.0
C610 C 0.33799 0.87793 0.05197 0.0
H611 H 0.38911 0.88819 0.04608 0.0
C612 C 0.33941 0.89658 0.04645 0.0
C613 C 0.35598 0.87467 0.05158 0.0
C614 C 0.35504 0.85446 0.05665 0.0
C615 C 0.35865 0.91246 0.04106 0.0
C616 C 0.37678 0.90938 0.04096 0.0
C617 C 0.3752 0.89053 0.04621 0.0
C618 C 0.39787 0.92588 0.03606 0.0
C619 C 0.35967 0.93272 0.03603 0.0
C620 C 0.39962 0.93177 0.02068 0.0
C621 C 0.41968 0.94733 0.01624 0.0
C622 C 0.43836 0.95719 0.02711 0.0
C623 C 0.43651 0.95105 0.04247 0.0
C624 C 0.4165 0.93554 0.04687 0.0
H625 H 0.3462 0.93474 0.04009 0.0
H626 H 0.37539 0.94722 0.04063 0.0
H627 H 0.35835 0.93185 0.02303 0.0
H628 H 0.38551 0.92422 0.01207 0.0
H629 H 0.42054 0.9516 0.00431 0.0
H630 H 0.16567 0.42153 0.08507 0.0
H631 H 0.13697 0.42755 0.07389 0.0
H632 H 0.18525 0.49135 0.06428 0.0
H633 H 0.21412 0.48561 0.07575 0.0
H634 H 0.14999 0.48957 0.0796 0.0
H635 H 0.12109 0.42953 0.0272 0.0
H636 H 0.1227 0.41907 0.04543 0.0
H637 H 0.14714 0.43931 0.03832 0.0
C638 C 0.1702 0.43686 0.08059 0.0
C639 C 0.19219 0.45312 0.08132 0.0
C640 C 0.15378 0.44019 0.07407 0.0
C641 C 0.15899 0.4598 0.06811 0.0
C642 C 0.1809 0.47605 0.06875 0.0
H643 H 0.07211 0.48789 0.0123 0.0
H644 H 0.10162 0.48254 0.0225 0.0
C645 C 0.19738 0.47269 0.0752 0.0
C646 C 0.14147 0.46356 0.06171 0.0
H647 H 0.09915 0.4449 0.033 0.0
C648 C 0.13892 0.47987 0.06938 0.0
C649 C 0.12716 0.451 0.0483 0.0
C650 C 0.1297 0.43386 0.03922 0.0
C651 C 0.12217 0.4837 0.06416 0.0
C652 C 0.10748 0.47072 0.05102 0.0
C653 C 0.11029 0.45468 0.04317 0.0
C654 C 0.08939 0.47386 0.04499 0.0
C655 C 0.12052 0.5018 0.07261 0.0
C656 C 0.07253 0.47051 0.05419 0.0
C657 C 0.05553 0.47352 0.04838 0.0
C658 C 0.05507 0.47991 0.03324 0.0
C659 C 0.07192 0.48304 0.02403 0.0
C660 C 0.08883 0.47996 0.02982 0.0
H661 H 0.1358 0.5133 0.08003 0.0
H662 H 0.11667 0.51084 0.06414 0.0
H663 H 0.1072 0.4949 0.08033 0.0
H664 H 0.07245 0.46545 0.06583 0.0
H665 H 0.04283 0.47093 0.05579 0.0
H666 H 0.59389 0.76371 0.04144 0.0
H667 H 0.5837 0.72737 0.0302 0.0
H668 H 0.5615 0.70253 0.07413 0.0
H669 H 0.5708 0.73857 0.08525 0.0
H670 H 0.59825 0.70028 0.03949 0.0
H671 H 0.50943 0.66261 0.04273 0.0
H672 H 0.5275 0.69149 0.04521 0.0
H673 H 0.52512 0.67562 0.06124 0.0
C674 C 0.58658 0.75046 0.04864 0.0
C675 C 0.58306 0.75402 0.06422 0.0
C676 C 0.58091 0.72975 0.04224 0.0
C677 C 0.57153 0.71223 0.05125 0.0
C678 C 0.56832 0.71577 0.06687 0.0
H679 H 0.56222 0.58786 0.03788 0.0
H680 H 0.5728 0.62543 0.04531 0.0
C681 C 0.57392 0.73644 0.07327 0.0
C682 C 0.56547 0.69028 0.04445 0.0
H683 H 0.5229 0.63859 0.03756 0.0
C684 C 0.58175 0.6868 0.03895 0.0
C685 C 0.54386 0.67282 0.04352 0.0
C686 C 0.52542 0.67581 0.04834 0.0
C687 C 0.57713 0.66615 0.03298 0.0
C688 C 0.55575 0.6485 0.03281 0.0
C689 C 0.53934 0.65211 0.03786 0.0
C690 C 0.55007 0.62605 0.02775 0.0
C691 C 0.59516 0.66349 0.02683 0.0
C692 C 0.53348 0.61378 0.01561 0.0
C693 C 0.52721 0.59221 0.01143 0.0
C694 C 0.5374 0.58248 0.01937 0.0
C695 C 0.55415 0.59489 0.03144 0.0
C696 C 0.56033 0.61642 0.03565 0.0
H697 H 0.60835 0.67895 0.0234 0.0
H698 H 0.60234 0.65818 0.03617 0.0
H699 H 0.58894 0.65116 0.01652 0.0
H700 H 0.52527 0.62088 0.00943 0.0
H701 H 0.51425 0.58311 0.00209 0.0
H702 H 0.80083 0.26761 0.96425 0.0
H703 H 0.83015 0.30271 0.97654 0.0
H704 H 0.87752 0.29044 0.95651 0.0
H705 H 0.84845 0.25527 0.94442 0.0
H706 H 0.86863 0.31301 0.99765 0.0
H707 H 0.88866 0.34871 0.941 0.0
H708 H 0.86331 0.32451 0.94304 0.0
H709 H 0.88778 0.32332 0.94182 0.0
C710 C 0.8175 0.27227 0.96261 0.0
C711 C 0.82227 0.25873 0.9532 0.0
C712 C 0.83421 0.29235 0.96959 0.0
C713 C 0.85593 0.29926 0.96721 0.0
C714 C 0.86081 0.28555 0.95823 0.0
H715 H 0.97863 0.41852 0.99093 0.0
H716 H 0.94994 0.38163 0.98181 0.0
C717 C 0.84416 0.2655 0.95129 0.0
C718 C 0.87353 0.32096 0.97389 0.0
H719 H 0.91213 0.36965 0.96359 0.0
C720 C 0.87812 0.32546 0.99024 0.0
C721 C 0.88587 0.33708 0.96416 0.0
C722 C 0.88112 0.33333 0.94653 0.0
C723 C 0.89508 0.3456 0.99713 0.0
C724 C 0.90741 0.36176 0.98739 0.0
C725 C 0.90273 0.35722 0.97104 0.0
C726 C 0.92505 0.38363 0.99384 0.0
C727 C 0.89995 0.3492 0.01475 0.0
C728 C 0.9206 0.39702 0.00363 0.0
C729 C 0.93698 0.41809 0.00892 0.0
C730 C 0.9581 0.42626 0.00438 0.0
C731 C 0.96256 0.41274 0.99467 0.0
C732 C 0.94618 0.39165 0.98943 0.0
H733 H 0.89345 0.33368 0.02006 0.0
H734 H 0.91773 0.35902 0.01825 0.0
H735 H 0.89215 0.358 0.01966 0.0
H736 H 0.90431 0.39136 0.00688 0.0
H737 H 0.93294 0.4281 0.01629 0.0
H738 H 0.7351 0.58196 0.94168 0.0
H739 H 0.70204 0.57589 0.95305 0.0
H740 H 0.68881 0.51269 0.96353 0.0
H741 H 0.72167 0.51847 0.95192 0.0
H742 H 0.65253 0.51365 0.94861 0.0
H743 H 0.69237 0.57516 1.00011 0.0
H744 H 0.70112 0.58504 0.9816 0.0
H745 H 0.70682 0.56522 0.98889 0.0
C746 C 0.72511 0.56672 0.94635 0.0
C747 C 0.73103 0.55069 0.94589 0.0
C748 C 0.70634 0.56337 0.95298 0.0
C749 C 0.69312 0.54395 0.95932 0.0
C750 C 0.69888 0.52786 0.95881 0.0
H751 H 0.58606 0.51732 0.01578 0.0
H752 H 0.61951 0.52177 0.00598 0.0
C753 C 0.71771 0.53123 0.95224 0.0
C754 C 0.67294 0.54021 0.96604 0.0
H755 H 0.65404 0.55932 0.99494 0.0
C756 C 0.65285 0.52356 0.95878 0.0
C757 C 0.67342 0.553 0.97942 0.0
C758 C 0.69458 0.5705 0.98808 0.0
C759 C 0.63318 0.51971 0.9643 0.0
C760 C 0.63362 0.53299 0.97735 0.0
C761 C 0.65374 0.54928 0.98486 0.0
C762 C 0.61336 0.53034 0.98327 0.0
C763 C 0.61207 0.50138 0.9562 0.0
C764 C 0.59896 0.53395 0.97382 0.0
C765 C 0.57988 0.5315 0.97939 0.0
C766 C 0.57481 0.5254 0.99455 0.0
C767 C 0.58939 0.52196 0.00404 0.0
C768 C 0.60854 0.52452 0.99847 0.0
H769 H 0.61465 0.4896 0.94902 0.0
H770 H 0.60054 0.49273 0.96487 0.0
H771 H 0.60443 0.50797 0.94828 0.0
H772 H 0.60253 0.53878 0.96215 0.0
H773 H 0.56907 0.5343 0.97174 0.0
H774 H 0.46757 0.19761 0.97691 0.0
H775 H 0.47639 0.17097 0.9862 0.0
H776 H 0.41064 0.1201 0.97133 0.0
H777 H 0.40205 0.14665 0.96148 0.0
H778 H 0.46171 0.14281 0.00739 0.0
H779 H 0.44441 0.0983 0.94848 0.0
H780 H 0.44537 0.12386 0.95141 0.0
H781 H 0.42135 0.09928 0.95482 0.0
C782 C 0.45499 0.18075 0.97575 0.0
C783 C 0.43421 0.17409 0.96837 0.0
C784 C 0.46003 0.16555 0.98103 0.0
C785 C 0.44432 0.14348 0.97913 0.0
C786 C 0.42321 0.13695 0.97248 0.0
H787 H 0.4621 0.04626 0.02417 0.0
H788 H 0.45106 0.07237 0.01756 0.0
C789 C 0.41827 0.15211 0.96695 0.0
C790 C 0.45026 0.12735 0.98379 0.0
H791 H 0.45154 0.08251 0.96983 0.0
C792 C 0.45953 0.12963 0.99918 0.0
C793 C 0.44775 0.11038 0.97298 0.0
C794 C 0.43939 0.1079 0.95597 0.0
C795 C 0.46635 0.11542 0.00407 0.0
C796 C 0.46314 0.09802 0.99341 0.0
C797 C 0.45384 0.09574 0.97804 0.0
C798 C 0.46994 0.08235 0.99769 0.0
C799 C 0.47754 0.11964 0.02044 0.0
C800 C 0.48367 0.07876 0.98844 0.0
C801 C 0.48957 0.0635 0.99196 0.0
C802 C 0.48202 0.05166 0.00491 0.0
C803 C 0.46837 0.05532 0.01422 0.0
C804 C 0.46217 0.07035 0.01053 0.0
H805 H 0.48448 0.13675 0.02526 0.0
H806 H 0.46551 0.10937 0.02829 0.0
H807 H 0.49082 0.11577 0.02068 0.0
H808 H 0.48983 0.08777 0.97845 0.0
H809 H 0.50015 0.06108 0.98459 0.0
H810 H 0.73668 0.18378 0.98797 0.0
H811 H 0.70061 0.16114 0.99681 0.0
H812 H 0.68275 0.11624 0.95551 0.0
H813 H 0.71883 0.13874 0.94676 0.0
H814 H 0.65857 0.14714 0.9817 0.0
H815 H 0.67091 0.07811 0.99186 0.0
H816 H 0.69309 0.10466 0.98948 0.0
H817 H 0.67598 0.0869 0.97262 0.0
C818 C 0.72503 0.16901 0.98087 0.0
C819 C 0.73061 0.16264 0.96691 0.0
C820 C 0.70447 0.15615 0.98587 0.0
C821 C 0.68919 0.13679 0.97698 0.0
C822 C 0.69449 0.13085 0.96274 0.0
H823 H 0.55934 0.03296 0.98238 0.0
H824 H 0.59542 0.05857 0.97555 0.0
C825 C 0.71503 0.14369 0.95773 0.0
C826 C 0.66769 0.12274 0.98256 0.0
H827 H 0.63505 0.07197 0.99284 0.0
C828 C 0.65344 0.13075 0.98426 0.0
C829 C 0.66113 0.10141 0.98594 0.0
C830 C 0.67613 0.09227 0.98504 0.0
C831 C 0.63246 0.11772 0.98874 0.0
C832 C 0.62576 0.09625 0.99184 0.0
C833 C 0.64019 0.08841 0.99041 0.0
C834 C 0.60359 0.08129 0.99601 0.0
C835 C 0.61739 0.12677 0.98962 0.0
C836 C 0.59618 0.08553 0.00984 0.0
C837 C 0.57543 0.07087 0.01381 0.0
C838 C 0.56181 0.05165 0.00406 0.0
C839 C 0.56935 0.04754 0.99021 0.0
C840 C 0.59001 0.06218 0.98626 0.0
H841 H 0.62317 0.14161 0.9835 0.0
H842 H 0.60071 0.11465 0.98438 0.0
H843 H 0.61651 0.13097 0.0021 0.0
H844 H 0.60655 0.1 0.01768 0.0
H845 H 0.57018 0.0745 0.02459 0.0
H846 H 0.81262 0.53269 0.97873 0.0
H847 H 0.83949 0.52156 0.98496 0.0
H848 H 0.87824 0.55979 0.94995 0.0
H849 H 0.85145 0.57104 0.9438 0.0
H850 H 0.85632 0.50067 0.9657 0.0
H851 H 0.9203 0.58311 0.99073 0.0
H852 H 0.89205 0.5755 0.98714 0.0
H853 H 0.90867 0.58131 0.97116 0.0
C854 C 0.82688 0.53866 0.97239 0.0
C855 C 0.8303 0.5531 0.96107 0.0
C856 C 0.84216 0.53227 0.9759 0.0
C857 C 0.86106 0.54018 0.96813 0.0
C858 C 0.864 0.55386 0.95632 0.0
H859 H 0.95548 0.49563 0.97383 0.0
H860 H 0.92805 0.50459 0.96447 0.0
C861 C 0.84871 0.56022 0.95279 0.0
C862 C 0.87792 0.53455 0.97267 0.0
H863 H 0.93037 0.55633 0.98895 0.0
C864 C 0.87253 0.51282 0.97073 0.0
C865 C 0.89898 0.55042 0.97941 0.0
C866 C 0.90539 0.57388 0.98239 0.0
C867 C 0.88771 0.50655 0.9753 0.0
C868 C 0.90886 0.52248 0.98184 0.0
C869 C 0.9142 0.54418 0.98381 0.0
C870 C 0.92543 0.5169 0.98737 0.0
C871 C 0.88083 0.4829 0.97347 0.0
C872 C 0.93337 0.52123 0.00329 0.0
C873 C 0.94907 0.51622 0.00867 0.0
C874 C 0.9573 0.50686 0.99823 0.0
C875 C 0.94945 0.50272 0.98223 0.0
C876 C 0.93368 0.50772 0.97685 0.0
H877 H 0.86287 0.47242 0.97145 0.0
H878 H 0.88796 0.4796 0.96325 0.0
H879 H 0.88683 0.47842 0.98404 0.0
H880 H 0.92729 0.52839 0.01159 0.0
H881 H 0.95473 0.5197 0.02106 0.0
H882 H 0.42618 0.27337 0.95776 0.0
H883 H 0.43962 0.31228 0.96214 0.0
H884 H 0.4452 0.30929 0.01215 0.0
H885 H 0.43229 0.27053 0.00776 0.0
H886 H 0.42304 0.33414 0.9781 0.0
H887 H 0.50532 0.35771 0.00553 0.0
H888 H 0.48723 0.33131 0.99534 0.0
H889 H 0.48367 0.33762 0.01515 0.0
C890 C 0.43033 0.28112 0.96966 0.0
C891 C 0.42833 0.26911 0.98242 0.0
C892 C 0.43797 0.30326 0.97216 0.0
C893 C 0.44375 0.31372 0.98746 0.0
C894 C 0.44131 0.30163 1.00024 0.0
H895 H 0.48837 0.44461 0.02666 0.0
H896 H 0.4743 0.40573 0.02218 0.0
C897 C 0.43379 0.2795 0.99774 0.0
C898 C 0.45209 0.33725 0.99001 0.0
H899 H 0.49558 0.38497 0.00637 0.0
C900 C 0.43894 0.34528 0.98421 0.0
C901 C 0.47287 0.35173 0.99795 0.0
C902 C 0.4882 0.34422 0.00373 0.0
C903 C 0.44588 0.36738 0.98638 0.0
C904 C 0.46654 0.38178 0.99445 0.0
C905 C 0.4797 0.3738 1.00024 0.0
C906 C 0.47482 0.40523 0.997 0.0
C907 C 0.43095 0.37517 0.9803 0.0
C908 C 0.47994 0.41777 0.98431 0.0
C909 C 0.48807 0.44001 0.98681 0.0
C910 C 0.49119 0.45005 0.00207 0.0
C911 C 0.48608 0.43739 0.01476 0.0
C912 C 0.47807 0.41519 0.01224 0.0
H913 H 0.41403 0.36166 0.97715 0.0
H914 H 0.43076 0.38698 0.98916 0.0
H915 H 0.43698 0.38345 0.96964 0.0
H916 H 0.4778 0.41037 0.97248 0.0
H917 H 0.49188 0.4493 0.97679 0.0
H918 H 0.17375 0.73016 0.07631 0.0
H919 H 0.14701 0.69155 0.07041 0.0
H920 H 0.15131 0.698 0.02091 0.0
H921 H 0.17838 0.73642 0.0268 0.0
H922 H 0.10702 0.67245 0.05354 0.0
H923 H 0.15972 0.6466 0.02555 0.0
H924 H 0.17051 0.67256 0.03672 0.0
H925 H 0.1588 0.66826 0.01677 0.0
C926 C 0.1691 0.72319 0.06419 0.0
C927 C 0.17827 0.73611 0.05201 0.0
C928 C 0.15383 0.70122 0.06083 0.0
C929 C 0.14745 0.69181 0.04523 0.0
C930 C 0.1564 0.70478 0.03304 0.0
H931 H 0.0519 0.56416 1.00095 0.0
H932 H 0.07905 0.60253 0.00672 0.0
C933 C 0.17175 0.72674 0.0364 0.0
C934 C 0.13089 0.66859 0.04172 0.0
H935 H 0.12191 0.62084 0.02342 0.0
C936 C 0.11031 0.66114 0.04703 0.0
C937 C 0.13521 0.65386 0.03321 0.0
C938 C 0.15731 0.66064 0.02785 0.0
C939 C 0.09383 0.63944 0.04385 0.0
C940 C 0.09813 0.62478 0.03527 0.0
C941 C 0.11867 0.63218 0.02994 0.0
C942 C 0.08157 0.6016 0.03186 0.0
C943 C 0.07182 0.63243 0.04944 0.0
C944 C 0.07419 0.58837 0.04409 0.0
C945 C 0.05874 0.56644 0.04085 0.0
C946 C 0.05039 0.55733 0.0253 0.0
C947 C 0.05791 0.57065 0.01306 0.0
C948 C 0.07345 0.59257 0.01632 0.0
H949 H 0.06963 0.64641 0.05266 0.0
H950 H 0.0586 0.62128 0.04029 0.0
H951 H 0.07015 0.62369 0.05999 0.0
H952 H 0.08053 0.59497 0.05615 0.0
H953 H 0.05337 0.55666 0.05056 0.0
H954 H 0.27797 0.4473 0.04234 0.0
H955 H 0.31464 0.46046 0.03447 0.0
H956 H 0.3407 0.47563 0.08311 0.0
H957 H 0.30389 0.46199 0.09103 0.0
H958 H 0.35212 0.50018 0.03999 0.0
H959 H 0.36384 0.43753 0.06661 0.0
H960 H 0.3377 0.43587 0.06422 0.0
H961 H 0.35756 0.45321 0.08013 0.0
C962 C 0.29156 0.45359 0.05134 0.0
C963 C 0.28815 0.45377 0.0673 0.0
C964 C 0.31249 0.46109 0.04684 0.0
C965 C 0.3304 0.46874 0.05819 0.0
C966 C 0.32709 0.46941 0.07414 0.0
H967 H 0.46776 0.51408 0.05056 0.0
H968 H 0.43282 0.5055 0.05984 0.0
C969 C 0.30613 0.46182 0.07866 0.0
C970 C 0.35242 0.47575 0.05325 0.0
H971 H 0.39406 0.46491 0.05582 0.0
C972 C 0.36128 0.49246 0.04344 0.0
C973 C 0.36438 0.46565 0.05774 0.0
C974 C 0.35535 0.44694 0.06763 0.0
C975 C 0.38181 0.49944 0.03811 0.0
C976 C 0.39368 0.48926 0.04254 0.0
C977 C 0.38495 0.47272 0.05247 0.0
C978 C 0.41502 0.4952 0.03676 0.0
C979 C 0.39076 0.51784 0.02795 0.0
C980 C 0.4166 0.49213 0.02069 0.0
C981 C 0.43656 0.49697 0.01532 0.0
C982 C 0.45535 0.50495 0.02593 0.0
C983 C 0.45369 0.50806 0.04203 0.0
C984 C 0.43371 0.50313 0.04738 0.0
H985 H 0.38243 0.52741 0.02893 0.0
H986 H 0.40848 0.5288 0.03115 0.0
H987 H 0.38827 0.51123 0.01551 0.0
H988 H 0.40231 0.48564 0.01231 0.0
H989 H 0.43718 0.49428 0.00287 0.0
H990 H 0.60757 0.87465 0.06613 0.0
H991 H 0.59241 0.89781 0.05996 0.0
H992 H 0.55497 0.85416 0.01891 0.0
H993 H 0.57 0.83089 0.02515 0.0
H994 H 0.59405 0.91823 0.03208 0.0
H995 H 0.50941 0.85962 0.04333 0.0
H996 H 0.53238 0.85689 0.04995 0.0
H997 H 0.52129 0.8495 0.02975 0.0
C998 C 0.59629 0.8702 0.05571 0.0
C999 C 0.5902 0.85129 0.04593 0.0
C1000 C 0.58762 0.88334 0.05223 0.0
C1001 C 0.57246 0.87757 0.03907 0.0
C1002 C 0.56646 0.85874 0.02923 0.0
H1003 H 0.50079 0.93779 0.00321 0.0
H1004 H 0.51555 0.91387 0.00721 0.0
C1005 C 0.57515 0.8456 0.0327 0.0
C1006 C 0.56296 0.8913 0.03571 0.0
H1007 H 0.51532 0.89202 0.03352 0.0
C1008 C 0.57685 0.91253 0.0324 0.0
C1009 C 0.5405 0.88373 0.03609 0.0
C1010 C 0.52499 0.86125 0.04009 0.0
C1011 C 0.56884 0.92644 0.02937 0.0
C1012 C 0.54643 0.91898 0.02997 0.0
C1013 C 0.53249 0.89765 0.03309 0.0
C1014 C 0.53725 0.93325 0.02774 0.0
C1015 C 0.58438 0.9489 0.02535 0.0
C1016 C 0.54425 0.95179 0.03817 0.0
C1017 C 0.53589 0.96549 0.03593 0.0
C1018 C 0.52024 0.96081 0.02327 0.0
C1019 C 0.51287 0.94191 0.01305 0.0
C1020 C 0.52128 0.92822 0.0153 0.0
H1021 H 0.59941 0.9501 0.02126 0.0
H1022 H 0.57662 0.95381 0.0161 0.0
H1023 H 0.58916 0.9605 0.03597 0.0
H1024 H 0.55622 0.95568 0.04804 0.0
H1025 H 0.54181 0.9798 0.0441 0.0
H1026 H 0.95513 0.14368 0.39664 0.0
H1027 H 0.98862 0.17067 0.38681 0.0
H1028 H 0.97262 0.21999 0.39895 0.0
H1029 H 0.9394 0.19313 0.40919 0.0
H1030 H 0.99574 0.19603 0.36377 0.0
H1031 H 0.03331 0.24724 0.42022 0.0
H1032 H 0.0093 0.22088 0.41892 0.0
H1033 H 0.00722 0.24392 0.41413 0.0
C1034 C 0.95878 0.16029 0.39719 0.0
C1035 C 0.94477 0.16636 0.40379 0.0
C1036 C 0.97791 0.1757 0.39159 0.0
C1037 C 0.98336 0.19745 0.39239 0.0
C1038 C 0.9691 0.20344 0.39861 0.0
H1039 H 0.08469 0.29301 0.34075 0.0
H1040 H 0.0498 0.26645 0.34917 0.0
C1041 C 0.95009 0.18808 0.4044 0.0
C1042 C 0.00392 0.21375 0.38662 0.0
H1043 H 0.05106 0.26128 0.39764 0.0
C1044 C 0.00787 0.21028 0.37118 0.0
C1045 C 0.01988 0.2322 0.39637 0.0
C1046 C 0.01736 0.23621 0.41337 0.0
C1047 C 0.02731 0.22473 0.36521 0.0
C1048 C 0.04297 0.24352 0.3748 0.0
C1049 C 0.03899 0.24698 0.39024 0.0
C1050 C 0.06401 0.25942 0.36938 0.0
C1051 C 0.0311 0.21934 0.34886 0.0
C1052 C 0.0836 0.26475 0.37813 0.0
C1053 C 0.10349 0.28019 0.37353 0.0
C1054 C 0.10426 0.29056 0.35998 0.0
C1055 C 0.08465 0.28513 0.35114 0.0
C1056 C 0.06469 0.26986 0.35589 0.0
H1057 H 0.02073 0.20184 0.34492 0.0
H1058 H 0.02694 0.22834 0.34056 0.0
H1059 H 0.04838 0.22398 0.34819 0.0
H1060 H 0.08351 0.25696 0.38858 0.0
H1061 H 0.11829 0.28394 0.38059 0.0
H1062 H 0.83322 0.75457 0.41769 0.0
H1063 H 0.80455 0.76043 0.40622 0.0
H1064 H 0.85283 0.82429 0.39672 0.0
H1065 H 0.88168 0.81869 0.40846 0.0
H1066 H 0.81743 0.82233 0.412 0.0
H1067 H 0.78888 0.76252 0.35948 0.0
H1068 H 0.79049 0.75202 0.37769 0.0
H1069 H 0.81492 0.77236 0.37064 0.0
C1070 C 0.83776 0.76987 0.41314 0.0
C1071 C 0.85973 0.7862 0.41401 0.0
C1072 C 0.82136 0.77311 0.40647 0.0
C1073 C 0.82658 0.7927 0.40048 0.0
C1074 C 0.84848 0.809 0.40121 0.0
H1075 H 0.73956 0.82093 0.34491 0.0
H1076 H 0.76914 0.81556 0.35497 0.0
C1077 C 0.86494 0.80573 0.40782 0.0
C1078 C 0.80906 0.79644 0.39404 0.0
H1079 H 0.7668 0.77774 0.36529 0.0
C1080 C 0.80641 0.81266 0.40174 0.0
C1081 C 0.79482 0.78389 0.3806 0.0
C1082 C 0.79746 0.76684 0.37151 0.0
C1083 C 0.78962 0.81642 0.39653 0.0
C1084 C 0.77498 0.80345 0.38337 0.0
C1085 C 0.7779 0.78751 0.37548 0.0
C1086 C 0.75681 0.80649 0.37738 0.0
C1087 C 0.78783 0.8344 0.40503 0.0
C1088 C 0.73989 0.80289 0.38658 0.0
C1089 C 0.72286 0.8059 0.38085 0.0
C1090 C 0.72245 0.81255 0.3658 0.0
C1091 C 0.73935 0.81589 0.35657 0.0
C1092 C 0.75629 0.8128 0.36228 0.0
H1093 H 0.80306 0.84591 0.4125 0.0
H1094 H 0.78396 0.84346 0.39659 0.0
H1095 H 0.77447 0.8274 0.41271 0.0
H1096 H 0.7398 0.79767 0.39817 0.0
H1097 H 0.71012 0.80313 0.38826 0.0
H1098 H 0.24062 0.07445 0.41825 0.0
H1099 H 0.23205 0.03846 0.40762 0.0
H1100 H 0.25276 0.06233 0.36317 0.0
H1101 H 0.26234 0.09866 0.37394 0.0
H1102 H 0.20289 0.01259 0.38301 0.0
H1103 H 0.28611 0.03107 0.37189 0.0
H1104 H 0.28105 0.04947 0.3837 0.0
H1105 H 0.27737 0.04767 0.36265 0.0
C1106 C 0.24374 0.07216 0.4063 0.0
C1107 C 0.25236 0.0895 0.39699 0.0
C1108 C 0.23865 0.05153 0.4002 0.0
C1109 C 0.24206 0.04779 0.38468 0.0
C1110 C 0.25041 0.06496 0.37528 0.0
H1111 H 0.18296 0.91801 0.33564 0.0
H1112 H 0.19374 0.95568 0.34325 0.0
C1113 C 0.25562 0.08565 0.38139 0.0
C1114 C 0.23626 0.02573 0.3783 0.0
H1115 H 0.2572 0.99605 0.3625 0.0
C1116 C 0.21475 0.00896 0.37851 0.0
C1117 C 0.25184 0.02104 0.3726 0.0
C1118 C 0.27543 0.0382 0.3728 0.0
C1119 C 0.20836 0.98757 0.3732 0.0
C1120 C 0.22382 0.98294 0.36718 0.0
C1121 C 0.24534 0.99971 0.36696 0.0
C1122 C 0.21821 0.96061 0.36178 0.0
C1123 C 0.18529 0.97007 0.37454 0.0
C1124 C 0.22898 0.95118 0.36926 0.0
C1125 C 0.22304 0.92977 0.36483 0.0
C1126 C 0.20619 0.91737 0.35283 0.0
C1127 C 0.19587 0.92706 0.34503 0.0
C1128 C 0.20192 0.94854 0.34941 0.0
H1129 H 0.17722 0.97546 0.38293 0.0
H1130 H 0.17574 0.96568 0.36289 0.0
H1131 H 0.1848 0.95535 0.37842 0.0
H1132 H 0.24167 0.96026 0.37879 0.0
H1133 H 0.23136 0.92282 0.37107 0.0
H1134 H 0.48772 0.58182 0.30979 0.0
H1135 H 0.51578 0.61734 0.32231 0.0
H1136 H 0.52022 0.64406 0.27807 0.0
H1137 H 0.49172 0.60886 0.26561 0.0
H1138 H 0.55822 0.64198 0.31517 0.0
H1139 H 0.51356 0.68635 0.30784 0.0
H1140 H 0.50017 0.65724 0.30531 0.0
H1141 H 0.51421 0.67277 0.28981 0.0
C1142 C 0.4944 0.59535 0.30279 0.0
C1143 C 0.48745 0.59252 0.28671 0.0
C1144 C 0.51054 0.61558 0.30994 0.0
C1145 C 0.51989 0.63339 0.30116 0.0
C1146 C 0.51296 0.63063 0.28513 0.0
H1147 H 0.64263 0.75289 0.32022 0.0
H1148 H 0.6131 0.7163 0.31135 0.0
C1149 C 0.49684 0.61044 0.27798 0.0
C1150 C 0.53746 0.65469 0.30861 0.0
H1151 H 0.5518 0.70773 0.31507 0.0
C1152 C 0.55678 0.65635 0.31527 0.0
C1153 C 0.53543 0.67334 0.3089 0.0
C1154 C 0.51465 0.67236 0.30272 0.0
C1155 C 0.57437 0.67629 0.32183 0.0
C1156 C 0.57269 0.6951 0.32147 0.0
C1157 C 0.55315 0.69333 0.3152 0.0
C1158 C 0.59103 0.71685 0.3274 0.0
C1159 C 0.5945 0.67699 0.32919 0.0
C1160 C 0.58833 0.72944 0.33921 0.0
C1161 C 0.6051 0.75042 0.34421 0.0
C1162 C 0.6249 0.75927 0.33746 0.0
C1163 C 0.62766 0.74653 0.32575 0.0
C1164 C 0.61083 0.72555 0.32072 0.0
H1165 H 0.59095 0.66091 0.33254 0.0
H1166 H 0.60677 0.68193 0.32062 0.0
H1167 H 0.60172 0.68885 0.33979 0.0
H1168 H 0.57315 0.72307 0.34447 0.0
H1169 H 0.60241 0.75978 0.35325 0.0
H1170 H 0.40287 0.91601 0.27435 0.0
H1171 H 0.36994 0.91032 0.28575 0.0
H1172 H 0.35698 0.84763 0.29738 0.0
H1173 H 0.38968 0.85301 0.28573 0.0
H1174 H 0.32054 0.84797 0.2824 0.0
H1175 H 0.36081 0.91121 0.33284 0.0
H1176 H 0.36918 0.92041 0.3141 0.0
H1177 H 0.37522 0.90102 0.32182 0.0
C1178 C 0.39297 0.90098 0.27928 0.0
C1179 C 0.39893 0.88498 0.27915 0.0
C1180 C 0.37428 0.89784 0.28593 0.0
C1181 C 0.36117 0.87867 0.2926 0.0
C1182 C 0.36696 0.86261 0.2924 0.0
H1183 H 0.25508 0.85337 0.34973 0.0
H1184 H 0.28846 0.85782 0.3398 0.0
C1185 C 0.38572 0.86577 0.28582 0.0
C1186 C 0.34107 0.87512 0.29936 0.0
H1187 H 0.32241 0.89496 0.32797 0.0
C1188 C 0.32094 0.85818 0.2924 0.0
C1189 C 0.34165 0.88831 0.31252 0.0
C1190 C 0.36287 0.90615 0.32088 0.0
C1191 C 0.30134 0.85438 0.29802 0.0
C1192 C 0.30188 0.86802 0.31085 0.0
C1193 C 0.32203 0.88464 0.31805 0.0
C1194 C 0.28167 0.86539 0.31686 0.0
C1195 C 0.2802 0.8357 0.29025 0.0
C1196 C 0.26692 0.86843 0.30733 0.0
C1197 C 0.24788 0.86596 0.31297 0.0
C1198 C 0.24318 0.86042 0.3283 0.0
C1199 C 0.25811 0.85756 0.33787 0.0
C1200 C 0.27722 0.86013 0.33222 0.0
H1201 H 0.2828 0.82377 0.28329 0.0
H1202 H 0.26889 0.82732 0.29911 0.0
H1203 H 0.27229 0.84188 0.28219 0.0
H1204 H 0.2702 0.87282 0.29553 0.0
H1205 H 0.2368 0.86831 0.30525 0.0
H1206 H 0.13416 0.5352 0.31639 0.0
H1207 H 0.14295 0.50888 0.32624 0.0
H1208 H 0.08578 0.45722 0.29909 0.0
H1209 H 0.07628 0.4833 0.28976 0.0
H1210 H 0.09165 0.44714 0.32863 0.0
H1211 H 0.16806 0.47934 0.29987 0.0
H1212 H 0.1668 0.49898 0.31305 0.0
H1213 H 0.14809 0.48729 0.29557 0.0
C1214 C 0.12325 0.51822 0.3127 0.0
C1215 C 0.1046 0.51138 0.30217 0.0
C1216 C 0.12846 0.50322 0.3182 0.0
C1217 C 0.11526 0.48116 0.31313 0.0
C1218 C 0.09628 0.4742 0.30303 0.0
H1219 H 0.14943 0.38179 0.3126 0.0
H1220 H 0.13958 0.40884 0.30663 0.0
C1221 C 0.09099 0.48915 0.29761 0.0
C1222 C 0.12139 0.4653 0.31806 0.0
H1223 H 0.16087 0.4517 0.3163 0.0
C1224 C 0.10679 0.44812 0.32597 0.0
C1225 C 0.14103 0.4665 0.31437 0.0
C1226 C 0.15682 0.48389 0.30512 0.0
C1227 C 0.11129 0.43206 0.3303 0.0
C1228 C 0.13114 0.43352 0.32689 0.0
C1229 C 0.14575 0.45073 0.31901 0.0
C1230 C 0.13673 0.41689 0.33074 0.0
C1231 C 0.09447 0.41337 0.33804 0.0
C1232 C 0.13854 0.41253 0.34631 0.0
C1233 C 0.14403 0.39692 0.34977 0.0
C1234 C 0.14806 0.3856 0.33772 0.0
C1235 C 0.14645 0.3902 0.32217 0.0
C1236 C 0.14082 0.40567 0.31872 0.0
H1237 H 0.07815 0.41178 0.33616 0.0
H1238 H 0.09324 0.39794 0.33351 0.0
H1239 H 0.09928 0.41605 0.35086 0.0
H1240 H 0.13593 0.42134 0.3558 0.0
H1241 H 0.14531 0.39388 0.36188 0.0
H1242 H 0.39482 0.46586 0.29444 0.0
H1243 H 0.35824 0.44368 0.30245 0.0
H1244 H 0.35689 0.50131 0.31774 0.0
H1245 H 0.39357 0.5236 0.30975 0.0
H1246 H 0.34464 0.44516 0.33353 0.0
H1247 H 0.29981 0.46387 0.28755 0.0
H1248 H 0.32687 0.46834 0.28582 0.0
H1249 H 0.32299 0.48663 0.29856 0.0
C1250 C 0.38666 0.47377 0.29944 0.0
C1251 C 0.39686 0.49641 0.30135 0.0
C1252 C 0.36583 0.46111 0.30403 0.0
C1253 C 0.35481 0.47087 0.31052 0.0
C1254 C 0.36501 0.49349 0.31254 0.0
H1255 H 0.23723 0.40562 0.35886 0.0
H1256 H 0.27361 0.43127 0.35204 0.0
C1257 C 0.38591 0.50616 0.30802 0.0
C1258 C 0.33279 0.45731 0.3154 0.0
H1259 H 0.27936 0.44198 0.30662 0.0
C1260 C 0.33036 0.44451 0.32771 0.0
C1261 C 0.31423 0.45643 0.30768 0.0
C1262 C 0.31593 0.4694 0.29408 0.0
C1263 C 0.30979 0.43078 0.33252 0.0
C1264 C 0.29124 0.42999 0.32485 0.0
C1265 C 0.29367 0.4428 0.31254 0.0
C1266 C 0.26905 0.41506 0.3289 0.0
C1267 C 0.30794 0.41681 0.34547 0.0
C1268 C 0.25435 0.39775 0.31802 0.0
C1269 C 0.23363 0.38308 0.32187 0.0
C1270 C 0.22712 0.38553 0.33665 0.0
C1271 C 0.24174 0.40322 0.3474 0.0
C1272 C 0.26255 0.41784 0.34356 0.0
H1273 H 0.3232 0.41647 0.34821 0.0
H1274 H 0.30434 0.42324 0.35625 0.0
H1275 H 0.29441 0.40001 0.34221 0.0
H1276 H 0.25905 0.3954 0.30662 0.0
H1277 H 0.22275 0.36977 0.31324 0.0
H1278 H 0.50354 0.88177 0.27044 0.0
H1279 H 0.52894 0.8689 0.27696 0.0
H1280 H 0.52073 0.87524 0.32601 0.0
H1281 H 0.49508 0.88763 0.31948 0.0
H1282 H 0.56773 0.89028 0.29529 0.0
H1283 H 0.51224 0.81501 0.32057 0.0
H1284 H 0.50246 0.82945 0.30925 0.0
H1285 H 0.51238 0.83827 0.32963 0.0
C1286 C 0.50697 0.88006 0.28257 0.0
C1287 C 0.49719 0.88541 0.29444 0.0
C1288 C 0.52148 0.8728 0.28629 0.0
C1289 C 0.52645 0.87073 0.30196 0.0
C1290 C 0.51672 0.87615 0.31382 0.0
H1291 H 0.61795 0.84724 0.35452 0.0
H1292 H 0.59028 0.85566 0.34504 0.0
C1293 C 0.50217 0.88334 0.31009 0.0
C1294 C 0.54266 0.86403 0.30601 0.0
H1295 H 0.5503 0.82784 0.3256 0.0
C1296 C 0.56386 0.87648 0.30176 0.0
C1297 C 0.5376 0.846 0.31444 0.0
C1298 C 0.51488 0.83128 0.31861 0.0
C1299 C 0.58029 0.87184 0.30618 0.0
C1300 C 0.57533 0.85414 0.31493 0.0
C1301 C 0.55407 0.84146 0.31895 0.0
C1302 C 0.59215 0.84892 0.32047 0.0
C1303 C 0.60301 0.88632 0.3019 0.0
C1304 C 0.60226 0.84214 0.30979 0.0
C1305 C 0.61811 0.83726 0.31517 0.0
C1306 C 0.62413 0.83907 0.33135 0.0
C1307 C 0.61383 0.84574 0.34199 0.0
C1308 C 0.59795 0.85053 0.3366 0.0
H1309 H 0.60513 0.90168 0.29797 0.0
H1310 H 0.61523 0.89017 0.31204 0.0
H1311 H 0.60638 0.87785 0.29219 0.0
H1312 H 0.59779 0.84049 0.2973 0.0
H1313 H 0.62564 0.83211 0.30663 0.0
H1314 H 0.0759 0.60391 0.29836 0.0
H1315 H 0.08879 0.64274 0.30266 0.0
H1316 H 0.1285 0.64785 0.34444 0.0
H1317 H 0.11567 0.60904 0.34012 0.0
H1318 H 0.08667 0.66734 0.32977 0.0
H1319 H 0.17123 0.69297 0.31688 0.0
H1320 H 0.14881 0.66589 0.31144 0.0
H1321 H 0.16095 0.67417 0.33139 0.0
C1322 C 0.08715 0.61333 0.30856 0.0
C1323 C 0.09455 0.60356 0.31909 0.0
C1324 C 0.09452 0.63543 0.31097 0.0
C1325 C 0.10968 0.64811 0.32379 0.0
C1326 C 0.11694 0.63834 0.3344 0.0
H1327 H 0.14968 0.77898 0.36095 0.0
H1328 H 0.13507 0.73999 0.35693 0.0
C1329 C 0.10953 0.61623 0.33201 0.0
C1330 C 0.11812 0.67164 0.32593 0.0
H1331 H 0.16438 0.72053 0.32622 0.0
C1332 C 0.10364 0.679 0.32899 0.0
C1333 C 0.14021 0.68673 0.3247 0.0
C1334 C 0.15622 0.67963 0.32079 0.0
C1335 C 0.11079 0.70117 0.33111 0.0
C1336 C 0.133 0.71626 0.33026 0.0
C1337 C 0.14739 0.70888 0.32697 0.0
C1338 C 0.14162 0.73981 0.33265 0.0
C1339 C 0.09451 0.70828 0.33401 0.0
C1340 C 0.1505 0.75264 0.32041 0.0
C1341 C 0.15892 0.77494 0.32266 0.0
C1342 C 0.15876 0.78481 0.33726 0.0
C1343 C 0.14999 0.7719 0.34955 0.0
C1344 C 0.14152 0.74959 0.34726 0.0
H1345 H 0.07752 0.69497 0.33073 0.0
H1346 H 0.09621 0.71363 0.34667 0.0
H1347 H 0.09747 0.7221 0.3273 0.0
H1348 H 0.15081 0.74536 0.30907 0.0
H1349 H 0.1656 0.78441 0.31296 0.0
H1350 H 0.8452 0.06908 0.35948 0.0
H1351 H 0.81771 0.03071 0.35386 0.0
H1352 H 0.81334 0.0252 0.40346 0.0
H1353 H 0.84045 0.06371 0.40907 0.0
H1354 H 0.81828 0.99486 0.36273 0.0
H1355 H 0.75012 0.99987 0.38669 0.0
H1356 H 0.77505 0.02351 0.38312 0.0
H1357 H 0.77384 0.01027 0.4005 0.0
C1358 C 0.83833 0.05964 0.36915 0.0
C1359 C 0.84492 0.06924 0.38471 0.0
C1360 C 0.82266 0.03777 0.36595 0.0
C1361 C 0.81324 0.02518 0.37823 0.0
C1362 C 0.82004 0.03471 0.39379 0.0
H1363 H 0.72075 0.88984 0.38339 0.0
H1364 H 0.74808 0.92816 0.38881 0.0
C1365 C 0.83563 0.0566 0.39699 0.0
C1366 C 0.79655 0.002 0.37474 0.0
H1367 H 0.74423 0.96462 0.37986 0.0
C1368 C 0.80205 0.98827 0.36639 0.0
C1369 C 0.77537 0.99344 0.37953 0.0
C1370 C 0.76812 0.00756 0.38782 0.0
C1371 C 0.78707 0.96612 0.36295 0.0
C1372 C 0.76599 0.95758 0.36784 0.0
C1373 C 0.76045 0.97127 0.37617 0.0
C1374 C 0.74942 0.93441 0.36445 0.0
C1375 C 0.794 0.95194 0.35436 0.0
C1376 C 0.74095 0.92535 0.34896 0.0
C1377 C 0.72527 0.90347 0.3458 0.0
C1378 C 0.71779 0.89028 0.35811 0.0
C1379 C 0.7262 0.8995 0.37363 0.0
C1380 C 0.7418 0.9214 0.37677 0.0
H1381 H 0.81196 0.96002 0.35439 0.0
H1382 H 0.78819 0.93652 0.3597 0.0
H1383 H 0.78672 0.94804 0.34198 0.0
H1384 H 0.74642 0.93524 0.33931 0.0
H1385 H 0.71911 0.89691 0.33372 0.0
H1386 H 0.97213 0.79554 0.42484 0.0
H1387 H 0.0089 0.80984 0.41666 0.0
H1388 H 0.98223 0.79488 0.36816 0.0
H1389 H 0.94565 0.78106 0.3763 0.0
H1390 H 0.02428 0.78809 0.39958 0.0
H1391 H 0.03158 0.85625 0.36811 0.0
H1392 H 0.01064 0.84272 0.38092 0.0
H1393 H 0.00765 0.83106 0.36114 0.0
C1394 C 0.97425 0.79571 0.41245 0.0
C1395 C 0.95614 0.78753 0.4012 0.0
C1396 C 0.9952 0.80378 0.40778 0.0
C1397 C 0.99841 0.80381 0.39178 0.0
C1398 C 0.98028 0.7956 0.38055 0.0
H1399 H 0.10504 0.8276 0.33707 0.0
H1400 H 0.0701 0.8185 0.34664 0.0
C1401 C 0.95937 0.7876 0.38521 0.0
C1402 C 0.02049 0.81116 0.38682 0.0
H1403 H 0.05791 0.84556 0.36399 0.0
C1404 C 0.03173 0.80081 0.39193 0.0
C1405 C 0.03019 0.82773 0.3768 0.0
C1406 C 0.0195 0.84024 0.37154 0.0
C1407 C 0.0521 0.80615 0.38696 0.0
C1408 C 0.06164 0.82248 0.37676 0.0
C1409 C 0.05053 0.83299 0.37177 0.0
C1410 C 0.08303 0.82867 0.371 0.0
C1411 C 0.06298 0.79384 0.39232 0.0
C1412 C 0.10197 0.83777 0.38149 0.0
C1413 C 0.122 0.84302 0.37607 0.0
C1414 C 0.12351 0.83933 0.36002 0.0
C1415 C 0.10452 0.8306 0.34951 0.0
C1416 C 0.08451 0.82541 0.35495 0.0
H1417 H 0.05144 0.77867 0.39713 0.0
H1418 H 0.07022 0.78978 0.3825 0.0
H1419 H 0.07628 0.80404 0.4017 0.0
H1420 H 0.10127 0.84077 0.3939 0.0
H1421 H 0.13624 0.84982 0.38452 0.0
H1422 H 0.27488 0.20924 0.39835 0.0
H1423 H 0.25946 0.23221 0.3923 0.0
H1424 H 0.22223 0.18866 0.35116 0.0
H1425 H 0.23751 0.16558 0.35728 0.0
H1426 H 0.26102 0.25274 0.36452 0.0
H1427 H 0.17642 0.19367 0.37553 0.0
H1428 H 0.19946 0.19105 0.38214 0.0
H1429 H 0.18843 0.18375 0.36192 0.0
C1430 C 0.26358 0.20476 0.38794 0.0
C1431 C 0.25763 0.18594 0.3781 0.0
C1432 C 0.25476 0.2178 0.38452 0.0
C1433 C 0.23959 0.212 0.37136 0.0
C1434 C 0.23371 0.19325 0.36147 0.0
H1435 H 0.16724 0.27171 0.33575 0.0
H1436 H 0.18224 0.24797 0.33965 0.0
C1437 C 0.24256 0.18021 0.36488 0.0
C1438 C 0.22998 0.22566 0.36804 0.0
H1439 H 0.18218 0.22608 0.36581 0.0
C1440 C 0.24379 0.24695 0.3648 0.0
C1441 C 0.20749 0.21796 0.36838 0.0
C1442 C 0.19205 0.19542 0.3723 0.0
C1443 C 0.23568 0.26078 0.3618 0.0
C1444 C 0.21324 0.2532 0.36236 0.0
C1445 C 0.19938 0.23181 0.36541 0.0
C1446 C 0.20394 0.26738 0.36017 0.0
C1447 C 0.25115 0.2833 0.35785 0.0
C1448 C 0.21088 0.2859 0.37061 0.0
C1449 C 0.20239 0.2995 0.36843 0.0
C1450 C 0.18667 0.29475 0.3558 0.0
C1451 C 0.17937 0.27589 0.34556 0.0
C1452 C 0.18791 0.2623 0.34776 0.0
H1453 H 0.26622 0.28459 0.35374 0.0
H1454 H 0.24337 0.28823 0.34865 0.0
H1455 H 0.2559 0.29483 0.36851 0.0
H1456 H 0.22289 0.28983 0.38047 0.0
H1457 H 0.20825 0.31378 0.37662 0.0
H1458 H 0.61943 0.47251 0.72604 0.0
H1459 H 0.65243 0.49936 0.7156 0.0
H1460 H 0.64544 0.55055 0.73812 0.0
H1461 H 0.61203 0.52391 0.7482 0.0
H1462 H 0.65661 0.53601 0.69654 0.0
H1463 H 0.70892 0.56168 0.7533 0.0
H1464 H 0.68435 0.53569 0.74937 0.0
H1465 H 0.68269 0.55959 0.75352 0.0
C1466 C 0.62471 0.48946 0.72863 0.0
C1467 C 0.61304 0.49601 0.73802 0.0
C1468 C 0.64364 0.50476 0.72272 0.0
C1469 C 0.65139 0.52687 0.72621 0.0
C1470 C 0.6398 0.53352 0.73546 0.0
H1471 H 0.76662 0.64489 0.71049 0.0
H1472 H 0.73247 0.61702 0.71871 0.0
C1473 C 0.62078 0.51825 0.74128 0.0
C1474 C 0.67167 0.54305 0.72023 0.0
H1475 H 0.72447 0.58119 0.73192 0.0
C1476 C 0.67151 0.54587 0.70421 0.0
C1477 C 0.69095 0.55586 0.73034 0.0
C1478 C 0.69196 0.55308 0.74759 0.0
C1479 C 0.69012 0.56159 0.69805 0.0
C1480 C 0.70951 0.57441 0.70816 0.0
C1481 C 0.70962 0.57139 0.72418 0.0
C1482 C 0.7298 0.59134 0.7025 0.0
C1483 C 0.6886 0.56477 0.6809 0.0
C1484 C 0.73974 0.58621 0.69064 0.0
C1485 C 0.75924 0.60221 0.68579 0.0
C1486 C 0.76932 0.62358 0.69287 0.0
C1487 C 0.75933 0.62862 0.70477 0.0
C1488 C 0.73978 0.61269 0.70951 0.0
H1489 H 0.67147 0.55822 0.67595 0.0
H1490 H 0.69805 0.58213 0.67904 0.0
H1491 H 0.69533 0.55608 0.67425 0.0
H1492 H 0.73265 0.56976 0.68534 0.0
H1493 H 0.76661 0.59773 0.67671 0.0
H1494 H 0.54593 0.15631 0.75089 0.0
H1495 H 0.51649 0.16184 0.74026 0.0
H1496 H 0.47422 0.09279 0.73125 0.0
H1497 H 0.50328 0.08736 0.7427 0.0
H1498 H 0.49425 0.15325 0.71335 0.0
H1499 H 0.43635 0.10683 0.75522 0.0
H1500 H 0.46431 0.11327 0.75734 0.0
H1501 H 0.44436 0.09038 0.74425 0.0
C1502 C 0.53032 0.14239 0.74658 0.0
C1503 C 0.5267 0.12144 0.74765 0.0
C1504 C 0.51351 0.14551 0.74054 0.0
C1505 C 0.49287 0.12772 0.73531 0.0
C1506 C 0.48967 0.10677 0.73572 0.0
H1507 H 0.39548 0.13801 0.67583 0.0
H1508 H 0.42505 0.13283 0.68625 0.0
C1509 C 0.50632 0.10366 0.74208 0.0
C1510 C 0.47479 0.1311 0.7294 0.0
H1511 H 0.42166 0.11574 0.73306 0.0
C1512 C 0.47842 0.14515 0.71775 0.0
C1513 C 0.45422 0.12094 0.73534 0.0
C1514 C 0.44965 0.10722 0.74885 0.0
C1515 C 0.46205 0.14905 0.71172 0.0
C1516 C 0.44109 0.13787 0.71699 0.0
C1517 C 0.43757 0.12409 0.72882 0.0
C1518 C 0.42265 0.1404 0.71059 0.0
C1519 C 0.4677 0.16559 0.7001 0.0
C1520 C 0.41058 0.14527 0.72079 0.0
C1521 C 0.39318 0.14755 0.71486 0.0
C1522 C 0.38768 0.1453 0.69859 0.0
C1523 C 0.39955 0.14016 0.68841 0.0
C1524 C 0.41662 0.1374 0.69436 0.0
H1525 H 0.4854 0.17756 0.70142 0.0
H1526 H 0.46346 0.15733 0.68801 0.0
H1527 H 0.45868 0.17442 0.70149 0.0
H1528 H 0.41477 0.14755 0.73336 0.0
H1529 H 0.38437 0.15158 0.72299 0.0
H1530 H 0.90165 0.40448 0.75067 0.0
H1531 H 0.89304 0.36912 0.7386 0.0
H1532 H 0.91544 0.39643 0.69538 0.0
H1533 H 0.92512 0.43217 0.70761 0.0
H1534 H 0.86472 0.34487 0.71319 0.0
H1535 H 0.94867 0.36481 0.70291 0.0
H1536 H 0.94313 0.38237 0.71526 0.0
H1537 H 0.93991 0.38176 0.69428 0.0
C1538 C 0.90512 0.40308 0.73868 0.0
C1539 C 0.91431 0.42123 0.73017 0.0
C1540 C 0.89998 0.38281 0.73175 0.0
C1541 C 0.90388 0.38021 0.71617 0.0
C1542 C 0.9127 0.39816 0.70752 0.0
H1543 H 0.84718 0.25038 0.66665 0.0
H1544 H 0.85717 0.288 0.67354 0.0
C1545 C 0.91797 0.41852 0.71448 0.0
C1546 C 0.89834 0.35855 0.70905 0.0
H1547 H 0.92028 0.32981 0.69326 0.0
C1548 C 0.87683 0.34157 0.70877 0.0
C1549 C 0.91425 0.3543 0.70342 0.0
C1550 C 0.93783 0.3717 0.70408 0.0
C1551 C 0.87082 0.32035 0.70325 0.0
C1552 C 0.88668 0.31612 0.69749 0.0
C1553 C 0.90813 0.33316 0.69755 0.0
C1554 C 0.88166 0.2939 0.69237 0.0
C1555 C 0.84775 0.30256 0.70422 0.0
C1556 C 0.89275 0.28506 0.70023 0.0
C1557 C 0.88729 0.2637 0.69619 0.0
C1558 C 0.87059 0.25076 0.68423 0.0
C1559 C 0.85997 0.25987 0.67603 0.0
C1560 C 0.86557 0.28132 0.68 0.0
H1561 H 0.8392 0.30769 0.71234 0.0
H1562 H 0.83858 0.29808 0.69242 0.0
H1563 H 0.84739 0.28797 0.70824 0.0
H1564 H 0.90527 0.29453 0.70977 0.0
H1565 H 0.89582 0.2572 0.70273 0.0
H1566 H 0.13574 0.93093 0.63087 0.0
H1567 H 0.16476 0.9664 0.6428 0.0
H1568 H 0.21285 0.95289 0.62565 0.0
H1569 H 0.18407 0.9173 0.61397 0.0
H1570 H 0.20327 0.97757 0.66513 0.0
H1571 H 0.2238 0.01013 0.60745 0.0
H1572 H 0.19827 0.98636 0.60988 0.0
H1573 H 0.22257 0.98473 0.60939 0.0
C1574 C 0.15249 0.93537 0.62983 0.0
C1575 C 0.15756 0.92135 0.62133 0.0
C1576 C 0.16903 0.95567 0.6366 0.0
C1577 C 0.19088 0.96233 0.63489 0.0
C1578 C 0.19605 0.94815 0.62686 0.0
H1579 H 0.31242 0.08343 0.65673 0.0
H1580 H 0.28425 0.04608 0.64828 0.0
C1581 C 0.17957 0.92786 0.62015 0.0
C1582 C 0.2083 0.98431 0.64116 0.0
H1583 H 0.24654 0.03243 0.62984 0.0
C1584 C 0.21273 0.98963 0.65745 0.0
C1585 C 0.2206 0.99989 0.63108 0.0
C1586 C 0.21605 0.99516 0.61346 0.0
C1587 C 0.22946 0.01011 0.66397 0.0
C1588 C 0.2417 0.02579 0.65387 0.0
C1589 C 0.23721 0.0204 0.63757 0.0
C1590 C 0.25904 0.04801 0.65989 0.0
C1591 C 0.23418 0.01459 0.68157 0.0
C1592 C 0.25422 0.06153 0.6692 0.0
C1593 C 0.27031 0.08285 0.67413 0.0
C1594 C 0.29148 0.09116 0.66966 0.0
C1595 C 0.29629 0.07755 0.66039 0.0
C1596 C 0.28021 0.05619 0.65554 0.0
H1597 H 0.22801 0.99942 0.68731 0.0
H1598 H 0.25191 0.02489 0.68512 0.0
H1599 H 0.22595 0.02322 0.68601 0.0
H1600 H 0.23788 0.05576 0.67238 0.0
H1601 H 0.26599 0.09292 0.68116 0.0
H1602 H 0.06889 0.24973 0.60702 0.0
H1603 H 0.03596 0.24437 0.61824 0.0
H1604 H 0.02237 0.18158 0.63011 0.0
H1605 H 0.05502 0.1866 0.61859 0.0
H1606 H 0.98622 0.18198 0.6151 0.0
H1607 H 0.0266 0.24584 0.66515 0.0
H1608 H 0.03491 0.25483 0.64634 0.0
H1609 H 0.04099 0.23555 0.65422 0.0
C1610 C 0.05885 0.23474 0.61196 0.0
C1611 C 0.06462 0.21861 0.61193 0.0
C1612 C 0.04016 0.2318 0.61851 0.0
C1613 C 0.02688 0.2127 0.6252 0.0
C1614 C 0.03248 0.19651 0.62511 0.0
H1615 H 0.9214 0.18836 0.68255 0.0
H1616 H 0.95475 0.19294 0.67249 0.0
C1617 C 0.05122 0.19946 0.61861 0.0
C1618 C 0.00679 0.20935 0.63189 0.0
H1619 H 0.98821 0.2296 0.66028 0.0
C1620 C 0.98664 0.19234 0.62501 0.0
C1621 C 0.00741 0.22273 0.64493 0.0
C1622 C 0.02863 0.24065 0.65321 0.0
C1623 C 0.96706 0.18862 0.63062 0.0
C1624 C 0.96763 0.20242 0.64334 0.0
C1625 C 0.9878 0.21915 0.65044 0.0
C1626 C 0.94745 0.19977 0.64942 0.0
C1627 C 0.94592 0.1698 0.62299 0.0
C1628 C 0.93241 0.20237 0.63986 0.0
C1629 C 0.91337 0.19981 0.64556 0.0
C1630 C 0.90897 0.19464 0.66099 0.0
C1631 C 0.9242 0.19226 0.6706 0.0
C1632 C 0.9433 0.19491 0.66489 0.0
H1633 H 0.94853 0.15778 0.61615 0.0
H1634 H 0.93465 0.16157 0.6319 0.0
H1635 H 0.93795 0.17581 0.61481 0.0
H1636 H 0.93546 0.20648 0.62797 0.0
H1637 H 0.90206 0.20179 0.63781 0.0
H1638 H 0.80181 0.86795 0.64944 0.0
H1639 H 0.8092 0.84044 0.65882 0.0
H1640 H 0.75119 0.79061 0.63134 0.0
H1641 H 0.74338 0.81791 0.62213 0.0
H1642 H 0.78084 0.80172 0.67449 0.0
H1643 H 0.80269 0.78349 0.61667 0.0
H1644 H 0.80214 0.808 0.62172 0.0
H1645 H 0.77718 0.78298 0.61644 0.0
C1646 C 0.79044 0.85112 0.64557 0.0
C1647 C 0.77208 0.84513 0.63494 0.0
C1648 C 0.79475 0.83546 0.65089 0.0
C1649 C 0.78088 0.81359 0.6456 0.0
C1650 C 0.76225 0.80747 0.63534 0.0
H1651 H 0.78551 0.6967 0.6552 0.0
H1652 H 0.77581 0.72375 0.64881 0.0
C1653 C 0.75787 0.82309 0.63006 0.0
C1654 C 0.78616 0.7972 0.65049 0.0
H1655 H 0.80117 0.76154 0.63654 0.0
C1656 C 0.78534 0.79293 0.66624 0.0
C1657 C 0.792 0.78584 0.63965 0.0
C1658 C 0.79375 0.79034 0.62269 0.0
C1659 C 0.78981 0.77719 0.67141 0.0
C1660 C 0.79571 0.76584 0.66056 0.0
C1661 C 0.79659 0.77022 0.64482 0.0
C1662 C 0.801 0.74929 0.66519 0.0
C1663 C 0.78766 0.77249 0.68832 0.0
C1664 C 0.81844 0.7547 0.67651 0.0
C1665 C 0.82397 0.73922 0.68026 0.0
C1666 C 0.81232 0.71813 0.67262 0.0
C1667 C 0.79484 0.71279 0.66131 0.0
C1668 C 0.78926 0.72823 0.65764 0.0
H1669 H 0.77735 0.77805 0.69386 0.0
H1670 H 0.78055 0.75495 0.68935 0.0
H1671 H 0.80401 0.78115 0.69499 0.0
H1672 H 0.82805 0.771 0.68222 0.0
H1673 H 0.83762 0.74392 0.68894 0.0
H1674 H 0.04674 0.81752 0.60973 0.0
H1675 H 0.00985 0.79616 0.61753 0.0
H1676 H 0.03602 0.81091 0.66616 0.0
H1677 H 0.07277 0.83263 0.6584 0.0
H1678 H 0.9938 0.76036 0.63335 0.0
H1679 H 0.98755 0.82494 0.66726 0.0
H1680 H 0.00856 0.83069 0.65444 0.0
H1681 H 0.01102 0.82326 0.67379 0.0
C1682 C 0.04449 0.81639 0.62208 0.0
C1683 C 0.06249 0.8269 0.63347 0.0
C1684 C 0.02349 0.80418 0.62653 0.0
C1685 C 0.02012 0.80225 0.64245 0.0
C1686 C 0.03814 0.81263 0.65384 0.0
H1687 H 0.90898 0.72502 0.69278 0.0
H1688 H 0.94511 0.74943 0.68501 0.0
C1689 C 0.05913 0.82492 0.6494 0.0
C1690 C 0.99791 0.78849 0.64707 0.0
H1691 H 0.95999 0.78871 0.66956 0.0
C1692 C 0.98635 0.7666 0.64117 0.0
C1693 C 0.98822 0.79664 0.65732 0.0
C1694 C 0.99937 0.82021 0.66346 0.0
C1695 C 0.96555 0.75256 0.64545 0.0
C1696 C 0.95595 0.76068 0.65577 0.0
C1697 C 0.96745 0.78255 0.66168 0.0
C1698 C 0.93394 0.74664 0.66054 0.0
C1699 C 0.95417 0.72903 0.63916 0.0
C1700 C 0.91568 0.73735 0.64941 0.0
C1701 C 0.89502 0.72344 0.65379 0.0
C1702 C 0.89223 0.71857 0.66943 0.0
C1703 C 0.91053 0.72834 0.68063 0.0
C1704 C 0.93119 0.74231 0.67623 0.0
H1705 H 0.96558 0.72443 0.6343 0.0
H1706 H 0.94614 0.71852 0.64849 0.0
H1707 H 0.94143 0.72586 0.62962 0.0
H1708 H 0.91742 0.74076 0.63728 0.0
H1709 H 0.88131 0.7163 0.64484 0.0
H1710 H 0.16796 0.21376 0.60305 0.0
H1711 H 0.19342 0.20085 0.60917 0.0
H1712 H 0.18689 0.20813 0.65846 0.0
H1713 H 0.16116 0.22055 0.65234 0.0
H1714 H 0.23271 0.22225 0.62685 0.0
H1715 H 0.17792 0.14772 0.65319 0.0
H1716 H 0.16791 0.16207 0.642 0.0
H1717 H 0.17844 0.17117 0.66227 0.0
C1718 C 0.17175 0.21224 0.61515 0.0
C1719 C 0.1624 0.21782 0.6272 0.0
C1720 C 0.18632 0.20496 0.61864 0.0
C1721 C 0.19177 0.20313 0.63426 0.0
C1722 C 0.18249 0.20883 0.64631 0.0
H1723 H 0.28422 0.1809 0.68627 0.0
H1724 H 0.25649 0.18917 0.67672 0.0
C1725 C 0.16789 0.21604 0.64281 0.0
C1726 C 0.20798 0.19636 0.63806 0.0
H1727 H 0.21606 0.16054 0.65781 0.0
C1728 C 0.229 0.20859 0.63345 0.0
C1729 C 0.20312 0.17851 0.64665 0.0
C1730 C 0.18056 0.16398 0.65118 0.0
C1731 C 0.24549 0.20396 0.63771 0.0
C1732 C 0.24076 0.1865 0.64667 0.0
C1733 C 0.21965 0.17398 0.651 0.0
C1734 C 0.25771 0.18146 0.65221 0.0
C1735 C 0.26805 0.21821 0.63306 0.0
C1736 C 0.2675 0.17421 0.64157 0.0
C1737 C 0.2834 0.16941 0.64699 0.0
C1738 C 0.28977 0.17176 0.66316 0.0
C1739 C 0.27982 0.17897 0.67375 0.0
C1740 C 0.2639 0.18366 0.66832 0.0
H1741 H 0.27002 0.23336 0.62881 0.0
H1742 H 0.28048 0.22246 0.64312 0.0
H1743 H 0.27122 0.20937 0.6235 0.0
H1744 H 0.26273 0.17212 0.62909 0.0
H1745 H 0.29066 0.16385 0.63851 0.0
H1746 H 0.74505 0.9386 0.63267 0.0
H1747 H 0.7578 0.97734 0.63758 0.0
H1748 H 0.79678 0.98131 0.67943 0.0
H1749 H 0.78407 0.94258 0.67452 0.0
H1750 H 0.75517 0.00111 0.66513 0.0
H1751 H 0.84 0.02735 0.65254 0.0
H1752 H 0.81764 0.00037 0.64667 0.0
H1753 H 0.8294 0.00807 0.66671 0.0
C1754 C 0.7561 0.94775 0.64302 0.0
C1755 C 0.76333 0.93768 0.65339 0.0
C1756 C 0.7634 0.9698 0.64578 0.0
C1757 C 0.7783 0.98213 0.65881 0.0
C1758 C 0.78541 0.97206 0.66925 0.0
H1759 H 0.81762 0.11343 0.69561 0.0
H1760 H 0.80364 0.07448 0.6922 0.0
C1761 C 0.77806 0.95 0.66651 0.0
C1762 C 0.78669 0.00563 0.66128 0.0
H1763 H 0.8328 0.05468 0.66172 0.0
C1764 C 0.77213 0.01286 0.66442 0.0
C1765 C 0.80878 0.02083 0.66015 0.0
C1766 C 0.82489 0.01386 0.65621 0.0
C1767 C 0.77917 0.03499 0.66661 0.0
C1768 C 0.80133 0.05019 0.66575 0.0
C1769 C 0.81584 0.04294 0.66248 0.0
C1770 C 0.80973 0.07371 0.66785 0.0
C1771 C 0.76279 0.04198 0.66953 0.0
C1772 C 0.81814 0.08618 0.65536 0.0
C1773 C 0.82618 0.10842 0.65725 0.0
C1774 C 0.8261 0.11862 0.67173 0.0
C1775 C 0.81785 0.10608 0.68428 0.0
C1776 C 0.80975 0.08381 0.68235 0.0
H1777 H 0.74581 0.02852 0.66651 0.0
H1778 H 0.76474 0.04767 0.68214 0.0
H1779 H 0.76545 0.05555 0.66262 0.0
H1780 H 0.81834 0.07865 0.6441 0.0
H1781 H 0.83247 0.11759 0.64736 0.0
H1782 H 0.4916 0.40066 0.73684 0.0
H1783 H 0.46434 0.36219 0.73099 0.0
H1784 H 0.50053 0.35679 0.69416 0.0
H1785 H 0.52785 0.39525 0.70006 0.0
H1786 H 0.43875 0.34066 0.70199 0.0
H1787 H 0.49126 0.30761 0.72115 0.0
H1788 H 0.49831 0.33519 0.72662 0.0
H1789 H 0.50225 0.32739 0.70737 0.0
C1790 C 0.49363 0.39122 0.72747 0.0
C1791 C 0.51155 0.40087 0.71871 0.0
C1792 C 0.47812 0.36931 0.72415 0.0
C1793 C 0.48051 0.35664 0.71221 0.0
C1794 C 0.49853 0.36623 0.70354 0.0
H1795 H 0.38192 0.2305 0.66695 0.0
H1796 H 0.40925 0.26875 0.67296 0.0
C1797 C 0.51401 0.38816 0.70683 0.0
C1798 C 0.46391 0.33349 0.70865 0.0
H1799 H 0.45641 0.28258 0.7082 0.0
C1800 C 0.44257 0.32794 0.70336 0.0
C1801 C 0.46894 0.31696 0.71061 0.0
C1802 C 0.49137 0.32198 0.71687 0.0
C1803 C 0.42616 0.30628 0.69977 0.0
C1804 C 0.43131 0.28977 0.70137 0.0
C1805 C 0.45258 0.2953 0.70686 0.0
C1806 C 0.41475 0.26662 0.69768 0.0
C1807 C 0.40336 0.30119 0.69455 0.0
C1808 C 0.4091 0.25268 0.70954 0.0
C1809 C 0.39353 0.23081 0.70616 0.0
C1810 C 0.38343 0.22242 0.6908 0.0
C1811 C 0.38929 0.23643 0.67891 0.0
C1812 C 0.40484 0.25832 0.68233 0.0
H1813 H 0.40104 0.31518 0.6974 0.0
H1814 H 0.40013 0.297 0.68165 0.0
H1815 H 0.3912 0.28715 0.70013 0.0
H1816 H 0.41664 0.25877 0.72145 0.0
H1817 H 0.38948 0.2205 0.71559 0.0
H1818 H 0.63807 0.12898 0.75838 0.0
H1819 H 0.67479 0.14296 0.75016 0.0
H1820 H 0.64801 0.1279 0.70168 0.0
H1821 H 0.61149 0.11441 0.70986 0.0
H1822 H 0.69004 0.12105 0.73312 0.0
H1823 H 0.69748 0.18919 0.70153 0.0
H1824 H 0.67656 0.17575 0.71437 0.0
H1825 H 0.67349 0.16402 0.69461 0.0
C1826 C 0.64017 0.12905 0.74599 0.0
C1827 C 0.62204 0.12095 0.73476 0.0
C1828 C 0.66108 0.13694 0.7413 0.0
C1829 C 0.66424 0.13686 0.72529 0.0
C1830 C 0.6461 0.1287 0.71408 0.0
H1831 H 0.77047 0.15994 0.67043 0.0
H1832 H 0.73558 0.15079 0.6801 0.0
C1833 C 0.62522 0.12089 0.71876 0.0
C1834 C 0.68628 0.14411 0.72031 0.0
H1835 H 0.7237 0.17835 0.69739 0.0
C1836 C 0.69749 0.13373 0.72544 0.0
C1837 C 0.69601 0.16064 0.71026 0.0
C1838 C 0.68537 0.1732 0.70499 0.0
C1839 C 0.71784 0.139 0.72045 0.0
C1840 C 0.72737 0.15527 0.71021 0.0
C1841 C 0.7163 0.16582 0.7052 0.0
C1842 C 0.74871 0.16136 0.7044 0.0
C1843 C 0.7287 0.12669 0.72584 0.0
C1844 C 0.76773 0.17065 0.71483 0.0
C1845 C 0.78773 0.17596 0.70934 0.0
C1846 C 0.78912 0.17209 0.69329 0.0
C1847 C 0.77004 0.16309 0.68285 0.0
C1848 C 0.75006 0.15787 0.68836 0.0
H1849 H 0.7172 0.11163 0.73078 0.0
H1850 H 0.73577 0.12245 0.71599 0.0
H1851 H 0.74214 0.13698 0.7351 0.0
H1852 H 0.76711 0.17381 0.72723 0.0
H1853 H 0.80205 0.18296 0.71773 0.0
H1854 H 0.94072 0.54339 0.73614 0.0
H1855 H 0.92579 0.56689 0.73045 0.0
H1856 H 0.88831 0.52424 0.68901 0.0
H1857 H 0.90315 0.50067 0.69473 0.0
H1858 H 0.92742 0.58805 0.70282 0.0
H1859 H 0.84303 0.52933 0.71438 0.0
H1860 H 0.8661 0.52663 0.72077 0.0
H1861 H 0.85465 0.51913 0.70064 0.0
C1862 C 0.9295 0.53925 0.72573 0.0
C1863 C 0.92333 0.52053 0.71569 0.0
C1864 C 0.92095 0.55258 0.72253 0.0
C1865 C 0.90585 0.54717 0.7094 0.0
C1866 C 0.89978 0.52854 0.69929 0.0
H1867 H 0.86258 0.62779 0.66713 0.0
H1868 H 0.87763 0.60454 0.67266 0.0
C1869 C 0.90836 0.51523 0.70248 0.0
C1870 C 0.89636 0.56098 0.70633 0.0
H1871 H 0.84853 0.56131 0.70387 0.0
C1872 C 0.91019 0.58225 0.70306 0.0
C1873 C 0.87392 0.55338 0.70686 0.0
C1874 C 0.85853 0.53093 0.71098 0.0
C1875 C 0.90207 0.59608 0.70004 0.0
C1876 C 0.87954 0.58829 0.70015 0.0
C1877 C 0.86577 0.56713 0.70368 0.0
C1878 C 0.86998 0.60194 0.69673 0.0
C1879 C 0.91769 0.61899 0.69696 0.0
C1880 C 0.86019 0.60768 0.70833 0.0
C1881 C 0.8515 0.62092 0.70522 0.0
C1882 C 0.85233 0.62851 0.69039 0.0
C1883 C 0.86176 0.62232 0.6787 0.0
C1884 C 0.87048 0.60913 0.68184 0.0
H1885 H 0.93481 0.62388 0.70087 0.0
H1886 H 0.91648 0.62036 0.68418 0.0
H1887 H 0.91362 0.63045 0.70301 0.0
H1888 H 0.85956 0.60215 0.71986 0.0
H1889 H 0.8443 0.62532 0.71446 0.0
H1890 H 0.43931 0.9348 0.24146 0.0
H1891 H 0.44824 0.9509 0.21665 0.0
H1892 H 0.4667 0.90456 0.20114 0.0
H1893 H 0.45726 0.88799 0.22571 0.0
H1894 H 0.48872 0.96926 0.20428 0.0
H1895 H 0.42477 0.90009 0.16426 0.0
H1896 H 0.42377 0.9021 0.18523 0.0
H1897 H 0.44113 0.8935 0.17694 0.0
C1898 C 0.44496 0.92783 0.23268 0.0
C1899 C 0.44748 0.91004 0.23555 0.0
C1900 C 0.4502 0.93714 0.21855 0.0
C1901 C 0.45787 0.92876 0.20697 0.0
C1902 C 0.46046 0.91106 0.2098 0.0
H1903 H 0.50163 0.96416 0.11522 0.0
H1904 H 0.49169 0.94731 0.13968 0.0
C1905 C 0.45528 0.90176 0.22393 0.0
C1906 C 0.46383 0.93897 0.19214 0.0
H1907 H 0.45186 0.92929 0.15233 0.0
C1908 C 0.4806 0.96057 0.19292 0.0
C1909 C 0.45326 0.92757 0.17734 0.0
C1910 C 0.4346 0.90459 0.17583 0.0
C1911 C 0.48735 0.97098 0.17927 0.0
C1912 C 0.47675 0.95959 0.16447 0.0
C1913 C 0.45998 0.93798 0.16369 0.0
C1914 C 0.48273 0.96985 0.14965 0.0
C1915 C 0.5061 0.99392 0.18082 0.0
C1916 C 0.4807 0.98793 0.14703 0.0
C1917 C 0.48631 0.99756 0.13306 0.0
C1918 C 0.49393 0.98921 0.12135 0.0
C1919 C 0.49567 0.9709 0.12393 0.0
C1920 C 0.49007 0.96131 0.13793 0.0
H1921 H 0.51607 0.99824 0.19231 0.0
H1922 H 0.5168 0.99646 0.17131 0.0
H1923 H 0.49965 0.00511 0.17995 0.0
H1924 H 0.47456 0.99448 0.15574 0.0
H1925 H 0.48435 0.01135 0.13133 0.0
H1926 H 0.10192 0.56993 0.25184 0.0
H1927 H 0.08916 0.56444 0.2239 0.0
H1928 H 0.04408 0.49736 0.2282 0.0
H1929 H 0.0564 0.50278 0.25616 0.0
H1930 H 0.08959 0.53428 0.20054 0.0
H1931 H 0.00622 0.5194 0.20683 0.0
H1932 H 0.02786 0.53204 0.22266 0.0
H1933 H 0.01383 0.50327 0.21789 0.0
C1934 C 0.08909 0.55408 0.24687 0.0
C1935 C 0.0801 0.5368 0.2562 0.0
C1936 C 0.08193 0.55096 0.23091 0.0
C1937 C 0.06554 0.53057 0.22407 0.0
C1938 C 0.05654 0.51329 0.23333 0.0
H1939 H 0.9984 0.47391 0.13188 0.0
H1940 H 0.0125 0.48151 0.15958 0.0
C1941 C 0.06373 0.51637 0.24926 0.0
C1942 C 0.05819 0.52716 0.20713 0.0
H1943 H 0.01367 0.51225 0.18128 0.0
C1944 C 0.07305 0.52961 0.19629 0.0
C1945 C 0.03659 0.52103 0.20169 0.0
C1946 C 0.02021 0.51894 0.21284 0.0
C1947 C 0.06669 0.52552 0.18008 0.0
C1948 C 0.04503 0.51923 0.17464 0.0
C1949 C 0.03025 0.51701 0.1855 0.0
C1950 C 0.03719 0.51461 0.15772 0.0
C1951 C 0.08303 0.52734 0.16897 0.0
C1952 C 0.04637 0.53073 0.1475 0.0
C1953 C 0.03835 0.52643 0.13166 0.0
C1954 C 0.02084 0.50599 0.1258 0.0
C1955 C 0.01174 0.48988 0.13608 0.0
C1956 C 0.01983 0.49416 0.15188 0.0
H1957 H 0.09695 0.52682 0.17506 0.0
H1958 H 0.07534 0.51416 0.15921 0.0
H1959 H 0.08955 0.54298 0.16386 0.0
H1960 H 0.05946 0.54676 0.15184 0.0
H1961 H 0.04546 0.53926 0.12409 0.0
H1962 H 0.42746 0.51958 0.23193 0.0
H1963 H 0.43297 0.50937 0.20566 0.0
H1964 H 0.50209 0.54133 0.21898 0.0
H1965 H 0.49661 0.55034 0.24548 0.0
H1966 H 0.454 0.53453 0.18443 0.0
H1967 H 0.4926 0.48613 0.19749 0.0
H1968 H 0.47956 0.49367 0.21196 0.0
H1969 H 0.50721 0.51221 0.20847 0.0
C1970 C 0.44378 0.52396 0.22941 0.0
C1971 C 0.46159 0.53582 0.24087 0.0
C1972 C 0.44692 0.51825 0.21432 0.0
C1973 C 0.46791 0.52429 0.21037 0.0
C1974 C 0.48568 0.53599 0.22181 0.0
H1975 H 0.51492 0.54895 0.11977 0.0
H1976 H 0.50263 0.54962 0.14566 0.0
C1977 C 0.48254 0.54148 0.23692 0.0
C1978 C 0.47147 0.51975 0.19403 0.0
H1979 H 0.49823 0.50065 0.17245 0.0
C1980 C 0.46342 0.52684 0.1818 0.0
C1981 C 0.4834 0.50935 0.19048 0.0
C1982 C 0.49096 0.4997 0.20279 0.0
C1983 C 0.46773 0.52466 0.16626 0.0
C1984 C 0.48108 0.51578 0.16292 0.0
C1985 C 0.48832 0.50781 0.17502 0.0
C1986 C 0.48827 0.51522 0.14709 0.0
C1987 C 0.45782 0.53182 0.1536 0.0
C1988 C 0.48503 0.49581 0.13949 0.0
C1989 C 0.49241 0.49547 0.12479 0.0
C1990 C 0.50307 0.51453 0.1174 0.0
C1991 C 0.50639 0.53395 0.12506 0.0
C1992 C 0.49927 0.53432 0.13982 0.0
H1993 H 0.44261 0.531 0.15695 0.0
H1994 H 0.46944 0.54887 0.15189 0.0
H1995 H 0.45407 0.52175 0.14228 0.0
H1996 H 0.47673 0.4809 0.14491 0.0
H1997 H 0.48958 0.48027 0.11912 0.0
H1998 H 0.96454 0.50901 0.77507 0.0
H1999 H 0.97889 0.51871 0.80281 0.0
H2000 H 0.93608 0.45316 0.81237 0.0
H2001 H 0.92127 0.4434 0.78483 0.0
H2002 H 0.95429 0.51253 0.83079 0.0
H2003 H 0.99953 0.46795 0.82827 0.0
H2004 H 0.99061 0.47574 0.81095 0.0
H2005 H 0.97153 0.45289 0.82016 0.0
C2006 C 0.95801 0.49671 0.7831 0.0
C2007 C 0.94188 0.47537 0.77769 0.0
C2008 C 0.96629 0.50227 0.79891 0.0
C2009 C 0.95869 0.48657 0.80953 0.0
C2010 C 0.94236 0.4654 0.80426 0.0
H2011 H 0.96823 0.489 0.90974 0.0
H2012 H 0.95704 0.4881 0.88211 0.0
C2013 C 0.93401 0.45985 0.78851 0.0
C2014 C 0.96793 0.49214 0.82612 0.0
H2015 H 0.99672 0.4811 0.85352 0.0
C2016 C 0.96371 0.50583 0.83578 0.0
C2017 C 0.98038 0.48351 0.83248 0.0
C2018 C 0.98599 0.46934 0.82244 0.0
C2019 C 0.9711 0.51057 0.85184 0.0
C2020 C 0.98286 0.50127 0.8583 0.0
C2021 C 0.98763 0.48813 0.84852 0.0
C2022 C 0.98978 0.50426 0.87529 0.0
C2023 C 0.96627 0.52544 0.86176 0.0
C2024 C 0.0119 0.51374 0.88061 0.0
C2025 C 0.01837 0.51436 0.8964 0.0
C2026 C 1.00279 0.5053 0.90715 0.0
C2027 C 0.98066 0.49642 0.90184 0.0
C2028 C 0.97423 0.49587 0.88605 0.0
H2029 H 0.96209 0.53543 0.85447 0.0
H2030 H 0.95219 0.51564 0.86833 0.0
H2031 H 0.98038 0.53631 0.87041 0.0
H2032 H 0.02414 0.52026 0.87246 0.0
H2033 H 0.03555 0.52157 0.90014 0.0
H2034 H 0.57351 0.50578 0.77932 0.0
H2035 H 0.56501 0.51256 0.80556 0.0
H2036 H 0.54563 0.4472 0.81449 0.0
H2037 H 0.55443 0.44039 0.78838 0.0
H2038 H 0.52344 0.48895 0.8177 0.0
H2039 H 0.58909 0.48499 0.85303 0.0
H2040 H 0.59001 0.48907 0.83246 0.0
H2041 H 0.5731 0.46261 0.83837 0.0
C2042 C 0.56771 0.49294 0.78695 0.0
C2043 C 0.5647 0.47256 0.78179 0.0
C2044 C 0.56275 0.4968 0.80189 0.0
C2045 C 0.55493 0.48046 0.812 0.0
C2046 C 0.55194 0.46012 0.80693 0.0
H2047 H 0.5135 0.4703 0.90573 0.0
H2048 H 0.52372 0.46433 0.87996 0.0
C2049 C 0.55678 0.4562 0.79197 0.0
C2050 C 0.54916 0.48444 0.82766 0.0
H2051 H 0.56229 0.48697 0.86694 0.0
C2052 C 0.53198 0.48863 0.82848 0.0
C2053 C 0.56028 0.48388 0.84167 0.0
C2054 C 0.57927 0.48007 0.84143 0.0
C2055 C 0.52533 0.49191 0.84297 0.0
C2056 C 0.53652 0.49148 0.85701 0.0
C2057 C 0.55374 0.4873 0.85617 0.0
C2058 C 0.53061 0.4953 0.87268 0.0
C2059 C 0.50601 0.49524 0.84307 0.0
C2060 C 0.53144 0.51483 0.87725 0.0
C2061 C 0.52557 0.51826 0.89194 0.0
C2062 C 0.51899 0.50232 0.90244 0.0
C2063 C 0.51862 0.48295 0.89796 0.0
C2064 C 0.52439 0.47949 0.88322 0.0
H2065 H 0.49572 0.48916 0.83165 0.0
H2066 H 0.49578 0.48697 0.85248 0.0
H2067 H 0.51186 0.51276 0.84523 0.0
H2068 H 0.53674 0.5275 0.86948 0.0
H2069 H 0.52644 0.53352 0.89516 0.0
H2070 H 0.5406 0.11704 0.80256 0.0
H2071 H 0.53302 0.10124 0.82749 0.0
H2072 H 0.55501 0.05758 0.81226 0.0
H2073 H 0.56296 0.07361 0.78733 0.0
H2074 H 0.50472 0.06063 0.83262 0.0
H2075 H 0.58782 0.08078 0.85536 0.0
H2076 H 0.58272 0.09265 0.83885 0.0
H2077 H 0.57905 0.06592 0.83628 0.0
C2078 C 0.54388 0.10411 0.80454 0.0
C2079 C 0.55237 0.09656 0.79299 0.0
C2080 C 0.5396 0.09513 0.81881 0.0
C2081 C 0.54368 0.07839 0.82186 0.0
C2082 C 0.55222 0.07083 0.81035 0.0
H2083 H 0.48388 0.99139 0.89335 0.0
H2084 H 0.49449 0.00752 0.8688 0.0
C2085 C 0.55669 0.07995 0.79609 0.0
C2086 C 0.53802 0.0683 0.83679 0.0
H2087 H 0.55883 0.05659 0.86922 0.0
C2088 C 0.51658 0.0598 0.84064 0.0
C2089 C 0.55355 0.06746 0.84736 0.0
C2090 C 0.57712 0.07737 0.84436 0.0
C2091 C 0.51018 0.05037 0.85467 0.0
C2092 C 0.52552 0.04886 0.86498 0.0
C2093 C 0.54703 0.05754 0.86122 0.0
C2094 C 0.51965 0.03872 0.87988 0.0
C2095 C 0.48718 0.0426 0.85845 0.0
C2096 C 0.53079 0.05061 0.89427 0.0
C2097 C 0.52505 0.04129 0.90835 0.0
C2098 C 0.50803 0.01984 0.90834 0.0
C2099 C 0.49716 0.00787 0.89385 0.0
C2100 C 0.50301 0.01717 0.87978 0.0
H2101 H 0.47959 0.0504 0.85179 0.0
H2102 H 0.47721 0.02491 0.85519 0.0
H2103 H 0.48664 0.04587 0.87117 0.0
H2104 H 0.54381 0.06722 0.89463 0.0
H2105 H 0.53407 0.05088 0.91923 0.0
H2106 H 0.12189 0.22016 0.55844 0.0
H2107 H 0.1317 0.23672 0.5339 0.0
H2108 H 0.11667 0.28538 0.55017 0.0
H2109 H 0.10669 0.26881 0.57473 0.0
H2110 H 0.10011 0.26919 0.51978 0.0
H2111 H 0.187 0.29208 0.52798 0.0
H2112 H 0.16866 0.26384 0.52899 0.0
H2113 H 0.16958 0.28339 0.5436 0.0
C2114 C 0.12083 0.23449 0.55685 0.0
C2115 C 0.11364 0.24325 0.56858 0.0
C2116 C 0.12649 0.24396 0.54282 0.0
C2117 C 0.12532 0.26254 0.54031 0.0
C2118 C 0.11779 0.2711 0.55188 0.0
H2119 H 0.18612 0.34891 0.46912 0.0
H2120 H 0.17554 0.33207 0.49346 0.0
C2121 C 0.11201 0.26157 0.56588 0.0
C2122 C 0.13169 0.27289 0.52555 0.0
H2123 H 0.1739 0.29587 0.50294 0.0
C2124 C 0.11626 0.27508 0.51611 0.0
C2125 C 0.15287 0.28085 0.52089 0.0
C2126 C 0.17056 0.28014 0.53096 0.0
C2127 C 0.12132 0.28473 0.50202 0.0
C2128 C 0.14226 0.29199 0.49708 0.0
C2129 C 0.15778 0.29008 0.50664 0.0
C2130 C 0.14856 0.30205 0.4822 0.0
C2131 C 0.10433 0.28746 0.49275 0.0
C2132 C 0.13712 0.29068 0.46774 0.0
C2133 C 0.14297 0.30036 0.4538 0.0
C2134 C 0.16055 0.32157 0.45401 0.0
C2135 C 0.17226 0.33272 0.46852 0.0
C2136 C 0.16634 0.32305 0.48244 0.0
H2137 H 0.09171 0.28668 0.50013 0.0
H2138 H 0.11179 0.3031 0.48757 0.0
H2139 H 0.09611 0.27425 0.48305 0.0
H2140 H 0.12364 0.27429 0.46722 0.0
H2141 H 0.13346 0.29134 0.44289 0.0
H2142 H 0.77161 0.86148 0.5815 0.0
H2143 H 0.75904 0.85672 0.55371 0.0
H2144 H 0.71703 0.8819 0.5646 0.0
H2145 H 0.72873 0.88574 0.59255 0.0
H2146 H 0.69617 0.84548 0.54464 0.0
H2147 H 0.77482 0.90198 0.52337 0.0
H2148 H 0.77627 0.88199 0.53415 0.0
H2149 H 0.77074 0.90138 0.54392 0.0
C2150 C 0.75959 0.86589 0.57802 0.0
C2151 C 0.75114 0.87395 0.58928 0.0
C2152 C 0.75267 0.86346 0.56209 0.0
C2153 C 0.7374 0.86933 0.55705 0.0
C2154 C 0.72897 0.87744 0.56823 0.0
H2155 H 0.70392 0.87687 0.45913 0.0
H2156 H 0.71749 0.88519 0.487 0.0
C2157 C 0.73579 0.87977 0.58419 0.0
C2158 C 0.72946 0.86602 0.5402 0.0
H2159 H 0.74628 0.87765 0.5038 0.0
C2160 C 0.7071 0.85265 0.53572 0.0
C2161 C 0.7437 0.87563 0.5286 0.0
C2162 C 0.76768 0.89122 0.53275 0.0
C2163 C 0.69865 0.84818 0.5199 0.0
C2164 C 0.71304 0.8569 0.50824 0.0
C2165 C 0.73532 0.87074 0.51275 0.0
C2166 C 0.70526 0.85185 0.49129 0.0
C2167 C 0.67437 0.83436 0.51588 0.0
C2168 C 0.6943 0.8304 0.4844 0.0
C2169 C 0.68649 0.82561 0.46853 0.0
C2170 C 0.68975 0.84222 0.45919 0.0
C2171 C 0.70129 0.86375 0.46601 0.0
C2172 C 0.70897 0.86851 0.48193 0.0
H2173 H 0.6654 0.83436 0.52604 0.0
H2174 H 0.66867 0.84003 0.50587 0.0
H2175 H 0.67017 0.81745 0.51255 0.0
H2176 H 0.69179 0.81734 0.49131 0.0
H2177 H 0.67799 0.80891 0.46352 0.0
H2178 H 0.16277 0.87719 0.57943 0.0
H2179 H 0.16809 0.86821 0.5528 0.0
H2180 H 0.10037 0.84432 0.53814 0.0
H2181 H 0.09509 0.85413 0.56466 0.0
H2182 H 0.14921 0.82961 0.5341 0.0
H2183 H 0.13076 0.88801 0.50708 0.0
H2184 H 0.13524 0.88841 0.52803 0.0
H2185 H 0.1096 0.86873 0.51753 0.0
C2186 C 0.14903 0.87022 0.57052 0.0
C2187 C 0.12857 0.86668 0.57415 0.0
C2188 C 0.15206 0.86492 0.55533 0.0
C2189 C 0.13472 0.85595 0.54342 0.0
C2190 C 0.11408 0.85164 0.54708 0.0
H2191 H 0.13725 0.82756 0.44307 0.0
H2192 H 0.12473 0.8282 0.46895 0.0
C2193 C 0.11104 0.85703 0.56229 0.0
C2194 C 0.13856 0.85151 0.52717 0.0
H2195 H 0.13863 0.86635 0.49007 0.0
C2196 C 0.1468 0.83756 0.52446 0.0
C2197 C 0.13539 0.8619 0.5146 0.0
C2198 C 0.12744 0.87775 0.51691 0.0
C2199 C 0.15218 0.83391 0.50956 0.0
C2200 C 0.14945 0.84465 0.4971 0.0
C2201 C 0.14065 0.85811 0.49967 0.0
C2202 C 0.15682 0.84318 0.48154 0.0
C2203 C 0.16082 0.81865 0.50726 0.0
C2204 C 0.17902 0.85152 0.48006 0.0
C2205 C 0.18626 0.85142 0.46531 0.0
C2206 C 0.17144 0.84298 0.45169 0.0
C2207 C 0.14914 0.83441 0.45326 0.0
C2208 C 0.14193 0.83463 0.46804 0.0
H2209 H 0.15662 0.80755 0.5166 0.0
H2210 H 0.15434 0.8089 0.49567 0.0
H2211 H 0.17881 0.82815 0.50766 0.0
H2212 H 0.19082 0.85862 0.49031 0.0
H2213 H 0.20357 0.85857 0.46455 0.0
H2214 H 0.59221 0.82522 0.11517 0.0
H2215 H 0.60677 0.83625 0.14277 0.0
H2216 H 0.64912 0.81016 0.13631 0.0
H2217 H 0.63527 0.79982 0.10861 0.0
H2218 H 0.60442 0.80949 0.16491 0.0
H2219 H 0.69058 0.8691 0.15955 0.0
H2220 H 0.6696 0.85988 0.14339 0.0
H2221 H 0.68161 0.84377 0.14823 0.0
C2222 C 0.60496 0.82225 0.11954 0.0
C2223 C 0.61261 0.81167 0.10968 0.0
C2224 C 0.61316 0.82845 0.13534 0.0
C2225 C 0.62925 0.82432 0.14154 0.0
C2226 C 0.63704 0.81393 0.1317 0.0
H2227 H 0.68621 0.81933 0.22986 0.0
H2228 H 0.67494 0.81917 0.20244 0.0
C2229 C 0.62889 0.80776 0.11592 0.0
C2230 C 0.63681 0.82945 0.15851 0.0
H2231 H 0.68251 0.85496 0.1845 0.0
C2232 C 0.62144 0.81971 0.16924 0.0
C2233 C 0.65904 0.84281 0.16409 0.0
C2234 C 0.67613 0.85467 0.15322 0.0
C2235 C 0.62782 0.82216 0.18535 0.0
C2236 C 0.65012 0.83489 0.19085 0.0
C2237 C 0.66543 0.84517 0.1802 0.0
C2238 C 0.65799 0.83648 0.20748 0.0
C2239 C 0.61079 0.81037 0.19629 0.0
C2240 C 0.65252 0.84665 0.21937 0.0
C2241 C 0.65909 0.84693 0.2351 0.0
C2242 C 0.67129 0.83708 0.23919 0.0
C2243 C 0.67713 0.82736 0.22716 0.0
C2244 C 0.67061 0.82714 0.21147 0.0
H2245 H 0.59488 0.7983 0.18984 0.0
H2246 H 0.61617 0.80198 0.20434 0.0
H2247 H 0.60839 0.82219 0.20354 0.0
H2248 H 0.64303 0.85421 0.21647 0.0
H2249 H 0.65459 0.85482 0.24406 0.0
H2250 H 0.19618 0.79578 0.10801 0.0
H2251 H 0.18807 0.80193 0.13447 0.0
H2252 H 0.25576 0.83016 0.15143 0.0
H2253 H 0.26403 0.82382 0.12503 0.0
H2254 H 0.1959 0.78589 0.16214 0.0
H2255 H 0.24003 0.87564 0.16734 0.0
H2256 H 0.23306 0.85946 0.14873 0.0
H2257 H 0.25568 0.8634 0.16177 0.0
C2258 C 0.20935 0.8032 0.11737 0.0
C2259 C 0.23077 0.80932 0.11439 0.0
C2260 C 0.20469 0.8068 0.13247 0.0
C2261 C 0.22135 0.81672 0.14486 0.0
C2262 C 0.24274 0.82286 0.14196 0.0
H2263 H 0.22091 0.85115 0.24389 0.0
H2264 H 0.23119 0.84491 0.21823 0.0
C2265 C 0.24743 0.81924 0.12686 0.0
C2266 C 0.21614 0.82005 0.16088 0.0
H2267 H 0.22497 0.85898 0.18994 0.0
C2268 C 0.20222 0.80186 0.16823 0.0
C2269 C 0.22452 0.8409 0.1688 0.0
C2270 C 0.23902 0.86102 0.16125 0.0
C2271 C 0.19654 0.80394 0.18335 0.0
C2272 C 0.20465 0.82481 0.19119 0.0
C2273 C 0.21877 0.843 0.18391 0.0
C2274 C 0.19831 0.82813 0.20681 0.0
C2275 C 0.18218 0.78376 0.19089 0.0
C2276 C 0.17644 0.82092 0.20887 0.0
C2277 C 0.17049 0.82431 0.22354 0.0
C2278 C 0.18632 0.83514 0.23643 0.0
C2279 C 0.20826 0.84247 0.23428 0.0
C2280 C 0.21419 0.83905 0.2196 0.0
H2281 H 0.18251 0.76951 0.18542 0.0
H2282 H 0.18723 0.78579 0.20365 0.0
H2283 H 0.16515 0.78034 0.18936 0.0
H2284 H 0.16396 0.81282 0.19909 0.0
H2285 H 0.15344 0.8183 0.22479 0.0
H2286 H 0.25128 0.44798 0.13675 0.0
H2287 H 0.24436 0.43163 0.16159 0.0
H2288 H 0.17812 0.38661 0.14297 0.0
H2289 H 0.18505 0.40236 0.11803 0.0
H2290 H 0.21403 0.42887 0.18164 0.0
H2291 H 0.19782 0.34711 0.16088 0.0
H2292 H 0.21062 0.36975 0.14943 0.0
H2293 H 0.18156 0.35533 0.14973 0.0
C2294 C 0.23535 0.43436 0.13786 0.0
C2295 C 0.21872 0.42648 0.1254 0.0
C2296 C 0.23139 0.42512 0.15209 0.0
C2297 C 0.21081 0.40772 0.15407 0.0
C2298 C 0.19424 0.39976 0.14162 0.0
H2299 H 0.14313 0.33428 0.2285 0.0
H2300 H 0.15475 0.35046 0.20404 0.0
C2301 C 0.19817 0.40896 0.12743 0.0
C2302 C 0.20626 0.39847 0.16935 0.0
H2303 H 0.18737 0.35123 0.18621 0.0
C2304 C 0.20844 0.41195 0.1827 0.0
C2305 C 0.19894 0.37639 0.17069 0.0
C2306 C 0.19728 0.36133 0.15695 0.0
C2307 C 0.20278 0.40378 0.19723 0.0
C2308 C 0.19503 0.3816 0.19849 0.0
C2309 C 0.19322 0.36821 0.1852 0.0
C2310 C 0.18824 0.37186 0.21339 0.0
C2311 C 0.20443 0.41879 0.211 0.0
C2312 C 0.20328 0.37835 0.22671 0.0
C2313 C 0.19672 0.36905 0.24071 0.0
C2314 C 0.17499 0.35297 0.24163 0.0
C2315 C 0.16003 0.34641 0.22818 0.0
C2316 C 0.16661 0.35571 0.2142 0.0
H2317 H 0.20591 0.43399 0.20727 0.0
H2318 H 0.18999 0.41085 0.21765 0.0
H2319 H 0.21907 0.42306 0.21906 0.0
H2320 H 0.22015 0.39048 0.22625 0.0
H2321 H 0.20876 0.37421 0.25074 0.0
H2322 H 0.8145 0.59809 0.90985 0.0
H2323 H 0.82298 0.61422 0.88504 0.0
H2324 H 0.75554 0.57537 0.86676 0.0
H2325 H 0.74692 0.55902 0.89147 0.0
H2326 H 0.81663 0.59365 0.85481 0.0
H2327 H 0.76994 0.63658 0.85854 0.0
H2328 H 0.7765 0.62596 0.87524 0.0
H2329 H 0.75448 0.60823 0.86071 0.0
C2330 C 0.80148 0.59289 0.90053 0.0
C2331 C 0.78001 0.5773 0.90268 0.0
C2332 C 0.80634 0.6022 0.88639 0.0
C2333 C 0.78985 0.59623 0.87414 0.0
C2334 C 0.76844 0.58057 0.87618 0.0
H2335 H 0.78879 0.63433 0.77979 0.0
H2336 H 0.77935 0.61704 0.80411 0.0
C2337 C 0.76355 0.57125 0.89032 0.0
C2338 C 0.79519 0.60602 0.85911 0.0
H2339 H 0.78489 0.63646 0.83462 0.0
C2340 C 0.80976 0.60307 0.85041 0.0
C2341 C 0.78613 0.61825 0.85337 0.0
C2342 C 0.77104 0.62265 0.86249 0.0
C2343 C 0.81532 0.61179 0.83604 0.0
C2344 C 0.80637 0.62412 0.83035 0.0
C2345 C 0.79171 0.62698 0.839 0.0
C2346 C 0.81222 0.63442 0.81554 0.0
C2347 C 0.83041 0.60738 0.82693 0.0
C2348 C 0.83379 0.65009 0.81395 0.0
C2349 C 0.83927 0.65991 0.80004 0.0
C2350 C 0.82324 0.65436 0.78745 0.0
C2351 C 0.80159 0.63876 0.78915 0.0
C2352 C 0.79614 0.62896 0.80308 0.0
H2353 H 0.83113 0.59316 0.83068 0.0
H2354 H 0.82524 0.60451 0.81415 0.0
H2355 H 0.84708 0.6216 0.829 0.0
H2356 H 0.84641 0.65483 0.82352 0.0
H2357 H 0.85611 0.67171 0.79911 0.0
H2358 H 0.38946 0.21196 0.924 0.0
H2359 H 0.37729 0.20656 0.89602 0.0
H2360 H 0.41645 0.17757 0.88656 0.0
H2361 H 0.42953 0.18385 0.91435 0.0
H2362 H 0.42067 0.20633 0.86595 0.0
H2363 H 0.33338 0.14986 0.87114 0.0
H2364 H 0.34417 0.17521 0.88292 0.0
H2365 H 0.35426 0.15731 0.88709 0.0
C2366 C 0.39562 0.20458 0.91596 0.0
C2367 C 0.41036 0.1982 0.92145 0.0
C2368 C 0.38843 0.20126 0.89999 0.0
C2369 C 0.39565 0.19129 0.88926 0.0
C2370 C 0.41053 0.18512 0.89467 0.0
H2371 H 0.3375 0.13615 0.79438 0.0
H2372 H 0.35117 0.14269 0.82214 0.0
C2373 C 0.41782 0.18855 0.91059 0.0
C2374 C 0.38805 0.1876 0.87232 0.0
H2375 H 0.34251 0.16247 0.84619 0.0
C2376 C 0.40358 0.1967 0.86161 0.0
C2377 C 0.36578 0.17478 0.86669 0.0
C2378 C 0.34843 0.16354 0.87753 0.0
C2379 C 0.39745 0.1935 0.8454 0.0
C2380 C 0.37513 0.18127 0.83981 0.0
C2381 C 0.35961 0.17201 0.85052 0.0
C2382 C 0.36747 0.17753 0.82288 0.0
C2383 C 0.41497 0.20284 0.83442 0.0
C2384 C 0.37203 0.19495 0.81411 0.0
C2385 C 0.36433 0.19125 0.79823 0.0
C2386 C 0.35166 0.17006 0.79092 0.0
C2387 C 0.34706 0.15265 0.79975 0.0
C2388 C 0.3549 0.15636 0.81558 0.0
H2389 H 0.43098 0.20634 0.8401 0.0
H2390 H 0.41078 0.19166 0.82362 0.0
H2391 H 0.41672 0.21824 0.83097 0.0
H2392 H 0.38124 0.21139 0.8196 0.0
H2393 H 0.36784 0.20496 0.79177 0.0
H2394 H 0.80011 0.23638 0.89715 0.0
H2395 H 0.80614 0.22699 0.87079 0.0
H2396 H 0.78935 0.16341 0.88288 0.0
H2397 H 0.78348 0.17279 0.90941 0.0
H2398 H 0.82949 0.1859 0.86934 0.0
H2399 H 0.76185 0.18591 0.83384 0.0
H2400 H 0.77751 0.2095 0.84757 0.0
H2401 H 0.76197 0.18354 0.85468 0.0
C2402 C 0.79757 0.22035 0.89417 0.0
C2403 C 0.79137 0.20533 0.90535 0.0
C2404 C 0.80083 0.21495 0.87907 0.0
C2405 C 0.79796 0.19443 0.87484 0.0
C2406 C 0.79148 0.17927 0.88589 0.0
H2407 H 0.80923 0.15401 0.77896 0.0
H2408 H 0.79595 0.15463 0.80458 0.0
C2409 C 0.78804 0.18461 0.90099 0.0
C2410 C 0.8032 0.18948 0.85924 0.0
H2411 H 0.79062 0.18741 0.81994 0.0
C2412 C 0.82084 0.18596 0.85852 0.0
C2413 C 0.79175 0.18936 0.84517 0.0
C2414 C 0.77208 0.19208 0.84528 0.0
C2415 C 0.82791 0.18322 0.84409 0.0
C2416 C 0.81718 0.18426 0.83005 0.0
C2417 C 0.79895 0.18683 0.83073 0.0
C2418 C 0.82522 0.18364 0.8146 0.0
C2419 C 0.84691 0.17941 0.84401 0.0
C2420 C 0.84593 0.19991 0.81168 0.0
C2421 C 0.8535 0.19968 0.79708 0.0
C2422 C 0.84047 0.1832 0.78503 0.0
C2423 C 0.81962 0.167 0.78794 0.0
C2424 C 0.81204 0.16727 0.80259 0.0
H2425 H 0.84929 0.17306 0.855 0.0
H2426 H 0.84464 0.16787 0.83388 0.0
H2427 H 0.86196 0.19494 0.84305 0.0
H2428 H 0.85615 0.21299 0.82066 0.0
H2429 H 0.86942 0.21268 0.79514 0.0
H2430 H 0.30408 0.13622 0.44134 0.0
H2431 H 0.31726 0.1464 0.46919 0.0
H2432 H 0.27428 0.17188 0.47494 0.0
H2433 H 0.26035 0.16097 0.44723 0.0
H2434 H 0.33699 0.18632 0.48731 0.0
H2435 H 0.25754 0.12858 0.50763 0.0
H2436 H 0.26314 0.12743 0.48748 0.0
H2437 H 0.25681 0.14736 0.49501 0.0
C2438 C 0.29731 0.14386 0.44855 0.0
C2439 C 0.28097 0.14755 0.4421 0.0
C2440 C 0.30499 0.14983 0.46442 0.0
C2441 C 0.29649 0.15957 0.47416 0.0
C2442 C 0.28077 0.16402 0.46768 0.0
H2443 H 0.31974 0.18803 0.57649 0.0
H2444 H 0.30904 0.18814 0.54885 0.0
C2445 C 0.27301 0.15799 0.4518 0.0
C2446 C 0.30374 0.16449 0.49118 0.0
H2447 H 0.28622 0.15058 0.52712 0.0
C2448 C 0.32588 0.17861 0.49603 0.0
C2449 C 0.28919 0.15442 0.50252 0.0
C2450 C 0.26537 0.13846 0.49795 0.0
C2451 C 0.33391 0.18273 0.51193 0.0
C2452 C 0.31945 0.17225 0.52321 0.0
C2453 C 0.29723 0.15864 0.51842 0.0
C2454 C 0.32723 0.17382 0.53987 0.0
C2455 C 0.35781 0.19818 0.51654 0.0
C2456 C 0.3409 0.16565 0.54392 0.0
C2457 C 0.34685 0.16534 0.55965 0.0
C2458 C 0.3392 0.17318 0.57167 0.0
C2459 C 0.32575 0.18168 0.56755 0.0
C2460 C 0.31973 0.18189 0.55177 0.0
H2461 H 0.36534 0.20933 0.50744 0.0
H2462 H 0.36046 0.20789 0.52787 0.0
H2463 H 0.36629 0.18884 0.51795 0.0
H2464 H 0.34643 0.15886 0.53491 0.0
H2465 H 0.35681 0.15823 0.56235 0.0
H2466 H 0.92879 0.158 0.45782 0.0
H2467 H 0.91989 0.16373 0.48414 0.0
H2468 H 0.85219 0.13395 0.46671 0.0
H2469 H 0.86092 0.12842 0.44033 0.0
H2470 H 0.89868 0.18659 0.49429 0.0
H2471 H 0.85221 0.09977 0.50381 0.0
H2472 H 0.87019 0.10957 0.48856 0.0
H2473 H 0.84352 0.10644 0.48596 0.0
C2474 C 0.91203 0.15286 0.45954 0.0
C2475 C 0.89555 0.14263 0.44697 0.0
C2476 C 0.90697 0.15605 0.47461 0.0
C2477 C 0.88535 0.14894 0.4774 0.0
C2478 C 0.86892 0.13912 0.46485 0.0
H2479 H 0.81783 0.14976 0.55756 0.0
H2480 H 0.82859 0.14525 0.53172 0.0
C2481 C 0.87395 0.13596 0.44979 0.0
C2482 C 0.87995 0.15195 0.49342 0.0
H2483 H 0.85075 0.12442 0.52268 0.0
C2484 C 0.88831 0.17303 0.50056 0.0
C2485 C 0.86642 0.1342 0.50153 0.0
C2486 C 0.85769 0.1112 0.49467 0.0
C2487 C 0.88303 0.17686 0.51547 0.0
C2488 C 0.86937 0.15909 0.52355 0.0
C2489 C 0.86118 0.13801 0.51645 0.0
C2490 C 0.86307 0.16199 0.53928 0.0
C2491 C 0.89159 0.19987 0.52223 0.0
C2492 C 0.87886 0.17266 0.55216 0.0
C2493 C 0.87278 0.17543 0.56693 0.0
C2494 C 0.85074 0.16745 0.56913 0.0
C2495 C 0.83495 0.15644 0.55623 0.0
C2496 C 0.84106 0.15371 0.54148 0.0
H2497 H 0.89703 0.21123 0.51304 0.0
H2498 H 0.87902 0.20146 0.52826 0.0
H2499 H 0.90577 0.20478 0.53096 0.0
H2500 H 0.8959 0.17881 0.55079 0.0
H2501 H 0.88537 0.18411 0.57656 0.0
H2502 H 0.85231 0.73606 0.4514 0.0
H2503 H 0.84493 0.72101 0.4766 0.0
H2504 H 0.91081 0.76671 0.49558 0.0
H2505 H 0.91817 0.78235 0.47048 0.0
H2506 H 0.86497 0.7025 0.49369 0.0
H2507 H 0.87435 0.77593 0.5271 0.0
H2508 H 0.87167 0.77237 0.50594 0.0
H2509 H 0.89717 0.78002 0.51687 0.0
C2510 C 0.8652 0.74305 0.46096 0.0
C2511 C 0.88577 0.76058 0.45897 0.0
C2512 C 0.86099 0.73432 0.47533 0.0
C2513 C 0.8772 0.74296 0.48804 0.0
C2514 C 0.89794 0.76006 0.486 0.0
H2515 H 0.87254 0.71026 0.58473 0.0
H2516 H 0.88421 0.72612 0.56014 0.0
C2517 C 0.90219 0.76882 0.47161 0.0
C2518 C 0.87219 0.734 0.50338 0.0
H2519 H 0.8676 0.74651 0.54147 0.0
C2520 C 0.86557 0.71212 0.50415 0.0
C2521 C 0.87303 0.7466 0.51701 0.0
C2522 C 0.87925 0.76999 0.51675 0.0
C2523 C 0.85978 0.70249 0.51818 0.0
C2524 C 0.86025 0.71499 0.53174 0.0
C2525 C 0.86723 0.73696 0.53105 0.0
C2526 C 0.85309 0.70544 0.54665 0.0
C2527 C 0.85341 0.67907 0.51841 0.0
C2528 C 0.83161 0.68883 0.5473 0.0
C2529 C 0.82484 0.67981 0.56134 0.0
C2530 C 0.8394 0.68732 0.57507 0.0
C2531 C 0.86084 0.70423 0.57443 0.0
C2532 C 0.86758 0.71324 0.56037 0.0
H2533 H 0.85953 0.67355 0.50858 0.0
H2534 H 0.85974 0.67629 0.52964 0.0
H2535 H 0.83541 0.66898 0.51718 0.0
H2536 H 0.82 0.68293 0.53694 0.0
H2537 H 0.80812 0.66712 0.56147 0.0
loop_
_geom_bond_atom_site_label_1
_geom_bond_atom_site_label_2
_geom_bond_distance
_geom_bond_site_symmetry_2
_ccdc_geom_bond_type
H0 C7 0.929 . S
H1 C10 0.930 . S
H2 C12 0.929 . S
H3 C4 0.969 . S
C4 H3 0.969 . S
C4 O5 1.550 . S
C4 H6 0.973 . S
O5 C4 1.550 . S
O5 C11 1.412 . S
H6 C4 0.973 . S
C7 H0 0.929 . S
C7 C8 1.400 . S
C7 C9 1.364 . S
C8 C7 1.400 . S
C8 C12 1.377 . S
C9 C7 1.364 . S
C9 C10 1.374 . S
C10 H1 0.930 . S
C10 C9 1.374 . S
C10 C11 1.383 . S
C11 O5 1.412 . S
C11 C10 1.383 . S
C11 C12 1.394 . S
C12 H2 0.929 . S
C12 C8 1.377 . S
C12 C11 1.394 . S
H13 C20 0.929 . S
H14 C23 0.930 . S
H15 C25 0.929 . S
H16 C17 0.969 . S
C17 H16 0.969 . S
C17 O18 1.550 . S
C17 H19 0.973 . S
O18 C17 1.550 . S
O18 C24 1.412 . S
H19 C17 0.973 . S
C20 H13 0.929 . S
C20 C21 1.400 . S
C20 C22 1.364 . S
C21 C20 1.400 . S
C21 C25 1.377 . S
C22 C20 1.364 . S
C22 C23 1.374 . S
C23 H14 0.930 . S
C23 C22 1.374 . S
C23 C24 1.383 . S
C24 O18 1.412 . S
C24 C23 1.383 . S
C24 C25 1.394 . S
C25 H15 0.929 . S
C25 C21 1.377 . S
C25 C24 1.394 . S
H26 C33 0.929 . S
H27 C36 0.930 . S
H28 C38 0.929 . S
H29 C30 0.969 . S
C30 H29 0.969 . S
C30 O31 1.550 . S
C30 H32 0.973 . S
O31 C30 1.550 . S
O31 C37 1.412 . S
H32 C30 0.973 . S
C33 H26 0.929 . S
C33 C34 1.400 . S
C33 C35 1.364 . S
C34 C33 1.400 . S
C34 C38 1.377 . S
C35 C33 1.364 . S
C35 C36 1.374 . S
C36 H27 0.930 . S
C36 C35 1.374 . S
C36 C37 1.383 . S
C37 O31 1.412 . S
C37 C36 1.383 . S
C37 C38 1.394 . S
C38 H28 0.929 . S
C38 C34 1.377 . S
C38 C37 1.394 . S
H39 C46 0.929 . S
H40 C49 0.930 . S
H41 C51 0.929 . S
H42 C43 0.969 . S
C43 H42 0.969 . S
C43 O44 1.550 . S
C43 H45 0.973 . S
O44 C43 1.550 . S
O44 C50 1.412 . S
H45 C43 0.973 . S
C46 H39 0.929 . S
C46 C47 1.400 . S
C46 C48 1.364 . S
C47 C46 1.400 . S
C47 C51 1.377 . S
C48 C46 1.364 . S
C48 C49 1.374 . S
C49 H40 0.930 . S
C49 C48 1.374 . S
C49 C50 1.383 . S
C50 O44 1.412 . S
C50 C49 1.383 . S
C50 C51 1.394 . S
C51 H41 0.929 . S
C51 C47 1.377 . S
C51 C50 1.394 . S
H52 C59 0.929 . S
H53 C62 0.930 . S
H54 C64 0.929 . S
H55 C56 0.969 . S
C56 H55 0.969 . S
C56 O57 1.550 . S
C56 H58 0.973 . S
O57 C56 1.550 . S
O57 C63 1.412 . S
H58 C56 0.973 . S
C59 H52 0.929 . S
C59 C60 1.400 . S
C59 C61 1.364 . S
C60 C59 1.400 . S
C60 C64 1.377 . S
C61 C59 1.364 . S
C61 C62 1.374 . S
C62 H53 0.930 . S
C62 C61 1.374 . S
C62 C63 1.383 . S
C63 O57 1.412 . S
C63 C62 1.383 . S
C63 C64 1.394 . S
C64 H54 0.929 . S
C64 C60 1.377 . S
C64 C63 1.394 . S
H65 C72 0.929 . S
H66 C75 0.930 . S
H67 C77 0.929 . S
H68 C69 0.969 . S
C69 H68 0.969 . S
C69 O70 1.550 . S
C69 H71 0.973 . S
O70 C69 1.550 . S
O70 C76 1.412 . S
H71 C69 0.973 . S
C72 H65 0.929 . S
C72 C73 1.400 . S
C72 C74 1.364 . S
C73 C72 1.400 . S
C73 C77 1.377 . S
C74 C72 1.364 . S
C74 C75 1.374 . S
C75 H66 0.930 . S
C75 C74 1.374 . S
C75 C76 1.383 . S
C76 O70 1.412 . S
C76 C75 1.383 . S
C76 C77 1.394 . S
C77 H67 0.929 . S
C77 C73 1.377 . S
C77 C76 1.394 . S
H78 C85 0.929 . S
H79 C88 0.930 . S
H80 C90 0.929 . S
H81 C82 0.969 . S
C82 H81 0.969 . S
C82 O83 1.550 . S
C82 H84 0.973 . S
O83 C82 1.550 . S
O83 C89 1.412 . S
H84 C82 0.973 . S
C85 H78 0.929 . S
C85 C86 1.400 . S
C85 C87 1.364 . S
C86 C85 1.400 . S
C86 C90 1.377 . S
C87 C85 1.364 . S
C87 C88 1.374 . S
C88 H79 0.930 . S
C88 C87 1.374 . S
C88 C89 1.383 . S
C89 O83 1.412 . S
C89 C88 1.383 . S
C89 C90 1.394 . S
C90 H80 0.929 . S
C90 C86 1.377 . S
C90 C89 1.394 . S
H91 C98 0.929 . S
H92 C101 0.930 . S
H93 C103 0.929 . S
H94 C95 0.969 . S
C95 H94 0.969 . S
C95 O96 1.550 . S
C95 H97 0.973 . S
O96 C95 1.550 . S
O96 C102 1.412 . S
H97 C95 0.973 . S
C98 H91 0.929 . S
C98 C99 1.400 . S
C98 C100 1.364 . S
C99 C98 1.400 . S
C99 C103 1.377 . S
C100 C98 1.364 . S
C100 C101 1.374 . S
C101 H92 0.930 . S
C101 C100 1.374 . S
C101 C102 1.383 . S
C102 O96 1.412 . S
C102 C101 1.383 . S
C102 C103 1.394 . S
C103 H93 0.929 . S
C103 C99 1.377 . S
C103 C102 1.394 . S
H104 C111 0.929 . S
H105 C114 0.930 . S
H106 C116 0.929 . S
H107 C108 0.969 . S
C108 H107 0.969 . S
C108 O109 1.550 . S
C108 H110 0.973 . S
O109 C108 1.550 . S
O109 C115 1.412 . S
H110 C108 0.973 . S
C111 H104 0.929 . S
C111 C112 1.400 . S
C111 C113 1.364 . S
C112 C111 1.400 . S
C112 C116 1.377 . S
C113 C111 1.364 . S
C113 C114 1.374 . S
C114 H105 0.930 . S
C114 C113 1.374 . S
C114 C115 1.383 . S
C115 O109 1.412 . S
C115 C114 1.383 . S
C115 C116 1.394 . S
C116 H106 0.929 . S
C116 C112 1.377 . S
C116 C115 1.394 . S
H117 C124 0.929 . S
H118 C127 0.930 . S
H119 C129 0.929 . S
H120 C121 0.969 . S
C121 H120 0.969 . S
C121 O122 1.550 . S
C121 H123 0.973 . S
O122 C121 1.550 . S
O122 C128 1.412 . S
H123 C121 0.973 . S
C124 H117 0.929 . S
C124 C125 1.400 . S
C124 C126 1.364 . S
C125 C124 1.400 . S
C125 C129 1.377 . S
C126 C124 1.364 . S
C126 C127 1.374 . S
C127 H118 0.930 . S
C127 C126 1.374 . S
C127 C128 1.383 . S
C128 O122 1.412 . S
C128 C127 1.383 . S
C128 C129 1.394 . S
C129 H119 0.929 . S
C129 C125 1.377 . S
C129 C128 1.394 . S
H130 C137 0.929 . S
H131 C140 0.930 . S
H132 C142 0.929 . S
H133 C134 0.969 . S
C134 H133 0.969 . S
C134 O135 1.550 . S
C134 H136 0.973 . S
O135 C134 1.550 . S
O135 C141 1.412 . S
H136 C134 0.973 . S
C137 H130 0.929 . S
C137 C138 1.400 . S
C137 C139 1.364 . S
C138 C137 1.400 . S
C138 C142 1.377 . S
C139 C137 1.364 . S
C139 C140 1.374 . S
C140 H131 0.930 . S
C140 C139 1.374 . S
C140 C141 1.383 . S
C141 O135 1.412 . S
C141 C140 1.383 . S
C141 C142 1.394 . S
C142 H132 0.929 . S
C142 C138 1.377 . S
C142 C141 1.394 . S
H143 C150 0.929 . S
H144 C153 0.930 . S
H145 C155 0.929 . S
H146 C147 0.969 . S
C147 H146 0.969 . S
C147 O148 1.550 . S
C147 H149 0.973 . S
O148 C147 1.550 . S
O148 C154 1.412 . S
H149 C147 0.973 . S
C150 H143 0.929 . S
C150 C151 1.400 . S
C150 C152 1.364 . S
C151 C150 1.400 . S
C151 C155 1.377 . S
C152 C150 1.364 . S
C152 C153 1.374 . S
C153 H144 0.930 . S
C153 C152 1.374 . S
C153 C154 1.383 . S
C154 O148 1.412 . S
C154 C153 1.383 . S
C154 C155 1.394 . S
C155 H145 0.929 . S
C155 C151 1.377 . S
C155 C154 1.394 . S
H156 C163 0.929 . S
H157 C166 0.930 . S
H158 C168 0.929 . S
H159 C160 0.969 . S
C160 H159 0.969 . S
C160 O161 1.550 . S
C160 H162 0.973 . S
O161 C160 1.550 . S
O161 C167 1.412 . S
H162 C160 0.973 . S
C163 H156 0.929 . S
C163 C164 1.400 . S
C163 C165 1.364 . S
C164 C163 1.400 . S
C164 C168 1.377 . S
C165 C163 1.364 . S
C165 C166 1.374 . S
C166 H157 0.930 . S
C166 C165 1.374 . S
C166 C167 1.383 . S
C167 O161 1.412 . S
C167 C166 1.383 . S
C167 C168 1.394 . S
C168 H158 0.929 . S
C168 C164 1.377 . S
C168 C167 1.394 . S
H169 C176 0.929 . S
H170 C179 0.930 . S
H171 C181 0.929 . S
H172 C173 0.969 . S
C173 H172 0.969 . S
C173 O174 1.550 . S
C173 H175 0.973 . S
O174 C173 1.550 . S
O174 C180 1.412 . S
H175 C173 0.973 . S
C176 H169 0.929 . S
C176 C177 1.400 . S
C176 C178 1.364 . S
C177 C176 1.400 . S
C177 C181 1.377 . S
C178 C176 1.364 . S
C178 C179 1.374 . S
C179 H170 0.930 . S
C179 C178 1.374 . S
C179 C180 1.383 . S
C180 O174 1.412 . S
C180 C179 1.383 . S
C180 C181 1.394 . S
C181 H171 0.929 . S
C181 C177 1.377 . S
C181 C180 1.394 . S
H182 C189 0.929 . S
H183 C192 0.930 . S
H184 C194 0.929 . S
H185 C186 0.969 . S
C186 H185 0.969 . S
C186 O187 1.550 . S
C186 H188 0.973 . S
O187 C186 1.550 . S
O187 C193 1.412 . S
H188 C186 0.973 . S
C189 H182 0.929 . S
C189 C190 1.400 . S
C189 C191 1.364 . S
C190 C189 1.400 . S
C190 C194 1.377 . S
C191 C189 1.364 . S
C191 C192 1.374 . S
C192 H183 0.930 . S
C192 C191 1.374 . S
C192 C193 1.383 . S
C193 O187 1.412 . S
C193 C192 1.383 . S
C193 C194 1.394 . S
C194 H184 0.929 . S
C194 C190 1.377 . S
C194 C193 1.394 . S
H195 C202 0.929 . S
H196 C205 0.930 . S
H197 C207 0.929 . S
H198 C199 0.969 . S
C199 H198 0.969 . S
C199 O200 1.550 . S
C199 H201 0.973 . S
O200 C199 1.550 . S
O200 C206 1.412 . S
H201 C199 0.973 . S
C202 H195 0.929 . S
C202 C203 1.400 . S
C202 C204 1.364 . S
C203 C202 1.400 . S
C203 C207 1.377 . S
C204 C202 1.364 . S
C204 C205 1.374 . S
C205 H196 0.930 . S
C205 C204 1.374 . S
C205 C206 1.383 . S
C206 O200 1.412 . S
C206 C205 1.383 . S
C206 C207 1.394 . S
C207 H197 0.929 . S
C207 C203 1.377 . S
C207 C206 1.394 . S
H208 C215 0.929 . S
H209 C218 0.930 . S
H210 C220 0.929 . S
H211 C212 0.969 . S
C212 H211 0.969 . S
C212 O213 1.550 . S
C212 H214 0.973 . S
O213 C212 1.550 . S
O213 C219 1.412 . S
H214 C212 0.973 . S
C215 H208 0.929 . S
C215 C216 1.400 . S
C215 C217 1.364 . S
C216 C215 1.400 . S
C216 C220 1.377 . S
C217 C215 1.364 . S
C217 C218 1.374 . S
C218 H209 0.930 . S
C218 C217 1.374 . S
C218 C219 1.383 . S
C219 O213 1.412 . S
C219 C218 1.383 . S
C219 C220 1.394 . S
C220 H210 0.929 . S
C220 C216 1.377 . S
C220 C219 1.394 . S
H221 C228 0.929 . S
H222 C231 0.930 . S
H223 C233 0.929 . S
H224 C225 0.969 . S
C225 H224 0.969 . S
C225 O226 1.550 . S
C225 H227 0.973 . S
O226 C225 1.550 . S
O226 C232 1.412 . S
H227 C225 0.973 . S
C228 H221 0.929 . S
C228 C229 1.400 . S
C228 C230 1.364 . S
C229 C228 1.400 . S
C229 C233 1.377 . S
C230 C228 1.364 . S
C230 C231 1.374 . S
C231 H222 0.930 . S
C231 C230 1.374 . S
C231 C232 1.383 . S
C232 O226 1.412 . S
C232 C231 1.383 . S
C232 C233 1.394 . S
C233 H223 0.929 . S
C233 C229 1.377 . S
C233 C232 1.394 . S
Eu234 C243 2.828 1_565 S
Eu234 O245 2.392 1_556 S
Eu234 O247 2.418 . S
Eu234 O252 2.373 1_565 S
Eu234 O255 2.488 . S
Eu234 O256 2.471 1_565 S
Eu234 O257 2.349 1_566 S
Eu235 O244 2.373 1_545 S
Eu235 O248 2.488 . S
Eu235 O249 2.471 1_545 S
Eu235 O250 2.349 1_545 S
Eu235 O253 2.392 . S
Eu235 O254 2.418 . S
Eu235 C264 2.828 . S
C236 O254 1.244 . S
C236 O257 1.265 . S
C237 C238 1.379 . S
C237 C241 1.373 . S
C237 C243 1.505 . S
C238 C237 1.379 . S
C238 C240 1.369 . S
C238 H266 0.930 . S
C239 C241 1.383 . S
C239 C242 1.382 . S
C239 H267 0.927 . S
C240 C238 1.369 . S
C240 C242 1.392 . S
C240 H268 0.930 . S
C241 C237 1.373 . S
C241 C239 1.383 . S
C241 H269 0.931 1_545 S
C242 C239 1.382 . S
C242 C240 1.392 . S
C243 Eu234 2.828 1_545 S
C243 C237 1.505 . S
C243 O255 1.249 1_545 S
C243 O256 1.244 . S
O244 Eu235 2.373 1_565 S
O244 C246 1.258 . S
O245 Eu234 2.392 1_554 S
O245 C246 1.242 . S
C246 O244 1.258 . S
C246 O245 1.242 . S
O247 Eu234 2.418 . S
O247 C251 1.244 1_556 S
O248 Eu235 2.488 . S
O248 C264 1.249 . S
O249 Eu235 2.471 1_565 S
O249 C264 1.244 1_565 S
O250 Eu235 2.349 1_565 S
O250 C251 1.265 . S
C251 O247 1.244 1_554 S
C251 O250 1.265 . S
O252 Eu234 2.373 1_545 S
O252 C265 1.258 1_556 S
O253 Eu235 2.392 . S
O253 C265 1.242 . S
O254 Eu235 2.418 . S
O254 C236 1.244 . S
O255 Eu234 2.488 . S
O255 C243 1.249 1_565 S
O256 Eu234 2.471 1_545 S
O256 C243 1.244 . S
O257 Eu234 2.349 1_544 S
O257 C236 1.265 . S
C258 C259 1.379 . S
C258 C262 1.373 1_565 S
C258 C264 1.505 1_565 S
C259 C258 1.379 . S
C259 C261 1.369 . S
C259 H270 0.930 . S
C260 C262 1.400 . S
C260 C263 1.323 1_545 S
C260 H271 0.975 . S
C261 C259 1.369 . S
C261 C263 1.392 . S
C261 H272 0.930 . S
C262 C258 1.373 1_545 S
C262 C260 1.400 . S
C262 H273 0.931 . S
C263 C260 1.323 1_565 S
C263 C261 1.392 . S
C264 Eu235 2.828 . S
C264 O248 1.249 . S
C264 O249 1.244 1_545 S
C264 C258 1.505 1_545 S
C265 O252 1.258 1_554 S
C265 O253 1.242 . S
H266 C238 0.930 . S
H267 C239 0.927 . S
H268 C240 0.930 . S
H269 C241 0.931 1_565 S
H270 C259 0.930 . S
H271 C260 0.975 . S
H272 C261 0.930 . S
H273 C262 0.931 . S
Eu274 C283 2.828 . S
Eu274 O285 2.392 1_556 S
Eu274 O287 2.428 . S
Eu274 O292 2.373 1_455 S
Eu274 O295 2.488 . S
Eu274 O296 2.471 1_455 S
Eu274 O297 2.349 1_456 S
Eu275 O284 2.373 1_655 S
Eu275 O288 2.488 . S
Eu275 O289 2.471 1_655 S
Eu275 O290 2.349 1_655 S
Eu275 O293 2.392 . S
Eu275 O294 2.418 . S
Eu275 C304 2.828 1_655 S
C276 O294 1.244 . S
C276 O297 1.265 . S
C277 C278 1.379 . S
C277 C281 1.373 1_655 S
C277 C283 1.505 1_655 S
C278 C277 1.379 . S
C278 C280 1.369 . S
C278 H306 0.930 . S
C279 C281 1.383 1_655 S
C279 C282 1.382 . S
C279 H307 0.930 1_655 S
C280 C278 1.369 . S
C280 C282 1.392 . S
C280 H308 0.930 . S
C281 C277 1.373 1_455 S
C281 C279 1.383 1_455 S
C281 H309 0.931 . S
C282 C279 1.382 . S
C282 C280 1.392 . S
C283 Eu274 2.828 . S
C283 C277 1.505 1_455 S
C283 O295 1.249 . S
C283 O296 1.244 1_455 S
O284 Eu275 2.373 1_455 S
O284 C286 1.258 . S
O285 Eu274 2.392 1_554 S
O285 C286 1.242 . S
C286 O284 1.258 . S
C286 O285 1.242 . S
O287 Eu274 2.428 . S
O287 C291 1.202 1_556 S
O288 Eu275 2.488 . S
O288 C304 1.249 1_655 S
O289 Eu275 2.471 1_455 S
O289 C304 1.244 . S
O290 Eu275 2.349 1_455 S
O290 C291 1.265 . S
C291 O287 1.202 1_554 S
C291 O290 1.265 . S
O292 Eu274 2.373 1_655 S
O292 C305 1.258 . S
O293 Eu275 2.392 . S
O293 C305 1.242 1_554 S
O294 Eu275 2.418 . S
O294 C276 1.244 . S
O295 Eu274 2.488 . S
O295 C283 1.249 . S
O296 Eu274 2.471 1_655 S
O296 C283 1.244 1_655 S
O297 Eu274 2.349 1_654 S
O297 C276 1.265 . S
C298 C299 1.379 . S
C298 C302 1.373 . S
C298 C304 1.505 . S
C299 C298 1.379 . S
C299 C301 1.369 . S
C299 H310 0.930 . S
C300 C302 1.383 . S
C300 C303 1.382 . S
C300 H311 0.930 . S
C301 C299 1.369 . S
C301 C303 1.392 . S
C301 H312 0.930 . S
C302 C298 1.373 . S
C302 C300 1.383 . S
C302 H313 0.931 1_455 S
C303 C300 1.382 . S
C303 C301 1.392 . S
C304 Eu275 2.828 1_455 S
C304 O288 1.249 1_455 S
C304 O289 1.244 . S
C304 C298 1.505 . S
C305 O292 1.258 . S
C305 O293 1.242 1_556 S
H306 C278 0.930 . S
H307 C279 0.930 1_455 S
H308 C280 0.930 . S
H309 C281 0.931 . S
H310 C299 0.930 . S
H311 C300 0.930 . S
H312 C301 0.930 . S
H313 C302 0.931 1_655 S
Eu314 C323 2.828 . S
Eu314 O325 2.392 . S
Eu314 O327 2.418 . S
Eu314 O332 2.373 . S
Eu314 O335 2.488 . S
Eu314 O336 2.471 . S
Eu314 O337 2.349 . S
Eu315 O324 2.373 . S
Eu315 O328 2.488 . S
Eu315 O329 2.471 . S
Eu315 O330 2.349 1_556 S
Eu315 O333 2.392 1_556 S
Eu315 O334 2.418 1_556 S
Eu315 C344 2.828 . S
C316 O334 1.244 . S
C316 O337 1.265 . S
C317 C318 1.379 . S
C317 C321 1.373 . S
C317 C323 1.505 . S
C318 C317 1.379 . S
C318 C320 1.369 . S
C318 H346 0.930 . S
C319 C321 1.383 . S
C319 C322 1.382 . S
C319 H347 0.930 . S
C320 C318 1.369 . S
C320 C322 1.392 . S
C320 H348 0.930 . S
C321 C317 1.373 . S
C321 C319 1.383 . S
C321 H349 0.931 . S
C322 C319 1.382 . S
C322 C320 1.392 . S
C323 Eu314 2.828 . S
C323 C317 1.505 . S
C323 O335 1.249 . S
C323 O336 1.244 . S
O324 Eu315 2.373 . S
O324 C326 1.258 1_556 S
O325 Eu314 2.392 . S
O325 C326 1.242 . S
C326 O324 1.258 1_554 S
C326 O325 1.242 . S
O327 Eu314 2.418 . S
O327 C331 1.244 . S
O328 Eu315 2.488 . S
O328 C344 1.249 . S
O329 Eu315 2.471 . S
O329 C344 1.244 . S
O330 Eu315 2.349 1_554 S
O330 C331 1.265 . S
C331 O327 1.244 . S
C331 O330 1.265 . S
O332 Eu314 2.373 . S
O332 C345 1.258 . S
O333 Eu315 2.392 1_554 S
O333 C345 1.242 . S
O334 Eu315 2.418 1_554 S
O334 C316 1.244 . S
O335 Eu314 2.488 . S
O335 C323 1.249 . S
O336 Eu314 2.471 . S
O336 C323 1.244 . S
O337 Eu314 2.349 . S
O337 C316 1.265 . S
C338 C339 1.379 . S
C338 C342 1.373 . S
C338 C344 1.505 . S
C339 C338 1.379 . S
C339 C341 1.369 . S
C339 H350 0.930 . S
C340 C342 1.383 . S
C340 C343 1.382 . S
C340 H351 0.930 . S
C341 C339 1.369 . S
C341 C343 1.392 . S
C341 H352 0.930 . S
C342 C338 1.373 . S
C342 C340 1.383 . S
C342 H353 0.931 . S
C343 C340 1.382 . S
C343 C341 1.392 . S
C344 Eu315 2.828 . S
C344 O328 1.249 . S
C344 O329 1.244 . S
C344 C338 1.505 . S
C345 O332 1.258 . S
C345 O333 1.242 . S
H346 C318 0.930 . S
H347 C319 0.930 . S
H348 C320 0.930 . S
H349 C321 0.931 . S
H350 C339 0.930 . S
H351 C340 0.930 . S
H352 C341 0.930 . S
H353 C342 0.931 . S
Eu354 C363 2.828 . S
Eu354 O365 2.392 . S
Eu354 O367 2.418 . S
Eu354 O372 2.373 . S
Eu354 O375 2.488 . S
Eu354 O376 2.471 . S
Eu354 O377 2.349 . S
Eu355 O364 2.373 . S
Eu355 O368 2.488 . S
Eu355 O369 2.471 . S
Eu355 O370 2.349 . S
Eu355 O373 2.392 . S
Eu355 O374 2.418 . S
Eu355 C384 2.828 . S
C356 O374 1.244 . S
C356 O377 1.265 . S
C357 C358 1.379 . S
C357 C361 1.373 . S
C357 C363 1.505 . S
C358 C357 1.379 . S
C358 C360 1.369 . S
C358 H386 0.930 . S
C359 C361 1.383 . S
C359 C362 1.382 . S
C359 H387 0.930 . S
C360 C358 1.369 . S
C360 C362 1.392 . S
C360 H388 0.930 . S
C361 C357 1.373 . S
C361 C359 1.383 . S
C361 H389 0.931 . S
C362 C359 1.382 . S
C362 C360 1.392 . S
C363 Eu354 2.828 . S
C363 C357 1.505 . S
C363 O375 1.249 . S
C363 O376 1.244 . S
O364 Eu355 2.373 . S
O364 C366 1.258 . S
O365 Eu354 2.392 . S
O365 C366 1.242 . S
C366 O364 1.258 . S
C366 O365 1.242 . S
O367 Eu354 2.418 . S
O367 C371 1.244 . S
O368 Eu355 2.488 . S
O368 C384 1.249 . S
O369 Eu355 2.471 . S
O369 C384 1.244 . S
O370 Eu355 2.349 . S
O370 C371 1.265 . S
C371 O367 1.244 . S
C371 O370 1.265 . S
O372 Eu354 2.373 . S
O372 C385 1.258 . S
O373 Eu355 2.392 . S
O373 C385 1.242 . S
O374 Eu355 2.418 . S
O374 C356 1.244 . S
O375 Eu354 2.488 . S
O375 C363 1.249 . S
O376 Eu354 2.471 . S
O376 C363 1.244 . S
O377 Eu354 2.349 . S
O377 C356 1.265 . S
C378 C379 1.379 . S
C378 C382 1.373 . S
C378 C384 1.505 . S
C379 C378 1.379 . S
C379 C381 1.369 . S
C379 H390 0.930 . S
C380 C382 1.383 . S
C380 C383 1.382 . S
C380 H391 0.930 . S
C381 C379 1.369 . S
C381 C383 1.392 . S
C381 H392 0.930 . S
C382 C378 1.373 . S
C382 C380 1.383 . S
C382 H393 0.931 . S
C383 C380 1.382 . S
C383 C381 1.392 . S
C384 Eu355 2.828 . S
C384 O368 1.249 . S
C384 O369 1.244 . S
C384 C378 1.505 . S
C385 O372 1.258 . S
C385 O373 1.242 . S
H386 C358 0.930 . S
H387 C359 0.930 . S
H388 C360 0.930 . S
H389 C361 0.931 . S
H390 C379 0.930 . S
H391 C380 0.930 . S
H392 C381 0.930 . S
H393 C382 0.931 . S
Eu394 C403 2.828 . S
Eu394 O405 2.392 . S
Eu394 O407 2.418 . S
Eu394 O412 2.373 . S
Eu394 O415 2.488 . S
Eu394 O416 2.471 . S
Eu394 O417 2.349 . S
Eu395 O404 2.373 . S
Eu395 O408 2.488 . S
Eu395 O409 2.471 . S
Eu395 O410 2.349 . S
Eu395 O413 2.392 . S
Eu395 O414 2.418 . S
Eu395 C424 2.828 . S
C396 O414 1.244 . S
C396 O417 1.265 . S
C397 C398 1.379 . S
C397 C401 1.373 . S
C397 C403 1.505 . S
C398 C397 1.379 . S
C398 C400 1.369 . S
C398 H426 0.930 . S
C399 C401 1.383 . S
C399 C402 1.382 . S
C399 H427 0.930 . S
C400 C398 1.369 . S
C400 C402 1.392 . S
C400 H428 0.930 . S
C401 C397 1.373 . S
C401 C399 1.383 . S
C401 H429 0.931 . S
C402 C399 1.382 . S
C402 C400 1.392 . S
C403 Eu394 2.828 . S
C403 C397 1.505 . S
C403 O415 1.249 . S
C403 O416 1.244 . S
O404 Eu395 2.373 . S
O404 C406 1.258 . S
O405 Eu394 2.392 . S
O405 C406 1.242 . S
C406 O404 1.258 . S
C406 O405 1.242 . S
O407 Eu394 2.418 . S
O407 C411 1.244 . S
O408 Eu395 2.488 . S
O408 C424 1.249 . S
O409 Eu395 2.471 . S
O409 C424 1.244 . S
O410 Eu395 2.349 . S
O410 C411 1.265 . S
C411 O407 1.244 . S
C411 O410 1.265 . S
O412 Eu394 2.373 . S
O412 C425 1.258 . S
O413 Eu395 2.392 . S
O413 C425 1.242 . S
O414 Eu395 2.418 . S
O414 C396 1.244 . S
O415 Eu394 2.488 . S
O415 C403 1.249 . S
O416 Eu394 2.471 . S
O416 C403 1.244 . S
O417 Eu394 2.349 . S
O417 C396 1.265 . S
C418 C419 1.379 . S
C418 C422 1.373 . S
C418 C424 1.505 . S
C419 C418 1.379 . S
C419 C421 1.369 . S
C419 H430 0.930 . S
C420 C422 1.383 . S
C420 C423 1.382 . S
C420 H431 0.930 . S
C421 C419 1.369 . S
C421 C423 1.392 . S
C421 H432 0.930 . S
C422 C418 1.373 . S
C422 C420 1.383 . S
C422 H433 0.931 . S
C423 C420 1.382 . S
C423 C421 1.392 . S
C424 Eu395 2.828 . S
C424 O408 1.249 . S
C424 O409 1.244 . S
C424 C418 1.505 . S
C425 O412 1.258 . S
C425 O413 1.242 . S
H426 C398 0.930 . S
H427 C399 0.930 . S
H428 C400 0.930 . S
H429 C401 0.931 . S
H430 C419 0.930 . S
H431 C420 0.930 . S
H432 C421 0.930 . S
H433 C422 0.931 . S
Eu434 C443 2.828 . S
Eu434 O445 2.392 . S
Eu434 O447 2.418 . S
Eu434 O452 2.373 . S
Eu434 O455 2.488 . S
Eu434 O456 2.471 . S
Eu434 O457 2.349 . S
Eu435 O444 2.373 . S
Eu435 O448 2.488 . S
Eu435 O449 2.471 . S
Eu435 O450 2.349 . S
Eu435 O453 2.392 . S
Eu435 O454 2.418 . S
Eu435 C464 2.828 . S
C436 O454 1.244 . S
C436 O457 1.265 . S
C437 C438 1.379 . S
C437 C441 1.373 . S
C437 C443 1.505 . S
C438 C437 1.379 . S
C438 C440 1.369 . S
C438 H466 0.930 . S
C439 C441 1.383 . S
C439 C442 1.382 . S
C439 H467 0.930 . S
C440 C438 1.369 . S
C440 C442 1.392 . S
C440 H468 0.930 . S
C441 C437 1.373 . S
C441 C439 1.383 . S
C441 H469 0.931 . S
C442 C439 1.382 . S
C442 C440 1.392 . S
C443 Eu434 2.828 . S
C443 C437 1.505 . S
C443 O455 1.249 . S
C443 O456 1.244 . S
O444 Eu435 2.373 . S
O444 C446 1.258 . S
O445 Eu434 2.392 . S
O445 C446 1.242 . S
C446 O444 1.258 . S
C446 O445 1.242 . S
O447 Eu434 2.418 . S
O447 C451 1.244 . S
O448 Eu435 2.488 . S
O448 C464 1.249 . S
O449 Eu435 2.471 . S
O449 C464 1.244 . S
O450 Eu435 2.349 . S
O450 C451 1.265 . S
C451 O447 1.244 . S
C451 O450 1.265 . S
O452 Eu434 2.373 . S
O452 C465 1.258 . S
O453 Eu435 2.392 . S
O453 C465 1.242 . S
O454 Eu435 2.418 . S
O454 C436 1.244 . S
O455 Eu434 2.488 . S
O455 C443 1.249 . S
O456 Eu434 2.471 . S
O456 C443 1.244 . S
O457 Eu434 2.349 . S
O457 C436 1.265 . S
C458 C459 1.379 . S
C458 C462 1.373 . S
C458 C464 1.505 . S
C459 C458 1.379 . S
C459 C461 1.369 . S
C459 H470 0.930 . S
C460 C462 1.383 . S
C460 C463 1.382 . S
C460 H471 0.930 . S
C461 C459 1.369 . S
C461 C463 1.392 . S
C461 H472 0.930 . S
C462 C458 1.373 . S
C462 C460 1.383 . S
C462 H473 0.931 . S
C463 C460 1.382 . S
C463 C461 1.392 . S
C464 Eu435 2.828 . S
C464 O448 1.249 . S
C464 O449 1.244 . S
C464 C458 1.505 . S
C465 O452 1.258 . S
C465 O453 1.242 . S
H466 C438 0.930 . S
H467 C439 0.930 . S
H468 C440 0.930 . S
H469 C441 0.931 . S
H470 C459 0.930 . S
H471 C460 0.930 . S
H472 C461 0.930 . S
H473 C462 0.931 . S
Eu474 C483 2.828 . S
Eu474 O485 2.392 . S
Eu474 O487 2.418 . S
Eu474 O492 2.373 . S
Eu474 O495 2.488 . S
Eu474 O496 2.471 . S
Eu474 O497 2.349 . S
Eu475 O484 2.373 . S
Eu475 O488 2.488 . S
Eu475 O489 2.471 . S
Eu475 O490 2.349 . S
Eu475 O493 2.392 . S
Eu475 O494 2.418 . S
Eu475 C504 2.828 . S
C476 O494 1.244 . S
C476 O497 1.265 . S
C477 C478 1.379 . S
C477 C481 1.373 . S
C477 C483 1.505 . S
C478 C477 1.379 . S
C478 C480 1.369 . S
C478 H506 0.930 . S
C479 C481 1.383 . S
C479 C482 1.382 . S
C479 H507 0.930 . S
C480 C478 1.369 . S
C480 C482 1.392 . S
C480 H508 0.930 . S
C481 C477 1.373 . S
C481 C479 1.383 . S
C481 H509 0.931 . S
C482 C479 1.382 . S
C482 C480 1.392 . S
C483 Eu474 2.828 . S
C483 C477 1.505 . S
C483 O495 1.249 . S
C483 O496 1.244 . S
O484 Eu475 2.373 . S
O484 C486 1.258 . S
O485 Eu474 2.392 . S
O485 C486 1.242 . S
C486 O484 1.258 . S
C486 O485 1.242 . S
O487 Eu474 2.418 . S
O487 C491 1.244 . S
O488 Eu475 2.488 . S
O488 C504 1.249 . S
O489 Eu475 2.471 . S
O489 C504 1.244 . S
O490 Eu475 2.349 . S
O490 C491 1.265 . S
C491 O487 1.244 . S
C491 O490 1.265 . S
O492 Eu474 2.373 . S
O492 C505 1.258 . S
O493 Eu475 2.392 . S
O493 C505 1.242 . S
O494 Eu475 2.418 . S
O494 C476 1.244 . S
O495 Eu474 2.488 . S
O495 C483 1.249 . S
O496 Eu474 2.471 . S
O496 C483 1.244 . S
O497 Eu474 2.349 . S
O497 C476 1.265 . S
C498 C499 1.379 . S
C498 C502 1.373 . S
C498 C504 1.505 . S
C499 C498 1.379 . S
C499 C501 1.369 . S
C499 H510 0.930 . S
C500 C502 1.383 . S
C500 C503 1.382 . S
C500 H511 0.930 . S
C501 C499 1.369 . S
C501 C503 1.392 . S
C501 H512 0.930 . S
C502 C498 1.373 . S
C502 C500 1.383 . S
C502 H513 0.931 . S
C503 C500 1.382 . S
C503 C501 1.392 . S
C504 Eu475 2.828 . S
C504 O488 1.249 . S
C504 O489 1.244 . S
C504 C498 1.505 . S
C505 O492 1.258 . S
C505 O493 1.242 . S
H506 C478 0.930 . S
H507 C479 0.930 . S
H508 C480 0.930 . S
H509 C481 0.931 . S
H510 C499 0.930 . S
H511 C500 0.930 . S
H512 C501 0.930 . S
H513 C502 0.931 . S
Eu514 C523 2.828 . S
Eu514 O525 2.392 . S
Eu514 O527 2.418 . S
Eu514 O532 2.373 . S
Eu514 O535 2.488 . S
Eu514 O536 2.471 . S
Eu514 O537 2.349 . S
Eu515 O524 2.373 . S
Eu515 O528 2.488 . S
Eu515 O529 2.471 . S
Eu515 O530 2.349 . S
Eu515 O533 2.392 . S
Eu515 O534 2.418 . S
Eu515 C544 2.828 . S
C516 O534 1.244 . S
C516 O537 1.265 . S
C517 C518 1.379 . S
C517 C521 1.373 . S
C517 C523 1.505 . S
C518 C517 1.379 . S
C518 C520 1.369 . S
C518 H546 0.930 . S
C519 C521 1.383 . S
C519 C522 1.382 . S
C519 H547 0.930 . S
C520 C518 1.369 . S
C520 C522 1.392 . S
C520 H548 0.930 . S
C521 C517 1.373 . S
C521 C519 1.383 . S
C521 H549 0.931 . S
C522 C519 1.382 . S
C522 C520 1.392 . S
C523 Eu514 2.828 . S
C523 C517 1.505 . S
C523 O535 1.249 . S
C523 O536 1.244 . S
O524 Eu515 2.373 . S
O524 C526 1.258 . S
O525 Eu514 2.392 . S
O525 C526 1.242 . S
C526 O524 1.258 . S
C526 O525 1.242 . S
O527 Eu514 2.418 . S
O527 C531 1.244 . S
O528 Eu515 2.488 . S
O528 C544 1.249 . S
O529 Eu515 2.471 . S
O529 C544 1.244 . S
O530 Eu515 2.349 . S
O530 C531 1.265 . S
C531 O527 1.244 . S
C531 O530 1.265 . S
O532 Eu514 2.373 . S
O532 C545 1.258 . S
O533 Eu515 2.392 . S
O533 C545 1.242 . S
O534 Eu515 2.418 . S
O534 C516 1.244 . S
O535 Eu514 2.488 . S
O535 C523 1.249 . S
O536 Eu514 2.471 . S
O536 C523 1.244 . S
O537 Eu514 2.349 . S
O537 C516 1.265 . S
C538 C539 1.379 . S
C538 C542 1.373 . S
C538 C544 1.505 . S
C539 C538 1.379 . S
C539 C541 1.369 . S
C539 H550 0.930 . S
C540 C542 1.383 . S
C540 C543 1.382 . S
C540 H551 0.930 . S
C541 C539 1.369 . S
C541 C543 1.392 . S
C541 H552 0.930 . S
C542 C538 1.373 . S
C542 C540 1.383 . S
C542 H553 0.931 . S
C543 C540 1.382 . S
C543 C541 1.392 . S
C544 Eu515 2.828 . S
C544 O528 1.249 . S
C544 O529 1.244 . S
C544 C538 1.505 . S
C545 O532 1.258 . S
C545 O533 1.242 . S
H546 C518 0.930 . S
H547 C519 0.930 . S
H548 C520 0.930 . S
H549 C521 0.931 . S
H550 C539 0.930 . S
H551 C540 0.930 . S
H552 C541 0.930 . S
H553 C542 0.931 . S
Eu554 C563 2.828 . S
Eu554 O565 2.392 . S
Eu554 O567 2.418 . S
Eu554 O572 2.373 . S
Eu554 O575 2.488 . S
Eu554 O576 2.471 . S
Eu554 O577 2.349 . S
Eu555 O564 2.373 . S
Eu555 O568 2.488 . S
Eu555 O569 2.471 . S
Eu555 O570 2.349 . S
Eu555 O573 2.392 . S
Eu555 O574 2.418 . S
Eu555 C584 2.828 . S
C556 O574 1.244 . S
C556 O577 1.265 . S
C557 C558 1.379 . S
C557 C561 1.373 . S
C557 C563 1.505 . S
C558 C557 1.379 . S
C558 C560 1.369 . S
C558 H586 0.930 . S
C559 C561 1.383 . S
C559 C562 1.382 . S
C559 H587 0.930 . S
C560 C558 1.369 . S
C560 C562 1.392 . S
C560 H588 0.930 . S
C561 C557 1.373 . S
C561 C559 1.383 . S
C561 H589 0.931 . S
C562 C559 1.382 . S
C562 C560 1.392 . S
C563 Eu554 2.828 . S
C563 C557 1.505 . S
C563 O575 1.249 . S
C563 O576 1.244 . S
O564 Eu555 2.373 . S
O564 C566 1.258 . S
O565 Eu554 2.392 . S
O565 C566 1.242 . S
C566 O564 1.258 . S
C566 O565 1.242 . S
O567 Eu554 2.418 . S
O567 C571 1.244 . S
O568 Eu555 2.488 . S
O568 C584 1.249 . S
O569 Eu555 2.471 . S
O569 C584 1.244 . S
O570 Eu555 2.349 . S
O570 C571 1.265 . S
C571 O567 1.244 . S
C571 O570 1.265 . S
O572 Eu554 2.373 . S
O572 C585 1.258 . S
O573 Eu555 2.392 . S
O573 C585 1.242 . S
O574 Eu555 2.418 . S
O574 C556 1.244 . S
O575 Eu554 2.488 . S
O575 C563 1.249 . S
O576 Eu554 2.471 . S
O576 C563 1.244 . S
O577 Eu554 2.349 . S
O577 C556 1.265 . S
C578 C579 1.379 . S
C578 C582 1.373 . S
C578 C584 1.505 . S
C579 C578 1.379 . S
C579 C581 1.369 . S
C579 H590 0.930 . S
C580 C582 1.383 . S
C580 C583 1.382 . S
C580 H591 0.930 . S
C581 C579 1.369 . S
C581 C583 1.392 . S
C581 H592 0.930 . S
C582 C578 1.373 . S
C582 C580 1.383 . S
C582 H593 0.931 . S
C583 C580 1.382 . S
C583 C581 1.392 . S
C584 Eu555 2.828 . S
C584 O568 1.249 . S
C584 O569 1.244 . S
C584 C578 1.505 . S
C585 O572 1.258 . S
C585 O573 1.242 . S
H586 C558 0.930 . S
H587 C559 0.930 . S
H588 C560 0.930 . S
H589 C561 0.931 . S
H590 C579 0.930 . S
H591 C580 0.930 . S
H592 C581 0.930 . S
H593 C582 0.931 . S
H594 C602 0.929 . S
H595 C604 0.930 . S
H596 C606 0.930 . S
H597 C609 0.929 . S
H598 C612 0.930 . S
H599 C614 0.960 . S
H600 C614 0.960 . S
H601 C614 0.960 . S
C602 H594 0.929 . S
C602 C603 1.377 . S
C602 C604 1.384 . S
C603 C602 1.377 . S
C603 C609 1.390 . S
C604 H595 0.930 . S
C604 C602 1.384 . S
C604 C605 1.372 . S
C605 C604 1.372 . S
C605 C606 1.400 . S
C605 C610 1.490 . S
C606 H596 0.930 . S
C606 C605 1.400 . S
C606 C609 1.386 . S
H607 C623 0.930 . S
H608 C624 0.931 . S
C609 H597 0.929 . S
C609 C603 1.390 . S
C609 C606 1.386 . S
C610 C605 1.490 . S
C610 C612 1.395 . S
C610 C613 1.403 . S
H611 C617 0.930 . S
C612 H598 0.930 . S
C612 C610 1.395 . S
C612 C615 1.403 . S
C613 C610 1.403 . S
C613 C614 1.524 . S
C613 C617 1.400 . S
C614 H599 0.960 . S
C614 H600 0.960 . S
C614 H601 0.960 . S
C614 C613 1.524 . S
C615 C612 1.403 . S
C615 C616 1.392 . S
C615 C619 1.495 . S
C616 C615 1.392 . S
C616 C617 1.385 . S
C616 C618 1.478 . S
C617 H611 0.930 . S
C617 C613 1.400 . S
C617 C616 1.385 . S
C618 C616 1.478 . S
C618 C620 1.381 . S
C618 C624 1.383 . S
C619 C615 1.495 . S
C619 H625 0.959 . S
C619 H626 0.961 . S
C619 H627 0.960 . S
C620 C618 1.381 . S
C620 C621 1.394 . S
C620 H628 0.930 . S
C621 C620 1.394 . S
C621 C622 1.383 . S
C621 H629 0.929 . S
C622 C621 1.383 . S
C622 C623 1.377 . S
C623 H607 0.930 . S
C623 C622 1.377 . S
C623 C624 1.379 . S
C624 H608 0.931 . S
C624 C618 1.383 . S
C624 C623 1.379 . S
H625 C619 0.959 . S
H626 C619 0.961 . S
H627 C619 0.960 . S
H628 C620 0.930 . S
H629 C621 0.929 . S
H630 C638 0.929 . S
H631 C640 0.930 . S
H632 C642 0.930 . S
H633 C645 0.929 . S
H634 C648 0.930 . S
H635 C650 0.960 . S
H636 C650 0.960 . S
H637 C650 0.960 . S
C638 H630 0.929 . S
C638 C639 1.377 . S
C638 C640 1.384 . S
C639 C638 1.377 . S
C639 C645 1.390 . S
C640 H631 0.930 . S
C640 C638 1.384 . S
C640 C641 1.372 . S
C641 C640 1.372 . S
C641 C642 1.400 . S
C641 C646 1.490 . S
C642 H632 0.930 . S
C642 C641 1.400 . S
C642 C645 1.386 . S
H643 C659 0.930 . S
H644 C660 0.931 . S
C645 H633 0.929 . S
C645 C639 1.390 . S
C645 C642 1.386 . S
C646 C641 1.490 . S
C646 C648 1.395 . S
C646 C649 1.403 . S
H647 C653 0.930 . S
C648 H634 0.930 . S
C648 C646 1.395 . S
C648 C651 1.403 . S
C649 C646 1.403 . S
C649 C650 1.524 . S
C649 C653 1.400 . S
C650 H635 0.960 . S
C650 H636 0.960 . S
C650 H637 0.960 . S
C650 C649 1.524 . S
C651 C648 1.403 . S
C651 C652 1.392 . S
C651 C655 1.495 . S
C652 C651 1.392 . S
C652 C653 1.385 . S
C652 C654 1.478 . S
C653 H647 0.930 . S
C653 C649 1.400 . S
C653 C652 1.385 . S
C654 C652 1.478 . S
C654 C656 1.381 . S
C654 C660 1.383 . S
C655 C651 1.495 . S
C655 H661 0.959 . S
C655 H662 0.961 . S
C655 H663 0.960 . S
C656 C654 1.381 . S
C656 C657 1.394 . S
C656 H664 0.930 . S
C657 C656 1.394 . S
C657 C658 1.383 . S
C657 H665 0.929 . S
C658 C657 1.383 . S
C658 C659 1.377 . S
C659 H643 0.930 . S
C659 C658 1.377 . S
C659 C660 1.379 . S
C660 H644 0.931 . S
C660 C654 1.383 . S
C660 C659 1.379 . S
H661 C655 0.959 . S
H662 C655 0.961 . S
H663 C655 0.960 . S
H664 C656 0.930 . S
H665 C657 0.929 . S
H666 C674 0.929 . S
H667 C676 0.930 . S
H668 C678 0.930 . S
H669 C681 0.929 . S
H670 C684 0.930 . S
H671 C686 0.960 . S
H672 C686 0.960 . S
H673 C686 0.960 . S
C674 H666 0.929 . S
C674 C675 1.377 . S
C674 C676 1.384 . S
C675 C674 1.377 . S
C675 C681 1.390 . S
C676 H667 0.930 . S
C676 C674 1.384 . S
C676 C677 1.372 . S
C677 C676 1.372 . S
C677 C678 1.400 . S
C677 C682 1.490 . S
C678 H668 0.930 . S
C678 C677 1.400 . S
C678 C681 1.386 . S
H679 C695 0.930 . S
H680 C696 0.931 . S
C681 H669 0.929 . S
C681 C675 1.390 . S
C681 C678 1.386 . S
C682 C677 1.490 . S
C682 C684 1.395 . S
C682 C685 1.403 . S
H683 C689 0.930 . S
C684 H670 0.930 . S
C684 C682 1.395 . S
C684 C687 1.403 . S
C685 C682 1.403 . S
C685 C686 1.524 . S
C685 C689 1.400 . S
C686 H671 0.960 . S
C686 H672 0.960 . S
C686 H673 0.960 . S
C686 C685 1.524 . S
C687 C684 1.403 . S
C687 C688 1.392 . S
C687 C691 1.495 . S
C688 C687 1.392 . S
C688 C689 1.385 . S
C688 C690 1.478 . S
C689 H683 0.930 . S
C689 C685 1.400 . S
C689 C688 1.385 . S
C690 C688 1.478 . S
C690 C692 1.381 . S
C690 C696 1.383 . S
C691 C687 1.495 . S
C691 H697 0.959 . S
C691 H698 0.961 . S
C691 H699 0.960 . S
C692 C690 1.381 . S
C692 C693 1.394 . S
C692 H700 0.930 . S
C693 C692 1.394 . S
C693 C694 1.383 . S
C693 H701 0.879 1_554 S
C694 C693 1.383 . S
C694 C695 1.377 . S
C695 H679 0.930 . S
C695 C694 1.377 . S
C695 C696 1.379 . S
C696 H680 0.931 . S
C696 C690 1.383 . S
C696 C695 1.379 . S
H697 C691 0.959 . S
H698 C691 0.961 . S
H699 C691 0.960 . S
H700 C692 0.930 . S
H701 C693 0.879 1_556 S
H702 C710 0.929 . S
H703 C712 0.930 . S
H704 C714 0.930 . S
H705 C717 0.929 . S
H706 C720 0.930 1_554 S
H707 C722 0.960 . S
H708 C722 0.960 . S
H709 C722 0.960 . S
C710 H702 0.929 . S
C710 C711 1.377 . S
C710 C712 1.384 . S
C711 C710 1.377 . S
C711 C717 1.390 . S
C712 H703 0.930 . S
C712 C710 1.384 . S
C712 C713 1.372 . S
C713 C712 1.372 . S
C713 C714 1.400 . S
C713 C718 1.490 . S
C714 H704 0.930 . S
C714 C713 1.400 . S
C714 C717 1.386 . S
H715 C731 0.930 . S
H716 C732 0.931 . S
C717 H705 0.929 . S
C717 C711 1.390 . S
C717 C714 1.386 . S
C718 C713 1.490 . S
C718 C720 1.395 . S
C718 C721 1.403 . S
H719 C725 0.930 . S
C720 H706 0.930 1_556 S
C720 C718 1.395 . S
C720 C723 1.403 1_556 S
C721 C718 1.403 . S
C721 C722 1.524 . S
C721 C725 1.400 . S
C722 H707 0.960 . S
C722 H708 0.960 . S
C722 H709 0.960 . S
C722 C721 1.524 . S
C723 C720 1.403 1_554 S
C723 C724 1.392 1_554 S
C723 C727 1.495 . S
C724 C723 1.392 1_556 S
C724 C725 1.385 . S
C724 C726 1.478 . S
C725 H719 0.930 . S
C725 C721 1.400 . S
C725 C724 1.385 . S
C726 C724 1.478 . S
C726 C728 1.371 1_556 S
C726 C732 1.383 . S
C727 C723 1.495 . S
C727 H733 0.959 . S
C727 H734 0.961 . S
C727 H735 0.960 . S
C728 C726 1.371 1_554 S
C728 C729 1.397 . S
C728 H736 0.940 . S
C729 C728 1.397 . S
C729 C730 1.383 . S
C729 H737 0.929 . S
C730 C729 1.383 . S
C730 C731 1.377 1_554 S
C731 H715 0.930 . S
C731 C730 1.377 1_556 S
C731 C732 1.379 . S
C732 H716 0.931 . S
C732 C726 1.383 . S
C732 C731 1.379 . S
H733 C727 0.959 . S
H734 C727 0.961 . S
H735 C727 0.960 . S
H736 C728 0.940 . S
H737 C729 0.929 . S
H738 C746 0.929 . S
H739 C748 0.930 . S
H740 C750 0.930 . S
H741 C753 0.929 . S
H742 C756 0.930 . S
H743 C758 0.960 1_554 S
H744 C758 0.960 . S
H745 C758 0.960 . S
C746 H738 0.929 . S
C746 C747 1.377 . S
C746 C748 1.384 . S
C747 C746 1.377 . S
C747 C753 1.390 . S
C748 H739 0.930 . S
C748 C746 1.384 . S
C748 C749 1.372 . S
C749 C748 1.372 . S
C749 C750 1.400 . S
C749 C754 1.490 . S
C750 H740 0.930 . S
C750 C749 1.400 . S
C750 C753 1.386 . S
H751 C767 0.938 . S
H752 C768 0.931 . S
C753 H741 0.929 . S
C753 C747 1.390 . S
C753 C750 1.386 . S
C754 C749 1.490 . S
C754 C756 1.395 . S
C754 C757 1.403 . S
H755 C761 0.930 . S
C756 H742 0.930 . S
C756 C754 1.395 . S
C756 C759 1.403 . S
C757 C754 1.403 . S
C757 C758 1.524 . S
C757 C761 1.400 . S
C758 H743 0.960 1_556 S
C758 H744 0.960 . S
C758 H745 0.960 . S
C758 C757 1.524 . S
C759 C756 1.403 . S
C759 C760 1.392 . S
C759 C763 1.495 . S
C760 C759 1.392 . S
C760 C761 1.385 . S
C760 C762 1.478 . S
C761 H755 0.930 . S
C761 C757 1.400 . S
C761 C760 1.385 . S
C762 C760 1.478 . S
C762 C764 1.381 . S
C762 C768 1.383 . S
C763 C759 1.495 . S
C763 H769 0.959 . S
C763 H770 0.961 . S
C763 H771 0.960 . S
C764 C762 1.381 . S
C764 C765 1.394 . S
C764 H772 0.930 . S
C765 C764 1.394 . S
C765 C766 1.383 . S
C765 H773 0.929 . S
C766 C765 1.383 . S
C766 C767 1.377 . S
C767 H751 0.938 . S
C767 C766 1.377 . S
C767 C768 1.379 . S
C768 H752 0.931 . S
C768 C762 1.383 . S
C768 C767 1.379 . S
H769 C763 0.959 . S
H770 C763 0.961 . S
H771 C763 0.960 . S
H772 C764 0.930 . S
H773 C765 0.929 . S
H774 C782 0.929 . S
H775 C784 0.930 . S
H776 C786 0.930 . S
H777 C789 0.929 . S
H778 C792 0.930 . S
H779 C794 0.960 . S
H780 C794 0.960 . S
H781 C794 0.960 . S
C782 H774 0.929 . S
C782 C783 1.377 . S
C782 C784 1.384 . S
C783 C782 1.377 . S
C783 C789 1.390 . S
C784 H775 0.930 . S
C784 C782 1.384 . S
C784 C785 1.372 . S
C785 C784 1.372 . S
C785 C786 1.400 . S
C785 C790 1.490 . S
C786 H776 0.930 . S
C786 C785 1.400 . S
C786 C789 1.386 . S
H787 C803 0.930 . S
H788 C804 0.931 . S
C789 H777 0.929 . S
C789 C783 1.390 . S
C789 C786 1.386 . S
C790 C785 1.490 . S
C790 C792 1.395 1_556 S
C790 C793 1.403 . S
H791 C797 0.930 . S
C792 H778 0.930 . S
C792 C790 1.395 1_554 S
C792 C795 1.403 . S
C793 C790 1.403 . S
C793 C794 1.524 . S
C793 C797 1.400 . S
C794 H779 0.960 . S
C794 H780 0.960 . S
C794 H781 0.960 . S
C794 C793 1.524 . S
C795 C792 1.403 . S
C795 C796 1.392 1_554 S
C795 C799 1.495 . S
C796 C795 1.392 1_556 S
C796 C797 1.385 . S
C796 C798 1.478 1_556 S
C797 H791 0.930 . S
C797 C793 1.400 . S
C797 C796 1.385 . S
C798 C796 1.478 1_554 S
C798 C800 1.381 1_554 S
C798 C804 1.383 . S
C799 C795 1.495 . S
C799 H805 0.959 . S
C799 H806 0.961 . S
C799 H807 0.960 . S
C800 C798 1.381 1_556 S
C800 C801 1.391 1_556 S
C800 H808 0.930 . S
C801 C800 1.391 1_554 S
C801 C802 1.394 . S
C801 H809 0.923 1_554 S
C802 C801 1.394 . S
C802 C803 1.377 . S
C803 H787 0.930 . S
C803 C802 1.377 . S
C803 C804 1.379 . S
C804 H788 0.931 . S
C804 C798 1.383 . S
C804 C803 1.379 . S
H805 C799 0.959 . S
H806 C799 0.961 . S
H807 C799 0.960 . S
H808 C800 0.930 . S
H809 C801 0.923 1_556 S
H810 C818 0.929 . S
H811 C820 0.924 . S
H812 C822 0.930 . S
H813 C825 0.929 . S
H814 C828 0.930 . S
H815 C830 0.960 . S
H816 C830 0.960 . S
H817 C830 0.960 . S
C818 H810 0.929 . S
C818 C819 1.377 . S
C818 C820 1.384 . S
C819 C818 1.377 . S
C819 C825 1.390 . S
C820 H811 0.924 . S
C820 C818 1.384 . S
C820 C821 1.372 . S
C821 C820 1.372 . S
C821 C822 1.400 . S
C821 C826 1.490 . S
C822 H812 0.930 . S
C822 C821 1.400 . S
C822 C825 1.386 . S
H823 C839 0.930 . S
H824 C840 0.931 . S
C825 H813 0.929 . S
C825 C819 1.390 . S
C825 C822 1.386 . S
C826 C821 1.490 . S
C826 C828 1.395 . S
C826 C829 1.403 . S
H827 C833 0.930 . S
C828 H814 0.930 . S
C828 C826 1.395 . S
C828 C831 1.403 . S
C829 C826 1.403 . S
C829 C830 1.524 . S
C829 C833 1.400 . S
C830 H815 0.960 . S
C830 H816 0.960 . S
C830 H817 0.960 . S
C830 C829 1.524 . S
C831 C828 1.403 . S
C831 C832 1.392 . S
C831 C835 1.495 . S
C832 C831 1.392 . S
C832 C833 1.385 . S
C832 C834 1.478 . S
C833 H827 0.930 . S
C833 C829 1.400 . S
C833 C832 1.385 . S
C834 C832 1.478 . S
C834 C836 1.381 1_556 S
C834 C840 1.383 . S
C835 C831 1.495 . S
C835 H841 0.959 . S
C835 H842 0.961 . S
C835 H843 0.960 1_556 S
C836 C834 1.381 1_554 S
C836 C837 1.394 . S
C836 H844 0.930 . S
C837 C836 1.394 . S
C837 C838 1.383 1_554 S
C837 H845 0.929 . S
C838 C837 1.383 1_556 S
C838 C839 1.377 . S
C839 H823 0.930 . S
C839 C838 1.377 . S
C839 C840 1.379 . S
C840 H824 0.931 . S
C840 C834 1.383 . S
C840 C839 1.379 . S
H841 C835 0.959 . S
H842 C835 0.961 . S
H843 C835 0.960 1_554 S
H844 C836 0.930 . S
H845 C837 0.929 . S
H846 C854 0.929 . S
H847 C856 0.930 . S
H848 C858 0.930 . S
H849 C861 0.929 . S
H850 C864 0.930 . S
H851 C866 0.960 . S
H852 C866 0.960 . S
H853 C866 0.960 . S
C854 H846 0.929 . S
C854 C855 1.377 . S
C854 C856 1.384 . S
C855 C854 1.377 . S
C855 C861 1.390 . S
C856 H847 0.930 . S
C856 C854 1.384 . S
C856 C857 1.372 . S
C857 C856 1.372 . S
C857 C858 1.400 . S
C857 C862 1.490 . S
C858 H848 0.930 . S
C858 C857 1.400 . S
C858 C861 1.386 . S
H859 C875 0.930 . S
H860 C876 0.931 . S
C861 H849 0.929 . S
C861 C855 1.390 . S
C861 C858 1.386 . S
C862 C857 1.490 . S
C862 C864 1.395 . S
C862 C865 1.403 . S
H863 C869 0.930 . S
C864 H850 0.930 . S
C864 C862 1.395 . S
C864 C867 1.403 . S
C865 C862 1.403 . S
C865 C866 1.524 . S
C865 C869 1.400 . S
C866 H851 0.960 . S
C866 H852 0.960 . S
C866 H853 0.960 . S
C866 C865 1.524 . S
C867 C864 1.403 . S
C867 C868 1.392 . S
C867 C871 1.495 . S
C868 C867 1.392 . S
C868 C869 1.385 . S
C868 C870 1.478 . S
C869 H863 0.930 . S
C869 C865 1.400 . S
C869 C868 1.385 . S
C870 C868 1.478 . S
C870 C872 1.381 . S
C870 C876 1.383 . S
C871 C867 1.495 . S
C871 H877 0.959 . S
C871 H878 0.961 . S
C871 H879 0.960 . S
C872 C870 1.381 . S
C872 C873 1.405 . S
C872 H880 0.905 1_556 S
C873 C872 1.405 . S
C873 C874 1.409 . S
C873 H881 0.894 1_556 S
C874 C873 1.409 . S
C874 C875 1.377 . S
C875 H859 0.930 . S
C875 C874 1.377 . S
C875 C876 1.379 . S
C876 H860 0.931 . S
C876 C870 1.383 . S
C876 C875 1.379 . S
H877 C871 0.959 . S
H878 C871 0.961 . S
H879 C871 0.960 . S
H880 C872 0.905 1_554 S
H881 C873 0.894 1_554 S
H882 C890 0.929 . S
H883 C892 0.930 . S
H884 C894 0.930 . S
H885 C897 0.933 1_554 S
H886 C900 0.930 . S
H887 C902 0.960 . S
H888 C902 0.960 . S
H889 C902 0.960 . S
C890 H882 0.929 . S
C890 C891 1.377 . S
C890 C892 1.384 . S
C891 C890 1.377 . S
C891 C897 1.386 . S
C892 H883 0.930 . S
C892 C890 1.384 . S
C892 C893 1.372 . S
C893 C892 1.372 . S
C893 C894 1.400 1_556 S
C893 C898 1.490 . S
C894 H884 0.930 . S
C894 C893 1.400 1_554 S
C894 C897 1.386 1_554 S
H895 C911 0.930 . S
H896 C912 0.931 . S
C897 H885 0.933 1_556 S
C897 C891 1.386 . S
C897 C894 1.386 1_556 S
C898 C893 1.490 . S
C898 C900 1.395 . S
C898 C901 1.403 1_556 S
H899 C905 0.930 . S
C900 H886 0.930 . S
C900 C898 1.395 . S
C900 C903 1.403 . S
C901 C898 1.403 1_554 S
C901 C902 1.524 . S
C901 C905 1.400 . S
C902 H887 0.960 . S
C902 H888 0.960 . S
C902 H889 0.960 . S
C902 C901 1.524 . S
C903 C900 1.403 . S
C903 C904 1.392 . S
C903 C907 1.495 . S
C904 C903 1.392 . S
C904 C905 1.385 1_556 S
C904 C906 1.477 1_556 S
C905 H899 0.930 . S
C905 C901 1.400 . S
C905 C904 1.385 1_554 S
C906 C904 1.477 1_554 S
C906 C908 1.373 1_554 S
C906 C912 1.392 . S
C907 C903 1.495 . S
C907 H913 0.959 . S
C907 H914 0.961 . S
C907 H915 0.960 . S
C908 C906 1.373 1_556 S
C908 C909 1.394 . S
C908 H916 0.930 . S
C909 C908 1.394 . S
C909 C910 1.383 1_556 S
C909 H917 0.929 . S
C910 C909 1.383 1_554 S
C910 C911 1.377 . S
C911 H895 0.930 . S
C911 C910 1.377 . S
C911 C912 1.379 . S
C912 H896 0.931 . S
C912 C906 1.392 . S
C912 C911 1.379 . S
H913 C907 0.959 . S
H914 C907 0.961 . S
H915 C907 0.960 . S
H916 C908 0.930 . S
H917 C909 0.929 . S
H918 C926 0.929 . S
H919 C928 0.930 . S
H920 C930 0.930 . S
H921 C933 0.929 . S
H922 C936 0.930 . S
H923 C938 0.960 . S
H924 C938 0.960 . S
H925 C938 0.960 . S
C926 H918 0.929 . S
C926 C927 1.377 . S
C926 C928 1.384 . S
C927 C926 1.377 . S
C927 C933 1.390 . S
C928 H919 0.930 . S
C928 C926 1.384 . S
C928 C929 1.372 . S
C929 C928 1.372 . S
C929 C930 1.400 . S
C929 C934 1.490 . S
C930 H920 0.930 . S
C930 C929 1.400 . S
C930 C933 1.386 . S
H931 C947 0.930 . S
H932 C948 0.931 . S
C933 H921 0.929 . S
C933 C927 1.390 . S
C933 C930 1.386 . S
C934 C929 1.490 . S
C934 C936 1.395 . S
C934 C937 1.403 . S
H935 C941 0.930 . S
C936 H922 0.930 . S
C936 C934 1.395 . S
C936 C939 1.403 . S
C937 C934 1.403 . S
C937 C938 1.524 . S
C937 C941 1.400 . S
C938 H923 0.960 . S
C938 H924 0.960 . S
C938 H925 0.960 . S
C938 C937 1.524 . S
C939 C936 1.403 . S
C939 C940 1.392 . S
C939 C943 1.495 . S
C940 C939 1.392 . S
C940 C941 1.385 . S
C940 C942 1.478 . S
C941 H935 0.930 . S
C941 C937 1.400 . S
C941 C940 1.385 . S
C942 C940 1.478 . S
C942 C944 1.381 . S
C942 C948 1.383 . S
C943 C939 1.495 . S
C943 H949 0.959 . S
C943 H950 0.961 . S
C943 H951 0.960 . S
C944 C942 1.381 . S
C944 C945 1.394 . S
C944 H952 0.930 . S
C945 C944 1.394 . S
C945 C946 1.383 . S
C945 H953 0.929 . S
C946 C945 1.383 . S
C946 C947 1.377 . S
C947 H931 0.930 . S
C947 C946 1.377 . S
C947 C948 1.379 . S
C948 H932 0.931 . S
C948 C942 1.383 . S
C948 C947 1.379 . S
H949 C943 0.959 . S
H950 C943 0.961 . S
H951 C943 0.960 . S
H952 C944 0.930 . S
H953 C945 0.929 . S
H954 C962 0.929 . S
H955 C964 0.930 . S
H956 C966 0.930 . S
H957 C969 0.929 . S
H958 C972 0.930 . S
H959 C974 0.960 . S
H960 C974 0.960 . S
H961 C974 0.960 . S
C962 H954 0.929 . S
C962 C963 1.377 . S
C962 C964 1.384 . S
C963 C962 1.377 . S
C963 C969 1.390 . S
C964 H955 0.930 . S
C964 C962 1.384 . S
C964 C965 1.372 . S
C965 C964 1.372 . S
C965 C966 1.400 . S
C965 C970 1.490 . S
C966 H956 0.930 . S
C966 C965 1.400 . S
C966 C969 1.386 . S
H967 C983 0.930 . S
H968 C984 0.931 . S
C969 H957 0.929 . S
C969 C963 1.390 . S
C969 C966 1.386 . S
C970 C965 1.490 . S
C970 C972 1.395 . S
C970 C973 1.403 . S
H971 C977 0.930 . S
C972 H958 0.930 . S
C972 C970 1.395 . S
C972 C975 1.403 . S
C973 C970 1.403 . S
C973 C974 1.524 . S
C973 C977 1.400 . S
C974 H959 0.960 . S
C974 H960 0.960 . S
C974 H961 0.960 . S
C974 C973 1.524 . S
C975 C972 1.403 . S
C975 C976 1.392 . S
C975 C979 1.495 . S
C976 C975 1.392 . S
C976 C977 1.385 . S
C976 C978 1.478 . S
C977 H971 0.930 . S
C977 C973 1.400 . S
C977 C976 1.385 . S
C978 C976 1.478 . S
C978 C980 1.381 . S
C978 C984 1.383 . S
C979 C975 1.495 . S
C979 H985 0.959 . S
C979 H986 0.961 . S
C979 H987 0.960 . S
C980 C978 1.381 . S
C980 C981 1.394 . S
C980 H988 0.930 . S
C981 C980 1.394 . S
C981 C982 1.383 . S
C981 H989 0.929 . S
C982 C981 1.383 . S
C982 C983 1.377 . S
C983 H967 0.930 . S
C983 C982 1.377 . S
C983 C984 1.379 . S
C984 H968 0.931 . S
C984 C978 1.383 . S
C984 C983 1.379 . S
H985 C979 0.959 . S
H986 C979 0.961 . S
H987 C979 0.960 . S
H988 C980 0.930 . S
H989 C981 0.929 . S
H990 C998 0.929 . S
H991 C1000 0.930 . S
H992 C1002 0.930 . S
H993 C1005 0.929 . S
H994 C1008 0.930 . S
H995 C1010 0.960 . S
H996 C1010 0.960 . S
H997 C1010 0.960 . S
C998 H990 0.929 . S
C998 C999 1.377 . S
C998 C1000 1.384 . S
C999 C998 1.377 . S
C999 C1005 1.390 . S
C1000 H991 0.930 . S
C1000 C998 1.384 . S
C1000 C1001 1.372 . S
C1001 C1000 1.372 . S
C1001 C1002 1.400 . S
C1001 C1006 1.490 . S
C1002 H992 0.930 . S
C1002 C1001 1.400 . S
C1002 C1005 1.386 . S
H1003 C1019 0.930 . S
H1004 C1020 0.931 . S
C1005 H993 0.929 . S
C1005 C999 1.390 . S
C1005 C1002 1.386 . S
C1006 C1001 1.490 . S
C1006 C1008 1.395 . S
C1006 C1009 1.403 . S
H1007 C1013 0.930 . S
C1008 H994 0.930 . S
C1008 C1006 1.395 . S
C1008 C1011 1.403 . S
C1009 C1006 1.403 . S
C1009 C1010 1.524 . S
C1009 C1013 1.400 . S
C1010 H995 0.960 . S
C1010 H996 0.960 . S
C1010 H997 0.960 . S
C1010 C1009 1.524 . S
C1011 C1008 1.403 . S
C1011 C1012 1.392 . S
C1011 C1015 1.495 . S
C1012 C1011 1.392 . S
C1012 C1013 1.385 . S
C1012 C1014 1.478 . S
C1013 H1007 0.930 . S
C1013 C1009 1.400 . S
C1013 C1012 1.385 . S
C1014 C1012 1.478 . S
C1014 C1016 1.381 . S
C1014 C1020 1.383 . S
C1015 C1011 1.495 . S
C1015 H1021 0.959 . S
C1015 H1022 0.961 1_554 S
C1015 H1023 0.960 . S
C1016 C1014 1.381 . S
C1016 C1017 1.394 . S
C1016 H1024 0.930 . S
C1017 C1016 1.394 . S
C1017 C1018 1.383 . S
C1017 H1025 0.929 . S
C1018 C1017 1.383 . S
C1018 C1019 1.377 . S
C1019 H1003 0.930 . S
C1019 C1018 1.377 . S
C1019 C1020 1.379 . S
C1020 H1004 0.931 . S
C1020 C1014 1.383 . S
C1020 C1019 1.379 . S
H1021 C1015 0.959 . S
H1022 C1015 0.961 1_556 S
H1023 C1015 0.960 . S
H1024 C1016 0.930 . S
H1025 C1017 0.929 . S
H1026 C1034 0.929 . S
H1027 C1036 0.930 . S
H1028 C1038 0.930 . S
H1029 C1041 0.929 . S
H1030 C1044 0.930 . S
H1031 C1046 0.960 . S
H1032 C1046 0.960 . S
H1033 C1046 0.960 . S
C1034 H1026 0.929 . S
C1034 C1035 1.377 . S
C1034 C1036 1.384 . S
C1035 C1034 1.377 . S
C1035 C1041 1.390 . S
C1036 H1027 0.930 . S
C1036 C1034 1.384 . S
C1036 C1037 1.372 . S
C1037 C1036 1.372 . S
C1037 C1038 1.400 . S
C1037 C1042 1.490 . S
C1038 H1028 0.930 . S
C1038 C1037 1.400 . S
C1038 C1041 1.386 . S
H1039 C1055 0.930 . S
H1040 C1056 0.931 . S
C1041 H1029 0.929 . S
C1041 C1035 1.390 . S
C1041 C1038 1.386 . S
C1042 C1037 1.490 . S
C1042 C1044 1.395 . S
C1042 C1045 1.403 . S
H1043 C1049 0.930 . S
C1044 H1030 0.930 . S
C1044 C1042 1.395 . S
C1044 C1047 1.403 1_655 S
C1045 C1042 1.403 . S
C1045 C1046 1.524 . S
C1045 C1049 1.400 1_655 S
C1046 H1031 0.960 . S
C1046 H1032 0.960 . S
C1046 H1033 0.960 . S
C1046 C1045 1.524 . S
C1047 C1044 1.403 1_455 S
C1047 C1048 1.392 . S
C1047 C1051 1.495 . S
C1048 C1047 1.392 . S
C1048 C1049 1.385 . S
C1048 C1050 1.478 . S
C1049 H1043 0.930 . S
C1049 C1045 1.400 1_455 S
C1049 C1048 1.385 . S
C1050 C1048 1.478 . S
C1050 C1052 1.381 . S
C1050 C1056 1.383 . S
C1051 C1047 1.495 . S
C1051 H1057 0.959 . S
C1051 H1058 0.961 . S
C1051 H1059 0.960 . S
C1052 C1050 1.381 . S
C1052 C1053 1.394 . S
C1052 H1060 0.930 . S
C1053 C1052 1.394 . S
C1053 C1054 1.383 . S
C1053 H1061 0.929 . S
C1054 C1053 1.383 . S
C1054 C1055 1.377 . S
C1055 H1039 0.930 . S
C1055 C1054 1.377 . S
C1055 C1056 1.379 . S
C1056 H1040 0.931 . S
C1056 C1050 1.383 . S
C1056 C1055 1.379 . S
H1057 C1051 0.959 . S
H1058 C1051 0.961 . S
H1059 C1051 0.960 . S
H1060 C1052 0.930 . S
H1061 C1053 0.929 . S
H1062 C1070 0.929 . S
H1063 C1072 0.930 . S
H1064 C1074 0.930 . S
H1065 C1077 0.929 . S
H1066 C1080 0.930 . S
H1067 C1082 0.960 . S
H1068 C1082 0.960 . S
H1069 C1082 0.960 . S
C1070 H1062 0.929 . S
C1070 C1071 1.377 . S
C1070 C1072 1.384 . S
C1071 C1070 1.377 . S
C1071 C1077 1.390 . S
C1072 H1063 0.930 . S
C1072 C1070 1.384 . S
C1072 C1073 1.372 . S
C1073 C1072 1.372 . S
C1073 C1074 1.400 . S
C1073 C1078 1.490 . S
C1074 H1064 0.930 . S
C1074 C1073 1.400 . S
C1074 C1077 1.386 . S
H1075 C1091 0.930 . S
H1076 C1092 0.931 . S
C1077 H1065 0.929 . S
C1077 C1071 1.390 . S
C1077 C1074 1.386 . S
C1078 C1073 1.490 . S
C1078 C1080 1.395 . S
C1078 C1081 1.403 . S
H1079 C1085 0.930 . S
C1080 H1066 0.930 . S
C1080 C1078 1.395 . S
C1080 C1083 1.403 . S
C1081 C1078 1.403 . S
C1081 C1082 1.524 . S
C1081 C1085 1.400 . S
C1082 H1067 0.960 . S
C1082 H1068 0.960 . S
C1082 H1069 0.960 . S
C1082 C1081 1.524 . S
C1083 C1080 1.403 . S
C1083 C1084 1.392 . S
C1083 C1087 1.495 . S
C1084 C1083 1.392 . S
C1084 C1085 1.385 . S
C1084 C1086 1.478 . S
C1085 H1079 0.930 . S
C1085 C1081 1.400 . S
C1085 C1084 1.385 . S
C1086 C1084 1.478 . S
C1086 C1088 1.381 . S
C1086 C1092 1.383 . S
C1087 C1083 1.495 . S
C1087 H1093 0.959 . S
C1087 H1094 0.961 . S
C1087 H1095 0.960 . S
C1088 C1086 1.381 . S
C1088 C1089 1.394 . S
C1088 H1096 0.930 . S
C1089 C1088 1.394 . S
C1089 C1090 1.383 . S
C1089 H1097 0.929 . S
C1090 C1089 1.383 . S
C1090 C1091 1.377 . S
C1091 H1075 0.930 . S
C1091 C1090 1.377 . S
C1091 C1092 1.379 . S
C1092 H1076 0.931 . S
C1092 C1086 1.383 . S
C1092 C1091 1.379 . S
H1093 C1087 0.959 . S
H1094 C1087 0.961 . S
H1095 C1087 0.960 . S
H1096 C1088 0.930 . S
H1097 C1089 0.929 . S
H1098 C1106 0.929 . S
H1099 C1108 0.930 . S
H1100 C1110 0.930 . S
H1101 C1113 0.929 . S
H1102 C1116 0.930 . S
H1103 C1118 0.960 . S
H1104 C1118 0.960 . S
H1105 C1118 0.960 . S
C1106 H1098 0.929 . S
C1106 C1107 1.377 . S
C1106 C1108 1.384 . S
C1107 C1106 1.377 . S
C1107 C1113 1.390 . S
C1108 H1099 0.930 . S
C1108 C1106 1.384 . S
C1108 C1109 1.372 . S
C1109 C1108 1.372 . S
C1109 C1110 1.400 . S
C1109 C1114 1.490 . S
C1110 H1100 0.930 . S
C1110 C1109 1.400 . S
C1110 C1113 1.386 . S
H1111 C1127 0.930 . S
H1112 C1128 0.931 . S
C1113 H1101 0.929 . S
C1113 C1107 1.390 . S
C1113 C1110 1.386 . S
C1114 C1109 1.490 . S
C1114 C1116 1.395 . S
C1114 C1117 1.403 . S
H1115 C1121 0.930 . S
C1116 H1102 0.930 . S
C1116 C1114 1.395 . S
C1116 C1119 1.403 . S
C1117 C1114 1.403 . S
C1117 C1118 1.524 . S
C1117 C1121 1.400 . S
C1118 H1103 0.960 . S
C1118 H1104 0.960 . S
C1118 H1105 0.960 . S
C1118 C1117 1.524 . S
C1119 C1116 1.403 . S
C1119 C1120 1.392 1_545 S
C1119 C1123 1.495 1_545 S
C1120 C1119 1.392 1_565 S
C1120 C1121 1.385 1_565 S
C1120 C1122 1.478 . S
C1121 H1115 0.930 . S
C1121 C1117 1.400 . S
C1121 C1120 1.385 1_545 S
C1122 C1120 1.478 . S
C1122 C1124 1.381 . S
C1122 C1128 1.383 . S
C1123 C1119 1.495 1_565 S
C1123 H1129 0.959 . S
C1123 H1130 0.961 . S
C1123 H1131 0.960 . S
C1124 C1122 1.381 . S
C1124 C1125 1.394 . S
C1124 H1132 0.930 . S
C1125 C1124 1.394 . S
C1125 C1126 1.383 . S
C1125 H1133 0.929 . S
C1126 C1125 1.383 . S
C1126 C1127 1.377 . S
C1127 H1111 0.930 . S
C1127 C1126 1.377 . S
C1127 C1128 1.379 . S
C1128 H1112 0.931 . S
C1128 C1122 1.383 . S
C1128 C1127 1.379 . S
H1129 C1123 0.959 . S
H1130 C1123 0.961 . S
H1131 C1123 0.960 . S
H1132 C1124 0.930 . S
H1133 C1125 0.929 . S
H1134 C1142 0.929 . S
H1135 C1144 0.930 . S
H1136 C1146 0.930 . S
H1137 C1149 0.929 . S
H1138 C1152 0.930 . S
H1139 C1154 0.960 . S
H1140 C1154 0.960 . S
H1141 C1154 0.960 . S
C1142 H1134 0.929 . S
C1142 C1143 1.377 . S
C1142 C1144 1.384 . S
C1143 C1142 1.377 . S
C1143 C1149 1.390 . S
C1144 H1135 0.930 . S
C1144 C1142 1.384 . S
C1144 C1145 1.372 . S
C1145 C1144 1.372 . S
C1145 C1146 1.400 . S
C1145 C1150 1.490 . S
C1146 H1136 0.930 . S
C1146 C1145 1.400 . S
C1146 C1149 1.386 . S
H1147 C1163 0.930 . S
H1148 C1164 0.931 . S
C1149 H1137 0.929 . S
C1149 C1143 1.390 . S
C1149 C1146 1.386 . S
C1150 C1145 1.490 . S
C1150 C1152 1.395 . S
C1150 C1153 1.403 . S
H1151 C1157 0.930 . S
C1152 H1138 0.930 . S
C1152 C1150 1.395 . S
C1152 C1155 1.403 . S
C1153 C1150 1.403 . S
C1153 C1154 1.524 . S
C1153 C1157 1.400 . S
C1154 H1139 0.960 . S
C1154 H1140 0.960 . S
C1154 H1141 0.960 . S
C1154 C1153 1.524 . S
C1155 C1152 1.403 . S
C1155 C1156 1.392 . S
C1155 C1159 1.495 . S
C1156 C1155 1.392 . S
C1156 C1157 1.385 . S
C1156 C1158 1.478 . S
C1157 H1151 0.930 . S
C1157 C1153 1.400 . S
C1157 C1156 1.385 . S
C1158 C1156 1.478 . S
C1158 C1160 1.381 . S
C1158 C1164 1.383 . S
C1159 C1155 1.495 . S
C1159 H1165 0.959 . S
C1159 H1166 0.961 . S
C1159 H1167 0.960 . S
C1160 C1158 1.381 . S
C1160 C1161 1.394 . S
C1160 H1168 0.930 . S
C1161 C1160 1.394 . S
C1161 C1162 1.383 . S
C1161 H1169 0.929 . S
C1162 C1161 1.383 . S
C1162 C1163 1.377 . S
C1163 H1147 0.930 . S
C1163 C1162 1.377 . S
C1163 C1164 1.379 . S
C1164 H1148 0.931 . S
C1164 C1158 1.383 . S
C1164 C1163 1.379 . S
H1165 C1159 0.959 . S
H1166 C1159 0.961 . S
H1167 C1159 0.960 . S
H1168 C1160 0.930 . S
H1169 C1161 0.929 . S
H1170 C1178 0.929 . S
H1171 C1180 0.930 . S
H1172 C1182 0.930 . S
H1173 C1185 0.929 . S
H1174 C1188 0.930 . S
H1175 C1190 0.960 . S
H1176 C1190 0.960 . S
H1177 C1190 0.960 . S
C1178 H1170 0.929 . S
C1178 C1179 1.377 . S
C1178 C1180 1.384 . S
C1179 C1178 1.377 . S
C1179 C1185 1.390 . S
C1180 H1171 0.930 . S
C1180 C1178 1.384 . S
C1180 C1181 1.372 . S
C1181 C1180 1.372 . S
C1181 C1182 1.400 . S
C1181 C1186 1.490 . S
C1182 H1172 0.930 . S
C1182 C1181 1.400 . S
C1182 C1185 1.386 . S
H1183 C1199 0.930 . S
H1184 C1200 0.931 . S
C1185 H1173 0.929 . S
C1185 C1179 1.390 . S
C1185 C1182 1.386 . S
C1186 C1181 1.490 . S
C1186 C1188 1.395 . S
C1186 C1189 1.403 . S
H1187 C1193 0.930 . S
C1188 H1174 0.930 . S
C1188 C1186 1.395 . S
C1188 C1191 1.403 . S
C1189 C1186 1.403 . S
C1189 C1190 1.524 . S
C1189 C1193 1.400 . S
C1190 H1175 0.960 . S
C1190 H1176 0.960 . S
C1190 H1177 0.960 . S
C1190 C1189 1.524 . S
C1191 C1188 1.403 . S
C1191 C1192 1.392 . S
C1191 C1195 1.495 . S
C1192 C1191 1.392 . S
C1192 C1193 1.385 . S
C1192 C1194 1.478 . S
C1193 H1187 0.930 . S
C1193 C1189 1.400 . S
C1193 C1192 1.385 . S
C1194 C1192 1.478 . S
C1194 C1196 1.381 . S
C1194 C1200 1.383 . S
C1195 C1191 1.495 . S
C1195 H1201 0.959 . S
C1195 H1202 0.961 . S
C1195 H1203 0.960 . S
C1196 C1194 1.381 . S
C1196 C1197 1.394 . S
C1196 H1204 0.930 . S
C1197 C1196 1.394 . S
C1197 C1198 1.383 . S
C1197 H1205 0.929 . S
C1198 C1197 1.383 . S
C1198 C1199 1.377 . S
C1199 H1183 0.930 . S
C1199 C1198 1.377 . S
C1199 C1200 1.379 . S
C1200 H1184 0.931 . S
C1200 C1194 1.383 . S
C1200 C1199 1.379 . S
H1201 C1195 0.959 . S
H1202 C1195 0.961 . S
H1203 C1195 0.960 . S
H1204 C1196 0.930 . S
H1205 C1197 0.929 . S
H1206 C1214 0.929 . S
H1207 C1216 0.930 . S
H1208 C1218 0.930 . S
H1209 C1221 0.929 . S
H1210 C1224 0.930 . S
H1211 C1226 0.960 . S
H1212 C1226 0.960 . S
H1213 C1226 0.960 . S
C1214 H1206 0.929 . S
C1214 C1215 1.377 . S
C1214 C1216 1.384 . S
C1215 C1214 1.377 . S
C1215 C1221 1.390 . S
C1216 H1207 0.930 . S
C1216 C1214 1.384 . S
C1216 C1217 1.372 . S
C1217 C1216 1.372 . S
C1217 C1218 1.400 . S
C1217 C1222 1.490 . S
C1218 H1208 0.930 . S
C1218 C1217 1.400 . S
C1218 C1221 1.386 . S
H1219 C1235 0.930 . S
H1220 C1236 0.931 . S
C1221 H1209 0.929 . S
C1221 C1215 1.390 . S
C1221 C1218 1.386 . S
C1222 C1217 1.490 . S
C1222 C1224 1.395 . S
C1222 C1225 1.403 . S
H1223 C1229 0.930 . S
C1224 H1210 0.930 . S
C1224 C1222 1.395 . S
C1224 C1227 1.403 . S
C1225 C1222 1.403 . S
C1225 C1226 1.524 . S
C1225 C1229 1.400 . S
C1226 H1211 0.960 . S
C1226 H1212 0.960 . S
C1226 H1213 0.960 . S
C1226 C1225 1.524 . S
C1227 C1224 1.403 . S
C1227 C1228 1.392 . S
C1227 C1231 1.495 . S
C1228 C1227 1.392 . S
C1228 C1229 1.385 . S
C1228 C1230 1.478 . S
C1229 H1223 0.930 . S
C1229 C1225 1.400 . S
C1229 C1228 1.385 . S
C1230 C1228 1.478 . S
C1230 C1232 1.381 . S
C1230 C1236 1.383 . S
C1231 C1227 1.495 . S
C1231 H1237 0.959 . S
C1231 H1238 0.961 . S
C1231 H1239 0.960 . S
C1232 C1230 1.381 . S
C1232 C1233 1.394 . S
C1232 H1240 0.930 . S
C1233 C1232 1.394 . S
C1233 C1234 1.383 . S
C1233 H1241 0.929 . S
C1234 C1233 1.383 . S
C1234 C1235 1.377 . S
C1235 H1219 0.930 . S
C1235 C1234 1.377 . S
C1235 C1236 1.379 . S
C1236 H1220 0.931 . S
C1236 C1230 1.383 . S
C1236 C1235 1.379 . S
H1237 C1231 0.959 . S
H1238 C1231 0.961 . S
H1239 C1231 0.960 . S
H1240 C1232 0.930 . S
H1241 C1233 0.929 . S
H1242 C1250 0.929 . S
H1243 C1252 0.930 . S
H1244 C1254 0.930 . S
H1245 C1257 0.929 . S
H1246 C1260 0.930 . S
H1247 C1262 0.960 . S
H1248 C1262 0.960 . S
H1249 C1262 0.960 . S
C1250 H1242 0.929 . S
C1250 C1251 1.377 . S
C1250 C1252 1.384 . S
C1251 C1250 1.377 . S
C1251 C1257 1.390 . S
C1252 H1243 0.930 . S
C1252 C1250 1.384 . S
C1252 C1253 1.372 . S
C1253 C1252 1.372 . S
C1253 C1254 1.400 . S
C1253 C1258 1.490 . S
C1254 H1244 0.930 . S
C1254 C1253 1.400 . S
C1254 C1257 1.386 . S
H1255 C1271 0.930 . S
H1256 C1272 0.931 . S
C1257 H1245 0.929 . S
C1257 C1251 1.390 . S
C1257 C1254 1.386 . S
C1258 C1253 1.490 . S
C1258 C1260 1.395 . S
C1258 C1261 1.403 . S
H1259 C1265 0.930 . S
C1260 H1246 0.930 . S
C1260 C1258 1.395 . S
C1260 C1263 1.403 . S
C1261 C1258 1.403 . S
C1261 C1262 1.524 . S
C1261 C1265 1.400 . S
C1262 H1247 0.960 . S
C1262 H1248 0.960 . S
C1262 H1249 0.960 . S
C1262 C1261 1.524 . S
C1263 C1260 1.403 . S
C1263 C1264 1.392 . S
C1263 C1267 1.495 . S
C1264 C1263 1.392 . S
C1264 C1265 1.385 . S
C1264 C1266 1.478 . S
C1265 H1259 0.930 . S
C1265 C1261 1.400 . S
C1265 C1264 1.385 . S
C1266 C1264 1.478 . S
C1266 C1268 1.381 . S
C1266 C1272 1.383 . S
C1267 C1263 1.495 . S
C1267 H1273 0.959 . S
C1267 H1274 0.961 . S
C1267 H1275 0.960 . S
C1268 C1266 1.381 . S
C1268 C1269 1.394 . S
C1268 H1276 0.930 . S
C1269 C1268 1.394 . S
C1269 C1270 1.383 . S
C1269 H1277 0.929 . S
C1270 C1269 1.383 . S
C1270 C1271 1.377 . S
C1271 H1255 0.930 . S
C1271 C1270 1.377 . S
C1271 C1272 1.379 . S
C1272 H1256 0.931 . S
C1272 C1266 1.383 . S
C1272 C1271 1.379 . S
H1273 C1267 0.959 . S
H1274 C1267 0.961 . S
H1275 C1267 0.960 . S
H1276 C1268 0.930 . S
H1277 C1269 0.929 . S
H1278 C1286 0.929 . S
H1279 C1288 0.930 . S
H1280 C1290 0.930 . S
H1281 C1293 0.929 . S
H1282 C1296 0.930 . S
H1283 C1298 0.960 . S
H1284 C1298 0.960 . S
H1285 C1298 0.960 . S
C1286 H1278 0.929 . S
C1286 C1287 1.377 . S
C1286 C1288 1.384 . S
C1287 C1286 1.377 . S
C1287 C1293 1.390 . S
C1288 H1279 0.930 . S
C1288 C1286 1.384 . S
C1288 C1289 1.372 . S
C1289 C1288 1.372 . S
C1289 C1290 1.400 . S
C1289 C1294 1.490 . S
C1290 H1280 0.930 . S
C1290 C1289 1.400 . S
C1290 C1293 1.386 . S
H1291 C1307 0.930 . S
H1292 C1308 0.931 . S
C1293 H1281 0.929 . S
C1293 C1287 1.390 . S
C1293 C1290 1.386 . S
C1294 C1289 1.490 . S
C1294 C1296 1.395 . S
C1294 C1297 1.403 . S
H1295 C1301 0.930 . S
C1296 H1282 0.930 . S
C1296 C1294 1.395 . S
C1296 C1299 1.403 . S
C1297 C1294 1.403 . S
C1297 C1298 1.524 . S
C1297 C1301 1.400 . S
C1298 H1283 0.960 . S
C1298 H1284 0.960 . S
C1298 H1285 0.960 . S
C1298 C1297 1.524 . S
C1299 C1296 1.403 . S
C1299 C1300 1.392 . S
C1299 C1303 1.495 . S
C1300 C1299 1.392 . S
C1300 C1301 1.385 . S
C1300 C1302 1.478 . S
C1301 H1295 0.930 . S
C1301 C1297 1.400 . S
C1301 C1300 1.385 . S
C1302 C1300 1.478 . S
C1302 C1304 1.381 . S
C1302 C1308 1.383 . S
C1303 C1299 1.495 . S
C1303 H1309 0.959 . S
C1303 H1310 0.961 . S
C1303 H1311 0.960 . S
C1304 C1302 1.381 . S
C1304 C1305 1.394 . S
C1304 H1312 0.930 . S
C1305 C1304 1.394 . S
C1305 C1306 1.383 . S
C1305 H1313 0.929 . S
C1306 C1305 1.383 . S
C1306 C1307 1.377 . S
C1307 H1291 0.930 . S
C1307 C1306 1.377 . S
C1307 C1308 1.379 . S
C1308 H1292 0.931 . S
C1308 C1302 1.383 . S
C1308 C1307 1.379 . S
H1309 C1303 0.959 . S
H1310 C1303 0.961 . S
H1311 C1303 0.960 . S
H1312 C1304 0.930 . S
H1313 C1305 0.929 . S
H1314 C1322 0.929 . S
H1315 C1324 0.930 . S
H1316 C1326 0.930 . S
H1317 C1329 0.929 . S
H1318 C1332 0.930 . S
H1319 C1334 0.960 . S
H1320 C1334 0.960 . S
H1321 C1334 0.960 . S
C1322 H1314 0.929 . S
C1322 C1323 1.377 . S
C1322 C1324 1.384 . S
C1323 C1322 1.377 . S
C1323 C1329 1.390 . S
C1324 H1315 0.930 . S
C1324 C1322 1.384 . S
C1324 C1325 1.372 . S
C1325 C1324 1.372 . S
C1325 C1326 1.400 . S
C1325 C1330 1.490 . S
C1326 H1316 0.930 . S
C1326 C1325 1.400 . S
C1326 C1329 1.386 . S
H1327 C1343 0.930 . S
H1328 C1344 0.931 . S
C1329 H1317 0.929 . S
C1329 C1323 1.390 . S
C1329 C1326 1.386 . S
C1330 C1325 1.490 . S
C1330 C1332 1.395 . S
C1330 C1333 1.403 . S
H1331 C1337 0.930 . S
C1332 H1318 0.930 . S
C1332 C1330 1.395 . S
C1332 C1335 1.403 . S
C1333 C1330 1.403 . S
C1333 C1334 1.524 . S
C1333 C1337 1.400 . S
C1334 H1319 0.960 . S
C1334 H1320 0.960 . S
C1334 H1321 0.960 . S
C1334 C1333 1.524 . S
C1335 C1332 1.403 . S
C1335 C1336 1.392 . S
C1335 C1339 1.495 . S
C1336 C1335 1.392 . S
C1336 C1337 1.385 . S
C1336 C1338 1.478 . S
C1337 H1331 0.930 . S
C1337 C1333 1.400 . S
C1337 C1336 1.385 . S
C1338 C1336 1.478 . S
C1338 C1340 1.381 . S
C1338 C1344 1.383 . S
C1339 C1335 1.495 . S
C1339 H1345 0.959 . S
C1339 H1346 0.961 . S
C1339 H1347 0.960 . S
C1340 C1338 1.381 . S
C1340 C1341 1.394 . S
C1340 H1348 0.930 . S
C1341 C1340 1.394 . S
C1341 C1342 1.383 . S
C1341 H1349 0.929 . S
C1342 C1341 1.383 . S
C1342 C1343 1.377 . S
C1343 H1327 0.930 . S
C1343 C1342 1.377 . S
C1343 C1344 1.379 . S
C1344 H1328 0.931 . S
C1344 C1338 1.383 . S
C1344 C1343 1.379 . S
H1345 C1339 0.959 . S
H1346 C1339 0.961 . S
H1347 C1339 0.960 . S
H1348 C1340 0.930 . S
H1349 C1341 0.929 . S
H1350 C1358 0.929 . S
H1351 C1360 0.930 . S
H1352 C1362 0.930 . S
H1353 C1365 0.929 . S
H1354 C1368 0.930 . S
H1355 C1370 0.960 . S
H1356 C1370 0.987 . S
H1357 C1370 0.960 . S
C1358 H1350 0.929 . S
C1358 C1359 1.377 . S
C1358 C1360 1.384 . S
C1359 C1358 1.377 . S
C1359 C1365 1.390 . S
C1360 H1351 0.930 . S
C1360 C1358 1.384 . S
C1360 C1361 1.372 . S
C1361 C1360 1.372 . S
C1361 C1362 1.400 . S
C1361 C1366 1.490 1_545 S
C1362 H1352 0.930 . S
C1362 C1361 1.400 . S
C1362 C1365 1.386 . S
H1363 C1379 0.930 . S
H1364 C1380 0.931 . S
C1365 H1353 0.929 . S
C1365 C1359 1.390 . S
C1365 C1362 1.386 . S
C1366 C1361 1.490 1_565 S
C1366 C1368 1.395 . S
C1366 C1369 1.403 . S
H1367 C1373 0.930 . S
C1368 H1354 0.930 . S
C1368 C1366 1.395 . S
C1368 C1371 1.403 . S
C1369 C1366 1.403 . S
C1369 C1370 1.524 . S
C1369 C1373 1.400 . S
C1370 H1355 0.960 . S
C1370 H1356 0.987 . S
C1370 H1357 0.960 . S
C1370 C1369 1.524 . S
C1371 C1368 1.403 . S
C1371 C1372 1.392 . S
C1371 C1375 1.495 . S
C1372 C1371 1.392 . S
C1372 C1373 1.385 . S
C1372 C1374 1.478 . S
C1373 H1367 0.930 . S
C1373 C1369 1.400 . S
C1373 C1372 1.385 . S
C1374 C1372 1.478 . S
C1374 C1376 1.381 . S
C1374 C1380 1.383 . S
C1375 C1371 1.495 . S
C1375 H1381 0.959 . S
C1375 H1382 0.961 . S
C1375 H1383 0.960 . S
C1376 C1374 1.381 . S
C1376 C1377 1.394 . S
C1376 H1384 0.930 . S
C1377 C1376 1.394 . S
C1377 C1378 1.383 . S
C1377 H1385 0.929 . S
C1378 C1377 1.383 . S
C1378 C1379 1.377 . S
C1379 H1363 0.930 . S
C1379 C1378 1.377 . S
C1379 C1380 1.379 . S
C1380 H1364 0.931 . S
C1380 C1374 1.383 . S
C1380 C1379 1.379 . S
H1381 C1375 0.959 . S
H1382 C1375 0.961 . S
H1383 C1375 0.960 . S
H1384 C1376 0.930 . S
H1385 C1377 0.929 . S
H1386 C1394 0.929 . S
H1387 C1396 0.930 . S
H1388 C1398 0.930 . S
H1389 C1401 0.929 . S
H1390 C1404 0.930 . S
H1391 C1406 0.960 . S
H1392 C1406 0.960 . S
H1393 C1406 0.960 . S
C1394 H1386 0.929 . S
C1394 C1395 1.377 . S
C1394 C1396 1.384 1_655 S
C1395 C1394 1.377 . S
C1395 C1401 1.390 . S
C1396 H1387 0.930 . S
C1396 C1394 1.384 1_455 S
C1396 C1397 1.372 . S
C1397 C1396 1.372 . S
C1397 C1398 1.400 1_455 S
C1397 C1402 1.490 . S
C1398 H1388 0.930 . S
C1398 C1397 1.400 1_655 S
C1398 C1401 1.386 . S
H1399 C1415 0.930 . S
H1400 C1416 0.931 . S
C1401 H1389 0.929 . S
C1401 C1395 1.390 . S
C1401 C1398 1.386 . S
C1402 C1397 1.490 . S
C1402 C1404 1.395 . S
C1402 C1405 1.403 . S
H1403 C1409 0.930 . S
C1404 H1390 0.930 . S
C1404 C1402 1.395 . S
C1404 C1407 1.403 . S
C1405 C1402 1.403 . S
C1405 C1406 1.524 . S
C1405 C1409 1.400 . S
C1406 H1391 0.960 . S
C1406 H1392 0.960 . S
C1406 H1393 0.960 . S
C1406 C1405 1.524 . S
C1407 C1404 1.403 . S
C1407 C1408 1.392 . S
C1407 C1411 1.495 . S
C1408 C1407 1.392 . S
C1408 C1409 1.385 . S
C1408 C1410 1.478 . S
C1409 H1403 0.930 . S
C1409 C1405 1.400 . S
C1409 C1408 1.385 . S
C1410 C1408 1.478 . S
C1410 C1412 1.381 . S
C1410 C1416 1.383 . S
C1411 C1407 1.495 . S
C1411 H1417 0.959 . S
C1411 H1418 0.961 . S
C1411 H1419 0.960 . S
C1412 C1410 1.381 . S
C1412 C1413 1.394 . S
C1412 H1420 0.930 . S
C1413 C1412 1.394 . S
C1413 C1414 1.383 . S
C1413 H1421 0.929 . S
C1414 C1413 1.383 . S
C1414 C1415 1.377 . S
C1415 H1399 0.930 . S
C1415 C1414 1.377 . S
C1415 C1416 1.379 . S
C1416 H1400 0.931 . S
C1416 C1410 1.383 . S
C1416 C1415 1.379 . S
H1417 C1411 0.959 . S
H1418 C1411 0.961 . S
H1419 C1411 0.960 . S
H1420 C1412 0.930 . S
H1421 C1413 0.929 . S
H1422 C1430 0.929 . S
H1423 C1432 0.930 . S
H1424 C1434 0.930 . S
H1425 C1437 0.929 . S
H1426 C1440 0.930 . S
H1427 C1442 0.960 . S
H1428 C1442 0.960 . S
H1429 C1442 0.960 . S
C1430 H1422 0.929 . S
C1430 C1431 1.377 . S
C1430 C1432 1.384 . S
C1431 C1430 1.377 . S
C1431 C1437 1.390 . S
C1432 H1423 0.930 . S
C1432 C1430 1.384 . S
C1432 C1433 1.372 . S
C1433 C1432 1.372 . S
C1433 C1434 1.400 . S
C1433 C1438 1.490 . S
C1434 H1424 0.930 . S
C1434 C1433 1.400 . S
C1434 C1437 1.386 . S
H1435 C1451 0.930 . S
H1436 C1452 0.931 . S
C1437 H1425 0.929 . S
C1437 C1431 1.390 . S
C1437 C1434 1.386 . S
C1438 C1433 1.490 . S
C1438 C1440 1.395 . S
C1438 C1441 1.403 . S
H1439 C1445 0.930 . S
C1440 H1426 0.930 . S
C1440 C1438 1.395 . S
C1440 C1443 1.403 . S
C1441 C1438 1.403 . S
C1441 C1442 1.524 . S
C1441 C1445 1.400 . S
C1442 H1427 0.960 . S
C1442 H1428 0.960 . S
C1442 H1429 0.960 . S
C1442 C1441 1.524 . S
C1443 C1440 1.403 . S
C1443 C1444 1.392 . S
C1443 C1447 1.495 . S
C1444 C1443 1.392 . S
C1444 C1445 1.385 . S
C1444 C1446 1.478 . S
C1445 H1439 0.930 . S
C1445 C1441 1.400 . S
C1445 C1444 1.385 . S
C1446 C1444 1.478 . S
C1446 C1448 1.381 . S
C1446 C1452 1.383 . S
C1447 C1443 1.495 . S
C1447 H1453 0.959 . S
C1447 H1454 0.961 . S
C1447 H1455 0.960 . S
C1448 C1446 1.381 . S
C1448 C1449 1.394 . S
C1448 H1456 0.930 . S
C1449 C1448 1.394 . S
C1449 C1450 1.383 . S
C1449 H1457 0.929 . S
C1450 C1449 1.383 . S
C1450 C1451 1.377 . S
C1451 H1435 0.930 . S
C1451 C1450 1.377 . S
C1451 C1452 1.379 . S
C1452 H1436 0.931 . S
C1452 C1446 1.383 . S
C1452 C1451 1.379 . S
H1453 C1447 0.959 . S
H1454 C1447 0.961 . S
H1455 C1447 0.960 . S
H1456 C1448 0.930 . S
H1457 C1449 0.929 . S
H1458 C1466 0.929 . S
H1459 C1468 0.930 . S
H1460 C1470 0.930 . S
H1461 C1473 0.929 . S
H1462 C1476 0.930 . S
H1463 C1478 0.960 . S
H1464 C1478 0.960 . S
H1465 C1478 0.960 . S
C1466 H1458 0.929 . S
C1466 C1467 1.377 . S
C1466 C1468 1.384 . S
C1467 C1466 1.377 . S
C1467 C1473 1.390 . S
C1468 H1459 0.930 . S
C1468 C1466 1.384 . S
C1468 C1469 1.372 . S
C1469 C1468 1.372 . S
C1469 C1470 1.400 . S
C1469 C1474 1.490 . S
C1470 H1460 0.930 . S
C1470 C1469 1.400 . S
C1470 C1473 1.386 . S
H1471 C1487 0.930 . S
H1472 C1488 0.931 . S
C1473 H1461 0.929 . S
C1473 C1467 1.390 . S
C1473 C1470 1.386 . S
C1474 C1469 1.490 . S
C1474 C1476 1.395 . S
C1474 C1477 1.403 . S
H1475 C1481 0.930 . S
C1476 H1462 0.930 . S
C1476 C1474 1.395 . S
C1476 C1479 1.403 . S
C1477 C1474 1.403 . S
C1477 C1478 1.524 . S
C1477 C1481 1.400 . S
C1478 H1463 0.960 . S
C1478 H1464 0.960 . S
C1478 H1465 0.960 . S
C1478 C1477 1.524 . S
C1479 C1476 1.403 . S
C1479 C1480 1.392 . S
C1479 C1483 1.495 . S
C1480 C1479 1.392 . S
C1480 C1481 1.385 . S
C1480 C1482 1.478 . S
C1481 H1475 0.930 . S
C1481 C1477 1.400 . S
C1481 C1480 1.385 . S
C1482 C1480 1.478 . S
C1482 C1484 1.381 . S
C1482 C1488 1.383 . S
C1483 C1479 1.495 . S
C1483 H1489 0.959 . S
C1483 H1490 0.961 . S
C1483 H1491 0.960 . S
C1484 C1482 1.381 . S
C1484 C1485 1.394 . S
C1484 H1492 0.930 . S
C1485 C1484 1.394 . S
C1485 C1486 1.383 . S
C1485 H1493 0.929 . S
C1486 C1485 1.383 . S
C1486 C1487 1.377 . S
C1487 H1471 0.930 . S
C1487 C1486 1.377 . S
C1487 C1488 1.379 . S
C1488 H1472 0.931 . S
C1488 C1482 1.383 . S
C1488 C1487 1.379 . S
H1489 C1483 0.959 . S
H1490 C1483 0.961 . S
H1491 C1483 0.960 . S
H1492 C1484 0.930 . S
H1493 C1485 0.929 . S
H1494 C1502 0.929 . S
H1495 C1504 0.930 . S
H1496 C1506 0.930 . S
H1497 C1509 0.929 . S
H1498 C1512 0.930 . S
H1499 C1514 0.960 . S
H1500 C1514 0.960 . S
H1501 C1514 0.960 . S
C1502 H1494 0.929 . S
C1502 C1503 1.377 . S
C1502 C1504 1.384 . S
C1503 C1502 1.377 . S
C1503 C1509 1.390 . S
C1504 H1495 0.930 . S
C1504 C1502 1.384 . S
C1504 C1505 1.372 . S
C1505 C1504 1.372 . S
C1505 C1506 1.400 . S
C1505 C1510 1.490 . S
C1506 H1496 0.930 . S
C1506 C1505 1.400 . S
C1506 C1509 1.386 . S
H1507 C1523 0.930 . S
H1508 C1524 0.931 . S
C1509 H1497 0.929 . S
C1509 C1503 1.390 . S
C1509 C1506 1.386 . S
C1510 C1505 1.490 . S
C1510 C1512 1.395 . S
C1510 C1513 1.403 . S
H1511 C1517 0.930 . S
C1512 H1498 0.930 . S
C1512 C1510 1.395 . S
C1512 C1515 1.403 . S
C1513 C1510 1.403 . S
C1513 C1514 1.524 . S
C1513 C1517 1.400 . S
C1514 H1499 0.960 . S
C1514 H1500 0.960 . S
C1514 H1501 0.960 . S
C1514 C1513 1.524 . S
C1515 C1512 1.403 . S
C1515 C1516 1.392 . S
C1515 C1519 1.495 . S
C1516 C1515 1.392 . S
C1516 C1517 1.385 . S
C1516 C1518 1.478 . S
C1517 H1511 0.930 . S
C1517 C1513 1.400 . S
C1517 C1516 1.385 . S
C1518 C1516 1.478 . S
C1518 C1520 1.381 . S
C1518 C1524 1.383 . S
C1519 C1515 1.495 . S
C1519 H1525 0.959 . S
C1519 H1526 0.961 . S
C1519 H1527 0.960 . S
C1520 C1518 1.381 . S
C1520 C1521 1.394 . S
C1520 H1528 0.930 . S
C1521 C1520 1.394 . S
C1521 C1522 1.383 . S
C1521 H1529 0.929 . S
C1522 C1521 1.383 . S
C1522 C1523 1.377 . S
C1523 H1507 0.930 . S
C1523 C1522 1.377 . S
C1523 C1524 1.379 . S
C1524 H1508 0.931 . S
C1524 C1518 1.383 . S
C1524 C1523 1.379 . S
H1525 C1519 0.959 . S
H1526 C1519 0.961 . S
H1527 C1519 0.960 . S
H1528 C1520 0.930 . S
H1529 C1521 0.929 . S
H1530 C1538 0.929 . S
H1531 C1540 0.930 . S
H1532 C1542 0.930 . S
H1533 C1545 0.929 . S
H1534 C1548 0.930 . S
H1535 C1550 0.960 . S
H1536 C1550 0.960 . S
H1537 C1550 0.960 . S
C1538 H1530 0.929 . S
C1538 C1539 1.377 . S
C1538 C1540 1.384 . S
C1539 C1538 1.377 . S
C1539 C1545 1.390 . S
C1540 H1531 0.930 . S
C1540 C1538 1.384 . S
C1540 C1541 1.372 . S
C1541 C1540 1.372 . S
C1541 C1542 1.400 . S
C1541 C1546 1.490 . S
C1542 H1532 0.930 . S
C1542 C1541 1.400 . S
C1542 C1545 1.386 . S
H1543 C1559 0.930 . S
H1544 C1560 0.931 . S
C1545 H1533 0.929 . S
C1545 C1539 1.390 . S
C1545 C1542 1.386 . S
C1546 C1541 1.490 . S
C1546 C1548 1.395 . S
C1546 C1549 1.403 . S
H1547 C1553 0.930 . S
C1548 H1534 0.930 . S
C1548 C1546 1.395 . S
C1548 C1551 1.403 . S
C1549 C1546 1.403 . S
C1549 C1550 1.524 . S
C1549 C1553 1.400 . S
C1550 H1535 0.960 . S
C1550 H1536 0.960 . S
C1550 H1537 0.960 . S
C1550 C1549 1.524 . S
C1551 C1548 1.403 . S
C1551 C1552 1.392 . S
C1551 C1555 1.495 . S
C1552 C1551 1.392 . S
C1552 C1553 1.385 . S
C1552 C1554 1.478 . S
C1553 H1547 0.930 . S
C1553 C1549 1.400 . S
C1553 C1552 1.385 . S
C1554 C1552 1.478 . S
C1554 C1556 1.381 . S
C1554 C1560 1.383 . S
C1555 C1551 1.495 . S
C1555 H1561 0.959 . S
C1555 H1562 0.961 . S
C1555 H1563 0.960 . S
C1556 C1554 1.381 . S
C1556 C1557 1.394 . S
C1556 H1564 0.930 . S
C1557 C1556 1.394 . S
C1557 C1558 1.383 . S
C1557 H1565 0.929 . S
C1558 C1557 1.383 . S
C1558 C1559 1.377 . S
C1559 H1543 0.930 . S
C1559 C1558 1.377 . S
C1559 C1560 1.379 . S
C1560 H1544 0.931 . S
C1560 C1554 1.383 . S
C1560 C1559 1.379 . S
H1561 C1555 0.959 . S
H1562 C1555 0.961 . S
H1563 C1555 0.960 . S
H1564 C1556 0.930 . S
H1565 C1557 0.929 . S
H1566 C1574 0.929 . S
H1567 C1576 0.930 . S
H1568 C1578 0.930 . S
H1569 C1581 0.929 . S
H1570 C1584 0.930 . S
H1571 C1586 0.960 . S
H1572 C1586 0.960 . S
H1573 C1586 0.960 . S
C1574 H1566 0.929 . S
C1574 C1575 1.377 . S
C1574 C1576 1.384 . S
C1575 C1574 1.377 . S
C1575 C1581 1.390 . S
C1576 H1567 0.930 . S
C1576 C1574 1.384 . S
C1576 C1577 1.372 . S
C1577 C1576 1.372 . S
C1577 C1578 1.400 . S
C1577 C1582 1.490 . S
C1578 H1568 0.930 . S
C1578 C1577 1.400 . S
C1578 C1581 1.386 . S
H1579 C1595 0.930 . S
H1580 C1596 0.931 . S
C1581 H1569 0.929 . S
C1581 C1575 1.390 . S
C1581 C1578 1.386 . S
C1582 C1577 1.490 . S
C1582 C1584 1.395 . S
C1582 C1585 1.403 . S
H1583 C1589 0.930 . S
C1584 H1570 0.930 . S
C1584 C1582 1.395 . S
C1584 C1587 1.403 1_565 S
C1585 C1582 1.403 . S
C1585 C1586 1.524 . S
C1585 C1589 1.400 1_565 S
C1586 H1571 0.960 . S
C1586 H1572 0.960 . S
C1586 H1573 0.960 . S
C1586 C1585 1.524 . S
C1587 C1584 1.403 1_545 S
C1587 C1588 1.392 . S
C1587 C1591 1.495 . S
C1588 C1587 1.392 . S
C1588 C1589 1.385 . S
C1588 C1590 1.478 . S
C1589 H1583 0.930 . S
C1589 C1585 1.400 1_545 S
C1589 C1588 1.385 . S
C1590 C1588 1.478 . S
C1590 C1592 1.381 . S
C1590 C1596 1.383 . S
C1591 C1587 1.495 . S
C1591 H1597 0.959 . S
C1591 H1598 0.961 . S
C1591 H1599 0.960 . S
C1592 C1590 1.381 . S
C1592 C1593 1.394 . S
C1592 H1600 0.930 . S
C1593 C1592 1.394 . S
C1593 C1594 1.383 . S
C1593 H1601 0.929 . S
C1594 C1593 1.383 . S
C1594 C1595 1.377 . S
C1595 H1579 0.930 . S
C1595 C1594 1.377 . S
C1595 C1596 1.379 . S
C1596 H1580 0.931 . S
C1596 C1590 1.383 . S
C1596 C1595 1.379 . S
H1597 C1591 0.959 . S
H1598 C1591 0.961 . S
H1599 C1591 0.960 . S
H1600 C1592 0.930 . S
H1601 C1593 0.929 . S
H1602 C1610 0.929 . S
H1603 C1612 0.930 . S
H1604 C1614 0.930 . S
H1605 C1617 0.929 . S
H1606 C1620 0.921 1_455 S
H1607 C1622 0.960 . S
H1608 C1622 0.960 . S
H1609 C1622 0.960 . S
C1610 H1602 0.929 . S
C1610 C1611 1.377 . S
C1610 C1612 1.384 . S
C1611 C1610 1.377 . S
C1611 C1617 1.390 . S
C1612 H1603 0.930 . S
C1612 C1610 1.384 . S
C1612 C1613 1.372 . S
C1613 C1612 1.372 . S
C1613 C1614 1.400 . S
C1613 C1618 1.490 . S
C1614 H1604 0.930 . S
C1614 C1613 1.400 . S
C1614 C1617 1.386 . S
H1615 C1631 0.930 . S
H1616 C1632 0.931 . S
C1617 H1605 0.929 . S
C1617 C1611 1.390 . S
C1617 C1614 1.386 . S
C1618 C1613 1.490 . S
C1618 C1620 1.393 1_455 S
C1618 C1621 1.403 . S
H1619 C1625 0.930 . S
C1620 H1606 0.921 1_655 S
C1620 C1618 1.393 1_655 S
C1620 C1623 1.406 . S
C1621 C1618 1.403 . S
C1621 C1622 1.524 . S
C1621 C1625 1.400 1_455 S
C1622 H1607 0.960 . S
C1622 H1608 0.960 . S
C1622 H1609 0.960 . S
C1622 C1621 1.524 . S
C1623 C1620 1.406 . S
C1623 C1624 1.392 . S
C1623 C1627 1.495 . S
C1624 C1623 1.392 . S
C1624 C1625 1.385 . S
C1624 C1626 1.478 . S
C1625 H1619 0.930 . S
C1625 C1621 1.400 1_655 S
C1625 C1624 1.385 . S
C1626 C1624 1.478 . S
C1626 C1628 1.381 . S
C1626 C1632 1.383 . S
C1627 C1623 1.495 . S
C1627 H1633 0.959 . S
C1627 H1634 0.961 . S
C1627 H1635 0.960 . S
C1628 C1626 1.381 . S
C1628 C1629 1.394 . S
C1628 H1636 0.930 . S
C1629 C1628 1.394 . S
C1629 C1630 1.383 . S
C1629 H1637 0.929 . S
C1630 C1629 1.383 . S
C1630 C1631 1.377 . S
C1631 H1615 0.930 . S
C1631 C1630 1.377 . S
C1631 C1632 1.379 . S
C1632 H1616 0.931 . S
C1632 C1626 1.383 . S
C1632 C1631 1.379 . S
H1633 C1627 0.959 . S
H1634 C1627 0.961 . S
H1635 C1627 0.960 . S
H1636 C1628 0.930 . S
H1637 C1629 0.929 . S
H1638 C1646 0.929 . S
H1639 C1648 0.930 . S
H1640 C1650 0.930 . S
H1641 C1653 0.929 . S
H1642 C1656 0.930 . S
H1643 C1658 0.960 . S
H1644 C1658 0.960 . S
H1645 C1658 0.960 . S
C1646 H1638 0.929 . S
C1646 C1647 1.377 . S
C1646 C1648 1.384 . S
C1647 C1646 1.377 . S
C1647 C1653 1.390 . S
C1648 H1639 0.930 . S
C1648 C1646 1.384 . S
C1648 C1649 1.372 . S
C1649 C1648 1.372 . S
C1649 C1650 1.400 . S
C1649 C1654 1.490 . S
C1650 H1640 0.930 . S
C1650 C1649 1.400 . S
C1650 C1653 1.386 . S
H1651 C1667 0.930 . S
H1652 C1668 0.931 . S
C1653 H1641 0.929 . S
C1653 C1647 1.390 . S
C1653 C1650 1.386 . S
C1654 C1649 1.490 . S
C1654 C1656 1.395 . S
C1654 C1657 1.403 . S
H1655 C1661 0.930 . S
C1656 H1642 0.930 . S
C1656 C1654 1.395 . S
C1656 C1659 1.403 . S
C1657 C1654 1.403 . S
C1657 C1658 1.524 . S
C1657 C1661 1.400 . S
C1658 H1643 0.960 . S
C1658 H1644 0.960 . S
C1658 H1645 0.960 . S
C1658 C1657 1.524 . S
C1659 C1656 1.403 . S
C1659 C1660 1.392 . S
C1659 C1663 1.495 . S
C1660 C1659 1.392 . S
C1660 C1661 1.385 . S
C1660 C1662 1.478 . S
C1661 H1655 0.930 . S
C1661 C1657 1.400 . S
C1661 C1660 1.385 . S
C1662 C1660 1.478 . S
C1662 C1664 1.381 . S
C1662 C1668 1.383 . S
C1663 C1659 1.495 . S
C1663 H1669 0.959 . S
C1663 H1670 0.961 . S
C1663 H1671 0.960 . S
C1664 C1662 1.381 . S
C1664 C1665 1.394 . S
C1664 H1672 0.930 . S
C1665 C1664 1.394 . S
C1665 C1666 1.383 . S
C1665 H1673 0.929 . S
C1666 C1665 1.383 . S
C1666 C1667 1.377 . S
C1667 H1651 0.930 . S
C1667 C1666 1.377 . S
C1667 C1668 1.379 . S
C1668 H1652 0.931 . S
C1668 C1662 1.383 . S
C1668 C1667 1.379 . S
H1669 C1663 0.959 . S
H1670 C1663 0.961 . S
H1671 C1663 0.960 . S
H1672 C1664 0.930 . S
H1673 C1665 0.929 . S
H1674 C1682 0.929 . S
H1675 C1684 0.930 . S
H1676 C1686 0.930 . S
H1677 C1689 0.929 . S
H1678 C1692 0.930 . S
H1679 C1694 0.960 . S
H1680 C1694 0.960 . S
H1681 C1694 0.960 . S
C1682 H1674 0.929 . S
C1682 C1683 1.377 . S
C1682 C1684 1.384 . S
C1683 C1682 1.377 . S
C1683 C1689 1.390 . S
C1684 H1675 0.930 . S
C1684 C1682 1.384 . S
C1684 C1685 1.372 . S
C1685 C1684 1.372 . S
C1685 C1686 1.400 . S
C1685 C1690 1.490 1_455 S
C1686 H1676 0.930 . S
C1686 C1685 1.400 . S
C1686 C1689 1.386 . S
H1687 C1703 0.930 . S
H1688 C1704 0.931 . S
C1689 H1677 0.929 . S
C1689 C1683 1.390 . S
C1689 C1686 1.386 . S
C1690 C1685 1.490 1_655 S
C1690 C1692 1.395 . S
C1690 C1693 1.403 . S
H1691 C1697 0.930 . S
C1692 H1678 0.930 . S
C1692 C1690 1.395 . S
C1692 C1695 1.403 . S
C1693 C1690 1.403 . S
C1693 C1694 1.524 . S
C1693 C1697 1.400 . S
C1694 H1679 0.960 . S
C1694 H1680 0.960 . S
C1694 H1681 0.960 . S
C1694 C1693 1.524 . S
C1695 C1692 1.403 . S
C1695 C1696 1.392 . S
C1695 C1699 1.495 . S
C1696 C1695 1.392 . S
C1696 C1697 1.385 . S
C1696 C1698 1.478 . S
C1697 H1691 0.930 . S
C1697 C1693 1.400 . S
C1697 C1696 1.385 . S
C1698 C1696 1.478 . S
C1698 C1700 1.381 . S
C1698 C1704 1.383 . S
C1699 C1695 1.495 . S
C1699 H1705 0.959 . S
C1699 H1706 0.961 . S
C1699 H1707 0.960 . S
C1700 C1698 1.381 . S
C1700 C1701 1.394 . S
C1700 H1708 0.930 . S
C1701 C1700 1.394 . S
C1701 C1702 1.383 . S
C1701 H1709 0.929 . S
C1702 C1701 1.383 . S
C1702 C1703 1.377 . S
C1703 H1687 0.930 . S
C1703 C1702 1.377 . S
C1703 C1704 1.379 . S
C1704 H1688 0.931 . S
C1704 C1698 1.383 . S
C1704 C1703 1.379 . S
H1705 C1699 0.959 . S
H1706 C1699 0.961 . S
H1707 C1699 0.960 . S
H1708 C1700 0.930 . S
H1709 C1701 0.929 . S
H1710 C1718 0.929 . S
H1711 C1720 0.930 . S
H1712 C1722 0.930 . S
H1713 C1725 0.929 . S
H1714 C1728 0.930 . S
H1715 C1730 0.960 . S
H1716 C1730 0.960 . S
H1717 C1730 0.960 . S
C1718 H1710 0.929 . S
C1718 C1719 1.377 . S
C1718 C1720 1.384 . S
C1719 C1718 1.377 . S
C1719 C1725 1.390 . S
C1720 H1711 0.930 . S
C1720 C1718 1.384 . S
C1720 C1721 1.372 . S
C1721 C1720 1.372 . S
C1721 C1722 1.400 . S
C1721 C1726 1.490 . S
C1722 H1712 0.930 . S
C1722 C1721 1.400 . S
C1722 C1725 1.386 . S
H1723 C1739 0.930 . S
H1724 C1740 0.931 . S
C1725 H1713 0.929 . S
C1725 C1719 1.390 . S
C1725 C1722 1.386 . S
C1726 C1721 1.490 . S
C1726 C1728 1.395 . S
C1726 C1729 1.403 . S
H1727 C1733 0.930 . S
C1728 H1714 0.930 . S
C1728 C1726 1.395 . S
C1728 C1731 1.403 . S
C1729 C1726 1.403 . S
C1729 C1730 1.524 . S
C1729 C1733 1.400 . S
C1730 H1715 0.960 . S
C1730 H1716 0.960 . S
C1730 H1717 0.960 . S
C1730 C1729 1.524 . S
C1731 C1728 1.403 . S
C1731 C1732 1.392 . S
C1731 C1735 1.495 . S
C1732 C1731 1.392 . S
C1732 C1733 1.385 . S
C1732 C1734 1.478 . S
C1733 H1727 0.930 . S
C1733 C1729 1.400 . S
C1733 C1732 1.385 . S
C1734 C1732 1.478 . S
C1734 C1736 1.381 . S
C1734 C1740 1.383 . S
C1735 C1731 1.495 . S
C1735 H1741 0.959 . S
C1735 H1742 0.961 . S
C1735 H1743 0.960 . S
C1736 C1734 1.381 . S
C1736 C1737 1.394 . S
C1736 H1744 0.930 . S
C1737 C1736 1.394 . S
C1737 C1738 1.383 . S
C1737 H1745 0.929 . S
C1738 C1737 1.383 . S
C1738 C1739 1.377 . S
C1739 H1723 0.930 . S
C1739 C1738 1.377 . S
C1739 C1740 1.379 . S
C1740 H1724 0.931 . S
C1740 C1734 1.383 . S
C1740 C1739 1.379 . S
H1741 C1735 0.959 . S
H1742 C1735 0.961 . S
H1743 C1735 0.960 . S
H1744 C1736 0.930 . S
H1745 C1737 0.929 . S
H1746 C1754 0.929 . S
H1747 C1756 0.930 . S
H1748 C1758 0.930 . S
H1749 C1761 0.929 . S
H1750 C1764 0.930 . S
H1751 C1766 0.960 . S
H1752 C1766 0.960 . S
H1753 C1766 0.960 . S
C1754 H1746 0.929 . S
C1754 C1755 1.377 . S
C1754 C1756 1.384 . S
C1755 C1754 1.377 . S
C1755 C1761 1.390 . S
C1756 H1747 0.930 . S
C1756 C1754 1.384 . S
C1756 C1757 1.372 . S
C1757 C1756 1.372 . S
C1757 C1758 1.400 . S
C1757 C1762 1.490 1_565 S
C1758 H1748 0.930 . S
C1758 C1757 1.400 . S
C1758 C1761 1.386 . S
H1759 C1775 0.930 . S
H1760 C1776 0.931 . S
C1761 H1749 0.929 . S
C1761 C1755 1.390 . S
C1761 C1758 1.386 . S
C1762 C1757 1.490 1_545 S
C1762 C1764 1.395 . S
C1762 C1765 1.403 . S
H1763 C1769 0.930 . S
C1764 H1750 0.930 . S
C1764 C1762 1.395 . S
C1764 C1767 1.403 . S
C1765 C1762 1.403 . S
C1765 C1766 1.524 . S
C1765 C1769 1.400 . S
C1766 H1751 0.960 . S
C1766 H1752 0.960 . S
C1766 H1753 0.960 . S
C1766 C1765 1.524 . S
C1767 C1764 1.403 . S
C1767 C1768 1.392 . S
C1767 C1771 1.495 . S
C1768 C1767 1.392 . S
C1768 C1769 1.385 . S
C1768 C1770 1.478 . S
C1769 H1763 0.930 . S
C1769 C1765 1.400 . S
C1769 C1768 1.385 . S
C1770 C1768 1.478 . S
C1770 C1772 1.381 . S
C1770 C1776 1.383 . S
C1771 C1767 1.495 . S
C1771 H1777 0.959 . S
C1771 H1778 0.961 . S
C1771 H1779 0.960 . S
C1772 C1770 1.381 . S
C1772 C1773 1.394 . S
C1772 H1780 0.930 . S
C1773 C1772 1.394 . S
C1773 C1774 1.383 . S
C1773 H1781 0.929 . S
C1774 C1773 1.383 . S
C1774 C1775 1.377 . S
C1775 H1759 0.930 . S
C1775 C1774 1.377 . S
C1775 C1776 1.379 . S
C1776 H1760 0.931 . S
C1776 C1770 1.383 . S
C1776 C1775 1.379 . S
H1777 C1771 0.959 . S
H1778 C1771 0.961 . S
H1779 C1771 0.960 . S
H1780 C1772 0.930 . S
H1781 C1773 0.929 . S
H1782 C1790 0.929 . S
H1783 C1792 0.930 . S
H1784 C1794 0.930 . S
H1785 C1797 0.929 . S
H1786 C1800 0.930 . S
H1787 C1802 0.960 . S
H1788 C1802 0.960 . S
H1789 C1802 0.960 . S
C1790 H1782 0.929 . S
C1790 C1791 1.377 . S
C1790 C1792 1.384 . S
C1791 C1790 1.377 . S
C1791 C1797 1.390 . S
C1792 H1783 0.930 . S
C1792 C1790 1.384 . S
C1792 C1793 1.372 . S
C1793 C1792 1.372 . S
C1793 C1794 1.400 . S
C1793 C1798 1.490 . S
C1794 H1784 0.930 . S
C1794 C1793 1.400 . S
C1794 C1797 1.386 . S
H1795 C1811 0.930 . S
H1796 C1812 0.931 . S
C1797 H1785 0.929 . S
C1797 C1791 1.390 . S
C1797 C1794 1.386 . S
C1798 C1793 1.490 . S
C1798 C1800 1.395 . S
C1798 C1801 1.403 . S
H1799 C1805 0.930 . S
C1800 H1786 0.930 . S
C1800 C1798 1.395 . S
C1800 C1803 1.403 . S
C1801 C1798 1.403 . S
C1801 C1802 1.524 . S
C1801 C1805 1.400 . S
C1802 H1787 0.960 . S
C1802 H1788 0.960 . S
C1802 H1789 0.960 . S
C1802 C1801 1.524 . S
C1803 C1800 1.403 . S
C1803 C1804 1.392 . S
C1803 C1807 1.495 . S
C1804 C1803 1.392 . S
C1804 C1805 1.385 . S
C1804 C1806 1.478 . S
C1805 H1799 0.930 . S
C1805 C1801 1.400 . S
C1805 C1804 1.385 . S
C1806 C1804 1.478 . S
C1806 C1808 1.381 . S
C1806 C1812 1.383 . S
C1807 C1803 1.495 . S
C1807 H1813 0.959 . S
C1807 H1814 0.961 . S
C1807 H1815 0.960 . S
C1808 C1806 1.381 . S
C1808 C1809 1.394 . S
C1808 H1816 0.930 . S
C1809 C1808 1.394 . S
C1809 C1810 1.383 . S
C1809 H1817 0.929 . S
C1810 C1809 1.383 . S
C1810 C1811 1.377 . S
C1811 H1795 0.930 . S
C1811 C1810 1.377 . S
C1811 C1812 1.379 . S
C1812 H1796 0.931 . S
C1812 C1806 1.383 . S
C1812 C1811 1.379 . S
H1813 C1807 0.959 . S
H1814 C1807 0.961 . S
H1815 C1807 0.960 . S
H1816 C1808 0.930 . S
H1817 C1809 0.929 . S
H1818 C1826 0.929 . S
H1819 C1828 0.930 . S
H1820 C1830 0.930 . S
H1821 C1833 0.929 . S
H1822 C1836 0.930 . S
H1823 C1838 0.960 . S
H1824 C1838 0.960 . S
H1825 C1838 0.960 . S
C1826 H1818 0.929 . S
C1826 C1827 1.377 . S
C1826 C1828 1.384 . S
C1827 C1826 1.377 . S
C1827 C1833 1.390 . S
C1828 H1819 0.930 . S
C1828 C1826 1.384 . S
C1828 C1829 1.372 . S
C1829 C1828 1.372 . S
C1829 C1830 1.400 . S
C1829 C1834 1.490 . S
C1830 H1820 0.930 . S
C1830 C1829 1.400 . S
C1830 C1833 1.386 . S
H1831 C1847 0.930 . S
H1832 C1848 0.931 . S
C1833 H1821 0.929 . S
C1833 C1827 1.390 . S
C1833 C1830 1.386 . S
C1834 C1829 1.490 . S
C1834 C1836 1.395 . S
C1834 C1837 1.403 . S
H1835 C1841 0.930 . S
C1836 H1822 0.930 . S
C1836 C1834 1.395 . S
C1836 C1839 1.403 . S
C1837 C1834 1.403 . S
C1837 C1838 1.524 . S
C1837 C1841 1.400 . S
C1838 H1823 0.960 . S
C1838 H1824 0.960 . S
C1838 H1825 0.960 . S
C1838 C1837 1.524 . S
C1839 C1836 1.403 . S
C1839 C1840 1.392 . S
C1839 C1843 1.495 . S
C1840 C1839 1.392 . S
C1840 C1841 1.385 . S
C1840 C1842 1.478 . S
C1841 H1835 0.930 . S
C1841 C1837 1.400 . S
C1841 C1840 1.385 . S
C1842 C1840 1.478 . S
C1842 C1844 1.381 . S
C1842 C1848 1.383 . S
C1843 C1839 1.495 . S
C1843 H1849 0.959 . S
C1843 H1850 0.961 . S
C1843 H1851 0.960 . S
C1844 C1842 1.381 . S
C1844 C1845 1.394 . S
C1844 H1852 0.930 . S
C1845 C1844 1.394 . S
C1845 C1846 1.383 . S
C1845 H1853 0.929 . S
C1846 C1845 1.383 . S
C1846 C1847 1.377 . S
C1847 H1831 0.930 . S
C1847 C1846 1.377 . S
C1847 C1848 1.379 . S
C1848 H1832 0.931 . S
C1848 C1842 1.383 . S
C1848 C1847 1.379 . S
H1849 C1843 0.959 . S
H1850 C1843 0.961 . S
H1851 C1843 0.960 . S
H1852 C1844 0.930 . S
H1853 C1845 0.929 . S
H1854 C1862 0.929 . S
H1855 C1864 0.930 . S
H1856 C1866 0.930 . S
H1857 C1869 0.929 . S
H1858 C1872 0.930 . S
H1859 C1874 0.960 . S
H1860 C1874 0.960 . S
H1861 C1874 0.960 . S
C1862 H1854 0.929 . S
C1862 C1863 1.377 . S
C1862 C1864 1.384 . S
C1863 C1862 1.377 . S
C1863 C1869 1.390 . S
C1864 H1855 0.930 . S
C1864 C1862 1.384 . S
C1864 C1865 1.372 . S
C1865 C1864 1.372 . S
C1865 C1866 1.400 . S
C1865 C1870 1.490 . S
C1866 H1856 0.930 . S
C1866 C1865 1.400 . S
C1866 C1869 1.386 . S
H1867 C1883 0.930 . S
H1868 C1884 0.931 . S
C1869 H1857 0.929 . S
C1869 C1863 1.390 . S
C1869 C1866 1.386 . S
C1870 C1865 1.490 . S
C1870 C1872 1.395 . S
C1870 C1873 1.403 . S
H1871 C1877 0.930 . S
C1872 H1858 0.930 . S
C1872 C1870 1.395 . S
C1872 C1875 1.403 . S
C1873 C1870 1.403 . S
C1873 C1874 1.524 . S
C1873 C1877 1.400 . S
C1874 H1859 0.960 . S
C1874 H1860 0.960 . S
C1874 H1861 0.960 . S
C1874 C1873 1.524 . S
C1875 C1872 1.403 . S
C1875 C1876 1.392 . S
C1875 C1879 1.495 . S
C1876 C1875 1.392 . S
C1876 C1877 1.385 . S
C1876 C1878 1.478 . S
C1877 H1871 0.930 . S
C1877 C1873 1.400 . S
C1877 C1876 1.385 . S
C1878 C1876 1.478 . S
C1878 C1880 1.381 . S
C1878 C1884 1.383 . S
C1879 C1875 1.495 . S
C1879 H1885 0.959 . S
C1879 H1886 0.961 . S
C1879 H1887 0.960 . S
C1880 C1878 1.381 . S
C1880 C1881 1.394 . S
C1880 H1888 0.930 . S
C1881 C1880 1.394 . S
C1881 C1882 1.383 . S
C1881 H1889 0.929 . S
C1882 C1881 1.383 . S
C1882 C1883 1.377 . S
C1883 H1867 0.930 . S
C1883 C1882 1.377 . S
C1883 C1884 1.379 . S
C1884 H1868 0.931 . S
C1884 C1878 1.383 . S
C1884 C1883 1.379 . S
H1885 C1879 0.959 . S
H1886 C1879 0.961 . S
H1887 C1879 0.960 . S
H1888 C1880 0.930 . S
H1889 C1881 0.929 . S
H1890 C1898 0.929 . S
H1891 C1900 0.930 . S
H1892 C1902 0.930 . S
H1893 C1905 0.929 . S
H1894 C1908 0.930 . S
H1895 C1910 0.960 . S
H1896 C1910 0.960 . S
H1897 C1910 0.960 . S
C1898 H1890 0.929 . S
C1898 C1899 1.377 . S
C1898 C1900 1.384 . S
C1899 C1898 1.377 . S
C1899 C1905 1.390 . S
C1900 H1891 0.930 . S
C1900 C1898 1.384 . S
C1900 C1901 1.372 . S
C1901 C1900 1.372 . S
C1901 C1902 1.400 . S
C1901 C1906 1.490 . S
C1902 H1892 0.930 . S
C1902 C1901 1.400 . S
C1902 C1905 1.386 . S
H1903 C1919 0.930 . S
H1904 C1920 0.931 . S
C1905 H1893 0.929 . S
C1905 C1899 1.390 . S
C1905 C1902 1.386 . S
C1906 C1901 1.490 . S
C1906 C1908 1.395 . S
C1906 C1909 1.403 . S
H1907 C1913 0.930 . S
C1908 H1894 0.930 . S
C1908 C1906 1.395 . S
C1908 C1911 1.403 . S
C1909 C1906 1.403 . S
C1909 C1910 1.524 . S
C1909 C1913 1.400 . S
C1910 H1895 0.960 . S
C1910 H1896 0.960 . S
C1910 H1897 0.960 . S
C1910 C1909 1.524 . S
C1911 C1908 1.403 . S
C1911 C1912 1.392 . S
C1911 C1915 1.495 . S
C1912 C1911 1.392 . S
C1912 C1913 1.385 . S
C1912 C1914 1.478 . S
C1913 H1907 0.930 . S
C1913 C1909 1.400 . S
C1913 C1912 1.385 . S
C1914 C1912 1.478 . S
C1914 C1916 1.381 . S
C1914 C1920 1.383 . S
C1915 C1911 1.495 . S
C1915 H1921 0.959 1_565 S
C1915 H1922 0.961 . S
C1915 H1923 0.960 1_565 S
C1916 C1914 1.381 . S
C1916 C1917 1.394 . S
C1916 H1924 0.930 . S
C1917 C1916 1.394 . S
C1917 C1918 1.383 . S
C1917 H1925 0.929 . S
C1918 C1917 1.383 . S
C1918 C1919 1.377 . S
C1919 H1903 0.930 . S
C1919 C1918 1.377 . S
C1919 C1920 1.379 . S
C1920 H1904 0.931 . S
C1920 C1914 1.383 . S
C1920 C1919 1.379 . S
H1921 C1915 0.959 1_545 S
H1922 C1915 0.961 . S
H1923 C1915 0.960 1_545 S
H1924 C1916 0.930 . S
H1925 C1917 0.929 . S
H1926 C1934 0.929 . S
H1927 C1936 0.930 . S
H1928 C1938 0.930 . S
H1929 C1941 0.929 . S
H1930 C1944 0.930 . S
H1931 C1946 0.960 1_655 S
H1932 C1946 0.960 . S
H1933 C1946 0.960 . S
C1934 H1926 0.929 . S
C1934 C1935 1.377 . S
C1934 C1936 1.384 . S
C1935 C1934 1.377 . S
C1935 C1941 1.390 . S
C1936 H1927 0.930 . S
C1936 C1934 1.384 . S
C1936 C1937 1.372 . S
C1937 C1936 1.372 . S
C1937 C1938 1.400 . S
C1937 C1942 1.490 . S
C1938 H1928 0.930 . S
C1938 C1937 1.400 . S
C1938 C1941 1.386 . S
H1939 C1955 0.930 . S
H1940 C1956 0.931 . S
C1941 H1929 0.929 . S
C1941 C1935 1.390 . S
C1941 C1938 1.386 . S
C1942 C1937 1.490 . S
C1942 C1944 1.395 . S
C1942 C1945 1.403 . S
H1943 C1949 0.930 . S
C1944 H1930 0.930 . S
C1944 C1942 1.395 . S
C1944 C1947 1.403 . S
C1945 C1942 1.403 . S
C1945 C1946 1.524 . S
C1945 C1949 1.400 . S
C1946 H1931 0.960 1_455 S
C1946 H1932 0.960 . S
C1946 H1933 0.960 . S
C1946 C1945 1.524 . S
C1947 C1944 1.403 . S
C1947 C1948 1.392 . S
C1947 C1951 1.495 . S
C1948 C1947 1.392 . S
C1948 C1949 1.385 . S
C1948 C1950 1.478 . S
C1949 H1943 0.930 . S
C1949 C1945 1.400 . S
C1949 C1948 1.385 . S
C1950 C1948 1.478 . S
C1950 C1952 1.381 . S
C1950 C1956 1.383 . S
C1951 C1947 1.495 . S
C1951 H1957 0.959 . S
C1951 H1958 0.961 . S
C1951 H1959 0.960 . S
C1952 C1950 1.381 . S
C1952 C1953 1.394 . S
C1952 H1960 0.930 . S
C1953 C1952 1.394 . S
C1953 C1954 1.383 . S
C1953 H1961 0.929 . S
C1954 C1953 1.383 . S
C1954 C1955 1.377 . S
C1955 H1939 0.930 . S
C1955 C1954 1.377 . S
C1955 C1956 1.379 . S
C1956 H1940 0.931 . S
C1956 C1950 1.383 . S
C1956 C1955 1.379 . S
H1957 C1951 0.959 . S
H1958 C1951 0.961 . S
H1959 C1951 0.960 . S
H1960 C1952 0.930 . S
H1961 C1953 0.929 . S
H1962 C1970 0.929 . S
H1963 C1972 0.930 . S
H1964 C1974 0.930 . S
H1965 C1977 0.929 . S
H1966 C1980 0.930 . S
H1967 C1982 0.960 . S
H1968 C1982 0.960 . S
H1969 C1982 0.960 . S
C1970 H1962 0.929 . S
C1970 C1971 1.377 . S
C1970 C1972 1.384 . S
C1971 C1970 1.377 . S
C1971 C1977 1.390 . S
C1972 H1963 0.930 . S
C1972 C1970 1.384 . S
C1972 C1973 1.372 . S
C1973 C1972 1.372 . S
C1973 C1974 1.400 . S
C1973 C1978 1.490 . S
C1974 H1964 0.930 . S
C1974 C1973 1.400 . S
C1974 C1977 1.386 . S
H1975 C1991 0.930 . S
H1976 C1992 0.931 . S
C1977 H1965 0.929 . S
C1977 C1971 1.390 . S
C1977 C1974 1.386 . S
C1978 C1973 1.490 . S
C1978 C1980 1.395 . S
C1978 C1981 1.403 . S
H1979 C1985 0.930 . S
C1980 H1966 0.930 . S
C1980 C1978 1.395 . S
C1980 C1983 1.403 . S
C1981 C1978 1.403 . S
C1981 C1982 1.524 . S
C1981 C1985 1.400 . S
C1982 H1967 0.960 . S
C1982 H1968 0.960 . S
C1982 H1969 0.960 . S
C1982 C1981 1.524 . S
C1983 C1980 1.403 . S
C1983 C1984 1.392 . S
C1983 C1987 1.495 . S
C1984 C1983 1.392 . S
C1984 C1985 1.385 . S
C1984 C1986 1.478 . S
C1985 H1979 0.930 . S
C1985 C1981 1.400 . S
C1985 C1984 1.385 . S
C1986 C1984 1.478 . S
C1986 C1988 1.381 . S
C1986 C1992 1.383 . S
C1987 C1983 1.495 . S
C1987 H1993 0.959 . S
C1987 H1994 0.961 . S
C1987 H1995 0.960 . S
C1988 C1986 1.381 . S
C1988 C1989 1.394 . S
C1988 H1996 0.930 . S
C1989 C1988 1.394 . S
C1989 C1990 1.383 . S
C1989 H1997 0.929 . S
C1990 C1989 1.383 . S
C1990 C1991 1.377 . S
C1991 H1975 0.930 . S
C1991 C1990 1.377 . S
C1991 C1992 1.379 . S
C1992 H1976 0.931 . S
C1992 C1986 1.383 . S
C1992 C1991 1.379 . S
H1993 C1987 0.959 . S
H1994 C1987 0.961 . S
H1995 C1987 0.960 . S
H1996 C1988 0.930 . S
H1997 C1989 0.929 . S
H1998 C2006 0.929 . S
H1999 C2008 0.930 . S
H2000 C2010 0.930 . S
H2001 C2013 0.929 . S
H2002 C2016 0.930 . S
H2003 C2018 0.960 . S
H2004 C2018 0.960 . S
H2005 C2018 0.960 . S
C2006 H1998 0.929 . S
C2006 C2007 1.377 . S
C2006 C2008 1.384 . S
C2007 C2006 1.377 . S
C2007 C2013 1.390 . S
C2008 H1999 0.930 . S
C2008 C2006 1.384 . S
C2008 C2009 1.372 . S
C2009 C2008 1.372 . S
C2009 C2010 1.400 . S
C2009 C2014 1.490 . S
C2010 H2000 0.930 . S
C2010 C2009 1.400 . S
C2010 C2013 1.386 . S
H2011 C2027 0.930 . S
H2012 C2028 0.931 . S
C2013 H2001 0.929 . S
C2013 C2007 1.390 . S
C2013 C2010 1.386 . S
C2014 C2009 1.490 . S
C2014 C2016 1.395 . S
C2014 C2017 1.403 . S
H2015 C2021 0.930 . S
C2016 H2002 0.930 . S
C2016 C2014 1.395 . S
C2016 C2019 1.403 . S
C2017 C2014 1.403 . S
C2017 C2018 1.524 . S
C2017 C2021 1.400 . S
C2018 H2003 0.960 . S
C2018 H2004 0.960 . S
C2018 H2005 0.960 . S
C2018 C2017 1.524 . S
C2019 C2016 1.403 . S
C2019 C2020 1.392 . S
C2019 C2023 1.495 . S
C2020 C2019 1.392 . S
C2020 C2021 1.385 . S
C2020 C2022 1.478 . S
C2021 H2015 0.930 . S
C2021 C2017 1.400 . S
C2021 C2020 1.385 . S
C2022 C2020 1.478 . S
C2022 C2024 1.381 . S
C2022 C2028 1.383 . S
C2023 C2019 1.495 . S
C2023 H2029 0.959 . S
C2023 H2030 0.961 . S
C2023 H2031 0.960 . S
C2024 C2022 1.381 . S
C2024 C2025 1.394 . S
C2024 H2032 0.930 . S
C2025 C2024 1.394 . S
C2025 C2026 1.383 . S
C2025 H2033 0.929 . S
C2026 C2025 1.383 . S
C2026 C2027 1.377 . S
C2027 H2011 0.930 . S
C2027 C2026 1.377 . S
C2027 C2028 1.379 . S
C2028 H2012 0.931 . S
C2028 C2022 1.383 . S
C2028 C2027 1.379 . S
H2029 C2023 0.959 . S
H2030 C2023 0.961 . S
H2031 C2023 0.960 . S
H2032 C2024 0.930 . S
H2033 C2025 0.929 . S
H2034 C2042 0.929 . S
H2035 C2044 0.930 . S
H2036 C2046 0.930 . S
H2037 C2049 0.929 . S
H2038 C2052 0.930 . S
H2039 C2054 0.960 . S
H2040 C2054 0.960 . S
H2041 C2054 0.960 . S
C2042 H2034 0.929 . S
C2042 C2043 1.377 . S
C2042 C2044 1.384 . S
C2043 C2042 1.377 . S
C2043 C2049 1.390 . S
C2044 H2035 0.930 . S
C2044 C2042 1.384 . S
C2044 C2045 1.372 . S
C2045 C2044 1.372 . S
C2045 C2046 1.400 . S
C2045 C2050 1.490 . S
C2046 H2036 0.930 . S
C2046 C2045 1.400 . S
C2046 C2049 1.386 . S
H2047 C2063 0.930 . S
H2048 C2064 0.931 . S
C2049 H2037 0.929 . S
C2049 C2043 1.390 . S
C2049 C2046 1.386 . S
C2050 C2045 1.490 . S
C2050 C2052 1.395 . S
C2050 C2053 1.403 . S
H2051 C2057 0.930 . S
C2052 H2038 0.930 . S
C2052 C2050 1.395 . S
C2052 C2055 1.403 . S
C2053 C2050 1.403 . S
C2053 C2054 1.524 . S
C2053 C2057 1.400 . S
C2054 H2039 0.960 . S
C2054 H2040 0.960 . S
C2054 H2041 0.960 . S
C2054 C2053 1.524 . S
C2055 C2052 1.403 . S
C2055 C2056 1.392 . S
C2055 C2059 1.495 . S
C2056 C2055 1.392 . S
C2056 C2057 1.385 . S
C2056 C2058 1.478 . S
C2057 H2051 0.930 . S
C2057 C2053 1.400 . S
C2057 C2056 1.385 . S
C2058 C2056 1.478 . S
C2058 C2060 1.381 . S
C2058 C2064 1.383 . S
C2059 C2055 1.495 . S
C2059 H2065 0.959 . S
C2059 H2066 0.961 . S
C2059 H2067 0.960 . S
C2060 C2058 1.381 . S
C2060 C2061 1.394 . S
C2060 H2068 0.930 . S
C2061 C2060 1.394 . S
C2061 C2062 1.383 . S
C2061 H2069 0.929 . S
C2062 C2061 1.383 . S
C2062 C2063 1.377 . S
C2063 H2047 0.930 . S
C2063 C2062 1.377 . S
C2063 C2064 1.379 . S
C2064 H2048 0.931 . S
C2064 C2058 1.383 . S
C2064 C2063 1.379 . S
H2065 C2059 0.959 . S
H2066 C2059 0.961 . S
H2067 C2059 0.960 . S
H2068 C2060 0.930 . S
H2069 C2061 0.929 . S
H2070 C2078 0.929 . S
H2071 C2080 0.930 . S
H2072 C2082 0.930 . S
H2073 C2085 0.929 . S
H2074 C2088 0.930 . S
H2075 C2090 0.960 . S
H2076 C2090 0.960 . S
H2077 C2090 0.960 . S
C2078 H2070 0.929 . S
C2078 C2079 1.377 . S
C2078 C2080 1.384 . S
C2079 C2078 1.377 . S
C2079 C2085 1.390 . S
C2080 H2071 0.930 . S
C2080 C2078 1.384 . S
C2080 C2081 1.372 . S
C2081 C2080 1.372 . S
C2081 C2082 1.400 . S
C2081 C2086 1.490 . S
C2082 H2072 0.930 . S
C2082 C2081 1.400 . S
C2082 C2085 1.386 . S
H2083 C2099 0.930 . S
H2084 C2100 0.931 . S
C2085 H2073 0.929 . S
C2085 C2079 1.390 . S
C2085 C2082 1.386 . S
C2086 C2081 1.490 . S
C2086 C2088 1.395 . S
C2086 C2089 1.403 . S
H2087 C2093 0.930 . S
C2088 H2074 0.930 . S
C2088 C2086 1.395 . S
C2088 C2091 1.403 . S
C2089 C2086 1.403 . S
C2089 C2090 1.524 . S
C2089 C2093 1.400 . S
C2090 H2075 0.960 . S
C2090 H2076 0.960 . S
C2090 H2077 0.960 . S
C2090 C2089 1.524 . S
C2091 C2088 1.403 . S
C2091 C2092 1.392 . S
C2091 C2095 1.495 . S
C2092 C2091 1.392 . S
C2092 C2093 1.385 . S
C2092 C2094 1.478 . S
C2093 H2087 0.930 . S
C2093 C2089 1.400 . S
C2093 C2092 1.385 . S
C2094 C2092 1.478 . S
C2094 C2096 1.381 . S
C2094 C2100 1.383 . S
C2095 C2091 1.495 . S
C2095 H2101 0.959 . S
C2095 H2102 0.961 . S
C2095 H2103 0.960 . S
C2096 C2094 1.381 . S
C2096 C2097 1.394 . S
C2096 H2104 0.930 . S
C2097 C2096 1.394 . S
C2097 C2098 1.383 . S
C2097 H2105 0.929 . S
C2098 C2097 1.383 . S
C2098 C2099 1.377 . S
C2099 H2083 0.930 . S
C2099 C2098 1.377 . S
C2099 C2100 1.379 . S
C2100 H2084 0.931 . S
C2100 C2094 1.383 . S
C2100 C2099 1.379 . S
H2101 C2095 0.959 . S
H2102 C2095 0.961 . S
H2103 C2095 0.960 . S
H2104 C2096 0.930 . S
H2105 C2097 0.929 . S
H2106 C2114 0.929 . S
H2107 C2116 0.930 . S
H2108 C2118 0.930 . S
H2109 C2121 0.929 . S
H2110 C2124 0.930 . S
H2111 C2126 0.960 . S
H2112 C2126 0.960 . S
H2113 C2126 0.960 . S
C2114 H2106 0.929 . S
C2114 C2115 1.377 . S
C2114 C2116 1.384 . S
C2115 C2114 1.377 . S
C2115 C2121 1.390 . S
C2116 H2107 0.930 . S
C2116 C2114 1.384 . S
C2116 C2117 1.372 . S
C2117 C2116 1.372 . S
C2117 C2118 1.400 . S
C2117 C2122 1.490 . S
C2118 H2108 0.930 . S
C2118 C2117 1.400 . S
C2118 C2121 1.386 . S
H2119 C2135 0.930 . S
H2120 C2136 0.931 . S
C2121 H2109 0.929 . S
C2121 C2115 1.390 . S
C2121 C2118 1.386 . S
C2122 C2117 1.490 . S
C2122 C2124 1.395 . S
C2122 C2125 1.403 . S
H2123 C2129 0.930 . S
C2124 H2110 0.930 . S
C2124 C2122 1.395 . S
C2124 C2127 1.403 . S
C2125 C2122 1.403 . S
C2125 C2126 1.524 . S
C2125 C2129 1.400 . S
C2126 H2111 0.960 . S
C2126 H2112 0.960 . S
C2126 H2113 0.960 . S
C2126 C2125 1.524 . S
C2127 C2124 1.403 . S
C2127 C2128 1.392 . S
C2127 C2131 1.495 . S
C2128 C2127 1.392 . S
C2128 C2129 1.385 . S
C2128 C2130 1.478 . S
C2129 H2123 0.930 . S
C2129 C2125 1.400 . S
C2129 C2128 1.385 . S
C2130 C2128 1.478 . S
C2130 C2132 1.381 . S
C2130 C2136 1.383 . S
C2131 C2127 1.495 . S
C2131 H2137 0.959 . S
C2131 H2138 0.961 . S
C2131 H2139 0.960 . S
C2132 C2130 1.381 . S
C2132 C2133 1.394 . S
C2132 H2140 0.930 . S
C2133 C2132 1.394 . S
C2133 C2134 1.383 . S
C2133 H2141 0.929 . S
C2134 C2133 1.383 . S
C2134 C2135 1.377 . S
C2135 H2119 0.930 . S
C2135 C2134 1.377 . S
C2135 C2136 1.379 . S
C2136 H2120 0.931 . S
C2136 C2130 1.383 . S
C2136 C2135 1.379 . S
H2137 C2131 0.959 . S
H2138 C2131 0.961 . S
H2139 C2131 0.960 . S
H2140 C2132 0.930 . S
H2141 C2133 0.929 . S
H2142 C2150 0.929 . S
H2143 C2152 0.930 . S
H2144 C2154 0.930 . S
H2145 C2157 0.929 . S
H2146 C2160 0.930 . S
H2147 C2162 0.960 . S
H2148 C2162 0.960 . S
H2149 C2162 0.960 . S
C2150 H2142 0.929 . S
C2150 C2151 1.377 . S
C2150 C2152 1.384 . S
C2151 C2150 1.377 . S
C2151 C2157 1.390 . S
C2152 H2143 0.930 . S
C2152 C2150 1.384 . S
C2152 C2153 1.372 . S
C2153 C2152 1.372 . S
C2153 C2154 1.400 . S
C2153 C2158 1.490 . S
C2154 H2144 0.930 . S
C2154 C2153 1.400 . S
C2154 C2157 1.386 . S
H2155 C2171 0.930 . S
H2156 C2172 0.931 . S
C2157 H2145 0.929 . S
C2157 C2151 1.390 . S
C2157 C2154 1.386 . S
C2158 C2153 1.490 . S
C2158 C2160 1.395 . S
C2158 C2161 1.403 . S
H2159 C2165 0.930 . S
C2160 H2146 0.930 . S
C2160 C2158 1.395 . S
C2160 C2163 1.403 . S
C2161 C2158 1.403 . S
C2161 C2162 1.524 . S
C2161 C2165 1.400 . S
C2162 H2147 0.960 . S
C2162 H2148 0.960 . S
C2162 H2149 0.960 . S
C2162 C2161 1.524 . S
C2163 C2160 1.403 . S
C2163 C2164 1.392 . S
C2163 C2167 1.495 . S
C2164 C2163 1.392 . S
C2164 C2165 1.385 . S
C2164 C2166 1.478 . S
C2165 H2159 0.930 . S
C2165 C2161 1.400 . S
C2165 C2164 1.385 . S
C2166 C2164 1.478 . S
C2166 C2168 1.381 . S
C2166 C2172 1.383 . S
C2167 C2163 1.495 . S
C2167 H2173 0.959 . S
C2167 H2174 0.961 . S
C2167 H2175 0.960 . S
C2168 C2166 1.381 . S
C2168 C2169 1.394 . S
C2168 H2176 0.930 . S
C2169 C2168 1.394 . S
C2169 C2170 1.383 . S
C2169 H2177 0.929 . S
C2170 C2169 1.383 . S
C2170 C2171 1.377 . S
C2171 H2155 0.930 . S
C2171 C2170 1.377 . S
C2171 C2172 1.379 . S
C2172 H2156 0.931 . S
C2172 C2166 1.383 . S
C2172 C2171 1.379 . S
H2173 C2167 0.959 . S
H2174 C2167 0.961 . S
H2175 C2167 0.960 . S
H2176 C2168 0.930 . S
H2177 C2169 0.929 . S
H2178 C2186 0.929 . S
H2179 C2188 0.930 . S
H2180 C2190 0.930 . S
H2181 C2193 0.929 . S
H2182 C2196 0.930 . S
H2183 C2198 0.960 . S
H2184 C2198 0.960 . S
H2185 C2198 0.960 . S
C2186 H2178 0.929 . S
C2186 C2187 1.377 . S
C2186 C2188 1.384 . S
C2187 C2186 1.377 . S
C2187 C2193 1.390 . S
C2188 H2179 0.930 . S
C2188 C2186 1.384 . S
C2188 C2189 1.372 . S
C2189 C2188 1.372 . S
C2189 C2190 1.400 . S
C2189 C2194 1.490 . S
C2190 H2180 0.930 . S
C2190 C2189 1.400 . S
C2190 C2193 1.386 . S
H2191 C2207 0.930 . S
H2192 C2208 0.931 . S
C2193 H2181 0.929 . S
C2193 C2187 1.390 . S
C2193 C2190 1.386 . S
C2194 C2189 1.490 . S
C2194 C2196 1.395 . S
C2194 C2197 1.403 . S
H2195 C2201 0.930 . S
C2196 H2182 0.930 . S
C2196 C2194 1.395 . S
C2196 C2199 1.403 . S
C2197 C2194 1.403 . S
C2197 C2198 1.524 . S
C2197 C2201 1.400 . S
C2198 H2183 0.960 . S
C2198 H2184 0.960 . S
C2198 H2185 0.960 . S
C2198 C2197 1.524 . S
C2199 C2196 1.403 . S
C2199 C2200 1.392 . S
C2199 C2203 1.495 . S
C2200 C2199 1.392 . S
C2200 C2201 1.385 . S
C2200 C2202 1.478 . S
C2201 H2195 0.930 . S
C2201 C2197 1.400 . S
C2201 C2200 1.385 . S
C2202 C2200 1.478 . S
C2202 C2204 1.381 . S
C2202 C2208 1.383 . S
C2203 C2199 1.495 . S
C2203 H2209 0.959 . S
C2203 H2210 0.961 . S
C2203 H2211 0.960 . S
C2204 C2202 1.381 . S
C2204 C2205 1.394 . S
C2204 H2212 0.930 . S
C2205 C2204 1.394 . S
C2205 C2206 1.383 . S
C2205 H2213 0.929 . S
C2206 C2205 1.383 . S
C2206 C2207 1.377 . S
C2207 H2191 0.930 . S
C2207 C2206 1.377 . S
C2207 C2208 1.379 . S
C2208 H2192 0.931 . S
C2208 C2202 1.383 . S
C2208 C2207 1.379 . S
H2209 C2203 0.959 . S
H2210 C2203 0.961 . S
H2211 C2203 0.960 . S
H2212 C2204 0.930 . S
H2213 C2205 0.929 . S
H2214 C2222 0.929 . S
H2215 C2224 0.930 . S
H2216 C2226 0.930 . S
H2217 C2229 0.929 . S
H2218 C2232 0.930 . S
H2219 C2234 0.960 . S
H2220 C2234 0.960 . S
H2221 C2234 0.960 . S
C2222 H2214 0.929 . S
C2222 C2223 1.377 . S
C2222 C2224 1.384 . S
C2223 C2222 1.377 . S
C2223 C2229 1.390 . S
C2224 H2215 0.930 . S
C2224 C2222 1.384 . S
C2224 C2225 1.372 . S
C2225 C2224 1.372 . S
C2225 C2226 1.400 . S
C2225 C2230 1.490 . S
C2226 H2216 0.930 . S
C2226 C2225 1.400 . S
C2226 C2229 1.386 . S
H2227 C2243 0.930 . S
H2228 C2244 0.931 . S
C2229 H2217 0.929 . S
C2229 C2223 1.390 . S
C2229 C2226 1.386 . S
C2230 C2225 1.490 . S
C2230 C2232 1.395 . S
C2230 C2233 1.403 . S
H2231 C2237 0.930 . S
C2232 H2218 0.930 . S
C2232 C2230 1.395 . S
C2232 C2235 1.403 . S
C2233 C2230 1.403 . S
C2233 C2234 1.524 . S
C2233 C2237 1.400 . S
C2234 H2219 0.960 . S
C2234 H2220 0.960 . S
C2234 H2221 0.960 . S
C2234 C2233 1.524 . S
C2235 C2232 1.403 . S
C2235 C2236 1.392 . S
C2235 C2239 1.495 . S
C2236 C2235 1.392 . S
C2236 C2237 1.385 . S
C2236 C2238 1.478 . S
C2237 H2231 0.930 . S
C2237 C2233 1.400 . S
C2237 C2236 1.385 . S
C2238 C2236 1.478 . S
C2238 C2240 1.381 . S
C2238 C2244 1.383 . S
C2239 C2235 1.495 . S
C2239 H2245 0.959 . S
C2239 H2246 0.961 . S
C2239 H2247 0.960 . S
C2240 C2238 1.381 . S
C2240 C2241 1.394 . S
C2240 H2248 0.930 . S
C2241 C2240 1.394 . S
C2241 C2242 1.383 . S
C2241 H2249 0.929 . S
C2242 C2241 1.383 . S
C2242 C2243 1.377 . S
C2243 H2227 0.930 . S
C2243 C2242 1.377 . S
C2243 C2244 1.379 . S
C2244 H2228 0.931 . S
C2244 C2238 1.383 . S
C2244 C2243 1.379 . S
H2245 C2239 0.959 . S
H2246 C2239 0.961 . S
H2247 C2239 0.960 . S
H2248 C2240 0.930 . S
H2249 C2241 0.929 . S
H2250 C2258 0.929 . S
H2251 C2260 0.930 . S
H2252 C2262 0.930 . S
H2253 C2265 0.929 . S
H2254 C2268 0.930 . S
H2255 C2270 0.960 . S
H2256 C2270 0.960 . S
H2257 C2270 0.960 . S
C2258 H2250 0.929 . S
C2258 C2259 1.377 . S
C2258 C2260 1.384 . S
C2259 C2258 1.377 . S
C2259 C2265 1.390 . S
C2260 H2251 0.930 . S
C2260 C2258 1.384 . S
C2260 C2261 1.372 . S
C2261 C2260 1.372 . S
C2261 C2262 1.400 . S
C2261 C2266 1.490 . S
C2262 H2252 0.930 . S
C2262 C2261 1.400 . S
C2262 C2265 1.386 . S
H2263 C2279 0.930 . S
H2264 C2280 0.931 . S
C2265 H2253 0.929 . S
C2265 C2259 1.390 . S
C2265 C2262 1.386 . S
C2266 C2261 1.490 . S
C2266 C2268 1.395 . S
C2266 C2269 1.403 . S
H2267 C2273 0.930 . S
C2268 H2254 0.930 . S
C2268 C2266 1.395 . S
C2268 C2271 1.403 . S
C2269 C2266 1.403 . S
C2269 C2270 1.524 . S
C2269 C2273 1.400 . S
C2270 H2255 0.960 . S
C2270 H2256 0.960 . S
C2270 H2257 0.960 . S
C2270 C2269 1.524 . S
C2271 C2268 1.403 . S
C2271 C2272 1.392 . S
C2271 C2275 1.495 . S
C2272 C2271 1.392 . S
C2272 C2273 1.385 . S
C2272 C2274 1.478 . S
C2273 H2267 0.930 . S
C2273 C2269 1.400 . S
C2273 C2272 1.385 . S
C2274 C2272 1.478 . S
C2274 C2276 1.381 . S
C2274 C2280 1.383 . S
C2275 C2271 1.495 . S
C2275 H2281 0.959 . S
C2275 H2282 0.961 . S
C2275 H2283 0.960 . S
C2276 C2274 1.381 . S
C2276 C2277 1.394 . S
C2276 H2284 0.930 . S
C2277 C2276 1.394 . S
C2277 C2278 1.383 . S
C2277 H2285 0.929 . S
C2278 C2277 1.383 . S
C2278 C2279 1.377 . S
C2279 H2263 0.930 . S
C2279 C2278 1.377 . S
C2279 C2280 1.379 . S
C2280 H2264 0.931 . S
C2280 C2274 1.383 . S
C2280 C2279 1.379 . S
H2281 C2275 0.959 . S
H2282 C2275 0.961 . S
H2283 C2275 0.960 . S
H2284 C2276 0.930 . S
H2285 C2277 0.929 . S
H2286 C2294 0.929 . S
H2287 C2296 0.930 . S
H2288 C2298 0.930 . S
H2289 C2301 0.929 . S
H2290 C2304 0.930 . S
H2291 C2306 0.960 . S
H2292 C2306 0.960 . S
H2293 C2306 0.960 . S
C2294 H2286 0.929 . S
C2294 C2295 1.377 . S
C2294 C2296 1.384 . S
C2295 C2294 1.377 . S
C2295 C2301 1.390 . S
C2296 H2287 0.930 . S
C2296 C2294 1.384 . S
C2296 C2297 1.372 . S
C2297 C2296 1.372 . S
C2297 C2298 1.400 . S
C2297 C2302 1.490 . S
C2298 H2288 0.930 . S
C2298 C2297 1.400 . S
C2298 C2301 1.386 . S
H2299 C2315 0.930 . S
H2300 C2316 0.931 . S
C2301 H2289 0.929 . S
C2301 C2295 1.390 . S
C2301 C2298 1.386 . S
C2302 C2297 1.490 . S
C2302 C2304 1.395 . S
C2302 C2305 1.403 . S
H2303 C2309 0.930 . S
C2304 H2290 0.930 . S
C2304 C2302 1.395 . S
C2304 C2307 1.403 . S
C2305 C2302 1.403 . S
C2305 C2306 1.524 . S
C2305 C2309 1.400 . S
C2306 H2291 0.960 . S
C2306 H2292 0.960 . S
C2306 H2293 0.960 . S
C2306 C2305 1.524 . S
C2307 C2304 1.403 . S
C2307 C2308 1.392 . S
C2307 C2311 1.495 . S
C2308 C2307 1.392 . S
C2308 C2309 1.385 . S
C2308 C2310 1.478 . S
C2309 H2303 0.930 . S
C2309 C2305 1.400 . S
C2309 C2308 1.385 . S
C2310 C2308 1.478 . S
C2310 C2312 1.381 . S
C2310 C2316 1.383 . S
C2311 C2307 1.495 . S
C2311 H2317 0.959 . S
C2311 H2318 0.961 . S
C2311 H2319 0.960 . S
C2312 C2310 1.381 . S
C2312 C2313 1.394 . S
C2312 H2320 0.930 . S
C2313 C2312 1.394 . S
C2313 C2314 1.383 . S
C2313 H2321 0.929 . S
C2314 C2313 1.383 . S
C2314 C2315 1.377 . S
C2315 H2299 0.930 . S
C2315 C2314 1.377 . S
C2315 C2316 1.379 . S
C2316 H2300 0.931 . S
C2316 C2310 1.383 . S
C2316 C2315 1.379 . S
H2317 C2311 0.959 . S
H2318 C2311 0.961 . S
H2319 C2311 0.960 . S
H2320 C2312 0.930 . S
H2321 C2313 0.929 . S
H2322 C2330 0.929 . S
H2323 C2332 0.930 . S
H2324 C2334 0.930 . S
H2325 C2337 0.929 . S
H2326 C2340 0.930 . S
H2327 C2342 0.960 . S
H2328 C2342 0.960 . S
H2329 C2342 0.960 . S
C2330 H2322 0.929 . S
C2330 C2331 1.377 . S
C2330 C2332 1.384 . S
C2331 C2330 1.377 . S
C2331 C2337 1.390 . S
C2332 H2323 0.930 . S
C2332 C2330 1.384 . S
C2332 C2333 1.372 . S
C2333 C2332 1.372 . S
C2333 C2334 1.400 . S
C2333 C2338 1.490 . S
C2334 H2324 0.930 . S
C2334 C2333 1.400 . S
C2334 C2337 1.386 . S
H2335 C2351 0.930 . S
H2336 C2352 0.931 . S
C2337 H2325 0.929 . S
C2337 C2331 1.390 . S
C2337 C2334 1.386 . S
C2338 C2333 1.490 . S
C2338 C2340 1.395 . S
C2338 C2341 1.403 . S
H2339 C2345 0.930 . S
C2340 H2326 0.930 . S
C2340 C2338 1.395 . S
C2340 C2343 1.403 . S
C2341 C2338 1.403 . S
C2341 C2342 1.524 . S
C2341 C2345 1.400 . S
C2342 H2327 0.960 . S
C2342 H2328 0.960 . S
C2342 H2329 0.960 . S
C2342 C2341 1.524 . S
C2343 C2340 1.403 . S
C2343 C2344 1.392 . S
C2343 C2347 1.495 . S
C2344 C2343 1.392 . S
C2344 C2345 1.385 . S
C2344 C2346 1.478 . S
C2345 H2339 0.930 . S
C2345 C2341 1.400 . S
C2345 C2344 1.385 . S
C2346 C2344 1.478 . S
C2346 C2348 1.381 . S
C2346 C2352 1.383 . S
C2347 C2343 1.495 . S
C2347 H2353 0.959 . S
C2347 H2354 0.961 . S
C2347 H2355 0.960 . S
C2348 C2346 1.381 . S
C2348 C2349 1.394 . S
C2348 H2356 0.930 . S
C2349 C2348 1.394 . S
C2349 C2350 1.383 . S
C2349 H2357 0.929 . S
C2350 C2349 1.383 . S
C2350 C2351 1.377 . S
C2351 H2335 0.930 . S
C2351 C2350 1.377 . S
C2351 C2352 1.379 . S
C2352 H2336 0.931 . S
C2352 C2346 1.383 . S
C2352 C2351 1.379 . S
H2353 C2347 0.959 . S
H2354 C2347 0.961 . S
H2355 C2347 0.960 . S
H2356 C2348 0.930 . S
H2357 C2349 0.929 . S
H2358 C2366 0.929 . S
H2359 C2368 0.930 . S
H2360 C2370 0.930 . S
H2361 C2373 0.929 . S
H2362 C2376 0.930 . S
H2363 C2378 0.960 . S
H2364 C2378 0.960 . S
H2365 C2378 0.960 . S
C2366 H2358 0.929 . S
C2366 C2367 1.377 . S
C2366 C2368 1.384 . S
C2367 C2366 1.377 . S
C2367 C2373 1.390 . S
C2368 H2359 0.930 . S
C2368 C2366 1.384 . S
C2368 C2369 1.372 . S
C2369 C2368 1.372 . S
C2369 C2370 1.400 . S
C2369 C2374 1.490 . S
C2370 H2360 0.930 . S
C2370 C2369 1.400 . S
C2370 C2373 1.386 . S
H2371 C2387 0.930 . S
H2372 C2388 0.931 . S
C2373 H2361 0.929 . S
C2373 C2367 1.390 . S
C2373 C2370 1.386 . S
C2374 C2369 1.490 . S
C2374 C2376 1.395 . S
C2374 C2377 1.403 . S
H2375 C2381 0.930 . S
C2376 H2362 0.930 . S
C2376 C2374 1.395 . S
C2376 C2379 1.403 . S
C2377 C2374 1.403 . S
C2377 C2378 1.524 . S
C2377 C2381 1.400 . S
C2378 H2363 0.960 . S
C2378 H2364 0.960 . S
C2378 H2365 0.960 . S
C2378 C2377 1.524 . S
C2379 C2376 1.403 . S
C2379 C2380 1.392 . S
C2379 C2383 1.495 . S
C2380 C2379 1.392 . S
C2380 C2381 1.385 . S
C2380 C2382 1.478 . S
C2381 H2375 0.930 . S
C2381 C2377 1.400 . S
C2381 C2380 1.385 . S
C2382 C2380 1.478 . S
C2382 C2384 1.381 . S
C2382 C2388 1.383 . S
C2383 C2379 1.495 . S
C2383 H2389 0.959 . S
C2383 H2390 0.961 . S
C2383 H2391 0.960 . S
C2384 C2382 1.381 . S
C2384 C2385 1.394 . S
C2384 H2392 0.930 . S
C2385 C2384 1.394 . S
C2385 C2386 1.383 . S
C2385 H2393 0.929 . S
C2386 C2385 1.383 . S
C2386 C2387 1.377 . S
C2387 H2371 0.930 . S
C2387 C2386 1.377 . S
C2387 C2388 1.379 . S
C2388 H2372 0.931 . S
C2388 C2382 1.383 . S
C2388 C2387 1.379 . S
H2389 C2383 0.959 . S
H2390 C2383 0.961 . S
H2391 C2383 0.960 . S
H2392 C2384 0.930 . S
H2393 C2385 0.929 . S
H2394 C2402 0.929 . S
H2395 C2404 0.930 . S
H2396 C2406 0.930 . S
H2397 C2409 0.929 . S
H2398 C2412 0.930 . S
H2399 C2414 0.960 . S
H2400 C2414 0.960 . S
H2401 C2414 0.960 . S
C2402 H2394 0.929 . S
C2402 C2403 1.377 . S
C2402 C2404 1.384 . S
C2403 C2402 1.377 . S
C2403 C2409 1.390 . S
C2404 H2395 0.930 . S
C2404 C2402 1.384 . S
C2404 C2405 1.372 . S
C2405 C2404 1.372 . S
C2405 C2406 1.400 . S
C2405 C2410 1.490 . S
C2406 H2396 0.930 . S
C2406 C2405 1.400 . S
C2406 C2409 1.386 . S
H2407 C2423 0.930 . S
H2408 C2424 0.931 . S
C2409 H2397 0.929 . S
C2409 C2403 1.390 . S
C2409 C2406 1.386 . S
C2410 C2405 1.490 . S
C2410 C2412 1.395 . S
C2410 C2413 1.403 . S
H2411 C2417 0.930 . S
C2412 H2398 0.930 . S
C2412 C2410 1.395 . S
C2412 C2415 1.403 . S
C2413 C2410 1.403 . S
C2413 C2414 1.524 . S
C2413 C2417 1.400 . S
C2414 H2399 0.960 . S
C2414 H2400 0.960 . S
C2414 H2401 0.960 . S
C2414 C2413 1.524 . S
C2415 C2412 1.403 . S
C2415 C2416 1.392 . S
C2415 C2419 1.495 . S
C2416 C2415 1.392 . S
C2416 C2417 1.385 . S
C2416 C2418 1.478 . S
C2417 H2411 0.930 . S
C2417 C2413 1.400 . S
C2417 C2416 1.385 . S
C2418 C2416 1.478 . S
C2418 C2420 1.381 . S
C2418 C2424 1.383 . S
C2419 C2415 1.495 . S
C2419 H2425 0.959 . S
C2419 H2426 0.961 . S
C2419 H2427 0.960 . S
C2420 C2418 1.381 . S
C2420 C2421 1.394 . S
C2420 H2428 0.930 . S
C2421 C2420 1.394 . S
C2421 C2422 1.383 . S
C2421 H2429 0.929 . S
C2422 C2421 1.383 . S
C2422 C2423 1.377 . S
C2423 H2407 0.930 . S
C2423 C2422 1.377 . S
C2423 C2424 1.379 . S
C2424 H2408 0.931 . S
C2424 C2418 1.383 . S
C2424 C2423 1.379 . S
H2425 C2419 0.959 . S
H2426 C2419 0.961 . S
H2427 C2419 0.960 . S
H2428 C2420 0.930 . S
H2429 C2421 0.929 . S
H2430 C2438 0.929 . S
H2431 C2440 0.930 . S
H2432 C2442 0.930 . S
H2433 C2445 0.929 . S
H2434 C2448 0.930 . S
H2435 C2450 0.960 . S
H2436 C2450 0.960 . S
H2437 C2450 0.960 . S
C2438 H2430 0.929 . S
C2438 C2439 1.377 . S
C2438 C2440 1.384 . S
C2439 C2438 1.377 . S
C2439 C2445 1.390 . S
C2440 H2431 0.930 . S
C2440 C2438 1.384 . S
C2440 C2441 1.372 . S
C2441 C2440 1.372 . S
C2441 C2442 1.400 . S
C2441 C2446 1.490 . S
C2442 H2432 0.930 . S
C2442 C2441 1.400 . S
C2442 C2445 1.386 . S
H2443 C2459 0.930 . S
H2444 C2460 0.931 . S
C2445 H2433 0.929 . S
C2445 C2439 1.390 . S
C2445 C2442 1.386 . S
C2446 C2441 1.490 . S
C2446 C2448 1.395 . S
C2446 C2449 1.403 . S
H2447 C2453 0.930 . S
C2448 H2434 0.930 . S
C2448 C2446 1.395 . S
C2448 C2451 1.403 . S
C2449 C2446 1.403 . S
C2449 C2450 1.524 . S
C2449 C2453 1.400 . S
C2450 H2435 0.960 . S
C2450 H2436 0.960 . S
C2450 H2437 0.960 . S
C2450 C2449 1.524 . S
C2451 C2448 1.403 . S
C2451 C2452 1.392 . S
C2451 C2455 1.495 . S
C2452 C2451 1.392 . S
C2452 C2453 1.385 . S
C2452 C2454 1.478 . S
C2453 H2447 0.930 . S
C2453 C2449 1.400 . S
C2453 C2452 1.385 . S
C2454 C2452 1.478 . S
C2454 C2456 1.381 . S
C2454 C2460 1.383 . S
C2455 C2451 1.495 . S
C2455 H2461 0.959 . S
C2455 H2462 0.961 . S
C2455 H2463 0.960 . S
C2456 C2454 1.381 . S
C2456 C2457 1.394 . S
C2456 H2464 0.930 . S
C2457 C2456 1.394 . S
C2457 C2458 1.383 . S
C2457 H2465 0.929 . S
C2458 C2457 1.383 . S
C2458 C2459 1.377 . S
C2459 H2443 0.930 . S
C2459 C2458 1.377 . S
C2459 C2460 1.379 . S
C2460 H2444 0.931 . S
C2460 C2454 1.383 . S
C2460 C2459 1.379 . S
H2461 C2455 0.959 . S
H2462 C2455 0.961 . S
H2463 C2455 0.960 . S
H2464 C2456 0.930 . S
H2465 C2457 0.929 . S
H2466 C2474 0.929 . S
H2467 C2476 0.930 . S
H2468 C2478 0.930 . S
H2469 C2481 0.929 . S
H2470 C2484 0.930 . S
H2471 C2486 0.960 . S
H2472 C2486 0.960 . S
H2473 C2486 0.960 . S
C2474 H2466 0.929 . S
C2474 C2475 1.377 . S
C2474 C2476 1.384 . S
C2475 C2474 1.377 . S
C2475 C2481 1.390 . S
C2476 H2467 0.930 . S
C2476 C2474 1.384 . S
C2476 C2477 1.372 . S
C2477 C2476 1.372 . S
C2477 C2478 1.400 . S
C2477 C2482 1.490 . S
C2478 H2468 0.930 . S
C2478 C2477 1.400 . S
C2478 C2481 1.386 . S
H2479 C2495 0.930 . S
H2480 C2496 0.931 . S
C2481 H2469 0.929 . S
C2481 C2475 1.390 . S
C2481 C2478 1.386 . S
C2482 C2477 1.490 . S
C2482 C2484 1.395 . S
C2482 C2485 1.403 . S
H2483 C2489 0.930 . S
C2484 H2470 0.930 . S
C2484 C2482 1.395 . S
C2484 C2487 1.403 . S
C2485 C2482 1.403 . S
C2485 C2486 1.524 . S
C2485 C2489 1.400 . S
C2486 H2471 0.960 . S
C2486 H2472 0.960 . S
C2486 H2473 0.960 . S
C2486 C2485 1.524 . S
C2487 C2484 1.403 . S
C2487 C2488 1.392 . S
C2487 C2491 1.495 . S
C2488 C2487 1.392 . S
C2488 C2489 1.385 . S
C2488 C2490 1.478 . S
C2489 H2483 0.930 . S
C2489 C2485 1.400 . S
C2489 C2488 1.385 . S
C2490 C2488 1.478 . S
C2490 C2492 1.381 . S
C2490 C2496 1.383 . S
C2491 C2487 1.495 . S
C2491 H2497 0.959 . S
C2491 H2498 0.961 . S
C2491 H2499 0.960 . S
C2492 C2490 1.381 . S
C2492 C2493 1.394 . S
C2492 H2500 0.930 . S
C2493 C2492 1.394 . S
C2493 C2494 1.383 . S
C2493 H2501 0.929 . S
C2494 C2493 1.383 . S
C2494 C2495 1.377 . S
C2495 H2479 0.930 . S
C2495 C2494 1.377 . S
C2495 C2496 1.379 . S
C2496 H2480 0.931 . S
C2496 C2490 1.383 . S
C2496 C2495 1.379 . S
H2497 C2491 0.959 . S
H2498 C2491 0.961 . S
H2499 C2491 0.960 . S
H2500 C2492 0.930 . S
H2501 C2493 0.929 . S
H2502 C2510 0.929 . S
H2503 C2512 0.930 . S
H2504 C2514 0.930 . S
H2505 C2517 0.929 . S
H2506 C2520 0.930 . S
H2507 C2522 0.960 . S
H2508 C2522 0.960 . S
H2509 C2522 0.960 . S
C2510 H2502 0.929 . S
C2510 C2511 1.377 . S
C2510 C2512 1.384 . S
C2511 C2510 1.377 . S
C2511 C2517 1.390 . S
C2512 H2503 0.930 . S
C2512 C2510 1.384 . S
C2512 C2513 1.372 . S
C2513 C2512 1.372 . S
C2513 C2514 1.400 . S
C2513 C2518 1.490 . S
C2514 H2504 0.930 . S
C2514 C2513 1.400 . S
C2514 C2517 1.386 . S
H2515 C2531 0.930 . S
H2516 C2532 0.931 . S
C2517 H2505 0.929 . S
C2517 C2511 1.390 . S
C2517 C2514 1.386 . S
C2518 C2513 1.490 . S
C2518 C2520 1.395 . S
C2518 C2521 1.403 . S
H2519 C2525 0.930 . S
C2520 H2506 0.930 . S
C2520 C2518 1.395 . S
C2520 C2523 1.403 . S
C2521 C2518 1.403 . S
C2521 C2522 1.524 . S
C2521 C2525 1.400 . S
C2522 H2507 0.960 . S
C2522 H2508 0.960 . S
C2522 H2509 0.960 . S
C2522 C2521 1.524 . S
C2523 C2520 1.403 . S
C2523 C2524 1.392 . S
C2523 C2527 1.495 . S
C2524 C2523 1.392 . S
C2524 C2525 1.385 . S
C2524 C2526 1.478 . S
C2525 H2519 0.930 . S
C2525 C2521 1.400 . S
C2525 C2524 1.385 . S
C2526 C2524 1.478 . S
C2526 C2528 1.381 . S
C2526 C2532 1.383 . S
C2527 C2523 1.495 . S
C2527 H2533 0.959 . S
C2527 H2534 0.961 . S
C2527 H2535 0.960 . S
C2528 C2526 1.381 . S
C2528 C2529 1.394 . S
C2528 H2536 0.930 . S
C2529 C2528 1.394 . S
C2529 C2530 1.383 . S
C2529 H2537 0.929 . S
C2530 C2529 1.383 . S
C2530 C2531 1.377 . S
C2531 H2515 0.930 . S
C2531 C2530 1.377 . S
C2531 C2532 1.379 . S
C2532 H2516 0.931 . S
C2532 C2526 1.383 . S
C2532 C2531 1.379 . S
H2533 C2527 0.959 . S
H2534 C2527 0.961 . S
H2535 C2527 0.960 . S
H2536 C2528 0.930 . S
H2537 C2529 0.929 . S
C603 C177 1.690 . S
C622 C246 1.695 . S
C639 C190 1.847 . S
C658 C286 1.846 . S
C675 C164 1.610 . S
C694 C316 1.593 . S
C711 C151 1.463 . S
C730 C276 1.421 . S
C766 C326 1.491 1_556 S
C747 C125 1.494 . S
C783 C138 1.310 . S
C802 C236 1.286 . S
C838 C265 1.688 1_556 S
C819 C147 1.644 . S
C874 C305 1.714 . S
C855 C121 1.655 . S
C891 C134 1.635 . S
C910 C331 1.704 . S
C927 C173 1.458 . S
C946 C291 1.511 . S
C963 C186 1.412 . S
C982 C345 1.446 . S
C1018 C251 1.414 . S
C999 C160 1.386 . S
C1054 C366 1.693 . S
C1035 C21 1.688 . S
C1071 C34 1.849 . S
C1090 C406 1.849 . S
C1107 C8 1.609 . S
C1126 C436 1.596 . S
C1143 C229 1.468 . S
C1162 C396 1.456 . S
C1179 C203 1.494 . S
C1198 C446 1.491 . S
C1215 C216 1.313 . S
C1234 C356 1.298 . S
C1251 C225 1.637 . S
C1270 C385 1.673 . S
C1287 C199 1.652 . S
C1306 C425 1.709 . S
C1342 C451 1.677 . S
C1323 C212 1.626 . S
C1359 C17 1.458 . S
C1378 C411 1.490 . S
C1414 C465 1.440 . S
C1395 C30 1.414 . S
C1431 C4 1.392 . S
C1450 C371 1.437 . S
C1486 C486 1.692 . S
C1467 C99 1.687 . S
C1503 C112 1.846 . S
C1522 C526 1.835 . S
C1558 C556 1.583 . S
C1539 C86 1.607 . S
C1594 C516 1.418 . S
C1575 C73 1.462 . S
C1630 C566 1.489 . S
C1611 C47 1.493 . S
C1647 C60 1.310 . S
C1666 C476 1.286 . S
C1683 C69 1.641 . S
C1702 C505 1.674 . S
C1719 C43 1.650 . S
C1738 C545 1.704 . S
C1774 C571 1.676 . S
C1755 C56 1.626 . S
C1791 C95 1.448 . S
C1810 C531 1.475 . S
C1827 C108 1.414 . S
C1846 C585 1.442 . S
C1863 C82 1.388 . S
C1882 C491 1.424 . S
C1899 C204 1.410 . S
C1918 C263 1.375 . S
C1954 C303 1.972 . S
C1935 C217 1.996 . S
C1971 C230 1.569 . S
C1990 C322 1.586 . S
C2007 C87 1.841 . S
C2026 C282 1.848 . S
C2043 C100 1.691 . S
C2062 C343 1.657 . S
C2098 C242 1.243 . S
C2079 C113 1.243 . S
C2115 C48 1.415 . S
C2134 C383 1.407 . S
C2151 C61 1.992 . S
C2170 C423 1.956 . S
C2187 C74 1.564 . S
C2206 C442 1.569 . S
C2223 C165 1.839 . S
C2242 C402 1.844 . S
C2278 C463 1.657 . S
C2259 C178 1.693 . S
C2295 C191 1.244 . S
C2314 C362 1.246 . S
C2331 C126 1.411 . S
C2350 C503 1.365 . S
C2367 C139 1.997 . S
C2386 C543 1.962 . S
C2422 C562 1.578 . S
C2403 C152 1.566 . S
C2439 C9 1.838 . S
C2458 C522 1.834 . S
C2475 C22 1.691 . S
C2494 C583 1.684 . S
C2511 C35 1.238 . S
C2530 C482 1.245 . S
