# Generated by pormake.
# Topology pyr, (3,6)-cn, num edge types: 1
# Building blocks:
#     Node 0, Type 0, BuildingBlock: BETDIP_clean_linker_0, # of connection points: 3
#     Node 1, Type 0, BuildingBlock: BETDIP_clean_linker_0, # of connection points: 3
#     Node 2, Type 0, BuildingBlock: BETDIP_clean_linker_0, # of connection points: 3
#     Node 3, Type 0, BuildingBlock: BETDIP_clean_linker_0, # of connection points: 3
#     Node 4, Type 0, BuildingBlock: BETDIP_clean_linker_0, # of connection points: 3
#     Node 5, Type 0, BuildingBlock: BETDIP_clean_linker_0, # of connection points: 3
#     Node 6, Type 0, BuildingBlock: BETDIP_clean_linker_0, # of connection points: 3
#     Node 7, Type 0, BuildingBlock: BETDIP_clean_linker_0, # of connection points: 3
#     Node 8, Type 1, BuildingBlock: MIFKUJ_clean_sbu_0, # of connection points: 6
#     Node 9, Type 1, BuildingBlock: MIFKUJ_clean_sbu_0, # of connection points: 6
#     Node 10, Type 1, BuildingBlock: MIFKUJ_clean_sbu_0, # of connection points: 6
#     Node 11, Type 1, BuildingBlock: MIFKUJ_clean_sbu_0, # of connection points: 6
#     Edge 12, Type (0, 1), BuildingBlock: EZIPEK_clean_linker_0, # of connection points: 2
#     Edge 13, Type (0, 1), BuildingBlock: EZIPEK_clean_linker_0, # of connection points: 2
#     Edge 14, Type (0, 1), BuildingBlock: EZIPEK_clean_linker_0, # of connection points: 2
#     Edge 15, Type (0, 1), BuildingBlock: EZIPEK_clean_linker_0, # of connection points: 2
#     Edge 16, Type (0, 1), BuildingBlock: EZIPEK_clean_linker_0, # of connection points: 2
#     Edge 17, Type (0, 1), BuildingBlock: EZIPEK_clean_linker_0, # of connection points: 2
#     Edge 18, Type (0, 1), BuildingBlock: EZIPEK_clean_linker_0, # of connection points: 2
#     Edge 19, Type (0, 1), BuildingBlock: EZIPEK_clean_linker_0, # of connection points: 2
#     Edge 20, Type (0, 1), BuildingBlock: EZIPEK_clean_linker_0, # of connection points: 2
#     Edge 21, Type (0, 1), BuildingBlock: EZIPEK_clean_linker_0, # of connection points: 2
#     Edge 22, Type (0, 1), BuildingBlock: EZIPEK_clean_linker_0, # of connection points: 2
#     Edge 23, Type (0, 1), BuildingBlock: EZIPEK_clean_linker_0, # of connection points: 2
#     Edge 24, Type (0, 1), BuildingBlock: EZIPEK_clean_linker_0, # of connection points: 2
#     Edge 25, Type (0, 1), BuildingBlock: EZIPEK_clean_linker_0, # of connection points: 2
#     Edge 26, Type (0, 1), BuildingBlock: EZIPEK_clean_linker_0, # of connection points: 2
#     Edge 27, Type (0, 1), BuildingBlock: EZIPEK_clean_linker_0, # of connection points: 2
#     Edge 28, Type (0, 1), BuildingBlock: EZIPEK_clean_linker_0, # of connection points: 2
#     Edge 29, Type (0, 1), BuildingBlock: EZIPEK_clean_linker_0, # of connection points: 2
#     Edge 30, Type (0, 1), BuildingBlock: EZIPEK_clean_linker_0, # of connection points: 2
#     Edge 31, Type (0, 1), BuildingBlock: EZIPEK_clean_linker_0, # of connection points: 2
#     Edge 32, Type (0, 1), BuildingBlock: EZIPEK_clean_linker_0, # of connection points: 2
#     Edge 33, Type (0, 1), BuildingBlock: EZIPEK_clean_linker_0, # of connection points: 2
#     Edge 34, Type (0, 1), BuildingBlock: EZIPEK_clean_linker_0, # of connection points: 2
#     Edge 35, Type (0, 1), BuildingBlock: EZIPEK_clean_linker_0, # of connection points: 2
# Relax obj value: 0.063
# Max RMSD: 0.187
# Mean RMSD: 0.126
data_MOF--net-pyr--node1-MIFKUJ_clean_sbu_0--node2-BETDIP_clean_linker_0--edge1-EZIPEK_clean_linker_0
_symmetry_space_group_name_H-M    P1
_symmetry_Int_Tables_number       1
_symmetry_cell_setting            triclinic
loop_
_symmetry_equiv_pos_as_xyz
'x, y, z'
_cell_length_a     29.055594
_cell_length_b     25.506639
_cell_length_c     28.20282
_cell_angle_alpha  88.198435
_cell_angle_beta   82.738936
_cell_angle_gamma 104.95189
loop_
_atom_site_label
_atom_site_type_symbol
_atom_site_fract_x
_atom_site_fract_y
_atom_site_fract_z
_atom_type_partial_charge
H0 H 0.16464 0.1985 0.27223 0.0
H1 H 0.25693 0.18663 0.14405 0.0
H2 H 0.20934 0.05159 0.24927 0.0
H3 H 0.21749 0.23934 0.1106 0.0
C4 C 0.20156 0.2609 0.13785 0.0
C5 C 0.18469 0.17517 0.25063 0.0
C6 C 0.18333 0.12196 0.26659 0.0
C7 C 0.20758 0.19685 0.20511 0.0
C8 C 0.23598 0.16866 0.17784 0.0
C9 C 0.23808 0.11705 0.19455 0.0
C10 C 0.2097 0.09264 0.2377 0.0
N11 N 0.19845 0.24521 0.18716 0.0
H12 H 0.31587 0.8932 0.78202 0.0
H13 H 0.31587 0.78861 0.66475 0.0
H14 H 0.42513 0.80717 0.75648 0.0
H15 H 0.27816 0.84356 0.63223 0.0
C16 C 0.25684 0.85706 0.66137 0.0
C17 C 0.33181 0.86585 0.76104 0.0
C18 C 0.37303 0.85294 0.77373 0.0
C19 C 0.31171 0.84449 0.72073 0.0
C20 C 0.33196 0.80779 0.69452 0.0
C21 C 0.37284 0.79446 0.70738 0.0
C22 C 0.3936 0.81764 0.74651 0.0
N23 N 0.27093 0.85997 0.708 0.0
H24 H 0.70887 0.43561 0.82514 0.0
H25 H 0.59584 0.28978 0.82806 0.0
H26 H 0.71121 0.29703 0.91199 0.0
H27 H 0.59741 0.32185 0.74966 0.0
C28 C 0.60122 0.36476 0.7545 0.0
C29 C 0.69304 0.39337 0.83757 0.0
C30 C 0.71507 0.36805 0.86937 0.0
C31 C 0.65112 0.36423 0.82106 0.0
C32 C 0.63079 0.30918 0.8372 0.0
C33 C 0.65426 0.2812 0.86654 0.0
C34 C 0.69478 0.31334 0.8848 0.0
N35 N 0.63045 0.3914 0.78799 0.0
H36 H 0.74309 0.59649 0.25375 0.0
H37 H 0.86747 0.7336 0.24655 0.0
H38 H 0.75635 0.70526 0.36735 0.0
H39 H 0.87443 0.72034 0.16644 0.0
C40 C 0.86349 0.67629 0.16686 0.0
C41 C 0.76252 0.63314 0.26844 0.0
C42 C 0.74488 0.6477 0.31318 0.0
C43 C 0.80604 0.6645 0.24335 0.0
C44 C 0.83253 0.71028 0.264 0.0
C45 C 0.81425 0.7254 0.30847 0.0
C46 C 0.77014 0.69435 0.33253 0.0
N47 N 0.82397 0.64585 0.19978 0.0
H48 H 0.81188 0.88128 0.90466 0.0
H49 H 0.92106 0.87692 0.78745 0.0
H50 H 0.80376 0.94282 0.76294 0.0
H51 H 0.96463 0.86712 0.84558 0.0
C52 C 0.9381 0.84248 0.87358 0.0
C53 C 0.82697 0.89021 0.86722 0.0
C54 C 0.8031 0.91398 0.83591 0.0
C55 C 0.86997 0.87742 0.85056 0.0
C56 C 0.88876 0.88793 0.8017 0.0
C57 C 0.86504 0.91146 0.7701 0.0
C58 C 0.82229 0.92478 0.78732 0.0
N59 N 0.89137 0.85062 0.8831 0.0
H60 H 0.67616 0.11142 0.28163 0.0
H61 H 0.67669 0.20327 0.40729 0.0
H62 H 0.57435 0.20643 0.31044 0.0
H63 H 0.75674 0.20612 0.39513 0.0
C64 C 0.75871 0.16746 0.38123 0.0
C65 C 0.66125 0.13822 0.30433 0.0
C66 C 0.62256 0.15637 0.29167 0.0
C67 C 0.68175 0.15569 0.34537 0.0
C68 C 0.66193 0.19007 0.37497 0.0
C69 C 0.62316 0.20844 0.36241 0.0
C70 C 0.60375 0.19164 0.32064 0.0
N71 N 0.72239 0.13825 0.35537 0.0
H72 H 0.29302 0.59181 0.25456 0.0
H73 H 0.42725 0.71651 0.241 0.0
H74 H 0.32617 0.71987 0.14297 0.0
H75 H 0.45159 0.64772 0.27546 0.0
C76 C 0.42106 0.62554 0.30097 0.0
C77 C 0.31729 0.6287 0.23667 0.0
C78 C 0.30456 0.65362 0.19711 0.0
C79 C 0.36179 0.65028 0.25245 0.0
C80 C 0.3932 0.69825 0.22885 0.0
C81 C 0.38016 0.72333 0.18944 0.0
C82 C 0.33596 0.70086 0.17376 0.0
N83 N 0.37343 0.62304 0.29224 0.0
H84 H 0.08456 0.24221 0.76701 0.0
H85 H 0.2032 0.3855 0.75987 0.0
H86 H 0.19298 0.28135 0.64307 0.0
H87 H 0.19046 0.36244 0.84314 0.0
C88 C 0.15185 0.35722 0.84759 0.0
C89 C 0.11777 0.26848 0.74826 0.0
C90 C 0.13587 0.25694 0.70245 0.0
C91 C 0.14274 0.3138 0.76998 0.0
C92 C 0.18481 0.34878 0.74465 0.0
C93 C 0.20304 0.33711 0.69896 0.0
C94 C 0.17891 0.29058 0.67841 0.0
N95 N 0.12358 0.3252 0.81606 0.0
Zn96 Zn 0.04842 0.98026 0.54792 0.0
Zn97 Zn 0.94423 0.98704 0.46984 0.0
C98 C 0.06233 0.08858 0.58069 0.0
O99 O 0.06829 0.10375 0.53494 0.0
C100 C 0.88648 0.90643 0.41759 0.0
O101 O 0.85932 0.94039 0.41895 0.0
O102 O 0.09508 0.9402 0.56811 0.0
O103 O 0.98194 0.93025 0.55368 0.0
O104 O 0.92813 0.97403 0.54136 0.0
C105 C 0.09019 0.91933 0.6106 0.0
O106 O 0.05179 0.91919 0.64075 0.0
O107 O 0.0508 0.0384 0.59418 0.0
C108 C 0.91046 0.06568 0.41225 0.0
O109 O 0.94766 0.06673 0.38021 0.0
O110 O 0.90389 0.0368 0.45133 0.0
O111 O 0.01419 0.01779 0.44194 0.0
O112 O 0.07518 0.01533 0.48155 0.0
O113 O 0.92381 0.91684 0.43832 0.0
C114 C 0.94675 0.94861 0.56964 0.0
C115 C 0.05918 0.02776 0.44397 0.0
Zn116 Zn 0.54996 0.96787 0.98914 0.0
Zn117 Zn 0.48043 0.02965 0.0573 0.0
C118 C 0.48778 0.91328 0.92371 0.0
O119 O 0.51177 0.87678 0.92826 0.0
C120 C 0.53364 0.09745 0.12167 0.0
O121 O 0.51616 0.13374 0.10139 0.0
O122 O 0.60481 0.94036 0.95718 0.0
O123 O 0.57879 0.04728 0.9882 0.0
O124 O 0.51264 0.07522 0.99555 0.0
C125 C 0.62519 0.96038 0.91559 0.0
O126 O 0.60836 -0.00424 0.89313 0.0
O127 O 0.49638 0.95528 0.94761 0.0
C128 C 0.37856 0.02779 0.08436 0.0
O129 O 0.36873 0.98073 0.06501 0.0
O130 O 0.42211 0.05494 0.08347 0.0
O131 O 0.45713 0.94702 0.05953 0.0
O132 O 0.52716 0.9274 0.05355 0.0
O133 O 0.52504 0.04949 0.10739 0.0
C134 C 0.55666 0.0822 0.97841 0.0
C135 C 0.48286 0.91612 0.07028 0.0
Zn136 Zn 0.51139 0.45069 0.50381 0.0
Zn137 Zn 0.47412 0.5382 0.577 0.0
C138 C 0.5778 0.50737 0.42875 0.0
O139 O 0.54999 0.46906 0.40735 0.0
C140 C 0.37457 0.48488 0.59579 0.0
O141 O 0.37191 0.53121 0.57626 0.0
O142 O 0.51914 0.38209 0.47127 0.0
O143 O 0.51517 0.43606 0.57437 0.0
O144 O 0.53095 0.51901 0.60025 0.0
C145 C 0.5573 0.36762 0.47579 0.0
O146 O 0.58711 0.39422 0.50346 0.0
O147 O 0.56896 0.50912 0.47394 0.0
C148 C 0.44493 0.63757 0.5973 0.0
O149 O 0.43844 0.63782 0.55206 0.0
O150 O 0.46179 0.60103 0.6148 0.0
O151 O 0.47673 0.55849 0.50738 0.0
O152 O 0.45729 0.47642 0.48035 0.0
O153 O 0.41559 0.47642 0.5974 0.0
C154 C 0.53239 0.46972 0.60408 0.0
C155 C 0.46119 0.52736 0.4753 0.0
Zn156 Zn 0.97387 0.53958 0.9719 0.0
Zn157 Zn 0.05742 0.49587 0.07405 0.0
C158 C 0.8983 0.46074 0.93416 0.0
O159 O 0.93375 0.44017 0.91775 0.0
C160 C 0.12604 0.55477 0.12684 0.0
O161 O 0.08979 0.53379 0.16059 0.0
O162 O 0.98624 0.61819 0.95047 0.0
O163 O 0.9842 0.53185 0.03985 0.0
O164 O 0.00436 0.52441 0.11058 0.0
C165 C 0.95046 0.6384 0.95676 0.0
O166 O 0.90924 0.60891 0.97959 0.0
O167 O 0.90643 0.50122 0.95993 0.0
C168 C 0.09679 0.40878 0.07765 0.0
O169 O 0.12047 0.43713 0.03836 0.0
O170 O 0.06167 0.42309 0.10003 0.0
O171 O 0.04942 0.49395 1.00344 0.0
O172 O 0.02239 0.5054 0.93559 0.0
O173 O 0.12063 0.54729 0.0833 0.0
C174 C 0.97872 0.54142 0.08352 0.0
C175 C 0.05035 0.48714 0.95898 0.0
C176 C 0.10492 0.10286 0.32257 0.0
C177 C 0.15244 0.09702 0.31254 0.0
C178 C 0.1375 0.03964 0.38716 0.0
C179 C 0.09343 0.05369 0.40049 0.0
N180 N 0.04719 0.11766 0.38603 0.0
N181 N 0.21808 0.07261 0.34487 0.0
C182 C 0.08067 0.09112 0.36983 0.0
C183 C 0.17017 0.06924 0.34767 0.0
N184 N 0.08181 0.11733 0.28708 0.0
N185 N 0.1476 -0.00329 0.40985 0.0
H186 H 0.24376 0.09738 0.31881 0.0
H187 H 0.23254 0.05609 0.37191 0.0
H188 H 0.12326 0.97024 0.4358 0.0
H189 H 0.17795 0.9834 0.39828 0.0
H190 H 0.04596 0.11863 0.29335 0.0
H191 H 0.09627 0.12119 0.25097 0.0
H192 H 0.03965 0.14798 0.36499 0.0
H193 H 0.03178 0.11435 0.42184 0.0
C194 C 0.38524 0.84128 0.85951 0.0
C195 C 0.39482 0.87477 0.81636 0.0
C196 C 0.46032 0.9397 0.84743 0.0
C197 C 0.45178 0.90517 0.88993 0.0
N198 N 0.3993 0.83166 0.94206 0.0
N199 N 0.43318 0.96091 0.77284 0.0
C200 C 0.41195 0.85859 0.89771 0.0
C201 C 0.4295 0.9259 0.8117 0.0
N202 N 0.3517 0.79209 0.8632 0.0
N203 N 0.4996 0.98371 0.83987 0.0
H204 H 0.41216 0.95129 0.74538 0.0
H205 H 0.45413 0.001 0.7695 0.0
H206 H 0.52243 -0.00406 0.86541 0.0
H207 H 0.51136 0.00663 0.80737 0.0
H208 H 0.3471 0.76265 0.89104 0.0
H209 H 0.32965 0.77951 0.83697 0.0
H210 H 0.3682 0.80025 0.95165 0.0
H211 H 0.41781 0.84417 0.97088 0.0
C212 C 0.61028 0.40185 0.66937 0.0
C213 C 0.58677 0.39721 0.71718 0.0
C214 C 0.5298 0.44508 0.69185 0.0
C215 C 0.55375 0.45023 0.64412 0.0
N216 N 0.6239 0.44749 0.59006 0.0
N217 N 0.53014 0.42244 0.77612 0.0
C218 C 0.59612 0.43262 0.63364 0.0
C219 C 0.54859 0.42175 0.72915 0.0
N220 N 0.64588 0.3764 0.65798 0.0
N221 N 0.48784 0.46008 0.7011 0.0
H222 H 0.54158 0.40371 0.80414 0.0
H223 H 0.50594 0.44468 0.78776 0.0
H224 H 0.47385 0.47865 0.675 0.0
H225 H 0.46538 0.45139 0.73374 0.0
H226 H 0.66032 0.37272 0.62291 0.0
H227 H 0.65918 0.35606 0.68353 0.0
H228 H 0.6576 0.44042 0.58145 0.0
H229 H 0.61529 0.47192 0.56401 0.0
C230 C 0.94423 0.65919 0.14346 0.0
C231 C 0.89448 0.64678 0.13939 0.0
C232 C 0.89986 0.56547 0.09751 0.0
C233 C 0.94979 0.57858 0.10065 0.0
N234 N 0.02186 0.64589 0.11336 0.0
N235 N 0.8281 0.59775 0.10123 0.0
C236 C 0.97275 0.62791 0.11962 0.0
C237 C 0.87322 0.60279 0.11288 0.0
N238 N 0.96392 0.69887 0.17204 0.0
N239 N 0.87752 0.51649 0.08178 0.0
H240 H 0.8083 0.62555 0.11073 0.0
H241 H 0.81246 0.56961 0.07806 0.0
H242 H 0.89582 0.48792 0.07047 0.0
H243 H 0.84032 0.50232 0.08355 0.0
H244 H 0.99856 0.70481 0.18088 0.0
H245 H 0.94467 0.72321 0.19011 0.0
H246 H 0.04037 0.68427 0.12209 0.0
H247 H 0.04414 0.62491 0.09489 0.0
C248 C 0.26437 0.07343 0.12049 0.0
C249 C 0.27157 0.08973 0.1673 0.0
C250 C 0.3424 0.05406 0.16224 0.0
C251 C 0.33971 0.04583 0.1131 0.0
N252 N 0.30064 0.0527 0.04349 0.0
N253 N 0.32318 0.10499 0.22916 0.0
C254 C 0.30115 0.05651 0.09164 0.0
C255 C 0.3121 0.0825 0.18733 0.0
N256 N 0.22202 0.07302 0.10405 0.0
N257 N 0.37259 0.03275 0.18551 0.0
H258 H 0.30316 0.12818 0.24784 0.0
H259 H 0.35506 0.10536 0.2426 0.0
H260 H 0.39311 0.00876 0.16881 0.0
H261 H 0.37289 0.03339 0.22241 0.0
H262 H 0.21279 0.05664 0.07211 0.0
H263 H 0.19414 0.08445 0.12451 0.0
H264 H 0.27632 0.06571 0.02499 0.0
H265 H 0.32697 0.04057 0.02125 0.0
C266 C 0.17977 0.83594 0.62554 0.0
C267 C 0.21242 0.87159 0.65119 0.0
C268 C 0.15965 0.93296 0.6576 0.0
C269 C 0.13015 0.90067 0.62716 0.0
N270 N 0.11394 0.82392 0.57833 0.0
N271 N 0.23873 0.96004 0.68215 0.0
C272 C 0.14083 0.85291 0.6099 0.0
C273 C 0.20365 0.92154 0.66513 0.0
N274 N 0.18486 0.78495 0.61775 0.0
N275 N 0.14604 0.97494 0.67905 0.0
H276 H 0.2727 0.95508 0.68535 0.0
H277 H 0.23619 -0.00062 0.68801 0.0
H278 H 0.11507 0.98615 0.67326 0.0
H279 H 0.1634 -0.00414 0.70569 0.0
H280 H 0.15948 0.75505 0.60374 0.0
H281 H 0.21237 0.7706 0.62931 0.0
H282 H 0.12343 0.79269 0.55989 0.0
H283 H 0.08345 0.83322 0.5683 0.0
C284 C 0.80425 0.41108 0.85221 0.0
C285 C 0.76123 0.39747 0.88528 0.0
C286 C 0.80807 0.42399 0.95131 0.0
C287 C 0.85063 0.44112 0.91773 0.0
N288 N 0.88669 0.46537 0.83535 0.0
N289 N 0.72089 0.40197 0.96456 0.0
C290 C 0.84799 0.43897 0.86788 0.0
C291 C 0.76276 0.40751 0.93436 0.0
N292 N 0.80396 0.39525 0.80636 0.0
N293 N 0.81099 0.42073 0.99925 0.0
H294 H 0.68715 0.39043 0.95311 0.0
H295 H 0.7198 0.41374 0.99963 0.0
H296 H 0.84356 0.43089 0.01302 0.0
H297 H 0.78158 0.40323 0.02505 0.0
H298 H 0.83529 0.39888 0.78256 0.0
H299 H 0.77293 0.37395 0.79332 0.0
H300 H 0.88505 0.46951 0.79877 0.0
H301 H 0.91883 0.48833 0.84527 0.0
C302 C 0.70811 0.57823 0.3807 0.0
C303 C 0.70197 0.61162 0.34222 0.0
C304 C 0.61478 0.57495 0.3588 0.0
C305 C 0.62047 0.54512 0.4003 0.0
N306 N 0.67302 0.52326 0.45391 0.0
N307 N 0.65047 0.64936 0.29886 0.0
C308 C 0.66723 0.54862 0.41248 0.0
C309 C 0.65559 0.61209 0.33238 0.0
N310 N 0.75299 0.57283 0.38553 0.0
N311 N 0.5706 0.56761 0.34409 0.0
H312 H 0.67968 0.67667 0.27823 0.0
H313 H 0.6175 0.65632 0.29421 0.0
H314 H 0.53883 0.54395 0.36355 0.0
H315 H 0.5656 0.58275 0.31095 0.0
H316 H 0.75925 0.54419 0.40928 0.0
H317 H 0.7839 0.59351 0.36268 0.0
H318 H 0.70557 0.53111 0.46767 0.0
H319 H 0.6452 0.49637 0.47627 0.0
C320 C 0.14079 0.28159 0.08911 0.0
C321 C 0.1726 0.2974 0.12358 0.0
C322 C 0.14234 0.37748 0.13744 0.0
C323 C 0.11611 0.36611 0.09813 0.0
N324 N 0.09249 0.30936 0.03403 0.0
N325 N 0.21083 0.36639 0.17322 0.0
C326 C 0.11604 0.31873 0.07317 0.0
C327 C 0.17513 0.3468 0.14606 0.0
N328 N 0.13243 0.23032 0.07323 0.0
N329 N 0.13625 0.41763 0.16655 0.0
H330 H 0.23732 0.34672 0.17831 0.0
H331 H 0.21744 0.40505 0.18617 0.0
H332 H 0.11264 0.44112 0.16158 0.0
H333 H 0.1511 0.42404 0.19832 0.0
H334 H 0.10595 0.2148 0.05193 0.0
H335 H 0.14864 0.2012 0.08492 0.0
H336 H 0.09626 0.27944 0.01068 0.0
H337 H 0.07098 0.33346 0.02361 0.0
C338 C 0.59066 0.18797 0.87117 0.0
C339 C 0.63458 0.22094 0.88282 0.0
C340 C 0.63162 0.15623 0.94912 0.0
C341 C 0.58295 0.12983 0.94483 0.0
N342 N 0.51825 0.11559 0.89601 0.0
N343 N 0.70722 0.20249 0.90271 0.0
C344 C 0.56287 0.14424 0.90418 0.0
C345 C 0.65878 0.19534 0.91294 0.0
N346 N 0.58073 0.19132 0.82535 0.0
N347 N 0.65197 0.14611 0.98832 0.0
H348 H 0.72697 0.22522 0.87188 0.0
H349 H 0.72582 0.18052 0.92125 0.0
H350 H 0.63313 0.12048 0.0178 0.0
H351 H 0.68644 0.16808 0.99339 0.0
H352 H 0.55153 0.16532 0.81283 0.0
H353 H 0.60612 0.21478 0.79816 0.0
H354 H 0.49964 0.12907 0.87098 0.0
H355 H 0.49916 0.07911 0.91484 0.0
C356 C 0.8565 0.76227 0.37696 0.0
C357 C 0.84178 0.77202 0.33211 0.0
C358 C 0.87176 0.86964 0.3386 0.0
C359 C 0.87645 0.85984 0.38725 0.0
N360 N 0.87049 0.79623 0.45448 0.0
N361 N 0.83107 0.83575 0.27184 0.0
C362 C 0.86873 0.80597 0.40689 0.0
C363 C 0.84864 0.82595 0.31299 0.0
N364 N 0.85909 0.71135 0.39058 0.0
N365 N 0.8909 0.9204 0.3165 0.0
H366 H 0.81322 0.80494 0.25212 0.0
H367 H 0.83074 0.87457 0.25949 0.0
H368 H 0.91117 0.95216 0.33366 0.0
H369 H 0.89184 0.92895 0.27996 0.0
H370 H 0.87351 0.70282 0.42101 0.0
H371 H 0.85148 0.67884 0.36872 0.0
H372 H 0.85988 0.75737 0.47161 0.0
H373 H 0.87887 0.8271 0.47781 0.0
C374 C 0.37801 0.69884 0.69699 0.0
C375 C 0.39321 0.75454 0.68064 0.0
C376 C 0.44852 0.73414 0.61506 0.0
C377 C 0.42943 0.67775 0.62817 0.0
N378 N 0.37122 0.60559 0.67802 0.0
N379 N 0.43947 0.82565 0.62221 0.0
C380 C 0.39321 0.6598 0.66847 0.0
C381 C 0.42754 0.77235 0.63911 0.0
N382 N 0.34927 0.68326 0.74004 0.0
N383 N 0.48799 0.75124 0.58087 0.0
H384 H 0.42623 0.85517 0.6399 0.0
H385 H 0.45987 0.84001 0.58911 0.0
H386 H 0.50497 0.72446 0.56332 0.0
H387 H 0.50667 0.79189 0.573 0.0
H388 H 0.34181 0.64442 0.75674 0.0
H389 H 0.33567 0.71025 0.76105 0.0
H390 H 0.34061 0.59053 0.70302 0.0
H391 H 0.38101 0.57536 0.65843 0.0
C392 C 0.91026 0.9744 0.69973 0.0
C393 C 0.885 0.92113 0.71849 0.0
C394 C 0.9032 0.88509 0.64061 0.0
C395 C 0.92582 0.93897 0.62099 0.0
N396 N 0.94373 0.0359 0.62962 0.0
N397 N 0.85063 0.82685 0.70617 0.0
C398 C 0.92709 0.98393 0.64986 0.0
C399 C 0.87973 0.87668 0.68877 0.0
N400 N 0.9198 0.01558 0.72994 0.0
N401 N 0.90372 0.84197 0.61311 0.0
H402 H 0.83282 0.81924 0.7412 0.0
H403 H 0.8409 0.79406 0.68513 0.0
H404 H 0.91675 0.8463 0.57664 0.0
H405 H 0.89346 0.80166 0.62684 0.0
H406 H 0.94306 0.05377 0.7195 0.0
H407 H 0.90759 0.01039 0.76662 0.0
H408 H 0.94001 0.06996 0.64754 0.0
H409 H 0.95829 0.04509 0.59374 0.0
C410 C 0.56137 0.09384 0.25009 0.0
C411 C 0.60196 0.13925 0.24735 0.0
C412 C 0.60133 0.1532 0.16094 0.0
C413 C 0.5581 0.11083 0.16458 0.0
N414 N 0.4917 0.04824 0.21435 0.0
N415 N 0.65834 0.21608 0.20213 0.0
C416 C 0.53685 0.08279 0.20957 0.0
C417 C 0.62145 0.16999 0.20324 0.0
N418 N 0.5464 0.06106 0.29143 0.0
N419 N 0.62376 0.17644 0.11689 0.0
H420 H 0.67491 0.22868 0.23208 0.0
H421 H 0.67053 0.24382 0.17249 0.0
H422 H 0.6095 0.16601 0.08533 0.0
H423 H 0.65803 0.2031 0.11107 0.0
H424 H 0.52043 0.02393 0.29393 0.0
H425 H 0.56273 0.0687 0.3223 0.0
H426 H 0.47211 0.03112 0.24716 0.0
H427 H 0.47173 0.04093 0.18601 0.0
C428 C 0.46605 0.62991 0.37162 0.0
C429 C 0.43026 0.60005 0.34584 0.0
C430 C 0.41039 0.52509 0.40793 0.0
C431 C 0.45042 0.55191 0.43043 0.0
N432 N 0.52403 0.62494 0.4244 0.0
N433 N 0.37686 0.51326 0.33356 0.0
C434 C 0.48029 0.60318 0.40993 0.0
C435 C 0.40471 0.54595 0.36229 0.0
N436 N 0.48591 0.68426 0.36033 0.0
N437 N 0.37646 0.4811 0.43065 0.0
H438 H 0.37385 0.52567 0.29878 0.0
H439 H 0.36129 0.47191 0.34221 0.0
H440 H 0.37762 0.46557 0.4649 0.0
H441 H 0.34432 0.46383 0.4176 0.0
H442 H 0.50836 0.70903 0.3814 0.0
H443 H 0.47618 0.70579 0.33292 0.0
H444 H 0.54873 0.65954 0.40726 0.0
H445 H 0.5389 0.60476 0.44857 0.0
C446 C 0.08568 0.36384 0.91112 0.0
C447 C 0.12955 0.38952 0.88171 0.0
C448 C 0.12639 0.47744 0.91269 0.0
C449 C 0.0792 0.45303 0.93577 0.0
N450 N 0.01222 0.37387 0.95653 0.0
N451 N 0.19075 0.47155 0.85136 0.0
C452 C 0.05839 0.39637 0.93507 0.0
C453 C 0.15018 0.44645 0.88216 0.0
N454 N 0.07116 0.30836 0.91757 0.0
N455 N 0.14844 0.53013 0.92019 0.0
H456 H 0.20954 0.45079 0.82823 0.0
H457 H 0.20399 0.51362 0.84603 0.0
H458 H 0.13152 0.55407 0.94182 0.0
H459 H 0.18466 0.54856 0.9085 0.0
H460 H 0.04158 0.28719 0.94173 0.0
H461 H 0.09167 0.28345 0.90247 0.0
H462 H 0.993 0.33418 0.95227 0.0
H463 H 0.99191 0.3959 0.9765 0.0
C464 C 0.71329 0.88585 0.85671 0.0
C465 C 0.7573 0.9267 0.85437 0.0
C466 C 0.71435 0.99057 0.88946 0.0
C467 C 0.67063 0.94855 0.89467 0.0
N468 N 0.62843 0.85491 0.88804 0.0
N469 N 0.80162 0.0159 0.87187 0.0
C470 C 0.67012 0.89575 0.87972 0.0
C471 C 0.75832 0.97866 0.87144 0.0
N472 N 0.71274 0.83808 0.83573 0.0
N473 N 0.71382 0.04188 0.90192 0.0
H474 H 0.83437 0.00923 0.85755 0.0
H475 H 0.80574 0.05215 0.8888 0.0
H476 H 0.68336 0.05144 0.91907 0.0
H477 H 0.74294 0.07588 0.89342 0.0
H478 H 0.68143 0.8089 0.8313 0.0
H479 H 0.74378 0.82904 0.81938 0.0
H480 H 0.62661 0.81415 0.8834 0.0
H481 H 0.59564 0.86114 0.90249 0.0
C482 C 0.81734 0.14688 0.43321 0.0
C483 C 0.80075 0.14614 0.38793 0.0
C484 C 0.85569 0.09238 0.35839 0.0
C485 C 0.87479 0.09607 0.40255 0.0
N486 N 0.88257 0.1403 0.47673 0.0
N487 N 0.8167 0.13469 0.3033 0.0
C488 C 0.85823 0.12738 0.43846 0.0
C489 C 0.82368 0.12386 0.34922 0.0
N490 N 0.7931 0.1641 0.47177 0.0
N491 N 0.86577 0.05683 0.32599 0.0
H492 H 0.79628 0.16086 0.29466 0.0
H493 H 0.83605 0.12329 0.27351 0.0
H494 H 0.88734 0.03112 0.33162 0.0
H495 H 0.8485 0.04881 0.29576 0.0
H496 H 0.80056 0.15972 0.50664 0.0
H497 H 0.76281 0.17838 0.46977 0.0
H498 H 0.87473 0.16726 0.50155 0.0
H499 H 0.91397 0.129 0.48074 0.0
C500 C 0.25838 0.58927 0.14412 0.0
C501 C 0.25916 0.62905 0.17817 0.0
C502 C 0.17583 0.62754 0.17037 0.0
C503 C 0.17324 0.58333 0.14058 0.0
N504 N 0.21037 0.51711 0.10386 0.0
N505 N 0.21829 0.68301 0.22773 0.0
C506 C 0.21417 0.56309 0.12833 0.0
C507 C 0.21776 0.64741 0.19243 0.0
N508 N 0.30015 0.57715 0.12621 0.0
N509 N 0.13883 0.65181 0.17609 0.0
H510 H 0.24876 0.6993 0.24391 0.0
H511 H 0.18773 0.69333 0.24352 0.0
H512 H 0.1081 0.63913 0.15946 0.0
H513 H 0.14039 0.68753 0.19343 0.0
H514 H 0.303 0.55351 0.09709 0.0
H515 H 0.33308 0.59412 0.13799 0.0
H516 H 0.237 0.49638 0.09966 0.0
H517 H 0.17912 0.49681 0.09092 0.0
C518 C 0.29106 0.38418 0.6911 0.0
C519 C 0.24703 0.3744 0.67204 0.0
C520 C 0.28806 0.43161 0.59995 0.0
C521 C 0.33066 0.44653 0.62168 0.0
N522 N 0.36665 0.44959 0.69478 0.0
N523 N 0.20131 0.39915 0.61316 0.0
C524 C 0.33066 0.42627 0.66918 0.0
C525 C 0.24478 0.40105 0.62778 0.0
N526 N 0.29554 0.35276 0.7295 0.0
N527 N 0.28902 0.44504 0.55251 0.0
H528 H 0.16855 0.37888 0.63333 0.0
H529 H 0.19765 0.42237 0.5835 0.0
H530 H 0.32014 0.46656 0.53055 0.0
H531 H 0.26002 0.43021 0.53397 0.0
H532 H 0.32841 0.35542 0.74173 0.0
H533 H 0.26766 0.32037 0.74589 0.0
H534 H 0.36585 0.43896 0.73093 0.0
H535 H 0.39388 0.48425 0.68198 0.0
C536 C 0.94512 0.7856 0.94495 0.0
C537 C 0.94709 0.7928 0.89462 0.0
C538 C 0.96023 0.70235 0.88471 0.0
C539 C 0.95344 0.69304 0.93538 0.0
N540 N 0.93841 0.72393 0.01438 0.0
N541 N 0.95266 0.75789 0.81621 0.0
C542 C 0.94567 0.73424 0.96572 0.0
C543 C 0.95444 0.75152 0.86428 0.0
N544 N 0.94443 0.82862 0.97254 0.0
N545 N 0.97134 0.6638 0.85602 0.0
H546 H 0.94911 0.79344 0.79959 0.0
H547 H 0.95141 0.72689 0.7929 0.0
H548 H 0.97149 0.62513 0.86888 0.0
H549 H 0.98308 0.67091 0.8194 0.0
H550 H 0.94755 0.82804 0.00889 0.0
H551 H 0.94458 0.86689 0.95822 0.0
H552 H 0.92656 0.74924 0.03855 0.0
H553 H 0.94238 0.68851 0.03091 0.0
C554 C 0.40999 0.82489 0.17777 0.0
C555 C 0.41261 0.77303 0.16307 0.0
C556 C 0.462 0.81455 0.08771 0.0
C557 C 0.46082 0.86681 0.10302 0.0
N558 N 0.44356 0.92243 0.16702 0.0
N559 N 0.44857 0.71845 0.10952 0.0
C560 C 0.43766 0.87219 0.1494 0.0
C561 C 0.44124 0.76795 0.1198 0.0
N562 N 0.37979 0.82886 0.21802 0.0
N563 N 0.48037 0.80901 0.04165 0.0
H564 H 0.43332 0.68339 0.13207 0.0
H565 H 0.47302 0.713 0.08101 0.0
H566 H 0.49553 0.84193 0.01686 0.0
H567 H 0.47704 0.77164 0.0267 0.0
H568 H 0.37167 0.86498 0.22731 0.0
H569 H 0.36034 0.79522 0.24069 0.0
H570 H 0.43174 0.9286 0.2023 0.0
H571 H 0.46437 0.95781 0.1476 0.0
C572 C 0.07365 0.21473 0.65114 0.0
C573 C 0.11036 0.20975 0.67833 0.0
C574 C 0.11602 0.12641 0.64082 0.0
C575 C 0.07739 0.12935 0.6155 0.0
N576 N 0.01424 0.17112 0.60163 0.0
N577 N 0.15854 0.15547 0.70787 0.0
C578 C 0.0545 0.17194 0.62228 0.0
C579 C 0.1287 0.16356 0.6762 0.0
N580 N 0.05869 0.26135 0.6513 0.0
N581 N 0.14311 0.09101 0.62857 0.0
H582 H 0.16875 0.18238 0.73412 0.0
H583 H 0.16923 0.11969 0.71109 0.0
H584 H 0.13678 0.06454 0.60128 0.0
H585 H 0.17494 0.09165 0.64219 0.0
H586 H 0.03641 0.27032 0.62785 0.0
H587 H 0.07091 0.29285 0.67309 0.0
H588 H 0.99288 0.19766 0.60947 0.0
H589 H 1.00001 0.14121 0.5792 0.0
C590 C 0.63217 0.30417 0.38549 0.0
C591 C 0.60521 0.24891 0.39101 0.0
C592 C 0.54611 0.27107 0.45213 0.0
C593 C 0.57208 0.32671 0.44519 0.0
N594 N 0.6353 0.39781 0.40013 0.0
N595 N 0.53407 0.17969 0.42476 0.0
C596 C 0.61399 0.34362 0.41057 0.0
C597 C 0.5613 0.23238 0.42282 0.0
N598 N 0.67555 0.31895 0.35648 0.0
N599 N 0.50833 0.25495 0.48826 0.0
H600 H 0.54529 0.14966 0.40585 0.0
H601 H 0.49921 0.1662 0.44281 0.0
H602 H 0.49605 0.2822 0.51008 0.0
H603 H 0.49107 0.21449 0.49894 0.0
H604 H 0.70015 0.35677 0.35606 0.0
H605 H 0.68859 0.2924 0.33448 0.0
H606 H 0.66212 0.41343 0.37138 0.0
H607 H 0.62352 0.42789 0.41798 0.0
loop_
_geom_bond_atom_site_label_1
_geom_bond_atom_site_label_2
_geom_bond_distance
_geom_bond_site_symmetry_2
_ccdc_geom_bond_type
H0 C5 0.930 . S
H1 C8 0.930 . S
H2 C10 0.930 . S
H3 C4 1.016 . S
C4 H3 1.016 . S
C4 N11 1.286 . S
C5 H0 0.930 . S
C5 C6 1.397 . S
C5 C7 1.361 . S
C6 C5 1.397 . S
C6 C10 1.390 . S
C7 C5 1.361 . S
C7 C8 1.393 . S
C7 N11 1.413 . S
C8 H1 0.930 . S
C8 C7 1.393 . S
C8 C9 1.399 . S
C9 C8 1.399 . S
C9 C10 1.381 . S
C10 H2 0.930 . S
C10 C6 1.390 . S
C10 C9 1.381 . S
N11 C4 1.286 . S
N11 C7 1.413 . S
H12 C17 0.930 . S
H13 C20 0.930 . S
H14 C22 0.930 . S
H15 C16 1.016 . S
C16 H15 1.016 . S
C16 N23 1.286 . S
C17 H12 0.930 . S
C17 C18 1.397 . S
C17 C19 1.361 . S
C18 C17 1.397 . S
C18 C22 1.390 . S
C19 C17 1.361 . S
C19 C20 1.393 . S
C19 N23 1.413 . S
C20 H13 0.930 . S
C20 C19 1.393 . S
C20 C21 1.399 . S
C21 C20 1.399 . S
C21 C22 1.381 . S
C22 H14 0.930 . S
C22 C18 1.390 . S
C22 C21 1.381 . S
N23 C16 1.286 . S
N23 C19 1.413 . S
H24 C29 0.930 . S
H25 C32 0.930 . S
H26 C34 0.930 . S
H27 C28 1.016 . S
C28 H27 1.016 . S
C28 N35 1.286 . S
C29 H24 0.930 . S
C29 C30 1.397 . S
C29 C31 1.361 . S
C30 C29 1.397 . S
C30 C34 1.390 . S
C31 C29 1.361 . S
C31 C32 1.393 . S
C31 N35 1.413 . S
C32 H25 0.930 . S
C32 C31 1.393 . S
C32 C33 1.399 . S
C33 C32 1.399 . S
C33 C34 1.381 . S
C34 H26 0.930 . S
C34 C30 1.390 . S
C34 C33 1.381 . S
N35 C28 1.286 . S
N35 C31 1.413 . S
H36 C41 0.930 . S
H37 C44 0.930 . S
H38 C46 0.930 . S
H39 C40 1.016 . S
C40 H39 1.016 . S
C40 N47 1.286 . S
C41 H36 0.930 . S
C41 C42 1.397 . S
C41 C43 1.361 . S
C42 C41 1.397 . S
C42 C46 1.390 . S
C43 C41 1.361 . S
C43 C44 1.393 . S
C43 N47 1.413 . S
C44 H37 0.930 . S
C44 C43 1.393 . S
C44 C45 1.399 . S
C45 C44 1.399 . S
C45 C46 1.381 . S
C46 H38 0.930 . S
C46 C42 1.390 . S
C46 C45 1.381 . S
N47 C40 1.286 . S
N47 C43 1.413 . S
H48 C53 0.930 . S
H49 C56 0.930 . S
H50 C58 0.930 . S
H51 C52 1.016 . S
C52 H51 1.016 . S
C52 N59 1.286 . S
C53 H48 0.930 . S
C53 C54 1.397 . S
C53 C55 1.361 . S
C54 C53 1.397 . S
C54 C58 1.390 . S
C55 C53 1.361 . S
C55 C56 1.393 . S
C55 N59 1.413 . S
C56 H49 0.930 . S
C56 C55 1.393 . S
C56 C57 1.399 . S
C57 C56 1.399 . S
C57 C58 1.381 . S
C58 H50 0.930 . S
C58 C54 1.390 . S
C58 C57 1.381 . S
N59 C52 1.286 . S
N59 C55 1.413 . S
H60 C65 0.930 . S
H61 C68 0.930 . S
H62 C70 0.930 . S
H63 C64 1.016 . S
C64 H63 1.016 . S
C64 N71 1.286 . S
C65 H60 0.930 . S
C65 C66 1.397 . S
C65 C67 1.361 . S
C66 C65 1.397 . S
C66 C70 1.390 . S
C67 C65 1.361 . S
C67 C68 1.393 . S
C67 N71 1.413 . S
C68 H61 0.930 . S
C68 C67 1.393 . S
C68 C69 1.399 . S
C69 C68 1.399 . S
C69 C70 1.381 . S
C70 H62 0.930 . S
C70 C66 1.390 . S
C70 C69 1.381 . S
N71 C64 1.286 . S
N71 C67 1.413 . S
H72 C77 0.930 . S
H73 C80 0.930 . S
H74 C82 0.930 . S
H75 C76 1.016 . S
C76 H75 1.016 . S
C76 N83 1.286 . S
C77 H72 0.930 . S
C77 C78 1.397 . S
C77 C79 1.361 . S
C78 C77 1.397 . S
C78 C82 1.390 . S
C79 C77 1.361 . S
C79 C80 1.393 . S
C79 N83 1.413 . S
C80 H73 0.930 . S
C80 C79 1.393 . S
C80 C81 1.399 . S
C81 C80 1.399 . S
C81 C82 1.381 . S
C82 H74 0.930 . S
C82 C78 1.390 . S
C82 C81 1.381 . S
N83 C76 1.286 . S
N83 C79 1.413 . S
H84 C89 0.930 . S
H85 C92 0.930 . S
H86 C94 0.930 . S
H87 C88 1.016 . S
C88 H87 1.016 . S
C88 N95 1.286 . S
C89 H84 0.930 . S
C89 C90 1.397 . S
C89 C91 1.361 . S
C90 C89 1.397 . S
C90 C94 1.390 . S
C91 C89 1.361 . S
C91 C92 1.393 . S
C91 N95 1.413 . S
C92 H85 0.930 . S
C92 C91 1.393 . S
C92 C93 1.399 . S
C93 C92 1.399 . S
C93 C94 1.381 . S
C94 H86 0.930 . S
C94 C90 1.390 . S
C94 C93 1.381 . S
N95 C88 1.286 . S
N95 C91 1.413 . S
Zn96 O102 1.969 1_545 S
Zn96 O103 1.965 1_545 S
Zn96 O107 2.024 . S
Zn96 O112 1.969 . S
Zn97 O104 1.969 . S
Zn97 O110 1.969 1_565 S
Zn97 O111 1.965 1_665 S
Zn97 O113 2.024 . S
C98 O99 1.229 . S
C98 O107 1.058 . S
O99 C98 1.229 . S
C100 O101 1.229 . S
C100 O113 1.058 . S
O101 C100 1.229 . S
O102 Zn96 1.969 1_565 S
O102 C105 1.267 . S
O103 Zn96 1.965 1_565 S
O103 C114 1.260 1_455 S
O104 Zn97 1.969 . S
O104 C114 1.258 . S
C105 O102 1.267 . S
C105 O106 1.228 . S
O106 C105 1.228 . S
O107 Zn96 2.024 . S
O107 C98 1.058 . S
C108 O109 1.228 . S
C108 O110 1.267 . S
O109 C108 1.228 . S
O110 Zn97 1.969 1_545 S
O110 C108 1.267 . S
O111 Zn97 1.965 1_445 S
O111 C115 1.260 . S
O112 Zn96 1.969 . S
O112 C115 1.258 . S
O113 Zn97 2.024 . S
O113 C100 1.058 . S
C114 O103 1.260 1_655 S
C114 O104 1.258 . S
C115 O111 1.260 . S
C115 O112 1.258 . S
Zn116 O122 1.969 . S
Zn116 O123 1.965 1_565 S
Zn116 O127 2.024 . S
Zn116 O132 1.969 1_556 S
Zn117 O124 1.969 . S
Zn117 O130 1.969 . S
Zn117 O131 1.965 1_545 S
Zn117 O133 2.024 . S
C118 O119 1.229 . S
C118 O127 1.058 . S
O119 C118 1.229 . S
C120 O121 1.229 . S
C120 O133 1.058 . S
O121 C120 1.229 . S
O122 Zn116 1.969 . S
O122 C125 1.267 . S
O123 Zn116 1.965 1_545 S
O123 C134 1.260 . S
O124 Zn117 1.969 . S
O124 C134 1.258 1_554 S
C125 O122 1.267 . S
C125 O126 1.228 . S
O126 C125 1.228 . S
O127 Zn116 2.024 . S
O127 C118 1.058 . S
C128 O129 1.228 . S
C128 O130 1.267 . S
O129 C128 1.228 . S
O130 Zn117 1.969 . S
O130 C128 1.267 . S
O131 Zn117 1.965 1_565 S
O131 C135 1.260 . S
O132 Zn116 1.969 1_554 S
O132 C135 1.258 . S
O133 Zn117 2.024 . S
O133 C120 1.058 . S
C134 O123 1.260 . S
C134 O124 1.258 1_556 S
C135 O131 1.260 . S
C135 O132 1.258 . S
Zn136 O142 1.969 . S
Zn136 O143 1.965 . S
Zn136 O147 2.024 . S
Zn136 O152 1.969 . S
Zn137 O144 1.969 . S
Zn137 O150 1.969 . S
Zn137 O151 1.965 . S
Zn137 O153 2.024 . S
C138 O139 1.229 . S
C138 O147 1.058 . S
O139 C138 1.229 . S
C140 O141 1.229 . S
C140 O153 1.058 . S
O141 C140 1.229 . S
O142 Zn136 1.969 . S
O142 C145 1.267 . S
O143 Zn136 1.965 . S
O143 C154 1.260 . S
O144 Zn137 1.969 . S
O144 C154 1.258 . S
C145 O142 1.267 . S
C145 O146 1.228 . S
O146 C145 1.228 . S
O147 Zn136 2.024 . S
O147 C138 1.058 . S
C148 O149 1.228 . S
C148 O150 1.267 . S
O149 C148 1.228 . S
O150 Zn137 1.969 . S
O150 C148 1.267 . S
O151 Zn137 1.965 . S
O151 C155 1.260 . S
O152 Zn136 1.969 . S
O152 C155 1.258 . S
O153 Zn137 2.024 . S
O153 C140 1.058 . S
C154 O143 1.260 . S
C154 O144 1.258 . S
C155 O151 1.260 . S
C155 O152 1.258 . S
Zn156 O162 1.969 . S
Zn156 O163 1.965 1_556 S
Zn156 O167 2.024 . S
Zn156 O172 1.969 1_655 S
Zn157 O164 1.969 . S
Zn157 O170 1.969 . S
Zn157 O171 1.965 1_554 S
Zn157 O173 2.024 . S
C158 O159 1.229 . S
C158 O167 1.058 . S
O159 C158 1.229 . S
C160 O161 1.229 . S
C160 O173 1.058 . S
O161 C160 1.229 . S
O162 Zn156 1.969 . S
O162 C165 1.267 . S
O163 Zn156 1.965 1_554 S
O163 C174 1.260 . S
O164 Zn157 1.969 . S
O164 C174 1.258 1_455 S
C165 O162 1.267 . S
C165 O166 1.228 . S
O166 C165 1.228 . S
O167 Zn156 2.024 . S
O167 C158 1.058 . S
C168 O169 1.228 . S
C168 O170 1.267 . S
O169 C168 1.228 . S
O170 Zn157 1.969 . S
O170 C168 1.267 . S
O171 Zn157 1.965 1_556 S
O171 C175 1.260 . S
O172 Zn156 1.969 1_455 S
O172 C175 1.258 . S
O173 Zn157 2.024 . S
O173 C160 1.058 . S
C174 O163 1.260 . S
C174 O164 1.258 1_655 S
C175 O171 1.260 . S
C175 O172 1.258 . S
C176 C177 1.363 . S
C176 C182 1.379 . S
C176 N184 1.356 . S
C177 C176 1.363 . S
C177 C183 1.363 . S
C178 C179 1.363 . S
C178 C183 1.379 . S
C178 N185 1.356 . S
C179 C178 1.363 . S
C179 C182 1.363 . S
N180 C182 1.356 . S
N180 H192 0.984 . S
N180 H193 0.985 . S
N181 C183 1.356 . S
N181 H186 0.984 . S
N181 H187 0.985 . S
C182 C176 1.379 . S
C182 C179 1.363 . S
C182 N180 1.356 . S
C183 C177 1.363 . S
C183 C178 1.379 . S
C183 N181 1.356 . S
N184 C176 1.356 . S
N184 H190 0.984 . S
N184 H191 0.984 . S
N185 C178 1.356 . S
N185 H188 0.984 . S
N185 H189 0.985 . S
H186 N181 0.984 . S
H187 N181 0.985 . S
H188 N185 0.984 . S
H189 N185 0.985 . S
H190 N184 0.984 . S
H191 N184 0.984 . S
H192 N180 0.984 . S
H193 N180 0.985 . S
C194 C195 1.363 . S
C194 C200 1.379 . S
C194 N202 1.356 . S
C195 C194 1.363 . S
C195 C201 1.363 . S
C196 C197 1.363 . S
C196 C201 1.379 . S
C196 N203 1.356 . S
C197 C196 1.363 . S
C197 C200 1.363 . S
N198 C200 1.356 . S
N198 H210 0.984 . S
N198 H211 0.985 . S
N199 C201 1.356 . S
N199 H204 0.984 . S
N199 H205 0.985 . S
C200 C194 1.379 . S
C200 C197 1.363 . S
C200 N198 1.356 . S
C201 C195 1.363 . S
C201 C196 1.379 . S
C201 N199 1.356 . S
N202 C194 1.356 . S
N202 H208 0.984 . S
N202 H209 0.984 . S
N203 C196 1.356 . S
N203 H206 0.983 1_565 S
N203 H207 0.985 1_565 S
H204 N199 0.984 . S
H205 N199 0.985 . S
H206 N203 0.983 1_545 S
H207 N203 0.985 1_545 S
H208 N202 0.984 . S
H209 N202 0.984 . S
H210 N198 0.984 . S
H211 N198 0.985 . S
C212 C213 1.363 . S
C212 C218 1.379 . S
C212 N220 1.356 . S
C213 C212 1.363 . S
C213 C219 1.363 . S
C214 C215 1.363 . S
C214 C219 1.379 . S
C214 N221 1.356 . S
C215 C214 1.363 . S
C215 C218 1.363 . S
N216 C218 1.356 . S
N216 H228 0.984 . S
N216 H229 0.985 . S
N217 C219 1.356 . S
N217 H222 0.984 . S
N217 H223 0.985 . S
C218 C212 1.379 . S
C218 C215 1.363 . S
C218 N216 1.356 . S
C219 C213 1.363 . S
C219 C214 1.379 . S
C219 N217 1.356 . S
N220 C212 1.356 . S
N220 H226 0.984 . S
N220 H227 0.984 . S
N221 C214 1.356 . S
N221 H224 0.984 . S
N221 H225 0.985 . S
H222 N217 0.984 . S
H223 N217 0.985 . S
H224 N221 0.984 . S
H225 N221 0.985 . S
H226 N220 0.984 . S
H227 N220 0.984 . S
H228 N216 0.984 . S
H229 N216 0.985 . S
C230 C231 1.363 . S
C230 C236 1.379 . S
C230 N238 1.356 . S
C231 C230 1.363 . S
C231 C237 1.363 . S
C232 C233 1.363 . S
C232 C237 1.379 . S
C232 N239 1.356 . S
C233 C232 1.363 . S
C233 C236 1.363 . S
N234 C236 1.356 1_455 S
N234 H246 0.984 . S
N234 H247 0.985 . S
N235 C237 1.356 . S
N235 H240 0.984 . S
N235 H241 0.985 . S
C236 C230 1.379 . S
C236 C233 1.363 . S
C236 N234 1.356 1_655 S
C237 C231 1.363 . S
C237 C232 1.379 . S
C237 N235 1.356 . S
N238 C230 1.356 . S
N238 H244 0.984 . S
N238 H245 0.984 . S
N239 C232 1.356 . S
N239 H242 0.984 . S
N239 H243 0.985 . S
H240 N235 0.984 . S
H241 N235 0.985 . S
H242 N239 0.984 . S
H243 N239 0.985 . S
H244 N238 0.984 . S
H245 N238 0.984 . S
H246 N234 0.984 . S
H247 N234 0.985 . S
C248 C249 1.363 . S
C248 C254 1.379 . S
C248 N256 1.356 . S
C249 C248 1.363 . S
C249 C255 1.363 . S
C250 C251 1.363 . S
C250 C255 1.379 . S
C250 N257 1.356 . S
C251 C250 1.363 . S
C251 C254 1.363 . S
N252 C254 1.356 . S
N252 H264 0.984 . S
N252 H265 0.985 . S
N253 C255 1.356 . S
N253 H258 0.984 . S
N253 H259 0.985 . S
C254 C248 1.379 . S
C254 C251 1.363 . S
C254 N252 1.356 . S
C255 C249 1.363 . S
C255 C250 1.379 . S
C255 N253 1.356 . S
N256 C248 1.356 . S
N256 H262 0.984 . S
N256 H263 0.984 . S
N257 C250 1.356 . S
N257 H260 0.984 . S
N257 H261 0.985 . S
H258 N253 0.984 . S
H259 N253 0.985 . S
H260 N257 0.984 . S
H261 N257 0.985 . S
H262 N256 0.984 . S
H263 N256 0.984 . S
H264 N252 0.984 . S
H265 N252 0.985 . S
C266 C267 1.363 . S
C266 C272 1.379 . S
C266 N274 1.356 . S
C267 C266 1.363 . S
C267 C273 1.363 . S
C268 C269 1.363 . S
C268 C273 1.379 . S
C268 N275 1.356 . S
C269 C268 1.363 . S
C269 C272 1.363 . S
N270 C272 1.356 . S
N270 H282 0.984 . S
N270 H283 0.985 . S
N271 C273 1.356 . S
N271 H276 0.984 . S
N271 H277 0.985 . S
C272 C266 1.379 . S
C272 C269 1.363 . S
C272 N270 1.356 . S
C273 C267 1.363 . S
C273 C268 1.379 . S
C273 N271 1.356 . S
N274 C266 1.356 . S
N274 H280 0.984 . S
N274 H281 0.984 . S
N275 C268 1.356 . S
N275 H278 0.984 . S
N275 H279 0.985 . S
H276 N271 0.984 . S
H277 N271 0.985 . S
H278 N275 0.984 . S
H279 N275 0.985 . S
H280 N274 0.984 . S
H281 N274 0.984 . S
H282 N270 0.984 . S
H283 N270 0.985 . S
C284 C285 1.363 . S
C284 C290 1.379 . S
C284 N292 1.356 . S
C285 C284 1.363 . S
C285 C291 1.363 . S
C286 C287 1.363 . S
C286 C291 1.379 . S
C286 N293 1.356 . S
C287 C286 1.363 . S
C287 C290 1.363 . S
N288 C290 1.356 . S
N288 H300 0.984 . S
N288 H301 0.985 . S
N289 C291 1.356 . S
N289 H294 0.984 . S
N289 H295 0.985 . S
C290 C284 1.379 . S
C290 C287 1.363 . S
C290 N288 1.356 . S
C291 C285 1.363 . S
C291 C286 1.379 . S
C291 N289 1.356 . S
N292 C284 1.356 . S
N292 H298 0.984 . S
N292 H299 0.984 . S
N293 C286 1.356 . S
N293 H296 0.984 . S
N293 H297 0.985 . S
H294 N289 0.984 . S
H295 N289 0.985 . S
H296 N293 0.984 . S
H297 N293 0.985 . S
H298 N292 0.984 . S
H299 N292 0.984 . S
H300 N288 0.984 . S
H301 N288 0.985 . S
C302 C303 1.363 . S
C302 C308 1.379 . S
C302 N310 1.356 . S
C303 C302 1.363 . S
C303 C309 1.363 . S
C304 C305 1.363 . S
C304 C309 1.379 . S
C304 N311 1.356 . S
C305 C304 1.363 . S
C305 C308 1.363 . S
N306 C308 1.356 . S
N306 H318 0.984 . S
N306 H319 0.985 . S
N307 C309 1.356 . S
N307 H312 0.984 . S
N307 H313 0.985 . S
C308 C302 1.379 . S
C308 C305 1.363 . S
C308 N306 1.356 . S
C309 C303 1.363 . S
C309 C304 1.379 . S
C309 N307 1.356 . S
N310 C302 1.356 . S
N310 H316 0.984 . S
N310 H317 0.984 . S
N311 C304 1.356 . S
N311 H314 0.984 . S
N311 H315 0.985 . S
H312 N307 0.984 . S
H313 N307 0.985 . S
H314 N311 0.984 . S
H315 N311 0.985 . S
H316 N310 0.984 . S
H317 N310 0.984 . S
H318 N306 0.984 . S
H319 N306 0.985 . S
C320 C321 1.363 . S
C320 C326 1.379 . S
C320 N328 1.356 . S
C321 C320 1.363 . S
C321 C327 1.363 . S
C322 C323 1.363 . S
C322 C327 1.379 . S
C322 N329 1.356 . S
C323 C322 1.363 . S
C323 C326 1.363 . S
N324 C326 1.356 . S
N324 H336 0.984 . S
N324 H337 0.985 . S
N325 C327 1.356 . S
N325 H330 0.984 . S
N325 H331 0.985 . S
C326 C320 1.379 . S
C326 C323 1.363 . S
C326 N324 1.356 . S
C327 C321 1.363 . S
C327 C322 1.379 . S
C327 N325 1.356 . S
N328 C320 1.356 . S
N328 H334 0.984 . S
N328 H335 0.984 . S
N329 C322 1.356 . S
N329 H332 0.984 . S
N329 H333 0.985 . S
H330 N325 0.984 . S
H331 N325 0.985 . S
H332 N329 0.984 . S
H333 N329 0.985 . S
H334 N328 0.984 . S
H335 N328 0.984 . S
H336 N324 0.984 . S
H337 N324 0.985 . S
C338 C339 1.363 . S
C338 C344 1.379 . S
C338 N346 1.356 . S
C339 C338 1.363 . S
C339 C345 1.363 . S
C340 C341 1.363 . S
C340 C345 1.379 . S
C340 N347 1.356 . S
C341 C340 1.363 . S
C341 C344 1.363 . S
N342 C344 1.356 . S
N342 H354 0.984 . S
N342 H355 0.985 . S
N343 C345 1.356 . S
N343 H348 0.984 . S
N343 H349 0.985 . S
C344 C338 1.379 . S
C344 C341 1.363 . S
C344 N342 1.356 . S
C345 C339 1.363 . S
C345 C340 1.379 . S
C345 N343 1.356 . S
N346 C338 1.356 . S
N346 H352 0.984 . S
N346 H353 0.984 . S
N347 C340 1.356 . S
N347 H350 0.984 . S
N347 H351 0.985 . S
H348 N343 0.984 . S
H349 N343 0.985 . S
H350 N347 0.984 . S
H351 N347 0.985 . S
H352 N346 0.984 . S
H353 N346 0.984 . S
H354 N342 0.984 . S
H355 N342 0.985 . S
C356 C357 1.363 . S
C356 C362 1.379 . S
C356 N364 1.356 . S
C357 C356 1.363 . S
C357 C363 1.363 . S
C358 C359 1.363 . S
C358 C363 1.379 . S
C358 N365 1.356 . S
C359 C358 1.363 . S
C359 C362 1.363 . S
N360 C362 1.356 . S
N360 H372 0.984 . S
N360 H373 0.985 . S
N361 C363 1.356 . S
N361 H366 0.984 . S
N361 H367 0.985 . S
C362 C356 1.379 . S
C362 C359 1.363 . S
C362 N360 1.356 . S
C363 C357 1.363 . S
C363 C358 1.379 . S
C363 N361 1.356 . S
N364 C356 1.356 . S
N364 H370 0.984 . S
N364 H371 0.984 . S
N365 C358 1.356 . S
N365 H368 0.984 . S
N365 H369 0.985 1_655 S
H366 N361 0.984 . S
H367 N361 0.985 . S
H368 N365 0.984 . S
H369 N365 0.985 1_455 S
H370 N364 0.984 . S
H371 N364 0.984 . S
H372 N360 0.984 . S
H373 N360 0.985 . S
C374 C375 1.363 . S
C374 C380 1.379 . S
C374 N382 1.356 . S
C375 C374 1.363 . S
C375 C381 1.363 . S
C376 C377 1.363 . S
C376 C381 1.379 . S
C376 N383 1.356 . S
C377 C376 1.363 . S
C377 C380 1.363 . S
N378 C380 1.356 . S
N378 H390 0.984 . S
N378 H391 0.985 . S
N379 C381 1.356 . S
N379 H384 0.984 . S
N379 H385 0.985 . S
C380 C374 1.379 . S
C380 C377 1.363 . S
C380 N378 1.356 . S
C381 C375 1.363 . S
C381 C376 1.379 . S
C381 N379 1.356 . S
N382 C374 1.356 . S
N382 H388 0.984 . S
N382 H389 0.984 . S
N383 C376 1.356 . S
N383 H386 0.984 . S
N383 H387 0.985 . S
H384 N379 0.984 . S
H385 N379 0.985 . S
H386 N383 0.984 . S
H387 N383 0.985 . S
H388 N382 0.984 . S
H389 N382 0.984 . S
H390 N378 0.984 . S
H391 N378 0.985 . S
C392 C393 1.363 . S
C392 C398 1.379 . S
C392 N400 1.356 . S
C393 C392 1.363 . S
C393 C399 1.363 . S
C394 C395 1.363 . S
C394 C399 1.379 . S
C394 N401 1.356 . S
C395 C394 1.363 . S
C395 C398 1.363 . S
N396 C398 1.356 . S
N396 H408 0.984 1_565 S
N396 H409 0.985 1_565 S
N397 C399 1.356 . S
N397 H402 0.984 . S
N397 H403 0.985 . S
C398 C392 1.379 . S
C398 C395 1.363 . S
C398 N396 1.356 . S
C399 C393 1.363 . S
C399 C394 1.379 . S
C399 N397 1.356 . S
N400 C392 1.356 . S
N400 H406 0.984 . S
N400 H407 0.984 . S
N401 C394 1.356 . S
N401 H404 0.984 . S
N401 H405 0.985 . S
H402 N397 0.984 . S
H403 N397 0.985 . S
H404 N401 0.984 . S
H405 N401 0.985 . S
H406 N400 0.984 . S
H407 N400 0.984 . S
H408 N396 0.984 1_545 S
H409 N396 0.985 1_545 S
C410 C411 1.363 . S
C410 C416 1.379 . S
C410 N418 1.356 . S
C411 C410 1.363 . S
C411 C417 1.363 . S
C412 C413 1.363 . S
C412 C417 1.379 . S
C412 N419 1.356 . S
C413 C412 1.363 . S
C413 C416 1.363 . S
N414 C416 1.356 . S
N414 H426 0.984 . S
N414 H427 0.985 . S
N415 C417 1.356 . S
N415 H420 0.984 . S
N415 H421 0.985 . S
C416 C410 1.379 . S
C416 C413 1.363 . S
C416 N414 1.356 . S
C417 C411 1.363 . S
C417 C412 1.379 . S
C417 N415 1.356 . S
N418 C410 1.356 . S
N418 H424 0.984 . S
N418 H425 0.984 . S
N419 C412 1.356 . S
N419 H422 0.984 . S
N419 H423 0.985 . S
H420 N415 0.984 . S
H421 N415 0.985 . S
H422 N419 0.984 . S
H423 N419 0.985 . S
H424 N418 0.984 . S
H425 N418 0.984 . S
H426 N414 0.984 . S
H427 N414 0.985 . S
C428 C429 1.363 . S
C428 C434 1.379 . S
C428 N436 1.356 . S
C429 C428 1.363 . S
C429 C435 1.363 . S
C430 C431 1.363 . S
C430 C435 1.379 . S
C430 N437 1.356 . S
C431 C430 1.363 . S
C431 C434 1.363 . S
N432 C434 1.356 . S
N432 H444 0.984 . S
N432 H445 0.985 . S
N433 C435 1.356 . S
N433 H438 0.984 . S
N433 H439 0.985 . S
C434 C428 1.379 . S
C434 C431 1.363 . S
C434 N432 1.356 . S
C435 C429 1.363 . S
C435 C430 1.379 . S
C435 N433 1.356 . S
N436 C428 1.356 . S
N436 H442 0.984 . S
N436 H443 0.984 . S
N437 C430 1.356 . S
N437 H440 0.984 . S
N437 H441 0.985 . S
H438 N433 0.984 . S
H439 N433 0.985 . S
H440 N437 0.984 . S
H441 N437 0.985 . S
H442 N436 0.984 . S
H443 N436 0.984 . S
H444 N432 0.984 . S
H445 N432 0.985 . S
C446 C447 1.363 . S
C446 C452 1.379 . S
C446 N454 1.356 . S
C447 C446 1.363 . S
C447 C453 1.363 . S
C448 C449 1.363 . S
C448 C453 1.379 . S
C448 N455 1.356 . S
C449 C448 1.363 . S
C449 C452 1.363 . S
N450 C452 1.356 . S
N450 H462 0.984 . S
N450 H463 0.985 . S
N451 C453 1.356 . S
N451 H456 0.984 . S
N451 H457 0.985 . S
C452 C446 1.379 . S
C452 C449 1.363 . S
C452 N450 1.356 . S
C453 C447 1.363 . S
C453 C448 1.379 . S
C453 N451 1.356 . S
N454 C446 1.356 . S
N454 H460 0.984 . S
N454 H461 0.984 . S
N455 C448 1.356 . S
N455 H458 0.984 . S
N455 H459 0.985 . S
H456 N451 0.984 . S
H457 N451 0.985 . S
H458 N455 0.984 . S
H459 N455 0.985 . S
H460 N454 0.984 . S
H461 N454 0.984 . S
H462 N450 0.984 . S
H463 N450 0.985 . S
C464 C465 1.363 . S
C464 C470 1.379 . S
C464 N472 1.356 . S
C465 C464 1.363 . S
C465 C471 1.363 . S
C466 C467 1.363 . S
C466 C471 1.379 . S
C466 N473 1.356 . S
C467 C466 1.363 . S
C467 C470 1.363 . S
N468 C470 1.356 . S
N468 H480 0.984 . S
N468 H481 0.985 . S
N469 C471 1.356 . S
N469 H474 0.984 . S
N469 H475 0.985 . S
C470 C464 1.379 . S
C470 C467 1.363 . S
C470 N468 1.356 . S
C471 C465 1.363 . S
C471 C466 1.379 . S
C471 N469 1.356 . S
N472 C464 1.356 . S
N472 H478 0.984 . S
N472 H479 0.984 . S
N473 C466 1.356 . S
N473 H476 0.984 1_565 S
N473 H477 0.985 1_565 S
H474 N469 0.984 . S
H475 N469 0.985 . S
H476 N473 0.984 1_545 S
H477 N473 0.985 1_545 S
H478 N472 0.984 . S
H479 N472 0.984 . S
H480 N468 0.984 . S
H481 N468 0.985 . S
C482 C483 1.363 . S
C482 C488 1.379 . S
C482 N490 1.356 . S
C483 C482 1.363 . S
C483 C489 1.363 . S
C484 C485 1.363 . S
C484 C489 1.379 . S
C484 N491 1.356 . S
C485 C484 1.363 . S
C485 C488 1.363 . S
N486 C488 1.356 . S
N486 H498 0.984 . S
N486 H499 0.985 . S
N487 C489 1.356 . S
N487 H492 0.984 . S
N487 H493 0.985 . S
C488 C482 1.379 . S
C488 C485 1.363 . S
C488 N486 1.356 . S
C489 C483 1.363 . S
C489 C484 1.379 . S
C489 N487 1.356 . S
N490 C482 1.356 . S
N490 H496 0.984 . S
N490 H497 0.984 . S
N491 C484 1.356 . S
N491 H494 0.984 . S
N491 H495 0.985 . S
H492 N487 0.984 . S
H493 N487 0.985 . S
H494 N491 0.984 . S
H495 N491 0.985 . S
H496 N490 0.984 . S
H497 N490 0.984 . S
H498 N486 0.984 . S
H499 N486 0.985 . S
C500 C501 1.363 . S
C500 C506 1.379 . S
C500 N508 1.356 . S
C501 C500 1.363 . S
C501 C507 1.363 . S
C502 C503 1.363 . S
C502 C507 1.379 . S
C502 N509 1.356 . S
C503 C502 1.363 . S
C503 C506 1.363 . S
N504 C506 1.356 . S
N504 H516 0.984 . S
N504 H517 0.985 . S
N505 C507 1.356 . S
N505 H510 0.984 . S
N505 H511 0.985 . S
C506 C500 1.379 . S
C506 C503 1.363 . S
C506 N504 1.356 . S
C507 C501 1.363 . S
C507 C502 1.379 . S
C507 N505 1.356 . S
N508 C500 1.356 . S
N508 H514 0.984 . S
N508 H515 0.984 . S
N509 C502 1.356 . S
N509 H512 0.984 . S
N509 H513 0.985 . S
H510 N505 0.984 . S
H511 N505 0.985 . S
H512 N509 0.984 . S
H513 N509 0.985 . S
H514 N508 0.984 . S
H515 N508 0.984 . S
H516 N504 0.984 . S
H517 N504 0.985 . S
C518 C519 1.363 . S
C518 C524 1.379 . S
C518 N526 1.356 . S
C519 C518 1.363 . S
C519 C525 1.363 . S
C520 C521 1.363 . S
C520 C525 1.379 . S
C520 N527 1.356 . S
C521 C520 1.363 . S
C521 C524 1.363 . S
N522 C524 1.356 . S
N522 H534 0.984 . S
N522 H535 0.985 . S
N523 C525 1.356 . S
N523 H528 0.984 . S
N523 H529 0.985 . S
C524 C518 1.379 . S
C524 C521 1.363 . S
C524 N522 1.356 . S
C525 C519 1.363 . S
C525 C520 1.379 . S
C525 N523 1.356 . S
N526 C518 1.356 . S
N526 H532 0.984 . S
N526 H533 0.984 . S
N527 C520 1.356 . S
N527 H530 0.984 . S
N527 H531 0.985 . S
H528 N523 0.984 . S
H529 N523 0.985 . S
H530 N527 0.984 . S
H531 N527 0.985 . S
H532 N526 0.984 . S
H533 N526 0.984 . S
H534 N522 0.984 . S
H535 N522 0.985 . S
C536 C537 1.363 . S
C536 C542 1.379 . S
C536 N544 1.356 . S
C537 C536 1.363 . S
C537 C543 1.363 . S
C538 C539 1.363 . S
C538 C543 1.379 . S
C538 N545 1.356 . S
C539 C538 1.363 . S
C539 C542 1.363 . S
N540 C542 1.356 . S
N540 H552 0.984 . S
N540 H553 0.985 1_655 S
N541 C543 1.356 . S
N541 H546 0.984 . S
N541 H547 0.985 . S
C542 C536 1.379 . S
C542 C539 1.363 . S
C542 N540 1.356 . S
C543 C537 1.363 . S
C543 C538 1.379 . S
C543 N541 1.356 . S
N544 C536 1.356 . S
N544 H550 0.984 . S
N544 H551 0.984 . S
N545 C538 1.356 . S
N545 H548 0.984 . S
N545 H549 0.985 . S
H546 N541 0.984 . S
H547 N541 0.985 . S
H548 N545 0.984 . S
H549 N545 0.985 . S
H550 N544 0.984 . S
H551 N544 0.984 . S
H552 N540 0.984 . S
H553 N540 0.985 1_455 S
C554 C555 1.363 . S
C554 C560 1.379 . S
C554 N562 1.356 . S
C555 C554 1.363 . S
C555 C561 1.363 . S
C556 C557 1.363 . S
C556 C561 1.379 . S
C556 N563 1.356 . S
C557 C556 1.363 . S
C557 C560 1.363 . S
N558 C560 1.356 . S
N558 H570 0.984 . S
N558 H571 0.985 . S
N559 C561 1.356 . S
N559 H564 0.984 . S
N559 H565 0.985 . S
C560 C554 1.379 . S
C560 C557 1.363 . S
C560 N558 1.356 . S
C561 C555 1.363 . S
C561 C556 1.379 . S
C561 N559 1.356 . S
N562 C554 1.356 . S
N562 H568 0.984 . S
N562 H569 0.984 . S
N563 C556 1.356 . S
N563 H566 0.984 . S
N563 H567 0.985 . S
H564 N559 0.984 . S
H565 N559 0.985 . S
H566 N563 0.984 . S
H567 N563 0.985 . S
H568 N562 0.984 . S
H569 N562 0.984 . S
H570 N558 0.984 . S
H571 N558 0.985 . S
C572 C573 1.363 . S
C572 C578 1.379 . S
C572 N580 1.356 . S
C573 C572 1.363 . S
C573 C579 1.363 . S
C574 C575 1.363 . S
C574 C579 1.379 . S
C574 N581 1.356 . S
C575 C574 1.363 . S
C575 C578 1.363 . S
N576 C578 1.356 . S
N576 H588 0.984 1_455 S
N576 H589 0.985 . S
N577 C579 1.356 . S
N577 H582 0.984 . S
N577 H583 0.985 . S
C578 C572 1.379 . S
C578 C575 1.363 . S
C578 N576 1.356 . S
C579 C573 1.363 . S
C579 C574 1.379 . S
C579 N577 1.356 . S
N580 C572 1.356 . S
N580 H586 0.984 . S
N580 H587 0.984 . S
N581 C574 1.356 . S
N581 H584 0.984 . S
N581 H585 0.985 . S
H582 N577 0.984 . S
H583 N577 0.985 . S
H584 N581 0.984 . S
H585 N581 0.985 . S
H586 N580 0.984 . S
H587 N580 0.984 . S
H588 N576 0.984 1_655 S
H589 N576 0.985 . S
C590 C591 1.363 . S
C590 C596 1.379 . S
C590 N598 1.356 . S
C591 C590 1.363 . S
C591 C597 1.363 . S
C592 C593 1.363 . S
C592 C597 1.379 . S
C592 N599 1.356 . S
C593 C592 1.363 . S
C593 C596 1.363 . S
N594 C596 1.356 . S
N594 H606 0.984 . S
N594 H607 0.985 . S
N595 C597 1.356 . S
N595 H600 0.984 . S
N595 H601 0.985 . S
C596 C590 1.379 . S
C596 C593 1.363 . S
C596 N594 1.356 . S
C597 C591 1.363 . S
C597 C592 1.379 . S
C597 N595 1.356 . S
N598 C590 1.356 . S
N598 H604 0.984 . S
N598 H605 0.984 . S
N599 C592 1.356 . S
N599 H602 0.984 . S
N599 H603 0.985 . S
H600 N595 0.984 . S
H601 N595 0.985 . S
H602 N599 0.984 . S
H603 N599 0.985 . S
H604 N598 0.984 . S
H605 N598 0.984 . S
H606 N594 0.984 . S
H607 N594 0.985 . S
C177 C6 1.555 . S
C179 C115 1.561 . S
C195 C18 1.485 . S
C197 C118 1.419 . S
C215 C154 1.835 . S
C213 C28 1.847 . S
C231 C40 1.286 . S
C233 C174 1.274 . S
C251 C128 1.811 . S
C249 C9 1.829 . S
C269 C105 1.425 . S
C267 C16 1.441 . S
C287 C158 1.504 . S
C285 C30 1.640 . S
C305 C138 1.215 . S
C303 C42 1.260 . S
C321 C4 1.414 . S
C323 C168 1.300 . S
C341 C134 1.760 . S
C339 C33 1.772 . S
C357 C45 1.479 . S
C359 C100 1.439 . S
C375 C21 1.507 . S
C377 C148 1.462 . S
C395 C114 1.581 . S
C393 C57 1.588 . S
C411 C66 1.462 . S
C413 C120 1.409 . S
C429 C76 1.865 . S
C431 C155 1.848 . S
C447 C88 1.231 . S
C449 C175 1.226 . S
C465 C54 1.810 . S
C467 C125 1.793 . S
C485 C108 1.479 . S
C483 C64 1.494 . S
C503 C160 1.437 . S
C501 C78 1.601 . S
C521 C140 1.253 . S
C519 C93 1.292 . S
C537 C52 1.389 . S
C539 C165 1.282 . S
C557 C135 1.764 . S
C555 C81 1.770 . S
C575 C98 1.401 . S
C573 C90 1.462 . S
C591 C69 1.524 . S
C593 C145 1.481 . S
