# Generated by pormake.
# Topology rtl, (3,6)-cn, num edge types: 1
# Building blocks:
#     Node 0, Type 0, BuildingBlock: QEWDON_clean_linker_0, # of connection points: 3
#     Node 1, Type 0, BuildingBlock: QEWDON_clean_linker_0, # of connection points: 3
#     Node 2, Type 0, BuildingBlock: QEWDON_clean_linker_0, # of connection points: 3
#     Node 3, Type 0, BuildingBlock: QEWDON_clean_linker_0, # of connection points: 3
#     Node 4, Type 1, BuildingBlock: FUNLAD_clean_sbu_0, # of connection points: 6
#     Node 5, Type 1, BuildingBlock: FUNLAD_clean_sbu_0, # of connection points: 6
#     Edge 6, Type (0, 1), BuildingBlock: CIFDUS_clean_linker_0, # of connection points: 2
#     Edge 7, Type (0, 1), BuildingBlock: CIFDUS_clean_linker_0, # of connection points: 2
#     Edge 8, Type (0, 1), BuildingBlock: CIFDUS_clean_linker_0, # of connection points: 2
#     Edge 9, Type (0, 1), BuildingBlock: CIFDUS_clean_linker_0, # of connection points: 2
#     Edge 10, Type (0, 1), BuildingBlock: CIFDUS_clean_linker_0, # of connection points: 2
#     Edge 11, Type (0, 1), BuildingBlock: CIFDUS_clean_linker_0, # of connection points: 2
#     Edge 12, Type (0, 1), BuildingBlock: CIFDUS_clean_linker_0, # of connection points: 2
#     Edge 13, Type (0, 1), BuildingBlock: CIFDUS_clean_linker_0, # of connection points: 2
#     Edge 14, Type (0, 1), BuildingBlock: CIFDUS_clean_linker_0, # of connection points: 2
#     Edge 15, Type (0, 1), BuildingBlock: CIFDUS_clean_linker_0, # of connection points: 2
#     Edge 16, Type (0, 1), BuildingBlock: CIFDUS_clean_linker_0, # of connection points: 2
#     Edge 17, Type (0, 1), BuildingBlock: CIFDUS_clean_linker_0, # of connection points: 2
# Relax obj value: 0.015
# Max RMSD: 0.085
# Mean RMSD: 0.071
data_MOF--net-rtl--node1-FUNLAD_clean_sbu_0--node2-QEWDON_clean_linker_0--edge1-CIFDUS_clean_linker_0
_symmetry_space_group_name_H-M    P1
_symmetry_Int_Tables_number       1
_symmetry_cell_setting            triclinic
loop_
_symmetry_equiv_pos_as_xyz
'x, y, z'
_cell_length_a     37.309959
_cell_length_b     37.144638
_cell_length_c     18.054654
_cell_angle_alpha  91.921993
_cell_angle_beta   92.242304
_cell_angle_gamma 89.811214
loop_
_atom_site_label
_atom_site_type_symbol
_atom_site_fract_x
_atom_site_fract_y
_atom_site_fract_z
_atom_type_partial_charge
H0 H 0.19624 0.86355 0.13416 0.0
C1 C 0.18446 0.87039 0.08059 0.0
C2 C 0.14837 0.88141 0.07467 0.0
C3 C 0.20609 0.8709 0.01861 0.0
H4 H 0.10676 0.90235 0.00223 0.0
C5 C 0.13397 0.89202 0.00583 0.0
C6 C 0.15542 0.8934 0.94385 0.0
C7 C 0.19144 0.8825 0.95059 0.0
C8 C 0.24527 0.86555 0.02748 0.0
H9 H 0.20851 0.88419 0.90359 0.0
C10 C 0.26033 0.83164 0.04293 0.0
C11 C 0.2979 0.82771 0.0512 0.0
C12 C 0.26785 0.89526 0.02019 0.0
H13 H 0.2567 0.92152 0.00833 0.0
C14 C 0.30491 0.89149 0.02878 0.0
H15 H 0.24301 0.80858 0.0483 0.0
C16 C 0.31988 0.85802 0.04422 0.0
H17 H 0.34882 0.8557 0.04947 0.0
H18 H 0.32212 0.91456 0.02316 0.0
H19 H 0.72204 0.65972 0.4245 0.0
C20 C 0.70783 0.65463 0.47433 0.0
C21 C 0.67299 0.64014 0.46862 0.0
C22 C 0.72528 0.66034 0.54409 0.0
H23 H 0.62907 0.62008 0.52949 0.0
C24 C 0.6553 0.63263 0.53364 0.0
C25 C 0.67252 0.63781 0.60368 0.0
C26 C 0.70751 0.65177 0.60841 0.0
C27 C 0.76371 0.67027 0.54952 0.0
H28 H 0.72134 0.65515 0.66214 0.0
C29 C 0.7762 0.70266 0.52124 0.0
C30 C 0.81314 0.71077 0.52559 0.0
C31 C 0.78834 0.64635 0.58238 0.0
H32 H 0.77931 0.62126 0.60418 0.0
C33 C 0.82487 0.65422 0.58621 0.0
H34 H 0.75736 0.72136 0.49617 0.0
C35 C 0.83725 0.68612 0.55786 0.0
H36 H 0.86572 0.69187 0.56232 0.0
H37 H 0.84365 0.63554 0.61133 0.0
H38 H 0.8391 0.18451 0.11745 0.0
C39 C 0.85275 0.18424 0.06548 0.0
C40 C 0.88927 0.17502 0.06444 0.0
C41 C 0.83317 0.19081 -0.00075 0.0
H42 H 0.93387 0.16385 -0.00476 0.0
C43 C 0.90626 0.17303 -0.00343 0.0
C44 C 0.88673 0.17799 0.92965 0.0
C45 C 0.85022 0.18744 0.93132 0.0
C46 C 0.7937 0.19388 0.00027 0.0
H47 H 0.83462 0.18989 0.87979 0.0
C48 C 0.77572 0.22648 0.98569 0.0
C49 C 0.73793 0.22809 0.98621 0.0
C50 C 0.77383 0.16323 0.01584 0.0
H51 H 0.78726 0.13798 0.02724 0.0
C52 C 0.73653 0.16474 0.01614 0.0
H53 H 0.79096 0.25026 0.97385 0.0
C54 C 0.71865 0.19686 0.0013 0.0
H55 H 0.68965 0.19744 0.0027 0.0
H56 H 0.72141 0.14094 0.02806 0.0
H57 H 0.3468 0.34898 0.6123 0.0
C58 C 0.34956 0.36353 0.56177 0.0
C59 C 0.35982 0.39994 0.56588 0.0
C60 C 0.34526 0.34526 0.49263 0.0
H61 H 0.3743 0.44575 0.50353 0.0
C62 C 0.36479 0.41814 0.5003 0.0
C63 C 0.36193 0.39988 0.43115 0.0
C64 C 0.35208 0.36338 0.42755 0.0
C65 C 0.33967 0.30592 0.48912 0.0
H66 H 0.35097 0.34875 0.3745 0.0
C67 C 0.30546 0.29081 0.49638 0.0
C68 C 0.30086 0.25305 0.49197 0.0
C69 C 0.36929 0.28332 0.47829 0.0
H70 H 0.39577 0.29458 0.47272 0.0
C71 C 0.36507 0.24606 0.47534 0.0
H72 H 0.28256 0.30841 0.50369 0.0
C73 C 0.33124 0.23098 0.48226 0.0
H74 H 0.32896 0.20191 0.48062 0.0
H75 H 0.38813 0.22875 0.46773 0.0
C76 C 0.04807 0.98029 0.40267 0.0
N77 N 0.07105 0.07894 0.51137 0.0
C78 C 0.10492 0.0652 0.51506 0.0
C79 C 0.13453 0.08751 0.50878 0.0
C80 C 0.12952 0.12452 0.49919 0.0
C81 C 0.09447 0.13847 0.49916 0.0
C82 C 0.06537 0.11498 0.50485 0.0
Zn83 Zn 0.02969 0.04211 0.50736 0.0
C84 C 0.97399 0.0568 0.3878 0.0
N85 N 0.9473 0.96127 0.49187 0.0
C86 C 0.93756 0.94357 0.42696 0.0
C87 C 0.93246 0.95265 0.55662 0.0
C88 C 0.90741 0.92485 0.5581 0.0
C89 C 0.89764 0.90535 0.49245 0.0
C90 C 0.91278 0.91529 0.42605 0.0
Zn91 Zn 0.98725 0.99952 0.4959 0.0
O92 O 0.05834 1.01043 0.43093 0.0
C93 C 0.04155 0.98419 0.61615 0.0
O94 O 0.01764 0.968 0.41866 0.0
H95 H 0.94079 0.96669 0.60781 0.0
H96 H 0.10905 0.03657 0.52048 0.0
H97 H 0.9496 0.95083 0.37604 0.0
O98 O 0.05512 1.01353 0.59613 0.0
O99 O 1.01293 0.97255 0.58357 0.0
H100 H 0.03826 0.12539 0.50178 0.0
O101 O 0.95814 0.03213 0.57281 0.0
O102 O 1.00042 0.07323 0.58423 0.0
O103 O 0.96188 0.02706 0.40904 0.0
O104 O 1.00284 0.06958 0.41826 0.0
C105 C 0.96976 0.06192 0.60122 0.0
H106 H 0.16116 0.07576 0.50997 0.0
H107 H 0.08956 0.16689 0.49163 0.0
H108 H 0.89689 0.91778 0.61075 0.0
H109 H 0.90582 0.90112 0.37411 0.0
C110 C 0.47453 0.48683 0.90564 0.0
N111 N 0.57355 0.46496 0.01555 0.0
C112 C 0.56324 0.42983 0.01062 0.0
C113 C 0.58882 0.40232 0.00774 0.0
C114 C 0.62553 0.41085 0.01011 0.0
C115 C 0.63545 0.44735 0.01582 0.0
C116 C 0.60892 0.47408 0.01825 0.0
Zn117 Zn 0.53447 0.50429 0.01738 0.0
C118 C 0.54828 0.56234 0.91312 0.0
N119 N 0.4515 0.58482 0.01886 0.0
C120 C 0.41592 0.5765 0.01416 0.0
C121 C 0.46259 0.61966 0.0258 0.0
C122 C 0.43767 0.6477 0.02913 0.0
C123 C 0.4008 0.64003 0.02477 0.0
C124 C 0.38999 0.60386 0.01659 0.0
Zn125 Zn 0.49027 0.54527 0.01706 0.0
O126 O 0.50475 0.476 0.93141 0.0
C127 C 0.47629 0.48658 0.11986 0.0
O128 O 0.46159 0.51633 0.93063 0.0
H129 H 0.49093 0.62581 0.02885 0.0
H130 H 0.53505 0.42305 0.00887 0.0
H131 H 0.40763 0.54863 0.00883 0.0
O132 O 0.50638 0.47581 0.0967 0.0
O133 O 0.46291 0.51582 0.0964 0.0
H134 H 0.61661 0.50215 0.02193 0.0
O135 O 0.51964 0.57318 0.10467 0.0
O136 O 0.56322 0.53334 0.10356 0.0
O137 O 0.51841 0.57372 0.93646 0.0
O138 O 0.56157 0.53338 0.93798 0.0
C139 C 0.54985 0.56227 0.13028 0.0
H140 H 0.57988 0.37458 0.00467 0.0
H141 H 0.66341 0.4552 0.01732 0.0
H142 H 0.44722 0.67522 0.03411 0.0
H143 H 0.36182 0.59677 0.01325 0.0
H144 H 0.274 0.19578 0.41068 0.0
H145 H 0.24649 0.27227 0.58449 0.0
H146 H 0.18959 0.24098 0.59865 0.0
H147 H 0.14945 0.1889 0.56729 0.0
H148 H 0.17983 0.11137 0.39777 0.0
H149 H 0.23394 0.14567 0.37717 0.0
C150 C 0.25572 0.20557 0.45209 0.0
C151 C 0.26484 0.23612 0.49706 0.0
C152 C 0.22358 0.18701 0.46109 0.0
C153 C 0.2402 0.24893 0.54884 0.0
C154 C 0.20773 0.23088 0.55735 0.0
C155 C 0.16781 0.17984 0.52543 0.0
C156 C 0.16084 0.14748 0.48457 0.0
C157 C 0.19937 0.1995 0.51458 0.0
C158 C 0.18488 0.13591 0.43062 0.0
C159 C 0.21577 0.15555 0.41865 0.0
H160 H 0.28601 0.76363 0.97577 0.0
H161 H 0.34895 0.81279 0.15711 0.0
H162 H 0.38469 0.75795 0.1684 0.0
H163 H 0.40158 0.69822 0.11977 0.0
H164 H 0.34015 0.64889 0.93648 0.0
H165 H 0.29996 0.70113 0.93368 0.0
C166 C 0.30705 0.76196 0.01869 0.0
C167 C 0.31505 0.7923 0.06515 0.0
C168 C 0.32799 0.73042 0.02406 0.0
C169 C 0.34257 0.78991 0.12022 0.0
C170 C 0.36304 0.75859 0.12663 0.0
C171 C 0.37933 0.69886 0.07932 0.0
C172 C 0.37416 0.66992 0.02782 0.0
C173 C 0.35665 0.72909 0.07754 0.0
C174 C 0.34471 0.67079 0.97684 0.0
C175 C 0.32183 0.70076 0.97496 0.0
H176 H 0.79317 0.77886 0.56614 0.0
H177 H 0.86574 0.71931 0.42794 0.0
H178 H 0.89621 0.77506 0.39941 0.0
H179 H 0.90626 0.83964 0.42443 0.0
H180 H 0.83558 0.89919 0.56716 0.0
H181 H 0.80039 0.84477 0.58331 0.0
C182 C 0.81514 0.77833 0.52849 0.0
C183 C 0.82725 0.74514 0.49912 0.0
C184 C 0.8332 0.81043 0.51406 0.0
C185 C 0.85607 0.74461 0.45126 0.0
C186 C 0.87355 0.77644 0.43517 0.0
C187 C 0.88271 0.8409 0.45778 0.0
C188 C 0.87371 0.87343 0.49482 0.0
C189 C 0.86297 0.80938 0.46781 0.0
C190 C 0.84338 0.87441 0.53877 0.0
C191 C 0.82318 0.84331 0.54789 0.0
H192 H 0.74805 0.29404 0.05493 0.0
H193 H 0.68204 0.23753 0.88799 0.0
H194 H 0.64269 0.28993 0.87736 0.0
H195 H 0.6244 0.34994 0.92202 0.0
H196 H 0.68869 0.40621 0.09236 0.0
H197 H 0.73156 0.35625 0.09431 0.0
C198 C 0.72545 0.29358 0.01527 0.0
C199 C 0.71784 0.26196 0.9725 0.0
C200 C 0.70243 0.32366 0.01053 0.0
C201 C 0.68826 0.26151 0.92182 0.0
C202 C 0.66572 0.29142 0.91585 0.0
C203 C 0.64776 0.35129 0.95969 0.0
C204 C 0.65305 0.38167 0.0075 0.0
C205 C 0.67202 0.32229 0.96121 0.0
C206 C 0.68397 0.38326 0.0547 0.0
C207 C 0.70843 0.35458 0.05614 0.0
H208 H 0.16851 0.9217 0.1958 0.0
H209 H 0.08018 0.85932 0.1001 0.0
H210 H 0.04138 0.88219 0.1977 0.0
H211 H 0.03116 0.92518 0.30262 0.0
H212 H 0.11951 0.99025 0.3912 0.0
H213 H 0.15958 0.96109 0.30458 0.0
C214 C 0.14106 0.9123 0.19767 0.0
C215 C 0.12726 0.88866 0.14145 0.0
C216 C 0.11869 0.92663 0.25201 0.0
C217 C 0.09138 0.87738 0.14328 0.0
C218 C 0.06916 0.89066 0.19869 0.0
C219 C 0.05926 0.93264 0.30336 0.0
C220 C 0.07216 0.96015 0.35277 0.0
C221 C 0.08224 0.91617 0.25211 0.0
C222 C 0.10868 0.96953 0.35308 0.0
C223 C 0.13174 0.95277 0.30372 0.0
H224 H 0.60415 0.64979 0.64648 0.0
H225 H 0.70241 0.5954 0.70966 0.0
H226 H 0.67296 0.56811 0.81236 0.0
H227 H 0.61845 0.5569 0.87978 0.0
H228 H 0.5203 0.61217 0.81896 0.0
H229 H 0.55046 0.64184 0.71983 0.0
C230 C 0.6191 0.63216 0.68317 0.0
C231 C 0.65537 0.6246 0.67048 0.0
C232 C 0.60196 0.61649 0.74212 0.0
C233 C 0.67458 0.60196 0.71873 0.0
C234 C 0.65768 0.58611 0.77711 0.0
C235 C 0.60368 0.57553 0.84498 0.0
C236 C 0.56709 0.58203 0.85623 0.0
C237 C 0.62126 0.59275 0.78863 0.0
C238 C 0.54847 0.60664 0.81137 0.0
C239 C 0.56568 0.62357 0.75457 0.0
H240 H 0.8668 0.12181 0.14865 0.0
H241 H 0.95472 0.19499 0.12601 0.0
H242 H 0.9888 0.16552 0.22614 0.0
H243 H 0.99445 0.11671 0.3158 0.0
H244 H 0.90691 0.04184 0.33138 0.0
H245 H 0.87194 0.07411 0.23839 0.0
C246 C 0.89312 0.13177 0.16682 0.0
C247 C 0.90809 0.1608 0.13108 0.0
C248 C 0.91282 0.11403 0.22242 0.0
C249 C 0.94262 0.17284 0.15346 0.0
C250 C 0.96211 0.15589 0.21029 0.0
C251 C 0.96771 0.10752 0.29887 0.0
C252 C 0.95347 0.07676 0.33041 0.0
C253 C 0.94769 0.12605 0.24441 0.0
C254 C 0.91875 0.06523 0.30777 0.0
C255 C 0.89858 0.08376 0.25472 0.0
H256 H 0.41146 0.37669 0.66104 0.0
H257 H 0.33673 0.46372 0.62658 0.0
H258 H 0.36464 0.49794 0.73201 0.0
H259 H 0.41348 0.50489 0.82715 0.0
H260 H 0.49045 0.41886 0.85543 0.0
H261 H 0.45862 0.38254 0.75921 0.0
C262 C 0.40077 0.40275 0.67802 0.0
C263 C 0.37186 0.41757 0.63715 0.0
C264 C 0.4178 0.4227 0.7366 0.0
C265 C 0.35876 0.45175 0.65805 0.0
C266 C 0.37488 0.47136 0.7178 0.0
C267 C 0.42319 0.47813 0.8125 0.0
C268 C 0.4545 0.46479 0.84811 0.0
C269 C 0.40498 0.45746 0.75634 0.0
C270 C 0.46665 0.43 0.82849 0.0
C271 C 0.44839 0.4091 0.77363 0.0
H272 H 0.60478 0.65172 0.41561 0.0
H273 H 0.70439 0.60044 0.35928 0.0
H274 H 0.67543 0.57261 0.24799 0.0
H275 H 0.62065 0.55913 0.17184 0.0
H276 H 0.52123 0.61136 0.22689 0.0
H277 H 0.55114 0.64232 0.3335 0.0
C278 C 0.62018 0.63478 0.37839 0.0
C279 C 0.65663 0.6281 0.39569 0.0
C280 C 0.60328 0.61866 0.31479 0.0
C281 C 0.6764 0.60633 0.34678 0.0
C282 C 0.65976 0.59011 0.28352 0.0
C283 C 0.60559 0.5774 0.20704 0.0
C284 C 0.56869 0.58258 0.19199 0.0
C285 C 0.62305 0.59547 0.26783 0.0
C286 C 0.54964 0.60678 0.2374 0.0
C287 C 0.56671 0.62449 0.29845 0.0
H288 H 0.8618 0.12727 0.83054 0.0
H289 H 0.94968 0.20079 0.87521 0.0
H290 H 0.98251 0.17262 0.7735 0.0
H291 H 0.98838 0.12342 0.68005 0.0
H292 H 0.90152 0.04774 0.64097 0.0
H293 H 0.86616 0.08038 0.73217 0.0
C294 C 0.88771 0.13772 0.8165 0.0
C295 C 0.90321 0.16626 0.8595 0.0
C296 C 0.90687 0.12055 0.75991 0.0
C297 C 0.93718 0.17902 0.84224 0.0
C298 C 0.95602 0.16274 0.78458 0.0
C299 C 0.96162 0.1142 0.69107 0.0
C300 C 0.94781 0.08296 0.65407 0.0
C301 C 0.94153 0.13285 0.74439 0.0
C302 C 0.913 0.0715 0.66898 0.0
C303 C 0.89268 0.0902 0.72105 0.0
H304 H 0.41487 0.37725 0.34319 0.0
H305 H 0.33923 0.4637 0.37537 0.0
H306 H 0.36707 0.49784 0.27906 0.0
H307 H 0.41556 0.50465 0.19201 0.0
H308 H 0.49323 0.41918 0.16561 0.0
H309 H 0.46209 0.38319 0.25338 0.0
C310 C 0.40405 0.40321 0.32774 0.0
C311 C 0.37485 0.41785 0.36534 0.0
C312 C 0.42093 0.42308 0.2743 0.0
C313 C 0.36154 0.45188 0.34647 0.0
C314 C 0.37758 0.47144 0.29186 0.0
C315 C 0.4256 0.4781 0.20524 0.0
C316 C 0.45685 0.46479 0.17256 0.0
C317 C 0.40777 0.45761 0.25649 0.0
C318 C 0.46944 0.43028 0.19034 0.0
C319 C 0.45157 0.40957 0.24037 0.0
H320 H 0.09044 0.88231 0.87392 0.0
H321 H 0.18787 0.94366 0.86201 0.0
H322 H 0.16154 0.97707 0.75895 0.0
H323 H 0.10949 0.99112 0.67649 0.0
H324 H 1.01206 0.92965 0.68982 0.0
H325 H 0.03951 0.89455 0.78862 0.0
C326 C 0.10594 0.90289 0.84848 0.0
C327 C 0.14102 0.91046 0.87561 0.0
C328 C 0.09046 0.92235 0.79011 0.0
C329 C 0.16097 0.93693 0.84156 0.0
C330 C 0.14579 0.95633 0.78313 0.0
C331 C 0.09428 0.97009 0.70117 0.0
C332 C 0.0587 0.96325 0.67617 0.0
C333 C 0.11034 0.94968 0.75772 0.0
C334 C 0.03948 0.93558 0.70807 0.0
C335 C 0.05514 0.91542 0.76458 0.0
loop_
_geom_bond_atom_site_label_1
_geom_bond_atom_site_label_2
_geom_bond_distance
_geom_bond_site_symmetry_2
_ccdc_geom_bond_type
H0 C1 0.949 . S
C1 H0 0.949 . S
C1 C2 1.395 . S
C1 C3 1.391 1_554 S
C2 C1 1.395 . S
C2 C5 1.390 . S
C3 C1 1.391 1_556 S
C3 C7 1.387 . S
C3 C8 1.491 . S
H4 C5 0.950 . S
C5 C2 1.390 . S
C5 H4 0.950 . S
C5 C6 1.378 1_554 S
C6 C5 1.378 1_556 S
C6 C7 1.409 . S
C7 C3 1.387 . S
C7 C6 1.409 . S
C7 H9 0.951 . S
C8 C3 1.491 . S
C8 C10 1.382 1_556 S
C8 C12 1.404 . S
H9 C7 0.951 . S
C10 C8 1.382 1_554 S
C10 C11 1.390 . S
C10 H15 0.949 . S
C11 C10 1.390 . S
C11 C16 1.399 1_554 S
C12 C8 1.404 . S
C12 H13 0.950 . S
C12 C14 1.375 . S
H13 C12 0.950 . S
C14 C12 1.375 . S
C14 C16 1.382 . S
C14 H18 0.950 . S
H15 C10 0.949 . S
C16 C11 1.399 1_556 S
C16 C14 1.382 . S
C16 H17 0.952 . S
H17 C16 0.952 . S
H18 C14 0.950 . S
H19 C20 0.949 . S
C20 H19 0.949 . S
C20 C21 1.395 . S
C20 C22 1.391 . S
C21 C20 1.395 . S
C21 C24 1.390 . S
C22 C20 1.391 . S
C22 C26 1.387 . S
C22 C27 1.491 . S
H23 C24 0.950 . S
C24 C21 1.390 . S
C24 H23 0.950 . S
C24 C25 1.378 . S
C25 C24 1.378 . S
C25 C26 1.409 . S
C26 C22 1.387 . S
C26 C25 1.409 . S
C26 H28 0.951 . S
C27 C22 1.491 . S
C27 C29 1.382 . S
C27 C31 1.404 . S
H28 C26 0.951 . S
C29 C27 1.382 . S
C29 C30 1.390 . S
C29 H34 0.949 . S
C30 C29 1.390 . S
C30 C35 1.399 . S
C31 C27 1.404 . S
C31 H32 0.950 . S
C31 C33 1.375 . S
H32 C31 0.950 . S
C33 C31 1.375 . S
C33 C35 1.382 . S
C33 H37 0.950 . S
H34 C29 0.949 . S
C35 C30 1.399 . S
C35 C33 1.382 . S
C35 H36 0.952 . S
H36 C35 0.952 . S
H37 C33 0.950 . S
H38 C39 0.949 . S
C39 H38 0.949 . S
C39 C40 1.395 . S
C39 C41 1.391 1_554 S
C40 C39 1.395 . S
C40 C43 1.390 . S
C41 C39 1.391 1_556 S
C41 C45 1.387 . S
C41 C46 1.491 . S
H42 C43 0.950 . S
C43 C40 1.390 . S
C43 H42 0.950 . S
C43 C44 1.378 1_554 S
C44 C43 1.378 1_556 S
C44 C45 1.409 . S
C45 C41 1.387 . S
C45 C44 1.409 . S
C45 H47 0.951 . S
C46 C41 1.491 . S
C46 C48 1.382 1_556 S
C46 C50 1.404 . S
H47 C45 0.951 . S
C48 C46 1.382 1_554 S
C48 C49 1.390 . S
C48 H53 0.949 . S
C49 C48 1.390 . S
C49 C54 1.399 1_554 S
C50 C46 1.404 . S
C50 H51 0.950 . S
C50 C52 1.375 . S
H51 C50 0.950 . S
C52 C50 1.375 . S
C52 C54 1.382 . S
C52 H56 0.950 . S
H53 C48 0.949 . S
C54 C49 1.399 1_556 S
C54 C52 1.382 . S
C54 H55 0.952 . S
H55 C54 0.952 . S
H56 C52 0.950 . S
H57 C58 0.949 . S
C58 H57 0.949 . S
C58 C59 1.395 . S
C58 C60 1.391 . S
C59 C58 1.395 . S
C59 C62 1.390 . S
C60 C58 1.391 . S
C60 C64 1.387 . S
C60 C65 1.491 . S
H61 C62 0.950 . S
C62 C59 1.390 . S
C62 H61 0.950 . S
C62 C63 1.378 . S
C63 C62 1.378 . S
C63 C64 1.409 . S
C64 C60 1.387 . S
C64 C63 1.409 . S
C64 H66 0.951 . S
C65 C60 1.491 . S
C65 C67 1.382 . S
C65 C69 1.404 . S
H66 C64 0.951 . S
C67 C65 1.382 . S
C67 C68 1.390 . S
C67 H72 0.949 . S
C68 C67 1.390 . S
C68 C73 1.399 . S
C69 C65 1.404 . S
C69 H70 0.950 . S
C69 C71 1.375 . S
H70 C69 0.950 . S
C71 C69 1.375 . S
C71 C73 1.382 . S
C71 H75 0.950 . S
H72 C67 0.949 . S
C73 C68 1.399 . S
C73 C71 1.382 . S
C73 H74 0.952 . S
H74 C73 0.952 . S
H75 C71 0.950 . S
C76 O92 1.273 . S
C76 O94 1.254 . S
N77 C78 1.333 . S
N77 C82 1.307 . S
N77 Zn83 2.020 . S
C78 N77 1.333 . S
C78 C79 1.379 . S
C78 H96 0.952 . S
C79 C78 1.379 . S
C79 C80 1.390 . S
C79 H106 0.949 . S
C80 C79 1.390 . S
C80 C81 1.357 . S
C81 C80 1.357 . S
C81 C82 1.370 . S
C81 H107 0.950 . S
C82 N77 1.307 . S
C82 C81 1.370 . S
C82 H100 0.948 . S
Zn83 N77 2.020 . S
Zn83 O92 2.024 1_545 S
Zn83 O98 2.034 1_545 S
Zn83 O102 2.025 1_455 S
Zn83 O104 2.024 1_455 S
C84 O103 1.246 . S
C84 O104 1.249 . S
N85 C86 1.307 . S
N85 C87 1.333 . S
N85 Zn91 2.020 . S
C86 N85 1.307 . S
C86 C90 1.370 . S
C86 H97 0.948 . S
C87 N85 1.333 . S
C87 C88 1.379 . S
C87 H95 0.952 . S
C88 C87 1.379 . S
C88 C89 1.390 . S
C88 H108 0.949 . S
C89 C88 1.390 . S
C89 C90 1.357 . S
C90 C86 1.370 . S
C90 C89 1.357 . S
C90 H109 0.950 . S
Zn91 N85 2.020 . S
Zn91 O94 2.025 1_655 S
Zn91 O99 2.024 1_655 S
Zn91 O101 2.039 1_565 S
Zn91 O103 2.034 1_565 S
O92 C76 1.273 . S
O92 Zn83 2.024 1_565 S
C93 O98 1.246 . S
C93 O99 1.249 . S
O94 C76 1.254 . S
O94 Zn91 2.025 1_455 S
H95 C87 0.952 . S
H96 C78 0.952 . S
H97 C86 0.948 . S
O98 Zn83 2.034 1_565 S
O98 C93 1.246 . S
O99 Zn91 2.024 1_455 S
O99 C93 1.249 . S
H100 C82 0.948 . S
O101 Zn91 2.039 1_545 S
O101 C105 1.251 . S
O102 Zn83 2.025 1_655 S
O102 C105 1.254 . S
O103 C84 1.246 . S
O103 Zn91 2.034 1_545 S
O104 Zn83 2.024 1_655 S
O104 C84 1.249 . S
C105 O101 1.251 . S
C105 O102 1.254 . S
H106 C79 0.949 . S
H107 C81 0.950 . S
H108 C88 0.949 . S
H109 C90 0.950 . S
C110 O126 1.251 . S
C110 O128 1.254 . S
N111 C112 1.333 . S
N111 C116 1.307 . S
N111 Zn117 2.020 . S
C112 N111 1.333 . S
C112 C113 1.379 . S
C112 H130 0.952 1_554 S
C113 C112 1.379 . S
C113 C114 1.390 . S
C113 H140 0.949 1_554 S
C114 C113 1.390 . S
C114 C115 1.357 . S
C115 C114 1.357 . S
C115 C116 1.370 . S
C115 H141 0.950 . S
C116 N111 1.307 . S
C116 C115 1.370 . S
C116 H134 0.948 . S
Zn117 N111 2.020 . S
Zn117 O126 2.039 1_554 S
Zn117 O132 2.034 . S
Zn117 O136 2.025 . S
Zn117 O138 2.024 1_554 S
C118 O137 1.246 . S
C118 O138 1.249 . S
N119 C120 1.307 . S
N119 C121 1.333 . S
N119 Zn125 2.020 . S
C120 N119 1.307 . S
C120 C124 1.370 . S
C120 H131 0.946 1_554 S
C121 N119 1.333 . S
C121 C122 1.379 . S
C121 H129 0.952 . S
C122 C121 1.379 . S
C122 C123 1.390 . S
C122 H142 0.949 . S
C123 C122 1.390 . S
C123 C124 1.357 . S
C124 C120 1.370 . S
C124 C123 1.357 . S
C124 H143 0.950 . S
Zn125 N119 2.020 . S
Zn125 O128 2.025 1_554 S
Zn125 O133 2.024 . S
Zn125 O135 2.039 . S
Zn125 O137 2.034 1_554 S
O126 C110 1.251 . S
O126 Zn117 2.039 1_556 S
C127 O132 1.246 . S
C127 O133 1.249 . S
O128 C110 1.254 . S
O128 Zn125 2.025 1_556 S
H129 C121 0.952 . S
H130 C112 0.952 1_556 S
H131 C120 0.946 1_556 S
O132 Zn117 2.034 . S
O132 C127 1.246 . S
O133 Zn125 2.024 . S
O133 C127 1.249 . S
H134 C116 0.948 . S
O135 Zn125 2.039 . S
O135 C139 1.251 . S
O136 Zn117 2.025 . S
O136 C139 1.254 . S
O137 C118 1.246 . S
O137 Zn125 2.034 1_556 S
O138 Zn117 2.024 1_556 S
O138 C118 1.249 . S
C139 O135 1.251 . S
C139 O136 1.254 . S
H140 C113 0.949 1_556 S
H141 C115 0.950 . S
H142 C122 0.949 . S
H143 C124 0.950 . S
H144 C150 0.930 . S
H145 C153 0.930 . S
H146 C154 0.930 . S
H147 C155 0.930 . S
H148 C158 0.930 . S
H149 C159 0.930 . S
C150 H144 0.930 . S
C150 C151 1.355 . S
C150 C152 1.415 . S
C151 C150 1.355 . S
C151 C153 1.419 . S
C152 C150 1.415 . S
C152 C157 1.425 . S
C152 C159 1.409 . S
C153 H145 0.930 . S
C153 C151 1.419 . S
C153 C154 1.362 . S
C154 H146 0.930 . S
C154 C153 1.362 . S
C154 C157 1.409 . S
C155 H147 0.930 . S
C155 C156 1.355 . S
C155 C157 1.415 . S
C156 C155 1.355 . S
C156 C158 1.419 . S
C157 C152 1.425 . S
C157 C154 1.409 . S
C157 C155 1.415 . S
C158 H148 0.930 . S
C158 C156 1.419 . S
C158 C159 1.362 . S
C159 H149 0.930 . S
C159 C152 1.409 . S
C159 C158 1.362 . S
H160 C166 0.930 . S
H161 C169 0.930 . S
H162 C170 0.930 . S
H163 C171 0.930 1_556 S
H164 C174 0.930 . S
H165 C175 0.930 . S
C166 H160 0.930 . S
C166 C167 1.355 . S
C166 C168 1.415 . S
C167 C166 1.355 . S
C167 C169 1.419 1_554 S
C168 C166 1.415 . S
C168 C173 1.425 . S
C168 C175 1.409 . S
C169 H161 0.930 . S
C169 C167 1.419 1_556 S
C169 C170 1.362 . S
C170 H162 0.930 . S
C170 C169 1.362 . S
C170 C173 1.409 1_556 S
C171 H163 0.930 1_554 S
C171 C172 1.355 . S
C171 C173 1.415 . S
C172 C171 1.355 . S
C172 C174 1.419 . S
C173 C168 1.425 . S
C173 C170 1.409 1_554 S
C173 C171 1.415 . S
C174 H164 0.930 . S
C174 C172 1.419 . S
C174 C175 1.362 . S
C175 H165 0.930 . S
C175 C168 1.409 . S
C175 C174 1.362 . S
H176 C182 0.930 . S
H177 C185 0.930 . S
H178 C186 0.930 . S
H179 C187 0.930 . S
H180 C190 0.930 . S
H181 C191 0.930 . S
C182 H176 0.930 . S
C182 C183 1.355 . S
C182 C184 1.415 . S
C183 C182 1.355 . S
C183 C185 1.419 . S
C184 C182 1.415 . S
C184 C189 1.425 . S
C184 C191 1.409 . S
C185 H177 0.930 . S
C185 C183 1.419 . S
C185 C186 1.362 . S
C186 H178 0.930 . S
C186 C185 1.362 . S
C186 C189 1.409 . S
C187 H179 0.930 . S
C187 C188 1.355 . S
C187 C189 1.415 . S
C188 C187 1.355 . S
C188 C190 1.419 . S
C189 C184 1.425 . S
C189 C186 1.409 . S
C189 C187 1.415 . S
C190 H180 0.930 . S
C190 C188 1.419 . S
C190 C191 1.362 . S
C191 H181 0.930 . S
C191 C184 1.409 . S
C191 C190 1.362 . S
H192 C198 0.930 . S
H193 C201 0.930 . S
H194 C202 0.930 . S
H195 C203 0.930 . S
H196 C206 0.930 . S
H197 C207 0.930 . S
C198 H192 0.930 . S
C198 C199 1.355 . S
C198 C200 1.415 . S
C199 C198 1.355 . S
C199 C201 1.419 1_554 S
C200 C198 1.415 . S
C200 C205 1.425 1_554 S
C200 C207 1.409 . S
C201 H193 0.930 . S
C201 C199 1.419 1_556 S
C201 C202 1.362 . S
C202 H194 0.930 . S
C202 C201 1.362 . S
C202 C205 1.409 . S
C203 H195 0.930 . S
C203 C204 1.355 1_556 S
C203 C205 1.415 . S
C204 C203 1.355 1_554 S
C204 C206 1.419 . S
C205 C200 1.425 1_556 S
C205 C202 1.409 . S
C205 C203 1.415 . S
C206 H196 0.930 . S
C206 C204 1.419 . S
C206 C207 1.362 . S
C207 H197 0.930 . S
C207 C200 1.409 . S
C207 C206 1.362 . S
H208 C214 0.930 . S
H209 C217 0.930 . S
H210 C218 0.930 . S
H211 C219 0.930 . S
H212 C222 0.930 . S
H213 C223 0.930 . S
C214 H208 0.930 . S
C214 C215 1.355 . S
C214 C216 1.415 . S
C215 C214 1.355 . S
C215 C217 1.419 . S
C216 C214 1.415 . S
C216 C221 1.425 . S
C216 C223 1.409 . S
C217 H209 0.930 . S
C217 C215 1.419 . S
C217 C218 1.362 . S
C218 H210 0.930 . S
C218 C217 1.362 . S
C218 C221 1.409 . S
C219 H211 0.930 . S
C219 C220 1.355 . S
C219 C221 1.415 . S
C220 C219 1.355 . S
C220 C222 1.419 . S
C221 C216 1.425 . S
C221 C218 1.409 . S
C221 C219 1.415 . S
C222 H212 0.930 . S
C222 C220 1.419 . S
C222 C223 1.362 . S
C223 H213 0.930 . S
C223 C216 1.409 . S
C223 C222 1.362 . S
H224 C230 0.930 . S
H225 C233 0.930 . S
H226 C234 0.930 . S
H227 C235 0.930 . S
H228 C238 0.930 . S
H229 C239 0.930 . S
C230 H224 0.930 . S
C230 C231 1.355 . S
C230 C232 1.415 . S
C231 C230 1.355 . S
C231 C233 1.419 . S
C232 C230 1.415 . S
C232 C237 1.425 . S
C232 C239 1.409 . S
C233 H225 0.930 . S
C233 C231 1.419 . S
C233 C234 1.362 . S
C234 H226 0.930 . S
C234 C233 1.362 . S
C234 C237 1.409 . S
C235 H227 0.930 . S
C235 C236 1.355 . S
C235 C237 1.415 . S
C236 C235 1.355 . S
C236 C238 1.419 . S
C237 C232 1.425 . S
C237 C234 1.409 . S
C237 C235 1.415 . S
C238 H228 0.930 . S
C238 C236 1.419 . S
C238 C239 1.362 . S
C239 H229 0.930 . S
C239 C232 1.409 . S
C239 C238 1.362 . S
H240 C246 0.930 . S
H241 C249 0.930 . S
H242 C250 0.930 . S
H243 C251 0.930 . S
H244 C254 0.930 . S
H245 C255 0.930 . S
C246 H240 0.930 . S
C246 C247 1.355 . S
C246 C248 1.415 . S
C247 C246 1.355 . S
C247 C249 1.419 . S
C248 C246 1.415 . S
C248 C253 1.425 . S
C248 C255 1.409 . S
C249 H241 0.930 . S
C249 C247 1.419 . S
C249 C250 1.362 . S
C250 H242 0.930 . S
C250 C249 1.362 . S
C250 C253 1.409 . S
C251 H243 0.930 . S
C251 C252 1.355 . S
C251 C253 1.415 . S
C252 C251 1.355 . S
C252 C254 1.419 . S
C253 C248 1.425 . S
C253 C250 1.409 . S
C253 C251 1.415 . S
C254 H244 0.930 . S
C254 C252 1.419 . S
C254 C255 1.362 . S
C255 H245 0.930 . S
C255 C248 1.409 . S
C255 C254 1.362 . S
H256 C262 0.930 . S
H257 C265 0.930 . S
H258 C266 0.930 . S
H259 C267 0.930 . S
H260 C270 0.930 . S
H261 C271 0.930 . S
C262 H256 0.930 . S
C262 C263 1.355 . S
C262 C264 1.415 . S
C263 C262 1.355 . S
C263 C265 1.419 . S
C264 C262 1.415 . S
C264 C269 1.425 . S
C264 C271 1.409 . S
C265 H257 0.930 . S
C265 C263 1.419 . S
C265 C266 1.362 . S
C266 H258 0.930 . S
C266 C265 1.362 . S
C266 C269 1.409 . S
C267 H259 0.930 . S
C267 C268 1.355 . S
C267 C269 1.415 . S
C268 C267 1.355 . S
C268 C270 1.419 . S
C269 C264 1.425 . S
C269 C266 1.409 . S
C269 C267 1.415 . S
C270 H260 0.930 . S
C270 C268 1.419 . S
C270 C271 1.362 . S
C271 H261 0.930 . S
C271 C264 1.409 . S
C271 C270 1.362 . S
H272 C278 0.930 . S
H273 C281 0.930 . S
H274 C282 0.930 . S
H275 C283 0.930 . S
H276 C286 0.930 . S
H277 C287 0.930 . S
C278 H272 0.930 . S
C278 C279 1.355 . S
C278 C280 1.415 . S
C279 C278 1.355 . S
C279 C281 1.419 . S
C280 C278 1.415 . S
C280 C285 1.425 . S
C280 C287 1.409 . S
C281 H273 0.930 . S
C281 C279 1.419 . S
C281 C282 1.362 . S
C282 H274 0.930 . S
C282 C281 1.362 . S
C282 C285 1.409 . S
C283 H275 0.930 . S
C283 C284 1.355 . S
C283 C285 1.415 . S
C284 C283 1.355 . S
C284 C286 1.419 . S
C285 C280 1.425 . S
C285 C282 1.409 . S
C285 C283 1.415 . S
C286 H276 0.930 . S
C286 C284 1.419 . S
C286 C287 1.362 . S
C287 H277 0.930 . S
C287 C280 1.409 . S
C287 C286 1.362 . S
H288 C294 0.930 . S
H289 C297 0.930 . S
H290 C298 0.930 . S
H291 C299 0.930 . S
H292 C302 0.930 1_565 S
H293 C303 0.930 . S
C294 H288 0.930 . S
C294 C295 1.355 . S
C294 C296 1.415 . S
C295 C294 1.355 . S
C295 C297 1.419 . S
C296 C294 1.415 . S
C296 C301 1.425 . S
C296 C303 1.409 . S
C297 H289 0.930 . S
C297 C295 1.419 . S
C297 C298 1.362 . S
C298 H290 0.930 . S
C298 C297 1.362 . S
C298 C301 1.409 . S
C299 H291 0.930 . S
C299 C300 1.355 . S
C299 C301 1.415 . S
C300 C299 1.355 . S
C300 C302 1.419 . S
C301 C296 1.425 . S
C301 C298 1.409 . S
C301 C299 1.415 . S
C302 H292 0.930 1_545 S
C302 C300 1.419 . S
C302 C303 1.362 . S
C303 H293 0.930 . S
C303 C296 1.409 . S
C303 C302 1.362 . S
H304 C310 0.930 . S
H305 C313 0.930 . S
H306 C314 0.930 . S
H307 C315 0.930 . S
H308 C318 0.930 . S
H309 C319 0.930 . S
C310 H304 0.930 . S
C310 C311 1.355 . S
C310 C312 1.415 . S
C311 C310 1.355 . S
C311 C313 1.419 . S
C312 C310 1.415 . S
C312 C317 1.425 . S
C312 C319 1.409 . S
C313 H305 0.930 . S
C313 C311 1.419 . S
C313 C314 1.362 . S
C314 H306 0.930 . S
C314 C313 1.362 . S
C314 C317 1.409 . S
C315 H307 0.930 . S
C315 C316 1.355 . S
C315 C317 1.415 . S
C316 C315 1.355 . S
C316 C318 1.419 . S
C317 C312 1.425 . S
C317 C314 1.409 . S
C317 C315 1.415 . S
C318 H308 0.930 . S
C318 C316 1.419 . S
C318 C319 1.362 . S
C319 H309 0.930 . S
C319 C312 1.409 . S
C319 C318 1.362 . S
H320 C326 0.930 . S
H321 C329 0.930 . S
H322 C330 0.930 . S
H323 C331 0.930 . S
H324 C334 0.930 . S
H325 C335 0.930 . S
C326 H320 0.930 . S
C326 C327 1.355 . S
C326 C328 1.415 . S
C327 C326 1.355 . S
C327 C329 1.419 . S
C328 C326 1.415 . S
C328 C333 1.425 . S
C328 C335 1.409 . S
C329 H321 0.930 . S
C329 C327 1.419 . S
C329 C330 1.362 . S
C330 H322 0.930 . S
C330 C329 1.362 . S
C330 C333 1.409 . S
C331 H323 0.930 . S
C331 C332 1.355 . S
C331 C333 1.415 . S
C332 C331 1.355 . S
C332 C334 1.419 . S
C333 C328 1.425 . S
C333 C330 1.409 . S
C333 C331 1.415 . S
C334 H324 0.930 . S
C334 C332 1.419 . S
C334 C335 1.362 . S
C335 H325 0.930 . S
C335 C328 1.409 . S
C335 C334 1.362 . S
C156 C80 1.536 . S
C151 C68 1.458 . S
C167 C11 1.360 . S
C172 C123 1.530 . S
C183 C30 1.385 . S
C188 C89 1.534 . S
C199 C49 1.359 . S
C204 C114 1.521 . S
C220 C76 1.613 . S
C215 C2 1.577 . S
C236 C118 1.582 . S
C231 C25 1.580 . S
C247 C40 1.554 . S
C252 C84 1.597 . S
C263 C59 1.530 . S
C268 C110 1.583 . S
C284 C139 1.491 . S
C279 C21 1.438 . S
C300 C105 1.485 . S
C295 C44 1.485 . S
C316 C127 1.491 . S
C311 C63 1.498 . S
C327 C6 1.480 . S
C332 C93 1.474 . S
