# Generated by pormake.
# Topology nom, (4,4)-cn, num edge types: 1
# Building blocks:
#     Node 0, Type 0, BuildingBlock: NAHDIM_clean_linker_0, # of connection points: 4
#     Node 1, Type 0, BuildingBlock: NAHDIM_clean_linker_0, # of connection points: 4
#     Node 2, Type 0, BuildingBlock: NAHDIM_clean_linker_0, # of connection points: 4
#     Node 3, Type 0, BuildingBlock: NAHDIM_clean_linker_0, # of connection points: 4
#     Node 4, Type 0, BuildingBlock: NAHDIM_clean_linker_0, # of connection points: 4
#     Node 5, Type 0, BuildingBlock: NAHDIM_clean_linker_0, # of connection points: 4
#     Node 6, Type 1, BuildingBlock: QUQFOY_clean_sbu_1, # of connection points: 4
#     Node 7, Type 1, BuildingBlock: QUQFOY_clean_sbu_1, # of connection points: 4
#     Node 8, Type 1, BuildingBlock: QUQFOY_clean_sbu_1, # of connection points: 4
#     Node 9, Type 1, BuildingBlock: QUQFOY_clean_sbu_1, # of connection points: 4
#     Node 10, Type 1, BuildingBlock: QUQFOY_clean_sbu_1, # of connection points: 4
#     Node 11, Type 1, BuildingBlock: QUQFOY_clean_sbu_1, # of connection points: 4
#     Edge 12, Type (0, 1), BuildingBlock: KIFKEQ_clean_linker_1, # of connection points: 2
#     Edge 13, Type (0, 1), BuildingBlock: KIFKEQ_clean_linker_1, # of connection points: 2
#     Edge 14, Type (0, 1), BuildingBlock: KIFKEQ_clean_linker_1, # of connection points: 2
#     Edge 15, Type (0, 1), BuildingBlock: KIFKEQ_clean_linker_1, # of connection points: 2
#     Edge 16, Type (0, 1), BuildingBlock: KIFKEQ_clean_linker_1, # of connection points: 2
#     Edge 17, Type (0, 1), BuildingBlock: KIFKEQ_clean_linker_1, # of connection points: 2
#     Edge 18, Type (0, 1), BuildingBlock: KIFKEQ_clean_linker_1, # of connection points: 2
#     Edge 19, Type (0, 1), BuildingBlock: KIFKEQ_clean_linker_1, # of connection points: 2
#     Edge 20, Type (0, 1), BuildingBlock: KIFKEQ_clean_linker_1, # of connection points: 2
#     Edge 21, Type (0, 1), BuildingBlock: KIFKEQ_clean_linker_1, # of connection points: 2
#     Edge 22, Type (0, 1), BuildingBlock: KIFKEQ_clean_linker_1, # of connection points: 2
#     Edge 23, Type (0, 1), BuildingBlock: KIFKEQ_clean_linker_1, # of connection points: 2
#     Edge 24, Type (0, 1), BuildingBlock: KIFKEQ_clean_linker_1, # of connection points: 2
#     Edge 25, Type (0, 1), BuildingBlock: KIFKEQ_clean_linker_1, # of connection points: 2
#     Edge 26, Type (0, 1), BuildingBlock: KIFKEQ_clean_linker_1, # of connection points: 2
#     Edge 27, Type (0, 1), BuildingBlock: KIFKEQ_clean_linker_1, # of connection points: 2
#     Edge 28, Type (0, 1), BuildingBlock: KIFKEQ_clean_linker_1, # of connection points: 2
#     Edge 29, Type (0, 1), BuildingBlock: KIFKEQ_clean_linker_1, # of connection points: 2
#     Edge 30, Type (0, 1), BuildingBlock: KIFKEQ_clean_linker_1, # of connection points: 2
#     Edge 31, Type (0, 1), BuildingBlock: KIFKEQ_clean_linker_1, # of connection points: 2
#     Edge 32, Type (0, 1), BuildingBlock: KIFKEQ_clean_linker_1, # of connection points: 2
#     Edge 33, Type (0, 1), BuildingBlock: KIFKEQ_clean_linker_1, # of connection points: 2
#     Edge 34, Type (0, 1), BuildingBlock: KIFKEQ_clean_linker_1, # of connection points: 2
#     Edge 35, Type (0, 1), BuildingBlock: KIFKEQ_clean_linker_1, # of connection points: 2
# Relax obj value: 0.085
# Max RMSD: 0.158
# Mean RMSD: 0.148
data_MOF--net-nom--node1-QUQFOY_clean_sbu_1--node2-NAHDIM_clean_linker_0--edge1-KIFKEQ_clean_linker_1
_symmetry_space_group_name_H-M    P1
_symmetry_Int_Tables_number       1
_symmetry_cell_setting            triclinic
loop_
_symmetry_equiv_pos_as_xyz
'x, y, z'
_cell_length_a     60.605801
_cell_length_b     60.753059
_cell_length_c     67.970094
_cell_angle_alpha  90.126658
_cell_angle_beta   90.143762
_cell_angle_gamma 120.00914
loop_
_atom_site_label
_atom_site_type_symbol
_atom_site_fract_x
_atom_site_fract_y
_atom_site_fract_z
_atom_type_partial_charge
C0 C 0.16056 0.5637 0.24333 0.0
C1 C 0.17004 0.57622 0.26358 0.0
C2 C 0.12842 0.56352 0.27878 0.0
C3 C 0.12086 0.53787 0.28211 0.0
C4 C 0.09583 0.52048 0.28793 0.0
C5 C 0.07802 0.52887 0.29037 0.0
C6 C 0.08578 0.5548 0.28748 0.0
C7 C 0.11098 0.57181 0.28194 0.0
C8 C 0.0883 0.49305 0.29124 0.0
C9 C 0.0673 0.56443 0.2898 0.0
C10 C 0.97138 0.41411 0.18535 0.0
C11 C 0.96117 0.42904 0.19647 0.0
C12 C 0.96787 0.43467 0.23189 0.0
C13 C 0.97272 0.45968 0.23398 0.0
C14 C 0.98558 0.47422 0.25064 0.0
C15 C 0.99391 0.46353 0.26535 0.0
C16 C 0.98858 0.43811 0.26339 0.0
C17 C 0.97515 0.42385 0.24682 0.0
C18 C 0.99045 0.50104 0.25245 0.0
C19 C 0.99755 0.42616 0.27855 0.0
C20 C 0.8876 0.41668 0.36642 0.0
C21 C 0.89678 0.44215 0.36124 0.0
C22 C 0.92306 0.45914 0.35955 0.0
C23 C 0.94042 0.45038 0.36299 0.0
C24 C 0.93121 0.42502 0.36914 0.0
C25 C 0.90486 0.40857 0.37102 0.0
C26 C 0.93225 0.48629 0.35364 0.0
C27 C 0.94916 0.4151 0.37317 0.0
C28 C 0.1244 0.55987 0.41266 0.0
C29 C 0.10879 0.54268 0.4297 0.0
C30 C 0.06569 0.52926 0.41846 0.0
C31 C 0.05252 0.54125 0.41182 0.0
C32 C 0.03355 0.52996 0.39725 0.0
C33 C 0.02745 0.50595 0.38949 0.0
C34 C 0.03939 0.49291 0.39723 0.0
C35 C 0.05836 0.50469 0.41167 0.0
C36 C 0.02085 0.54414 0.38952 0.0
C37 C 0.03272 0.46688 0.38975 0.0
C38 C 0.05098 0.51037 0.29496 0.0
C39 C 0.03501 0.49625 0.27939 0.0
C40 C 0.00913 0.47917 0.28238 0.0
C41 C 0.99857 0.47651 0.30136 0.0
C42 C 0.9724 0.46041 0.30473 0.0
C43 C 0.96231 0.45746 0.32354 0.0
C44 C 0.97802 0.47046 0.33974 0.0
C45 C 0.96802 0.46726 0.35901 0.0
C46 C 0.98439 0.47964 0.37488 0.0
C47 C 0.01057 0.49544 0.372 0.0
C48 C 0.02074 0.49968 0.35277 0.0
C49 C 0.04688 0.51611 0.34931 0.0
C50 C 0.0568 0.51981 0.33039 0.0
C51 C 0.04104 0.50699 0.31422 0.0
C52 C 0.01468 0.4902 0.31738 0.0
C53 C 0.00444 0.48689 0.33663 0.0
C54 C 0.83211 0.37219 0.34314 0.0
C55 C 0.84432 0.39802 0.35357 0.0
O56 O 0.15209 0.58086 0.27234 0.0
O57 O 0.08561 0.54202 0.43106 0.0
O58 O 0.86228 0.39948 0.367 0.0
O59 O 0.95613 0.42046 0.21571 0.0
H60 H 0.1737 0.56357 0.27318 0.0
H61 H 0.14293 0.54498 0.24477 0.0
H62 H 0.1564 0.57597 0.23371 0.0
H63 H 0.17516 0.5605 0.23614 0.0
H64 H 0.13426 0.53123 0.2801 0.0
H65 H 0.11704 0.59166 0.2795 0.0
H66 H 0.07445 0.48101 0.27972 0.0
H67 H 0.10493 0.49004 0.29075 0.0
H68 H 0.07877 0.48656 0.30571 0.0
H69 H 0.076 0.58489 0.28606 0.0
H70 H 0.05039 0.55331 0.28021 0.0
H71 H 0.0605 0.56173 0.30523 0.0
H72 H 0.97633 0.44944 0.19597 0.0
H73 H 0.97594 0.42084 0.16991 0.0
H74 H 0.98909 0.41695 0.19255 0.0
H75 H 0.95714 0.39346 0.1853 0.0
H76 H 0.96631 0.46775 0.22267 0.0
H77 H 0.97103 0.40442 0.2451 0.0
H78 H 0.01116 0.51461 0.25092 0.0
H79 H 0.98011 0.50547 0.24103 0.0
H80 H 0.98458 0.50408 0.26721 0.0
H81 H 0.99432 0.40727 0.27375 0.0
H82 H 0.01818 0.43876 0.28161 0.0
H83 H 0.98718 0.4237 0.29253 0.0
H84 H 0.85354 0.41244 0.34174 0.0
H85 H 0.88344 0.44875 0.35847 0.0
H86 H 0.89755 0.38898 0.37536 0.0
H87 H 0.94024 0.48951 0.33856 0.0
H88 H 0.91669 0.49092 0.35381 0.0
H89 H 0.94772 0.49955 0.36369 0.0
H90 H 0.93888 0.39455 0.3769 0.0
H91 H 0.96129 0.41807 0.3601 0.0
H92 H 0.96197 0.42585 0.38561 0.0
H93 H 0.10571 0.52337 0.42671 0.0
H94 H 0.14327 0.56104 0.41185 0.0
H95 H 0.11426 0.55195 0.39851 0.0
H96 H 0.1273 0.57932 0.41455 0.0
H97 H 0.05796 0.56001 0.41743 0.0
H98 H 0.06744 0.49463 0.41748 0.0
H99 H 0.02591 0.54894 0.37381 0.0
H100 H 0.99982 0.53186 0.3903 0.0
H101 H 0.02662 0.56198 0.39785 0.0
H102 H 0.04202 0.45831 0.39849 0.0
H103 H 0.01177 0.45397 0.39014 0.0
H104 H 0.03885 0.4683 0.3742 0.0
H105 H 0.0429 0.49847 0.26473 0.0
H106 H 0.95942 0.44989 0.29284 0.0
H107 H 0.94205 0.44467 0.32523 0.0
H108 H 0.97674 0.47656 0.38967 0.0
H109 H 0.06 0.5264 0.36119 0.0
H110 H 0.07705 0.53266 0.32862 0.0
H111 H 0.82346 0.35636 0.35387 0.0
H112 H 0.81718 0.37038 0.33265 0.0
H113 H 0.84686 0.37046 0.33472 0.0
C114 C 0.32019 0.8719 0.58164 0.0
C115 C 0.34062 0.86597 0.5744 0.0
C116 C 0.36095 0.89699 0.54874 0.0
C117 C 0.38733 0.90749 0.54751 0.0
C118 C 0.4029 0.93256 0.54097 0.0
C119 C 0.3917 0.9474 0.53583 0.0
C120 C 0.36493 0.9367 0.53712 0.0
C121 C 0.34982 0.91139 0.5432 0.0
C122 C 0.43128 0.94316 0.53955 0.0
C123 C 0.35227 0.952 0.53221 0.0
C124 C 0.50248 0.11899 0.62641 0.0
C125 C 0.48203 0.09999 0.61335 0.0
C126 C 0.47712 0.07435 0.58407 0.0
C127 C 0.45057 0.06362 0.58221 0.0
C128 C 0.43689 0.04517 0.56774 0.0
C129 C 0.44991 0.03682 0.55523 0.0
C130 C 0.47645 0.04682 0.55766 0.0
C131 C 0.48975 0.06582 0.57181 0.0
C132 C 0.4086 0.03493 0.56559 0.0
C133 C 0.49088 0.03768 0.54519 0.0
C134 C 0.48745 0.12796 0.44458 0.0
C135 C 0.46179 0.11683 0.45022 0.0
C136 C 0.44747 0.0908 0.45454 0.0
C137 C 0.45909 0.07563 0.45337 0.0
C138 C 0.48467 0.0866 0.44706 0.0
C139 C 0.49842 0.11261 0.44251 0.0
C140 C 0.41996 0.07955 0.46056 0.0
C141 C 0.49761 0.07095 0.44556 0.0
C142 C 0.33171 0.88462 0.40189 0.0
C143 C 0.3601 0.9012 0.39744 0.0
C144 C 0.37945 0.94589 0.40598 0.0
C145 C 0.36982 0.96167 0.41128 0.0
C146 C 0.3826 0.98128 0.4251 0.0
C147 C 0.40591 0.98552 0.43329 0.0
C148 C 0.41664 0.97073 0.42683 0.0
C149 C 0.40313 0.95087 0.41335 0.0
C150 C 0.37077 0.99689 0.43142 0.0
C151 C 0.44203 0.97548 0.43454 0.0
C152 C 0.40798 0.97423 0.52946 0.0
C153 C 0.42097 0.99266 0.54397 0.0
C154 C 0.436 0.01835 0.53915 0.0
C155 C 0.43796 0.02607 0.5193 0.0
C156 C 0.45218 0.05185 0.514 0.0
C157 C 0.4545 0.05923 0.49441 0.0
C158 C 0.44247 0.04116 0.47934 0.0
C159 C 0.44469 0.04851 0.45937 0.0
C160 C 0.43273 0.03001 0.44473 0.0
C161 C 0.41822 0.00424 0.4495 0.0
C162 C 0.41544 0.99657 0.46943 0.0
C163 C 0.40059 0.97086 0.47479 0.0
C164 C 0.39825 0.96347 0.49439 0.0
C165 C 0.41039 0.98152 0.50945 0.0
C166 C 0.42537 0.00755 0.50439 0.0
C167 C 0.42777 0.0151 0.48437 0.0
C168 C 0.51398 0.1758 0.47164 0.0
C169 C 0.50145 0.17259 0.45143 0.0
O170 O 0.34609 0.87271 0.55479 0.0
O171 O 0.36544 0.92586 0.39388 0.0
O172 O 0.50213 0.15329 0.44098 0.0
O173 O 0.49126 0.09306 0.59726 0.0
H174 H 0.35822 0.87711 0.58341 0.0
H175 H 0.32748 0.89268 0.58106 0.0
H176 H 0.30279 0.86199 0.57233 0.0
H177 H 0.31504 0.86584 0.59716 0.0
H178 H 0.39564 0.89597 0.55163 0.0
H179 H 0.3293 0.90285 0.54395 0.0
H180 H 0.44112 0.95834 0.55077 0.0
H181 H 0.43666 0.92836 0.54195 0.0
H182 H 0.43822 0.95186 0.52487 0.0
H183 H 0.33182 0.94199 0.53638 0.0
H184 H 0.36213 0.97068 0.53988 0.0
H185 H 0.35363 0.95572 0.51616 0.0
H186 H 0.46695 0.10465 0.6095 0.0
H187 H 0.50044 0.1364 0.62564 0.0
H188 H 0.49771 0.09904 0.65252 0.0
H189 H 0.52068 0.12763 0.61766 0.0
H190 H 0.44045 0.06987 0.59168 0.0
H191 H 0.51017 0.07402 0.57347 0.0
H192 H 0.40386 0.03667 0.55009 0.0
H193 H 0.39816 0.01443 0.5694 0.0
H194 H 0.40172 0.045 0.57525 0.0
H195 H 0.51015 0.04381 0.55127 0.0
H196 H 0.48018 0.01662 0.54399 0.0
H197 H 0.49315 0.0455 0.53012 0.0
H198 H 0.48144 0.16791 0.45372 0.0
H199 H 0.45265 0.12818 0.45107 0.0
H200 H 0.51811 0.12127 0.43788 0.0
H201 H 0.41781 0.07353 0.47618 0.0
H202 H 0.41301 0.09326 0.45893 0.0
H203 H 0.4077 0.06238 0.45156 0.0
H204 H 0.51785 0.08248 0.44102 0.0
H205 H 0.4968 0.06202 0.45999 0.0
H206 H 0.48736 0.05539 0.43469 0.0
H207 H 0.37065 0.90051 0.41067 0.0
H208 H 0.32696 0.86476 0.40492 0.0
H209 H 0.32679 0.89209 0.41509 0.0
H210 H 0.31997 0.88463 0.3893 0.0
H211 H 0.35171 0.95787 0.40517 0.0
H212 H 0.41095 0.93913 0.40862 0.0
H213 H 0.36829 0.99585 0.44764 0.0
H214 H 0.38367 0.01713 0.42758 0.0
H215 H 0.35197 0.9904 0.42432 0.0
H216 H 0.44958 0.96524 0.42579 0.0
H217 H 0.45617 0.99613 0.43439 0.0
H218 H 0.43986 0.96894 0.45001 0.0
H219 H 0.41934 0.98692 0.55925 0.0
H220 H 0.46176 0.06667 0.52493 0.0
H221 H 0.46589 0.07933 0.49125 0.0
H222 H 0.4346 0.03575 0.42944 0.0
H223 H 0.39061 0.95608 0.4639 0.0
H224 H 0.38677 0.94339 0.49759 0.0
H225 H 0.53398 0.18003 0.47003 0.0
H226 H 0.51388 0.1915 0.47998 0.0
H227 H 0.50328 0.15806 0.48029 0.0
C228 C 0.60901 0.46023 0.7486 0.0
C229 C 0.61045 0.45148 0.72767 0.0
C230 C 0.58308 0.46515 0.71092 0.0
C231 C 0.60029 0.49147 0.71119 0.0
C232 C 0.59228 0.50876 0.70592 0.0
C233 C 0.56663 0.49954 0.70028 0.0
C234 C 0.54947 0.47301 0.69955 0.0
C235 C 0.55804 0.45621 0.7047 0.0
C236 C 0.61115 0.5369 0.70649 0.0
C237 C 0.52194 0.46235 0.69363 0.0
C238 C 0.46741 0.56537 0.79763 0.0
C239 C 0.47472 0.55226 0.78269 0.0
C240 C 0.50762 0.5607 0.75851 0.0
C241 C 0.49338 0.53712 0.74888 0.0
C242 C 0.50325 0.53081 0.7326 0.0
C243 C 0.52796 0.54831 0.72581 0.0
C244 C 0.54249 0.57194 0.73551 0.0
C245 C 0.53205 0.57787 0.75173 0.0
C246 C 0.48724 0.50534 0.72267 0.0
C247 C 0.56897 0.59089 0.72868 0.0
C248 C 0.4794 0.60066 0.6158 0.0
C249 C 0.46572 0.57553 0.62227 0.0
C250 C 0.47835 0.5622 0.62723 0.0
C251 C 0.50527 0.57458 0.62592 0.0
C252 C 0.51909 0.60013 0.61948 0.0
C253 C 0.5059 0.61278 0.61425 0.0
C254 C 0.4629 0.53481 0.63356 0.0
C255 C 0.54775 0.61397 0.61792 0.0
C256 C 0.59858 0.48323 0.57803 0.0
C257 C 0.59607 0.49673 0.55985 0.0
C258 C 0.56402 0.50652 0.57197 0.0
C259 C 0.53862 0.4934 0.57801 0.0
C260 C 0.52971 0.50358 0.59245 0.0
C261 C 0.5466 0.52773 0.60063 0.0
C262 C 0.5718 0.54191 0.59351 0.0
C263 C 0.5803 0.53113 0.5793 0.0
C264 C 0.50263 0.48811 0.59958 0.0
C265 C 0.59 0.56811 0.60144 0.0
C266 C 0.55735 0.51748 0.6958 0.0
C267 C 0.54988 0.52702 0.71158 0.0
C268 C 0.5383 0.54167 0.70846 0.0
C269 C 0.53428 0.54735 0.68907 0.0
C270 C 0.52243 0.5618 0.6854 0.0
C271 C 0.5177 0.56648 0.66625 0.0
C272 C 0.5244 0.55666 0.65003 0.0
C273 C 0.5189 0.56053 0.6305 0.0
C274 C 0.52619 0.55077 0.61474 0.0
C275 C 0.53879 0.53712 0.61791 0.0
C276 C 0.54411 0.53272 0.63731 0.0
C277 C 0.5564 0.51867 0.64098 0.0
C278 C 0.56113 0.51401 0.66011 0.0
C279 C 0.55368 0.52312 0.67631 0.0
C280 C 0.54184 0.53787 0.67294 0.0
C281 C 0.53687 0.54252 0.65341 0.0
C282 C 0.48093 0.65387 0.62398 0.0
C283 C 0.45989 0.62596 0.62295 0.0
O284 O 0.58952 0.44765 0.71663 0.0
O285 O 0.57222 0.49471 0.55941 0.0
O286 O 0.46694 0.61286 0.61009 0.0
O287 O 0.49838 0.56748 0.77421 0.0
H288 H 0.62824 0.46604 0.72042 0.0
H289 H 0.60972 0.47882 0.74837 0.0
H290 H 0.59101 0.44611 0.75583 0.0
H291 H 0.6254 0.46256 0.75757 0.0
H292 H 0.6199 0.49864 0.71555 0.0
H293 H 0.54499 0.43587 0.70435 0.0
H294 H 0.60549 0.54602 0.71806 0.0
H295 H 0.63086 0.541 0.70963 0.0
H296 H 0.61099 0.54566 0.69221 0.0
H297 H 0.51061 0.44138 0.69533 0.0
H298 H 0.5131 0.47111 0.70266 0.0
H299 H 0.52087 0.46706 0.67802 0.0
H300 H 0.47184 0.53339 0.78736 0.0
H301 H 0.46639 0.55559 0.81193 0.0
H302 H 0.48537 0.5835 0.80166 0.0
H303 H 0.43566 0.56494 0.78498 0.0
H304 H 0.47446 0.52351 0.75392 0.0
H305 H 0.54295 0.59599 0.75921 0.0
H306 H 0.48557 0.50798 0.70669 0.0
H307 H 0.4967 0.49383 0.72431 0.0
H308 H 0.46779 0.49452 0.72898 0.0
H309 H 0.57813 0.60814 0.73815 0.0
H310 H 0.58106 0.58192 0.72863 0.0
H311 H 0.56811 0.59669 0.71335 0.0
H312 H 0.45716 0.61766 0.63799 0.0
H313 H 0.44514 0.56631 0.62313 0.0
H314 H 0.51619 0.63215 0.60893 0.0
H315 H 0.46725 0.53309 0.64916 0.0
H316 H 0.44207 0.52732 0.63211 0.0
H317 H 0.46811 0.52279 0.62461 0.0
H318 H 0.55582 0.63455 0.61489 0.0
H319 H 0.55627 0.61181 0.63175 0.0
H320 H 0.55338 0.6055 0.60582 0.0
H321 H 0.61121 0.51702 0.56054 0.0
H322 H 0.61735 0.48414 0.5781 0.0
H323 H 0.59723 0.49264 0.59164 0.0
H324 H 0.58319 0.46299 0.57825 0.0
H325 H 0.52608 0.47461 0.57203 0.0
H326 H 0.59968 0.54203 0.57411 0.0
H327 H 0.50265 0.48358 0.6154 0.0
H328 H 0.49284 0.49935 0.59823 0.0
H329 H 0.49161 0.47005 0.59123 0.0
H330 H 0.60799 0.57778 0.5929 0.0
H331 H 0.58089 0.58007 0.60118 0.0
H332 H 0.59473 0.56662 0.61699 0.0
H333 H 0.55215 0.52209 0.7265 0.0
H334 H 0.51658 0.56958 0.69731 0.0
H335 H 0.5085 0.57769 0.66432 0.0
H336 H 0.52205 0.55387 0.59979 0.0
H337 H 0.56235 0.51091 0.62913 0.0
H338 H 0.57054 0.50299 0.66204 0.0
H339 H 0.48469 0.66262 0.60913 0.0
H340 H 0.47536 0.66469 0.63404 0.0
H341 H 0.49878 0.65534 0.62975 0.0
C342 C 0.16624 0.45438 0.91303 0.0
C343 C 0.16794 0.48005 0.90925 0.0
C344 C 0.13551 0.47184 0.88496 0.0
C345 C 0.12613 0.48857 0.88317 0.0
C346 C 0.10092 0.47977 0.87705 0.0
C347 C 0.08485 0.45362 0.87275 0.0
C348 C 0.09441 0.43669 0.87452 0.0
C349 C 0.11985 0.44613 0.8803 0.0
C350 C 0.09148 0.49842 0.8751 0.0
C351 C 0.07783 0.40867 0.87023 0.0
C352 C 0.90894 0.38803 0.95974 0.0
C353 C 0.92756 0.3872 0.94595 0.0
C354 C 0.96115 0.41454 0.92303 0.0
C355 C 0.9643 0.3949 0.91502 0.0
C356 C 0.98172 0.39978 0.89979 0.0
C357 C 0.99606 0.42469 0.89222 0.0
C358 C 0.99294 0.44448 0.90022 0.0
C359 C 0.97557 0.43913 0.9156 0.0
C360 C 0.98482 0.3783 0.89175 0.0
C361 C 0.00791 0.47124 0.89246 0.0
C362 C 0.90585 0.38423 0.77871 0.0
C363 C 0.91315 0.36762 0.78664 0.0
C364 C 0.93867 0.37635 0.79185 0.0
C365 C 0.95698 0.40244 0.78954 0.0
C366 C 0.94955 0.41915 0.78128 0.0
C367 C 0.92407 0.40969 0.77566 0.0
C368 C 0.94597 0.35773 0.79988 0.0
C369 C 0.96841 0.44706 0.77861 0.0
C370 C 0.14693 0.45777 0.73701 0.0
C371 C 0.13023 0.46975 0.7338 0.0
C372 C 0.08553 0.44514 0.74272 0.0
C373 C 0.06886 0.41982 0.74765 0.0
C374 C 0.04945 0.41347 0.76149 0.0
C375 C 0.04632 0.43297 0.77009 0.0
C376 C 0.06204 0.45848 0.76404 0.0
C377 C 0.08166 0.46432 0.75051 0.0
C378 C 0.03284 0.38605 0.7674 0.0
C379 C 0.05853 0.47963 0.77222 0.0
C380 C 0.05808 0.44402 0.86637 0.0
C381 C 0.03987 0.43897 0.88088 0.0
C382 C 0.01436 0.43002 0.87597 0.0
C383 C 0.00663 0.42592 0.856 0.0
C384 C 0.98119 0.41729 0.85052 0.0
C385 C 0.97371 0.41302 0.83086 0.0
C386 C 0.99133 0.41706 0.8159 0.0
C387 C 0.98384 0.41233 0.79587 0.0
C388 C 0.00208 0.4174 0.78135 0.0
C389 C 0.02771 0.42698 0.78625 0.0
C390 C 0.03543 0.43119 0.80622 0.0
C391 C 0.06097 0.44026 0.8117 0.0
C392 C 0.06847 0.44467 0.83134 0.0
C393 C 0.05069 0.43986 0.84633 0.0
C394 C 0.02484 0.43068 0.84115 0.0
C395 C 0.01719 0.42627 0.82108 0.0
C396 C 0.86499 0.39654 0.79423 0.0
C397 C 0.86266 0.37129 0.78767 0.0
O398 O 0.16012 0.48087 0.89021 0.0
O399 O 0.1053 0.45059 0.73055 0.0
O400 O 0.88123 0.37583 0.77385 0.0
O401 O 0.94447 0.41056 0.93781 0.0
H402 H 0.15534 0.48246 0.91991 0.0
H403 H 0.14606 0.4389 0.91284 0.0
H404 H 0.17693 0.45045 0.90161 0.0
H405 H 0.17418 0.45419 0.92774 0.0
H406 H 0.13865 0.50852 0.88651 0.0
H407 H 0.12757 0.43348 0.8811 0.0
H408 H 0.07632 0.49389 0.88611 0.0
H409 H 0.10692 0.51838 0.87741 0.0
H410 H 0.08299 0.49671 0.86028 0.0
H411 H 0.08736 0.3977 0.8742 0.0
H412 H 0.05966 0.40087 0.87848 0.0
H413 H 0.07304 0.40584 0.85432 0.0
H414 H 0.93713 0.37683 0.9516 0.0
H415 H 0.91348 0.38287 0.97451 0.0
H416 H 0.91659 0.40863 0.96366 0.0
H417 H 0.87387 0.36589 0.94558 0.0
H418 H 0.95329 0.37573 0.92059 0.0
H419 H 0.97305 0.45415 0.92184 0.0
H420 H 0.97888 0.37496 0.87605 0.0
H421 H 0.00518 0.38351 0.89242 0.0
H422 H 0.97333 0.3603 0.89995 0.0
H423 H 0.00231 0.48421 0.89954 0.0
H424 H 0.02854 0.47876 0.89512 0.0
H425 H 0.00505 0.47126 0.87632 0.0
H426 H 0.86534 0.36185 0.80077 0.0
H427 H 0.89885 0.34783 0.78864 0.0
H428 H 0.9181 0.42224 0.76933 0.0
H429 H 0.9501 0.36124 0.81585 0.0
H430 H 0.93055 0.3377 0.79782 0.0
H431 H 0.9635 0.36034 0.79259 0.0
H432 H 0.95902 0.45797 0.77411 0.0
H433 H 0.97914 0.45532 0.79249 0.0
H434 H 0.9824 0.44938 0.76712 0.0
H435 H 0.13168 0.48055 0.74749 0.0
H436 H 0.16703 0.47275 0.73972 0.0
H437 H 0.1401 0.44509 0.75003 0.0
H438 H 0.14616 0.44631 0.72398 0.0
H439 H 0.0718 0.40514 0.74124 0.0
H440 H 0.09405 0.48385 0.74607 0.0
H441 H 0.03414 0.38416 0.78355 0.0
H442 H 0.01265 0.3797 0.7638 0.0
H443 H 0.03832 0.37326 0.75985 0.0
H444 H 0.06959 0.4976 0.76388 0.0
H445 H 0.03807 0.47408 0.77191 0.0
H446 H 0.06497 0.48323 0.78779 0.0
H447 H 0.04563 0.44201 0.89624 0.0
H448 H 0.96675 0.41372 0.86139 0.0
H449 H 0.95389 0.40644 0.82754 0.0
H450 H 0.9963 0.41405 0.76601 0.0
H451 H 0.0755 0.44409 0.80086 0.0
H452 H 0.08841 0.45182 0.83463 0.0
H453 H 0.86291 0.40668 0.78141 0.0
H454 H 0.85017 0.39323 0.80527 0.0
H455 H 0.88389 0.40886 0.80118 0.0
C456 C 0.42192 0.87099 0.91216 0.0
C457 C 0.4239 0.86122 0.93253 0.0
C458 C 0.45195 0.90254 0.94855 0.0
C459 C 0.43354 0.90984 0.95145 0.0
C460 C 0.44075 0.93477 0.95724 0.0
C461 C 0.46687 0.95277 0.96004 0.0
C462 C 0.48536 0.94528 0.95758 0.0
C463 C 0.47757 0.92013 0.95213 0.0
C464 C 0.4205 0.94202 0.95999 0.0
C465 C 0.51342 0.964 0.96016 0.0
C466 C 0.47119 0.04674 0.84677 0.0
C467 C 0.49305 0.06202 0.86125 0.0
C468 C 0.48503 0.0572 0.89653 0.0
C469 C 0.50686 0.05652 0.90255 0.0
C470 C 0.50735 0.04555 0.92057 0.0
C471 C 0.48565 0.0353 0.93284 0.0
C472 C 0.46418 0.03726 0.92729 0.0
C473 C 0.46428 0.04847 0.90924 0.0
C474 C 0.53076 0.04429 0.92627 0.0
C475 C 0.44084 0.02672 0.94013 0.0
C476 C 0.54438 0.14581 0.03352 0.0
C477 C 0.56035 0.13636 0.02786 0.0
C478 C 0.55078 0.11009 0.02602 0.0
C479 C 0.5247 0.09299 0.02984 0.0
C480 C 0.50885 0.10246 0.03632 0.0
C481 C 0.51902 0.12881 0.03829 0.0
C482 C 0.56843 0.10061 0.01972 0.0
C483 C 0.48104 0.08477 0.04068 0.0
C484 C 0.50523 0.92803 0.08982 0.0
C485 C 0.48428 0.9329 0.09742 0.0
C486 C 0.49672 0.97569 0.08823 0.0
C487 C 0.52052 0.99225 0.08016 0.0
C488 C 0.52288 0.00867 0.06479 0.0
C489 C 0.50092 0.00882 0.0578 0.0
C490 C 0.47703 0.99311 0.06683 0.0
C491 C 0.47517 0.97644 0.08184 0.0
C492 C 0.54864 0.02519 0.05558 0.0
C493 C 0.45338 0.99338 0.06024 0.0
C494 C 0.47497 0.97982 0.96414 0.0
C495 C 0.47648 0.99496 0.9482 0.0
C496 C 0.48465 0.02076 0.95064 0.0
C497 C 0.49176 0.03201 0.96951 0.0
C498 C 0.50047 0.058 0.97243 0.0
C499 C 0.50764 0.06894 0.99106 0.0
C500 C 0.50633 0.05428 0.00749 0.0
C501 C 0.5139 0.06529 0.02645 0.0
C502 C 0.51174 0.05002 0.04254 0.0
C503 C 0.5026 0.02399 0.04018 0.0
C504 C 0.49555 0.01277 0.02126 0.0
C505 C 0.48694 0.98677 0.01827 0.0
C506 C 0.47998 0.97588 -0.00037 0.0
C507 C 0.4816 0.9906 0.98321 0.0
C508 C 0.49017 0.01684 0.98587 0.0
C509 C 0.4973 0.02796 0.0049 0.0
C510 C 0.55763 0.20331 0.01213 0.0
C511 C 0.56999 0.1893 0.02165 0.0
O512 O 0.44602 0.87899 0.94206 0.0
O513 O 0.49458 0.95849 0.10179 0.0
O514 O 0.55279 0.17114 0.03449 0.0
O515 O 0.48324 0.06581 0.87851 0.0
H516 H 0.40706 0.85742 0.94152 0.0
H517 H 0.42066 0.88853 0.91352 0.0
H518 H 0.4389 0.87533 0.90316 0.0
H519 H 0.40452 0.85652 0.90435 0.0
H520 H 0.41357 0.89633 0.94909 0.0
H521 H 0.49161 0.91427 0.95 0.0
H522 H 0.42199 0.95511 0.94804 0.0
H523 H 0.40098 0.92521 0.95971 0.0
H524 H 0.42343 0.95224 0.97418 0.0
H525 H 0.52546 0.95552 0.95655 0.0
H526 H 0.5191 0.98079 0.9506 0.0
H527 H 0.51731 0.97085 0.97562 0.0
H528 H 0.50198 0.0501 0.86387 0.0
H529 H 0.47877 0.04441 0.83252 0.0
H530 H 0.45832 0.02755 0.85288 0.0
H531 H 0.45979 0.05616 0.84412 0.0
H532 H 0.52344 0.06435 0.89312 0.0
H533 H 0.44771 0.04951 0.90459 0.0
H534 H 0.52607 0.02413 0.92658 0.0
H535 H 0.54676 0.05485 0.91587 0.0
H536 H 0.5371 0.05223 0.94129 0.0
H537 H 0.426 0.03045 0.93402 0.0
H538 H 0.43258 0.00587 0.94172 0.0
H539 H 0.4462 0.03525 0.95507 0.0
H540 H 0.57448 0.18015 0.00926 0.0
H541 H 0.58028 0.14946 0.02492 0.0
H542 H 0.50697 0.1363 0.04295 0.0
H543 H 0.56268 0.09172 0.00492 0.0
H544 H 0.58862 0.11612 0.01909 0.0
H545 H 0.56694 0.08579 0.03005 0.0
H546 H 0.47109 0.09518 0.04507 0.0
H547 H 0.47139 0.07299 0.02749 0.0
H548 H 0.47919 0.07165 0.05273 0.0
H549 H 0.46953 0.92722 0.08565 0.0
H550 H 0.49727 0.90753 0.08643 0.0
H551 H 0.51352 0.93895 0.0761 0.0
H552 H 0.52068 0.93402 0.10095 0.0
H553 H 0.53705 0.99154 0.08542 0.0
H554 H 0.45689 0.9637 0.08845 0.0
H555 H 0.54759 0.02133 0.03953 0.0
H556 H 0.55435 0.04551 0.05752 0.0
H557 H 0.56361 0.02201 0.06216 0.0
H558 H 0.43735 0.98316 0.07067 0.0
H559 H 0.4574 0.01325 0.05871 0.0
H560 H 0.44734 0.98409 0.0456 0.0
H561 H 0.47134 0.98656 0.93361 0.0
H562 H 0.50193 0.0702 0.96031 0.0
H563 H 0.51422 0.08905 0.99241 0.0
H564 H 0.51743 0.05855 0.05705 0.0
H565 H 0.48549 0.97449 0.03031 0.0
H566 H 0.47338 0.95577 0.99824 0.0
H567 H 0.57129 0.21833 0.00207 0.0
H568 H 0.54072 0.18968 0.00339 0.0
H569 H 0.55128 0.21214 0.02344 0.0
C570 C 0.6805 0.53869 0.0643 0.0
C571 C 0.67484 0.52244 0.08282 0.0
C572 C 0.6675 0.54764 0.10703 0.0
C573 C 0.64126 0.53246 0.11041 0.0
C574 C 0.62702 0.54316 0.11764 0.0
C575 C 0.63927 0.56961 0.12144 0.0
C576 C 0.66588 0.58483 0.11855 0.0
C577 C 0.67973 0.57351 0.11167 0.0
C578 C 0.59881 0.52626 0.12104 0.0
C579 C 0.67957 0.61312 0.12229 0.0
C580 C 0.53489 0.62593 0.02366 0.0
C581 C 0.5537 0.6239 0.0365 0.0
C582 C 0.55731 0.61061 0.06959 0.0
C583 C 0.58391 0.62573 0.07141 0.0
C584 C 0.59692 0.62222 0.0871 0.0
C585 C 0.58316 0.6026 0.10086 0.0
C586 C 0.55643 0.58689 0.09872 0.0
C587 C 0.54381 0.59162 0.08341 0.0
C588 C 0.62537 0.63956 0.08895 0.0
C589 C 0.5411 0.56496 0.11245 0.0
C590 C 0.54671 0.66031 0.21074 0.0
C591 C 0.57207 0.67416 0.20415 0.0
C592 C 0.58609 0.662 0.20017 0.0
C593 C 0.5744 0.63533 0.20232 0.0
C594 C 0.5491 0.62139 0.20935 0.0
C595 C 0.53572 0.63415 0.21372 0.0
C596 C 0.61337 0.67765 0.19343 0.0
C597 C 0.53602 0.59294 0.21185 0.0
C598 C 0.69795 0.56618 0.25238 0.0
C599 C 0.66976 0.55531 0.25726 0.0
C600 C 0.65162 0.58206 0.25003 0.0
C601 C 0.66194 0.6076 0.24499 0.0
C602 C 0.64946 0.61517 0.2315 0.0
C603 C 0.62579 0.59671 0.22337 0.0
C604 C 0.61433 0.57115 0.22972 0.0
C605 C 0.62751 0.56404 0.24288 0.0
C606 C 0.66205 0.64264 0.2253 0.0
C607 C 0.5886 0.55117 0.22204 0.0
C608 C 0.62405 0.58149 0.12753 0.0
C609 C 0.61127 0.58683 0.11283 0.0
C610 C 0.59677 0.59825 0.11727 0.0
C611 C 0.59505 0.60477 0.13698 0.0
C612 C 0.5813 0.61699 0.14195 0.0
C613 C 0.57897 0.62252 0.16144 0.0
C614 C 0.59067 0.61646 0.17674 0.0
C615 C 0.58842 0.62203 0.19663 0.0
C616 C 0.60001 0.61539 0.21148 0.0
C617 C 0.61416 0.6036 0.207 0.0
C618 C 0.61705 0.59837 0.18717 0.0
C619 C 0.63166 0.58706 0.1821 0.0
C620 C 0.63397 0.5815 0.16261 0.0
C621 C 0.62195 0.58722 0.14738 0.0
C622 C 0.60738 0.59888 0.15211 0.0
C623 C 0.60504 0.60459 0.17202 0.0
C624 C 0.52752 0.68914 0.18426 0.0
C625 C 0.53543 0.69357 0.206 0.0
O626 O 0.68149 0.53786 0.09941 0.0
O627 O 0.66545 0.57519 0.26153 0.0
O628 O 0.53223 0.67129 0.21429 0.0
O629 O 0.54405 0.61385 0.05485 0.0
H630 H 0.65414 0.50825 0.08295 0.0
H631 H 0.66901 0.54831 0.0643 0.0
H632 H 0.70101 0.55343 0.06372 0.0
H633 H 0.67547 0.5266 0.05089 0.0
H634 H 0.63189 0.51222 0.10761 0.0
H635 H 0.70006 0.58499 0.10923 0.0
H636 H 0.58805 0.53111 0.11034 0.0
H637 H 0.59264 0.50579 0.11934 0.0
H638 H 0.59375 0.52952 0.13603 0.0
H639 H 0.70007 0.62247 0.11835 0.0
H640 H 0.67047 0.62195 0.11364 0.0
H641 H 0.67802 0.61682 0.13807 0.0
H642 H 0.56405 0.61504 0.02953 0.0
H643 H 0.5512 0.66525 0.0193 0.0
H644 H 0.53113 0.6122 0.01123 0.0
H645 H 0.51559 0.61398 0.03058 0.0
H646 H 0.59457 0.64058 0.06084 0.0
H647 H 0.52331 0.58001 0.08184 0.0
H648 H 0.63516 0.62881 0.08517 0.0
H649 H 0.63253 0.65622 0.07901 0.0
H650 H 0.63061 0.64648 0.10433 0.0
H651 H 0.52198 0.55151 0.10629 0.0
H652 H 0.55124 0.55435 0.11556 0.0
H653 H 0.53839 0.57236 0.12662 0.0
H654 H 0.55571 0.70874 0.20707 0.0
H655 H 0.58127 0.69448 0.20215 0.0
H656 H 0.51627 0.6236 0.21896 0.0
H657 H 0.61468 0.67349 0.17771 0.0
H658 H 0.62076 0.69839 0.19504 0.0
H659 H 0.62582 0.67257 0.20197 0.0
H660 H 0.51582 0.58466 0.21638 0.0
H661 H 0.53671 0.58387 0.19783 0.0
H662 H 0.54625 0.58824 0.22316 0.0
H663 H 0.65875 0.54463 0.24397 0.0
H664 H 0.70186 0.55059 0.24885 0.0
H665 H 0.70301 0.57882 0.23937 0.0
H666 H 0.71019 0.57743 0.26495 0.0
H667 H 0.68038 0.62139 0.25094 0.0
H668 H 0.61918 0.5444 0.24743 0.0
H669 H 0.66503 0.64405 0.20913 0.0
H670 H 0.64942 0.65045 0.22881 0.0
H671 H 0.68072 0.65454 0.23271 0.0
H672 H 0.5805 0.5334 0.23079 0.0
H673 H 0.57504 0.55843 0.22223 0.0
H674 H 0.5905 0.54652 0.20656 0.0
H675 H 0.61256 0.58193 0.09767 0.0
H676 H 0.57204 0.62231 0.13081 0.0
H677 H 0.56782 0.63159 0.16436 0.0
H678 H 0.59809 0.61955 0.22671 0.0
H679 H 0.64146 0.58229 0.19315 0.0
H680 H 0.64527 0.5726 0.15963 0.0
H681 H 0.52968 0.70681 0.17762 0.0
H682 H 0.53979 0.68364 0.17596 0.0
H683 H 0.50737 0.67371 0.1827 0.0
O684 O 0.61131 0.41136 0.42437 0.0
Cd685 Cd 0.61472 0.39515 0.39872 0.0
Cd686 Cd 0.66441 0.42451 0.40611 0.0
O687 O 0.65171 0.42908 0.43311 0.0
O688 O 0.58264 0.362 0.3956 0.0
O689 O 0.62018 0.36536 0.40151 0.0
C690 C 0.59584 0.35109 0.39915 0.0
C691 C 0.69876 0.41734 0.40393 0.0
C692 C 0.62896 0.42354 0.43688 0.0
C693 C 0.64262 0.43684 0.37049 0.0
O694 O 0.66102 0.44397 0.38256 0.0
O695 O 0.62199 0.41603 0.3732 0.0
O696 O 0.70195 0.43928 0.40875 0.0
O697 O 0.67573 0.39898 0.40112 0.0
O698 O 0.22676 0.58179 0.60688 0.0
Cd699 Cd 0.24952 0.60304 0.58387 0.0
Cd700 Cd 0.23012 0.63253 0.59322 0.0
O701 O 0.21743 0.61018 0.61816 0.0
O702 O 0.27376 0.59028 0.57946 0.0
O703 O 0.28582 0.62908 0.59024 0.0
C704 C 0.29169 0.61198 0.58574 0.0
C705 C 0.25589 0.67654 0.59437 0.0
C706 C 0.21647 0.58887 0.61981 0.0
C707 C 0.21471 0.60637 0.55431 0.0
O708 O 0.2095 0.61777 0.56763 0.0
O709 O 0.23199 0.60066 0.55718 0.0
O710 O 0.23199 0.6657 0.59869 0.0
O711 O 0.2654 0.66226 0.59012 0.0
O712 O 0.62118 0.20735 0.76452 0.0
Cd713 Cd 0.63809 0.22857 0.73988 0.0
Cd714 Cd 0.60466 0.24437 0.74481 0.0
O715 O 0.59803 0.22513 0.77123 0.0
O716 O 0.67366 0.23488 0.73834 0.0
O717 O 0.66413 0.26516 0.74388 0.0
C718 C 0.68118 0.25843 0.74219 0.0
C719 C 0.60886 0.2848 0.74417 0.0
C720 C 0.60561 0.20964 0.77563 0.0
C721 C 0.59778 0.21133 0.70941 0.0
O722 O 0.58867 0.22211 0.72005 0.0
O723 O 0.61895 0.213 0.71389 0.0
O724 O 0.58723 0.26472 0.74747 0.0
O725 O 0.62845 0.28205 0.74158 0.0
O726 O 0.45336 0.66042 0.93588 0.0
Cd727 Cd 0.4342 0.66319 0.91178 0.0
Cd728 Cd 0.39957 0.61467 0.9217 0.0
O729 O 0.42486 0.62123 0.94441 0.0
O730 O 0.4495 0.70018 0.90654 0.0
O731 O 0.40967 0.67581 0.91641 0.0
C732 C 0.42808 0.69809 0.91172 0.0
C733 C 0.35591 0.5963 0.9269 0.0
C734 C 0.44603 0.64147 0.94723 0.0
C735 C 0.42379 0.62273 0.88189 0.0
O736 O 0.40881 0.60705 0.89453 0.0
O737 O 0.43577 0.64645 0.88559 0.0
O738 O 0.36736 0.58337 0.92887 0.0
O739 O 0.36952 0.6202 0.92287 0.0
O740 O 0.80028 0.36546 0.04847 0.0
Cd741 Cd 0.78058 0.3615 0.07407 0.0
Cd742 Cd 0.80084 0.41201 0.06886 0.0
O743 O 0.81441 0.40601 0.04264 0.0
O744 O 0.75729 0.32404 0.07583 0.0
O745 O 0.74348 0.35127 0.07216 0.0
C746 C 0.73848 0.32799 0.07328 0.0
C747 C 0.77608 0.43148 0.06959 0.0
C748 C 0.81243 0.38491 0.03767 0.0
C749 C 0.81752 0.39533 0.10482 0.0
O750 O 0.82047 0.41382 0.09421 0.0
O751 O 0.8015 0.37259 0.09989 0.0
O752 O 0.80041 0.44453 0.06698 0.0
O753 O 0.76569 0.4071 0.07131 0.0
O754 O 0.42496 0.82034 0.22983 0.0
Cd755 Cd 0.41568 0.79765 0.25443 0.0
Cd756 Cd 0.36849 0.78418 0.24311 0.0
O757 O 0.38607 0.80368 0.21774 0.0
O758 O 0.44641 0.79485 0.26029 0.0
O759 O 0.40972 0.76226 0.25043 0.0
C760 C 0.4334 0.77129 0.25506 0.0
C761 C 0.33371 0.743 0.24228 0.0
C762 C 0.40991 0.81879 0.21614 0.0
C763 C 0.38696 0.81319 0.28105 0.0
O764 O 0.37035 0.80537 0.26739 0.0
O765 O 0.40623 0.81019 0.27964 0.0
O766 O 0.33156 0.76222 0.23699 0.0
O767 O 0.35601 0.74706 0.24735 0.0
H768 H 0.21827 0.58334 0.26175 0.0
H769 H 0.17767 0.62477 0.25846 0.0
H770 H 0.25823 0.62245 0.2552 0.0
H771 H 0.21751 0.66398 0.25309 0.0
H772 H 0.28748 0.72637 0.2249 0.0
H773 H 0.2487 0.68576 0.22942 0.0
H774 H 0.28911 0.66184 0.26849 0.0
H775 H 0.32823 0.70211 0.26311 0.0
C776 C 0.21802 0.60093 0.26002 0.0
C777 C 0.19491 0.60102 0.26107 0.0
C778 C 0.2409 0.62338 0.25632 0.0
C779 C 0.24124 0.64651 0.25361 0.0
C780 C 0.21806 0.64654 0.25475 0.0
C781 C 0.19518 0.62406 0.25816 0.0
C782 C 0.28813 0.71231 0.23428 0.0
C783 C 0.31088 0.71745 0.24368 0.0
C784 C 0.26581 0.68907 0.23705 0.0
C785 C 0.26554 0.67053 0.24958 0.0
C786 C 0.28855 0.67547 0.25858 0.0
C787 C 0.31101 0.69861 0.25555 0.0
H788 H 0.48776 0.20895 0.44815 0.0
H789 H 0.54647 0.19267 0.43046 0.0
H790 H 0.51084 0.25047 0.43268 0.0
H791 H 0.56949 0.23421 0.41443 0.0
H792 H 0.61639 0.32324 0.4137 0.0
H793 H 0.5935 0.27877 0.42375 0.0
H794 H 0.52333 0.27154 0.40146 0.0
H795 H 0.54605 0.31609 0.39193 0.0
C796 C 0.50538 0.21409 0.44056 0.0
C797 C 0.51504 0.19736 0.44018 0.0
C798 C 0.51859 0.23785 0.4316 0.0
C799 C 0.54193 0.24562 0.42211 0.0
C800 C 0.55161 0.22886 0.42166 0.0
C801 C 0.53835 0.205 0.43067 0.0
C802 C 0.59615 0.31203 0.41065 0.0
C803 C 0.58298 0.32327 0.40223 0.0
C804 C 0.58303 0.28649 0.41636 0.0
C805 C 0.55649 0.27165 0.41368 0.0
C806 C 0.54366 0.28256 0.40416 0.0
C807 C 0.55673 0.30808 0.39857 0.0
H808 H 0.44025 0.62035 0.58515 0.0
H809 H 0.42439 0.62887 0.64572 0.0
H810 H 0.40065 0.61854 0.57499 0.0
H811 H 0.38496 0.62745 0.63549 0.0
H812 H 0.33031 0.6499 0.60714 0.0
H813 H 0.37163 0.65421 0.6153 0.0
H814 H 0.35307 0.58797 0.58001 0.0
H815 H 0.31173 0.5835 0.57193 0.0
C816 C 0.42819 0.62157 0.59632 0.0
C817 C 0.43508 0.62406 0.61633 0.0
C818 C 0.40558 0.62063 0.59048 0.0
C819 C 0.38972 0.62281 0.60445 0.0
C820 C 0.39689 0.62588 0.62439 0.0
C821 C 0.4193 0.62646 0.63025 0.0
C822 C 0.33518 0.63645 0.60093 0.0
C823 C 0.31774 0.61631 0.58894 0.0
C824 C 0.35874 0.63882 0.60572 0.0
C825 C 0.36548 0.62133 0.59838 0.0
C826 C 0.34844 0.60179 0.58579 0.0
C827 C 0.32475 0.5992 0.58122 0.0
H828 H 0.84674 0.36038 0.74849 0.0
H829 H 0.81868 0.34385 0.80813 0.0
H830 H 0.80327 0.33371 0.73607 0.0
H831 H 0.77516 0.31798 0.79558 0.0
H832 H 0.70115 0.30278 0.76291 0.0
H833 H 0.74557 0.33022 0.77292 0.0
H834 H 0.7671 0.28282 0.74047 0.0
H835 H 0.72251 0.25486 0.73081 0.0
C836 C 0.83139 0.35092 0.75896 0.0
C837 C 0.83621 0.3539 0.77937 0.0
C838 C 0.80654 0.33575 0.75181 0.0
C839 C 0.786 0.32396 0.76489 0.0
C840 C 0.79073 0.32704 0.78522 0.0
C841 C 0.81557 0.34169 0.79237 0.0
C842 C 0.71538 0.29839 0.75769 0.0
C843 C 0.70837 0.27665 0.74612 0.0
C844 C 0.74073 0.31399 0.76351 0.0
C845 C 0.75959 0.30848 0.75751 0.0
C846 C 0.75284 0.28743 0.74522 0.0
C847 C 0.72738 0.27148 0.73975 0.0
H848 H 0.38291 0.81315 0.92949 0.0
H849 H 0.46515 0.85368 0.92881 0.0
H850 H 0.38245 0.77334 0.92315 0.0
H851 H 0.46485 0.81397 0.92362 0.0
H852 H 0.39197 0.70347 0.9318 0.0
H853 H 0.39056 0.74249 0.93707 0.0
H854 H 0.45642 0.78308 0.89967 0.0
H855 H 0.45844 0.74441 0.89524 0.0
C856 C 0.40087 0.81342 0.92837 0.0
C857 C 0.42401 0.83646 0.93011 0.0
C858 C 0.40064 0.79062 0.9248 0.0
C859 C 0.42361 0.79031 0.92289 0.0
C860 C 0.44676 0.81342 0.92468 0.0
C861 C 0.44696 0.83622 0.92797 0.0
C862 C 0.406 0.72072 0.9246 0.0
C863 C 0.42541 0.72093 0.91322 0.0
C864 C 0.40517 0.74311 0.92756 0.0
C865 C 0.42356 0.76612 0.91899 0.0
C866 C 0.44235 0.76595 0.90696 0.0
C867 C 0.44338 0.7437 0.90425 0.0
H868 H 0.65874 0.47466 0.06856 0.0
H869 H 0.72447 0.53898 0.09454 0.0
H870 H 0.68283 0.45257 0.06509 0.0
H871 H 0.74841 0.51662 0.09175 0.0
H872 H 0.79208 0.48171 0.06381 0.0
H873 H 0.76754 0.50322 0.06736 0.0
H874 H 0.70126 0.43203 0.08331 0.0
H875 H 0.72568 0.41037 0.07916 0.0
C876 C 0.67822 0.48384 0.07388 0.0
C877 C 0.68952 0.50829 0.08223 0.0
C878 C 0.69203 0.47118 0.07194 0.0
C879 C 0.71756 0.48272 0.07822 0.0
C880 C 0.72887 0.50723 0.08658 0.0
C881 C 0.71508 0.51995 0.08842 0.0
C882 C 0.77223 0.47061 0.06799 0.0
C883 C 0.76082 0.4443 0.07117 0.0
C884 C 0.7582 0.483 0.07019 0.0
C885 C 0.73243 0.46943 0.07574 0.0
C886 C 0.72098 0.44305 0.07879 0.0
C887 C 0.735 0.43063 0.07649 0.0
H888 H 0.31996 0.82652 0.54688 0.0
H889 H 0.33931 0.84187 0.60854 0.0
H890 H 0.30251 0.78114 0.55278 0.0
H891 H 0.32087 0.79622 0.61446 0.0
H892 H 0.24806 0.71156 0.61343 0.0
H893 H 0.27136 0.75774 0.60904 0.0
H894 H 0.32102 0.75079 0.56727 0.0
H895 H 0.29824 0.7046 0.57207 0.0
C896 C 0.32087 0.82032 0.56163 0.0
C897 C 0.33144 0.83791 0.57723 0.0
C898 C 0.31083 0.79432 0.56498 0.0
C899 C 0.31048 0.78532 0.58404 0.0
C900 C 0.32099 0.80277 0.59963 0.0
C901 C 0.33157 0.82881 0.59622 0.0
C902 C 0.26418 0.71993 0.60353 0.0
C903 C 0.27139 0.70453 0.59312 0.0
C904 C 0.27751 0.7463 0.60107 0.0
C905 C 0.29788 0.75768 0.5878 0.0
C906 C 0.30533 0.74238 0.57756 0.0
C907 C 0.2924 0.71604 0.58039 0.0
H908 H 0.65184 0.4452 0.7328 0.0
H909 H 0.57 0.40211 0.72646 0.0
H910 H 0.65267 0.40577 0.73764 0.0
H911 H 0.57084 0.36284 0.73008 0.0
H912 H 0.575 0.29818 0.75771 0.0
H913 H 0.57641 0.33861 0.75394 0.0
H914 H 0.64764 0.36841 0.72256 0.0
H915 H 0.64673 0.32812 0.72726 0.0
C916 C 0.63411 0.42725 0.73202 0.0
C917 C 0.61097 0.4268 0.72884 0.0
C918 C 0.63455 0.40463 0.73473 0.0
C919 C 0.61182 0.38099 0.7343 0.0
C920 C 0.58871 0.38062 0.73089 0.0
C921 C 0.58825 0.40319 0.72848 0.0
C922 C 0.59105 0.31343 0.75012 0.0
C923 C 0.61071 0.30995 0.74273 0.0
C924 C 0.59177 0.3366 0.74779 0.0
C925 C 0.61196 0.3568 0.73767 0.0
C926 C 0.63191 0.35343 0.73059 0.0
C927 C 0.63136 0.3303 0.73321 0.0
H928 H 0.19128 0.50057 0.94432 0.0
H929 H 0.20627 0.50659 0.88188 0.0
H930 H 0.2362 0.53161 0.95066 0.0
H931 H 0.25079 0.53812 0.88825 0.0
H932 H 0.32472 0.61003 0.90822 0.0
H933 H 0.27825 0.58455 0.90479 0.0
H934 H 0.2774 0.5277 0.94322 0.0
H935 H 0.32379 0.55273 0.94627 0.0
C936 C 0.20404 0.50894 0.93197 0.0
C937 C 0.19509 0.50138 0.91262 0.0
C938 C 0.22967 0.5266 0.9356 0.0
C939 C 0.2468 0.53736 0.91993 0.0
C940 C 0.23782 0.53038 0.90056 0.0
C941 C 0.21232 0.51231 0.89694 0.0
C942 C 0.31453 0.59234 0.91624 0.0
C943 C 0.32781 0.58331 0.92749 0.0
C944 C 0.28803 0.57774 0.91417 0.0
C945 C 0.27436 0.55421 0.92371 0.0
C946 C 0.28751 0.54587 0.93582 0.0
C947 C 0.31402 0.56015 0.93752 0.0
H948 H 0.61887 0.20072 0.01357 0.0
H949 H 0.57573 0.21932 0.05398 0.0
H950 H 0.65843 0.23285 0.029 0.0
H951 H 0.61547 0.25184 0.06933 0.0
H952 H 0.69433 0.32937 0.06774 0.0
H953 H 0.65268 0.2941 0.05791 0.0
H954 H 0.6822 0.24261 0.06114 0.0
H955 H 0.72371 0.27767 0.07096 0.0
C956 C 0.61786 0.21155 0.02588 0.0
C957 C 0.59424 0.20769 0.03245 0.0
C958 C 0.64049 0.22987 0.03476 0.0
C959 C 0.64003 0.24491 0.05032 0.0
C960 C 0.61639 0.24068 0.05723 0.0
C961 C 0.5937 0.22208 0.0485 0.0
C962 C 0.69181 0.31045 0.06667 0.0
C963 C 0.71239 0.30637 0.07 0.0
C964 C 0.66794 0.29025 0.06111 0.0
C965 C 0.66428 0.26566 0.05859 0.0
C966 C 0.68456 0.26142 0.06273 0.0
C967 C 0.70831 0.28151 0.06845 0.0
H968 H 0.48674 0.66561 0.2214 0.0
H969 H 0.54836 0.74257 0.2139 0.0
H970 H 0.46097 0.68171 0.23674 0.0
H971 H 0.5227 0.75865 0.22862 0.0
H972 H 0.48085 0.78318 0.26763 0.0
H973 H 0.5046 0.76203 0.25897 0.0
H974 H 0.43909 0.70445 0.22729 0.0
H975 H 0.41504 0.72528 0.23648 0.0
C976 C 0.49488 0.68593 0.22331 0.0
C977 C 0.51981 0.70283 0.2169 0.0
C978 C 0.48008 0.69516 0.23192 0.0
C979 C 0.48984 0.72148 0.23413 0.0
C980 C 0.51476 0.73827 0.22767 0.0
C981 C 0.52948 0.72907 0.21914 0.0
C982 C 0.47134 0.76575 0.25912 0.0
C983 C 0.44614 0.75607 0.25256 0.0
C984 C 0.48502 0.75371 0.25404 0.0
C985 C 0.47394 0.7318 0.24211 0.0
C986 C 0.44821 0.72122 0.23655 0.0
C987 C 0.43443 0.73321 0.24178 0.0
H988 H 0.81251 0.37038 0.38403 0.0
H989 H 0.83141 0.43453 0.3464 0.0
H990 H 0.778 0.3748 0.39868 0.0
H991 H 0.7973 0.43919 0.3612 0.0
H992 H 0.74886 0.45412 0.40377 0.0
H993 H 0.78524 0.44991 0.394 0.0
H994 H 0.73565 0.36919 0.38572 0.0
H995 H 0.69904 0.37333 0.39545 0.0
C996 C 0.80935 0.38547 0.37898 0.0
C997 C 0.82441 0.40191 0.36389 0.0
C998 C 0.78963 0.38797 0.38733 0.0
C999 C 0.78494 0.40727 0.38102 0.0
C1000 C 0.8006 0.42425 0.36645 0.0
C1001 C 0.82005 0.42153 0.35793 0.0
C1002 C 0.7457 0.43539 0.40012 0.0
C1003 C 0.72101 0.41407 0.40027 0.0
C1004 C 0.76654 0.43304 0.39443 0.0
C1005 C 0.76323 0.40927 0.38897 0.0
C1006 C 0.73876 0.38773 0.38997 0.0
C1007 C 0.71781 0.39012 0.39547 0.0
H1008 H 0.11876 0.58518 0.45129 0.0
H1009 H 0.13247 0.52197 0.45079 0.0
H1010 H 0.14499 0.60187 0.48096 0.0
H1011 H 0.1579 0.53804 0.48067 0.0
H1012 H 0.22377 0.58646 0.52125 0.0
H1013 H 0.19828 0.57204 0.49129 0.0
H1014 H 0.14605 0.59378 0.51554 0.0
H1015 H 0.172 0.60893 0.54529 0.0
C1016 C 0.12713 0.57472 0.4577 0.0
C1017 C 0.12344 0.5522 0.44883 0.0
C1018 C 0.14208 0.5842 0.4747 0.0
C1019 C 0.15366 0.57136 0.48317 0.0
C1020 C 0.14966 0.54867 0.47437 0.0
C1021 C 0.13486 0.5393 0.45736 0.0
C1022 C 0.20693 0.5883 0.52016 0.0
C1023 C 0.19989 0.59877 0.53571 0.0
C1024 C 0.19219 0.57986 0.50303 0.0
C1025 C 0.16995 0.5815 0.50106 0.0
C1026 C 0.16318 0.59244 0.51647 0.0
C1027 C 0.17802 0.60103 0.53357 0.0
H1028 H 0.44839 0.09847 0.64674 0.0
H1029 H 0.51257 0.07249 0.62266 0.0
H1030 H 0.48909 0.13995 0.66818 0.0
H1031 H 0.55208 0.11505 0.64411 0.0
H1032 H 0.60169 0.17254 0.69264 0.0
H1033 H 0.57073 0.13906 0.67146 0.0
H1034 H 0.52714 0.17761 0.66844 0.0
H1035 H 0.55747 0.21038 0.69054 0.0
C1036 C 0.46736 0.10097 0.64699 0.0
C1037 C 0.47722 0.08391 0.62955 0.0
C1038 C 0.49323 0.12765 0.65936 0.0
C1039 C 0.52557 0.13342 0.65753 0.0
C1040 C 0.53283 0.11172 0.64451 0.0
C1041 C 0.50815 0.08445 0.6317 0.0
C1042 C 0.58571 0.17409 0.68717 0.0
C1043 C 0.58189 0.19398 0.69345 0.0
C1044 C 0.56788 0.15483 0.67492 0.0
C1045 C 0.54604 0.15525 0.66847 0.0
C1046 C 0.5432 0.17611 0.67365 0.0
C1047 C 0.5608 0.19514 0.68614 0.0
H1048 H 0.42118 0.51009 0.7885 0.0
H1049 H 0.47917 0.59833 0.75863 0.0
H1050 H 0.41164 0.53422 0.82112 0.0
H1051 H 0.46807 0.6207 0.79208 0.0
H1052 H 0.46384 0.64603 0.85622 0.0
H1053 H 0.47088 0.62778 0.82645 0.0
H1054 H 0.39818 0.55951 0.8349 0.0
H1055 H 0.39187 0.57713 0.86489 0.0
C1056 C 0.42874 0.53043 0.78864 0.0
C1057 C 0.45478 0.55198 0.77192 0.0
C1058 C 0.42384 0.54586 0.80937 0.0
C1059 C 0.4398 0.58024 0.81093 0.0
C1060 C 0.45978 0.6003 0.79122 0.0
C1061 C 0.46587 0.58656 0.76983 0.0
C1062 C 0.44938 0.62716 0.8516 0.0
C1063 C 0.42744 0.6129 0.863 0.0
C1064 C 0.45335 0.61671 0.8345 0.0
C1065 C 0.4353 0.59198 0.8284 0.0
C1066 C 0.41297 0.57821 0.83944 0.0
C1067 C 0.40918 0.58845 0.8566 0.0
H1068 H 0.8948 0.3309 0.95184 0.0
H1069 H 0.90264 0.41092 0.91936 0.0
H1070 H 0.86459 0.33559 0.98238 0.0
H1071 H 0.87198 0.4137 0.95079 0.0
H1072 H 0.84643 0.42328 0.0137 0.0
H1073 H 0.86941 0.41944 0.98561 0.0
H1074 H 0.82937 0.33789 0.99278 0.0
H1075 H 0.80714 0.34171 0.02097 0.0
C1076 C 0.88944 0.3454 0.95107 0.0
C1077 C 0.90569 0.37307 0.93431 0.0
C1078 C 0.87156 0.34922 0.97053 0.0
C1079 C 0.86605 0.37592 0.97068 0.0
C1080 C 0.8766 0.39868 0.95076 0.0
C1081 C 0.89468 0.39645 0.93061 0.0
C1082 C 0.84247 0.40454 0.00918 0.0
C1083 C 0.82509 0.38283 0.0197 0.0
C1084 C 0.85557 0.40232 0.99303 0.0
C1085 C 0.85148 0.37838 0.9871 0.0
C1086 C 0.83358 0.35669 0.99726 0.0
C1087 C 0.8206 0.35888 0.01338 0.0
H1088 H 0.44215 0.88554 0.09895 0.0
H1089 H 0.49966 0.94355 0.13625 0.0
H1090 H 0.4239 0.85784 0.12739 0.0
H1091 H 0.48097 0.9163 0.16485 0.0
H1092 H 0.38343 0.8242 0.18559 0.0
H1093 H 0.40066 0.85242 0.15736 0.0
H1094 H 0.4771 0.87823 0.17852 0.0
H1095 H 0.4599 0.85061 0.20695 0.0
C1096 C 0.45055 0.89252 0.11333 0.0
C1097 C 0.47197 0.91689 0.11545 0.0
C1098 C 0.44008 0.87671 0.12963 0.0
C1099 C 0.4509 0.88485 0.14844 0.0
C1100 C 0.47231 0.9093 0.15055 0.0
C1101 C 0.48285 0.92506 0.13422 0.0
C1102 C 0.40391 0.83588 0.1842 0.0
C1103 C 0.42027 0.83517 0.19857 0.0
C1104 C 0.4138 0.85199 0.16797 0.0
C1105 C 0.44028 0.8677 0.16569 0.0
C1106 C 0.45661 0.86677 0.17998 0.0
C1107 C 0.44673 0.85075 0.19623 0.0
H1108 H 0.64472 0.50325 0.25656 0.0
H1109 H 0.67931 0.56704 0.29662 0.0
H1110 H 0.6367 0.47419 0.28391 0.0
H1111 H 0.67093 0.53803 0.32406 0.0
H1112 H 0.68354 0.48296 0.36159 0.0
H1113 H 0.68793 0.51105 0.33467 0.0
H1114 H 0.61203 0.45708 0.31447 0.0
H1115 H 0.60767 0.42857 0.34141 0.0
C1116 C 0.65016 0.51098 0.27129 0.0
C1117 C 0.66239 0.53736 0.27451 0.0
C1118 C 0.64552 0.49436 0.28695 0.0
C1119 C 0.65325 0.50381 0.30614 0.0
C1120 C 0.66501 0.53018 0.30941 0.0
C1121 C 0.66961 0.54678 0.29376 0.0
C1122 C 0.66774 0.47697 0.35143 0.0
C1123 C 0.64523 0.45346 0.35369 0.0
C1124 C 0.67021 0.49322 0.33607 0.0
C1125 C 0.65025 0.48641 0.32253 0.0
C1126 C 0.6278 0.4628 0.32462 0.0
C1127 C 0.62528 0.44651 0.34008 0.0
H1128 H 0.3816 0.87088 0.39734 0.0
H1129 H 0.35322 0.90688 0.35808 0.0
H1130 H 0.38911 0.85029 0.36932 0.0
H1131 H 0.36128 0.88682 0.32997 0.0
H1132 H 0.34771 0.82177 0.28876 0.0
H1133 H 0.34305 0.84431 0.31656 0.0
H1134 H 0.41514 0.85794 0.34007 0.0
H1135 H 0.41963 0.83486 0.31234 0.0
C1136 C 0.37745 0.87476 0.38265 0.0
C1137 C 0.36717 0.89074 0.37985 0.0
C1138 C 0.3818 0.86303 0.36661 0.0
C1139 C 0.37577 0.86687 0.34741 0.0
C1140 C 0.36586 0.88322 0.34459 0.0
C1141 C 0.36148 0.89492 0.36064 0.0
C1142 C 0.36259 0.82951 0.29985 0.0
C1143 C 0.38405 0.82647 0.2983 0.0
C1144 C 0.36 0.84264 0.31572 0.0
C1145 C 0.37881 0.8531 0.33047 0.0
C1146 C 0.40021 0.84994 0.32903 0.0
C1147 C 0.40281 0.83677 0.31311 0.0
H1148 H 0.63848 0.51598 0.53665 0.0
H1149 H 0.56281 0.45111 0.542 0.0
H1150 H 0.6457 0.49721 0.50743 0.0
H1151 H 0.5702 0.43185 0.51294 0.0
H1152 H 0.58408 0.42046 0.44782 0.0
H1153 H 0.5756 0.43739 0.47757 0.0
H1154 H 0.65216 0.46264 0.49813 0.0
H1155 H 0.66087 0.44634 0.46818 0.0
C1156 C 0.62336 0.49771 0.53149 0.0
C1157 C 0.59994 0.4852 0.54138 0.0
C1158 C 0.62757 0.48682 0.51488 0.0
C1159 C 0.60856 0.46299 0.50787 0.0
C1160 C 0.58512 0.45038 0.51781 0.0
C1161 C 0.58089 0.46134 0.53444 0.0
C1162 C 0.59907 0.4295 0.45873 0.0
C1163 C 0.62322 0.43221 0.45555 0.0
C1164 C 0.59415 0.4391 0.47584 0.0
C1165 C 0.61325 0.45153 0.49017 0.0
C1166 C 0.63718 0.45361 0.48721 0.0
C1167 C 0.64213 0.44412 0.47008 0.0
H1168 H 0.15911 0.52171 0.73456 0.0
H1169 H 0.12419 0.45823 0.69423 0.0
H1170 H 0.17876 0.55069 0.70697 0.0
H1171 H 0.14347 0.48721 0.66655 0.0
H1172 H 0.20916 0.54141 0.62664 0.0
H1173 H 0.18655 0.51305 0.65376 0.0
H1174 H 0.16976 0.56888 0.67786 0.0
H1175 H 0.19279 0.59758 0.65077 0.0
C1176 C 0.15526 0.51405 0.71974 0.0
C1177 C 0.13992 0.48777 0.71651 0.0
C1178 C 0.16646 0.53063 0.70394 0.0
C1179 C 0.16273 0.52126 0.68456 0.0
C1180 C 0.14695 0.495 0.68132 0.0
C1181 C 0.13572 0.47843 0.69712 0.0
C1182 C 0.20069 0.54772 0.6377 0.0
C1183 C 0.20285 0.57183 0.63652 0.0
C1184 C 0.18752 0.53133 0.65318 0.0
C1185 C 0.17621 0.53863 0.66791 0.0
C1186 C 0.17842 0.56277 0.66681 0.0
C1187 C 0.19155 0.57918 0.65125 0.0
H1188 H 0.54418 0.08053 0.85583 0.0
H1189 H 0.48601 0.10095 0.84798 0.0
H1190 H 0.57495 0.11957 0.83949 0.0
H1191 H 0.51613 0.1391 0.83045 0.0
H1192 H 0.57625 0.21202 0.8053 0.0
H1193 H 0.55227 0.1796 0.82989 0.0
H1194 H 0.58344 0.13426 0.80729 0.0
H1195 H 0.60819 0.16707 0.78359 0.0
C1196 C 0.53798 0.09338 0.85054 0.0
C1197 C 0.51252 0.08734 0.85267 0.0
C1198 C 0.55556 0.1157 0.84106 0.0
C1199 C 0.54802 0.13237 0.83324 0.0
C1200 C 0.52281 0.12692 0.83633 0.0
C1201 C 0.50537 0.10482 0.84614 0.0
C1202 C 0.57833 0.19534 0.80589 0.0
C1203 C 0.59398 0.19205 0.79238 0.0
C1204 C 0.56442 0.17662 0.81988 0.0
C1205 C 0.56556 0.15404 0.82049 0.0
C1206 C 0.58222 0.15144 0.80756 0.0
C1207 C 0.59638 0.17028 0.7938 0.0
H1208 H 0.58909 0.65198 0.00314 0.0
H1209 H 0.53926 0.65753 0.06234 0.0
H1210 H 0.54917 0.64853 0.97761 0.0
H1211 H 0.50061 0.65381 0.03514 0.0
H1212 H 0.47039 0.6785 0.97478 0.0
H1213 H 0.50173 0.68148 0.99928 0.0
H1214 H 0.49329 0.61072 0.97804 0.0
H1215 H 0.46089 0.60695 0.95433 0.0
C1216 C 0.57339 0.65363 0.00899 0.0
C1217 C 0.56602 0.65052 0.03576 0.0
C1218 C 0.54784 0.65015 0.99336 0.0
C1219 C 0.51997 0.64917 0.00371 0.0
C1220 C 0.51717 0.65345 0.02967 0.0
C1221 C 0.54159 0.65694 0.04661 0.0
C1222 C 0.47494 0.66341 0.97566 0.0
C1223 C 0.46324 0.64242 0.96288 0.0
C1224 C 0.49274 0.66509 0.9896 0.0
C1225 C 0.49972 0.64633 0.99034 0.0
C1226 C 0.48804 0.62535 0.97762 0.0
C1227 C 0.46953 0.62316 0.9642 0.0
H1228 H 0.95781 0.45897 0.16816 0.0
H1229 H 0.91124 0.39071 0.20134 0.0
H1230 H 0.92081 0.45123 0.14872 0.0
H1231 H 0.87382 0.38336 0.18244 0.0
H1232 H 0.82508 0.36105 0.12543 0.0
H1233 H 0.85776 0.3701 0.15003 0.0
H1234 H 0.88097 0.44991 0.14794 0.0
H1235 H 0.84885 0.44092 0.12277 0.0
C1236 C 0.93946 0.44267 0.17162 0.0
C1237 C 0.93735 0.4257 0.18646 0.0
C1238 C 0.91819 0.43826 0.16055 0.0
C1239 C 0.89423 0.41669 0.16403 0.0
C1240 C 0.892 0.40002 0.17923 0.0
C1241 C 0.91337 0.40436 0.19021 0.0
C1242 C 0.83689 0.38048 0.13043 0.0
C1243 C 0.83456 0.4003 0.12195 0.0
C1244 C 0.8556 0.38568 0.14465 0.0
C1245 C 0.87226 0.41081 0.15086 0.0
C1246 C 0.86888 0.43042 0.14319 0.0
C1247 C 0.85034 0.42524 0.12884 0.0
loop_
_geom_bond_atom_site_label_1
_geom_bond_atom_site_label_2
_geom_bond_distance
_geom_bond_site_symmetry_2
_ccdc_geom_bond_type
C0 C1 1.560 . S
C0 H61 0.959 . S
C0 H62 0.959 . S
C0 H63 0.960 . S
C1 C0 1.560 . S
C1 O56 1.426 . S
C1 H60 0.980 . S
C2 C3 1.407 . S
C2 C7 1.418 . S
C2 O56 1.334 . S
C3 C2 1.407 . S
C3 C4 1.360 . S
C3 H64 0.929 . S
C4 C3 1.360 . S
C4 C5 1.401 . S
C4 C8 1.527 . S
C5 C4 1.401 . S
C5 C6 1.405 . S
C5 C38 1.587 . S
C6 C5 1.405 . S
C6 C7 1.332 . S
C6 C9 1.496 . S
C7 C2 1.418 . S
C7 C6 1.332 . S
C7 H65 0.929 . S
C8 C4 1.527 . S
C8 H66 0.959 . S
C8 H67 0.961 . S
C8 H68 0.961 . S
C9 C6 1.496 . S
C9 H69 0.960 . S
C9 H70 0.960 . S
C9 H71 0.961 . S
C10 C11 1.517 . S
C10 H73 0.961 . S
C10 H74 0.960 . S
C10 H75 0.959 . S
C11 C10 1.517 . S
C11 O59 1.468 . S
C11 H72 0.980 . S
C12 C13 1.349 . S
C12 C17 1.367 . S
C12 O59 1.408 . S
C13 C12 1.349 . S
C13 C14 1.407 . S
C13 H76 0.930 . S
C14 C13 1.407 . S
C14 C15 1.474 . S
C14 C18 1.536 . S
C15 C14 1.474 . S
C15 C16 1.378 . S
C15 C40 1.538 1_655 S
C16 C15 1.378 . S
C16 C17 1.364 . S
C16 C19 1.467 . S
C17 C12 1.367 . S
C17 C16 1.364 . S
C17 H77 0.931 . S
C18 C14 1.536 . S
C18 H78 0.960 1_655 S
C18 H79 0.961 1_655 S
C18 H80 0.958 . S
C19 C16 1.467 . S
C19 H81 0.954 . S
C19 H82 0.940 1_655 S
C19 H83 0.970 . S
C20 C21 1.309 . S
C20 C25 1.304 . S
C20 O58 1.435 . S
C21 C20 1.309 . S
C21 C22 1.476 . S
C21 H85 0.930 . S
C22 C21 1.476 . S
C22 C23 1.400 . S
C22 C26 1.567 . S
C23 C22 1.400 . S
C23 C24 1.373 . S
C23 C45 1.432 . S
C24 C23 1.373 . S
C24 C25 1.339 . S
C24 C27 1.530 . S
C25 C20 1.304 . S
C25 C24 1.339 . S
C25 H86 0.930 . S
C26 C22 1.567 . S
C26 H87 0.961 . S
C26 H88 0.960 . S
C26 H89 0.958 . S
C27 C24 1.530 . S
C27 H90 0.961 . S
C27 H91 0.960 . S
C27 H92 0.960 . S
C28 C29 1.530 . S
C28 H94 0.961 . S
C28 H95 0.961 . S
C28 H96 0.959 . S
C29 C28 1.530 . S
C29 O57 1.412 . S
C29 H93 0.980 . S
C30 C31 1.288 . S
C30 C35 1.377 . S
C30 O57 1.393 . S
C31 C30 1.288 . S
C31 C32 1.369 . S
C31 H97 0.932 . S
C32 C31 1.369 . S
C32 C33 1.398 . S
C32 C36 1.527 . S
C33 C32 1.398 . S
C33 C34 1.380 . S
C33 C47 1.497 . S
C34 C33 1.380 . S
C34 C35 1.383 . S
C34 C37 1.603 . S
C35 C30 1.377 . S
C35 C34 1.383 . S
C35 H98 0.929 . S
C36 C32 1.527 . S
C36 H99 0.961 . S
C36 H100 0.959 . S
C36 H101 0.959 . S
C37 C34 1.603 . S
C37 H102 0.960 . S
C37 H103 0.962 . S
C37 H104 0.961 . S
C38 C5 1.587 . S
C38 C39 1.360 . S
C38 C51 1.412 . S
C39 C38 1.360 . S
C39 C40 1.365 . S
C39 H105 0.929 . S
C40 C15 1.538 1_455 S
C40 C39 1.365 . S
C40 C41 1.404 . S
C41 C40 1.404 . S
C41 C42 1.395 1_455 S
C41 C52 1.451 . S
C42 C41 1.395 1_655 S
C42 C43 1.322 . S
C42 H106 0.930 . S
C43 C42 1.322 . S
C43 C44 1.459 . S
C43 H107 0.929 . S
C44 C43 1.459 . S
C44 C45 1.445 . S
C44 C53 1.395 1_655 S
C45 C23 1.432 . S
C45 C44 1.445 . S
C45 C46 1.370 . S
C46 C45 1.370 . S
C46 C47 1.438 1_655 S
C46 H108 0.930 . S
C47 C33 1.497 . S
C47 C46 1.438 1_455 S
C47 C48 1.360 . S
C48 C47 1.360 . S
C48 C49 1.401 . S
C48 C53 1.446 . S
C49 C48 1.401 . S
C49 C50 1.347 . S
C49 H109 0.929 . S
C50 C49 1.347 . S
C50 C51 1.455 . S
C50 H110 0.930 . S
C51 C38 1.412 . S
C51 C50 1.455 . S
C51 C52 1.331 . S
C52 C41 1.451 . S
C52 C51 1.331 . S
C52 C53 1.497 . S
C53 C44 1.395 1_455 S
C53 C48 1.446 . S
C53 C52 1.497 . S
C54 C55 1.582 . S
C54 H111 0.962 . S
C54 H112 0.959 . S
C54 H113 0.958 . S
C55 C54 1.582 . S
C55 O58 1.458 . S
C55 H84 0.980 . S
O56 C1 1.426 . S
O56 C2 1.334 . S
O57 C29 1.412 . S
O57 C30 1.393 . S
O58 C20 1.435 . S
O58 C55 1.458 . S
O59 C11 1.468 . S
O59 C12 1.408 . S
H60 C1 0.980 . S
H61 C0 0.959 . S
H62 C0 0.959 . S
H63 C0 0.960 . S
H64 C3 0.929 . S
H65 C7 0.929 . S
H66 C8 0.959 . S
H67 C8 0.961 . S
H68 C8 0.961 . S
H69 C9 0.960 . S
H70 C9 0.960 . S
H71 C9 0.961 . S
H72 C11 0.980 . S
H73 C10 0.961 . S
H74 C10 0.960 . S
H75 C10 0.959 . S
H76 C13 0.930 . S
H77 C17 0.931 . S
H78 C18 0.960 1_455 S
H79 C18 0.961 1_455 S
H80 C18 0.958 . S
H81 C19 0.954 . S
H82 C19 0.940 1_455 S
H83 C19 0.970 . S
H84 C55 0.980 . S
H85 C21 0.930 . S
H86 C25 0.930 . S
H87 C26 0.961 . S
H88 C26 0.960 . S
H89 C26 0.958 . S
H90 C27 0.961 . S
H91 C27 0.960 . S
H92 C27 0.960 . S
H93 C29 0.980 . S
H94 C28 0.961 . S
H95 C28 0.961 . S
H96 C28 0.959 . S
H97 C31 0.932 . S
H98 C35 0.929 . S
H99 C36 0.961 . S
H100 C36 0.959 . S
H101 C36 0.959 . S
H102 C37 0.960 . S
H103 C37 0.962 . S
H104 C37 0.961 . S
H105 C39 0.929 . S
H106 C42 0.930 . S
H107 C43 0.929 . S
H108 C46 0.930 . S
H109 C49 0.929 . S
H110 C50 0.930 . S
H111 C54 0.962 . S
H112 C54 0.959 . S
H113 C54 0.958 . S
C114 C115 1.560 . S
C114 H175 0.959 . S
C114 H176 0.959 . S
C114 H177 0.960 . S
C115 C114 1.560 . S
C115 O170 1.426 . S
C115 H174 0.980 . S
C116 C117 1.407 . S
C116 C121 1.418 . S
C116 O170 1.334 . S
C117 C116 1.407 . S
C117 C118 1.360 . S
C117 H178 0.929 . S
C118 C117 1.360 . S
C118 C119 1.401 . S
C118 C122 1.527 . S
C119 C118 1.401 . S
C119 C120 1.405 . S
C119 C152 1.587 . S
C120 C119 1.405 . S
C120 C121 1.332 . S
C120 C123 1.496 . S
C121 C116 1.418 . S
C121 C120 1.332 . S
C121 H179 0.929 . S
C122 C118 1.527 . S
C122 H180 0.959 . S
C122 H181 0.961 . S
C122 H182 0.961 . S
C123 C120 1.496 . S
C123 H183 0.960 . S
C123 H184 0.960 . S
C123 H185 0.961 . S
C124 C125 1.517 . S
C124 H187 0.961 . S
C124 H188 0.960 . S
C124 H189 0.959 . S
C125 C124 1.517 . S
C125 O173 1.468 . S
C125 H186 0.980 . S
C126 C127 1.349 . S
C126 C131 1.367 . S
C126 O173 1.408 . S
C127 C126 1.349 . S
C127 C128 1.407 . S
C127 H190 0.930 . S
C128 C127 1.407 . S
C128 C129 1.449 . S
C128 C132 1.535 . S
C129 C128 1.449 . S
C129 C130 1.384 . S
C129 C154 1.553 . S
C130 C129 1.384 . S
C130 C131 1.364 . S
C130 C133 1.450 . S
C131 C126 1.367 . S
C131 C130 1.364 . S
C131 H191 0.931 . S
C132 C128 1.535 . S
C132 H192 0.959 . S
C132 H193 0.961 . S
C132 H194 0.959 . S
C133 C130 1.450 . S
C133 H195 0.960 . S
C133 H196 0.960 . S
C133 H197 0.960 . S
C134 C135 1.309 . S
C134 C139 1.304 . S
C134 O172 1.435 . S
C135 C134 1.309 . S
C135 C136 1.476 . S
C135 H199 0.930 . S
C136 C135 1.476 . S
C136 C137 1.400 . S
C136 C140 1.567 . S
C137 C136 1.400 . S
C137 C138 1.373 . S
C137 C159 1.432 . S
C138 C137 1.373 . S
C138 C139 1.339 . S
C138 C141 1.530 . S
C139 C134 1.304 . S
C139 C138 1.339 . S
C139 H200 0.930 . S
C140 C136 1.567 . S
C140 H201 0.961 . S
C140 H202 0.960 . S
C140 H203 0.958 . S
C141 C138 1.530 . S
C141 H204 0.961 . S
C141 H205 0.960 . S
C141 H206 0.960 . S
C142 C143 1.530 . S
C142 H208 0.961 . S
C142 H209 0.961 . S
C142 H210 0.959 . S
C143 C142 1.530 . S
C143 O171 1.412 . S
C143 H207 0.980 . S
C144 C145 1.288 . S
C144 C149 1.377 . S
C144 O171 1.393 . S
C145 C144 1.288 . S
C145 C146 1.369 . S
C145 H211 0.932 . S
C146 C145 1.369 . S
C146 C147 1.398 . S
C146 C150 1.527 1_565 S
C147 C146 1.398 . S
C147 C148 1.380 . S
C147 C161 1.497 1_565 S
C148 C147 1.380 . S
C148 C149 1.383 . S
C148 C151 1.603 . S
C149 C144 1.377 . S
C149 C148 1.383 . S
C149 H212 0.929 . S
C150 C146 1.527 1_545 S
C150 H213 0.961 . S
C150 H214 0.959 . S
C150 H215 0.959 1_545 S
C151 C148 1.603 . S
C151 H216 0.960 . S
C151 H217 0.962 . S
C151 H218 0.961 . S
C152 C119 1.587 . S
C152 C153 1.360 . S
C152 C165 1.412 . S
C153 C152 1.360 . S
C153 C154 1.365 1_565 S
C153 H219 0.929 . S
C154 C129 1.553 . S
C154 C153 1.365 1_545 S
C154 C155 1.404 . S
C155 C154 1.404 . S
C155 C156 1.395 . S
C155 C166 1.451 . S
C156 C155 1.395 . S
C156 C157 1.322 . S
C156 H220 0.930 . S
C157 C156 1.322 . S
C157 C158 1.459 . S
C157 H221 0.929 . S
C158 C157 1.459 . S
C158 C159 1.445 . S
C158 C167 1.395 . S
C159 C137 1.432 . S
C159 C158 1.445 . S
C159 C160 1.370 . S
C160 C159 1.370 . S
C160 C161 1.438 . S
C160 H222 0.930 . S
C161 C147 1.497 1_545 S
C161 C160 1.438 . S
C161 C162 1.342 1_545 S
C162 C161 1.342 1_565 S
C162 C163 1.441 . S
C162 C167 1.424 1_565 S
C163 C162 1.441 . S
C163 C164 1.347 . S
C163 H223 0.929 . S
C164 C163 1.347 . S
C164 C165 1.455 . S
C164 H224 0.930 . S
C165 C152 1.412 . S
C165 C164 1.455 . S
C165 C166 1.331 1_565 S
C166 C155 1.451 . S
C166 C165 1.331 1_545 S
C166 C167 1.497 . S
C167 C158 1.395 . S
C167 C162 1.424 1_545 S
C167 C166 1.497 . S
C168 C169 1.582 . S
C168 H225 0.962 . S
C168 H226 0.959 . S
C168 H227 0.958 . S
C169 C168 1.582 . S
C169 O172 1.458 . S
C169 H198 0.980 . S
O170 C115 1.426 . S
O170 C116 1.334 . S
O171 C143 1.412 . S
O171 C144 1.393 . S
O172 C134 1.435 . S
O172 C169 1.458 . S
O173 C125 1.468 . S
O173 C126 1.408 . S
H174 C115 0.980 . S
H175 C114 0.959 . S
H176 C114 0.959 . S
H177 C114 0.960 . S
H178 C117 0.929 . S
H179 C121 0.929 . S
H180 C122 0.959 . S
H181 C122 0.961 . S
H182 C122 0.961 . S
H183 C123 0.960 . S
H184 C123 0.960 . S
H185 C123 0.961 . S
H186 C125 0.980 . S
H187 C124 0.961 . S
H188 C124 0.960 . S
H189 C124 0.959 . S
H190 C127 0.930 . S
H191 C131 0.931 . S
H192 C132 0.959 . S
H193 C132 0.961 . S
H194 C132 0.959 . S
H195 C133 0.960 . S
H196 C133 0.960 . S
H197 C133 0.960 . S
H198 C169 0.980 . S
H199 C135 0.930 . S
H200 C139 0.930 . S
H201 C140 0.961 . S
H202 C140 0.960 . S
H203 C140 0.958 . S
H204 C141 0.961 . S
H205 C141 0.960 . S
H206 C141 0.960 . S
H207 C143 0.980 . S
H208 C142 0.961 . S
H209 C142 0.961 . S
H210 C142 0.959 . S
H211 C145 0.932 . S
H212 C149 0.929 . S
H213 C150 0.961 . S
H214 C150 0.959 . S
H215 C150 0.959 1_565 S
H216 C151 0.960 . S
H217 C151 0.962 . S
H218 C151 0.961 . S
H219 C153 0.929 . S
H220 C156 0.930 . S
H221 C157 0.929 . S
H222 C160 0.930 . S
H223 C163 0.929 . S
H224 C164 0.930 . S
H225 C168 0.962 . S
H226 C168 0.959 . S
H227 C168 0.958 . S
C228 C229 1.560 . S
C228 H289 0.959 . S
C228 H290 0.959 . S
C228 H291 0.960 . S
C229 C228 1.560 . S
C229 O284 1.426 . S
C229 H288 0.980 . S
C230 C231 1.407 . S
C230 C235 1.418 . S
C230 O284 1.334 . S
C231 C230 1.407 . S
C231 C232 1.360 . S
C231 H292 0.929 . S
C232 C231 1.360 . S
C232 C233 1.401 . S
C232 C236 1.527 . S
C233 C232 1.401 . S
C233 C234 1.405 . S
C233 C266 1.587 . S
C234 C233 1.405 . S
C234 C235 1.332 . S
C234 C237 1.496 . S
C235 C230 1.418 . S
C235 C234 1.332 . S
C235 H293 0.929 . S
C236 C232 1.527 . S
C236 H294 0.959 . S
C236 H295 0.961 . S
C236 H296 0.961 . S
C237 C234 1.496 . S
C237 H297 0.960 . S
C237 H298 0.960 . S
C237 H299 0.961 . S
C238 C239 1.517 . S
C238 H301 0.961 . S
C238 H302 0.960 . S
C238 H303 0.959 . S
C239 C238 1.517 . S
C239 O287 1.468 . S
C239 H300 0.980 . S
C240 C241 1.349 . S
C240 C245 1.367 . S
C240 O287 1.408 . S
C241 C240 1.349 . S
C241 C242 1.407 . S
C241 H304 0.930 . S
C242 C241 1.407 . S
C242 C243 1.449 . S
C242 C246 1.535 . S
C243 C242 1.449 . S
C243 C244 1.384 . S
C243 C268 1.553 . S
C244 C243 1.384 . S
C244 C245 1.364 . S
C244 C247 1.450 . S
C245 C240 1.367 . S
C245 C244 1.364 . S
C245 H305 0.931 . S
C246 C242 1.535 . S
C246 H306 0.959 . S
C246 H307 0.961 . S
C246 H308 0.959 . S
C247 C244 1.450 . S
C247 H309 0.960 . S
C247 H310 0.960 . S
C247 H311 0.960 . S
C248 C249 1.309 . S
C248 C253 1.304 . S
C248 O286 1.435 . S
C249 C248 1.309 . S
C249 C250 1.476 . S
C249 H313 0.930 . S
C250 C249 1.476 . S
C250 C251 1.400 . S
C250 C254 1.567 . S
C251 C250 1.400 . S
C251 C252 1.373 . S
C251 C273 1.432 . S
C252 C251 1.373 . S
C252 C253 1.339 . S
C252 C255 1.530 . S
C253 C248 1.304 . S
C253 C252 1.339 . S
C253 H314 0.930 . S
C254 C250 1.567 . S
C254 H315 0.961 . S
C254 H316 0.960 . S
C254 H317 0.958 . S
C255 C252 1.530 . S
C255 H318 0.961 . S
C255 H319 0.960 . S
C255 H320 0.960 . S
C256 C257 1.530 . S
C256 H322 0.961 . S
C256 H323 0.961 . S
C256 H324 0.959 . S
C257 C256 1.530 . S
C257 O285 1.412 . S
C257 H321 0.980 . S
C258 C259 1.288 . S
C258 C263 1.377 . S
C258 O285 1.393 . S
C259 C258 1.288 . S
C259 C260 1.369 . S
C259 H325 0.932 . S
C260 C259 1.369 . S
C260 C261 1.398 . S
C260 C264 1.527 . S
C261 C260 1.398 . S
C261 C262 1.380 . S
C261 C275 1.497 . S
C262 C261 1.380 . S
C262 C263 1.383 . S
C262 C265 1.603 . S
C263 C258 1.377 . S
C263 C262 1.383 . S
C263 H326 0.929 . S
C264 C260 1.527 . S
C264 H327 0.961 . S
C264 H328 0.959 . S
C264 H329 0.959 . S
C265 C262 1.603 . S
C265 H330 0.960 . S
C265 H331 0.962 . S
C265 H332 0.961 . S
C266 C233 1.587 . S
C266 C267 1.360 . S
C266 C279 1.412 . S
C267 C266 1.360 . S
C267 C268 1.365 . S
C267 H333 0.929 . S
C268 C243 1.553 . S
C268 C267 1.365 . S
C268 C269 1.404 . S
C269 C268 1.404 . S
C269 C270 1.395 . S
C269 C280 1.451 . S
C270 C269 1.395 . S
C270 C271 1.322 . S
C270 H334 0.930 . S
C271 C270 1.322 . S
C271 C272 1.459 . S
C271 H335 0.929 . S
C272 C271 1.459 . S
C272 C273 1.445 . S
C272 C281 1.395 . S
C273 C251 1.432 . S
C273 C272 1.445 . S
C273 C274 1.370 . S
C274 C273 1.370 . S
C274 C275 1.438 . S
C274 H336 0.930 . S
C275 C261 1.497 . S
C275 C274 1.438 . S
C275 C276 1.360 . S
C276 C275 1.360 . S
C276 C277 1.401 . S
C276 C281 1.446 . S
C277 C276 1.401 . S
C277 C278 1.347 . S
C277 H337 0.929 . S
C278 C277 1.347 . S
C278 C279 1.455 . S
C278 H338 0.930 . S
C279 C266 1.412 . S
C279 C278 1.455 . S
C279 C280 1.331 . S
C280 C269 1.451 . S
C280 C279 1.331 . S
C280 C281 1.497 . S
C281 C272 1.395 . S
C281 C276 1.446 . S
C281 C280 1.497 . S
C282 C283 1.582 . S
C282 H339 0.962 . S
C282 H340 0.959 . S
C282 H341 0.958 . S
C283 C282 1.582 . S
C283 O286 1.458 . S
C283 H312 0.980 . S
O284 C229 1.426 . S
O284 C230 1.334 . S
O285 C257 1.412 . S
O285 C258 1.393 . S
O286 C248 1.435 . S
O286 C283 1.458 . S
O287 C239 1.468 . S
O287 C240 1.408 . S
H288 C229 0.980 . S
H289 C228 0.959 . S
H290 C228 0.959 . S
H291 C228 0.960 . S
H292 C231 0.929 . S
H293 C235 0.929 . S
H294 C236 0.959 . S
H295 C236 0.961 . S
H296 C236 0.961 . S
H297 C237 0.960 . S
H298 C237 0.960 . S
H299 C237 0.961 . S
H300 C239 0.980 . S
H301 C238 0.961 . S
H302 C238 0.960 . S
H303 C238 0.959 . S
H304 C241 0.930 . S
H305 C245 0.931 . S
H306 C246 0.959 . S
H307 C246 0.961 . S
H308 C246 0.959 . S
H309 C247 0.960 . S
H310 C247 0.960 . S
H311 C247 0.960 . S
H312 C283 0.980 . S
H313 C249 0.930 . S
H314 C253 0.930 . S
H315 C254 0.961 . S
H316 C254 0.960 . S
H317 C254 0.958 . S
H318 C255 0.961 . S
H319 C255 0.960 . S
H320 C255 0.960 . S
H321 C257 0.980 . S
H322 C256 0.961 . S
H323 C256 0.961 . S
H324 C256 0.959 . S
H325 C259 0.932 . S
H326 C263 0.929 . S
H327 C264 0.961 . S
H328 C264 0.959 . S
H329 C264 0.959 . S
H330 C265 0.960 . S
H331 C265 0.962 . S
H332 C265 0.961 . S
H333 C267 0.929 . S
H334 C270 0.930 . S
H335 C271 0.929 . S
H336 C274 0.930 . S
H337 C277 0.929 . S
H338 C278 0.930 . S
H339 C282 0.962 . S
H340 C282 0.959 . S
H341 C282 0.958 . S
C342 C343 1.560 . S
C342 H403 0.959 . S
C342 H404 0.959 . S
C342 H405 0.960 . S
C343 C342 1.560 . S
C343 O398 1.426 . S
C343 H402 0.980 . S
C344 C345 1.407 . S
C344 C349 1.418 . S
C344 O398 1.334 . S
C345 C344 1.407 . S
C345 C346 1.360 . S
C345 H406 0.929 . S
C346 C345 1.360 . S
C346 C347 1.401 . S
C346 C350 1.527 . S
C347 C346 1.401 . S
C347 C348 1.405 . S
C347 C380 1.587 . S
C348 C347 1.405 . S
C348 C349 1.332 . S
C348 C351 1.496 . S
C349 C344 1.418 . S
C349 C348 1.332 . S
C349 H407 0.929 . S
C350 C346 1.527 . S
C350 H408 0.959 . S
C350 H409 0.961 . S
C350 H410 0.961 . S
C351 C348 1.496 . S
C351 H411 0.960 . S
C351 H412 0.960 . S
C351 H413 0.961 . S
C352 C353 1.517 . S
C352 H415 0.961 . S
C352 H416 0.960 . S
C352 H417 0.959 . S
C353 C352 1.517 . S
C353 O401 1.468 . S
C353 H414 0.980 . S
C354 C355 1.349 . S
C354 C359 1.367 . S
C354 O401 1.408 . S
C355 C354 1.349 . S
C355 C356 1.407 . S
C355 H418 0.930 . S
C356 C355 1.407 . S
C356 C357 1.449 . S
C356 C360 1.535 . S
C357 C356 1.449 . S
C357 C358 1.384 . S
C357 C382 1.553 1_655 S
C358 C357 1.384 . S
C358 C359 1.364 . S
C358 C361 1.450 . S
C359 C354 1.367 . S
C359 C358 1.364 . S
C359 H419 0.931 . S
C360 C356 1.535 . S
C360 H420 0.959 1_655 S
C360 H421 0.961 1_655 S
C360 H422 0.959 . S
C361 C358 1.450 . S
C361 H423 0.960 . S
C361 H424 0.960 1_655 S
C361 H425 0.960 . S
C362 C363 1.309 . S
C362 C367 1.304 . S
C362 O400 1.435 . S
C363 C362 1.309 . S
C363 C364 1.476 . S
C363 H427 0.930 . S
C364 C363 1.476 . S
C364 C365 1.400 . S
C364 C368 1.567 . S
C365 C364 1.400 . S
C365 C366 1.373 . S
C365 C387 1.432 . S
C366 C365 1.373 . S
C366 C367 1.339 . S
C366 C369 1.530 . S
C367 C362 1.304 . S
C367 C366 1.339 . S
C367 H428 0.930 . S
C368 C364 1.567 . S
C368 H429 0.961 . S
C368 H430 0.960 . S
C368 H431 0.958 . S
C369 C366 1.530 . S
C369 H432 0.961 . S
C369 H433 0.960 . S
C369 H434 0.960 . S
C370 C371 1.530 . S
C370 H436 0.961 . S
C370 H437 0.961 . S
C370 H438 0.959 . S
C371 C370 1.530 . S
C371 O399 1.412 . S
C371 H435 0.980 . S
C372 C373 1.288 . S
C372 C377 1.377 . S
C372 O399 1.393 . S
C373 C372 1.288 . S
C373 C374 1.369 . S
C373 H439 0.932 . S
C374 C373 1.369 . S
C374 C375 1.398 . S
C374 C378 1.527 . S
C375 C374 1.398 . S
C375 C376 1.380 . S
C375 C389 1.497 . S
C376 C375 1.380 . S
C376 C377 1.383 . S
C376 C379 1.603 . S
C377 C372 1.377 . S
C377 C376 1.383 . S
C377 H440 0.929 . S
C378 C374 1.527 . S
C378 H441 0.961 . S
C378 H442 0.959 . S
C378 H443 0.959 . S
C379 C376 1.603 . S
C379 H444 0.960 . S
C379 H445 0.962 . S
C379 H446 0.961 . S
C380 C347 1.587 . S
C380 C381 1.360 . S
C380 C393 1.412 . S
C381 C380 1.360 . S
C381 C382 1.365 . S
C381 H447 0.929 . S
C382 C357 1.553 1_455 S
C382 C381 1.365 . S
C382 C383 1.404 . S
C383 C382 1.404 . S
C383 C384 1.395 1_455 S
C383 C394 1.451 . S
C384 C383 1.395 1_655 S
C384 C385 1.322 . S
C384 H448 0.930 . S
C385 C384 1.322 . S
C385 C386 1.459 . S
C385 H449 0.929 . S
C386 C385 1.459 . S
C386 C387 1.445 . S
C386 C395 1.395 1_655 S
C387 C365 1.432 . S
C387 C386 1.445 . S
C387 C388 1.370 . S
C388 C387 1.370 . S
C388 C389 1.438 1_655 S
C388 H450 0.930 . S
C389 C375 1.497 . S
C389 C388 1.438 1_455 S
C389 C390 1.360 . S
C390 C389 1.360 . S
C390 C391 1.401 . S
C390 C395 1.446 . S
C391 C390 1.401 . S
C391 C392 1.347 . S
C391 H451 0.929 . S
C392 C391 1.347 . S
C392 C393 1.455 . S
C392 H452 0.930 . S
C393 C380 1.412 . S
C393 C392 1.455 . S
C393 C394 1.331 . S
C394 C383 1.451 . S
C394 C393 1.331 . S
C394 C395 1.497 . S
C395 C386 1.395 1_455 S
C395 C390 1.446 . S
C395 C394 1.497 . S
C396 C397 1.582 . S
C396 H453 0.962 . S
C396 H454 0.959 . S
C396 H455 0.958 . S
C397 C396 1.582 . S
C397 O400 1.458 . S
C397 H426 0.980 . S
O398 C343 1.426 . S
O398 C344 1.334 . S
O399 C371 1.412 . S
O399 C372 1.393 . S
O400 C362 1.435 . S
O400 C397 1.458 . S
O401 C353 1.468 . S
O401 C354 1.408 . S
H402 C343 0.980 . S
H403 C342 0.959 . S
H404 C342 0.959 . S
H405 C342 0.960 . S
H406 C345 0.929 . S
H407 C349 0.929 . S
H408 C350 0.959 . S
H409 C350 0.961 . S
H410 C350 0.961 . S
H411 C351 0.960 . S
H412 C351 0.960 . S
H413 C351 0.961 . S
H414 C353 0.980 . S
H415 C352 0.961 . S
H416 C352 0.960 . S
H417 C352 0.959 . S
H418 C355 0.930 . S
H419 C359 0.931 . S
H420 C360 0.959 1_455 S
H421 C360 0.961 1_455 S
H422 C360 0.959 . S
H423 C361 0.960 . S
H424 C361 0.960 1_455 S
H425 C361 0.960 . S
H426 C397 0.980 . S
H427 C363 0.930 . S
H428 C367 0.930 . S
H429 C368 0.961 . S
H430 C368 0.960 . S
H431 C368 0.958 . S
H432 C369 0.961 . S
H433 C369 0.960 . S
H434 C369 0.960 . S
H435 C371 0.980 . S
H436 C370 0.961 . S
H437 C370 0.961 . S
H438 C370 0.959 . S
H439 C373 0.932 . S
H440 C377 0.929 . S
H441 C378 0.961 . S
H442 C378 0.959 . S
H443 C378 0.959 . S
H444 C379 0.960 . S
H445 C379 0.962 . S
H446 C379 0.961 . S
H447 C381 0.929 . S
H448 C384 0.930 . S
H449 C385 0.929 . S
H450 C388 0.930 . S
H451 C391 0.929 . S
H452 C392 0.930 . S
H453 C396 0.962 . S
H454 C396 0.959 . S
H455 C396 0.958 . S
C456 C457 1.560 . S
C456 H517 0.959 . S
C456 H518 0.959 . S
C456 H519 0.960 . S
C457 C456 1.560 . S
C457 O512 1.426 . S
C457 H516 0.980 . S
C458 C459 1.407 . S
C458 C463 1.418 . S
C458 O512 1.334 . S
C459 C458 1.407 . S
C459 C460 1.360 . S
C459 H520 0.929 . S
C460 C459 1.360 . S
C460 C461 1.401 . S
C460 C464 1.527 . S
C461 C460 1.401 . S
C461 C462 1.405 . S
C461 C494 1.587 . S
C462 C461 1.405 . S
C462 C463 1.332 . S
C462 C465 1.496 . S
C463 C458 1.418 . S
C463 C462 1.332 . S
C463 H521 0.929 . S
C464 C460 1.527 . S
C464 H522 0.959 . S
C464 H523 0.961 . S
C464 H524 0.961 . S
C465 C462 1.496 . S
C465 H525 0.960 . S
C465 H526 0.960 . S
C465 H527 0.961 . S
C466 C467 1.517 . S
C466 H529 0.961 . S
C466 H530 0.960 . S
C466 H531 0.959 . S
C467 C466 1.517 . S
C467 O515 1.468 . S
C467 H528 0.980 . S
C468 C469 1.349 . S
C468 C473 1.367 . S
C468 O515 1.408 . S
C469 C468 1.349 . S
C469 C470 1.407 . S
C469 H532 0.930 . S
C470 C469 1.407 . S
C470 C471 1.449 . S
C470 C474 1.535 . S
C471 C470 1.449 . S
C471 C472 1.384 . S
C471 C496 1.553 . S
C472 C471 1.384 . S
C472 C473 1.364 . S
C472 C475 1.450 . S
C473 C468 1.367 . S
C473 C472 1.364 . S
C473 H533 0.931 . S
C474 C470 1.535 . S
C474 H534 0.959 . S
C474 H535 0.961 . S
C474 H536 0.959 . S
C475 C472 1.450 . S
C475 H537 0.960 . S
C475 H538 0.960 . S
C475 H539 0.960 . S
C476 C477 1.309 . S
C476 C481 1.304 . S
C476 O514 1.435 . S
C477 C476 1.309 . S
C477 C478 1.476 . S
C477 H541 0.930 . S
C478 C477 1.476 . S
C478 C479 1.400 . S
C478 C482 1.567 . S
C479 C478 1.400 . S
C479 C480 1.373 . S
C479 C501 1.432 . S
C480 C479 1.373 . S
C480 C481 1.339 . S
C480 C483 1.530 . S
C481 C476 1.304 . S
C481 C480 1.339 . S
C481 H542 0.930 . S
C482 C478 1.567 . S
C482 H543 0.961 . S
C482 H544 0.960 . S
C482 H545 0.958 . S
C483 C480 1.530 . S
C483 H546 0.961 . S
C483 H547 0.960 . S
C483 H548 0.960 . S
C484 C485 1.530 . S
C484 H550 0.961 . S
C484 H551 0.961 . S
C484 H552 0.959 . S
C485 C484 1.530 . S
C485 O513 1.412 . S
C485 H549 0.980 . S
C486 C487 1.288 . S
C486 C491 1.377 . S
C486 O513 1.393 . S
C487 C486 1.288 . S
C487 C488 1.369 . S
C487 H553 0.932 . S
C488 C487 1.369 . S
C488 C489 1.398 . S
C488 C492 1.527 1_565 S
C489 C488 1.398 . S
C489 C490 1.380 . S
C489 C503 1.497 1_565 S
C490 C489 1.380 . S
C490 C491 1.383 . S
C490 C493 1.603 . S
C491 C486 1.377 . S
C491 C490 1.383 . S
C491 H554 0.929 . S
C492 C488 1.527 1_545 S
C492 H555 0.961 . S
C492 H556 0.959 . S
C492 H557 0.940 1_545 S
C493 C490 1.603 . S
C493 H558 0.960 . S
C493 H559 0.962 . S
C493 H560 0.961 . S
C494 C461 1.587 . S
C494 C495 1.360 . S
C494 C507 1.412 . S
C495 C494 1.360 . S
C495 C496 1.365 1_565 S
C495 H561 0.929 . S
C496 C471 1.553 . S
C496 C495 1.365 1_545 S
C496 C497 1.404 . S
C497 C496 1.404 . S
C497 C498 1.395 . S
C497 C508 1.451 . S
C498 C497 1.395 . S
C498 C499 1.322 . S
C498 H562 0.930 . S
C499 C498 1.322 . S
C499 C500 1.459 1_556 S
C499 H563 0.929 . S
C500 C499 1.459 1_554 S
C500 C501 1.445 . S
C500 C509 1.398 . S
C501 C479 1.432 . S
C501 C500 1.445 . S
C501 C502 1.370 . S
C502 C501 1.370 . S
C502 C503 1.438 . S
C502 H564 0.930 . S
C503 C489 1.497 1_545 S
C503 C502 1.438 . S
C503 C504 1.353 1_545 S
C504 C503 1.353 1_565 S
C504 C505 1.424 . S
C504 C509 1.447 1_565 S
C505 C504 1.424 . S
C505 C506 1.347 1_554 S
C505 H565 0.929 . S
C506 C505 1.347 1_556 S
C506 C507 1.455 . S
C506 H566 0.930 . S
C507 C494 1.412 . S
C507 C506 1.455 . S
C507 C508 1.331 1_565 S
C508 C497 1.451 . S
C508 C507 1.331 1_545 S
C508 C509 1.477 1_556 S
C509 C500 1.398 . S
C509 C504 1.447 1_545 S
C509 C508 1.477 1_554 S
C510 C511 1.582 . S
C510 H567 0.962 . S
C510 H568 0.959 . S
C510 H569 0.958 . S
C511 C510 1.582 . S
C511 O514 1.458 . S
C511 H540 0.980 . S
O512 C457 1.426 . S
O512 C458 1.334 . S
O513 C485 1.412 . S
O513 C486 1.393 . S
O514 C476 1.435 . S
O514 C511 1.458 . S
O515 C467 1.468 . S
O515 C468 1.408 . S
H516 C457 0.980 . S
H517 C456 0.959 . S
H518 C456 0.959 . S
H519 C456 0.960 . S
H520 C459 0.929 . S
H521 C463 0.929 . S
H522 C464 0.959 . S
H523 C464 0.961 . S
H524 C464 0.961 . S
H525 C465 0.960 . S
H526 C465 0.960 . S
H527 C465 0.961 . S
H528 C467 0.980 . S
H529 C466 0.961 . S
H530 C466 0.960 . S
H531 C466 0.959 . S
H532 C469 0.930 . S
H533 C473 0.931 . S
H534 C474 0.959 . S
H535 C474 0.961 . S
H536 C474 0.959 . S
H537 C475 0.960 . S
H538 C475 0.960 . S
H539 C475 0.960 . S
H540 C511 0.980 . S
H541 C477 0.930 . S
H542 C481 0.930 . S
H543 C482 0.961 . S
H544 C482 0.960 . S
H545 C482 0.958 . S
H546 C483 0.961 . S
H547 C483 0.960 . S
H548 C483 0.960 . S
H549 C485 0.980 . S
H550 C484 0.961 . S
H551 C484 0.961 . S
H552 C484 0.959 . S
H553 C487 0.932 . S
H554 C491 0.929 . S
H555 C492 0.961 . S
H556 C492 0.959 . S
H557 C492 0.940 1_565 S
H558 C493 0.960 . S
H559 C493 0.962 . S
H560 C493 0.961 . S
H561 C495 0.929 . S
H562 C498 0.930 . S
H563 C499 0.929 . S
H564 C502 0.930 . S
H565 C505 0.929 . S
H566 C506 0.930 . S
H567 C510 0.962 . S
H568 C510 0.959 . S
H569 C510 0.958 . S
C570 C571 1.560 . S
C570 H631 0.959 . S
C570 H632 0.959 . S
C570 H633 0.960 . S
C571 C570 1.560 . S
C571 O626 1.426 . S
C571 H630 0.980 . S
C572 C573 1.407 . S
C572 C577 1.418 . S
C572 O626 1.334 . S
C573 C572 1.407 . S
C573 C574 1.360 . S
C573 H634 0.929 . S
C574 C573 1.360 . S
C574 C575 1.401 . S
C574 C578 1.527 . S
C575 C574 1.401 . S
C575 C576 1.405 . S
C575 C608 1.587 . S
C576 C575 1.405 . S
C576 C577 1.332 . S
C576 C579 1.496 . S
C577 C572 1.418 . S
C577 C576 1.332 . S
C577 H635 0.929 . S
C578 C574 1.527 . S
C578 H636 0.959 . S
C578 H637 0.961 . S
C578 H638 0.961 . S
C579 C576 1.496 . S
C579 H639 0.960 . S
C579 H640 0.960 . S
C579 H641 0.961 . S
C580 C581 1.517 . S
C580 H643 0.961 . S
C580 H644 0.960 . S
C580 H645 0.959 . S
C581 C580 1.517 . S
C581 O629 1.468 . S
C581 H642 0.980 . S
C582 C583 1.349 . S
C582 C587 1.367 . S
C582 O629 1.408 . S
C583 C582 1.349 . S
C583 C584 1.407 . S
C583 H646 0.930 . S
C584 C583 1.407 . S
C584 C585 1.449 . S
C584 C588 1.535 . S
C585 C584 1.449 . S
C585 C586 1.384 . S
C585 C610 1.553 . S
C586 C585 1.384 . S
C586 C587 1.364 . S
C586 C589 1.450 . S
C587 C582 1.367 . S
C587 C586 1.364 . S
C587 H647 0.931 . S
C588 C584 1.535 . S
C588 H648 0.959 . S
C588 H649 0.961 . S
C588 H650 0.959 . S
C589 C586 1.450 . S
C589 H651 0.960 . S
C589 H652 0.960 . S
C589 H653 0.960 . S
C590 C591 1.309 . S
C590 C595 1.304 . S
C590 O628 1.435 . S
C591 C590 1.309 . S
C591 C592 1.476 . S
C591 H655 0.930 . S
C592 C591 1.476 . S
C592 C593 1.400 . S
C592 C596 1.567 . S
C593 C592 1.400 . S
C593 C594 1.373 . S
C593 C615 1.432 . S
C594 C593 1.373 . S
C594 C595 1.339 . S
C594 C597 1.530 . S
C595 C590 1.304 . S
C595 C594 1.339 . S
C595 H656 0.930 . S
C596 C592 1.567 . S
C596 H657 0.961 . S
C596 H658 0.960 . S
C596 H659 0.958 . S
C597 C594 1.530 . S
C597 H660 0.961 . S
C597 H661 0.960 . S
C597 H662 0.960 . S
C598 C599 1.530 . S
C598 H664 0.961 . S
C598 H665 0.961 . S
C598 H666 0.959 . S
C599 C598 1.530 . S
C599 O627 1.412 . S
C599 H663 0.980 . S
C600 C601 1.288 . S
C600 C605 1.377 . S
C600 O627 1.393 . S
C601 C600 1.288 . S
C601 C602 1.369 . S
C601 H667 0.932 . S
C602 C601 1.369 . S
C602 C603 1.398 . S
C602 C606 1.527 . S
C603 C602 1.398 . S
C603 C604 1.380 . S
C603 C617 1.497 . S
C604 C603 1.380 . S
C604 C605 1.383 . S
C604 C607 1.603 . S
C605 C600 1.377 . S
C605 C604 1.383 . S
C605 H668 0.929 . S
C606 C602 1.527 . S
C606 H669 0.961 . S
C606 H670 0.959 . S
C606 H671 0.959 . S
C607 C604 1.603 . S
C607 H672 0.960 . S
C607 H673 0.962 . S
C607 H674 0.961 . S
C608 C575 1.587 . S
C608 C609 1.360 . S
C608 C621 1.412 . S
C609 C608 1.360 . S
C609 C610 1.365 . S
C609 H675 0.929 . S
C610 C585 1.553 . S
C610 C609 1.365 . S
C610 C611 1.404 . S
C611 C610 1.404 . S
C611 C612 1.395 . S
C611 C622 1.451 . S
C612 C611 1.395 . S
C612 C613 1.322 . S
C612 H676 0.930 . S
C613 C612 1.322 . S
C613 C614 1.459 . S
C613 H677 0.929 . S
C614 C613 1.459 . S
C614 C615 1.445 . S
C614 C623 1.395 . S
C615 C593 1.432 . S
C615 C614 1.445 . S
C615 C616 1.370 . S
C616 C615 1.370 . S
C616 C617 1.438 . S
C616 H678 0.930 . S
C617 C603 1.497 . S
C617 C616 1.438 . S
C617 C618 1.360 . S
C618 C617 1.360 . S
C618 C619 1.401 . S
C618 C623 1.446 . S
C619 C618 1.401 . S
C619 C620 1.347 . S
C619 H679 0.929 . S
C620 C619 1.347 . S
C620 C621 1.455 . S
C620 H680 0.930 . S
C621 C608 1.412 . S
C621 C620 1.455 . S
C621 C622 1.331 . S
C622 C611 1.451 . S
C622 C621 1.331 . S
C622 C623 1.497 . S
C623 C614 1.395 . S
C623 C618 1.446 . S
C623 C622 1.497 . S
C624 C625 1.582 . S
C624 H681 0.962 . S
C624 H682 0.959 . S
C624 H683 0.958 . S
C625 C624 1.582 . S
C625 O628 1.458 . S
C625 H654 0.980 . S
O626 C571 1.426 . S
O626 C572 1.334 . S
O627 C599 1.412 . S
O627 C600 1.393 . S
O628 C590 1.435 . S
O628 C625 1.458 . S
O629 C581 1.468 . S
O629 C582 1.408 . S
H630 C571 0.980 . S
H631 C570 0.959 . S
H632 C570 0.959 . S
H633 C570 0.960 . S
H634 C573 0.929 . S
H635 C577 0.929 . S
H636 C578 0.959 . S
H637 C578 0.961 . S
H638 C578 0.961 . S
H639 C579 0.960 . S
H640 C579 0.960 . S
H641 C579 0.961 . S
H642 C581 0.980 . S
H643 C580 0.961 . S
H644 C580 0.960 . S
H645 C580 0.959 . S
H646 C583 0.930 . S
H647 C587 0.931 . S
H648 C588 0.959 . S
H649 C588 0.961 . S
H650 C588 0.959 . S
H651 C589 0.960 . S
H652 C589 0.960 . S
H653 C589 0.960 . S
H654 C625 0.980 . S
H655 C591 0.930 . S
H656 C595 0.930 . S
H657 C596 0.961 . S
H658 C596 0.960 . S
H659 C596 0.958 . S
H660 C597 0.961 . S
H661 C597 0.960 . S
H662 C597 0.960 . S
H663 C599 0.980 . S
H664 C598 0.961 . S
H665 C598 0.961 . S
H666 C598 0.959 . S
H667 C601 0.932 . S
H668 C605 0.929 . S
H669 C606 0.961 . S
H670 C606 0.959 . S
H671 C606 0.959 . S
H672 C607 0.960 . S
H673 C607 0.962 . S
H674 C607 0.961 . S
H675 C609 0.929 . S
H676 C612 0.930 . S
H677 C613 0.929 . S
H678 C616 0.930 . S
H679 C619 0.929 . S
H680 C620 0.930 . S
H681 C624 0.962 . S
H682 C624 0.959 . S
H683 C624 0.958 . S
O684 Cd685 2.223 . S
O684 C692 1.315 . S
Cd685 O684 2.223 . S
Cd685 O688 2.297 . S
Cd685 O689 2.439 . S
Cd685 O695 2.240 . S
Cd686 O687 2.240 . S
Cd686 O694 2.223 . S
Cd686 O696 2.297 . S
Cd686 O697 2.439 . S
O687 Cd686 2.240 . S
O687 C692 1.279 . S
O688 Cd685 2.297 . S
O688 C690 1.247 . S
O689 Cd685 2.439 . S
O689 C690 1.208 . S
C690 O688 1.247 . S
C690 O689 1.208 . S
C691 O696 1.247 . S
C691 O697 1.208 . S
C692 O684 1.315 . S
C692 O687 1.279 . S
C693 O694 1.315 . S
C693 O695 1.279 . S
O694 Cd686 2.223 . S
O694 C693 1.315 . S
O695 Cd685 2.240 . S
O695 C693 1.279 . S
O696 Cd686 2.297 . S
O696 C691 1.247 . S
O697 Cd686 2.439 . S
O697 C691 1.208 . S
O698 Cd699 2.223 . S
O698 C706 1.315 . S
Cd699 O698 2.223 . S
Cd699 O702 2.297 . S
Cd699 O703 2.439 . S
Cd699 O709 2.240 . S
Cd700 O701 2.240 . S
Cd700 O708 2.223 . S
Cd700 O710 2.297 . S
Cd700 O711 2.439 . S
O701 Cd700 2.240 . S
O701 C706 1.279 . S
O702 Cd699 2.297 . S
O702 C704 1.247 . S
O703 Cd699 2.439 . S
O703 C704 1.208 . S
C704 O702 1.247 . S
C704 O703 1.208 . S
C705 O710 1.247 . S
C705 O711 1.208 . S
C706 O698 1.315 . S
C706 O701 1.279 . S
C707 O708 1.315 . S
C707 O709 1.279 . S
O708 Cd700 2.223 . S
O708 C707 1.315 . S
O709 Cd699 2.240 . S
O709 C707 1.279 . S
O710 Cd700 2.297 . S
O710 C705 1.247 . S
O711 Cd700 2.439 . S
O711 C705 1.208 . S
O712 Cd713 2.223 . S
O712 C720 1.315 . S
Cd713 O712 2.223 . S
Cd713 O716 2.297 . S
Cd713 O717 2.439 . S
Cd713 O723 2.240 . S
Cd714 O715 2.240 . S
Cd714 O722 2.223 . S
Cd714 O724 2.297 . S
Cd714 O725 2.439 . S
O715 Cd714 2.240 . S
O715 C720 1.279 . S
O716 Cd713 2.297 . S
O716 C718 1.247 . S
O717 Cd713 2.439 . S
O717 C718 1.208 . S
C718 O716 1.247 . S
C718 O717 1.208 . S
C719 O724 1.247 . S
C719 O725 1.208 . S
C720 O712 1.315 . S
C720 O715 1.279 . S
C721 O722 1.315 . S
C721 O723 1.279 . S
O722 Cd714 2.223 . S
O722 C721 1.315 . S
O723 Cd713 2.240 . S
O723 C721 1.279 . S
O724 Cd714 2.297 . S
O724 C719 1.247 . S
O725 Cd714 2.439 . S
O725 C719 1.208 . S
O726 Cd727 2.223 . S
O726 C734 1.315 . S
Cd727 O726 2.223 . S
Cd727 O730 2.297 . S
Cd727 O731 2.439 . S
Cd727 O737 2.240 . S
Cd728 O729 2.240 . S
Cd728 O736 2.223 . S
Cd728 O738 2.297 . S
Cd728 O739 2.439 . S
O729 Cd728 2.240 . S
O729 C734 1.279 . S
O730 Cd727 2.297 . S
O730 C732 1.247 . S
O731 Cd727 2.439 . S
O731 C732 1.208 . S
C732 O730 1.247 . S
C732 O731 1.208 . S
C733 O738 1.247 . S
C733 O739 1.208 . S
C734 O726 1.315 . S
C734 O729 1.279 . S
C735 O736 1.315 . S
C735 O737 1.279 . S
O736 Cd728 2.223 . S
O736 C735 1.315 . S
O737 Cd727 2.240 . S
O737 C735 1.279 . S
O738 Cd728 2.297 . S
O738 C733 1.247 . S
O739 Cd728 2.439 . S
O739 C733 1.208 . S
O740 Cd741 2.223 . S
O740 C748 1.315 . S
Cd741 O740 2.223 . S
Cd741 O744 2.297 . S
Cd741 O745 2.439 . S
Cd741 O751 2.240 . S
Cd742 O743 2.240 . S
Cd742 O750 2.223 . S
Cd742 O752 2.297 . S
Cd742 O753 2.439 . S
O743 Cd742 2.240 . S
O743 C748 1.279 . S
O744 Cd741 2.297 . S
O744 C746 1.247 . S
O745 Cd741 2.439 . S
O745 C746 1.208 . S
C746 O744 1.247 . S
C746 O745 1.208 . S
C747 O752 1.247 . S
C747 O753 1.208 . S
C748 O740 1.315 . S
C748 O743 1.279 . S
C749 O750 1.315 . S
C749 O751 1.279 . S
O750 Cd742 2.223 . S
O750 C749 1.315 . S
O751 Cd741 2.240 . S
O751 C749 1.279 . S
O752 Cd742 2.297 . S
O752 C747 1.247 . S
O753 Cd742 2.439 . S
O753 C747 1.208 . S
O754 Cd755 2.223 . S
O754 C762 1.315 . S
Cd755 O754 2.223 . S
Cd755 O758 2.297 . S
Cd755 O759 2.439 . S
Cd755 O765 2.240 . S
Cd756 O757 2.240 . S
Cd756 O764 2.223 . S
Cd756 O766 2.297 . S
Cd756 O767 2.439 . S
O757 Cd756 2.240 . S
O757 C762 1.279 . S
O758 Cd755 2.297 . S
O758 C760 1.247 . S
O759 Cd755 2.439 . S
O759 C760 1.208 . S
C760 O758 1.247 . S
C760 O759 1.208 . S
C761 O766 1.247 . S
C761 O767 1.208 . S
C762 O754 1.315 . S
C762 O757 1.279 . S
C763 O764 1.315 . S
C763 O765 1.279 . S
O764 Cd756 2.223 . S
O764 C763 1.315 . S
O765 Cd755 2.240 . S
O765 C763 1.279 . S
O766 Cd756 2.297 . S
O766 C761 1.247 . S
O767 Cd756 2.439 . S
O767 C761 1.208 . S
H768 C776 0.950 . S
H769 C781 0.950 . S
H770 C778 0.950 . S
H771 C780 0.950 . S
H772 C782 0.950 . S
H773 C784 0.950 . S
H774 C786 0.950 . S
H775 C787 0.950 . S
C776 H768 0.950 . S
C776 C777 1.386 . S
C776 C778 1.391 . S
C777 C776 1.386 . S
C777 C781 1.393 . S
C778 H770 0.950 . S
C778 C776 1.391 . S
C778 C779 1.400 . S
C779 C778 1.400 . S
C779 C780 1.398 . S
C779 C785 1.491 . S
C780 H771 0.950 . S
C780 C779 1.398 . S
C780 C781 1.391 . S
C781 H769 0.950 . S
C781 C777 1.393 . S
C781 C780 1.391 . S
C782 H772 0.950 . S
C782 C783 1.386 . S
C782 C784 1.391 . S
C783 C782 1.386 . S
C783 C787 1.393 . S
C784 H773 0.950 . S
C784 C782 1.391 . S
C784 C785 1.400 . S
C785 C779 1.491 . S
C785 C784 1.400 . S
C785 C786 1.398 . S
C786 H774 0.950 . S
C786 C785 1.398 . S
C786 C787 1.391 . S
C787 H775 0.950 . S
C787 C783 1.393 . S
C787 C786 1.391 . S
H788 C796 0.950 . S
H789 C801 0.950 . S
H790 C798 0.950 . S
H791 C800 0.950 . S
H792 C802 0.950 . S
H793 C804 0.950 . S
H794 C806 0.950 . S
H795 C807 0.950 . S
C796 H788 0.950 . S
C796 C797 1.386 . S
C796 C798 1.391 . S
C797 C796 1.386 . S
C797 C801 1.393 . S
C798 H790 0.950 . S
C798 C796 1.391 . S
C798 C799 1.400 . S
C799 C798 1.400 . S
C799 C800 1.398 . S
C799 C805 1.491 . S
C800 H791 0.950 . S
C800 C799 1.398 . S
C800 C801 1.391 . S
C801 H789 0.950 . S
C801 C797 1.393 . S
C801 C800 1.391 . S
C802 H792 0.950 . S
C802 C803 1.386 . S
C802 C804 1.391 . S
C803 C802 1.386 . S
C803 C807 1.393 . S
C804 H793 0.950 . S
C804 C802 1.391 . S
C804 C805 1.400 . S
C805 C799 1.491 . S
C805 C804 1.400 . S
C805 C806 1.398 . S
C806 H794 0.950 . S
C806 C805 1.398 . S
C806 C807 1.391 . S
C807 H795 0.950 . S
C807 C803 1.393 . S
C807 C806 1.391 . S
H808 C816 0.950 . S
H809 C821 0.950 . S
H810 C818 0.950 . S
H811 C820 0.950 . S
H812 C822 0.950 . S
H813 C824 0.950 . S
H814 C826 0.950 . S
H815 C827 0.950 . S
C816 H808 0.950 . S
C816 C817 1.386 . S
C816 C818 1.391 . S
C817 C816 1.386 . S
C817 C821 1.393 . S
C818 H810 0.950 . S
C818 C816 1.391 . S
C818 C819 1.400 . S
C819 C818 1.400 . S
C819 C820 1.398 . S
C819 C825 1.491 . S
C820 H811 0.950 . S
C820 C819 1.398 . S
C820 C821 1.391 . S
C821 H809 0.950 . S
C821 C817 1.393 . S
C821 C820 1.391 . S
C822 H812 0.950 . S
C822 C823 1.386 . S
C822 C824 1.391 . S
C823 C822 1.386 . S
C823 C827 1.393 . S
C824 H813 0.950 . S
C824 C822 1.391 . S
C824 C825 1.400 . S
C825 C819 1.491 . S
C825 C824 1.400 . S
C825 C826 1.398 . S
C826 H814 0.950 . S
C826 C825 1.398 . S
C826 C827 1.391 . S
C827 H815 0.950 . S
C827 C823 1.393 . S
C827 C826 1.391 . S
H828 C836 0.950 . S
H829 C841 0.950 . S
H830 C838 0.950 . S
H831 C840 0.950 . S
H832 C842 0.950 . S
H833 C844 0.950 . S
H834 C846 0.950 . S
H835 C847 0.950 . S
C836 H828 0.950 . S
C836 C837 1.386 . S
C836 C838 1.391 . S
C837 C836 1.386 . S
C837 C841 1.393 . S
C838 H830 0.950 . S
C838 C836 1.391 . S
C838 C839 1.400 . S
C839 C838 1.400 . S
C839 C840 1.398 . S
C839 C845 1.491 . S
C840 H831 0.950 . S
C840 C839 1.398 . S
C840 C841 1.391 . S
C841 H829 0.950 . S
C841 C837 1.393 . S
C841 C840 1.391 . S
C842 H832 0.950 . S
C842 C843 1.386 . S
C842 C844 1.391 . S
C843 C842 1.386 . S
C843 C847 1.393 . S
C844 H833 0.950 . S
C844 C842 1.391 . S
C844 C845 1.400 . S
C845 C839 1.491 . S
C845 C844 1.400 . S
C845 C846 1.398 . S
C846 H834 0.950 . S
C846 C845 1.398 . S
C846 C847 1.391 . S
C847 H835 0.950 . S
C847 C843 1.393 . S
C847 C846 1.391 . S
H848 C856 0.950 . S
H849 C861 0.950 . S
H850 C858 0.950 . S
H851 C860 0.950 . S
H852 C862 0.950 . S
H853 C864 0.950 . S
H854 C866 0.950 . S
H855 C867 0.950 . S
C856 H848 0.950 . S
C856 C857 1.386 . S
C856 C858 1.391 . S
C857 C856 1.386 . S
C857 C861 1.393 . S
C858 H850 0.950 . S
C858 C856 1.391 . S
C858 C859 1.400 . S
C859 C858 1.400 . S
C859 C860 1.398 . S
C859 C865 1.491 . S
C860 H851 0.950 . S
C860 C859 1.398 . S
C860 C861 1.391 . S
C861 H849 0.950 . S
C861 C857 1.393 . S
C861 C860 1.391 . S
C862 H852 0.950 . S
C862 C863 1.386 . S
C862 C864 1.391 . S
C863 C862 1.386 . S
C863 C867 1.393 . S
C864 H853 0.950 . S
C864 C862 1.391 . S
C864 C865 1.400 . S
C865 C859 1.491 . S
C865 C864 1.400 . S
C865 C866 1.398 . S
C866 H854 0.950 . S
C866 C865 1.398 . S
C866 C867 1.391 . S
C867 H855 0.950 . S
C867 C863 1.393 . S
C867 C866 1.391 . S
H868 C876 0.950 . S
H869 C881 0.950 . S
H870 C878 0.950 . S
H871 C880 0.950 . S
H872 C882 0.950 . S
H873 C884 0.950 . S
H874 C886 0.950 . S
H875 C887 0.950 . S
C876 H868 0.950 . S
C876 C877 1.386 . S
C876 C878 1.391 . S
C877 C876 1.386 . S
C877 C881 1.393 . S
C878 H870 0.950 . S
C878 C876 1.391 . S
C878 C879 1.400 . S
C879 C878 1.400 . S
C879 C880 1.398 . S
C879 C885 1.491 . S
C880 H871 0.950 . S
C880 C879 1.398 . S
C880 C881 1.391 . S
C881 H869 0.950 . S
C881 C877 1.393 . S
C881 C880 1.391 . S
C882 H872 0.950 . S
C882 C883 1.386 . S
C882 C884 1.391 . S
C883 C882 1.386 . S
C883 C887 1.393 . S
C884 H873 0.950 . S
C884 C882 1.391 . S
C884 C885 1.400 . S
C885 C879 1.491 . S
C885 C884 1.400 . S
C885 C886 1.398 . S
C886 H874 0.950 . S
C886 C885 1.398 . S
C886 C887 1.391 . S
C887 H875 0.950 . S
C887 C883 1.393 . S
C887 C886 1.391 . S
H888 C896 0.950 . S
H889 C901 0.950 . S
H890 C898 0.950 . S
H891 C900 0.950 . S
H892 C902 0.950 . S
H893 C904 0.950 . S
H894 C906 0.950 . S
H895 C907 0.950 . S
C896 H888 0.950 . S
C896 C897 1.386 . S
C896 C898 1.391 . S
C897 C896 1.386 . S
C897 C901 1.393 . S
C898 H890 0.950 . S
C898 C896 1.391 . S
C898 C899 1.400 . S
C899 C898 1.400 . S
C899 C900 1.398 . S
C899 C905 1.491 . S
C900 H891 0.950 . S
C900 C899 1.398 . S
C900 C901 1.391 . S
C901 H889 0.950 . S
C901 C897 1.393 . S
C901 C900 1.391 . S
C902 H892 0.950 . S
C902 C903 1.386 . S
C902 C904 1.391 . S
C903 C902 1.386 . S
C903 C907 1.393 . S
C904 H893 0.950 . S
C904 C902 1.391 . S
C904 C905 1.400 . S
C905 C899 1.491 . S
C905 C904 1.400 . S
C905 C906 1.398 . S
C906 H894 0.950 . S
C906 C905 1.398 . S
C906 C907 1.391 . S
C907 H895 0.950 . S
C907 C903 1.393 . S
C907 C906 1.391 . S
H908 C916 0.950 . S
H909 C921 0.950 . S
H910 C918 0.950 . S
H911 C920 0.950 . S
H912 C922 0.950 . S
H913 C924 0.950 . S
H914 C926 0.950 . S
H915 C927 0.950 . S
C916 H908 0.950 . S
C916 C917 1.386 . S
C916 C918 1.391 . S
C917 C916 1.386 . S
C917 C921 1.393 . S
C918 H910 0.950 . S
C918 C916 1.391 . S
C918 C919 1.400 . S
C919 C918 1.400 . S
C919 C920 1.398 . S
C919 C925 1.491 . S
C920 H911 0.950 . S
C920 C919 1.398 . S
C920 C921 1.391 . S
C921 H909 0.950 . S
C921 C917 1.393 . S
C921 C920 1.391 . S
C922 H912 0.950 . S
C922 C923 1.386 . S
C922 C924 1.391 . S
C923 C922 1.386 . S
C923 C927 1.393 . S
C924 H913 0.950 . S
C924 C922 1.391 . S
C924 C925 1.400 . S
C925 C919 1.491 . S
C925 C924 1.400 . S
C925 C926 1.398 . S
C926 H914 0.950 . S
C926 C925 1.398 . S
C926 C927 1.391 . S
C927 H915 0.950 . S
C927 C923 1.393 . S
C927 C926 1.391 . S
H928 C936 0.950 . S
H929 C941 0.950 . S
H930 C938 0.950 . S
H931 C940 0.950 . S
H932 C942 0.950 . S
H933 C944 0.950 . S
H934 C946 0.950 . S
H935 C947 0.950 . S
C936 H928 0.950 . S
C936 C937 1.386 . S
C936 C938 1.391 . S
C937 C936 1.386 . S
C937 C941 1.393 . S
C938 H930 0.950 . S
C938 C936 1.391 . S
C938 C939 1.400 . S
C939 C938 1.400 . S
C939 C940 1.398 . S
C939 C945 1.491 . S
C940 H931 0.950 . S
C940 C939 1.398 . S
C940 C941 1.391 . S
C941 H929 0.950 . S
C941 C937 1.393 . S
C941 C940 1.391 . S
C942 H932 0.950 . S
C942 C943 1.386 . S
C942 C944 1.391 . S
C943 C942 1.386 . S
C943 C947 1.393 . S
C944 H933 0.950 . S
C944 C942 1.391 . S
C944 C945 1.400 . S
C945 C939 1.491 . S
C945 C944 1.400 . S
C945 C946 1.398 . S
C946 H934 0.950 . S
C946 C945 1.398 . S
C946 C947 1.391 . S
C947 H935 0.950 . S
C947 C943 1.393 . S
C947 C946 1.391 . S
H948 C956 0.950 . S
H949 C961 0.950 . S
H950 C958 0.950 . S
H951 C960 0.950 . S
H952 C962 0.950 . S
H953 C964 0.950 . S
H954 C966 0.950 . S
H955 C967 0.950 . S
C956 H948 0.950 . S
C956 C957 1.386 . S
C956 C958 1.391 . S
C957 C956 1.386 . S
C957 C961 1.393 . S
C958 H950 0.950 . S
C958 C956 1.391 . S
C958 C959 1.400 . S
C959 C958 1.400 . S
C959 C960 1.398 . S
C959 C965 1.491 . S
C960 H951 0.950 . S
C960 C959 1.398 . S
C960 C961 1.391 . S
C961 H949 0.950 . S
C961 C957 1.393 . S
C961 C960 1.391 . S
C962 H952 0.950 . S
C962 C963 1.386 . S
C962 C964 1.391 . S
C963 C962 1.386 . S
C963 C967 1.393 . S
C964 H953 0.950 . S
C964 C962 1.391 . S
C964 C965 1.400 . S
C965 C959 1.491 . S
C965 C964 1.400 . S
C965 C966 1.398 . S
C966 H954 0.950 . S
C966 C965 1.398 . S
C966 C967 1.391 . S
C967 H955 0.950 . S
C967 C963 1.393 . S
C967 C966 1.391 . S
H968 C976 0.950 . S
H969 C981 0.950 . S
H970 C978 0.950 . S
H971 C980 0.950 . S
H972 C982 0.950 . S
H973 C984 0.950 . S
H974 C986 0.950 . S
H975 C987 0.950 . S
C976 H968 0.950 . S
C976 C977 1.386 . S
C976 C978 1.391 . S
C977 C976 1.386 . S
C977 C981 1.393 . S
C978 H970 0.950 . S
C978 C976 1.391 . S
C978 C979 1.400 . S
C979 C978 1.400 . S
C979 C980 1.398 . S
C979 C985 1.491 . S
C980 H971 0.950 . S
C980 C979 1.398 . S
C980 C981 1.391 . S
C981 H969 0.950 . S
C981 C977 1.393 . S
C981 C980 1.391 . S
C982 H972 0.950 . S
C982 C983 1.386 . S
C982 C984 1.391 . S
C983 C982 1.386 . S
C983 C987 1.393 . S
C984 H973 0.950 . S
C984 C982 1.391 . S
C984 C985 1.400 . S
C985 C979 1.491 . S
C985 C984 1.400 . S
C985 C986 1.398 . S
C986 H974 0.950 . S
C986 C985 1.398 . S
C986 C987 1.391 . S
C987 H975 0.950 . S
C987 C983 1.393 . S
C987 C986 1.391 . S
H988 C996 0.950 . S
H989 C1001 0.950 . S
H990 C998 0.950 . S
H991 C1000 0.950 . S
H992 C1002 0.950 . S
H993 C1004 0.950 . S
H994 C1006 0.950 . S
H995 C1007 0.950 . S
C996 H988 0.950 . S
C996 C997 1.386 . S
C996 C998 1.391 . S
C997 C996 1.386 . S
C997 C1001 1.393 . S
C998 H990 0.950 . S
C998 C996 1.391 . S
C998 C999 1.400 . S
C999 C998 1.400 . S
C999 C1000 1.398 . S
C999 C1005 1.491 . S
C1000 H991 0.950 . S
C1000 C999 1.398 . S
C1000 C1001 1.391 . S
C1001 H989 0.950 . S
C1001 C997 1.393 . S
C1001 C1000 1.391 . S
C1002 H992 0.950 . S
C1002 C1003 1.386 . S
C1002 C1004 1.391 . S
C1003 C1002 1.386 . S
C1003 C1007 1.393 . S
C1004 H993 0.950 . S
C1004 C1002 1.391 . S
C1004 C1005 1.400 . S
C1005 C999 1.491 . S
C1005 C1004 1.400 . S
C1005 C1006 1.398 . S
C1006 H994 0.950 . S
C1006 C1005 1.398 . S
C1006 C1007 1.391 . S
C1007 H995 0.950 . S
C1007 C1003 1.393 . S
C1007 C1006 1.391 . S
H1008 C1016 0.950 . S
H1009 C1021 0.950 . S
H1010 C1018 0.950 . S
H1011 C1020 0.950 . S
H1012 C1022 0.950 . S
H1013 C1024 0.950 . S
H1014 C1026 0.950 . S
H1015 C1027 0.950 . S
C1016 H1008 0.950 . S
C1016 C1017 1.386 . S
C1016 C1018 1.391 . S
C1017 C1016 1.386 . S
C1017 C1021 1.393 . S
C1018 H1010 0.950 . S
C1018 C1016 1.391 . S
C1018 C1019 1.400 . S
C1019 C1018 1.400 . S
C1019 C1020 1.398 . S
C1019 C1025 1.491 . S
C1020 H1011 0.950 . S
C1020 C1019 1.398 . S
C1020 C1021 1.391 . S
C1021 H1009 0.950 . S
C1021 C1017 1.393 . S
C1021 C1020 1.391 . S
C1022 H1012 0.950 . S
C1022 C1023 1.386 . S
C1022 C1024 1.391 . S
C1023 C1022 1.386 . S
C1023 C1027 1.393 . S
C1024 H1013 0.950 . S
C1024 C1022 1.391 . S
C1024 C1025 1.400 . S
C1025 C1019 1.491 . S
C1025 C1024 1.400 . S
C1025 C1026 1.398 . S
C1026 H1014 0.950 . S
C1026 C1025 1.398 . S
C1026 C1027 1.391 . S
C1027 H1015 0.950 . S
C1027 C1023 1.393 . S
C1027 C1026 1.391 . S
H1028 C1036 0.950 . S
H1029 C1041 0.950 . S
H1030 C1038 0.950 . S
H1031 C1040 0.950 . S
H1032 C1042 0.950 . S
H1033 C1044 0.950 . S
H1034 C1046 0.950 . S
H1035 C1047 0.950 . S
C1036 H1028 0.950 . S
C1036 C1037 1.386 . S
C1036 C1038 1.391 . S
C1037 C1036 1.386 . S
C1037 C1041 1.393 . S
C1038 H1030 0.950 . S
C1038 C1036 1.391 . S
C1038 C1039 1.400 . S
C1039 C1038 1.400 . S
C1039 C1040 1.398 . S
C1039 C1045 1.491 . S
C1040 H1031 0.950 . S
C1040 C1039 1.398 . S
C1040 C1041 1.391 . S
C1041 H1029 0.950 . S
C1041 C1037 1.393 . S
C1041 C1040 1.391 . S
C1042 H1032 0.950 . S
C1042 C1043 1.386 . S
C1042 C1044 1.391 . S
C1043 C1042 1.386 . S
C1043 C1047 1.393 . S
C1044 H1033 0.950 . S
C1044 C1042 1.391 . S
C1044 C1045 1.400 . S
C1045 C1039 1.491 . S
C1045 C1044 1.400 . S
C1045 C1046 1.398 . S
C1046 H1034 0.950 . S
C1046 C1045 1.398 . S
C1046 C1047 1.391 . S
C1047 H1035 0.950 . S
C1047 C1043 1.393 . S
C1047 C1046 1.391 . S
H1048 C1056 0.950 . S
H1049 C1061 0.950 . S
H1050 C1058 0.950 . S
H1051 C1060 0.950 . S
H1052 C1062 0.950 . S
H1053 C1064 0.950 . S
H1054 C1066 0.950 . S
H1055 C1067 0.950 . S
C1056 H1048 0.950 . S
C1056 C1057 1.386 . S
C1056 C1058 1.391 . S
C1057 C1056 1.386 . S
C1057 C1061 1.393 . S
C1058 H1050 0.950 . S
C1058 C1056 1.391 . S
C1058 C1059 1.400 . S
C1059 C1058 1.400 . S
C1059 C1060 1.398 . S
C1059 C1065 1.491 . S
C1060 H1051 0.950 . S
C1060 C1059 1.398 . S
C1060 C1061 1.391 . S
C1061 H1049 0.950 . S
C1061 C1057 1.393 . S
C1061 C1060 1.391 . S
C1062 H1052 0.950 . S
C1062 C1063 1.386 . S
C1062 C1064 1.391 . S
C1063 C1062 1.386 . S
C1063 C1067 1.393 . S
C1064 H1053 0.950 . S
C1064 C1062 1.391 . S
C1064 C1065 1.400 . S
C1065 C1059 1.491 . S
C1065 C1064 1.400 . S
C1065 C1066 1.398 . S
C1066 H1054 0.950 . S
C1066 C1065 1.398 . S
C1066 C1067 1.391 . S
C1067 H1055 0.950 . S
C1067 C1063 1.393 . S
C1067 C1066 1.391 . S
H1068 C1076 0.950 . S
H1069 C1081 0.950 . S
H1070 C1078 0.950 . S
H1071 C1080 0.950 . S
H1072 C1082 0.950 . S
H1073 C1084 0.950 1_556 S
H1074 C1086 0.950 . S
H1075 C1087 0.950 . S
C1076 H1068 0.950 . S
C1076 C1077 1.386 . S
C1076 C1078 1.391 . S
C1077 C1076 1.386 . S
C1077 C1081 1.393 . S
C1078 H1070 0.950 . S
C1078 C1076 1.391 . S
C1078 C1079 1.400 . S
C1079 C1078 1.400 . S
C1079 C1080 1.398 . S
C1079 C1085 1.501 . S
C1080 H1071 0.950 . S
C1080 C1079 1.398 . S
C1080 C1081 1.391 . S
C1081 H1069 0.950 . S
C1081 C1077 1.393 . S
C1081 C1080 1.391 . S
C1082 H1072 0.950 . S
C1082 C1083 1.386 . S
C1082 C1084 1.391 . S
C1083 C1082 1.386 . S
C1083 C1087 1.393 . S
C1084 H1073 0.950 1_554 S
C1084 C1082 1.391 . S
C1084 C1085 1.397 1_554 S
C1085 C1079 1.501 . S
C1085 C1084 1.397 1_556 S
C1085 C1086 1.391 1_556 S
C1086 H1074 0.950 . S
C1086 C1085 1.391 1_554 S
C1086 C1087 1.391 . S
C1087 H1075 0.950 . S
C1087 C1083 1.393 . S
C1087 C1086 1.391 . S
H1088 C1096 0.950 . S
H1089 C1101 0.950 . S
H1090 C1098 0.950 . S
H1091 C1100 0.950 . S
H1092 C1102 0.950 . S
H1093 C1104 0.950 . S
H1094 C1106 0.950 . S
H1095 C1107 0.950 . S
C1096 H1088 0.950 . S
C1096 C1097 1.386 . S
C1096 C1098 1.391 . S
C1097 C1096 1.386 . S
C1097 C1101 1.393 . S
C1098 H1090 0.950 . S
C1098 C1096 1.391 . S
C1098 C1099 1.400 . S
C1099 C1098 1.400 . S
C1099 C1100 1.398 . S
C1099 C1105 1.491 . S
C1100 H1091 0.950 . S
C1100 C1099 1.398 . S
C1100 C1101 1.391 . S
C1101 H1089 0.950 . S
C1101 C1097 1.393 . S
C1101 C1100 1.391 . S
C1102 H1092 0.950 . S
C1102 C1103 1.386 . S
C1102 C1104 1.391 . S
C1103 C1102 1.386 . S
C1103 C1107 1.393 . S
C1104 H1093 0.950 . S
C1104 C1102 1.391 . S
C1104 C1105 1.400 . S
C1105 C1099 1.491 . S
C1105 C1104 1.400 . S
C1105 C1106 1.398 . S
C1106 H1094 0.950 . S
C1106 C1105 1.398 . S
C1106 C1107 1.391 . S
C1107 H1095 0.950 . S
C1107 C1103 1.393 . S
C1107 C1106 1.391 . S
H1108 C1116 0.950 . S
H1109 C1121 0.950 . S
H1110 C1118 0.950 . S
H1111 C1120 0.950 . S
H1112 C1122 0.950 . S
H1113 C1124 0.950 . S
H1114 C1126 0.950 . S
H1115 C1127 0.950 . S
C1116 H1108 0.950 . S
C1116 C1117 1.386 . S
C1116 C1118 1.391 . S
C1117 C1116 1.386 . S
C1117 C1121 1.393 . S
C1118 H1110 0.950 . S
C1118 C1116 1.391 . S
C1118 C1119 1.400 . S
C1119 C1118 1.400 . S
C1119 C1120 1.398 . S
C1119 C1125 1.491 . S
C1120 H1111 0.950 . S
C1120 C1119 1.398 . S
C1120 C1121 1.391 . S
C1121 H1109 0.950 . S
C1121 C1117 1.393 . S
C1121 C1120 1.391 . S
C1122 H1112 0.950 . S
C1122 C1123 1.386 . S
C1122 C1124 1.391 . S
C1123 C1122 1.386 . S
C1123 C1127 1.393 . S
C1124 H1113 0.950 . S
C1124 C1122 1.391 . S
C1124 C1125 1.400 . S
C1125 C1119 1.491 . S
C1125 C1124 1.400 . S
C1125 C1126 1.398 . S
C1126 H1114 0.950 . S
C1126 C1125 1.398 . S
C1126 C1127 1.391 . S
C1127 H1115 0.950 . S
C1127 C1123 1.393 . S
C1127 C1126 1.391 . S
H1128 C1136 0.950 . S
H1129 C1141 0.950 . S
H1130 C1138 0.950 . S
H1131 C1140 0.950 . S
H1132 C1142 0.950 . S
H1133 C1144 0.950 . S
H1134 C1146 0.950 . S
H1135 C1147 0.950 . S
C1136 H1128 0.950 . S
C1136 C1137 1.386 . S
C1136 C1138 1.391 . S
C1137 C1136 1.386 . S
C1137 C1141 1.393 . S
C1138 H1130 0.950 . S
C1138 C1136 1.391 . S
C1138 C1139 1.400 . S
C1139 C1138 1.400 . S
C1139 C1140 1.398 . S
C1139 C1145 1.491 . S
C1140 H1131 0.950 . S
C1140 C1139 1.398 . S
C1140 C1141 1.391 . S
C1141 H1129 0.950 . S
C1141 C1137 1.393 . S
C1141 C1140 1.391 . S
C1142 H1132 0.950 . S
C1142 C1143 1.386 . S
C1142 C1144 1.391 . S
C1143 C1142 1.386 . S
C1143 C1147 1.393 . S
C1144 H1133 0.950 . S
C1144 C1142 1.391 . S
C1144 C1145 1.400 . S
C1145 C1139 1.491 . S
C1145 C1144 1.400 . S
C1145 C1146 1.398 . S
C1146 H1134 0.950 . S
C1146 C1145 1.398 . S
C1146 C1147 1.391 . S
C1147 H1135 0.950 . S
C1147 C1143 1.393 . S
C1147 C1146 1.391 . S
H1148 C1156 0.950 . S
H1149 C1161 0.950 . S
H1150 C1158 0.950 . S
H1151 C1160 0.950 . S
H1152 C1162 0.950 . S
H1153 C1164 0.950 . S
H1154 C1166 0.950 . S
H1155 C1167 0.950 . S
C1156 H1148 0.950 . S
C1156 C1157 1.386 . S
C1156 C1158 1.391 . S
C1157 C1156 1.386 . S
C1157 C1161 1.393 . S
C1158 H1150 0.950 . S
C1158 C1156 1.391 . S
C1158 C1159 1.400 . S
C1159 C1158 1.400 . S
C1159 C1160 1.398 . S
C1159 C1165 1.491 . S
C1160 H1151 0.950 . S
C1160 C1159 1.398 . S
C1160 C1161 1.391 . S
C1161 H1149 0.950 . S
C1161 C1157 1.393 . S
C1161 C1160 1.391 . S
C1162 H1152 0.950 . S
C1162 C1163 1.386 . S
C1162 C1164 1.391 . S
C1163 C1162 1.386 . S
C1163 C1167 1.393 . S
C1164 H1153 0.950 . S
C1164 C1162 1.391 . S
C1164 C1165 1.400 . S
C1165 C1159 1.491 . S
C1165 C1164 1.400 . S
C1165 C1166 1.398 . S
C1166 H1154 0.950 . S
C1166 C1165 1.398 . S
C1166 C1167 1.391 . S
C1167 H1155 0.950 . S
C1167 C1163 1.393 . S
C1167 C1166 1.391 . S
H1168 C1176 0.950 . S
H1169 C1181 0.950 . S
H1170 C1178 0.950 . S
H1171 C1180 0.950 . S
H1172 C1182 0.950 . S
H1173 C1184 0.950 . S
H1174 C1186 0.950 . S
H1175 C1187 0.950 . S
C1176 H1168 0.950 . S
C1176 C1177 1.386 . S
C1176 C1178 1.391 . S
C1177 C1176 1.386 . S
C1177 C1181 1.393 . S
C1178 H1170 0.950 . S
C1178 C1176 1.391 . S
C1178 C1179 1.400 . S
C1179 C1178 1.400 . S
C1179 C1180 1.398 . S
C1179 C1185 1.491 . S
C1180 H1171 0.950 . S
C1180 C1179 1.398 . S
C1180 C1181 1.391 . S
C1181 H1169 0.950 . S
C1181 C1177 1.393 . S
C1181 C1180 1.391 . S
C1182 H1172 0.950 . S
C1182 C1183 1.386 . S
C1182 C1184 1.391 . S
C1183 C1182 1.386 . S
C1183 C1187 1.393 . S
C1184 H1173 0.950 . S
C1184 C1182 1.391 . S
C1184 C1185 1.400 . S
C1185 C1179 1.491 . S
C1185 C1184 1.400 . S
C1185 C1186 1.398 . S
C1186 H1174 0.950 . S
C1186 C1185 1.398 . S
C1186 C1187 1.391 . S
C1187 H1175 0.950 . S
C1187 C1183 1.393 . S
C1187 C1186 1.391 . S
H1188 C1196 0.950 . S
H1189 C1201 0.950 . S
H1190 C1198 0.950 . S
H1191 C1200 0.950 . S
H1192 C1202 0.950 . S
H1193 C1204 0.950 . S
H1194 C1206 0.950 . S
H1195 C1207 0.950 . S
C1196 H1188 0.950 . S
C1196 C1197 1.386 . S
C1196 C1198 1.391 . S
C1197 C1196 1.386 . S
C1197 C1201 1.393 . S
C1198 H1190 0.950 . S
C1198 C1196 1.391 . S
C1198 C1199 1.400 . S
C1199 C1198 1.400 . S
C1199 C1200 1.398 . S
C1199 C1205 1.491 . S
C1200 H1191 0.950 . S
C1200 C1199 1.398 . S
C1200 C1201 1.391 . S
C1201 H1189 0.950 . S
C1201 C1197 1.393 . S
C1201 C1200 1.391 . S
C1202 H1192 0.950 . S
C1202 C1203 1.386 . S
C1202 C1204 1.391 . S
C1203 C1202 1.386 . S
C1203 C1207 1.393 . S
C1204 H1193 0.950 . S
C1204 C1202 1.391 . S
C1204 C1205 1.400 . S
C1205 C1199 1.491 . S
C1205 C1204 1.400 . S
C1205 C1206 1.398 . S
C1206 H1194 0.950 . S
C1206 C1205 1.398 . S
C1206 C1207 1.391 . S
C1207 H1195 0.950 . S
C1207 C1203 1.393 . S
C1207 C1206 1.391 . S
H1208 C1216 0.950 . S
H1209 C1221 0.950 . S
H1210 C1218 0.950 1_556 S
H1211 C1220 0.950 . S
H1212 C1222 0.950 . S
H1213 C1224 0.950 . S
H1214 C1226 0.950 . S
H1215 C1227 0.950 . S
C1216 H1208 0.950 . S
C1216 C1217 1.386 . S
C1216 C1218 1.391 . S
C1217 C1216 1.386 . S
C1217 C1221 1.393 . S
C1218 H1210 0.950 1_554 S
C1218 C1216 1.391 . S
C1218 C1219 1.400 . S
C1219 C1218 1.400 . S
C1219 C1220 1.398 . S
C1219 C1225 1.491 1_554 S
C1220 H1211 0.950 . S
C1220 C1219 1.398 . S
C1220 C1221 1.391 . S
C1221 H1209 0.950 . S
C1221 C1217 1.393 . S
C1221 C1220 1.391 . S
C1222 H1212 0.950 . S
C1222 C1223 1.386 . S
C1222 C1224 1.391 . S
C1223 C1222 1.386 . S
C1223 C1227 1.393 . S
C1224 H1213 0.950 . S
C1224 C1222 1.391 . S
C1224 C1225 1.400 . S
C1225 C1219 1.491 1_556 S
C1225 C1224 1.400 . S
C1225 C1226 1.398 . S
C1226 H1214 0.950 . S
C1226 C1225 1.398 . S
C1226 C1227 1.391 . S
C1227 H1215 0.950 . S
C1227 C1223 1.393 . S
C1227 C1226 1.391 . S
H1228 C1236 0.950 . S
H1229 C1241 0.950 . S
H1230 C1238 0.950 . S
H1231 C1240 0.950 . S
H1232 C1242 0.950 . S
H1233 C1244 0.950 . S
H1234 C1246 0.950 . S
H1235 C1247 0.950 . S
C1236 H1228 0.950 . S
C1236 C1237 1.386 . S
C1236 C1238 1.391 . S
C1237 C1236 1.386 . S
C1237 C1241 1.393 . S
C1238 H1230 0.950 . S
C1238 C1236 1.391 . S
C1238 C1239 1.400 . S
C1239 C1238 1.400 . S
C1239 C1240 1.398 . S
C1239 C1245 1.491 . S
C1240 H1231 0.950 . S
C1240 C1239 1.398 . S
C1240 C1241 1.391 . S
C1241 H1229 0.950 . S
C1241 C1237 1.393 . S
C1241 C1240 1.391 . S
C1242 H1232 0.950 . S
C1242 C1243 1.386 . S
C1242 C1244 1.391 . S
C1243 C1242 1.386 . S
C1243 C1247 1.393 . S
C1244 H1233 0.950 . S
C1244 C1242 1.391 . S
C1244 C1245 1.400 . S
C1245 C1239 1.491 . S
C1245 C1244 1.400 . S
C1245 C1246 1.398 . S
C1246 H1234 0.950 . S
C1246 C1245 1.398 . S
C1246 C1247 1.391 . S
C1247 H1235 0.950 . S
C1247 C1243 1.393 . S
C1247 C1246 1.391 . S
C783 C761 1.961 . S
C777 C1 1.468 . S
C797 C169 1.008 . S
C803 C690 1.493 . S
C817 C283 1.751 . S
C823 C704 2.043 . S
C837 C397 0.937 . S
C843 C718 1.385 . S
C863 C732 1.812 . S
C857 C457 1.369 . S
C877 C571 1.136 . S
C883 C747 1.309 . S
C897 C115 1.245 . S
C903 C705 1.393 . S
C917 C229 1.358 . S
C923 C719 1.831 . S
C937 C343 1.143 . S
C943 C733 1.307 . S
C963 C746 1.909 . S
C957 C511 1.620 . S
C983 C760 1.495 . S
C977 C625 1.048 . S
C1003 C691 2.072 . S
C997 C55 1.796 . S
C1017 C29 1.148 . S
C1023 C707 1.470 . S
C1037 C125 1.144 . S
C1043 C721 1.935 . S
C1063 C735 1.482 . S
C1057 C239 0.967 . S
C1077 C353 1.101 . S
C1083 C748 1.892 . S
C1103 C762 1.428 . S
C1097 C485 1.069 . S
C1123 C693 1.881 . S
C1117 C599 1.708 . S
C1143 C763 1.877 . S
C1137 C143 1.697 . S
C1157 C257 1.086 . S
C1163 C692 1.488 . S
C1183 C706 1.833 . S
C1177 C371 1.654 . S
C1197 C467 0.998 . S
C1203 C720 1.484 . S
C1217 C581 1.105 . S
C1223 C734 1.881 . S
C1237 C11 1.003 . S
C1243 C749 1.538 . S
