# Generated by pormake.
# Topology zzz, (3,6)-cn, num edge types: 1
# Building blocks:
#     Node 0, Type 0, BuildingBlock: CUQRIR_clean_linker_1, # of connection points: 3
#     Node 1, Type 0, BuildingBlock: CUQRIR_clean_linker_1, # of connection points: 3
#     Node 2, Type 0, BuildingBlock: CUQRIR_clean_linker_1, # of connection points: 3
#     Node 3, Type 0, BuildingBlock: CUQRIR_clean_linker_1, # of connection points: 3
#     Node 4, Type 0, BuildingBlock: CUQRIR_clean_linker_1, # of connection points: 3
#     Node 5, Type 0, BuildingBlock: CUQRIR_clean_linker_1, # of connection points: 3
#     Node 6, Type 0, BuildingBlock: CUQRIR_clean_linker_1, # of connection points: 3
#     Node 7, Type 0, BuildingBlock: CUQRIR_clean_linker_1, # of connection points: 3
#     Node 8, Type 1, BuildingBlock: NUHQIS_clean_sbu_0, # of connection points: 6
#     Node 9, Type 1, BuildingBlock: NUHQIS_clean_sbu_0, # of connection points: 6
#     Node 10, Type 1, BuildingBlock: NUHQIS_clean_sbu_0, # of connection points: 6
#     Node 11, Type 1, BuildingBlock: NUHQIS_clean_sbu_0, # of connection points: 6
#     Edge 12, Type (0, 1), BuildingBlock: EZIPEK_clean_linker_0, # of connection points: 2
#     Edge 13, Type (0, 1), BuildingBlock: EZIPEK_clean_linker_0, # of connection points: 2
#     Edge 14, Type (0, 1), BuildingBlock: EZIPEK_clean_linker_0, # of connection points: 2
#     Edge 15, Type (0, 1), BuildingBlock: EZIPEK_clean_linker_0, # of connection points: 2
#     Edge 16, Type (0, 1), BuildingBlock: EZIPEK_clean_linker_0, # of connection points: 2
#     Edge 17, Type (0, 1), BuildingBlock: EZIPEK_clean_linker_0, # of connection points: 2
#     Edge 18, Type (0, 1), BuildingBlock: EZIPEK_clean_linker_0, # of connection points: 2
#     Edge 19, Type (0, 1), BuildingBlock: EZIPEK_clean_linker_0, # of connection points: 2
#     Edge 20, Type (0, 1), BuildingBlock: EZIPEK_clean_linker_0, # of connection points: 2
#     Edge 21, Type (0, 1), BuildingBlock: EZIPEK_clean_linker_0, # of connection points: 2
#     Edge 22, Type (0, 1), BuildingBlock: EZIPEK_clean_linker_0, # of connection points: 2
#     Edge 23, Type (0, 1), BuildingBlock: EZIPEK_clean_linker_0, # of connection points: 2
#     Edge 24, Type (0, 1), BuildingBlock: EZIPEK_clean_linker_0, # of connection points: 2
#     Edge 25, Type (0, 1), BuildingBlock: EZIPEK_clean_linker_0, # of connection points: 2
#     Edge 26, Type (0, 1), BuildingBlock: EZIPEK_clean_linker_0, # of connection points: 2
#     Edge 27, Type (0, 1), BuildingBlock: EZIPEK_clean_linker_0, # of connection points: 2
#     Edge 28, Type (0, 1), BuildingBlock: EZIPEK_clean_linker_0, # of connection points: 2
#     Edge 29, Type (0, 1), BuildingBlock: EZIPEK_clean_linker_0, # of connection points: 2
#     Edge 30, Type (0, 1), BuildingBlock: EZIPEK_clean_linker_0, # of connection points: 2
#     Edge 31, Type (0, 1), BuildingBlock: EZIPEK_clean_linker_0, # of connection points: 2
#     Edge 32, Type (0, 1), BuildingBlock: EZIPEK_clean_linker_0, # of connection points: 2
#     Edge 33, Type (0, 1), BuildingBlock: EZIPEK_clean_linker_0, # of connection points: 2
#     Edge 34, Type (0, 1), BuildingBlock: EZIPEK_clean_linker_0, # of connection points: 2
#     Edge 35, Type (0, 1), BuildingBlock: EZIPEK_clean_linker_0, # of connection points: 2
# Relax obj value: 0.428
# Max RMSD: 0.189
# Mean RMSD: 0.135
data_MOF--net-zzz--node1-NUHQIS_clean_sbu_0--node2-CUQRIR_clean_linker_1--edge1-EZIPEK_clean_linker_0
_symmetry_space_group_name_H-M    P1
_symmetry_Int_Tables_number       1
_symmetry_cell_setting            triclinic
loop_
_symmetry_equiv_pos_as_xyz
'x, y, z'
_cell_length_a     34.341331
_cell_length_b     34.521763
_cell_length_c     9.4937001
_cell_angle_alpha  89.625399
_cell_angle_beta   89.633577
_cell_angle_gamma 90.069826
loop_
_atom_site_label
_atom_site_type_symbol
_atom_site_fract_x
_atom_site_fract_y
_atom_site_fract_z
_atom_type_partial_charge
C0 C 0.76494 0.53507 0.40075 0.0
N1 N 0.8017 0.52153 0.43029 0.0
N2 N 0.75376 0.52629 0.26424 0.0
C3 C 0.73918 0.55306 0.51012 0.0
C4 C 0.78617 0.50806 0.21474 0.0
N5 N 0.8129 0.50265 0.3164 0.0
C6 C 0.79412 0.49778 0.06309 0.0
H7 H 0.74244 0.53734 0.61173 0.0
H8 H 0.70823 0.55272 0.47801 0.0
H9 H 0.74854 0.58343 0.52712 0.0
H10 H 0.77396 0.51278 0.99011 0.0
H11 H 0.79206 0.46597 0.04909 0.0
H12 H 0.8245 0.50601 0.03527 0.0
C13 C 1.01146 0.77064 0.38005 0.0
N14 N 0.03918 0.79764 0.41671 0.0
N15 N 1.02683 0.74129 0.29836 0.0
C16 C 0.96912 0.77471 0.41511 0.0
C17 C 0.06457 0.75218 0.28539 0.0
N18 N 0.07192 0.78569 0.35436 0.0
C19 C 0.0937 0.73224 0.19117 0.0
H20 H 0.9651 0.77166 0.53073 0.0
H21 H 0.95142 0.75254 0.3606 0.0
H22 H 0.95907 0.80413 0.38478 0.0
H23 H 0.09396 0.7462 0.08582 0.0
H24 H 0.08566 0.70165 0.17452 0.0
H25 H 0.12348 0.73451 0.23497 0.0
C26 C 0.79622 1.02233 0.47079 0.0
N27 N 0.75866 0.03633 0.47927 0.0
N28 N 0.81137 1.02559 0.33532 0.0
C29 C 0.81843 1.00812 0.59598 0.0
C30 C 0.78072 0.04034 0.26381 0.0
N31 N 0.75112 0.0494 0.35094 0.0
C32 C 0.77904 0.04594 0.10569 0.0
H33 H 0.8136 0.02777 0.6864 0.0
H34 H 0.85002 1.00606 0.57234 0.0
H35 H 0.80724 0.97911 0.627 0.0
H36 H 0.75093 0.03513 0.065 0.0
H37 H 0.80258 0.0301 0.0502 0.0
H38 H 0.7806 0.07726 0.07928 0.0
C39 C 0.53118 0.79377 0.42401 0.0
N40 N 0.5177 0.7562 0.43511 0.0
N41 N 0.52661 0.80873 0.28888 0.0
C42 C 0.54599 0.81612 0.54723 0.0
C43 C 0.51165 0.77788 0.22009 0.0
N44 N 0.50368 0.74834 0.30891 0.0
C45 C 0.50544 0.77558 0.06271 0.0
H46 H 0.54779 0.84752 0.52321 0.0
H47 H 0.57534 0.80522 0.57528 0.0
H48 H 0.52669 0.81124 0.63983 0.0
H49 H 0.51648 0.7476 0.0224 0.0
H50 H 0.52086 0.799 1.00455 0.0
H51 H 0.47384 0.77653 0.03931 0.0
C52 C 0.2904 0.52575 0.2598 0.0
N53 N 0.25333 0.54104 0.25191 0.0
N54 N 0.30635 0.53007 0.39295 0.0
C55 C 0.3117 0.50989 0.13486 0.0
C56 C 0.27647 0.54667 0.46402 0.0
N57 N 0.24685 0.55599 0.37795 0.0
C58 C 0.27531 0.55364 0.62112 0.0
H59 H 0.30058 0.48038 0.11268 0.0
H60 H 0.34347 0.50843 0.15411 0.0
H61 H 0.3059 0.52817 0.04072 0.0
H62 H 0.2784 0.58504 0.64258 0.0
H63 H 0.29816 0.53715 0.67751 0.0
H64 H 0.24667 0.54456 0.66465 0.0
C65 C 0.03835 0.28817 0.2794 0.0
N66 N 1.02449 0.2505 0.27733 0.0
N67 N 0.0357 0.30456 0.41309 0.0
C68 C 0.05119 0.30925 0.14876 0.0
C69 C 1.02282 0.27381 0.48981 0.0
N70 N 1.01208 0.24388 0.40772 0.0
C71 C 1.02116 0.27205 0.64888 0.0
H72 H 0.08088 0.29938 0.11961 0.0
H73 H 0.05163 0.341 0.1642 0.0
H74 H 0.03164 0.30199 0.06012 0.0
H75 H 0.99049 0.27028 0.68589 0.0
H76 H 0.0359 0.29714 0.6978 0.0
H77 H 0.03576 0.24526 0.68589 0.0
C78 C 0.25802 0.02747 0.23562 0.0
N79 N 0.29562 1.01384 0.22525 0.0
N80 N 0.24313 1.02319 0.37086 0.0
C81 C 0.23526 0.04181 0.11184 0.0
C82 C 0.27394 1.00808 0.44054 0.0
N83 N 0.30356 0.99985 0.35206 0.0
C84 C 0.27556 1.00089 0.59774 0.0
H85 H 0.24336 0.07239 0.08995 0.0
H86 H 0.20348 0.04008 0.13288 0.0
H87 H 0.24274 1.02469 0.01692 0.0
H88 H 0.25158 1.01558 0.65493 0.0
H89 H 0.30342 1.01188 0.6401 0.0
H90 H 0.27467 0.96929 0.61978 0.0
C91 C 0.52691 0.26378 0.24439 0.0
N92 N 0.54222 0.30048 0.22759 0.0
N93 N 0.53177 0.24979 0.38051 0.0
C94 C 0.5101 0.24107 0.12549 0.0
C95 C 0.54894 0.28036 0.44415 0.0
N96 N 0.55769 0.30876 0.3512 0.0
C97 C 0.55704 0.28332 0.60018 0.0
H98 H 0.48073 0.25254 0.10101 0.0
H99 H 0.50776 0.20987 0.15267 0.0
H100 H 0.52844 0.24486 0.02972 0.0
H101 H 0.58881 0.28102 0.61907 0.0
H102 H 0.54123 0.26097 0.6625 0.0
H103 H 0.54777 0.31202 0.63955 0.0
Tb104 Tb 0.05255 1.01138 0.97496 0.0
Eu105 Eu 1.00098 0.03558 0.71377 0.0
C106 C 0.09526 0.03063 0.684 0.0
C107 C 1.0263 0.10134 0.96138 0.0
C108 C 0.12212 0.96421 0.23113 0.0
C109 C 0.17535 0.92074 0.17803 0.0
C110 C 0.15324 0.95343 0.14369 0.0
C111 C 0.11647 0.94539 0.35973 0.0
C112 C 0.13669 0.91178 0.39019 0.0
C113 C 0.1648 0.89742 0.29493 0.0
C114 C 0.09192 0.99117 0.1864 0.0
O115 O 0.99266 1.01492 0.06745 0.0
O116 O 0.95434 1.02192 0.87347 0.0
O117 O 1.0013 0.97035 0.69673 0.0
O118 O 0.05351 0.95795 0.83523 0.0
C119 C 0.95779 1.01776 1.00973 0.0
O120 O 0.95232 1.02298 0.57579 0.0
O121 O 0.99222 0.06954 0.52277 0.0
O122 O 0.06162 0.0268 0.62088 0.0
O123 O 0.09698 0.03152 0.82246 0.0
O124 O 0.04456 0.07313 0.02766 0.0
O125 O 1.00787 0.09356 0.84113 0.0
C126 C 0.02908 0.94674 0.73435 0.0
O127 O 0.1019 1.01926 0.10154 0.0
O128 O 0.05902 0.97525 0.15045 0.0
C129 C 0.92763 0.07661 0.45389 0.0
C130 C 0.89215 0.14782 0.45536 0.0
C131 C 0.8779 0.11902 0.54694 0.0
C132 C 0.8971 0.08339 0.55019 0.0
C133 C 0.93256 0.10116 0.33793 0.0
C134 C 0.91282 0.13612 0.33487 0.0
C135 C 0.96004 0.05153 0.49025 0.0
H136 H 0.19792 0.91176 0.10558 0.0
H137 H 0.15884 0.96857 0.04534 0.0
H138 H 0.09451 0.95524 0.43295 0.0
H139 H 0.12786 0.89576 0.48346 0.0
H140 H 0.85941 0.12678 0.6352 0.0
H141 H 0.892 0.06407 0.63872 0.0
H142 H 0.95509 0.09574 0.26002 0.0
H143 H 0.92193 0.15739 0.25769 0.0
Tb144 Tb 0.5337 0.05088 0.98083 0.0
Eu145 Eu 0.51748 1.0068 0.69201 0.0
C146 C 0.52077 0.10156 0.69376 0.0
C147 C 0.44539 1.0226 0.92355 0.0
C148 C 0.56459 0.11954 0.26112 0.0
C149 C 0.61021 0.16982 0.19454 0.0
C150 C 0.57441 0.15144 0.17499 0.0
C151 C 0.58548 0.11247 0.38416 0.0
C152 C 0.62047 0.13146 0.40455 0.0
C153 C 0.63581 0.15412 0.29406 0.0
C154 C 0.54142 0.08769 0.2076 0.0
O155 O 0.52868 0.99038 0.05463 0.0
O156 O 0.53499 0.95876 0.84544 0.0
O157 O 0.57998 1.02556 0.66212 0.0
O158 O 0.59415 0.04351 0.88762 0.0
C159 C 0.53342 0.95809 0.98385 0.0
O160 O 0.53665 0.96044 0.55326 0.0
O161 O 0.48911 0.99794 0.49101 0.0
O162 O 0.51668 0.06978 0.61971 0.0
O163 O 0.52619 0.09966 0.83114 0.0
O164 O 0.47125 0.03921 1.00439 0.0
O165 O 0.45623 1.00798 0.80007 0.0
C166 C 0.60571 0.03523 0.75658 0.0
O167 O 0.51582 0.0962 0.11208 0.0
O168 O 0.56133 0.05676 0.17515 0.0
C169 C 0.48722 0.93428 0.41257 0.0
C170 C 0.41769 0.89515 0.3919 0.0
C171 C 0.44552 0.88139 0.48732 0.0
C172 C 0.48017 0.90223 0.50151 0.0
C173 C 0.46433 0.9398 0.29329 0.0
C174 C 0.43029 0.91871 0.27943 0.0
C175 C 0.50978 0.96733 0.46041 0.0
H176 H 0.62105 0.18904 0.11255 0.0
H177 H 0.55795 0.15801 0.08091 0.0
H178 H 0.57789 0.08854 0.45338 0.0
H179 H 0.63923 0.12081 0.4874 0.0
H180 H 0.43705 0.86139 0.57043 0.0
H181 H 0.49807 0.89693 0.59308 0.0
H182 H 0.46966 0.96387 0.2219 0.0
H183 H 0.40985 0.92812 0.20052 0.0
Tb184 Tb 0.51096 0.53548 0.96074 0.0
Eu185 Eu 0.55312 0.5167 0.66667 0.0
C186 C 0.45838 0.52012 0.68005 0.0
C187 C 0.5379 0.44722 0.90928 0.0
C188 C 0.44082 0.56362 0.24683 0.0
C189 C 0.38596 0.60391 0.18512 0.0
C190 C 0.40757 0.5701 0.16422 0.0
C191 C 0.44627 0.58509 0.36921 0.0
C192 C 0.42426 0.61818 0.39009 0.0
C193 C 0.40021 0.63125 0.28057 0.0
C194 C 0.47457 0.54331 0.19074 0.0
O195 O 0.57246 0.53383 0.0275 0.0
O196 O 0.60343 0.53078 0.81392 0.0
O197 O 0.53589 0.57942 0.63621 0.0
O198 O 0.51573 0.59491 0.85911 0.0
C199 C 0.6048 0.53354 0.95199 0.0
O200 O 0.5975 0.53618 0.51743 0.0
O201 O 0.56212 0.48597 0.46976 0.0
O202 O 0.48973 0.51801 0.60055 0.0
O203 O 0.46134 0.52403 0.81799 0.0
O204 O 0.52673 0.47468 0.99513 0.0
O205 O 0.54779 0.45603 0.77705 0.0
C206 C 0.52472 0.60554 0.72725 0.0
O207 O 0.46774 0.51591 0.10094 0.0
O208 O 0.50341 0.56551 0.14996 0.0
C209 C 0.62545 0.48725 0.37932 0.0
C210 C 0.667 0.41953 0.35892 0.0
C211 C 0.68035 0.44819 0.45098 0.0
C212 C 0.6581 0.4818 0.46595 0.0
C213 C 0.62093 0.46431 0.26001 0.0
C214 C 0.64336 0.43117 0.24614 0.0
C215 C 0.59128 0.50796 0.43018 0.0
H216 H 0.36529 0.61256 0.10518 0.0
H217 H 0.40201 0.55285 0.0716 0.0
H218 H 0.47101 0.57979 0.43681 0.0
H219 H 0.43356 0.63796 0.47108 0.0
H220 H 0.70077 0.44075 0.5333 0.0
H221 H 0.66278 0.49989 0.55706 0.0
H222 H 0.59668 0.46874 0.18924 0.0
H223 H 0.63478 0.4104 0.16788 0.0
Tb224 Tb 1.01713 0.50479 0.95185 0.0
Eu225 Eu 0.03927 0.55452 0.69214 0.0
C226 C 0.03975 0.46239 0.66456 0.0
C227 C 0.10396 0.53584 0.945 0.0
C228 C 0.97276 0.42112 0.11563 0.0
C229 C 0.94304 0.36883 0.24442 0.0
C230 C 0.97663 0.38884 0.2033 0.0
C231 C 0.93818 0.42583 0.03933 0.0
C232 C 0.90558 0.40397 0.0765 0.0
C233 C 0.90698 0.38382 0.20515 0.0
C234 C 1.00021 0.4532 0.12806 0.0
O235 O 1.0052 0.56315 0.04072 0.0
O236 O 0.03112 0.6001 0.86439 0.0
O237 O 0.97373 0.54988 0.66492 0.0
O238 O 0.95999 0.50668 0.83933 0.0
C239 C 1.01322 0.59786 0.98782 0.0
O240 O 1.02508 0.60343 0.56023 0.0
O241 O 0.07347 0.56665 0.50172 0.0
O242 O 0.03048 0.49424 0.59718 0.0
O243 O 0.04542 0.46468 0.80083 0.0
O244 O 0.07397 0.52601 0.02464 0.0
O245 O 0.09816 0.54415 0.8095 0.0
C246 C 0.94823 0.52817 0.73179 0.0
O247 O 0.03055 0.45134 0.04657 0.0
O248 O 0.98482 0.48771 0.12924 0.0
C249 C 0.0758 0.63191 0.43102 0.0
C250 C 0.14448 0.67205 0.41843 0.0
C251 C 0.11607 0.68417 0.51513 0.0
C252 C 0.08191 0.66233 0.52634 0.0
C253 C 0.098 0.63023 0.30755 0.0
C254 C 0.13186 0.65214 0.29828 0.0
C255 C 0.05339 0.59777 0.47142 0.0
H256 H 0.94431 0.35013 0.33396 0.0
H257 H 1.00359 0.3837 0.25739 0.0
H258 H 0.93456 0.44979 0.96778 0.0
H259 H 0.87778 0.41286 0.03354 0.0
H260 H 0.1242 0.70232 0.60274 0.0
H261 H 0.06379 0.66547 0.61937 0.0
H262 H 0.09236 0.60839 0.22867 0.0
H263 H 0.15224 0.64551 0.21484 0.0
C264 C 0.18898 0.99224 0.51019 0.0
C265 C 0.20315 1.02459 0.43015 0.0
C266 C 0.14355 0.06007 0.50374 0.0
C267 C 0.13261 0.02933 0.59749 0.0
N268 N 0.14961 0.96817 0.70494 0.0
N269 N 0.19646 0.09242 0.37719 0.0
C270 C 0.15707 0.9963 0.60627 0.0
C271 C 0.18086 0.05933 0.43288 0.0
N272 N 0.20609 0.957 0.49269 0.0
N273 N 0.11869 0.09042 0.48398 0.0
H274 H 0.22427 0.09325 0.33277 0.0
H275 H 0.18348 0.11953 0.38723 0.0
H276 H 0.09239 0.09295 0.53876 0.0
H277 H 0.12299 0.11152 0.40645 0.0
H278 H 0.19847 0.93205 0.54815 0.0
H279 H 0.22581 0.95192 0.4119 0.0
H280 H 0.16908 0.94613 0.72984 0.0
H281 H 0.12533 0.9683 0.77088 0.0
C282 C 0.4929 0.18954 0.45113 0.0
C283 C 0.52852 0.21067 0.44548 0.0
C284 C 0.55399 0.16614 0.62962 0.0
C285 C 0.52133 0.14091 0.61755 0.0
N286 N 0.4597 0.12872 0.50431 0.0
N287 N 0.59662 0.21051 0.50597 0.0
C288 C 0.49104 0.15244 0.52285 0.0
C289 C 0.56005 0.19611 0.52743 0.0
N290 N 0.46007 0.20595 0.39737 0.0
N291 N 0.57978 0.16203 0.73749 0.0
H292 H 0.60304 0.22936 0.42343 0.0
H293 H 0.62122 0.20027 0.55799 0.0
H294 H 0.5774 0.14119 0.81619 0.0
H295 H 0.60144 0.18238 0.75793 0.0
H296 H 0.43245 0.19381 0.40945 0.0
H297 H 0.46003 0.23368 0.35327 0.0
H298 H 0.43923 0.13325 0.42533 0.0
H299 H 0.45515 0.10361 0.5638 0.0
C300 C 0.36173 0.55841 0.53075 0.0
C301 C 0.34653 0.5272 0.44952 0.0
C302 C 0.40631 0.49055 0.51456 0.0
C303 C 0.41828 0.52032 0.60973 0.0
N304 N 0.39742 0.57743 0.73679 0.0
N305 N 0.35184 0.45947 0.39579 0.0
C306 C 0.39273 0.55233 0.62769 0.0
C307 C 0.36833 0.49211 0.44916 0.0
N308 N 0.34696 0.59474 0.51372 0.0
N309 N 0.43049 0.46 0.4895 0.0
H310 H 0.32359 0.45919 0.35632 0.0
H311 H 0.36456 0.43217 0.40382 0.0
H312 H 0.45648 0.45583 0.54372 0.0
H313 H 0.42549 0.43994 0.41006 0.0
H314 H 0.35781 0.61909 0.56469 0.0
H315 H 0.32722 0.60123 0.43505 0.0
H316 H 0.37687 0.59853 0.7619 0.0
H317 H 0.41913 0.57499 0.81173 0.0
C318 C 1.00602 0.35949 0.55771 0.0
C319 C 0.03655 0.34529 0.46676 0.0
C320 C 0.06751 0.41067 0.49131 0.0
C321 C 0.03914 0.42247 0.59326 0.0
N322 N 0.9862 0.40251 0.74473 0.0
N323 N 0.10164 0.35663 0.38097 0.0
C324 C 1.0103 0.395 0.63328 0.0
C325 C 0.06869 0.3709 0.44216 0.0
N326 N 0.97148 0.34013 0.56941 0.0
N327 N 0.09395 0.43716 0.44287 0.0
H328 H 0.1044 0.3275 0.35452 0.0
H329 H 0.12731 0.37253 0.37071 0.0
H330 H 0.09492 0.46551 0.4802 0.0
H331 H 0.11281 0.43173 0.35891 0.0
H332 H 0.94693 0.35158 0.61892 0.0
H333 H 0.96517 0.3151 0.51494 0.0
H334 H 0.96881 0.38136 0.79252 0.0
H335 H 0.98561 0.42891 0.7966 0.0
C336 C 0.86447 0.05563 0.19003 0.0
C337 C 0.85135 1.02412 0.27572 0.0
C338 C 0.91106 0.98892 0.19963 0.0
C339 C 0.92086 1.01898 0.10069 0.0
N340 N 0.89635 0.07566 0.97571 0.0
N341 N 0.85938 0.95685 0.33469 0.0
C342 C 0.89428 0.05046 0.08714 0.0
C343 C 0.87417 0.9897 0.27444 0.0
N344 N 0.84823 0.09129 0.20693 0.0
N345 N 0.93594 0.95855 0.21761 0.0
H346 H 0.83192 0.95607 0.38195 0.0
H347 H 0.87259 0.92982 0.32609 0.0
H348 H 0.96076 0.95477 0.15545 0.0
H349 H 0.93276 0.93821 0.29844 0.0
H350 H 0.85675 0.11585 0.15019 0.0
H351 H 0.8294 0.09712 0.28959 0.0
H352 H 0.87418 0.09526 0.95252 0.0
H353 H 0.91785 0.07552 0.89857 0.0
C354 C 0.49707 0.86173 0.14135 0.0
C355 C 0.52835 0.84842 0.22777 0.0
C356 C 0.56291 0.90946 0.16278 0.0
C357 C 0.53361 0.91934 0.06228 0.0
N358 N 0.47828 0.89618 0.93051 0.0
N359 N 0.59571 0.85716 0.28839 0.0
C360 C 0.50275 0.89255 0.04257 0.0
C361 C 0.56258 0.8718 0.2306 0.0
N362 N 0.46107 0.84547 0.1556 0.0
N363 N 0.5917 0.93545 0.19128 0.0
H364 H 0.59713 0.82904 0.32862 0.0
H365 H 0.62248 0.87133 0.28287 0.0
H366 H 0.59432 0.9619 0.13828 0.0
H367 H 0.61137 0.93159 0.27335 0.0
H368 H 0.4367 0.85493 0.1003 0.0
H369 H 0.45461 0.82581 0.23534 0.0
H370 H 0.45809 0.87489 0.90409 0.0
H371 H 0.48038 0.91826 0.85589 0.0
C372 C 0.70222 0.4976 0.10482 0.0
C373 C 0.71577 0.52901 0.18954 0.0
C374 C 0.65531 0.56407 0.12078 0.0
C375 C 0.64433 0.53391 0.02614 0.0
N376 N 0.66656 0.4772 0.89986 0.0
N377 N 0.70909 0.59714 0.23531 0.0
C378 C 0.67099 0.50281 1.00765 0.0
C379 C 0.69322 0.56367 0.18629 0.0
N380 N 0.71746 0.46149 0.12236 0.0
N381 N 0.6302 0.59388 0.14555 0.0
H382 H 0.73773 0.59857 0.27064 0.0
H383 H 0.69558 0.62402 0.22525 0.0
H384 H 0.60391 0.59702 0.09228 0.0
H385 H 0.63472 0.61421 0.22453 0.0
H386 H 0.70784 0.43712 0.06851 0.0
H387 H 0.73589 0.45481 0.20461 0.0
H388 H 0.68796 0.45715 0.87262 0.0
H389 H 0.64368 0.4779 0.82899 0.0
C390 C 0.99732 0.67383 0.29254 0.0
C391 C 1.00935 0.70826 0.2218 0.0
C392 C 1.00527 0.67247 0.99559 0.0
C393 C 1.00391 0.63611 0.06858 0.0
N394 N 0.97585 0.60631 0.27724 0.0
N395 N 1.0148 0.74242 1.00338 0.0
C396 C 0.99286 0.63788 0.21496 0.0
C397 C 1.00986 0.70803 0.07219 0.0
N398 N 0.98996 0.67586 0.43372 0.0
N399 N 0.99799 0.67333 0.85414 0.0
H400 H 1.01373 0.76877 0.05642 0.0
H401 H 1.02049 0.74468 0.89617 0.0
H402 H 0.98788 0.64916 0.80016 0.0
H403 H 0.9964 0.69849 0.79364 0.0
H404 H 0.97801 0.65372 0.49445 0.0
H405 H 0.9951 0.70093 0.49124 0.0
H406 H 0.9665 0.60509 0.3814 0.0
H407 H 0.96615 0.58261 0.22042 0.0
C408 C 0.93968 0.23804 0.39786 0.0
C409 C 0.97682 0.22297 0.4392 0.0
C410 C 0.94377 0.17661 0.5891 0.0
C411 C 0.9087 0.18344 0.51621 0.0
N412 N 0.87012 0.22526 0.37459 0.0
N413 N 1.01406 0.17583 0.56596 0.0
C414 C 0.9054 0.2169 0.43256 0.0
C415 C 0.9788 0.19159 0.53313 0.0
N416 N 0.93718 0.27207 0.32547 0.0
N417 N 0.94366 0.15373 0.70549 0.0
H418 H 0.0401 0.18659 0.52385 0.0
H419 H 1.01713 0.15027 0.62373 0.0
H420 H 0.91787 0.14476 0.75439 0.0
H421 H 0.96902 0.14793 0.75968 0.0
H422 H 0.91103 0.28596 0.30333 0.0
H423 H 0.96158 0.28778 0.29484 0.0
H424 H 0.86572 0.24631 0.29737 0.0
H425 H 0.84532 0.20931 0.40259 0.0
C426 C 0.32021 0.93009 0.33289 0.0
C427 C 0.32968 0.96834 0.37782 0.0
C428 C 0.3806 0.9419 0.52238 0.0
C429 C 0.3792 0.90696 0.44588 0.0
N430 N 0.34477 0.86507 0.29112 0.0
N431 N 0.37176 1.0112 0.50343 0.0
C432 C 0.34709 0.89971 0.35865 0.0
C433 C 0.36085 0.97442 0.46935 0.0
N434 N 0.28597 0.9229 0.26627 0.0
N435 N 0.40277 0.94453 0.63949 0.0
H436 H 0.35728 0.03552 0.46425 0.0
H437 H 0.39696 1.01744 0.55964 0.0
H438 H 0.41528 0.92028 0.68687 0.0
H439 H 0.40401 0.9699 0.6969 0.0
H440 H 0.276 0.89509 0.24437 0.0
H441 H 0.2666 0.94479 0.23931 0.0
H442 H 0.32478 0.85926 0.21194 0.0
H443 H 0.36451 0.84279 0.3126 0.0
C444 C 0.62813 0.32271 0.31973 0.0
C445 C 0.59048 0.33385 0.36919 0.0
C446 C 0.62008 0.38507 0.50172 0.0
C447 C 0.65432 0.38199 0.41921 0.0
N448 N 0.69349 0.34498 0.26088 0.0
N449 N 0.55 0.37845 0.49505 0.0
C450 C 0.65965 0.34894 0.33517 0.0
C451 C 0.58623 0.36606 0.45661 0.0
N452 N 0.63367 0.28751 0.25879 0.0
N453 N 0.61948 0.40787 0.61732 0.0
H454 H 0.52473 0.36441 0.46212 0.0
H455 H 0.54511 0.40428 0.54844 0.0
H456 H 0.64489 0.41871 0.66181 0.0
H457 H 0.59435 0.41151 0.67626 0.0
H458 H 0.6611 0.27666 0.23329 0.0
H459 H 0.6109 0.26831 0.24098 0.0
H460 H 0.69773 0.32404 0.18379 0.0
H461 H 0.71661 0.36429 0.27425 0.0
C462 C 0.23721 0.62705 0.3579 0.0
C463 C 0.22362 0.58973 0.40218 0.0
C464 C 0.17541 0.62039 0.5489 0.0
C465 C 0.18101 0.65562 0.47444 0.0
N466 N 0.22103 0.69527 0.3266 0.0
N467 N 0.17752 0.55057 0.52891 0.0
C468 C 0.21426 0.66014 0.38868 0.0
C469 C 0.19181 0.58633 0.49433 0.0
N470 N 0.27156 0.63073 0.28645 0.0
N471 N 0.15295 0.6194 0.66693 0.0
H472 H 0.18977 0.52516 0.48949 0.0
H473 H 0.15183 0.54636 0.58584 0.0
H474 H 0.14416 0.64462 0.71783 0.0
H475 H 0.14718 0.59381 0.72075 0.0
H476 H 0.28449 0.65728 0.26274 0.0
H477 H 0.28817 0.60701 0.25629 0.0
H478 H 0.24191 0.70008 0.24845 0.0
H479 H 0.20404 0.71938 0.35205 0.0
C480 C 0.11704 0.82177 0.19863 0.0
C481 C 0.1071 0.80796 0.33533 0.0
C482 C 0.16799 0.83523 0.42375 0.0
C483 C 0.17192 0.85487 0.29328 0.0
N484 N 0.17136 0.83925 0.04772 0.0
N485 N 0.13017 0.78926 0.56489 0.0
C486 C 0.15425 0.83762 0.17715 0.0
C487 C 0.1351 0.81041 0.44461 0.0
N488 N 0.09078 0.82147 0.09207 0.0
N489 N 0.19271 0.84463 0.52964 0.0
H490 H 0.10672 0.77037 0.57774 0.0
H491 H 0.15038 0.78844 0.6461 0.0
H492 H 0.21612 0.86338 0.51067 0.0
H493 H 0.18964 0.8348 0.633 0.0
H494 H 0.09687 0.83366 0.99355 0.0
H495 H 0.06218 0.81229 0.10743 0.0
H496 H 0.15922 0.82601 0.95977 0.0
H497 H 0.19954 0.85015 0.03475 0.0
C498 C 0.69324 0.07234 0.23119 0.0
C499 C 0.72455 0.0801 0.32039 0.0
C500 C 0.70604 0.14849 0.33017 0.0
C501 C 0.67386 0.13987 0.24584 0.0
N502 N 0.64893 0.09912 0.0627 0.0
N503 N 0.76557 0.1286 0.43274 0.0
C504 C 0.67211 0.10374 0.17644 0.0
C505 C 0.7329 0.11895 0.36139 0.0
N506 N 0.68318 0.03498 0.20209 0.0
N507 N 0.70992 0.18458 0.38559 0.0
H508 H 0.78697 0.10876 0.4614 0.0
H509 H 0.78697 0.10876 0.4614 0.0
H510 H 0.69018 0.20668 0.36186 0.0
H511 H 0.73273 0.19193 0.45253 0.0
H512 H 0.65779 0.02753 0.14907 0.0
H513 H 0.69873 1.01139 0.24171 0.0
H514 H 0.64868 0.07347 1.00639 0.0
H515 H 0.63485 0.12234 0.0147 0.0
C516 C 0.43403 0.72954 0.33002 0.0
C517 C 0.4728 0.72149 0.28384 0.0
C518 C 0.44836 0.66798 0.14904 0.0
C519 C 0.41289 0.66925 0.22565 0.0
N520 N 0.36909 0.70518 0.3718 0.0
N521 N 0.51757 0.68019 0.16174 0.0
C522 C 0.4046 0.70179 0.30845 0.0
C523 C 0.4802 0.68978 0.19655 0.0
N524 N 0.4244 0.76281 0.39715 0.0
N525 N 0.45195 0.64479 0.03509 0.0
H526 H 0.54142 0.6963 0.19586 0.0
H527 H 0.5249 0.65468 0.10979 0.0
H528 H 0.42802 0.63139 0.98929 0.0
H529 H 0.47753 0.6438 0.97676 0.0
H530 H 0.44418 0.78495 0.41778 0.0
H531 H 0.44418 0.78495 0.41778 0.0
H532 H 0.36212 0.72825 0.43792 0.0
H533 H 0.34715 0.6847 0.35594 0.0
C534 C 0.87779 0.4732 0.33215 0.0
C535 C 0.83723 0.46895 0.32402 0.0
C536 C 0.84399 0.3986 0.31825 0.0
C537 C 0.88456 0.4036 0.31714 0.0
N538 N 0.93576 0.44236 0.4191 0.0
N539 N 0.78252 0.42744 0.38212 0.0
C540 C 0.90001 0.43988 0.35906 0.0
C541 C 0.82026 0.43148 0.34032 0.0
N542 N 0.89491 0.50843 0.31222 0.0
N543 N 0.82852 0.36315 0.29038 0.0
H544 H 0.76559 0.45122 0.40994 0.0
H545 H 0.76988 0.40061 0.40444 0.0
H546 H 0.84628 0.33883 0.27778 0.0
H547 H 0.7988 0.35868 0.27524 0.0
H548 H 0.92505 0.51215 0.3109 0.0
H549 H 0.87878 0.53295 0.28524 0.0
H550 H 0.94754 0.46849 0.45343 0.0
H551 H 0.95067 0.41761 0.45087 0.0
C552 C 0.99611 0.20629 0.09076 0.0
C553 C 1.0284 0.21854 0.17243 0.0
C554 C 0.0622 0.15832 0.08951 0.0
C555 C 1.02731 0.14293 0.02833 0.0
N556 N 0.95797 0.15143 0.01365 0.0
N557 N 0.09153 0.20199 0.26075 0.0
C558 C 0.99351 0.16696 0.03995 0.0
C559 C 0.06123 0.19321 0.17449 0.0
N560 N 0.96807 0.23256 0.05802 0.0
N561 N 0.09693 0.14056 0.06262 0.0
H562 H 0.09237 0.2275 0.31902 0.0
H563 H 0.11429 0.18287 0.28117 0.0
H564 H 0.09949 0.11689 0.9956 0.0
H565 H 0.12361 0.15194 0.0937 0.0
H566 H 0.94497 0.22637 0.99108 0.0
H567 H 0.97149 0.26179 0.08175 0.0
H568 H 0.93198 0.16675 0.02351 0.0
H569 H 0.95475 0.12216 0.9923 0.0
C570 C 0.33966 0.98915 0.03249 0.0
C571 C 0.32659 1.02017 0.11786 0.0
C572 C 0.38606 0.05612 0.03998 0.0
C573 C 0.40268 1.02211 0.97816 0.0
N574 N 0.39569 0.9531 0.95129 0.0
N575 N 0.34053 0.08304 0.2114 0.0
C576 C 0.37933 0.98784 0.98274 0.0
C577 C 0.3507 0.0537 0.12305 0.0
N578 N 0.31385 0.96109 0.99617 0.0
N579 N 0.4034 0.0912 0.0165 0.0
H580 H 0.31458 0.08276 0.26913 0.0
H581 H 0.35894 0.10617 0.23388 0.0
H582 H 0.42777 0.09457 0.95139 0.0
H583 H 0.39111 0.11731 0.04843 0.0
H584 H 0.3208 0.93886 0.92656 0.0
H585 H 0.28435 0.96354 0.02131 0.0
H586 H 0.38102 0.92681 0.96339 0.0
H587 H 0.42511 0.95064 0.92666 0.0
C588 C 0.56732 0.34142 0.02521 0.0
C589 C 0.5364 0.33072 0.11768 0.0
C590 C 0.50266 0.39114 0.03994 0.0
C591 C 0.5368 0.40518 0.96857 0.0
N592 N 0.60523 0.39463 0.92886 0.0
N593 N 0.47508 0.34848 0.22074 0.0
C594 C 0.56999 0.38028 0.9692 0.0
C595 C 0.50409 0.35645 0.12608 0.0
N596 N 0.59413 0.31419 0.98927 0.0
N597 N 0.46833 0.41051 0.02337 0.0
H598 H 0.47458 0.32307 0.2808 0.0
H599 H 0.45311 0.36809 0.24583 0.0
H600 H 0.46569 0.43482 0.9583 0.0
H601 H 0.4418 0.40016 0.06199 0.0
H602 H 0.61604 0.31922 0.91485 0.0
H603 H 0.59088 0.28538 0.02102 0.0
H604 H 0.63101 0.37885 0.93628 0.0
H605 H 0.60896 0.4238 0.90397 0.0
C606 C 0.19576 0.50319 0.16013 0.0
C607 C 0.22129 0.53571 0.14888 0.0
C608 C 0.16932 0.56917 0.01265 0.0
C609 C 0.14517 0.53555 0.01124 0.0
N610 N 0.14049 0.46739 0.06637 0.0
N611 N 0.23545 0.59432 0.0225 0.0
C612 C 0.16002 0.50162 0.07995 0.0
C613 C 0.20892 0.567 0.06195 0.0
N614 N 0.20501 0.47406 0.25166 0.0
N615 N 0.15374 0.60413 0.97734 0.0
H616 H 0.2649 0.59099 0.04568 0.0
H617 H 0.22916 0.61662 0.95167 0.0
H618 H 0.12435 0.60738 0.95243 0.0
H619 H 0.16923 0.63003 0.98361 0.0
H620 H 0.18585 0.4518 0.27892 0.0
H621 H 0.2311 0.4737 0.3073 0.0
H622 H 0.1514 0.44098 0.10207 0.0
H623 H 0.11509 0.4648 1.00753 0.0
C624 C 0.03767 0.83502 0.64741 0.0
C625 C 0.03463 0.83426 0.49787 0.0
C626 C 1.02872 0.90637 0.50211 0.0
C627 C 0.03278 0.90762 0.6533 0.0
N628 N 0.0311 0.8703 0.86814 0.0
N629 N 0.03185 0.86819 0.28341 0.0
C630 C 0.0351 0.87109 0.72503 0.0
C631 C 0.03092 0.87001 0.42648 0.0
N632 N 0.04438 0.80098 0.71611 0.0
N633 N 1.02175 0.93993 0.4297 0.0
H634 H 0.03303 0.89204 0.21568 0.0
H635 H 0.03303 0.89204 0.21568 0.0
H636 H 1.02654 0.96736 0.47083 0.0
H637 H 1.01064 0.94075 0.32829 0.0
H638 H 0.05373 0.79964 0.82006 0.0
H639 H 0.04328 0.77433 0.66498 0.0
H640 H 1.02592 0.84496 0.92518 0.0
H641 H 1.02889 0.89526 0.92876 0.0
C642 C 0.7013 0.99874 0.57512 0.0
C643 C 0.72715 0.03092 0.58547 0.0
C644 C 0.67459 0.06574 0.71385 0.0
C645 C 0.64904 0.03317 0.71028 0.0
N646 N 0.64355 0.96486 0.66256 0.0
N647 N 0.73996 0.09014 0.71001 0.0
C648 C 0.66421 0.9985 0.64858 0.0
C649 C 0.7144 0.0625 0.66928 0.0
N650 N 0.71159 0.96873 0.48997 0.0
N651 N 0.66079 0.10089 0.75359 0.0
H652 H 0.7699 0.0878 0.69268 0.0
H653 H 0.7699 0.0878 0.69268 0.0
H654 H 0.63148 0.10511 0.77658 0.0
H655 H 0.67828 0.12566 0.75473 0.0
H656 H 0.69251 0.94664 0.46205 0.0
H657 H 0.73877 0.96735 0.44052 0.0
H658 H 0.65425 0.93799 0.63171 0.0
H659 H 0.61726 0.96321 0.71799 0.0
C660 C 0.49343 0.71209 0.63038 0.0
C661 C 0.52433 0.72515 0.5416 0.0
C662 C 0.55911 0.66405 0.60707 0.0
C663 C 0.52516 0.64834 0.67521 0.0
N664 N 0.45703 0.65828 0.7254 0.0
N665 N 0.58654 0.71065 0.43892 0.0
C666 C 0.49171 0.67279 0.68011 0.0
C667 C 0.55729 0.70028 0.52945 0.0
N668 N 0.46485 0.73684 0.67036 0.0
N669 N 0.59368 0.64483 0.61924 0.0
H670 H 0.58679 0.73723 0.386 0.0
H671 H 0.60905 0.69207 0.41006 0.0
H672 H 0.59657 0.61937 0.67803 0.0
H673 H 0.62012 0.65612 0.58356 0.0
H674 H 0.46596 0.76648 0.64844 0.0
H675 H 0.46596 0.76648 0.64844 0.0
H676 H 0.43165 0.67491 0.72829 0.0
H677 H 0.45369 0.62909 0.75009 0.0
C678 C 0.85321 0.56238 0.5446 0.0
C679 C 0.82906 0.52888 0.54722 0.0
C680 C 0.88078 0.4951 0.68212 0.0
C681 C 0.90524 0.52878 0.68174 0.0
N682 N 0.90561 0.5985 0.65403 0.0
N683 N 0.81482 0.46922 0.66525 0.0
C684 C 0.88856 0.56367 0.62587 0.0
C685 C 0.84112 0.49755 0.63389 0.0
N686 N 0.84356 0.59246 0.45797 0.0
N687 N 0.89604 0.45975 0.71414 0.0
H688 H 0.78591 0.4714 0.63273 0.0
H689 H 0.82056 0.44666 0.73558 0.0
H690 H 0.92563 0.4556 0.72958 0.0
H691 H 0.88042 0.434 0.70504 0.0
H692 H 0.86226 0.61561 0.43682 0.0
H693 H 0.81776 0.59284 0.40064 0.0
H694 H 0.8933 0.62492 0.62502 0.0
H695 H 0.92924 0.60123 0.72164 0.0
loop_
_geom_bond_atom_site_label_1
_geom_bond_atom_site_label_2
_geom_bond_distance
_geom_bond_site_symmetry_2
_ccdc_geom_bond_type
C0 N1 1.317 . S
C0 N2 1.348 . S
C0 C3 1.485 . S
N1 C0 1.317 . S
N1 N5 1.370 . S
N2 C0 1.348 . S
N2 C4 1.346 . S
C3 C0 1.485 . S
C3 H7 0.960 . S
C3 H8 0.961 . S
C3 H9 0.960 . S
C4 N2 1.346 . S
C4 N5 1.307 . S
C4 C6 1.486 . S
N5 N1 1.370 . S
N5 C4 1.307 . S
C6 C4 1.486 . S
C6 H10 0.960 . S
C6 H11 0.960 . S
C6 H12 0.959 . S
H7 C3 0.960 . S
H8 C3 0.961 . S
H9 C3 0.960 . S
H10 C6 0.960 . S
H11 C6 0.960 . S
H12 C6 0.959 . S
C13 N14 1.317 . S
C13 N15 1.348 . S
C13 C16 1.485 . S
N14 C13 1.317 . S
N14 N18 1.371 . S
N15 C13 1.348 . S
N15 C17 1.346 1_655 S
C16 C13 1.485 . S
C16 H20 0.960 1_655 S
C16 H21 0.961 . S
C16 H22 0.960 . S
C17 N15 1.346 1_455 S
C17 N18 1.307 1_455 S
C17 C19 1.486 . S
N18 N14 1.371 . S
N18 C17 1.307 1_655 S
C19 C17 1.486 . S
C19 H23 0.960 1_455 S
C19 H24 0.960 . S
C19 H25 0.959 . S
H20 C16 0.960 1_455 S
H21 C16 0.961 . S
H22 C16 0.960 . S
H23 C19 0.960 1_655 S
H24 C19 0.960 . S
H25 C19 0.959 . S
C26 N27 1.317 . S
C26 N28 1.348 . S
C26 C29 1.485 . S
N27 C26 1.317 . S
N27 N31 1.371 . S
N28 C26 1.348 . S
N28 C30 1.346 1_565 S
C29 C26 1.485 . S
C29 H33 0.960 1_565 S
C29 H34 0.961 . S
C29 H35 0.960 . S
C30 N28 1.346 1_545 S
C30 N31 1.307 1_545 S
C30 C32 1.486 . S
N31 N27 1.371 . S
N31 C30 1.307 1_565 S
C32 C30 1.486 . S
C32 H36 0.960 1_545 S
C32 H37 0.960 . S
C32 H38 0.959 . S
H33 C29 0.960 1_545 S
H34 C29 0.961 . S
H35 C29 0.960 . S
H36 C32 0.960 1_565 S
H37 C32 0.960 . S
H38 C32 0.959 . S
C39 N40 1.317 . S
C39 N41 1.348 . S
C39 C42 1.485 . S
N40 C39 1.317 . S
N40 N44 1.370 . S
N41 C39 1.348 . S
N41 C43 1.346 . S
C42 C39 1.485 . S
C42 H46 0.960 . S
C42 H47 0.961 . S
C42 H48 0.960 . S
C43 N41 1.346 . S
C43 N44 1.307 . S
C43 C45 1.486 . S
N44 N40 1.370 . S
N44 C43 1.307 . S
C45 C43 1.486 . S
C45 H49 0.960 . S
C45 H50 0.960 . S
C45 H51 0.959 . S
H46 C42 0.960 . S
H47 C42 0.961 . S
H48 C42 0.960 . S
H49 C45 0.960 . S
H50 C45 0.960 . S
H51 C45 0.959 . S
C52 N53 1.317 . S
C52 N54 1.348 1_556 S
C52 C55 1.485 . S
N53 C52 1.317 . S
N53 N57 1.370 1_556 S
N54 C52 1.348 1_554 S
N54 C56 1.346 . S
C55 C52 1.485 . S
C55 H59 0.960 . S
C55 H60 0.961 . S
C55 H61 0.960 . S
C56 N54 1.346 . S
C56 N57 1.307 . S
C56 C58 1.486 . S
N57 N53 1.370 1_554 S
N57 C56 1.307 . S
C58 C56 1.486 . S
C58 H62 0.960 . S
C58 H63 0.960 . S
C58 H64 0.959 . S
H59 C55 0.960 . S
H60 C55 0.961 . S
H61 C55 0.960 . S
H62 C58 0.960 . S
H63 C58 0.960 . S
H64 C58 0.959 . S
C65 N66 1.317 . S
C65 N67 1.350 1_556 S
C65 C68 1.485 . S
N66 C65 1.317 . S
N66 N70 1.371 1_556 S
N67 C65 1.350 1_554 S
N67 C69 1.345 1_655 S
C68 C65 1.485 . S
C68 H72 0.960 1_655 S
C68 H73 0.961 . S
C68 H74 0.960 . S
C69 N67 1.345 1_455 S
C69 N70 1.307 1_455 S
C69 C71 1.487 . S
N70 N66 1.371 1_554 S
N70 C69 1.307 1_655 S
C71 C69 1.487 . S
C71 H75 0.960 1_455 S
C71 H76 0.960 . S
C71 H77 0.959 . S
H72 C68 0.960 1_455 S
H73 C68 0.961 . S
H74 C68 0.960 . S
H75 C71 0.960 1_655 S
H76 C71 0.960 . S
H77 C71 0.959 . S
C78 N79 1.317 . S
C78 N80 1.350 1_556 S
C78 C81 1.485 . S
N79 C78 1.317 . S
N79 N83 1.371 1_556 S
N80 C78 1.350 1_554 S
N80 C82 1.345 1_565 S
C81 C78 1.485 . S
C81 H85 0.960 1_565 S
C81 H86 0.961 . S
C81 H87 0.960 . S
C82 N80 1.345 1_545 S
C82 N83 1.307 1_545 S
C82 C84 1.487 . S
N83 N79 1.371 1_554 S
N83 C82 1.307 1_565 S
C84 C82 1.487 . S
C84 H88 0.960 1_545 S
C84 H89 0.960 . S
C84 H90 0.959 . S
H85 C81 0.960 1_545 S
H86 C81 0.961 . S
H87 C81 0.960 . S
H88 C84 0.960 1_565 S
H89 C84 0.960 . S
H90 C84 0.959 . S
C91 N92 1.317 . S
C91 N93 1.348 1_556 S
C91 C94 1.485 . S
N92 C91 1.317 . S
N92 N96 1.370 1_556 S
N93 C91 1.348 1_554 S
N93 C95 1.346 . S
C94 C91 1.485 . S
C94 H98 0.960 . S
C94 H99 0.961 . S
C94 H100 0.960 . S
C95 N93 1.346 . S
C95 N96 1.307 . S
C95 C97 1.486 . S
N96 N92 1.370 1_554 S
N96 C95 1.307 . S
C97 C95 1.486 . S
C97 H101 0.960 . S
C97 H102 0.960 . S
C97 H103 0.959 . S
H98 C94 0.960 . S
H99 C94 0.961 . S
H100 C94 0.960 . S
H101 C97 0.960 . S
H102 C97 0.960 . S
H103 C97 0.959 . S
Tb104 C114 2.825 1_556 S
Tb104 O115 2.347 1_455 S
Tb104 O118 2.366 . S
Tb104 O123 2.418 . S
Tb104 O124 2.384 1_565 S
Tb104 O127 2.479 1_556 S
Tb104 O128 2.471 1_556 S
Eu105 O116 2.418 . S
Eu105 O117 2.384 1_545 S
Eu105 O120 2.479 . S
Eu105 O121 2.471 . S
Eu105 O122 2.347 1_655 S
Eu105 O125 2.366 . S
Eu105 C135 2.825 . S
C106 O122 1.259 1_565 S
C106 O123 1.265 . S
C107 O124 1.255 . S
C107 O125 1.265 1_455 S
C108 C110 1.380 . S
C108 C111 1.374 . S
C108 C114 1.507 . S
C109 C110 1.384 . S
C109 C113 1.387 . S
C109 H136 0.930 . S
C110 C108 1.380 . S
C110 C109 1.384 . S
C110 H137 0.931 . S
C111 C108 1.374 . S
C111 C112 1.390 . S
C111 H138 0.930 1_455 S
C112 C111 1.390 . S
C112 C113 1.391 . S
C112 H139 0.930 1_455 S
C113 C109 1.387 . S
C113 C112 1.391 . S
C114 Tb104 2.825 1_554 S
C114 C108 1.507 . S
C114 O127 1.238 . S
C114 O128 1.247 . S
O115 Tb104 2.347 1_655 S
O115 C119 1.259 1_565 S
O116 Eu105 2.418 . S
O116 C119 1.265 . S
O117 Eu105 2.384 1_565 S
O117 C126 1.255 . S
O118 Tb104 2.366 . S
O118 C126 1.265 1_455 S
C119 O115 1.259 1_545 S
C119 O116 1.265 . S
O120 Eu105 2.479 . S
O120 C135 1.238 . S
O121 Eu105 2.471 . S
O121 C135 1.247 . S
O122 Eu105 2.347 1_455 S
O122 C106 1.259 1_545 S
O123 Tb104 2.418 . S
O123 C106 1.265 . S
O124 Tb104 2.384 1_545 S
O124 C107 1.255 . S
O125 Eu105 2.366 . S
O125 C107 1.265 1_655 S
C126 O117 1.255 . S
C126 O118 1.265 1_655 S
O127 Tb104 2.479 1_554 S
O127 C114 1.238 . S
O128 Tb104 2.471 1_554 S
O128 C114 1.247 . S
C129 C132 1.380 . S
C129 C133 1.374 . S
C129 C135 1.507 . S
C130 C131 1.387 . S
C130 C134 1.391 . S
C131 C130 1.387 . S
C131 C132 1.384 . S
C131 H140 0.930 . S
C132 C129 1.380 . S
C132 C131 1.384 . S
C132 H141 0.931 . S
C133 C129 1.374 . S
C133 C134 1.390 . S
C133 H142 0.930 1_655 S
C134 C130 1.391 . S
C134 C133 1.390 . S
C134 H143 0.930 1_655 S
C135 Eu105 2.825 . S
C135 O120 1.238 . S
C135 O121 1.247 . S
C135 C129 1.507 . S
H136 C109 0.930 . S
H137 C110 0.931 . S
H138 C111 0.930 1_655 S
H139 C112 0.930 1_655 S
H140 C131 0.930 . S
H141 C132 0.931 . S
H142 C133 0.930 1_455 S
H143 C134 0.930 1_455 S
Tb144 C154 2.825 1_556 S
Tb144 O155 2.347 1_545 S
Tb144 O158 2.366 . S
Tb144 O163 2.418 . S
Tb144 O164 2.384 . S
Tb144 O167 2.479 1_556 S
Tb144 O168 2.471 1_556 S
Eu145 O156 2.418 . S
Eu145 O157 2.384 . S
Eu145 O160 2.479 . S
Eu145 O161 2.471 . S
Eu145 O162 2.347 1_565 S
Eu145 O165 2.366 . S
Eu145 C175 2.825 . S
C146 O162 1.259 . S
C146 O163 1.265 . S
C147 O164 1.255 . S
C147 O165 1.265 1_545 S
C148 C150 1.380 . S
C148 C151 1.374 . S
C148 C154 1.507 . S
C149 C150 1.384 . S
C149 C153 1.387 . S
C149 H176 0.930 . S
C150 C148 1.380 . S
C150 C149 1.384 . S
C150 H177 0.931 . S
C151 C148 1.374 . S
C151 C152 1.390 . S
C151 H178 0.930 1_545 S
C152 C151 1.390 . S
C152 C153 1.391 . S
C152 H179 0.930 1_545 S
C153 C149 1.387 . S
C153 C152 1.391 . S
C154 Tb144 2.825 1_554 S
C154 C148 1.507 . S
C154 O167 1.238 . S
C154 O168 1.247 . S
O155 Tb144 2.347 1_565 S
O155 C159 1.259 . S
O156 Eu145 2.418 . S
O156 C159 1.265 . S
O157 Eu145 2.384 . S
O157 C166 1.255 . S
O158 Tb144 2.366 . S
O158 C166 1.265 1_545 S
C159 O155 1.259 . S
C159 O156 1.265 . S
O160 Eu145 2.479 . S
O160 C175 1.238 . S
O161 Eu145 2.471 . S
O161 C175 1.247 . S
O162 Eu145 2.347 1_545 S
O162 C146 1.259 . S
O163 Tb144 2.418 . S
O163 C146 1.265 . S
O164 Tb144 2.384 . S
O164 C147 1.255 . S
O165 Eu145 2.366 . S
O165 C147 1.265 1_565 S
C166 O157 1.255 . S
C166 O158 1.265 1_565 S
O167 Tb144 2.479 1_554 S
O167 C154 1.238 . S
O168 Tb144 2.471 1_554 S
O168 C154 1.247 . S
C169 C172 1.380 . S
C169 C173 1.374 . S
C169 C175 1.507 . S
C170 C171 1.387 . S
C170 C174 1.391 . S
C171 C170 1.387 . S
C171 C172 1.384 . S
C171 H180 0.930 . S
C172 C169 1.380 . S
C172 C171 1.384 . S
C172 H181 0.931 . S
C173 C169 1.374 . S
C173 C174 1.390 . S
C173 H182 0.930 1_565 S
C174 C170 1.391 . S
C174 C173 1.390 . S
C174 H183 0.930 1_565 S
C175 Eu145 2.825 . S
C175 O160 1.238 . S
C175 O161 1.247 . S
C175 C169 1.507 . S
H176 C149 0.930 . S
H177 C150 0.931 . S
H178 C151 0.930 1_565 S
H179 C152 0.930 1_565 S
H180 C171 0.930 . S
H181 C172 0.931 . S
H182 C173 0.930 1_545 S
H183 C174 0.930 1_545 S
Tb184 C194 2.825 1_556 S
Tb184 O195 2.347 . S
Tb184 O198 2.366 . S
Tb184 O203 2.418 . S
Tb184 O204 2.384 . S
Tb184 O207 2.479 1_556 S
Tb184 O208 2.471 1_556 S
Eu185 O196 2.418 . S
Eu185 O197 2.384 . S
Eu185 O200 2.479 . S
Eu185 O201 2.471 . S
Eu185 O202 2.347 . S
Eu185 O205 2.366 . S
Eu185 C215 2.825 . S
C186 O202 1.259 . S
C186 O203 1.265 . S
C187 O204 1.255 . S
C187 O205 1.265 . S
C188 C190 1.380 . S
C188 C191 1.374 . S
C188 C194 1.507 . S
C189 C190 1.384 . S
C189 C193 1.387 . S
C189 H216 0.930 . S
C190 C188 1.380 . S
C190 C189 1.384 . S
C190 H217 0.931 . S
C191 C188 1.374 . S
C191 C192 1.390 . S
C191 H218 0.930 . S
C192 C191 1.390 . S
C192 C193 1.391 . S
C192 H219 0.930 . S
C193 C189 1.387 . S
C193 C192 1.391 . S
C194 Tb184 2.825 1_554 S
C194 C188 1.507 . S
C194 O207 1.238 . S
C194 O208 1.247 . S
O195 Tb184 2.347 . S
O195 C199 1.259 . S
O196 Eu185 2.418 . S
O196 C199 1.265 . S
O197 Eu185 2.384 . S
O197 C206 1.255 . S
O198 Tb184 2.366 . S
O198 C206 1.265 . S
C199 O195 1.259 . S
C199 O196 1.265 . S
O200 Eu185 2.479 . S
O200 C215 1.238 . S
O201 Eu185 2.471 . S
O201 C215 1.247 . S
O202 Eu185 2.347 . S
O202 C186 1.259 . S
O203 Tb184 2.418 . S
O203 C186 1.265 . S
O204 Tb184 2.384 . S
O204 C187 1.255 . S
O205 Eu185 2.366 . S
O205 C187 1.265 . S
C206 O197 1.255 . S
C206 O198 1.265 . S
O207 Tb184 2.479 1_554 S
O207 C194 1.238 . S
O208 Tb184 2.471 1_554 S
O208 C194 1.247 . S
C209 C212 1.380 . S
C209 C213 1.374 . S
C209 C215 1.507 . S
C210 C211 1.387 . S
C210 C214 1.391 . S
C211 C210 1.387 . S
C211 C212 1.384 . S
C211 H220 0.930 . S
C212 C209 1.380 . S
C212 C211 1.384 . S
C212 H221 0.931 . S
C213 C209 1.374 . S
C213 C214 1.390 . S
C213 H222 0.930 . S
C214 C210 1.391 . S
C214 C213 1.390 . S
C214 H223 0.930 . S
C215 Eu185 2.825 . S
C215 O200 1.238 . S
C215 O201 1.247 . S
C215 C209 1.507 . S
H216 C189 0.930 . S
H217 C190 0.931 . S
H218 C191 0.930 . S
H219 C192 0.930 . S
H220 C211 0.930 . S
H221 C212 0.931 . S
H222 C213 0.930 . S
H223 C214 0.930 . S
Tb224 C234 2.825 1_556 S
Tb224 O235 2.347 . S
Tb224 O238 2.366 . S
Tb224 O243 2.418 . S
Tb224 O244 2.384 1_655 S
Tb224 O247 2.479 1_556 S
Tb224 O248 2.471 1_556 S
Eu225 O236 2.418 . S
Eu225 O237 2.384 1_455 S
Eu225 O240 2.479 . S
Eu225 O241 2.471 . S
Eu225 O242 2.347 . S
Eu225 O245 2.366 . S
Eu225 C255 2.825 . S
C226 O242 1.259 1_655 S
C226 O243 1.265 . S
C227 O244 1.255 . S
C227 O245 1.265 . S
C228 C230 1.380 . S
C228 C231 1.374 . S
C228 C234 1.507 . S
C229 C230 1.384 . S
C229 C233 1.387 . S
C229 H256 0.930 . S
C230 C228 1.380 . S
C230 C229 1.384 . S
C230 H257 0.931 . S
C231 C228 1.374 . S
C231 C232 1.390 . S
C231 H258 0.930 . S
C232 C231 1.390 . S
C232 C233 1.391 . S
C232 H259 0.930 . S
C233 C229 1.387 . S
C233 C232 1.391 . S
C234 Tb224 2.825 1_554 S
C234 C228 1.507 . S
C234 O247 1.238 . S
C234 O248 1.247 . S
O235 Tb224 2.347 . S
O235 C239 1.259 1_655 S
O236 Eu225 2.418 . S
O236 C239 1.265 . S
O237 Eu225 2.384 1_655 S
O237 C246 1.255 . S
O238 Tb224 2.366 . S
O238 C246 1.265 . S
C239 O235 1.259 1_455 S
C239 O236 1.265 . S
O240 Eu225 2.479 . S
O240 C255 1.238 . S
O241 Eu225 2.471 . S
O241 C255 1.247 . S
O242 Eu225 2.347 . S
O242 C226 1.259 1_455 S
O243 Tb224 2.418 . S
O243 C226 1.265 . S
O244 Tb224 2.384 1_455 S
O244 C227 1.255 . S
O245 Eu225 2.366 . S
O245 C227 1.265 . S
C246 O237 1.255 . S
C246 O238 1.265 . S
O247 Tb224 2.479 1_554 S
O247 C234 1.238 . S
O248 Tb224 2.471 1_554 S
O248 C234 1.247 . S
C249 C252 1.380 . S
C249 C253 1.374 . S
C249 C255 1.507 . S
C250 C251 1.387 . S
C250 C254 1.391 . S
C251 C250 1.387 . S
C251 C252 1.384 . S
C251 H260 0.930 . S
C252 C249 1.380 . S
C252 C251 1.384 . S
C252 H261 0.931 . S
C253 C249 1.374 . S
C253 C254 1.390 . S
C253 H262 0.930 . S
C254 C250 1.391 . S
C254 C253 1.390 . S
C254 H263 0.930 . S
C255 Eu225 2.825 . S
C255 O240 1.238 . S
C255 O241 1.247 . S
C255 C249 1.507 . S
H256 C229 0.930 . S
H257 C230 0.931 . S
H258 C231 0.930 . S
H259 C232 0.930 . S
H260 C251 0.930 . S
H261 C252 0.931 . S
H262 C253 0.930 . S
H263 C254 0.930 . S
C264 C265 1.366 . S
C264 C270 1.379 . S
C264 N272 1.356 . S
C265 C264 1.366 . S
C265 C271 1.360 1_565 S
C266 C267 1.346 1_545 S
C266 C271 1.379 . S
C266 N273 1.356 . S
C267 C266 1.346 1_565 S
C267 C270 1.381 . S
N268 C270 1.356 . S
N268 H280 0.984 . S
N268 H281 0.985 . S
N269 C271 1.356 . S
N269 H274 0.984 . S
N269 H275 0.985 . S
C270 C264 1.379 . S
C270 C267 1.381 . S
C270 N268 1.356 . S
C271 C265 1.360 1_545 S
C271 C266 1.379 . S
C271 N269 1.356 . S
N272 C264 1.356 . S
N272 H278 0.984 . S
N272 H279 0.984 . S
N273 C266 1.356 . S
N273 H276 0.984 . S
N273 H277 0.985 . S
H274 N269 0.984 . S
H275 N269 0.985 . S
H276 N273 0.984 . S
H277 N273 0.985 . S
H278 N272 0.984 . S
H279 N272 0.984 . S
H280 N268 0.984 . S
H281 N268 0.985 . S
C282 C283 1.363 . S
C282 C288 1.379 . S
C282 N290 1.356 . S
C283 C282 1.363 . S
C283 C289 1.363 . S
C284 C285 1.363 . S
C284 C289 1.379 . S
C284 N291 1.356 . S
C285 C284 1.363 . S
C285 C288 1.363 . S
N286 C288 1.356 . S
N286 H298 0.984 . S
N286 H299 0.985 . S
N287 C289 1.356 . S
N287 H292 0.984 . S
N287 H293 0.985 . S
C288 C282 1.379 . S
C288 C285 1.363 . S
C288 N286 1.356 . S
C289 C283 1.363 . S
C289 C284 1.379 . S
C289 N287 1.356 . S
N290 C282 1.356 . S
N290 H296 0.984 . S
N290 H297 0.984 . S
N291 C284 1.356 . S
N291 H294 0.984 . S
N291 H295 0.985 . S
H292 N287 0.984 . S
H293 N287 0.985 . S
H294 N291 0.984 . S
H295 N291 0.985 . S
H296 N290 0.984 . S
H297 N290 0.984 . S
H298 N286 0.984 . S
H299 N286 0.985 . S
C300 C301 1.363 . S
C300 C306 1.379 . S
C300 N308 1.356 . S
C301 C300 1.363 . S
C301 C307 1.363 . S
C302 C303 1.363 . S
C302 C307 1.379 . S
C302 N309 1.356 . S
C303 C302 1.363 . S
C303 C306 1.363 . S
N304 C306 1.356 . S
N304 H316 0.984 . S
N304 H317 0.985 . S
N305 C307 1.356 . S
N305 H310 0.984 . S
N305 H311 0.985 . S
C306 C300 1.379 . S
C306 C303 1.363 . S
C306 N304 1.356 . S
C307 C301 1.363 . S
C307 C302 1.379 . S
C307 N305 1.356 . S
N308 C300 1.356 . S
N308 H314 0.984 . S
N308 H315 0.984 . S
N309 C302 1.356 . S
N309 H312 0.984 . S
N309 H313 0.985 . S
H310 N305 0.984 . S
H311 N305 0.985 . S
H312 N309 0.984 . S
H313 N309 0.985 . S
H314 N308 0.984 . S
H315 N308 0.984 . S
H316 N304 0.984 . S
H317 N304 0.985 . S
C318 C319 1.363 . S
C318 C324 1.379 . S
C318 N326 1.356 . S
C319 C318 1.363 . S
C319 C325 1.363 . S
C320 C321 1.363 . S
C320 C325 1.379 . S
C320 N327 1.356 . S
C321 C320 1.363 . S
C321 C324 1.363 . S
N322 C324 1.357 . S
N322 H334 0.984 . S
N322 H335 0.985 . S
N323 C325 1.356 . S
N323 H328 0.985 1_455 S
N323 H329 0.984 . S
C324 C318 1.379 . S
C324 C321 1.363 . S
C324 N322 1.357 . S
C325 C319 1.363 . S
C325 C320 1.379 . S
C325 N323 1.356 . S
N326 C318 1.356 . S
N326 H332 0.984 . S
N326 H333 0.984 . S
N327 C320 1.356 . S
N327 H330 0.985 . S
N327 H331 0.984 . S
H328 N323 0.985 1_655 S
H329 N323 0.984 . S
H330 N327 0.985 . S
H331 N327 0.984 . S
H332 N326 0.984 . S
H333 N326 0.984 . S
H334 N322 0.984 . S
H335 N322 0.985 . S
C336 C337 1.371 . S
C336 C342 1.379 . S
C336 N344 1.356 . S
C337 C336 1.371 . S
C337 C343 1.355 1_545 S
C338 C339 1.341 1_565 S
C338 C343 1.379 . S
C338 N345 1.356 . S
C339 C338 1.341 1_545 S
C339 C342 1.386 . S
N340 C342 1.356 . S
N340 H352 0.984 . S
N340 H353 0.985 1_554 S
N341 C343 1.356 . S
N341 H346 0.984 . S
N341 H347 0.985 . S
C342 C336 1.379 . S
C342 C339 1.386 . S
C342 N340 1.356 . S
C343 C337 1.355 1_565 S
C343 C338 1.379 . S
C343 N341 1.356 . S
N344 C336 1.356 . S
N344 H350 0.984 . S
N344 H351 0.984 . S
N345 C338 1.356 . S
N345 H348 0.984 . S
N345 H349 0.985 . S
H346 N341 0.984 . S
H347 N341 0.985 . S
H348 N345 0.984 . S
H349 N345 0.985 . S
H350 N344 0.984 . S
H351 N344 0.984 . S
H352 N340 0.984 . S
H353 N340 0.985 1_556 S
C354 C355 1.363 . S
C354 C360 1.379 . S
C354 N362 1.356 . S
C355 C354 1.363 . S
C355 C361 1.363 . S
C356 C357 1.363 . S
C356 C361 1.379 . S
C356 N363 1.356 . S
C357 C356 1.363 . S
C357 C360 1.363 . S
N358 C360 1.356 . S
N358 H370 0.984 . S
N358 H371 0.985 . S
N359 C361 1.356 . S
N359 H364 0.984 . S
N359 H365 0.985 . S
C360 C354 1.379 . S
C360 C357 1.363 . S
C360 N358 1.356 . S
C361 C355 1.363 . S
C361 C356 1.379 . S
C361 N359 1.356 . S
N362 C354 1.356 . S
N362 H368 0.984 . S
N362 H369 0.984 . S
N363 C356 1.356 . S
N363 H366 0.984 . S
N363 H367 0.985 . S
H364 N359 0.984 . S
H365 N359 0.985 . S
H366 N363 0.984 . S
H367 N363 0.985 . S
H368 N362 0.984 . S
H369 N362 0.984 . S
H370 N358 0.984 . S
H371 N358 0.985 . S
C372 C373 1.363 . S
C372 C378 1.379 . S
C372 N380 1.356 . S
C373 C372 1.363 . S
C373 C379 1.363 . S
C374 C375 1.363 . S
C374 C379 1.379 . S
C374 N381 1.356 . S
C375 C374 1.363 . S
C375 C378 1.363 . S
N376 C378 1.356 . S
N376 H388 0.984 . S
N376 H389 0.985 1_554 S
N377 C379 1.356 . S
N377 H382 0.984 . S
N377 H383 0.985 . S
C378 C372 1.379 . S
C378 C375 1.363 . S
C378 N376 1.356 . S
C379 C373 1.363 . S
C379 C374 1.379 . S
C379 N377 1.356 . S
N380 C372 1.356 . S
N380 H386 0.984 . S
N380 H387 0.984 . S
N381 C374 1.356 . S
N381 H384 0.984 . S
N381 H385 0.985 . S
H382 N377 0.984 . S
H383 N377 0.985 . S
H384 N381 0.984 . S
H385 N381 0.985 . S
H386 N380 0.984 . S
H387 N380 0.984 . S
H388 N376 0.984 . S
H389 N376 0.985 1_556 S
C390 C391 1.363 1_455 S
C390 C396 1.379 . S
C390 N398 1.356 . S
C391 C390 1.363 1_655 S
C391 C397 1.364 . S
C392 C393 1.365 . S
C392 C397 1.379 . S
C392 N399 1.356 . S
C393 C392 1.365 . S
C393 C396 1.362 1_655 S
N394 C396 1.356 . S
N394 H406 0.984 . S
N394 H407 0.985 . S
N395 C397 1.356 . S
N395 H400 0.984 . S
N395 H401 0.985 . S
C396 C390 1.379 . S
C396 C393 1.362 1_455 S
C396 N394 1.356 . S
C397 C391 1.364 . S
C397 C392 1.379 . S
C397 N395 1.356 . S
N398 C390 1.356 . S
N398 H404 0.984 . S
N398 H405 0.984 . S
N399 C392 1.356 . S
N399 H402 0.984 1_554 S
N399 H403 0.985 . S
H400 N395 0.984 . S
H401 N395 0.985 . S
H402 N399 0.984 1_556 S
H403 N399 0.985 . S
H404 N398 0.984 . S
H405 N398 0.984 . S
H406 N394 0.984 . S
H407 N394 0.985 . S
C408 C409 1.373 . S
C408 C414 1.379 . S
C408 N416 1.356 1_554 S
C409 C408 1.373 . S
C409 C415 1.364 . S
C410 C411 1.363 . S
C410 C415 1.379 . S
C410 N417 1.356 . S
C411 C410 1.363 . S
C411 C414 1.363 . S
N412 C414 1.356 . S
N412 H424 0.984 1_554 S
N412 H425 0.985 . S
N413 C415 1.356 1_455 S
N413 H418 0.984 . S
N413 H419 0.985 . S
C414 C408 1.379 . S
C414 C411 1.363 . S
C414 N412 1.356 . S
C415 C409 1.364 . S
C415 C410 1.379 . S
C415 N413 1.356 1_655 S
N416 C408 1.356 1_556 S
N416 H422 0.984 . S
N416 H423 0.984 1_655 S
N417 C410 1.356 . S
N417 H420 0.984 . S
N417 H421 0.985 . S
H418 N413 0.984 . S
H419 N413 0.985 . S
H420 N417 0.984 . S
H421 N417 0.985 . S
H422 N416 0.984 . S
H423 N416 0.984 1_455 S
H424 N412 0.984 1_556 S
H425 N412 0.985 . S
C426 C427 1.370 . S
C426 C432 1.379 . S
C426 N434 1.356 1_554 S
C427 C426 1.370 . S
C427 C433 1.362 1_565 S
C428 C429 1.363 . S
C428 C433 1.379 1_565 S
C428 N435 1.356 . S
C429 C428 1.363 . S
C429 C432 1.363 . S
N430 C432 1.356 . S
N430 H442 0.984 . S
N430 H443 0.985 . S
N431 C433 1.356 . S
N431 H436 0.984 . S
N431 H437 0.985 . S
C432 C426 1.379 . S
C432 C429 1.363 . S
C432 N430 1.356 . S
C433 C427 1.362 1_545 S
C433 C428 1.379 1_545 S
C433 N431 1.356 . S
N434 C426 1.356 1_556 S
N434 H440 0.984 . S
N434 H441 0.984 . S
N435 C428 1.356 . S
N435 H438 0.984 . S
N435 H439 0.985 . S
H436 N431 0.984 . S
H437 N431 0.985 . S
H438 N435 0.984 . S
H439 N435 0.985 . S
H440 N434 0.984 . S
H441 N434 0.984 . S
H442 N430 0.984 . S
H443 N430 0.985 . S
C444 C445 1.363 . S
C444 C450 1.379 . S
C444 N452 1.356 1_554 S
C445 C444 1.363 . S
C445 C451 1.363 . S
C446 C447 1.363 . S
C446 C451 1.379 . S
C446 N453 1.356 . S
C447 C446 1.363 . S
C447 C450 1.363 . S
N448 C450 1.356 . S
N448 H460 0.984 1_554 S
N448 H461 0.985 . S
N449 C451 1.356 . S
N449 H454 0.984 . S
N449 H455 0.985 . S
C450 C444 1.379 . S
C450 C447 1.363 . S
C450 N448 1.356 . S
C451 C445 1.363 . S
C451 C446 1.379 . S
C451 N449 1.356 . S
N452 C444 1.356 1_556 S
N452 H458 0.984 . S
N452 H459 0.984 . S
N453 C446 1.356 . S
N453 H456 0.984 . S
N453 H457 0.985 . S
H454 N449 0.984 . S
H455 N449 0.985 . S
H456 N453 0.984 . S
H457 N453 0.985 . S
H458 N452 0.984 . S
H459 N452 0.984 . S
H460 N448 0.984 1_556 S
H461 N448 0.985 . S
C462 C463 1.363 . S
C462 C468 1.379 . S
C462 N470 1.356 . S
C463 C462 1.363 . S
C463 C469 1.363 . S
C464 C465 1.363 . S
C464 C469 1.379 . S
C464 N471 1.356 . S
C465 C464 1.363 . S
C465 C468 1.363 . S
N466 C468 1.356 . S
N466 H478 0.984 . S
N466 H479 0.985 . S
N467 C469 1.356 . S
N467 H472 0.984 . S
N467 H473 0.985 . S
C468 C462 1.379 . S
C468 C465 1.363 . S
C468 N466 1.356 . S
C469 C463 1.363 . S
C469 C464 1.379 . S
C469 N467 1.356 . S
N470 C462 1.356 . S
N470 H476 0.984 1_554 S
N470 H477 0.984 1_554 S
N471 C464 1.356 . S
N471 H474 0.984 . S
N471 H475 0.985 . S
H472 N467 0.984 . S
H473 N467 0.985 . S
H474 N471 0.984 . S
H475 N471 0.985 . S
H476 N470 0.984 1_556 S
H477 N470 0.984 1_556 S
H478 N466 0.984 . S
H479 N466 0.985 . S
C480 C481 1.366 . S
C480 C486 1.379 . S
C480 N488 1.356 1_455 S
C481 C480 1.366 . S
C481 C487 1.371 . S
C482 C483 1.363 . S
C482 C487 1.379 . S
C482 N489 1.356 . S
C483 C482 1.363 . S
C483 C486 1.363 . S
N484 C486 1.356 . S
N484 H496 0.984 . S
N484 H497 0.985 . S
N485 C487 1.356 . S
N485 H490 0.984 1_455 S
N485 H491 0.985 . S
C486 C480 1.379 . S
C486 C483 1.363 . S
C486 N484 1.356 . S
C487 C481 1.371 . S
C487 C482 1.379 . S
C487 N485 1.356 . S
N488 C480 1.356 1_655 S
N488 H494 0.984 . S
N488 H495 0.984 . S
N489 C482 1.356 . S
N489 H492 0.984 . S
N489 H493 0.985 . S
H490 N485 0.984 1_655 S
H491 N485 0.985 . S
H492 N489 0.984 . S
H493 N489 0.985 . S
H494 N488 0.984 . S
H495 N488 0.984 . S
H496 N484 0.984 . S
H497 N484 0.985 . S
C498 C499 1.366 . S
C498 C504 1.379 . S
C498 N506 1.356 1_545 S
C499 C498 1.366 . S
C499 C505 1.370 . S
C500 C501 1.363 . S
C500 C505 1.379 . S
C500 N507 1.356 . S
C501 C500 1.363 . S
C501 C504 1.363 . S
N502 C504 1.356 . S
N502 H514 0.984 . S
N502 H515 0.985 . S
N503 C505 1.356 . S
N503 H508 0.984 1_545 S
N503 H509 0.985 . S
C504 C498 1.379 . S
C504 C501 1.363 . S
C504 N502 1.356 . S
C505 C499 1.370 . S
C505 C500 1.379 . S
C505 N503 1.356 . S
N506 C498 1.356 1_565 S
N506 H512 0.984 . S
N506 H513 0.984 . S
N507 C500 1.356 . S
N507 H510 0.984 . S
N507 H511 0.985 . S
H508 N503 0.984 1_565 S
H509 N503 0.985 . S
H510 N507 0.984 . S
H511 N507 0.985 . S
H512 N506 0.984 . S
H513 N506 0.984 . S
H514 N502 0.984 . S
H515 N502 0.985 . S
C516 C517 1.363 . S
C516 C522 1.379 . S
C516 N524 1.356 . S
C517 C516 1.363 . S
C517 C523 1.363 . S
C518 C519 1.363 . S
C518 C523 1.379 . S
C518 N525 1.356 . S
C519 C518 1.363 . S
C519 C522 1.363 . S
N520 C522 1.356 . S
N520 H532 0.984 . S
N520 H533 0.985 . S
N521 C523 1.356 . S
N521 H526 0.984 . S
N521 H527 0.985 . S
C522 C516 1.379 . S
C522 C519 1.363 . S
C522 N520 1.356 . S
C523 C517 1.363 . S
C523 C518 1.379 . S
C523 N521 1.356 . S
N524 C516 1.356 . S
N524 H530 0.984 . S
N524 H531 0.984 . S
N525 C518 1.356 . S
N525 H528 0.984 . S
N525 H529 0.985 . S
H526 N521 0.984 . S
H527 N521 0.985 . S
H528 N525 0.984 . S
H529 N525 0.985 . S
H530 N524 0.984 . S
H531 N524 0.984 . S
H532 N520 0.984 . S
H533 N520 0.985 . S
C534 C535 1.363 . S
C534 C540 1.379 . S
C534 N542 1.356 . S
C535 C534 1.363 . S
C535 C541 1.363 . S
C536 C537 1.363 . S
C536 C541 1.379 . S
C536 N543 1.356 . S
C537 C536 1.363 . S
C537 C540 1.363 . S
N538 C540 1.356 . S
N538 H550 0.984 . S
N538 H551 0.985 . S
N539 C541 1.356 . S
N539 H544 0.984 . S
N539 H545 0.985 . S
C540 C534 1.379 . S
C540 C537 1.363 . S
C540 N538 1.356 . S
C541 C535 1.363 . S
C541 C536 1.379 . S
C541 N539 1.356 . S
N542 C534 1.356 . S
N542 H548 0.984 . S
N542 H549 0.984 . S
N543 C536 1.356 . S
N543 H546 0.984 . S
N543 H547 0.985 . S
H544 N539 0.984 . S
H545 N539 0.985 . S
H546 N543 0.984 . S
H547 N543 0.985 . S
H548 N542 0.984 . S
H549 N542 0.984 . S
H550 N538 0.984 . S
H551 N538 0.985 . S
C552 C553 1.363 1_655 S
C552 C558 1.379 . S
C552 N560 1.356 . S
C553 C552 1.363 1_455 S
C553 C559 1.363 1_556 S
C554 C555 1.363 1_554 S
C554 C559 1.379 . S
C554 N561 1.356 . S
C555 C554 1.363 1_556 S
C555 C558 1.363 1_455 S
N556 C558 1.356 . S
N556 H568 0.984 . S
N556 H569 0.985 . S
N557 C559 1.356 . S
N557 H562 0.984 . S
N557 H563 0.985 . S
C558 C552 1.379 . S
C558 C555 1.363 1_655 S
C558 N556 1.356 . S
C559 C553 1.363 1_554 S
C559 C554 1.379 . S
C559 N557 1.356 . S
N560 C552 1.356 . S
N560 H566 0.984 . S
N560 H567 0.984 . S
N561 C554 1.356 . S
N561 H564 0.984 . S
N561 H565 0.985 . S
H562 N557 0.984 . S
H563 N557 0.985 . S
H564 N561 0.984 . S
H565 N561 0.985 . S
H566 N560 0.984 . S
H567 N560 0.984 . S
H568 N556 0.984 . S
H569 N556 0.985 . S
C570 C571 1.363 1_565 S
C570 C576 1.379 . S
C570 N578 1.356 . S
C571 C570 1.363 1_545 S
C571 C577 1.363 . S
C572 C573 1.363 . S
C572 C577 1.379 . S
C572 N579 1.356 1_556 S
C573 C572 1.363 . S
C573 C576 1.363 1_545 S
N574 C576 1.356 . S
N574 H586 0.984 . S
N574 H587 0.985 . S
N575 C577 1.356 1_554 S
N575 H580 0.984 . S
N575 H581 0.985 . S
C576 C570 1.379 . S
C576 C573 1.363 1_565 S
C576 N574 1.356 . S
C577 C571 1.363 . S
C577 C572 1.379 . S
C577 N575 1.356 1_556 S
N578 C570 1.356 . S
N578 H584 0.984 . S
N578 H585 0.984 . S
N579 C572 1.356 1_554 S
N579 H582 0.984 . S
N579 H583 0.985 . S
H580 N575 0.984 . S
H581 N575 0.985 . S
H582 N579 0.984 . S
H583 N579 0.985 . S
H584 N578 0.984 . S
H585 N578 0.984 . S
H586 N574 0.984 . S
H587 N574 0.985 . S
C588 C589 1.363 . S
C588 C594 1.379 . S
C588 N596 1.356 . S
C589 C588 1.363 . S
C589 C595 1.363 1_556 S
C590 C591 1.363 1_554 S
C590 C595 1.379 . S
C590 N597 1.356 . S
C591 C590 1.363 1_556 S
C591 C594 1.363 . S
N592 C594 1.356 . S
N592 H604 0.984 . S
N592 H605 0.985 . S
N593 C595 1.356 . S
N593 H598 0.984 . S
N593 H599 0.985 . S
C594 C588 1.379 . S
C594 C591 1.363 . S
C594 N592 1.356 . S
C595 C589 1.363 1_554 S
C595 C590 1.379 . S
C595 N593 1.356 . S
N596 C588 1.356 . S
N596 H602 0.984 . S
N596 H603 0.984 . S
N597 C590 1.356 . S
N597 H600 0.984 . S
N597 H601 0.985 . S
H598 N593 0.984 . S
H599 N593 0.985 . S
H600 N597 0.984 . S
H601 N597 0.985 . S
H602 N596 0.984 . S
H603 N596 0.984 . S
H604 N592 0.984 . S
H605 N592 0.985 . S
C606 C607 1.363 1_554 S
C606 C612 1.379 . S
C606 N614 1.356 . S
C607 C606 1.363 1_556 S
C607 C613 1.363 . S
C608 C609 1.363 . S
C608 C613 1.379 . S
C608 N615 1.356 . S
C609 C608 1.363 . S
C609 C612 1.363 1_556 S
N610 C612 1.356 . S
N610 H622 0.984 . S
N610 H623 0.985 . S
N611 C613 1.356 . S
N611 H616 0.984 . S
N611 H617 0.985 . S
C612 C606 1.379 . S
C612 C609 1.363 1_554 S
C612 N610 1.356 . S
C613 C607 1.363 . S
C613 C608 1.379 . S
C613 N611 1.356 . S
N614 C606 1.356 . S
N614 H620 0.984 . S
N614 H621 0.984 . S
N615 C608 1.356 . S
N615 H618 0.984 . S
N615 H619 0.985 . S
H616 N611 0.984 . S
H617 N611 0.985 . S
H618 N615 0.984 . S
H619 N615 0.985 . S
H620 N614 0.984 . S
H621 N614 0.984 . S
H622 N610 0.984 . S
H623 N610 0.985 . S
C624 C625 1.363 . S
C624 C630 1.379 . S
C624 N632 1.356 . S
C625 C624 1.363 . S
C625 C631 1.363 1_655 S
C626 C627 1.363 1_455 S
C626 C631 1.379 . S
C626 N633 1.356 . S
C627 C626 1.363 1_655 S
C627 C630 1.363 . S
N628 C630 1.356 . S
N628 H640 0.984 . S
N628 H641 0.985 . S
N629 C631 1.356 . S
N629 H634 0.984 . S
N629 H635 0.985 . S
C630 C624 1.379 . S
C630 C627 1.363 . S
C630 N628 1.356 . S
C631 C625 1.363 1_455 S
C631 C626 1.379 . S
C631 N629 1.356 . S
N632 C624 1.356 . S
N632 H638 0.984 . S
N632 H639 0.984 . S
N633 C626 1.356 . S
N633 H636 0.984 . S
N633 H637 0.985 . S
H634 N629 0.984 . S
H635 N629 0.985 . S
H636 N633 0.984 . S
H637 N633 0.985 . S
H638 N632 0.984 . S
H639 N632 0.984 . S
H640 N628 0.984 . S
H641 N628 0.985 . S
C642 C643 1.363 . S
C642 C648 1.379 . S
C642 N650 1.356 . S
C643 C642 1.363 . S
C643 C649 1.363 1_565 S
C644 C645 1.363 1_545 S
C644 C649 1.379 . S
C644 N651 1.356 . S
C645 C644 1.363 1_565 S
C645 C648 1.363 . S
N646 C648 1.356 . S
N646 H658 0.984 . S
N646 H659 0.985 . S
N647 C649 1.356 . S
N647 H652 0.984 . S
N647 H653 0.985 . S
C648 C642 1.379 . S
C648 C645 1.363 . S
C648 N646 1.356 . S
C649 C643 1.363 1_545 S
C649 C644 1.379 . S
C649 N647 1.356 . S
N650 C642 1.356 . S
N650 H656 0.984 . S
N650 H657 0.984 . S
N651 C644 1.356 . S
N651 H654 0.984 . S
N651 H655 0.985 . S
H652 N647 0.984 . S
H653 N647 0.985 . S
H654 N651 0.984 . S
H655 N651 0.985 . S
H656 N650 0.984 . S
H657 N650 0.984 . S
H658 N646 0.984 . S
H659 N646 0.985 . S
C660 C661 1.363 . S
C660 C666 1.379 . S
C660 N668 1.356 . S
C661 C660 1.363 . S
C661 C667 1.363 . S
C662 C663 1.363 . S
C662 C667 1.379 . S
C662 N669 1.356 . S
C663 C662 1.363 . S
C663 C666 1.363 . S
N664 C666 1.356 . S
N664 H676 0.984 . S
N664 H677 0.985 . S
N665 C667 1.356 . S
N665 H670 0.984 . S
N665 H671 0.985 . S
C666 C660 1.379 . S
C666 C663 1.363 . S
C666 N664 1.356 . S
C667 C661 1.363 . S
C667 C662 1.379 . S
C667 N665 1.356 . S
N668 C660 1.356 . S
N668 H674 0.984 . S
N668 H675 0.984 . S
N669 C662 1.356 . S
N669 H672 0.984 . S
N669 H673 0.985 . S
H670 N665 0.984 . S
H671 N665 0.985 . S
H672 N669 0.984 . S
H673 N669 0.985 . S
H674 N668 0.984 . S
H675 N668 0.984 . S
H676 N664 0.984 . S
H677 N664 0.985 . S
C678 C679 1.363 . S
C678 C684 1.379 . S
C678 N686 1.356 . S
C679 C678 1.363 . S
C679 C685 1.363 . S
C680 C681 1.363 . S
C680 C685 1.379 . S
C680 N687 1.356 . S
C681 C680 1.363 . S
C681 C684 1.363 . S
N682 C684 1.356 . S
N682 H694 0.984 . S
N682 H695 0.985 . S
N683 C685 1.356 . S
N683 H688 0.984 . S
N683 H689 0.985 . S
C684 C678 1.379 . S
C684 C681 1.363 . S
C684 N682 1.356 . S
C685 C679 1.363 . S
C685 C680 1.379 . S
C685 N683 1.356 . S
N686 C678 1.356 . S
N686 H692 0.984 . S
N686 H693 0.984 . S
N687 C680 1.356 . S
N687 H690 0.984 . S
N687 H691 0.985 . S
H688 N683 0.984 . S
H689 N683 0.985 . S
H690 N687 0.984 . S
H691 N687 0.985 . S
H692 N686 0.984 . S
H693 N686 0.984 . S
H694 N682 0.984 . S
H695 N682 0.985 . S
C265 N80 2.003 . S
C267 C106 2.177 . S
C285 C146 2.195 . S
C283 N93 2.024 . S
C303 C186 2.208 . S
C301 N54 2.042 . S
C321 C226 2.190 1_455 S
C319 N67 2.020 1_455 S
C339 C119 2.179 1_554 S
C337 N28 2.006 1_545 S
C355 N41 2.021 . S
C357 C159 2.196 1_554 S
C373 N2 2.037 . S
C375 C199 2.208 1_554 S
C391 N15 2.020 . S
C393 C239 2.190 1_654 S
C411 C130 0.771 . S
C409 N70 0.769 . S
C429 C170 0.766 . S
C427 N83 0.767 . S
C447 C210 0.760 . S
C445 N96 0.761 . S
C463 N57 0.762 . S
C465 C250 0.759 . S
C481 N18 0.773 1_455 S
C483 C113 0.774 . S
C501 C153 0.767 . S
C499 N31 0.768 1_545 S
C519 C193 0.760 . S
C517 N44 0.761 . S
C535 N5 0.763 . S
C537 C233 0.764 . S
C553 N66 2.395 1_455 S
C555 C107 2.532 . S
C571 N79 2.348 1_545 S
C573 C147 2.487 . S
C591 C187 2.472 . S
C589 N92 2.335 . S
C609 C227 2.520 . S
C607 N53 2.379 . S
C625 N14 2.385 . S
C627 C126 2.539 . S
C645 C166 2.487 . S
C643 N27 2.337 . S
C663 C206 2.472 . S
C661 N40 2.316 . S
C679 N1 2.363 . S
C681 C246 2.523 . S
