# Generated by pormake.
# Topology ptr, (4,4)-cn, num edge types: 1
# Building blocks:
#     Node 0, Type 0, BuildingBlock: NAHDIM_clean_sbu_0, # of connection points: 4
#     Node 1, Type 0, BuildingBlock: NAHDIM_clean_sbu_0, # of connection points: 4
#     Node 2, Type 0, BuildingBlock: NAHDIM_clean_sbu_0, # of connection points: 4
#     Node 3, Type 0, BuildingBlock: NAHDIM_clean_sbu_0, # of connection points: 4
#     Node 4, Type 0, BuildingBlock: NAHDIM_clean_sbu_0, # of connection points: 4
#     Node 5, Type 0, BuildingBlock: NAHDIM_clean_sbu_0, # of connection points: 4
#     Node 6, Type 0, BuildingBlock: NAHDIM_clean_sbu_0, # of connection points: 4
#     Node 7, Type 0, BuildingBlock: NAHDIM_clean_sbu_0, # of connection points: 4
#     Node 8, Type 0, BuildingBlock: NAHDIM_clean_sbu_0, # of connection points: 4
#     Node 9, Type 0, BuildingBlock: NAHDIM_clean_sbu_0, # of connection points: 4
#     Node 10, Type 0, BuildingBlock: NAHDIM_clean_sbu_0, # of connection points: 4
#     Node 11, Type 0, BuildingBlock: NAHDIM_clean_sbu_0, # of connection points: 4
#     Node 12, Type 0, BuildingBlock: NAHDIM_clean_sbu_0, # of connection points: 4
#     Node 13, Type 0, BuildingBlock: NAHDIM_clean_sbu_0, # of connection points: 4
#     Node 14, Type 0, BuildingBlock: NAHDIM_clean_sbu_0, # of connection points: 4
#     Node 15, Type 0, BuildingBlock: NAHDIM_clean_sbu_0, # of connection points: 4
#     Node 16, Type 0, BuildingBlock: NAHDIM_clean_sbu_0, # of connection points: 4
#     Node 17, Type 0, BuildingBlock: NAHDIM_clean_sbu_0, # of connection points: 4
#     Node 18, Type 1, BuildingBlock: KUFVIS_clean_linker_0, # of connection points: 4
#     Node 19, Type 1, BuildingBlock: KUFVIS_clean_linker_0, # of connection points: 4
#     Node 20, Type 1, BuildingBlock: KUFVIS_clean_linker_0, # of connection points: 4
#     Node 21, Type 1, BuildingBlock: KUFVIS_clean_linker_0, # of connection points: 4
#     Node 22, Type 1, BuildingBlock: KUFVIS_clean_linker_0, # of connection points: 4
#     Node 23, Type 1, BuildingBlock: KUFVIS_clean_linker_0, # of connection points: 4
#     Node 24, Type 1, BuildingBlock: KUFVIS_clean_linker_0, # of connection points: 4
#     Node 25, Type 1, BuildingBlock: KUFVIS_clean_linker_0, # of connection points: 4
#     Node 26, Type 1, BuildingBlock: KUFVIS_clean_linker_0, # of connection points: 4
#     Node 27, Type 1, BuildingBlock: KUFVIS_clean_linker_0, # of connection points: 4
#     Node 28, Type 1, BuildingBlock: KUFVIS_clean_linker_0, # of connection points: 4
#     Node 29, Type 1, BuildingBlock: KUFVIS_clean_linker_0, # of connection points: 4
#     Node 30, Type 1, BuildingBlock: KUFVIS_clean_linker_0, # of connection points: 4
#     Node 31, Type 1, BuildingBlock: KUFVIS_clean_linker_0, # of connection points: 4
#     Node 32, Type 1, BuildingBlock: KUFVIS_clean_linker_0, # of connection points: 4
#     Node 33, Type 1, BuildingBlock: KUFVIS_clean_linker_0, # of connection points: 4
#     Node 34, Type 1, BuildingBlock: KUFVIS_clean_linker_0, # of connection points: 4
#     Node 35, Type 1, BuildingBlock: KUFVIS_clean_linker_0, # of connection points: 4
#     Edge 36, Type (0, 1), BuildingBlock: XIVTED_clean_linker_0, # of connection points: 2
#     Edge 37, Type (0, 1), BuildingBlock: XIVTED_clean_linker_0, # of connection points: 2
#     Edge 38, Type (0, 1), BuildingBlock: XIVTED_clean_linker_0, # of connection points: 2
#     Edge 39, Type (0, 1), BuildingBlock: XIVTED_clean_linker_0, # of connection points: 2
#     Edge 40, Type (0, 1), BuildingBlock: XIVTED_clean_linker_0, # of connection points: 2
#     Edge 41, Type (0, 1), BuildingBlock: XIVTED_clean_linker_0, # of connection points: 2
#     Edge 42, Type (0, 1), BuildingBlock: XIVTED_clean_linker_0, # of connection points: 2
#     Edge 43, Type (0, 1), BuildingBlock: XIVTED_clean_linker_0, # of connection points: 2
#     Edge 44, Type (0, 1), BuildingBlock: XIVTED_clean_linker_0, # of connection points: 2
#     Edge 45, Type (0, 1), BuildingBlock: XIVTED_clean_linker_0, # of connection points: 2
#     Edge 46, Type (0, 1), BuildingBlock: XIVTED_clean_linker_0, # of connection points: 2
#     Edge 47, Type (0, 1), BuildingBlock: XIVTED_clean_linker_0, # of connection points: 2
#     Edge 48, Type (0, 1), BuildingBlock: XIVTED_clean_linker_0, # of connection points: 2
#     Edge 49, Type (0, 1), BuildingBlock: XIVTED_clean_linker_0, # of connection points: 2
#     Edge 50, Type (0, 1), BuildingBlock: XIVTED_clean_linker_0, # of connection points: 2
#     Edge 51, Type (0, 1), BuildingBlock: XIVTED_clean_linker_0, # of connection points: 2
#     Edge 52, Type (0, 1), BuildingBlock: XIVTED_clean_linker_0, # of connection points: 2
#     Edge 53, Type (0, 1), BuildingBlock: XIVTED_clean_linker_0, # of connection points: 2
#     Edge 54, Type (0, 1), BuildingBlock: XIVTED_clean_linker_0, # of connection points: 2
#     Edge 55, Type (0, 1), BuildingBlock: XIVTED_clean_linker_0, # of connection points: 2
#     Edge 56, Type (0, 1), BuildingBlock: XIVTED_clean_linker_0, # of connection points: 2
#     Edge 57, Type (0, 1), BuildingBlock: XIVTED_clean_linker_0, # of connection points: 2
#     Edge 58, Type (0, 1), BuildingBlock: XIVTED_clean_linker_0, # of connection points: 2
#     Edge 59, Type (0, 1), BuildingBlock: XIVTED_clean_linker_0, # of connection points: 2
#     Edge 60, Type (0, 1), BuildingBlock: XIVTED_clean_linker_0, # of connection points: 2
#     Edge 61, Type (0, 1), BuildingBlock: XIVTED_clean_linker_0, # of connection points: 2
#     Edge 62, Type (0, 1), BuildingBlock: XIVTED_clean_linker_0, # of connection points: 2
#     Edge 63, Type (0, 1), BuildingBlock: XIVTED_clean_linker_0, # of connection points: 2
#     Edge 64, Type (0, 1), BuildingBlock: XIVTED_clean_linker_0, # of connection points: 2
#     Edge 65, Type (0, 1), BuildingBlock: XIVTED_clean_linker_0, # of connection points: 2
#     Edge 66, Type (0, 1), BuildingBlock: XIVTED_clean_linker_0, # of connection points: 2
#     Edge 67, Type (0, 1), BuildingBlock: XIVTED_clean_linker_0, # of connection points: 2
#     Edge 68, Type (0, 1), BuildingBlock: XIVTED_clean_linker_0, # of connection points: 2
#     Edge 69, Type (0, 1), BuildingBlock: XIVTED_clean_linker_0, # of connection points: 2
#     Edge 70, Type (0, 1), BuildingBlock: XIVTED_clean_linker_0, # of connection points: 2
#     Edge 71, Type (0, 1), BuildingBlock: XIVTED_clean_linker_0, # of connection points: 2
#     Edge 72, Type (0, 1), BuildingBlock: XIVTED_clean_linker_0, # of connection points: 2
#     Edge 73, Type (0, 1), BuildingBlock: XIVTED_clean_linker_0, # of connection points: 2
#     Edge 74, Type (0, 1), BuildingBlock: XIVTED_clean_linker_0, # of connection points: 2
#     Edge 75, Type (0, 1), BuildingBlock: XIVTED_clean_linker_0, # of connection points: 2
#     Edge 76, Type (0, 1), BuildingBlock: XIVTED_clean_linker_0, # of connection points: 2
#     Edge 77, Type (0, 1), BuildingBlock: XIVTED_clean_linker_0, # of connection points: 2
#     Edge 78, Type (0, 1), BuildingBlock: XIVTED_clean_linker_0, # of connection points: 2
#     Edge 79, Type (0, 1), BuildingBlock: XIVTED_clean_linker_0, # of connection points: 2
#     Edge 80, Type (0, 1), BuildingBlock: XIVTED_clean_linker_0, # of connection points: 2
#     Edge 81, Type (0, 1), BuildingBlock: XIVTED_clean_linker_0, # of connection points: 2
#     Edge 82, Type (0, 1), BuildingBlock: XIVTED_clean_linker_0, # of connection points: 2
#     Edge 83, Type (0, 1), BuildingBlock: XIVTED_clean_linker_0, # of connection points: 2
#     Edge 84, Type (0, 1), BuildingBlock: XIVTED_clean_linker_0, # of connection points: 2
#     Edge 85, Type (0, 1), BuildingBlock: XIVTED_clean_linker_0, # of connection points: 2
#     Edge 86, Type (0, 1), BuildingBlock: XIVTED_clean_linker_0, # of connection points: 2
#     Edge 87, Type (0, 1), BuildingBlock: XIVTED_clean_linker_0, # of connection points: 2
#     Edge 88, Type (0, 1), BuildingBlock: XIVTED_clean_linker_0, # of connection points: 2
#     Edge 89, Type (0, 1), BuildingBlock: XIVTED_clean_linker_0, # of connection points: 2
#     Edge 90, Type (0, 1), BuildingBlock: XIVTED_clean_linker_0, # of connection points: 2
#     Edge 91, Type (0, 1), BuildingBlock: XIVTED_clean_linker_0, # of connection points: 2
#     Edge 92, Type (0, 1), BuildingBlock: XIVTED_clean_linker_0, # of connection points: 2
#     Edge 93, Type (0, 1), BuildingBlock: XIVTED_clean_linker_0, # of connection points: 2
#     Edge 94, Type (0, 1), BuildingBlock: XIVTED_clean_linker_0, # of connection points: 2
#     Edge 95, Type (0, 1), BuildingBlock: XIVTED_clean_linker_0, # of connection points: 2
#     Edge 96, Type (0, 1), BuildingBlock: XIVTED_clean_linker_0, # of connection points: 2
#     Edge 97, Type (0, 1), BuildingBlock: XIVTED_clean_linker_0, # of connection points: 2
#     Edge 98, Type (0, 1), BuildingBlock: XIVTED_clean_linker_0, # of connection points: 2
#     Edge 99, Type (0, 1), BuildingBlock: XIVTED_clean_linker_0, # of connection points: 2
#     Edge 100, Type (0, 1), BuildingBlock: XIVTED_clean_linker_0, # of connection points: 2
#     Edge 101, Type (0, 1), BuildingBlock: XIVTED_clean_linker_0, # of connection points: 2
#     Edge 102, Type (0, 1), BuildingBlock: XIVTED_clean_linker_0, # of connection points: 2
#     Edge 103, Type (0, 1), BuildingBlock: XIVTED_clean_linker_0, # of connection points: 2
#     Edge 104, Type (0, 1), BuildingBlock: XIVTED_clean_linker_0, # of connection points: 2
#     Edge 105, Type (0, 1), BuildingBlock: XIVTED_clean_linker_0, # of connection points: 2
#     Edge 106, Type (0, 1), BuildingBlock: XIVTED_clean_linker_0, # of connection points: 2
#     Edge 107, Type (0, 1), BuildingBlock: XIVTED_clean_linker_0, # of connection points: 2
# Relax obj value: 0.075
# Max RMSD: 0.213
# Mean RMSD: 0.121
data_MOF--net-ptr--node1-NAHDIM_clean_sbu_0--node2-KUFVIS_clean_linker_0--edge1-XIVTED_clean_linker_0
_symmetry_space_group_name_H-M    P1
_symmetry_Int_Tables_number       1
_symmetry_cell_setting            triclinic
loop_
_symmetry_equiv_pos_as_xyz
'x, y, z'
_cell_length_a     80.269997
_cell_length_b     78.726092
_cell_length_c     48.029041
_cell_angle_alpha  91.628405
_cell_angle_beta   89.207798
_cell_angle_gamma 121.72085
loop_
_atom_site_label
_atom_site_type_symbol
_atom_site_fract_x
_atom_site_fract_y
_atom_site_fract_z
_atom_type_partial_charge
C0 C 0.04693 0.37913 0.01729 0.0
O1 O 0.05004 0.39711 0.02178 0.0
O2 O 0.98235 0.33894 0.0093 0.0
Zn3 Zn 1.00586 0.36712 0.01158 0.0
O4 O 1.00577 0.3819 0.04657 0.0
C5 C 0.99231 0.38092 0.96654 0.0
O6 O 0.97483 0.36718 0.97524 0.0
O7 O 0.02962 0.36465 0.01227 0.0
C8 C 0.99618 0.3906 0.04862 0.0
O9 O 0.9851 0.38924 0.02779 0.0
C10 C 0.96579 0.33207 0.02105 0.0
O11 O 0.96236 0.34405 0.03622 0.0
O12 O 1.00739 0.38304 0.97837 0.0
C13 C 0.70189 0.65874 0.02175 0.0
O14 O 0.70186 0.67355 0.035 0.0
O15 O 0.66461 0.67034 0.01505 0.0
Zn16 Zn 0.6599 0.6424 0.01562 0.0
O17 O 0.64369 0.62566 0.98255 0.0
C18 C 0.63285 0.63039 0.06223 0.0
O19 O 0.62874 0.64298 0.05172 0.0
O20 O 0.68582 0.64405 0.01247 0.0
C21 C 0.62546 0.6127 0.98397 0.0
O22 O 0.61615 0.61055 0.00753 0.0
C23 C 0.65267 0.67486 0.00588 0.0
O24 O 0.6357 0.66071 -0.00428 0.0
O25 O 0.64612 0.62832 0.05093 0.0
C26 C 0.37123 0.0532 0.01122 0.0
O27 O 0.35902 0.0415 0.03034 0.0
O28 O 0.35113 1.00037 0.01161 0.0
Zn29 Zn 0.37963 0.0216 0.00478 0.0
O30 O 0.3912 0.01491 0.97149 0.0
C31 C 0.40242 0.01303 0.04051 0.0
O32 O 0.39715 0.99872 0.02161 0.0
O33 O 0.38159 0.04783 -0.00208 0.0
C34 C 0.38564 0.99758 0.9615 0.0
O35 O 0.37044 0.98183 0.97232 0.0
C36 C 0.3382 0.99088 -0.00718 0.0
O37 O 0.34305 0.9943 0.96645 0.0
O38 O 0.39618 0.02483 0.03846 0.0
C39 C 0.99244 0.67269 0.00924 0.0
O40 O 0.00916 0.68793 0.01833 0.0
O41 O 0.03997 0.67673 0.00282 0.0
Zn42 Zn 0.01349 0.65118 0.00284 0.0
O43 O 0.01047 0.63412 0.96907 0.0
C44 C 0.02422 0.63101 0.04066 0.0
O45 O 0.03923 0.6378 0.02367 0.0
O46 O 0.99129 0.65637 0.00238 0.0
C47 C 0.02451 0.63403 0.95669 0.0
O48 O 0.04256 0.64634 0.96527 0.0
C49 C 0.04512 0.69055 0.98547 0.0
O50 O 0.03269 0.68854 0.96622 0.0
O51 O 0.01123 0.63527 0.03644 0.0
C52 C 0.32089 0.36052 0.99139 0.0
O53 O 0.32073 0.34589 0.97728 0.0
O54 O 0.35584 0.3464 -0.00658 0.0
Zn55 Zn 0.36215 0.37484 -0.00274 0.0
O56 O 0.37908 0.38799 0.03121 0.0
C57 C 0.39516 0.39645 0.96151 0.0
O58 O 0.40314 0.3911 0.98035 0.0
O59 O 0.33697 0.37467 0.00153 0.0
C60 C 0.38942 0.4069 0.03398 0.0
O61 O 0.38829 0.41795 0.01499 0.0
C62 C 0.36601 0.34034 0.00461 0.0
O63 O 0.3817 0.35304 0.01901 0.0
O64 O 0.37714 0.39066 0.96371 0.0
C65 C 0.66102 0.97192 0.98487 0.0
O66 O 0.67555 0.98869 0.97509 0.0
O67 O 0.66422 0.02061 0.98938 0.0
Zn68 Zn 0.63959 0.99316 0.99097 0.0
O69 O 0.6236 0.99108 0.02493 0.0
C70 C 0.61947 1.00346 0.95344 0.0
O71 O 0.62772 0.01941 0.96988 0.0
O72 O 0.64517 0.97084 0.992 0.0
C73 C 0.62386 0.00596 0.03641 0.0
O74 O 0.63596 0.02395 0.02715 0.0
C75 C 0.67923 0.02781 0.00497 0.0
O76 O 0.6799 0.01679 0.02444 0.0
O77 O 0.62279 0.98961 0.95765 0.0
C78 C 0.69996 0.68739 0.32333 0.0
O79 O 0.68564 0.67425 0.30713 0.0
O80 O 0.64996 0.67559 0.33035 0.0
Zn81 Zn 0.67452 0.70319 0.33194 0.0
O82 O 0.6731 0.71896 0.36461 0.0
C83 C 0.6931 0.73207 0.28841 0.0
O84 O 0.7092 0.73467 0.29939 0.0
O85 O 0.69849 0.70108 0.33562 0.0
C86 C 0.65712 0.71442 0.37665 0.0
O87 O 0.64078 0.69814 0.36875 0.0
C88 C 0.64776 0.66167 0.34579 0.0
O89 O 0.66181 0.66516 0.3631 0.0
O90 O 0.67658 0.71881 0.29809 0.0
C91 C 0.35945 0.98327 0.35642 0.0
O92 O 0.35957 0.99713 0.37248 0.0
O93 O 0.32567 0.99927 0.35298 0.0
Zn94 Zn 0.31876 0.97058 0.34872 0.0
O95 O 0.30283 0.95838 0.314 0.0
C96 C 0.30507 0.94183 0.39335 0.0
O97 O 0.32051 0.94084 0.38701 0.0
O98 O 0.34354 0.97009 0.34473 0.0
C99 C 0.2948 0.9398 0.30856 0.0
O100 O 0.29749 0.92868 0.32558 0.0
C101 C 0.31563 0.00552 0.34189 0.0
O102 O 0.29976 0.99288 0.32776 0.0
O103 O 0.30206 0.95392 0.3806 0.0
C104 C 0.03367 0.38439 0.35326 0.0
O105 O 0.02035 0.37197 0.37073 0.0
O106 O 0.01317 0.33085 0.35102 0.0
Zn107 Zn 0.04186 0.3525 0.34562 0.0
O108 O 0.05372 0.34658 0.31214 0.0
C109 C 0.07548 0.35947 0.37682 0.0
O110 O 0.08366 0.36404 0.35211 0.0
O111 O 0.04439 0.37925 0.34046 0.0
C112 C 0.0537 0.33049 0.30855 0.0
O113 O 0.04459 0.31608 0.32644 0.0
C114 C 1.00243 0.31662 0.33393 0.0
O115 O 0.0097 0.31516 0.30997 0.0
O116 O 0.05763 0.35435 0.37947 0.0
C117 C 0.64408 0.99153 0.34105 0.0
O118 O 0.65858 0.00738 0.35363 0.0
O119 O 0.69459 0.00963 0.33512 0.0
Zn120 Zn 0.67315 0.98038 0.33306 0.0
O121 O 0.67616 0.9668 0.29894 0.0
C122 C 0.69062 0.96808 0.37332 0.0
O123 O 0.70667 0.98104 0.36027 0.0
O124 O 0.64687 0.97802 0.33129 0.0
C125 C 0.66586 0.94782 0.29752 0.0
O126 O 0.65357 0.93815 0.31778 0.0
C127 C 0.71093 0.01727 0.32252 0.0
O128 O 0.7148 0.00575 0.307 0.0
O129 O 0.67436 0.96577 0.36608 0.0
C130 C 0.99679 0.7236 0.32404 0.0
O131 O 0.01255 0.74145 0.3275 0.0
O132 O 0.02141 0.68455 0.31484 0.0
Zn133 Zn 0.02538 0.71224 0.31546 0.0
O134 O 0.04084 0.7283 0.34958 0.0
C135 C 0.05319 0.72632 0.26986 0.0
O136 O 0.05798 0.71425 0.28046 0.0
O137 O 0.99873 0.70888 0.31807 0.0
C138 C 0.05921 0.74084 0.34921 0.0
O139 O 0.069 0.74329 0.32605 0.0
C140 C 0.03245 0.67982 0.32669 0.0
O141 O 0.04814 0.69368 0.34005 0.0
O142 O 0.03924 0.7274 0.28076 0.0
C143 C 0.32234 0.3015 0.32347 0.0
O144 O 0.33579 0.31494 0.30711 0.0
O145 O 0.33549 0.355 0.32728 0.0
Zn146 Zn 0.30891 0.32985 0.33156 0.0
O147 O 0.29584 0.33292 0.36566 0.0
C148 C 0.28737 0.34033 0.29778 0.0
O149 O 0.2938 0.35449 0.31718 0.0
O150 O 0.31004 0.30492 0.3352 0.0
C151 C 0.27744 0.32128 0.36837 0.0
O152 O 0.26771 0.30709 0.34946 0.0
C153 C 0.35106 0.35984 0.34049 0.0
O154 O 0.35087 0.3475 0.35853 0.0
O155 O 0.29226 0.32739 0.29884 0.0
C156 C 0.36739 0.02087 0.66475 0.0
O157 O 0.35536 0.00816 0.64572 0.0
O158 O 0.31454 1.0011 0.67006 0.0
Zn159 Zn 0.33675 0.02995 0.67299 0.0
O160 O 0.33241 0.04389 0.7055 0.0
C161 C 0.32616 0.05027 0.63478 0.0
O162 O 0.31237 0.04576 0.65335 0.0
O163 O 0.3625 0.03158 0.67862 0.0
C164 C 0.34238 0.06287 0.7064 0.0
O165 O 0.35533 0.07242 0.68678 0.0
C166 C 0.29699 0.99551 0.67661 0.0
O167 O 0.293 0.00883 0.68591 0.0
O168 O 0.33811 0.04451 0.63825 0.0
C169 C 0.02272 0.31403 0.68462 0.0
O170 O 0.02428 0.3266 0.70448 0.0
O171 O 0.9942 0.3379 0.67989 0.0
Zn172 Zn 0.98433 0.30845 0.67704 0.0
O173 O 0.96545 0.29587 0.64504 0.0
C174 C 0.95281 0.29154 0.71615 0.0
O175 O 0.94535 0.29798 0.6981 0.0
O176 O 1.00698 0.30455 0.6705 0.0
C177 C 0.95384 0.27705 0.64347 0.0
O178 O 0.95488 0.26589 0.66237 0.0
C179 C 0.98528 0.34529 0.66848 0.0
O180 O 0.96911 0.33347 0.65442 0.0
O181 O 0.96993 0.2948 0.71203 0.0
C182 C 0.72271 0.73189 0.67536 0.0
O183 O 0.74106 0.7368 0.67381 0.0
O184 O 0.68742 0.66693 0.6933 0.0
Zn185 Zn 0.71394 0.69126 0.68467 0.0
O186 O 0.72574 0.68773 0.64908 0.0
C187 C 0.74231 0.68832 0.71614 0.0
O188 O 0.73891 0.67523 0.69603 0.0
O189 O 0.70946 0.71392 0.68013 0.0
C190 C 0.722 0.67101 0.63877 0.0
O191 O 0.70909 0.65444 0.65099 0.0
C192 C 0.6739 0.65699 0.67543 0.0
O193 O 0.67713 0.66177 0.64909 0.0
O194 O 0.73298 0.69731 0.71633 0.0
C195 C 0.31749 0.33218 0.67001 0.0
O196 O 0.33267 0.34761 0.68219 0.0
O197 O 0.36721 0.34617 0.66652 0.0
Zn198 Zn 0.34417 0.31775 0.66435 0.0
O199 O 0.34709 0.30316 0.63127 0.0
C200 C 0.35513 0.29743 0.70197 0.0
O201 O 0.3685 0.3016 0.68281 0.0
O202 O 0.31897 0.31768 0.66091 0.0
C203 C 0.33719 0.28417 0.6306 0.0
O204 O 0.3248 0.27469 0.65085 0.0
C205 C 0.38447 0.35145 0.65881 0.0
O206 O 0.38791 0.33796 0.6485 0.0
O207 O 0.34321 0.30327 0.69897 0.0
C208 C 0.65353 0.02226 0.65 0.0
O209 O 0.65455 0.00896 0.63414 0.0
O210 O 0.69241 0.01131 0.657 0.0
Zn211 Zn 0.69523 0.03827 0.66002 0.0
O212 O 0.7109 0.05198 0.69472 0.0
C213 C 0.72486 0.05235 0.61819 0.0
O214 O 0.7277 0.03912 0.62966 0.0
O215 O 0.66888 0.03596 0.66235 0.0
C216 C 0.72333 0.07067 0.69565 0.0
O217 O 0.72534 0.08139 0.67396 0.0
C218 C 0.68006 0.99535 0.66913 0.0
O219 O 0.66654 0.99507 0.68516 0.0
O220 O 0.71108 0.05451 0.62718 0.0
C221 C 0.95312 0.60944 0.65596 0.0
O222 O 0.9357 0.60679 0.65252 0.0
O223 O 0.99525 0.67518 0.64751 0.0
Zn224 Zn 0.96741 0.65226 0.65356 0.0
O225 O 0.95674 0.65714 0.68931 0.0
C226 C 0.94431 0.66223 0.6212 0.0
O227 O 0.94995 0.67592 0.64117 0.0
O228 O 0.9681 0.62707 0.65658 0.0
C229 C 0.93841 0.6482 0.69393 0.0
O230 O 0.92618 0.63511 0.67541 0.0
C231 C 1.0023 0.69264 0.65813 0.0
O232 O 0.99107 0.69653 0.67369 0.0
O233 O 0.95026 0.65011 0.6215 0.0
H234 H 0.2302 0.34376 0.11327 0.0
H235 H 0.18316 0.34314 0.0717 0.0
H236 H 0.18483 0.34267 0.16206 0.0
H237 H 0.15379 0.32817 0.16023 0.0
H238 H 0.11067 0.33673 0.12387 0.0
H239 H 0.16314 0.35379 0.07835 0.0
C240 C 0.21642 0.34324 0.11443 0.0
C241 C 0.20785 0.34214 0.14031 0.0
C242 C 0.20782 0.34422 0.08999 0.0
C243 C 0.18988 0.34331 0.09114 0.0
C244 C 0.18086 0.3424 0.11712 0.0
C245 C 0.19058 0.34252 0.14166 0.0
C246 C 0.16135 0.34092 0.11879 0.0
C247 C 0.14944 0.33336 0.14282 0.0
C248 C 0.13147 0.33225 0.14493 0.0
C249 C 0.12452 0.33743 0.12226 0.0
C250 C 0.13582 0.34487 0.0982 0.0
C251 C 0.15436 0.34711 0.09669 0.0
H252 H 0.6764 0.89712 0.10391 0.0
H253 H 0.6818 0.85236 0.05968 0.0
H254 H 0.67592 0.8512 0.14975 0.0
H255 H 0.69212 0.83667 0.14887 0.0
H256 H 0.68859 0.78587 0.1088 0.0
H257 H 0.6719 0.82053 0.06319 0.0
C258 C 0.67735 0.88388 0.10429 0.0
C259 C 0.67691 0.87552 0.12972 0.0
C260 C 0.67855 0.87522 0.07919 0.0
C261 C 0.67999 0.85819 0.07937 0.0
C262 C 0.67946 0.84922 0.10487 0.0
C263 C 0.6772 0.85786 0.12987 0.0
C264 C 0.68181 0.83143 0.10574 0.0
C265 C 0.68836 0.82719 0.13041 0.0
C266 C 0.69048 0.81066 0.13168 0.0
C267 C 0.68714 0.7988 0.10782 0.0
C268 C 0.68079 0.80256 0.08311 0.0
C269 C 0.67764 0.81849 0.0822 0.0
H270 H 0.24098 0.90873 0.11261 0.0
H271 H 0.1936 0.8682 0.05873 0.0
H272 H 0.1938 0.85467 0.1456 0.0
H273 H 0.16204 0.84136 0.1415 0.0
H274 H 0.11958 0.79133 0.09245 0.0
H275 H 0.1743 0.83397 0.05528 0.0
C276 C 0.22697 0.89492 0.10961 0.0
C277 C 0.21793 0.88257 0.1322 0.0
C278 C 0.21847 0.88969 0.08311 0.0
C279 C 0.20037 0.87173 0.07912 0.0
C280 C 0.19084 0.85894 0.10176 0.0
C281 C 0.20027 0.86435 0.12803 0.0
C282 C 0.1709 0.84041 0.09866 0.0
C283 C 0.158 0.83326 0.12173 0.0
C284 C 0.13965 0.81549 0.11972 0.0
C285 C 0.13362 0.80529 0.09409 0.0
C286 C 0.14595 0.81205 0.07089 0.0
C287 C 0.16465 0.82943 0.07314 0.0
H288 H 0.35017 0.12571 0.89101 0.0
H289 H 0.35986 0.17807 0.9355 0.0
H290 H 0.33437 0.16366 0.85274 0.0
H291 H 0.35073 0.19629 0.84921 0.0
H292 H 0.3434 0.24006 0.89263 0.0
H293 H 0.34384 0.19463 0.93901 0.0
C294 C 0.34894 0.13879 0.89196 0.0
C295 C 0.34189 0.14358 0.86895 0.0
C296 C 0.35505 0.15097 0.91602 0.0
C297 C 0.35439 0.16846 0.91708 0.0
C298 C 0.34728 0.17366 0.89403 0.0
C299 C 0.34065 0.16068 0.87033 0.0
C300 C 0.34693 0.19255 0.89408 0.0
C301 C 0.34833 0.20194 0.86866 0.0
C302 C 0.34638 0.21862 0.86793 0.0
C303 C 0.34416 0.2267 0.89291 0.0
C304 C 0.34366 0.21836 0.91843 0.0
C305 C 0.34488 0.20123 0.91911 0.0
H306 H 0.77089 0.11768 0.89122 0.0
H307 H 0.81427 0.16546 0.94241 0.0
H308 H 0.82645 0.1587 0.85577 0.0
H309 H 0.84602 0.19015 0.85681 0.0
H310 H 0.89548 0.23234 0.90525 0.0
H311 H 0.84582 0.18517 0.94669 0.0
C312 C 0.78555 0.13072 0.89345 0.0
C313 C 0.79793 0.13763 0.87038 0.0
C314 C 0.79167 0.14043 0.91943 0.0
C315 C 0.81031 0.15783 0.92233 0.0
C316 C 0.82322 0.16535 0.89923 0.0
C317 C 0.81684 0.15447 0.87358 0.0
C318 C 0.84311 0.18434 0.90136 0.0
C319 C 0.85294 0.19482 0.87701 0.0
C320 C 0.87206 0.21156 0.87821 0.0
C321 C 0.88103 0.21886 0.90408 0.0
C322 C 0.87134 0.20969 0.92864 0.0
C323 C 0.85259 0.19231 0.92737 0.0
H324 H 0.79961 0.68896 0.89936 0.0
H325 H 0.83843 0.67554 0.93952 0.0
H326 H 0.85006 0.6973 0.85531 0.0
H327 H 0.86178 0.67747 0.85115 0.0
H328 H 0.9103 0.67947 0.89065 0.0
H329 H 0.87141 0.68969 0.93994 0.0
C330 C 0.81304 0.68879 0.89882 0.0
C331 C 0.82408 0.69352 0.87433 0.0
C332 C 0.81845 0.68276 0.92234 0.0
C333 C 0.83505 0.68114 0.92151 0.0
C334 C 0.84675 0.68622 0.89725 0.0
C335 C 0.84119 0.69276 0.87396 0.0
C336 C 0.86432 0.68416 0.89569 0.0
C337 C 0.8702 0.67989 0.86984 0.0
C338 C 0.88707 0.67878 0.86771 0.0
C339 C 0.89764 0.681 0.89185 0.0
C340 C 0.89179 0.68453 0.91779 0.0
C341 C 0.87535 0.68638 0.91976 0.0
H342 H 0.89488 0.6802 0.44211 0.0
H343 H 0.8536 0.69049 0.4028 0.0
H344 H 0.84037 0.66178 0.4827 0.0
H345 H 0.82326 0.67593 0.48893 0.0
H346 H 0.77319 0.66831 0.44656 0.0
H347 H 0.82121 0.67411 0.39864 0.0
C348 C 0.88065 0.67868 0.44228 0.0
C349 C 0.86834 0.6706 0.4653 0.0
C350 C 0.87514 0.68546 0.4197 0.0
C351 C 0.85716 0.68444 0.4201 0.0
C352 C 0.84422 0.67603 0.4429 0.0
C353 C 0.85004 0.66892 0.46526 0.0
C354 C 0.82478 0.6746 0.44366 0.0
C355 C 0.81581 0.67412 0.46946 0.0
C356 C 0.79701 0.67121 0.47054 0.0
C357 C 0.78742 0.6698 0.44577 0.0
C358 C 0.79641 0.67148 0.42003 0.0
C359 C 0.81489 0.67357 0.41887 0.0
H360 H 0.33888 0.22648 0.44259 0.0
H361 H 0.32975 0.17399 0.39934 0.0
H362 H 0.34986 0.18644 0.48516 0.0
H363 H 0.33473 0.15442 0.48807 0.0
H364 H 0.34147 0.10969 0.44681 0.0
H365 H 0.34277 0.15515 0.39837 0.0
C366 C 0.33951 0.21304 0.4425 0.0
C367 C 0.34442 0.20739 0.46685 0.0
C368 C 0.33468 0.20127 0.41816 0.0
C369 C 0.33437 0.18325 0.41812 0.0
C370 C 0.33956 0.17723 0.44242 0.0
C371 C 0.34498 0.18988 0.46647 0.0
C372 C 0.33929 0.15795 0.44316 0.0
C373 C 0.33732 0.14864 0.4689 0.0
C374 C 0.33889 0.13178 0.4704 0.0
C375 C 0.34109 0.12324 0.44588 0.0
C376 C 0.34196 0.13132 0.42002 0.0
C377 C 0.34133 0.14878 0.41856 0.0
H378 H 0.89672 0.24237 0.45354 0.0
H379 H 0.86068 0.19197 0.39984 0.0
H380 H 0.84635 0.1917 0.48737 0.0
H381 H 0.83394 0.16036 0.4843 0.0
H382 H 0.78867 0.11276 0.43566 0.0
H383 H 0.82951 0.16731 0.39576 0.0
C384 C 0.88362 0.22772 0.45055 0.0
C385 C 0.87229 0.21756 0.47355 0.0
C386 C 0.87908 0.21885 0.42386 0.0
C387 C 0.86326 0.199 0.4203 0.0
C388 C 0.85113 0.18851 0.4432 0.0
C389 C 0.8556 0.19853 0.4695 0.0
C390 C 0.83419 0.16718 0.44041 0.0
C391 C 0.82689 0.1551 0.46423 0.0
C392 C 0.81031 0.13577 0.46271 0.0
C393 C 0.80155 0.12774 0.43695 0.0
C394 C 0.80869 0.13894 0.41287 0.0
C395 C 0.8248 0.15869 0.4145 0.0
H396 H 0.02347 0.46295 0.23883 0.0
H397 H 0.03079 0.51544 0.27975 0.0
H398 H 0.00948 0.50011 0.19458 0.0
H399 H 0.02302 0.53176 0.19008 0.0
H400 H 0.01419 0.5757 0.22921 0.0
H401 H 0.01661 0.53321 0.27995 0.0
C402 C 0.02268 0.47628 0.23811 0.0
C403 C 0.01682 0.48076 0.21359 0.0
C404 C 0.02732 0.48849 0.26194 0.0
C405 C 0.0264 0.50583 0.26134 0.0
C406 C 0.02023 0.51068 0.23684 0.0
C407 C 0.01492 0.49747 0.21338 0.0
C408 C 0.01938 0.52933 0.23523 0.0
C409 C 0.02036 0.53771 0.20901 0.0
C410 C 0.01769 0.55384 0.20672 0.0
C411 C 0.01544 0.56269 0.23084 0.0
C412 C 0.01559 0.55564 0.25712 0.0
C413 C 0.01729 0.53884 0.25943 0.0
H414 H 0.44428 0.44866 0.22646 0.0
H415 H 0.48909 0.49479 0.27772 0.0
H416 H 0.4988 0.49016 0.18918 0.0
H417 H 0.52129 0.5202 0.19126 0.0
H418 H 0.57081 0.56106 0.24028 0.0
H419 H 0.51964 0.51608 0.28151 0.0
C420 C 0.45906 0.46155 0.22844 0.0
C421 C 0.47082 0.46897 0.20488 0.0
C422 C 0.46588 0.47065 0.25458 0.0
C423 C 0.4847 0.48783 0.25728 0.0
C424 C 0.49715 0.49581 0.23373 0.0
C425 C 0.48987 0.48565 0.20768 0.0
C426 C 0.51749 0.51439 0.23595 0.0
C427 C 0.52791 0.52451 0.21165 0.0
C428 C 0.54729 0.54073 0.21313 0.0
C429 C 0.55616 0.54788 0.23904 0.0
C430 C 0.54589 0.53938 0.2635 0.0
C431 C 0.52681 0.5225 0.26209 0.0
H432 H 0.45638 0.01356 0.22836 0.0
H433 H 0.48983 0.99299 0.26743 0.0
H434 H 0.50445 0.01656 0.18419 0.0
H435 H 0.51539 0.99698 0.17857 0.0
H436 H 0.55644 0.98689 0.2187 0.0
H437 H 0.52066 1.00103 0.26871 0.0
C438 C 0.46883 0.01168 0.22773 0.0
C439 C 0.47966 0.01531 0.2032 0.0
C440 C 0.47289 1.00417 0.25098 0.0
C441 C 0.48783 0.99995 0.24974 0.0
C442 C 0.49966 1.00433 0.2257 0.0
C443 C 0.49555 0.01249 0.20277 0.0
C444 C 0.51557 0.9996 0.22394 0.0
C445 C 0.52198 0.99646 0.19774 0.0
C446 C 0.53692 0.99229 0.19574 0.0
C447 C 0.54478 0.98999 0.22006 0.0
C448 C 0.53864 0.99274 0.24623 0.0
C449 C 0.5245 0.99809 0.24823 0.0
H450 H 0.55866 0.99907 0.76867 0.0
H451 H 0.51359 1.00178 0.72652 0.0
H452 H 0.5153 1.00222 0.81692 0.0
H453 H 0.48441 0.98928 0.81533 0.0
H454 H 0.44454 1.00287 0.77972 0.0
H455 H 0.49456 0.01365 0.73241 0.0
C456 C 0.54533 0.99943 0.76965 0.0
C457 C 0.53723 0.99953 0.79548 0.0
C458 C 0.53716 1.00087 0.74505 0.0
C459 C 0.51995 1.00143 0.74602 0.0
C460 C 0.5112 1.00137 0.77194 0.0
C461 C 0.52064 1.00115 0.79658 0.0
C462 C 0.49244 1.0015 0.77359 0.0
C463 C 0.48071 0.99511 0.79796 0.0
C464 C 0.4637 0.99588 0.80037 0.0
C465 C 0.45765 1.00215 0.7779 0.0
C466 C 0.46859 0.00821 0.75339 0.0
C467 C 0.48603 0.00812 0.75124 0.0
H468 H 0.98391 0.54812 0.77794 0.0
H469 H 0.98234 0.49811 0.7374 0.0
H470 H 1.00735 0.51798 0.81999 0.0
H471 H 0.99405 0.48511 0.8251 0.0
H472 H 0.01024 0.44666 0.7853 0.0
H473 H 1.00333 0.48706 0.73586 0.0
C474 C 0.98684 0.53615 0.77845 0.0
C475 C 0.99562 0.53408 0.80194 0.0
C476 C 0.98245 0.52351 0.75508 0.0
C477 C 0.98636 0.50811 0.75539 0.0
C478 C 0.99503 0.50552 0.77908 0.0
C479 C 1.00007 0.51908 0.80194 0.0
C480 C 0.99881 0.48884 0.78039 0.0
C481 C 0.9982 0.48037 0.80627 0.0
C482 C 1.00292 0.46565 0.80816 0.0
C483 C 1.0075 0.45872 0.78396 0.0
C484 C 1.00718 0.46601 0.75787 0.0
C485 C 1.00303 0.4812 0.7561 0.0
H486 H 0.58079 0.56439 0.7906 0.0
H487 H 0.53012 0.52899 0.73919 0.0
H488 H 0.53164 0.51166 0.82351 0.0
H489 H 0.50056 0.50318 0.82248 0.0
H490 H 0.45317 0.45615 0.77522 0.0
H491 H 0.50798 0.49455 0.73476 0.0
C492 C 0.56631 0.55115 0.78778 0.0
C493 C 0.55716 0.53848 0.81006 0.0
C494 C 0.55679 0.54766 0.7622 0.0
C495 C 0.53764 0.5311 0.75871 0.0
C496 C 0.52803 0.51803 0.78101 0.0
C497 C 0.53829 0.5217 0.80634 0.0
C498 C 0.5071 0.50121 0.77882 0.0
C499 C 0.49504 0.49521 0.80277 0.0
C500 C 0.47574 0.4788 0.80177 0.0
C501 C 0.46796 0.46911 0.77618 0.0
C502 C 0.47939 0.47496 0.75199 0.0
C503 C 0.49905 0.49074 0.75336 0.0
H504 H 0.66758 0.78214 0.55758 0.0
H505 H 0.68954 0.83935 0.5976 0.0
H506 H 0.66376 0.8271 0.51529 0.0
H507 H 0.6855 0.85955 0.5109 0.0
H508 H 0.69203 0.91126 0.55329 0.0
H509 H 0.67678 0.85955 0.6002 0.0
C510 C 0.66952 0.79686 0.55762 0.0
C511 C 0.66494 0.80333 0.53372 0.0
C512 C 0.67818 0.80972 0.58072 0.0
C513 C 0.68207 0.8293 0.58006 0.0
C514 C 0.67671 0.83589 0.55666 0.0
C515 C 0.66803 0.82259 0.53361 0.0
C516 C 0.68083 0.85676 0.55575 0.0
C517 C 0.68498 0.86672 0.53017 0.0
C518 C 0.68888 0.88628 0.5292 0.0
C519 C 0.68923 0.8962 0.55395 0.0
C520 C 0.68503 0.88665 0.57943 0.0
C521 C 0.68056 0.8669 0.58037 0.0
H522 H 0.10052 0.78327 0.54838 0.0
H523 H 0.15063 0.81687 0.60133 0.0
H524 H 0.15303 0.83255 0.51506 0.0
H525 H 0.18328 0.83811 0.51893 0.0
H526 H 0.23133 0.88393 0.56659 0.0
H527 H 0.17443 0.85127 0.60409 0.0
C528 C 0.11543 0.79575 0.55122 0.0
C529 C 0.12585 0.80743 0.52855 0.0
C530 C 0.12417 0.79935 0.57744 0.0
C531 C 0.14381 0.81476 0.58119 0.0
C532 C 0.15471 0.82675 0.55856 0.0
C533 C 0.14528 0.82317 0.53251 0.0
C534 C 0.17604 0.84235 0.56136 0.0
C535 C 0.18873 0.84649 0.53839 0.0
C536 C 0.20858 0.86155 0.54009 0.0
C537 C 0.2161 0.87187 0.56538 0.0
C538 C 0.20395 0.8681 0.58853 0.0
C539 C 0.18386 0.85355 0.58644 0.0
H540 H 0.11518 0.33339 0.56138 0.0
H541 H 0.15599 0.32348 0.6029 0.0
H542 H 0.17077 0.35265 0.52338 0.0
H543 H 0.18544 0.33558 0.5169 0.0
H544 H 0.23387 0.3392 0.55889 0.0
H545 H 0.18889 0.33976 0.60712 0.0
C546 C 0.12948 0.33507 0.56181 0.0
C547 C 0.14233 0.34367 0.5394 0.0
C548 C 0.13461 0.32832 0.58484 0.0
C549 C 0.15266 0.32952 0.58534 0.0
C550 C 0.16586 0.33779 0.5628 0.0
C551 C 0.16062 0.34531 0.54028 0.0
C552 C 0.18474 0.33812 0.5621 0.0
C553 C 0.19292 0.33715 0.53624 0.0
C554 C 0.21089 0.33817 0.53498 0.0
C555 C 0.22032 0.33915 0.55969 0.0
C556 C 0.21221 0.33925 0.58554 0.0
C557 C 0.19463 0.33908 0.58688 0.0
H558 H 0.0212 0.40033 0.09253 0.0
H559 H 0.98704 0.46674 0.17485 0.0
H560 H 0.97649 0.40964 0.06123 0.0
H561 H 0.03902 0.46607 0.19439 0.0
H562 H 0.98143 0.44451 0.13447 0.0
H563 H 0.02597 0.42246 0.13219 0.0
C564 C 0.01231 0.40695 0.09406 0.0
C565 C 0.99846 0.40316 0.07348 0.0
C566 C 0.99406 0.44928 0.14763 0.0
C567 C 1.00391 0.42863 0.11887 0.0
C568 C 0.99732 0.46204 0.17056 0.0
C569 C 0.01341 0.46811 0.18819 0.0
C570 C 1.00696 0.44255 0.14243 0.0
C571 C 0.02619 0.46144 0.18175 0.0
C572 C 0.0151 0.41967 0.11667 0.0
C573 C 0.98738 0.41219 0.07658 0.0
N574 N 0.02263 0.44898 0.15953 0.0
N575 N 0.99034 0.42453 0.09887 0.0
H576 H 0.63899 0.60509 0.09225 0.0
H577 H 0.53619 0.55616 0.17198 0.0
H578 H 0.59813 0.62443 0.08225 0.0
H579 H 0.58373 0.54962 0.19773 0.0
H580 H 0.55676 0.57744 0.13407 0.0
H581 H 0.61723 0.58144 0.12701 0.0
C582 C 0.62549 0.60443 0.09744 0.0
C583 C 0.62043 0.61683 0.08443 0.0
C584 C 0.56262 0.57121 0.1479 0.0
C585 C 0.59533 0.5896 0.12386 0.0
C586 C 0.55084 0.55893 0.1693 0.0
C587 C 0.55834 0.55121 0.18793 0.0
C588 C 0.58194 0.5756 0.14506 0.0
C589 C 0.57748 0.55542 0.18384 0.0
C590 C 0.61306 0.5909 0.11724 0.0
C591 C 0.6027 0.61526 0.0919 0.0
N592 N 0.58865 0.56737 0.16289 0.0
N593 N 0.59075 0.60184 0.11105 0.0
H594 H 0.42164 0.99328 0.04612 0.0
H595 H 0.46579 0.04039 0.19633 0.0
H596 H 0.41405 0.03846 0.08648 0.0
H597 H 0.47687 0.99915 0.15112 0.0
H598 H 0.4488 0.04193 0.15541 0.0
H599 H 0.4434 0.99684 0.08362 0.0
C600 C 0.42454 1.00398 0.0629 0.0
C601 C 0.41586 0.01548 0.06323 0.0
C602 C 0.45518 0.03276 0.15434 0.0
C603 C 0.44093 0.01968 0.10645 0.0
C604 C 0.46488 0.03187 0.17768 0.0
C605 C 0.47266 0.0195 0.17726 0.0
C606 C 0.45312 0.02109 0.13045 0.0
C607 C 0.47126 0.009 0.1524 0.0
C608 C 0.43708 0.00607 0.0843 0.0
C609 C 0.42035 0.02922 0.08544 0.0
N610 N 0.46148 0.00986 0.13017 0.0
N611 N 0.43248 0.03084 0.10628 0.0
H612 H 0.3739 0.96566 0.92543 0.0
H613 H 0.47841 0.01288 0.85134 0.0
H614 H 0.42364 0.02388 0.94706 0.0
H615 H 0.42446 0.97065 0.80941 0.0
H616 H 0.45958 0.01141 0.89287 0.0
H617 H 0.39339 0.9623 0.88829 0.0
C618 C 0.38893 0.97768 0.92244 0.0
C619 C 0.39712 0.99516 0.93914 0.0
C620 C 0.45191 1.00224 0.8747 0.0
C621 C 0.4195 0.99123 0.89725 0.0
C622 C 0.46264 1.00291 0.85118 0.0
C623 C 0.45292 0.99191 0.827 0.0
C624 C 0.43137 0.99031 0.87408 0.0
C625 C 0.43244 0.97942 0.82767 0.0
C626 C 0.4 0.97575 0.90129 0.0
C627 C 0.41667 0.01026 0.93443 0.0
N628 N 0.4223 0.97901 0.85081 0.0
N629 N 0.42721 0.00792 0.91397 0.0
H630 H 0.02591 0.40853 0.94023 0.0
H631 H 0.973 0.449 0.84607 0.0
H632 H 0.9637 0.38493 0.94289 0.0
H633 H 0.03123 0.46104 0.83053 0.0
H634 H 0.97067 0.42955 0.88664 0.0
H635 H 0.02925 0.43148 0.90433 0.0
C636 C 0.01294 0.40816 0.93327 0.0
C637 C 0.99447 0.39468 0.94446 0.0
C638 C 0.98402 0.43661 0.87449 0.0
C639 C 0.99824 0.42108 0.90353 0.0
C640 C 0.98541 0.44784 0.85156 0.0
C641 C 1.0023 0.45652 0.83497 0.0
C642 C 0.9997 0.43423 0.88091 0.0
C643 C 0.0179 0.45443 0.84272 0.0
C644 C 0.01487 0.42129 0.91278 0.0
C645 C 0.9782 0.39495 0.93469 0.0
N646 N 0.01621 0.44344 0.86505 0.0
N647 N 0.98046 0.40795 0.91479 0.0
H648 H 0.58611 0.58575 0.97842 0.0
H649 H 0.59558 0.55278 0.82282 0.0
H650 H 0.6409 0.6095 0.93433 0.0
H651 H 0.54056 0.53809 0.86038 0.0
H652 H 0.61219 0.56879 0.86671 0.0
H653 H 0.56906 0.56406 0.93805 0.0
C654 C 0.59457 0.58639 0.96028 0.0
C655 C 0.61496 0.59958 0.95967 0.0
C656 C 0.59645 0.56186 0.86545 0.0
C657 C 0.59555 0.57466 0.91354 0.0
C658 C 0.58697 0.55268 0.84044 0.0
C659 C 0.5667 0.54433 0.83784 0.0
C660 C 0.58561 0.56269 0.88805 0.0
C661 C 0.5562 0.5443 0.86147 0.0
C662 C 0.58482 0.57398 0.93727 0.0
C663 C 0.62516 0.5997 0.93564 0.0
N664 N 0.56581 0.55358 0.88552 0.0
N665 N 0.61534 0.58745 0.91353 0.0
H666 H 0.98929 0.60847 0.93171 0.0
H667 H 0.02975 0.55478 0.83215 0.0
H668 H 0.05006 0.62587 0.92989 0.0
H669 H 0.97154 0.54455 0.82691 0.0
H670 H 0.03708 0.57904 0.87046 0.0
H671 H 0.98223 0.58344 0.89524 0.0
C672 C 1.00118 0.60707 0.92359 0.0
C673 C 0.02031 0.61932 0.93385 0.0
C674 C 0.0227 0.57144 0.86094 0.0
C675 C 0.01228 0.59053 0.89208 0.0
C676 C 0.01848 0.55752 0.83926 0.0
C677 C 1.00006 0.54776 0.82631 0.0
C678 C 1.00833 0.57547 0.86977 0.0
C679 C 0.98601 0.55194 0.83611 0.0
C680 C 0.99713 0.59274 0.90275 0.0
C681 C 0.03511 0.61679 0.92252 0.0
N682 N 0.99044 0.56548 0.85721 0.0
N683 N 0.03077 0.60263 0.90226 0.0
H684 H 0.43466 0.41414 0.95402 0.0
H685 H 0.43683 0.46493 0.81111 0.0
H686 H 0.3835 0.40972 0.91799 0.0
H687 H 0.48834 0.47277 0.85101 0.0
H688 H 0.41725 0.44619 0.85116 0.0
H689 H 0.45466 0.43664 0.91722 0.0
C690 C 0.4276 0.41787 0.93834 0.0
C691 C 0.40733 0.40992 0.93902 0.0
C692 C 0.43287 0.4522 0.8513 0.0
C693 C 0.43023 0.43581 0.89678 0.0
C694 C 0.44405 0.4629 0.82845 0.0
C695 C 0.46424 0.47033 0.82764 0.0
C696 C 0.4419 0.44877 0.87344 0.0
C697 C 0.47286 0.46745 0.85081 0.0
C698 C 0.43907 0.43081 0.91737 0.0
C699 C 0.39906 0.41542 0.91822 0.0
N700 N 0.46162 0.45672 0.87261 0.0
N701 N 0.41052 0.42796 0.89788 0.0
H702 H 0.60162 0.97395 0.91294 0.0
H703 H 0.54702 0.02304 0.84303 0.0
H704 H 0.60668 0.02868 0.94304 0.0
H705 H 0.54924 0.97371 0.80597 0.0
H706 H 0.56569 0.02295 0.88293 0.0
H707 H 0.57962 0.97155 0.87614 0.0
C708 C 0.5981 0.98545 0.91184 0.0
C709 C 0.60611 1.0016 0.93101 0.0
C710 C 0.56199 0.01207 0.86613 0.0
C711 C 0.58086 0.99889 0.88909 0.0
C712 C 0.55121 0.01203 0.8435 0.0
C713 C 0.54671 0.99845 0.82112 0.0
C714 C 0.56821 0.99837 0.86643 0.0
C715 C 0.55264 0.9846 0.82265 0.0
C716 C 0.58554 0.98407 0.89084 0.0
C717 C 0.60097 0.01602 0.92862 0.0
N718 N 0.56314 0.98497 0.84483 0.0
N719 N 0.5887 0.01433 0.90807 0.0
H720 H 0.59989 0.97176 0.06485 0.0
H721 H 0.54912 0.01957 0.15464 0.0
H722 H 0.6153 0.03296 0.0584 0.0
H723 H 0.54541 0.96478 0.17561 0.0
H724 H 0.56885 0.02208 0.11382 0.0
H725 H 0.57602 0.9668 0.10091 0.0
C726 C 0.59827 0.98416 0.07102 0.0
C727 C 0.60971 1.00285 0.05872 0.0
C728 C 0.56354 0.0094 0.1272 0.0
C729 C 0.58225 0.99718 0.0997 0.0
C730 C 0.55211 0.00785 0.15029 0.0
C731 C 0.54574 0.992 0.16855 0.0
C732 C 0.56851 0.99493 0.12227 0.0
C733 C 0.55022 0.97734 0.16216 0.0
C734 C 0.58462 0.9813 0.09157 0.0
C735 C 0.60692 0.01835 0.06747 0.0
N736 N 0.56143 0.97921 0.13962 0.0
N737 N 0.59346 0.01516 0.0874 0.0
H738 H 0.99485 0.61387 0.07935 0.0
H739 H 0.04368 0.56422 0.16321 0.0
H740 H 0.04906 0.61863 0.0548 0.0
H741 H 0.99079 0.56199 0.18836 0.0
H742 H 0.0445 0.58149 0.12094 0.0
H743 H 0.99199 0.59269 0.11753 0.0
C744 C 1.00616 0.61047 0.08198 0.0
C745 C 0.02228 0.61815 0.06393 0.0
C746 C 0.03264 0.57707 0.13562 0.0
C747 C 0.01907 0.5938 0.10762 0.0
C748 C 0.0321 0.5671 0.15959 0.0
C749 C 0.01725 0.56187 0.17937 0.0
C750 C 0.01819 0.58175 0.13145 0.0
C751 C 1.00265 0.56604 0.1738 0.0
C752 C 1.0045 0.59832 0.10377 0.0
C753 C 0.03643 0.61313 0.06829 0.0
N754 N 1.00356 0.57583 0.1505 0.0
N755 N 0.03453 0.60132 0.08974 0.0
H756 H 0.41494 0.44681 0.04488 0.0
H757 H 0.45026 0.42924 0.1902 0.0
H758 H 0.39539 0.38853 0.07691 0.0
H759 H 0.47198 0.48759 0.15703 0.0
H760 H 0.43207 0.41406 0.14703 0.0
H761 H 0.43744 0.46205 0.08429 0.0
C762 C 0.41536 0.4372 0.06019 0.0
C763 C 0.40314 0.41635 0.05769 0.0
C764 C 0.44097 0.43018 0.14902 0.0
C765 C 0.42894 0.43372 0.10281 0.0
C766 C 0.45136 0.43884 0.17364 0.0
C767 C 0.46249 0.45969 0.17724 0.0
C768 C 0.44156 0.44245 0.12787 0.0
C769 C 0.46362 0.47145 0.15504 0.0
C770 C 0.42828 0.44593 0.08264 0.0
C771 C 0.40444 0.40467 0.07807 0.0
N772 N 0.45308 0.46267 0.13141 0.0
N773 N 0.41704 0.41352 0.09981 0.0
H774 H 0.68538 0.75332 0.38799 0.0
H775 H 0.63695 0.76357 0.52691 0.0
H776 H 0.62811 0.70641 0.41442 0.0
H777 H 0.68142 0.81447 0.48241 0.0
H778 H 0.63321 0.74199 0.48662 0.0
H779 H 0.68464 0.7756 0.42372 0.0
C780 C 0.67266 0.74769 0.40136 0.0
C781 C 0.65682 0.72794 0.39835 0.0
C782 C 0.64352 0.75793 0.4855 0.0
C783 C 0.65589 0.75339 0.43928 0.0
C784 C 0.64563 0.77022 0.50842 0.0
C785 C 0.65953 0.79079 0.50793 0.0
C786 C 0.65569 0.76625 0.46222 0.0
C787 C 0.67044 0.7987 0.48354 0.0
C788 C 0.67218 0.76047 0.4216 0.0
C789 C 0.64064 0.72152 0.41608 0.0
N790 N 0.66851 0.78637 0.46181 0.0
N791 N 0.64066 0.73416 0.436 0.0
H792 H 0.30914 0.91847 0.43055 0.0
H793 H 0.20001 0.87005 0.48953 0.0
H794 H 0.26783 0.9336 0.40222 0.0
H795 H 0.24604 0.86951 0.53401 0.0
H796 H 0.223 0.88759 0.45166 0.0
H797 H 0.28465 0.89555 0.46373 0.0
C798 C 0.29493 0.91696 0.43128 0.0
C799 C 0.29058 0.9281 0.41376 0.0
C800 C 0.228 0.88341 0.46955 0.0
C801 C 0.26246 0.90171 0.4513 0.0
C802 C 0.21483 0.87319 0.491 0.0
C803 C 0.22118 0.86842 0.51497 0.0
C804 C 0.24761 0.88877 0.47202 0.0
C805 C 0.24063 0.8731 0.51596 0.0
C806 C 0.28097 0.90387 0.45018 0.0
C807 C 0.2719 0.92548 0.41552 0.0
N808 N 0.25321 0.88314 0.49488 0.0
N809 N 0.25853 0.91254 0.43392 0.0
H810 H 0.06695 0.35918 0.43233 0.0
H811 H 0.14853 0.33925 0.48386 0.0
H812 H 0.10965 0.35968 0.37619 0.0
H813 H 0.12125 0.36209 0.53859 0.0
H814 H 0.13393 0.3454 0.44395 0.0
H815 H 0.08546 0.3582 0.4717 0.0
C816 C 0.08023 0.35913 0.42829 0.0
C817 C 0.08675 0.35949 0.40095 0.0
C818 C 0.13132 0.34923 0.46471 0.0
C819 C 0.10791 0.35822 0.44583 0.0
C820 C 0.13976 0.34586 0.48751 0.0
C821 C 0.13592 0.34989 0.51474 0.0
C822 C 0.11877 0.35646 0.46917 0.0
C823 C 0.12422 0.35824 0.51808 0.0
C824 C 0.09084 0.35867 0.45076 0.0
C825 C 0.10412 0.35947 0.39694 0.0
N826 N 0.11587 0.36099 0.49564 0.0
N827 N 0.114 0.35865 0.41911 0.0
H828 H 0.04614 0.29669 0.27953 0.0
H829 H 0.14605 0.35146 0.19459 0.0
H830 H 0.08731 0.36026 0.28576 0.0
H831 H 0.09288 0.30458 0.15569 0.0
H832 H 0.12728 0.34939 0.23645 0.0
H833 H 0.0657 0.29453 0.24113 0.0
C834 C 0.05932 0.31013 0.27289 0.0
C835 C 0.06508 0.32871 0.28556 0.0
C836 C 0.11982 0.33934 0.21889 0.0
C837 C 0.0876 0.32624 0.24266 0.0
C838 C 0.13051 0.34036 0.1952 0.0
C839 C 0.12094 0.32816 0.17178 0.0
C840 C 0.09951 0.3258 0.21929 0.0
C841 C 0.10073 0.31423 0.1734 0.0
C842 C 0.07039 0.30888 0.25108 0.0
C843 C 0.08226 0.3457 0.27628 0.0
N844 N 0.09061 0.31343 0.1968 0.0
N845 N 0.093 0.34404 0.25552 0.0
H846 H 0.72436 0.75616 0.25516 0.0
H847 H 0.67036 0.80377 0.18037 0.0
H848 H 0.66453 0.73873 0.27204 0.0
H849 H 0.71852 0.80198 0.14281 0.0
H850 H 0.67223 0.78639 0.22069 0.0
H851 H 0.72601 0.77869 0.21951 0.0
C852 C 0.71159 0.75708 0.25139 0.0
C853 C 0.69422 0.74542 0.26642 0.0
C854 C 0.68256 0.79007 0.20379 0.0
C855 C 0.69617 0.77141 0.22615 0.0
C856 C 0.68166 0.80018 0.18099 0.0
C857 C 0.69428 0.80424 0.15831 0.0
C858 C 0.69633 0.78419 0.20396 0.0
C859 C 0.70848 0.79902 0.1599 0.0
C860 C 0.71256 0.76994 0.2311 0.0
C861 C 0.67814 0.74727 0.26074 0.0
N862 N 0.70907 0.78917 0.18229 0.0
N863 N 0.67952 0.76006 0.24113 0.0
H864 H 0.28451 0.95821 0.27119 0.0
H865 H 0.22434 0.86164 0.17123 0.0
H866 H 0.27652 0.90094 0.28914 0.0
H867 H 0.23188 0.91912 0.15675 0.0
H868 H 0.24183 0.8748 0.21572 0.0
H869 H 0.26407 0.94338 0.22997 0.0
C870 C 0.27846 0.94249 0.26646 0.0
C871 C 0.28232 0.93082 0.28358 0.0
C872 C 0.23955 0.88447 0.20283 0.0
C873 C 0.2588 0.91367 0.23627 0.0
C874 C 0.2295 0.87694 0.17757 0.0
C875 C 0.2269 0.8894 0.1602 0.0
C876 C 0.24694 0.90455 0.21067 0.0
C877 C 0.23391 0.90912 0.16929 0.0
C878 C 0.26673 0.934 0.24291 0.0
C879 C 0.27397 0.9105 0.27646 0.0
N880 N 0.24368 0.91609 0.19378 0.0
N881 N 0.26264 0.90256 0.25325 0.0
H882 H 0.64584 0.90731 0.28808 0.0
H883 H 0.69938 0.91521 0.14298 0.0
H884 H 0.69047 0.96291 0.2527 0.0
H885 H 0.65374 0.85926 0.17604 0.0
H886 H 0.69729 0.93261 0.18438 0.0
H887 H 0.64933 0.88922 0.24848 0.0
C888 C 0.65638 0.91573 0.272 0.0
C889 C 0.66784 0.93669 0.27367 0.0
C890 C 0.68775 0.91653 0.1827 0.0
C891 C 0.67192 0.91602 0.22833 0.0
C892 C 0.6889 0.90658 0.15902 0.0
C893 C 0.67656 0.88578 0.15594 0.0
C894 C 0.67413 0.90564 0.20359 0.0
C895 C 0.66354 0.87531 0.17762 0.0
C896 C 0.65837 0.90537 0.24941 0.0
C897 C 0.68128 0.94677 0.25225 0.0
N898 N 0.66257 0.88538 0.20049 0.0
N899 N 0.68292 0.93634 0.23048 0.0
H900 H 0.04428 0.74782 0.23571 0.0
H901 H 0.15131 0.80864 0.16895 0.0
H902 H 0.09033 0.73711 0.25474 0.0
H903 H 0.10036 0.80034 0.12679 0.0
H904 H 0.13023 0.78803 0.20684 0.0
H905 H 0.06568 0.77199 0.20091 0.0
C906 C 0.05886 0.75053 0.23255 0.0
C907 C 0.06549 0.74034 0.24799 0.0
C908 C 0.1237 0.79092 0.18943 0.0
C909 C 0.09009 0.76819 0.2088 0.0
C910 C 0.13573 0.80285 0.168 0.0
C911 C 0.12752 0.80615 0.14474 0.0
C912 C 0.10336 0.78242 0.18773 0.0
C913 C 0.10721 0.79804 0.14434 0.0
C914 C 0.07104 0.76431 0.21274 0.0
C915 C 0.08454 0.74447 0.24312 0.0
N916 N 0.09579 0.78649 0.16549 0.0
N917 N 0.0962 0.75815 0.22407 0.0
H918 H 0.27225 0.31395 0.2533 0.0
H919 H 0.21594 0.36334 0.18993 0.0
H920 H 0.27265 0.36444 0.29162 0.0
H921 H 0.221 0.31703 0.14814 0.0
H922 H 0.23394 0.36186 0.22974 0.0
H923 H 0.25102 0.313 0.21654 0.0
C924 C 0.26787 0.32483 0.254 0.0
C925 C 0.27435 0.33937 0.27548 0.0
C926 C 0.23102 0.35196 0.2119 0.0
C927 C 0.24997 0.33834 0.23351 0.0
C928 C 0.22065 0.35272 0.1893 0.0
C929 C 0.21716 0.34042 0.16565 0.0
C930 C 0.23782 0.33873 0.21084 0.0
C931 C 0.22367 0.327 0.1658 0.0
C932 C 0.25573 0.32428 0.23302 0.0
C933 C 0.26811 0.35303 0.27538 0.0
N934 N 0.23374 0.32657 0.18795 0.0
N935 N 0.25631 0.35221 0.2547 0.0
H936 H 0.23813 0.29961 0.37973 0.0
H937 H 0.24877 0.36273 0.51902 0.0
H938 H 0.29287 0.3498 0.41014 0.0
H939 H 0.19366 0.3125 0.49008 0.0
H940 H 0.26465 0.35949 0.4773 0.0
H941 H 0.22116 0.30501 0.41839 0.0
C942 C 0.24659 0.31176 0.39454 0.0
C943 C 0.26698 0.32421 0.39177 0.0
C944 C 0.24906 0.34923 0.4799 0.0
C945 C 0.24762 0.33052 0.43596 0.0
C946 C 0.24 0.35108 0.50371 0.0
C947 C 0.21992 0.33774 0.50807 0.0
C948 C 0.238 0.33385 0.46028 0.0
C949 C 0.20917 0.32311 0.48744 0.0
C950 C 0.23687 0.31485 0.41656 0.0
C951 C 0.27716 0.33976 0.4115 0.0
N952 N 0.21839 0.32142 0.46451 0.0
N953 N 0.26738 0.34244 0.43277 0.0
H954 H 0.72271 0.97416 0.40165 0.0
H955 H 0.66393 0.87232 0.4848 0.0
H956 H 0.66029 0.93321 0.3939 0.0
H957 H 0.71865 0.92308 0.51368 0.0
H958 H 0.66499 0.89151 0.44467 0.0
H959 H 0.72369 0.95285 0.43693 0.0
C960 C 0.70922 0.96068 0.40735 0.0
C961 C 0.69136 0.95553 0.395 0.0
C962 C 0.67687 0.89834 0.45962 0.0
C963 C 0.69247 0.93096 0.43493 0.0
C964 C 0.67638 0.88734 0.48228 0.0
C965 C 0.69122 0.8962 0.50247 0.0
C966 C 0.69243 0.91821 0.45705 0.0
C967 C 0.70691 0.91579 0.49854 0.0
C968 C 0.70981 0.94854 0.42745 0.0
C969 C 0.67434 0.93786 0.40311 0.0
N970 N 0.70709 0.92618 0.47632 0.0
N971 N 0.67532 0.92617 0.42252 0.0
H972 H 0.09869 0.76545 0.35723 0.0
H973 H 0.08822 0.79558 0.51408 0.0
H974 H 0.04322 0.74351 0.3987 0.0
H975 H 0.14259 0.80617 0.47901 0.0
H976 H 0.07214 0.78119 0.46934 0.0
H977 H 0.11551 0.78473 0.39938 0.0
C978 C 0.09003 0.76472 0.37517 0.0
C979 C 0.06951 0.75273 0.3745 0.0
C980 C 0.08763 0.78682 0.47137 0.0
C981 C 0.08869 0.77489 0.42272 0.0
C982 C 0.09682 0.79504 0.4969 0.0
C983 C 0.11674 0.80186 0.50043 0.0
C984 C 0.09843 0.78546 0.44913 0.0
C985 C 0.12724 0.80118 0.47725 0.0
C986 C 0.09966 0.77574 0.39921 0.0
C987 C 0.05906 0.75242 0.39836 0.0
N988 N 0.11792 0.79294 0.45265 0.0
N989 N 0.06877 0.76332 0.42151 0.0
H990 H 0.31913 0.04819 0.75269 0.0
H991 H 0.35303 0.15681 0.81598 0.0
H992 H 0.35865 0.10324 0.71137 0.0
H993 H 0.32105 0.10277 0.86266 0.0
H994 H 0.35032 0.13679 0.77449 0.0
H995 H 0.31543 0.06744 0.7905 0.0
C996 C 0.32697 0.06431 0.75151 0.0
C997 C 0.33939 0.07414 0.72899 0.0
C998 C 0.3437 0.12929 0.79373 0.0
C999 C 0.33512 0.09622 0.77205 0.0
C1000 C 0.34509 0.1407 0.81735 0.0
C1001 C 0.33742 0.13144 0.84284 0.0
C1002 C 0.33458 0.10847 0.79563 0.0
C1003 C 0.32744 0.11051 0.84349 0.0
C1004 C 0.32483 0.07528 0.77308 0.0
C1005 C 0.34908 0.09504 0.72846 0.0
N1006 N 0.32645 0.09974 0.8203 0.0
N1007 N 0.34679 0.10539 0.74973 0.0
H1008 H 0.96372 0.27619 0.75766 0.0
H1009 H 0.85915 0.22268 0.8335 0.0
H1010 H 0.91477 0.27935 0.72867 0.0
H1011 H 0.9098 0.22375 0.86494 0.0
H1012 H 0.87851 0.24166 0.79328 0.0
H1013 H 0.94357 0.25563 0.79597 0.0
C1014 C 0.94875 0.27261 0.75938 0.0
C1015 C 0.94095 0.27956 0.73995 0.0
C1016 C 0.88535 0.23768 0.80896 0.0
C1017 C 0.91771 0.25589 0.78374 0.0
C1018 C 0.87427 0.22673 0.83178 0.0
C1019 C 0.88293 0.22175 0.85264 0.0
C1020 C 0.90518 0.24358 0.80698 0.0
C1021 C 0.90263 0.22753 0.84952 0.0
C1022 C 0.93722 0.26083 0.78126 0.0
C1023 C 0.92142 0.27438 0.74321 0.0
N1024 N 0.91308 0.23816 0.8272 0.0
N1025 N 0.91046 0.26285 0.76467 0.0
H1026 H 0.75151 0.71216 0.76349 0.0
H1027 H 0.82318 0.6792 0.82141 0.0
H1028 H 0.76609 0.67331 0.71885 0.0
H1029 H 0.80713 0.71588 0.86876 0.0
H1030 H 0.80579 0.68076 0.78125 0.0
H1031 H 0.77457 0.71689 0.80026 0.0
C1032 C 0.7596 0.7047 0.76135 0.0
C1033 C 0.75671 0.69217 0.73817 0.0
C1034 C 0.80622 0.68865 0.80033 0.0
C1035 C 0.78315 0.69757 0.78004 0.0
C1036 C 0.81634 0.68793 0.82322 0.0
C1037 C 0.81647 0.69726 0.84862 0.0
C1038 C 0.79607 0.69871 0.80282 0.0
C1039 C 0.80711 0.70815 0.84975 0.0
C1040 C 0.77278 0.70743 0.78232 0.0
C1041 C 0.76769 0.68297 0.73644 0.0
N1042 N 0.79712 0.70841 0.82728 0.0
N1043 N 0.78032 0.68579 0.75711 0.0
H1044 H 0.71376 0.63871 0.60551 0.0
H1045 H 0.81153 0.69768 0.51486 0.0
H1046 H 0.75589 0.70178 0.61707 0.0
H1047 H 0.76034 0.64258 0.48682 0.0
H1048 H 0.7937 0.69724 0.55709 0.0
H1049 H 0.73291 0.6379 0.56594 0.0
C1050 C 0.72703 0.65238 0.59974 0.0
C1051 C 0.73318 0.67036 0.61449 0.0
C1052 C 0.78644 0.6852 0.54174 0.0
C1053 C 0.75525 0.66948 0.56955 0.0
C1054 C 0.79664 0.68536 0.51784 0.0
C1055 C 0.78732 0.67018 0.49741 0.0
C1056 C 0.76691 0.6696 0.54531 0.0
C1057 C 0.76796 0.65463 0.50205 0.0
C1058 C 0.73793 0.65191 0.57716 0.0
C1059 C 0.75052 0.68762 0.60612 0.0
N1060 N 0.75838 0.65473 0.52552 0.0
N1061 N 0.761 0.68674 0.58426 0.0
H1062 H 0.35437 0.06432 0.59431 0.0
H1063 H 0.31253 0.12184 0.51335 0.0
H1064 H 0.30357 0.0656 0.62169 0.0
H1065 H 0.36375 0.12071 0.4883 0.0
H1066 H 0.30988 0.10299 0.55479 0.0
H1067 H 0.35855 0.08609 0.55627 0.0
C1068 C 0.34405 0.06913 0.59229 0.0
C1069 C 0.32855 0.06304 0.61117 0.0
C1070 C 0.32177 0.107 0.5403 0.0
C1071 C 0.3333 0.08812 0.56764 0.0
C1072 C 0.32336 0.11787 0.51681 0.0
C1073 C 0.33826 0.12265 0.49729 0.0
C1074 C 0.33522 0.10094 0.54423 0.0
C1075 C 0.35185 0.11705 0.50263 0.0
C1076 C 0.34648 0.08164 0.57059 0.0
C1077 C 0.3157 0.06986 0.60756 0.0
N1078 N 0.34993 0.1064 0.52545 0.0
N1079 N 0.31834 0.08201 0.58619 0.0
H1080 H 0.92744 0.23731 0.63312 0.0
H1081 H 0.88806 0.25632 0.49259 0.0
H1082 H 0.94657 0.29588 0.60261 0.0
H1083 H 0.87323 0.19804 0.51907 0.0
H1084 H 0.90552 0.27076 0.53652 0.0
H1085 H 0.90393 0.22244 0.59483 0.0
C1086 C 0.92667 0.24705 0.61842 0.0
C1087 C 0.93915 0.26786 0.62089 0.0
C1088 C 0.89823 0.25478 0.53287 0.0
C1089 C 0.91219 0.25094 0.57709 0.0
C1090 C 0.88825 0.24653 0.50782 0.0
C1091 C 0.87938 0.22598 0.502 0.0
C1092 C 0.8994 0.24239 0.55221 0.0
C1093 C 0.87979 0.21395 0.52268 0.0
C1094 C 0.9132 0.23855 0.5966 0.0
C1095 C 0.93738 0.27975 0.60136 0.0
N1096 N 0.88986 0.22237 0.54671 0.0
N1097 N 0.92423 0.27112 0.5802 0.0
H1098 H 0.32041 0.24371 0.62523 0.0
H1099 H 0.36602 0.24808 0.47478 0.0
H1100 H 0.3605 0.29876 0.58433 0.0
H1101 H 0.32908 0.19337 0.51826 0.0
H1102 H 0.36614 0.26706 0.51604 0.0
H1103 H 0.3249 0.22515 0.58737 0.0
C1104 C 0.33017 0.25191 0.60828 0.0
C1105 C 0.33997 0.27283 0.60785 0.0
C1106 C 0.35819 0.25091 0.5167 0.0
C1107 C 0.34524 0.25163 0.56442 0.0
C1108 C 0.35812 0.24008 0.49316 0.0
C1109 C 0.34739 0.21912 0.49304 0.0
C1110 C 0.34732 0.24071 0.54025 0.0
C1111 C 0.33762 0.20952 0.5175 0.0
C1112 C 0.33279 0.24129 0.58671 0.0
C1113 C 0.35255 0.28264 0.58545 0.0
N1114 N 0.33763 0.22038 0.54001 0.0
N1115 N 0.35474 0.27195 0.56456 0.0
H1116 H 0.73062 0.08777 0.60016 0.0
H1117 H 0.79947 0.09735 0.47354 0.0
H1118 H 0.74961 0.04613 0.58608 0.0
H1119 H 0.79909 0.14809 0.50895 0.0
H1120 H 0.77956 0.07732 0.5127 0.0
H1121 H 0.75352 0.10904 0.5642 0.0
C1122 C 0.73953 0.08307 0.58942 0.0
C1123 C 0.73817 0.06513 0.59604 0.0
C1124 C 0.78404 0.0929 0.51208 0.0
C1125 C 0.76433 0.08934 0.55496 0.0
C1126 C 0.7954 0.10431 0.48981 0.0
C1127 C 0.80093 0.12437 0.48816 0.0
C1128 C 0.77785 0.10152 0.53249 0.0
C1129 C 0.79525 0.13271 0.50966 0.0
C1130 C 0.7527 0.09527 0.56908 0.0
C1131 C 0.7502 0.05984 0.58164 0.0
N1132 N 0.78379 0.12117 0.53078 0.0
N1133 N 0.76267 0.07181 0.56163 0.0
H1134 H 0.93345 0.63942 0.57287 0.0
H1135 H 0.86689 0.68028 0.52003 0.0
H1136 H 0.92457 0.68177 0.61934 0.0
H1137 H 0.88636 0.64917 0.46652 0.0
H1138 H 0.88315 0.67582 0.55941 0.0
H1139 H 0.91197 0.63831 0.53617 0.0
C1140 C 0.92693 0.64842 0.57542 0.0
C1141 C 0.93096 0.66085 0.5991 0.0
C1142 C 0.88371 0.6698 0.5391 0.0
C1143 C 0.90627 0.65951 0.55734 0.0
C1144 C 0.87427 0.67217 0.51669 0.0
C1145 C 0.87542 0.66523 0.48995 0.0
C1146 C 0.89429 0.66031 0.53476 0.0
C1147 C 0.88535 0.65499 0.48675 0.0
C1148 C 0.91468 0.64778 0.55447 0.0
C1149 C 0.92204 0.67212 0.60133 0.0
N1150 N 0.89451 0.65295 0.50884 0.0
N1151 N 0.91015 0.6712 0.58072 0.0
H1152 H 0.95943 0.67607 0.73499 0.0
H1153 H 0.8652 0.65177 0.82584 0.0
H1154 H 0.90023 0.63171 0.71039 0.0
H1155 H 0.92447 0.69756 0.84769 0.0
H1156 H 0.87742 0.64473 0.78272 0.0
H1157 H 0.94665 0.68432 0.77616 0.0
C1158 C 0.94374 0.66803 0.73826 0.0
C1159 C 0.93089 0.65313 0.71922 0.0
C1160 C 0.88773 0.65637 0.79692 0.0
C1161 C 0.91612 0.66256 0.76636 0.0
C1162 C 0.88074 0.66048 0.82143 0.0
C1163 C 0.89385 0.67517 0.84049 0.0
C1164 C 0.90796 0.66705 0.79145 0.0
C1165 C 0.91387 0.68586 0.83383 0.0
C1166 C 0.93644 0.67278 0.76176 0.0
C1167 C 0.91069 0.64327 0.72452 0.0
N1168 N 0.9203 0.68154 0.80997 0.0
N1169 N 0.90393 0.64814 0.74761 0.0
H1170 H 0.32819 0.28458 0.74415 0.0
H1171 H 0.37178 0.22815 0.82377 0.0
H1172 H 0.37788 0.28213 0.71426 0.0
H1173 H 0.32165 0.23041 0.85173 0.0
H1174 H 0.37348 0.24645 0.78224 0.0
H1175 H 0.32514 0.26383 0.78301 0.0
C1176 C 0.33849 0.27972 0.74578 0.0
C1177 C 0.35335 0.28517 0.72595 0.0
C1178 C 0.36206 0.24284 0.79742 0.0
C1179 C 0.3499 0.26129 0.77041 0.0
C1180 C 0.361 0.23228 0.821 0.0
C1181 C 0.34667 0.22793 0.84133 0.0
C1182 C 0.34865 0.24902 0.79419 0.0
C1183 C 0.33316 0.23377 0.8368 0.0
C1184 C 0.33671 0.26781 0.76795 0.0
C1185 C 0.36623 0.27834 0.7291 0.0
N1186 N 0.33454 0.24408 0.81384 0.0
N1187 N 0.36423 0.26678 0.75093 0.0
H1188 H 0.72411 0.0527 0.7432 0.0
H1189 H 0.80225 0.15529 0.82032 0.0
H1190 H 0.75104 0.11022 0.70483 0.0
H1191 H 0.77626 0.09751 0.85755 0.0
H1192 H 0.78586 0.13887 0.77642 0.0
H1193 H 0.74469 0.06869 0.78421 0.0
C1194 C 0.73435 0.0687 0.74338 0.0
C1195 C 0.73575 0.08015 0.7206 0.0
C1196 C 0.78388 0.12976 0.79412 0.0
C1197 C 0.75944 0.09858 0.76751 0.0
C1198 C 0.79337 0.13913 0.81912 0.0
C1199 C 0.79046 0.12776 0.8427 0.0
C1200 C 0.77135 0.10889 0.79273 0.0
C1201 C 0.77863 0.10687 0.84002 0.0
C1202 C 0.74616 0.07782 0.76679 0.0
C1203 C 0.74939 0.10081 0.72197 0.0
N1204 N 0.76938 0.09813 0.81558 0.0
N1205 N 0.76064 0.10937 0.74507 0.0
H1206 H 0.04573 0.34411 0.00739 0.0
H1207 H 0.14785 0.38279 0.08323 0.0
H1208 H 0.08466 0.40524 0.03511 0.0
H1209 H 0.10514 0.32102 0.06419 0.0
H1210 H 0.12869 0.39258 0.0559 0.0
H1211 H 0.07083 0.33681 0.01859 0.0
C1212 C 0.05963 0.35607 0.01559 0.0
C1213 C 0.06295 0.37525 0.02077 0.0
C1214 C 0.12376 0.37691 0.0571 0.0
C1215 C 0.0918 0.36693 0.0338 0.0
C1216 C 0.1348 0.37137 0.0724 0.0
C1217 C 0.12801 0.35112 0.07572 0.0
C1218 C 0.10583 0.36203 0.04525 0.0
C1219 C 0.11084 0.3368 0.0619 0.0
C1220 C 0.07399 0.35188 0.02197 0.0
C1221 C 0.08137 0.39019 0.03108 0.0
N1222 N 0.10021 0.34251 0.04753 0.0
N1223 N 0.09501 0.38565 0.0376 0.0
H1224 H 0.68851 0.70865 0.01454 0.0
H1225 H 0.6453 0.775 0.06043 0.0
H1226 H 0.62752 0.68855 0.0038 0.0
H1227 H 0.707 0.7974 0.05405 0.0
H1228 H 0.63838 0.74497 0.03351 0.0
H1229 H 0.69569 0.74245 0.02382 0.0
C1230 C 0.67664 0.71139 0.01392 0.0
C1231 C 0.65735 0.69571 0.00873 0.0
C1232 C 0.65346 0.75672 0.03725 0.0
C1233 C 0.66543 0.73447 0.01961 0.0
C1234 C 0.65738 0.77393 0.05231 0.0
C1235 C 0.67672 0.7886 0.05932 0.0
C1236 C 0.66902 0.75417 0.02962 0.0
C1237 C 0.69189 0.78639 0.04893 0.0
C1238 C 0.68075 0.73074 0.01909 0.0
C1239 C 0.64259 0.70019 0.00787 0.0
N1240 N 0.68772 0.76934 0.03504 0.0
N1241 N 0.64687 0.71911 0.01372 0.0
H1242 H 0.31118 0.9568 0.96432 0.0
H1243 H 0.22906 0.92843 0.0804 0.0
H1244 H 0.31891 0.99151 0.03947 0.0
H1245 H 0.23383 0.88291 0.03578 0.0
H1246 H 0.25624 0.95394 0.05305 0.0
H1247 H 0.27787 0.93169 0.97981 0.0
C1248 C 0.30578 0.95923 0.98388 0.0
C1249 C 0.31782 0.97612 0.00082 0.0
C1250 C 0.25101 0.93834 0.04872 0.0
C1251 C 0.27985 0.94795 0.01808 0.0
C1252 C 0.23539 0.92379 0.06405 0.0
C1253 C 0.22935 0.90361 0.06039 0.0
C1254 C 0.26063 0.93267 0.02951 0.0
C1255 C 0.23807 0.89834 0.0391 0.0
C1256 C 0.28686 0.94494 0.99265 0.0
C1257 C 0.31019 0.97859 0.02597 0.0
N1258 N 0.25356 0.91285 0.02468 0.0
N1259 N 0.29168 0.96469 0.03379 0.0
H1260 H 0.34728 0.06633 0.02962 0.0
H1261 H 0.38997 0.15358 0.91953 0.0
H1262 H 0.39674 0.08233 0.97596 0.0
H1263 H 0.33562 0.13247 0.96328 0.0
H1264 H 0.39705 0.13326 0.94897 0.0
H1265 H 0.34677 0.09529 0.01357 0.0
C1266 C 0.35817 0.07604 0.0147 0.0
C1267 C 0.37191 0.07171 0.00382 0.0
C1268 C 0.3838 0.13343 0.9527 0.0
C1269 C 0.37143 0.10493 0.98547 0.0
C1270 C 0.37992 0.14524 0.93616 0.0
C1271 C 0.3623 0.14476 0.93928 0.0
C1272 C 0.3698 0.12082 0.97218 0.0
C1273 C 0.34948 0.13337 0.96058 0.0
C1274 C 0.35787 0.09258 0.00556 0.0
C1275 C 0.38573 0.08491 0.98466 0.0
N1276 N 0.35332 0.12157 0.97597 0.0
N1277 N 0.38503 0.1008 0.97596 0.0
H1278 H 0.92626 0.31378 0.03097 0.0
H1279 H 0.90461 0.2144 0.95026 0.0
H1280 H 0.97016 0.30188 0.00093 0.0
H1281 H 0.8609 0.22958 0.965 0.0
H1282 H 0.92682 0.24164 0.98203 0.0
H1283 H 0.90083 0.27923 0.01858 0.0
C1284 C 0.93057 0.30385 0.02212 0.0
C1285 C 0.95033 0.31082 0.01649 0.0
C1286 C 0.91218 0.23871 0.979 0.0
C1287 C 0.9214 0.27132 0.0026 0.0
C1288 C 0.89943 0.22298 0.9612 0.0
C1289 C 0.88099 0.21985 0.95511 0.0
C1290 C 0.90653 0.25158 0.99037 0.0
C1291 C 0.87501 0.23153 0.96937 0.0
C1292 C 0.91606 0.28414 0.0151 0.0
C1293 C 0.95509 0.29727 0.00518 0.0
N1294 N 0.88792 0.24722 0.98591 0.0
N1295 N 0.94073 0.27826 -0.00159 0.0
H1296 H 0.70713 0.63003 -0.00276 0.0
H1297 H 0.81897 0.70741 0.96341 0.0
H1298 H 0.73931 0.69051 0.03044 0.0
H1299 H 0.78778 0.64599 0.93481 0.0
H1300 H 0.79184 0.69994 -0.00498 0.0
H1301 H 0.73783 0.63396 0.98072 0.0
C1302 C 0.72068 0.64408 0.00133 0.0
C1303 C 0.72059 0.66008 0.01487 0.0
C1304 C 0.7911 0.68793 0.98242 0.0
C1305 C 0.75586 0.66472 -0.00418 0.0
C1306 C 0.80667 0.69218 0.96464 0.0
C1307 C 0.80557 0.67721 0.94688 0.0
C1308 C 0.77418 0.66866 0.98191 0.0
C1309 C 0.78918 0.65782 0.94855 0.0
C1310 C 0.73823 0.6463 0.99193 0.0
C1311 C 0.73864 0.67784 0.01985 0.0
N1312 N 0.77397 0.65415 0.96545 0.0
N1313 N 0.75551 0.67977 0.00999 0.0
H1314 H 0.95421 0.64321 0.00024 0.0
H1315 H 0.92584 0.71623 0.9379 0.0
H1316 H 0.99218 0.70733 0.00665 0.0
H1317 H 0.88393 0.65395 0.95099 0.0
H1318 H 0.94915 0.71424 0.96803 0.0
H1319 H 0.92733 0.64725 0.9866 0.0
C1320 C 0.95685 0.65816 -0.00095 0.0
C1321 C 0.97554 0.67496 0.00426 0.0
C1322 C 0.93466 0.70113 0.96504 0.0
C1323 C 0.94482 0.67973 0.98837 0.0
C1324 C 0.92133 0.70235 0.94809 0.0
C1325 C 0.90295 0.68528 0.94239 0.0
C1326 C 0.92969 0.68258 0.97568 0.0
C1327 C 0.8979 0.66747 0.95531 0.0
C1328 C 0.94145 0.66046 0.99137 0.0
C1329 C 0.97803 0.69395 0.00267 0.0
N1330 N 0.91133 0.66648 0.97098 0.0
N1331 N 0.96294 0.69583 -0.00558 0.0
H1332 H 0.3876 0.32372 0.01715 0.0
H1333 H 0.31345 0.222 0.93617 0.0
H1334 H 0.33204 0.30904 0.98268 0.0
H1335 H 0.37278 0.24012 0.95608 0.0
H1336 H 0.3167 0.24935 0.96581 0.0
H1337 H 0.37944 0.28962 0.00603 0.0
C1338 C 0.3736 0.31328 0.00753 0.0
C1339 C 0.36062 0.31935 0.00038 0.0
C1340 C 0.32886 0.24706 0.96439 0.0
C1341 C 0.35115 0.2803 0.98788 0.0
C1342 C 0.32689 0.23127 0.94781 0.0
C1343 C 0.34288 0.2289 0.94381 0.0
C1344 C 0.34706 0.26071 0.97666 0.0
C1345 C 0.36011 0.24146 0.95887 0.0
C1346 C 0.36895 0.29381 0.00125 0.0
C1347 C 0.34264 0.30513 0.98816 0.0
N1348 N 0.36191 0.25713 0.97423 0.0
N1349 N 0.33852 0.28635 0.9821 0.0
H1350 H 0.67964 0.05735 0.97616 0.0
H1351 H 0.7952 0.12169 0.96376 0.0
H1352 H 0.71738 0.04455 0.02224 0.0
H1353 H 0.75656 0.13721 0.92674 0.0
H1354 H 0.76787 0.09701 0.99212 0.0
H1355 H 0.70802 0.08949 0.96381 0.0
C1356 C 0.69392 0.06138 0.98385 0.0
C1357 C 0.69618 0.04811 -0.0001 0.0
C1358 C 0.76548 0.10622 0.97842 0.0
C1359 C 0.72892 0.08498 0.98563 0.0
C1360 C 0.78114 0.12046 0.96252 0.0
C1361 C 0.77803 0.13142 0.94302 0.0
C1362 C 0.74664 0.10287 0.97441 0.0
C1363 C 0.75948 0.12904 0.94166 0.0
C1364 C 0.71015 0.07981 0.97689 0.0
C1365 C 0.715 0.05427 0.00963 0.0
N1366 N 0.74441 0.11479 0.95676 0.0
N1367 N 0.73071 0.07213 0.00197 0.0
H1368 H 0.63274 0.93338 -0.00345 0.0
H1369 H 0.70834 0.90762 0.05382 0.0
H1370 H 0.69516 0.97179 0.98537 0.0
H1371 H 0.64635 0.86492 0.04858 0.0
H1372 H 0.70441 0.92945 0.02276 0.0
H1373 H 0.63756 0.90667 0.01041 0.0
C1374 C 0.64746 0.93615 -0.00325 0.0
C1375 C 0.66359 0.95496 0.99014 0.0
C1376 C 0.69173 0.91504 0.02764 0.0
C1377 C 0.66926 0.9244 0.00624 0.0
C1378 C 0.69404 0.9025 0.04507 0.0
C1379 C 0.67767 0.8844 0.05334 0.0
C1380 C 0.67283 0.90961 0.01907 0.0
C1381 C 0.65934 0.87865 0.04225 0.0
C1382 C 0.6502 0.92084 0.00456 0.0
C1383 C 0.6823 0.95758 0.99048 0.0
N1384 N 0.65734 0.89138 0.02609 0.0
N1385 N 0.68465 0.94258 -0.00116 0.0
H1386 H 0.07745 0.69656 0.0127 0.0
H1387 H 0.12239 0.81152 0.03041 0.0
H1388 H 0.05621 0.72749 0.96616 0.0
H1389 H 0.15223 0.78244 0.05624 0.0
H1390 H 0.10108 0.78248 0.0004 0.0
H1391 H 0.10729 0.72846 0.02354 0.0
C1392 C 0.07918 0.71008 0.0045 0.0
C1393 C 0.06421 0.70943 0.98889 0.0
C1394 C 0.11273 0.78268 0.01183 0.0
C1395 C 0.09829 0.74609 0.00145 0.0
C1396 C 0.12501 0.79936 0.02868 0.0
C1397 C 0.1391 0.79931 0.0455 0.0
C1398 C 0.11427 0.76572 0.01253 0.0
C1399 C 0.14163 0.78304 0.04326 0.0
C1400 C 0.09628 0.7283 0.01055 0.0
C1401 C 0.06734 0.72735 0.97846 0.0
N1402 N 0.12903 0.76667 0.02757 0.0
N1403 N 0.08387 0.74502 0.98539 0.0
H1404 H 0.31606 0.39014 0.01328 0.0
H1405 H 0.20639 0.31542 0.05565 0.0
H1406 H 0.2834 0.32873 0.98387 0.0
H1407 H 0.2352 0.37916 0.06756 0.0
H1408 H 0.23246 0.32033 0.02349 0.0
H1409 H 0.28545 0.38712 0.02835 0.0
C1410 C 0.30242 0.37607 0.00974 0.0
C1411 C 0.30232 0.35958 -0.00234 0.0
C1412 C 0.23281 0.3333 0.0324 0.0
C1413 C 0.26718 0.35594 0.01506 0.0
C1414 C 0.2178 0.33047 0.05046 0.0
C1415 C 0.21865 0.34694 0.06386 0.0
C1416 C 0.24895 0.35271 0.02838 0.0
C1417 C 0.23399 0.36614 0.05725 0.0
C1418 C 0.28491 0.37437 0.01823 0.0
C1419 C 0.28418 0.34179 -0.00669 0.0
N1420 N 0.24875 0.3685 0.04037 0.0
N1421 N 0.26737 0.34034 0.00241 0.0
H1422 H 0.70207 0.65392 0.31666 0.0
H1423 H 0.80694 0.70437 0.39019 0.0
H1424 H 0.73589 0.71569 0.34426 0.0
H1425 H 0.76289 0.64183 0.39537 0.0
H1426 H 0.7854 0.70861 0.35914 0.0
H1427 H 0.72854 0.64956 0.33214 0.0
C1428 C 0.71518 0.66665 0.32555 0.0
C1429 C 0.71669 0.68514 0.32952 0.0
C1430 C 0.78069 0.69386 0.36646 0.0
C1431 C 0.74702 0.68028 0.34689 0.0
C1432 C 0.79305 0.6914 0.38383 0.0
C1433 C 0.78664 0.67272 0.39506 0.0
C1434 C 0.76189 0.67746 0.36027 0.0
C1435 C 0.76834 0.65642 0.38685 0.0
C1436 C 0.73024 0.66412 0.3344 0.0
C1437 C 0.73402 0.70111 0.34115 0.0
N1438 N 0.75649 0.6592 0.37011 0.0
N1439 N 0.74848 0.69829 0.34954 0.0
H1440 H 0.2949 0.0228 0.32791 0.0
H1441 H 0.37154 0.12631 0.40322 0.0
H1442 H 0.34986 0.03667 0.36364 0.0
H1443 H 0.31254 0.10919 0.38299 0.0
H1444 H 0.36715 0.09748 0.37606 0.0
H1445 H 0.30404 0.05742 0.337 0.0
C1446 C 0.30896 0.03315 0.33744 0.0
C1447 C 0.3215 0.02673 0.34544 0.0
C1448 C 0.35532 0.1003 0.37683 0.0
C1449 C 0.33211 0.06642 0.35559 0.0
C1450 C 0.35796 0.11694 0.39194 0.0
C1451 C 0.34238 0.12006 0.39521 0.0
C1452 C 0.33689 0.08659 0.36523 0.0
C1453 C 0.32492 0.10732 0.38071 0.0
C1454 C 0.31418 0.05292 0.34254 0.0
C1455 C 0.3396 0.04086 0.35749 0.0
N1456 N 0.32248 0.09085 0.36679 0.0
N1457 N 0.34428 0.05997 0.36237 0.0
H1458 H 0.9801 0.2778 0.31478 0.0
H1459 H 0.88809 0.25555 0.40844 0.0
H1460 H 0.97841 0.32091 0.37031 0.0
H1461 H 0.90056 0.20966 0.38828 0.0
H1462 H 0.91649 0.27913 0.38112 0.0
H1463 H 0.94691 0.25241 0.33001 0.0
C1464 C 0.97267 0.28197 0.32992 0.0
C1465 C 0.98205 0.30144 0.34149 0.0
C1466 C 0.9128 0.2638 0.38217 0.0
C1467 C 0.94414 0.2727 0.35842 0.0
C1468 C 0.89651 0.25031 0.39751 0.0
C1469 C 0.89213 0.23072 0.40078 0.0
C1470 C 0.92479 0.25767 0.36987 0.0
C1471 C 0.90347 0.22464 0.3862 0.0
C1472 C 0.9538 0.26749 0.33859 0.0
C1473 C 0.9718 0.30605 0.36107 0.0
N1474 N 0.91953 0.23819 0.37163 0.0
N1475 N 0.9534 0.2918 0.36885 0.0
H1476 H 0.00938 0.39747 0.37005 0.0
H1477 H 0.06209 0.49192 0.2721 0.0
H1478 H 0.062 0.41531 0.32287 0.0
H1479 H 1.00429 0.46838 0.30592 0.0
H1480 H 0.06639 0.46962 0.30152 0.0
H1481 H 0.01099 0.42803 0.35637 0.0
C1482 C 0.02139 0.4079 0.35707 0.0
C1483 C 0.03542 0.40365 0.34726 0.0
C1484 C 0.05297 0.46971 0.30319 0.0
C1485 C 0.03741 0.43875 0.33171 0.0
C1486 C 0.05068 0.48269 0.28676 0.0
C1487 C 0.0329 0.48207 0.28689 0.0
C1488 C 0.03726 0.45583 0.31956 0.0
C1489 C 0.0183 0.46946 0.30559 0.0
C1490 C 0.02231 0.42536 0.3493 0.0
C1491 C 0.05071 0.41781 0.33063 0.0
N1492 N 0.02065 0.45655 0.32085 0.0
N1493 N 0.05121 0.43461 0.32323 0.0
H1494 H 0.64359 0.62605 0.35911 0.0
H1495 H 0.53625 0.56257 0.29339 0.0
H1496 H 0.61175 0.65126 0.32608 0.0
H1497 H 0.57726 0.543 0.29059 0.0
H1498 H 0.55923 0.59135 0.32268 0.0
H1499 H 0.61511 0.59246 0.34965 0.0
C1500 C 0.6305 0.62452 0.3503 0.0
C1501 C 0.63009 0.64143 0.34296 0.0
C1502 C 0.56289 0.58037 0.31648 0.0
C1503 C 0.5975 0.6032 0.33267 0.0
C1504 C 0.54967 0.5638 0.30019 0.0
C1505 C 0.55493 0.55046 0.28975 0.0
C1506 C 0.5814 0.58347 0.32236 0.0
C1507 C 0.57269 0.55295 0.29849 0.0
C1508 C 0.6143 0.60539 0.34495 0.0
C1509 C 0.61277 0.63861 0.33164 0.0
N1510 N 0.58548 0.56937 0.31396 0.0
N1511 N 0.59719 0.61985 0.32673 0.0
H1512 H 0.39691 0.01397 0.3676 0.0
H1513 H 0.44488 0.96748 0.26908 0.0
H1514 H 0.36427 0.95538 0.32831 0.0
H1515 H 0.47126 0.03042 0.28698 0.0
H1516 H 0.41848 0.96052 0.30212 0.0
H1517 H 0.42719 0.01766 0.3493 0.0
C1518 C 0.39612 1.00174 0.35551 0.0
C1519 C 0.37799 0.98447 0.34906 0.0
C1520 C 0.43031 0.97582 0.29931 0.0
C1521 C 0.41259 0.9886 0.32816 0.0
C1522 C 0.4454 0.97974 0.28072 0.0
C1523 C 0.46015 0.99951 0.27556 0.0
C1524 C 0.43009 0.99181 0.31273 0.0
C1525 C 0.46011 0.01498 0.29063 0.0
C1526 C 0.41341 1.00389 0.34503 0.0
C1527 C 0.3779 0.96907 0.33343 0.0
N1528 N 0.44519 0.01082 0.30838 0.0
N1529 N 0.39492 0.97158 0.32328 0.0
H1530 H 0.63544 0.02069 0.34971 0.0
H1531 H 0.53565 0.95895 0.26406 0.0
H1532 H 0.61009 0.95974 0.3199 0.0
H1533 H 0.56418 0.02203 0.28254 0.0
H1534 H 0.55852 0.95715 0.29511 0.0
H1535 H 0.60583 0.01967 0.33503 0.0
C1536 C 0.62356 0.007 0.34044 0.0
C1537 C 0.62539 0.99037 0.33562 0.0
C1538 C 0.55956 0.97133 0.29295 0.0
C1539 C 0.59147 0.98912 0.31887 0.0
C1540 C 0.54638 0.97229 0.27547 0.0
C1541 C 0.54811 0.99065 0.2709 0.0
C1542 C 0.57478 0.98893 0.30557 0.0
C1543 C 0.56236 0.00759 0.28578 0.0
C1544 C 0.60666 0.00645 0.33206 0.0
C1545 C 0.60946 0.97301 0.32368 0.0
N1546 N 0.57542 0.00641 0.30213 0.0
N1547 N 0.59327 0.97291 0.3155 0.0
H1548 H 0.99833 0.64644 0.30928 0.0
H1549 H 0.04535 0.5802 0.29248 0.0
H1550 H 0.05616 0.66564 0.33948 0.0
H1551 H 0.98505 0.55899 0.27414 0.0
H1552 H 0.04806 0.60909 0.31764 0.0
H1553 H 0.99184 0.61266 0.30264 0.0
C1554 C 0.00965 0.64353 0.31466 0.0
C1555 C 0.02793 0.65899 0.32457 0.0
C1556 C 0.03403 0.5978 0.30893 0.0
C1557 C 0.0206 0.6202 0.31692 0.0
C1558 C 0.03242 0.58115 0.29496 0.0
C1559 C 0.01494 0.56725 0.28136 0.0
C1560 C 0.0181 0.60059 0.30885 0.0
C1561 C 0.99874 0.56938 0.28453 0.0
C1562 C 1.00589 0.62417 0.31102 0.0
C1563 C 0.04192 0.65423 0.33155 0.0
N1564 N 1.00081 0.58597 0.29743 0.0
N1565 N 0.03808 0.63533 0.32722 0.0
H1566 H 0.38885 0.37217 0.35528 0.0
H1567 H 0.43337 0.47153 0.26734 0.0
H1568 H 0.35477 0.39162 0.31326 0.0
H1569 H 0.46749 0.44717 0.29364 0.0
H1570 H 0.40592 0.44704 0.29537 0.0
H1571 H 0.41882 0.40341 0.34267 0.0
C1572 C 0.38765 0.38307 0.34366 0.0
C1573 C 0.36929 0.37914 0.33496 0.0
C1574 C 0.41956 0.44733 0.29565 0.0
C1575 C 0.40343 0.41494 0.32079 0.0
C1576 C 0.43528 0.46149 0.27998 0.0
C1577 C 0.45266 0.46138 0.27846 0.0
C1578 C 0.42114 0.43276 0.30952 0.0
C1579 C 0.45435 0.44781 0.29463 0.0
C1580 C 0.40475 0.40089 0.3365 0.0
C1581 C 0.36861 0.39385 0.32007 0.0
N1582 N 0.43864 0.43378 0.30918 0.0
N1583 N 0.3854 0.411 0.31335 0.0
H1584 H 0.35011 0.29219 0.31047 0.0
H1585 H 0.29944 0.19608 0.4057 0.0
H1586 H 0.29418 0.26882 0.35113 0.0
H1587 H 0.35906 0.22444 0.37716 0.0
H1588 H 0.29428 0.21749 0.37555 0.0
H1589 H 0.35087 0.26312 0.32547 0.0
C1590 C 0.33789 0.28085 0.32226 0.0
C1591 C 0.32219 0.28311 0.32989 0.0
C1592 C 0.30835 0.21869 0.37524 0.0
C1593 C 0.32293 0.24976 0.347 0.0
C1594 C 0.31118 0.20627 0.39212 0.0
C1595 C 0.3296 0.2084 0.39352 0.0
C1596 C 0.32418 0.23355 0.36001 0.0
C1597 C 0.34456 0.2222 0.37624 0.0
C1598 C 0.33833 0.26425 0.33081 0.0
C1599 C 0.30671 0.26786 0.34508 0.0
N1600 N 0.34163 0.23449 0.36047 0.0
N1601 N 0.30755 0.25195 0.35329 0.0
H1602 H 0.70581 0.04653 0.34486 0.0
H1603 H 0.81845 0.12032 0.37334 0.0
H1604 H 0.7502 0.03685 0.31046 0.0
H1605 H 0.77429 0.13362 0.39543 0.0
H1606 H 0.79489 0.09308 0.34247 0.0
H1607 H 0.73113 0.08089 0.35685 0.0
C1608 C 0.72089 0.05169 0.33961 0.0
C1609 C 0.72593 0.03869 0.32706 0.0
C1610 C 0.7905 0.10236 0.3533 0.0
C1611 C 0.75512 0.07811 0.34092 0.0
C1612 C 0.80405 0.11808 0.37058 0.0
C1613 C 0.79826 0.12921 0.38668 0.0
C1614 C 0.77098 0.09759 0.35268 0.0
C1615 C 0.7793 0.12543 0.38308 0.0
C1616 C 0.73537 0.07138 0.34634 0.0
C1617 C 0.74568 0.04631 0.32038 0.0
N1618 N 0.7662 0.10967 0.36691 0.0
N1619 N 0.7596 0.06542 0.32781 0.0
H1620 H 0.98769 0.75044 0.34527 0.0
H1621 H 0.87658 0.66532 0.37397 0.0
H1622 H 0.96109 0.689 0.31706 0.0
H1623 H 0.90564 0.72357 0.41392 0.0
H1624 H 0.9049 0.67644 0.34316 0.0
H1625 H 0.9556 0.7433 0.3611 0.0
C1626 C 0.97508 0.73551 0.34204 0.0
C1627 C 0.97715 0.72021 0.33024 0.0
C1628 C 0.90491 0.68698 0.35815 0.0
C1629 C 0.94037 0.71196 0.34831 0.0
C1630 C 0.88867 0.6807 0.37545 0.0
C1631 C 0.88885 0.69367 0.39615 0.0
C1632 C 0.92148 0.70629 0.36192 0.0
C1633 C 0.90498 0.71328 0.3979 0.0
C1634 C 0.95675 0.73145 0.35111 0.0
C1635 C 0.96024 0.7012 0.32641 0.0
N1636 N 0.9208 0.71895 0.38124 0.0
N1637 N 0.94261 0.69757 0.33568 0.0
H1638 H 0.37995 0.99637 0.64508 0.0
H1639 H 0.47026 0.04339 0.75077 0.0
H1640 H 0.39712 0.04771 0.69919 0.0
H1641 H 0.44846 0.98714 0.70694 0.0
H1642 H 0.44863 0.04945 0.72302 0.0
H1643 H 0.40921 0.99659 0.65946 0.0
C1644 C 0.38996 0.00782 0.65976 0.0
C1645 C 0.3859 0.02187 0.67125 0.0
C1646 C 0.4489 0.036 0.7189 0.0
C1647 C 0.41948 0.02226 0.68767 0.0
C1648 C 0.46144 0.0327 0.73446 0.0
C1649 C 0.46121 0.01486 0.73083 0.0
C1650 C 0.43581 0.02118 0.69989 0.0
C1651 C 0.44919 1.00119 0.71 0.0
C1652 C 0.40667 0.00793 0.66794 0.0
C1653 C 0.39949 0.03642 0.69005 0.0
N1654 N 0.43672 1.00449 0.69556 0.0
N1655 N 0.41556 0.03613 0.69781 0.0
H1656 H 0.01994 0.37475 0.69144 0.0
H1657 H 0.98135 0.448 0.71487 0.0
H1658 H 0.96639 0.36462 0.65541 0.0
H1659 H 0.0367 0.4596 0.74543 0.0
H1660 H 0.97906 0.42149 0.68413 0.0
H1661 H 0.02937 0.40898 0.70342 0.0
C1662 C 0.01024 0.37978 0.68582 0.0
C1663 C 0.99217 0.36668 0.67289 0.0
C1664 C 0.99198 0.43019 0.69698 0.0
C1665 C 1.00282 0.4059 0.6867 0.0
C1666 C 0.99339 0.44548 0.71426 0.0
C1667 C 0.0091 0.45573 0.73292 0.0
C1668 C 1.00633 0.42511 0.69866 0.0
C1669 C 0.02423 0.45181 0.73154 0.0
C1670 C 0.01566 0.39939 0.69256 0.0
C1671 C 0.98034 0.37413 0.66571 0.0
N1672 N 0.02228 0.43652 0.71519 0.0
N1673 N 0.98572 0.39315 0.67311 0.0
H1674 H 0.65687 0.65397 0.72583 0.0
H1675 H 0.57183 0.54306 0.71301 0.0
H1676 H 0.64645 0.62365 0.64588 0.0
H1677 H 0.56705 0.58631 0.76374 0.0
H1678 H 0.59878 0.57059 0.68709 0.0
H1679 H 0.62453 0.62753 0.74111 0.0
C1680 C 0.64776 0.64169 0.71151 0.0
C1681 C 0.65434 0.64093 0.68461 0.0
C1682 C 0.59138 0.57397 0.70331 0.0
C1683 C 0.61735 0.61056 0.70201 0.0
C1684 C 0.57591 0.5583 0.71785 0.0
C1685 C 0.5673 0.56253 0.74043 0.0
C1686 C 0.59838 0.59381 0.71201 0.0
C1687 C 0.57335 0.58251 0.74639 0.0
C1688 C 0.62924 0.62672 0.72014 0.0
C1689 C 0.64186 0.62476 0.6668 0.0
N1690 N 0.58882 0.59742 0.73273 0.0
N1691 N 0.62401 0.60998 0.67596 0.0
H1692 H 0.7464 0.77068 0.65877 0.0
H1693 H 0.65553 0.77783 0.61308 0.0
H1694 H 0.68615 0.72647 0.67719 0.0
H1695 H 0.71541 0.82487 0.59984 0.0
H1696 H 0.66685 0.76138 0.64315 0.0
H1697 H 0.73595 0.79298 0.64306 0.0
C1698 C 0.73102 0.76574 0.65984 0.0
C1699 C 0.7171 0.74653 0.66891 0.0
C1700 C 0.67756 0.7755 0.63418 0.0
C1701 C 0.70505 0.77196 0.65092 0.0
C1702 C 0.67107 0.78492 0.61718 0.0
C1703 C 0.68459 0.80266 0.60406 0.0
C1704 C 0.69777 0.78366 0.63762 0.0
C1705 C 0.70456 0.81124 0.60978 0.0
C1706 C 0.72506 0.7785 0.65088 0.0
C1707 C 0.69739 0.74102 0.67001 0.0
N1708 N 0.7106 0.80147 0.62577 0.0
N1709 N 0.69195 0.75356 0.66083 0.0
H1710 H 0.25732 0.97982 0.677 0.0
H1711 H 0.23443 0.87352 0.61963 0.0
H1712 H 0.30037 0.96315 0.66572 0.0
H1713 H 0.19418 0.89369 0.61212 0.0
H1714 H 0.25548 0.90276 0.6493 0.0
H1715 H 0.23152 0.94548 0.66466 0.0
C1716 C 0.26134 0.9689 0.67228 0.0
C1717 C 0.28107 0.97444 0.67198 0.0
C1718 C 0.24182 0.90059 0.64175 0.0
C1719 C 0.25161 0.93514 0.65812 0.0
C1720 C 0.22972 0.8838 0.6251 0.0
C1721 C 0.21266 0.88133 0.61338 0.0
C1722 C 0.23691 0.91512 0.64646 0.0
C1723 C 0.20721 0.89509 0.62088 0.0
C1724 C 0.24659 0.94931 0.66525 0.0
C1725 C 0.28539 0.95963 0.66583 0.0
N1726 N 0.21952 0.91166 0.63655 0.0
N1727 N 0.27081 0.94073 0.65897 0.0
H1728 H 0.0605 0.33653 0.70405 0.0
H1729 H 0.09962 0.29333 0.5857 0.0
H1730 H 0.02362 0.28739 0.64771 0.0
H1731 H 0.13717 0.3463 0.63516 0.0
H1732 H 0.07227 0.28591 0.61666 0.0
H1733 H 0.08894 0.33577 0.6868 0.0
C1734 C 0.05833 0.32541 0.68832 0.0
C1735 C 0.03968 0.31223 0.67696 0.0
C1736 C 0.08658 0.29889 0.62126 0.0
C1737 C 0.07216 0.31125 0.65721 0.0
C1738 C 0.10221 0.30296 0.60379 0.0
C1739 C 0.12057 0.32037 0.60809 0.0
C1740 C 0.08929 0.31255 0.64284 0.0
C1741 C 0.12321 0.33263 0.63141 0.0
C1742 C 0.07458 0.32498 0.6785 0.0
C1743 C 0.03775 0.29805 0.65678 0.0
N1744 N 0.10762 0.3287 0.64768 0.0
N1745 N 0.0538 0.29808 0.64737 0.0
H1746 H 0.28164 0.30101 0.65279 0.0
H1747 H 0.24221 0.37037 0.61426 0.0
H1748 H 0.31193 0.36357 0.67647 0.0
H1749 H 0.20652 0.30617 0.61026 0.0
H1750 H 0.26621 0.36818 0.64245 0.0
H1751 H 0.25274 0.30224 0.64131 0.0
C1752 C 0.28217 0.31498 0.65578 0.0
C1753 C 0.29933 0.33227 0.66528 0.0
C1754 C 0.25285 0.35455 0.63621 0.0
C1755 C 0.26627 0.33383 0.65203 0.0
C1756 C 0.23905 0.35584 0.62045 0.0
C1757 C 0.22232 0.33843 0.61038 0.0
C1758 C 0.25005 0.3357 0.64122 0.0
C1759 C 0.21914 0.31992 0.61809 0.0
C1760 C 0.26561 0.31565 0.64936 0.0
C1761 C 0.29907 0.3499 0.66902 0.0
N1762 N 0.23306 0.31902 0.6326 0.0
N1763 N 0.28292 0.3503 0.662 0.0
H1764 H 0.65076 0.95609 0.67547 0.0
H1765 H 0.71625 0.91755 0.60578 0.0
H1766 H 0.71149 0.99343 0.65218 0.0
H1767 H 0.65324 0.88194 0.60767 0.0
H1768 H 0.71551 0.94251 0.63636 0.0
H1769 H 0.65225 0.92644 0.66274 0.0
C1770 C 0.66445 0.95803 0.66807 0.0
C1771 C 0.68094 0.97722 0.66442 0.0
C1772 C 0.70183 0.92902 0.63071 0.0
C1773 C 0.6828 0.94356 0.65028 0.0
C1774 C 0.70229 0.91472 0.61356 0.0
C1775 C 0.68479 0.89778 0.60442 0.0
C1776 C 0.68371 0.92651 0.63832 0.0
C1777 C 0.66702 0.89482 0.61456 0.0
C1778 C 0.66528 0.94115 0.66083 0.0
C1779 C 0.69833 0.97892 0.65486 0.0
N1780 N 0.66689 0.90927 0.63064 0.0
N1781 N 0.69876 0.96234 0.64799 0.0
H1782 H 0.03067 0.68882 0.63176 0.0
H1783 H 0.10427 0.80594 0.61836 0.0
H1784 H 0.02083 0.7327 0.67134 0.0
H1785 H 0.11553 0.76161 0.58497 0.0
H1786 H 0.0763 0.77986 0.64427 0.0
H1787 H 0.06376 0.71541 0.61976 0.0
C1788 C 0.03549 0.70404 0.63805 0.0
C1789 C 0.02283 0.70854 0.65228 0.0
C1790 C 0.08519 0.77589 0.6319 0.0
C1791 C 0.06083 0.73918 0.63853 0.0
C1792 C 0.10129 0.79082 0.61745 0.0
C1793 C 0.11224 0.78585 0.59988 0.0
C1794 C 0.07992 0.75586 0.62829 0.0
C1795 C 0.10752 0.76599 0.59865 0.0
C1796 C 0.05446 0.71925 0.63129 0.0
C1797 C 0.03001 0.72855 0.66016 0.0
N1798 N 0.09154 0.75167 0.61231 0.0
N1799 N 0.04845 0.74315 0.65291 0.0
H1800 H 0.92453 0.57172 0.67102 0.0
H1801 H 1.00235 0.54171 0.70819 0.0
H1802 H 0.98656 0.60819 0.65478 0.0
H1803 H 0.94597 0.51685 0.74753 0.0
H1804 H 0.9933 0.55912 0.6758 0.0
H1805 H 0.92923 0.54523 0.68696 0.0
C1806 C 0.93908 0.57404 0.67036 0.0
C1807 C 0.95524 0.59232 0.662 0.0
C1808 C 0.98268 0.54938 0.69098 0.0
C1809 C 0.96064 0.56205 0.67998 0.0
C1810 C 0.98774 0.53926 0.70916 0.0
C1811 C 0.9748 0.52781 0.73029 0.0
C1812 C 0.96458 0.54801 0.69412 0.0
C1813 C 0.95624 0.52545 0.73127 0.0
C1814 C 0.94174 0.55892 0.67949 0.0
C1815 C 0.97374 0.59445 0.66147 0.0
N1816 N 0.95175 0.53569 0.71367 0.0
N1817 N 0.97596 0.57957 0.67057 0.0
H1818 H 0.42403 0.36645 0.65688 0.0
H1819 H 0.44874 0.47113 0.72329 0.0
H1820 H 0.38196 0.38408 0.67153 0.0
H1821 H 0.48878 0.45037 0.72433 0.0
H1822 H 0.42731 0.4433 0.69176 0.0
H1823 H 0.45037 0.40035 0.67019 0.0
C1824 C 0.42035 0.37751 0.66251 0.0
C1825 C 0.40073 0.37234 0.66355 0.0
C1826 C 0.44101 0.44505 0.69827 0.0
C1827 C 0.43077 0.41111 0.67858 0.0
C1828 C 0.45332 0.46106 0.71598 0.0
C1829 C 0.47045 0.46293 0.72632 0.0
C1830 C 0.44574 0.43064 0.69124 0.0
C1831 C 0.47571 0.44942 0.7166 0.0
C1832 C 0.43539 0.39684 0.67009 0.0
C1833 C 0.39684 0.3873 0.67085 0.0
N1834 N 0.46318 0.43356 0.69998 0.0
N1835 N 0.41169 0.40593 0.67829 0.0
H1836 H 0.64662 0.05039 0.67219 0.0
H1837 H 0.53846 0.97209 0.71413 0.0
H1838 H 0.61681 0.9894 0.64112 0.0
H1839 H 0.56238 0.03547 0.71975 0.0
H1840 H 0.56531 0.97791 0.68295 0.0
H1841 H 0.61509 0.04556 0.68635 0.0
C1842 C 0.63341 0.03603 0.66809 0.0
C1843 C 0.63438 0.02021 0.65575 0.0
C1844 C 0.56437 0.99053 0.69022 0.0
C1845 C 0.59819 0.0145 0.67215 0.0
C1846 C 0.54893 0.98716 0.70773 0.0
C1847 C 0.54817 1.00333 0.71911 0.0
C1848 C 0.57941 0.01024 0.68479 0.0
C1849 C 0.56237 0.02264 0.71099 0.0
C1850 C 0.61538 0.03331 0.67604 0.0
C1851 C 0.61676 1.00198 0.6507 0.0
N1852 N 0.57766 0.02562 0.69479 0.0
N1853 N 0.59942 0.99951 0.65936 0.0
loop_
_geom_bond_atom_site_label_1
_geom_bond_atom_site_label_2
_geom_bond_distance
_geom_bond_site_symmetry_2
_ccdc_geom_bond_type
C0 O1 1.160 . S
C0 O7 1.185 . S
O1 C0 1.160 . S
O2 Zn3 1.899 1_656 S
O2 C10 1.290 . S
Zn3 O2 1.899 1_454 S
Zn3 O4 2.032 . S
Zn3 O7 2.086 . S
Zn3 O12 1.977 1_554 S
O4 Zn3 2.032 . S
O4 C8 1.278 1_455 S
C5 O6 1.203 1_455 S
C5 O12 1.267 . S
O6 C5 1.203 1_655 S
O7 C0 1.185 . S
O7 Zn3 2.086 . S
C8 O4 1.278 1_655 S
C8 O9 1.211 . S
O9 C8 1.211 . S
C10 O2 1.290 . S
C10 O11 1.264 1_556 S
O11 C10 1.264 1_554 S
O12 Zn3 1.977 1_556 S
O12 C5 1.267 . S
C13 O14 1.160 . S
C13 O20 1.185 1_556 S
O14 C13 1.160 . S
O15 Zn16 1.899 . S
O15 C23 1.284 . S
Zn16 O15 1.899 . S
Zn16 O17 2.032 1_554 S
Zn16 O20 2.086 . S
Zn16 O25 1.977 . S
O17 Zn16 2.032 1_556 S
O17 C21 1.278 . S
C18 O19 1.203 . S
C18 O25 1.267 . S
O19 C18 1.203 . S
O20 C13 1.185 1_554 S
O20 Zn16 2.086 . S
C21 O17 1.278 . S
C21 O22 1.211 . S
O22 C21 1.211 . S
C23 O15 1.284 . S
C23 O24 1.273 . S
O24 C23 1.273 . S
O25 Zn16 1.977 . S
O25 C18 1.267 . S
C26 O27 1.160 . S
C26 O33 1.185 1_556 S
O27 C26 1.160 . S
O28 Zn29 1.899 1_565 S
O28 C36 1.284 . S
Zn29 O28 1.899 1_545 S
Zn29 O30 2.032 1_554 S
Zn29 O33 2.086 . S
Zn29 O38 1.977 . S
O30 Zn29 2.032 1_556 S
O30 C34 1.229 1_545 S
C31 O32 1.203 1_545 S
C31 O38 1.267 . S
O32 C31 1.203 1_565 S
O33 C26 1.185 1_554 S
O33 Zn29 2.086 . S
C34 O30 1.229 1_565 S
C34 O35 1.251 . S
O35 C34 1.251 . S
C36 O28 1.284 . S
C36 O37 1.273 . S
O37 C36 1.273 . S
O38 Zn29 1.977 . S
O38 C31 1.267 . S
C39 O40 1.160 . S
C39 O46 1.185 1_556 S
O40 C39 1.160 . S
O41 Zn42 1.899 1_455 S
O41 C49 1.284 . S
Zn42 O41 1.899 1_655 S
Zn42 O43 2.032 1_554 S
Zn42 O46 2.086 . S
Zn42 O51 1.977 . S
O43 Zn42 2.032 1_556 S
O43 C47 1.278 1_655 S
C44 O45 1.203 1_655 S
C44 O51 1.267 . S
O45 C44 1.203 1_455 S
O46 C39 1.185 1_554 S
O46 Zn42 2.086 . S
C47 O43 1.278 1_455 S
C47 O48 1.211 . S
O48 C47 1.211 . S
C49 O41 1.284 . S
C49 O50 1.273 . S
O50 C49 1.273 . S
O51 Zn42 1.977 . S
O51 C44 1.267 . S
C52 O53 1.160 . S
C52 O59 1.185 . S
O53 C52 1.160 . S
O54 Zn55 1.899 1_556 S
O54 C62 1.284 . S
Zn55 O54 1.899 1_554 S
Zn55 O56 2.032 . S
Zn55 O59 2.086 . S
Zn55 O64 1.977 1_554 S
O56 Zn55 2.032 . S
O56 C60 1.278 . S
C57 O58 1.203 . S
C57 O64 1.267 . S
O58 C57 1.203 . S
O59 C52 1.185 . S
O59 Zn55 2.086 . S
C60 O56 1.278 . S
C60 O61 1.211 . S
O61 C60 1.211 . S
C62 O54 1.284 . S
C62 O63 1.273 1_556 S
O63 C62 1.273 1_554 S
O64 Zn55 1.977 1_556 S
O64 C57 1.267 . S
C65 O66 1.160 . S
C65 O72 1.185 . S
O66 C65 1.160 . S
O67 Zn68 1.899 1_546 S
O67 C75 1.284 . S
Zn68 O67 1.899 1_564 S
Zn68 O69 2.032 . S
Zn68 O72 2.086 . S
Zn68 O77 1.977 1_554 S
O69 Zn68 2.032 . S
O69 C73 1.278 1_565 S
C70 O71 1.203 1_565 S
C70 O77 1.267 . S
O71 C70 1.203 1_545 S
O72 C65 1.185 . S
O72 Zn68 2.086 . S
C73 O69 1.278 1_545 S
C73 O74 1.211 . S
O74 C73 1.211 . S
C75 O67 1.284 . S
C75 O76 1.273 1_556 S
O76 C75 1.273 1_554 S
O77 Zn68 1.977 1_556 S
O77 C70 1.267 . S
C78 O79 1.160 . S
C78 O85 1.185 . S
O79 C78 1.160 . S
O80 Zn81 1.899 . S
O80 C88 1.284 . S
Zn81 O80 1.899 . S
Zn81 O82 2.032 . S
Zn81 O85 2.086 . S
Zn81 O90 1.977 . S
O82 Zn81 2.032 . S
O82 C86 1.278 . S
C83 O84 1.203 . S
C83 O90 1.267 . S
O84 C83 1.203 . S
O85 C78 1.185 . S
O85 Zn81 2.086 . S
C86 O82 1.278 . S
C86 O87 1.211 . S
O87 C86 1.211 . S
C88 O80 1.284 . S
C88 O89 1.273 . S
O89 C88 1.273 . S
O90 Zn81 1.977 . S
O90 C83 1.267 . S
C91 O92 1.160 1_565 S
C91 O98 1.185 . S
O92 C91 1.160 1_545 S
O93 Zn94 1.899 1_545 S
O93 C101 1.284 . S
Zn94 O93 1.899 1_565 S
Zn94 O95 2.032 . S
Zn94 O98 2.086 . S
Zn94 O103 1.977 . S
O95 Zn94 2.032 . S
O95 C99 1.278 . S
C96 O97 1.203 . S
C96 O103 1.267 . S
O97 C96 1.203 . S
O98 C91 1.185 . S
O98 Zn94 2.086 . S
C99 O95 1.278 . S
C99 O100 1.211 . S
O100 C99 1.211 . S
C101 O93 1.284 . S
C101 O102 1.273 . S
O102 C101 1.273 . S
O103 Zn94 1.977 . S
O103 C96 1.267 . S
C104 O105 1.160 . S
C104 O111 1.185 . S
O105 C104 1.160 . S
O106 Zn107 1.862 1_655 S
O106 C114 1.280 . S
Zn107 O106 1.862 1_455 S
Zn107 O108 2.032 . S
Zn107 O111 2.086 . S
Zn107 O116 1.977 . S
O108 Zn107 2.032 . S
O108 C112 1.278 . S
C109 O110 1.203 . S
C109 O116 1.267 . S
O110 C109 1.203 . S
O111 C104 1.185 . S
O111 Zn107 2.086 . S
C112 O108 1.278 . S
C112 O113 1.211 . S
O113 C112 1.211 . S
C114 O106 1.280 . S
C114 O115 1.282 . S
O115 C114 1.282 . S
O116 Zn107 1.977 . S
O116 C109 1.267 . S
C117 O118 1.160 1_565 S
C117 O124 1.185 . S
O118 C117 1.160 1_545 S
O119 Zn120 1.899 1_545 S
O119 C127 1.284 . S
Zn120 O119 1.899 1_565 S
Zn120 O121 2.032 . S
Zn120 O124 2.086 . S
Zn120 O129 1.977 . S
O121 Zn120 2.032 . S
O121 C125 1.278 . S
C122 O123 1.203 . S
C122 O129 1.267 . S
O123 C122 1.203 . S
O124 C117 1.185 . S
O124 Zn120 2.086 . S
C125 O121 1.278 . S
C125 O126 1.211 . S
O126 C125 1.211 . S
C127 O119 1.284 . S
C127 O128 1.273 . S
O128 C127 1.273 . S
O129 Zn120 1.977 . S
O129 C122 1.267 . S
C130 O131 1.160 . S
C130 O137 1.185 . S
O131 C130 1.160 . S
O132 Zn133 1.899 . S
O132 C140 1.284 . S
Zn133 O132 1.899 . S
Zn133 O134 2.032 . S
Zn133 O137 2.086 1_455 S
Zn133 O142 1.977 . S
O134 Zn133 2.032 . S
O134 C138 1.278 . S
C135 O136 1.203 . S
C135 O142 1.267 . S
O136 C135 1.203 . S
O137 C130 1.185 . S
O137 Zn133 2.086 1_655 S
C138 O134 1.278 . S
C138 O139 1.211 . S
O139 C138 1.211 . S
C140 O132 1.284 . S
C140 O141 1.273 . S
O141 C140 1.273 . S
O142 Zn133 1.977 . S
O142 C135 1.267 . S
C143 O144 1.160 . S
C143 O150 1.185 . S
O144 C143 1.160 . S
O145 Zn146 1.899 . S
O145 C153 1.284 . S
Zn146 O145 1.899 . S
Zn146 O147 2.032 . S
Zn146 O150 2.086 . S
Zn146 O155 1.977 . S
O147 Zn146 2.032 . S
O147 C151 1.278 . S
C148 O149 1.203 . S
C148 O155 1.267 . S
O149 C148 1.203 . S
O150 C143 1.185 . S
O150 Zn146 2.086 . S
C151 O147 1.278 . S
C151 O152 1.211 . S
O152 C151 1.211 . S
C153 O145 1.284 . S
C153 O154 1.273 . S
O154 C153 1.273 . S
O155 Zn146 1.977 . S
O155 C148 1.267 . S
C156 O157 1.133 1_545 S
C156 O163 1.185 . S
O157 C156 1.133 1_565 S
O158 Zn159 1.899 1_565 S
O158 C166 1.284 . S
Zn159 O158 1.899 1_545 S
Zn159 O160 2.032 . S
Zn159 O163 2.086 . S
Zn159 O168 1.977 . S
O160 Zn159 2.032 . S
O160 C164 1.278 . S
C161 O162 1.203 . S
C161 O168 1.267 . S
O162 C161 1.203 . S
O163 C156 1.185 . S
O163 Zn159 2.086 . S
C164 O160 1.278 . S
C164 O165 1.211 . S
O165 C164 1.211 . S
C166 O158 1.284 . S
C166 O167 1.273 . S
O167 C166 1.273 . S
O168 Zn159 1.977 . S
O168 C161 1.267 . S
C169 O170 1.160 . S
C169 O176 1.185 . S
O170 C169 1.160 . S
O171 Zn172 1.899 . S
O171 C179 1.284 . S
Zn172 O171 1.899 . S
Zn172 O173 2.032 . S
Zn172 O176 2.086 1_655 S
Zn172 O181 1.977 . S
O173 Zn172 2.032 . S
O173 C177 1.278 . S
C174 O175 1.203 . S
C174 O181 1.267 . S
O175 C174 1.203 . S
O176 C169 1.185 . S
O176 Zn172 2.086 1_455 S
C177 O173 1.278 . S
C177 O178 1.211 . S
O178 C177 1.211 . S
C179 O171 1.284 . S
C179 O180 1.273 . S
O180 C179 1.273 . S
O181 Zn172 1.977 . S
O181 C174 1.267 . S
C182 O183 1.160 . S
C182 O189 1.185 . S
O183 C182 1.160 . S
O184 Zn185 1.899 . S
O184 C192 1.284 . S
Zn185 O184 1.899 . S
Zn185 O186 2.032 . S
Zn185 O189 2.086 . S
Zn185 O194 1.977 . S
O186 Zn185 2.032 . S
O186 C190 1.278 . S
C187 O188 1.203 . S
C187 O194 1.267 . S
O188 C187 1.203 . S
O189 C182 1.185 . S
O189 Zn185 2.086 . S
C190 O186 1.278 . S
C190 O191 1.211 . S
O191 C190 1.211 . S
C192 O184 1.284 . S
C192 O193 1.273 . S
O193 C192 1.273 . S
O194 Zn185 1.977 . S
O194 C187 1.267 . S
C195 O196 1.160 . S
C195 O202 1.185 . S
O196 C195 1.160 . S
O197 Zn198 1.899 . S
O197 C205 1.284 . S
Zn198 O197 1.899 . S
Zn198 O199 2.032 . S
Zn198 O202 2.086 . S
Zn198 O207 1.977 . S
O199 Zn198 2.032 . S
O199 C203 1.278 . S
C200 O201 1.203 . S
C200 O207 1.267 . S
O201 C200 1.203 . S
O202 C195 1.185 . S
O202 Zn198 2.086 . S
C203 O199 1.278 . S
C203 O204 1.211 . S
O204 C203 1.211 . S
C205 O197 1.284 . S
C205 O206 1.273 . S
O206 C205 1.273 . S
O207 Zn198 1.977 . S
O207 C200 1.267 . S
C208 O209 1.116 1_545 S
C208 O215 1.185 . S
O209 C208 1.116 1_565 S
O210 Zn211 1.899 1_565 S
O210 C218 1.284 . S
Zn211 O210 1.899 1_545 S
Zn211 O212 2.032 . S
Zn211 O215 2.086 . S
Zn211 O220 1.977 . S
O212 Zn211 2.032 . S
O212 C216 1.278 . S
C213 O214 1.203 . S
C213 O220 1.267 . S
O214 C213 1.203 . S
O215 C208 1.185 . S
O215 Zn211 2.086 . S
C216 O212 1.278 . S
C216 O217 1.211 . S
O217 C216 1.211 . S
C218 O210 1.284 . S
C218 O219 1.273 . S
O219 C218 1.273 . S
O220 Zn211 1.977 . S
O220 C213 1.267 . S
C221 O222 1.160 . S
C221 O228 1.185 . S
O222 C221 1.160 . S
O223 Zn224 1.863 1_455 S
O223 C231 1.280 . S
Zn224 O223 1.863 1_655 S
Zn224 O225 2.032 . S
Zn224 O228 2.086 . S
Zn224 O233 1.977 . S
O225 Zn224 2.032 . S
O225 C229 1.278 . S
C226 O227 1.203 . S
C226 O233 1.267 . S
O227 C226 1.203 . S
O228 C221 1.185 . S
O228 Zn224 2.086 . S
C229 O225 1.278 . S
C229 O230 1.211 . S
O230 C229 1.211 . S
C231 O223 1.280 . S
C231 O232 1.277 . S
O232 C231 1.277 . S
O233 Zn224 1.977 . S
O233 C226 1.267 . S
H234 C240 0.930 . S
H235 C243 0.931 . S
H236 C245 0.931 . S
H237 C247 0.930 . S
H238 C249 0.930 . S
H239 C251 0.931 . S
C240 H234 0.930 . S
C240 C241 1.380 . S
C240 C242 1.394 . S
C241 C240 1.380 . S
C241 C245 1.382 . S
C242 C240 1.394 . S
C242 C243 1.400 . S
C243 H235 0.931 . S
C243 C242 1.400 . S
C243 C244 1.375 . S
C244 C243 1.375 . S
C244 C245 1.415 . S
C244 C246 1.501 . S
C245 H236 0.931 . S
C245 C241 1.382 . S
C245 C244 1.415 . S
C246 C244 1.501 . S
C246 C247 1.384 . S
C246 C251 1.408 . S
C247 H237 0.930 . S
C247 C246 1.384 . S
C247 C248 1.389 . S
C248 C247 1.389 . S
C248 C249 1.405 . S
C249 H238 0.930 . S
C249 C248 1.405 . S
C249 C250 1.364 . S
C250 C249 1.364 . S
C250 C251 1.400 . S
C251 H239 0.931 . S
C251 C246 1.408 . S
C251 C250 1.400 . S
H252 C258 0.930 . S
H253 C261 0.931 . S
H254 C263 0.931 . S
H255 C265 0.930 . S
H256 C267 0.930 . S
H257 C269 0.931 . S
C258 H252 0.930 . S
C258 C259 1.380 . S
C258 C260 1.394 . S
C259 C258 1.380 . S
C259 C263 1.382 . S
C260 C258 1.394 . S
C260 C261 1.400 . S
C261 H253 0.931 . S
C261 C260 1.400 . S
C261 C262 1.375 . S
C262 C261 1.375 . S
C262 C263 1.415 . S
C262 C264 1.501 . S
C263 H254 0.931 . S
C263 C259 1.382 . S
C263 C262 1.415 . S
C264 C262 1.501 . S
C264 C265 1.384 . S
C264 C269 1.408 . S
C265 H255 0.930 . S
C265 C264 1.384 . S
C265 C266 1.389 . S
C266 C265 1.389 . S
C266 C267 1.405 . S
C267 H256 0.930 . S
C267 C266 1.405 . S
C267 C268 1.364 . S
C268 C267 1.364 . S
C268 C269 1.400 . S
C269 H257 0.931 . S
C269 C264 1.408 . S
C269 C268 1.400 . S
H270 C276 0.930 . S
H271 C279 0.931 . S
H272 C281 0.931 . S
H273 C283 0.930 . S
H274 C285 0.930 . S
H275 C287 0.931 . S
C276 H270 0.930 . S
C276 C277 1.380 . S
C276 C278 1.394 . S
C277 C276 1.380 . S
C277 C281 1.382 . S
C278 C276 1.394 . S
C278 C279 1.400 . S
C279 H271 0.931 . S
C279 C278 1.400 . S
C279 C280 1.375 . S
C280 C279 1.375 . S
C280 C281 1.415 . S
C280 C282 1.501 . S
C281 H272 0.931 . S
C281 C277 1.382 . S
C281 C280 1.415 . S
C282 C280 1.501 . S
C282 C283 1.384 . S
C282 C287 1.408 . S
C283 H273 0.930 . S
C283 C282 1.384 . S
C283 C284 1.389 . S
C284 C283 1.389 . S
C284 C285 1.405 . S
C285 H274 0.930 . S
C285 C284 1.405 . S
C285 C286 1.364 . S
C286 C285 1.364 . S
C286 C287 1.400 . S
C287 H275 0.931 . S
C287 C282 1.408 . S
C287 C286 1.400 . S
H288 C294 0.930 . S
H289 C297 0.931 . S
H290 C299 0.931 . S
H291 C301 0.930 . S
H292 C303 0.930 . S
H293 C305 0.931 . S
C294 H288 0.930 . S
C294 C295 1.380 . S
C294 C296 1.394 . S
C295 C294 1.380 . S
C295 C299 1.382 . S
C296 C294 1.394 . S
C296 C297 1.400 . S
C297 H289 0.931 . S
C297 C296 1.400 . S
C297 C298 1.375 . S
C298 C297 1.375 . S
C298 C299 1.415 . S
C298 C300 1.501 . S
C299 H290 0.931 . S
C299 C295 1.382 . S
C299 C298 1.415 . S
C300 C298 1.501 . S
C300 C301 1.384 . S
C300 C305 1.408 . S
C301 H291 0.930 . S
C301 C300 1.384 . S
C301 C302 1.389 . S
C302 C301 1.389 . S
C302 C303 1.405 . S
C303 H292 0.930 . S
C303 C302 1.405 . S
C303 C304 1.364 . S
C304 C303 1.364 . S
C304 C305 1.400 . S
C305 H293 0.931 . S
C305 C300 1.408 . S
C305 C304 1.400 . S
H306 C312 0.930 . S
H307 C315 0.931 . S
H308 C317 0.931 . S
H309 C319 0.930 . S
H310 C321 0.930 . S
H311 C323 0.931 . S
C312 H306 0.930 . S
C312 C313 1.380 . S
C312 C314 1.394 . S
C313 C312 1.380 . S
C313 C317 1.382 . S
C314 C312 1.394 . S
C314 C315 1.400 . S
C315 H307 0.931 . S
C315 C314 1.400 . S
C315 C316 1.375 . S
C316 C315 1.375 . S
C316 C317 1.415 . S
C316 C318 1.501 . S
C317 H308 0.931 . S
C317 C313 1.382 . S
C317 C316 1.415 . S
C318 C316 1.501 . S
C318 C319 1.384 . S
C318 C323 1.408 . S
C319 H309 0.930 . S
C319 C318 1.384 . S
C319 C320 1.389 . S
C320 C319 1.389 . S
C320 C321 1.405 . S
C321 H310 0.930 . S
C321 C320 1.405 . S
C321 C322 1.364 . S
C322 C321 1.364 . S
C322 C323 1.400 . S
C323 H311 0.931 . S
C323 C318 1.408 . S
C323 C322 1.400 . S
H324 C330 0.930 . S
H325 C333 0.931 . S
H326 C335 0.931 . S
H327 C337 0.930 . S
H328 C339 0.930 . S
H329 C341 0.931 . S
C330 H324 0.930 . S
C330 C331 1.380 . S
C330 C332 1.394 . S
C331 C330 1.380 . S
C331 C335 1.382 . S
C332 C330 1.394 . S
C332 C333 1.400 . S
C333 H325 0.931 . S
C333 C332 1.400 . S
C333 C334 1.375 . S
C334 C333 1.375 . S
C334 C335 1.415 . S
C334 C336 1.501 . S
C335 H326 0.931 . S
C335 C331 1.382 . S
C335 C334 1.415 . S
C336 C334 1.501 . S
C336 C337 1.384 . S
C336 C341 1.408 . S
C337 H327 0.930 . S
C337 C336 1.384 . S
C337 C338 1.389 . S
C338 C337 1.389 . S
C338 C339 1.405 . S
C339 H328 0.930 . S
C339 C338 1.405 . S
C339 C340 1.364 . S
C340 C339 1.364 . S
C340 C341 1.400 . S
C341 H329 0.931 . S
C341 C336 1.408 . S
C341 C340 1.400 . S
H342 C348 0.930 . S
H343 C351 0.931 . S
H344 C353 0.931 . S
H345 C355 0.930 . S
H346 C357 0.930 . S
H347 C359 0.931 . S
C348 H342 0.930 . S
C348 C349 1.380 . S
C348 C350 1.394 . S
C349 C348 1.380 . S
C349 C353 1.382 . S
C350 C348 1.394 . S
C350 C351 1.400 . S
C351 H343 0.931 . S
C351 C350 1.400 . S
C351 C352 1.375 . S
C352 C351 1.375 . S
C352 C353 1.415 . S
C352 C354 1.501 . S
C353 H344 0.931 . S
C353 C349 1.382 . S
C353 C352 1.415 . S
C354 C352 1.501 . S
C354 C355 1.384 . S
C354 C359 1.408 . S
C355 H345 0.930 . S
C355 C354 1.384 . S
C355 C356 1.389 . S
C356 C355 1.389 . S
C356 C357 1.405 . S
C357 H346 0.930 . S
C357 C356 1.405 . S
C357 C358 1.364 . S
C358 C357 1.364 . S
C358 C359 1.400 . S
C359 H347 0.931 . S
C359 C354 1.408 . S
C359 C358 1.400 . S
H360 C366 0.930 . S
H361 C369 0.931 . S
H362 C371 0.931 . S
H363 C373 0.930 . S
H364 C375 0.930 . S
H365 C377 0.931 . S
C366 H360 0.930 . S
C366 C367 1.380 . S
C366 C368 1.394 . S
C367 C366 1.380 . S
C367 C371 1.382 . S
C368 C366 1.394 . S
C368 C369 1.400 . S
C369 H361 0.931 . S
C369 C368 1.400 . S
C369 C370 1.375 . S
C370 C369 1.375 . S
C370 C371 1.415 . S
C370 C372 1.501 . S
C371 H362 0.931 . S
C371 C367 1.382 . S
C371 C370 1.415 . S
C372 C370 1.501 . S
C372 C373 1.384 . S
C372 C377 1.408 . S
C373 H363 0.930 . S
C373 C372 1.384 . S
C373 C374 1.389 . S
C374 C373 1.389 . S
C374 C375 1.405 . S
C375 H364 0.930 . S
C375 C374 1.405 . S
C375 C376 1.364 . S
C376 C375 1.364 . S
C376 C377 1.400 . S
C377 H365 0.931 . S
C377 C372 1.408 . S
C377 C376 1.400 . S
H378 C384 0.930 . S
H379 C387 0.931 . S
H380 C389 0.931 . S
H381 C391 0.930 . S
H382 C393 0.930 . S
H383 C395 0.931 . S
C384 H378 0.930 . S
C384 C385 1.380 . S
C384 C386 1.394 . S
C385 C384 1.380 . S
C385 C389 1.382 . S
C386 C384 1.394 . S
C386 C387 1.400 . S
C387 H379 0.931 . S
C387 C386 1.400 . S
C387 C388 1.375 . S
C388 C387 1.375 . S
C388 C389 1.415 . S
C388 C390 1.501 . S
C389 H380 0.931 . S
C389 C385 1.382 . S
C389 C388 1.415 . S
C390 C388 1.501 . S
C390 C391 1.384 . S
C390 C395 1.408 . S
C391 H381 0.930 . S
C391 C390 1.384 . S
C391 C392 1.389 . S
C392 C391 1.389 . S
C392 C393 1.405 . S
C393 H382 0.930 . S
C393 C392 1.405 . S
C393 C394 1.364 . S
C394 C393 1.364 . S
C394 C395 1.400 . S
C395 H383 0.931 . S
C395 C390 1.408 . S
C395 C394 1.400 . S
H396 C402 0.956 1_655 S
H397 C405 0.931 . S
H398 C407 0.931 . S
H399 C409 0.930 . S
H400 C411 0.906 . S
H401 C413 0.938 1_655 S
C402 H396 0.956 1_455 S
C402 C403 1.376 1_455 S
C402 C404 1.393 . S
C403 C402 1.376 1_655 S
C403 C407 1.382 . S
C404 C402 1.393 . S
C404 C405 1.400 . S
C405 H397 0.931 . S
C405 C404 1.400 . S
C405 C406 1.375 . S
C406 C405 1.375 . S
C406 C407 1.415 1_455 S
C406 C408 1.501 . S
C407 H398 0.931 . S
C407 C403 1.382 . S
C407 C406 1.415 1_655 S
C408 C406 1.501 . S
C408 C409 1.384 . S
C408 C413 1.416 . S
C409 H399 0.930 . S
C409 C408 1.384 . S
C409 C410 1.426 . S
C410 C409 1.426 . S
C410 C411 1.401 . S
C411 H400 0.906 . S
C411 C410 1.401 . S
C411 C412 1.379 . S
C412 C411 1.379 . S
C412 C413 1.383 . S
C413 H401 0.938 1_455 S
C413 C408 1.416 . S
C413 C412 1.383 . S
H414 C420 0.930 . S
H415 C423 0.931 . S
H416 C425 0.931 . S
H417 C427 0.930 . S
H418 C429 0.930 . S
H419 C431 0.931 . S
C420 H414 0.930 . S
C420 C421 1.380 . S
C420 C422 1.394 . S
C421 C420 1.380 . S
C421 C425 1.382 . S
C422 C420 1.394 . S
C422 C423 1.400 . S
C423 H415 0.931 . S
C423 C422 1.400 . S
C423 C424 1.375 . S
C424 C423 1.375 . S
C424 C425 1.415 . S
C424 C426 1.501 . S
C425 H416 0.931 . S
C425 C421 1.382 . S
C425 C424 1.415 . S
C426 C424 1.501 . S
C426 C427 1.384 . S
C426 C431 1.408 . S
C427 H417 0.930 . S
C427 C426 1.384 . S
C427 C428 1.389 . S
C428 C427 1.389 . S
C428 C429 1.405 . S
C429 H418 0.930 . S
C429 C428 1.405 . S
C429 C430 1.364 . S
C430 C429 1.364 . S
C430 C431 1.400 . S
C431 H419 0.931 . S
C431 C426 1.408 . S
C431 C430 1.400 . S
H432 C438 0.968 . S
H433 C441 0.931 . S
H434 C443 0.931 . S
H435 C445 0.930 . S
H436 C447 0.930 . S
H437 C449 0.938 . S
C438 H432 0.968 . S
C438 C439 1.374 . S
C438 C440 1.366 1_545 S
C439 C438 1.374 . S
C439 C443 1.382 . S
C440 C438 1.366 1_565 S
C440 C441 1.400 . S
C441 H433 0.931 . S
C441 C440 1.400 . S
C441 C442 1.375 . S
C442 C441 1.375 . S
C442 C443 1.415 1_565 S
C442 C444 1.501 . S
C443 H434 0.931 . S
C443 C439 1.382 . S
C443 C442 1.415 1_545 S
C444 C442 1.501 . S
C444 C445 1.384 . S
C444 C449 1.408 . S
C445 H435 0.930 . S
C445 C444 1.384 . S
C445 C446 1.389 . S
C446 C445 1.389 . S
C446 C447 1.405 . S
C447 H436 0.930 . S
C447 C446 1.405 . S
C447 C448 1.364 . S
C448 C447 1.364 . S
C448 C449 1.400 . S
C449 H437 0.938 . S
C449 C444 1.408 . S
C449 C448 1.400 . S
H450 C456 0.927 . S
H451 C459 0.931 . S
H452 C461 0.924 . S
H453 C463 0.930 . S
H454 C465 0.908 . S
H455 C467 0.931 . S
C456 H450 0.927 . S
C456 C457 1.382 . S
C456 C458 1.395 1_545 S
C457 C456 1.382 . S
C457 C461 1.396 1_545 S
C458 C456 1.395 1_565 S
C458 C459 1.400 . S
C459 H451 0.931 . S
C459 C458 1.400 . S
C459 C460 1.375 . S
C460 C459 1.375 . S
C460 C461 1.407 . S
C460 C462 1.501 . S
C461 H452 0.924 . S
C461 C457 1.396 1_565 S
C461 C460 1.407 . S
C462 C460 1.501 . S
C462 C463 1.384 . S
C462 C467 1.408 1_565 S
C463 H453 0.930 . S
C463 C462 1.384 . S
C463 C464 1.389 . S
C464 C463 1.389 . S
C464 C465 1.424 . S
C465 H454 0.908 . S
C465 C464 1.424 . S
C465 C466 1.369 1_565 S
C466 C465 1.369 1_545 S
C466 C467 1.400 . S
C467 H455 0.931 . S
C467 C462 1.408 1_545 S
C467 C466 1.400 . S
H468 C474 0.930 . S
H469 C477 0.931 . S
H470 C479 0.934 . S
H471 C481 0.930 . S
H472 C483 0.930 . S
H473 C485 0.931 . S
C474 H468 0.930 . S
C474 C475 1.397 . S
C474 C476 1.394 1_655 S
C475 C474 1.397 . S
C475 C479 1.349 1_655 S
C476 C474 1.394 1_455 S
C476 C477 1.400 . S
C477 H469 0.931 . S
C477 C476 1.400 . S
C477 C478 1.375 . S
C478 C477 1.375 . S
C478 C479 1.416 . S
C478 C480 1.501 . S
C479 H470 0.934 . S
C479 C475 1.349 1_455 S
C479 C478 1.416 . S
C480 C478 1.501 . S
C480 C481 1.384 . S
C480 C485 1.408 1_455 S
C481 H471 0.930 . S
C481 C480 1.384 . S
C481 C482 1.389 . S
C482 C481 1.389 . S
C482 C483 1.405 . S
C483 H472 0.930 . S
C483 C482 1.405 . S
C483 C484 1.364 1_455 S
C484 C483 1.364 1_655 S
C484 C485 1.400 . S
C485 H473 0.931 . S
C485 C480 1.408 1_655 S
C485 C484 1.400 . S
H486 C492 0.930 . S
H487 C495 0.931 . S
H488 C497 0.931 . S
H489 C499 0.930 . S
H490 C501 0.930 . S
H491 C503 0.931 . S
C492 H486 0.930 . S
C492 C493 1.380 . S
C492 C494 1.394 . S
C493 C492 1.380 . S
C493 C497 1.382 . S
C494 C492 1.394 . S
C494 C495 1.400 . S
C495 H487 0.931 . S
C495 C494 1.400 . S
C495 C496 1.375 . S
C496 C495 1.375 . S
C496 C497 1.415 . S
C496 C498 1.501 . S
C497 H488 0.931 . S
C497 C493 1.382 . S
C497 C496 1.415 . S
C498 C496 1.501 . S
C498 C499 1.384 . S
C498 C503 1.408 . S
C499 H489 0.930 . S
C499 C498 1.384 . S
C499 C500 1.389 . S
C500 C499 1.389 . S
C500 C501 1.405 . S
C501 H490 0.930 . S
C501 C500 1.405 . S
C501 C502 1.364 . S
C502 C501 1.364 . S
C502 C503 1.400 . S
C503 H491 0.931 . S
C503 C498 1.408 . S
C503 C502 1.400 . S
H504 C510 0.930 . S
H505 C513 0.931 . S
H506 C515 0.931 . S
H507 C517 0.930 . S
H508 C519 0.930 . S
H509 C521 0.931 . S
C510 H504 0.930 . S
C510 C511 1.380 . S
C510 C512 1.394 . S
C511 C510 1.380 . S
C511 C515 1.382 . S
C512 C510 1.394 . S
C512 C513 1.400 . S
C513 H505 0.931 . S
C513 C512 1.400 . S
C513 C514 1.375 . S
C514 C513 1.375 . S
C514 C515 1.415 . S
C514 C516 1.501 . S
C515 H506 0.931 . S
C515 C511 1.382 . S
C515 C514 1.415 . S
C516 C514 1.501 . S
C516 C517 1.384 . S
C516 C521 1.408 . S
C517 H507 0.930 . S
C517 C516 1.384 . S
C517 C518 1.389 . S
C518 C517 1.389 . S
C518 C519 1.405 . S
C519 H508 0.930 . S
C519 C518 1.405 . S
C519 C520 1.364 . S
C520 C519 1.364 . S
C520 C521 1.400 . S
C521 H509 0.931 . S
C521 C516 1.408 . S
C521 C520 1.400 . S
H522 C528 0.930 . S
H523 C531 0.931 . S
H524 C533 0.931 . S
H525 C535 0.930 . S
H526 C537 0.930 . S
H527 C539 0.931 . S
C528 H522 0.930 . S
C528 C529 1.380 . S
C528 C530 1.394 . S
C529 C528 1.380 . S
C529 C533 1.382 . S
C530 C528 1.394 . S
C530 C531 1.400 . S
C531 H523 0.931 . S
C531 C530 1.400 . S
C531 C532 1.375 . S
C532 C531 1.375 . S
C532 C533 1.415 . S
C532 C534 1.501 . S
C533 H524 0.931 . S
C533 C529 1.382 . S
C533 C532 1.415 . S
C534 C532 1.501 . S
C534 C535 1.384 . S
C534 C539 1.408 . S
C535 H525 0.930 . S
C535 C534 1.384 . S
C535 C536 1.389 . S
C536 C535 1.389 . S
C536 C537 1.405 . S
C537 H526 0.930 . S
C537 C536 1.405 . S
C537 C538 1.364 . S
C538 C537 1.364 . S
C538 C539 1.400 . S
C539 H527 0.931 . S
C539 C534 1.408 . S
C539 C538 1.400 . S
H540 C546 0.930 . S
H541 C549 0.931 . S
H542 C551 0.931 . S
H543 C553 0.930 . S
H544 C555 0.930 . S
H545 C557 0.931 . S
C546 H540 0.930 . S
C546 C547 1.380 . S
C546 C548 1.394 . S
C547 C546 1.380 . S
C547 C551 1.382 . S
C548 C546 1.394 . S
C548 C549 1.400 . S
C549 H541 0.931 . S
C549 C548 1.400 . S
C549 C550 1.375 . S
C550 C549 1.375 . S
C550 C551 1.415 . S
C550 C552 1.501 . S
C551 H542 0.931 . S
C551 C547 1.382 . S
C551 C550 1.415 . S
C552 C550 1.501 . S
C552 C553 1.384 . S
C552 C557 1.408 . S
C553 H543 0.930 . S
C553 C552 1.384 . S
C553 C554 1.389 . S
C554 C553 1.389 . S
C554 C555 1.405 . S
C555 H544 0.930 . S
C555 C554 1.405 . S
C555 C556 1.364 . S
C556 C555 1.364 . S
C556 C557 1.400 . S
C557 H545 0.931 . S
C557 C552 1.408 . S
C557 C556 1.400 . S
H558 C564 0.930 . S
H559 C568 0.930 . S
H560 C573 0.929 . S
H561 C571 0.929 . S
H562 C566 0.929 . S
H563 C572 0.929 . S
C564 H558 0.930 . S
C564 C565 1.367 1_455 S
C564 C572 1.378 . S
C565 C564 1.367 1_655 S
C565 C573 1.433 . S
C566 H562 0.929 . S
C566 C568 1.378 . S
C566 C570 1.350 . S
C567 C570 1.463 . S
C567 C572 1.350 1_655 S
C567 N575 1.427 . S
C568 H559 0.930 . S
C568 C566 1.378 . S
C568 C569 1.367 . S
C569 C568 1.367 . S
C569 C571 1.433 1_655 S
C570 C566 1.350 . S
C570 C567 1.463 . S
C570 N574 1.427 1_655 S
C571 H561 0.929 . S
C571 C569 1.433 1_455 S
C571 N574 1.384 . S
C572 H563 0.929 . S
C572 C564 1.378 . S
C572 C567 1.350 1_455 S
C573 H560 0.929 . S
C573 C565 1.433 . S
C573 N575 1.384 . S
N574 C570 1.427 1_455 S
N574 C571 1.384 . S
N575 C567 1.427 . S
N575 C573 1.384 . S
H576 C582 0.930 . S
H577 C586 0.930 . S
H578 C591 0.929 . S
H579 C589 0.929 . S
H580 C584 0.929 . S
H581 C590 0.929 . S
C582 H576 0.930 . S
C582 C583 1.367 . S
C582 C590 1.378 . S
C583 C582 1.367 . S
C583 C591 1.433 . S
C584 H580 0.929 . S
C584 C586 1.378 . S
C584 C588 1.350 . S
C585 C588 1.463 . S
C585 C590 1.350 . S
C585 N593 1.427 . S
C586 H577 0.930 . S
C586 C584 1.378 . S
C586 C587 1.367 . S
C587 C586 1.367 . S
C587 C589 1.433 . S
C588 C584 1.350 . S
C588 C585 1.463 . S
C588 N592 1.427 . S
C589 H579 0.929 . S
C589 C587 1.433 . S
C589 N592 1.384 . S
C590 H581 0.929 . S
C590 C582 1.378 . S
C590 C585 1.350 . S
C591 H578 0.929 . S
C591 C583 1.433 . S
C591 N593 1.384 . S
N592 C588 1.427 . S
N592 C589 1.384 . S
N593 C585 1.427 . S
N593 C591 1.384 . S
H594 C600 0.930 . S
H595 C604 0.930 . S
H596 C609 0.929 . S
H597 C607 0.886 1_565 S
H598 C602 0.929 . S
H599 C608 0.948 . S
C600 H594 0.930 . S
C600 C601 1.367 . S
C600 C608 1.378 . S
C601 C600 1.367 . S
C601 C609 1.433 . S
C602 H598 0.929 . S
C602 C604 1.378 . S
C602 C606 1.350 . S
C603 C606 1.463 . S
C603 C608 1.350 . S
C603 N611 1.427 . S
C604 H595 0.930 . S
C604 C602 1.378 . S
C604 C605 1.367 . S
C605 C604 1.367 . S
C605 C607 1.450 . S
C606 C602 1.350 . S
C606 C603 1.463 . S
C606 N610 1.427 . S
C607 H597 0.886 1_545 S
C607 C605 1.450 . S
C607 N610 1.415 . S
C608 H599 0.948 . S
C608 C600 1.378 . S
C608 C603 1.350 . S
C609 H596 0.929 . S
C609 C601 1.433 . S
C609 N611 1.384 . S
N610 C606 1.427 . S
N610 C607 1.415 . S
N611 C603 1.427 . S
N611 C609 1.384 . S
H612 C618 0.930 . S
H613 C622 0.930 . S
H614 C627 0.929 . S
H615 C625 0.929 . S
H616 C620 0.929 . S
H617 C626 0.929 . S
C618 H612 0.930 . S
C618 C619 1.367 . S
C618 C626 1.378 . S
C619 C618 1.367 . S
C619 C627 1.433 1_565 S
C620 H616 0.929 . S
C620 C622 1.378 . S
C620 C624 1.350 1_545 S
C621 C624 1.463 . S
C621 C626 1.350 . S
C621 N629 1.427 1_565 S
C622 H613 0.930 . S
C622 C620 1.378 . S
C622 C623 1.367 1_545 S
C623 C622 1.367 1_565 S
C623 C625 1.433 . S
C624 C620 1.350 1_565 S
C624 C621 1.463 . S
C624 N628 1.427 . S
C625 H615 0.929 . S
C625 C623 1.433 . S
C625 N628 1.384 . S
C626 H617 0.929 . S
C626 C618 1.378 . S
C626 C621 1.350 . S
C627 H614 0.929 . S
C627 C619 1.433 1_545 S
C627 N629 1.384 . S
N628 C624 1.427 . S
N628 C625 1.384 . S
N629 C621 1.427 1_545 S
N629 C627 1.384 . S
H630 C636 0.930 . S
H631 C640 0.930 . S
H632 C645 0.929 . S
H633 C643 0.929 . S
H634 C638 0.929 . S
H635 C644 0.929 . S
C636 H630 0.930 . S
C636 C637 1.367 . S
C636 C644 1.378 . S
C637 C636 1.367 . S
C637 C645 1.433 1_455 S
C638 H634 0.929 . S
C638 C640 1.378 . S
C638 C642 1.350 1_655 S
C639 C642 1.463 . S
C639 C644 1.350 . S
C639 N647 1.427 1_455 S
C640 H631 0.930 . S
C640 C638 1.378 . S
C640 C641 1.367 1_655 S
C641 C640 1.367 1_455 S
C641 C643 1.433 . S
C642 C638 1.350 1_455 S
C642 C639 1.463 . S
C642 N646 1.427 . S
C643 H633 0.929 . S
C643 C641 1.433 . S
C643 N646 1.384 . S
C644 H635 0.929 . S
C644 C636 1.378 . S
C644 C639 1.350 . S
C645 H632 0.929 . S
C645 C637 1.433 1_655 S
C645 N647 1.384 . S
N646 C642 1.427 . S
N646 C643 1.384 . S
N647 C639 1.427 1_655 S
N647 C645 1.384 . S
H648 C654 0.930 . S
H649 C658 0.930 . S
H650 C663 0.929 . S
H651 C661 0.929 . S
H652 C656 0.929 . S
H653 C662 0.929 . S
C654 H648 0.930 . S
C654 C655 1.367 . S
C654 C662 1.378 . S
C655 C654 1.367 . S
C655 C663 1.433 . S
C656 H652 0.929 . S
C656 C658 1.378 . S
C656 C660 1.350 . S
C657 C660 1.463 . S
C657 C662 1.350 . S
C657 N665 1.427 . S
C658 H649 0.930 . S
C658 C656 1.378 . S
C658 C659 1.367 . S
C659 C658 1.367 . S
C659 C661 1.433 . S
C660 C656 1.350 . S
C660 C657 1.463 . S
C660 N664 1.427 . S
C661 H651 0.929 . S
C661 C659 1.433 . S
C661 N664 1.384 . S
C662 H653 0.929 . S
C662 C654 1.378 . S
C662 C657 1.350 . S
C663 H650 0.929 . S
C663 C655 1.433 . S
C663 N665 1.384 . S
N664 C660 1.427 . S
N664 C661 1.384 . S
N665 C657 1.427 . S
N665 C663 1.384 . S
H666 C672 0.907 1_655 S
H667 C676 0.930 . S
H668 C681 0.929 . S
H669 C679 0.929 . S
H670 C674 0.929 . S
H671 C680 0.951 . S
C672 H666 0.907 1_455 S
C672 C673 1.379 . S
C672 C680 1.414 1_455 S
C673 C672 1.379 . S
C673 C681 1.433 . S
C674 H670 0.929 . S
C674 C676 1.378 . S
C674 C678 1.350 . S
C675 C678 1.463 . S
C675 C680 1.308 1_455 S
C675 N683 1.427 . S
C676 H667 0.930 . S
C676 C674 1.378 . S
C676 C677 1.367 . S
C677 C676 1.367 . S
C677 C679 1.432 1_455 S
C678 C674 1.350 . S
C678 C675 1.463 . S
C678 N682 1.427 1_455 S
C679 H669 0.929 . S
C679 C677 1.432 1_655 S
C679 N682 1.384 . S
C680 H671 0.951 . S
C680 C672 1.414 1_655 S
C680 C675 1.308 1_655 S
C681 H668 0.929 . S
C681 C673 1.433 . S
C681 N683 1.384 . S
N682 C678 1.427 1_655 S
N682 C679 1.384 . S
N683 C675 1.427 . S
N683 C681 1.384 . S
H684 C690 0.930 . S
H685 C694 0.930 . S
H686 C699 0.929 . S
H687 C697 0.929 . S
H688 C692 0.929 . S
H689 C698 0.929 . S
C690 H684 0.930 . S
C690 C691 1.367 . S
C690 C698 1.378 . S
C691 C690 1.367 . S
C691 C699 1.433 . S
C692 H688 0.929 . S
C692 C694 1.378 . S
C692 C696 1.350 . S
C693 C696 1.463 . S
C693 C698 1.350 . S
C693 N701 1.427 . S
C694 H685 0.930 . S
C694 C692 1.378 . S
C694 C695 1.367 . S
C695 C694 1.367 . S
C695 C697 1.433 . S
C696 C692 1.350 . S
C696 C693 1.463 . S
C696 N700 1.427 . S
C697 H687 0.929 . S
C697 C695 1.433 . S
C697 N700 1.384 . S
C698 H689 0.929 . S
C698 C690 1.378 . S
C698 C693 1.350 . S
C699 H686 0.929 . S
C699 C691 1.433 . S
C699 N701 1.384 . S
N700 C696 1.427 . S
N700 C697 1.384 . S
N701 C693 1.427 . S
N701 C699 1.384 . S
H702 C708 0.930 . S
H703 C712 0.930 . S
H704 C717 0.935 . S
H705 C715 0.929 . S
H706 C710 0.929 . S
H707 C716 0.929 . S
C708 H702 0.930 . S
C708 C709 1.367 . S
C708 C716 1.378 . S
C709 C708 1.367 . S
C709 C717 1.417 1_565 S
C710 H706 0.929 . S
C710 C712 1.378 . S
C710 C714 1.350 1_545 S
C711 C714 1.463 . S
C711 C716 1.350 . S
C711 N719 1.427 1_565 S
C712 H703 0.930 . S
C712 C710 1.378 . S
C712 C713 1.362 1_545 S
C713 C712 1.362 1_565 S
C713 C715 1.446 . S
C714 C710 1.350 1_565 S
C714 C711 1.463 . S
C714 N718 1.427 . S
C715 H705 0.929 . S
C715 C713 1.446 . S
C715 N718 1.384 . S
C716 H707 0.929 . S
C716 C708 1.378 . S
C716 C711 1.350 . S
C717 H704 0.935 . S
C717 C709 1.417 1_545 S
C717 N719 1.395 . S
N718 C714 1.427 . S
N718 C715 1.384 . S
N719 C711 1.427 1_545 S
N719 C717 1.395 . S
H720 C726 0.930 . S
H721 C730 0.930 . S
H722 C735 0.929 . S
H723 C733 0.929 . S
H724 C728 0.929 . S
H725 C734 0.929 . S
C726 H720 0.930 . S
C726 C727 1.367 1_565 S
C726 C734 1.378 . S
C727 C726 1.367 1_545 S
C727 C735 1.433 . S
C728 H724 0.929 . S
C728 C730 1.378 . S
C728 C732 1.350 . S
C729 C732 1.463 . S
C729 C734 1.350 1_545 S
C729 N737 1.427 . S
C730 H721 0.930 . S
C730 C728 1.378 . S
C730 C731 1.396 . S
C731 C730 1.396 . S
C731 C733 1.389 1_545 S
C732 C728 1.350 . S
C732 C729 1.463 . S
C732 N736 1.427 1_545 S
C733 H723 0.929 . S
C733 C731 1.389 1_565 S
C733 N736 1.384 . S
C734 H725 0.929 . S
C734 C726 1.378 . S
C734 C729 1.350 1_565 S
C735 H722 0.929 . S
C735 C727 1.433 . S
C735 N737 1.384 . S
N736 C732 1.427 1_565 S
N736 C733 1.384 . S
N737 C729 1.427 . S
N737 C735 1.384 . S
H738 C744 0.930 . S
H739 C748 0.930 . S
H740 C753 0.929 . S
H741 C751 0.929 . S
H742 C746 0.929 . S
H743 C752 0.929 . S
C744 H738 0.930 . S
C744 C745 1.367 . S
C744 C752 1.378 . S
C745 C744 1.367 . S
C745 C753 1.433 1_655 S
C746 H742 0.929 . S
C746 C748 1.378 . S
C746 C750 1.350 1_455 S
C747 C750 1.463 . S
C747 C752 1.350 . S
C747 N755 1.427 1_655 S
C748 H739 0.930 . S
C748 C746 1.378 . S
C748 C749 1.363 1_455 S
C749 C748 1.363 1_655 S
C749 C751 1.440 . S
C750 C746 1.350 1_655 S
C750 C747 1.463 . S
C750 N754 1.427 . S
C751 H741 0.929 . S
C751 C749 1.440 . S
C751 N754 1.384 . S
C752 H743 0.929 . S
C752 C744 1.378 . S
C752 C747 1.350 . S
C753 H740 0.929 . S
C753 C745 1.433 1_455 S
C753 N755 1.384 . S
N754 C750 1.427 . S
N754 C751 1.384 . S
N755 C747 1.427 1_455 S
N755 C753 1.384 . S
H756 C762 0.930 . S
H757 C766 0.930 . S
H758 C771 0.929 . S
H759 C769 0.929 . S
H760 C764 0.929 . S
H761 C770 0.929 . S
C762 H756 0.930 . S
C762 C763 1.367 . S
C762 C770 1.378 . S
C763 C762 1.367 . S
C763 C771 1.433 . S
C764 H760 0.929 . S
C764 C766 1.378 . S
C764 C768 1.350 . S
C765 C768 1.463 . S
C765 C770 1.350 . S
C765 N773 1.427 . S
C766 H757 0.930 . S
C766 C764 1.378 . S
C766 C767 1.367 . S
C767 C766 1.367 . S
C767 C769 1.433 . S
C768 C764 1.350 . S
C768 C765 1.463 . S
C768 N772 1.427 . S
C769 H759 0.929 . S
C769 C767 1.433 . S
C769 N772 1.384 . S
C770 H761 0.929 . S
C770 C762 1.378 . S
C770 C765 1.350 . S
C771 H758 0.929 . S
C771 C763 1.433 . S
C771 N773 1.384 . S
N772 C768 1.427 . S
N772 C769 1.384 . S
N773 C765 1.427 . S
N773 C771 1.384 . S
H774 C780 0.930 . S
H775 C784 0.930 . S
H776 C789 0.929 . S
H777 C787 0.929 . S
H778 C782 0.929 . S
H779 C788 0.929 . S
C780 H774 0.930 . S
C780 C781 1.367 . S
C780 C788 1.378 . S
C781 C780 1.367 . S
C781 C789 1.433 . S
C782 H778 0.929 . S
C782 C784 1.378 . S
C782 C786 1.350 . S
C783 C786 1.463 . S
C783 C788 1.350 . S
C783 N791 1.427 . S
C784 H775 0.930 . S
C784 C782 1.378 . S
C784 C785 1.367 . S
C785 C784 1.367 . S
C785 C787 1.433 . S
C786 C782 1.350 . S
C786 C783 1.463 . S
C786 N790 1.427 . S
C787 H777 0.929 . S
C787 C785 1.433 . S
C787 N790 1.384 . S
C788 H779 0.929 . S
C788 C780 1.378 . S
C788 C783 1.350 . S
C789 H776 0.929 . S
C789 C781 1.433 . S
C789 N791 1.384 . S
N790 C786 1.427 . S
N790 C787 1.384 . S
N791 C783 1.427 . S
N791 C789 1.384 . S
H792 C798 0.930 . S
H793 C802 0.930 . S
H794 C807 0.929 . S
H795 C805 0.929 . S
H796 C800 0.929 . S
H797 C806 0.929 . S
C798 H792 0.930 . S
C798 C799 1.367 . S
C798 C806 1.378 . S
C799 C798 1.367 . S
C799 C807 1.433 . S
C800 H796 0.929 . S
C800 C802 1.378 . S
C800 C804 1.350 . S
C801 C804 1.463 . S
C801 C806 1.350 . S
C801 N809 1.427 . S
C802 H793 0.930 . S
C802 C800 1.378 . S
C802 C803 1.367 . S
C803 C802 1.367 . S
C803 C805 1.433 . S
C804 C800 1.350 . S
C804 C801 1.463 . S
C804 N808 1.427 . S
C805 H795 0.929 . S
C805 C803 1.433 . S
C805 N808 1.384 . S
C806 H797 0.929 . S
C806 C798 1.378 . S
C806 C801 1.350 . S
C807 H794 0.929 . S
C807 C799 1.433 . S
C807 N809 1.384 . S
N808 C804 1.427 . S
N808 C805 1.384 . S
N809 C801 1.427 . S
N809 C807 1.384 . S
H810 C816 0.930 . S
H811 C820 0.930 . S
H812 C825 0.929 . S
H813 C823 0.929 . S
H814 C818 0.929 . S
H815 C824 0.929 . S
C816 H810 0.930 . S
C816 C817 1.367 . S
C816 C824 1.378 . S
C817 C816 1.367 . S
C817 C825 1.433 . S
C818 H814 0.929 . S
C818 C820 1.378 . S
C818 C822 1.350 . S
C819 C822 1.463 . S
C819 C824 1.350 . S
C819 N827 1.427 . S
C820 H811 0.930 . S
C820 C818 1.378 . S
C820 C821 1.367 . S
C821 C820 1.367 . S
C821 C823 1.433 . S
C822 C818 1.350 . S
C822 C819 1.463 . S
C822 N826 1.427 . S
C823 H813 0.929 . S
C823 C821 1.433 . S
C823 N826 1.384 . S
C824 H815 0.929 . S
C824 C816 1.378 . S
C824 C819 1.350 . S
C825 H812 0.929 . S
C825 C817 1.433 . S
C825 N827 1.384 . S
N826 C822 1.427 . S
N826 C823 1.384 . S
N827 C819 1.427 . S
N827 C825 1.384 . S
H828 C834 0.930 . S
H829 C838 0.930 . S
H830 C843 0.929 . S
H831 C841 0.929 . S
H832 C836 0.929 . S
H833 C842 0.929 . S
C834 H828 0.930 . S
C834 C835 1.367 . S
C834 C842 1.378 . S
C835 C834 1.367 . S
C835 C843 1.433 . S
C836 H832 0.929 . S
C836 C838 1.378 . S
C836 C840 1.350 . S
C837 C840 1.463 . S
C837 C842 1.350 . S
C837 N845 1.427 . S
C838 H829 0.930 . S
C838 C836 1.378 . S
C838 C839 1.367 . S
C839 C838 1.367 . S
C839 C841 1.433 . S
C840 C836 1.350 . S
C840 C837 1.463 . S
C840 N844 1.427 . S
C841 H831 0.929 . S
C841 C839 1.433 . S
C841 N844 1.384 . S
C842 H833 0.929 . S
C842 C834 1.378 . S
C842 C837 1.350 . S
C843 H830 0.929 . S
C843 C835 1.433 . S
C843 N845 1.384 . S
N844 C840 1.427 . S
N844 C841 1.384 . S
N845 C837 1.427 . S
N845 C843 1.384 . S
H846 C852 0.930 . S
H847 C856 0.930 . S
H848 C861 0.929 . S
H849 C859 0.929 . S
H850 C854 0.929 . S
H851 C860 0.929 . S
C852 H846 0.930 . S
C852 C853 1.367 . S
C852 C860 1.378 . S
C853 C852 1.367 . S
C853 C861 1.433 . S
C854 H850 0.929 . S
C854 C856 1.378 . S
C854 C858 1.350 . S
C855 C858 1.463 . S
C855 C860 1.350 . S
C855 N863 1.427 . S
C856 H847 0.930 . S
C856 C854 1.378 . S
C856 C857 1.367 . S
C857 C856 1.367 . S
C857 C859 1.433 . S
C858 C854 1.350 . S
C858 C855 1.463 . S
C858 N862 1.427 . S
C859 H849 0.929 . S
C859 C857 1.433 . S
C859 N862 1.384 . S
C860 H851 0.929 . S
C860 C852 1.378 . S
C860 C855 1.350 . S
C861 H848 0.929 . S
C861 C853 1.433 . S
C861 N863 1.384 . S
N862 C858 1.427 . S
N862 C859 1.384 . S
N863 C855 1.427 . S
N863 C861 1.384 . S
H864 C870 0.930 . S
H865 C874 0.930 . S
H866 C879 0.929 . S
H867 C877 0.929 . S
H868 C872 0.929 . S
H869 C878 0.929 . S
C870 H864 0.930 . S
C870 C871 1.367 . S
C870 C878 1.378 . S
C871 C870 1.367 . S
C871 C879 1.433 . S
C872 H868 0.929 . S
C872 C874 1.378 . S
C872 C876 1.350 . S
C873 C876 1.463 . S
C873 C878 1.350 . S
C873 N881 1.427 . S
C874 H865 0.930 . S
C874 C872 1.378 . S
C874 C875 1.367 . S
C875 C874 1.367 . S
C875 C877 1.433 . S
C876 C872 1.350 . S
C876 C873 1.463 . S
C876 N880 1.427 . S
C877 H867 0.929 . S
C877 C875 1.433 . S
C877 N880 1.384 . S
C878 H869 0.929 . S
C878 C870 1.378 . S
C878 C873 1.350 . S
C879 H866 0.929 . S
C879 C871 1.433 . S
C879 N881 1.384 . S
N880 C876 1.427 . S
N880 C877 1.384 . S
N881 C873 1.427 . S
N881 C879 1.384 . S
H882 C888 0.930 . S
H883 C892 0.930 . S
H884 C897 0.929 . S
H885 C895 0.929 . S
H886 C890 0.929 . S
H887 C896 0.929 . S
C888 H882 0.930 . S
C888 C889 1.367 . S
C888 C896 1.378 . S
C889 C888 1.367 . S
C889 C897 1.433 . S
C890 H886 0.929 . S
C890 C892 1.378 . S
C890 C894 1.350 . S
C891 C894 1.463 . S
C891 C896 1.350 . S
C891 N899 1.427 . S
C892 H883 0.930 . S
C892 C890 1.378 . S
C892 C893 1.367 . S
C893 C892 1.367 . S
C893 C895 1.433 . S
C894 C890 1.350 . S
C894 C891 1.463 . S
C894 N898 1.427 . S
C895 H885 0.929 . S
C895 C893 1.433 . S
C895 N898 1.384 . S
C896 H887 0.929 . S
C896 C888 1.378 . S
C896 C891 1.350 . S
C897 H884 0.929 . S
C897 C889 1.433 . S
C897 N899 1.384 . S
N898 C894 1.427 . S
N898 C895 1.384 . S
N899 C891 1.427 . S
N899 C897 1.384 . S
H900 C906 0.930 . S
H901 C910 0.930 . S
H902 C915 0.929 . S
H903 C913 0.929 . S
H904 C908 0.929 . S
H905 C914 0.929 . S
C906 H900 0.930 . S
C906 C907 1.367 . S
C906 C914 1.378 . S
C907 C906 1.367 . S
C907 C915 1.433 . S
C908 H904 0.929 . S
C908 C910 1.378 . S
C908 C912 1.350 . S
C909 C912 1.463 . S
C909 C914 1.350 . S
C909 N917 1.427 . S
C910 H901 0.930 . S
C910 C908 1.378 . S
C910 C911 1.367 . S
C911 C910 1.367 . S
C911 C913 1.433 . S
C912 C908 1.350 . S
C912 C909 1.463 . S
C912 N916 1.427 . S
C913 H903 0.929 . S
C913 C911 1.433 . S
C913 N916 1.384 . S
C914 H905 0.929 . S
C914 C906 1.378 . S
C914 C909 1.350 . S
C915 H902 0.929 . S
C915 C907 1.433 . S
C915 N917 1.384 . S
N916 C912 1.427 . S
N916 C913 1.384 . S
N917 C909 1.427 . S
N917 C915 1.384 . S
H918 C924 0.930 . S
H919 C928 0.930 . S
H920 C933 0.929 . S
H921 C931 0.929 . S
H922 C926 0.929 . S
H923 C932 0.929 . S
C924 H918 0.930 . S
C924 C925 1.367 . S
C924 C932 1.378 . S
C925 C924 1.367 . S
C925 C933 1.433 . S
C926 H922 0.929 . S
C926 C928 1.378 . S
C926 C930 1.350 . S
C927 C930 1.463 . S
C927 C932 1.350 . S
C927 N935 1.427 . S
C928 H919 0.930 . S
C928 C926 1.378 . S
C928 C929 1.367 . S
C929 C928 1.367 . S
C929 C931 1.433 . S
C930 C926 1.350 . S
C930 C927 1.463 . S
C930 N934 1.427 . S
C931 H921 0.929 . S
C931 C929 1.433 . S
C931 N934 1.384 . S
C932 H923 0.929 . S
C932 C924 1.378 . S
C932 C927 1.350 . S
C933 H920 0.929 . S
C933 C925 1.433 . S
C933 N935 1.384 . S
N934 C930 1.427 . S
N934 C931 1.384 . S
N935 C927 1.427 . S
N935 C933 1.384 . S
H936 C942 0.930 . S
H937 C946 0.930 . S
H938 C951 0.929 . S
H939 C949 0.929 . S
H940 C944 0.929 . S
H941 C950 0.929 . S
C942 H936 0.930 . S
C942 C943 1.367 . S
C942 C950 1.378 . S
C943 C942 1.367 . S
C943 C951 1.433 . S
C944 H940 0.929 . S
C944 C946 1.378 . S
C944 C948 1.350 . S
C945 C948 1.463 . S
C945 C950 1.350 . S
C945 N953 1.427 . S
C946 H937 0.930 . S
C946 C944 1.378 . S
C946 C947 1.367 . S
C947 C946 1.367 . S
C947 C949 1.433 . S
C948 C944 1.350 . S
C948 C945 1.463 . S
C948 N952 1.427 . S
C949 H939 0.929 . S
C949 C947 1.433 . S
C949 N952 1.384 . S
C950 H941 0.929 . S
C950 C942 1.378 . S
C950 C945 1.350 . S
C951 H938 0.929 . S
C951 C943 1.433 . S
C951 N953 1.384 . S
N952 C948 1.427 . S
N952 C949 1.384 . S
N953 C945 1.427 . S
N953 C951 1.384 . S
H954 C960 0.930 . S
H955 C964 0.930 . S
H956 C969 0.929 . S
H957 C967 0.929 . S
H958 C962 0.929 . S
H959 C968 0.929 . S
C960 H954 0.930 . S
C960 C961 1.367 . S
C960 C968 1.378 . S
C961 C960 1.367 . S
C961 C969 1.433 . S
C962 H958 0.929 . S
C962 C964 1.378 . S
C962 C966 1.350 . S
C963 C966 1.463 . S
C963 C968 1.350 . S
C963 N971 1.427 . S
C964 H955 0.930 . S
C964 C962 1.378 . S
C964 C965 1.367 . S
C965 C964 1.367 . S
C965 C967 1.433 . S
C966 C962 1.350 . S
C966 C963 1.463 . S
C966 N970 1.427 . S
C967 H957 0.929 . S
C967 C965 1.433 . S
C967 N970 1.384 . S
C968 H959 0.929 . S
C968 C960 1.378 . S
C968 C963 1.350 . S
C969 H956 0.929 . S
C969 C961 1.433 . S
C969 N971 1.384 . S
N970 C966 1.427 . S
N970 C967 1.384 . S
N971 C963 1.427 . S
N971 C969 1.384 . S
H972 C978 0.930 . S
H973 C982 0.930 . S
H974 C987 0.929 . S
H975 C985 0.929 . S
H976 C980 0.929 . S
H977 C986 0.929 . S
C978 H972 0.930 . S
C978 C979 1.367 . S
C978 C986 1.378 . S
C979 C978 1.367 . S
C979 C987 1.433 . S
C980 H976 0.929 . S
C980 C982 1.378 . S
C980 C984 1.350 . S
C981 C984 1.463 . S
C981 C986 1.350 . S
C981 N989 1.427 . S
C982 H973 0.930 . S
C982 C980 1.378 . S
C982 C983 1.367 . S
C983 C982 1.367 . S
C983 C985 1.433 . S
C984 C980 1.350 . S
C984 C981 1.463 . S
C984 N988 1.427 . S
C985 H975 0.929 . S
C985 C983 1.433 . S
C985 N988 1.384 . S
C986 H977 0.929 . S
C986 C978 1.378 . S
C986 C981 1.350 . S
C987 H974 0.929 . S
C987 C979 1.433 . S
C987 N989 1.384 . S
N988 C984 1.427 . S
N988 C985 1.384 . S
N989 C981 1.427 . S
N989 C987 1.384 . S
H990 C996 0.930 . S
H991 C1000 0.930 . S
H992 C1005 0.929 . S
H993 C1003 0.929 . S
H994 C998 0.929 . S
H995 C1004 0.929 . S
C996 H990 0.930 . S
C996 C997 1.367 . S
C996 C1004 1.378 . S
C997 C996 1.367 . S
C997 C1005 1.433 . S
C998 H994 0.929 . S
C998 C1000 1.378 . S
C998 C1002 1.350 . S
C999 C1002 1.463 . S
C999 C1004 1.350 . S
C999 N1007 1.427 . S
C1000 H991 0.930 . S
C1000 C998 1.378 . S
C1000 C1001 1.367 . S
C1001 C1000 1.367 . S
C1001 C1003 1.433 . S
C1002 C998 1.350 . S
C1002 C999 1.463 . S
C1002 N1006 1.427 . S
C1003 H993 0.929 . S
C1003 C1001 1.433 . S
C1003 N1006 1.384 . S
C1004 H995 0.929 . S
C1004 C996 1.378 . S
C1004 C999 1.350 . S
C1005 H992 0.929 . S
C1005 C997 1.433 . S
C1005 N1007 1.384 . S
N1006 C1002 1.427 . S
N1006 C1003 1.384 . S
N1007 C999 1.427 . S
N1007 C1005 1.384 . S
H1008 C1014 0.930 . S
H1009 C1018 0.930 . S
H1010 C1023 0.929 . S
H1011 C1021 0.929 . S
H1012 C1016 0.929 . S
H1013 C1022 0.929 . S
C1014 H1008 0.930 . S
C1014 C1015 1.367 . S
C1014 C1022 1.378 . S
C1015 C1014 1.367 . S
C1015 C1023 1.433 . S
C1016 H1012 0.929 . S
C1016 C1018 1.378 . S
C1016 C1020 1.350 . S
C1017 C1020 1.463 . S
C1017 C1022 1.350 . S
C1017 N1025 1.427 . S
C1018 H1009 0.930 . S
C1018 C1016 1.378 . S
C1018 C1019 1.367 . S
C1019 C1018 1.367 . S
C1019 C1021 1.433 . S
C1020 C1016 1.350 . S
C1020 C1017 1.463 . S
C1020 N1024 1.427 . S
C1021 H1011 0.929 . S
C1021 C1019 1.433 . S
C1021 N1024 1.384 . S
C1022 H1013 0.929 . S
C1022 C1014 1.378 . S
C1022 C1017 1.350 . S
C1023 H1010 0.929 . S
C1023 C1015 1.433 . S
C1023 N1025 1.384 . S
N1024 C1020 1.427 . S
N1024 C1021 1.384 . S
N1025 C1017 1.427 . S
N1025 C1023 1.384 . S
H1026 C1032 0.930 . S
H1027 C1036 0.930 . S
H1028 C1041 0.929 . S
H1029 C1039 0.929 . S
H1030 C1034 0.929 . S
H1031 C1040 0.929 . S
C1032 H1026 0.930 . S
C1032 C1033 1.367 . S
C1032 C1040 1.378 . S
C1033 C1032 1.367 . S
C1033 C1041 1.433 . S
C1034 H1030 0.929 . S
C1034 C1036 1.378 . S
C1034 C1038 1.350 . S
C1035 C1038 1.463 . S
C1035 C1040 1.350 . S
C1035 N1043 1.427 . S
C1036 H1027 0.930 . S
C1036 C1034 1.378 . S
C1036 C1037 1.367 . S
C1037 C1036 1.367 . S
C1037 C1039 1.433 . S
C1038 C1034 1.350 . S
C1038 C1035 1.463 . S
C1038 N1042 1.427 . S
C1039 H1029 0.929 . S
C1039 C1037 1.433 . S
C1039 N1042 1.384 . S
C1040 H1031 0.929 . S
C1040 C1032 1.378 . S
C1040 C1035 1.350 . S
C1041 H1028 0.929 . S
C1041 C1033 1.433 . S
C1041 N1043 1.384 . S
N1042 C1038 1.427 . S
N1042 C1039 1.384 . S
N1043 C1035 1.427 . S
N1043 C1041 1.384 . S
H1044 C1050 0.930 . S
H1045 C1054 0.930 . S
H1046 C1059 0.929 . S
H1047 C1057 0.929 . S
H1048 C1052 0.929 . S
H1049 C1058 0.929 . S
C1050 H1044 0.930 . S
C1050 C1051 1.367 . S
C1050 C1058 1.378 . S
C1051 C1050 1.367 . S
C1051 C1059 1.433 . S
C1052 H1048 0.929 . S
C1052 C1054 1.378 . S
C1052 C1056 1.350 . S
C1053 C1056 1.463 . S
C1053 C1058 1.350 . S
C1053 N1061 1.427 . S
C1054 H1045 0.930 . S
C1054 C1052 1.378 . S
C1054 C1055 1.367 . S
C1055 C1054 1.367 . S
C1055 C1057 1.433 . S
C1056 C1052 1.350 . S
C1056 C1053 1.463 . S
C1056 N1060 1.427 . S
C1057 H1047 0.929 . S
C1057 C1055 1.433 . S
C1057 N1060 1.384 . S
C1058 H1049 0.929 . S
C1058 C1050 1.378 . S
C1058 C1053 1.350 . S
C1059 H1046 0.929 . S
C1059 C1051 1.433 . S
C1059 N1061 1.384 . S
N1060 C1056 1.427 . S
N1060 C1057 1.384 . S
N1061 C1053 1.427 . S
N1061 C1059 1.384 . S
H1062 C1068 0.930 . S
H1063 C1072 0.930 . S
H1064 C1077 0.929 . S
H1065 C1075 0.929 . S
H1066 C1070 0.929 . S
H1067 C1076 0.929 . S
C1068 H1062 0.930 . S
C1068 C1069 1.367 . S
C1068 C1076 1.378 . S
C1069 C1068 1.367 . S
C1069 C1077 1.433 . S
C1070 H1066 0.929 . S
C1070 C1072 1.378 . S
C1070 C1074 1.350 . S
C1071 C1074 1.463 . S
C1071 C1076 1.350 . S
C1071 N1079 1.427 . S
C1072 H1063 0.930 . S
C1072 C1070 1.378 . S
C1072 C1073 1.367 . S
C1073 C1072 1.367 . S
C1073 C1075 1.433 . S
C1074 C1070 1.350 . S
C1074 C1071 1.463 . S
C1074 N1078 1.427 . S
C1075 H1065 0.929 . S
C1075 C1073 1.433 . S
C1075 N1078 1.384 . S
C1076 H1067 0.929 . S
C1076 C1068 1.378 . S
C1076 C1071 1.350 . S
C1077 H1064 0.929 . S
C1077 C1069 1.433 . S
C1077 N1079 1.384 . S
N1078 C1074 1.427 . S
N1078 C1075 1.384 . S
N1079 C1071 1.427 . S
N1079 C1077 1.384 . S
H1080 C1086 0.930 . S
H1081 C1090 0.930 . S
H1082 C1095 0.929 . S
H1083 C1093 0.929 . S
H1084 C1088 0.929 . S
H1085 C1094 0.929 . S
C1086 H1080 0.930 . S
C1086 C1087 1.367 . S
C1086 C1094 1.378 . S
C1087 C1086 1.367 . S
C1087 C1095 1.433 . S
C1088 H1084 0.929 . S
C1088 C1090 1.378 . S
C1088 C1092 1.350 . S
C1089 C1092 1.463 . S
C1089 C1094 1.350 . S
C1089 N1097 1.427 . S
C1090 H1081 0.930 . S
C1090 C1088 1.378 . S
C1090 C1091 1.367 . S
C1091 C1090 1.367 . S
C1091 C1093 1.433 . S
C1092 C1088 1.350 . S
C1092 C1089 1.463 . S
C1092 N1096 1.427 . S
C1093 H1083 0.929 . S
C1093 C1091 1.433 . S
C1093 N1096 1.384 . S
C1094 H1085 0.929 . S
C1094 C1086 1.378 . S
C1094 C1089 1.350 . S
C1095 H1082 0.929 . S
C1095 C1087 1.433 . S
C1095 N1097 1.384 . S
N1096 C1092 1.427 . S
N1096 C1093 1.384 . S
N1097 C1089 1.427 . S
N1097 C1095 1.384 . S
H1098 C1104 0.930 . S
H1099 C1108 0.930 . S
H1100 C1113 0.929 . S
H1101 C1111 0.929 . S
H1102 C1106 0.929 . S
H1103 C1112 0.929 . S
C1104 H1098 0.930 . S
C1104 C1105 1.367 . S
C1104 C1112 1.378 . S
C1105 C1104 1.367 . S
C1105 C1113 1.433 . S
C1106 H1102 0.929 . S
C1106 C1108 1.378 . S
C1106 C1110 1.350 . S
C1107 C1110 1.463 . S
C1107 C1112 1.350 . S
C1107 N1115 1.427 . S
C1108 H1099 0.930 . S
C1108 C1106 1.378 . S
C1108 C1109 1.367 . S
C1109 C1108 1.367 . S
C1109 C1111 1.433 . S
C1110 C1106 1.350 . S
C1110 C1107 1.463 . S
C1110 N1114 1.427 . S
C1111 H1101 0.929 . S
C1111 C1109 1.433 . S
C1111 N1114 1.384 . S
C1112 H1103 0.929 . S
C1112 C1104 1.378 . S
C1112 C1107 1.350 . S
C1113 H1100 0.929 . S
C1113 C1105 1.433 . S
C1113 N1115 1.384 . S
N1114 C1110 1.427 . S
N1114 C1111 1.384 . S
N1115 C1107 1.427 . S
N1115 C1113 1.384 . S
H1116 C1122 0.930 . S
H1117 C1126 0.930 . S
H1118 C1131 0.929 . S
H1119 C1129 0.929 . S
H1120 C1124 0.929 . S
H1121 C1130 0.929 . S
C1122 H1116 0.930 . S
C1122 C1123 1.367 . S
C1122 C1130 1.378 . S
C1123 C1122 1.367 . S
C1123 C1131 1.433 . S
C1124 H1120 0.929 . S
C1124 C1126 1.378 . S
C1124 C1128 1.350 . S
C1125 C1128 1.463 . S
C1125 C1130 1.350 . S
C1125 N1133 1.427 . S
C1126 H1117 0.930 . S
C1126 C1124 1.378 . S
C1126 C1127 1.367 . S
C1127 C1126 1.367 . S
C1127 C1129 1.433 . S
C1128 C1124 1.350 . S
C1128 C1125 1.463 . S
C1128 N1132 1.427 . S
C1129 H1119 0.929 . S
C1129 C1127 1.433 . S
C1129 N1132 1.384 . S
C1130 H1121 0.929 . S
C1130 C1122 1.378 . S
C1130 C1125 1.350 . S
C1131 H1118 0.929 . S
C1131 C1123 1.433 . S
C1131 N1133 1.384 . S
N1132 C1128 1.427 . S
N1132 C1129 1.384 . S
N1133 C1125 1.427 . S
N1133 C1131 1.384 . S
H1134 C1140 0.930 . S
H1135 C1144 0.930 . S
H1136 C1149 0.929 . S
H1137 C1147 0.929 . S
H1138 C1142 0.929 . S
H1139 C1148 0.929 . S
C1140 H1134 0.930 . S
C1140 C1141 1.367 . S
C1140 C1148 1.378 . S
C1141 C1140 1.367 . S
C1141 C1149 1.433 . S
C1142 H1138 0.929 . S
C1142 C1144 1.378 . S
C1142 C1146 1.350 . S
C1143 C1146 1.463 . S
C1143 C1148 1.350 . S
C1143 N1151 1.427 . S
C1144 H1135 0.930 . S
C1144 C1142 1.378 . S
C1144 C1145 1.367 . S
C1145 C1144 1.367 . S
C1145 C1147 1.433 . S
C1146 C1142 1.350 . S
C1146 C1143 1.463 . S
C1146 N1150 1.427 . S
C1147 H1137 0.929 . S
C1147 C1145 1.433 . S
C1147 N1150 1.384 . S
C1148 H1139 0.929 . S
C1148 C1140 1.378 . S
C1148 C1143 1.350 . S
C1149 H1136 0.929 . S
C1149 C1141 1.433 . S
C1149 N1151 1.384 . S
N1150 C1146 1.427 . S
N1150 C1147 1.384 . S
N1151 C1143 1.427 . S
N1151 C1149 1.384 . S
H1152 C1158 0.930 . S
H1153 C1162 0.930 . S
H1154 C1167 0.929 . S
H1155 C1165 0.929 . S
H1156 C1160 0.929 . S
H1157 C1166 0.929 . S
C1158 H1152 0.930 . S
C1158 C1159 1.367 . S
C1158 C1166 1.378 . S
C1159 C1158 1.367 . S
C1159 C1167 1.433 . S
C1160 H1156 0.929 . S
C1160 C1162 1.378 . S
C1160 C1164 1.350 . S
C1161 C1164 1.463 . S
C1161 C1166 1.350 . S
C1161 N1169 1.427 . S
C1162 H1153 0.930 . S
C1162 C1160 1.378 . S
C1162 C1163 1.367 . S
C1163 C1162 1.367 . S
C1163 C1165 1.433 . S
C1164 C1160 1.350 . S
C1164 C1161 1.463 . S
C1164 N1168 1.427 . S
C1165 H1155 0.929 . S
C1165 C1163 1.433 . S
C1165 N1168 1.384 . S
C1166 H1157 0.929 . S
C1166 C1158 1.378 . S
C1166 C1161 1.350 . S
C1167 H1154 0.929 . S
C1167 C1159 1.433 . S
C1167 N1169 1.384 . S
N1168 C1164 1.427 . S
N1168 C1165 1.384 . S
N1169 C1161 1.427 . S
N1169 C1167 1.384 . S
H1170 C1176 0.930 . S
H1171 C1180 0.930 . S
H1172 C1185 0.929 . S
H1173 C1183 0.929 . S
H1174 C1178 0.929 . S
H1175 C1184 0.929 . S
C1176 H1170 0.930 . S
C1176 C1177 1.367 . S
C1176 C1184 1.378 . S
C1177 C1176 1.367 . S
C1177 C1185 1.433 . S
C1178 H1174 0.929 . S
C1178 C1180 1.378 . S
C1178 C1182 1.350 . S
C1179 C1182 1.463 . S
C1179 C1184 1.350 . S
C1179 N1187 1.427 . S
C1180 H1171 0.930 . S
C1180 C1178 1.378 . S
C1180 C1181 1.367 . S
C1181 C1180 1.367 . S
C1181 C1183 1.433 . S
C1182 C1178 1.350 . S
C1182 C1179 1.463 . S
C1182 N1186 1.427 . S
C1183 H1173 0.929 . S
C1183 C1181 1.433 . S
C1183 N1186 1.384 . S
C1184 H1175 0.929 . S
C1184 C1176 1.378 . S
C1184 C1179 1.350 . S
C1185 H1172 0.929 . S
C1185 C1177 1.433 . S
C1185 N1187 1.384 . S
N1186 C1182 1.427 . S
N1186 C1183 1.384 . S
N1187 C1179 1.427 . S
N1187 C1185 1.384 . S
H1188 C1194 0.930 . S
H1189 C1198 0.930 . S
H1190 C1203 0.929 . S
H1191 C1201 0.929 . S
H1192 C1196 0.929 . S
H1193 C1202 0.929 . S
C1194 H1188 0.930 . S
C1194 C1195 1.367 . S
C1194 C1202 1.378 . S
C1195 C1194 1.367 . S
C1195 C1203 1.433 . S
C1196 H1192 0.929 . S
C1196 C1198 1.378 . S
C1196 C1200 1.350 . S
C1197 C1200 1.463 . S
C1197 C1202 1.350 . S
C1197 N1205 1.427 . S
C1198 H1189 0.930 . S
C1198 C1196 1.378 . S
C1198 C1199 1.367 . S
C1199 C1198 1.367 . S
C1199 C1201 1.433 . S
C1200 C1196 1.350 . S
C1200 C1197 1.463 . S
C1200 N1204 1.427 . S
C1201 H1191 0.929 . S
C1201 C1199 1.433 . S
C1201 N1204 1.384 . S
C1202 H1193 0.929 . S
C1202 C1194 1.378 . S
C1202 C1197 1.350 . S
C1203 H1190 0.929 . S
C1203 C1195 1.433 . S
C1203 N1205 1.384 . S
N1204 C1200 1.427 . S
N1204 C1201 1.384 . S
N1205 C1197 1.427 . S
N1205 C1203 1.384 . S
H1206 C1212 0.930 1_556 S
H1207 C1216 0.930 . S
H1208 C1221 0.929 . S
H1209 C1219 0.929 . S
H1210 C1214 0.929 . S
H1211 C1220 0.929 . S
C1212 H1206 0.930 1_554 S
C1212 C1213 1.367 . S
C1212 C1220 1.378 . S
C1213 C1212 1.367 . S
C1213 C1221 1.433 . S
C1214 H1210 0.929 . S
C1214 C1216 1.378 . S
C1214 C1218 1.350 . S
C1215 C1218 1.463 . S
C1215 C1220 1.350 . S
C1215 N1223 1.427 . S
C1216 H1207 0.930 . S
C1216 C1214 1.378 . S
C1216 C1217 1.367 . S
C1217 C1216 1.367 . S
C1217 C1219 1.433 . S
C1218 C1214 1.350 . S
C1218 C1215 1.463 . S
C1218 N1222 1.427 . S
C1219 H1209 0.929 . S
C1219 C1217 1.433 . S
C1219 N1222 1.384 . S
C1220 H1211 0.929 . S
C1220 C1212 1.378 . S
C1220 C1215 1.350 . S
C1221 H1208 0.929 . S
C1221 C1213 1.433 . S
C1221 N1223 1.384 . S
N1222 C1218 1.427 . S
N1222 C1219 1.384 . S
N1223 C1215 1.427 . S
N1223 C1221 1.384 . S
H1224 C1230 0.930 . S
H1225 C1234 0.930 . S
H1226 C1239 0.929 . S
H1227 C1237 0.929 . S
H1228 C1232 0.929 . S
H1229 C1238 0.929 . S
C1230 H1224 0.930 . S
C1230 C1231 1.367 . S
C1230 C1238 1.378 . S
C1231 C1230 1.367 . S
C1231 C1239 1.433 . S
C1232 H1228 0.929 . S
C1232 C1234 1.378 . S
C1232 C1236 1.350 . S
C1233 C1236 1.463 . S
C1233 C1238 1.350 . S
C1233 N1241 1.427 . S
C1234 H1225 0.930 . S
C1234 C1232 1.378 . S
C1234 C1235 1.367 . S
C1235 C1234 1.367 . S
C1235 C1237 1.433 . S
C1236 C1232 1.350 . S
C1236 C1233 1.463 . S
C1236 N1240 1.427 . S
C1237 H1227 0.929 . S
C1237 C1235 1.433 . S
C1237 N1240 1.384 . S
C1238 H1229 0.929 . S
C1238 C1230 1.378 . S
C1238 C1233 1.350 . S
C1239 H1226 0.929 . S
C1239 C1231 1.433 . S
C1239 N1241 1.384 . S
N1240 C1236 1.427 . S
N1240 C1237 1.384 . S
N1241 C1233 1.427 . S
N1241 C1239 1.384 . S
H1242 C1248 0.930 . S
H1243 C1252 0.930 . S
H1244 C1257 0.929 . S
H1245 C1255 0.929 . S
H1246 C1250 0.929 . S
H1247 C1256 0.929 . S
C1248 H1242 0.930 . S
C1248 C1249 1.367 . S
C1248 C1256 1.378 . S
C1249 C1248 1.367 . S
C1249 C1257 1.433 . S
C1250 H1246 0.929 . S
C1250 C1252 1.378 . S
C1250 C1254 1.350 . S
C1251 C1254 1.463 . S
C1251 C1256 1.350 . S
C1251 N1259 1.427 . S
C1252 H1243 0.930 . S
C1252 C1250 1.378 . S
C1252 C1253 1.367 . S
C1253 C1252 1.367 . S
C1253 C1255 1.433 . S
C1254 C1250 1.350 . S
C1254 C1251 1.463 . S
C1254 N1258 1.427 . S
C1255 H1245 0.929 . S
C1255 C1253 1.433 . S
C1255 N1258 1.384 . S
C1256 H1247 0.929 . S
C1256 C1248 1.378 . S
C1256 C1251 1.350 . S
C1257 H1244 0.929 . S
C1257 C1249 1.433 . S
C1257 N1259 1.384 . S
N1258 C1254 1.427 . S
N1258 C1255 1.384 . S
N1259 C1251 1.427 . S
N1259 C1257 1.384 . S
H1260 C1266 0.930 . S
H1261 C1270 0.930 . S
H1262 C1275 0.936 . S
H1263 C1273 0.929 . S
H1264 C1268 0.929 . S
H1265 C1274 0.929 . S
C1266 H1260 0.930 . S
C1266 C1267 1.367 . S
C1266 C1274 1.378 . S
C1267 C1266 1.367 . S
C1267 C1275 1.430 1_556 S
C1268 H1264 0.929 . S
C1268 C1270 1.378 . S
C1268 C1272 1.350 . S
C1269 C1272 1.463 . S
C1269 C1274 1.350 . S
C1269 N1277 1.427 . S
C1270 H1261 0.930 . S
C1270 C1268 1.378 . S
C1270 C1271 1.367 . S
C1271 C1270 1.367 . S
C1271 C1273 1.433 . S
C1272 C1268 1.350 . S
C1272 C1269 1.463 . S
C1272 N1276 1.427 . S
C1273 H1263 0.929 . S
C1273 C1271 1.433 . S
C1273 N1276 1.384 . S
C1274 H1265 0.929 . S
C1274 C1266 1.378 . S
C1274 C1269 1.350 . S
C1275 H1262 0.936 . S
C1275 C1267 1.430 1_554 S
C1275 N1277 1.380 1_554 S
N1276 C1272 1.427 . S
N1276 C1273 1.384 . S
N1277 C1269 1.427 . S
N1277 C1275 1.380 1_556 S
H1278 C1284 0.930 . S
H1279 C1288 0.930 . S
H1280 C1293 0.929 . S
H1281 C1291 0.929 . S
H1282 C1286 0.929 . S
H1283 C1292 0.929 1_554 S
C1284 H1278 0.930 . S
C1284 C1285 1.367 1_554 S
C1284 C1292 1.378 1_554 S
C1285 C1284 1.367 1_556 S
C1285 C1293 1.433 . S
C1286 H1282 0.929 . S
C1286 C1288 1.378 . S
C1286 C1290 1.350 . S
C1287 C1290 1.463 . S
C1287 C1292 1.350 . S
C1287 N1295 1.427 . S
C1288 H1279 0.930 . S
C1288 C1286 1.378 . S
C1288 C1289 1.367 . S
C1289 C1288 1.367 . S
C1289 C1291 1.433 . S
C1290 C1286 1.350 . S
C1290 C1287 1.463 . S
C1290 N1294 1.427 . S
C1291 H1281 0.929 . S
C1291 C1289 1.433 . S
C1291 N1294 1.384 . S
C1292 H1283 0.929 1_556 S
C1292 C1284 1.378 1_556 S
C1292 C1287 1.350 . S
C1293 H1280 0.929 . S
C1293 C1285 1.433 . S
C1293 N1295 1.384 . S
N1294 C1290 1.427 . S
N1294 C1291 1.384 . S
N1295 C1287 1.427 . S
N1295 C1293 1.384 . S
H1296 C1302 0.930 1_554 S
H1297 C1306 0.930 . S
H1298 C1311 0.929 . S
H1299 C1309 0.929 . S
H1300 C1304 0.929 . S
H1301 C1310 0.929 . S
C1302 H1296 0.930 1_556 S
C1302 C1303 1.367 . S
C1302 C1310 1.378 . S
C1303 C1302 1.367 . S
C1303 C1311 1.433 . S
C1304 H1300 0.929 . S
C1304 C1306 1.378 . S
C1304 C1308 1.350 . S
C1305 C1308 1.463 . S
C1305 C1310 1.350 . S
C1305 N1313 1.427 . S
C1306 H1297 0.930 . S
C1306 C1304 1.378 . S
C1306 C1307 1.367 . S
C1307 C1306 1.367 . S
C1307 C1309 1.433 . S
C1308 C1304 1.350 . S
C1308 C1305 1.463 . S
C1308 N1312 1.427 . S
C1309 H1299 0.929 . S
C1309 C1307 1.433 . S
C1309 N1312 1.384 . S
C1310 H1301 0.929 . S
C1310 C1302 1.378 . S
C1310 C1305 1.350 . S
C1311 H1298 0.929 . S
C1311 C1303 1.433 . S
C1311 N1313 1.384 . S
N1312 C1308 1.427 . S
N1312 C1309 1.384 . S
N1313 C1305 1.427 . S
N1313 C1311 1.384 . S
H1314 C1320 0.930 . S
H1315 C1324 0.930 . S
H1316 C1329 0.929 . S
H1317 C1327 0.929 . S
H1318 C1322 0.929 . S
H1319 C1328 0.929 . S
C1320 H1314 0.930 . S
C1320 C1321 1.367 . S
C1320 C1328 1.378 . S
C1321 C1320 1.367 . S
C1321 C1329 1.433 . S
C1322 H1318 0.929 . S
C1322 C1324 1.378 . S
C1322 C1326 1.350 . S
C1323 C1326 1.463 . S
C1323 C1328 1.350 . S
C1323 N1331 1.427 . S
C1324 H1315 0.930 . S
C1324 C1322 1.378 . S
C1324 C1325 1.367 . S
C1325 C1324 1.367 . S
C1325 C1327 1.433 . S
C1326 C1322 1.350 . S
C1326 C1323 1.463 . S
C1326 N1330 1.427 . S
C1327 H1317 0.929 . S
C1327 C1325 1.433 . S
C1327 N1330 1.384 . S
C1328 H1319 0.929 . S
C1328 C1320 1.378 . S
C1328 C1323 1.350 . S
C1329 H1316 0.929 . S
C1329 C1321 1.433 . S
C1329 N1331 1.384 . S
N1330 C1326 1.427 . S
N1330 C1327 1.384 . S
N1331 C1323 1.427 . S
N1331 C1329 1.384 . S
H1332 C1338 0.930 . S
H1333 C1342 0.930 . S
H1334 C1347 0.929 . S
H1335 C1345 0.929 . S
H1336 C1340 0.929 . S
H1337 C1346 0.929 . S
C1338 H1332 0.930 . S
C1338 C1339 1.367 . S
C1338 C1346 1.378 . S
C1339 C1338 1.367 . S
C1339 C1347 1.433 . S
C1340 H1336 0.929 . S
C1340 C1342 1.378 . S
C1340 C1344 1.350 . S
C1341 C1344 1.463 . S
C1341 C1346 1.350 . S
C1341 N1349 1.427 . S
C1342 H1333 0.930 . S
C1342 C1340 1.378 . S
C1342 C1343 1.367 . S
C1343 C1342 1.367 . S
C1343 C1345 1.433 . S
C1344 C1340 1.350 . S
C1344 C1341 1.463 . S
C1344 N1348 1.427 . S
C1345 H1335 0.929 . S
C1345 C1343 1.433 . S
C1345 N1348 1.384 . S
C1346 H1337 0.929 . S
C1346 C1338 1.378 . S
C1346 C1341 1.350 . S
C1347 H1334 0.929 . S
C1347 C1339 1.433 . S
C1347 N1349 1.384 . S
N1348 C1344 1.427 . S
N1348 C1345 1.384 . S
N1349 C1341 1.427 . S
N1349 C1347 1.384 . S
H1350 C1356 0.930 . S
H1351 C1360 0.930 . S
H1352 C1365 0.929 . S
H1353 C1363 0.929 . S
H1354 C1358 0.929 . S
H1355 C1364 0.929 . S
C1356 H1350 0.930 . S
C1356 C1357 1.367 . S
C1356 C1364 1.378 . S
C1357 C1356 1.367 . S
C1357 C1365 1.433 1_556 S
C1358 H1354 0.929 . S
C1358 C1360 1.378 . S
C1358 C1362 1.350 . S
C1359 C1362 1.463 . S
C1359 C1364 1.350 . S
C1359 N1367 1.427 . S
C1360 H1351 0.930 . S
C1360 C1358 1.378 . S
C1360 C1361 1.367 . S
C1361 C1360 1.367 . S
C1361 C1363 1.433 . S
C1362 C1358 1.350 . S
C1362 C1359 1.463 . S
C1362 N1366 1.427 . S
C1363 H1353 0.929 . S
C1363 C1361 1.433 . S
C1363 N1366 1.384 . S
C1364 H1355 0.929 . S
C1364 C1356 1.378 . S
C1364 C1359 1.350 . S
C1365 H1352 0.929 . S
C1365 C1357 1.433 1_554 S
C1365 N1367 1.384 1_554 S
N1366 C1362 1.427 . S
N1366 C1363 1.384 . S
N1367 C1359 1.427 . S
N1367 C1365 1.384 1_556 S
H1368 C1374 0.930 . S
H1369 C1378 0.930 . S
H1370 C1383 0.929 . S
H1371 C1381 0.929 . S
H1372 C1376 0.929 . S
H1373 C1382 0.929 . S
C1374 H1368 0.930 . S
C1374 C1375 1.367 . S
C1374 C1382 1.378 . S
C1375 C1374 1.367 . S
C1375 C1383 1.433 . S
C1376 H1372 0.929 . S
C1376 C1378 1.378 . S
C1376 C1380 1.350 . S
C1377 C1380 1.463 . S
C1377 C1382 1.350 . S
C1377 N1385 1.427 . S
C1378 H1369 0.930 . S
C1378 C1376 1.378 . S
C1378 C1379 1.367 . S
C1379 C1378 1.367 . S
C1379 C1381 1.433 . S
C1380 C1376 1.350 . S
C1380 C1377 1.463 . S
C1380 N1384 1.427 . S
C1381 H1371 0.929 . S
C1381 C1379 1.433 . S
C1381 N1384 1.384 . S
C1382 H1373 0.929 . S
C1382 C1374 1.378 . S
C1382 C1377 1.350 . S
C1383 H1370 0.929 . S
C1383 C1375 1.433 . S
C1383 N1385 1.384 . S
N1384 C1380 1.427 . S
N1384 C1381 1.384 . S
N1385 C1377 1.427 . S
N1385 C1383 1.384 . S
H1386 C1392 0.930 . S
H1387 C1396 0.930 . S
H1388 C1401 0.929 1_556 S
H1389 C1399 0.929 . S
H1390 C1394 0.929 . S
H1391 C1400 0.929 . S
C1392 H1386 0.930 . S
C1392 C1393 1.367 . S
C1392 C1400 1.378 . S
C1393 C1392 1.367 . S
C1393 C1401 1.433 . S
C1394 H1390 0.929 . S
C1394 C1396 1.378 . S
C1394 C1398 1.350 . S
C1395 C1398 1.463 . S
C1395 C1400 1.350 . S
C1395 N1403 1.427 . S
C1396 H1387 0.930 . S
C1396 C1394 1.378 . S
C1396 C1397 1.367 . S
C1397 C1396 1.367 . S
C1397 C1399 1.433 . S
C1398 C1394 1.350 . S
C1398 C1395 1.463 . S
C1398 N1402 1.427 . S
C1399 H1389 0.929 . S
C1399 C1397 1.433 . S
C1399 N1402 1.384 . S
C1400 H1391 0.929 . S
C1400 C1392 1.378 . S
C1400 C1395 1.350 . S
C1401 H1388 0.929 1_554 S
C1401 C1393 1.433 . S
C1401 N1403 1.384 . S
N1402 C1398 1.427 . S
N1402 C1399 1.384 . S
N1403 C1395 1.427 . S
N1403 C1401 1.384 . S
H1404 C1410 0.930 . S
H1405 C1414 0.930 . S
H1406 C1419 0.929 . S
H1407 C1417 0.929 . S
H1408 C1412 0.929 . S
H1409 C1418 0.929 . S
C1410 H1404 0.930 . S
C1410 C1411 1.367 . S
C1410 C1418 1.378 . S
C1411 C1410 1.367 . S
C1411 C1419 1.433 . S
C1412 H1408 0.929 . S
C1412 C1414 1.378 . S
C1412 C1416 1.350 . S
C1413 C1416 1.463 . S
C1413 C1418 1.350 . S
C1413 N1421 1.427 . S
C1414 H1405 0.930 . S
C1414 C1412 1.378 . S
C1414 C1415 1.367 . S
C1415 C1414 1.367 . S
C1415 C1417 1.433 . S
C1416 C1412 1.350 . S
C1416 C1413 1.463 . S
C1416 N1420 1.427 . S
C1417 H1407 0.929 . S
C1417 C1415 1.433 . S
C1417 N1420 1.384 . S
C1418 H1409 0.929 . S
C1418 C1410 1.378 . S
C1418 C1413 1.350 . S
C1419 H1406 0.929 . S
C1419 C1411 1.433 . S
C1419 N1421 1.384 . S
N1420 C1416 1.427 . S
N1420 C1417 1.384 . S
N1421 C1413 1.427 . S
N1421 C1419 1.384 . S
H1422 C1428 0.930 . S
H1423 C1432 0.930 . S
H1424 C1437 0.929 . S
H1425 C1435 0.929 . S
H1426 C1430 0.929 . S
H1427 C1436 0.929 . S
C1428 H1422 0.930 . S
C1428 C1429 1.367 . S
C1428 C1436 1.378 . S
C1429 C1428 1.367 . S
C1429 C1437 1.433 . S
C1430 H1426 0.929 . S
C1430 C1432 1.378 . S
C1430 C1434 1.350 . S
C1431 C1434 1.463 . S
C1431 C1436 1.350 . S
C1431 N1439 1.427 . S
C1432 H1423 0.930 . S
C1432 C1430 1.378 . S
C1432 C1433 1.367 . S
C1433 C1432 1.367 . S
C1433 C1435 1.433 . S
C1434 C1430 1.350 . S
C1434 C1431 1.463 . S
C1434 N1438 1.427 . S
C1435 H1425 0.929 . S
C1435 C1433 1.433 . S
C1435 N1438 1.384 . S
C1436 H1427 0.929 . S
C1436 C1428 1.378 . S
C1436 C1431 1.350 . S
C1437 H1424 0.929 . S
C1437 C1429 1.433 . S
C1437 N1439 1.384 . S
N1438 C1434 1.427 . S
N1438 C1435 1.384 . S
N1439 C1431 1.427 . S
N1439 C1437 1.384 . S
H1440 C1446 0.930 . S
H1441 C1450 0.930 . S
H1442 C1455 0.929 . S
H1443 C1453 0.929 . S
H1444 C1448 0.929 . S
H1445 C1454 0.929 . S
C1446 H1440 0.930 . S
C1446 C1447 1.367 . S
C1446 C1454 1.378 . S
C1447 C1446 1.367 . S
C1447 C1455 1.433 . S
C1448 H1444 0.929 . S
C1448 C1450 1.378 . S
C1448 C1452 1.350 . S
C1449 C1452 1.463 . S
C1449 C1454 1.350 . S
C1449 N1457 1.427 . S
C1450 H1441 0.930 . S
C1450 C1448 1.378 . S
C1450 C1451 1.367 . S
C1451 C1450 1.367 . S
C1451 C1453 1.433 . S
C1452 C1448 1.350 . S
C1452 C1449 1.463 . S
C1452 N1456 1.427 . S
C1453 H1443 0.929 . S
C1453 C1451 1.433 . S
C1453 N1456 1.384 . S
C1454 H1445 0.929 . S
C1454 C1446 1.378 . S
C1454 C1449 1.350 . S
C1455 H1442 0.929 . S
C1455 C1447 1.433 . S
C1455 N1457 1.384 . S
N1456 C1452 1.427 . S
N1456 C1453 1.384 . S
N1457 C1449 1.427 . S
N1457 C1455 1.384 . S
H1458 C1464 0.930 . S
H1459 C1468 0.930 . S
H1460 C1473 0.929 . S
H1461 C1471 0.929 . S
H1462 C1466 0.929 . S
H1463 C1472 0.929 . S
C1464 H1458 0.930 . S
C1464 C1465 1.367 . S
C1464 C1472 1.378 . S
C1465 C1464 1.367 . S
C1465 C1473 1.433 . S
C1466 H1462 0.929 . S
C1466 C1468 1.378 . S
C1466 C1470 1.350 . S
C1467 C1470 1.463 . S
C1467 C1472 1.350 . S
C1467 N1475 1.427 . S
C1468 H1459 0.930 . S
C1468 C1466 1.378 . S
C1468 C1469 1.367 . S
C1469 C1468 1.367 . S
C1469 C1471 1.433 . S
C1470 C1466 1.350 . S
C1470 C1467 1.463 . S
C1470 N1474 1.427 . S
C1471 H1461 0.929 . S
C1471 C1469 1.433 . S
C1471 N1474 1.384 . S
C1472 H1463 0.929 . S
C1472 C1464 1.378 . S
C1472 C1467 1.350 . S
C1473 H1460 0.929 . S
C1473 C1465 1.433 . S
C1473 N1475 1.384 . S
N1474 C1470 1.427 . S
N1474 C1471 1.384 . S
N1475 C1467 1.427 . S
N1475 C1473 1.384 . S
H1476 C1482 0.930 1_655 S
H1477 C1486 0.930 . S
H1478 C1491 0.929 . S
H1479 C1489 0.929 . S
H1480 C1484 0.929 . S
H1481 C1490 0.929 1_655 S
C1482 H1476 0.930 1_455 S
C1482 C1483 1.367 . S
C1482 C1490 1.378 . S
C1483 C1482 1.367 . S
C1483 C1491 1.433 . S
C1484 H1480 0.929 . S
C1484 C1486 1.378 . S
C1484 C1488 1.350 . S
C1485 C1488 1.463 . S
C1485 C1490 1.350 . S
C1485 N1493 1.427 . S
C1486 H1477 0.930 . S
C1486 C1484 1.378 . S
C1486 C1487 1.367 . S
C1487 C1486 1.367 . S
C1487 C1489 1.433 1_455 S
C1488 C1484 1.350 . S
C1488 C1485 1.463 . S
C1488 N1492 1.427 1_455 S
C1489 H1479 0.929 . S
C1489 C1487 1.433 1_655 S
C1489 N1492 1.384 . S
C1490 H1481 0.929 1_455 S
C1490 C1482 1.378 . S
C1490 C1485 1.350 . S
C1491 H1478 0.929 . S
C1491 C1483 1.433 . S
C1491 N1493 1.384 . S
N1492 C1488 1.427 1_655 S
N1492 C1489 1.384 . S
N1493 C1485 1.427 . S
N1493 C1491 1.384 . S
H1494 C1500 0.930 . S
H1495 C1504 0.930 . S
H1496 C1509 0.929 . S
H1497 C1507 0.929 . S
H1498 C1502 0.929 . S
H1499 C1508 0.929 . S
C1500 H1494 0.930 . S
C1500 C1501 1.367 . S
C1500 C1508 1.378 . S
C1501 C1500 1.367 . S
C1501 C1509 1.433 . S
C1502 H1498 0.929 . S
C1502 C1504 1.378 . S
C1502 C1506 1.350 . S
C1503 C1506 1.463 . S
C1503 C1508 1.350 . S
C1503 N1511 1.427 . S
C1504 H1495 0.930 . S
C1504 C1502 1.378 . S
C1504 C1505 1.367 . S
C1505 C1504 1.367 . S
C1505 C1507 1.433 . S
C1506 C1502 1.350 . S
C1506 C1503 1.463 . S
C1506 N1510 1.427 . S
C1507 H1497 0.929 . S
C1507 C1505 1.433 . S
C1507 N1510 1.384 . S
C1508 H1499 0.929 . S
C1508 C1500 1.378 . S
C1508 C1503 1.350 . S
C1509 H1496 0.929 . S
C1509 C1501 1.433 . S
C1509 N1511 1.384 . S
N1510 C1506 1.427 . S
N1510 C1507 1.384 . S
N1511 C1503 1.427 . S
N1511 C1509 1.384 . S
H1512 C1518 0.930 . S
H1513 C1522 0.930 . S
H1514 C1527 0.929 . S
H1515 C1525 0.929 . S
H1516 C1520 0.929 . S
H1517 C1526 0.929 . S
C1518 H1512 0.930 . S
C1518 C1519 1.367 1_545 S
C1518 C1526 1.378 . S
C1519 C1518 1.367 1_565 S
C1519 C1527 1.433 . S
C1520 H1516 0.929 . S
C1520 C1522 1.378 . S
C1520 C1524 1.350 . S
C1521 C1524 1.463 . S
C1521 C1526 1.350 1_565 S
C1521 N1529 1.427 . S
C1522 H1513 0.930 . S
C1522 C1520 1.378 . S
C1522 C1523 1.367 . S
C1523 C1522 1.367 . S
C1523 C1525 1.433 1_565 S
C1524 C1520 1.350 . S
C1524 C1521 1.463 . S
C1524 N1528 1.427 1_565 S
C1525 H1515 0.929 . S
C1525 C1523 1.433 1_545 S
C1525 N1528 1.384 . S
C1526 H1517 0.929 . S
C1526 C1518 1.378 . S
C1526 C1521 1.350 1_545 S
C1527 H1514 0.929 . S
C1527 C1519 1.433 . S
C1527 N1529 1.384 . S
N1528 C1524 1.427 1_545 S
N1528 C1525 1.384 . S
N1529 C1521 1.427 . S
N1529 C1527 1.384 . S
H1530 C1536 0.930 . S
H1531 C1540 0.930 . S
H1532 C1545 0.929 . S
H1533 C1543 0.923 1_545 S
H1534 C1538 0.929 . S
H1535 C1544 0.929 . S
C1536 H1530 0.930 . S
C1536 C1537 1.367 . S
C1536 C1544 1.378 . S
C1537 C1536 1.367 . S
C1537 C1545 1.433 . S
C1538 H1534 0.929 . S
C1538 C1540 1.378 . S
C1538 C1542 1.350 . S
C1539 C1542 1.463 . S
C1539 C1544 1.350 . S
C1539 N1547 1.427 . S
C1540 H1531 0.930 . S
C1540 C1538 1.378 . S
C1540 C1541 1.367 . S
C1541 C1540 1.367 . S
C1541 C1543 1.422 . S
C1542 C1538 1.350 . S
C1542 C1539 1.463 . S
C1542 N1546 1.427 . S
C1543 H1533 0.923 1_565 S
C1543 C1541 1.422 . S
C1543 N1546 1.402 . S
C1544 H1535 0.929 . S
C1544 C1536 1.378 . S
C1544 C1539 1.350 . S
C1545 H1532 0.929 . S
C1545 C1537 1.433 . S
C1545 N1547 1.384 . S
N1546 C1542 1.427 . S
N1546 C1543 1.402 . S
N1547 C1539 1.427 . S
N1547 C1545 1.384 . S
H1548 C1554 0.930 . S
H1549 C1558 0.930 . S
H1550 C1563 0.929 . S
H1551 C1561 0.929 . S
H1552 C1556 0.929 . S
H1553 C1562 0.929 . S
C1554 H1548 0.930 . S
C1554 C1555 1.367 1_655 S
C1554 C1562 1.378 . S
C1555 C1554 1.367 1_455 S
C1555 C1563 1.433 . S
C1556 H1552 0.929 . S
C1556 C1558 1.378 . S
C1556 C1560 1.350 . S
C1557 C1560 1.463 . S
C1557 C1562 1.350 1_455 S
C1557 N1565 1.427 . S
C1558 H1549 0.930 . S
C1558 C1556 1.378 . S
C1558 C1559 1.376 . S
C1559 C1558 1.376 . S
C1559 C1561 1.418 1_455 S
C1560 C1556 1.350 . S
C1560 C1557 1.463 . S
C1560 N1564 1.427 1_455 S
C1561 H1551 0.929 . S
C1561 C1559 1.418 1_655 S
C1561 N1564 1.384 . S
C1562 H1553 0.929 . S
C1562 C1554 1.378 . S
C1562 C1557 1.350 1_655 S
C1563 H1550 0.929 . S
C1563 C1555 1.433 . S
C1563 N1565 1.384 . S
N1564 C1560 1.427 1_655 S
N1564 C1561 1.384 . S
N1565 C1557 1.427 . S
N1565 C1563 1.384 . S
H1566 C1572 0.930 . S
H1567 C1576 0.930 . S
H1568 C1581 0.929 . S
H1569 C1579 0.929 . S
H1570 C1574 0.929 . S
H1571 C1580 0.929 . S
C1572 H1566 0.930 . S
C1572 C1573 1.367 . S
C1572 C1580 1.378 . S
C1573 C1572 1.367 . S
C1573 C1581 1.433 . S
C1574 H1570 0.929 . S
C1574 C1576 1.378 . S
C1574 C1578 1.350 . S
C1575 C1578 1.463 . S
C1575 C1580 1.350 . S
C1575 N1583 1.427 . S
C1576 H1567 0.930 . S
C1576 C1574 1.378 . S
C1576 C1577 1.367 . S
C1577 C1576 1.367 . S
C1577 C1579 1.433 . S
C1578 C1574 1.350 . S
C1578 C1575 1.463 . S
C1578 N1582 1.427 . S
C1579 H1569 0.929 . S
C1579 C1577 1.433 . S
C1579 N1582 1.384 . S
C1580 H1571 0.929 . S
C1580 C1572 1.378 . S
C1580 C1575 1.350 . S
C1581 H1568 0.929 . S
C1581 C1573 1.433 . S
C1581 N1583 1.384 . S
N1582 C1578 1.427 . S
N1582 C1579 1.384 . S
N1583 C1575 1.427 . S
N1583 C1581 1.384 . S
H1584 C1590 0.930 . S
H1585 C1594 0.930 . S
H1586 C1599 0.929 . S
H1587 C1597 0.929 . S
H1588 C1592 0.929 . S
H1589 C1598 0.929 . S
C1590 H1584 0.930 . S
C1590 C1591 1.367 . S
C1590 C1598 1.378 . S
C1591 C1590 1.367 . S
C1591 C1599 1.433 . S
C1592 H1588 0.929 . S
C1592 C1594 1.378 . S
C1592 C1596 1.350 . S
C1593 C1596 1.463 . S
C1593 C1598 1.350 . S
C1593 N1601 1.427 . S
C1594 H1585 0.930 . S
C1594 C1592 1.378 . S
C1594 C1595 1.367 . S
C1595 C1594 1.367 . S
C1595 C1597 1.433 . S
C1596 C1592 1.350 . S
C1596 C1593 1.463 . S
C1596 N1600 1.427 . S
C1597 H1587 0.929 . S
C1597 C1595 1.433 . S
C1597 N1600 1.384 . S
C1598 H1589 0.929 . S
C1598 C1590 1.378 . S
C1598 C1593 1.350 . S
C1599 H1586 0.929 . S
C1599 C1591 1.433 . S
C1599 N1601 1.384 . S
N1600 C1596 1.427 . S
N1600 C1597 1.384 . S
N1601 C1593 1.427 . S
N1601 C1599 1.384 . S
H1602 C1608 0.930 . S
H1603 C1612 0.930 . S
H1604 C1617 0.929 . S
H1605 C1615 0.929 . S
H1606 C1610 0.929 . S
H1607 C1616 0.929 . S
C1608 H1602 0.930 . S
C1608 C1609 1.367 . S
C1608 C1616 1.378 . S
C1609 C1608 1.367 . S
C1609 C1617 1.433 . S
C1610 H1606 0.929 . S
C1610 C1612 1.378 . S
C1610 C1614 1.350 . S
C1611 C1614 1.463 . S
C1611 C1616 1.350 . S
C1611 N1619 1.427 . S
C1612 H1603 0.930 . S
C1612 C1610 1.378 . S
C1612 C1613 1.367 . S
C1613 C1612 1.367 . S
C1613 C1615 1.433 . S
C1614 C1610 1.350 . S
C1614 C1611 1.463 . S
C1614 N1618 1.427 . S
C1615 H1605 0.929 . S
C1615 C1613 1.433 . S
C1615 N1618 1.384 . S
C1616 H1607 0.929 . S
C1616 C1608 1.378 . S
C1616 C1611 1.350 . S
C1617 H1604 0.929 . S
C1617 C1609 1.433 . S
C1617 N1619 1.384 . S
N1618 C1614 1.427 . S
N1618 C1615 1.384 . S
N1619 C1611 1.427 . S
N1619 C1617 1.384 . S
H1620 C1626 0.930 . S
H1621 C1630 0.930 . S
H1622 C1635 0.929 . S
H1623 C1633 0.929 . S
H1624 C1628 0.929 . S
H1625 C1634 0.929 . S
C1626 H1620 0.930 . S
C1626 C1627 1.367 . S
C1626 C1634 1.378 . S
C1627 C1626 1.367 . S
C1627 C1635 1.433 . S
C1628 H1624 0.929 . S
C1628 C1630 1.378 . S
C1628 C1632 1.350 . S
C1629 C1632 1.463 . S
C1629 C1634 1.350 . S
C1629 N1637 1.427 . S
C1630 H1621 0.930 . S
C1630 C1628 1.378 . S
C1630 C1631 1.367 . S
C1631 C1630 1.367 . S
C1631 C1633 1.433 . S
C1632 C1628 1.350 . S
C1632 C1629 1.463 . S
C1632 N1636 1.427 . S
C1633 H1623 0.929 . S
C1633 C1631 1.433 . S
C1633 N1636 1.384 . S
C1634 H1625 0.929 . S
C1634 C1626 1.378 . S
C1634 C1629 1.350 . S
C1635 H1622 0.929 . S
C1635 C1627 1.433 . S
C1635 N1637 1.384 . S
N1636 C1632 1.427 . S
N1636 C1633 1.384 . S
N1637 C1629 1.427 . S
N1637 C1635 1.384 . S
H1638 C1644 0.915 1_565 S
H1639 C1648 0.930 . S
H1640 C1653 0.929 . S
H1641 C1651 0.929 . S
H1642 C1646 0.929 . S
H1643 C1652 0.929 . S
C1644 H1638 0.915 1_545 S
C1644 C1645 1.409 . S
C1644 C1652 1.352 1_545 S
C1645 C1644 1.409 . S
C1645 C1653 1.433 . S
C1646 H1642 0.929 . S
C1646 C1648 1.378 . S
C1646 C1650 1.350 . S
C1647 C1650 1.463 . S
C1647 C1652 1.350 1_545 S
C1647 N1655 1.427 . S
C1648 H1639 0.930 . S
C1648 C1646 1.378 . S
C1648 C1649 1.367 . S
C1649 C1648 1.367 . S
C1649 C1651 1.433 1_545 S
C1650 C1646 1.350 . S
C1650 C1647 1.463 . S
C1650 N1654 1.427 1_545 S
C1651 H1641 0.929 . S
C1651 C1649 1.433 1_565 S
C1651 N1654 1.384 . S
C1652 H1643 0.929 . S
C1652 C1644 1.352 1_565 S
C1652 C1647 1.350 1_565 S
C1653 H1640 0.929 . S
C1653 C1645 1.433 . S
C1653 N1655 1.384 . S
N1654 C1650 1.427 1_565 S
N1654 C1651 1.384 . S
N1655 C1647 1.427 . S
N1655 C1653 1.384 . S
H1656 C1662 0.930 . S
H1657 C1666 0.930 . S
H1658 C1671 0.929 . S
H1659 C1669 0.929 1_455 S
H1660 C1664 0.929 . S
H1661 C1670 0.929 . S
C1662 H1656 0.930 . S
C1662 C1663 1.367 . S
C1662 C1670 1.378 . S
C1663 C1662 1.367 . S
C1663 C1671 1.433 . S
C1664 H1660 0.929 . S
C1664 C1666 1.378 . S
C1664 C1668 1.350 . S
C1665 C1668 1.463 . S
C1665 C1670 1.350 . S
C1665 N1673 1.427 . S
C1666 H1657 0.930 . S
C1666 C1664 1.378 . S
C1666 C1667 1.367 . S
C1667 C1666 1.367 . S
C1667 C1669 1.433 . S
C1668 C1664 1.350 . S
C1668 C1665 1.463 . S
C1668 N1672 1.427 . S
C1669 H1659 0.929 1_655 S
C1669 C1667 1.433 . S
C1669 N1672 1.384 . S
C1670 H1661 0.929 . S
C1670 C1662 1.378 . S
C1670 C1665 1.350 . S
C1671 H1658 0.929 . S
C1671 C1663 1.433 . S
C1671 N1673 1.384 . S
N1672 C1668 1.427 . S
N1672 C1669 1.384 . S
N1673 C1665 1.427 . S
N1673 C1671 1.384 . S
H1674 C1680 0.930 . S
H1675 C1684 0.930 . S
H1676 C1689 0.929 . S
H1677 C1687 0.929 . S
H1678 C1682 0.929 . S
H1679 C1688 0.929 . S
C1680 H1674 0.930 . S
C1680 C1681 1.367 . S
C1680 C1688 1.378 . S
C1681 C1680 1.367 . S
C1681 C1689 1.433 . S
C1682 H1678 0.929 . S
C1682 C1684 1.378 . S
C1682 C1686 1.350 . S
C1683 C1686 1.463 . S
C1683 C1688 1.350 . S
C1683 N1691 1.427 . S
C1684 H1675 0.930 . S
C1684 C1682 1.378 . S
C1684 C1685 1.367 . S
C1685 C1684 1.367 . S
C1685 C1687 1.433 . S
C1686 C1682 1.350 . S
C1686 C1683 1.463 . S
C1686 N1690 1.427 . S
C1687 H1677 0.929 . S
C1687 C1685 1.433 . S
C1687 N1690 1.384 . S
C1688 H1679 0.929 . S
C1688 C1680 1.378 . S
C1688 C1683 1.350 . S
C1689 H1676 0.929 . S
C1689 C1681 1.433 . S
C1689 N1691 1.384 . S
N1690 C1686 1.427 . S
N1690 C1687 1.384 . S
N1691 C1683 1.427 . S
N1691 C1689 1.384 . S
H1692 C1698 0.930 . S
H1693 C1702 0.930 . S
H1694 C1707 0.929 . S
H1695 C1705 0.929 . S
H1696 C1700 0.929 . S
H1697 C1706 0.929 . S
C1698 H1692 0.930 . S
C1698 C1699 1.367 . S
C1698 C1706 1.378 . S
C1699 C1698 1.367 . S
C1699 C1707 1.433 . S
C1700 H1696 0.929 . S
C1700 C1702 1.378 . S
C1700 C1704 1.350 . S
C1701 C1704 1.463 . S
C1701 C1706 1.350 . S
C1701 N1709 1.427 . S
C1702 H1693 0.930 . S
C1702 C1700 1.378 . S
C1702 C1703 1.367 . S
C1703 C1702 1.367 . S
C1703 C1705 1.433 . S
C1704 C1700 1.350 . S
C1704 C1701 1.463 . S
C1704 N1708 1.427 . S
C1705 H1695 0.929 . S
C1705 C1703 1.433 . S
C1705 N1708 1.384 . S
C1706 H1697 0.929 . S
C1706 C1698 1.378 . S
C1706 C1701 1.350 . S
C1707 H1694 0.929 . S
C1707 C1699 1.433 . S
C1707 N1709 1.384 . S
N1708 C1704 1.427 . S
N1708 C1705 1.384 . S
N1709 C1701 1.427 . S
N1709 C1707 1.384 . S
H1710 C1716 0.930 . S
H1711 C1720 0.930 . S
H1712 C1725 0.929 . S
H1713 C1723 0.929 . S
H1714 C1718 0.929 . S
H1715 C1724 0.929 . S
C1716 H1710 0.930 . S
C1716 C1717 1.367 . S
C1716 C1724 1.378 . S
C1717 C1716 1.367 . S
C1717 C1725 1.433 . S
C1718 H1714 0.929 . S
C1718 C1720 1.378 . S
C1718 C1722 1.350 . S
C1719 C1722 1.463 . S
C1719 C1724 1.350 . S
C1719 N1727 1.427 . S
C1720 H1711 0.930 . S
C1720 C1718 1.378 . S
C1720 C1721 1.367 . S
C1721 C1720 1.367 . S
C1721 C1723 1.433 . S
C1722 C1718 1.350 . S
C1722 C1719 1.463 . S
C1722 N1726 1.427 . S
C1723 H1713 0.929 . S
C1723 C1721 1.433 . S
C1723 N1726 1.384 . S
C1724 H1715 0.929 . S
C1724 C1716 1.378 . S
C1724 C1719 1.350 . S
C1725 H1712 0.929 . S
C1725 C1717 1.433 . S
C1725 N1727 1.384 . S
N1726 C1722 1.427 . S
N1726 C1723 1.384 . S
N1727 C1719 1.427 . S
N1727 C1725 1.384 . S
H1728 C1734 0.930 . S
H1729 C1738 0.930 . S
H1730 C1743 0.929 . S
H1731 C1741 0.929 . S
H1732 C1736 0.929 . S
H1733 C1742 0.929 . S
C1734 H1728 0.930 . S
C1734 C1735 1.367 . S
C1734 C1742 1.378 . S
C1735 C1734 1.367 . S
C1735 C1743 1.433 . S
C1736 H1732 0.929 . S
C1736 C1738 1.378 . S
C1736 C1740 1.350 . S
C1737 C1740 1.463 . S
C1737 C1742 1.350 . S
C1737 N1745 1.427 . S
C1738 H1729 0.930 . S
C1738 C1736 1.378 . S
C1738 C1739 1.367 . S
C1739 C1738 1.367 . S
C1739 C1741 1.433 . S
C1740 C1736 1.350 . S
C1740 C1737 1.463 . S
C1740 N1744 1.427 . S
C1741 H1731 0.929 . S
C1741 C1739 1.433 . S
C1741 N1744 1.384 . S
C1742 H1733 0.929 . S
C1742 C1734 1.378 . S
C1742 C1737 1.350 . S
C1743 H1730 0.929 . S
C1743 C1735 1.433 . S
C1743 N1745 1.384 . S
N1744 C1740 1.427 . S
N1744 C1741 1.384 . S
N1745 C1737 1.427 . S
N1745 C1743 1.384 . S
H1746 C1752 0.930 . S
H1747 C1756 0.930 . S
H1748 C1761 0.929 . S
H1749 C1759 0.929 . S
H1750 C1754 0.929 . S
H1751 C1760 0.929 . S
C1752 H1746 0.930 . S
C1752 C1753 1.367 . S
C1752 C1760 1.378 . S
C1753 C1752 1.367 . S
C1753 C1761 1.433 . S
C1754 H1750 0.929 . S
C1754 C1756 1.378 . S
C1754 C1758 1.350 . S
C1755 C1758 1.463 . S
C1755 C1760 1.350 . S
C1755 N1763 1.427 . S
C1756 H1747 0.930 . S
C1756 C1754 1.378 . S
C1756 C1757 1.367 . S
C1757 C1756 1.367 . S
C1757 C1759 1.433 . S
C1758 C1754 1.350 . S
C1758 C1755 1.463 . S
C1758 N1762 1.427 . S
C1759 H1749 0.929 . S
C1759 C1757 1.433 . S
C1759 N1762 1.384 . S
C1760 H1751 0.929 . S
C1760 C1752 1.378 . S
C1760 C1755 1.350 . S
C1761 H1748 0.929 . S
C1761 C1753 1.433 . S
C1761 N1763 1.384 . S
N1762 C1758 1.427 . S
N1762 C1759 1.384 . S
N1763 C1755 1.427 . S
N1763 C1761 1.384 . S
H1764 C1770 0.930 . S
H1765 C1774 0.930 . S
H1766 C1779 0.929 . S
H1767 C1777 0.929 . S
H1768 C1772 0.929 . S
H1769 C1778 0.929 . S
C1770 H1764 0.930 . S
C1770 C1771 1.367 . S
C1770 C1778 1.378 . S
C1771 C1770 1.367 . S
C1771 C1779 1.433 . S
C1772 H1768 0.929 . S
C1772 C1774 1.378 . S
C1772 C1776 1.350 . S
C1773 C1776 1.463 . S
C1773 C1778 1.350 . S
C1773 N1781 1.427 . S
C1774 H1765 0.930 . S
C1774 C1772 1.378 . S
C1774 C1775 1.367 . S
C1775 C1774 1.367 . S
C1775 C1777 1.433 . S
C1776 C1772 1.350 . S
C1776 C1773 1.463 . S
C1776 N1780 1.427 . S
C1777 H1767 0.929 . S
C1777 C1775 1.433 . S
C1777 N1780 1.384 . S
C1778 H1769 0.929 . S
C1778 C1770 1.378 . S
C1778 C1773 1.350 . S
C1779 H1766 0.929 . S
C1779 C1771 1.433 . S
C1779 N1781 1.384 . S
N1780 C1776 1.427 . S
N1780 C1777 1.384 . S
N1781 C1773 1.427 . S
N1781 C1779 1.384 . S
H1782 C1788 0.930 . S
H1783 C1792 0.930 . S
H1784 C1797 0.929 . S
H1785 C1795 0.929 . S
H1786 C1790 0.929 . S
H1787 C1796 0.929 . S
C1788 H1782 0.930 . S
C1788 C1789 1.367 . S
C1788 C1796 1.378 . S
C1789 C1788 1.367 . S
C1789 C1797 1.433 . S
C1790 H1786 0.929 . S
C1790 C1792 1.378 . S
C1790 C1794 1.350 . S
C1791 C1794 1.463 . S
C1791 C1796 1.350 . S
C1791 N1799 1.427 . S
C1792 H1783 0.930 . S
C1792 C1790 1.378 . S
C1792 C1793 1.367 . S
C1793 C1792 1.367 . S
C1793 C1795 1.433 . S
C1794 C1790 1.350 . S
C1794 C1791 1.463 . S
C1794 N1798 1.427 . S
C1795 H1785 0.929 . S
C1795 C1793 1.433 . S
C1795 N1798 1.384 . S
C1796 H1787 0.929 . S
C1796 C1788 1.378 . S
C1796 C1791 1.350 . S
C1797 H1784 0.929 . S
C1797 C1789 1.433 . S
C1797 N1799 1.384 . S
N1798 C1794 1.427 . S
N1798 C1795 1.384 . S
N1799 C1791 1.427 . S
N1799 C1797 1.384 . S
H1800 C1806 0.930 . S
H1801 C1810 0.930 . S
H1802 C1815 0.929 . S
H1803 C1813 0.929 . S
H1804 C1808 0.930 . S
H1805 C1814 0.929 . S
C1806 H1800 0.930 . S
C1806 C1807 1.367 . S
C1806 C1814 1.378 . S
C1807 C1806 1.367 . S
C1807 C1815 1.433 . S
C1808 H1804 0.930 . S
C1808 C1810 1.388 . S
C1808 C1812 1.338 1_455 S
C1809 C1812 1.463 . S
C1809 C1814 1.350 . S
C1809 N1817 1.427 . S
C1810 H1801 0.930 . S
C1810 C1808 1.388 . S
C1810 C1811 1.367 1_455 S
C1811 C1810 1.367 1_655 S
C1811 C1813 1.433 . S
C1812 C1808 1.338 1_655 S
C1812 C1809 1.463 . S
C1812 N1816 1.427 . S
C1813 H1803 0.929 . S
C1813 C1811 1.433 . S
C1813 N1816 1.384 . S
C1814 H1805 0.929 . S
C1814 C1806 1.378 . S
C1814 C1809 1.350 . S
C1815 H1802 0.929 . S
C1815 C1807 1.433 . S
C1815 N1817 1.384 . S
N1816 C1812 1.427 . S
N1816 C1813 1.384 . S
N1817 C1809 1.427 . S
N1817 C1815 1.384 . S
H1818 C1824 0.930 . S
H1819 C1828 0.930 . S
H1820 C1833 0.929 . S
H1821 C1831 0.929 . S
H1822 C1826 0.929 . S
H1823 C1832 0.929 . S
C1824 H1818 0.930 . S
C1824 C1825 1.367 . S
C1824 C1832 1.378 . S
C1825 C1824 1.367 . S
C1825 C1833 1.433 . S
C1826 H1822 0.929 . S
C1826 C1828 1.378 . S
C1826 C1830 1.350 . S
C1827 C1830 1.463 . S
C1827 C1832 1.350 . S
C1827 N1835 1.427 . S
C1828 H1819 0.930 . S
C1828 C1826 1.378 . S
C1828 C1829 1.367 . S
C1829 C1828 1.367 . S
C1829 C1831 1.433 . S
C1830 C1826 1.350 . S
C1830 C1827 1.463 . S
C1830 N1834 1.427 . S
C1831 H1821 0.929 . S
C1831 C1829 1.433 . S
C1831 N1834 1.384 . S
C1832 H1823 0.929 . S
C1832 C1824 1.378 . S
C1832 C1827 1.350 . S
C1833 H1820 0.929 . S
C1833 C1825 1.433 . S
C1833 N1835 1.384 . S
N1834 C1830 1.427 . S
N1834 C1831 1.384 . S
N1835 C1827 1.427 . S
N1835 C1833 1.384 . S
H1836 C1842 0.930 . S
H1837 C1846 0.930 . S
H1838 C1851 0.929 . S
H1839 C1849 0.929 . S
H1840 C1844 0.929 . S
H1841 C1850 0.929 . S
C1842 H1836 0.930 . S
C1842 C1843 1.367 . S
C1842 C1850 1.378 . S
C1843 C1842 1.367 . S
C1843 C1851 1.433 1_545 S
C1844 H1840 0.929 . S
C1844 C1846 1.378 . S
C1844 C1848 1.350 1_565 S
C1845 C1848 1.463 . S
C1845 C1850 1.350 . S
C1845 N1853 1.427 1_545 S
C1846 H1837 0.930 . S
C1846 C1844 1.378 . S
C1846 C1847 1.361 . S
C1847 C1846 1.361 . S
C1847 C1849 1.437 1_565 S
C1848 C1844 1.350 1_545 S
C1848 C1845 1.463 . S
C1848 N1852 1.427 . S
C1849 H1839 0.929 . S
C1849 C1847 1.437 1_545 S
C1849 N1852 1.384 . S
C1850 H1841 0.929 . S
C1850 C1842 1.378 . S
C1850 C1845 1.350 . S
C1851 H1838 0.929 . S
C1851 C1843 1.433 1_565 S
C1851 N1853 1.384 . S
N1852 C1848 1.427 . S
N1852 C1849 1.384 . S
N1853 C1845 1.427 1_565 S
N1853 C1851 1.384 . S
C565 C8 1.488 . S
C569 C403 1.542 . S
C583 C18 1.523 . S
C587 C428 1.542 . S
C605 C439 1.545 . S
C601 C31 1.512 . S
C619 C34 1.535 . S
C623 C464 1.562 . S
C637 C5 1.526 . S
C641 C482 1.553 . S
C655 C21 1.514 . S
C659 C493 1.550 . S
C673 C47 1.491 . S
C677 C475 1.558 1_455 S
C695 C500 1.534 . S
C691 C57 1.498 . S
C713 C457 1.560 1_565 S
C709 C70 1.528 . S
C727 C73 1.485 . S
C731 C446 1.558 1_545 S
C749 C410 1.527 1_655 S
C745 C44 1.520 . S
C763 C60 1.488 . S
C767 C421 1.541 . S
C781 C86 1.544 . S
C785 C511 1.588 . S
C799 C96 1.548 . S
C803 C536 1.567 . S
C821 C547 1.589 . S
C817 C109 1.599 . S
C835 C112 1.575 . S
C839 C248 1.612 . S
C853 C83 1.590 . S
C857 C266 1.606 . S
C871 C99 1.546 . S
C875 C277 1.579 . S
C889 C125 1.491 . S
C893 C259 1.545 . S
C907 C135 1.526 . S
C911 C284 1.560 . S
C929 C241 1.574 . S
C925 C148 1.557 . S
C947 C554 1.607 . S
C943 C151 1.556 . S
C965 C518 1.566 . S
C961 C122 1.546 . S
C983 C529 1.576 . S
C979 C138 1.530 . S
C997 C164 1.533 . S
C1001 C295 1.569 . S
C1015 C174 1.546 . S
C1019 C320 1.563 . S
C1033 C187 1.591 . S
C1037 C331 1.586 . S
C1051 C190 1.597 . S
C1055 C356 1.633 . S
C1073 C374 1.590 . S
C1069 C161 1.590 . S
C1091 C385 1.585 . S
C1087 C177 1.545 . S
C1109 C367 1.577 . S
C1105 C203 1.521 . S
C1127 C392 1.551 . S
C1123 C213 1.530 . S
C1141 C226 1.556 . S
C1145 C349 1.567 . S
C1163 C338 1.583 . S
C1159 C229 1.543 . S
C1177 C200 1.559 . S
C1181 C302 1.579 . S
C1199 C313 1.575 . S
C1195 C216 1.530 . S
C1217 C250 1.315 . S
C1213 C0 1.346 . S
C1231 C23 1.342 . S
C1235 C268 1.275 . S
C1253 C278 1.312 . S
C1249 C36 1.393 . S
C1271 C296 1.349 . S
C1267 C26 1.364 . S
C1289 C322 1.277 . S
C1285 C10 1.365 . S
C1307 C332 1.276 . S
C1303 C13 1.321 . S
C1321 C39 1.388 . S
C1325 C340 1.342 . S
C1339 C62 1.370 . S
C1343 C304 1.274 . S
C1357 C75 1.401 . S
C1361 C314 1.329 . S
C1375 C65 1.426 . S
C1379 C260 1.398 . S
C1397 C286 1.303 . S
C1393 C49 1.391 . S
C1411 C52 1.359 . S
C1415 C242 1.323 . S
C1433 C358 1.325 . S
C1429 C78 1.344 . S
C1447 C101 1.395 . S
C1451 C376 1.318 . S
C1465 C114 1.421 . S
C1469 C386 1.344 . S
C1487 C404 1.287 . S
C1483 C104 1.316 . S
C1501 C88 1.353 . S
C1505 C430 1.271 . S
C1519 C91 1.261 . S
C1523 C440 1.220 . S
C1537 C117 1.301 . S
C1541 C448 1.258 . S
C1555 C140 1.320 . S
C1559 C412 1.247 . S
C1577 C422 1.317 . S
C1573 C153 1.404 . S
C1591 C143 1.383 . S
C1595 C368 1.352 . S
C1609 C127 1.440 . S
C1613 C394 1.327 . S
C1631 C350 1.364 . S
C1627 C130 1.399 . S
C1649 C466 1.256 . S
C1645 C156 1.298 . S
C1663 C179 1.302 . S
C1667 C484 1.245 . S
C1681 C192 1.380 . S
C1685 C494 1.314 . S
C1703 C512 1.322 . S
C1699 C182 1.351 . S
C1721 C538 1.326 . S
C1717 C166 1.409 . S
C1735 C169 1.360 . S
C1739 C548 1.322 . S
C1753 C195 1.388 . S
C1757 C556 1.327 . S
C1771 C218 1.427 . S
C1775 C520 1.320 . S
C1793 C530 1.344 . S
C1789 C231 1.435 . S
C1811 C476 1.293 1_655 S
C1807 C221 1.324 . S
C1829 C502 1.286 . S
C1825 C205 1.385 . S
C1843 C208 1.291 . S
C1847 C458 1.246 . S
