# Generated by pormake.
# Topology llj, (12,3)-cn, num edge types: 1
# Building blocks:
#     Node 0, Type 0, BuildingBlock: QEWDON_clean_sbu_0, # of connection points: 12
#     Node 1, Type 0, BuildingBlock: QEWDON_clean_sbu_0, # of connection points: 12
#     Node 2, Type 1, BuildingBlock: ESEHIV_clean_linker_0, # of connection points: 3
#     Node 3, Type 1, BuildingBlock: ESEHIV_clean_linker_0, # of connection points: 3
#     Node 4, Type 1, BuildingBlock: ESEHIV_clean_linker_0, # of connection points: 3
#     Node 5, Type 1, BuildingBlock: ESEHIV_clean_linker_0, # of connection points: 3
#     Node 6, Type 1, BuildingBlock: ESEHIV_clean_linker_0, # of connection points: 3
#     Node 7, Type 1, BuildingBlock: ESEHIV_clean_linker_0, # of connection points: 3
#     Node 8, Type 1, BuildingBlock: ESEHIV_clean_linker_0, # of connection points: 3
#     Node 9, Type 1, BuildingBlock: ESEHIV_clean_linker_0, # of connection points: 3
#     Edge 10, Type (0, 1), BuildingBlock: MIFKUJ_clean_linker_0, # of connection points: 2
#     Edge 11, Type (0, 1), BuildingBlock: MIFKUJ_clean_linker_0, # of connection points: 2
#     Edge 12, Type (0, 1), BuildingBlock: MIFKUJ_clean_linker_0, # of connection points: 2
#     Edge 13, Type (0, 1), BuildingBlock: MIFKUJ_clean_linker_0, # of connection points: 2
#     Edge 14, Type (0, 1), BuildingBlock: MIFKUJ_clean_linker_0, # of connection points: 2
#     Edge 15, Type (0, 1), BuildingBlock: MIFKUJ_clean_linker_0, # of connection points: 2
#     Edge 16, Type (0, 1), BuildingBlock: MIFKUJ_clean_linker_0, # of connection points: 2
#     Edge 17, Type (0, 1), BuildingBlock: MIFKUJ_clean_linker_0, # of connection points: 2
#     Edge 18, Type (0, 1), BuildingBlock: MIFKUJ_clean_linker_0, # of connection points: 2
#     Edge 19, Type (0, 1), BuildingBlock: MIFKUJ_clean_linker_0, # of connection points: 2
#     Edge 20, Type (0, 1), BuildingBlock: MIFKUJ_clean_linker_0, # of connection points: 2
#     Edge 21, Type (0, 1), BuildingBlock: MIFKUJ_clean_linker_0, # of connection points: 2
#     Edge 22, Type (0, 1), BuildingBlock: MIFKUJ_clean_linker_0, # of connection points: 2
#     Edge 23, Type (0, 1), BuildingBlock: MIFKUJ_clean_linker_0, # of connection points: 2
#     Edge 24, Type (0, 1), BuildingBlock: MIFKUJ_clean_linker_0, # of connection points: 2
#     Edge 25, Type (0, 1), BuildingBlock: MIFKUJ_clean_linker_0, # of connection points: 2
#     Edge 26, Type (0, 1), BuildingBlock: MIFKUJ_clean_linker_0, # of connection points: 2
#     Edge 27, Type (0, 1), BuildingBlock: MIFKUJ_clean_linker_0, # of connection points: 2
#     Edge 28, Type (0, 1), BuildingBlock: MIFKUJ_clean_linker_0, # of connection points: 2
#     Edge 29, Type (0, 1), BuildingBlock: MIFKUJ_clean_linker_0, # of connection points: 2
#     Edge 30, Type (0, 1), BuildingBlock: MIFKUJ_clean_linker_0, # of connection points: 2
#     Edge 31, Type (0, 1), BuildingBlock: MIFKUJ_clean_linker_0, # of connection points: 2
#     Edge 32, Type (0, 1), BuildingBlock: MIFKUJ_clean_linker_0, # of connection points: 2
#     Edge 33, Type (0, 1), BuildingBlock: MIFKUJ_clean_linker_0, # of connection points: 2
# Relax obj value: 0.011
# Max RMSD: 0.052
# Mean RMSD: 0.048
data_MOF--net-llj--node1-QEWDON_clean_sbu_0--node2-ESEHIV_clean_linker_0--edge1-MIFKUJ_clean_linker_0
_symmetry_space_group_name_H-M    P1
_symmetry_Int_Tables_number       1
_symmetry_cell_setting            triclinic
loop_
_symmetry_equiv_pos_as_xyz
'x, y, z'
_cell_length_a     45.696422
_cell_length_b     45.678597
_cell_length_c     31.903533
_cell_angle_alpha  89.961667
_cell_angle_beta   89.991233
_cell_angle_gamma 89.846518
loop_
_atom_site_label
_atom_site_type_symbol
_atom_site_fract_x
_atom_site_fract_y
_atom_site_fract_z
_atom_type_partial_charge
Zn0 Zn 0.94071 0.04416 0.97176 0.0
Zn1 Zn 0.94371 0.0498 0.07105 0.0
O2 O 0.96893 0.04478 0.02061 0.0
H3 H 0.98951 0.04921 0.01757 0.0
C4 C 0.92578 0.98155 0.93657 0.0
O5 O 0.91103 0.98347 0.97184 0.0
Zn6 Zn 0.05124 0.93535 0.08652 0.0
Zn7 Zn 0.05279 0.94383 0.99242 0.0
O8 O 0.02415 0.93276 0.03837 0.0
H9 H 0.00825 0.91902 0.03522 0.0
Zn10 Zn 0.95692 0.94281 0.99034 0.0
O11 O 0.9617 0.96989 0.04009 0.0
Zn12 Zn 0.95202 0.94584 0.09026 0.0
H13 H 0.97483 0.98643 0.04014 0.0
Zn14 Zn 0.04748 0.03607 0.9761 0.0
O15 O 0.03985 0.01384 0.02955 0.0
H16 H 0.02753 0.99671 0.03068 0.0
Zn17 Zn 0.04688 0.04192 0.0761 0.0
C18 C 0.08187 0.99307 0.93521 0.0
O19 O 0.0941 0.99428 0.97245 0.0
O20 O 0.90275 0.06692 0.98466 0.0
O21 O 0.90578 0.07056 0.05408 0.0
O22 O 0.09325 0.92503 0.00211 0.0
O23 O 0.08948 0.91507 0.07018 0.0
O24 O 0.931 0.90716 0.00426 0.0
O25 O 0.92574 0.91185 0.07342 0.0
C26 C 0.99273 0.07127 0.11825 0.0
O27 O 0.07152 0.07367 0.9853 0.0
O28 O 0.07137 0.07641 0.05495 0.0
O29 O 0.03439 0.9331 0.93619 0.0
C30 C 0.89257 0.07584 0.0196 0.0
O31 O 0.96092 0.05408 0.91589 0.0
C32 C 0.00461 0.91788 0.13913 0.0
O33 O 0.94776 0.96452 0.9349 0.0
C34 C 0.10332 0.91334 0.03538 0.0
O35 O 0.06021 0.00963 0.92731 0.0
C36 C 0.92857 0.9983 0.12844 0.0
O37 O 0.9651 0.07338 0.115 0.0
O38 O 0.00611 0.05501 0.09218 0.0
C39 C 0.91994 0.89883 0.03897 0.0
O40 O 0.03229 0.9156 0.13651 0.0
O41 O 0.9916 0.93234 0.11061 0.0
C42 C 0.06883 0.99288 0.1241 0.0
O43 O 0.93165 0.9709 0.13385 0.0
O44 O 0.93751 0.00922 0.09409 0.0
C45 C 0.07916 0.0863 0.01918 0.0
O46 O 0.06832 0.02073 0.12329 0.0
O47 O 0.0555 0.97875 0.09582 0.0
C48 C 0.02806 0.90606 0.9351 0.0
O49 O 0.03551 0.88937 0.96695 0.0
C50 C 0.97286 0.07913 0.91564 0.0
O51 O 0.97042 0.09579 0.94904 0.0
Zn52 Zn 0.44482 0.53738 0.45474 0.0
Zn53 Zn 0.44765 0.53834 0.55382 0.0
O54 O 0.4733 0.53433 0.50362 0.0
H55 H 0.4921 0.52462 0.50234 0.0
C56 C 0.41844 0.47395 0.39973 0.0
O57 O 0.40563 0.47949 0.43574 0.0
Zn58 Zn 0.54679 0.45277 0.56316 0.0
Zn59 Zn 0.54409 0.44121 0.46399 0.0
O60 O 0.52158 0.4581 0.5125 0.0
H61 H 0.5063 0.47262 0.50993 0.0
Zn62 Zn 0.44375 0.43226 0.45409 0.0
O63 O 0.44331 0.4614 0.50122 0.0
Zn64 Zn 0.44404 0.43688 0.55229 0.0
H65 H 0.45132 0.48077 0.49794 0.0
Zn66 Zn 0.56229 0.56626 0.47274 0.0
O67 O 0.56679 0.53319 0.51435 0.0
H68 H 0.58137 0.51792 0.51179 0.0
Zn69 Zn 0.55472 0.55407 0.56584 0.0
C70 C 0.56664 0.52821 0.4041 0.0
O71 O 0.54768 0.51531 0.42893 0.0
O72 O 0.40877 0.56242 0.46967 0.0
O73 O 0.41238 0.56329 0.53922 0.0
O74 O 0.57903 0.41585 0.48229 0.0
O75 O 0.58159 0.426 0.55059 0.0
O76 O 0.42536 0.39262 0.47058 0.0
O77 O 0.42722 0.39706 0.5401 0.0
C78 C 0.49634 0.56294 0.59861 0.0
O79 O 0.5754 0.60584 0.49762 0.0
O80 O 0.57155 0.59483 0.56533 0.0
O81 O 0.52117 0.43148 0.40974 0.0
C82 C 0.39976 0.57118 0.50532 0.0
O83 O 0.46396 0.54772 0.39796 0.0
C84 C 0.49613 0.43182 0.60509 0.0
O85 O 0.43586 0.4523 0.39721 0.0
C86 C 0.59118 0.41276 0.51802 0.0
O87 O 0.57643 0.5532 0.41436 0.0
C88 C 0.42319 0.48449 0.59935 0.0
O89 O 0.46896 0.55886 0.60009 0.0
O90 O 0.5108 0.55439 0.56699 0.0
C91 C 0.42076 0.38246 0.50727 0.0
O92 O 0.52301 0.43691 0.61171 0.0
O93 O 0.48614 0.43491 0.56837 0.0
C94 C 0.56724 0.50393 0.61228 0.0
O95 O 0.42118 0.4568 0.59851 0.0
O96 O 0.43749 0.49704 0.57039 0.0
C97 C 0.57823 0.61274 0.53616 0.0
O98 O 0.56897 0.53151 0.61614 0.0
O99 O 0.55835 0.49354 0.57775 0.0
C100 C 0.5018 0.41161 0.41029 0.0
O101 O 0.49715 0.39712 0.44524 0.0
C102 C 0.48643 0.56395 0.40005 0.0
O103 O 0.49603 0.57209 0.43706 0.0
H104 H 0.36548 0.36399 -0.00124 0.0
H105 H 0.30505 0.31167 0.06992 0.0
H106 H 0.29614 0.31896 0.936 0.0
C107 C 0.34607 0.3505 0.00056 0.0
C108 C 0.33145 0.34339 0.96333 0.0
C109 C 0.3366 0.33964 0.03949 0.0
C110 C 0.31248 0.32048 0.04032 0.0
C111 C 0.29806 0.31225 0.00309 0.0
C112 C 0.30755 0.32422 0.96478 0.0
H113 H 0.65018 0.39201 0.01863 0.0
H114 H 0.69771 0.32662 0.08705 0.0
H115 H 0.68242 0.31574 0.95454 0.0
C116 C 0.6617 0.37123 0.01905 0.0
C117 C 0.66507 0.35523 0.98185 0.0
C118 C 0.6729 0.36069 0.05704 0.0
C119 C 0.68831 0.33411 0.05775 0.0
C120 C 0.69253 0.31791 0.02068 0.0
C121 C 0.68037 0.3285 0.98299 0.0
H122 H 0.60899 0.65022 0.99468 0.0
H123 H 0.67667 0.7006 0.93617 0.0
H124 H 0.6654 0.70376 0.0702 0.0
C125 C 0.62698 0.66549 0.99733 0.0
C126 C 0.63496 0.67625 0.0369 0.0
C127 C 0.64187 0.67414 0.96097 0.0
C128 C 0.6653 0.69376 0.96431 0.0
C129 C 0.67425 0.70436 0.00368 0.0
C130 C 0.65878 0.69561 0.03979 0.0
H131 H 0.36286 0.61226 0.00317 0.0
H132 H 0.32407 0.68433 0.06979 0.0
H133 H 0.31197 0.67614 0.93642 0.0
C134 C 0.35055 0.63258 0.00318 0.0
C135 C 0.33901 0.64304 0.96533 0.0
C136 C 0.34516 0.64712 0.04111 0.0
C137 C 0.32788 0.67261 0.04077 0.0
C138 C 0.31563 0.68322 0.00323 0.0
C139 C 0.32141 0.66831 0.96552 0.0
H140 H 0.89935 0.82249 0.53718 0.0
H141 H 0.82855 0.79312 0.61494 0.0
H142 H 0.82136 0.7872 0.48078 0.0
C143 C 0.87782 0.81278 0.54013 0.0
C144 C 0.86198 0.8051 0.50405 0.0
C145 C 0.86587 0.80838 0.58009 0.0
C146 C 0.83786 0.79641 0.58401 0.0
C147 C 0.82166 0.78889 0.54838 0.0
C148 C 0.83386 0.79305 0.5084 0.0
H149 H 0.18595 0.90695 0.53056 0.0
H150 H 0.23485 0.83801 0.59027 0.0
H151 H 0.23346 0.84507 0.45561 0.0
C152 C 0.20027 0.88803 0.52854 0.0
C153 C 0.20906 0.87791 0.48909 0.0
C154 C 0.20945 0.87378 0.56522 0.0
C155 C 0.22805 0.84937 0.56206 0.0
C156 C 0.23697 0.83884 0.52263 0.0
C157 C 0.22766 0.85355 0.48625 0.0
H158 H 0.09485 0.1691 0.51402 0.0
H159 H 0.16584 0.21634 0.4567 0.0
H160 H 0.16673 0.19937 0.58908 0.0
C161 C 0.11543 0.18068 0.51648 0.0
C162 C 0.1289 0.18341 0.55583 0.0
C163 C 0.12859 0.19244 0.48036 0.0
C164 C 0.15542 0.20714 0.48421 0.0
C165 C 0.1694 0.20934 0.52319 0.0
C166 C 0.15598 0.1976 0.55889 0.0
H167 H 0.85625 0.11573 0.53395 0.0
H168 H 0.80994 0.18054 0.60618 0.0
H169 H 0.80969 0.1849 0.47163 0.0
C170 C 0.8434 0.13566 0.53553 0.0
C171 C 0.83438 0.14917 0.49816 0.0
C172 C 0.83504 0.14691 0.57479 0.0
C173 C 0.81685 0.17181 0.57621 0.0
C174 C 0.80706 0.18523 0.53909 0.0
C175 C 0.81636 0.17404 0.5003 0.0
H176 H 0.1094 0.1064 0.95108 0.0
H177 H 0.14455 0.14656 0.94862 0.0
H178 H 0.12856 0.16489 0.07919 0.0
H179 H 0.09345 0.12447 0.08222 0.0
H180 H 0.1315 0.21603 0.02454 0.0
H181 H 0.18604 0.12834 0.05897 0.0
H182 H 0.2014 0.07713 0.04788 0.0
H183 H 0.23539 0.09962 0.9266 0.0
H184 H 0.21983 0.15091 0.93674 0.0
H185 H 0.25482 0.30594 0.06263 0.0
H186 H 0.21661 0.26887 0.06551 0.0
H187 H 0.24632 0.23356 0.94748 0.0
H188 H 0.28596 0.26907 0.94596 0.0
H189 H 0.23536 0.19089 0.99632 0.0
H190 H 0.18213 0.27716 0.95858 0.0
H191 H 0.16538 0.32834 0.96473 0.0
H192 H 0.12751 0.30944 0.0849 0.0
H193 H 0.14438 0.25821 0.07971 0.0
C194 C 0.1131 0.11909 0.97925 0.0
C195 C 0.09873 0.11208 0.01696 0.0
C196 C 0.13325 0.142 0.97776 0.0
C197 C 0.13926 0.1585 0.01379 0.0
C198 C 0.12419 0.15235 0.05107 0.0
C199 C 0.10425 0.12919 0.05276 0.0
C200 C 0.16227 0.18126 0.0129 0.0
C201 C 0.1543 0.21062 0.01891 0.0
C202 C 0.19179 0.17413 0.00434 0.0
C203 C 0.20153 0.14339 -0.00154 0.0
C204 C 0.19659 0.12232 0.02981 0.0
C205 C 0.20537 0.09329 0.02372 0.0
C206 C 0.2193 0.08511 0.98651 0.0
C207 C 0.22457 0.10598 0.95538 0.0
C208 C 0.2158 0.13503 0.9613 0.0
C209 C 0.2535 0.29011 0.03747 0.0
C210 C 0.27361 0.29064 0.00404 0.0
C211 C 0.23128 0.26914 0.03885 0.0
C212 C 0.22819 0.24862 0.00637 0.0
C213 C 0.24812 0.24918 0.97288 0.0
C214 C 0.27062 0.26982 0.97181 0.0
C215 C 0.20476 0.22603 0.00776 0.0
C216 C 0.21263 0.19656 0.00191 0.0
C217 C 0.17505 0.23317 0.01576 0.0
C218 C 0.16478 0.26392 0.01893 0.0
C219 C 0.17042 0.28397 0.98645 0.0
C220 C 0.16087 0.31298 0.98975 0.0
C221 C 0.14546 0.32215 0.02523 0.0
C222 C 0.13949 0.30231 0.05745 0.0
C223 C 0.14901 0.27328 0.05434 0.0
H224 H 0.13809 0.34462 0.02772 0.0
H225 H 0.22606 0.06262 0.98185 0.0
H226 H 0.85931 0.09299 0.08688 0.0
H227 H 0.82117 0.13084 0.08778 0.0
H228 H 0.83018 0.14179 0.9542 0.0
H229 H 0.86781 0.10375 0.95269 0.0
H230 H 0.83752 0.19426 0.00627 0.0
H231 H 0.77167 0.11285 0.98378 0.0
H232 H 0.75015 0.06491 0.00115 0.0
H233 H 0.7226 0.09787 0.12088 0.0
H234 H 0.74434 0.14592 0.10444 0.0
H235 H 0.73007 0.29795 0.95993 0.0
H236 H 0.75997 0.25389 0.96083 0.0
H237 H 0.72741 0.23253 0.08402 0.0
H238 H 0.69555 0.27553 0.08206 0.0
H239 H 0.7322 0.18462 0.04138 0.0
H240 H 0.79615 0.26437 0.06823 0.0
H241 H 0.81937 0.31242 0.05722 0.0
H242 H 0.85316 0.28341 0.93868 0.0
H243 H 0.82979 0.23528 0.94871 0.0
C244 C 0.85279 0.10307 0.05757 0.0
C245 C 0.86672 0.09546 0.01974 0.0
C246 C 0.83099 0.12463 0.05817 0.0
C247 C 0.82304 0.1391 0.02107 0.0
C248 C 0.83611 0.13084 0.98312 0.0
C249 C 0.85753 0.10901 0.98236 0.0
C250 C 0.80288 0.16445 0.02216 0.0
C251 C 0.81439 0.19218 0.01337 0.0
C252 C 0.77309 0.16171 0.03325 0.0
C253 C 0.75991 0.13288 0.04306 0.0
C254 C 0.76127 0.1098 0.01397 0.0
C255 C 0.74897 0.08262 0.02361 0.0
C256 C 0.73509 0.07832 0.06214 0.0
C257 C 0.7334 0.10122 0.09107 0.0
C258 C 0.74568 0.12844 0.08159 0.0
C259 C 0.72869 0.28366 0.98693 0.0
C260 C 0.71035 0.29051 0.021 0.0
C261 C 0.74623 0.25861 0.98766 0.0
C262 C 0.74651 0.24019 0.02291 0.0
C263 C 0.72777 0.24652 0.05659 0.0
C264 C 0.70981 0.27136 0.05561 0.0
C265 C 0.76667 0.21462 0.02463 0.0
C266 C 0.7553 0.18684 0.03424 0.0
C267 C 0.79686 0.21737 0.01524 0.0
C268 C 0.81098 0.2463 0.00906 0.0
C269 C 0.80835 0.2683 0.03967 0.0
C270 C 0.82156 0.29555 0.03363 0.0
C271 C 0.83767 0.30099 0.99723 0.0
C272 C 0.84064 0.27917 0.96684 0.0
C273 C 0.82744 0.25189 0.9727 0.0
H274 H 0.84789 0.32209 0.99262 0.0
H275 H 0.72558 0.05726 0.06955 0.0
H276 H 0.91338 0.8553 0.98105 0.0
H277 H 0.87322 0.82026 0.97592 0.0
H278 H 0.83536 0.85546 0.08924 0.0
H279 H 0.8761 0.88966 0.09543 0.0
H280 H 0.82791 0.8001 0.0896 0.0
H281 H 0.81104 0.87502 0.98676 0.0
H282 H 0.82269 0.90668 0.92635 0.0
H283 H 0.83306 0.83092 0.84813 0.0
H284 H 0.8217 0.79878 0.90816 0.0
H285 H 0.68145 0.7519 0.05543 0.0
H286 H 0.72458 0.78314 0.06211 0.0
H287 H 0.76822 0.73355 0.96555 0.0
H288 H 0.72571 0.70153 0.95961 0.0
H289 H 0.77269 0.79521 0.95588 0.0
H290 H 0.78674 0.72102 0.06193 0.0
H291 H 0.77205 0.69166 0.12327 0.0
H292 H 0.76394 0.76988 0.19698 0.0
H293 H 0.77816 0.79977 0.13586 0.0
C294 C 0.89663 0.85533 0.00509 0.0
C295 C 0.89773 0.87538 0.03843 0.0
C296 C 0.87357 0.83543 0.00198 0.0
C297 C 0.85078 0.83571 0.03157 0.0
C298 C 0.85256 0.85489 0.06588 0.0
C299 C 0.8759 0.87442 0.06942 0.0
C300 C 0.82476 0.81657 0.02639 0.0
C301 C 0.81568 0.79935 0.06047 0.0
C302 C 0.80891 0.81521 0.98823 0.0
C303 C 0.81573 0.83449 0.95204 0.0
C304 C 0.81595 0.86511 0.95673 0.0
C305 C 0.82242 0.88314 0.92253 0.0
C306 C 0.82854 0.87081 0.88342 0.0
C307 C 0.82824 0.84043 0.87842 0.0
C308 C 0.82174 0.8223 0.9125 0.0
C309 C 0.70031 0.74739 0.03591 0.0
C310 C 0.70006 0.72408 0.00706 0.0
C311 C 0.72486 0.76539 0.03961 0.0
C312 C 0.74959 0.76053 0.01444 0.0
C313 C 0.74928 0.7377 0.98512 0.0
C314 C 0.72487 0.71952 0.98167 0.0
C315 C 0.77596 0.77902 0.01907 0.0
C316 C 0.78504 0.79606 0.9849 0.0
C317 C 0.7915 0.78062 0.05732 0.0
C318 C 0.78325 0.76265 0.0942 0.0
C319 C 0.7816 0.73198 0.09113 0.0
C320 C 0.77339 0.71524 0.12587 0.0
C321 C 0.76699 0.7289 0.16397 0.0
C322 C 0.76887 0.75933 0.16743 0.0
C323 C 0.77703 0.77618 0.13276 0.0
H324 H 0.76064 0.71591 0.19083 0.0
H325 H 0.83358 0.88481 0.857 0.0
H326 H 0.14604 0.91411 0.97496 0.0
H327 H 0.18611 0.87888 0.9658 0.0
H328 H 0.1582 0.83306 0.07707 0.0
H329 H 0.11861 0.86843 0.08672 0.0
H330 H 0.21641 0.8385 0.07586 0.0
H331 H 0.14132 0.80853 0.97721 0.0
H332 H 0.10821 0.81263 0.9164 0.0
H333 H 0.18135 0.83106 0.83622 0.0
H334 H 0.21489 0.82725 0.89663 0.0
H335 H 0.27263 0.69601 0.05976 0.0
H336 H 0.2411 0.73915 0.06199 0.0
H337 H 0.28239 0.77257 0.95024 0.0
H338 H 0.31427 0.72931 0.9479 0.0
H339 H 0.22343 0.77853 0.94683 0.0
H340 H 0.29873 0.80143 0.0448 0.0
H341 H 0.33158 0.79322 0.10498 0.0
H342 H 0.25746 0.78733 0.18728 0.0
H343 H 0.22412 0.79502 0.12749 0.0
C344 C 0.14878 0.89678 0.99782 0.0
C345 C 0.12948 0.89431 0.03205 0.0
C346 C 0.17153 0.87654 0.99236 0.0
C347 C 0.17509 0.85322 0.02064 0.0
C348 C 0.15606 0.85101 0.05504 0.0
C349 C 0.13358 0.87137 0.06076 0.0
C350 C 0.19829 0.83075 0.01462 0.0
C351 C 0.2177 0.82524 0.04781 0.0
C352 C 0.20088 0.81414 0.97732 0.0
C353 C 0.18056 0.81789 0.94149 0.0
C354 C 0.15029 0.81383 0.94671 0.0
C355 C 0.13147 0.81597 0.91229 0.0
C356 C 0.1427 0.82202 0.87248 0.0
C357 C 0.17271 0.8263 0.86707 0.0
C358 C 0.19163 0.82414 0.90137 0.0
C359 C 0.27526 0.71267 0.03588 0.0
C360 C 0.29617 0.70936 0.00388 0.0
C361 C 0.25718 0.73731 0.03716 0.0
C362 C 0.25972 0.75933 0.00668 0.0
C363 C 0.28015 0.75589 0.97417 0.0
C364 C 0.29827 0.73114 0.97282 0.0
C365 C 0.24067 0.78567 0.00877 0.0
C366 C 0.22224 0.79202 0.97476 0.0
C367 C 0.23887 0.80303 0.04542 0.0
C368 C 0.2589 0.79856 0.08154 0.0
C369 C 0.28941 0.79815 0.07567 0.0
C370 C 0.30813 0.79362 0.10973 0.0
C371 C 0.29661 0.78969 0.14991 0.0
C372 C 0.26635 0.79035 0.15613 0.0
C373 C 0.24753 0.79482 0.12216 0.0
H374 H 0.31114 0.78619 0.17624 0.0
H375 H 0.12819 0.8232 0.84574 0.0
H376 H 0.59246 0.63261 0.61446 0.0
H377 H 0.62486 0.67328 0.63131 0.0
H378 H 0.63029 0.69556 0.50009 0.0
H379 H 0.59739 0.65555 0.48306 0.0
H380 H 0.67881 0.673 0.60767 0.0
H381 H 0.65069 0.76422 0.48437 0.0
H382 H 0.60674 0.78857 0.45603 0.0
H383 H 0.55851 0.76544 0.56666 0.0
H384 H 0.60227 0.74133 0.596 0.0
H385 H 0.80031 0.73865 0.51457 0.0
H386 H 0.75217 0.71668 0.5269 0.0
H387 H 0.7283 0.78952 0.60592 0.0
H388 H 0.77661 0.81145 0.59403 0.0
H389 H 0.6845 0.77254 0.54591 0.0
H390 H 0.74175 0.73261 0.65597 0.0
H391 H 0.78448 0.70913 0.68927 0.0
H392 H 0.77152 0.6322 0.61434 0.0
H393 H 0.72897 0.65539 0.58013 0.0
C394 C 0.59977 0.64674 0.58929 0.0
C395 C 0.59266 0.64058 0.54729 0.0
C396 C 0.61832 0.66996 0.59905 0.0
C397 C 0.63001 0.68746 0.56703 0.0
C398 C 0.6212 0.68268 0.52545 0.0
C399 C 0.60256 0.65956 0.51567 0.0
C400 C 0.65496 0.70716 0.57564 0.0
C401 C 0.67984 0.69494 0.59471 0.0
C402 C 0.65615 0.73604 0.55965 0.0
C403 C 0.6298 0.75083 0.54233 0.0
C404 C 0.63079 0.76449 0.50282 0.0
C405 C 0.60588 0.77821 0.48654 0.0
C406 C 0.57984 0.77851 0.5095 0.0
C407 C 0.57867 0.76512 0.54885 0.0
C408 C 0.60352 0.75138 0.56529 0.0
C409 C 0.78467 0.75004 0.53424 0.0
C410 C 0.79203 0.77663 0.55342 0.0
C411 C 0.75735 0.73744 0.54149 0.0
C412 C 0.73693 0.75143 0.56761 0.0
C413 C 0.74389 0.77842 0.58584 0.0
C414 C 0.77139 0.79082 0.5791 0.0
C415 C 0.70837 0.73756 0.57561 0.0
C416 C 0.68303 0.75088 0.55968 0.0
C417 C 0.70653 0.70986 0.5951 0.0
C418 C 0.73229 0.69586 0.61526 0.0
C419 C 0.74818 0.7108 0.6463 0.0
C420 C 0.77233 0.69751 0.66541 0.0
C421 C 0.78074 0.66921 0.65388 0.0
C422 C 0.76499 0.65413 0.62324 0.0
C423 C 0.74083 0.66732 0.60401 0.0
H424 H 0.79944 0.65896 0.66872 0.0
H425 H 0.56058 0.78913 0.49682 0.0
H426 H 0.3608 0.58735 0.44415 0.0
H427 H 0.33116 0.63218 0.4424 0.0
H428 H 0.36069 0.65406 0.56671 0.0
H429 H 0.38965 0.60921 0.56936 0.0
H430 H 0.28701 0.65582 0.49101 0.0
H431 H 0.3774 0.72537 0.56998 0.0
H432 H 0.4312 0.72547 0.57651 0.0
H433 H 0.43883 0.67937 0.45976 0.0
H434 H 0.38513 0.67938 0.45222 0.0
H435 H 0.2292 0.78834 0.56717 0.0
H436 H 0.25565 0.7422 0.55972 0.0
H437 H 0.30843 0.77987 0.46148 0.0
H438 H 0.28274 0.82662 0.46989 0.0
H439 H 0.34133 0.74848 0.5136 0.0
H440 H 0.2527 0.73352 0.43776 0.0
H441 H 0.19931 0.73351 0.42661 0.0
H442 H 0.18883 0.67122 0.5263 0.0
H443 H 0.24214 0.67116 0.53846 0.0
C444 C 0.36039 0.60137 0.47152 0.0
C445 C 0.3776 0.59476 0.50687 0.0
C446 C 0.34351 0.62696 0.47042 0.0
C447 C 0.34408 0.64651 0.50429 0.0
C448 C 0.36015 0.63926 0.54024 0.0
C449 C 0.37654 0.61351 0.54174 0.0
C450 C 0.32921 0.67525 0.50164 0.0
C451 C 0.29883 0.6761 0.49581 0.0
C452 C 0.34484 0.70171 0.50695 0.0
C453 C 0.37722 0.7022 0.51072 0.0
C454 C 0.39057 0.71542 0.54558 0.0
C455 C 0.42105 0.71542 0.54948 0.0
C456 C 0.43842 0.70237 0.51863 0.0
C457 C 0.42535 0.68939 0.4837 0.0
C458 C 0.39489 0.68937 0.47962 0.0
C459 C 0.24675 0.787 0.54443 0.0
C460 C 0.25393 0.81119 0.51918 0.0
C461 C 0.26158 0.76047 0.53982 0.0
C462 C 0.28366 0.75747 0.50957 0.0
C463 C 0.29131 0.78169 0.48484 0.0
C464 C 0.27653 0.80831 0.48951 0.0
C465 C 0.29892 0.72907 0.50416 0.0
C466 C 0.32945 0.72826 0.50849 0.0
C467 C 0.28347 0.70274 0.49666 0.0
C468 C 0.25141 0.7025 0.48921 0.0
C469 C 0.239 0.71996 0.45749 0.0
C470 C 0.20875 0.71995 0.45096 0.0
C471 C 0.19069 0.70242 0.47578 0.0
C472 C 0.20285 0.6848 0.50711 0.0
C473 C 0.23309 0.68475 0.5138 0.0
H474 H 0.16727 0.70245 0.47069 0.0
H475 H 0.462 0.70236 0.52174 0.0
H476 H 0.40867 0.35347 0.58016 0.0
H477 H 0.37323 0.31418 0.58974 0.0
H478 H 0.35964 0.31023 0.45613 0.0
H479 H 0.39545 0.34914 0.44595 0.0
H480 H 0.31655 0.32534 0.56658 0.0
H481 H 0.33406 0.24133 0.43221 0.0
H482 H 0.375 0.21734 0.39523 0.0
H483 H 0.43007 0.22911 0.50291 0.0
H484 H 0.38937 0.25279 0.54076 0.0
H485 H 0.18622 0.26216 0.49189 0.0
H486 H 0.23475 0.28462 0.4963 0.0
H487 H 0.26665 0.20988 0.56545 0.0
H488 H 0.21808 0.1873 0.56116 0.0
H489 H 0.30399 0.22846 0.49882 0.0
H490 H 0.25412 0.26741 0.61873 0.0
H491 H 0.21361 0.29155 0.65644 0.0
H492 H 0.22514 0.36903 0.58206 0.0
H493 H 0.26541 0.3452 0.54341 0.0
C494 C 0.39873 0.34377 0.55265 0.0
C495 C 0.40443 0.35483 0.5123 0.0
C496 C 0.37847 0.32136 0.55827 0.0
C497 C 0.36364 0.30965 0.52374 0.0
C498 C 0.37102 0.31892 0.48318 0.0
C499 C 0.39139 0.34128 0.47745 0.0
C500 C 0.33743 0.29141 0.53032 0.0
C501 C 0.31395 0.30396 0.55229 0.0
C502 C 0.33416 0.26359 0.51158 0.0
C503 C 0.35868 0.24904 0.48922 0.0
C504 C 0.35485 0.23867 0.44809 0.0
C505 C 0.37803 0.22515 0.42695 0.0
C506 C 0.40513 0.22177 0.44667 0.0
C507 C 0.40909 0.23183 0.48761 0.0
C508 C 0.38599 0.24536 0.5089 0.0
C509 C 0.20362 0.25055 0.50795 0.0
C510 C 0.1985 0.22312 0.52635 0.0
C511 C 0.23122 0.26338 0.51056 0.0
C512 C 0.2541 0.24888 0.53136 0.0
C513 C 0.24917 0.22134 0.54934 0.0
C514 C 0.22147 0.20863 0.54713 0.0
C515 C 0.28313 0.26275 0.53435 0.0
C516 C 0.30692 0.24953 0.5139 0.0
C517 C 0.28683 0.28996 0.55465 0.0
C518 C 0.26264 0.3044 0.57792 0.0
C519 C 0.24785 0.28951 0.61015 0.0
C520 C 0.22496 0.30315 0.63175 0.0
C521 C 0.21677 0.33178 0.62159 0.0
C522 C 0.23149 0.34685 0.58987 0.0
C523 C 0.25437 0.33329 0.56813 0.0
H524 H 0.19905 0.34231 0.63836 0.0
H525 H 0.42305 0.21131 0.43024 0.0
H526 H 0.63108 0.40843 0.58199 0.0
H527 H 0.67012 0.37177 0.58965 0.0
H528 H 0.64528 0.33305 0.47175 0.0
H529 H 0.60677 0.3697 0.46333 0.0
H530 H 0.64997 0.29352 0.54568 0.0
H531 H 0.70187 0.36767 0.46709 0.0
H532 H 0.71977 0.41781 0.45474 0.0
H533 H 0.76747 0.41499 0.57065 0.0
H534 H 0.74942 0.36495 0.58401 0.0
H535 H 0.75915 0.19385 0.48968 0.0
H536 H 0.72459 0.23452 0.4913 0.0
H537 H 0.77203 0.27328 0.59406 0.0
H538 H 0.80756 0.23295 0.5916 0.0
H539 H 0.75636 0.31419 0.53648 0.0
H540 H 0.70836 0.23852 0.61258 0.0
H541 H 0.68983 0.1888 0.62637 0.0
H542 H 0.63405 0.19464 0.51839 0.0
H543 H 0.65255 0.24425 0.50357 0.0
C544 C 0.63411 0.39224 0.55756 0.0
C545 C 0.61583 0.39193 0.52208 0.0
C546 C 0.65639 0.3714 0.56198 0.0
C547 C 0.66038 0.34977 0.5313 0.0
C548 C 0.64238 0.34956 0.49577 0.0
C549 C 0.62049 0.37061 0.49098 0.0
C550 C 0.68272 0.32667 0.53661 0.0
C551 C 0.67324 0.29792 0.5434 0.0
C552 C 0.71298 0.33277 0.53492 0.0
C553 C 0.72399 0.36274 0.52682 0.0
C554 C 0.71591 0.37786 0.49016 0.0
C555 C 0.72614 0.40623 0.48293 0.0
C556 C 0.74466 0.41962 0.51197 0.0
C557 C 0.75307 0.40461 0.54823 0.0
C558 C 0.74286 0.37624 0.55564 0.0
C559 C 0.76249 0.21117 0.51234 0.0
C560 C 0.78615 0.21018 0.54047 0.0
C561 C 0.74251 0.23426 0.51352 0.0
C562 C 0.74549 0.25671 0.5432 0.0
C563 C 0.76926 0.25608 0.57105 0.0
C564 C 0.78938 0.23293 0.56983 0.0
C565 C 0.72364 0.28074 0.54471 0.0
C566 C 0.73314 0.30972 0.5393 0.0
C567 C 0.69331 0.27488 0.54795 0.0
C568 C 0.68202 0.24505 0.55679 0.0
C569 C 0.6923 0.22913 0.59159 0.0
C570 C 0.68178 0.20097 0.59962 0.0
C571 C 0.66082 0.18854 0.57323 0.0
C572 C 0.6503 0.20428 0.53879 0.0
C573 C 0.66077 0.23244 0.53059 0.0
H574 H 0.65269 0.16674 0.5795 0.0
H575 H 0.75257 0.44158 0.50632 0.0
H576 H 0.05176 0.08048 0.12768 0.0
H577 H 0.07625 0.10752 0.18333 0.0
H578 H 0.99277 0.1243 0.24208 0.0
H579 H 0.96813 0.09854 0.18536 0.0
H580 H 0.02548 0.17153 0.24636 0.0
H581 H 0.04084 0.06805 0.27491 0.0
H582 H 0.05835 0.01778 0.261 0.0
H583 H 0.14575 0.04982 0.24372 0.0
H584 H 0.12876 0.10028 0.25696 0.0
H585 H 0.07038 0.19418 0.45868 0.0
H586 H 0.0487 0.18026 0.39156 0.0
H587 H 0.13499 0.16727 0.33975 0.0
H588 H 0.15671 0.17946 0.40709 0.0
H589 H 0.10304 0.12123 0.32799 0.0
H590 H 0.0894 0.22372 0.30964 0.0
H591 H 0.07293 0.27366 0.32702 0.0
H592 H 0.98346 0.24522 0.32533 0.0
H593 H -0.00057 0.19503 0.30837 0.0
C594 C 0.03862 0.09013 0.15209 0.0
C595 C 0.00804 0.08743 0.15182 0.0
C596 C 0.05264 0.10547 0.18413 0.0
C597 C 0.03637 0.11767 0.21719 0.0
C598 C 0.00579 0.11521 0.21682 0.0
C599 C 0.99176 0.10034 0.18442 0.0
C600 C 0.05112 0.13216 0.25293 0.0
C601 C 0.04229 0.16051 0.26452 0.0
C602 C 0.07361 0.1181 0.27582 0.0
C603 C 0.0835 0.08791 0.26655 0.0
C604 C 0.06372 0.06439 0.2677 0.0
C605 C 0.07356 0.0359 0.26003 0.0
C606 C 0.10311 0.03076 0.25154 0.0
C607 C 0.12288 0.05396 0.25032 0.0
C608 C 0.11317 0.08246 0.25789 0.0
C609 C 0.08473 0.18844 0.43295 0.0
C610 C 0.11529 0.18771 0.43843 0.0
C611 C 0.07231 0.18091 0.39442 0.0
C612 C 0.09025 0.17291 0.36057 0.0
C613 C 0.12075 0.17346 0.36544 0.0
C614 C 0.13315 0.18067 0.40395 0.0
C615 C 0.0774 0.16064 0.32178 0.0
C616 C 0.08649 0.13256 0.30969 0.0
C617 C 0.05526 0.17508 0.29856 0.0
C618 C 0.04565 0.20539 0.30853 0.0
C619 C 0.06623 0.22799 0.31348 0.0
C620 C 0.05698 0.2564 0.3231 0.0
C621 C 0.02718 0.26259 0.32751 0.0
C622 C 0.00655 0.24039 0.32209 0.0
C623 C 0.0157 0.21196 0.31248 0.0
H624 H 0.02006 0.2846 0.33495 0.0
H625 H 0.11079 0.00882 0.2462 0.0
H626 H 0.91655 0.98103 0.20837 0.0
H627 H 0.89719 0.01071 0.26554 0.0
H628 H 0.89454 0.08624 0.18512 0.0
H629 H 0.91247 0.05652 0.12712 0.0
H630 H 0.91995 0.09809 0.2621 0.0
H631 H 0.83193 0.05398 0.21062 0.0
H632 H 0.8013 0.0129 0.18664 0.0
H633 H 0.81018 0.97141 0.30681 0.0
H634 H 0.8411 0.01212 0.33138 0.0
H635 H 0.80076 0.14344 0.42758 0.0
H636 H 0.81507 0.12276 0.36003 0.0
H637 H 0.90142 0.10474 0.40844 0.0
H638 H 0.88773 0.12667 0.47546 0.0
H639 H 0.83095 0.06911 0.34093 0.0
H640 H 0.95154 0.10738 0.32933 0.0
H641 H 0.98202 0.1486 0.35322 0.0
H642 H 0.90638 0.20456 0.3558 0.0
H643 H 0.87552 0.16381 0.33133 0.0
C644 C 0.9118 0.00393 0.20256 0.0
C645 C 0.91667 0.01654 0.16294 0.0
C646 C 0.90084 0.0208 0.23543 0.0
C647 C 0.8947 0.05057 0.22969 0.0
C648 C 0.89941 0.06329 0.19033 0.0
C649 C 0.90991 0.04629 0.15715 0.0
C650 C 0.88364 0.06823 0.2652 0.0
C651 C 0.90038 0.09197 0.27923 0.0
C652 C 0.85798 0.0603 0.28717 0.0
C653 C 0.83893 0.03604 0.27277 0.0
C654 C 0.82744 0.03604 0.23188 0.0
C655 C 0.81001 0.01283 0.21819 0.0
C656 C 0.80382 0.98954 0.24517 0.0
C657 C 0.81497 0.98947 0.28595 0.0
C658 C 0.83239 0.01264 0.29981 0.0
C659 C 0.82298 0.13558 0.42364 0.0
C660 C 0.84315 0.13685 0.4569 0.0
C661 C 0.83103 0.12353 0.38511 0.0
C662 C 0.8594 0.11249 0.37901 0.0
C663 C 0.87956 0.11358 0.41217 0.0
C664 C 0.87158 0.12581 0.45064 0.0
C665 C 0.86752 0.09879 0.3385 0.0
C666 C 0.85031 0.07562 0.3236 0.0
C667 C 0.89263 0.10744 0.3156 0.0
C668 C 0.91115 0.13241 0.32895 0.0
C669 C 0.94143 0.12852 0.33476 0.0
C670 C 0.95877 0.15179 0.34849 0.0
C671 C 0.94609 0.17912 0.3563 0.0
C672 C 0.91613 0.18332 0.34998 0.0
C673 C 0.8987 0.16014 0.33622 0.0
H674 H 0.9595 0.19707 0.36718 0.0
H675 H 0.79035 0.97157 0.23449 0.0
H676 H 0.94573 0.9198 0.15662 0.0
H677 H 0.92044 0.8984 0.21678 0.0
H678 H 0.00188 0.86151 0.26035 0.0
H679 H 0.02753 0.88384 0.20128 0.0
H680 H 0.95407 0.82165 0.2608 0.0
H681 H 0.97992 0.91703 0.305 0.0
H682 H 0.98341 0.97072 0.3085 0.0
H683 H 0.89018 0.977 0.32299 0.0
H684 H 0.88591 0.9235 0.31699 0.0
H685 H 0.91708 0.79249 0.47598 0.0
H686 H 0.93924 0.80734 0.40937 0.0
H687 H 0.85737 0.84622 0.37108 0.0
H688 H 0.83514 0.83158 0.43771 0.0
H689 H 0.90486 0.88396 0.3669 0.0
H690 H 0.88066 0.78636 0.32278 0.0
H691 H 0.88023 0.73252 0.32809 0.0
H692 H 0.97411 0.73076 0.32278 0.0
H693 H 0.97513 0.78465 0.31804 0.0
C694 C 0.95833 0.90749 0.17916 0.0
C695 C 0.98871 0.90399 0.17437 0.0
C696 C 0.94382 0.89511 0.21342 0.0
C697 C 0.95936 0.87852 0.24304 0.0
C698 C 0.98953 0.87426 0.23778 0.0
C699 C 0.00412 0.88711 0.20402 0.0
C700 C 0.94423 0.86584 0.27978 0.0
C701 C 0.94343 0.83526 0.28415 0.0
C702 C 0.93022 0.88368 0.31 0.0
C703 C 0.93254 0.91613 0.30972 0.0
C704 C 0.96005 0.92985 0.3076 0.0
C705 C 0.96218 0.96032 0.31015 0.0
C706 C 0.93704 0.9773 0.31572 0.0
C707 C 0.90965 0.96388 0.31827 0.0
C708 C 0.90733 0.93349 0.31495 0.0
C709 C 0.90375 0.80392 0.45312 0.0
C710 C 0.87444 0.81102 0.46202 0.0
C711 C 0.91635 0.81218 0.41501 0.0
C712 C 0.89988 0.82776 0.3853 0.0
C713 C 0.87038 0.83409 0.3936 0.0
C714 C 0.85769 0.82561 0.43152 0.0
C715 C 0.91414 0.83987 0.34744 0.0
C716 C 0.91504 0.87038 0.34308 0.0
C717 C 0.92854 0.822 0.31767 0.0
C718 C 0.92797 0.78959 0.32044 0.0
C719 C 0.90123 0.77452 0.32312 0.0
C720 C 0.90087 0.74398 0.32595 0.0
C721 C 0.92713 0.72823 0.32588 0.0
C722 C 0.95379 0.74299 0.32287 0.0
C723 C 0.95426 0.77353 0.32007 0.0
H724 H 0.92681 0.70459 0.32806 0.0
H725 H 0.93878 0.00087 0.31825 0.0
H726 H 0.12747 0.99024 0.13531 0.0
H727 H 0.15379 0.96763 0.19412 0.0
H728 H 0.07162 0.939 0.2467 0.0
H729 H 0.04543 0.96166 0.18782 0.0
H730 H 0.10394 0.97086 0.30164 0.0
H731 H 0.12328 0.8837 0.21459 0.0
H732 H 0.14143 0.85696 0.15266 0.0
H733 H 0.22391 0.90136 0.16173 0.0
H734 H 0.20654 0.92755 0.22475 0.0
H735 H 0.1517 0.88657 0.4717 0.0
H736 H 0.13031 0.90671 0.40783 0.0
H737 H 0.21686 0.92004 0.35693 0.0
H738 H 0.23828 0.89854 0.42049 0.0
H739 H 0.18498 0.89847 0.29989 0.0
H740 H 0.17169 0.97824 0.3921 0.0
H741 H 0.15754 0.00487 0.45618 0.0
H742 H 0.06759 0.98186 0.43614 0.0
H743 H 0.08123 0.95469 0.37226 0.0
C744 C 0.11523 0.97862 0.15915 0.0
C745 C 0.08462 0.97742 0.15737 0.0
C746 C 0.13023 0.96543 0.19237 0.0
C747 C 0.11468 0.95133 0.22455 0.0
C748 C 0.08403 0.94956 0.22204 0.0
C749 C 0.06911 0.96242 0.18853 0.0
C750 C 0.12992 0.94198 0.26329 0.0
C751 C 0.12143 0.95476 0.30141 0.0
C752 C 0.15367 0.92219 0.26274 0.0
C753 C 0.16355 0.90773 0.22387 0.0
C754 C 0.14518 0.88792 0.20307 0.0
C755 C 0.15537 0.87279 0.16793 0.0
C756 C 0.18368 0.87775 0.15297 0.0
C757 C 0.20196 0.89765 0.17329 0.0
C758 C 0.19205 0.91246 0.20888 0.0
C759 C 0.16612 0.89408 0.44698 0.0
C760 C 0.19658 0.89125 0.45091 0.0
C761 C 0.15391 0.90576 0.41061 0.0
C762 C 0.17196 0.91551 0.37784 0.0
C763 C 0.20249 0.91278 0.38184 0.0
C764 C 0.21471 0.90055 0.41803 0.0
C765 C 0.15874 0.92697 0.33862 0.0
C766 C 0.16767 0.91478 0.30034 0.0
C767 C 0.1359 0.94801 0.33896 0.0
C768 C 0.12755 0.96417 0.37756 0.0
C769 C 0.14892 0.97862 0.40154 0.0
C770 C 0.14098 0.99387 0.4378 0.0
C771 C 0.1117 0.995 0.45028 0.0
C772 C 0.09027 0.98094 0.42647 0.0
C773 C 0.0981 0.96563 0.3902 0.0
H774 H 0.10559 0.00683 0.47835 0.0
H775 H 0.19156 0.86604 0.12586 0.0
H776 H 0.05717 0.97795 0.8604 0.0
H777 H 0.08052 0.95159 0.80262 0.0
H778 H 0.15834 0.93989 0.87742 0.0
H779 H 0.13516 0.96617 0.93537 0.0
H780 H 0.16933 0.96443 0.79982 0.0
H781 H 0.11634 0.88462 0.85749 0.0
H782 H 0.07534 0.85418 0.88188 0.0
H783 H 0.03663 0.85761 0.75939 0.0
H784 H 0.07678 0.88894 0.73454 0.0
H785 H 0.23928 0.87963 0.63939 0.0
H786 H 0.21945 0.8952 0.70728 0.0
H787 H 0.13402 0.90538 0.65144 0.0
H788 H 0.15335 0.88896 0.58425 0.0
H789 H 0.13054 0.87779 0.72479 0.0
H790 H 0.17779 0.96438 0.67093 0.0
H791 H 0.21919 0.9932 0.64361 0.0
H792 H 0.26731 0.97721 0.75698 0.0
H793 H 0.22631 0.94795 0.78475 0.0
C794 C 0.07911 0.96942 0.86472 0.0
C795 C 0.0945 0.97439 0.90217 0.0
C796 C 0.09235 0.95428 0.83179 0.0
C797 C 0.12114 0.9439 0.83584 0.0
C798 C 0.13613 0.94787 0.87374 0.0
C799 C 0.12283 0.96279 0.9068 0.0
C800 C 0.13629 0.93085 0.79945 0.0
C801 C 0.16116 0.94515 0.78382 0.0
C802 C 0.12512 0.90616 0.77817 0.0
C803 C 0.09969 0.88924 0.7941 0.0
C804 C 0.09881 0.87945 0.83591 0.0
C805 C 0.07575 0.8619 0.8498 0.0
C806 C 0.05363 0.85367 0.82206 0.0
C807 C 0.05393 0.86378 0.78077 0.0
C808 C 0.0768 0.8815 0.76679 0.0
C809 C 0.21624 0.88501 0.64176 0.0
C810 C 0.19792 0.88333 0.60644 0.0
C811 C 0.20501 0.89409 0.68041 0.0
C812 C 0.17533 0.90169 0.68424 0.0
C813 C 0.157 0.89967 0.64914 0.0
C814 C 0.16815 0.89058 0.61066 0.0
C815 C 0.16304 0.91178 0.72466 0.0
C816 C 0.13877 0.89692 0.74107 0.0
C817 C 0.17448 0.93617 0.74638 0.0
C818 C 0.19915 0.95368 0.72968 0.0
C819 C 0.19731 0.96679 0.68986 0.0
C820 C 0.22067 0.98325 0.67434 0.0
C821 C 0.2459 0.98695 0.69848 0.0
C822 C 0.24778 0.97427 0.73827 0.0
C823 C 0.22449 0.95775 0.75392 0.0
H824 H 0.26396 -0.00028 0.68642 0.0
H825 H 0.03638 0.83927 0.83246 0.0
H826 H 0.98596 0.04862 0.84412 0.0
H827 H 0.01527 0.06544 0.78455 0.0
H828 H 0.02782 0.1488 0.84534 0.0
H829 H 0.99867 0.13227 0.90487 0.0
H830 H 0.01151 0.1549 0.76434 0.0
H831 H 0.08239 0.10305 0.8427 0.0
H832 H 0.10707 0.06306 0.88077 0.0
H833 H 0.10692 0.0104 0.76938 0.0
H834 H 0.08166 0.0499 0.73071 0.0
H835 H 0.12145 0.21056 0.63102 0.0
H836 H 0.09704 0.19133 0.69347 0.0
H837 H 0.07995 0.11024 0.62885 0.0
H838 H 0.10465 0.12927 0.56626 0.0
H839 H 0.10001 0.10307 0.71274 0.0
H840 H 0.02763 0.15687 0.6352 0.0
H841 H 0.00712 0.19966 0.59829 0.0
H842 H 0.01254 0.25043 0.71123 0.0
H843 H 0.03362 0.20805 0.74867 0.0
C844 C 0.995 0.07052 0.84481 0.0
C845 C 0.99004 0.08913 0.8792 0.0
C846 C 0.01186 0.08 0.81091 0.0
C847 C 0.02392 0.10823 0.81086 0.0
C848 C 0.01876 0.1269 0.84492 0.0
C849 C 0.00209 0.1174 0.87888 0.0
C850 C 0.04104 0.11876 0.77459 0.0
C851 C 0.03104 0.14373 0.75333 0.0
C852 C 0.06633 0.10395 0.76013 0.0
C853 C 0.07982 0.07938 0.78387 0.0
C854 C 0.08712 0.08277 0.82645 0.0
C855 C 0.10134 0.06024 0.8481 0.0
C856 C 0.10865 0.03429 0.82743 0.0
C857 C 0.1013 0.03058 0.78527 0.0
C858 C 0.08699 0.05302 0.76349 0.0
C859 C 0.11274 0.18853 0.6303 0.0
C860 C 0.11476 0.17143 0.59382 0.0
C861 C 0.09875 0.17764 0.66586 0.0
C862 C 0.0866 0.14947 0.66554 0.0
C863 C 0.08923 0.13204 0.62957 0.0
C864 C 0.10305 0.14301 0.59384 0.0
C865 C 0.07008 0.13877 0.70223 0.0
C866 C 0.08032 0.11397 0.72367 0.0
C867 C 0.04508 0.1538 0.7171 0.0
C868 C 0.03259 0.17939 0.6946 0.0
C869 C 0.02483 0.17727 0.65203 0.0
C870 C 0.01302 0.20142 0.63104 0.0
C871 C 0.00864 0.22778 0.65236 0.0
C872 C 0.01602 0.23002 0.69473 0.0
C873 C 0.02789 0.20593 0.71586 0.0
H874 H -0.00057 0.24645 0.63607 0.0
H875 H 0.12023 0.01715 0.84399 0.0
H876 H 0.87696 0.01551 0.92857 0.0
H877 H 0.86156 0.04406 0.86777 0.0
H878 H 0.9382 0.01548 0.80012 0.0
H879 H 0.95391 0.9868 0.86107 0.0
H880 H 0.9284 0.07506 0.79334 0.0
H881 H 0.87057 0.98617 0.76683 0.0
H882 H 0.83679 0.94669 0.78812 0.0
H883 H 0.77408 0.01068 0.82926 0.0
H884 H 0.80746 0.05046 0.80797 0.0
H885 H 0.88812 0.12113 0.59085 0.0
H886 H 0.90283 0.09383 0.65285 0.0
H887 H 0.81975 0.11314 0.71106 0.0
H888 H 0.8039 0.13856 0.64765 0.0
H889 H 0.83239 0.05901 0.7244 0.0
H890 H 0.88613 0.14793 0.74467 0.0
H891 H 0.9179 0.18837 0.72133 0.0
H892 H 0.98648 0.12699 0.69322 0.0
H893 H 0.95539 0.0863 0.71738 0.0
C894 C 0.89054 0.01518 0.90075 0.0
C895 C 0.9166 0.99879 0.89958 0.0
C896 C 0.88159 0.03139 0.86592 0.0
C897 C 0.8985 0.03152 0.82923 0.0
C898 C 0.92475 0.0155 0.82808 0.0
C899 C 0.93367 0.99913 0.86289 0.0
C900 C 0.88912 0.04907 0.79254 0.0
C901 C 0.90758 0.07134 0.7779 0.0
C902 C 0.86156 0.0449 0.77331 0.0
C903 C 0.84158 0.02116 0.78632 0.0
C904 C 0.84962 0.99174 0.78062 0.0
C905 C 0.83053 0.96935 0.79255 0.0
C906 C 0.80338 0.97617 0.81025 0.0
C907 C 0.79515 0.00542 0.81569 0.0
C908 C 0.81409 0.02788 0.80357 0.0
C909 C 0.87279 0.11938 0.61661 0.0
C910 C 0.84474 0.13205 0.61402 0.0
C911 C 0.88146 0.10413 0.65244 0.0
C912 C 0.86264 0.10185 0.68707 0.0
C913 C 0.83474 0.11472 0.68485 0.0
C914 C 0.82584 0.12958 0.64869 0.0
C915 C 0.87169 0.08504 0.72486 0.0
C916 C 0.85318 0.06292 0.73982 0.0
C917 C 0.899 0.08965 0.74475 0.0
C918 C 0.91841 0.11412 0.73256 0.0
C919 C 0.90807 0.14313 0.73374 0.0
C920 C 0.92598 0.16609 0.72053 0.0
C921 C 0.95422 0.16028 0.70596 0.0
C922 C 0.96472 0.13152 0.70492 0.0
C923 C 0.94704 0.10851 0.71864 0.0
H924 H 0.96786 0.17811 0.69539 0.0
H925 H 0.78869 0.95881 0.8196 0.0
H926 H 0.01012 0.93408 0.86397 0.0
H927 H 0.97984 0.91407 0.8077 0.0
H928 H 0.97618 0.83099 0.87173 0.0
H929 H 0.00639 0.85074 0.92831 0.0
H930 H 0.992 0.82987 0.78151 0.0
H931 H 0.91648 0.85862 0.87487 0.0
H932 H 0.89288 0.89149 0.92611 0.0
H933 H 0.88641 0.95871 0.83283 0.0
H934 H 0.90967 0.92622 0.78062 0.0
H935 H 0.87847 0.77436 0.64769 0.0
H936 H 0.90474 0.78881 0.71149 0.0
H937 H 0.91543 0.87599 0.66183 0.0
H938 H 0.8896 0.86149 0.59765 0.0
H939 H 0.89364 0.87083 0.75007 0.0
H940 H 0.97061 0.83713 0.65603 0.0
H941 H 0.99454 0.80124 0.6095 0.0
H942 H 0.99874 0.73927 0.7106 0.0
H943 H 0.9744 0.77467 0.75758 0.0
C944 C 0.00291 0.91155 0.86608 0.0
C945 C 0.01067 0.89394 0.90044 0.0
C946 C 0.98559 0.90022 0.83405 0.0
C947 C 0.97589 0.87116 0.8359 0.0
C948 C 0.98357 0.85348 0.87001 0.0
C949 C 0.00084 0.8648 0.90214 0.0
C950 C 0.95798 0.85936 0.80162 0.0
C951 C 0.97037 0.8385 0.7748 0.0
C952 C 0.92977 0.87056 0.79344 0.0
C953 C 0.91485 0.89002 0.82389 0.0
C954 C 0.91 0.88044 0.86524 0.0
C955 C 0.89664 0.89897 0.8944 0.0
C956 C 0.88791 0.92708 0.88254 0.0
C957 C 0.89272 0.93677 0.8416 0.0
C958 C 0.90594 0.9183 0.81218 0.0
C959 C 0.88649 0.79657 0.65051 0.0
C960 C 0.88225 0.81684 0.61795 0.0
C961 C 0.90139 0.80476 0.68679 0.0
C962 C 0.91184 0.83342 0.69115 0.0
C963 C 0.90736 0.8538 0.65888 0.0
C964 C 0.89289 0.84547 0.62228 0.0
C965 C 0.9281 0.84198 0.72903 0.0
C966 C 0.91528 0.86216 0.7567 0.0
C967 C 0.95577 0.82968 0.7384 0.0
C968 C 0.97032 0.80839 0.71014 0.0
C969 C 0.97634 0.81573 0.66821 0.0
C970 C 0.99005 0.79551 0.64179 0.0
C971 C 0.99806 0.76795 0.65704 0.0
C972 C 0.99246 0.76059 0.69879 0.0
C973 C 0.97871 0.78073 0.72533 0.0
H974 H 0.0087 0.75233 0.63654 0.0
H975 H 0.87746 0.94137 0.9051 0.0
H976 H 0.50325 0.5383 0.67471 0.0
H977 H 0.5308 0.55806 0.73422 0.0
H978 H 0.54803 0.63687 0.66347 0.0
H979 H 0.52226 0.61596 0.60307 0.0
H980 H 0.595 0.6218 0.70197 0.0
H981 H 0.49505 0.63221 0.74299 0.0
H982 H 0.44441 0.61609 0.75626 0.0
H983 H 0.47506 0.55659 0.85091 0.0
H984 H 0.52592 0.57177 0.83746 0.0
H985 H 0.63433 0.70469 0.88775 0.0
H986 H 0.61267 0.68669 0.82236 0.0
H987 H 0.60546 0.60034 0.87608 0.0
H988 H 0.62756 0.61793 0.941 0.0
H989 H 0.55302 0.62215 0.84531 0.0
H990 H 0.65383 0.61261 0.80089 0.0
H991 H 0.70388 0.6291 0.78436 0.0
H992 H 0.66974 0.69045 0.69468 0.0
H993 H 0.61943 0.6748 0.71142 0.0
C994 C 0.51322 0.55971 0.67209 0.0
C995 C 0.51137 0.57554 0.63463 0.0
C996 C 0.52866 0.57113 0.70603 0.0
C997 C 0.54123 0.59913 0.70347 0.0
C998 C 0.53874 0.61515 0.66604 0.0
C999 C 0.52402 0.60333 0.63172 0.0
C1000 C 0.55721 0.6116 0.73966 0.0
C1001 C 0.58562 0.62235 0.73321 0.0
C1002 C 0.54508 0.61195 0.78049 0.0
C1003 C 0.51438 0.60298 0.78896 0.0
C1004 C 0.49103 0.61552 0.7664 0.0
C1005 C 0.46227 0.60653 0.77392 0.0
C1006 C 0.45652 0.58527 0.80429 0.0
C1007 C 0.47952 0.57298 0.82727 0.0
C1008 C 0.50833 0.58177 0.8197 0.0
C1009 C 0.62876 0.68172 0.88523 0.0
C1010 C 0.63229 0.66279 0.91965 0.0
C1011 C 0.61635 0.67151 0.84794 0.0
C1012 C 0.60736 0.64225 0.84461 0.0
C1013 C 0.61207 0.62305 0.87823 0.0
C1014 C 0.62456 0.63317 0.91531 0.0
C1015 C 0.59085 0.63204 0.80762 0.0
C1016 C 0.56225 0.62181 0.81398 0.0
C1017 C 0.60262 0.63266 0.76666 0.0
C1018 C 0.63283 0.6428 0.75783 0.0
C1019 C 0.65696 0.62994 0.77814 0.0
C1020 C 0.68539 0.63908 0.76863 0.0
C1021 C 0.68999 0.66088 0.73859 0.0
C1022 C 0.66615 0.67363 0.71804 0.0
C1023 C 0.63768 0.66466 0.72756 0.0
H1024 H 0.71202 0.66781 0.73112 0.0
H1025 H 0.43424 0.5784 0.81007 0.0
H1026 H 0.36738 0.48176 0.62838 0.0
H1027 H 0.34739 0.50627 0.69067 0.0
H1028 H 0.43055 0.54829 0.7113 0.0
H1029 H 0.45102 0.522 0.65097 0.0
H1030 H 0.39646 0.51205 0.78276 0.0
H1031 H 0.37807 0.62015 0.70475 0.0
H1032 H 0.35854 0.64359 0.64093 0.0
H1033 H 0.29822 0.57254 0.62455 0.0
H1034 H 0.31679 0.54927 0.68911 0.0
H1035 H 0.39132 0.62202 0.93741 0.0
H1036 H 0.40056 0.59215 0.87528 0.0
H1037 H 0.30886 0.59637 0.84333 0.0
H1038 H 0.2996 0.62663 0.90535 0.0
H1039 H 0.34023 0.60501 0.77669 0.0
H1040 H 0.3407 0.53427 0.88587 0.0
H1041 H 0.35445 0.51055 0.95246 0.0
H1042 H 0.44321 0.50232 0.90983 0.0
H1043 H 0.43002 0.5259 0.84304 0.0
C1044 C 0.38119 0.49647 0.64607 0.0
C1045 C 0.41037 0.50106 0.63419 0.0
C1046 C 0.36973 0.51062 0.68128 0.0
C1047 C 0.38726 0.52979 0.70458 0.0
C1048 C 0.4165 0.53417 0.69291 0.0
C1049 C 0.42803 0.51969 0.6581 0.0
C1050 C 0.37593 0.54393 0.74279 0.0
C1051 C 0.38407 0.53234 0.78174 0.0
C1052 C 0.3592 0.56985 0.74107 0.0
C1053 C 0.3493 0.58267 0.701 0.0
C1054 C 0.36084 0.60944 0.68722 0.0
C1055 C 0.3498 0.62278 0.65108 0.0
C1056 C 0.32726 0.60945 0.62848 0.0
C1057 C 0.31581 0.58272 0.64191 0.0
C1058 C 0.32661 0.56944 0.67824 0.0
C1059 C 0.37314 0.61652 0.91712 0.0
C1060 C 0.34473 0.62658 0.92617 0.0
C1061 C 0.37841 0.59931 0.8818 0.0
C1062 C 0.3553 0.59151 0.85511 0.0
C1063 C 0.32699 0.602 0.86364 0.0
C1064 C 0.32174 0.61942 0.89887 0.0
C1065 C 0.36098 0.57344 0.81736 0.0
C1066 C 0.35216 0.58447 0.77829 0.0
C1067 C 0.37641 0.54649 0.81924 0.0
C1068 C 0.38446 0.53238 0.85963 0.0
C1069 C 0.36322 0.52768 0.89083 0.0
C1070 C 0.37089 0.51409 0.92857 0.0
C1071 C 0.3997 0.50496 0.93543 0.0
C1072 C 0.42089 0.50935 0.90452 0.0
C1073 C 0.41333 0.52282 0.86669 0.0
H1074 H 0.40559 0.49442 0.96464 0.0
H1075 H 0.31844 0.61993 0.60079 0.0
H1076 H 0.46211 0.38387 0.61379 0.0
H1077 H 0.42962 0.37206 0.67233 0.0
H1078 H 0.45132 0.45451 0.73095 0.0
H1079 H 0.48568 0.46499 0.67388 0.0
H1080 H 0.45198 0.41625 0.7866 0.0
H1081 H 0.38402 0.43608 0.67596 0.0
H1082 H 0.36093 0.43067 0.60643 0.0
H1083 H 0.33774 0.34206 0.63585 0.0
H1084 H 0.36186 0.34637 0.7045 0.0
H1085 H 0.34667 0.39987 0.94616 0.0
H1086 H 0.36941 0.41876 0.88226 0.0
H1087 H 0.36327 0.33322 0.82569 0.0
H1088 H 0.34033 0.31424 0.88952 0.0
H1089 H 0.3517 0.3768 0.76929 0.0
H1090 H 0.42602 0.35462 0.87248 0.0
H1091 H 0.44931 0.35824 0.94201 0.0
H1092 H 0.45892 0.45103 0.92605 0.0
H1093 H 0.43519 0.44806 0.85662 0.0
C1094 C 0.45988 0.3993 0.63938 0.0
C1095 C 0.47635 0.42512 0.63989 0.0
C1096 C 0.44107 0.39278 0.67256 0.0
C1097 C 0.43746 0.41263 0.70588 0.0
C1098 C 0.45371 0.43877 0.70578 0.0
C1099 C 0.47331 0.44477 0.67331 0.0
C1100 C 0.41817 0.40541 0.74203 0.0
C1101 C 0.42982 0.40824 0.78258 0.0
C1102 C 0.38943 0.39414 0.73707 0.0
C1103 C 0.37502 0.39153 0.69541 0.0
C1104 C 0.37432 0.41534 0.6674 0.0
C1105 C 0.3611 0.41243 0.62807 0.0
C1106 C 0.34798 0.38603 0.61667 0.0
C1107 C 0.34807 0.36245 0.64455 0.0
C1108 C 0.36162 0.36508 0.68362 0.0
C1109 C 0.34998 0.38515 0.91995 0.0
C1110 C 0.34206 0.3555 0.92295 0.0
C1111 C 0.36291 0.39598 0.88348 0.0
C1112 C 0.36846 0.37727 0.84951 0.0
C1113 C 0.3592 0.34801 0.85158 0.0
C1114 C 0.34609 0.3372 0.88802 0.0
C1115 C 0.38573 0.38758 0.81308 0.0
C1116 C 0.37372 0.38527 0.77278 0.0
C1117 C 0.41413 0.3993 0.81803 0.0
C1118 C 0.42859 0.40114 0.85957 0.0
C1119 C 0.43291 0.37583 0.88393 0.0
C1120 C 0.44619 0.37777 0.92329 0.0
C1121 C 0.45549 0.40488 0.93847 0.0
C1122 C 0.4516 0.43009 0.91426 0.0
C1123 C 0.43825 0.42829 0.8749 0.0
H1124 H 0.46578 0.40634 0.96895 0.0
H1125 H 0.33771 0.38384 0.58626 0.0
H1126 H 0.54268 0.5052 0.68938 0.0
H1127 H 0.55627 0.47588 0.75038 0.0
H1128 H 0.62204 0.4315 0.67649 0.0
H1129 H 0.60685 0.45969 0.61468 0.0
H1130 H 0.60041 0.39455 0.72764 0.0
H1131 H 0.63753 0.49182 0.7445 0.0
H1132 H 0.63472 0.54575 0.74711 0.0
H1133 H 0.57481 0.54083 0.85048 0.0
H1134 H 0.57693 0.48683 0.84818 0.0
H1135 H 0.69011 0.35409 0.9037 0.0
H1136 H 0.67109 0.37585 0.83906 0.0
H1137 H 0.59415 0.40522 0.90519 0.0
H1138 H 0.61246 0.38281 0.9696 0.0
H1139 H 0.62202 0.44924 0.85831 0.0
H1140 H 0.58819 0.34988 0.8406 0.0
H1141 H 0.59425 0.29631 0.83652 0.0
H1142 H 0.65338 0.30623 0.73289 0.0
H1143 H 0.648 0.35992 0.73675 0.0
C1144 C 0.55978 0.48898 0.68623 0.0
C1145 C 0.57397 0.48476 0.6478 0.0
C1146 C 0.5677 0.47234 0.72107 0.0
C1147 C 0.59087 0.45213 0.71847 0.0
C1148 C 0.60426 0.4471 0.67943 0.0
C1149 C 0.59566 0.46316 0.6442 0.0
C1150 C 0.6018 0.43713 0.75672 0.0
C1151 C 0.60548 0.40659 0.756 0.0
C1152 C 0.60819 0.45276 0.79399 0.0
C1153 C 0.60723 0.48526 0.79596 0.0
C1154 C 0.62365 0.50223 0.76767 0.0
C1155 C 0.62217 0.53279 0.76908 0.0
C1156 C 0.60456 0.54665 0.79888 0.0
C1157 C 0.58841 0.53002 0.82739 0.0
C1158 C 0.58977 0.49943 0.82609 0.0
C1159 C 0.66889 0.36468 0.90435 0.0
C1160 C 0.65289 0.36682 0.94192 0.0
C1161 C 0.65813 0.37721 0.86743 0.0
C1162 C 0.63125 0.39212 0.86746 0.0
C1163 C 0.61503 0.39393 0.90466 0.0
C1164 C 0.62562 0.38123 0.94145 0.0
C1165 C 0.62046 0.4068 0.8291 0.0
C1166 C 0.61691 0.4373 0.82986 0.0
C1167 C 0.61481 0.39123 0.79171 0.0
C1168 C 0.61792 0.35894 0.78925 0.0
C1169 C 0.60268 0.34066 0.81718 0.0
C1170 C 0.60596 0.31026 0.81486 0.0
C1171 C 0.62425 0.29787 0.78455 0.0
C1172 C 0.63925 0.31586 0.7564 0.0
C1173 C 0.63608 0.34627 0.75862 0.0
H1174 H 0.62675 0.27434 0.7828 0.0
H1175 H 0.60354 0.57027 0.79997 0.0
H1176 H 0.55715 0.47148 0.3827 0.0
H1177 H 0.5797 0.44384 0.32581 0.0
H1178 H 0.62644 0.52107 0.28657 0.0
H1179 H 0.60388 0.54898 0.34375 0.0
H1180 H 0.59914 0.49088 0.22124 0.0
H1181 H 0.6632 0.46973 0.33696 0.0
H1182 H 0.67455 0.45411 0.40919 0.0
H1183 H 0.63711 0.36974 0.38478 0.0
H1184 H 0.62523 0.38495 0.31247 0.0
H1185 H 0.68462 0.41825 0.07119 0.0
H1186 H 0.67074 0.4474 0.13241 0.0
H1187 H 0.63434 0.37033 0.19073 0.0
H1188 H 0.64916 0.34097 0.13002 0.0
H1189 H 0.65913 0.40211 0.24793 0.0
H1190 H 0.592 0.42112 0.13668 0.0
H1191 H 0.57503 0.43551 0.06627 0.0
H1192 H 0.61055 0.52157 0.0838 0.0
H1193 H 0.62827 0.50751 0.15403 0.0
C1194 C 0.5721 0.48264 0.3619 0.0
C1195 C 0.5788 0.51235 0.36777 0.0
C1196 C 0.58519 0.46674 0.32967 0.0
C1197 C 0.60512 0.48032 0.30257 0.0
C1198 C 0.61133 0.51018 0.30756 0.0
C1199 C 0.59841 0.52606 0.34012 0.0
C1200 C 0.61872 0.46339 0.26827 0.0
C1201 C 0.61261 0.47171 0.22695 0.0
C1202 C 0.63559 0.43796 0.27607 0.0
C1203 C 0.64315 0.42856 0.31934 0.0
C1204 C 0.65723 0.4479 0.34704 0.0
C1205 C 0.66379 0.43911 0.38799 0.0
C1206 C 0.6565 0.41098 0.40158 0.0
C1207 C 0.64273 0.39153 0.37419 0.0
C1208 C 0.63614 0.4002 0.33319 0.0
C1209 C 0.67397 0.40755 0.09738 0.0
C1210 C 0.66772 0.37748 0.09594 0.0
C1211 C 0.66593 0.42419 0.1322 0.0
C1212 C 0.65086 0.4112 0.16575 0.0
C1213 C 0.64583 0.38087 0.16516 0.0
C1214 C 0.65431 0.36411 0.13056 0.0
C1215 C 0.63928 0.4294 0.20055 0.0
C1216 C 0.64573 0.42132 0.24205 0.0
C1217 C 0.62205 0.45473 0.19298 0.0
C1218 C 0.61189 0.46309 0.15039 0.0
C1219 C 0.59653 0.443 0.12533 0.0
C1220 C 0.58671 0.45112 0.08548 0.0
C1221 C 0.59182 0.4794 0.0705 0.0
C1222 C 0.60671 0.49963 0.09537 0.0
C1223 C 0.61668 0.49159 0.13519 0.0
H1224 H 0.58414 0.48566 0.03966 0.0
H1225 H 0.66156 0.40425 0.43329 0.0
H1226 H 0.46852 0.5574 0.31882 0.0
H1227 H 0.49206 0.57674 0.25578 0.0
H1228 H 0.56159 0.6123 0.33164 0.0
H1229 H 0.53714 0.59486 0.39467 0.0
H1230 H 0.54668 0.65064 0.27807 0.0
H1231 H 0.56266 0.54642 0.27087 0.0
H1232 H 0.54711 0.49483 0.26771 0.0
H1233 H 0.50531 0.51054 0.14944 0.0
H1234 H 0.51932 0.56251 0.15276 0.0
H1235 H 0.65653 0.66437 0.11571 0.0
H1236 H 0.6295 0.64623 0.1766 0.0
H1237 H 0.54973 0.6463 0.10465 0.0
H1238 H 0.57595 0.6662 0.04441 0.0
H1239 H 0.5686 0.58999 0.15299 0.0
H1240 H 0.54659 0.69347 0.16444 0.0
H1241 H 0.55952 0.74582 0.16738 0.0
H1242 H 0.61313 0.72989 0.2756 0.0
H1243 H 0.60083 0.67733 0.27289 0.0
C1244 C 0.48879 0.5694 0.32194 0.0
C1245 C 0.50108 0.57444 0.36164 0.0
C1246 C 0.5023 0.58033 0.28589 0.0
C1247 C 0.52881 0.59571 0.28879 0.0
C1248 C 0.54115 0.60054 0.32848 0.0
C1249 C 0.52728 0.59031 0.36452 0.0
C1250 C 0.54356 0.60749 0.25089 0.0
C1251 C 0.55172 0.63714 0.25103 0.0
C1252 C 0.5495 0.59016 0.21491 0.0
C1253 C 0.54176 0.55859 0.21243 0.0
C1254 C 0.54993 0.53897 0.24439 0.0
C1255 C 0.54132 0.50965 0.24262 0.0
C1256 C 0.52532 0.4994 0.2084 0.0
C1257 C 0.5177 0.5185 0.17597 0.0
C1258 C 0.52583 0.54795 0.17791 0.0
C1259 C 0.63315 0.66115 0.11294 0.0
C1260 C 0.61854 0.6666 0.07485 0.0
C1261 C 0.61783 0.65049 0.14767 0.0
C1262 C 0.58779 0.6447 0.14474 0.0
C1263 C 0.57302 0.65034 0.10717 0.0
C1264 C 0.58815 0.66156 0.07274 0.0
C1265 C 0.57176 0.63266 0.18098 0.0
C1266 C 0.56349 0.60314 0.18035 0.0
C1267 C 0.56561 0.64993 0.2165 0.0
C1268 C 0.57312 0.68145 0.21811 0.0
C1269 C 0.56141 0.70108 0.18855 0.0
C1270 C 0.56855 0.7308 0.19026 0.0
C1271 C 0.58722 0.74116 0.22156 0.0
C1272 C 0.59873 0.72183 0.25131 0.0
C1273 C 0.59167 0.69208 0.24972 0.0
H1274 H 0.59271 0.76418 0.22285 0.0
H1275 H 0.51883 0.47664 0.207 0.0
H1276 H 0.37915 0.51862 0.39402 0.0
H1277 H 0.37048 0.55091 0.33432 0.0
H1278 H 0.43856 0.50692 0.26481 0.0
H1279 H 0.4474 0.47433 0.32455 0.0
H1280 H 0.43816 0.57034 0.25827 0.0
H1281 H 0.37428 0.4879 0.25253 0.0
H1282 H 0.33663 0.4537 0.27719 0.0
H1283 H 0.27363 0.52353 0.28083 0.0
H1284 H 0.31118 0.55846 0.25722 0.0
H1285 H 0.3981 0.62055 0.05559 0.0
H1286 H 0.41314 0.59363 0.11789 0.0
H1287 H 0.33331 0.61935 0.1803 0.0
H1288 H 0.31713 0.64455 0.11697 0.0
H1289 H 0.34096 0.56411 0.18994 0.0
H1290 H 0.40402 0.6474 0.21081 0.0
H1291 H 0.44095 0.68432 0.19131 0.0
H1292 H 0.5025 0.61611 0.16277 0.0
H1293 H 0.46602 0.57873 0.18245 0.0
C1294 C 0.39232 0.51577 0.36608 0.0
C1295 C 0.4136 0.49357 0.36366 0.0
C1296 C 0.38741 0.53433 0.33213 0.0
C1297 C 0.40373 0.53106 0.29523 0.0
C1298 C 0.42574 0.50966 0.29312 0.0
C1299 C 0.43054 0.4909 0.32705 0.0
C1300 C 0.39639 0.5488 0.25803 0.0
C1301 C 0.41707 0.56882 0.24299 0.0
C1302 C 0.36849 0.54712 0.23897 0.0
C1303 C 0.34578 0.52598 0.25326 0.0
C1304 C 0.35255 0.49616 0.25903 0.0
C1305 C 0.33117 0.47658 0.27282 0.0
C1306 C 0.30274 0.48643 0.2806 0.0
C1307 C 0.29567 0.51592 0.27473 0.0
C1308 C 0.31703 0.53563 0.26115 0.0
C1309 C 0.3837 0.62049 0.08255 0.0
C1310 C 0.35624 0.6345 0.08105 0.0
C1311 C 0.39256 0.60543 0.11844 0.0
C1312 C 0.37448 0.60463 0.15399 0.0
C1313 C 0.34763 0.61964 0.15323 0.0
C1314 C 0.33854 0.63435 0.11711 0.0
C1315 C 0.3825 0.58636 0.19072 0.0
C1316 C 0.36201 0.56589 0.20541 0.0
C1317 C 0.41035 0.58797 0.21 0.0
C1318 C 0.43228 0.61031 0.19792 0.0
C1319 C 0.42542 0.64028 0.20027 0.0
C1320 C 0.44632 0.66127 0.18937 0.0
C1321 C 0.47413 0.65253 0.17603 0.0
C1322 C 0.48108 0.62279 0.17351 0.0
C1323 C 0.46034 0.60172 0.18461 0.0
H1324 H 0.49028 0.66879 0.16757 0.0
H1325 H 0.28618 0.47121 0.29113 0.0
H1326 H 0.46074 0.36887 0.39984 0.0
H1327 H 0.43196 0.35844 0.33705 0.0
H1328 H 0.47405 0.42975 0.27232 0.0
H1329 H 0.50308 0.44034 0.33496 0.0
H1330 H 0.41239 0.42761 0.2603 0.0
H1331 H 0.49661 0.36483 0.25058 0.0
H1332 H 0.53204 0.3282 0.27634 0.0
H1333 H 0.46284 0.26563 0.29128 0.0
H1334 H 0.42691 0.30206 0.26614 0.0
H1335 H 0.3647 0.39153 0.05704 0.0
H1336 H 0.39336 0.40384 0.11822 0.0
H1337 H 0.37026 0.32143 0.17539 0.0
H1338 H 0.34478 0.3071 0.11175 0.0
H1339 H 0.423 0.33066 0.19168 0.0
H1340 H 0.33798 0.39446 0.20542 0.0
H1341 H 0.30278 0.43081 0.17798 0.0
H1342 H 0.37304 0.49083 0.15419 0.0
H1343 H 0.4086 0.45488 0.18176 0.0
C1344 C 0.46392 0.38234 0.37228 0.0
C1345 C 0.48436 0.40529 0.37231 0.0
C1346 C 0.44743 0.37636 0.33646 0.0
C1347 C 0.45102 0.39324 0.30005 0.0
C1348 C 0.47099 0.41649 0.30014 0.0
C1349 C 0.48766 0.42237 0.33588 0.0
C1350 C 0.43454 0.38593 0.26151 0.0
C1351 C 0.41482 0.40652 0.24503 0.0
C1352 C 0.43747 0.35829 0.24204 0.0
C1353 C 0.45904 0.33626 0.25687 0.0
C1354 C 0.48891 0.34334 0.25968 0.0
C1355 C 0.50909 0.3226 0.2741 0.0
C1356 C 0.49968 0.29463 0.28554 0.0
C1357 C 0.47009 0.28732 0.28246 0.0
C1358 C 0.44981 0.30799 0.26809 0.0
C1359 C 0.36608 0.37559 0.08207 0.0
C1360 C 0.35231 0.3481 0.07881 0.0
C1361 C 0.382 0.38308 0.11777 0.0
C1362 C 0.38338 0.36401 0.15224 0.0
C1363 C 0.3694 0.33672 0.14944 0.0
C1364 C 0.35435 0.32871 0.11306 0.0
C1365 C 0.40016 0.37205 0.19058 0.0
C1366 C 0.42018 0.35166 0.20703 0.0
C1367 C 0.39737 0.39983 0.21011 0.0
C1368 C 0.37591 0.42196 0.19545 0.0
C1369 C 0.34587 0.41544 0.19438 0.0
C1370 C 0.32588 0.43594 0.17876 0.0
C1371 C 0.33569 0.46304 0.16411 0.0
C1372 C 0.3655 0.46976 0.16529 0.0
C1373 C 0.38555 0.44942 0.18121 0.0
H1374 H 0.32018 0.4789 0.15209 0.0
H1375 H 0.51534 0.2786 0.2967 0.0
loop_
_geom_bond_atom_site_label_1
_geom_bond_atom_site_label_2
_geom_bond_distance
_geom_bond_site_symmetry_2
_ccdc_geom_bond_type
Zn0 O2 1.933 1_556 S
Zn0 O20 1.985 . S
Zn0 O31 1.955 . S
Zn1 O2 1.911 . S
Zn1 O21 1.970 . S
Zn1 O37 1.945 . S
Zn1 O44 1.981 . S
O2 Zn0 1.933 1_554 S
O2 Zn1 1.911 . S
O2 H3 0.841 1_655 S
H3 O2 0.841 1_455 S
C4 O5 1.246 . S
C4 O33 1.276 1_545 S
O5 C4 1.246 . S
Zn6 O8 1.911 . S
Zn6 O23 1.970 . S
Zn6 O40 1.945 . S
Zn6 O47 1.981 . S
Zn7 O8 1.933 1_556 S
Zn7 O22 1.985 . S
Zn7 O29 1.955 . S
O8 Zn6 1.911 . S
O8 Zn7 1.933 1_554 S
O8 H9 0.841 1_455 S
H9 O8 0.841 1_655 S
Zn10 O11 1.933 1_556 S
Zn10 O24 1.985 . S
Zn10 O33 1.955 . S
O11 Zn10 1.933 1_554 S
O11 Zn12 1.911 . S
O11 H13 0.841 1_565 S
Zn12 O11 1.911 . S
Zn12 O25 1.970 . S
Zn12 O41 1.981 . S
Zn12 O43 1.945 . S
H13 O11 0.841 1_545 S
Zn14 O15 1.933 1_556 S
Zn14 O27 1.985 . S
Zn14 O35 1.955 . S
O15 Zn14 1.933 1_554 S
O15 H16 0.841 1_545 S
O15 Zn17 1.911 . S
H16 O15 0.841 1_565 S
Zn17 O15 1.911 . S
Zn17 O28 1.970 . S
Zn17 O38 1.981 . S
Zn17 O46 1.945 . S
C18 O19 1.246 . S
C18 O35 1.276 1_565 S
O19 C18 1.246 . S
O20 Zn0 1.985 . S
O20 C30 1.245 1_556 S
O21 Zn1 1.970 . S
O21 C30 1.263 . S
O22 Zn7 1.985 . S
O22 C34 1.245 1_556 S
O23 Zn6 1.970 . S
O23 C34 1.263 . S
O24 Zn10 1.985 . S
O24 C39 1.245 1_556 S
O25 Zn12 1.970 . S
O25 C39 1.263 . S
C26 O37 1.262 1_455 S
C26 O38 1.245 . S
O27 Zn14 1.985 . S
O27 C45 1.245 1_556 S
O28 Zn17 1.970 . S
O28 C45 1.263 . S
O29 Zn7 1.955 . S
O29 C48 1.276 1_455 S
C30 O20 1.245 1_554 S
C30 O21 1.263 . S
O31 Zn0 1.955 . S
O31 C50 1.276 1_655 S
C32 O40 1.262 1_655 S
C32 O41 1.245 . S
O33 C4 1.276 1_565 S
O33 Zn10 1.955 . S
C34 O22 1.245 1_554 S
C34 O23 1.263 . S
O35 Zn14 1.955 . S
O35 C18 1.276 1_545 S
C36 O43 1.262 1_545 S
C36 O44 1.245 . S
O37 Zn1 1.945 . S
O37 C26 1.262 1_655 S
O38 Zn17 1.981 . S
O38 C26 1.245 . S
C39 O24 1.245 1_554 S
C39 O25 1.263 . S
O40 Zn6 1.945 . S
O40 C32 1.262 1_455 S
O41 Zn12 1.981 . S
O41 C32 1.245 . S
C42 O46 1.262 1_565 S
C42 O47 1.245 . S
O43 Zn12 1.945 . S
O43 C36 1.262 1_565 S
O44 Zn1 1.981 . S
O44 C36 1.245 . S
C45 O27 1.245 1_554 S
C45 O28 1.263 . S
O46 Zn17 1.945 . S
O46 C42 1.262 1_545 S
O47 Zn6 1.981 . S
O47 C42 1.245 . S
C48 O29 1.276 1_655 S
C48 O49 1.246 . S
O49 C48 1.246 . S
C50 O31 1.276 1_455 S
C50 O51 1.246 . S
O51 C50 1.246 . S
Zn52 O54 1.933 . S
Zn52 O72 1.985 . S
Zn52 O83 1.955 . S
Zn53 O54 1.911 . S
Zn53 O73 1.970 . S
Zn53 O89 1.945 . S
Zn53 O96 1.981 . S
O54 Zn52 1.933 . S
O54 Zn53 1.911 . S
O54 H55 0.841 . S
H55 O54 0.841 . S
C56 O57 1.246 . S
C56 O85 1.276 . S
O57 C56 1.246 . S
Zn58 O60 1.911 . S
Zn58 O75 1.970 . S
Zn58 O92 1.945 . S
Zn58 O99 1.981 . S
Zn59 O60 1.933 . S
Zn59 O74 1.985 . S
Zn59 O81 1.955 . S
O60 Zn58 1.911 . S
O60 Zn59 1.933 . S
O60 H61 0.841 . S
H61 O60 0.841 . S
Zn62 O63 1.933 . S
Zn62 O76 1.985 . S
Zn62 O85 1.955 . S
O63 Zn62 1.933 . S
O63 Zn64 1.911 . S
O63 H65 0.841 . S
Zn64 O63 1.911 . S
Zn64 O77 1.970 . S
Zn64 O93 1.981 . S
Zn64 O95 1.945 . S
H65 O63 0.841 . S
Zn66 O67 1.933 . S
Zn66 O79 1.985 . S
Zn66 O87 1.955 . S
O67 Zn66 1.933 . S
O67 H68 0.841 . S
O67 Zn69 1.911 . S
H68 O67 0.841 . S
Zn69 O67 1.911 . S
Zn69 O80 1.970 . S
Zn69 O90 1.981 . S
Zn69 O98 1.945 . S
C70 O71 1.246 . S
C70 O87 1.276 . S
O71 C70 1.246 . S
O72 Zn52 1.985 . S
O72 C82 1.245 . S
O73 Zn53 1.970 . S
O73 C82 1.263 . S
O74 Zn59 1.985 . S
O74 C86 1.245 . S
O75 Zn58 1.970 . S
O75 C86 1.263 . S
O76 Zn62 1.985 . S
O76 C91 1.245 . S
O77 Zn64 1.970 . S
O77 C91 1.263 . S
C78 O89 1.262 . S
C78 O90 1.245 . S
O79 Zn66 1.985 . S
O79 C97 1.245 . S
O80 Zn69 1.970 . S
O80 C97 1.263 . S
O81 Zn59 1.955 . S
O81 C100 1.276 . S
C82 O72 1.245 . S
C82 O73 1.263 . S
O83 Zn52 1.955 . S
O83 C102 1.276 . S
C84 O92 1.262 . S
C84 O93 1.245 . S
O85 C56 1.276 . S
O85 Zn62 1.955 . S
C86 O74 1.245 . S
C86 O75 1.263 . S
O87 Zn66 1.955 . S
O87 C70 1.276 . S
C88 O95 1.262 . S
C88 O96 1.245 . S
O89 Zn53 1.945 . S
O89 C78 1.262 . S
O90 Zn69 1.981 . S
O90 C78 1.245 . S
C91 O76 1.245 . S
C91 O77 1.263 . S
O92 Zn58 1.945 . S
O92 C84 1.262 . S
O93 Zn64 1.981 . S
O93 C84 1.245 . S
C94 O98 1.262 . S
C94 O99 1.245 . S
O95 Zn64 1.945 . S
O95 C88 1.262 . S
O96 Zn53 1.981 . S
O96 C88 1.245 . S
C97 O79 1.245 . S
C97 O80 1.263 . S
O98 Zn69 1.945 . S
O98 C94 1.262 . S
O99 Zn58 1.981 . S
O99 C94 1.245 . S
C100 O81 1.276 . S
C100 O101 1.246 . S
O101 C100 1.246 . S
C102 O83 1.276 . S
C102 O103 1.246 . S
O103 C102 1.246 . S
H104 C107 0.931 . S
H105 C110 0.928 . S
H106 C112 0.930 . S
C107 H104 0.931 . S
C107 C108 1.413 1_554 S
C107 C109 1.360 . S
C108 C107 1.413 1_556 S
C108 C112 1.429 . S
C109 C107 1.360 . S
C109 C110 1.372 . S
C110 H105 0.928 . S
C110 C109 1.372 . S
C110 C111 1.404 . S
C111 C110 1.404 . S
C111 C112 1.391 1_554 S
C112 H106 0.930 . S
C112 C108 1.429 . S
C112 C111 1.391 1_556 S
H113 C116 0.931 . S
H114 C119 0.928 . S
H115 C121 0.930 . S
C116 H113 0.931 . S
C116 C117 1.413 1_554 S
C116 C118 1.360 . S
C117 C116 1.413 1_556 S
C117 C121 1.429 . S
C118 C116 1.360 . S
C118 C119 1.372 . S
C119 H114 0.928 . S
C119 C118 1.372 . S
C119 C120 1.404 . S
C120 C119 1.404 . S
C120 C121 1.391 1_554 S
C121 H115 0.930 . S
C121 C117 1.429 . S
C121 C120 1.391 1_556 S
H122 C125 0.931 . S
H123 C128 0.928 . S
H124 C130 0.930 . S
C125 H122 0.931 . S
C125 C126 1.413 . S
C125 C127 1.360 1_554 S
C126 C125 1.413 . S
C126 C130 1.429 . S
C127 C125 1.360 1_556 S
C127 C128 1.372 . S
C128 H123 0.928 . S
C128 C127 1.372 . S
C128 C129 1.404 1_556 S
C129 C128 1.404 1_554 S
C129 C130 1.391 . S
C130 H124 0.930 . S
C130 C126 1.429 . S
C130 C129 1.391 . S
H131 C134 0.931 . S
H132 C137 0.928 . S
H133 C139 0.930 . S
C134 H131 0.931 . S
C134 C135 1.413 1_554 S
C134 C136 1.360 . S
C135 C134 1.413 1_556 S
C135 C139 1.429 . S
C136 C134 1.360 . S
C136 C137 1.372 . S
C137 H132 0.928 . S
C137 C136 1.372 . S
C137 C138 1.404 . S
C138 C137 1.404 . S
C138 C139 1.391 1_554 S
C139 H133 0.930 . S
C139 C135 1.429 . S
C139 C138 1.391 1_556 S
H140 C143 0.931 . S
H141 C146 0.928 . S
H142 C148 0.930 . S
C143 H140 0.931 . S
C143 C144 1.413 . S
C143 C145 1.360 . S
C144 C143 1.413 . S
C144 C148 1.429 . S
C145 C143 1.360 . S
C145 C146 1.372 . S
C146 H141 0.928 . S
C146 C145 1.372 . S
C146 C147 1.404 . S
C147 C146 1.404 . S
C147 C148 1.391 . S
C148 H142 0.930 . S
C148 C144 1.429 . S
C148 C147 1.391 . S
H149 C152 0.931 . S
H150 C155 0.928 . S
H151 C157 0.930 . S
C152 H149 0.931 . S
C152 C153 1.413 . S
C152 C154 1.360 . S
C153 C152 1.413 . S
C153 C157 1.429 . S
C154 C152 1.360 . S
C154 C155 1.372 . S
C155 H150 0.928 . S
C155 C154 1.372 . S
C155 C156 1.404 . S
C156 C155 1.404 . S
C156 C157 1.391 . S
C157 H151 0.930 . S
C157 C153 1.429 . S
C157 C156 1.391 . S
H158 C161 0.931 . S
H159 C164 0.928 . S
H160 C166 0.930 . S
C161 H158 0.931 . S
C161 C162 1.413 . S
C161 C163 1.360 . S
C162 C161 1.413 . S
C162 C166 1.429 . S
C163 C161 1.360 . S
C163 C164 1.372 . S
C164 H159 0.928 . S
C164 C163 1.372 . S
C164 C165 1.404 . S
C165 C164 1.404 . S
C165 C166 1.391 . S
C166 H160 0.930 . S
C166 C162 1.429 . S
C166 C165 1.391 . S
H167 C170 0.931 . S
H168 C173 0.928 . S
H169 C175 0.930 . S
C170 H167 0.931 . S
C170 C171 1.413 . S
C170 C172 1.360 . S
C171 C170 1.413 . S
C171 C175 1.429 . S
C172 C170 1.360 . S
C172 C173 1.372 . S
C173 H168 0.928 . S
C173 C172 1.372 . S
C173 C174 1.404 . S
C174 C173 1.404 . S
C174 C175 1.391 . S
C175 H169 0.930 . S
C175 C171 1.429 . S
C175 C174 1.391 . S
H176 C194 0.951 . S
H177 C196 0.951 . S
H178 C198 0.950 . S
H179 C199 0.950 . S
H180 C201 0.950 . S
H181 C204 0.950 . S
H182 C205 0.950 . S
H183 C207 0.950 1_556 S
H184 C208 0.950 1_556 S
H185 C209 0.951 . S
H186 C211 0.951 . S
H187 C213 0.950 . S
H188 C214 0.950 . S
H189 C216 0.950 . S
H190 C219 0.950 . S
H191 C220 0.950 . S
H192 C222 0.950 . S
H193 C223 0.950 . S
C194 H176 0.951 . S
C194 C195 1.366 1_556 S
C194 C196 1.388 . S
C195 C194 1.366 1_554 S
C195 C199 1.385 . S
C196 H177 0.951 . S
C196 C194 1.388 . S
C196 C197 1.366 1_556 S
C197 C196 1.366 1_554 S
C197 C198 1.414 . S
C197 C200 1.499 . S
C198 H178 0.950 . S
C198 C197 1.414 . S
C198 C199 1.374 . S
C199 H179 0.950 . S
C199 C195 1.385 . S
C199 C198 1.374 . S
C200 C197 1.499 . S
C200 C201 1.373 . S
C200 C202 1.389 . S
C201 H180 0.950 . S
C201 C200 1.373 . S
C201 C217 1.377 . S
C202 C200 1.389 . S
C202 C203 1.524 . S
C202 C216 1.377 . S
C203 C202 1.524 . S
C203 C204 1.397 . S
C203 C208 1.363 . S
C204 H181 0.950 . S
C204 C203 1.397 . S
C204 C205 1.334 . S
C205 H182 0.950 . S
C205 C204 1.334 . S
C205 C206 1.287 . S
C206 C205 1.287 . S
C206 C207 1.524 . S
C206 H225 0.913 . S
C207 H183 0.950 1_554 S
C207 C206 1.524 . S
C207 C208 1.415 . S
C208 H184 0.950 1_554 S
C208 C203 1.363 . S
C208 C207 1.415 . S
C209 H185 0.951 . S
C209 C210 1.366 . S
C209 C211 1.388 . S
C210 C209 1.366 . S
C210 C214 1.385 1_554 S
C211 H186 0.951 . S
C211 C209 1.388 . S
C211 C212 1.366 . S
C212 C211 1.366 . S
C212 C213 1.414 1_554 S
C212 C215 1.499 . S
C213 H187 0.950 . S
C213 C212 1.414 1_556 S
C213 C214 1.374 . S
C214 H188 0.950 . S
C214 C210 1.385 1_556 S
C214 C213 1.374 . S
C215 C212 1.499 . S
C215 C216 1.373 . S
C215 C217 1.389 . S
C216 H189 0.950 . S
C216 C202 1.377 . S
C216 C215 1.373 . S
C217 C201 1.377 . S
C217 C215 1.389 . S
C217 C218 1.524 . S
C218 C217 1.524 . S
C218 C219 1.397 1_554 S
C218 C223 1.363 . S
C219 H190 0.950 . S
C219 C218 1.397 1_556 S
C219 C220 1.334 . S
C220 H191 0.950 . S
C220 C219 1.334 . S
C220 C221 1.287 . S
C221 C220 1.287 . S
C221 C222 1.524 1_556 S
C221 H224 0.999 . S
C222 H192 0.950 . S
C222 C221 1.524 1_554 S
C222 C223 1.415 . S
C223 H193 0.950 . S
C223 C218 1.363 . S
C223 C222 1.415 . S
H224 C221 0.999 . S
H225 C206 0.913 . S
H226 C244 0.951 . S
H227 C246 0.951 . S
H228 C248 0.950 . S
H229 C249 0.950 . S
H230 C251 0.950 1_556 S
H231 C254 0.950 1_556 S
H232 C255 0.950 1_556 S
H233 C257 0.950 . S
H234 C258 0.950 . S
H235 C259 0.951 . S
H236 C261 0.951 . S
H237 C263 0.950 . S
H238 C264 0.950 . S
H239 C266 0.950 . S
H240 C269 0.950 . S
H241 C270 0.950 . S
H242 C272 0.950 . S
H243 C273 0.950 . S
C244 H226 0.951 . S
C244 C245 1.366 . S
C244 C246 1.388 . S
C245 C244 1.366 . S
C245 C249 1.385 1_554 S
C246 H227 0.951 . S
C246 C244 1.388 . S
C246 C247 1.366 . S
C247 C246 1.366 . S
C247 C248 1.414 1_554 S
C247 C250 1.499 . S
C248 H228 0.950 . S
C248 C247 1.414 1_556 S
C248 C249 1.374 . S
C249 H229 0.950 . S
C249 C245 1.385 1_556 S
C249 C248 1.374 . S
C250 C247 1.499 . S
C250 C251 1.373 . S
C250 C252 1.389 . S
C251 H230 0.950 1_554 S
C251 C250 1.373 . S
C251 C267 1.377 . S
C252 C250 1.389 . S
C252 C253 1.524 . S
C252 C266 1.377 . S
C253 C252 1.524 . S
C253 C254 1.397 . S
C253 C258 1.363 . S
C254 H231 0.950 1_554 S
C254 C253 1.397 . S
C254 C255 1.334 . S
C255 H232 0.950 1_554 S
C255 C254 1.334 . S
C255 C256 1.287 . S
C256 C255 1.287 . S
C256 C257 1.524 . S
C256 H275 0.913 . S
C257 H233 0.950 . S
C257 C256 1.524 . S
C257 C258 1.415 . S
C258 H234 0.950 . S
C258 C253 1.363 . S
C258 C257 1.415 . S
C259 H235 0.951 . S
C259 C260 1.366 1_556 S
C259 C261 1.388 . S
C260 C259 1.366 1_554 S
C260 C264 1.385 . S
C261 H236 0.951 . S
C261 C259 1.388 . S
C261 C262 1.366 1_556 S
C262 C261 1.366 1_554 S
C262 C263 1.414 . S
C262 C265 1.499 . S
C263 H237 0.950 . S
C263 C262 1.414 . S
C263 C264 1.374 . S
C264 H238 0.950 . S
C264 C260 1.385 . S
C264 C263 1.374 . S
C265 C262 1.499 . S
C265 C266 1.373 . S
C265 C267 1.389 . S
C266 H239 0.950 . S
C266 C252 1.377 . S
C266 C265 1.373 . S
C267 C251 1.377 . S
C267 C265 1.389 . S
C267 C268 1.529 . S
C268 C267 1.529 . S
C268 C269 1.410 . S
C268 C273 1.347 1_554 S
C269 H240 0.950 . S
C269 C268 1.410 . S
C269 C270 1.334 . S
C270 H241 0.950 . S
C270 C269 1.334 . S
C270 C271 1.287 1_554 S
C271 C270 1.287 1_556 S
C271 C272 1.524 . S
C271 H274 0.999 . S
C272 H242 0.950 . S
C272 C271 1.524 . S
C272 C273 1.415 . S
C273 H243 0.950 . S
C273 C268 1.347 1_556 S
C273 C272 1.415 . S
H274 C271 0.999 . S
H275 C256 0.913 . S
H276 C294 0.951 . S
H277 C296 0.951 . S
H278 C298 0.950 . S
H279 C299 0.950 . S
H280 C301 0.950 . S
H281 C304 0.950 . S
H282 C305 0.950 . S
H283 C307 0.950 . S
H284 C308 0.950 . S
H285 C309 0.951 . S
H286 C311 0.951 . S
H287 C313 0.950 . S
H288 C314 0.950 . S
H289 C316 0.950 . S
H290 C319 0.950 . S
H291 C320 0.950 . S
H292 C322 0.950 . S
H293 C323 0.950 . S
C294 H276 0.951 . S
C294 C295 1.366 . S
C294 C296 1.388 . S
C295 C294 1.366 . S
C295 C299 1.385 . S
C296 H277 0.951 . S
C296 C294 1.388 . S
C296 C297 1.366 . S
C297 C296 1.366 . S
C297 C298 1.414 . S
C297 C300 1.499 . S
C298 H278 0.950 . S
C298 C297 1.414 . S
C298 C299 1.374 . S
C299 H279 0.950 . S
C299 C295 1.385 . S
C299 C298 1.374 . S
C300 C297 1.499 . S
C300 C301 1.373 . S
C300 C302 1.389 1_554 S
C301 H280 0.950 . S
C301 C300 1.373 . S
C301 C317 1.377 . S
C302 C300 1.389 1_556 S
C302 C303 1.524 . S
C302 C316 1.377 . S
C303 C302 1.524 . S
C303 C304 1.397 . S
C303 C308 1.363 . S
C304 H281 0.950 . S
C304 C303 1.397 . S
C304 C305 1.334 . S
C305 H282 0.950 . S
C305 C304 1.334 . S
C305 C306 1.287 . S
C306 C305 1.287 . S
C306 C307 1.524 . S
C306 H325 0.913 . S
C307 H283 0.950 . S
C307 C306 1.524 . S
C307 C308 1.415 . S
C308 H284 0.950 . S
C308 C303 1.363 . S
C308 C307 1.415 . S
C309 H285 0.951 . S
C309 C310 1.366 . S
C309 C311 1.388 . S
C310 C309 1.366 . S
C310 C314 1.385 . S
C311 H286 0.951 . S
C311 C309 1.388 . S
C311 C312 1.366 . S
C312 C311 1.366 . S
C312 C313 1.414 . S
C312 C315 1.499 . S
C313 H287 0.950 . S
C313 C312 1.414 . S
C313 C314 1.374 . S
C314 H288 0.950 . S
C314 C310 1.385 . S
C314 C313 1.374 . S
C315 C312 1.499 . S
C315 C316 1.373 1_554 S
C315 C317 1.389 . S
C316 H289 0.950 . S
C316 C302 1.377 . S
C316 C315 1.373 1_556 S
C317 C301 1.377 . S
C317 C315 1.389 . S
C317 C318 1.524 . S
C318 C317 1.524 . S
C318 C319 1.397 . S
C318 C323 1.363 . S
C319 H290 0.950 . S
C319 C318 1.397 . S
C319 C320 1.334 . S
C320 H291 0.950 . S
C320 C319 1.334 . S
C320 C321 1.287 . S
C321 C320 1.287 . S
C321 C322 1.524 . S
C321 H324 0.999 . S
C322 H292 0.950 . S
C322 C321 1.524 . S
C322 C323 1.415 . S
C323 H293 0.950 . S
C323 C318 1.363 . S
C323 C322 1.415 . S
H324 C321 0.999 . S
H325 C306 0.913 . S
H326 C344 0.951 . S
H327 C346 0.951 . S
H328 C348 0.950 . S
H329 C349 0.950 . S
H330 C351 0.950 . S
H331 C354 0.950 . S
H332 C355 0.950 . S
H333 C357 0.950 . S
H334 C358 0.950 . S
H335 C359 0.951 . S
H336 C361 0.951 . S
H337 C363 0.950 . S
H338 C364 0.950 . S
H339 C366 0.950 . S
H340 C369 0.950 . S
H341 C370 0.950 . S
H342 C372 0.950 . S
H343 C373 0.950 . S
C344 H326 0.951 . S
C344 C345 1.366 1_556 S
C344 C346 1.388 . S
C345 C344 1.366 1_554 S
C345 C349 1.385 . S
C346 H327 0.951 . S
C346 C344 1.388 . S
C346 C347 1.366 1_556 S
C347 C346 1.366 1_554 S
C347 C348 1.414 . S
C347 C350 1.499 . S
C348 H328 0.950 . S
C348 C347 1.414 . S
C348 C349 1.374 . S
C349 H329 0.950 . S
C349 C345 1.385 . S
C349 C348 1.374 . S
C350 C347 1.499 . S
C350 C351 1.373 . S
C350 C352 1.389 1_554 S
C351 H330 0.950 . S
C351 C350 1.373 . S
C351 C367 1.377 . S
C352 C350 1.389 1_556 S
C352 C353 1.524 . S
C352 C366 1.377 . S
C353 C352 1.524 . S
C353 C354 1.397 . S
C353 C358 1.363 . S
C354 H331 0.950 . S
C354 C353 1.397 . S
C354 C355 1.334 . S
C355 H332 0.950 . S
C355 C354 1.334 . S
C355 C356 1.287 . S
C356 C355 1.287 . S
C356 C357 1.524 . S
C356 H375 0.913 . S
C357 H333 0.950 . S
C357 C356 1.524 . S
C357 C358 1.415 . S
C358 H334 0.950 . S
C358 C353 1.363 . S
C358 C357 1.415 . S
C359 H335 0.951 . S
C359 C360 1.366 . S
C359 C361 1.388 . S
C360 C359 1.366 . S
C360 C364 1.385 1_554 S
C361 H336 0.951 . S
C361 C359 1.388 . S
C361 C362 1.366 . S
C362 C361 1.366 . S
C362 C363 1.414 1_554 S
C362 C365 1.499 . S
C363 H337 0.950 . S
C363 C362 1.414 1_556 S
C363 C364 1.374 . S
C364 H338 0.950 . S
C364 C360 1.385 1_556 S
C364 C363 1.374 . S
C365 C362 1.499 . S
C365 C366 1.373 1_554 S
C365 C367 1.389 . S
C366 H339 0.950 . S
C366 C352 1.377 . S
C366 C365 1.373 1_556 S
C367 C351 1.377 . S
C367 C365 1.389 . S
C367 C368 1.524 . S
C368 C367 1.524 . S
C368 C369 1.397 . S
C368 C373 1.363 . S
C369 H340 0.950 . S
C369 C368 1.397 . S
C369 C370 1.334 . S
C370 H341 0.950 . S
C370 C369 1.334 . S
C370 C371 1.287 . S
C371 C370 1.287 . S
C371 C372 1.524 . S
C371 H374 0.999 . S
C372 H342 0.950 . S
C372 C371 1.524 . S
C372 C373 1.415 . S
C373 H343 0.950 . S
C373 C368 1.363 . S
C373 C372 1.415 . S
H374 C371 0.999 . S
H375 C356 0.913 . S
H376 C394 0.951 . S
H377 C396 0.951 . S
H378 C398 0.950 . S
H379 C399 0.950 . S
H380 C401 0.950 . S
H381 C404 0.950 . S
H382 C405 0.950 . S
H383 C407 0.950 . S
H384 C408 0.950 . S
H385 C409 0.951 . S
H386 C411 0.951 . S
H387 C413 0.950 . S
H388 C414 0.950 . S
H389 C416 0.950 . S
H390 C419 0.950 . S
H391 C420 0.950 . S
H392 C422 0.950 . S
H393 C423 0.950 . S
C394 H376 0.951 . S
C394 C395 1.366 . S
C394 C396 1.388 . S
C395 C394 1.366 . S
C395 C399 1.385 . S
C396 H377 0.951 . S
C396 C394 1.388 . S
C396 C397 1.366 . S
C397 C396 1.366 . S
C397 C398 1.414 . S
C397 C400 1.499 . S
C398 H378 0.950 . S
C398 C397 1.414 . S
C398 C399 1.374 . S
C399 H379 0.950 . S
C399 C395 1.385 . S
C399 C398 1.374 . S
C400 C397 1.499 . S
C400 C401 1.373 . S
C400 C402 1.389 . S
C401 H380 0.950 . S
C401 C400 1.373 . S
C401 C417 1.377 . S
C402 C400 1.389 . S
C402 C403 1.524 . S
C402 C416 1.377 . S
C403 C402 1.524 . S
C403 C404 1.397 . S
C403 C408 1.363 . S
C404 H381 0.950 . S
C404 C403 1.397 . S
C404 C405 1.334 . S
C405 H382 0.950 . S
C405 C404 1.334 . S
C405 C406 1.287 . S
C406 C405 1.287 . S
C406 C407 1.524 . S
C406 H425 0.913 . S
C407 H383 0.950 . S
C407 C406 1.524 . S
C407 C408 1.415 . S
C408 H384 0.950 . S
C408 C403 1.363 . S
C408 C407 1.415 . S
C409 H385 0.951 . S
C409 C410 1.366 . S
C409 C411 1.388 . S
C410 C409 1.366 . S
C410 C414 1.385 . S
C411 H386 0.951 . S
C411 C409 1.388 . S
C411 C412 1.366 . S
C412 C411 1.366 . S
C412 C413 1.414 . S
C412 C415 1.499 . S
C413 H387 0.950 . S
C413 C412 1.414 . S
C413 C414 1.374 . S
C414 H388 0.950 . S
C414 C410 1.385 . S
C414 C413 1.374 . S
C415 C412 1.499 . S
C415 C416 1.373 . S
C415 C417 1.389 . S
C416 H389 0.950 . S
C416 C402 1.377 . S
C416 C415 1.373 . S
C417 C401 1.377 . S
C417 C415 1.389 . S
C417 C418 1.524 . S
C418 C417 1.524 . S
C418 C419 1.397 . S
C418 C423 1.363 . S
C419 H390 0.950 . S
C419 C418 1.397 . S
C419 C420 1.334 . S
C420 H391 0.950 . S
C420 C419 1.334 . S
C420 C421 1.287 . S
C421 C420 1.287 . S
C421 C422 1.524 . S
C421 H424 0.999 . S
C422 H392 0.950 . S
C422 C421 1.524 . S
C422 C423 1.415 . S
C423 H393 0.950 . S
C423 C418 1.363 . S
C423 C422 1.415 . S
H424 C421 0.999 . S
H425 C406 0.913 . S
H426 C444 0.951 . S
H427 C446 0.951 . S
H428 C448 0.950 . S
H429 C449 0.950 . S
H430 C451 0.950 . S
H431 C454 0.950 . S
H432 C455 0.950 . S
H433 C457 0.950 . S
H434 C458 0.950 . S
H435 C459 0.951 . S
H436 C461 0.951 . S
H437 C463 0.950 . S
H438 C464 0.950 . S
H439 C466 0.950 . S
H440 C469 0.950 . S
H441 C470 0.950 . S
H442 C472 0.950 . S
H443 C473 0.950 . S
C444 H426 0.951 . S
C444 C445 1.366 . S
C444 C446 1.388 . S
C445 C444 1.366 . S
C445 C449 1.385 . S
C446 H427 0.951 . S
C446 C444 1.388 . S
C446 C447 1.366 . S
C447 C446 1.366 . S
C447 C448 1.414 . S
C447 C450 1.499 . S
C448 H428 0.950 . S
C448 C447 1.414 . S
C448 C449 1.374 . S
C449 H429 0.950 . S
C449 C445 1.385 . S
C449 C448 1.374 . S
C450 C447 1.499 . S
C450 C451 1.373 . S
C450 C452 1.389 . S
C451 H430 0.950 . S
C451 C450 1.373 . S
C451 C467 1.377 . S
C452 C450 1.389 . S
C452 C453 1.524 . S
C452 C466 1.377 . S
C453 C452 1.524 . S
C453 C454 1.397 . S
C453 C458 1.363 . S
C454 H431 0.950 . S
C454 C453 1.397 . S
C454 C455 1.334 . S
C455 H432 0.950 . S
C455 C454 1.334 . S
C455 C456 1.287 . S
C456 C455 1.287 . S
C456 C457 1.524 . S
C456 H475 0.913 . S
C457 H433 0.950 . S
C457 C456 1.524 . S
C457 C458 1.415 . S
C458 H434 0.950 . S
C458 C453 1.363 . S
C458 C457 1.415 . S
C459 H435 0.951 . S
C459 C460 1.366 . S
C459 C461 1.388 . S
C460 C459 1.366 . S
C460 C464 1.385 . S
C461 H436 0.951 . S
C461 C459 1.388 . S
C461 C462 1.366 . S
C462 C461 1.366 . S
C462 C463 1.414 . S
C462 C465 1.499 . S
C463 H437 0.950 . S
C463 C462 1.414 . S
C463 C464 1.374 . S
C464 H438 0.950 . S
C464 C460 1.385 . S
C464 C463 1.374 . S
C465 C462 1.499 . S
C465 C466 1.373 . S
C465 C467 1.389 . S
C466 H439 0.950 . S
C466 C452 1.377 . S
C466 C465 1.373 . S
C467 C451 1.377 . S
C467 C465 1.389 . S
C467 C468 1.524 . S
C468 C467 1.524 . S
C468 C469 1.397 . S
C468 C473 1.363 . S
C469 H440 0.950 . S
C469 C468 1.397 . S
C469 C470 1.334 . S
C470 H441 0.950 . S
C470 C469 1.334 . S
C470 C471 1.287 . S
C471 C470 1.287 . S
C471 C472 1.524 . S
C471 H474 0.999 . S
C472 H442 0.950 . S
C472 C471 1.524 . S
C472 C473 1.415 . S
C473 H443 0.950 . S
C473 C468 1.363 . S
C473 C472 1.415 . S
H474 C471 0.999 . S
H475 C456 0.913 . S
H476 C494 0.951 . S
H477 C496 0.951 . S
H478 C498 0.950 . S
H479 C499 0.950 . S
H480 C501 0.950 . S
H481 C504 0.950 . S
H482 C505 0.950 . S
H483 C507 0.950 . S
H484 C508 0.950 . S
H485 C509 0.951 . S
H486 C511 0.951 . S
H487 C513 0.950 . S
H488 C514 0.950 . S
H489 C516 0.950 . S
H490 C519 0.950 . S
H491 C520 0.950 . S
H492 C522 0.950 . S
H493 C523 0.950 . S
C494 H476 0.951 . S
C494 C495 1.366 . S
C494 C496 1.388 . S
C495 C494 1.366 . S
C495 C499 1.385 . S
C496 H477 0.951 . S
C496 C494 1.388 . S
C496 C497 1.366 . S
C497 C496 1.366 . S
C497 C498 1.414 . S
C497 C500 1.499 . S
C498 H478 0.950 . S
C498 C497 1.414 . S
C498 C499 1.374 . S
C499 H479 0.950 . S
C499 C495 1.385 . S
C499 C498 1.374 . S
C500 C497 1.499 . S
C500 C501 1.373 . S
C500 C502 1.389 . S
C501 H480 0.950 . S
C501 C500 1.373 . S
C501 C517 1.377 . S
C502 C500 1.389 . S
C502 C503 1.524 . S
C502 C516 1.377 . S
C503 C502 1.524 . S
C503 C504 1.397 . S
C503 C508 1.363 . S
C504 H481 0.950 . S
C504 C503 1.397 . S
C504 C505 1.334 . S
C505 H482 0.950 . S
C505 C504 1.334 . S
C505 C506 1.287 . S
C506 C505 1.287 . S
C506 C507 1.524 . S
C506 H525 0.913 . S
C507 H483 0.950 . S
C507 C506 1.524 . S
C507 C508 1.415 . S
C508 H484 0.950 . S
C508 C503 1.363 . S
C508 C507 1.415 . S
C509 H485 0.951 . S
C509 C510 1.366 . S
C509 C511 1.388 . S
C510 C509 1.366 . S
C510 C514 1.385 . S
C511 H486 0.951 . S
C511 C509 1.388 . S
C511 C512 1.366 . S
C512 C511 1.366 . S
C512 C513 1.414 . S
C512 C515 1.499 . S
C513 H487 0.950 . S
C513 C512 1.414 . S
C513 C514 1.374 . S
C514 H488 0.950 . S
C514 C510 1.385 . S
C514 C513 1.374 . S
C515 C512 1.499 . S
C515 C516 1.373 . S
C515 C517 1.389 . S
C516 H489 0.950 . S
C516 C502 1.377 . S
C516 C515 1.373 . S
C517 C501 1.377 . S
C517 C515 1.389 . S
C517 C518 1.524 . S
C518 C517 1.524 . S
C518 C519 1.397 . S
C518 C523 1.363 . S
C519 H490 0.950 . S
C519 C518 1.397 . S
C519 C520 1.334 . S
C520 H491 0.950 . S
C520 C519 1.334 . S
C520 C521 1.287 . S
C521 C520 1.287 . S
C521 C522 1.524 . S
C521 H524 0.999 . S
C522 H492 0.950 . S
C522 C521 1.524 . S
C522 C523 1.415 . S
C523 H493 0.950 . S
C523 C518 1.363 . S
C523 C522 1.415 . S
H524 C521 0.999 . S
H525 C506 0.913 . S
H526 C544 0.951 . S
H527 C546 0.951 . S
H528 C548 0.950 . S
H529 C549 0.950 . S
H530 C551 0.950 . S
H531 C554 0.950 . S
H532 C555 0.950 . S
H533 C557 0.950 . S
H534 C558 0.950 . S
H535 C559 0.951 . S
H536 C561 0.951 . S
H537 C563 0.950 . S
H538 C564 0.950 . S
H539 C566 0.950 . S
H540 C569 0.950 . S
H541 C570 0.950 . S
H542 C572 0.950 . S
H543 C573 0.950 . S
C544 H526 0.951 . S
C544 C545 1.366 . S
C544 C546 1.388 . S
C545 C544 1.366 . S
C545 C549 1.385 . S
C546 H527 0.951 . S
C546 C544 1.388 . S
C546 C547 1.366 . S
C547 C546 1.366 . S
C547 C548 1.414 . S
C547 C550 1.499 . S
C548 H528 0.950 . S
C548 C547 1.414 . S
C548 C549 1.374 . S
C549 H529 0.950 . S
C549 C545 1.385 . S
C549 C548 1.374 . S
C550 C547 1.499 . S
C550 C551 1.373 . S
C550 C552 1.389 . S
C551 H530 0.950 . S
C551 C550 1.373 . S
C551 C567 1.377 . S
C552 C550 1.389 . S
C552 C553 1.524 . S
C552 C566 1.377 . S
C553 C552 1.524 . S
C553 C554 1.397 . S
C553 C558 1.363 . S
C554 H531 0.950 . S
C554 C553 1.397 . S
C554 C555 1.334 . S
C555 H532 0.950 . S
C555 C554 1.334 . S
C555 C556 1.287 . S
C556 C555 1.287 . S
C556 C557 1.524 . S
C556 H575 0.913 . S
C557 H533 0.950 . S
C557 C556 1.524 . S
C557 C558 1.415 . S
C558 H534 0.950 . S
C558 C553 1.363 . S
C558 C557 1.415 . S
C559 H535 0.951 . S
C559 C560 1.366 . S
C559 C561 1.388 . S
C560 C559 1.366 . S
C560 C564 1.385 . S
C561 H536 0.951 . S
C561 C559 1.388 . S
C561 C562 1.366 . S
C562 C561 1.366 . S
C562 C563 1.414 . S
C562 C565 1.499 . S
C563 H537 0.950 . S
C563 C562 1.414 . S
C563 C564 1.374 . S
C564 H538 0.950 . S
C564 C560 1.385 . S
C564 C563 1.374 . S
C565 C562 1.499 . S
C565 C566 1.373 . S
C565 C567 1.389 . S
C566 H539 0.950 . S
C566 C552 1.377 . S
C566 C565 1.373 . S
C567 C551 1.377 . S
C567 C565 1.389 . S
C567 C568 1.524 . S
C568 C567 1.524 . S
C568 C569 1.397 . S
C568 C573 1.363 . S
C569 H540 0.950 . S
C569 C568 1.397 . S
C569 C570 1.334 . S
C570 H541 0.950 . S
C570 C569 1.334 . S
C570 C571 1.287 . S
C571 C570 1.287 . S
C571 C572 1.524 . S
C571 H574 0.999 . S
C572 H542 0.950 . S
C572 C571 1.524 . S
C572 C573 1.415 . S
C573 H543 0.950 . S
C573 C568 1.363 . S
C573 C572 1.415 . S
H574 C571 0.999 . S
H575 C556 0.913 . S
H576 C594 0.951 . S
H577 C596 0.951 . S
H578 C598 0.950 . S
H579 C599 0.950 1_655 S
H580 C601 0.950 . S
H581 C604 0.950 . S
H582 C605 0.950 . S
H583 C607 0.950 . S
H584 C608 0.950 . S
H585 C609 0.951 . S
H586 C611 0.951 . S
H587 C613 0.950 . S
H588 C614 0.950 . S
H589 C616 0.950 . S
H590 C619 0.950 . S
H591 C620 0.950 . S
H592 C622 0.950 . S
H593 C623 0.950 . S
C594 H576 0.951 . S
C594 C595 1.366 . S
C594 C596 1.388 . S
C595 C594 1.366 . S
C595 C599 1.385 . S
C596 H577 0.951 . S
C596 C594 1.388 . S
C596 C597 1.366 . S
C597 C596 1.366 . S
C597 C598 1.414 . S
C597 C600 1.499 . S
C598 H578 0.950 . S
C598 C597 1.414 . S
C598 C599 1.374 . S
C599 H579 0.950 1_455 S
C599 C595 1.385 . S
C599 C598 1.374 . S
C600 C597 1.499 . S
C600 C601 1.373 . S
C600 C602 1.389 . S
C601 H580 0.950 . S
C601 C600 1.373 . S
C601 C617 1.377 . S
C602 C600 1.389 . S
C602 C603 1.524 . S
C602 C616 1.377 . S
C603 C602 1.524 . S
C603 C604 1.397 . S
C603 C608 1.363 . S
C604 H581 0.950 . S
C604 C603 1.397 . S
C604 C605 1.334 . S
C605 H582 0.950 . S
C605 C604 1.334 . S
C605 C606 1.287 . S
C606 C605 1.287 . S
C606 C607 1.524 . S
C606 H625 0.913 . S
C607 H583 0.950 . S
C607 C606 1.524 . S
C607 C608 1.415 . S
C608 H584 0.950 . S
C608 C603 1.363 . S
C608 C607 1.415 . S
C609 H585 0.951 . S
C609 C610 1.366 . S
C609 C611 1.388 . S
C610 C609 1.366 . S
C610 C614 1.385 . S
C611 H586 0.951 . S
C611 C609 1.388 . S
C611 C612 1.366 . S
C612 C611 1.366 . S
C612 C613 1.414 . S
C612 C615 1.499 . S
C613 H587 0.950 . S
C613 C612 1.414 . S
C613 C614 1.374 . S
C614 H588 0.950 . S
C614 C610 1.385 . S
C614 C613 1.374 . S
C615 C612 1.499 . S
C615 C616 1.373 . S
C615 C617 1.389 . S
C616 H589 0.950 . S
C616 C602 1.377 . S
C616 C615 1.373 . S
C617 C601 1.377 . S
C617 C615 1.389 . S
C617 C618 1.524 . S
C618 C617 1.524 . S
C618 C619 1.397 . S
C618 C623 1.363 1_455 S
C619 H590 0.950 . S
C619 C618 1.397 . S
C619 C620 1.334 . S
C620 H591 0.950 . S
C620 C619 1.334 . S
C620 C621 1.287 1_455 S
C621 C620 1.287 1_655 S
C621 C622 1.524 . S
C621 H624 0.999 . S
C622 H592 0.950 . S
C622 C621 1.524 . S
C622 C623 1.415 . S
C623 H593 0.950 . S
C623 C618 1.363 1_655 S
C623 C622 1.415 . S
H624 C621 0.999 . S
H625 C606 0.913 . S
H626 C644 0.951 . S
H627 C646 0.951 . S
H628 C648 0.950 . S
H629 C649 0.950 . S
H630 C651 0.950 . S
H631 C654 0.950 1_545 S
H632 C655 0.950 . S
H633 C657 0.950 . S
H634 C658 0.950 . S
H635 C659 0.951 . S
H636 C661 0.951 . S
H637 C663 0.950 . S
H638 C664 0.950 . S
H639 C666 0.950 . S
H640 C669 0.950 . S
H641 C670 0.950 . S
H642 C672 0.950 . S
H643 C673 0.950 . S
C644 H626 0.951 . S
C644 C645 1.366 . S
C644 C646 1.388 . S
C645 C644 1.366 . S
C645 C649 1.385 . S
C646 H627 0.951 . S
C646 C644 1.388 . S
C646 C647 1.366 . S
C647 C646 1.366 . S
C647 C648 1.414 . S
C647 C650 1.499 . S
C648 H628 0.950 . S
C648 C647 1.414 . S
C648 C649 1.374 . S
C649 H629 0.950 . S
C649 C645 1.385 . S
C649 C648 1.374 . S
C650 C647 1.499 . S
C650 C651 1.373 . S
C650 C652 1.389 . S
C651 H630 0.950 . S
C651 C650 1.373 . S
C651 C667 1.377 . S
C652 C650 1.389 . S
C652 C653 1.526 1_545 S
C652 C666 1.377 . S
C653 C652 1.526 1_565 S
C653 C654 1.396 . S
C653 C658 1.361 . S
C654 H631 0.950 1_565 S
C654 C653 1.396 . S
C654 C655 1.334 . S
C655 H632 0.950 . S
C655 C654 1.334 . S
C655 C656 1.287 . S
C656 C655 1.287 . S
C656 C657 1.524 . S
C656 H675 0.913 . S
C657 H633 0.950 . S
C657 C656 1.524 . S
C657 C658 1.415 . S
C658 H634 0.950 . S
C658 C653 1.361 . S
C658 C657 1.415 . S
C659 H635 0.951 . S
C659 C660 1.366 . S
C659 C661 1.388 . S
C660 C659 1.366 . S
C660 C664 1.385 . S
C661 H636 0.951 . S
C661 C659 1.388 . S
C661 C662 1.366 . S
C662 C661 1.366 . S
C662 C663 1.414 . S
C662 C665 1.499 . S
C663 H637 0.950 . S
C663 C662 1.414 . S
C663 C664 1.374 . S
C664 H638 0.950 . S
C664 C660 1.385 . S
C664 C663 1.374 . S
C665 C662 1.499 . S
C665 C666 1.373 . S
C665 C667 1.389 . S
C666 H639 0.950 . S
C666 C652 1.377 . S
C666 C665 1.373 . S
C667 C651 1.377 . S
C667 C665 1.389 . S
C667 C668 1.524 . S
C668 C667 1.524 . S
C668 C669 1.397 . S
C668 C673 1.363 . S
C669 H640 0.950 . S
C669 C668 1.397 . S
C669 C670 1.334 . S
C670 H641 0.950 . S
C670 C669 1.334 . S
C670 C671 1.287 . S
C671 C670 1.287 . S
C671 C672 1.524 . S
C671 H674 0.999 . S
C672 H642 0.950 . S
C672 C671 1.524 . S
C672 C673 1.415 . S
C673 H643 0.950 . S
C673 C668 1.363 . S
C673 C672 1.415 . S
H674 C671 0.999 . S
H675 C656 0.913 . S
H676 C694 0.951 . S
H677 C696 0.951 . S
H678 C698 0.950 . S
H679 C699 0.950 1_455 S
H680 C701 0.950 . S
H681 C704 0.950 . S
H682 C705 0.950 . S
H683 C707 0.950 . S
H684 C708 0.950 . S
H685 C709 0.951 . S
H686 C711 0.951 . S
H687 C713 0.950 . S
H688 C714 0.950 . S
H689 C716 0.950 . S
H690 C719 0.950 . S
H691 C720 0.950 . S
H692 C722 0.950 1_455 S
H693 C723 0.950 . S
C694 H676 0.951 . S
C694 C695 1.366 . S
C694 C696 1.388 . S
C695 C694 1.366 . S
C695 C699 1.385 . S
C696 H677 0.951 . S
C696 C694 1.388 . S
C696 C697 1.366 . S
C697 C696 1.366 . S
C697 C698 1.414 . S
C697 C700 1.499 . S
C698 H678 0.950 . S
C698 C697 1.414 . S
C698 C699 1.374 . S
C699 H679 0.950 1_655 S
C699 C695 1.385 . S
C699 C698 1.374 . S
C700 C697 1.499 . S
C700 C701 1.373 . S
C700 C702 1.389 . S
C701 H680 0.950 . S
C701 C700 1.373 . S
C701 C717 1.377 . S
C702 C700 1.389 . S
C702 C703 1.524 . S
C702 C716 1.377 . S
C703 C702 1.524 . S
C703 C704 1.397 . S
C703 C708 1.363 . S
C704 H681 0.950 . S
C704 C703 1.397 . S
C704 C705 1.334 . S
C705 H682 0.950 . S
C705 C704 1.334 . S
C705 C706 1.287 . S
C706 C705 1.287 . S
C706 C707 1.524 . S
C706 H725 0.913 . S
C707 H683 0.950 . S
C707 C706 1.524 . S
C707 C708 1.415 . S
C708 H684 0.950 . S
C708 C703 1.363 . S
C708 C707 1.415 . S
C709 H685 0.951 . S
C709 C710 1.366 . S
C709 C711 1.388 . S
C710 C709 1.366 . S
C710 C714 1.385 . S
C711 H686 0.951 . S
C711 C709 1.388 . S
C711 C712 1.366 . S
C712 C711 1.366 . S
C712 C713 1.414 . S
C712 C715 1.499 . S
C713 H687 0.950 . S
C713 C712 1.414 . S
C713 C714 1.374 . S
C714 H688 0.950 . S
C714 C710 1.385 . S
C714 C713 1.374 . S
C715 C712 1.499 . S
C715 C716 1.373 . S
C715 C717 1.389 . S
C716 H689 0.950 . S
C716 C702 1.377 . S
C716 C715 1.373 . S
C717 C701 1.377 . S
C717 C715 1.389 . S
C717 C718 1.524 . S
C718 C717 1.524 . S
C718 C719 1.397 . S
C718 C723 1.363 . S
C719 H690 0.950 . S
C719 C718 1.397 . S
C719 C720 1.334 . S
C720 H691 0.950 . S
C720 C719 1.334 . S
C720 C721 1.287 . S
C721 C720 1.287 . S
C721 C722 1.524 . S
C721 H724 0.999 . S
C722 H692 0.950 1_655 S
C722 C721 1.524 . S
C722 C723 1.415 . S
C723 H693 0.950 . S
C723 C718 1.363 . S
C723 C722 1.415 . S
H724 C721 0.999 . S
H725 C706 0.913 . S
H726 C744 0.951 . S
H727 C746 0.951 . S
H728 C748 0.950 . S
H729 C749 0.950 . S
H730 C751 0.950 . S
H731 C754 0.950 . S
H732 C755 0.950 . S
H733 C757 0.950 . S
H734 C758 0.950 . S
H735 C759 0.951 . S
H736 C761 0.951 . S
H737 C763 0.950 . S
H738 C764 0.950 . S
H739 C766 0.950 . S
H740 C769 0.950 . S
H741 C770 0.950 . S
H742 C772 0.946 1_545 S
H743 C773 0.950 . S
C744 H726 0.951 . S
C744 C745 1.366 . S
C744 C746 1.388 . S
C745 C744 1.366 . S
C745 C749 1.385 . S
C746 H727 0.951 . S
C746 C744 1.388 . S
C746 C747 1.366 . S
C747 C746 1.366 . S
C747 C748 1.414 . S
C747 C750 1.499 . S
C748 H728 0.950 . S
C748 C747 1.414 . S
C748 C749 1.374 . S
C749 H729 0.950 . S
C749 C745 1.385 . S
C749 C748 1.374 . S
C750 C747 1.499 . S
C750 C751 1.373 . S
C750 C752 1.389 . S
C751 H730 0.950 . S
C751 C750 1.373 . S
C751 C767 1.377 . S
C752 C750 1.389 . S
C752 C753 1.524 . S
C752 C766 1.377 . S
C753 C752 1.524 . S
C753 C754 1.397 . S
C753 C758 1.363 . S
C754 H731 0.950 . S
C754 C753 1.397 . S
C754 C755 1.334 . S
C755 H732 0.950 . S
C755 C754 1.334 . S
C755 C756 1.287 . S
C756 C755 1.287 . S
C756 C757 1.524 . S
C756 H775 0.913 . S
C757 H733 0.950 . S
C757 C756 1.524 . S
C757 C758 1.415 . S
C758 H734 0.950 . S
C758 C753 1.363 . S
C758 C757 1.415 . S
C759 H735 0.951 . S
C759 C760 1.366 . S
C759 C761 1.388 . S
C760 C759 1.366 . S
C760 C764 1.385 . S
C761 H736 0.951 . S
C761 C759 1.388 . S
C761 C762 1.366 . S
C762 C761 1.366 . S
C762 C763 1.414 . S
C762 C765 1.499 . S
C763 H737 0.950 . S
C763 C762 1.414 . S
C763 C764 1.374 . S
C764 H738 0.950 . S
C764 C760 1.385 . S
C764 C763 1.374 . S
C765 C762 1.499 . S
C765 C766 1.373 . S
C765 C767 1.389 . S
C766 H739 0.950 . S
C766 C752 1.377 . S
C766 C765 1.373 . S
C767 C751 1.377 . S
C767 C765 1.389 . S
C767 C768 1.524 . S
C768 C767 1.524 . S
C768 C769 1.397 . S
C768 C773 1.363 . S
C769 H740 0.950 . S
C769 C768 1.397 . S
C769 C770 1.334 1_565 S
C770 H741 0.950 . S
C770 C769 1.334 1_545 S
C770 C771 1.287 . S
C771 C770 1.287 . S
C771 C772 1.515 1_545 S
C771 H774 0.999 . S
C772 H742 0.946 1_565 S
C772 C771 1.515 1_565 S
C772 C773 1.428 . S
C773 H743 0.950 . S
C773 C768 1.363 . S
C773 C772 1.428 . S
H774 C771 0.999 . S
H775 C756 0.913 . S
H776 C794 0.951 . S
H777 C796 0.951 . S
H778 C798 0.950 . S
H779 C799 0.950 . S
H780 C801 0.950 . S
H781 C804 0.950 . S
H782 C805 0.950 . S
H783 C807 0.950 . S
H784 C808 0.950 . S
H785 C809 0.951 . S
H786 C811 0.951 . S
H787 C813 0.950 . S
H788 C814 0.950 . S
H789 C816 0.950 . S
H790 C819 0.950 . S
H791 C820 0.950 1_545 S
H792 C822 0.950 . S
H793 C823 0.950 . S
C794 H776 0.951 . S
C794 C795 1.366 . S
C794 C796 1.388 . S
C795 C794 1.366 . S
C795 C799 1.385 . S
C796 H777 0.951 . S
C796 C794 1.388 . S
C796 C797 1.366 . S
C797 C796 1.366 . S
C797 C798 1.414 . S
C797 C800 1.499 . S
C798 H778 0.950 . S
C798 C797 1.414 . S
C798 C799 1.374 . S
C799 H779 0.950 . S
C799 C795 1.385 . S
C799 C798 1.374 . S
C800 C797 1.499 . S
C800 C801 1.373 . S
C800 C802 1.389 . S
C801 H780 0.950 . S
C801 C800 1.373 . S
C801 C817 1.377 . S
C802 C800 1.389 . S
C802 C803 1.524 . S
C802 C816 1.377 . S
C803 C802 1.524 . S
C803 C804 1.397 . S
C803 C808 1.363 . S
C804 H781 0.950 . S
C804 C803 1.397 . S
C804 C805 1.334 . S
C805 H782 0.950 . S
C805 C804 1.334 . S
C805 C806 1.287 . S
C806 C805 1.287 . S
C806 C807 1.524 . S
C806 H825 0.913 . S
C807 H783 0.950 . S
C807 C806 1.524 . S
C807 C808 1.415 . S
C808 H784 0.950 . S
C808 C803 1.363 . S
C808 C807 1.415 . S
C809 H785 0.951 . S
C809 C810 1.366 . S
C809 C811 1.388 . S
C810 C809 1.366 . S
C810 C814 1.385 . S
C811 H786 0.951 . S
C811 C809 1.388 . S
C811 C812 1.366 . S
C812 C811 1.366 . S
C812 C813 1.414 . S
C812 C815 1.499 . S
C813 H787 0.950 . S
C813 C812 1.414 . S
C813 C814 1.374 . S
C814 H788 0.950 . S
C814 C810 1.385 . S
C814 C813 1.374 . S
C815 C812 1.499 . S
C815 C816 1.373 . S
C815 C817 1.389 . S
C816 H789 0.950 . S
C816 C802 1.377 . S
C816 C815 1.373 . S
C817 C801 1.377 . S
C817 C815 1.389 . S
C817 C818 1.524 . S
C818 C817 1.524 . S
C818 C819 1.397 . S
C818 C823 1.363 . S
C819 H790 0.950 . S
C819 C818 1.397 . S
C819 C820 1.334 . S
C820 H791 0.950 1_565 S
C820 C819 1.334 . S
C820 C821 1.287 . S
C821 C820 1.287 . S
C821 C822 1.524 . S
C821 H824 1.015 . S
C822 H792 0.950 . S
C822 C821 1.524 . S
C822 C823 1.415 . S
C823 H793 0.950 . S
C823 C818 1.363 . S
C823 C822 1.415 . S
H824 C821 1.015 . S
H825 C806 0.913 . S
H826 C844 0.951 . S
H827 C846 0.951 . S
H828 C848 0.950 . S
H829 C849 0.950 . S
H830 C851 0.950 . S
H831 C854 0.950 . S
H832 C855 0.950 . S
H833 C857 0.950 . S
H834 C858 0.950 . S
H835 C859 0.951 . S
H836 C861 0.951 . S
H837 C863 0.950 . S
H838 C864 0.950 . S
H839 C866 0.950 . S
H840 C869 0.950 . S
H841 C870 0.950 . S
H842 C872 0.950 . S
H843 C873 0.950 . S
C844 H826 0.951 . S
C844 C845 1.366 . S
C844 C846 1.388 . S
C845 C844 1.366 . S
C845 C849 1.385 . S
C846 H827 0.951 . S
C846 C844 1.388 . S
C846 C847 1.366 . S
C847 C846 1.366 . S
C847 C848 1.414 . S
C847 C850 1.499 . S
C848 H828 0.950 . S
C848 C847 1.414 . S
C848 C849 1.374 . S
C849 H829 0.950 . S
C849 C845 1.385 . S
C849 C848 1.374 . S
C850 C847 1.499 . S
C850 C851 1.373 . S
C850 C852 1.389 . S
C851 H830 0.950 . S
C851 C850 1.373 . S
C851 C867 1.377 . S
C852 C850 1.389 . S
C852 C853 1.524 . S
C852 C866 1.377 . S
C853 C852 1.524 . S
C853 C854 1.397 . S
C853 C858 1.363 . S
C854 H831 0.950 . S
C854 C853 1.397 . S
C854 C855 1.334 . S
C855 H832 0.950 . S
C855 C854 1.334 . S
C855 C856 1.287 . S
C856 C855 1.287 . S
C856 C857 1.524 . S
C856 H875 0.913 . S
C857 H833 0.950 . S
C857 C856 1.524 . S
C857 C858 1.415 . S
C858 H834 0.950 . S
C858 C853 1.363 . S
C858 C857 1.415 . S
C859 H835 0.951 . S
C859 C860 1.366 . S
C859 C861 1.388 . S
C860 C859 1.366 . S
C860 C864 1.385 . S
C861 H836 0.951 . S
C861 C859 1.388 . S
C861 C862 1.366 . S
C862 C861 1.366 . S
C862 C863 1.414 . S
C862 C865 1.499 . S
C863 H837 0.950 . S
C863 C862 1.414 . S
C863 C864 1.374 . S
C864 H838 0.950 . S
C864 C860 1.385 . S
C864 C863 1.374 . S
C865 C862 1.499 . S
C865 C866 1.373 . S
C865 C867 1.389 . S
C866 H839 0.950 . S
C866 C852 1.377 . S
C866 C865 1.373 . S
C867 C851 1.377 . S
C867 C865 1.389 . S
C867 C868 1.524 . S
C868 C867 1.524 . S
C868 C869 1.397 . S
C868 C873 1.363 . S
C869 H840 0.950 . S
C869 C868 1.397 . S
C869 C870 1.334 1_455 S
C870 H841 0.950 . S
C870 C869 1.334 1_655 S
C870 C871 1.287 . S
C871 C870 1.287 . S
C871 C872 1.524 . S
C871 H874 0.999 . S
C872 H842 0.950 . S
C872 C871 1.524 . S
C872 C873 1.415 1_655 S
C873 H843 0.950 . S
C873 C868 1.363 . S
C873 C872 1.415 1_455 S
H874 C871 0.999 . S
H875 C856 0.913 . S
H876 C894 0.951 . S
H877 C896 0.951 . S
H878 C898 0.950 . S
H879 C899 0.950 . S
H880 C901 0.950 . S
H881 C904 0.950 . S
H882 C905 0.950 . S
H883 C907 0.950 . S
H884 C908 0.950 . S
H885 C909 0.951 . S
H886 C911 0.951 . S
H887 C913 0.950 . S
H888 C914 0.950 . S
H889 C916 0.950 . S
H890 C919 0.950 . S
H891 C920 0.950 . S
H892 C922 0.950 . S
H893 C923 0.950 . S
C894 H876 0.951 . S
C894 C895 1.366 . S
C894 C896 1.388 . S
C895 C894 1.366 . S
C895 C899 1.385 . S
C896 H877 0.951 . S
C896 C894 1.388 . S
C896 C897 1.366 . S
C897 C896 1.366 . S
C897 C898 1.414 . S
C897 C900 1.499 . S
C898 H878 0.950 . S
C898 C897 1.414 . S
C898 C899 1.374 . S
C899 H879 0.950 . S
C899 C895 1.385 . S
C899 C898 1.374 . S
C900 C897 1.499 . S
C900 C901 1.373 . S
C900 C902 1.389 . S
C901 H880 0.950 . S
C901 C900 1.373 . S
C901 C917 1.377 . S
C902 C900 1.389 . S
C902 C903 1.524 . S
C902 C916 1.377 . S
C903 C902 1.524 . S
C903 C904 1.397 1_545 S
C903 C908 1.363 . S
C904 H881 0.950 . S
C904 C903 1.397 1_565 S
C904 C905 1.334 . S
C905 H882 0.950 . S
C905 C904 1.334 . S
C905 C906 1.287 . S
C906 C905 1.287 . S
C906 C907 1.524 1_565 S
C906 H925 0.913 . S
C907 H883 0.950 . S
C907 C906 1.524 1_545 S
C907 C908 1.415 . S
C908 H884 0.950 . S
C908 C903 1.363 . S
C908 C907 1.415 . S
C909 H885 0.951 . S
C909 C910 1.366 . S
C909 C911 1.388 . S
C910 C909 1.366 . S
C910 C914 1.385 . S
C911 H886 0.951 . S
C911 C909 1.388 . S
C911 C912 1.366 . S
C912 C911 1.366 . S
C912 C913 1.414 . S
C912 C915 1.499 . S
C913 H887 0.950 . S
C913 C912 1.414 . S
C913 C914 1.374 . S
C914 H888 0.950 . S
C914 C910 1.385 . S
C914 C913 1.374 . S
C915 C912 1.499 . S
C915 C916 1.373 . S
C915 C917 1.389 . S
C916 H889 0.950 . S
C916 C902 1.377 . S
C916 C915 1.373 . S
C917 C901 1.377 . S
C917 C915 1.389 . S
C917 C918 1.524 . S
C918 C917 1.524 . S
C918 C919 1.397 . S
C918 C923 1.363 . S
C919 H890 0.950 . S
C919 C918 1.397 . S
C919 C920 1.334 . S
C920 H891 0.950 . S
C920 C919 1.334 . S
C920 C921 1.287 . S
C921 C920 1.287 . S
C921 C922 1.524 . S
C921 H924 0.999 . S
C922 H892 0.950 . S
C922 C921 1.524 . S
C922 C923 1.415 . S
C923 H893 0.950 . S
C923 C918 1.363 . S
C923 C922 1.415 . S
H924 C921 0.999 . S
H925 C906 0.913 . S
H926 C944 0.951 . S
H927 C946 0.951 . S
H928 C948 0.950 . S
H929 C949 0.950 . S
H930 C951 0.950 . S
H931 C954 0.950 . S
H932 C955 0.950 . S
H933 C957 0.950 . S
H934 C958 0.950 . S
H935 C959 0.951 . S
H936 C961 0.951 . S
H937 C963 0.950 . S
H938 C964 0.950 . S
H939 C966 0.950 . S
H940 C969 0.950 . S
H941 C970 0.950 . S
H942 C972 0.950 . S
H943 C973 0.950 . S
C944 H926 0.951 . S
C944 C945 1.366 . S
C944 C946 1.388 . S
C945 C944 1.366 . S
C945 C949 1.385 . S
C946 H927 0.951 . S
C946 C944 1.388 . S
C946 C947 1.366 . S
C947 C946 1.366 . S
C947 C948 1.414 . S
C947 C950 1.499 . S
C948 H928 0.950 . S
C948 C947 1.414 . S
C948 C949 1.374 . S
C949 H929 0.950 . S
C949 C945 1.385 . S
C949 C948 1.374 . S
C950 C947 1.499 . S
C950 C951 1.373 . S
C950 C952 1.389 . S
C951 H930 0.950 . S
C951 C950 1.373 . S
C951 C967 1.377 . S
C952 C950 1.389 . S
C952 C953 1.524 . S
C952 C966 1.377 . S
C953 C952 1.524 . S
C953 C954 1.397 . S
C953 C958 1.363 . S
C954 H931 0.950 . S
C954 C953 1.397 . S
C954 C955 1.334 . S
C955 H932 0.950 . S
C955 C954 1.334 . S
C955 C956 1.287 . S
C956 C955 1.287 . S
C956 C957 1.524 . S
C956 H975 0.913 . S
C957 H933 0.950 . S
C957 C956 1.524 . S
C957 C958 1.415 . S
C958 H934 0.950 . S
C958 C953 1.363 . S
C958 C957 1.415 . S
C959 H935 0.951 . S
C959 C960 1.366 . S
C959 C961 1.388 . S
C960 C959 1.366 . S
C960 C964 1.385 . S
C961 H936 0.951 . S
C961 C959 1.388 . S
C961 C962 1.366 . S
C962 C961 1.366 . S
C962 C963 1.414 . S
C962 C965 1.499 . S
C963 H937 0.950 . S
C963 C962 1.414 . S
C963 C964 1.374 . S
C964 H938 0.950 . S
C964 C960 1.385 . S
C964 C963 1.374 . S
C965 C962 1.499 . S
C965 C966 1.373 . S
C965 C967 1.389 . S
C966 H939 0.950 . S
C966 C952 1.377 . S
C966 C965 1.373 . S
C967 C951 1.377 . S
C967 C965 1.389 . S
C967 C968 1.524 . S
C968 C967 1.524 . S
C968 C969 1.397 . S
C968 C973 1.363 1_655 S
C969 H940 0.950 . S
C969 C968 1.397 . S
C969 C970 1.334 1_655 S
C970 H941 0.950 . S
C970 C969 1.334 1_455 S
C970 C971 1.287 . S
C971 C970 1.287 . S
C971 C972 1.524 . S
C971 H974 0.999 . S
C972 H942 0.950 . S
C972 C971 1.524 . S
C972 C973 1.415 . S
C973 H943 0.950 . S
C973 C968 1.363 1_455 S
C973 C972 1.415 . S
H974 C971 0.999 . S
H975 C956 0.913 . S
H976 C994 0.951 . S
H977 C996 0.951 . S
H978 C998 0.950 . S
H979 C999 0.950 . S
H980 C1001 0.950 . S
H981 C1004 0.950 . S
H982 C1005 0.950 . S
H983 C1007 0.950 . S
H984 C1008 0.950 . S
H985 C1009 0.951 . S
H986 C1011 0.951 . S
H987 C1013 0.950 . S
H988 C1014 0.950 . S
H989 C1016 0.950 . S
H990 C1019 0.950 . S
H991 C1020 0.950 . S
H992 C1022 0.950 . S
H993 C1023 0.950 . S
C994 H976 0.951 . S
C994 C995 1.366 . S
C994 C996 1.388 . S
C995 C994 1.366 . S
C995 C999 1.385 . S
C996 H977 0.951 . S
C996 C994 1.388 . S
C996 C997 1.366 . S
C997 C996 1.366 . S
C997 C998 1.414 . S
C997 C1000 1.499 . S
C998 H978 0.950 . S
C998 C997 1.414 . S
C998 C999 1.374 . S
C999 H979 0.950 . S
C999 C995 1.385 . S
C999 C998 1.374 . S
C1000 C997 1.499 . S
C1000 C1001 1.373 . S
C1000 C1002 1.389 . S
C1001 H980 0.950 . S
C1001 C1000 1.373 . S
C1001 C1017 1.377 . S
C1002 C1000 1.389 . S
C1002 C1003 1.524 . S
C1002 C1016 1.377 . S
C1003 C1002 1.524 . S
C1003 C1004 1.397 . S
C1003 C1008 1.363 . S
C1004 H981 0.950 . S
C1004 C1003 1.397 . S
C1004 C1005 1.334 . S
C1005 H982 0.950 . S
C1005 C1004 1.334 . S
C1005 C1006 1.287 . S
C1006 C1005 1.287 . S
C1006 C1007 1.524 . S
C1006 H1025 0.913 . S
C1007 H983 0.950 . S
C1007 C1006 1.524 . S
C1007 C1008 1.415 . S
C1008 H984 0.950 . S
C1008 C1003 1.363 . S
C1008 C1007 1.415 . S
C1009 H985 0.951 . S
C1009 C1010 1.366 . S
C1009 C1011 1.388 . S
C1010 C1009 1.366 . S
C1010 C1014 1.385 . S
C1011 H986 0.951 . S
C1011 C1009 1.388 . S
C1011 C1012 1.366 . S
C1012 C1011 1.366 . S
C1012 C1013 1.414 . S
C1012 C1015 1.499 . S
C1013 H987 0.950 . S
C1013 C1012 1.414 . S
C1013 C1014 1.374 . S
C1014 H988 0.950 . S
C1014 C1010 1.385 . S
C1014 C1013 1.374 . S
C1015 C1012 1.499 . S
C1015 C1016 1.373 . S
C1015 C1017 1.389 . S
C1016 H989 0.950 . S
C1016 C1002 1.377 . S
C1016 C1015 1.373 . S
C1017 C1001 1.377 . S
C1017 C1015 1.389 . S
C1017 C1018 1.524 . S
C1018 C1017 1.524 . S
C1018 C1019 1.397 . S
C1018 C1023 1.363 . S
C1019 H990 0.950 . S
C1019 C1018 1.397 . S
C1019 C1020 1.334 . S
C1020 H991 0.950 . S
C1020 C1019 1.334 . S
C1020 C1021 1.287 . S
C1021 C1020 1.287 . S
C1021 C1022 1.524 . S
C1021 H1024 0.999 . S
C1022 H992 0.950 . S
C1022 C1021 1.524 . S
C1022 C1023 1.415 . S
C1023 H993 0.950 . S
C1023 C1018 1.363 . S
C1023 C1022 1.415 . S
H1024 C1021 0.999 . S
H1025 C1006 0.913 . S
H1026 C1044 0.951 . S
H1027 C1046 0.951 . S
H1028 C1048 0.950 . S
H1029 C1049 0.950 . S
H1030 C1051 0.950 . S
H1031 C1054 0.950 . S
H1032 C1055 0.950 . S
H1033 C1057 0.950 . S
H1034 C1058 0.950 . S
H1035 C1059 0.951 . S
H1036 C1061 0.951 . S
H1037 C1063 0.950 . S
H1038 C1064 0.950 . S
H1039 C1066 0.950 . S
H1040 C1069 0.950 . S
H1041 C1070 0.950 . S
H1042 C1072 0.950 . S
H1043 C1073 0.950 . S
C1044 H1026 0.951 . S
C1044 C1045 1.366 . S
C1044 C1046 1.388 . S
C1045 C1044 1.366 . S
C1045 C1049 1.385 . S
C1046 H1027 0.951 . S
C1046 C1044 1.388 . S
C1046 C1047 1.366 . S
C1047 C1046 1.366 . S
C1047 C1048 1.414 . S
C1047 C1050 1.499 . S
C1048 H1028 0.950 . S
C1048 C1047 1.414 . S
C1048 C1049 1.374 . S
C1049 H1029 0.950 . S
C1049 C1045 1.385 . S
C1049 C1048 1.374 . S
C1050 C1047 1.499 . S
C1050 C1051 1.373 . S
C1050 C1052 1.389 . S
C1051 H1030 0.950 . S
C1051 C1050 1.373 . S
C1051 C1067 1.377 . S
C1052 C1050 1.389 . S
C1052 C1053 1.524 . S
C1052 C1066 1.377 . S
C1053 C1052 1.524 . S
C1053 C1054 1.397 . S
C1053 C1058 1.363 . S
C1054 H1031 0.950 . S
C1054 C1053 1.397 . S
C1054 C1055 1.334 . S
C1055 H1032 0.950 . S
C1055 C1054 1.334 . S
C1055 C1056 1.287 . S
C1056 C1055 1.287 . S
C1056 C1057 1.524 . S
C1056 H1075 0.913 . S
C1057 H1033 0.950 . S
C1057 C1056 1.524 . S
C1057 C1058 1.415 . S
C1058 H1034 0.950 . S
C1058 C1053 1.363 . S
C1058 C1057 1.415 . S
C1059 H1035 0.951 . S
C1059 C1060 1.366 . S
C1059 C1061 1.388 . S
C1060 C1059 1.366 . S
C1060 C1064 1.385 . S
C1061 H1036 0.951 . S
C1061 C1059 1.388 . S
C1061 C1062 1.366 . S
C1062 C1061 1.366 . S
C1062 C1063 1.414 . S
C1062 C1065 1.499 . S
C1063 H1037 0.950 . S
C1063 C1062 1.414 . S
C1063 C1064 1.374 . S
C1064 H1038 0.950 . S
C1064 C1060 1.385 . S
C1064 C1063 1.374 . S
C1065 C1062 1.499 . S
C1065 C1066 1.373 . S
C1065 C1067 1.389 . S
C1066 H1039 0.950 . S
C1066 C1052 1.377 . S
C1066 C1065 1.373 . S
C1067 C1051 1.377 . S
C1067 C1065 1.389 . S
C1067 C1068 1.524 . S
C1068 C1067 1.524 . S
C1068 C1069 1.397 . S
C1068 C1073 1.363 . S
C1069 H1040 0.950 . S
C1069 C1068 1.397 . S
C1069 C1070 1.334 . S
C1070 H1041 0.950 . S
C1070 C1069 1.334 . S
C1070 C1071 1.287 . S
C1071 C1070 1.287 . S
C1071 C1072 1.524 . S
C1071 H1074 0.999 . S
C1072 H1042 0.950 . S
C1072 C1071 1.524 . S
C1072 C1073 1.415 . S
C1073 H1043 0.950 . S
C1073 C1068 1.363 . S
C1073 C1072 1.415 . S
H1074 C1071 0.999 . S
H1075 C1056 0.913 . S
H1076 C1094 0.951 . S
H1077 C1096 0.951 . S
H1078 C1098 0.950 . S
H1079 C1099 0.950 . S
H1080 C1101 0.950 . S
H1081 C1104 0.950 . S
H1082 C1105 0.950 . S
H1083 C1107 0.950 . S
H1084 C1108 0.950 . S
H1085 C1109 0.951 . S
H1086 C1111 0.951 . S
H1087 C1113 0.950 . S
H1088 C1114 0.950 . S
H1089 C1116 0.950 . S
H1090 C1119 0.950 . S
H1091 C1120 0.950 . S
H1092 C1122 0.950 . S
H1093 C1123 0.950 . S
C1094 H1076 0.951 . S
C1094 C1095 1.366 . S
C1094 C1096 1.388 . S
C1095 C1094 1.366 . S
C1095 C1099 1.385 . S
C1096 H1077 0.951 . S
C1096 C1094 1.388 . S
C1096 C1097 1.366 . S
C1097 C1096 1.366 . S
C1097 C1098 1.414 . S
C1097 C1100 1.499 . S
C1098 H1078 0.950 . S
C1098 C1097 1.414 . S
C1098 C1099 1.374 . S
C1099 H1079 0.950 . S
C1099 C1095 1.385 . S
C1099 C1098 1.374 . S
C1100 C1097 1.499 . S
C1100 C1101 1.373 . S
C1100 C1102 1.389 . S
C1101 H1080 0.950 . S
C1101 C1100 1.373 . S
C1101 C1117 1.377 . S
C1102 C1100 1.389 . S
C1102 C1103 1.524 . S
C1102 C1116 1.377 . S
C1103 C1102 1.524 . S
C1103 C1104 1.397 . S
C1103 C1108 1.363 . S
C1104 H1081 0.950 . S
C1104 C1103 1.397 . S
C1104 C1105 1.334 . S
C1105 H1082 0.950 . S
C1105 C1104 1.334 . S
C1105 C1106 1.287 . S
C1106 C1105 1.287 . S
C1106 C1107 1.524 . S
C1106 H1125 0.913 . S
C1107 H1083 0.950 . S
C1107 C1106 1.524 . S
C1107 C1108 1.415 . S
C1108 H1084 0.950 . S
C1108 C1103 1.363 . S
C1108 C1107 1.415 . S
C1109 H1085 0.951 . S
C1109 C1110 1.366 . S
C1109 C1111 1.388 . S
C1110 C1109 1.366 . S
C1110 C1114 1.385 . S
C1111 H1086 0.951 . S
C1111 C1109 1.388 . S
C1111 C1112 1.366 . S
C1112 C1111 1.366 . S
C1112 C1113 1.414 . S
C1112 C1115 1.499 . S
C1113 H1087 0.950 . S
C1113 C1112 1.414 . S
C1113 C1114 1.374 . S
C1114 H1088 0.950 . S
C1114 C1110 1.385 . S
C1114 C1113 1.374 . S
C1115 C1112 1.499 . S
C1115 C1116 1.373 . S
C1115 C1117 1.389 . S
C1116 H1089 0.950 . S
C1116 C1102 1.377 . S
C1116 C1115 1.373 . S
C1117 C1101 1.377 . S
C1117 C1115 1.389 . S
C1117 C1118 1.524 . S
C1118 C1117 1.524 . S
C1118 C1119 1.397 . S
C1118 C1123 1.363 . S
C1119 H1090 0.950 . S
C1119 C1118 1.397 . S
C1119 C1120 1.334 . S
C1120 H1091 0.950 . S
C1120 C1119 1.334 . S
C1120 C1121 1.287 . S
C1121 C1120 1.287 . S
C1121 C1122 1.524 . S
C1121 H1124 0.999 . S
C1122 H1092 0.950 . S
C1122 C1121 1.524 . S
C1122 C1123 1.415 . S
C1123 H1093 0.950 . S
C1123 C1118 1.363 . S
C1123 C1122 1.415 . S
H1124 C1121 0.999 . S
H1125 C1106 0.913 . S
H1126 C1144 0.951 . S
H1127 C1146 0.951 . S
H1128 C1148 0.950 . S
H1129 C1149 0.950 . S
H1130 C1151 0.950 . S
H1131 C1154 0.950 . S
H1132 C1155 0.950 . S
H1133 C1157 0.950 . S
H1134 C1158 0.950 . S
H1135 C1159 0.951 . S
H1136 C1161 0.951 . S
H1137 C1163 0.950 . S
H1138 C1164 0.950 . S
H1139 C1166 0.950 . S
H1140 C1169 0.950 . S
H1141 C1170 0.950 . S
H1142 C1172 0.950 . S
H1143 C1173 0.950 . S
C1144 H1126 0.951 . S
C1144 C1145 1.366 . S
C1144 C1146 1.388 . S
C1145 C1144 1.366 . S
C1145 C1149 1.385 . S
C1146 H1127 0.951 . S
C1146 C1144 1.388 . S
C1146 C1147 1.366 . S
C1147 C1146 1.366 . S
C1147 C1148 1.414 . S
C1147 C1150 1.499 . S
C1148 H1128 0.950 . S
C1148 C1147 1.414 . S
C1148 C1149 1.374 . S
C1149 H1129 0.950 . S
C1149 C1145 1.385 . S
C1149 C1148 1.374 . S
C1150 C1147 1.499 . S
C1150 C1151 1.373 . S
C1150 C1152 1.389 . S
C1151 H1130 0.950 . S
C1151 C1150 1.373 . S
C1151 C1167 1.377 . S
C1152 C1150 1.389 . S
C1152 C1153 1.524 . S
C1152 C1166 1.377 . S
C1153 C1152 1.524 . S
C1153 C1154 1.397 . S
C1153 C1158 1.363 . S
C1154 H1131 0.950 . S
C1154 C1153 1.397 . S
C1154 C1155 1.334 . S
C1155 H1132 0.950 . S
C1155 C1154 1.334 . S
C1155 C1156 1.287 . S
C1156 C1155 1.287 . S
C1156 C1157 1.524 . S
C1156 H1175 0.913 . S
C1157 H1133 0.950 . S
C1157 C1156 1.524 . S
C1157 C1158 1.415 . S
C1158 H1134 0.950 . S
C1158 C1153 1.363 . S
C1158 C1157 1.415 . S
C1159 H1135 0.951 . S
C1159 C1160 1.366 . S
C1159 C1161 1.388 . S
C1160 C1159 1.366 . S
C1160 C1164 1.385 . S
C1161 H1136 0.951 . S
C1161 C1159 1.388 . S
C1161 C1162 1.366 . S
C1162 C1161 1.366 . S
C1162 C1163 1.414 . S
C1162 C1165 1.499 . S
C1163 H1137 0.950 . S
C1163 C1162 1.414 . S
C1163 C1164 1.374 . S
C1164 H1138 0.950 . S
C1164 C1160 1.385 . S
C1164 C1163 1.374 . S
C1165 C1162 1.499 . S
C1165 C1166 1.373 . S
C1165 C1167 1.389 . S
C1166 H1139 0.950 . S
C1166 C1152 1.377 . S
C1166 C1165 1.373 . S
C1167 C1151 1.377 . S
C1167 C1165 1.389 . S
C1167 C1168 1.524 . S
C1168 C1167 1.524 . S
C1168 C1169 1.397 . S
C1168 C1173 1.363 . S
C1169 H1140 0.950 . S
C1169 C1168 1.397 . S
C1169 C1170 1.334 . S
C1170 H1141 0.950 . S
C1170 C1169 1.334 . S
C1170 C1171 1.287 . S
C1171 C1170 1.287 . S
C1171 C1172 1.524 . S
C1171 H1174 0.999 . S
C1172 H1142 0.950 . S
C1172 C1171 1.524 . S
C1172 C1173 1.415 . S
C1173 H1143 0.950 . S
C1173 C1168 1.363 . S
C1173 C1172 1.415 . S
H1174 C1171 0.999 . S
H1175 C1156 0.913 . S
H1176 C1194 0.951 . S
H1177 C1196 0.951 . S
H1178 C1198 0.950 . S
H1179 C1199 0.950 . S
H1180 C1201 0.950 . S
H1181 C1204 0.950 . S
H1182 C1205 0.950 . S
H1183 C1207 0.950 . S
H1184 C1208 0.950 . S
H1185 C1209 0.951 . S
H1186 C1211 0.951 . S
H1187 C1213 0.950 . S
H1188 C1214 0.950 . S
H1189 C1216 0.950 . S
H1190 C1219 0.950 . S
H1191 C1220 0.950 . S
H1192 C1222 0.950 . S
H1193 C1223 0.950 . S
C1194 H1176 0.951 . S
C1194 C1195 1.366 . S
C1194 C1196 1.388 . S
C1195 C1194 1.366 . S
C1195 C1199 1.385 . S
C1196 H1177 0.951 . S
C1196 C1194 1.388 . S
C1196 C1197 1.366 . S
C1197 C1196 1.366 . S
C1197 C1198 1.414 . S
C1197 C1200 1.499 . S
C1198 H1178 0.950 . S
C1198 C1197 1.414 . S
C1198 C1199 1.374 . S
C1199 H1179 0.950 . S
C1199 C1195 1.385 . S
C1199 C1198 1.374 . S
C1200 C1197 1.499 . S
C1200 C1201 1.373 . S
C1200 C1202 1.389 . S
C1201 H1180 0.950 . S
C1201 C1200 1.373 . S
C1201 C1217 1.377 . S
C1202 C1200 1.389 . S
C1202 C1203 1.524 . S
C1202 C1216 1.377 . S
C1203 C1202 1.524 . S
C1203 C1204 1.397 . S
C1203 C1208 1.363 . S
C1204 H1181 0.950 . S
C1204 C1203 1.397 . S
C1204 C1205 1.334 . S
C1205 H1182 0.950 . S
C1205 C1204 1.334 . S
C1205 C1206 1.287 . S
C1206 C1205 1.287 . S
C1206 C1207 1.524 . S
C1206 H1225 0.913 . S
C1207 H1183 0.950 . S
C1207 C1206 1.524 . S
C1207 C1208 1.415 . S
C1208 H1184 0.950 . S
C1208 C1203 1.363 . S
C1208 C1207 1.415 . S
C1209 H1185 0.951 . S
C1209 C1210 1.366 . S
C1209 C1211 1.388 . S
C1210 C1209 1.366 . S
C1210 C1214 1.385 . S
C1211 H1186 0.951 . S
C1211 C1209 1.388 . S
C1211 C1212 1.366 . S
C1212 C1211 1.366 . S
C1212 C1213 1.414 . S
C1212 C1215 1.499 . S
C1213 H1187 0.950 . S
C1213 C1212 1.414 . S
C1213 C1214 1.374 . S
C1214 H1188 0.950 . S
C1214 C1210 1.385 . S
C1214 C1213 1.374 . S
C1215 C1212 1.499 . S
C1215 C1216 1.373 . S
C1215 C1217 1.389 . S
C1216 H1189 0.950 . S
C1216 C1202 1.377 . S
C1216 C1215 1.373 . S
C1217 C1201 1.377 . S
C1217 C1215 1.389 . S
C1217 C1218 1.524 . S
C1218 C1217 1.524 . S
C1218 C1219 1.397 . S
C1218 C1223 1.363 . S
C1219 H1190 0.950 . S
C1219 C1218 1.397 . S
C1219 C1220 1.334 . S
C1220 H1191 0.950 . S
C1220 C1219 1.334 . S
C1220 C1221 1.287 . S
C1221 C1220 1.287 . S
C1221 C1222 1.524 . S
C1221 H1224 0.999 . S
C1222 H1192 0.950 . S
C1222 C1221 1.524 . S
C1222 C1223 1.415 . S
C1223 H1193 0.950 . S
C1223 C1218 1.363 . S
C1223 C1222 1.415 . S
H1224 C1221 0.999 . S
H1225 C1206 0.913 . S
H1226 C1244 0.951 . S
H1227 C1246 0.951 . S
H1228 C1248 0.950 . S
H1229 C1249 0.950 . S
H1230 C1251 0.950 . S
H1231 C1254 0.950 . S
H1232 C1255 0.950 . S
H1233 C1257 0.950 . S
H1234 C1258 0.950 . S
H1235 C1259 0.951 . S
H1236 C1261 0.951 . S
H1237 C1263 0.950 . S
H1238 C1264 0.950 . S
H1239 C1266 0.950 . S
H1240 C1269 0.950 . S
H1241 C1270 0.950 . S
H1242 C1272 0.950 . S
H1243 C1273 0.950 . S
C1244 H1226 0.951 . S
C1244 C1245 1.366 . S
C1244 C1246 1.388 . S
C1245 C1244 1.366 . S
C1245 C1249 1.385 . S
C1246 H1227 0.951 . S
C1246 C1244 1.388 . S
C1246 C1247 1.366 . S
C1247 C1246 1.366 . S
C1247 C1248 1.414 . S
C1247 C1250 1.499 . S
C1248 H1228 0.950 . S
C1248 C1247 1.414 . S
C1248 C1249 1.374 . S
C1249 H1229 0.950 . S
C1249 C1245 1.385 . S
C1249 C1248 1.374 . S
C1250 C1247 1.499 . S
C1250 C1251 1.373 . S
C1250 C1252 1.389 . S
C1251 H1230 0.950 . S
C1251 C1250 1.373 . S
C1251 C1267 1.377 . S
C1252 C1250 1.389 . S
C1252 C1253 1.524 . S
C1252 C1266 1.377 . S
C1253 C1252 1.524 . S
C1253 C1254 1.397 . S
C1253 C1258 1.363 . S
C1254 H1231 0.950 . S
C1254 C1253 1.397 . S
C1254 C1255 1.334 . S
C1255 H1232 0.950 . S
C1255 C1254 1.334 . S
C1255 C1256 1.287 . S
C1256 C1255 1.287 . S
C1256 C1257 1.524 . S
C1256 H1275 0.913 . S
C1257 H1233 0.950 . S
C1257 C1256 1.524 . S
C1257 C1258 1.415 . S
C1258 H1234 0.950 . S
C1258 C1253 1.363 . S
C1258 C1257 1.415 . S
C1259 H1235 0.951 . S
C1259 C1260 1.366 . S
C1259 C1261 1.388 . S
C1260 C1259 1.366 . S
C1260 C1264 1.385 . S
C1261 H1236 0.951 . S
C1261 C1259 1.388 . S
C1261 C1262 1.366 . S
C1262 C1261 1.366 . S
C1262 C1263 1.414 . S
C1262 C1265 1.499 . S
C1263 H1237 0.950 . S
C1263 C1262 1.414 . S
C1263 C1264 1.374 . S
C1264 H1238 0.950 . S
C1264 C1260 1.385 . S
C1264 C1263 1.374 . S
C1265 C1262 1.499 . S
C1265 C1266 1.373 . S
C1265 C1267 1.389 . S
C1266 H1239 0.950 . S
C1266 C1252 1.377 . S
C1266 C1265 1.373 . S
C1267 C1251 1.377 . S
C1267 C1265 1.389 . S
C1267 C1268 1.524 . S
C1268 C1267 1.524 . S
C1268 C1269 1.397 . S
C1268 C1273 1.363 . S
C1269 H1240 0.950 . S
C1269 C1268 1.397 . S
C1269 C1270 1.334 . S
C1270 H1241 0.950 . S
C1270 C1269 1.334 . S
C1270 C1271 1.287 . S
C1271 C1270 1.287 . S
C1271 C1272 1.524 . S
C1271 H1274 0.999 . S
C1272 H1242 0.950 . S
C1272 C1271 1.524 . S
C1272 C1273 1.415 . S
C1273 H1243 0.950 . S
C1273 C1268 1.363 . S
C1273 C1272 1.415 . S
H1274 C1271 0.999 . S
H1275 C1256 0.913 . S
H1276 C1294 0.951 . S
H1277 C1296 0.951 . S
H1278 C1298 0.950 . S
H1279 C1299 0.950 . S
H1280 C1301 0.950 . S
H1281 C1304 0.950 . S
H1282 C1305 0.950 . S
H1283 C1307 0.950 . S
H1284 C1308 0.950 . S
H1285 C1309 0.951 . S
H1286 C1311 0.951 . S
H1287 C1313 0.950 . S
H1288 C1314 0.950 . S
H1289 C1316 0.950 . S
H1290 C1319 0.950 . S
H1291 C1320 0.950 . S
H1292 C1322 0.950 . S
H1293 C1323 0.950 . S
C1294 H1276 0.951 . S
C1294 C1295 1.366 . S
C1294 C1296 1.388 . S
C1295 C1294 1.366 . S
C1295 C1299 1.385 . S
C1296 H1277 0.951 . S
C1296 C1294 1.388 . S
C1296 C1297 1.366 . S
C1297 C1296 1.366 . S
C1297 C1298 1.414 . S
C1297 C1300 1.499 . S
C1298 H1278 0.950 . S
C1298 C1297 1.414 . S
C1298 C1299 1.374 . S
C1299 H1279 0.950 . S
C1299 C1295 1.385 . S
C1299 C1298 1.374 . S
C1300 C1297 1.499 . S
C1300 C1301 1.373 . S
C1300 C1302 1.389 . S
C1301 H1280 0.950 . S
C1301 C1300 1.373 . S
C1301 C1317 1.377 . S
C1302 C1300 1.389 . S
C1302 C1303 1.524 . S
C1302 C1316 1.377 . S
C1303 C1302 1.524 . S
C1303 C1304 1.397 . S
C1303 C1308 1.363 . S
C1304 H1281 0.950 . S
C1304 C1303 1.397 . S
C1304 C1305 1.334 . S
C1305 H1282 0.950 . S
C1305 C1304 1.334 . S
C1305 C1306 1.287 . S
C1306 C1305 1.287 . S
C1306 C1307 1.524 . S
C1306 H1325 0.913 . S
C1307 H1283 0.950 . S
C1307 C1306 1.524 . S
C1307 C1308 1.415 . S
C1308 H1284 0.950 . S
C1308 C1303 1.363 . S
C1308 C1307 1.415 . S
C1309 H1285 0.951 . S
C1309 C1310 1.366 . S
C1309 C1311 1.388 . S
C1310 C1309 1.366 . S
C1310 C1314 1.385 . S
C1311 H1286 0.951 . S
C1311 C1309 1.388 . S
C1311 C1312 1.366 . S
C1312 C1311 1.366 . S
C1312 C1313 1.414 . S
C1312 C1315 1.499 . S
C1313 H1287 0.950 . S
C1313 C1312 1.414 . S
C1313 C1314 1.374 . S
C1314 H1288 0.950 . S
C1314 C1310 1.385 . S
C1314 C1313 1.374 . S
C1315 C1312 1.499 . S
C1315 C1316 1.373 . S
C1315 C1317 1.389 . S
C1316 H1289 0.950 . S
C1316 C1302 1.377 . S
C1316 C1315 1.373 . S
C1317 C1301 1.377 . S
C1317 C1315 1.389 . S
C1317 C1318 1.524 . S
C1318 C1317 1.524 . S
C1318 C1319 1.397 . S
C1318 C1323 1.363 . S
C1319 H1290 0.950 . S
C1319 C1318 1.397 . S
C1319 C1320 1.334 . S
C1320 H1291 0.950 . S
C1320 C1319 1.334 . S
C1320 C1321 1.287 . S
C1321 C1320 1.287 . S
C1321 C1322 1.524 . S
C1321 H1324 0.999 . S
C1322 H1292 0.950 . S
C1322 C1321 1.524 . S
C1322 C1323 1.415 . S
C1323 H1293 0.950 . S
C1323 C1318 1.363 . S
C1323 C1322 1.415 . S
H1324 C1321 0.999 . S
H1325 C1306 0.913 . S
H1326 C1344 0.951 . S
H1327 C1346 0.951 . S
H1328 C1348 0.950 . S
H1329 C1349 0.950 . S
H1330 C1351 0.950 . S
H1331 C1354 0.950 . S
H1332 C1355 0.950 . S
H1333 C1357 0.950 . S
H1334 C1358 0.950 . S
H1335 C1359 0.951 . S
H1336 C1361 0.951 . S
H1337 C1363 0.950 . S
H1338 C1364 0.950 . S
H1339 C1366 0.950 . S
H1340 C1369 0.950 . S
H1341 C1370 0.950 . S
H1342 C1372 0.950 . S
H1343 C1373 0.950 . S
C1344 H1326 0.951 . S
C1344 C1345 1.366 . S
C1344 C1346 1.388 . S
C1345 C1344 1.366 . S
C1345 C1349 1.385 . S
C1346 H1327 0.951 . S
C1346 C1344 1.388 . S
C1346 C1347 1.366 . S
C1347 C1346 1.366 . S
C1347 C1348 1.414 . S
C1347 C1350 1.499 . S
C1348 H1328 0.950 . S
C1348 C1347 1.414 . S
C1348 C1349 1.374 . S
C1349 H1329 0.950 . S
C1349 C1345 1.385 . S
C1349 C1348 1.374 . S
C1350 C1347 1.499 . S
C1350 C1351 1.373 . S
C1350 C1352 1.389 . S
C1351 H1330 0.950 . S
C1351 C1350 1.373 . S
C1351 C1367 1.377 . S
C1352 C1350 1.389 . S
C1352 C1353 1.524 . S
C1352 C1366 1.377 . S
C1353 C1352 1.524 . S
C1353 C1354 1.397 . S
C1353 C1358 1.363 . S
C1354 H1331 0.950 . S
C1354 C1353 1.397 . S
C1354 C1355 1.334 . S
C1355 H1332 0.950 . S
C1355 C1354 1.334 . S
C1355 C1356 1.287 . S
C1356 C1355 1.287 . S
C1356 C1357 1.524 . S
C1356 H1375 0.913 . S
C1357 H1333 0.950 . S
C1357 C1356 1.524 . S
C1357 C1358 1.415 . S
C1358 H1334 0.950 . S
C1358 C1353 1.363 . S
C1358 C1357 1.415 . S
C1359 H1335 0.951 . S
C1359 C1360 1.366 . S
C1359 C1361 1.388 . S
C1360 C1359 1.366 . S
C1360 C1364 1.385 . S
C1361 H1336 0.951 . S
C1361 C1359 1.388 . S
C1361 C1362 1.366 . S
C1362 C1361 1.366 . S
C1362 C1363 1.414 . S
C1362 C1365 1.499 . S
C1363 H1337 0.950 . S
C1363 C1362 1.414 . S
C1363 C1364 1.374 . S
C1364 H1338 0.950 . S
C1364 C1360 1.385 . S
C1364 C1363 1.374 . S
C1365 C1362 1.499 . S
C1365 C1366 1.373 . S
C1365 C1367 1.389 . S
C1366 H1339 0.950 . S
C1366 C1352 1.377 . S
C1366 C1365 1.373 . S
C1367 C1351 1.377 . S
C1367 C1365 1.389 . S
C1367 C1368 1.524 . S
C1368 C1367 1.524 . S
C1368 C1369 1.397 . S
C1368 C1373 1.363 . S
C1369 H1340 0.950 . S
C1369 C1368 1.397 . S
C1369 C1370 1.334 . S
C1370 H1341 0.950 . S
C1370 C1369 1.334 . S
C1370 C1371 1.287 . S
C1371 C1370 1.287 . S
C1371 C1372 1.524 . S
C1371 H1374 0.999 . S
C1372 H1342 0.950 . S
C1372 C1371 1.524 . S
C1372 C1373 1.415 . S
C1373 H1343 0.950 . S
C1373 C1368 1.363 . S
C1373 C1372 1.415 . S
H1374 C1371 0.999 . S
H1375 C1356 0.913 . S
C195 C45 1.558 . S
C210 C111 1.568 . S
C245 C30 1.558 . S
C260 C120 1.568 . S
C295 C39 1.558 . S
C310 C129 1.564 . S
C360 C138 1.568 . S
C345 C34 1.558 . S
C395 C97 1.558 . S
C410 C147 1.568 . S
C460 C156 1.568 . S
C445 C82 1.558 . S
C510 C165 1.564 . S
C495 C91 1.558 . S
C560 C174 1.568 . S
C545 C86 1.558 . S
C610 C163 1.453 . S
C595 C26 1.418 . S
C660 C171 1.455 . S
C645 C36 1.417 . S
C710 C144 1.456 . S
C695 C32 1.418 . S
C760 C153 1.455 . S
C745 C42 1.417 . S
C795 C18 1.491 . S
C810 C154 1.544 . S
C860 C162 1.538 . S
C845 C50 1.489 . S
C895 C4 1.492 . S
C910 C172 1.545 . S
C945 C48 1.490 . S
C960 C145 1.543 . S
C1010 C127 1.454 . S
C995 C78 1.420 . S
C1045 C88 1.417 . S
C1060 C135 1.455 . S
C1110 C108 1.457 . S
C1095 C84 1.418 . S
C1160 C117 1.455 . S
C1145 C94 1.417 . S
C1210 C118 1.545 . S
C1195 C70 1.492 . S
C1260 C126 1.538 . S
C1245 C102 1.489 . S
C1295 C56 1.492 . S
C1310 C136 1.545 . S
C1345 C100 1.490 . S
C1360 C109 1.543 . S
