# Generated by pormake.
# Topology tsx, (6,3)-cn, num edge types: 1
# Building blocks:
#     Node 0, Type 0, BuildingBlock: FUNLAD_clean_sbu_0, # of connection points: 6
#     Node 1, Type 0, BuildingBlock: FUNLAD_clean_sbu_0, # of connection points: 6
#     Node 2, Type 1, BuildingBlock: BELTOD_clean_linker_0, # of connection points: 3
#     Node 3, Type 1, BuildingBlock: BELTOD_clean_linker_0, # of connection points: 3
#     Node 4, Type 1, BuildingBlock: BELTOD_clean_linker_0, # of connection points: 3
#     Node 5, Type 1, BuildingBlock: BELTOD_clean_linker_0, # of connection points: 3
#     Edge 6, Type (0, 1), BuildingBlock: CIFDUS_clean_linker_0, # of connection points: 2
#     Edge 7, Type (0, 1), BuildingBlock: CIFDUS_clean_linker_0, # of connection points: 2
#     Edge 8, Type (0, 1), BuildingBlock: CIFDUS_clean_linker_0, # of connection points: 2
#     Edge 9, Type (0, 1), BuildingBlock: CIFDUS_clean_linker_0, # of connection points: 2
#     Edge 10, Type (0, 1), BuildingBlock: CIFDUS_clean_linker_0, # of connection points: 2
#     Edge 11, Type (0, 1), BuildingBlock: CIFDUS_clean_linker_0, # of connection points: 2
#     Edge 12, Type (0, 1), BuildingBlock: CIFDUS_clean_linker_0, # of connection points: 2
#     Edge 13, Type (0, 1), BuildingBlock: CIFDUS_clean_linker_0, # of connection points: 2
#     Edge 14, Type (0, 1), BuildingBlock: CIFDUS_clean_linker_0, # of connection points: 2
#     Edge 15, Type (0, 1), BuildingBlock: CIFDUS_clean_linker_0, # of connection points: 2
#     Edge 16, Type (0, 1), BuildingBlock: CIFDUS_clean_linker_0, # of connection points: 2
#     Edge 17, Type (0, 1), BuildingBlock: CIFDUS_clean_linker_0, # of connection points: 2
# Relax obj value: 0.151
# Max RMSD: 0.148
# Mean RMSD: 0.074
data_MOF--net-tsx--node1-FUNLAD_clean_sbu_0--node2-BELTOD_clean_linker_0--edge1-CIFDUS_clean_linker_0
_symmetry_space_group_name_H-M    P1
_symmetry_Int_Tables_number       1
_symmetry_cell_setting            triclinic
loop_
_symmetry_equiv_pos_as_xyz
'x, y, z'
_cell_length_a     19.101598
_cell_length_b     21.199882
_cell_length_c     41.986072
_cell_angle_alpha  91.752783
_cell_angle_beta   92.091078
_cell_angle_gamma 90.252712
loop_
_atom_site_label
_atom_site_type_symbol
_atom_site_fract_x
_atom_site_fract_y
_atom_site_fract_z
_atom_type_partial_charge
C0 C 0.88532 0.91612 0.00068 0.0
N1 N 0.98162 0.01577 0.07764 0.0
C2 C 0.92222 0.02048 0.0945 0.0
C3 C 0.92635 0.02149 0.12788 0.0
C4 C 0.99208 0.01666 0.14368 0.0
C5 C 0.05221 0.01239 0.12566 0.0
C6 C 0.04582 0.01243 0.0926 0.0
Zn7 Zn 0.98054 0.0132 0.02905 0.0
C8 C 0.09019 0.92542 0.00516 0.0
N9 N 0.99064 0.00796 0.92763 0.0
C10 C 0.93282 0.9974 0.90825 0.0
C11 C 0.05492 0.01596 0.91536 0.0
C12 C 0.06302 0.01371 0.88251 0.0
C13 C 0.00454 0.00268 0.86188 0.0
C14 C 0.93868 0.99427 0.87508 0.0
Zn15 Zn 0.98561 0.01083 0.97632 0.0
O16 O 0.90252 0.9443 0.0269 0.0
C17 C 0.87747 0.09966 -0.0003 0.0
O18 O 0.91393 0.93166 0.97508 0.0
H19 H 0.10043 0.02356 0.93109 0.0
H20 H 0.87176 0.02324 0.08208 0.0
H21 H 0.88222 0.99114 0.9185 0.0
O22 O 0.90347 0.08446 0.0267 0.0
O23 O 0.90014 0.07401 0.97432 0.0
H24 H 0.09255 0.00977 0.07888 0.0
O25 O 0.05788 0.0896 0.97917 0.0
O26 O 0.05738 0.08336 0.03114 0.0
O27 O 0.07071 0.94889 0.97891 0.0
O28 O 0.05903 0.94116 0.03036 0.0
C29 C 0.07996 0.10913 0.00668 0.0
H30 H 0.87887 0.02493 0.14115 0.0
H31 H 0.10387 0.00972 0.13707 0.0
H32 H 0.11492 0.01932 0.87339 0.0
H33 H 0.89225 0.9859 0.85994 0.0
C34 C 0.35549 0.40357 0.50978 0.0
N35 N 0.46074 0.49237 0.58832 0.0
C36 C 0.40107 0.50164 0.60457 0.0
C37 C 0.40345 0.50275 0.63795 0.0
C38 C 0.46763 0.49324 0.65445 0.0
C39 C 0.52805 0.48371 0.63702 0.0
C40 C 0.52352 0.48387 0.60391 0.0
Zn41 Zn 0.46129 0.4912 0.53972 0.0
C42 C 0.55748 0.39393 0.51476 0.0
N43 N 0.47064 0.48815 0.43797 0.0
C44 C 0.4133 0.48566 0.4177 0.0
C45 C 0.5365 0.48496 0.42672 0.0
C46 C 0.54676 0.47676 0.39422 0.0
C47 C 0.48882 0.47198 0.37279 0.0
C48 C 0.42128 0.47789 0.38473 0.0
Zn49 Zn 0.46385 0.49076 0.48669 0.0
O50 O 0.37696 0.42738 0.53652 0.0
C51 C 0.36891 0.58864 0.51138 0.0
O52 O 0.38316 0.42059 0.48426 0.0
H53 H 0.58151 0.48713 0.44309 0.0
H54 H 0.35176 0.50839 0.59167 0.0
H55 H 0.36141 0.48812 0.42714 0.0
O56 O 0.39175 0.56793 0.53787 0.0
O57 O 0.38861 0.56342 0.48534 0.0
H58 H 0.57057 0.4776 0.59066 0.0
O59 O 0.54628 0.56051 0.49052 0.0
O60 O 0.54451 0.55531 0.54253 0.0
O61 O 0.53779 0.41857 0.48885 0.0
O62 O 0.5328 0.41436 0.54073 0.0
C63 C 0.57028 0.57832 0.51801 0.0
H64 H 0.35579 0.51038 0.65071 0.0
H65 H 0.57872 0.47746 0.64893 0.0
H66 H 0.59972 0.47341 0.38594 0.0
H67 H 0.37527 0.47428 0.36892 0.0
P68 P 0.08187 0.09232 0.43969 0.0
H69 H 0.04524 0.18815 0.48803 0.0
H70 H 0.93226 0.23142 0.50314 0.0
H71 H 0.82587 0.09044 0.4423 0.0
H72 H 0.93856 0.04908 0.42649 0.0
H73 H 0.21992 0.03745 0.44653 0.0
H74 H 0.2607 0.93291 0.46176 0.0
H75 H 0.04721 0.87536 0.47541 0.0
H76 H 0.00698 0.9809 0.46217 0.0
H77 H 0.07962 0.18717 0.39087 0.0
H78 H 0.04914 0.98592 0.39528 0.0
O79 O 0.14295 0.1471 0.44882 0.0
H80 H 0.05167 0.18144 0.33342 0.0
H81 H 0.01977 0.98005 0.33848 0.0
C82 C 0.0001 0.11608 0.45582 0.0
C83 C 0.99754 0.16603 0.47835 0.0
C84 C 0.93293 0.19035 0.48717 0.0
C85 C 0.87024 0.16475 0.47358 0.0
C86 C 0.87331 0.11183 0.45272 0.0
C87 C 0.93772 0.08798 0.44378 0.0
C88 C 0.11081 0.01758 0.45404 0.0
C89 C 0.18215 0.00302 0.45379 0.0
C90 C 0.20526 0.94334 0.46223 0.0
C91 C 0.15688 0.89663 0.46979 0.0
C92 C 0.08531 0.91091 0.46978 0.0
C93 C 0.06244 0.97128 0.46223 0.0
C94 C 0.06839 0.08682 0.39715 0.0
C95 C 0.06778 0.14172 0.37941 0.0
C96 C 0.05093 0.13848 0.34672 0.0
C97 C 0.0338 0.08022 0.33139 0.0
C98 C 0.03405 0.02544 0.34943 0.0
C99 C 0.05101 0.02876 0.382 0.0
P100 P 0.1131 0.88237 0.57299 0.0
H101 H 0.09201 0.77558 0.52747 0.0
H102 H 0.98587 0.72422 0.50472 0.0
H103 H 0.86029 0.86948 0.54861 0.0
H104 H 0.96627 0.9196 0.57184 0.0
H105 H 0.25393 0.93113 0.56548 0.0
H106 H 0.29888 0.02756 0.54312 0.0
H107 H 0.08718 0.0886 0.52246 0.0
H108 H 0.04242 0.99085 0.54374 0.0
H109 H 0.09561 0.79803 0.62532 0.0
H110 H 0.07758 0.99765 0.61011 0.0
O111 O 0.17616 0.82814 0.5725 0.0
H112 H 0.06157 0.81483 0.68049 0.0
H113 H 0.04219 0.0147 0.66495 0.0
C114 C 0.03684 0.85095 0.55163 0.0
C115 C 0.04171 0.79691 0.53176 0.0
C116 C 0.98102 0.76783 0.51856 0.0
C117 C 0.91468 0.7924 0.52521 0.0
C118 C 0.91061 0.84891 0.54347 0.0
C119 C 0.97116 0.87777 0.55665 0.0
C120 C 0.14493 0.95293 0.55552 0.0
C121 C 0.21713 0.96462 0.55558 0.0
C122 C 0.24278 0.01974 0.54281 0.0
C123 C 0.19647 0.06517 0.53071 0.0
C124 C 0.12399 0.05424 0.53152 0.0
C125 C 0.09842 -0.00178 0.54356 0.0
C126 C 0.09066 0.89666 0.61383 0.0
C127 C 0.08466 0.84553 0.63393 0.0
C128 C 0.06444 0.85514 0.66534 0.0
C129 C 0.04927 0.91617 0.67718 0.0
C130 C 0.05457 0.96726 0.65676 0.0
C131 C 0.0748 0.95753 0.62532 0.0
P132 P 0.621 0.61759 0.9404 0.0
H133 H 0.6195 0.73885 0.97531 0.0
H134 H 0.52318 0.80453 0.99332 0.0
H135 H 0.37726 0.65308 0.9692 0.0
H136 H 0.47354 0.58783 0.95042 0.0
H137 H 0.76068 0.56749 0.9515 0.0
H138 H 0.80449 0.47039 0.97441 0.0
H139 H 0.59252 0.40955 0.98878 0.0
H140 H 0.54864 0.50892 0.96772 0.0
H141 H 0.60025 0.69897 0.88668 0.0
H142 H 0.56163 0.50379 0.90681 0.0
O143 O 0.6894 0.66638 0.93808 0.0
H144 H 0.5514 0.68118 0.83253 0.0
H145 H 0.5113 0.48609 0.85316 0.0
C146 C 0.55391 0.65814 0.96174 0.0
C147 C 0.56727 0.71883 0.9748 0.0
C148 C 0.51221 0.75647 0.98504 0.0
C149 C 0.44302 0.73374 0.98255 0.0
C150 C 0.43032 0.67128 0.97173 0.0
C151 C 0.48542 0.63389 0.96111 0.0
C152 C 0.65143 0.54641 0.95857 0.0
C153 C 0.72344 0.5342 0.9603 0.0
C154 C 0.74852 0.47863 0.97332 0.0
C155 C 0.7018 0.43309 0.98372 0.0
C156 C 0.6295 0.4444 0.98128 0.0
C157 C 0.60449 0.50116 0.9692 0.0
C158 C 0.58634 0.60243 0.90052 0.0
C159 C 0.58145 0.65224 0.87942 0.0
C160 C 0.55267 0.6422 0.84863 0.0
C161 C 0.52765 0.58213 0.83852 0.0
C162 C 0.53113 0.53265 0.86007 0.0
C163 C 0.56002 0.54278 0.89084 0.0
P164 P 0.60722 0.4162 0.08142 0.0
H165 H 0.59255 0.31069 0.03492 0.0
H166 H 0.4901 0.26129 0.00787 0.0
H167 H 0.35926 0.40898 0.04616 0.0
H168 H 0.46173 0.45684 0.07402 0.0
H169 H 0.7506 0.46204 0.08302 0.0
H170 H 0.80675 0.55293 0.06028 0.0
H171 H 0.60512 0.61681 0.0246 0.0
H172 H 0.54942 0.52469 0.04682 0.0
H173 H 0.57031 0.33147 0.13111 0.0
H174 H 0.57735 0.53259 0.11894 0.0
O175 O 0.66814 0.36006 0.08313 0.0
H176 H 0.53158 0.34858 0.18552 0.0
H177 H 0.53994 0.55021 0.17358 0.0
C178 C 0.53438 0.38676 0.05691 0.0
C179 C 0.54192 0.3328 0.03722 0.0
C180 C 0.48333 0.30494 0.02146 0.0
C181 C 0.41628 0.33073 0.02518 0.0
C182 C 0.40996 0.38729 0.04327 0.0
C183 C 0.4685 0.41489 0.0591 0.0
C184 C 0.64628 0.48539 0.06562 0.0
C185 C 0.71852 0.49519 0.06997 0.0
C186 C 0.75058 0.54715 0.05691 0.0
C187 C 0.71059 0.59136 0.03998 0.0
C188 C 0.63745 0.58331 0.03725 0.0
C189 C 0.60556 0.53048 0.04984 0.0
C190 C 0.57814 0.43068 0.12126 0.0
C191 C 0.56393 0.37935 0.14026 0.0
C192 C 0.54194 0.38923 0.17137 0.0
C193 C 0.53335 0.4508 0.18403 0.0
C194 C 0.5457 0.50221 0.16452 0.0
C195 C 0.56776 0.4922 0.13334 0.0
H196 H 0.18316 0.1431 0.96678 0.0
H197 H 0.09334 0.19014 0.05727 0.0
H198 H 0.18604 0.26709 0.0694 0.0
H199 H 0.29793 0.31326 0.05707 0.0
H200 H 0.39288 0.26566 0.96791 0.0
H201 H 0.29332 0.19648 0.95258 0.0
C202 C 0.18348 0.17108 0.98885 0.0
C203 C 0.13181 0.16074 0.01118 0.0
C204 C 0.23825 0.21453 0.99612 0.0
C205 C 0.13295 0.19684 0.03983 0.0
C206 C 0.18594 0.24087 0.04683 0.0
C207 C 0.29622 0.28912 0.0339 0.0
C208 C 0.35274 0.29483 0.01366 0.0
C209 C 0.23965 0.24902 0.02552 0.0
C210 C 0.35025 0.26174 0.98407 0.0
C211 C 0.29329 0.22227 0.97527 0.0
H212 H 0.20541 0.93656 0.97129 0.0
H213 H 0.11306 0.82285 0.04218 0.0
H214 H 0.21525 0.7528 0.04205 0.0
H215 H 0.32998 0.72271 0.02012 0.0
H216 H 0.42362 0.84259 0.95206 0.0
H217 H 0.32216 0.91199 0.9529 0.0
C218 C 0.20771 0.89633 0.98668 0.0
C219 C 0.15177 0.884 0.00634 0.0
C220 C 0.26699 0.85777 0.98707 0.0
C221 C 0.1557 0.8328 0.02673 0.0
C222 C 0.21395 0.79288 0.02663 0.0
C223 C 0.32807 0.7644 0.00578 0.0
C224 C 0.38394 0.77781 0.98611 0.0
C225 C 0.26979 0.8047 0.00671 0.0
C226 C 0.38142 0.8319 0.96763 0.0
C227 C 0.32331 0.8713 0.96792 0.0
H228 H 0.90945 0.79496 0.98348 0.0
H229 H 0.75338 0.91904 0.02164 0.0
H230 H 0.68056 0.82829 0.03411 0.0
H231 H 0.6692 0.71405 0.04054 0.0
H232 H 0.83143 0.5903 0.0072 0.0
H233 H 0.89414 0.67999 0.9867 0.0
C234 C 0.85852 0.80179 0.99364 0.0
C235 C 0.83592 0.86304 0.00127 0.0
C236 C 0.81893 0.74941 0.00231 0.0
C237 C 0.771 0.87194 0.0153 0.0
C238 C 0.72983 0.82018 0.02268 0.0
C239 C 0.71766 0.70663 0.02832 0.0
C240 C 0.7456 0.6456 0.02549 0.0
C241 C 0.75444 0.75868 0.01732 0.0
C242 C 0.80907 0.63691 0.00999 0.0
C243 C 0.84488 0.68814 0.99812 0.0
H244 H 0.87912 0.20712 0.03538 0.0
H245 H 0.76575 0.1095 0.95799 0.0
H246 H 0.69247 0.20262 0.94961 0.0
H247 H 0.6705 0.3157 0.96035 0.0
H248 H 0.79843 0.41667 0.03168 0.0
H249 H 0.85527 0.31871 0.04698 0.0
C250 C 0.8373 0.20596 0.01716 0.0
C251 C 0.82721 0.15182 0.99744 0.0
C252 C 0.79826 0.26056 0.01141 0.0
C253 C 0.77412 0.15096 0.97342 0.0
C254 C 0.73247 0.20412 0.9686 0.0
C255 C 0.70978 0.31568 0.97968 0.0
C256 C 0.72938 0.3728 0.99541 0.0
C257 C 0.74543 0.25978 0.98686 0.0
C258 C 0.78153 0.37293 0.01983 0.0
C259 C 0.81448 0.31705 0.02833 0.0
H260 H 0.66723 0.61144 0.47489 0.0
H261 H 0.602 0.65007 0.57092 0.0
H262 H 0.70004 0.72244 0.58056 0.0
H263 H 0.80771 0.76972 0.56332 0.0
H264 H 0.87821 0.73046 0.4684 0.0
H265 H 0.77506 0.66307 0.45675 0.0
C266 C 0.67426 0.63628 0.49775 0.0
C267 C 0.62758 0.62518 0.52217 0.0
C268 C 0.73187 0.67732 0.50344 0.0
C269 C 0.63748 0.65733 0.55179 0.0
C270 C 0.69351 0.69883 0.55736 0.0
C271 C 0.79989 0.74752 0.53983 0.0
C272 C 0.85014 0.75551 0.51667 0.0
C273 C 0.74145 0.7085 0.53355 0.0
C274 C 0.84021 0.7249 0.48665 0.0
C275 C 0.78127 0.68649 0.47999 0.0
H276 H 0.59431 0.32317 0.46391 0.0
H277 H 0.64135 0.35397 0.56448 0.0
H278 H 0.74032 0.28113 0.56129 0.0
H279 H 0.81902 0.21573 0.52859 0.0
H280 H 0.77111 0.18896 0.42774 0.0
H281 H 0.66627 0.25253 0.43252 0.0
C282 C 0.62583 0.31359 0.48523 0.0
C283 C 0.61128 0.34439 0.51428 0.0
C284 C 0.68251 0.27243 0.48314 0.0
C285 C 0.65178 0.33082 0.5418 0.0
C286 C 0.70849 0.28947 0.53995 0.0
C287 C 0.78527 0.22357 0.50777 0.0
C288 C 0.80288 0.19765 0.47788 0.0
C289 C 0.72529 0.26115 0.51055 0.0
C290 C 0.75832 0.20754 0.45112 0.0
C291 C 0.69861 0.24437 0.45374 0.0
H292 H 0.36991 0.29128 0.47945 0.0
H293 H 0.23438 0.39581 0.54132 0.0
H294 H 0.166 0.30006 0.54976 0.0
H295 H 0.15512 0.18452 0.54516 0.0
H296 H 0.30164 0.07857 0.48929 0.0
H297 H 0.35539 0.17646 0.47274 0.0
C298 C 0.32412 0.29317 0.49401 0.0
C299 C 0.30628 0.35014 0.50945 0.0
C300 C 0.28796 0.23738 0.50024 0.0
C301 C 0.24832 0.35221 0.52903 0.0
C302 C 0.20969 0.29751 0.53402 0.0
C303 C 0.19797 0.18307 0.5289 0.0
C304 C 0.22429 0.12458 0.51835 0.0
C305 C 0.23055 0.23944 0.52062 0.0
C306 C 0.28061 0.12314 0.49773 0.0
C307 C 0.31134 0.17904 0.48827 0.0
H308 H 0.26145 0.61591 0.47015 0.0
H309 H 0.38313 0.69034 0.55145 0.0
H310 H 0.32603 0.79264 0.54644 0.0
H311 H 0.24996 0.86308 0.51569 0.0
H312 H 0.11945 0.78762 0.4378 0.0
H313 H 0.17146 0.68303 0.4445 0.0
C314 C 0.27449 0.65442 0.48697 0.0
C315 C 0.32667 0.64628 0.51087 0.0
C316 C 0.24043 0.71264 0.48436 0.0
C317 C 0.34289 0.69584 0.53288 0.0
C318 C 0.31067 0.75432 0.52993 0.0
C319 C 0.232 0.82336 0.50073 0.0
C320 C 0.18153 0.83252 0.47631 0.0
C321 C 0.26061 0.76357 0.50532 0.0
C322 C 0.15842 0.78111 0.4568 0.0
C323 C 0.18822 0.72161 0.46056 0.0
H324 H 0.93793 0.10047 0.18626 0.0
H325 H 0.06399 0.93268 0.17943 0.0
H326 H 0.08711 0.93714 0.23704 0.0
H327 H 0.07667 0.99159 0.28869 0.0
H328 H 0.95135 0.15984 0.29627 0.0
H329 H 0.9236 0.15303 0.23892 0.0
C330 C 0.96952 0.06449 0.19757 0.0
C331 C -0.00066 0.01639 0.17881 0.0
C332 C 0.98354 0.06796 0.23065 0.0
C333 C 0.04093 0.97035 0.19351 0.0
C334 C 0.05421 0.97291 0.22637 0.0
C335 C 0.0425 0.02633 0.27789 0.0
C336 C 0.01616 0.07612 0.2967 0.0
C337 C 0.02663 0.02198 0.24508 0.0
C338 C 0.97306 0.12147 0.28222 0.0
C339 C 0.95676 0.11736 0.24949 0.0
H340 H 0.94897 0.91527 0.81913 0.0
H341 H 0.08091 0.08117 0.82621 0.0
H342 H 0.10457 0.07016 0.76957 0.0
H343 H 0.0928 0.01044 0.71875 0.0
H344 H 0.96058 0.8447 0.71126 0.0
H345 H 0.93222 0.85851 0.76731 0.0
C346 C 0.982 0.94952 0.80813 0.0
C347 C 0.01341 -0.00125 0.82688 0.0
C348 C 0.9959 0.94262 0.77556 0.0
C349 C 0.05681 0.04237 0.81238 0.0
C350 C 0.07026 0.03621 0.77999 0.0
C351 C 0.05694 0.97786 0.72922 0.0
C352 C 0.02916 0.92647 0.71082 0.0
C353 C 0.04087 0.98604 0.76145 0.0
C354 C 0.98359 0.88414 0.72498 0.0
C355 C 0.96701 0.89219 0.757 0.0
H356 H 0.41745 0.58305 0.69493 0.0
H357 H 0.53215 0.40833 0.69259 0.0
H358 H 0.55662 0.41833 0.75003 0.0
H359 H 0.55469 0.48143 0.79967 0.0
H360 H 0.44192 0.6573 0.80241 0.0
H361 H 0.40762 0.6424 0.74599 0.0
C362 C 0.44655 0.54665 0.70719 0.0
C363 C 0.47332 0.49524 0.68967 0.0
C364 C 0.46158 0.55337 0.74012 0.0
C365 C 0.51163 0.44861 0.70565 0.0
C366 C 0.52567 0.45434 0.73843 0.0
C367 C 0.52141 0.5159 0.78813 0.0
C368 C 0.50125 0.57054 0.80517 0.0
C369 C 0.50233 0.50724 0.75574 0.0
C370 C 0.45904 0.61526 0.78968 0.0
C371 C 0.43915 0.60665 0.75747 0.0
H372 H 0.42939 0.53 0.32125 0.0
H373 H 0.5735 0.38266 0.34748 0.0
H374 H 0.59876 0.36254 0.2916 0.0
H375 H 0.58363 0.38909 0.2356 0.0
H376 H 0.44023 0.53625 0.2084 0.0
H377 H 0.41143 0.55453 0.26425 0.0
C378 C 0.46572 0.49312 0.31461 0.0
C379 C 0.49988 0.45818 0.33847 0.0
C380 C 0.48058 0.4821 0.28231 0.0
C381 C 0.54727 0.4108 0.32959 0.0
C382 C 0.56162 0.39912 0.29764 0.0
C383 C 0.54531 0.42459 0.24179 0.0
C384 C 0.51405 0.46111 0.21781 0.0
C385 C 0.52914 0.43485 0.27385 0.0
C386 C 0.4656 0.50785 0.22641 0.0
C387 C 0.44884 0.51812 0.25833 0.0
loop_
_geom_bond_atom_site_label_1
_geom_bond_atom_site_label_2
_geom_bond_distance
_geom_bond_site_symmetry_2
_ccdc_geom_bond_type
C0 O16 1.251 . S
C0 O18 1.254 1_554 S
N1 C2 1.333 1_445 S
N1 C6 1.307 . S
N1 Zn7 2.020 . S
C2 N1 1.333 1_665 S
C2 C3 1.379 . S
C2 H20 0.952 . S
C3 C2 1.379 . S
C3 C4 1.390 1_665 S
C3 H30 0.949 . S
C4 C3 1.390 1_445 S
C4 C5 1.357 . S
C5 C4 1.357 . S
C5 C6 1.370 . S
C5 H31 0.950 . S
C6 N1 1.307 . S
C6 C5 1.370 . S
C6 H24 0.948 . S
Zn7 N1 2.020 . S
Zn7 O16 2.039 1_445 S
Zn7 O22 2.034 1_455 S
Zn7 O26 2.025 . S
Zn7 O28 2.024 1_545 S
C8 O27 1.246 1_554 S
C8 O28 1.249 . S
N9 C10 1.305 1_445 S
N9 C11 1.336 . S
N9 Zn15 2.020 . S
C10 N9 1.305 1_665 S
C10 C14 1.370 . S
C10 H21 0.948 . S
C11 N9 1.336 . S
C11 C12 1.379 . S
C11 H19 0.952 . S
C12 C11 1.379 . S
C12 C13 1.390 . S
C12 H32 0.949 . S
C13 C12 1.390 . S
C13 C14 1.357 1_445 S
C14 C10 1.370 . S
C14 C13 1.357 1_665 S
C14 H33 0.950 . S
Zn15 N9 2.020 . S
Zn15 O18 2.025 1_445 S
Zn15 O23 2.024 1_455 S
Zn15 O25 2.039 . S
Zn15 O27 2.034 1_545 S
O16 C0 1.251 . S
O16 Zn7 2.039 1_665 S
C17 O22 1.246 . S
C17 O23 1.249 1_554 S
O18 C0 1.254 1_556 S
O18 Zn15 2.025 1_665 S
H19 C11 0.952 . S
H20 C2 0.952 . S
H21 C10 0.948 . S
O22 Zn7 2.034 1_655 S
O22 C17 1.246 . S
O23 Zn15 2.024 1_655 S
O23 C17 1.249 1_556 S
H24 C6 0.948 . S
O25 Zn15 2.039 . S
O25 C29 1.251 1_556 S
O26 Zn7 2.025 . S
O26 C29 1.254 . S
O27 C8 1.246 1_556 S
O27 Zn15 2.034 1_565 S
O28 Zn7 2.024 1_565 S
O28 C8 1.249 . S
C29 O25 1.251 1_554 S
C29 O26 1.254 . S
H30 C3 0.949 . S
H31 C5 0.950 . S
H32 C12 0.949 . S
H33 C14 0.950 . S
C34 O50 1.251 . S
C34 O52 1.254 . S
N35 C36 1.333 . S
N35 C40 1.307 . S
N35 Zn41 2.020 . S
C36 N35 1.333 . S
C36 C37 1.379 . S
C36 H54 0.952 . S
C37 C36 1.379 . S
C37 C38 1.390 . S
C37 H64 0.949 . S
C38 C37 1.390 . S
C38 C39 1.357 . S
C39 C38 1.357 . S
C39 C40 1.370 . S
C39 H65 0.950 . S
C40 N35 1.307 . S
C40 C39 1.370 . S
C40 H58 0.948 . S
Zn41 N35 2.020 . S
Zn41 O50 2.039 . S
Zn41 O56 2.034 . S
Zn41 O60 2.025 . S
Zn41 O62 2.024 . S
C42 O61 1.246 . S
C42 O62 1.249 . S
N43 C44 1.307 . S
N43 C45 1.333 . S
N43 Zn49 2.020 . S
C44 N43 1.307 . S
C44 C48 1.370 . S
C44 H55 0.948 . S
C45 N43 1.333 . S
C45 C46 1.379 . S
C45 H53 0.952 . S
C46 C45 1.379 . S
C46 C47 1.390 . S
C46 H66 0.949 . S
C47 C46 1.390 . S
C47 C48 1.357 . S
C48 C44 1.370 . S
C48 C47 1.357 . S
C48 H67 0.950 . S
Zn49 N43 2.020 . S
Zn49 O52 2.025 . S
Zn49 O57 2.024 . S
Zn49 O59 2.039 . S
Zn49 O61 2.034 . S
O50 C34 1.251 . S
O50 Zn41 2.039 . S
C51 O56 1.246 . S
C51 O57 1.249 . S
O52 C34 1.254 . S
O52 Zn49 2.025 . S
H53 C45 0.952 . S
H54 C36 0.952 . S
H55 C44 0.948 . S
O56 Zn41 2.034 . S
O56 C51 1.246 . S
O57 Zn49 2.024 . S
O57 C51 1.249 . S
H58 C40 0.948 . S
O59 Zn49 2.039 . S
O59 C63 1.251 . S
O60 Zn41 2.025 . S
O60 C63 1.254 . S
O61 C42 1.246 . S
O61 Zn49 2.034 . S
O62 Zn41 2.024 . S
O62 C42 1.249 . S
C63 O59 1.251 . S
C63 O60 1.254 . S
H64 C37 0.949 . S
H65 C39 0.950 . S
H66 C46 0.949 . S
H67 C48 0.950 . S
P68 O79 1.490 . S
P68 C82 1.812 1_455 S
P68 C88 1.803 1_545 S
P68 C94 1.819 . S
H69 C83 0.941 . S
H70 C84 0.939 . S
H71 C86 0.940 . S
H72 C87 0.940 . S
H73 C89 0.939 . S
H74 C90 0.942 . S
H75 C92 0.940 . S
H76 C93 0.939 . S
H77 C95 0.941 . S
H78 C99 0.939 . S
O79 P68 1.490 . S
H80 C96 0.939 . S
H81 C98 0.940 . S
C82 P68 1.812 1_655 S
C82 C83 1.389 1_655 S
C82 C87 1.391 . S
C83 H69 0.941 . S
C83 C82 1.389 1_455 S
C83 C84 1.397 1_455 S
C84 H70 0.939 . S
C84 C83 1.397 1_655 S
C84 C85 1.378 . S
C85 C84 1.378 . S
C85 C86 1.378 . S
C86 H71 0.940 . S
C86 C85 1.378 . S
C86 C87 1.396 . S
C87 H72 0.940 . S
C87 C82 1.391 . S
C87 C86 1.396 . S
C88 P68 1.803 1_565 S
C88 C89 1.378 . S
C88 C93 1.400 . S
C89 H73 0.939 . S
C89 C88 1.378 . S
C89 C90 1.361 . S
C90 H74 0.942 . S
C90 C89 1.361 . S
C90 C91 1.369 . S
C91 C90 1.369 . S
C91 C92 1.404 . S
C92 H75 0.940 . S
C92 C91 1.404 . S
C92 C93 1.389 . S
C93 H76 0.939 . S
C93 C88 1.400 . S
C93 C92 1.389 . S
C94 P68 1.819 . S
C94 C95 1.391 . S
C94 C99 1.391 1_545 S
C95 H77 0.941 . S
C95 C94 1.391 . S
C95 C96 1.396 . S
C96 H80 0.939 . S
C96 C95 1.396 . S
C96 C97 1.397 . S
C97 C96 1.397 . S
C97 C98 1.385 1_545 S
C98 H81 0.940 . S
C98 C97 1.385 1_565 S
C98 C99 1.388 . S
C99 H78 0.939 . S
C99 C94 1.391 1_565 S
C99 C98 1.388 . S
P100 O111 1.490 . S
P100 C114 1.812 . S
P100 C120 1.803 1_565 S
P100 C126 1.819 . S
H101 C115 0.941 . S
H102 C116 0.939 . S
H103 C118 0.940 . S
H104 C119 0.940 . S
H105 C121 0.939 . S
H106 C122 0.942 . S
H107 C124 0.940 . S
H108 C125 0.939 . S
H109 C127 0.941 . S
H110 C131 0.939 . S
O111 P100 1.490 . S
H112 C128 0.939 . S
H113 C130 0.940 . S
C114 P100 1.812 . S
C114 C115 1.389 . S
C114 C119 1.391 1_455 S
C115 H101 0.941 . S
C115 C114 1.389 . S
C115 C116 1.397 1_455 S
C116 H102 0.939 . S
C116 C115 1.397 1_655 S
C116 C117 1.378 . S
C117 C116 1.378 . S
C117 C118 1.378 . S
C118 H103 0.940 . S
C118 C117 1.378 . S
C118 C119 1.396 . S
C119 H104 0.940 . S
C119 C114 1.391 1_655 S
C119 C118 1.396 . S
C120 P100 1.803 1_545 S
C120 C121 1.378 . S
C120 C125 1.400 . S
C121 H105 0.939 . S
C121 C120 1.378 . S
C121 C122 1.361 . S
C122 H106 0.942 . S
C122 C121 1.361 . S
C122 C123 1.369 . S
C123 C122 1.369 . S
C123 C124 1.404 . S
C124 H107 0.940 . S
C124 C123 1.404 . S
C124 C125 1.389 . S
C125 H108 0.939 . S
C125 C120 1.400 . S
C125 C124 1.389 . S
C126 P100 1.819 . S
C126 C127 1.391 . S
C126 C131 1.391 1_565 S
C127 H109 0.941 . S
C127 C126 1.391 . S
C127 C128 1.396 . S
C128 H112 0.939 . S
C128 C127 1.396 . S
C128 C129 1.397 . S
C129 C128 1.397 . S
C129 C130 1.385 1_565 S
C130 H113 0.940 . S
C130 C129 1.385 1_545 S
C130 C131 1.388 . S
C131 H110 0.939 . S
C131 C126 1.391 1_545 S
C131 C130 1.388 . S
P132 O143 1.490 . S
P132 C146 1.812 . S
P132 C152 1.803 . S
P132 C158 1.819 . S
H133 C147 0.943 . S
H134 C148 0.939 . S
H135 C150 0.940 . S
H136 C151 0.940 . S
H137 C153 0.939 . S
H138 C154 0.942 . S
H139 C156 0.940 1_554 S
H140 C157 0.939 . S
H141 C159 0.941 . S
H142 C163 0.939 . S
O143 P132 1.490 . S
H144 C160 0.939 . S
H145 C162 0.940 . S
C146 P132 1.812 . S
C146 C147 1.389 . S
C146 C151 1.391 . S
C147 H133 0.943 . S
C147 C146 1.389 . S
C147 C148 1.397 1_556 S
C148 H134 0.939 . S
C148 C147 1.397 1_554 S
C148 C149 1.378 1_554 S
C149 C148 1.378 1_556 S
C149 C150 1.378 . S
C150 H135 0.940 . S
C150 C149 1.378 . S
C150 C151 1.396 . S
C151 H136 0.940 . S
C151 C146 1.391 . S
C151 C150 1.396 . S
C152 P132 1.803 . S
C152 C153 1.378 . S
C152 C157 1.400 . S
C153 H137 0.939 . S
C153 C152 1.378 . S
C153 C154 1.361 . S
C154 H138 0.942 . S
C154 C153 1.361 . S
C154 C155 1.369 . S
C155 C154 1.369 . S
C155 C156 1.404 . S
C156 H139 0.940 1_556 S
C156 C155 1.404 . S
C156 C157 1.389 . S
C157 H140 0.939 . S
C157 C152 1.400 . S
C157 C156 1.389 . S
C158 P132 1.819 . S
C158 C159 1.391 . S
C158 C163 1.391 . S
C159 H141 0.941 . S
C159 C158 1.391 . S
C159 C160 1.396 . S
C160 H144 0.939 . S
C160 C159 1.396 . S
C160 C161 1.397 . S
C161 C160 1.397 . S
C161 C162 1.385 . S
C162 H145 0.940 . S
C162 C161 1.385 . S
C162 C163 1.388 . S
C163 H142 0.939 . S
C163 C158 1.391 . S
C163 C162 1.388 . S
P164 O175 1.490 . S
P164 C178 1.812 . S
P164 C184 1.803 . S
P164 C190 1.819 . S
H165 C179 0.941 . S
H166 C180 0.939 1_556 S
H167 C182 0.940 . S
H168 C183 0.940 . S
H169 C185 0.939 . S
H170 C186 0.942 . S
H171 C188 0.940 . S
H172 C189 0.939 . S
H173 C191 0.941 . S
H174 C195 0.939 . S
O175 P164 1.490 . S
H176 C192 0.939 . S
H177 C194 0.940 . S
C178 P164 1.812 . S
C178 C179 1.389 . S
C178 C183 1.391 . S
C179 H165 0.941 . S
C179 C178 1.389 . S
C179 C180 1.397 . S
C180 H166 0.939 1_554 S
C180 C179 1.397 . S
C180 C181 1.378 . S
C181 C180 1.378 . S
C181 C182 1.378 . S
C182 H167 0.940 . S
C182 C181 1.378 . S
C182 C183 1.396 . S
C183 H168 0.940 . S
C183 C178 1.391 . S
C183 C182 1.396 . S
C184 P164 1.803 . S
C184 C185 1.378 . S
C184 C189 1.400 . S
C185 H169 0.939 . S
C185 C184 1.378 . S
C185 C186 1.361 . S
C186 H170 0.942 . S
C186 C185 1.361 . S
C186 C187 1.369 . S
C187 C186 1.369 . S
C187 C188 1.404 . S
C188 H171 0.940 . S
C188 C187 1.404 . S
C188 C189 1.389 . S
C189 H172 0.939 . S
C189 C184 1.400 . S
C189 C188 1.389 . S
C190 P164 1.819 . S
C190 C191 1.391 . S
C190 C195 1.391 . S
C191 H173 0.941 . S
C191 C190 1.391 . S
C191 C192 1.396 . S
C192 H176 0.939 . S
C192 C191 1.396 . S
C192 C193 1.397 . S
C193 C192 1.397 . S
C193 C194 1.385 . S
C194 H177 0.940 . S
C194 C193 1.385 . S
C194 C195 1.388 . S
C195 H174 0.939 . S
C195 C190 1.391 . S
C195 C194 1.388 . S
H196 C202 0.930 1_556 S
H197 C205 0.930 . S
H198 C206 0.930 . S
H199 C207 0.930 . S
H200 C210 0.927 1_556 S
H201 C211 0.930 . S
C202 H196 0.930 1_554 S
C202 C203 1.355 . S
C202 C204 1.415 . S
C203 C202 1.355 . S
C203 C205 1.419 . S
C204 C202 1.415 . S
C204 C209 1.425 . S
C204 C211 1.409 1_554 S
C205 H197 0.930 . S
C205 C203 1.419 . S
C205 C206 1.362 . S
C206 H198 0.930 . S
C206 C205 1.362 . S
C206 C209 1.409 . S
C207 H199 0.930 . S
C207 C208 1.355 . S
C207 C209 1.415 . S
C208 C207 1.355 . S
C208 C210 1.423 . S
C209 C204 1.425 . S
C209 C206 1.409 . S
C209 C207 1.415 . S
C210 H200 0.927 1_554 S
C210 C208 1.423 . S
C210 C211 1.362 1_554 S
C211 H201 0.930 . S
C211 C204 1.409 1_556 S
C211 C210 1.362 1_556 S
H212 C218 0.930 . S
H213 C221 0.930 . S
H214 C222 0.930 . S
H215 C223 0.936 . S
H216 C226 0.930 . S
H217 C227 0.930 . S
C218 H212 0.930 . S
C218 C219 1.355 . S
C218 C220 1.415 . S
C219 C218 1.355 . S
C219 C221 1.419 1_554 S
C220 C218 1.415 . S
C220 C225 1.428 . S
C220 C227 1.409 . S
C221 H213 0.930 . S
C221 C219 1.419 1_556 S
C221 C222 1.362 . S
C222 H214 0.930 . S
C222 C221 1.362 . S
C222 C225 1.407 1_556 S
C223 H215 0.936 . S
C223 C224 1.351 1_556 S
C223 C225 1.414 1_556 S
C224 C223 1.351 1_554 S
C224 C226 1.419 . S
C225 C220 1.428 . S
C225 C222 1.407 1_554 S
C225 C223 1.414 1_554 S
C226 H216 0.930 . S
C226 C224 1.419 . S
C226 C227 1.362 . S
C227 H217 0.930 . S
C227 C220 1.409 . S
C227 C226 1.362 . S
H228 C234 0.930 . S
H229 C237 0.930 . S
H230 C238 0.930 . S
H231 C239 0.930 . S
H232 C242 0.930 . S
H233 C243 0.930 . S
C234 H228 0.930 . S
C234 C235 1.355 1_556 S
C234 C236 1.415 . S
C235 C234 1.355 1_554 S
C235 C237 1.419 . S
C236 C234 1.415 . S
C236 C241 1.425 1_556 S
C236 C243 1.409 . S
C237 H229 0.930 . S
C237 C235 1.419 . S
C237 C238 1.362 . S
C238 H230 0.930 . S
C238 C237 1.362 . S
C238 C241 1.409 . S
C239 H231 0.930 . S
C239 C240 1.355 . S
C239 C241 1.415 . S
C240 C239 1.355 . S
C240 C242 1.419 1_554 S
C241 C236 1.425 1_554 S
C241 C238 1.409 . S
C241 C239 1.415 . S
C242 H232 0.930 . S
C242 C240 1.419 1_556 S
C242 C243 1.362 . S
C243 H233 0.930 . S
C243 C236 1.409 . S
C243 C242 1.362 . S
H244 C250 0.930 . S
H245 C253 0.927 1_556 S
H246 C254 0.930 . S
H247 C255 0.930 . S
H248 C258 0.930 . S
H249 C259 0.930 . S
C250 H244 0.930 . S
C250 C251 1.355 . S
C250 C252 1.415 . S
C251 C250 1.355 . S
C251 C253 1.423 . S
C252 C250 1.415 . S
C252 C257 1.425 . S
C252 C259 1.409 . S
C253 H245 0.927 1_554 S
C253 C251 1.423 . S
C253 C254 1.361 1_554 S
C254 H246 0.930 . S
C254 C253 1.361 1_556 S
C254 C257 1.409 1_556 S
C255 H247 0.930 . S
C255 C256 1.354 1_556 S
C255 C257 1.415 1_556 S
C256 C255 1.354 1_554 S
C256 C258 1.419 . S
C257 C252 1.425 . S
C257 C254 1.409 1_554 S
C257 C255 1.415 1_554 S
C258 H248 0.930 . S
C258 C256 1.419 . S
C258 C259 1.362 . S
C259 H249 0.930 . S
C259 C252 1.409 . S
C259 C258 1.362 . S
H260 C266 0.930 . S
H261 C269 0.930 . S
H262 C270 0.930 . S
H263 C271 0.930 . S
H264 C274 0.930 . S
H265 C275 0.930 . S
C266 H260 0.930 . S
C266 C267 1.355 . S
C266 C268 1.415 . S
C267 C266 1.355 . S
C267 C269 1.419 . S
C268 C266 1.415 . S
C268 C273 1.425 . S
C268 C275 1.409 . S
C269 H261 0.930 . S
C269 C267 1.419 . S
C269 C270 1.362 . S
C270 H262 0.930 . S
C270 C269 1.362 . S
C270 C273 1.409 . S
C271 H263 0.930 . S
C271 C272 1.355 . S
C271 C273 1.415 . S
C272 C271 1.355 . S
C272 C274 1.419 . S
C273 C268 1.425 . S
C273 C270 1.409 . S
C273 C271 1.415 . S
C274 H264 0.930 . S
C274 C272 1.419 . S
C274 C275 1.362 . S
C275 H265 0.930 . S
C275 C268 1.409 . S
C275 C274 1.362 . S
H276 C282 0.930 . S
H277 C285 0.930 . S
H278 C286 0.930 . S
H279 C287 0.930 . S
H280 C290 0.930 . S
H281 C291 0.930 . S
C282 H276 0.930 . S
C282 C283 1.355 . S
C282 C284 1.415 . S
C283 C282 1.355 . S
C283 C285 1.419 . S
C284 C282 1.415 . S
C284 C289 1.425 . S
C284 C291 1.409 . S
C285 H277 0.930 . S
C285 C283 1.419 . S
C285 C286 1.362 . S
C286 H278 0.930 . S
C286 C285 1.362 . S
C286 C289 1.409 . S
C287 H279 0.930 . S
C287 C288 1.355 . S
C287 C289 1.415 . S
C288 C287 1.355 . S
C288 C290 1.419 . S
C289 C284 1.425 . S
C289 C286 1.409 . S
C289 C287 1.415 . S
C290 H280 0.930 . S
C290 C288 1.419 . S
C290 C291 1.362 . S
C291 H281 0.930 . S
C291 C284 1.409 . S
C291 C290 1.362 . S
H292 C298 0.930 . S
H293 C301 0.930 . S
H294 C302 0.930 . S
H295 C303 0.930 . S
H296 C306 0.930 . S
H297 C307 0.930 . S
C298 H292 0.930 . S
C298 C299 1.355 . S
C298 C300 1.415 . S
C299 C298 1.355 . S
C299 C301 1.419 . S
C300 C298 1.415 . S
C300 C305 1.425 . S
C300 C307 1.409 . S
C301 H293 0.930 . S
C301 C299 1.419 . S
C301 C302 1.362 . S
C302 H294 0.930 . S
C302 C301 1.362 . S
C302 C305 1.409 . S
C303 H295 0.930 . S
C303 C304 1.355 . S
C303 C305 1.415 . S
C304 C303 1.355 . S
C304 C306 1.419 . S
C305 C300 1.425 . S
C305 C302 1.409 . S
C305 C303 1.415 . S
C306 H296 0.930 . S
C306 C304 1.419 . S
C306 C307 1.362 . S
C307 H297 0.930 . S
C307 C300 1.409 . S
C307 C306 1.362 . S
H308 C314 0.930 . S
H309 C317 0.930 . S
H310 C318 0.930 . S
H311 C319 0.930 . S
H312 C322 0.930 . S
H313 C323 0.930 . S
C314 H308 0.930 . S
C314 C315 1.355 . S
C314 C316 1.415 . S
C315 C314 1.355 . S
C315 C317 1.419 . S
C316 C314 1.415 . S
C316 C321 1.425 . S
C316 C323 1.409 . S
C317 H309 0.930 . S
C317 C315 1.419 . S
C317 C318 1.362 . S
C318 H310 0.930 . S
C318 C317 1.362 . S
C318 C321 1.409 . S
C319 H311 0.930 . S
C319 C320 1.355 . S
C319 C321 1.415 . S
C320 C319 1.355 . S
C320 C322 1.419 . S
C321 C316 1.425 . S
C321 C318 1.409 . S
C321 C319 1.415 . S
C322 H312 0.930 . S
C322 C320 1.419 . S
C322 C323 1.362 . S
C323 H313 0.930 . S
C323 C316 1.409 . S
C323 C322 1.362 . S
H324 C330 0.930 . S
H325 C333 0.930 . S
H326 C334 0.930 . S
H327 C335 0.930 . S
H328 C338 0.930 . S
H329 C339 0.930 . S
C330 H324 0.930 . S
C330 C331 1.355 1_655 S
C330 C332 1.415 . S
C331 C330 1.355 1_455 S
C331 C333 1.419 1_545 S
C332 C330 1.415 . S
C332 C337 1.425 1_645 S
C332 C339 1.409 . S
C333 H325 0.930 . S
C333 C331 1.419 1_565 S
C333 C334 1.362 . S
C334 H326 0.930 . S
C334 C333 1.362 . S
C334 C337 1.409 . S
C335 H327 0.930 . S
C335 C336 1.355 1_465 S
C335 C337 1.415 . S
C336 C335 1.355 1_645 S
C336 C338 1.419 . S
C337 C332 1.425 1_465 S
C337 C334 1.409 . S
C337 C335 1.415 . S
C338 H328 0.930 . S
C338 C336 1.419 . S
C338 C339 1.362 . S
C339 H329 0.930 . S
C339 C332 1.409 . S
C339 C338 1.362 . S
H340 C346 0.930 . S
H341 C349 0.930 . S
H342 C350 0.930 . S
H343 C351 0.930 . S
H344 C354 0.930 . S
H345 C355 0.930 . S
C346 H340 0.930 . S
C346 C347 1.355 1_565 S
C346 C348 1.415 . S
C347 C346 1.355 1_545 S
C347 C349 1.419 . S
C348 C346 1.415 . S
C348 C353 1.425 1_565 S
C348 C355 1.409 . S
C349 H341 0.930 . S
C349 C347 1.419 . S
C349 C350 1.362 . S
C350 H342 0.930 . S
C350 C349 1.362 . S
C350 C353 1.409 . S
C351 H343 0.930 . S
C351 C352 1.355 1_545 S
C351 C353 1.415 . S
C352 C351 1.355 1_565 S
C352 C354 1.419 . S
C353 C348 1.425 1_545 S
C353 C350 1.409 . S
C353 C351 1.415 . S
C354 H344 0.930 . S
C354 C352 1.419 . S
C354 C355 1.362 . S
C355 H345 0.930 . S
C355 C348 1.409 . S
C355 C354 1.362 . S
H356 C362 0.930 . S
H357 C365 0.930 . S
H358 C366 0.930 . S
H359 C367 0.930 . S
H360 C370 0.930 . S
H361 C371 0.930 . S
C362 H356 0.930 . S
C362 C363 1.355 . S
C362 C364 1.415 . S
C363 C362 1.355 . S
C363 C365 1.419 . S
C364 C362 1.415 . S
C364 C369 1.425 . S
C364 C371 1.409 . S
C365 H357 0.930 . S
C365 C363 1.419 . S
C365 C366 1.362 . S
C366 H358 0.930 . S
C366 C365 1.362 . S
C366 C369 1.409 . S
C367 H359 0.930 . S
C367 C368 1.355 . S
C367 C369 1.415 . S
C368 C367 1.355 . S
C368 C370 1.419 . S
C369 C364 1.425 . S
C369 C366 1.409 . S
C369 C367 1.415 . S
C370 H360 0.930 . S
C370 C368 1.419 . S
C370 C371 1.362 . S
C371 H361 0.930 . S
C371 C364 1.409 . S
C371 C370 1.362 . S
H372 C378 0.930 . S
H373 C381 0.930 . S
H374 C382 0.930 . S
H375 C383 0.930 . S
H376 C386 0.930 . S
H377 C387 0.930 . S
C378 H372 0.930 . S
C378 C379 1.355 . S
C378 C380 1.415 . S
C379 C378 1.355 . S
C379 C381 1.419 . S
C380 C378 1.415 . S
C380 C385 1.425 . S
C380 C387 1.409 . S
C381 H373 0.930 . S
C381 C379 1.419 . S
C381 C382 1.362 . S
C382 H374 0.930 . S
C382 C381 1.362 . S
C382 C385 1.409 . S
C383 H375 0.930 . S
C383 C384 1.355 . S
C383 C385 1.415 . S
C384 C383 1.355 . S
C384 C386 1.419 . S
C385 C380 1.425 . S
C385 C382 1.409 . S
C385 C383 1.415 . S
C386 H376 0.930 . S
C386 C384 1.419 . S
C386 C387 1.362 . S
C387 H377 0.930 . S
C387 C380 1.409 . S
C387 C386 1.362 . S
C208 C181 1.432 . S
C203 C29 1.483 . S
C219 C8 1.475 . S
C224 C149 1.410 1_554 S
C235 C0 1.467 . S
C240 C187 1.435 . S
C251 C17 1.469 . S
C256 C155 1.389 1_554 S
C267 C63 1.478 . S
C272 C117 1.467 . S
C283 C42 1.466 . S
C288 C85 1.426 . S
C304 C123 1.388 . S
C299 C34 1.469 . S
C320 C91 1.449 . S
C315 C51 1.487 . S
C331 C4 1.482 . S
C336 C97 1.472 1_655 S
C347 C13 1.489 . S
C352 C129 1.450 . S
C368 C161 1.453 . S
C363 C38 1.487 . S
C379 C47 1.478 . S
C384 C193 1.477 . S
