# Generated by pormake.
# Topology anh, (6,3)-cn, num edge types: 1
# Building blocks:
#     Node 0, Type 0, BuildingBlock: NUHQIS_clean_sbu_0, # of connection points: 6
#     Node 1, Type 0, BuildingBlock: NUHQIS_clean_sbu_0, # of connection points: 6
#     Node 2, Type 0, BuildingBlock: NUHQIS_clean_sbu_0, # of connection points: 6
#     Node 3, Type 1, BuildingBlock: KAKCAD_clean_linker_0, # of connection points: 3
#     Node 4, Type 1, BuildingBlock: KAKCAD_clean_linker_0, # of connection points: 3
#     Node 5, Type 1, BuildingBlock: KAKCAD_clean_linker_0, # of connection points: 3
#     Node 6, Type 1, BuildingBlock: KAKCAD_clean_linker_0, # of connection points: 3
#     Node 7, Type 1, BuildingBlock: KAKCAD_clean_linker_0, # of connection points: 3
#     Node 8, Type 1, BuildingBlock: KAKCAD_clean_linker_0, # of connection points: 3
#     Edge 9, Type (0, 1), BuildingBlock: TEMPAE_clean_linker_10, # of connection points: 2
#     Edge 10, Type (0, 1), BuildingBlock: TEMPAE_clean_linker_10, # of connection points: 2
#     Edge 11, Type (0, 1), BuildingBlock: TEMPAE_clean_linker_10, # of connection points: 2
#     Edge 12, Type (0, 1), BuildingBlock: TEMPAE_clean_linker_10, # of connection points: 2
#     Edge 13, Type (0, 1), BuildingBlock: TEMPAE_clean_linker_10, # of connection points: 2
#     Edge 14, Type (0, 1), BuildingBlock: TEMPAE_clean_linker_10, # of connection points: 2
#     Edge 15, Type (0, 1), BuildingBlock: TEMPAE_clean_linker_10, # of connection points: 2
#     Edge 16, Type (0, 1), BuildingBlock: TEMPAE_clean_linker_10, # of connection points: 2
#     Edge 17, Type (0, 1), BuildingBlock: TEMPAE_clean_linker_10, # of connection points: 2
#     Edge 18, Type (0, 1), BuildingBlock: TEMPAE_clean_linker_10, # of connection points: 2
#     Edge 19, Type (0, 1), BuildingBlock: TEMPAE_clean_linker_10, # of connection points: 2
#     Edge 20, Type (0, 1), BuildingBlock: TEMPAE_clean_linker_10, # of connection points: 2
#     Edge 21, Type (0, 1), BuildingBlock: TEMPAE_clean_linker_10, # of connection points: 2
#     Edge 22, Type (0, 1), BuildingBlock: TEMPAE_clean_linker_10, # of connection points: 2
#     Edge 23, Type (0, 1), BuildingBlock: TEMPAE_clean_linker_10, # of connection points: 2
#     Edge 24, Type (0, 1), BuildingBlock: TEMPAE_clean_linker_10, # of connection points: 2
#     Edge 25, Type (0, 1), BuildingBlock: TEMPAE_clean_linker_10, # of connection points: 2
#     Edge 26, Type (0, 1), BuildingBlock: TEMPAE_clean_linker_10, # of connection points: 2
# Relax obj value: 0.235
# Max RMSD: 0.188
# Mean RMSD: 0.154
data_MOF--net-anh--node1-NUHQIS_clean_sbu_0--node2-KAKCAD_clean_linker_0--edge1-TEMPAE_clean_linker_10
_symmetry_space_group_name_H-M    P1
_symmetry_Int_Tables_number       1
_symmetry_cell_setting            triclinic
loop_
_symmetry_equiv_pos_as_xyz
'x, y, z'
_cell_length_a     36.638191
_cell_length_b     36.568999
_cell_length_c     67.10067
_cell_angle_alpha  90.868189
_cell_angle_beta   92.009453
_cell_angle_gamma 119.91371
loop_
_atom_site_label
_atom_site_type_symbol
_atom_site_fract_x
_atom_site_fract_y
_atom_site_fract_z
_atom_type_partial_charge
Tb0 Tb 0.16698 0.61084 0.16761 0.0
Eu1 Eu 0.11651 0.66256 0.16255 0.0
C2 C 0.1332 0.63452 0.20424 0.0
C3 C 1.06576 0.55956 0.16391 0.0
C4 C 0.24386 0.57088 0.17693 0.0
C5 C 0.27867 0.53108 0.18489 0.0
C6 C 0.24278 0.53505 0.18466 0.0
C7 C 0.28237 0.60489 0.1715 0.0
C8 C 0.31842 0.60097 0.17174 0.0
C9 C 0.31618 0.56296 0.1773 0.0
C10 C 0.20362 0.5683 0.17135 0.0
O11 O 0.14573 0.60387 0.13614 0.0
O12 O 0.14254 0.66432 0.13267 0.0
O13 O 0.18468 0.71273 0.17062 0.0
O14 O 0.21901 0.67568 0.16466 0.0
C15 C 0.14558 0.63296 0.12489 0.0
O16 O 1.07232 0.67756 0.14726 0.0
O17 O 0.10335 0.70955 0.17551 0.0
O18 O 0.1038 0.63296 0.19215 0.0
O19 O 0.16739 0.63745 0.19708 0.0
O20 O 0.10108 0.56157 0.17041 0.0
O21 O 1.06541 0.59341 0.15759 0.0
C22 C 0.2198 0.71161 0.16846 0.0
O23 O 0.18276 0.57326 0.18543 0.0
O24 O 0.20216 0.58654 0.15506 0.0
C25 C 1.03041 0.68489 0.17082 0.0
C26 C 0.94663 0.63564 0.1822 0.0
C27 C 0.95549 0.65616 0.16391 0.0
C28 C 0.99701 0.68062 0.15831 0.0
C29 C 1.02189 0.66748 0.18982 0.0
C30 C 0.98038 0.64327 0.19549 0.0
C31 C 1.0721 0.69995 0.16258 0.0
H32 H 0.27573 0.50131 0.18915 0.0
H33 H 0.21327 0.50856 0.18894 0.0
H34 H 0.28387 0.63306 0.16567 0.0
H35 H 0.34713 0.62632 0.16614 0.0
H36 H 0.93038 0.65063 0.15315 0.0
H37 H 1.00281 0.69348 0.14357 0.0
H38 H 1.04703 0.67017 0.19982 0.0
H39 H 0.9747 0.62851 0.20979 0.0
Tb40 Tb 0.69731 0.13143 0.50031 0.0
Eu41 Eu 0.59661 0.07433 0.49157 0.0
C42 C 0.6359 0.0954 0.53476 0.0
C43 C 0.65528 1.03062 0.49754 0.0
C44 C 0.78734 0.22848 0.51672 0.0
C45 C 0.83711 0.30326 0.51472 0.0
C46 C 0.82739 0.26119 0.51242 0.0
C47 C 0.75814 0.23841 0.52462 0.0
C48 C 0.76764 0.28031 0.52673 0.0
C49 C 0.80661 0.31316 0.52101 0.0
C50 C 0.77275 0.18493 0.50951 0.0
O51 O 0.68932 0.11137 0.4688 0.0
O52 O 0.62475 0.10545 0.46319 0.0
O53 O 0.6072 0.13939 0.50039 0.0
O54 O 0.67639 0.17646 0.49266 0.0
C55 C 0.65967 0.10952 0.45648 0.0
O56 O 0.5438 1.03149 0.47154 0.0
O57 O 0.53219 1.05078 0.50031 0.0
O58 O 0.61062 1.0635 0.52285 0.0
O59 O 0.6652 0.13016 0.5273 0.0
O60 O 0.68753 0.06732 0.50405 0.0
O61 O 0.62037 1.0278 0.48978 0.0
C62 C 0.64127 0.17551 0.49719 0.0
O63 O 0.74873 0.15523 0.52129 0.0
O64 O 0.75701 0.17679 0.49121 0.0
C65 C 0.48782 0.98066 0.48885 0.0
C66 C 0.43477 0.89448 0.49513 0.0
C67 C 0.42157 0.91621 0.48228 0.0
C68 C 0.44794 0.95897 0.47916 0.0
C69 C 0.50129 0.95929 0.50173 0.0
C70 C 0.47474 0.91643 0.50497 0.0
C71 C 0.51602 1.02498 0.48471 0.0
H72 H 0.86775 0.32795 0.51053 0.0
H73 H 0.85022 0.25421 0.50619 0.0
H74 H 0.72681 0.21365 0.52788 0.0
H75 H 0.74325 0.28662 0.53141 0.0
H76 H 0.39053 0.90019 0.47482 0.0
H77 H 0.43727 0.97505 0.46913 0.0
H78 H 0.53236 0.97571 0.50916 0.0
H79 H 0.48556 0.90037 0.51493 0.0
Tb80 Tb 0.66321 0.64697 0.83066 0.0
Eu81 Eu 0.60915 0.54545 0.83028 0.0
C82 C 0.64958 0.60071 0.87009 0.0
C83 C 0.71227 0.59509 0.83267 0.0
C84 C 0.67101 0.744 0.81909 0.0
C85 C 0.61946 0.76656 0.82322 0.0
C86 C 0.6529 0.76214 0.83096 0.0
C87 C 0.65776 0.73431 0.79878 0.0
C88 C 0.62422 0.73846 0.79112 0.0
C89 C 0.60369 0.75297 0.80348 0.0
C90 C 0.69399 0.72491 0.82881 0.0
O91 O 0.63628 0.62749 0.80015 0.0
O92 O 0.62531 0.56034 0.79839 0.0
O93 O 0.56115 0.56536 0.82219 0.0
O94 O 0.59835 0.63037 0.83776 0.0
C95 C 0.63035 0.5942 0.78965 0.0
O96 O 0.59306 0.48223 0.81997 0.0
O97 O 0.55855 0.4901 0.84364 0.0
O98 O 0.61437 0.57134 0.86141 0.0
O99 O 0.67814 0.63067 0.85972 0.0
O100 O 0.71235 0.62969 0.8271 0.0
O101 O 0.67695 0.56109 0.83718 0.0
C102 C 0.56236 0.59906 0.83013 0.0
O103 O 0.6769 0.70437 0.84476 0.0
O104 O 0.70472 0.70334 0.81708 0.0
C105 C 0.57207 0.4339 0.84589 0.0
C106 C 0.5804 0.37073 0.86533 0.0
C107 C 0.61606 0.40618 0.85836 0.0
C108 C 0.61195 0.43763 0.84879 0.0
C109 C 0.53711 0.40049 0.85426 0.0
C110 C 0.54127 0.36926 0.86404 0.0
C111 C 0.56632 0.46396 0.83384 0.0
H112 H 0.60425 0.77809 0.83303 0.0
H113 H 0.66226 0.76964 0.84665 0.0
H114 H 0.67111 0.72054 0.78911 0.0
H115 H 0.61331 0.7288 0.7757 0.0
H116 H 0.64659 0.4082 0.85897 0.0
H117 H 0.63962 0.46381 0.84286 0.0
H118 H 0.50628 0.39768 0.85255 0.0
H119 H 0.51338 0.3427 0.86959 0.0
C120 C 0.68547 0.16861 0.29655 0.0
C121 C 0.6707 0.13008 0.30616 0.0
C122 C 0.6816 0.16955 0.27574 0.0
C123 C 0.66349 0.13205 0.2638 0.0
C124 C 0.64916 0.09359 0.27341 0.0
C125 C 0.65232 0.09258 0.29422 0.0
C126 C 0.65995 0.13288 0.24147 0.0
C127 C 0.69151 0.16585 0.23103 0.0
C128 C 0.68996 0.16652 0.20998 0.0
C129 C 0.65446 0.13275 0.19923 0.0
C130 C 0.62234 0.09871 0.20956 0.0
C131 C 0.62556 0.1 0.23055 0.0
C132 C 0.58558 1.05985 0.19956 0.0
C133 C 0.55438 1.06172 0.18745 0.0
C134 C 0.57773 1.01967 0.20523 0.0
C135 C 0.53932 0.98295 0.2 0.0
C136 C 0.50698 0.98472 0.18885 0.0
C137 C 0.72684 0.20268 0.20023 0.0
C138 C 0.72157 0.22483 0.18437 0.0
C139 C 0.76823 0.21836 0.20847 0.0
C140 C 0.80228 0.25609 0.20228 0.0
C141 C 0.79683 0.27937 0.18717 0.0
C142 C 0.75617 0.26254 0.17785 0.0
C143 C 0.51567 1.02464 0.18211 0.0
H144 H 0.70038 0.1983 0.30507 0.0
H145 H 0.69256 0.19982 0.26906 0.0
H146 H 0.63573 1.064 0.26487 0.0
H147 H 0.63981 1.06214 0.30091 0.0
H148 H 0.71807 0.1912 0.23945 0.0
H149 H 0.60055 0.07489 0.23846 0.0
H150 H 0.65268 0.13207 0.18308 0.0
H151 H 0.55892 0.09202 0.18305 0.0
H152 H 0.60089 1.01683 0.21454 0.0
H153 H 0.53468 0.95304 0.20511 0.0
H154 H 0.69046 0.21409 0.17759 0.0
H155 H 0.77432 0.20192 0.22026 0.0
H156 H 0.49176 1.02758 0.17352 0.0
H157 H 0.75077 0.27948 0.16608 0.0
H158 H 0.83312 0.26738 0.20953 0.0
C159 C 0.61343 0.61105 0.62664 0.0
C160 C 0.63929 0.60103 0.63862 0.0
C161 C 0.61578 0.61172 0.60585 0.0
C162 C 0.64402 0.60233 0.59642 0.0
C163 C 0.66976 0.59213 0.60839 0.0
C164 C 0.66745 0.59152 0.62919 0.0
C165 C 0.6467 0.60338 0.57422 0.0
C166 C 0.64501 0.63541 0.56368 0.0
C167 C 0.64704 0.63708 0.54277 0.0
C168 C 0.65099 0.6052 0.53221 0.0
C169 C 0.65289 0.57247 0.54266 0.0
C170 C 0.65079 0.57237 0.56358 0.0
C171 C 0.65646 0.53724 0.53266 0.0
C172 C 0.62469 0.5077 0.51918 0.0
C173 C 0.68834 0.5288 0.5393 0.0
C174 C 0.68765 0.49138 0.53339 0.0
C175 C 0.65464 0.46046 0.5208 0.0
C176 C 0.64496 0.67294 0.53297 0.0
C177 C 0.61342 0.68227 0.5381 0.0
C178 C 0.6773 0.70186 0.52122 0.0
C179 C 0.6791 0.73994 0.5157 0.0
C180 C 0.64861 0.75023 0.52179 0.0
C181 C 0.61513 0.71999 0.5326 0.0
C182 C 0.62374 0.46988 0.51336 0.0
H183 H 0.59166 0.61893 0.63335 0.0
H184 H 0.59511 0.61924 0.59712 0.0
H185 H 0.69215 0.5851 0.6017 0.0
H186 H 0.68752 0.58318 0.63789 0.0
H187 H 0.64299 0.66002 0.57192 0.0
H188 H 0.65126 0.54709 0.57161 0.0
H189 H 0.65248 0.60578 0.51612 0.0
H190 H 0.59923 0.5127 0.51402 0.0
H191 H 0.71329 0.55071 0.54972 0.0
H192 H 0.7128 0.48641 0.53907 0.0
H193 H 0.58788 0.66079 0.54705 0.0
H194 H 0.70244 0.69614 0.5172 0.0
H195 H 0.5976 0.44715 0.50374 0.0
H196 H 0.59029 0.7257 0.53716 0.0
H197 H 0.7055 0.76214 0.50742 0.0
C198 C 0.18758 0.63053 0.96352 0.0
C199 C 0.15009 0.61138 0.97393 0.0
C200 C 0.18646 0.62894 0.94258 0.0
C201 C 0.14784 0.60753 0.93136 0.0
C202 C 0.11045 0.58784 0.94181 0.0
C203 C 0.11153 0.59018 0.96267 0.0
C204 C 0.14622 0.60546 0.90894 0.0
C205 C 0.17747 0.60294 0.89844 0.0
C206 C 0.17565 0.59946 0.87739 0.0
C207 C 0.14063 0.59823 0.86665 0.0
C208 C 0.10798 0.59965 0.87707 0.0
C209 C 0.11244 0.60467 0.89801 0.0
C210 C 1.0674 0.594 0.86737 0.0
C211 C 1.06654 0.61943 0.85197 0.0
C212 C 1.0288 0.56657 0.87591 0.0
C213 C 0.99145 0.56647 0.87036 0.0
C214 C 0.99075 0.59338 0.85579 0.0
C215 C 0.21049 0.59568 0.8677 0.0
C216 C 0.23454 0.62255 0.85266 0.0
C217 C 0.22372 0.56843 0.87565 0.0
C218 C 0.26068 0.56955 0.86973 0.0
C219 C 0.28615 0.59785 0.85548 0.0
C220 C 0.27176 0.62356 0.84661 0.0
C221 C 1.02866 0.61896 0.84619 0.0
H222 H 0.21804 0.64661 0.97149 0.0
H223 H 0.21602 0.64496 0.93525 0.0
H224 H 1.08 0.57018 0.93391 0.0
H225 H 1.08181 0.57561 0.9699 0.0
H226 H 0.20345 0.60315 0.90676 0.0
H227 H 1.08891 0.60796 0.90593 0.0
H228 H 0.13793 0.59443 0.85054 0.0
H229 H 1.09547 0.64119 0.84512 0.0
H230 H 1.02779 0.54606 0.88763 0.0
H231 H 0.963 0.54558 0.87781 0.0
H232 H 0.22578 0.64426 0.84627 0.0
H233 H 0.20596 0.54681 0.88705 0.0
H234 H 1.0295 0.64008 0.83484 0.0
H235 H 0.29022 0.64581 0.83557 0.0
H236 H 0.26958 0.54834 0.87659 0.0
C237 C 1.04455 0.64407 0.3549 0.0
C238 C 1.06557 0.62257 0.34906 0.0
C239 C 1.03267 0.64296 0.37458 0.0
C240 C 1.04188 0.62058 0.38881 0.0
C241 C 1.06204 0.59834 0.38284 0.0
C242 C 1.07373 0.59931 0.3632 0.0
C243 C 1.0327 0.62201 0.41009 0.0
C244 C 0.99367 0.61662 0.41568 0.0
C245 C 0.98573 0.61752 0.43596 0.0
C246 C 1.01648 0.62261 0.45054 0.0
C247 C 1.05574 0.6287 0.4453 0.0
C248 C 1.06365 0.62879 0.42497 0.0
C249 C 1.08893 0.63665 0.46101 0.0
C250 C 1.09245 0.65922 0.47884 0.0
C251 C 0.11898 0.62415 0.45787 0.0
C252 C 0.15397 0.63775 0.47111 0.0
C253 C 0.15924 0.66346 0.488 0.0
C254 C 0.94417 0.60854 0.44272 0.0
C255 C 0.94236 0.63318 0.45854 0.0
C256 C 0.90842 0.56957 0.43742 0.0
C257 C 0.87434 0.55242 0.44981 0.0
C258 C 0.87591 0.57403 0.46767 0.0
C259 C 0.90839 0.61599 0.47098 0.0
C260 C 0.12678 0.67179 0.49231 0.0
H261 H 1.03733 0.66181 0.34425 0.0
H262 H 1.01736 0.66054 0.37878 0.0
H263 H 1.06914 0.58043 0.39344 0.0
H264 H 1.09005 0.58259 0.3592 0.0
H265 H 0.96939 0.61107 0.40438 0.0
H266 H 1.09436 0.63509 0.42058 0.0
H267 H 1.0091 0.62054 0.46613 0.0
H268 H 1.07017 0.66957 0.48194 0.0
H269 H 0.11657 0.60539 0.44473 0.0
H270 H 0.17828 0.63064 0.46727 0.0
H271 H 0.96945 0.66368 0.46271 0.0
H272 H 0.90901 0.55004 0.42527 0.0
H273 H 0.12935 0.69067 0.50545 0.0
H274 H 0.91011 0.63349 0.48449 0.0
H275 H 0.84974 0.51997 0.44683 0.0
C276 C 0.51857 1.04081 0.68172 0.0
C277 C 0.56208 1.06442 0.6789 0.0
C278 C 0.50374 1.02917 0.7008 0.0
C279 C 0.53208 1.04104 0.71748 0.0
C280 C 0.57557 1.06533 0.71472 0.0
C281 C 0.59043 0.07679 0.6956 0.0
C282 C 0.51624 1.02704 0.73761 0.0
C283 C 0.48515 0.98495 0.74028 0.0
C284 C 0.4704 0.97068 0.75934 0.0
C285 C 0.48675 0.99994 0.77565 0.0
C286 C 0.51941 1.04146 0.77339 0.0
C287 C 0.53356 1.05496 0.75428 0.0
C288 C 0.54006 0.07004 0.79117 0.0
C289 C 0.51587 0.07203 0.80648 0.0
C290 C 0.58421 0.09538 0.793 0.0
C291 C 0.60361 0.12357 0.80934 0.0
C292 C 0.57923 0.12688 0.82419 0.0
C293 C 0.44324 0.92451 0.76258 0.0
C294 C 0.41657 0.89635 0.74706 0.0
C295 C 0.4486 0.90741 0.78037 0.0
C296 C 0.43204 0.86414 0.78174 0.0
C297 C 0.4108 0.8368 0.76519 0.0
C298 C 0.40109 0.85289 0.74822 0.0
C299 C 0.53525 0.10012 0.82282 0.0
H300 H 0.49597 1.03042 0.66911 0.0
H301 H 0.47005 1.01073 0.7025 0.0
H302 H 0.59819 0.07462 0.72727 0.0
H303 H 0.62411 0.09523 0.69389 0.0
H304 H 0.47449 0.96293 0.72757 0.0
H305 H 0.55792 0.08736 0.75236 0.0
H306 H 0.47562 0.99002 0.79041 0.0
H307 H 0.4818 1.05308 0.80545 0.0
H308 H 0.60376 0.09377 0.78166 0.0
H309 H 0.63756 0.14376 0.81005 0.0
H310 H 0.41007 0.90794 0.73342 0.0
H311 H 0.46901 0.92723 0.79272 0.0
H312 H 0.5155 0.10262 0.83378 0.0
H313 H 0.38458 0.83239 0.73528 0.0
H314 H 0.44058 0.85288 0.79497 0.0
C315 C 0.64547 0.4454 0.00592 0.0
C316 C 0.64179 0.48108 0.0017 0.0
C317 C 0.62665 0.42146 0.02255 0.0
C318 C 0.60345 0.43253 0.03506 0.0
C319 C 0.60081 0.46878 0.03108 0.0
C320 C 0.61954 0.49259 0.01461 0.0
C321 C 0.58227 0.40732 0.0525 0.0
C322 C 0.60489 0.39762 0.06677 0.0
C323 C 0.58787 0.38201 0.08533 0.0
C324 C 0.54704 0.37397 0.08892 0.0
C325 C 0.52535 0.38598 0.07538 0.0
C326 C 0.54196 0.40008 0.05673 0.0
C327 C 0.49406 0.39632 0.08318 0.0
C328 C 0.46421 0.37008 0.09664 0.0
C329 C 0.50036 0.43713 0.08054 0.0
C330 C 0.48021 0.45264 0.09229 0.0
C331 C 0.45313 0.42767 0.10683 0.0
C332 C 0.61598 0.38457 0.10248 0.0
C333 C 0.64754 0.37389 0.10023 0.0
C334 C 0.61473 0.40337 0.12072 0.0
C335 C 0.64583 0.41401 0.13574 0.0
C336 C 0.67934 0.40654 0.13293 0.0
C337 C 0.67889 0.38465 0.11537 0.0
C338 C 0.4437 0.38563 0.10834 0.0
H339 H 0.66263 0.43587 0.99631 0.0
H340 H 0.62948 0.39388 0.0254 0.0
H341 H 0.58407 0.47881 0.04071 0.0
H342 H 0.61544 0.5194 0.01169 0.0
H343 H 0.63729 0.40649 0.06426 0.0
H344 H 0.52517 0.40939 0.04623 0.0
H345 H 0.53464 0.36369 0.10349 0.0
H346 H 0.45872 0.33851 0.09896 0.0
H347 H 0.52354 0.45853 0.07057 0.0
H348 H 0.48735 0.48496 0.09066 0.0
H349 H 0.64911 0.35907 0.08644 0.0
H350 H 0.59163 0.41311 0.12292 0.0
H351 H 0.42256 0.36576 0.1194 0.0
H352 H 0.7041 0.37801 0.11288 0.0
H353 H 0.64545 0.43152 0.14882 0.0
C354 C 0.35936 0.5279 0.1832 0.0
C355 C 0.34857 0.55257 0.17125 0.0
C356 C 0.38128 0.50896 0.17543 0.0
C357 C 0.39227 0.51475 0.15525 0.0
C358 C 0.38443 0.54231 0.14365 0.0
C359 C 0.36276 0.56095 0.15181 0.0
C360 C 0.39007 0.48057 0.18837 0.0
C361 C 0.39587 0.54948 0.12208 0.0
C362 C 0.4661 0.48469 0.13156 0.0
C363 C 0.43747 0.44695 0.12117 0.0
C364 C 0.45196 0.50588 0.14385 0.0
C365 C 0.40816 0.48916 0.14548 0.0
C366 C 0.37919 0.44993 0.13578 0.0
C367 C 0.39429 0.42907 0.12381 0.0
C368 C 0.48378 0.54714 0.15426 0.0
C369 C 0.33218 0.43123 0.13712 0.0
H370 H 0.34881 0.52171 0.19831 0.0
H371 H 0.35409 0.57948 0.14236 0.0
H372 H 0.36799 0.44713 0.18373 0.0
H373 H 0.42255 0.48652 0.18656 0.0
H374 H 0.38606 0.48497 0.2044 0.0
H375 H 0.39079 0.57452 0.11566 0.0
H376 H 0.42935 0.55848 0.12059 0.0
H377 H 0.37632 0.51975 0.11309 0.0
H378 H 0.49963 0.49805 0.12974 0.0
H379 H 0.37231 0.39982 0.11579 0.0
H380 H 0.47609 0.54791 0.17006 0.0
H381 H 0.48275 0.57361 0.14691 0.0
H382 H 0.5164 0.55259 0.15384 0.0
H383 H 0.32386 0.42943 0.15295 0.0
H384 H 0.31412 0.39912 0.12994 0.0
H385 H 0.32215 0.45191 0.1297 0.0
C386 C 0.79795 0.37431 0.53274 0.0
C387 C 0.81298 0.35638 0.51886 0.0
C388 C 0.80051 0.41348 0.52946 0.0
C389 C 0.81859 0.43505 0.51196 0.0
C390 C 0.83407 0.41715 0.49804 0.0
C391 C 0.83095 0.37818 0.50165 0.0
C392 C 0.78316 0.43129 0.54444 0.0
C393 C 0.85375 0.43893 0.4791 0.0
C394 C 0.8113 0.51608 0.48211 0.0
C395 C 0.85322 0.54866 0.48475 0.0
C396 C 0.79592 0.48053 0.49394 0.0
C397 C 0.8238 0.4773 0.50806 0.0
C398 C 0.86327 0.51342 0.51318 0.0
C399 C 0.87738 0.54902 0.50154 0.0
C400 C 0.75232 0.44409 0.48903 0.0
C401 C 0.89396 0.51207 0.52834 0.0
H402 H 0.78383 0.35755 0.54605 0.0
H403 H 0.84145 0.36408 0.49055 0.0
H404 H 0.80768 0.46354 0.54964 0.0
H405 H 0.75697 0.43404 0.53727 0.0
H406 H 0.77135 0.4113 0.55761 0.0
H407 H 0.86518 0.42117 0.47016 0.0
H408 H 0.83033 0.44253 0.46968 0.0
H409 H 0.8808 0.47097 0.48274 0.0
H410 H 0.7921 0.51622 0.46947 0.0
H411 H 0.90974 0.57437 0.50389 0.0
H412 H 0.7385 0.42539 0.50234 0.0
H413 H 0.75415 0.42332 0.47737 0.0
H414 H 0.73105 0.45527 0.48307 0.0
H415 H 0.87757 0.49206 0.54094 0.0
H416 H 0.9173 0.54424 0.53433 0.0
H417 H 0.91143 0.49841 0.52104 0.0
C418 C 0.56039 0.78765 0.79911 0.0
C419 C 0.5649 0.75228 0.79603 0.0
C420 C 0.52437 0.78799 0.79174 0.0
C421 C 0.49173 0.75172 0.78123 0.0
C422 C 0.49559 0.71538 0.77854 0.0
C423 C 0.53235 0.71621 0.78589 0.0
C424 C 0.52181 0.82768 0.79487 0.0
C425 C 0.46177 0.67609 0.76749 0.0
C426 C 0.4016 0.77149 0.78071 0.0
C427 C 0.41145 0.79673 0.764 0.0
C428 C 0.42306 0.74954 0.78504 0.0
C429 C 0.45507 0.75379 0.77247 0.0
C430 C 0.45864 0.77202 0.75368 0.0
C431 C 0.43616 0.79294 0.74952 0.0
C432 C 0.41629 0.72784 0.8046 0.0
C433 C 0.49154 0.77621 0.73954 0.0
H434 H 0.5856 0.81552 0.80689 0.0
H435 H 0.53558 0.68851 0.78377 0.0
H436 H 0.51751 0.83929 0.78028 0.0
H437 H 0.4942 0.8208 0.8037 0.0
H438 H 0.55049 0.8534 0.80283 0.0
H439 H 0.42984 0.67121 0.76985 0.0
H440 H 0.4669 0.67914 0.75127 0.0
H441 H 0.46292 0.64763 0.77213 0.0
H442 H 0.3816 0.77351 0.79169 0.0
H443 H 0.44333 0.81182 0.73639 0.0
H444 H 0.43785 0.75092 0.81638 0.0
H445 H 0.42317 0.70161 0.80367 0.0
H446 H 0.38341 0.71531 0.80917 0.0
H447 H 0.52288 0.80219 0.74514 0.0
H448 H 0.48498 0.78363 0.7243 0.0
H449 H 0.49328 0.74686 0.73865 0.0
C450 C 0.86836 0.60466 0.17856 0.0
C451 C 0.90305 0.60133 0.18555 0.0
C452 C 0.82846 0.56866 0.17567 0.0
C453 C 0.82331 0.52859 0.1799 0.0
C454 C 0.85643 0.52594 0.18995 0.0
C455 C 0.89616 0.56248 0.19259 0.0
C456 C 0.79302 0.57307 0.16611 0.0
C457 C 0.85095 0.48435 0.1967 0.0
C458 C 0.71487 0.4347 0.16685 0.0
C459 C 0.71781 0.42903 0.14633 0.0
C460 C 0.74962 0.46561 0.17847 0.0
C461 C 0.78823 0.49069 0.16936 0.0
C462 C 0.79229 0.48234 0.14909 0.0
C463 C 0.75706 0.45169 0.13787 0.0
C464 C 0.74428 0.47312 0.20007 0.0
C465 C 0.83234 0.50842 0.13831 0.0
H466 H 0.87303 0.63492 0.17393 0.0
H467 H 0.92249 0.55962 0.1985 0.0
H468 H 0.78995 0.56473 0.14993 0.0
H469 H 0.7626 0.55128 0.17269 0.0
H470 H 0.79893 0.60588 0.16781 0.0
H471 H 0.88171 0.48591 0.19961 0.0
H472 H 0.83429 0.47642 0.21084 0.0
H473 H 0.83176 0.45824 0.18563 0.0
H474 H 0.68472 0.41665 0.17356 0.0
H475 H 0.75971 0.44816 0.122 0.0
H476 H 0.75469 0.50693 0.2031 0.0
H477 H 0.76432 0.46517 0.20972 0.0
H478 H 0.71109 0.45372 0.20434 0.0
H479 H 0.83019 0.53405 0.13068 0.0
H480 H 0.8363 0.48887 0.12669 0.0
H481 H 0.86087 0.52315 0.14844 0.0
C482 C 0.39583 0.83522 0.51802 0.0
C483 C 0.40549 0.84947 0.49859 0.0
C484 C 0.36006 0.79611 0.52131 0.0
C485 C 0.33343 0.7717 0.5048 0.0
C486 C 0.34661 0.78337 0.48517 0.0
C487 C 0.38269 0.82216 0.48232 0.0
C488 C 0.34847 0.7833 0.54244 0.0
C489 C 0.31981 0.75774 0.46706 0.0
C490 C 0.22814 0.67133 0.50125 0.0
C491 C 0.20141 0.68825 0.49843 0.0
C492 C 0.27144 0.69782 0.50589 0.0
C493 C 0.28807 0.74201 0.50739 0.0
C494 C 0.2604 0.75856 0.50692 0.0
C495 C 0.21748 0.73147 0.50247 0.0
C496 C 0.2995 0.67865 0.50741 0.0
C497 C 0.27654 0.80552 0.50869 0.0
H498 H 0.41399 0.85598 0.53066 0.0
H499 H 0.39116 0.83268 0.46729 0.0
H500 H 0.32789 0.79542 0.54758 0.0
H501 H 0.331 0.74843 0.54345 0.0
H502 H 0.37699 0.7968 0.55269 0.0
H503 H 0.33675 0.76868 0.45305 0.0
H504 H 0.30984 0.72393 0.46855 0.0
H505 H 0.2909 0.76034 0.46578 0.0
H506 H 0.21577 0.63775 0.4987 0.0
H507 H 0.19738 0.74511 0.50029 0.0
H508 H 0.32872 0.69883 0.51671 0.0
H509 H 0.30855 0.6747 0.49227 0.0
H510 H 0.28256 0.64688 0.51383 0.0
H511 H 0.29805 0.8197 0.52209 0.0
H512 H 0.25059 0.81278 0.50968 0.0
H513 H 0.29465 0.82103 0.49544 0.0
C514 C 0.61796 0.33495 0.88017 0.0
C515 C 0.58259 0.33233 0.86994 0.0
C516 C 0.62505 0.30056 0.8798 0.0
C517 C 0.59656 0.26339 0.86858 0.0
C518 C 0.55865 0.25924 0.86007 0.0
C519 C 0.5521 0.29368 0.86096 0.0
C520 C 0.66462 0.3056 0.89011 0.0
C521 C 0.52695 0.22008 0.84804 0.0
C522 C 0.62308 0.20363 0.83233 0.0
C523 C 0.59794 0.16271 0.839 0.0
C524 C 0.62876 0.23869 0.84363 0.0
C525 C 0.60894 0.23237 0.86202 0.0
C526 C 0.59024 0.1921 0.87036 0.0
C527 C 0.58428 0.15735 0.85857 0.0
C528 C 0.65041 0.28147 0.83446 0.0
C529 C 0.57192 0.18489 0.89065 0.0
H530 H 0.64122 0.36453 0.88754 0.0
H531 H 0.52478 0.29135 0.85294 0.0
H532 H 0.66211 0.27475 0.89326 0.0
H533 H 0.69162 0.32327 0.88051 0.0
H534 H 0.67176 0.32431 0.90436 0.0
H535 H 0.49829 0.22134 0.84324 0.0
H536 H 0.54152 0.21633 0.8345 0.0
H537 H 0.51706 0.19158 0.8569 0.0
H538 H 0.63424 0.20807 0.81732 0.0
H539 H 0.56604 0.12577 0.86405 0.0
H540 H 0.67229 0.30602 0.84561 0.0
H541 H 0.62646 0.28991 0.82942 0.0
H542 H 0.6685 0.28199 0.82141 0.0
H543 H 0.59062 0.21286 0.90086 0.0
H544 H 0.57071 0.15676 0.89739 0.0
H545 H 0.53925 0.17929 0.88919 0.0
C546 C 0.62154 0.95093 0.49426 0.0
C547 C 0.65693 0.99038 0.49982 0.0
C548 C 0.62131 0.91259 0.49719 0.0
C549 C 0.65735 0.91296 0.50592 0.0
C550 C 0.69341 0.95265 0.51132 0.0
C551 C 0.69277 0.99062 0.50826 0.0
C552 C 0.58198 0.87146 0.49122 0.0
C553 C 0.73261 0.955 0.52068 0.0
C554 C 0.64024 0.81288 0.53196 0.0
C555 C 0.65203 0.79253 0.51768 0.0
C556 C 0.64225 0.85186 0.52842 0.0
C557 C 0.65656 0.87186 0.51008 0.0
C558 C 0.66905 0.8519 0.49567 0.0
C559 C 0.66676 0.81282 0.49962 0.0
C560 C 0.62875 0.87157 0.54436 0.0
C561 C 0.68439 0.87163 0.47589 0.0
H562 H 0.59344 0.94979 0.48781 0.0
H563 H 0.72034 1.02056 0.51271 0.0
H564 H 0.58959 0.85286 0.48066 0.0
H565 H 0.5693 0.85231 0.50456 0.0
H566 H 0.55696 0.87632 0.4841 0.0
H567 H 0.75861 0.98807 0.52335 0.0
H568 H 0.72532 0.9391 0.53514 0.0
H569 H 0.74367 0.9381 0.51093 0.0
H570 H 0.62968 0.79848 0.54617 0.0
H571 H 0.67574 0.79773 0.48832 0.0
H572 H 0.60195 0.87496 0.53848 0.0
H573 H 0.65495 0.9037 0.54866 0.0
H574 H 0.61901 0.85259 0.55794 0.0
H575 H 0.65904 0.87419 0.46762 0.0
H576 H 0.69417 0.85309 0.46645 0.0
H577 H 0.71152 0.90412 0.47833 0.0
C578 C 0.75438 0.55734 0.837 0.0
C579 C 0.75352 0.59514 0.83486 0.0
C580 C 0.79282 0.55706 0.83948 0.0
C581 C 0.83197 0.59556 0.84025 0.0
C582 C 0.83128 0.63381 0.83809 0.0
C583 C 0.79242 0.63312 0.83528 0.0
C584 C 0.79147 0.51535 0.8414 0.0
C585 C 0.87173 0.67576 0.83918 0.0
C586 C 0.92714 0.5967 0.86727 0.0
C587 C 0.95089 0.5954 0.85149 0.0
C588 C 0.88913 0.59733 0.86382 0.0
C589 C 0.87334 0.59592 0.84403 0.0
C590 C 0.89719 0.59473 0.828 0.0
C591 C 0.93565 0.59494 0.83189 0.0
C592 C 0.86581 0.59956 0.88149 0.0
C593 C 0.88167 0.5925 0.80666 0.0
H594 H 0.72484 0.52769 0.83668 0.0
H595 H 0.79257 0.66266 0.8338 0.0
H596 H 0.81111 0.51207 0.83007 0.0
H597 H 0.80489 0.51413 0.85628 0.0
H598 H 0.75889 0.48806 0.8395 0.0
H599 H 0.86619 0.70269 0.83701 0.0
H600 H 0.88842 0.68026 0.85392 0.0
H601 H 0.89297 0.67635 0.82766 0.0
H602 H 0.93859 0.59767 0.88249 0.0
H603 H 0.95329 0.59363 0.81954 0.0
H604 H 0.83399 0.57112 0.88135 0.0
H605 H 0.86137 0.62738 0.88052 0.0
H606 H 0.88269 0.60182 0.89594 0.0
H607 H 0.8502 0.5639 0.80403 0.0
H608 H 0.90346 0.59154 0.79583 0.0
H609 H 0.87789 0.62022 0.8037 0.0
C610 C 0.29963 0.7532 0.16647 0.0
C611 C 0.26173 0.75221 0.1706 0.0
C612 C 0.33915 0.79095 0.16865 0.0
C613 C 0.34155 0.82918 0.17533 0.0
C614 C 0.30342 0.82843 0.17945 0.0
C615 C 0.2643 0.79033 0.17698 0.0
C616 C 0.37853 0.7898 0.16391 0.0
C617 C 0.30395 0.86791 0.18679 0.0
C618 C 0.44616 0.91605 0.20033 0.0
C619 C 0.4642 0.94528 0.1852 0.0
C620 C 0.40663 0.87871 0.19735 0.0
C621 C 0.38387 0.86945 0.17867 0.0
C622 C 0.40172 0.89883 0.16331 0.0
C623 C 0.44126 0.93626 0.16677 0.0
C624 C 0.38912 0.8491 0.21433 0.0
C625 C 0.37916 0.89049 0.14309 0.0
H626 H 0.29852 0.72432 0.16149 0.0
H627 H 0.23561 0.79041 0.1803 0.0
H628 H 0.39598 0.81333 0.15259 0.0
H629 H 0.39971 0.79851 0.1775 0.0
H630 H 0.3715 0.75817 0.15819 0.0
H631 H 0.27177 0.86256 0.18903 0.0
H632 H 0.32272 0.87955 0.20115 0.0
H633 H 0.31938 0.89322 0.17597 0.0
H634 H 0.4628 0.92264 0.21478 0.0
H635 H 0.45461 0.95811 0.15486 0.0
H636 H 0.38419 0.81757 0.20986 0.0
H637 H 0.35794 0.84484 0.21796 0.0
H638 H 0.41027 0.8608 0.22802 0.0
H639 H 0.37417 0.8603 0.13641 0.0
H640 H 0.39695 0.91611 0.13267 0.0
H641 H 0.34759 0.88713 0.14465 0.0
C642 C 0.67629 0.25455 0.49388 0.0
C643 C 0.64101 0.2165 0.49901 0.0
C644 C 0.67789 0.29375 0.49636 0.0
C645 C 0.64349 0.29575 0.50429 0.0
C646 C 0.60738 0.25734 0.50916 0.0
C647 C 0.60655 0.2184 0.50646 0.0
C648 C 0.71675 0.33315 0.49056 0.0
C649 C 0.56974 0.25742 0.51752 0.0
C650 C 0.66462 0.39898 0.53086 0.0
C651 C 0.65175 0.41821 0.51631 0.0
C652 C 0.66225 0.35967 0.52709 0.0
C653 C 0.64611 0.33798 0.50834 0.0
C654 C 0.63281 0.35691 0.4936 0.0
C655 C 0.63584 0.39652 0.49771 0.0
C656 C 0.67711 0.34125 0.5433 0.0
C657 C 0.61534 0.33529 0.47339 0.0
H658 H 0.70315 0.25388 0.48802 0.0
H659 H 0.57904 0.18946 0.51052 0.0
H660 H 0.70829 0.348 0.47834 0.0
H661 H 0.7297 0.35602 0.50342 0.0
H662 H 0.74162 0.32676 0.48547 0.0
H663 H 0.54329 0.225 0.51966 0.0
H664 H 0.57896 0.27509 0.53212 0.0
H665 H 0.55845 0.27381 0.5074 0.0
H666 H 0.67621 0.41443 0.54545 0.0
H667 H 0.62616 0.41074 0.48616 0.0
H668 H 0.70249 0.33611 0.53783 0.0
H669 H 0.65083 0.31004 0.54722 0.0
H670 H 0.68921 0.36196 0.55702 0.0
H671 H 0.63979 0.33191 0.46563 0.0
H672 H 0.60464 0.35299 0.46381 0.0
H673 H 0.58837 0.30304 0.47513 0.0
C674 C 0.4825 0.56346 0.83052 0.0
C675 C 0.52211 0.60063 0.83185 0.0
C676 C 0.44464 0.56406 0.83335 0.0
C677 C 0.44565 0.60283 0.83737 0.0
C678 C 0.48544 0.64067 0.83795 0.0
C679 C 0.52292 0.63909 0.83541 0.0
C680 C 0.40342 0.52284 0.83242 0.0
C681 C 0.4885 0.68299 0.8414 0.0
C682 C 0.34158 0.60569 0.83101 0.0
C683 C 0.32781 0.60094 0.85063 0.0
C684 C 0.37968 0.60673 0.82649 0.0
C685 C 0.40547 0.60343 0.84188 0.0
C686 C 0.39215 0.59956 0.86173 0.0
C687 C 0.35388 0.59827 0.86581 0.0
C688 C 0.39166 0.61016 0.80507 0.0
C689 C 0.41828 0.59636 0.87878 0.0
H690 H 0.48109 0.53349 0.82777 0.0
H691 H 0.55303 0.66818 0.8362 0.0
H692 H 0.38882 0.51751 0.84709 0.0
H693 H 0.3811 0.52412 0.82124 0.0
H694 H 0.40747 0.49551 0.82848 0.0
H695 H 0.5214 0.7096 0.84092 0.0
H696 H 0.46874 0.68747 0.82988 0.0
H697 H 0.4762 0.68418 0.85613 0.0
H698 H 0.32199 0.60749 0.81903 0.0
H699 H 0.34448 0.59543 0.8811 0.0
H700 H 0.42571 0.63293 0.80393 0.0
H701 H 0.3732 0.62015 0.79541 0.0
H702 H 0.38582 0.57902 0.7993 0.0
H703 H 0.42146 0.56801 0.87637 0.0
H704 H 0.40426 0.59429 0.89343 0.0
H705 H 0.45051 0.62429 0.87936 0.0
C706 C 1.02514 0.4814 0.17087 0.0
C707 C 1.02499 0.51809 0.16489 0.0
C708 C 0.98733 0.4427 0.17288 0.0
C709 C 0.94764 0.44002 0.16921 0.0
C710 C 0.94731 0.47664 0.16257 0.0
C711 C 0.98567 0.51486 0.16047 0.0
C712 C 0.98997 0.40449 0.17895 0.0
C713 C 0.90687 0.47643 0.15744 0.0
C714 C 0.84644 0.33076 0.16236 0.0
C715 C 0.8335 0.32154 0.18202 0.0
C716 C 0.88311 0.36902 0.15793 0.0
C717 C 0.90714 0.3997 0.17338 0.0
C718 C 0.89289 0.39121 0.1931 0.0
C719 C 0.85705 0.35227 0.19718 0.0
C720 C 0.8966 0.37635 0.13671 0.0
C721 C 0.91582 0.42289 0.21015 0.0
H722 H 1.05501 0.48284 0.17413 0.0
H723 H 0.98462 0.54248 0.15563 0.0
H724 H 0.97855 0.39591 0.1942 0.0
H725 H 0.96941 0.37706 0.16873 0.0
H726 H 1.02268 0.41008 0.17885 0.0
H727 H 0.90903 0.50587 0.16347 0.0
H728 H 0.90267 0.47619 0.14097 0.0
H729 H 0.87863 0.44893 0.16309 0.0
H730 H 0.82868 0.3074 0.15051 0.0
H731 H 0.84727 0.34585 0.2124 0.0
H732 H 0.9298 0.38362 0.13609 0.0
H733 H 0.89513 0.40403 0.13116 0.0
H734 H 0.87639 0.34861 0.12658 0.0
H735 H 0.94301 0.41986 0.21573 0.0
H736 H 0.89505 0.41747 0.22276 0.0
H737 H 0.92816 0.45572 0.20532 0.0
C738 C 0.12854 0.6465 0.09025 0.0
C739 C 0.14688 0.62924 0.10288 0.0
C740 C 0.12913 0.64296 0.06937 0.0
C741 C 0.1496 0.6227 0.06086 0.0
C742 C 0.16869 0.60571 0.07358 0.0
C743 C 0.16657 0.60865 0.09441 0.0
C744 C 0.10739 0.66051 0.05641 0.0
C745 C 0.19176 0.58484 0.06518 0.0
C746 C 0.11985 0.58048 0.00692 0.0
C747 C 0.15095 0.6137 0.99634 0.0
C748 C 0.119 0.58304 0.02783 0.0
C749 C 0.15074 0.61913 0.03867 0.0
C750 C 0.18294 0.65223 0.02824 0.0
C751 C 0.18235 0.6494 0.00727 0.0
C752 C 1.08366 0.5473 0.03829 0.0
C753 C 0.21787 0.69092 0.03923 0.0
H754 H 0.11297 0.66216 0.09669 0.0
H755 H 0.18109 0.59555 0.1041 0.0
H756 H 0.13052 0.68529 0.04697 0.0
H757 H 1.08318 0.63515 0.04623 0.0
H758 H 1.09192 0.67432 0.06532 0.0
H759 H 0.20595 0.57432 0.07706 0.0
H760 H 0.16984 0.55706 0.05548 0.0
H761 H 0.21716 0.60714 0.05574 0.0
H762 H 1.09596 0.55221 0.9989 0.0
H763 H 0.20623 0.67568 0.99946 0.0
H764 H 1.06628 0.55942 0.04685 0.0
H765 H 1.09667 0.53366 0.04913 0.0
H766 H 1.06096 0.52171 0.0277 0.0
H767 H 0.20459 0.70852 0.04682 0.0
H768 H 0.24215 0.71251 0.02911 0.0
H769 H 0.23338 0.6815 0.05094 0.0
C770 C 0.62881 0.09216 0.42157 0.0
C771 C 0.66471 0.11164 0.4346 0.0
C772 C 0.63208 0.095 0.40081 0.0
C773 C 0.67223 0.1188 0.39277 0.0
C774 C 0.70872 0.13836 0.40584 0.0
C775 C 0.70457 0.13409 0.42662 0.0
C776 C 0.59242 0.07276 0.38747 0.0
C777 C 0.752 0.16473 0.39791 0.0
C778 C 0.68006 0.09792 0.33768 0.0
C779 C 0.67377 0.1288 0.32849 0.0
C780 C 0.68045 0.09478 0.35855 0.0
C781 C 0.6755 0.12384 0.37071 0.0
C782 C 0.67078 0.15606 0.36165 0.0
C783 C 0.66946 0.15784 0.34073 0.0
C784 C 0.6849 1.05952 0.36756 0.0
C785 C 0.66598 0.18808 0.37405 0.0
H786 H 0.59791 0.0744 0.42763 0.0
H787 H 0.73238 0.14944 0.43663 0.0
H788 H 0.58794 0.09627 0.3791 0.0
H789 H 0.59523 1.05167 0.37632 0.0
H790 H 0.56389 1.05365 0.396 0.0
H791 H 0.77727 0.17711 0.40996 0.0
H792 H 0.75832 0.14582 0.38695 0.0
H793 H 0.75349 0.1918 0.38996 0.0
H794 H 0.68448 0.07586 0.32857 0.0
H795 H 0.66393 0.18149 0.33399 0.0
H796 H 0.65605 1.03841 0.37545 0.0
H797 H 0.71174 0.07254 0.37877 0.0
H798 H 0.6899 1.04034 0.35614 0.0
H799 H 0.63559 0.17217 0.38151 0.0
H800 H 0.66671 0.21351 0.36492 0.0
H801 H 0.6915 0.20264 0.38593 0.0
C802 C 0.63177 0.62956 0.75756 0.0
C803 C 0.62914 0.5948 0.76744 0.0
C804 C 0.6324 0.63118 0.73662 0.0
C805 C 0.63039 0.59725 0.7252 0.0
C806 C 0.62709 0.56181 0.73506 0.0
C807 C 0.62648 0.561 0.75599 0.0
C808 C 0.63573 0.66948 0.72674 0.0
C809 C 0.62482 0.52493 0.72349 0.0
C810 C 0.59793 0.58364 0.66973 0.0
C811 C 0.63697 0.60056 0.66083 0.0
C812 C 0.59532 0.58273 0.69061 0.0
C813 C 0.63264 0.59909 0.70299 0.0
C814 C 0.67215 0.61645 0.69413 0.0
C815 C 0.67384 0.61699 0.67322 0.0
C816 C 0.55256 0.56382 0.69942 0.0
C817 C 0.71271 0.63435 0.70676 0.0
H818 H 0.63358 0.65575 0.76618 0.0
H819 H 0.62445 0.53396 0.7634 0.0
H820 H 0.66512 0.6853 0.71848 0.0
H821 H 0.60896 0.65977 0.71569 0.0
H822 H 0.63587 0.69268 0.73767 0.0
H823 H 0.62125 0.49927 0.73331 0.0
H824 H 0.59784 0.51181 0.71235 0.0
H825 H 0.65387 0.53569 0.71515 0.0
H826 H 0.56921 0.57038 0.66034 0.0
H827 H 0.7042 0.63073 0.66655 0.0
H828 H 0.55147 0.58719 0.70976 0.0
H829 H 0.54685 0.53622 0.70826 0.0
H830 H 0.52663 0.55344 0.68779 0.0
H831 H 0.71576 0.65996 0.71698 0.0
H832 H 0.7409 0.64717 0.6976 0.0
H833 H 0.71231 0.60947 0.71616 0.0
C834 C 0.6518 0.12894 0.56916 0.0
C835 C 0.62879 0.09323 0.55638 0.0
C836 C 0.64397 0.12743 0.58956 0.0
C837 C 0.61253 0.08929 0.59732 0.0
C838 C 0.5897 1.05301 0.58454 0.0
C839 C 0.59807 1.05544 0.56424 0.0
C840 C 0.66888 0.16673 0.60276 0.0
C841 C 0.55604 1.01169 0.59226 0.0
C842 C 0.61063 0.06842 0.65259 0.0
C843 C 0.57765 0.07457 0.65846 0.0
C844 C 0.62337 0.07454 0.63286 0.0
C845 C 0.60267 0.08717 0.61871 0.0
C846 C 0.57041 0.09492 0.62472 0.0
C847 C 0.55823 0.08844 0.64453 0.0
C848 C 0.65781 1.06584 0.62699 0.0
C849 C 0.5478 0.10873 0.61008 0.0
H850 H 0.67559 0.15826 0.5632 0.0
H851 H 0.58026 1.02764 0.55449 0.0
H852 H 0.64727 0.17625 0.60922 0.0
H853 H 0.68496 0.1603 0.61539 0.0
H854 H 0.69294 0.19359 0.59451 0.0
H855 H 0.54183 0.98617 0.58045 0.0
H856 H 0.56953 1.00145 0.60456 0.0
H857 H 0.53061 1.01587 0.59846 0.0
H858 H 0.62548 1.05732 0.66326 0.0
H859 H 0.53314 0.09382 0.64908 0.0
H860 H 0.68239 0.09305 0.61918 0.0
H861 H 0.64446 1.03806 0.61643 0.0
H862 H 0.67295 1.05945 0.64007 0.0
H863 H 0.57091 0.13695 0.6023 0.0
H864 H 0.52553 0.11627 0.61744 0.0
H865 H 0.52985 0.08326 0.59854 0.0
C866 C 0.69786 0.60142 0.89742 0.0
C867 C 0.65835 0.59544 0.89108 0.0
C868 C 0.7036 0.58745 0.91607 0.0
C869 C 0.66912 0.56779 0.92861 0.0
C870 C 0.63 0.56439 0.92272 0.0
C871 C 0.62501 0.57785 0.90393 0.0
C872 C 0.7456 0.59122 0.92172 0.0
C873 C 0.59263 0.54443 0.93579 0.0
C874 C 0.6512 0.48295 0.96485 0.0
C875 C 0.65795 0.50475 0.98321 0.0
C876 C 0.65833 0.50401 0.94684 0.0
C877 C 0.67218 0.54778 0.94724 0.0
C878 C 0.68247 0.57055 0.96574 0.0
C879 C 0.67544 0.54878 0.98351 0.0
C880 C 0.64768 0.4787 0.92739 0.0
C881 C 0.69752 0.61724 0.96682 0.0
H882 H 0.72346 0.61441 0.8873 0.0
H883 H 0.59446 0.57326 0.89896 0.0
H884 H 0.7555 0.60305 0.93742 0.0
H885 H 0.74267 0.55956 0.92053 0.0
H886 H 0.77066 0.61258 0.91186 0.0
H887 H 0.56566 0.54741 0.92974 0.0
H888 H 0.58199 0.51038 0.93713 0.0
H889 H 0.60167 0.55925 0.95104 0.0
H890 H 0.63765 0.44897 0.96443 0.0
H891 H 0.68173 0.56601 0.99768 0.0
H892 H 0.67273 0.49538 0.91669 0.0
H893 H 0.61791 0.47492 0.92054 0.0
H894 H 0.64352 0.44679 0.92952 0.0
H895 H 0.72201 0.63418 0.95591 0.0
H896 H 0.71054 0.63146 0.98197 0.0
H897 H 0.67068 0.62226 0.96294 0.0
C898 C 0.15832 0.63826 0.24003 0.0
C899 C 0.12654 0.63248 0.22593 0.0
C900 C 0.15153 0.63692 0.26059 0.0
C901 C 0.11207 0.62949 0.26708 0.0
C902 C 1.07986 0.62325 0.25289 0.0
C903 C 1.08749 0.62483 0.23256 0.0
C904 C 0.18657 0.64373 0.27536 0.0
C905 C 1.03726 0.61505 0.25914 0.0
C906 C 1.07344 0.5882 0.31816 0.0
C907 C 1.07939 0.6247 0.32835 0.0
C908 C 1.08551 0.5896 0.29844 0.0
C909 C 0.10401 0.62844 0.28869 0.0
C910 C 0.11115 0.6656 0.29908 0.0
C911 C 1.09867 0.66326 0.31877 0.0
C912 C 1.07708 0.54924 0.28781 0.0
C913 C 0.13087 0.70762 0.28919 0.0
H914 H 0.18852 0.64415 0.23502 0.0
H915 H 1.06253 0.61998 0.22182 0.0
H916 H 0.19515 0.67164 0.28531 0.0
H917 H 0.17576 0.61609 0.28495 0.0
H918 H 0.21521 0.64867 0.26791 0.0
H919 H 1.01553 0.61059 0.24618 0.0
H920 H 1.02236 0.58641 0.26813 0.0
H921 H 1.04105 0.64187 0.26869 0.0
H922 H 1.05829 0.55825 0.32544 0.0
H923 H 0.10403 0.69169 0.3267 0.0
H924 H 0.1061 0.55359 0.28102 0.0
H925 H 1.05289 0.54087 0.27551 0.0
H926 H 1.06574 0.5224 0.29797 0.0
H927 H 0.16092 0.71434 0.28268 0.0
H928 H 0.13721 0.73403 0.29977 0.0
H929 H 0.10952 0.70655 0.27677 0.0
loop_
_geom_bond_atom_site_label_1
_geom_bond_atom_site_label_2
_geom_bond_distance
_geom_bond_site_symmetry_2
_ccdc_geom_bond_type
Tb0 C10 2.825 . S
Tb0 O11 2.347 . S
Tb0 O14 2.366 . S
Tb0 O19 2.418 . S
Tb0 O20 2.384 1_455 S
Tb0 O23 2.479 . S
Tb0 O24 2.471 . S
Eu1 O12 2.409 1_655 S
Eu1 O13 2.370 1_655 S
Eu1 O16 2.494 . S
Eu1 O17 2.485 . S
Eu1 O18 2.339 1_655 S
Eu1 O21 2.369 . S
Eu1 C31 2.842 . S
C2 O18 1.259 . S
C2 O19 1.265 . S
C3 O20 1.255 . S
C3 O21 1.265 . S
C4 C6 1.380 . S
C4 C7 1.374 . S
C4 C10 1.507 . S
C5 C6 1.384 . S
C5 C9 1.387 . S
C5 H32 0.930 . S
C6 C4 1.380 . S
C6 C5 1.384 . S
C6 H33 0.931 . S
C7 C4 1.374 . S
C7 C8 1.390 . S
C7 H34 0.930 . S
C8 C7 1.390 . S
C8 C9 1.391 . S
C8 H35 0.930 . S
C9 C5 1.387 . S
C9 C8 1.391 . S
C10 Tb0 2.825 . S
C10 C4 1.507 . S
C10 O23 1.238 . S
C10 O24 1.247 . S
O11 Tb0 2.347 . S
O11 C15 1.259 . S
O12 Eu1 2.409 1_455 S
O12 C15 1.288 . S
O13 Eu1 2.370 1_455 S
O13 C22 1.255 . S
O14 Tb0 2.366 . S
O14 C22 1.265 . S
C15 O11 1.259 . S
C15 O12 1.288 . S
O16 Eu1 2.494 . S
O16 C31 1.238 . S
O17 Eu1 2.485 . S
O17 C31 1.247 . S
O18 Eu1 2.339 1_455 S
O18 C2 1.259 . S
O19 Tb0 2.418 . S
O19 C2 1.265 . S
O20 Tb0 2.384 1_655 S
O20 C3 1.255 . S
O21 Eu1 2.369 . S
O21 C3 1.265 . S
C22 O13 1.255 . S
C22 O14 1.265 . S
O23 Tb0 2.479 . S
O23 C10 1.238 . S
O24 Tb0 2.471 . S
O24 C10 1.247 . S
C25 C28 1.380 . S
C25 C29 1.374 . S
C25 C31 1.507 . S
C26 C27 1.387 . S
C26 C30 1.391 . S
C27 C26 1.387 . S
C27 C28 1.384 . S
C27 H36 0.930 . S
C28 C25 1.380 . S
C28 C27 1.384 . S
C28 H37 0.931 . S
C29 C25 1.374 . S
C29 C30 1.390 . S
C29 H38 0.930 . S
C30 C26 1.391 . S
C30 C29 1.390 . S
C30 H39 0.930 . S
C31 Eu1 2.842 . S
C31 O16 1.238 . S
C31 O17 1.247 . S
C31 C25 1.507 . S
H32 C5 0.930 . S
H33 C6 0.931 . S
H34 C7 0.930 . S
H35 C8 0.930 . S
H36 C27 0.930 . S
H37 C28 0.931 . S
H38 C29 0.930 . S
H39 C30 0.930 . S
Tb40 C50 2.825 . S
Tb40 O51 2.347 . S
Tb40 O54 2.366 . S
Tb40 O59 2.418 . S
Tb40 O60 2.384 1_545 S
Tb40 O63 2.479 . S
Tb40 O64 2.471 . S
Eu41 O52 2.418 . S
Eu41 O53 2.384 . S
Eu41 O56 2.479 1_545 S
Eu41 O57 2.471 1_545 S
Eu41 O58 2.347 . S
Eu41 O61 2.366 1_545 S
Eu41 C71 2.825 1_545 S
C42 O58 1.259 . S
C42 O59 1.265 . S
C43 O60 1.255 . S
C43 O61 1.265 . S
C44 C46 1.380 . S
C44 C47 1.374 . S
C44 C50 1.507 . S
C45 C46 1.384 . S
C45 C49 1.387 . S
C45 H72 0.930 . S
C46 C44 1.380 . S
C46 C45 1.384 . S
C46 H73 0.931 . S
C47 C44 1.374 . S
C47 C48 1.390 . S
C47 H74 0.930 . S
C48 C47 1.390 . S
C48 C49 1.391 . S
C48 H75 0.930 . S
C49 C45 1.387 . S
C49 C48 1.391 . S
C50 Tb40 2.825 . S
C50 C44 1.507 . S
C50 O63 1.238 . S
C50 O64 1.247 . S
O51 Tb40 2.347 . S
O51 C55 1.259 . S
O52 Eu41 2.418 . S
O52 C55 1.265 . S
O53 Eu41 2.384 . S
O53 C62 1.255 . S
O54 Tb40 2.366 . S
O54 C62 1.265 . S
C55 O51 1.259 . S
C55 O52 1.265 . S
O56 Eu41 2.479 1_565 S
O56 C71 1.238 . S
O57 Eu41 2.471 1_565 S
O57 C71 1.247 . S
O58 Eu41 2.347 . S
O58 C42 1.259 . S
O59 Tb40 2.418 . S
O59 C42 1.265 . S
O60 Tb40 2.384 1_565 S
O60 C43 1.255 . S
O61 Eu41 2.366 1_565 S
O61 C43 1.265 . S
C62 O53 1.255 . S
C62 O54 1.265 . S
O63 Tb40 2.479 . S
O63 C50 1.238 . S
O64 Tb40 2.471 . S
O64 C50 1.247 . S
C65 C68 1.380 . S
C65 C69 1.374 . S
C65 C71 1.507 . S
C66 C67 1.387 . S
C66 C70 1.391 . S
C67 C66 1.387 . S
C67 C68 1.384 . S
C67 H76 0.930 . S
C68 C65 1.380 . S
C68 C67 1.384 . S
C68 H77 0.931 . S
C69 C65 1.374 . S
C69 C70 1.390 . S
C69 H78 0.930 . S
C70 C66 1.391 . S
C70 C69 1.390 . S
C70 H79 0.930 . S
C71 Eu41 2.825 1_565 S
C71 O56 1.238 . S
C71 O57 1.247 . S
C71 C65 1.507 . S
H72 C45 0.930 . S
H73 C46 0.931 . S
H74 C47 0.930 . S
H75 C48 0.930 . S
H76 C67 0.930 . S
H77 C68 0.931 . S
H78 C69 0.930 . S
H79 C70 0.930 . S
Tb80 C90 2.825 . S
Tb80 O91 2.347 . S
Tb80 O94 2.366 . S
Tb80 O99 2.418 . S
Tb80 O100 2.384 . S
Tb80 O103 2.479 . S
Tb80 O104 2.471 . S
Eu81 O92 2.418 . S
Eu81 O93 2.384 . S
Eu81 O96 2.479 . S
Eu81 O97 2.471 . S
Eu81 O98 2.347 . S
Eu81 O101 2.366 . S
Eu81 C111 2.825 . S
C82 O98 1.259 . S
C82 O99 1.265 . S
C83 O100 1.255 . S
C83 O101 1.265 . S
C84 C86 1.380 . S
C84 C87 1.374 . S
C84 C90 1.507 . S
C85 C86 1.384 . S
C85 C89 1.387 . S
C85 H112 0.930 . S
C86 C84 1.380 . S
C86 C85 1.384 . S
C86 H113 0.931 . S
C87 C84 1.374 . S
C87 C88 1.390 . S
C87 H114 0.930 . S
C88 C87 1.390 . S
C88 C89 1.391 . S
C88 H115 0.930 . S
C89 C85 1.387 . S
C89 C88 1.391 . S
C90 Tb80 2.825 . S
C90 C84 1.507 . S
C90 O103 1.238 . S
C90 O104 1.247 . S
O91 Tb80 2.347 . S
O91 C95 1.259 . S
O92 Eu81 2.418 . S
O92 C95 1.265 . S
O93 Eu81 2.384 . S
O93 C102 1.255 . S
O94 Tb80 2.366 . S
O94 C102 1.265 . S
C95 O91 1.259 . S
C95 O92 1.265 . S
O96 Eu81 2.479 . S
O96 C111 1.238 . S
O97 Eu81 2.471 . S
O97 C111 1.247 . S
O98 Eu81 2.347 . S
O98 C82 1.259 . S
O99 Tb80 2.418 . S
O99 C82 1.265 . S
O100 Tb80 2.384 . S
O100 C83 1.255 . S
O101 Eu81 2.366 . S
O101 C83 1.265 . S
C102 O93 1.255 . S
C102 O94 1.265 . S
O103 Tb80 2.479 . S
O103 C90 1.238 . S
O104 Tb80 2.471 . S
O104 C90 1.247 . S
C105 C108 1.380 . S
C105 C109 1.374 . S
C105 C111 1.507 . S
C106 C107 1.387 . S
C106 C110 1.391 . S
C107 C106 1.387 . S
C107 C108 1.384 . S
C107 H116 0.930 . S
C108 C105 1.380 . S
C108 C107 1.384 . S
C108 H117 0.931 . S
C109 C105 1.374 . S
C109 C110 1.390 . S
C109 H118 0.930 . S
C110 C106 1.391 . S
C110 C109 1.390 . S
C110 H119 0.930 . S
C111 Eu81 2.825 . S
C111 O96 1.238 . S
C111 O97 1.247 . S
C111 C105 1.507 . S
H112 C85 0.930 . S
H113 C86 0.931 . S
H114 C87 0.930 . S
H115 C88 0.930 . S
H116 C107 0.930 . S
H117 C108 0.931 . S
H118 C109 0.930 . S
H119 C110 0.930 . S
C120 C121 1.386 . S
C120 C122 1.397 . S
C120 H144 0.931 . S
C121 C120 1.386 . S
C121 C125 1.397 1_545 S
C122 C120 1.397 . S
C122 C123 1.384 . S
C122 H145 0.930 . S
C123 C122 1.384 . S
C123 C124 1.377 1_545 S
C123 C126 1.481 . S
C124 C123 1.377 1_565 S
C124 C125 1.389 . S
C124 H146 0.929 . S
C125 C121 1.397 1_565 S
C125 C124 1.389 . S
C125 H147 0.931 . S
C126 C123 1.481 . S
C126 C127 1.387 . S
C126 C131 1.390 1_545 S
C127 C126 1.387 . S
C127 C128 1.401 . S
C127 H148 0.930 . S
C128 C127 1.401 . S
C128 C129 1.376 . S
C128 C137 1.511 . S
C129 C128 1.376 . S
C129 C130 1.392 1_545 S
C129 H150 0.931 . S
C130 C129 1.392 1_565 S
C130 C131 1.361 . S
C130 C132 1.500 . S
C131 C126 1.390 1_565 S
C131 C130 1.361 . S
C131 H149 0.931 . S
C132 C130 1.500 . S
C132 C133 1.371 . S
C132 C134 1.365 . S
C133 C132 1.371 . S
C133 C143 1.386 . S
C133 H151 0.931 . S
C134 C132 1.365 . S
C134 C135 1.409 . S
C134 H152 0.929 . S
C135 C134 1.409 . S
C135 C136 1.380 . S
C135 H153 0.930 . S
C136 C135 1.380 . S
C136 C143 1.357 . S
C137 C128 1.511 . S
C137 C138 1.341 . S
C137 C139 1.371 . S
C138 C137 1.341 . S
C138 C142 1.394 . S
C138 H154 0.930 . S
C139 C137 1.371 . S
C139 C140 1.392 . S
C139 H155 0.931 . S
C140 C139 1.392 . S
C140 C141 1.331 . S
C140 H158 0.932 . S
C141 C140 1.331 . S
C141 C142 1.336 . S
C142 C138 1.394 . S
C142 C141 1.336 . S
C142 H157 0.929 . S
C143 C133 1.386 . S
C143 C136 1.357 . S
C143 H156 0.928 . S
H144 C120 0.931 . S
H145 C122 0.930 . S
H146 C124 0.929 . S
H147 C125 0.931 . S
H148 C127 0.930 . S
H149 C131 0.931 . S
H150 C129 0.931 . S
H151 C133 0.931 . S
H152 C134 0.929 . S
H153 C135 0.930 . S
H154 C138 0.930 . S
H155 C139 0.931 . S
H156 C143 0.928 . S
H157 C142 0.929 . S
H158 C140 0.932 . S
C159 C160 1.386 . S
C159 C161 1.397 . S
C159 H183 0.931 . S
C160 C159 1.386 . S
C160 C164 1.397 . S
C161 C159 1.397 . S
C161 C162 1.384 . S
C161 H184 0.930 . S
C162 C161 1.384 . S
C162 C163 1.377 . S
C162 C165 1.481 . S
C163 C162 1.377 . S
C163 C164 1.389 . S
C163 H185 0.929 . S
C164 C160 1.397 . S
C164 C163 1.389 . S
C164 H186 0.931 . S
C165 C162 1.481 . S
C165 C166 1.387 . S
C165 C170 1.390 . S
C166 C165 1.387 . S
C166 C167 1.401 . S
C166 H187 0.930 . S
C167 C166 1.401 . S
C167 C168 1.376 . S
C167 C176 1.511 . S
C168 C167 1.376 . S
C168 C169 1.392 . S
C168 H189 0.931 . S
C169 C168 1.392 . S
C169 C170 1.361 . S
C169 C171 1.500 . S
C170 C165 1.390 . S
C170 C169 1.361 . S
C170 H188 0.931 . S
C171 C169 1.500 . S
C171 C172 1.371 . S
C171 C173 1.365 . S
C172 C171 1.371 . S
C172 C182 1.386 . S
C172 H190 0.931 . S
C173 C171 1.365 . S
C173 C174 1.409 . S
C173 H191 0.929 . S
C174 C173 1.409 . S
C174 C175 1.380 . S
C174 H192 0.930 . S
C175 C174 1.380 . S
C175 C182 1.357 . S
C176 C167 1.511 . S
C176 C177 1.341 . S
C176 C178 1.371 . S
C177 C176 1.341 . S
C177 C181 1.394 . S
C177 H193 0.930 . S
C178 C176 1.371 . S
C178 C179 1.392 . S
C178 H194 0.931 . S
C179 C178 1.392 . S
C179 C180 1.331 . S
C179 H197 0.932 . S
C180 C179 1.331 . S
C180 C181 1.336 . S
C181 C177 1.394 . S
C181 C180 1.336 . S
C181 H196 0.929 . S
C182 C172 1.386 . S
C182 C175 1.357 . S
C182 H195 0.928 . S
H183 C159 0.931 . S
H184 C161 0.930 . S
H185 C163 0.929 . S
H186 C164 0.931 . S
H187 C166 0.930 . S
H188 C170 0.931 . S
H189 C168 0.931 . S
H190 C172 0.931 . S
H191 C173 0.929 . S
H192 C174 0.930 . S
H193 C177 0.930 . S
H194 C178 0.931 . S
H195 C182 0.928 . S
H196 C181 0.929 . S
H197 C179 0.932 . S
C198 C199 1.386 . S
C198 C200 1.397 . S
C198 H222 0.931 . S
C199 C198 1.386 . S
C199 C203 1.397 1_455 S
C200 C198 1.397 . S
C200 C201 1.384 . S
C200 H223 0.930 . S
C201 C200 1.384 . S
C201 C202 1.377 1_455 S
C201 C204 1.481 . S
C202 C201 1.377 1_655 S
C202 C203 1.389 . S
C202 H224 0.929 . S
C203 C199 1.397 1_655 S
C203 C202 1.389 . S
C203 H225 0.931 . S
C204 C201 1.481 . S
C204 C205 1.387 . S
C204 C209 1.390 1_455 S
C205 C204 1.387 . S
C205 C206 1.401 . S
C205 H226 0.930 . S
C206 C205 1.401 . S
C206 C207 1.376 . S
C206 C215 1.511 . S
C207 C206 1.376 . S
C207 C208 1.392 1_455 S
C207 H228 0.931 . S
C208 C207 1.392 1_655 S
C208 C209 1.361 . S
C208 C210 1.500 . S
C209 C204 1.390 1_655 S
C209 C208 1.361 . S
C209 H227 0.931 . S
C210 C208 1.500 . S
C210 C211 1.371 . S
C210 C212 1.365 . S
C211 C210 1.371 . S
C211 C221 1.386 . S
C211 H229 0.931 . S
C212 C210 1.365 . S
C212 C213 1.409 . S
C212 H230 0.929 . S
C213 C212 1.409 . S
C213 C214 1.380 . S
C213 H231 0.930 . S
C214 C213 1.380 . S
C214 C221 1.357 . S
C215 C206 1.511 . S
C215 C216 1.341 . S
C215 C217 1.371 . S
C216 C215 1.341 . S
C216 C220 1.394 . S
C216 H232 0.930 . S
C217 C215 1.371 . S
C217 C218 1.392 . S
C217 H233 0.931 . S
C218 C217 1.392 . S
C218 C219 1.331 . S
C218 H236 0.932 . S
C219 C218 1.331 . S
C219 C220 1.336 . S
C220 C216 1.394 . S
C220 C219 1.336 . S
C220 H235 0.929 . S
C221 C211 1.386 . S
C221 C214 1.357 . S
C221 H234 0.928 . S
H222 C198 0.931 . S
H223 C200 0.930 . S
H224 C202 0.929 . S
H225 C203 0.931 . S
H226 C205 0.930 . S
H227 C209 0.931 . S
H228 C207 0.931 . S
H229 C211 0.931 . S
H230 C212 0.929 . S
H231 C213 0.930 . S
H232 C216 0.930 . S
H233 C217 0.931 . S
H234 C221 0.928 . S
H235 C220 0.929 . S
H236 C218 0.932 . S
C237 C238 1.386 1_655 S
C237 C239 1.397 . S
C237 H261 0.931 . S
C238 C237 1.386 1_455 S
C238 C242 1.397 . S
C239 C237 1.397 . S
C239 C240 1.384 1_655 S
C239 H262 0.930 . S
C240 C239 1.384 1_455 S
C240 C241 1.377 . S
C240 C243 1.481 . S
C241 C240 1.377 . S
C241 C242 1.389 . S
C241 H263 0.929 . S
C242 C238 1.397 . S
C242 C241 1.389 . S
C242 H264 0.931 . S
C243 C240 1.481 . S
C243 C244 1.387 1_455 S
C243 C248 1.390 . S
C244 C243 1.387 1_655 S
C244 C245 1.401 . S
C244 H265 0.930 . S
C245 C244 1.401 . S
C245 C246 1.376 1_655 S
C245 C254 1.511 . S
C246 C245 1.376 1_455 S
C246 C247 1.392 . S
C246 H267 0.931 . S
C247 C246 1.392 . S
C247 C248 1.361 . S
C247 C249 1.500 . S
C248 C243 1.390 . S
C248 C247 1.361 . S
C248 H266 0.931 . S
C249 C247 1.500 . S
C249 C250 1.371 . S
C249 C251 1.365 . S
C250 C249 1.371 . S
C250 C260 1.386 . S
C250 H268 0.931 . S
C251 C249 1.365 . S
C251 C252 1.409 . S
C251 H269 0.929 . S
C252 C251 1.409 . S
C252 C253 1.380 . S
C252 H270 0.930 . S
C253 C252 1.380 . S
C253 C260 1.357 . S
C254 C245 1.511 . S
C254 C255 1.341 . S
C254 C256 1.371 . S
C255 C254 1.341 . S
C255 C259 1.394 . S
C255 H271 0.930 . S
C256 C254 1.371 . S
C256 C257 1.392 . S
C256 H272 0.931 . S
C257 C256 1.392 . S
C257 C258 1.331 . S
C257 H275 0.932 . S
C258 C257 1.331 . S
C258 C259 1.336 . S
C259 C255 1.394 . S
C259 C258 1.336 . S
C259 H274 0.929 . S
C260 C250 1.386 . S
C260 C253 1.357 . S
C260 H273 0.928 . S
H261 C237 0.931 . S
H262 C239 0.930 . S
H263 C241 0.929 . S
H264 C242 0.931 . S
H265 C244 0.930 . S
H266 C248 0.931 . S
H267 C246 0.931 . S
H268 C250 0.931 . S
H269 C251 0.929 . S
H270 C252 0.930 . S
H271 C255 0.930 . S
H272 C256 0.931 . S
H273 C260 0.928 . S
H274 C259 0.929 . S
H275 C257 0.932 . S
C276 C277 1.386 1_565 S
C276 C278 1.397 . S
C276 H300 0.931 . S
C277 C276 1.386 1_545 S
C277 C281 1.397 . S
C278 C276 1.397 . S
C278 C279 1.380 1_565 S
C278 H301 0.930 . S
C279 C278 1.380 1_545 S
C279 C280 1.381 . S
C279 C282 1.480 1_545 S
C280 C279 1.381 . S
C280 C281 1.389 . S
C280 H302 0.929 . S
C281 C277 1.397 . S
C281 C280 1.389 . S
C281 H303 0.931 . S
C282 C279 1.480 1_565 S
C282 C283 1.407 . S
C282 C287 1.370 1_565 S
C283 C282 1.407 . S
C283 C284 1.401 . S
C283 H304 0.930 . S
C284 C283 1.401 . S
C284 C285 1.376 . S
C284 C293 1.511 . S
C285 C284 1.376 . S
C285 C286 1.392 1_565 S
C285 H306 0.931 . S
C286 C285 1.392 1_545 S
C286 C287 1.361 . S
C286 C288 1.500 . S
C287 C282 1.370 1_545 S
C287 C286 1.361 . S
C287 H305 0.931 . S
C288 C286 1.500 . S
C288 C289 1.371 . S
C288 C290 1.365 . S
C289 C288 1.371 . S
C289 C299 1.386 . S
C289 H307 0.931 . S
C290 C288 1.365 . S
C290 C291 1.409 . S
C290 H308 0.929 . S
C291 C290 1.409 . S
C291 C292 1.380 . S
C291 H309 0.930 . S
C292 C291 1.380 . S
C292 C299 1.357 . S
C293 C284 1.511 . S
C293 C294 1.341 . S
C293 C295 1.371 . S
C294 C293 1.341 . S
C294 C298 1.394 . S
C294 H310 0.930 . S
C295 C293 1.371 . S
C295 C296 1.392 . S
C295 H311 0.931 . S
C296 C295 1.392 . S
C296 C297 1.331 . S
C296 H314 0.932 . S
C297 C296 1.331 . S
C297 C298 1.336 . S
C298 C294 1.394 . S
C298 C297 1.336 . S
C298 H313 0.929 . S
C299 C289 1.386 . S
C299 C292 1.357 . S
C299 H312 0.928 . S
H300 C276 0.931 . S
H301 C278 0.930 . S
H302 C280 0.929 . S
H303 C281 0.931 . S
H304 C283 0.930 . S
H305 C287 0.931 . S
H306 C285 0.931 . S
H307 C289 0.931 . S
H308 C290 0.929 . S
H309 C291 0.930 . S
H310 C294 0.930 . S
H311 C295 0.931 . S
H312 C299 0.928 . S
H313 C298 0.929 . S
H314 C296 0.932 . S
C315 C316 1.386 . S
C315 C317 1.397 . S
C315 H339 0.931 . S
C316 C315 1.386 . S
C316 C320 1.397 . S
C317 C315 1.397 . S
C317 C318 1.384 . S
C317 H340 0.930 . S
C318 C317 1.384 . S
C318 C319 1.377 . S
C318 C321 1.481 . S
C319 C318 1.377 . S
C319 C320 1.389 . S
C319 H341 0.929 . S
C320 C316 1.397 . S
C320 C319 1.389 . S
C320 H342 0.931 . S
C321 C318 1.481 . S
C321 C322 1.387 . S
C321 C326 1.390 . S
C322 C321 1.387 . S
C322 C323 1.401 . S
C322 H343 0.930 . S
C323 C322 1.401 . S
C323 C324 1.376 . S
C323 C332 1.511 . S
C324 C323 1.376 . S
C324 C325 1.392 . S
C324 H345 0.931 . S
C325 C324 1.392 . S
C325 C326 1.361 . S
C325 C327 1.500 . S
C326 C321 1.390 . S
C326 C325 1.361 . S
C326 H344 0.931 . S
C327 C325 1.500 . S
C327 C328 1.371 . S
C327 C329 1.365 . S
C328 C327 1.371 . S
C328 C338 1.386 . S
C328 H346 0.931 . S
C329 C327 1.365 . S
C329 C330 1.409 . S
C329 H347 0.929 . S
C330 C329 1.409 . S
C330 C331 1.380 . S
C330 H348 0.930 . S
C331 C330 1.380 . S
C331 C338 1.357 . S
C332 C323 1.511 . S
C332 C333 1.341 . S
C332 C334 1.371 . S
C333 C332 1.341 . S
C333 C337 1.394 . S
C333 H349 0.930 . S
C334 C332 1.371 . S
C334 C335 1.392 . S
C334 H350 0.931 . S
C335 C334 1.392 . S
C335 C336 1.331 . S
C335 H353 0.932 . S
C336 C335 1.331 . S
C336 C337 1.336 . S
C337 C333 1.394 . S
C337 C336 1.336 . S
C337 H352 0.929 . S
C338 C328 1.386 . S
C338 C331 1.357 . S
C338 H351 0.928 . S
H339 C315 0.931 . S
H340 C317 0.930 . S
H341 C319 0.929 . S
H342 C320 0.931 . S
H343 C322 0.930 . S
H344 C326 0.931 . S
H345 C324 0.931 . S
H346 C328 0.931 . S
H347 C329 0.929 . S
H348 C330 0.930 . S
H349 C333 0.930 . S
H350 C334 0.931 . S
H351 C338 0.928 . S
H352 C337 0.929 . S
H353 C335 0.932 . S
C354 C355 1.391 . S
C354 C356 1.394 . S
C354 H370 0.931 . S
C355 C354 1.391 . S
C355 C359 1.376 . S
C356 C354 1.394 . S
C356 C357 1.369 . S
C356 C360 1.531 . S
C357 C356 1.369 . S
C357 C358 1.410 . S
C357 C365 1.503 . S
C358 C357 1.410 . S
C358 C359 1.392 . S
C358 C361 1.511 . S
C359 C355 1.376 . S
C359 C358 1.392 . S
C359 H371 0.929 . S
C360 C356 1.531 . S
C360 H372 0.960 . S
C360 H373 0.962 . S
C360 H374 0.960 . S
C361 C358 1.511 . S
C361 H375 0.961 . S
C361 H376 0.961 . S
C361 H377 0.961 . S
C362 C363 1.370 . S
C362 C364 1.363 . S
C362 H378 0.931 . S
C363 C362 1.370 . S
C363 C367 1.408 . S
C364 C362 1.363 . S
C364 C365 1.370 . S
C364 C368 1.524 . S
C365 C357 1.503 . S
C365 C364 1.370 . S
C365 C366 1.403 . S
C366 C365 1.403 . S
C366 C367 1.404 . S
C366 C369 1.539 . S
C367 C363 1.408 . S
C367 C366 1.404 . S
C367 H379 0.930 . S
C368 C364 1.524 . S
C368 H380 0.956 . S
C368 H381 0.961 . S
C368 H382 0.961 . S
C369 C366 1.539 . S
C369 H383 0.958 . S
C369 H384 0.961 . S
C369 H385 0.960 . S
H370 C354 0.931 . S
H371 C359 0.929 . S
H372 C360 0.960 . S
H373 C360 0.962 . S
H374 C360 0.960 . S
H375 C361 0.961 . S
H376 C361 0.961 . S
H377 C361 0.961 . S
H378 C362 0.931 . S
H379 C367 0.930 . S
H380 C368 0.956 . S
H381 C368 0.961 . S
H382 C368 0.961 . S
H383 C369 0.958 . S
H384 C369 0.961 . S
H385 C369 0.960 . S
C386 C387 1.391 . S
C386 C388 1.394 . S
C386 H402 0.931 . S
C387 C386 1.391 . S
C387 C391 1.376 . S
C388 C386 1.394 . S
C388 C389 1.369 . S
C388 C392 1.531 . S
C389 C388 1.369 . S
C389 C390 1.410 . S
C389 C397 1.503 . S
C390 C389 1.410 . S
C390 C391 1.392 . S
C390 C393 1.511 . S
C391 C387 1.376 . S
C391 C390 1.392 . S
C391 H403 0.929 . S
C392 C388 1.531 . S
C392 H404 0.960 . S
C392 H405 0.962 . S
C392 H406 0.960 . S
C393 C390 1.511 . S
C393 H407 0.961 . S
C393 H408 0.961 . S
C393 H409 0.961 . S
C394 C395 1.370 . S
C394 C396 1.363 . S
C394 H410 0.931 . S
C395 C394 1.370 . S
C395 C399 1.408 . S
C396 C394 1.363 . S
C396 C397 1.370 . S
C396 C400 1.524 . S
C397 C389 1.503 . S
C397 C396 1.370 . S
C397 C398 1.403 . S
C398 C397 1.403 . S
C398 C399 1.404 . S
C398 C401 1.539 . S
C399 C395 1.408 . S
C399 C398 1.404 . S
C399 H411 0.930 . S
C400 C396 1.524 . S
C400 H412 0.956 . S
C400 H413 0.961 . S
C400 H414 0.961 . S
C401 C398 1.539 . S
C401 H415 0.958 . S
C401 H416 0.961 . S
C401 H417 0.960 . S
H402 C386 0.931 . S
H403 C391 0.929 . S
H404 C392 0.960 . S
H405 C392 0.962 . S
H406 C392 0.960 . S
H407 C393 0.961 . S
H408 C393 0.961 . S
H409 C393 0.961 . S
H410 C394 0.931 . S
H411 C399 0.930 . S
H412 C400 0.956 . S
H413 C400 0.961 . S
H414 C400 0.961 . S
H415 C401 0.958 . S
H416 C401 0.961 . S
H417 C401 0.960 . S
C418 C419 1.391 . S
C418 C420 1.394 . S
C418 H434 0.931 . S
C419 C418 1.391 . S
C419 C423 1.376 . S
C420 C418 1.394 . S
C420 C421 1.369 . S
C420 C424 1.531 . S
C421 C420 1.369 . S
C421 C422 1.410 . S
C421 C429 1.503 . S
C422 C421 1.410 . S
C422 C423 1.392 . S
C422 C425 1.511 . S
C423 C419 1.376 . S
C423 C422 1.392 . S
C423 H435 0.929 . S
C424 C420 1.531 . S
C424 H436 0.960 . S
C424 H437 0.962 . S
C424 H438 0.960 . S
C425 C422 1.511 . S
C425 H439 0.961 . S
C425 H440 0.961 . S
C425 H441 0.961 . S
C426 C427 1.370 . S
C426 C428 1.363 . S
C426 H442 0.931 . S
C427 C426 1.370 . S
C427 C431 1.408 . S
C428 C426 1.363 . S
C428 C429 1.370 . S
C428 C432 1.524 . S
C429 C421 1.503 . S
C429 C428 1.370 . S
C429 C430 1.403 . S
C430 C429 1.403 . S
C430 C431 1.404 . S
C430 C433 1.539 . S
C431 C427 1.408 . S
C431 C430 1.404 . S
C431 H443 0.930 . S
C432 C428 1.524 . S
C432 H444 0.956 . S
C432 H445 0.961 . S
C432 H446 0.961 . S
C433 C430 1.539 . S
C433 H447 0.958 . S
C433 H448 0.961 . S
C433 H449 0.960 . S
H434 C418 0.931 . S
H435 C423 0.929 . S
H436 C424 0.960 . S
H437 C424 0.962 . S
H438 C424 0.960 . S
H439 C425 0.961 . S
H440 C425 0.961 . S
H441 C425 0.961 . S
H442 C426 0.931 . S
H443 C431 0.930 . S
H444 C432 0.956 . S
H445 C432 0.961 . S
H446 C432 0.961 . S
H447 C433 0.958 . S
H448 C433 0.961 . S
H449 C433 0.960 . S
C450 C451 1.391 . S
C450 C452 1.394 . S
C450 H466 0.931 . S
C451 C450 1.391 . S
C451 C455 1.376 . S
C452 C450 1.394 . S
C452 C453 1.369 . S
C452 C456 1.531 . S
C453 C452 1.369 . S
C453 C454 1.410 . S
C453 C461 1.503 . S
C454 C453 1.410 . S
C454 C455 1.392 . S
C454 C457 1.511 . S
C455 C451 1.376 . S
C455 C454 1.392 . S
C455 H467 0.929 . S
C456 C452 1.531 . S
C456 H468 0.960 . S
C456 H469 0.962 . S
C456 H470 0.960 . S
C457 C454 1.511 . S
C457 H471 0.961 . S
C457 H472 0.961 . S
C457 H473 0.961 . S
C458 C459 1.370 . S
C458 C460 1.363 . S
C458 H474 0.931 . S
C459 C458 1.370 . S
C459 C463 1.408 . S
C460 C458 1.363 . S
C460 C461 1.370 . S
C460 C464 1.524 . S
C461 C453 1.503 . S
C461 C460 1.370 . S
C461 C462 1.403 . S
C462 C461 1.403 . S
C462 C463 1.404 . S
C462 C465 1.539 . S
C463 C459 1.408 . S
C463 C462 1.404 . S
C463 H475 0.930 . S
C464 C460 1.524 . S
C464 H476 0.956 . S
C464 H477 0.961 . S
C464 H478 0.961 . S
C465 C462 1.539 . S
C465 H479 0.958 . S
C465 H480 0.961 . S
C465 H481 0.960 . S
H466 C450 0.931 . S
H467 C455 0.929 . S
H468 C456 0.960 . S
H469 C456 0.962 . S
H470 C456 0.960 . S
H471 C457 0.961 . S
H472 C457 0.961 . S
H473 C457 0.961 . S
H474 C458 0.931 . S
H475 C463 0.930 . S
H476 C464 0.956 . S
H477 C464 0.961 . S
H478 C464 0.961 . S
H479 C465 0.958 . S
H480 C465 0.961 . S
H481 C465 0.960 . S
C482 C483 1.391 . S
C482 C484 1.394 . S
C482 H498 0.931 . S
C483 C482 1.391 . S
C483 C487 1.376 . S
C484 C482 1.394 . S
C484 C485 1.369 . S
C484 C488 1.531 . S
C485 C484 1.369 . S
C485 C486 1.410 . S
C485 C493 1.503 . S
C486 C485 1.410 . S
C486 C487 1.392 . S
C486 C489 1.511 . S
C487 C483 1.376 . S
C487 C486 1.392 . S
C487 H499 0.929 . S
C488 C484 1.531 . S
C488 H500 0.960 . S
C488 H501 0.962 . S
C488 H502 0.960 . S
C489 C486 1.511 . S
C489 H503 0.961 . S
C489 H504 0.961 . S
C489 H505 0.961 . S
C490 C491 1.370 . S
C490 C492 1.363 . S
C490 H506 0.931 . S
C491 C490 1.370 . S
C491 C495 1.408 . S
C492 C490 1.363 . S
C492 C493 1.370 . S
C492 C496 1.524 . S
C493 C485 1.503 . S
C493 C492 1.370 . S
C493 C494 1.403 . S
C494 C493 1.403 . S
C494 C495 1.404 . S
C494 C497 1.539 . S
C495 C491 1.408 . S
C495 C494 1.404 . S
C495 H507 0.930 . S
C496 C492 1.524 . S
C496 H508 0.956 . S
C496 H509 0.961 . S
C496 H510 0.961 . S
C497 C494 1.539 . S
C497 H511 0.958 . S
C497 H512 0.961 . S
C497 H513 0.960 . S
H498 C482 0.931 . S
H499 C487 0.929 . S
H500 C488 0.960 . S
H501 C488 0.962 . S
H502 C488 0.960 . S
H503 C489 0.961 . S
H504 C489 0.961 . S
H505 C489 0.961 . S
H506 C490 0.931 . S
H507 C495 0.930 . S
H508 C496 0.956 . S
H509 C496 0.961 . S
H510 C496 0.961 . S
H511 C497 0.958 . S
H512 C497 0.961 . S
H513 C497 0.960 . S
C514 C515 1.391 . S
C514 C516 1.394 . S
C514 H530 0.931 . S
C515 C514 1.391 . S
C515 C519 1.376 . S
C516 C514 1.394 . S
C516 C517 1.369 . S
C516 C520 1.531 . S
C517 C516 1.369 . S
C517 C518 1.410 . S
C517 C525 1.503 . S
C518 C517 1.410 . S
C518 C519 1.392 . S
C518 C521 1.511 . S
C519 C515 1.376 . S
C519 C518 1.392 . S
C519 H531 0.929 . S
C520 C516 1.531 . S
C520 H532 0.960 . S
C520 H533 0.962 . S
C520 H534 0.960 . S
C521 C518 1.511 . S
C521 H535 0.961 . S
C521 H536 0.961 . S
C521 H537 0.961 . S
C522 C523 1.370 . S
C522 C524 1.363 . S
C522 H538 0.931 . S
C523 C522 1.370 . S
C523 C527 1.408 . S
C524 C522 1.363 . S
C524 C525 1.370 . S
C524 C528 1.524 . S
C525 C517 1.503 . S
C525 C524 1.370 . S
C525 C526 1.403 . S
C526 C525 1.403 . S
C526 C527 1.404 . S
C526 C529 1.539 . S
C527 C523 1.408 . S
C527 C526 1.404 . S
C527 H539 0.930 . S
C528 C524 1.524 . S
C528 H540 0.956 . S
C528 H541 0.961 . S
C528 H542 0.961 . S
C529 C526 1.539 . S
C529 H543 0.958 . S
C529 H544 0.961 . S
C529 H545 0.960 . S
H530 C514 0.931 . S
H531 C519 0.929 . S
H532 C520 0.960 . S
H533 C520 0.962 . S
H534 C520 0.960 . S
H535 C521 0.961 . S
H536 C521 0.961 . S
H537 C521 0.961 . S
H538 C522 0.931 . S
H539 C527 0.930 . S
H540 C528 0.956 . S
H541 C528 0.961 . S
H542 C528 0.961 . S
H543 C529 0.958 . S
H544 C529 0.961 . S
H545 C529 0.960 . S
C546 C547 1.391 . S
C546 C548 1.394 . S
C546 H562 0.931 . S
C547 C546 1.391 . S
C547 C551 1.376 . S
C548 C546 1.394 . S
C548 C549 1.369 . S
C548 C552 1.531 . S
C549 C548 1.369 . S
C549 C550 1.410 . S
C549 C557 1.503 . S
C550 C549 1.410 . S
C550 C551 1.392 . S
C550 C553 1.511 . S
C551 C547 1.376 . S
C551 C550 1.392 . S
C551 H563 0.929 . S
C552 C548 1.531 . S
C552 H564 0.960 . S
C552 H565 0.962 . S
C552 H566 0.960 . S
C553 C550 1.511 . S
C553 H567 0.961 . S
C553 H568 0.961 . S
C553 H569 0.961 . S
C554 C555 1.370 . S
C554 C556 1.363 . S
C554 H570 0.931 . S
C555 C554 1.370 . S
C555 C559 1.408 . S
C556 C554 1.363 . S
C556 C557 1.370 . S
C556 C560 1.524 . S
C557 C549 1.503 . S
C557 C556 1.370 . S
C557 C558 1.403 . S
C558 C557 1.403 . S
C558 C559 1.404 . S
C558 C561 1.539 . S
C559 C555 1.408 . S
C559 C558 1.404 . S
C559 H571 0.930 . S
C560 C556 1.524 . S
C560 H572 0.956 . S
C560 H573 0.961 . S
C560 H574 0.961 . S
C561 C558 1.539 . S
C561 H575 0.958 . S
C561 H576 0.961 . S
C561 H577 0.960 . S
H562 C546 0.931 . S
H563 C551 0.929 . S
H564 C552 0.960 . S
H565 C552 0.962 . S
H566 C552 0.960 . S
H567 C553 0.961 . S
H568 C553 0.961 . S
H569 C553 0.961 . S
H570 C554 0.931 . S
H571 C559 0.930 . S
H572 C560 0.956 . S
H573 C560 0.961 . S
H574 C560 0.961 . S
H575 C561 0.958 . S
H576 C561 0.961 . S
H577 C561 0.960 . S
C578 C579 1.391 . S
C578 C580 1.394 . S
C578 H594 0.931 . S
C579 C578 1.391 . S
C579 C583 1.376 . S
C580 C578 1.394 . S
C580 C581 1.369 . S
C580 C584 1.531 . S
C581 C580 1.369 . S
C581 C582 1.410 . S
C581 C589 1.503 . S
C582 C581 1.410 . S
C582 C583 1.392 . S
C582 C585 1.511 . S
C583 C579 1.376 . S
C583 C582 1.392 . S
C583 H595 0.929 . S
C584 C580 1.531 . S
C584 H596 0.960 . S
C584 H597 0.962 . S
C584 H598 0.960 . S
C585 C582 1.511 . S
C585 H599 0.961 . S
C585 H600 0.961 . S
C585 H601 0.961 . S
C586 C587 1.370 . S
C586 C588 1.363 . S
C586 H602 0.931 . S
C587 C586 1.370 . S
C587 C591 1.408 . S
C588 C586 1.363 . S
C588 C589 1.370 . S
C588 C592 1.524 . S
C589 C581 1.503 . S
C589 C588 1.370 . S
C589 C590 1.403 . S
C590 C589 1.403 . S
C590 C591 1.404 . S
C590 C593 1.539 . S
C591 C587 1.408 . S
C591 C590 1.404 . S
C591 H603 0.930 . S
C592 C588 1.524 . S
C592 H604 0.956 . S
C592 H605 0.961 . S
C592 H606 0.961 . S
C593 C590 1.539 . S
C593 H607 0.958 . S
C593 H608 0.961 . S
C593 H609 0.960 . S
H594 C578 0.931 . S
H595 C583 0.929 . S
H596 C584 0.960 . S
H597 C584 0.962 . S
H598 C584 0.960 . S
H599 C585 0.961 . S
H600 C585 0.961 . S
H601 C585 0.961 . S
H602 C586 0.931 . S
H603 C591 0.930 . S
H604 C592 0.956 . S
H605 C592 0.961 . S
H606 C592 0.961 . S
H607 C593 0.958 . S
H608 C593 0.961 . S
H609 C593 0.960 . S
C610 C611 1.391 . S
C610 C612 1.394 . S
C610 H626 0.931 . S
C611 C610 1.391 . S
C611 C615 1.376 . S
C612 C610 1.394 . S
C612 C613 1.369 . S
C612 C616 1.531 . S
C613 C612 1.369 . S
C613 C614 1.410 . S
C613 C621 1.503 . S
C614 C613 1.410 . S
C614 C615 1.392 . S
C614 C617 1.511 . S
C615 C611 1.376 . S
C615 C614 1.392 . S
C615 H627 0.929 . S
C616 C612 1.531 . S
C616 H628 0.960 . S
C616 H629 0.962 . S
C616 H630 0.960 . S
C617 C614 1.511 . S
C617 H631 0.961 . S
C617 H632 0.961 . S
C617 H633 0.961 . S
C618 C619 1.370 . S
C618 C620 1.363 . S
C618 H634 0.931 . S
C619 C618 1.370 . S
C619 C623 1.408 . S
C620 C618 1.363 . S
C620 C621 1.370 . S
C620 C624 1.524 . S
C621 C613 1.503 . S
C621 C620 1.370 . S
C621 C622 1.403 . S
C622 C621 1.403 . S
C622 C623 1.404 . S
C622 C625 1.539 . S
C623 C619 1.408 . S
C623 C622 1.404 . S
C623 H635 0.930 . S
C624 C620 1.524 . S
C624 H636 0.956 . S
C624 H637 0.961 . S
C624 H638 0.961 . S
C625 C622 1.539 . S
C625 H639 0.958 . S
C625 H640 0.961 . S
C625 H641 0.960 . S
H626 C610 0.931 . S
H627 C615 0.929 . S
H628 C616 0.960 . S
H629 C616 0.962 . S
H630 C616 0.960 . S
H631 C617 0.961 . S
H632 C617 0.961 . S
H633 C617 0.961 . S
H634 C618 0.931 . S
H635 C623 0.930 . S
H636 C624 0.956 . S
H637 C624 0.961 . S
H638 C624 0.961 . S
H639 C625 0.958 . S
H640 C625 0.961 . S
H641 C625 0.960 . S
C642 C643 1.391 . S
C642 C644 1.394 . S
C642 H658 0.931 . S
C643 C642 1.391 . S
C643 C647 1.376 . S
C644 C642 1.394 . S
C644 C645 1.369 . S
C644 C648 1.531 . S
C645 C644 1.369 . S
C645 C646 1.410 . S
C645 C653 1.503 . S
C646 C645 1.410 . S
C646 C647 1.392 . S
C646 C649 1.511 . S
C647 C643 1.376 . S
C647 C646 1.392 . S
C647 H659 0.929 . S
C648 C644 1.531 . S
C648 H660 0.960 . S
C648 H661 0.962 . S
C648 H662 0.960 . S
C649 C646 1.511 . S
C649 H663 0.961 . S
C649 H664 0.961 . S
C649 H665 0.961 . S
C650 C651 1.370 . S
C650 C652 1.363 . S
C650 H666 0.931 . S
C651 C650 1.370 . S
C651 C655 1.408 . S
C652 C650 1.363 . S
C652 C653 1.370 . S
C652 C656 1.524 . S
C653 C645 1.503 . S
C653 C652 1.370 . S
C653 C654 1.403 . S
C654 C653 1.403 . S
C654 C655 1.404 . S
C654 C657 1.539 . S
C655 C651 1.408 . S
C655 C654 1.404 . S
C655 H667 0.930 . S
C656 C652 1.524 . S
C656 H668 0.956 . S
C656 H669 0.961 . S
C656 H670 0.961 . S
C657 C654 1.539 . S
C657 H671 0.958 . S
C657 H672 0.961 . S
C657 H673 0.960 . S
H658 C642 0.931 . S
H659 C647 0.929 . S
H660 C648 0.960 . S
H661 C648 0.962 . S
H662 C648 0.960 . S
H663 C649 0.961 . S
H664 C649 0.961 . S
H665 C649 0.961 . S
H666 C650 0.931 . S
H667 C655 0.930 . S
H668 C656 0.956 . S
H669 C656 0.961 . S
H670 C656 0.961 . S
H671 C657 0.958 . S
H672 C657 0.961 . S
H673 C657 0.960 . S
C674 C675 1.391 . S
C674 C676 1.394 . S
C674 H690 0.931 . S
C675 C674 1.391 . S
C675 C679 1.376 . S
C676 C674 1.394 . S
C676 C677 1.369 . S
C676 C680 1.531 . S
C677 C676 1.369 . S
C677 C678 1.410 . S
C677 C685 1.503 . S
C678 C677 1.410 . S
C678 C679 1.392 . S
C678 C681 1.511 . S
C679 C675 1.376 . S
C679 C678 1.392 . S
C679 H691 0.929 . S
C680 C676 1.531 . S
C680 H692 0.960 . S
C680 H693 0.962 . S
C680 H694 0.960 . S
C681 C678 1.511 . S
C681 H695 0.961 . S
C681 H696 0.961 . S
C681 H697 0.961 . S
C682 C683 1.370 . S
C682 C684 1.363 . S
C682 H698 0.931 . S
C683 C682 1.370 . S
C683 C687 1.408 . S
C684 C682 1.363 . S
C684 C685 1.370 . S
C684 C688 1.524 . S
C685 C677 1.503 . S
C685 C684 1.370 . S
C685 C686 1.403 . S
C686 C685 1.403 . S
C686 C687 1.404 . S
C686 C689 1.539 . S
C687 C683 1.408 . S
C687 C686 1.404 . S
C687 H699 0.930 . S
C688 C684 1.524 . S
C688 H700 0.956 . S
C688 H701 0.961 . S
C688 H702 0.961 . S
C689 C686 1.539 . S
C689 H703 0.958 . S
C689 H704 0.961 . S
C689 H705 0.960 . S
H690 C674 0.931 . S
H691 C679 0.929 . S
H692 C680 0.960 . S
H693 C680 0.962 . S
H694 C680 0.960 . S
H695 C681 0.961 . S
H696 C681 0.961 . S
H697 C681 0.961 . S
H698 C682 0.931 . S
H699 C687 0.930 . S
H700 C688 0.956 . S
H701 C688 0.961 . S
H702 C688 0.961 . S
H703 C689 0.958 . S
H704 C689 0.961 . S
H705 C689 0.960 . S
C706 C707 1.391 . S
C706 C708 1.394 . S
C706 H722 0.931 . S
C707 C706 1.391 . S
C707 C711 1.376 . S
C708 C706 1.394 . S
C708 C709 1.369 . S
C708 C712 1.531 . S
C709 C708 1.369 . S
C709 C710 1.410 . S
C709 C717 1.503 . S
C710 C709 1.410 . S
C710 C711 1.392 . S
C710 C713 1.511 . S
C711 C707 1.376 . S
C711 C710 1.392 . S
C711 H723 0.929 . S
C712 C708 1.531 . S
C712 H724 0.960 . S
C712 H725 0.962 . S
C712 H726 0.960 . S
C713 C710 1.511 . S
C713 H727 0.961 . S
C713 H728 0.961 . S
C713 H729 0.961 . S
C714 C715 1.370 . S
C714 C716 1.363 . S
C714 H730 0.931 . S
C715 C714 1.370 . S
C715 C719 1.408 . S
C716 C714 1.363 . S
C716 C717 1.370 . S
C716 C720 1.524 . S
C717 C709 1.503 . S
C717 C716 1.370 . S
C717 C718 1.403 . S
C718 C717 1.403 . S
C718 C719 1.404 . S
C718 C721 1.539 . S
C719 C715 1.408 . S
C719 C718 1.404 . S
C719 H731 0.930 . S
C720 C716 1.524 . S
C720 H732 0.956 . S
C720 H733 0.961 . S
C720 H734 0.961 . S
C721 C718 1.539 . S
C721 H735 0.958 . S
C721 H736 0.961 . S
C721 H737 0.960 . S
H722 C706 0.931 . S
H723 C711 0.929 . S
H724 C712 0.960 . S
H725 C712 0.962 . S
H726 C712 0.960 . S
H727 C713 0.961 . S
H728 C713 0.961 . S
H729 C713 0.961 . S
H730 C714 0.931 . S
H731 C719 0.930 . S
H732 C720 0.956 . S
H733 C720 0.961 . S
H734 C720 0.961 . S
H735 C721 0.958 . S
H736 C721 0.961 . S
H737 C721 0.960 . S
C738 C739 1.391 . S
C738 C740 1.394 . S
C738 H754 0.931 1_455 S
C739 C738 1.391 . S
C739 C743 1.376 . S
C740 C738 1.394 . S
C740 C741 1.369 . S
C740 C744 1.531 1_455 S
C741 C740 1.369 . S
C741 C742 1.410 . S
C741 C749 1.503 . S
C742 C741 1.410 . S
C742 C743 1.392 . S
C742 C745 1.511 . S
C743 C739 1.376 . S
C743 C742 1.392 . S
C743 H755 0.929 . S
C744 C740 1.531 1_655 S
C744 H756 0.960 . S
C744 H757 0.962 . S
C744 H758 0.960 . S
C745 C742 1.511 . S
C745 H759 0.961 . S
C745 H760 0.961 . S
C745 H761 0.961 . S
C746 C747 1.370 . S
C746 C748 1.363 . S
C746 H762 0.931 1_455 S
C747 C746 1.370 . S
C747 C751 1.408 . S
C748 C746 1.363 . S
C748 C749 1.370 . S
C748 C752 1.524 1_455 S
C749 C741 1.503 . S
C749 C748 1.370 . S
C749 C750 1.403 . S
C750 C749 1.403 . S
C750 C751 1.404 . S
C750 C753 1.539 . S
C751 C747 1.408 . S
C751 C750 1.404 . S
C751 H763 0.930 . S
C752 C748 1.524 1_655 S
C752 H764 0.956 . S
C752 H765 0.961 . S
C752 H766 0.961 . S
C753 C750 1.539 . S
C753 H767 0.958 . S
C753 H768 0.961 . S
C753 H769 0.960 . S
H754 C738 0.931 1_655 S
H755 C743 0.929 . S
H756 C744 0.960 . S
H757 C744 0.962 . S
H758 C744 0.960 . S
H759 C745 0.961 . S
H760 C745 0.961 . S
H761 C745 0.961 . S
H762 C746 0.931 1_655 S
H763 C751 0.930 . S
H764 C752 0.956 . S
H765 C752 0.961 . S
H766 C752 0.961 . S
H767 C753 0.958 . S
H768 C753 0.961 . S
H769 C753 0.960 . S
C770 C771 1.391 . S
C770 C772 1.394 . S
C770 H786 0.931 1_545 S
C771 C770 1.391 . S
C771 C775 1.376 . S
C772 C770 1.394 . S
C772 C773 1.369 . S
C772 C776 1.531 1_545 S
C773 C772 1.369 . S
C773 C774 1.410 . S
C773 C781 1.503 . S
C774 C773 1.410 . S
C774 C775 1.392 . S
C774 C777 1.511 . S
C775 C771 1.376 . S
C775 C774 1.392 . S
C775 H787 0.929 . S
C776 C772 1.531 1_565 S
C776 H788 0.960 . S
C776 H789 0.962 . S
C776 H790 0.960 . S
C777 C774 1.511 . S
C777 H791 0.961 . S
C777 H792 0.961 . S
C777 H793 0.961 . S
C778 C779 1.370 . S
C778 C780 1.363 . S
C778 H794 0.931 . S
C779 C778 1.370 . S
C779 C783 1.408 . S
C780 C778 1.363 . S
C780 C781 1.370 . S
C780 C784 1.524 . S
C781 C773 1.503 . S
C781 C780 1.370 . S
C781 C782 1.403 . S
C782 C781 1.403 . S
C782 C783 1.404 . S
C782 C785 1.539 . S
C783 C779 1.408 . S
C783 C782 1.404 . S
C783 H795 0.930 . S
C784 C780 1.524 . S
C784 H796 0.956 . S
C784 H797 0.961 . S
C784 H798 0.961 . S
C785 C782 1.539 . S
C785 H799 0.958 . S
C785 H800 0.961 . S
C785 H801 0.960 . S
H786 C770 0.931 1_565 S
H787 C775 0.929 . S
H788 C776 0.960 . S
H789 C776 0.962 . S
H790 C776 0.960 . S
H791 C777 0.961 . S
H792 C777 0.961 . S
H793 C777 0.961 . S
H794 C778 0.931 . S
H795 C783 0.930 . S
H796 C784 0.956 . S
H797 C784 0.961 . S
H798 C784 0.961 . S
H799 C785 0.958 . S
H800 C785 0.961 . S
H801 C785 0.960 . S
C802 C803 1.391 . S
C802 C804 1.394 . S
C802 H818 0.931 . S
C803 C802 1.391 . S
C803 C807 1.376 . S
C804 C802 1.394 . S
C804 C805 1.369 . S
C804 C808 1.531 . S
C805 C804 1.369 . S
C805 C806 1.410 . S
C805 C813 1.503 . S
C806 C805 1.410 . S
C806 C807 1.392 . S
C806 C809 1.511 . S
C807 C803 1.376 . S
C807 C806 1.392 . S
C807 H819 0.929 . S
C808 C804 1.531 . S
C808 H820 0.960 . S
C808 H821 0.962 . S
C808 H822 0.960 . S
C809 C806 1.511 . S
C809 H823 0.961 . S
C809 H824 0.961 . S
C809 H825 0.961 . S
C810 C811 1.370 . S
C810 C812 1.363 . S
C810 H826 0.931 . S
C811 C810 1.370 . S
C811 C815 1.408 . S
C812 C810 1.363 . S
C812 C813 1.370 . S
C812 C816 1.524 . S
C813 C805 1.503 . S
C813 C812 1.370 . S
C813 C814 1.403 . S
C814 C813 1.403 . S
C814 C815 1.404 . S
C814 C817 1.539 . S
C815 C811 1.408 . S
C815 C814 1.404 . S
C815 H827 0.930 . S
C816 C812 1.524 . S
C816 H828 0.956 . S
C816 H829 0.961 . S
C816 H830 0.961 . S
C817 C814 1.539 . S
C817 H831 0.958 . S
C817 H832 0.961 . S
C817 H833 0.960 . S
H818 C802 0.931 . S
H819 C807 0.929 . S
H820 C808 0.960 . S
H821 C808 0.962 . S
H822 C808 0.960 . S
H823 C809 0.961 . S
H824 C809 0.961 . S
H825 C809 0.961 . S
H826 C810 0.931 . S
H827 C815 0.930 . S
H828 C816 0.956 . S
H829 C816 0.961 . S
H830 C816 0.961 . S
H831 C817 0.958 . S
H832 C817 0.961 . S
H833 C817 0.960 . S
C834 C835 1.391 . S
C834 C836 1.394 . S
C834 H850 0.931 . S
C835 C834 1.391 . S
C835 C839 1.376 . S
C836 C834 1.394 . S
C836 C837 1.369 . S
C836 C840 1.531 . S
C837 C836 1.369 . S
C837 C838 1.410 . S
C837 C845 1.503 . S
C838 C837 1.410 . S
C838 C839 1.392 . S
C838 C841 1.511 . S
C839 C835 1.376 . S
C839 C838 1.392 . S
C839 H851 0.929 . S
C840 C836 1.531 . S
C840 H852 0.960 . S
C840 H853 0.962 1_545 S
C840 H854 0.960 . S
C841 C838 1.511 . S
C841 H855 0.961 . S
C841 H856 0.961 . S
C841 H857 0.961 . S
C842 C843 1.370 1_565 S
C842 C844 1.363 . S
C842 H858 0.931 . S
C843 C842 1.370 1_545 S
C843 C847 1.408 . S
C844 C842 1.363 . S
C844 C845 1.370 1_565 S
C844 C848 1.524 . S
C845 C837 1.503 . S
C845 C844 1.370 1_545 S
C845 C846 1.403 . S
C846 C845 1.403 . S
C846 C847 1.404 . S
C846 C849 1.539 . S
C847 C843 1.408 . S
C847 C846 1.404 . S
C847 H859 0.930 . S
C848 C844 1.524 . S
C848 H860 0.956 . S
C848 H861 0.961 . S
C848 H862 0.961 . S
C849 C846 1.539 . S
C849 H863 0.958 . S
C849 H864 0.961 . S
C849 H865 0.960 . S
H850 C834 0.931 . S
H851 C839 0.929 . S
H852 C840 0.960 . S
H853 C840 0.962 1_565 S
H854 C840 0.960 . S
H855 C841 0.961 . S
H856 C841 0.961 . S
H857 C841 0.961 . S
H858 C842 0.931 . S
H859 C847 0.930 . S
H860 C848 0.956 . S
H861 C848 0.961 . S
H862 C848 0.961 . S
H863 C849 0.958 . S
H864 C849 0.961 . S
H865 C849 0.960 . S
C866 C867 1.391 . S
C866 C868 1.394 . S
C866 H882 0.931 . S
C867 C866 1.391 . S
C867 C871 1.376 . S
C868 C866 1.394 . S
C868 C869 1.369 . S
C868 C872 1.531 . S
C869 C868 1.369 . S
C869 C870 1.410 . S
C869 C877 1.503 . S
C870 C869 1.410 . S
C870 C871 1.392 . S
C870 C873 1.511 . S
C871 C867 1.376 . S
C871 C870 1.392 . S
C871 H883 0.929 . S
C872 C868 1.531 . S
C872 H884 0.960 . S
C872 H885 0.962 . S
C872 H886 0.960 . S
C873 C870 1.511 . S
C873 H887 0.961 . S
C873 H888 0.961 . S
C873 H889 0.961 . S
C874 C875 1.370 . S
C874 C876 1.363 . S
C874 H890 0.931 . S
C875 C874 1.370 . S
C875 C879 1.408 . S
C876 C874 1.363 . S
C876 C877 1.370 . S
C876 C880 1.524 . S
C877 C869 1.503 . S
C877 C876 1.370 . S
C877 C878 1.403 . S
C878 C877 1.403 . S
C878 C879 1.404 . S
C878 C881 1.539 . S
C879 C875 1.408 . S
C879 C878 1.404 . S
C879 H891 0.930 . S
C880 C876 1.524 . S
C880 H892 0.956 . S
C880 H893 0.961 . S
C880 H894 0.961 . S
C881 C878 1.539 . S
C881 H895 0.958 . S
C881 H896 0.961 . S
C881 H897 0.960 . S
H882 C866 0.931 . S
H883 C871 0.929 . S
H884 C872 0.960 . S
H885 C872 0.962 . S
H886 C872 0.960 . S
H887 C873 0.961 . S
H888 C873 0.961 . S
H889 C873 0.961 . S
H890 C874 0.931 . S
H891 C879 0.930 . S
H892 C880 0.956 . S
H893 C880 0.961 . S
H894 C880 0.961 . S
H895 C881 0.958 . S
H896 C881 0.961 . S
H897 C881 0.960 . S
C898 C899 1.391 . S
C898 C900 1.394 . S
C898 H914 0.931 . S
C899 C898 1.391 . S
C899 C903 1.376 1_455 S
C900 C898 1.394 . S
C900 C901 1.369 . S
C900 C904 1.531 . S
C901 C900 1.369 . S
C901 C902 1.410 1_455 S
C901 C909 1.503 . S
C902 C901 1.410 1_655 S
C902 C903 1.392 . S
C902 C905 1.511 . S
C903 C899 1.376 1_655 S
C903 C902 1.392 . S
C903 H915 0.929 . S
C904 C900 1.531 . S
C904 H916 0.960 . S
C904 H917 0.962 . S
C904 H918 0.960 . S
C905 C902 1.511 . S
C905 H919 0.961 . S
C905 H920 0.961 . S
C905 H921 0.961 . S
C906 C907 1.370 . S
C906 C908 1.363 . S
C906 H922 0.931 . S
C907 C906 1.370 . S
C907 C911 1.408 1_455 S
C908 C906 1.363 . S
C908 C909 1.370 . S
C908 C912 1.524 . S
C909 C901 1.503 . S
C909 C908 1.370 . S
C909 C910 1.403 . S
C910 C909 1.403 . S
C910 C911 1.404 1_455 S
C910 C913 1.539 1_455 S
C911 C907 1.408 1_655 S
C911 C910 1.404 1_655 S
C911 H923 0.930 . S
C912 C908 1.524 . S
C912 H924 0.956 . S
C912 H925 0.961 . S
C912 H926 0.961 . S
C913 C910 1.539 1_655 S
C913 H927 0.958 1_655 S
C913 H928 0.961 . S
C913 H929 0.960 . S
H914 C898 0.931 . S
H915 C903 0.929 . S
H916 C904 0.960 . S
H917 C904 0.962 . S
H918 C904 0.960 . S
H919 C905 0.961 . S
H920 C905 0.961 . S
H921 C905 0.961 . S
H922 C906 0.931 . S
H923 C911 0.930 . S
H924 C912 0.956 . S
H925 C912 0.961 . S
H926 C912 0.961 . S
H927 C913 0.958 1_455 S
H928 C913 0.961 . S
H929 C913 0.960 . S
C355 C9 0.476 . S
C363 C331 0.505 . S
C387 C49 0.371 . S
C395 C258 0.305 . S
C419 C89 0.269 . S
C427 C297 0.287 . S
C451 C26 0.312 . S
C459 C336 0.307 . S
C491 C253 0.423 . S
C483 C66 0.424 . S
C523 C292 0.469 . S
C515 C106 0.561 . S
C547 C43 2.957 . S
C555 C180 2.920 . S
C579 C83 3.107 . S
C587 C214 3.057 . S
C611 C22 3.151 . S
C619 C136 3.096 . S
C651 C175 3.093 . S
C643 C62 3.146 . S
C683 C219 2.947 . S
C675 C102 2.990 . S
C707 C3 2.949 . S
C715 C141 2.915 . S
C747 C199 1.789 1_554 S
C739 C15 1.716 . S
C771 C55 1.723 . S
C779 C121 1.789 . S
C803 C95 1.754 . S
C811 C160 1.786 . S
C843 C277 1.077 . S
C835 C42 1.053 . S
C875 C316 1.084 1_556 S
C867 C82 1.047 . S
C899 C2 1.088 . S
C907 C238 1.078 . S
