# Generated by pormake.
# Topology csq, (4,8)-cn, num edge types: 1
# Building blocks:
#     Node 0, Type 0, BuildingBlock: GIZVER_clean_linker_0, # of connection points: 4
#     Node 1, Type 0, BuildingBlock: GIZVER_clean_linker_0, # of connection points: 4
#     Node 2, Type 0, BuildingBlock: GIZVER_clean_linker_0, # of connection points: 4
#     Node 3, Type 0, BuildingBlock: GIZVER_clean_linker_0, # of connection points: 4
#     Node 4, Type 0, BuildingBlock: GIZVER_clean_linker_0, # of connection points: 4
#     Node 5, Type 0, BuildingBlock: GIZVER_clean_linker_0, # of connection points: 4
#     Node 6, Type 1, BuildingBlock: TAGTUT_clean_sbu_3, # of connection points: 8
#     Node 7, Type 1, BuildingBlock: TAGTUT_clean_sbu_3, # of connection points: 8
#     Node 8, Type 1, BuildingBlock: TAGTUT_clean_sbu_3, # of connection points: 8
#     Edge 9, Type (0, 1), BuildingBlock: XIVTED_clean_linker_0, # of connection points: 2
#     Edge 10, Type (0, 1), BuildingBlock: XIVTED_clean_linker_0, # of connection points: 2
#     Edge 11, Type (0, 1), BuildingBlock: XIVTED_clean_linker_0, # of connection points: 2
#     Edge 12, Type (0, 1), BuildingBlock: XIVTED_clean_linker_0, # of connection points: 2
#     Edge 13, Type (0, 1), BuildingBlock: XIVTED_clean_linker_0, # of connection points: 2
#     Edge 14, Type (0, 1), BuildingBlock: XIVTED_clean_linker_0, # of connection points: 2
#     Edge 15, Type (0, 1), BuildingBlock: XIVTED_clean_linker_0, # of connection points: 2
#     Edge 16, Type (0, 1), BuildingBlock: XIVTED_clean_linker_0, # of connection points: 2
#     Edge 17, Type (0, 1), BuildingBlock: XIVTED_clean_linker_0, # of connection points: 2
#     Edge 18, Type (0, 1), BuildingBlock: XIVTED_clean_linker_0, # of connection points: 2
#     Edge 19, Type (0, 1), BuildingBlock: XIVTED_clean_linker_0, # of connection points: 2
#     Edge 20, Type (0, 1), BuildingBlock: XIVTED_clean_linker_0, # of connection points: 2
#     Edge 21, Type (0, 1), BuildingBlock: XIVTED_clean_linker_0, # of connection points: 2
#     Edge 22, Type (0, 1), BuildingBlock: XIVTED_clean_linker_0, # of connection points: 2
#     Edge 23, Type (0, 1), BuildingBlock: XIVTED_clean_linker_0, # of connection points: 2
#     Edge 24, Type (0, 1), BuildingBlock: XIVTED_clean_linker_0, # of connection points: 2
#     Edge 25, Type (0, 1), BuildingBlock: XIVTED_clean_linker_0, # of connection points: 2
#     Edge 26, Type (0, 1), BuildingBlock: XIVTED_clean_linker_0, # of connection points: 2
#     Edge 27, Type (0, 1), BuildingBlock: XIVTED_clean_linker_0, # of connection points: 2
#     Edge 28, Type (0, 1), BuildingBlock: XIVTED_clean_linker_0, # of connection points: 2
#     Edge 29, Type (0, 1), BuildingBlock: XIVTED_clean_linker_0, # of connection points: 2
#     Edge 30, Type (0, 1), BuildingBlock: XIVTED_clean_linker_0, # of connection points: 2
#     Edge 31, Type (0, 1), BuildingBlock: XIVTED_clean_linker_0, # of connection points: 2
#     Edge 32, Type (0, 1), BuildingBlock: XIVTED_clean_linker_0, # of connection points: 2
# Relax obj value: 0.038
# Max RMSD: 0.114
# Mean RMSD: 0.081
data_MOF--net-csq--node1-TAGTUT_clean_sbu_3--node2-GIZVER_clean_linker_0--edge1-XIVTED_clean_linker_0
_symmetry_space_group_name_H-M    P1
_symmetry_Int_Tables_number       1
_symmetry_cell_setting            triclinic
loop_
_symmetry_equiv_pos_as_xyz
'x, y, z'
_cell_length_a     54.959146
_cell_length_b     54.339894
_cell_length_c     18.418574
_cell_angle_alpha  92.146374
_cell_angle_beta   92.618548
_cell_angle_gamma 119.78474
loop_
_atom_site_label
_atom_site_type_symbol
_atom_site_fract_x
_atom_site_fract_y
_atom_site_fract_z
_atom_type_partial_charge
H0 H 0.22499 0.50543 0.03166 0.0
H1 H 0.23861 0.54273 0.25123 0.0
H2 H 0.15539 0.48164 0.16517 0.0
H3 H 0.2689 0.55278 0.07654 0.0
H4 H 0.27669 0.56165 0.17254 0.0
H5 H 0.28625 0.52515 0.01912 0.0
H6 H 0.31805 0.48159 0.14723 0.0
H7 H 0.28122 0.52565 0.25249 0.0
C8 C 0.21684 0.50683 0.08319 0.0
C9 C 0.18783 0.49057 0.09154 0.0
C10 C 0.23537 0.52549 0.14086 0.0
C11 C 0.22467 0.52799 0.20708 0.0
C12 C 0.19586 0.5116 0.21587 0.0
C13 C 0.1778 0.49297 0.15856 0.0
C14 C 0.26629 0.54355 0.13048 0.0
C15 C 0.28052 0.52597 0.1348 0.0
C16 C 0.28915 0.51806 0.07137 0.0
C17 C 0.3024 0.50174 0.076 0.0
C18 C 0.30651 0.49299 0.14345 0.0
C19 C 0.29942 0.50184 0.20723 0.0
C20 C 0.28627 0.51827 0.203 0.0
H21 H 0.81551 0.28017 -0.00343 0.0
H22 H 0.81398 0.2655 0.2244 0.0
H23 H 0.83205 0.34719 0.15736 0.0
H24 H 0.80952 0.23579 0.03468 0.0
H25 H 0.81301 0.23098 0.12945 0.0
H26 H 0.76343 0.2224 0.97428 0.0
H27 H 0.6904 0.17376 0.09092 0.0
H28 H 0.77222 0.21233 0.20365 0.0
C29 C 0.81684 0.28783 0.05252 0.0
C30 C 0.82523 0.31654 0.06972 0.0
C31 C 0.81165 0.26906 0.10802 0.0
C32 C 0.81603 0.27936 0.18142 0.0
C33 C 0.82377 0.30771 0.19927 0.0
C34 C 0.82648 0.32543 0.14309 0.0
C35 C 0.80281 0.23842 0.08915 0.0
C36 C 0.77134 0.22048 0.08963 0.0
C37 C 0.75406 0.2148 0.02514 0.0
C38 C 0.72473 0.19819 0.02579 0.0
C39 C 0.71291 0.18805 0.09139 0.0
C40 C 0.72976 0.19258 0.15528 0.0
C41 C 0.75904 0.20904 0.15452 0.0
H42 H 0.58405 0.82369 0.95007 0.0
H43 H 0.56759 0.79883 0.17032 0.0
H44 H 0.54554 0.85843 0.08648 0.0
H45 H 0.60501 0.79782 0.00688 0.0
H46 H 0.60134 0.79081 0.10114 0.0
H47 H 0.56866 0.76557 0.91295 0.0
H48 H 0.5072 0.6831 0.97255 0.0
H49 H 0.56226 0.74712 0.13875 0.0
C50 C 0.57559 0.8247 0.0014 0.0
C51 C 0.56456 0.84286 0.01165 0.0
C52 C 0.57678 0.80877 0.05875 0.0
C53 C 0.56641 0.81078 0.12579 0.0
C54 C 0.55463 0.82825 0.13551 0.0
C55 C 0.55376 0.84413 0.07827 0.0
C56 C 0.58963 0.79012 0.04947 0.0
C57 C 0.56684 0.76 0.02855 0.0
C58 C 0.5582 0.75113 0.95472 0.0
C59 C 0.53684 0.72332 0.93459 0.0
C60 C 0.52366 0.70462 -0.01116 0.0
C61 C 0.53322 0.71232 0.06265 0.0
C62 C 0.55442 0.74053 0.08231 0.0
H63 H 0.74748 0.54429 0.92737 0.0
H64 H 0.77018 0.58768 0.14142 0.0
H65 H 0.68359 0.53888 0.0625 0.0
H66 H 0.79585 0.59281 0.97035 0.0
H67 H 0.80663 0.59504 0.06413 0.0
H68 H 0.79665 0.55845 0.88408 0.0
H69 H 0.82624 0.50373 0.96118 0.0
H70 H 0.81655 0.5597 0.11238 0.0
C71 C 0.7414 0.54861 0.97931 0.0
C72 C 0.71288 0.5386 -0.01104 0.0
C73 C 0.76228 0.56592 0.03436 0.0
C74 C 0.75431 0.5731 0.10015 0.0
C75 C 0.7258 0.56294 0.11023 0.0
C76 C 0.70538 0.54524 0.05545 0.0
C77 C 0.79283 0.57991 0.01814 0.0
C78 C 0.80184 0.5583 0.00134 0.0
C79 C 0.80211 0.54923 0.9287 0.0
C80 C 0.81183 0.53013 0.91375 0.0
C81 C 0.81905 0.51871 0.9722 0.0
C82 C 0.82399 0.53151 0.04273 0.0
C83 C 0.81346 0.54985 0.058 0.0
H84 H 0.27017 0.7916 0.95791 0.0
H85 H 0.30496 0.78536 0.16685 0.0
H86 H 0.33654 0.86637 0.07674 0.0
H87 H 0.26741 0.74525 -0.00125 0.0
H88 H 0.27564 0.74304 0.09214 0.0
H89 H 0.22442 0.74402 0.95967 0.0
H90 H 0.15798 0.70832 0.10531 0.0
H91 H 0.24348 0.74047 0.18657 0.0
C92 C 0.28441 0.8016 0.0061 0.0
C93 C 0.30254 0.83119 0.01196 0.0
C94 C 0.28499 0.78494 0.06248 0.0
C95 C 0.30406 0.79804 0.12386 0.0
C96 C 0.32293 0.82728 0.12814 0.0
C97 C 0.32179 0.84367 0.0729 0.0
C98 C 0.26704 0.75308 0.05518 0.0
C99 C 0.23714 0.74363 0.07135 0.0
C100 C 0.21737 0.7389 0.01387 0.0
C101 C 0.18857 0.72559 0.02469 0.0
C102 C 0.18013 0.71967 0.09597 0.0
C103 C 0.19975 0.72537 0.15488 0.0
C104 C 0.22831 0.73717 0.14213 0.0
H105 H 0.53261 0.29942 0.05639 0.0
H106 H 0.50676 0.28677 0.27519 0.0
H107 H 0.47138 0.32093 0.12315 0.0
H108 H 0.55974 0.29057 0.14982 0.0
H109 H 0.55349 0.29334 0.24356 0.0
H110 H 0.52301 0.24512 0.07325 0.0
H111 H 0.49746 0.16951 0.18757 0.0
H112 H 0.53425 0.25053 0.30765 0.0
C113 C 0.51936 0.30003 0.09743 0.0
C114 C 0.50036 0.30957 0.08039 0.0
C115 C 0.52157 0.29168 0.16791 0.0
C116 C 0.50475 0.29303 0.22106 0.0
C117 C 0.48678 0.30391 0.20619 0.0
C118 C 0.48424 0.3114 0.13506 0.0
C119 C 0.54305 0.28312 0.18894 0.0
C120 C 0.52924 0.25127 0.19028 0.0
C121 C 0.52019 0.23478 0.12389 0.0
C122 C 0.50865 0.20528 0.12232 0.0
C123 C 0.50515 0.19218 0.18823 0.0
C124 C 0.5142 0.20819 0.25514 0.0
C125 C 0.52644 0.23791 0.2562 0.0
C126 C 0.04785 0.49665 0.52598 0.0
C127 C 0.03062 0.4588 0.78333 0.0
C128 C 0.94923 0.45444 0.74625 0.0
Mg129 Mg 0.02165 0.53056 0.43915 0.0
Mg130 Mg 0.01019 0.57568 0.53472 0.0
O131 O 1.00143 0.53782 0.51712 0.0
Mg132 Mg 0.00886 0.51912 0.59848 0.0
O133 O 0.01698 0.49867 0.67524 0.0
Mg134 Mg 0.99647 0.45881 0.62784 0.0
Mg135 Mg 0.00984 0.50285 0.77173 0.0
C136 C 0.97088 0.54573 0.66167 0.0
O137 O 0.04006 0.561 0.66268 0.0
O138 O 0.99763 0.5459 0.3626 0.0
O139 O 0.03124 0.54928 0.77899 0.0
O140 O 0.06003 0.57595 0.45264 0.0
O141 O 0.98999 0.5757 0.43379 0.0
O142 O 0.05466 0.60493 0.53054 0.0
O143 O 0.97729 0.4759 0.54393 0.0
O144 O 0.98338 0.48524 0.42751 0.0
C145 C 0.97076 0.46811 0.47642 0.0
C146 C 0.98682 0.56195 0.37285 0.0
O147 O 0.97483 0.52423 0.65657 0.0
O148 O 0.0198 0.44826 0.71854 0.0
O149 O 0.98533 0.56842 0.62834 0.0
O150 O 0.95783 0.44443 0.69597 0.0
O151 O 0.02908 0.47947 0.81452 0.0
O152 O 0.96535 0.47874 0.77922 0.0
O153 O 0.04165 0.51642 0.53127 0.0
O154 O 0.03435 0.47385 0.55896 0.0
C155 C 0.06963 0.60009 0.48762 0.0
C156 C 0.04271 0.56771 0.73142 0.0
C157 C 0.51013 0.04932 0.49189 0.0
C158 C 0.59077 0.03238 0.41185 0.0
C159 C 0.53891 0.9477 0.49136 0.0
Mg160 Mg 0.46673 0.01946 0.6191 0.0
Mg161 Mg 0.48821 1.00107 0.76712 0.0
O162 O 0.48333 0.99762 0.66583 0.0
Mg163 Mg 0.51572 0.00757 0.60521 0.0
O164 O 0.5459 0.017 0.53772 0.0
Mg165 Mg 0.52235 0.99786 0.44496 0.0
Mg166 Mg 0.57348 0.00729 0.56183 0.0
C167 C 0.5222 0.9691 0.73052 0.0
O168 O 0.5511 0.03984 0.6893 0.0
O169 O 0.42799 0.9935 0.68683 0.0
O170 O 0.58556 0.02976 0.6683 0.0
O171 O 0.48675 0.05586 0.70893 0.0
O172 O 0.44419 0.98082 0.78505 0.0
O173 O 0.50707 0.04506 0.80028 0.0
O174 O 0.4843 0.97663 0.51536 0.0
O175 O 0.44806 0.98341 0.53095 0.0
C176 C 0.45906 0.97059 0.49829 0.0
C177 C 0.42417 0.98067 0.7461 0.0
O178 O 0.52261 0.97379 0.66242 0.0
O179 O 0.56468 0.02234 0.39081 0.0
O180 O 0.51231 0.97934 0.77727 0.0
O181 O 0.52723 0.95836 0.452 0.0
O182 O 0.59874 0.02837 0.47456 0.0
O183 O 0.5567 0.96221 0.54448 0.0
O184 O 0.50739 0.04131 0.55695 0.0
O185 O 0.51679 0.03705 0.44231 0.0
C186 C 0.5014 0.06245 0.76972 0.0
C187 C 0.57575 0.04318 0.7045 0.0
C188 C 0.51407 0.56115 0.68753 0.0
C189 C 0.43812 0.47226 0.80566 0.0
C190 C 0.48288 0.43065 0.72378 0.0
Mg191 Mg 0.54869 0.56503 0.54557 0.0
Mg192 Mg 0.51714 0.51672 0.40844 0.0
O193 O 0.52881 0.52395 0.5077 0.0
Mg194 Mg 0.50111 0.50627 0.58338 0.0
O195 O 0.47563 0.49055 0.66347 0.0
Mg196 Mg 0.50353 0.50107 0.74868 0.0
Mg197 Mg 0.44659 0.4524 0.6529 0.0
C198 C 0.48545 0.45381 0.46484 0.0
O199 O 0.46199 0.49891 0.51406 0.0
O200 O 0.58194 0.57201 0.46241 0.0
O201 O 0.42841 0.4565 0.54913 0.0
O202 O 0.52517 0.57784 0.46169 0.0
O203 O 0.55928 0.53758 0.37176 0.0
O204 O 0.4985 0.5421 0.37961 0.0
O205 O 0.53672 0.51112 0.66259 0.0
O206 O 0.57136 0.55187 0.62821 0.0
C207 C 0.56257 0.53059 0.66752 0.0
C208 C 0.58162 0.55913 0.40202 0.0
O209 O 0.4904 0.46274 0.53246 0.0
O210 O 0.46483 0.48915 0.81772 0.0
O211 O 0.49171 0.47047 0.41229 0.0
O212 O 0.49723 0.45589 0.75342 0.0
O213 O 0.42715 0.45599 0.74732 0.0
O214 O 0.46271 0.42396 0.67567 0.0
O215 O 0.51279 0.5511 0.623 0.0
O216 O 0.51001 0.54598 0.742 0.0
C217 C 0.50736 0.56738 0.40633 0.0
C218 C 0.43665 0.47771 0.50885 0.0
H219 H 0.1908 0.55701 0.2616 0.0
H220 H 0.06821 0.46016 0.51208 0.0
H221 H 0.16987 0.47246 0.31388 0.0
H222 H 0.08407 0.54266 0.45234 0.0
H223 H 0.10944 0.46733 0.45211 0.0
H224 H 0.15713 0.55587 0.34667 0.0
C225 C 0.17986 0.53867 0.2932 0.0
C226 C 0.18312 0.51486 0.28157 0.0
C227 C 0.10401 0.48395 0.45207 0.0
C228 C 0.14412 0.51294 0.37644 0.0
C229 C 0.08028 0.47981 0.48606 0.0
C230 C 0.07241 0.50075 0.48674 0.0
C231 C 0.12011 0.50919 0.41794 0.0
C232 C 0.08919 0.52586 0.45262 0.0
C233 C 0.16039 0.53783 0.34084 0.0
C234 C 0.16803 0.49128 0.32208 0.0
N235 N 0.1122 0.52934 0.41926 0.0
N236 N 0.14897 0.4908 0.36713 0.0
H237 H 0.74247 0.15645 0.22479 0.0
H238 H 0.58404 0.06425 0.31063 0.0
H239 H 0.68454 0.18827 0.22076 0.0
H240 H 0.6472 0.05055 0.41935 0.0
H241 H 0.62123 0.10668 0.26188 0.0
H242 H 0.70937 0.11626 0.2911 0.0
C243 C 0.72331 0.15558 0.24045 0.0
C244 C 0.716 0.17547 0.21683 0.0
C245 C 0.62692 0.09428 0.29614 0.0
C246 C 0.67783 0.12922 0.28895 0.0
C247 C 0.6057 0.06976 0.32291 0.0
C248 C 0.61253 0.05385 0.36923 0.0
C249 C 0.65516 0.10274 0.31488 0.0
C250 C 0.64105 0.0623 0.38396 0.0
C251 C 0.70429 0.13245 0.27719 0.0
C252 C 0.69075 0.17317 0.23749 0.0
N253 N 0.66141 0.08624 0.35683 0.0
N254 N 0.67224 0.15005 0.27087 0.0
H255 H 0.519 0.65643 0.03894 0.0
H256 H 0.52105 0.62226 0.44657 0.0
H257 H 0.52593 0.7167 0.21019 0.0
H258 H 0.48041 0.55721 0.27038 0.0
H259 H 0.52162 0.65718 0.36543 0.0
H260 H 0.50443 0.62025 0.12518 0.0
C261 C 0.51686 0.6621 0.09428 0.0
C262 C 0.52332 0.6899 0.11637 0.0
C263 C 0.51204 0.63515 0.34513 0.0
C264 C 0.50764 0.64808 0.21733 0.0
C265 C 0.51165 0.61514 0.39139 0.0
C266 C 0.50117 0.58678 0.36491 0.0
C267 C 0.50224 0.62679 0.27174 0.0
C268 C 0.48906 0.57883 0.29311 0.0
C269 C 0.50868 0.64124 0.14391 0.0
C270 C 0.52138 0.69575 0.19034 0.0
N271 N 0.49046 0.59883 0.24871 0.0
N272 N 0.51402 0.6751 0.23837 0.0
H273 H 0.87093 0.53 0.00439 0.0
H274 H 0.95297 0.58505 0.3872 0.0
H275 H 0.82976 0.5358 0.19395 0.0
H276 H 0.97109 0.53449 0.23588 0.0
H277 H 0.91168 0.57452 0.30886 0.0
H278 H 0.91025 0.53648 0.08271 0.0
C279 C 0.8695 0.5317 0.06257 0.0
C280 C 0.84628 0.53171 0.09229 0.0
C281 C 0.92478 0.56584 0.2929 0.0
C282 C 0.89282 0.5411 0.182 0.0
C283 C 0.94862 0.57212 0.33692 0.0
C284 C 0.96555 0.56049 0.31831 0.0
C285 C 0.91809 0.54831 0.2291 0.0
C286 C 0.95868 0.54388 0.25242 0.0
C287 C 0.89241 0.53588 0.10714 0.0
C288 C 0.84705 0.53574 0.16828 0.0
N289 N 0.93539 0.53828 0.20999 0.0
N290 N 0.87016 0.54065 0.2106 0.0
H291 H 0.31481 0.8279 0.27281 0.0
H292 H 0.47426 0.94656 0.38799 0.0
H293 H 0.37948 0.85885 0.12116 0.0
H294 H 0.40232 0.93839 0.49373 0.0
H295 H 0.44232 0.90567 0.30358 0.0
H296 H 0.35 0.85897 0.37026 0.0
C297 C 0.33656 0.84077 0.26066 0.0
C298 C 0.34439 0.84128 0.18932 0.0
C299 C 0.4337 0.91285 0.34571 0.0
C300 C 0.3844 0.87669 0.29916 0.0
C301 C 0.45184 0.93612 0.39356 0.0
C302 C 0.44083 0.94612 0.44687 0.0
C303 C 0.40458 0.89935 0.35259 0.0
C304 C 0.41165 0.93174 0.45238 0.0
C305 C 0.35654 0.85856 0.31584 0.0
C306 C 0.37275 0.85829 0.17572 0.0
N307 N 0.39455 0.9091 0.40579 0.0
N308 N 0.39178 0.8756 0.23014 0.0
H309 H 0.50975 0.32374 0.34636 0.0
H310 H 0.45146 0.42311 0.34505 0.0
H311 H 0.43655 0.30414 0.20487 0.0
H312 H 0.49214 0.41516 0.54145 0.0
H313 H 0.43963 0.37519 0.30203 0.0
H314 H 0.49757 0.35056 0.43002 0.0
C315 C 0.49054 0.32415 0.33361 0.0
C316 C 0.47475 0.3124 0.26657 0.0
C317 C 0.4505 0.38357 0.3554 0.0
C318 C 0.46141 0.34434 0.36176 0.0
C319 C 0.45748 0.41101 0.3796 0.0
C320 C 0.47347 0.42327 0.44579 0.0
C321 C 0.46038 0.3687 0.3967 0.0
C322 C 0.4802 0.40656 0.4894 0.0
C323 C 0.48368 0.33975 0.3817 0.0
C324 C 0.45014 0.31395 0.25413 0.0
N325 N 0.47433 0.38034 0.4631 0.0
N326 N 0.44472 0.33049 0.30006 0.0
H327 H 0.59247 0.90015 0.02735 0.0
H328 H 0.52076 0.92169 0.66516 0.0
H329 H 0.53936 0.83014 0.87208 0.0
H330 H 0.55131 0.97809 0.86 0.0
H331 H 0.5368 0.89139 0.72293 0.0
H332 H 0.58802 0.93266 0.94729 0.0
C333 C 0.58022 0.89176 0.97556 0.0
C334 C 0.56599 0.86251 0.95642 0.0
C335 C 0.54021 0.91059 0.75238 0.0
C336 C 0.56027 0.89946 0.86497 0.0
C337 C 0.53119 0.92788 0.71949 0.0
C338 C 0.53435 0.95212 0.75851 0.0
C339 C 0.55295 0.91814 0.82381 0.0
C340 C 0.54802 0.95931 0.82854 0.0
C341 C 0.57757 0.91025 0.93 0.0
C342 C 0.55055 0.85263 0.88858 0.0
N343 N 0.5567 0.9424 0.85885 0.0
N344 N 0.5477 0.87106 0.84548 0.0
H345 H 0.71894 0.55559 0.85006 0.0
H346 H 0.5541 0.49151 0.76892 0.0
H347 H 0.65763 0.49572 -0.01449 0.0
H348 H 0.61928 0.5603 0.66107 0.0
H349 H 0.59034 0.48513 0.83431 0.0
H350 H 0.68121 0.54738 0.76143 0.0
C351 C 0.69762 0.53999 0.86028 0.0
C352 C 0.69143 0.52683 0.9263 0.0
C353 C 0.59656 0.50147 0.79592 0.0
C354 C 0.64791 0.51832 0.82615 0.0
C355 C 0.57594 0.50521 0.75899 0.0
C356 C 0.58366 0.52669 0.71021 0.0
C357 C 0.62497 0.5192 0.78328 0.0
C358 C 0.61226 0.54374 0.69895 0.0
C359 C 0.67596 0.53564 0.80997 0.0
C360 C 0.66325 0.50693 0.93619 0.0
N361 N 0.63179 0.53965 0.73526 0.0
N362 N 0.6424 0.50376 0.88745 0.0
H363 H 0.19324 0.70441 0.89111 0.0
H364 H 0.03742 0.59431 0.85279 0.0
H365 H 0.13457 0.71738 0.01267 0.0
H366 H 0.08844 0.60925 0.67034 0.0
H367 H 0.07131 0.64169 0.90672 0.0
H368 H 0.15536 0.67383 0.80205 0.0
C369 C 0.17266 0.7017 0.89842 0.0
C370 C 0.1672 0.71313 0.96132 0.0
C371 C 0.0748 0.63489 0.8541 0.0
C372 C 0.12324 0.67676 0.85983 0.0
C373 C 0.05561 0.60777 0.82367 0.0
C374 C 0.06056 0.59771 0.75797 0.0
C375 C 0.09945 0.65171 0.8195 0.0
C376 C 0.08409 0.61613 0.72163 0.0
C377 C 0.15086 0.68392 0.84724 0.0
C378 C 0.1397 0.70819 0.96689 0.0
N379 N 0.10311 0.64206 0.75384 0.0
N380 N 0.11858 0.68969 0.91799 0.0
H381 H 0.4655 0.15175 0.08094 0.0
H382 H 0.50344 0.11022 0.71834 0.0
H383 H 0.54192 0.21998 0.00697 0.0
H384 H 0.51213 0.07401 0.91609 0.0
H385 H 0.50403 0.14917 0.79296 0.0
H386 H 0.46566 0.11986 -0.01623 0.0
C387 C 0.48189 0.1602 0.04329 0.0
C388 C 0.50408 0.18836 0.05306 0.0
C389 C 0.50619 0.13278 0.8192 0.0
C390 C 0.50383 0.15235 0.94173 0.0
C391 C 0.50597 0.11073 0.77715 0.0
C392 C 0.5076 0.08882 0.81125 0.0
C393 C 0.5073 0.1322 0.89508 0.0
C394 C 0.51086 0.09043 0.88752 0.0
C395 C 0.48189 0.14206 -0.0119 0.0
C396 C 0.52445 0.1984 0.00152 0.0
N397 N 0.51001 0.11147 0.92699 0.0
N398 N 0.52412 0.1802 0.94834 0.0
H399 H 0.34674 0.54245 0.01174 0.0
H400 H 0.38484 0.43136 0.82872 0.0
H401 H 0.29281 0.45173 0.01029 0.0
H402 H 0.44607 0.51938 0.88594 0.0
H403 H 0.34903 0.43865 0.88329 0.0
H404 H 0.3806 0.53496 0.94608 0.0
C405 C 0.34155 0.52098 -0.00521 0.0
C406 C 0.31693 0.49764 0.01548 0.0
C407 C 0.37036 0.4563 0.88465 0.0
C408 C 0.35582 0.48888 0.94344 0.0
C409 C 0.39086 0.45209 0.85419 0.0
C410 C 0.4185 0.47476 0.8533 0.0
C411 C 0.37742 0.48349 0.91349 0.0
C412 C 0.42511 0.50123 0.88641 0.0
C413 C 0.3611 0.51669 0.95881 0.0
C414 C 0.31146 0.47021 -0.00566 0.0
N415 N 0.40461 0.50496 0.91451 0.0
N416 N 0.3309 0.46655 0.95999 0.0
H417 H 0.86667 0.37267 0.09093 0.0
H418 H 0.91122 0.39853 0.70365 0.0
H419 H 0.81124 0.31034 0.91986 0.0
H420 H 0.92432 0.4674 0.85505 0.0
H421 H 0.87312 0.36531 0.77418 0.0
H422 H 0.88722 0.40702 0.00206 0.0
C423 C 0.85798 0.36613 0.03516 0.0
C424 C 0.83646 0.3382 0.01408 0.0
C425 C 0.88385 0.38781 0.79055 0.0
C426 C 0.86186 0.37799 0.90999 0.0
C427 C 0.90566 0.40682 0.75052 0.0
C428 C 0.92165 0.43571 0.7749 0.0
C429 C 0.87839 0.39782 0.85556 0.0
C430 C 0.91316 0.44524 0.8353 0.0
C431 C 0.87015 0.38601 -0.01606 0.0
C432 C 0.82787 0.33135 0.93925 0.0
N433 N 0.89258 0.42624 0.87459 0.0
N434 N 0.84099 0.35097 0.88964 0.0
H435 H 0.80827 0.48431 0.83421 0.0
H436 H 0.95945 0.58802 0.69679 0.0
H437 H 0.8464 0.57552 0.83974 0.0
H438 H 0.92515 0.49744 0.70446 0.0
H439 H 0.91557 0.58283 0.7358 0.0
H440 H 0.84656 0.48743 0.76491 0.0
C441 C 0.82401 0.50488 0.81803 0.0
C442 C 0.82445 0.52975 0.84436 0.0
C443 C 0.91758 0.56405 0.72911 0.0
C444 C 0.86863 0.53354 0.76691 0.0
C445 C 0.9428 0.56702 0.70746 0.0
C446 C 0.94615 0.54314 0.69741 0.0
C447 C 0.89532 0.53699 0.74106 0.0
C448 C 0.92368 0.5165 0.71206 0.0
C449 C 0.84615 0.50669 0.77968 0.0
C450 C 0.84523 0.55578 0.8213 0.0
N451 N 0.89919 0.51414 0.73301 0.0
N452 N 0.86685 0.55706 0.78552 0.0
H453 H 0.29993 0.87984 0.02417 0.0
H454 H 0.382 0.93486 0.667 0.0
H455 H 0.31048 0.82547 0.8679 0.0
H456 H 0.40236 0.98305 0.87371 0.0
H457 H 0.33996 0.89634 0.71603 0.0
H458 H 0.32012 0.91836 0.94205 0.0
C459 C 0.30551 0.87572 0.97123 0.0
C460 C 0.30414 0.84971 0.95323 0.0
C461 C 0.35314 0.91578 0.74963 0.0
C462 C 0.32742 0.89362 0.85976 0.0
C463 C 0.37692 0.93777 0.72167 0.0
C464 C 0.39546 0.96199 0.76671 0.0
C465 C 0.34782 0.91846 0.82248 0.0
C466 C 0.38846 0.96464 0.83751 0.0
C467 C 0.31715 0.89772 0.9247 0.0
C468 C 0.31142 0.84531 0.8839 0.0
N469 N 0.36527 0.94302 0.86346 0.0
N470 N 0.32342 0.86734 0.84014 0.0
H471 H 0.45373 0.29603 -0.00902 0.0
H472 H 0.53178 0.43772 0.78903 0.0
H473 H 0.54385 0.34963 0.0089 0.0
H474 H 0.44576 0.37348 0.72885 0.0
H475 H 0.53762 0.40382 0.86049 0.0
H476 H 0.45094 0.3215 0.88693 0.0
C477 C 0.47299 0.31282 0.97192 0.0
C478 C 0.49905 0.32081 0.00875 0.0
C479 C 0.5176 0.3969 0.83065 0.0
C480 C 0.49601 0.35052 0.89056 0.0
C481 C 0.51424 0.41628 0.78972 0.0
C482 C 0.48814 0.40853 0.75337 0.0
C483 C 0.49454 0.36964 0.83668 0.0
C484 C 0.46624 0.38039 0.75598 0.0
C485 C 0.47139 0.32737 0.91256 0.0
C486 C 0.52335 0.3427 0.98187 0.0
N487 N 0.46976 0.36214 0.79812 0.0
N488 N 0.5212 0.35712 0.92526 0.0
H489 H 0.18844 0.5049 0.94986 0.0
H490 H 0.03363 0.44756 0.92542 0.0
H491 H 0.13921 0.43904 0.09134 0.0
H492 H 0.07144 0.45256 0.72252 0.0
H493 H 0.07206 0.44422 -0.01155 0.0
H494 H 0.1475 0.48584 0.86205 0.0
C495 C 0.1694 0.48586 0.9615 0.0
C496 C 0.16703 0.4741 0.0292 0.0
C497 C 0.07149 0.44521 0.9298 0.0
C498 C 0.12005 0.45296 0.93018 0.0
C499 C 0.04965 0.44717 0.89405 0.0
C500 C 0.04947 0.45023 0.81896 0.0
C501 C 0.09376 0.44755 0.8905 0.0
C502 C 0.07083 0.44996 0.78054 0.0
C503 C 0.14598 0.4751 0.91144 0.0
C504 C 0.14167 0.44944 0.041 0.0
N505 N 0.09267 0.44953 0.8171 0.0
N506 N 0.11884 0.44028 -0.00678 0.0
H507 H 0.67491 0.19624 -0.01141 0.0
H508 H 0.62547 0.05088 0.76368 0.0
H509 H 0.73139 0.16885 0.91372 0.0
H510 H 0.57279 0.08909 0.76311 0.0
H511 H 0.66327 0.09369 0.82733 0.0
H512 H 0.63698 0.15904 0.90644 0.0
C513 C 0.67957 0.18314 0.95255 0.0
C514 C 0.70621 0.1854 0.95823 0.0
C515 C 0.64348 0.0928 0.81334 0.0
C516 C 0.66292 0.14237 0.86689 0.0
C517 C 0.62169 0.06817 0.77773 0.0
C518 C 0.59593 0.06642 0.75724 0.0
C519 C 0.6396 0.11596 0.8297 0.0
C520 C 0.59229 0.08949 0.77787 0.0
C521 C 0.65787 0.16173 0.90651 0.0
C522 C 0.7112 0.16787 0.91095 0.0
N523 N 0.61399 0.11344 0.81293 0.0
N524 N 0.68956 0.14665 0.86848 0.0
H525 H 0.48693 0.69351 0.85205 0.0
H526 H 0.48012 0.57111 0.7689 0.0
H527 H 0.57567 0.72392 0.84736 0.0
H528 H 0.54851 0.61223 0.63037 0.0
H529 H 0.48175 0.61611 0.79455 0.0
H530 H 0.47757 0.65605 0.75856 0.0
C531 C 0.50448 0.69304 0.82893 0.0
C532 C 0.53201 0.71114 0.85879 0.0
C533 C 0.49595 0.61531 0.75689 0.0
C534 C 0.52148 0.6679 0.7552 0.0
C535 C 0.49536 0.58973 0.74341 0.0
C536 C 0.51451 0.58826 0.69853 0.0
C537 C 0.51631 0.63987 0.72665 0.0
C538 C 0.53359 0.61279 0.66586 0.0
C539 C 0.49914 0.6715 0.77639 0.0
C540 C 0.55408 0.70995 0.82654 0.0
N541 N 0.5346 0.63796 0.68233 0.0
N542 N 0.54832 0.68797 0.77793 0.0
H543 H 0.55969 0.21305 0.33281 0.0
H544 H 0.4744 0.06874 0.53163 0.0
H545 H 0.46917 0.16755 0.32018 0.0
H546 H 0.54845 0.09122 0.41654 0.0
H547 H 0.476 0.11289 0.49511 0.0
H548 H 0.55967 0.17712 0.40973 0.0
C549 C 0.53987 0.1962 0.34905 0.0
C550 C 0.51441 0.19325 0.32058 0.0
C551 C 0.49201 0.10816 0.47888 0.0
C552 C 0.51418 0.15196 0.40711 0.0
C553 C 0.49109 0.08309 0.49951 0.0
C554 C 0.51104 0.07621 0.47588 0.0
C555 C 0.5136 0.12671 0.43681 0.0
C556 C 0.53238 0.09552 0.43476 0.0
C557 C 0.53984 0.17554 0.39205 0.0
C558 C 0.48922 0.17058 0.34165 0.0
N559 N 0.53314 0.11987 0.41674 0.0
N560 N 0.48969 0.15056 0.38308 0.0
H561 H 0.33952 0.54326 0.30064 0.0
H562 H 0.38265 0.43565 0.46883 0.0
H563 H 0.28854 0.45227 0.26494 0.0
H564 H 0.44055 0.52488 0.44944 0.0
H565 H 0.34491 0.44151 0.41228 0.0
H566 H 0.37244 0.53711 0.38149 0.0
C567 C 0.33461 0.52197 0.31265 0.0
C568 C 0.31139 0.49821 0.27644 0.0
C569 C 0.36591 0.45976 0.42027 0.0
C570 C 0.34931 0.491 0.36589 0.0
C571 C 0.38753 0.4564 0.45193 0.0
C572 C 0.41488 0.47979 0.46373 0.0
C573 C 0.37158 0.48673 0.40091 0.0
C574 C 0.41988 0.50618 0.44096 0.0
C575 C 0.35368 0.51846 0.35744 0.0
C576 C 0.30622 0.47106 0.29235 0.0
N577 N 0.39839 0.50896 0.41105 0.0
N578 N 0.32532 0.46816 0.33507 0.0
H579 H 0.81166 0.34377 0.27668 0.0
H580 H 0.95437 0.41587 0.52928 0.0
H581 H 0.86256 0.30384 0.28893 0.0
H582 H 0.92941 0.45856 0.37539 0.0
H583 H 0.9117 0.37045 0.48746 0.0
H584 H 0.84461 0.3808 0.36765 0.0
C585 C 0.82908 0.3421 0.30091 0.0
C586 C 0.83489 0.32123 0.27378 0.0
C587 C 0.91557 0.38994 0.46394 0.0
C588 C 0.87239 0.3633 0.37735 0.0
C589 C 0.9398 0.41565 0.48726 0.0
C590 C 0.94549 0.44069 0.45445 0.0
C591 C 0.89664 0.38982 0.40996 0.0
C592 C 0.92599 0.43956 0.40088 0.0
C593 C 0.84791 0.36329 0.35233 0.0
C594 C 0.85753 0.31979 0.30774 0.0
N595 N 0.90238 0.41457 0.3805 0.0
N596 N 0.876 0.34108 0.35664 0.0
H597 H 0.50412 0.82285 0.16414 0.0
H598 H 0.573 0.92508 0.51979 0.0
H599 H 0.58468 0.84401 0.26767 0.0
H600 H 0.49438 0.90595 0.407 0.0
H601 H 0.57104 0.8846 0.4511 0.0
H602 H 0.49379 0.84157 0.27385 0.0
C603 C 0.51933 0.83085 0.21089 0.0
C604 C 0.54543 0.83239 0.20679 0.0
C605 C 0.55388 0.88885 0.44269 0.0
C606 C 0.53421 0.85455 0.33166 0.0
C607 C 0.55492 0.91188 0.48218 0.0
C608 C 0.53424 0.91934 0.46743 0.0
C609 C 0.53202 0.87333 0.38833 0.0
C610 C 0.51118 0.90138 0.41862 0.0
C611 C 0.5135 0.84159 0.27346 0.0
C612 C 0.56437 0.84265 0.26879 0.0
N613 N 0.51096 0.87956 0.37984 0.0
N614 N 0.55867 0.85399 0.32825 0.0
H615 H 0.71839 0.54646 0.25025 0.0
H616 H 0.59109 0.56863 0.25973 0.0
H617 H 0.70914 0.60181 0.10418 0.0
H618 H 0.63187 0.56915 0.46574 0.0
H619 H 0.6336 0.57828 0.20007 0.0
H620 H 0.68762 0.55291 0.33281 0.0
C621 C 0.71084 0.5609 0.23726 0.0
C622 C 0.71634 0.57381 0.17094 0.0
C623 C 0.63343 0.57676 0.25855 0.0
C624 C 0.68044 0.58018 0.26237 0.0
C625 C 0.6092 0.57116 0.29238 0.0
C626 C 0.60818 0.56827 0.36751 0.0
C627 C 0.65643 0.57845 0.29975 0.0
C628 C 0.63208 0.57153 0.40763 0.0
C629 C 0.69316 0.56439 0.28386 0.0
C630 C 0.70548 0.59171 0.15526 0.0
N631 N 0.65514 0.57586 0.37298 0.0
N632 N 0.68749 0.59382 0.1997 0.0
H633 H 0.16461 0.73597 0.23365 0.0
H634 H 0.11406 0.59679 0.43801 0.0
H635 H 0.20989 0.6901 0.23714 0.0
H636 H 0.08657 0.65683 0.48872 0.0
H637 H 0.15286 0.63315 0.37604 0.0
H638 H 0.13939 0.71049 0.33701 0.0
C639 C 0.16968 0.72099 0.25744 0.0
C640 C 0.18924 0.71501 0.22673 0.0
C641 C 0.13877 0.63865 0.4021 0.0
C642 C 0.16002 0.68526 0.34382 0.0
C643 C 0.1166 0.61787 0.43763 0.0
C644 C 0.09686 0.62368 0.46788 0.0
C645 C 0.14087 0.66528 0.39522 0.0
C646 C 0.10127 0.65141 0.46603 0.0
C647 C 0.15529 0.70643 0.31641 0.0
C648 C 0.19504 0.6954 0.25941 0.0
N649 N 0.12242 0.67099 0.42874 0.0
N650 N 0.18009 0.6808 0.31524 0.0
loop_
_geom_bond_atom_site_label_1
_geom_bond_atom_site_label_2
_geom_bond_distance
_geom_bond_site_symmetry_2
_ccdc_geom_bond_type
H0 C8 0.930 . S
H1 C11 0.930 . S
H2 C13 0.930 . S
H3 C14 0.970 . S
H4 C14 0.970 . S
H5 C16 0.930 . S
H6 C18 0.930 . S
H7 C20 0.930 . S
C8 H0 0.930 . S
C8 C9 1.382 . S
C8 C10 1.426 . S
C9 C8 1.382 . S
C9 C13 1.389 . S
C10 C8 1.426 . S
C10 C11 1.375 . S
C10 C14 1.532 . S
C11 H1 0.930 . S
C11 C10 1.375 . S
C11 C12 1.416 . S
C12 C11 1.416 . S
C12 C13 1.371 . S
C13 H2 0.930 . S
C13 C9 1.389 . S
C13 C12 1.371 . S
C14 H3 0.970 . S
C14 H4 0.970 . S
C14 C10 1.532 . S
C14 C15 1.499 . S
C15 C14 1.499 . S
C15 C16 1.370 . S
C15 C20 1.415 . S
C16 H5 0.930 . S
C16 C15 1.370 . S
C16 C17 1.407 . S
C17 C16 1.407 . S
C17 C18 1.365 . S
C18 H6 0.930 . S
C18 C17 1.365 . S
C18 C19 1.393 . S
C19 C18 1.393 . S
C19 C20 1.387 . S
C20 H7 0.930 . S
C20 C15 1.415 . S
C20 C19 1.387 . S
H21 C29 0.930 1_556 S
H22 C32 0.930 . S
H23 C34 0.930 . S
H24 C35 0.970 . S
H25 C35 0.970 . S
H26 C37 0.930 1_556 S
H27 C39 0.930 . S
H28 C41 0.930 . S
C29 H21 0.930 1_554 S
C29 C30 1.382 . S
C29 C31 1.426 . S
C30 C29 1.382 . S
C30 C34 1.389 . S
C31 C29 1.426 . S
C31 C32 1.375 . S
C31 C35 1.532 . S
C32 H22 0.930 . S
C32 C31 1.375 . S
C32 C33 1.416 . S
C33 C32 1.416 . S
C33 C34 1.371 . S
C34 H23 0.930 . S
C34 C30 1.389 . S
C34 C33 1.371 . S
C35 H24 0.970 . S
C35 H25 0.970 . S
C35 C31 1.532 . S
C35 C36 1.499 . S
C36 C35 1.499 . S
C36 C37 1.370 . S
C36 C41 1.415 . S
C37 H26 0.930 1_554 S
C37 C36 1.370 . S
C37 C38 1.407 . S
C38 C37 1.407 . S
C38 C39 1.365 . S
C39 H27 0.930 . S
C39 C38 1.365 . S
C39 C40 1.393 . S
C40 C39 1.393 . S
C40 C41 1.387 . S
C41 H28 0.930 . S
C41 C36 1.415 . S
C41 C40 1.387 . S
H42 C50 0.930 . S
H43 C53 0.930 . S
H44 C55 0.930 . S
H45 C56 0.970 . S
H46 C56 0.970 . S
H47 C58 0.930 . S
H48 C60 0.930 . S
H49 C62 0.930 . S
C50 H42 0.930 . S
C50 C51 1.382 . S
C50 C52 1.426 1_556 S
C51 C50 1.382 . S
C51 C55 1.389 1_556 S
C52 C50 1.426 1_554 S
C52 C53 1.375 . S
C52 C56 1.532 . S
C53 H43 0.930 . S
C53 C52 1.375 . S
C53 C54 1.416 . S
C54 C53 1.416 . S
C54 C55 1.371 . S
C55 H44 0.930 . S
C55 C51 1.389 1_554 S
C55 C54 1.371 . S
C56 H45 0.970 . S
C56 H46 0.970 . S
C56 C52 1.532 . S
C56 C57 1.499 . S
C57 C56 1.499 . S
C57 C58 1.370 1_554 S
C57 C62 1.415 . S
C58 H47 0.930 . S
C58 C57 1.370 1_556 S
C58 C59 1.407 . S
C59 C58 1.407 . S
C59 C60 1.365 1_556 S
C60 H48 0.930 . S
C60 C59 1.365 1_554 S
C60 C61 1.393 . S
C61 C60 1.393 . S
C61 C62 1.387 . S
C62 H49 0.930 . S
C62 C57 1.415 . S
C62 C61 1.387 . S
H63 C71 0.930 . S
H64 C74 0.930 . S
H65 C76 0.930 . S
H66 C77 0.970 1_556 S
H67 C77 0.970 . S
H68 C79 0.930 . S
H69 C81 0.930 . S
H70 C83 0.930 . S
C71 H63 0.930 . S
C71 C72 1.382 . S
C71 C73 1.426 1_556 S
C72 C71 1.382 . S
C72 C76 1.389 1_556 S
C73 C71 1.426 1_554 S
C73 C74 1.375 . S
C73 C77 1.532 . S
C74 H64 0.930 . S
C74 C73 1.375 . S
C74 C75 1.416 . S
C75 C74 1.416 . S
C75 C76 1.371 . S
C76 H65 0.930 . S
C76 C72 1.389 1_554 S
C76 C75 1.371 . S
C77 H66 0.970 1_554 S
C77 H67 0.970 . S
C77 C73 1.532 . S
C77 C78 1.499 . S
C78 C77 1.499 . S
C78 C79 1.370 1_554 S
C78 C83 1.415 . S
C79 H68 0.930 . S
C79 C78 1.370 1_556 S
C79 C80 1.407 . S
C80 C79 1.407 . S
C80 C81 1.365 1_556 S
C81 H69 0.930 . S
C81 C80 1.365 1_554 S
C81 C82 1.393 . S
C82 C81 1.393 . S
C82 C83 1.387 . S
C83 H70 0.930 . S
C83 C78 1.415 . S
C83 C82 1.387 . S
H84 C92 0.930 . S
H85 C95 0.930 . S
H86 C97 0.930 . S
H87 C98 0.970 . S
H88 C98 0.970 . S
H89 C100 0.930 . S
H90 C102 0.930 . S
H91 C104 0.930 . S
C92 H84 0.930 . S
C92 C93 1.382 . S
C92 C94 1.426 . S
C93 C92 1.382 . S
C93 C97 1.389 . S
C94 C92 1.426 . S
C94 C95 1.375 . S
C94 C98 1.532 . S
C95 H85 0.930 . S
C95 C94 1.375 . S
C95 C96 1.416 . S
C96 C95 1.416 . S
C96 C97 1.371 . S
C97 H86 0.930 . S
C97 C93 1.389 . S
C97 C96 1.371 . S
C98 H87 0.970 . S
C98 H88 0.970 . S
C98 C94 1.532 . S
C98 C99 1.499 . S
C99 C98 1.499 . S
C99 C100 1.370 . S
C99 C104 1.415 . S
C100 H89 0.930 . S
C100 C99 1.370 . S
C100 C101 1.407 . S
C101 C100 1.407 . S
C101 C102 1.365 . S
C102 H90 0.930 . S
C102 C101 1.365 . S
C102 C103 1.393 . S
C103 C102 1.393 . S
C103 C104 1.387 . S
C104 H91 0.930 . S
C104 C99 1.415 . S
C104 C103 1.387 . S
H105 C113 0.930 . S
H106 C116 0.930 . S
H107 C118 0.930 . S
H108 C119 0.970 . S
H109 C119 0.970 . S
H110 C121 0.930 . S
H111 C123 0.930 . S
H112 C125 0.930 . S
C113 H105 0.930 . S
C113 C114 1.382 . S
C113 C115 1.426 . S
C114 C113 1.382 . S
C114 C118 1.389 . S
C115 C113 1.426 . S
C115 C116 1.375 . S
C115 C119 1.532 . S
C116 H106 0.930 . S
C116 C115 1.375 . S
C116 C117 1.416 . S
C117 C116 1.416 . S
C117 C118 1.371 . S
C118 H107 0.930 . S
C118 C114 1.389 . S
C118 C117 1.371 . S
C119 H108 0.970 . S
C119 H109 0.970 . S
C119 C115 1.532 . S
C119 C120 1.499 . S
C120 C119 1.499 . S
C120 C121 1.370 . S
C120 C125 1.415 . S
C121 H110 0.930 . S
C121 C120 1.370 . S
C121 C122 1.407 . S
C122 C121 1.407 . S
C122 C123 1.365 . S
C123 H111 0.930 . S
C123 C122 1.365 . S
C123 C124 1.393 . S
C124 C123 1.393 . S
C124 C125 1.387 . S
C125 H112 0.930 . S
C125 C120 1.415 . S
C125 C124 1.387 . S
C126 O153 1.312 . S
C126 O154 1.208 . S
C127 O148 1.331 . S
C127 O151 1.244 . S
C128 O150 1.264 . S
C128 O152 1.273 . S
Mg129 O131 1.936 1_455 S
Mg129 O138 2.081 1_455 S
Mg129 O140 2.023 . S
Mg129 O144 2.031 1_455 S
Mg129 O153 2.291 . S
Mg130 O131 1.963 . S
Mg130 O141 1.942 . S
Mg130 O142 1.955 1_655 S
Mg130 O149 1.986 . S
O131 Mg129 1.936 1_655 S
O131 Mg130 1.963 . S
O131 Mg132 1.915 1_655 S
Mg132 O131 1.915 1_455 S
Mg132 O133 1.915 . S
Mg132 O137 2.013 . S
Mg132 O143 2.114 1_455 S
Mg132 O147 2.013 1_455 S
Mg132 O153 2.114 . S
O133 Mg132 1.915 . S
O133 Mg134 1.936 . S
O133 Mg135 1.963 . S
Mg134 O133 1.936 . S
Mg134 O143 2.291 1_455 S
Mg134 O148 2.081 . S
Mg134 O150 2.023 1_455 S
Mg134 O154 2.031 . S
Mg135 O133 1.963 . S
Mg135 O139 1.986 . S
Mg135 O151 1.942 . S
Mg135 O152 1.955 1_455 S
C136 O147 1.191 . S
C136 O149 1.307 . S
O137 Mg132 2.013 . S
O137 C156 1.191 . S
O138 Mg129 2.081 1_655 S
O138 C146 1.331 . S
O139 Mg135 1.986 . S
O139 C156 1.307 . S
O140 Mg129 2.023 . S
O140 C155 1.264 . S
O141 Mg130 1.942 . S
O141 C146 1.244 . S
O142 Mg130 1.955 1_455 S
O142 C155 1.273 . S
O143 Mg132 2.114 1_655 S
O143 Mg134 2.291 1_655 S
O143 C145 1.312 . S
O144 Mg129 2.031 1_655 S
O144 C145 1.208 . S
C145 O143 1.312 . S
C145 O144 1.208 . S
C146 O138 1.331 . S
C146 O141 1.244 . S
O147 Mg132 2.013 1_655 S
O147 C136 1.191 . S
O148 C127 1.331 . S
O148 Mg134 2.081 . S
O149 Mg130 1.986 . S
O149 C136 1.307 . S
O150 C128 1.264 . S
O150 Mg134 2.023 1_655 S
O151 C127 1.244 . S
O151 Mg135 1.942 . S
O152 C128 1.273 . S
O152 Mg135 1.955 1_655 S
O153 C126 1.312 . S
O153 Mg129 2.291 . S
O153 Mg132 2.114 . S
O154 C126 1.208 . S
O154 Mg134 2.031 . S
C155 O140 1.264 . S
C155 O142 1.273 . S
C156 O137 1.191 . S
C156 O139 1.307 . S
C157 O184 1.312 . S
C157 O185 1.208 . S
C158 O179 1.331 . S
C158 O182 1.244 . S
C159 O181 1.264 . S
C159 O183 1.273 . S
Mg160 O162 1.965 . S
Mg160 O169 2.081 1_545 S
Mg160 O171 2.023 . S
Mg160 O175 2.031 1_545 S
Mg160 O184 2.291 . S
Mg161 O162 1.957 . S
Mg161 O172 1.942 1_545 S
Mg161 O173 1.955 . S
Mg161 O180 1.986 1_545 S
O162 Mg160 1.965 . S
O162 Mg161 1.957 . S
O162 Mg163 1.913 . S
Mg163 O162 1.913 . S
Mg163 O164 1.915 . S
Mg163 O168 2.013 . S
Mg163 O174 2.114 1_545 S
Mg163 O178 2.013 1_545 S
Mg163 O184 2.114 . S
O164 Mg163 1.915 . S
O164 Mg165 1.936 . S
O164 Mg166 1.963 . S
Mg165 O164 1.936 . S
Mg165 O174 2.291 1_545 S
Mg165 O179 2.081 . S
Mg165 O181 2.023 1_545 S
Mg165 O185 2.031 . S
Mg166 O164 1.963 . S
Mg166 O170 1.986 . S
Mg166 O182 1.942 . S
Mg166 O183 1.955 1_545 S
C167 O178 1.191 . S
C167 O180 1.307 . S
O168 Mg163 2.013 . S
O168 C187 1.191 . S
O169 Mg160 2.081 1_565 S
O169 C177 1.331 . S
O170 Mg166 1.986 . S
O170 C187 1.307 . S
O171 Mg160 2.023 . S
O171 C186 1.264 . S
O172 Mg161 1.942 1_565 S
O172 C177 1.244 . S
O173 Mg161 1.955 . S
O173 C186 1.273 . S
O174 Mg163 2.114 1_565 S
O174 Mg165 2.291 1_565 S
O174 C176 1.312 . S
O175 Mg160 2.031 1_565 S
O175 C176 1.208 . S
C176 O174 1.312 . S
C176 O175 1.208 . S
C177 O169 1.331 . S
C177 O172 1.244 . S
O178 Mg163 2.013 1_565 S
O178 C167 1.191 . S
O179 C158 1.331 . S
O179 Mg165 2.081 . S
O180 Mg161 1.986 1_565 S
O180 C167 1.307 . S
O181 C159 1.264 . S
O181 Mg165 2.023 1_565 S
O182 C158 1.244 . S
O182 Mg166 1.942 . S
O183 C159 1.273 . S
O183 Mg166 1.955 1_565 S
O184 C157 1.312 . S
O184 Mg160 2.291 . S
O184 Mg163 2.114 . S
O185 C157 1.208 . S
O185 Mg165 2.031 . S
C186 O171 1.264 . S
C186 O173 1.273 . S
C187 O168 1.191 . S
C187 O170 1.307 . S
C188 O215 1.312 . S
C188 O216 1.208 . S
C189 O210 1.331 . S
C189 O213 1.244 . S
C190 O212 1.264 . S
C190 O214 1.273 . S
Mg191 O193 1.936 . S
Mg191 O200 2.081 . S
Mg191 O202 2.023 . S
Mg191 O206 2.031 . S
Mg191 O215 2.291 . S
Mg192 O193 1.963 . S
Mg192 O203 1.942 . S
Mg192 O204 1.955 . S
Mg192 O211 1.986 . S
O193 Mg191 1.936 . S
O193 Mg192 1.963 . S
O193 Mg194 1.915 . S
Mg194 O193 1.915 . S
Mg194 O195 1.915 . S
Mg194 O199 2.013 . S
Mg194 O205 2.114 . S
Mg194 O209 2.013 . S
Mg194 O215 2.114 . S
O195 Mg194 1.915 . S
O195 Mg196 1.936 . S
O195 Mg197 1.963 . S
Mg196 O195 1.936 . S
Mg196 O205 2.291 . S
Mg196 O210 2.081 . S
Mg196 O212 2.023 . S
Mg196 O216 2.031 . S
Mg197 O195 1.963 . S
Mg197 O201 1.986 . S
Mg197 O213 1.942 . S
Mg197 O214 1.955 . S
C198 O209 1.191 . S
C198 O211 1.307 . S
O199 Mg194 2.013 . S
O199 C218 1.191 . S
O200 Mg191 2.081 . S
O200 C208 1.331 . S
O201 Mg197 1.986 . S
O201 C218 1.307 . S
O202 Mg191 2.023 . S
O202 C217 1.264 . S
O203 Mg192 1.942 . S
O203 C208 1.244 . S
O204 Mg192 1.955 . S
O204 C217 1.273 . S
O205 Mg194 2.114 . S
O205 Mg196 2.291 . S
O205 C207 1.312 . S
O206 Mg191 2.031 . S
O206 C207 1.208 . S
C207 O205 1.312 . S
C207 O206 1.208 . S
C208 O200 1.331 . S
C208 O203 1.244 . S
O209 Mg194 2.013 . S
O209 C198 1.191 . S
O210 C189 1.331 . S
O210 Mg196 2.081 . S
O211 Mg192 1.986 . S
O211 C198 1.307 . S
O212 C190 1.264 . S
O212 Mg196 2.023 . S
O213 C189 1.244 . S
O213 Mg197 1.942 . S
O214 C190 1.273 . S
O214 Mg197 1.955 . S
O215 C188 1.312 . S
O215 Mg191 2.291 . S
O215 Mg194 2.114 . S
O216 C188 1.208 . S
O216 Mg196 2.031 . S
C217 O202 1.264 . S
C217 O204 1.273 . S
C218 O199 1.191 . S
C218 O201 1.307 . S
H219 C225 0.930 . S
H220 C229 0.930 . S
H221 C234 0.929 . S
H222 C232 0.929 . S
H223 C227 0.929 . S
H224 C233 0.929 . S
C225 H219 0.930 . S
C225 C226 1.367 . S
C225 C233 1.378 . S
C226 C225 1.367 . S
C226 C234 1.433 . S
C227 H223 0.929 . S
C227 C229 1.378 . S
C227 C231 1.350 . S
C228 C231 1.463 . S
C228 C233 1.350 . S
C228 N236 1.427 . S
C229 H220 0.930 . S
C229 C227 1.378 . S
C229 C230 1.367 . S
C230 C229 1.367 . S
C230 C232 1.433 . S
C231 C227 1.350 . S
C231 C228 1.463 . S
C231 N235 1.427 . S
C232 H222 0.929 . S
C232 C230 1.433 . S
C232 N235 1.384 . S
C233 H224 0.929 . S
C233 C225 1.378 . S
C233 C228 1.350 . S
C234 H221 0.929 . S
C234 C226 1.433 . S
C234 N236 1.384 . S
N235 C231 1.427 . S
N235 C232 1.384 . S
N236 C228 1.427 . S
N236 C234 1.384 . S
H237 C243 0.930 . S
H238 C247 0.930 . S
H239 C252 0.929 . S
H240 C250 0.929 . S
H241 C245 0.929 . S
H242 C251 0.929 . S
C243 H237 0.930 . S
C243 C244 1.367 . S
C243 C251 1.378 . S
C244 C243 1.367 . S
C244 C252 1.433 . S
C245 H241 0.929 . S
C245 C247 1.378 . S
C245 C249 1.350 . S
C246 C249 1.463 . S
C246 C251 1.350 . S
C246 N254 1.427 . S
C247 H238 0.930 . S
C247 C245 1.378 . S
C247 C248 1.367 . S
C248 C247 1.367 . S
C248 C250 1.433 . S
C249 C245 1.350 . S
C249 C246 1.463 . S
C249 N253 1.427 . S
C250 H240 0.929 . S
C250 C248 1.433 . S
C250 N253 1.384 . S
C251 H242 0.929 . S
C251 C243 1.378 . S
C251 C246 1.350 . S
C252 H239 0.929 . S
C252 C244 1.433 . S
C252 N254 1.384 . S
N253 C249 1.427 . S
N253 C250 1.384 . S
N254 C246 1.427 . S
N254 C252 1.384 . S
H255 C261 0.930 . S
H256 C265 0.930 . S
H257 C270 0.929 . S
H258 C268 0.929 . S
H259 C263 0.929 . S
H260 C269 0.929 . S
C261 H255 0.930 . S
C261 C262 1.367 . S
C261 C269 1.378 . S
C262 C261 1.367 . S
C262 C270 1.433 . S
C263 H259 0.929 . S
C263 C265 1.378 . S
C263 C267 1.350 . S
C264 C267 1.463 . S
C264 C269 1.350 . S
C264 N272 1.427 . S
C265 H256 0.930 . S
C265 C263 1.378 . S
C265 C266 1.367 . S
C266 C265 1.367 . S
C266 C268 1.433 . S
C267 C263 1.350 . S
C267 C264 1.463 . S
C267 N271 1.427 . S
C268 H258 0.929 . S
C268 C266 1.433 . S
C268 N271 1.384 . S
C269 H260 0.929 . S
C269 C261 1.378 . S
C269 C264 1.350 . S
C270 H257 0.929 . S
C270 C262 1.433 . S
C270 N272 1.384 . S
N271 C267 1.427 . S
N271 C268 1.384 . S
N272 C264 1.427 . S
N272 C270 1.384 . S
H273 C279 0.930 . S
H274 C283 0.930 . S
H275 C288 0.929 . S
H276 C286 0.929 . S
H277 C281 0.929 . S
H278 C287 0.929 . S
C279 H273 0.930 . S
C279 C280 1.367 . S
C279 C287 1.378 . S
C280 C279 1.367 . S
C280 C288 1.433 . S
C281 H277 0.929 . S
C281 C283 1.378 . S
C281 C285 1.350 . S
C282 C285 1.463 . S
C282 C287 1.350 . S
C282 N290 1.427 . S
C283 H274 0.930 . S
C283 C281 1.378 . S
C283 C284 1.367 . S
C284 C283 1.367 . S
C284 C286 1.433 . S
C285 C281 1.350 . S
C285 C282 1.463 . S
C285 N289 1.427 . S
C286 H276 0.929 . S
C286 C284 1.433 . S
C286 N289 1.384 . S
C287 H278 0.929 . S
C287 C279 1.378 . S
C287 C282 1.350 . S
C288 H275 0.929 . S
C288 C280 1.433 . S
C288 N290 1.384 . S
N289 C285 1.427 . S
N289 C286 1.384 . S
N290 C282 1.427 . S
N290 C288 1.384 . S
H291 C297 0.930 . S
H292 C301 0.930 . S
H293 C306 0.929 . S
H294 C304 0.929 . S
H295 C299 0.929 . S
H296 C305 0.929 . S
C297 H291 0.930 . S
C297 C298 1.367 . S
C297 C305 1.378 . S
C298 C297 1.367 . S
C298 C306 1.433 . S
C299 H295 0.929 . S
C299 C301 1.378 . S
C299 C303 1.350 . S
C300 C303 1.463 . S
C300 C305 1.350 . S
C300 N308 1.427 . S
C301 H292 0.930 . S
C301 C299 1.378 . S
C301 C302 1.367 . S
C302 C301 1.367 . S
C302 C304 1.433 . S
C303 C299 1.350 . S
C303 C300 1.463 . S
C303 N307 1.427 . S
C304 H294 0.929 . S
C304 C302 1.433 . S
C304 N307 1.384 . S
C305 H296 0.929 . S
C305 C297 1.378 . S
C305 C300 1.350 . S
C306 H293 0.929 . S
C306 C298 1.433 . S
C306 N308 1.384 . S
N307 C303 1.427 . S
N307 C304 1.384 . S
N308 C300 1.427 . S
N308 C306 1.384 . S
H309 C315 0.930 . S
H310 C319 0.930 . S
H311 C324 0.929 . S
H312 C322 0.929 . S
H313 C317 0.929 . S
H314 C323 0.929 . S
C315 H309 0.930 . S
C315 C316 1.367 . S
C315 C323 1.378 . S
C316 C315 1.367 . S
C316 C324 1.433 . S
C317 H313 0.929 . S
C317 C319 1.378 . S
C317 C321 1.350 . S
C318 C321 1.463 . S
C318 C323 1.350 . S
C318 N326 1.427 . S
C319 H310 0.930 . S
C319 C317 1.378 . S
C319 C320 1.367 . S
C320 C319 1.367 . S
C320 C322 1.433 . S
C321 C317 1.350 . S
C321 C318 1.463 . S
C321 N325 1.427 . S
C322 H312 0.929 . S
C322 C320 1.433 . S
C322 N325 1.384 . S
C323 H314 0.929 . S
C323 C315 1.378 . S
C323 C318 1.350 . S
C324 H311 0.929 . S
C324 C316 1.433 . S
C324 N326 1.384 . S
N325 C321 1.427 . S
N325 C322 1.384 . S
N326 C318 1.427 . S
N326 C324 1.384 . S
H327 C333 0.930 . S
H328 C337 0.930 . S
H329 C342 0.929 . S
H330 C340 0.929 . S
H331 C335 0.929 . S
H332 C341 0.929 . S
C333 H327 0.930 . S
C333 C334 1.367 . S
C333 C341 1.378 . S
C334 C333 1.367 . S
C334 C342 1.433 . S
C335 H331 0.929 . S
C335 C337 1.378 . S
C335 C339 1.350 . S
C336 C339 1.463 . S
C336 C341 1.350 . S
C336 N344 1.427 . S
C337 H328 0.930 . S
C337 C335 1.378 . S
C337 C338 1.367 . S
C338 C337 1.367 . S
C338 C340 1.433 . S
C339 C335 1.350 . S
C339 C336 1.463 . S
C339 N343 1.427 . S
C340 H330 0.929 . S
C340 C338 1.433 . S
C340 N343 1.384 . S
C341 H332 0.929 . S
C341 C333 1.378 . S
C341 C336 1.350 . S
C342 H329 0.929 . S
C342 C334 1.433 . S
C342 N344 1.384 . S
N343 C339 1.427 . S
N343 C340 1.384 . S
N344 C336 1.427 . S
N344 C342 1.384 . S
H345 C351 0.930 . S
H346 C355 0.930 . S
H347 C360 0.929 . S
H348 C358 0.929 . S
H349 C353 0.929 . S
H350 C359 0.929 . S
C351 H345 0.930 . S
C351 C352 1.367 . S
C351 C359 1.378 . S
C352 C351 1.367 . S
C352 C360 1.433 . S
C353 H349 0.929 . S
C353 C355 1.378 . S
C353 C357 1.350 . S
C354 C357 1.463 . S
C354 C359 1.350 . S
C354 N362 1.427 . S
C355 H346 0.930 . S
C355 C353 1.378 . S
C355 C356 1.367 . S
C356 C355 1.367 . S
C356 C358 1.433 . S
C357 C353 1.350 . S
C357 C354 1.463 . S
C357 N361 1.427 . S
C358 H348 0.929 . S
C358 C356 1.433 . S
C358 N361 1.384 . S
C359 H350 0.929 . S
C359 C351 1.378 . S
C359 C354 1.350 . S
C360 H347 0.929 . S
C360 C352 1.433 . S
C360 N362 1.384 . S
N361 C357 1.427 . S
N361 C358 1.384 . S
N362 C354 1.427 . S
N362 C360 1.384 . S
H363 C369 0.930 . S
H364 C373 0.930 . S
H365 C378 0.929 . S
H366 C376 0.929 . S
H367 C371 0.929 . S
H368 C377 0.929 . S
C369 H363 0.930 . S
C369 C370 1.367 . S
C369 C377 1.378 . S
C370 C369 1.367 . S
C370 C378 1.433 1_556 S
C371 H367 0.929 . S
C371 C373 1.378 . S
C371 C375 1.350 . S
C372 C375 1.463 . S
C372 C377 1.350 . S
C372 N380 1.427 . S
C373 H364 0.930 . S
C373 C371 1.378 . S
C373 C374 1.367 . S
C374 C373 1.367 . S
C374 C376 1.433 . S
C375 C371 1.350 . S
C375 C372 1.463 . S
C375 N379 1.427 . S
C376 H366 0.929 . S
C376 C374 1.433 . S
C376 N379 1.384 . S
C377 H368 0.929 . S
C377 C369 1.378 . S
C377 C372 1.350 . S
C378 H365 0.929 . S
C378 C370 1.433 1_554 S
C378 N380 1.384 1_554 S
N379 C375 1.427 . S
N379 C376 1.384 . S
N380 C372 1.427 . S
N380 C378 1.384 1_556 S
H381 C387 0.930 . S
H382 C391 0.930 . S
H383 C396 0.929 . S
H384 C394 0.929 . S
H385 C389 0.929 . S
H386 C395 0.929 . S
C387 H381 0.930 . S
C387 C388 1.367 . S
C387 C395 1.378 1_554 S
C388 C387 1.367 . S
C388 C396 1.433 . S
C389 H385 0.929 . S
C389 C391 1.378 . S
C389 C393 1.350 . S
C390 C393 1.463 . S
C390 C395 1.350 . S
C390 N398 1.427 . S
C391 H382 0.930 . S
C391 C389 1.378 . S
C391 C392 1.367 . S
C392 C391 1.367 . S
C392 C394 1.433 . S
C393 C389 1.350 . S
C393 C390 1.463 . S
C393 N397 1.427 . S
C394 H384 0.929 . S
C394 C392 1.433 . S
C394 N397 1.384 . S
C395 H386 0.929 . S
C395 C387 1.378 1_556 S
C395 C390 1.350 . S
C396 H383 0.929 . S
C396 C388 1.433 . S
C396 N398 1.384 1_554 S
N397 C393 1.427 . S
N397 C394 1.384 . S
N398 C390 1.427 . S
N398 C396 1.384 1_556 S
H399 C405 0.930 . S
H400 C409 0.930 . S
H401 C414 0.929 . S
H402 C412 0.929 . S
H403 C407 0.929 . S
H404 C413 0.929 . S
C405 H399 0.930 . S
C405 C406 1.367 . S
C405 C413 1.378 1_554 S
C406 C405 1.367 . S
C406 C414 1.433 . S
C407 H403 0.929 . S
C407 C409 1.378 . S
C407 C411 1.350 . S
C408 C411 1.463 . S
C408 C413 1.350 . S
C408 N416 1.427 1_556 S
C409 H400 0.930 . S
C409 C407 1.378 . S
C409 C410 1.367 . S
C410 C409 1.367 . S
C410 C412 1.433 . S
C411 C407 1.350 . S
C411 C408 1.463 . S
C411 N415 1.427 . S
C412 H402 0.929 . S
C412 C410 1.433 . S
C412 N415 1.384 . S
C413 H404 0.929 . S
C413 C405 1.378 1_556 S
C413 C408 1.350 . S
C414 H401 0.929 . S
C414 C406 1.433 . S
C414 N416 1.384 . S
N415 C411 1.427 . S
N415 C412 1.384 . S
N416 C408 1.427 1_554 S
N416 C414 1.384 . S
H417 C423 0.930 . S
H418 C427 0.930 . S
H419 C432 0.929 . S
H420 C430 0.929 . S
H421 C425 0.929 . S
H422 C431 0.929 1_554 S
C423 H417 0.930 . S
C423 C424 1.367 1_554 S
C423 C431 1.378 1_554 S
C424 C423 1.367 1_556 S
C424 C432 1.433 . S
C425 H421 0.929 . S
C425 C427 1.378 . S
C425 C429 1.350 . S
C426 C429 1.463 . S
C426 C431 1.350 . S
C426 N434 1.427 . S
C427 H418 0.930 . S
C427 C425 1.378 . S
C427 C428 1.367 . S
C428 C427 1.367 . S
C428 C430 1.433 . S
C429 C425 1.350 . S
C429 C426 1.463 . S
C429 N433 1.427 . S
C430 H420 0.929 . S
C430 C428 1.433 . S
C430 N433 1.384 . S
C431 H422 0.929 1_556 S
C431 C423 1.378 1_556 S
C431 C426 1.350 . S
C432 H419 0.929 . S
C432 C424 1.433 . S
C432 N434 1.384 . S
N433 C429 1.427 . S
N433 C430 1.384 . S
N434 C426 1.427 . S
N434 C432 1.384 . S
H435 C441 0.930 . S
H436 C445 0.930 . S
H437 C450 0.929 . S
H438 C448 0.929 . S
H439 C443 0.929 . S
H440 C449 0.929 . S
C441 H435 0.930 . S
C441 C442 1.367 . S
C441 C449 1.378 . S
C442 C441 1.367 . S
C442 C450 1.433 . S
C443 H439 0.929 . S
C443 C445 1.378 . S
C443 C447 1.350 . S
C444 C447 1.463 . S
C444 C449 1.350 . S
C444 N452 1.427 . S
C445 H436 0.930 . S
C445 C443 1.378 . S
C445 C446 1.367 . S
C446 C445 1.367 . S
C446 C448 1.433 . S
C447 C443 1.350 . S
C447 C444 1.463 . S
C447 N451 1.427 . S
C448 H438 0.929 . S
C448 C446 1.433 . S
C448 N451 1.384 . S
C449 H440 0.929 . S
C449 C441 1.378 . S
C449 C444 1.350 . S
C450 H437 0.929 . S
C450 C442 1.433 . S
C450 N452 1.384 . S
N451 C447 1.427 . S
N451 C448 1.384 . S
N452 C444 1.427 . S
N452 C450 1.384 . S
H453 C459 0.930 . S
H454 C463 0.930 . S
H455 C468 0.929 . S
H456 C466 0.929 . S
H457 C461 0.929 . S
H458 C467 0.929 . S
C459 H453 0.930 . S
C459 C460 1.367 . S
C459 C467 1.378 . S
C460 C459 1.367 . S
C460 C468 1.433 1_556 S
C461 H457 0.929 . S
C461 C463 1.378 . S
C461 C465 1.350 . S
C462 C465 1.463 . S
C462 C467 1.350 . S
C462 N470 1.427 . S
C463 H454 0.930 . S
C463 C461 1.378 . S
C463 C464 1.367 . S
C464 C463 1.367 . S
C464 C466 1.433 . S
C465 C461 1.350 . S
C465 C462 1.463 . S
C465 N469 1.427 . S
C466 H456 0.929 . S
C466 C464 1.433 . S
C466 N469 1.384 . S
C467 H458 0.929 . S
C467 C459 1.378 . S
C467 C462 1.350 . S
C468 H455 0.929 . S
C468 C460 1.433 1_554 S
C468 N470 1.384 1_554 S
N469 C465 1.427 . S
N469 C466 1.384 . S
N470 C462 1.427 . S
N470 C468 1.384 1_556 S
H471 C477 0.930 . S
H472 C481 0.930 . S
H473 C486 0.929 . S
H474 C484 0.929 . S
H475 C479 0.929 . S
H476 C485 0.929 . S
C477 H471 0.930 . S
C477 C478 1.367 1_556 S
C477 C485 1.378 . S
C478 C477 1.367 1_554 S
C478 C486 1.433 . S
C479 H475 0.929 . S
C479 C481 1.378 . S
C479 C483 1.350 . S
C480 C483 1.463 . S
C480 C485 1.350 . S
C480 N488 1.427 1_556 S
C481 H472 0.930 . S
C481 C479 1.378 . S
C481 C482 1.367 . S
C482 C481 1.367 . S
C482 C484 1.433 . S
C483 C479 1.350 . S
C483 C480 1.463 . S
C483 N487 1.427 . S
C484 H474 0.929 . S
C484 C482 1.433 . S
C484 N487 1.384 . S
C485 H476 0.929 . S
C485 C477 1.378 . S
C485 C480 1.350 . S
C486 H473 0.929 . S
C486 C478 1.433 . S
C486 N488 1.384 . S
N487 C483 1.427 . S
N487 C484 1.384 . S
N488 C480 1.427 1_554 S
N488 C486 1.384 . S
H489 C495 0.930 . S
H490 C499 0.930 . S
H491 C504 0.929 . S
H492 C502 0.929 . S
H493 C497 0.929 . S
H494 C503 0.929 . S
C495 H489 0.930 . S
C495 C496 1.367 . S
C495 C503 1.378 1_554 S
C496 C495 1.367 . S
C496 C504 1.433 . S
C497 H493 0.929 . S
C497 C499 1.378 . S
C497 C501 1.350 . S
C498 C501 1.463 . S
C498 C503 1.350 . S
C498 N506 1.427 1_556 S
C499 H490 0.930 . S
C499 C497 1.378 . S
C499 C500 1.367 . S
C500 C499 1.367 . S
C500 C502 1.433 . S
C501 C497 1.350 . S
C501 C498 1.463 . S
C501 N505 1.427 . S
C502 H492 0.929 . S
C502 C500 1.433 . S
C502 N505 1.384 . S
C503 H494 0.929 . S
C503 C495 1.378 1_556 S
C503 C498 1.350 . S
C504 H491 0.929 . S
C504 C496 1.433 . S
C504 N506 1.384 . S
N505 C501 1.427 . S
N505 C502 1.384 . S
N506 C498 1.427 1_554 S
N506 C504 1.384 . S
H507 C513 0.930 1_554 S
H508 C517 0.930 . S
H509 C522 0.929 . S
H510 C520 0.929 . S
H511 C515 0.929 . S
H512 C521 0.929 . S
C513 H507 0.930 1_556 S
C513 C514 1.367 . S
C513 C521 1.378 . S
C514 C513 1.367 . S
C514 C522 1.433 . S
C515 H511 0.929 . S
C515 C517 1.378 . S
C515 C519 1.350 . S
C516 C519 1.463 . S
C516 C521 1.350 . S
C516 N524 1.427 . S
C517 H508 0.930 . S
C517 C515 1.378 . S
C517 C518 1.367 . S
C518 C517 1.367 . S
C518 C520 1.433 . S
C519 C515 1.350 . S
C519 C516 1.463 . S
C519 N523 1.427 . S
C520 H510 0.929 . S
C520 C518 1.433 . S
C520 N523 1.384 . S
C521 H512 0.929 . S
C521 C513 1.378 . S
C521 C516 1.350 . S
C522 H509 0.929 . S
C522 C514 1.433 . S
C522 N524 1.384 . S
N523 C519 1.427 . S
N523 C520 1.384 . S
N524 C516 1.427 . S
N524 C522 1.384 . S
H525 C531 0.930 . S
H526 C535 0.930 . S
H527 C540 0.929 1_554 S
H528 C538 0.929 . S
H529 C533 0.929 . S
H530 C539 0.929 . S
C531 H525 0.930 . S
C531 C532 1.367 . S
C531 C539 1.378 . S
C532 C531 1.367 . S
C532 C540 1.433 . S
C533 H529 0.929 . S
C533 C535 1.378 . S
C533 C537 1.350 . S
C534 C537 1.463 . S
C534 C539 1.350 . S
C534 N542 1.427 . S
C535 H526 0.930 . S
C535 C533 1.378 . S
C535 C536 1.367 . S
C536 C535 1.367 . S
C536 C538 1.433 . S
C537 C533 1.350 . S
C537 C534 1.463 . S
C537 N541 1.427 . S
C538 H528 0.929 . S
C538 C536 1.433 . S
C538 N541 1.384 . S
C539 H530 0.929 . S
C539 C531 1.378 . S
C539 C534 1.350 . S
C540 H527 0.929 1_556 S
C540 C532 1.433 . S
C540 N542 1.384 . S
N541 C537 1.427 . S
N541 C538 1.384 . S
N542 C534 1.427 . S
N542 C540 1.384 . S
H543 C549 0.930 . S
H544 C553 0.930 . S
H545 C558 0.929 . S
H546 C556 0.929 . S
H547 C551 0.929 . S
H548 C557 0.929 . S
C549 H543 0.930 . S
C549 C550 1.367 . S
C549 C557 1.378 . S
C550 C549 1.367 . S
C550 C558 1.433 . S
C551 H547 0.929 . S
C551 C553 1.378 . S
C551 C555 1.350 . S
C552 C555 1.463 . S
C552 C557 1.350 . S
C552 N560 1.427 . S
C553 H544 0.930 . S
C553 C551 1.378 . S
C553 C554 1.367 . S
C554 C553 1.367 . S
C554 C556 1.433 . S
C555 C551 1.350 . S
C555 C552 1.463 . S
C555 N559 1.427 . S
C556 H546 0.929 . S
C556 C554 1.433 . S
C556 N559 1.384 . S
C557 H548 0.929 . S
C557 C549 1.378 . S
C557 C552 1.350 . S
C558 H545 0.929 . S
C558 C550 1.433 . S
C558 N560 1.384 . S
N559 C555 1.427 . S
N559 C556 1.384 . S
N560 C552 1.427 . S
N560 C558 1.384 . S
H561 C567 0.930 . S
H562 C571 0.930 . S
H563 C576 0.929 . S
H564 C574 0.929 . S
H565 C569 0.929 . S
H566 C575 0.929 . S
C567 H561 0.930 . S
C567 C568 1.367 . S
C567 C575 1.378 . S
C568 C567 1.367 . S
C568 C576 1.433 . S
C569 H565 0.929 . S
C569 C571 1.378 . S
C569 C573 1.350 . S
C570 C573 1.463 . S
C570 C575 1.350 . S
C570 N578 1.427 . S
C571 H562 0.930 . S
C571 C569 1.378 . S
C571 C572 1.367 . S
C572 C571 1.367 . S
C572 C574 1.433 . S
C573 C569 1.350 . S
C573 C570 1.463 . S
C573 N577 1.427 . S
C574 H564 0.929 . S
C574 C572 1.433 . S
C574 N577 1.384 . S
C575 H566 0.929 . S
C575 C567 1.378 . S
C575 C570 1.350 . S
C576 H563 0.929 . S
C576 C568 1.433 . S
C576 N578 1.384 . S
N577 C573 1.427 . S
N577 C574 1.384 . S
N578 C570 1.427 . S
N578 C576 1.384 . S
H579 C585 0.930 . S
H580 C589 0.930 . S
H581 C594 0.929 . S
H582 C592 0.929 . S
H583 C587 0.929 . S
H584 C593 0.929 . S
C585 H579 0.930 . S
C585 C586 1.367 . S
C585 C593 1.378 . S
C586 C585 1.367 . S
C586 C594 1.433 . S
C587 H583 0.929 . S
C587 C589 1.378 . S
C587 C591 1.350 . S
C588 C591 1.463 . S
C588 C593 1.350 . S
C588 N596 1.427 . S
C589 H580 0.930 . S
C589 C587 1.378 . S
C589 C590 1.367 . S
C590 C589 1.367 . S
C590 C592 1.433 . S
C591 C587 1.350 . S
C591 C588 1.463 . S
C591 N595 1.427 . S
C592 H582 0.929 . S
C592 C590 1.433 . S
C592 N595 1.384 . S
C593 H584 0.929 . S
C593 C585 1.378 . S
C593 C588 1.350 . S
C594 H581 0.929 . S
C594 C586 1.433 . S
C594 N596 1.384 . S
N595 C591 1.427 . S
N595 C592 1.384 . S
N596 C588 1.427 . S
N596 C594 1.384 . S
H597 C603 0.930 . S
H598 C607 0.930 . S
H599 C612 0.929 . S
H600 C610 0.929 . S
H601 C605 0.929 . S
H602 C611 0.929 . S
C603 H597 0.930 . S
C603 C604 1.367 . S
C603 C611 1.378 . S
C604 C603 1.367 . S
C604 C612 1.433 . S
C605 H601 0.929 . S
C605 C607 1.378 . S
C605 C609 1.350 . S
C606 C609 1.463 . S
C606 C611 1.350 . S
C606 N614 1.427 . S
C607 H598 0.930 . S
C607 C605 1.378 . S
C607 C608 1.367 . S
C608 C607 1.367 . S
C608 C610 1.433 . S
C609 C605 1.350 . S
C609 C606 1.463 . S
C609 N613 1.427 . S
C610 H600 0.929 . S
C610 C608 1.433 . S
C610 N613 1.384 . S
C611 H602 0.929 . S
C611 C603 1.378 . S
C611 C606 1.350 . S
C612 H599 0.929 . S
C612 C604 1.433 . S
C612 N614 1.384 . S
N613 C609 1.427 . S
N613 C610 1.384 . S
N614 C606 1.427 . S
N614 C612 1.384 . S
H615 C621 0.930 . S
H616 C625 0.930 . S
H617 C630 0.929 . S
H618 C628 0.929 . S
H619 C623 0.929 . S
H620 C629 0.929 . S
C621 H615 0.930 . S
C621 C622 1.367 . S
C621 C629 1.378 . S
C622 C621 1.367 . S
C622 C630 1.433 . S
C623 H619 0.929 . S
C623 C625 1.378 . S
C623 C627 1.350 . S
C624 C627 1.463 . S
C624 C629 1.350 . S
C624 N632 1.427 . S
C625 H616 0.930 . S
C625 C623 1.378 . S
C625 C626 1.367 . S
C626 C625 1.367 . S
C626 C628 1.433 . S
C627 C623 1.350 . S
C627 C624 1.463 . S
C627 N631 1.427 . S
C628 H618 0.929 . S
C628 C626 1.433 . S
C628 N631 1.384 . S
C629 H620 0.929 . S
C629 C621 1.378 . S
C629 C624 1.350 . S
C630 H617 0.929 . S
C630 C622 1.433 . S
C630 N632 1.384 . S
N631 C627 1.427 . S
N631 C628 1.384 . S
N632 C624 1.427 . S
N632 C630 1.384 . S
H633 C639 0.930 . S
H634 C643 0.930 . S
H635 C648 0.929 . S
H636 C646 0.929 . S
H637 C641 0.929 . S
H638 C647 0.929 . S
C639 H633 0.930 . S
C639 C640 1.367 . S
C639 C647 1.378 . S
C640 C639 1.367 . S
C640 C648 1.433 . S
C641 H637 0.929 . S
C641 C643 1.378 . S
C641 C645 1.350 . S
C642 C645 1.463 . S
C642 C647 1.350 . S
C642 N650 1.427 . S
C643 H634 0.930 . S
C643 C641 1.378 . S
C643 C644 1.367 . S
C644 C643 1.367 . S
C644 C646 1.433 . S
C645 C641 1.350 . S
C645 C642 1.463 . S
C645 N649 1.427 . S
C646 H636 0.929 . S
C646 C644 1.433 . S
C646 N649 1.384 . S
C647 H638 0.929 . S
C647 C639 1.378 . S
C647 C642 1.350 . S
C648 H635 0.929 . S
C648 C640 1.433 . S
C648 N650 1.384 . S
N649 C645 1.427 . S
N649 C646 1.384 . S
N650 C642 1.427 . S
N650 C648 1.384 . S
C226 C12 1.637 . S
C230 C126 1.751 . S
C244 C40 1.511 . S
C248 C158 1.550 . S
C266 C217 1.884 . S
C262 C61 1.894 . S
C284 C146 1.426 . S
C280 C82 1.424 . S
C298 C96 1.567 . S
C302 C176 1.630 . S
C320 C198 1.298 . S
C316 C117 1.181 . S
C338 C167 1.753 . S
C334 C51 1.702 . S
C352 C72 1.328 . S
C356 C207 1.338 . S
C374 C156 1.624 . S
C370 C101 1.535 1_556 S
C388 C122 1.451 . S
C392 C186 1.522 . S
C406 C17 1.752 . S
C410 C189 1.825 . S
C428 C128 1.627 . S
C424 C30 1.583 1_556 S
C446 C136 1.685 . S
C442 C80 1.658 . S
C464 C177 1.514 . S
C460 C93 1.453 1_556 S
C482 C190 1.892 . S
C478 C114 1.856 . S
C500 C127 1.432 . S
C496 C9 1.399 . S
C518 C187 1.575 . S
C514 C38 1.576 1_556 S
C532 C59 1.268 . S
C536 C188 1.275 . S
C554 C157 1.665 . S
C550 C124 1.604 . S
C572 C218 1.265 . S
C568 C19 1.197 . S
C590 C145 1.575 . S
C586 C33 1.593 . S
C608 C159 1.527 . S
C604 C54 1.510 . S
C622 C75 1.797 . S
C626 C208 1.799 . S
C640 C103 1.546 . S
C644 C155 1.599 . S
