# Generated by pormake.
# Topology pto, (3,4)-cn, num edge types: 1
# Building blocks:
#     Node 0, Type 0, BuildingBlock: MIDCAF_clean_linker_0, # of connection points: 3
#     Node 1, Type 0, BuildingBlock: MIDCAF_clean_linker_0, # of connection points: 3
#     Node 2, Type 0, BuildingBlock: MIDCAF_clean_linker_0, # of connection points: 3
#     Node 3, Type 0, BuildingBlock: MIDCAF_clean_linker_0, # of connection points: 3
#     Node 4, Type 0, BuildingBlock: MIDCAF_clean_linker_0, # of connection points: 3
#     Node 5, Type 0, BuildingBlock: MIDCAF_clean_linker_0, # of connection points: 3
#     Node 6, Type 0, BuildingBlock: MIDCAF_clean_linker_0, # of connection points: 3
#     Node 7, Type 0, BuildingBlock: MIDCAF_clean_linker_0, # of connection points: 3
#     Node 8, Type 1, BuildingBlock: NAWXER_clean_sbu_0, # of connection points: 4
#     Node 9, Type 1, BuildingBlock: NAWXER_clean_sbu_0, # of connection points: 4
#     Node 10, Type 1, BuildingBlock: NAWXER_clean_sbu_0, # of connection points: 4
#     Node 11, Type 1, BuildingBlock: NAWXER_clean_sbu_0, # of connection points: 4
#     Node 12, Type 1, BuildingBlock: NAWXER_clean_sbu_0, # of connection points: 4
#     Node 13, Type 1, BuildingBlock: NAWXER_clean_sbu_0, # of connection points: 4
#     Edge 14, Type (0, 1), BuildingBlock: ZUJKAS_clean_linker_0, # of connection points: 2
#     Edge 15, Type (0, 1), BuildingBlock: ZUJKAS_clean_linker_0, # of connection points: 2
#     Edge 16, Type (0, 1), BuildingBlock: ZUJKAS_clean_linker_0, # of connection points: 2
#     Edge 17, Type (0, 1), BuildingBlock: ZUJKAS_clean_linker_0, # of connection points: 2
#     Edge 18, Type (0, 1), BuildingBlock: ZUJKAS_clean_linker_0, # of connection points: 2
#     Edge 19, Type (0, 1), BuildingBlock: ZUJKAS_clean_linker_0, # of connection points: 2
#     Edge 20, Type (0, 1), BuildingBlock: ZUJKAS_clean_linker_0, # of connection points: 2
#     Edge 21, Type (0, 1), BuildingBlock: ZUJKAS_clean_linker_0, # of connection points: 2
#     Edge 22, Type (0, 1), BuildingBlock: ZUJKAS_clean_linker_0, # of connection points: 2
#     Edge 23, Type (0, 1), BuildingBlock: ZUJKAS_clean_linker_0, # of connection points: 2
#     Edge 24, Type (0, 1), BuildingBlock: ZUJKAS_clean_linker_0, # of connection points: 2
#     Edge 25, Type (0, 1), BuildingBlock: ZUJKAS_clean_linker_0, # of connection points: 2
#     Edge 26, Type (0, 1), BuildingBlock: ZUJKAS_clean_linker_0, # of connection points: 2
#     Edge 27, Type (0, 1), BuildingBlock: ZUJKAS_clean_linker_0, # of connection points: 2
#     Edge 28, Type (0, 1), BuildingBlock: ZUJKAS_clean_linker_0, # of connection points: 2
#     Edge 29, Type (0, 1), BuildingBlock: ZUJKAS_clean_linker_0, # of connection points: 2
#     Edge 30, Type (0, 1), BuildingBlock: ZUJKAS_clean_linker_0, # of connection points: 2
#     Edge 31, Type (0, 1), BuildingBlock: ZUJKAS_clean_linker_0, # of connection points: 2
#     Edge 32, Type (0, 1), BuildingBlock: ZUJKAS_clean_linker_0, # of connection points: 2
#     Edge 33, Type (0, 1), BuildingBlock: ZUJKAS_clean_linker_0, # of connection points: 2
#     Edge 34, Type (0, 1), BuildingBlock: ZUJKAS_clean_linker_0, # of connection points: 2
#     Edge 35, Type (0, 1), BuildingBlock: ZUJKAS_clean_linker_0, # of connection points: 2
#     Edge 36, Type (0, 1), BuildingBlock: ZUJKAS_clean_linker_0, # of connection points: 2
#     Edge 37, Type (0, 1), BuildingBlock: ZUJKAS_clean_linker_0, # of connection points: 2
# Relax obj value: 0.000
# Max RMSD: 0.002
# Mean RMSD: 0.001
data_MOF--net-pto--node1-NAWXER_clean_sbu_0--node2-MIDCAF_clean_linker_0--edge1-ZUJKAS_clean_linker_0
_symmetry_space_group_name_H-M    P1
_symmetry_Int_Tables_number       1
_symmetry_cell_setting            triclinic
loop_
_symmetry_equiv_pos_as_xyz
'x, y, z'
_cell_length_a     67.312416
_cell_length_b     63.154249
_cell_length_c     58.987144
_cell_angle_alpha  89.750977
_cell_angle_beta   90.079489
_cell_angle_gamma 90.183459
loop_
_atom_site_label
_atom_site_type_symbol
_atom_site_fract_x
_atom_site_fract_y
_atom_site_fract_z
_atom_type_partial_charge
C0 C 0.31306 0.25214 0.20278 0.0
C1 C 0.31311 0.26557 0.18376 0.0
C2 C 0.29741 0.27995 0.18083 0.0
C3 C 0.28198 0.28091 0.19669 0.0
H4 H 0.23464 0.31967 0.22053 0.0
H5 H 0.21111 0.34899 0.22364 0.0
H6 H 0.18699 0.32096 0.28464 0.0
H7 H 0.21042 0.29212 0.28187 0.0
H8 H 0.21811 0.24628 0.29346 0.0
H9 H 0.21261 0.2166 0.31898 0.0
H10 H 0.26313 0.18435 0.29035 0.0
H11 H 0.26896 0.21428 0.26492 0.0
H12 H 0.29797 0.24219 0.23285 0.0
H13 H 0.3249 0.24079 0.20537 0.0
H14 H 0.29716 0.29059 0.16638 0.0
H15 H 0.27008 0.29214 0.19397 0.0
N16 N 0.25296 0.28475 0.23346 0.0
N17 N 0.23538 0.26817 0.26291 0.0
N18 N 0.26244 0.251 0.24645 0.0
C19 C 0.23799 0.28507 0.24895 0.0
C20 C 0.24743 0.25107 0.26178 0.0
C21 C 0.26532 0.26774 0.23222 0.0
C22 C 0.22441 0.30344 0.25087 0.0
C23 C 0.22442 0.31987 0.23469 0.0
C24 C 0.21089 0.33661 0.23641 0.0
C25 C 0.19723 0.33733 0.25443 0.0
C26 C 0.19751 0.32109 0.27075 0.0
C27 C 0.21089 0.3044 0.269 0.0
C28 C 0.24404 0.23275 0.27711 0.0
C29 C 0.22809 0.23289 0.2925 0.0
C30 C 0.22481 0.21578 0.30706 0.0
C31 C 0.23738 0.1981 0.30664 0.0
C32 C 0.25329 0.19786 0.29121 0.0
C33 C 0.25658 0.21499 0.27658 0.0
C34 C 0.28182 0.26727 0.21561 0.0
C35 C 0.29755 0.25288 0.21844 0.0
C36 C 0.21185 0.67175 0.76351 0.0
C37 C 0.19809 0.67111 0.74555 0.0
C38 C 0.19818 0.68756 0.72947 0.0
C39 C 0.21149 0.7044 0.73143 0.0
H40 H 0.21909 0.76281 0.70728 0.0
H41 H 0.21365 0.79281 0.6822 0.0
H42 H 0.26379 0.82522 0.71208 0.0
H43 H 0.26956 0.79498 0.73705 0.0
H44 H 0.29874 0.76674 0.76857 0.0
H45 H 0.32592 0.76753 0.79589 0.0
H46 H 0.29815 0.71693 0.83384 0.0
H47 H 0.27086 0.71597 0.80643 0.0
H48 H 0.23561 0.68875 0.77954 0.0
H49 H 0.21221 0.65921 0.77608 0.0
H50 H 0.18759 0.68773 0.71564 0.0
H51 H 0.2109 0.71685 0.71876 0.0
N52 N 0.23609 0.74077 0.73791 0.0
N53 N 0.26319 0.75788 0.75467 0.0
N54 N 0.25367 0.72395 0.76716 0.0
C55 C 0.24817 0.75791 0.7393 0.0
C56 C 0.26605 0.74099 0.76868 0.0
C57 C 0.23869 0.72372 0.75165 0.0
C58 C 0.24482 0.7764 0.72421 0.0
C59 C 0.22899 0.7763 0.7086 0.0
C60 C 0.22575 0.79359 0.69429 0.0
C61 C 0.23823 0.81142 0.6952 0.0
C62 C 0.25402 0.81161 0.71083 0.0
C63 C 0.25727 0.7943 0.72521 0.0
C64 C 0.28259 0.74128 0.7853 0.0
C65 C 0.29836 0.75576 0.78273 0.0
C66 C 0.31401 0.75616 0.7983 0.0
C67 C 0.31413 0.7423 0.81696 0.0
C68 C 0.29834 0.7279 0.81967 0.0
C69 C 0.28279 0.72728 0.8039 0.0
C70 C 0.22513 0.70527 0.7495 0.0
C71 C 0.2253 0.68863 0.76543 0.0
C72 C 0.70915 0.72619 0.18595 0.0
C73 C 0.69638 0.74378 0.18504 0.0
C74 C 0.69967 0.7606 0.20011 0.0
C75 C 0.71524 0.75986 0.21575 0.0
H76 H 0.7485 0.79845 0.2584 0.0
H77 H 0.75502 0.82869 0.28306 0.0
H78 H 0.79102 0.78916 0.3265 0.0
H79 H 0.78458 0.75896 0.30206 0.0
H80 H 0.79637 0.71486 0.28656 0.0
H81 H 0.81917 0.68546 0.29017 0.0
H82 H 0.79591 0.65836 0.22845 0.0
H83 H 0.77308 0.68822 0.2245 0.0
H84 H 0.73424 0.71161 0.2019 0.0
H85 H 0.7072 0.71307 0.1744 0.0
H86 H 0.68995 0.77424 0.20016 0.0
H87 H 0.71713 0.77309 0.22717 0.0
N88 N 0.74766 0.75837 0.24746 0.0
N89 N 0.77325 0.74006 0.26576 0.0
N90 N 0.75558 0.72374 0.23631 0.0
C91 C 0.76217 0.75781 0.26344 0.0
C92 C 0.77015 0.72298 0.25233 0.0
C93 C 0.7442 0.74141 0.23386 0.0
C94 C 0.76598 0.77625 0.27825 0.0
C95 C 0.75779 0.79619 0.27322 0.0
C96 C 0.76163 0.81354 0.28722 0.0
C97 C 0.77352 0.81124 0.30667 0.0
C98 C 0.78167 0.79134 0.31171 0.0
C99 C 0.77803 0.77407 0.29762 0.0
C100 C 0.78294 0.70406 0.2551 0.0
C101 C 0.79595 0.70264 0.27374 0.0
C102 C 0.80896 0.68563 0.27597 0.0
C103 C 0.80936 0.66954 0.25962 0.0
C104 C 0.79606 0.67063 0.24122 0.0
C105 C 0.78292 0.68768 0.23903 0.0
C106 C 0.72794 0.74222 0.21682 0.0
C107 C 0.72473 0.72541 0.20167 0.0
C108 C 0.7864 0.21106 0.69736 0.0
C109 C 0.77246 0.19458 0.69543 0.0
C110 C 0.75517 0.1952 0.70878 0.0
C111 C 0.7518 0.21209 0.72354 0.0
H112 H 0.71302 0.23491 0.77099 0.0
H113 H 0.68513 0.23414 0.79703 0.0
H114 H 0.70594 0.29213 0.82769 0.0
H115 H 0.73373 0.29323 0.80125 0.0
H116 H 0.76854 0.32053 0.77199 0.0
H117 H 0.79292 0.34944 0.76996 0.0
H118 H 0.83252 0.30921 0.73217 0.0
H119 H 0.80859 0.28056 0.73421 0.0
H120 H 0.79414 0.24033 0.71296 0.0
H121 H 0.80001 0.21089 0.6876 0.0
H122 H 0.74403 0.18285 0.7075 0.0
H123 H 0.73824 0.21219 0.73339 0.0
N124 N 0.74615 0.24741 0.75444 0.0
N125 N 0.75603 0.2808 0.76797 0.0
N126 N 0.77489 0.26355 0.74031 0.0
C127 C 0.743 0.26422 0.76833 0.0
C128 C 0.77204 0.28051 0.75392 0.0
C129 C 0.76208 0.24698 0.74038 0.0
C130 C 0.72573 0.26412 0.78399 0.0
C131 C 0.71171 0.24756 0.78322 0.0
C132 C 0.69573 0.24702 0.79829 0.0
C133 C 0.69334 0.26299 0.81456 0.0
C134 C 0.70722 0.27968 0.81521 0.0
C135 C 0.72322 0.28025 0.80009 0.0
C136 C 0.78658 0.29819 0.7533 0.0
C137 C 0.78249 0.31787 0.76334 0.0
C138 C 0.79636 0.33444 0.76207 0.0
C139 C 0.81464 0.33151 0.75101 0.0
C140 C 0.81868 0.31186 0.74107 0.0
C141 C 0.80484 0.29545 0.74214 0.0
C142 C 0.76565 0.22873 0.72522 0.0
C143 C 0.78304 0.22792 0.71203 0.0
C144 C 0.6863 0.73098 0.79347 0.0
C145 C 0.68718 0.71547 0.81064 0.0
C146 C 0.7049 0.70407 0.81358 0.0
C147 C 0.7214 0.70821 0.79987 0.0
H148 H 0.77701 0.6882 0.78795 0.0
H149 H 0.80656 0.66701 0.79368 0.0
H150 H 0.83786 0.70482 0.74399 0.0
H151 H 0.80799 0.72593 0.7378 0.0
H152 H 0.7838 0.76336 0.7119 0.0
H153 H 0.78224 0.79249 0.68466 0.0
H154 H 0.72083 0.80306 0.70234 0.0
H155 H 0.72241 0.77435 0.72978 0.0
H156 H 0.70156 0.74725 0.76679 0.0
H157 H 0.67279 0.73985 0.79053 0.0
H158 H 0.70619 0.69222 0.82682 0.0
H159 H 0.73484 0.69923 0.80283 0.0
N160 N 0.75527 0.71732 0.77147 0.0
N161 N 0.77101 0.73746 0.74318 0.0
N162 N 0.73788 0.74439 0.75299 0.0
C163 C 0.77168 0.72156 0.75885 0.0
C164 C 0.75411 0.74896 0.74015 0.0
C165 C 0.73832 0.72861 0.76869 0.0
C166 C 0.79001 0.70886 0.76236 0.0
C167 C 0.79014 0.69212 0.7782 0.0
C168 C 0.8072 0.67999 0.78165 0.0
C169 C 0.82466 0.68424 0.76941 0.0
C170 C 0.8246 0.70098 0.75356 0.0
C171 C 0.80749 0.71315 0.75008 0.0
C172 C 0.75326 0.76645 0.72318 0.0
C173 C 0.76995 0.77188 0.71 0.0
C174 C 0.76903 0.78853 0.69426 0.0
C175 C 0.75142 0.80019 0.69132 0.0
C176 C 0.73473 0.79467 0.70439 0.0
C177 C 0.73563 0.77805 0.72008 0.0
C178 C 0.72061 0.72389 0.78287 0.0
C179 C 0.7028 0.73515 0.77977 0.0
C180 C 0.76598 0.21853 0.31523 0.0
C181 C 0.74938 0.20492 0.31616 0.0
C182 C 0.73394 0.20798 0.30043 0.0
C183 C 0.73496 0.22424 0.28432 0.0
H184 H 0.70012 0.2555 0.23852 0.0
H185 H 0.67139 0.26247 0.21452 0.0
H186 H 0.70464 0.31049 0.17842 0.0
H187 H 0.73323 0.30393 0.20265 0.0
H188 H 0.77504 0.31564 0.2177 0.0
H189 H 0.80433 0.33739 0.21199 0.0
H190 H 0.83549 0.30162 0.26341 0.0
H191 H 0.80585 0.2799 0.26956 0.0
H192 H 0.78001 0.245 0.29889 0.0
H193 H 0.77806 0.21683 0.32723 0.0
H194 H 0.7211 0.19761 0.30032 0.0
H195 H 0.72274 0.22597 0.2725 0.0
N196 N 0.73628 0.2592 0.25291 0.0
N197 N 0.7535 0.28651 0.2345 0.0
N198 N 0.76915 0.26709 0.2634 0.0
C199 C 0.73669 0.27484 0.23705 0.0
C200 C 0.7698 0.28282 0.24752 0.0
C201 C 0.75239 0.25518 0.26617 0.0
C202 C 0.71907 0.27911 0.22256 0.0
C203 C 0.70134 0.26759 0.22551 0.0
C204 C 0.68486 0.27151 0.21166 0.0
C205 C 0.6857 0.28703 0.19451 0.0
C206 C 0.70337 0.29863 0.19166 0.0
C207 C 0.71984 0.29474 0.2055 0.0
C208 C 0.78798 0.29592 0.24414 0.0
C209 C 0.78808 0.31228 0.22785 0.0
C210 C 0.80499 0.32473 0.22441 0.0
C211 C 0.82235 0.32121 0.23712 0.0
C212 C 0.82231 0.30489 0.25345 0.0
C213 C 0.80533 0.29237 0.25691 0.0
C214 C 0.75153 0.23788 0.28337 0.0
C215 C 0.76706 0.23478 0.29901 0.0
C216 C 0.2779 0.21172 0.70038 0.0
C217 C 0.26132 0.20541 0.68754 0.0
C218 C 0.2433 0.21631 0.69047 0.0
C219 C 0.24188 0.23296 0.70602 0.0
H220 H 0.20318 0.27962 0.73144 0.0
H221 H 0.17295 0.30027 0.73712 0.0
H222 H 0.20221 0.33575 0.79002 0.0
H223 H 0.23209 0.31507 0.78476 0.0
H224 H 0.27464 0.30599 0.79904 0.0
H225 H 0.30296 0.31362 0.82333 0.0
H226 H 0.33792 0.26765 0.78704 0.0
H227 H 0.30948 0.25961 0.763 0.0
H228 H 0.28964 0.2326 0.72543 0.0
H229 H 0.2921 0.20395 0.69831 0.0
H230 H 0.23017 0.21174 0.68104 0.0
H231 H 0.22773 0.24085 0.70796 0.0
N232 N 0.23989 0.26757 0.73869 0.0
N233 N 0.25498 0.28786 0.76719 0.0
N234 N 0.2731 0.26139 0.74896 0.0
C235 C 0.23876 0.28332 0.75435 0.0
C236 C 0.27219 0.27703 0.76464 0.0
C237 C 0.25707 0.25651 0.7359 0.0
C238 C 0.22015 0.2956 0.75762 0.0
C239 C 0.20314 0.29177 0.74434 0.0
C240 C 0.18583 0.30368 0.74752 0.0
C241 C 0.18511 0.31963 0.7641 0.0
C242 C 0.20209 0.32337 0.77738 0.0
C243 C 0.21934 0.31154 0.7742 0.0
C244 C 0.28968 0.2821 0.77905 0.0
C245 C 0.28835 0.2975 0.79614 0.0
C246 C 0.30466 0.302 0.81003 0.0
C247 C 0.32273 0.29125 0.80717 0.0
C248 C 0.32414 0.27602 0.78993 0.0
C249 C 0.30782 0.27149 0.77605 0.0
C250 C 0.25845 0.23912 0.71902 0.0
C251 C 0.27649 0.2283 0.71589 0.0
C252 C 0.20388 0.6797 0.22852 0.0
C253 C 0.18552 0.68577 0.23766 0.0
C254 C 0.18435 0.70497 0.24959 0.0
C255 C 0.20127 0.71768 0.25254 0.0
H256 H 0.22548 0.76771 0.29157 0.0
H257 H 0.22718 0.79717 0.31816 0.0
H258 H 0.28837 0.80822 0.29949 0.0
H259 H 0.28665 0.77922 0.2727 0.0
H260 H 0.30776 0.75114 0.23725 0.0
H261 H 0.3366 0.74345 0.21387 0.0
H262 H 0.30319 0.69512 0.17876 0.0
H263 H 0.27449 0.7024 0.20243 0.0
H264 H 0.23454 0.68715 0.22392 0.0
H265 H 0.20522 0.66514 0.21903 0.0
H266 H 0.17041 0.70999 0.25695 0.0
H267 H 0.19991 0.73232 0.2619 0.0
N268 N 0.23826 0.74128 0.26102 0.0
N269 N 0.27131 0.74852 0.25076 0.0
N270 N 0.25418 0.72056 0.2336 0.0
C271 C 0.25506 0.75317 0.26348 0.0
C272 C 0.27099 0.73227 0.23577 0.0
C273 C 0.23775 0.72488 0.24609 0.0
C274 C 0.2559 0.77102 0.27987 0.0
C275 C 0.2393 0.77642 0.29309 0.0
C276 C 0.2403 0.79326 0.30846 0.0
C277 C 0.2579 0.80513 0.31096 0.0
C278 C 0.27448 0.79967 0.29778 0.0
C279 C 0.27349 0.78288 0.28246 0.0
C280 C 0.28872 0.72744 0.22175 0.0
C281 C 0.30654 0.73883 0.2246 0.0
C282 C 0.32308 0.73449 0.2111 0.0
C283 C 0.32223 0.71869 0.19438 0.0
C284 C 0.30448 0.70719 0.19167 0.0
C285 C 0.28795 0.71149 0.20519 0.0
C286 C 0.21966 0.71157 0.24336 0.0
C287 C 0.22069 0.69245 0.23125 0.0
C288 C 0.97945 0.47448 0.226 0.0
C289 C 0.02681 0.5339 0.22652 0.0
O290 O 0.98476 0.48037 0.24588 0.0
Zn291 Zn 0.00333 0.50361 0.26152 0.0
O292 O 0.98641 0.48412 0.20874 0.0
Zn293 Zn 0.00293 0.5044 0.22512 0.0
O294 O 0.02509 0.48452 0.24011 0.0
O295 O 0.02266 0.48631 0.27738 0.0
O296 O 0.01909 0.52536 0.20908 0.0
O297 O 0.02196 0.52714 0.24628 0.0
O298 O 0.98426 0.52039 0.27834 0.0
O299 O 0.98121 0.52367 0.24125 0.0
C300 C 0.03119 0.47898 0.25986 0.0
C301 C 0.97547 0.52846 0.26129 0.0
C302 C 0.97659 0.47852 0.74273 0.0
C303 C 0.03266 0.52788 0.74276 0.0
O304 O 0.98289 0.48316 0.76262 0.0
Zn305 Zn 0.00517 0.50237 0.77819 0.0
O306 O 0.98502 0.48663 0.72545 0.0
Zn307 Zn 0.00469 0.50312 0.74183 0.0
O308 O 0.02329 0.47929 0.75653 0.0
O309 O 0.02156 0.4815 0.79378 0.0
O310 O 0.02377 0.52045 0.72547 0.0
O311 O 0.02698 0.52233 0.76266 0.0
O312 O 0.98916 0.52254 0.79512 0.0
O313 O 0.98655 0.5263 0.75805 0.0
C314 C 0.02857 0.47264 0.77619 0.0
C315 C 0.98176 0.53213 0.77809 0.0
C316 C 0.2295 0.97787 0.53059 0.0
C317 C 0.22891 0.03149 0.47087 0.0
O318 O 0.21433 0.98639 0.52155 0.0
Zn319 Zn 0.22858 0.00471 0.50078 0.0
O320 O 0.24692 0.98344 0.52407 0.0
Zn321 Zn 0.26037 0.00468 0.50024 0.0
O322 O 0.27501 0.02407 0.51976 0.0
O323 O 0.24251 0.02691 0.5232 0.0
O324 O 0.24645 0.02588 0.47684 0.0
O325 O 0.21391 0.02304 0.48043 0.0
O326 O 0.24173 0.98242 0.478 0.0
O327 O 0.27433 0.98529 0.48024 0.0
C328 C 0.26005 0.03284 0.5289 0.0
C329 C 0.25905 0.97646 0.47169 0.0
C330 C 0.53144 0.73894 0.03004 0.0
C331 C 0.47788 0.73859 0.97401 0.0
O332 O 0.52583 0.72023 0.02453 0.0
Zn333 Zn 0.50456 0.70555 0.00244 0.0
O334 O 0.52301 0.75488 0.02102 0.0
Zn335 Zn 0.50453 0.73933 0.00213 0.0
O336 O 0.4851 0.72492 0.02642 0.0
O337 O 0.4875 0.69023 0.02344 0.0
O338 O 0.48603 0.75467 0.98305 0.0
O339 O 0.48354 0.71995 0.97977 0.0
O340 O 0.5215 0.69006 0.9818 0.0
O341 O 0.52388 0.72474 0.97795 0.0
C342 C 0.47985 0.70632 0.03288 0.0
C343 C 0.52907 0.70608 0.97189 0.0
C344 C 0.75203 0.97223 0.52983 0.0
C345 C 0.75112 0.03082 0.47467 0.0
O346 O 0.73676 0.98112 0.52138 0.0
Zn347 Zn 0.75073 1.0014 0.50222 0.0
O348 O 0.76938 0.97863 0.52387 0.0
Zn349 Zn 0.78255 0.00196 0.50188 0.0
O350 O 0.79698 0.0198 0.52292 0.0
O351 O 0.76439 0.02157 0.5267 0.0
O352 O 0.76863 0.02483 0.4803 0.0
O353 O 0.73613 0.02152 0.48335 0.0
O354 O 0.76443 0.98121 0.47786 0.0
O355 O 0.79699 0.98477 0.48042 0.0
C356 C 0.78185 0.02728 0.53295 0.0
C357 C 0.78191 0.97623 0.47117 0.0
C358 C 0.52887 0.29959 0.03088 0.0
C359 C 0.47984 0.30136 0.96954 0.0
O360 O 0.52337 0.28114 0.02432 0.0
Zn361 Zn 0.50373 0.26737 0.99979 0.0
O362 O 0.52148 0.31591 0.02145 0.0
Zn363 Zn 0.50429 0.30115 1.0003 0.0
O364 O 0.48283 0.2866 0.0223 0.0
O365 O 0.48483 0.25194 0.01836 0.0
O366 O 0.48759 0.31717 0.97956 0.0
O367 O 0.48476 0.28257 0.97559 0.0
O368 O 0.5219 0.25195 0.98057 0.0
O369 O 0.52525 0.28664 0.97782 0.0
C370 C 0.47681 0.26794 0.02757 0.0
C371 C 0.53052 0.26798 0.97186 0.0
H372 H 0.18505 0.35874 0.29218 0.0
H373 H 0.15717 0.38334 0.29528 0.0
H374 H 0.1474 0.37918 0.22317 0.0
H375 H 0.17487 0.35408 0.22001 0.0
H376 H 0.14926 0.4227 0.27424 0.0
H377 H 0.09368 0.3615 0.25068 0.0
H378 H 0.11889 0.35504 0.25849 0.0
H379 H 0.11339 0.3647 0.23046 0.0
C380 C 0.17696 0.36307 0.27697 0.0
C381 C 0.18202 0.35426 0.25588 0.0
C382 C 0.16112 0.3772 0.27877 0.0
C383 C 0.15001 0.38272 0.25953 0.0
C384 C 0.15558 0.37478 0.23829 0.0
H385 H 0.05002 0.45878 0.22544 0.0
H386 H 0.07879 0.43562 0.22767 0.0
C387 C 0.17143 0.36063 0.23647 0.0
C388 C 0.13222 0.39629 0.26177 0.0
H389 H 0.08215 0.39698 0.25261 0.0
C390 C 0.13454 0.41708 0.2697 0.0
C391 C 0.11305 0.38877 0.25605 0.0
C392 C 0.1095 0.36622 0.24865 0.0
C393 C 0.11825 0.43086 0.27116 0.0
C394 C 0.09919 0.4235 0.26481 0.0
C395 C 0.09682 0.40256 0.25743 0.0
C396 C 0.08171 0.43764 0.2641 0.0
C397 C 0.12162 0.45339 0.27867 0.0
C398 C 0.07367 0.44629 0.28396 0.0
C399 C 0.05708 0.4596 0.28278 0.0
C400 C 0.04833 0.46443 0.26172 0.0
C401 C 0.05638 0.45549 0.24196 0.0
C402 C 0.07284 0.44221 0.24316 0.0
H403 H 0.13766 0.45756 0.27926 0.0
H404 H 0.11393 0.4646 0.26709 0.0
H405 H 0.11535 0.45549 0.2959 0.0
H406 H 0.08016 0.44267 0.30032 0.0
H407 H 0.05121 0.4662 0.2983 0.0
H408 H 0.1759 0.65387 0.77979 0.0
H409 H 0.14875 0.6282 0.77648 0.0
H410 H 0.15832 0.62476 0.70432 0.0
H411 H 0.18584 0.64996 0.70756 0.0
H412 H 0.11445 0.63508 0.74998 0.0
H413 H 0.15408 0.56218 0.72339 0.0
H414 H 0.16672 0.5844 0.73618 0.0
H415 H 0.15938 0.58552 0.70691 0.0
C416 C 0.17255 0.64726 0.7633 0.0
C417 C 0.18301 0.65396 0.74393 0.0
C418 C 0.15695 0.63272 0.76141 0.0
C419 C 0.15163 0.62449 0.74018 0.0
C420 C 0.16236 0.63069 0.7209 0.0
H421 H 0.05196 0.54068 0.70386 0.0
H422 H 0.08052 0.56494 0.70111 0.0
C423 C 0.17795 0.64525 0.72276 0.0
C424 C 0.13398 0.61059 0.73808 0.0
H425 H 0.11894 0.56069 0.72376 0.0
C426 C 0.11543 0.61882 0.74423 0.0
C427 C 0.13529 0.58948 0.7303 0.0
C428 C 0.15494 0.57974 0.72396 0.0
C429 C 0.09815 0.60642 0.74309 0.0
C430 C 0.09953 0.58515 0.73593 0.0
C431 C 0.11797 0.57705 0.72918 0.0
C432 C 0.08226 0.57065 0.73719 0.0
C433 C 0.07855 0.61617 0.74963 0.0
C434 C 0.07403 0.56573 0.75837 0.0
C435 C 0.05788 0.55197 0.76 0.0
C436 C 0.04961 0.54274 0.74046 0.0
C437 C 0.05793 0.54761 0.71919 0.0
C438 C 0.07424 0.5614 0.7176 0.0
H439 H 0.07906 0.63373 0.74852 0.0
H440 H 0.06634 0.61029 0.73862 0.0
H441 H 0.07502 0.61177 0.76741 0.0
H442 H 0.08023 0.57244 0.77371 0.0
H443 H 0.05192 0.54855 0.77667 0.0
H444 H 0.83212 0.65326 0.22559 0.0
H445 H 0.85938 0.62793 0.22906 0.0
H446 H 0.84874 0.62278 0.30094 0.0
H447 H 0.82108 0.64764 0.29754 0.0
H448 H 0.89319 0.63487 0.25629 0.0
H449 H 0.85396 0.56069 0.28109 0.0
H450 H 0.84125 0.58294 0.2684 0.0
H451 H 0.84824 0.58362 0.29778 0.0
C452 C 0.83524 0.64634 0.24204 0.0
C453 C 0.82444 0.65247 0.26129 0.0
C454 C 0.85092 0.63199 0.24402 0.0
C455 C 0.85599 0.62339 0.26523 0.0
C456 C 0.8449 0.629 0.28437 0.0
H457 H 0.95597 0.53972 0.30047 0.0
H458 H 0.92732 0.56359 0.30378 0.0
C459 C 0.82922 0.64336 0.28242 0.0
C460 C 0.87376 0.60977 0.26745 0.0
H461 H 0.88909 0.55976 0.28091 0.0
C462 C 0.8923 0.61846 0.2617 0.0
C463 C 0.87256 0.58846 0.27481 0.0
C464 C 0.85294 0.57825 0.28073 0.0
C465 C 0.90967 0.60631 0.26278 0.0
C466 C 0.9084 0.58482 0.26945 0.0
C467 C 0.88997 0.57627 0.27586 0.0
C468 C 0.92576 0.57059 0.26789 0.0
C469 C 0.92924 0.61655 0.25666 0.0
C470 C 0.93414 0.56652 0.24664 0.0
C471 C 0.95034 0.553 0.24469 0.0
C472 C 0.95853 0.54313 0.26397 0.0
C473 C 0.95007 0.54715 0.28532 0.0
C474 C 0.93371 0.56072 0.28724 0.0
H475 H 0.92861 0.63405 0.25832 0.0
H476 H 0.94144 0.61045 0.26754 0.0
H477 H 0.93285 0.61284 0.23876 0.0
H478 H 0.92801 0.57371 0.23146 0.0
H479 H 0.95639 0.55024 0.22796 0.0
H480 H 0.85432 0.32851 0.75919 0.0
H481 H 0.87962 0.35598 0.75454 0.0
H482 H 0.83442 0.40064 0.73459 0.0
H483 H 0.8089 0.37313 0.73946 0.0
H484 H 0.88935 0.378 0.71565 0.0
H485 H 0.8647 0.4326 0.78372 0.0
H486 H 0.85559 0.40579 0.78151 0.0
H487 H 0.84619 0.42602 0.76292 0.0
C488 C 0.84976 0.34421 0.75388 0.0
C489 C 0.82965 0.3487 0.74967 0.0
C490 C 0.86422 0.35987 0.75122 0.0
C491 C 0.8589 0.38036 0.74432 0.0
C492 C 0.83881 0.38501 0.74028 0.0
H493 H 0.95397 0.47032 0.7048 0.0
H494 H 0.92424 0.44776 0.70256 0.0
C495 C 0.82426 0.36932 0.74309 0.0
C496 C 0.87463 0.39656 0.7411 0.0
H497 H 0.89252 0.44308 0.76225 0.0
C498 C 0.89 0.39234 0.72569 0.0
C499 C 0.87542 0.41518 0.75429 0.0
C500 C 0.85971 0.42018 0.77169 0.0
C501 C 0.90648 0.40589 0.72364 0.0
C502 C 0.90739 0.42436 0.73705 0.0
C503 C 0.8917 0.42894 0.75191 0.0
C504 C 0.92534 0.43799 0.73777 0.0
C505 C 0.92319 0.39979 0.70796 0.0
C506 C 0.93563 0.44014 0.7583 0.0
C507 C 0.95239 0.45306 0.75966 0.0
C508 C 0.9593 0.46414 0.74049 0.0
C509 C 0.9491 0.46186 0.71981 0.0
C510 C 0.93216 0.44895 0.7185 0.0
H511 H 0.92193 0.38308 0.70229 0.0
H512 H 0.92283 0.41012 0.6927 0.0
H513 H 0.93781 0.40198 0.71639 0.0
H514 H 0.93068 0.43177 0.77335 0.0
H515 H 0.9599 0.45438 0.77585 0.0
H516 H 0.2021 0.17951 0.31871 0.0
H517 H 0.19677 0.15152 0.34698 0.0
H518 H 0.25994 0.14811 0.35861 0.0
H519 H 0.26537 0.17642 0.33091 0.0
H520 H 0.21215 0.10964 0.34876 0.0
H521 H 0.23651 0.15771 0.42221 0.0
H522 H 0.23029 0.16931 0.39509 0.0
H523 H 0.25421 0.15735 0.39948 0.0
C524 C 0.21484 0.17288 0.32741 0.0
C525 C 0.23416 0.18028 0.3227 0.0
C526 C 0.21177 0.15683 0.34342 0.0
C527 C 0.22793 0.14804 0.3551 0.0
C528 C 0.24725 0.15498 0.35003 0.0
H529 H 0.25837 0.05246 0.44861 0.0
H530 H 0.25519 0.08059 0.42056 0.0
C531 C 0.25034 0.17098 0.33402 0.0
C532 C 0.22474 0.13161 0.37265 0.0
H533 H 0.23407 0.12034 0.42825 0.0
C534 C 0.21665 0.11201 0.36623 0.0
C535 C 0.23045 0.13491 0.39544 0.0
C536 C 0.23817 0.15603 0.40356 0.0
C537 C 0.21517 0.0952 0.3818 0.0
C538 C 0.22178 0.09824 0.4043 0.0
C539 C 0.22908 0.1181 0.41092 0.0
C540 C 0.22307 0.08058 0.42071 0.0
C541 C 0.20747 0.07401 0.37393 0.0
C542 C 0.20598 0.07124 0.43005 0.0
C543 C 0.20771 0.05505 0.44625 0.0
C544 C 0.22658 0.04806 0.45328 0.0
C545 C 0.2436 0.05742 0.44363 0.0
C546 C 0.24184 0.07353 0.42759 0.0
H547 H 0.20509 0.0736 0.35529 0.0
H548 H 0.21804 0.06128 0.37871 0.0
H549 H 0.19311 0.07054 0.3824 0.0
H550 H 0.19136 0.07667 0.42507 0.0
H551 H 0.19434 0.04818 0.45339 0.0
H552 H 0.35385 0.74277 0.80789 0.0
H553 H 0.38135 0.7435 0.83507 0.0
H554 H 0.33943 0.74473 0.89032 0.0
H555 H 0.31188 0.74337 0.86317 0.0
H556 H 0.39225 0.7719 0.86607 0.0
H557 H 0.37396 0.69615 0.90917 0.0
H558 H 0.36203 0.70432 0.88321 0.0
H559 H 0.35399 0.71486 0.90997 0.0
C560 C 0.35053 0.74318 0.82585 0.0
C561 C 0.33076 0.74285 0.83346 0.0
C562 C 0.36624 0.74359 0.84136 0.0
C563 C 0.36248 0.74381 0.86477 0.0
C564 C 0.34271 0.74397 0.87238 0.0
H565 H 0.45426 0.77322 0.96606 0.0
H566 H 0.42614 0.77567 0.93971 0.0
C567 C 0.32699 0.74326 0.85688 0.0
C568 C 0.3793 0.74395 0.8811 0.0
H569 H 0.39929 0.71704 0.9259 0.0
C570 C 0.39383 0.75988 0.87914 0.0
C571 C 0.38147 0.72812 0.89797 0.0
C572 C 0.36715 0.70978 0.90011 0.0
C573 C 0.41048 0.7604 0.89352 0.0
C574 C 0.41236 0.74489 0.91078 0.0
C575 C 0.39777 0.72903 0.91279 0.0
C576 C 0.42976 0.74404 0.92629 0.0
C577 C 0.42616 0.77714 0.88959 0.0
C578 C 0.44092 0.72536 0.92785 0.0
C579 C 0.45667 0.7238 0.94314 0.0
C580 C 0.46175 0.74095 0.95713 0.0
C581 C 0.45081 0.75981 0.95534 0.0
C582 C 0.4348 0.76126 0.9402 0.0
H583 H 0.42529 0.78385 0.87218 0.0
H584 H 0.4239 0.79028 0.90173 0.0
H585 H 0.4413 0.77065 0.89226 0.0
H586 H 0.43734 0.71187 0.9173 0.0
H587 H 0.46485 0.70908 0.94403 0.0
H588 H 0.77067 0.81174 0.3527 0.0
H589 H 0.77593 0.84176 0.37805 0.0
H590 H 0.79029 0.88151 0.32066 0.0
H591 H 0.7846 0.85156 0.29512 0.0
H592 H 0.80831 0.86633 0.3862 0.0
H593 H 0.74683 0.91501 0.35096 0.0
H594 H 0.75002 0.8875 0.3438 0.0
H595 H 0.7653 0.90746 0.33064 0.0
C596 C 0.77502 0.82687 0.34551 0.0
C597 C 0.77711 0.82939 0.32196 0.0
C598 C 0.77803 0.84399 0.35999 0.0
C599 C 0.78325 0.86394 0.35122 0.0
C600 C 0.78583 0.86639 0.32774 0.0
H601 H 0.81541 0.96606 0.44688 0.0
H602 H 0.81802 0.94001 0.41624 0.0
C603 C 0.78261 0.84929 0.31319 0.0
C604 C 0.78557 0.88211 0.36682 0.0
H605 H 0.76582 0.93012 0.38026 0.0
C606 C 0.79913 0.88037 0.38485 0.0
C607 C 0.77348 0.90032 0.36505 0.0
C608 C 0.75796 0.90269 0.34671 0.0
C609 C 0.8005 0.89605 0.40158 0.0
C610 C 0.7883 0.91419 0.39987 0.0
C611 C 0.77524 0.91624 0.38142 0.0
C612 C 0.78723 0.93014 0.41816 0.0
C613 C 0.81425 0.89258 0.42146 0.0
C614 C 0.76902 0.93351 0.42903 0.0
C615 C 0.76743 0.94847 0.44619 0.0
C616 C 0.78407 0.96038 0.45298 0.0
C617 C 0.80238 0.95701 0.44212 0.0
C618 C 0.80391 0.94209 0.4247 0.0
H619 H 0.81939 0.87591 0.42262 0.0
H620 H 0.82753 0.90289 0.41953 0.0
H621 H 0.80682 0.89677 0.43762 0.0
H622 H 0.75597 0.92444 0.4243 0.0
H623 H 0.75312 0.95057 0.45423 0.0
H624 H 0.6701 0.29576 0.82923 0.0
H625 H 0.64235 0.29419 0.85593 0.0
H626 H 0.65002 0.22669 0.86261 0.0
H627 H 0.67823 0.2282 0.8366 0.0
H628 H 0.60701 0.27147 0.85197 0.0
H629 H 0.64908 0.24614 0.92848 0.0
H630 H 0.66115 0.25637 0.9034 0.0
H631 H 0.6523 0.2295 0.90416 0.0
C632 C 0.66609 0.28062 0.83664 0.0
C633 C 0.67646 0.26213 0.83083 0.0
C634 C 0.65013 0.27973 0.85176 0.0
C635 C 0.64429 0.26036 0.86148 0.0
C636 C 0.6545 0.24185 0.85562 0.0
H637 H 0.54836 0.23127 0.9575 0.0
H638 H 0.57535 0.22792 0.92978 0.0
C639 C 0.67047 0.24273 0.84053 0.0
C640 C 0.6272 0.25954 0.8773 0.0
H641 H 0.61409 0.24767 0.93184 0.0
C642 C 0.60856 0.26626 0.86942 0.0
C643 C 0.62923 0.2526 0.90003 0.0
C644 C 0.64904 0.24591 0.90965 0.0
C645 C 0.5919 0.26632 0.8837 0.0
C646 C 0.59401 0.25976 0.90653 0.0
C647 C 0.61253 0.25261 0.9143 0.0
C648 C 0.57748 0.26153 0.92295 0.0
C649 C 0.57215 0.27337 0.87424 0.0
C650 C 0.56996 0.28153 0.92843 0.0
C651 C 0.55468 0.2835 0.94422 0.0
C652 C 0.5466 0.2655 0.95495 0.0
C653 C 0.5542 0.24543 0.94948 0.0
C654 C 0.56962 0.24349 0.93369 0.0
H655 H 0.57176 0.2723 0.85545 0.0
H656 H 0.5598 0.26368 0.8813 0.0
H657 H 0.56957 0.29013 0.87895 0.0
H658 H 0.57608 0.29568 0.92064 0.0
H659 H 0.54926 0.29921 0.94804 0.0
H660 H 0.26628 0.83378 0.67165 0.0
H661 H 0.26093 0.86253 0.64446 0.0
H662 H 0.19769 0.85807 0.65514 0.0
H663 H 0.20293 0.82967 0.68287 0.0
H664 H 0.23781 0.85929 0.60426 0.0
H665 H 0.20966 0.92201 0.66185 0.0
H666 H 0.22289 0.89906 0.67217 0.0
H667 H 0.19741 0.8967 0.66351 0.0
C668 C 0.25126 0.83917 0.66854 0.0
C669 C 0.23504 0.82948 0.67945 0.0
C670 C 0.24822 0.85549 0.6529 0.0
C671 C 0.22894 0.86251 0.64798 0.0
C672 C 0.2127 0.85306 0.65896 0.0
H673 H 0.19528 0.96126 0.54915 0.0
H674 H 0.1928 0.93258 0.57734 0.0
C675 C 0.21572 0.8367 0.67461 0.0
C676 C 0.22592 0.8791 0.63056 0.0
H677 H 0.21126 0.93035 0.62284 0.0
C678 C 0.2319 0.87479 0.60829 0.0
C679 C 0.21801 0.89919 0.63587 0.0
C680 C 0.21172 0.90469 0.65966 0.0
C681 C 0.23061 0.89023 0.59124 0.0
C682 C 0.22343 0.91058 0.59673 0.0
C683 C 0.21674 0.91469 0.61878 0.0
C684 C 0.22457 0.92823 0.58028 0.0
C685 C 0.2372 0.88476 0.56754 0.0
C686 C 0.24322 0.93546 0.57308 0.0
C687 C 0.24469 0.95172 0.55717 0.0
C688 C 0.22751 0.96119 0.54813 0.0
C689 C 0.20878 0.95424 0.55573 0.0
C690 C 0.20733 0.9379 0.5718 0.0
H691 H 0.23704 0.86738 0.56469 0.0
H692 H 0.22753 0.89246 0.55467 0.0
H693 H 0.25262 0.89053 0.56494 0.0
H694 H 0.25669 0.92841 0.57974 0.0
H695 H 0.25937 0.95673 0.55184 0.0
H696 H 0.68305 0.77779 0.16034 0.0
H697 H 0.65429 0.7793 0.13499 0.0
H698 H 0.64322 0.71286 0.14669 0.0
H699 H 0.67142 0.71139 0.17276 0.0
H700 H 0.64662 0.75763 0.09561 0.0
H701 H 0.5894 0.73888 0.16017 0.0
H702 H 0.61453 0.74611 0.16761 0.0
H703 H 0.6088 0.7195 0.15893 0.0
C704 C 0.67436 0.76355 0.15775 0.0
C705 C 0.67947 0.7445 0.16876 0.0
C706 C 0.65801 0.76442 0.14313 0.0
C707 C 0.64639 0.7463 0.13929 0.0
C708 C 0.65171 0.72715 0.1498 0.0
H709 H 0.5498 0.70803 0.0546 0.0
H710 H 0.57742 0.71178 0.08108 0.0
C711 C 0.66802 0.72627 0.16447 0.0
C712 C 0.62892 0.74731 0.12398 0.0
H713 H 0.57907 0.73733 0.12148 0.0
C714 C 0.63181 0.75342 0.10129 0.0
C715 C 0.60958 0.74193 0.13149 0.0
C716 C 0.60531 0.73644 0.15593 0.0
C717 C 0.616 0.75348 0.08571 0.0
C718 C 0.59681 0.7475 0.0931 0.0
C719 C 0.59383 0.74186 0.11588 0.0
C720 C 0.57985 0.74574 0.07719 0.0
C721 C 0.62005 0.75919 0.06128 0.0
C722 C 0.5719 0.76369 0.06642 0.0
C723 C 0.556 0.76164 0.05123 0.0
C724 C 0.54784 0.74158 0.04658 0.0
C725 C 0.55575 0.72372 0.05768 0.0
C726 C 0.57153 0.7258 0.07287 0.0
H727 H 0.63622 0.75985 0.05754 0.0
H728 H 0.61294 0.74754 0.04976 0.0
H729 H 0.61361 0.77497 0.05753 0.0
H730 H 0.57798 0.77927 0.0698 0.0
H731 H 0.55023 0.7757 0.04302 0.0
H732 H 0.78707 0.19737 0.65229 0.0
H733 H 0.79217 0.16866 0.62531 0.0
H734 H 0.77007 0.12362 0.67437 0.0
H735 H 0.76551 0.15219 0.70182 0.0
H736 H 0.80489 0.11024 0.6507 0.0
H737 H 0.74561 0.13922 0.59273 0.0
H738 H 0.76446 0.15836 0.59956 0.0
H739 H 0.74825 0.14861 0.62143 0.0
C740 C 0.78353 0.18133 0.65748 0.0
C741 C 0.77581 0.17707 0.67919 0.0
C742 C 0.78631 0.16498 0.64197 0.0
C743 C 0.78128 0.1441 0.6478 0.0
C744 C 0.77397 0.13968 0.66957 0.0
H745 H 0.75301 0.04021 0.56182 0.0
H746 H 0.75495 0.06798 0.59018 0.0
C747 C 0.7712 0.15603 0.68513 0.0
C748 C 0.78302 0.12696 0.63093 0.0
H749 H 0.76428 0.1099 0.58046 0.0
C750 C 0.79608 0.11013 0.63529 0.0
C751 C 0.77137 0.12689 0.61098 0.0
C752 C 0.7565 0.14412 0.6059 0.0
C753 C 0.79771 0.09309 0.62019 0.0
C754 C 0.78613 0.0931 0.60018 0.0
C755 C 0.77324 0.11004 0.59577 0.0
C756 C 0.78597 0.07508 0.58425 0.0
C757 C 0.81132 0.07493 0.62604 0.0
C758 C 0.80291 0.06966 0.57169 0.0
C759 C 0.80189 0.05361 0.5554 0.0
C760 C 0.78385 0.04297 0.55134 0.0
C761 C 0.76711 0.04818 0.56438 0.0
C762 C 0.76817 0.06405 0.58064 0.0
H763 H 0.8162 0.0754 0.64403 0.0
H764 H 0.80385 0.05953 0.62283 0.0
H765 H 0.82473 0.07578 0.61515 0.0
H766 H 0.81672 0.07822 0.57402 0.0
H767 H 0.815 0.05 0.54555 0.0
H768 H 0.31018 0.26364 0.13761 0.0
H769 H 0.33729 0.26091 0.1101 0.0
H770 H 0.38002 0.26294 0.16466 0.0
H771 H 0.35297 0.26504 0.19219 0.0
H772 H 0.36617 0.28726 0.1001 0.0
H773 H 0.39993 0.21271 0.1306 0.0
H774 H 0.37603 0.22171 0.14036 0.0
H775 H 0.39854 0.23199 0.15275 0.0
C776 C 0.32538 0.26347 0.14369 0.0
C777 C 0.32949 0.26442 0.16702 0.0
C778 C 0.34084 0.26183 0.12799 0.0
C779 C 0.36071 0.26123 0.13531 0.0
C780 C 0.36482 0.26263 0.15861 0.0
H781 H 0.46287 0.29747 0.0569 0.0
H782 H 0.43453 0.29458 0.08238 0.0
C783 C 0.34937 0.26399 0.17432 0.0
C784 C 0.37713 0.2602 0.11855 0.0
H785 H 0.42001 0.23404 0.10572 0.0
C786 C 0.37782 0.27548 0.10121 0.0
C787 C 0.39217 0.24457 0.11967 0.0
C788 C 0.39153 0.22669 0.1367 0.0
C789 C 0.39343 0.27604 0.08549 0.0
C790 C 0.40916 0.26132 0.08757 0.0
C791 C 0.40813 0.24554 0.10436 0.0
C792 C 0.42703 0.26247 0.07287 0.0
C793 C 0.39278 0.29233 0.0667 0.0
C794 C 0.43291 0.24499 0.05986 0.0
C795 C 0.44942 0.24647 0.04549 0.0
C796 C 0.46025 0.26549 0.04387 0.0
C797 C 0.45467 0.28269 0.05748 0.0
C798 C 0.43836 0.28112 0.07196 0.0
H799 H 0.3773 0.29735 0.06302 0.0
H800 H 0.40125 0.30658 0.07199 0.0
H801 H 0.39945 0.28615 0.05085 0.0
H802 H 0.42448 0.23035 0.06047 0.0
H803 H 0.45338 0.23293 0.03526 0.0
H804 H 0.83947 0.6687 0.80951 0.0
H805 H 0.86789 0.64517 0.81502 0.0
H806 H 0.87902 0.64606 0.74306 0.0
H807 H 0.85051 0.66937 0.73734 0.0
H808 H 0.87315 0.60494 0.79651 0.0
H809 H 0.93382 0.6591 0.77 0.0
H810 H 0.90923 0.66839 0.77695 0.0
H811 H 0.91412 0.65716 0.74956 0.0
C812 C 0.84795 0.66389 0.79483 0.0
C813 C 0.84267 0.67095 0.77296 0.0
C814 C 0.86426 0.65053 0.79804 0.0
C815 C 0.87574 0.64409 0.7795 0.0
C816 C 0.87064 0.65122 0.75768 0.0
H817 H 0.96581 0.55663 0.74471 0.0
H818 H 0.94087 0.58421 0.74811 0.0
C819 C 0.85433 0.66456 0.75444 0.0
C820 C 0.89241 0.62903 0.78275 0.0
H821 H 0.94187 0.62229 0.77233 0.0
C822 C 0.88825 0.6088 0.79154 0.0
C823 C 0.91209 0.63415 0.77634 0.0
C824 C 0.91767 0.65595 0.76789 0.0
C825 C 0.90305 0.59319 0.79301 0.0
C826 C 0.92259 0.59809 0.78585 0.0
C827 C 0.92688 0.61856 0.7778 0.0
C828 C 0.93832 0.58172 0.78456 0.0
C829 C 0.89744 0.57129 0.80117 0.0
C830 C 0.94545 0.57129 0.80403 0.0
C831 C 0.95982 0.55534 0.80216 0.0
C832 C 0.96729 0.54963 0.78078 0.0
C833 C 0.96037 0.56049 0.76145 0.0
C834 C 0.94611 0.57635 0.76334 0.0
H835 H 0.88108 0.56906 0.80207 0.0
H836 H 0.90372 0.55904 0.78981 0.0
H837 H 0.90366 0.5687 0.81838 0.0
H838 H 0.93986 0.57543 0.82063 0.0
H839 H 0.96488 0.54735 0.81738 0.0
H840 H 0.84768 0.33753 0.26913 0.0
H841 H 0.87586 0.36149 0.26309 0.0
H842 H 0.86552 0.35992 0.19098 0.0
H843 H 0.83749 0.33577 0.19679 0.0
H844 H 0.91089 0.35624 0.23607 0.0
H845 H 0.86454 0.4237 0.20635 0.0
H846 H 0.85412 0.40108 0.22094 0.0
H847 H 0.86102 0.39911 0.19164 0.0
C848 C 0.85154 0.34205 0.25195 0.0
C849 C 0.84019 0.33484 0.23346 0.0
C850 C 0.86759 0.35584 0.24854 0.0
C851 C 0.87257 0.36276 0.22662 0.0
C852 C 0.86167 0.35514 0.20808 0.0
H853 H 0.96104 0.45949 0.1874 0.0
H854 H 0.9362 0.43093 0.18501 0.0
C855 C 0.84563 0.34135 0.21145 0.0
C856 C 0.88907 0.37811 0.22328 0.0
H857 H 0.89919 0.42902 0.20703 0.0
C858 C 0.90836 0.37212 0.22962 0.0
C859 C 0.88575 0.39875 0.21467 0.0
C860 C 0.86524 0.4062 0.20814 0.0
C861 C 0.92438 0.38633 0.22788 0.0
C862 C 0.92096 0.40721 0.22001 0.0
C863 C 0.90179 0.41299 0.213 0.0
C864 C 0.93663 0.42379 0.22092 0.0
C865 C 0.94485 0.37885 0.23454 0.0
C866 C 0.94493 0.42936 0.24187 0.0
C867 C 0.95899 0.44556 0.24329 0.0
C868 C 0.96505 0.45675 0.22378 0.0
C869 C 0.95678 0.45113 0.20272 0.0
C870 C 0.94258 0.43486 0.20133 0.0
H871 H 0.94616 0.36138 0.23309 0.0
H872 H 0.95648 0.3864 0.22387 0.0
H873 H 0.94771 0.38312 0.25248 0.0
H874 H 0.94025 0.42141 0.25728 0.0
H875 H 0.96495 0.44945 0.25983 0.0
H876 H 0.1687 0.33293 0.8041 0.0
H877 H 0.14028 0.35646 0.80929 0.0
H878 H 0.13207 0.35965 0.73686 0.0
H879 H 0.16057 0.33629 0.73148 0.0
H880 H 0.13644 0.39762 0.79289 0.0
H881 H 0.07603 0.34649 0.75983 0.0
H882 H 0.10017 0.33626 0.76748 0.0
H883 H 0.09656 0.34933 0.74064 0.0
C884 C 0.16084 0.3386 0.78925 0.0
C885 C 0.16695 0.33272 0.76735 0.0
C886 C 0.14454 0.35198 0.79228 0.0
C887 C 0.1339 0.35961 0.7735 0.0
C888 C 0.13978 0.35357 0.75163 0.0
H889 H 0.04501 0.45058 0.74141 0.0
H890 H 0.06983 0.4227 0.74334 0.0
C891 C 0.15609 0.3402 0.74858 0.0
C892 C 0.11736 0.37482 0.77667 0.0
H893 H 0.0684 0.38314 0.76441 0.0
C894 C 0.12149 0.39438 0.78694 0.0
C895 C 0.09786 0.37053 0.76895 0.0
C896 C 0.09229 0.34943 0.75881 0.0
C897 C 0.10687 0.41012 0.78875 0.0
C898 C 0.08751 0.40604 0.78043 0.0
C899 C 0.08325 0.38625 0.77077 0.0
C900 C 0.07192 0.42263 0.77993 0.0
C901 C 0.1125 0.43132 0.79862 0.0
C902 C 0.06459 0.43174 0.79994 0.0
C903 C 0.05031 0.44786 0.79892 0.0
C904 C 0.0431 0.45505 0.77786 0.0
C905 C 0.05024 0.44553 0.75795 0.0
C906 C 0.06443 0.42951 0.75899 0.0
H907 H 0.12887 0.43333 0.79998 0.0
H908 H 0.10646 0.44444 0.7881 0.0
H909 H 0.10611 0.43268 0.81588 0.0
H910 H 0.06992 0.4264 0.81632 0.0
H911 H 0.04506 0.45477 0.81457 0.0
H912 H 0.14776 0.69714 0.22515 0.0
H913 H 0.11901 0.6738 0.21938 0.0
H914 H 0.15462 0.61982 0.23818 0.0
H915 H 0.18339 0.64296 0.24354 0.0
H916 H 0.13258 0.61179 0.20088 0.0
H917 H 0.085 0.64672 0.26779 0.0
H918 H 0.09317 0.66522 0.24655 0.0
H919 H 0.11103 0.65304 0.26514 0.0
C920 C 0.14937 0.68031 0.22824 0.0
C921 C 0.16782 0.67189 0.23484 0.0
C922 C 0.13293 0.66699 0.22496 0.0
C923 C 0.13457 0.64506 0.22861 0.0
C924 C 0.15299 0.63667 0.2352 0.0
H925 H 0.04896 0.55075 0.26055 0.0
H926 H 0.07396 0.57849 0.25828 0.0
C927 C 0.16942 0.64991 0.23826 0.0
C928 C 0.11724 0.63066 0.22558 0.0
H929 H 0.0709 0.61938 0.24593 0.0
C930 C 0.11903 0.6135 0.21063 0.0
C931 C 0.09961 0.63285 0.2384 0.0
C932 C 0.09707 0.65032 0.25553 0.0
C933 C 0.10395 0.59817 0.2086 0.0
C934 C 0.08636 0.60033 0.22149 0.0
C935 C 0.08433 0.61782 0.23593 0.0
C936 C 0.07078 0.58357 0.22216 0.0
C937 C 0.1074 0.57931 0.1935 0.0
C938 C 0.06049 0.57715 0.20257 0.0
C939 C 0.04616 0.56097 0.20377 0.0
C940 C 0.04174 0.55117 0.22463 0.0
C941 C 0.0519 0.55792 0.24418 0.0
C942 C 0.06623 0.57386 0.24294 0.0
H943 H 0.12328 0.57773 0.1887 0.0
H944 H 0.10257 0.56444 0.20199 0.0
H945 H 0.09861 0.5812 0.17771 0.0
H946 H 0.06347 0.58469 0.18641 0.0
H947 H 0.03852 0.55624 0.18843 0.0
H948 H 0.76726 0.80237 0.6485 0.0
H949 H 0.76574 0.832 0.62165 0.0
H950 H 0.73122 0.86783 0.66946 0.0
H951 H 0.73317 0.8386 0.69667 0.0
H952 H 0.73235 0.8519 0.60222 0.0
H953 H 0.77706 0.90813 0.65359 0.0
H954 H 0.77626 0.88009 0.65955 0.0
H955 H 0.75608 0.89682 0.66808 0.0
C956 C 0.75954 0.81664 0.65342 0.0
C957 C 0.75042 0.81811 0.67482 0.0
C958 C 0.75854 0.83349 0.63797 0.0
C959 C 0.74855 0.85221 0.64364 0.0
C960 C 0.73925 0.85366 0.66485 0.0
H961 H 0.71803 0.95398 0.54726 0.0
H962 H 0.71585 0.92496 0.57501 0.0
C963 C 0.74022 0.83683 0.6803 0.0
C964 C 0.7479 0.87021 0.62735 0.0
H965 H 0.76237 0.92169 0.62014 0.0
C966 C 0.73887 0.86718 0.60612 0.0
C967 C 0.75655 0.89008 0.63243 0.0
C968 C 0.7672 0.89401 0.65456 0.0
C969 C 0.73828 0.88349 0.58983 0.0
C970 C 0.74674 0.90344 0.59502 0.0
C971 C 0.75572 0.90645 0.61627 0.0
C972 C 0.74766 0.92097 0.57816 0.0
C973 C 0.72914 0.87907 0.56696 0.0
C974 C 0.76622 0.92861 0.57105 0.0
C975 C 0.76751 0.94517 0.55538 0.0
C976 C 0.75025 0.9546 0.54647 0.0
C977 C 0.73161 0.94702 0.5537 0.0
C978 C 0.73034 0.93037 0.56946 0.0
H979 H 0.72714 0.86183 0.56399 0.0
H980 H 0.71432 0.88668 0.566 0.0
H981 H 0.73848 0.88576 0.55315 0.0
H982 H 0.77978 0.92164 0.57756 0.0
H983 H 0.78213 0.95057 0.55026 0.0
H984 H 0.67146 0.32507 0.17881 0.0
H985 H 0.64345 0.33105 0.15304 0.0
H986 H 0.63275 0.26376 0.15018 0.0
H987 H 0.6608 0.25761 0.17566 0.0
H988 H 0.63836 0.31543 0.10885 0.0
H989 H 0.57787 0.28782 0.16543 0.0
H990 H 0.60241 0.29427 0.17577 0.0
H991 H 0.59769 0.26905 0.16272 0.0
C992 C 0.66318 0.31153 0.17265 0.0
C993 C 0.66834 0.29084 0.17939 0.0
C994 C 0.64712 0.315 0.15803 0.0
C995 C 0.63583 0.29788 0.15001 0.0
C996 C 0.64097 0.27724 0.15662 0.0
H997 H 0.54602 0.26746 0.05472 0.0
H998 H 0.57141 0.26984 0.08405 0.0
C999 C 0.65701 0.27375 0.1712 0.0
C1000 C 0.61918 0.3014 0.13397 0.0
H1001 H 0.56986 0.29107 0.12604 0.0
C1002 C 0.62331 0.31041 0.11268 0.0
C1003 C 0.59956 0.29492 0.13909 0.0
C1004 C 0.59403 0.28617 0.16208 0.0
C1005 C 0.60852 0.31208 0.09593 0.0
C1006 C 0.58907 0.30484 0.10078 0.0
C1007 C 0.5848 0.29656 0.12236 0.0
C1008 C 0.57337 0.30401 0.08316 0.0
C1009 C 0.61403 0.32061 0.07284 0.0
C1010 C 0.56586 0.32252 0.07306 0.0
C1011 C 0.55126 0.32124 0.05614 0.0
C1012 C 0.54393 0.30142 0.04914 0.0
C1013 C 0.55134 0.283 0.0596 0.0
C1014 C 0.56585 0.2843 0.07644 0.0
H1015 H 0.63038 0.32195 0.07062 0.0
H1016 H 0.60797 0.31029 0.05928 0.0
H1017 H 0.60752 0.33661 0.07062 0.0
H1018 H 0.57126 0.33792 0.07827 0.0
H1019 H 0.54581 0.33572 0.04849 0.0
H1020 H 0.2811 0.1679 0.69339 0.0
H1021 H 0.28407 0.13861 0.66666 0.0
H1022 H 0.24744 0.17234 0.61868 0.0
H1023 H 0.24494 0.20204 0.64501 0.0
H1024 H 0.25471 0.11367 0.64896 0.0
H1025 H 0.29478 0.15533 0.57984 0.0
H1026 H 0.29255 0.16615 0.608 0.0
H1027 H 0.27232 0.16839 0.58819 0.0
C1028 C 0.27392 0.16926 0.67701 0.0
C1029 C 0.26288 0.18744 0.67132 0.0
C1030 C 0.27554 0.15243 0.6618 0.0
C1031 C 0.26627 0.15341 0.6405 0.0
C1032 C 0.25508 0.1714 0.63482 0.0
H1033 H 0.23072 0.05294 0.55212 0.0
H1034 H 0.23395 0.08136 0.57964 0.0
C1035 C 0.25344 0.18827 0.65003 0.0
C1036 C 0.26761 0.13522 0.62466 0.0
H1037 H 0.28087 0.12152 0.57076 0.0
C1038 C 0.26058 0.11537 0.63193 0.0
C1039 C 0.27558 0.13731 0.60255 0.0
C1040 C 0.28443 0.15789 0.59422 0.0
C1041 C 0.26063 0.09777 0.61744 0.0
C1042 C 0.26763 0.10014 0.59496 0.0
C1043 C 0.27535 0.11977 0.58794 0.0
C1044 C 0.26603 0.08273 0.57819 0.0
C1045 C 0.25316 0.07678 0.62636 0.0
C1046 C 0.28301 0.07433 0.56776 0.0
C1047 C 0.28123 0.05798 0.55183 0.0
C1048 C 0.26241 0.04994 0.54593 0.0
C1049 C 0.24548 0.05862 0.5563 0.0
C1050 C 0.24728 0.07483 0.57218 0.0
H1051 H 0.25389 0.07602 0.64516 0.0
H1052 H 0.23741 0.07466 0.62126 0.0
H1053 H 0.26187 0.06344 0.61931 0.0
H1054 H 0.29763 0.08032 0.57206 0.0
H1055 H 0.29455 0.05174 0.5441 0.0
H1056 H 0.33623 0.68034 0.1796 0.0
H1057 H 0.36438 0.67385 0.1543 0.0
H1058 H 0.37565 0.741 0.15021 0.0
H1059 H 0.34746 0.74767 0.17515 0.0
H1060 H 0.37003 0.68928 0.10971 0.0
H1061 H 0.43016 0.71631 0.16703 0.0
H1062 H 0.40547 0.71005 0.17703 0.0
H1063 H 0.4105 0.73524 0.16387 0.0
C1064 C 0.34466 0.69374 0.17327 0.0
C1065 C 0.33963 0.71454 0.17952 0.0
C1066 C 0.3608 0.68998 0.15891 0.0
C1067 C 0.37229 0.70691 0.1507 0.0
C1068 C 0.36727 0.72766 0.15681 0.0
H1069 H 0.46235 0.73794 0.05676 0.0
H1070 H 0.43688 0.73498 0.08584 0.0
C1071 C 0.35115 0.73145 0.1711 0.0
C1072 C 0.38907 0.70312 0.13501 0.0
H1073 H 0.4385 0.71321 0.12774 0.0
C1074 C 0.38509 0.69417 0.11373 0.0
C1075 C 0.40869 0.70943 0.1404 0.0
C1076 C 0.41405 0.7181 0.16341 0.0
C1077 C 0.4 0.6925 0.09719 0.0
C1078 C 0.41943 0.69967 0.10226 0.0
C1079 C 0.42357 0.70778 0.12388 0.0
C1080 C 0.4352 0.7008 0.08478 0.0
C1081 C 0.39465 0.6841 0.07406 0.0
C1082 C 0.44289 0.68248 0.07465 0.0
C1083 C 0.45756 0.6841 0.05786 0.0
C1084 C 0.46475 0.70408 0.05102 0.0
C1085 C 0.45715 0.7223 0.06151 0.0
C1086 C 0.44259 0.72066 0.07821 0.0
H1087 H 0.37833 0.68262 0.07171 0.0
H1088 H 0.40067 0.69461 0.06056 0.0
H1089 H 0.40133 0.6682 0.07188 0.0
H1090 H 0.43758 0.66697 0.07974 0.0
H1091 H 0.46315 0.66977 0.05017 0.0
H1092 H 0.77935 0.17908 0.33146 0.0
H1093 H 0.77711 0.15028 0.35922 0.0
H1094 H 0.71451 0.16213 0.36725 0.0
H1095 H 0.71663 0.19126 0.33989 0.0
H1096 H 0.76308 0.15257 0.4056 0.0
H1097 H 0.7179 0.09776 0.3527 0.0
H1098 H 0.73145 0.11986 0.34075 0.0
H1099 H 0.70861 0.12427 0.35564 0.0
C1100 C 0.76513 0.17574 0.33927 0.0
C1101 C 0.74816 0.18751 0.33331 0.0
C1102 C 0.76386 0.15917 0.35503 0.0
C1103 C 0.74559 0.15388 0.36504 0.0
C1104 C 0.72867 0.16568 0.35938 0.0
H1105 H 0.71682 0.05113 0.46113 0.0
H1106 H 0.71411 0.08171 0.43537 0.0
C1107 C 0.72993 0.18232 0.34369 0.0
C1108 C 0.7444 0.13624 0.38171 0.0
H1109 H 0.72555 0.08647 0.38988 0.0
C1110 C 0.75484 0.13813 0.4022 0.0
C1111 C 0.73347 0.11752 0.37732 0.0
C1112 C 0.7223 0.11453 0.35537 0.0
C1113 C 0.75478 0.12174 0.41837 0.0
C1114 C 0.74439 0.10272 0.41369 0.0
C1115 C 0.73352 0.10103 0.39344 0.0
C1116 C 0.7457 0.084 0.42897 0.0
C1117 C 0.76579 0.12502 0.44039 0.0
C1118 C 0.76425 0.07485 0.43347 0.0
C1119 C 0.76584 0.05753 0.44811 0.0
C1120 C 0.74887 0.04874 0.45848 0.0
C1121 C 0.73018 0.05754 0.4535 0.0
C1122 C 0.72861 0.07501 0.4388 0.0
H1123 H 0.76749 0.14212 0.44433 0.0
H1124 H 0.75801 0.11714 0.45473 0.0
H1125 H 0.78088 0.11815 0.43897 0.0
H1126 H 0.77757 0.08114 0.42563 0.0
H1127 H 0.78046 0.05107 0.45132 0.0
H1128 H 0.34855 0.26263 0.82578 0.0
H1129 H 0.37632 0.26957 0.85142 0.0
H1130 H 0.36347 0.33638 0.84919 0.0
H1131 H 0.33574 0.32963 0.82324 0.0
H1132 H 0.41015 0.29642 0.84431 0.0
H1133 H 0.36429 0.32188 0.91777 0.0
H1134 H 0.35386 0.3077 0.89403 0.0
H1135 H 0.35995 0.33528 0.89127 0.0
C1136 C 0.35172 0.27884 0.83051 0.0
C1137 C 0.33987 0.29557 0.82246 0.0
C1138 C 0.36755 0.28276 0.84527 0.0
C1139 C 0.37179 0.30345 0.85239 0.0
C1140 C 0.3602 0.32025 0.84421 0.0
H1141 H 0.46198 0.33814 0.95473 0.0
H1142 H 0.43674 0.34166 0.92477 0.0
C1143 C 0.34436 0.31635 0.82941 0.0
C1144 C 0.38843 0.30722 0.86836 0.0
H1145 H 0.39893 0.32101 0.92303 0.0
C1146 C 0.40773 0.30198 0.86146 0.0
C1147 C 0.38524 0.31465 0.89065 0.0
C1148 C 0.36473 0.3201 0.89905 0.0
C1149 C 0.42387 0.30343 0.87645 0.0
C1150 C 0.42055 0.30992 0.89904 0.0
C1151 C 0.40141 0.31605 0.90568 0.0
C1152 C 0.43629 0.30831 0.91655 0.0
C1153 C 0.44432 0.2977 0.86806 0.0
C1154 C 0.44416 0.2884 0.92197 0.0
C1155 C 0.45841 0.28634 0.93898 0.0
C1156 C 0.46509 0.30414 0.9511 0.0
C1157 C 0.45722 0.32414 0.94565 0.0
C1158 C 0.4428 0.32618 0.92858 0.0
H1159 H 0.44546 0.29956 0.84936 0.0
H1160 H 0.45593 0.30762 0.8762 0.0
H1161 H 0.44735 0.28087 0.87226 0.0
H1162 H 0.43904 0.27435 0.91323 0.0
H1163 H 0.46408 0.27067 0.94273 0.0
H1164 H 0.24247 0.80741 0.35394 0.0
H1165 H 0.2444 0.8371 0.38043 0.0
H1166 H 0.27853 0.87292 0.33169 0.0
H1167 H 0.27613 0.84364 0.30485 0.0
H1168 H 0.27801 0.85697 0.39918 0.0
H1169 H 0.23328 0.9133 0.34781 0.0
H1170 H 0.23385 0.88527 0.34206 0.0
H1171 H 0.25406 0.902 0.33319 0.0
C1172 C 0.25017 0.8217 0.34873 0.0
C1173 C 0.25905 0.82314 0.32719 0.0
C1174 C 0.25141 0.83859 0.36397 0.0
C1175 C 0.26143 0.85731 0.35795 0.0
C1176 C 0.27048 0.85875 0.33658 0.0
H1177 H 0.293 0.95871 0.45391 0.0
H1178 H 0.29505 0.93003 0.42601 0.0
C1179 C 0.26925 0.84188 0.32134 0.0
C1180 C 0.26239 0.87532 0.37406 0.0
H1181 H 0.24835 0.92682 0.38098 0.0
C1182 C 0.27158 0.87227 0.39521 0.0
C1183 C 0.25385 0.89522 0.36889 0.0
C1184 C 0.24304 0.89918 0.34685 0.0
C1185 C 0.2724 0.88857 0.41137 0.0
C1186 C 0.26404 0.90853 0.4061 0.0
C1187 C 0.25493 0.91158 0.3849 0.0
C1188 C 0.26322 0.92599 0.42289 0.0
C1189 C 0.28166 0.8841 0.43419 0.0
C1190 C 0.2447 0.93352 0.43003 0.0
C1191 C 0.24348 0.94989 0.44577 0.0
C1192 C 0.26079 0.95924 0.45474 0.0
C1193 C 0.27939 0.95182 0.44742 0.0
C1194 C 0.28059 0.93535 0.43158 0.0
H1195 H 0.28361 0.86686 0.43725 0.0
H1196 H 0.29651 0.89174 0.43499 0.0
H1197 H 0.27243 0.89073 0.44803 0.0
H1198 H 0.23111 0.92658 0.42352 0.0
H1199 H 0.22889 0.95517 0.45094 0.0
H1200 H 0.66222 0.74473 0.82927 0.0
H1201 H 0.63419 0.73841 0.85472 0.0
H1202 H 0.64493 0.67121 0.85203 0.0
H1203 H 0.67291 0.67734 0.82628 0.0
H1204 H 0.59955 0.71302 0.84739 0.0
H1205 H 0.64456 0.68459 0.92065 0.0
H1206 H 0.65544 0.69869 0.89702 0.0
H1207 H 0.64845 0.67138 0.89409 0.0
C1208 C 0.65852 0.72858 0.83387 0.0
C1209 C 0.66986 0.71155 0.82575 0.0
C1210 C 0.64255 0.72501 0.84851 0.0
C1211 C 0.63765 0.70438 0.85546 0.0
C1212 C 0.64871 0.68729 0.84719 0.0
H1213 H 0.54666 0.66954 0.95653 0.0
H1214 H 0.57198 0.66647 0.92676 0.0
C1215 C 0.6647 0.69084 0.83251 0.0
C1216 C 0.6209 0.70095 0.87135 0.0
H1217 H 0.60993 0.68626 0.92572 0.0
C1218 C 0.60178 0.70701 0.86446 0.0
C1219 C 0.62385 0.69295 0.89353 0.0
C1220 C 0.64418 0.68664 0.90194 0.0
C1221 C 0.58558 0.70574 0.87935 0.0
C1222 C 0.58867 0.69859 0.90183 0.0
C1223 C 0.60763 0.69173 0.90846 0.0
C1224 C 0.57288 0.70002 0.91924 0.0
C1225 C 0.56532 0.71227 0.87094 0.0
C1226 C 0.56522 0.71988 0.92501 0.0
C1227 C 0.55089 0.7217 0.94192 0.0
C1228 C 0.54394 0.70366 0.95358 0.0
C1229 C 0.55164 0.68371 0.94781 0.0
C1230 C 0.5661 0.68193 0.93084 0.0
H1231 H 0.56419 0.71093 0.8522 0.0
H1232 H 0.55343 0.70248 0.8788 0.0
H1233 H 0.56269 0.72907 0.87547 0.0
H1234 H 0.57056 0.7341 0.91662 0.0
H1235 H 0.54538 0.73733 0.94594 0.0
loop_
_geom_bond_atom_site_label_1
_geom_bond_atom_site_label_2
_geom_bond_distance
_geom_bond_site_symmetry_2
_ccdc_geom_bond_type
C0 C1 1.384 . S
C0 H13 0.947 . S
C0 C35 1.382 . S
C1 C0 1.384 . S
C1 C2 1.378 . S
C2 C1 1.378 . S
C2 C3 1.378 . S
C2 H14 0.952 . S
C3 C2 1.378 . S
C3 H15 0.950 . S
C3 C34 1.383 . S
H4 C23 0.947 . S
H5 C24 0.946 . S
H6 C26 0.953 . S
H7 C27 0.945 . S
H8 C29 0.952 . S
H9 C30 0.949 . S
H10 C32 0.950 . S
H11 C33 0.948 . S
H12 C35 0.951 . S
H13 C0 0.947 . S
H14 C2 0.952 . S
H15 C3 0.950 . S
N16 C19 1.382 . S
N16 C21 1.363 . S
N17 C19 1.371 . S
N17 C20 1.372 . S
N18 C20 1.361 . S
N18 C21 1.377 . S
C19 N16 1.382 . S
C19 N17 1.371 . S
C19 C22 1.480 . S
C20 N17 1.372 . S
C20 N18 1.361 . S
C20 C28 1.457 . S
C21 N16 1.363 . S
C21 N18 1.377 . S
C21 C34 1.479 . S
C22 C19 1.480 . S
C22 C23 1.383 . S
C22 C27 1.385 . S
C23 H4 0.947 . S
C23 C22 1.383 . S
C23 C24 1.388 . S
C24 H5 0.946 . S
C24 C23 1.388 . S
C24 C25 1.384 . S
C25 C24 1.384 . S
C25 C26 1.377 . S
C26 H6 0.953 . S
C26 C25 1.377 . S
C26 C27 1.369 . S
C27 H7 0.945 . S
C27 C22 1.385 . S
C27 C26 1.369 . S
C28 C20 1.457 . S
C28 C29 1.372 . S
C28 C33 1.364 . S
C29 H8 0.952 . S
C29 C28 1.372 . S
C29 C30 1.389 . S
C30 H9 0.949 . S
C30 C29 1.389 . S
C30 C31 1.387 . S
C31 C30 1.387 . S
C31 C32 1.372 . S
C32 H10 0.950 . S
C32 C31 1.372 . S
C32 C33 1.379 . S
C33 H11 0.948 . S
C33 C28 1.364 . S
C33 C32 1.379 . S
C34 C3 1.383 . S
C34 C21 1.479 . S
C34 C35 1.398 . S
C35 C0 1.382 . S
C35 H12 0.951 . S
C35 C34 1.398 . S
C36 C37 1.384 . S
C36 H49 0.947 . S
C36 C71 1.382 . S
C37 C36 1.384 . S
C37 C38 1.378 . S
C38 C37 1.378 . S
C38 C39 1.378 . S
C38 H50 0.952 . S
C39 C38 1.378 . S
C39 H51 0.950 . S
C39 C70 1.383 . S
H40 C59 0.947 . S
H41 C60 0.946 . S
H42 C62 0.953 . S
H43 C63 0.945 . S
H44 C65 0.952 . S
H45 C66 0.949 . S
H46 C68 0.950 . S
H47 C69 0.948 . S
H48 C71 0.951 . S
H49 C36 0.947 . S
H50 C38 0.952 . S
H51 C39 0.950 . S
N52 C55 1.382 . S
N52 C57 1.363 . S
N53 C55 1.371 . S
N53 C56 1.372 . S
N54 C56 1.361 . S
N54 C57 1.377 . S
C55 N52 1.382 . S
C55 N53 1.371 . S
C55 C58 1.480 . S
C56 N53 1.372 . S
C56 N54 1.361 . S
C56 C64 1.457 . S
C57 N52 1.363 . S
C57 N54 1.377 . S
C57 C70 1.479 . S
C58 C55 1.480 . S
C58 C59 1.383 . S
C58 C63 1.385 . S
C59 H40 0.947 . S
C59 C58 1.383 . S
C59 C60 1.388 . S
C60 H41 0.946 . S
C60 C59 1.388 . S
C60 C61 1.384 . S
C61 C60 1.384 . S
C61 C62 1.377 . S
C62 H42 0.953 . S
C62 C61 1.377 . S
C62 C63 1.369 . S
C63 H43 0.945 . S
C63 C58 1.385 . S
C63 C62 1.369 . S
C64 C56 1.457 . S
C64 C65 1.372 . S
C64 C69 1.364 . S
C65 H44 0.952 . S
C65 C64 1.372 . S
C65 C66 1.389 . S
C66 H45 0.949 . S
C66 C65 1.389 . S
C66 C67 1.387 . S
C67 C66 1.387 . S
C67 C68 1.372 . S
C68 H46 0.950 . S
C68 C67 1.372 . S
C68 C69 1.379 . S
C69 H47 0.948 . S
C69 C64 1.364 . S
C69 C68 1.379 . S
C70 C39 1.383 . S
C70 C57 1.479 . S
C70 C71 1.398 . S
C71 C36 1.382 . S
C71 H48 0.951 . S
C71 C70 1.398 . S
C72 C73 1.384 . S
C72 H85 0.947 . S
C72 C107 1.382 . S
C73 C72 1.384 . S
C73 C74 1.378 . S
C74 C73 1.378 . S
C74 C75 1.378 . S
C74 H86 0.952 . S
C75 C74 1.378 . S
C75 H87 0.950 . S
C75 C106 1.383 . S
H76 C95 0.947 . S
H77 C96 0.946 . S
H78 C98 0.953 . S
H79 C99 0.945 . S
H80 C101 0.952 . S
H81 C102 0.949 . S
H82 C104 0.950 . S
H83 C105 0.948 . S
H84 C107 0.951 . S
H85 C72 0.947 . S
H86 C74 0.952 . S
H87 C75 0.950 . S
N88 C91 1.382 . S
N88 C93 1.363 . S
N89 C91 1.371 . S
N89 C92 1.372 . S
N90 C92 1.361 . S
N90 C93 1.377 . S
C91 N88 1.382 . S
C91 N89 1.371 . S
C91 C94 1.480 . S
C92 N89 1.372 . S
C92 N90 1.361 . S
C92 C100 1.457 . S
C93 N88 1.363 . S
C93 N90 1.377 . S
C93 C106 1.479 . S
C94 C91 1.480 . S
C94 C95 1.383 . S
C94 C99 1.385 . S
C95 H76 0.947 . S
C95 C94 1.383 . S
C95 C96 1.388 . S
C96 H77 0.946 . S
C96 C95 1.388 . S
C96 C97 1.384 . S
C97 C96 1.384 . S
C97 C98 1.377 . S
C98 H78 0.953 . S
C98 C97 1.377 . S
C98 C99 1.369 . S
C99 H79 0.945 . S
C99 C94 1.385 . S
C99 C98 1.369 . S
C100 C92 1.457 . S
C100 C101 1.372 . S
C100 C105 1.364 . S
C101 H80 0.952 . S
C101 C100 1.372 . S
C101 C102 1.389 . S
C102 H81 0.949 . S
C102 C101 1.389 . S
C102 C103 1.387 . S
C103 C102 1.387 . S
C103 C104 1.372 . S
C104 H82 0.950 . S
C104 C103 1.372 . S
C104 C105 1.379 . S
C105 H83 0.948 . S
C105 C100 1.364 . S
C105 C104 1.379 . S
C106 C75 1.383 . S
C106 C93 1.479 . S
C106 C107 1.398 . S
C107 C72 1.382 . S
C107 H84 0.951 . S
C107 C106 1.398 . S
C108 C109 1.384 . S
C108 H121 0.947 . S
C108 C143 1.382 . S
C109 C108 1.384 . S
C109 C110 1.378 . S
C110 C109 1.378 . S
C110 C111 1.378 . S
C110 H122 0.952 . S
C111 C110 1.378 . S
C111 H123 0.950 . S
C111 C142 1.383 . S
H112 C131 0.947 . S
H113 C132 0.946 . S
H114 C134 0.953 . S
H115 C135 0.945 . S
H116 C137 0.952 . S
H117 C138 0.949 . S
H118 C140 0.950 . S
H119 C141 0.948 . S
H120 C143 0.951 . S
H121 C108 0.947 . S
H122 C110 0.952 . S
H123 C111 0.950 . S
N124 C127 1.382 . S
N124 C129 1.363 . S
N125 C127 1.371 . S
N125 C128 1.372 . S
N126 C128 1.361 . S
N126 C129 1.377 . S
C127 N124 1.382 . S
C127 N125 1.371 . S
C127 C130 1.480 . S
C128 N125 1.372 . S
C128 N126 1.361 . S
C128 C136 1.457 . S
C129 N124 1.363 . S
C129 N126 1.377 . S
C129 C142 1.479 . S
C130 C127 1.480 . S
C130 C131 1.383 . S
C130 C135 1.385 . S
C131 H112 0.947 . S
C131 C130 1.383 . S
C131 C132 1.388 . S
C132 H113 0.946 . S
C132 C131 1.388 . S
C132 C133 1.384 . S
C133 C132 1.384 . S
C133 C134 1.377 . S
C134 H114 0.953 . S
C134 C133 1.377 . S
C134 C135 1.369 . S
C135 H115 0.945 . S
C135 C130 1.385 . S
C135 C134 1.369 . S
C136 C128 1.457 . S
C136 C137 1.372 . S
C136 C141 1.364 . S
C137 H116 0.952 . S
C137 C136 1.372 . S
C137 C138 1.389 . S
C138 H117 0.949 . S
C138 C137 1.389 . S
C138 C139 1.387 . S
C139 C138 1.387 . S
C139 C140 1.372 . S
C140 H118 0.950 . S
C140 C139 1.372 . S
C140 C141 1.379 . S
C141 H119 0.948 . S
C141 C136 1.364 . S
C141 C140 1.379 . S
C142 C111 1.383 . S
C142 C129 1.479 . S
C142 C143 1.398 . S
C143 C108 1.382 . S
C143 H120 0.951 . S
C143 C142 1.398 . S
C144 C145 1.384 . S
C144 H157 0.947 . S
C144 C179 1.382 . S
C145 C144 1.384 . S
C145 C146 1.378 . S
C146 C145 1.378 . S
C146 C147 1.378 . S
C146 H158 0.952 . S
C147 C146 1.378 . S
C147 H159 0.950 . S
C147 C178 1.383 . S
H148 C167 0.947 . S
H149 C168 0.946 . S
H150 C170 0.953 . S
H151 C171 0.945 . S
H152 C173 0.952 . S
H153 C174 0.949 . S
H154 C176 0.950 . S
H155 C177 0.948 . S
H156 C179 0.951 . S
H157 C144 0.947 . S
H158 C146 0.952 . S
H159 C147 0.950 . S
N160 C163 1.382 . S
N160 C165 1.363 . S
N161 C163 1.371 . S
N161 C164 1.372 . S
N162 C164 1.361 . S
N162 C165 1.377 . S
C163 N160 1.382 . S
C163 N161 1.371 . S
C163 C166 1.480 . S
C164 N161 1.372 . S
C164 N162 1.361 . S
C164 C172 1.457 . S
C165 N160 1.363 . S
C165 N162 1.377 . S
C165 C178 1.479 . S
C166 C163 1.480 . S
C166 C167 1.383 . S
C166 C171 1.385 . S
C167 H148 0.947 . S
C167 C166 1.383 . S
C167 C168 1.388 . S
C168 H149 0.946 . S
C168 C167 1.388 . S
C168 C169 1.384 . S
C169 C168 1.384 . S
C169 C170 1.377 . S
C170 H150 0.953 . S
C170 C169 1.377 . S
C170 C171 1.369 . S
C171 H151 0.945 . S
C171 C166 1.385 . S
C171 C170 1.369 . S
C172 C164 1.457 . S
C172 C173 1.372 . S
C172 C177 1.364 . S
C173 H152 0.952 . S
C173 C172 1.372 . S
C173 C174 1.389 . S
C174 H153 0.949 . S
C174 C173 1.389 . S
C174 C175 1.387 . S
C175 C174 1.387 . S
C175 C176 1.372 . S
C176 H154 0.950 . S
C176 C175 1.372 . S
C176 C177 1.379 . S
C177 H155 0.948 . S
C177 C172 1.364 . S
C177 C176 1.379 . S
C178 C147 1.383 . S
C178 C165 1.479 . S
C178 C179 1.398 . S
C179 C144 1.382 . S
C179 H156 0.951 . S
C179 C178 1.398 . S
C180 C181 1.384 . S
C180 H193 0.947 . S
C180 C215 1.382 . S
C181 C180 1.384 . S
C181 C182 1.378 . S
C182 C181 1.378 . S
C182 C183 1.378 . S
C182 H194 0.952 . S
C183 C182 1.378 . S
C183 H195 0.950 . S
C183 C214 1.383 . S
H184 C203 0.947 . S
H185 C204 0.946 . S
H186 C206 0.953 . S
H187 C207 0.945 . S
H188 C209 0.952 . S
H189 C210 0.949 . S
H190 C212 0.950 . S
H191 C213 0.948 . S
H192 C215 0.951 . S
H193 C180 0.947 . S
H194 C182 0.952 . S
H195 C183 0.950 . S
N196 C199 1.382 . S
N196 C201 1.363 . S
N197 C199 1.371 . S
N197 C200 1.372 . S
N198 C200 1.361 . S
N198 C201 1.377 . S
C199 N196 1.382 . S
C199 N197 1.371 . S
C199 C202 1.480 . S
C200 N197 1.372 . S
C200 N198 1.361 . S
C200 C208 1.457 . S
C201 N196 1.363 . S
C201 N198 1.377 . S
C201 C214 1.479 . S
C202 C199 1.480 . S
C202 C203 1.383 . S
C202 C207 1.385 . S
C203 H184 0.947 . S
C203 C202 1.383 . S
C203 C204 1.388 . S
C204 H185 0.946 . S
C204 C203 1.388 . S
C204 C205 1.384 . S
C205 C204 1.384 . S
C205 C206 1.377 . S
C206 H186 0.953 . S
C206 C205 1.377 . S
C206 C207 1.369 . S
C207 H187 0.945 . S
C207 C202 1.385 . S
C207 C206 1.369 . S
C208 C200 1.457 . S
C208 C209 1.372 . S
C208 C213 1.364 . S
C209 H188 0.952 . S
C209 C208 1.372 . S
C209 C210 1.389 . S
C210 H189 0.949 . S
C210 C209 1.389 . S
C210 C211 1.387 . S
C211 C210 1.387 . S
C211 C212 1.372 . S
C212 H190 0.950 . S
C212 C211 1.372 . S
C212 C213 1.379 . S
C213 H191 0.948 . S
C213 C208 1.364 . S
C213 C212 1.379 . S
C214 C183 1.383 . S
C214 C201 1.479 . S
C214 C215 1.398 . S
C215 C180 1.382 . S
C215 H192 0.951 . S
C215 C214 1.398 . S
C216 C217 1.384 . S
C216 H229 0.947 . S
C216 C251 1.382 . S
C217 C216 1.384 . S
C217 C218 1.378 . S
C218 C217 1.378 . S
C218 C219 1.378 . S
C218 H230 0.952 . S
C219 C218 1.378 . S
C219 H231 0.950 . S
C219 C250 1.383 . S
H220 C239 0.947 . S
H221 C240 0.946 . S
H222 C242 0.953 . S
H223 C243 0.945 . S
H224 C245 0.952 . S
H225 C246 0.949 . S
H226 C248 0.950 . S
H227 C249 0.948 . S
H228 C251 0.951 . S
H229 C216 0.947 . S
H230 C218 0.952 . S
H231 C219 0.950 . S
N232 C235 1.382 . S
N232 C237 1.363 . S
N233 C235 1.371 . S
N233 C236 1.372 . S
N234 C236 1.361 . S
N234 C237 1.377 . S
C235 N232 1.382 . S
C235 N233 1.371 . S
C235 C238 1.480 . S
C236 N233 1.372 . S
C236 N234 1.361 . S
C236 C244 1.457 . S
C237 N232 1.363 . S
C237 N234 1.377 . S
C237 C250 1.479 . S
C238 C235 1.480 . S
C238 C239 1.383 . S
C238 C243 1.385 . S
C239 H220 0.947 . S
C239 C238 1.383 . S
C239 C240 1.388 . S
C240 H221 0.946 . S
C240 C239 1.388 . S
C240 C241 1.384 . S
C241 C240 1.384 . S
C241 C242 1.377 . S
C242 H222 0.953 . S
C242 C241 1.377 . S
C242 C243 1.369 . S
C243 H223 0.945 . S
C243 C238 1.385 . S
C243 C242 1.369 . S
C244 C236 1.457 . S
C244 C245 1.372 . S
C244 C249 1.364 . S
C245 H224 0.952 . S
C245 C244 1.372 . S
C245 C246 1.389 . S
C246 H225 0.949 . S
C246 C245 1.389 . S
C246 C247 1.387 . S
C247 C246 1.387 . S
C247 C248 1.372 . S
C248 H226 0.950 . S
C248 C247 1.372 . S
C248 C249 1.379 . S
C249 H227 0.948 . S
C249 C244 1.364 . S
C249 C248 1.379 . S
C250 C219 1.383 . S
C250 C237 1.479 . S
C250 C251 1.398 . S
C251 C216 1.382 . S
C251 H228 0.951 . S
C251 C250 1.398 . S
C252 C253 1.384 . S
C252 H265 0.947 . S
C252 C287 1.382 . S
C253 C252 1.384 . S
C253 C254 1.378 . S
C254 C253 1.378 . S
C254 C255 1.378 . S
C254 H266 0.952 . S
C255 C254 1.378 . S
C255 H267 0.950 . S
C255 C286 1.383 . S
H256 C275 0.947 . S
H257 C276 0.946 . S
H258 C278 0.953 . S
H259 C279 0.945 . S
H260 C281 0.952 . S
H261 C282 0.949 . S
H262 C284 0.950 . S
H263 C285 0.948 . S
H264 C287 0.951 . S
H265 C252 0.947 . S
H266 C254 0.952 . S
H267 C255 0.950 . S
N268 C271 1.382 . S
N268 C273 1.363 . S
N269 C271 1.371 . S
N269 C272 1.372 . S
N270 C272 1.361 . S
N270 C273 1.377 . S
C271 N268 1.382 . S
C271 N269 1.371 . S
C271 C274 1.480 . S
C272 N269 1.372 . S
C272 N270 1.361 . S
C272 C280 1.457 . S
C273 N268 1.363 . S
C273 N270 1.377 . S
C273 C286 1.479 . S
C274 C271 1.480 . S
C274 C275 1.383 . S
C274 C279 1.385 . S
C275 H256 0.947 . S
C275 C274 1.383 . S
C275 C276 1.388 . S
C276 H257 0.946 . S
C276 C275 1.388 . S
C276 C277 1.384 . S
C277 C276 1.384 . S
C277 C278 1.377 . S
C278 H258 0.953 . S
C278 C277 1.377 . S
C278 C279 1.369 . S
C279 H259 0.945 . S
C279 C274 1.385 . S
C279 C278 1.369 . S
C280 C272 1.457 . S
C280 C281 1.372 . S
C280 C285 1.364 . S
C281 H260 0.952 . S
C281 C280 1.372 . S
C281 C282 1.389 . S
C282 H261 0.949 . S
C282 C281 1.389 . S
C282 C283 1.387 . S
C283 C282 1.387 . S
C283 C284 1.372 . S
C284 H262 0.950 . S
C284 C283 1.372 . S
C284 C285 1.379 . S
C285 H263 0.948 . S
C285 C280 1.364 . S
C285 C284 1.379 . S
C286 C255 1.383 . S
C286 C273 1.479 . S
C286 C287 1.398 . S
C287 C252 1.382 . S
C287 H264 0.951 . S
C287 C286 1.398 . S
C288 O290 1.247 . S
C288 O292 1.258 . S
C289 O296 1.247 . S
C289 O297 1.258 . S
O290 C288 1.247 . S
O290 Zn291 2.028 1_655 S
Zn291 O290 2.028 1_455 S
Zn291 O295 2.035 . S
Zn291 O297 2.035 . S
Zn291 O298 2.028 1_455 S
O292 C288 1.258 . S
O292 Zn293 2.035 1_655 S
Zn293 O292 2.035 1_455 S
Zn293 O294 2.028 . S
Zn293 O296 2.028 . S
Zn293 O299 2.035 1_455 S
O294 Zn293 2.028 . S
O294 C300 1.247 . S
O295 Zn291 2.035 . S
O295 C300 1.258 . S
O296 C289 1.247 . S
O296 Zn293 2.028 . S
O297 C289 1.258 . S
O297 Zn291 2.035 . S
O298 Zn291 2.028 1_655 S
O298 C301 1.247 . S
O299 Zn293 2.035 1_655 S
O299 C301 1.258 . S
C300 O294 1.247 . S
C300 O295 1.258 . S
C301 O298 1.247 . S
C301 O299 1.258 . S
C302 O304 1.247 . S
C302 O306 1.258 . S
C303 O310 1.247 . S
C303 O311 1.258 . S
O304 C302 1.247 . S
O304 Zn305 2.028 1_655 S
Zn305 O304 2.028 1_455 S
Zn305 O309 2.035 . S
Zn305 O311 2.035 . S
Zn305 O312 2.028 1_455 S
O306 C302 1.258 . S
O306 Zn307 2.035 1_655 S
Zn307 O306 2.035 1_455 S
Zn307 O308 2.028 . S
Zn307 O310 2.028 . S
Zn307 O313 2.035 1_455 S
O308 Zn307 2.028 . S
O308 C314 1.247 . S
O309 Zn305 2.035 . S
O309 C314 1.258 . S
O310 C303 1.247 . S
O310 Zn307 2.028 . S
O311 C303 1.258 . S
O311 Zn305 2.035 . S
O312 Zn305 2.028 1_655 S
O312 C315 1.247 . S
O313 Zn307 2.035 1_655 S
O313 C315 1.258 . S
C314 O308 1.247 . S
C314 O309 1.258 . S
C315 O312 1.247 . S
C315 O313 1.258 . S
C316 O318 1.247 . S
C316 O320 1.258 . S
C317 O324 1.247 . S
C317 O325 1.258 . S
O318 C316 1.247 . S
O318 Zn319 2.028 1_565 S
Zn319 O318 2.028 1_545 S
Zn319 O323 2.035 . S
Zn319 O325 2.035 . S
Zn319 O326 2.028 1_545 S
O320 C316 1.258 . S
O320 Zn321 2.035 1_565 S
Zn321 O320 2.035 1_545 S
Zn321 O322 2.028 . S
Zn321 O324 2.028 . S
Zn321 O327 2.035 1_545 S
O322 Zn321 2.028 . S
O322 C328 1.247 . S
O323 Zn319 2.035 . S
O323 C328 1.258 . S
O324 C317 1.247 . S
O324 Zn321 2.028 . S
O325 C317 1.258 . S
O325 Zn319 2.035 . S
O326 Zn319 2.028 1_565 S
O326 C329 1.247 . S
O327 Zn321 2.035 1_565 S
O327 C329 1.258 . S
C328 O322 1.247 . S
C328 O323 1.258 . S
C329 O326 1.247 . S
C329 O327 1.258 . S
C330 O332 1.247 . S
C330 O334 1.258 . S
C331 O338 1.247 . S
C331 O339 1.258 . S
O332 C330 1.247 . S
O332 Zn333 2.028 . S
Zn333 O332 2.028 . S
Zn333 O337 2.035 . S
Zn333 O339 2.035 1_554 S
Zn333 O340 2.028 1_554 S
O334 C330 1.258 . S
O334 Zn335 2.035 . S
Zn335 O334 2.035 . S
Zn335 O336 2.028 . S
Zn335 O338 2.028 1_554 S
Zn335 O341 2.035 1_554 S
O336 Zn335 2.028 . S
O336 C342 1.247 . S
O337 Zn333 2.035 . S
O337 C342 1.258 . S
O338 C331 1.247 . S
O338 Zn335 2.028 1_556 S
O339 C331 1.258 . S
O339 Zn333 2.035 1_556 S
O340 Zn333 2.028 1_556 S
O340 C343 1.247 . S
O341 Zn335 2.035 1_556 S
O341 C343 1.258 . S
C342 O336 1.247 . S
C342 O337 1.258 . S
C343 O340 1.247 . S
C343 O341 1.258 . S
C344 O346 1.247 . S
C344 O348 1.258 . S
C345 O352 1.247 . S
C345 O353 1.258 . S
O346 C344 1.247 . S
O346 Zn347 2.002 1_565 S
Zn347 O346 2.002 1_545 S
Zn347 O351 2.061 . S
Zn347 O353 2.061 . S
Zn347 O354 2.002 1_545 S
O348 C344 1.258 . S
O348 Zn349 2.035 1_565 S
Zn349 O348 2.035 1_545 S
Zn349 O350 2.028 . S
Zn349 O352 2.028 . S
Zn349 O355 2.035 1_545 S
O350 Zn349 2.028 . S
O350 C356 1.247 . S
O351 Zn347 2.061 . S
O351 C356 1.258 . S
O352 C345 1.247 . S
O352 Zn349 2.028 . S
O353 C345 1.258 . S
O353 Zn347 2.061 . S
O354 Zn347 2.002 1_565 S
O354 C357 1.247 . S
O355 Zn349 2.035 1_565 S
O355 C357 1.258 . S
C356 O350 1.247 . S
C356 O351 1.258 . S
C357 O354 1.247 . S
C357 O355 1.258 . S
C358 O360 1.247 . S
C358 O362 1.258 . S
C359 O366 1.247 . S
C359 O367 1.258 . S
O360 C358 1.247 . S
O360 Zn361 2.034 . S
Zn361 O360 2.034 . S
Zn361 O365 2.041 . S
Zn361 O367 2.029 1_554 S
Zn361 O368 2.022 1_554 S
O362 C358 1.258 . S
O362 Zn363 2.037 1_554 S
Zn363 O362 2.037 1_556 S
Zn363 O364 2.030 1_556 S
Zn363 O366 2.026 . S
Zn363 O369 2.033 . S
O364 Zn363 2.030 1_554 S
O364 C370 1.247 . S
O365 Zn361 2.041 . S
O365 C370 1.258 . S
O366 C359 1.247 . S
O366 Zn363 2.026 . S
O367 C359 1.258 . S
O367 Zn361 2.029 1_556 S
O368 Zn361 2.022 1_556 S
O368 C371 1.247 . S
O369 Zn363 2.033 . S
O369 C371 1.258 . S
C370 O364 1.247 . S
C370 O365 1.258 . S
C371 O368 1.247 . S
C371 O369 1.258 . S
H372 C380 0.929 . S
H373 C382 0.930 . S
H374 C384 0.930 . S
H375 C387 0.929 . S
H376 C390 0.930 . S
H377 C392 0.960 . S
H378 C392 0.960 . S
H379 C392 0.960 . S
C380 H372 0.929 . S
C380 C381 1.377 . S
C380 C382 1.384 . S
C381 C380 1.377 . S
C381 C387 1.390 . S
C382 H373 0.930 . S
C382 C380 1.384 . S
C382 C383 1.372 . S
C383 C382 1.372 . S
C383 C384 1.400 . S
C383 C388 1.490 . S
C384 H374 0.930 . S
C384 C383 1.400 . S
C384 C387 1.386 . S
H385 C401 0.930 . S
H386 C402 0.931 . S
C387 H375 0.929 . S
C387 C381 1.390 . S
C387 C384 1.386 . S
C388 C383 1.490 . S
C388 C390 1.395 . S
C388 C391 1.403 . S
H389 C395 0.930 . S
C390 H376 0.930 . S
C390 C388 1.395 . S
C390 C393 1.403 . S
C391 C388 1.403 . S
C391 C392 1.524 . S
C391 C395 1.400 . S
C392 H377 0.960 . S
C392 H378 0.960 . S
C392 H379 0.960 . S
C392 C391 1.524 . S
C393 C390 1.403 . S
C393 C394 1.392 . S
C393 C397 1.495 . S
C394 C393 1.392 . S
C394 C395 1.385 . S
C394 C396 1.478 . S
C395 H389 0.930 . S
C395 C391 1.400 . S
C395 C394 1.385 . S
C396 C394 1.478 . S
C396 C398 1.381 . S
C396 C402 1.383 . S
C397 C393 1.495 . S
C397 H403 0.959 . S
C397 H404 0.961 . S
C397 H405 0.960 . S
C398 C396 1.381 . S
C398 C399 1.394 . S
C398 H406 0.930 . S
C399 C398 1.394 . S
C399 C400 1.383 . S
C399 H407 0.929 . S
C400 C399 1.383 . S
C400 C401 1.377 . S
C401 H385 0.930 . S
C401 C400 1.377 . S
C401 C402 1.379 . S
C402 H386 0.931 . S
C402 C396 1.383 . S
C402 C401 1.379 . S
H403 C397 0.959 . S
H404 C397 0.961 . S
H405 C397 0.960 . S
H406 C398 0.930 . S
H407 C399 0.929 . S
H408 C416 0.929 . S
H409 C418 0.930 . S
H410 C420 0.930 . S
H411 C423 0.929 . S
H412 C426 0.930 . S
H413 C428 0.960 . S
H414 C428 0.960 . S
H415 C428 0.960 . S
C416 H408 0.929 . S
C416 C417 1.377 . S
C416 C418 1.384 . S
C417 C416 1.377 . S
C417 C423 1.390 . S
C418 H409 0.930 . S
C418 C416 1.384 . S
C418 C419 1.372 . S
C419 C418 1.372 . S
C419 C420 1.400 . S
C419 C424 1.490 . S
C420 H410 0.930 . S
C420 C419 1.400 . S
C420 C423 1.386 . S
H421 C437 0.930 . S
H422 C438 0.931 . S
C423 H411 0.929 . S
C423 C417 1.390 . S
C423 C420 1.386 . S
C424 C419 1.490 . S
C424 C426 1.395 . S
C424 C427 1.403 . S
H425 C431 0.930 . S
C426 H412 0.930 . S
C426 C424 1.395 . S
C426 C429 1.403 . S
C427 C424 1.403 . S
C427 C428 1.524 . S
C427 C431 1.400 . S
C428 H413 0.960 . S
C428 H414 0.960 . S
C428 H415 0.960 . S
C428 C427 1.524 . S
C429 C426 1.403 . S
C429 C430 1.392 . S
C429 C433 1.495 . S
C430 C429 1.392 . S
C430 C431 1.385 . S
C430 C432 1.478 . S
C431 H425 0.930 . S
C431 C427 1.400 . S
C431 C430 1.385 . S
C432 C430 1.478 . S
C432 C434 1.381 . S
C432 C438 1.383 . S
C433 C429 1.495 . S
C433 H439 0.959 . S
C433 H440 0.961 . S
C433 H441 0.960 . S
C434 C432 1.381 . S
C434 C435 1.394 . S
C434 H442 0.930 . S
C435 C434 1.394 . S
C435 C436 1.383 . S
C435 H443 0.929 . S
C436 C435 1.383 . S
C436 C437 1.377 . S
C437 H421 0.930 . S
C437 C436 1.377 . S
C437 C438 1.379 . S
C438 H422 0.931 . S
C438 C432 1.383 . S
C438 C437 1.379 . S
H439 C433 0.959 . S
H440 C433 0.961 . S
H441 C433 0.960 . S
H442 C434 0.930 . S
H443 C435 0.929 . S
H444 C452 0.929 . S
H445 C454 0.930 . S
H446 C456 0.930 . S
H447 C459 0.929 . S
H448 C462 0.930 . S
H449 C464 0.960 . S
H450 C464 0.960 . S
H451 C464 0.960 . S
C452 H444 0.929 . S
C452 C453 1.377 . S
C452 C454 1.384 . S
C453 C452 1.377 . S
C453 C459 1.390 . S
C454 H445 0.930 . S
C454 C452 1.384 . S
C454 C455 1.372 . S
C455 C454 1.372 . S
C455 C456 1.400 . S
C455 C460 1.490 . S
C456 H446 0.930 . S
C456 C455 1.400 . S
C456 C459 1.386 . S
H457 C473 0.930 . S
H458 C474 0.931 . S
C459 H447 0.929 . S
C459 C453 1.390 . S
C459 C456 1.386 . S
C460 C455 1.490 . S
C460 C462 1.395 . S
C460 C463 1.403 . S
H461 C467 0.930 . S
C462 H448 0.930 . S
C462 C460 1.395 . S
C462 C465 1.403 . S
C463 C460 1.403 . S
C463 C464 1.524 . S
C463 C467 1.400 . S
C464 H449 0.960 . S
C464 H450 0.960 . S
C464 H451 0.960 . S
C464 C463 1.524 . S
C465 C462 1.403 . S
C465 C466 1.392 . S
C465 C469 1.495 . S
C466 C465 1.392 . S
C466 C467 1.385 . S
C466 C468 1.478 . S
C467 H461 0.930 . S
C467 C463 1.400 . S
C467 C466 1.385 . S
C468 C466 1.478 . S
C468 C470 1.381 . S
C468 C474 1.383 . S
C469 C465 1.495 . S
C469 H475 0.959 . S
C469 H476 0.961 . S
C469 H477 0.960 . S
C470 C468 1.381 . S
C470 C471 1.394 . S
C470 H478 0.930 . S
C471 C470 1.394 . S
C471 C472 1.383 . S
C471 H479 0.929 . S
C472 C471 1.383 . S
C472 C473 1.377 . S
C473 H457 0.930 . S
C473 C472 1.377 . S
C473 C474 1.379 . S
C474 H458 0.931 . S
C474 C468 1.383 . S
C474 C473 1.379 . S
H475 C469 0.959 . S
H476 C469 0.961 . S
H477 C469 0.960 . S
H478 C470 0.930 . S
H479 C471 0.929 . S
H480 C488 0.929 . S
H481 C490 0.930 . S
H482 C492 0.930 . S
H483 C495 0.929 . S
H484 C498 0.930 . S
H485 C500 0.960 . S
H486 C500 0.960 . S
H487 C500 0.960 . S
C488 H480 0.929 . S
C488 C489 1.377 . S
C488 C490 1.384 . S
C489 C488 1.377 . S
C489 C495 1.390 . S
C490 H481 0.930 . S
C490 C488 1.384 . S
C490 C491 1.372 . S
C491 C490 1.372 . S
C491 C492 1.400 . S
C491 C496 1.490 . S
C492 H482 0.930 . S
C492 C491 1.400 . S
C492 C495 1.386 . S
H493 C509 0.930 . S
H494 C510 0.931 . S
C495 H483 0.929 . S
C495 C489 1.390 . S
C495 C492 1.386 . S
C496 C491 1.490 . S
C496 C498 1.395 . S
C496 C499 1.403 . S
H497 C503 0.930 . S
C498 H484 0.930 . S
C498 C496 1.395 . S
C498 C501 1.403 . S
C499 C496 1.403 . S
C499 C500 1.524 . S
C499 C503 1.400 . S
C500 H485 0.960 . S
C500 H486 0.960 . S
C500 H487 0.960 . S
C500 C499 1.524 . S
C501 C498 1.403 . S
C501 C502 1.392 . S
C501 C505 1.495 . S
C502 C501 1.392 . S
C502 C503 1.385 . S
C502 C504 1.478 . S
C503 H497 0.930 . S
C503 C499 1.400 . S
C503 C502 1.385 . S
C504 C502 1.478 . S
C504 C506 1.381 . S
C504 C510 1.383 . S
C505 C501 1.495 . S
C505 H511 0.959 . S
C505 H512 0.961 . S
C505 H513 0.960 . S
C506 C504 1.381 . S
C506 C507 1.394 . S
C506 H514 0.930 . S
C507 C506 1.394 . S
C507 C508 1.383 . S
C507 H515 0.929 . S
C508 C507 1.383 . S
C508 C509 1.377 . S
C509 H493 0.930 . S
C509 C508 1.377 . S
C509 C510 1.379 . S
C510 H494 0.931 . S
C510 C504 1.383 . S
C510 C509 1.379 . S
H511 C505 0.959 . S
H512 C505 0.961 . S
H513 C505 0.960 . S
H514 C506 0.930 . S
H515 C507 0.929 . S
H516 C524 0.929 . S
H517 C526 0.930 . S
H518 C528 0.930 . S
H519 C531 0.929 . S
H520 C534 0.930 . S
H521 C536 0.960 . S
H522 C536 0.960 . S
H523 C536 0.960 . S
C524 H516 0.929 . S
C524 C525 1.377 . S
C524 C526 1.384 . S
C525 C524 1.377 . S
C525 C531 1.390 . S
C526 H517 0.930 . S
C526 C524 1.384 . S
C526 C527 1.372 . S
C527 C526 1.372 . S
C527 C528 1.400 . S
C527 C532 1.490 . S
C528 H518 0.930 . S
C528 C527 1.400 . S
C528 C531 1.386 . S
H529 C545 0.930 . S
H530 C546 0.931 . S
C531 H519 0.929 . S
C531 C525 1.390 . S
C531 C528 1.386 . S
C532 C527 1.490 . S
C532 C534 1.395 . S
C532 C535 1.403 . S
H533 C539 0.930 . S
C534 H520 0.930 . S
C534 C532 1.395 . S
C534 C537 1.403 . S
C535 C532 1.403 . S
C535 C536 1.524 . S
C535 C539 1.400 . S
C536 H521 0.960 . S
C536 H522 0.960 . S
C536 H523 0.960 . S
C536 C535 1.524 . S
C537 C534 1.403 . S
C537 C538 1.392 . S
C537 C541 1.495 . S
C538 C537 1.392 . S
C538 C539 1.385 . S
C538 C540 1.478 . S
C539 H533 0.930 . S
C539 C535 1.400 . S
C539 C538 1.385 . S
C540 C538 1.478 . S
C540 C542 1.381 . S
C540 C546 1.383 . S
C541 C537 1.495 . S
C541 H547 0.959 . S
C541 H548 0.961 . S
C541 H549 0.960 . S
C542 C540 1.381 . S
C542 C543 1.394 . S
C542 H550 0.930 . S
C543 C542 1.394 . S
C543 C544 1.383 . S
C543 H551 0.929 . S
C544 C543 1.383 . S
C544 C545 1.377 . S
C545 H529 0.930 . S
C545 C544 1.377 . S
C545 C546 1.379 . S
C546 H530 0.931 . S
C546 C540 1.383 . S
C546 C545 1.379 . S
H547 C541 0.959 . S
H548 C541 0.961 . S
H549 C541 0.960 . S
H550 C542 0.930 . S
H551 C543 0.929 . S
H552 C560 0.929 . S
H553 C562 0.930 . S
H554 C564 0.930 . S
H555 C567 0.929 . S
H556 C570 0.930 . S
H557 C572 0.960 . S
H558 C572 0.960 . S
H559 C572 0.960 . S
C560 H552 0.929 . S
C560 C561 1.377 . S
C560 C562 1.384 . S
C561 C560 1.377 . S
C561 C567 1.390 . S
C562 H553 0.930 . S
C562 C560 1.384 . S
C562 C563 1.372 . S
C563 C562 1.372 . S
C563 C564 1.400 . S
C563 C568 1.490 . S
C564 H554 0.930 . S
C564 C563 1.400 . S
C564 C567 1.386 . S
H565 C581 0.930 . S
H566 C582 0.931 . S
C567 H555 0.929 . S
C567 C561 1.390 . S
C567 C564 1.386 . S
C568 C563 1.490 . S
C568 C570 1.395 . S
C568 C571 1.403 . S
H569 C575 0.930 . S
C570 H556 0.930 . S
C570 C568 1.395 . S
C570 C573 1.403 . S
C571 C568 1.403 . S
C571 C572 1.524 . S
C571 C575 1.400 . S
C572 H557 0.960 . S
C572 H558 0.960 . S
C572 H559 0.960 . S
C572 C571 1.524 . S
C573 C570 1.403 . S
C573 C574 1.392 . S
C573 C577 1.495 . S
C574 C573 1.392 . S
C574 C575 1.385 . S
C574 C576 1.478 . S
C575 H569 0.930 . S
C575 C571 1.400 . S
C575 C574 1.385 . S
C576 C574 1.478 . S
C576 C578 1.381 . S
C576 C582 1.383 . S
C577 C573 1.495 . S
C577 H583 0.959 . S
C577 H584 0.961 . S
C577 H585 0.960 . S
C578 C576 1.381 . S
C578 C579 1.394 . S
C578 H586 0.930 . S
C579 C578 1.394 . S
C579 C580 1.383 . S
C579 H587 0.929 . S
C580 C579 1.383 . S
C580 C581 1.377 . S
C581 H565 0.930 . S
C581 C580 1.377 . S
C581 C582 1.379 . S
C582 H566 0.931 . S
C582 C576 1.383 . S
C582 C581 1.379 . S
H583 C577 0.959 . S
H584 C577 0.961 . S
H585 C577 0.960 . S
H586 C578 0.930 . S
H587 C579 0.929 . S
H588 C596 0.929 . S
H589 C598 0.930 . S
H590 C600 0.930 . S
H591 C603 0.929 . S
H592 C606 0.930 . S
H593 C608 0.960 . S
H594 C608 0.960 . S
H595 C608 0.960 . S
C596 H588 0.929 . S
C596 C597 1.377 . S
C596 C598 1.384 . S
C597 C596 1.377 . S
C597 C603 1.390 . S
C598 H589 0.930 . S
C598 C596 1.384 . S
C598 C599 1.372 . S
C599 C598 1.372 . S
C599 C600 1.400 . S
C599 C604 1.490 . S
C600 H590 0.930 . S
C600 C599 1.400 . S
C600 C603 1.386 . S
H601 C617 0.930 . S
H602 C618 0.931 . S
C603 H591 0.929 . S
C603 C597 1.390 . S
C603 C600 1.386 . S
C604 C599 1.490 . S
C604 C606 1.395 . S
C604 C607 1.403 . S
H605 C611 0.930 . S
C606 H592 0.930 . S
C606 C604 1.395 . S
C606 C609 1.403 . S
C607 C604 1.403 . S
C607 C608 1.524 . S
C607 C611 1.400 . S
C608 H593 0.960 . S
C608 H594 0.960 . S
C608 H595 0.960 . S
C608 C607 1.524 . S
C609 C606 1.403 . S
C609 C610 1.392 . S
C609 C613 1.495 . S
C610 C609 1.392 . S
C610 C611 1.385 . S
C610 C612 1.478 . S
C611 H605 0.930 . S
C611 C607 1.400 . S
C611 C610 1.385 . S
C612 C610 1.478 . S
C612 C614 1.381 . S
C612 C618 1.383 . S
C613 C609 1.495 . S
C613 H619 0.959 . S
C613 H620 0.961 . S
C613 H621 0.960 . S
C614 C612 1.381 . S
C614 C615 1.394 . S
C614 H622 0.930 . S
C615 C614 1.394 . S
C615 C616 1.383 . S
C615 H623 0.929 . S
C616 C615 1.383 . S
C616 C617 1.377 . S
C617 H601 0.930 . S
C617 C616 1.377 . S
C617 C618 1.379 . S
C618 H602 0.931 . S
C618 C612 1.383 . S
C618 C617 1.379 . S
H619 C613 0.959 . S
H620 C613 0.961 . S
H621 C613 0.960 . S
H622 C614 0.930 . S
H623 C615 0.929 . S
H624 C632 0.929 . S
H625 C634 0.930 . S
H626 C636 0.930 . S
H627 C639 0.929 . S
H628 C642 0.930 . S
H629 C644 0.960 . S
H630 C644 0.960 . S
H631 C644 0.960 . S
C632 H624 0.929 . S
C632 C633 1.377 . S
C632 C634 1.384 . S
C633 C632 1.377 . S
C633 C639 1.390 . S
C634 H625 0.930 . S
C634 C632 1.384 . S
C634 C635 1.372 . S
C635 C634 1.372 . S
C635 C636 1.400 . S
C635 C640 1.490 . S
C636 H626 0.930 . S
C636 C635 1.400 . S
C636 C639 1.386 . S
H637 C653 0.930 . S
H638 C654 0.931 . S
C639 H627 0.929 . S
C639 C633 1.390 . S
C639 C636 1.386 . S
C640 C635 1.490 . S
C640 C642 1.395 . S
C640 C643 1.403 . S
H641 C647 0.930 . S
C642 H628 0.930 . S
C642 C640 1.395 . S
C642 C645 1.403 . S
C643 C640 1.403 . S
C643 C644 1.524 . S
C643 C647 1.400 . S
C644 H629 0.960 . S
C644 H630 0.960 . S
C644 H631 0.960 . S
C644 C643 1.524 . S
C645 C642 1.403 . S
C645 C646 1.392 . S
C645 C649 1.495 . S
C646 C645 1.392 . S
C646 C647 1.385 . S
C646 C648 1.478 . S
C647 H641 0.930 . S
C647 C643 1.400 . S
C647 C646 1.385 . S
C648 C646 1.478 . S
C648 C650 1.381 . S
C648 C654 1.383 . S
C649 C645 1.495 . S
C649 H655 0.959 . S
C649 H656 0.961 . S
C649 H657 0.960 . S
C650 C648 1.381 . S
C650 C651 1.394 . S
C650 H658 0.930 . S
C651 C650 1.394 . S
C651 C652 1.383 . S
C651 H659 0.929 . S
C652 C651 1.383 . S
C652 C653 1.377 . S
C653 H637 0.930 . S
C653 C652 1.377 . S
C653 C654 1.379 . S
C654 H638 0.931 . S
C654 C648 1.383 . S
C654 C653 1.379 . S
H655 C649 0.959 . S
H656 C649 0.961 . S
H657 C649 0.960 . S
H658 C650 0.930 . S
H659 C651 0.929 . S
H660 C668 0.929 . S
H661 C670 0.930 . S
H662 C672 0.930 . S
H663 C675 0.929 . S
H664 C678 0.930 . S
H665 C680 0.960 . S
H666 C680 0.960 . S
H667 C680 0.960 . S
C668 H660 0.929 . S
C668 C669 1.377 . S
C668 C670 1.384 . S
C669 C668 1.377 . S
C669 C675 1.390 . S
C670 H661 0.930 . S
C670 C668 1.384 . S
C670 C671 1.372 . S
C671 C670 1.372 . S
C671 C672 1.400 . S
C671 C676 1.490 . S
C672 H662 0.930 . S
C672 C671 1.400 . S
C672 C675 1.386 . S
H673 C689 0.930 . S
H674 C690 0.931 . S
C675 H663 0.929 . S
C675 C669 1.390 . S
C675 C672 1.386 . S
C676 C671 1.490 . S
C676 C678 1.395 . S
C676 C679 1.403 . S
H677 C683 0.930 . S
C678 H664 0.930 . S
C678 C676 1.395 . S
C678 C681 1.403 . S
C679 C676 1.403 . S
C679 C680 1.524 . S
C679 C683 1.400 . S
C680 H665 0.960 . S
C680 H666 0.960 . S
C680 H667 0.960 . S
C680 C679 1.524 . S
C681 C678 1.403 . S
C681 C682 1.392 . S
C681 C685 1.495 . S
C682 C681 1.392 . S
C682 C683 1.385 . S
C682 C684 1.478 . S
C683 H677 0.930 . S
C683 C679 1.400 . S
C683 C682 1.385 . S
C684 C682 1.478 . S
C684 C686 1.381 . S
C684 C690 1.383 . S
C685 C681 1.495 . S
C685 H691 0.959 . S
C685 H692 0.961 . S
C685 H693 0.960 . S
C686 C684 1.381 . S
C686 C687 1.394 . S
C686 H694 0.930 . S
C687 C686 1.394 . S
C687 C688 1.383 . S
C687 H695 0.929 . S
C688 C687 1.383 . S
C688 C689 1.377 . S
C689 H673 0.930 . S
C689 C688 1.377 . S
C689 C690 1.379 . S
C690 H674 0.931 . S
C690 C684 1.383 . S
C690 C689 1.379 . S
H691 C685 0.959 . S
H692 C685 0.961 . S
H693 C685 0.960 . S
H694 C686 0.930 . S
H695 C687 0.929 . S
H696 C704 0.929 . S
H697 C706 0.930 . S
H698 C708 0.930 . S
H699 C711 0.929 . S
H700 C714 0.930 . S
H701 C716 0.960 . S
H702 C716 0.960 . S
H703 C716 0.960 . S
C704 H696 0.929 . S
C704 C705 1.377 . S
C704 C706 1.384 . S
C705 C704 1.377 . S
C705 C711 1.390 . S
C706 H697 0.930 . S
C706 C704 1.384 . S
C706 C707 1.372 . S
C707 C706 1.372 . S
C707 C708 1.400 . S
C707 C712 1.490 . S
C708 H698 0.930 . S
C708 C707 1.400 . S
C708 C711 1.386 . S
H709 C725 0.930 . S
H710 C726 0.931 . S
C711 H699 0.929 . S
C711 C705 1.390 . S
C711 C708 1.386 . S
C712 C707 1.490 . S
C712 C714 1.395 . S
C712 C715 1.403 . S
H713 C719 0.930 . S
C714 H700 0.930 . S
C714 C712 1.395 . S
C714 C717 1.403 . S
C715 C712 1.403 . S
C715 C716 1.524 . S
C715 C719 1.400 . S
C716 H701 0.960 . S
C716 H702 0.960 . S
C716 H703 0.960 . S
C716 C715 1.524 . S
C717 C714 1.403 . S
C717 C718 1.392 . S
C717 C721 1.495 . S
C718 C717 1.392 . S
C718 C719 1.385 . S
C718 C720 1.478 . S
C719 H713 0.930 . S
C719 C715 1.400 . S
C719 C718 1.385 . S
C720 C718 1.478 . S
C720 C722 1.381 . S
C720 C726 1.383 . S
C721 C717 1.495 . S
C721 H727 0.959 . S
C721 H728 0.961 . S
C721 H729 0.960 . S
C722 C720 1.381 . S
C722 C723 1.394 . S
C722 H730 0.930 . S
C723 C722 1.394 . S
C723 C724 1.383 . S
C723 H731 0.929 . S
C724 C723 1.383 . S
C724 C725 1.377 . S
C725 H709 0.930 . S
C725 C724 1.377 . S
C725 C726 1.379 . S
C726 H710 0.931 . S
C726 C720 1.383 . S
C726 C725 1.379 . S
H727 C721 0.959 . S
H728 C721 0.961 . S
H729 C721 0.960 . S
H730 C722 0.930 . S
H731 C723 0.929 . S
H732 C740 0.929 . S
H733 C742 0.930 . S
H734 C744 0.930 . S
H735 C747 0.929 . S
H736 C750 0.930 . S
H737 C752 0.960 . S
H738 C752 0.960 . S
H739 C752 0.960 . S
C740 H732 0.929 . S
C740 C741 1.377 . S
C740 C742 1.384 . S
C741 C740 1.377 . S
C741 C747 1.390 . S
C742 H733 0.930 . S
C742 C740 1.384 . S
C742 C743 1.372 . S
C743 C742 1.372 . S
C743 C744 1.400 . S
C743 C748 1.490 . S
C744 H734 0.930 . S
C744 C743 1.400 . S
C744 C747 1.386 . S
H745 C761 0.930 . S
H746 C762 0.931 . S
C747 H735 0.929 . S
C747 C741 1.390 . S
C747 C744 1.386 . S
C748 C743 1.490 . S
C748 C750 1.395 . S
C748 C751 1.403 . S
H749 C755 0.930 . S
C750 H736 0.930 . S
C750 C748 1.395 . S
C750 C753 1.403 . S
C751 C748 1.403 . S
C751 C752 1.524 . S
C751 C755 1.400 . S
C752 H737 0.960 . S
C752 H738 0.960 . S
C752 H739 0.960 . S
C752 C751 1.524 . S
C753 C750 1.403 . S
C753 C754 1.392 . S
C753 C757 1.495 . S
C754 C753 1.392 . S
C754 C755 1.385 . S
C754 C756 1.478 . S
C755 H749 0.930 . S
C755 C751 1.400 . S
C755 C754 1.385 . S
C756 C754 1.478 . S
C756 C758 1.381 . S
C756 C762 1.383 . S
C757 C753 1.495 . S
C757 H763 0.959 . S
C757 H764 0.961 . S
C757 H765 0.960 . S
C758 C756 1.381 . S
C758 C759 1.394 . S
C758 H766 0.930 . S
C759 C758 1.394 . S
C759 C760 1.383 . S
C759 H767 0.929 . S
C760 C759 1.383 . S
C760 C761 1.377 . S
C761 H745 0.930 . S
C761 C760 1.377 . S
C761 C762 1.379 . S
C762 H746 0.931 . S
C762 C756 1.383 . S
C762 C761 1.379 . S
H763 C757 0.959 . S
H764 C757 0.961 . S
H765 C757 0.960 . S
H766 C758 0.930 . S
H767 C759 0.929 . S
H768 C776 0.929 . S
H769 C778 0.930 . S
H770 C780 0.930 . S
H771 C783 0.929 . S
H772 C786 0.930 . S
H773 C788 0.960 . S
H774 C788 0.960 . S
H775 C788 0.960 . S
C776 H768 0.929 . S
C776 C777 1.377 . S
C776 C778 1.384 . S
C777 C776 1.377 . S
C777 C783 1.390 . S
C778 H769 0.930 . S
C778 C776 1.384 . S
C778 C779 1.372 . S
C779 C778 1.372 . S
C779 C780 1.400 . S
C779 C784 1.490 . S
C780 H770 0.930 . S
C780 C779 1.400 . S
C780 C783 1.386 . S
H781 C797 0.930 . S
H782 C798 0.931 . S
C783 H771 0.929 . S
C783 C777 1.390 . S
C783 C780 1.386 . S
C784 C779 1.490 . S
C784 C786 1.395 . S
C784 C787 1.403 . S
H785 C791 0.930 . S
C786 H772 0.930 . S
C786 C784 1.395 . S
C786 C789 1.403 . S
C787 C784 1.403 . S
C787 C788 1.524 . S
C787 C791 1.400 . S
C788 H773 0.960 . S
C788 H774 0.960 . S
C788 H775 0.960 . S
C788 C787 1.524 . S
C789 C786 1.403 . S
C789 C790 1.392 . S
C789 C793 1.495 . S
C790 C789 1.392 . S
C790 C791 1.385 . S
C790 C792 1.478 . S
C791 H785 0.930 . S
C791 C787 1.400 . S
C791 C790 1.385 . S
C792 C790 1.478 . S
C792 C794 1.381 . S
C792 C798 1.383 . S
C793 C789 1.495 . S
C793 H799 0.959 . S
C793 H800 0.961 . S
C793 H801 0.960 . S
C794 C792 1.381 . S
C794 C795 1.394 . S
C794 H802 0.930 . S
C795 C794 1.394 . S
C795 C796 1.383 . S
C795 H803 0.929 . S
C796 C795 1.383 . S
C796 C797 1.377 . S
C797 H781 0.930 . S
C797 C796 1.377 . S
C797 C798 1.379 . S
C798 H782 0.931 . S
C798 C792 1.383 . S
C798 C797 1.379 . S
H799 C793 0.959 . S
H800 C793 0.961 . S
H801 C793 0.960 . S
H802 C794 0.930 . S
H803 C795 0.929 . S
H804 C812 0.929 . S
H805 C814 0.930 . S
H806 C816 0.930 . S
H807 C819 0.929 . S
H808 C822 0.930 . S
H809 C824 0.960 . S
H810 C824 0.960 . S
H811 C824 0.960 . S
C812 H804 0.929 . S
C812 C813 1.377 . S
C812 C814 1.384 . S
C813 C812 1.377 . S
C813 C819 1.390 . S
C814 H805 0.930 . S
C814 C812 1.384 . S
C814 C815 1.372 . S
C815 C814 1.372 . S
C815 C816 1.400 . S
C815 C820 1.490 . S
C816 H806 0.930 . S
C816 C815 1.400 . S
C816 C819 1.386 . S
H817 C833 0.930 . S
H818 C834 0.931 . S
C819 H807 0.929 . S
C819 C813 1.390 . S
C819 C816 1.386 . S
C820 C815 1.490 . S
C820 C822 1.395 . S
C820 C823 1.403 . S
H821 C827 0.930 . S
C822 H808 0.930 . S
C822 C820 1.395 . S
C822 C825 1.403 . S
C823 C820 1.403 . S
C823 C824 1.524 . S
C823 C827 1.400 . S
C824 H809 0.960 . S
C824 H810 0.960 . S
C824 H811 0.960 . S
C824 C823 1.524 . S
C825 C822 1.403 . S
C825 C826 1.392 . S
C825 C829 1.495 . S
C826 C825 1.392 . S
C826 C827 1.385 . S
C826 C828 1.478 . S
C827 H821 0.930 . S
C827 C823 1.400 . S
C827 C826 1.385 . S
C828 C826 1.478 . S
C828 C830 1.381 . S
C828 C834 1.383 . S
C829 C825 1.495 . S
C829 H835 0.959 . S
C829 H836 0.961 . S
C829 H837 0.960 . S
C830 C828 1.381 . S
C830 C831 1.394 . S
C830 H838 0.930 . S
C831 C830 1.394 . S
C831 C832 1.383 . S
C831 H839 0.929 . S
C832 C831 1.383 . S
C832 C833 1.377 . S
C833 H817 0.930 . S
C833 C832 1.377 . S
C833 C834 1.379 . S
C834 H818 0.931 . S
C834 C828 1.383 . S
C834 C833 1.379 . S
H835 C829 0.959 . S
H836 C829 0.961 . S
H837 C829 0.960 . S
H838 C830 0.930 . S
H839 C831 0.929 . S
H840 C848 0.929 . S
H841 C850 0.930 . S
H842 C852 0.930 . S
H843 C855 0.929 . S
H844 C858 0.930 . S
H845 C860 0.960 . S
H846 C860 0.960 . S
H847 C860 0.960 . S
C848 H840 0.929 . S
C848 C849 1.377 . S
C848 C850 1.384 . S
C849 C848 1.377 . S
C849 C855 1.390 . S
C850 H841 0.930 . S
C850 C848 1.384 . S
C850 C851 1.372 . S
C851 C850 1.372 . S
C851 C852 1.400 . S
C851 C856 1.490 . S
C852 H842 0.930 . S
C852 C851 1.400 . S
C852 C855 1.386 . S
H853 C869 0.930 . S
H854 C870 0.931 . S
C855 H843 0.929 . S
C855 C849 1.390 . S
C855 C852 1.386 . S
C856 C851 1.490 . S
C856 C858 1.395 . S
C856 C859 1.403 . S
H857 C863 0.930 . S
C858 H844 0.930 . S
C858 C856 1.395 . S
C858 C861 1.403 . S
C859 C856 1.403 . S
C859 C860 1.524 . S
C859 C863 1.400 . S
C860 H845 0.960 . S
C860 H846 0.960 . S
C860 H847 0.960 . S
C860 C859 1.524 . S
C861 C858 1.403 . S
C861 C862 1.392 . S
C861 C865 1.495 . S
C862 C861 1.392 . S
C862 C863 1.385 . S
C862 C864 1.478 . S
C863 H857 0.930 . S
C863 C859 1.400 . S
C863 C862 1.385 . S
C864 C862 1.478 . S
C864 C866 1.381 . S
C864 C870 1.383 . S
C865 C861 1.495 . S
C865 H871 0.959 . S
C865 H872 0.961 . S
C865 H873 0.960 . S
C866 C864 1.381 . S
C866 C867 1.394 . S
C866 H874 0.930 . S
C867 C866 1.394 . S
C867 C868 1.383 . S
C867 H875 0.929 . S
C868 C867 1.383 . S
C868 C869 1.377 . S
C869 H853 0.930 . S
C869 C868 1.377 . S
C869 C870 1.379 . S
C870 H854 0.931 . S
C870 C864 1.383 . S
C870 C869 1.379 . S
H871 C865 0.959 . S
H872 C865 0.961 . S
H873 C865 0.960 . S
H874 C866 0.930 . S
H875 C867 0.929 . S
H876 C884 0.929 . S
H877 C886 0.930 . S
H878 C888 0.930 . S
H879 C891 0.929 . S
H880 C894 0.930 . S
H881 C896 0.960 . S
H882 C896 0.960 . S
H883 C896 0.960 . S
C884 H876 0.929 . S
C884 C885 1.377 . S
C884 C886 1.384 . S
C885 C884 1.377 . S
C885 C891 1.390 . S
C886 H877 0.930 . S
C886 C884 1.384 . S
C886 C887 1.372 . S
C887 C886 1.372 . S
C887 C888 1.400 . S
C887 C892 1.490 . S
C888 H878 0.930 . S
C888 C887 1.400 . S
C888 C891 1.386 . S
H889 C905 0.930 . S
H890 C906 0.931 . S
C891 H879 0.929 . S
C891 C885 1.390 . S
C891 C888 1.386 . S
C892 C887 1.490 . S
C892 C894 1.395 . S
C892 C895 1.403 . S
H893 C899 0.930 . S
C894 H880 0.930 . S
C894 C892 1.395 . S
C894 C897 1.403 . S
C895 C892 1.403 . S
C895 C896 1.524 . S
C895 C899 1.400 . S
C896 H881 0.960 . S
C896 H882 0.960 . S
C896 H883 0.960 . S
C896 C895 1.524 . S
C897 C894 1.403 . S
C897 C898 1.392 . S
C897 C901 1.495 . S
C898 C897 1.392 . S
C898 C899 1.385 . S
C898 C900 1.478 . S
C899 H893 0.930 . S
C899 C895 1.400 . S
C899 C898 1.385 . S
C900 C898 1.478 . S
C900 C902 1.381 . S
C900 C906 1.383 . S
C901 C897 1.495 . S
C901 H907 0.959 . S
C901 H908 0.961 . S
C901 H909 0.960 . S
C902 C900 1.381 . S
C902 C903 1.394 . S
C902 H910 0.930 . S
C903 C902 1.394 . S
C903 C904 1.383 . S
C903 H911 0.929 . S
C904 C903 1.383 . S
C904 C905 1.377 . S
C905 H889 0.930 . S
C905 C904 1.377 . S
C905 C906 1.379 . S
C906 H890 0.931 . S
C906 C900 1.383 . S
C906 C905 1.379 . S
H907 C901 0.959 . S
H908 C901 0.961 . S
H909 C901 0.960 . S
H910 C902 0.930 . S
H911 C903 0.929 . S
H912 C920 0.929 . S
H913 C922 0.930 . S
H914 C924 0.930 . S
H915 C927 0.929 . S
H916 C930 0.930 . S
H917 C932 0.960 . S
H918 C932 0.960 . S
H919 C932 0.960 . S
C920 H912 0.929 . S
C920 C921 1.377 . S
C920 C922 1.384 . S
C921 C920 1.377 . S
C921 C927 1.390 . S
C922 H913 0.930 . S
C922 C920 1.384 . S
C922 C923 1.372 . S
C923 C922 1.372 . S
C923 C924 1.400 . S
C923 C928 1.490 . S
C924 H914 0.930 . S
C924 C923 1.400 . S
C924 C927 1.386 . S
H925 C941 0.930 . S
H926 C942 0.931 . S
C927 H915 0.929 . S
C927 C921 1.390 . S
C927 C924 1.386 . S
C928 C923 1.490 . S
C928 C930 1.395 . S
C928 C931 1.403 . S
H929 C935 0.930 . S
C930 H916 0.930 . S
C930 C928 1.395 . S
C930 C933 1.403 . S
C931 C928 1.403 . S
C931 C932 1.524 . S
C931 C935 1.400 . S
C932 H917 0.960 . S
C932 H918 0.960 . S
C932 H919 0.960 . S
C932 C931 1.524 . S
C933 C930 1.403 . S
C933 C934 1.392 . S
C933 C937 1.495 . S
C934 C933 1.392 . S
C934 C935 1.385 . S
C934 C936 1.478 . S
C935 H929 0.930 . S
C935 C931 1.400 . S
C935 C934 1.385 . S
C936 C934 1.478 . S
C936 C938 1.381 . S
C936 C942 1.383 . S
C937 C933 1.495 . S
C937 H943 0.959 . S
C937 H944 0.961 . S
C937 H945 0.960 . S
C938 C936 1.381 . S
C938 C939 1.394 . S
C938 H946 0.930 . S
C939 C938 1.394 . S
C939 C940 1.383 . S
C939 H947 0.929 . S
C940 C939 1.383 . S
C940 C941 1.377 . S
C941 H925 0.930 . S
C941 C940 1.377 . S
C941 C942 1.379 . S
C942 H926 0.931 . S
C942 C936 1.383 . S
C942 C941 1.379 . S
H943 C937 0.959 . S
H944 C937 0.961 . S
H945 C937 0.960 . S
H946 C938 0.930 . S
H947 C939 0.929 . S
H948 C956 0.929 . S
H949 C958 0.930 . S
H950 C960 0.930 . S
H951 C963 0.929 . S
H952 C966 0.930 . S
H953 C968 0.960 . S
H954 C968 0.960 . S
H955 C968 0.960 . S
C956 H948 0.929 . S
C956 C957 1.377 . S
C956 C958 1.384 . S
C957 C956 1.377 . S
C957 C963 1.390 . S
C958 H949 0.930 . S
C958 C956 1.384 . S
C958 C959 1.372 . S
C959 C958 1.372 . S
C959 C960 1.400 . S
C959 C964 1.490 . S
C960 H950 0.930 . S
C960 C959 1.400 . S
C960 C963 1.386 . S
H961 C977 0.930 . S
H962 C978 0.931 . S
C963 H951 0.929 . S
C963 C957 1.390 . S
C963 C960 1.386 . S
C964 C959 1.490 . S
C964 C966 1.395 . S
C964 C967 1.403 . S
H965 C971 0.930 . S
C966 H952 0.930 . S
C966 C964 1.395 . S
C966 C969 1.403 . S
C967 C964 1.403 . S
C967 C968 1.524 . S
C967 C971 1.400 . S
C968 H953 0.960 . S
C968 H954 0.960 . S
C968 H955 0.960 . S
C968 C967 1.524 . S
C969 C966 1.403 . S
C969 C970 1.392 . S
C969 C973 1.495 . S
C970 C969 1.392 . S
C970 C971 1.385 . S
C970 C972 1.478 . S
C971 H965 0.930 . S
C971 C967 1.400 . S
C971 C970 1.385 . S
C972 C970 1.478 . S
C972 C974 1.381 . S
C972 C978 1.383 . S
C973 C969 1.495 . S
C973 H979 0.959 . S
C973 H980 0.961 . S
C973 H981 0.960 . S
C974 C972 1.381 . S
C974 C975 1.394 . S
C974 H982 0.930 . S
C975 C974 1.394 . S
C975 C976 1.383 . S
C975 H983 0.929 . S
C976 C975 1.383 . S
C976 C977 1.377 . S
C977 H961 0.930 . S
C977 C976 1.377 . S
C977 C978 1.379 . S
C978 H962 0.931 . S
C978 C972 1.383 . S
C978 C977 1.379 . S
H979 C973 0.959 . S
H980 C973 0.961 . S
H981 C973 0.960 . S
H982 C974 0.930 . S
H983 C975 0.929 . S
H984 C992 0.929 . S
H985 C994 0.930 . S
H986 C996 0.930 . S
H987 C999 0.929 . S
H988 C1002 0.930 . S
H989 C1004 0.960 . S
H990 C1004 0.960 . S
H991 C1004 0.960 . S
C992 H984 0.929 . S
C992 C993 1.377 . S
C992 C994 1.384 . S
C993 C992 1.377 . S
C993 C999 1.390 . S
C994 H985 0.930 . S
C994 C992 1.384 . S
C994 C995 1.372 . S
C995 C994 1.372 . S
C995 C996 1.400 . S
C995 C1000 1.490 . S
C996 H986 0.930 . S
C996 C995 1.400 . S
C996 C999 1.386 . S
H997 C1013 0.930 . S
H998 C1014 0.931 . S
C999 H987 0.929 . S
C999 C993 1.390 . S
C999 C996 1.386 . S
C1000 C995 1.490 . S
C1000 C1002 1.395 . S
C1000 C1003 1.403 . S
H1001 C1007 0.930 . S
C1002 H988 0.930 . S
C1002 C1000 1.395 . S
C1002 C1005 1.403 . S
C1003 C1000 1.403 . S
C1003 C1004 1.524 . S
C1003 C1007 1.400 . S
C1004 H989 0.960 . S
C1004 H990 0.960 . S
C1004 H991 0.960 . S
C1004 C1003 1.524 . S
C1005 C1002 1.403 . S
C1005 C1006 1.392 . S
C1005 C1009 1.495 . S
C1006 C1005 1.392 . S
C1006 C1007 1.385 . S
C1006 C1008 1.478 . S
C1007 H1001 0.930 . S
C1007 C1003 1.400 . S
C1007 C1006 1.385 . S
C1008 C1006 1.478 . S
C1008 C1010 1.381 . S
C1008 C1014 1.383 . S
C1009 C1005 1.495 . S
C1009 H1015 0.959 . S
C1009 H1016 0.961 . S
C1009 H1017 0.960 . S
C1010 C1008 1.381 . S
C1010 C1011 1.394 . S
C1010 H1018 0.930 . S
C1011 C1010 1.394 . S
C1011 C1012 1.383 . S
C1011 H1019 0.929 . S
C1012 C1011 1.383 . S
C1012 C1013 1.377 . S
C1013 H997 0.930 . S
C1013 C1012 1.377 . S
C1013 C1014 1.379 . S
C1014 H998 0.931 . S
C1014 C1008 1.383 . S
C1014 C1013 1.379 . S
H1015 C1009 0.959 . S
H1016 C1009 0.961 . S
H1017 C1009 0.960 . S
H1018 C1010 0.930 . S
H1019 C1011 0.929 . S
H1020 C1028 0.929 . S
H1021 C1030 0.930 . S
H1022 C1032 0.930 . S
H1023 C1035 0.929 . S
H1024 C1038 0.930 . S
H1025 C1040 0.960 . S
H1026 C1040 0.960 . S
H1027 C1040 0.960 . S
C1028 H1020 0.929 . S
C1028 C1029 1.377 . S
C1028 C1030 1.384 . S
C1029 C1028 1.377 . S
C1029 C1035 1.390 . S
C1030 H1021 0.930 . S
C1030 C1028 1.384 . S
C1030 C1031 1.372 . S
C1031 C1030 1.372 . S
C1031 C1032 1.400 . S
C1031 C1036 1.490 . S
C1032 H1022 0.930 . S
C1032 C1031 1.400 . S
C1032 C1035 1.386 . S
H1033 C1049 0.930 . S
H1034 C1050 0.931 . S
C1035 H1023 0.929 . S
C1035 C1029 1.390 . S
C1035 C1032 1.386 . S
C1036 C1031 1.490 . S
C1036 C1038 1.395 . S
C1036 C1039 1.403 . S
H1037 C1043 0.930 . S
C1038 H1024 0.930 . S
C1038 C1036 1.395 . S
C1038 C1041 1.403 . S
C1039 C1036 1.403 . S
C1039 C1040 1.524 . S
C1039 C1043 1.400 . S
C1040 H1025 0.960 . S
C1040 H1026 0.960 . S
C1040 H1027 0.960 . S
C1040 C1039 1.524 . S
C1041 C1038 1.403 . S
C1041 C1042 1.392 . S
C1041 C1045 1.495 . S
C1042 C1041 1.392 . S
C1042 C1043 1.385 . S
C1042 C1044 1.478 . S
C1043 H1037 0.930 . S
C1043 C1039 1.400 . S
C1043 C1042 1.385 . S
C1044 C1042 1.478 . S
C1044 C1046 1.381 . S
C1044 C1050 1.383 . S
C1045 C1041 1.495 . S
C1045 H1051 0.959 . S
C1045 H1052 0.961 . S
C1045 H1053 0.960 . S
C1046 C1044 1.381 . S
C1046 C1047 1.394 . S
C1046 H1054 0.930 . S
C1047 C1046 1.394 . S
C1047 C1048 1.383 . S
C1047 H1055 0.929 . S
C1048 C1047 1.383 . S
C1048 C1049 1.377 . S
C1049 H1033 0.930 . S
C1049 C1048 1.377 . S
C1049 C1050 1.379 . S
C1050 H1034 0.931 . S
C1050 C1044 1.383 . S
C1050 C1049 1.379 . S
H1051 C1045 0.959 . S
H1052 C1045 0.961 . S
H1053 C1045 0.960 . S
H1054 C1046 0.930 . S
H1055 C1047 0.929 . S
H1056 C1064 0.929 . S
H1057 C1066 0.930 . S
H1058 C1068 0.930 . S
H1059 C1071 0.929 . S
H1060 C1074 0.930 . S
H1061 C1076 0.960 . S
H1062 C1076 0.960 . S
H1063 C1076 0.960 . S
C1064 H1056 0.929 . S
C1064 C1065 1.377 . S
C1064 C1066 1.384 . S
C1065 C1064 1.377 . S
C1065 C1071 1.390 . S
C1066 H1057 0.930 . S
C1066 C1064 1.384 . S
C1066 C1067 1.372 . S
C1067 C1066 1.372 . S
C1067 C1068 1.400 . S
C1067 C1072 1.490 . S
C1068 H1058 0.930 . S
C1068 C1067 1.400 . S
C1068 C1071 1.386 . S
H1069 C1085 0.930 . S
H1070 C1086 0.931 . S
C1071 H1059 0.929 . S
C1071 C1065 1.390 . S
C1071 C1068 1.386 . S
C1072 C1067 1.490 . S
C1072 C1074 1.395 . S
C1072 C1075 1.403 . S
H1073 C1079 0.930 . S
C1074 H1060 0.930 . S
C1074 C1072 1.395 . S
C1074 C1077 1.403 . S
C1075 C1072 1.403 . S
C1075 C1076 1.524 . S
C1075 C1079 1.400 . S
C1076 H1061 0.960 . S
C1076 H1062 0.960 . S
C1076 H1063 0.960 . S
C1076 C1075 1.524 . S
C1077 C1074 1.403 . S
C1077 C1078 1.392 . S
C1077 C1081 1.495 . S
C1078 C1077 1.392 . S
C1078 C1079 1.385 . S
C1078 C1080 1.478 . S
C1079 H1073 0.930 . S
C1079 C1075 1.400 . S
C1079 C1078 1.385 . S
C1080 C1078 1.478 . S
C1080 C1082 1.381 . S
C1080 C1086 1.383 . S
C1081 C1077 1.495 . S
C1081 H1087 0.959 . S
C1081 H1088 0.961 . S
C1081 H1089 0.960 . S
C1082 C1080 1.381 . S
C1082 C1083 1.394 . S
C1082 H1090 0.930 . S
C1083 C1082 1.394 . S
C1083 C1084 1.383 . S
C1083 H1091 0.929 . S
C1084 C1083 1.383 . S
C1084 C1085 1.377 . S
C1085 H1069 0.930 . S
C1085 C1084 1.377 . S
C1085 C1086 1.379 . S
C1086 H1070 0.931 . S
C1086 C1080 1.383 . S
C1086 C1085 1.379 . S
H1087 C1081 0.959 . S
H1088 C1081 0.961 . S
H1089 C1081 0.960 . S
H1090 C1082 0.930 . S
H1091 C1083 0.929 . S
H1092 C1100 0.929 . S
H1093 C1102 0.930 . S
H1094 C1104 0.930 . S
H1095 C1107 0.929 . S
H1096 C1110 0.930 . S
H1097 C1112 0.960 . S
H1098 C1112 0.960 . S
H1099 C1112 0.960 . S
C1100 H1092 0.929 . S
C1100 C1101 1.377 . S
C1100 C1102 1.384 . S
C1101 C1100 1.377 . S
C1101 C1107 1.390 . S
C1102 H1093 0.930 . S
C1102 C1100 1.384 . S
C1102 C1103 1.372 . S
C1103 C1102 1.372 . S
C1103 C1104 1.400 . S
C1103 C1108 1.490 . S
C1104 H1094 0.930 . S
C1104 C1103 1.400 . S
C1104 C1107 1.386 . S
H1105 C1121 0.930 . S
H1106 C1122 0.931 . S
C1107 H1095 0.929 . S
C1107 C1101 1.390 . S
C1107 C1104 1.386 . S
C1108 C1103 1.490 . S
C1108 C1110 1.395 . S
C1108 C1111 1.403 . S
H1109 C1115 0.930 . S
C1110 H1096 0.930 . S
C1110 C1108 1.395 . S
C1110 C1113 1.403 . S
C1111 C1108 1.403 . S
C1111 C1112 1.524 . S
C1111 C1115 1.400 . S
C1112 H1097 0.960 . S
C1112 H1098 0.960 . S
C1112 H1099 0.960 . S
C1112 C1111 1.524 . S
C1113 C1110 1.403 . S
C1113 C1114 1.392 . S
C1113 C1117 1.495 . S
C1114 C1113 1.392 . S
C1114 C1115 1.385 . S
C1114 C1116 1.478 . S
C1115 H1109 0.930 . S
C1115 C1111 1.400 . S
C1115 C1114 1.385 . S
C1116 C1114 1.478 . S
C1116 C1118 1.381 . S
C1116 C1122 1.383 . S
C1117 C1113 1.495 . S
C1117 H1123 0.959 . S
C1117 H1124 0.961 . S
C1117 H1125 0.960 . S
C1118 C1116 1.381 . S
C1118 C1119 1.394 . S
C1118 H1126 0.930 . S
C1119 C1118 1.394 . S
C1119 C1120 1.383 . S
C1119 H1127 0.929 . S
C1120 C1119 1.383 . S
C1120 C1121 1.377 . S
C1121 H1105 0.930 . S
C1121 C1120 1.377 . S
C1121 C1122 1.379 . S
C1122 H1106 0.931 . S
C1122 C1116 1.383 . S
C1122 C1121 1.379 . S
H1123 C1117 0.959 . S
H1124 C1117 0.961 . S
H1125 C1117 0.960 . S
H1126 C1118 0.930 . S
H1127 C1119 0.929 . S
H1128 C1136 0.929 . S
H1129 C1138 0.930 . S
H1130 C1140 0.930 . S
H1131 C1143 0.929 . S
H1132 C1146 0.930 . S
H1133 C1148 0.960 . S
H1134 C1148 0.960 . S
H1135 C1148 0.960 . S
C1136 H1128 0.929 . S
C1136 C1137 1.377 . S
C1136 C1138 1.384 . S
C1137 C1136 1.377 . S
C1137 C1143 1.390 . S
C1138 H1129 0.930 . S
C1138 C1136 1.384 . S
C1138 C1139 1.372 . S
C1139 C1138 1.372 . S
C1139 C1140 1.400 . S
C1139 C1144 1.490 . S
C1140 H1130 0.930 . S
C1140 C1139 1.400 . S
C1140 C1143 1.386 . S
H1141 C1157 0.930 . S
H1142 C1158 0.931 . S
C1143 H1131 0.929 . S
C1143 C1137 1.390 . S
C1143 C1140 1.386 . S
C1144 C1139 1.490 . S
C1144 C1146 1.395 . S
C1144 C1147 1.403 . S
H1145 C1151 0.930 . S
C1146 H1132 0.930 . S
C1146 C1144 1.395 . S
C1146 C1149 1.403 . S
C1147 C1144 1.403 . S
C1147 C1148 1.524 . S
C1147 C1151 1.400 . S
C1148 H1133 0.960 . S
C1148 H1134 0.960 . S
C1148 H1135 0.960 . S
C1148 C1147 1.524 . S
C1149 C1146 1.403 . S
C1149 C1150 1.392 . S
C1149 C1153 1.495 . S
C1150 C1149 1.392 . S
C1150 C1151 1.385 . S
C1150 C1152 1.478 . S
C1151 H1145 0.930 . S
C1151 C1147 1.400 . S
C1151 C1150 1.385 . S
C1152 C1150 1.478 . S
C1152 C1154 1.381 . S
C1152 C1158 1.383 . S
C1153 C1149 1.495 . S
C1153 H1159 0.959 . S
C1153 H1160 0.961 . S
C1153 H1161 0.960 . S
C1154 C1152 1.381 . S
C1154 C1155 1.394 . S
C1154 H1162 0.930 . S
C1155 C1154 1.394 . S
C1155 C1156 1.383 . S
C1155 H1163 0.929 . S
C1156 C1155 1.383 . S
C1156 C1157 1.377 . S
C1157 H1141 0.930 . S
C1157 C1156 1.377 . S
C1157 C1158 1.379 . S
C1158 H1142 0.931 . S
C1158 C1152 1.383 . S
C1158 C1157 1.379 . S
H1159 C1153 0.959 . S
H1160 C1153 0.961 . S
H1161 C1153 0.960 . S
H1162 C1154 0.930 . S
H1163 C1155 0.929 . S
H1164 C1172 0.929 . S
H1165 C1174 0.930 . S
H1166 C1176 0.930 . S
H1167 C1179 0.929 . S
H1168 C1182 0.930 . S
H1169 C1184 0.960 . S
H1170 C1184 0.960 . S
H1171 C1184 0.960 . S
C1172 H1164 0.929 . S
C1172 C1173 1.377 . S
C1172 C1174 1.384 . S
C1173 C1172 1.377 . S
C1173 C1179 1.390 . S
C1174 H1165 0.930 . S
C1174 C1172 1.384 . S
C1174 C1175 1.372 . S
C1175 C1174 1.372 . S
C1175 C1176 1.400 . S
C1175 C1180 1.490 . S
C1176 H1166 0.930 . S
C1176 C1175 1.400 . S
C1176 C1179 1.386 . S
H1177 C1193 0.930 . S
H1178 C1194 0.931 . S
C1179 H1167 0.929 . S
C1179 C1173 1.390 . S
C1179 C1176 1.386 . S
C1180 C1175 1.490 . S
C1180 C1182 1.395 . S
C1180 C1183 1.403 . S
H1181 C1187 0.930 . S
C1182 H1168 0.930 . S
C1182 C1180 1.395 . S
C1182 C1185 1.403 . S
C1183 C1180 1.403 . S
C1183 C1184 1.524 . S
C1183 C1187 1.400 . S
C1184 H1169 0.960 . S
C1184 H1170 0.960 . S
C1184 H1171 0.960 . S
C1184 C1183 1.524 . S
C1185 C1182 1.403 . S
C1185 C1186 1.392 . S
C1185 C1189 1.495 . S
C1186 C1185 1.392 . S
C1186 C1187 1.385 . S
C1186 C1188 1.478 . S
C1187 H1181 0.930 . S
C1187 C1183 1.400 . S
C1187 C1186 1.385 . S
C1188 C1186 1.478 . S
C1188 C1190 1.381 . S
C1188 C1194 1.383 . S
C1189 C1185 1.495 . S
C1189 H1195 0.959 . S
C1189 H1196 0.961 . S
C1189 H1197 0.960 . S
C1190 C1188 1.381 . S
C1190 C1191 1.394 . S
C1190 H1198 0.930 . S
C1191 C1190 1.394 . S
C1191 C1192 1.383 . S
C1191 H1199 0.929 . S
C1192 C1191 1.383 . S
C1192 C1193 1.377 . S
C1193 H1177 0.930 . S
C1193 C1192 1.377 . S
C1193 C1194 1.379 . S
C1194 H1178 0.931 . S
C1194 C1188 1.383 . S
C1194 C1193 1.379 . S
H1195 C1189 0.959 . S
H1196 C1189 0.961 . S
H1197 C1189 0.960 . S
H1198 C1190 0.930 . S
H1199 C1191 0.929 . S
H1200 C1208 0.929 . S
H1201 C1210 0.930 . S
H1202 C1212 0.930 . S
H1203 C1215 0.929 . S
H1204 C1218 0.930 . S
H1205 C1220 0.960 . S
H1206 C1220 0.960 . S
H1207 C1220 0.960 . S
C1208 H1200 0.929 . S
C1208 C1209 1.377 . S
C1208 C1210 1.384 . S
C1209 C1208 1.377 . S
C1209 C1215 1.390 . S
C1210 H1201 0.930 . S
C1210 C1208 1.384 . S
C1210 C1211 1.372 . S
C1211 C1210 1.372 . S
C1211 C1212 1.400 . S
C1211 C1216 1.490 . S
C1212 H1202 0.930 . S
C1212 C1211 1.400 . S
C1212 C1215 1.386 . S
H1213 C1229 0.930 . S
H1214 C1230 0.931 . S
C1215 H1203 0.929 . S
C1215 C1209 1.390 . S
C1215 C1212 1.386 . S
C1216 C1211 1.490 . S
C1216 C1218 1.395 . S
C1216 C1219 1.403 . S
H1217 C1223 0.930 . S
C1218 H1204 0.930 . S
C1218 C1216 1.395 . S
C1218 C1221 1.403 . S
C1219 C1216 1.403 . S
C1219 C1220 1.524 . S
C1219 C1223 1.400 . S
C1220 H1205 0.960 . S
C1220 H1206 0.960 . S
C1220 H1207 0.960 . S
C1220 C1219 1.524 . S
C1221 C1218 1.403 . S
C1221 C1222 1.392 . S
C1221 C1225 1.495 . S
C1222 C1221 1.392 . S
C1222 C1223 1.385 . S
C1222 C1224 1.478 . S
C1223 H1217 0.930 . S
C1223 C1219 1.400 . S
C1223 C1222 1.385 . S
C1224 C1222 1.478 . S
C1224 C1226 1.381 . S
C1224 C1230 1.383 . S
C1225 C1221 1.495 . S
C1225 H1231 0.959 . S
C1225 H1232 0.961 . S
C1225 H1233 0.960 . S
C1226 C1224 1.381 . S
C1226 C1227 1.394 . S
C1226 H1234 0.930 . S
C1227 C1226 1.394 . S
C1227 C1228 1.383 . S
C1227 H1235 0.929 . S
C1228 C1227 1.383 . S
C1228 C1229 1.377 . S
C1229 H1213 0.930 . S
C1229 C1228 1.377 . S
C1229 C1230 1.379 . S
C1230 H1214 0.931 . S
C1230 C1224 1.383 . S
C1230 C1229 1.379 . S
H1231 C1225 0.959 . S
H1232 C1225 0.961 . S
H1233 C1225 0.960 . S
H1234 C1226 0.930 . S
H1235 C1227 0.929 . S
C400 C300 1.509 . S
C381 C25 1.507 . S
C436 C303 1.498 . S
C417 C37 1.508 . S
C472 C301 1.514 . S
C453 C103 1.513 . S
C508 C302 1.499 . S
C489 C139 1.509 . S
C544 C317 1.494 . S
C525 C31 1.501 . S
C580 C331 1.499 . S
C561 C67 1.507 . S
C597 C97 1.506 . S
C616 C357 1.512 . S
C652 C371 1.492 . S
C633 C133 1.501 . S
C688 C316 1.501 . S
C669 C61 1.499 . S
C705 C73 1.512 . S
C724 C330 1.514 . S
C760 C356 1.502 . S
C741 C109 1.504 . S
C796 C370 1.505 . S
C777 C1 1.501 . S
C813 C169 1.499 . S
C832 C315 1.505 . S
C868 C288 1.499 . S
C849 C211 1.504 . S
C885 C241 1.499 . S
C904 C314 1.500 . S
C921 C253 1.504 . S
C940 C289 1.510 . S
C976 C344 1.508 . S
C957 C175 1.505 . S
C1012 C358 1.507 . S
C993 C205 1.500 . S
C1048 C328 1.494 . S
C1029 C217 1.500 . S
C1065 C283 1.515 . S
C1084 C342 1.518 . S
C1120 C345 1.509 . S
C1101 C181 1.503 . S
C1156 C359 1.498 . S
C1137 C247 1.509 . S
C1192 C329 1.502 . S
C1173 C277 1.500 . S
C1209 C145 1.510 . S
C1228 C343 1.505 . S
