# Generated by pormake.
# Topology pth, (4,4)-cn, num edge types: 1
# Building blocks:
#     Node 0, Type 0, BuildingBlock: AZAVOO_clean_sbu_0, # of connection points: 4
#     Node 1, Type 0, BuildingBlock: AZAVOO_clean_sbu_0, # of connection points: 4
#     Node 2, Type 0, BuildingBlock: AZAVOO_clean_sbu_0, # of connection points: 4
#     Node 3, Type 1, BuildingBlock: MIFKUJ_clean_linker_1, # of connection points: 4
#     Node 4, Type 1, BuildingBlock: MIFKUJ_clean_linker_1, # of connection points: 4
#     Node 5, Type 1, BuildingBlock: MIFKUJ_clean_linker_1, # of connection points: 4
#     Edge 6, Type (0, 1), BuildingBlock: OJICUG_clean_linker_0, # of connection points: 2
#     Edge 7, Type (0, 1), BuildingBlock: OJICUG_clean_linker_0, # of connection points: 2
#     Edge 8, Type (0, 1), BuildingBlock: OJICUG_clean_linker_0, # of connection points: 2
#     Edge 9, Type (0, 1), BuildingBlock: OJICUG_clean_linker_0, # of connection points: 2
#     Edge 10, Type (0, 1), BuildingBlock: OJICUG_clean_linker_0, # of connection points: 2
#     Edge 11, Type (0, 1), BuildingBlock: OJICUG_clean_linker_0, # of connection points: 2
#     Edge 12, Type (0, 1), BuildingBlock: OJICUG_clean_linker_0, # of connection points: 2
#     Edge 13, Type (0, 1), BuildingBlock: OJICUG_clean_linker_0, # of connection points: 2
#     Edge 14, Type (0, 1), BuildingBlock: OJICUG_clean_linker_0, # of connection points: 2
#     Edge 15, Type (0, 1), BuildingBlock: OJICUG_clean_linker_0, # of connection points: 2
#     Edge 16, Type (0, 1), BuildingBlock: OJICUG_clean_linker_0, # of connection points: 2
#     Edge 17, Type (0, 1), BuildingBlock: OJICUG_clean_linker_0, # of connection points: 2
# Relax obj value: 0.066
# Max RMSD: 0.214
# Mean RMSD: 0.113
data_MOF--net-pth--node1-AZAVOO_clean_sbu_0--node2-MIFKUJ_clean_linker_1--edge1-OJICUG_clean_linker_0
_symmetry_space_group_name_H-M    P1
_symmetry_Int_Tables_number       1
_symmetry_cell_setting            triclinic
loop_
_symmetry_equiv_pos_as_xyz
'x, y, z'
_cell_length_a     22.86264
_cell_length_b     23.356083
_cell_length_c     49.133476
_cell_angle_alpha  91.144453
_cell_angle_beta   92.900055
_cell_angle_gamma 122.34563
loop_
_atom_site_label
_atom_site_type_symbol
_atom_site_fract_x
_atom_site_fract_y
_atom_site_fract_z
_atom_type_partial_charge
Mg0 Mg 0.08449 0.06577 0.03149 0.0
O1 O -0.00019 0.99641 -0.0012 0.0
O2 O 0.98003 0.05775 0.97005 0.0
Mg3 Mg 0.05621 0.16948 0.98426 0.0
C4 C 0.96738 0.00068 0.97788 0.0
C5 C 0.03975 0.96554 0.08014 0.0
O6 O 0.04271 0.01578 0.09403 0.0
O7 O 0.0119 0.08799 0.0531 0.0
O8 O 0.00313 0.15605 0.02403 0.0
O9 O 0.1655 0.07679 0.00412 0.0
O10 O 0.12679 0.14553 0.00588 0.0
C11 C 0.99021 0.12661 0.04658 0.0
C12 C 0.16669 0.12938 -0.00457 0.0
O13 O 0.05399 0.97214 0.05528 0.0
Mg14 Mg 0.96055 0.01976 0.3488 0.0
O15 O 0.05801 0.04337 0.37462 0.0
O16 O 0.09505 0.13743 0.40079 0.0
Mg17 Mg 0.01878 0.17117 0.39347 0.0
C18 C 0.10118 0.08889 0.3925 0.0
C19 C 0.97687 0.90078 0.3299 0.0
O20 O 0.97429 0.89235 0.35627 0.0
O21 O 0.02359 0.10805 0.32198 0.0
O22 O 0.04961 0.19674 0.34975 0.0
O23 O 0.89175 0.95677 0.3813 0.0
O24 O 0.9375 0.06686 0.37888 0.0
C25 C 0.04997 0.17158 0.32649 0.0
C26 C 0.90037 0.01254 0.39155 0.0
O27 O 0.97193 0.94843 0.32051 0.0
Mg28 Mg 0.98742 0.97523 0.67973 0.0
O29 O 0.06966 0.06305 0.70858 0.0
O30 O 0.01401 0.08399 0.73955 0.0
Mg31 Mg 0.8981 0.0019 0.73357 0.0
C32 C 0.06973 0.09738 0.72911 0.0
C33 C 0.0552 0.96251 0.62885 0.0
O34 O -0.00399 0.90347 0.62676 0.0
O35 O 0.95097 0.04034 0.66081 0.0
O36 O 0.88748 0.04376 0.69315 0.0
O37 O 0.99396 0.90011 0.70519 0.0
O38 O 0.92322 0.93582 0.71144 0.0
C39 C 0.90917 0.05616 0.66921 0.0
C40 C 0.94757 0.89993 0.71932 0.0
O41 O 0.06709 0.00433 0.6485 0.0
H42 H 0.08149 0.42426 0.16432 0.0
H43 H 0.06387 0.32655 0.13741 0.0
H44 H 0.85303 0.26683 0.11425 0.0
H45 H 0.87065 0.36443 0.14167 0.0
H46 H 0.96578 0.50289 0.1376 0.0
H47 H 0.13032 0.50348 0.22508 0.0
H48 H 0.15923 0.43158 0.2503 0.0
H49 H 0.94909 0.26044 0.23264 0.0
H50 H 0.92124 0.33246 0.20695 0.0
H51 H 0.91452 0.54473 0.24394 0.0
H52 H 0.91265 0.62714 0.27457 0.0
H53 H 0.08083 0.79076 0.23423 0.0
H54 H 0.08289 0.70755 0.20361 0.0
H55 H 0.0227 0.52636 0.23756 0.0
H56 H 0.90022 0.61263 0.18022 0.0
H57 H 0.90672 0.7077 0.15687 0.0
H58 H 0.07502 0.72962 0.11221 0.0
H59 H 0.06874 0.63573 0.1356 0.0
C60 C 0.97717 0.40125 0.15522 0.0
C61 C 0.03115 0.38962 0.1538 0.0
C62 C 0.02084 0.3335 0.13855 0.0
C63 C 0.9567 0.28848 0.12405 0.0
C64 C 0.90288 0.30054 0.12529 0.0
C65 C 0.91302 0.3564 0.14079 0.0
C66 C 0.98698 0.45953 0.17205 0.0
C67 C 0.97765 0.50781 0.15951 0.0
C68 C 0.00637 0.46821 0.20029 0.0
C69 C 0.0236 0.42322 0.21437 0.0
C70 C 0.09076 0.45027 0.2265 0.0
C71 C 0.10722 0.40915 0.24082 0.0
C72 C 0.0565 0.34031 0.2435 0.0
C73 C 0.98974 0.31293 0.23056 0.0
C74 C 0.97343 0.3541 0.21613 0.0
C75 C -0.00159 0.61998 0.22136 0.0
C76 C 0.95118 0.59835 0.24173 0.0
C77 C 0.95033 0.64547 0.25928 0.0
C78 C -0.00327 0.71538 0.25686 0.0
C79 C 0.04405 0.73717 0.2364 0.0
C80 C 0.04528 0.68978 0.21892 0.0
C81 C -0.0015 0.56834 0.20338 0.0
C82 C 0.01023 0.52138 0.21568 0.0
C83 C 0.98512 0.56331 0.1747 0.0
C84 C 0.98434 0.61742 0.15977 0.0
C85 C 0.93841 0.638 0.16538 0.0
C86 C 0.94224 0.69229 0.15208 0.0
C87 C 0.99131 0.726 0.13268 0.0
C88 C 0.03599 0.70411 0.12674 0.0
C89 C 0.03251 0.65046 0.14013 0.0
H90 H 0.66565 0.1371 0.46833 0.0
H91 H 0.75128 0.1243 0.44595 0.0
H92 H 0.68996 0.94329 0.48923 0.0
H93 H 0.6033 0.9558 0.51127 0.0
H94 H 0.52823 0.05631 0.46519 0.0
H95 H 0.71004 0.14829 0.53326 0.0
H96 H 0.80193 0.1618 0.56588 0.0
H97 H 0.64828 0.99438 0.6095 0.0
H98 H 0.55699 0.97877 0.57635 0.0
H99 H 0.36662 0.93635 0.55198 0.0
H100 H 0.26438 0.91761 0.57364 0.0
H101 H 0.30935 0.11344 0.54964 0.0
H102 H 0.41242 0.13214 0.52807 0.0
H103 H 0.50701 0.0478 0.56522 0.0
H104 H 0.32978 0.95327 0.48669 0.0
H105 H 0.24334 0.96199 0.45872 0.0
H106 H 0.40301 0.16395 0.43865 0.0
H107 H 0.48888 0.15523 0.46696 0.0
C108 C 0.6285 0.0477 0.49154 0.0
C109 C 0.67085 0.09486 0.47307 0.0
C110 C 0.72016 0.08777 0.46053 0.0
C111 C 0.72767 0.03305 0.46605 0.0
C112 C 0.68523 0.98585 0.48459 0.0
C113 C 0.63611 0.99321 0.49728 0.0
C114 C 0.57464 0.05397 0.50419 0.0
C115 C 0.52421 0.05519 0.48711 0.0
C116 C 0.57017 0.05424 0.53279 0.0
C117 C 0.62642 0.06195 0.55212 0.0
C118 C 0.69616 0.1136 0.54953 0.0
C119 C 0.7486 0.12174 0.56823 0.0
C120 C 0.73187 0.07955 0.59023 0.0
C121 C 0.66227 0.02818 0.59288 0.0
C122 C 0.61014 0.01922 0.57395 0.0
C123 C 0.39682 0.03551 0.53846 0.0
C124 C 0.35427 0.97512 0.55131 0.0
C125 C 0.2956 0.96425 0.56344 0.0
C126 C 0.27874 0.01392 0.56318 0.0
C127 C 0.32134 0.07444 0.5502 0.0
C128 C 0.37992 0.08507 0.53783 0.0
C129 C 0.45932 0.04612 0.52616 0.0
C130 C 0.51165 0.04888 0.54334 0.0
C131 C 0.46678 0.05168 0.49782 0.0
C132 C 0.41543 0.05391 0.47908 0.0
C133 C 0.3461 -0.00081 0.47611 0.0
C134 C 0.29696 0.00408 0.45999 0.0
C135 C 0.31643 0.06383 0.44663 0.0
C136 C 0.3864 0.11765 0.44898 0.0
C137 C 0.43551 0.11257 0.46497 0.0
H138 H 0.49891 0.36699 0.79804 0.0
H139 H 0.39671 0.28599 0.76854 0.0
H140 H 0.27095 0.33295 0.81554 0.0
H141 H 0.37382 0.41878 0.84231 0.0
H142 H 0.56539 0.49574 0.80491 0.0
H143 H 0.48221 0.33261 0.87805 0.0
H144 H 0.39844 0.2496 0.90774 0.0
H145 H 0.32066 0.38015 0.92173 0.0
H146 H 0.4089 0.4648 0.89433 0.0
H147 H 0.59544 0.66002 0.89289 0.0
H148 H 0.68069 0.76627 0.91859 0.0
H149 H 0.83974 0.72303 0.90725 0.0
H150 H 0.75398 0.61657 0.88163 0.0
H151 H 0.55952 0.52227 0.90503 0.0
H152 H 0.63243 0.67285 0.82472 0.0
H153 H 0.72377 0.75978 0.79881 0.0
H154 H 0.82696 0.64924 0.80044 0.0
H155 H 0.73284 0.56073 0.82534 0.0
C156 C 0.44411 0.39772 0.8231 0.0
C157 C 0.44924 0.35987 0.80185 0.0
C158 C 0.39034 0.31293 0.78512 0.0
C159 C 0.32473 0.30215 0.7895 0.0
C160 C 0.32016 0.3401 0.81096 0.0
C161 C 0.37914 0.38817 0.82704 0.0
C162 C 0.50677 0.45084 0.83998 0.0
C163 C 0.56465 0.50007 0.82689 0.0
C164 C 0.50687 0.45768 0.86867 0.0
C165 C 0.45166 0.40466 0.88423 0.0
C166 C 0.44684 0.34288 0.88762 0.0
C167 C 0.39842 0.29525 0.90443 0.0
C168 C 0.35296 0.30813 0.91763 0.0
C169 C 0.35615 0.36906 0.91288 0.0
C170 C 0.40606 0.41742 0.89693 0.0
C171 C 0.66857 0.63067 0.88541 0.0
C172 C 0.6487 0.67351 0.89599 0.0
C173 C 0.69746 0.73432 0.91046 0.0
C174 C 0.76682 0.75291 0.91487 0.0
C175 C 0.78652 0.7097 0.90431 0.0
C176 C 0.7378 0.64915 0.8896 0.0
C177 C 0.61645 0.56692 0.8698 0.0
C178 C 0.56089 0.51612 0.88317 0.0
C179 C 0.6195 0.55764 0.8416 0.0
C180 C 0.67609 0.61064 0.82666 0.0
C181 C 0.67486 0.66762 0.81945 0.0
C182 C 0.72769 0.71762 0.80494 0.0
C183 C 0.78326 0.71191 0.79764 0.0
C184 C 0.78468 0.65494 0.80541 0.0
C185 C 0.73118 0.60445 0.81966 0.0
C186 C 0.92889 0.18373 0.0597 0.0
C187 C 0.96239 0.15011 0.06756 0.0
H188 H 0.90079 0.25398 0.07154 0.0
C189 C 0.98223 0.15256 0.09532 0.0
H190 H 0.91263 0.18244 0.03848 0.0
C191 C 0.97596 0.19414 0.11425 0.0
C192 C 0.94888 0.23312 0.1058 0.0
H193 H 0.00816 0.12725 0.10205 0.0
H194 H -0.00411 0.19879 0.1352 0.0
C195 C 0.92203 0.22471 0.07866 0.0
C196 C 0.80029 0.95563 0.42103 0.0
C197 C 0.8635 0.01374 0.41515 0.0
H198 H 0.70687 0.91629 0.44172 0.0
C199 C 0.88588 0.07565 0.42936 0.0
H200 H 0.78168 0.90722 0.41036 0.0
C201 C 0.84343 0.08084 0.44727 0.0
C202 C 0.77752 0.02423 0.45131 0.0
H203 H 0.93488 0.12101 0.42582 0.0
H204 H 0.86099 0.12992 0.45709 0.0
C205 C 0.75746 0.96086 0.43896 0.0
C206 C 0.90399 0.78979 0.74064 0.0
C207 C 0.91898 0.85638 0.74239 0.0
H208 H 0.84758 0.69105 0.75632 0.0
C209 C 0.8974 0.87763 0.76449 0.0
H210 H 0.91988 0.77226 0.72363 0.0
C211 C 0.8573 0.83174 0.78358 0.0
C212 C 0.83664 0.76325 0.78055 0.0
H213 H 0.9097 0.92922 0.76659 0.0
H214 H 0.84031 0.84944 0.80012 0.0
C215 C 0.86261 0.74336 0.75943 0.0
C216 C 0.01025 0.89524 0.12124 0.0
C217 C 0.02254 0.90247 0.09339 0.0
H218 H 0.99073 0.83361 0.15557 0.0
C219 C 0.02001 0.84933 0.0783 0.0
H220 H 0.0116 0.93515 0.13342 0.0
C221 C 0.00774 0.79129 0.09092 0.0
C222 C -0.00234 0.78489 0.11894 0.0
H223 H 0.02856 0.85287 0.05675 0.0
H224 H 0.00685 0.75158 0.07877 0.0
C225 C -0.00217 0.83692 0.1339 0.0
C226 C 0.21138 0.13714 0.42222 0.0
C227 C 0.1585 0.08378 0.40494 0.0
H228 H 0.3024 0.17246 0.44891 0.0
C229 C 0.15953 0.0246 0.40062 0.0
H230 H 0.2123 0.18347 0.42599 0.0
C231 C 0.21128 0.01832 0.41385 0.0
C232 C 0.2634 0.07132 0.43144 0.0
H233 H 0.11961 0.9825 0.38744 0.0
H234 H 0.21044 0.97193 0.41038 0.0
C235 C 0.26332 0.13104 0.43524 0.0
C236 C 0.19277 0.14334 0.7457 0.0
C237 C 0.13668 0.15199 0.74237 0.0
H238 H 0.29465 0.18194 0.76403 0.0
C239 C 0.14381 0.21152 0.75319 0.0
H240 H 0.1882 0.09742 0.73771 0.0
C241 C 0.20569 0.26131 0.76742 0.0
C242 C 0.26115 0.25164 0.77208 0.0
H243 H 0.10146 0.21964 0.75059 0.0
H244 H 0.20953 0.30718 0.77488 0.0
C245 C 0.25401 0.19216 0.76069 0.0
C246 C 0.8869 0.0806 0.6215 0.0
C247 C 0.8751 0.0784 0.64942 0.0
H248 H 0.85035 0.08305 0.58067 0.0
C249 C 0.82213 0.08704 0.65769 0.0
H250 H 0.92738 0.0744 0.61441 0.0
C251 C 0.77786 0.09111 0.6384 0.0
C252 C 0.78622 0.08773 0.61046 0.0
H253 H 0.81189 0.08639 0.67901 0.0
H254 H 0.73514 0.09398 0.64525 0.0
C255 C 0.84285 0.08549 0.60216 0.0
C256 C 0.87045 0.93753 0.94121 0.0
C257 C 0.91525 0.93738 0.96186 0.0
H258 H 0.78839 0.87924 0.91013 0.0
C259 C 0.91071 0.87604 0.96685 0.0
H260 H 0.87258 0.98384 0.93682 0.0
C261 C 0.86295 0.81646 0.95145 0.0
C262 C 0.8181 0.81658 0.93089 0.0
H263 H 0.94448 0.87399 0.98254 0.0
H264 H 0.86051 0.77 0.95588 0.0
C265 C 0.82209 0.87764 0.92599 0.0
C266 C 0.98387 0.79866 0.32135 0.0
C267 C 0.98448 0.85486 0.31131 0.0
H268 H 0.98804 0.71106 0.31205 0.0
C269 C 0.99174 0.8663 0.28333 0.0
H270 H 0.97873 0.78856 0.3428 0.0
C271 C -0.00277 0.82188 0.26571 0.0
C272 C -0.0049 0.76489 0.27568 0.0
H273 H 0.99263 0.90929 0.27496 0.0
H274 H 0.00139 0.83119 0.24417 0.0
C275 C 0.98894 0.75409 0.30372 0.0
C276 C 0.10135 0.92771 0.59115 0.0
C277 C 0.10963 0.97797 0.61001 0.0
H278 H 0.1483 0.90004 0.56129 0.0
C279 C 0.17196 0.04203 0.61168 0.0
H280 H 0.05385 0.87797 0.58924 0.0
C281 C 0.22591 0.05466 0.5956 0.0
C282 C 0.21874 0.00336 0.57767 0.0
H283 H 0.17982 0.08197 0.62592 0.0
H284 H 0.27427 0.10365 0.59805 0.0
C285 C 0.15547 0.94021 0.57521 0.0
C286 C 0.24313 0.24293 0.97831 0.0
C287 C 0.21439 0.17286 0.97535 0.0
H288 H 0.31166 0.34022 0.96372 0.0
C289 C 0.23172 0.14648 0.95352 0.0
H290 H 0.23147 0.26463 -0.0047 0.0
C291 C 0.27595 0.18991 0.93443 0.0
C292 C 0.30497 0.26057 0.93738 0.0
H293 H 0.20985 0.0924 0.95086 0.0
H294 H 0.28653 0.1679 0.91726 0.0
C295 C 0.28866 0.28628 0.9599 0.0
C296 C 0.10454 0.28672 0.30835 0.0
C297 C 0.06933 0.21609 0.30327 0.0
H298 H 0.12756 0.38123 0.29349 0.0
C299 C 0.04112 0.18841 0.27667 0.0
H300 H 0.12742 0.3097 0.32856 0.0
C301 C 0.04132 0.2297 0.25641 0.0
C302 C 0.07015 0.29929 0.26238 0.0
H303 H 0.01391 0.13419 0.27205 0.0
H304 H 0.01552 0.20652 0.23653 0.0
C305 C 0.10487 0.32788 0.28813 0.0
loop_
_geom_bond_atom_site_label_1
_geom_bond_atom_site_label_2
_geom_bond_distance
_geom_bond_site_symmetry_2
_ccdc_geom_bond_type
Mg0 O1 2.028 1_445 S
Mg0 O7 1.986 . S
Mg0 O9 2.114 . S
Mg0 O10 2.251 . S
Mg0 O13 2.010 1_545 S
O1 Mg0 2.028 1_665 S
O1 C4 1.250 1_554 S
O2 Mg3 2.028 1_655 S
O2 C4 1.248 1_545 S
Mg3 O2 2.028 1_455 S
Mg3 O8 2.032 1_556 S
Mg3 O10 2.079 1_556 S
C4 O1 1.250 1_556 S
C4 O2 1.248 1_565 S
C5 O6 1.264 . S
C5 O13 1.249 . S
O6 C5 1.264 . S
O7 Mg0 1.986 . S
O7 C11 1.246 . S
O8 Mg3 2.032 1_554 S
O8 C11 1.259 . S
O9 Mg0 2.114 . S
O9 C12 1.252 1_554 S
O10 Mg0 2.251 . S
O10 Mg3 2.079 1_554 S
O10 C12 1.273 1_554 S
C11 O7 1.246 . S
C11 O8 1.259 . S
C12 O9 1.252 1_556 S
C12 O10 1.273 1_556 S
O13 Mg0 2.010 1_565 S
O13 C5 1.249 . S
Mg14 O15 2.028 1_655 S
Mg14 O21 1.986 1_655 S
Mg14 O23 2.114 1_545 S
Mg14 O24 2.251 . S
Mg14 O27 2.010 1_545 S
O15 Mg14 2.028 1_455 S
O15 C18 1.250 . S
O16 Mg17 2.028 . S
O16 C18 1.248 . S
Mg17 O16 2.028 . S
Mg17 O22 2.032 . S
Mg17 O24 2.079 1_455 S
C18 O15 1.250 . S
C18 O16 1.248 . S
C19 O20 1.264 . S
C19 O27 1.249 . S
O20 C19 1.264 . S
O21 Mg14 1.986 1_455 S
O21 C25 1.246 . S
O22 Mg17 2.032 . S
O22 C25 1.259 . S
O23 Mg14 2.114 1_565 S
O23 C26 1.252 . S
O24 Mg14 2.251 . S
O24 Mg17 2.079 1_655 S
O24 C26 1.273 1_545 S
C25 O21 1.246 . S
C25 O22 1.259 . S
C26 O23 1.252 . S
C26 O24 1.273 1_565 S
O27 Mg14 2.010 1_565 S
O27 C19 1.249 . S
Mg28 O29 2.028 1_565 S
Mg28 O35 1.986 1_465 S
Mg28 O37 2.114 1_455 S
Mg28 O38 2.251 1_455 S
Mg28 O41 2.010 . S
O29 Mg28 2.028 1_545 S
O29 C32 1.250 . S
O30 Mg31 2.028 1_455 S
O30 C32 1.248 . S
Mg31 O30 2.028 1_655 S
Mg31 O36 2.032 . S
Mg31 O38 2.079 1_545 S
C32 O29 1.250 . S
C32 O30 1.248 . S
C33 O34 1.264 . S
C33 O41 1.249 . S
O34 C33 1.264 . S
O35 Mg28 1.986 1_645 S
O35 C39 1.246 . S
O36 Mg31 2.032 . S
O36 C39 1.259 . S
O37 Mg28 2.114 1_655 S
O37 C40 1.252 . S
O38 Mg28 2.251 1_655 S
O38 Mg31 2.079 1_565 S
O38 C40 1.273 . S
C39 O35 1.246 . S
C39 O36 1.259 . S
C40 O37 1.252 . S
C40 O38 1.273 . S
O41 Mg28 2.010 . S
O41 C33 1.249 . S
H42 C61 0.949 . S
H43 C62 0.950 . S
H44 C64 0.950 . S
H45 C65 0.950 . S
H46 C67 0.950 . S
H47 C70 0.950 . S
H48 C71 0.950 . S
H49 C73 0.951 . S
H50 C74 0.949 . S
H51 C76 0.949 . S
H52 C77 0.950 . S
H53 C79 0.950 . S
H54 C80 0.950 . S
H55 C82 0.950 . S
H56 C85 0.950 . S
H57 C86 0.950 . S
H58 C88 0.951 . S
H59 C89 0.949 . S
C60 C61 1.376 . S
C60 C65 1.386 1_455 S
C60 C66 1.483 . S
C61 H42 0.949 . S
C61 C60 1.376 . S
C61 C62 1.397 . S
C62 H43 0.950 . S
C62 C61 1.397 . S
C62 C63 1.391 . S
C63 C62 1.391 . S
C63 C64 1.405 1_455 S
C64 H44 0.950 . S
C64 C63 1.405 1_655 S
C64 C65 1.367 . S
C65 H45 0.950 . S
C65 C60 1.386 1_655 S
C65 C64 1.367 . S
C66 C60 1.483 . S
C66 C67 1.382 . S
C66 C68 1.403 . S
C67 H46 0.950 . S
C67 C66 1.382 . S
C67 C83 1.411 . S
C68 C66 1.403 . S
C68 C69 1.489 . S
C68 C82 1.411 . S
C69 C68 1.489 . S
C69 C70 1.383 . S
C69 C74 1.382 1_455 S
C70 H47 0.950 . S
C70 C69 1.383 . S
C70 C71 1.395 . S
C71 H48 0.950 . S
C71 C70 1.395 . S
C71 C72 1.288 . S
C72 C71 1.288 . S
C72 C73 1.392 1_455 S
C73 H49 0.951 . S
C73 C72 1.392 1_655 S
C73 C74 1.392 . S
C74 H50 0.949 . S
C74 C69 1.382 1_655 S
C74 C73 1.392 . S
C75 C76 1.376 1_455 S
C75 C80 1.386 . S
C75 C81 1.483 . S
C76 H51 0.949 . S
C76 C75 1.376 1_655 S
C76 C77 1.397 . S
C77 H52 0.950 . S
C77 C76 1.397 . S
C77 C78 1.391 1_655 S
C78 C77 1.391 1_455 S
C78 C79 1.405 . S
C79 H53 0.950 . S
C79 C78 1.405 . S
C79 C80 1.367 . S
C80 H54 0.950 . S
C80 C75 1.386 . S
C80 C79 1.367 . S
C81 C75 1.483 . S
C81 C82 1.382 . S
C81 C83 1.403 . S
C82 H55 0.950 . S
C82 C68 1.411 . S
C82 C81 1.382 . S
C83 C67 1.411 . S
C83 C81 1.403 . S
C83 C84 1.489 . S
C84 C83 1.489 . S
C84 C85 1.383 1_455 S
C84 C89 1.382 . S
C85 H56 0.950 . S
C85 C84 1.383 1_655 S
C85 C86 1.395 . S
C86 H57 0.950 . S
C86 C85 1.395 . S
C86 C87 1.288 1_655 S
C87 C86 1.288 1_455 S
C87 C88 1.392 . S
C88 H58 0.951 . S
C88 C87 1.392 . S
C88 C89 1.392 . S
C89 H59 0.949 . S
C89 C84 1.382 . S
C89 C88 1.392 . S
H90 C109 0.949 . S
H91 C110 0.950 . S
H92 C112 0.966 . S
H93 C113 0.950 1_565 S
H94 C115 0.950 . S
H95 C118 0.950 . S
H96 C119 0.950 . S
H97 C121 0.951 . S
H98 C122 0.949 . S
H99 C124 0.949 . S
H100 C125 0.950 . S
H101 C127 0.950 . S
H102 C128 0.950 . S
H103 C130 0.950 . S
H104 C133 0.950 1_565 S
H105 C134 0.950 1_565 S
H106 C136 0.951 . S
H107 C137 0.949 . S
C108 C109 1.376 . S
C108 C113 1.386 . S
C108 C114 1.483 . S
C109 H90 0.949 . S
C109 C108 1.376 . S
C109 C110 1.397 . S
C110 H91 0.950 . S
C110 C109 1.397 . S
C110 C111 1.391 . S
C111 C110 1.391 . S
C111 C112 1.396 1_545 S
C112 H92 0.966 . S
C112 C111 1.396 1_565 S
C112 C113 1.360 1_565 S
C113 H93 0.950 1_545 S
C113 C108 1.386 . S
C113 C112 1.360 1_545 S
C114 C108 1.483 . S
C114 C115 1.382 . S
C114 C116 1.403 . S
C115 H94 0.950 . S
C115 C114 1.382 . S
C115 C131 1.411 . S
C116 C114 1.403 . S
C116 C117 1.489 . S
C116 C130 1.411 . S
C117 C116 1.489 . S
C117 C118 1.383 . S
C117 C122 1.382 1_545 S
C118 H95 0.950 . S
C118 C117 1.383 . S
C118 C119 1.395 . S
C119 H96 0.950 . S
C119 C118 1.395 . S
C119 C120 1.288 . S
C120 C119 1.288 . S
C120 C121 1.392 1_545 S
C121 H97 0.951 . S
C121 C120 1.392 1_565 S
C121 C122 1.392 . S
C122 H98 0.949 . S
C122 C117 1.382 1_565 S
C122 C121 1.392 . S
C123 C124 1.376 1_545 S
C123 C128 1.386 . S
C123 C129 1.483 . S
C124 H99 0.949 . S
C124 C123 1.376 1_565 S
C124 C125 1.397 . S
C125 H100 0.950 . S
C125 C124 1.397 . S
C125 C126 1.391 1_565 S
C126 C125 1.391 1_545 S
C126 C127 1.405 . S
C127 H101 0.950 . S
C127 C126 1.405 . S
C127 C128 1.367 . S
C128 H102 0.950 . S
C128 C123 1.386 . S
C128 C127 1.367 . S
C129 C123 1.483 . S
C129 C130 1.382 . S
C129 C131 1.403 . S
C130 H103 0.950 . S
C130 C116 1.411 . S
C130 C129 1.382 . S
C131 C115 1.411 . S
C131 C129 1.403 . S
C131 C132 1.489 . S
C132 C131 1.489 . S
C132 C133 1.383 . S
C132 C137 1.382 . S
C133 H104 0.950 1_545 S
C133 C132 1.383 . S
C133 C134 1.395 . S
C134 H105 0.950 1_545 S
C134 C133 1.395 . S
C134 C135 1.288 . S
C135 C134 1.288 . S
C135 C136 1.392 . S
C136 H106 0.951 . S
C136 C135 1.392 . S
C136 C137 1.392 . S
C137 H107 0.949 . S
C137 C132 1.382 . S
C137 C136 1.392 . S
H138 C157 0.949 . S
H139 C158 0.950 . S
H140 C160 0.950 . S
H141 C161 0.950 . S
H142 C163 0.950 . S
H143 C166 0.950 . S
H144 C167 0.950 . S
H145 C169 0.951 . S
H146 C170 0.949 . S
H147 C172 0.949 . S
H148 C173 0.950 . S
H149 C175 0.950 . S
H150 C176 0.950 . S
H151 C178 0.950 . S
H152 C181 0.950 . S
H153 C182 0.950 . S
H154 C184 0.951 . S
H155 C185 0.949 . S
C156 C157 1.376 . S
C156 C161 1.386 . S
C156 C162 1.483 . S
C157 H138 0.949 . S
C157 C156 1.376 . S
C157 C158 1.397 . S
C158 H139 0.950 . S
C158 C157 1.397 . S
C158 C159 1.391 . S
C159 C158 1.391 . S
C159 C160 1.405 . S
C160 H140 0.950 . S
C160 C159 1.405 . S
C160 C161 1.367 . S
C161 H141 0.950 . S
C161 C156 1.386 . S
C161 C160 1.367 . S
C162 C156 1.483 . S
C162 C163 1.382 . S
C162 C164 1.403 . S
C163 H142 0.950 . S
C163 C162 1.382 . S
C163 C179 1.411 . S
C164 C162 1.403 . S
C164 C165 1.489 . S
C164 C178 1.411 . S
C165 C164 1.489 . S
C165 C166 1.383 . S
C165 C170 1.382 . S
C166 H143 0.950 . S
C166 C165 1.383 . S
C166 C167 1.395 . S
C167 H144 0.950 . S
C167 C166 1.395 . S
C167 C168 1.288 . S
C168 C167 1.288 . S
C168 C169 1.392 . S
C169 H145 0.951 . S
C169 C168 1.392 . S
C169 C170 1.392 . S
C170 H146 0.949 . S
C170 C165 1.382 . S
C170 C169 1.392 . S
C171 C172 1.376 . S
C171 C176 1.386 . S
C171 C177 1.483 . S
C172 H147 0.949 . S
C172 C171 1.376 . S
C172 C173 1.397 . S
C173 H148 0.950 . S
C173 C172 1.397 . S
C173 C174 1.391 . S
C174 C173 1.391 . S
C174 C175 1.405 . S
C175 H149 0.950 . S
C175 C174 1.405 . S
C175 C176 1.367 . S
C176 H150 0.950 . S
C176 C171 1.386 . S
C176 C175 1.367 . S
C177 C171 1.483 . S
C177 C178 1.382 . S
C177 C179 1.403 . S
C178 H151 0.950 . S
C178 C164 1.411 . S
C178 C177 1.382 . S
C179 C163 1.411 . S
C179 C177 1.403 . S
C179 C180 1.489 . S
C180 C179 1.489 . S
C180 C181 1.383 . S
C180 C185 1.382 . S
C181 H152 0.950 . S
C181 C180 1.383 . S
C181 C182 1.395 . S
C182 H153 0.950 . S
C182 C181 1.395 . S
C182 C183 1.288 . S
C183 C182 1.288 . S
C183 C184 1.392 . S
C184 H154 0.951 . S
C184 C183 1.392 . S
C184 C185 1.392 . S
C185 H155 0.949 . S
C185 C180 1.382 . S
C185 C184 1.392 . S
C186 C187 1.387 1_655 S
C186 H190 0.950 . S
C186 C195 1.390 . S
C187 C186 1.387 1_455 S
C187 C189 1.387 . S
H188 C195 0.950 . S
C189 C187 1.387 . S
C189 C191 1.390 . S
C189 H193 0.950 . S
H190 C186 0.950 . S
C191 C189 1.390 . S
C191 C192 1.387 . S
C191 H194 0.950 . S
C192 C191 1.387 . S
C192 C195 1.387 1_455 S
H193 C189 0.950 . S
H194 C191 0.950 . S
C195 C186 1.390 . S
C195 H188 0.950 . S
C195 C192 1.387 1_655 S
C196 C197 1.387 1_565 S
C196 H200 0.950 . S
C196 C205 1.390 . S
C197 C196 1.387 1_545 S
C197 C199 1.387 . S
H198 C205 0.950 . S
C199 C197 1.387 . S
C199 C201 1.390 . S
C199 H203 0.950 . S
H200 C196 0.950 . S
C201 C199 1.390 . S
C201 C202 1.387 . S
C201 H204 0.950 . S
C202 C201 1.387 . S
C202 C205 1.387 1_545 S
H203 C199 0.950 . S
H204 C201 0.950 . S
C205 C196 1.390 . S
C205 H198 0.950 . S
C205 C202 1.387 1_565 S
C206 C207 1.387 . S
C206 H210 0.950 . S
C206 C215 1.390 . S
C207 C206 1.387 . S
C207 C209 1.387 . S
H208 C215 0.950 . S
C209 C207 1.387 . S
C209 C211 1.390 . S
C209 H213 0.950 . S
H210 C206 0.950 . S
C211 C209 1.390 . S
C211 C212 1.387 . S
C211 H214 0.950 . S
C212 C211 1.387 . S
C212 C215 1.387 . S
H213 C209 0.950 . S
H214 C211 0.950 . S
C215 C206 1.390 . S
C215 H208 0.950 . S
C215 C212 1.387 . S
C216 C217 1.387 . S
C216 H220 0.950 . S
C216 C225 1.390 . S
C217 C216 1.387 . S
C217 C219 1.387 . S
H218 C225 0.950 . S
C219 C217 1.387 . S
C219 C221 1.390 . S
C219 H223 0.950 . S
H220 C216 0.950 . S
C221 C219 1.390 . S
C221 C222 1.387 . S
C221 H224 0.950 . S
C222 C221 1.387 . S
C222 C225 1.387 . S
H223 C219 0.950 . S
H224 C221 0.950 . S
C225 C216 1.390 . S
C225 H218 0.950 . S
C225 C222 1.387 . S
C226 C227 1.387 . S
C226 H230 0.950 . S
C226 C235 1.390 . S
C227 C226 1.387 . S
C227 C229 1.387 1_545 S
H228 C235 0.950 . S
C229 C227 1.387 1_565 S
C229 C231 1.390 . S
C229 H233 0.950 . S
H230 C226 0.950 . S
C231 C229 1.390 . S
C231 C232 1.387 1_565 S
C231 H234 0.950 . S
C232 C231 1.387 1_545 S
C232 C235 1.387 . S
H233 C229 0.950 . S
H234 C231 0.950 . S
C235 C226 1.390 . S
C235 H228 0.950 . S
C235 C232 1.387 . S
C236 C237 1.387 . S
C236 H240 0.950 . S
C236 C245 1.390 . S
C237 C236 1.387 . S
C237 C239 1.387 . S
H238 C245 0.950 . S
C239 C237 1.387 . S
C239 C241 1.390 . S
C239 H243 0.950 . S
H240 C236 0.950 . S
C241 C239 1.390 . S
C241 C242 1.387 . S
C241 H244 0.950 . S
C242 C241 1.387 . S
C242 C245 1.387 . S
H243 C239 0.950 . S
H244 C241 0.950 . S
C245 C236 1.390 . S
C245 H238 0.950 . S
C245 C242 1.387 . S
C246 C247 1.387 1_565 S
C246 H250 0.950 . S
C246 C255 1.390 . S
C247 C246 1.387 1_545 S
C247 C249 1.387 . S
H248 C255 0.950 . S
C249 C247 1.387 . S
C249 C251 1.390 . S
C249 H253 0.950 . S
H250 C246 0.950 . S
C251 C249 1.390 . S
C251 C252 1.387 . S
C251 H254 0.950 . S
C252 C251 1.387 . S
C252 C255 1.387 1_545 S
H253 C249 0.950 . S
H254 C251 0.950 . S
C255 C246 1.390 . S
C255 H248 0.950 . S
C255 C252 1.387 1_565 S
C256 C257 1.387 . S
C256 H260 0.950 . S
C256 C265 1.390 . S
C257 C256 1.387 . S
C257 C259 1.387 . S
H258 C265 0.950 . S
C259 C257 1.387 . S
C259 C261 1.390 . S
C259 H263 0.950 1_556 S
H260 C256 0.950 . S
C261 C259 1.390 . S
C261 C262 1.387 . S
C261 H264 0.950 . S
C262 C261 1.387 . S
C262 C265 1.387 . S
H263 C259 0.950 1_554 S
H264 C261 0.950 . S
C265 C256 1.390 . S
C265 H258 0.950 . S
C265 C262 1.387 . S
C266 C267 1.387 . S
C266 H270 0.950 . S
C266 C275 1.390 . S
C267 C266 1.387 . S
C267 C269 1.387 1_655 S
H268 C275 0.950 . S
C269 C267 1.387 1_455 S
C269 C271 1.390 . S
C269 H273 0.950 . S
H270 C266 0.950 . S
C271 C269 1.390 . S
C271 C272 1.387 . S
C271 H274 0.950 . S
C272 C271 1.387 . S
C272 C275 1.387 1_455 S
H273 C269 0.950 . S
H274 C271 0.950 . S
C275 C266 1.390 . S
C275 H268 0.950 . S
C275 C272 1.387 1_655 S
C276 C277 1.387 1_565 S
C276 H280 0.950 . S
C276 C285 1.390 . S
C277 C276 1.387 1_545 S
C277 C279 1.387 . S
H278 C285 0.950 . S
C279 C277 1.387 . S
C279 C281 1.390 . S
C279 H283 0.950 . S
H280 C276 0.950 . S
C281 C279 1.390 . S
C281 C282 1.387 . S
C281 H284 0.950 . S
C282 C281 1.387 . S
C282 C285 1.387 1_545 S
H283 C279 0.950 . S
H284 C281 0.950 . S
C285 C276 1.390 . S
C285 H278 0.950 . S
C285 C282 1.387 1_565 S
C286 C287 1.387 . S
C286 H290 0.950 . S
C286 C295 1.390 . S
C287 C286 1.387 . S
C287 C289 1.387 . S
H288 C295 0.950 . S
C289 C287 1.387 . S
C289 C291 1.390 . S
C289 H293 0.950 . S
H290 C286 0.950 . S
C291 C289 1.390 . S
C291 C292 1.387 . S
C291 H294 0.950 . S
C292 C291 1.387 . S
C292 C295 1.387 . S
H293 C289 0.950 . S
H294 C291 0.950 . S
C295 C286 1.390 . S
C295 H288 0.950 . S
C295 C292 1.387 . S
C296 C297 1.387 . S
C296 H300 0.950 . S
C296 C305 1.390 . S
C297 C296 1.387 . S
C297 C299 1.387 1_455 S
H298 C305 0.950 . S
C299 C297 1.387 1_655 S
C299 C301 1.390 . S
C299 H303 0.950 . S
H300 C296 0.950 . S
C301 C299 1.390 . S
C301 C302 1.387 1_655 S
C301 H304 0.950 . S
C302 C301 1.387 1_455 S
C302 C305 1.387 . S
H303 C299 0.950 . S
H304 C301 0.950 . S
C305 C296 1.390 . S
C305 H298 0.950 . S
C305 C302 1.387 . S
C192 C63 1.443 . S
C187 C11 1.415 . S
C197 C26 1.570 1_545 S
C202 C111 1.597 . S
C207 C40 1.459 . S
C212 C183 1.456 . S
C217 C5 1.300 . S
C222 C87 1.426 . S
C232 C135 1.553 . S
C227 C18 1.549 . S
C237 C32 1.438 . S
C242 C159 1.454 . S
C252 C120 1.328 . S
C247 C39 1.319 . S
C257 C4 1.449 . S
C262 C174 1.461 . S
C272 C78 1.450 . S
C267 C19 1.322 . S
C282 C126 1.381 . S
C277 C33 1.256 1_545 S
C292 C168 1.492 . S
C287 C12 1.469 . S
C297 C25 1.425 . S
C302 C72 1.456 . S
