# Generated by pormake.
# Topology anh, (6,3)-cn, num edge types: 1
# Building blocks:
#     Node 0, Type 0, BuildingBlock: VOLQOD_clean_sbu_1, # of connection points: 6
#     Node 1, Type 0, BuildingBlock: VOLQOD_clean_sbu_1, # of connection points: 6
#     Node 2, Type 0, BuildingBlock: VOLQOD_clean_sbu_1, # of connection points: 6
#     Node 3, Type 1, BuildingBlock: BELTOD_clean_linker_0, # of connection points: 3
#     Node 4, Type 1, BuildingBlock: BELTOD_clean_linker_0, # of connection points: 3
#     Node 5, Type 1, BuildingBlock: BELTOD_clean_linker_0, # of connection points: 3
#     Node 6, Type 1, BuildingBlock: BELTOD_clean_linker_0, # of connection points: 3
#     Node 7, Type 1, BuildingBlock: BELTOD_clean_linker_0, # of connection points: 3
#     Node 8, Type 1, BuildingBlock: BELTOD_clean_linker_0, # of connection points: 3
#     Edge 9, Type (0, 1), BuildingBlock: XIVTED_clean_linker_0, # of connection points: 2
#     Edge 10, Type (0, 1), BuildingBlock: XIVTED_clean_linker_0, # of connection points: 2
#     Edge 11, Type (0, 1), BuildingBlock: XIVTED_clean_linker_0, # of connection points: 2
#     Edge 12, Type (0, 1), BuildingBlock: XIVTED_clean_linker_0, # of connection points: 2
#     Edge 13, Type (0, 1), BuildingBlock: XIVTED_clean_linker_0, # of connection points: 2
#     Edge 14, Type (0, 1), BuildingBlock: XIVTED_clean_linker_0, # of connection points: 2
#     Edge 15, Type (0, 1), BuildingBlock: XIVTED_clean_linker_0, # of connection points: 2
#     Edge 16, Type (0, 1), BuildingBlock: XIVTED_clean_linker_0, # of connection points: 2
#     Edge 17, Type (0, 1), BuildingBlock: XIVTED_clean_linker_0, # of connection points: 2
#     Edge 18, Type (0, 1), BuildingBlock: XIVTED_clean_linker_0, # of connection points: 2
#     Edge 19, Type (0, 1), BuildingBlock: XIVTED_clean_linker_0, # of connection points: 2
#     Edge 20, Type (0, 1), BuildingBlock: XIVTED_clean_linker_0, # of connection points: 2
#     Edge 21, Type (0, 1), BuildingBlock: XIVTED_clean_linker_0, # of connection points: 2
#     Edge 22, Type (0, 1), BuildingBlock: XIVTED_clean_linker_0, # of connection points: 2
#     Edge 23, Type (0, 1), BuildingBlock: XIVTED_clean_linker_0, # of connection points: 2
#     Edge 24, Type (0, 1), BuildingBlock: XIVTED_clean_linker_0, # of connection points: 2
#     Edge 25, Type (0, 1), BuildingBlock: XIVTED_clean_linker_0, # of connection points: 2
#     Edge 26, Type (0, 1), BuildingBlock: XIVTED_clean_linker_0, # of connection points: 2
# Relax obj value: 0.161
# Max RMSD: 0.227
# Mean RMSD: 0.107
data_MOF--net-anh--node1-VOLQOD_clean_sbu_1--node2-BELTOD_clean_linker_0--edge1-XIVTED_clean_linker_0
_symmetry_space_group_name_H-M    P1
_symmetry_Int_Tables_number       1
_symmetry_cell_setting            triclinic
loop_
_symmetry_equiv_pos_as_xyz
'x, y, z'
_cell_length_a     32.306804
_cell_length_b     32.274791
_cell_length_c     68.527164
_cell_angle_alpha  90.111778
_cell_angle_beta   89.773805
_cell_angle_gamma 120.12635
loop_
_atom_site_label
_atom_site_type_symbol
_atom_site_fract_x
_atom_site_fract_y
_atom_site_fract_z
_atom_type_partial_charge
O0 O -0.00362 0.5581 0.21332 0.0
Zn1 Zn -0.00222 0.58226 0.18576 0.0
O2 O 0.0099 0.54449 0.16619 0.0
Zn3 Zn 0.95757 0.51414 0.14762 0.0
Zn4 Zn 0.017 0.49539 0.17938 0.0
Zn5 Zn 0.06787 0.58492 0.15155 0.0
O6 O 0.9795 0.52859 0.11947 0.0
O7 O 0.05547 0.58485 0.12302 0.0
O8 O 0.93523 0.58069 0.18003 0.0
O9 O 0.91434 0.54028 0.15197 0.0
O10 O 0.91833 0.44247 0.15187 0.0
O11 O 0.96181 0.43044 0.17367 0.0
O12 O 0.07717 0.49627 0.17175 0.0
O13 O 0.05161 0.6516 0.18509 0.0
O14 O 0.11493 0.5618 0.1536 0.0
O15 O 0.09832 0.65211 0.16105 0.0
C16 C 0.00734 0.52778 0.21975 0.0
C17 C 0.0196 0.55953 0.11219 0.0
C18 C 0.92519 0.41455 0.16277 0.0
C19 C 0.90798 0.56425 0.1652 0.0
C20 C 0.11321 0.52551 0.16168 0.0
C21 C 0.0886 0.67369 0.17426 0.0
O22 O 0.01772 0.50344 0.2082 0.0
O23 O 0.44656 0.014 0.45266 0.0
Zn24 Zn 0.42542 0.0176 0.48022 0.0
O25 O 0.46608 0.01103 0.49978 0.0
Zn26 Zn 0.49754 0.06825 0.51581 0.0
Zn27 Zn 0.51451 0.00231 0.48665 0.0
Zn28 Zn 0.42821 0.95637 0.51681 0.0
O29 O 0.49002 0.05259 0.54436 0.0
O30 O 0.43854 0.97447 0.54527 0.0
O31 O 0.42687 0.08078 0.48332 0.0
O32 O 0.46977 0.10986 0.51044 0.0
O33 O 0.56841 0.10674 0.5101 0.0
O34 O 0.58013 0.05648 0.49201 0.0
O35 O 0.51159 0.94134 0.49445 0.0
O36 O 0.35717 0.96391 0.48344 0.0
O37 O 0.44796 0.90673 0.51383 0.0
O38 O 0.35866 0.92534 0.51006 0.0
C39 C 0.47966 0.00705 0.44622 0.0
C40 C 0.4652 0.01402 0.55391 0.0
C41 C 0.59622 0.09624 0.50088 0.0
C42 C 0.44422 0.112 0.49684 0.0
C43 C 0.48246 0.9063 0.50499 0.0
C44 C 0.33589 0.93098 0.49615 0.0
O45 O 0.50712 0.00136 0.45777 0.0
O46 O 0.45187 0.46359 0.78457 0.0
Zn47 Zn 0.4292 0.43984 0.81219 0.0
O48 O 0.47885 0.47865 0.8316 0.0
Zn49 Zn 0.4552 0.50697 0.85063 0.0
Zn50 Zn 0.53387 0.5297 0.81841 0.0
Zn51 Zn 0.49913 0.43949 0.84551 0.0
O52 O 0.46274 0.49101 0.87844 0.0
O53 O 0.48828 0.43938 0.87425 0.0
O54 O 0.36763 0.44049 0.81797 0.0
O55 O 0.38555 0.47982 0.84627 0.0
O56 O 0.48669 0.57912 0.84744 0.0
O57 O 0.54328 0.59341 0.82566 0.0
O58 O 0.59417 0.52979 0.82455 0.0
O59 O 0.41468 0.37103 0.8129 0.0
O60 O 0.56954 0.46366 0.84198 0.0
O61 O 0.46259 0.37197 0.83632 0.0
C62 C 0.49161 0.49739 0.77812 0.0
C63 C 0.47501 0.46216 0.88537 0.0
C64 C 0.5221 0.60814 0.83695 0.0
C65 C 0.35584 0.45604 0.83287 0.0
C66 C 0.60286 0.5008 0.8337 0.0
C67 C 0.43065 0.3497 0.82347 0.0
O68 O 0.5254 0.52428 0.78959 0.0
P69 P 0.54334 0.96349 0.23721 0.0
H70 H 0.49219 0.90738 0.2031 0.0
H71 H 0.41394 0.88494 0.18945 0.0
H72 H 0.39592 0.97231 0.2327 0.0
H73 H 0.47447 0.99489 0.24621 0.0
H74 H 0.63191 0.98082 0.21817 0.0
H75 H 0.69564 0.05053 0.20139 0.0
H76 H 0.62391 0.13012 0.21424 0.0
H77 H 0.55984 0.05985 0.23068 0.0
H78 H 0.47197 0.90462 0.26587 0.0
H79 H 0.60535 0.03894 0.26525 0.0
O80 O 0.55075 0.91635 0.23399 0.0
H81 H 0.4618 0.91537 0.30051 0.0
H82 H 0.59528 0.05002 0.29995 0.0
C83 C 0.48824 0.95141 0.22602 0.0
C84 C 0.47157 0.92203 0.20952 0.0
C85 C 0.42709 0.90968 0.20163 0.0
C86 C 0.39872 0.92669 0.21012 0.0
C87 C 0.4168 0.95827 0.22603 0.0
C88 C 0.46153 0.97097 0.23379 0.0
C89 C 0.5912 0.01528 0.2256 0.0
C90 C 0.62991 0.01327 0.21737 0.0
C91 C 0.6664 0.0532 0.20783 0.0
C92 C 0.66473 0.0958 0.2064 0.0
C93 C 0.62584 0.0976 0.21478 0.0
C94 C 0.58939 0.05763 0.22431 0.0
C95 C 0.53902 0.97123 0.26297 0.0
C96 C 0.49909 0.93641 0.27323 0.0
C97 C 0.49314 0.94275 0.29296 0.0
C98 C 0.52747 0.9838 0.30286 0.0
C99 C 0.56828 0.01802 0.29267 0.0
C100 C 0.57398 0.0118 0.27283 0.0
P101 P 0.62589 0.56985 0.57162 0.0
H102 H 0.63837 0.5481 0.53176 0.0
H103 H 0.59419 0.47723 0.51135 0.0
H104 H 0.50493 0.40083 0.56091 0.0
H105 H 0.54655 0.47265 0.58052 0.0
H106 H 0.67835 0.67083 0.55965 0.0
H107 H 0.65172 0.72303 0.54543 0.0
H108 H 0.50612 0.60453 0.54492 0.0
H109 H 0.53283 0.55315 0.55952 0.0
H110 H 0.62787 0.50657 0.6016 0.0
H111 H 0.58777 0.61531 0.5978 0.0
O112 O 0.68507 0.59383 0.56982 0.0
H113 H 0.60206 0.49254 0.63587 0.0
H114 H 0.56225 0.60153 0.63176 0.0
C115 C 0.59688 0.5152 0.55782 0.0
C116 C 0.6095 0.51581 0.5382 0.0
C117 C 0.58411 0.4752 0.52655 0.0
C118 C 0.54585 0.43296 0.5344 0.0
C119 C 0.53347 0.43275 0.55415 0.0
C120 C 0.55821 0.47369 0.56563 0.0
C121 C 0.60758 0.60815 0.56038 0.0
C122 C 0.64081 0.65614 0.55633 0.0
C123 C 0.62556 0.68579 0.54813 0.0
C124 C 0.57683 0.66779 0.54401 0.0
C125 C 0.5438 0.61954 0.54808 0.0
C126 C 0.55906 0.59006 0.55627 0.0
C127 C 0.60886 0.56121 0.59701 0.0
C128 C 0.61347 0.52731 0.60811 0.0
C129 C 0.59851 0.51917 0.62761 0.0
C130 C 0.5798 0.5457 0.6364 0.0
C131 C 0.5766 0.58062 0.62537 0.0
C132 C 0.591 0.5883 0.60586 0.0
P133 P 0.08204 0.6495 0.9017 0.0
H134 H 0.16021 0.67053 0.87439 0.0
H135 H 0.18605 0.61958 0.85842 0.0
H136 H 0.07056 0.49531 0.88664 0.0
H137 H 0.04586 0.54683 0.90297 0.0
H138 H 0.0532 0.68346 0.8678 0.0
H139 H 0.97571 0.65515 0.85207 0.0
H140 H 0.90788 0.5468 0.89678 0.0
H141 H 0.98542 0.57403 0.91182 0.0
H142 H 0.12874 0.6167 0.92937 0.0
H143 H 0.02628 0.66512 0.93142 0.0
O144 O 0.11999 0.70725 0.89706 0.0
H145 H 0.11914 0.60148 0.96449 0.0
H146 H 0.01665 0.65016 0.96658 0.0
C147 C 0.10169 0.61246 0.89009 0.0
C148 C 0.1406 0.63236 0.87718 0.0
C149 C 0.15491 0.60306 0.86785 0.0
C150 C 0.13027 0.55331 0.87122 0.0
C151 C 0.0906 0.5335 0.88389 0.0
C152 C 0.07643 0.56287 0.89322 0.0
C153 C 0.0247 0.63181 0.89129 0.0
C154 C 0.02147 0.65397 0.87429 0.0
C155 C 0.97718 0.63772 0.86532 0.0
C156 C 0.93554 0.59878 0.8732 0.0
C157 C 0.93924 0.57647 0.89018 0.0
C158 C 0.9835 0.59253 0.899 0.0
C159 C 0.07709 0.64062 0.92771 0.0
C160 C 0.10405 0.62391 0.93735 0.0
C161 C 0.09878 0.61553 0.95745 0.0
C162 C 0.06667 0.62405 0.96824 0.0
C163 C 0.04089 0.6423 0.95859 0.0
C164 C 0.04648 0.651 0.93853 0.0
P165 P 0.05247 0.47391 0.42928 0.0
H166 H 0.10951 0.52527 0.463 0.0
H167 H 0.13231 0.60328 0.47704 0.0
H168 H 0.04756 0.6238 0.43356 0.0
H169 H 0.02587 0.5461 0.41934 0.0
H170 H 0.02642 0.37711 0.44141 0.0
H171 H 0.95649 0.31401 0.45832 0.0
H172 H 0.89396 0.40515 0.4601 0.0
H173 H 0.96466 0.46847 0.44382 0.0
H174 H 0.11699 0.50239 0.396 0.0
H175 H 0.96685 0.44999 0.40604 0.0
O176 O 0.09844 0.46476 0.43259 0.0
H177 H 0.10602 0.50966 0.36118 0.0
H178 H 0.95563 0.45722 0.37118 0.0
C179 C 0.06729 0.53064 0.43981 0.0
C180 C 0.09592 0.54662 0.45649 0.0
C181 C 0.10833 0.59096 0.46466 0.0
C182 C 0.0918 0.61987 0.45639 0.0
C183 C 0.06143 0.60272 0.4401 0.0
C184 C 0.04913 0.55834 0.43192 0.0
C185 C 0.00086 0.42754 0.44157 0.0
C186 C -0.00221 0.38357 0.44559 0.0
C187 C 0.95766 0.34745 0.45516 0.0
C188 C 0.91967 0.35458 0.46065 0.0
C189 C 0.92295 0.39879 0.45646 0.0
C190 C 0.96323 0.43494 0.44702 0.0
C191 C 0.04258 0.47468 0.40353 0.0
C192 C 0.08151 0.49173 0.39066 0.0
C193 C 0.07521 0.49592 0.37078 0.0
C194 C 0.02991 0.48381 0.36346 0.0
C195 C 0.99097 0.46701 0.37643 0.0
C196 C -0.00274 0.46242 0.39632 0.0
P197 P 0.59689 0.05603 0.75939 0.0
H198 H 0.6019 0.11345 0.793 0.0
H199 H 0.54798 0.1395 0.80571 0.0
H200 H 0.44509 0.05749 0.76093 0.0
H201 H 0.49941 0.03207 0.74818 0.0
H202 H 0.66684 0.03249 0.77458 0.0
H203 H 0.65893 0.96437 0.79302 0.0
H204 H 0.50477 0.8977 0.7903 0.0
H205 H 0.51321 0.96714 0.77262 0.0
H206 H 0.63469 0.11994 0.72611 0.0
H207 H 0.53372 0.97044 0.73615 0.0
O208 O 0.65226 0.10193 0.76269 0.0
H209 H 0.61215 0.11052 0.69182 0.0
H210 H 0.50921 0.96108 0.70207 0.0
C211 C 0.55533 0.07208 0.76932 0.0
C212 C 0.56769 0.10099 0.78596 0.0
C213 C 0.53654 0.11536 0.79334 0.0
C214 C 0.4923 0.10067 0.78425 0.0
C215 C 0.47919 0.06991 0.76807 0.0
C216 C 0.51036 0.05549 0.76073 0.0
C217 C 0.59062 0.00485 0.7723 0.0
C218 C 0.63136 0.0033 0.77803 0.0
C219 C 0.62673 0.96414 0.7885 0.0
C220 C 0.58118 0.92545 0.79318 0.0
C221 C 0.54039 0.92719 0.78729 0.0
C222 C 0.54513 0.96664 0.77698 0.0
C223 C 0.58641 0.04579 0.73362 0.0
C224 C 0.60819 0.08484 0.72085 0.0
C225 C 0.5947 0.07953 0.70129 0.0
C226 C 0.55832 0.03517 0.69419 0.0
C227 C 0.53767 0.99564 0.70694 0.0
C228 C 0.55167 0.00093 0.72649 0.0
P229 P 0.43934 0.36557 0.09527 0.0
H230 H 0.48947 0.34926 0.12723 0.0
H231 H 0.56713 0.40038 0.14246 0.0
H232 H 0.59085 0.51615 0.10377 0.0
H233 H 0.51513 0.46383 0.08783 0.0
H234 H 0.35503 0.32162 0.1211 0.0
H235 H 0.30315 0.3507 0.13362 0.0
H236 H 0.39032 0.48538 0.10373 0.0
H237 H 0.43961 0.45504 0.09045 0.0
H238 H 0.51417 0.38249 0.06679 0.0
H239 H 0.37131 0.36137 0.06616 0.0
O240 O 0.41817 0.30806 0.10082 0.0
H241 H 0.52106 0.39762 0.03165 0.0
H242 H 0.37767 0.37578 0.03105 0.0
C243 C 0.49695 0.40248 0.1062 0.0
C244 C 0.51173 0.3855 0.12193 0.0
C245 C 0.55585 0.41511 0.13083 0.0
C246 C 0.58547 0.46255 0.12436 0.0
C247 C 0.56956 0.47966 0.10893 0.0
C248 C 0.52595 0.4498 0.09987 0.0
C249 C 0.40108 0.38618 0.10484 0.0
C250 C 0.36268 0.35728 0.11721 0.0
C251 C 0.33335 0.37415 0.12449 0.0
C252 C 0.34245 0.42037 0.11964 0.0
C253 C 0.38162 0.44931 0.10749 0.0
C254 C 0.41034 0.43221 0.10006 0.0
C255 C 0.44286 0.37238 0.06917 0.0
C256 C 0.48427 0.38104 0.05909 0.0
C257 C 0.48803 0.38936 0.03898 0.0
C258 C 0.45015 0.38862 0.02862 0.0
C259 C 0.4079 0.37777 0.03869 0.0
C260 C 0.40418 0.36937 0.05877 0.0
H261 H 0.12936 0.45969 0.18013 0.0
H262 H 0.31383 0.47536 0.09993 0.0
H263 H 0.18488 0.56662 0.13456 0.0
H264 H 0.29869 0.40609 0.15553 0.0
H265 H 0.26311 0.50569 0.11186 0.0
H266 H 0.18834 0.43661 0.1711 0.0
C267 C 0.15422 0.47861 0.16835 0.0
C268 C 0.15195 0.51489 0.15797 0.0
C269 C 0.27115 0.48413 0.1215 0.0
C270 C 0.21891 0.48828 0.14748 0.0
C271 C 0.30029 0.46688 0.11474 0.0
C272 C 0.31091 0.43832 0.12678 0.0
C273 C 0.25175 0.47222 0.14037 0.0
C274 C 0.29104 0.42747 0.14564 0.0
C275 C 0.18787 0.46545 0.16324 0.0
C276 C 0.18521 0.53838 0.14294 0.0
N277 N 0.26219 0.44428 0.15184 0.0
N278 N 0.21696 0.52427 0.13799 0.0
H279 H 0.66605 0.08428 0.4838 0.0
H280 H 0.86527 0.36135 0.49008 0.0
H281 H 0.64377 0.18975 0.51348 0.0
H282 H 0.8741 0.25864 0.45238 0.0
H283 H 0.78958 0.29706 0.50313 0.0
H284 H 0.74834 0.14577 0.47706 0.0
C285 C 0.67854 0.1203 0.48907 0.0
C286 C 0.64766 0.13199 0.49899 0.0
C287 C 0.80836 0.28862 0.49212 0.0
C288 C 0.74204 0.20275 0.49117 0.0
C289 C 0.85141 0.32531 0.48457 0.0
C290 C 0.87592 0.31551 0.46996 0.0
C291 C 0.78977 0.24179 0.48504 0.0
C292 C 0.85678 0.26792 0.46373 0.0
C293 C 0.72559 0.15543 0.48517 0.0
C294 C 0.66617 0.1792 0.50564 0.0
N295 N 0.81473 0.23295 0.47121 0.0
N296 N 0.71209 0.21302 0.50144 0.0
H297 H 0.6067 0.68157 0.82373 0.0
H298 H 0.51499 0.86976 0.82115 0.0
H299 H 0.47081 0.65143 0.84796 0.0
H300 H 0.636 0.8833 0.78864 0.0
H301 H 0.50473 0.79624 0.83602 0.0
H302 H 0.62542 0.763 0.8167 0.0
C303 C 0.58098 0.69229 0.8278 0.0
C304 C 0.53676 0.65942 0.83614 0.0
C305 C 0.53376 0.81566 0.82577 0.0
C306 C 0.55779 0.75268 0.82787 0.0
C307 C 0.53947 0.85743 0.81716 0.0
C308 C 0.57624 0.88271 0.80348 0.0
C309 C 0.56515 0.79918 0.82072 0.0
C310 C 0.60748 0.86552 0.79923 0.0
C311 C 0.59168 0.73882 0.82373 0.0
C312 C 0.5052 0.67557 0.84139 0.0
N313 N 0.60104 0.82479 0.80773 0.0
N314 N 0.51603 0.721 0.8369 0.0
H315 H 0.83793 0.54657 0.19202 0.0
H316 H 0.66731 0.52701 0.10522 0.0
H317 H 0.88316 0.59423 0.13302 0.0
H318 H 0.61499 0.46753 0.1625 0.0
H319 H 0.74793 0.56982 0.11799 0.0
H320 H 0.75875 0.53571 0.18433 0.0
C321 C 0.83161 0.55633 0.17769 0.0
C322 C 0.86649 0.57076 0.16302 0.0
C323 C 0.71884 0.54786 0.12787 0.0
C324 C 0.77677 0.55791 0.15407 0.0
C325 C 0.67248 0.52353 0.1206 0.0
C326 C 0.63404 0.49291 0.13271 0.0
C327 C 0.72731 0.54101 0.14735 0.0
C328 C 0.6436 0.48963 0.15247 0.0
C329 C 0.78645 0.54977 0.17324 0.0
C330 C 0.85678 0.58253 0.14462 0.0
N331 N 0.68941 0.51278 0.15912 0.0
N332 N 0.81264 0.57528 0.14059 0.0
H333 H 0.27531 0.86241 0.52194 0.0
H334 H 0.11926 0.70137 0.43507 0.0
H335 H 0.2811 0.9149 0.46351 0.0
H336 H 0.10618 0.65124 0.49438 0.0
H337 H 0.16377 0.7836 0.44679 0.0
H338 H 0.19998 0.79057 0.51401 0.0
C339 C 0.26026 0.85929 0.50755 0.0
C340 C 0.28525 0.89408 0.49319 0.0
C341 C 0.15041 0.75469 0.45731 0.0
C342 C 0.19938 0.81153 0.48391 0.0
C343 C 0.12468 0.70759 0.45063 0.0
C344 C 0.10994 0.66928 0.46372 0.0
C345 C 0.162 0.76352 0.47719 0.0
C346 C 0.11821 0.6797 0.4837 0.0
C347 C 0.21717 0.81819 0.50302 0.0
C348 C 0.26353 0.88858 0.47493 0.0
N349 N 0.14448 0.72582 0.48979 0.0
N350 N 0.22236 0.84749 0.47067 0.0
H351 H 0.43184 0.28531 0.84868 0.0
H352 H 0.44548 0.13357 0.76145 0.0
H353 H 0.39809 0.30008 0.78917 0.0
H354 H 0.47119 0.11452 0.82164 0.0
H355 H 0.40962 0.1807 0.77211 0.0
H356 H 0.42727 0.20984 0.84013 0.0
C357 C 0.42254 0.27212 0.83387 0.0
C358 C 0.41642 0.29941 0.81949 0.0
C359 C 0.42223 0.16545 0.78302 0.0
C360 C 0.41214 0.21359 0.80948 0.0
C361 C 0.44253 0.13829 0.77695 0.0
C362 C 0.4623 0.12096 0.79068 0.0
C363 C 0.42212 0.17567 0.80294 0.0
C364 C 0.4576 0.12838 0.81054 0.0
C365 C 0.41993 0.229 0.82898 0.0
C366 C 0.4036 0.28033 0.80064 0.0
N367 N 0.43872 0.15585 0.81606 0.0
N368 N 0.40299 0.23904 0.79604 0.0
H369 H 0.43027 0.82637 0.52752 0.0
H370 H 0.61834 0.73584 0.51537 0.0
H371 H 0.55416 0.89424 0.48971 0.0
H372 H 0.49741 0.67196 0.55471 0.0
H373 H 0.59162 0.79 0.50359 0.0
H374 H 0.44986 0.7644 0.53508 0.0
C375 C 0.46136 0.82806 0.52066 0.0
C376 C 0.49091 0.86589 0.50812 0.0
C377 C 0.57078 0.76393 0.51472 0.0
C378 C 0.51369 0.7952 0.51683 0.0
C379 C 0.58619 0.73324 0.52152 0.0
C380 C 0.56018 0.69953 0.5361 0.0
C381 C 0.5292 0.76098 0.52262 0.0
C382 C 0.51831 0.6971 0.54333 0.0
C383 C 0.47257 0.79268 0.52503 0.0
C384 C 0.53056 0.86599 0.49959 0.0
N385 N 0.50427 0.7276 0.53659 0.0
N386 N 0.541 0.8314 0.50423 0.0
H387 H 0.68388 0.58268 0.82243 0.0
H388 H 0.86209 0.5062 0.86877 0.0
H389 H 0.63632 0.44553 0.84986 0.0
H390 H 0.90097 0.65268 0.85669 0.0
H391 H 0.78194 0.47975 0.85626 0.0
H392 H 0.76653 0.60459 0.82898 0.0
C393 C 0.69077 0.55694 0.82966 0.0
C394 C 0.65302 0.51236 0.83582 0.0
C395 C 0.80817 0.51764 0.85625 0.0
C396 C 0.74762 0.53738 0.84334 0.0
C397 C 0.85384 0.53283 0.86348 0.0
C398 C 0.88819 0.58184 0.86404 0.0
C399 C 0.79684 0.55164 0.84939 0.0
C400 C 0.87582 0.61455 0.85646 0.0
C401 C 0.73799 0.56959 0.83344 0.0
C402 C 0.66425 0.48045 0.84503 0.0
N403 N 0.83105 0.59886 0.84955 0.0
N404 N 0.71059 0.4937 0.84862 0.0
H405 H 0.10328 0.72458 0.20819 0.0
H406 H 0.36488 0.91425 0.17274 0.0
H407 H 0.15524 0.73787 0.1491 0.0
H408 H 0.31871 0.89382 0.23286 0.0
H409 H 0.28148 0.86578 0.16263 0.0
H410 H 0.17406 0.80164 0.21603 0.0
C411 C 0.12893 0.74427 0.19675 0.0
C412 C 0.12412 0.72432 0.17811 0.0
C413 C 0.28945 0.87264 0.17803 0.0
C414 C 0.20504 0.81195 0.18697 0.0
C415 C 0.33704 0.90023 0.18378 0.0
C416 C 0.34868 0.90715 0.20365 0.0
C417 C 0.25335 0.85123 0.19228 0.0
C418 C 0.31127 0.88909 0.21737 0.0
C419 C 0.16942 0.78814 0.20124 0.0
C420 C 0.15822 0.75144 0.1638 0.0
N421 N 0.26528 0.86108 0.21145 0.0
N422 N 0.19761 0.79347 0.16861 0.0
H423 H 0.4677 0.17538 0.46695 0.0
H424 H 0.58238 0.40167 0.50522 0.0
H425 H 0.41224 0.14611 0.5257 0.0
H426 H 0.45086 0.36228 0.53621 0.0
H427 H 0.54335 0.32354 0.4896 0.0
H428 H 0.48243 0.25767 0.47014 0.0
C429 C 0.45698 0.18584 0.48022 0.0
C430 C 0.43922 0.1546 0.49618 0.0
C431 C 0.52263 0.33259 0.49937 0.0
C432 C 0.45633 0.24762 0.5 0.0
C433 C 0.54496 0.37732 0.5084 0.0
C434 C 0.52033 0.38859 0.52245 0.0
C435 C 0.47565 0.29852 0.50469 0.0
C436 C 0.47198 0.35475 0.52606 0.0
C437 C 0.46585 0.23271 0.4821 0.0
C438 C 0.42634 0.1696 0.51317 0.0
N439 N 0.45164 0.31074 0.51766 0.0
N440 N 0.43555 0.21534 0.51471 0.0
H441 H 0.30366 0.47096 0.80527 0.0
H442 H 0.13635 0.48053 0.88877 0.0
H443 H 0.30003 0.42809 0.86507 0.0
H444 H 0.16521 0.55697 0.83419 0.0
H445 H 0.17641 0.43904 0.87627 0.0
H446 H 0.2339 0.48035 0.81192 0.0
C447 C 0.2871 0.46197 0.81959 0.0
C448 C 0.30757 0.44928 0.83474 0.0
C449 C 0.17336 0.46437 0.86691 0.0
C450 C 0.22881 0.46017 0.84246 0.0
C451 C 0.15022 0.48791 0.87399 0.0
C452 C 0.14815 0.52296 0.86264 0.0
C453 C 0.19494 0.4761 0.84838 0.0
C454 C 0.16712 0.53114 0.84363 0.0
C455 C 0.24768 0.46769 0.82342 0.0
C456 C 0.28537 0.43845 0.85309 0.0
N457 N 0.19036 0.50838 0.83718 0.0
N458 N 0.2475 0.44464 0.8565 0.0
H459 H 0.83261 0.36974 0.14937 0.0
H460 H 0.76111 0.12997 0.20877 0.0
H461 H 0.93314 0.34291 0.18022 0.0
H462 H 0.65784 0.15928 0.18191 0.0
H463 H 0.82541 0.20305 0.19427 0.0
H464 H 0.76924 0.28797 0.15685 0.0
C465 C 0.84154 0.34647 0.15744 0.0
C466 C 0.88812 0.36342 0.16441 0.0
C467 C 0.78869 0.19339 0.19142 0.0
C468 C 0.81584 0.27013 0.17313 0.0
C469 C 0.75192 0.15147 0.19962 0.0
C470 C 0.70399 0.13865 0.19668 0.0
C471 C 0.77757 0.22288 0.18021 0.0
C472 C 0.69431 0.16828 0.18486 0.0
C473 C 0.80531 0.29988 0.16178 0.0
C474 C 0.89763 0.33164 0.17477 0.0
N475 N 0.73079 0.20919 0.17716 0.0
N476 N 0.86174 0.28673 0.17895 0.0
H477 H 0.94966 0.52322 0.08403 0.0
H478 H 0.13546 0.64518 0.99584 0.0
H479 H 0.10237 0.61247 0.09158 0.0
H480 H 0.98258 0.57944 0.98888 0.0
H481 H 0.1236 0.62766 0.03074 0.0
H482 H 0.96059 0.53778 0.04881 0.0
C483 C 0.98545 0.54572 0.0783 0.0
C484 C 0.02513 0.56675 0.09081 0.0
C485 C 0.09261 0.61708 0.02159 0.0
C486 C 0.03785 0.58343 0.05058 0.0
C487 C 0.09937 0.62686 0.00166 0.0
C488 C 0.05996 0.61381 0.98946 0.0
C489 C 0.04606 0.59377 0.02941 0.0
C490 C 0.01399 0.59061 0.99782 0.0
C491 C 0.99164 0.55412 0.05821 0.0
C492 C 0.07068 0.59566 0.08255 0.0
N493 N 0.00828 0.58122 0.01728 0.0
N494 N 0.07576 0.60307 0.06299 0.0
H495 H 0.55661 0.01111 0.42779 0.0
H496 H 0.44584 0.97 0.32096 0.0
H497 H 0.42055 0.00108 0.4162 0.0
H498 H 0.59327 0.01278 0.33227 0.0
H499 H 0.43421 0.9779 0.3558 0.0
H500 H 0.56894 0.00836 0.39287 0.0
C501 C 0.52923 0.00829 0.4179 0.0
C502 C 0.48734 0.00613 0.42497 0.0
C503 C 0.46915 0.98581 0.35064 0.0
C504 C 0.50137 0.00291 0.38483 0.0
C505 C 0.47575 0.98104 0.3308 0.0
C506 C 0.52055 0.99054 0.32376 0.0
C507 C 0.50752 -0.00029 0.36355 0.0
C508 C 0.55825 0.0054 0.33707 0.0
C509 C 0.53645 0.00693 0.39793 0.0
C510 C 0.45337 0.00285 0.4114 0.0
N511 N 0.55079 0.0092 0.35635 0.0
N512 N 0.461 0.00104 0.39196 0.0
H513 H 0.55682 0.57929 0.75984 0.0
H514 H 0.52389 0.46009 0.65505 0.0
H515 H 0.44642 0.43366 0.74816 0.0
H516 H 0.59985 0.61282 0.66466 0.0
H517 H 0.49838 0.44798 0.68936 0.0
H518 H 0.57579 0.59092 0.72514 0.0
C519 C 0.53637 0.54977 0.74993 0.0
C520 C 0.50008 0.50535 0.7569 0.0
C521 C 0.52041 0.48411 0.6839 0.0
C522 C 0.52204 0.51835 0.7171 0.0
C523 C 0.53528 0.49101 0.66441 0.0
C524 C 0.56406 0.53752 0.65706 0.0
C525 C 0.53504 0.524 0.69613 0.0
C526 C 0.57738 0.57639 0.6697 0.0
C527 C 0.54717 0.5565 0.73011 0.0
C528 C 0.47457 0.46851 0.74337 0.0
N529 N 0.56301 0.56874 0.68864 0.0
N530 N 0.48639 0.47566 0.72409 0.0
H531 H 0.44119 0.93804 0.57835 0.0
H532 H 0.54629 0.10095 0.67348 0.0
H533 H 0.50313 0.09173 0.57819 0.0
H534 H 0.52873 0.95952 0.66862 0.0
H535 H 0.51853 0.09443 0.64001 0.0
H536 H 0.45978 0.94152 0.61312 0.0
C537 C 0.45808 0.97242 0.58567 0.0
C538 C 0.4709 0.01472 0.57532 0.0
C539 C 0.52076 0.06483 0.64628 0.0
C540 C 0.49229 0.01885 0.61501 0.0
C541 C 0.53701 0.06863 0.66536 0.0
C542 C 0.54058 0.03098 0.67388 0.0
C543 C 0.50743 0.0229 0.63561 0.0
C544 C 0.52639 0.98937 0.66275 0.0
C545 C 0.46896 0.97438 0.60547 0.0
C546 C 0.49293 0.05828 0.58555 0.0
N547 N 0.51051 0.98648 0.64417 0.0
N548 N 0.50301 0.05922 0.60482 0.0
H549 H 0.44252 0.49839 0.91413 0.0
H550 H 0.48951 0.35922 0.00011 0.0
H551 H 0.50276 0.40678 0.90523 0.0
H552 H 0.42192 0.44409 0.00902 0.0
H553 H 0.49747 0.37898 0.9654 0.0
H554 H 0.43741 0.4816 0.94912 0.0
C555 C 0.45482 0.4749 0.91951 0.0
C556 C 0.47298 0.45389 0.90668 0.0
C557 C 0.48087 0.39328 0.97494 0.0
C558 C 0.46715 0.43447 0.94669 0.0
C559 C 0.47653 0.38219 0.99478 0.0
C560 C 0.45492 0.39993 0.00748 0.0
C561 C 0.46362 0.42249 0.96773 0.0
C562 C 0.4382 0.42906 -0.0003 0.0
C563 C 0.45181 0.46526 0.93949 0.0
C564 C 0.48836 0.42371 0.91452 0.0
N565 N 0.44294 0.43946 0.98034 0.0
N566 N 0.48503 0.4149 0.93398 0.0
H567 H 0.03826 0.47331 0.23799 0.0
H568 H 0.98081 0.52293 0.34626 0.0
H569 H 0.9798 0.56528 0.25004 0.0
H570 H 0.065 0.45679 0.33273 0.0
H571 H 0.97326 0.53313 0.31122 0.0
H572 H 0.04158 0.46147 0.2728 0.0
C573 C 0.026 0.49103 0.24795 0.0
C574 C 0.00879 0.52048 0.24101 0.0
C575 C 0.99336 0.5164 0.31596 0.0
C576 C 0.01256 0.50688 0.28113 0.0
C577 C -0.00259 0.51028 0.3359 0.0
C578 C 0.02369 0.48909 0.34238 0.0
C579 C 0.01536 0.50077 0.30243 0.0
C580 C 0.0449 0.4738 0.32838 0.0
C581 C 0.02804 0.48429 0.26788 0.0
C582 C 0.99347 0.54241 0.25472 0.0
N583 N 0.0402 0.47987 0.30909 0.0
N584 N -0.00433 0.53512 0.27417 0.0
loop_
_geom_bond_atom_site_label_1
_geom_bond_atom_site_label_2
_geom_bond_distance
_geom_bond_site_symmetry_2
_ccdc_geom_bond_type
O0 Zn1 1.953 . S
O0 C16 1.230 . S
Zn1 O0 1.953 . S
Zn1 O2 1.949 . S
Zn1 O8 1.919 1_455 S
Zn1 O13 1.924 . S
O2 Zn1 1.949 . S
O2 Zn3 1.923 1_455 S
O2 Zn4 1.950 . S
O2 Zn5 1.945 . S
Zn3 O2 1.923 1_655 S
Zn3 O6 1.933 . S
Zn3 O9 1.941 . S
Zn3 O10 1.965 . S
Zn4 O2 1.950 . S
Zn4 O11 1.938 1_455 S
Zn4 O12 1.906 . S
Zn4 O22 1.953 . S
Zn5 O2 1.945 . S
Zn5 O7 1.932 . S
Zn5 O14 1.977 . S
Zn5 O15 1.910 . S
O6 Zn3 1.933 . S
O6 C17 1.226 1_655 S
O7 Zn5 1.932 . S
O7 C17 1.307 . S
O8 Zn1 1.919 1_655 S
O8 C19 1.253 . S
O9 Zn3 1.941 . S
O9 C19 1.283 . S
O10 Zn3 1.965 . S
O10 C18 1.303 . S
O11 Zn4 1.938 1_655 S
O11 C18 1.247 . S
O12 Zn4 1.906 . S
O12 C20 1.304 . S
O13 Zn1 1.924 . S
O13 C21 1.311 . S
O14 Zn5 1.977 . S
O14 C20 1.272 . S
O15 Zn5 1.910 . S
O15 C21 1.231 . S
C16 O0 1.230 . S
C16 O22 1.298 . S
C17 O6 1.226 1_455 S
C17 O7 1.307 . S
C18 O10 1.303 . S
C18 O11 1.247 . S
C19 O8 1.253 . S
C19 O9 1.283 . S
C20 O12 1.304 . S
C20 O14 1.272 . S
C21 O13 1.311 . S
C21 O15 1.231 . S
O22 Zn4 1.953 . S
O22 C16 1.298 . S
O23 Zn24 1.953 . S
O23 C39 1.225 . S
Zn24 O23 1.953 . S
Zn24 O25 1.949 . S
Zn24 O31 1.919 . S
Zn24 O36 1.924 1_545 S
O25 Zn24 1.949 . S
O25 Zn26 1.923 . S
O25 Zn27 1.950 . S
O25 Zn28 1.945 1_545 S
Zn26 O25 1.923 . S
Zn26 O29 1.933 . S
Zn26 O32 1.941 . S
Zn26 O33 1.965 . S
Zn27 O25 1.950 . S
Zn27 O34 1.938 . S
Zn27 O35 1.906 1_545 S
Zn27 O45 1.952 . S
Zn28 O25 1.945 1_565 S
Zn28 O30 1.932 . S
Zn28 O37 1.977 . S
Zn28 O38 1.910 . S
O29 Zn26 1.933 . S
O29 C40 1.226 . S
O30 Zn28 1.932 . S
O30 C40 1.307 1_565 S
O31 Zn24 1.919 . S
O31 C42 1.253 . S
O32 Zn26 1.941 . S
O32 C42 1.283 . S
O33 Zn26 1.965 . S
O33 C41 1.303 . S
O34 Zn27 1.938 . S
O34 C41 1.247 . S
O35 Zn27 1.906 1_565 S
O35 C43 1.304 . S
O36 Zn24 1.924 1_565 S
O36 C44 1.311 . S
O37 Zn28 1.977 . S
O37 C43 1.272 . S
O38 Zn28 1.910 . S
O38 C44 1.231 . S
C39 O23 1.225 . S
C39 O45 1.306 . S
C40 O29 1.226 . S
C40 O30 1.307 1_545 S
C41 O33 1.303 . S
C41 O34 1.247 . S
C42 O31 1.253 . S
C42 O32 1.283 . S
C43 O35 1.304 . S
C43 O37 1.272 . S
C44 O36 1.311 . S
C44 O38 1.231 . S
O45 Zn27 1.952 . S
O45 C39 1.306 . S
O46 Zn47 1.953 . S
O46 C62 1.225 . S
Zn47 O46 1.953 . S
Zn47 O48 1.949 . S
Zn47 O54 1.919 . S
Zn47 O59 1.924 . S
O48 Zn47 1.949 . S
O48 Zn49 1.923 . S
O48 Zn50 1.950 . S
O48 Zn51 1.945 . S
Zn49 O48 1.923 . S
Zn49 O52 1.933 . S
Zn49 O55 1.941 . S
Zn49 O56 1.965 . S
Zn50 O48 1.950 . S
Zn50 O57 1.938 . S
Zn50 O58 1.906 . S
Zn50 O68 1.953 . S
Zn51 O48 1.945 . S
Zn51 O53 1.932 . S
Zn51 O60 1.977 . S
Zn51 O61 1.910 . S
O52 Zn49 1.933 . S
O52 C63 1.226 . S
O53 Zn51 1.932 . S
O53 C63 1.307 . S
O54 Zn47 1.919 . S
O54 C65 1.253 . S
O55 Zn49 1.941 . S
O55 C65 1.283 . S
O56 Zn49 1.965 . S
O56 C64 1.303 . S
O57 Zn50 1.938 . S
O57 C64 1.247 . S
O58 Zn50 1.906 . S
O58 C66 1.304 . S
O59 Zn47 1.924 . S
O59 C67 1.311 . S
O60 Zn51 1.977 . S
O60 C66 1.272 . S
O61 Zn51 1.910 . S
O61 C67 1.231 . S
C62 O46 1.225 . S
C62 O68 1.298 . S
C63 O52 1.226 . S
C63 O53 1.307 . S
C64 O56 1.303 . S
C64 O57 1.247 . S
C65 O54 1.253 . S
C65 O55 1.283 . S
C66 O58 1.304 . S
C66 O60 1.272 . S
C67 O59 1.311 . S
C67 O61 1.231 . S
O68 Zn50 1.953 . S
O68 C62 1.298 . S
P69 O80 1.490 . S
P69 C83 1.812 . S
P69 C89 1.803 1_565 S
P69 C95 1.810 1_565 S
H70 C84 0.941 . S
H71 C85 0.939 . S
H72 C87 0.940 . S
H73 C88 0.940 . S
H74 C90 0.939 . S
H75 C91 0.942 . S
H76 C93 0.940 . S
H77 C94 0.939 . S
H78 C96 0.941 . S
H79 C100 0.939 . S
O80 P69 1.490 . S
H81 C97 0.939 . S
H82 C99 0.940 . S
C83 P69 1.812 . S
C83 C84 1.389 . S
C83 C88 1.391 . S
C84 H70 0.941 . S
C84 C83 1.389 . S
C84 C85 1.397 . S
C85 H71 0.939 . S
C85 C84 1.397 . S
C85 C86 1.378 . S
C86 C85 1.378 . S
C86 C87 1.378 . S
C87 H72 0.940 . S
C87 C86 1.378 . S
C87 C88 1.396 . S
C88 H73 0.940 . S
C88 C83 1.391 . S
C88 C87 1.396 . S
C89 P69 1.803 1_545 S
C89 C90 1.378 . S
C89 C94 1.400 . S
C90 H74 0.939 . S
C90 C89 1.378 . S
C90 C91 1.361 . S
C91 H75 0.942 . S
C91 C90 1.361 . S
C91 C92 1.369 . S
C92 C91 1.369 . S
C92 C93 1.404 . S
C93 H76 0.940 . S
C93 C92 1.404 . S
C93 C94 1.389 . S
C94 H77 0.939 . S
C94 C89 1.400 . S
C94 C93 1.389 . S
C95 P69 1.810 1_545 S
C95 C96 1.374 1_545 S
C95 C100 1.417 . S
C96 H78 0.941 . S
C96 C95 1.374 1_565 S
C96 C97 1.396 . S
C97 H81 0.939 . S
C97 C96 1.396 . S
C97 C98 1.397 1_565 S
C98 C97 1.397 1_545 S
C98 C99 1.385 . S
C99 H82 0.940 . S
C99 C98 1.385 . S
C99 C100 1.388 . S
C100 H79 0.939 . S
C100 C95 1.417 . S
C100 C99 1.388 . S
P101 O112 1.490 . S
P101 C115 1.812 . S
P101 C121 1.803 . S
P101 C127 1.819 . S
H102 C116 0.941 . S
H103 C117 0.939 . S
H104 C119 0.940 . S
H105 C120 0.940 . S
H106 C122 0.939 . S
H107 C123 0.942 . S
H108 C125 0.940 . S
H109 C126 0.939 . S
H110 C128 0.941 . S
H111 C132 0.939 . S
O112 P101 1.490 . S
H113 C129 0.939 . S
H114 C131 0.940 . S
C115 P101 1.812 . S
C115 C116 1.389 . S
C115 C120 1.391 . S
C116 H102 0.941 . S
C116 C115 1.389 . S
C116 C117 1.397 . S
C117 H103 0.939 . S
C117 C116 1.397 . S
C117 C118 1.378 . S
C118 C117 1.378 . S
C118 C119 1.378 . S
C119 H104 0.940 . S
C119 C118 1.378 . S
C119 C120 1.396 . S
C120 H105 0.940 . S
C120 C115 1.391 . S
C120 C119 1.396 . S
C121 P101 1.803 . S
C121 C122 1.378 . S
C121 C126 1.400 . S
C122 H106 0.939 . S
C122 C121 1.378 . S
C122 C123 1.361 . S
C123 H107 0.942 . S
C123 C122 1.361 . S
C123 C124 1.369 . S
C124 C123 1.369 . S
C124 C125 1.404 . S
C125 H108 0.940 . S
C125 C124 1.404 . S
C125 C126 1.389 . S
C126 H109 0.939 . S
C126 C121 1.400 . S
C126 C125 1.389 . S
C127 P101 1.819 . S
C127 C128 1.391 . S
C127 C132 1.391 . S
C128 H110 0.941 . S
C128 C127 1.391 . S
C128 C129 1.396 . S
C129 H113 0.939 . S
C129 C128 1.396 . S
C129 C130 1.397 . S
C130 C129 1.397 . S
C130 C131 1.385 . S
C131 H114 0.940 . S
C131 C130 1.385 . S
C131 C132 1.388 . S
C132 H111 0.939 . S
C132 C127 1.391 . S
C132 C131 1.388 . S
P133 O144 1.490 . S
P133 C147 1.812 . S
P133 C153 1.805 1_455 S
P133 C159 1.819 . S
H134 C148 0.941 . S
H135 C149 0.939 . S
H136 C151 0.940 . S
H137 C152 0.940 . S
H138 C154 0.939 . S
H139 C155 0.942 . S
H140 C157 0.940 . S
H141 C158 0.939 . S
H142 C160 0.941 . S
H143 C164 0.955 . S
O144 P133 1.490 . S
H145 C161 0.939 . S
H146 C163 0.940 . S
C147 P133 1.812 . S
C147 C148 1.389 . S
C147 C152 1.391 . S
C148 H134 0.941 . S
C148 C147 1.389 . S
C148 C149 1.397 . S
C149 H135 0.939 . S
C149 C148 1.397 . S
C149 C150 1.378 . S
C150 C149 1.378 . S
C150 C151 1.378 . S
C151 H136 0.940 . S
C151 C150 1.378 . S
C151 C152 1.396 . S
C152 H137 0.940 . S
C152 C147 1.391 . S
C152 C151 1.396 . S
C153 P133 1.805 1_655 S
C153 C154 1.376 . S
C153 C158 1.400 . S
C154 H138 0.939 . S
C154 C153 1.376 . S
C154 C155 1.361 . S
C155 H139 0.942 . S
C155 C154 1.361 . S
C155 C156 1.369 . S
C156 C155 1.369 . S
C156 C157 1.404 . S
C157 H140 0.940 . S
C157 C156 1.404 . S
C157 C158 1.389 . S
C158 H141 0.939 . S
C158 C153 1.400 . S
C158 C157 1.389 . S
C159 P133 1.819 . S
C159 C160 1.391 . S
C159 C164 1.377 1_455 S
C160 H142 0.941 . S
C160 C159 1.391 . S
C160 C161 1.396 . S
C161 H145 0.939 . S
C161 C160 1.396 . S
C161 C162 1.397 . S
C162 C161 1.397 . S
C162 C163 1.385 1_455 S
C163 H146 0.940 . S
C163 C162 1.385 1_655 S
C163 C164 1.387 . S
C164 H143 0.955 . S
C164 C159 1.377 1_655 S
C164 C163 1.387 . S
P165 O176 1.490 . S
P165 C179 1.812 . S
P165 C185 1.803 1_455 S
P165 C191 1.819 . S
H166 C180 0.941 . S
H167 C181 0.939 . S
H168 C183 0.940 . S
H169 C184 0.940 . S
H170 C186 0.939 . S
H171 C187 0.942 . S
H172 C189 0.940 . S
H173 C190 0.939 . S
H174 C192 0.941 . S
H175 C196 0.939 . S
O176 P165 1.490 . S
H177 C193 0.939 . S
H178 C195 0.940 . S
C179 P165 1.812 . S
C179 C180 1.389 . S
C179 C184 1.391 . S
C180 H166 0.941 . S
C180 C179 1.389 . S
C180 C181 1.397 . S
C181 H167 0.939 . S
C181 C180 1.397 . S
C181 C182 1.378 . S
C182 C181 1.378 . S
C182 C183 1.378 . S
C183 H168 0.940 . S
C183 C182 1.378 . S
C183 C184 1.396 . S
C184 H169 0.940 . S
C184 C179 1.391 . S
C184 C183 1.396 . S
C185 P165 1.803 1_655 S
C185 C186 1.378 . S
C185 C190 1.400 . S
C186 H170 0.939 . S
C186 C185 1.378 . S
C186 C187 1.361 . S
C187 H171 0.942 . S
C187 C186 1.361 . S
C187 C188 1.369 . S
C188 C187 1.369 . S
C188 C189 1.404 . S
C189 H172 0.940 . S
C189 C188 1.404 . S
C189 C190 1.389 . S
C190 H173 0.939 . S
C190 C185 1.400 . S
C190 C189 1.389 . S
C191 P165 1.819 . S
C191 C192 1.391 . S
C191 C196 1.391 1_455 S
C192 H174 0.941 . S
C192 C191 1.391 . S
C192 C193 1.396 . S
C193 H177 0.939 . S
C193 C192 1.396 . S
C193 C194 1.397 . S
C194 C193 1.397 . S
C194 C195 1.385 1_455 S
C195 H178 0.940 . S
C195 C194 1.385 1_655 S
C195 C196 1.388 . S
C196 H175 0.939 . S
C196 C191 1.391 1_655 S
C196 C195 1.388 . S
P197 O208 1.490 . S
P197 C211 1.812 . S
P197 C217 1.803 1_545 S
P197 C223 1.819 . S
H198 C212 0.941 . S
H199 C213 0.939 . S
H200 C215 0.940 . S
H201 C216 0.940 . S
H202 C218 0.939 . S
H203 C219 0.942 . S
H204 C221 0.940 . S
H205 C222 0.939 . S
H206 C224 0.941 . S
H207 C228 0.939 . S
O208 P197 1.490 . S
H209 C225 0.939 . S
H210 C227 0.940 . S
C211 P197 1.812 . S
C211 C212 1.389 . S
C211 C216 1.391 . S
C212 H198 0.941 . S
C212 C211 1.389 . S
C212 C213 1.397 . S
C213 H199 0.939 . S
C213 C212 1.397 . S
C213 C214 1.378 . S
C214 C213 1.378 . S
C214 C215 1.378 . S
C215 H200 0.940 . S
C215 C214 1.378 . S
C215 C216 1.396 . S
C216 H201 0.940 . S
C216 C211 1.391 . S
C216 C215 1.396 . S
C217 P197 1.803 1_565 S
C217 C218 1.378 . S
C217 C222 1.400 . S
C218 H202 0.939 . S
C218 C217 1.378 . S
C218 C219 1.361 . S
C219 H203 0.942 . S
C219 C218 1.361 . S
C219 C220 1.369 . S
C220 C219 1.369 . S
C220 C221 1.404 . S
C221 H204 0.940 . S
C221 C220 1.404 . S
C221 C222 1.389 . S
C222 H205 0.939 . S
C222 C217 1.400 . S
C222 C221 1.389 . S
C223 P197 1.819 . S
C223 C224 1.391 . S
C223 C228 1.391 1_545 S
C224 H206 0.941 . S
C224 C223 1.391 . S
C224 C225 1.396 . S
C225 H209 0.939 . S
C225 C224 1.396 . S
C225 C226 1.397 . S
C226 C225 1.397 . S
C226 C227 1.385 1_545 S
C227 H210 0.940 . S
C227 C226 1.385 1_565 S
C227 C228 1.388 . S
C228 H207 0.939 . S
C228 C223 1.391 1_565 S
C228 C227 1.388 . S
P229 O240 1.490 . S
P229 C243 1.812 . S
P229 C249 1.803 . S
P229 C255 1.819 . S
H230 C244 0.941 . S
H231 C245 0.939 . S
H232 C247 0.940 . S
H233 C248 0.940 . S
H234 C250 0.939 . S
H235 C251 0.942 . S
H236 C253 0.940 . S
H237 C254 0.939 . S
H238 C256 0.941 . S
H239 C260 0.939 . S
O240 P229 1.490 . S
H241 C257 0.939 . S
H242 C259 0.940 . S
C243 P229 1.812 . S
C243 C244 1.389 . S
C243 C248 1.391 . S
C244 H230 0.941 . S
C244 C243 1.389 . S
C244 C245 1.397 . S
C245 H231 0.939 . S
C245 C244 1.397 . S
C245 C246 1.378 . S
C246 C245 1.378 . S
C246 C247 1.378 . S
C247 H232 0.940 . S
C247 C246 1.378 . S
C247 C248 1.396 . S
C248 H233 0.940 . S
C248 C243 1.391 . S
C248 C247 1.396 . S
C249 P229 1.803 . S
C249 C250 1.378 . S
C249 C254 1.400 . S
C250 H234 0.939 . S
C250 C249 1.378 . S
C250 C251 1.361 . S
C251 H235 0.942 . S
C251 C250 1.361 . S
C251 C252 1.369 . S
C252 C251 1.369 . S
C252 C253 1.404 . S
C253 H236 0.940 . S
C253 C252 1.404 . S
C253 C254 1.389 . S
C254 H237 0.939 . S
C254 C249 1.400 . S
C254 C253 1.389 . S
C255 P229 1.819 . S
C255 C256 1.391 . S
C255 C260 1.391 . S
C256 H238 0.941 . S
C256 C255 1.391 . S
C256 C257 1.396 . S
C257 H241 0.939 . S
C257 C256 1.396 . S
C257 C258 1.397 . S
C258 C257 1.397 . S
C258 C259 1.385 . S
C259 H242 0.940 . S
C259 C258 1.385 . S
C259 C260 1.388 . S
C260 H239 0.939 . S
C260 C255 1.391 . S
C260 C259 1.388 . S
H261 C267 0.930 . S
H262 C271 0.930 . S
H263 C276 0.929 . S
H264 C274 0.929 . S
H265 C269 0.929 . S
H266 C275 0.929 . S
C267 H261 0.930 . S
C267 C268 1.367 . S
C267 C275 1.378 . S
C268 C267 1.367 . S
C268 C276 1.433 . S
C269 H265 0.929 . S
C269 C271 1.378 . S
C269 C273 1.350 . S
C270 C273 1.463 . S
C270 C275 1.350 . S
C270 N278 1.427 . S
C271 H262 0.930 . S
C271 C269 1.378 . S
C271 C272 1.367 . S
C272 C271 1.367 . S
C272 C274 1.433 . S
C273 C269 1.350 . S
C273 C270 1.463 . S
C273 N277 1.427 . S
C274 H264 0.929 . S
C274 C272 1.433 . S
C274 N277 1.384 . S
C275 H266 0.929 . S
C275 C267 1.378 . S
C275 C270 1.350 . S
C276 H263 0.929 . S
C276 C268 1.433 . S
C276 N278 1.384 . S
N277 C273 1.427 . S
N277 C274 1.384 . S
N278 C270 1.427 . S
N278 C276 1.384 . S
H279 C285 0.930 . S
H280 C289 0.930 . S
H281 C294 0.929 . S
H282 C292 0.929 . S
H283 C287 0.929 . S
H284 C293 0.929 . S
C285 H279 0.930 . S
C285 C286 1.367 . S
C285 C293 1.378 . S
C286 C285 1.367 . S
C286 C294 1.433 . S
C287 H283 0.929 . S
C287 C289 1.378 . S
C287 C291 1.350 . S
C288 C291 1.463 . S
C288 C293 1.350 . S
C288 N296 1.427 . S
C289 H280 0.930 . S
C289 C287 1.378 . S
C289 C290 1.367 . S
C290 C289 1.367 . S
C290 C292 1.433 . S
C291 C287 1.350 . S
C291 C288 1.463 . S
C291 N295 1.427 . S
C292 H282 0.929 . S
C292 C290 1.433 . S
C292 N295 1.384 . S
C293 H284 0.929 . S
C293 C285 1.378 . S
C293 C288 1.350 . S
C294 H281 0.929 . S
C294 C286 1.433 . S
C294 N296 1.384 . S
N295 C291 1.427 . S
N295 C292 1.384 . S
N296 C288 1.427 . S
N296 C294 1.384 . S
H297 C303 0.930 . S
H298 C307 0.930 . S
H299 C312 0.929 . S
H300 C310 0.929 . S
H301 C305 0.929 . S
H302 C311 0.929 . S
C303 H297 0.930 . S
C303 C304 1.367 . S
C303 C311 1.378 . S
C304 C303 1.367 . S
C304 C312 1.433 . S
C305 H301 0.929 . S
C305 C307 1.378 . S
C305 C309 1.350 . S
C306 C309 1.463 . S
C306 C311 1.350 . S
C306 N314 1.427 . S
C307 H298 0.930 . S
C307 C305 1.378 . S
C307 C308 1.367 . S
C308 C307 1.367 . S
C308 C310 1.433 . S
C309 C305 1.350 . S
C309 C306 1.463 . S
C309 N313 1.427 . S
C310 H300 0.929 . S
C310 C308 1.433 . S
C310 N313 1.384 . S
C311 H302 0.929 . S
C311 C303 1.378 . S
C311 C306 1.350 . S
C312 H299 0.929 . S
C312 C304 1.433 . S
C312 N314 1.384 . S
N313 C309 1.427 . S
N313 C310 1.384 . S
N314 C306 1.427 . S
N314 C312 1.384 . S
H315 C321 0.930 . S
H316 C325 0.930 . S
H317 C330 0.929 . S
H318 C328 0.929 . S
H319 C323 0.929 . S
H320 C329 0.929 . S
C321 H315 0.930 . S
C321 C322 1.367 . S
C321 C329 1.378 . S
C322 C321 1.367 . S
C322 C330 1.433 . S
C323 H319 0.929 . S
C323 C325 1.378 . S
C323 C327 1.350 . S
C324 C327 1.463 . S
C324 C329 1.350 . S
C324 N332 1.427 . S
C325 H316 0.930 . S
C325 C323 1.378 . S
C325 C326 1.367 . S
C326 C325 1.367 . S
C326 C328 1.433 . S
C327 C323 1.350 . S
C327 C324 1.463 . S
C327 N331 1.427 . S
C328 H318 0.929 . S
C328 C326 1.433 . S
C328 N331 1.384 . S
C329 H320 0.929 . S
C329 C321 1.378 . S
C329 C324 1.350 . S
C330 H317 0.929 . S
C330 C322 1.433 . S
C330 N332 1.384 . S
N331 C327 1.427 . S
N331 C328 1.384 . S
N332 C324 1.427 . S
N332 C330 1.384 . S
H333 C339 0.930 . S
H334 C343 0.930 . S
H335 C348 0.929 . S
H336 C346 0.929 . S
H337 C341 0.929 . S
H338 C347 0.929 . S
C339 H333 0.930 . S
C339 C340 1.367 . S
C339 C347 1.378 . S
C340 C339 1.367 . S
C340 C348 1.433 . S
C341 H337 0.929 . S
C341 C343 1.378 . S
C341 C345 1.350 . S
C342 C345 1.463 . S
C342 C347 1.350 . S
C342 N350 1.427 . S
C343 H334 0.930 . S
C343 C341 1.378 . S
C343 C344 1.367 . S
C344 C343 1.367 . S
C344 C346 1.433 . S
C345 C341 1.350 . S
C345 C342 1.463 . S
C345 N349 1.427 . S
C346 H336 0.929 . S
C346 C344 1.433 . S
C346 N349 1.384 . S
C347 H338 0.929 . S
C347 C339 1.378 . S
C347 C342 1.350 . S
C348 H335 0.929 . S
C348 C340 1.433 . S
C348 N350 1.384 . S
N349 C345 1.427 . S
N349 C346 1.384 . S
N350 C342 1.427 . S
N350 C348 1.384 . S
H351 C357 0.930 . S
H352 C361 0.930 . S
H353 C366 0.929 . S
H354 C364 0.929 . S
H355 C359 0.929 . S
H356 C365 0.929 . S
C357 H351 0.930 . S
C357 C358 1.367 . S
C357 C365 1.378 . S
C358 C357 1.367 . S
C358 C366 1.433 . S
C359 H355 0.929 . S
C359 C361 1.378 . S
C359 C363 1.350 . S
C360 C363 1.463 . S
C360 C365 1.350 . S
C360 N368 1.427 . S
C361 H352 0.930 . S
C361 C359 1.378 . S
C361 C362 1.367 . S
C362 C361 1.367 . S
C362 C364 1.433 . S
C363 C359 1.350 . S
C363 C360 1.463 . S
C363 N367 1.427 . S
C364 H354 0.929 . S
C364 C362 1.433 . S
C364 N367 1.384 . S
C365 H356 0.929 . S
C365 C357 1.378 . S
C365 C360 1.350 . S
C366 H353 0.929 . S
C366 C358 1.433 . S
C366 N368 1.384 . S
N367 C363 1.427 . S
N367 C364 1.384 . S
N368 C360 1.427 . S
N368 C366 1.384 . S
H369 C375 0.930 . S
H370 C379 0.930 . S
H371 C384 0.929 . S
H372 C382 0.929 . S
H373 C377 0.929 . S
H374 C383 0.929 . S
C375 H369 0.930 . S
C375 C376 1.367 . S
C375 C383 1.378 . S
C376 C375 1.367 . S
C376 C384 1.433 . S
C377 H373 0.929 . S
C377 C379 1.378 . S
C377 C381 1.350 . S
C378 C381 1.463 . S
C378 C383 1.350 . S
C378 N386 1.427 . S
C379 H370 0.930 . S
C379 C377 1.378 . S
C379 C380 1.367 . S
C380 C379 1.367 . S
C380 C382 1.433 . S
C381 C377 1.350 . S
C381 C378 1.463 . S
C381 N385 1.427 . S
C382 H372 0.929 . S
C382 C380 1.433 . S
C382 N385 1.384 . S
C383 H374 0.929 . S
C383 C375 1.378 . S
C383 C378 1.350 . S
C384 H371 0.929 . S
C384 C376 1.433 . S
C384 N386 1.384 . S
N385 C381 1.427 . S
N385 C382 1.384 . S
N386 C378 1.427 . S
N386 C384 1.384 . S
H387 C393 0.930 . S
H388 C397 0.930 . S
H389 C402 0.929 . S
H390 C400 0.929 . S
H391 C395 0.929 . S
H392 C401 0.929 . S
C393 H387 0.930 . S
C393 C394 1.367 . S
C393 C401 1.378 . S
C394 C393 1.367 . S
C394 C402 1.433 . S
C395 H391 0.929 . S
C395 C397 1.378 . S
C395 C399 1.350 . S
C396 C399 1.463 . S
C396 C401 1.350 . S
C396 N404 1.427 . S
C397 H388 0.930 . S
C397 C395 1.378 . S
C397 C398 1.367 . S
C398 C397 1.367 . S
C398 C400 1.433 . S
C399 C395 1.350 . S
C399 C396 1.463 . S
C399 N403 1.427 . S
C400 H390 0.929 . S
C400 C398 1.433 . S
C400 N403 1.384 . S
C401 H392 0.929 . S
C401 C393 1.378 . S
C401 C396 1.350 . S
C402 H389 0.929 . S
C402 C394 1.433 . S
C402 N404 1.384 . S
N403 C399 1.427 . S
N403 C400 1.384 . S
N404 C396 1.427 . S
N404 C402 1.384 . S
H405 C411 0.930 . S
H406 C415 0.930 . S
H407 C420 0.929 . S
H408 C418 0.929 . S
H409 C413 0.929 . S
H410 C419 0.929 . S
C411 H405 0.930 . S
C411 C412 1.367 . S
C411 C419 1.378 . S
C412 C411 1.367 . S
C412 C420 1.433 . S
C413 H409 0.929 . S
C413 C415 1.378 . S
C413 C417 1.350 . S
C414 C417 1.463 . S
C414 C419 1.350 . S
C414 N422 1.427 . S
C415 H406 0.930 . S
C415 C413 1.378 . S
C415 C416 1.367 . S
C416 C415 1.367 . S
C416 C418 1.433 . S
C417 C413 1.350 . S
C417 C414 1.463 . S
C417 N421 1.427 . S
C418 H408 0.929 . S
C418 C416 1.433 . S
C418 N421 1.384 . S
C419 H410 0.929 . S
C419 C411 1.378 . S
C419 C414 1.350 . S
C420 H407 0.929 . S
C420 C412 1.433 . S
C420 N422 1.384 . S
N421 C417 1.427 . S
N421 C418 1.384 . S
N422 C414 1.427 . S
N422 C420 1.384 . S
H423 C429 0.930 . S
H424 C433 0.930 . S
H425 C438 0.929 . S
H426 C436 0.929 . S
H427 C431 0.929 . S
H428 C437 0.929 . S
C429 H423 0.930 . S
C429 C430 1.367 . S
C429 C437 1.378 . S
C430 C429 1.367 . S
C430 C438 1.433 . S
C431 H427 0.929 . S
C431 C433 1.378 . S
C431 C435 1.350 . S
C432 C435 1.463 . S
C432 C437 1.350 . S
C432 N440 1.427 . S
C433 H424 0.930 . S
C433 C431 1.378 . S
C433 C434 1.367 . S
C434 C433 1.367 . S
C434 C436 1.433 . S
C435 C431 1.350 . S
C435 C432 1.463 . S
C435 N439 1.427 . S
C436 H426 0.929 . S
C436 C434 1.433 . S
C436 N439 1.384 . S
C437 H428 0.929 . S
C437 C429 1.378 . S
C437 C432 1.350 . S
C438 H425 0.929 . S
C438 C430 1.433 . S
C438 N440 1.384 . S
N439 C435 1.427 . S
N439 C436 1.384 . S
N440 C432 1.427 . S
N440 C438 1.384 . S
H441 C447 0.930 . S
H442 C451 0.930 . S
H443 C456 0.929 . S
H444 C454 0.929 . S
H445 C449 0.929 . S
H446 C455 0.929 . S
C447 H441 0.930 . S
C447 C448 1.367 . S
C447 C455 1.378 . S
C448 C447 1.367 . S
C448 C456 1.433 . S
C449 H445 0.929 . S
C449 C451 1.378 . S
C449 C453 1.350 . S
C450 C453 1.463 . S
C450 C455 1.350 . S
C450 N458 1.427 . S
C451 H442 0.930 . S
C451 C449 1.378 . S
C451 C452 1.367 . S
C452 C451 1.367 . S
C452 C454 1.433 . S
C453 C449 1.350 . S
C453 C450 1.463 . S
C453 N457 1.427 . S
C454 H444 0.929 . S
C454 C452 1.433 . S
C454 N457 1.384 . S
C455 H446 0.929 . S
C455 C447 1.378 . S
C455 C450 1.350 . S
C456 H443 0.929 . S
C456 C448 1.433 . S
C456 N458 1.384 . S
N457 C453 1.427 . S
N457 C454 1.384 . S
N458 C450 1.427 . S
N458 C456 1.384 . S
H459 C465 0.930 . S
H460 C469 0.930 . S
H461 C474 0.929 . S
H462 C472 0.929 . S
H463 C467 0.929 . S
H464 C473 0.929 . S
C465 H459 0.930 . S
C465 C466 1.367 . S
C465 C473 1.378 . S
C466 C465 1.367 . S
C466 C474 1.433 . S
C467 H463 0.929 . S
C467 C469 1.378 . S
C467 C471 1.350 . S
C468 C471 1.463 . S
C468 C473 1.350 . S
C468 N476 1.427 . S
C469 H460 0.930 . S
C469 C467 1.378 . S
C469 C470 1.367 . S
C470 C469 1.367 . S
C470 C472 1.433 . S
C471 C467 1.350 . S
C471 C468 1.463 . S
C471 N475 1.427 . S
C472 H462 0.929 . S
C472 C470 1.433 . S
C472 N475 1.384 . S
C473 H464 0.929 . S
C473 C465 1.378 . S
C473 C468 1.350 . S
C474 H461 0.929 . S
C474 C466 1.433 . S
C474 N476 1.384 . S
N475 C471 1.427 . S
N475 C472 1.384 . S
N476 C468 1.427 . S
N476 C474 1.384 . S
H477 C483 0.930 . S
H478 C487 0.930 1_556 S
H479 C492 0.929 . S
H480 C490 0.908 1_556 S
H481 C485 0.929 . S
H482 C491 0.929 . S
C483 H477 0.930 . S
C483 C484 1.367 1_655 S
C483 C491 1.378 . S
C484 C483 1.367 1_455 S
C484 C492 1.433 . S
C485 H481 0.929 . S
C485 C487 1.378 . S
C485 C489 1.350 . S
C486 C489 1.463 . S
C486 C491 1.350 1_455 S
C486 N494 1.427 . S
C487 H478 0.930 1_554 S
C487 C485 1.378 . S
C487 C488 1.367 1_554 S
C488 C487 1.367 1_556 S
C488 C490 1.417 1_456 S
C489 C485 1.350 . S
C489 C486 1.463 . S
C489 N493 1.427 1_455 S
C490 H480 0.908 1_554 S
C490 C488 1.417 1_654 S
C490 N493 1.424 . S
C491 H482 0.929 . S
C491 C483 1.378 . S
C491 C486 1.350 1_655 S
C492 H479 0.929 . S
C492 C484 1.433 . S
C492 N494 1.384 . S
N493 C489 1.427 1_655 S
N493 C490 1.424 . S
N494 C486 1.427 . S
N494 C492 1.384 . S
H495 C501 0.930 . S
H496 C505 0.930 . S
H497 C510 0.929 . S
H498 C508 0.929 . S
H499 C503 0.929 . S
H500 C509 0.929 . S
C501 H495 0.930 . S
C501 C502 1.367 . S
C501 C509 1.378 . S
C502 C501 1.367 . S
C502 C510 1.433 1_545 S
C503 H499 0.929 . S
C503 C505 1.378 . S
C503 C507 1.350 1_565 S
C504 C507 1.463 . S
C504 C509 1.350 . S
C504 N512 1.427 1_545 S
C505 H496 0.930 . S
C505 C503 1.378 . S
C505 C506 1.367 1_565 S
C506 C505 1.367 1_545 S
C506 C508 1.433 . S
C507 C503 1.350 1_545 S
C507 C504 1.463 . S
C507 N511 1.427 . S
C508 H498 0.929 . S
C508 C506 1.433 . S
C508 N511 1.384 . S
C509 H500 0.929 . S
C509 C501 1.378 . S
C509 C504 1.350 . S
C510 H497 0.929 . S
C510 C502 1.433 1_565 S
C510 N512 1.384 . S
N511 C507 1.427 . S
N511 C508 1.384 . S
N512 C504 1.427 1_565 S
N512 C510 1.384 . S
H513 C519 0.930 . S
H514 C523 0.930 . S
H515 C528 0.929 . S
H516 C526 0.929 . S
H517 C521 0.929 . S
H518 C527 0.929 . S
C519 H513 0.930 . S
C519 C520 1.367 . S
C519 C527 1.378 . S
C520 C519 1.367 . S
C520 C528 1.433 . S
C521 H517 0.929 . S
C521 C523 1.378 . S
C521 C525 1.350 . S
C522 C525 1.463 . S
C522 C527 1.350 . S
C522 N530 1.427 . S
C523 H514 0.930 . S
C523 C521 1.378 . S
C523 C524 1.367 . S
C524 C523 1.367 . S
C524 C526 1.433 . S
C525 C521 1.350 . S
C525 C522 1.463 . S
C525 N529 1.427 . S
C526 H516 0.929 . S
C526 C524 1.433 . S
C526 N529 1.384 . S
C527 H518 0.929 . S
C527 C519 1.378 . S
C527 C522 1.350 . S
C528 H515 0.929 . S
C528 C520 1.433 . S
C528 N530 1.384 . S
N529 C525 1.427 . S
N529 C526 1.384 . S
N530 C522 1.427 . S
N530 C528 1.384 . S
H531 C537 0.930 . S
H532 C541 0.930 . S
H533 C546 0.929 . S
H534 C544 0.929 . S
H535 C539 0.929 . S
H536 C545 0.929 . S
C537 H531 0.930 . S
C537 C538 1.367 1_565 S
C537 C545 1.378 . S
C538 C537 1.367 1_545 S
C538 C546 1.433 . S
C539 H535 0.929 . S
C539 C541 1.378 . S
C539 C543 1.350 . S
C540 C543 1.463 . S
C540 C545 1.350 1_545 S
C540 N548 1.427 . S
C541 H532 0.930 . S
C541 C539 1.378 . S
C541 C542 1.367 . S
C542 C541 1.367 . S
C542 C544 1.433 1_545 S
C543 C539 1.350 . S
C543 C540 1.463 . S
C543 N547 1.427 1_545 S
C544 H534 0.929 . S
C544 C542 1.433 1_565 S
C544 N547 1.384 . S
C545 H536 0.929 . S
C545 C537 1.378 . S
C545 C540 1.350 1_565 S
C546 H533 0.929 . S
C546 C538 1.433 . S
C546 N548 1.384 . S
N547 C543 1.427 1_565 S
N547 C544 1.384 . S
N548 C540 1.427 . S
N548 C546 1.384 . S
H549 C555 0.930 . S
H550 C559 0.930 1_554 S
H551 C564 0.929 . S
H552 C562 0.906 1_554 S
H553 C557 0.929 . S
H554 C563 0.929 . S
C555 H549 0.930 . S
C555 C556 1.367 . S
C555 C563 1.378 . S
C556 C555 1.367 . S
C556 C564 1.433 . S
C557 H553 0.929 . S
C557 C559 1.378 . S
C557 C561 1.350 . S
C558 C561 1.463 . S
C558 C563 1.350 . S
C558 N566 1.427 . S
C559 H550 0.930 1_556 S
C559 C557 1.378 . S
C559 C560 1.367 1_556 S
C560 C559 1.367 1_554 S
C560 C562 1.415 1_554 S
C561 C557 1.350 . S
C561 C558 1.463 . S
C561 N565 1.427 . S
C562 H552 0.906 1_556 S
C562 C560 1.415 1_556 S
C562 N565 1.428 . S
C563 H554 0.929 . S
C563 C555 1.378 . S
C563 C558 1.350 . S
C564 H551 0.929 . S
C564 C556 1.433 . S
C564 N566 1.384 . S
N565 C561 1.427 . S
N565 C562 1.428 . S
N566 C558 1.427 . S
N566 C564 1.384 . S
H567 C573 0.930 . S
H568 C577 0.930 . S
H569 C582 0.929 . S
H570 C580 0.929 . S
H571 C575 0.929 . S
H572 C581 0.929 . S
C573 H567 0.930 . S
C573 C574 1.367 . S
C573 C581 1.378 . S
C574 C573 1.367 . S
C574 C582 1.433 1_455 S
C575 H571 0.929 . S
C575 C577 1.378 . S
C575 C579 1.350 1_655 S
C576 C579 1.463 . S
C576 C581 1.350 . S
C576 N584 1.427 1_455 S
C577 H568 0.930 . S
C577 C575 1.378 . S
C577 C578 1.367 1_655 S
C578 C577 1.367 1_455 S
C578 C580 1.433 . S
C579 C575 1.350 1_455 S
C579 C576 1.463 . S
C579 N583 1.427 . S
C580 H570 0.929 . S
C580 C578 1.433 . S
C580 N583 1.384 . S
C581 H572 0.929 . S
C581 C573 1.378 . S
C581 C576 1.350 . S
C582 H569 0.929 . S
C582 C574 1.433 1_655 S
C582 N584 1.384 . S
N583 C579 1.427 . S
N583 C580 1.384 . S
N584 C576 1.427 1_655 S
N584 C582 1.384 . S
C268 C20 1.173 . S
C272 C252 1.176 . S
C286 C41 1.257 . S
C290 C188 1.221 . S
C304 C64 1.280 . S
C308 C220 1.237 . S
C322 C19 1.240 . S
C326 C246 1.300 . S
C344 C182 1.237 . S
C340 C44 1.236 . S
C362 C214 1.218 . S
C358 C67 1.224 . S
C376 C43 1.185 . S
C380 C124 1.191 . S
C394 C66 1.173 . S
C398 C156 1.178 . S
C412 C21 1.234 . S
C416 C86 1.241 . S
C434 C118 1.255 . S
C430 C42 1.219 . S
C452 C150 1.296 . S
C448 C65 1.252 . S
C466 C18 1.257 . S
C470 C92 1.218 . S
C488 C162 1.437 . S
C484 C17 1.466 . S
C502 C39 1.463 . S
C506 C98 1.434 . S
C520 C62 1.481 . S
C524 C130 1.459 . S
C542 C226 1.420 . S
C538 C40 1.447 . S
C560 C258 1.438 . S
C556 C63 1.466 . S
C574 C16 1.463 . S
C578 C194 1.437 . S
