# Generated by pormake.
# Topology ptr, (4,4)-cn, num edge types: 1
# Building blocks:
#     Node 0, Type 0, BuildingBlock: UXUYUI_clean_sbu_0, # of connection points: 4
#     Node 1, Type 0, BuildingBlock: UXUYUI_clean_sbu_0, # of connection points: 4
#     Node 2, Type 0, BuildingBlock: UXUYUI_clean_sbu_0, # of connection points: 4
#     Node 3, Type 0, BuildingBlock: UXUYUI_clean_sbu_0, # of connection points: 4
#     Node 4, Type 0, BuildingBlock: UXUYUI_clean_sbu_0, # of connection points: 4
#     Node 5, Type 0, BuildingBlock: UXUYUI_clean_sbu_0, # of connection points: 4
#     Node 6, Type 0, BuildingBlock: UXUYUI_clean_sbu_0, # of connection points: 4
#     Node 7, Type 0, BuildingBlock: UXUYUI_clean_sbu_0, # of connection points: 4
#     Node 8, Type 0, BuildingBlock: UXUYUI_clean_sbu_0, # of connection points: 4
#     Node 9, Type 0, BuildingBlock: UXUYUI_clean_sbu_0, # of connection points: 4
#     Node 10, Type 0, BuildingBlock: UXUYUI_clean_sbu_0, # of connection points: 4
#     Node 11, Type 0, BuildingBlock: UXUYUI_clean_sbu_0, # of connection points: 4
#     Node 12, Type 0, BuildingBlock: UXUYUI_clean_sbu_0, # of connection points: 4
#     Node 13, Type 0, BuildingBlock: UXUYUI_clean_sbu_0, # of connection points: 4
#     Node 14, Type 0, BuildingBlock: UXUYUI_clean_sbu_0, # of connection points: 4
#     Node 15, Type 0, BuildingBlock: UXUYUI_clean_sbu_0, # of connection points: 4
#     Node 16, Type 0, BuildingBlock: UXUYUI_clean_sbu_0, # of connection points: 4
#     Node 17, Type 0, BuildingBlock: UXUYUI_clean_sbu_0, # of connection points: 4
#     Node 18, Type 1, BuildingBlock: AZAVOO_clean_linker_0, # of connection points: 4
#     Node 19, Type 1, BuildingBlock: AZAVOO_clean_linker_0, # of connection points: 4
#     Node 20, Type 1, BuildingBlock: AZAVOO_clean_linker_0, # of connection points: 4
#     Node 21, Type 1, BuildingBlock: AZAVOO_clean_linker_0, # of connection points: 4
#     Node 22, Type 1, BuildingBlock: AZAVOO_clean_linker_0, # of connection points: 4
#     Node 23, Type 1, BuildingBlock: AZAVOO_clean_linker_0, # of connection points: 4
#     Node 24, Type 1, BuildingBlock: AZAVOO_clean_linker_0, # of connection points: 4
#     Node 25, Type 1, BuildingBlock: AZAVOO_clean_linker_0, # of connection points: 4
#     Node 26, Type 1, BuildingBlock: AZAVOO_clean_linker_0, # of connection points: 4
#     Node 27, Type 1, BuildingBlock: AZAVOO_clean_linker_0, # of connection points: 4
#     Node 28, Type 1, BuildingBlock: AZAVOO_clean_linker_0, # of connection points: 4
#     Node 29, Type 1, BuildingBlock: AZAVOO_clean_linker_0, # of connection points: 4
#     Node 30, Type 1, BuildingBlock: AZAVOO_clean_linker_0, # of connection points: 4
#     Node 31, Type 1, BuildingBlock: AZAVOO_clean_linker_0, # of connection points: 4
#     Node 32, Type 1, BuildingBlock: AZAVOO_clean_linker_0, # of connection points: 4
#     Node 33, Type 1, BuildingBlock: AZAVOO_clean_linker_0, # of connection points: 4
#     Node 34, Type 1, BuildingBlock: AZAVOO_clean_linker_0, # of connection points: 4
#     Node 35, Type 1, BuildingBlock: AZAVOO_clean_linker_0, # of connection points: 4
#     Edge 36, Type (0, 1), BuildingBlock: TEMPAE_clean_linker_10, # of connection points: 2
#     Edge 37, Type (0, 1), BuildingBlock: TEMPAE_clean_linker_10, # of connection points: 2
#     Edge 38, Type (0, 1), BuildingBlock: TEMPAE_clean_linker_10, # of connection points: 2
#     Edge 39, Type (0, 1), BuildingBlock: TEMPAE_clean_linker_10, # of connection points: 2
#     Edge 40, Type (0, 1), BuildingBlock: TEMPAE_clean_linker_10, # of connection points: 2
#     Edge 41, Type (0, 1), BuildingBlock: TEMPAE_clean_linker_10, # of connection points: 2
#     Edge 42, Type (0, 1), BuildingBlock: TEMPAE_clean_linker_10, # of connection points: 2
#     Edge 43, Type (0, 1), BuildingBlock: TEMPAE_clean_linker_10, # of connection points: 2
#     Edge 44, Type (0, 1), BuildingBlock: TEMPAE_clean_linker_10, # of connection points: 2
#     Edge 45, Type (0, 1), BuildingBlock: TEMPAE_clean_linker_10, # of connection points: 2
#     Edge 46, Type (0, 1), BuildingBlock: TEMPAE_clean_linker_10, # of connection points: 2
#     Edge 47, Type (0, 1), BuildingBlock: TEMPAE_clean_linker_10, # of connection points: 2
#     Edge 48, Type (0, 1), BuildingBlock: TEMPAE_clean_linker_10, # of connection points: 2
#     Edge 49, Type (0, 1), BuildingBlock: TEMPAE_clean_linker_10, # of connection points: 2
#     Edge 50, Type (0, 1), BuildingBlock: TEMPAE_clean_linker_10, # of connection points: 2
#     Edge 51, Type (0, 1), BuildingBlock: TEMPAE_clean_linker_10, # of connection points: 2
#     Edge 52, Type (0, 1), BuildingBlock: TEMPAE_clean_linker_10, # of connection points: 2
#     Edge 53, Type (0, 1), BuildingBlock: TEMPAE_clean_linker_10, # of connection points: 2
#     Edge 54, Type (0, 1), BuildingBlock: TEMPAE_clean_linker_10, # of connection points: 2
#     Edge 55, Type (0, 1), BuildingBlock: TEMPAE_clean_linker_10, # of connection points: 2
#     Edge 56, Type (0, 1), BuildingBlock: TEMPAE_clean_linker_10, # of connection points: 2
#     Edge 57, Type (0, 1), BuildingBlock: TEMPAE_clean_linker_10, # of connection points: 2
#     Edge 58, Type (0, 1), BuildingBlock: TEMPAE_clean_linker_10, # of connection points: 2
#     Edge 59, Type (0, 1), BuildingBlock: TEMPAE_clean_linker_10, # of connection points: 2
#     Edge 60, Type (0, 1), BuildingBlock: TEMPAE_clean_linker_10, # of connection points: 2
#     Edge 61, Type (0, 1), BuildingBlock: TEMPAE_clean_linker_10, # of connection points: 2
#     Edge 62, Type (0, 1), BuildingBlock: TEMPAE_clean_linker_10, # of connection points: 2
#     Edge 63, Type (0, 1), BuildingBlock: TEMPAE_clean_linker_10, # of connection points: 2
#     Edge 64, Type (0, 1), BuildingBlock: TEMPAE_clean_linker_10, # of connection points: 2
#     Edge 65, Type (0, 1), BuildingBlock: TEMPAE_clean_linker_10, # of connection points: 2
#     Edge 66, Type (0, 1), BuildingBlock: TEMPAE_clean_linker_10, # of connection points: 2
#     Edge 67, Type (0, 1), BuildingBlock: TEMPAE_clean_linker_10, # of connection points: 2
#     Edge 68, Type (0, 1), BuildingBlock: TEMPAE_clean_linker_10, # of connection points: 2
#     Edge 69, Type (0, 1), BuildingBlock: TEMPAE_clean_linker_10, # of connection points: 2
#     Edge 70, Type (0, 1), BuildingBlock: TEMPAE_clean_linker_10, # of connection points: 2
#     Edge 71, Type (0, 1), BuildingBlock: TEMPAE_clean_linker_10, # of connection points: 2
#     Edge 72, Type (0, 1), BuildingBlock: TEMPAE_clean_linker_10, # of connection points: 2
#     Edge 73, Type (0, 1), BuildingBlock: TEMPAE_clean_linker_10, # of connection points: 2
#     Edge 74, Type (0, 1), BuildingBlock: TEMPAE_clean_linker_10, # of connection points: 2
#     Edge 75, Type (0, 1), BuildingBlock: TEMPAE_clean_linker_10, # of connection points: 2
#     Edge 76, Type (0, 1), BuildingBlock: TEMPAE_clean_linker_10, # of connection points: 2
#     Edge 77, Type (0, 1), BuildingBlock: TEMPAE_clean_linker_10, # of connection points: 2
#     Edge 78, Type (0, 1), BuildingBlock: TEMPAE_clean_linker_10, # of connection points: 2
#     Edge 79, Type (0, 1), BuildingBlock: TEMPAE_clean_linker_10, # of connection points: 2
#     Edge 80, Type (0, 1), BuildingBlock: TEMPAE_clean_linker_10, # of connection points: 2
#     Edge 81, Type (0, 1), BuildingBlock: TEMPAE_clean_linker_10, # of connection points: 2
#     Edge 82, Type (0, 1), BuildingBlock: TEMPAE_clean_linker_10, # of connection points: 2
#     Edge 83, Type (0, 1), BuildingBlock: TEMPAE_clean_linker_10, # of connection points: 2
#     Edge 84, Type (0, 1), BuildingBlock: TEMPAE_clean_linker_10, # of connection points: 2
#     Edge 85, Type (0, 1), BuildingBlock: TEMPAE_clean_linker_10, # of connection points: 2
#     Edge 86, Type (0, 1), BuildingBlock: TEMPAE_clean_linker_10, # of connection points: 2
#     Edge 87, Type (0, 1), BuildingBlock: TEMPAE_clean_linker_10, # of connection points: 2
#     Edge 88, Type (0, 1), BuildingBlock: TEMPAE_clean_linker_10, # of connection points: 2
#     Edge 89, Type (0, 1), BuildingBlock: TEMPAE_clean_linker_10, # of connection points: 2
#     Edge 90, Type (0, 1), BuildingBlock: TEMPAE_clean_linker_10, # of connection points: 2
#     Edge 91, Type (0, 1), BuildingBlock: TEMPAE_clean_linker_10, # of connection points: 2
#     Edge 92, Type (0, 1), BuildingBlock: TEMPAE_clean_linker_10, # of connection points: 2
#     Edge 93, Type (0, 1), BuildingBlock: TEMPAE_clean_linker_10, # of connection points: 2
#     Edge 94, Type (0, 1), BuildingBlock: TEMPAE_clean_linker_10, # of connection points: 2
#     Edge 95, Type (0, 1), BuildingBlock: TEMPAE_clean_linker_10, # of connection points: 2
#     Edge 96, Type (0, 1), BuildingBlock: TEMPAE_clean_linker_10, # of connection points: 2
#     Edge 97, Type (0, 1), BuildingBlock: TEMPAE_clean_linker_10, # of connection points: 2
#     Edge 98, Type (0, 1), BuildingBlock: TEMPAE_clean_linker_10, # of connection points: 2
#     Edge 99, Type (0, 1), BuildingBlock: TEMPAE_clean_linker_10, # of connection points: 2
#     Edge 100, Type (0, 1), BuildingBlock: TEMPAE_clean_linker_10, # of connection points: 2
#     Edge 101, Type (0, 1), BuildingBlock: TEMPAE_clean_linker_10, # of connection points: 2
#     Edge 102, Type (0, 1), BuildingBlock: TEMPAE_clean_linker_10, # of connection points: 2
#     Edge 103, Type (0, 1), BuildingBlock: TEMPAE_clean_linker_10, # of connection points: 2
#     Edge 104, Type (0, 1), BuildingBlock: TEMPAE_clean_linker_10, # of connection points: 2
#     Edge 105, Type (0, 1), BuildingBlock: TEMPAE_clean_linker_10, # of connection points: 2
#     Edge 106, Type (0, 1), BuildingBlock: TEMPAE_clean_linker_10, # of connection points: 2
#     Edge 107, Type (0, 1), BuildingBlock: TEMPAE_clean_linker_10, # of connection points: 2
# Relax obj value: 0.130
# Max RMSD: 0.319
# Mean RMSD: 0.191
data_MOF--net-ptr--node1-UXUYUI_clean_sbu_0--node2-AZAVOO_clean_linker_0--edge1-TEMPAE_clean_linker_10
_symmetry_space_group_name_H-M    P1
_symmetry_Int_Tables_number       1
_symmetry_cell_setting            triclinic
loop_
_symmetry_equiv_pos_as_xyz
'x, y, z'
_cell_length_a     99.060356
_cell_length_b     98.181347
_cell_length_c     80.81066
_cell_angle_alpha  92.542096
_cell_angle_beta   92.27102
_cell_angle_gamma 120.28036
loop_
_atom_site_label
_atom_site_type_symbol
_atom_site_fract_x
_atom_site_fract_y
_atom_site_fract_z
_atom_type_partial_charge
Li0 Li 0.99202 0.34601 0.00952 0.0
Li1 Li 0.01891 0.35999 0.02513 0.0
Li2 Li 0.00083 0.36937 0.0283 0.0
Li3 Li 0.01243 0.37205 0.00295 0.0
C4 C 0.99298 0.34762 0.04946 0.0
N5 N 0.98345 0.34698 0.08123 0.0
C6 C 0.00406 0.35411 0.06305 0.0
C7 C 0.97704 0.34068 0.05204 0.0
C8 C 0.99901 0.35369 0.07901 0.0
C9 C 0.97247 0.34051 0.06819 0.0
C10 C 0.02226 0.35508 0.98844 0.0
C11 C 0.04788 0.36737 0.97781 0.0
N12 N 0.04108 0.36253 0.96208 0.0
C13 C 0.01551 0.35018 0.97219 0.0
C14 C 0.03856 0.36372 0.99131 0.0
C15 C 0.02524 0.35408 0.95902 0.0
C16 C 0.97096 0.32411 0.98435 0.0
N17 N 0.9761 0.32592 0.00057 0.0
C18 C 0.96013 0.29822 0.0033 0.0
C19 C 0.97086 0.31344 0.01014 0.0
C20 C 0.95491 0.29586 0.98642 0.0
C21 C 0.96032 0.30909 0.97696 0.0
H22 H 0.97543 0.33432 0.97708 0.0
H23 H 0.97524 0.3153 0.023 0.0
C24 C 0.04745 0.36697 0.04299 0.0
N25 N 0.03322 0.35554 0.03606 0.0
C26 C 0.05694 0.3628 0.05212 0.0
C27 C 0.03694 0.33526 0.0466 0.0
C28 C 0.02791 0.33995 0.03756 0.0
C29 C 0.05159 0.34676 0.05418 0.0
H30 H 0.05126 0.37928 0.0417 0.0
H31 H 0.01648 0.33118 0.03195 0.0
C32 C 0.97605 0.3639 0.00474 0.0
N33 N 0.94742 0.36241 0.00227 0.0
C34 C 0.97488 0.37639 0.99862 0.0
C35 C 0.96261 0.35056 0.0094 0.0
C36 C 0.96032 0.37545 0.99754 0.0
C37 C 0.94826 0.35005 0.0081 0.0
C38 C 0.02897 0.39793 0.02532 0.0
C39 C 0.01907 0.40326 0.01957 0.0
C40 C 0.04428 0.4089 0.03145 0.0
C41 C 0.02466 0.41949 0.02005 0.0
C42 C 0.04944 0.42504 0.03173 0.0
N43 N 0.03961 0.42996 0.02607 0.0
C44 C 0.00682 0.3889 0.05695 0.0
C45 C 0.98067 0.37809 0.0458 0.0
C46 C 0.00452 0.39755 0.06951 0.0
N47 N 0.99509 0.37964 0.04519 0.0
C48 C 0.97779 0.38643 0.05828 0.0
C49 C 0.98991 0.39649 0.07018 0.0
H50 H 0.01804 0.38959 0.05658 0.0
H51 H 0.97135 0.37043 0.03669 0.0
C52 C 0.00835 0.38182 0.97258 0.0
N53 N 0.0196 0.38481 0.98469 0.0
C54 C 0.01176 0.39169 0.95963 0.0
C55 C 0.03851 0.4072 0.97142 0.0
C56 C 0.03457 0.39696 0.98418 0.0
C57 C 0.02692 0.40479 0.95911 0.0
H58 H 0.99656 0.37204 0.97332 0.0
H59 H 0.0433 0.39899 0.99395 0.0
O60 O 0.99774 0.34835 0.03371 0.0
O61 O 0.01297 0.35187 0.00146 0.0
O62 O 0.99019 0.36454 0.00553 0.0
O63 O 0.02384 0.38208 0.02485 0.0
H64 H 0.01645 0.35961 0.06126 0.0
H65 H 0.96831 0.33556 0.04168 0.0
H66 H 0.00747 0.35877 0.08963 0.0
H67 H 0.96018 0.33526 0.07037 0.0
H68 H 0.06052 0.37411 0.97983 0.0
H69 H 0.00291 0.34357 0.96976 0.0
H70 H 0.04395 0.36772 0.00381 0.0
H71 H 0.02019 0.35043 0.94637 0.0
H72 H 0.95607 0.28841 0.01112 0.0
H73 H 0.95676 0.30782 0.96388 0.0
H74 H 0.06811 0.37202 0.05789 0.0
H75 H 0.03249 0.32277 0.0477 0.0
H76 H 0.98511 0.3867 0.99469 0.0
H77 H 0.96324 0.34079 0.01416 0.0
H78 H 0.95926 0.38506 0.99289 0.0
H79 H 0.93779 0.33985 0.01177 0.0
H80 H 0.00721 0.39497 0.01481 0.0
H81 H 0.05212 0.40498 0.03591 0.0
H82 H 0.01711 0.42376 0.01564 0.0
H83 H 0.06128 0.43366 0.03644 0.0
H84 H 0.01406 0.40488 0.0787 0.0
H85 H 0.96632 0.38525 0.05846 0.0
H86 H 0.00239 0.38949 0.95058 0.0
H87 H 0.05037 0.41707 0.97138 0.0
Li88 Li 0.64465 0.6302 0.0545 0.0
Li89 Li 0.63275 0.64245 0.07022 0.0
Li90 Li 0.62318 0.61394 0.07223 0.0
Li91 Li 0.61682 0.62373 0.04753 0.0
C92 C 0.65451 0.62891 0.08742 0.0
N93 N 0.67462 0.62164 0.10426 0.0
C94 C 0.66576 0.63979 0.09948 0.0
C95 C 0.65338 0.61428 0.08408 0.0
C96 C 0.67586 0.63591 0.10781 0.0
C97 C 0.66367 0.61083 0.09268 0.0
C98 C 0.64336 0.6597 0.04478 0.0
C99 C 0.64084 0.68257 0.04099 0.0
N100 N 0.65671 0.69195 0.04289 0.0
C101 C 0.65964 0.66955 0.04656 0.0
C102 C 0.63387 0.66623 0.04184 0.0
C103 C 0.66616 0.68583 0.0456 0.0
C104 C 0.6622 0.63093 0.02823 0.0
N105 N 0.66331 0.63418 0.04491 0.0
C106 C 0.69114 0.64591 0.04603 0.0
C107 C 0.67738 0.64149 0.05389 0.0
C108 C 0.69038 0.64302 0.02876 0.0
C109 C 0.67567 0.63527 0.01984 0.0
H110 H 0.65086 0.62534 0.0214 0.0
H111 H 0.67805 0.64447 0.06702 0.0
C112 C 0.62806 0.66659 0.08537 0.0
N113 N 0.63852 0.66191 0.0821 0.0
C114 C 0.63321 0.68148 0.09336 0.0
C115 C 0.65969 0.68622 0.09468 0.0
C116 C 0.65404 0.67131 0.08665 0.0
C117 C 0.64924 0.69152 0.09806 0.0
H118 H 0.61578 0.65886 0.08164 0.0
H119 H 0.6621 0.66734 0.08363 0.0
C120 C 0.62343 0.59516 0.04278 0.0
N121 N 0.61943 0.5666 0.03012 0.0
C122 C 0.60868 0.58308 0.03627 0.0
C123 C 0.63621 0.59277 0.04254 0.0
C124 C 0.60687 0.56871 0.03003 0.0
C125 C 0.63393 0.57824 0.03617 0.0
C126 C 0.59557 0.62096 0.06864 0.0
C127 C 0.58377 0.60681 0.07417 0.0
C128 C 0.59159 0.63106 0.06096 0.0
C129 C 0.56815 0.60291 0.07171 0.0
C130 C 0.57583 0.62673 0.05871 0.0
N131 N 0.56454 0.61285 0.06408 0.0
C132 C 0.62008 0.60033 0.10285 0.0
C133 C 0.60336 0.58244 0.08058 0.0
C134 C 0.61344 0.58857 0.11397 0.0
N135 N 0.61498 0.59708 0.08651 0.0
C136 C 0.59626 0.57037 0.09129 0.0
C137 C 0.6012 0.57343 0.10825 0.0
H138 H 0.62902 0.61218 0.10736 0.0
H139 H 0.59915 0.58029 0.06768 0.0
C140 C 0.60612 0.62686 0.01592 0.0
N141 N 0.60168 0.6181 0.02933 0.0
C142 C 0.59613 0.62206 0.00148 0.0
C143 C 0.57701 0.59955 0.0151 0.0
C144 C 0.58734 0.60482 0.02928 0.0
C145 C 0.58151 0.60803 0.00084 0.0
H146 H 0.61767 0.63724 0.0162 0.0
H147 H 0.58413 0.59797 0.04003 0.0
O148 O 0.64458 0.63259 0.07911 0.0
O149 O 0.63673 0.64379 0.04614 0.0
O150 O 0.62549 0.60945 0.04864 0.0
O151 O 0.61092 0.62493 0.07086 0.0
H152 H 0.66672 0.65111 0.10238 0.0
H153 H 0.64447 0.60558 0.07517 0.0
H154 H 0.68467 0.64424 0.11712 0.0
H155 H 0.66289 0.59953 0.0902 0.0
H156 H 0.63364 0.68779 0.03883 0.0
H157 H 0.66716 0.66471 0.04888 0.0
H158 H 0.62126 0.65877 0.04031 0.0
H159 H 0.67874 0.6936 0.04709 0.0
H160 H 0.7023 0.6521 0.05328 0.0
H161 H 0.67463 0.63278 0.00651 0.0
H162 H 0.62476 0.68509 0.09587 0.0
H163 H 0.67216 0.69368 0.09784 0.0
H164 H 0.59868 0.58469 0.03619 0.0
H165 H 0.64781 0.60204 0.04711 0.0
H166 H 0.59548 0.55924 0.02509 0.0
H167 H 0.64372 0.57625 0.03599 0.0
H168 H 0.58664 0.59893 0.08029 0.0
H169 H 0.60056 0.64204 0.05662 0.0
H170 H 0.5589 0.59197 0.07588 0.0
H171 H 0.57259 0.63438 0.05268 0.0
H172 H 0.61735 0.59148 0.12703 0.0
H173 H 0.58681 0.55885 0.08643 0.0
H174 H 0.60014 0.62883 0.99069 0.0
H175 H 0.56579 0.58874 0.01516 0.0
Li176 Li 0.3794 0.99288 0.00501 0.0
Li177 Li 0.38615 0.00237 0.03367 0.0
Li178 Li 0.35808 0.98238 0.02318 0.0
Li179 Li 0.3712 0.00995 0.01575 0.0
C180 C 0.37562 0.96572 0.02103 0.0
N181 N 0.37304 0.93656 0.01484 0.0
C182 C 0.38819 0.96359 0.02542 0.0
C183 C 0.36167 0.95296 0.0137 0.0
C184 C 0.38668 0.94878 0.02212 0.0
C185 C 0.36061 0.93833 0.01062 0.0
C186 C 0.40867 0.02018 0.013 0.0
C187 C 0.43499 0.04035 0.00813 0.0
N188 N 0.43993 0.02987 0.01037 0.0
C189 C 0.41401 0.00961 0.01526 0.0
C190 C 0.41923 0.03568 0.0094 0.0
C191 C 0.42985 0.01473 0.01388 0.0
C192 C 0.39481 0.0012 0.97589 0.0
N193 N 0.38748 0.98867 0.98534 0.0
C194 C 0.39323 0.9729 0.96675 0.0
C195 C 0.38639 0.9746 0.98091 0.0
C196 C 0.40119 0.98579 0.95702 0.0
C197 C 0.40179 4e-05 0.96167 0.0
H198 H 0.39538 0.01222 0.97951 0.0
H199 H 0.38032 0.96466 0.98827 0.0
C200 C 0.3972 0.99526 0.0618 0.0
N201 N 0.40028 0.00753 0.05247 0.0
C202 C 0.40665 0.9976 0.0761 0.0
C203 C 0.4224 0.02523 0.07091 0.0
C204 C 0.41257 0.02234 0.05666 0.0
C205 C 0.4194 0.01275 0.08088 0.0
H206 H 0.38732 0.98363 0.05813 0.0
H207 H 0.41467 0.0319 0.04902 0.0
C208 C 0.35586 0.9877 0.98454 0.0
N209 N 0.35207 0.9822 0.95039 0.0
C210 C 0.36071 0.00033 0.97445 0.0
C211 C 0.34896 0.97226 0.97728 0.0
C212 C 0.35871 0.9973 0.9572 0.0
C213 C 0.34719 0.96973 0.95998 0.0
C214 C 0.36226 0.01162 0.04579 0.0
C215 C 0.3464 0.00653 0.04697 0.0
C216 C 0.37365 0.0269 0.05193 0.0
C217 C 0.34217 0.01691 0.05419 0.0
C218 C 0.36895 0.03693 0.05904 0.0
N219 N 0.35344 0.03177 0.06001 0.0
C220 C 0.33902 0.96306 0.04627 0.0
C221 C 0.32541 0.96052 0.02043 0.0
C222 C 0.32493 0.9539 0.05347 0.0
N223 N 0.33895 0.96642 0.03017 0.0
C224 C 0.31101 0.95118 0.02711 0.0
C225 C 0.31069 0.9482 0.04397 0.0
H226 H 0.35002 0.96819 0.05372 0.0
H227 H 0.32578 0.96374 0.00775 0.0
C228 C 0.37716 0.04122 0.01092 0.0
N229 N 0.36617 0.02571 0.01157 0.0
C230 C 0.37257 0.05214 0.00724 0.0
C231 C 0.34553 0.0309 0.00534 0.0
C232 C 0.35063 0.02042 0.0089 0.0
C233 C 0.35655 0.04697 0.00435 0.0
H234 H 0.38945 0.04504 0.01312 0.0
H235 H 0.34221 0.00797 0.0094 0.0
O236 O 0.37682 0.98007 0.02443 0.0
O237 O 0.39321 0.0155 0.01424 0.0
O238 O 0.35809 0.99046 0.00143 0.0
O239 O 0.36662 0.0018 0.03836 0.0
H240 H 0.399 0.97326 0.03137 0.0
H241 H 0.3518 0.95435 0.01028 0.0
H242 H 0.39633 0.94698 0.02539 0.0
H243 H 0.34991 0.92838 0.00486 0.0
H244 H 0.44329 0.05231 0.00535 0.0
H245 H 0.40604 0.99758 0.01799 0.0
H246 H 0.41528 0.044 0.0076 0.0
H247 H 0.43413 0.00665 0.01559 0.0
H248 H 0.39229 0.96163 0.96347 0.0
H249 H 0.40793 0.01034 0.95465 0.0
H250 H 0.40407 0.98761 0.08328 0.0
H251 H 0.43205 0.0371 0.07424 0.0
H252 H 0.36615 0.01236 0.97987 0.0
H253 H 0.34511 0.96235 0.9849 0.0
H254 H 0.36251 0.00697 0.94924 0.0
H255 H 0.34195 0.95786 0.95419 0.0
H256 H 0.33745 0.99474 0.04221 0.0
H257 H 0.38598 0.03101 0.05102 0.0
H258 H 0.32994 0.01318 0.05511 0.0
H259 H 0.37762 0.04882 0.06376 0.0
H260 H 0.32513 0.95173 0.06648 0.0
H261 H 0.30026 0.94711 0.01945 0.0
H262 H 0.38141 0.06446 0.00662 0.0
H263 H 0.3331 0.02638 0.00291 0.0
Li264 Li 0.00975 0.65646 0.05508 0.0
Li265 Li 0.99108 0.62916 0.06092 0.0
Li266 Li 0.00456 0.63473 0.03442 0.0
Li267 Li 0.98362 0.64075 0.03862 0.0
C268 C 0.02918 0.6441 0.06235 0.0
N269 N 0.06028 0.65504 0.07182 0.0
C270 C 0.03337 0.64115 0.07793 0.0
C271 C 0.04077 0.65247 0.05153 0.0
C272 C 0.04916 0.64682 0.08251 0.0
C273 C 0.05644 0.65794 0.05655 0.0
C274 C 0.98091 0.64759 0.07656 0.0
C275 C 0.95724 0.63927 0.0906 0.0
N276 N 0.96602 0.64716 0.10488 0.0
C277 C 0.9897 0.65581 0.09131 0.0
C278 C 0.96456 0.63941 0.07613 0.0
C279 C 0.98195 0.65537 0.10552 0.0
C280 C 0.02358 0.6892 0.0579 0.0
N281 N 0.02414 0.67705 0.06466 0.0
C282 C 0.04325 0.69474 0.08588 0.0
C283 C 0.03365 0.67949 0.07843 0.0
C284 C 0.0428 0.7075 0.07926 0.0
C285 C 0.03286 0.70461 0.06504 0.0
H286 H 0.01569 0.68683 0.04711 0.0
H287 H 0.03348 0.66959 0.08392 0.0
C288 C 0.97594 0.59932 0.07458 0.0
N289 N 0.98485 0.6152 0.07824 0.0
C290 C 0.97347 0.58889 0.08687 0.0
C291 C 0.98908 0.61137 0.10654 0.0
C292 C 0.9913 0.62134 0.09386 0.0
C293 C 0.98037 0.59489 0.10304 0.0
H294 H 0.9714 0.5947 0.06194 0.0
H295 H 0.99882 0.63397 0.09631 0.0
C296 C 0.01229 0.66224 0.01744 0.0
N297 N 0.02754 0.67786 0.99039 0.0
C298 C 0.00388 0.65962 0.00219 0.0
C299 C 0.0284 0.67305 0.01902 0.0
C300 C 0.01182 0.66755 0.98863 0.0
C301 C 0.03591 0.68076 0.00518 0.0
C302 C 0.96765 0.60844 0.03155 0.0
C303 C 0.96577 0.60069 0.01596 0.0
C304 C 0.95455 0.60453 0.0405 0.0
C305 C 0.95073 0.58928 0.00948 0.0
C306 C 0.93971 0.59306 0.0336 0.0
N307 N 0.93812 0.58575 0.01835 0.0
C308 C 0.02136 0.62012 0.02338 0.0
C309 C 0.00824 0.62583 0.00206 0.0
C310 C 0.02595 0.61256 0.01176 0.0
N311 N 0.01268 0.62657 0.01835 0.0
C312 C 0.01256 0.6184 0.99004 0.0
C313 C 0.02138 0.61147 0.99485 0.0
H314 H 0.02432 0.6204 0.03645 0.0
H315 H 0.00074 0.63038 0.99847 0.0
C316 C 0.96582 0.6551 0.03397 0.0
N317 N 0.96792 0.64335 0.02751 0.0
C318 C 0.95615 0.65934 0.02535 0.0
C319 C 0.95065 0.63897 0.00381 0.0
C320 C 0.96054 0.63524 0.01277 0.0
C321 C 0.94858 0.65139 0.00992 0.0
H322 H 0.97215 0.66161 0.04552 0.0
H323 H 0.9628 0.62631 0.00762 0.0
O324 O 0.01378 0.63874 0.05774 0.0
O325 O 0.9883 0.64795 0.06251 0.0
O326 O 0.00467 0.6547 0.0309 0.0
O327 O 0.98227 0.61972 0.03803 0.0
H328 H 0.02453 0.63461 0.08643 0.0
H329 H 0.03769 0.65455 0.03932 0.0
H330 H 0.05259 0.64469 0.09455 0.0
H331 H 0.06553 0.66444 0.04829 0.0
H332 H 0.94459 0.63294 0.09046 0.0
H333 H 0.00237 0.66235 0.0918 0.0
H334 H 0.95758 0.63336 0.0647 0.0
H335 H 0.98861 0.66157 0.11706 0.0
H336 H 0.05057 0.69648 0.097 0.0
H337 H 0.03225 0.71417 0.05953 0.0
H338 H 0.96693 0.57629 0.08353 0.0
H339 H 0.99453 0.61653 0.11884 0.0
H340 H 0.99138 0.65144 0.0008 0.0
H341 H 0.03502 0.67559 0.03084 0.0
H342 H 0.00547 0.66553 0.97672 0.0
H343 H 0.04838 0.68911 0.00621 0.0
H344 H 0.9758 0.60352 0.00891 0.0
H345 H 0.95586 0.61022 0.05269 0.0
H346 H 0.94908 0.58325 0.99739 0.0
H347 H 0.92946 0.58994 0.04037 0.0
H348 H 0.03273 0.60736 0.016 0.0
H349 H 0.00842 0.61747 0.9772 0.0
H350 H 0.95516 0.66916 0.03043 0.0
H351 H 0.94494 0.6324 0.99207 0.0
Li352 Li 0.35533 0.37418 0.0088 0.0
Li353 Li 0.38194 0.37955 0.01645 0.0
Li354 Li 0.37576 0.38772 0.98946 0.0
Li355 Li 0.36668 0.35987 0.99322 0.0
C356 C 0.37185 0.40634 0.01847 0.0
N357 N 0.3652 0.42896 0.03036 0.0
C358 C 0.37709 0.41332 0.03463 0.0
C359 C 0.36339 0.41098 0.00829 0.0
C360 C 0.37356 0.4247 0.04043 0.0
C361 C 0.3601 0.42241 0.01454 0.0
C362 C 0.36147 0.35101 0.0299 0.0
C363 C 0.36772 0.33295 0.0427 0.0
N364 N 0.36077 0.33399 0.05651 0.0
C365 C 0.35419 0.35171 0.04411 0.0
C366 C 0.36812 0.3414 0.02909 0.0
C367 C 0.35405 0.3431 0.05748 0.0
C368 C 0.32285 0.35942 0.00967 0.0
N369 N 0.33657 0.37086 0.0176 0.0
C370 C 0.32305 0.37382 0.04001 0.0
C371 C 0.33691 0.37817 0.03242 0.0
C372 C 0.30872 0.3616 0.03245 0.0
C373 C 0.3087 0.3546 0.01689 0.0
H374 H 0.32299 0.35356 0.99808 0.0
H375 H 0.34798 0.38683 0.03875 0.0
C376 C 0.41201 0.39045 0.03313 0.0
N377 N 0.39664 0.38541 0.035 0.0
C378 C 0.42263 0.39527 0.04706 0.0
C379 C 0.40139 0.38965 0.06449 0.0
C380 C 0.39126 0.38511 0.05026 0.0
C381 C 0.41731 0.39486 0.06299 0.0
H382 H 0.41607 0.39097 0.02083 0.0
H383 H 0.37915 0.38171 0.05136 0.0
C384 C 0.34714 0.37013 0.97036 0.0
N385 N 0.33236 0.37184 0.94147 0.0
C386 C 0.34768 0.36271 0.95544 0.0
C387 C 0.33881 0.37814 0.97066 0.0
C388 C 0.34022 0.3638 0.94095 0.0
C389 C 0.33149 0.37894 0.95591 0.0
C390 C 0.39829 0.37263 0.98836 0.0
C391 C 0.40472 0.37682 0.97303 0.0
C392 C 0.40177 0.36316 0.99796 0.0
C393 C 0.41433 0.37123 0.96743 0.0
C394 C 0.41142 0.3578 0.99193 0.0
N395 N 0.41744 0.36189 0.97691 0.0
C396 C 0.39126 0.41889 0.97884 0.0
C397 C 0.38361 0.39839 0.95762 0.0
C398 C 0.39859 0.43035 0.96752 0.0
N399 N 0.38399 0.40326 0.97372 0.0
C400 C 0.39077 0.40943 0.9459 0.0
C401 C 0.39859 0.42566 0.95084 0.0
H402 H 0.39183 0.42247 0.9918 0.0
H403 H 0.37824 0.38593 0.95399 0.0
C404 C 0.34864 0.3272 0.98862 0.0
N405 N 0.36086 0.33991 0.98252 0.0
C406 C 0.34289 0.31208 0.98106 0.0
C407 C 0.36239 0.32339 0.96098 0.0
C408 C 0.3677 0.33833 0.96889 0.0
C409 C 0.34978 0.31 0.96702 0.0
H410 H 0.34317 0.32887 0.99923 0.0
H411 H 0.37705 0.34865 0.96394 0.0
O412 O 0.37509 0.39508 0.01264 0.0
O413 O 0.36171 0.35936 0.01669 0.0
O414 O 0.35426 0.36907 0.98469 0.0
O415 O 0.38877 0.37792 0.99398 0.0
H416 H 0.38374 0.40992 0.04264 0.0
H417 H 0.35951 0.40591 0.99567 0.0
H418 H 0.37746 0.43015 0.05294 0.0
H419 H 0.35353 0.4261 0.00681 0.0
H420 H 0.37287 0.32551 0.04227 0.0
H421 H 0.34884 0.35895 0.04488 0.0
H422 H 0.37338 0.34033 0.01801 0.0
H423 H 0.34858 0.34366 0.06861 0.0
H424 H 0.32361 0.37966 0.05192 0.0
H425 H 0.29799 0.34497 0.01072 0.0
H426 H 0.43485 0.39933 0.04541 0.0
H427 H 0.39692 0.38955 0.07652 0.0
H428 H 0.35391 0.3563 0.95504 0.0
H429 H 0.33787 0.38353 0.98218 0.0
H430 H 0.34066 0.35824 0.92928 0.0
H431 H 0.32505 0.38515 0.95594 0.0
H432 H 0.40227 0.38426 0.96549 0.0
H433 H 0.39718 0.3601 0.01 0.0
H434 H 0.41931 0.37431 0.95554 0.0
H435 H 0.41418 0.35042 0.99923 0.0
H436 H 0.40473 0.44274 0.97191 0.0
H437 H 0.39045 0.40529 0.93316 0.0
H438 H 0.33293 0.30217 0.98595 0.0
H439 H 0.36812 0.32235 0.95025 0.0
Li440 Li 0.62882 0.99131 0.05186 0.0
Li441 Li 0.62208 0.01211 0.06246 0.0
Li442 Li 0.61512 0.00046 0.03396 0.0
Li443 Li 0.64169 0.01792 0.04266 0.0
C444 C 0.59292 0.97841 0.04938 0.0
N445 N 0.56258 0.95714 0.03718 0.0
C446 C 0.58129 0.98243 0.05038 0.0
C447 C 0.58914 0.96357 0.04228 0.0
C448 C 0.56601 0.97152 0.0441 0.0
C449 C 0.57371 0.95298 0.03616 0.0
C450 C 0.65687 0.02017 0.07252 0.0
C451 C 0.67948 0.04514 0.0825 0.0
N452 N 0.68751 0.0376 0.08589 0.0
C453 C 0.66531 0.01265 0.07626 0.0
C454 C 0.66397 0.03653 0.07582 0.0
C455 C 0.68079 0.02168 0.08295 0.0
C456 C 0.64388 0.97409 0.04975 0.0
N457 N 0.63242 0.97501 0.05749 0.0
C458 C 0.62967 0.95532 0.07553 0.0
C459 C 0.62509 0.96575 0.06997 0.0
C460 C 0.64196 0.95457 0.06822 0.0
C461 C 0.64886 0.96389 0.05493 0.0
H462 H 0.64969 0.98188 0.0401 0.0
H463 H 0.61609 0.96689 0.07595 0.0
C464 C 0.60486 0.02342 0.07958 0.0
N465 N 0.61528 0.01833 0.0813 0.0
C466 C 0.59823 0.02588 0.09351 0.0
C467 C 0.61349 0.01818 0.11066 0.0
C468 C 0.61987 0.01595 0.09643 0.0
C469 C 0.60227 0.02288 0.10925 0.0
H470 H 0.60129 0.02499 0.06733 0.0
H471 H 0.62808 0.01176 0.09734 0.0
C472 C 0.63611 0.99927 0.01284 0.0
N473 N 0.64263 0.00272 0.97985 0.0
C474 C 0.63639 0.01169 0.00477 0.0
C475 C 0.63911 0.98857 0.00413 0.0
C476 C 0.63973 0.01325 0.9881 0.0
C477 C 0.64238 0.99051 0.98745 0.0
C478 C 0.62902 0.03839 0.04067 0.0
C479 C 0.62695 0.04364 0.02548 0.0
C480 C 0.63536 0.04907 0.05469 0.0
C481 C 0.63168 0.05959 0.0245 0.0
C482 C 0.63994 0.06492 0.05321 0.0
N483 N 0.63804 0.06981 0.03826 0.0
C484 C 0.59251 0.00264 0.01421 0.0
C485 C 0.59623 0.9815 0.00529 0.0
C486 C 0.58194 0.99923 0.00059 0.0
N487 N 0.59959 0.99397 0.01612 0.0
C488 C 0.58564 0.97761 0.99152 0.0
C489 C 0.57853 0.9867 0.98887 0.0
H490 H 0.59536 0.01243 0.0231 0.0
H491 H 0.60197 0.97475 0.00721 0.0
C492 C 0.67164 0.02639 0.03605 0.0
N493 N 0.66185 0.03229 0.03543 0.0
C494 C 0.68608 0.03418 0.02919 0.0
C495 C 0.68014 0.05402 0.02086 0.0
C496 C 0.66591 0.046 0.02828 0.0
C497 C 0.69033 0.04794 0.02096 0.0
H498 H 0.66795 0.01523 0.04136 0.0
H499 H 0.65787 0.05035 0.02758 0.0
O500 O 0.60803 0.9891 0.05497 0.0
O501 O 0.64173 0.0115 0.06582 0.0
O502 O 0.63286 0.99748 0.02916 0.0
O503 O 0.6243 0.02277 0.04186 0.0
H504 H 0.58409 0.99393 0.05577 0.0
H505 H 0.59806 0.96035 0.04135 0.0
H506 H 0.5569 0.97449 0.04469 0.0
H507 H 0.57061 0.94147 0.03055 0.0
H508 H 0.68514 0.05783 0.08498 0.0
H509 H 0.65998 -1e-05 0.07402 0.0
H510 H 0.65767 0.04255 0.07308 0.0
H511 H 0.68747 0.01602 0.08582 0.0
H512 H 0.62392 0.9482 0.08568 0.0
H513 H 0.65853 0.96389 0.04913 0.0
H514 H 0.58949 0.02933 0.09189 0.0
H515 H 0.61699 0.01587 0.12259 0.0
H516 H 0.63409 0.02004 0.01131 0.0
H517 H 0.63886 0.97883 0.01017 0.0
H518 H 0.64001 0.02283 0.98171 0.0
H519 H 0.64472 0.98232 0.98056 0.0
H520 H 0.62179 0.03552 0.01453 0.0
H521 H 0.63656 0.04515 0.06665 0.0
H522 H 0.63026 0.06383 0.0128 0.0
H523 H 0.64492 0.07331 0.06396 0.0
H524 H 0.57693 0.0067 0.99898 0.0
H525 H 0.5832 0.96772 0.98294 0.0
H526 H 0.69361 0.02917 0.02993 0.0
H527 H 0.68274 0.06444 0.01446 0.0
Li528 Li 0.65633 0.68412 0.34512 0.0
Li529 Li 0.681 0.69773 0.36171 0.0
Li530 Li 0.66058 0.70461 0.36639 0.0
Li531 Li 0.67541 0.71211 0.34138 0.0
C532 C 0.65429 0.6703 0.37634 0.0
N533 N 0.64302 0.6416 0.3902 0.0
C534 C 0.66148 0.66133 0.37379 0.0
C535 C 0.64148 0.66475 0.38616 0.0
C536 C 0.65558 0.64684 0.38084 0.0
C537 C 0.63592 0.65018 0.39298 0.0
C538 C 0.68445 0.6858 0.32991 0.0
C539 C 0.70425 0.68604 0.31325 0.0
N540 N 0.69829 0.67038 0.3152 0.0
C541 C 0.67844 0.66968 0.33159 0.0
C542 C 0.69738 0.69402 0.32051 0.0
C543 C 0.68563 0.66211 0.32412 0.0
C544 C 0.64298 0.66232 0.31726 0.0
N545 N 0.64125 0.66458 0.33359 0.0
C546 C 0.61952 0.63827 0.33346 0.0
C547 C 0.62956 0.65307 0.34162 0.0
C548 C 0.62141 0.63538 0.31679 0.0
C549 C 0.63313 0.6477 0.30856 0.0
H550 H 0.65229 0.67176 0.31113 0.0
H551 H 0.62805 0.65527 0.3544 0.0
C552 C 0.695 0.69307 0.38968 0.0
N553 N 0.69666 0.69528 0.37323 0.0
C554 C 0.7049 0.68948 0.39882 0.0
C555 C 0.71848 0.69121 0.37408 0.0
C556 C 0.70837 0.69485 0.36545 0.0
C557 C 0.71661 0.68819 0.39091 0.0
H558 H 0.68564 0.6936 0.39557 0.0
H559 H 0.70977 0.69709 0.35253 0.0
C560 C 0.63648 0.69625 0.34143 0.0
N561 N 0.60454 0.68447 0.33835 0.0
C562 C 0.62988 0.70033 0.32835 0.0
C563 C 0.62685 0.68618 0.35294 0.0
C564 C 0.6137 0.69426 0.32701 0.0
C565 C 0.61073 0.68035 0.35117 0.0
C566 C 0.69904 0.73052 0.36662 0.0
C567 C 0.70474 0.74244 0.3795 0.0
C568 C 0.7093 0.73019 0.35545 0.0
C569 C 0.72067 0.75389 0.38097 0.0
C570 C 0.72514 0.74184 0.35734 0.0
N571 N 0.73046 0.75336 0.36996 0.0
C572 C 0.65104 0.7065 0.39817 0.0
C573 C 0.64688 0.72178 0.37891 0.0
C574 C 0.64536 0.71198 0.41077 0.0
N575 N 0.65171 0.71149 0.38266 0.0
C576 C 0.64124 0.72769 0.39118 0.0
C577 C 0.64059 0.72292 0.40743 0.0
H578 H 0.65519 0.69848 0.40081 0.0
H579 H 0.64774 0.72566 0.36648 0.0
C580 C 0.68512 0.72381 0.31014 0.0
N581 N 0.68361 0.72779 0.326 0.0
C582 C 0.69046 0.73515 0.29847 0.0
C583 C 0.69247 0.7544 0.31969 0.0
C584 C 0.68721 0.74271 0.33097 0.0
C585 C 0.69403 0.75063 0.30317 0.0
H586 H 0.68187 0.71175 0.3065 0.0
H587 H 0.68576 0.74546 0.34365 0.0
O588 O 0.65989 0.68459 0.36962 0.0
O589 O 0.67758 0.69348 0.33707 0.0
O590 O 0.65228 0.70204 0.34282 0.0
O591 O 0.68348 0.71921 0.36507 0.0
H592 H 0.67163 0.66557 0.36664 0.0
H593 H 0.63576 0.67151 0.38835 0.0
H594 H 0.66105 0.63979 0.37894 0.0
H595 H 0.62595 0.6457 0.4005 0.0
H596 H 0.71432 0.69229 0.30605 0.0
H597 H 0.66821 0.66299 0.33839 0.0
H598 H 0.70216 0.70648 0.31895 0.0
H599 H 0.68109 0.64965 0.32536 0.0
H600 H 0.61038 0.62916 0.34011 0.0
H601 H 0.63493 0.64592 0.2957 0.0
H602 H 0.70307 0.68719 0.41177 0.0
H603 H 0.72758 0.69063 0.36764 0.0
H604 H 0.63719 0.7081 0.31933 0.0
H605 H 0.63175 0.68289 0.36311 0.0
H606 H 0.60842 0.69731 0.31695 0.0
H607 H 0.60314 0.67254 0.35998 0.0
H608 H 0.69693 0.74284 0.38825 0.0
H609 H 0.70508 0.72105 0.34543 0.0
H610 H 0.72526 0.7632 0.39088 0.0
H611 H 0.73321 0.74172 0.34878 0.0
H612 H 0.64489 0.70782 0.42304 0.0
H613 H 0.63792 0.73627 0.3881 0.0
H614 H 0.69127 0.73173 0.28579 0.0
H615 H 0.69518 0.76622 0.32379 0.0
Li616 Li 0.2821 0.95209 0.38139 0.0
Li617 Li 0.28792 0.94593 0.40973 0.0
Li618 Li 0.29861 0.97379 0.40245 0.0
Li619 Li 0.30796 0.9576 0.39052 0.0
C620 C 0.26687 0.96356 0.40184 0.0
N621 N 0.2483 0.97702 0.39882 0.0
C622 C 0.25555 0.96063 0.41314 0.0
C623 C 0.26878 0.97336 0.38903 0.0
C624 C 0.24627 0.96754 0.41139 0.0
C625 C 0.25927 0.98005 0.3877 0.0
C626 C 0.29342 0.92757 0.37974 0.0
C627 C 0.30935 0.91539 0.3798 0.0
N628 N 0.30471 0.91037 0.36352 0.0
C629 C 0.28869 0.92214 0.36307 0.0
C630 C 0.30371 0.92402 0.38823 0.0
C631 C 0.29456 0.91352 0.35507 0.0
C632 C 0.27339 0.94731 0.34772 0.0
N633 N 0.26737 0.9455 0.36281 0.0
C634 C 0.24138 0.93399 0.35008 0.0
C635 C 0.25171 0.93904 0.36429 0.0
C636 C 0.24729 0.93534 0.33436 0.0
C637 C 0.26349 0.94214 0.33325 0.0
H638 H 0.28589 0.95246 0.34697 0.0
H639 H 0.24724 0.93767 0.37647 0.0
C640 C 0.27411 0.93689 0.43989 0.0
N641 N 0.27934 0.93212 0.42684 0.0
C642 C 0.26727 0.92692 0.4526 0.0
C643 C 0.27166 0.90745 0.43833 0.0
C644 C 0.27822 0.91772 0.42579 0.0
C645 C 0.26599 0.91198 0.45188 0.0
H646 H 0.27517 0.94842 0.44034 0.0
H647 H 0.28234 0.91418 0.41518 0.0
C648 C 0.31469 0.98447 0.37348 0.0
N649 N 0.3402 0.01074 0.36253 0.0
C650 C 0.32862 0.99277 0.38357 0.0
C651 C 0.31372 0.98951 0.35781 0.0
C652 C 0.34139 0.00602 0.37782 0.0
C653 C 0.32675 0.00283 0.3525 0.0
C654 C 0.32122 0.96598 0.42461 0.0
C655 C 0.33391 0.98105 0.42942 0.0
C656 C 0.3208 0.9527 0.43079 0.0
C657 C 0.34614 0.98256 0.44003 0.0
C658 C 0.33326 0.95471 0.44138 0.0
N659 N 0.34557 0.96946 0.44573 0.0
C660 C 0.30739 0.99762 0.42788 0.0
C661 C 0.30579 0.00565 0.40098 0.0
C662 C 0.31267 0.01286 0.43493 0.0
N663 N 0.30427 0.99439 0.41119 0.0
C664 C 0.31117 0.02107 0.40747 0.0
C665 C 0.31482 0.02486 0.42463 0.0
H666 H 0.30605 0.9884 0.43568 0.0
H667 H 0.30305 0.00273 0.38776 0.0
C668 C 0.32497 0.95757 0.36442 0.0
N669 N 0.32599 0.95873 0.38129 0.0
C670 C 0.33766 0.95963 0.35576 0.0
C671 C 0.35225 0.9637 0.38199 0.0
C672 C 0.33921 0.96152 0.39017 0.0
C673 C 0.35165 0.96304 0.36456 0.0
H674 H 0.31433 0.95538 0.35767 0.0
H675 H 0.33986 0.96244 0.40353 0.0
O676 O 0.27612 0.95698 0.40349 0.0
O677 O 0.28801 0.9363 0.38769 0.0
O678 O 0.30207 0.97135 0.37877 0.0
O679 O 0.30908 0.9643 0.41434 0.0
H680 H 0.25396 0.95309 0.42315 0.0
H681 H 0.27749 0.97578 0.38018 0.0
H682 H 0.23745 0.96537 0.42004 0.0
H683 H 0.26061 0.98765 0.37785 0.0
H684 H 0.31746 0.91272 0.38618 0.0
H685 H 0.28056 0.92454 0.35636 0.0
H686 H 0.30754 0.92812 0.40111 0.0
H687 H 0.29105 0.90932 0.34215 0.0
H688 H 0.22891 0.92873 0.35133 0.0
H689 H 0.26843 0.94343 0.3213 0.0
H690 H 0.2631 0.93084 0.46291 0.0
H691 H 0.27071 0.89595 0.43728 0.0
H692 H 0.32957 0.98895 0.39566 0.0
H693 H 0.30301 0.9832 0.34985 0.0
H694 H 0.35226 0.01253 0.3855 0.0
H695 H 0.32617 0.00688 0.3404 0.0
H696 H 0.33432 0.9915 0.42504 0.0
H697 H 0.31099 0.94099 0.42746 0.0
H698 H 0.35607 0.99414 0.44377 0.0
H699 H 0.33312 0.94452 0.44618 0.0
H700 H 0.31544 0.01534 0.44821 0.0
H701 H 0.31246 0.02995 0.39916 0.0
H702 H 0.3366 0.95875 0.34232 0.0
H703 H 0.36285 0.96641 0.38925 0.0
Li704 Li 0.05414 0.32186 0.33888 0.0
Li705 Li 0.06272 0.33404 0.36707 0.0
Li706 Li 0.03491 0.31794 0.35808 0.0
Li707 Li 0.05113 0.34409 0.34824 0.0
C708 C 0.054 0.29977 0.35584 0.0
N709 N 0.06186 0.27743 0.34629 0.0
C710 C 0.0686 0.30189 0.36107 0.0
C711 C 0.04337 0.28626 0.34581 0.0
C712 C 0.07235 0.29045 0.35611 0.0
C713 C 0.04758 0.27511 0.34109 0.0
C714 C 0.07941 0.35718 0.33833 0.0
C715 C 0.09362 0.38564 0.33836 0.0
N716 N 0.0955 0.3844 0.32188 0.0
C717 C 0.0815 0.3562 0.3214 0.0
C718 C 0.08555 0.37202 0.3469 0.0
C719 C 0.08967 0.3701 0.31331 0.0
C720 C 0.04948 0.30698 0.30659 0.0
N721 N 0.05937 0.31311 0.32052 0.0
C722 C 0.07864 0.30945 0.30745 0.0
C723 C 0.07369 0.31436 0.32123 0.0
C724 C 0.06883 0.30342 0.29274 0.0
C725 C 0.05399 0.302 0.29248 0.0
H726 H 0.03829 0.3064 0.30626 0.0
H727 H 0.08146 0.31966 0.33233 0.0
C728 C 0.07296 0.32873 0.39745 0.0
N729 N 0.07737 0.33921 0.38553 0.0
C730 C 0.08245 0.33228 0.41204 0.0
C731 C 0.10109 0.3572 0.40167 0.0
C732 C 0.09122 0.35313 0.38722 0.0
C733 C 0.09663 0.34679 0.41442 0.0
H734 H 0.06188 0.31772 0.39572 0.0
H735 H 0.09444 0.36123 0.37754 0.0
C736 C 0.02031 0.31732 0.33032 0.0
N737 N 0.98843 0.30275 0.32238 0.0
C738 C 0.0128 0.32614 0.3308 0.0
C739 C 0.01162 0.3011 0.32572 0.0
C740 C 0.99668 0.31855 0.32674 0.0
C741 C 0.99551 0.29395 0.32178 0.0
C742 C 0.04868 0.34324 0.38749 0.0
C743 C 0.04077 0.33221 0.39907 0.0
C744 C 0.06017 0.35869 0.39302 0.0
C745 C 0.04453 0.33682 0.41601 0.0
C746 C 0.06362 0.36282 0.41006 0.0
N747 N 0.0558 0.35189 0.4211 0.0
C748 C 0.00856 0.28887 0.36664 0.0
C749 C 0.00646 0.31188 0.36915 0.0
C750 C 0.99366 0.2798 0.37243 0.0
N751 N 0.01459 0.3046 0.36518 0.0
C752 C 0.9916 0.30331 0.37498 0.0
C753 C 0.98507 0.28708 0.37683 0.0
H754 H 0.01536 0.28343 0.36354 0.0
H755 H 0.01162 0.32444 0.3679 0.0
C756 C 0.05045 0.36392 0.32478 0.0
N757 N 0.05025 0.36181 0.34128 0.0
C758 C 0.04806 0.3757 0.31881 0.0
C759 C 0.0454 0.38298 0.34697 0.0
C760 C 0.0479 0.37107 0.3524 0.0
C761 C 0.04521 0.38523 0.32993 0.0
H762 H 0.052 0.35613 0.3162 0.0
H763 H 0.04737 0.36883 0.36539 0.0
O764 O 0.05021 0.31095 0.36035 0.0
O765 O 0.07125 0.34371 0.34643 0.0
O766 O 0.03603 0.32444 0.33466 0.0
O767 O 0.04552 0.33883 0.37085 0.0
H768 H 0.07702 0.31233 0.36872 0.0
H769 H 0.03208 0.28449 0.34154 0.0
H770 H 0.08363 0.29197 0.36 0.0
H771 H 0.03951 0.26465 0.33324 0.0
H772 H 0.09833 0.39719 0.34481 0.0
H773 H 0.07676 0.34484 0.31452 0.0
H774 H 0.08385 0.37301 0.35994 0.0
H775 H 0.09133 0.36951 0.30021 0.0
H776 H 0.09029 0.31103 0.30808 0.0
H777 H 0.04607 0.29737 0.28139 0.0
H778 H 0.07869 0.32376 0.42139 0.0
H779 H 0.11186 0.36855 0.40304 0.0
H780 H 0.01929 0.33866 0.33446 0.0
H781 H 0.01721 0.29406 0.32542 0.0
H782 H 0.9907 0.32522 0.32714 0.0
H783 H 0.98862 0.28139 0.31832 0.0
H784 H 0.03198 0.32015 0.39504 0.0
H785 H 0.06656 0.36732 0.38424 0.0
H786 H 0.03856 0.32838 0.4251 0.0
H787 H 0.07258 0.3747 0.4145 0.0
H788 H 0.98911 0.26734 0.37386 0.0
H789 H 0.98529 0.30933 0.37806 0.0
H790 H 0.04815 0.37714 0.3056 0.0
H791 H 0.04301 0.38989 0.35592 0.0
Li792 Li 0.67552 0.97985 0.3889 0.0
Li793 Li 0.65822 0.95223 0.3924 0.0
Li794 Li 0.67281 0.95965 0.36775 0.0
Li795 Li 0.65103 0.96446 0.37113 0.0
C796 C 0.69731 0.96995 0.39269 0.0
N797 N 0.72952 0.98357 0.39554 0.0
C798 C 0.70454 0.96646 0.40568 0.0
C799 C 0.70645 0.98034 0.38114 0.0
C800 C 0.72084 0.97347 0.40691 0.0
C801 C 0.72271 0.98711 0.38279 0.0
C802 C 0.65372 0.97347 0.41208 0.0
C803 C 0.64357 0.98183 0.43451 0.0
N804 N 0.65416 0.98141 0.4454 0.0
C805 C 0.6645 0.97312 0.42349 0.0
C806 C 0.64317 0.97785 0.41761 0.0
C807 C 0.66454 0.97718 0.44029 0.0
C808 C 0.68614 0.01195 0.39445 0.0
N809 N 0.68876 0.00038 0.39941 0.0
C810 C 0.70934 0.01864 0.41907 0.0
C811 C 0.69994 0.00336 0.41162 0.0
C812 C 0.70708 0.03089 0.41402 0.0
C813 C 0.69523 0.02738 0.4016 0.0
H814 H 0.67701 0.00915 0.38485 0.0
H815 H 0.7015 0.99388 0.4157 0.0
C816 C 0.65971 0.93014 0.41143 0.0
N817 N 0.65086 0.93684 0.40828 0.0
C818 C 0.65573 0.91929 0.42352 0.0
C819 C 0.63335 0.92213 0.42864 0.0
C820 C 0.63784 0.93304 0.41651 0.0
C821 C 0.64246 0.91525 0.43238 0.0
H822 H 0.66997 0.93336 0.40463 0.0
H823 H 0.63108 0.93865 0.41383 0.0
C824 C 0.6774 0.9886 0.35188 0.0
N825 N 0.68759 0.00803 0.32591 0.0
C826 C 0.66803 0.98452 0.33704 0.0
C827 C 0.69192 0.00264 0.35354 0.0
C828 C 0.6734 0.99447 0.32405 0.0
C829 C 0.69687 0.01228 0.34026 0.0
C830 C 0.6352 0.93133 0.36868 0.0
C831 C 0.63108 0.9169 0.3602 0.0
C832 C 0.62391 0.93295 0.37698 0.0
C833 C 0.61568 0.9043 0.36014 0.0
C834 C 0.60864 0.92007 0.37663 0.0
N835 N 0.60488 0.90614 0.36828 0.0
C836 C 0.69068 0.94617 0.35686 0.0
C837 C 0.68097 0.95548 0.33558 0.0
C838 C 0.6972 0.94065 0.34522 0.0
N839 N 0.68279 0.95346 0.35187 0.0
C840 C 0.68726 0.95013 0.32354 0.0
C841 C 0.69537 0.94245 0.32828 0.0
H842 H 0.69162 0.94432 0.36985 0.0
H843 H 0.67429 0.96089 0.33187 0.0
C844 C 0.63483 0.9799 0.36379 0.0
N845 N 0.63544 0.96672 0.3594 0.0
C846 C 0.6248 0.9834 0.35477 0.0
C847 C 0.61596 0.95948 0.33709 0.0
C848 C 0.62624 0.95648 0.34642 0.0
C849 C 0.61532 0.97321 0.34111 0.0
H850 H 0.64243 0.98788 0.37408 0.0
H851 H 0.62723 0.94627 0.34297 0.0
O852 O 0.68136 0.96326 0.39148 0.0
O853 O 0.65342 0.96959 0.39555 0.0
O854 O 0.6722 0.97919 0.3649 0.0
O855 O 0.65027 0.9437 0.36894 0.0
H856 H 0.69762 0.95846 0.41476 0.0
H857 H 0.70105 0.98306 0.37095 0.0
H858 H 0.7266 0.9709 0.41692 0.0
H859 H 0.72992 0.99516 0.37392 0.0
H860 H 0.63547 0.98525 0.43897 0.0
H861 H 0.67275 0.96973 0.41948 0.0
H862 H 0.63475 0.97818 0.40891 0.0
H863 H 0.67282 0.97695 0.44925 0.0
H864 H 0.71817 0.0208 0.42882 0.0
H865 H 0.69318 0.03651 0.39727 0.0
H866 H 0.66294 0.91409 0.42588 0.0
H867 H 0.6231 0.91939 0.4353 0.0
H868 H 0.65682 0.97368 0.33547 0.0
H869 H 0.69929 0.00611 0.36496 0.0
H870 H 0.66629 0.9914 0.31247 0.0
H871 H 0.70809 0.02316 0.34138 0.0
H872 H 0.6397 0.91547 0.35375 0.0
H873 H 0.62687 0.94401 0.38363 0.0
H874 H 0.61232 0.89306 0.35362 0.0
H875 H 0.59979 0.92116 0.383 0.0
H876 H 0.70314 0.93456 0.34937 0.0
H877 H 0.68563 0.95183 0.31062 0.0
H878 H 0.62453 0.99401 0.35838 0.0
H879 H 0.60899 0.95143 0.32653 0.0
Li880 Li 0.052 0.72142 0.35658 0.0
Li881 Li 0.02457 0.71254 0.34783 0.0
Li882 Li 0.03929 0.70191 0.3335 0.0
Li883 Li 0.04502 0.7284 0.32903 0.0
C884 C 0.03429 0.69423 0.3715 0.0
N885 N 0.03654 0.68334 0.40186 0.0
C886 C 0.02331 0.69165 0.38313 0.0
C887 C 0.04633 0.69113 0.37527 0.0
C888 C 0.02466 0.68616 0.39841 0.0
C889 C 0.04731 0.68568 0.3907 0.0
C890 C 0.04018 0.74642 0.35832 0.0
C891 C 0.03366 0.76675 0.35453 0.0
N892 N 0.03615 0.77062 0.37118 0.0
C893 C 0.04288 0.75078 0.37536 0.0
C894 C 0.03571 0.75462 0.34779 0.0
C895 C 0.04069 0.76297 0.38163 0.0
C896 C 0.08229 0.73536 0.37343 0.0
N897 N 0.06673 0.72897 0.37545 0.0
C898 C 0.07166 0.73339 0.40492 0.0
C899 C 0.06132 0.72796 0.39079 0.0
C900 C 0.08781 0.74013 0.40329 0.0
C901 C 0.0931 0.74102 0.38726 0.0
H902 H 0.08631 0.73618 0.36106 0.0
H903 H 0.04892 0.72294 0.39209 0.0
C904 C 0.99221 0.69313 0.34856 0.0
N905 N 0.00469 0.70666 0.35575 0.0
C906 C 0.9775 0.68703 0.35487 0.0
C907 C 0.98872 0.70905 0.37568 0.0
C908 C 0.0032 0.71472 0.36897 0.0
C909 C 0.97569 0.69489 0.36879 0.0
H910 H 0.99383 0.68683 0.33823 0.0
H911 H 0.01332 0.72523 0.37469 0.0
C912 C 0.06811 0.71544 0.3262 0.0
N913 N 0.08285 0.70229 0.30899 0.0
C914 C 0.06889 0.71627 0.30902 0.0
C915 C 0.07496 0.70807 0.33466 0.0
C916 C 0.07636 0.70951 0.30053 0.0
C917 C 0.08231 0.70145 0.32573 0.0
C918 C 0.01461 0.71054 0.31353 0.0
C919 C 0.00923 0.70267 0.29772 0.0
C920 C 0.00925 0.72046 0.31932 0.0
C921 C 0.99883 0.7051 0.28788 0.0
C922 C 0.99884 0.72259 0.30913 0.0
N923 N 0.9939 0.71494 0.29373 0.0
C924 C 0.03742 0.67198 0.3309 0.0
C925 C 0.03427 0.68165 0.30554 0.0
C926 C 0.03461 0.65793 0.32257 0.0
N927 N 0.03706 0.6834 0.32232 0.0
C928 C 0.03115 0.6677 0.29673 0.0
C929 C 0.03115 0.6556 0.30531 0.0
H930 H 0.03954 0.6736 0.34423 0.0
H931 H 0.0343 0.69104 0.29904 0.0
C932 C 0.06215 0.75941 0.31878 0.0
N933 N 0.05212 0.74404 0.31342 0.0
C934 C 0.06874 0.77091 0.30735 0.0
C935 C 0.05461 0.75051 0.28514 0.0
C936 C 0.04819 0.73944 0.29699 0.0
C937 C 0.06518 0.76643 0.29028 0.0
H938 H 0.06536 0.76266 0.33191 0.0
H939 H 0.04054 0.72709 0.29305 0.0
O940 O 0.0332 0.69972 0.35651 0.0
O941 O 0.0425 0.73463 0.35195 0.0
O942 O 0.06045 0.72158 0.33465 0.0
O943 O 0.02483 0.70828 0.32332 0.0
H944 H 0.01384 0.69386 0.38043 0.0
H945 H 0.05499 0.69315 0.3665 0.0
H946 H 0.01627 0.68416 0.40754 0.0
H947 H 0.05664 0.68336 0.39382 0.0
H948 H 0.03016 0.77313 0.34651 0.0
H949 H 0.04648 0.74475 0.38371 0.0
H950 H 0.03397 0.75179 0.33452 0.0
H951 H 0.04262 0.76635 0.39482 0.0
H952 H 0.06701 0.73222 0.41701 0.0
H953 H 0.10547 0.74629 0.38543 0.0
H954 H 0.96782 0.67597 0.34931 0.0
H955 H 0.98779 0.71554 0.38634 0.0
H956 H 0.06363 0.72189 0.30227 0.0
H957 H 0.07453 0.70739 0.34796 0.0
H958 H 0.07696 0.70997 0.28722 0.0
H959 H 0.08759 0.69563 0.33211 0.0
H960 H 0.01305 0.69477 0.29306 0.0
H961 H 0.01289 0.72628 0.33163 0.0
H962 H 0.99466 0.69915 0.2756 0.0
H963 H 0.99463 0.73026 0.31349 0.0
H964 H 0.0346 0.64878 0.32959 0.0
H965 H 0.02868 0.66634 0.28339 0.0
H966 H 0.07703 0.78304 0.31178 0.0
H967 H 0.0516 0.7466 0.27208 0.0
Li968 Li 0.28339 0.34735 0.39215 0.0
Li969 Li 0.29302 0.32879 0.38546 0.0
Li970 Li 0.30235 0.35262 0.37224 0.0
Li971 Li 0.27627 0.33171 0.36462 0.0
C972 C 0.319 0.36351 0.40023 0.0
N973 N 0.34837 0.39005 0.4066 0.0
C974 C 0.33204 0.36192 0.40373 0.0
C975 C 0.32087 0.3786 0.40014 0.0
C976 C 0.3468 0.37548 0.40687 0.0
C977 C 0.33581 0.39187 0.40336 0.0
C978 C 0.26435 0.31623 0.40103 0.0
C979 C 0.24272 0.29606 0.41458 0.0
N980 N 0.25119 0.30188 0.42945 0.0
C981 C 0.27286 0.32202 0.41645 0.0
C982 C 0.24916 0.30317 0.40007 0.0
C983 C 0.26599 0.3146 0.43067 0.0
C984 C 0.2595 0.34815 0.40849 0.0
N985 N 0.27531 0.3546 0.40908 0.0
C986 C 0.27825 0.36783 0.43567 0.0
C987 C 0.28474 0.36439 0.42222 0.0
C988 C 0.26192 0.3608 0.43567 0.0
C989 C 0.2525 0.35102 0.4218 0.0
H990 H 0.2523 0.34023 0.39797 0.0
H991 H 0.29722 0.369 0.42261 0.0
C992 C 0.31406 0.31851 0.38919 0.0
N993 N 0.29948 0.31482 0.39327 0.0
C994 C 0.32059 0.30961 0.3944 0.0
C995 C 0.29677 0.29289 0.40756 0.0
C996 C 0.29064 0.30205 0.40194 0.0
C997 C 0.31203 0.29675 0.40397 0.0
H998 H 0.32065 0.32848 0.3819 0.0
H999 H 0.27889 0.29895 0.4046 0.0
C1000 C 0.28614 0.36724 0.36174 0.0
N1001 N 0.29194 0.39358 0.3454 0.0
C1002 C 0.2874 0.36723 0.34458 0.0
C1003 C 0.28767 0.38057 0.37059 0.0
C1004 C 0.29039 0.38069 0.33655 0.0
C1005 C 0.29064 0.39379 0.36209 0.0
C1006 C 0.29239 0.31758 0.35354 0.0
C1007 C 0.30191 0.31728 0.34139 0.0
C1008 C 0.27937 0.30343 0.35743 0.0
C1009 C 0.29824 0.30283 0.3333 0.0
C1010 C 0.27609 0.28922 0.34906 0.0
N1011 N 0.28551 0.28922 0.33727 0.0
C1012 C 0.33102 0.36213 0.36071 0.0
C1013 C 0.32551 0.38296 0.35992 0.0
C1014 C 0.34546 0.37141 0.35426 0.0
N1015 N 0.32132 0.36792 0.3633 0.0
C1016 C 0.33979 0.3926 0.35312 0.0
C1017 C 0.3499 0.38677 0.35022 0.0
H1018 H 0.32751 0.35023 0.36371 0.0
H1019 H 0.31795 0.38759 0.36257 0.0
C1020 C 0.24517 0.31458 0.34952 0.0
N1021 N 0.26066 0.32174 0.34685 0.0
C1022 C 0.2339 0.30816 0.33608 0.0
C1023 C 0.25481 0.31637 0.31755 0.0
C1024 C 0.26562 0.32264 0.3313 0.0
C1025 C 0.23871 0.30914 0.31981 0.0
H1026 H 0.24159 0.31412 0.36206 0.0
H1027 H 0.27803 0.32855 0.32956 0.0
O1028 O 0.3045 0.35038 0.3967 0.0
O1029 O 0.27062 0.32353 0.38696 0.0
O1030 O 0.28304 0.35416 0.36983 0.0
O1031 O 0.29598 0.33169 0.36158 0.0
H1032 H 0.33081 0.35035 0.404 0.0
H1033 H 0.31092 0.38005 0.39729 0.0
H1034 H 0.35701 0.37442 0.40951 0.0
H1035 H 0.33744 0.40362 0.40317 0.0
H1036 H 0.23097 0.28593 0.41403 0.0
H1037 H 0.28464 0.3321 0.41746 0.0
H1038 H 0.24241 0.29859 0.38824 0.0
H1039 H 0.27242 0.31896 0.44268 0.0
H1040 H 0.28583 0.37526 0.44629 0.0
H1041 H 0.23985 0.3454 0.42143 0.0
H1042 H 0.33222 0.3128 0.39098 0.0
H1043 H 0.28975 0.28311 0.41495 0.0
H1044 H 0.28624 0.35701 0.33758 0.0
H1045 H 0.28659 0.38069 0.38386 0.0
H1046 H 0.29149 0.3809 0.32329 0.0
H1047 H 0.29191 0.40421 0.36877 0.0
H1048 H 0.31205 0.32813 0.33825 0.0
H1049 H 0.27185 0.30336 0.3668 0.0
H1050 H 0.3055 0.30244 0.32386 0.0
H1051 H 0.26605 0.27819 0.35194 0.0
H1052 H 0.35293 0.3665 0.35208 0.0
H1053 H 0.34295 0.40448 0.35027 0.0
H1054 H 0.2216 0.30262 0.33836 0.0
H1055 H 0.25907 0.31768 0.30525 0.0
Li1056 Li 0.32551 0.01851 0.67623 0.0
Li1057 Li 0.34929 0.03316 0.69433 0.0
Li1058 Li 0.32685 0.0384 0.69569 0.0
Li1059 Li 0.34368 0.04689 0.67244 0.0
C1060 C 0.31905 0.00356 0.70337 0.0
N1061 N 0.30157 0.97149 0.70712 0.0
C1062 C 0.32644 0.9947 0.70488 0.0
C1063 C 0.30279 0.99615 0.70396 0.0
C1064 C 0.31739 0.97849 0.70673 0.0
C1065 C 0.29415 0.97991 0.7058 0.0
C1066 C 0.36124 0.03196 0.6631 0.0
C1067 C 0.38829 0.05019 0.65853 0.0
N1068 N 0.38893 0.03846 0.64963 0.0
C1069 C 0.36211 0.02013 0.65375 0.0
C1070 C 0.3744 0.04714 0.66538 0.0
C1071 C 0.37623 0.02363 0.64711 0.0
C1072 C 0.29728 0.99327 0.66013 0.0
N1073 N 0.31234 0.99814 0.66535 0.0
C1074 C 0.30895 0.97297 0.65668 0.0
C1075 C 0.31832 0.98843 0.66367 0.0
C1076 C 0.29324 0.96746 0.65144 0.0
C1077 C 0.28745 0.97787 0.65315 0.0
H1078 H 0.29282 0.00123 0.66163 0.0
H1079 H 0.33031 0.9926 0.6681 0.0
C1080 C 0.3664 0.03637 0.72398 0.0
N1081 N 0.36461 0.03157 0.7076 0.0
C1082 C 0.37682 0.03477 0.73472 0.0
C1083 C 0.38345 0.02343 0.71148 0.0
C1084 C 0.37279 0.02509 0.70124 0.0
C1085 C 0.3855 0.02822 0.72846 0.0
H1086 H 0.35958 0.04131 0.72871 0.0
H1087 H 0.37083 0.02088 0.68833 0.0
C1088 C 0.30865 0.0385 0.67045 0.0
N1089 N 0.28509 0.04577 0.66882 0.0
C1090 C 0.31075 0.0517 0.66244 0.0
C1091 C 0.29449 0.02891 0.67747 0.0
C1092 C 0.29872 0.05519 0.66178 0.0
C1093 C 0.28275 0.03281 0.67657 0.0
C1094 C 0.36183 0.06834 0.70181 0.0
C1095 C 0.35884 0.0804 0.70646 0.0
C1096 C 0.37721 0.0713 0.70346 0.0
C1097 C 0.37128 0.09529 0.71224 0.0
C1098 C 0.38934 0.08634 0.70931 0.0
N1099 N 0.38615 0.09794 0.71352 0.0
C1100 C 0.3105 0.03654 0.72415 0.0
C1101 C 0.31514 0.05769 0.70771 0.0
C1102 C 0.30395 0.0418 0.73603 0.0
N1103 N 0.31612 0.04464 0.71046 0.0
C1104 C 0.30873 0.06338 0.71926 0.0
C1105 C 0.30332 0.05558 0.7338 0.0
H1106 H 0.31159 0.02631 0.72613 0.0
H1107 H 0.31974 0.06394 0.69675 0.0
C1108 C 0.35414 0.05824 0.64124 0.0
N1109 N 0.35212 0.06249 0.65677 0.0
C1110 C 0.35916 0.06912 0.62909 0.0
C1111 C 0.35982 0.08851 0.64913 0.0
C1112 C 0.35489 0.07729 0.66091 0.0
C1113 C 0.36185 0.08441 0.63293 0.0
H1114 H 0.35148 0.04627 0.63816 0.0
H1115 H 0.35273 0.08023 0.67315 0.0
O1116 O 0.32765 0.01935 0.70105 0.0
O1117 O 0.34749 0.02867 0.66972 0.0
O1118 O 0.32035 0.03496 0.67131 0.0
O1119 O 0.34971 0.05357 0.69642 0.0
H1120 H 0.33901 0.00023 0.7044 0.0
H1121 H 0.29688 0.00284 0.70286 0.0
H1122 H 0.32295 0.97146 0.70778 0.0
H1123 H 0.28155 0.974 0.70615 0.0
H1124 H 0.39855 0.0619 0.66021 0.0
H1125 H 0.35201 0.00835 0.65166 0.0
H1126 H 0.37381 0.05654 0.6721 0.0
H1127 H 0.37709 0.01457 0.63993 0.0
H1128 H 0.31397 0.96544 0.65544 0.0
H1129 H 0.27536 0.97407 0.64951 0.0
H1130 H 0.37813 0.03863 0.74775 0.0
H1131 H 0.38973 0.01806 0.70627 0.0
H1132 H 0.32155 0.05916 0.65678 0.0
H1133 H 0.29267 0.01869 0.68378 0.0
H1134 H 0.30021 0.0654 0.65567 0.0
H1135 H 0.27179 0.02557 0.68208 0.0
H1136 H 0.34706 0.07837 0.70548 0.0
H1137 H 0.37983 0.06209 0.70041 0.0
H1138 H 0.3691 0.10474 0.71573 0.0
H1139 H 0.40128 0.08877 0.71058 0.0
H1140 H 0.3001 0.03557 0.74718 0.0
H1141 H 0.30836 0.07399 0.71702 0.0
H1142 H 0.36034 0.06542 0.61666 0.0
H1143 H 0.36176 0.10019 0.65257 0.0
Li1144 Li 0.97713 0.28941 0.71672 0.0
Li1145 Li 0.96438 0.30189 0.73061 0.0
Li1146 Li 0.95664 0.27414 0.73481 0.0
Li1147 Li 0.94976 0.28101 0.70845 0.0
C1148 C 0.99145 0.30635 0.74715 0.0
N1149 N 0.01988 0.33193 0.75935 0.0
C1150 C -0.00053 0.3193 0.73764 0.0
C1151 C 0.99791 0.30641 0.76286 0.0
C1152 C 0.01382 0.33211 0.74402 0.0
C1153 C 0.0123 0.31946 0.76881 0.0
C1154 C 0.96955 0.31406 0.69862 0.0
C1155 C 0.95755 0.32843 0.68831 0.0
N1156 N 0.97133 0.33896 0.68221 0.0
C1157 C 0.98357 0.32497 0.69217 0.0
C1158 C 0.95641 0.31576 0.69662 0.0
C1159 C 0.98424 0.33749 0.68395 0.0
C1160 C 0.99725 0.29557 0.69161 0.0
N1161 N 0.99616 0.29332 0.70807 0.0
C1162 C 0.02278 0.29951 0.71114 0.0
C1163 C 0.00841 0.29481 0.71781 0.0
C1164 C 0.02446 0.30254 0.69428 0.0
C1165 C 0.01134 0.30017 0.68441 0.0
H1166 H 0.98724 0.29416 0.68417 0.0
H1167 H 0.00718 0.2928 0.73085 0.0
C1168 C 0.96166 0.31954 0.75702 0.0
N1169 N 0.96746 0.32084 0.74183 0.0
C1170 C 0.96409 0.333 0.76639 0.0
C1171 C 0.97822 0.34882 0.7442 0.0
C1172 C 0.97577 0.33514 0.73542 0.0
C1173 C 0.9724 0.34783 0.75989 0.0
H1174 H 0.9553 0.30804 0.76192 0.0
H1175 H 0.98083 0.33609 0.72369 0.0
C1176 C 0.96435 0.25698 0.71293 0.0
N1177 N 0.97516 0.23602 0.71452 0.0
C1178 C 0.95924 0.24455 0.70072 0.0
C1179 C 0.97495 0.25875 0.72598 0.0
C1180 C 0.96484 0.23407 0.70174 0.0
C1181 C 0.98028 0.24803 0.72655 0.0
C1182 C 0.92854 0.28129 0.73068 0.0
C1183 C 0.91567 0.26643 0.73295 0.0
C1184 C 0.92633 0.29413 0.72881 0.0
C1185 C 0.90072 0.26456 0.73279 0.0
C1186 C 0.91119 0.29179 0.72875 0.0
N1187 N 0.8988 0.27717 0.73069 0.0
C1188 C 0.95514 0.26231 0.76626 0.0
C1189 C 0.93702 0.24377 0.74517 0.0
C1190 C 0.94877 0.25118 0.77808 0.0
N1191 N 0.94907 0.25846 0.75025 0.0
C1192 C 0.93019 0.23233 0.7566 0.0
C1193 C 0.93595 0.23607 0.77334 0.0
H1194 H 0.96464 0.27414 0.76992 0.0
H1195 H 0.93246 0.2411 0.73232 0.0
C1196 C 0.93923 0.28069 0.67546 0.0
N1197 N 0.93468 0.27349 0.68985 0.0
C1198 C 0.92885 0.2754 0.66137 0.0
C1199 C 0.90946 0.25474 0.67677 0.0
C1200 C 0.92018 0.26059 0.69069 0.0
C1201 C 0.91377 0.26226 0.66191 0.0
H1202 H 0.95107 0.29033 0.67476 0.0
H1203 H 0.91706 0.25461 0.70202 0.0
O1204 O 0.97733 0.29365 0.74122 0.0
O1205 O 0.96876 0.3018 0.70682 0.0
O1206 O 0.95895 0.26732 0.71203 0.0
O1207 O 0.94328 0.28336 0.73098 0.0
H1208 H 0.99474 0.31945 0.72543 0.0
H1209 H 0.9919 0.29648 0.77038 0.0
H1210 H 0.02013 0.3422 0.73678 0.0
H1211 H 0.01743 0.31966 0.78095 0.0
H1212 H 0.94746 0.32987 0.68666 0.0
H1213 H 0.99388 0.32386 0.69363 0.0
H1214 H 0.94541 0.30727 0.70123 0.0
H1215 H 0.99504 0.34606 0.67897 0.0
H1216 H 0.03259 0.30125 0.71923 0.0
H1217 H 0.01198 0.30201 0.67128 0.0
H1218 H 0.95948 0.33185 0.77851 0.0
H1219 H 0.98494 0.36013 0.73895 0.0
H1220 H 0.95103 0.24302 0.69055 0.0
H1221 H 0.97903 0.26827 0.73557 0.0
H1222 H 0.96099 0.22439 0.69236 0.0
H1223 H 0.98848 0.24927 0.73657 0.0
H1224 H 0.91719 0.25642 0.73468 0.0
H1225 H 0.93619 0.30583 0.72759 0.0
H1226 H 0.89064 0.25309 0.73437 0.0
H1227 H 0.90931 0.30161 0.72723 0.0
H1228 H 0.95342 0.25455 0.79091 0.0
H1229 H 0.92038 0.22076 0.75246 0.0
H1230 H 0.93277 0.28122 0.64998 0.0
H1231 H 0.89798 0.24442 0.67757 0.0
Li1232 Li 0.70671 0.67345 0.68215 0.0
Li1233 Li 0.69753 0.6476 0.69088 0.0
Li1234 Li 0.72358 0.66808 0.69956 0.0
Li1235 Li 0.71657 0.65717 0.67053 0.0
C1236 C 0.70724 0.67956 0.71598 0.0
N1237 N 0.71405 0.70497 0.73792 0.0
C1238 C 0.69862 0.67732 0.7299 0.0
C1239 C 0.71932 0.69474 0.7132 0.0
C1240 C 0.70224 0.69031 0.74085 0.0
C1241 C 0.72259 0.70742 0.72444 0.0
C1242 C 0.68004 0.64996 0.66398 0.0
C1243 C 0.65883 0.6428 0.64334 0.0
N1244 N 0.64998 0.64351 0.65543 0.0
C1245 C 0.67073 0.65059 0.67619 0.0
C1246 C 0.67404 0.64601 0.64742 0.0
C1247 C 0.65557 0.6473 0.67163 0.0
C1248 C 0.70756 0.69793 0.66449 0.0
N1249 N 0.70071 0.68843 0.67697 0.0
C1250 C 0.68361 0.69873 0.68032 0.0
C1251 C 0.68915 0.68886 0.6851 0.0
C1252 C 0.69024 0.70843 0.66726 0.0
C1253 C 0.70255 0.7082 0.65948 0.0
H1254 H 0.71666 0.69725 0.65819 0.0
H1255 H 0.68395 0.68126 0.69505 0.0
C1256 C 0.67882 0.63 0.71525 0.0
N1257 N 0.67989 0.62975 0.69856 0.0
C1258 C 0.66516 0.61891 0.72201 0.0
C1259 C 0.65423 0.60703 0.69429 0.0
C1260 C 0.66819 0.6183 0.68807 0.0
C1261 C 0.65247 0.60753 0.71143 0.0
H1262 H 0.68835 0.63926 0.72324 0.0
H1263 H 0.66942 0.61836 0.67483 0.0
C1264 C 0.74423 0.686 0.6758 0.0
N1265 N 0.77519 0.69804 0.66904 0.0
C1266 C 0.75213 0.67815 0.68041 0.0
C1267 C 0.75209 0.69997 0.66776 0.0
C1268 C 0.76777 0.68442 0.67688 0.0
C1269 C 0.76774 0.70587 0.66446 0.0
C1270 C 0.71069 0.6303 0.69024 0.0
C1271 C 0.71204 0.62339 0.70448 0.0
C1272 C 0.70242 0.62071 0.67588 0.0
C1273 C 0.70508 0.60695 0.70412 0.0
C1274 C 0.69564 0.60432 0.67602 0.0
N1275 N 0.69709 0.59784 0.69002 0.0
C1276 C 0.73517 0.6662 0.73048 0.0
C1277 C 0.75179 0.69066 0.71929 0.0
C1278 C 0.74505 0.67084 0.74492 0.0
N1279 N 0.73875 0.676 0.71798 0.0
C1280 C 0.76204 0.69581 0.73357 0.0
C1281 C 0.75869 0.68585 0.74665 0.0
H1282 H 0.72448 0.65484 0.72928 0.0
H1283 H 0.75414 0.69845 0.7094 0.0
C1284 C 0.71871 0.65448 0.63617 0.0
N1285 N 0.72379 0.65223 0.65108 0.0
C1286 C 0.7241 0.65148 0.62153 0.0
C1287 C 0.73992 0.64397 0.63795 0.0
C1288 C 0.73406 0.64692 0.65224 0.0
C1289 C 0.73501 0.64631 0.62229 0.0
H1290 H 0.71054 0.65873 0.63567 0.0
H1291 H 0.73786 0.6452 0.66429 0.0
O1292 O 0.70377 0.66687 0.70522 0.0
O1293 O 0.69493 0.6531 0.66808 0.0
O1294 O 0.72886 0.68006 0.67895 0.0
O1295 O 0.71702 0.64634 0.69043 0.0
H1296 H 0.68921 0.66565 0.73221 0.0
H1297 H 0.72611 0.69676 0.7025 0.0
H1298 H 0.69566 0.68874 0.75168 0.0
H1299 H 0.73191 0.71922 0.72245 0.0
H1300 H 0.65405 0.63974 0.63057 0.0
H1301 H 0.6751 0.65353 0.68909 0.0
H1302 H 0.68107 0.64541 0.63781 0.0
H1303 H 0.64825 0.64774 0.68097 0.0
H1304 H 0.67416 0.6987 0.68665 0.0
H1305 H 0.70784 0.71546 0.64927 0.0
H1306 H 0.66423 0.6198 0.73527 0.0
H1307 H 0.64475 0.59834 0.68577 0.0
H1308 H 0.74629 0.66736 0.6867 0.0
H1309 H 0.74614 0.70619 0.66411 0.0
H1310 H 0.77402 0.67847 0.68039 0.0
H1311 H 0.77396 0.71667 0.65824 0.0
H1312 H 0.71838 0.6306 0.71571 0.0
H1313 H 0.70103 0.62582 0.66482 0.0
H1314 H 0.70602 0.60144 0.71507 0.0
H1315 H 0.68914 0.59676 0.66501 0.0
H1316 H 0.74206 0.66271 0.7546 0.0
H1317 H 0.77229 0.70757 0.73451 0.0
H1318 H 0.71977 0.65321 0.60977 0.0
H1319 H 0.74849 0.64026 0.63923 0.0
Li1320 Li 0.34545 0.31563 0.72173 0.0
Li1321 Li 0.32574 0.28804 0.72499 0.0
Li1322 Li 0.34091 0.29508 0.69965 0.0
Li1323 Li 0.32018 0.30151 0.70352 0.0
C1324 C 0.36396 0.302 0.728 0.0
N1325 N 0.39479 0.31167 0.73739 0.0
C1326 C 0.36776 0.2978 0.74304 0.0
C1327 C 0.37581 0.31099 0.71768 0.0
C1328 C 0.38342 0.30284 0.74759 0.0
C1329 C 0.39133 0.31579 0.72265 0.0
C1330 C 0.31596 0.30548 0.74195 0.0
C1331 C 0.29207 0.29533 0.75597 0.0
N1332 N 0.30065 0.30205 0.77066 0.0
C1333 C 0.32454 0.31245 0.75714 0.0
C1334 C 0.2996 0.29699 0.74131 0.0
C1335 C 0.31658 0.31052 0.77153 0.0
C1336 C 0.35964 0.34826 0.72701 0.0
N1337 N 0.35988 0.33558 0.73277 0.0
C1338 C 0.37925 0.35203 0.75442 0.0
C1339 C 0.36932 0.33715 0.74627 0.0
C1340 C 0.37925 0.36535 0.74873 0.0
C1341 C 0.36929 0.36334 0.73483 0.0
H1342 H 0.35184 0.34661 0.71638 0.0
H1343 H 0.36894 0.32684 0.75094 0.0
C1344 C 0.3065 0.25759 0.73667 0.0
N1345 N 0.31762 0.27287 0.74113 0.0
C1346 C 0.30174 0.24623 0.74834 0.0
C1347 C 0.31976 0.26661 0.76898 0.0
C1348 C 0.32424 0.27753 0.75691 0.0
C1349 C 0.30855 0.25064 0.76471 0.0
H1350 H 0.30172 0.25409 0.72395 0.0
H1351 H 0.33334 0.28967 0.76002 0.0
C1352 C 0.35019 0.32458 0.68511 0.0
N1353 N 0.36688 0.34319 0.66029 0.0
C1354 C 0.34257 0.32349 0.66975 0.0
C1355 C 0.36624 0.33536 0.68795 0.0
C1356 C 0.35123 0.33292 0.65733 0.0
C1357 C 0.37449 0.3446 0.67521 0.0
C1358 C 0.30434 0.27021 0.69256 0.0
C1359 C 0.30432 0.26394 0.67669 0.0
C1360 C 0.29012 0.26621 0.69927 0.0
C1361 C 0.29003 0.25389 0.66769 0.0
C1362 C 0.27608 0.25614 0.68987 0.0
N1363 N 0.27633 0.25025 0.6744 0.0
C1364 C 0.3577 0.28053 0.68818 0.0
C1365 C 0.34748 0.28963 0.66717 0.0
C1366 C 0.3634 0.27433 0.67627 0.0
N1367 N 0.34996 0.28805 0.68345 0.0
C1368 C 0.35291 0.28357 0.65486 0.0
C1369 C 0.36087 0.27567 0.65934 0.0
H1370 H 0.35911 0.27899 0.70117 0.0
H1371 H 0.34082 0.29512 0.66369 0.0
C1372 C 0.303 0.31661 0.69982 0.0
N1373 N 0.30538 0.30541 0.69228 0.0
C1374 C 0.29381 0.32167 0.69167 0.0
C1375 C 0.28926 0.30323 0.66832 0.0
C1376 C 0.29875 0.2987 0.67683 0.0
C1377 C 0.28693 0.31504 0.67566 0.0
H1378 H 0.30866 0.32196 0.71198 0.0
H1379 H 0.30128 0.29028 0.67081 0.0
O1380 O 0.34869 0.29729 0.72346 0.0
O1381 O 0.32355 0.30717 0.72776 0.0
O1382 O 0.34184 0.31558 0.6975 0.0
O1383 O 0.31821 0.28015 0.7015 0.0
H1384 H 0.35871 0.29079 0.75115 0.0
H1385 H 0.37303 0.31406 0.70587 0.0
H1386 H 0.38655 0.29974 0.75923 0.0
H1387 H 0.40062 0.32275 0.71477 0.0
H1388 H 0.27941 0.28873 0.75567 0.0
H1389 H 0.33722 0.31915 0.75783 0.0
H1390 H 0.29279 0.29181 0.7296 0.0
H1391 H 0.32307 0.31574 0.78339 0.0
H1392 H 0.38659 0.35307 0.76526 0.0
H1393 H 0.36903 0.37332 0.72999 0.0
H1394 H 0.29327 0.23402 0.7444 0.0
H1395 H 0.32522 0.2706 0.78147 0.0
H1396 H 0.33014 0.31534 0.66739 0.0
H1397 H 0.37227 0.33672 0.69989 0.0
H1398 H 0.34551 0.3321 0.64534 0.0
H1399 H 0.38693 0.35295 0.67723 0.0
H1400 H 0.31521 0.26681 0.67137 0.0
H1401 H 0.28994 0.27084 0.71159 0.0
H1402 H 0.28984 0.24899 0.65536 0.0
H1403 H 0.26499 0.253 0.69488 0.0
H1404 H 0.36923 0.26808 0.68024 0.0
H1405 H 0.35075 0.2849 0.64196 0.0
H1406 H 0.29223 0.33078 0.69772 0.0
H1407 H 0.28433 0.29803 0.65589 0.0
Li1408 Li 0.69462 0.04479 0.67636 0.0
Li1409 Li 0.72066 0.04838 0.68345 0.0
Li1410 Li 0.71414 0.05575 0.65612 0.0
Li1411 Li 0.70349 0.02798 0.66122 0.0
C1412 C 0.71288 0.07611 0.68648 0.0
N1413 N 0.70772 0.09856 0.702 0.0
C1414 C 0.7196 0.08259 0.70249 0.0
C1415 C 0.7037 0.08119 0.67828 0.0
C1416 C 0.71681 0.09389 0.71015 0.0
C1417 C 0.70118 0.09251 0.68636 0.0
C1418 C 0.69823 0.01946 0.69708 0.0
C1419 C 0.70178 0.99875 0.70756 0.0
N1420 N 0.69466 0.99922 0.72145 0.0
C1421 C 0.69075 0.01956 0.71135 0.0
C1422 C 0.70363 0.00883 0.69508 0.0
C1423 C 0.68914 0.00932 0.72357 0.0
C1424 C 0.66279 0.0355 0.67772 0.0
N1425 N 0.67713 0.04394 0.68603 0.0
C1426 C 0.66595 0.0484 0.70981 0.0
C1427 C 0.67893 0.05039 0.70176 0.0
C1428 C 0.65086 0.03927 0.7018 0.0
C1429 C 0.64941 0.03297 0.68541 0.0
H1430 H 0.66168 0.03022 0.66533 0.0
H1431 H 0.69039 0.05661 0.7083 0.0
C1432 C 0.75124 0.06052 0.69949 0.0
N1433 N 0.7357 0.05416 0.70165 0.0
C1434 C 0.76207 0.0656 0.71328 0.0
C1435 C 0.74068 0.05747 0.73112 0.0
C1436 C 0.73033 0.05262 0.71705 0.0
C1437 C 0.75682 0.06425 0.72936 0.0
H1438 H 0.75525 0.06197 0.6871 0.0
H1439 H 0.71801 0.04805 0.71842 0.0
C1440 C 0.68673 0.0397 0.63714 0.0
N1441 N 0.67639 0.04308 0.60618 0.0
C1442 C 0.68689 0.03085 0.6232 0.0
C1443 C 0.68107 0.05006 0.63539 0.0
C1444 C 0.68168 0.03278 0.60764 0.0
C1445 C 0.67596 0.05166 0.61962 0.0
C1446 C 0.73562 0.03894 0.65709 0.0
C1447 C 0.74251 0.04162 0.64191 0.0
C1448 C 0.73882 0.03055 0.6686 0.0
C1449 C 0.75227 0.03558 0.63837 0.0
C1450 C 0.74864 0.02471 0.66461 0.0
N1451 N 0.75509 0.0273 0.64969 0.0
C1452 C 0.72827 0.08598 0.64326 0.0
C1453 C 0.72296 0.0647 0.62395 0.0
C1454 C 0.73513 0.09679 0.63122 0.0
N1455 N 0.72239 0.07029 0.63943 0.0
C1456 C 0.72959 0.07505 0.61151 0.0
C1457 C 0.73597 0.09138 0.61511 0.0
H1458 H 0.728 0.09017 0.65576 0.0
H1459 H 0.71852 0.05222 0.62133 0.0
C1460 C 0.68237 0.99568 0.65689 0.0
N1461 N 0.69607 0.00723 0.6516 0.0
C1462 C 0.67567 0.98014 0.65011 0.0
C1463 C 0.69725 0.98867 0.63247 0.0
C1464 C 0.7035 0.00408 0.63954 0.0
C1465 C 0.68313 0.97649 0.63772 0.0
H1466 H 0.67662 0.99859 0.66634 0.0
H1467 H 0.71408 0.01352 0.63516 0.0
O1468 O 0.71536 0.06493 0.67885 0.0
O1469 O 0.69979 0.02935 0.68494 0.0
O1470 O 0.69186 0.03803 0.65246 0.0
O1471 O 0.72601 0.04475 0.66071 0.0
H1472 H 0.72686 0.07891 0.70895 0.0
H1473 H 0.69857 0.07642 0.66584 0.0
H1474 H 0.72188 0.09895 0.72256 0.0
H1475 H 0.69403 0.09649 0.6802 0.0
H1476 H 0.70594 0.9905 0.70617 0.0
H1477 H 0.68632 0.02756 0.71304 0.0
H1478 H 0.709 0.0082 0.68392 0.0
H1479 H 0.68348 0.00937 0.73473 0.0
H1480 H 0.66771 0.05369 0.72233 0.0
H1481 H 0.63803 0.02564 0.67882 0.0
H1482 H 0.77444 0.07096 0.71137 0.0
H1483 H 0.73609 0.05607 0.74326 0.0
H1484 H 0.69115 0.02271 0.62435 0.0
H1485 H 0.68056 0.05675 0.6461 0.0
H1486 H 0.68186 0.02611 0.59671 0.0
H1487 H 0.67162 0.0597 0.61807 0.0
H1488 H 0.74029 0.04823 0.63292 0.0
H1489 H 0.73393 0.02873 0.68056 0.0
H1490 H 0.7576 0.03748 0.62663 0.0
H1491 H 0.75118 0.01817 0.6734 0.0
H1492 H 0.74015 0.10928 0.63466 0.0
H1493 H 0.72983 0.07031 0.59924 0.0
H1494 H 0.66482 0.97106 0.65458 0.0
H1495 H 0.70322 0.98638 0.62274 0.0
Li1496 Li 0.94694 0.67799 0.72652 0.0
Li1497 Li 0.95166 0.65678 0.71685 0.0
Li1498 Li 0.96629 0.68384 0.70592 0.0
Li1499 Li 0.93854 0.66546 0.69722 0.0
C1500 C 0.97514 0.68454 0.74344 0.0
N1501 N 0.99229 0.69891 0.77323 0.0
C1502 C 0.97496 0.67536 0.75625 0.0
C1503 C 0.98426 0.70101 0.74566 0.0
C1504 C 0.98364 0.68285 0.77126 0.0
C1505 C 0.99279 0.70806 0.76084 0.0
C1506 C 0.92018 0.64125 0.72318 0.0
C1507 C 0.90293 0.61321 0.71691 0.0
N1508 N 0.89815 0.61188 0.73261 0.0
C1509 C 0.91497 0.63963 0.7392 0.0
C1510 C 0.91401 0.62797 0.71189 0.0
C1511 C 0.90388 0.62467 0.74374 0.0
C1512 C 0.93553 0.6958 0.74316 0.0
N1513 N 0.94141 0.68606 0.7452 0.0
C1514 C 0.93789 0.68604 0.77427 0.0
C1515 C 0.94262 0.68111 0.76034 0.0
C1516 C 0.9316 0.69595 0.77254 0.0
C1517 C 0.93052 0.70092 0.75676 0.0
H1518 H 0.93441 0.6993 0.73093 0.0
H1519 H 0.94675 0.67289 0.76152 0.0
C1520 C 0.96442 0.63723 0.71472 0.0
N1521 N 0.95428 0.63988 0.72319 0.0
C1522 C 0.96798 0.62586 0.71951 0.0
C1523 C 0.95045 0.62003 0.74154 0.0
C1524 C 0.94734 0.63161 0.73642 0.0
C1525 C 0.96104 0.61719 0.73316 0.0
H1526 H 0.97006 0.64424 0.70449 0.0
H1527 H 0.93982 0.63436 0.74335 0.0
C1528 C 0.95395 0.70338 0.70135 0.0
N1529 N 0.96478 0.7341 0.69336 0.0
C1530 C 0.94995 0.70635 0.68569 0.0
C1531 C 0.96325 0.71601 0.71303 0.0
C1532 C 0.9556 0.72197 0.68186 0.0
C1533 C 0.96866 0.73146 0.70873 0.0
C1534 C 0.95537 0.65484 0.67902 0.0
C1535 C 0.96386 0.66313 0.66588 0.0
C1536 C 0.94565 0.63842 0.67689 0.0
C1537 C 0.96217 0.65489 0.65068 0.0
C1538 C 0.94429 0.6306 0.66151 0.0
N1539 N 0.95249 0.63893 0.64882 0.0
C1540 C 0.99884 0.69903 0.70582 0.0
C1541 C 0.987 0.70653 0.68483 0.0
C1542 C 0.01344 0.70776 0.69939 0.0
N1543 N 0.98599 0.69846 0.6984 0.0
C1544 C 0.00138 0.71548 0.67804 0.0
C1545 C 0.01479 0.71589 0.68511 0.0
H1546 H 0.99761 0.69214 0.71633 0.0
H1547 H 0.97656 0.70546 0.67881 0.0
C1548 C 0.90783 0.64957 0.68101 0.0
N1549 N 0.92341 0.65879 0.67899 0.0
C1550 C 0.89694 0.64431 0.66728 0.0
C1551 C 0.91834 0.65832 0.6498 0.0
C1552 C 0.92875 0.66346 0.66385 0.0
C1553 C 0.90223 0.64854 0.65142 0.0
H1554 H 0.90387 0.64628 0.69325 0.0
H1555 H 0.94112 0.67124 0.66269 0.0
O1556 O 0.96672 0.67739 0.72866 0.0
O1557 O 0.93109 0.6558 0.71855 0.0
O1558 O 0.94856 0.68816 0.70529 0.0
O1559 O 0.95684 0.66274 0.69398 0.0
H1560 H 0.96808 0.66258 0.75467 0.0
H1561 H 0.98487 0.70827 0.73572 0.0
H1562 H 0.98351 0.67589 0.78133 0.0
H1563 H -0.00014 0.7208 0.76276 0.0
H1564 H 0.8981 0.60283 0.70831 0.0
H1565 H 0.9195 0.6498 0.74804 0.0
H1566 H 0.91763 0.62906 0.69936 0.0
H1567 H 0.89981 0.62324 0.75612 0.0
H1568 H 0.93856 0.68163 0.78614 0.0
H1569 H 0.92569 0.70853 0.75493 0.0
H1570 H 0.97623 0.62402 0.71276 0.0
H1571 H 0.94513 0.61381 0.75236 0.0
H1572 H 0.94263 0.6967 0.67657 0.0
H1573 H 0.96615 0.71389 0.72532 0.0
H1574 H 0.95268 0.72446 0.66975 0.0
H1575 H 0.97592 0.74135 0.71763 0.0
H1576 H 0.97154 0.67582 0.66736 0.0
H1577 H 0.93934 0.63177 0.68704 0.0
H1578 H 0.96857 0.66117 0.64037 0.0
H1579 H 0.93676 0.6179 0.65967 0.0
H1580 H 0.02339 0.70752 0.70508 0.0
H1581 H 0.00191 0.72166 0.66709 0.0
H1582 H 0.88457 0.63687 0.66898 0.0
H1583 H 0.92281 0.66215 0.63782 0.0
H1584 H 0.16509 0.34017 0.04554 0.0
H1585 H 0.2424 0.28232 0.16695 0.0
H1586 H 0.15587 0.33302 0.13621 0.0
H1587 H 0.13648 0.33896 0.1244 0.0
H1588 H 0.10249 0.28896 0.11783 0.0
H1589 H 0.12209 0.28312 0.12972 0.0
H1590 H 0.18106 0.33464 0.11442 0.0
H1591 H 0.17802 0.34151 0.08632 0.0
H1592 H 0.13969 0.29373 0.0743 0.0
H1593 H 0.14299 0.28698 0.10239 0.0
H1594 H 0.20599 0.33077 0.13637 0.0
H1595 H 0.22693 0.33934 0.11746 0.0
H1596 H 0.19753 0.2979 0.08427 0.0
H1597 H 0.17675 0.2891 0.10369 0.0
H1598 H 0.20347 0.32137 0.17058 0.0
H1599 H 0.22606 0.31906 0.17956 0.0
H1600 H 0.20759 0.27592 0.14784 0.0
H1601 H 0.18495 0.27827 0.13913 0.0
H1602 H 0.17519 0.32088 0.1863 0.0
H1603 H 0.18313 0.31967 0.21495 0.0
H1604 H 0.17515 0.27276 0.20274 0.0
H1605 H 0.16675 0.2739 0.17409 0.0
H1606 H 0.15021 0.32418 0.16839 0.0
H1607 H 0.13322 0.32259 0.19021 0.0
H1608 H 0.1173 0.27287 0.19251 0.0
H1609 H 0.1339 0.27446 0.17011 0.0
O1610 O 0.16615 0.33718 0.05655 0.0
O1611 O 0.14648 0.31248 0.05103 0.0
O1612 O 0.24252 0.30569 0.17981 0.0
O1613 O 0.23358 0.28351 0.16363 0.0
C1614 C 0.15283 0.30433 0.1389 0.0
C1615 C 0.16399 0.3062 0.12751 0.0
C1616 C 0.17704 0.30487 0.13263 0.0
C1617 C 0.17869 0.30119 0.14901 0.0
C1618 C 0.16747 0.29924 0.16041 0.0
C1619 C 0.15449 0.30076 0.15532 0.0
C1620 C 0.14032 0.30766 0.13385 0.0
C1621 C 0.14413 0.32337 0.13252 0.0
C1622 C 0.13305 0.32673 0.12582 0.0
C1623 C 0.11799 0.31442 0.12019 0.0
C1624 C 0.11405 0.29866 0.12198 0.0
C1625 C 0.12515 0.29531 0.12886 0.0
C1626 C 0.16231 0.31029 0.11037 0.0
C1627 C 0.1721 0.32565 0.10565 0.0
C1628 C 0.17029 0.32955 0.08961 0.0
C1629 C 0.15861 0.31816 0.07805 0.0
C1630 C 0.14881 0.30278 0.08288 0.0
C1631 C 0.15066 0.29889 0.09891 0.0
C1632 C 0.18992 0.30926 0.12145 0.0
C1633 C 0.20417 0.32342 0.12514 0.0
C1634 C 0.21602 0.3284 0.11421 0.0
C1635 C 0.21382 0.31939 0.09928 0.0
C1636 C 0.1996 0.30505 0.09572 0.0
C1637 C 0.18773 0.30002 0.10675 0.0
C1638 C 0.1925 0.29989 0.15434 0.0
C1639 C 0.20427 0.31137 0.16568 0.0
C1640 C 0.21719 0.31005 0.17074 0.0
C1641 C 0.21861 0.29727 0.16444 0.0
C1642 C 0.20685 0.28588 0.15296 0.0
C1643 C 0.19391 0.2872 0.14795 0.0
C1644 C 0.17037 0.29747 0.17814 0.0
C1645 C 0.17479 0.31019 0.1899 0.0
C1646 C 0.17947 0.30954 0.2062 0.0
C1647 C 0.17992 0.29618 0.21103 0.0
C1648 C 0.17482 0.28315 0.1994 0.0
C1649 C 0.17009 0.28381 0.18305 0.0
C1650 C 0.14314 0.2994 0.16753 0.0
C1651 C 0.14276 0.31286 0.17331 0.0
C1652 C 0.13322 0.31197 0.18595 0.0
C1653 C 0.12399 0.29762 0.19319 0.0
C1654 C 0.12413 0.28405 0.18708 0.0
C1655 C 0.13363 0.28494 0.17435 0.0
C1656 C 0.15667 0.32237 0.06106 0.0
C1657 C 0.23231 0.2958 0.16979 0.0
H1658 H 0.66678 0.82982 0.06463 0.0
H1659 H 0.73847 0.96666 0.19802 0.0
H1660 H 0.67671 0.8274 0.15455 0.0
H1661 H 0.66795 0.80001 0.14518 0.0
H1662 H 0.71599 0.81063 0.14858 0.0
H1663 H 0.7247 0.83821 0.15777 0.0
H1664 H 0.67608 0.85115 0.13505 0.0
H1665 H 0.66779 0.84155 0.1059 0.0
H1666 H 0.71357 0.84793 0.09843 0.0
H1667 H 0.72176 0.85768 0.12759 0.0
H1668 H 0.68162 0.87861 0.15999 0.0
H1669 H 0.6714 0.89103 0.14183 0.0
H1670 H 0.71025 0.90439 0.11104 0.0
H1671 H 0.7206 0.89204 0.12959 0.0
H1672 H 0.69458 0.88792 0.19406 0.0
H1673 H 0.69954 0.91381 0.20492 0.0
H1674 H 0.74066 0.93646 0.17691 0.0
H1675 H 0.7357 0.91045 0.16636 0.0
H1676 H 0.69441 0.85982 0.20916 0.0
H1677 H 0.69743 0.8716 0.23721 0.0
H1678 H 0.74437 0.90832 0.22863 0.0
H1679 H 0.74128 0.89625 0.20045 0.0
H1680 H 0.686 0.83116 0.19005 0.0
H1681 H 0.68583 0.81335 0.21024 0.0
H1682 H 0.73649 0.84011 0.21556 0.0
H1683 H 0.73647 0.85813 0.19544 0.0
O1684 O 0.67032 0.83371 0.0761 0.0
O1685 O 0.69402 0.83714 0.07294 0.0
O1686 O 0.71512 0.94403 0.20826 0.0
O1687 O 0.73618 0.95627 0.19382 0.0
C1688 C 0.70634 0.85132 0.16228 0.0
C1689 C 0.70463 0.86107 0.15107 0.0
C1690 C 0.70714 0.87599 0.15686 0.0
C1691 C 0.7123 0.88159 0.17361 0.0
C1692 C 0.71429 0.87195 0.18481 0.0
C1693 C 0.71106 0.8567 0.17916 0.0
C1694 C 0.70133 0.83476 0.15669 0.0
C1695 C 0.68534 0.82381 0.15321 0.0
C1696 C 0.68036 0.80817 0.14801 0.0
C1697 C 0.69129 0.80319 0.14621 0.0
C1698 C 0.70733 0.81419 0.14975 0.0
C1699 C 0.71231 0.82988 0.15504 0.0
C1700 C 0.69957 0.85527 0.13336 0.0
C1701 C 0.68434 0.85059 0.12706 0.0
C1702 C 0.67962 0.84505 0.11042 0.0
C1703 C 0.69003 0.844 0.09981 0.0
C1704 C 0.70527 0.84862 0.10624 0.0
C1705 C 0.70998 0.85419 0.12288 0.0
C1706 C 0.70189 0.88454 0.14615 0.0
C1707 C 0.68803 0.88438 0.14943 0.0
C1708 C 0.68212 0.8913 0.13895 0.0
C1709 C 0.68994 0.8985 0.12493 0.0
C1710 C 0.70401 0.89893 0.12179 0.0
C1711 C 0.70993 0.89192 0.13232 0.0
C1712 C 0.71489 0.89733 0.17959 0.0
C1713 C 0.70469 0.89849 0.19035 0.0
C1714 C 0.70753 0.91329 0.19649 0.0
C1715 C 0.72055 0.92722 0.19184 0.0
C1716 C 0.73057 0.92598 0.18079 0.0
C1717 C 0.72775 0.91115 0.17471 0.0
C1718 C 0.71765 0.87712 0.20279 0.0
C1719 C 0.70559 0.87001 0.21354 0.0
C1720 C 0.70733 0.87681 0.22957 0.0
C1721 C 0.72112 0.89094 0.2351 0.0
C1722 C 0.73358 0.8975 0.22465 0.0
C1723 C 0.73187 0.89058 0.20863 0.0
C1724 C 0.71125 0.84583 0.1912 0.0
C1725 C 0.69706 0.83308 0.19547 0.0
C1726 C 0.697 0.82289 0.20695 0.0
C1727 C 0.71116 0.82522 0.2144 0.0
C1728 C 0.72539 0.83805 0.21011 0.0
C1729 C 0.72542 0.8483 0.1986 0.0
C1730 C 0.68498 0.83809 0.08214 0.0
C1731 C 0.72372 0.94297 0.19849 0.0
H1732 H 0.13442 0.8422 0.04858 0.0
H1733 H 0.26702 0.95316 0.17433 0.0
H1734 H 0.12696 0.8555 0.13316 0.0
H1735 H 0.10454 0.82982 0.12265 0.0
H1736 H 0.12336 0.80612 0.151 0.0
H1737 H 0.14588 0.8317 0.16105 0.0
H1738 H 0.1561 0.87989 0.11228 0.0
H1739 H 0.14689 0.8679 0.0839 0.0
H1740 H 0.14907 0.82694 0.09768 0.0
H1741 H 0.1585 0.83917 0.12592 0.0
H1742 H 0.19104 0.90957 0.12817 0.0
H1743 H 0.21181 0.91966 0.1088 0.0
H1744 H 0.21036 0.87484 0.10665 0.0
H1745 H 0.1904 0.86529 0.12671 0.0
H1746 H 0.18893 0.9175 0.16842 0.0
H1747 H 0.21451 0.94142 0.17482 0.0
H1748 H 0.23729 0.91479 0.16323 0.0
H1749 H 0.21166 0.89094 0.15708 0.0
H1750 H 0.16095 0.89336 0.19362 0.0
H1751 H 0.17067 0.90349 0.22266 0.0
H1752 H 0.20796 0.89338 0.21736 0.0
H1753 H 0.19783 0.88253 0.18878 0.0
H1754 H 0.13019 0.86438 0.17524 0.0
H1755 H 0.11367 0.85006 0.19746 0.0
H1756 H 0.14757 0.83699 0.21327 0.0
H1757 H 0.16408 0.85162 0.19138 0.0
O1758 O 0.13823 0.84679 0.05982 0.0
O1759 O 0.13933 0.82591 0.06762 0.0
O1760 O 0.24447 0.95701 0.17782 0.0
O1761 O 0.25676 0.94388 0.17189 0.0
C1762 C 0.15305 0.86061 0.15152 0.0
C1763 C 0.16298 0.86752 0.13853 0.0
C1764 C 0.17798 0.88103 0.14204 0.0
C1765 C 0.18284 0.88803 0.15847 0.0
C1766 C 0.17299 0.88103 0.17151 0.0
C1767 C 0.15814 0.86725 0.16803 0.0
C1768 C 0.13804 0.84546 0.14788 0.0
C1769 C 0.12604 0.84476 0.13737 0.0
C1770 C 0.11332 0.83014 0.13135 0.0
C1771 C 0.11229 0.81604 0.13599 0.0
C1772 C 0.12379 0.81681 0.14737 0.0
C1773 C 0.13662 0.83141 0.15317 0.0
C1774 C 0.15783 0.86035 0.12118 0.0
C1775 C 0.15465 0.86836 0.10911 0.0
C1776 C 0.14936 0.86147 0.09293 0.0
C1777 C 0.14717 0.84643 0.08854 0.0
C1778 C 0.15057 0.83851 0.10065 0.0
C1779 C 0.15591 0.84545 0.1168 0.0
C1780 C 0.18925 0.88672 0.12888 0.0
C1781 C 0.19518 0.90194 0.12342 0.0
C1782 C 0.20695 0.90762 0.11226 0.0
C1783 C 0.21284 0.89809 0.10625 0.0
C1784 C 0.20633 0.8826 0.11125 0.0
C1785 C 0.19477 0.87705 0.12256 0.0
C1786 C 0.19844 0.90253 0.16216 0.0
C1787 C 0.19947 0.91688 0.16727 0.0
C1788 C 0.21409 0.93051 0.17091 0.0
C1789 C 0.22796 0.93003 0.16949 0.0
C1790 C 0.22686 0.9156 0.1644 0.0
C1791 C 0.21223 0.90196 0.16082 0.0
C1792 C 0.17881 0.88739 0.189 0.0
C1793 C 0.17116 0.89325 0.19877 0.0
C1794 C 0.17668 0.89902 0.21527 0.0
C1795 C 0.19008 0.89928 0.22202 0.0
C1796 C 0.19769 0.89341 0.21227 0.0
C1797 C 0.19197 0.88732 0.19597 0.0
C1798 C 0.14834 0.85909 0.18179 0.0
C1799 C 0.13405 0.85851 0.18363 0.0
C1800 C 0.12462 0.85027 0.19625 0.0
C1801 C 0.12931 0.84241 0.20718 0.0
C1802 C 0.14373 0.84316 0.20531 0.0
C1803 C 0.15315 0.85144 0.19276 0.0
C1804 C 0.14135 0.83905 0.07139 0.0
C1805 C 0.24352 0.94448 0.17333 0.0
H1806 H 0.3062 0.17531 0.00572 0.0
H1807 H 0.30582 0.05139 0.88855 0.0
H1808 H 0.28109 0.16227 0.92055 0.0
H1809 H 0.28873 0.18969 0.92842 0.0
H1810 H 0.32875 0.20582 0.8988 0.0
H1811 H 0.32156 0.17844 0.89191 0.0
H1812 H 0.28172 0.13587 0.9432 0.0
H1813 H 0.28782 0.14914 0.97112 0.0
H1814 H 0.33315 0.18479 0.95668 0.0
H1815 H 0.32697 0.1713 0.92888 0.0
H1816 H 0.28003 0.10259 0.92929 0.0
H1817 H 0.28821 0.08962 0.94933 0.0
H1818 H 0.33578 0.12887 0.95075 0.0
H1819 H 0.32756 0.14163 0.9307 0.0
H1820 H 0.26988 0.09346 0.88984 0.0
H1821 H 0.26857 0.06798 0.88538 0.0
H1822 H 0.31867 0.09112 0.89666 0.0
H1823 H 0.31983 0.11653 0.90085 0.0
H1824 H 0.26758 0.11366 0.86296 0.0
H1825 H 0.2655 0.0996 0.83614 0.0
H1826 H 0.31504 0.11593 0.84199 0.0
H1827 H 0.31687 0.12952 0.86871 0.0
H1828 H 0.27153 0.15117 0.88012 0.0
H1829 H 0.27016 0.16677 0.8579 0.0
H1830 H 0.31273 0.17157 0.83989 0.0
H1831 H 0.31414 0.15624 0.86221 0.0
O1832 O 0.30406 0.17021 0.99463 0.0
O1833 O 0.32719 0.18829 0.98655 0.0
O1834 O 0.28032 0.05002 0.8842 0.0
O1835 O 0.30601 0.06131 0.89015 0.0
C1836 C 0.29783 0.15197 0.90328 0.0
C1837 C 0.29998 0.14463 0.91703 0.0
C1838 C 0.29896 0.12982 0.91459 0.0
C1839 C 0.29561 0.12222 0.89846 0.0
C1840 C 0.29359 0.12958 0.88471 0.0
C1841 C 0.29452 0.14438 0.8871 0.0
C1842 C 0.30079 0.16836 0.90571 0.0
C1843 C 0.29139 0.17175 0.91561 0.0
C1844 C 0.29573 0.18743 0.92 0.0
C1845 C 0.30946 0.19997 0.91438 0.0
C1846 C 0.31829 0.19646 0.90363 0.0
C1847 C 0.31408 0.18081 0.89947 0.0
C1848 C 0.30384 0.15269 0.934 0.0
C1849 C 0.29297 0.14653 0.94612 0.0
C1850 C 0.29648 0.15414 0.96204 0.0
C1851 C 0.31096 0.16806 0.96612 0.0
C1852 C 0.32188 0.17413 0.95394 0.0
C1853 C 0.31837 0.16648 0.93804 0.0
C1854 C 0.3032 0.12304 0.92857 0.0
C1855 C 0.29214 0.10849 0.93419 0.0
C1856 C 0.29684 0.10109 0.94555 0.0
C1857 C 0.31264 0.10823 0.95155 0.0
C1858 C 0.3235 0.12319 0.94652 0.0
C1859 C 0.31883 0.13049 0.93507 0.0
C1860 C 0.29492 0.10679 0.89578 0.0
C1861 C 0.28055 0.09298 0.89131 0.0
C1862 C 0.27984 0.07846 0.8888 0.0
C1863 C 0.29352 0.07751 0.89072 0.0
C1864 C 0.30791 0.09142 0.89512 0.0
C1865 C 0.30861 0.10594 0.89757 0.0
C1866 C 0.29235 0.1225 0.86775 0.0
C1867 C 0.27796 0.11428 0.85829 0.0
C1868 C 0.27681 0.1063 0.84303 0.0
C1869 C 0.29006 0.10646 0.83709 0.0
C1870 C 0.30455 0.11525 0.84639 0.0
C1871 C 0.30566 0.12313 0.86158 0.0
C1872 C 0.29282 0.15239 0.87266 0.0
C1873 C 0.28043 0.15542 0.87123 0.0
C1874 C 0.27971 0.16437 0.85861 0.0
C1875 C 0.29131 0.17033 0.84715 0.0
C1876 C 0.30348 0.16691 0.84837 0.0
C1877 C 0.30428 0.15811 0.86108 0.0
C1878 C 0.31462 0.17617 0.98302 0.0
C1879 C 0.29282 0.0621 0.88814 0.0
H1880 H 0.8304 0.15805 0.01126 0.0
H1881 H 0.75382 0.02891 0.87167 0.0
H1882 H 0.84059 0.16463 0.9231 0.0
H1883 H 0.86039 0.19077 0.93543 0.0
H1884 H 0.89614 0.17833 0.93 0.0
H1885 H 0.87609 0.15192 0.91787 0.0
H1886 H 0.81594 0.1411 0.93987 0.0
H1887 H 0.81844 0.14916 0.96943 0.0
H1888 H 0.85604 0.13927 0.97696 0.0
H1889 H 0.85327 0.13105 0.94738 0.0
H1890 H 0.79285 0.11673 0.91513 0.0
H1891 H 0.77143 0.10505 0.93337 0.0
H1892 H 0.79477 0.08418 0.95937 0.0
H1893 H 0.8166 0.09672 0.94144 0.0
H1894 H 0.79528 0.10783 0.8782 0.0
H1895 H 0.77258 0.0832 0.86613 0.0
H1896 H 0.78801 0.05648 0.89433 0.0
H1897 H 0.81077 0.08121 0.90613 0.0
H1898 H 0.82506 0.13507 0.86443 0.0
H1899 H 0.81845 0.12565 0.83515 0.0
H1900 H 0.82436 0.08602 0.84511 0.0
H1901 H 0.83129 0.09574 0.87449 0.0
H1902 H 0.84719 0.16294 0.88587 0.0
H1903 H 0.86532 0.17985 0.86623 0.0
H1904 H 0.88426 0.14874 0.86201 0.0
H1905 H 0.86569 0.13163 0.88142 0.0
O1906 O 0.82956 0.15474 -0.00037 0.0
O1907 O 0.84889 0.14956 0.00282 0.0
O1908 O 0.75533 0.05311 0.86195 0.0
O1909 O 0.76267 0.03882 0.87628 0.0
C1910 C 0.8445 0.14028 0.91319 0.0
C1911 C 0.83285 0.13044 0.92358 0.0
C1912 C 0.81974 0.11616 0.91684 0.0
C1913 C 0.81869 0.11123 0.89994 0.0
C1914 C 0.83062 0.1208 0.88963 0.0
C1915 C 0.84345 0.13543 0.89623 0.0
C1916 C 0.85689 0.15633 0.91982 0.0
C1917 C 0.85268 0.16751 0.92465 0.0
C1918 C 0.86397 0.1824 0.93168 0.0
C1919 C 0.87974 0.18647 0.9338 0.0
C1920 C 0.88405 0.17545 0.92847 0.0
C1921 C 0.87266 0.16042 0.92159 0.0
C1922 C 0.83429 0.13531 0.94154 0.0
C1923 C 0.82459 0.14052 0.94796 0.0
C1924 C 0.8261 0.1452 0.96484 0.0
C1925 C 0.83742 0.14482 0.97558 0.0
C1926 C 0.84719 0.13967 0.96905 0.0
C1927 C 0.84563 0.13497 0.95217 0.0
C1928 C 0.80619 0.1075 0.92696 0.0
C1929 C 0.79322 0.10949 0.92467 0.0
C1930 C 0.78097 0.10273 0.93509 0.0
C1931 C 0.78132 0.09362 0.94787 0.0
C1932 C 0.79422 0.09132 0.94984 0.0
C1933 C 0.80662 0.09831 0.93952 0.0
C1934 C 0.80471 0.09628 0.89293 0.0
C1935 C 0.79376 0.09664 0.88169 0.0
C1936 C 0.7808 0.08256 0.87485 0.0
C1937 C 0.7785 0.06786 0.87924 0.0
C1938 C 0.78944 0.06758 0.89066 0.0
C1939 C 0.80242 0.08168 0.89745 0.0
C1940 C 0.82876 0.11615 0.87157 0.0
C1941 C 0.82543 0.12464 0.86022 0.0
C1942 C 0.82164 0.11923 0.84349 0.0
C1943 C 0.82091 0.10511 0.83786 0.0
C1944 C 0.82478 0.09691 0.84915 0.0
C1945 C 0.82877 0.10245 0.86587 0.0
C1946 C 0.8552 0.14612 0.88511 0.0
C1947 C 0.85539 0.15989 0.88084 0.0
C1948 C 0.8658 0.16957 0.86966 0.0
C1949 C 0.87631 0.16569 0.86257 0.0
C1950 C 0.87622 0.15197 0.86709 0.0
C1951 C 0.86571 0.14224 0.87824 0.0
C1952 C 0.83902 0.14983 0.99349 0.0
C1953 C 0.76479 0.05287 0.87194 0.0
H1954 H 0.85891 0.69653 0.02997 0.0
H1955 H 0.74229 0.68636 0.89638 0.0
H1956 H 0.87581 0.71681 0.94777 0.0
H1957 H 0.89454 0.70995 0.95951 0.0
H1958 H 0.8735 0.66747 0.9264 0.0
H1959 H 0.85424 0.67393 0.91554 0.0
H1960 H 0.84685 0.7161 0.9664 0.0
H1961 H 0.85252 0.71212 0.99495 0.0
H1962 H 0.84515 0.66617 0.97856 0.0
H1963 H 0.83928 0.67021 0.95013 0.0
H1964 H 0.81505 0.71474 0.94852 0.0
H1965 H 0.79291 0.70626 0.966 0.0
H1966 H 0.78751 0.65969 0.96553 0.0
H1967 H 0.80897 0.66802 0.94739 0.0
H1968 H 0.82018 0.72404 0.9096 0.0
H1969 H 0.79635 0.72459 0.90173 0.0
H1970 H 0.76854 0.67456 0.90833 0.0
H1971 H 0.79246 0.67414 0.91597 0.0
H1972 H 0.84642 0.72548 0.88622 0.0
H1973 H 0.8383 0.72613 0.85723 0.0
H1974 H 0.8012 0.67738 0.85748 0.0
H1975 H 0.80959 0.67677 0.88607 0.0
H1976 H 0.87654 0.72371 0.90612 0.0
H1977 H 0.89339 0.72511 0.88401 0.0
H1978 H 0.8565 0.67967 0.86226 0.0
H1979 H 0.84011 0.67814 0.88467 0.0
O1980 O 0.85652 0.69781 0.01862 0.0
O1981 O 0.85272 0.67433 0.00954 0.0
O1982 O 0.76673 0.71215 0.89609 0.0
O1983 O 0.75189 0.68647 0.89942 0.0
C1984 C 0.85009 0.69798 0.92658 0.0
C1985 C 0.83959 0.69615 0.93884 0.0
C1986 C 0.82573 0.69634 0.93454 0.0
C1987 C 0.82257 0.69884 0.9181 0.0
C1988 C 0.83298 0.70055 0.90583 0.0
C1989 C 0.84672 0.70008 0.91005 0.0
C1990 C 0.86361 0.69584 0.93086 0.0
C1991 C 0.87546 0.70618 0.94284 0.0
C1992 C 0.88619 0.70226 0.94949 0.0
C1993 C 0.88538 0.68802 0.94407 0.0
C1994 C 0.87423 0.67833 0.93113 0.0
C1995 C 0.86337 0.68214 0.92469 0.0
C1996 C 0.84279 0.69352 0.95619 0.0
C1997 C 0.84642 0.70517 0.96903 0.0
C1998 C 0.84969 0.70287 0.98531 0.0
C1999 C 0.84935 0.68885 0.98903 0.0
C2000 C 0.84556 0.67713 0.97612 0.0
C2001 C 0.84225 0.67942 0.95986 0.0
C2002 C 0.81361 0.692 0.9467 0.0
C2003 C 0.80912 0.70276 0.95232 0.0
C2004 C 0.79654 0.69791 0.96237 0.0
C2005 C 0.78836 0.68225 0.96706 0.0
C2006 C 0.79335 0.67173 0.9619 0.0
C2007 C 0.80575 0.67653 0.95172 0.0
C2008 C 0.80802 0.69909 0.91349 0.0
C2009 C 0.80892 0.71322 0.90934 0.0
C2010 C 0.7953 0.7135 0.90486 0.0
C2011 C 0.78053 0.69962 0.90445 0.0
C2012 C 0.7797 0.68546 0.90857 0.0
C2013 C 0.79334 0.6852 0.91299 0.0
C2014 C 0.82852 0.70111 0.88822 0.0
C2015 C 0.83662 0.71495 0.87991 0.0
C2016 C 0.83193 0.71531 0.86343 0.0
C2017 C 0.81915 0.70178 0.85506 0.0
C2018 C 0.81124 0.68792 0.86346 0.0
C2019 C 0.81591 0.68758 0.87985 0.0
C2020 C 0.85708 0.70088 0.8969 0.0
C2021 C 0.87219 0.71405 0.89661 0.0
C2022 C 0.88173 0.71487 0.88392 0.0
C2023 C 0.87628 0.7025 0.87136 0.0
C2024 C 0.86115 0.68929 0.87185 0.0
C2025 C 0.8517 0.68846 0.88454 0.0
C2026 C 0.85295 0.6865 0.00632 0.0
C2027 C 0.76602 0.69986 0.89973 0.0
H2028 H 0.83139 0.67401 0.3743 0.0
H2029 H 0.90342 0.61445 0.50006 0.0
H2030 H 0.82235 0.67025 0.46745 0.0
H2031 H 0.8043 0.67821 0.4563 0.0
H2032 H 0.7686 0.629 0.4462 0.0
H2033 H 0.7867 0.62119 0.458 0.0
H2034 H 0.84578 0.66963 0.44409 0.0
H2035 H 0.8434 0.67602 0.41558 0.0
H2036 H 0.80497 0.62823 0.4039 0.0
H2037 H 0.80759 0.62198 0.43243 0.0
H2038 H 0.86962 0.66557 0.46612 0.0
H2039 H 0.89074 0.67324 0.44754 0.0
H2040 H 0.86197 0.63008 0.41653 0.0
H2041 H 0.84083 0.62234 0.43546 0.0
H2042 H 0.86742 0.65646 0.50079 0.0
H2043 H 0.88935 0.6533 0.5104 0.0
H2044 H 0.86915 0.60895 0.48047 0.0
H2045 H 0.84718 0.61217 0.47112 0.0
H2046 H 0.83973 0.65803 0.51592 0.0
H2047 H 0.84704 0.65747 0.54487 0.0
H2048 H 0.83817 0.60991 0.53477 0.0
H2049 H 0.82974 0.61022 0.50593 0.0
H2050 H 0.81849 0.66297 0.49965 0.0
H2051 H 0.80236 0.66326 0.52172 0.0
H2052 H 0.77865 0.6123 0.52051 0.0
H2053 H 0.795 0.6121 0.49848 0.0
O2054 O 0.83218 0.67121 0.38548 0.0
O2055 O 0.81246 0.64651 0.38013 0.0
O2056 O 0.90473 0.63882 0.51171 0.0
O2057 O 0.89488 0.61599 0.49647 0.0
C2058 C 0.81739 0.64072 0.46882 0.0
C2059 C 0.82826 0.64152 0.45758 0.0
C2060 C 0.84084 0.63958 0.46308 0.0
C2061 C 0.84223 0.63627 0.47969 0.0
C2062 C 0.83126 0.63537 0.49093 0.0
C2063 C 0.81881 0.63758 0.48545 0.0
C2064 C 0.80576 0.64518 0.46353 0.0
C2065 C 0.81054 0.66121 0.46307 0.0
C2066 C 0.80026 0.66572 0.45655 0.0
C2067 C 0.78507 0.65423 0.45019 0.0
C2068 C 0.78017 0.63812 0.45114 0.0
C2069 C 0.79047 0.63363 0.45781 0.0
C2070 C 0.82693 0.64532 0.44024 0.0
C2071 C 0.83693 0.66055 0.43531 0.0
C2072 C 0.83551 0.66417 0.41904 0.0
C2073 C 0.824 0.65263 0.40745 0.0
C2074 C 0.81397 0.63738 0.4125 0.0
C2075 C 0.81543 0.63377 0.42877 0.0
C2076 C 0.85377 0.64337 0.45217 0.0
C2077 C 0.86794 0.65768 0.45542 0.0
C2078 C 0.87991 0.66212 0.44471 0.0
C2079 C 0.87792 0.65232 0.43051 0.0
C2080 C 0.86381 0.63781 0.42742 0.0
C2081 C 0.85176 0.63339 0.43816 0.0
C2082 C 0.85564 0.63445 0.4854 0.0
C2083 C 0.8677 0.64602 0.49642 0.0
C2084 C 0.88024 0.64421 0.50184 0.0
C2085 C 0.88098 0.63084 0.49623 0.0
C2086 C 0.86893 0.61936 0.48506 0.0
C2087 C 0.85638 0.62117 0.47968 0.0
C2088 C 0.83402 0.6341 0.50885 0.0
C2089 C 0.83883 0.64729 0.52007 0.0
C2090 C 0.84327 0.64703 0.53657 0.0
C2091 C 0.84341 0.63373 0.54211 0.0
C2092 C 0.83806 0.62029 0.53097 0.0
C2093 C 0.83333 0.62047 0.51447 0.0
C2094 C 0.80785 0.63751 0.49745 0.0
C2095 C 0.80963 0.65186 0.50394 0.0
C2096 C 0.80053 0.65201 0.5166 0.0
C2097 C 0.78935 0.6378 0.5228 0.0
C2098 C 0.78714 0.62339 0.51584 0.0
C2099 C 0.79644 0.62326 0.50332 0.0
C2100 C 0.82248 0.65653 0.39019 0.0
C2101 C 0.89426 0.62885 0.50197 0.0
H2102 H 0.32867 0.16728 0.39478 0.0
H2103 H 0.39971 0.29538 0.54052 0.0
H2104 H 0.3392 0.15941 0.48367 0.0
H2105 H 0.33093 0.13267 0.4724 0.0
H2106 H 0.37941 0.1447 0.47328 0.0
H2107 H 0.38752 0.17143 0.48503 0.0
H2108 H 0.33808 0.18455 0.46625 0.0
H2109 H 0.32974 0.17658 0.4368 0.0
H2110 H 0.37564 0.18403 0.42774 0.0
H2111 H 0.38387 0.19213 0.45722 0.0
H2112 H 0.34291 0.20998 0.49111 0.0
H2113 H 0.33453 0.22537 0.47535 0.0
H2114 H 0.3765 0.24365 0.4486 0.0
H2115 H 0.38457 0.22772 0.46426 0.0
H2116 H 0.35535 0.21702 0.52646 0.0
H2117 H 0.35998 0.24172 0.54057 0.0
H2118 H 0.40232 0.26762 0.51505 0.0
H2119 H 0.39768 0.24276 0.50124 0.0
H2120 H 0.35709 0.18958 0.5402 0.0
H2121 H 0.36002 0.20128 0.56831 0.0
H2122 H 0.40676 0.23841 0.5597 0.0
H2123 H 0.40374 0.2265 0.5315 0.0
H2124 H 0.3493 0.16115 0.51879 0.0
H2125 H 0.35025 0.14324 0.53817 0.0
H2126 H 0.40082 0.17194 0.54323 0.0
H2127 H 0.39968 0.19 0.52391 0.0
O2128 O 0.33223 0.17054 0.40636 0.0
O2129 O 0.356 0.17449 0.40238 0.0
O2130 O 0.37578 0.27154 0.54797 0.0
O2131 O 0.39744 0.28548 0.53486 0.0
C2132 C 0.36865 0.18352 0.49186 0.0
C2133 C 0.36668 0.19381 0.48168 0.0
C2134 C 0.36907 0.20836 0.48865 0.0
C2135 C 0.37415 0.21296 0.50556 0.0
C2136 C 0.37653 0.20285 0.51568 0.0
C2137 C 0.37357 0.18803 0.50887 0.0
C2138 C 0.36395 0.16734 0.48504 0.0
C2139 C 0.34802 0.15626 0.48138 0.0
C2140 C 0.34334 0.14102 0.47487 0.0
C2141 C 0.35452 0.13657 0.4718 0.0
C2142 C 0.3705 0.14771 0.47563 0.0
C2143 C 0.37518 0.16298 0.48224 0.0
C2144 C 0.36162 0.18907 0.4638 0.0
C2145 C 0.34635 0.18458 0.45785 0.0
C2146 C 0.3416 0.17998 0.44104 0.0
C2147 C 0.35203 0.1797 0.4299 0.0
C2148 C 0.36732 0.18414 0.43597 0.0
C2149 C 0.37206 0.18877 0.45278 0.0
C2150 C 0.36436 0.21785 0.47886 0.0
C2151 C 0.35029 0.21734 0.48186 0.0
C2152 C 0.34558 0.2262 0.47291 0.0
C2153 C 0.35493 0.23587 0.46083 0.0
C2154 C 0.369 0.23624 0.45773 0.0
C2155 C 0.37367 0.22725 0.46669 0.0
C2156 C 0.37626 0.22811 0.51295 0.0
C2157 C 0.36559 0.22805 0.52391 0.0
C2158 C 0.36826 0.24217 0.53194 0.0
C2159 C 0.38158 0.25664 0.52901 0.0
C2160 C 0.39199 0.25668 0.51764 0.0
C2161 C 0.38934 0.24252 0.50968 0.0
C2162 C 0.38019 0.20721 0.5338 0.0
C2163 C 0.36823 0.19982 0.54462 0.0
C2164 C 0.36991 0.20658 0.56068 0.0
C2165 C 0.38355 0.22089 0.56613 0.0
C2166 C 0.39605 0.22749 0.55575 0.0
C2167 C 0.3944 0.22064 0.53972 0.0
C2168 C 0.37442 0.17677 0.51987 0.0
C2169 C 0.36059 0.16343 0.5239 0.0
C2170 C 0.36117 0.15319 0.53493 0.0
C2171 C 0.37563 0.15612 0.54217 0.0
C2172 C 0.38951 0.16944 0.53795 0.0
C2173 C 0.3889 0.1797 0.52689 0.0
C2174 C 0.34694 0.17477 0.41205 0.0
C2175 C 0.38469 0.27163 0.53786 0.0
H2176 H 0.8068 0.17162 0.37261 0.0
H2177 H 0.93764 0.27782 0.50111 0.0
H2178 H 0.79714 0.18092 0.45816 0.0
H2179 H 0.77396 0.15515 0.44937 0.0
H2180 H 0.79412 0.13192 0.47646 0.0
H2181 H 0.81722 0.15757 0.48495 0.0
H2182 H 0.82631 0.20676 0.43776 0.0
H2183 H 0.81784 0.1958 0.40896 0.0
H2184 H 0.8212 0.15505 0.42088 0.0
H2185 H 0.82984 0.16624 0.44958 0.0
H2186 H 0.85994 0.2362 0.454 0.0
H2187 H 0.8813 0.24817 0.43541 0.0
H2188 H 0.8834 0.20522 0.43257 0.0
H2189 H 0.86242 0.19357 0.45147 0.0
H2190 H 0.85965 0.24341 0.49414 0.0
H2191 H 0.8854 0.267 0.50103 0.0
H2192 H 0.90755 0.23975 0.48948 0.0
H2193 H 0.88175 0.21623 0.48284 0.0
H2194 H 0.83373 0.22142 0.51835 0.0
H2195 H 0.84385 0.23114 0.54727 0.0
H2196 H 0.87558 0.21322 0.54292 0.0
H2197 H 0.86574 0.20405 0.51406 0.0
H2198 H 0.79981 0.18848 0.49887 0.0
H2199 H 0.78276 0.1733 0.52043 0.0
H2200 H 0.81783 0.16266 0.53837 0.0
H2201 H 0.83457 0.17746 0.51665 0.0
O2202 O 0.81026 0.17578 0.38403 0.0
O2203 O 0.81209 0.15503 0.39083 0.0
O2204 O 0.91535 0.28213 0.50444 0.0
O2205 O 0.92732 0.26868 0.49851 0.0
C2206 C 0.82361 0.18641 0.47611 0.0
C2207 C 0.83352 0.1939 0.46327 0.0
C2208 C 0.84838 0.20751 0.46712 0.0
C2209 C 0.85319 0.2139 0.48374 0.0
C2210 C 0.8433 0.20643 0.49656 0.0
C2211 C 0.82851 0.19268 0.49277 0.0
C2212 C 0.80882 0.1711 0.47223 0.0
C2213 C 0.79642 0.17026 0.46233 0.0
C2214 C 0.78325 0.15557 0.45731 0.0
C2215 C 0.78225 0.14156 0.46226 0.0
C2216 C 0.79446 0.14253 0.47266 0.0
C2217 C 0.80766 0.15716 0.47751 0.0
C2218 C 0.82857 0.18724 0.44577 0.0
C2219 C 0.82524 0.19549 0.4341 0.0
C2220 C 0.82039 0.18919 0.41768 0.0
C2221 C 0.81879 0.17452 0.41263 0.0
C2222 C 0.82226 0.16634 0.42436 0.0
C2223 C 0.82715 0.17268 0.44077 0.0
C2224 C 0.85967 0.21405 0.45408 0.0
C2225 C 0.86488 0.22934 0.44914 0.0
C2226 C 0.87701 0.2361 0.43849 0.0
C2227 C 0.88409 0.22766 0.43264 0.0
C2228 C 0.87832 0.21208 0.43705 0.0
C2229 C 0.86624 0.20536 0.4477 0.0
C2230 C 0.86886 0.22817 0.48787 0.0
C2231 C 0.87009 0.24258 0.49312 0.0
C2232 C 0.8848 0.25602 0.49704 0.0
C2233 C 0.89854 0.25527 0.49576 0.0
C2234 C 0.89722 0.24076 0.49056 0.0
C2235 C 0.88251 0.22732 0.4867 0.0
C2236 C 0.84913 0.21219 0.51412 0.0
C2237 C 0.8429 0.21967 0.5237 0.0
C2238 C 0.84862 0.22511 0.54022 0.0
C2239 C 0.86061 0.22306 0.54738 0.0
C2240 C 0.8666 0.21531 0.53771 0.0
C2241 C 0.86096 0.21 0.52125 0.0
C2242 C 0.81851 0.18425 0.50633 0.0
C2243 C 0.80381 0.18294 0.50753 0.0
C2244 C 0.7941 0.17426 0.51979 0.0
C2245 C 0.79905 0.16693 0.53112 0.0
C2246 C 0.81385 0.16843 0.52998 0.0
C2247 C 0.82343 0.1769 0.51762 0.0
C2248 C 0.81352 0.16781 0.3952 0.0
C2249 C 0.9142 0.26953 0.49985 0.0
H2250 H -5e-05 0.51843 0.34163 0.0
H2251 H 0.01278 0.40951 0.21159 0.0
H2252 H 0.97447 0.50902 0.25377 0.0
H2253 H 0.97836 0.53507 0.26237 0.0
H2254 H 0.02332 0.55723 0.24097 0.0
H2255 H 0.01893 0.53121 0.23185 0.0
H2256 H 0.97881 0.48341 0.27644 0.0
H2257 H 0.98352 0.49454 0.30521 0.0
H2258 H 0.02862 0.53301 0.29374 0.0
H2259 H 0.02383 0.52165 0.26507 0.0
H2260 H 0.98002 0.45257 0.26013 0.0
H2261 H 0.98888 0.43883 0.27825 0.0
H2262 H 0.0357 0.47961 0.28201 0.0
H2263 H 0.02682 0.49305 0.26353 0.0
H2264 H 0.97111 0.44533 0.22043 0.0
H2265 H 0.97218 0.42149 0.21289 0.0
H2266 H 0.02235 0.44762 0.22439 0.0
H2267 H 0.02113 0.47141 0.23165 0.0
H2268 H 0.96585 0.46661 0.19699 0.0
H2269 H 0.963 0.45255 0.16993 0.0
H2270 H 0.01275 0.46985 0.17325 0.0
H2271 H 0.01549 0.48385 0.20007 0.0
H2272 H 0.96647 0.49947 0.21689 0.0
H2273 H 0.96199 0.51445 0.19609 0.0
H2274 H 0.00619 0.52647 0.17617 0.0
H2275 H 0.01058 0.51151 0.19703 0.0
O2276 O 0.99836 0.5142 0.33022 0.0
O2277 O 0.0214 0.53376 0.32366 0.0
O2278 O 0.98622 0.40589 0.20862 0.0
O2279 O 0.01201 0.41874 0.21454 0.0
C2280 C 0.99491 0.50269 0.23836 0.0
C2281 C 0.9979 0.49503 0.25121 0.0
C2282 C 0.99817 0.48103 0.2474 0.0
C2283 C 0.99536 0.47461 0.23079 0.0
C2284 C 0.99236 0.48227 0.21795 0.0
C2285 C 0.99194 0.49621 0.22175 0.0
C2286 C 0.99641 0.5183 0.24219 0.0
C2287 C 0.98501 0.51955 0.25073 0.0
C2288 C 0.98734 0.53443 0.25574 0.0
C2289 C 0.00122 0.54829 0.25248 0.0
C2290 C 0.01239 0.54688 0.24348 0.0
C2291 C 0.00995 0.53202 0.23831 0.0
C2292 C 0.00092 0.50179 0.26867 0.0
C2293 C 0.98971 0.49422 0.28019 0.0
C2294 C 0.99242 0.50062 0.2966 0.0
C2295 C 0.00643 0.5147 0.30176 0.0
C2296 C 0.01769 0.52218 0.29016 0.0
C2297 C 0.01497 0.51575 0.27378 0.0
C2298 C 0.00279 0.47376 0.26051 0.0
C2299 C 0.99211 0.45861 0.26514 0.0
C2300 C 0.99718 0.45084 0.27553 0.0
C2301 C 0.01302 0.45812 0.28145 0.0
C2302 C 0.02348 0.47364 0.27747 0.0
C2303 C 0.0184 0.48138 0.26707 0.0
C2304 C 0.99602 0.46005 0.22667 0.0
C2305 C 0.98231 0.44586 0.22132 0.0
C2306 C 0.98296 0.43227 0.21703 0.0
C2307 C 0.99736 0.43264 0.21806 0.0
C2308 C 0.01107 0.44691 0.22348 0.0
C2309 C 0.01041 0.4605 0.2277 0.0
C2310 C 0.99085 0.47612 0.20049 0.0
C2311 C 0.97615 0.46763 0.19164 0.0
C2312 C 0.97455 0.45961 0.17626 0.0
C2313 C 0.98763 0.45994 0.16969 0.0
C2314 C 0.00245 0.4692 0.17819 0.0
C2315 C 0.00405 0.47726 0.19342 0.0
C2316 C 0.9888 0.50434 0.2084 0.0
C2317 C 0.97511 0.50525 0.20794 0.0
C2318 C 0.97261 0.51385 0.19613 0.0
C2319 C 0.98374 0.52163 0.18451 0.0
C2320 C 0.99731 0.52043 0.18482 0.0
C2321 C -0.00016 0.5119 0.1967 0.0
C2322 C 0.00924 0.52151 0.31918 0.0
C2323 C 0.99813 0.41826 0.21345 0.0
H2324 H 0.50224 0.50897 0.34323 0.0
H2325 H 0.41027 0.37065 0.21266 0.0
H2326 H 0.50613 0.50721 0.24842 0.0
H2327 H 0.52686 0.53371 0.25866 0.0
H2328 H 0.55827 0.51586 0.26758 0.0
H2329 H 0.53742 0.48934 0.25677 0.0
H2330 H 0.48578 0.48989 0.27233 0.0
H2331 H 0.49016 0.50012 0.30142 0.0
H2332 H 0.51699 0.47739 0.31179 0.0
H2333 H 0.51245 0.46721 0.28265 0.0
H2334 H 0.45979 0.46458 0.25631 0.0
H2335 H 0.43871 0.45348 0.27526 0.0
H2336 H 0.455 0.42274 0.29206 0.0
H2337 H 0.47638 0.43421 0.27324 0.0
H2338 H 0.45546 0.44931 0.21693 0.0
H2339 H 0.43102 0.42526 0.20699 0.0
H2340 H 0.44697 0.39711 0.23151 0.0
H2341 H 0.47142 0.42124 0.24121 0.0
H2342 H 0.48502 0.47416 0.19941 0.0
H2343 H 0.47662 0.46418 0.17049 0.0
H2344 H 0.47999 0.423 0.18025 0.0
H2345 H 0.48939 0.43367 0.20904 0.0
H2346 H 0.50813 0.50074 0.2163 0.0
H2347 H 0.52668 0.51666 0.19646 0.0
H2348 H 0.54601 0.48579 0.19647 0.0
H2349 H 0.52704 0.46968 0.21616 0.0
O2350 O 0.50061 0.50477 0.3318 0.0
O2351 O 0.51434 0.4929 0.33647 0.0
O2352 O 0.4122 0.39535 0.20396 0.0
O2353 O 0.41982 0.38034 0.21643 0.0
C2354 C 0.50729 0.48038 0.24649 0.0
C2355 C 0.49618 0.47167 0.25784 0.0
C2356 C 0.48243 0.45746 0.25231 0.0
C2357 C 0.48006 0.45156 0.23557 0.0
C2358 C 0.49137 0.46011 0.22422 0.0
C2359 C 0.50496 0.47459 0.22971 0.0
C2360 C 0.52034 0.49645 0.25188 0.0
C2361 C 0.51755 0.50908 0.25245 0.0
C2362 C 0.52936 0.52416 0.25841 0.0
C2363 C 0.54417 0.52685 0.26409 0.0
C2364 C 0.54703 0.51418 0.26317 0.0
C2365 C 0.53517 0.49905 0.25709 0.0
C2366 C 0.49874 0.47777 0.27548 0.0
C2367 C 0.49254 0.4871 0.28094 0.0
C2368 C 0.49509 0.49294 0.29755 0.0
C2369 C 0.50392 0.48956 0.30894 0.0
C2370 C 0.51013 0.4802 0.30335 0.0
C2371 C 0.50755 0.47436 0.28674 0.0
C2372 C 0.46952 0.45015 0.26346 0.0
C2373 C 0.45881 0.45546 0.26411 0.0
C2374 C 0.44688 0.44921 0.27496 0.0
C2375 C 0.44535 0.43735 0.28513 0.0
C2376 C 0.45597 0.43187 0.28429 0.0
C2377 C 0.46811 0.43835 0.2736 0.0
C2378 C 0.46519 0.43697 0.22974 0.0
C2379 C 0.45365 0.43792 0.2201 0.0
C2380 C 0.4397 0.42418 0.21446 0.0
C2381 C 0.43704 0.40925 0.21845 0.0
C2382 C 0.44864 0.4084 0.22821 0.0
C2383 C 0.46259 0.42215 0.2338 0.0
C2384 C 0.48799 0.45474 0.20629 0.0
C2385 C 0.48444 0.46324 0.19518 0.0
C2386 C 0.47938 0.45737 0.17871 0.0
C2387 C 0.47743 0.44268 0.17308 0.0
C2388 C 0.4815 0.43442 0.18412 0.0
C2389 C 0.48679 0.44044 0.20058 0.0
C2390 C 0.51636 0.48416 0.21773 0.0
C2391 C 0.51645 0.4975 0.2121 0.0
C2392 C 0.52711 0.5066 0.20082 0.0
C2393 C 0.53794 0.50259 0.195 0.0
C2394 C 0.53776 0.48913 0.20063 0.0
C2395 C 0.52701 0.47997 0.21191 0.0
C2396 C 0.50664 0.49581 0.32657 0.0
C2397 C 0.42226 0.39461 0.21248 0.0
H2398 H 0.51269 0.9979 0.35899 0.0
H2399 H 0.39633 0.98793 0.22365 0.0
H2400 H 0.53006 0.0253 0.27776 0.0
H2401 H 0.55115 0.02198 0.29 0.0
H2402 H 0.53409 0.97876 0.25889 0.0
H2403 H 0.51301 0.98215 0.24675 0.0
H2404 H 0.50043 0.01954 0.2969 0.0
H2405 H 0.50595 0.01452 0.32506 0.0
H2406 H 0.50043 0.96993 0.30627 0.0
H2407 H 0.49471 0.975 0.27823 0.0
H2408 H 0.47165 0.02023 0.27887 0.0
H2409 H 0.45083 0.01321 0.29789 0.0
H2410 H 0.44133 0.96507 0.29521 0.0
H2411 H 0.46196 0.97214 0.27594 0.0
H2412 H 0.47391 0.02858 0.24032 0.0
H2413 H 0.44963 0.02808 0.23198 0.0
H2414 H 0.42358 0.97747 0.23574 0.0
H2415 H 0.44796 0.97812 0.24386 0.0
H2416 H 0.50207 0.03419 0.22003 0.0
H2417 H 0.49495 0.03822 0.19197 0.0
H2418 H 0.45994 0.98853 0.18493 0.0
H2419 H 0.46733 0.98461 0.21275 0.0
H2420 H 0.53107 0.03335 0.2376 0.0
H2421 H 0.54919 0.0382 0.21579 0.0
H2422 H 0.51765 0.99118 0.19303 0.0
H2423 H 0.49953 0.98666 0.21461 0.0
O2424 O 0.51031 0.99957 0.34779 0.0
O2425 O 0.50752 0.97684 0.33747 0.0
O2426 O 0.42005 0.01449 0.22508 0.0
O2427 O 0.4061 0.98847 0.22692 0.0
C2428 C 0.50557 0.00423 0.2566 0.0
C2429 C 0.49434 0.00098 0.26841 0.0
C2430 C 0.4803 0.00071 0.26387 0.0
C2431 C 0.47747 0.00373 0.24756 0.0
C2432 C 0.4886 0.0068 0.23572 0.0
C2433 C 0.50264 0.00703 0.24023 0.0
C2434 C 0.52002 0.00395 0.26141 0.0
C2435 C 0.53112 0.01532 0.27333 0.0
C2436 C 0.54305 0.01335 0.28038 0.0
C2437 C 0.54413 2e-05 0.27552 0.0
C2438 C 0.5336 0.98919 0.26279 0.0
C2439 C 0.52159 0.99113 0.25582 0.0
C2440 C 0.49722 0.99766 0.28555 0.0
C2441 C 0.50032 0.00866 0.29893 0.0
C2442 C 0.50352 0.00578 0.31498 0.0
C2443 C 0.50368 0.99184 0.31791 0.0
C2444 C 0.50043 0.98079 0.30445 0.0
C2445 C 0.49718 0.98366 0.28842 0.0
C2446 C 0.46827 0.99669 0.27605 0.0
C2447 C 0.4651 0.0082 0.28247 0.0
C2448 C 0.4533 0.00419 0.2934 0.0
C2449 C 0.44446 0.98859 0.29803 0.0
C2450 C 0.44785 0.97715 0.29174 0.0
C2451 C 0.45967 0.98117 0.28084 0.0
C2452 C 0.46267 0.0034 0.24274 0.0
C2453 C 0.46294 0.0174 0.23931 0.0
C2454 C 0.44906 0.01708 0.23457 0.0
C2455 C 0.43465 0.00273 0.23321 0.0
C2456 C 0.43445 0.98872 0.23668 0.0
C2457 C 0.44835 0.98906 0.24138 0.0
C2458 C 0.48516 0.00912 0.21838 0.0
C2459 C 0.49301 0.02417 0.2123 0.0
C2460 C 0.48888 0.02646 0.19635 0.0
C2461 C 0.47689 0.01369 0.18625 0.0
C2462 C 0.46937 0.99856 0.1923 0.0
C2463 C 0.47348 0.99631 0.20822 0.0
C2464 C 0.514 0.0097 0.22759 0.0
C2465 C 0.52816 0.02412 0.22791 0.0
C2466 C 0.53849 0.02683 0.21549 0.0
C2467 C 0.53482 0.01512 0.2026 0.0
C2468 C 0.5207 0.00057 0.20257 0.0
C2469 C 0.51038 0.99791 0.21493 0.0
C2470 C 0.50727 0.98891 0.33494 0.0
C2471 C 0.41987 0.00232 0.22816 0.0
H2472 H 0.511 0.03835 0.71801 0.0
H2473 H 0.58819 0.97785 0.83469 0.0
H2474 H 0.50069 0.02895 0.80463 0.0
H2475 H 0.47969 0.03304 0.79408 0.0
H2476 H 0.44627 0.98337 0.79738 0.0
H2477 H 0.46761 0.9793 0.8072 0.0
H2478 H 0.52796 0.0316 0.78605 0.0
H2479 H 0.5247 0.03887 0.75823 0.0
H2480 H 0.48397 0.99235 0.74715 0.0
H2481 H 0.48749 0.98518 0.77495 0.0
H2482 H 0.55306 0.0261 0.80697 0.0
H2483 H 0.57343 0.03219 0.78779 0.0
H2484 H 0.54026 0.99235 0.75456 0.0
H2485 H 0.52021 0.98578 0.77443 0.0
H2486 H 0.54931 0.01671 0.84235 0.0
H2487 H 0.57183 0.01395 0.85044 0.0
H2488 H 0.55351 0.9724 0.81624 0.0
H2489 H 0.53095 0.97519 0.80842 0.0
H2490 H 0.51985 0.01423 0.8599 0.0
H2491 H 0.52675 0.01025 0.88788 0.0
H2492 H 0.52099 0.96533 0.86995 0.0
H2493 H 0.5132 0.96904 0.84218 0.0
H2494 H 0.49544 0.01951 0.84133 0.0
H2495 H 0.47709 0.01634 0.86226 0.0
H2496 H 0.46212 0.96667 0.86229 0.0
H2497 H 0.48019 0.96988 0.84093 0.0
O2498 O 0.51212 0.0352 0.72893 0.0
O2499 O 0.49121 0.01116 0.72389 0.0
O2500 O 0.58825 0.00057 0.8492 0.0
O2501 O 0.57939 0.97921 0.83173 0.0
C2502 C 0.49882 0.00121 0.81111 0.0
C2503 C 0.50992 0.0035 0.79944 0.0
C2504 C 0.52293 0.00188 0.80399 0.0
C2505 C 0.5247 0.99769 0.8201 0.0
C2506 C 0.51352 0.99527 0.83174 0.0
C2507 C 0.50057 0.99702 0.82722 0.0
C2508 C 0.48568 0.00381 0.80649 0.0
C2509 C 0.48881 0.01898 0.80314 0.0
C2510 C 0.47675 0.0213 0.79727 0.0
C2511 C 0.46128 0.00852 0.79483 0.0
C2512 C 0.4581 0.99342 0.79888 0.0
C2513 C 0.47022 0.99108 0.80461 0.0
C2514 C 0.508 0.00785 0.78248 0.0
C2515 C 0.51841 0.02297 0.77756 0.0
C2516 C 0.51648 0.0271 0.76168 0.0
C2517 C 0.50407 0.01618 0.75046 0.0
C2518 C 0.49366 0.00103 0.75547 0.0
C2519 C 0.49562 0.99691 0.77134 0.0
C2520 C 0.5352 0.00544 0.79215 0.0
C2521 C 0.55026 0.01859 0.79563 0.0
C2522 C 0.56182 0.02217 0.78452 0.0
C2523 C 0.55848 0.01283 0.76954 0.0
C2524 C 0.5433 -0.00031 0.76606 0.0
C2525 C 0.53179 0.99598 0.77732 0.0
C2526 C 0.53847 0.9961 0.82487 0.0
C2527 C 0.55015 0.00698 0.83668 0.0
C2528 C 0.56302 0.0054 0.84125 0.0
C2529 C 0.56446 0.99294 0.83399 0.0
C2530 C 0.55276 0.98212 0.82208 0.0
C2531 C 0.53987 0.98369 0.81756 0.0
C2532 C 0.51605 0.99194 0.849 0.0
C2533 C 0.5197 0.00336 0.86211 0.0
C2534 C 0.52384 0.00114 0.87805 0.0
C2535 C 0.52464 0.98756 0.88113 0.0
C2536 C 0.52037 0.97585 0.86807 0.0
C2537 C 0.51603 0.978 0.85216 0.0
C2538 C 0.48909 0.99492 0.83958 0.0
C2539 C 0.48806 0.00792 0.84573 0.0
C2540 C 0.47769 0.00611 0.85779 0.0
C2541 C 0.4682 0.99126 0.86398 0.0
C2542 C 0.46915 0.97822 0.85764 0.0
C2543 C 0.47951 0.98004 0.84554 0.0
C2544 C 0.50203 0.02063 0.73362 0.0
C2545 C 0.5781 0.99119 0.83881 0.0
H2546 H 0.96626 0.47375 0.73284 0.0
H2547 H 0.02941 0.61271 0.8599 0.0
H2548 H 0.98002 0.4739 0.82026 0.0
H2549 H 0.97457 0.44757 0.81095 0.0
H2550 H 0.02372 0.46293 0.81997 0.0
H2551 H 0.02917 0.48962 0.82824 0.0
H2552 H 0.97607 0.49758 0.80249 0.0
H2553 H 0.96755 0.48689 0.77364 0.0
H2554 H 0.01353 0.49373 0.76633 0.0
H2555 H 0.02195 0.50458 0.79517 0.0
H2556 H 0.98098 0.52649 0.8257 0.0
H2557 H 0.97318 0.54137 0.80814 0.0
H2558 H 0.01219 0.55256 0.77826 0.0
H2559 H 0.02011 0.5378 0.79614 0.0
H2560 H 0.99326 0.53418 0.86125 0.0
H2561 H 0.99563 0.55936 0.8707 0.0
H2562 H 0.03497 0.58391 0.8406 0.0
H2563 H 0.03263 0.55865 0.83148 0.0
H2564 H 0.99777 0.50873 0.87798 0.0
H2565 H 0.00186 0.52188 0.90564 0.0
H2566 H 0.04573 0.56086 0.89221 0.0
H2567 H 0.0418 0.54732 0.86477 0.0
H2568 H 0.9921 0.47831 0.85831 0.0
H2569 H 0.99705 0.46245 0.87737 0.0
H2570 H 0.04636 0.49784 0.88172 0.0
H2571 H 0.04133 0.51335 0.86205 0.0
O2572 O 0.96989 0.47807 0.74419 0.0
O2573 O 0.9937 0.48177 0.7411 0.0
O2574 O 0.00811 0.58942 0.87185 0.0
O2575 O 0.02823 0.60259 0.85639 0.0
C2576 C 0.00812 0.49982 0.8299 0.0
C2577 C 0.00483 0.5084 0.81842 0.0
C2578 C 0.00627 0.523 0.82371 0.0
C2579 C 0.01155 0.52931 0.84027 0.0
C2580 C 0.01518 0.5209 0.85168 0.0
C2581 C 0.01335 0.5061 0.84654 0.0
C2582 C 0.005 0.48372 0.82474 0.0
C2583 C 0.98963 0.47161 0.82007 0.0
C2584 C 0.98651 0.45649 0.81498 0.0
C2585 C 0.99869 0.45306 0.81476 0.0
C2586 C 0.01409 0.46519 0.81976 0.0
C2587 C 0.01722 0.48042 0.82461 0.0
C2588 C -0.00034 0.50196 0.80087 0.0
C2589 C 0.98432 0.49687 0.79459 0.0
C2590 C 0.97947 0.49071 0.77813 0.0
C2591 C 0.98987 0.48947 0.76766 0.0
C2592 C 0.00523 0.49454 0.77404 0.0
C2593 C 0.01007 0.50073 0.7905 0.0
C2594 C 0.0012 0.53124 0.81228 0.0
C2595 C 0.98785 0.53216 0.81537 0.0
C2596 C 0.98342 0.54064 0.80536 0.0
C2597 C 0.99217 0.54818 0.79195 0.0
C2598 C 0.00524 0.54679 0.7885 0.0
C2599 C 0.00978 0.53843 0.79867 0.0
C2600 C 0.01285 0.54462 0.84579 0.0
C2601 C 0.00244 0.54502 0.8568 0.0
C2602 C 0.00379 0.55941 0.86213 0.0
C2603 C 0.01551 0.57366 0.85642 0.0
C2604 C 0.02583 0.57317 0.84526 0.0
C2605 C 0.02451 0.55877 0.84 0.0
C2606 C 0.01945 0.52711 0.86935 0.0
C2607 C 0.00853 0.51983 0.88122 0.0
C2608 C 0.01079 0.52745 0.89694 0.0
C2609 C 0.02398 0.54253 0.901 0.0
C2610 C 0.03549 0.54923 0.8895 0.0
C2611 C 0.03326 0.54154 0.87381 0.0
C2612 C 0.01637 0.4969 0.85872 0.0
C2613 C 0.00397 0.4826 0.86334 0.0
C2614 C 0.00682 0.47363 0.87434 0.0
C2615 C 0.02211 0.4789 0.88109 0.0
C2616 C 0.03449 0.49337 0.87659 0.0
C2617 C 0.03163 0.5023 0.86548 0.0
C2618 C 0.98467 0.48289 0.75018 0.0
C2619 C 0.01701 0.58899 0.86205 0.0
H2620 H 0.47992 0.49556 0.7148 0.0
H2621 H 0.60712 0.61332 0.84148 0.0
H2622 H 0.46865 0.51353 0.79735 0.0
H2623 H 0.44616 0.48761 0.78773 0.0
H2624 H 0.46416 0.46505 0.81916 0.0
H2625 H 0.48668 0.49092 0.82851 0.0
H2626 H 0.49777 0.53611 0.77644 0.0
H2627 H 0.49002 0.5227 0.74852 0.0
H2628 H 0.49382 0.4839 0.76671 0.0
H2629 H 0.50176 0.49754 0.7945 0.0
H2630 H 0.52963 0.56628 0.79122 0.0
H2631 H 0.55004 0.57628 0.77138 0.0
H2632 H 0.55554 0.5357 0.77694 0.0
H2633 H 0.53497 0.52571 0.79639 0.0
H2634 H 0.52911 0.57707 0.831 0.0
H2635 H 0.55444 0.60133 0.83731 0.0
H2636 H 0.57787 0.57444 0.83189 0.0
H2637 H 0.55247 0.55026 0.8258 0.0
H2638 H 0.50287 0.557 0.85569 0.0
H2639 H 0.51284 0.56977 0.88383 0.0
H2640 H 0.5454 0.55265 0.88492 0.0
H2641 H 0.53559 0.54027 0.85686 0.0
H2642 H 0.47003 0.5237 0.83771 0.0
H2643 H 0.45205 0.50962 0.85903 0.0
H2644 H 0.48585 0.49873 0.88052 0.0
H2645 H 0.50367 0.51281 0.85929 0.0
O2646 O 0.48314 0.50072 0.7259 0.0
O2647 O 0.48513 0.48102 0.73591 0.0
O2648 O 0.58433 0.61718 0.8418 0.0
O2649 O 0.59695 0.60391 0.83905 0.0
C2650 C 0.49418 0.51937 0.81721 0.0
C2651 C 0.50457 0.52579 0.80448 0.0
C2652 C 0.51929 0.53963 0.808 0.0
C2653 C 0.52355 0.54728 0.82415 0.0
C2654 C 0.51329 0.54075 0.83694 0.0
C2655 C 0.49859 0.5268 0.83348 0.0
C2656 C 0.47928 0.5041 0.81362 0.0
C2657 C 0.46756 0.503 0.80238 0.0
C2658 C 0.45479 0.48822 0.79685 0.0
C2659 C 0.45348 0.47434 0.80264 0.0
C2660 C 0.46479 0.47556 0.81462 0.0
C2661 C 0.47763 0.49032 0.82 0.0
C2662 C 0.50023 0.51775 0.78748 0.0
C2663 C 0.49699 0.52474 0.77433 0.0
C2664 C 0.49253 0.51704 0.75842 0.0
C2665 C 0.49124 0.50219 0.75539 0.0
C2666 C 0.49465 0.4953 0.76861 0.0
C2667 C 0.49916 0.50304 0.7845 0.0
C2668 C 0.53085 0.54529 0.79518 0.0
C2669 C 0.53517 0.55952 0.78797 0.0
C2670 C 0.54686 0.56522 0.77674 0.0
C2671 C 0.55444 0.55679 0.7726 0.0
C2672 C 0.54979 0.54235 0.77963 0.0
C2673 C 0.53809 0.53666 0.7908 0.0
C2674 C 0.53898 0.56196 0.82783 0.0
C2675 C 0.53974 0.57647 0.83119 0.0
C2676 C 0.55422 0.59029 0.83477 0.0
C2677 C 0.5682 0.58983 0.83506 0.0
C2678 C 0.56735 0.57523 0.83173 0.0
C2679 C 0.55287 0.56141 0.82819 0.0
C2680 C 0.51862 0.54786 0.85423 0.0
C2681 C 0.51212 0.55601 0.86209 0.0
C2682 C 0.51779 0.56323 0.87815 0.0
C2683 C 0.53004 0.56237 0.88654 0.0
C2684 C 0.53622 0.55385 0.87868 0.0
C2685 C 0.53058 0.54669 0.86269 0.0
C2686 C 0.48818 0.51937 0.84705 0.0
C2687 C 0.47358 0.51841 0.84716 0.0
C2688 C 0.46332 0.51032 0.85927 0.0
C2689 C 0.46755 0.50311 0.87148 0.0
C2690 C 0.48235 0.5044 0.87148 0.0
C2691 C 0.49255 0.51242 0.85936 0.0
C2692 C 0.48634 0.49396 0.73851 0.0
C2693 C 0.58361 0.60449 0.83885 0.0
H2694 H 0.64119 0.83638 0.67807 0.0
H2695 H 0.64042 0.71939 0.54979 0.0
H2696 H 0.61351 0.8263 0.59277 0.0
H2697 H 0.61921 0.85298 0.60186 0.0
H2698 H 0.66073 0.873 0.5744 0.0
H2699 H 0.65511 0.84641 0.5656 0.0
H2700 H 0.61607 0.80004 0.61386 0.0
H2701 H 0.62249 0.81187 0.64245 0.0
H2702 H 0.66747 0.84868 0.62851 0.0
H2703 H 0.66097 0.83662 0.60003 0.0
H2704 H 0.61458 0.76895 0.5992 0.0
H2705 H 0.62353 0.75478 0.61684 0.0
H2706 H 0.67146 0.79185 0.61378 0.0
H2707 H 0.66254 0.80606 0.59638 0.0
H2708 H 0.60369 0.7602 0.55974 0.0
H2709 H 0.60253 0.73501 0.55329 0.0
H2710 H 0.65312 0.75889 0.55946 0.0
H2711 H 0.65409 0.78401 0.56567 0.0
H2712 H 0.60062 0.77963 0.53418 0.0
H2713 H 0.59837 0.76745 0.5061 0.0
H2714 H 0.6487 0.78867 0.50799 0.0
H2715 H 0.6508 0.80043 0.53595 0.0
H2716 H 0.6051 0.81829 0.55097 0.0
H2717 H 0.60375 0.83416 0.52895 0.0
H2718 H 0.64795 0.8418 0.51283 0.0
H2719 H 0.64939 0.82634 0.53496 0.0
O2720 O 0.63893 0.83185 0.66672 0.0
O2721 O 0.66187 0.85055 0.65889 0.0
O2722 O 0.61456 0.71751 0.54892 0.0
O2723 O 0.64053 0.72919 0.5522 0.0
C2724 C 0.63158 0.81846 0.57462 0.0
C2725 C 0.63394 0.81041 0.58751 0.0
C2726 C 0.63309 0.79581 0.58376 0.0
C2727 C 0.62956 0.78908 0.56725 0.0
C2728 C 0.62742 0.7972 0.55438 0.0
C2729 C 0.62844 0.8119 0.55801 0.0
C2730 C 0.63385 0.83444 0.57846 0.0
C2731 C 0.6237 0.83647 0.58855 0.0
C2732 C 0.627 0.85166 0.59377 0.0
C2733 C 0.64041 0.86503 0.58883 0.0
C2734 C 0.65021 0.86292 0.57821 0.0
C2735 C 0.647 0.84775 0.57315 0.0
C2736 C 0.638 0.81754 0.60487 0.0
C2737 C 0.62731 0.81063 0.61704 0.0
C2738 C 0.631 0.81743 0.63334 0.0
C2739 C 0.64547 0.83125 0.63776 0.0
C2740 C 0.65621 0.83807 0.62552 0.0
C2741 C 0.65252 0.83123 0.60924 0.0
C2742 C 0.63793 0.78853 0.59662 0.0
C2743 C 0.62696 0.77419 0.60273 0.0
C2744 C 0.63205 0.76615 0.61273 0.0
C2745 C 0.64812 0.77235 0.61657 0.0
C2746 C 0.65901 0.78699 0.611 0.0
C2747 C 0.65394 0.79508 0.60117 0.0
C2748 C 0.62895 0.77387 0.56326 0.0
C2749 C 0.61449 0.75995 0.55965 0.0
C2750 C 0.61387 0.74559 0.556 0.0
C2751 C 0.62774 0.74493 0.5559 0.0
C2752 C 0.64222 0.75897 0.55946 0.0
C2753 C 0.64282 0.77332 0.56305 0.0
C2754 C 0.62588 0.79099 0.53695 0.0
C2755 C 0.61113 0.78177 0.52837 0.0
C2756 C 0.60986 0.77482 0.51245 0.0
C2757 C 0.62338 0.77727 0.50488 0.0
C2758 C 0.63813 0.78682 0.51342 0.0
C2759 C 0.63935 0.7935 0.52937 0.0
C2760 C 0.62719 0.8209 0.54434 0.0
C2761 C 0.61442 0.82332 0.54259 0.0
C2762 C 0.61369 0.83239 0.53008 0.0
C2763 C 0.62566 0.83904 0.51909 0.0
C2764 C 0.6384 0.83654 0.5209 0.0
C2765 C 0.63921 0.82767 0.53349 0.0
C2766 C 0.64931 0.83851 0.65506 0.0
C2767 C 0.62715 0.7297 0.55212 0.0
H2768 H 0.16229 0.82713 0.68715 0.0
H2769 H 0.08446 0.70042 0.54564 0.0
H2770 H 0.17469 0.83561 0.59969 0.0
H2771 H 0.19585 0.8615 0.61085 0.0
H2772 H 0.22912 0.84572 0.605 0.0
H2773 H 0.20774 0.81977 0.5935 0.0
H2774 H 0.14813 0.81124 0.61559 0.0
H2775 H 0.15058 0.81896 0.64524 0.0
H2776 H 0.18766 0.80828 0.65252 0.0
H2777 H 0.18496 0.80043 0.62285 0.0
H2778 H 0.12364 0.78534 0.58838 0.0
H2779 H 0.10164 0.7733 0.60589 0.0
H2780 H 0.12683 0.75726 0.6366 0.0
H2781 H 0.1487 0.76895 0.61854 0.0
H2782 H 0.12696 0.77928 0.55336 0.0
H2783 H 0.10409 0.75498 0.54097 0.0
H2784 H 0.11874 0.72735 0.5686 0.0
H2785 H 0.14169 0.75174 0.58072 0.0
H2786 H 0.15708 0.80754 0.54083 0.0
H2787 H 0.14987 0.79925 0.51133 0.0
H2788 H 0.15401 0.75812 0.5184 0.0
H2789 H 0.16153 0.76668 0.54798 0.0
H2790 H 0.18111 0.8353 0.565 0.0
H2791 H 0.1996 0.85322 0.54617 0.0
H2792 H 0.21332 0.8189 0.53372 0.0
H2793 H 0.19516 0.80116 0.55316 0.0
O2794 O 0.16149 0.82398 0.67548 0.0
O2795 O 0.18055 0.81839 0.67854 0.0
O2796 O 0.08646 0.72496 0.53633 0.0
O2797 O 0.09339 0.71021 0.55038 0.0
C2798 C 0.17664 0.81026 0.58888 0.0
C2799 C 0.1648 0.80044 0.59911 0.0
C2800 C 0.15139 0.78653 0.5921 0.0
C2801 C 0.15017 0.782 0.57503 0.0
C2802 C 0.16209 0.79175 0.56478 0.0
C2803 C 0.17525 0.806 0.57168 0.0
C2804 C 0.18968 0.8258 0.59595 0.0
C2805 C 0.18653 0.8377 0.60096 0.0
C2806 C 0.19863 0.85247 0.60738 0.0
C2807 C 0.21415 0.85563 0.60895 0.0
C2808 C 0.2173 0.84367 0.60384 0.0
C2809 C 0.20513 0.82885 0.59736 0.0
C2810 C 0.16627 0.80513 0.61712 0.0
C2811 C 0.15669 0.81047 0.62364 0.0
C2812 C 0.15816 0.81492 0.64057 0.0
C2813 C 0.1693 0.81421 0.65127 0.0
C2814 C 0.17894 0.80895 0.64464 0.0
C2815 C 0.17744 0.80446 0.62771 0.0
C2816 C 0.13771 0.77794 0.60214 0.0
C2817 C 0.1243 0.77899 0.59872 0.0
C2818 C 0.11184 0.77229 0.60887 0.0
C2819 C 0.11259 0.76451 0.62276 0.0
C2820 C 0.1259 0.76312 0.62595 0.0
C2821 C 0.13839 0.7698 0.6157 0.0
C2822 C 0.13606 0.76726 0.5678 0.0
C2823 C 0.12525 0.76796 0.55664 0.0
C2824 C 0.11217 0.75407 0.54963 0.0
C2825 C 0.10961 0.73921 0.55376 0.0
C2826 C 0.12038 0.73858 0.56512 0.0
C2827 C 0.13348 0.75249 0.57208 0.0
C2828 C 0.15987 0.78774 0.54655 0.0
C2829 C 0.15689 0.79699 0.53594 0.0
C2830 C 0.15277 0.79223 0.51909 0.0
C2831 C 0.15136 0.77803 0.51259 0.0
C2832 C 0.15493 0.76907 0.52312 0.0
C2833 C 0.15925 0.77395 0.53996 0.0
C2834 C 0.18696 0.81702 0.56066 0.0
C2835 C 0.18837 0.83178 0.55854 0.0
C2836 C 0.19888 0.84197 0.54776 0.0
C2837 C 0.20792 0.83744 0.53862 0.0
C2838 C 0.20647 0.82263 0.54067 0.0
C2839 C 0.19615 0.81254 0.55173 0.0
C2840 C 0.17083 0.81897 0.66925 0.0
C2841 C 0.09578 0.72441 0.54627 0.0
H2842 H 0.20221 0.35719 0.69735 0.0
H2843 H 0.07726 0.34709 0.57298 0.0
H2844 H 0.21216 0.38022 0.61607 0.0
H2845 H 0.23238 0.37527 0.62776 0.0
H2846 H 0.2134 0.3325 0.59554 0.0
H2847 H 0.19288 0.33718 0.58429 0.0
H2848 H 0.18408 0.37639 0.63683 0.0
H2849 H 0.19202 0.37236 0.6644 0.0
H2850 H 0.18552 0.32739 0.64548 0.0
H2851 H 0.17734 0.33144 0.61806 0.0
H2852 H 0.15291 0.37541 0.62186 0.0
H2853 H 0.13109 0.36642 0.63996 0.0
H2854 H 0.12352 0.31904 0.63455 0.0
H2855 H 0.14514 0.32805 0.61637 0.0
H2856 H 0.15541 0.38489 0.58206 0.0
H2857 H 0.13127 0.38545 0.57616 0.0
H2858 H 0.10405 0.33523 0.58201 0.0
H2859 H 0.12827 0.3348 0.58767 0.0
H2860 H 0.18117 0.38635 0.55612 0.0
H2861 H 0.17276 0.38649 0.52711 0.0
H2862 H 0.13509 0.33816 0.52866 0.0
H2863 H 0.14381 0.338 0.55724 0.0
H2864 H 0.21213 0.38524 0.57491 0.0
H2865 H 0.22764 0.38757 0.55101 0.0
H2866 H 0.18989 0.34291 0.52898 0.0
H2867 H 0.17478 0.34026 0.5531 0.0
O2868 O 0.19873 0.35839 0.68644 0.0
O2869 O 0.19556 0.33555 0.67597 0.0
O2870 O 0.10152 0.37297 0.5722 0.0
O2871 O 0.08698 0.3472 0.57522 0.0
C2872 C 0.18658 0.35973 0.59573 0.0
C2873 C 0.17634 0.35722 0.60851 0.0
C2874 C 0.16218 0.35704 0.60509 0.0
C2875 C 0.15831 0.35964 0.58899 0.0
C2876 C 0.16824 0.36165 0.57611 0.0
C2877 C 0.18236 0.36161 0.57943 0.0
C2878 C 0.201 0.35901 0.59942 0.0
C2879 C 0.21263 0.37001 0.61122 0.0
C2880 C 0.22409 0.36714 0.61793 0.0
C2881 C 0.22429 0.35344 0.61262 0.0
C2882 C 0.2135 0.34318 0.59975 0.0
C2883 C 0.20185 0.34589 0.59327 0.0
C2884 C 0.18024 0.35427 0.62545 0.0
C2885 C 0.18424 0.36562 0.63872 0.0
C2886 C 0.18884 0.36331 0.65443 0.0
C2887 C 0.1895 0.34959 0.65712 0.0
C2888 C 0.18519 0.33811 0.64382 0.0
C2889 C 0.18053 0.3404 0.62815 0.0
C2890 C 0.15056 0.35236 0.61782 0.0
C2891 C 0.14669 0.36316 0.62484 0.0
C2892 C 0.13429 0.35803 0.63518 0.0
C2893 C 0.12557 0.34201 0.63853 0.0
C2894 C 0.12993 0.3314 0.63201 0.0
C2895 C 0.14234 0.33654 0.62176 0.0
C2896 C 0.14357 0.35985 0.58544 0.0
C2897 C 0.14421 0.37403 0.58205 0.0
C2898 C 0.13041 0.37432 0.5787 0.0
C2899 C 0.11572 0.36039 0.57867 0.0
C2900 C 0.11516 0.34617 0.58199 0.0
C2901 C 0.12897 0.3459 0.58529 0.0
C2902 C 0.16302 0.3622 0.55879 0.0
C2903 C 0.1711 0.37584 0.55013 0.0
C2904 C 0.16627 0.3759 0.53363 0.0
C2905 C 0.15333 0.3623 0.52558 0.0
C2906 C 0.14526 0.34874 0.5344 0.0
C2907 C 0.15009 0.34868 0.5508 0.0
C2908 C 0.19224 0.36269 0.56562 0.0
C2909 C 0.20732 0.37588 0.56502 0.0
C2910 C 0.21611 0.37722 0.55141 0.0
C2911 C 0.2098 0.36551 0.53816 0.0
C2912 C 0.19487 0.35218 0.53897 0.0
C2913 C 0.18626 0.35068 0.5527 0.0
C2914 C 0.19475 0.34736 0.67371 0.0
C2915 C 0.10102 0.36063 0.57516 0.0
C2916 C 0.9987 0.42184 0.08703 0.0
C2917 C 0.98745 0.40585 0.08335 0.0
C2918 C 0.99731 0.43061 0.10032 0.0
C2919 C 0.9844 0.42316 0.11026 0.0
C2920 C 0.97268 0.40717 0.10621 0.0
C2921 C 0.97432 0.3987 0.09274 0.0
C2922 C 0.00999 0.44768 0.10414 0.0
C2923 C 0.95881 0.3988 0.11657 0.0
C2924 C 0.99267 0.44038 0.15481 0.0
C2925 C 0.98586 0.44989 0.15461 0.0
C2926 C 0.99183 0.43125 0.14058 0.0
C2927 C 0.98405 0.43171 0.12572 0.0
C2928 C 0.97678 0.44097 0.12554 0.0
C2929 C 0.97769 0.44992 0.14006 0.0
C2930 C -0.00041 0.4214 0.14136 0.0
C2931 C 0.96845 0.44179 0.1099 0.0
H2932 H 0.00874 0.42746 0.07961 0.0
H2933 H 0.96564 0.38631 0.08995 0.0
H2934 H 0.00474 0.45531 0.10539 0.0
H2935 H 0.01646 0.44894 0.11617 0.0
H2936 H 0.01851 0.45208 0.09439 0.0
H2937 H 0.94998 0.38689 0.11086 0.0
H2938 H 0.96286 0.39745 0.12906 0.0
H2939 H 0.95305 0.40591 0.11836 0.0
H2940 H 0.99872 0.44012 0.16617 0.0
H2941 H 0.97243 0.45729 0.13991 0.0
H2942 H 0.00933 0.42585 0.13299 0.0
H2943 H 0.99108 0.40893 0.137 0.0
H2944 H 0.00439 0.42167 0.15411 0.0
H2945 H 0.977 0.44737 0.10037 0.0
H2946 H 0.96254 0.44871 0.11208 0.0
H2947 H 0.95958 0.42971 0.1047 0.0
C2948 C 0.6011 0.55853 0.13268 0.0
C2949 C 0.5928 0.56137 0.12016 0.0
C2950 C 0.5932 0.54807 0.14483 0.0
C2951 C 0.57666 0.54051 0.14456 0.0
C2952 C 0.56822 0.54302 0.13168 0.0
C2953 C 0.57639 0.55337 0.1196 0.0
C2954 C 0.60256 0.54548 0.15821 0.0
C2955 C 0.55059 0.53531 0.13107 0.0
C2956 C 0.55214 0.50516 0.16921 0.0
C2957 C 0.54913 0.51233 0.18286 0.0
C2958 C 0.56166 0.51425 0.15695 0.0
C2959 C 0.56818 0.53085 0.15832 0.0
C2960 C 0.56565 0.5382 0.17236 0.0
C2961 C 0.55625 0.52886 0.18451 0.0
C2962 C 0.56427 0.50604 0.14224 0.0
C2963 C 0.57237 0.55588 0.17426 0.0
H2964 H 0.61378 0.56462 0.13303 0.0
H2965 H 0.56996 0.5557 0.11006 0.0
H2966 H 0.6016 0.55049 0.17039 0.0
H2967 H 0.59779 0.53263 0.15924 0.0
H2968 H 0.61516 0.55109 0.1558 0.0
H2969 H 0.54574 0.53788 0.11978 0.0
H2970 H 0.54511 0.52231 0.13136 0.0
H2971 H 0.54717 0.53961 0.14217 0.0
H2972 H 0.5466 0.49239 0.16779 0.0
H2973 H 0.55426 0.5345 0.19521 0.0
H2974 H 0.57693 0.51187 0.14016 0.0
H2975 H 0.55819 0.50694 0.13088 0.0
H2976 H 0.5598 0.49333 0.14389 0.0
H2977 H 0.58524 0.56215 0.17334 0.0
H2978 H 0.56991 0.5598 0.1863 0.0
H2979 H 0.56732 0.55951 0.16406 0.0
C2980 C 0.42232 0.00829 0.11068 0.0
C2981 C 0.42933 0.01535 0.09628 0.0
C2982 C 0.43141 0.00957 0.12502 0.0
C2983 C 0.44796 0.01819 0.12503 0.0
C2984 C 0.45514 0.0258 0.11073 0.0
C2985 C 0.44573 0.0243 0.0965 0.0
C2986 C 0.42328 0.00134 0.14005 0.0
C2987 C 0.47275 0.03514 0.11032 0.0
C2988 C 0.4689 0.02878 0.16802 0.0
C2989 C 0.47153 0.01614 0.16982 0.0
C2990 C 0.46198 0.03011 0.15314 0.0
C2991 C 0.45756 0.01849 0.13981 0.0
C2992 C 0.46093 0.00618 0.14127 0.0
C2993 C 0.46789 0.00516 0.15626 0.0
C2994 C 0.45862 0.04344 0.15203 0.0
C2995 C 0.45647 0.9936 0.1273 0.0
H2996 H 0.40965 0.00161 0.11068 0.0
H2997 H 0.4512 0.02971 0.08538 0.0
H2998 H 0.42626 0.99216 0.14282 0.0
H2999 H 0.4274 0.00993 0.15108 0.0
H3000 H 0.41033 0.99562 0.13822 0.0
H3001 H 0.4765 0.04132 0.09873 0.0
H3002 H 0.47803 0.04403 0.12111 0.0
H3003 H 0.4775 0.02709 0.1113 0.0
H3004 H 0.47158 0.03724 0.1785 0.0
H3005 H 0.47014 0.99552 0.15751 0.0
H3006 H 0.4458 0.03863 0.15198 0.0
H3007 H 0.46253 0.04924 0.14028 0.0
H3008 H 0.46447 0.05252 0.16262 0.0
H3009 H 0.44351 0.98629 0.12544 0.0
H3010 H 0.46116 0.98568 0.12985 0.0
H3011 H 0.46085 0.99911 0.11551 0.0
C3012 C 0.40892 0.9917 0.92788 0.0
C3013 C 0.40939 0.98468 0.94248 0.0
C3014 C 0.41769 0.99192 0.91458 0.0
C3015 C 0.42712 0.98491 0.91589 0.0
C3016 C 0.42722 0.97733 0.93035 0.0
C3017 C 0.41837 0.97732 0.94348 0.0
C3018 C 0.41723 7e-05 0.89933 0.0
C3019 C 0.43712 0.96971 0.93218 0.0
C3020 C 0.44235 0.97642 0.87663 0.0
C3021 C 0.45761 0.98951 0.87726 0.0
C3022 C 0.43227 0.97471 0.88914 0.0
C3023 C 0.4376 0.98638 0.90257 0.0
C3024 C 0.45301 0.99958 0.90331 0.0
C3025 C 0.46282 0.00097 0.89067 0.0
C3026 C 0.41592 0.96047 0.88796 0.0
C3027 C 0.45914 0.01226 0.91745 0.0
H3028 H 0.40181 0.99719 0.92693 0.0
H3029 H 0.41892 0.97202 0.95479 0.0
H3030 H 0.42899 0.01049 0.89805 0.0
H3031 H 0.41422 0.99199 0.88802 0.0
H3032 H 0.40861 0.00412 0.89986 0.0
H3033 H 0.43503 0.96333 0.94368 0.0
H3034 H 0.43464 0.96125 0.92134 0.0
H3035 H 0.44971 0.9789 0.93253 0.0
H3036 H 0.4382 0.96761 0.86621 0.0
H3037 H 0.47469 0.01097 0.89138 0.0
H3038 H 0.40716 0.96435 0.88747 0.0
H3039 H 0.41408 0.9538 0.89919 0.0
H3040 H 0.41364 0.95237 0.87682 0.0
H3041 H 0.45164 0.01766 0.91805 0.0
H3042 H 0.47141 0.02177 0.91617 0.0
H3043 H 0.45864 0.00697 0.92943 0.0
C3044 C 0.03833 0.43274 0.95141 0.0
C3045 C 0.03004 0.41649 0.9466 0.0
C3046 C 0.03914 0.4438 0.94047 0.0
C3047 C 0.03138 0.43845 0.92442 0.0
C3048 C 0.02383 0.42217 0.91915 0.0
C3049 C 0.02331 0.4114 0.93029 0.0
C3050 C 0.04746 0.46108 0.94647 0.0
C3051 C 0.01544 0.416 0.90211 0.0
C3052 C 0.01456 0.46158 0.90486 0.0
C3053 C 0.02505 0.46921 0.89271 0.0
C3054 C 0.01664 0.45171 0.91537 0.0
C3055 C 0.02963 0.44953 0.91382 0.0
C3056 C 0.04051 0.45751 0.90189 0.0
C3057 C 0.03806 0.46722 0.89142 0.0
C3058 C 0.00477 0.44341 0.92795 0.0
C3059 C 0.05454 0.45555 0.89999 0.0
H3060 H 0.04346 0.43677 0.96402 0.0
H3061 H 0.01714 0.39888 0.92641 0.0
H3062 H 0.05516 0.46848 0.937 0.0
H3063 H 0.03869 0.46474 0.94846 0.0
H3064 H 0.05466 0.46355 0.95831 0.0
H3065 H 0.01148 0.4033 0.89936 0.0
H3066 H 0.00503 0.41745 0.90126 0.0
H3067 H 0.02318 0.42288 0.89241 0.0
H3068 H 0.00466 0.4633 0.90614 0.0
H3069 H 0.04613 0.47296 0.88195 0.0
H3070 H 0.01068 0.44648 0.94063 0.0
H3071 H 0.99916 0.43041 0.92547 0.0
H3072 H 0.99545 0.44656 0.92772 0.0
H3073 H 0.06135 0.45822 0.91212 0.0
H3074 H 0.06242 0.46334 0.89085 0.0
H3075 H 0.05058 0.44309 0.89585 0.0
C3076 C 0.56953 0.6115 0.97455 0.0
C3077 C 0.57168 0.60158 0.98495 0.0
C3078 C 0.56152 0.60573 0.9588 0.0
C3079 C 0.55571 0.58972 0.95328 0.0
C3080 C 0.55738 0.57954 0.96396 0.0
C3081 C 0.56531 0.58558 0.97967 0.0
C3082 C 0.55979 0.61689 0.94784 0.0
C3083 C 0.55146 0.56243 0.95849 0.0
C3084 C 0.52665 0.56969 0.91565 0.0
C3085 C 0.53655 0.57038 0.90337 0.0
C3086 C 0.53274 0.5764 0.93187 0.0
C3087 C 0.54909 0.58388 0.93588 0.0
C3088 C 0.55916 0.58501 0.9234 0.0
C3089 C 0.55278 0.57832 0.90731 0.0
C3090 C 0.52165 0.57508 0.94483 0.0
C3091 C 0.57667 0.59288 0.92716 0.0
H3092 H 0.5743 0.62383 0.97866 0.0
H3093 H 0.56712 0.57791 0.98755 0.0
H3094 H 0.56697 0.6189 0.93703 0.0
H3095 H 0.54742 0.61162 0.94291 0.0
H3096 H 0.56356 0.62851 0.95454 0.0
H3097 H 0.55271 0.55582 0.96868 0.0
H3098 H 0.53894 0.55645 0.95391 0.0
H3099 H 0.55811 0.56177 0.94805 0.0
H3100 H 0.51409 0.5635 0.91273 0.0
H3101 H 0.56054 0.5792 0.89779 0.0
H3102 H 0.52563 0.58685 0.95124 0.0
H3103 H 0.52161 0.56729 0.95439 0.0
H3104 H 0.50946 0.57015 0.93941 0.0
H3105 H 0.58143 0.60515 0.9326 0.0
H3106 H 0.58292 0.59327 0.91592 0.0
H3107 H 0.57926 0.58639 0.93648 0.0
C3108 C 0.02249 0.58732 0.98585 0.0
C3109 C 0.0247 0.60217 0.98238 0.0
C3110 C 0.02382 0.57759 0.97356 0.0
C3111 C 0.02742 0.58282 0.95743 0.0
C3112 C 0.03039 0.59809 0.95407 0.0
C3113 C 0.029 0.60758 0.96659 0.0
C3114 C 0.02056 0.56138 0.97762 0.0
C3115 C 0.03432 0.60412 0.93703 0.0
C3116 C 0.03901 0.56135 0.92585 0.0
C3117 C 0.02482 0.55197 0.91628 0.0
C3118 C 0.04002 0.57125 0.93954 0.0
C3119 C 0.02653 0.5718 0.94365 0.0
C3120 C 0.01212 0.56213 0.93422 0.0
C3121 C 0.01145 0.55237 0.92065 0.0
C3122 C 0.05555 0.58136 0.94937 0.0
C3123 C 0.99747 0.5624 0.93816 0.0
H3124 H 0.019 0.58298 0.99796 0.0
H3125 H 0.03096 0.61914 0.96392 0.0
H3126 H 0.00937 0.55223 0.97095 0.0
H3127 H 0.02992 0.5593 0.97337 0.0
H3128 H 0.01965 0.55979 0.99113 0.0
H3129 H 0.03762 0.61673 0.93683 0.0
H3130 H 0.04412 0.60282 0.93267 0.0
H3131 H 0.02404 0.59698 0.92804 0.0
H3132 H 0.04935 0.56103 0.92257 0.0
H3133 H 0.00052 0.54542 0.91311 0.0
H3134 H 0.05425 0.5792 0.96273 0.0
H3135 H 0.05956 0.59405 0.94829 0.0
H3136 H 0.06475 0.57901 0.94506 0.0
H3137 H 0.99493 0.55978 0.95126 0.0
H3138 H 0.98707 0.5537 0.92999 0.0
H3139 H 0.99927 0.57437 0.93668 0.0
C3140 C 0.41697 0.43498 0.92816 0.0
C3141 C 0.40758 0.43755 0.93892 0.0
C3142 C 0.42605 0.44629 0.91724 0.0
C3143 C 0.42576 0.46056 0.91708 0.0
C3144 C 0.41618 0.46318 0.92777 0.0
C3145 C 0.40722 0.45164 0.93861 0.0
C3146 C 0.43617 0.44308 0.90609 0.0
C3147 C 0.41553 0.47821 0.92785 0.0
C3148 C 0.46155 0.4944 0.90027 0.0
C3149 C 0.45634 0.49352 0.88365 0.0
C3150 C 0.4515 0.48418 0.91149 0.0
C3151 C 0.43586 0.47281 0.90597 0.0
C3152 C 0.43032 0.47234 0.88941 0.0
C3153 C 0.44064 0.48269 0.87843 0.0
C3154 C 0.45783 0.48509 0.92907 0.0
C3155 C 0.4137 0.4604 0.88307 0.0
H3156 H 0.41752 0.42425 0.92854 0.0
H3157 H 0.39988 0.45362 0.94681 0.0
H3158 H 0.43321 0.44387 0.89291 0.0
H3159 H 0.44868 0.45218 0.90901 0.0
H3160 H 0.43476 0.43123 0.90745 0.0
H3161 H 0.40716 0.47825 0.93659 0.0
H3162 H 0.42733 0.48855 0.93144 0.0
H3163 H 0.41202 0.47979 0.9152 0.0
H3164 H 0.47361 0.50293 0.90442 0.0
H3165 H 0.43658 0.48184 0.86557 0.0
H3166 H 0.45809 0.47413 0.93117 0.0
H3167 H 0.45006 0.48594 0.93806 0.0
H3168 H 0.46987 0.49538 0.93176 0.0
H3169 H 0.41206 0.44834 0.88264 0.0
H3170 H 0.41078 0.46262 0.87043 0.0
H3171 H 0.40528 0.46058 0.8916 0.0
C3172 C 0.55525 0.98565 0.97397 0.0
C3173 C 0.56845 0.98389 0.97349 0.0
C3174 C 0.54674 0.98488 0.95931 0.0
C3175 C 0.55146 0.98216 0.9438 0.0
C3176 C 0.56426 0.97956 0.94327 0.0
C3177 C 0.57264 0.98053 0.95811 0.0
C3178 C 0.53316 0.98772 0.96037 0.0
C3179 C 0.56958 0.97652 0.92698 0.0
C3180 C 0.52448 0.97152 0.90465 0.0
C3181 C 0.5309 0.98614 0.8976 0.0
C3182 C 0.53091 0.97002 0.9198 0.0
C3183 C 0.544 0.98349 0.92811 0.0
C3184 C 0.55035 0.99831 0.92121 0.0
C3185 C 0.54379 0.99943 0.90601 0.0
C3186 C 0.52389 0.95401 0.92677 0.0
C3187 C 0.56428 0.01298 0.92972 0.0
H3188 H 0.55175 0.98795 0.98582 0.0
H3189 H 0.58291 0.97934 0.95757 0.0
H3190 H 0.53619 0.99906 0.95503 0.0
H3191 H 0.52266 0.97823 0.95299 0.0
H3192 H 0.53012 0.98828 0.97338 0.0
H3193 H 0.57867 0.97315 0.92876 0.0
H3194 H 0.5595 0.96696 0.91914 0.0
H3195 H 0.57452 0.98733 0.92005 0.0
H3196 H 0.51441 0.96122 0.89832 0.0
H3197 H 0.54906 0.01071 0.90052 0.0
H3198 H 0.52041 0.95466 0.93952 0.0
H3199 H 0.53277 0.9503 0.92764 0.0
H3200 H 0.51347 0.9448 0.91901 0.0
H3201 H 0.56179 0.01495 0.94259 0.0
H3202 H 0.56739 0.02372 0.92305 0.0
H3203 H 0.5746 0.01139 0.93055 0.0
C3204 C 0.588 0.01085 0.13426 0.0
C3205 C 0.5939 0.02339 0.12388 0.0
C3206 C 0.5791 0.01047 0.14748 0.0
C3207 C 0.5761 0.02298 0.15046 0.0
C3208 C 0.58237 0.03589 0.14029 0.0
C3209 C 0.59112 0.03589 0.12704 0.0
C3210 C 0.57248 0.9964 0.15792 0.0
C3211 C 0.57956 0.04953 0.14323 0.0
C3212 C 0.53948 0.01269 0.17265 0.0
C3213 C 0.54556 0.01799 0.18914 0.0
C3214 C 0.54933 0.01456 0.1599 0.0
C3215 C 0.56571 0.02206 0.16368 0.0
C3216 C 0.57199 0.02788 0.1802 0.0
C3217 C 0.56184 0.02573 0.19275 0.0
C3218 C 0.54217 0.00815 0.14244 0.0
C3219 C 0.58941 0.03602 0.18467 0.0
H3220 H 0.58991 0.00104 0.13172 0.0
H3221 H 0.59578 0.04566 0.1191 0.0
H3222 H 0.57601 0.0004 0.17124 0.0
H3223 H 0.55948 0.99003 0.1565 0.0
H3224 H 0.57643 0.98797 0.1544 0.0
H3225 H 0.58606 0.05911 0.13488 0.0
H3226 H 0.56687 0.04528 0.14117 0.0
H3227 H 0.58317 0.05453 0.1563 0.0
H3228 H 0.52695 0.007 0.1697 0.0
H3229 H 0.56662 0.02975 0.20548 0.0
H3230 H 0.54469 0.99879 0.13825 0.0
H3231 H 0.54747 0.01767 0.13378 0.0
H3232 H 0.52927 0.00309 0.14148 0.0
H3233 H 0.59353 0.02751 0.18262 0.0
H3234 H 0.59251 0.0409 0.19782 0.0
H3235 H 0.59582 0.0458 0.17654 0.0
C3236 C 0.99304 0.5879 0.12592 0.0
C3237 C 0.9796 0.58408 0.11576 0.0
C3238 C 0.99289 0.5775 0.13735 0.0
C3239 C 0.97899 0.56284 0.13859 0.0
C3240 C 0.96531 0.55898 0.12857 0.0
C3241 C 0.96577 0.56965 0.11727 0.0
C3242 C 0.00773 0.58205 0.14782 0.0
C3243 C 0.95026 0.54346 0.12959 0.0
C3244 C 0.98472 0.53064 0.15584 0.0
C3245 C 0.98151 0.53144 0.17248 0.0
C3246 C 0.98349 0.54048 0.14455 0.0
C3247 C 0.97901 0.55142 0.15007 0.0
C3248 C 0.97541 0.55204 0.16676 0.0
C3249 C 0.97669 0.54202 0.17777 0.0
C3250 C 0.98733 0.53941 0.12682 0.0
C3251 C 0.97069 0.56363 0.17313 0.0
H3252 H 0.00386 0.59886 0.12463 0.0
H3253 H 0.95531 0.56669 0.10957 0.0
H3254 H 0.00546 0.58146 0.16118 0.0
H3255 H 0.01171 0.57356 0.14481 0.0
H3256 H 0.01736 0.59416 0.14584 0.0
H3257 H 0.94053 0.54245 0.1213 0.0
H3258 H 0.95212 0.5335 0.12611 0.0
H3259 H 0.94669 0.54216 0.14253 0.0
H3260 H 0.98826 0.52233 0.15166 0.0
H3261 H 0.97437 0.54281 0.19067 0.0
H3262 H 0.99773 0.55073 0.12407 0.0
H3263 H 0.97744 0.53744 0.11814 0.0
H3264 H 0.98983 0.52971 0.1243 0.0
H3265 H 0.98057 0.57589 0.1725 0.0
H3266 H 0.96735 0.56194 0.18616 0.0
H3267 H 0.96068 0.56239 0.1652 0.0
C3268 C 0.44222 0.41532 0.07867 0.0
C3269 C 0.42831 0.40063 0.07802 0.0
C3270 C 0.45166 0.42191 0.09355 0.0
C3271 C 0.4471 0.41353 0.10804 0.0
C3272 C 0.43356 0.39827 0.10719 0.0
C3273 C 0.42428 0.39204 0.0922 0.0
C3274 C 0.46595 0.43824 0.09399 0.0
C3275 C 0.42841 0.38888 0.12232 0.0
C3276 C 0.47543 0.42717 0.14651 0.0
C3277 C 0.47015 0.43558 0.15614 0.0
C3278 C 0.46815 0.42 0.13073 0.0
C3279 C 0.45539 0.42138 0.12444 0.0
C3280 C 0.45014 0.43 0.13401 0.0
C3281 C 0.4575 0.43688 0.14976 0.0
C3282 C 0.47399 0.41082 0.12088 0.0
C3283 C 0.43657 0.43177 0.12774 0.0
H3284 H 0.4453 0.42203 0.06775 0.0
H3285 H 0.41362 0.38059 0.09165 0.0
H3286 H 0.46381 0.44672 0.1013 0.0
H3287 H 0.47623 0.43843 0.10022 0.0
H3288 H 0.46888 0.4424 0.08136 0.0
H3289 H 0.41867 0.37657 0.11917 0.0
H3290 H 0.43837 0.3885 0.12859 0.0
H3291 H 0.42441 0.39472 0.13134 0.0
H3292 H 0.48527 0.42622 0.15129 0.0
H3293 H 0.45309 0.44303 0.15723 0.0
H3294 H 0.47738 0.41571 0.10862 0.0
H3295 H 0.46446 0.39832 0.1185 0.0
H3296 H 0.48422 0.4111 0.12741 0.0
H3297 H 0.4389 0.43698 0.11554 0.0
H3298 H 0.43434 0.43938 0.13646 0.0
H3299 H 0.42576 0.41998 0.12587 0.0
C3300 C 0.62353 0.73303 0.41827 0.0
C3301 C 0.6358 0.72995 0.42103 0.0
C3302 C 0.61948 0.74033 0.4309 0.0
C3303 C 0.62784 0.74456 0.44666 0.0
C3304 C 0.64002 0.74122 0.4496 0.0
C3305 C 0.6439 0.73406 0.43675 0.0
C3306 C 0.60645 0.74375 0.42732 0.0
C3307 C 0.64921 0.74552 0.46626 0.0
C3308 C 0.63213 0.77762 0.47631 0.0
C3309 C 0.62231 0.76914 0.48862 0.0
C3310 C 0.63323 0.76978 0.46196 0.0
C3311 C 0.62442 0.75305 0.46001 0.0
C3312 C 0.61377 0.74449 0.47194 0.0
C3313 C 0.61279 0.75267 0.48611 0.0
C3314 C 0.64456 0.77936 0.44943 0.0
C3315 C 0.60425 0.72665 0.47034 0.0
H3316 H 0.61709 0.72972 0.40622 0.0
H3317 H 0.65359 0.73203 0.43893 0.0
H3318 H 0.59744 0.73835 0.43644 0.0
H3319 H 0.61118 0.7567 0.42867 0.0
H3320 H 0.60072 0.73921 0.41461 0.0
H3321 H 0.65783 0.74145 0.46675 0.0
H3322 H 0.65561 0.75854 0.46897 0.0
H3323 H 0.64113 0.74023 0.47625 0.0
H3324 H 0.63937 0.79038 0.47821 0.0
H3325 H 0.60528 0.7461 0.49569 0.0
H3326 H 0.63887 0.77546 0.43665 0.0
H3327 H 0.65469 0.77745 0.45003 0.0
H3328 H 0.64903 0.79222 0.45171 0.0
H3329 H 0.59853 0.72228 0.45763 0.0
H3330 H 0.59509 0.72192 0.47942 0.0
H3331 H 0.61212 0.72183 0.47252 0.0
C3332 C 0.26553 0.89335 0.47231 0.0
C3333 C 0.25838 0.90102 0.46497 0.0
C3334 C 0.25833 0.88286 0.48466 0.0
C3335 C 0.24355 0.87982 0.48954 0.0
C3336 C 0.23626 0.88748 0.48207 0.0
C3337 C 0.24382 0.89808 0.46995 0.0
C3338 C 0.26657 0.8751 0.49254 0.0
C3339 C 0.22039 0.88438 0.48677 0.0
C3340 C 0.21678 0.84217 0.50988 0.0
C3341 C 0.21823 0.84793 0.52642 0.0
C3342 C 0.22527 0.85236 0.49778 0.0
C3343 C 0.23561 0.86862 0.50243 0.0
C3344 C 0.2376 0.87435 0.51927 0.0
C3345 C 0.22876 0.86394 0.53105 0.0
C3346 C 0.22268 0.84586 0.47992 0.0
C3347 C 0.2487 0.89155 0.52475 0.0
H3348 H 0.27685 0.89573 0.46854 0.0
H3349 H 0.2382 0.90387 0.46413 0.0
H3350 H 0.26836 0.87801 0.50617 0.0
H3351 H 0.25919 0.86206 0.49044 0.0
H3352 H 0.27812 0.87891 0.48752 0.0
H3353 H 0.21623 0.89112 0.47961 0.0
H3354 H 0.21164 0.87158 0.48458 0.0
H3355 H 0.22091 0.88764 0.5002 0.0
H3356 H 0.20851 0.8298 0.5063 0.0
H3357 H 0.22995 0.86834 0.54388 0.0
H3358 H 0.23404 0.84896 0.47482 0.0
H3359 H 0.21733 0.85128 0.47231 0.0
H3360 H 0.21489 0.8328 0.47851 0.0
H3361 H 0.26048 0.89545 0.5203 0.0
H3362 H 0.24988 0.89381 0.53847 0.0
H3363 H 0.24441 0.89893 0.51921 0.0
C3364 C 0.09939 0.34751 0.44539 0.0
C3365 C 0.10647 0.35105 0.43026 0.0
C3366 C 0.10833 0.3507 0.46043 0.0
C3367 C 0.12481 0.35776 0.4604 0.0
C3368 C 0.13211 0.36185 0.44526 0.0
C3369 C 0.12285 0.3584 0.43034 0.0
C3370 C 0.10009 0.34617 0.47633 0.0
C3371 C 0.14966 0.36948 0.44478 0.0
C3372 C 0.14652 0.37477 0.50274 0.0
C3373 C 0.14792 0.36213 0.50814 0.0
C3374 C 0.13972 0.37388 0.48685 0.0
C3375 C 0.13415 0.35999 0.47619 0.0
C3376 C 0.13626 0.34754 0.48127 0.0
C3377 C 0.14317 0.34879 0.49715 0.0
C3378 C 0.13781 0.38746 0.48179 0.0
C3379 C 0.13052 0.33254 0.47026 0.0
H3380 H 0.08678 0.34217 0.44546 0.0
H3381 H 0.12839 0.36109 0.41869 0.0
H3382 H 0.1021 0.33721 0.48203 0.0
H3383 H 0.10495 0.35663 0.4854 0.0
H3384 H 0.08725 0.34123 0.47427 0.0
H3385 H 0.15363 0.37304 0.4322 0.0
H3386 H 0.15567 0.38009 0.45369 0.0
H3387 H 0.15341 0.36112 0.44863 0.0
H3388 H 0.15012 0.38509 0.5112 0.0
H3389 H 0.14454 0.33913 0.50114 0.0
H3390 H 0.12522 0.38384 0.48127 0.0
H3391 H 0.14188 0.39068 0.46919 0.0
H3392 H 0.14438 0.39809 0.49061 0.0
H3393 H 0.11753 0.32615 0.46856 0.0
H3394 H 0.13411 0.3245 0.47554 0.0
H3395 H 0.13506 0.33538 0.45779 0.0
C3396 C 0.08309 0.29193 0.27812 0.0
C3397 C 0.07463 0.29984 0.27745 0.0
C3398 C 0.09005 0.29 0.2641 0.0
C3399 C 0.08859 0.29623 0.24911 0.0
C3400 C 0.07953 0.30367 0.24818 0.0
C3401 C 0.07264 0.30536 0.26236 0.0
C3402 C 0.09949 0.28186 0.26551 0.0
C3403 C 0.07776 0.31054 0.23244 0.0
C3404 C 0.12144 0.30931 0.22018 0.0
C3405 C 0.11483 0.29704 0.20753 0.0
C3406 C 0.11303 0.30911 0.23378 0.0
C3407 C 0.09764 0.29626 0.23487 0.0
C3408 C 0.09094 0.28372 0.22227 0.0
C3409 C 0.09961 0.28427 0.20872 0.0
C3410 C 0.1206 0.32271 0.24698 0.0
C3411 C 0.07458 0.26981 0.22305 0.0
H3412 H 0.08449 0.28747 0.28971 0.0
H3413 H 0.06627 0.31165 0.26181 0.0
H3414 H 0.09579 0.27255 0.25523 0.0
H3415 H 0.11207 0.29056 0.26445 0.0
H3416 H 0.09827 0.27638 0.27752 0.0
H3417 H 0.06926 0.31473 0.23333 0.0
H3418 H 0.08929 0.32068 0.22981 0.0
H3419 H 0.07384 0.30163 0.22173 0.0
H3420 H 0.13331 0.31905 0.21953 0.0
H3421 H 0.0944 0.2748 0.19892 0.0
H3422 H 0.12113 0.31827 0.25923 0.0
H3423 H 0.11345 0.32845 0.24802 0.0
H3424 H 0.13267 0.33179 0.24428 0.0
H3425 H 0.07364 0.26414 0.23486 0.0
H3426 H 0.07126 0.26078 0.21253 0.0
H3427 H 0.06601 0.27394 0.22288 0.0
C3428 C 0.69118 0.77154 0.28972 0.0
C3429 C 0.69849 0.76251 0.29067 0.0
C3430 C 0.69449 0.78214 0.27736 0.0
C3431 C 0.70548 0.78386 0.26575 0.0
C3432 C 0.71322 0.77509 0.2669 0.0
C3433 C 0.70955 0.76443 0.2793 0.0
C3434 C 0.68586 0.79115 0.27643 0.0
C3435 C 0.72515 0.77678 0.25486 0.0
C3436 C 0.70018 0.79815 0.22454 0.0
C3437 C 0.71088 0.81445 0.22691 0.0
C3438 C 0.69865 0.78799 0.2369 0.0
C3439 C 0.70819 0.79424 0.25193 0.0
C3440 C 0.71952 0.81056 0.25411 0.0
C3441 C 0.72069 0.8205 0.24159 0.0
C3442 C 0.68641 0.77065 0.2341 0.0
C3443 C 0.73 0.81762 0.26991 0.0
H3444 H 0.68248 0.76993 0.29836 0.0
H3445 H 0.71533 0.75756 0.28012 0.0
H3446 H 0.69433 0.80404 0.27678 0.0
H3447 H 0.67863 0.78774 0.26449 0.0
H3448 H 0.67808 0.78887 0.28676 0.0
H3449 H 0.73083 0.76987 0.25808 0.0
H3450 H 0.71942 0.77269 0.24213 0.0
H3451 H 0.73436 0.7894 0.25464 0.0
H3452 H 0.69279 0.79335 0.21308 0.0
H3453 H 0.72891 0.83309 0.24357 0.0
H3454 H 0.6774 0.76753 0.24324 0.0
H3455 H 0.69182 0.76328 0.23608 0.0
H3456 H 0.68048 0.76753 0.22141 0.0
H3457 H 0.72285 0.81704 0.28038 0.0
H3458 H 0.73921 0.83016 0.26901 0.0
H3459 H 0.73574 0.81074 0.27295 0.0
C3460 C 0.22661 0.93507 0.31532 0.0
C3461 C 0.2367 0.92936 0.31908 0.0
C3462 C 0.21755 0.93042 0.3001 0.0
C3463 C 0.21844 0.91961 0.28864 0.0
C3464 C 0.22813 0.91331 0.29277 0.0
C3465 C 0.23727 0.91841 0.30788 0.0
C3466 C 0.20755 0.93757 0.29601 0.0
C3467 C 0.22918 0.90153 0.28104 0.0
C3468 C 0.18801 0.89756 0.25257 0.0
C3469 C 0.19632 0.90562 0.23922 0.0
C3470 C 0.19481 0.90233 0.26891 0.0
C3471 C 0.21014 0.9156 0.27184 0.0
C3472 C 0.21819 0.92425 0.25839 0.0
C3473 C 0.21124 0.91902 0.24219 0.0
C3474 C 0.18598 0.89266 0.28288 0.0
C3475 C 0.23443 0.93862 0.26101 0.0
H3476 H 0.22627 0.94361 0.32401 0.0
H3477 H 0.24499 0.91391 0.31092 0.0
H3478 H 0.21221 0.94509 0.28544 0.0
H3479 H 0.19537 0.92815 0.2921 0.0
H3480 H 0.20729 0.94493 0.3067 0.0
H3481 H 0.23627 0.89683 0.28669 0.0
H3482 H 0.21729 0.89147 0.27718 0.0
H3483 H 0.2346 0.90723 0.26964 0.0
H3484 H 0.17649 0.88712 0.25014 0.0
H3485 H 0.21759 0.92521 0.23176 0.0
H3486 H 0.18593 0.90043 0.29325 0.0
H3487 H 0.19194 0.88654 0.28783 0.0
H3488 H 0.17367 0.88363 0.27877 0.0
H3489 H 0.23477 0.94696 0.27097 0.0
H3490 H 0.23835 0.94496 0.24953 0.0
H3491 H 0.2429 0.93498 0.26505 0.0
C3492 C 0.69155 0.92735 0.30112 0.0
C3493 C 0.70111 0.93564 0.31552 0.0
C3494 C 0.69659 0.92066 0.28895 0.0
C3495 C 0.71159 0.92227 0.29121 0.0
C3496 C 0.72134 0.93062 0.30571 0.0
C3497 C 0.71596 0.93718 0.31774 0.0
C3498 C 0.6858 0.91176 0.27369 0.0
C3499 C 0.73742 0.93263 0.30848 0.0
C3500 C 0.71527 0.89158 0.2649 0.0
C3501 C 0.72154 0.89967 0.25074 0.0
C3502 C 0.71289 0.89911 0.27869 0.0
C3503 C 0.71687 0.91511 0.27828 0.0
C3504 C 0.72418 0.92363 0.26448 0.0
C3505 C 0.72642 0.9158 0.25086 0.0
C3506 C 0.70515 0.88963 0.29321 0.0
C3507 C 0.72862 0.94071 0.26356 0.0
H3508 H 0.67996 0.92587 0.29947 0.0
H3509 H 0.72344 0.94368 0.3288 0.0
H3510 H 0.69159 0.91723 0.26235 0.0
H3511 H 0.68324 0.89936 0.2728 0.0
H3512 H 0.67453 0.91164 0.27381 0.0
H3513 H 0.74353 0.93941 0.32044 0.0
H3514 H 0.73649 0.92088 0.30837 0.0
H3515 H 0.74472 0.93888 0.29822 0.0
H3516 H 0.71166 0.87915 0.26492 0.0
H3517 H 0.73109 0.92208 0.23987 0.0
H3518 H 0.69303 0.88749 0.29339 0.0
H3519 H 0.71155 0.89629 0.3051 0.0
H3520 H 0.70456 0.87802 0.29254 0.0
H3521 H 0.71784 0.94143 0.26184 0.0
H3522 H 0.73602 0.94619 0.25309 0.0
H3523 H 0.73503 0.94771 0.2753 0.0
C3524 C 0.07476 0.79304 0.27927 0.0
C3525 C 0.07334 0.77808 0.2779 0.0
C3526 C 0.08307 0.80432 0.26794 0.0
C3527 C 0.0903 0.8006 0.25515 0.0
C3528 C 0.08878 0.78545 0.25365 0.0
C3529 C 0.08025 0.77435 0.265 0.0
C3530 C 0.08426 0.82027 0.26975 0.0
C3531 C 0.09648 0.78109 0.24031 0.0
C3532 C 0.1028 0.82326 0.21648 0.0
C3533 C 0.11902 0.83291 0.22011 0.0
C3534 C 0.09316 0.81318 0.22808 0.0
C3535 C 0.09994 0.81262 0.2436 0.0
C3536 C 0.11621 0.82274 0.24757 0.0
C3537 C 0.12553 0.83283 0.23582 0.0
C3538 C 0.07583 0.80268 0.22347 0.0
C3539 C 0.12389 0.82245 0.26397 0.0
H3540 H 0.06933 0.79588 0.28919 0.0
H3541 H 0.07935 0.76287 0.26406 0.0
H3542 H 0.09669 0.82969 0.27241 0.0
H3543 H 0.08005 0.82271 0.25795 0.0
H3544 H 0.07735 0.82103 0.27988 0.0
H3545 H 0.09393 0.76872 0.24068 0.0
H3546 H 0.09242 0.78253 0.22787 0.0
H3547 H 0.10937 0.78915 0.24181 0.0
H3548 H 0.09768 0.82312 0.20432 0.0
H3549 H 0.138 0.8405 0.23885 0.0
H3550 H 0.06894 0.80361 0.23351 0.0
H3551 H 0.07286 0.79016 0.22199 0.0
H3552 H 0.07214 0.80572 0.2117 0.0
H3553 H 0.11785 0.82419 0.27441 0.0
H3554 H 0.1365 0.8317 0.26552 0.0
H3555 H 0.12286 0.81072 0.26486 0.0
C3556 C 0.21521 0.30724 0.3046 0.0
C3557 C 0.22724 0.30365 0.30513 0.0
C3558 C 0.20575 0.30422 0.28994 0.0
C3559 C 0.20845 0.29752 0.27547 0.0
C3560 C 0.21993 0.29299 0.27622 0.0
C3561 C 0.22916 0.29607 0.29106 0.0
C3562 C 0.19356 0.30914 0.28965 0.0
C3563 C 0.22314 0.28576 0.26109 0.0
C3564 C 0.17967 0.28331 0.23731 0.0
C3565 C 0.18681 0.29642 0.22775 0.0
C3566 C 0.18644 0.28351 0.25301 0.0
C3567 C 0.20071 0.29708 0.25915 0.0
C3568 C 0.20793 0.31032 0.24952 0.0
C3569 C 0.20089 0.30983 0.23397 0.0
C3570 C 0.17839 0.26922 0.263 0.0
C3571 C 0.22322 0.32498 0.25555 0.0
H3572 H 0.21371 0.31319 0.31538 0.0
H3573 H 0.23825 0.29299 0.29149 0.0
H3574 H 0.19752 0.31965 0.28234 0.0
H3575 H 0.1823 0.29957 0.28352 0.0
H3576 H 0.19147 0.31218 0.30233 0.0
H3577 H 0.2312 0.28133 0.26417 0.0
H3578 H 0.21205 0.27584 0.25505 0.0
H3579 H 0.22851 0.29477 0.2519 0.0
H3580 H 0.16874 0.27297 0.23257 0.0
H3581 H 0.2066 0.31987 0.22649 0.0
H3582 H 0.17595 0.27268 0.27528 0.0
H3583 H 0.18621 0.26437 0.26533 0.0
H3584 H 0.16719 0.25974 0.25661 0.0
H3585 H 0.22197 0.32988 0.26765 0.0
H3586 H 0.22717 0.33433 0.24663 0.0
H3587 H 0.23249 0.32192 0.25756 0.0
C3588 C 0.25918 0.37775 0.45777 0.0
C3589 C 0.25469 0.36269 0.4506 0.0
C3590 C 0.25245 0.37954 0.47209 0.0
C3591 C 0.24129 0.36591 0.47953 0.0
C3592 C 0.23689 0.35068 0.4724 0.0
C3593 C 0.24354 0.34926 0.45791 0.0
C3594 C 0.25717 0.39595 0.47915 0.0
C3595 C 0.22524 0.33587 0.48014 0.0
C3596 C 0.23331 0.3684 0.52482 0.0
C3597 C 0.21858 0.36711 0.52334 0.0
C3598 C 0.24106 0.36842 0.51065 0.0
C3599 C 0.23401 0.36746 0.4947 0.0
C3600 C 0.21943 0.36687 0.49323 0.0
C3601 C 0.2118 0.36652 0.50759 0.0
C3602 C 0.25645 0.36876 0.51269 0.0
C3603 C 0.21169 0.36617 0.47649 0.0
H3604 H 0.2678 0.38812 0.45205 0.0
H3605 H 0.24025 0.33762 0.45245 0.0
H3606 H 0.24669 0.39724 0.47955 0.0
H3607 H 0.26227 0.39787 0.4921 0.0
H3608 H 0.26587 0.4053 0.47176 0.0
H3609 H 0.22346 0.32495 0.47332 0.0
H3610 H 0.22933 0.33615 0.4932 0.0
H3611 H 0.21377 0.33528 0.48035 0.0
H3612 H 0.23846 0.36877 0.53705 0.0
H3613 H 0.20043 0.36564 0.50653 0.0
H3614 H 0.26551 0.37848 0.50599 0.0
H3615 H 0.25503 0.35753 0.50716 0.0
H3616 H 0.26075 0.37034 0.52594 0.0
H3617 H 0.22005 0.37578 0.46913 0.0
H3618 H 0.2011 0.36722 0.47758 0.0
H3619 H 0.20819 0.35479 0.46944 0.0
C3620 C 0.62297 0.89167 0.44652 0.0
C3621 C 0.6384 0.90411 0.44562 0.0
C3622 C 0.61926 0.88061 0.45852 0.0
C3623 C 0.63126 0.88213 0.46992 0.0
C3624 C 0.64676 0.89493 0.46935 0.0
C3625 C 0.65014 0.90573 0.45718 0.0
C3626 C 0.60263 0.86706 0.4587 0.0
C3627 C 0.65985 0.89706 0.4814 0.0
C3628 C 0.62246 0.86136 0.50999 0.0
C3629 C 0.6253 0.84901 0.50605 0.0
C3630 C 0.62377 0.87193 0.49815 0.0
C3631 C 0.6279 0.87 0.482 0.0
C3632 C 0.63006 0.85711 0.47776 0.0
C3633 C 0.62879 0.84681 0.48986 0.0
C3634 C 0.62146 0.88557 0.50316 0.0
C3635 C 0.63432 0.85456 0.46062 0.0
H3636 H 0.61389 0.89034 0.43753 0.0
H3637 H 0.66203 0.91548 0.45669 0.0
H3638 H 0.60222 0.85571 0.45573 0.0
H3639 H 0.59836 0.86657 0.47127 0.0
H3640 H 0.59451 0.86805 0.44961 0.0
H3641 H 0.6711 0.90805 0.47978 0.0
H3642 H 0.65669 0.89745 0.49436 0.0
H3643 H 0.66166 0.88683 0.47964 0.0
H3644 H 0.61988 0.86314 0.52254 0.0
H3645 H 0.63079 0.83714 0.48674 0.0
H3646 H 0.61319 0.88622 0.49401 0.0
H3647 H 0.6328 0.89684 0.50326 0.0
H3648 H 0.61692 0.88459 0.51567 0.0
H3649 H 0.62598 0.85452 0.45102 0.0
H3650 H 0.63432 0.84327 0.45893 0.0
H3651 H 0.64616 0.86443 0.45844 0.0
C3652 C 0.11161 0.74364 0.41968 0.0
C3653 C 0.09896 0.74629 0.41828 0.0
C3654 C 0.12172 0.74881 0.43418 0.0
C3655 C 0.11905 0.75673 0.44759 0.0
C3656 C 0.10651 0.75972 0.4461 0.0
C3657 C 0.09669 0.75454 0.43146 0.0
C3658 C 0.13504 0.74551 0.43529 0.0
C3659 C 0.10328 0.76815 0.46012 0.0
C3660 C 0.13226 0.75634 0.49211 0.0
C3661 C 0.14472 0.77192 0.49531 0.0
C3662 C 0.12428 0.75099 0.47635 0.0
C3663 C 0.12892 0.76145 0.46348 0.0
C3664 C 0.14205 0.77691 0.46639 0.0
C3665 C 0.14975 0.782 0.48232 0.0
C3666 C 0.11027 0.73444 0.47378 0.0
C3667 C 0.14748 0.78834 0.45292 0.0
H3668 H 0.11337 0.73717 0.4096 0.0
H3669 H 0.08715 0.75694 0.43034 0.0
H3670 H 0.14627 0.75661 0.43882 0.0
H3671 H 0.13316 0.73732 0.44513 0.0
H3672 H 0.13615 0.74015 0.4234 0.0
H3673 H 0.0932 0.76977 0.45686 0.0
H3674 H 0.10073 0.76131 0.47129 0.0
H3675 H 0.11377 0.77994 0.46349 0.0
H3676 H 0.12822 0.74858 0.50217 0.0
H3677 H 0.15948 0.79401 0.48475 0.0
H3678 H 0.11117 0.7282 0.46247 0.0
H3679 H 0.09943 0.73505 0.4719 0.0
H3680 H 0.10907 0.72734 0.48454 0.0
H3681 H 0.14861 0.78263 0.44132 0.0
H3682 H 0.1589 0.7992 0.45659 0.0
H3683 H 0.13864 0.79184 0.45011 0.0
C3684 C 0.2853 0.05305 0.75597 0.0
C3685 C 0.29844 0.06258 0.74727 0.0
C3686 C 0.28164 0.05939 0.76984 0.0
C3687 C 0.29148 0.07556 0.77522 0.0
C3688 C 0.30438 0.08535 0.76606 0.0
C3689 C 0.30767 0.07875 0.75218 0.0
C3690 C 0.26765 0.04864 0.77915 0.0
C3691 C 0.31527 0.10263 0.77147 0.0
C3692 C 0.28061 0.09738 0.80713 0.0
C3693 C 0.28896 0.09726 0.8215 0.0
C3694 C 0.28071 0.08975 0.79203 0.0
C3695 C 0.28944 0.08195 0.79135 0.0
C3696 C 0.29734 0.08125 0.80598 0.0
C3697 C 0.29691 0.08883 0.82087 0.0
C3698 C 0.272 0.09056 0.77671 0.0
C3699 C 0.30678 0.07305 0.8058 0.0
H3700 H 0.27804 0.04058 0.75209 0.0
H3701 H 0.31795 0.08613 0.74562 0.0
H3702 H 0.2717 0.04672 0.79134 0.0
H3703 H 0.26049 0.0542 0.78162 0.0
H3704 H 0.26009 0.03695 0.77222 0.0
H3705 H 0.324 0.10888 0.76228 0.0
H3706 H 0.30848 0.10867 0.7734 0.0
H3707 H 0.32164 0.1037 0.78351 0.0
H3708 H 0.27445 0.10389 0.80754 0.0
H3709 H 0.30306 0.08836 0.83204 0.0
H3710 H 0.26471 0.07864 0.77021 0.0
H3711 H 0.28053 0.09819 0.76796 0.0
H3712 H 0.26434 0.09544 0.77968 0.0
H3713 H 0.29942 0.06067 0.80048 0.0
H3714 H 0.3116 0.07294 0.81841 0.0
H3715 H 0.31668 0.07913 0.79779 0.0
C3716 C 0.91165 0.21704 0.78633 0.0
C3717 C 0.92799 0.22465 0.78598 0.0
C3718 C 0.90393 0.20702 0.79884 0.0
C3719 C 0.91276 0.20443 0.8112 0.0
C3720 C 0.92922 0.21175 0.81066 0.0
C3721 C 0.93667 0.22188 0.79811 0.0
C3722 C 0.88638 0.1996 0.7991 0.0
C3723 C 0.93897 0.20905 0.82348 0.0
C3724 C 0.89395 0.19222 0.85202 0.0
C3725 C 0.88685 0.17569 0.85008 0.0
C3726 C 0.90277 0.20174 0.83965 0.0
C3727 C 0.90473 0.19459 0.82505 0.0
C3728 C 0.89818 0.17799 0.8233 0.0
C3729 C 0.88923 0.16873 0.83579 0.0
C3730 C 0.90953 0.21941 0.84196 0.0
C3731 C 0.90016 0.16997 0.80798 0.0
H3732 H 0.90494 0.21932 0.7771 0.0
H3733 H 0.94929 0.22767 0.79776 0.0
H3734 H 0.88074 0.18655 0.79906 0.0
H3735 H 0.8835 0.20379 0.81068 0.0
H3736 H 0.8812 0.20247 0.78832 0.0
H3737 H 0.95151 0.21487 0.82075 0.0
H3738 H 0.93819 0.21373 0.83593 0.0
H3739 H 0.93438 0.19619 0.8241 0.0
H3740 H 0.89244 0.19772 0.86317 0.0
H3741 H 0.88367 0.15597 0.83408 0.0
H3742 H 0.90413 0.22318 0.83225 0.0
H3743 H 0.92232 0.2257 0.84049 0.0
H3744 H 0.90751 0.22317 0.85433 0.0
H3745 H 0.8938 0.1712 0.79707 0.0
H3746 H 0.89562 0.15718 0.80922 0.0
H3747 H 0.91271 0.17572 0.80541 0.0
C3748 C 0.78555 0.69886 0.7614 0.0
C3749 C 0.7692 0.69095 0.76209 0.0
C3750 C 0.79546 0.70262 0.77588 0.0
C3751 C 0.78885 0.69829 0.79135 0.0
C3752 C 0.77241 0.69083 0.79218 0.0
C3753 C 0.76281 0.68732 0.77757 0.0
C3754 C 0.81295 0.71072 0.77455 0.0
C3755 C 0.76488 0.68603 0.80844 0.0
C3756 C 0.80877 0.68904 0.82637 0.0
C3757 C 0.81355 0.70206 0.83783 0.0
C3758 C 0.8014 0.68804 0.81083 0.0
C3759 C 0.79886 0.70044 0.80658 0.0
C3760 C 0.80453 0.71408 0.81765 0.0
C3761 C 0.81178 0.71471 0.8332 0.0
C3762 C 0.79557 0.67331 0.79936 0.0
C3763 C 0.80219 0.72761 0.81347 0.0
H3764 H 0.79057 0.70164 0.74948 0.0
H3765 H 0.75022 0.68155 0.77824 0.0
H3766 H 0.81911 0.72105 0.78379 0.0
H3767 H 0.8171 0.70243 0.77737 0.0
H3768 H 0.81633 0.71479 0.76196 0.0
H3769 H 0.75199 0.68097 0.80706 0.0
H3770 H 0.76726 0.67708 0.81354 0.0
H3771 H 0.77 0.69638 0.81768 0.0
H3772 H 0.81041 0.67938 0.82976 0.0
H3773 H 0.81538 0.72479 0.84202 0.0
H3774 H 0.79962 0.67648 0.78676 0.0
H3775 H 0.78257 0.66669 0.79819 0.0
H3776 H 0.7996 0.66535 0.80392 0.0
H3777 H 0.80558 0.731 0.80072 0.0
H3778 H 0.80909 0.73817 0.82232 0.0
H3779 H 0.78961 0.72386 0.81383 0.0
C3780 C 0.74498 0.6316 0.60526 0.0
C3781 C 0.74161 0.64386 0.60695 0.0
C3782 C 0.75208 0.62978 0.5913 0.0
C3783 C 0.75567 0.6403 0.57859 0.0
C3784 C 0.75184 0.65237 0.57993 0.0
C3785 C 0.745 0.65409 0.59414 0.0
C3786 C 0.75611 0.61686 0.59037 0.0
C3787 C 0.75535 0.66373 0.56654 0.0
C3788 C 0.78878 0.64773 0.5515 0.0
C3789 C 0.7806 0.63815 0.53707 0.0
C3790 C 0.78079 0.64831 0.5652 0.0
C3791 C 0.76421 0.63928 0.56431 0.0
C3792 C 0.75589 0.62956 0.54974 0.0
C3793 C 0.76422 0.62899 0.53631 0.0
C3794 C 0.7901 0.6586 0.58062 0.0
C3795 C 0.73821 0.61998 0.54825 0.0
H3796 H 0.74214 0.62344 0.6149 0.0
H3797 H 0.74269 0.66374 0.59538 0.0
H3798 H 0.75073 0.60921 0.57871 0.0
H3799 H 0.76899 0.62218 0.59017 0.0
H3800 H 0.75209 0.60934 0.60104 0.0
H3801 H 0.75055 0.67165 0.56885 0.0
H3802 H 0.76822 0.67113 0.56583 0.0
H3803 H 0.75038 0.65711 0.55426 0.0
H3804 H 0.80147 0.65465 0.55213 0.0
H3805 H 0.75793 0.62164 0.52509 0.0
H3806 H 0.78714 0.65138 0.59153 0.0
H3807 H 0.78702 0.66786 0.58313 0.0
H3808 H 0.80295 0.66446 0.57949 0.0
H3809 H 0.73392 0.61183 0.55836 0.0
H3810 H 0.73352 0.61291 0.53614 0.0
H3811 H 0.73338 0.62797 0.54965 0.0
C3812 C 0.37698 0.09777 0.60867 0.0
C3813 C 0.36572 0.09567 0.61984 0.0
C3814 C 0.38017 0.1079 0.5958 0.0
C3815 C 0.37176 0.11595 0.594 0.0
C3816 C 0.3605 0.11399 0.60537 0.0
C3817 C 0.35766 0.10391 0.61817 0.0
C3818 C 0.39237 0.10985 0.58402 0.0
C3819 C 0.35118 0.12226 0.60377 0.0
C3820 C 0.38573 0.15212 0.56937 0.0
C3821 C 0.37601 0.14565 0.55466 0.0
C3822 C 0.38501 0.14248 0.58201 0.0
C3823 C 0.37422 0.12601 0.57994 0.0
C3824 C 0.36486 0.11933 0.56485 0.0
C3825 C 0.36591 0.12923 0.55237 0.0
C3826 C 0.39527 0.15001 0.59789 0.0
C3827 C 0.35321 0.10182 0.56217 0.0
H3828 H 0.38332 0.0915 0.61003 0.0
H3829 H 0.34878 0.10214 0.62663 0.0
H3830 H 0.38681 0.10551 0.57124 0.0
H3831 H 0.4013 0.12256 0.5837 0.0
H3832 H 0.39836 0.10331 0.58755 0.0
H3833 H 0.34313 0.11976 0.61387 0.0
H3834 H 0.35921 0.13523 0.60399 0.0
H3835 H 0.34415 0.11842 0.59168 0.0
H3836 H 0.39347 0.16482 0.57129 0.0
H3837 H 0.35858 0.12412 0.54091 0.0
H3838 H 0.40138 0.14356 0.60129 0.0
H3839 H 0.3879 0.14928 0.60818 0.0
H3840 H 0.40417 0.16264 0.59686 0.0
H3841 H 0.35906 0.09494 0.56468 0.0
H3842 H 0.34758 0.09836 0.54933 0.0
H3843 H 0.34392 0.09844 0.57099 0.0
C3844 C 0.89608 0.23995 0.64119 0.0
C3845 C 0.90309 0.25597 0.64664 0.0
C3846 C 0.88771 0.23426 0.62563 0.0
C3847 C 0.88618 0.24483 0.61541 0.0
C3848 C 0.89246 0.26082 0.62129 0.0
C3849 C 0.90096 0.26623 0.6368 0.0
C3850 C 0.88131 0.21716 0.61972 0.0
C3851 C 0.89085 0.27239 0.61089 0.0
C3852 C 0.88321 0.23608 0.56884 0.0
C3853 C 0.86706 0.22907 0.5648 0.0
C3854 C 0.88952 0.24123 0.58525 0.0
C3855 C 0.87948 0.23957 0.59796 0.0
C3856 C 0.86321 0.23283 0.59397 0.0
C3857 C 0.85717 0.22757 0.57743 0.0
C3858 C 0.90695 0.24834 0.589 0.0
C3859 C 0.85219 0.23102 0.60719 0.0
H3860 H 0.89784 0.23203 0.64873 0.0
H3861 H 0.90624 0.27859 0.6411 0.0
H3862 H 0.86885 0.21161 0.61504 0.0
H3863 H 0.88793 0.2165 0.60925 0.0
H3864 H 0.88221 0.21017 0.62971 0.0
H3865 H 0.89479 0.28387 0.618 0.0
H3866 H 0.89798 0.27464 0.60001 0.0
H3867 H 0.87849 0.26739 0.60607 0.0
H3868 H 0.89099 0.2376 0.55912 0.0
H3869 H 0.84466 0.22203 0.57444 0.0
H3870 H 0.90913 0.24142 0.59812 0.0
H3871 H 0.91216 0.2606 0.59467 0.0
H3872 H 0.9131 0.24862 0.57771 0.0
H3873 H 0.85231 0.22306 0.61643 0.0
H3874 H 0.83995 0.22613 0.60194 0.0
H3875 H 0.85614 0.24265 0.61394 0.0
C3876 C 0.38054 0.26944 0.64794 0.0
C3877 C 0.36579 0.26821 0.64638 0.0
C3878 C 0.38517 0.26229 0.63575 0.0
C3879 C 0.37477 0.25364 0.62174 0.0
C3880 C 0.35986 0.25232 0.62014 0.0
C3881 C 0.35557 0.25962 0.63246 0.0
C3882 C 0.40119 0.26402 0.63779 0.0
C3883 C 0.34839 0.24313 0.60542 0.0
C3884 C 0.38838 0.24591 0.58107 0.0
C3885 C 0.38373 0.22987 0.58147 0.0
C3886 C 0.38629 0.25405 0.59449 0.0
C3887 C 0.37933 0.24594 0.60862 0.0
C3888 C 0.37536 0.22997 0.60945 0.0
C3889 C 0.37758 0.22211 0.59584 0.0
C3890 C 0.39065 0.27106 0.59308 0.0
C3891 C 0.36795 0.22093 0.62433 0.0
H3892 H 0.38853 0.27617 0.65861 0.0
H3893 H 0.34406 0.25839 0.63133 0.0
H3894 H 0.40005 0.25219 0.63782 0.0
H3895 H 0.40805 0.26988 0.62714 0.0
H3896 H 0.40785 0.27105 0.64946 0.0
H3897 H 0.33727 0.24326 0.60605 0.0
H3898 H 0.35369 0.24817 0.59374 0.0
H3899 H 0.34562 0.23066 0.60477 0.0
H3900 H 0.39288 0.2519 0.56989 0.0
H3901 H 0.37407 0.20974 0.59622 0.0
H3902 H 0.39759 0.27842 0.60446 0.0
H3903 H 0.37984 0.27179 0.59186 0.0
H3904 H 0.39751 0.27615 0.58216 0.0
H3905 H 0.37485 0.22774 0.63596 0.0
H3906 H 0.36699 0.20915 0.62375 0.0
H3907 H 0.35602 0.2192 0.62498 0.0
C3908 C 0.74255 0.11609 0.601 0.0
C3909 C 0.74409 0.10273 0.60238 0.0
C3910 C 0.7507 0.12718 0.58945 0.0
C3911 C 0.76053 0.12478 0.57896 0.0
C3912 C 0.76194 0.1112 0.58009 0.0
C3913 C 0.75378 0.1004 0.59183 0.0
C3914 C 0.74896 0.14155 0.58861 0.0
C3915 C 0.7723 0.1082 0.56908 0.0
C3916 C 0.77309 0.14552 0.53912 0.0
C3917 C 0.78866 0.15719 0.54374 0.0
C3918 C 0.76359 0.13517 0.55061 0.0
C3919 C 0.7698 0.13665 0.56711 0.0
C3920 C 0.7853 0.14886 0.572 0.0
C3921 C 0.79457 0.15894 0.56022 0.0
C3922 C 0.74716 0.12223 0.54491 0.0
C3923 C 0.79228 0.15093 0.58953 0.0
H3924 H 0.73493 0.11788 0.60896 0.0
H3925 H 0.75528 0.09028 0.59298 0.0
H3926 H 0.76051 0.15244 0.59155 0.0
H3927 H 0.74484 0.14215 0.57584 0.0
H3928 H 0.74058 0.14151 0.59739 0.0
H3929 H 0.77158 0.09673 0.57103 0.0
H3930 H 0.76893 0.10824 0.55583 0.0
H3931 H 0.78467 0.11781 0.5716 0.0
H3932 H 0.76855 0.14407 0.52633 0.0
H3933 H 0.80656 0.16809 0.56384 0.0
H3934 H 0.73864 0.1223 0.55336 0.0
H3935 H 0.74633 0.11055 0.54533 0.0
H3936 H 0.74369 0.12343 0.53205 0.0
H3937 H 0.78447 0.15166 0.59855 0.0
H3938 H 0.80406 0.16172 0.59163 0.0
H3939 H 0.79336 0.14052 0.59217 0.0
C3940 C 0.89407 0.6369 0.62219 0.0
C3941 C 0.89112 0.64321 0.63655 0.0
C3942 C 0.88473 0.63346 0.60738 0.0
C3943 C 0.87228 0.63662 0.60691 0.0
C3944 C 0.86876 0.64227 0.62159 0.0
C3945 C 0.8782 0.64542 0.63631 0.0
C3946 C 0.88873 0.62724 0.59205 0.0
C3947 C 0.85567 0.64591 0.62153 0.0
C3948 C 0.86383 0.6483 0.56547 0.0
C3949 C 0.85026 0.63441 0.55904 0.0
C3950 C 0.87083 0.64923 0.58119 0.0
C3951 C 0.86427 0.63586 0.59067 0.0
C3952 C 0.85055 0.6218 0.58435 0.0
C3953 C 0.84366 0.62125 0.5686 0.0
C3954 C 0.88544 0.66447 0.5875 0.0
C3955 C 0.84332 0.60729 0.5941 0.0
H3956 H 0.90394 0.63498 0.62246 0.0
H3957 H 0.87596 0.65037 0.6474 0.0
H3958 H 0.87805 0.61691 0.58584 0.0
H3959 H 0.89354 0.63653 0.58308 0.0
H3960 H 0.89753 0.62369 0.59494 0.0
H3961 H 0.85329 0.64845 0.63428 0.0
H3962 H 0.85886 0.65639 0.61437 0.0
H3963 H 0.84474 0.63589 0.61534 0.0
H3964 H 0.86924 0.65841 0.55805 0.0
H3965 H 0.83311 0.61053 0.56378 0.0
H3966 H 0.89545 0.66243 0.58909 0.0
H3967 H 0.88378 0.66862 0.59983 0.0
H3968 H 0.88859 0.67401 0.57893 0.0
H3969 H 0.85179 0.60318 0.59617 0.0
H3970 H 0.83239 0.59744 0.58765 0.0
H3971 H 0.84061 0.6102 0.6065 0.0
C3972 C 0.93354 0.70467 0.80256 0.0
C3973 C 0.9252 0.70004 0.78697 0.0
C3974 C 0.92685 0.70684 0.81669 0.0
C3975 C 0.91139 0.70414 0.81516 0.0
C3976 C 0.90316 0.7001 0.79933 0.0
C3977 C 0.9102 0.69815 0.7854 0.0
C3978 C 0.93607 0.71138 0.83332 0.0
C3979 C 0.88661 0.69702 0.79722 0.0
C3980 C 0.88641 0.68977 0.85189 0.0
C3981 C 0.88617 0.70333 0.85766 0.0
C3982 C 0.89478 0.68999 0.83824 0.0
C3983 C 0.90328 0.70415 0.83024 0.0
C3984 C 0.90352 0.71803 0.8363 0.0
C3985 C 0.8949 0.71744 0.84991 0.0
C3986 C 0.89424 0.67493 0.83215 0.0
C3987 C 0.91257 0.73337 0.82816 0.0
H3988 H 0.94522 0.70631 0.80376 0.0
H3989 H 0.90365 0.69442 0.77339 0.0
H3990 H 0.93588 0.72151 0.83974 0.0
H3991 H 0.93058 0.70134 0.84133 0.0
H3992 H 0.94845 0.71462 0.83215 0.0
H3993 H 0.8823 0.69518 0.78394 0.0
H3994 H 0.87866 0.68632 0.80355 0.0
H3995 H 0.8859 0.70705 0.80308 0.0
H3996 H 0.87995 0.67892 0.85801 0.0
H3997 H 0.89466 0.72793 0.8542 0.0
H3998 H 0.90629 0.67689 0.83207 0.0
H3999 H 0.88896 0.67141 0.81919 0.0
H4000 H 0.88731 0.66499 0.83995 0.0
H4001 H 0.92491 0.73641 0.82723 0.0
H4002 H 0.91246 0.74335 0.83508 0.0
H4003 H 0.90742 0.73205 0.81533 0.0
C4004 C 0.28925 0.22603 0.77775 0.0
C4005 C 0.30467 0.23857 0.77699 0.0
C4006 C 0.28566 0.21429 0.78893 0.0
C4007 C 0.29777 0.21517 0.79965 0.0
C4008 C 0.31331 0.22788 0.79908 0.0
C4009 C 0.31658 0.23936 0.78772 0.0
C4010 C 0.26895 0.2009 0.78918 0.0
C4011 C 0.32656 0.22925 0.81032 0.0
C4012 C 0.28916 0.19352 0.83912 0.0
C4013 C 0.29134 0.18085 0.83452 0.0
C4014 C 0.29068 0.2045 0.82772 0.0
C4015 C 0.29437 0.20271 0.81132 0.0
C4016 C 0.29596 0.18958 0.80643 0.0
C4017 C 0.29448 0.17884 0.81812 0.0
C4018 C 0.28901 0.2184 0.83343 0.0
C4019 C 0.29975 0.18718 0.78901 0.0
H4020 H 0.27995 0.22541 0.76963 0.0
H4021 H 0.32858 0.24881 0.78703 0.0
H4022 H 0.26833 0.18944 0.78621 0.0
H4023 H 0.2648 0.20053 0.8018 0.0
H4024 H 0.26087 0.20202 0.78017 0.0
H4025 H 0.3379 0.24012 0.80868 0.0
H4026 H 0.32385 0.22936 0.8235 0.0
H4027 H 0.32793 0.21883 0.80777 0.0
H4028 H 0.2869 0.19521 0.85184 0.0
H4029 H 0.29599 0.16896 0.81448 0.0
H4030 H 0.28063 0.21942 0.8248 0.0
H4031 H 0.30048 0.22949 0.83335 0.0
H4032 H 0.28491 0.21741 0.84616 0.0
H4033 H 0.29135 0.18755 0.7798 0.0
H4034 H 0.2994 0.17575 0.78684 0.0
H4035 H 0.31163 0.1969 0.78671 0.0
C4036 C 0.7658 0.07861 0.75751 0.0
C4037 C 0.76804 0.07038 0.74429 0.0
C4038 C 0.77581 0.08402 0.772 0.0
C4039 C 0.78852 0.08128 0.77331 0.0
C4040 C 0.79111 0.0733 0.75989 0.0
C4041 C 0.78081 0.06791 0.74552 0.0
C4042 C 0.77266 0.09252 0.78602 0.0
C4043 C 0.8046 0.07025 0.76083 0.0
C4044 C 0.81933 0.10789 0.8073 0.0
C4045 C 0.81456 0.09827 0.82068 0.0
C4046 C 0.81161 0.10217 0.79143 0.0
C4047 C 0.79875 0.0865 0.78897 0.0
C4048 C 0.7945 0.07646 0.80221 0.0
C4049 C 0.80249 0.08246 0.81791 0.0
C4050 C 0.81662 0.11318 0.77758 0.0
C4051 C 0.78081 0.05971 0.80013 0.0
H4052 H 0.75617 0.08089 0.75651 0.0
H4053 H 0.78256 0.06148 0.73539 0.0
H4054 H 0.77057 0.08596 0.79736 0.0
H4055 H 0.78303 0.10447 0.78902 0.0
H4056 H 0.76234 0.0938 0.78297 0.0
H4057 H 0.80548 0.06461 0.74901 0.0
H4058 H 0.8158 0.0815 0.76389 0.0
H4059 H 0.80313 0.06241 0.77092 0.0
H4060 H 0.82878 0.12007 0.80938 0.0
H4061 H 0.79866 0.07503 0.82826 0.0
H4062 H 0.80765 0.11651 0.77481 0.0
H4063 H 0.81755 0.10721 0.76606 0.0
H4064 H 0.82804 0.12416 0.78086 0.0
H4065 H 0.76974 0.05992 0.79855 0.0
H4066 H 0.78016 0.05291 0.811 0.0
H4067 H 0.7816 0.0534 0.78882 0.0
C4068 C 0.07717 0.34885 0.0629 0.0
C4069 C 0.06102 0.34195 0.06444 0.0
C4070 C 0.0861 0.34412 0.07232 0.0
C4071 C 0.0787 0.33228 0.08358 0.0
C4072 C 0.06243 0.32538 0.08531 0.0
C4073 C 0.05379 0.33029 0.0757 0.0
C4074 C 0.10343 0.35169 0.07009 0.0
C4075 C 0.05417 0.31281 0.09729 0.0
C4076 C 0.09913 0.31003 0.09626 0.0
C4077 C 0.10688 0.3181 0.11153 0.0
C4078 C 0.08973 0.31438 0.08713 0.0
C4079 C 0.088 0.32704 0.09349 0.0
C4080 C 0.09544 0.33494 0.10912 0.0
C4081 C 0.10484 0.3304 0.11793 0.0
C4082 C 0.08201 0.30571 0.07047 0.0
C4083 C 0.09373 0.34839 0.11637 0.0
H4084 H 0.08277 0.35776 0.0541 0.0
H4085 H 0.04134 0.32509 0.07712 0.0
H4086 H 0.11023 0.35731 0.08213 0.0
H4087 H 0.10621 0.34252 0.06591 0.0
H4088 H 0.10741 0.3608 0.06089 0.0
H4089 H 0.04147 0.30875 0.09727 0.0
H4090 H 0.05546 0.30245 0.09403 0.0
H4091 H 0.0596 0.31742 0.11007 0.0
H4092 H 0.10086 0.30066 0.09117 0.0
H4093 H 0.11073 0.33657 0.12981 0.0
H4094 H 0.08659 0.31405 0.06055 0.0
H4095 H 0.06919 0.30095 0.0702 0.0
H4096 H 0.0841 0.29579 0.06757 0.0
H4097 H 0.0987 0.35831 0.10815 0.0
H4098 H 0.09976 0.35286 0.12897 0.0
H4099 H 0.08115 0.34451 0.11711 0.0
C4100 C 0.64993 0.71737 0.09991 0.0
C4101 C 0.65517 0.70759 0.10607 0.0
C4102 C 0.65596 0.73286 0.10688 0.0
C4103 C 0.66748 0.73866 0.12037 0.0
C4104 C 0.67268 0.72878 0.12679 0.0
C4105 C 0.66647 0.71336 0.11954 0.0
C4106 C 0.65018 0.74308 0.09968 0.0
C4107 C 0.68486 0.73454 0.14123 0.0
C4108 C 0.69329 0.78324 0.12772 0.0
C4109 C 0.68585 0.78659 0.14034 0.0
C4110 C 0.68758 0.76764 0.12128 0.0
C4111 C 0.67416 0.75514 0.12766 0.0
C4112 C 0.66685 0.75842 0.14069 0.0
C4113 C 0.67278 0.77412 0.14686 0.0
C4114 C 0.69566 0.76458 0.10736 0.0
C4115 C 0.6526 0.74538 0.14791 0.0
H4116 H 0.64135 0.71303 0.08936 0.0
H4117 H 0.67042 0.70577 0.12446 0.0
H4118 H 0.64525 0.74722 0.10946 0.0
H4119 H 0.66011 0.75374 0.09501 0.0
H4120 H 0.64104 0.73671 0.08932 0.0
H4121 H 0.68747 0.72528 0.1449 0.0
H4122 H 0.6959 0.74496 0.13795 0.0
H4123 H 0.6808 0.73839 0.15211 0.0
H4124 H 0.70331 0.79287 0.12255 0.0
H4125 H 0.66713 0.77667 0.15677 0.0
H4126 H 0.68746 0.75938 0.09609 0.0
H4127 H 0.6991 0.75589 0.11083 0.0
H4128 H 0.70629 0.77554 0.1042 0.0
H4129 H 0.6428 0.7394 0.13817 0.0
H4130 H 0.64868 0.74986 0.15844 0.0
H4131 H 0.65516 0.73632 0.15231 0.0
C4132 C 0.29424 0.9472 0.06693 0.0
C4133 C 0.29569 0.94036 0.05201 0.0
C4134 C 0.28019 0.94012 0.07483 0.0
C4135 C 0.26732 0.92576 0.0677 0.0
C4136 C 0.26864 0.91886 0.05254 0.0
C4137 C 0.28282 0.92632 0.0448 0.0
C4138 C 0.27919 0.94795 0.09089 0.0
C4139 C 0.25519 0.90347 0.04469 0.0
C4140 C 0.23823 0.90092 0.09821 0.0
C4141 C 0.2263 0.9045 0.09558 0.0
C4142 C 0.25136 0.90731 0.08879 0.0
C4143 C 0.25273 0.91774 0.07657 0.0
C4144 C 0.24065 0.92123 0.07364 0.0
C4145 C 0.22754 0.91452 0.08314 0.0
C4146 C 0.26398 0.90327 0.09226 0.0
C4147 C 0.24178 0.93239 0.06078 0.0
H4148 H 0.30409 0.95823 0.07236 0.0
H4149 H 0.28395 0.92102 0.03327 0.0
H4150 H 0.2692 0.95006 0.08976 0.0
H4151 H 0.277 0.94003 0.10108 0.0
H4152 H 0.29007 0.95941 0.09443 0.0
H4153 H 0.25794 0.89993 0.03261 0.0
H4154 H 0.25228 0.89393 0.05318 0.0
H4155 H 0.24459 0.90446 0.04269 0.0
H4156 H 0.23755 0.89344 0.10799 0.0
H4157 H 0.21828 0.91718 0.08088 0.0
H4158 H 0.27492 0.91402 0.09734 0.0
H4159 H 0.26664 0.89901 0.08058 0.0
H4160 H 0.26058 0.89406 0.10128 0.0
H4161 H 0.25195 0.94436 0.06428 0.0
H4162 H 0.23105 0.93327 0.05944 0.0
H4163 H 0.24379 0.92841 0.04853 0.0
C4164 C 0.33811 0.05731 0.00611 0.0
C4165 C 0.35123 0.05794 0.99935 0.0
C4166 C 0.3318 0.06625 6e-05 0.0
C4167 C 0.33873 0.07596 0.98688 0.0
C4168 C 0.35237 0.07716 0.9805 0.0
C4169 C 0.35849 0.06816 0.98685 0.0
C4170 C 0.31735 0.06479 0.00729 0.0
C4171 C 0.36007 0.08736 0.96641 0.0
C4172 C 0.31344 0.08382 0.95695 0.0
C4173 C 0.31814 0.09956 0.96176 0.0
C4174 C 0.31978 0.07589 0.96531 0.0
C4175 C 0.33106 0.08389 0.97885 0.0
C4176 C 0.33546 0.09961 0.98414 0.0
C4177 C 0.32898 0.10729 0.97548 0.0
C4178 C 0.31483 0.05913 0.95924 0.0
C4179 C 0.34732 0.10844 0.99864 0.0
H4180 H 0.3326 0.04956 0.01593 0.0
H4181 H 0.36854 0.06857 0.98149 0.0
H4182 H 0.31908 0.07668 0.01064 0.0
H4183 H 0.30726 0.05877 0.99788 0.0
H4184 H 0.3143 0.05796 0.01851 0.0
H4185 H 0.37121 0.08788 0.96367 0.0
H4186 H 0.35199 0.08258 0.95502 0.0
H4187 H 0.36252 0.09957 0.96938 0.0
H4188 H 0.30525 0.07788 0.94619 0.0
H4189 H 0.33255 0.11944 0.97929 0.0
H4190 H 0.31054 0.05126 0.96958 0.0
H4191 H 0.32506 0.05871 0.95475 0.0
H4192 H 0.30545 0.05439 0.94899 0.0
H4193 H 0.34386 0.10142 0.00969 0.0
H4194 H 0.34864 0.12018 0.00192 0.0
H4195 H 0.3589 0.11023 0.99557 0.0
C4196 C 0.94625 0.26704 0.98275 0.0
C4197 C 0.94421 0.27966 0.97862 0.0
C4198 C 0.93626 0.25168 0.97551 0.0
C4199 C 0.92402 0.24889 0.96373 0.0
C4200 C 0.92199 0.26158 0.95935 0.0
C4201 C 0.93206 0.27679 0.96691 0.0
C4202 C 0.93873 0.23842 0.98054 0.0
C4203 C 0.90908 0.25905 0.9468 0.0
C4204 C 0.90551 0.21172 0.93442 0.0
C4205 C 0.8915 0.20215 0.94179 0.0
C4206 C 0.9163 0.22696 0.94149 0.0
C4207 C 0.91303 0.23262 0.95634 0.0
C4208 C 0.89907 0.22283 0.96402 0.0
C4209 C 0.88844 0.20773 0.9566 0.0
C4210 C 0.93101 0.23714 0.93289 0.0
C4211 C 0.89527 0.22836 0.97998 0.0
H4212 H 0.95578 0.26919 0.99155 0.0
H4213 H 0.93028 0.28642 0.96379 0.0
H4214 H 0.92807 0.2292 0.98591 0.0
H4215 H 0.94072 0.23273 0.96947 0.0
H4216 H 0.94887 0.24259 0.9898 0.0
H4217 H 0.90945 0.27027 0.94429 0.0
H4218 H 0.90999 0.25353 0.93493 0.0
H4219 H 0.8975 0.2508 0.95136 0.0
H4220 H 0.90781 0.20743 0.92289 0.0
H4221 H 0.87768 0.20023 0.96241 0.0
H4222 H 0.9415 0.24102 0.94153 0.0
H4223 H 0.93116 0.24795 0.92918 0.0
H4224 H 0.93199 0.23084 0.92165 0.0
H4225 H 0.90489 0.23189 0.98972 0.0
H4226 H 0.88415 0.21909 0.98462 0.0
H4227 H 0.89426 0.23893 0.97803 0.0
C4228 C 0.70693 0.6571 0.00577 0.0
C4229 C 0.70493 0.64879 0.01999 0.0
C4230 C 0.72074 0.66294 0.99748 0.0
C4231 C 0.73275 0.66025 0.00349 0.0
C4232 C 0.7308 0.65186 0.01786 0.0
C4233 C 0.71691 0.64629 0.026 0.0
C4234 C 0.72247 0.67197 0.9823 0.0
C4235 C 0.74328 0.64861 0.02449 0.0
C4236 C 0.76108 0.66161 0.97255 0.0
C4237 C 0.77425 0.67663 0.97666 0.0
C4238 C 0.7476 0.65606 0.98135 0.0
C4239 C 0.74717 0.66585 0.99445 0.0
C4240 C 0.76038 0.68105 0.99865 0.0
C4241 C 0.7738 0.68624 0.98974 0.0
C4242 C 0.73375 0.63976 0.97653 0.0
C4243 C 0.76028 0.69184 0.01249 0.0
H4244 H 0.69777 0.65925 0.00127 0.0
H4245 H 0.71533 0.63979 0.03695 0.0
H4246 H 0.73313 0.68388 0.98413 0.0
H4247 H 0.72396 0.66575 0.97135 0.0
H4248 H 0.71219 0.67337 0.97949 0.0
H4249 H 0.74004 0.64212 0.03593 0.0
H4250 H 0.74536 0.64153 0.01493 0.0
H4251 H 0.75451 0.65989 0.0273 0.0
H4252 H 0.7612 0.65423 0.96225 0.0
H4253 H 0.78398 0.69779 0.9931 0.0
H4254 H 0.72346 0.64068 0.97234 0.0
H4255 H 0.73049 0.63256 0.98745 0.0
H4256 H 0.73618 0.63342 0.96642 0.0
H4257 H 0.75063 0.69424 0.00982 0.0
H4258 H 0.77151 0.7033 0.01422 0.0
H4259 H 0.75808 0.68601 0.02433 0.0
C4260 C 0.93999 0.65688 0.98261 0.0
C4261 C 0.93922 0.65653 -9e-05 0.0
C4262 C 0.93152 0.66202 0.97303 0.0
C4263 C 0.92221 0.66715 0.98095 0.0
C4264 C 0.92142 0.66692 0.9984 0.0
C4265 C 0.92985 0.66152 0.00765 0.0
C4266 C 0.93253 0.66196 0.95443 0.0
C4267 C 0.91166 0.67237 0.00729 0.0
C4268 C 0.91079 0.69345 0.95846 0.0
C4269 C 0.8952 0.68265 0.95278 0.0
C4270 C 0.91976 0.68857 0.96759 0.0
C4271 C 0.91304 0.67248 0.97096 0.0
C4272 C 0.89743 0.66147 0.965 0.0
C4273 C 0.88867 0.66671 0.95612 0.0
C4274 C 0.93636 0.70066 0.97384 0.0
C4275 C 0.88987 0.64419 0.96824 0.0
H4276 H 0.94743 0.65336 0.97653 0.0
H4277 H 0.92901 0.66112 0.02097 0.0
H4278 H 0.92067 0.65447 0.94811 0.0
H4279 H 0.93717 0.6741 0.95045 0.0
H4280 H 0.94019 0.65746 0.95017 0.0
H4281 H 0.91263 0.67186 0.02096 0.0
H4282 H 0.91538 0.68471 0.00456 0.0
H4283 H 0.89916 0.6649 0.00275 0.0
H4284 H 0.91599 0.70575 0.95581 0.0
H4285 H 0.87654 0.65831 0.95212 0.0
H4286 H 0.94462 0.69718 0.96906 0.0
H4287 H 0.93755 0.70114 0.9876 0.0
H4288 H 0.93989 0.71269 0.97005 0.0
H4289 H 0.89709 0.63928 0.96367 0.0
H4290 H 0.87785 0.63704 0.96214 0.0
H4291 H 0.88924 0.64286 0.98179 0.0
C4292 C 0.33888 0.28084 0.96804 0.0
C4293 C 0.34365 0.29399 0.95864 0.0
C4294 C 0.33291 0.26563 0.96034 0.0
C4295 C 0.33183 0.26353 0.9428 0.0
C4296 C 0.33663 0.27672 0.93321 0.0
C4297 C 0.34242 0.29179 0.94125 0.0
C4298 C 0.32786 0.25182 0.97098 0.0
C4299 C 0.33576 0.27494 0.91448 0.0
C4300 C 0.33121 0.22685 0.92502 0.0
C4301 C 0.31518 0.21658 0.92066 0.0
C4302 C 0.33682 0.24229 0.93181 0.0
C4303 C 0.32612 0.24756 0.93456 0.0
C4304 C 0.30996 0.23737 0.93002 0.0
C4305 C 0.30469 0.22201 0.92305 0.0
C4306 C 0.35415 0.25285 0.93641 0.0
C4307 C 0.29821 0.24257 0.93286 0.0
H4308 H 0.34001 0.28245 0.98148 0.0
H4309 H 0.34583 0.30184 0.93387 0.0
H4310 H 0.31551 0.24263 0.96738 0.0
H4311 H 0.33514 0.24633 0.96894 0.0
H4312 H 0.32892 0.25537 0.98443 0.0
H4313 H 0.33984 0.28637 0.90883 0.0
H4314 H 0.34304 0.26993 0.91043 0.0
H4315 H 0.32352 0.26653 0.90958 0.0
H4316 H 0.33938 0.22268 0.92354 0.0
H4317 H 0.29232 0.21422 0.91955 0.0
H4318 H 0.35621 0.25568 0.95004 0.0
H4319 H 0.35868 0.2642 0.9305 0.0
H4320 H 0.36101 0.24727 0.93257 0.0
H4321 H 0.29823 0.24531 0.94634 0.0
H4322 H 0.28612 0.2334 0.92818 0.0
H4323 H 0.30152 0.25357 0.92663 0.0
C4324 C 0.70926 0.04541 0.00318 0.0
C4325 C 0.70468 0.05513 0.01154 0.0
C4326 C 0.72236 0.0518 0.99372 0.0
C4327 C 0.73089 0.06829 0.99214 0.0
C4328 C 0.72647 0.07823 0.00059 0.0
C4329 C 0.71351 0.07155 0.01032 0.0
C4330 C 0.72683 0.04083 0.98508 0.0
C4331 C 0.73518 0.09586 0.999 0.0
C4332 C 0.77156 0.08642 0.97626 0.0
C4333 C 0.76839 0.08686 0.95926 0.0
C4334 C 0.75948 0.08039 0.98713 0.0
C4335 C 0.7439 0.07497 0.98093 0.0
C4336 C 0.74062 0.07548 0.96384 0.0
C4337 C 0.75286 0.08122 0.9532 0.0
C4338 C 0.76336 0.07974 0.00524 0.0
C4339 C 0.72417 0.06993 0.95678 0.0
H4340 H 0.70237 0.0327 0.00363 0.0
H4341 H 0.71025 0.0792 0.01689 0.0
H4342 H 0.72508 0.04079 0.97143 0.0
H4343 H 0.73942 0.04505 0.98804 0.0
H4344 H 0.7198 0.02849 0.98868 0.0
H4345 H 0.73052 0.102 0.00671 0.0
H4346 H 0.7478 0.10099 0.00272 0.0
H4347 H 0.73428 0.09827 0.98583 0.0
H4348 H 0.78353 0.09098 0.98114 0.0
H4349 H 0.7502 0.08121 0.94006 0.0
H4350 H 0.75664 0.06737 0.00879 0.0
H4351 H 0.75985 0.08682 0.0131 0.0
H4352 H 0.77605 0.08427 0.00805 0.0
H4353 H 0.7165 0.05714 0.95839 0.0
H4354 H 0.72371 0.07182 0.94337 0.0
H4355 H 0.71924 0.0763 0.9636 0.0
C4356 C 0.65065 0.9452 0.09245 0.0
C4357 C 0.64839 0.9451 0.0752 0.0
C4358 C 0.65756 0.93713 0.09933 0.0
C4359 C 0.6624 0.9288 0.0887 0.0
C4360 C 0.66006 0.92852 0.07128 0.0
C4361 C 0.65305 0.93667 0.06472 0.0
C4362 C 0.65985 0.93769 0.118 0.0
C4363 C 0.66504 0.91971 0.05959 0.0
C4364 C 0.69279 0.92089 0.1088 0.0
C4365 C 0.6833 0.9056 0.11383 0.0
C4366 C 0.68622 0.92838 0.09992 0.0
C4367 C 0.66982 0.92033 0.09599 0.0
C4368 C 0.66033 0.9046 0.1003 0.0
C4369 C 0.66719 0.89742 0.10917 0.0
C4370 C 0.69672 0.94515 0.09547 0.0
C4371 C 0.64282 0.89559 0.09624 0.0
H4372 H 0.64736 0.95194 0.10062 0.0
H4373 H 0.65122 0.93644 0.05138 0.0
H4374 H 0.65381 0.92552 0.12217 0.0
H4375 H 0.6725 0.9431 0.12182 0.0
H4376 H 0.6553 0.94458 0.12451 0.0
H4377 H 0.66233 0.9206 0.04635 0.0
H4378 H 0.67784 0.92448 0.06166 0.0
H4379 H 0.65908 0.90704 0.06213 0.0
H4380 H 0.70523 0.92725 0.11244 0.0
H4381 H 0.65988 0.88548 0.11279 0.0
H4382 H 0.69401 0.9532 0.10279 0.0
H4383 H 0.69455 0.94624 0.08215 0.0
H4384 H 0.70933 0.94919 0.09799 0.0
H4385 H 0.63738 0.90121 0.10348 0.0
H4386 H 0.63733 0.88302 0.09915 0.0
H4387 H 0.64008 0.89602 0.0829 0.0
C4388 C 0.06819 0.72972 0.09229 0.0
C4389 C 0.05235 0.72368 0.08741 0.0
C4390 C 0.07733 0.74496 0.10016 0.0
C4391 C 0.0704 0.75428 0.10338 0.0
C4392 C 0.05438 0.74822 0.09853 0.0
C4393 C 0.04556 0.733 0.09051 0.0
C4394 C 0.09443 0.7511 0.10498 0.0
C4395 C 0.04655 0.75776 0.10192 0.0
C4396 C 0.09181 0.78758 0.13717 0.0
C4397 C 0.10024 0.80058 0.12779 0.0
C4398 C 0.08159 0.7725 0.12937 0.0
C4399 C 0.07998 0.7704 0.1118 0.0
C4400 C 0.08816 0.78359 0.10229 0.0
C4401 C 0.09815 0.79856 0.11042 0.0
C4402 C 0.07289 0.75874 0.13992 0.0
C4403 C 0.08687 0.7818 0.08355 0.0
H4404 H 0.07348 0.72257 0.08977 0.0
H4405 H 0.03325 0.72826 0.08692 0.0
H4406 H 0.10183 0.76219 0.09894 0.0
H4407 H 0.0968 0.75397 0.11859 0.0
H4408 H 0.09807 0.74243 0.10139 0.0
H4409 H 0.03397 0.75129 0.09741 0.0
H4410 H 0.04748 0.76082 0.11546 0.0
H4411 H 0.0526 0.76904 0.09583 0.0
H4412 H 0.09339 0.78918 0.15061 0.0
H4413 H 0.10485 0.80858 0.10316 0.0
H4414 H 0.07706 0.75024 0.13805 0.0
H4415 H 0.06017 0.75234 0.1361 0.0
H4416 H 0.07455 0.76256 0.15335 0.0
H4417 H 0.09157 0.77421 0.07927 0.0
H4418 H 0.09341 0.79335 0.078 0.0
H4419 H 0.07441 0.77587 0.07877 0.0
C4420 C 0.27969 0.35081 0.03262 0.0
C4421 C 0.2941 0.35546 0.04127 0.0
C4422 C 0.26579 0.34451 0.04085 0.0
C4423 C 0.26635 0.34293 0.05815 0.0
C4424 C 0.28084 0.34764 0.06695 0.0
C4425 C 0.2945 0.35375 0.0584 0.0
C4426 C 0.25051 0.33954 0.03107 0.0
C4427 C 0.28192 0.34618 0.08543 0.0
C4428 C 0.23479 0.34116 0.08449 0.0
C4429 C 0.22639 0.32509 0.08753 0.0
C4430 C 0.24751 0.34704 0.07448 0.0
C4431 C 0.25187 0.33657 0.06723 0.0
C4432 C 0.24305 0.32022 0.06967 0.0
C4433 C 0.23042 0.31468 0.07983 0.0
C4434 C 0.25663 0.36455 0.07217 0.0
C4435 C 0.24731 0.30869 0.06204 0.0
H4436 H 0.2793 0.3522 0.01941 0.0
H4437 H 0.3055 0.35696 0.06513 0.0
H4438 H 0.24202 0.32689 0.0325 0.0
H4439 H 0.24528 0.34644 0.03595 0.0
H4440 H 0.25203 0.34127 0.01763 0.0
H4441 H 0.29412 0.3505 0.09045 0.0
H4442 H 0.27742 0.35305 0.09207 0.0
H4443 H 0.2745 0.33365 0.08822 0.0
H4444 H 0.23152 0.34921 0.09011 0.0
H4445 H 0.22403 0.30226 0.08221 0.0
H4446 H 0.2576 0.36658 0.05877 0.0
H4447 H 0.26871 0.36975 0.07798 0.0
H4448 H 0.25113 0.37093 0.0778 0.0
H4449 H 0.24844 0.31001 0.04852 0.0
H4450 H 0.23848 0.29622 0.06394 0.0
H4451 H 0.25883 0.31128 0.06766 0.0
C4452 C 0.7332 0.68985 0.41598 0.0
C4453 C 0.72644 0.68315 0.39998 0.0
C4454 C 0.74249 0.68509 0.42466 0.0
C4455 C 0.74493 0.67327 0.41718 0.0
C4456 C 0.73798 0.66633 0.40111 0.0
C4457 C 0.72886 0.67141 0.39267 0.0
C4458 C 0.74986 0.69286 0.44171 0.0
C4459 C 0.74022 0.65359 0.3928 0.0
C4460 C 0.7809 0.67153 0.43137 0.0
C4461 C 0.7747 0.65914 0.44195 0.0
C4462 C 0.77137 0.67636 0.4234 0.0
C4463 C 0.75518 0.66849 0.42592 0.0
C4464 C 0.74879 0.65593 0.43653 0.0
C4465 C 0.75865 0.65142 0.44446 0.0
C4466 C 0.77861 0.6898 0.41218 0.0
C4467 C 0.73155 0.64723 0.43942 0.0
H4468 H 0.73141 0.699 0.4216 0.0
H4469 H 0.72344 0.66603 0.3804 0.0
H4470 H 0.7463 0.68378 0.45088 0.0
H4471 H 0.76281 0.69896 0.44165 0.0
H4472 H 0.74652 0.70162 0.44591 0.0
H4473 H 0.73365 0.64911 0.38044 0.0
H4474 H 0.75284 0.65826 0.39117 0.0
H4475 H 0.73628 0.64352 0.40076 0.0
H4476 H 0.79323 0.67733 0.4291 0.0
H4477 H 0.75381 0.64194 0.45274 0.0
H4478 H 0.77626 0.69928 0.41636 0.0
H4479 H 0.77323 0.68556 0.39933 0.0
H4480 H 0.79148 0.69498 0.41194 0.0
H4481 H 0.72816 0.65563 0.44464 0.0
H4482 H 0.72844 0.63773 0.44804 0.0
H4483 H 0.72452 0.64186 0.42744 0.0
C4484 C 0.33316 0.05398 0.42424 0.0
C4485 C 0.32111 0.0413 0.43171 0.0
C4486 C 0.33924 0.06962 0.43076 0.0
C4487 C 0.33299 0.07263 0.44499 0.0
C4488 C 0.32085 0.05986 0.45262 0.0
C4489 C 0.31511 0.04432 0.44593 0.0
C4490 C 0.35231 0.08292 0.42239 0.0
C4491 C 0.31377 0.06262 0.4677 0.0
C4492 C 0.35642 0.11199 0.4705 0.0
C4493 C 0.3494 0.12036 0.46461 0.0
C4494 C 0.35132 0.0965 0.4641 0.0
C4495 C 0.33884 0.08917 0.45162 0.0
C4496 C 0.3318 0.09758 0.44553 0.0
C4497 C 0.33722 0.1131 0.45202 0.0
C4498 C 0.35918 0.08791 0.47081 0.0
C4499 C 0.31843 0.09016 0.43224 0.0
H4500 H 0.33797 0.05165 0.41337 0.0
H4501 H 0.3057 0.03454 0.45164 0.0
H4502 H 0.3484 0.09096 0.41787 0.0
H4503 H 0.36253 0.09002 0.43145 0.0
H4504 H 0.35617 0.07854 0.41172 0.0
H4505 H 0.30459 0.05139 0.47232 0.0
H4506 H 0.32303 0.06929 0.47786 0.0
H4507 H 0.30849 0.06991 0.46463 0.0
H4508 H 0.36571 0.11745 0.48035 0.0
H4509 H 0.33193 0.11958 0.44719 0.0
H4510 H 0.36369 0.08384 0.46051 0.0
H4511 H 0.35053 0.07724 0.47671 0.0
H4512 H 0.36907 0.09546 0.48012 0.0
H4513 H 0.32218 0.08661 0.42088 0.0
H4514 H 0.3142 0.0983 0.4289 0.0
H4515 H 0.30849 0.07928 0.43655 0.0
C4516 C 0.96621 0.28446 0.39784 0.0
C4517 C 0.96964 0.27799 0.38393 0.0
C4518 C 0.95183 0.27602 0.40494 0.0
C4519 C 0.94058 0.26072 0.39796 0.0
C4520 C 0.94389 0.25417 0.38381 0.0
C4521 C 0.95842 0.26288 0.37698 0.0
C4522 C 0.9488 0.28336 0.42011 0.0
C4523 C 0.93213 0.23791 0.37601 0.0
C4524 C 0.91114 0.23381 0.42708 0.0
C4525 C 0.89814 0.23541 0.42296 0.0
C4526 C 0.92488 0.24168 0.41875 0.0
C4527 C 0.92566 0.25139 0.40596 0.0
C4528 C 0.91248 0.25281 0.4015 0.0
C4529 C 0.89887 0.24483 0.4101 0.0
C4530 C 0.93873 0.23996 0.42396 0.0
C4531 C 0.91287 0.26302 0.38787 0.0
H4532 H 0.97494 0.29605 0.4034 0.0
H4533 H 0.96097 0.25791 0.36612 0.0
H4534 H 0.93788 0.28374 0.4178 0.0
H4535 H 0.94707 0.276 0.43075 0.0
H4536 H 0.95858 0.29555 0.4237 0.0
H4537 H 0.93627 0.23476 0.36468 0.0
H4538 H 0.92977 0.22893 0.38507 0.0
H4539 H 0.92085 0.23728 0.37266 0.0
H4540 H 0.91073 0.22675 0.4372 0.0
H4541 H 0.88879 0.24598 0.40679 0.0
H4542 H 0.94866 0.25159 0.42899 0.0
H4543 H 0.94272 0.23604 0.41306 0.0
H4544 H 0.93596 0.23135 0.43357 0.0
H4545 H 0.92179 0.27556 0.39145 0.0
H4546 H 0.90136 0.26216 0.38528 0.0
H4547 H 0.91635 0.25953 0.37627 0.0
C4548 C 0.04724 0.4118 0.332 0.0
C4549 C 0.04116 0.3968 0.32368 0.0
C4550 C 0.04319 0.42266 0.32629 0.0
C4551 C 0.03283 0.41839 0.31193 0.0
C4552 C 0.02664 0.40327 0.30351 0.0
C4553 C 0.03085 0.39266 0.30951 0.0
C4554 C 0.05003 0.4387 0.33554 0.0
C4555 C 0.01555 0.39828 0.28815 0.0
C4556 C 0.01027 0.43932 0.30285 0.0
C4557 C 0.01884 0.44908 0.29051 0.0
C4558 C 0.01501 0.42967 0.31041 0.0
C4559 C 0.0286 0.42976 0.30543 0.0
C4560 C 0.03757 0.43996 0.29336 0.0
C4561 C 0.03257 0.44949 0.28604 0.0
C4562 C 0.00521 0.419 0.32332 0.0
C4563 C 0.05208 0.44033 0.28766 0.0
H4564 H 0.0553 0.4151 0.34289 0.0
H4565 H 0.02587 0.38098 0.30321 0.0
H4566 H 0.05703 0.4481 0.32723 0.0
H4567 H 0.04048 0.44062 0.3395 0.0
H4568 H 0.05766 0.44006 0.34669 0.0
H4569 H 0.01177 0.38608 0.28308 0.0
H4570 H 0.00498 0.39886 0.29105 0.0
H4571 H 0.02127 0.40652 0.27837 0.0
H4572 H -0.00027 0.43909 0.30645 0.0
H4573 H 0.03911 0.45682 0.27632 0.0
H4574 H 0.01267 0.42074 0.33473 0.0
H4575 H -9e-05 0.40646 0.31855 0.0
H4576 H 0.99565 0.42117 0.32667 0.0
H4577 H 0.06024 0.44224 0.29849 0.0
H4578 H 0.05836 0.44975 0.27909 0.0
H4579 H 0.04878 0.42876 0.28116 0.0
C4580 C 0.60419 0.6178 0.29231 0.0
C4581 C 0.61131 0.61949 0.3082 0.0
C4582 C 0.59397 0.60274 0.28445 0.0
C4583 C 0.59095 0.58913 0.29264 0.0
C4584 C 0.59851 0.5908 0.30845 0.0
C4585 C 0.60855 0.60597 0.31607 0.0
C4586 C 0.586 0.60141 0.26764 0.0
C4587 C 0.59571 0.57656 0.3175 0.0
C4588 C 0.5521 0.55139 0.28216 0.0
C4589 C 0.55631 0.54275 0.27143 0.0
C4590 C 0.56325 0.56653 0.28903 0.0
C4591 C 0.57907 0.57315 0.28521 0.0
C4592 C 0.58347 0.56446 0.27452 0.0
C4593 C 0.57202 0.54934 0.26772 0.0
C4594 C 0.5581 0.57542 0.30041 0.0
C4595 C 0.60026 0.57115 0.27027 0.0
H4596 H 0.60625 0.62824 0.28625 0.0
H4597 H 0.61426 0.60728 0.32825 0.0
H4598 H 0.5879 0.59372 0.25872 0.0
H4599 H 0.57317 0.5958 0.26865 0.0
H4600 H 0.59033 0.61311 0.26252 0.0
H4601 H 0.60329 0.5799 0.3292 0.0
H4602 H 0.58328 0.56979 0.32054 0.0
H4603 H 0.59791 0.56854 0.30943 0.0
H4604 H 0.54004 0.54624 0.28534 0.0
H4605 H 0.57531 0.54277 0.25932 0.0
H4606 H 0.56118 0.58693 0.29549 0.0
H4607 H 0.56436 0.578 0.31286 0.0
H4608 H 0.54529 0.5687 0.30186 0.0
H4609 H 0.60429 0.58234 0.26417 0.0
H4610 H 0.60178 0.56282 0.26188 0.0
H4611 H 0.60796 0.57401 0.28178 0.0
C4612 C 0.3695 0.97603 0.34206 0.0
C4613 C 0.36567 0.96651 0.35553 0.0
C4614 C 0.38261 0.9794 0.33324 0.0
C4615 C 0.39218 0.97317 0.33806 0.0
C4616 C 0.3885 0.96368 0.35175 0.0
C4617 C 0.37526 0.96045 0.36033 0.0
C4618 C 0.38617 0.9896 0.31874 0.0
C4619 C 0.39846 0.95685 0.35722 0.0
C4620 C 0.41688 0.97035 0.3049 0.0
C4621 C 0.43138 0.98415 0.30893 0.0
C4622 C 0.40412 0.96641 0.31456 0.0
C4623 C 0.40593 0.9765 0.32858 0.0
C4624 C 0.42065 0.99025 0.33295 0.0
C4625 C 0.4332 0.99393 0.32304 0.0
C4626 C 0.38858 0.9517 0.30945 0.0
C4627 C 0.42304 0.00125 0.34787 0.0
H4628 H 0.36232 0.981 0.33849 0.0
H4629 H 0.37229 0.95299 0.37065 0.0
H4630 H 0.39804 0.00022 0.32092 0.0
H4631 H 0.38616 0.98297 0.30726 0.0
H4632 H 0.37755 0.99354 0.31662 0.0
H4633 H 0.3942 0.94999 0.36833 0.0
H4634 H 0.3985 0.94896 0.34699 0.0
H4635 H 0.41077 0.96648 0.36012 0.0
H4636 H 0.41536 0.96286 0.2939 0.0
H4637 H 0.44445 0.0045 0.3263 0.0
H4638 H 0.37976 0.95504 0.3059 0.0
H4639 H 0.38423 0.94413 0.32002 0.0
H4640 H 0.38936 0.94463 0.2988 0.0
H4641 H 0.41554 0.00654 0.34603 0.0
H4642 H 0.43542 0.01096 0.3501 0.0
H4643 H 0.41945 0.99456 0.35914 0.0
C4644 C 0.61094 0.9926 0.32621 0.0
C4645 C 0.60516 0.97713 0.33088 0.0
C4646 C 0.60146 0.99658 0.3167 0.0
C4647 C 0.5858 0.98482 0.31178 0.0
C4648 C 0.57993 0.96914 0.3163 0.0
C4649 C 0.5897 0.96547 0.32577 0.0
C4650 C 0.60816 0.0134 0.31202 0.0
C4651 C 0.56325 0.95631 0.31137 0.0
C4652 C 0.5566 0.99808 0.30206 0.0
C4653 C 0.55533 0.99673 0.28465 0.0
C4654 C 0.56651 0.99428 0.31103 0.0
C4655 C 0.5754 0.98904 0.30237 0.0
C4656 C 0.57427 0.98778 0.28478 0.0
C4657 C 0.56419 0.99158 0.27611 0.0
C4658 C 0.5673 0.99567 0.32978 0.0
C4659 C 0.58366 0.98233 0.27513 0.0
H4660 H 0.62297 0.00159 0.32991 0.0
H4661 H 0.58515 0.95353 0.32946 0.0
H4662 H 0.60701 0.01362 0.29833 0.0
H4663 H 0.60146 0.01856 0.31744 0.0
H4664 H 0.62071 0.02103 0.31639 0.0
H4665 H 0.56062 0.94463 0.31552 0.0
H4666 H 0.55501 0.95947 0.31685 0.0
H4667 H 0.56099 0.9552 0.29769 0.0
H4668 H 0.54954 0.00177 0.30871 0.0
H4669 H 0.56326 0.99059 0.26265 0.0
H4670 H 0.57954 0.00391 0.33479 0.0
H4671 H 0.56366 0.98398 0.33459 0.0
H4672 H 0.55968 -0.0 0.33461 0.0
H4673 H 0.59635 0.9902 0.27866 0.0
H4674 H 0.58163 0.98223 0.26149 0.0
H4675 H 0.58052 0.97024 0.27825 0.0
C4676 C 0.0129 0.63209 0.28629 0.0
C4677 C 0.02686 0.64031 0.29644 0.0
C4678 C 0.00819 0.61716 0.2785 0.0
C4679 C 0.01784 0.61048 0.28073 0.0
C4680 C 0.03215 0.61894 0.29067 0.0
C4681 C 0.03641 0.63371 0.29856 0.0
C4682 C 0.99273 0.60836 0.26826 0.0
C4683 C 0.04287 0.61232 0.29307 0.0
C4684 C 0.00036 0.56605 0.27517 0.0
C4685 C 0.0045 0.56411 0.2592 0.0
C4686 C 0.00426 0.58103 0.28214 0.0
C4687 C 0.01279 0.59446 0.27305 0.0
C4688 C 0.01683 0.5926 0.25685 0.0
C4689 C 0.01251 0.57743 0.25006 0.0
C4690 C -0.00046 0.58253 0.29937 0.0
C4691 C 0.02604 0.60667 0.24685 0.0
H4692 H 0.00545 0.63715 0.28482 0.0
H4693 H 0.04726 0.64016 0.30634 0.0
H4694 H 0.99453 0.60529 0.25549 0.0
H4695 H 0.98485 0.5971 0.27377 0.0
H4696 H 0.98676 0.61536 0.26749 0.0
H4697 H 0.05391 0.62071 0.30055 0.0
H4698 H 0.03682 0.60119 0.29943 0.0
H4699 H 0.04586 0.60939 0.28084 0.0
H4700 H 0.99442 0.55591 0.28248 0.0
H4701 H 0.01553 0.57603 0.2376 0.0
H4702 H 0.99305 0.58901 0.29928 0.0
H4703 H 0.01016 0.58946 0.30797 0.0
H4704 H 0.99208 0.57083 0.30434 0.0
H4705 H 0.01977 0.61328 0.24535 0.0
H4706 H 0.02807 0.60318 0.23434 0.0
H4707 H 0.03757 0.61489 0.25355 0.0
C4708 C 0.37874 0.39803 0.34946 0.0
C4709 C 0.36476 0.39628 0.34238 0.0
C4710 C 0.39263 0.40564 0.34128 0.0
C4711 C 0.39239 0.4113 0.32554 0.0
C4712 C 0.37837 0.40992 0.31855 0.0
C4713 C 0.36472 0.40253 0.32715 0.0
C4714 C 0.40743 0.4072 0.34927 0.0
C4715 C 0.37761 0.41565 0.30169 0.0
C4716 C 0.42999 0.44061 0.3071 0.0
C4717 C 0.43246 0.43061 0.29633 0.0
C4718 C 0.41722 0.43445 0.31707 0.0
C4719 C 0.40656 0.41795 0.31596 0.0
C4720 C 0.40915 0.40779 0.30526 0.0
C4721 C 0.42218 0.41425 0.29567 0.0
C4722 C 0.41501 0.44561 0.32857 0.0
C4723 C 0.39792 0.39015 0.3036 0.0
H4724 H 0.37874 0.39327 0.36131 0.0
H4725 H 0.35384 0.40101 0.32164 0.0
H4726 H 0.41095 0.39991 0.34179 0.0
H4727 H 0.41716 0.41965 0.3496 0.0
H4728 H 0.40595 0.40337 0.36213 0.0
H4729 H 0.36596 0.41421 0.2983 0.0
H4730 H 0.38668 0.4283 0.3014 0.0
H4731 H 0.38012 0.40893 0.2921 0.0
H4732 H 0.43806 0.45327 0.30768 0.0
H4733 H 0.42405 0.40656 0.28721 0.0
H4734 H 0.41391 0.4418 0.34142 0.0
H4735 H 0.404 0.44531 0.32468 0.0
H4736 H 0.42488 0.458 0.3287 0.0
H4737 H 0.39675 0.38523 0.3159 0.0
H4738 H 0.40176 0.38388 0.29492 0.0
H4739 H 0.38612 0.38764 0.29901 0.0
C4740 C 0.33496 0.29569 0.41664 0.0
C4741 C 0.31916 0.28774 0.4106 0.0
C4742 C 0.34167 0.28751 0.42374 0.0
C4743 C 0.33231 0.27103 0.42504 0.0
C4744 C 0.31647 0.26286 0.41863 0.0
C4745 C 0.31011 0.2713 0.4114 0.0
C4746 C 0.35864 0.29661 0.43034 0.0
C4747 C 0.30611 0.24527 0.41986 0.0
C4748 C 0.35134 0.24669 0.4345 0.0
C4749 C 0.3499 0.2455 0.45165 0.0
C4750 C 0.34589 0.25518 0.42566 0.0
C4751 C 0.33874 0.26252 0.43418 0.0
C4752 C 0.33749 0.26157 0.45152 0.0
C4753 C 0.34317 0.25317 0.46005 0.0
C4754 C 0.34757 0.25611 0.4072 0.0
C4755 C 0.32993 0.26924 0.46105 0.0
H4756 H 0.342 0.30841 0.41629 0.0
H4757 H 0.29798 0.26502 0.40649 0.0
H4758 H 0.35939 0.29652 0.44407 0.0
H4759 H 0.36502 0.29089 0.42541 0.0
H4760 H 0.36467 0.3091 0.42705 0.0
H4761 H 0.29428 0.24056 0.41353 0.0
H4762 H 0.31159 0.23886 0.41432 0.0
H4763 H 0.30476 0.24268 0.43312 0.0
H4764 H 0.35641 0.24069 0.42791 0.0
H4765 H 0.34231 0.25258 0.47336 0.0
H4766 H 0.35384 0.26865 0.40412 0.0
H4767 H 0.33581 0.25029 0.40046 0.0
H4768 H 0.35403 0.25035 0.40256 0.0
H4769 H 0.33619 0.28213 0.45953 0.0
H4770 H 0.32992 0.26742 0.47452 0.0
H4771 H 0.31763 0.2643 0.45602 0.0
C4772 C 0.71061 0.05654 0.42612 0.0
C4773 C 0.71715 0.04729 0.42152 0.0
C4774 C 0.72008 0.07212 0.43309 0.0
C4775 C 0.73648 0.07857 0.43542 0.0
C4776 C 0.74314 0.06927 0.43082 0.0
C4777 C 0.73339 0.05374 0.42395 0.0
C4778 C 0.71257 0.08166 0.43795 0.0
C4779 C 0.7606 0.07578 0.43303 0.0
C4780 C 0.7646 0.12288 0.43869 0.0
C4781 C 0.76912 0.12587 0.45573 0.0
C4782 C 0.75353 0.10762 0.43197 0.0
C4783 C 0.74679 0.09509 0.44258 0.0
C4784 C 0.75079 0.09818 0.4599 0.0
C4785 C 0.76195 0.11355 0.46626 0.0
C4786 C 0.74959 0.10476 0.41344 0.0
C4787 C 0.74374 0.08516 0.47162 0.0
H4788 H 0.69803 0.05154 0.42443 0.0
H4789 H 0.73853 0.0467 0.42021 0.0
H4790 H 0.71533 0.08555 0.45137 0.0
H4791 H 0.71742 0.09248 0.43105 0.0
H4792 H 0.69963 0.07486 0.43543 0.0
H4793 H 0.76391 0.06699 0.42885 0.0
H4794 H 0.76686 0.08638 0.42588 0.0
H4795 H 0.76474 0.07956 0.44629 0.0
H4796 H 0.77025 0.13235 0.43048 0.0
H4797 H 0.76531 0.11589 0.47947 0.0
H4798 H 0.73671 0.09841 0.41066 0.0
H4799 H 0.75391 0.09716 0.40814 0.0
H4800 H 0.75492 0.11595 0.40709 0.0
H4801 H 0.73078 0.07854 0.46965 0.0
H4802 H 0.74707 0.08976 0.48484 0.0
H4803 H 0.74776 0.07662 0.46905 0.0
C4804 C 0.94631 0.68127 0.36689 0.0
C4805 C 0.96054 0.68794 0.37663 0.0
C4806 C 0.93195 0.67461 0.37428 0.0
C4807 C 0.93186 0.67462 0.39179 0.0
C4808 C 0.94616 0.68118 0.40166 0.0
C4809 C 0.96032 0.68775 0.39395 0.0
C4810 C 0.91691 0.66774 0.36339 0.0
C4811 C 0.94654 0.68138 0.42038 0.0
C4812 C 0.89842 0.67303 0.41443 0.0
C4813 C 0.89066 0.65743 0.41907 0.0
C4814 C 0.91147 0.6786 0.40494 0.0
C4815 C 0.9169 0.66829 0.39998 0.0
C4816 C 0.9087 0.65232 0.404 0.0
C4817 C 0.89563 0.64706 0.4135 0.0
C4818 C 0.91983 0.69568 0.40079 0.0
C4819 C 0.91414 0.64099 0.39891 0.0
H4820 H 0.94643 0.68147 0.3535 0.0
H4821 H 0.97125 0.69259 0.40152 0.0
H4822 H 0.9089 0.65527 0.36602 0.0
H4823 H 0.91084 0.67438 0.3662 0.0
H4824 H 0.91897 0.66815 0.34996 0.0
H4825 H 0.95863 0.68663 0.42621 0.0
H4826 H 0.9413 0.68827 0.42527 0.0
H4827 H 0.93941 0.66916 0.42423 0.0
H4828 H 0.89442 0.681 0.41848 0.0
H4829 H 0.88968 0.635 0.41713 0.0
H4830 H 0.92137 0.69648 0.38728 0.0
H4831 H 0.93169 0.70208 0.40732 0.0
H4832 H 0.91341 0.70178 0.40446 0.0
H4833 H 0.91589 0.6412 0.38543 0.0
H4834 H 0.90569 0.62866 0.40169 0.0
H4835 H 0.92561 0.64472 0.4056 0.0
C4836 C 0.41146 0.03053 0.73495 0.0
C4837 C 0.39636 0.026 0.73959 0.0
C4838 C 0.42166 0.02786 0.74497 0.0
C4839 C 0.41654 0.02031 0.75987 0.0
C4840 C 0.40138 0.01589 0.76472 0.0
C4841 C 0.39148 0.01887 0.75455 0.0
C4842 C 0.43783 0.03293 0.73948 0.0
C4843 C 0.39547 0.00765 0.78043 0.0
C4844 C 0.43785 -0.00034 0.77491 0.0
C4845 C 0.44877 0.01083 0.78712 0.0
C4846 C 0.42689 0.00234 0.76639 0.0
C4847 C 0.42696 0.01661 0.77003 0.0
C4848 C 0.43761 0.02772 0.78267 0.0
C4849 C 0.44832 0.02465 0.79114 0.0
C4850 C 0.41562 0.99015 0.75307 0.0
C4851 C 0.43805 0.04309 0.78686 0.0
H4852 H 0.4153 0.03619 0.72347 0.0
H4853 H 0.37974 0.01522 0.75805 0.0
H4854 H 0.44685 0.04082 0.7494 0.0
H4855 H 0.43912 0.02243 0.73729 0.0
H4856 H 0.44021 0.03924 0.72792 0.0
H4857 H 0.38361 0.00553 0.78276 0.0
H4858 H 0.395 0.9961 0.77956 0.0
H4859 H 0.40365 0.01479 0.79126 0.0
H4860 H 0.43823 0.98906 0.77154 0.0
H4861 H 0.45654 0.03321 0.80075 0.0
H4862 H 0.41834 0.99509 0.74075 0.0
H4863 H 0.40343 0.98709 0.75513 0.0
H4864 H 0.41621 0.97913 0.7527 0.0
H4865 H 0.44152 0.05036 0.77599 0.0
H4866 H 0.44643 0.05006 0.79765 0.0
H4867 H 0.42623 0.04076 0.78968 0.0
C4868 C 0.98257 0.36617 0.78557 0.0
C4869 C 0.97534 0.36235 0.76945 0.0
C4870 C 0.98655 0.38057 0.79422 0.0
C4871 C 0.98293 0.39118 0.78663 0.0
C4872 C 0.97517 0.3871 0.77054 0.0
C4873 C 0.9716 0.37278 0.76208 0.0
C4874 C 0.99505 0.38465 0.81123 0.0
C4875 C 0.97084 0.39796 0.76216 0.0
C4876 C 0.98136 0.42351 0.81242 0.0
C4877 C 0.99532 0.43702 0.80881 0.0
C4878 C 0.97733 0.40844 0.8056 0.0
C4879 C 0.98764 0.40679 0.79519 0.0
C4880 C 0.00207 0.42025 0.79211 0.0
C4881 C 0.00567 0.43521 0.79883 0.0
C4882 C 0.96179 0.39436 0.80906 0.0
C4883 C 0.01347 0.41892 0.78124 0.0
H4884 H 0.98558 0.35813 0.79116 0.0
H4885 H 0.96591 0.36972 0.74964 0.0
H4886 H 0.00683 0.39532 0.81094 0.0
H4887 H 0.98861 0.38751 0.82037 0.0
H4888 H 0.99648 0.37486 0.81563 0.0
H4889 H 0.96411 0.39265 0.75 0.0
H4890 H 0.96373 0.40089 0.77026 0.0
H4891 H 0.98162 0.40923 0.7601 0.0
H4892 H 0.97345 0.42472 0.82041 0.0
H4893 H 0.01638 0.44556 0.79579 0.0
H4894 H 0.96354 0.38497 0.81401 0.0
H4895 H 0.95427 0.3893 0.79731 0.0
H4896 H 0.95545 0.39753 0.81807 0.0
H4897 H 0.01587 0.40969 0.78544 0.0
H4898 H 0.02476 0.43026 0.7813 0.0
H4899 H 0.00826 0.41528 0.76827 0.0
C4900 C 0.62347 0.59604 0.71065 0.0
C4901 C 0.63711 0.59736 0.71823 0.0
C4902 C 0.60921 0.58839 0.71817 0.0
C4903 C 0.6086 0.58188 0.73359 0.0
C4904 C 0.62214 0.58248 0.74087 0.0
C4905 C 0.63626 0.59027 0.73312 0.0
C4906 C 0.59503 0.58803 0.71006 0.0
C4907 C 0.6219 0.57551 0.75722 0.0
C4908 C 0.57912 0.57947 0.76358 0.0
C4909 C 0.5677 0.56336 0.7617 0.0
C4910 C 0.59229 0.58569 0.75421 0.0
C4911 C 0.59417 0.57553 0.74276 0.0
C4912 C 0.58255 0.55932 0.74053 0.0
C4913 C 0.56942 0.55343 0.75 0.0
C4914 C 0.60441 0.60308 0.75688 0.0
C4915 C 0.58416 0.54814 0.72843 0.0
H4916 H 0.62411 0.60168 0.69924 0.0
H4917 H 0.64676 0.59114 0.73891 0.0
H4918 H 0.58473 0.57587 0.70929 0.0
H4919 H 0.59204 0.59567 0.71773 0.0
H4920 H 0.59704 0.59226 0.69737 0.0
H4921 H 0.63306 0.57583 0.76052 0.0
H4922 H 0.61988 0.58222 0.76726 0.0
H4923 H 0.61213 0.56307 0.75675 0.0
H4924 H 0.57802 0.58717 0.77276 0.0
H4925 H 0.56053 0.541 0.74831 0.0
H4926 H 0.6065 0.60865 0.74488 0.0
H4927 H 0.61571 0.60456 0.76186 0.0
H4928 H 0.60083 0.60951 0.76566 0.0
H4929 H 0.58575 0.55257 0.71585 0.0
H4930 H 0.5738 0.53599 0.72771 0.0
H4931 H 0.59473 0.54756 0.73222 0.0
C4932 C 0.6677 0.71113 0.65699 0.0
C4933 C 0.6838 0.71815 0.66123 0.0
C4934 C 0.66146 0.71992 0.65038 0.0
C4935 C 0.67156 0.73617 0.64825 0.0
C4936 C 0.68777 0.74342 0.65298 0.0
C4937 C 0.69374 0.73425 0.65926 0.0
C4938 C 0.64417 0.71171 0.64519 0.0
C4939 C 0.69884 0.76077 0.65115 0.0
C4940 C 0.6597 0.75519 0.6153 0.0
C4941 C 0.6537 0.76288 0.62482 0.0
C4942 C 0.66541 0.74631 0.62279 0.0
C4943 C 0.6653 0.74537 0.64022 0.0
C4944 C 0.65922 0.75318 0.64988 0.0
C4945 C 0.65336 0.7618 0.642 0.0
C4946 C 0.67156 0.73796 0.61204 0.0
C4947 C 0.65909 0.75257 0.66851 0.0
H4948 H 0.66006 0.69861 0.65838 0.0
H4949 H 0.70617 0.73967 0.66267 0.0
H4950 H 0.63876 0.7179 0.65139 0.0
H4951 H 0.6425 0.71214 0.6316 0.0
H4952 H 0.63784 0.69914 0.64821 0.0
H4953 H 0.7109 0.76482 0.65645 0.0
H4954 H 0.69937 0.76311 0.63781 0.0
H4955 H 0.69448 0.76795 0.6574 0.0
H4956 H 0.65987 0.7561 0.60197 0.0
H4957 H 0.64872 0.76787 0.64924 0.0
H4958 H 0.66513 0.72512 0.61385 0.0
H4959 H 0.68411 0.74253 0.61572 0.0
H4960 H 0.67041 0.73955 0.59863 0.0
H4961 H 0.65215 0.74013 0.67176 0.0
H4962 H 0.65406 0.75939 0.6742 0.0
H4963 H 0.6712 0.7574 0.67405 0.0
C4964 C 0.28364 0.93844 0.65167 0.0
C4965 C 0.28282 0.95084 0.64461 0.0
C4966 C 0.27344 0.92265 0.64579 0.0
C4967 C 0.26203 0.91916 0.63267 0.0
C4968 C 0.2613 0.9316 0.62529 0.0
C4969 C 0.27176 0.94729 0.6313 0.0
C4970 C 0.27462 0.90968 0.65388 0.0
C4971 C 0.24923 0.92832 0.61132 0.0
C4972 C 0.24126 0.87907 0.6083 0.0
C4973 C 0.22693 0.87147 0.61571 0.0
C4974 C 0.25299 0.89447 0.61396 0.0
C4975 C 0.25026 0.90247 0.62724 0.0
C4976 C 0.23598 0.89472 0.63501 0.0
C4977 C 0.22454 0.87929 0.62922 0.0
C4978 C 0.26815 0.90233 0.60548 0.0
C4979 C 0.23262 0.90287 0.6492 0.0
H4980 H 0.292 0.94104 0.6621 0.0
H4981 H 0.27122 0.9568 0.62558 0.0
H4982 H 0.26383 0.90232 0.66028 0.0
H4983 H 0.27559 0.9018 0.64433 0.0
H4984 H 0.28486 0.91443 0.6631 0.0
H4985 H 0.25056 0.93935 0.60658 0.0
H4986 H 0.25016 0.92118 0.60089 0.0
H4987 H 0.23729 0.92132 0.61568 0.0
H4988 H 0.24313 0.87315 0.59776 0.0
H4989 H 0.21361 0.87337 0.6352 0.0
H4990 H 0.27828 0.90682 0.61478 0.0
H4991 H 0.26927 0.91266 0.59924 0.0
H4992 H 0.26884 0.89415 0.59606 0.0
H4993 H 0.24188 0.90689 0.65946 0.0
H4994 H 0.22108 0.89504 0.65415 0.0
H4995 H 0.23274 0.91353 0.64498 0.0
C4996 C 0.04973 0.30275 0.69147 0.0
C4997 C 0.03987 0.30861 0.68708 0.0
C4998 C 0.06423 0.30833 0.68455 0.0
C4999 C 0.06889 0.31995 0.67288 0.0
C5000 C 0.05909 0.32605 0.66854 0.0
C5001 C 0.04476 0.32037 0.67576 0.0
C5002 C 0.07443 0.30162 0.68952 0.0
C5003 C 0.06364 0.33841 0.65608 0.0
C5004 C 0.11144 0.34409 0.6627 0.0
C5005 C 0.11131 0.33612 0.64782 0.0
C5006 C 0.09779 0.33875 0.67124 0.0
C5007 C 0.08368 0.32526 0.66459 0.0
C5008 C 0.08353 0.31714 0.64961 0.0
C5009 C 0.09736 0.32264 0.64144 0.0
C5010 C 0.0984 0.34761 0.68727 0.0
C5011 C 0.06868 0.30284 0.64201 0.0
H5012 H 0.046 0.29357 0.70009 0.0
H5013 H 0.03738 0.32523 0.67257 0.0
H5014 H 0.0757 0.29523 0.67857 0.0
H5015 H 0.08634 0.31131 0.69394 0.0
H5016 H 0.06952 0.29331 0.69945 0.0
H5017 H 0.05482 0.34214 0.6543 0.0
H5018 H 0.07511 0.34899 0.66018 0.0
H5019 H 0.06498 0.3337 0.64391 0.0
H5020 H 0.12226 0.35446 0.66768 0.0
H5021 H 0.09718 0.31661 0.62979 0.0
H5022 H 0.09412 0.33942 0.69734 0.0
H5023 H 0.09055 0.35255 0.68584 0.0
H5024 H 0.11043 0.35746 0.69113 0.0
H5025 H 0.06371 0.29364 0.65105 0.0
H5026 H 0.07065 0.29762 0.63053 0.0
H5027 H 0.05977 0.30619 0.63892 0.0
C5028 C 0.26312 0.31033 0.65867 0.0
C5029 C 0.27798 0.32093 0.66637 0.0
C5030 C 0.25455 0.31583 0.64982 0.0
C5031 C 0.26117 0.33228 0.6484 0.0
C5032 C 0.27627 0.34301 0.65598 0.0
C5033 C 0.28444 0.33721 0.66501 0.0
C5034 C 0.23837 0.30405 0.64214 0.0
C5035 C 0.2838 0.3606 0.65451 0.0
C5036 C 0.2441 0.34477 0.61326 0.0
C5037 C 0.23448 0.34892 0.62173 0.0
C5038 C 0.25312 0.33963 0.62184 0.0
C5039 C 0.25217 0.33828 0.6392 0.0
C5040 C 0.24244 0.34247 0.64778 0.0
C5041 C 0.23381 0.34786 0.63894 0.0
C5042 C 0.26357 0.33553 0.61234 0.0
C5043 C 0.24089 0.34092 0.66621 0.0
H5044 H 0.25811 0.29776 0.65981 0.0
H5045 H 0.29603 0.34538 0.67079 0.0
H5046 H 0.22965 0.30673 0.64721 0.0
H5047 H 0.2379 0.30499 0.62853 0.0
H5048 H 0.23488 0.29167 0.6445 0.0
H5049 H 0.2958 0.36731 0.66076 0.0
H5050 H 0.28448 0.36314 0.64123 0.0
H5051 H 0.27653 0.36501 0.66008 0.0
H5052 H 0.24457 0.34559 0.59994 0.0
H5053 H 0.22613 0.35081 0.64542 0.0
H5054 H 0.25972 0.32285 0.6132 0.0
H5055 H 0.27581 0.34251 0.61789 0.0
H5056 H 0.26347 0.33784 0.59902 0.0
H5057 H 0.23649 0.32846 0.66899 0.0
H5058 H 0.23277 0.34463 0.67098 0.0
H5059 H 0.25252 0.34824 0.67307 0.0
C5060 C 0.68559 0.95338 0.62781 0.0
C5061 C 0.67615 0.96007 0.63024 0.0
C5062 C 0.67914 0.93783 0.62088 0.0
C5063 C 0.66288 0.92879 0.61618 0.0
C5064 C 0.65331 0.93551 0.6185 0.0
C5065 C 0.66006 0.95107 0.62556 0.0
C5066 C 0.6897 0.93102 0.61871 0.0
C5067 C 0.63596 0.92626 0.61351 0.0
C5068 C 0.65006 0.8936 0.58514 0.0
C5069 C 0.64483 0.88113 0.59557 0.0
C5070 C 0.65556 0.90914 0.59163 0.0
C5071 C 0.65593 0.91226 0.60896 0.0
C5072 C 0.65029 0.89965 0.6195 0.0
C5073 C 0.64477 0.88421 0.61266 0.0
C5074 C 0.66132 0.92227 0.57999 0.0
C5075 C 0.65059 0.90252 0.63806 0.0
H5076 H 0.698 0.96025 0.63159 0.0
H5077 H 0.65277 0.95627 0.62723 0.0
H5078 H 0.68558 0.92036 0.62579 0.0
H5079 H 0.68921 0.92726 0.60544 0.0
H5080 H 0.70209 0.93962 0.62297 0.0
H5081 H 0.63018 0.93327 0.616 0.0
H5082 H 0.63399 0.92241 0.60009 0.0
H5083 H 0.6302 0.91542 0.62038 0.0
H5084 H 0.64998 0.8912 0.5719 0.0
H5085 H 0.64093 0.87462 0.62078 0.0
H5086 H 0.67405 0.93059 0.58283 0.0
H5087 H 0.65529 0.92911 0.58177 0.0
H5088 H 0.65938 0.91774 0.56675 0.0
H5089 H 0.66289 0.91005 0.64327 0.0
H5090 H 0.6451 0.89135 0.64442 0.0
H5091 H 0.64437 0.90899 0.64093 0.0
C5092 C 0.02976 0.72222 0.65962 0.0
C5093 C 0.0298 0.72378 0.67696 0.0
C5094 C 0.04379 0.72911 0.65167 0.0
C5095 C 0.05824 0.73767 0.66129 0.0
C5096 C 0.05842 0.73929 0.6788 0.0
C5097 C 0.04418 0.73235 0.68644 0.0
C5098 C 0.04313 0.72716 0.63295 0.0
C5099 C 0.07363 0.74834 0.68944 0.0
C5100 C 0.0937 0.74298 0.6396 0.0
C5101 C 0.09951 0.75808 0.63386 0.0
C5102 C 0.08059 0.73639 0.6491 0.0
C5103 C 0.07312 0.7451 0.65288 0.0
C5104 C 0.07928 0.76057 0.64763 0.0
C5105 C 0.09242 0.76688 0.63823 0.0
C5106 C 0.07439 0.71989 0.65458 0.0
C5107 C 0.07165 0.77024 0.65143 0.0
H5108 H 0.01874 0.71534 0.65222 0.0
H5109 H 0.04429 0.7337 0.69983 0.0
H5110 H 0.04896 0.73893 0.6278 0.0
H5111 H 0.04956 0.72112 0.62916 0.0
H5112 H 0.03091 0.7202 0.62728 0.0
H5113 H 0.07175 0.74831 0.7029 0.0
H5114 H 0.08111 0.74312 0.68714 0.0
H5115 H 0.0802 0.76078 0.68607 0.0
H5116 H 0.09909 0.7361 0.6362 0.0
H5117 H 0.09707 0.77869 0.63412 0.0
H5118 H 0.06268 0.7118 0.64816 0.0
H5119 H 0.07288 0.71974 0.66811 0.0
H5120 H 0.08226 0.71521 0.65181 0.0
H5121 H 0.05971 0.76436 0.6451 0.0
H5122 H 0.07846 0.78242 0.64733 0.0
H5123 H 0.07037 0.77101 0.66496 0.0
C5124 C 0.95416 0.59108 0.74377 0.0
C5125 C 0.96559 0.60601 0.73937 0.0
C5126 C 0.95842 0.58093 0.75096 0.0
C5127 C 0.9745 0.58596 0.754 0.0
C5128 C 0.98608 0.60084 0.7491 0.0
C5129 C 0.98147 0.61067 0.74176 0.0
C5130 C 0.94575 0.56506 0.75583 0.0
C5131 C 0.00333 0.60668 0.75231 0.0
C5132 C 0.98518 0.56914 0.79015 0.0
C5133 C 0.98791 0.55793 0.78205 0.0
C5134 C 0.98092 0.5784 0.78112 0.0
C5135 C 0.97921 0.57629 0.76357 0.0
C5136 C 0.98199 0.56501 0.7553 0.0
C5137 C 0.98643 0.55601 0.76467 0.0
C5138 C 0.97826 0.59046 0.79038 0.0
C5139 C 0.98013 0.56236 0.7366 0.0
H5140 H 0.94187 0.58742 0.74175 0.0
H5141 H 0.99033 0.62229 0.73853 0.0
H5142 H 0.94773 0.55553 0.75087 0.0
H5143 H 0.94615 0.56492 0.76956 0.0
H5144 H 0.93386 0.56233 0.75126 0.0
H5145 H 0.01081 0.61799 0.74663 0.0
H5146 H 0.00643 0.60854 0.76589 0.0
H5147 H 0.00611 0.59773 0.74735 0.0
H5148 H 0.98653 0.57076 0.8036 0.0
H5149 H 0.98846 0.54727 0.75844 0.0
H5150 H 0.96605 0.58772 0.78758 0.0
H5151 H 0.98616 0.60241 0.78623 0.0
H5152 H 0.98034 0.5908 0.80404 0.0
H5153 H 0.96796 0.55872 0.73213 0.0
H5154 H 0.98276 0.55315 0.73209 0.0
H5155 H 0.98804 0.57354 0.73098 0.0
C5156 C 0.38358 0.3913 0.7608 0.0
C5157 C 0.3895 0.38126 0.75732 0.0
C5158 C 0.39321 0.40647 0.76868 0.0
C5159 C 0.40916 0.41175 0.77303 0.0
C5160 C 0.41517 0.40162 0.76965 0.0
C5161 C 0.40525 0.38646 0.76188 0.0
C5162 C 0.38635 0.41689 0.77223 0.0
C5163 C 0.43216 0.40689 0.77398 0.0
C5164 C 0.43856 0.45579 0.7779 0.0
C5165 C 0.44117 0.4586 0.79521 0.0
C5166 C 0.42796 0.44064 0.77053 0.0
C5167 C 0.41971 0.42803 0.78073 0.0
C5168 C 0.42197 0.43089 0.79823 0.0
C5169 C 0.43276 0.44614 0.80527 0.0
C5170 C 0.42596 0.43805 0.75182 0.0
C5171 C 0.41325 0.41777 0.8095 0.0
H5172 H 0.37135 0.38722 0.75748 0.0
H5173 H 0.40989 0.37879 0.75906 0.0
H5174 H 0.38818 0.42065 0.78568 0.0
H5175 H 0.39244 0.42776 0.76547 0.0
H5176 H 0.37361 0.41083 0.76852 0.0
H5177 H 0.43493 0.39749 0.77076 0.0
H5178 H 0.43981 0.41744 0.76728 0.0
H5179 H 0.43509 0.41039 0.78746 0.0
H5180 H 0.44523 0.46534 0.77009 0.0
H5181 H 0.4347 0.44833 0.81867 0.0
H5182 H 0.41342 0.4327 0.74752 0.0
H5183 H 0.42974 0.42963 0.7477 0.0
H5184 H 0.43285 0.44921 0.74568 0.0
H5185 H 0.40044 0.41191 0.80636 0.0
H5186 H 0.41572 0.42212 0.82282 0.0
H5187 H 0.41663 0.40864 0.80764 0.0
C5188 C 0.63646 0.03285 0.72776 0.0
C5189 C 0.63675 0.03562 0.71084 0.0
C5190 C 0.62329 0.02927 0.73653 0.0
C5191 C 0.60989 0.02809 0.72813 0.0
C5192 C 0.60997 0.03069 0.71104 0.0
C5193 C 0.62345 0.03455 0.70262 0.0
C5194 C 0.62371 0.02673 0.7548 0.0
C5195 C 0.59581 0.02932 0.70165 0.0
C5196 C 0.57223 0.00463 0.74944 0.0
C5197 C 0.57092 0.0167 0.75781 0.0
C5198 C 0.58449 0.00817 0.73914 0.0
C5199 C 0.59586 0.02416 0.73738 0.0
C5200 C 0.59439 0.0364 0.74542 0.0
C5201 C 0.58187 0.03252 0.7554 0.0
C5202 C 0.58556 0.99479 0.73058 0.0
C5203 C 0.60637 0.0536 0.74397 0.0
H5204 H 0.64648 0.03324 0.73417 0.0
H5205 H 0.62359 0.03682 0.68961 0.0
H5206 H 0.62126 0.03501 0.76207 0.0
H5207 H 0.61445 0.01455 0.75705 0.0
H5208 H 0.6352 0.02852 0.75959 0.0
H5209 H 0.59764 0.03137 0.68831 0.0
H5210 H 0.58548 0.01738 0.7026 0.0
H5211 H 0.59296 0.03801 0.70723 0.0
H5212 H 0.56395 0.99237 0.75132 0.0
H5213 H 0.58076 0.04193 0.7615 0.0
H5214 H 0.59599 0.99467 0.73591 0.0
H5215 H 0.58706 0.99654 0.71716 0.0
H5216 H 0.57501 0.98308 0.73193 0.0
H5217 H 0.61794 0.0562 0.74949 0.0
H5218 H 0.60313 0.06169 0.75035 0.0
H5219 H 0.60777 0.05618 0.73072 0.0
loop_
_geom_bond_atom_site_label_1
_geom_bond_atom_site_label_2
_geom_bond_distance
_geom_bond_site_symmetry_2
_ccdc_geom_bond_type
Li0 N17 1.990 . S
Li0 O60 1.952 1_655 S
Li0 O61 1.970 1_655 S
Li0 O62 1.961 . S
Li1 N25 1.990 . S
Li1 O60 1.980 . S
Li1 O61 1.956 . S
Li1 O63 1.961 . S
Li2 N47 2.022 . S
Li2 O60 1.927 1_655 S
Li2 O62 1.976 . S
Li2 O63 1.928 1_655 S
Li3 N53 1.990 1_554 S
Li3 O61 1.961 . S
Li3 O62 1.970 1_455 S
Li3 O63 1.956 . S
C4 C6 1.348 1_655 S
C4 C7 1.356 . S
C4 O60 1.325 1_655 S
N5 C8 1.314 . S
N5 C9 1.279 . S
C6 C4 1.348 1_455 S
C6 C8 1.353 1_455 S
C6 H64 0.929 . S
C7 C4 1.356 . S
C7 C9 1.358 . S
C7 H65 0.930 . S
C8 N5 1.314 . S
C8 C6 1.353 1_655 S
C8 H66 0.930 1_655 S
C9 N5 1.279 . S
C9 C7 1.358 . S
C9 H67 0.930 . S
C10 C13 1.348 . S
C10 C14 1.356 . S
C10 O61 1.325 1_556 S
C11 N12 1.279 . S
C11 C14 1.358 . S
C11 H68 0.930 . S
N12 C11 1.279 . S
N12 C15 1.314 . S
C13 C10 1.348 . S
C13 C15 1.353 . S
C13 H69 0.929 1_455 S
C14 C10 1.356 . S
C14 C11 1.358 . S
C14 H70 0.930 . S
C15 N12 1.314 . S
C15 C13 1.353 . S
C15 H71 0.930 . S
C16 N17 1.314 1_556 S
C16 C21 1.353 . S
C16 H22 0.930 . S
N17 Li0 1.990 . S
N17 C16 1.314 1_554 S
N17 C19 1.279 . S
C18 C19 1.358 . S
C18 C20 1.356 1_554 S
C18 H72 0.930 . S
C19 N17 1.279 . S
C19 C18 1.358 . S
C19 H23 0.930 . S
C20 C18 1.356 1_556 S
C20 C21 1.348 . S
C21 C16 1.353 . S
C21 C20 1.348 . S
C21 H73 0.929 . S
H22 C16 0.930 . S
H23 C19 0.930 . S
C24 N25 1.314 . S
C24 C26 1.353 . S
C24 H30 0.930 . S
N25 Li1 1.990 . S
N25 C24 1.314 . S
N25 C28 1.279 . S
C26 C24 1.353 . S
C26 C29 1.348 . S
C26 H74 0.929 . S
C27 C28 1.358 . S
C27 C29 1.356 . S
C27 H75 0.930 . S
C28 N25 1.279 . S
C28 C27 1.358 . S
C28 H31 0.930 . S
C29 C26 1.348 . S
C29 C27 1.356 . S
H30 C24 0.930 . S
H31 C28 0.930 . S
C32 C34 1.348 . S
C32 C35 1.356 . S
C32 O62 1.325 . S
N33 C36 1.314 1_554 S
N33 C37 1.279 . S
C34 C32 1.348 . S
C34 C36 1.353 1_554 S
C34 H76 0.931 1_554 S
C35 C32 1.356 . S
C35 C37 1.358 . S
C35 H77 0.930 . S
C36 N33 1.314 1_556 S
C36 C34 1.353 1_556 S
C36 H78 0.930 . S
C37 N33 1.279 . S
C37 C35 1.358 . S
C37 H79 0.930 . S
C38 C39 1.348 . S
C38 C40 1.356 . S
C38 O63 1.325 . S
C39 C38 1.348 . S
C39 C41 1.353 . S
C39 H80 0.929 . S
C40 C38 1.356 . S
C40 C42 1.358 . S
C40 H81 0.930 . S
C41 C39 1.353 . S
C41 N43 1.314 . S
C41 H82 0.930 . S
C42 C40 1.358 . S
C42 N43 1.279 . S
C42 H83 0.930 . S
N43 C41 1.314 . S
N43 C42 1.279 . S
C44 C46 1.353 . S
C44 N47 1.314 . S
C44 H50 0.930 1_655 S
C45 N47 1.279 . S
C45 C48 1.358 . S
C45 H51 0.930 . S
C46 C44 1.353 . S
C46 C49 1.348 . S
C46 H84 0.929 . S
N47 Li2 2.022 . S
N47 C44 1.314 . S
N47 C45 1.279 . S
C48 C45 1.358 . S
C48 C49 1.356 . S
C48 H85 0.930 . S
C49 C46 1.348 . S
C49 C48 1.356 . S
H50 C44 0.930 1_455 S
H51 C45 0.930 . S
C52 N53 1.314 . S
C52 C54 1.353 . S
C52 H58 0.930 . S
N53 Li3 1.990 1_556 S
N53 C52 1.314 . S
N53 C56 1.279 . S
C54 C52 1.353 . S
C54 C57 1.348 . S
C54 H86 0.929 . S
C55 C56 1.358 . S
C55 C57 1.356 . S
C55 H87 0.930 . S
C56 N53 1.279 . S
C56 C55 1.358 . S
C56 H59 0.930 1_556 S
C57 C54 1.348 . S
C57 C55 1.356 . S
H58 C52 0.930 . S
H59 C56 0.930 1_554 S
O60 Li0 1.952 1_455 S
O60 Li1 1.980 . S
O60 Li2 1.927 1_455 S
O60 C4 1.325 1_455 S
O61 Li0 1.970 1_455 S
O61 Li1 1.956 . S
O61 Li3 1.961 . S
O61 C10 1.325 1_554 S
O62 Li0 1.961 . S
O62 Li2 1.976 . S
O62 Li3 1.970 1_655 S
O62 C32 1.325 . S
O63 Li1 1.961 . S
O63 Li2 1.928 1_455 S
O63 Li3 1.956 . S
O63 C38 1.325 . S
H64 C6 0.929 . S
H65 C7 0.930 . S
H66 C8 0.930 1_455 S
H67 C9 0.930 . S
H68 C11 0.930 . S
H69 C13 0.929 1_655 S
H70 C14 0.930 . S
H71 C15 0.930 . S
H72 C18 0.930 . S
H73 C21 0.929 . S
H74 C26 0.929 . S
H75 C27 0.930 . S
H76 C34 0.931 1_556 S
H77 C35 0.930 . S
H78 C36 0.930 . S
H79 C37 0.930 . S
H80 C39 0.929 . S
H81 C40 0.930 . S
H82 C41 0.930 . S
H83 C42 0.930 . S
H84 C46 0.929 . S
H85 C48 0.930 . S
H86 C54 0.929 . S
H87 C55 0.930 . S
Li88 N105 1.990 . S
Li88 O148 1.956 . S
Li88 O149 1.970 . S
Li88 O150 1.961 . S
Li89 N113 1.990 . S
Li89 O148 1.970 . S
Li89 O149 1.956 . S
Li89 O151 1.961 . S
Li90 N135 1.990 . S
Li90 O148 1.961 . S
Li90 O150 1.956 . S
Li90 O151 1.970 . S
Li91 N141 1.990 . S
Li91 O149 1.961 . S
Li91 O150 1.970 . S
Li91 O151 1.956 . S
C92 C94 1.348 . S
C92 C95 1.356 . S
C92 O148 1.325 . S
N93 C96 1.314 . S
N93 C97 1.279 . S
C94 C92 1.348 . S
C94 C96 1.353 . S
C94 H152 0.929 . S
C95 C92 1.356 . S
C95 C97 1.358 . S
C95 H153 0.930 . S
C96 N93 1.314 . S
C96 C94 1.353 . S
C96 H154 0.930 . S
C97 N93 1.279 . S
C97 C95 1.358 . S
C97 H155 0.930 . S
C98 C101 1.348 . S
C98 C102 1.356 . S
C98 O149 1.325 . S
C99 N100 1.279 . S
C99 C102 1.358 . S
C99 H156 0.930 . S
N100 C99 1.279 . S
N100 C103 1.314 . S
C101 C98 1.348 . S
C101 C103 1.353 . S
C101 H157 0.929 . S
C102 C98 1.356 . S
C102 C99 1.358 . S
C102 H158 0.930 . S
C103 N100 1.314 . S
C103 C101 1.353 . S
C103 H159 0.930 . S
C104 N105 1.314 . S
C104 C109 1.353 . S
C104 H110 0.930 . S
N105 Li88 1.990 . S
N105 C104 1.314 . S
N105 C107 1.279 . S
C106 C107 1.358 . S
C106 C108 1.356 . S
C106 H160 0.930 . S
C107 N105 1.279 . S
C107 C106 1.358 . S
C107 H111 0.930 . S
C108 C106 1.356 . S
C108 C109 1.348 . S
C109 C104 1.353 . S
C109 C108 1.348 . S
C109 H161 0.929 . S
H110 C104 0.930 . S
H111 C107 0.930 . S
C112 N113 1.314 . S
C112 C114 1.353 . S
C112 H118 0.930 . S
N113 Li89 1.990 . S
N113 C112 1.314 . S
N113 C116 1.279 . S
C114 C112 1.353 . S
C114 C117 1.348 . S
C114 H162 0.929 . S
C115 C116 1.358 . S
C115 C117 1.356 . S
C115 H163 0.930 . S
C116 N113 1.279 . S
C116 C115 1.358 . S
C116 H119 0.930 . S
C117 C114 1.348 . S
C117 C115 1.356 . S
H118 C112 0.930 . S
H119 C116 0.930 . S
C120 C122 1.348 . S
C120 C123 1.356 . S
C120 O150 1.325 . S
N121 C124 1.314 . S
N121 C125 1.279 . S
C122 C120 1.348 . S
C122 C124 1.353 . S
C122 H164 0.929 . S
C123 C120 1.356 . S
C123 C125 1.358 . S
C123 H165 0.930 . S
C124 N121 1.314 . S
C124 C122 1.353 . S
C124 H166 0.930 . S
C125 N121 1.279 . S
C125 C123 1.358 . S
C125 H167 0.930 . S
C126 C127 1.348 . S
C126 C128 1.356 . S
C126 O151 1.325 . S
C127 C126 1.348 . S
C127 C129 1.353 . S
C127 H168 0.929 . S
C128 C126 1.356 . S
C128 C130 1.358 . S
C128 H169 0.930 . S
C129 C127 1.353 . S
C129 N131 1.314 . S
C129 H170 0.930 . S
C130 C128 1.358 . S
C130 N131 1.279 . S
C130 H171 0.930 . S
N131 C129 1.314 . S
N131 C130 1.279 . S
C132 C134 1.353 . S
C132 N135 1.314 . S
C132 H138 0.930 . S
C133 N135 1.279 . S
C133 C136 1.358 . S
C133 H139 0.930 . S
C134 C132 1.353 . S
C134 C137 1.348 . S
C134 H172 0.929 . S
N135 Li90 1.990 . S
N135 C132 1.314 . S
N135 C133 1.279 . S
C136 C133 1.358 . S
C136 C137 1.356 . S
C136 H173 0.930 . S
C137 C134 1.348 . S
C137 C136 1.356 . S
H138 C132 0.930 . S
H139 C133 0.930 . S
C140 N141 1.314 . S
C140 C142 1.353 1_554 S
C140 H146 0.930 . S
N141 Li91 1.990 . S
N141 C140 1.314 . S
N141 C144 1.279 . S
C142 C140 1.353 1_556 S
C142 C145 1.348 . S
C142 H174 0.929 . S
C143 C144 1.358 . S
C143 C145 1.356 1_554 S
C143 H175 0.930 . S
C144 N141 1.279 . S
C144 C143 1.358 . S
C144 H147 0.930 . S
C145 C142 1.348 . S
C145 C143 1.356 1_556 S
H146 C140 0.930 . S
H147 C144 0.930 . S
O148 Li88 1.956 . S
O148 Li89 1.970 . S
O148 Li90 1.961 . S
O148 C92 1.325 . S
O149 Li88 1.970 . S
O149 Li89 1.956 . S
O149 Li91 1.961 . S
O149 C98 1.325 . S
O150 Li88 1.961 . S
O150 Li90 1.956 . S
O150 Li91 1.970 . S
O150 C120 1.325 . S
O151 Li89 1.961 . S
O151 Li90 1.970 . S
O151 Li91 1.956 . S
O151 C126 1.325 . S
H152 C94 0.929 . S
H153 C95 0.930 . S
H154 C96 0.930 . S
H155 C97 0.930 . S
H156 C99 0.930 . S
H157 C101 0.929 . S
H158 C102 0.930 . S
H159 C103 0.930 . S
H160 C106 0.930 . S
H161 C109 0.929 . S
H162 C114 0.929 . S
H163 C115 0.930 . S
H164 C122 0.929 . S
H165 C123 0.930 . S
H166 C124 0.930 . S
H167 C125 0.930 . S
H168 C127 0.929 . S
H169 C128 0.930 . S
H170 C129 0.930 . S
H171 C130 0.930 . S
H172 C134 0.929 . S
H173 C136 0.930 . S
H174 C142 0.929 . S
H175 C143 0.930 . S
Li176 N193 1.990 1_554 S
Li176 O236 1.956 . S
Li176 O237 1.970 1_565 S
Li176 O238 1.961 . S
Li177 N201 1.990 . S
Li177 O236 1.970 1_545 S
Li177 O237 1.956 . S
Li177 O239 1.961 . S
Li178 N223 1.990 . S
Li178 O236 1.961 . S
Li178 O238 1.956 . S
Li178 O239 1.970 1_565 S
Li179 N229 1.990 . S
Li179 O237 1.961 . S
Li179 O238 1.970 1_545 S
Li179 O239 1.956 . S
C180 C182 1.348 . S
C180 C183 1.356 . S
C180 O236 1.325 . S
N181 C184 1.314 . S
N181 C185 1.279 . S
C182 C180 1.348 . S
C182 C184 1.353 . S
C182 H240 0.929 . S
C183 C180 1.356 . S
C183 C185 1.358 . S
C183 H241 0.930 . S
C184 N181 1.314 . S
C184 C182 1.353 . S
C184 H242 0.930 . S
C185 N181 1.279 . S
C185 C183 1.358 . S
C185 H243 0.930 . S
C186 C189 1.348 . S
C186 C190 1.356 . S
C186 O237 1.325 . S
C187 N188 1.279 . S
C187 C190 1.358 . S
C187 H244 0.930 . S
N188 C187 1.279 . S
N188 C191 1.314 . S
C189 C186 1.348 . S
C189 C191 1.353 . S
C189 H245 0.929 . S
C190 C186 1.356 . S
C190 C187 1.358 . S
C190 H246 0.930 . S
C191 N188 1.314 . S
C191 C189 1.353 . S
C191 H247 0.930 1_554 S
C192 N193 1.314 . S
C192 C197 1.353 . S
C192 H198 0.930 . S
N193 Li176 1.990 1_556 S
N193 C192 1.314 . S
N193 C195 1.279 . S
C194 C195 1.358 . S
C194 C196 1.356 . S
C194 H248 0.930 . S
C195 N193 1.279 . S
C195 C194 1.358 . S
C195 H199 0.930 1_556 S
C196 C194 1.356 . S
C196 C197 1.348 . S
C197 C192 1.353 . S
C197 C196 1.348 . S
C197 H249 0.929 . S
H198 C192 0.930 . S
H199 C195 0.930 1_554 S
C200 N201 1.314 . S
C200 C202 1.353 . S
C200 H206 0.930 . S
N201 Li177 1.990 . S
N201 C200 1.314 . S
N201 C204 1.279 . S
C202 C200 1.353 . S
C202 C205 1.348 . S
C202 H250 0.929 . S
C203 C204 1.358 . S
C203 C205 1.356 . S
C203 H251 0.930 . S
C204 N201 1.279 . S
C204 C203 1.358 . S
C204 H207 0.930 . S
C205 C202 1.348 . S
C205 C203 1.356 . S
H206 C200 0.930 . S
H207 C204 0.930 . S
C208 C210 1.348 . S
C208 C211 1.356 . S
C208 O238 1.325 1_556 S
N209 C212 1.314 . S
N209 C213 1.279 . S
C210 C208 1.348 . S
C210 C212 1.353 . S
C210 H252 0.929 1_565 S
C211 C208 1.356 . S
C211 C213 1.358 . S
C211 H253 0.930 . S
C212 N209 1.314 . S
C212 C210 1.353 . S
C212 H254 0.930 . S
C213 N209 1.279 . S
C213 C211 1.358 . S
C213 H255 0.930 . S
C214 C215 1.348 . S
C214 C216 1.356 . S
C214 O239 1.325 . S
C215 C214 1.348 . S
C215 C217 1.353 . S
C215 H256 0.929 1_545 S
C216 C214 1.356 . S
C216 C218 1.358 . S
C216 H257 0.930 . S
C217 C215 1.353 . S
C217 N219 1.314 . S
C217 H258 0.930 . S
C218 C216 1.358 . S
C218 N219 1.279 . S
C218 H259 0.930 . S
N219 C217 1.314 . S
N219 C218 1.279 . S
C220 C222 1.353 . S
C220 N223 1.314 . S
C220 H226 0.930 . S
C221 N223 1.279 . S
C221 C224 1.358 . S
C221 H227 0.930 . S
C222 C220 1.353 . S
C222 C225 1.348 . S
C222 H260 0.929 . S
N223 Li178 1.990 . S
N223 C220 1.314 . S
N223 C221 1.279 . S
C224 C221 1.358 . S
C224 C225 1.356 . S
C224 H261 0.930 . S
C225 C222 1.348 . S
C225 C224 1.356 . S
H226 C220 0.930 . S
H227 C221 0.930 . S
C228 N229 1.261 1_556 S
C228 C230 1.379 . S
C228 H234 0.964 . S
N229 Li179 1.990 . S
N229 C228 1.261 1_554 S
N229 C232 1.279 . S
C230 C228 1.379 . S
C230 C233 1.326 1_556 S
C230 H262 0.929 . S
C231 C232 1.358 . S
C231 C233 1.398 . S
C231 H263 0.930 . S
C232 N229 1.279 . S
C232 C231 1.358 . S
C232 H235 0.930 . S
C233 C230 1.326 1_554 S
C233 C231 1.398 . S
H234 C228 0.964 . S
H235 C232 0.930 . S
O236 Li176 1.956 . S
O236 Li177 1.970 1_565 S
O236 Li178 1.961 . S
O236 C180 1.325 . S
O237 Li176 1.970 1_545 S
O237 Li177 1.956 . S
O237 Li179 1.961 . S
O237 C186 1.325 . S
O238 Li176 1.961 . S
O238 Li178 1.956 . S
O238 Li179 1.970 1_565 S
O238 C208 1.325 1_554 S
O239 Li177 1.961 . S
O239 Li178 1.970 1_545 S
O239 Li179 1.956 . S
O239 C214 1.325 . S
H240 C182 0.929 . S
H241 C183 0.930 . S
H242 C184 0.930 . S
H243 C185 0.930 . S
H244 C187 0.930 . S
H245 C189 0.929 . S
H246 C190 0.930 . S
H247 C191 0.930 1_556 S
H248 C194 0.930 . S
H249 C197 0.929 . S
H250 C202 0.929 . S
H251 C203 0.930 . S
H252 C210 0.929 1_545 S
H253 C211 0.930 . S
H254 C212 0.930 . S
H255 C213 0.930 . S
H256 C215 0.929 1_565 S
H257 C216 0.930 . S
H258 C217 0.930 . S
H259 C218 0.930 . S
H260 C222 0.929 . S
H261 C224 0.930 . S
H262 C230 0.929 . S
H263 C231 0.930 . S
Li264 N281 1.990 . S
Li264 O324 1.956 . S
Li264 O325 1.970 1_455 S
Li264 O326 1.961 . S
Li265 N289 1.990 . S
Li265 O324 1.970 1_655 S
Li265 O325 1.956 . S
Li265 O327 1.961 . S
Li266 N311 1.990 . S
Li266 O324 1.961 . S
Li266 O326 1.956 . S
Li266 O327 1.970 1_455 S
Li267 N317 1.990 . S
Li267 O325 1.961 . S
Li267 O326 1.970 1_655 S
Li267 O327 1.956 . S
C268 C270 1.348 . S
C268 C271 1.356 . S
C268 O324 1.325 . S
N269 C272 1.314 . S
N269 C273 1.279 . S
C270 C268 1.348 . S
C270 C272 1.353 . S
C270 H328 0.929 . S
C271 C268 1.356 . S
C271 C273 1.358 . S
C271 H329 0.930 . S
C272 N269 1.314 . S
C272 C270 1.353 . S
C272 H330 0.930 . S
C273 N269 1.279 . S
C273 C271 1.358 . S
C273 H331 0.930 . S
C274 C277 1.348 1_655 S
C274 C278 1.356 . S
C274 O325 1.325 . S
C275 N276 1.279 . S
C275 C278 1.358 . S
C275 H332 0.930 . S
N276 C275 1.279 . S
N276 C279 1.314 . S
C277 C274 1.348 1_455 S
C277 C279 1.353 1_455 S
C277 H333 0.929 . S
C278 C274 1.356 . S
C278 C275 1.358 . S
C278 H334 0.930 . S
C279 N276 1.314 . S
C279 C277 1.353 1_655 S
C279 H335 0.930 1_655 S
C280 N281 1.314 . S
C280 C285 1.353 . S
C280 H286 0.930 . S
N281 Li264 1.990 . S
N281 C280 1.314 . S
N281 C283 1.279 . S
C282 C283 1.358 . S
C282 C284 1.356 . S
C282 H336 0.930 . S
C283 N281 1.279 . S
C283 C282 1.358 . S
C283 H287 0.930 . S
C284 C282 1.356 . S
C284 C285 1.348 . S
C285 C280 1.353 . S
C285 C284 1.348 . S
C285 H337 0.929 . S
H286 C280 0.930 . S
H287 C283 0.930 . S
C288 N289 1.314 . S
C288 C290 1.353 . S
C288 H294 0.930 . S
N289 Li265 1.990 . S
N289 C288 1.314 . S
N289 C292 1.279 . S
C290 C288 1.353 . S
C290 C293 1.348 . S
C290 H338 0.929 . S
C291 C292 1.358 . S
C291 C293 1.356 . S
C291 H339 0.930 . S
C292 N289 1.279 . S
C292 C291 1.358 . S
C292 H295 0.930 . S
C293 C290 1.348 . S
C293 C291 1.356 . S
H294 C288 0.930 . S
H295 C292 0.930 . S
C296 C298 1.309 1_455 S
C296 C299 1.356 . S
C296 O326 1.325 . S
N297 C300 1.314 . S
N297 C301 1.279 . S
C298 C296 1.309 1_655 S
C298 C300 1.351 1_654 S
C298 H340 0.971 . S
C299 C296 1.356 . S
C299 C301 1.358 1_554 S
C299 H341 0.930 . S
C300 N297 1.314 . S
C300 C298 1.351 1_456 S
C300 H342 0.930 1_455 S
C301 N297 1.279 . S
C301 C299 1.358 1_556 S
C301 H343 0.930 . S
C302 C303 1.348 . S
C302 C304 1.356 . S
C302 O327 1.325 . S
C303 C302 1.348 . S
C303 C305 1.353 . S
C303 H344 0.929 . S
C304 C302 1.356 . S
C304 C306 1.358 . S
C304 H345 0.930 . S
C305 C303 1.353 . S
C305 N307 1.314 . S
C305 H346 0.895 1_554 S
C306 C304 1.358 . S
C306 N307 1.279 . S
C306 H347 0.930 . S
N307 C305 1.314 . S
N307 C306 1.279 . S
C308 C310 1.353 1_554 S
C308 N311 1.314 . S
C308 H314 0.930 . S
C309 N311 1.279 1_556 S
C309 C312 1.358 . S
C309 H315 0.930 . S
C310 C308 1.353 1_556 S
C310 C313 1.348 . S
C310 H348 0.929 . S
N311 Li266 1.990 . S
N311 C308 1.314 . S
N311 C309 1.279 1_554 S
C312 C309 1.358 . S
C312 C313 1.356 . S
C312 H349 0.930 . S
C313 C310 1.348 . S
C313 C312 1.356 . S
H314 C308 0.930 . S
H315 C309 0.930 . S
C316 N317 1.314 . S
C316 C318 1.353 . S
C316 H322 0.930 . S
N317 Li267 1.990 . S
N317 C316 1.314 . S
N317 C320 1.279 . S
C318 C316 1.353 . S
C318 C321 1.348 . S
C318 H350 0.929 . S
C319 C320 1.358 . S
C319 C321 1.356 . S
C319 H351 0.930 . S
C320 N317 1.279 . S
C320 C319 1.358 . S
C320 H323 0.930 . S
C321 C318 1.348 . S
C321 C319 1.356 . S
H322 C316 0.930 . S
H323 C320 0.930 . S
O324 Li264 1.956 . S
O324 Li265 1.970 1_455 S
O324 Li266 1.961 . S
O324 C268 1.325 . S
O325 Li264 1.970 1_655 S
O325 Li265 1.956 . S
O325 Li267 1.961 . S
O325 C274 1.325 . S
O326 Li264 1.961 . S
O326 Li266 1.956 . S
O326 Li267 1.970 1_455 S
O326 C296 1.325 . S
O327 Li265 1.961 . S
O327 Li266 1.970 1_655 S
O327 Li267 1.956 . S
O327 C302 1.325 . S
H328 C270 0.929 . S
H329 C271 0.930 . S
H330 C272 0.930 . S
H331 C273 0.930 . S
H332 C275 0.930 . S
H333 C277 0.929 . S
H334 C278 0.930 . S
H335 C279 0.930 1_455 S
H336 C282 0.930 . S
H337 C285 0.929 . S
H338 C290 0.929 . S
H339 C291 0.930 . S
H340 C298 0.971 . S
H341 C299 0.930 . S
H342 C300 0.930 1_655 S
H343 C301 0.930 . S
H344 C303 0.929 . S
H345 C304 0.930 . S
H346 C305 0.895 1_556 S
H347 C306 0.930 . S
H348 C310 0.929 . S
H349 C312 0.930 . S
H350 C318 0.929 . S
H351 C319 0.930 . S
Li352 N369 1.990 . S
Li352 O412 1.956 . S
Li352 O413 1.970 . S
Li352 O414 1.961 1_554 S
Li353 N377 1.990 . S
Li353 O412 1.970 . S
Li353 O413 1.956 . S
Li353 O415 1.963 1_554 S
Li354 N399 1.990 . S
Li354 O412 1.961 1_556 S
Li354 O414 1.956 . S
Li354 O415 1.970 . S
Li355 N405 1.990 . S
Li355 O413 1.961 1_556 S
Li355 O414 1.970 . S
Li355 O415 1.956 . S
C356 C358 1.348 . S
C356 C359 1.356 . S
C356 O412 1.325 . S
N357 C360 1.314 . S
N357 C361 1.279 . S
C358 C356 1.348 . S
C358 C360 1.353 . S
C358 H416 0.929 . S
C359 C356 1.356 . S
C359 C361 1.358 . S
C359 H417 0.930 . S
C360 N357 1.314 . S
C360 C358 1.353 . S
C360 H418 0.930 . S
C361 N357 1.279 . S
C361 C359 1.358 . S
C361 H419 0.930 . S
C362 C365 1.348 . S
C362 C366 1.356 . S
C362 O413 1.325 . S
C363 N364 1.279 . S
C363 C366 1.358 . S
C363 H420 0.930 . S
N364 C363 1.279 . S
N364 C367 1.314 . S
C365 C362 1.348 . S
C365 C367 1.353 . S
C365 H421 0.929 . S
C366 C362 1.356 . S
C366 C363 1.358 . S
C366 H422 0.930 . S
C367 N364 1.314 . S
C367 C365 1.353 . S
C367 H423 0.930 . S
C368 N369 1.314 . S
C368 C373 1.353 . S
C368 H374 0.930 . S
N369 Li352 1.990 . S
N369 C368 1.314 . S
N369 C371 1.279 . S
C370 C371 1.358 . S
C370 C372 1.356 . S
C370 H424 0.930 . S
C371 N369 1.279 . S
C371 C370 1.358 . S
C371 H375 0.930 . S
C372 C370 1.356 . S
C372 C373 1.348 . S
C373 C368 1.353 . S
C373 C372 1.348 . S
C373 H425 0.929 . S
H374 C368 0.930 . S
H375 C371 0.930 . S
C376 N377 1.314 . S
C376 C378 1.353 . S
C376 H382 0.930 . S
N377 Li353 1.990 . S
N377 C376 1.314 . S
N377 C380 1.279 . S
C378 C376 1.353 . S
C378 C381 1.348 . S
C378 H426 0.929 . S
C379 C380 1.358 . S
C379 C381 1.356 . S
C379 H427 0.930 . S
C380 N377 1.279 . S
C380 C379 1.358 . S
C380 H383 0.930 . S
C381 C378 1.348 . S
C381 C379 1.356 . S
H382 C376 0.930 . S
H383 C380 0.930 . S
C384 C386 1.348 . S
C384 C387 1.356 . S
C384 O414 1.325 . S
N385 C388 1.314 . S
N385 C389 1.279 . S
C386 C384 1.348 . S
C386 C388 1.353 . S
C386 H428 0.929 . S
C387 C384 1.356 . S
C387 C389 1.358 . S
C387 H429 0.930 . S
C388 N385 1.314 . S
C388 C386 1.353 . S
C388 H430 0.930 . S
C389 N385 1.279 . S
C389 C387 1.358 . S
C389 H431 0.930 . S
C390 C391 1.348 . S
C390 C392 1.356 1_556 S
C390 O415 1.324 . S
C391 C390 1.348 . S
C391 C393 1.353 . S
C391 H432 0.929 . S
C392 C390 1.356 1_554 S
C392 C394 1.358 1_554 S
C392 H433 0.930 . S
C393 C391 1.353 . S
C393 N395 1.314 . S
C393 H434 0.930 . S
C394 C392 1.358 1_556 S
C394 N395 1.279 . S
C394 H435 0.930 1_556 S
N395 C393 1.314 . S
N395 C394 1.279 . S
C396 C398 1.353 . S
C396 N399 1.314 . S
C396 H402 0.930 . S
C397 N399 1.279 . S
C397 C400 1.358 . S
C397 H403 0.930 . S
C398 C396 1.353 . S
C398 C401 1.348 . S
C398 H436 0.929 . S
N399 Li354 1.990 . S
N399 C396 1.314 . S
N399 C397 1.279 . S
C400 C397 1.358 . S
C400 C401 1.356 . S
C400 H437 0.930 . S
C401 C398 1.348 . S
C401 C400 1.356 . S
H402 C396 0.930 . S
H403 C397 0.930 . S
C404 N405 1.314 . S
C404 C406 1.353 . S
C404 H410 0.930 . S
N405 Li355 1.990 . S
N405 C404 1.314 . S
N405 C408 1.279 . S
C406 C404 1.353 . S
C406 C409 1.348 . S
C406 H438 0.929 . S
C407 C408 1.358 . S
C407 C409 1.356 . S
C407 H439 0.930 . S
C408 N405 1.279 . S
C408 C407 1.358 . S
C408 H411 0.930 . S
C409 C406 1.348 . S
C409 C407 1.356 . S
H410 C404 0.930 . S
H411 C408 0.930 . S
O412 Li352 1.956 . S
O412 Li353 1.970 . S
O412 Li354 1.961 1_554 S
O412 C356 1.325 . S
O413 Li352 1.970 . S
O413 Li353 1.956 . S
O413 Li355 1.961 1_554 S
O413 C362 1.325 . S
O414 Li352 1.961 1_556 S
O414 Li354 1.956 . S
O414 Li355 1.970 . S
O414 C384 1.325 . S
O415 Li353 1.963 1_556 S
O415 Li354 1.970 . S
O415 Li355 1.956 . S
O415 C390 1.324 . S
H416 C358 0.929 . S
H417 C359 0.930 . S
H418 C360 0.930 . S
H419 C361 0.930 . S
H420 C363 0.930 . S
H421 C365 0.929 . S
H422 C366 0.930 . S
H423 C367 0.930 . S
H424 C370 0.930 . S
H425 C373 0.929 . S
H426 C378 0.929 . S
H427 C379 0.930 . S
H428 C386 0.929 . S
H429 C387 0.930 . S
H430 C388 0.930 . S
H431 C389 0.930 . S
H432 C391 0.929 . S
H433 C392 0.930 . S
H434 C393 0.930 . S
H435 C394 0.930 1_554 S
H436 C398 0.929 . S
H437 C400 0.930 . S
H438 C406 0.929 . S
H439 C407 0.930 . S
Li440 N457 1.990 . S
Li440 O500 1.956 . S
Li440 O501 1.970 1_565 S
Li440 O502 1.961 . S
Li441 N465 1.990 . S
Li441 O500 1.970 1_545 S
Li441 O501 1.956 . S
Li441 O503 1.961 . S
Li442 N487 1.990 . S
Li442 O500 1.961 . S
Li442 O502 1.956 . S
Li442 O503 1.970 1_565 S
Li443 N493 1.990 . S
Li443 O501 1.961 . S
Li443 O502 1.970 1_545 S
Li443 O503 1.956 . S
C444 C446 1.348 . S
C444 C447 1.356 . S
C444 O500 1.325 . S
N445 C448 1.314 . S
N445 C449 1.279 . S
C446 C444 1.348 . S
C446 C448 1.353 . S
C446 H504 0.929 . S
C447 C444 1.356 . S
C447 C449 1.358 . S
C447 H505 0.930 . S
C448 N445 1.314 . S
C448 C446 1.353 . S
C448 H506 0.930 . S
C449 N445 1.279 . S
C449 C447 1.358 . S
C449 H507 0.930 . S
C450 C453 1.348 . S
C450 C454 1.356 . S
C450 O501 1.325 . S
C451 N452 1.279 . S
C451 C454 1.358 . S
C451 H508 0.930 . S
N452 C451 1.279 . S
N452 C455 1.314 . S
C453 C450 1.348 . S
C453 C455 1.353 . S
C453 H509 0.929 1_545 S
C454 C450 1.356 . S
C454 C451 1.358 . S
C454 H510 0.930 . S
C455 N452 1.314 . S
C455 C453 1.353 . S
C455 H511 0.930 . S
C456 N457 1.314 . S
C456 C461 1.353 . S
C456 H462 0.930 . S
N457 Li440 1.990 . S
N457 C456 1.314 . S
N457 C459 1.279 . S
C458 C459 1.358 . S
C458 C460 1.356 . S
C458 H512 0.930 . S
C459 N457 1.279 . S
C459 C458 1.358 . S
C459 H463 0.930 . S
C460 C458 1.356 . S
C460 C461 1.348 . S
C461 C456 1.353 . S
C461 C460 1.348 . S
C461 H513 0.929 . S
H462 C456 0.930 . S
H463 C459 0.930 . S
C464 N465 1.314 . S
C464 C466 1.353 . S
C464 H470 0.930 . S
N465 Li441 1.990 . S
N465 C464 1.314 . S
N465 C468 1.279 . S
C466 C464 1.353 . S
C466 C469 1.348 . S
C466 H514 0.929 . S
C467 C468 1.358 . S
C467 C469 1.356 . S
C467 H515 0.930 . S
C468 N465 1.279 . S
C468 C467 1.358 . S
C468 H471 0.930 . S
C469 C466 1.348 . S
C469 C467 1.356 . S
H470 C464 0.930 . S
H471 C468 0.930 . S
C472 C474 1.348 1_565 S
C472 C475 1.356 . S
C472 O502 1.325 . S
N473 C476 1.314 . S
N473 C477 1.279 . S
C474 C472 1.348 1_545 S
C474 C476 1.353 1_544 S
C474 H516 0.929 . S
C475 C472 1.356 . S
C475 C477 1.358 1_554 S
C475 H517 0.930 . S
C476 N473 1.314 . S
C476 C474 1.353 1_566 S
C476 H518 0.930 1_565 S
C477 N473 1.279 . S
C477 C475 1.358 1_556 S
C477 H519 0.930 . S
C478 C479 1.348 . S
C478 C480 1.356 . S
C478 O503 1.325 . S
C479 C478 1.348 . S
C479 C481 1.353 . S
C479 H520 0.929 . S
C480 C478 1.356 . S
C480 C482 1.358 . S
C480 H521 0.930 . S
C481 C479 1.353 . S
C481 N483 1.314 . S
C481 H522 0.930 . S
C482 C480 1.358 . S
C482 N483 1.279 . S
C482 H523 0.930 . S
N483 C481 1.314 . S
N483 C482 1.279 . S
C484 C486 1.353 1_554 S
C484 N487 1.314 . S
C484 H490 0.930 . S
C485 N487 1.279 1_556 S
C485 C488 1.358 . S
C485 H491 0.930 . S
C486 C484 1.353 1_556 S
C486 C489 1.348 . S
C486 H524 0.929 . S
N487 Li442 1.990 . S
N487 C484 1.314 . S
N487 C485 1.279 1_554 S
C488 C485 1.358 . S
C488 C489 1.356 . S
C488 H525 0.930 . S
C489 C486 1.348 . S
C489 C488 1.356 . S
H490 C484 0.930 . S
H491 C485 0.930 . S
C492 N493 1.314 . S
C492 C494 1.353 . S
C492 H498 0.930 . S
N493 Li443 1.990 . S
N493 C492 1.314 . S
N493 C496 1.279 . S
C494 C492 1.353 . S
C494 C497 1.348 . S
C494 H526 0.929 . S
C495 C496 1.358 . S
C495 C497 1.356 . S
C495 H527 0.930 . S
C496 N493 1.279 . S
C496 C495 1.358 . S
C496 H499 0.930 . S
C497 C494 1.348 . S
C497 C495 1.356 . S
H498 C492 0.930 . S
H499 C496 0.930 . S
O500 Li440 1.956 . S
O500 Li441 1.970 1_565 S
O500 Li442 1.961 . S
O500 C444 1.325 . S
O501 Li440 1.970 1_545 S
O501 Li441 1.956 . S
O501 Li443 1.961 . S
O501 C450 1.325 . S
O502 Li440 1.961 . S
O502 Li442 1.956 . S
O502 Li443 1.970 1_565 S
O502 C472 1.325 . S
O503 Li441 1.961 . S
O503 Li442 1.970 1_545 S
O503 Li443 1.956 . S
O503 C478 1.325 . S
H504 C446 0.929 . S
H505 C447 0.930 . S
H506 C448 0.930 . S
H507 C449 0.930 . S
H508 C451 0.930 . S
H509 C453 0.929 1_565 S
H510 C454 0.930 . S
H511 C455 0.930 . S
H512 C458 0.930 . S
H513 C461 0.929 . S
H514 C466 0.929 . S
H515 C467 0.930 . S
H516 C474 0.929 . S
H517 C475 0.930 . S
H518 C476 0.930 1_545 S
H519 C477 0.930 . S
H520 C479 0.929 . S
H521 C480 0.930 . S
H522 C481 0.930 . S
H523 C482 0.930 . S
H524 C486 0.929 . S
H525 C488 0.930 . S
H526 C494 0.929 . S
H527 C495 0.930 . S
Li528 N545 1.990 . S
Li528 O588 1.956 . S
Li528 O589 1.970 . S
Li528 O590 1.961 . S
Li529 N553 1.990 . S
Li529 O588 1.970 . S
Li529 O589 1.956 . S
Li529 O591 1.961 . S
Li530 N575 1.990 . S
Li530 O588 1.961 . S
Li530 O590 1.956 . S
Li530 O591 1.970 . S
Li531 N581 1.990 . S
Li531 O589 1.961 . S
Li531 O590 1.970 . S
Li531 O591 1.956 . S
C532 C534 1.348 . S
C532 C535 1.356 . S
C532 O588 1.325 . S
N533 C536 1.314 . S
N533 C537 1.279 . S
C534 C532 1.348 . S
C534 C536 1.353 . S
C534 H592 0.929 . S
C535 C532 1.356 . S
C535 C537 1.358 . S
C535 H593 0.930 . S
C536 N533 1.314 . S
C536 C534 1.353 . S
C536 H594 0.930 . S
C537 N533 1.279 . S
C537 C535 1.358 . S
C537 H595 0.930 . S
C538 C541 1.348 . S
C538 C542 1.356 . S
C538 O589 1.325 . S
C539 N540 1.279 . S
C539 C542 1.358 . S
C539 H596 0.930 . S
N540 C539 1.279 . S
N540 C543 1.314 . S
C541 C538 1.348 . S
C541 C543 1.353 . S
C541 H597 0.929 . S
C542 C538 1.356 . S
C542 C539 1.358 . S
C542 H598 0.930 . S
C543 N540 1.314 . S
C543 C541 1.353 . S
C543 H599 0.930 . S
C544 N545 1.314 . S
C544 C549 1.353 . S
C544 H550 0.930 . S
N545 Li528 1.990 . S
N545 C544 1.314 . S
N545 C547 1.279 . S
C546 C547 1.358 . S
C546 C548 1.356 . S
C546 H600 0.930 . S
C547 N545 1.279 . S
C547 C546 1.358 . S
C547 H551 0.930 . S
C548 C546 1.356 . S
C548 C549 1.348 . S
C549 C544 1.353 . S
C549 C548 1.348 . S
C549 H601 0.929 . S
H550 C544 0.930 . S
H551 C547 0.930 . S
C552 N553 1.314 . S
C552 C554 1.353 . S
C552 H558 0.930 . S
N553 Li529 1.990 . S
N553 C552 1.314 . S
N553 C556 1.279 . S
C554 C552 1.353 . S
C554 C557 1.348 . S
C554 H602 0.929 . S
C555 C556 1.358 . S
C555 C557 1.356 . S
C555 H603 0.930 . S
C556 N553 1.279 . S
C556 C555 1.358 . S
C556 H559 0.930 . S
C557 C554 1.348 . S
C557 C555 1.356 . S
H558 C552 0.930 . S
H559 C556 0.930 . S
C560 C562 1.348 . S
C560 C563 1.356 . S
C560 O590 1.325 . S
N561 C564 1.314 . S
N561 C565 1.279 . S
C562 C560 1.348 . S
C562 C564 1.353 . S
C562 H604 0.929 . S
C563 C560 1.356 . S
C563 C565 1.358 . S
C563 H605 0.930 . S
C564 N561 1.314 . S
C564 C562 1.353 . S
C564 H606 0.930 . S
C565 N561 1.279 . S
C565 C563 1.358 . S
C565 H607 0.930 . S
C566 C567 1.348 . S
C566 C568 1.356 . S
C566 O591 1.325 . S
C567 C566 1.348 . S
C567 C569 1.353 . S
C567 H608 0.929 . S
C568 C566 1.356 . S
C568 C570 1.358 . S
C568 H609 0.930 . S
C569 C567 1.353 . S
C569 N571 1.314 . S
C569 H610 0.930 . S
C570 C568 1.358 . S
C570 N571 1.279 . S
C570 H611 0.930 . S
N571 C569 1.314 . S
N571 C570 1.279 . S
C572 C574 1.353 . S
C572 N575 1.314 . S
C572 H578 0.930 . S
C573 N575 1.279 . S
C573 C576 1.358 . S
C573 H579 0.930 . S
C574 C572 1.353 . S
C574 C577 1.348 . S
C574 H612 0.929 . S
N575 Li530 1.990 . S
N575 C572 1.314 . S
N575 C573 1.279 . S
C576 C573 1.358 . S
C576 C577 1.356 . S
C576 H613 0.930 . S
C577 C574 1.348 . S
C577 C576 1.356 . S
H578 C572 0.930 . S
H579 C573 0.930 . S
C580 N581 1.314 . S
C580 C582 1.353 . S
C580 H586 0.930 . S
N581 Li531 1.990 . S
N581 C580 1.314 . S
N581 C584 1.279 . S
C582 C580 1.353 . S
C582 C585 1.348 . S
C582 H614 0.929 . S
C583 C584 1.358 . S
C583 C585 1.356 . S
C583 H615 0.930 . S
C584 N581 1.279 . S
C584 C583 1.358 . S
C584 H587 0.930 . S
C585 C582 1.348 . S
C585 C583 1.356 . S
H586 C580 0.930 . S
H587 C584 0.930 . S
O588 Li528 1.956 . S
O588 Li529 1.970 . S
O588 Li530 1.961 . S
O588 C532 1.325 . S
O589 Li528 1.970 . S
O589 Li529 1.956 . S
O589 Li531 1.961 . S
O589 C538 1.325 . S
O590 Li528 1.961 . S
O590 Li530 1.956 . S
O590 Li531 1.970 . S
O590 C560 1.325 . S
O591 Li529 1.961 . S
O591 Li530 1.970 . S
O591 Li531 1.956 . S
O591 C566 1.325 . S
H592 C534 0.929 . S
H593 C535 0.930 . S
H594 C536 0.930 . S
H595 C537 0.930 . S
H596 C539 0.930 . S
H597 C541 0.929 . S
H598 C542 0.930 . S
H599 C543 0.930 . S
H600 C546 0.930 . S
H601 C549 0.929 . S
H602 C554 0.929 . S
H603 C555 0.930 . S
H604 C562 0.929 . S
H605 C563 0.930 . S
H606 C564 0.930 . S
H607 C565 0.930 . S
H608 C567 0.929 . S
H609 C568 0.930 . S
H610 C569 0.930 . S
H611 C570 0.930 . S
H612 C574 0.929 . S
H613 C576 0.930 . S
H614 C582 0.929 . S
H615 C583 0.930 . S
Li616 N633 1.990 . S
Li616 O676 1.956 . S
Li616 O677 1.970 . S
Li616 O678 1.961 . S
Li617 N641 1.990 . S
Li617 O676 1.970 . S
Li617 O677 1.956 . S
Li617 O679 1.961 . S
Li618 N663 1.912 1_565 S
Li618 O676 1.961 . S
Li618 O678 1.956 . S
Li618 O679 1.970 . S
Li619 N669 1.990 . S
Li619 O677 1.961 . S
Li619 O678 1.970 . S
Li619 O679 1.956 . S
C620 C622 1.348 . S
C620 C623 1.356 . S
C620 O676 1.325 . S
N621 C624 1.314 . S
N621 C625 1.279 . S
C622 C620 1.348 . S
C622 C624 1.353 . S
C622 H680 0.929 . S
C623 C620 1.356 . S
C623 C625 1.358 . S
C623 H681 0.930 . S
C624 N621 1.314 . S
C624 C622 1.353 . S
C624 H682 0.930 . S
C625 N621 1.279 . S
C625 C623 1.358 . S
C625 H683 0.930 . S
C626 C629 1.348 . S
C626 C630 1.356 . S
C626 O677 1.325 . S
C627 N628 1.279 . S
C627 C630 1.358 . S
C627 H684 0.930 . S
N628 C627 1.279 . S
N628 C631 1.314 . S
C629 C626 1.348 . S
C629 C631 1.353 . S
C629 H685 0.929 . S
C630 C626 1.356 . S
C630 C627 1.358 . S
C630 H686 0.930 . S
C631 N628 1.314 . S
C631 C629 1.353 . S
C631 H687 0.930 . S
C632 N633 1.314 . S
C632 C637 1.353 . S
C632 H638 0.930 . S
N633 Li616 1.990 . S
N633 C632 1.314 . S
N633 C635 1.279 . S
C634 C635 1.358 . S
C634 C636 1.356 . S
C634 H688 0.930 . S
C635 N633 1.279 . S
C635 C634 1.358 . S
C635 H639 0.930 . S
C636 C634 1.356 . S
C636 C637 1.348 . S
C637 C632 1.353 . S
C637 C636 1.348 . S
C637 H689 0.929 . S
H638 C632 0.930 . S
H639 C635 0.930 . S
C640 N641 1.314 . S
C640 C642 1.353 . S
C640 H646 0.930 . S
N641 Li617 1.990 . S
N641 C640 1.314 . S
N641 C644 1.279 . S
C642 C640 1.353 . S
C642 C645 1.348 . S
C642 H690 0.929 . S
C643 C644 1.358 . S
C643 C645 1.356 . S
C643 H691 0.930 . S
C644 N641 1.279 . S
C644 C643 1.358 . S
C644 H647 0.930 . S
C645 C642 1.348 . S
C645 C643 1.356 . S
H646 C640 0.930 . S
H647 C644 0.930 . S
C648 C650 1.348 . S
C648 C651 1.356 . S
C648 O678 1.325 . S
N649 C652 1.314 . S
N649 C653 1.279 . S
C650 C648 1.348 . S
C650 C652 1.353 1_565 S
C650 H692 0.929 . S
C651 C648 1.356 . S
C651 C653 1.358 1_565 S
C651 H693 0.930 . S
C652 N649 1.314 . S
C652 C650 1.353 1_545 S
C652 H694 0.930 . S
C653 N649 1.279 . S
C653 C651 1.358 1_545 S
C653 H695 0.930 . S
C654 C655 1.348 . S
C654 C656 1.356 . S
C654 O679 1.325 . S
C655 C654 1.348 . S
C655 C657 1.353 . S
C655 H696 0.929 . S
C656 C654 1.356 . S
C656 C658 1.358 . S
C656 H697 0.930 . S
C657 C655 1.353 . S
C657 N659 1.314 . S
C657 H698 0.930 1_565 S
C658 C656 1.358 . S
C658 N659 1.279 . S
C658 H699 0.930 . S
N659 C657 1.314 . S
N659 C658 1.279 . S
C660 C662 1.353 . S
C660 N663 1.343 . S
C660 H666 0.930 1_545 S
C661 N663 1.340 . S
C661 C664 1.358 . S
C661 H667 0.930 . S
C662 C660 1.353 . S
C662 C665 1.348 . S
C662 H700 0.929 . S
N663 Li618 1.912 1_545 S
N663 C660 1.343 . S
N663 C661 1.340 . S
C664 C661 1.358 . S
C664 C665 1.356 . S
C664 H701 0.930 . S
C665 C662 1.348 . S
C665 C664 1.356 . S
H666 C660 0.930 1_565 S
H667 C661 0.930 . S
C668 N669 1.314 . S
C668 C670 1.353 . S
C668 H674 0.930 . S
N669 Li619 1.990 . S
N669 C668 1.314 . S
N669 C672 1.279 . S
C670 C668 1.353 . S
C670 C673 1.348 . S
C670 H702 0.929 . S
C671 C672 1.358 . S
C671 C673 1.356 . S
C671 H703 0.930 . S
C672 N669 1.279 . S
C672 C671 1.358 . S
C672 H675 0.930 . S
C673 C670 1.348 . S
C673 C671 1.356 . S
H674 C668 0.930 . S
H675 C672 0.930 . S
O676 Li616 1.956 . S
O676 Li617 1.970 . S
O676 Li618 1.961 . S
O676 C620 1.325 . S
O677 Li616 1.970 . S
O677 Li617 1.956 . S
O677 Li619 1.961 . S
O677 C626 1.325 . S
O678 Li616 1.961 . S
O678 Li618 1.956 . S
O678 Li619 1.970 . S
O678 C648 1.325 . S
O679 Li617 1.961 . S
O679 Li618 1.970 . S
O679 Li619 1.956 . S
O679 C654 1.325 . S
H680 C622 0.929 . S
H681 C623 0.930 . S
H682 C624 0.930 . S
H683 C625 0.930 . S
H684 C627 0.930 . S
H685 C629 0.929 . S
H686 C630 0.930 . S
H687 C631 0.930 . S
H688 C634 0.930 . S
H689 C637 0.929 . S
H690 C642 0.929 . S
H691 C643 0.930 . S
H692 C650 0.929 . S
H693 C651 0.930 . S
H694 C652 0.930 . S
H695 C653 0.930 . S
H696 C655 0.929 . S
H697 C656 0.930 . S
H698 C657 0.930 1_545 S
H699 C658 0.930 . S
H700 C662 0.929 . S
H701 C664 0.930 . S
H702 C670 0.929 . S
H703 C671 0.930 . S
Li704 N721 1.990 . S
Li704 O764 1.956 . S
Li704 O765 1.970 . S
Li704 O766 1.961 . S
Li705 N729 1.990 . S
Li705 O764 1.970 . S
Li705 O765 1.956 . S
Li705 O767 1.961 . S
Li706 N751 1.990 . S
Li706 O764 1.961 . S
Li706 O766 1.956 . S
Li706 O767 1.970 . S
Li707 N757 1.990 . S
Li707 O765 1.961 . S
Li707 O766 1.970 . S
Li707 O767 1.956 . S
C708 C710 1.348 . S
C708 C711 1.356 . S
C708 O764 1.325 . S
N709 C712 1.314 . S
N709 C713 1.279 . S
C710 C708 1.348 . S
C710 C712 1.353 . S
C710 H768 0.929 . S
C711 C708 1.356 . S
C711 C713 1.358 . S
C711 H769 0.930 . S
C712 N709 1.314 . S
C712 C710 1.353 . S
C712 H770 0.930 . S
C713 N709 1.279 . S
C713 C711 1.358 . S
C713 H771 0.930 . S
C714 C717 1.348 . S
C714 C718 1.356 . S
C714 O765 1.325 . S
C715 N716 1.279 . S
C715 C718 1.358 . S
C715 H772 0.930 . S
N716 C715 1.279 . S
N716 C719 1.314 . S
C717 C714 1.348 . S
C717 C719 1.353 . S
C717 H773 0.929 . S
C718 C714 1.356 . S
C718 C715 1.358 . S
C718 H774 0.930 . S
C719 N716 1.314 . S
C719 C717 1.353 . S
C719 H775 0.930 . S
C720 N721 1.314 . S
C720 C725 1.353 . S
C720 H726 0.930 . S
N721 Li704 1.990 . S
N721 C720 1.314 . S
N721 C723 1.279 . S
C722 C723 1.358 . S
C722 C724 1.356 . S
C722 H776 0.930 . S
C723 N721 1.279 . S
C723 C722 1.358 . S
C723 H727 0.930 . S
C724 C722 1.356 . S
C724 C725 1.348 . S
C725 C720 1.353 . S
C725 C724 1.348 . S
C725 H777 0.929 . S
H726 C720 0.930 . S
H727 C723 0.930 . S
C728 N729 1.314 . S
C728 C730 1.353 . S
C728 H734 0.930 . S
N729 Li705 1.990 . S
N729 C728 1.314 . S
N729 C732 1.279 . S
C730 C728 1.353 . S
C730 C733 1.348 . S
C730 H778 0.929 . S
C731 C732 1.358 . S
C731 C733 1.356 . S
C731 H779 0.930 . S
C732 N729 1.279 . S
C732 C731 1.358 . S
C732 H735 0.930 . S
C733 C730 1.348 . S
C733 C731 1.356 . S
H734 C728 0.930 . S
H735 C732 0.930 . S
C736 C738 1.348 . S
C736 C739 1.356 . S
C736 O766 1.325 . S
N737 C740 1.314 1_655 S
N737 C741 1.279 1_655 S
C738 C736 1.348 . S
C738 C740 1.353 . S
C738 H780 0.929 . S
C739 C736 1.356 . S
C739 C741 1.358 . S
C739 H781 0.930 . S
C740 N737 1.314 1_455 S
C740 C738 1.353 . S
C740 H782 0.874 1_455 S
C741 N737 1.279 1_455 S
C741 C739 1.358 . S
C741 H783 0.930 . S
C742 C743 1.348 . S
C742 C744 1.356 . S
C742 O767 1.325 . S
C743 C742 1.348 . S
C743 C745 1.353 . S
C743 H784 0.929 . S
C744 C742 1.356 . S
C744 C746 1.358 . S
C744 H785 0.930 . S
C745 C743 1.353 . S
C745 N747 1.314 . S
C745 H786 0.930 . S
C746 C744 1.358 . S
C746 N747 1.279 . S
C746 H787 0.930 . S
N747 C745 1.314 . S
N747 C746 1.279 . S
C748 C750 1.353 1_455 S
C748 N751 1.314 . S
C748 H754 0.930 . S
C749 N751 1.279 1_655 S
C749 C752 1.358 . S
C749 H755 0.930 . S
C750 C748 1.353 1_655 S
C750 C753 1.348 . S
C750 H788 0.929 . S
N751 Li706 1.990 . S
N751 C748 1.314 . S
N751 C749 1.279 1_455 S
C752 C749 1.358 . S
C752 C753 1.356 . S
C752 H789 0.930 . S
C753 C750 1.348 . S
C753 C752 1.356 . S
H754 C748 0.930 . S
H755 C749 0.930 . S
C756 N757 1.314 . S
C756 C758 1.353 . S
C756 H762 0.930 . S
N757 Li707 1.990 . S
N757 C756 1.314 . S
N757 C760 1.279 . S
C758 C756 1.353 . S
C758 C761 1.348 . S
C758 H790 0.929 . S
C759 C760 1.358 . S
C759 C761 1.356 . S
C759 H791 0.930 . S
C760 N757 1.279 . S
C760 C759 1.358 . S
C760 H763 0.930 . S
C761 C758 1.348 . S
C761 C759 1.356 . S
H762 C756 0.930 . S
H763 C760 0.930 . S
O764 Li704 1.956 . S
O764 Li705 1.970 . S
O764 Li706 1.961 . S
O764 C708 1.325 . S
O765 Li704 1.970 . S
O765 Li705 1.956 . S
O765 Li707 1.961 . S
O765 C714 1.325 . S
O766 Li704 1.961 . S
O766 Li706 1.956 . S
O766 Li707 1.970 . S
O766 C736 1.325 . S
O767 Li705 1.961 . S
O767 Li706 1.970 . S
O767 Li707 1.956 . S
O767 C742 1.325 . S
H768 C710 0.929 . S
H769 C711 0.930 . S
H770 C712 0.930 . S
H771 C713 0.930 . S
H772 C715 0.930 . S
H773 C717 0.929 . S
H774 C718 0.930 . S
H775 C719 0.930 . S
H776 C722 0.930 . S
H777 C725 0.929 . S
H778 C730 0.929 . S
H779 C731 0.930 . S
H780 C738 0.929 . S
H781 C739 0.930 . S
H782 C740 0.874 1_655 S
H783 C741 0.930 . S
H784 C743 0.929 . S
H785 C744 0.930 . S
H786 C745 0.930 . S
H787 C746 0.930 . S
H788 C750 0.929 . S
H789 C752 0.930 . S
H790 C758 0.929 . S
H791 C759 0.930 . S
Li792 N809 1.990 1_565 S
Li792 O852 1.956 . S
Li792 O853 1.970 . S
Li792 O854 1.961 . S
Li793 N817 1.990 . S
Li793 O852 1.970 . S
Li793 O853 1.956 . S
Li793 O855 1.961 . S
Li794 N839 1.990 . S
Li794 O852 1.961 . S
Li794 O854 1.956 . S
Li794 O855 1.970 . S
Li795 N845 1.990 . S
Li795 O853 1.961 . S
Li795 O854 1.970 . S
Li795 O855 1.956 . S
C796 C798 1.348 . S
C796 C799 1.356 . S
C796 O852 1.325 . S
N797 C800 1.314 . S
N797 C801 1.279 . S
C798 C796 1.348 . S
C798 C800 1.353 . S
C798 H856 0.929 . S
C799 C796 1.356 . S
C799 C801 1.358 . S
C799 H857 0.930 . S
C800 N797 1.314 . S
C800 C798 1.353 . S
C800 H858 0.930 . S
C801 N797 1.279 . S
C801 C799 1.358 . S
C801 H859 0.930 . S
C802 C805 1.348 . S
C802 C806 1.356 . S
C802 O853 1.325 . S
C803 N804 1.279 . S
C803 C806 1.358 . S
C803 H860 0.930 . S
N804 C803 1.279 . S
N804 C807 1.314 . S
C805 C802 1.348 . S
C805 C807 1.353 . S
C805 H861 0.929 . S
C806 C802 1.356 . S
C806 C803 1.358 . S
C806 H862 0.930 . S
C807 N804 1.314 . S
C807 C805 1.353 . S
C807 H863 0.930 . S
C808 N809 1.314 . S
C808 C813 1.353 . S
C808 H814 0.930 . S
N809 Li792 1.990 1_545 S
N809 C808 1.314 . S
N809 C811 1.279 . S
C810 C811 1.358 . S
C810 C812 1.356 . S
C810 H864 0.930 . S
C811 N809 1.279 . S
C811 C810 1.358 . S
C811 H815 0.930 1_545 S
C812 C810 1.356 . S
C812 C813 1.348 . S
C813 C808 1.353 . S
C813 C812 1.348 . S
C813 H865 0.929 . S
H814 C808 0.930 . S
H815 C811 0.930 1_565 S
C816 N817 1.314 . S
C816 C818 1.353 . S
C816 H822 0.930 . S
N817 Li793 1.990 . S
N817 C816 1.314 . S
N817 C820 1.279 . S
C818 C816 1.353 . S
C818 C821 1.348 . S
C818 H866 0.929 . S
C819 C820 1.358 . S
C819 C821 1.356 . S
C819 H867 0.930 . S
C820 N817 1.279 . S
C820 C819 1.358 . S
C820 H823 0.930 . S
C821 C818 1.348 . S
C821 C819 1.356 . S
H822 C816 0.930 . S
H823 C820 0.930 . S
C824 C826 1.348 . S
C824 C827 1.356 . S
C824 O854 1.325 . S
N825 C828 1.314 1_545 S
N825 C829 1.279 . S
C826 C824 1.348 . S
C826 C828 1.353 . S
C826 H868 0.929 . S
C827 C824 1.356 . S
C827 C829 1.358 1_565 S
C827 H869 0.930 . S
C828 N825 1.314 1_565 S
C828 C826 1.353 . S
C828 H870 0.930 . S
C829 N825 1.279 . S
C829 C827 1.358 1_545 S
C829 H871 0.930 . S
C830 C831 1.348 . S
C830 C832 1.356 . S
C830 O855 1.325 . S
C831 C830 1.348 . S
C831 C833 1.353 . S
C831 H872 0.929 . S
C832 C830 1.356 . S
C832 C834 1.358 . S
C832 H873 0.930 . S
C833 C831 1.353 . S
C833 N835 1.314 . S
C833 H874 0.930 . S
C834 C832 1.358 . S
C834 N835 1.279 . S
C834 H875 0.930 . S
N835 C833 1.314 . S
N835 C834 1.279 . S
C836 C838 1.353 . S
C836 N839 1.314 . S
C836 H842 0.930 . S
C837 N839 1.279 . S
C837 C840 1.358 . S
C837 H843 0.930 . S
C838 C836 1.353 . S
C838 C841 1.348 . S
C838 H876 0.929 . S
N839 Li794 1.990 . S
N839 C836 1.314 . S
N839 C837 1.279 . S
C840 C837 1.358 . S
C840 C841 1.356 . S
C840 H877 0.930 . S
C841 C838 1.348 . S
C841 C840 1.356 . S
H842 C836 0.930 . S
H843 C837 0.930 . S
C844 N845 1.314 . S
C844 C846 1.353 . S
C844 H850 0.930 . S
N845 Li795 1.990 . S
N845 C844 1.314 . S
N845 C848 1.279 . S
C846 C844 1.353 . S
C846 C849 1.348 . S
C846 H878 0.929 . S
C847 C848 1.358 . S
C847 C849 1.356 . S
C847 H879 0.930 . S
C848 N845 1.279 . S
C848 C847 1.358 . S
C848 H851 0.930 . S
C849 C846 1.348 . S
C849 C847 1.356 . S
H850 C844 0.930 . S
H851 C848 0.930 . S
O852 Li792 1.956 . S
O852 Li793 1.970 . S
O852 Li794 1.961 . S
O852 C796 1.325 . S
O853 Li792 1.970 . S
O853 Li793 1.956 . S
O853 Li795 1.961 . S
O853 C802 1.325 . S
O854 Li792 1.961 . S
O854 Li794 1.956 . S
O854 Li795 1.970 . S
O854 C824 1.325 . S
O855 Li793 1.961 . S
O855 Li794 1.970 . S
O855 Li795 1.956 . S
O855 C830 1.325 . S
H856 C798 0.929 . S
H857 C799 0.930 . S
H858 C800 0.930 . S
H859 C801 0.930 . S
H860 C803 0.930 . S
H861 C805 0.929 . S
H862 C806 0.930 . S
H863 C807 0.930 . S
H864 C810 0.930 . S
H865 C813 0.929 . S
H866 C818 0.929 . S
H867 C819 0.930 . S
H868 C826 0.929 . S
H869 C827 0.930 . S
H870 C828 0.930 . S
H871 C829 0.930 . S
H872 C831 0.929 . S
H873 C832 0.930 . S
H874 C833 0.930 . S
H875 C834 0.930 . S
H876 C838 0.929 . S
H877 C840 0.930 . S
H878 C846 0.929 . S
H879 C847 0.930 . S
Li880 N897 1.990 . S
Li880 O940 1.956 . S
Li880 O941 1.970 . S
Li880 O942 1.961 . S
Li881 N905 1.990 . S
Li881 O940 1.970 . S
Li881 O941 1.956 . S
Li881 O943 1.961 . S
Li882 N927 1.990 . S
Li882 O940 1.961 . S
Li882 O942 1.956 . S
Li882 O943 1.970 . S
Li883 N933 1.990 . S
Li883 O941 1.961 . S
Li883 O942 1.970 . S
Li883 O943 1.956 . S
C884 C886 1.348 . S
C884 C887 1.356 . S
C884 O940 1.325 . S
N885 C888 1.314 . S
N885 C889 1.279 . S
C886 C884 1.348 . S
C886 C888 1.353 . S
C886 H944 0.929 . S
C887 C884 1.356 . S
C887 C889 1.358 . S
C887 H945 0.930 . S
C888 N885 1.314 . S
C888 C886 1.353 . S
C888 H946 0.930 . S
C889 N885 1.279 . S
C889 C887 1.358 . S
C889 H947 0.930 . S
C890 C893 1.348 . S
C890 C894 1.356 . S
C890 O941 1.325 . S
C891 N892 1.279 . S
C891 C894 1.358 . S
C891 H948 0.930 . S
N892 C891 1.279 . S
N892 C895 1.314 . S
C893 C890 1.348 . S
C893 C895 1.353 . S
C893 H949 0.929 . S
C894 C890 1.356 . S
C894 C891 1.358 . S
C894 H950 0.930 . S
C895 N892 1.314 . S
C895 C893 1.353 . S
C895 H951 0.930 . S
C896 N897 1.314 . S
C896 C901 1.353 . S
C896 H902 0.930 . S
N897 Li880 1.990 . S
N897 C896 1.314 . S
N897 C899 1.279 . S
C898 C899 1.358 . S
C898 C900 1.356 . S
C898 H952 0.930 . S
C899 N897 1.279 . S
C899 C898 1.358 . S
C899 H903 0.930 . S
C900 C898 1.356 . S
C900 C901 1.348 . S
C901 C896 1.353 . S
C901 C900 1.348 . S
C901 H953 0.929 . S
H902 C896 0.930 . S
H903 C899 0.930 . S
C904 N905 1.314 1_655 S
C904 C906 1.353 . S
C904 H910 0.930 . S
N905 Li881 1.990 . S
N905 C904 1.314 1_455 S
N905 C908 1.318 . S
C906 C904 1.353 . S
C906 C909 1.348 . S
C906 H954 0.929 . S
C907 C908 1.296 1_655 S
C907 C909 1.356 . S
C907 H955 0.930 . S
C908 N905 1.318 . S
C908 C907 1.296 1_455 S
C908 H911 0.961 . S
C909 C906 1.348 . S
C909 C907 1.356 . S
H910 C904 0.930 . S
H911 C908 0.961 . S
C912 C914 1.348 . S
C912 C915 1.356 . S
C912 O942 1.325 . S
N913 C916 1.314 . S
N913 C917 1.279 . S
C914 C912 1.348 . S
C914 C916 1.353 . S
C914 H956 0.929 . S
C915 C912 1.356 . S
C915 C917 1.358 . S
C915 H957 0.930 . S
C916 N913 1.314 . S
C916 C914 1.353 . S
C916 H958 0.930 . S
C917 N913 1.279 . S
C917 C915 1.358 . S
C917 H959 0.930 . S
C918 C919 1.348 . S
C918 C920 1.356 . S
C918 O943 1.325 . S
C919 C918 1.348 . S
C919 C921 1.353 . S
C919 H960 0.929 . S
C920 C918 1.356 . S
C920 C922 1.358 1_455 S
C920 H961 0.930 . S
C921 C919 1.353 . S
C921 N923 1.314 1_455 S
C921 H962 0.930 . S
C922 C920 1.358 1_655 S
C922 N923 1.279 . S
C922 H963 0.930 . S
N923 C921 1.314 1_655 S
N923 C922 1.279 . S
C924 C926 1.353 . S
C924 N927 1.314 . S
C924 H930 0.930 . S
C925 N927 1.279 . S
C925 C928 1.358 . S
C925 H931 0.930 . S
C926 C924 1.353 . S
C926 C929 1.348 . S
C926 H964 0.929 . S
N927 Li882 1.990 . S
N927 C924 1.314 . S
N927 C925 1.279 . S
C928 C925 1.358 . S
C928 C929 1.356 . S
C928 H965 0.930 . S
C929 C926 1.348 . S
C929 C928 1.356 . S
H930 C924 0.930 . S
H931 C925 0.930 . S
C932 N933 1.314 . S
C932 C934 1.353 . S
C932 H938 0.930 . S
N933 Li883 1.990 . S
N933 C932 1.314 . S
N933 C936 1.279 . S
C934 C932 1.353 . S
C934 C937 1.348 . S
C934 H966 0.929 . S
C935 C936 1.358 . S
C935 C937 1.356 . S
C935 H967 0.930 . S
C936 N933 1.279 . S
C936 C935 1.358 . S
C936 H939 0.930 . S
C937 C934 1.348 . S
C937 C935 1.356 . S
H938 C932 0.930 . S
H939 C936 0.930 . S
O940 Li880 1.956 . S
O940 Li881 1.970 . S
O940 Li882 1.961 . S
O940 C884 1.325 . S
O941 Li880 1.970 . S
O941 Li881 1.956 . S
O941 Li883 1.961 . S
O941 C890 1.325 . S
O942 Li880 1.961 . S
O942 Li882 1.956 . S
O942 Li883 1.970 . S
O942 C912 1.325 . S
O943 Li881 1.961 . S
O943 Li882 1.970 . S
O943 Li883 1.956 . S
O943 C918 1.325 . S
H944 C886 0.929 . S
H945 C887 0.930 . S
H946 C888 0.930 . S
H947 C889 0.930 . S
H948 C891 0.930 . S
H949 C893 0.929 . S
H950 C894 0.930 . S
H951 C895 0.930 . S
H952 C898 0.930 . S
H953 C901 0.929 . S
H954 C906 0.929 . S
H955 C907 0.930 . S
H956 C914 0.929 . S
H957 C915 0.930 . S
H958 C916 0.930 . S
H959 C917 0.930 . S
H960 C919 0.929 . S
H961 C920 0.930 . S
H962 C921 0.930 . S
H963 C922 0.930 . S
H964 C926 0.929 . S
H965 C928 0.930 . S
H966 C934 0.929 . S
H967 C935 0.930 . S
Li968 N985 1.990 . S
Li968 O1028 1.956 . S
Li968 O1029 1.970 . S
Li968 O1030 1.961 . S
Li969 N993 1.990 . S
Li969 O1028 1.970 . S
Li969 O1029 1.956 . S
Li969 O1031 1.961 . S
Li970 N1015 1.990 . S
Li970 O1028 1.961 . S
Li970 O1030 1.956 . S
Li970 O1031 1.970 . S
Li971 N1021 1.990 . S
Li971 O1029 1.961 . S
Li971 O1030 1.970 . S
Li971 O1031 1.956 . S
C972 C974 1.348 . S
C972 C975 1.356 . S
C972 O1028 1.325 . S
N973 C976 1.314 . S
N973 C977 1.279 . S
C974 C972 1.348 . S
C974 C976 1.353 . S
C974 H1032 0.929 . S
C975 C972 1.356 . S
C975 C977 1.358 . S
C975 H1033 0.930 . S
C976 N973 1.314 . S
C976 C974 1.353 . S
C976 H1034 0.930 . S
C977 N973 1.279 . S
C977 C975 1.358 . S
C977 H1035 0.930 . S
C978 C981 1.348 . S
C978 C982 1.356 . S
C978 O1029 1.325 . S
C979 N980 1.279 . S
C979 C982 1.358 . S
C979 H1036 0.930 . S
N980 C979 1.279 . S
N980 C983 1.314 . S
C981 C978 1.348 . S
C981 C983 1.353 . S
C981 H1037 0.929 . S
C982 C978 1.356 . S
C982 C979 1.358 . S
C982 H1038 0.930 . S
C983 N980 1.314 . S
C983 C981 1.353 . S
C983 H1039 0.930 . S
C984 N985 1.314 . S
C984 C989 1.353 . S
C984 H990 0.930 . S
N985 Li968 1.990 . S
N985 C984 1.314 . S
N985 C987 1.279 . S
C986 C987 1.358 . S
C986 C988 1.356 . S
C986 H1040 0.930 . S
C987 N985 1.279 . S
C987 C986 1.358 . S
C987 H991 0.930 . S
C988 C986 1.356 . S
C988 C989 1.348 . S
C989 C984 1.353 . S
C989 C988 1.348 . S
C989 H1041 0.929 . S
H990 C984 0.930 . S
H991 C987 0.930 . S
C992 N993 1.314 . S
C992 C994 1.353 . S
C992 H998 0.930 . S
N993 Li969 1.990 . S
N993 C992 1.314 . S
N993 C996 1.279 . S
C994 C992 1.353 . S
C994 C997 1.348 . S
C994 H1042 0.929 . S
C995 C996 1.358 . S
C995 C997 1.356 . S
C995 H1043 0.930 . S
C996 N993 1.279 . S
C996 C995 1.358 . S
C996 H999 0.930 . S
C997 C994 1.348 . S
C997 C995 1.356 . S
H998 C992 0.930 . S
H999 C996 0.930 . S
C1000 C1002 1.348 . S
C1000 C1003 1.356 . S
C1000 O1030 1.325 . S
N1001 C1004 1.314 . S
N1001 C1005 1.279 . S
C1002 C1000 1.348 . S
C1002 C1004 1.353 . S
C1002 H1044 0.929 . S
C1003 C1000 1.356 . S
C1003 C1005 1.358 . S
C1003 H1045 0.930 . S
C1004 N1001 1.314 . S
C1004 C1002 1.353 . S
C1004 H1046 0.930 . S
C1005 N1001 1.279 . S
C1005 C1003 1.358 . S
C1005 H1047 0.930 . S
C1006 C1007 1.348 . S
C1006 C1008 1.356 . S
C1006 O1031 1.325 . S
C1007 C1006 1.348 . S
C1007 C1009 1.353 . S
C1007 H1048 0.929 . S
C1008 C1006 1.356 . S
C1008 C1010 1.358 . S
C1008 H1049 0.930 . S
C1009 C1007 1.353 . S
C1009 N1011 1.314 . S
C1009 H1050 0.930 . S
C1010 C1008 1.358 . S
C1010 N1011 1.279 . S
C1010 H1051 0.930 . S
N1011 C1009 1.314 . S
N1011 C1010 1.279 . S
C1012 C1014 1.353 . S
C1012 N1015 1.314 . S
C1012 H1018 0.930 . S
C1013 N1015 1.279 . S
C1013 C1016 1.358 . S
C1013 H1019 0.930 . S
C1014 C1012 1.353 . S
C1014 C1017 1.348 . S
C1014 H1052 0.929 . S
N1015 Li970 1.990 . S
N1015 C1012 1.314 . S
N1015 C1013 1.279 . S
C1016 C1013 1.358 . S
C1016 C1017 1.356 . S
C1016 H1053 0.930 . S
C1017 C1014 1.348 . S
C1017 C1016 1.356 . S
H1018 C1012 0.930 . S
H1019 C1013 0.930 . S
C1020 N1021 1.314 . S
C1020 C1022 1.353 . S
C1020 H1026 0.930 . S
N1021 Li971 1.990 . S
N1021 C1020 1.314 . S
N1021 C1024 1.279 . S
C1022 C1020 1.353 . S
C1022 C1025 1.348 . S
C1022 H1054 0.929 . S
C1023 C1024 1.358 . S
C1023 C1025 1.356 . S
C1023 H1055 0.930 . S
C1024 N1021 1.279 . S
C1024 C1023 1.358 . S
C1024 H1027 0.930 . S
C1025 C1022 1.348 . S
C1025 C1023 1.356 . S
H1026 C1020 0.930 . S
H1027 C1024 0.930 . S
O1028 Li968 1.956 . S
O1028 Li969 1.970 . S
O1028 Li970 1.961 . S
O1028 C972 1.325 . S
O1029 Li968 1.970 . S
O1029 Li969 1.956 . S
O1029 Li971 1.961 . S
O1029 C978 1.325 . S
O1030 Li968 1.961 . S
O1030 Li970 1.956 . S
O1030 Li971 1.970 . S
O1030 C1000 1.325 . S
O1031 Li969 1.961 . S
O1031 Li970 1.970 . S
O1031 Li971 1.956 . S
O1031 C1006 1.325 . S
H1032 C974 0.929 . S
H1033 C975 0.930 . S
H1034 C976 0.930 . S
H1035 C977 0.930 . S
H1036 C979 0.930 . S
H1037 C981 0.929 . S
H1038 C982 0.930 . S
H1039 C983 0.930 . S
H1040 C986 0.930 . S
H1041 C989 0.929 . S
H1042 C994 0.929 . S
H1043 C995 0.930 . S
H1044 C1002 0.929 . S
H1045 C1003 0.930 . S
H1046 C1004 0.930 . S
H1047 C1005 0.930 . S
H1048 C1007 0.929 . S
H1049 C1008 0.930 . S
H1050 C1009 0.930 . S
H1051 C1010 0.930 . S
H1052 C1014 0.929 . S
H1053 C1016 0.930 . S
H1054 C1022 0.929 . S
H1055 C1023 0.930 . S
Li1056 N1073 1.972 1_545 S
Li1056 O1116 1.956 . S
Li1056 O1117 1.970 . S
Li1056 O1118 1.961 . S
Li1057 N1081 1.990 . S
Li1057 O1116 1.970 . S
Li1057 O1117 1.956 . S
Li1057 O1119 1.961 . S
Li1058 N1103 1.990 . S
Li1058 O1116 1.961 . S
Li1058 O1118 1.956 . S
Li1058 O1119 1.970 . S
Li1059 N1109 1.990 . S
Li1059 O1117 1.961 . S
Li1059 O1118 1.970 . S
Li1059 O1119 1.956 . S
C1060 C1062 1.348 . S
C1060 C1063 1.356 . S
C1060 O1116 1.325 . S
N1061 C1064 1.314 . S
N1061 C1065 1.279 . S
C1062 C1060 1.348 . S
C1062 C1064 1.353 1_545 S
C1062 H1120 0.929 . S
C1063 C1060 1.356 . S
C1063 C1065 1.358 1_545 S
C1063 H1121 0.930 . S
C1064 N1061 1.314 . S
C1064 C1062 1.353 1_565 S
C1064 H1122 0.930 . S
C1065 N1061 1.279 . S
C1065 C1063 1.358 1_565 S
C1065 H1123 0.930 . S
C1066 C1069 1.348 . S
C1066 C1070 1.356 . S
C1066 O1117 1.325 . S
C1067 N1068 1.279 . S
C1067 C1070 1.358 . S
C1067 H1124 0.930 . S
N1068 C1067 1.279 . S
N1068 C1071 1.314 . S
C1069 C1066 1.348 . S
C1069 C1071 1.353 . S
C1069 H1125 0.929 . S
C1070 C1066 1.356 . S
C1070 C1067 1.358 . S
C1070 H1126 0.930 . S
C1071 N1068 1.314 . S
C1071 C1069 1.353 . S
C1071 H1127 0.930 1_545 S
C1072 N1073 1.310 . S
C1072 C1077 1.353 . S
C1072 H1078 0.930 1_565 S
N1073 Li1056 1.972 1_565 S
N1073 C1072 1.310 . S
N1073 C1075 1.306 . S
C1074 C1075 1.358 . S
C1074 C1076 1.356 . S
C1074 H1128 0.930 . S
C1075 N1073 1.306 . S
C1075 C1074 1.358 . S
C1075 H1079 0.930 . S
C1076 C1074 1.356 . S
C1076 C1077 1.348 . S
C1077 C1072 1.353 . S
C1077 C1076 1.348 . S
C1077 H1129 0.929 . S
H1078 C1072 0.930 1_545 S
H1079 C1075 0.930 . S
C1080 N1081 1.314 . S
C1080 C1082 1.353 . S
C1080 H1086 0.930 . S
N1081 Li1057 1.990 . S
N1081 C1080 1.314 . S
N1081 C1084 1.279 . S
C1082 C1080 1.353 . S
C1082 C1085 1.348 . S
C1082 H1130 0.929 . S
C1083 C1084 1.358 . S
C1083 C1085 1.356 . S
C1083 H1131 0.930 . S
C1084 N1081 1.279 . S
C1084 C1083 1.358 . S
C1084 H1087 0.930 . S
C1085 C1082 1.348 . S
C1085 C1083 1.356 . S
H1086 C1080 0.930 . S
H1087 C1084 0.930 . S
C1088 C1090 1.348 . S
C1088 C1091 1.356 . S
C1088 O1118 1.325 . S
N1089 C1092 1.314 . S
N1089 C1093 1.279 . S
C1090 C1088 1.348 . S
C1090 C1092 1.353 . S
C1090 H1132 0.929 . S
C1091 C1088 1.356 . S
C1091 C1093 1.358 . S
C1091 H1133 0.930 . S
C1092 N1089 1.314 . S
C1092 C1090 1.353 . S
C1092 H1134 0.930 . S
C1093 N1089 1.279 . S
C1093 C1091 1.358 . S
C1093 H1135 0.930 . S
C1094 C1095 1.348 . S
C1094 C1096 1.356 . S
C1094 O1119 1.325 . S
C1095 C1094 1.348 . S
C1095 C1097 1.353 . S
C1095 H1136 0.929 . S
C1096 C1094 1.356 . S
C1096 C1098 1.358 . S
C1096 H1137 0.930 . S
C1097 C1095 1.353 . S
C1097 N1099 1.314 . S
C1097 H1138 0.930 . S
C1098 C1096 1.358 . S
C1098 N1099 1.279 . S
C1098 H1139 0.930 . S
N1099 C1097 1.314 . S
N1099 C1098 1.279 . S
C1100 C1102 1.353 . S
C1100 N1103 1.314 . S
C1100 H1106 0.930 . S
C1101 N1103 1.279 . S
C1101 C1104 1.358 . S
C1101 H1107 0.930 . S
C1102 C1100 1.353 . S
C1102 C1105 1.348 . S
C1102 H1140 0.929 . S
N1103 Li1058 1.990 . S
N1103 C1100 1.314 . S
N1103 C1101 1.279 . S
C1104 C1101 1.358 . S
C1104 C1105 1.356 . S
C1104 H1141 0.930 . S
C1105 C1102 1.348 . S
C1105 C1104 1.356 . S
H1106 C1100 0.930 . S
H1107 C1101 0.930 . S
C1108 N1109 1.314 . S
C1108 C1110 1.353 . S
C1108 H1114 0.930 . S
N1109 Li1059 1.990 . S
N1109 C1108 1.314 . S
N1109 C1112 1.279 . S
C1110 C1108 1.353 . S
C1110 C1113 1.348 . S
C1110 H1142 0.929 . S
C1111 C1112 1.358 . S
C1111 C1113 1.356 . S
C1111 H1143 0.930 . S
C1112 N1109 1.279 . S
C1112 C1111 1.358 . S
C1112 H1115 0.930 . S
C1113 C1110 1.348 . S
C1113 C1111 1.356 . S
H1114 C1108 0.930 . S
H1115 C1112 0.930 . S
O1116 Li1056 1.956 . S
O1116 Li1057 1.970 . S
O1116 Li1058 1.961 . S
O1116 C1060 1.325 . S
O1117 Li1056 1.970 . S
O1117 Li1057 1.956 . S
O1117 Li1059 1.961 . S
O1117 C1066 1.325 . S
O1118 Li1056 1.961 . S
O1118 Li1058 1.956 . S
O1118 Li1059 1.970 . S
O1118 C1088 1.325 . S
O1119 Li1057 1.961 . S
O1119 Li1058 1.970 . S
O1119 Li1059 1.956 . S
O1119 C1094 1.325 . S
H1120 C1062 0.929 . S
H1121 C1063 0.930 . S
H1122 C1064 0.930 . S
H1123 C1065 0.930 . S
H1124 C1067 0.930 . S
H1125 C1069 0.929 . S
H1126 C1070 0.930 . S
H1127 C1071 0.930 1_565 S
H1128 C1074 0.930 . S
H1129 C1077 0.929 . S
H1130 C1082 0.929 . S
H1131 C1083 0.930 . S
H1132 C1090 0.929 . S
H1133 C1091 0.930 . S
H1134 C1092 0.930 . S
H1135 C1093 0.930 . S
H1136 C1095 0.929 . S
H1137 C1096 0.930 . S
H1138 C1097 0.930 . S
H1139 C1098 0.930 . S
H1140 C1102 0.929 . S
H1141 C1104 0.930 . S
H1142 C1110 0.929 . S
H1143 C1111 0.930 . S
Li1144 N1161 1.940 1_655 S
Li1144 O1204 1.956 . S
Li1144 O1205 1.970 . S
Li1144 O1206 1.961 . S
Li1145 N1169 1.990 . S
Li1145 O1204 1.970 . S
Li1145 O1205 1.956 . S
Li1145 O1207 1.961 . S
Li1146 N1191 1.990 . S
Li1146 O1204 1.961 . S
Li1146 O1206 1.956 . S
Li1146 O1207 1.970 . S
Li1147 N1197 1.990 . S
Li1147 O1205 1.961 . S
Li1147 O1206 1.970 . S
Li1147 O1207 1.956 . S
C1148 C1150 1.348 . S
C1148 C1151 1.356 . S
C1148 O1204 1.325 . S
N1149 C1152 1.314 . S
N1149 C1153 1.279 . S
C1150 C1148 1.348 . S
C1150 C1152 1.353 1_655 S
C1150 H1208 0.929 . S
C1151 C1148 1.356 . S
C1151 C1153 1.358 1_655 S
C1151 H1209 0.930 . S
C1152 N1149 1.314 . S
C1152 C1150 1.353 1_455 S
C1152 H1210 0.930 . S
C1153 N1149 1.279 . S
C1153 C1151 1.358 1_455 S
C1153 H1211 0.930 . S
C1154 C1157 1.348 . S
C1154 C1158 1.356 . S
C1154 O1205 1.325 . S
C1155 N1156 1.279 . S
C1155 C1158 1.358 . S
C1155 H1212 0.930 . S
N1156 C1155 1.279 . S
N1156 C1159 1.314 . S
C1157 C1154 1.348 . S
C1157 C1159 1.353 . S
C1157 H1213 0.929 . S
C1158 C1154 1.356 . S
C1158 C1155 1.358 . S
C1158 H1214 0.930 . S
C1159 N1156 1.314 . S
C1159 C1157 1.353 . S
C1159 H1215 0.930 1_655 S
C1160 N1161 1.335 . S
C1160 C1165 1.353 . S
C1160 H1166 0.930 1_455 S
N1161 Li1144 1.940 1_455 S
N1161 C1160 1.335 . S
N1161 C1163 1.315 . S
C1162 C1163 1.358 . S
C1162 C1164 1.356 . S
C1162 H1216 0.930 . S
C1163 N1161 1.315 . S
C1163 C1162 1.358 . S
C1163 H1167 0.930 . S
C1164 C1162 1.356 . S
C1164 C1165 1.348 . S
C1165 C1160 1.353 . S
C1165 C1164 1.348 . S
C1165 H1217 0.929 . S
H1166 C1160 0.930 1_655 S
H1167 C1163 0.930 . S
C1168 N1169 1.314 . S
C1168 C1170 1.353 . S
C1168 H1174 0.930 . S
N1169 Li1145 1.990 . S
N1169 C1168 1.314 . S
N1169 C1172 1.279 . S
C1170 C1168 1.353 . S
C1170 C1173 1.348 . S
C1170 H1218 0.929 . S
C1171 C1172 1.358 . S
C1171 C1173 1.356 . S
C1171 H1219 0.930 . S
C1172 N1169 1.279 . S
C1172 C1171 1.358 . S
C1172 H1175 0.930 . S
C1173 C1170 1.348 . S
C1173 C1171 1.356 . S
H1174 C1168 0.930 . S
H1175 C1172 0.930 . S
C1176 C1178 1.348 . S
C1176 C1179 1.356 . S
C1176 O1206 1.325 . S
N1177 C1180 1.314 . S
N1177 C1181 1.279 . S
C1178 C1176 1.348 . S
C1178 C1180 1.353 . S
C1178 H1220 0.929 . S
C1179 C1176 1.356 . S
C1179 C1181 1.358 . S
C1179 H1221 0.930 . S
C1180 N1177 1.314 . S
C1180 C1178 1.353 . S
C1180 H1222 0.930 . S
C1181 N1177 1.279 . S
C1181 C1179 1.358 . S
C1181 H1223 0.930 . S
C1182 C1183 1.348 . S
C1182 C1184 1.356 . S
C1182 O1207 1.325 . S
C1183 C1182 1.348 . S
C1183 C1185 1.353 . S
C1183 H1224 0.929 . S
C1184 C1182 1.356 . S
C1184 C1186 1.358 . S
C1184 H1225 0.930 . S
C1185 C1183 1.353 . S
C1185 N1187 1.314 . S
C1185 H1226 0.930 . S
C1186 C1184 1.358 . S
C1186 N1187 1.279 . S
C1186 H1227 0.930 . S
N1187 C1185 1.314 . S
N1187 C1186 1.279 . S
C1188 C1190 1.353 . S
C1188 N1191 1.314 . S
C1188 H1194 0.930 . S
C1189 N1191 1.279 . S
C1189 C1192 1.358 . S
C1189 H1195 0.930 . S
C1190 C1188 1.353 . S
C1190 C1193 1.348 . S
C1190 H1228 0.929 . S
N1191 Li1146 1.990 . S
N1191 C1188 1.314 . S
N1191 C1189 1.279 . S
C1192 C1189 1.358 . S
C1192 C1193 1.356 . S
C1192 H1229 0.930 . S
C1193 C1190 1.348 . S
C1193 C1192 1.356 . S
H1194 C1188 0.930 . S
H1195 C1189 0.930 . S
C1196 N1197 1.314 . S
C1196 C1198 1.353 . S
C1196 H1202 0.930 . S
N1197 Li1147 1.990 . S
N1197 C1196 1.314 . S
N1197 C1200 1.279 . S
C1198 C1196 1.353 . S
C1198 C1201 1.348 . S
C1198 H1230 0.929 . S
C1199 C1200 1.358 . S
C1199 C1201 1.356 . S
C1199 H1231 0.930 . S
C1200 N1197 1.279 . S
C1200 C1199 1.358 . S
C1200 H1203 0.930 . S
C1201 C1198 1.348 . S
C1201 C1199 1.356 . S
H1202 C1196 0.930 . S
H1203 C1200 0.930 . S
O1204 Li1144 1.956 . S
O1204 Li1145 1.970 . S
O1204 Li1146 1.961 . S
O1204 C1148 1.325 . S
O1205 Li1144 1.970 . S
O1205 Li1145 1.956 . S
O1205 Li1147 1.961 . S
O1205 C1154 1.325 . S
O1206 Li1144 1.961 . S
O1206 Li1146 1.956 . S
O1206 Li1147 1.970 . S
O1206 C1176 1.325 . S
O1207 Li1145 1.961 . S
O1207 Li1146 1.970 . S
O1207 Li1147 1.956 . S
O1207 C1182 1.325 . S
H1208 C1150 0.929 . S
H1209 C1151 0.930 . S
H1210 C1152 0.930 . S
H1211 C1153 0.930 . S
H1212 C1155 0.930 . S
H1213 C1157 0.929 . S
H1214 C1158 0.930 . S
H1215 C1159 0.930 1_455 S
H1216 C1162 0.930 . S
H1217 C1165 0.929 . S
H1218 C1170 0.929 . S
H1219 C1171 0.930 . S
H1220 C1178 0.929 . S
H1221 C1179 0.930 . S
H1222 C1180 0.930 . S
H1223 C1181 0.930 . S
H1224 C1183 0.929 . S
H1225 C1184 0.930 . S
H1226 C1185 0.930 . S
H1227 C1186 0.930 . S
H1228 C1190 0.929 . S
H1229 C1192 0.930 . S
H1230 C1198 0.929 . S
H1231 C1199 0.930 . S
Li1232 N1249 1.990 . S
Li1232 O1292 1.956 . S
Li1232 O1293 1.970 . S
Li1232 O1294 1.961 . S
Li1233 N1257 1.990 . S
Li1233 O1292 1.970 . S
Li1233 O1293 1.956 . S
Li1233 O1295 1.961 . S
Li1234 N1279 1.990 . S
Li1234 O1292 1.961 . S
Li1234 O1294 1.956 . S
Li1234 O1295 1.970 . S
Li1235 N1285 1.990 . S
Li1235 O1293 1.961 . S
Li1235 O1294 1.970 . S
Li1235 O1295 1.956 . S
C1236 C1238 1.348 . S
C1236 C1239 1.356 . S
C1236 O1292 1.325 . S
N1237 C1240 1.314 . S
N1237 C1241 1.279 . S
C1238 C1236 1.348 . S
C1238 C1240 1.353 . S
C1238 H1296 0.929 . S
C1239 C1236 1.356 . S
C1239 C1241 1.358 . S
C1239 H1297 0.930 . S
C1240 N1237 1.314 . S
C1240 C1238 1.353 . S
C1240 H1298 0.930 . S
C1241 N1237 1.279 . S
C1241 C1239 1.358 . S
C1241 H1299 0.930 . S
C1242 C1245 1.348 . S
C1242 C1246 1.356 . S
C1242 O1293 1.325 . S
C1243 N1244 1.279 . S
C1243 C1246 1.358 . S
C1243 H1300 0.930 . S
N1244 C1243 1.279 . S
N1244 C1247 1.314 . S
C1245 C1242 1.348 . S
C1245 C1247 1.353 . S
C1245 H1301 0.929 . S
C1246 C1242 1.356 . S
C1246 C1243 1.358 . S
C1246 H1302 0.930 . S
C1247 N1244 1.314 . S
C1247 C1245 1.353 . S
C1247 H1303 0.930 . S
C1248 N1249 1.314 . S
C1248 C1253 1.353 . S
C1248 H1254 0.930 . S
N1249 Li1232 1.990 . S
N1249 C1248 1.314 . S
N1249 C1251 1.279 . S
C1250 C1251 1.358 . S
C1250 C1252 1.356 . S
C1250 H1304 0.930 . S
C1251 N1249 1.279 . S
C1251 C1250 1.358 . S
C1251 H1255 0.930 . S
C1252 C1250 1.356 . S
C1252 C1253 1.348 . S
C1253 C1248 1.353 . S
C1253 C1252 1.348 . S
C1253 H1305 0.929 . S
H1254 C1248 0.930 . S
H1255 C1251 0.930 . S
C1256 N1257 1.314 . S
C1256 C1258 1.353 . S
C1256 H1262 0.930 . S
N1257 Li1233 1.990 . S
N1257 C1256 1.314 . S
N1257 C1260 1.279 . S
C1258 C1256 1.353 . S
C1258 C1261 1.348 . S
C1258 H1306 0.929 . S
C1259 C1260 1.358 . S
C1259 C1261 1.356 . S
C1259 H1307 0.930 . S
C1260 N1257 1.279 . S
C1260 C1259 1.358 . S
C1260 H1263 0.930 . S
C1261 C1258 1.348 . S
C1261 C1259 1.356 . S
H1262 C1256 0.930 . S
H1263 C1260 0.930 . S
C1264 C1266 1.348 . S
C1264 C1267 1.356 . S
C1264 O1294 1.325 . S
N1265 C1268 1.314 . S
N1265 C1269 1.279 . S
C1266 C1264 1.348 . S
C1266 C1268 1.353 . S
C1266 H1308 0.929 . S
C1267 C1264 1.356 . S
C1267 C1269 1.358 . S
C1267 H1309 0.930 . S
C1268 N1265 1.314 . S
C1268 C1266 1.353 . S
C1268 H1310 0.930 . S
C1269 N1265 1.279 . S
C1269 C1267 1.358 . S
C1269 H1311 0.930 . S
C1270 C1271 1.348 . S
C1270 C1272 1.356 . S
C1270 O1295 1.325 . S
C1271 C1270 1.348 . S
C1271 C1273 1.353 . S
C1271 H1312 0.929 . S
C1272 C1270 1.356 . S
C1272 C1274 1.358 . S
C1272 H1313 0.930 . S
C1273 C1271 1.353 . S
C1273 N1275 1.314 . S
C1273 H1314 0.930 . S
C1274 C1272 1.358 . S
C1274 N1275 1.279 . S
C1274 H1315 0.930 . S
N1275 C1273 1.314 . S
N1275 C1274 1.279 . S
C1276 C1278 1.353 . S
C1276 N1279 1.314 . S
C1276 H1282 0.930 . S
C1277 N1279 1.279 . S
C1277 C1280 1.358 . S
C1277 H1283 0.930 . S
C1278 C1276 1.353 . S
C1278 C1281 1.348 . S
C1278 H1316 0.929 . S
N1279 Li1234 1.990 . S
N1279 C1276 1.314 . S
N1279 C1277 1.279 . S
C1280 C1277 1.358 . S
C1280 C1281 1.356 . S
C1280 H1317 0.930 . S
C1281 C1278 1.348 . S
C1281 C1280 1.356 . S
H1282 C1276 0.930 . S
H1283 C1277 0.930 . S
C1284 N1285 1.314 . S
C1284 C1286 1.353 . S
C1284 H1290 0.930 . S
N1285 Li1235 1.990 . S
N1285 C1284 1.314 . S
N1285 C1288 1.279 . S
C1286 C1284 1.353 . S
C1286 C1289 1.348 . S
C1286 H1318 0.929 . S
C1287 C1288 1.358 . S
C1287 C1289 1.356 . S
C1287 H1319 0.930 . S
C1288 N1285 1.279 . S
C1288 C1287 1.358 . S
C1288 H1291 0.930 . S
C1289 C1286 1.348 . S
C1289 C1287 1.356 . S
H1290 C1284 0.930 . S
H1291 C1288 0.930 . S
O1292 Li1232 1.956 . S
O1292 Li1233 1.970 . S
O1292 Li1234 1.961 . S
O1292 C1236 1.325 . S
O1293 Li1232 1.970 . S
O1293 Li1233 1.956 . S
O1293 Li1235 1.961 . S
O1293 C1242 1.325 . S
O1294 Li1232 1.961 . S
O1294 Li1234 1.956 . S
O1294 Li1235 1.970 . S
O1294 C1264 1.325 . S
O1295 Li1233 1.961 . S
O1295 Li1234 1.970 . S
O1295 Li1235 1.956 . S
O1295 C1270 1.325 . S
H1296 C1238 0.929 . S
H1297 C1239 0.930 . S
H1298 C1240 0.930 . S
H1299 C1241 0.930 . S
H1300 C1243 0.930 . S
H1301 C1245 0.929 . S
H1302 C1246 0.930 . S
H1303 C1247 0.930 . S
H1304 C1250 0.930 . S
H1305 C1253 0.929 . S
H1306 C1258 0.929 . S
H1307 C1259 0.930 . S
H1308 C1266 0.929 . S
H1309 C1267 0.930 . S
H1310 C1268 0.930 . S
H1311 C1269 0.930 . S
H1312 C1271 0.929 . S
H1313 C1272 0.930 . S
H1314 C1273 0.930 . S
H1315 C1274 0.930 . S
H1316 C1278 0.929 . S
H1317 C1280 0.930 . S
H1318 C1286 0.929 . S
H1319 C1287 0.930 . S
Li1320 N1337 1.990 . S
Li1320 O1380 1.956 . S
Li1320 O1381 1.970 . S
Li1320 O1382 1.961 . S
Li1321 N1345 1.990 . S
Li1321 O1380 1.970 . S
Li1321 O1381 1.956 . S
Li1321 O1383 1.961 . S
Li1322 N1367 1.990 . S
Li1322 O1380 1.961 . S
Li1322 O1382 1.956 . S
Li1322 O1383 1.970 . S
Li1323 N1373 1.990 . S
Li1323 O1381 1.961 . S
Li1323 O1382 1.970 . S
Li1323 O1383 1.956 . S
C1324 C1326 1.348 . S
C1324 C1327 1.356 . S
C1324 O1380 1.325 . S
N1325 C1328 1.314 . S
N1325 C1329 1.279 . S
C1326 C1324 1.348 . S
C1326 C1328 1.353 . S
C1326 H1384 0.929 . S
C1327 C1324 1.356 . S
C1327 C1329 1.358 . S
C1327 H1385 0.930 . S
C1328 N1325 1.314 . S
C1328 C1326 1.353 . S
C1328 H1386 0.930 . S
C1329 N1325 1.279 . S
C1329 C1327 1.358 . S
C1329 H1387 0.930 . S
C1330 C1333 1.348 . S
C1330 C1334 1.356 . S
C1330 O1381 1.325 . S
C1331 N1332 1.279 . S
C1331 C1334 1.358 . S
C1331 H1388 0.930 . S
N1332 C1331 1.279 . S
N1332 C1335 1.314 . S
C1333 C1330 1.348 . S
C1333 C1335 1.353 . S
C1333 H1389 0.929 . S
C1334 C1330 1.356 . S
C1334 C1331 1.358 . S
C1334 H1390 0.930 . S
C1335 N1332 1.314 . S
C1335 C1333 1.353 . S
C1335 H1391 0.930 . S
C1336 N1337 1.314 . S
C1336 C1341 1.353 . S
C1336 H1342 0.930 . S
N1337 Li1320 1.990 . S
N1337 C1336 1.314 . S
N1337 C1339 1.279 . S
C1338 C1339 1.358 . S
C1338 C1340 1.356 . S
C1338 H1392 0.930 . S
C1339 N1337 1.279 . S
C1339 C1338 1.358 . S
C1339 H1343 0.930 . S
C1340 C1338 1.356 . S
C1340 C1341 1.348 . S
C1341 C1336 1.353 . S
C1341 C1340 1.348 . S
C1341 H1393 0.929 . S
H1342 C1336 0.930 . S
H1343 C1339 0.930 . S
C1344 N1345 1.314 . S
C1344 C1346 1.353 . S
C1344 H1350 0.930 . S
N1345 Li1321 1.990 . S
N1345 C1344 1.314 . S
N1345 C1348 1.279 . S
C1346 C1344 1.353 . S
C1346 C1349 1.348 . S
C1346 H1394 0.929 . S
C1347 C1348 1.358 . S
C1347 C1349 1.356 . S
C1347 H1395 0.930 . S
C1348 N1345 1.279 . S
C1348 C1347 1.358 . S
C1348 H1351 0.930 . S
C1349 C1346 1.348 . S
C1349 C1347 1.356 . S
H1350 C1344 0.930 . S
H1351 C1348 0.930 . S
C1352 C1354 1.348 . S
C1352 C1355 1.356 . S
C1352 O1382 1.325 . S
N1353 C1356 1.314 . S
N1353 C1357 1.279 . S
C1354 C1352 1.348 . S
C1354 C1356 1.353 . S
C1354 H1396 0.929 . S
C1355 C1352 1.356 . S
C1355 C1357 1.358 . S
C1355 H1397 0.930 . S
C1356 N1353 1.314 . S
C1356 C1354 1.353 . S
C1356 H1398 0.930 . S
C1357 N1353 1.279 . S
C1357 C1355 1.358 . S
C1357 H1399 0.930 . S
C1358 C1359 1.348 . S
C1358 C1360 1.356 . S
C1358 O1383 1.325 . S
C1359 C1358 1.348 . S
C1359 C1361 1.353 . S
C1359 H1400 0.929 . S
C1360 C1358 1.356 . S
C1360 C1362 1.358 . S
C1360 H1401 0.930 . S
C1361 C1359 1.353 . S
C1361 N1363 1.314 . S
C1361 H1402 0.930 . S
C1362 C1360 1.358 . S
C1362 N1363 1.279 . S
C1362 H1403 0.930 . S
N1363 C1361 1.314 . S
N1363 C1362 1.279 . S
C1364 C1366 1.353 . S
C1364 N1367 1.314 . S
C1364 H1370 0.930 . S
C1365 N1367 1.279 . S
C1365 C1368 1.358 . S
C1365 H1371 0.930 . S
C1366 C1364 1.353 . S
C1366 C1369 1.348 . S
C1366 H1404 0.929 . S
N1367 Li1322 1.990 . S
N1367 C1364 1.314 . S
N1367 C1365 1.279 . S
C1368 C1365 1.358 . S
C1368 C1369 1.356 . S
C1368 H1405 0.930 . S
C1369 C1366 1.348 . S
C1369 C1368 1.356 . S
H1370 C1364 0.930 . S
H1371 C1365 0.930 . S
C1372 N1373 1.314 . S
C1372 C1374 1.353 . S
C1372 H1378 0.930 . S
N1373 Li1323 1.990 . S
N1373 C1372 1.314 . S
N1373 C1376 1.279 . S
C1374 C1372 1.353 . S
C1374 C1377 1.348 . S
C1374 H1406 0.929 . S
C1375 C1376 1.358 . S
C1375 C1377 1.356 . S
C1375 H1407 0.930 . S
C1376 N1373 1.279 . S
C1376 C1375 1.358 . S
C1376 H1379 0.930 . S
C1377 C1374 1.348 . S
C1377 C1375 1.356 . S
H1378 C1372 0.930 . S
H1379 C1376 0.930 . S
O1380 Li1320 1.956 . S
O1380 Li1321 1.970 . S
O1380 Li1322 1.961 . S
O1380 C1324 1.325 . S
O1381 Li1320 1.970 . S
O1381 Li1321 1.956 . S
O1381 Li1323 1.961 . S
O1381 C1330 1.325 . S
O1382 Li1320 1.961 . S
O1382 Li1322 1.956 . S
O1382 Li1323 1.970 . S
O1382 C1352 1.325 . S
O1383 Li1321 1.961 . S
O1383 Li1322 1.970 . S
O1383 Li1323 1.956 . S
O1383 C1358 1.325 . S
H1384 C1326 0.929 . S
H1385 C1327 0.930 . S
H1386 C1328 0.930 . S
H1387 C1329 0.930 . S
H1388 C1331 0.930 . S
H1389 C1333 0.929 . S
H1390 C1334 0.930 . S
H1391 C1335 0.930 . S
H1392 C1338 0.930 . S
H1393 C1341 0.929 . S
H1394 C1346 0.929 . S
H1395 C1347 0.930 . S
H1396 C1354 0.929 . S
H1397 C1355 0.930 . S
H1398 C1356 0.930 . S
H1399 C1357 0.930 . S
H1400 C1359 0.929 . S
H1401 C1360 0.930 . S
H1402 C1361 0.930 . S
H1403 C1362 0.930 . S
H1404 C1366 0.929 . S
H1405 C1368 0.930 . S
H1406 C1374 0.929 . S
H1407 C1375 0.930 . S
Li1408 N1425 1.990 . S
Li1408 O1468 1.956 . S
Li1408 O1469 1.970 . S
Li1408 O1470 1.961 . S
Li1409 N1433 1.990 . S
Li1409 O1468 1.970 . S
Li1409 O1469 1.956 . S
Li1409 O1471 1.961 . S
Li1410 N1455 1.990 . S
Li1410 O1468 1.961 . S
Li1410 O1470 1.956 . S
Li1410 O1471 1.970 . S
Li1411 N1461 1.990 . S
Li1411 O1469 1.961 . S
Li1411 O1470 1.970 . S
Li1411 O1471 1.956 . S
C1412 C1414 1.348 . S
C1412 C1415 1.356 . S
C1412 O1468 1.325 . S
N1413 C1416 1.314 . S
N1413 C1417 1.279 . S
C1414 C1412 1.348 . S
C1414 C1416 1.353 . S
C1414 H1472 0.929 . S
C1415 C1412 1.356 . S
C1415 C1417 1.358 . S
C1415 H1473 0.930 . S
C1416 N1413 1.314 . S
C1416 C1414 1.353 . S
C1416 H1474 0.930 . S
C1417 N1413 1.279 . S
C1417 C1415 1.358 . S
C1417 H1475 0.930 . S
C1418 C1421 1.348 . S
C1418 C1422 1.356 . S
C1418 O1469 1.325 . S
C1419 N1420 1.279 . S
C1419 C1422 1.358 1_565 S
C1419 H1476 0.930 . S
N1420 C1419 1.279 . S
N1420 C1423 1.314 1_565 S
C1421 C1418 1.348 . S
C1421 C1423 1.353 . S
C1421 H1477 0.929 . S
C1422 C1418 1.356 . S
C1422 C1419 1.358 1_545 S
C1422 H1478 0.930 . S
C1423 N1420 1.314 1_545 S
C1423 C1421 1.353 . S
C1423 H1479 0.930 . S
C1424 N1425 1.314 . S
C1424 C1429 1.353 . S
C1424 H1430 0.930 . S
N1425 Li1408 1.990 . S
N1425 C1424 1.314 . S
N1425 C1427 1.279 . S
C1426 C1427 1.358 . S
C1426 C1428 1.356 . S
C1426 H1480 0.930 . S
C1427 N1425 1.279 . S
C1427 C1426 1.358 . S
C1427 H1431 0.930 . S
C1428 C1426 1.356 . S
C1428 C1429 1.348 . S
C1429 C1424 1.353 . S
C1429 C1428 1.348 . S
C1429 H1481 0.929 . S
H1430 C1424 0.930 . S
H1431 C1427 0.930 . S
C1432 N1433 1.314 . S
C1432 C1434 1.353 . S
C1432 H1438 0.930 . S
N1433 Li1409 1.990 . S
N1433 C1432 1.314 . S
N1433 C1436 1.279 . S
C1434 C1432 1.353 . S
C1434 C1437 1.348 . S
C1434 H1482 0.929 . S
C1435 C1436 1.358 . S
C1435 C1437 1.356 . S
C1435 H1483 0.930 . S
C1436 N1433 1.279 . S
C1436 C1435 1.358 . S
C1436 H1439 0.930 . S
C1437 C1434 1.348 . S
C1437 C1435 1.356 . S
H1438 C1432 0.930 . S
H1439 C1436 0.930 . S
C1440 C1442 1.348 . S
C1440 C1443 1.356 . S
C1440 O1470 1.325 . S
N1441 C1444 1.314 . S
N1441 C1445 1.279 . S
C1442 C1440 1.348 . S
C1442 C1444 1.353 . S
C1442 H1484 0.929 . S
C1443 C1440 1.356 . S
C1443 C1445 1.358 . S
C1443 H1485 0.930 . S
C1444 N1441 1.314 . S
C1444 C1442 1.353 . S
C1444 H1486 0.930 . S
C1445 N1441 1.279 . S
C1445 C1443 1.358 . S
C1445 H1487 0.930 . S
C1446 C1447 1.348 . S
C1446 C1448 1.356 . S
C1446 O1471 1.325 . S
C1447 C1446 1.348 . S
C1447 C1449 1.353 . S
C1447 H1488 0.929 . S
C1448 C1446 1.356 . S
C1448 C1450 1.358 . S
C1448 H1489 0.930 . S
C1449 C1447 1.353 . S
C1449 N1451 1.314 . S
C1449 H1490 0.930 . S
C1450 C1448 1.358 . S
C1450 N1451 1.279 . S
C1450 H1491 0.930 . S
N1451 C1449 1.314 . S
N1451 C1450 1.279 . S
C1452 C1454 1.353 . S
C1452 N1455 1.314 . S
C1452 H1458 0.930 . S
C1453 N1455 1.279 . S
C1453 C1456 1.358 . S
C1453 H1459 0.930 . S
C1454 C1452 1.353 . S
C1454 C1457 1.348 . S
C1454 H1492 0.929 . S
N1455 Li1410 1.990 . S
N1455 C1452 1.314 . S
N1455 C1453 1.279 . S
C1456 C1453 1.358 . S
C1456 C1457 1.356 . S
C1456 H1493 0.930 . S
C1457 C1454 1.348 . S
C1457 C1456 1.356 . S
H1458 C1452 0.930 . S
H1459 C1453 0.930 . S
C1460 N1461 1.314 1_565 S
C1460 C1462 1.353 . S
C1460 H1466 0.930 . S
N1461 Li1411 1.990 . S
N1461 C1460 1.314 1_545 S
N1461 C1464 1.279 1_545 S
C1462 C1460 1.353 . S
C1462 C1465 1.348 . S
C1462 H1494 0.929 . S
C1463 C1464 1.358 . S
C1463 C1465 1.356 . S
C1463 H1495 0.930 . S
C1464 N1461 1.279 1_565 S
C1464 C1463 1.358 . S
C1464 H1467 0.930 1_565 S
C1465 C1462 1.348 . S
C1465 C1463 1.356 . S
H1466 C1460 0.930 . S
H1467 C1464 0.930 1_545 S
O1468 Li1408 1.956 . S
O1468 Li1409 1.970 . S
O1468 Li1410 1.961 . S
O1468 C1412 1.325 . S
O1469 Li1408 1.970 . S
O1469 Li1409 1.956 . S
O1469 Li1411 1.961 . S
O1469 C1418 1.325 . S
O1470 Li1408 1.961 . S
O1470 Li1410 1.956 . S
O1470 Li1411 1.970 . S
O1470 C1440 1.325 . S
O1471 Li1409 1.961 . S
O1471 Li1410 1.970 . S
O1471 Li1411 1.956 . S
O1471 C1446 1.325 . S
H1472 C1414 0.929 . S
H1473 C1415 0.930 . S
H1474 C1416 0.930 . S
H1475 C1417 0.930 . S
H1476 C1419 0.930 . S
H1477 C1421 0.929 . S
H1478 C1422 0.930 . S
H1479 C1423 0.930 . S
H1480 C1426 0.930 . S
H1481 C1429 0.929 . S
H1482 C1434 0.929 . S
H1483 C1435 0.930 . S
H1484 C1442 0.929 . S
H1485 C1443 0.930 . S
H1486 C1444 0.930 . S
H1487 C1445 0.930 . S
H1488 C1447 0.929 . S
H1489 C1448 0.930 . S
H1490 C1449 0.930 . S
H1491 C1450 0.930 . S
H1492 C1454 0.929 . S
H1493 C1456 0.930 . S
H1494 C1462 0.929 . S
H1495 C1463 0.930 . S
Li1496 N1513 1.990 . S
Li1496 O1556 1.956 . S
Li1496 O1557 1.970 . S
Li1496 O1558 1.961 . S
Li1497 N1521 1.990 . S
Li1497 O1556 1.970 . S
Li1497 O1557 1.956 . S
Li1497 O1559 1.961 . S
Li1498 N1543 1.990 . S
Li1498 O1556 1.961 . S
Li1498 O1558 1.956 . S
Li1498 O1559 1.970 . S
Li1499 N1549 1.990 . S
Li1499 O1557 1.961 . S
Li1499 O1558 1.970 . S
Li1499 O1559 1.956 . S
C1500 C1502 1.348 . S
C1500 C1503 1.356 . S
C1500 O1556 1.325 . S
N1501 C1504 1.314 1_455 S
N1501 C1505 1.279 . S
C1502 C1500 1.348 . S
C1502 C1504 1.353 . S
C1502 H1560 0.929 . S
C1503 C1500 1.356 . S
C1503 C1505 1.358 1_655 S
C1503 H1561 0.930 . S
C1504 N1501 1.314 1_655 S
C1504 C1502 1.353 . S
C1504 H1562 0.930 . S
C1505 N1501 1.279 . S
C1505 C1503 1.358 1_455 S
C1505 H1563 0.930 . S
C1506 C1509 1.348 . S
C1506 C1510 1.356 . S
C1506 O1557 1.325 . S
C1507 N1508 1.279 . S
C1507 C1510 1.358 . S
C1507 H1564 0.930 . S
N1508 C1507 1.279 . S
N1508 C1511 1.314 . S
C1509 C1506 1.348 . S
C1509 C1511 1.353 . S
C1509 H1565 0.929 . S
C1510 C1506 1.356 . S
C1510 C1507 1.358 . S
C1510 H1566 0.930 . S
C1511 N1508 1.314 . S
C1511 C1509 1.353 . S
C1511 H1567 0.930 . S
C1512 N1513 1.314 . S
C1512 C1517 1.353 . S
C1512 H1518 0.930 . S
N1513 Li1496 1.990 . S
N1513 C1512 1.314 . S
N1513 C1515 1.279 . S
C1514 C1515 1.358 . S
C1514 C1516 1.356 . S
C1514 H1568 0.930 . S
C1515 N1513 1.279 . S
C1515 C1514 1.358 . S
C1515 H1519 0.930 . S
C1516 C1514 1.356 . S
C1516 C1517 1.348 . S
C1517 C1512 1.353 . S
C1517 C1516 1.348 . S
C1517 H1569 0.929 . S
H1518 C1512 0.930 . S
H1519 C1515 0.930 . S
C1520 N1521 1.314 . S
C1520 C1522 1.353 . S
C1520 H1526 0.930 . S
N1521 Li1497 1.990 . S
N1521 C1520 1.314 . S
N1521 C1524 1.279 . S
C1522 C1520 1.353 . S
C1522 C1525 1.348 . S
C1522 H1570 0.929 . S
C1523 C1524 1.358 . S
C1523 C1525 1.356 . S
C1523 H1571 0.930 . S
C1524 N1521 1.279 . S
C1524 C1523 1.358 . S
C1524 H1527 0.930 . S
C1525 C1522 1.348 . S
C1525 C1523 1.356 . S
H1526 C1520 0.930 . S
H1527 C1524 0.930 . S
C1528 C1530 1.348 . S
C1528 C1531 1.356 . S
C1528 O1558 1.325 . S
N1529 C1532 1.314 . S
N1529 C1533 1.279 . S
C1530 C1528 1.348 . S
C1530 C1532 1.353 . S
C1530 H1572 0.929 . S
C1531 C1528 1.356 . S
C1531 C1533 1.358 . S
C1531 H1573 0.930 . S
C1532 N1529 1.314 . S
C1532 C1530 1.353 . S
C1532 H1574 0.930 . S
C1533 N1529 1.279 . S
C1533 C1531 1.358 . S
C1533 H1575 0.930 . S
C1534 C1535 1.348 . S
C1534 C1536 1.356 . S
C1534 O1559 1.325 . S
C1535 C1534 1.348 . S
C1535 C1537 1.353 . S
C1535 H1576 0.929 . S
C1536 C1534 1.356 . S
C1536 C1538 1.358 . S
C1536 H1577 0.930 . S
C1537 C1535 1.353 . S
C1537 N1539 1.314 . S
C1537 H1578 0.930 . S
C1538 C1536 1.358 . S
C1538 N1539 1.279 . S
C1538 H1579 0.930 . S
N1539 C1537 1.314 . S
N1539 C1538 1.279 . S
C1540 C1542 1.353 . S
C1540 N1543 1.314 1_455 S
C1540 H1546 0.930 . S
C1541 N1543 1.279 . S
C1541 C1544 1.358 1_655 S
C1541 H1547 0.930 . S
C1542 C1540 1.353 . S
C1542 C1545 1.348 . S
C1542 H1580 0.929 . S
N1543 Li1498 1.990 . S
N1543 C1540 1.314 1_655 S
N1543 C1541 1.279 . S
C1544 C1541 1.358 1_455 S
C1544 C1545 1.356 . S
C1544 H1581 0.930 . S
C1545 C1542 1.348 . S
C1545 C1544 1.356 . S
H1546 C1540 0.930 . S
H1547 C1541 0.930 . S
C1548 N1549 1.314 . S
C1548 C1550 1.353 . S
C1548 H1554 0.930 . S
N1549 Li1499 1.990 . S
N1549 C1548 1.314 . S
N1549 C1552 1.279 . S
C1550 C1548 1.353 . S
C1550 C1553 1.348 . S
C1550 H1582 0.929 . S
C1551 C1552 1.358 . S
C1551 C1553 1.356 . S
C1551 H1583 0.930 . S
C1552 N1549 1.279 . S
C1552 C1551 1.358 . S
C1552 H1555 0.930 . S
C1553 C1550 1.348 . S
C1553 C1551 1.356 . S
H1554 C1548 0.930 . S
H1555 C1552 0.930 . S
O1556 Li1496 1.956 . S
O1556 Li1497 1.970 . S
O1556 Li1498 1.961 . S
O1556 C1500 1.325 . S
O1557 Li1496 1.970 . S
O1557 Li1497 1.956 . S
O1557 Li1499 1.961 . S
O1557 C1506 1.325 . S
O1558 Li1496 1.961 . S
O1558 Li1498 1.956 . S
O1558 Li1499 1.970 . S
O1558 C1528 1.325 . S
O1559 Li1497 1.961 . S
O1559 Li1498 1.970 . S
O1559 Li1499 1.956 . S
O1559 C1534 1.325 . S
H1560 C1502 0.929 . S
H1561 C1503 0.930 . S
H1562 C1504 0.930 . S
H1563 C1505 0.930 . S
H1564 C1507 0.930 . S
H1565 C1509 0.929 . S
H1566 C1510 0.930 . S
H1567 C1511 0.930 . S
H1568 C1514 0.930 . S
H1569 C1517 0.929 . S
H1570 C1522 0.929 . S
H1571 C1523 0.930 . S
H1572 C1530 0.929 . S
H1573 C1531 0.930 . S
H1574 C1532 0.930 . S
H1575 C1533 0.930 . S
H1576 C1535 0.929 . S
H1577 C1536 0.930 . S
H1578 C1537 0.930 . S
H1579 C1538 0.930 . S
H1580 C1542 0.929 . S
H1581 C1544 0.930 . S
H1582 C1550 0.929 . S
H1583 C1551 0.930 . S
H1584 O1610 0.856 . S
H1585 O1613 0.854 . S
H1586 C1621 0.930 . S
H1587 C1622 0.930 . S
H1588 C1624 0.930 . S
H1589 C1625 0.930 . S
H1590 C1627 0.931 . S
H1591 C1628 0.930 . S
H1592 C1630 0.930 . S
H1593 C1631 0.929 . S
H1594 C1633 0.930 . S
H1595 C1634 0.931 . S
H1596 C1636 0.930 . S
H1597 C1637 0.929 . S
H1598 C1639 0.931 . S
H1599 C1640 0.930 . S
H1600 C1642 0.930 . S
H1601 C1643 0.932 . S
H1602 C1645 0.930 . S
H1603 C1646 0.929 . S
H1604 C1648 0.931 . S
H1605 C1649 0.930 . S
H1606 C1651 0.929 . S
H1607 C1652 0.931 . S
H1608 C1654 0.930 . S
H1609 C1655 0.929 . S
O1610 H1584 0.856 . S
O1610 C1656 1.300 . S
O1611 C1656 1.209 . S
O1612 C1657 1.199 . S
O1613 H1585 0.854 . S
O1613 C1657 1.297 . S
C1614 C1615 1.404 . S
C1614 C1619 1.397 . S
C1614 C1620 1.492 . S
C1615 C1614 1.404 . S
C1615 C1616 1.396 . S
C1615 C1626 1.492 . S
C1616 C1615 1.396 . S
C1616 C1617 1.397 . S
C1616 C1632 1.509 . S
C1617 C1616 1.397 . S
C1617 C1618 1.412 . S
C1617 C1638 1.485 . S
C1618 C1617 1.412 . S
C1618 C1619 1.388 . S
C1618 C1644 1.490 . S
C1619 C1614 1.397 . S
C1619 C1618 1.388 . S
C1619 C1650 1.519 . S
C1620 C1614 1.492 . S
C1620 C1621 1.363 . S
C1620 C1625 1.390 . S
C1621 H1586 0.930 . S
C1621 C1620 1.363 . S
C1621 C1622 1.372 . S
C1622 H1587 0.930 . S
C1622 C1621 1.372 . S
C1622 C1623 1.383 . S
C1623 C1622 1.383 . S
C1623 C1624 1.395 . S
C1624 H1588 0.930 . S
C1624 C1623 1.395 . S
C1624 C1625 1.362 . S
C1625 H1589 0.930 . S
C1625 C1620 1.390 . S
C1625 C1624 1.362 . S
C1626 C1615 1.492 . S
C1626 C1627 1.377 . S
C1626 C1631 1.397 . S
C1627 H1590 0.931 . S
C1627 C1626 1.377 . S
C1627 C1628 1.376 . S
C1628 H1591 0.930 . S
C1628 C1627 1.376 . S
C1628 C1629 1.376 . S
C1629 C1628 1.376 . S
C1629 C1630 1.378 . S
C1629 C1656 1.486 . S
C1630 H1592 0.930 . S
C1630 C1629 1.378 . S
C1630 C1631 1.376 . S
C1631 H1593 0.929 . S
C1631 C1626 1.397 . S
C1631 C1630 1.376 . S
C1632 C1616 1.509 . S
C1632 C1633 1.391 . S
C1632 C1637 1.386 . S
C1633 H1594 0.930 . S
C1633 C1632 1.391 . S
C1633 C1634 1.375 . S
C1634 H1595 0.931 . S
C1634 C1633 1.375 . S
C1634 C1635 1.375 . S
C1635 C1634 1.375 . S
C1635 C1636 1.361 . S
C1636 H1596 0.930 . S
C1636 C1635 1.361 . S
C1636 C1637 1.399 . S
C1637 H1597 0.929 . S
C1637 C1632 1.386 . S
C1637 C1636 1.399 . S
C1638 C1617 1.485 . S
C1638 C1639 1.394 . S
C1638 C1643 1.360 . S
C1639 H1598 0.931 . S
C1639 C1638 1.394 . S
C1639 C1640 1.372 . S
C1640 H1599 0.930 . S
C1640 C1639 1.372 . S
C1640 C1641 1.397 . S
C1641 C1640 1.397 . S
C1641 C1642 1.390 . S
C1641 C1657 1.476 . S
C1642 H1600 0.930 . S
C1642 C1641 1.390 . S
C1642 C1643 1.366 . S
C1643 H1601 0.932 . S
C1643 C1638 1.360 . S
C1643 C1642 1.366 . S
C1644 C1618 1.490 . S
C1644 C1645 1.380 . S
C1644 C1649 1.386 . S
C1645 H1602 0.930 . S
C1645 C1644 1.380 . S
C1645 C1646 1.381 . S
C1646 H1603 0.929 . S
C1646 C1645 1.381 . S
C1646 C1647 1.371 . S
C1647 C1646 1.371 . S
C1647 C1648 1.380 . S
C1648 H1604 0.931 . S
C1648 C1647 1.380 . S
C1648 C1649 1.387 . S
C1649 H1605 0.930 . S
C1649 C1644 1.386 . S
C1649 C1648 1.387 . S
C1650 C1619 1.519 . S
C1650 C1651 1.377 . S
C1650 C1655 1.361 . S
C1651 H1606 0.929 . S
C1651 C1650 1.377 . S
C1651 C1652 1.386 . S
C1652 H1607 0.931 . S
C1652 C1651 1.386 . S
C1652 C1653 1.363 . S
C1653 C1652 1.363 . S
C1653 C1654 1.385 . S
C1654 H1608 0.930 . S
C1654 C1653 1.385 . S
C1654 C1655 1.396 . S
C1655 H1609 0.929 . S
C1655 C1650 1.361 . S
C1655 C1654 1.396 . S
C1656 O1610 1.300 . S
C1656 O1611 1.209 . S
C1656 C1629 1.486 . S
C1657 O1612 1.199 . S
C1657 O1613 1.297 . S
C1657 C1641 1.476 . S
H1658 O1684 0.856 . S
H1659 O1687 0.854 . S
H1660 C1695 0.930 . S
H1661 C1696 0.930 . S
H1662 C1698 0.930 . S
H1663 C1699 0.930 . S
H1664 C1701 0.931 . S
H1665 C1702 0.930 . S
H1666 C1704 0.930 . S
H1667 C1705 0.929 . S
H1668 C1707 0.930 . S
H1669 C1708 0.931 . S
H1670 C1710 0.930 . S
H1671 C1711 0.929 . S
H1672 C1713 0.931 . S
H1673 C1714 0.930 . S
H1674 C1716 0.930 . S
H1675 C1717 0.932 . S
H1676 C1719 0.930 . S
H1677 C1720 0.929 . S
H1678 C1722 0.931 . S
H1679 C1723 0.930 . S
H1680 C1725 0.929 . S
H1681 C1726 0.931 . S
H1682 C1728 0.930 . S
H1683 C1729 0.929 . S
O1684 H1658 0.856 . S
O1684 C1730 1.300 . S
O1685 C1730 1.209 . S
O1686 C1731 1.199 . S
O1687 H1659 0.854 . S
O1687 C1731 1.297 . S
C1688 C1689 1.404 . S
C1688 C1693 1.397 . S
C1688 C1694 1.492 . S
C1689 C1688 1.404 . S
C1689 C1690 1.396 . S
C1689 C1700 1.492 . S
C1690 C1689 1.396 . S
C1690 C1691 1.397 . S
C1690 C1706 1.509 . S
C1691 C1690 1.397 . S
C1691 C1692 1.412 . S
C1691 C1712 1.485 . S
C1692 C1691 1.412 . S
C1692 C1693 1.388 . S
C1692 C1718 1.490 . S
C1693 C1688 1.397 . S
C1693 C1692 1.388 . S
C1693 C1724 1.519 . S
C1694 C1688 1.492 . S
C1694 C1695 1.363 . S
C1694 C1699 1.390 . S
C1695 H1660 0.930 . S
C1695 C1694 1.363 . S
C1695 C1696 1.372 . S
C1696 H1661 0.930 . S
C1696 C1695 1.372 . S
C1696 C1697 1.383 . S
C1697 C1696 1.383 . S
C1697 C1698 1.395 . S
C1698 H1662 0.930 . S
C1698 C1697 1.395 . S
C1698 C1699 1.362 . S
C1699 H1663 0.930 . S
C1699 C1694 1.390 . S
C1699 C1698 1.362 . S
C1700 C1689 1.492 . S
C1700 C1701 1.377 . S
C1700 C1705 1.397 . S
C1701 H1664 0.931 . S
C1701 C1700 1.377 . S
C1701 C1702 1.376 . S
C1702 H1665 0.930 . S
C1702 C1701 1.376 . S
C1702 C1703 1.376 . S
C1703 C1702 1.376 . S
C1703 C1704 1.378 . S
C1703 C1730 1.486 . S
C1704 H1666 0.930 . S
C1704 C1703 1.378 . S
C1704 C1705 1.376 . S
C1705 H1667 0.929 . S
C1705 C1700 1.397 . S
C1705 C1704 1.376 . S
C1706 C1690 1.509 . S
C1706 C1707 1.391 . S
C1706 C1711 1.386 . S
C1707 H1668 0.930 . S
C1707 C1706 1.391 . S
C1707 C1708 1.375 . S
C1708 H1669 0.931 . S
C1708 C1707 1.375 . S
C1708 C1709 1.375 . S
C1709 C1708 1.375 . S
C1709 C1710 1.361 . S
C1710 H1670 0.930 . S
C1710 C1709 1.361 . S
C1710 C1711 1.399 . S
C1711 H1671 0.929 . S
C1711 C1706 1.386 . S
C1711 C1710 1.399 . S
C1712 C1691 1.485 . S
C1712 C1713 1.394 . S
C1712 C1717 1.360 . S
C1713 H1672 0.931 . S
C1713 C1712 1.394 . S
C1713 C1714 1.372 . S
C1714 H1673 0.930 . S
C1714 C1713 1.372 . S
C1714 C1715 1.397 . S
C1715 C1714 1.397 . S
C1715 C1716 1.390 . S
C1715 C1731 1.476 . S
C1716 H1674 0.930 . S
C1716 C1715 1.390 . S
C1716 C1717 1.366 . S
C1717 H1675 0.932 . S
C1717 C1712 1.360 . S
C1717 C1716 1.366 . S
C1718 C1692 1.490 . S
C1718 C1719 1.380 . S
C1718 C1723 1.386 . S
C1719 H1676 0.930 . S
C1719 C1718 1.380 . S
C1719 C1720 1.381 . S
C1720 H1677 0.929 . S
C1720 C1719 1.381 . S
C1720 C1721 1.371 . S
C1721 C1720 1.371 . S
C1721 C1722 1.380 . S
C1722 H1678 0.931 . S
C1722 C1721 1.380 . S
C1722 C1723 1.387 . S
C1723 H1679 0.930 . S
C1723 C1718 1.386 . S
C1723 C1722 1.387 . S
C1724 C1693 1.519 . S
C1724 C1725 1.377 . S
C1724 C1729 1.361 . S
C1725 H1680 0.929 . S
C1725 C1724 1.377 . S
C1725 C1726 1.386 . S
C1726 H1681 0.931 . S
C1726 C1725 1.386 . S
C1726 C1727 1.363 . S
C1727 C1726 1.363 . S
C1727 C1728 1.385 . S
C1728 H1682 0.930 . S
C1728 C1727 1.385 . S
C1728 C1729 1.396 . S
C1729 H1683 0.929 . S
C1729 C1724 1.361 . S
C1729 C1728 1.396 . S
C1730 O1684 1.300 . S
C1730 O1685 1.209 . S
C1730 C1703 1.486 . S
C1731 O1686 1.199 . S
C1731 O1687 1.297 . S
C1731 C1715 1.476 . S
H1732 O1758 0.856 . S
H1733 O1761 0.854 . S
H1734 C1769 0.930 . S
H1735 C1770 0.930 . S
H1736 C1772 0.930 . S
H1737 C1773 0.930 . S
H1738 C1775 0.931 . S
H1739 C1776 0.930 . S
H1740 C1778 0.930 . S
H1741 C1779 0.929 . S
H1742 C1781 0.930 . S
H1743 C1782 0.931 . S
H1744 C1784 0.930 . S
H1745 C1785 0.929 . S
H1746 C1787 0.931 . S
H1747 C1788 0.930 . S
H1748 C1790 0.930 . S
H1749 C1791 0.932 . S
H1750 C1793 0.930 . S
H1751 C1794 0.929 . S
H1752 C1796 0.931 . S
H1753 C1797 0.930 . S
H1754 C1799 0.929 . S
H1755 C1800 0.931 . S
H1756 C1802 0.930 . S
H1757 C1803 0.929 . S
O1758 H1732 0.856 . S
O1758 C1804 1.300 . S
O1759 C1804 1.209 . S
O1760 C1805 1.199 . S
O1761 H1733 0.854 . S
O1761 C1805 1.297 . S
C1762 C1763 1.404 . S
C1762 C1767 1.397 . S
C1762 C1768 1.492 . S
C1763 C1762 1.404 . S
C1763 C1764 1.396 . S
C1763 C1774 1.492 . S
C1764 C1763 1.396 . S
C1764 C1765 1.397 . S
C1764 C1780 1.509 . S
C1765 C1764 1.397 . S
C1765 C1766 1.412 . S
C1765 C1786 1.485 . S
C1766 C1765 1.412 . S
C1766 C1767 1.388 . S
C1766 C1792 1.490 . S
C1767 C1762 1.397 . S
C1767 C1766 1.388 . S
C1767 C1798 1.519 . S
C1768 C1762 1.492 . S
C1768 C1769 1.363 . S
C1768 C1773 1.390 . S
C1769 H1734 0.930 . S
C1769 C1768 1.363 . S
C1769 C1770 1.372 . S
C1770 H1735 0.930 . S
C1770 C1769 1.372 . S
C1770 C1771 1.383 . S
C1771 C1770 1.383 . S
C1771 C1772 1.395 . S
C1772 H1736 0.930 . S
C1772 C1771 1.395 . S
C1772 C1773 1.362 . S
C1773 H1737 0.930 . S
C1773 C1768 1.390 . S
C1773 C1772 1.362 . S
C1774 C1763 1.492 . S
C1774 C1775 1.377 . S
C1774 C1779 1.397 . S
C1775 H1738 0.931 . S
C1775 C1774 1.377 . S
C1775 C1776 1.376 . S
C1776 H1739 0.930 . S
C1776 C1775 1.376 . S
C1776 C1777 1.376 . S
C1777 C1776 1.376 . S
C1777 C1778 1.378 . S
C1777 C1804 1.486 . S
C1778 H1740 0.930 . S
C1778 C1777 1.378 . S
C1778 C1779 1.376 . S
C1779 H1741 0.929 . S
C1779 C1774 1.397 . S
C1779 C1778 1.376 . S
C1780 C1764 1.509 . S
C1780 C1781 1.391 . S
C1780 C1785 1.386 . S
C1781 H1742 0.930 . S
C1781 C1780 1.391 . S
C1781 C1782 1.375 . S
C1782 H1743 0.931 . S
C1782 C1781 1.375 . S
C1782 C1783 1.375 . S
C1783 C1782 1.375 . S
C1783 C1784 1.361 . S
C1784 H1744 0.930 . S
C1784 C1783 1.361 . S
C1784 C1785 1.399 . S
C1785 H1745 0.929 . S
C1785 C1780 1.386 . S
C1785 C1784 1.399 . S
C1786 C1765 1.485 . S
C1786 C1787 1.394 . S
C1786 C1791 1.360 . S
C1787 H1746 0.931 . S
C1787 C1786 1.394 . S
C1787 C1788 1.372 . S
C1788 H1747 0.930 . S
C1788 C1787 1.372 . S
C1788 C1789 1.397 . S
C1789 C1788 1.397 . S
C1789 C1790 1.390 . S
C1789 C1805 1.476 . S
C1790 H1748 0.930 . S
C1790 C1789 1.390 . S
C1790 C1791 1.366 . S
C1791 H1749 0.932 . S
C1791 C1786 1.360 . S
C1791 C1790 1.366 . S
C1792 C1766 1.490 . S
C1792 C1793 1.380 . S
C1792 C1797 1.386 . S
C1793 H1750 0.930 . S
C1793 C1792 1.380 . S
C1793 C1794 1.381 . S
C1794 H1751 0.929 . S
C1794 C1793 1.381 . S
C1794 C1795 1.371 . S
C1795 C1794 1.371 . S
C1795 C1796 1.380 . S
C1796 H1752 0.931 . S
C1796 C1795 1.380 . S
C1796 C1797 1.387 . S
C1797 H1753 0.930 . S
C1797 C1792 1.386 . S
C1797 C1796 1.387 . S
C1798 C1767 1.519 . S
C1798 C1799 1.377 . S
C1798 C1803 1.361 . S
C1799 H1754 0.929 . S
C1799 C1798 1.377 . S
C1799 C1800 1.386 . S
C1800 H1755 0.931 . S
C1800 C1799 1.386 . S
C1800 C1801 1.363 . S
C1801 C1800 1.363 . S
C1801 C1802 1.385 . S
C1802 H1756 0.930 . S
C1802 C1801 1.385 . S
C1802 C1803 1.396 . S
C1803 H1757 0.929 . S
C1803 C1798 1.361 . S
C1803 C1802 1.396 . S
C1804 O1758 1.300 . S
C1804 O1759 1.209 . S
C1804 C1777 1.486 . S
C1805 O1760 1.199 . S
C1805 O1761 1.297 . S
C1805 C1789 1.476 . S
H1806 O1832 0.856 1_554 S
H1807 O1835 0.854 . S
H1808 C1843 0.930 . S
H1809 C1844 0.930 . S
H1810 C1846 0.930 . S
H1811 C1847 0.930 . S
H1812 C1849 0.931 . S
H1813 C1850 0.930 . S
H1814 C1852 0.930 . S
H1815 C1853 0.929 . S
H1816 C1855 0.930 . S
H1817 C1856 0.931 . S
H1818 C1858 0.930 . S
H1819 C1859 0.929 . S
H1820 C1861 0.931 . S
H1821 C1862 0.930 . S
H1822 C1864 0.930 . S
H1823 C1865 0.932 . S
H1824 C1867 0.930 . S
H1825 C1868 0.929 . S
H1826 C1870 0.931 . S
H1827 C1871 0.930 . S
H1828 C1873 0.929 . S
H1829 C1874 0.931 . S
H1830 C1876 0.930 . S
H1831 C1877 0.929 . S
O1832 H1806 0.856 1_556 S
O1832 C1878 1.300 . S
O1833 C1878 1.209 . S
O1834 C1879 1.199 . S
O1835 H1807 0.854 . S
O1835 C1879 1.297 . S
C1836 C1837 1.404 . S
C1836 C1841 1.397 . S
C1836 C1842 1.492 . S
C1837 C1836 1.404 . S
C1837 C1838 1.396 . S
C1837 C1848 1.492 . S
C1838 C1837 1.396 . S
C1838 C1839 1.397 . S
C1838 C1854 1.509 . S
C1839 C1838 1.397 . S
C1839 C1840 1.412 . S
C1839 C1860 1.485 . S
C1840 C1839 1.412 . S
C1840 C1841 1.388 . S
C1840 C1866 1.490 . S
C1841 C1836 1.397 . S
C1841 C1840 1.388 . S
C1841 C1872 1.519 . S
C1842 C1836 1.492 . S
C1842 C1843 1.363 . S
C1842 C1847 1.390 . S
C1843 H1808 0.930 . S
C1843 C1842 1.363 . S
C1843 C1844 1.372 . S
C1844 H1809 0.930 . S
C1844 C1843 1.372 . S
C1844 C1845 1.383 . S
C1845 C1844 1.383 . S
C1845 C1846 1.395 . S
C1846 H1810 0.930 . S
C1846 C1845 1.395 . S
C1846 C1847 1.362 . S
C1847 H1811 0.930 . S
C1847 C1842 1.390 . S
C1847 C1846 1.362 . S
C1848 C1837 1.492 . S
C1848 C1849 1.377 . S
C1848 C1853 1.397 . S
C1849 H1812 0.931 . S
C1849 C1848 1.377 . S
C1849 C1850 1.376 . S
C1850 H1813 0.930 . S
C1850 C1849 1.376 . S
C1850 C1851 1.376 . S
C1851 C1850 1.376 . S
C1851 C1852 1.378 . S
C1851 C1878 1.486 . S
C1852 H1814 0.930 . S
C1852 C1851 1.378 . S
C1852 C1853 1.376 . S
C1853 H1815 0.929 . S
C1853 C1848 1.397 . S
C1853 C1852 1.376 . S
C1854 C1838 1.509 . S
C1854 C1855 1.391 . S
C1854 C1859 1.386 . S
C1855 H1816 0.930 . S
C1855 C1854 1.391 . S
C1855 C1856 1.375 . S
C1856 H1817 0.931 . S
C1856 C1855 1.375 . S
C1856 C1857 1.375 . S
C1857 C1856 1.375 . S
C1857 C1858 1.361 . S
C1858 H1818 0.930 . S
C1858 C1857 1.361 . S
C1858 C1859 1.399 . S
C1859 H1819 0.929 . S
C1859 C1854 1.386 . S
C1859 C1858 1.399 . S
C1860 C1839 1.485 . S
C1860 C1861 1.394 . S
C1860 C1865 1.360 . S
C1861 H1820 0.931 . S
C1861 C1860 1.394 . S
C1861 C1862 1.372 . S
C1862 H1821 0.930 . S
C1862 C1861 1.372 . S
C1862 C1863 1.397 . S
C1863 C1862 1.397 . S
C1863 C1864 1.390 . S
C1863 C1879 1.476 . S
C1864 H1822 0.930 . S
C1864 C1863 1.390 . S
C1864 C1865 1.366 . S
C1865 H1823 0.932 . S
C1865 C1860 1.360 . S
C1865 C1864 1.366 . S
C1866 C1840 1.490 . S
C1866 C1867 1.380 . S
C1866 C1871 1.386 . S
C1867 H1824 0.930 . S
C1867 C1866 1.380 . S
C1867 C1868 1.381 . S
C1868 H1825 0.929 . S
C1868 C1867 1.381 . S
C1868 C1869 1.371 . S
C1869 C1868 1.371 . S
C1869 C1870 1.380 . S
C1870 H1826 0.931 . S
C1870 C1869 1.380 . S
C1870 C1871 1.387 . S
C1871 H1827 0.930 . S
C1871 C1866 1.386 . S
C1871 C1870 1.387 . S
C1872 C1841 1.519 . S
C1872 C1873 1.377 . S
C1872 C1877 1.361 . S
C1873 H1828 0.929 . S
C1873 C1872 1.377 . S
C1873 C1874 1.386 . S
C1874 H1829 0.931 . S
C1874 C1873 1.386 . S
C1874 C1875 1.363 . S
C1875 C1874 1.363 . S
C1875 C1876 1.385 . S
C1876 H1830 0.930 . S
C1876 C1875 1.385 . S
C1876 C1877 1.396 . S
C1877 H1831 0.929 . S
C1877 C1872 1.361 . S
C1877 C1876 1.396 . S
C1878 O1832 1.300 . S
C1878 O1833 1.209 . S
C1878 C1851 1.486 . S
C1879 O1834 1.199 . S
C1879 O1835 1.297 . S
C1879 C1863 1.476 . S
H1880 O1906 0.856 . S
H1881 O1909 0.854 . S
H1882 C1917 0.930 . S
H1883 C1918 0.930 . S
H1884 C1920 0.930 . S
H1885 C1921 0.930 . S
H1886 C1923 0.931 . S
H1887 C1924 0.930 . S
H1888 C1926 0.930 . S
H1889 C1927 0.929 . S
H1890 C1929 0.930 . S
H1891 C1930 0.931 . S
H1892 C1932 0.930 . S
H1893 C1933 0.929 . S
H1894 C1935 0.931 . S
H1895 C1936 0.930 . S
H1896 C1938 0.930 . S
H1897 C1939 0.932 . S
H1898 C1941 0.930 . S
H1899 C1942 0.929 . S
H1900 C1944 0.931 . S
H1901 C1945 0.930 . S
H1902 C1947 0.929 . S
H1903 C1948 0.931 . S
H1904 C1950 0.930 . S
H1905 C1951 0.929 . S
O1906 H1880 0.856 . S
O1906 C1952 1.300 1_554 S
O1907 C1952 1.209 1_554 S
O1908 C1953 1.199 . S
O1909 H1881 0.854 . S
O1909 C1953 1.297 . S
C1910 C1911 1.404 . S
C1910 C1915 1.397 . S
C1910 C1916 1.492 . S
C1911 C1910 1.404 . S
C1911 C1912 1.396 . S
C1911 C1922 1.492 . S
C1912 C1911 1.396 . S
C1912 C1913 1.397 . S
C1912 C1928 1.509 . S
C1913 C1912 1.397 . S
C1913 C1914 1.412 . S
C1913 C1934 1.485 . S
C1914 C1913 1.412 . S
C1914 C1915 1.388 . S
C1914 C1940 1.490 . S
C1915 C1910 1.397 . S
C1915 C1914 1.388 . S
C1915 C1946 1.519 . S
C1916 C1910 1.492 . S
C1916 C1917 1.363 . S
C1916 C1921 1.390 . S
C1917 H1882 0.930 . S
C1917 C1916 1.363 . S
C1917 C1918 1.372 . S
C1918 H1883 0.930 . S
C1918 C1917 1.372 . S
C1918 C1919 1.383 . S
C1919 C1918 1.383 . S
C1919 C1920 1.395 . S
C1920 H1884 0.930 . S
C1920 C1919 1.395 . S
C1920 C1921 1.362 . S
C1921 H1885 0.930 . S
C1921 C1916 1.390 . S
C1921 C1920 1.362 . S
C1922 C1911 1.492 . S
C1922 C1923 1.377 . S
C1922 C1927 1.397 . S
C1923 H1886 0.931 . S
C1923 C1922 1.377 . S
C1923 C1924 1.376 . S
C1924 H1887 0.930 . S
C1924 C1923 1.376 . S
C1924 C1925 1.376 . S
C1925 C1924 1.376 . S
C1925 C1926 1.378 . S
C1925 C1952 1.486 . S
C1926 H1888 0.930 . S
C1926 C1925 1.378 . S
C1926 C1927 1.376 . S
C1927 H1889 0.929 . S
C1927 C1922 1.397 . S
C1927 C1926 1.376 . S
C1928 C1912 1.509 . S
C1928 C1929 1.391 . S
C1928 C1933 1.386 . S
C1929 H1890 0.930 . S
C1929 C1928 1.391 . S
C1929 C1930 1.375 . S
C1930 H1891 0.931 . S
C1930 C1929 1.375 . S
C1930 C1931 1.375 . S
C1931 C1930 1.375 . S
C1931 C1932 1.361 . S
C1932 H1892 0.930 . S
C1932 C1931 1.361 . S
C1932 C1933 1.399 . S
C1933 H1893 0.929 . S
C1933 C1928 1.386 . S
C1933 C1932 1.399 . S
C1934 C1913 1.485 . S
C1934 C1935 1.394 . S
C1934 C1939 1.360 . S
C1935 H1894 0.931 . S
C1935 C1934 1.394 . S
C1935 C1936 1.372 . S
C1936 H1895 0.930 . S
C1936 C1935 1.372 . S
C1936 C1937 1.397 . S
C1937 C1936 1.397 . S
C1937 C1938 1.390 . S
C1937 C1953 1.476 . S
C1938 H1896 0.930 . S
C1938 C1937 1.390 . S
C1938 C1939 1.366 . S
C1939 H1897 0.932 . S
C1939 C1934 1.360 . S
C1939 C1938 1.366 . S
C1940 C1914 1.490 . S
C1940 C1941 1.380 . S
C1940 C1945 1.386 . S
C1941 H1898 0.930 . S
C1941 C1940 1.380 . S
C1941 C1942 1.381 . S
C1942 H1899 0.929 . S
C1942 C1941 1.381 . S
C1942 C1943 1.371 . S
C1943 C1942 1.371 . S
C1943 C1944 1.380 . S
C1944 H1900 0.931 . S
C1944 C1943 1.380 . S
C1944 C1945 1.387 . S
C1945 H1901 0.930 . S
C1945 C1940 1.386 . S
C1945 C1944 1.387 . S
C1946 C1915 1.519 . S
C1946 C1947 1.377 . S
C1946 C1951 1.361 . S
C1947 H1902 0.929 . S
C1947 C1946 1.377 . S
C1947 C1948 1.386 . S
C1948 H1903 0.931 . S
C1948 C1947 1.386 . S
C1948 C1949 1.363 . S
C1949 C1948 1.363 . S
C1949 C1950 1.385 . S
C1950 H1904 0.930 . S
C1950 C1949 1.385 . S
C1950 C1951 1.396 . S
C1951 H1905 0.929 . S
C1951 C1946 1.361 . S
C1951 C1950 1.396 . S
C1952 O1906 1.300 1_556 S
C1952 O1907 1.209 1_556 S
C1952 C1925 1.486 . S
C1953 O1908 1.199 . S
C1953 O1909 1.297 . S
C1953 C1937 1.476 . S
H1954 O1980 0.856 . S
H1955 O1983 0.854 . S
H1956 C1991 0.930 . S
H1957 C1992 0.930 . S
H1958 C1994 0.930 . S
H1959 C1995 0.930 . S
H1960 C1997 0.931 . S
H1961 C1998 0.930 . S
H1962 C2000 0.930 . S
H1963 C2001 0.929 . S
H1964 C2003 0.930 . S
H1965 C2004 0.931 . S
H1966 C2006 0.930 . S
H1967 C2007 0.929 . S
H1968 C2009 0.931 . S
H1969 C2010 0.930 . S
H1970 C2012 0.930 . S
H1971 C2013 0.932 . S
H1972 C2015 0.930 . S
H1973 C2016 0.929 . S
H1974 C2018 0.931 . S
H1975 C2019 0.930 . S
H1976 C2021 0.929 . S
H1977 C2022 0.931 . S
H1978 C2024 0.930 . S
H1979 C2025 0.929 . S
O1980 H1954 0.856 . S
O1980 C2026 1.300 . S
O1981 C2026 1.209 . S
O1982 C2027 1.199 . S
O1983 H1955 0.854 . S
O1983 C2027 1.297 . S
C1984 C1985 1.404 . S
C1984 C1989 1.397 . S
C1984 C1990 1.492 . S
C1985 C1984 1.404 . S
C1985 C1986 1.396 . S
C1985 C1996 1.492 . S
C1986 C1985 1.396 . S
C1986 C1987 1.397 . S
C1986 C2002 1.509 . S
C1987 C1986 1.397 . S
C1987 C1988 1.412 . S
C1987 C2008 1.485 . S
C1988 C1987 1.412 . S
C1988 C1989 1.388 . S
C1988 C2014 1.490 . S
C1989 C1984 1.397 . S
C1989 C1988 1.388 . S
C1989 C2020 1.519 . S
C1990 C1984 1.492 . S
C1990 C1991 1.363 . S
C1990 C1995 1.390 . S
C1991 H1956 0.930 . S
C1991 C1990 1.363 . S
C1991 C1992 1.372 . S
C1992 H1957 0.930 . S
C1992 C1991 1.372 . S
C1992 C1993 1.383 . S
C1993 C1992 1.383 . S
C1993 C1994 1.395 . S
C1994 H1958 0.930 . S
C1994 C1993 1.395 . S
C1994 C1995 1.362 . S
C1995 H1959 0.930 . S
C1995 C1990 1.390 . S
C1995 C1994 1.362 . S
C1996 C1985 1.492 . S
C1996 C1997 1.377 . S
C1996 C2001 1.397 . S
C1997 H1960 0.931 . S
C1997 C1996 1.377 . S
C1997 C1998 1.376 . S
C1998 H1961 0.930 . S
C1998 C1997 1.376 . S
C1998 C1999 1.376 . S
C1999 C1998 1.376 . S
C1999 C2000 1.378 . S
C1999 C2026 1.486 1_556 S
C2000 H1962 0.930 . S
C2000 C1999 1.378 . S
C2000 C2001 1.376 . S
C2001 H1963 0.929 . S
C2001 C1996 1.397 . S
C2001 C2000 1.376 . S
C2002 C1986 1.509 . S
C2002 C2003 1.391 . S
C2002 C2007 1.386 . S
C2003 H1964 0.930 . S
C2003 C2002 1.391 . S
C2003 C2004 1.375 . S
C2004 H1965 0.931 . S
C2004 C2003 1.375 . S
C2004 C2005 1.375 . S
C2005 C2004 1.375 . S
C2005 C2006 1.361 . S
C2006 H1966 0.930 . S
C2006 C2005 1.361 . S
C2006 C2007 1.399 . S
C2007 H1967 0.929 . S
C2007 C2002 1.386 . S
C2007 C2006 1.399 . S
C2008 C1987 1.485 . S
C2008 C2009 1.394 . S
C2008 C2013 1.360 . S
C2009 H1968 0.931 . S
C2009 C2008 1.394 . S
C2009 C2010 1.372 . S
C2010 H1969 0.930 . S
C2010 C2009 1.372 . S
C2010 C2011 1.397 . S
C2011 C2010 1.397 . S
C2011 C2012 1.390 . S
C2011 C2027 1.476 . S
C2012 H1970 0.930 . S
C2012 C2011 1.390 . S
C2012 C2013 1.366 . S
C2013 H1971 0.932 . S
C2013 C2008 1.360 . S
C2013 C2012 1.366 . S
C2014 C1988 1.490 . S
C2014 C2015 1.380 . S
C2014 C2019 1.386 . S
C2015 H1972 0.930 . S
C2015 C2014 1.380 . S
C2015 C2016 1.381 . S
C2016 H1973 0.929 . S
C2016 C2015 1.381 . S
C2016 C2017 1.371 . S
C2017 C2016 1.371 . S
C2017 C2018 1.380 . S
C2018 H1974 0.931 . S
C2018 C2017 1.380 . S
C2018 C2019 1.387 . S
C2019 H1975 0.930 . S
C2019 C2014 1.386 . S
C2019 C2018 1.387 . S
C2020 C1989 1.519 . S
C2020 C2021 1.377 . S
C2020 C2025 1.361 . S
C2021 H1976 0.929 . S
C2021 C2020 1.377 . S
C2021 C2022 1.386 . S
C2022 H1977 0.931 . S
C2022 C2021 1.386 . S
C2022 C2023 1.363 . S
C2023 C2022 1.363 . S
C2023 C2024 1.385 . S
C2024 H1978 0.930 . S
C2024 C2023 1.385 . S
C2024 C2025 1.396 . S
C2025 H1979 0.929 . S
C2025 C2020 1.361 . S
C2025 C2024 1.396 . S
C2026 O1980 1.300 . S
C2026 O1981 1.209 . S
C2026 C1999 1.486 1_554 S
C2027 O1982 1.199 . S
C2027 O1983 1.297 . S
C2027 C2011 1.476 . S
H2028 O2054 0.856 . S
H2029 O2057 0.854 . S
H2030 C2065 0.930 . S
H2031 C2066 0.930 . S
H2032 C2068 0.930 . S
H2033 C2069 0.930 . S
H2034 C2071 0.931 . S
H2035 C2072 0.930 . S
H2036 C2074 0.930 . S
H2037 C2075 0.929 . S
H2038 C2077 0.930 . S
H2039 C2078 0.931 . S
H2040 C2080 0.930 . S
H2041 C2081 0.929 . S
H2042 C2083 0.931 . S
H2043 C2084 0.930 . S
H2044 C2086 0.930 . S
H2045 C2087 0.932 . S
H2046 C2089 0.930 . S
H2047 C2090 0.929 . S
H2048 C2092 0.931 . S
H2049 C2093 0.930 . S
H2050 C2095 0.929 . S
H2051 C2096 0.931 . S
H2052 C2098 0.930 . S
H2053 C2099 0.929 . S
O2054 H2028 0.856 . S
O2054 C2100 1.300 . S
O2055 C2100 1.209 . S
O2056 C2101 1.199 . S
O2057 H2029 0.854 . S
O2057 C2101 1.297 . S
C2058 C2059 1.404 . S
C2058 C2063 1.397 . S
C2058 C2064 1.492 . S
C2059 C2058 1.404 . S
C2059 C2060 1.396 . S
C2059 C2070 1.492 . S
C2060 C2059 1.396 . S
C2060 C2061 1.397 . S
C2060 C2076 1.509 . S
C2061 C2060 1.397 . S
C2061 C2062 1.412 . S
C2061 C2082 1.485 . S
C2062 C2061 1.412 . S
C2062 C2063 1.388 . S
C2062 C2088 1.490 . S
C2063 C2058 1.397 . S
C2063 C2062 1.388 . S
C2063 C2094 1.519 . S
C2064 C2058 1.492 . S
C2064 C2065 1.363 . S
C2064 C2069 1.390 . S
C2065 H2030 0.930 . S
C2065 C2064 1.363 . S
C2065 C2066 1.372 . S
C2066 H2031 0.930 . S
C2066 C2065 1.372 . S
C2066 C2067 1.383 . S
C2067 C2066 1.383 . S
C2067 C2068 1.395 . S
C2068 H2032 0.930 . S
C2068 C2067 1.395 . S
C2068 C2069 1.362 . S
C2069 H2033 0.930 . S
C2069 C2064 1.390 . S
C2069 C2068 1.362 . S
C2070 C2059 1.492 . S
C2070 C2071 1.377 . S
C2070 C2075 1.397 . S
C2071 H2034 0.931 . S
C2071 C2070 1.377 . S
C2071 C2072 1.376 . S
C2072 H2035 0.930 . S
C2072 C2071 1.376 . S
C2072 C2073 1.376 . S
C2073 C2072 1.376 . S
C2073 C2074 1.378 . S
C2073 C2100 1.486 . S
C2074 H2036 0.930 . S
C2074 C2073 1.378 . S
C2074 C2075 1.376 . S
C2075 H2037 0.929 . S
C2075 C2070 1.397 . S
C2075 C2074 1.376 . S
C2076 C2060 1.509 . S
C2076 C2077 1.391 . S
C2076 C2081 1.386 . S
C2077 H2038 0.930 . S
C2077 C2076 1.391 . S
C2077 C2078 1.375 . S
C2078 H2039 0.931 . S
C2078 C2077 1.375 . S
C2078 C2079 1.375 . S
C2079 C2078 1.375 . S
C2079 C2080 1.361 . S
C2080 H2040 0.930 . S
C2080 C2079 1.361 . S
C2080 C2081 1.399 . S
C2081 H2041 0.929 . S
C2081 C2076 1.386 . S
C2081 C2080 1.399 . S
C2082 C2061 1.485 . S
C2082 C2083 1.394 . S
C2082 C2087 1.360 . S
C2083 H2042 0.931 . S
C2083 C2082 1.394 . S
C2083 C2084 1.372 . S
C2084 H2043 0.930 . S
C2084 C2083 1.372 . S
C2084 C2085 1.397 . S
C2085 C2084 1.397 . S
C2085 C2086 1.390 . S
C2085 C2101 1.476 . S
C2086 H2044 0.930 . S
C2086 C2085 1.390 . S
C2086 C2087 1.366 . S
C2087 H2045 0.932 . S
C2087 C2082 1.360 . S
C2087 C2086 1.366 . S
C2088 C2062 1.490 . S
C2088 C2089 1.380 . S
C2088 C2093 1.386 . S
C2089 H2046 0.930 . S
C2089 C2088 1.380 . S
C2089 C2090 1.381 . S
C2090 H2047 0.929 . S
C2090 C2089 1.381 . S
C2090 C2091 1.371 . S
C2091 C2090 1.371 . S
C2091 C2092 1.380 . S
C2092 H2048 0.931 . S
C2092 C2091 1.380 . S
C2092 C2093 1.387 . S
C2093 H2049 0.930 . S
C2093 C2088 1.386 . S
C2093 C2092 1.387 . S
C2094 C2063 1.519 . S
C2094 C2095 1.377 . S
C2094 C2099 1.361 . S
C2095 H2050 0.929 . S
C2095 C2094 1.377 . S
C2095 C2096 1.386 . S
C2096 H2051 0.931 . S
C2096 C2095 1.386 . S
C2096 C2097 1.363 . S
C2097 C2096 1.363 . S
C2097 C2098 1.385 . S
C2098 H2052 0.930 . S
C2098 C2097 1.385 . S
C2098 C2099 1.396 . S
C2099 H2053 0.929 . S
C2099 C2094 1.361 . S
C2099 C2098 1.396 . S
C2100 O2054 1.300 . S
C2100 O2055 1.209 . S
C2100 C2073 1.486 . S
C2101 O2056 1.199 . S
C2101 O2057 1.297 . S
C2101 C2085 1.476 . S
H2102 O2128 0.856 . S
H2103 O2131 0.854 . S
H2104 C2139 0.930 . S
H2105 C2140 0.930 . S
H2106 C2142 0.930 . S
H2107 C2143 0.930 . S
H2108 C2145 0.931 . S
H2109 C2146 0.930 . S
H2110 C2148 0.930 . S
H2111 C2149 0.929 . S
H2112 C2151 0.930 . S
H2113 C2152 0.931 . S
H2114 C2154 0.930 . S
H2115 C2155 0.929 . S
H2116 C2157 0.931 . S
H2117 C2158 0.930 . S
H2118 C2160 0.930 . S
H2119 C2161 0.932 . S
H2120 C2163 0.930 . S
H2121 C2164 0.929 . S
H2122 C2166 0.931 . S
H2123 C2167 0.930 . S
H2124 C2169 0.929 . S
H2125 C2170 0.931 . S
H2126 C2172 0.930 . S
H2127 C2173 0.929 . S
O2128 H2102 0.856 . S
O2128 C2174 1.300 . S
O2129 C2174 1.209 . S
O2130 C2175 1.199 . S
O2131 H2103 0.854 . S
O2131 C2175 1.297 . S
C2132 C2133 1.404 . S
C2132 C2137 1.397 . S
C2132 C2138 1.492 . S
C2133 C2132 1.404 . S
C2133 C2134 1.396 . S
C2133 C2144 1.492 . S
C2134 C2133 1.396 . S
C2134 C2135 1.397 . S
C2134 C2150 1.509 . S
C2135 C2134 1.397 . S
C2135 C2136 1.412 . S
C2135 C2156 1.485 . S
C2136 C2135 1.412 . S
C2136 C2137 1.388 . S
C2136 C2162 1.490 . S
C2137 C2132 1.397 . S
C2137 C2136 1.388 . S
C2137 C2168 1.519 . S
C2138 C2132 1.492 . S
C2138 C2139 1.363 . S
C2138 C2143 1.390 . S
C2139 H2104 0.930 . S
C2139 C2138 1.363 . S
C2139 C2140 1.372 . S
C2140 H2105 0.930 . S
C2140 C2139 1.372 . S
C2140 C2141 1.383 . S
C2141 C2140 1.383 . S
C2141 C2142 1.395 . S
C2142 H2106 0.930 . S
C2142 C2141 1.395 . S
C2142 C2143 1.362 . S
C2143 H2107 0.930 . S
C2143 C2138 1.390 . S
C2143 C2142 1.362 . S
C2144 C2133 1.492 . S
C2144 C2145 1.377 . S
C2144 C2149 1.397 . S
C2145 H2108 0.931 . S
C2145 C2144 1.377 . S
C2145 C2146 1.376 . S
C2146 H2109 0.930 . S
C2146 C2145 1.376 . S
C2146 C2147 1.376 . S
C2147 C2146 1.376 . S
C2147 C2148 1.378 . S
C2147 C2174 1.486 . S
C2148 H2110 0.930 . S
C2148 C2147 1.378 . S
C2148 C2149 1.376 . S
C2149 H2111 0.929 . S
C2149 C2144 1.397 . S
C2149 C2148 1.376 . S
C2150 C2134 1.509 . S
C2150 C2151 1.391 . S
C2150 C2155 1.386 . S
C2151 H2112 0.930 . S
C2151 C2150 1.391 . S
C2151 C2152 1.375 . S
C2152 H2113 0.931 . S
C2152 C2151 1.375 . S
C2152 C2153 1.375 . S
C2153 C2152 1.375 . S
C2153 C2154 1.361 . S
C2154 H2114 0.930 . S
C2154 C2153 1.361 . S
C2154 C2155 1.399 . S
C2155 H2115 0.929 . S
C2155 C2150 1.386 . S
C2155 C2154 1.399 . S
C2156 C2135 1.485 . S
C2156 C2157 1.394 . S
C2156 C2161 1.360 . S
C2157 H2116 0.931 . S
C2157 C2156 1.394 . S
C2157 C2158 1.372 . S
C2158 H2117 0.930 . S
C2158 C2157 1.372 . S
C2158 C2159 1.397 . S
C2159 C2158 1.397 . S
C2159 C2160 1.390 . S
C2159 C2175 1.476 . S
C2160 H2118 0.930 . S
C2160 C2159 1.390 . S
C2160 C2161 1.366 . S
C2161 H2119 0.932 . S
C2161 C2156 1.360 . S
C2161 C2160 1.366 . S
C2162 C2136 1.490 . S
C2162 C2163 1.380 . S
C2162 C2167 1.386 . S
C2163 H2120 0.930 . S
C2163 C2162 1.380 . S
C2163 C2164 1.381 . S
C2164 H2121 0.929 . S
C2164 C2163 1.381 . S
C2164 C2165 1.371 . S
C2165 C2164 1.371 . S
C2165 C2166 1.380 . S
C2166 H2122 0.931 . S
C2166 C2165 1.380 . S
C2166 C2167 1.387 . S
C2167 H2123 0.930 . S
C2167 C2162 1.386 . S
C2167 C2166 1.387 . S
C2168 C2137 1.519 . S
C2168 C2169 1.377 . S
C2168 C2173 1.361 . S
C2169 H2124 0.929 . S
C2169 C2168 1.377 . S
C2169 C2170 1.386 . S
C2170 H2125 0.931 . S
C2170 C2169 1.386 . S
C2170 C2171 1.363 . S
C2171 C2170 1.363 . S
C2171 C2172 1.385 . S
C2172 H2126 0.930 . S
C2172 C2171 1.385 . S
C2172 C2173 1.396 . S
C2173 H2127 0.929 . S
C2173 C2168 1.361 . S
C2173 C2172 1.396 . S
C2174 O2128 1.300 . S
C2174 O2129 1.209 . S
C2174 C2147 1.486 . S
C2175 O2130 1.199 . S
C2175 O2131 1.297 . S
C2175 C2159 1.476 . S
H2176 O2202 0.856 . S
H2177 O2205 0.854 . S
H2178 C2213 0.930 . S
H2179 C2214 0.930 . S
H2180 C2216 0.930 . S
H2181 C2217 0.930 . S
H2182 C2219 0.931 . S
H2183 C2220 0.930 . S
H2184 C2222 0.930 . S
H2185 C2223 0.929 . S
H2186 C2225 0.930 . S
H2187 C2226 0.931 . S
H2188 C2228 0.930 . S
H2189 C2229 0.929 . S
H2190 C2231 0.931 . S
H2191 C2232 0.930 . S
H2192 C2234 0.930 . S
H2193 C2235 0.932 . S
H2194 C2237 0.930 . S
H2195 C2238 0.929 . S
H2196 C2240 0.931 . S
H2197 C2241 0.930 . S
H2198 C2243 0.929 . S
H2199 C2244 0.931 . S
H2200 C2246 0.930 . S
H2201 C2247 0.929 . S
O2202 H2176 0.856 . S
O2202 C2248 1.300 . S
O2203 C2248 1.209 . S
O2204 C2249 1.199 . S
O2205 H2177 0.854 . S
O2205 C2249 1.297 . S
C2206 C2207 1.404 . S
C2206 C2211 1.397 . S
C2206 C2212 1.492 . S
C2207 C2206 1.404 . S
C2207 C2208 1.396 . S
C2207 C2218 1.492 . S
C2208 C2207 1.396 . S
C2208 C2209 1.397 . S
C2208 C2224 1.509 . S
C2209 C2208 1.397 . S
C2209 C2210 1.412 . S
C2209 C2230 1.485 . S
C2210 C2209 1.412 . S
C2210 C2211 1.388 . S
C2210 C2236 1.490 . S
C2211 C2206 1.397 . S
C2211 C2210 1.388 . S
C2211 C2242 1.519 . S
C2212 C2206 1.492 . S
C2212 C2213 1.363 . S
C2212 C2217 1.390 . S
C2213 H2178 0.930 . S
C2213 C2212 1.363 . S
C2213 C2214 1.372 . S
C2214 H2179 0.930 . S
C2214 C2213 1.372 . S
C2214 C2215 1.383 . S
C2215 C2214 1.383 . S
C2215 C2216 1.395 . S
C2216 H2180 0.930 . S
C2216 C2215 1.395 . S
C2216 C2217 1.362 . S
C2217 H2181 0.930 . S
C2217 C2212 1.390 . S
C2217 C2216 1.362 . S
C2218 C2207 1.492 . S
C2218 C2219 1.377 . S
C2218 C2223 1.397 . S
C2219 H2182 0.931 . S
C2219 C2218 1.377 . S
C2219 C2220 1.376 . S
C2220 H2183 0.930 . S
C2220 C2219 1.376 . S
C2220 C2221 1.376 . S
C2221 C2220 1.376 . S
C2221 C2222 1.378 . S
C2221 C2248 1.486 . S
C2222 H2184 0.930 . S
C2222 C2221 1.378 . S
C2222 C2223 1.376 . S
C2223 H2185 0.929 . S
C2223 C2218 1.397 . S
C2223 C2222 1.376 . S
C2224 C2208 1.509 . S
C2224 C2225 1.391 . S
C2224 C2229 1.386 . S
C2225 H2186 0.930 . S
C2225 C2224 1.391 . S
C2225 C2226 1.375 . S
C2226 H2187 0.931 . S
C2226 C2225 1.375 . S
C2226 C2227 1.375 . S
C2227 C2226 1.375 . S
C2227 C2228 1.361 . S
C2228 H2188 0.930 . S
C2228 C2227 1.361 . S
C2228 C2229 1.399 . S
C2229 H2189 0.929 . S
C2229 C2224 1.386 . S
C2229 C2228 1.399 . S
C2230 C2209 1.485 . S
C2230 C2231 1.394 . S
C2230 C2235 1.360 . S
C2231 H2190 0.931 . S
C2231 C2230 1.394 . S
C2231 C2232 1.372 . S
C2232 H2191 0.930 . S
C2232 C2231 1.372 . S
C2232 C2233 1.397 . S
C2233 C2232 1.397 . S
C2233 C2234 1.390 . S
C2233 C2249 1.476 . S
C2234 H2192 0.930 . S
C2234 C2233 1.390 . S
C2234 C2235 1.366 . S
C2235 H2193 0.932 . S
C2235 C2230 1.360 . S
C2235 C2234 1.366 . S
C2236 C2210 1.490 . S
C2236 C2237 1.380 . S
C2236 C2241 1.386 . S
C2237 H2194 0.930 . S
C2237 C2236 1.380 . S
C2237 C2238 1.381 . S
C2238 H2195 0.929 . S
C2238 C2237 1.381 . S
C2238 C2239 1.371 . S
C2239 C2238 1.371 . S
C2239 C2240 1.380 . S
C2240 H2196 0.931 . S
C2240 C2239 1.380 . S
C2240 C2241 1.387 . S
C2241 H2197 0.930 . S
C2241 C2236 1.386 . S
C2241 C2240 1.387 . S
C2242 C2211 1.519 . S
C2242 C2243 1.377 . S
C2242 C2247 1.361 . S
C2243 H2198 0.929 . S
C2243 C2242 1.377 . S
C2243 C2244 1.386 . S
C2244 H2199 0.931 . S
C2244 C2243 1.386 . S
C2244 C2245 1.363 . S
C2245 C2244 1.363 . S
C2245 C2246 1.385 . S
C2246 H2200 0.930 . S
C2246 C2245 1.385 . S
C2246 C2247 1.396 . S
C2247 H2201 0.929 . S
C2247 C2242 1.361 . S
C2247 C2246 1.396 . S
C2248 O2202 1.300 . S
C2248 O2203 1.209 . S
C2248 C2221 1.486 . S
C2249 O2204 1.199 . S
C2249 O2205 1.297 . S
C2249 C2233 1.476 . S
H2250 O2276 0.856 . S
H2251 O2279 0.854 . S
H2252 C2287 0.930 . S
H2253 C2288 0.930 . S
H2254 C2290 0.930 . S
H2255 C2291 0.930 . S
H2256 C2293 0.931 . S
H2257 C2294 0.930 1_655 S
H2258 C2296 0.930 . S
H2259 C2297 0.929 . S
H2260 C2299 0.930 . S
H2261 C2300 0.910 1_655 S
H2262 C2302 0.930 . S
H2263 C2303 0.929 . S
H2264 C2305 0.931 . S
H2265 C2306 0.930 . S
H2266 C2308 0.930 . S
H2267 C2309 0.932 . S
H2268 C2311 0.930 . S
H2269 C2312 0.929 . S
H2270 C2314 0.931 . S
H2271 C2315 0.930 . S
H2272 C2317 0.929 . S
H2273 C2318 0.931 . S
H2274 C2320 0.930 . S
H2275 C2321 0.929 . S
O2276 H2250 0.856 . S
O2276 C2322 1.300 . S
O2277 C2322 1.209 . S
O2278 C2323 1.199 1_655 S
O2279 H2251 0.854 . S
O2279 C2323 1.297 . S
C2280 C2281 1.404 . S
C2280 C2285 1.395 . S
C2280 C2286 1.492 . S
C2281 C2280 1.404 . S
C2281 C2282 1.396 . S
C2281 C2292 1.492 . S
C2282 C2281 1.396 . S
C2282 C2283 1.397 . S
C2282 C2298 1.509 . S
C2283 C2282 1.397 . S
C2283 C2284 1.423 . S
C2283 C2304 1.485 . S
C2284 C2283 1.423 . S
C2284 C2285 1.405 . S
C2284 C2310 1.490 1_455 S
C2285 C2280 1.395 . S
C2285 C2284 1.405 . S
C2285 C2316 1.488 1_455 S
C2286 C2280 1.492 . S
C2286 C2287 1.363 1_455 S
C2286 C2291 1.390 . S
C2287 H2252 0.930 . S
C2287 C2286 1.363 1_655 S
C2287 C2288 1.372 . S
C2288 H2253 0.930 . S
C2288 C2287 1.372 . S
C2288 C2289 1.383 . S
C2289 C2288 1.383 . S
C2289 C2290 1.395 1_655 S
C2290 H2254 0.930 . S
C2290 C2289 1.395 1_455 S
C2290 C2291 1.362 . S
C2291 H2255 0.930 . S
C2291 C2286 1.390 . S
C2291 C2290 1.362 . S
C2292 C2281 1.492 . S
C2292 C2293 1.377 1_455 S
C2292 C2297 1.397 . S
C2293 H2256 0.931 . S
C2293 C2292 1.377 1_655 S
C2293 C2294 1.376 1_655 S
C2294 H2257 0.930 1_455 S
C2294 C2293 1.376 1_455 S
C2294 C2295 1.376 . S
C2295 C2294 1.376 . S
C2295 C2296 1.378 . S
C2295 C2322 1.486 . S
C2296 H2258 0.930 . S
C2296 C2295 1.378 . S
C2296 C2297 1.376 . S
C2297 H2259 0.929 . S
C2297 C2292 1.397 . S
C2297 C2296 1.376 . S
C2298 C2282 1.509 . S
C2298 C2299 1.391 1_455 S
C2298 C2303 1.386 . S
C2299 H2260 0.930 . S
C2299 C2298 1.391 1_655 S
C2299 C2300 1.345 1_655 S
C2300 H2261 0.910 1_455 S
C2300 C2299 1.345 1_455 S
C2300 C2301 1.428 . S
C2301 C2300 1.428 . S
C2301 C2302 1.361 . S
C2302 H2262 0.930 . S
C2302 C2301 1.361 . S
C2302 C2303 1.399 . S
C2303 H2263 0.929 . S
C2303 C2298 1.386 . S
C2303 C2302 1.399 . S
C2304 C2283 1.485 . S
C2304 C2305 1.394 1_455 S
C2304 C2309 1.360 . S
C2305 H2264 0.931 . S
C2305 C2304 1.394 1_655 S
C2305 C2306 1.372 . S
C2306 H2265 0.930 . S
C2306 C2305 1.372 . S
C2306 C2307 1.397 1_655 S
C2307 C2306 1.397 1_455 S
C2307 C2308 1.390 . S
C2307 C2323 1.476 . S
C2308 H2266 0.930 . S
C2308 C2307 1.390 . S
C2308 C2309 1.366 . S
C2309 H2267 0.932 . S
C2309 C2304 1.360 . S
C2309 C2308 1.366 . S
C2310 C2284 1.490 1_655 S
C2310 C2311 1.380 . S
C2310 C2315 1.386 1_655 S
C2311 H2268 0.930 . S
C2311 C2310 1.380 . S
C2311 C2312 1.381 . S
C2312 H2269 0.929 . S
C2312 C2311 1.381 . S
C2312 C2313 1.371 . S
C2313 C2312 1.371 . S
C2313 C2314 1.380 1_655 S
C2314 H2270 0.931 . S
C2314 C2313 1.380 1_455 S
C2314 C2315 1.387 . S
C2315 H2271 0.930 . S
C2315 C2310 1.386 1_455 S
C2315 C2314 1.387 . S
C2316 C2285 1.488 1_655 S
C2316 C2317 1.407 . S
C2316 C2321 1.341 1_655 S
C2317 H2272 0.929 . S
C2317 C2316 1.407 . S
C2317 C2318 1.386 . S
C2318 H2273 0.931 . S
C2318 C2317 1.386 . S
C2318 C2319 1.381 . S
C2319 C2318 1.381 . S
C2319 C2320 1.358 1_655 S
C2320 H2274 0.930 . S
C2320 C2319 1.358 1_455 S
C2320 C2321 1.396 . S
C2321 H2275 0.929 . S
C2321 C2316 1.341 1_455 S
C2321 C2320 1.396 . S
C2322 O2276 1.300 . S
C2322 O2277 1.209 . S
C2322 C2295 1.486 . S
C2323 O2278 1.199 1_455 S
C2323 O2279 1.297 . S
C2323 C2307 1.476 . S
H2324 O2350 0.856 . S
H2325 O2353 0.854 . S
H2326 C2361 0.930 . S
H2327 C2362 0.930 . S
H2328 C2364 0.930 . S
H2329 C2365 0.930 . S
H2330 C2367 0.931 . S
H2331 C2368 0.930 . S
H2332 C2370 0.930 . S
H2333 C2371 0.929 . S
H2334 C2373 0.930 . S
H2335 C2374 0.931 . S
H2336 C2376 0.930 . S
H2337 C2377 0.929 . S
H2338 C2379 0.931 . S
H2339 C2380 0.930 . S
H2340 C2382 0.930 . S
H2341 C2383 0.932 . S
H2342 C2385 0.930 . S
H2343 C2386 0.929 . S
H2344 C2388 0.931 . S
H2345 C2389 0.930 . S
H2346 C2391 0.929 . S
H2347 C2392 0.931 . S
H2348 C2394 0.930 . S
H2349 C2395 0.929 . S
O2350 H2324 0.856 . S
O2350 C2396 1.300 . S
O2351 C2396 1.209 . S
O2352 C2397 1.199 . S
O2353 H2325 0.854 . S
O2353 C2397 1.297 . S
C2354 C2355 1.404 . S
C2354 C2359 1.397 . S
C2354 C2360 1.492 . S
C2355 C2354 1.404 . S
C2355 C2356 1.396 . S
C2355 C2366 1.492 . S
C2356 C2355 1.396 . S
C2356 C2357 1.397 . S
C2356 C2372 1.509 . S
C2357 C2356 1.397 . S
C2357 C2358 1.412 . S
C2357 C2378 1.485 . S
C2358 C2357 1.412 . S
C2358 C2359 1.388 . S
C2358 C2384 1.490 . S
C2359 C2354 1.397 . S
C2359 C2358 1.388 . S
C2359 C2390 1.519 . S
C2360 C2354 1.492 . S
C2360 C2361 1.363 . S
C2360 C2365 1.390 . S
C2361 H2326 0.930 . S
C2361 C2360 1.363 . S
C2361 C2362 1.372 . S
C2362 H2327 0.930 . S
C2362 C2361 1.372 . S
C2362 C2363 1.383 . S
C2363 C2362 1.383 . S
C2363 C2364 1.395 . S
C2364 H2328 0.930 . S
C2364 C2363 1.395 . S
C2364 C2365 1.362 . S
C2365 H2329 0.930 . S
C2365 C2360 1.390 . S
C2365 C2364 1.362 . S
C2366 C2355 1.492 . S
C2366 C2367 1.377 . S
C2366 C2371 1.397 . S
C2367 H2330 0.931 . S
C2367 C2366 1.377 . S
C2367 C2368 1.376 . S
C2368 H2331 0.930 . S
C2368 C2367 1.376 . S
C2368 C2369 1.376 . S
C2369 C2368 1.376 . S
C2369 C2370 1.378 . S
C2369 C2396 1.486 . S
C2370 H2332 0.930 . S
C2370 C2369 1.378 . S
C2370 C2371 1.376 . S
C2371 H2333 0.929 . S
C2371 C2366 1.397 . S
C2371 C2370 1.376 . S
C2372 C2356 1.509 . S
C2372 C2373 1.391 . S
C2372 C2377 1.386 . S
C2373 H2334 0.930 . S
C2373 C2372 1.391 . S
C2373 C2374 1.375 . S
C2374 H2335 0.931 . S
C2374 C2373 1.375 . S
C2374 C2375 1.375 . S
C2375 C2374 1.375 . S
C2375 C2376 1.361 . S
C2376 H2336 0.930 . S
C2376 C2375 1.361 . S
C2376 C2377 1.399 . S
C2377 H2337 0.929 . S
C2377 C2372 1.386 . S
C2377 C2376 1.399 . S
C2378 C2357 1.485 . S
C2378 C2379 1.394 . S
C2378 C2383 1.360 . S
C2379 H2338 0.931 . S
C2379 C2378 1.394 . S
C2379 C2380 1.372 . S
C2380 H2339 0.930 . S
C2380 C2379 1.372 . S
C2380 C2381 1.397 . S
C2381 C2380 1.397 . S
C2381 C2382 1.390 . S
C2381 C2397 1.476 . S
C2382 H2340 0.930 . S
C2382 C2381 1.390 . S
C2382 C2383 1.366 . S
C2383 H2341 0.932 . S
C2383 C2378 1.360 . S
C2383 C2382 1.366 . S
C2384 C2358 1.490 . S
C2384 C2385 1.380 . S
C2384 C2389 1.386 . S
C2385 H2342 0.930 . S
C2385 C2384 1.380 . S
C2385 C2386 1.381 . S
C2386 H2343 0.929 . S
C2386 C2385 1.381 . S
C2386 C2387 1.371 . S
C2387 C2386 1.371 . S
C2387 C2388 1.380 . S
C2388 H2344 0.931 . S
C2388 C2387 1.380 . S
C2388 C2389 1.387 . S
C2389 H2345 0.930 . S
C2389 C2384 1.386 . S
C2389 C2388 1.387 . S
C2390 C2359 1.519 . S
C2390 C2391 1.377 . S
C2390 C2395 1.361 . S
C2391 H2346 0.929 . S
C2391 C2390 1.377 . S
C2391 C2392 1.386 . S
C2392 H2347 0.931 . S
C2392 C2391 1.386 . S
C2392 C2393 1.363 . S
C2393 C2392 1.363 . S
C2393 C2394 1.385 . S
C2394 H2348 0.930 . S
C2394 C2393 1.385 . S
C2394 C2395 1.396 . S
C2395 H2349 0.929 . S
C2395 C2390 1.361 . S
C2395 C2394 1.396 . S
C2396 O2350 1.300 . S
C2396 O2351 1.209 . S
C2396 C2369 1.486 . S
C2397 O2352 1.199 . S
C2397 O2353 1.297 . S
C2397 C2381 1.476 . S
H2398 O2424 0.856 . S
H2399 O2427 0.854 . S
H2400 C2435 0.930 . S
H2401 C2436 0.930 . S
H2402 C2438 0.930 . S
H2403 C2439 0.930 . S
H2404 C2441 0.931 . S
H2405 C2442 0.932 . S
H2406 C2444 0.930 . S
H2407 C2445 0.929 . S
H2408 C2447 0.930 . S
H2409 C2448 1.001 . S
H2410 C2450 0.930 . S
H2411 C2451 0.929 . S
H2412 C2453 0.931 . S
H2413 C2454 0.930 . S
H2414 C2456 0.930 . S
H2415 C2457 0.932 . S
H2416 C2459 0.930 . S
H2417 C2460 0.929 . S
H2418 C2462 0.931 . S
H2419 C2463 0.930 . S
H2420 C2465 0.929 . S
H2421 C2466 0.931 . S
H2422 C2468 0.930 . S
H2423 C2469 0.929 . S
O2424 H2398 0.856 . S
O2424 C2470 1.300 . S
O2425 C2470 1.209 . S
O2426 C2471 1.199 1_545 S
O2427 H2399 0.854 . S
O2427 C2471 1.297 . S
C2428 C2429 1.404 . S
C2428 C2433 1.413 . S
C2428 C2434 1.492 . S
C2429 C2428 1.404 . S
C2429 C2430 1.396 . S
C2429 C2440 1.492 . S
C2430 C2429 1.396 . S
C2430 C2431 1.397 . S
C2430 C2446 1.509 . S
C2431 C2430 1.397 . S
C2431 C2432 1.410 . S
C2431 C2452 1.485 . S
C2432 C2431 1.410 . S
C2432 C2433 1.368 . S
C2432 C2458 1.487 1_565 S
C2433 C2428 1.413 . S
C2433 C2432 1.368 . S
C2433 C2464 1.534 1_565 S
C2434 C2428 1.492 . S
C2434 C2435 1.363 1_565 S
C2434 C2439 1.390 . S
C2435 H2400 0.930 . S
C2435 C2434 1.363 1_545 S
C2435 C2436 1.372 . S
C2436 H2401 0.930 . S
C2436 C2435 1.372 . S
C2436 C2437 1.383 . S
C2437 C2436 1.383 . S
C2437 C2438 1.395 1_545 S
C2438 H2402 0.930 . S
C2438 C2437 1.395 1_565 S
C2438 C2439 1.362 . S
C2439 H2403 0.930 . S
C2439 C2434 1.390 . S
C2439 C2438 1.362 . S
C2440 C2429 1.492 . S
C2440 C2441 1.377 1_565 S
C2440 C2445 1.397 . S
C2441 H2404 0.931 . S
C2441 C2440 1.377 1_545 S
C2441 C2442 1.377 . S
C2442 H2405 0.932 . S
C2442 C2441 1.377 . S
C2442 C2443 1.372 1_545 S
C2443 C2442 1.372 1_565 S
C2443 C2444 1.378 . S
C2443 C2470 1.486 . S
C2444 H2406 0.930 . S
C2444 C2443 1.378 . S
C2444 C2445 1.376 . S
C2445 H2407 0.929 . S
C2445 C2440 1.397 . S
C2445 C2444 1.376 . S
C2446 C2430 1.509 . S
C2446 C2447 1.391 1_565 S
C2446 C2451 1.386 . S
C2447 H2408 0.930 . S
C2447 C2446 1.391 1_545 S
C2447 C2448 1.365 . S
C2448 H2409 1.001 . S
C2448 C2447 1.365 . S
C2448 C2449 1.320 1_545 S
C2449 C2448 1.320 1_565 S
C2449 C2450 1.361 . S
C2450 H2410 0.930 . S
C2450 C2449 1.361 . S
C2450 C2451 1.399 . S
C2451 H2411 0.929 . S
C2451 C2446 1.386 . S
C2451 C2450 1.399 . S
C2452 C2431 1.485 . S
C2452 C2453 1.394 1_565 S
C2452 C2457 1.360 . S
C2453 H2412 0.931 . S
C2453 C2452 1.394 1_545 S
C2453 C2454 1.372 . S
C2454 H2413 0.930 . S
C2454 C2453 1.372 . S
C2454 C2455 1.397 1_545 S
C2455 C2454 1.397 1_565 S
C2455 C2456 1.390 . S
C2455 C2471 1.476 . S
C2456 H2414 0.930 . S
C2456 C2455 1.390 . S
C2456 C2457 1.366 . S
C2457 H2415 0.932 . S
C2457 C2452 1.360 . S
C2457 C2456 1.366 . S
C2458 C2432 1.487 1_545 S
C2458 C2459 1.380 . S
C2458 C2463 1.386 1_545 S
C2459 H2416 0.930 . S
C2459 C2458 1.380 . S
C2459 C2460 1.381 . S
C2460 H2417 0.929 . S
C2460 C2459 1.381 . S
C2460 C2461 1.371 . S
C2461 C2460 1.371 . S
C2461 C2462 1.380 1_545 S
C2462 H2418 0.931 . S
C2462 C2461 1.380 1_565 S
C2462 C2463 1.387 . S
C2463 H2419 0.930 . S
C2463 C2458 1.386 1_565 S
C2463 C2462 1.387 . S
C2464 C2433 1.534 1_545 S
C2464 C2465 1.377 . S
C2464 C2469 1.361 1_545 S
C2465 H2420 0.929 . S
C2465 C2464 1.377 . S
C2465 C2466 1.386 . S
C2466 H2421 0.931 . S
C2466 C2465 1.386 . S
C2466 C2467 1.328 1_545 S
C2467 C2466 1.328 1_565 S
C2467 C2468 1.403 . S
C2468 H2422 0.930 . S
C2468 C2467 1.403 . S
C2468 C2469 1.396 . S
C2469 H2423 0.929 . S
C2469 C2464 1.361 1_565 S
C2469 C2468 1.396 . S
C2470 O2424 1.300 . S
C2470 O2425 1.209 . S
C2470 C2443 1.486 . S
C2471 O2426 1.199 1_565 S
C2471 O2427 1.297 . S
C2471 C2455 1.476 . S
H2472 O2498 0.856 . S
H2473 O2501 0.854 . S
H2474 C2509 0.930 . S
H2475 C2510 0.930 . S
H2476 C2512 0.930 . S
H2477 C2513 0.930 . S
H2478 C2515 0.931 . S
H2479 C2516 0.930 . S
H2480 C2518 0.930 . S
H2481 C2519 0.929 . S
H2482 C2521 0.930 . S
H2483 C2522 0.931 . S
H2484 C2524 0.930 . S
H2485 C2525 0.929 . S
H2486 C2527 0.931 . S
H2487 C2528 0.930 . S
H2488 C2530 0.930 . S
H2489 C2531 0.932 . S
H2490 C2533 0.930 . S
H2491 C2534 0.929 . S
H2492 C2536 0.931 . S
H2493 C2537 0.930 . S
H2494 C2539 0.929 . S
H2495 C2540 0.931 . S
H2496 C2542 0.930 . S
H2497 C2543 0.929 . S
O2498 H2472 0.856 . S
O2498 C2544 1.300 . S
O2499 C2544 1.209 1_565 S
O2500 C2545 1.199 1_545 S
O2501 H2473 0.854 . S
O2501 C2545 1.297 . S
C2502 C2503 1.404 . S
C2502 C2507 1.398 1_545 S
C2502 C2508 1.492 . S
C2503 C2502 1.404 . S
C2503 C2504 1.432 . S
C2503 C2514 1.492 . S
C2504 C2503 1.432 . S
C2504 C2505 1.379 1_545 S
C2504 C2520 1.505 . S
C2505 C2504 1.379 1_565 S
C2505 C2506 1.417 . S
C2505 C2526 1.497 . S
C2506 C2505 1.417 . S
C2506 C2507 1.367 . S
C2506 C2532 1.488 . S
C2507 C2502 1.398 1_565 S
C2507 C2506 1.367 . S
C2507 C2538 1.520 . S
C2508 C2502 1.492 . S
C2508 C2509 1.363 . S
C2508 C2513 1.390 1_545 S
C2509 H2474 0.930 . S
C2509 C2508 1.363 . S
C2509 C2510 1.372 . S
C2510 H2475 0.930 . S
C2510 C2509 1.372 . S
C2510 C2511 1.383 . S
C2511 C2510 1.383 . S
C2511 C2512 1.395 1_545 S
C2512 H2476 0.930 . S
C2512 C2511 1.395 1_565 S
C2512 C2513 1.362 . S
C2513 H2477 0.930 . S
C2513 C2508 1.390 1_565 S
C2513 C2512 1.362 . S
C2514 C2503 1.492 . S
C2514 C2515 1.377 . S
C2514 C2519 1.397 1_545 S
C2515 H2478 0.931 . S
C2515 C2514 1.377 . S
C2515 C2516 1.376 . S
C2516 H2479 0.930 . S
C2516 C2515 1.376 . S
C2516 C2517 1.376 . S
C2517 C2516 1.376 . S
C2517 C2518 1.378 1_545 S
C2517 C2544 1.486 . S
C2518 H2480 0.930 . S
C2518 C2517 1.378 1_565 S
C2518 C2519 1.376 . S
C2519 H2481 0.929 . S
C2519 C2514 1.397 1_565 S
C2519 C2518 1.376 . S
C2520 C2504 1.505 . S
C2520 C2521 1.414 . S
C2520 C2525 1.348 1_545 S
C2521 H2482 0.930 . S
C2521 C2520 1.414 . S
C2521 C2522 1.375 . S
C2522 H2483 0.931 . S
C2522 C2521 1.375 . S
C2522 C2523 1.393 . S
C2523 C2522 1.393 . S
C2523 C2524 1.352 1_545 S
C2524 H2484 0.930 . S
C2524 C2523 1.352 1_565 S
C2524 C2525 1.399 . S
C2525 H2485 0.929 . S
C2525 C2520 1.348 1_565 S
C2525 C2524 1.399 . S
C2526 C2505 1.497 . S
C2526 C2527 1.394 1_565 S
C2526 C2531 1.360 . S
C2527 H2486 0.931 . S
C2527 C2526 1.394 1_545 S
C2527 C2528 1.372 . S
C2528 H2487 0.930 . S
C2528 C2527 1.372 . S
C2528 C2529 1.397 1_545 S
C2529 C2528 1.397 1_565 S
C2529 C2530 1.390 . S
C2529 C2545 1.476 . S
C2530 H2488 0.930 . S
C2530 C2529 1.390 . S
C2530 C2531 1.366 . S
C2531 H2489 0.932 . S
C2531 C2526 1.360 . S
C2531 C2530 1.366 . S
C2532 C2506 1.488 . S
C2532 C2533 1.342 1_565 S
C2532 C2537 1.433 . S
C2533 H2490 0.930 . S
C2533 C2532 1.342 1_545 S
C2533 C2534 1.381 . S
C2534 H2491 0.929 . S
C2534 C2533 1.381 . S
C2534 C2535 1.380 . S
C2535 C2534 1.380 . S
C2535 C2536 1.372 1_545 S
C2536 H2492 0.931 . S
C2536 C2535 1.372 1_565 S
C2536 C2537 1.387 . S
C2537 H2493 0.930 . S
C2537 C2532 1.433 . S
C2537 C2536 1.387 . S
C2538 C2507 1.520 . S
C2538 C2539 1.377 1_565 S
C2538 C2543 1.361 . S
C2539 H2494 0.929 . S
C2539 C2538 1.377 1_545 S
C2539 C2540 1.386 . S
C2540 H2495 0.931 . S
C2540 C2539 1.386 . S
C2540 C2541 1.363 1_545 S
C2541 C2540 1.363 1_565 S
C2541 C2542 1.385 . S
C2542 H2496 0.930 . S
C2542 C2541 1.385 . S
C2542 C2543 1.396 . S
C2543 H2497 0.929 . S
C2543 C2538 1.361 . S
C2543 C2542 1.396 . S
C2544 O2498 1.300 . S
C2544 O2499 1.209 1_545 S
C2544 C2517 1.486 . S
C2545 O2500 1.199 1_565 S
C2545 O2501 1.297 . S
C2545 C2529 1.476 . S
H2546 O2572 0.856 . S
H2547 O2575 0.854 . S
H2548 C2583 0.930 . S
H2549 C2584 0.930 . S
H2550 C2586 0.930 . S
H2551 C2587 0.930 . S
H2552 C2589 0.931 . S
H2553 C2590 0.930 . S
H2554 C2592 0.930 . S
H2555 C2593 0.929 . S
H2556 C2595 0.930 . S
H2557 C2596 0.931 . S
H2558 C2598 0.930 . S
H2559 C2599 0.929 . S
H2560 C2601 0.931 . S
H2561 C2602 0.930 . S
H2562 C2604 0.930 . S
H2563 C2605 0.932 . S
H2564 C2607 0.930 . S
H2565 C2608 0.929 . S
H2566 C2610 0.931 . S
H2567 C2611 0.930 . S
H2568 C2613 0.929 . S
H2569 C2614 0.931 . S
H2570 C2616 0.930 . S
H2571 C2617 0.929 . S
O2572 H2546 0.856 . S
O2572 C2618 1.300 . S
O2573 C2618 1.209 1_455 S
O2574 C2619 1.199 1_655 S
O2575 H2547 0.854 . S
O2575 C2619 1.297 . S
C2576 C2577 1.404 . S
C2576 C2581 1.398 . S
C2576 C2582 1.492 . S
C2577 C2576 1.404 . S
C2577 C2578 1.396 . S
C2577 C2588 1.492 . S
C2578 C2577 1.396 . S
C2578 C2579 1.397 . S
C2578 C2594 1.509 . S
C2579 C2578 1.397 . S
C2579 C2580 1.397 1_655 S
C2579 C2600 1.524 1_655 S
C2580 C2579 1.397 1_455 S
C2580 C2581 1.404 1_455 S
C2580 C2606 1.486 . S
C2581 C2576 1.398 . S
C2581 C2580 1.404 1_655 S
C2581 C2612 1.523 1_655 S
C2582 C2576 1.492 . S
C2582 C2583 1.363 . S
C2582 C2587 1.390 1_655 S
C2583 H2548 0.930 . S
C2583 C2582 1.363 . S
C2583 C2584 1.372 . S
C2584 H2549 0.930 . S
C2584 C2583 1.372 . S
C2584 C2585 1.383 . S
C2585 C2584 1.383 . S
C2585 C2586 1.395 1_655 S
C2586 H2550 0.930 . S
C2586 C2585 1.395 1_455 S
C2586 C2587 1.362 . S
C2587 H2551 0.930 . S
C2587 C2582 1.390 1_455 S
C2587 C2586 1.362 . S
C2588 C2577 1.492 . S
C2588 C2589 1.377 . S
C2588 C2593 1.397 1_655 S
C2589 H2552 0.931 . S
C2589 C2588 1.377 . S
C2589 C2590 1.376 . S
C2590 H2553 0.930 . S
C2590 C2589 1.376 . S
C2590 C2591 1.376 . S
C2591 C2590 1.376 . S
C2591 C2592 1.378 1_655 S
C2591 C2618 1.486 . S
C2592 H2554 0.930 . S
C2592 C2591 1.378 1_455 S
C2592 C2593 1.376 . S
C2593 H2555 0.929 . S
C2593 C2588 1.397 1_455 S
C2593 C2592 1.376 . S
C2594 C2578 1.509 . S
C2594 C2595 1.391 . S
C2594 C2599 1.386 1_655 S
C2595 H2556 0.930 . S
C2595 C2594 1.391 . S
C2595 C2596 1.375 . S
C2596 H2557 0.931 . S
C2596 C2595 1.375 . S
C2596 C2597 1.375 . S
C2597 C2596 1.375 . S
C2597 C2598 1.361 1_655 S
C2598 H2558 0.930 . S
C2598 C2597 1.361 1_455 S
C2598 C2599 1.399 . S
C2599 H2559 0.929 . S
C2599 C2594 1.386 1_455 S
C2599 C2598 1.399 . S
C2600 C2579 1.524 1_455 S
C2600 C2601 1.328 1_455 S
C2600 C2605 1.392 . S
C2601 H2560 0.931 . S
C2601 C2600 1.328 1_655 S
C2601 C2602 1.372 . S
C2602 H2561 0.930 . S
C2602 C2601 1.372 . S
C2602 C2603 1.397 1_655 S
C2603 C2602 1.397 1_455 S
C2603 C2604 1.390 . S
C2603 C2619 1.476 . S
C2604 H2562 0.930 . S
C2604 C2603 1.390 . S
C2604 C2605 1.366 . S
C2605 H2563 0.932 . S
C2605 C2600 1.392 . S
C2605 C2604 1.366 . S
C2606 C2580 1.486 . S
C2606 C2607 1.380 1_455 S
C2606 C2611 1.386 . S
C2607 H2564 0.930 . S
C2607 C2606 1.380 1_655 S
C2607 C2608 1.381 . S
C2608 H2565 0.929 . S
C2608 C2607 1.381 . S
C2608 C2609 1.371 1_655 S
C2609 C2608 1.371 1_455 S
C2609 C2610 1.380 . S
C2610 H2566 0.931 . S
C2610 C2609 1.380 . S
C2610 C2611 1.387 . S
C2611 H2567 0.930 . S
C2611 C2606 1.386 . S
C2611 C2610 1.387 . S
C2612 C2581 1.523 1_455 S
C2612 C2613 1.377 1_455 S
C2612 C2617 1.361 . S
C2613 H2568 0.929 . S
C2613 C2612 1.377 1_655 S
C2613 C2614 1.386 . S
C2614 H2569 0.931 . S
C2614 C2613 1.386 . S
C2614 C2615 1.363 1_655 S
C2615 C2614 1.363 1_455 S
C2615 C2616 1.385 . S
C2616 H2570 0.930 . S
C2616 C2615 1.385 . S
C2616 C2617 1.396 . S
C2617 H2571 0.929 . S
C2617 C2612 1.361 . S
C2617 C2616 1.396 . S
C2618 O2572 1.300 . S
C2618 O2573 1.209 1_655 S
C2618 C2591 1.486 . S
C2619 O2574 1.199 1_455 S
C2619 O2575 1.297 . S
C2619 C2603 1.476 . S
H2620 O2646 0.856 . S
H2621 O2649 0.854 . S
H2622 C2657 0.930 . S
H2623 C2658 0.930 . S
H2624 C2660 0.930 . S
H2625 C2661 0.930 . S
H2626 C2663 0.931 . S
H2627 C2664 0.930 . S
H2628 C2666 0.930 . S
H2629 C2667 0.929 . S
H2630 C2669 0.930 . S
H2631 C2670 0.931 . S
H2632 C2672 0.930 . S
H2633 C2673 0.929 . S
H2634 C2675 0.931 . S
H2635 C2676 0.930 . S
H2636 C2678 0.930 . S
H2637 C2679 0.932 . S
H2638 C2681 0.930 . S
H2639 C2682 0.929 . S
H2640 C2684 0.931 . S
H2641 C2685 0.930 . S
H2642 C2687 0.929 . S
H2643 C2688 0.931 . S
H2644 C2690 0.930 . S
H2645 C2691 0.929 . S
O2646 H2620 0.856 . S
O2646 C2692 1.300 . S
O2647 C2692 1.209 . S
O2648 C2693 1.199 . S
O2649 H2621 0.854 . S
O2649 C2693 1.297 . S
C2650 C2651 1.404 . S
C2650 C2655 1.397 . S
C2650 C2656 1.492 . S
C2651 C2650 1.404 . S
C2651 C2652 1.396 . S
C2651 C2662 1.492 . S
C2652 C2651 1.396 . S
C2652 C2653 1.397 . S
C2652 C2668 1.509 . S
C2653 C2652 1.397 . S
C2653 C2654 1.412 . S
C2653 C2674 1.485 . S
C2654 C2653 1.412 . S
C2654 C2655 1.388 . S
C2654 C2680 1.490 . S
C2655 C2650 1.397 . S
C2655 C2654 1.388 . S
C2655 C2686 1.519 . S
C2656 C2650 1.492 . S
C2656 C2657 1.363 . S
C2656 C2661 1.390 . S
C2657 H2622 0.930 . S
C2657 C2656 1.363 . S
C2657 C2658 1.372 . S
C2658 H2623 0.930 . S
C2658 C2657 1.372 . S
C2658 C2659 1.383 . S
C2659 C2658 1.383 . S
C2659 C2660 1.395 . S
C2660 H2624 0.930 . S
C2660 C2659 1.395 . S
C2660 C2661 1.362 . S
C2661 H2625 0.930 . S
C2661 C2656 1.390 . S
C2661 C2660 1.362 . S
C2662 C2651 1.492 . S
C2662 C2663 1.377 . S
C2662 C2667 1.397 . S
C2663 H2626 0.931 . S
C2663 C2662 1.377 . S
C2663 C2664 1.376 . S
C2664 H2627 0.930 . S
C2664 C2663 1.376 . S
C2664 C2665 1.376 . S
C2665 C2664 1.376 . S
C2665 C2666 1.378 . S
C2665 C2692 1.486 . S
C2666 H2628 0.930 . S
C2666 C2665 1.378 . S
C2666 C2667 1.376 . S
C2667 H2629 0.929 . S
C2667 C2662 1.397 . S
C2667 C2666 1.376 . S
C2668 C2652 1.509 . S
C2668 C2669 1.391 . S
C2668 C2673 1.386 . S
C2669 H2630 0.930 . S
C2669 C2668 1.391 . S
C2669 C2670 1.375 . S
C2670 H2631 0.931 . S
C2670 C2669 1.375 . S
C2670 C2671 1.375 . S
C2671 C2670 1.375 . S
C2671 C2672 1.361 . S
C2672 H2632 0.930 . S
C2672 C2671 1.361 . S
C2672 C2673 1.399 . S
C2673 H2633 0.929 . S
C2673 C2668 1.386 . S
C2673 C2672 1.399 . S
C2674 C2653 1.485 . S
C2674 C2675 1.394 . S
C2674 C2679 1.360 . S
C2675 H2634 0.931 . S
C2675 C2674 1.394 . S
C2675 C2676 1.372 . S
C2676 H2635 0.930 . S
C2676 C2675 1.372 . S
C2676 C2677 1.397 . S
C2677 C2676 1.397 . S
C2677 C2678 1.390 . S
C2677 C2693 1.476 . S
C2678 H2636 0.930 . S
C2678 C2677 1.390 . S
C2678 C2679 1.366 . S
C2679 H2637 0.932 . S
C2679 C2674 1.360 . S
C2679 C2678 1.366 . S
C2680 C2654 1.490 . S
C2680 C2681 1.380 . S
C2680 C2685 1.386 . S
C2681 H2638 0.930 . S
C2681 C2680 1.380 . S
C2681 C2682 1.381 . S
C2682 H2639 0.929 . S
C2682 C2681 1.381 . S
C2682 C2683 1.371 . S
C2683 C2682 1.371 . S
C2683 C2684 1.380 . S
C2684 H2640 0.931 . S
C2684 C2683 1.380 . S
C2684 C2685 1.387 . S
C2685 H2641 0.930 . S
C2685 C2680 1.386 . S
C2685 C2684 1.387 . S
C2686 C2655 1.519 . S
C2686 C2687 1.377 . S
C2686 C2691 1.361 . S
C2687 H2642 0.929 . S
C2687 C2686 1.377 . S
C2687 C2688 1.386 . S
C2688 H2643 0.931 . S
C2688 C2687 1.386 . S
C2688 C2689 1.363 . S
C2689 C2688 1.363 . S
C2689 C2690 1.385 . S
C2690 H2644 0.930 . S
C2690 C2689 1.385 . S
C2690 C2691 1.396 . S
C2691 H2645 0.929 . S
C2691 C2686 1.361 . S
C2691 C2690 1.396 . S
C2692 O2646 1.300 . S
C2692 O2647 1.209 . S
C2692 C2665 1.486 . S
C2693 O2648 1.199 . S
C2693 O2649 1.297 . S
C2693 C2677 1.476 . S
H2694 O2720 0.856 . S
H2695 O2723 0.854 . S
H2696 C2731 0.930 . S
H2697 C2732 0.930 . S
H2698 C2734 0.930 . S
H2699 C2735 0.930 . S
H2700 C2737 0.931 . S
H2701 C2738 0.930 . S
H2702 C2740 0.930 . S
H2703 C2741 0.929 . S
H2704 C2743 0.930 . S
H2705 C2744 0.931 . S
H2706 C2746 0.930 . S
H2707 C2747 0.929 . S
H2708 C2749 0.931 . S
H2709 C2750 0.930 . S
H2710 C2752 0.930 . S
H2711 C2753 0.932 . S
H2712 C2755 0.930 . S
H2713 C2756 0.929 . S
H2714 C2758 0.931 . S
H2715 C2759 0.930 . S
H2716 C2761 0.929 . S
H2717 C2762 0.931 . S
H2718 C2764 0.930 . S
H2719 C2765 0.929 . S
O2720 H2694 0.856 . S
O2720 C2766 1.300 . S
O2721 C2766 1.209 . S
O2722 C2767 1.199 . S
O2723 H2695 0.854 . S
O2723 C2767 1.297 . S
C2724 C2725 1.404 . S
C2724 C2729 1.397 . S
C2724 C2730 1.492 . S
C2725 C2724 1.404 . S
C2725 C2726 1.396 . S
C2725 C2736 1.492 . S
C2726 C2725 1.396 . S
C2726 C2727 1.397 . S
C2726 C2742 1.509 . S
C2727 C2726 1.397 . S
C2727 C2728 1.412 . S
C2727 C2748 1.485 . S
C2728 C2727 1.412 . S
C2728 C2729 1.388 . S
C2728 C2754 1.490 . S
C2729 C2724 1.397 . S
C2729 C2728 1.388 . S
C2729 C2760 1.519 . S
C2730 C2724 1.492 . S
C2730 C2731 1.363 . S
C2730 C2735 1.390 . S
C2731 H2696 0.930 . S
C2731 C2730 1.363 . S
C2731 C2732 1.372 . S
C2732 H2697 0.930 . S
C2732 C2731 1.372 . S
C2732 C2733 1.383 . S
C2733 C2732 1.383 . S
C2733 C2734 1.395 . S
C2734 H2698 0.930 . S
C2734 C2733 1.395 . S
C2734 C2735 1.362 . S
C2735 H2699 0.930 . S
C2735 C2730 1.390 . S
C2735 C2734 1.362 . S
C2736 C2725 1.492 . S
C2736 C2737 1.377 . S
C2736 C2741 1.397 . S
C2737 H2700 0.931 . S
C2737 C2736 1.377 . S
C2737 C2738 1.376 . S
C2738 H2701 0.930 . S
C2738 C2737 1.376 . S
C2738 C2739 1.376 . S
C2739 C2738 1.376 . S
C2739 C2740 1.378 . S
C2739 C2766 1.486 . S
C2740 H2702 0.930 . S
C2740 C2739 1.378 . S
C2740 C2741 1.376 . S
C2741 H2703 0.929 . S
C2741 C2736 1.397 . S
C2741 C2740 1.376 . S
C2742 C2726 1.509 . S
C2742 C2743 1.391 . S
C2742 C2747 1.386 . S
C2743 H2704 0.930 . S
C2743 C2742 1.391 . S
C2743 C2744 1.375 . S
C2744 H2705 0.931 . S
C2744 C2743 1.375 . S
C2744 C2745 1.375 . S
C2745 C2744 1.375 . S
C2745 C2746 1.361 . S
C2746 H2706 0.930 . S
C2746 C2745 1.361 . S
C2746 C2747 1.399 . S
C2747 H2707 0.929 . S
C2747 C2742 1.386 . S
C2747 C2746 1.399 . S
C2748 C2727 1.485 . S
C2748 C2749 1.394 . S
C2748 C2753 1.360 . S
C2749 H2708 0.931 . S
C2749 C2748 1.394 . S
C2749 C2750 1.372 . S
C2750 H2709 0.930 . S
C2750 C2749 1.372 . S
C2750 C2751 1.397 . S
C2751 C2750 1.397 . S
C2751 C2752 1.390 . S
C2751 C2767 1.476 . S
C2752 H2710 0.930 . S
C2752 C2751 1.390 . S
C2752 C2753 1.366 . S
C2753 H2711 0.932 . S
C2753 C2748 1.360 . S
C2753 C2752 1.366 . S
C2754 C2728 1.490 . S
C2754 C2755 1.380 . S
C2754 C2759 1.386 . S
C2755 H2712 0.930 . S
C2755 C2754 1.380 . S
C2755 C2756 1.381 . S
C2756 H2713 0.929 . S
C2756 C2755 1.381 . S
C2756 C2757 1.371 . S
C2757 C2756 1.371 . S
C2757 C2758 1.380 . S
C2758 H2714 0.931 . S
C2758 C2757 1.380 . S
C2758 C2759 1.387 . S
C2759 H2715 0.930 . S
C2759 C2754 1.386 . S
C2759 C2758 1.387 . S
C2760 C2729 1.519 . S
C2760 C2761 1.377 . S
C2760 C2765 1.361 . S
C2761 H2716 0.929 . S
C2761 C2760 1.377 . S
C2761 C2762 1.386 . S
C2762 H2717 0.931 . S
C2762 C2761 1.386 . S
C2762 C2763 1.363 . S
C2763 C2762 1.363 . S
C2763 C2764 1.385 . S
C2764 H2718 0.930 . S
C2764 C2763 1.385 . S
C2764 C2765 1.396 . S
C2765 H2719 0.929 . S
C2765 C2760 1.361 . S
C2765 C2764 1.396 . S
C2766 O2720 1.300 . S
C2766 O2721 1.209 . S
C2766 C2739 1.486 . S
C2767 O2722 1.199 . S
C2767 O2723 1.297 . S
C2767 C2751 1.476 . S
H2768 O2794 0.856 . S
H2769 O2797 0.854 . S
H2770 C2805 0.930 . S
H2771 C2806 0.930 . S
H2772 C2808 0.930 . S
H2773 C2809 0.930 . S
H2774 C2811 0.931 . S
H2775 C2812 0.930 . S
H2776 C2814 0.930 . S
H2777 C2815 0.929 . S
H2778 C2817 0.930 . S
H2779 C2818 0.931 . S
H2780 C2820 0.930 . S
H2781 C2821 0.929 . S
H2782 C2823 0.931 . S
H2783 C2824 0.930 . S
H2784 C2826 0.930 . S
H2785 C2827 0.932 . S
H2786 C2829 0.930 . S
H2787 C2830 0.929 . S
H2788 C2832 0.931 . S
H2789 C2833 0.930 . S
H2790 C2835 0.929 . S
H2791 C2836 0.931 . S
H2792 C2838 0.930 . S
H2793 C2839 0.929 . S
O2794 H2768 0.856 . S
O2794 C2840 1.300 . S
O2795 C2840 1.209 . S
O2796 C2841 1.199 . S
O2797 H2769 0.854 . S
O2797 C2841 1.297 . S
C2798 C2799 1.404 . S
C2798 C2803 1.397 . S
C2798 C2804 1.492 . S
C2799 C2798 1.404 . S
C2799 C2800 1.396 . S
C2799 C2810 1.492 . S
C2800 C2799 1.396 . S
C2800 C2801 1.397 . S
C2800 C2816 1.509 . S
C2801 C2800 1.397 . S
C2801 C2802 1.412 . S
C2801 C2822 1.485 . S
C2802 C2801 1.412 . S
C2802 C2803 1.388 . S
C2802 C2828 1.490 . S
C2803 C2798 1.397 . S
C2803 C2802 1.388 . S
C2803 C2834 1.519 . S
C2804 C2798 1.492 . S
C2804 C2805 1.363 . S
C2804 C2809 1.390 . S
C2805 H2770 0.930 . S
C2805 C2804 1.363 . S
C2805 C2806 1.372 . S
C2806 H2771 0.930 . S
C2806 C2805 1.372 . S
C2806 C2807 1.383 . S
C2807 C2806 1.383 . S
C2807 C2808 1.395 . S
C2808 H2772 0.930 . S
C2808 C2807 1.395 . S
C2808 C2809 1.362 . S
C2809 H2773 0.930 . S
C2809 C2804 1.390 . S
C2809 C2808 1.362 . S
C2810 C2799 1.492 . S
C2810 C2811 1.377 . S
C2810 C2815 1.397 . S
C2811 H2774 0.931 . S
C2811 C2810 1.377 . S
C2811 C2812 1.376 . S
C2812 H2775 0.930 . S
C2812 C2811 1.376 . S
C2812 C2813 1.376 . S
C2813 C2812 1.376 . S
C2813 C2814 1.378 . S
C2813 C2840 1.486 . S
C2814 H2776 0.930 . S
C2814 C2813 1.378 . S
C2814 C2815 1.376 . S
C2815 H2777 0.929 . S
C2815 C2810 1.397 . S
C2815 C2814 1.376 . S
C2816 C2800 1.509 . S
C2816 C2817 1.391 . S
C2816 C2821 1.386 . S
C2817 H2778 0.930 . S
C2817 C2816 1.391 . S
C2817 C2818 1.375 . S
C2818 H2779 0.931 . S
C2818 C2817 1.375 . S
C2818 C2819 1.375 . S
C2819 C2818 1.375 . S
C2819 C2820 1.361 . S
C2820 H2780 0.930 . S
C2820 C2819 1.361 . S
C2820 C2821 1.399 . S
C2821 H2781 0.929 . S
C2821 C2816 1.386 . S
C2821 C2820 1.399 . S
C2822 C2801 1.485 . S
C2822 C2823 1.394 . S
C2822 C2827 1.360 . S
C2823 H2782 0.931 . S
C2823 C2822 1.394 . S
C2823 C2824 1.372 . S
C2824 H2783 0.930 . S
C2824 C2823 1.372 . S
C2824 C2825 1.397 . S
C2825 C2824 1.397 . S
C2825 C2826 1.390 . S
C2825 C2841 1.476 . S
C2826 H2784 0.930 . S
C2826 C2825 1.390 . S
C2826 C2827 1.366 . S
C2827 H2785 0.932 . S
C2827 C2822 1.360 . S
C2827 C2826 1.366 . S
C2828 C2802 1.490 . S
C2828 C2829 1.380 . S
C2828 C2833 1.386 . S
C2829 H2786 0.930 . S
C2829 C2828 1.380 . S
C2829 C2830 1.381 . S
C2830 H2787 0.929 . S
C2830 C2829 1.381 . S
C2830 C2831 1.371 . S
C2831 C2830 1.371 . S
C2831 C2832 1.380 . S
C2832 H2788 0.931 . S
C2832 C2831 1.380 . S
C2832 C2833 1.387 . S
C2833 H2789 0.930 . S
C2833 C2828 1.386 . S
C2833 C2832 1.387 . S
C2834 C2803 1.519 . S
C2834 C2835 1.377 . S
C2834 C2839 1.361 . S
C2835 H2790 0.929 . S
C2835 C2834 1.377 . S
C2835 C2836 1.386 . S
C2836 H2791 0.931 . S
C2836 C2835 1.386 . S
C2836 C2837 1.363 . S
C2837 C2836 1.363 . S
C2837 C2838 1.385 . S
C2838 H2792 0.930 . S
C2838 C2837 1.385 . S
C2838 C2839 1.396 . S
C2839 H2793 0.929 . S
C2839 C2834 1.361 . S
C2839 C2838 1.396 . S
C2840 O2794 1.300 . S
C2840 O2795 1.209 . S
C2840 C2813 1.486 . S
C2841 O2796 1.199 . S
C2841 O2797 1.297 . S
C2841 C2825 1.476 . S
H2842 O2868 0.856 . S
H2843 O2871 0.854 . S
H2844 C2879 0.930 . S
H2845 C2880 0.930 . S
H2846 C2882 0.930 . S
H2847 C2883 0.930 . S
H2848 C2885 0.931 . S
H2849 C2886 0.930 . S
H2850 C2888 0.930 . S
H2851 C2889 0.929 . S
H2852 C2891 0.930 . S
H2853 C2892 0.931 . S
H2854 C2894 0.930 . S
H2855 C2895 0.929 . S
H2856 C2897 0.931 . S
H2857 C2898 0.930 . S
H2858 C2900 0.930 . S
H2859 C2901 0.932 . S
H2860 C2903 0.930 . S
H2861 C2904 0.929 . S
H2862 C2906 0.931 . S
H2863 C2907 0.930 . S
H2864 C2909 0.929 . S
H2865 C2910 0.931 . S
H2866 C2912 0.930 . S
H2867 C2913 0.929 . S
O2868 H2842 0.856 . S
O2868 C2914 1.300 . S
O2869 C2914 1.209 . S
O2870 C2915 1.199 . S
O2871 H2843 0.854 . S
O2871 C2915 1.297 . S
C2872 C2873 1.404 . S
C2872 C2877 1.397 . S
C2872 C2878 1.492 . S
C2873 C2872 1.404 . S
C2873 C2874 1.396 . S
C2873 C2884 1.492 . S
C2874 C2873 1.396 . S
C2874 C2875 1.397 . S
C2874 C2890 1.509 . S
C2875 C2874 1.397 . S
C2875 C2876 1.412 . S
C2875 C2896 1.485 . S
C2876 C2875 1.412 . S
C2876 C2877 1.388 . S
C2876 C2902 1.490 . S
C2877 C2872 1.397 . S
C2877 C2876 1.388 . S
C2877 C2908 1.519 . S
C2878 C2872 1.492 . S
C2878 C2879 1.363 . S
C2878 C2883 1.390 . S
C2879 H2844 0.930 . S
C2879 C2878 1.363 . S
C2879 C2880 1.372 . S
C2880 H2845 0.930 . S
C2880 C2879 1.372 . S
C2880 C2881 1.383 . S
C2881 C2880 1.383 . S
C2881 C2882 1.395 . S
C2882 H2846 0.930 . S
C2882 C2881 1.395 . S
C2882 C2883 1.362 . S
C2883 H2847 0.930 . S
C2883 C2878 1.390 . S
C2883 C2882 1.362 . S
C2884 C2873 1.492 . S
C2884 C2885 1.377 . S
C2884 C2889 1.397 . S
C2885 H2848 0.931 . S
C2885 C2884 1.377 . S
C2885 C2886 1.376 . S
C2886 H2849 0.930 . S
C2886 C2885 1.376 . S
C2886 C2887 1.376 . S
C2887 C2886 1.376 . S
C2887 C2888 1.378 . S
C2887 C2914 1.486 . S
C2888 H2850 0.930 . S
C2888 C2887 1.378 . S
C2888 C2889 1.376 . S
C2889 H2851 0.929 . S
C2889 C2884 1.397 . S
C2889 C2888 1.376 . S
C2890 C2874 1.509 . S
C2890 C2891 1.391 . S
C2890 C2895 1.386 . S
C2891 H2852 0.930 . S
C2891 C2890 1.391 . S
C2891 C2892 1.375 . S
C2892 H2853 0.931 . S
C2892 C2891 1.375 . S
C2892 C2893 1.375 . S
C2893 C2892 1.375 . S
C2893 C2894 1.361 . S
C2894 H2854 0.930 . S
C2894 C2893 1.361 . S
C2894 C2895 1.399 . S
C2895 H2855 0.929 . S
C2895 C2890 1.386 . S
C2895 C2894 1.399 . S
C2896 C2875 1.485 . S
C2896 C2897 1.394 . S
C2896 C2901 1.360 . S
C2897 H2856 0.931 . S
C2897 C2896 1.394 . S
C2897 C2898 1.372 . S
C2898 H2857 0.930 . S
C2898 C2897 1.372 . S
C2898 C2899 1.397 . S
C2899 C2898 1.397 . S
C2899 C2900 1.390 . S
C2899 C2915 1.476 . S
C2900 H2858 0.930 . S
C2900 C2899 1.390 . S
C2900 C2901 1.366 . S
C2901 H2859 0.932 . S
C2901 C2896 1.360 . S
C2901 C2900 1.366 . S
C2902 C2876 1.490 . S
C2902 C2903 1.380 . S
C2902 C2907 1.386 . S
C2903 H2860 0.930 . S
C2903 C2902 1.380 . S
C2903 C2904 1.381 . S
C2904 H2861 0.929 . S
C2904 C2903 1.381 . S
C2904 C2905 1.371 . S
C2905 C2904 1.371 . S
C2905 C2906 1.380 . S
C2906 H2862 0.931 . S
C2906 C2905 1.380 . S
C2906 C2907 1.387 . S
C2907 H2863 0.930 . S
C2907 C2902 1.386 . S
C2907 C2906 1.387 . S
C2908 C2877 1.519 . S
C2908 C2909 1.377 . S
C2908 C2913 1.361 . S
C2909 H2864 0.929 . S
C2909 C2908 1.377 . S
C2909 C2910 1.386 . S
C2910 H2865 0.931 . S
C2910 C2909 1.386 . S
C2910 C2911 1.363 . S
C2911 C2910 1.363 . S
C2911 C2912 1.385 . S
C2912 H2866 0.930 . S
C2912 C2911 1.385 . S
C2912 C2913 1.396 . S
C2913 H2867 0.929 . S
C2913 C2908 1.361 . S
C2913 C2912 1.396 . S
C2914 O2868 1.300 . S
C2914 O2869 1.209 . S
C2914 C2887 1.486 . S
C2915 O2870 1.199 . S
C2915 O2871 1.297 . S
C2915 C2899 1.476 . S
C2916 C2917 1.391 . S
C2916 C2918 1.394 . S
C2916 H2932 0.931 1_655 S
C2917 C2916 1.391 . S
C2917 C2921 1.376 . S
C2918 C2916 1.394 . S
C2918 C2919 1.369 . S
C2918 C2922 1.531 1_655 S
C2919 C2918 1.369 . S
C2919 C2920 1.410 . S
C2919 C2927 1.503 . S
C2920 C2919 1.410 . S
C2920 C2921 1.392 . S
C2920 C2923 1.511 . S
C2921 C2917 1.376 . S
C2921 C2920 1.392 . S
C2921 H2933 0.929 . S
C2922 C2918 1.531 1_455 S
C2922 H2934 0.960 . S
C2922 H2935 0.962 . S
C2922 H2936 0.960 . S
C2923 C2920 1.511 . S
C2923 H2937 0.961 . S
C2923 H2938 0.961 . S
C2923 H2939 0.961 . S
C2924 C2925 1.370 . S
C2924 C2926 1.363 . S
C2924 H2940 0.931 . S
C2925 C2924 1.370 . S
C2925 C2929 1.408 . S
C2926 C2924 1.363 . S
C2926 C2927 1.370 . S
C2926 C2930 1.524 . S
C2927 C2919 1.503 . S
C2927 C2926 1.370 . S
C2927 C2928 1.403 . S
C2928 C2927 1.403 . S
C2928 C2929 1.404 . S
C2928 C2931 1.539 . S
C2929 C2925 1.408 . S
C2929 C2928 1.404 . S
C2929 H2941 0.930 . S
C2930 C2926 1.524 . S
C2930 H2942 0.956 1_655 S
C2930 H2943 0.961 . S
C2930 H2944 0.961 . S
C2931 C2928 1.539 . S
C2931 H2945 0.958 . S
C2931 H2946 0.961 . S
C2931 H2947 0.960 . S
H2932 C2916 0.931 1_455 S
H2933 C2921 0.929 . S
H2934 C2922 0.960 . S
H2935 C2922 0.962 . S
H2936 C2922 0.960 . S
H2937 C2923 0.961 . S
H2938 C2923 0.961 . S
H2939 C2923 0.961 . S
H2940 C2924 0.931 . S
H2941 C2929 0.930 . S
H2942 C2930 0.956 1_455 S
H2943 C2930 0.961 . S
H2944 C2930 0.961 . S
H2945 C2931 0.958 . S
H2946 C2931 0.961 . S
H2947 C2931 0.960 . S
C2948 C2949 1.391 . S
C2948 C2950 1.394 . S
C2948 H2964 0.931 . S
C2949 C2948 1.391 . S
C2949 C2953 1.376 . S
C2950 C2948 1.394 . S
C2950 C2951 1.369 . S
C2950 C2954 1.531 . S
C2951 C2950 1.369 . S
C2951 C2952 1.410 . S
C2951 C2959 1.503 . S
C2952 C2951 1.410 . S
C2952 C2953 1.392 . S
C2952 C2955 1.511 . S
C2953 C2949 1.376 . S
C2953 C2952 1.392 . S
C2953 H2965 0.929 . S
C2954 C2950 1.531 . S
C2954 H2966 0.960 . S
C2954 H2967 0.962 . S
C2954 H2968 0.960 . S
C2955 C2952 1.511 . S
C2955 H2969 0.961 . S
C2955 H2970 0.961 . S
C2955 H2971 0.961 . S
C2956 C2957 1.370 . S
C2956 C2958 1.363 . S
C2956 H2972 0.931 . S
C2957 C2956 1.370 . S
C2957 C2961 1.408 . S
C2958 C2956 1.363 . S
C2958 C2959 1.370 . S
C2958 C2962 1.524 . S
C2959 C2951 1.503 . S
C2959 C2958 1.370 . S
C2959 C2960 1.403 . S
C2960 C2959 1.403 . S
C2960 C2961 1.404 . S
C2960 C2963 1.539 . S
C2961 C2957 1.408 . S
C2961 C2960 1.404 . S
C2961 H2973 0.930 . S
C2962 C2958 1.524 . S
C2962 H2974 0.956 . S
C2962 H2975 0.961 . S
C2962 H2976 0.961 . S
C2963 C2960 1.539 . S
C2963 H2977 0.958 . S
C2963 H2978 0.961 . S
C2963 H2979 0.960 . S
H2964 C2948 0.931 . S
H2965 C2953 0.929 . S
H2966 C2954 0.960 . S
H2967 C2954 0.962 . S
H2968 C2954 0.960 . S
H2969 C2955 0.961 . S
H2970 C2955 0.961 . S
H2971 C2955 0.961 . S
H2972 C2956 0.931 . S
H2973 C2961 0.930 . S
H2974 C2962 0.956 . S
H2975 C2962 0.961 . S
H2976 C2962 0.961 . S
H2977 C2963 0.958 . S
H2978 C2963 0.961 . S
H2979 C2963 0.960 . S
C2980 C2981 1.391 . S
C2980 C2982 1.394 . S
C2980 H2996 0.931 . S
C2981 C2980 1.391 . S
C2981 C2985 1.376 . S
C2982 C2980 1.394 . S
C2982 C2983 1.369 . S
C2982 C2986 1.531 . S
C2983 C2982 1.369 . S
C2983 C2984 1.410 . S
C2983 C2991 1.503 . S
C2984 C2983 1.410 . S
C2984 C2985 1.392 . S
C2984 C2987 1.511 . S
C2985 C2981 1.376 . S
C2985 C2984 1.392 . S
C2985 H2997 0.929 . S
C2986 C2982 1.531 . S
C2986 H2998 0.960 . S
C2986 H2999 0.962 . S
C2986 H3000 0.960 . S
C2987 C2984 1.511 . S
C2987 H3001 0.961 . S
C2987 H3002 0.961 . S
C2987 H3003 0.961 . S
C2988 C2989 1.370 . S
C2988 C2990 1.363 . S
C2988 H3004 0.931 . S
C2989 C2988 1.370 . S
C2989 C2993 1.421 . S
C2990 C2988 1.363 . S
C2990 C2991 1.370 . S
C2990 C2994 1.524 . S
C2991 C2983 1.503 . S
C2991 C2990 1.370 . S
C2991 C2992 1.403 . S
C2992 C2991 1.403 . S
C2992 C2993 1.413 . S
C2992 C2995 1.539 1_545 S
C2993 C2989 1.421 . S
C2993 C2992 1.413 . S
C2993 H3005 0.909 1_545 S
C2994 C2990 1.524 . S
C2994 H3006 0.956 . S
C2994 H3007 0.961 . S
C2994 H3008 0.961 . S
C2995 C2992 1.539 1_565 S
C2995 H3009 0.958 . S
C2995 H3010 0.961 . S
C2995 H3011 0.960 . S
H2996 C2980 0.931 . S
H2997 C2985 0.929 . S
H2998 C2986 0.960 . S
H2999 C2986 0.962 . S
H3000 C2986 0.960 . S
H3001 C2987 0.961 . S
H3002 C2987 0.961 . S
H3003 C2987 0.961 . S
H3004 C2988 0.931 . S
H3005 C2993 0.909 1_565 S
H3006 C2994 0.956 . S
H3007 C2994 0.961 . S
H3008 C2994 0.961 . S
H3009 C2995 0.958 . S
H3010 C2995 0.961 . S
H3011 C2995 0.960 . S
C3012 C3013 1.391 . S
C3012 C3014 1.394 . S
C3012 H3028 0.931 . S
C3013 C3012 1.391 . S
C3013 C3017 1.376 . S
C3014 C3012 1.394 . S
C3014 C3015 1.369 . S
C3014 C3018 1.531 . S
C3015 C3014 1.369 . S
C3015 C3016 1.410 . S
C3015 C3023 1.503 . S
C3016 C3015 1.410 . S
C3016 C3017 1.392 . S
C3016 C3019 1.511 . S
C3017 C3013 1.376 . S
C3017 C3016 1.392 . S
C3017 H3029 0.929 . S
C3018 C3014 1.531 . S
C3018 H3030 0.960 . S
C3018 H3031 0.962 . S
C3018 H3032 0.960 . S
C3019 C3016 1.511 . S
C3019 H3033 0.961 . S
C3019 H3034 0.961 . S
C3019 H3035 0.903 1_565 S
C3020 C3021 1.370 . S
C3020 C3022 1.363 . S
C3020 H3036 0.931 . S
C3021 C3020 1.370 . S
C3021 C3025 1.408 1_565 S
C3022 C3020 1.363 . S
C3022 C3023 1.370 . S
C3022 C3026 1.524 . S
C3023 C3015 1.503 . S
C3023 C3022 1.370 . S
C3023 C3024 1.388 1_565 S
C3024 C3023 1.388 1_545 S
C3024 C3025 1.400 . S
C3024 C3027 1.557 . S
C3025 C3021 1.408 1_545 S
C3025 C3024 1.400 . S
C3025 H3037 0.930 . S
C3026 C3022 1.524 . S
C3026 H3038 0.956 . S
C3026 H3039 0.961 . S
C3026 H3040 0.961 . S
C3027 C3024 1.557 . S
C3027 H3041 0.958 . S
C3027 H3042 0.961 . S
C3027 H3043 0.960 . S
H3028 C3012 0.931 . S
H3029 C3017 0.929 . S
H3030 C3018 0.960 . S
H3031 C3018 0.962 . S
H3032 C3018 0.960 . S
H3033 C3019 0.961 . S
H3034 C3019 0.961 . S
H3035 C3019 0.903 1_545 S
H3036 C3020 0.931 . S
H3037 C3025 0.930 . S
H3038 C3026 0.956 . S
H3039 C3026 0.961 . S
H3040 C3026 0.961 . S
H3041 C3027 0.958 . S
H3042 C3027 0.961 . S
H3043 C3027 0.960 . S
C3044 C3045 1.391 . S
C3044 C3046 1.394 . S
C3044 H3060 0.931 . S
C3045 C3044 1.391 . S
C3045 C3049 1.376 . S
C3046 C3044 1.394 . S
C3046 C3047 1.369 . S
C3046 C3050 1.531 . S
C3047 C3046 1.369 . S
C3047 C3048 1.410 . S
C3047 C3055 1.503 . S
C3048 C3047 1.410 . S
C3048 C3049 1.392 . S
C3048 C3051 1.511 . S
C3049 C3045 1.376 . S
C3049 C3048 1.392 . S
C3049 H3061 0.929 . S
C3050 C3046 1.531 . S
C3050 H3062 0.960 . S
C3050 H3063 0.962 . S
C3050 H3064 0.960 . S
C3051 C3048 1.511 . S
C3051 H3065 0.961 . S
C3051 H3066 0.961 . S
C3051 H3067 0.961 . S
C3052 C3053 1.370 . S
C3052 C3054 1.363 . S
C3052 H3068 0.931 1_455 S
C3053 C3052 1.370 . S
C3053 C3057 1.408 . S
C3054 C3052 1.363 . S
C3054 C3055 1.370 . S
C3054 C3058 1.524 1_455 S
C3055 C3047 1.503 . S
C3055 C3054 1.370 . S
C3055 C3056 1.403 . S
C3056 C3055 1.403 . S
C3056 C3057 1.404 . S
C3056 C3059 1.539 . S
C3057 C3053 1.408 . S
C3057 C3056 1.404 . S
C3057 H3069 0.930 . S
C3058 C3054 1.524 1_655 S
C3058 H3070 0.970 . S
C3058 H3071 0.961 . S
C3058 H3072 0.961 . S
C3059 C3056 1.539 . S
C3059 H3073 0.958 . S
C3059 H3074 0.961 . S
C3059 H3075 0.960 . S
H3060 C3044 0.931 . S
H3061 C3049 0.929 . S
H3062 C3050 0.960 . S
H3063 C3050 0.962 . S
H3064 C3050 0.960 . S
H3065 C3051 0.961 . S
H3066 C3051 0.961 . S
H3067 C3051 0.961 . S
H3068 C3052 0.931 1_655 S
H3069 C3057 0.930 . S
H3070 C3058 0.970 . S
H3071 C3058 0.961 . S
H3072 C3058 0.961 . S
H3073 C3059 0.958 . S
H3074 C3059 0.961 . S
H3075 C3059 0.960 . S
C3076 C3077 1.391 . S
C3076 C3078 1.394 . S
C3076 H3092 0.931 . S
C3077 C3076 1.391 . S
C3077 C3081 1.376 . S
C3078 C3076 1.394 . S
C3078 C3079 1.369 . S
C3078 C3082 1.531 . S
C3079 C3078 1.369 . S
C3079 C3080 1.410 . S
C3079 C3087 1.503 . S
C3080 C3079 1.410 . S
C3080 C3081 1.392 . S
C3080 C3083 1.511 . S
C3081 C3077 1.376 . S
C3081 C3080 1.392 . S
C3081 H3093 0.929 . S
C3082 C3078 1.531 . S
C3082 H3094 0.960 . S
C3082 H3095 0.962 . S
C3082 H3096 0.960 . S
C3083 C3080 1.511 . S
C3083 H3097 0.961 . S
C3083 H3098 0.961 . S
C3083 H3099 0.961 . S
C3084 C3085 1.370 . S
C3084 C3086 1.363 . S
C3084 H3100 0.931 . S
C3085 C3084 1.370 . S
C3085 C3089 1.408 . S
C3086 C3084 1.363 . S
C3086 C3087 1.370 . S
C3086 C3090 1.524 . S
C3087 C3079 1.503 . S
C3087 C3086 1.370 . S
C3087 C3088 1.403 . S
C3088 C3087 1.403 . S
C3088 C3089 1.404 . S
C3088 C3091 1.539 . S
C3089 C3085 1.408 . S
C3089 C3088 1.404 . S
C3089 H3101 0.930 . S
C3090 C3086 1.524 . S
C3090 H3102 0.956 . S
C3090 H3103 0.961 . S
C3090 H3104 0.961 . S
C3091 C3088 1.539 . S
C3091 H3105 0.958 . S
C3091 H3106 0.961 . S
C3091 H3107 0.960 . S
H3092 C3076 0.931 . S
H3093 C3081 0.929 . S
H3094 C3082 0.960 . S
H3095 C3082 0.962 . S
H3096 C3082 0.960 . S
H3097 C3083 0.961 . S
H3098 C3083 0.961 . S
H3099 C3083 0.961 . S
H3100 C3084 0.931 . S
H3101 C3089 0.930 . S
H3102 C3090 0.956 . S
H3103 C3090 0.961 . S
H3104 C3090 0.961 . S
H3105 C3091 0.958 . S
H3106 C3091 0.961 . S
H3107 C3091 0.960 . S
C3108 C3109 1.391 . S
C3108 C3110 1.394 . S
C3108 H3124 0.931 . S
C3109 C3108 1.391 . S
C3109 C3113 1.376 . S
C3110 C3108 1.394 . S
C3110 C3111 1.369 . S
C3110 C3114 1.531 . S
C3111 C3110 1.369 . S
C3111 C3112 1.410 . S
C3111 C3119 1.503 . S
C3112 C3111 1.410 . S
C3112 C3113 1.392 . S
C3112 C3115 1.511 . S
C3113 C3109 1.376 . S
C3113 C3112 1.392 . S
C3113 H3125 0.929 . S
C3114 C3110 1.531 . S
C3114 H3126 0.960 1_455 S
C3114 H3127 0.962 . S
C3114 H3128 0.960 1_455 S
C3115 C3112 1.511 . S
C3115 H3129 0.961 . S
C3115 H3130 0.961 . S
C3115 H3131 0.961 . S
C3116 C3117 1.370 . S
C3116 C3118 1.363 . S
C3116 H3132 0.931 . S
C3117 C3116 1.370 . S
C3117 C3121 1.408 1_455 S
C3118 C3116 1.363 . S
C3118 C3119 1.370 . S
C3118 C3122 1.524 . S
C3119 C3111 1.503 . S
C3119 C3118 1.370 . S
C3119 C3120 1.403 1_455 S
C3120 C3119 1.403 1_655 S
C3120 C3121 1.404 . S
C3120 C3123 1.539 . S
C3121 C3117 1.408 1_655 S
C3121 C3120 1.404 . S
C3121 H3133 0.930 . S
C3122 C3118 1.524 . S
C3122 H3134 0.956 . S
C3122 H3135 0.961 . S
C3122 H3136 0.961 . S
C3123 C3120 1.539 . S
C3123 H3137 0.958 . S
C3123 H3138 0.961 . S
C3123 H3139 0.960 . S
H3124 C3108 0.931 . S
H3125 C3113 0.929 . S
H3126 C3114 0.960 1_655 S
H3127 C3114 0.962 . S
H3128 C3114 0.960 1_655 S
H3129 C3115 0.961 . S
H3130 C3115 0.961 . S
H3131 C3115 0.961 . S
H3132 C3116 0.931 . S
H3133 C3121 0.930 . S
H3134 C3122 0.956 . S
H3135 C3122 0.961 . S
H3136 C3122 0.961 . S
H3137 C3123 0.958 . S
H3138 C3123 0.961 . S
H3139 C3123 0.960 . S
C3140 C3141 1.391 . S
C3140 C3142 1.394 . S
C3140 H3156 0.931 . S
C3141 C3140 1.391 . S
C3141 C3145 1.376 . S
C3142 C3140 1.394 . S
C3142 C3143 1.369 . S
C3142 C3146 1.531 . S
C3143 C3142 1.369 . S
C3143 C3144 1.410 . S
C3143 C3151 1.503 . S
C3144 C3143 1.410 . S
C3144 C3145 1.392 . S
C3144 C3147 1.511 . S
C3145 C3141 1.376 . S
C3145 C3144 1.392 . S
C3145 H3157 0.929 . S
C3146 C3142 1.531 . S
C3146 H3158 0.960 . S
C3146 H3159 0.962 . S
C3146 H3160 0.960 . S
C3147 C3144 1.511 . S
C3147 H3161 0.961 . S
C3147 H3162 0.961 . S
C3147 H3163 0.961 . S
C3148 C3149 1.370 . S
C3148 C3150 1.363 . S
C3148 H3164 0.931 . S
C3149 C3148 1.370 . S
C3149 C3153 1.408 . S
C3150 C3148 1.363 . S
C3150 C3151 1.370 . S
C3150 C3154 1.524 . S
C3151 C3143 1.503 . S
C3151 C3150 1.370 . S
C3151 C3152 1.403 . S
C3152 C3151 1.403 . S
C3152 C3153 1.404 . S
C3152 C3155 1.539 . S
C3153 C3149 1.408 . S
C3153 C3152 1.404 . S
C3153 H3165 0.930 . S
C3154 C3150 1.524 . S
C3154 H3166 0.956 . S
C3154 H3167 0.961 . S
C3154 H3168 0.961 . S
C3155 C3152 1.539 . S
C3155 H3169 0.958 . S
C3155 H3170 0.961 . S
C3155 H3171 0.960 . S
H3156 C3140 0.931 . S
H3157 C3145 0.929 . S
H3158 C3146 0.960 . S
H3159 C3146 0.962 . S
H3160 C3146 0.960 . S
H3161 C3147 0.961 . S
H3162 C3147 0.961 . S
H3163 C3147 0.961 . S
H3164 C3148 0.931 . S
H3165 C3153 0.930 . S
H3166 C3154 0.956 . S
H3167 C3154 0.961 . S
H3168 C3154 0.961 . S
H3169 C3155 0.958 . S
H3170 C3155 0.961 . S
H3171 C3155 0.960 . S
C3172 C3173 1.391 . S
C3172 C3174 1.394 . S
C3172 H3188 0.931 . S
C3173 C3172 1.391 . S
C3173 C3177 1.376 . S
C3174 C3172 1.394 . S
C3174 C3175 1.369 . S
C3174 C3178 1.531 . S
C3175 C3174 1.369 . S
C3175 C3176 1.410 . S
C3175 C3183 1.503 . S
C3176 C3175 1.410 . S
C3176 C3177 1.392 . S
C3176 C3179 1.511 . S
C3177 C3173 1.376 . S
C3177 C3176 1.392 . S
C3177 H3189 0.929 . S
C3178 C3174 1.531 . S
C3178 H3190 0.960 . S
C3178 H3191 0.962 . S
C3178 H3192 0.960 . S
C3179 C3176 1.511 . S
C3179 H3193 0.961 . S
C3179 H3194 0.961 . S
C3179 H3195 0.961 1_565 S
C3180 C3181 1.404 . S
C3180 C3182 1.363 . S
C3180 H3196 0.931 . S
C3181 C3180 1.404 . S
C3181 C3185 1.392 1_565 S
C3182 C3180 1.363 . S
C3182 C3183 1.370 . S
C3182 C3186 1.524 . S
C3183 C3175 1.503 . S
C3183 C3182 1.370 . S
C3183 C3184 1.403 1_565 S
C3184 C3183 1.403 1_545 S
C3184 C3185 1.404 . S
C3184 C3187 1.539 . S
C3185 C3181 1.392 1_545 S
C3185 C3184 1.404 . S
C3185 H3197 0.930 . S
C3186 C3182 1.524 . S
C3186 H3198 0.956 . S
C3186 H3199 0.961 . S
C3186 H3200 0.961 . S
C3187 C3184 1.539 . S
C3187 H3201 0.958 . S
C3187 H3202 0.961 . S
C3187 H3203 0.960 . S
H3188 C3172 0.931 . S
H3189 C3177 0.929 . S
H3190 C3178 0.960 . S
H3191 C3178 0.962 . S
H3192 C3178 0.960 . S
H3193 C3179 0.961 . S
H3194 C3179 0.961 . S
H3195 C3179 0.961 1_545 S
H3196 C3180 0.931 . S
H3197 C3185 0.930 . S
H3198 C3186 0.956 . S
H3199 C3186 0.961 . S
H3200 C3186 0.961 . S
H3201 C3187 0.958 . S
H3202 C3187 0.961 . S
H3203 C3187 0.960 . S
C3204 C3205 1.391 . S
C3204 C3206 1.394 . S
C3204 H3220 0.931 . S
C3205 C3204 1.391 . S
C3205 C3209 1.376 . S
C3206 C3204 1.394 . S
C3206 C3207 1.369 . S
C3206 C3210 1.531 . S
C3207 C3206 1.369 . S
C3207 C3208 1.410 . S
C3207 C3215 1.503 . S
C3208 C3207 1.410 . S
C3208 C3209 1.392 . S
C3208 C3211 1.511 . S
C3209 C3205 1.376 . S
C3209 C3208 1.392 . S
C3209 H3221 0.929 . S
C3210 C3206 1.531 . S
C3210 H3222 0.960 . S
C3210 H3223 0.962 1_545 S
C3210 H3224 0.960 . S
C3211 C3208 1.511 . S
C3211 H3225 0.961 . S
C3211 H3226 0.961 . S
C3211 H3227 0.961 . S
C3212 C3213 1.370 1_565 S
C3212 C3214 1.362 1_565 S
C3212 H3228 0.931 . S
C3213 C3212 1.370 1_545 S
C3213 C3217 1.408 . S
C3214 C3212 1.362 1_545 S
C3214 C3215 1.403 . S
C3214 C3218 1.495 1_545 S
C3215 C3207 1.503 . S
C3215 C3214 1.403 . S
C3215 C3216 1.403 . S
C3216 C3215 1.403 . S
C3216 C3217 1.404 . S
C3216 C3219 1.539 . S
C3217 C3213 1.408 . S
C3217 C3216 1.404 . S
C3217 H3229 0.930 . S
C3218 C3214 1.495 1_565 S
C3218 H3230 0.956 . S
C3218 H3231 0.961 . S
C3218 H3232 0.961 . S
C3219 C3216 1.539 . S
C3219 H3233 0.958 . S
C3219 H3234 0.961 . S
C3219 H3235 0.960 . S
H3220 C3204 0.931 . S
H3221 C3209 0.929 . S
H3222 C3210 0.960 . S
H3223 C3210 0.962 1_565 S
H3224 C3210 0.960 . S
H3225 C3211 0.961 . S
H3226 C3211 0.961 . S
H3227 C3211 0.961 . S
H3228 C3212 0.931 . S
H3229 C3217 0.930 . S
H3230 C3218 0.956 . S
H3231 C3218 0.961 . S
H3232 C3218 0.961 . S
H3233 C3219 0.958 . S
H3234 C3219 0.961 . S
H3235 C3219 0.960 . S
C3236 C3237 1.391 . S
C3236 C3238 1.434 . S
C3236 H3252 0.931 1_655 S
C3237 C3236 1.391 . S
C3237 C3241 1.376 . S
C3238 C3236 1.434 . S
C3238 C3239 1.404 . S
C3238 C3242 1.459 1_655 S
C3239 C3238 1.404 . S
C3239 C3240 1.410 . S
C3239 C3247 1.503 . S
C3240 C3239 1.410 . S
C3240 C3241 1.392 . S
C3240 C3243 1.511 . S
C3241 C3237 1.376 . S
C3241 C3240 1.392 . S
C3241 H3253 0.929 . S
C3242 C3238 1.459 1_455 S
C3242 H3254 0.960 . S
C3242 H3255 0.962 . S
C3242 H3256 0.960 . S
C3243 C3240 1.511 . S
C3243 H3257 0.961 . S
C3243 H3258 0.961 . S
C3243 H3259 0.961 . S
C3244 C3245 1.370 . S
C3244 C3246 1.363 . S
C3244 H3260 0.931 . S
C3245 C3244 1.370 . S
C3245 C3249 1.408 . S
C3246 C3244 1.363 . S
C3246 C3247 1.370 . S
C3246 C3250 1.524 . S
C3247 C3239 1.503 . S
C3247 C3246 1.370 . S
C3247 C3248 1.403 . S
C3248 C3247 1.403 . S
C3248 C3249 1.404 . S
C3248 C3251 1.539 . S
C3249 C3245 1.408 . S
C3249 C3248 1.404 . S
C3249 H3261 0.930 . S
C3250 C3246 1.524 . S
C3250 H3262 0.956 . S
C3250 H3263 0.961 . S
C3250 H3264 0.961 . S
C3251 C3248 1.539 . S
C3251 H3265 0.959 . S
C3251 H3266 0.961 . S
C3251 H3267 0.960 . S
H3252 C3236 0.931 1_455 S
H3253 C3241 0.929 . S
H3254 C3242 0.960 . S
H3255 C3242 0.962 . S
H3256 C3242 0.960 . S
H3257 C3243 0.961 . S
H3258 C3243 0.961 . S
H3259 C3243 0.961 . S
H3260 C3244 0.931 . S
H3261 C3249 0.930 . S
H3262 C3250 0.956 . S
H3263 C3250 0.961 . S
H3264 C3250 0.961 . S
H3265 C3251 0.959 . S
H3266 C3251 0.961 . S
H3267 C3251 0.960 . S
C3268 C3269 1.391 . S
C3268 C3270 1.394 . S
C3268 H3284 0.931 . S
C3269 C3268 1.391 . S
C3269 C3273 1.376 . S
C3270 C3268 1.394 . S
C3270 C3271 1.369 . S
C3270 C3274 1.531 . S
C3271 C3270 1.369 . S
C3271 C3272 1.410 . S
C3271 C3279 1.503 . S
C3272 C3271 1.410 . S
C3272 C3273 1.392 . S
C3272 C3275 1.511 . S
C3273 C3269 1.376 . S
C3273 C3272 1.392 . S
C3273 H3285 0.929 . S
C3274 C3270 1.531 . S
C3274 H3286 0.960 . S
C3274 H3287 0.962 . S
C3274 H3288 0.960 . S
C3275 C3272 1.511 . S
C3275 H3289 0.961 . S
C3275 H3290 0.961 . S
C3275 H3291 0.961 . S
C3276 C3277 1.370 . S
C3276 C3278 1.363 . S
C3276 H3292 0.931 . S
C3277 C3276 1.370 . S
C3277 C3281 1.408 . S
C3278 C3276 1.363 . S
C3278 C3279 1.370 . S
C3278 C3282 1.524 . S
C3279 C3271 1.503 . S
C3279 C3278 1.370 . S
C3279 C3280 1.403 . S
C3280 C3279 1.403 . S
C3280 C3281 1.404 . S
C3280 C3283 1.539 . S
C3281 C3277 1.408 . S
C3281 C3280 1.404 . S
C3281 H3293 0.930 . S
C3282 C3278 1.524 . S
C3282 H3294 0.956 . S
C3282 H3295 0.961 . S
C3282 H3296 0.961 . S
C3283 C3280 1.539 . S
C3283 H3297 0.958 . S
C3283 H3298 0.961 . S
C3283 H3299 0.960 . S
H3284 C3268 0.931 . S
H3285 C3273 0.929 . S
H3286 C3274 0.960 . S
H3287 C3274 0.962 . S
H3288 C3274 0.960 . S
H3289 C3275 0.961 . S
H3290 C3275 0.961 . S
H3291 C3275 0.961 . S
H3292 C3276 0.931 . S
H3293 C3281 0.930 . S
H3294 C3282 0.956 . S
H3295 C3282 0.961 . S
H3296 C3282 0.961 . S
H3297 C3283 0.958 . S
H3298 C3283 0.961 . S
H3299 C3283 0.960 . S
C3300 C3301 1.391 . S
C3300 C3302 1.394 . S
C3300 H3316 0.931 . S
C3301 C3300 1.391 . S
C3301 C3305 1.376 . S
C3302 C3300 1.394 . S
C3302 C3303 1.369 . S
C3302 C3306 1.531 . S
C3303 C3302 1.369 . S
C3303 C3304 1.410 . S
C3303 C3311 1.503 . S
C3304 C3303 1.410 . S
C3304 C3305 1.392 . S
C3304 C3307 1.511 . S
C3305 C3301 1.376 . S
C3305 C3304 1.392 . S
C3305 H3317 0.929 . S
C3306 C3302 1.531 . S
C3306 H3318 0.960 . S
C3306 H3319 0.962 . S
C3306 H3320 0.960 . S
C3307 C3304 1.511 . S
C3307 H3321 0.961 . S
C3307 H3322 0.961 . S
C3307 H3323 0.961 . S
C3308 C3309 1.370 . S
C3308 C3310 1.363 . S
C3308 H3324 0.931 . S
C3309 C3308 1.370 . S
C3309 C3313 1.408 . S
C3310 C3308 1.363 . S
C3310 C3311 1.370 . S
C3310 C3314 1.524 . S
C3311 C3303 1.503 . S
C3311 C3310 1.370 . S
C3311 C3312 1.403 . S
C3312 C3311 1.403 . S
C3312 C3313 1.404 . S
C3312 C3315 1.539 . S
C3313 C3309 1.408 . S
C3313 C3312 1.404 . S
C3313 H3325 0.930 . S
C3314 C3310 1.524 . S
C3314 H3326 0.956 . S
C3314 H3327 0.961 . S
C3314 H3328 0.961 . S
C3315 C3312 1.539 . S
C3315 H3329 0.958 . S
C3315 H3330 0.961 . S
C3315 H3331 0.960 . S
H3316 C3300 0.931 . S
H3317 C3305 0.929 . S
H3318 C3306 0.960 . S
H3319 C3306 0.962 . S
H3320 C3306 0.960 . S
H3321 C3307 0.961 . S
H3322 C3307 0.961 . S
H3323 C3307 0.961 . S
H3324 C3308 0.931 . S
H3325 C3313 0.930 . S
H3326 C3314 0.956 . S
H3327 C3314 0.961 . S
H3328 C3314 0.961 . S
H3329 C3315 0.958 . S
H3330 C3315 0.961 . S
H3331 C3315 0.960 . S
C3332 C3333 1.391 . S
C3332 C3334 1.394 . S
C3332 H3348 0.931 . S
C3333 C3332 1.391 . S
C3333 C3337 1.376 . S
C3334 C3332 1.394 . S
C3334 C3335 1.369 . S
C3334 C3338 1.531 . S
C3335 C3334 1.369 . S
C3335 C3336 1.410 . S
C3335 C3343 1.503 . S
C3336 C3335 1.410 . S
C3336 C3337 1.392 . S
C3336 C3339 1.511 . S
C3337 C3333 1.376 . S
C3337 C3336 1.392 . S
C3337 H3349 0.929 . S
C3338 C3334 1.531 . S
C3338 H3350 0.960 . S
C3338 H3351 0.962 . S
C3338 H3352 0.960 . S
C3339 C3336 1.511 . S
C3339 H3353 0.961 . S
C3339 H3354 0.961 . S
C3339 H3355 0.961 . S
C3340 C3341 1.370 . S
C3340 C3342 1.363 . S
C3340 H3356 0.931 . S
C3341 C3340 1.370 . S
C3341 C3345 1.408 . S
C3342 C3340 1.363 . S
C3342 C3343 1.370 . S
C3342 C3346 1.524 . S
C3343 C3335 1.503 . S
C3343 C3342 1.370 . S
C3343 C3344 1.403 . S
C3344 C3343 1.403 . S
C3344 C3345 1.404 . S
C3344 C3347 1.539 . S
C3345 C3341 1.408 . S
C3345 C3344 1.404 . S
C3345 H3357 0.930 . S
C3346 C3342 1.524 . S
C3346 H3358 0.956 . S
C3346 H3359 0.961 . S
C3346 H3360 0.961 . S
C3347 C3344 1.539 . S
C3347 H3361 0.958 . S
C3347 H3362 0.961 . S
C3347 H3363 0.960 . S
H3348 C3332 0.931 . S
H3349 C3337 0.929 . S
H3350 C3338 0.960 . S
H3351 C3338 0.962 . S
H3352 C3338 0.960 . S
H3353 C3339 0.961 . S
H3354 C3339 0.961 . S
H3355 C3339 0.961 . S
H3356 C3340 0.931 . S
H3357 C3345 0.930 . S
H3358 C3346 0.956 . S
H3359 C3346 0.961 . S
H3360 C3346 0.961 . S
H3361 C3347 0.958 . S
H3362 C3347 0.961 . S
H3363 C3347 0.960 . S
C3364 C3365 1.391 . S
C3364 C3366 1.394 . S
C3364 H3380 0.931 . S
C3365 C3364 1.391 . S
C3365 C3369 1.376 . S
C3366 C3364 1.394 . S
C3366 C3367 1.369 . S
C3366 C3370 1.531 . S
C3367 C3366 1.369 . S
C3367 C3368 1.410 . S
C3367 C3375 1.503 . S
C3368 C3367 1.410 . S
C3368 C3369 1.392 . S
C3368 C3371 1.511 . S
C3369 C3365 1.376 . S
C3369 C3368 1.392 . S
C3369 H3381 0.929 . S
C3370 C3366 1.531 . S
C3370 H3382 0.960 . S
C3370 H3383 0.962 . S
C3370 H3384 0.960 . S
C3371 C3368 1.511 . S
C3371 H3385 0.961 . S
C3371 H3386 0.961 . S
C3371 H3387 0.961 . S
C3372 C3373 1.370 . S
C3372 C3374 1.363 . S
C3372 H3388 0.931 . S
C3373 C3372 1.370 . S
C3373 C3377 1.408 . S
C3374 C3372 1.363 . S
C3374 C3375 1.370 . S
C3374 C3378 1.524 . S
C3375 C3367 1.503 . S
C3375 C3374 1.370 . S
C3375 C3376 1.403 . S
C3376 C3375 1.403 . S
C3376 C3377 1.404 . S
C3376 C3379 1.539 . S
C3377 C3373 1.408 . S
C3377 C3376 1.404 . S
C3377 H3389 0.930 . S
C3378 C3374 1.524 . S
C3378 H3390 0.956 . S
C3378 H3391 0.961 . S
C3378 H3392 0.961 . S
C3379 C3376 1.539 . S
C3379 H3393 0.958 . S
C3379 H3394 0.961 . S
C3379 H3395 0.960 . S
H3380 C3364 0.931 . S
H3381 C3369 0.929 . S
H3382 C3370 0.960 . S
H3383 C3370 0.962 . S
H3384 C3370 0.960 . S
H3385 C3371 0.961 . S
H3386 C3371 0.961 . S
H3387 C3371 0.961 . S
H3388 C3372 0.931 . S
H3389 C3377 0.930 . S
H3390 C3378 0.956 . S
H3391 C3378 0.961 . S
H3392 C3378 0.961 . S
H3393 C3379 0.958 . S
H3394 C3379 0.961 . S
H3395 C3379 0.960 . S
C3396 C3397 1.391 . S
C3396 C3398 1.394 . S
C3396 H3412 0.931 . S
C3397 C3396 1.391 . S
C3397 C3401 1.376 . S
C3398 C3396 1.394 . S
C3398 C3399 1.369 . S
C3398 C3402 1.531 . S
C3399 C3398 1.369 . S
C3399 C3400 1.410 . S
C3399 C3407 1.503 . S
C3400 C3399 1.410 . S
C3400 C3401 1.392 . S
C3400 C3403 1.511 . S
C3401 C3397 1.376 . S
C3401 C3400 1.392 . S
C3401 H3413 0.929 . S
C3402 C3398 1.531 . S
C3402 H3414 0.960 . S
C3402 H3415 0.962 . S
C3402 H3416 0.960 . S
C3403 C3400 1.511 . S
C3403 H3417 0.961 . S
C3403 H3418 0.961 . S
C3403 H3419 0.961 . S
C3404 C3405 1.370 . S
C3404 C3406 1.363 . S
C3404 H3420 0.931 . S
C3405 C3404 1.370 . S
C3405 C3409 1.408 . S
C3406 C3404 1.363 . S
C3406 C3407 1.370 . S
C3406 C3410 1.524 . S
C3407 C3399 1.503 . S
C3407 C3406 1.370 . S
C3407 C3408 1.403 . S
C3408 C3407 1.403 . S
C3408 C3409 1.404 . S
C3408 C3411 1.539 . S
C3409 C3405 1.408 . S
C3409 C3408 1.404 . S
C3409 H3421 0.930 . S
C3410 C3406 1.524 . S
C3410 H3422 0.956 . S
C3410 H3423 0.961 . S
C3410 H3424 0.961 . S
C3411 C3408 1.539 . S
C3411 H3425 0.958 . S
C3411 H3426 0.961 . S
C3411 H3427 0.960 . S
H3412 C3396 0.931 . S
H3413 C3401 0.929 . S
H3414 C3402 0.960 . S
H3415 C3402 0.962 . S
H3416 C3402 0.960 . S
H3417 C3403 0.961 . S
H3418 C3403 0.961 . S
H3419 C3403 0.961 . S
H3420 C3404 0.931 . S
H3421 C3409 0.930 . S
H3422 C3410 0.956 . S
H3423 C3410 0.961 . S
H3424 C3410 0.961 . S
H3425 C3411 0.958 . S
H3426 C3411 0.961 . S
H3427 C3411 0.960 . S
C3428 C3429 1.391 . S
C3428 C3430 1.394 . S
C3428 H3444 0.931 . S
C3429 C3428 1.391 . S
C3429 C3433 1.376 . S
C3430 C3428 1.394 . S
C3430 C3431 1.369 . S
C3430 C3434 1.531 . S
C3431 C3430 1.369 . S
C3431 C3432 1.410 . S
C3431 C3439 1.503 . S
C3432 C3431 1.410 . S
C3432 C3433 1.392 . S
C3432 C3435 1.511 . S
C3433 C3429 1.376 . S
C3433 C3432 1.392 . S
C3433 H3445 0.929 . S
C3434 C3430 1.531 . S
C3434 H3446 0.960 . S
C3434 H3447 0.962 . S
C3434 H3448 0.960 . S
C3435 C3432 1.511 . S
C3435 H3449 0.961 . S
C3435 H3450 0.961 . S
C3435 H3451 0.961 . S
C3436 C3437 1.370 . S
C3436 C3438 1.363 . S
C3436 H3452 0.931 . S
C3437 C3436 1.370 . S
C3437 C3441 1.408 . S
C3438 C3436 1.363 . S
C3438 C3439 1.370 . S
C3438 C3442 1.524 . S
C3439 C3431 1.503 . S
C3439 C3438 1.370 . S
C3439 C3440 1.403 . S
C3440 C3439 1.403 . S
C3440 C3441 1.404 . S
C3440 C3443 1.539 . S
C3441 C3437 1.408 . S
C3441 C3440 1.404 . S
C3441 H3453 0.930 . S
C3442 C3438 1.524 . S
C3442 H3454 0.956 . S
C3442 H3455 0.961 . S
C3442 H3456 0.961 . S
C3443 C3440 1.539 . S
C3443 H3457 0.958 . S
C3443 H3458 0.961 . S
C3443 H3459 0.960 . S
H3444 C3428 0.931 . S
H3445 C3433 0.929 . S
H3446 C3434 0.960 . S
H3447 C3434 0.962 . S
H3448 C3434 0.960 . S
H3449 C3435 0.961 . S
H3450 C3435 0.961 . S
H3451 C3435 0.961 . S
H3452 C3436 0.931 . S
H3453 C3441 0.930 . S
H3454 C3442 0.956 . S
H3455 C3442 0.961 . S
H3456 C3442 0.961 . S
H3457 C3443 0.958 . S
H3458 C3443 0.961 . S
H3459 C3443 0.960 . S
C3460 C3461 1.391 . S
C3460 C3462 1.394 . S
C3460 H3476 0.931 . S
C3461 C3460 1.391 . S
C3461 C3465 1.376 . S
C3462 C3460 1.394 . S
C3462 C3463 1.369 . S
C3462 C3466 1.531 . S
C3463 C3462 1.369 . S
C3463 C3464 1.410 . S
C3463 C3471 1.503 . S
C3464 C3463 1.410 . S
C3464 C3465 1.392 . S
C3464 C3467 1.511 . S
C3465 C3461 1.376 . S
C3465 C3464 1.392 . S
C3465 H3477 0.929 . S
C3466 C3462 1.531 . S
C3466 H3478 0.960 . S
C3466 H3479 0.962 . S
C3466 H3480 0.960 . S
C3467 C3464 1.511 . S
C3467 H3481 0.961 . S
C3467 H3482 0.961 . S
C3467 H3483 0.961 . S
C3468 C3469 1.370 . S
C3468 C3470 1.363 . S
C3468 H3484 0.931 . S
C3469 C3468 1.370 . S
C3469 C3473 1.408 . S
C3470 C3468 1.363 . S
C3470 C3471 1.370 . S
C3470 C3474 1.524 . S
C3471 C3463 1.503 . S
C3471 C3470 1.370 . S
C3471 C3472 1.403 . S
C3472 C3471 1.403 . S
C3472 C3473 1.404 . S
C3472 C3475 1.539 . S
C3473 C3469 1.408 . S
C3473 C3472 1.404 . S
C3473 H3485 0.930 . S
C3474 C3470 1.524 . S
C3474 H3486 0.956 . S
C3474 H3487 0.961 . S
C3474 H3488 0.961 . S
C3475 C3472 1.539 . S
C3475 H3489 0.958 . S
C3475 H3490 0.961 . S
C3475 H3491 0.960 . S
H3476 C3460 0.931 . S
H3477 C3465 0.929 . S
H3478 C3466 0.960 . S
H3479 C3466 0.962 . S
H3480 C3466 0.960 . S
H3481 C3467 0.961 . S
H3482 C3467 0.961 . S
H3483 C3467 0.961 . S
H3484 C3468 0.931 . S
H3485 C3473 0.930 . S
H3486 C3474 0.956 . S
H3487 C3474 0.961 . S
H3488 C3474 0.961 . S
H3489 C3475 0.958 . S
H3490 C3475 0.961 . S
H3491 C3475 0.960 . S
C3492 C3493 1.391 . S
C3492 C3494 1.394 . S
C3492 H3508 0.931 . S
C3493 C3492 1.391 . S
C3493 C3497 1.376 . S
C3494 C3492 1.394 . S
C3494 C3495 1.369 . S
C3494 C3498 1.531 . S
C3495 C3494 1.369 . S
C3495 C3496 1.410 . S
C3495 C3503 1.503 . S
C3496 C3495 1.410 . S
C3496 C3497 1.392 . S
C3496 C3499 1.511 . S
C3497 C3493 1.376 . S
C3497 C3496 1.392 . S
C3497 H3509 0.929 . S
C3498 C3494 1.531 . S
C3498 H3510 0.960 . S
C3498 H3511 0.962 . S
C3498 H3512 0.960 . S
C3499 C3496 1.511 . S
C3499 H3513 0.961 . S
C3499 H3514 0.961 . S
C3499 H3515 0.961 . S
C3500 C3501 1.370 . S
C3500 C3502 1.363 . S
C3500 H3516 0.931 . S
C3501 C3500 1.370 . S
C3501 C3505 1.408 . S
C3502 C3500 1.363 . S
C3502 C3503 1.370 . S
C3502 C3506 1.524 . S
C3503 C3495 1.503 . S
C3503 C3502 1.370 . S
C3503 C3504 1.403 . S
C3504 C3503 1.403 . S
C3504 C3505 1.404 . S
C3504 C3507 1.539 . S
C3505 C3501 1.408 . S
C3505 C3504 1.404 . S
C3505 H3517 0.930 . S
C3506 C3502 1.524 . S
C3506 H3518 0.956 . S
C3506 H3519 0.961 . S
C3506 H3520 0.961 . S
C3507 C3504 1.539 . S
C3507 H3521 0.958 . S
C3507 H3522 0.961 . S
C3507 H3523 0.960 . S
H3508 C3492 0.931 . S
H3509 C3497 0.929 . S
H3510 C3498 0.960 . S
H3511 C3498 0.962 . S
H3512 C3498 0.960 . S
H3513 C3499 0.961 . S
H3514 C3499 0.961 . S
H3515 C3499 0.961 . S
H3516 C3500 0.931 . S
H3517 C3505 0.930 . S
H3518 C3506 0.956 . S
H3519 C3506 0.961 . S
H3520 C3506 0.961 . S
H3521 C3507 0.958 . S
H3522 C3507 0.961 . S
H3523 C3507 0.960 . S
C3524 C3525 1.391 . S
C3524 C3526 1.394 . S
C3524 H3540 0.931 . S
C3525 C3524 1.391 . S
C3525 C3529 1.376 . S
C3526 C3524 1.394 . S
C3526 C3527 1.369 . S
C3526 C3530 1.531 . S
C3527 C3526 1.369 . S
C3527 C3528 1.410 . S
C3527 C3535 1.503 . S
C3528 C3527 1.410 . S
C3528 C3529 1.392 . S
C3528 C3531 1.511 . S
C3529 C3525 1.376 . S
C3529 C3528 1.392 . S
C3529 H3541 0.929 . S
C3530 C3526 1.531 . S
C3530 H3542 0.960 . S
C3530 H3543 0.962 . S
C3530 H3544 0.960 . S
C3531 C3528 1.511 . S
C3531 H3545 0.961 . S
C3531 H3546 0.961 . S
C3531 H3547 0.961 . S
C3532 C3533 1.370 . S
C3532 C3534 1.363 . S
C3532 H3548 0.931 . S
C3533 C3532 1.370 . S
C3533 C3537 1.408 . S
C3534 C3532 1.363 . S
C3534 C3535 1.370 . S
C3534 C3538 1.524 . S
C3535 C3527 1.503 . S
C3535 C3534 1.370 . S
C3535 C3536 1.403 . S
C3536 C3535 1.403 . S
C3536 C3537 1.404 . S
C3536 C3539 1.539 . S
C3537 C3533 1.408 . S
C3537 C3536 1.404 . S
C3537 H3549 0.930 . S
C3538 C3534 1.524 . S
C3538 H3550 0.956 . S
C3538 H3551 0.961 . S
C3538 H3552 0.961 . S
C3539 C3536 1.539 . S
C3539 H3553 0.958 . S
C3539 H3554 0.961 . S
C3539 H3555 0.960 . S
H3540 C3524 0.931 . S
H3541 C3529 0.929 . S
H3542 C3530 0.960 . S
H3543 C3530 0.962 . S
H3544 C3530 0.960 . S
H3545 C3531 0.961 . S
H3546 C3531 0.961 . S
H3547 C3531 0.961 . S
H3548 C3532 0.931 . S
H3549 C3537 0.930 . S
H3550 C3538 0.956 . S
H3551 C3538 0.961 . S
H3552 C3538 0.961 . S
H3553 C3539 0.958 . S
H3554 C3539 0.961 . S
H3555 C3539 0.960 . S
C3556 C3557 1.391 . S
C3556 C3558 1.394 . S
C3556 H3572 0.931 . S
C3557 C3556 1.391 . S
C3557 C3561 1.376 . S
C3558 C3556 1.394 . S
C3558 C3559 1.369 . S
C3558 C3562 1.531 . S
C3559 C3558 1.369 . S
C3559 C3560 1.410 . S
C3559 C3567 1.503 . S
C3560 C3559 1.410 . S
C3560 C3561 1.392 . S
C3560 C3563 1.511 . S
C3561 C3557 1.376 . S
C3561 C3560 1.392 . S
C3561 H3573 0.929 . S
C3562 C3558 1.531 . S
C3562 H3574 0.960 . S
C3562 H3575 0.962 . S
C3562 H3576 0.960 . S
C3563 C3560 1.511 . S
C3563 H3577 0.961 . S
C3563 H3578 0.961 . S
C3563 H3579 0.961 . S
C3564 C3565 1.370 . S
C3564 C3566 1.363 . S
C3564 H3580 0.931 . S
C3565 C3564 1.370 . S
C3565 C3569 1.408 . S
C3566 C3564 1.363 . S
C3566 C3567 1.370 . S
C3566 C3570 1.524 . S
C3567 C3559 1.503 . S
C3567 C3566 1.370 . S
C3567 C3568 1.403 . S
C3568 C3567 1.403 . S
C3568 C3569 1.404 . S
C3568 C3571 1.539 . S
C3569 C3565 1.408 . S
C3569 C3568 1.404 . S
C3569 H3581 0.930 . S
C3570 C3566 1.524 . S
C3570 H3582 0.956 . S
C3570 H3583 0.961 . S
C3570 H3584 0.961 . S
C3571 C3568 1.539 . S
C3571 H3585 0.958 . S
C3571 H3586 0.961 . S
C3571 H3587 0.960 . S
H3572 C3556 0.931 . S
H3573 C3561 0.929 . S
H3574 C3562 0.960 . S
H3575 C3562 0.962 . S
H3576 C3562 0.960 . S
H3577 C3563 0.961 . S
H3578 C3563 0.961 . S
H3579 C3563 0.961 . S
H3580 C3564 0.931 . S
H3581 C3569 0.930 . S
H3582 C3570 0.956 . S
H3583 C3570 0.961 . S
H3584 C3570 0.961 . S
H3585 C3571 0.958 . S
H3586 C3571 0.961 . S
H3587 C3571 0.960 . S
C3588 C3589 1.391 . S
C3588 C3590 1.394 . S
C3588 H3604 0.931 . S
C3589 C3588 1.391 . S
C3589 C3593 1.376 . S
C3590 C3588 1.394 . S
C3590 C3591 1.369 . S
C3590 C3594 1.531 . S
C3591 C3590 1.369 . S
C3591 C3592 1.410 . S
C3591 C3599 1.503 . S
C3592 C3591 1.410 . S
C3592 C3593 1.392 . S
C3592 C3595 1.511 . S
C3593 C3589 1.376 . S
C3593 C3592 1.392 . S
C3593 H3605 0.929 . S
C3594 C3590 1.531 . S
C3594 H3606 0.960 . S
C3594 H3607 0.962 . S
C3594 H3608 0.960 . S
C3595 C3592 1.511 . S
C3595 H3609 0.961 . S
C3595 H3610 0.961 . S
C3595 H3611 0.961 . S
C3596 C3597 1.370 . S
C3596 C3598 1.363 . S
C3596 H3612 0.931 . S
C3597 C3596 1.370 . S
C3597 C3601 1.408 . S
C3598 C3596 1.363 . S
C3598 C3599 1.370 . S
C3598 C3602 1.524 . S
C3599 C3591 1.503 . S
C3599 C3598 1.370 . S
C3599 C3600 1.403 . S
C3600 C3599 1.403 . S
C3600 C3601 1.404 . S
C3600 C3603 1.539 . S
C3601 C3597 1.408 . S
C3601 C3600 1.404 . S
C3601 H3613 0.930 . S
C3602 C3598 1.524 . S
C3602 H3614 0.956 . S
C3602 H3615 0.961 . S
C3602 H3616 0.961 . S
C3603 C3600 1.539 . S
C3603 H3617 0.958 . S
C3603 H3618 0.961 . S
C3603 H3619 0.960 . S
H3604 C3588 0.931 . S
H3605 C3593 0.929 . S
H3606 C3594 0.960 . S
H3607 C3594 0.962 . S
H3608 C3594 0.960 . S
H3609 C3595 0.961 . S
H3610 C3595 0.961 . S
H3611 C3595 0.961 . S
H3612 C3596 0.931 . S
H3613 C3601 0.930 . S
H3614 C3602 0.956 . S
H3615 C3602 0.961 . S
H3616 C3602 0.961 . S
H3617 C3603 0.958 . S
H3618 C3603 0.961 . S
H3619 C3603 0.960 . S
C3620 C3621 1.391 . S
C3620 C3622 1.394 . S
C3620 H3636 0.931 . S
C3621 C3620 1.391 . S
C3621 C3625 1.376 . S
C3622 C3620 1.394 . S
C3622 C3623 1.369 . S
C3622 C3626 1.531 . S
C3623 C3622 1.369 . S
C3623 C3624 1.410 . S
C3623 C3631 1.503 . S
C3624 C3623 1.410 . S
C3624 C3625 1.392 . S
C3624 C3627 1.511 . S
C3625 C3621 1.376 . S
C3625 C3624 1.392 . S
C3625 H3637 0.929 . S
C3626 C3622 1.531 . S
C3626 H3638 0.960 . S
C3626 H3639 0.962 . S
C3626 H3640 0.960 . S
C3627 C3624 1.511 . S
C3627 H3641 0.961 . S
C3627 H3642 0.961 . S
C3627 H3643 0.961 . S
C3628 C3629 1.370 . S
C3628 C3630 1.363 . S
C3628 H3644 0.931 . S
C3629 C3628 1.370 . S
C3629 C3633 1.408 . S
C3630 C3628 1.363 . S
C3630 C3631 1.370 . S
C3630 C3634 1.524 . S
C3631 C3623 1.503 . S
C3631 C3630 1.370 . S
C3631 C3632 1.403 . S
C3632 C3631 1.403 . S
C3632 C3633 1.404 . S
C3632 C3635 1.539 . S
C3633 C3629 1.408 . S
C3633 C3632 1.404 . S
C3633 H3645 0.930 . S
C3634 C3630 1.524 . S
C3634 H3646 0.956 . S
C3634 H3647 0.961 . S
C3634 H3648 0.961 . S
C3635 C3632 1.539 . S
C3635 H3649 0.958 . S
C3635 H3650 0.961 . S
C3635 H3651 0.960 . S
H3636 C3620 0.931 . S
H3637 C3625 0.929 . S
H3638 C3626 0.960 . S
H3639 C3626 0.962 . S
H3640 C3626 0.960 . S
H3641 C3627 0.961 . S
H3642 C3627 0.961 . S
H3643 C3627 0.961 . S
H3644 C3628 0.931 . S
H3645 C3633 0.930 . S
H3646 C3634 0.956 . S
H3647 C3634 0.961 . S
H3648 C3634 0.961 . S
H3649 C3635 0.958 . S
H3650 C3635 0.961 . S
H3651 C3635 0.960 . S
C3652 C3653 1.391 . S
C3652 C3654 1.394 . S
C3652 H3668 0.931 . S
C3653 C3652 1.391 . S
C3653 C3657 1.376 . S
C3654 C3652 1.394 . S
C3654 C3655 1.369 . S
C3654 C3658 1.531 . S
C3655 C3654 1.369 . S
C3655 C3656 1.410 . S
C3655 C3663 1.503 . S
C3656 C3655 1.410 . S
C3656 C3657 1.392 . S
C3656 C3659 1.511 . S
C3657 C3653 1.376 . S
C3657 C3656 1.392 . S
C3657 H3669 0.929 . S
C3658 C3654 1.531 . S
C3658 H3670 0.960 . S
C3658 H3671 0.962 . S
C3658 H3672 0.960 . S
C3659 C3656 1.511 . S
C3659 H3673 0.961 . S
C3659 H3674 0.961 . S
C3659 H3675 0.961 . S
C3660 C3661 1.370 . S
C3660 C3662 1.363 . S
C3660 H3676 0.931 . S
C3661 C3660 1.370 . S
C3661 C3665 1.408 . S
C3662 C3660 1.363 . S
C3662 C3663 1.370 . S
C3662 C3666 1.524 . S
C3663 C3655 1.503 . S
C3663 C3662 1.370 . S
C3663 C3664 1.403 . S
C3664 C3663 1.403 . S
C3664 C3665 1.404 . S
C3664 C3667 1.539 . S
C3665 C3661 1.408 . S
C3665 C3664 1.404 . S
C3665 H3677 0.930 . S
C3666 C3662 1.524 . S
C3666 H3678 0.956 . S
C3666 H3679 0.961 . S
C3666 H3680 0.961 . S
C3667 C3664 1.539 . S
C3667 H3681 0.958 . S
C3667 H3682 0.961 . S
C3667 H3683 0.960 . S
H3668 C3652 0.931 . S
H3669 C3657 0.929 . S
H3670 C3658 0.960 . S
H3671 C3658 0.962 . S
H3672 C3658 0.960 . S
H3673 C3659 0.961 . S
H3674 C3659 0.961 . S
H3675 C3659 0.961 . S
H3676 C3660 0.931 . S
H3677 C3665 0.930 . S
H3678 C3666 0.956 . S
H3679 C3666 0.961 . S
H3680 C3666 0.961 . S
H3681 C3667 0.958 . S
H3682 C3667 0.961 . S
H3683 C3667 0.960 . S
C3684 C3685 1.391 . S
C3684 C3686 1.394 . S
C3684 H3700 0.931 . S
C3685 C3684 1.391 . S
C3685 C3689 1.376 . S
C3686 C3684 1.394 . S
C3686 C3687 1.369 . S
C3686 C3690 1.531 . S
C3687 C3686 1.369 . S
C3687 C3688 1.410 . S
C3687 C3695 1.503 . S
C3688 C3687 1.410 . S
C3688 C3689 1.392 . S
C3688 C3691 1.511 . S
C3689 C3685 1.376 . S
C3689 C3688 1.392 . S
C3689 H3701 0.929 . S
C3690 C3686 1.531 . S
C3690 H3702 0.960 . S
C3690 H3703 0.962 . S
C3690 H3704 0.960 . S
C3691 C3688 1.511 . S
C3691 H3705 0.961 . S
C3691 H3706 0.961 . S
C3691 H3707 0.961 . S
C3692 C3693 1.370 . S
C3692 C3694 1.363 . S
C3692 H3708 0.931 . S
C3693 C3692 1.370 . S
C3693 C3697 1.408 . S
C3694 C3692 1.363 . S
C3694 C3695 1.370 . S
C3694 C3698 1.524 . S
C3695 C3687 1.503 . S
C3695 C3694 1.370 . S
C3695 C3696 1.403 . S
C3696 C3695 1.403 . S
C3696 C3697 1.404 . S
C3696 C3699 1.539 . S
C3697 C3693 1.408 . S
C3697 C3696 1.404 . S
C3697 H3709 0.930 . S
C3698 C3694 1.524 . S
C3698 H3710 0.956 . S
C3698 H3711 0.961 . S
C3698 H3712 0.961 . S
C3699 C3696 1.539 . S
C3699 H3713 0.958 . S
C3699 H3714 0.961 . S
C3699 H3715 0.960 . S
H3700 C3684 0.931 . S
H3701 C3689 0.929 . S
H3702 C3690 0.960 . S
H3703 C3690 0.962 . S
H3704 C3690 0.960 . S
H3705 C3691 0.961 . S
H3706 C3691 0.961 . S
H3707 C3691 0.961 . S
H3708 C3692 0.931 . S
H3709 C3697 0.930 . S
H3710 C3698 0.956 . S
H3711 C3698 0.961 . S
H3712 C3698 0.961 . S
H3713 C3699 0.958 . S
H3714 C3699 0.961 . S
H3715 C3699 0.960 . S
C3716 C3717 1.391 . S
C3716 C3718 1.394 . S
C3716 H3732 0.931 . S
C3717 C3716 1.391 . S
C3717 C3721 1.376 . S
C3718 C3716 1.394 . S
C3718 C3719 1.369 . S
C3718 C3722 1.531 . S
C3719 C3718 1.369 . S
C3719 C3720 1.410 . S
C3719 C3727 1.503 . S
C3720 C3719 1.410 . S
C3720 C3721 1.392 . S
C3720 C3723 1.511 . S
C3721 C3717 1.376 . S
C3721 C3720 1.392 . S
C3721 H3733 0.929 . S
C3722 C3718 1.531 . S
C3722 H3734 0.960 . S
C3722 H3735 0.962 . S
C3722 H3736 0.960 . S
C3723 C3720 1.511 . S
C3723 H3737 0.961 . S
C3723 H3738 0.961 . S
C3723 H3739 0.961 . S
C3724 C3725 1.370 . S
C3724 C3726 1.363 . S
C3724 H3740 0.931 . S
C3725 C3724 1.370 . S
C3725 C3729 1.408 . S
C3726 C3724 1.363 . S
C3726 C3727 1.370 . S
C3726 C3730 1.524 . S
C3727 C3719 1.503 . S
C3727 C3726 1.370 . S
C3727 C3728 1.403 . S
C3728 C3727 1.403 . S
C3728 C3729 1.404 . S
C3728 C3731 1.539 . S
C3729 C3725 1.408 . S
C3729 C3728 1.404 . S
C3729 H3741 0.930 . S
C3730 C3726 1.524 . S
C3730 H3742 0.956 . S
C3730 H3743 0.961 . S
C3730 H3744 0.961 . S
C3731 C3728 1.539 . S
C3731 H3745 0.958 . S
C3731 H3746 0.961 . S
C3731 H3747 0.960 . S
H3732 C3716 0.931 . S
H3733 C3721 0.929 . S
H3734 C3722 0.960 . S
H3735 C3722 0.962 . S
H3736 C3722 0.960 . S
H3737 C3723 0.961 . S
H3738 C3723 0.961 . S
H3739 C3723 0.961 . S
H3740 C3724 0.931 . S
H3741 C3729 0.930 . S
H3742 C3730 0.956 . S
H3743 C3730 0.961 . S
H3744 C3730 0.961 . S
H3745 C3731 0.958 . S
H3746 C3731 0.961 . S
H3747 C3731 0.960 . S
C3748 C3749 1.391 . S
C3748 C3750 1.394 . S
C3748 H3764 0.931 . S
C3749 C3748 1.391 . S
C3749 C3753 1.376 . S
C3750 C3748 1.394 . S
C3750 C3751 1.369 . S
C3750 C3754 1.531 . S
C3751 C3750 1.369 . S
C3751 C3752 1.410 . S
C3751 C3759 1.503 . S
C3752 C3751 1.410 . S
C3752 C3753 1.392 . S
C3752 C3755 1.511 . S
C3753 C3749 1.376 . S
C3753 C3752 1.392 . S
C3753 H3765 0.929 . S
C3754 C3750 1.531 . S
C3754 H3766 0.960 . S
C3754 H3767 0.962 . S
C3754 H3768 0.960 . S
C3755 C3752 1.511 . S
C3755 H3769 0.961 . S
C3755 H3770 0.961 . S
C3755 H3771 0.961 . S
C3756 C3757 1.370 . S
C3756 C3758 1.363 . S
C3756 H3772 0.931 . S
C3757 C3756 1.370 . S
C3757 C3761 1.408 . S
C3758 C3756 1.363 . S
C3758 C3759 1.370 . S
C3758 C3762 1.524 . S
C3759 C3751 1.503 . S
C3759 C3758 1.370 . S
C3759 C3760 1.403 . S
C3760 C3759 1.403 . S
C3760 C3761 1.404 . S
C3760 C3763 1.539 . S
C3761 C3757 1.408 . S
C3761 C3760 1.404 . S
C3761 H3773 0.930 . S
C3762 C3758 1.524 . S
C3762 H3774 0.956 . S
C3762 H3775 0.961 . S
C3762 H3776 0.961 . S
C3763 C3760 1.539 . S
C3763 H3777 0.958 . S
C3763 H3778 0.961 . S
C3763 H3779 0.960 . S
H3764 C3748 0.931 . S
H3765 C3753 0.929 . S
H3766 C3754 0.960 . S
H3767 C3754 0.962 . S
H3768 C3754 0.960 . S
H3769 C3755 0.961 . S
H3770 C3755 0.961 . S
H3771 C3755 0.961 . S
H3772 C3756 0.931 . S
H3773 C3761 0.930 . S
H3774 C3762 0.956 . S
H3775 C3762 0.961 . S
H3776 C3762 0.961 . S
H3777 C3763 0.958 . S
H3778 C3763 0.961 . S
H3779 C3763 0.960 . S
C3780 C3781 1.391 . S
C3780 C3782 1.394 . S
C3780 H3796 0.931 . S
C3781 C3780 1.391 . S
C3781 C3785 1.376 . S
C3782 C3780 1.394 . S
C3782 C3783 1.369 . S
C3782 C3786 1.531 . S
C3783 C3782 1.369 . S
C3783 C3784 1.410 . S
C3783 C3791 1.503 . S
C3784 C3783 1.410 . S
C3784 C3785 1.392 . S
C3784 C3787 1.511 . S
C3785 C3781 1.376 . S
C3785 C3784 1.392 . S
C3785 H3797 0.929 . S
C3786 C3782 1.531 . S
C3786 H3798 0.960 . S
C3786 H3799 0.962 . S
C3786 H3800 0.960 . S
C3787 C3784 1.511 . S
C3787 H3801 0.961 . S
C3787 H3802 0.961 . S
C3787 H3803 0.961 . S
C3788 C3789 1.370 . S
C3788 C3790 1.363 . S
C3788 H3804 0.931 . S
C3789 C3788 1.370 . S
C3789 C3793 1.408 . S
C3790 C3788 1.363 . S
C3790 C3791 1.370 . S
C3790 C3794 1.524 . S
C3791 C3783 1.503 . S
C3791 C3790 1.370 . S
C3791 C3792 1.403 . S
C3792 C3791 1.403 . S
C3792 C3793 1.404 . S
C3792 C3795 1.539 . S
C3793 C3789 1.408 . S
C3793 C3792 1.404 . S
C3793 H3805 0.930 . S
C3794 C3790 1.524 . S
C3794 H3806 0.956 . S
C3794 H3807 0.961 . S
C3794 H3808 0.961 . S
C3795 C3792 1.539 . S
C3795 H3809 0.958 . S
C3795 H3810 0.961 . S
C3795 H3811 0.960 . S
H3796 C3780 0.931 . S
H3797 C3785 0.929 . S
H3798 C3786 0.960 . S
H3799 C3786 0.962 . S
H3800 C3786 0.960 . S
H3801 C3787 0.961 . S
H3802 C3787 0.961 . S
H3803 C3787 0.961 . S
H3804 C3788 0.931 . S
H3805 C3793 0.930 . S
H3806 C3794 0.956 . S
H3807 C3794 0.961 . S
H3808 C3794 0.961 . S
H3809 C3795 0.958 . S
H3810 C3795 0.961 . S
H3811 C3795 0.960 . S
C3812 C3813 1.391 . S
C3812 C3814 1.394 . S
C3812 H3828 0.931 . S
C3813 C3812 1.391 . S
C3813 C3817 1.376 . S
C3814 C3812 1.394 . S
C3814 C3815 1.369 . S
C3814 C3818 1.531 . S
C3815 C3814 1.369 . S
C3815 C3816 1.410 . S
C3815 C3823 1.503 . S
C3816 C3815 1.410 . S
C3816 C3817 1.392 . S
C3816 C3819 1.511 . S
C3817 C3813 1.376 . S
C3817 C3816 1.392 . S
C3817 H3829 0.929 . S
C3818 C3814 1.531 . S
C3818 H3830 0.960 . S
C3818 H3831 0.962 . S
C3818 H3832 0.960 . S
C3819 C3816 1.511 . S
C3819 H3833 0.961 . S
C3819 H3834 0.961 . S
C3819 H3835 0.961 . S
C3820 C3821 1.370 . S
C3820 C3822 1.363 . S
C3820 H3836 0.931 . S
C3821 C3820 1.370 . S
C3821 C3825 1.408 . S
C3822 C3820 1.363 . S
C3822 C3823 1.370 . S
C3822 C3826 1.524 . S
C3823 C3815 1.503 . S
C3823 C3822 1.370 . S
C3823 C3824 1.403 . S
C3824 C3823 1.403 . S
C3824 C3825 1.404 . S
C3824 C3827 1.539 . S
C3825 C3821 1.408 . S
C3825 C3824 1.404 . S
C3825 H3837 0.930 . S
C3826 C3822 1.524 . S
C3826 H3838 0.956 . S
C3826 H3839 0.961 . S
C3826 H3840 0.961 . S
C3827 C3824 1.539 . S
C3827 H3841 0.958 . S
C3827 H3842 0.961 . S
C3827 H3843 0.960 . S
H3828 C3812 0.931 . S
H3829 C3817 0.929 . S
H3830 C3818 0.960 . S
H3831 C3818 0.962 . S
H3832 C3818 0.960 . S
H3833 C3819 0.961 . S
H3834 C3819 0.961 . S
H3835 C3819 0.961 . S
H3836 C3820 0.931 . S
H3837 C3825 0.930 . S
H3838 C3826 0.956 . S
H3839 C3826 0.961 . S
H3840 C3826 0.961 . S
H3841 C3827 0.958 . S
H3842 C3827 0.961 . S
H3843 C3827 0.960 . S
C3844 C3845 1.391 . S
C3844 C3846 1.394 . S
C3844 H3860 0.931 . S
C3845 C3844 1.391 . S
C3845 C3849 1.376 . S
C3846 C3844 1.394 . S
C3846 C3847 1.369 . S
C3846 C3850 1.531 . S
C3847 C3846 1.369 . S
C3847 C3848 1.410 . S
C3847 C3855 1.503 . S
C3848 C3847 1.410 . S
C3848 C3849 1.392 . S
C3848 C3851 1.511 . S
C3849 C3845 1.376 . S
C3849 C3848 1.392 . S
C3849 H3861 0.929 . S
C3850 C3846 1.531 . S
C3850 H3862 0.960 . S
C3850 H3863 0.962 . S
C3850 H3864 0.960 . S
C3851 C3848 1.511 . S
C3851 H3865 0.961 . S
C3851 H3866 0.961 . S
C3851 H3867 0.961 . S
C3852 C3853 1.370 . S
C3852 C3854 1.363 . S
C3852 H3868 0.931 . S
C3853 C3852 1.370 . S
C3853 C3857 1.408 . S
C3854 C3852 1.363 . S
C3854 C3855 1.370 . S
C3854 C3858 1.524 . S
C3855 C3847 1.503 . S
C3855 C3854 1.370 . S
C3855 C3856 1.403 . S
C3856 C3855 1.403 . S
C3856 C3857 1.404 . S
C3856 C3859 1.539 . S
C3857 C3853 1.408 . S
C3857 C3856 1.404 . S
C3857 H3869 0.930 . S
C3858 C3854 1.524 . S
C3858 H3870 0.956 . S
C3858 H3871 0.961 . S
C3858 H3872 0.961 . S
C3859 C3856 1.539 . S
C3859 H3873 0.958 . S
C3859 H3874 0.961 . S
C3859 H3875 0.960 . S
H3860 C3844 0.931 . S
H3861 C3849 0.929 . S
H3862 C3850 0.960 . S
H3863 C3850 0.962 . S
H3864 C3850 0.960 . S
H3865 C3851 0.961 . S
H3866 C3851 0.961 . S
H3867 C3851 0.961 . S
H3868 C3852 0.931 . S
H3869 C3857 0.930 . S
H3870 C3858 0.956 . S
H3871 C3858 0.961 . S
H3872 C3858 0.961 . S
H3873 C3859 0.958 . S
H3874 C3859 0.961 . S
H3875 C3859 0.960 . S
C3876 C3877 1.391 . S
C3876 C3878 1.394 . S
C3876 H3892 0.931 . S
C3877 C3876 1.391 . S
C3877 C3881 1.376 . S
C3878 C3876 1.394 . S
C3878 C3879 1.369 . S
C3878 C3882 1.531 . S
C3879 C3878 1.369 . S
C3879 C3880 1.410 . S
C3879 C3887 1.503 . S
C3880 C3879 1.410 . S
C3880 C3881 1.392 . S
C3880 C3883 1.511 . S
C3881 C3877 1.376 . S
C3881 C3880 1.392 . S
C3881 H3893 0.929 . S
C3882 C3878 1.531 . S
C3882 H3894 0.960 . S
C3882 H3895 0.962 . S
C3882 H3896 0.960 . S
C3883 C3880 1.511 . S
C3883 H3897 0.961 . S
C3883 H3898 0.961 . S
C3883 H3899 0.961 . S
C3884 C3885 1.370 . S
C3884 C3886 1.363 . S
C3884 H3900 0.931 . S
C3885 C3884 1.370 . S
C3885 C3889 1.408 . S
C3886 C3884 1.363 . S
C3886 C3887 1.370 . S
C3886 C3890 1.524 . S
C3887 C3879 1.503 . S
C3887 C3886 1.370 . S
C3887 C3888 1.403 . S
C3888 C3887 1.403 . S
C3888 C3889 1.404 . S
C3888 C3891 1.539 . S
C3889 C3885 1.408 . S
C3889 C3888 1.404 . S
C3889 H3901 0.930 . S
C3890 C3886 1.524 . S
C3890 H3902 0.956 . S
C3890 H3903 0.961 . S
C3890 H3904 0.961 . S
C3891 C3888 1.539 . S
C3891 H3905 0.958 . S
C3891 H3906 0.961 . S
C3891 H3907 0.960 . S
H3892 C3876 0.931 . S
H3893 C3881 0.929 . S
H3894 C3882 0.960 . S
H3895 C3882 0.962 . S
H3896 C3882 0.960 . S
H3897 C3883 0.961 . S
H3898 C3883 0.961 . S
H3899 C3883 0.961 . S
H3900 C3884 0.931 . S
H3901 C3889 0.930 . S
H3902 C3890 0.956 . S
H3903 C3890 0.961 . S
H3904 C3890 0.961 . S
H3905 C3891 0.958 . S
H3906 C3891 0.961 . S
H3907 C3891 0.960 . S
C3908 C3909 1.391 . S
C3908 C3910 1.394 . S
C3908 H3924 0.931 . S
C3909 C3908 1.391 . S
C3909 C3913 1.376 . S
C3910 C3908 1.394 . S
C3910 C3911 1.369 . S
C3910 C3914 1.531 . S
C3911 C3910 1.369 . S
C3911 C3912 1.410 . S
C3911 C3919 1.503 . S
C3912 C3911 1.410 . S
C3912 C3913 1.392 . S
C3912 C3915 1.511 . S
C3913 C3909 1.376 . S
C3913 C3912 1.392 . S
C3913 H3925 0.929 . S
C3914 C3910 1.531 . S
C3914 H3926 0.960 . S
C3914 H3927 0.962 . S
C3914 H3928 0.960 . S
C3915 C3912 1.511 . S
C3915 H3929 0.961 . S
C3915 H3930 0.961 . S
C3915 H3931 0.961 . S
C3916 C3917 1.370 . S
C3916 C3918 1.363 . S
C3916 H3932 0.931 . S
C3917 C3916 1.370 . S
C3917 C3921 1.408 . S
C3918 C3916 1.363 . S
C3918 C3919 1.370 . S
C3918 C3922 1.524 . S
C3919 C3911 1.503 . S
C3919 C3918 1.370 . S
C3919 C3920 1.403 . S
C3920 C3919 1.403 . S
C3920 C3921 1.404 . S
C3920 C3923 1.539 . S
C3921 C3917 1.408 . S
C3921 C3920 1.404 . S
C3921 H3933 0.930 . S
C3922 C3918 1.524 . S
C3922 H3934 0.956 . S
C3922 H3935 0.961 . S
C3922 H3936 0.961 . S
C3923 C3920 1.539 . S
C3923 H3937 0.958 . S
C3923 H3938 0.961 . S
C3923 H3939 0.960 . S
H3924 C3908 0.931 . S
H3925 C3913 0.929 . S
H3926 C3914 0.960 . S
H3927 C3914 0.962 . S
H3928 C3914 0.960 . S
H3929 C3915 0.961 . S
H3930 C3915 0.961 . S
H3931 C3915 0.961 . S
H3932 C3916 0.931 . S
H3933 C3921 0.930 . S
H3934 C3922 0.956 . S
H3935 C3922 0.961 . S
H3936 C3922 0.961 . S
H3937 C3923 0.958 . S
H3938 C3923 0.961 . S
H3939 C3923 0.960 . S
C3940 C3941 1.391 . S
C3940 C3942 1.394 . S
C3940 H3956 0.931 . S
C3941 C3940 1.391 . S
C3941 C3945 1.376 . S
C3942 C3940 1.394 . S
C3942 C3943 1.369 . S
C3942 C3946 1.531 . S
C3943 C3942 1.369 . S
C3943 C3944 1.410 . S
C3943 C3951 1.503 . S
C3944 C3943 1.410 . S
C3944 C3945 1.392 . S
C3944 C3947 1.511 . S
C3945 C3941 1.376 . S
C3945 C3944 1.392 . S
C3945 H3957 0.929 . S
C3946 C3942 1.531 . S
C3946 H3958 0.960 . S
C3946 H3959 0.962 . S
C3946 H3960 0.960 . S
C3947 C3944 1.511 . S
C3947 H3961 0.961 . S
C3947 H3962 0.961 . S
C3947 H3963 0.961 . S
C3948 C3949 1.370 . S
C3948 C3950 1.363 . S
C3948 H3964 0.931 . S
C3949 C3948 1.370 . S
C3949 C3953 1.408 . S
C3950 C3948 1.363 . S
C3950 C3951 1.370 . S
C3950 C3954 1.524 . S
C3951 C3943 1.503 . S
C3951 C3950 1.370 . S
C3951 C3952 1.403 . S
C3952 C3951 1.403 . S
C3952 C3953 1.404 . S
C3952 C3955 1.539 . S
C3953 C3949 1.408 . S
C3953 C3952 1.404 . S
C3953 H3965 0.930 . S
C3954 C3950 1.524 . S
C3954 H3966 0.956 . S
C3954 H3967 0.961 . S
C3954 H3968 0.961 . S
C3955 C3952 1.539 . S
C3955 H3969 0.958 . S
C3955 H3970 0.961 . S
C3955 H3971 0.960 . S
H3956 C3940 0.931 . S
H3957 C3945 0.929 . S
H3958 C3946 0.960 . S
H3959 C3946 0.962 . S
H3960 C3946 0.960 . S
H3961 C3947 0.961 . S
H3962 C3947 0.961 . S
H3963 C3947 0.961 . S
H3964 C3948 0.931 . S
H3965 C3953 0.930 . S
H3966 C3954 0.956 . S
H3967 C3954 0.961 . S
H3968 C3954 0.961 . S
H3969 C3955 0.958 . S
H3970 C3955 0.961 . S
H3971 C3955 0.960 . S
C3972 C3973 1.391 . S
C3972 C3974 1.394 . S
C3972 H3988 0.931 . S
C3973 C3972 1.391 . S
C3973 C3977 1.376 . S
C3974 C3972 1.394 . S
C3974 C3975 1.369 . S
C3974 C3978 1.531 . S
C3975 C3974 1.369 . S
C3975 C3976 1.410 . S
C3975 C3983 1.503 . S
C3976 C3975 1.410 . S
C3976 C3977 1.392 . S
C3976 C3979 1.511 . S
C3977 C3973 1.376 . S
C3977 C3976 1.392 . S
C3977 H3989 0.929 . S
C3978 C3974 1.531 . S
C3978 H3990 0.960 . S
C3978 H3991 0.962 . S
C3978 H3992 0.960 . S
C3979 C3976 1.511 . S
C3979 H3993 0.961 . S
C3979 H3994 0.961 . S
C3979 H3995 0.961 . S
C3980 C3981 1.370 . S
C3980 C3982 1.363 . S
C3980 H3996 0.931 . S
C3981 C3980 1.370 . S
C3981 C3985 1.408 . S
C3982 C3980 1.363 . S
C3982 C3983 1.370 . S
C3982 C3986 1.524 . S
C3983 C3975 1.503 . S
C3983 C3982 1.370 . S
C3983 C3984 1.403 . S
C3984 C3983 1.403 . S
C3984 C3985 1.404 . S
C3984 C3987 1.539 . S
C3985 C3981 1.408 . S
C3985 C3984 1.404 . S
C3985 H3997 0.930 . S
C3986 C3982 1.524 . S
C3986 H3998 0.956 . S
C3986 H3999 0.961 . S
C3986 H4000 0.961 . S
C3987 C3984 1.539 . S
C3987 H4001 0.958 . S
C3987 H4002 0.961 . S
C3987 H4003 0.960 . S
H3988 C3972 0.931 . S
H3989 C3977 0.929 . S
H3990 C3978 0.960 . S
H3991 C3978 0.962 . S
H3992 C3978 0.960 . S
H3993 C3979 0.961 . S
H3994 C3979 0.961 . S
H3995 C3979 0.961 . S
H3996 C3980 0.931 . S
H3997 C3985 0.930 . S
H3998 C3986 0.956 . S
H3999 C3986 0.961 . S
H4000 C3986 0.961 . S
H4001 C3987 0.958 . S
H4002 C3987 0.961 . S
H4003 C3987 0.960 . S
C4004 C4005 1.391 . S
C4004 C4006 1.394 . S
C4004 H4020 0.931 . S
C4005 C4004 1.391 . S
C4005 C4009 1.376 . S
C4006 C4004 1.394 . S
C4006 C4007 1.369 . S
C4006 C4010 1.531 . S
C4007 C4006 1.369 . S
C4007 C4008 1.410 . S
C4007 C4015 1.503 . S
C4008 C4007 1.410 . S
C4008 C4009 1.392 . S
C4008 C4011 1.511 . S
C4009 C4005 1.376 . S
C4009 C4008 1.392 . S
C4009 H4021 0.929 . S
C4010 C4006 1.531 . S
C4010 H4022 0.960 . S
C4010 H4023 0.962 . S
C4010 H4024 0.960 . S
C4011 C4008 1.511 . S
C4011 H4025 0.961 . S
C4011 H4026 0.961 . S
C4011 H4027 0.961 . S
C4012 C4013 1.370 . S
C4012 C4014 1.363 . S
C4012 H4028 0.931 . S
C4013 C4012 1.370 . S
C4013 C4017 1.408 . S
C4014 C4012 1.363 . S
C4014 C4015 1.370 . S
C4014 C4018 1.524 . S
C4015 C4007 1.503 . S
C4015 C4014 1.370 . S
C4015 C4016 1.403 . S
C4016 C4015 1.403 . S
C4016 C4017 1.404 . S
C4016 C4019 1.539 . S
C4017 C4013 1.408 . S
C4017 C4016 1.404 . S
C4017 H4029 0.930 . S
C4018 C4014 1.524 . S
C4018 H4030 0.956 . S
C4018 H4031 0.961 . S
C4018 H4032 0.961 . S
C4019 C4016 1.539 . S
C4019 H4033 0.958 . S
C4019 H4034 0.961 . S
C4019 H4035 0.960 . S
H4020 C4004 0.931 . S
H4021 C4009 0.929 . S
H4022 C4010 0.960 . S
H4023 C4010 0.962 . S
H4024 C4010 0.960 . S
H4025 C4011 0.961 . S
H4026 C4011 0.961 . S
H4027 C4011 0.961 . S
H4028 C4012 0.931 . S
H4029 C4017 0.930 . S
H4030 C4018 0.956 . S
H4031 C4018 0.961 . S
H4032 C4018 0.961 . S
H4033 C4019 0.958 . S
H4034 C4019 0.961 . S
H4035 C4019 0.960 . S
C4036 C4037 1.391 . S
C4036 C4038 1.394 . S
C4036 H4052 0.931 . S
C4037 C4036 1.391 . S
C4037 C4041 1.376 . S
C4038 C4036 1.394 . S
C4038 C4039 1.369 . S
C4038 C4042 1.531 . S
C4039 C4038 1.369 . S
C4039 C4040 1.410 . S
C4039 C4047 1.503 . S
C4040 C4039 1.410 . S
C4040 C4041 1.392 . S
C4040 C4043 1.511 . S
C4041 C4037 1.376 . S
C4041 C4040 1.392 . S
C4041 H4053 0.929 . S
C4042 C4038 1.531 . S
C4042 H4054 0.960 . S
C4042 H4055 0.962 . S
C4042 H4056 0.960 . S
C4043 C4040 1.511 . S
C4043 H4057 0.961 . S
C4043 H4058 0.961 . S
C4043 H4059 0.961 . S
C4044 C4045 1.370 . S
C4044 C4046 1.363 . S
C4044 H4060 0.931 . S
C4045 C4044 1.370 . S
C4045 C4049 1.408 . S
C4046 C4044 1.363 . S
C4046 C4047 1.370 . S
C4046 C4050 1.524 . S
C4047 C4039 1.503 . S
C4047 C4046 1.370 . S
C4047 C4048 1.403 . S
C4048 C4047 1.403 . S
C4048 C4049 1.404 . S
C4048 C4051 1.539 . S
C4049 C4045 1.408 . S
C4049 C4048 1.404 . S
C4049 H4061 0.930 . S
C4050 C4046 1.524 . S
C4050 H4062 0.956 . S
C4050 H4063 0.961 . S
C4050 H4064 0.961 . S
C4051 C4048 1.539 . S
C4051 H4065 0.958 . S
C4051 H4066 0.961 . S
C4051 H4067 0.960 . S
H4052 C4036 0.931 . S
H4053 C4041 0.929 . S
H4054 C4042 0.960 . S
H4055 C4042 0.962 . S
H4056 C4042 0.960 . S
H4057 C4043 0.961 . S
H4058 C4043 0.961 . S
H4059 C4043 0.961 . S
H4060 C4044 0.931 . S
H4061 C4049 0.930 . S
H4062 C4050 0.956 . S
H4063 C4050 0.961 . S
H4064 C4050 0.961 . S
H4065 C4051 0.958 . S
H4066 C4051 0.961 . S
H4067 C4051 0.960 . S
C4068 C4069 1.391 . S
C4068 C4070 1.394 . S
C4068 H4084 0.931 . S
C4069 C4068 1.391 . S
C4069 C4073 1.376 . S
C4070 C4068 1.394 . S
C4070 C4071 1.369 . S
C4070 C4074 1.531 . S
C4071 C4070 1.369 . S
C4071 C4072 1.410 . S
C4071 C4079 1.503 . S
C4072 C4071 1.410 . S
C4072 C4073 1.392 . S
C4072 C4075 1.511 . S
C4073 C4069 1.376 . S
C4073 C4072 1.392 . S
C4073 H4085 0.929 . S
C4074 C4070 1.531 . S
C4074 H4086 0.960 . S
C4074 H4087 0.962 . S
C4074 H4088 0.960 . S
C4075 C4072 1.511 . S
C4075 H4089 0.961 . S
C4075 H4090 0.961 . S
C4075 H4091 0.961 . S
C4076 C4077 1.370 . S
C4076 C4078 1.363 . S
C4076 H4092 0.931 . S
C4077 C4076 1.370 . S
C4077 C4081 1.408 . S
C4078 C4076 1.363 . S
C4078 C4079 1.370 . S
C4078 C4082 1.524 . S
C4079 C4071 1.503 . S
C4079 C4078 1.370 . S
C4079 C4080 1.403 . S
C4080 C4079 1.403 . S
C4080 C4081 1.404 . S
C4080 C4083 1.539 . S
C4081 C4077 1.408 . S
C4081 C4080 1.404 . S
C4081 H4093 0.930 . S
C4082 C4078 1.524 . S
C4082 H4094 0.956 . S
C4082 H4095 0.961 . S
C4082 H4096 0.961 . S
C4083 C4080 1.539 . S
C4083 H4097 0.958 . S
C4083 H4098 0.961 . S
C4083 H4099 0.960 . S
H4084 C4068 0.931 . S
H4085 C4073 0.929 . S
H4086 C4074 0.960 . S
H4087 C4074 0.962 . S
H4088 C4074 0.960 . S
H4089 C4075 0.961 . S
H4090 C4075 0.961 . S
H4091 C4075 0.961 . S
H4092 C4076 0.931 . S
H4093 C4081 0.930 . S
H4094 C4082 0.956 . S
H4095 C4082 0.961 . S
H4096 C4082 0.961 . S
H4097 C4083 0.958 . S
H4098 C4083 0.961 . S
H4099 C4083 0.960 . S
C4100 C4101 1.391 . S
C4100 C4102 1.394 . S
C4100 H4116 0.931 . S
C4101 C4100 1.391 . S
C4101 C4105 1.376 . S
C4102 C4100 1.394 . S
C4102 C4103 1.369 . S
C4102 C4106 1.531 . S
C4103 C4102 1.369 . S
C4103 C4104 1.410 . S
C4103 C4111 1.503 . S
C4104 C4103 1.410 . S
C4104 C4105 1.392 . S
C4104 C4107 1.511 . S
C4105 C4101 1.376 . S
C4105 C4104 1.392 . S
C4105 H4117 0.929 . S
C4106 C4102 1.531 . S
C4106 H4118 0.960 . S
C4106 H4119 0.962 . S
C4106 H4120 0.960 . S
C4107 C4104 1.511 . S
C4107 H4121 0.961 . S
C4107 H4122 0.961 . S
C4107 H4123 0.961 . S
C4108 C4109 1.370 . S
C4108 C4110 1.363 . S
C4108 H4124 0.931 . S
C4109 C4108 1.370 . S
C4109 C4113 1.408 . S
C4110 C4108 1.363 . S
C4110 C4111 1.370 . S
C4110 C4114 1.524 . S
C4111 C4103 1.503 . S
C4111 C4110 1.370 . S
C4111 C4112 1.403 . S
C4112 C4111 1.403 . S
C4112 C4113 1.404 . S
C4112 C4115 1.539 . S
C4113 C4109 1.408 . S
C4113 C4112 1.404 . S
C4113 H4125 0.930 . S
C4114 C4110 1.524 . S
C4114 H4126 0.956 . S
C4114 H4127 0.961 . S
C4114 H4128 0.961 . S
C4115 C4112 1.539 . S
C4115 H4129 0.958 . S
C4115 H4130 0.961 . S
C4115 H4131 0.960 . S
H4116 C4100 0.931 . S
H4117 C4105 0.929 . S
H4118 C4106 0.960 . S
H4119 C4106 0.962 . S
H4120 C4106 0.960 . S
H4121 C4107 0.961 . S
H4122 C4107 0.961 . S
H4123 C4107 0.961 . S
H4124 C4108 0.931 . S
H4125 C4113 0.930 . S
H4126 C4114 0.956 . S
H4127 C4114 0.961 . S
H4128 C4114 0.961 . S
H4129 C4115 0.958 . S
H4130 C4115 0.961 . S
H4131 C4115 0.960 . S
C4132 C4133 1.391 . S
C4132 C4134 1.394 . S
C4132 H4148 0.931 . S
C4133 C4132 1.391 . S
C4133 C4137 1.376 . S
C4134 C4132 1.394 . S
C4134 C4135 1.369 . S
C4134 C4138 1.531 . S
C4135 C4134 1.369 . S
C4135 C4136 1.410 . S
C4135 C4143 1.503 . S
C4136 C4135 1.410 . S
C4136 C4137 1.392 . S
C4136 C4139 1.511 . S
C4137 C4133 1.376 . S
C4137 C4136 1.392 . S
C4137 H4149 0.929 . S
C4138 C4134 1.531 . S
C4138 H4150 0.960 . S
C4138 H4151 0.962 . S
C4138 H4152 0.960 . S
C4139 C4136 1.511 . S
C4139 H4153 0.961 . S
C4139 H4154 0.961 . S
C4139 H4155 0.961 . S
C4140 C4141 1.370 . S
C4140 C4142 1.363 . S
C4140 H4156 0.931 . S
C4141 C4140 1.370 . S
C4141 C4145 1.408 . S
C4142 C4140 1.363 . S
C4142 C4143 1.370 . S
C4142 C4146 1.524 . S
C4143 C4135 1.503 . S
C4143 C4142 1.370 . S
C4143 C4144 1.403 . S
C4144 C4143 1.403 . S
C4144 C4145 1.404 . S
C4144 C4147 1.539 . S
C4145 C4141 1.408 . S
C4145 C4144 1.404 . S
C4145 H4157 0.930 . S
C4146 C4142 1.524 . S
C4146 H4158 0.956 . S
C4146 H4159 0.961 . S
C4146 H4160 0.961 . S
C4147 C4144 1.539 . S
C4147 H4161 0.958 . S
C4147 H4162 0.961 . S
C4147 H4163 0.960 . S
H4148 C4132 0.931 . S
H4149 C4137 0.929 . S
H4150 C4138 0.960 . S
H4151 C4138 0.962 . S
H4152 C4138 0.960 . S
H4153 C4139 0.961 . S
H4154 C4139 0.961 . S
H4155 C4139 0.961 . S
H4156 C4140 0.931 . S
H4157 C4145 0.930 . S
H4158 C4146 0.956 . S
H4159 C4146 0.961 . S
H4160 C4146 0.961 . S
H4161 C4147 0.958 . S
H4162 C4147 0.961 . S
H4163 C4147 0.960 . S
C4164 C4165 1.391 1_554 S
C4164 C4166 1.394 1_554 S
C4164 H4180 0.931 . S
C4165 C4164 1.391 1_556 S
C4165 C4169 1.376 . S
C4166 C4164 1.394 1_556 S
C4166 C4167 1.369 . S
C4166 C4170 1.531 1_556 S
C4167 C4166 1.369 . S
C4167 C4168 1.410 . S
C4167 C4175 1.503 . S
C4168 C4167 1.410 . S
C4168 C4169 1.392 . S
C4168 C4171 1.511 . S
C4169 C4165 1.376 . S
C4169 C4168 1.392 . S
C4169 H4181 0.929 . S
C4170 C4166 1.531 1_554 S
C4170 H4182 0.960 . S
C4170 H4183 0.962 . S
C4170 H4184 0.960 . S
C4171 C4168 1.511 . S
C4171 H4185 0.961 . S
C4171 H4186 0.961 . S
C4171 H4187 0.961 . S
C4172 C4173 1.370 . S
C4172 C4174 1.363 . S
C4172 H4188 0.931 . S
C4173 C4172 1.370 . S
C4173 C4177 1.408 . S
C4174 C4172 1.363 . S
C4174 C4175 1.370 . S
C4174 C4178 1.524 . S
C4175 C4167 1.503 . S
C4175 C4174 1.370 . S
C4175 C4176 1.403 . S
C4176 C4175 1.403 . S
C4176 C4177 1.404 . S
C4176 C4179 1.539 . S
C4177 C4173 1.408 . S
C4177 C4176 1.404 . S
C4177 H4189 0.930 . S
C4178 C4174 1.524 . S
C4178 H4190 0.956 . S
C4178 H4191 0.961 . S
C4178 H4192 0.961 . S
C4179 C4176 1.539 . S
C4179 H4193 0.958 . S
C4179 H4194 0.961 . S
C4179 H4195 0.960 . S
H4180 C4164 0.931 . S
H4181 C4169 0.929 . S
H4182 C4170 0.960 . S
H4183 C4170 0.962 . S
H4184 C4170 0.960 . S
H4185 C4171 0.961 . S
H4186 C4171 0.961 . S
H4187 C4171 0.961 . S
H4188 C4172 0.931 . S
H4189 C4177 0.930 . S
H4190 C4178 0.956 . S
H4191 C4178 0.961 . S
H4192 C4178 0.961 . S
H4193 C4179 0.958 . S
H4194 C4179 0.961 . S
H4195 C4179 0.960 . S
C4196 C4197 1.391 . S
C4196 C4198 1.394 . S
C4196 H4212 0.914 1_556 S
C4197 C4196 1.391 . S
C4197 C4201 1.376 . S
C4198 C4196 1.394 . S
C4198 C4199 1.369 . S
C4198 C4202 1.531 . S
C4199 C4198 1.369 . S
C4199 C4200 1.410 . S
C4199 C4207 1.503 . S
C4200 C4199 1.410 . S
C4200 C4201 1.392 . S
C4200 C4203 1.511 . S
C4201 C4197 1.376 . S
C4201 C4200 1.392 . S
C4201 H4213 0.929 . S
C4202 C4198 1.531 . S
C4202 H4214 0.960 . S
C4202 H4215 0.962 . S
C4202 H4216 0.962 1_556 S
C4203 C4200 1.511 . S
C4203 H4217 0.961 . S
C4203 H4218 0.961 . S
C4203 H4219 0.961 . S
C4204 C4205 1.370 . S
C4204 C4206 1.363 . S
C4204 H4220 0.931 . S
C4205 C4204 1.370 . S
C4205 C4209 1.408 . S
C4206 C4204 1.363 . S
C4206 C4207 1.370 . S
C4206 C4210 1.524 . S
C4207 C4199 1.503 . S
C4207 C4206 1.370 . S
C4207 C4208 1.403 . S
C4208 C4207 1.403 . S
C4208 C4209 1.404 . S
C4208 C4211 1.539 . S
C4209 C4205 1.408 . S
C4209 C4208 1.404 . S
C4209 H4221 0.930 . S
C4210 C4206 1.524 . S
C4210 H4222 0.956 . S
C4210 H4223 0.961 . S
C4210 H4224 0.961 . S
C4211 C4208 1.539 . S
C4211 H4225 0.958 . S
C4211 H4226 0.961 . S
C4211 H4227 0.960 . S
H4212 C4196 0.914 1_554 S
H4213 C4201 0.929 . S
H4214 C4202 0.960 . S
H4215 C4202 0.962 . S
H4216 C4202 0.962 1_554 S
H4217 C4203 0.961 . S
H4218 C4203 0.961 . S
H4219 C4203 0.961 . S
H4220 C4204 0.931 . S
H4221 C4209 0.930 . S
H4222 C4210 0.956 . S
H4223 C4210 0.961 . S
H4224 C4210 0.961 . S
H4225 C4211 0.958 . S
H4226 C4211 0.961 . S
H4227 C4211 0.960 . S
C4228 C4229 1.391 . S
C4228 C4230 1.394 . S
C4228 H4244 0.931 . S
C4229 C4228 1.391 . S
C4229 C4233 1.376 . S
C4230 C4228 1.394 . S
C4230 C4231 1.369 . S
C4230 C4234 1.531 1_554 S
C4231 C4230 1.369 . S
C4231 C4232 1.410 . S
C4231 C4239 1.506 . S
C4232 C4231 1.410 . S
C4232 C4233 1.392 . S
C4232 C4235 1.511 . S
C4233 C4229 1.376 . S
C4233 C4232 1.392 . S
C4233 H4245 0.929 . S
C4234 C4230 1.531 1_556 S
C4234 H4246 0.960 . S
C4234 H4247 0.962 . S
C4234 H4248 0.960 . S
C4235 C4232 1.511 . S
C4235 H4249 0.961 . S
C4235 H4250 0.961 . S
C4235 H4251 0.961 . S
C4236 C4237 1.370 . S
C4236 C4238 1.363 . S
C4236 H4252 0.931 . S
C4237 C4236 1.370 . S
C4237 C4241 1.408 . S
C4238 C4236 1.363 . S
C4238 C4239 1.367 1_556 S
C4238 C4242 1.524 . S
C4239 C4231 1.506 . S
C4239 C4238 1.367 1_554 S
C4239 C4240 1.403 . S
C4240 C4239 1.403 . S
C4240 C4241 1.404 1_554 S
C4240 C4243 1.539 . S
C4241 C4237 1.408 . S
C4241 C4240 1.404 1_556 S
C4241 H4253 0.932 . S
C4242 C4238 1.524 . S
C4242 H4254 0.956 . S
C4242 H4255 0.961 . S
C4242 H4256 0.961 . S
C4243 C4240 1.539 . S
C4243 H4257 0.958 . S
C4243 H4258 0.961 . S
C4243 H4259 0.960 . S
H4244 C4228 0.931 . S
H4245 C4233 0.929 . S
H4246 C4234 0.960 . S
H4247 C4234 0.962 . S
H4248 C4234 0.960 . S
H4249 C4235 0.961 . S
H4250 C4235 0.961 . S
H4251 C4235 0.961 . S
H4252 C4236 0.931 . S
H4253 C4241 0.932 . S
H4254 C4242 0.956 . S
H4255 C4242 0.961 . S
H4256 C4242 0.961 . S
H4257 C4243 0.958 . S
H4258 C4243 0.961 . S
H4259 C4243 0.960 . S
C4260 C4261 1.391 1_556 S
C4260 C4262 1.394 . S
C4260 H4276 0.931 . S
C4261 C4260 1.391 1_554 S
C4261 C4265 1.376 . S
C4262 C4260 1.394 . S
C4262 C4263 1.369 . S
C4262 C4266 1.531 . S
C4263 C4262 1.369 . S
C4263 C4264 1.387 1_556 S
C4263 C4271 1.503 . S
C4264 C4263 1.387 1_554 S
C4264 C4265 1.406 . S
C4264 C4267 1.520 . S
C4265 C4261 1.376 . S
C4265 C4264 1.406 . S
C4265 H4277 0.929 . S
C4266 C4262 1.531 . S
C4266 H4278 0.960 . S
C4266 H4279 0.962 . S
C4266 H4280 0.960 . S
C4267 C4264 1.520 . S
C4267 H4281 0.961 . S
C4267 H4282 0.961 . S
C4267 H4283 0.961 . S
C4268 C4269 1.370 . S
C4268 C4270 1.363 . S
C4268 H4284 0.931 . S
C4269 C4268 1.370 . S
C4269 C4273 1.408 . S
C4270 C4268 1.363 . S
C4270 C4271 1.370 . S
C4270 C4274 1.524 . S
C4271 C4263 1.503 . S
C4271 C4270 1.370 . S
C4271 C4272 1.403 . S
C4272 C4271 1.403 . S
C4272 C4273 1.404 . S
C4272 C4275 1.539 . S
C4273 C4269 1.408 . S
C4273 C4272 1.404 . S
C4273 H4285 0.930 . S
C4274 C4270 1.524 . S
C4274 H4286 0.956 . S
C4274 H4287 0.961 . S
C4274 H4288 0.961 . S
C4275 C4272 1.539 . S
C4275 H4289 0.958 . S
C4275 H4290 0.961 . S
C4275 H4291 0.960 . S
H4276 C4260 0.931 . S
H4277 C4265 0.929 . S
H4278 C4266 0.960 . S
H4279 C4266 0.962 . S
H4280 C4266 0.960 . S
H4281 C4267 0.961 . S
H4282 C4267 0.961 . S
H4283 C4267 0.961 . S
H4284 C4268 0.931 . S
H4285 C4273 0.930 . S
H4286 C4274 0.956 . S
H4287 C4274 0.961 . S
H4288 C4274 0.961 . S
H4289 C4275 0.958 . S
H4290 C4275 0.961 . S
H4291 C4275 0.960 . S
C4292 C4293 1.391 . S
C4292 C4294 1.394 . S
C4292 H4308 0.931 . S
C4293 C4292 1.391 . S
C4293 C4297 1.376 . S
C4294 C4292 1.394 . S
C4294 C4295 1.369 . S
C4294 C4298 1.531 . S
C4295 C4294 1.369 . S
C4295 C4296 1.410 . S
C4295 C4303 1.503 . S
C4296 C4295 1.410 . S
C4296 C4297 1.392 . S
C4296 C4299 1.511 . S
C4297 C4293 1.376 . S
C4297 C4296 1.392 . S
C4297 H4309 0.929 . S
C4298 C4294 1.531 . S
C4298 H4310 0.960 . S
C4298 H4311 0.962 . S
C4298 H4312 0.960 . S
C4299 C4296 1.511 . S
C4299 H4313 0.961 . S
C4299 H4314 0.961 . S
C4299 H4315 0.961 . S
C4300 C4301 1.370 . S
C4300 C4302 1.363 . S
C4300 H4316 0.931 . S
C4301 C4300 1.370 . S
C4301 C4305 1.408 . S
C4302 C4300 1.363 . S
C4302 C4303 1.370 . S
C4302 C4306 1.524 . S
C4303 C4295 1.503 . S
C4303 C4302 1.370 . S
C4303 C4304 1.403 . S
C4304 C4303 1.403 . S
C4304 C4305 1.404 . S
C4304 C4307 1.539 . S
C4305 C4301 1.408 . S
C4305 C4304 1.404 . S
C4305 H4317 0.930 . S
C4306 C4302 1.524 . S
C4306 H4318 0.956 . S
C4306 H4319 0.961 . S
C4306 H4320 0.961 . S
C4307 C4304 1.539 . S
C4307 H4321 0.958 . S
C4307 H4322 0.961 . S
C4307 H4323 0.960 . S
H4308 C4292 0.931 . S
H4309 C4297 0.929 . S
H4310 C4298 0.960 . S
H4311 C4298 0.962 . S
H4312 C4298 0.960 . S
H4313 C4299 0.961 . S
H4314 C4299 0.961 . S
H4315 C4299 0.961 . S
H4316 C4300 0.931 . S
H4317 C4305 0.930 . S
H4318 C4306 0.956 . S
H4319 C4306 0.961 . S
H4320 C4306 0.961 . S
H4321 C4307 0.958 . S
H4322 C4307 0.961 . S
H4323 C4307 0.960 . S
C4324 C4325 1.391 . S
C4324 C4326 1.394 1_554 S
C4324 H4340 0.934 . S
C4325 C4324 1.391 . S
C4325 C4329 1.376 . S
C4326 C4324 1.394 1_556 S
C4326 C4327 1.369 . S
C4326 C4330 1.531 . S
C4327 C4326 1.369 . S
C4327 C4328 1.410 1_556 S
C4327 C4335 1.503 . S
C4328 C4327 1.410 1_554 S
C4328 C4329 1.392 . S
C4328 C4331 1.511 . S
C4329 C4325 1.376 . S
C4329 C4328 1.392 . S
C4329 H4341 0.929 . S
C4330 C4326 1.531 . S
C4330 H4342 0.960 . S
C4330 H4343 0.962 . S
C4330 H4344 0.960 . S
C4331 C4328 1.511 . S
C4331 H4345 0.961 . S
C4331 H4346 0.961 . S
C4331 H4347 0.948 1_554 S
C4332 C4333 1.370 . S
C4332 C4334 1.363 . S
C4332 H4348 0.931 . S
C4333 C4332 1.370 . S
C4333 C4337 1.408 . S
C4334 C4332 1.363 . S
C4334 C4335 1.370 . S
C4334 C4338 1.524 1_556 S
C4335 C4327 1.503 . S
C4335 C4334 1.370 . S
C4335 C4336 1.403 . S
C4336 C4335 1.403 . S
C4336 C4337 1.404 . S
C4336 C4339 1.539 . S
C4337 C4333 1.408 . S
C4337 C4336 1.404 . S
C4337 H4349 0.930 . S
C4338 C4334 1.524 1_554 S
C4338 H4350 0.956 . S
C4338 H4351 0.961 . S
C4338 H4352 0.961 . S
C4339 C4336 1.539 . S
C4339 H4353 0.958 . S
C4339 H4354 0.961 . S
C4339 H4355 0.960 . S
H4340 C4324 0.934 . S
H4341 C4329 0.929 . S
H4342 C4330 0.960 . S
H4343 C4330 0.962 . S
H4344 C4330 0.960 . S
H4345 C4331 0.961 . S
H4346 C4331 0.961 . S
H4347 C4331 0.948 1_556 S
H4348 C4332 0.931 . S
H4349 C4337 0.930 . S
H4350 C4338 0.956 . S
H4351 C4338 0.961 . S
H4352 C4338 0.961 . S
H4353 C4339 0.958 . S
H4354 C4339 0.961 . S
H4355 C4339 0.960 . S
C4356 C4357 1.391 . S
C4356 C4358 1.394 . S
C4356 H4372 0.931 . S
C4357 C4356 1.391 . S
C4357 C4361 1.376 . S
C4358 C4356 1.394 . S
C4358 C4359 1.369 . S
C4358 C4362 1.531 . S
C4359 C4358 1.369 . S
C4359 C4360 1.410 . S
C4359 C4367 1.503 . S
C4360 C4359 1.410 . S
C4360 C4361 1.392 . S
C4360 C4363 1.511 . S
C4361 C4357 1.376 . S
C4361 C4360 1.392 . S
C4361 H4373 0.929 . S
C4362 C4358 1.531 . S
C4362 H4374 0.960 . S
C4362 H4375 0.962 . S
C4362 H4376 0.960 . S
C4363 C4360 1.511 . S
C4363 H4377 0.961 . S
C4363 H4378 0.961 . S
C4363 H4379 0.961 . S
C4364 C4365 1.370 . S
C4364 C4366 1.363 . S
C4364 H4380 0.931 . S
C4365 C4364 1.370 . S
C4365 C4369 1.408 . S
C4366 C4364 1.363 . S
C4366 C4367 1.370 . S
C4366 C4370 1.524 . S
C4367 C4359 1.503 . S
C4367 C4366 1.370 . S
C4367 C4368 1.403 . S
C4368 C4367 1.403 . S
C4368 C4369 1.404 . S
C4368 C4371 1.539 . S
C4369 C4365 1.408 . S
C4369 C4368 1.404 . S
C4369 H4381 0.930 . S
C4370 C4366 1.524 . S
C4370 H4382 0.956 . S
C4370 H4383 0.961 . S
C4370 H4384 0.961 . S
C4371 C4368 1.539 . S
C4371 H4385 0.958 . S
C4371 H4386 0.961 . S
C4371 H4387 0.960 . S
H4372 C4356 0.931 . S
H4373 C4361 0.929 . S
H4374 C4362 0.960 . S
H4375 C4362 0.962 . S
H4376 C4362 0.960 . S
H4377 C4363 0.961 . S
H4378 C4363 0.961 . S
H4379 C4363 0.961 . S
H4380 C4364 0.931 . S
H4381 C4369 0.930 . S
H4382 C4370 0.956 . S
H4383 C4370 0.961 . S
H4384 C4370 0.961 . S
H4385 C4371 0.958 . S
H4386 C4371 0.961 . S
H4387 C4371 0.960 . S
C4388 C4389 1.391 . S
C4388 C4390 1.394 . S
C4388 H4404 0.931 . S
C4389 C4388 1.391 . S
C4389 C4393 1.376 . S
C4390 C4388 1.394 . S
C4390 C4391 1.369 . S
C4390 C4394 1.531 . S
C4391 C4390 1.369 . S
C4391 C4392 1.410 . S
C4391 C4399 1.503 . S
C4392 C4391 1.410 . S
C4392 C4393 1.392 . S
C4392 C4395 1.511 . S
C4393 C4389 1.376 . S
C4393 C4392 1.392 . S
C4393 H4405 0.929 . S
C4394 C4390 1.531 . S
C4394 H4406 0.960 . S
C4394 H4407 0.962 . S
C4394 H4408 0.960 . S
C4395 C4392 1.511 . S
C4395 H4409 0.961 . S
C4395 H4410 0.961 . S
C4395 H4411 0.961 . S
C4396 C4397 1.370 . S
C4396 C4398 1.363 . S
C4396 H4412 0.931 . S
C4397 C4396 1.370 . S
C4397 C4401 1.408 . S
C4398 C4396 1.363 . S
C4398 C4399 1.370 . S
C4398 C4402 1.524 . S
C4399 C4391 1.503 . S
C4399 C4398 1.370 . S
C4399 C4400 1.403 . S
C4400 C4399 1.403 . S
C4400 C4401 1.404 . S
C4400 C4403 1.539 . S
C4401 C4397 1.408 . S
C4401 C4400 1.404 . S
C4401 H4413 0.930 . S
C4402 C4398 1.524 . S
C4402 H4414 0.956 . S
C4402 H4415 0.961 . S
C4402 H4416 0.961 . S
C4403 C4400 1.539 . S
C4403 H4417 0.958 . S
C4403 H4418 0.961 . S
C4403 H4419 0.960 . S
H4404 C4388 0.931 . S
H4405 C4393 0.929 . S
H4406 C4394 0.960 . S
H4407 C4394 0.962 . S
H4408 C4394 0.960 . S
H4409 C4395 0.961 . S
H4410 C4395 0.961 . S
H4411 C4395 0.961 . S
H4412 C4396 0.931 . S
H4413 C4401 0.930 . S
H4414 C4402 0.956 . S
H4415 C4402 0.961 . S
H4416 C4402 0.961 . S
H4417 C4403 0.958 . S
H4418 C4403 0.961 . S
H4419 C4403 0.960 . S
C4420 C4421 1.391 . S
C4420 C4422 1.394 . S
C4420 H4436 0.931 . S
C4421 C4420 1.391 . S
C4421 C4425 1.376 . S
C4422 C4420 1.394 . S
C4422 C4423 1.369 . S
C4422 C4426 1.531 . S
C4423 C4422 1.369 . S
C4423 C4424 1.410 . S
C4423 C4431 1.503 . S
C4424 C4423 1.410 . S
C4424 C4425 1.392 . S
C4424 C4427 1.511 . S
C4425 C4421 1.376 . S
C4425 C4424 1.392 . S
C4425 H4437 0.929 . S
C4426 C4422 1.531 . S
C4426 H4438 0.960 . S
C4426 H4439 0.962 . S
C4426 H4440 0.960 . S
C4427 C4424 1.511 . S
C4427 H4441 0.961 . S
C4427 H4442 0.961 . S
C4427 H4443 0.961 . S
C4428 C4429 1.370 . S
C4428 C4430 1.363 . S
C4428 H4444 0.931 . S
C4429 C4428 1.370 . S
C4429 C4433 1.408 . S
C4430 C4428 1.363 . S
C4430 C4431 1.370 . S
C4430 C4434 1.524 . S
C4431 C4423 1.503 . S
C4431 C4430 1.370 . S
C4431 C4432 1.403 . S
C4432 C4431 1.403 . S
C4432 C4433 1.404 . S
C4432 C4435 1.539 . S
C4433 C4429 1.408 . S
C4433 C4432 1.404 . S
C4433 H4445 0.930 . S
C4434 C4430 1.524 . S
C4434 H4446 0.956 . S
C4434 H4447 0.961 . S
C4434 H4448 0.961 . S
C4435 C4432 1.539 . S
C4435 H4449 0.958 . S
C4435 H4450 0.961 . S
C4435 H4451 0.960 . S
H4436 C4420 0.931 . S
H4437 C4425 0.929 . S
H4438 C4426 0.960 . S
H4439 C4426 0.962 . S
H4440 C4426 0.960 . S
H4441 C4427 0.961 . S
H4442 C4427 0.961 . S
H4443 C4427 0.961 . S
H4444 C4428 0.931 . S
H4445 C4433 0.930 . S
H4446 C4434 0.956 . S
H4447 C4434 0.961 . S
H4448 C4434 0.961 . S
H4449 C4435 0.958 . S
H4450 C4435 0.961 . S
H4451 C4435 0.960 . S
C4452 C4453 1.391 . S
C4452 C4454 1.394 . S
C4452 H4468 0.931 . S
C4453 C4452 1.391 . S
C4453 C4457 1.376 . S
C4454 C4452 1.394 . S
C4454 C4455 1.369 . S
C4454 C4458 1.531 . S
C4455 C4454 1.369 . S
C4455 C4456 1.410 . S
C4455 C4463 1.503 . S
C4456 C4455 1.410 . S
C4456 C4457 1.392 . S
C4456 C4459 1.511 . S
C4457 C4453 1.376 . S
C4457 C4456 1.392 . S
C4457 H4469 0.929 . S
C4458 C4454 1.531 . S
C4458 H4470 0.960 . S
C4458 H4471 0.962 . S
C4458 H4472 0.960 . S
C4459 C4456 1.511 . S
C4459 H4473 0.961 . S
C4459 H4474 0.961 . S
C4459 H4475 0.961 . S
C4460 C4461 1.370 . S
C4460 C4462 1.363 . S
C4460 H4476 0.931 . S
C4461 C4460 1.370 . S
C4461 C4465 1.408 . S
C4462 C4460 1.363 . S
C4462 C4463 1.370 . S
C4462 C4466 1.524 . S
C4463 C4455 1.503 . S
C4463 C4462 1.370 . S
C4463 C4464 1.403 . S
C4464 C4463 1.403 . S
C4464 C4465 1.404 . S
C4464 C4467 1.539 . S
C4465 C4461 1.408 . S
C4465 C4464 1.404 . S
C4465 H4477 0.930 . S
C4466 C4462 1.524 . S
C4466 H4478 0.956 . S
C4466 H4479 0.961 . S
C4466 H4480 0.961 . S
C4467 C4464 1.539 . S
C4467 H4481 0.958 . S
C4467 H4482 0.961 . S
C4467 H4483 0.960 . S
H4468 C4452 0.931 . S
H4469 C4457 0.929 . S
H4470 C4458 0.960 . S
H4471 C4458 0.962 . S
H4472 C4458 0.960 . S
H4473 C4459 0.961 . S
H4474 C4459 0.961 . S
H4475 C4459 0.961 . S
H4476 C4460 0.931 . S
H4477 C4465 0.930 . S
H4478 C4466 0.956 . S
H4479 C4466 0.961 . S
H4480 C4466 0.961 . S
H4481 C4467 0.958 . S
H4482 C4467 0.961 . S
H4483 C4467 0.960 . S
C4484 C4485 1.391 . S
C4484 C4486 1.394 . S
C4484 H4500 0.931 . S
C4485 C4484 1.391 . S
C4485 C4489 1.376 . S
C4486 C4484 1.394 . S
C4486 C4487 1.369 . S
C4486 C4490 1.531 . S
C4487 C4486 1.369 . S
C4487 C4488 1.410 . S
C4487 C4495 1.503 . S
C4488 C4487 1.410 . S
C4488 C4489 1.392 . S
C4488 C4491 1.511 . S
C4489 C4485 1.376 . S
C4489 C4488 1.392 . S
C4489 H4501 0.929 . S
C4490 C4486 1.531 . S
C4490 H4502 0.960 . S
C4490 H4503 0.962 . S
C4490 H4504 0.960 . S
C4491 C4488 1.511 . S
C4491 H4505 0.961 . S
C4491 H4506 0.961 . S
C4491 H4507 0.961 . S
C4492 C4493 1.370 . S
C4492 C4494 1.363 . S
C4492 H4508 0.931 . S
C4493 C4492 1.370 . S
C4493 C4497 1.408 . S
C4494 C4492 1.363 . S
C4494 C4495 1.370 . S
C4494 C4498 1.524 . S
C4495 C4487 1.503 . S
C4495 C4494 1.370 . S
C4495 C4496 1.403 . S
C4496 C4495 1.403 . S
C4496 C4497 1.404 . S
C4496 C4499 1.539 . S
C4497 C4493 1.408 . S
C4497 C4496 1.404 . S
C4497 H4509 0.930 . S
C4498 C4494 1.524 . S
C4498 H4510 0.956 . S
C4498 H4511 0.961 . S
C4498 H4512 0.961 . S
C4499 C4496 1.539 . S
C4499 H4513 0.958 . S
C4499 H4514 0.961 . S
C4499 H4515 0.960 . S
H4500 C4484 0.931 . S
H4501 C4489 0.929 . S
H4502 C4490 0.960 . S
H4503 C4490 0.962 . S
H4504 C4490 0.960 . S
H4505 C4491 0.961 . S
H4506 C4491 0.961 . S
H4507 C4491 0.961 . S
H4508 C4492 0.931 . S
H4509 C4497 0.930 . S
H4510 C4498 0.956 . S
H4511 C4498 0.961 . S
H4512 C4498 0.961 . S
H4513 C4499 0.958 . S
H4514 C4499 0.961 . S
H4515 C4499 0.960 . S
C4516 C4517 1.391 . S
C4516 C4518 1.394 . S
C4516 H4532 0.931 . S
C4517 C4516 1.391 . S
C4517 C4521 1.376 . S
C4518 C4516 1.394 . S
C4518 C4519 1.369 . S
C4518 C4522 1.531 . S
C4519 C4518 1.369 . S
C4519 C4520 1.410 . S
C4519 C4527 1.503 . S
C4520 C4519 1.410 . S
C4520 C4521 1.392 . S
C4520 C4523 1.511 . S
C4521 C4517 1.376 . S
C4521 C4520 1.392 . S
C4521 H4533 0.929 . S
C4522 C4518 1.531 . S
C4522 H4534 0.960 . S
C4522 H4535 0.962 . S
C4522 H4536 0.960 . S
C4523 C4520 1.511 . S
C4523 H4537 0.961 . S
C4523 H4538 0.961 . S
C4523 H4539 0.961 . S
C4524 C4525 1.370 . S
C4524 C4526 1.363 . S
C4524 H4540 0.931 . S
C4525 C4524 1.370 . S
C4525 C4529 1.408 . S
C4526 C4524 1.363 . S
C4526 C4527 1.370 . S
C4526 C4530 1.524 . S
C4527 C4519 1.503 . S
C4527 C4526 1.370 . S
C4527 C4528 1.403 . S
C4528 C4527 1.403 . S
C4528 C4529 1.404 . S
C4528 C4531 1.539 . S
C4529 C4525 1.408 . S
C4529 C4528 1.404 . S
C4529 H4541 0.930 . S
C4530 C4526 1.524 . S
C4530 H4542 0.956 . S
C4530 H4543 0.961 . S
C4530 H4544 0.961 . S
C4531 C4528 1.539 . S
C4531 H4545 0.958 . S
C4531 H4546 0.961 . S
C4531 H4547 0.960 . S
H4532 C4516 0.931 . S
H4533 C4521 0.929 . S
H4534 C4522 0.960 . S
H4535 C4522 0.962 . S
H4536 C4522 0.960 . S
H4537 C4523 0.961 . S
H4538 C4523 0.961 . S
H4539 C4523 0.961 . S
H4540 C4524 0.931 . S
H4541 C4529 0.930 . S
H4542 C4530 0.956 . S
H4543 C4530 0.961 . S
H4544 C4530 0.961 . S
H4545 C4531 0.958 . S
H4546 C4531 0.961 . S
H4547 C4531 0.960 . S
C4548 C4549 1.391 . S
C4548 C4550 1.394 . S
C4548 H4564 0.931 . S
C4549 C4548 1.391 . S
C4549 C4553 1.376 . S
C4550 C4548 1.394 . S
C4550 C4551 1.369 . S
C4550 C4554 1.531 . S
C4551 C4550 1.369 . S
C4551 C4552 1.410 . S
C4551 C4559 1.503 . S
C4552 C4551 1.410 . S
C4552 C4553 1.392 . S
C4552 C4555 1.511 . S
C4553 C4549 1.376 . S
C4553 C4552 1.392 . S
C4553 H4565 0.929 . S
C4554 C4550 1.531 . S
C4554 H4566 0.960 . S
C4554 H4567 0.962 . S
C4554 H4568 0.960 . S
C4555 C4552 1.511 . S
C4555 H4569 0.961 . S
C4555 H4570 0.961 . S
C4555 H4571 0.961 . S
C4556 C4557 1.370 . S
C4556 C4558 1.363 . S
C4556 H4572 0.866 1_455 S
C4557 C4556 1.370 . S
C4557 C4561 1.408 . S
C4558 C4556 1.363 . S
C4558 C4559 1.370 . S
C4558 C4562 1.524 . S
C4559 C4551 1.503 . S
C4559 C4558 1.370 . S
C4559 C4560 1.403 . S
C4560 C4559 1.403 . S
C4560 C4561 1.404 . S
C4560 C4563 1.539 . S
C4561 C4557 1.408 . S
C4561 C4560 1.404 . S
C4561 H4573 0.930 . S
C4562 C4558 1.524 . S
C4562 H4574 0.956 . S
C4562 H4575 0.961 . S
C4562 H4576 0.961 1_455 S
C4563 C4560 1.539 . S
C4563 H4577 0.958 . S
C4563 H4578 0.961 . S
C4563 H4579 0.960 . S
H4564 C4548 0.931 . S
H4565 C4553 0.929 . S
H4566 C4554 0.960 . S
H4567 C4554 0.962 . S
H4568 C4554 0.960 . S
H4569 C4555 0.961 . S
H4570 C4555 0.961 . S
H4571 C4555 0.961 . S
H4572 C4556 0.866 1_655 S
H4573 C4561 0.930 . S
H4574 C4562 0.956 . S
H4575 C4562 0.961 . S
H4576 C4562 0.961 1_655 S
H4577 C4563 0.958 . S
H4578 C4563 0.961 . S
H4579 C4563 0.960 . S
C4580 C4581 1.391 . S
C4580 C4582 1.394 . S
C4580 H4596 0.931 . S
C4581 C4580 1.391 . S
C4581 C4585 1.376 . S
C4582 C4580 1.394 . S
C4582 C4583 1.369 . S
C4582 C4586 1.531 . S
C4583 C4582 1.369 . S
C4583 C4584 1.410 . S
C4583 C4591 1.503 . S
C4584 C4583 1.410 . S
C4584 C4585 1.392 . S
C4584 C4587 1.511 . S
C4585 C4581 1.376 . S
C4585 C4584 1.392 . S
C4585 H4597 0.929 . S
C4586 C4582 1.531 . S
C4586 H4598 0.960 . S
C4586 H4599 0.962 . S
C4586 H4600 0.960 . S
C4587 C4584 1.511 . S
C4587 H4601 0.961 . S
C4587 H4602 0.961 . S
C4587 H4603 0.961 . S
C4588 C4589 1.370 . S
C4588 C4590 1.363 . S
C4588 H4604 0.931 . S
C4589 C4588 1.370 . S
C4589 C4593 1.408 . S
C4590 C4588 1.363 . S
C4590 C4591 1.370 . S
C4590 C4594 1.524 . S
C4591 C4583 1.503 . S
C4591 C4590 1.370 . S
C4591 C4592 1.403 . S
C4592 C4591 1.403 . S
C4592 C4593 1.404 . S
C4592 C4595 1.539 . S
C4593 C4589 1.408 . S
C4593 C4592 1.404 . S
C4593 H4605 0.930 . S
C4594 C4590 1.524 . S
C4594 H4606 0.956 . S
C4594 H4607 0.961 . S
C4594 H4608 0.961 . S
C4595 C4592 1.539 . S
C4595 H4609 0.958 . S
C4595 H4610 0.961 . S
C4595 H4611 0.960 . S
H4596 C4580 0.931 . S
H4597 C4585 0.929 . S
H4598 C4586 0.960 . S
H4599 C4586 0.962 . S
H4600 C4586 0.960 . S
H4601 C4587 0.961 . S
H4602 C4587 0.961 . S
H4603 C4587 0.961 . S
H4604 C4588 0.931 . S
H4605 C4593 0.930 . S
H4606 C4594 0.956 . S
H4607 C4594 0.961 . S
H4608 C4594 0.961 . S
H4609 C4595 0.958 . S
H4610 C4595 0.961 . S
H4611 C4595 0.960 . S
C4612 C4613 1.391 . S
C4612 C4614 1.394 . S
C4612 H4628 0.931 . S
C4613 C4612 1.391 . S
C4613 C4617 1.376 . S
C4614 C4612 1.394 . S
C4614 C4615 1.369 . S
C4614 C4618 1.531 . S
C4615 C4614 1.369 . S
C4615 C4616 1.410 . S
C4615 C4623 1.503 . S
C4616 C4615 1.410 . S
C4616 C4617 1.392 . S
C4616 C4619 1.511 . S
C4617 C4613 1.376 . S
C4617 C4616 1.392 . S
C4617 H4629 0.929 . S
C4618 C4614 1.531 . S
C4618 H4630 0.960 . S
C4618 H4631 0.962 . S
C4618 H4632 1.032 . S
C4619 C4616 1.511 . S
C4619 H4633 0.961 . S
C4619 H4634 0.961 . S
C4619 H4635 0.961 . S
C4620 C4621 1.370 . S
C4620 C4622 1.363 . S
C4620 H4636 0.931 . S
C4621 C4620 1.370 . S
C4621 C4625 1.408 . S
C4622 C4620 1.363 . S
C4622 C4623 1.370 . S
C4622 C4626 1.524 . S
C4623 C4615 1.503 . S
C4623 C4622 1.370 . S
C4623 C4624 1.403 . S
C4624 C4623 1.403 . S
C4624 C4625 1.404 . S
C4624 C4627 1.539 1_565 S
C4625 C4621 1.408 . S
C4625 C4624 1.404 . S
C4625 H4637 0.930 1_565 S
C4626 C4622 1.524 . S
C4626 H4638 0.956 . S
C4626 H4639 0.961 . S
C4626 H4640 0.961 . S
C4627 C4624 1.539 1_545 S
C4627 H4641 0.958 . S
C4627 H4642 0.961 . S
C4627 H4643 0.960 . S
H4628 C4612 0.931 . S
H4629 C4617 0.929 . S
H4630 C4618 0.960 . S
H4631 C4618 0.962 . S
H4632 C4618 1.032 . S
H4633 C4619 0.961 . S
H4634 C4619 0.961 . S
H4635 C4619 0.961 . S
H4636 C4620 0.931 . S
H4637 C4625 0.930 1_545 S
H4638 C4626 0.956 . S
H4639 C4626 0.961 . S
H4640 C4626 0.961 . S
H4641 C4627 0.958 . S
H4642 C4627 0.961 . S
H4643 C4627 0.960 . S
C4644 C4645 1.391 . S
C4644 C4646 1.394 . S
C4644 H4660 0.931 . S
C4645 C4644 1.391 . S
C4645 C4649 1.376 . S
C4646 C4644 1.394 . S
C4646 C4647 1.369 . S
C4646 C4650 1.531 1_565 S
C4647 C4646 1.369 . S
C4647 C4648 1.410 . S
C4647 C4655 1.503 . S
C4648 C4647 1.410 . S
C4648 C4649 1.392 . S
C4648 C4651 1.511 . S
C4649 C4645 1.376 . S
C4649 C4648 1.392 . S
C4649 H4661 0.929 . S
C4650 C4646 1.531 1_545 S
C4650 H4662 0.952 . S
C4650 H4663 0.962 . S
C4650 H4664 0.960 . S
C4651 C4648 1.511 . S
C4651 H4665 0.961 . S
C4651 H4666 0.961 . S
C4651 H4667 0.961 . S
C4652 C4653 1.370 1_545 S
C4652 C4654 1.363 1_545 S
C4652 H4668 0.931 . S
C4653 C4652 1.370 1_565 S
C4653 C4657 1.408 . S
C4654 C4652 1.363 1_565 S
C4654 C4655 1.370 . S
C4654 C4658 1.524 1_565 S
C4655 C4647 1.503 . S
C4655 C4654 1.370 . S
C4655 C4656 1.403 . S
C4656 C4655 1.403 . S
C4656 C4657 1.404 . S
C4656 C4659 1.539 . S
C4657 C4653 1.408 . S
C4657 C4656 1.404 . S
C4657 H4669 0.930 . S
C4658 C4654 1.524 1_545 S
C4658 H4670 0.956 . S
C4658 H4671 0.961 1_545 S
C4658 H4672 0.961 . S
C4659 C4656 1.539 . S
C4659 H4673 0.958 . S
C4659 H4674 0.961 . S
C4659 H4675 0.960 . S
H4660 C4644 0.931 . S
H4661 C4649 0.929 . S
H4662 C4650 0.952 . S
H4663 C4650 0.962 . S
H4664 C4650 0.960 . S
H4665 C4651 0.961 . S
H4666 C4651 0.961 . S
H4667 C4651 0.961 . S
H4668 C4652 0.931 . S
H4669 C4657 0.930 . S
H4670 C4658 0.956 . S
H4671 C4658 0.961 1_565 S
H4672 C4658 0.961 . S
H4673 C4659 0.958 . S
H4674 C4659 0.961 . S
H4675 C4659 0.960 . S
C4676 C4677 1.391 . S
C4676 C4678 1.394 . S
C4676 H4692 0.931 . S
C4677 C4676 1.391 . S
C4677 C4681 1.376 . S
C4678 C4676 1.394 . S
C4678 C4679 1.369 . S
C4678 C4682 1.531 . S
C4679 C4678 1.369 . S
C4679 C4680 1.410 . S
C4679 C4687 1.503 . S
C4680 C4679 1.410 . S
C4680 C4681 1.392 . S
C4680 C4683 1.511 . S
C4681 C4677 1.376 . S
C4681 C4680 1.392 . S
C4681 H4693 0.929 . S
C4682 C4678 1.531 . S
C4682 H4694 0.960 . S
C4682 H4695 0.962 1_455 S
C4682 H4696 0.960 . S
C4683 C4680 1.511 . S
C4683 H4697 0.961 . S
C4683 H4698 0.961 . S
C4683 H4699 0.961 . S
C4684 C4685 1.368 . S
C4684 C4686 1.361 . S
C4684 H4700 0.931 . S
C4685 C4684 1.368 . S
C4685 C4689 1.410 1_655 S
C4686 C4684 1.361 . S
C4686 C4687 1.340 1_655 S
C4686 C4690 1.559 . S
C4687 C4679 1.503 . S
C4687 C4686 1.340 1_455 S
C4687 C4688 1.403 . S
C4688 C4687 1.403 . S
C4688 C4689 1.404 . S
C4688 C4691 1.539 . S
C4689 C4685 1.410 1_455 S
C4689 C4688 1.404 . S
C4689 H4701 0.930 . S
C4690 C4686 1.559 . S
C4690 H4702 0.956 . S
C4690 H4703 0.961 . S
C4690 H4704 0.961 . S
C4691 C4688 1.539 . S
C4691 H4705 0.958 . S
C4691 H4706 0.961 . S
C4691 H4707 0.960 . S
H4692 C4676 0.931 . S
H4693 C4681 0.929 . S
H4694 C4682 0.960 . S
H4695 C4682 0.962 1_655 S
H4696 C4682 0.960 . S
H4697 C4683 0.961 . S
H4698 C4683 0.961 . S
H4699 C4683 0.961 . S
H4700 C4684 0.931 . S
H4701 C4689 0.930 . S
H4702 C4690 0.956 . S
H4703 C4690 0.961 . S
H4704 C4690 0.961 . S
H4705 C4691 0.958 . S
H4706 C4691 0.961 . S
H4707 C4691 0.960 . S
C4708 C4709 1.391 . S
C4708 C4710 1.394 . S
C4708 H4724 0.931 . S
C4709 C4708 1.391 . S
C4709 C4713 1.376 . S
C4710 C4708 1.394 . S
C4710 C4711 1.369 . S
C4710 C4714 1.531 . S
C4711 C4710 1.369 . S
C4711 C4712 1.410 . S
C4711 C4719 1.503 . S
C4712 C4711 1.410 . S
C4712 C4713 1.392 . S
C4712 C4715 1.511 . S
C4713 C4709 1.376 . S
C4713 C4712 1.392 . S
C4713 H4725 0.929 . S
C4714 C4710 1.531 . S
C4714 H4726 0.960 . S
C4714 H4727 0.962 . S
C4714 H4728 0.960 . S
C4715 C4712 1.511 . S
C4715 H4729 0.961 . S
C4715 H4730 0.961 . S
C4715 H4731 0.961 . S
C4716 C4717 1.370 . S
C4716 C4718 1.363 . S
C4716 H4732 0.931 . S
C4717 C4716 1.370 . S
C4717 C4721 1.408 . S
C4718 C4716 1.363 . S
C4718 C4719 1.370 . S
C4718 C4722 1.524 . S
C4719 C4711 1.503 . S
C4719 C4718 1.370 . S
C4719 C4720 1.403 . S
C4720 C4719 1.403 . S
C4720 C4721 1.404 . S
C4720 C4723 1.539 . S
C4721 C4717 1.408 . S
C4721 C4720 1.404 . S
C4721 H4733 0.930 . S
C4722 C4718 1.524 . S
C4722 H4734 0.956 . S
C4722 H4735 0.961 . S
C4722 H4736 0.961 . S
C4723 C4720 1.539 . S
C4723 H4737 0.958 . S
C4723 H4738 0.961 . S
C4723 H4739 0.960 . S
H4724 C4708 0.931 . S
H4725 C4713 0.929 . S
H4726 C4714 0.960 . S
H4727 C4714 0.962 . S
H4728 C4714 0.960 . S
H4729 C4715 0.961 . S
H4730 C4715 0.961 . S
H4731 C4715 0.961 . S
H4732 C4716 0.931 . S
H4733 C4721 0.930 . S
H4734 C4722 0.956 . S
H4735 C4722 0.961 . S
H4736 C4722 0.961 . S
H4737 C4723 0.958 . S
H4738 C4723 0.961 . S
H4739 C4723 0.960 . S
C4740 C4741 1.391 . S
C4740 C4742 1.394 . S
C4740 H4756 0.931 . S
C4741 C4740 1.391 . S
C4741 C4745 1.376 . S
C4742 C4740 1.394 . S
C4742 C4743 1.369 . S
C4742 C4746 1.531 . S
C4743 C4742 1.369 . S
C4743 C4744 1.410 . S
C4743 C4751 1.503 . S
C4744 C4743 1.410 . S
C4744 C4745 1.392 . S
C4744 C4747 1.511 . S
C4745 C4741 1.376 . S
C4745 C4744 1.392 . S
C4745 H4757 0.929 . S
C4746 C4742 1.531 . S
C4746 H4758 0.960 . S
C4746 H4759 0.962 . S
C4746 H4760 0.960 . S
C4747 C4744 1.511 . S
C4747 H4761 0.961 . S
C4747 H4762 0.961 . S
C4747 H4763 0.961 . S
C4748 C4749 1.370 . S
C4748 C4750 1.363 . S
C4748 H4764 0.931 . S
C4749 C4748 1.370 . S
C4749 C4753 1.408 . S
C4750 C4748 1.363 . S
C4750 C4751 1.370 . S
C4750 C4754 1.524 . S
C4751 C4743 1.503 . S
C4751 C4750 1.370 . S
C4751 C4752 1.403 . S
C4752 C4751 1.403 . S
C4752 C4753 1.404 . S
C4752 C4755 1.539 . S
C4753 C4749 1.408 . S
C4753 C4752 1.404 . S
C4753 H4765 0.930 . S
C4754 C4750 1.524 . S
C4754 H4766 0.956 . S
C4754 H4767 0.961 . S
C4754 H4768 0.961 . S
C4755 C4752 1.539 . S
C4755 H4769 0.958 . S
C4755 H4770 0.961 . S
C4755 H4771 0.960 . S
H4756 C4740 0.931 . S
H4757 C4745 0.929 . S
H4758 C4746 0.960 . S
H4759 C4746 0.962 . S
H4760 C4746 0.960 . S
H4761 C4747 0.961 . S
H4762 C4747 0.961 . S
H4763 C4747 0.961 . S
H4764 C4748 0.931 . S
H4765 C4753 0.930 . S
H4766 C4754 0.956 . S
H4767 C4754 0.961 . S
H4768 C4754 0.961 . S
H4769 C4755 0.958 . S
H4770 C4755 0.961 . S
H4771 C4755 0.960 . S
C4772 C4773 1.391 . S
C4772 C4774 1.394 . S
C4772 H4788 0.931 . S
C4773 C4772 1.391 . S
C4773 C4777 1.376 . S
C4774 C4772 1.394 . S
C4774 C4775 1.369 . S
C4774 C4778 1.531 . S
C4775 C4774 1.369 . S
C4775 C4776 1.410 . S
C4775 C4783 1.503 . S
C4776 C4775 1.410 . S
C4776 C4777 1.392 . S
C4776 C4779 1.511 . S
C4777 C4773 1.376 . S
C4777 C4776 1.392 . S
C4777 H4789 0.929 . S
C4778 C4774 1.531 . S
C4778 H4790 0.960 . S
C4778 H4791 0.962 . S
C4778 H4792 0.960 . S
C4779 C4776 1.511 . S
C4779 H4793 0.961 . S
C4779 H4794 0.961 . S
C4779 H4795 0.961 . S
C4780 C4781 1.370 . S
C4780 C4782 1.363 . S
C4780 H4796 0.931 . S
C4781 C4780 1.370 . S
C4781 C4785 1.408 . S
C4782 C4780 1.363 . S
C4782 C4783 1.370 . S
C4782 C4786 1.524 . S
C4783 C4775 1.503 . S
C4783 C4782 1.370 . S
C4783 C4784 1.403 . S
C4784 C4783 1.403 . S
C4784 C4785 1.404 . S
C4784 C4787 1.539 . S
C4785 C4781 1.408 . S
C4785 C4784 1.404 . S
C4785 H4797 0.930 . S
C4786 C4782 1.524 . S
C4786 H4798 0.956 . S
C4786 H4799 0.961 . S
C4786 H4800 0.961 . S
C4787 C4784 1.539 . S
C4787 H4801 0.958 . S
C4787 H4802 0.961 . S
C4787 H4803 0.960 . S
H4788 C4772 0.931 . S
H4789 C4777 0.929 . S
H4790 C4778 0.960 . S
H4791 C4778 0.962 . S
H4792 C4778 0.960 . S
H4793 C4779 0.961 . S
H4794 C4779 0.961 . S
H4795 C4779 0.961 . S
H4796 C4780 0.931 . S
H4797 C4785 0.930 . S
H4798 C4786 0.956 . S
H4799 C4786 0.961 . S
H4800 C4786 0.961 . S
H4801 C4787 0.958 . S
H4802 C4787 0.961 . S
H4803 C4787 0.960 . S
C4804 C4805 1.391 . S
C4804 C4806 1.394 . S
C4804 H4820 0.931 . S
C4805 C4804 1.391 . S
C4805 C4809 1.376 . S
C4806 C4804 1.394 . S
C4806 C4807 1.369 . S
C4806 C4810 1.531 . S
C4807 C4806 1.369 . S
C4807 C4808 1.410 . S
C4807 C4815 1.503 . S
C4808 C4807 1.410 . S
C4808 C4809 1.392 . S
C4808 C4811 1.511 . S
C4809 C4805 1.376 . S
C4809 C4808 1.392 . S
C4809 H4821 0.929 . S
C4810 C4806 1.531 . S
C4810 H4822 0.960 . S
C4810 H4823 0.962 . S
C4810 H4824 0.960 . S
C4811 C4808 1.511 . S
C4811 H4825 0.961 . S
C4811 H4826 0.961 . S
C4811 H4827 0.961 . S
C4812 C4813 1.370 . S
C4812 C4814 1.363 . S
C4812 H4828 0.931 . S
C4813 C4812 1.370 . S
C4813 C4817 1.408 . S
C4814 C4812 1.363 . S
C4814 C4815 1.370 . S
C4814 C4818 1.524 . S
C4815 C4807 1.503 . S
C4815 C4814 1.370 . S
C4815 C4816 1.403 . S
C4816 C4815 1.403 . S
C4816 C4817 1.404 . S
C4816 C4819 1.539 . S
C4817 C4813 1.408 . S
C4817 C4816 1.404 . S
C4817 H4829 0.930 . S
C4818 C4814 1.524 . S
C4818 H4830 0.956 . S
C4818 H4831 0.961 . S
C4818 H4832 0.961 . S
C4819 C4816 1.539 . S
C4819 H4833 0.958 . S
C4819 H4834 0.961 . S
C4819 H4835 0.960 . S
H4820 C4804 0.931 . S
H4821 C4809 0.929 . S
H4822 C4810 0.960 . S
H4823 C4810 0.962 . S
H4824 C4810 0.960 . S
H4825 C4811 0.961 . S
H4826 C4811 0.961 . S
H4827 C4811 0.961 . S
H4828 C4812 0.931 . S
H4829 C4817 0.930 . S
H4830 C4818 0.956 . S
H4831 C4818 0.961 . S
H4832 C4818 0.961 . S
H4833 C4819 0.958 . S
H4834 C4819 0.961 . S
H4835 C4819 0.960 . S
C4836 C4837 1.391 . S
C4836 C4838 1.394 . S
C4836 H4852 0.931 . S
C4837 C4836 1.391 . S
C4837 C4841 1.376 . S
C4838 C4836 1.394 . S
C4838 C4839 1.369 . S
C4838 C4842 1.531 . S
C4839 C4838 1.369 . S
C4839 C4840 1.410 . S
C4839 C4847 1.503 . S
C4840 C4839 1.410 . S
C4840 C4841 1.392 . S
C4840 C4843 1.511 . S
C4841 C4837 1.376 . S
C4841 C4840 1.392 . S
C4841 H4853 0.929 . S
C4842 C4838 1.531 . S
C4842 H4854 0.960 . S
C4842 H4855 0.962 . S
C4842 H4856 0.960 . S
C4843 C4840 1.511 . S
C4843 H4857 0.961 . S
C4843 H4858 0.961 . S
C4843 H4859 0.961 . S
C4844 C4845 1.370 . S
C4844 C4846 1.363 . S
C4844 H4860 0.931 1_545 S
C4845 C4844 1.370 . S
C4845 C4849 1.408 . S
C4846 C4844 1.363 . S
C4846 C4847 1.370 . S
C4846 C4850 1.524 1_545 S
C4847 C4839 1.503 . S
C4847 C4846 1.370 . S
C4847 C4848 1.403 . S
C4848 C4847 1.403 . S
C4848 C4849 1.404 . S
C4848 C4851 1.539 . S
C4849 C4845 1.408 . S
C4849 C4848 1.404 . S
C4849 H4861 0.930 . S
C4850 C4846 1.524 1_565 S
C4850 H4862 0.956 1_565 S
C4850 H4863 0.961 . S
C4850 H4864 0.961 . S
C4851 C4848 1.539 . S
C4851 H4865 0.958 . S
C4851 H4866 0.961 . S
C4851 H4867 0.960 . S
H4852 C4836 0.931 . S
H4853 C4841 0.929 . S
H4854 C4842 0.960 . S
H4855 C4842 0.962 . S
H4856 C4842 0.960 . S
H4857 C4843 0.961 . S
H4858 C4843 0.961 . S
H4859 C4843 0.961 . S
H4860 C4844 0.931 1_565 S
H4861 C4849 0.930 . S
H4862 C4850 0.956 1_545 S
H4863 C4850 0.961 . S
H4864 C4850 0.961 . S
H4865 C4851 0.958 . S
H4866 C4851 0.961 . S
H4867 C4851 0.960 . S
C4868 C4869 1.391 . S
C4868 C4870 1.394 . S
C4868 H4884 0.931 . S
C4869 C4868 1.391 . S
C4869 C4873 1.376 . S
C4870 C4868 1.394 . S
C4870 C4871 1.369 . S
C4870 C4874 1.531 . S
C4871 C4870 1.369 . S
C4871 C4872 1.410 . S
C4871 C4879 1.503 . S
C4872 C4871 1.410 . S
C4872 C4873 1.392 . S
C4872 C4875 1.511 . S
C4873 C4869 1.376 . S
C4873 C4872 1.392 . S
C4873 H4885 0.929 . S
C4874 C4870 1.531 . S
C4874 H4886 0.960 . S
C4874 H4887 0.962 . S
C4874 H4888 0.960 . S
C4875 C4872 1.511 . S
C4875 H4889 0.961 . S
C4875 H4890 0.961 . S
C4875 H4891 0.961 . S
C4876 C4877 1.370 . S
C4876 C4878 1.363 . S
C4876 H4892 0.931 . S
C4877 C4876 1.370 . S
C4877 C4881 1.408 1_655 S
C4878 C4876 1.363 . S
C4878 C4879 1.370 . S
C4878 C4882 1.524 . S
C4879 C4871 1.503 . S
C4879 C4878 1.370 . S
C4879 C4880 1.424 . S
C4880 C4879 1.424 . S
C4880 C4881 1.415 1_655 S
C4880 C4883 1.508 1_655 S
C4881 C4877 1.408 1_455 S
C4881 C4880 1.415 1_455 S
C4881 H4893 0.930 . S
C4882 C4878 1.524 . S
C4882 H4894 0.956 . S
C4882 H4895 0.961 . S
C4882 H4896 0.961 . S
C4883 C4880 1.508 1_455 S
C4883 H4897 0.958 . S
C4883 H4898 0.961 . S
C4883 H4899 0.960 . S
H4884 C4868 0.931 . S
H4885 C4873 0.929 . S
H4886 C4874 0.960 . S
H4887 C4874 0.962 . S
H4888 C4874 0.960 . S
H4889 C4875 0.961 . S
H4890 C4875 0.961 . S
H4891 C4875 0.961 . S
H4892 C4876 0.931 . S
H4893 C4881 0.930 . S
H4894 C4882 0.956 . S
H4895 C4882 0.961 . S
H4896 C4882 0.961 . S
H4897 C4883 0.958 . S
H4898 C4883 0.961 . S
H4899 C4883 0.960 . S
C4900 C4901 1.391 . S
C4900 C4902 1.394 . S
C4900 H4916 0.931 . S
C4901 C4900 1.391 . S
C4901 C4905 1.376 . S
C4902 C4900 1.394 . S
C4902 C4903 1.369 . S
C4902 C4906 1.531 . S
C4903 C4902 1.369 . S
C4903 C4904 1.410 . S
C4903 C4911 1.503 . S
C4904 C4903 1.410 . S
C4904 C4905 1.392 . S
C4904 C4907 1.511 . S
C4905 C4901 1.376 . S
C4905 C4904 1.392 . S
C4905 H4917 0.929 . S
C4906 C4902 1.531 . S
C4906 H4918 0.960 . S
C4906 H4919 0.962 . S
C4906 H4920 0.960 . S
C4907 C4904 1.511 . S
C4907 H4921 0.961 . S
C4907 H4922 0.961 . S
C4907 H4923 0.961 . S
C4908 C4909 1.370 . S
C4908 C4910 1.363 . S
C4908 H4924 0.931 . S
C4909 C4908 1.370 . S
C4909 C4913 1.408 . S
C4910 C4908 1.363 . S
C4910 C4911 1.370 . S
C4910 C4914 1.524 . S
C4911 C4903 1.503 . S
C4911 C4910 1.370 . S
C4911 C4912 1.403 . S
C4912 C4911 1.403 . S
C4912 C4913 1.404 . S
C4912 C4915 1.539 . S
C4913 C4909 1.408 . S
C4913 C4912 1.404 . S
C4913 H4925 0.930 . S
C4914 C4910 1.524 . S
C4914 H4926 0.956 . S
C4914 H4927 0.961 . S
C4914 H4928 0.961 . S
C4915 C4912 1.539 . S
C4915 H4929 0.958 . S
C4915 H4930 0.961 . S
C4915 H4931 0.960 . S
H4916 C4900 0.931 . S
H4917 C4905 0.929 . S
H4918 C4906 0.960 . S
H4919 C4906 0.962 . S
H4920 C4906 0.960 . S
H4921 C4907 0.961 . S
H4922 C4907 0.961 . S
H4923 C4907 0.961 . S
H4924 C4908 0.931 . S
H4925 C4913 0.930 . S
H4926 C4914 0.956 . S
H4927 C4914 0.961 . S
H4928 C4914 0.961 . S
H4929 C4915 0.958 . S
H4930 C4915 0.961 . S
H4931 C4915 0.960 . S
C4932 C4933 1.391 . S
C4932 C4934 1.394 . S
C4932 H4948 0.931 . S
C4933 C4932 1.391 . S
C4933 C4937 1.376 . S
C4934 C4932 1.394 . S
C4934 C4935 1.369 . S
C4934 C4938 1.531 . S
C4935 C4934 1.369 . S
C4935 C4936 1.410 . S
C4935 C4943 1.503 . S
C4936 C4935 1.410 . S
C4936 C4937 1.392 . S
C4936 C4939 1.511 . S
C4937 C4933 1.376 . S
C4937 C4936 1.392 . S
C4937 H4949 0.929 . S
C4938 C4934 1.531 . S
C4938 H4950 0.960 . S
C4938 H4951 0.962 . S
C4938 H4952 0.960 . S
C4939 C4936 1.511 . S
C4939 H4953 0.961 . S
C4939 H4954 0.961 . S
C4939 H4955 0.961 . S
C4940 C4941 1.370 . S
C4940 C4942 1.363 . S
C4940 H4956 0.931 . S
C4941 C4940 1.370 . S
C4941 C4945 1.408 . S
C4942 C4940 1.363 . S
C4942 C4943 1.370 . S
C4942 C4946 1.524 . S
C4943 C4935 1.503 . S
C4943 C4942 1.370 . S
C4943 C4944 1.403 . S
C4944 C4943 1.403 . S
C4944 C4945 1.404 . S
C4944 C4947 1.539 . S
C4945 C4941 1.408 . S
C4945 C4944 1.404 . S
C4945 H4957 0.930 . S
C4946 C4942 1.524 . S
C4946 H4958 0.956 . S
C4946 H4959 0.961 . S
C4946 H4960 0.961 . S
C4947 C4944 1.539 . S
C4947 H4961 0.958 . S
C4947 H4962 0.961 . S
C4947 H4963 0.960 . S
H4948 C4932 0.931 . S
H4949 C4937 0.929 . S
H4950 C4938 0.960 . S
H4951 C4938 0.962 . S
H4952 C4938 0.960 . S
H4953 C4939 0.961 . S
H4954 C4939 0.961 . S
H4955 C4939 0.961 . S
H4956 C4940 0.931 . S
H4957 C4945 0.930 . S
H4958 C4946 0.956 . S
H4959 C4946 0.961 . S
H4960 C4946 0.961 . S
H4961 C4947 0.958 . S
H4962 C4947 0.961 . S
H4963 C4947 0.960 . S
C4964 C4965 1.391 . S
C4964 C4966 1.394 . S
C4964 H4980 0.931 . S
C4965 C4964 1.391 . S
C4965 C4969 1.376 . S
C4966 C4964 1.394 . S
C4966 C4967 1.369 . S
C4966 C4970 1.531 . S
C4967 C4966 1.369 . S
C4967 C4968 1.410 . S
C4967 C4975 1.503 . S
C4968 C4967 1.410 . S
C4968 C4969 1.392 . S
C4968 C4971 1.511 . S
C4969 C4965 1.376 . S
C4969 C4968 1.392 . S
C4969 H4981 0.929 . S
C4970 C4966 1.531 . S
C4970 H4982 0.960 . S
C4970 H4983 0.962 . S
C4970 H4984 0.960 . S
C4971 C4968 1.511 . S
C4971 H4985 0.961 . S
C4971 H4986 0.961 . S
C4971 H4987 0.961 . S
C4972 C4973 1.370 . S
C4972 C4974 1.363 . S
C4972 H4988 0.931 . S
C4973 C4972 1.370 . S
C4973 C4977 1.408 . S
C4974 C4972 1.363 . S
C4974 C4975 1.370 . S
C4974 C4978 1.524 . S
C4975 C4967 1.503 . S
C4975 C4974 1.370 . S
C4975 C4976 1.403 . S
C4976 C4975 1.403 . S
C4976 C4977 1.404 . S
C4976 C4979 1.539 . S
C4977 C4973 1.408 . S
C4977 C4976 1.404 . S
C4977 H4989 0.930 . S
C4978 C4974 1.524 . S
C4978 H4990 0.956 . S
C4978 H4991 0.961 . S
C4978 H4992 0.961 . S
C4979 C4976 1.539 . S
C4979 H4993 0.958 . S
C4979 H4994 0.961 . S
C4979 H4995 0.960 . S
H4980 C4964 0.931 . S
H4981 C4969 0.929 . S
H4982 C4970 0.960 . S
H4983 C4970 0.962 . S
H4984 C4970 0.960 . S
H4985 C4971 0.961 . S
H4986 C4971 0.961 . S
H4987 C4971 0.961 . S
H4988 C4972 0.931 . S
H4989 C4977 0.930 . S
H4990 C4978 0.956 . S
H4991 C4978 0.961 . S
H4992 C4978 0.961 . S
H4993 C4979 0.958 . S
H4994 C4979 0.961 . S
H4995 C4979 0.960 . S
C4996 C4997 1.391 . S
C4996 C4998 1.394 . S
C4996 H5012 0.931 . S
C4997 C4996 1.391 . S
C4997 C5001 1.376 . S
C4998 C4996 1.394 . S
C4998 C4999 1.369 . S
C4998 C5002 1.531 . S
C4999 C4998 1.369 . S
C4999 C5000 1.410 . S
C4999 C5007 1.503 . S
C5000 C4999 1.410 . S
C5000 C5001 1.392 . S
C5000 C5003 1.511 . S
C5001 C4997 1.376 . S
C5001 C5000 1.392 . S
C5001 H5013 0.929 . S
C5002 C4998 1.531 . S
C5002 H5014 0.960 . S
C5002 H5015 0.962 . S
C5002 H5016 0.960 . S
C5003 C5000 1.511 . S
C5003 H5017 0.961 . S
C5003 H5018 0.961 . S
C5003 H5019 0.961 . S
C5004 C5005 1.370 . S
C5004 C5006 1.363 . S
C5004 H5020 0.931 . S
C5005 C5004 1.370 . S
C5005 C5009 1.408 . S
C5006 C5004 1.363 . S
C5006 C5007 1.370 . S
C5006 C5010 1.524 . S
C5007 C4999 1.503 . S
C5007 C5006 1.370 . S
C5007 C5008 1.403 . S
C5008 C5007 1.403 . S
C5008 C5009 1.404 . S
C5008 C5011 1.539 . S
C5009 C5005 1.408 . S
C5009 C5008 1.404 . S
C5009 H5021 0.930 . S
C5010 C5006 1.524 . S
C5010 H5022 0.956 . S
C5010 H5023 0.961 . S
C5010 H5024 0.961 . S
C5011 C5008 1.539 . S
C5011 H5025 0.958 . S
C5011 H5026 0.961 . S
C5011 H5027 0.960 . S
H5012 C4996 0.931 . S
H5013 C5001 0.929 . S
H5014 C5002 0.960 . S
H5015 C5002 0.962 . S
H5016 C5002 0.960 . S
H5017 C5003 0.961 . S
H5018 C5003 0.961 . S
H5019 C5003 0.961 . S
H5020 C5004 0.931 . S
H5021 C5009 0.930 . S
H5022 C5010 0.956 . S
H5023 C5010 0.961 . S
H5024 C5010 0.961 . S
H5025 C5011 0.958 . S
H5026 C5011 0.961 . S
H5027 C5011 0.960 . S
C5028 C5029 1.391 . S
C5028 C5030 1.394 . S
C5028 H5044 0.931 . S
C5029 C5028 1.391 . S
C5029 C5033 1.376 . S
C5030 C5028 1.394 . S
C5030 C5031 1.369 . S
C5030 C5034 1.531 . S
C5031 C5030 1.369 . S
C5031 C5032 1.410 . S
C5031 C5039 1.503 . S
C5032 C5031 1.410 . S
C5032 C5033 1.392 . S
C5032 C5035 1.511 . S
C5033 C5029 1.376 . S
C5033 C5032 1.392 . S
C5033 H5045 0.929 . S
C5034 C5030 1.531 . S
C5034 H5046 0.960 . S
C5034 H5047 0.962 . S
C5034 H5048 0.960 . S
C5035 C5032 1.511 . S
C5035 H5049 0.961 . S
C5035 H5050 0.961 . S
C5035 H5051 0.961 . S
C5036 C5037 1.370 . S
C5036 C5038 1.363 . S
C5036 H5052 0.931 . S
C5037 C5036 1.370 . S
C5037 C5041 1.408 . S
C5038 C5036 1.363 . S
C5038 C5039 1.370 . S
C5038 C5042 1.524 . S
C5039 C5031 1.503 . S
C5039 C5038 1.370 . S
C5039 C5040 1.403 . S
C5040 C5039 1.403 . S
C5040 C5041 1.404 . S
C5040 C5043 1.539 . S
C5041 C5037 1.408 . S
C5041 C5040 1.404 . S
C5041 H5053 0.930 . S
C5042 C5038 1.524 . S
C5042 H5054 0.956 . S
C5042 H5055 0.961 . S
C5042 H5056 0.961 . S
C5043 C5040 1.539 . S
C5043 H5057 0.958 . S
C5043 H5058 0.961 . S
C5043 H5059 0.960 . S
H5044 C5028 0.931 . S
H5045 C5033 0.929 . S
H5046 C5034 0.960 . S
H5047 C5034 0.962 . S
H5048 C5034 0.960 . S
H5049 C5035 0.961 . S
H5050 C5035 0.961 . S
H5051 C5035 0.961 . S
H5052 C5036 0.931 . S
H5053 C5041 0.930 . S
H5054 C5042 0.956 . S
H5055 C5042 0.961 . S
H5056 C5042 0.961 . S
H5057 C5043 0.958 . S
H5058 C5043 0.961 . S
H5059 C5043 0.960 . S
C5060 C5061 1.391 . S
C5060 C5062 1.394 . S
C5060 H5076 0.931 . S
C5061 C5060 1.391 . S
C5061 C5065 1.376 . S
C5062 C5060 1.394 . S
C5062 C5063 1.369 . S
C5062 C5066 1.531 . S
C5063 C5062 1.369 . S
C5063 C5064 1.410 . S
C5063 C5071 1.503 . S
C5064 C5063 1.410 . S
C5064 C5065 1.392 . S
C5064 C5067 1.511 . S
C5065 C5061 1.376 . S
C5065 C5064 1.392 . S
C5065 H5077 0.929 . S
C5066 C5062 1.531 . S
C5066 H5078 0.960 . S
C5066 H5079 0.962 . S
C5066 H5080 0.960 . S
C5067 C5064 1.511 . S
C5067 H5081 0.961 . S
C5067 H5082 0.961 . S
C5067 H5083 0.961 . S
C5068 C5069 1.370 . S
C5068 C5070 1.363 . S
C5068 H5084 0.931 . S
C5069 C5068 1.370 . S
C5069 C5073 1.408 . S
C5070 C5068 1.363 . S
C5070 C5071 1.370 . S
C5070 C5074 1.524 . S
C5071 C5063 1.503 . S
C5071 C5070 1.370 . S
C5071 C5072 1.403 . S
C5072 C5071 1.403 . S
C5072 C5073 1.404 . S
C5072 C5075 1.539 . S
C5073 C5069 1.408 . S
C5073 C5072 1.404 . S
C5073 H5085 0.930 . S
C5074 C5070 1.524 . S
C5074 H5086 0.956 . S
C5074 H5087 0.961 . S
C5074 H5088 0.961 . S
C5075 C5072 1.539 . S
C5075 H5089 0.958 . S
C5075 H5090 0.961 . S
C5075 H5091 0.960 . S
H5076 C5060 0.931 . S
H5077 C5065 0.929 . S
H5078 C5066 0.960 . S
H5079 C5066 0.962 . S
H5080 C5066 0.960 . S
H5081 C5067 0.961 . S
H5082 C5067 0.961 . S
H5083 C5067 0.961 . S
H5084 C5068 0.931 . S
H5085 C5073 0.930 . S
H5086 C5074 0.956 . S
H5087 C5074 0.961 . S
H5088 C5074 0.961 . S
H5089 C5075 0.958 . S
H5090 C5075 0.961 . S
H5091 C5075 0.960 . S
C5092 C5093 1.391 . S
C5092 C5094 1.394 . S
C5092 H5108 0.931 . S
C5093 C5092 1.391 . S
C5093 C5097 1.376 . S
C5094 C5092 1.394 . S
C5094 C5095 1.369 . S
C5094 C5098 1.531 . S
C5095 C5094 1.369 . S
C5095 C5096 1.410 . S
C5095 C5103 1.503 . S
C5096 C5095 1.410 . S
C5096 C5097 1.392 . S
C5096 C5099 1.511 . S
C5097 C5093 1.376 . S
C5097 C5096 1.392 . S
C5097 H5109 0.929 . S
C5098 C5094 1.531 . S
C5098 H5110 0.960 . S
C5098 H5111 0.962 . S
C5098 H5112 0.960 . S
C5099 C5096 1.511 . S
C5099 H5113 0.961 . S
C5099 H5114 0.961 . S
C5099 H5115 0.961 . S
C5100 C5101 1.370 . S
C5100 C5102 1.363 . S
C5100 H5116 0.931 . S
C5101 C5100 1.370 . S
C5101 C5105 1.408 . S
C5102 C5100 1.363 . S
C5102 C5103 1.370 . S
C5102 C5106 1.524 . S
C5103 C5095 1.503 . S
C5103 C5102 1.370 . S
C5103 C5104 1.403 . S
C5104 C5103 1.403 . S
C5104 C5105 1.404 . S
C5104 C5107 1.539 . S
C5105 C5101 1.408 . S
C5105 C5104 1.404 . S
C5105 H5117 0.930 . S
C5106 C5102 1.524 . S
C5106 H5118 0.956 . S
C5106 H5119 0.961 . S
C5106 H5120 0.961 . S
C5107 C5104 1.539 . S
C5107 H5121 0.958 . S
C5107 H5122 0.961 . S
C5107 H5123 0.960 . S
H5108 C5092 0.931 . S
H5109 C5097 0.929 . S
H5110 C5098 0.960 . S
H5111 C5098 0.962 . S
H5112 C5098 0.960 . S
H5113 C5099 0.961 . S
H5114 C5099 0.961 . S
H5115 C5099 0.961 . S
H5116 C5100 0.931 . S
H5117 C5105 0.930 . S
H5118 C5106 0.956 . S
H5119 C5106 0.961 . S
H5120 C5106 0.961 . S
H5121 C5107 0.958 . S
H5122 C5107 0.961 . S
H5123 C5107 0.960 . S
C5124 C5125 1.391 . S
C5124 C5126 1.394 . S
C5124 H5140 0.931 . S
C5125 C5124 1.391 . S
C5125 C5129 1.376 . S
C5126 C5124 1.394 . S
C5126 C5127 1.369 . S
C5126 C5130 1.531 . S
C5127 C5126 1.369 . S
C5127 C5128 1.410 . S
C5127 C5135 1.503 . S
C5128 C5127 1.410 . S
C5128 C5129 1.392 . S
C5128 C5131 1.511 1_655 S
C5129 C5125 1.376 . S
C5129 C5128 1.392 . S
C5129 H5141 0.929 . S
C5130 C5126 1.531 . S
C5130 H5142 0.960 . S
C5130 H5143 0.962 . S
C5130 H5144 0.960 . S
C5131 C5128 1.511 1_455 S
C5131 H5145 0.961 . S
C5131 H5146 0.961 . S
C5131 H5147 0.961 . S
C5132 C5133 1.370 . S
C5132 C5134 1.363 . S
C5132 H5148 0.931 . S
C5133 C5132 1.370 . S
C5133 C5137 1.408 . S
C5134 C5132 1.363 . S
C5134 C5135 1.370 . S
C5134 C5138 1.524 . S
C5135 C5127 1.503 . S
C5135 C5134 1.370 . S
C5135 C5136 1.403 . S
C5136 C5135 1.403 . S
C5136 C5137 1.404 . S
C5136 C5139 1.539 . S
C5137 C5133 1.408 . S
C5137 C5136 1.404 . S
C5137 H5149 0.930 . S
C5138 C5134 1.524 . S
C5138 H5150 0.956 . S
C5138 H5151 0.961 . S
C5138 H5152 0.961 . S
C5139 C5136 1.539 . S
C5139 H5153 0.958 . S
C5139 H5154 0.961 . S
C5139 H5155 0.960 . S
H5140 C5124 0.931 . S
H5141 C5129 0.929 . S
H5142 C5130 0.960 . S
H5143 C5130 0.962 . S
H5144 C5130 0.960 . S
H5145 C5131 0.961 . S
H5146 C5131 0.961 . S
H5147 C5131 0.961 . S
H5148 C5132 0.931 . S
H5149 C5137 0.930 . S
H5150 C5138 0.956 . S
H5151 C5138 0.961 . S
H5152 C5138 0.961 . S
H5153 C5139 0.958 . S
H5154 C5139 0.961 . S
H5155 C5139 0.960 . S
C5156 C5157 1.391 . S
C5156 C5158 1.394 . S
C5156 H5172 0.931 . S
C5157 C5156 1.391 . S
C5157 C5161 1.376 . S
C5158 C5156 1.394 . S
C5158 C5159 1.369 . S
C5158 C5162 1.531 . S
C5159 C5158 1.369 . S
C5159 C5160 1.410 . S
C5159 C5167 1.503 . S
C5160 C5159 1.410 . S
C5160 C5161 1.392 . S
C5160 C5163 1.511 . S
C5161 C5157 1.376 . S
C5161 C5160 1.392 . S
C5161 H5173 0.929 . S
C5162 C5158 1.531 . S
C5162 H5174 0.960 . S
C5162 H5175 0.962 . S
C5162 H5176 0.960 . S
C5163 C5160 1.511 . S
C5163 H5177 0.961 . S
C5163 H5178 0.961 . S
C5163 H5179 0.961 . S
C5164 C5165 1.370 . S
C5164 C5166 1.363 . S
C5164 H5180 0.931 . S
C5165 C5164 1.370 . S
C5165 C5169 1.408 . S
C5166 C5164 1.363 . S
C5166 C5167 1.370 . S
C5166 C5170 1.524 . S
C5167 C5159 1.503 . S
C5167 C5166 1.370 . S
C5167 C5168 1.403 . S
C5168 C5167 1.403 . S
C5168 C5169 1.404 . S
C5168 C5171 1.539 . S
C5169 C5165 1.408 . S
C5169 C5168 1.404 . S
C5169 H5181 0.930 . S
C5170 C5166 1.524 . S
C5170 H5182 0.956 . S
C5170 H5183 0.961 . S
C5170 H5184 0.961 . S
C5171 C5168 1.539 . S
C5171 H5185 0.958 . S
C5171 H5186 0.961 . S
C5171 H5187 0.960 . S
H5172 C5156 0.931 . S
H5173 C5161 0.929 . S
H5174 C5162 0.960 . S
H5175 C5162 0.962 . S
H5176 C5162 0.960 . S
H5177 C5163 0.961 . S
H5178 C5163 0.961 . S
H5179 C5163 0.961 . S
H5180 C5164 0.931 . S
H5181 C5169 0.930 . S
H5182 C5170 0.956 . S
H5183 C5170 0.961 . S
H5184 C5170 0.961 . S
H5185 C5171 0.958 . S
H5186 C5171 0.961 . S
H5187 C5171 0.960 . S
C5188 C5189 1.391 . S
C5188 C5190 1.394 . S
C5188 H5204 0.931 . S
C5189 C5188 1.391 . S
C5189 C5193 1.376 . S
C5190 C5188 1.394 . S
C5190 C5191 1.369 . S
C5190 C5194 1.531 . S
C5191 C5190 1.369 . S
C5191 C5192 1.410 . S
C5191 C5199 1.503 . S
C5192 C5191 1.410 . S
C5192 C5193 1.392 . S
C5192 C5195 1.511 . S
C5193 C5189 1.376 . S
C5193 C5192 1.392 . S
C5193 H5205 0.929 . S
C5194 C5190 1.531 . S
C5194 H5206 0.960 . S
C5194 H5207 0.962 . S
C5194 H5208 0.960 . S
C5195 C5192 1.511 . S
C5195 H5209 0.961 . S
C5195 H5210 0.961 . S
C5195 H5211 0.961 . S
C5196 C5197 1.370 1_565 S
C5196 C5198 1.363 1_565 S
C5196 H5212 0.931 . S
C5197 C5196 1.370 1_545 S
C5197 C5201 1.408 . S
C5198 C5196 1.363 1_545 S
C5198 C5199 1.392 . S
C5198 C5202 1.503 1_545 S
C5199 C5191 1.503 . S
C5199 C5198 1.392 . S
C5199 C5200 1.403 . S
C5200 C5199 1.403 . S
C5200 C5201 1.404 . S
C5200 C5203 1.539 . S
C5201 C5197 1.408 . S
C5201 C5200 1.404 . S
C5201 H5213 0.930 . S
C5202 C5198 1.503 1_565 S
C5202 H5214 0.956 . S
C5202 H5215 0.961 . S
C5202 H5216 0.961 . S
C5203 C5200 1.539 . S
C5203 H5217 0.958 . S
C5203 H5218 0.961 . S
C5203 H5219 0.960 . S
H5204 C5188 0.931 . S
H5205 C5193 0.929 . S
H5206 C5194 0.960 . S
H5207 C5194 0.962 . S
H5208 C5194 0.960 . S
H5209 C5195 0.961 . S
H5210 C5195 0.961 . S
H5211 C5195 0.961 . S
H5212 C5196 0.931 . S
H5213 C5201 0.930 . S
H5214 C5202 0.956 . S
H5215 C5202 0.961 . S
H5216 C5202 0.961 . S
H5217 C5203 0.958 . S
H5218 C5203 0.961 . S
H5219 C5203 0.960 . S
C2917 C49 1.159 . S
C2925 C2313 1.156 . S
C2949 C137 1.600 . S
C2957 C2393 1.575 . S
C2989 C2461 1.376 . S
C2981 C205 1.352 . S
C3013 C196 1.765 . S
C3021 C2541 1.826 . S
C3045 C57 1.602 . S
C3053 C2615 1.621 . S
C3077 C145 1.614 . S
C3085 C2683 1.550 . S
C3109 C313 1.149 . S
C3117 C2609 1.154 . S
C3149 C2689 1.507 . S
C3141 C401 1.504 . S
C3181 C2535 1.407 1_565 S
C3173 C489 1.380 . S
C3205 C469 1.863 . S
C3213 C2467 1.891 1_545 S
C3245 C2319 1.647 . S
C3237 C293 1.606 . S
C3269 C381 1.475 . S
C3277 C2387 1.484 . S
C3301 C577 1.409 . S
C3309 C2757 1.301 . S
C3333 C645 1.631 . S
C3341 C2837 1.583 . S
C3373 C2905 1.450 . S
C3365 C733 1.522 . S
C3397 C724 1.900 . S
C3405 C1653 1.876 . S
C3429 C585 1.742 . S
C3437 C1727 1.715 . S
C3461 C636 1.648 . S
C3469 C1795 1.584 . S
C3493 C841 1.118 . S
C3501 C1721 1.074 . S
C3525 C937 1.545 . S
C3533 C1801 1.562 . S
C3565 C1647 1.437 . S
C3557 C1025 1.437 . S
C3597 C2911 1.903 . S
C3589 C988 1.902 . S
C3629 C2763 1.539 . S
C3621 C821 1.536 . S
C3661 C2831 1.496 . S
C3653 C900 1.501 . S
C3685 C1105 1.288 . S
C3693 C1869 1.187 . S
C3717 C1193 1.684 . S
C3725 C1949 1.651 . S
C3749 C1281 1.599 . S
C3757 C2017 1.538 . S
C3781 C1289 1.994 . S
C3789 C2097 1.967 . S
C3821 C2171 1.637 . S
C3813 C1113 1.683 . S
C3853 C2239 1.604 . S
C3845 C1201 1.665 . S
C3885 C2165 1.211 . S
C3877 C1369 1.220 . S
C3917 C2245 1.487 . S
C3909 C1457 1.481 . S
C3941 C1553 1.354 . S
C3949 C2091 1.340 . S
C3981 C2023 1.797 . S
C3973 C1516 1.798 . S
C4005 C1349 1.618 . S
C4013 C1875 1.635 . S
C4045 C1943 1.504 . S
C4037 C1437 1.505 . S
C4077 C1623 2.093 . S
C4069 C29 2.077 . S
C4101 C117 1.425 . S
C4109 C1697 1.426 . S
C4141 C1783 1.683 . S
C4133 C225 1.629 . S
C4173 C1857 1.227 . S
C4165 C233 1.240 1_556 S
C4205 C1919 1.651 . S
C4197 C20 1.680 . S
C4237 C2005 1.608 . S
C4229 C108 1.574 . S
C4261 C321 2.330 . S
C4269 C1993 2.221 . S
C4293 C409 1.666 . S
C4301 C1845 1.619 . S
C4325 C497 1.961 . S
C4333 C1931 1.925 . S
C4357 C460 1.594 . S
C4365 C1709 1.495 . S
C4397 C1771 1.838 . S
C4389 C284 1.930 . S
C4421 C372 1.837 . S
C4429 C1635 1.837 . S
C4461 C2067 1.939 . S
C4453 C557 1.924 . S
C4485 C665 1.566 . S
C4493 C2141 1.534 . S
C4517 C753 1.584 . S
C4525 C2227 1.614 . S
C4557 C2301 0.804 . S
C4549 C761 0.830 . S
C4581 C548 1.450 . S
C4589 C2363 1.478 . S
C4613 C673 1.283 . S
C4621 C2449 1.298 . S
C4645 C849 1.740 . S
C4653 C2437 1.692 1_565 S
C4677 C929 1.227 . S
C4685 C2289 1.173 . S
C4717 C2375 1.726 . S
C4709 C1017 1.726 . S
C4741 C997 1.511 . S
C4749 C2153 1.415 . S
C4773 C812 1.863 . S
C4781 C2215 1.752 . S
C4813 C2079 1.898 . S
C4805 C909 1.914 . S
C4845 C2511 1.658 . S
C4837 C1085 1.661 . S
C4869 C1173 1.043 . S
C4877 C2585 1.053 . S
C4901 C1261 1.490 . S
C4909 C2671 1.476 . S
C4941 C2745 1.167 . S
C4933 C1252 1.149 . S
C4973 C2807 1.605 . S
C4965 C1076 1.638 . S
C4997 C1164 1.671 . S
C5005 C2893 1.673 . S
C5029 C1377 2.201 . S
C5037 C2881 2.080 . S
C5061 C1465 1.790 . S
C5069 C2733 1.716 . S
C5101 C2819 1.820 . S
C5093 C1545 1.901 . S
C5133 C2597 0.951 . S
C5125 C1525 0.943 . S
C5165 C2659 1.637 . S
C5157 C1340 1.727 . S
C5189 C1428 1.417 . S
C5197 C2523 1.397 . S
