# Generated by pormake.
# Topology zzz, (3,6)-cn, num edge types: 1
# Building blocks:
#     Node 0, Type 0, BuildingBlock: MIDCAF_clean_linker_0, # of connection points: 3
#     Node 1, Type 0, BuildingBlock: MIDCAF_clean_linker_0, # of connection points: 3
#     Node 2, Type 0, BuildingBlock: MIDCAF_clean_linker_0, # of connection points: 3
#     Node 3, Type 0, BuildingBlock: MIDCAF_clean_linker_0, # of connection points: 3
#     Node 4, Type 0, BuildingBlock: MIDCAF_clean_linker_0, # of connection points: 3
#     Node 5, Type 0, BuildingBlock: MIDCAF_clean_linker_0, # of connection points: 3
#     Node 6, Type 0, BuildingBlock: MIDCAF_clean_linker_0, # of connection points: 3
#     Node 7, Type 0, BuildingBlock: MIDCAF_clean_linker_0, # of connection points: 3
#     Node 8, Type 1, BuildingBlock: GEDQOX_clean_sbu_0, # of connection points: 6
#     Node 9, Type 1, BuildingBlock: GEDQOX_clean_sbu_0, # of connection points: 6
#     Node 10, Type 1, BuildingBlock: GEDQOX_clean_sbu_0, # of connection points: 6
#     Node 11, Type 1, BuildingBlock: GEDQOX_clean_sbu_0, # of connection points: 6
#     Edge 12, Type (0, 1), BuildingBlock: MIFKUJ_clean_linker_0, # of connection points: 2
#     Edge 13, Type (0, 1), BuildingBlock: MIFKUJ_clean_linker_0, # of connection points: 2
#     Edge 14, Type (0, 1), BuildingBlock: MIFKUJ_clean_linker_0, # of connection points: 2
#     Edge 15, Type (0, 1), BuildingBlock: MIFKUJ_clean_linker_0, # of connection points: 2
#     Edge 16, Type (0, 1), BuildingBlock: MIFKUJ_clean_linker_0, # of connection points: 2
#     Edge 17, Type (0, 1), BuildingBlock: MIFKUJ_clean_linker_0, # of connection points: 2
#     Edge 18, Type (0, 1), BuildingBlock: MIFKUJ_clean_linker_0, # of connection points: 2
#     Edge 19, Type (0, 1), BuildingBlock: MIFKUJ_clean_linker_0, # of connection points: 2
#     Edge 20, Type (0, 1), BuildingBlock: MIFKUJ_clean_linker_0, # of connection points: 2
#     Edge 21, Type (0, 1), BuildingBlock: MIFKUJ_clean_linker_0, # of connection points: 2
#     Edge 22, Type (0, 1), BuildingBlock: MIFKUJ_clean_linker_0, # of connection points: 2
#     Edge 23, Type (0, 1), BuildingBlock: MIFKUJ_clean_linker_0, # of connection points: 2
#     Edge 24, Type (0, 1), BuildingBlock: MIFKUJ_clean_linker_0, # of connection points: 2
#     Edge 25, Type (0, 1), BuildingBlock: MIFKUJ_clean_linker_0, # of connection points: 2
#     Edge 26, Type (0, 1), BuildingBlock: MIFKUJ_clean_linker_0, # of connection points: 2
#     Edge 27, Type (0, 1), BuildingBlock: MIFKUJ_clean_linker_0, # of connection points: 2
#     Edge 28, Type (0, 1), BuildingBlock: MIFKUJ_clean_linker_0, # of connection points: 2
#     Edge 29, Type (0, 1), BuildingBlock: MIFKUJ_clean_linker_0, # of connection points: 2
#     Edge 30, Type (0, 1), BuildingBlock: MIFKUJ_clean_linker_0, # of connection points: 2
#     Edge 31, Type (0, 1), BuildingBlock: MIFKUJ_clean_linker_0, # of connection points: 2
#     Edge 32, Type (0, 1), BuildingBlock: MIFKUJ_clean_linker_0, # of connection points: 2
#     Edge 33, Type (0, 1), BuildingBlock: MIFKUJ_clean_linker_0, # of connection points: 2
#     Edge 34, Type (0, 1), BuildingBlock: MIFKUJ_clean_linker_0, # of connection points: 2
#     Edge 35, Type (0, 1), BuildingBlock: MIFKUJ_clean_linker_0, # of connection points: 2
# Relax obj value: 0.305
# Max RMSD: 0.255
# Mean RMSD: 0.205
data_MOF--net-zzz--node1-GEDQOX_clean_sbu_0--node2-MIDCAF_clean_linker_0--edge1-MIFKUJ_clean_linker_0
_symmetry_space_group_name_H-M    P1
_symmetry_Int_Tables_number       1
_symmetry_cell_setting            triclinic
loop_
_symmetry_equiv_pos_as_xyz
'x, y, z'
_cell_length_a     77.186669
_cell_length_b     72.271656
_cell_length_c     26.386331
_cell_angle_alpha  83.827581
_cell_angle_beta   91.49066
_cell_angle_gamma 100.97382
loop_
_atom_site_label
_atom_site_type_symbol
_atom_site_fract_x
_atom_site_fract_y
_atom_site_fract_z
_atom_type_partial_charge
C0 C 0.79543 0.4358 0.28168 0.0
C1 C 0.79394 0.45284 0.30089 0.0
C2 C 0.78188 0.46351 0.27746 0.0
C3 C 0.7724 0.45784 0.23395 0.0
H4 H 0.72256 0.45311 0.14948 0.0
H5 H 0.69505 0.46212 0.11812 0.0
H6 H 0.70548 0.44819 0.96816 0.0
H7 H 0.73309 0.43939 0.99909 0.0
H8 H 0.77049 0.4283 0.97769 0.0
H9 H 0.79274 0.42175 0.92143 0.0
H10 H 0.8224 0.40395 0.05283 0.0
H11 H 0.80017 0.41004 0.10867 0.0
H12 H 0.78829 0.41756 0.22283 0.0
H13 H 0.80416 0.42691 0.29958 0.0
H14 H 0.78044 0.47676 0.29097 0.0
H15 H 0.76388 0.46682 0.21523 0.0
N16 N 0.75259 0.44269 0.1443 0.0
N17 N 0.75671 0.43212 0.06502 0.0
N18 N 0.77732 0.42946 0.13076 0.0
C19 C 0.74683 0.43987 0.09598 0.0
C20 C 0.77197 0.42683 0.08228 0.0
C21 C 0.7678 0.43738 0.16193 0.0
C22 C 0.7301 0.44549 0.07689 0.0
C23 C 0.71905 0.45199 0.10977 0.0
C24 C 0.70321 0.45707 0.09189 0.0
C25 C 0.69808 0.45586 0.04067 0.0
C26 C 0.70916 0.44949 0.0077 0.0
C27 C 0.72495 0.44432 0.0256 0.0
C28 C 0.78367 0.41999 0.04775 0.0
C29 C 0.78156 0.42258 0.99452 0.0
C30 C 0.79436 0.41893 0.96226 0.0
C31 C 0.80945 0.4125 0.98259 0.0
C32 C 0.8109 0.40872 0.03573 0.0
C33 C 0.79819 0.41241 0.06787 0.0
C34 C 0.77501 0.44157 0.21275 0.0
C35 C 0.78622 0.43034 0.23788 0.0
C36 C 0.93081 0.75373 0.37407 0.0
C37 C 0.94832 0.75785 0.39179 0.0
C38 C 0.96096 0.7489 0.37185 0.0
C39 C 0.95648 0.7374 0.33207 0.0
H40 H 0.95365 0.68121 0.24773 0.0
H41 H 0.96377 0.65501 0.2129 0.0
H42 H 0.95435 0.6794 0.06032 0.0
H43 H 0.94405 0.70504 0.09444 0.0
H44 H 0.9308 0.74211 0.07385 0.0
H45 H 0.92779 0.77056 0.01892 0.0
H46 H 0.90228 0.79042 0.14073 0.0
H47 H 0.90568 0.76216 0.19625 0.0
H48 H 0.91311 0.74073 0.31895 0.0
H49 H 0.92074 0.76046 0.38798 0.0
H50 H 0.97451 0.75159 0.38511 0.0
H51 H 0.96675 0.7319 0.31473 0.0
N52 N 0.94276 0.71435 0.24356 0.0
N53 N 0.93217 0.7218 0.16089 0.0
N54 N 0.92724 0.73934 0.22644 0.0
C55 C 0.94062 0.71065 0.19382 0.0
C56 C 0.9254 0.73611 0.1769 0.0
C57 C 0.93584 0.72866 0.25998 0.0
C58 C 0.94781 0.69516 0.17406 0.0
C59 C 0.95381 0.68097 0.20678 0.0
C60 C 0.95965 0.666 0.18682 0.0
C61 C 0.95962 0.66495 0.13381 0.0
C62 C 0.95412 0.67945 0.10134 0.0
C63 C 0.94827 0.69427 0.1211 0.0
C64 C 0.91894 0.75015 0.13987 0.0
C65 C 0.92405 0.75224 0.08851 0.0
C66 C 0.92225 0.76856 0.05685 0.0
C67 C 0.91519 0.78296 0.07593 0.0
C68 C 0.90819 0.77977 0.12542 0.0
C69 C 0.91011 0.76356 0.15716 0.0
C70 C 0.93935 0.73486 0.3114 0.0
C71 C 0.92641 0.74242 0.33432 0.0
C72 C 0.70676 0.98304 0.23193 0.0
C73 C 0.71532 0.98717 0.27805 0.0
C74 C 0.73366 0.99397 0.27788 0.0
C75 C 0.74302 0.99769 0.23177 0.0
H76 H 0.79456 1.00169 0.14877 0.0
H77 H 0.8263 0.00729 0.13105 0.0
H78 H 0.81718 0.03715 0.98489 0.0
H79 H 0.7861 0.03213 0.00274 0.0
H80 H 0.75011 0.02864 0.95304 0.0
H81 H 0.73106 0.03663 0.88191 0.0
H82 H 0.6852 0.00924 0.97032 0.0
H83 H 0.70405 1.00104 0.04083 0.0
H84 H 0.70877 0.98378 0.15139 0.0
H85 H 0.69272 0.97738 0.231 0.0
H86 H 0.74059 0.99723 0.31299 0.0
H87 H 0.75697 0.00374 0.23237 0.0
N88 N 0.76087 0.00515 0.13072 0.0
N89 N 0.75774 0.01455 0.04335 0.0
N90 N 0.73271 0.00378 0.09354 0.0
C91 C 0.76832 0.01187 0.08437 0.0
C92 C 0.73997 0.01053 0.04749 0.0
C93 C 0.74293 1.00104 0.13533 0.0
C94 C 0.78772 0.01632 0.07712 0.0
C95 C 0.79944 0.0097 0.11328 0.0
C96 C 0.81758 0.01281 0.103 0.0
C97 C 0.82431 0.02275 0.05664 0.0
C98 C 0.81259 0.02978 0.02141 0.0
C99 C 0.79462 0.02666 0.03152 0.0
C100 C 0.72862 0.01427 0.00286 0.0
C101 C 0.73597 0.02412 0.9571 0.0
C102 C 0.72508 0.02876 0.91636 0.0
C103 C 0.70666 0.0235 0.92041 0.0
C104 C 0.69937 0.01322 0.96562 0.0
C105 C 0.7102 0.00866 0.00632 0.0
C106 C 0.73415 0.99462 0.18526 0.0
C107 C 0.71602 0.9867 0.18625 0.0
C108 C 0.59914 0.72951 0.18763 0.0
C109 C 0.59305 0.73442 0.13823 0.0
C110 C 0.58688 0.75154 0.12807 0.0
C111 C 0.58556 0.76273 0.16725 0.0
H112 H 0.54544 0.79502 0.22944 0.0
H113 H 0.53778 0.82443 0.18969 0.0
H114 H 0.57944 0.85641 0.27531 0.0
H115 H 0.58645 0.82667 0.31682 0.0
H116 H 0.5522 0.75935 0.41422 0.0
H117 H 0.54722 0.73447 0.48576 0.0
H118 H 0.6 0.7242 0.46808 0.0
H119 H 0.60448 0.74828 0.39528 0.0
H120 H 0.60175 0.73595 0.26501 0.0
H121 H 0.6043 0.71661 0.19646 0.0
H122 H 0.58194 0.75568 0.09059 0.0
H123 H 0.57987 0.7753 0.15847 0.0
N124 N 0.57934 0.78308 0.25105 0.0
N125 N 0.57354 0.78282 0.33829 0.0
N126 N 0.58604 0.75867 0.30905 0.0
C127 C 0.57349 0.79127 0.28954 0.0
C128 C 0.57997 0.76646 0.34808 0.0
C129 C 0.58575 0.76686 0.26041 0.0
C130 C 0.56641 0.80868 0.27631 0.0
C131 C 0.55253 0.80837 0.24091 0.0
C132 C 0.54835 0.82523 0.21764 0.0
C133 C 0.55827 0.84285 0.22825 0.0
C134 C 0.57147 0.84313 0.26629 0.0
C135 C 0.57547 0.82614 0.29025 0.0
C136 C 0.57866 0.75559 0.39904 0.0
C137 C 0.56287 0.75211 0.42672 0.0
C138 C 0.56004 0.73781 0.46771 0.0
C139 C 0.57305 0.72693 0.48206 0.0
C140 C 0.58945 0.73181 0.45717 0.0
C141 C 0.59212 0.74577 0.41578 0.0
C142 C 0.59027 0.75699 0.21756 0.0
C143 C 0.59771 0.74064 0.22692 0.0
C144 C 0.23004 0.56991 0.29008 0.0
C145 C 0.23436 0.55376 0.27216 0.0
C146 C 0.24788 0.54558 0.29675 0.0
C147 C 0.25652 0.55308 0.33947 0.0
H148 H 0.30669 0.56657 0.42247 0.0
H149 H 0.33452 0.5594 0.45662 0.0
H150 H 0.31937 0.56839 0.6073 0.0
H151 H 0.29183 0.57622 0.57287 0.0
H152 H 0.25643 0.59186 0.5869 0.0
H153 H 0.23371 0.59826 0.64167 0.0
H154 H 0.19999 0.60462 0.51015 0.0
H155 H 0.22267 0.59883 0.4556 0.0
H156 H 0.23434 0.58927 0.3469 0.0
H157 H 0.21955 0.5764 0.27228 0.0
H158 H 0.25152 0.53316 0.28354 0.0
H159 H 0.2665 0.54613 0.35865 0.0
N160 N 0.27425 0.57139 0.42702 0.0
N161 N 0.26935 0.58393 0.50288 0.0
N162 N 0.24834 0.58297 0.43717 0.0
C163 C 0.27986 0.57606 0.47417 0.0
C164 C 0.25358 0.58752 0.48445 0.0
C165 C 0.2585 0.57491 0.40826 0.0
C166 C 0.29696 0.57195 0.49486 0.0
C167 C 0.3093 0.56707 0.46288 0.0
C168 C 0.32525 0.56285 0.48256 0.0
C169 C 0.32923 0.56322 0.53484 0.0
C170 C 0.31693 0.56824 0.56674 0.0
C171 C 0.30104 0.57262 0.54698 0.0
C172 C 0.24128 0.59447 0.51689 0.0
C173 C 0.24433 0.59506 0.56954 0.0
C174 C 0.23127 0.59866 0.60099 0.0
C175 C 0.21494 0.60178 0.58044 0.0
C176 C 0.21244 0.6025 0.52737 0.0
C177 C 0.22544 0.59893 0.49603 0.0
C178 C 0.25152 0.56866 0.35886 0.0
C179 C 0.23844 0.5772 0.33307 0.0
C180 C 0.09359 0.24677 0.2436 0.0
C181 C 0.07607 0.24349 0.22577 0.0
C182 C 0.06409 0.2536 0.24431 0.0
C183 C 0.06921 0.26561 0.28265 0.0
H184 H 0.07063 0.32139 0.35815 0.0
H185 H 0.06152 0.34918 0.38718 0.0
H186 H 0.08319 0.33605 0.53638 0.0
H187 H 0.09253 0.30895 0.50775 0.0
H188 H 0.09975 0.26933 0.54143 0.0
H189 H 0.10121 0.24291 0.6061 0.0
H190 H 0.11356 0.2098 0.48974 0.0
H191 H 0.11251 0.23616 0.42545 0.0
H192 H 0.11185 0.25963 0.29774 0.0
H193 H 0.10313 0.23913 0.23064 0.0
H194 H 0.05054 0.2515 0.23098 0.0
H195 H 0.05942 0.27216 0.29884 0.0
N196 N 0.08502 0.29058 0.36616 0.0
N197 N 0.09527 0.28441 0.44986 0.0
N198 N 0.09781 0.26384 0.3894 0.0
C199 C 0.08786 0.2957 0.4145 0.0
C200 C 0.10026 0.26847 0.43772 0.0
C201 C 0.09029 0.2747 0.35346 0.0
C202 C 0.08236 0.31286 0.43041 0.0
C203 C 0.07353 0.32453 0.39702 0.0
C204 C 0.06823 0.3404 0.41373 0.0
C205 C 0.07174 0.34495 0.46404 0.0
C206 C 0.08057 0.33326 0.49712 0.0
C207 C 0.08582 0.31752 0.4806 0.0
C208 C 0.10555 0.25469 0.47801 0.0
C209 C 0.1033 0.25663 0.52979 0.0
C210 C 0.10407 0.24147 0.5669 0.0
C211 C 0.10717 0.22417 0.55292 0.0
C212 C 0.1112 0.22295 0.5019 0.0
C213 C 0.11043 0.23806 0.46486 0.0
C214 C 0.08631 0.26746 0.30342 0.0
C215 C 0.0986 0.25852 0.28215 0.0
C216 C 0.29984 0.98754 0.31213 0.0
C217 C 0.29406 0.99914 0.2716 0.0
C218 C 0.28088 0.0094 0.28072 0.0
C219 C 0.27389 0.00832 0.32977 0.0
H220 H 0.22233 0.99129 0.43416 0.0
H221 H 0.19279 0.99047 0.46746 0.0
H222 H 0.21622 0.01642 0.59927 0.0
H223 H 0.24544 0.01679 0.56689 0.0
H224 H 0.27474 0.9862 0.61339 0.0
H225 H 0.29552 0.98042 0.68211 0.0
H226 H 0.33794 0.99089 0.5732 0.0
H227 H 0.31731 0.99661 0.50447 0.0
H228 H 0.29825 0.978 0.3916 0.0
H229 H 0.31012 0.97964 0.30651 0.0
H230 H 0.27616 0.01843 0.25009 0.0
H231 H 0.26404 0.01667 0.33608 0.0
N232 N 0.25844 1.00082 0.43478 0.0
N233 N 0.26565 0.99837 0.52205 0.0
N234 N 0.28625 0.99482 0.46235 0.0
C235 C 0.2539 1.00123 0.4842 0.0
C236 C 0.28182 0.99517 0.51155 0.0
C237 C 0.27472 0.99764 0.42377 0.0
C238 C 0.23617 0.00381 0.49832 0.0
C239 C 0.2211 0.99714 0.46972 0.0
C240 C 0.20421 0.99667 0.48881 0.0
C241 C 0.20218 1.003 0.53657 0.0
C242 C 0.21731 0.01093 0.5631 0.0
C243 C 0.23407 0.01123 0.54437 0.0
C244 C 0.29438 0.99188 0.55339 0.0
C245 C 0.28852 0.98735 0.60409 0.0
C246 C 0.30036 0.98395 0.64344 0.0
C247 C 0.31831 0.98532 0.63293 0.0
C248 C 0.32419 0.98998 0.5824 0.0
C249 C 0.31234 0.99312 0.54301 0.0
C250 C 0.28027 0.99729 0.37062 0.0
C251 C 0.29312 0.98672 0.36102 0.0
C252 C 0.42718 0.27137 0.43849 0.0
C253 C 0.43011 0.26133 0.48561 0.0
C254 C 0.43297 0.24268 0.48651 0.0
C255 C 0.43403 0.2347 0.44099 0.0
H256 H 0.42713 0.1834 0.3563 0.0
H257 H 0.43686 0.15392 0.38283 0.0
H258 H 0.48308 0.17228 0.28807 0.0
H259 H 0.47331 0.20234 0.26216 0.0
H260 H 0.45141 0.23923 0.15941 0.0
H261 H 0.45533 0.26326 0.08514 0.0
H262 H 0.45259 0.30661 0.18369 0.0
H263 H 0.44843 0.28306 0.25647 0.0
H264 H 0.42691 0.27199 0.35739 0.0
H265 H 0.42516 0.28586 0.4364 0.0
H266 H 0.43517 0.23459 0.52231 0.0
H267 H 0.43706 0.22061 0.44297 0.0
N268 N 0.43971 0.22049 0.34563 0.0
N269 N 0.4489 0.22688 0.26009 0.0
N270 N 0.43996 0.25043 0.30263 0.0
C271 C 0.4456 0.21456 0.30328 0.0
C272 C 0.44588 0.24493 0.25961 0.0
C273 C 0.43687 0.23837 0.34573 0.0
C274 C 0.44952 0.19521 0.30747 0.0
C275 C 0.43915 0.18097 0.34003 0.0
C276 C 0.44471 0.16396 0.35504 0.0
C277 C 0.46086 0.1607 0.33798 0.0
C278 C 0.47068 0.17443 0.30243 0.0
C279 C 0.465 0.19154 0.28707 0.0
C280 C 0.44934 0.25909 0.21397 0.0
C281 C 0.45169 0.25391 0.16504 0.0
C282 C 0.45395 0.26767 0.12254 0.0
C283 C 0.45391 0.28683 0.12828 0.0
C284 C 0.45214 0.29195 0.17745 0.0
C285 C 0.44985 0.27834 0.21947 0.0
C286 C 0.43245 0.24531 0.3937 0.0
C287 C 0.42837 0.26347 0.39305 0.0
Nd288 Nd 0.00364 0.99692 0.74918 0.0
Nd289 Nd 0.01815 0.00625 0.84962 0.0
C290 C 0.98835 0.99028 0.66049 0.0
C291 C 0.98222 0.97223 0.63835 0.0
C292 C 0.97474 0.95581 0.66956 0.0
C293 C 0.97102 0.93823 0.65016 0.0
C294 C 0.97478 0.93664 0.5991 0.0
C295 C 0.98187 0.9532 0.56757 0.0
C296 C 0.98556 0.97082 0.58706 0.0
C297 C 0.03441 0.98356 0.77291 0.0
C298 C 0.99533 0.96411 0.84059 0.0
C299 C 0.03178 0.0136 0.93978 0.0
C300 C 0.03444 0.0311 0.9658 0.0
C301 C 0.05145 0.03945 0.98089 0.0
C302 C 0.05437 0.05688 1.00137 0.0
C303 C 0.0403 0.06628 0.00744 0.0
C304 C 0.02321 0.05771 0.99322 0.0
C305 C 0.02031 0.04037 0.97246 0.0
C306 C 0.98781 0.02021 0.8242 0.0
C307 C 0.02892 0.03788 0.75678 0.0
O308 O 0.97971 0.99315 0.70005 0.0
O309 O 0.00543 0.99498 0.66613 0.0
O310 O 0.02062 0.97392 0.7525 0.0
O311 O 0.03146 0.9995 0.78112 0.0
O312 O 0.98906 0.97119 0.79759 0.0
O313 O 0.00871 0.97389 0.86439 0.0
O314 O 0.04147 0.01422 0.89951 0.0
O315 O 0.01547 0.00507 0.93338 0.0
O316 O 0.00191 0.02987 0.84289 0.0
O317 O 0.9903 0.00391 0.8177 0.0
O318 O 0.03465 0.03031 0.79995 0.0
O319 O 0.01486 0.02903 0.7336 0.0
H320 H 0.97224 0.95646 0.70944 0.0
H321 H 0.96581 0.92577 0.67574 0.0
H322 H 0.98474 0.95251 0.52793 0.0
H323 H 0.99147 0.98328 0.56243 0.0
H324 H 0.06256 0.03264 0.97598 0.0
H325 H 0.06766 0.06299 0.01248 0.0
H326 H 0.01211 0.06466 0.99681 0.0
H327 H 0.00704 0.03447 0.96067 0.0
Nd328 Nd 0.52058 0.98987 0.77106 0.0
Nd329 Nd 0.50428 0.02212 0.82025 0.0
C330 C 0.53928 0.96375 0.7585 0.0
C331 C 0.55399 0.96247 0.725 0.0
C332 C 0.56988 0.95856 0.74665 0.0
C333 C 0.58454 0.95917 0.71592 0.0
C334 C 0.58347 0.96339 0.66278 0.0
C335 C 0.56736 0.96663 0.641 0.0
C336 C 0.55281 0.96633 0.67177 0.0
C337 C 0.51289 0.01699 0.69585 0.0
C338 C 0.54477 0.03164 0.79044 0.0
C339 C 0.48252 0.04432 0.84111 0.0
C340 C 0.46502 0.04027 0.86512 0.0
C341 C 0.45331 0.05283 0.85467 0.0
C342 C 0.4364 0.04861 0.87589 0.0
C343 C 0.43092 0.03173 0.90801 0.0
C344 C 0.4427 0.01908 0.91775 0.0
C345 C 0.45954 0.02328 0.89637 0.0
C346 C 0.51955 0.9979 0.88639 0.0
C347 C 0.47903 0.9804 0.80286 0.0
O348 O 0.5431 0.97566 0.79317 0.0
O349 O 0.52382 0.96411 0.73684 0.0
O350 O 0.51948 1.00252 0.68612 0.0
O351 O 0.51078 0.01606 0.7431 0.0
O352 O 0.54392 0.01312 0.79071 0.0
O353 O 0.53074 0.0395 0.79271 0.0
O354 O 0.48303 0.03799 0.79665 0.0
O355 O 0.49582 0.04131 0.87075 0.0
O356 O 0.51975 0.01546 0.89394 0.0
O357 O 0.51043 0.99357 0.84762 0.0
O358 O 0.4808 0.99757 0.8176 0.0
O359 O 0.49211 0.97371 0.78438 0.0
H360 H 0.57109 0.95558 0.78755 0.0
H361 H 0.59675 0.95647 0.73372 0.0
H362 H 0.56619 0.97011 0.60025 0.0
H363 H 0.5408 0.96956 0.65388 0.0
H364 H 0.45721 0.06585 0.82987 0.0
H365 H 0.42758 0.05851 0.86684 0.0
H366 H 0.43906 0.00608 0.94272 0.0
H367 H 0.46831 0.01326 0.90433 0.0
Nd368 Nd 0.49959 0.50935 0.83281 0.0
Nd369 Nd 0.52163 0.49746 0.75324 0.0
C370 C 0.48047 0.52832 0.88114 0.0
C371 C 0.48453 0.54842 0.89159 0.0
C372 C 0.48418 0.56312 0.85217 0.0
C373 C 0.49201 0.58178 0.85906 0.0
C374 C 0.50031 0.58612 0.90549 0.0
C375 C 0.49934 0.57166 0.94611 0.0
C376 C 0.49144 0.55305 0.93931 0.0
C377 C 0.53171 0.50218 0.86711 0.0
C378 C 0.52582 0.54187 0.75601 0.0
C379 C 0.54098 0.4787 0.70509 0.0
C380 C 0.53673 0.45875 0.69338 0.0
C381 C 0.53712 0.44375 0.73194 0.0
C382 C 0.52869 0.42531 0.72463 0.0
C383 C 0.51973 0.42162 0.6788 0.0
C384 C 0.52085 0.43621 0.63864 0.0
C385 C 0.52938 0.45458 0.64573 0.0
C386 C 0.48967 0.50499 0.71862 0.0
C387 C 0.49494 0.46487 0.82898 0.0
O388 O 0.47765 0.52516 0.83341 0.0
O389 O 0.49048 0.51739 0.90483 0.0
O390 O 0.51745 0.49754 0.89417 0.0
O391 O 0.52894 0.51106 0.82487 0.0
O392 O 0.51155 0.5374 0.78478 0.0
O393 O 0.53433 0.52878 0.74394 0.0
O394 O 0.54342 0.48141 0.75325 0.0
O395 O 0.53131 0.48999 0.68131 0.0
O396 O 0.50393 0.50933 0.69153 0.0
O397 O 0.49233 0.49598 0.76078 0.0
O398 O 0.50923 0.46931 0.80026 0.0
O399 O 0.48665 0.47805 0.84178 0.0
H400 H 0.47879 0.56009 0.81501 0.0
H401 H 0.49221 0.59267 0.82736 0.0
H402 H 0.50566 0.57443 0.98236 0.0
H403 H 0.4918 0.54208 0.97052 0.0
H404 H 0.54284 0.44641 0.76898 0.0
H405 H 0.52811 0.41426 0.75607 0.0
H406 H 0.51439 0.43359 0.60245 0.0
H407 H 0.52912 0.46575 0.61501 0.0
Nd408 Nd 0.0025 0.51978 0.75248 0.0
Nd409 Nd 0.02255 0.4901 0.8305 0.0
C410 C 0.98156 0.54258 0.71428 0.0
C411 C 0.96591 0.53821 0.68172 0.0
C412 C 0.95533 0.55166 0.66724 0.0
C413 C 0.94 0.54674 0.63812 0.0
C414 C 0.93515 0.52832 0.62312 0.0
C415 C 0.94585 0.51496 0.63804 0.0
C416 C 0.96105 0.51986 0.66701 0.0
C417 C 0.01193 0.49088 0.70444 0.0
C418 C 0.9801 0.47897 0.80784 0.0
C419 C 0.0435 0.46706 0.86716 0.0
C420 C 0.05981 0.47137 0.89705 0.0
C421 C 0.07081 0.45807 0.90766 0.0
C422 C 0.08688 0.46301 0.93346 0.0
C423 C 0.09216 0.48137 0.9486 0.0
C424 C 0.08089 0.4945 0.93826 0.0
C425 C 0.06494 0.48957 0.91264 0.0
C426 C 0.01379 0.51932 0.87883 0.0
C427 C 0.04497 0.53078 0.77436 0.0
O428 O 0.97982 0.53382 0.76054 0.0
O429 O 0.99667 0.54199 0.69333 0.0
O430 O 0.00399 0.50363 0.68077 0.0
O431 O 0.01402 0.4942 0.74997 0.0
O432 O 0.98019 0.49642 0.7861 0.0
O433 O 0.99459 0.47256 0.82334 0.0
O434 O 0.04452 0.47522 0.82023 0.0
O435 O 0.02894 0.46835 0.89015 0.0
O436 O 0.02151 0.5063 0.90202 0.0
O437 O 0.01124 0.51599 0.83329 0.0
O438 O 0.04483 0.51335 0.79636 0.0
O439 O 0.03049 0.53731 0.75929 0.0
H440 H 0.95884 0.56585 0.6787 0.0
H441 H 0.93202 0.55734 0.62706 0.0
H442 H 0.94231 0.50055 0.62812 0.0
H443 H 0.96892 0.50919 0.67859 0.0
H444 H 0.06711 0.44401 0.89538 0.0
H445 H 0.09532 0.45262 0.94057 0.0
H446 H 0.08436 0.50863 0.95014 0.0
H447 H 0.05667 0.50008 0.90443 0.0
H448 H 0.19392 0.99078 0.63584 0.0
H449 H 0.16529 0.986 0.67685 0.0
H450 H 0.14165 1.00304 0.53373 0.0
H451 H 0.17058 0.00847 0.49239 0.0
H452 H 0.12989 0.0189 0.61195 0.0
H453 H 0.13582 0.95691 0.57738 0.0
H454 H 0.15055 0.9295 0.5771 0.0
H455 H 0.15157 0.9231 0.74077 0.0
H456 H 0.13707 0.95066 0.74203 0.0
H457 H 0.04373 0.9571 0.71777 0.0
H458 H 0.07262 0.95846 0.68021 0.0
H459 H 0.09451 0.0058 0.76352 0.0
H460 H 0.06553 0.00484 0.80018 0.0
H461 H 0.10579 0.9569 0.70864 0.0
H462 H 0.12088 0.03886 0.68495 0.0
H463 H 0.10457 0.06522 0.68159 0.0
H464 H 0.0588 0.03 0.62364 0.0
H465 H 0.07492 0.00355 0.62581 0.0
C466 C 0.1827 0.99377 0.61307 0.0
C467 C 0.18457 1.00014 0.56084 0.0
C468 C 0.1663 0.99083 0.63653 0.0
C469 C 0.15131 0.99397 0.60827 0.0
C470 C 0.15307 1.00048 0.5562 0.0
C471 C 0.16956 1.00345 0.53257 0.0
C472 C 0.13386 0.99039 0.63351 0.0
C473 C 0.1246 0.00534 0.63297 0.0
C474 C 0.12684 0.9726 0.66036 0.0
C475 C 0.13548 0.95595 0.65978 0.0
C476 C 0.1393 0.94975 0.61331 0.0
C477 C 0.14759 0.93417 0.61298 0.0
C478 C 0.15203 0.92459 0.65889 0.0
C479 C 0.14814 0.93055 0.70524 0.0
C480 C 0.13986 0.94613 0.70578 0.0
C481 C 0.0548 0.9675 0.72905 0.0
C482 C 0.05235 0.98108 0.76118 0.0
C483 C 0.0713 0.96827 0.70751 0.0
C484 C 0.08558 0.98256 0.718 0.0
C485 C 0.08354 0.99495 0.75398 0.0
C486 C 0.06703 0.9943 0.77517 0.0
C487 C 0.10205 0.98552 0.6881 0.0
C488 C 0.11109 0.97046 0.68764 0.0
C489 C 0.10868 1.00309 0.65947 0.0
C490 C 0.09909 0.01917 0.65596 0.0
C491 C 0.10738 0.03679 0.67111 0.0
C492 C 0.09816 0.05174 0.66949 0.0
C493 C 0.08065 0.04927 0.65252 0.0
C494 C 0.07235 0.03188 0.63686 0.0
C495 C 0.08153 0.01691 0.63827 0.0
H496 H 0.07353 0.06085 0.65138 0.0
H497 H 0.15844 0.91253 0.65855 0.0
H498 H 0.443 0.12442 0.36442 0.0
H499 H 0.45336 0.09963 0.42039 0.0
H500 H 0.50555 0.13408 0.42099 0.0
H501 H 0.49501 0.15941 0.36742 0.0
H502 H 0.47603 0.0776 0.42221 0.0
H503 H 0.52404 0.12913 0.53815 0.0
H504 H 0.52802 0.16205 0.55997 0.0
H505 H 0.4725 0.16101 0.53898 0.0
H506 H 0.46816 0.12802 0.51775 0.0
H507 H 0.52146 0.02195 0.59554 0.0
H508 H 0.51437 0.04602 0.53013 0.0
H509 H 0.4876 0.06936 0.64255 0.0
H510 H 0.49556 0.04587 0.70841 0.0
H511 H 0.50434 0.09684 0.58422 0.0
H512 H 0.46522 0.03944 0.55298 0.0
H513 H 0.45685 0.00589 0.53703 0.0
H514 H 0.48697 0.01748 0.39887 0.0
H515 H 0.4957 0.05107 0.41435 0.0
C516 C 0.45672 0.12672 0.37622 0.0
C517 C 0.46806 0.14411 0.36212 0.0
C518 C 0.46267 0.11243 0.40796 0.0
C519 C 0.48014 0.11513 0.42604 0.0
C520 C 0.49189 0.13182 0.40856 0.0
C521 C 0.48589 0.14622 0.37725 0.0
C522 C 0.48563 0.10106 0.46571 0.0
C523 C 0.48232 0.08183 0.45749 0.0
C524 C 0.49339 0.10644 0.51249 0.0
C525 C 0.49583 0.1262 0.52578 0.0
C526 C 0.51268 0.13592 0.53835 0.0
C527 C 0.515 0.15459 0.5506 0.0
C528 C 0.50053 0.16364 0.55067 0.0
C529 C 0.4837 0.15401 0.53872 0.0
C530 C 0.48131 0.13534 0.52654 0.0
C531 C 0.5141 0.03227 0.60629 0.0
C532 C 0.50883 0.03191 0.65702 0.0
C533 C 0.50996 0.04596 0.56878 0.0
C534 C 0.50008 0.05932 0.58096 0.0
C535 C 0.49515 0.05919 0.63196 0.0
C536 C 0.49959 0.04569 0.66964 0.0
C537 C 0.49485 0.07335 0.54066 0.0
C538 C 0.4982 0.09259 0.54877 0.0
C539 C 0.48652 0.06789 0.49461 0.0
C540 C 0.48125 0.04772 0.4851 0.0
C541 C 0.47015 0.0348 0.51938 0.0
C542 C 0.46533 0.01579 0.5104 0.0
C543 C 0.47141 0.00955 0.46703 0.0
C544 C 0.48229 0.02233 0.43248 0.0
C545 C 0.48717 0.04136 0.44132 0.0
H546 H 0.46766 0.99482 0.46014 0.0
H547 H 0.50236 0.17809 0.56011 0.0
H548 H 0.34604 0.53558 0.50772 0.0
H549 H 0.37317 0.52684 0.54316 0.0
H550 H 0.37707 0.56946 0.64764 0.0
H551 H 0.35043 0.57907 0.61033 0.0
H552 H 0.40842 0.56948 0.61339 0.0
H553 H 0.36202 0.52192 0.68665 0.0
H554 H 0.33495 0.49744 0.68797 0.0
H555 H 0.36058 0.46417 0.59925 0.0
H556 H 0.38774 0.48858 0.59679 0.0
H557 H 0.45859 0.4972 0.77084 0.0
H558 H 0.43112 0.50816 0.74591 0.0
H559 H 0.45544 0.53668 0.60612 0.0
H560 H 0.48297 0.52618 0.63145 0.0
H561 H 0.40918 0.50185 0.6694 0.0
H562 H 0.44017 0.57646 0.57134 0.0
H563 H 0.46645 0.60133 0.58102 0.0
H564 H 0.47018 0.58135 0.73936 0.0
H565 H 0.44387 0.55646 0.73082 0.0
C566 C 0.35278 0.54334 0.53767 0.0
C567 C 0.34595 0.55803 0.55618 0.0
C568 C 0.36821 0.53814 0.5584 0.0
C569 C 0.37703 0.54725 0.59874 0.0
C570 C 0.37046 0.56214 0.61675 0.0
C571 C 0.35509 0.56748 0.5957 0.0
C572 C 0.39303 0.54113 0.62216 0.0
C573 C 0.40857 0.5547 0.62569 0.0
C574 C 0.39316 0.52192 0.63967 0.0
C575 C 0.37687 0.50716 0.64119 0.0
C576 C 0.36184 0.50944 0.66712 0.0
C577 C 0.34649 0.49557 0.66812 0.0
C578 C 0.34603 0.47927 0.64362 0.0
C579 C 0.36095 0.4768 0.61817 0.0
C580 C 0.37633 0.49064 0.61701 0.0
C581 C 0.45804 0.50584 0.73487 0.0
C582 C 0.47289 0.51091 0.70313 0.0
C583 C 0.44236 0.51206 0.72062 0.0
C584 C 0.44128 0.52345 0.67445 0.0
C585 C 0.45605 0.52822 0.64236 0.0
C586 C 0.47173 0.52209 0.65669 0.0
C587 C 0.42466 0.5301 0.65921 0.0
C588 C 0.40901 0.51664 0.65726 0.0
C589 C 0.42432 0.54947 0.64471 0.0
C590 C 0.44008 0.56452 0.6503 0.0
C591 C 0.44655 0.57742 0.60827 0.0
C592 C 0.46147 0.5915 0.61356 0.0
C593 C 0.46996 0.5929 0.66079 0.0
C594 C 0.4636 0.5802 0.7028 0.0
C595 C 0.44871 0.56609 0.69773 0.0
H596 H 0.48143 0.60388 0.66491 0.0
H597 H 0.33413 0.46855 0.64444 0.0
H598 H 0.04041 0.35736 0.4458 0.0
H599 H 0.03023 0.3828 0.48406 0.0
H600 H 0.07973 0.39501 0.56464 0.0
H601 H 0.09012 0.36995 0.52596 0.0
H602 H 0.05139 0.39135 0.62772 0.0
H603 H 0.07091 0.42459 0.46518 0.0
H604 H 0.07203 0.42961 0.37131 0.0
H605 H 0.01651 0.43033 0.36509 0.0
H606 H 0.01502 0.42505 0.45897 0.0
H607 H 0.04187 0.47661 0.72413 0.0
H608 H 0.05199 0.45221 0.6814 0.0
H609 H 0.0051 0.44675 0.58708 0.0
H610 H 0.99539 0.47168 0.62882 0.0
H611 H 0.03155 0.44634 0.53082 0.0
H612 H 0.01155 0.41309 0.69246 0.0
H613 H 0.01008 0.40836 0.78634 0.0
H614 H 0.06546 0.40703 0.7946 0.0
H615 H 0.06731 0.41199 0.70075 0.0
C616 C 0.04926 0.3657 0.47089 0.0
C617 C 0.06604 0.3615 0.48308 0.0
C618 C 0.04339 0.38017 0.49292 0.0
C619 C 0.05421 0.39075 0.52736 0.0
C620 C 0.0711 0.38691 0.53855 0.0
C621 C 0.07699 0.37254 0.51645 0.0
C622 C 0.0478 0.40545 0.5531 0.0
C623 C 0.04722 0.40349 0.60658 0.0
C624 C 0.04193 0.421 0.5255 0.0
C625 C 0.04282 0.42423 0.46907 0.0
C626 C 0.05891 0.42566 0.44378 0.0
C627 C 0.05962 0.42858 0.39058 0.0
C628 C 0.04434 0.43023 0.36225 0.0
C629 C 0.02833 0.42902 0.38708 0.0
C630 C 0.02755 0.42608 0.44029 0.0
C631 C 0.03359 0.46986 0.69514 0.0
C632 C 0.01768 0.47559 0.68062 0.0
C633 C 0.03939 0.45598 0.67048 0.0
C634 C 0.02913 0.44726 0.63164 0.0
C635 C 0.01324 0.45316 0.61698 0.0
C636 C 0.00765 0.46731 0.64096 0.0
C637 C 0.0351 0.43229 0.60565 0.0
C638 C 0.03561 0.43417 0.55209 0.0
C639 C 0.04076 0.41655 0.6332 0.0
C640 C 0.03959 0.41305 0.68959 0.0
C641 C 0.02342 0.41186 0.71431 0.0
C642 C 0.02252 0.40914 0.76752 0.0
C643 C 0.03767 0.40744 0.79642 0.0
C644 C 0.05374 0.40836 0.77216 0.0
C645 C 0.05472 0.41109 0.71896 0.0
H646 H 0.03696 0.40539 0.83761 0.0
H647 H 0.04491 0.4325 0.32106 0.0
H648 H 0.84555 0.0538 0.00745 0.0
H649 H 0.87413 0.05497 0.96838 0.0
H650 H 0.87469 0.99797 0.03507 0.0
H651 H 0.84571 0.99636 0.07289 0.0
H652 H 0.90916 0.0256 0.03343 0.0
H653 H 0.86059 0.9998 0.92544 0.0
H654 H 0.83223 1.00043 0.88066 0.0
H655 H 0.85468 0.05309 0.79497 0.0
H656 H 0.8831 0.05293 0.83995 0.0
H657 H 0.95578 0.99736 0.81229 0.0
H658 H 0.92784 1.00008 0.85013 0.0
H659 H 0.95233 0.05371 0.90102 0.0
H660 H 0.98027 0.05111 0.86344 0.0
H661 H 0.90527 0.02698 0.84481 0.0
H662 H 0.94067 0.05164 0.02594 0.0
H663 H 0.96959 0.05174 0.0683 0.0
H664 H 0.97358 1.00015 0.0064 0.0
H665 H 0.94458 0.99958 0.96442 0.0
C666 C 0.8518 0.04155 0.01428 0.0
C667 C 0.84317 0.02484 0.04252 0.0
C668 C 0.86818 0.04231 0.99218 0.0
C669 C 0.87636 0.02649 0.99844 0.0
C670 C 0.86853 0.01033 0.02993 0.0
C671 C 0.852 0.00946 0.05165 0.0
C672 C 0.89204 0.02617 0.96775 0.0
C673 C 0.90834 0.02593 0.99225 0.0
C674 C 0.89089 0.02649 0.91404 0.0
C675 C 0.8739 0.02645 0.88641 0.0
C676 C 0.85943 0.01159 0.89736 0.0
C677 C 0.84335 0.01185 0.8719 0.0
C678 C 0.84164 0.02681 0.83508 0.0
C679 C 0.85602 0.04152 0.82354 0.0
C680 C 0.87211 0.04135 0.84899 0.0
C681 C 0.95507 0.00996 0.83035 0.0
C682 C 0.97024 0.02388 0.83565 0.0
C683 C 0.93912 0.0115 0.85191 0.0
C684 C 0.93817 0.02691 0.87917 0.0
C685 C 0.9529 0.04159 0.88071 0.0
C686 C 0.96882 0.0401 0.85908 0.0
C687 C 0.92245 0.02665 0.91035 0.0
C688 C 0.90612 0.02674 0.88597 0.0
C689 C 0.92358 0.02611 0.96416 0.0
C690 C 0.94052 0.02566 0.99176 0.0
C691 C 0.94765 0.04022 0.0218 0.0
C692 C 0.96407 0.04038 0.04565 0.0
C693 C 0.97343 0.02599 0.03994 0.0
C694 C 0.96633 0.01131 0.01073 0.0
C695 C 0.9499 0.01106 0.98692 0.0
H696 H 0.98619 0.02621 0.05816 0.0
H697 H 0.82918 0.02699 0.81541 0.0
H698 H 0.55969 0.87862 0.25794 0.0
H699 H 0.55629 0.90751 0.2039 0.0
H700 H 0.54763 0.87586 0.07297 0.0
H701 H 0.55186 0.84736 0.12579 0.0
H702 H 0.56854 0.90827 0.04775 0.0
H703 H 0.51325 0.88849 0.13795 0.0
H704 H 0.49438 0.87999 0.21411 0.0
H705 H 0.51357 0.93491 0.26372 0.0
H706 H 0.53273 0.94365 0.18811 0.0
H707 H 0.52005 0.96102 0.87494 0.0
H708 H 0.52999 0.93747 0.93679 0.0
H709 H 0.54387 0.97953 0.04256 0.0
H710 H 0.53419 1.00331 0.98028 0.0
H711 H 0.52342 0.94528 0.08593 0.0
H712 H 0.57598 0.96609 0.98853 0.0
H713 H 0.59398 0.9743 0.91064 0.0
H714 H 0.57908 0.91711 0.87265 0.0
H715 H 0.56075 0.90861 0.94994 0.0
C716 C 0.55718 0.87785 0.21759 0.0
C717 C 0.55581 0.86055 0.19649 0.0
C718 C 0.5551 0.89436 0.18677 0.0
C719 C 0.55149 0.89385 0.13436 0.0
C720 C 0.55036 0.87665 0.11325 0.0
C721 C 0.55254 0.86026 0.1438 0.0
C722 C 0.54871 0.91103 0.10104 0.0
C723 C 0.55858 0.91627 0.056 0.0
C724 C 0.53608 0.92186 0.11233 0.0
C725 C 0.52457 0.91663 0.15774 0.0
C726 C 0.51355 0.89869 0.16532 0.0
C727 C 0.50278 0.89385 0.20834 0.0
C728 C 0.50282 0.90688 0.24382 0.0
C729 C 0.51359 0.92481 0.23627 0.0
C730 C 0.52439 0.92972 0.19334 0.0
C731 C 0.52543 0.96532 0.91111 0.0
C732 C 0.52642 0.984 0.92278 0.0
C733 C 0.53111 0.95186 0.94639 0.0
C734 C 0.53775 0.95678 0.99416 0.0
C735 C 0.53881 0.97546 0.00588 0.0
C736 C 0.53333 0.98902 0.97027 0.0
C737 C 0.54293 0.94214 0.03227 0.0
C738 C 0.53353 0.93741 0.07811 0.0
C739 C 0.5559 0.9317 0.02156 0.0
C740 C 0.5669 0.93674 0.97494 0.0
C741 C 0.57642 0.95529 0.96338 0.0
C742 C 0.58671 0.95999 0.91938 0.0
C743 C 0.58769 0.94622 0.88678 0.0
C744 C 0.57834 0.92774 0.89801 0.0
C745 C 0.56801 0.92297 0.94195 0.0
H746 H 0.59571 0.94988 0.85281 0.0
H747 H 0.49447 0.90311 0.2771 0.0
H748 H 0.66594 0.44683 0.0876 0.0
H749 H 0.63801 0.45509 0.05623 0.0
H750 H 0.66381 0.48447 0.91951 0.0
H751 H 0.69191 0.47658 0.95116 0.0
H752 H 0.64178 0.50482 0.95893 0.0
H753 H 0.63873 0.4415 0.9158 0.0
H754 H 0.64015 0.40758 0.93184 0.0
H755 H 0.59788 0.39928 0.03947 0.0
H756 H 0.59639 0.43323 0.02464 0.0
H757 H 0.56313 0.51246 0.81698 0.0
H758 H 0.59168 0.50479 0.84506 0.0
H759 H 0.56769 0.47417 0.98293 0.0
H760 H 0.53912 0.48167 0.95484 0.0
H761 H 0.58912 0.45452 0.94039 0.0
H762 H 0.59248 0.51759 0.9857 0.0
H763 H 0.59067 0.5514 0.9702 0.0
H764 H 0.63207 0.56019 0.85967 0.0
H765 H 0.63394 0.5263 0.87394 0.0
C766 C 0.66571 0.45519 0.05106 0.0
C767 C 0.68114 0.46102 0.02181 0.0
C768 C 0.64971 0.45977 0.033 0.0
C769 C 0.6488 0.47022 0.9853 0.0
C770 C 0.66422 0.47633 0.95634 0.0
C771 C 0.68022 0.47169 0.9743 0.0
C772 C 0.63174 0.47474 0.96567 0.0
C773 C 0.63033 0.49382 0.95415 0.0
C774 C 0.61671 0.46039 0.9605 0.0
C775 C 0.61757 0.43996 0.96948 0.0
C776 C 0.62984 0.43248 0.94322 0.0
C777 C 0.63064 0.41324 0.95203 0.0
C778 C 0.61915 0.40129 0.98675 0.0
C779 C 0.6068 0.40856 0.01264 0.0
C780 C 0.60596 0.4278 0.00402 0.0
C781 C 0.56398 0.50413 0.8533 0.0
C782 C 0.54896 0.49773 0.8839 0.0
C783 C 0.58028 0.49979 0.86935 0.0
C784 C 0.58184 0.48905 0.91631 0.0
C785 C 0.56679 0.48249 0.94659 0.0
C786 C 0.5505 0.48685 0.93062 0.0
C787 C 0.59913 0.48459 0.93393 0.0
C788 C 0.60058 0.46552 0.94504 0.0
C789 C 0.61418 0.49895 0.93886 0.0
C790 C 0.61321 0.51936 0.9305 0.0
C791 C 0.6011 0.52669 0.95779 0.0
C792 C 0.60008 0.54588 0.94928 0.0
C793 C 0.61121 0.55794 0.91387 0.0
C794 C 0.62343 0.55083 0.88702 0.0
C795 C 0.62449 0.53163 0.89533 0.0
H796 H 0.61039 0.57279 0.90734 0.0
H797 H 0.61978 0.38639 0.9935 0.0
H798 H 0.94397 0.64618 0.05516 0.0
H799 H 0.9538 0.62139 0.01424 0.0
H800 H 0.99685 0.62169 0.12193 0.0
H801 H 0.98745 0.64722 0.16203 0.0
H802 H 0.00819 0.62104 0.02781 0.0
H803 H 0.96061 0.58545 0.12933 0.0
H804 H 0.93047 0.57719 0.1641 0.0
H805 H 0.90936 0.56944 0.01406 0.0
H806 H 0.93938 0.57792 0.97824 0.0
H807 H 0.02705 0.53243 0.96697 0.0
H808 H 0.01852 0.55753 0.01069 0.0
H809 H 0.98095 0.56641 0.89097 0.0
H810 H 0.98971 0.54146 0.84683 0.0
H811 H 0.96736 0.56182 0.99342 0.0
H812 H 0.01572 0.59795 0.89294 0.0
H813 H 0.04619 0.60576 0.86038 0.0
H814 H 0.06615 0.61151 0.01241 0.0
H815 H 0.03581 0.60342 0.04603 0.0
C816 C 0.9556 0.64107 0.07011 0.0
C817 C 0.965 0.6488 0.11172 0.0
C818 C 0.96109 0.62671 0.04695 0.0
C819 C 0.97597 0.6195 0.06526 0.0
C820 C 0.9853 0.627 0.1072 0.0
C821 C 0.97983 0.64147 0.13037 0.0
C822 C 0.98197 0.60455 0.03942 0.0
C823 C -0.00066 0.60795 0.02109 0.0
C824 C 0.97034 0.58761 0.02965 0.0
C825 C 0.95225 0.58249 0.05104 0.0
C826 C 0.94954 0.58213 0.10367 0.0
C827 C 0.93247 0.57739 0.12359 0.0
C828 C 0.918 0.57284 0.0913 0.0
C829 C 0.92058 0.57299 0.03902 0.0
C830 C 0.93762 0.57774 0.0189 0.0
C831 C 0.01707 0.53985 0.94977 0.0
C832 C 0.00905 0.53509 0.9033 0.0
C833 C 0.01225 0.55419 0.97472 0.0
C834 C 0.99915 0.56385 0.95396 0.0
C835 C 0.99112 0.55914 0.90752 0.0
C836 C 0.99618 0.54499 0.88214 0.0
C837 C 0.99347 0.57843 0.98168 0.0
C838 C 0.97619 0.57491 1.00038 0.0
C839 C 0.00522 0.59514 0.99218 0.0
C840 C 0.02349 0.59987 0.97208 0.0
C841 C 0.02661 0.60066 0.91952 0.0
C842 C 0.04386 0.60519 0.90085 0.0
C843 C 0.05809 0.60909 0.93432 0.0
C844 C 0.05511 0.60846 0.98654 0.0
C845 C 0.03789 0.60392 0.00542 0.0
H846 H 0.07142 0.61267 0.91981 0.0
H847 H 0.9048 0.56916 0.10679 0.0
H848 H 0.12562 0.19503 0.56704 0.0
H849 H 0.11486 0.16326 0.60979 0.0
H850 H 0.06889 0.18176 0.66049 0.0
H851 H 0.07946 0.21336 0.61808 0.0
H852 H 0.07892 0.15588 0.73054 0.0
H853 H 0.06778 0.16293 0.54937 0.0
H854 H 0.07616 0.17095 0.45895 0.0
H855 H 0.10865 0.12857 0.47255 0.0
H856 H 0.10066 0.1205 0.56329 0.0
H857 H 0.01953 0.06105 0.67541 0.0
H858 H 0.03497 0.09308 0.64494 0.0
H859 H 0.07556 0.08864 0.75864 0.0
H860 H 0.06029 0.05697 0.7895 0.0
H861 H 0.06811 0.1075 0.60739 0.0
H862 H 0.08665 0.131 0.80814 0.0
H863 H 0.07558 0.12277 0.89625 0.0
H864 H 0.02311 0.10497 0.83941 0.0
H865 H 0.03377 0.11338 0.75112 0.0
C866 C 0.11342 0.19241 0.58832 0.0
C867 C 0.10329 0.20663 0.58867 0.0
C868 C 0.10731 0.17428 0.61269 0.0
C869 C 0.09091 0.1701 0.63732 0.0
C870 C 0.08156 0.18469 0.6416 0.0
C871 C 0.08769 0.2028 0.61744 0.0
C872 C 0.08243 0.15025 0.65328 0.0
C873 C 0.07669 0.14526 0.70379 0.0
C874 C 0.07909 0.13655 0.61789 0.0
C875 C 0.08377 0.14126 0.56323 0.0
C876 C 0.0768 0.15542 0.53315 0.0
C877 C 0.08147 0.15996 0.48185 0.0
C878 C 0.09297 0.15031 0.46006 0.0
C879 C 0.09977 0.13606 0.4895 0.0
C880 C 0.09518 0.13149 0.54086 0.0
C881 C 0.03178 0.06688 0.69367 0.0
C882 C 0.03852 0.05661 0.73533 0.0
C883 C 0.0406 0.08512 0.67618 0.0
C884 C 0.05622 0.09328 0.7002 0.0
C885 C 0.06334 0.08272 0.74029 0.0
C886 C 0.05456 0.0646 0.75782 0.0
C887 C 0.06483 0.11308 0.68472 0.0
C888 C 0.07053 0.11807 0.63429 0.0
C889 C 0.06774 0.12688 0.71987 0.0
C890 C 0.06108 0.12258 0.77297 0.0
C891 C 0.07274 0.12542 0.81446 0.0
C892 C 0.06654 0.12066 0.86442 0.0
C893 C 0.0487 0.11314 0.87334 0.0
C894 C 0.03696 0.11062 0.8324 0.0
C895 C 0.04307 0.11538 0.78241 0.0
H896 H 0.0439 0.10947 0.91196 0.0
H897 H 0.09657 0.15384 0.42034 0.0
H898 H 0.31486 0.95526 0.70672 0.0
H899 H 0.33756 0.94714 0.76753 0.0
H900 H 0.37292 0.99857 0.71129 0.0
H901 H 0.35034 0.00675 0.65124 0.0
H902 H 0.36802 0.93962 0.74113 0.0
H903 H 0.40099 0.01495 0.79636 0.0
H904 H 0.39205 0.04264 0.82766 0.0
H905 H 0.34355 0.00782 0.8836 0.0
H906 H 0.35218 0.97987 0.85266 0.0
H907 H 0.45938 0.96276 0.72905 0.0
H908 H 0.42722 0.95406 0.72908 0.0
H909 H 0.4265 0.96386 0.88762 0.0
H910 H 0.45858 0.97349 0.88652 0.0
H911 H 0.40826 0.98464 0.83972 0.0
H912 H 0.40704 0.91956 0.84351 0.0
H913 H 0.41525 0.88986 0.82328 0.0
H914 H 0.39839 0.90034 0.66826 0.0
H915 H 0.39032 0.93025 0.68725 0.0
C916 C 0.32735 0.96502 0.70837 0.0
C917 C 0.33096 0.98154 0.67408 0.0
C918 C 0.34028 0.96036 0.74298 0.0
C919 C 0.35687 0.97231 0.74427 0.0
C920 C 0.36012 0.98928 0.7117 0.0
C921 C 0.3473 0.99384 0.67694 0.0
C922 C 0.37172 0.96616 0.77387 0.0
C923 C 0.37672 0.94925 0.76354 0.0
C924 C 0.3827 0.97837 0.80478 0.0
C925 C 0.3772 0.99531 0.82185 0.0
C926 C 0.38839 0.01318 0.81518 0.0
C927 C 0.38335 0.02895 0.83274 0.0
C928 C 0.3672 0.02701 0.85737 0.0
C929 C 0.356 0.00932 0.86422 0.0
C930 C 0.36093 0.99353 0.84647 0.0
C931 C 0.45236 0.96217 0.7644 0.0
C932 C 0.46129 0.96879 0.80768 0.0
C933 C 0.43395 0.95716 0.76457 0.0
C934 C 0.42434 0.95834 0.8084 0.0
C935 C 0.43356 0.96293 0.8533 0.0
C936 C 0.45188 0.96832 0.85276 0.0
C937 C 0.40518 0.95866 0.80416 0.0
C938 C 0.39937 0.97455 0.81907 0.0
C939 C 0.3933 0.94523 0.77877 0.0
C940 C 0.39809 0.92721 0.76687 0.0
C941 C 0.40517 0.9156 0.80501 0.0
C942 C 0.40979 0.89871 0.79377 0.0
C943 C 0.40734 0.89322 0.74452 0.0
C944 C 0.40025 0.9046 0.70642 0.0
C945 C 0.39561 0.92151 0.71744 0.0
H946 H 0.41093 0.88014 0.73589 0.0
H947 H 0.36341 0.03918 0.87141 0.0
H948 H 0.41046 0.28538 0.51911 0.0
H949 H 0.42085 0.3095 0.57688 0.0
H950 H 0.46693 0.2849 0.61299 0.0
H951 H 0.45669 0.26082 0.55542 0.0
H952 H 0.45641 0.30504 0.69362 0.0
H953 H 0.4699 0.3132 0.51202 0.0
H954 H 0.46117 0.31235 0.42158 0.0
H955 H 0.42835 0.35324 0.43613 0.0
H956 H 0.43666 0.35405 0.527 0.0
H957 H 0.52653 0.38581 0.7032 0.0
H958 H 0.50675 0.35568 0.69115 0.0
H959 H 0.46609 0.38622 0.63458 0.0
H960 H 0.48583 0.41617 0.64568 0.0
H961 H 0.47134 0.36268 0.57081 0.0
H962 H 0.46313 0.35922 0.75022 0.0
H963 H 0.47211 0.35954 0.84031 0.0
H964 H 0.49496 0.31029 0.83242 0.0
H965 H 0.4866 0.30992 0.74161 0.0
C966 C 0.42246 0.2847 0.54085 0.0
C967 C 0.43297 0.27152 0.53186 0.0
C968 C 0.42831 0.29839 0.5741 0.0
C969 C 0.44482 0.29915 0.59829 0.0
C970 C 0.45416 0.28452 0.59465 0.0
C971 C 0.44828 0.27077 0.56155 0.0
C972 C 0.45414 0.31713 0.61612 0.0
C973 C 0.45973 0.3177 0.66705 0.0
C974 C 0.45834 0.33359 0.58125 0.0
C975 C 0.45374 0.33354 0.52633 0.0
C976 C 0.46075 0.32193 0.49596 0.0
C977 C 0.45588 0.32146 0.44465 0.0
C978 C 0.44418 0.3327 0.42315 0.0
C979 C 0.43738 0.34451 0.45287 0.0
C980 C 0.44217 0.34499 0.50427 0.0
C981 C 0.51331 0.38599 0.68862 0.0
C982 C 0.5078 0.40326 0.67434 0.0
C983 C 0.50199 0.36882 0.68213 0.0
C984 C 0.48492 0.36871 0.6621 0.0
C985 C 0.47922 0.38597 0.64983 0.0
C986 C 0.49055 0.40306 0.6558 0.0
C987 C 0.47359 0.35091 0.64884 0.0
C988 C 0.4678 0.35026 0.59813 0.0
C989 C 0.46933 0.3345 0.6841 0.0
C990 C 0.47437 0.33465 0.73881 0.0
C991 C 0.47023 0.34855 0.76745 0.0
C992 C 0.47518 0.34873 0.81874 0.0
C993 C 0.48407 0.33495 0.84217 0.0
C994 C 0.48807 0.32096 0.81424 0.0
C995 C 0.48325 0.32077 0.7628 0.0
H996 H 0.48783 0.33511 0.88195 0.0
H997 H 0.4404 0.3323 0.38344 0.0
H998 H 0.20576 0.5791 0.66882 0.0
H999 H 0.17745 0.57329 0.71196 0.0
H1000 H 0.16059 0.61722 0.60992 0.0
H1001 H 0.18925 0.62364 0.56723 0.0
H1002 H 0.1459 0.61262 0.71304 0.0
H1003 H 0.15167 0.57686 0.57263 0.0
H1004 H 0.16642 0.55719 0.5236 0.0
H1005 H 0.16142 0.51401 0.65039 0.0
H1006 H 0.14694 0.53362 0.70055 0.0
H1007 H 0.05304 0.56563 0.71761 0.0
H1008 H 0.0826 0.58335 0.69375 0.0
H1009 H 0.10597 0.54118 0.78465 0.0
H1010 H 0.07683 0.52357 0.80891 0.0
H1011 H 0.11663 0.54729 0.68329 0.0
H1012 H 0.11041 0.5829 0.82348 0.0
H1013 H 0.09556 0.60249 0.87234 0.0
H1014 H 0.1004 0.6456 0.74542 0.0
H1015 H 0.11512 0.62612 0.69551 0.0
C1016 C 0.19639 0.58812 0.65675 0.0
C1017 C 0.19969 0.60164 0.61394 0.0
C1018 C 0.18014 0.58469 0.68138 0.0
C1019 C 0.16685 0.5946 0.6635 0.0
C1020 C 0.17067 0.60938 0.62413 0.0
C1021 C 0.18698 0.61288 0.59947 0.0
C1022 C 0.1484 0.58728 0.67993 0.0
C1023 C 0.13938 0.59843 0.70612 0.0
C1024 C 0.13996 0.56876 0.67086 0.0
C1025 C 0.14838 0.55679 0.6405 0.0
C1026 C 0.15384 0.56324 0.59019 0.0
C1027 C 0.16214 0.5521 0.56219 0.0
C1028 C 0.16489 0.53438 0.58391 0.0
C1029 C 0.15931 0.52775 0.63364 0.0
C1030 C 0.15105 0.53887 0.66188 0.0
C1031 C 0.06448 0.56031 0.73318 0.0
C1032 C 0.06252 0.54301 0.7645 0.0
C1033 C 0.08134 0.57047 0.71961 0.0
C1034 C 0.09642 0.56347 0.73724 0.0
C1035 C 0.09448 0.54674 0.7704 0.0
C1036 C 0.07775 0.53667 0.78409 0.0
C1037 C 0.11419 0.57237 0.7177 0.0
C1038 C 0.12307 0.56151 0.69028 0.0
C1039 C 0.12234 0.59112 0.72552 0.0
C1040 C 0.11368 0.60295 0.75555 0.0
C1041 C 0.10817 0.59648 0.80581 0.0
C1042 C 0.0998 0.60758 0.83374 0.0
C1043 C 0.09696 0.62525 0.81194 0.0
C1044 C 0.10257 0.63189 0.76223 0.0
C1045 C 0.11095 0.62083 0.73411 0.0
H1046 H 0.09046 0.63382 0.83361 0.0
H1047 H 0.17132 0.52577 0.56216 0.0
H1048 H 0.92641 0.81639 0.11538 0.0
H1049 H 0.9361 0.8474 0.0694 0.0
H1050 H 0.92091 0.82443 0.92698 0.0
H1051 H 0.91119 0.79298 0.97324 0.0
H1052 H 0.95338 0.84346 0.9218 0.0
H1053 H 0.89921 0.85708 0.97315 0.0
H1054 H 0.87502 0.85836 0.03107 0.0
H1055 H 0.91088 0.89455 0.12148 0.0
H1056 H 0.93537 0.89327 0.06454 0.0
H1057 H 0.97568 0.93651 0.78997 0.0
H1058 H 0.95952 0.90575 0.82594 0.0
H1059 H 0.97915 0.91771 0.97581 0.0
H1060 H 0.99551 0.94867 0.93991 0.0
H1061 H 0.94174 0.90454 0.96925 0.0
H1062 H 0.99617 0.88767 0.92042 0.0
H1063 H 0.01984 0.88645 0.86057 0.0
H1064 H 0.9819 0.85662 0.76168 0.0
H1065 H 0.95795 0.85785 0.82077 0.0
C1066 C 0.92453 0.81798 0.07443 0.0
C1067 C 0.91793 0.80221 0.04798 0.0
C1068 C 0.93014 0.83578 0.0481 0.0
C1069 C 0.9291 0.83831 0.99474 0.0
C1070 C 0.92182 0.82278 0.9682 0.0
C1071 C 0.91627 0.80486 0.99462 0.0
C1072 C 0.93732 0.8567 0.96709 0.0
C1073 C 0.95052 0.8568 0.93135 0.0
C1074 C 0.93386 0.87413 0.98025 0.0
C1075 C 0.91917 0.87497 0.01469 0.0
C1076 C 0.90198 0.8652 0.0056 0.0
C1077 C 0.8882 0.86594 0.03823 0.0
C1078 C 0.89142 0.8765 0.07998 0.0
C1079 C 0.90841 0.88637 0.08913 0.0
C1080 C 0.92224 0.88566 0.05663 0.0
C1081 C 0.97664 0.93259 0.83057 0.0
C1082 C 0.98681 0.945 0.86223 0.0
C1083 C 0.96743 0.91499 0.85097 0.0
C1084 C 0.96816 0.90953 0.90342 0.0
C1085 C 0.97844 0.92177 0.93518 0.0
C1086 C 0.98785 0.93934 0.91464 0.0
C1087 C 0.9579 0.89115 0.9251 0.0
C1088 C 0.94436 0.89114 0.95947 0.0
C1089 C 0.96089 0.87381 0.91029 0.0
C1090 C 0.97526 0.87302 0.87477 0.0
C1091 C 0.99285 0.88099 0.88571 0.0
C1092 C 0.00632 0.88026 0.85199 0.0
C1093 C 0.00237 0.87149 0.80733 0.0
C1094 C 0.98494 0.86341 0.7963 0.0
C1095 C 0.97142 0.8641 0.82992 0.0
H1096 H 0.01284 0.8709 0.7814 0.0
H1097 H 0.88073 0.87706 0.10519 0.0
H1098 H 0.70972 0.05848 0.86614 0.0
H1099 H 0.68683 0.07049 0.81361 0.0
H1100 H 0.65373 0.01494 0.83254 0.0
H1101 H 0.67674 1.00275 0.88303 0.0
H1102 H 0.64674 0.03295 0.74302 0.0
H1103 H 0.65411 0.04715 0.92201 0.0
H1104 H 0.6714 0.06179 0.99228 0.0
H1105 H 0.67808 0.11629 0.90473 0.0
H1106 H 0.66097 0.10187 0.83374 0.0
H1107 H 0.56669 0.0328 0.87075 0.0
H1108 H 0.59844 0.04482 0.86905 0.0
H1109 H 0.59446 0.06773 0.71212 0.0
H1110 H 0.56241 0.05558 0.71404 0.0
H1111 H 0.62407 0.0773 0.84409 0.0
H1112 H 0.62343 0.05187 0.6526 0.0
H1113 H 0.60132 0.03489 0.59593 0.0
H1114 H 0.57748 0.99859 0.72459 0.0
H1115 H 0.59948 0.01503 0.78179 0.0
C1116 C 0.69783 0.04868 0.85743 0.0
C1117 C 0.69482 0.02976 0.87965 0.0
C1118 C 0.68474 0.05558 0.82756 0.0
C1119 C 0.66843 0.04372 0.82009 0.0
C1120 C 0.66617 0.0244 0.83794 0.0
C1121 C 0.67925 0.01748 0.86738 0.0
C1122 C 0.65267 0.05157 0.80236 0.0
C1123 C 0.64206 0.04316 0.76389 0.0
C1124 C 0.6464 0.06477 0.8298 0.0
C1125 C 0.65648 0.07344 0.87251 0.0
C1126 C 0.65934 0.06224 0.91777 0.0
C1127 C 0.6691 0.07048 0.95767 0.0
C1128 C 0.67588 0.08995 0.95292 0.0
C1129 C 0.67286 0.10121 0.9083 0.0
C1130 C 0.66314 0.09302 0.86822 0.0
C1131 C 0.57253 0.0411 0.83665 0.0
C1132 C 0.56235 0.04337 0.79258 0.0
C1133 C 0.59063 0.04807 0.83572 0.0
C1134 C 0.59881 0.05707 0.79036 0.0
C1135 C 0.58836 0.06086 0.74748 0.0
C1136 C 0.57013 0.05395 0.74856 0.0
C1137 C 0.61808 0.05827 0.78602 0.0
C1138 C 0.62928 0.0682 0.82063 0.0
C1139 C 0.62475 0.04614 0.75603 0.0
C1140 C 0.61311 0.03459 0.72122 0.0
C1141 C 0.61372 0.03994 0.66849 0.0
C1142 C 0.60124 0.03038 0.63631 0.0
C1143 C 0.58826 0.01539 0.65643 0.0
C1144 C 0.58776 0.00986 0.70881 0.0
C1145 C 0.60024 0.01926 0.74113 0.0
H1146 H 0.57846 0.00825 0.63149 0.0
H1147 H 0.68343 0.09631 0.98384 0.0
H1148 H 0.59882 0.74121 0.03457 0.0
H1149 H 0.58978 0.71883 0.97084 0.0
H1150 H 0.57242 0.67435 0.09131 0.0
H1151 H 0.58133 0.69635 0.15449 0.0
H1152 H 0.58636 0.66033 0.01694 0.0
H1153 H 0.54424 0.70306 0.03033 0.0
H1154 H 0.53613 0.73468 0.02216 0.0
H1155 H 0.55129 0.74326 0.86466 0.0
H1156 H 0.5597 0.71176 0.87218 0.0
H1157 H 0.50308 0.60647 0.98784 0.0
H1158 H 0.52488 0.63475 1.00156 0.0
H1159 H 0.5441 0.63739 0.84855 0.0
H1160 H 0.52281 0.60848 0.83507 0.0
H1161 H 0.53615 0.67508 0.90884 0.0
H1162 H 0.57191 0.6273 0.89555 0.0
H1163 H 0.57746 0.59461 0.90958 0.0
H1164 H 0.57267 0.59506 0.07119 0.0
H1165 H 0.56684 0.62765 0.05803 0.0
C1166 C 0.59333 0.72657 0.04736 0.0
C1167 C 0.59072 0.7206 0.09964 0.0
C1168 C 0.5882 0.71381 0.01093 0.0
C1169 C 0.58022 0.69497 0.02628 0.0
C1170 C 0.57864 0.68878 0.07848 0.0
C1171 C 0.58381 0.70142 0.11472 0.0
C1172 C 0.5717 0.68196 0.98923 0.0
C1173 C 0.57561 0.66369 0.99252 0.0
C1174 C 0.55788 0.68639 0.95644 0.0
C1175 C 0.55276 0.70521 0.95194 0.0
C1176 C 0.54592 0.71175 0.99406 0.0
C1177 C 0.54127 0.72964 0.98955 0.0
C1178 C 0.54324 0.74099 0.94295 0.0
C1179 C 0.54982 0.73447 0.90074 0.0
C1180 C 0.55453 0.71661 0.9051 0.0
C1181 C 0.51185 0.61308 0.95695 0.0
C1182 C 0.51132 0.60507 0.91058 0.0
C1183 C 0.52421 0.62929 0.96474 0.0
C1184 C 0.53612 0.63794 0.92619 0.0
C1185 C 0.53498 0.63081 0.87868 0.0
C1186 C 0.52272 0.61439 0.87101 0.0
C1187 C 0.55047 0.65345 0.93837 0.0
C1188 C 0.54753 0.67207 0.93094 0.0
C1189 C 0.56512 0.64935 0.96756 0.0
C1190 C 0.56882 0.62984 0.97575 0.0
C1191 C 0.57189 0.62036 0.93403 0.0
C1192 C 0.57512 0.60186 0.94183 0.0
C1193 C 0.57538 0.59275 0.99124 0.0
C1194 C 0.57246 0.60214 0.03295 0.0
C1195 C 0.56922 0.62062 0.02534 0.0
H1196 H 0.57786 0.57844 0.99724 0.0
H1197 H 0.53963 0.75483 0.93952 0.0
H1198 H 0.82289 0.43818 0.90327 0.0
H1199 H 0.85101 0.44087 0.8609 0.0
H1200 H 0.85916 0.38881 0.94608 0.0
H1201 H 0.83081 0.38593 0.98862 0.0
H1202 H 0.88602 0.41693 0.95851 0.0
H1203 H 0.85587 0.39187 0.8137 0.0
H1204 H 0.83313 0.38834 0.7462 0.0
H1205 H 0.85053 0.44643 0.68682 0.0
H1206 H 0.87323 0.45038 0.75439 0.0
H1207 H 0.97246 0.44232 0.85426 0.0
H1208 H 0.94315 0.4229 0.87185 0.0
H1209 H 0.91902 0.46789 0.7977 0.0
H1210 H 0.94794 0.48703 0.77883 0.0
H1211 H 0.90084 0.43507 0.77592 0.0
H1212 H 0.92555 0.4619 0.92944 0.0
H1213 H 0.94774 0.4671 0.99799 0.0
H1214 H 0.93958 0.40715 0.04234 0.0
H1215 H 0.91747 0.4016 0.97359 0.0
C1216 C 0.83031 0.42691 0.91172 0.0
C1217 C 0.82464 0.4119 0.94965 0.0
C1218 C 0.84645 0.42847 0.88738 0.0
C1219 C 0.8572 0.415 0.90013 0.0
C1220 C 0.85109 0.39938 0.93568 0.0
C1221 C 0.83492 0.3978 0.96008 0.0
C1222 C 0.8757 0.41882 0.88181 0.0
C1223 C 0.88928 0.42035 0.91842 0.0
C1224 C 0.87997 0.42368 0.82966 0.0
C1225 C 0.86627 0.42141 0.78909 0.0
C1226 C 0.85479 0.40392 0.7864 0.0
C1227 C 0.84192 0.40184 0.7481 0.0
C1228 C 0.8404 0.41715 0.7122 0.0
C1229 C 0.85175 0.43457 0.71456 0.0
C1230 C 0.86465 0.43673 0.75277 0.0
C1231 C 0.96091 0.44799 0.84125 0.0
C1232 C 0.96261 0.46637 0.81584 0.0
C1233 C 0.94416 0.43687 0.85138 0.0
C1234 C 0.92887 0.44404 0.83672 0.0
C1235 C 0.9306 0.46203 0.8094 0.0
C1236 C 0.94723 0.47305 0.79903 0.0
C1237 C 0.91102 0.43371 0.85279 0.0
C1238 C 0.89758 0.43104 0.81583 0.0
C1239 C 0.90681 0.42799 0.90472 0.0
C1240 C 0.92006 0.43132 0.94603 0.0
C1241 C 0.92859 0.44983 0.9536 0.0
C1242 C 0.94113 0.45284 0.9925 0.0
C1243 C 0.94511 0.43746 0.02438 0.0
C1244 C 0.93652 0.41904 0.01752 0.0
C1245 C 0.92399 0.41596 0.97861 0.0
H1246 H 0.95482 0.43981 0.05449 0.0
H1247 H 0.83043 0.41551 0.68258 0.0
H1248 H 0.04607 0.21641 0.23627 0.0
H1249 H 0.03874 0.18752 0.19359 0.0
H1250 H 0.08553 0.20537 0.10169 0.0
H1251 H 0.09276 0.23456 0.14352 0.0
H1252 H 0.05754 0.18764 0.0469 0.0
H1253 H 0.08671 0.17572 0.20639 0.0
H1254 H 0.09155 0.17569 0.29914 0.0
H1255 H 0.04067 0.1402 0.32651 0.0
H1256 H 0.03541 0.14026 0.23384 0.0
H1257 H 0.0672 0.09648 0.98386 0.0
H1258 H 0.07198 0.12761 0.01586 0.0
H1259 H 0.02522 0.10996 0.10799 0.0
H1260 H 0.02045 0.07873 0.07652 0.0
H1261 H 0.05308 0.12781 0.1615 0.0
H1262 H 0.02401 0.13986 1.00135 0.0
H1263 H 0.0193 0.14027 0.90845 0.0
H1264 H 0.0706 0.17497 0.88234 0.0
H1265 H 0.07565 0.17471 0.97517 0.0
C1266 C 0.05454 0.21448 0.20596 0.0
C1267 C 0.07006 0.22777 0.19349 0.0
C1268 C 0.05043 0.19784 0.18197 0.0
C1269 C 0.06176 0.19412 0.14512 0.0
C1270 C 0.07665 0.20789 0.13024 0.0
C1271 C 0.08081 0.22453 0.15433 0.0
C1272 C 0.0587 0.17537 0.12469 0.0
C1273 C 0.05675 0.17456 0.07188 0.0
C1274 C 0.05743 0.15828 0.15736 0.0
C1275 C 0.06058 0.15818 0.21314 0.0
C1276 C 0.07648 0.16805 0.23217 0.0
C1277 C 0.07932 0.168 0.28473 0.0
C1278 C 0.0664 0.158 0.31869 0.0
C1279 C 0.05065 0.14798 0.30015 0.0
C1280 C 0.04774 0.148 0.24761 0.0
C1281 C 0.05801 0.09917 0.01125 0.0
C1282 C 0.04343 0.08511 0.02759 0.0
C1283 C 0.06066 0.11704 0.0291 0.0
C1284 C 0.04886 0.12119 0.06396 0.0
C1285 C 0.03444 0.10711 0.08092 0.0
C1286 C 0.03169 0.0893 0.0627 0.0
C1287 C 0.05176 0.14004 0.08373 0.0
C1288 C 0.05378 0.14087 0.1365 0.0
C1289 C 0.05317 0.15712 0.051 0.0
C1290 C 0.05026 0.15715 0.9952 0.0
C1291 C 0.03433 0.14749 0.9758 0.0
C1292 C 0.03156 0.14778 0.92317 0.0
C1293 C 0.04462 0.1577 0.88953 0.0
C1294 C 0.06048 0.16735 0.90846 0.0
C1295 C 0.06328 0.16717 0.96107 0.0
H1296 H 0.04249 0.15782 0.8488 0.0
H1297 H 0.06861 0.15798 0.35937 0.0
H1298 H 0.307 0.03204 0.21245 0.0
H1299 H 0.32591 0.0359 0.13764 0.0
H1300 H 0.3201 0.97514 0.14273 0.0
H1301 H 0.30145 0.97128 0.2181 0.0
H1302 H 0.35326 0.99042 0.13915 0.0
H1303 H 0.30273 1.00254 0.04325 0.0
H1304 H 0.27704 0.01748 0.02026 0.0
H1305 H 0.31108 0.07196 0.99551 0.0
H1306 H 0.33697 0.0574 0.01906 0.0
H1307 H 0.40829 0.99743 0.92547 0.0
H1308 H 0.38087 0.99037 0.97406 0.0
H1309 H 0.38605 0.04951 0.99519 0.0
H1310 H 0.41355 0.0567 0.94721 0.0
H1311 H 0.35124 0.03248 0.97847 0.0
H1312 H 0.40075 0.02055 0.08555 0.0
H1313 H 0.42652 0.0057 0.10841 0.0
H1314 H 0.39367 0.95049 0.11181 0.0
H1315 H 0.36774 0.96504 0.08825 0.0
C1316 C 0.30937 0.01951 0.19675 0.0
C1317 C 0.30282 1.00136 0.22126 0.0
C1318 C 0.32018 0.02171 0.1539 0.0
C1319 C 0.32443 0.0058 0.13428 0.0
C1320 C 0.3171 0.98764 0.1572 0.0
C1321 C 0.30644 0.98544 0.20026 0.0
C1322 C 0.33793 0.00813 0.09364 0.0
C1323 C 0.35255 0.99929 0.10355 0.0
C1324 C 0.33732 0.02005 0.04758 0.0
C1325 C 0.32178 0.02888 0.03334 0.0
C1326 C 0.30473 0.01773 0.03331 0.0
C1327 C 0.29013 0.02613 0.02009 0.0
C1328 C 0.29242 0.04566 0.00653 0.0
C1329 C 0.30933 0.05683 0.00605 0.0
C1330 C 0.32397 0.04851 0.01927 0.0
C1331 C 0.40361 0.00896 0.94039 0.0
C1332 C 0.4133 0.02762 0.93296 0.0
C1333 C 0.38787 0.0049 0.96787 0.0
C1334 C 0.38155 0.01939 0.98881 0.0
C1335 C 0.39067 0.03813 0.97926 0.0
C1336 C 0.40641 0.04221 0.95176 0.0
C1337 C 0.36643 0.01487 0.0245 0.0
C1338 C 0.35165 0.02336 0.01377 0.0
C1339 C 0.36683 1.00262 0.06991 0.0
C1340 C 0.38236 0.99387 0.08461 0.0
C1341 C 0.39906 0.00525 0.09083 0.0
C1342 C 0.41368 0.99688 0.10395 0.0
C1343 C 0.41174 0.97716 0.11142 0.0
C1344 C 0.39516 0.96576 0.10593 0.0
C1345 C 0.38049 0.97406 0.09271 0.0
H1346 H 0.42308 0.97071 0.12157 0.0
H1347 H 0.2811 0.05214 0.99631 0.0
H1348 H 0.47593 0.29161 0.0453 0.0
H1349 H 0.48109 0.31857 0.97905 0.0
H1350 H 0.44158 0.34303 0.0466 0.0
H1351 H 0.43577 0.31585 0.1108 0.0
H1352 H 0.44004 0.35013 0.94752 0.0
H1353 H 0.48735 0.35497 0.07421 0.0
H1354 H 0.51196 0.34408 0.12265 0.0
H1355 H 0.53912 0.34351 0.983 0.0
H1356 H 0.51457 0.3542 0.93372 0.0
H1357 H 0.4675 0.44978 0.8943 0.0
H1358 H 0.45893 0.4168 0.93079 0.0
H1359 H 0.49943 0.40125 0.8435 0.0
H1360 H 0.50822 0.43416 0.8076 0.0
H1361 H 0.5011 0.38736 0.94018 0.0
H1362 H 0.45619 0.38715 0.81423 0.0
H1363 H 0.43193 0.39818 0.76466 0.0
H1364 H 0.40049 0.39025 0.89992 0.0
H1365 H 0.42465 0.37936 0.95053 0.0
C1366 C 0.46808 0.30252 0.04528 0.0
C1367 C 0.45569 0.30174 0.08403 0.0
C1368 C 0.47115 0.31803 0.00767 0.0
C1369 C 0.46203 0.33312 0.00848 0.0
C1370 C 0.4489 0.33172 0.04524 0.0
C1371 C 0.44574 0.31622 0.08238 0.0
C1372 C 0.46681 0.35101 0.9739 0.0
C1373 C 0.45337 0.35833 0.94617 0.0
C1374 C 0.4843 0.36151 0.9707 0.0
C1375 C 0.49905 0.35514 1.00031 0.0
C1376 C 0.49853 0.35239 0.05386 0.0
C1377 C 0.51247 0.34628 0.08145 0.0
C1378 C 0.52707 0.34304 0.05591 0.0
C1379 C 0.52778 0.34597 0.00272 0.0
C1380 C 0.51387 0.35206 0.97495 0.0
C1381 C 0.47446 0.43932 0.88244 0.0
C1382 C 0.48862 0.44468 0.84814 0.0
C1383 C 0.46949 0.42043 0.90317 0.0
C1384 C 0.47849 0.40649 0.88977 0.0
C1385 C 0.49232 0.41173 0.85458 0.0
C1386 C 0.49731 0.43059 0.83396 0.0
C1387 C 0.47424 0.38675 0.91503 0.0
C1388 C 0.48779 0.3791 0.94097 0.0
C1389 C 0.45687 0.37599 0.91654 0.0
C1390 C 0.4423 0.38257 0.88629 0.0
C1391 C 0.44416 0.38788 0.83354 0.0
C1392 C 0.43041 0.39409 0.80521 0.0
C1393 C 0.41469 0.39496 0.82914 0.0
C1394 C 0.41268 0.38958 0.88145 0.0
C1395 C 0.42639 0.38336 0.90996 0.0
H1396 H 0.40406 0.39977 0.80715 0.0
H1397 H 0.53785 0.33831 0.07734 0.0
H1398 H 0.22461 0.57099 0.1815 0.0
H1399 H 0.20316 0.55708 0.11975 0.0
H1400 H 0.19803 0.50255 0.20821 0.0
H1401 H 0.21972 0.51636 0.26969 0.0
H1402 H 0.1958 0.49854 0.10747 0.0
H1403 H 0.16917 0.53127 0.22375 0.0
H1404 H 0.16606 0.55837 0.26986 0.0
H1405 H 0.15953 0.59142 0.12785 0.0
H1406 H 0.16288 0.5646 0.08082 0.0
H1407 H 0.10763 0.46075 0.02432 0.0
H1408 H 0.13458 0.47151 0.0725 0.0
H1409 H 0.14215 0.52565 0.98149 0.0
H1410 H 0.1155 0.51495 0.93276 0.0
H1411 H 0.14346 0.52922 0.08317 0.0
H1412 H 0.16899 0.49506 0.96735 0.0
H1413 H 0.17156 0.46725 0.92354 0.0
H1414 H 0.17904 0.43583 0.06744 0.0
H1415 H 0.17626 0.46338 0.1122 0.0
C1416 C 0.2191 0.55598 0.18732 0.0
C1417 C 0.22369 0.54479 0.23063 0.0
C1418 C 0.20684 0.54805 0.15209 0.0
C1419 C 0.1987 0.52886 0.15997 0.0
C1420 C 0.2041 0.51739 0.20145 0.0
C1421 C 0.21651 0.52529 0.2365 0.0
C1422 C 0.18362 0.5212 0.12737 0.0
C1423 C 0.18428 0.50512 0.1025 0.0
C1424 C 0.16863 0.52988 0.12056 0.0
C1425 C 0.16646 0.54599 0.14875 0.0
C1426 C 0.1672 0.54436 0.20234 0.0
C1427 C 0.16538 0.55966 0.22864 0.0
C1428 C 0.16264 0.57662 0.20179 0.0
C1429 C 0.16167 0.57829 0.14858 0.0
C1430 C 0.16353 0.56304 0.12209 0.0
C1431 C 0.11523 0.47481 0.01393 0.0
C1432 C 0.1093 0.48706 0.97505 0.0
C1433 C 0.13061 0.48095 0.04155 0.0
C1434 C 0.14036 0.49939 0.03059 0.0
C1435 C 0.13477 0.51141 0.99078 0.0
C1436 C 0.11947 0.50529 0.96315 0.0
C1437 C 0.15571 0.5067 0.06262 0.0
C1438 C 0.15502 0.52268 0.0878 0.0
C1439 C 0.17053 0.49779 0.06999 0.0
C1440 C 0.17224 0.48123 0.04316 0.0
C1441 C 0.17103 0.48217 0.98969 0.0
C1442 C 0.17256 0.46646 0.96468 0.0
C1443 C 0.17542 0.44976 0.9927 0.0
C1444 C 0.1768 0.44876 0.04579 0.0
C1445 C 0.17527 0.46442 0.071 0.0
H1446 H 0.1766 0.43762 0.97326 0.0
H1447 H 0.16123 0.58845 0.22222 0.0
H1448 H 0.93035 0.76541 0.47343 0.0
H1449 H 0.93581 0.7945 0.5157 0.0
H1450 H 0.98331 0.8147 0.42819 0.0
H1451 H 0.97781 0.78586 0.38504 0.0
H1452 H 0.98686 0.82419 0.52849 0.0
H1453 H 0.94674 0.8281 0.38637 0.0
H1454 H 0.92006 0.81728 0.33607 0.0
H1455 H 0.8874 0.8214 0.46212 0.0
H1456 H 0.91392 0.83196 0.51348 0.0
H1457 H 0.99649 0.92327 0.5372 0.0
H1458 H 0.99257 0.89172 0.50825 0.0
H1459 H 0.94335 0.87524 0.58955 0.0
H1460 H 0.94693 0.90697 0.61747 0.0
H1461 H 0.94039 0.86307 0.49638 0.0
H1462 H 0.98037 0.86104 0.63721 0.0
H1463 H 0.00697 0.87208 0.68738 0.0
H1464 H 0.03982 0.86436 0.56551 0.0
H1465 H 0.01339 0.85366 0.51401 0.0
C1466 C 0.94209 0.77592 0.46363 0.0
C1467 C 0.95352 0.77335 0.42535 0.0
C1468 C 0.9452 0.79253 0.4879 0.0
C1469 C 0.9598 0.8069 0.47443 0.0
C1470 C 0.97194 0.8038 0.4391 0.0
C1471 C 0.96882 0.78722 0.41465 0.0
C1472 C 0.96157 0.82575 0.49373 0.0
C1473 C 0.97679 0.83278 0.52115 0.0
C1474 C 0.94827 0.8368 0.48491 0.0
C1475 C 0.93231 0.83061 0.45395 0.0
C1476 C 0.93387 0.82655 0.4035 0.0
C1477 C 0.91878 0.82048 0.37478 0.0
C1478 C 0.90205 0.8186 0.39594 0.0
C1479 C 0.90038 0.82283 0.44582 0.0
C1480 C 0.91543 0.82886 0.47475 0.0
C1481 C 0.9847 0.91303 0.54839 0.0
C1482 C 0.97203 0.91767 0.57973 0.0
C1483 C 0.98258 0.89492 0.53228 0.0
C1484 C 0.96779 0.88101 0.54734 0.0
C1485 C 0.95492 0.8857 0.57769 0.0
C1486 C 0.95704 0.90381 0.59388 0.0
C1487 C 0.96571 0.8616 0.5312 0.0
C1488 C 0.95044 0.85447 0.50416 0.0
C1489 C 0.97895 0.85047 0.54049 0.0
C1490 C 0.99488 0.85671 0.57154 0.0
C1491 C 0.99326 0.86183 0.62091 0.0
C1492 C 0.00831 0.86801 0.64964 0.0
C1493 C 0.02507 0.86893 0.62968 0.0
C1494 C 0.02682 0.86365 0.58092 0.0
C1495 C 0.01181 0.85753 0.55193 0.0
H1496 H 0.03671 0.87371 0.65201 0.0
H1497 H 0.89038 0.8139 0.37363 0.0
H1498 H 0.72155 0.97055 0.37407 0.0
H1499 H 0.70244 0.96653 0.44932 0.0
H1500 H 0.66606 0.99605 0.36218 0.0
H1501 H 0.68503 1.00025 0.28783 0.0
H1502 H 0.6711 0.00755 0.45595 0.0
H1503 H 0.65853 0.94815 0.37979 0.0
H1504 H 0.66622 0.91947 0.35049 0.0
H1505 H 0.68325 0.9026 0.50179 0.0
H1506 H 0.67585 0.93134 0.53183 0.0
H1507 H 0.58531 0.9483 0.57302 0.0
H1508 H 0.61076 0.95241 0.51675 0.0
H1509 H 0.64259 0.98635 0.62221 0.0
H1510 H 0.61704 0.98249 0.67838 0.0
H1511 H 0.64304 0.94295 0.52866 0.0
H1512 H 0.67066 0.02042 0.55586 0.0
H1513 H 0.66091 0.04968 0.57385 0.0
H1514 H 0.61036 0.03033 0.50637 0.0
H1515 H 0.61974 1.00089 0.48874 0.0
C1516 C 0.70956 0.97632 0.37135 0.0
C1517 C 0.70467 0.98552 0.32497 0.0
C1518 C 0.69863 0.97395 0.41417 0.0
C1519 C 0.68276 0.98088 0.41124 0.0
C1520 C 0.67823 0.99058 0.3654 0.0
C1521 C 0.68901 0.99284 0.32279 0.0
C1522 C 0.67035 0.97765 0.45481 0.0
C1523 C 0.66518 0.99342 0.47241 0.0
C1524 C 0.66243 0.95924 0.47591 0.0
C1525 C 0.66685 0.94199 0.45788 0.0
C1526 C 0.66405 0.9384 0.40669 0.0
C1527 C 0.66833 0.92212 0.38998 0.0
C1528 C 0.67528 0.90925 0.42422 0.0
C1529 C 0.67791 0.91261 0.47529 0.0
C1530 C 0.67367 0.92888 0.49218 0.0
C1531 C 0.59774 0.95662 0.58421 0.0
C1532 C 0.59919 0.96506 0.63009 0.0
C1533 C 0.61231 0.95885 0.55223 0.0
C1534 C 0.62858 0.96974 0.56513 0.0
C1535 C 0.63015 0.97798 0.61131 0.0
C1536 C 0.61559 0.97564 0.64354 0.0
C1537 C 0.64365 0.97286 0.52925 0.0
C1538 C 0.64932 0.95708 0.51321 0.0
C1539 C 0.65184 0.99125 0.50884 0.0
C1540 C 0.64584 0.00845 0.52147 0.0
C1541 C 0.65743 0.0224 0.5452 0.0
C1542 C 0.65197 0.03899 0.55536 0.0
C1543 C 0.63503 0.04186 0.54128 0.0
C1544 C 0.62346 0.02807 0.51743 0.0
C1545 C 0.62879 0.01138 0.50767 0.0
H1546 H 0.63086 0.05477 0.54887 0.0
H1547 H 0.67857 0.89666 0.41121 0.0
H1548 H 0.55284 0.72026 0.56973 0.0
H1549 H 0.54444 0.69016 0.62369 0.0
H1550 H 0.57585 0.66382 0.53067 0.0
H1551 H 0.58358 0.69325 0.47572 0.0
H1552 H 0.54411 0.64293 0.54382 0.0
H1553 H 0.58789 0.67696 0.65282 0.0
H1554 H 0.6007 0.70217 0.70621 0.0
H1555 H 0.55507 0.68808 0.80249 0.0
H1556 H 0.5418 0.66308 0.74901 0.0
H1557 H 0.55111 0.55631 0.6838 0.0
H1558 H 0.5587 0.58903 0.64447 0.0
H1559 H 0.52127 0.60549 0.74093 0.0
H1560 H 0.51367 0.57287 0.78064 0.0
H1561 H 0.55298 0.63194 0.73069 0.0
H1562 H 0.50903 0.59918 0.62759 0.0
H1563 H 0.4945 0.57336 0.57841 0.0
H1564 H 0.53809 0.58509 0.47455 0.0
H1565 H 0.553 0.61083 0.52367 0.0
C1566 C 0.55797 0.70806 0.56084 0.0
C1567 C 0.569 0.70933 0.51836 0.0
C1568 C 0.55328 0.69089 0.59204 0.0
C1569 C 0.55959 0.6747 0.58148 0.0
C1570 C 0.57083 0.67608 0.53975 0.0
C1571 C 0.57542 0.69309 0.5086 0.0
C1572 C 0.55386 0.65593 0.61141 0.0
C1573 C 0.54628 0.64055 0.58461 0.0
C1574 C 0.55588 0.6529 0.66508 0.0
C1575 C 0.56371 0.66834 0.69629 0.0
C1576 C 0.58046 0.67943 0.68486 0.0
C1577 C 0.58783 0.69366 0.71526 0.0
C1578 C 0.57867 0.69681 0.75755 0.0
C1579 C 0.56212 0.68572 0.76957 0.0
C1580 C 0.55465 0.67153 0.73917 0.0
C1581 C 0.54464 0.56692 0.69716 0.0
C1582 C 0.5317 0.56193 0.73526 0.0
C1583 C 0.54896 0.5856 0.67453 0.0
C1584 C 0.54047 0.59965 0.68965 0.0
C1585 C 0.52803 0.59489 0.72892 0.0
C1586 C 0.52364 0.5762 0.75137 0.0
C1587 C 0.54397 0.61907 0.66259 0.0
C1588 C 0.55088 0.63446 0.6899 0.0
C1589 C 0.5411 0.62226 0.60953 0.0
C1590 C 0.5322 0.60684 0.57961 0.0
C1591 C 0.51557 0.59617 0.59449 0.0
C1592 C 0.50726 0.58156 0.56659 0.0
C1593 C 0.51539 0.57756 0.52343 0.0
C1594 C 0.53182 0.5882 0.50804 0.0
C1595 C 0.5402 0.60281 0.53589 0.0
H1596 H 0.50894 0.56624 0.50184 0.0
H1597 H 0.58442 0.70778 0.78113 0.0
H1598 H 0.78685 0.47214 0.38045 0.0
H1599 H 0.80769 0.48555 0.44475 0.0
H1600 H 0.84907 0.46343 0.37899 0.0
H1601 H 0.82869 0.45055 0.31426 0.0
H1602 H 0.84873 0.45715 0.4838 0.0
H1603 H 0.84588 0.50891 0.35126 0.0
H1604 H 0.83042 0.5308 0.29754 0.0
H1605 H 0.81349 0.5512 0.43136 0.0
H1606 H 0.82867 0.52923 0.4859 0.0
H1607 H 0.93139 0.50745 0.54209 0.0
H1608 H 0.90426 0.49528 0.49735 0.0
H1609 H 0.87499 0.52429 0.5895 0.0
H1610 H 0.90222 0.53644 0.63514 0.0
H1611 H 0.86491 0.52686 0.48685 0.0
H1612 H 0.87317 0.47924 0.6185 0.0
H1613 H 0.88973 0.45811 0.67077 0.0
H1614 H 0.89607 0.42928 0.54046 0.0
H1615 H 0.88019 0.45074 0.48677 0.0
C1616 C 0.8004 0.47017 0.37963 0.0
C1617 C 0.80602 0.46014 0.34222 0.0
C1618 C 0.81226 0.47777 0.41652 0.0
C1619 C 0.82992 0.47547 0.41659 0.0
C1620 C 0.83546 0.46521 0.37995 0.0
C1621 C 0.82371 0.45775 0.34306 0.0
C1622 C 0.84303 0.4842 0.45333 0.0
C1623 C 0.8523 0.47239 0.4845 0.0
C1624 C 0.84725 0.50404 0.45539 0.0
C1625 C 0.8382 0.51728 0.42263 0.0
C1626 C 0.83873 0.51796 0.36922 0.0
C1627 C 0.83004 0.5304 0.33863 0.0
C1628 C 0.82092 0.54234 0.36103 0.0
C1629 C 0.82052 0.54191 0.41407 0.0
C1630 C 0.82916 0.52947 0.44483 0.0
C1631 C 0.91919 0.51124 0.55295 0.0
C1632 C 0.91891 0.52269 0.59264 0.0
C1633 C 0.90371 0.50431 0.52728 0.0
C1634 C 0.88757 0.50859 0.54081 0.0
C1635 C 0.88731 0.52075 0.57873 0.0
C1636 C 0.90287 0.52772 0.60459 0.0
C1637 C 0.87107 0.49984 0.51582 0.0
C1638 C 0.86112 0.51161 0.48705 0.0
C1639 C 0.8662 0.47992 0.51604 0.0
C1640 C 0.87555 0.46673 0.54843 0.0
C1641 C 0.87822 0.46852 0.60079 0.0
C1642 C 0.88749 0.45647 0.63072 0.0
C1643 C 0.89388 0.44231 0.60903 0.0
C1644 C 0.89108 0.44024 0.55725 0.0
C1645 C 0.88199 0.45238 0.527 0.0
H1646 H 0.90099 0.43296 0.63234 0.0
H1647 H 0.81421 0.55196 0.33729 0.0
loop_
_geom_bond_atom_site_label_1
_geom_bond_atom_site_label_2
_geom_bond_distance
_geom_bond_site_symmetry_2
_ccdc_geom_bond_type
C0 C1 1.384 . S
C0 H13 0.947 . S
C0 C35 1.382 . S
C1 C0 1.384 . S
C1 C2 1.378 . S
C2 C1 1.378 . S
C2 C3 1.378 . S
C2 H14 0.952 . S
C3 C2 1.378 . S
C3 H15 0.950 . S
C3 C34 1.383 . S
H4 C23 0.947 . S
H5 C24 0.946 . S
H6 C26 0.953 . S
H7 C27 0.945 . S
H8 C29 0.952 . S
H9 C30 0.949 . S
H10 C32 0.950 . S
H11 C33 0.948 1_554 S
H12 C35 0.951 . S
H13 C0 0.947 . S
H14 C2 0.952 . S
H15 C3 0.950 . S
N16 C19 1.382 . S
N16 C21 1.363 . S
N17 C19 1.371 1_556 S
N17 C20 1.372 1_556 S
N18 C20 1.361 . S
N18 C21 1.377 . S
C19 N16 1.382 . S
C19 N17 1.371 1_554 S
C19 C22 1.480 . S
C20 N17 1.372 1_554 S
C20 N18 1.361 . S
C20 C28 1.457 1_554 S
C21 N16 1.363 . S
C21 N18 1.377 . S
C21 C34 1.479 . S
C22 C19 1.480 . S
C22 C23 1.383 . S
C22 C27 1.385 1_554 S
C23 H4 0.947 . S
C23 C22 1.383 . S
C23 C24 1.388 . S
C24 H5 0.946 . S
C24 C23 1.388 . S
C24 C25 1.384 1_554 S
C25 C24 1.384 1_556 S
C25 C26 1.377 . S
C26 H6 0.953 . S
C26 C25 1.377 . S
C26 C27 1.369 . S
C27 H7 0.945 . S
C27 C22 1.385 1_556 S
C27 C26 1.369 . S
C28 C20 1.457 1_556 S
C28 C29 1.372 . S
C28 C33 1.364 . S
C29 H8 0.952 . S
C29 C28 1.372 . S
C29 C30 1.389 . S
C30 H9 0.949 . S
C30 C29 1.389 . S
C30 C31 1.387 . S
C31 C30 1.387 . S
C31 C32 1.372 . S
C32 H10 0.950 . S
C32 C31 1.372 . S
C32 C33 1.379 . S
C33 H11 0.948 1_556 S
C33 C28 1.364 . S
C33 C32 1.379 . S
C34 C3 1.383 . S
C34 C21 1.479 . S
C34 C35 1.398 . S
C35 C0 1.382 . S
C35 H12 0.951 . S
C35 C34 1.398 . S
C36 C37 1.384 . S
C36 H49 0.947 . S
C36 C71 1.382 . S
C37 C36 1.384 . S
C37 C38 1.378 . S
C38 C37 1.378 . S
C38 C39 1.378 . S
C38 H50 0.952 . S
C39 C38 1.378 . S
C39 H51 0.950 . S
C39 C70 1.383 . S
H40 C59 0.947 . S
H41 C60 0.946 . S
H42 C62 0.953 . S
H43 C63 0.945 . S
H44 C65 0.952 . S
H45 C66 0.949 . S
H46 C68 0.950 . S
H47 C69 0.948 1_554 S
H48 C71 0.951 . S
H49 C36 0.947 . S
H50 C38 0.952 . S
H51 C39 0.950 . S
N52 C55 1.382 . S
N52 C57 1.363 . S
N53 C55 1.371 1_556 S
N53 C56 1.372 1_556 S
N54 C56 1.361 . S
N54 C57 1.377 . S
C55 N52 1.382 . S
C55 N53 1.371 1_554 S
C55 C58 1.480 . S
C56 N53 1.372 1_554 S
C56 N54 1.361 . S
C56 C64 1.457 1_554 S
C57 N52 1.363 . S
C57 N54 1.377 . S
C57 C70 1.479 . S
C58 C55 1.480 . S
C58 C59 1.383 . S
C58 C63 1.385 1_554 S
C59 H40 0.947 . S
C59 C58 1.383 . S
C59 C60 1.388 . S
C60 H41 0.946 . S
C60 C59 1.388 . S
C60 C61 1.384 . S
C61 C60 1.384 . S
C61 C62 1.377 1_554 S
C62 H42 0.953 . S
C62 C61 1.377 1_556 S
C62 C63 1.369 . S
C63 H43 0.945 . S
C63 C58 1.385 1_556 S
C63 C62 1.369 . S
C64 C56 1.457 1_556 S
C64 C65 1.372 . S
C64 C69 1.364 . S
C65 H44 0.952 . S
C65 C64 1.372 . S
C65 C66 1.389 . S
C66 H45 0.949 . S
C66 C65 1.389 . S
C66 C67 1.387 . S
C67 C66 1.387 . S
C67 C68 1.372 . S
C68 H46 0.950 . S
C68 C67 1.372 . S
C68 C69 1.379 . S
C69 H47 0.948 1_556 S
C69 C64 1.364 . S
C69 C68 1.379 . S
C70 C39 1.383 . S
C70 C57 1.479 . S
C70 C71 1.398 . S
C71 C36 1.382 . S
C71 H48 0.951 . S
C71 C70 1.398 . S
C72 C73 1.384 1_565 S
C72 H85 0.947 . S
C72 C107 1.382 1_565 S
C73 C72 1.384 1_545 S
C73 C74 1.378 . S
C74 C73 1.378 . S
C74 C75 1.378 . S
C74 H86 0.952 . S
C75 C74 1.378 . S
C75 H87 0.950 . S
C75 C106 1.383 . S
H76 C95 0.947 . S
H77 C96 0.953 . S
H78 C98 0.953 . S
H79 C99 0.945 . S
H80 C101 0.945 1_565 S
H81 C102 0.963 . S
H82 C104 0.950 . S
H83 C105 0.948 . S
H84 C107 0.951 1_565 S
H85 C72 0.947 . S
H86 C74 0.952 . S
H87 C75 0.950 . S
N88 C91 1.382 1_554 S
N88 C93 1.363 . S
N89 C91 1.371 . S
N89 C92 1.372 . S
N90 C92 1.361 1_554 S
N90 C93 1.377 . S
C91 N88 1.382 1_556 S
C91 N89 1.371 . S
C91 C94 1.480 . S
C92 N89 1.372 . S
C92 N90 1.361 1_556 S
C92 C100 1.457 . S
C93 N88 1.363 . S
C93 N90 1.377 . S
C93 C106 1.479 . S
C94 C91 1.480 . S
C94 C95 1.383 1_556 S
C94 C99 1.385 . S
C95 H76 0.947 . S
C95 C94 1.383 1_554 S
C95 C96 1.380 1_545 S
C96 H77 0.953 . S
C96 C95 1.380 1_565 S
C96 C97 1.386 1_564 S
C97 C96 1.386 1_546 S
C97 C98 1.377 . S
C98 H78 0.953 . S
C98 C97 1.377 . S
C98 C99 1.369 . S
C99 H79 0.945 . S
C99 C94 1.385 . S
C99 C98 1.369 . S
C100 C92 1.457 . S
C100 C101 1.379 . S
C100 C105 1.364 . S
C101 H80 0.945 1_545 S
C101 C100 1.379 . S
C101 C102 1.390 1_545 S
C102 H81 0.963 . S
C102 C101 1.390 1_565 S
C102 C103 1.374 1_565 S
C103 C102 1.374 1_545 S
C103 C104 1.372 . S
C104 H82 0.950 . S
C104 C103 1.372 . S
C104 C105 1.379 . S
C105 H83 0.948 . S
C105 C100 1.364 . S
C105 C104 1.379 . S
C106 C75 1.383 . S
C106 C93 1.479 . S
C106 C107 1.398 . S
C107 C72 1.382 1_545 S
C107 H84 0.951 1_545 S
C107 C106 1.398 . S
C108 C109 1.384 . S
C108 H121 0.947 . S
C108 C143 1.382 . S
C109 C108 1.384 . S
C109 C110 1.378 . S
C110 C109 1.378 . S
C110 C111 1.378 . S
C110 H122 0.952 . S
C111 C110 1.378 . S
C111 H123 0.950 . S
C111 C142 1.383 . S
H112 C131 0.947 . S
H113 C132 0.946 . S
H114 C134 0.953 . S
H115 C135 0.945 . S
H116 C137 0.952 . S
H117 C138 0.949 . S
H118 C140 0.950 . S
H119 C141 0.948 . S
H120 C143 0.951 . S
H121 C108 0.947 . S
H122 C110 0.952 . S
H123 C111 0.950 . S
N124 C127 1.382 . S
N124 C129 1.363 . S
N125 C127 1.371 . S
N125 C128 1.372 . S
N126 C128 1.361 . S
N126 C129 1.377 . S
C127 N124 1.382 . S
C127 N125 1.371 . S
C127 C130 1.480 . S
C128 N125 1.372 . S
C128 N126 1.361 . S
C128 C136 1.457 . S
C129 N124 1.363 . S
C129 N126 1.377 . S
C129 C142 1.479 . S
C130 C127 1.480 . S
C130 C131 1.383 . S
C130 C135 1.385 . S
C131 H112 0.947 . S
C131 C130 1.383 . S
C131 C132 1.388 . S
C132 H113 0.946 . S
C132 C131 1.388 . S
C132 C133 1.384 . S
C133 C132 1.384 . S
C133 C134 1.377 . S
C134 H114 0.953 . S
C134 C133 1.377 . S
C134 C135 1.369 . S
C135 H115 0.945 . S
C135 C130 1.385 . S
C135 C134 1.369 . S
C136 C128 1.457 . S
C136 C137 1.372 . S
C136 C141 1.364 . S
C137 H116 0.952 . S
C137 C136 1.372 . S
C137 C138 1.389 . S
C138 H117 0.949 . S
C138 C137 1.389 . S
C138 C139 1.387 . S
C139 C138 1.387 . S
C139 C140 1.372 . S
C140 H118 0.950 . S
C140 C139 1.372 . S
C140 C141 1.379 . S
C141 H119 0.948 . S
C141 C136 1.364 . S
C141 C140 1.379 . S
C142 C111 1.383 . S
C142 C129 1.479 . S
C142 C143 1.398 . S
C143 C108 1.382 . S
C143 H120 0.951 . S
C143 C142 1.398 . S
C144 C145 1.384 . S
C144 H157 0.947 . S
C144 C179 1.382 . S
C145 C144 1.384 . S
C145 C146 1.378 . S
C146 C145 1.378 . S
C146 C147 1.378 . S
C146 H158 0.952 . S
C147 C146 1.378 . S
C147 H159 0.950 . S
C147 C178 1.383 . S
H148 C167 0.947 . S
H149 C168 0.946 . S
H150 C170 0.953 . S
H151 C171 0.945 . S
H152 C173 0.952 . S
H153 C174 0.949 . S
H154 C176 0.950 . S
H155 C177 0.948 . S
H156 C179 0.951 . S
H157 C144 0.947 . S
H158 C146 0.952 . S
H159 C147 0.950 . S
N160 C163 1.382 . S
N160 C165 1.363 . S
N161 C163 1.371 . S
N161 C164 1.372 . S
N162 C164 1.361 . S
N162 C165 1.377 . S
C163 N160 1.382 . S
C163 N161 1.371 . S
C163 C166 1.480 . S
C164 N161 1.372 . S
C164 N162 1.361 . S
C164 C172 1.457 . S
C165 N160 1.363 . S
C165 N162 1.377 . S
C165 C178 1.479 . S
C166 C163 1.480 . S
C166 C167 1.383 . S
C166 C171 1.385 . S
C167 H148 0.947 . S
C167 C166 1.383 . S
C167 C168 1.388 . S
C168 H149 0.946 . S
C168 C167 1.388 . S
C168 C169 1.384 . S
C169 C168 1.384 . S
C169 C170 1.377 . S
C170 H150 0.953 . S
C170 C169 1.377 . S
C170 C171 1.369 . S
C171 H151 0.945 . S
C171 C166 1.385 . S
C171 C170 1.369 . S
C172 C164 1.457 . S
C172 C173 1.372 . S
C172 C177 1.364 . S
C173 H152 0.952 . S
C173 C172 1.372 . S
C173 C174 1.389 . S
C174 H153 0.949 . S
C174 C173 1.389 . S
C174 C175 1.387 . S
C175 C174 1.387 . S
C175 C176 1.372 . S
C176 H154 0.950 . S
C176 C175 1.372 . S
C176 C177 1.379 . S
C177 H155 0.948 . S
C177 C172 1.364 . S
C177 C176 1.379 . S
C178 C147 1.383 . S
C178 C165 1.479 . S
C178 C179 1.398 . S
C179 C144 1.382 . S
C179 H156 0.951 . S
C179 C178 1.398 . S
C180 C181 1.384 . S
C180 H193 0.947 . S
C180 C215 1.382 . S
C181 C180 1.384 . S
C181 C182 1.378 . S
C182 C181 1.378 . S
C182 C183 1.378 . S
C182 H194 0.952 . S
C183 C182 1.378 . S
C183 H195 0.950 . S
C183 C214 1.383 . S
H184 C203 0.947 . S
H185 C204 0.946 . S
H186 C206 0.953 . S
H187 C207 0.945 . S
H188 C209 0.952 . S
H189 C210 0.949 . S
H190 C212 0.950 . S
H191 C213 0.948 . S
H192 C215 0.951 . S
H193 C180 0.947 . S
H194 C182 0.952 . S
H195 C183 0.950 . S
N196 C199 1.382 . S
N196 C201 1.363 . S
N197 C199 1.371 . S
N197 C200 1.372 . S
N198 C200 1.361 . S
N198 C201 1.377 . S
C199 N196 1.382 . S
C199 N197 1.371 . S
C199 C202 1.480 . S
C200 N197 1.372 . S
C200 N198 1.361 . S
C200 C208 1.457 . S
C201 N196 1.363 . S
C201 N198 1.377 . S
C201 C214 1.479 . S
C202 C199 1.480 . S
C202 C203 1.383 . S
C202 C207 1.385 . S
C203 H184 0.947 . S
C203 C202 1.383 . S
C203 C204 1.388 . S
C204 H185 0.946 . S
C204 C203 1.388 . S
C204 C205 1.384 . S
C205 C204 1.384 . S
C205 C206 1.377 . S
C206 H186 0.953 . S
C206 C205 1.377 . S
C206 C207 1.369 . S
C207 H187 0.945 . S
C207 C202 1.385 . S
C207 C206 1.369 . S
C208 C200 1.457 . S
C208 C209 1.372 . S
C208 C213 1.364 . S
C209 H188 0.952 . S
C209 C208 1.372 . S
C209 C210 1.389 . S
C210 H189 0.949 . S
C210 C209 1.389 . S
C210 C211 1.387 . S
C211 C210 1.387 . S
C211 C212 1.372 . S
C212 H190 0.950 . S
C212 C211 1.372 . S
C212 C213 1.379 . S
C213 H191 0.948 . S
C213 C208 1.364 . S
C213 C212 1.379 . S
C214 C183 1.383 . S
C214 C201 1.479 . S
C214 C215 1.398 . S
C215 C180 1.382 . S
C215 H192 0.951 . S
C215 C214 1.398 . S
C216 C217 1.383 . S
C216 H229 0.949 1_545 S
C216 C251 1.379 . S
C217 C216 1.383 . S
C217 C218 1.378 . S
C218 C217 1.378 . S
C218 C219 1.378 . S
C218 H230 0.952 . S
C219 C218 1.378 . S
C219 H231 0.950 . S
C219 C250 1.383 . S
H220 C239 0.947 . S
H221 C240 0.948 . S
H222 C242 0.953 . S
H223 C243 0.945 . S
H224 C245 0.954 1_565 S
H225 C246 0.949 . S
H226 C248 0.950 . S
H227 C249 0.948 . S
H228 C251 0.950 1_565 S
H229 C216 0.949 1_565 S
H230 C218 0.952 . S
H231 C219 0.950 . S
N232 C235 1.382 . S
N232 C237 1.363 . S
N233 C235 1.371 . S
N233 C236 1.372 . S
N234 C236 1.361 . S
N234 C237 1.377 . S
C235 N232 1.382 . S
C235 N233 1.371 . S
C235 C238 1.480 . S
C236 N233 1.372 . S
C236 N234 1.361 . S
C236 C244 1.457 . S
C237 N232 1.363 . S
C237 N234 1.377 . S
C237 C250 1.479 . S
C238 C235 1.480 . S
C238 C239 1.383 . S
C238 C243 1.385 . S
C239 H220 0.947 . S
C239 C238 1.383 . S
C239 C240 1.390 1_545 S
C240 H221 0.948 . S
C240 C239 1.390 1_565 S
C240 C241 1.380 1_565 S
C241 C240 1.380 1_545 S
C241 C242 1.377 . S
C242 H222 0.953 . S
C242 C241 1.377 . S
C242 C243 1.369 . S
C243 H223 0.945 . S
C243 C238 1.385 . S
C243 C242 1.369 . S
C244 C236 1.457 . S
C244 C245 1.373 . S
C244 C249 1.364 . S
C245 H224 0.954 1_545 S
C245 C244 1.373 . S
C245 C246 1.383 1_545 S
C246 H225 0.949 . S
C246 C245 1.383 1_565 S
C246 C247 1.390 1_565 S
C247 C246 1.390 1_545 S
C247 C248 1.372 . S
C248 H226 0.950 . S
C248 C247 1.372 . S
C248 C249 1.379 . S
C249 H227 0.948 . S
C249 C244 1.364 . S
C249 C248 1.379 . S
C250 C219 1.383 . S
C250 C237 1.479 . S
C250 C251 1.402 . S
C251 C216 1.379 . S
C251 H228 0.950 1_545 S
C251 C250 1.402 . S
C252 C253 1.384 . S
C252 H265 0.947 . S
C252 C287 1.382 . S
C253 C252 1.384 . S
C253 C254 1.378 . S
C254 C253 1.378 . S
C254 C255 1.378 . S
C254 H266 0.952 . S
C255 C254 1.378 . S
C255 H267 0.950 . S
C255 C286 1.383 . S
H256 C275 0.947 . S
H257 C276 0.946 . S
H258 C278 0.953 . S
H259 C279 0.945 . S
H260 C281 0.952 . S
H261 C282 0.949 . S
H262 C284 0.950 . S
H263 C285 0.948 . S
H264 C287 0.951 . S
H265 C252 0.947 . S
H266 C254 0.952 . S
H267 C255 0.950 . S
N268 C271 1.382 . S
N268 C273 1.363 . S
N269 C271 1.371 . S
N269 C272 1.372 . S
N270 C272 1.361 . S
N270 C273 1.377 . S
C271 N268 1.382 . S
C271 N269 1.371 . S
C271 C274 1.480 . S
C272 N269 1.372 . S
C272 N270 1.361 . S
C272 C280 1.457 . S
C273 N268 1.363 . S
C273 N270 1.377 . S
C273 C286 1.479 . S
C274 C271 1.480 . S
C274 C275 1.383 . S
C274 C279 1.385 . S
C275 H256 0.947 . S
C275 C274 1.383 . S
C275 C276 1.388 . S
C276 H257 0.946 . S
C276 C275 1.388 . S
C276 C277 1.384 . S
C277 C276 1.384 . S
C277 C278 1.377 . S
C278 H258 0.953 . S
C278 C277 1.377 . S
C278 C279 1.369 . S
C279 H259 0.945 . S
C279 C274 1.385 . S
C279 C278 1.369 . S
C280 C272 1.457 . S
C280 C281 1.372 . S
C280 C285 1.364 . S
C281 H260 0.952 . S
C281 C280 1.372 . S
C281 C282 1.389 . S
C282 H261 0.949 . S
C282 C281 1.389 . S
C282 C283 1.387 . S
C283 C282 1.387 . S
C283 C284 1.372 . S
C284 H262 0.950 . S
C284 C283 1.372 . S
C284 C285 1.379 . S
C285 H263 0.948 . S
C285 C280 1.364 . S
C285 C284 1.379 . S
C286 C255 1.383 . S
C286 C273 1.479 . S
C286 C287 1.398 . S
C287 C252 1.382 . S
C287 H264 0.951 . S
C287 C286 1.398 . S
Nd288 C290 2.836 1_455 S
Nd288 O308 2.500 1_455 S
Nd288 O309 2.492 . S
Nd288 O310 2.487 . S
Nd288 O311 2.678 1_565 S
Nd288 O312 2.410 . S
Nd288 O317 2.427 1_455 S
Nd288 O319 2.424 1_565 S
Nd289 C299 2.836 . S
Nd289 O311 2.431 . S
Nd289 O313 2.424 1_545 S
Nd289 O314 2.500 . S
Nd289 O315 2.492 . S
Nd289 O316 2.487 1_455 S
Nd289 O317 2.679 1_445 S
Nd289 O318 2.410 . S
C290 Nd288 2.836 1_655 S
C290 C291 1.498 . S
C290 O308 1.258 . S
C290 O309 1.239 1_655 S
C291 C290 1.498 . S
C291 C292 1.366 . S
C291 C296 1.407 . S
C292 C291 1.366 . S
C292 C293 1.392 . S
C292 H320 0.930 . S
C293 C292 1.392 . S
C293 C294 1.398 . S
C293 H321 0.929 . S
C294 C293 1.398 . S
C294 C295 1.352 . S
C295 C294 1.352 . S
C295 C296 1.384 . S
C295 H322 0.930 . S
C296 C291 1.407 . S
C296 C295 1.384 . S
C296 H323 0.929 1_655 S
C297 O310 1.241 . S
C297 O311 1.248 1_565 S
C298 O312 1.251 . S
C298 O313 1.268 . S
C299 Nd289 2.836 . S
C299 C300 1.498 . S
C299 O314 1.258 . S
C299 O315 1.239 . S
C300 C299 1.498 . S
C300 C301 1.366 . S
C300 C305 1.407 . S
C301 C300 1.366 . S
C301 C302 1.392 . S
C301 H324 0.930 . S
C302 C301 1.392 . S
C302 C303 1.398 . S
C302 H325 0.929 . S
C303 C302 1.398 . S
C303 C304 1.352 1_556 S
C304 C303 1.352 1_554 S
C304 C305 1.384 1_554 S
C304 H326 0.930 . S
C305 C300 1.407 . S
C305 C304 1.384 1_556 S
C305 H327 0.929 . S
C306 O316 1.241 . S
C306 O317 1.255 1_545 S
C307 O318 1.251 . S
C307 O319 1.268 . S
O308 Nd288 2.500 1_655 S
O308 C290 1.258 . S
O309 Nd288 2.492 . S
O309 C290 1.239 1_455 S
O310 Nd288 2.487 . S
O310 C297 1.241 . S
O311 Nd288 2.678 1_545 S
O311 Nd289 2.431 . S
O311 C297 1.248 1_545 S
O312 Nd288 2.410 . S
O312 C298 1.251 . S
O313 Nd289 2.424 1_565 S
O313 C298 1.268 . S
O314 Nd289 2.500 . S
O314 C299 1.258 . S
O315 Nd289 2.492 . S
O315 C299 1.239 . S
O316 Nd289 2.487 1_655 S
O316 C306 1.241 . S
O317 Nd288 2.427 1_655 S
O317 Nd289 2.679 1_665 S
O317 C306 1.255 1_565 S
O318 Nd289 2.410 . S
O318 C307 1.251 . S
O319 Nd288 2.424 1_545 S
O319 C307 1.268 . S
H320 C292 0.930 . S
H321 C293 0.929 . S
H322 C295 0.930 . S
H323 C296 0.929 1_455 S
H324 C301 0.930 . S
H325 C302 0.929 . S
H326 C304 0.930 . S
H327 C305 0.929 . S
Nd328 C330 2.836 . S
Nd328 O348 2.500 . S
Nd328 O349 2.492 1_565 S
Nd328 O350 2.487 1_565 S
Nd328 O351 2.682 1_565 S
Nd328 O352 2.410 1_565 S
Nd328 O357 2.414 . S
Nd328 O359 2.424 . S
Nd329 C339 2.836 . S
Nd329 O351 2.414 . S
Nd329 O353 2.424 . S
Nd329 O354 2.500 . S
Nd329 O355 2.492 1_545 S
Nd329 O356 2.487 1_545 S
Nd329 O357 2.682 1_545 S
Nd329 O358 2.410 1_545 S
C330 Nd328 2.836 . S
C330 C331 1.498 . S
C330 O348 1.258 . S
C330 O349 1.227 1_565 S
C331 C330 1.498 . S
C331 C332 1.366 . S
C331 C336 1.407 . S
C332 C331 1.366 . S
C332 C333 1.392 . S
C332 H360 0.930 . S
C333 C332 1.392 . S
C333 C334 1.398 . S
C333 H361 0.929 . S
C334 C333 1.398 . S
C334 C335 1.352 . S
C335 C334 1.352 . S
C335 C336 1.384 . S
C335 H362 0.929 1_565 S
C336 C331 1.407 . S
C336 C335 1.384 . S
C336 H363 0.929 1_565 S
C337 O350 1.241 . S
C337 O351 1.273 . S
C338 O352 1.251 . S
C338 O353 1.268 . S
C339 Nd329 2.836 . S
C339 C340 1.498 . S
C339 O354 1.258 . S
C339 O355 1.238 1_545 S
C340 C339 1.498 . S
C340 C341 1.366 . S
C340 C345 1.407 . S
C341 C340 1.366 . S
C341 C342 1.392 . S
C341 H364 0.930 . S
C342 C341 1.392 . S
C342 C343 1.398 . S
C342 H365 0.929 . S
C343 C342 1.398 . S
C343 C344 1.352 1_556 S
C344 C343 1.352 1_554 S
C344 C345 1.384 1_554 S
C344 H366 0.929 . S
C345 C340 1.407 . S
C345 C344 1.384 1_556 S
C345 H367 0.929 1_546 S
C346 O356 1.241 . S
C346 O357 1.273 . S
C347 O358 1.251 . S
C347 O359 1.268 . S
O348 Nd328 2.500 . S
O348 C330 1.258 . S
O349 Nd328 2.492 1_545 S
O349 C330 1.227 1_545 S
O350 Nd328 2.487 1_545 S
O350 C337 1.241 . S
O351 Nd328 2.682 1_545 S
O351 Nd329 2.414 . S
O351 C337 1.273 . S
O352 Nd328 2.410 1_545 S
O352 C338 1.251 . S
O353 Nd329 2.424 . S
O353 C338 1.268 . S
O354 Nd329 2.500 . S
O354 C339 1.258 . S
O355 Nd329 2.492 1_565 S
O355 C339 1.238 1_565 S
O356 Nd329 2.487 1_565 S
O356 C346 1.241 . S
O357 Nd328 2.414 . S
O357 Nd329 2.682 1_565 S
O357 C346 1.273 . S
O358 Nd329 2.410 1_565 S
O358 C347 1.251 . S
O359 Nd328 2.424 . S
O359 C347 1.268 . S
H360 C332 0.930 . S
H361 C333 0.929 . S
H362 C335 0.929 1_545 S
H363 C336 0.929 1_545 S
H364 C341 0.930 . S
H365 C342 0.929 . S
H366 C344 0.929 . S
H367 C345 0.929 1_564 S
Nd368 C370 2.836 . S
Nd368 O388 2.500 . S
Nd368 O389 2.492 . S
Nd368 O390 2.487 . S
Nd368 O391 2.682 . S
Nd368 O392 2.410 . S
Nd368 O397 2.414 . S
Nd368 O399 2.424 . S
Nd369 C379 2.836 . S
Nd369 O391 2.414 . S
Nd369 O393 2.424 . S
Nd369 O394 2.500 . S
Nd369 O395 2.492 . S
Nd369 O396 2.487 . S
Nd369 O397 2.682 . S
Nd369 O398 2.410 . S
C370 Nd368 2.836 . S
C370 C371 1.498 . S
C370 O388 1.258 . S
C370 O389 1.239 . S
C371 C370 1.498 . S
C371 C372 1.366 . S
C371 C376 1.407 . S
C372 C371 1.366 . S
C372 C373 1.392 . S
C372 H400 0.930 . S
C373 C372 1.392 . S
C373 C374 1.398 . S
C373 H401 0.929 . S
C374 C373 1.398 . S
C374 C375 1.352 . S
C375 C374 1.352 . S
C375 C376 1.384 . S
C375 H402 0.930 . S
C376 C371 1.407 . S
C376 C375 1.384 . S
C376 H403 0.929 . S
C377 O390 1.241 . S
C377 O391 1.273 . S
C378 O392 1.251 . S
C378 O393 1.268 . S
C379 Nd369 2.836 . S
C379 C380 1.498 . S
C379 O394 1.258 . S
C379 O395 1.239 . S
C380 C379 1.498 . S
C380 C381 1.366 . S
C380 C385 1.407 . S
C381 C380 1.366 . S
C381 C382 1.392 . S
C381 H404 0.930 . S
C382 C381 1.392 . S
C382 C383 1.398 . S
C382 H405 0.929 . S
C383 C382 1.398 . S
C383 C384 1.352 . S
C384 C383 1.352 . S
C384 C385 1.384 . S
C384 H406 0.930 . S
C385 C380 1.407 . S
C385 C384 1.384 . S
C385 H407 0.929 . S
C386 O396 1.241 . S
C386 O397 1.273 . S
C387 O398 1.251 . S
C387 O399 1.268 . S
O388 Nd368 2.500 . S
O388 C370 1.258 . S
O389 Nd368 2.492 . S
O389 C370 1.239 . S
O390 Nd368 2.487 . S
O390 C377 1.241 . S
O391 Nd368 2.682 . S
O391 Nd369 2.414 . S
O391 C377 1.273 . S
O392 Nd368 2.410 . S
O392 C378 1.251 . S
O393 Nd369 2.424 . S
O393 C378 1.268 . S
O394 Nd369 2.500 . S
O394 C379 1.258 . S
O395 Nd369 2.492 . S
O395 C379 1.239 . S
O396 Nd369 2.487 . S
O396 C386 1.241 . S
O397 Nd368 2.414 . S
O397 Nd369 2.682 . S
O397 C386 1.273 . S
O398 Nd369 2.410 . S
O398 C387 1.251 . S
O399 Nd368 2.424 . S
O399 C387 1.268 . S
H400 C372 0.930 . S
H401 C373 0.929 . S
H402 C375 0.930 . S
H403 C376 0.929 . S
H404 C381 0.930 . S
H405 C382 0.929 . S
H406 C384 0.930 . S
H407 C385 0.929 . S
Nd408 C410 2.836 1_455 S
Nd408 O428 2.500 1_455 S
Nd408 O429 2.492 1_455 S
Nd408 O430 2.487 . S
Nd408 O431 2.682 . S
Nd408 O432 2.410 1_455 S
Nd408 O437 2.414 . S
Nd408 O439 2.424 . S
Nd409 C419 2.836 . S
Nd409 O431 2.414 . S
Nd409 O433 2.424 1_455 S
Nd409 O434 2.500 . S
Nd409 O435 2.492 . S
Nd409 O436 2.487 . S
Nd409 O437 2.682 . S
Nd409 O438 2.410 . S
C410 Nd408 2.836 1_655 S
C410 C411 1.498 . S
C410 O428 1.258 . S
C410 O429 1.239 . S
C411 C410 1.498 . S
C411 C412 1.366 . S
C411 C416 1.407 . S
C412 C411 1.366 . S
C412 C413 1.392 . S
C412 H440 0.930 . S
C413 C412 1.392 . S
C413 C414 1.398 . S
C413 H441 0.929 . S
C414 C413 1.398 . S
C414 C415 1.352 . S
C415 C414 1.352 . S
C415 C416 1.384 . S
C415 H442 0.930 . S
C416 C411 1.407 . S
C416 C415 1.384 . S
C416 H443 0.929 . S
C417 O430 1.241 . S
C417 O431 1.273 . S
C418 O432 1.251 . S
C418 O433 1.268 . S
C419 Nd409 2.836 . S
C419 C420 1.498 . S
C419 O434 1.258 . S
C419 O435 1.239 . S
C420 C419 1.498 . S
C420 C421 1.366 . S
C420 C425 1.407 . S
C421 C420 1.366 . S
C421 C422 1.392 . S
C421 H444 0.930 . S
C422 C421 1.392 . S
C422 C423 1.398 . S
C422 H445 0.929 . S
C423 C422 1.398 . S
C423 C424 1.352 1_556 S
C424 C423 1.352 1_554 S
C424 C425 1.384 1_554 S
C424 H446 0.930 . S
C425 C420 1.407 . S
C425 C424 1.384 1_556 S
C425 H447 0.929 . S
C426 O436 1.241 . S
C426 O437 1.273 . S
C427 O438 1.251 . S
C427 O439 1.268 . S
O428 Nd408 2.500 1_655 S
O428 C410 1.258 . S
O429 Nd408 2.492 1_655 S
O429 C410 1.239 . S
O430 Nd408 2.487 . S
O430 C417 1.241 . S
O431 Nd408 2.682 . S
O431 Nd409 2.414 . S
O431 C417 1.273 . S
O432 Nd408 2.410 1_655 S
O432 C418 1.251 . S
O433 Nd409 2.424 1_655 S
O433 C418 1.268 . S
O434 Nd409 2.500 . S
O434 C419 1.258 . S
O435 Nd409 2.492 . S
O435 C419 1.239 . S
O436 Nd409 2.487 . S
O436 C426 1.241 . S
O437 Nd408 2.414 . S
O437 Nd409 2.682 . S
O437 C426 1.273 . S
O438 Nd409 2.410 . S
O438 C427 1.251 . S
O439 Nd408 2.424 . S
O439 C427 1.268 . S
H440 C412 0.930 . S
H441 C413 0.929 . S
H442 C415 0.930 . S
H443 C416 0.929 . S
H444 C421 0.930 . S
H445 C422 0.929 . S
H446 C424 0.930 . S
H447 C425 0.929 . S
H448 C466 0.951 . S
H449 C468 0.956 . S
H450 C470 0.950 . S
H451 C471 0.950 . S
H452 C473 0.950 . S
H453 C476 0.950 . S
H454 C477 0.950 . S
H455 C479 0.950 . S
H456 C480 0.950 . S
H457 C481 0.951 . S
H458 C483 0.951 . S
H459 C485 0.952 1_545 S
H460 C486 0.954 . S
H461 C488 0.950 . S
H462 C491 0.950 . S
H463 C492 0.950 . S
H464 C494 0.950 . S
H465 C495 0.950 . S
C466 H448 0.951 . S
C466 C467 1.366 . S
C466 C468 1.384 . S
C467 C466 1.366 . S
C467 C471 1.385 1_545 S
C468 H449 0.956 . S
C468 C466 1.384 . S
C468 C469 1.365 1_545 S
C469 C468 1.365 1_565 S
C469 C470 1.414 . S
C469 C472 1.499 . S
C470 H450 0.950 . S
C470 C469 1.414 . S
C470 C471 1.374 . S
C471 H451 0.950 . S
C471 C467 1.385 1_565 S
C471 C470 1.374 . S
C472 C469 1.499 . S
C472 C473 1.373 1_565 S
C472 C474 1.389 . S
C473 H452 0.950 . S
C473 C472 1.373 1_545 S
C473 C489 1.377 . S
C474 C472 1.389 . S
C474 C475 1.524 . S
C474 C488 1.377 . S
C475 C474 1.524 . S
C475 C476 1.397 . S
C475 C480 1.363 . S
C476 H453 0.950 . S
C476 C475 1.397 . S
C476 C477 1.334 . S
C477 H454 0.950 . S
C477 C476 1.334 . S
C477 C478 1.287 . S
C478 C477 1.287 . S
C478 C479 1.524 . S
C478 H497 0.913 . S
C479 H455 0.950 . S
C479 C478 1.524 . S
C479 C480 1.415 . S
C480 H456 0.950 . S
C480 C475 1.363 . S
C480 C479 1.415 . S
C481 H457 0.951 . S
C481 C482 1.366 . S
C481 C483 1.388 . S
C482 C481 1.366 . S
C482 C486 1.385 . S
C483 H458 0.951 . S
C483 C481 1.388 . S
C483 C484 1.366 . S
C484 C483 1.366 . S
C484 C485 1.421 . S
C484 C487 1.489 . S
C485 H459 0.952 1_565 S
C485 C484 1.421 . S
C485 C486 1.368 . S
C486 H460 0.954 . S
C486 C482 1.385 . S
C486 C485 1.368 . S
C487 C484 1.489 . S
C487 C488 1.411 . S
C487 C489 1.367 1_565 S
C488 H461 0.950 . S
C488 C474 1.377 . S
C488 C487 1.411 . S
C489 C473 1.377 . S
C489 C487 1.367 1_545 S
C489 C490 1.524 . S
C490 C489 1.524 . S
C490 C491 1.397 . S
C490 C495 1.363 . S
C491 H462 0.950 . S
C491 C490 1.397 . S
C491 C492 1.334 . S
C492 H463 0.950 . S
C492 C491 1.334 . S
C492 C493 1.287 . S
C493 C492 1.287 . S
C493 C494 1.524 . S
C493 H496 0.999 . S
C494 H464 0.950 . S
C494 C493 1.524 . S
C494 C495 1.415 . S
C495 H465 0.950 . S
C495 C490 1.363 . S
C495 C494 1.415 . S
H496 C493 0.999 . S
H497 C478 0.913 . S
H498 C516 0.951 . S
H499 C518 0.951 . S
H500 C520 0.950 . S
H501 C521 0.950 . S
H502 C523 0.950 . S
H503 C526 0.950 . S
H504 C527 0.950 . S
H505 C529 0.950 . S
H506 C530 0.950 . S
H507 C531 0.951 . S
H508 C533 0.951 . S
H509 C535 0.950 . S
H510 C536 0.950 . S
H511 C538 0.950 . S
H512 C541 0.950 . S
H513 C542 0.950 . S
H514 C544 0.950 . S
H515 C545 0.950 . S
C516 H498 0.951 . S
C516 C517 1.366 . S
C516 C518 1.388 . S
C517 C516 1.366 . S
C517 C521 1.385 . S
C518 H499 0.951 . S
C518 C516 1.388 . S
C518 C519 1.366 . S
C519 C518 1.366 . S
C519 C520 1.414 . S
C519 C522 1.499 . S
C520 H500 0.950 . S
C520 C519 1.414 . S
C520 C521 1.374 . S
C521 H501 0.950 . S
C521 C517 1.385 . S
C521 C520 1.374 . S
C522 C519 1.499 . S
C522 C523 1.373 . S
C522 C524 1.389 . S
C523 H502 0.950 . S
C523 C522 1.373 . S
C523 C539 1.377 . S
C524 C522 1.389 . S
C524 C525 1.524 . S
C524 C538 1.377 . S
C525 C524 1.524 . S
C525 C526 1.397 . S
C525 C530 1.363 . S
C526 H503 0.950 . S
C526 C525 1.397 . S
C526 C527 1.334 . S
C527 H504 0.950 . S
C527 C526 1.334 . S
C527 C528 1.287 . S
C528 C527 1.287 . S
C528 C529 1.524 . S
C528 H547 0.913 . S
C529 H505 0.950 . S
C529 C528 1.524 . S
C529 C530 1.415 . S
C530 H506 0.950 . S
C530 C525 1.363 . S
C530 C529 1.415 . S
C531 H507 0.951 . S
C531 C532 1.366 . S
C531 C533 1.388 . S
C532 C531 1.366 . S
C532 C536 1.385 . S
C533 H508 0.951 . S
C533 C531 1.388 . S
C533 C534 1.366 . S
C534 C533 1.366 . S
C534 C535 1.414 . S
C534 C537 1.499 . S
C535 H509 0.950 . S
C535 C534 1.414 . S
C535 C536 1.374 . S
C536 H510 0.950 . S
C536 C532 1.385 . S
C536 C535 1.374 . S
C537 C534 1.499 . S
C537 C538 1.373 . S
C537 C539 1.389 . S
C538 H511 0.950 . S
C538 C524 1.377 . S
C538 C537 1.373 . S
C539 C523 1.377 . S
C539 C537 1.389 . S
C539 C540 1.524 . S
C540 C539 1.524 . S
C540 C541 1.397 . S
C540 C545 1.363 . S
C541 H512 0.950 . S
C541 C540 1.397 . S
C541 C542 1.334 . S
C542 H513 0.950 . S
C542 C541 1.334 . S
C542 C543 1.287 . S
C543 C542 1.287 . S
C543 C544 1.524 . S
C543 H546 0.999 . S
C544 H514 0.950 . S
C544 C543 1.524 . S
C544 C545 1.415 . S
C545 H515 0.950 . S
C545 C540 1.363 . S
C545 C544 1.415 . S
H546 C543 0.999 . S
H547 C528 0.913 . S
H548 C566 0.951 . S
H549 C568 0.951 . S
H550 C570 0.950 . S
H551 C571 0.950 . S
H552 C573 0.950 . S
H553 C576 0.950 . S
H554 C577 0.950 . S
H555 C579 0.950 . S
H556 C580 0.950 . S
H557 C581 0.951 . S
H558 C583 0.951 . S
H559 C585 0.950 . S
H560 C586 0.950 . S
H561 C588 0.950 . S
H562 C591 0.950 . S
H563 C592 0.950 . S
H564 C594 0.950 . S
H565 C595 0.950 . S
C566 H548 0.951 . S
C566 C567 1.366 . S
C566 C568 1.388 . S
C567 C566 1.366 . S
C567 C571 1.385 . S
C568 H549 0.951 . S
C568 C566 1.388 . S
C568 C569 1.366 . S
C569 C568 1.366 . S
C569 C570 1.414 . S
C569 C572 1.499 . S
C570 H550 0.950 . S
C570 C569 1.414 . S
C570 C571 1.374 . S
C571 H551 0.950 . S
C571 C567 1.385 . S
C571 C570 1.374 . S
C572 C569 1.499 . S
C572 C573 1.373 . S
C572 C574 1.389 . S
C573 H552 0.950 . S
C573 C572 1.373 . S
C573 C589 1.377 . S
C574 C572 1.389 . S
C574 C575 1.524 . S
C574 C588 1.377 . S
C575 C574 1.524 . S
C575 C576 1.397 . S
C575 C580 1.363 . S
C576 H553 0.950 . S
C576 C575 1.397 . S
C576 C577 1.334 . S
C577 H554 0.950 . S
C577 C576 1.334 . S
C577 C578 1.287 . S
C578 C577 1.287 . S
C578 C579 1.524 . S
C578 H597 0.913 . S
C579 H555 0.950 . S
C579 C578 1.524 . S
C579 C580 1.415 . S
C580 H556 0.950 . S
C580 C575 1.363 . S
C580 C579 1.415 . S
C581 H557 0.951 . S
C581 C582 1.366 . S
C581 C583 1.388 . S
C582 C581 1.366 . S
C582 C586 1.385 . S
C583 H558 0.951 . S
C583 C581 1.388 . S
C583 C584 1.366 . S
C584 C583 1.366 . S
C584 C585 1.414 . S
C584 C587 1.499 . S
C585 H559 0.950 . S
C585 C584 1.414 . S
C585 C586 1.374 . S
C586 H560 0.950 . S
C586 C582 1.385 . S
C586 C585 1.374 . S
C587 C584 1.499 . S
C587 C588 1.373 . S
C587 C589 1.389 . S
C588 H561 0.950 . S
C588 C574 1.377 . S
C588 C587 1.373 . S
C589 C573 1.377 . S
C589 C587 1.389 . S
C589 C590 1.524 . S
C590 C589 1.524 . S
C590 C591 1.397 . S
C590 C595 1.363 . S
C591 H562 0.950 . S
C591 C590 1.397 . S
C591 C592 1.334 . S
C592 H563 0.950 . S
C592 C591 1.334 . S
C592 C593 1.287 . S
C593 C592 1.287 . S
C593 C594 1.524 . S
C593 H596 0.999 . S
C594 H564 0.950 . S
C594 C593 1.524 . S
C594 C595 1.415 . S
C595 H565 0.950 . S
C595 C590 1.363 . S
C595 C594 1.415 . S
H596 C593 0.999 . S
H597 C578 0.913 . S
H598 C616 0.951 . S
H599 C618 0.951 . S
H600 C620 0.950 . S
H601 C621 0.950 . S
H602 C623 0.950 . S
H603 C626 0.950 . S
H604 C627 0.950 . S
H605 C629 0.950 . S
H606 C630 0.950 . S
H607 C631 0.951 . S
H608 C633 0.951 . S
H609 C635 0.950 . S
H610 C636 0.950 . S
H611 C638 0.950 . S
H612 C641 0.950 . S
H613 C642 0.950 . S
H614 C644 0.950 . S
H615 C645 0.950 . S
C616 H598 0.951 . S
C616 C617 1.366 . S
C616 C618 1.388 . S
C617 C616 1.366 . S
C617 C621 1.385 . S
C618 H599 0.951 . S
C618 C616 1.388 . S
C618 C619 1.366 . S
C619 C618 1.366 . S
C619 C620 1.414 . S
C619 C622 1.499 . S
C620 H600 0.950 . S
C620 C619 1.414 . S
C620 C621 1.374 . S
C621 H601 0.950 . S
C621 C617 1.385 . S
C621 C620 1.374 . S
C622 C619 1.499 . S
C622 C623 1.373 . S
C622 C624 1.389 . S
C623 H602 0.950 . S
C623 C622 1.373 . S
C623 C639 1.377 . S
C624 C622 1.389 . S
C624 C625 1.524 . S
C624 C638 1.377 . S
C625 C624 1.524 . S
C625 C626 1.397 . S
C625 C630 1.363 . S
C626 H603 0.950 . S
C626 C625 1.397 . S
C626 C627 1.334 . S
C627 H604 0.950 . S
C627 C626 1.334 . S
C627 C628 1.287 . S
C628 C627 1.287 . S
C628 C629 1.524 . S
C628 H647 0.913 . S
C629 H605 0.950 . S
C629 C628 1.524 . S
C629 C630 1.415 . S
C630 H606 0.950 . S
C630 C625 1.363 . S
C630 C629 1.415 . S
C631 H607 0.951 . S
C631 C632 1.366 . S
C631 C633 1.388 . S
C632 C631 1.366 . S
C632 C636 1.385 . S
C633 H608 0.951 . S
C633 C631 1.388 . S
C633 C634 1.366 . S
C634 C633 1.366 . S
C634 C635 1.414 . S
C634 C637 1.499 . S
C635 H609 0.950 . S
C635 C634 1.414 . S
C635 C636 1.374 . S
C636 H610 0.950 . S
C636 C632 1.385 . S
C636 C635 1.374 . S
C637 C634 1.499 . S
C637 C638 1.373 . S
C637 C639 1.389 . S
C638 H611 0.950 . S
C638 C624 1.377 . S
C638 C637 1.373 . S
C639 C623 1.377 . S
C639 C637 1.389 . S
C639 C640 1.524 . S
C640 C639 1.524 . S
C640 C641 1.397 . S
C640 C645 1.363 . S
C641 H612 0.950 . S
C641 C640 1.397 . S
C641 C642 1.334 . S
C642 H613 0.950 . S
C642 C641 1.334 . S
C642 C643 1.287 . S
C643 C642 1.287 . S
C643 C644 1.524 . S
C643 H646 0.999 . S
C644 H614 0.950 . S
C644 C643 1.524 . S
C644 C645 1.415 . S
C645 H615 0.950 . S
C645 C640 1.363 . S
C645 C644 1.415 . S
H646 C643 0.999 . S
H647 C628 0.913 . S
H648 C666 0.951 . S
H649 C668 0.951 . S
H650 C670 0.950 . S
H651 C671 0.950 1_554 S
H652 C673 0.950 . S
H653 C676 0.950 . S
H654 C677 0.950 . S
H655 C679 0.950 1_545 S
H656 C680 0.950 . S
H657 C681 0.951 . S
H658 C683 0.951 . S
H659 C685 0.950 . S
H660 C686 0.950 . S
H661 C688 0.940 1_565 S
H662 C691 0.950 . S
H663 C692 0.950 . S
H664 C694 0.950 1_565 S
H665 C695 0.949 . S
C666 H648 0.951 . S
C666 C667 1.366 . S
C666 C668 1.388 . S
C667 C666 1.366 . S
C667 C671 1.384 1_545 S
C668 H649 0.951 . S
C668 C666 1.388 . S
C668 C669 1.367 . S
C669 C668 1.367 . S
C669 C670 1.413 1_545 S
C669 C672 1.499 . S
C670 H650 0.950 . S
C670 C669 1.413 1_565 S
C670 C671 1.374 . S
C671 H651 0.950 1_556 S
C671 C667 1.384 1_565 S
C671 C670 1.374 . S
C672 C669 1.499 . S
C672 C673 1.374 . S
C672 C674 1.389 1_545 S
C673 H652 0.950 . S
C673 C672 1.374 . S
C673 C689 1.377 . S
C674 C672 1.389 1_565 S
C674 C675 1.524 . S
C674 C688 1.379 1_565 S
C675 C674 1.524 . S
C675 C676 1.397 . S
C675 C680 1.363 1_565 S
C676 H653 0.950 . S
C676 C675 1.397 . S
C676 C677 1.334 . S
C677 H654 0.950 . S
C677 C676 1.334 . S
C677 C678 1.287 . S
C678 C677 1.287 . S
C678 C679 1.524 . S
C678 H697 0.913 . S
C679 H655 0.950 1_565 S
C679 C678 1.524 . S
C679 C680 1.415 1_565 S
C680 H656 0.950 . S
C680 C675 1.363 1_545 S
C680 C679 1.415 1_545 S
C681 H657 0.951 . S
C681 C682 1.366 1_565 S
C681 C683 1.388 . S
C682 C681 1.366 1_545 S
C682 C686 1.385 . S
C683 H658 0.951 . S
C683 C681 1.388 . S
C683 C684 1.366 1_565 S
C684 C683 1.366 1_545 S
C684 C685 1.414 . S
C684 C687 1.499 . S
C685 H659 0.950 . S
C685 C684 1.414 . S
C685 C686 1.374 . S
C686 H660 0.950 . S
C686 C682 1.385 . S
C686 C685 1.374 . S
C687 C684 1.499 . S
C687 C688 1.375 . S
C687 C689 1.389 . S
C688 H661 0.940 1_545 S
C688 C674 1.379 1_545 S
C688 C687 1.375 . S
C689 C673 1.377 . S
C689 C687 1.389 . S
C689 C690 1.524 . S
C690 C689 1.524 . S
C690 C691 1.397 . S
C690 C695 1.352 1_546 S
C691 H662 0.950 . S
C691 C690 1.397 . S
C691 C692 1.334 . S
C692 H663 0.950 . S
C692 C691 1.334 . S
C692 C693 1.287 1_556 S
C693 C692 1.287 1_554 S
C693 C694 1.524 . S
C693 H696 0.999 . S
C694 H664 0.950 1_545 S
C694 C693 1.524 . S
C694 C695 1.427 1_545 S
C695 H665 0.949 . S
C695 C690 1.352 1_564 S
C695 C694 1.427 1_565 S
H696 C693 0.999 . S
H697 C678 0.913 . S
H698 C716 0.951 . S
H699 C718 0.951 . S
H700 C720 0.950 . S
H701 C721 0.950 . S
H702 C723 0.950 . S
H703 C726 0.950 . S
H704 C727 0.950 . S
H705 C729 0.950 . S
H706 C730 0.950 . S
H707 C731 0.951 . S
H708 C733 0.951 . S
H709 C735 0.950 1_554 S
H710 C736 0.950 . S
H711 C738 0.950 . S
H712 C741 0.950 . S
H713 C742 0.950 . S
H714 C744 0.950 . S
H715 C745 0.950 . S
C716 H698 0.951 . S
C716 C717 1.366 . S
C716 C718 1.388 . S
C717 C716 1.366 . S
C717 C721 1.385 . S
C718 H699 0.951 . S
C718 C716 1.388 . S
C718 C719 1.366 . S
C719 C718 1.366 . S
C719 C720 1.414 . S
C719 C722 1.499 . S
C720 H700 0.950 . S
C720 C719 1.414 . S
C720 C721 1.374 . S
C721 H701 0.950 . S
C721 C717 1.385 . S
C721 C720 1.374 . S
C722 C719 1.499 . S
C722 C723 1.373 . S
C722 C724 1.389 . S
C723 H702 0.950 . S
C723 C722 1.373 . S
C723 C739 1.377 . S
C724 C722 1.389 . S
C724 C725 1.524 . S
C724 C738 1.377 . S
C725 C724 1.524 . S
C725 C726 1.397 . S
C725 C730 1.363 . S
C726 H703 0.950 . S
C726 C725 1.397 . S
C726 C727 1.334 . S
C727 H704 0.950 . S
C727 C726 1.334 . S
C727 C728 1.287 . S
C728 C727 1.287 . S
C728 C729 1.524 . S
C728 H747 0.913 . S
C729 H705 0.950 . S
C729 C728 1.524 . S
C729 C730 1.415 . S
C730 H706 0.950 . S
C730 C725 1.363 . S
C730 C729 1.415 . S
C731 H707 0.951 . S
C731 C732 1.366 . S
C731 C733 1.388 . S
C732 C731 1.366 . S
C732 C736 1.385 . S
C733 H708 0.951 . S
C733 C731 1.388 . S
C733 C734 1.366 . S
C734 C733 1.366 . S
C734 C735 1.414 . S
C734 C737 1.499 1_556 S
C735 H709 0.950 1_556 S
C735 C734 1.414 . S
C735 C736 1.374 . S
C736 H710 0.950 . S
C736 C732 1.385 . S
C736 C735 1.374 . S
C737 C734 1.499 1_554 S
C737 C738 1.373 . S
C737 C739 1.389 . S
C738 H711 0.950 . S
C738 C724 1.377 . S
C738 C737 1.373 . S
C739 C723 1.377 . S
C739 C737 1.389 . S
C739 C740 1.524 1_554 S
C740 C739 1.524 1_556 S
C740 C741 1.397 . S
C740 C745 1.363 . S
C741 H712 0.950 . S
C741 C740 1.397 . S
C741 C742 1.334 . S
C742 H713 0.950 . S
C742 C741 1.334 . S
C742 C743 1.287 . S
C743 C742 1.287 . S
C743 C744 1.524 . S
C743 H746 0.999 . S
C744 H714 0.950 . S
C744 C743 1.524 . S
C744 C745 1.415 . S
C745 H715 0.950 . S
C745 C740 1.363 . S
C745 C744 1.415 . S
H746 C743 0.999 . S
H747 C728 0.913 . S
H748 C766 0.962 . S
H749 C768 0.951 . S
H750 C770 0.950 . S
H751 C771 0.950 . S
H752 C773 0.950 . S
H753 C776 0.950 . S
H754 C777 0.950 . S
H755 C779 0.950 . S
H756 C780 0.950 . S
H757 C781 0.951 . S
H758 C783 0.951 . S
H759 C785 0.950 . S
H760 C786 0.950 . S
H761 C788 0.950 . S
H762 C791 0.950 . S
H763 C792 0.950 . S
H764 C794 0.950 . S
H765 C795 0.950 . S
C766 H748 0.962 . S
C766 C767 1.360 1_554 S
C766 C768 1.383 1_554 S
C767 C766 1.360 1_556 S
C767 C771 1.385 . S
C768 H749 0.951 . S
C768 C766 1.383 1_556 S
C768 C769 1.366 . S
C769 C768 1.366 . S
C769 C770 1.414 . S
C769 C772 1.499 . S
C770 H750 0.950 . S
C770 C769 1.414 . S
C770 C771 1.374 . S
C771 H751 0.950 . S
C771 C767 1.385 . S
C771 C770 1.374 . S
C772 C769 1.499 . S
C772 C773 1.373 . S
C772 C774 1.389 . S
C773 H752 0.950 . S
C773 C772 1.373 . S
C773 C789 1.377 . S
C774 C772 1.389 . S
C774 C775 1.524 . S
C774 C788 1.377 . S
C775 C774 1.524 . S
C775 C776 1.397 . S
C775 C780 1.363 . S
C776 H753 0.950 . S
C776 C775 1.397 . S
C776 C777 1.334 . S
C777 H754 0.950 . S
C777 C776 1.334 . S
C777 C778 1.287 . S
C778 C777 1.287 . S
C778 C779 1.524 . S
C778 H797 0.913 . S
C779 H755 0.950 . S
C779 C778 1.524 . S
C779 C780 1.415 . S
C780 H756 0.950 . S
C780 C775 1.363 . S
C780 C779 1.415 . S
C781 H757 0.951 . S
C781 C782 1.366 . S
C781 C783 1.388 . S
C782 C781 1.366 . S
C782 C786 1.385 . S
C783 H758 0.951 . S
C783 C781 1.388 . S
C783 C784 1.366 . S
C784 C783 1.366 . S
C784 C785 1.414 . S
C784 C787 1.499 . S
C785 H759 0.950 . S
C785 C784 1.414 . S
C785 C786 1.374 . S
C786 H760 0.950 . S
C786 C782 1.385 . S
C786 C785 1.374 . S
C787 C784 1.499 . S
C787 C788 1.373 . S
C787 C789 1.389 . S
C788 H761 0.950 . S
C788 C774 1.377 . S
C788 C787 1.373 . S
C789 C773 1.377 . S
C789 C787 1.389 . S
C789 C790 1.524 . S
C790 C789 1.524 . S
C790 C791 1.397 . S
C790 C795 1.363 . S
C791 H762 0.950 . S
C791 C790 1.397 . S
C791 C792 1.334 . S
C792 H763 0.950 . S
C792 C791 1.334 . S
C792 C793 1.287 . S
C793 C792 1.287 . S
C793 C794 1.524 . S
C793 H796 0.999 . S
C794 H764 0.950 . S
C794 C793 1.524 . S
C794 C795 1.415 . S
C795 H765 0.950 . S
C795 C790 1.363 . S
C795 C794 1.415 . S
H796 C793 0.999 . S
H797 C778 0.913 . S
H798 C816 0.951 . S
H799 C818 0.951 . S
H800 C820 0.950 . S
H801 C821 0.966 . S
H802 C823 0.950 . S
H803 C826 0.950 . S
H804 C827 0.950 . S
H805 C829 0.950 . S
H806 C830 0.950 . S
H807 C831 0.951 1_455 S
H808 C833 0.951 . S
H809 C835 0.950 . S
H810 C836 0.950 . S
H811 C838 0.950 . S
H812 C841 0.950 . S
H813 C842 0.950 . S
H814 C844 0.950 . S
H815 C845 0.950 . S
C816 H798 0.951 . S
C816 C817 1.366 . S
C816 C818 1.388 . S
C817 C816 1.366 . S
C817 C821 1.378 1_556 S
C818 H799 0.951 . S
C818 C816 1.388 . S
C818 C819 1.366 . S
C819 C818 1.366 . S
C819 C820 1.414 . S
C819 C822 1.499 . S
C820 H800 0.950 . S
C820 C819 1.414 . S
C820 C821 1.364 1_556 S
C821 H801 0.966 . S
C821 C817 1.378 1_554 S
C821 C820 1.364 1_554 S
C822 C819 1.499 . S
C822 C823 1.373 . S
C822 C824 1.389 . S
C823 H802 0.950 . S
C823 C822 1.373 . S
C823 C839 1.377 . S
C824 C822 1.389 . S
C824 C825 1.524 . S
C824 C838 1.377 . S
C825 C824 1.524 . S
C825 C826 1.397 1_556 S
C825 C830 1.363 . S
C826 H803 0.950 . S
C826 C825 1.397 1_554 S
C826 C827 1.334 . S
C827 H804 0.950 . S
C827 C826 1.334 . S
C827 C828 1.287 . S
C828 C827 1.287 . S
C828 C829 1.524 1_554 S
C828 H847 0.913 . S
C829 H805 0.950 . S
C829 C828 1.524 1_556 S
C829 C830 1.415 . S
C830 H806 0.950 . S
C830 C825 1.363 . S
C830 C829 1.415 . S
C831 H807 0.951 1_655 S
C831 C832 1.366 . S
C831 C833 1.388 . S
C832 C831 1.366 . S
C832 C836 1.385 . S
C833 H808 0.951 . S
C833 C831 1.388 . S
C833 C834 1.366 . S
C834 C833 1.366 . S
C834 C835 1.414 . S
C834 C837 1.499 . S
C835 H809 0.950 . S
C835 C834 1.414 . S
C835 C836 1.374 . S
C836 H810 0.950 . S
C836 C832 1.385 . S
C836 C835 1.374 . S
C837 C834 1.499 . S
C837 C838 1.373 . S
C837 C839 1.389 . S
C838 H811 0.950 . S
C838 C824 1.377 . S
C838 C837 1.373 . S
C839 C823 1.377 . S
C839 C837 1.389 . S
C839 C840 1.524 . S
C840 C839 1.524 . S
C840 C841 1.397 . S
C840 C845 1.363 . S
C841 H812 0.950 . S
C841 C840 1.397 . S
C841 C842 1.334 . S
C842 H813 0.950 . S
C842 C841 1.334 . S
C842 C843 1.287 1_655 S
C843 C842 1.287 1_455 S
C843 C844 1.524 . S
C843 H846 0.999 . S
C844 H814 0.950 . S
C844 C843 1.524 . S
C844 C845 1.415 1_455 S
C845 H815 0.950 . S
C845 C840 1.363 . S
C845 C844 1.415 1_655 S
H846 C843 0.999 . S
H847 C828 0.913 . S
H848 C866 0.951 . S
H849 C868 0.951 . S
H850 C870 0.950 . S
H851 C871 0.950 . S
H852 C873 0.950 . S
H853 C876 0.950 . S
H854 C877 0.950 . S
H855 C879 0.950 . S
H856 C880 0.950 . S
H857 C881 0.951 . S
H858 C883 0.951 . S
H859 C885 0.950 . S
H860 C886 0.950 . S
H861 C888 0.950 . S
H862 C891 0.950 . S
H863 C892 0.950 . S
H864 C894 0.950 . S
H865 C895 0.950 . S
C866 H848 0.951 . S
C866 C867 1.366 . S
C866 C868 1.388 . S
C867 C866 1.366 . S
C867 C871 1.385 . S
C868 H849 0.951 . S
C868 C866 1.388 . S
C868 C869 1.366 . S
C869 C868 1.366 . S
C869 C870 1.414 . S
C869 C872 1.499 . S
C870 H850 0.950 . S
C870 C869 1.414 . S
C870 C871 1.374 . S
C871 H851 0.950 . S
C871 C867 1.385 . S
C871 C870 1.374 . S
C872 C869 1.499 . S
C872 C873 1.373 . S
C872 C874 1.389 . S
C873 H852 0.950 . S
C873 C872 1.373 . S
C873 C889 1.377 . S
C874 C872 1.389 . S
C874 C875 1.524 . S
C874 C888 1.377 . S
C875 C874 1.524 . S
C875 C876 1.397 . S
C875 C880 1.363 . S
C876 H853 0.950 . S
C876 C875 1.397 . S
C876 C877 1.334 . S
C877 H854 0.950 . S
C877 C876 1.334 . S
C877 C878 1.287 . S
C878 C877 1.287 . S
C878 C879 1.524 . S
C878 H897 0.913 . S
C879 H855 0.950 . S
C879 C878 1.524 . S
C879 C880 1.415 . S
C880 H856 0.950 . S
C880 C875 1.363 . S
C880 C879 1.415 . S
C881 H857 0.951 . S
C881 C882 1.366 . S
C881 C883 1.388 . S
C882 C881 1.366 . S
C882 C886 1.385 . S
C883 H858 0.951 . S
C883 C881 1.388 . S
C883 C884 1.366 . S
C884 C883 1.366 . S
C884 C885 1.414 . S
C884 C887 1.499 . S
C885 H859 0.950 . S
C885 C884 1.414 . S
C885 C886 1.374 . S
C886 H860 0.950 . S
C886 C882 1.385 . S
C886 C885 1.374 . S
C887 C884 1.499 . S
C887 C888 1.373 . S
C887 C889 1.389 . S
C888 H861 0.950 . S
C888 C874 1.377 . S
C888 C887 1.373 . S
C889 C873 1.377 . S
C889 C887 1.389 . S
C889 C890 1.524 . S
C890 C889 1.524 . S
C890 C891 1.397 . S
C890 C895 1.363 . S
C891 H862 0.950 . S
C891 C890 1.397 . S
C891 C892 1.334 . S
C892 H863 0.950 . S
C892 C891 1.334 . S
C892 C893 1.287 . S
C893 C892 1.287 . S
C893 C894 1.524 . S
C893 H896 0.999 . S
C894 H864 0.950 . S
C894 C893 1.524 . S
C894 C895 1.415 . S
C895 H865 0.950 . S
C895 C890 1.363 . S
C895 C894 1.415 . S
H896 C893 0.999 . S
H897 C878 0.913 . S
H898 C916 0.951 . S
H899 C918 0.951 . S
H900 C920 0.950 . S
H901 C921 0.950 . S
H902 C923 0.950 . S
H903 C926 0.950 1_545 S
H904 C927 0.950 . S
H905 C929 0.950 . S
H906 C930 0.950 . S
H907 C931 0.951 . S
H908 C933 0.951 . S
H909 C935 0.950 . S
H910 C936 0.950 . S
H911 C938 0.950 . S
H912 C941 0.950 . S
H913 C942 0.950 1_565 S
H914 C944 0.950 . S
H915 C945 0.950 . S
C916 H898 0.951 . S
C916 C917 1.338 1_565 S
C916 C918 1.388 . S
C917 C916 1.338 1_545 S
C917 C921 1.405 . S
C918 H899 0.951 . S
C918 C916 1.388 . S
C918 C919 1.366 . S
C919 C918 1.366 . S
C919 C920 1.414 1_565 S
C919 C922 1.499 . S
C920 H900 0.950 . S
C920 C919 1.414 1_545 S
C920 C921 1.374 . S
C921 H901 0.950 . S
C921 C917 1.405 . S
C921 C920 1.374 . S
C922 C919 1.499 . S
C922 C923 1.373 1_565 S
C922 C924 1.389 . S
C923 H902 0.950 . S
C923 C922 1.373 1_545 S
C923 C939 1.377 . S
C924 C922 1.389 . S
C924 C925 1.524 . S
C924 C938 1.377 . S
C925 C924 1.524 . S
C925 C926 1.397 . S
C925 C930 1.363 . S
C926 H903 0.950 1_565 S
C926 C925 1.397 . S
C926 C927 1.334 . S
C927 H904 0.950 . S
C927 C926 1.334 . S
C927 C928 1.287 . S
C928 C927 1.287 . S
C928 C929 1.524 . S
C928 H947 0.913 . S
C929 H905 0.950 . S
C929 C928 1.524 . S
C929 C930 1.415 . S
C930 H906 0.950 . S
C930 C925 1.363 . S
C930 C929 1.415 . S
C931 H907 0.951 . S
C931 C932 1.366 1_545 S
C931 C933 1.388 . S
C932 C931 1.366 1_565 S
C932 C936 1.385 . S
C933 H908 0.951 . S
C933 C931 1.388 . S
C933 C934 1.366 1_545 S
C934 C933 1.366 1_565 S
C934 C935 1.414 . S
C934 C937 1.499 . S
C935 H909 0.950 . S
C935 C934 1.414 . S
C935 C936 1.374 . S
C936 H910 0.950 . S
C936 C932 1.385 . S
C936 C935 1.374 . S
C937 C934 1.499 . S
C937 C938 1.373 . S
C937 C939 1.389 1_565 S
C938 H911 0.950 . S
C938 C924 1.377 . S
C938 C937 1.373 . S
C939 C923 1.377 . S
C939 C937 1.389 1_545 S
C939 C940 1.524 . S
C940 C939 1.524 . S
C940 C941 1.397 1_545 S
C940 C945 1.363 . S
C941 H912 0.950 . S
C941 C940 1.397 1_565 S
C941 C942 1.334 1_565 S
C942 H913 0.950 1_545 S
C942 C941 1.334 1_545 S
C942 C943 1.287 . S
C943 C942 1.287 . S
C943 C944 1.524 . S
C943 H946 0.999 . S
C944 H914 0.950 . S
C944 C943 1.524 . S
C944 C945 1.415 . S
C945 H915 0.950 . S
C945 C940 1.363 . S
C945 C944 1.415 . S
H946 C943 0.999 . S
H947 C928 0.913 . S
H948 C966 0.951 . S
H949 C968 0.951 . S
H950 C970 0.950 . S
H951 C971 0.950 . S
H952 C973 0.950 . S
H953 C976 0.950 . S
H954 C977 0.950 . S
H955 C979 0.950 . S
H956 C980 0.950 . S
H957 C981 0.951 . S
H958 C983 0.951 . S
H959 C985 0.950 . S
H960 C986 0.950 . S
H961 C988 0.950 . S
H962 C991 0.950 . S
H963 C992 0.950 . S
H964 C994 0.950 . S
H965 C995 0.950 . S
C966 H948 0.951 . S
C966 C967 1.366 . S
C966 C968 1.388 . S
C967 C966 1.366 . S
C967 C971 1.385 . S
C968 H949 0.951 . S
C968 C966 1.388 . S
C968 C969 1.366 . S
C969 C968 1.366 . S
C969 C970 1.414 . S
C969 C972 1.499 . S
C970 H950 0.950 . S
C970 C969 1.414 . S
C970 C971 1.374 . S
C971 H951 0.950 . S
C971 C967 1.385 . S
C971 C970 1.374 . S
C972 C969 1.499 . S
C972 C973 1.373 . S
C972 C974 1.389 . S
C973 H952 0.950 . S
C973 C972 1.373 . S
C973 C989 1.377 . S
C974 C972 1.389 . S
C974 C975 1.524 . S
C974 C988 1.377 . S
C975 C974 1.524 . S
C975 C976 1.397 . S
C975 C980 1.363 . S
C976 H953 0.950 . S
C976 C975 1.397 . S
C976 C977 1.334 . S
C977 H954 0.950 . S
C977 C976 1.334 . S
C977 C978 1.287 . S
C978 C977 1.287 . S
C978 C979 1.524 . S
C978 H997 0.913 . S
C979 H955 0.950 . S
C979 C978 1.524 . S
C979 C980 1.415 . S
C980 H956 0.950 . S
C980 C975 1.363 . S
C980 C979 1.415 . S
C981 H957 0.951 . S
C981 C982 1.366 . S
C981 C983 1.388 . S
C982 C981 1.366 . S
C982 C986 1.385 . S
C983 H958 0.951 . S
C983 C981 1.388 . S
C983 C984 1.366 . S
C984 C983 1.366 . S
C984 C985 1.414 . S
C984 C987 1.499 . S
C985 H959 0.950 . S
C985 C984 1.414 . S
C985 C986 1.374 . S
C986 H960 0.950 . S
C986 C982 1.385 . S
C986 C985 1.374 . S
C987 C984 1.499 . S
C987 C988 1.373 . S
C987 C989 1.389 . S
C988 H961 0.950 . S
C988 C974 1.377 . S
C988 C987 1.373 . S
C989 C973 1.377 . S
C989 C987 1.389 . S
C989 C990 1.524 . S
C990 C989 1.524 . S
C990 C991 1.397 . S
C990 C995 1.363 . S
C991 H962 0.950 . S
C991 C990 1.397 . S
C991 C992 1.334 . S
C992 H963 0.950 . S
C992 C991 1.334 . S
C992 C993 1.287 . S
C993 C992 1.287 . S
C993 C994 1.524 . S
C993 H996 0.999 . S
C994 H964 0.950 . S
C994 C993 1.524 . S
C994 C995 1.415 . S
C995 H965 0.950 . S
C995 C990 1.363 . S
C995 C994 1.415 . S
H996 C993 0.999 . S
H997 C978 0.913 . S
H998 C1016 0.951 . S
H999 C1018 0.951 . S
H1000 C1020 0.950 . S
H1001 C1021 0.950 . S
H1002 C1023 0.950 . S
H1003 C1026 0.950 . S
H1004 C1027 0.950 . S
H1005 C1029 0.950 . S
H1006 C1030 0.950 . S
H1007 C1031 0.951 . S
H1008 C1033 0.951 . S
H1009 C1035 0.950 . S
H1010 C1036 0.950 . S
H1011 C1038 0.950 . S
H1012 C1041 0.950 . S
H1013 C1042 0.950 . S
H1014 C1044 0.950 . S
H1015 C1045 0.950 . S
C1016 H998 0.951 . S
C1016 C1017 1.366 . S
C1016 C1018 1.388 . S
C1017 C1016 1.366 . S
C1017 C1021 1.385 . S
C1018 H999 0.951 . S
C1018 C1016 1.388 . S
C1018 C1019 1.366 . S
C1019 C1018 1.366 . S
C1019 C1020 1.414 . S
C1019 C1022 1.499 . S
C1020 H1000 0.950 . S
C1020 C1019 1.414 . S
C1020 C1021 1.374 . S
C1021 H1001 0.950 . S
C1021 C1017 1.385 . S
C1021 C1020 1.374 . S
C1022 C1019 1.499 . S
C1022 C1023 1.373 . S
C1022 C1024 1.389 . S
C1023 H1002 0.950 . S
C1023 C1022 1.373 . S
C1023 C1039 1.377 . S
C1024 C1022 1.389 . S
C1024 C1025 1.524 . S
C1024 C1038 1.377 . S
C1025 C1024 1.524 . S
C1025 C1026 1.397 . S
C1025 C1030 1.363 . S
C1026 H1003 0.950 . S
C1026 C1025 1.397 . S
C1026 C1027 1.334 . S
C1027 H1004 0.950 . S
C1027 C1026 1.334 . S
C1027 C1028 1.287 . S
C1028 C1027 1.287 . S
C1028 C1029 1.524 . S
C1028 H1047 0.913 . S
C1029 H1005 0.950 . S
C1029 C1028 1.524 . S
C1029 C1030 1.415 . S
C1030 H1006 0.950 . S
C1030 C1025 1.363 . S
C1030 C1029 1.415 . S
C1031 H1007 0.951 . S
C1031 C1032 1.366 . S
C1031 C1033 1.388 . S
C1032 C1031 1.366 . S
C1032 C1036 1.385 . S
C1033 H1008 0.951 . S
C1033 C1031 1.388 . S
C1033 C1034 1.366 . S
C1034 C1033 1.366 . S
C1034 C1035 1.414 . S
C1034 C1037 1.499 . S
C1035 H1009 0.950 . S
C1035 C1034 1.414 . S
C1035 C1036 1.374 . S
C1036 H1010 0.950 . S
C1036 C1032 1.385 . S
C1036 C1035 1.374 . S
C1037 C1034 1.499 . S
C1037 C1038 1.373 . S
C1037 C1039 1.389 . S
C1038 H1011 0.950 . S
C1038 C1024 1.377 . S
C1038 C1037 1.373 . S
C1039 C1023 1.377 . S
C1039 C1037 1.389 . S
C1039 C1040 1.524 . S
C1040 C1039 1.524 . S
C1040 C1041 1.397 . S
C1040 C1045 1.363 . S
C1041 H1012 0.950 . S
C1041 C1040 1.397 . S
C1041 C1042 1.334 . S
C1042 H1013 0.950 . S
C1042 C1041 1.334 . S
C1042 C1043 1.287 . S
C1043 C1042 1.287 . S
C1043 C1044 1.524 . S
C1043 H1046 0.999 . S
C1044 H1014 0.950 . S
C1044 C1043 1.524 . S
C1044 C1045 1.415 . S
C1045 H1015 0.950 . S
C1045 C1040 1.363 . S
C1045 C1044 1.415 . S
H1046 C1043 0.999 . S
H1047 C1028 0.913 . S
H1048 C1066 0.951 . S
H1049 C1068 0.951 . S
H1050 C1070 0.950 . S
H1051 C1071 0.950 . S
H1052 C1073 0.950 . S
H1053 C1076 0.950 . S
H1054 C1077 0.950 . S
H1055 C1079 0.950 1_554 S
H1056 C1080 0.950 . S
H1057 C1081 0.951 . S
H1058 C1083 0.951 . S
H1059 C1085 0.950 . S
H1060 C1086 0.950 . S
H1061 C1088 0.950 . S
H1062 C1091 0.950 . S
H1063 C1092 0.950 . S
H1064 C1094 0.950 . S
H1065 C1095 0.950 . S
C1066 H1048 0.951 . S
C1066 C1067 1.366 . S
C1066 C1068 1.388 . S
C1067 C1066 1.366 . S
C1067 C1071 1.385 . S
C1068 H1049 0.951 . S
C1068 C1066 1.388 . S
C1068 C1069 1.366 . S
C1069 C1068 1.366 . S
C1069 C1070 1.414 . S
C1069 C1072 1.499 . S
C1070 H1050 0.950 . S
C1070 C1069 1.414 . S
C1070 C1071 1.374 . S
C1071 H1051 0.950 . S
C1071 C1067 1.385 . S
C1071 C1070 1.374 . S
C1072 C1069 1.499 . S
C1072 C1073 1.373 . S
C1072 C1074 1.389 . S
C1073 H1052 0.950 . S
C1073 C1072 1.373 . S
C1073 C1089 1.377 . S
C1074 C1072 1.389 . S
C1074 C1075 1.524 . S
C1074 C1088 1.377 . S
C1075 C1074 1.524 . S
C1075 C1076 1.397 . S
C1075 C1080 1.363 . S
C1076 H1053 0.950 . S
C1076 C1075 1.397 . S
C1076 C1077 1.334 . S
C1077 H1054 0.950 . S
C1077 C1076 1.334 . S
C1077 C1078 1.287 . S
C1078 C1077 1.287 . S
C1078 C1079 1.524 . S
C1078 H1097 0.913 . S
C1079 H1055 0.950 1_556 S
C1079 C1078 1.524 . S
C1079 C1080 1.415 . S
C1080 H1056 0.950 . S
C1080 C1075 1.363 . S
C1080 C1079 1.415 . S
C1081 H1057 0.951 . S
C1081 C1082 1.366 . S
C1081 C1083 1.388 . S
C1082 C1081 1.366 . S
C1082 C1086 1.385 . S
C1083 H1058 0.951 . S
C1083 C1081 1.388 . S
C1083 C1084 1.366 . S
C1084 C1083 1.366 . S
C1084 C1085 1.414 . S
C1084 C1087 1.499 . S
C1085 H1059 0.950 . S
C1085 C1084 1.414 . S
C1085 C1086 1.374 . S
C1086 H1060 0.950 . S
C1086 C1082 1.385 . S
C1086 C1085 1.374 . S
C1087 C1084 1.499 . S
C1087 C1088 1.373 . S
C1087 C1089 1.389 . S
C1088 H1061 0.950 . S
C1088 C1074 1.377 . S
C1088 C1087 1.373 . S
C1089 C1073 1.377 . S
C1089 C1087 1.389 . S
C1089 C1090 1.524 . S
C1090 C1089 1.524 . S
C1090 C1091 1.397 . S
C1090 C1095 1.363 . S
C1091 H1062 0.950 . S
C1091 C1090 1.397 . S
C1091 C1092 1.334 1_655 S
C1092 H1063 0.950 . S
C1092 C1091 1.334 1_455 S
C1092 C1093 1.287 . S
C1093 C1092 1.287 . S
C1093 C1094 1.524 1_455 S
C1093 H1096 0.999 . S
C1094 H1064 0.950 . S
C1094 C1093 1.524 1_655 S
C1094 C1095 1.415 . S
C1095 H1065 0.950 . S
C1095 C1090 1.363 . S
C1095 C1094 1.415 . S
H1096 C1093 0.999 . S
H1097 C1078 0.913 . S
H1098 C1116 0.951 . S
H1099 C1118 0.951 . S
H1100 C1120 0.950 . S
H1101 C1121 0.950 . S
H1102 C1123 0.950 . S
H1103 C1126 0.950 1_565 S
H1104 C1127 0.980 . S
H1105 C1129 0.950 . S
H1106 C1130 0.950 . S
H1107 C1131 0.951 . S
H1108 C1133 0.951 . S
H1109 C1135 0.950 . S
H1110 C1136 0.950 . S
H1111 C1138 0.950 . S
H1112 C1141 0.950 . S
H1113 C1142 0.950 . S
H1114 C1144 0.950 . S
H1115 C1145 0.950 . S
C1116 H1098 0.951 . S
C1116 C1117 1.349 1_545 S
C1116 C1118 1.388 . S
C1117 C1116 1.349 1_565 S
C1117 C1121 1.397 . S
C1118 H1099 0.951 . S
C1118 C1116 1.388 . S
C1118 C1119 1.366 . S
C1119 C1118 1.366 . S
C1119 C1120 1.414 1_545 S
C1119 C1122 1.499 . S
C1120 H1100 0.950 . S
C1120 C1119 1.414 1_565 S
C1120 C1121 1.374 . S
C1121 H1101 0.950 . S
C1121 C1117 1.397 . S
C1121 C1120 1.374 . S
C1122 C1119 1.499 . S
C1122 C1123 1.373 1_545 S
C1122 C1124 1.389 . S
C1123 H1102 0.950 . S
C1123 C1122 1.373 1_565 S
C1123 C1139 1.373 1_565 S
C1124 C1122 1.389 . S
C1124 C1125 1.524 . S
C1124 C1138 1.377 . S
C1125 C1124 1.524 . S
C1125 C1126 1.397 . S
C1125 C1130 1.363 . S
C1126 H1103 0.950 1_545 S
C1126 C1125 1.397 . S
C1126 C1127 1.334 . S
C1127 H1104 0.980 . S
C1127 C1126 1.334 . S
C1127 C1128 1.287 . S
C1128 C1127 1.287 . S
C1128 C1129 1.524 . S
C1128 H1147 0.913 1_556 S
C1129 H1105 0.950 . S
C1129 C1128 1.524 . S
C1129 C1130 1.415 . S
C1130 H1106 0.950 . S
C1130 C1125 1.363 . S
C1130 C1129 1.415 . S
C1131 H1107 0.951 . S
C1131 C1132 1.366 1_565 S
C1131 C1133 1.388 . S
C1132 C1131 1.366 1_545 S
C1132 C1136 1.385 . S
C1133 H1108 0.951 . S
C1133 C1131 1.388 . S
C1133 C1134 1.366 1_565 S
C1134 C1133 1.366 1_545 S
C1134 C1135 1.414 . S
C1134 C1137 1.499 . S
C1135 H1109 0.950 . S
C1135 C1134 1.414 . S
C1135 C1136 1.374 . S
C1136 H1110 0.950 . S
C1136 C1132 1.385 . S
C1136 C1135 1.374 . S
C1137 C1134 1.499 . S
C1137 C1138 1.373 . S
C1137 C1139 1.396 . S
C1138 H1111 0.950 . S
C1138 C1124 1.377 . S
C1138 C1137 1.373 . S
C1139 C1123 1.373 1_545 S
C1139 C1137 1.396 . S
C1139 C1140 1.521 1_545 S
C1140 C1139 1.521 1_565 S
C1140 C1141 1.397 1_565 S
C1140 C1145 1.363 . S
C1141 H1112 0.950 . S
C1141 C1140 1.397 1_545 S
C1141 C1142 1.334 . S
C1142 H1113 0.950 . S
C1142 C1141 1.334 . S
C1142 C1143 1.287 1_545 S
C1143 C1142 1.287 1_565 S
C1143 C1144 1.524 . S
C1143 H1146 0.999 . S
C1144 H1114 0.950 . S
C1144 C1143 1.524 . S
C1144 C1145 1.415 . S
C1145 H1115 0.950 . S
C1145 C1140 1.363 . S
C1145 C1144 1.415 . S
H1146 C1143 0.999 . S
H1147 C1128 0.913 1_554 S
H1148 C1166 0.951 . S
H1149 C1168 0.951 . S
H1150 C1170 0.950 . S
H1151 C1171 0.950 . S
H1152 C1173 0.950 . S
H1153 C1176 0.950 . S
H1154 C1177 0.950 . S
H1155 C1179 0.950 . S
H1156 C1180 0.950 . S
H1157 C1181 0.951 1_554 S
H1158 C1183 0.951 . S
H1159 C1185 0.950 . S
H1160 C1186 0.950 . S
H1161 C1188 0.950 1_556 S
H1162 C1191 0.950 1_556 S
H1163 C1192 0.950 . S
H1164 C1194 0.950 . S
H1165 C1195 0.950 . S
C1166 H1148 0.951 . S
C1166 C1167 1.366 . S
C1166 C1168 1.388 . S
C1167 C1166 1.366 . S
C1167 C1171 1.385 . S
C1168 H1149 0.951 . S
C1168 C1166 1.388 . S
C1168 C1169 1.366 . S
C1169 C1168 1.366 . S
C1169 C1170 1.414 . S
C1169 C1172 1.499 . S
C1170 H1150 0.950 . S
C1170 C1169 1.414 . S
C1170 C1171 1.374 . S
C1171 H1151 0.950 . S
C1171 C1167 1.385 . S
C1171 C1170 1.374 . S
C1172 C1169 1.499 . S
C1172 C1173 1.373 . S
C1172 C1174 1.389 . S
C1173 H1152 0.950 . S
C1173 C1172 1.373 . S
C1173 C1189 1.377 . S
C1174 C1172 1.389 . S
C1174 C1175 1.524 . S
C1174 C1188 1.377 . S
C1175 C1174 1.524 . S
C1175 C1176 1.397 . S
C1175 C1180 1.363 1_554 S
C1176 H1153 0.950 . S
C1176 C1175 1.397 . S
C1176 C1177 1.334 . S
C1177 H1154 0.950 . S
C1177 C1176 1.334 . S
C1177 C1178 1.287 . S
C1178 C1177 1.287 . S
C1178 C1179 1.524 1_554 S
C1178 H1197 0.913 1_554 S
C1179 H1155 0.950 . S
C1179 C1178 1.524 1_556 S
C1179 C1180 1.415 . S
C1180 H1156 0.950 . S
C1180 C1175 1.363 1_556 S
C1180 C1179 1.415 . S
C1181 H1157 0.951 1_556 S
C1181 C1182 1.366 . S
C1181 C1183 1.388 1_556 S
C1182 C1181 1.366 . S
C1182 C1186 1.385 . S
C1183 H1158 0.951 . S
C1183 C1181 1.388 1_554 S
C1183 C1184 1.366 1_554 S
C1184 C1183 1.366 1_556 S
C1184 C1185 1.414 . S
C1184 C1187 1.499 1_556 S
C1185 H1159 0.950 . S
C1185 C1184 1.414 . S
C1185 C1186 1.374 . S
C1186 H1160 0.950 . S
C1186 C1182 1.385 . S
C1186 C1185 1.374 . S
C1187 C1184 1.499 1_554 S
C1187 C1188 1.373 . S
C1187 C1189 1.389 . S
C1188 H1161 0.950 1_554 S
C1188 C1174 1.377 . S
C1188 C1187 1.373 . S
C1189 C1173 1.377 . S
C1189 C1187 1.389 . S
C1189 C1190 1.524 . S
C1190 C1189 1.524 . S
C1190 C1191 1.397 . S
C1190 C1195 1.363 . S
C1191 H1162 0.950 1_554 S
C1191 C1190 1.397 . S
C1191 C1192 1.334 . S
C1192 H1163 0.950 . S
C1192 C1191 1.334 . S
C1192 C1193 1.287 . S
C1193 C1192 1.287 . S
C1193 C1194 1.524 . S
C1193 H1196 0.999 . S
C1194 H1164 0.950 . S
C1194 C1193 1.524 . S
C1194 C1195 1.415 . S
C1195 H1165 0.950 . S
C1195 C1190 1.363 . S
C1195 C1194 1.415 . S
H1196 C1193 0.999 . S
H1197 C1178 0.913 1_556 S
H1198 C1216 0.951 . S
H1199 C1218 0.951 . S
H1200 C1220 0.950 . S
H1201 C1221 0.950 . S
H1202 C1223 0.950 . S
H1203 C1226 0.950 . S
H1204 C1227 0.950 . S
H1205 C1229 0.950 . S
H1206 C1230 0.950 . S
H1207 C1231 0.951 . S
H1208 C1233 0.951 . S
H1209 C1235 0.950 . S
H1210 C1236 0.950 . S
H1211 C1238 0.950 . S
H1212 C1241 0.950 . S
H1213 C1242 0.950 . S
H1214 C1244 0.950 . S
H1215 C1245 0.950 . S
C1216 H1198 0.951 . S
C1216 C1217 1.366 . S
C1216 C1218 1.388 . S
C1217 C1216 1.366 . S
C1217 C1221 1.385 . S
C1218 H1199 0.951 . S
C1218 C1216 1.388 . S
C1218 C1219 1.366 . S
C1219 C1218 1.366 . S
C1219 C1220 1.414 . S
C1219 C1222 1.499 . S
C1220 H1200 0.950 . S
C1220 C1219 1.414 . S
C1220 C1221 1.374 . S
C1221 H1201 0.950 . S
C1221 C1217 1.385 . S
C1221 C1220 1.374 . S
C1222 C1219 1.499 . S
C1222 C1223 1.373 . S
C1222 C1224 1.389 . S
C1223 H1202 0.950 . S
C1223 C1222 1.373 . S
C1223 C1239 1.377 . S
C1224 C1222 1.389 . S
C1224 C1225 1.524 . S
C1224 C1238 1.377 . S
C1225 C1224 1.524 . S
C1225 C1226 1.397 . S
C1225 C1230 1.363 . S
C1226 H1203 0.950 . S
C1226 C1225 1.397 . S
C1226 C1227 1.334 . S
C1227 H1204 0.950 . S
C1227 C1226 1.334 . S
C1227 C1228 1.287 . S
C1228 C1227 1.287 . S
C1228 C1229 1.524 . S
C1228 H1247 0.913 . S
C1229 H1205 0.950 . S
C1229 C1228 1.524 . S
C1229 C1230 1.415 . S
C1230 H1206 0.950 . S
C1230 C1225 1.363 . S
C1230 C1229 1.415 . S
C1231 H1207 0.951 . S
C1231 C1232 1.366 . S
C1231 C1233 1.388 . S
C1232 C1231 1.366 . S
C1232 C1236 1.385 . S
C1233 H1208 0.951 . S
C1233 C1231 1.388 . S
C1233 C1234 1.366 . S
C1234 C1233 1.366 . S
C1234 C1235 1.414 . S
C1234 C1237 1.499 . S
C1235 H1209 0.950 . S
C1235 C1234 1.414 . S
C1235 C1236 1.374 . S
C1236 H1210 0.950 . S
C1236 C1232 1.385 . S
C1236 C1235 1.374 . S
C1237 C1234 1.499 . S
C1237 C1238 1.373 . S
C1237 C1239 1.389 . S
C1238 H1211 0.950 . S
C1238 C1224 1.377 . S
C1238 C1237 1.373 . S
C1239 C1223 1.377 . S
C1239 C1237 1.389 . S
C1239 C1240 1.524 . S
C1240 C1239 1.524 . S
C1240 C1241 1.397 . S
C1240 C1245 1.363 . S
C1241 H1212 0.950 . S
C1241 C1240 1.397 . S
C1241 C1242 1.334 . S
C1242 H1213 0.950 . S
C1242 C1241 1.334 . S
C1242 C1243 1.287 . S
C1243 C1242 1.287 . S
C1243 C1244 1.524 . S
C1243 H1246 0.999 . S
C1244 H1214 0.950 . S
C1244 C1243 1.524 . S
C1244 C1245 1.415 . S
C1245 H1215 0.950 . S
C1245 C1240 1.363 . S
C1245 C1244 1.415 . S
H1246 C1243 0.999 . S
H1247 C1228 0.913 . S
H1248 C1266 0.951 . S
H1249 C1268 0.951 . S
H1250 C1270 0.950 . S
H1251 C1271 0.950 . S
H1252 C1273 0.950 . S
H1253 C1276 0.950 . S
H1254 C1277 0.950 . S
H1255 C1279 0.950 . S
H1256 C1280 0.950 . S
H1257 C1281 0.951 1_556 S
H1258 C1283 0.951 . S
H1259 C1285 0.950 . S
H1260 C1286 0.950 . S
H1261 C1288 0.950 . S
H1262 C1291 0.950 . S
H1263 C1292 0.950 . S
H1264 C1294 0.950 . S
H1265 C1295 0.950 . S
C1266 H1248 0.951 . S
C1266 C1267 1.366 . S
C1266 C1268 1.388 . S
C1267 C1266 1.366 . S
C1267 C1271 1.385 . S
C1268 H1249 0.951 . S
C1268 C1266 1.388 . S
C1268 C1269 1.366 . S
C1269 C1268 1.366 . S
C1269 C1270 1.414 . S
C1269 C1272 1.499 . S
C1270 H1250 0.950 . S
C1270 C1269 1.414 . S
C1270 C1271 1.374 . S
C1271 H1251 0.950 . S
C1271 C1267 1.385 . S
C1271 C1270 1.374 . S
C1272 C1269 1.499 . S
C1272 C1273 1.373 . S
C1272 C1274 1.389 . S
C1273 H1252 0.950 . S
C1273 C1272 1.373 . S
C1273 C1289 1.377 . S
C1274 C1272 1.389 . S
C1274 C1275 1.524 . S
C1274 C1288 1.377 . S
C1275 C1274 1.524 . S
C1275 C1276 1.397 . S
C1275 C1280 1.363 . S
C1276 H1253 0.950 . S
C1276 C1275 1.397 . S
C1276 C1277 1.334 . S
C1277 H1254 0.950 . S
C1277 C1276 1.334 . S
C1277 C1278 1.287 . S
C1278 C1277 1.287 . S
C1278 C1279 1.524 . S
C1278 H1297 0.913 . S
C1279 H1255 0.950 . S
C1279 C1278 1.524 . S
C1279 C1280 1.415 . S
C1280 H1256 0.950 . S
C1280 C1275 1.363 . S
C1280 C1279 1.415 . S
C1281 H1257 0.951 1_554 S
C1281 C1282 1.366 . S
C1281 C1283 1.388 . S
C1282 C1281 1.366 . S
C1282 C1286 1.385 . S
C1283 H1258 0.951 . S
C1283 C1281 1.388 . S
C1283 C1284 1.366 . S
C1284 C1283 1.366 . S
C1284 C1285 1.414 . S
C1284 C1287 1.499 . S
C1285 H1259 0.950 . S
C1285 C1284 1.414 . S
C1285 C1286 1.374 . S
C1286 H1260 0.950 . S
C1286 C1282 1.385 . S
C1286 C1285 1.374 . S
C1287 C1284 1.499 . S
C1287 C1288 1.373 . S
C1287 C1289 1.389 . S
C1288 H1261 0.950 . S
C1288 C1274 1.377 . S
C1288 C1287 1.373 . S
C1289 C1273 1.377 . S
C1289 C1287 1.389 . S
C1289 C1290 1.524 . S
C1290 C1289 1.524 . S
C1290 C1291 1.397 . S
C1290 C1295 1.363 . S
C1291 H1262 0.950 . S
C1291 C1290 1.397 . S
C1291 C1292 1.334 . S
C1292 H1263 0.950 . S
C1292 C1291 1.334 . S
C1292 C1293 1.287 . S
C1293 C1292 1.287 . S
C1293 C1294 1.524 . S
C1293 H1296 0.999 . S
C1294 H1264 0.950 . S
C1294 C1293 1.524 . S
C1294 C1295 1.415 . S
C1295 H1265 0.950 . S
C1295 C1290 1.363 . S
C1295 C1294 1.415 . S
H1296 C1293 0.999 . S
H1297 C1278 0.913 . S
H1298 C1316 0.951 . S
H1299 C1318 0.951 . S
H1300 C1320 0.950 . S
H1301 C1321 0.950 . S
H1302 C1323 0.950 . S
H1303 C1326 0.950 . S
H1304 C1327 0.950 . S
H1305 C1329 0.950 . S
H1306 C1330 0.950 . S
H1307 C1331 0.941 1_565 S
H1308 C1333 0.951 . S
H1309 C1335 0.950 . S
H1310 C1336 0.950 . S
H1311 C1338 0.950 . S
H1312 C1341 0.950 . S
H1313 C1342 0.950 1_545 S
H1314 C1344 0.950 . S
H1315 C1345 0.950 . S
C1316 H1298 0.951 . S
C1316 C1317 1.366 . S
C1316 C1318 1.388 . S
C1317 C1316 1.366 . S
C1317 C1321 1.385 1_545 S
C1318 H1299 0.951 . S
C1318 C1316 1.388 . S
C1318 C1319 1.366 . S
C1319 C1318 1.366 . S
C1319 C1320 1.414 1_545 S
C1319 C1322 1.499 . S
C1320 H1300 0.950 . S
C1320 C1319 1.414 1_565 S
C1320 C1321 1.374 . S
C1321 H1301 0.950 . S
C1321 C1317 1.385 1_565 S
C1321 C1320 1.374 . S
C1322 C1319 1.499 . S
C1322 C1323 1.373 1_545 S
C1322 C1324 1.389 . S
C1323 H1302 0.950 . S
C1323 C1322 1.373 1_565 S
C1323 C1339 1.378 1_565 S
C1324 C1322 1.389 . S
C1324 C1325 1.524 . S
C1324 C1338 1.377 . S
C1325 C1324 1.524 . S
C1325 C1326 1.397 . S
C1325 C1330 1.363 . S
C1326 H1303 0.950 . S
C1326 C1325 1.397 . S
C1326 C1327 1.334 . S
C1327 H1304 0.950 . S
C1327 C1326 1.334 . S
C1327 C1328 1.287 . S
C1328 C1327 1.287 . S
C1328 C1329 1.524 . S
C1328 H1347 0.913 . S
C1329 H1305 0.950 . S
C1329 C1328 1.524 . S
C1329 C1330 1.415 . S
C1330 H1306 0.950 . S
C1330 C1325 1.363 . S
C1330 C1329 1.415 . S
C1331 H1307 0.941 1_545 S
C1331 C1332 1.374 . S
C1331 C1333 1.389 1_545 S
C1332 C1331 1.374 . S
C1332 C1336 1.385 . S
C1333 H1308 0.951 . S
C1333 C1331 1.389 1_565 S
C1333 C1334 1.366 1_565 S
C1334 C1333 1.366 1_545 S
C1334 C1335 1.414 . S
C1334 C1337 1.499 . S
C1335 H1309 0.950 . S
C1335 C1334 1.414 . S
C1335 C1336 1.374 . S
C1336 H1310 0.950 . S
C1336 C1332 1.385 . S
C1336 C1335 1.374 . S
C1337 C1334 1.499 . S
C1337 C1338 1.373 . S
C1337 C1339 1.401 . S
C1338 H1311 0.950 . S
C1338 C1324 1.377 . S
C1338 C1337 1.373 . S
C1339 C1323 1.378 1_545 S
C1339 C1337 1.401 . S
C1339 C1340 1.512 1_545 S
C1340 C1339 1.512 1_565 S
C1340 C1341 1.397 1_565 S
C1340 C1345 1.363 . S
C1341 H1312 0.950 . S
C1341 C1340 1.397 1_545 S
C1341 C1342 1.334 1_545 S
C1342 H1313 0.950 1_565 S
C1342 C1341 1.334 1_565 S
C1342 C1343 1.287 . S
C1343 C1342 1.287 . S
C1343 C1344 1.524 . S
C1343 H1346 0.999 . S
C1344 H1314 0.950 . S
C1344 C1343 1.524 . S
C1344 C1345 1.415 . S
C1345 H1315 0.950 . S
C1345 C1340 1.363 . S
C1345 C1344 1.415 . S
H1346 C1343 0.999 . S
H1347 C1328 0.913 . S
H1348 C1366 0.951 . S
H1349 C1368 0.951 . S
H1350 C1370 0.950 . S
H1351 C1371 0.950 . S
H1352 C1373 0.950 . S
H1353 C1376 0.950 . S
H1354 C1377 0.950 . S
H1355 C1379 0.950 . S
H1356 C1380 0.950 . S
H1357 C1381 0.951 . S
H1358 C1383 0.951 . S
H1359 C1385 0.950 . S
H1360 C1386 0.950 . S
H1361 C1388 0.950 . S
H1362 C1391 0.950 . S
H1363 C1392 0.950 . S
H1364 C1394 0.950 . S
H1365 C1395 0.950 1_554 S
C1366 H1348 0.951 . S
C1366 C1367 1.366 1_556 S
C1366 C1368 1.388 . S
C1367 C1366 1.366 1_554 S
C1367 C1371 1.385 . S
C1368 H1349 0.951 . S
C1368 C1366 1.388 . S
C1368 C1369 1.366 . S
C1369 C1368 1.366 . S
C1369 C1370 1.414 1_556 S
C1369 C1372 1.499 . S
C1370 H1350 0.950 . S
C1370 C1369 1.414 1_554 S
C1370 C1371 1.374 . S
C1371 H1351 0.950 . S
C1371 C1367 1.385 . S
C1371 C1370 1.374 . S
C1372 C1369 1.499 . S
C1372 C1373 1.373 . S
C1372 C1374 1.389 . S
C1373 H1352 0.950 . S
C1373 C1372 1.373 . S
C1373 C1389 1.377 . S
C1374 C1372 1.389 . S
C1374 C1375 1.524 . S
C1374 C1388 1.377 . S
C1375 C1374 1.524 . S
C1375 C1376 1.397 1_556 S
C1375 C1380 1.363 . S
C1376 H1353 0.950 . S
C1376 C1375 1.397 1_554 S
C1376 C1377 1.334 . S
C1377 H1354 0.950 . S
C1377 C1376 1.334 . S
C1377 C1378 1.287 1_554 S
C1378 C1377 1.287 1_556 S
C1378 C1379 1.524 . S
C1378 H1397 0.913 . S
C1379 H1355 0.950 . S
C1379 C1378 1.524 . S
C1379 C1380 1.415 . S
C1380 H1356 0.950 . S
C1380 C1375 1.363 . S
C1380 C1379 1.415 . S
C1381 H1357 0.951 . S
C1381 C1382 1.366 . S
C1381 C1383 1.388 . S
C1382 C1381 1.366 . S
C1382 C1386 1.385 . S
C1383 H1358 0.951 . S
C1383 C1381 1.388 . S
C1383 C1384 1.366 . S
C1384 C1383 1.366 . S
C1384 C1385 1.414 . S
C1384 C1387 1.499 . S
C1385 H1359 0.950 . S
C1385 C1384 1.414 . S
C1385 C1386 1.374 . S
C1386 H1360 0.950 . S
C1386 C1382 1.385 . S
C1386 C1385 1.374 . S
C1387 C1384 1.499 . S
C1387 C1388 1.373 . S
C1387 C1389 1.389 . S
C1388 H1361 0.950 . S
C1388 C1374 1.377 . S
C1388 C1387 1.373 . S
C1389 C1373 1.377 . S
C1389 C1387 1.389 . S
C1389 C1390 1.524 . S
C1390 C1389 1.524 . S
C1390 C1391 1.397 . S
C1390 C1395 1.363 . S
C1391 H1362 0.950 . S
C1391 C1390 1.397 . S
C1391 C1392 1.334 . S
C1392 H1363 0.950 . S
C1392 C1391 1.334 . S
C1392 C1393 1.287 . S
C1393 C1392 1.287 . S
C1393 C1394 1.524 . S
C1393 H1396 0.999 . S
C1394 H1364 0.950 . S
C1394 C1393 1.524 . S
C1394 C1395 1.415 . S
C1395 H1365 0.950 1_556 S
C1395 C1390 1.363 . S
C1395 C1394 1.415 . S
H1396 C1393 0.999 . S
H1397 C1378 0.913 . S
H1398 C1416 0.951 . S
H1399 C1418 0.951 . S
H1400 C1420 0.950 . S
H1401 C1421 0.950 . S
H1402 C1423 0.950 . S
H1403 C1426 0.950 . S
H1404 C1427 0.950 . S
H1405 C1429 0.950 . S
H1406 C1430 0.950 . S
H1407 C1431 0.951 . S
H1408 C1433 0.951 . S
H1409 C1435 0.950 . S
H1410 C1436 0.950 . S
H1411 C1438 0.950 . S
H1412 C1441 0.950 . S
H1413 C1442 0.950 1_556 S
H1414 C1444 0.950 . S
H1415 C1445 0.950 . S
C1416 H1398 0.951 . S
C1416 C1417 1.366 . S
C1416 C1418 1.388 . S
C1417 C1416 1.366 . S
C1417 C1421 1.385 . S
C1418 H1399 0.951 . S
C1418 C1416 1.388 . S
C1418 C1419 1.366 . S
C1419 C1418 1.366 . S
C1419 C1420 1.414 . S
C1419 C1422 1.499 . S
C1420 H1400 0.950 . S
C1420 C1419 1.414 . S
C1420 C1421 1.374 . S
C1421 H1401 0.950 . S
C1421 C1417 1.385 . S
C1421 C1420 1.374 . S
C1422 C1419 1.499 . S
C1422 C1423 1.373 . S
C1422 C1424 1.389 . S
C1423 H1402 0.950 . S
C1423 C1422 1.373 . S
C1423 C1439 1.377 . S
C1424 C1422 1.389 . S
C1424 C1425 1.524 . S
C1424 C1438 1.377 . S
C1425 C1424 1.524 . S
C1425 C1426 1.397 . S
C1425 C1430 1.363 . S
C1426 H1403 0.950 . S
C1426 C1425 1.397 . S
C1426 C1427 1.334 . S
C1427 H1404 0.950 . S
C1427 C1426 1.334 . S
C1427 C1428 1.287 . S
C1428 C1427 1.287 . S
C1428 C1429 1.524 . S
C1428 H1447 0.913 . S
C1429 H1405 0.950 . S
C1429 C1428 1.524 . S
C1429 C1430 1.415 . S
C1430 H1406 0.950 . S
C1430 C1425 1.363 . S
C1430 C1429 1.415 . S
C1431 H1407 0.951 . S
C1431 C1432 1.366 . S
C1431 C1433 1.388 . S
C1432 C1431 1.366 . S
C1432 C1436 1.385 . S
C1433 H1408 0.951 . S
C1433 C1431 1.388 . S
C1433 C1434 1.366 . S
C1434 C1433 1.366 . S
C1434 C1435 1.414 . S
C1434 C1437 1.499 . S
C1435 H1409 0.950 . S
C1435 C1434 1.414 . S
C1435 C1436 1.374 . S
C1436 H1410 0.950 . S
C1436 C1432 1.385 . S
C1436 C1435 1.374 . S
C1437 C1434 1.499 . S
C1437 C1438 1.373 . S
C1437 C1439 1.389 . S
C1438 H1411 0.950 . S
C1438 C1424 1.377 . S
C1438 C1437 1.373 . S
C1439 C1423 1.377 . S
C1439 C1437 1.389 . S
C1439 C1440 1.524 . S
C1440 C1439 1.524 . S
C1440 C1441 1.397 . S
C1440 C1445 1.363 . S
C1441 H1412 0.950 . S
C1441 C1440 1.397 . S
C1441 C1442 1.334 . S
C1442 H1413 0.950 1_554 S
C1442 C1441 1.334 . S
C1442 C1443 1.287 . S
C1443 C1442 1.287 . S
C1443 C1444 1.524 . S
C1443 H1446 0.999 . S
C1444 H1414 0.950 . S
C1444 C1443 1.524 . S
C1444 C1445 1.415 . S
C1445 H1415 0.950 . S
C1445 C1440 1.363 . S
C1445 C1444 1.415 . S
H1446 C1443 0.999 . S
H1447 C1428 0.913 . S
H1448 C1466 0.951 . S
H1449 C1468 0.951 . S
H1450 C1470 0.950 . S
H1451 C1471 0.950 . S
H1452 C1473 0.950 . S
H1453 C1476 0.950 . S
H1454 C1477 0.950 . S
H1455 C1479 0.950 . S
H1456 C1480 0.950 . S
H1457 C1481 0.951 . S
H1458 C1483 0.951 . S
H1459 C1485 0.950 . S
H1460 C1486 0.950 . S
H1461 C1488 0.950 . S
H1462 C1491 0.950 . S
H1463 C1492 0.950 . S
H1464 C1494 0.949 . S
H1465 C1495 0.950 . S
C1466 H1448 0.951 . S
C1466 C1467 1.366 . S
C1466 C1468 1.388 . S
C1467 C1466 1.366 . S
C1467 C1471 1.385 . S
C1468 H1449 0.951 . S
C1468 C1466 1.388 . S
C1468 C1469 1.366 . S
C1469 C1468 1.366 . S
C1469 C1470 1.414 . S
C1469 C1472 1.499 . S
C1470 H1450 0.950 . S
C1470 C1469 1.414 . S
C1470 C1471 1.374 . S
C1471 H1451 0.950 . S
C1471 C1467 1.385 . S
C1471 C1470 1.374 . S
C1472 C1469 1.499 . S
C1472 C1473 1.373 . S
C1472 C1474 1.389 . S
C1473 H1452 0.950 . S
C1473 C1472 1.373 . S
C1473 C1489 1.377 . S
C1474 C1472 1.389 . S
C1474 C1475 1.524 . S
C1474 C1488 1.377 . S
C1475 C1474 1.524 . S
C1475 C1476 1.397 . S
C1475 C1480 1.363 . S
C1476 H1453 0.950 . S
C1476 C1475 1.397 . S
C1476 C1477 1.334 . S
C1477 H1454 0.950 . S
C1477 C1476 1.334 . S
C1477 C1478 1.287 . S
C1478 C1477 1.287 . S
C1478 C1479 1.524 . S
C1478 H1497 0.913 . S
C1479 H1455 0.950 . S
C1479 C1478 1.524 . S
C1479 C1480 1.415 . S
C1480 H1456 0.950 . S
C1480 C1475 1.363 . S
C1480 C1479 1.415 . S
C1481 H1457 0.951 . S
C1481 C1482 1.366 . S
C1481 C1483 1.388 . S
C1482 C1481 1.366 . S
C1482 C1486 1.385 . S
C1483 H1458 0.951 . S
C1483 C1481 1.388 . S
C1483 C1484 1.366 . S
C1484 C1483 1.366 . S
C1484 C1485 1.414 . S
C1484 C1487 1.499 . S
C1485 H1459 0.950 . S
C1485 C1484 1.414 . S
C1485 C1486 1.374 . S
C1486 H1460 0.950 . S
C1486 C1482 1.385 . S
C1486 C1485 1.374 . S
C1487 C1484 1.499 . S
C1487 C1488 1.373 . S
C1487 C1489 1.389 . S
C1488 H1461 0.950 . S
C1488 C1474 1.377 . S
C1488 C1487 1.373 . S
C1489 C1473 1.377 . S
C1489 C1487 1.389 . S
C1489 C1490 1.524 . S
C1490 C1489 1.524 . S
C1490 C1491 1.397 . S
C1490 C1495 1.363 . S
C1491 H1462 0.950 . S
C1491 C1490 1.397 . S
C1491 C1492 1.334 . S
C1492 H1463 0.950 . S
C1492 C1491 1.334 . S
C1492 C1493 1.287 . S
C1493 C1492 1.287 . S
C1493 C1494 1.524 . S
C1493 H1496 0.999 . S
C1494 H1464 0.949 . S
C1494 C1493 1.524 . S
C1494 C1495 1.415 . S
C1495 H1465 0.950 . S
C1495 C1490 1.363 . S
C1495 C1494 1.415 . S
H1496 C1493 0.999 . S
H1497 C1478 0.913 . S
H1498 C1516 0.951 . S
H1499 C1518 0.951 . S
H1500 C1520 0.934 1_545 S
H1501 C1521 0.950 . S
H1502 C1523 0.950 . S
H1503 C1526 0.950 . S
H1504 C1527 0.950 . S
H1505 C1529 0.950 . S
H1506 C1530 0.950 . S
H1507 C1531 0.951 . S
H1508 C1533 0.951 . S
H1509 C1535 0.950 . S
H1510 C1536 0.950 . S
H1511 C1538 0.950 . S
H1512 C1541 0.950 . S
H1513 C1542 0.950 . S
H1514 C1544 0.950 . S
H1515 C1545 0.950 . S
C1516 H1498 0.951 . S
C1516 C1517 1.366 . S
C1516 C1518 1.388 . S
C1517 C1516 1.366 . S
C1517 C1521 1.385 1_565 S
C1518 H1499 0.951 . S
C1518 C1516 1.388 . S
C1518 C1519 1.366 . S
C1519 C1518 1.366 . S
C1519 C1520 1.427 . S
C1519 C1522 1.499 . S
C1520 H1500 0.934 1_565 S
C1520 C1519 1.427 . S
C1520 C1521 1.382 1_565 S
C1521 H1501 0.950 . S
C1521 C1517 1.385 1_545 S
C1521 C1520 1.382 1_545 S
C1522 C1519 1.499 . S
C1522 C1523 1.373 1_565 S
C1522 C1524 1.389 . S
C1523 H1502 0.950 . S
C1523 C1522 1.373 1_545 S
C1523 C1539 1.377 . S
C1524 C1522 1.389 . S
C1524 C1525 1.524 . S
C1524 C1538 1.377 . S
C1525 C1524 1.524 . S
C1525 C1526 1.397 . S
C1525 C1530 1.363 . S
C1526 H1503 0.950 . S
C1526 C1525 1.397 . S
C1526 C1527 1.334 . S
C1527 H1504 0.950 . S
C1527 C1526 1.334 . S
C1527 C1528 1.287 . S
C1528 C1527 1.287 . S
C1528 C1529 1.524 . S
C1528 H1547 0.913 . S
C1529 H1505 0.950 . S
C1529 C1528 1.524 . S
C1529 C1530 1.415 . S
C1530 H1506 0.950 . S
C1530 C1525 1.363 . S
C1530 C1529 1.415 . S
C1531 H1507 0.951 . S
C1531 C1532 1.366 . S
C1531 C1533 1.388 . S
C1532 C1531 1.366 . S
C1532 C1536 1.385 . S
C1533 H1508 0.951 . S
C1533 C1531 1.388 . S
C1533 C1534 1.366 . S
C1534 C1533 1.366 . S
C1534 C1535 1.414 . S
C1534 C1537 1.499 . S
C1535 H1509 0.950 . S
C1535 C1534 1.414 . S
C1535 C1536 1.374 . S
C1536 H1510 0.950 . S
C1536 C1532 1.385 . S
C1536 C1535 1.374 . S
C1537 C1534 1.499 . S
C1537 C1538 1.373 . S
C1537 C1539 1.389 1_565 S
C1538 H1511 0.950 . S
C1538 C1524 1.377 . S
C1538 C1537 1.373 . S
C1539 C1523 1.377 . S
C1539 C1537 1.389 1_545 S
C1539 C1540 1.524 . S
C1540 C1539 1.524 . S
C1540 C1541 1.397 . S
C1540 C1545 1.363 . S
C1541 H1512 0.950 . S
C1541 C1540 1.397 . S
C1541 C1542 1.334 . S
C1542 H1513 0.950 . S
C1542 C1541 1.334 . S
C1542 C1543 1.287 . S
C1543 C1542 1.287 . S
C1543 C1544 1.524 . S
C1543 H1546 0.999 . S
C1544 H1514 0.950 . S
C1544 C1543 1.524 . S
C1544 C1545 1.415 . S
C1545 H1515 0.950 . S
C1545 C1540 1.363 . S
C1545 C1544 1.415 . S
H1546 C1543 0.999 . S
H1547 C1528 0.913 . S
H1548 C1566 0.951 . S
H1549 C1568 0.951 . S
H1550 C1570 0.950 . S
H1551 C1571 0.950 . S
H1552 C1573 0.950 . S
H1553 C1576 0.950 . S
H1554 C1577 0.950 . S
H1555 C1579 0.950 . S
H1556 C1580 0.950 . S
H1557 C1581 0.951 . S
H1558 C1583 0.951 . S
H1559 C1585 0.950 . S
H1560 C1586 0.950 . S
H1561 C1588 0.950 . S
H1562 C1591 0.950 . S
H1563 C1592 0.950 . S
H1564 C1594 0.950 . S
H1565 C1595 0.950 . S
C1566 H1548 0.951 . S
C1566 C1567 1.366 . S
C1566 C1568 1.388 . S
C1567 C1566 1.366 . S
C1567 C1571 1.385 . S
C1568 H1549 0.951 . S
C1568 C1566 1.388 . S
C1568 C1569 1.366 . S
C1569 C1568 1.366 . S
C1569 C1570 1.414 . S
C1569 C1572 1.499 . S
C1570 H1550 0.950 . S
C1570 C1569 1.414 . S
C1570 C1571 1.374 . S
C1571 H1551 0.950 . S
C1571 C1567 1.385 . S
C1571 C1570 1.374 . S
C1572 C1569 1.499 . S
C1572 C1573 1.373 . S
C1572 C1574 1.389 . S
C1573 H1552 0.950 . S
C1573 C1572 1.373 . S
C1573 C1589 1.377 . S
C1574 C1572 1.389 . S
C1574 C1575 1.524 . S
C1574 C1588 1.377 . S
C1575 C1574 1.524 . S
C1575 C1576 1.397 . S
C1575 C1580 1.363 . S
C1576 H1553 0.950 . S
C1576 C1575 1.397 . S
C1576 C1577 1.334 . S
C1577 H1554 0.950 . S
C1577 C1576 1.334 . S
C1577 C1578 1.287 . S
C1578 C1577 1.287 . S
C1578 C1579 1.524 . S
C1578 H1597 0.913 . S
C1579 H1555 0.950 . S
C1579 C1578 1.524 . S
C1579 C1580 1.415 . S
C1580 H1556 0.950 . S
C1580 C1575 1.363 . S
C1580 C1579 1.415 . S
C1581 H1557 0.951 . S
C1581 C1582 1.366 . S
C1581 C1583 1.388 . S
C1582 C1581 1.366 . S
C1582 C1586 1.385 . S
C1583 H1558 0.951 . S
C1583 C1581 1.388 . S
C1583 C1584 1.366 . S
C1584 C1583 1.366 . S
C1584 C1585 1.414 . S
C1584 C1587 1.499 . S
C1585 H1559 0.950 . S
C1585 C1584 1.414 . S
C1585 C1586 1.374 . S
C1586 H1560 0.950 . S
C1586 C1582 1.385 . S
C1586 C1585 1.374 . S
C1587 C1584 1.499 . S
C1587 C1588 1.373 . S
C1587 C1589 1.389 . S
C1588 H1561 0.950 . S
C1588 C1574 1.377 . S
C1588 C1587 1.373 . S
C1589 C1573 1.377 . S
C1589 C1587 1.389 . S
C1589 C1590 1.524 . S
C1590 C1589 1.524 . S
C1590 C1591 1.397 . S
C1590 C1595 1.363 . S
C1591 H1562 0.950 . S
C1591 C1590 1.397 . S
C1591 C1592 1.334 . S
C1592 H1563 0.950 . S
C1592 C1591 1.334 . S
C1592 C1593 1.287 . S
C1593 C1592 1.287 . S
C1593 C1594 1.524 . S
C1593 H1596 0.999 . S
C1594 H1564 0.950 . S
C1594 C1593 1.524 . S
C1594 C1595 1.415 . S
C1595 H1565 0.950 . S
C1595 C1590 1.363 . S
C1595 C1594 1.415 . S
H1596 C1593 0.999 . S
H1597 C1578 0.913 . S
H1598 C1616 0.951 . S
H1599 C1618 0.951 . S
H1600 C1620 0.950 . S
H1601 C1621 0.950 . S
H1602 C1623 0.950 . S
H1603 C1626 0.950 . S
H1604 C1627 0.950 . S
H1605 C1629 0.950 . S
H1606 C1630 0.950 . S
H1607 C1631 0.951 . S
H1608 C1633 0.951 . S
H1609 C1635 0.950 . S
H1610 C1636 0.950 . S
H1611 C1638 0.950 . S
H1612 C1641 0.950 . S
H1613 C1642 0.950 . S
H1614 C1644 0.950 . S
H1615 C1645 0.950 . S
C1616 H1598 0.951 . S
C1616 C1617 1.366 . S
C1616 C1618 1.388 . S
C1617 C1616 1.366 . S
C1617 C1621 1.385 . S
C1618 H1599 0.951 . S
C1618 C1616 1.388 . S
C1618 C1619 1.366 . S
C1619 C1618 1.366 . S
C1619 C1620 1.414 . S
C1619 C1622 1.499 . S
C1620 H1600 0.950 . S
C1620 C1619 1.414 . S
C1620 C1621 1.374 . S
C1621 H1601 0.950 . S
C1621 C1617 1.385 . S
C1621 C1620 1.374 . S
C1622 C1619 1.499 . S
C1622 C1623 1.373 . S
C1622 C1624 1.389 . S
C1623 H1602 0.950 . S
C1623 C1622 1.373 . S
C1623 C1639 1.377 . S
C1624 C1622 1.389 . S
C1624 C1625 1.524 . S
C1624 C1638 1.377 . S
C1625 C1624 1.524 . S
C1625 C1626 1.397 . S
C1625 C1630 1.363 . S
C1626 H1603 0.950 . S
C1626 C1625 1.397 . S
C1626 C1627 1.334 . S
C1627 H1604 0.950 . S
C1627 C1626 1.334 . S
C1627 C1628 1.287 . S
C1628 C1627 1.287 . S
C1628 C1629 1.524 . S
C1628 H1647 0.913 . S
C1629 H1605 0.950 . S
C1629 C1628 1.524 . S
C1629 C1630 1.415 . S
C1630 H1606 0.950 . S
C1630 C1625 1.363 . S
C1630 C1629 1.415 . S
C1631 H1607 0.951 . S
C1631 C1632 1.366 . S
C1631 C1633 1.388 . S
C1632 C1631 1.366 . S
C1632 C1636 1.385 . S
C1633 H1608 0.951 . S
C1633 C1631 1.388 . S
C1633 C1634 1.366 . S
C1634 C1633 1.366 . S
C1634 C1635 1.414 . S
C1634 C1637 1.499 . S
C1635 H1609 0.950 . S
C1635 C1634 1.414 . S
C1635 C1636 1.374 . S
C1636 H1610 0.950 . S
C1636 C1632 1.385 . S
C1636 C1635 1.374 . S
C1637 C1634 1.499 . S
C1637 C1638 1.373 . S
C1637 C1639 1.389 . S
C1638 H1611 0.950 . S
C1638 C1624 1.377 . S
C1638 C1637 1.373 . S
C1639 C1623 1.377 . S
C1639 C1637 1.389 . S
C1639 C1640 1.524 . S
C1640 C1639 1.524 . S
C1640 C1641 1.397 . S
C1640 C1645 1.363 . S
C1641 H1612 0.950 . S
C1641 C1640 1.397 . S
C1641 C1642 1.334 . S
C1642 H1613 0.950 . S
C1642 C1641 1.334 . S
C1642 C1643 1.287 . S
C1643 C1642 1.287 . S
C1643 C1644 1.524 . S
C1643 H1646 0.999 . S
C1644 H1614 0.950 . S
C1644 C1643 1.524 . S
C1644 C1645 1.415 . S
C1645 H1615 0.950 . S
C1645 C1640 1.363 . S
C1645 C1644 1.415 . S
H1646 C1643 0.999 . S
H1647 C1628 0.913 . S
C467 C241 0.804 . S
C482 C297 0.796 . S
C532 C337 1.746 . S
C517 C277 1.759 . S
C582 C386 1.631 . S
C567 C169 1.606 . S
C632 C417 2.118 . S
C617 C205 2.161 . S
C682 C306 0.797 . S
C667 C97 0.801 . S
C717 C133 1.826 . S
C732 C346 1.749 . S
C767 C25 1.663 . S
C782 C377 1.632 . S
C817 C61 2.080 1_556 S
C832 C426 2.118 1_655 S
C882 C307 1.067 . S
C867 C211 0.979 . S
C932 C347 0.414 . S
C917 C247 0.578 . S
C982 C383 0.397 . S
C967 C253 0.472 . S
C1017 C175 1.087 . S
C1032 C427 1.216 . S
C1067 C67 0.938 . S
C1082 C298 1.071 1_655 S
C1132 C338 0.415 . S
C1117 C103 0.584 1_565 S
C1182 C374 0.400 . S
C1167 C109 0.413 . S
C1217 C31 1.125 . S
C1232 C418 1.216 . S
C1267 C181 2.140 . S
C1282 C303 2.214 1_554 S
C1317 C217 1.676 . S
C1332 C343 1.712 1_554 S
C1382 C387 2.751 . S
C1367 C283 2.440 . S
C1432 C423 1.771 1_554 S
C1417 C145 1.687 . S
C1467 C37 2.100 . S
C1482 C294 2.222 . S
C1532 C334 1.711 . S
C1517 C73 1.684 1_565 S
C1582 C378 2.751 . S
C1567 C139 2.498 . S
C1617 C1 1.727 . S
C1632 C414 1.771 . S
