# Generated by pormake.
# Topology zzz, (3,6)-cn, num edge types: 1
# Building blocks:
#     Node 0, Type 0, BuildingBlock: BETDAH_clean_linker_0, # of connection points: 3
#     Node 1, Type 0, BuildingBlock: BETDAH_clean_linker_0, # of connection points: 3
#     Node 2, Type 0, BuildingBlock: BETDAH_clean_linker_0, # of connection points: 3
#     Node 3, Type 0, BuildingBlock: BETDAH_clean_linker_0, # of connection points: 3
#     Node 4, Type 0, BuildingBlock: BETDAH_clean_linker_0, # of connection points: 3
#     Node 5, Type 0, BuildingBlock: BETDAH_clean_linker_0, # of connection points: 3
#     Node 6, Type 0, BuildingBlock: BETDAH_clean_linker_0, # of connection points: 3
#     Node 7, Type 0, BuildingBlock: BETDAH_clean_linker_0, # of connection points: 3
#     Node 8, Type 1, BuildingBlock: VOLQOD_clean_sbu_1, # of connection points: 6
#     Node 9, Type 1, BuildingBlock: VOLQOD_clean_sbu_1, # of connection points: 6
#     Node 10, Type 1, BuildingBlock: VOLQOD_clean_sbu_1, # of connection points: 6
#     Node 11, Type 1, BuildingBlock: VOLQOD_clean_sbu_1, # of connection points: 6
#     Edge 12, Type (0, 1), BuildingBlock: ZUJKAS_clean_linker_0, # of connection points: 2
#     Edge 13, Type (0, 1), BuildingBlock: ZUJKAS_clean_linker_0, # of connection points: 2
#     Edge 14, Type (0, 1), BuildingBlock: ZUJKAS_clean_linker_0, # of connection points: 2
#     Edge 15, Type (0, 1), BuildingBlock: ZUJKAS_clean_linker_0, # of connection points: 2
#     Edge 16, Type (0, 1), BuildingBlock: ZUJKAS_clean_linker_0, # of connection points: 2
#     Edge 17, Type (0, 1), BuildingBlock: ZUJKAS_clean_linker_0, # of connection points: 2
#     Edge 18, Type (0, 1), BuildingBlock: ZUJKAS_clean_linker_0, # of connection points: 2
#     Edge 19, Type (0, 1), BuildingBlock: ZUJKAS_clean_linker_0, # of connection points: 2
#     Edge 20, Type (0, 1), BuildingBlock: ZUJKAS_clean_linker_0, # of connection points: 2
#     Edge 21, Type (0, 1), BuildingBlock: ZUJKAS_clean_linker_0, # of connection points: 2
#     Edge 22, Type (0, 1), BuildingBlock: ZUJKAS_clean_linker_0, # of connection points: 2
#     Edge 23, Type (0, 1), BuildingBlock: ZUJKAS_clean_linker_0, # of connection points: 2
#     Edge 24, Type (0, 1), BuildingBlock: ZUJKAS_clean_linker_0, # of connection points: 2
#     Edge 25, Type (0, 1), BuildingBlock: ZUJKAS_clean_linker_0, # of connection points: 2
#     Edge 26, Type (0, 1), BuildingBlock: ZUJKAS_clean_linker_0, # of connection points: 2
#     Edge 27, Type (0, 1), BuildingBlock: ZUJKAS_clean_linker_0, # of connection points: 2
#     Edge 28, Type (0, 1), BuildingBlock: ZUJKAS_clean_linker_0, # of connection points: 2
#     Edge 29, Type (0, 1), BuildingBlock: ZUJKAS_clean_linker_0, # of connection points: 2
#     Edge 30, Type (0, 1), BuildingBlock: ZUJKAS_clean_linker_0, # of connection points: 2
#     Edge 31, Type (0, 1), BuildingBlock: ZUJKAS_clean_linker_0, # of connection points: 2
#     Edge 32, Type (0, 1), BuildingBlock: ZUJKAS_clean_linker_0, # of connection points: 2
#     Edge 33, Type (0, 1), BuildingBlock: ZUJKAS_clean_linker_0, # of connection points: 2
#     Edge 34, Type (0, 1), BuildingBlock: ZUJKAS_clean_linker_0, # of connection points: 2
#     Edge 35, Type (0, 1), BuildingBlock: ZUJKAS_clean_linker_0, # of connection points: 2
# Relax obj value: 0.203
# Max RMSD: 0.239
# Mean RMSD: 0.111
data_MOF--net-zzz--node1-VOLQOD_clean_sbu_1--node2-BETDAH_clean_linker_0--edge1-ZUJKAS_clean_linker_0
_symmetry_space_group_name_H-M    P1
_symmetry_Int_Tables_number       1
_symmetry_cell_setting            triclinic
loop_
_symmetry_equiv_pos_as_xyz
'x, y, z'
_cell_length_a     65.992878
_cell_length_b     65.50936
_cell_length_c     22.371669
_cell_angle_alpha  90.141904
_cell_angle_beta   89.910382
_cell_angle_gamma 90.785935
loop_
_atom_site_label
_atom_site_type_symbol
_atom_site_fract_x
_atom_site_fract_y
_atom_site_fract_z
_atom_type_partial_charge
H0 H 0.82455 0.53421 0.13417 0.0
H1 H 0.76507 0.51394 0.08142 0.0
H2 H 0.77463 0.54051 0.25588 0.0
C3 C 0.80844 0.53288 0.1434 0.0
C4 C 0.8011 0.53893 0.19935 0.0
C5 C 0.79562 0.52375 0.10085 0.0
C6 C 0.77496 0.52109 0.11416 0.0
C7 C 0.76726 0.52746 0.16998 0.0
C8 C 0.78047 0.53603 0.21256 0.0
N9 N 0.74646 0.52514 0.18515 0.0
C10 C 0.73148 0.51991 0.14409 0.0
H11 H 0.02178 0.81024 0.19815 0.0
H12 H 0.01397 0.75331 0.10484 0.0
H13 H 0.98612 0.76215 0.27734 0.0
C14 C 0.01618 0.79459 0.19727 0.0
C15 C 0.00391 0.78755 0.24412 0.0
C16 C 0.0198 0.78242 0.14685 0.0
C17 C 0.01146 0.76259 0.14422 0.0
C18 C 0.99958 0.75509 0.19214 0.0
C19 C 0.9957 0.76774 0.24136 0.0
N20 N 0.99079 0.7352 0.19193 0.0
C21 C 0.99366 0.7208 0.14721 0.0
H22 H 0.68693 0.01943 0.17982 0.0
H23 H 0.74199 0.01377 0.07907 0.0
H24 H 0.7351 0.98266 0.24761 0.0
C25 C 0.70232 0.01391 0.17635 0.0
C26 C 0.70972 0.00081 0.22032 0.0
C27 C 0.7138 0.0186 0.12536 0.0
C28 C 0.73327 0.01044 0.11899 0.0
C29 C 0.74111 0.9977 0.16392 0.0
C30 C 0.72918 0.99282 0.21387 0.0
N31 N 0.76064 0.98901 0.15995 0.0
C32 C 0.77459 0.99329 0.11508 0.0
H33 H 0.51386 0.68269 0.14847 0.0
H34 H 0.50167 0.74438 0.09788 0.0
H35 H 0.53255 0.7321 0.26367 0.0
C36 C 0.5152 0.69893 0.15774 0.0
C37 C 0.52453 0.70566 0.21049 0.0
C38 C 0.50689 0.71277 0.11752 0.0
C39 C 0.50813 0.73376 0.12934 0.0
C40 C 0.51758 0.7408 0.18225 0.0
C41 C 0.52544 0.72666 0.22289 0.0
N42 N 0.51939 0.7619 0.19617 0.0
C43 C 0.51588 0.77736 0.15528 0.0
H44 H 0.19052 0.5191 0.20536 0.0
H45 H 0.24522 0.5104 0.30555 0.0
H46 H 0.23344 0.47469 0.14685 0.0
C47 C 0.20521 0.51205 0.21004 0.0
C48 C 0.21075 0.49674 0.16981 0.0
C49 C 0.21741 0.5169 0.25946 0.0
C50 C 0.23593 0.50687 0.26691 0.0
C51 C 0.242 0.49191 0.2253 0.0
C52 C 0.22915 0.48669 0.17761 0.0
N53 N 0.26049 0.48128 0.23097 0.0
C54 C 0.27512 0.48555 0.27397 0.0
H55 H 0.05987 0.18179 0.23886 0.0
H56 H 0.04055 0.24192 0.28703 0.0
H57 H 0.06744 0.23106 0.11419 0.0
C58 C 0.05894 0.19793 0.2286 0.0
C59 C 0.06523 0.20488 0.17234 0.0
C60 C 0.04994 0.21112 0.26998 0.0
C61 C 0.04767 0.23177 0.25525 0.0
C62 C 0.05433 0.2391 0.19918 0.0
C63 C 0.0628 0.22552 0.1578 0.0
N64 N 0.05232 0.25986 0.18237 0.0
C65 C 0.04668 0.27522 0.22168 0.0
H66 H 0.31552 0.01703 0.1981 0.0
H67 H 0.26298 0.02772 0.30609 0.0
H68 H 0.2692 0.05701 0.13438 0.0
C69 C 0.30075 0.0239 0.2035 0.0
C70 C 0.29356 0.03717 0.15965 0.0
C71 C 0.28987 0.02062 0.25638 0.0
C72 C 0.27114 0.03007 0.26459 0.0
C73 C 0.26336 0.04287 0.21976 0.0
C74 C 0.27488 0.04672 0.16813 0.0
N75 N 0.24425 0.05235 0.22567 0.0
C76 C 0.23007 0.04682 0.26885 0.0
H77 H 0.45547 0.31443 0.22354 0.0
H78 H 0.47126 0.25478 0.28531 0.0
H79 H 0.44585 0.26245 0.10933 0.0
C80 C 0.45563 0.29802 0.21684 0.0
C81 C 0.44929 0.28993 0.16195 0.0
C82 C 0.46373 0.28549 0.26121 0.0
C83 C 0.46485 0.26439 0.25111 0.0
C84 C 0.45794 0.25591 0.19667 0.0
C85 C 0.45054 0.26883 0.15194 0.0
N86 N 0.45861 0.2346 0.18498 0.0
C87 C 0.46416 0.22019 0.22722 0.0
O88 O 0.05777 0.99679 0.68321 0.0
Zn89 Zn 0.03546 0.99596 0.74508 0.0
O90 O 0.00878 1.00008 0.70779 0.0
Zn91 Zn 0.99628 0.02464 0.73944 0.0
Zn92 Zn 0.01179 0.00239 0.62083 0.0
Zn93 Zn 0.99089 0.97718 0.7263 0.0
O94 O 0.96875 0.01921 0.77557 0.0
O95 O 0.96509 0.98568 0.76645 0.0
O96 O 0.04183 0.01869 0.80404 0.0
O97 O 0.01405 0.03747 0.80177 0.0
O98 O 0.9931 0.04557 0.6751 0.0
O99 O 0.00215 0.02979 0.59147 0.0
O100 O 0.99771 0.97895 0.57747 0.0
O101 O 0.03655 0.9686 0.78763 0.0
O102 O 0.98348 0.96181 0.65231 0.0
O103 O 0.00489 0.95711 0.77841 0.0
C104 C 0.05772 0.99914 0.6267 0.0
C105 C 0.95836 0.0029 0.78305 0.0
C106 C 0.99575 0.04557 0.61875 0.0
C107 C 0.03168 0.03396 0.82195 0.0
C108 C 0.98718 0.9639 0.59686 0.0
C109 C 0.02288 0.95508 0.79771 0.0
O110 O 0.04124 0.00134 0.59808 0.0
O111 O 0.50115 0.05125 0.6669 0.0
Zn112 Zn 0.50269 0.02923 0.73033 0.0
O113 O 0.50157 0.00177 0.69315 0.0
Zn114 Zn 0.47796 0.98633 0.72108 0.0
Zn115 Zn 0.50047 0.00427 0.60614 0.0
Zn116 Zn 0.52536 0.98636 0.7148 0.0
O117 O 0.48522 0.96053 0.76463 0.0
O118 O 0.51879 0.9615 0.76405 0.0
O119 O 0.47858 0.0333 0.78583 0.0
O120 O 0.46219 0.00356 0.77747 0.0
O121 O 0.45898 0.97928 0.65367 0.0
O122 O 0.47431 0.9925 0.57401 0.0
O123 O 0.52429 0.99078 0.56617 0.0
O124 O 0.52939 0.03379 0.77492 0.0
O125 O 0.54068 0.97731 0.64267 0.0
O126 O 0.54459 0.00414 0.76021 0.0
C127 C 0.50086 0.05066 0.60995 0.0
C128 C 0.50215 0.95292 0.7792 0.0
C129 C 0.45936 0.98309 0.59792 0.0
C130 C 0.46371 0.0215 0.79911 0.0
C131 C 0.53892 0.98048 0.5869 0.0
C132 C 0.54467 0.02223 0.78097 0.0
O133 O 0.50098 0.03374 0.58183 0.0
O134 O 0.4581 0.49951 0.67282 0.0
Zn135 Zn 0.48074 0.49977 0.73372 0.0
O136 O 0.50723 0.49663 0.69334 0.0
Zn137 Zn 0.52096 0.47253 0.72302 0.0
Zn138 Zn 0.50349 0.49422 0.60674 0.0
Zn139 Zn 0.52456 0.52011 0.70993 0.0
O140 O 0.54727 0.47922 0.76534 0.0
O141 O 0.54953 0.51285 0.75594 0.0
O142 O 0.47501 0.476 0.79016 0.0
O143 O 0.50279 0.45757 0.7797 0.0
O144 O 0.52619 0.45246 0.65711 0.0
O145 O 0.51288 0.46685 0.57681 0.0
O146 O 0.51802 0.51694 0.56213 0.0
O147 O 0.47917 0.52708 0.77743 0.0
O148 O 0.53306 0.53441 0.635 0.0
O149 O 0.50938 0.54068 0.757 0.0
C150 C 0.45769 0.49802 0.61602 0.0
C151 C 0.5566 0.49607 0.77476 0.0
C152 C 0.52166 0.45192 0.60186 0.0
C153 C 0.4853 0.46019 0.8022 0.0
C154 C 0.52916 0.53181 0.57984 0.0
C155 C 0.49191 0.54186 0.78077 0.0
O156 O 0.47393 0.49605 0.58583 0.0
O157 O 0.98459 0.53148 0.58063 0.0
Zn158 Zn 0.00768 0.52699 0.6387 0.0
O159 O 0.00623 0.49923 0.67278 0.0
Zn160 Zn 0.00261 0.50061 0.75967 0.0
Zn161 Zn 0.9838 0.48372 0.63714 0.0
Zn162 Zn 0.03112 0.48499 0.65539 0.0
O163 O 0.02547 0.48698 0.80437 0.0
O164 O 0.04565 0.47758 0.73019 0.0
O165 O 0.00544 0.54822 0.70382 0.0
O166 O 0.00251 0.52993 0.78686 0.0
O167 O 0.97554 0.48855 0.78377 0.0
O168 O 0.96255 0.47675 0.69876 0.0
O169 O 0.99294 0.45786 0.59614 0.0
O170 O 0.03462 0.5323 0.5968 0.0
O171 O 0.02629 0.45936 0.6079 0.0
O172 O 0.0503 0.50292 0.61013 0.0
C173 C 0.97098 0.51941 0.55994 0.0
C174 C 0.04185 0.47904 0.78575 0.0
C175 C 0.9612 0.47985 0.75483 0.0
C176 C 0.00361 0.5471 0.76041 0.0
C177 C 0.01046 0.4504 0.58786 0.0
C178 C 0.05012 0.52109 0.59026 0.0
O179 O 0.96967 0.50088 0.57665 0.0
H180 H 0.1981 0.06871 0.30457 0.0
H181 H 0.17132 0.05779 0.37419 0.0
H182 H 0.20133 1.0003 0.39894 0.0
H183 H 0.22795 0.01115 0.32835 0.0
H184 H 0.16078 0.99551 0.37665 0.0
H185 H 0.17283 0.05296 0.55535 0.0
H186 H 0.16999 0.06439 0.4831 0.0
H187 H 0.19136 0.04835 0.49755 0.0
C188 C 0.199 0.05385 0.32549 0.0
C189 C 0.21495 0.04076 0.31194 0.0
C190 C 0.18383 0.04767 0.36542 0.0
C191 C 0.18454 0.02837 0.39258 0.0
C192 C 0.2006 0.0153 0.37887 0.0
H193 H 0.09625 0.9968 0.67204 0.0
H194 H 0.12826 0.0012 0.6178 0.0
C195 C 0.21576 0.02149 0.33881 0.0
C196 C 0.16788 0.02147 0.43249 0.0
H197 H 0.14077 0.03521 0.55587 0.0
C198 C 0.15655 0.00403 0.41628 0.0
C199 C 0.16259 0.03239 0.48475 0.0
C200 C 0.17497 0.05044 0.50662 0.0
C201 C 0.13949 0.99778 0.44935 0.0
C202 C 0.13341 0.00951 0.49927 0.0
C203 C 0.14531 0.02637 0.51716 0.0
C204 C 0.11418 0.0053 0.53148 0.0
C205 C 0.12806 0.97876 0.43028 0.0
C206 C 0.09567 0.00616 0.50091 0.0
C207 C 0.07739 0.00362 0.53162 0.0
C208 C 0.07721 0.00036 0.59376 0.0
C209 C 0.09582 0.99925 0.6242 0.0
C210 C 0.11413 0.00178 0.59333 0.0
H211 H 0.13794 0.96827 0.40467 0.0
H212 H 0.12174 0.97045 0.46944 0.0
H213 H 0.11532 0.98309 0.40082 0.0
H214 H 0.09533 0.00933 0.45343 0.0
H215 H 0.06338 0.00467 0.50672 0.0
H216 H 0.47667 0.18224 0.20262 0.0
H217 H 0.48478 0.15543 0.275 0.0
H218 H 0.47208 0.19692 0.42004 0.0
H219 H 0.4636 0.22359 0.34751 0.0
H220 H 0.51398 0.155 0.36512 0.0
H221 H 0.43625 0.14738 0.4595 0.0
H222 H 0.44148 0.1609 0.39089 0.0
H223 H 0.44696 0.17272 0.46172 0.0
C224 C 0.47564 0.18554 0.25002 0.0
C225 C 0.46952 0.20477 0.26996 0.0
C226 C 0.48029 0.1703 0.29122 0.0
C227 C 0.47877 0.1741 0.35288 0.0
C228 C 0.47298 0.19354 0.3727 0.0
H229 H 0.49496 0.08957 0.65213 0.0
H230 H 0.49129 0.12083 0.59332 0.0
C231 C 0.46828 0.20877 0.33141 0.0
C232 C 0.4832 0.15762 0.39607 0.0
H233 H 0.46161 0.12727 0.50326 0.0
C234 C 0.50255 0.14898 0.39549 0.0
C235 C 0.46829 0.14985 0.43581 0.0
C236 C 0.44702 0.15803 0.43692 0.0
C237 C 0.50734 0.13265 0.43319 0.0
C238 C 0.49229 0.12458 0.47186 0.0
C239 C 0.47312 0.13355 0.47363 0.0
C240 C 0.49569 0.10599 0.50789 0.0
C241 C 0.52846 0.12413 0.43129 0.0
C242 C 0.49928 0.08732 0.47927 0.0
C243 C 0.50131 0.06947 0.51255 0.0
C244 C 0.49973 0.06989 0.57529 0.0
C245 C 0.49634 0.0887 0.60395 0.0
C246 C 0.49421 0.10657 0.57046 0.0
H247 H 0.53954 0.13535 0.41266 0.0
H248 H 0.53354 0.11958 0.47658 0.0
H249 H 0.52851 0.11039 0.4022 0.0
H250 H 0.50009 0.08647 0.43096 0.0
H251 H 0.50387 0.05529 0.48891 0.0
H252 H 0.30367 0.51523 0.26954 0.0
H253 H 0.33359 0.51859 0.33436 0.0
H254 H 0.31307 0.46642 0.43633 0.0
H255 H 0.28329 0.46295 0.37104 0.0
H256 H 0.33792 0.52322 0.46063 0.0
H257 H 0.36993 0.45052 0.37656 0.0
H258 H 0.34931 0.46319 0.33974 0.0
H259 H 0.34466 0.44847 0.40615 0.0
C260 C 0.30552 0.50468 0.30631 0.0
C261 C 0.29143 0.48883 0.31571 0.0
C262 C 0.32254 0.5066 0.3432 0.0
C263 C 0.32566 0.49258 0.38958 0.0
C264 C 0.31108 0.47719 0.40023 0.0
H265 H 0.41952 0.50026 0.66448 0.0
H266 H 0.38712 0.49959 0.61141 0.0
C267 C 0.29408 0.47529 0.3633 0.0
C268 C 0.34463 0.49353 0.42489 0.0
H269 H 0.38772 0.46718 0.45454 0.0
C270 C 0.34881 0.51097 0.45951 0.0
C271 C 0.3589 0.47763 0.42256 0.0
C272 C 0.35564 0.45895 0.38389 0.0
C273 C 0.3669 0.51288 0.49227 0.0
C274 C 0.381 0.49681 0.49075 0.0
C275 C 0.37681 0.47941 0.45593 0.0
C276 C 0.40054 0.49792 0.52326 0.0
C277 C 0.371 0.53227 0.527 0.0
C278 C 0.41881 0.49687 0.49137 0.0
C279 C 0.43734 0.4971 0.52147 0.0
C280 C 0.43798 0.4983 0.58426 0.0
C281 C 0.41961 0.49942 0.61612 0.0
C282 C 0.40106 0.49916 0.58587 0.0
H283 H 0.36109 0.54487 0.51232 0.0
H284 H 0.36804 0.52944 0.57513 0.0
H285 H 0.38706 0.53725 0.52206 0.0
H286 H 0.41874 0.49583 0.44302 0.0
H287 H 0.45114 0.49622 0.49542 0.0
H288 H 0.00978 0.29137 0.23956 0.0
H289 H 0.00181 0.32082 0.3036 0.0
H290 H 0.06454 0.32526 0.35681 0.0
H291 H 0.07248 0.29599 0.29252 0.0
H292 H 0.00821 0.32685 0.42942 0.0
H293 H 0.0517 0.38255 0.29143 0.0
H294 H 0.0446 0.35745 0.26448 0.0
H295 H 0.06588 0.36066 0.31386 0.0
C296 C 0.02176 0.29867 0.26525 0.0
C297 C 0.0417 0.29171 0.26139 0.0
C298 C 0.01723 0.3154 0.30169 0.0
C299 C 0.03265 0.32537 0.33416 0.0
C300 C 0.05251 0.31799 0.33128 0.0
H301 H 0.04517 0.42931 0.56643 0.0
H302 H 0.04915 0.3985 0.50638 0.0
C303 C 0.05701 0.30128 0.29493 0.0
C304 C 0.02812 0.34365 0.37057 0.0
H305 H 0.04004 0.39424 0.38573 0.0
C306 C 0.01503 0.34164 0.41977 0.0
C307 C 0.037 0.3629 0.35755 0.0
C308 C 0.05043 0.36615 0.30365 0.0
C309 C 0.01112 0.35828 0.45762 0.0
C310 C 0.02031 0.37745 0.44517 0.0
C311 C 0.0331 0.3795 0.39531 0.0
C312 C 0.01737 0.39553 0.48399 0.0
C313 C 0.99773 0.35508 0.5116 0.0
C314 C 0.99814 0.40409 0.49131 0.0
C315 C 0.99577 0.42174 0.52584 0.0
C316 C 0.01264 0.43122 0.55324 0.0
C317 C 0.03184 0.42247 0.54599 0.0
C318 C 0.03417 0.40484 0.51165 0.0
H319 H 0.99577 0.33863 0.52251 0.0
H320 H 0.00408 0.36313 0.55126 0.0
H321 H 0.98254 0.36139 0.50241 0.0
H322 H 0.98504 0.39736 0.46938 0.0
H323 H 0.98079 0.42813 0.53022 0.0
H324 H 0.79381 0.9645 0.05237 0.0
H325 H 0.82354 0.96952 0.98768 0.0
H326 H 0.82094 0.03455 0.0176 0.0
H327 H 0.79128 0.02944 0.083 0.0
H328 H 0.82979 0.99347 0.88315 0.0
H329 H 0.87829 0.0192 0.073 0.0
H330 H 0.85395 0.00688 0.08401 0.0
H331 H 0.85537 0.03321 0.06207 0.0
C332 C 0.79951 0.97985 0.04436 0.0
C333 C 0.79052 0.99661 0.07219 0.0
C334 C 0.81642 0.98271 0.00758 0.0
C335 C 0.82457 0.00237 -0.0014 0.0
C336 C 0.81504 0.01924 0.02476 0.0
H337 H 0.93907 0.03671 0.82623 0.0
H338 H 0.90574 0.03809 0.87402 0.0
C339 C 0.79812 0.01635 0.06165 0.0
C340 C 0.84354 0.00495 0.96394 0.0
H341 H 0.89358 0.01796 0.97803 0.0
C342 C 0.84372 0.99894 0.9037 0.0
C343 C 0.86166 0.0121 0.99101 0.0
C344 C 0.86248 0.01808 0.05618 0.0
C345 C 0.86164 0.99974 0.86983 0.0
C346 C 0.87985 0.00638 0.89736 0.0
C347 C 0.87956 0.01289 0.95713 0.0
C348 C 0.8996 0.00568 0.86601 0.0
C349 C 0.8609 0.99348 0.80492 0.0
C350 C 0.90725 0.98696 0.84633 0.0
C351 C 0.92628 0.98608 0.81914 0.0
C352 C 0.9381 0.00393 0.81142 0.0
C353 C 0.93037 0.02268 0.83135 0.0
C354 C 0.91133 0.02352 0.85862 0.0
H355 H 0.84533 0.9946 0.78647 0.0
H356 H 0.87132 0.00308 0.77749 0.0
H357 H 0.86566 0.97736 0.80075 0.0
H358 H 0.89864 0.97295 0.85288 0.0
H359 H 0.93176 0.97137 0.80459 0.0
H360 H 0.54537 0.80062 0.10713 0.0
H361 H 0.54116 0.82966 0.03923 0.0
H362 H 0.47634 0.82001 0.04236 0.0
H363 H 0.4806 0.79104 0.11085 0.0
H364 H 0.52251 0.83066 0.92516 0.0
H365 H 0.48362 0.88057 0.08951 0.0
H366 H 0.49721 0.85807 0.11148 0.0
H367 H 0.47242 0.85566 0.079 0.0
C368 C 0.53027 0.80476 0.0931 0.0
C369 C 0.51328 0.79389 0.1139 0.0
C370 C 0.52787 0.82126 0.05444 0.0
C371 C 0.50843 0.82713 0.03646 0.0
C372 C 0.49144 0.81594 0.05656 0.0
H373 H 0.46983 0.92996 0.8191 0.0
H374 H 0.47069 0.89864 0.87838 0.0
C375 C 0.49386 0.79941 0.09527 0.0
C376 C 0.50607 0.84497 0.99673 0.0
H377 H 0.48736 0.89326 0.99143 0.0
C378 C 0.5148 0.84435 0.93953 0.0
C379 C 0.49595 0.86275 0.01566 0.0
C380 C 0.48688 0.86448 0.07741 0.0
C381 C 0.51367 0.86106 0.90062 0.0
C382 C 0.50388 0.87899 0.91996 0.0
C383 C 0.49485 0.87949 0.97678 0.0
C384 C 0.5034 0.89765 0.88273 0.0
C385 C 0.5228 0.85931 0.83897 0.0
C386 C 0.52152 0.90757 0.86613 0.0
C387 C 0.52111 0.92543 0.83224 0.0
C388 C 0.50254 0.93383 0.81463 0.0
C389 C 0.4844 0.9239 0.83172 0.0
C390 C 0.48484 0.906 0.86562 0.0
H391 H 0.52443 0.84311 0.82516 0.0
H392 H 0.51342 0.86724 0.80527 0.0
H393 H 0.53812 0.8665 0.83905 0.0
H394 H 0.536 0.90163 0.88004 0.0
H395 H 0.53536 0.93272 0.82024 0.0
H396 H 0.7136 0.48328 0.12395 0.0
H397 H 0.68538 0.47603 0.05493 0.0
H398 H 0.68517 0.53942 0.00283 0.0
H399 H 0.71348 0.54653 0.0711 0.0
H400 H 0.6472 0.493 0.05776 0.0
H401 H 0.68502 0.51006 0.84201 0.0
H402 H 0.69896 0.50615 0.91032 0.0
H403 H 0.68759 0.53041 0.89542 0.0
C404 C 0.70758 0.49553 0.09711 0.0
C405 C 0.71555 0.51539 0.10208 0.0
C406 C 0.69153 0.49142 0.0579 0.0
C407 C 0.6834 0.50712 0.02306 0.0
C408 C 0.69151 0.52699 0.02819 0.0
H409 H 0.58098 0.52902 0.80029 0.0
H410 H 0.61203 0.52975 0.85942 0.0
C411 C 0.70754 0.53107 0.06733 0.0
C412 C 0.6657 0.50309 0.98389 0.0
H413 H 0.64877 0.50817 0.84063 0.0
C414 C 0.64759 0.49604 0.01013 0.0
C415 C 0.66628 0.50706 0.92178 0.0
C416 C 0.68556 0.51365 0.89056 0.0
C417 C 0.62979 0.49369 0.97636 0.0
C418 C 0.63025 0.49823 0.9146 0.0
C419 C 0.64848 0.50477 0.88805 0.0
C420 C 0.61171 0.49733 0.87743 0.0
C421 C 0.61046 0.48715 0.00744 0.0
C422 C 0.6014 0.47877 0.86728 0.0
C423 C 0.58358 0.47826 0.83345 0.0
C424 C 0.57581 0.49633 0.80906 0.0
C425 C 0.58645 0.51482 0.81853 0.0
C426 C 0.60424 0.51528 0.85223 0.0
H427 H 0.61178 0.4882 0.05686 0.0
H428 H 0.5976 0.49668 0.99281 0.0
H429 H 0.60686 0.47106 0.99557 0.0
H430 H 0.60712 0.46469 0.8856 0.0
H431 H 0.57585 0.46375 0.82681 0.0
H432 H 0.99951 0.72422 0.02789 0.0
H433 H 0.00103 0.69591 0.9553 0.0
H434 H 0.99354 0.65264 0.09907 0.0
H435 H 0.99187 0.68084 0.17116 0.0
H436 H 0.02798 0.66209 0.95104 0.0
H437 H 0.94798 0.6371 0.98107 0.0
H438 H 0.95733 0.66172 0.00598 0.0
H439 H 0.96186 0.63927 0.04982 0.0
C440 C 0.99826 0.70861 0.0436 0.0
C441 C 0.99552 0.70447 0.10452 0.0
C442 C 0.99911 0.69253 0.00237 0.0
C443 C 0.99706 0.67223 0.02181 0.0
C444 C 0.99476 0.6682 0.08307 0.0
H445 H 0.99881 0.55063 0.88145 0.0
H446 H 0.9975 0.58189 0.94084 0.0
C447 C 0.99393 0.68424 0.12414 0.0
C448 C 0.99739 0.65513 0.97849 0.0
H449 H 0.96957 0.61416 0.92918 0.0
C450 C 0.01516 0.65171 0.94563 0.0
C451 C 0.98059 0.64169 0.97156 0.0
C452 C 0.96078 0.64519 0.00352 0.0
C453 C 0.01686 0.63468 0.90777 0.0
C454 C 0.00024 0.62095 0.90215 0.0
C455 C 0.98231 0.62467 0.93387 0.0
C456 C 0.00134 0.60217 0.8654 0.0
C457 C 0.03665 0.63108 0.87583 0.0
C458 C 0.00376 0.60325 0.80318 0.0
C459 C 0.00451 0.58538 0.76894 0.0
C460 C 0.00278 0.56612 0.79638 0.0
C461 C 0.00024 0.56517 0.85878 0.0
C462 C 0.99947 0.58302 0.89286 0.0
H463 H 0.04919 0.64063 0.89445 0.0
H464 H 0.04093 0.61478 0.87871 0.0
H465 H 0.03493 0.63497 0.82788 0.0
H466 H 0.00488 0.61791 0.78106 0.0
H467 H 0.00641 0.58669 0.721 0.0
H468 H 0.0688 0.18641 0.34906 0.0
H469 H 0.05244 0.16414 0.42243 0.0
H470 H 0.99526 0.19321 0.38966 0.0
H471 H 0.01157 0.21522 0.31444 0.0
H472 H 0.02931 0.16731 0.52442 0.0
H473 H 0.98463 0.13454 0.33517 0.0
H474 H 0.00533 0.15233 0.3236 0.0
H475 H 0.98133 0.16122 0.35045 0.0
C476 C 0.05284 0.18839 0.3586 0.0
C477 C 0.04136 0.20227 0.32552 0.0
C478 C 0.04351 0.17569 0.40057 0.0
C479 C 0.02254 0.17666 0.41032 0.0
C480 C 0.01139 0.19193 0.38177 0.0
H481 H 0.97911 0.08119 0.65871 0.0
H482 H 0.98096 0.11465 0.61057 0.0
C483 C 0.02075 0.20465 0.33942 0.0
C484 C 0.01245 0.1601 0.44476 0.0
H485 H 0.98317 0.11715 0.42614 0.0
C486 C 0.01889 0.15653 0.5035 0.0
C487 C 0.99906 0.14594 0.41685 0.0
C488 C 0.99223 0.14851 0.35294 0.0
C489 C 0.01318 0.13865 0.53404 0.0
C490 C 0.00027 0.12421 0.50543 0.0
C491 C 0.99297 0.12831 0.44792 0.0
C492 C 0.99626 0.10374 0.53133 0.0
C493 C 0.02212 0.13478 0.59499 0.0
C494 C 0.00313 0.08634 0.50115 0.0
C495 C 0.00184 0.06715 0.52806 0.0
C496 C 0.99372 0.06503 0.58588 0.0
C497 C 0.98568 0.08232 0.61441 0.0
C498 C 0.98683 0.10149 0.58719 0.0
H499 H 0.0348 0.14553 0.60547 0.0
H500 H 0.01023 0.13673 0.62955 0.0
H501 H 0.0278 0.11894 0.59812 0.0
H502 H 0.01036 0.08772 0.4578 0.0
H503 H 0.00814 0.05419 0.50473 0.0
H504 H 0.3047 0.03659 0.35874 0.0
H505 H 0.32977 0.02098 0.42395 0.0
H506 H 0.32262 0.96395 0.32867 0.0
H507 H 0.2984 0.98008 0.26091 0.0
H508 H 0.33418 0.9904 0.49815 0.0
H509 H 0.38072 0.97604 0.29521 0.0
H510 H 0.35744 0.98998 0.29239 0.0
H511 H 0.35692 0.96254 0.2969 0.0
C512 C 0.30808 0.02056 0.35299 0.0
C513 C 0.29979 0.00948 0.30506 0.0
C514 C 0.32244 0.01164 0.39006 0.0
C515 C 0.32856 0.99145 0.38007 0.0
C516 C 0.31864 0.97974 0.33597 0.0
H517 H 0.42787 0.95673 0.62338 0.0
H518 H 0.39557 0.95356 0.57012 0.0
C519 C 0.30463 0.98883 0.29789 0.0
C520 C 0.34673 0.98378 0.41155 0.0
H521 H 0.39549 0.96896 0.38741 0.0
C522 C 0.34754 0.98547 0.47408 0.0
C523 C 0.36422 0.97753 0.37989 0.0
C524 C 0.36493 0.97657 0.31243 0.0
C525 C 0.36561 0.98227 0.50554 0.0
C526 C 0.38317 0.97634 0.47372 0.0
C527 C 0.382 0.97343 0.41167 0.0
C528 C 0.40347 0.9758 0.50224 0.0
C529 C 0.36599 0.98665 0.57184 0.0
C530 C 0.41914 0.98829 0.47957 0.0
C531 C 0.43775 0.98968 0.50879 0.0
C532 C 0.44102 0.9788 0.56187 0.0
C533 C 0.42571 0.96548 0.58293 0.0
C534 C 0.40717 0.9638 0.55289 0.0
H535 H 0.35257 0.99541 0.58654 0.0
H536 H 0.36594 0.97202 0.59671 0.0
H537 H 0.37986 0.99544 0.58435 0.0
H538 H 0.41671 0.99764 0.4404 0.0
H539 H 0.44918 1.0001 0.49139 0.0
H540 H 0.44608 0.31324 0.33438 0.0
H541 H 0.46326 0.33573 0.40582 0.0
H542 H 0.51871 0.30265 0.38051 0.0
H543 H 0.50158 0.28026 0.30764 0.0
H544 H 0.48595 0.33148 0.51103 0.0
H545 H 0.53248 0.36061 0.32055 0.0
H546 H 0.51067 0.34416 0.3095 0.0
H547 H 0.53392 0.33382 0.33694 0.0
C548 C 0.46181 0.31047 0.34515 0.0
C549 C 0.47259 0.29523 0.31506 0.0
C550 C 0.4716 0.32328 0.38599 0.0
C551 C 0.49235 0.32111 0.3974 0.0
C552 C 0.50276 0.30476 0.37145 0.0
H553 H 0.53925 0.41665 0.64055 0.0
H554 H 0.53714 0.38304 0.59299 0.0
C555 C 0.49292 0.29187 0.33042 0.0
C556 C 0.50313 0.33741 0.43107 0.0
H557 H 0.53414 0.37896 0.41022 0.0
C558 C 0.49684 0.34164 0.48964 0.0
C559 C 0.51715 0.35073 0.40248 0.0
C560 C 0.52393 0.34729 0.33879 0.0
C561 C 0.50334 0.35944 0.51937 0.0
C562 C 0.51679 0.37314 0.48995 0.0
C563 C 0.52393 0.36834 0.43261 0.0
C564 C 0.52136 0.39368 0.5146 0.0
C565 C 0.49465 0.36412 0.58028 0.0
C566 C 0.51429 0.41095 0.48456 0.0
C567 C 0.51563 0.4302 0.51121 0.0
C568 C 0.52404 0.43252 0.56858 0.0
C569 C 0.53247 0.41539 0.59662 0.0
C570 C 0.53119 0.39613 0.56971 0.0
H571 H 0.48186 0.35368 0.59214 0.0
H572 H 0.50664 0.36244 0.61457 0.0
H573 H 0.4892 0.38007 0.58221 0.0
H574 H 0.50676 0.40938 0.44175 0.0
H575 H 0.50909 0.44305 0.48816 0.0
H576 H 0.2014 0.5549 0.24812 0.0
H577 H 0.17686 0.57018 0.31642 0.0
H578 H 0.18765 0.52213 0.44361 0.0
H579 H 0.21248 0.50728 0.37636 0.0
H580 H 0.14381 0.54931 0.33557 0.0
H581 H 0.17564 0.56736 0.55657 0.0
H582 H 0.19153 0.56444 0.49134 0.0
H583 H 0.18373 0.54247 0.5346 0.0
C584 C 0.19922 0.54824 0.29199 0.0
C585 C 0.20872 0.52987 0.30699 0.0
C586 C 0.18517 0.55694 0.3309 0.0
C587 C 0.18034 0.54734 0.38527 0.0
C588 C 0.19138 0.53015 0.40271 0.0
H589 H 0.0866 0.50247 0.58117 0.0
H590 H 0.1174 0.51525 0.53396 0.0
C591 C 0.20559 0.52159 0.36408 0.0
C592 C 0.16117 0.55219 0.41684 0.0
H593 H 0.14043 0.55377 0.55654 0.0
C594 C 0.14309 0.55105 0.38374 0.0
C595 C 0.16014 0.55453 0.47963 0.0
C596 C 0.17887 0.55749 0.51732 0.0
C597 C 0.12414 0.5501 0.41212 0.0
C598 C 0.12328 0.55042 0.47518 0.0
C599 C 0.14118 0.55336 0.50811 0.0
C600 C 0.10465 0.54404 0.50724 0.0
C601 C 0.10532 0.54694 0.3748 0.0
C602 C 0.08722 0.55609 0.50796 0.0
C603 C 0.06936 0.54877 0.53496 0.0
C604 C 0.06873 0.52927 0.56132 0.0
C605 C 0.0864 0.51748 0.56099 0.0
C606 C 0.10413 0.52482 0.53442 0.0
H607 H 0.10878 0.54573 0.32631 0.0
H608 H 0.09716 0.53282 0.38904 0.0
H609 H 0.09497 0.55995 0.38161 0.0
H610 H 0.08739 0.57101 0.48724 0.0
H611 H 0.05607 0.55827 0.53478 0.0
H612 H 0.0564 0.80209 0.14415 0.0
H613 H 0.06608 0.82879 0.07285 0.0
H614 H 0.01468 0.81263 0.96303 0.0
H615 H 0.00497 0.78586 0.03411 0.0
H616 H 0.05332 0.83012 0.90075 0.0
H617 H 0.02097 0.87475 0.09001 0.0
H618 H 0.04126 0.85764 0.10694 0.0
H619 H 0.01718 0.84752 0.08321 0.0
C620 C 0.04776 0.8036 0.10329 0.0
C621 C 0.02981 0.79214 0.09482 0.0
C622 C 0.05328 0.81886 0.06271 0.0
C623 C 0.04089 0.82284 0.01338 0.0
C624 C 0.02443 0.80973 0.00091 0.0
H625 H 0.99654 0.92569 0.83712 0.0
H626 H 0.00434 0.8939 0.88776 0.0
C627 C 0.01893 0.79439 0.04142 0.0
C628 C 0.04227 0.84284 0.98316 0.0
H629 H 0.02951 0.89273 0.00312 0.0
C630 C 0.04846 0.8439 0.92322 0.0
C631 C 0.03566 0.86069 0.0127 0.0
C632 C 0.02825 0.86024 0.07664 0.0
C633 C 0.04782 0.86243 0.89166 0.0
C634 C 0.04075 0.88011 0.92095 0.0
C635 C 0.03509 0.87912 0.9812 0.0
C636 C 0.03673 0.89919 0.88835 0.0
C637 C 0.0538 0.86295 0.82663 0.0
C638 C 0.05245 0.91279 0.87261 0.0
C639 C 0.04805 0.93119 0.84385 0.0
C640 C 0.02787 0.93615 0.83039 0.0
C641 C 0.01225 0.92241 0.84663 0.0
C642 C 0.01665 0.90418 0.87546 0.0
H643 H 0.05844 0.84773 0.80985 0.0
H644 H 0.04092 0.86837 0.79932 0.0
H645 H 0.06659 0.87392 0.82029 0.0
H646 H 0.06803 0.90922 0.8829 0.0
H647 H 0.06042 0.9414 0.83177 0.0
H648 H 0.69662 0.05613 0.13068 0.0
H649 H 0.67075 0.06892 0.06232 0.0
H650 H 0.68105 0.01787 0.94449 0.0
H651 H 0.7073 0.00543 0.01184 0.0
H652 H 0.66944 0.05346 0.88353 0.0
H653 H 0.61824 0.03569 0.07548 0.0
H654 H 0.63754 0.05474 0.08865 0.0
H655 H 0.64456 0.02872 0.07521 0.0
C656 C 0.69391 0.04817 0.08888 0.0
C657 C 0.70378 0.02974 0.07652 0.0
C658 C 0.67904 0.05536 0.05021 0.0
C659 C 0.67358 0.044 -0.00066 0.0
C660 C 0.68495 0.02681 0.98375 0.0
H661 H 0.58197 0.00537 0.77517 0.0
H662 H 0.6129 0.01658 0.82457 0.0
C663 C 0.70002 0.01975 0.02205 0.0
C664 C 0.65435 0.04794 0.96747 0.0
H665 H 0.60305 0.04302 0.98419 0.0
C666 C 0.65491 0.05158 0.90571 0.0
C667 C 0.63537 0.04549 0.99655 0.0
C668 C 0.63375 0.0408 0.06249 0.0
C669 C 0.63702 0.05186 0.87179 0.0
C670 C 0.61819 0.04816 0.90035 0.0
C671 C 0.61753 0.04592 0.96258 0.0
C672 C 0.59962 0.0431 0.86604 0.0
C673 C 0.63848 0.05536 0.80533 0.0
C674 C 0.58167 0.05411 0.87381 0.0
C675 C 0.56373 0.04767 0.84549 0.0
C676 C 0.56345 0.02988 0.81011 0.0
C677 C 0.58154 0.01907 0.80236 0.0
C678 C 0.59938 0.0256 0.82997 0.0
H679 H 0.65217 0.06461 0.79379 0.0
H680 H 0.63969 0.04041 0.78224 0.0
H681 H 0.62485 0.06319 0.78817 0.0
H682 H 0.58152 0.06751 0.90229 0.0
H683 H 0.55004 0.05632 0.85232 0.0
H684 H 0.46686 0.70417 0.10408 0.0
H685 H 0.45254 0.67919 0.03311 0.0
H686 H 0.51052 0.67571 0.94459 0.0
H687 H 0.52466 0.70075 0.01491 0.0
H688 H 0.47589 0.67048 0.86636 0.0
H689 H 0.47298 0.62109 0.0692 0.0
H690 H 0.45872 0.64427 0.07048 0.0
H691 H 0.48591 0.64552 0.06928 0.0
C692 C 0.47617 0.69878 0.06751 0.0
C693 C 0.49674 0.70439 0.06421 0.0
C694 C 0.46808 0.68439 0.02753 0.0
C695 C 0.4806 0.67536 0.98441 0.0
C696 C 0.50061 0.68252 0.97753 0.0
H697 H 0.51458 0.57681 0.78563 0.0
H698 H 0.50587 0.60927 0.8304 0.0
C699 C 0.50867 0.69688 0.01739 0.0
C700 C 0.47433 0.65637 0.95308 0.0
H701 H 0.46992 0.60501 0.97653 0.0
C702 C 0.47407 0.65621 0.89041 0.0
C703 C 0.4719 0.63777 0.98463 0.0
C704 C 0.47247 0.63698 0.05208 0.0
C705 C 0.47269 0.63779 0.85842 0.0
C706 C 0.47194 0.61912 0.89004 0.0
C707 C 0.47054 0.61937 0.95253 0.0
C708 C 0.47611 0.59942 0.86017 0.0
C709 C 0.47296 0.63843 0.79105 0.0
C710 C 0.4625 0.5828 0.86371 0.0
C711 C 0.4675 0.56393 0.83821 0.0
C712 C 0.48633 0.5614 0.80966 0.0
C713 C 0.49993 0.57811 0.80708 0.0
C714 C 0.49489 0.59684 0.83209 0.0
H715 H 0.46638 0.65284 0.77423 0.0
H716 H 0.48888 0.6378 0.77517 0.0
H717 H 0.46443 0.6253 0.77154 0.0
H718 H 0.44805 0.58443 0.88616 0.0
H719 H 0.45669 0.55138 0.84099 0.0
H720 H 0.79096 0.48554 0.05242 0.0
H721 H 0.8126 0.47011 0.97566 0.0
H722 H 0.8432 0.52807 0.95023 0.0
H723 H 0.8213 0.54359 0.02503 0.0
H724 H 0.83945 0.50636 0.84538 0.0
H725 H 0.87038 0.45823 0.02803 0.0
H726 H 0.84383 0.45531 0.01194 0.0
H727 H 0.85332 0.47892 0.04271 0.0
C728 C 0.80183 0.4951 0.02884 0.0
C729 C 0.80471 0.51567 0.04516 0.0
C730 C 0.81433 0.48622 0.98557 0.0
C731 C 0.82986 0.49782 0.95848 0.0
C732 C 0.83142 0.51878 0.97089 0.0
H733 H 0.95094 0.48906 0.8701 0.0
H734 H 0.91716 0.4884 0.91405 0.0
C735 C 0.81895 0.52763 0.01375 0.0
C736 C 0.84605 0.48816 0.92262 0.0
H737 H 0.88823 0.459 0.93794 0.0
C738 C 0.84991 0.49564 0.86493 0.0
C739 C 0.85975 0.47432 0.94869 0.0
C740 C 0.8568 0.46627 0.01135 0.0
C741 C 0.86774 0.49071 0.8341 0.0
C742 C 0.88185 0.47754 0.86127 0.0
C743 C 0.87734 0.46901 0.91727 0.0
C744 C 0.90253 0.47493 0.83663 0.0
C745 C 0.872 0.50086 0.77478 0.0
C746 C 0.90568 0.46677 0.77939 0.0
C747 C 0.92505 0.46726 0.7538 0.0
C748 C 0.9416 0.47576 0.78533 0.0
C749 C 0.93858 0.48251 0.84434 0.0
C750 C 0.91923 0.48213 0.86962 0.0
H751 H 0.8612 0.51328 0.76517 0.0
H752 H 0.88763 0.50736 0.77377 0.0
H753 H 0.87068 0.48935 0.73848 0.0
H754 H 0.89307 0.46068 0.75371 0.0
H755 H 0.92686 0.46174 0.70846 0.0
H756 H 0.09336 0.17522 0.18753 0.0
H757 H 0.09803 0.14513 0.12422 0.0
H758 H 0.05658 0.16974 0.99497 0.0
H759 H 0.05199 0.19986 0.05788 0.0
H760 H 0.06573 0.12027 0.10461 0.0
H761 H 0.09843 0.14351 0.88719 0.0
H762 H 0.10033 0.15936 0.95325 0.0
H763 H 0.07768 0.15937 0.90849 0.0
C764 C 0.08578 0.17448 0.14464 0.0
C765 C 0.0722 0.18977 0.12772 0.0
C766 C 0.08847 0.15731 0.10854 0.0
C767 C 0.07772 0.15521 0.05479 0.0
C768 C 0.06538 0.17122 0.03562 0.0
H769 H 0.01212 0.06164 0.89113 0.0
H770 H 0.02713 0.0889 0.9517 0.0
C771 C 0.06272 0.18843 0.07166 0.0
C772 C 0.07649 0.13511 0.02441 0.0
H773 H 0.07784 0.11245 0.88695 0.0
C774 C 0.06887 0.11844 0.05729 0.0
C775 C 0.08069 0.13266 0.96284 0.0
C776 C 0.08994 0.14965 0.92605 0.0
C777 C 0.06402 0.09985 0.0294 0.0
C778 C 0.06673 0.09794 0.96707 0.0
C779 C 0.07565 0.11407 0.93478 0.0
C780 C 0.05811 0.08038 0.93384 0.0
C781 C 0.05525 0.08262 0.06632 0.0
C782 C 0.07062 0.0665 0.90412 0.0
C783 C 0.06206 0.05071 0.86976 0.0
C784 C 0.04088 0.04889 0.86385 0.0
C785 C 0.02847 0.06264 0.89471 0.0
C786 C 0.03701 0.0782 0.92945 0.0
H787 H 0.05904 0.08444 0.11443 0.0
H788 H 0.0385 0.0825 0.06196 0.0
H789 H 0.06087 0.06765 0.05042 0.0
H790 H 0.08696 0.06806 0.90691 0.0
H791 H 0.07201 0.04044 0.84612 0.0
H792 H 0.30759 0.0744 0.12262 0.0
H793 H 0.33455 0.08095 0.04874 0.0
H794 H 0.33625 0.01658 0.00815 0.0
H795 H 0.30953 0.01005 0.08166 0.0
H796 H 0.37326 0.06271 0.06076 0.0
H797 H 0.33888 0.04354 0.84225 0.0
H798 H 0.32392 0.05018 0.90704 0.0
H799 H 0.33319 0.02464 0.89794 0.0
C800 C 0.31332 0.06181 0.09639 0.0
C801 C 0.30653 0.04174 0.1074 0.0
C802 C 0.32874 0.06553 0.05459 0.0
C803 C 0.33722 0.04927 0.02261 0.0
C804 C 0.32965 0.02939 0.0315 0.0
H805 H 0.4339 0.99861 0.85083 0.0
H806 H 0.40391 0.01044 0.90302 0.0
C807 C 0.31447 0.02565 0.07359 0.0
C808 C 0.35558 0.05229 0.98553 0.0
H809 H 0.37522 0.03907 0.85011 0.0
C810 C 0.37369 0.05816 0.01413 0.0
C811 C 0.35601 0.04641 0.92478 0.0
C812 C 0.3369 0.04104 0.89103 0.0
C813 C 0.39246 0.05648 0.98499 0.0
C814 C 0.39298 0.04896 0.92581 0.0
C815 C 0.37475 0.04469 0.89574 0.0
C816 C 0.41207 0.04246 0.89739 0.0
C817 C 0.41169 0.06122 0.01894 0.0
C818 C 0.42684 0.0566 0.87805 0.0
C819 C 0.44422 0.04984 0.84815 0.0
C820 C 0.4469 0.02889 0.83696 0.0
C821 C 0.43229 0.01486 0.85825 0.0
C822 C 0.41509 0.02158 0.88801 0.0
H823 H 0.40869 0.0656 0.06611 0.0
H824 H 0.42173 0.04776 0.01846 0.0
H825 H 0.41997 0.07399 0.99681 0.0
H826 H 0.42469 0.0728 0.88468 0.0
H827 H 0.45514 0.06103 0.83202 0.0
H828 H 0.46668 0.29394 0.05243 0.0
H829 H 0.46408 0.32344 0.98602 0.0
H830 H 0.41686 0.34796 0.09763 0.0
H831 H 0.41997 0.31878 0.16528 0.0
H832 H 0.43534 0.34341 0.92034 0.0
H833 H 0.46094 0.39111 0.11298 0.0
H834 H 0.46066 0.36362 0.11547 0.0
H835 H 0.43749 0.37745 0.1242 0.0
C836 C 0.45532 0.30531 0.06165 0.0
C837 C 0.44363 0.30425 0.11402 0.0
C838 C 0.45389 0.3222 0.0239 0.0
C839 C 0.44067 0.33817 0.03786 0.0
C840 C 0.42755 0.33609 0.08696 0.0
H841 H 0.44976 0.46005 0.86742 0.0
H842 H 0.43493 0.43129 0.92386 0.0
C843 C 0.42918 0.31935 0.12517 0.0
C844 C 0.44232 0.35772 0.00475 0.0
H845 H 0.4575 0.40755 0.0208 0.0
C846 C 0.43988 0.3575 0.94243 0.0
C847 C 0.44835 0.37612 0.03365 0.0
C848 C 0.4522 0.37717 0.10014 0.0
C849 C 0.44399 0.37498 0.90808 0.0
C850 C 0.45071 0.39307 0.93681 0.0
C851 C 0.45217 0.39364 -0.00079 0.0
C852 C 0.45908 0.41049 0.90251 0.0
C853 C 0.4418 0.37386 0.84106 0.0
C854 C 0.4777 0.40835 0.87334 0.0
C855 C 0.4863 0.42466 0.8421 0.0
C856 C 0.47641 0.44353 0.83904 0.0
C857 C 0.45776 0.44574 0.8689 0.0
C858 C 0.44924 0.42934 0.90089 0.0
H859 H 0.43195 0.36081 0.82713 0.0
H860 H 0.4354 0.38821 0.82329 0.0
H861 H 0.45698 0.37182 0.82061 0.0
H862 H 0.48566 0.39399 0.87497 0.0
H863 H 0.50063 0.42231 0.81962 0.0
H864 H 0.19493 0.51964 0.08085 0.0
H865 H 0.16585 0.51079 0.01754 0.0
H866 H 0.16316 0.45073 0.09626 0.0
H867 H 0.19286 0.45934 0.15781 0.0
H868 H 0.15376 0.44884 0.98028 0.0
H869 H 0.10973 0.51016 0.08683 0.0
H870 H 0.13224 0.52026 0.05232 0.0
H871 H 0.13426 0.50273 0.11394 0.0
C872 C 0.18838 0.50441 0.08342 0.0
C873 C 0.19601 0.49014 0.12392 0.0
C874 C 0.17165 0.49944 0.04792 0.0
C875 C 0.16192 0.48034 0.05368 0.0
C876 C 0.17031 0.46563 0.09155 0.0
H877 H 0.03896 0.47553 0.90793 0.0
H878 H 0.06685 0.47103 0.97858 0.0
C879 C 0.1873 0.47049 0.12637 0.0
C880 C 0.14257 0.47614 0.02201 0.0
H881 H 0.0961 0.49635 0.99578 0.0
C882 C 0.14105 0.45908 0.98413 0.0
C883 C 0.12568 0.48905 0.02871 0.0
C884 C 0.12546 0.50642 0.07321 0.0
C885 C 0.12352 0.45529 0.95008 0.0
C886 C 0.10739 0.46932 0.95259 0.0
C887 C 0.10851 0.4857 0.99307 0.0
C888 C 0.09003 0.46849 0.91038 0.0
C889 C 0.12255 0.43628 0.91193 0.0
C890 C 0.09366 0.46816 0.84859 0.0
C891 C 0.07775 0.47036 0.8083 0.0
C892 C 0.05787 0.47349 0.82882 0.0
C893 C 0.05409 0.47318 0.89067 0.0
C894 C 0.07003 0.47063 0.93107 0.0
H895 H 0.13135 0.42378 0.93246 0.0
H896 H 0.1067 0.43085 0.90521 0.0
H897 H 0.12942 0.4396 0.86764 0.0
H898 H 0.10895 0.46723 0.83129 0.0
H899 H 0.08129 0.4707 0.76101 0.0
H900 H 0.02937 0.8113 0.31088 0.0
H901 H 0.02008 0.83942 0.3772 0.0
H902 H 0.95678 0.82492 0.35069 0.0
H903 H 0.96602 0.79672 0.28389 0.0
H904 H 0.96863 0.8665 0.32581 0.0
H905 H 0.99548 0.84088 0.54769 0.0
H906 H 0.01379 0.83788 0.48893 0.0
H907 H 0.99048 0.82338 0.48672 0.0
C908 C 0.01349 0.81384 0.32033 0.0
C909 C 0.9984 0.80186 0.29252 0.0
C910 C 0.00821 0.82983 0.35828 0.0
C911 C 0.98776 0.83413 0.36901 0.0
C912 C 0.97264 0.82172 0.34313 0.0
H913 H 0.96152 0.93189 0.62045 0.0
H914 H 0.95729 0.90065 0.56198 0.0
C915 C 0.97793 0.80557 0.30546 0.0
C916 C 0.98239 0.8527 0.40279 0.0
H917 H 0.99013 0.87673 0.53622 0.0
C918 C 0.973 0.86867 0.37215 0.0
C919 C 0.98798 0.85538 0.46321 0.0
C920 C 0.99733 0.83841 0.49884 0.0
C921 C 0.96995 0.88767 0.39967 0.0
C922 C 0.97665 0.89072 0.45902 0.0
C923 C 0.98512 0.8744 0.49051 0.0
C924 C 0.97617 0.91093 0.48864 0.0
C925 C 0.95986 0.90436 0.3648 0.0
C926 C 0.98771 0.92733 0.46586 0.0
C927 C 0.99016 0.94529 0.49914 0.0
C928 C 0.98127 0.94702 0.55606 0.0
C929 C 0.96871 0.93102 0.57697 0.0
C930 C 0.96625 0.91313 0.54365 0.0
H931 H 0.95039 0.89802 0.32795 0.0
H932 H 0.95019 0.91384 0.39424 0.0
H933 H 0.97167 0.91442 0.34466 0.0
H934 H 0.99579 0.92581 0.42393 0.0
H935 H -1e-05 0.95727 0.48186 0.0
H936 H 0.70235 0.96205 0.26085 0.0
H937 H 0.67575 0.95114 0.33108 0.0
H938 H 0.65948 0.014 0.35908 0.0
H939 H 0.68624 0.02499 0.29028 0.0
H940 H 0.65924 0.99016 0.46404 0.0
H941 H 0.6158 0.9537 0.27801 0.0
H942 H 0.64128 0.94515 0.28956 0.0
H943 H 0.63702 0.97078 0.26486 0.0
C944 C 0.69343 0.97354 0.28323 0.0
C945 C 0.6962 0.99436 0.26983 0.0
C946 C 0.67813 0.96728 0.32274 0.0
C947 C 0.66545 0.98176 0.34921 0.0
C948 C 0.66904 0.00259 0.33873 0.0
H949 H 0.54593 0.99254 0.47163 0.0
H950 H 0.57714 0.98818 0.41449 0.0
C951 C 0.68426 0.00884 0.29934 0.0
C952 C 0.64758 0.9755 0.38493 0.0
H953 H 0.59987 0.95517 0.37174 0.0
C954 C 0.64636 0.98219 0.44435 0.0
C955 C 0.63078 0.96531 0.35854 0.0
C956 C 0.63109 0.9584 0.29414 0.0
C957 C 0.62848 0.97971 0.47757 0.0
C958 C 0.61151 0.96991 0.4508 0.0
C959 C 0.61298 0.96252 0.3921 0.0
C960 C 0.59154 0.9693 0.48086 0.0
C961 C 0.62753 0.98868 0.53976 0.0
C962 C 0.58897 0.95928 0.53568 0.0
C963 C 0.57121 0.96186 0.56867 0.0
C964 C 0.55566 0.97434 0.54701 0.0
C965 C 0.55763 0.98291 0.48972 0.0
C966 C 0.57546 0.98044 0.45699 0.0
H967 H 0.64059 0.99907 0.54918 0.0
H968 H 0.61332 0.9973 0.54616 0.0
H969 H 0.62772 0.97615 0.57304 0.0
H970 H 0.60106 0.95024 0.55417 0.0
H971 H 0.57006 0.95481 0.61231 0.0
H972 H 0.54802 0.67283 0.18542 0.0
H973 H 0.55451 0.64372 0.25055 0.0
H974 H 0.52503 0.67459 0.39653 0.0
H975 H 0.51808 0.70366 0.33111 0.0
H976 H 0.5731 0.63767 0.36568 0.0
H977 H 0.48995 0.62258 0.36344 0.0
H978 H 0.50212 0.64032 0.31282 0.0
H979 H 0.49753 0.64756 0.38911 0.0
C980 C 0.54322 0.67354 0.2317 0.0
C981 C 0.53225 0.69033 0.25304 0.0
C982 C 0.54703 0.65697 0.26886 0.0
C983 C 0.53992 0.6569 0.32788 0.0
C984 C 0.5304 0.67431 0.35076 0.0
H985 H 0.55219 0.56594 0.60271 0.0
H986 H 0.55743 0.59528 0.53753 0.0
C987 C 0.52658 0.69094 0.31355 0.0
C988 C 0.54049 0.63782 0.36295 0.0
H989 H 0.50979 0.60075 0.42212 0.0
C990 C 0.5593 0.62958 0.37825 0.0
C991 C 0.52244 0.62711 0.37784 0.0
C992 C 0.50185 0.63468 0.3596 0.0
C993 C 0.56049 0.611 0.40926 0.0
C994 C 0.54239 0.6006 0.42561 0.0
C995 C 0.52364 0.60875 0.40949 0.0
C996 C 0.54228 0.58161 0.46134 0.0
C997 C 0.58106 0.60251 0.42344 0.0
C998 C 0.53221 0.56405 0.43993 0.0
C999 C 0.52901 0.54724 0.4773 0.0
C1000 C 0.5357 0.54779 0.53694 0.0
C1001 C 0.54679 0.56498 0.55708 0.0
C1002 C 0.54995 0.58176 0.51971 0.0
H1003 H 0.59298 0.60897 0.39356 0.0
H1004 H 0.58512 0.60656 0.47013 0.0
H1005 H 0.58101 0.58562 0.41929 0.0
H1006 H 0.52612 0.56367 0.39499 0.0
H1007 H 0.52045 0.53426 0.46027 0.0
H1008 H 0.80559 0.52556 0.31378 0.0
H1009 H 0.83474 0.53188 0.37891 0.0
H1010 H 0.85912 0.57509 0.25161 0.0
H1011 H 0.83009 0.5686 0.186 0.0
H1012 H 0.88491 0.5448 0.2738 0.0
H1013 H 0.85755 0.5756 0.48906 0.0
H1014 H 0.8433 0.55338 0.46651 0.0
H1015 H 0.84249 0.57616 0.42171 0.0
C1016 C 0.81678 0.53698 0.30083 0.0
C1017 C 0.81569 0.5465 0.24478 0.0
C1018 C 0.83342 0.54063 0.33814 0.0
C1019 C 0.84908 0.55405 0.32029 0.0
C1020 C 0.84721 0.56472 0.26631 0.0
H1021 H 0.96066 0.55922 0.53853 0.0
H1022 H 0.93245 0.57127 0.47699 0.0
C1023 C 0.83065 0.56099 0.2289 0.0
C1024 C 0.86867 0.55427 0.35265 0.0
H1025 H 0.88953 0.55771 0.49193 0.0
C1026 C 0.88599 0.54808 0.32125 0.0
C1027 C 0.87016 0.5587 0.41441 0.0
C1028 C 0.8524 0.56654 0.44973 0.0
C1029 C 0.90441 0.54494 0.35065 0.0
C1030 C 0.90547 0.54786 0.4131 0.0
C1031 C 0.88858 0.55532 0.44401 0.0
C1032 C 0.92319 0.54108 0.44769 0.0
C1033 C 0.92242 0.53783 0.31503 0.0
C1034 C 0.92726 0.52018 0.45118 0.0
C1035 C 0.94319 0.51327 0.48624 0.0
C1036 C 0.95542 0.52714 0.51849 0.0
C1037 C 0.95161 0.54817 0.51385 0.0
C1038 C 0.93547 0.55507 0.47905 0.0
H1039 H 0.92094 0.54169 0.26691 0.0
H1040 H 0.93671 0.54475 0.33239 0.0
H1041 H 0.92353 0.521 0.3188 0.0
H1042 H 0.9178 0.50914 0.42775 0.0
H1043 H 0.9457 0.49699 0.48879 0.0
loop_
_geom_bond_atom_site_label_1
_geom_bond_atom_site_label_2
_geom_bond_distance
_geom_bond_site_symmetry_2
_ccdc_geom_bond_type
H0 C3 0.929 . S
H1 C6 0.929 . S
H2 C8 0.930 . S
C3 H0 0.929 . S
C3 C4 1.398 . S
C3 C5 1.396 . S
C4 C3 1.398 . S
C4 C8 1.407 . S
C5 C3 1.396 . S
C5 C6 1.394 1_554 S
C6 H1 0.929 . S
C6 C5 1.394 1_556 S
C6 C7 1.382 1_556 S
C7 C6 1.382 1_554 S
C7 C8 1.392 . S
C7 N9 1.420 . S
C8 H2 0.930 . S
C8 C4 1.407 . S
C8 C7 1.392 . S
N9 C7 1.420 . S
N9 C10 1.244 1_554 S
C10 N9 1.244 1_556 S
H11 C14 0.937 . S
H12 C17 0.929 . S
H13 C19 0.930 . S
C14 H11 0.937 . S
C14 C15 1.395 1_655 S
C14 C16 1.391 1_655 S
C15 C14 1.395 1_455 S
C15 C19 1.407 . S
C16 C14 1.391 1_455 S
C16 C17 1.404 . S
C17 H12 0.929 . S
C17 C16 1.404 . S
C17 C18 1.382 . S
C18 C17 1.382 . S
C18 C19 1.392 . S
C18 N20 1.420 . S
C19 H13 0.930 . S
C19 C15 1.407 . S
C19 C18 1.392 . S
N20 C18 1.420 . S
N20 C21 1.244 1_455 S
C21 N20 1.244 1_655 S
H22 C25 0.929 . S
H23 C28 0.929 . S
H24 C30 0.930 . S
C25 H22 0.929 . S
C25 C26 1.395 1_565 S
C25 C27 1.394 1_565 S
C26 C25 1.395 1_545 S
C26 C30 1.415 . S
C27 C25 1.394 1_545 S
C27 C28 1.398 . S
C28 H23 0.929 . S
C28 C27 1.398 . S
C28 C29 1.382 . S
C29 C28 1.382 . S
C29 C30 1.392 . S
C29 N31 1.420 . S
C30 H24 0.930 . S
C30 C26 1.415 . S
C30 C29 1.392 . S
N31 C29 1.420 . S
N31 C32 1.218 1_545 S
C32 N31 1.218 1_565 S
H33 C36 0.929 . S
H34 C39 0.929 1_556 S
H35 C41 0.930 . S
C36 H33 0.929 . S
C36 C37 1.398 . S
C36 C38 1.396 . S
C37 C36 1.398 . S
C37 C41 1.407 . S
C38 C36 1.396 . S
C38 C39 1.394 . S
C39 H34 0.929 1_554 S
C39 C38 1.394 . S
C39 C40 1.382 . S
C40 C39 1.382 . S
C40 C41 1.392 . S
C40 N42 1.420 . S
C41 H35 0.930 . S
C41 C37 1.407 . S
C41 C40 1.392 . S
N42 C40 1.420 . S
N42 C43 1.244 . S
C43 N42 1.244 . S
H44 C47 0.929 . S
H45 C50 0.929 . S
H46 C52 0.930 . S
C47 H44 0.929 . S
C47 C48 1.398 . S
C47 C49 1.396 . S
C48 C47 1.398 . S
C48 C52 1.407 . S
C49 C47 1.396 . S
C49 C50 1.394 . S
C50 H45 0.929 . S
C50 C49 1.394 . S
C50 C51 1.382 . S
C51 C50 1.382 . S
C51 C52 1.392 . S
C51 N53 1.420 . S
C52 H46 0.930 . S
C52 C48 1.407 . S
C52 C51 1.392 . S
N53 C51 1.420 . S
N53 C54 1.244 . S
C54 N53 1.244 . S
H55 C58 0.929 . S
H56 C61 0.929 . S
H57 C63 0.930 . S
C58 H55 0.929 . S
C58 C59 1.398 . S
C58 C60 1.396 . S
C59 C58 1.398 . S
C59 C63 1.407 . S
C60 C58 1.396 . S
C60 C61 1.394 . S
C61 H56 0.929 . S
C61 C60 1.394 . S
C61 C62 1.382 . S
C62 C61 1.382 . S
C62 C63 1.392 . S
C62 N64 1.420 . S
C63 H57 0.930 . S
C63 C59 1.407 . S
C63 C62 1.392 . S
N64 C62 1.420 . S
N64 C65 1.244 . S
C65 N64 1.244 . S
H66 C69 0.929 . S
H67 C72 0.929 . S
H68 C74 0.930 . S
C69 H66 0.929 . S
C69 C70 1.398 . S
C69 C71 1.396 . S
C70 C69 1.398 . S
C70 C74 1.407 . S
C71 C69 1.396 . S
C71 C72 1.394 . S
C72 H67 0.929 . S
C72 C71 1.394 . S
C72 C73 1.382 . S
C73 C72 1.382 . S
C73 C74 1.392 . S
C73 N75 1.420 . S
C74 H68 0.930 . S
C74 C70 1.407 . S
C74 C73 1.392 . S
N75 C73 1.420 . S
N75 C76 1.244 . S
C76 N75 1.244 . S
H77 C80 0.929 . S
H78 C83 0.929 . S
H79 C85 0.930 . S
C80 H77 0.929 . S
C80 C81 1.398 . S
C80 C82 1.396 . S
C81 C80 1.398 . S
C81 C85 1.407 . S
C82 C80 1.396 . S
C82 C83 1.394 . S
C83 H78 0.929 . S
C83 C82 1.394 . S
C83 C84 1.382 . S
C84 C83 1.382 . S
C84 C85 1.392 . S
C84 N86 1.420 . S
C85 H79 0.930 . S
C85 C81 1.407 . S
C85 C84 1.392 . S
N86 C84 1.420 . S
N86 C87 1.244 . S
C87 N86 1.244 . S
O88 Zn89 1.956 . S
O88 C104 1.225 1_545 S
Zn89 O88 1.956 . S
Zn89 O90 1.948 1_545 S
Zn89 O96 1.950 . S
Zn89 O101 1.887 1_545 S
O90 Zn89 1.948 1_565 S
O90 Zn91 1.903 1_465 S
O90 Zn92 1.952 . S
O90 Zn93 1.963 1_455 S
Zn91 O90 1.903 1_645 S
Zn91 O94 1.933 . S
Zn91 O97 1.941 1_655 S
Zn91 O98 1.965 1_655 S
Zn92 O90 1.952 . S
Zn92 O99 1.938 1_565 S
Zn92 O100 1.906 . S
Zn92 O110 1.953 . S
Zn93 O90 1.963 1_655 S
Zn93 O95 1.932 . S
Zn93 O102 1.977 . S
Zn93 O103 1.910 1_655 S
O94 Zn91 1.933 . S
O94 C105 1.226 . S
O95 Zn93 1.932 . S
O95 C105 1.307 1_565 S
O96 Zn89 1.950 . S
O96 C107 1.253 . S
O97 Zn91 1.941 1_455 S
O97 C107 1.283 . S
O98 Zn91 1.965 1_455 S
O98 C106 1.303 . S
O99 Zn92 1.938 1_545 S
O99 C106 1.247 . S
O100 Zn92 1.906 . S
O100 C108 1.304 1_455 S
O101 Zn89 1.887 1_565 S
O101 C109 1.311 . S
O102 Zn93 1.977 . S
O102 C108 1.272 . S
O103 Zn93 1.910 1_455 S
O103 C109 1.231 . S
C104 O88 1.225 1_565 S
C104 O110 1.298 . S
C105 O94 1.226 . S
C105 O95 1.307 1_545 S
C106 O98 1.303 . S
C106 O99 1.247 . S
C107 O96 1.253 . S
C107 O97 1.283 . S
C108 O100 1.304 1_655 S
C108 O102 1.272 . S
C109 O101 1.311 . S
C109 O103 1.231 . S
O110 Zn92 1.953 . S
O110 C104 1.298 . S
O111 Zn112 1.953 . S
O111 C127 1.225 . S
Zn112 O111 1.953 . S
Zn112 O113 1.949 . S
Zn112 O119 1.919 . S
Zn112 O124 1.924 . S
O113 Zn112 1.949 . S
O113 Zn114 1.923 1_545 S
O113 Zn115 1.950 . S
O113 Zn116 1.945 1_545 S
Zn114 O113 1.923 1_565 S
Zn114 O117 1.933 . S
Zn114 O120 1.941 . S
Zn114 O121 1.965 . S
Zn115 O113 1.950 . S
Zn115 O122 1.938 . S
Zn115 O123 1.906 . S
Zn115 O133 1.953 . S
Zn116 O113 1.945 1_565 S
Zn116 O118 1.932 . S
Zn116 O125 1.977 . S
Zn116 O126 1.910 1_565 S
O117 Zn114 1.933 . S
O117 C128 1.226 . S
O118 Zn116 1.932 . S
O118 C128 1.307 . S
O119 Zn112 1.919 . S
O119 C130 1.253 . S
O120 Zn114 1.941 . S
O120 C130 1.283 1_565 S
O121 Zn114 1.965 . S
O121 C129 1.303 1_565 S
O122 Zn115 1.938 . S
O122 C129 1.247 . S
O123 Zn115 1.906 . S
O123 C131 1.304 1_545 S
O124 Zn112 1.924 . S
O124 C132 1.311 . S
O125 Zn116 1.977 . S
O125 C131 1.272 . S
O126 Zn116 1.910 1_545 S
O126 C132 1.231 . S
C127 O111 1.225 . S
C127 O133 1.298 . S
C128 O117 1.226 . S
C128 O118 1.307 . S
C129 O121 1.303 1_545 S
C129 O122 1.247 . S
C130 O119 1.253 . S
C130 O120 1.283 1_545 S
C131 O123 1.304 1_565 S
C131 O125 1.272 . S
C132 O124 1.311 . S
C132 O126 1.231 . S
O133 Zn115 1.953 . S
O133 C127 1.298 . S
O134 Zn135 1.953 . S
O134 C150 1.225 . S
Zn135 O134 1.953 . S
Zn135 O136 1.949 . S
Zn135 O142 1.919 . S
Zn135 O147 1.924 . S
O136 Zn135 1.949 . S
O136 Zn137 1.923 . S
O136 Zn138 1.950 . S
O136 Zn139 1.945 . S
Zn137 O136 1.923 . S
Zn137 O140 1.933 . S
Zn137 O143 1.941 . S
Zn137 O144 1.965 . S
Zn138 O136 1.950 . S
Zn138 O145 1.938 . S
Zn138 O146 1.906 . S
Zn138 O156 1.953 . S
Zn139 O136 1.945 . S
Zn139 O141 1.932 . S
Zn139 O148 1.977 . S
Zn139 O149 1.910 . S
O140 Zn137 1.933 . S
O140 C151 1.226 . S
O141 Zn139 1.932 . S
O141 C151 1.307 . S
O142 Zn135 1.919 . S
O142 C153 1.253 . S
O143 Zn137 1.941 . S
O143 C153 1.283 . S
O144 Zn137 1.965 . S
O144 C152 1.303 . S
O145 Zn138 1.938 . S
O145 C152 1.247 . S
O146 Zn138 1.906 . S
O146 C154 1.304 . S
O147 Zn135 1.924 . S
O147 C155 1.311 . S
O148 Zn139 1.977 . S
O148 C154 1.272 . S
O149 Zn139 1.910 . S
O149 C155 1.231 . S
C150 O134 1.225 . S
C150 O156 1.298 . S
C151 O140 1.226 . S
C151 O141 1.307 . S
C152 O144 1.303 . S
C152 O145 1.247 . S
C153 O142 1.253 . S
C153 O143 1.283 . S
C154 O146 1.304 . S
C154 O148 1.272 . S
C155 O147 1.311 . S
C155 O149 1.231 . S
O156 Zn138 1.953 . S
O156 C150 1.298 . S
O157 Zn158 1.927 1_655 S
O157 C173 1.225 . S
Zn158 O157 1.927 1_455 S
Zn158 O159 1.949 . S
Zn158 O165 1.919 . S
Zn158 O170 1.952 . S
O159 Zn158 1.949 . S
O159 Zn160 1.918 1_455 S
O159 Zn161 1.929 1_455 S
O159 Zn162 1.973 . S
Zn160 O159 1.918 1_655 S
Zn160 O163 1.933 1_655 S
Zn160 O166 1.941 . S
Zn160 O167 1.965 . S
Zn161 O159 1.929 1_655 S
Zn161 O168 1.938 . S
Zn161 O169 1.906 . S
Zn161 O179 1.953 . S
Zn162 O159 1.973 . S
Zn162 O164 1.932 . S
Zn162 O171 1.977 . S
Zn162 O172 1.910 . S
O163 Zn160 1.933 1_455 S
O163 C174 1.226 . S
O164 Zn162 1.932 . S
O164 C174 1.307 . S
O165 Zn158 1.919 . S
O165 C176 1.252 . S
O166 Zn160 1.941 . S
O166 C176 1.285 1_655 S
O167 Zn160 1.965 . S
O167 C175 1.303 . S
O168 Zn161 1.938 . S
O168 C175 1.247 . S
O169 Zn161 1.906 . S
O169 C177 1.304 1_655 S
O170 Zn158 1.952 . S
O170 C178 1.311 . S
O171 Zn162 1.977 . S
O171 C177 1.272 . S
O172 Zn162 1.910 . S
O172 C178 1.231 . S
C173 O157 1.225 . S
C173 O179 1.298 . S
C174 O163 1.226 . S
C174 O164 1.307 . S
C175 O167 1.303 . S
C175 O168 1.247 . S
C176 O165 1.252 . S
C176 O166 1.285 1_455 S
C177 O169 1.304 1_455 S
C177 O171 1.272 . S
C178 O170 1.311 . S
C178 O172 1.231 . S
O179 Zn161 1.953 . S
O179 C173 1.298 . S
H180 C188 0.929 . S
H181 C190 0.930 . S
H182 C192 0.930 . S
H183 C195 0.929 . S
H184 C198 0.936 . S
H185 C200 0.960 . S
H186 C200 0.960 . S
H187 C200 0.960 . S
C188 H180 0.929 . S
C188 C189 1.377 . S
C188 C190 1.384 . S
C189 C188 1.377 . S
C189 C195 1.390 1_545 S
C190 H181 0.930 . S
C190 C188 1.384 . S
C190 C191 1.372 . S
C191 C190 1.372 . S
C191 C192 1.400 1_545 S
C191 C196 1.490 . S
C192 H182 0.930 . S
C192 C191 1.400 1_565 S
C192 C195 1.386 . S
H193 C209 0.930 . S
H194 C210 0.931 . S
C195 H183 0.929 . S
C195 C189 1.390 1_565 S
C195 C192 1.386 . S
C196 C191 1.490 . S
C196 C198 1.387 1_545 S
C196 C199 1.403 . S
H197 C203 0.930 . S
C198 H184 0.936 . S
C198 C196 1.387 1_565 S
C198 C201 1.406 . S
C199 C196 1.403 . S
C199 C200 1.524 . S
C199 C203 1.400 . S
C200 H185 0.960 . S
C200 H186 0.960 . S
C200 H187 0.960 . S
C200 C199 1.524 . S
C201 C198 1.406 . S
C201 C202 1.392 1_565 S
C201 C205 1.495 . S
C202 C201 1.392 1_545 S
C202 C203 1.385 . S
C202 C204 1.477 1_545 S
C203 H197 0.930 . S
C203 C199 1.400 . S
C203 C202 1.385 . S
C204 C202 1.477 1_565 S
C204 C206 1.379 1_565 S
C204 C210 1.385 . S
C205 C201 1.495 . S
C205 H211 0.959 . S
C205 H212 0.961 . S
C205 H213 0.960 1_565 S
C206 C204 1.379 1_545 S
C206 C207 1.394 . S
C206 H214 0.930 . S
C207 C206 1.394 . S
C207 C208 1.383 1_545 S
C207 H215 0.929 . S
C208 C207 1.383 1_565 S
C208 C209 1.377 . S
C209 H193 0.930 . S
C209 C208 1.377 . S
C209 C210 1.379 . S
C210 H194 0.931 . S
C210 C204 1.385 . S
C210 C209 1.379 . S
H211 C205 0.959 . S
H212 C205 0.961 . S
H213 C205 0.960 1_545 S
H214 C206 0.930 . S
H215 C207 0.929 . S
H216 C224 0.929 . S
H217 C226 0.930 . S
H218 C228 0.930 . S
H219 C231 0.929 . S
H220 C234 0.930 . S
H221 C236 0.960 . S
H222 C236 0.960 . S
H223 C236 0.960 . S
C224 H216 0.929 . S
C224 C225 1.377 . S
C224 C226 1.384 . S
C225 C224 1.377 . S
C225 C231 1.390 . S
C226 H217 0.930 . S
C226 C224 1.384 . S
C226 C227 1.372 . S
C227 C226 1.372 . S
C227 C228 1.400 . S
C227 C232 1.490 . S
C228 H218 0.930 . S
C228 C227 1.400 . S
C228 C231 1.386 . S
H229 C245 0.930 . S
H230 C246 0.931 . S
C231 H219 0.929 . S
C231 C225 1.390 . S
C231 C228 1.386 . S
C232 C227 1.490 . S
C232 C234 1.395 . S
C232 C235 1.403 . S
H233 C239 0.930 . S
C234 H220 0.930 . S
C234 C232 1.395 . S
C234 C237 1.403 . S
C235 C232 1.403 . S
C235 C236 1.524 . S
C235 C239 1.400 . S
C236 H221 0.960 . S
C236 H222 0.960 . S
C236 H223 0.960 . S
C236 C235 1.524 . S
C237 C234 1.403 . S
C237 C238 1.392 . S
C237 C241 1.495 . S
C238 C237 1.392 . S
C238 C239 1.385 . S
C238 C240 1.478 . S
C239 H233 0.930 . S
C239 C235 1.400 . S
C239 C238 1.385 . S
C240 C238 1.478 . S
C240 C242 1.381 . S
C240 C246 1.383 . S
C241 C237 1.495 . S
C241 H247 0.959 . S
C241 H248 0.961 . S
C241 H249 0.960 . S
C242 C240 1.381 . S
C242 C243 1.394 . S
C242 H250 0.930 . S
C243 C242 1.394 . S
C243 C244 1.383 . S
C243 H251 0.929 . S
C244 C243 1.383 . S
C244 C245 1.377 . S
C245 H229 0.930 . S
C245 C244 1.377 . S
C245 C246 1.379 . S
C246 H230 0.931 . S
C246 C240 1.383 . S
C246 C245 1.379 . S
H247 C241 0.959 . S
H248 C241 0.961 . S
H249 C241 0.960 . S
H250 C242 0.930 . S
H251 C243 0.929 . S
H252 C260 0.929 . S
H253 C262 0.930 . S
H254 C264 0.930 . S
H255 C267 0.929 . S
H256 C270 0.930 . S
H257 C272 0.960 . S
H258 C272 0.960 . S
H259 C272 0.960 . S
C260 H252 0.929 . S
C260 C261 1.377 . S
C260 C262 1.384 . S
C261 C260 1.377 . S
C261 C267 1.390 . S
C262 H253 0.930 . S
C262 C260 1.384 . S
C262 C263 1.372 . S
C263 C262 1.372 . S
C263 C264 1.400 . S
C263 C268 1.490 . S
C264 H254 0.930 . S
C264 C263 1.400 . S
C264 C267 1.386 . S
H265 C281 0.930 . S
H266 C282 0.931 . S
C267 H255 0.929 . S
C267 C261 1.390 . S
C267 C264 1.386 . S
C268 C263 1.490 . S
C268 C270 1.395 . S
C268 C271 1.403 . S
H269 C275 0.930 . S
C270 H256 0.930 . S
C270 C268 1.395 . S
C270 C273 1.403 . S
C271 C268 1.403 . S
C271 C272 1.524 . S
C271 C275 1.400 . S
C272 H257 0.960 . S
C272 H258 0.960 . S
C272 H259 0.960 . S
C272 C271 1.524 . S
C273 C270 1.403 . S
C273 C274 1.392 . S
C273 C277 1.495 . S
C274 C273 1.392 . S
C274 C275 1.385 . S
C274 C276 1.478 . S
C275 H269 0.930 . S
C275 C271 1.400 . S
C275 C274 1.385 . S
C276 C274 1.478 . S
C276 C278 1.381 . S
C276 C282 1.383 . S
C277 C273 1.495 . S
C277 H283 0.959 . S
C277 H284 0.961 . S
C277 H285 0.960 . S
C278 C276 1.381 . S
C278 C279 1.394 . S
C278 H286 0.930 . S
C279 C278 1.394 . S
C279 C280 1.383 . S
C279 H287 0.929 . S
C280 C279 1.383 . S
C280 C281 1.377 . S
C281 H265 0.930 . S
C281 C280 1.377 . S
C281 C282 1.379 . S
C282 H266 0.931 . S
C282 C276 1.383 . S
C282 C281 1.379 . S
H283 C277 0.959 . S
H284 C277 0.961 . S
H285 C277 0.960 . S
H286 C278 0.930 . S
H287 C279 0.929 . S
H288 C296 0.929 . S
H289 C298 0.930 . S
H290 C300 0.930 . S
H291 C303 0.929 . S
H292 C306 0.953 . S
H293 C308 0.960 . S
H294 C308 0.960 . S
H295 C308 0.960 . S
C296 H288 0.929 . S
C296 C297 1.377 . S
C296 C298 1.384 . S
C297 C296 1.377 . S
C297 C303 1.390 . S
C298 H289 0.930 . S
C298 C296 1.384 . S
C298 C299 1.372 . S
C299 C298 1.372 . S
C299 C300 1.400 . S
C299 C304 1.490 . S
C300 H290 0.930 . S
C300 C299 1.400 . S
C300 C303 1.386 . S
H301 C317 0.930 . S
H302 C318 0.931 . S
C303 H291 0.929 . S
C303 C297 1.390 . S
C303 C300 1.386 . S
C304 C299 1.490 . S
C304 C306 1.395 . S
C304 C307 1.403 . S
H305 C311 0.930 . S
C306 H292 0.953 . S
C306 C304 1.395 . S
C306 C309 1.403 . S
C307 C304 1.403 . S
C307 C308 1.524 . S
C307 C311 1.400 . S
C308 H293 0.960 . S
C308 H294 0.960 . S
C308 H295 0.960 . S
C308 C307 1.524 . S
C309 C306 1.403 . S
C309 C310 1.392 . S
C309 C313 1.495 1_455 S
C310 C309 1.392 . S
C310 C311 1.385 . S
C310 C312 1.478 . S
C311 H305 0.930 . S
C311 C307 1.400 . S
C311 C310 1.385 . S
C312 C310 1.478 . S
C312 C314 1.381 1_455 S
C312 C318 1.383 . S
C313 C309 1.495 1_655 S
C313 H319 0.959 . S
C313 H320 0.961 . S
C313 H321 0.960 . S
C314 C312 1.381 1_655 S
C314 C315 1.394 . S
C314 H322 0.930 . S
C315 C314 1.394 . S
C315 C316 1.383 1_655 S
C315 H323 0.929 . S
C316 C315 1.383 1_455 S
C316 C317 1.377 . S
C317 H301 0.930 . S
C317 C316 1.377 . S
C317 C318 1.379 . S
C318 H302 0.931 . S
C318 C312 1.383 . S
C318 C317 1.379 . S
H319 C313 0.959 . S
H320 C313 0.961 . S
H321 C313 0.960 . S
H322 C314 0.930 . S
H323 C315 0.929 . S
H324 C332 0.929 . S
H325 C334 0.930 . S
H326 C336 0.930 . S
H327 C339 0.929 . S
H328 C342 0.930 . S
H329 C344 0.960 . S
H330 C344 0.960 1_565 S
H331 C344 0.960 . S
C332 H324 0.929 . S
C332 C333 1.405 1_556 S
C332 C334 1.384 . S
C333 C332 1.405 1_554 S
C333 C339 1.363 1_565 S
C334 H325 0.930 . S
C334 C332 1.384 . S
C334 C335 1.417 . S
C335 C334 1.417 . S
C335 C336 1.353 1_566 S
C335 C340 1.490 . S
C336 H326 0.930 . S
C336 C335 1.353 1_544 S
C336 C339 1.386 . S
H337 C353 0.930 . S
H338 C354 0.931 . S
C339 H327 0.929 . S
C339 C333 1.363 1_545 S
C339 C336 1.386 . S
C340 C335 1.490 . S
C340 C342 1.403 . S
C340 C343 1.397 1_565 S
H341 C347 0.930 . S
C342 H328 0.930 . S
C342 C340 1.403 . S
C342 C345 1.403 . S
C343 C340 1.397 1_545 S
C343 C344 1.524 1_556 S
C343 C347 1.400 . S
C344 H329 0.960 . S
C344 H330 0.960 1_545 S
C344 H331 0.960 . S
C344 C343 1.524 1_554 S
C345 C342 1.403 . S
C345 C346 1.395 . S
C345 C349 1.495 . S
C346 C345 1.395 . S
C346 C347 1.383 1_565 S
C346 C348 1.477 1_565 S
C347 H341 0.930 . S
C347 C343 1.400 . S
C347 C346 1.383 1_545 S
C348 C346 1.477 1_545 S
C348 C350 1.364 1_545 S
C348 C354 1.400 . S
C349 C345 1.495 . S
C349 H355 0.959 . S
C349 H356 0.961 1_565 S
C349 H357 0.960 . S
C350 C348 1.364 1_565 S
C350 C351 1.394 . S
C350 H358 0.930 . S
C351 C350 1.394 . S
C351 C352 1.383 1_565 S
C351 H359 0.929 . S
C352 C351 1.383 1_545 S
C352 C353 1.377 . S
C353 H337 0.930 . S
C353 C352 1.377 . S
C353 C354 1.379 . S
C354 H338 0.931 . S
C354 C348 1.400 . S
C354 C353 1.379 . S
H355 C349 0.959 . S
H356 C349 0.961 1_545 S
H357 C349 0.960 . S
H358 C350 0.930 . S
H359 C351 0.929 . S
H360 C368 0.929 . S
H361 C370 0.930 1_554 S
H362 C372 0.930 . S
H363 C375 0.929 . S
H364 C378 0.930 . S
H365 C380 0.960 . S
H366 C380 0.960 . S
H367 C380 0.960 . S
C368 H360 0.929 . S
C368 C369 1.385 . S
C368 C370 1.384 1_554 S
C369 C368 1.385 . S
C369 C375 1.374 1_554 S
C370 H361 0.930 1_556 S
C370 C368 1.384 1_556 S
C370 C371 1.372 . S
C371 C370 1.372 . S
C371 C372 1.400 . S
C371 C376 1.490 . S
C372 H362 0.930 . S
C372 C371 1.400 . S
C372 C375 1.386 . S
H373 C389 0.930 . S
H374 C390 0.931 . S
C375 H363 0.929 . S
C375 C369 1.374 1_556 S
C375 C372 1.386 . S
C376 C371 1.490 . S
C376 C378 1.395 . S
C376 C379 1.403 . S
H377 C383 0.930 . S
C378 H364 0.930 . S
C378 C376 1.395 . S
C378 C381 1.403 . S
C379 C376 1.403 . S
C379 C380 1.524 . S
C379 C383 1.400 . S
C380 H365 0.960 . S
C380 H366 0.960 . S
C380 H367 0.960 . S
C380 C379 1.524 . S
C381 C378 1.403 . S
C381 C382 1.392 . S
C381 C385 1.495 . S
C382 C381 1.392 . S
C382 C383 1.385 . S
C382 C384 1.478 . S
C383 H377 0.930 . S
C383 C379 1.400 . S
C383 C382 1.385 . S
C384 C382 1.478 . S
C384 C386 1.381 . S
C384 C390 1.383 . S
C385 C381 1.495 . S
C385 H391 0.959 . S
C385 H392 0.961 . S
C385 H393 0.960 . S
C386 C384 1.381 . S
C386 C387 1.394 . S
C386 H394 0.930 . S
C387 C386 1.394 . S
C387 C388 1.383 . S
C387 H395 0.929 . S
C388 C387 1.383 . S
C388 C389 1.377 . S
C389 H373 0.930 . S
C389 C388 1.377 . S
C389 C390 1.379 . S
C390 H374 0.931 . S
C390 C384 1.383 . S
C390 C389 1.379 . S
H391 C385 0.959 . S
H392 C385 0.961 . S
H393 C385 0.960 . S
H394 C386 0.930 . S
H395 C387 0.929 . S
H396 C404 0.929 . S
H397 C406 0.930 . S
H398 C408 0.930 . S
H399 C411 0.929 . S
H400 C414 0.930 . S
H401 C416 0.960 . S
H402 C416 0.960 . S
H403 C416 0.960 . S
C404 H396 0.929 . S
C404 C405 1.377 . S
C404 C406 1.384 . S
C405 C404 1.377 . S
C405 C411 1.390 . S
C406 H397 0.930 . S
C406 C404 1.384 . S
C406 C407 1.372 . S
C407 C406 1.372 . S
C407 C408 1.400 . S
C407 C412 1.490 . S
C408 H398 0.930 . S
C408 C407 1.400 . S
C408 C411 1.386 . S
H409 C425 0.930 . S
H410 C426 0.931 . S
C411 H399 0.929 . S
C411 C405 1.390 . S
C411 C408 1.386 . S
C412 C407 1.490 . S
C412 C414 1.395 . S
C412 C415 1.403 . S
H413 C419 0.930 . S
C414 H400 0.930 . S
C414 C412 1.395 . S
C414 C417 1.403 . S
C415 C412 1.403 . S
C415 C416 1.524 . S
C415 C419 1.400 . S
C416 H401 0.960 . S
C416 H402 0.960 . S
C416 H403 0.960 . S
C416 C415 1.524 . S
C417 C414 1.403 . S
C417 C418 1.392 . S
C417 C421 1.495 . S
C418 C417 1.392 . S
C418 C419 1.385 . S
C418 C420 1.478 . S
C419 H413 0.930 . S
C419 C415 1.400 . S
C419 C418 1.385 . S
C420 C418 1.478 . S
C420 C422 1.381 . S
C420 C426 1.383 . S
C421 C417 1.495 . S
C421 H427 0.959 . S
C421 H428 0.961 . S
C421 H429 0.960 . S
C422 C420 1.381 . S
C422 C423 1.394 . S
C422 H430 0.930 . S
C423 C422 1.394 . S
C423 C424 1.383 . S
C423 H431 0.929 . S
C424 C423 1.383 . S
C424 C425 1.377 . S
C425 H409 0.930 . S
C425 C424 1.377 . S
C425 C426 1.379 . S
C426 H410 0.931 . S
C426 C420 1.383 . S
C426 C425 1.379 . S
H427 C421 0.959 . S
H428 C421 0.961 . S
H429 C421 0.960 . S
H430 C422 0.930 . S
H431 C423 0.929 . S
H432 C440 0.929 . S
H433 C442 0.930 . S
H434 C444 0.930 . S
H435 C447 0.929 . S
H436 C450 0.930 . S
H437 C452 0.960 . S
H438 C452 0.960 . S
H439 C452 0.960 . S
C440 H432 0.929 . S
C440 C441 1.377 1_456 S
C440 C442 1.384 . S
C441 C440 1.377 1_654 S
C441 C447 1.390 . S
C442 H433 0.930 . S
C442 C440 1.384 . S
C442 C443 1.374 . S
C443 C442 1.374 . S
C443 C444 1.397 1_456 S
C443 C448 1.490 . S
C444 H434 0.930 . S
C444 C443 1.397 1_654 S
C444 C447 1.386 . S
H445 C461 0.929 . S
H446 C462 0.922 1_655 S
C447 H435 0.929 . S
C447 C441 1.390 . S
C447 C444 1.386 . S
C448 C443 1.490 . S
C448 C450 1.395 . S
C448 C451 1.403 1_455 S
H449 C455 0.930 . S
C450 H436 0.930 . S
C450 C448 1.395 . S
C450 C453 1.403 . S
C451 C448 1.403 1_655 S
C451 C452 1.524 . S
C451 C455 1.400 . S
C452 H437 0.960 . S
C452 H438 0.960 . S
C452 H439 0.960 . S
C452 C451 1.524 . S
C453 C450 1.403 . S
C453 C454 1.392 . S
C453 C457 1.495 . S
C454 C453 1.392 . S
C454 C455 1.385 1_455 S
C454 C456 1.478 . S
C455 H449 0.930 . S
C455 C451 1.400 . S
C455 C454 1.385 1_655 S
C456 C454 1.478 . S
C456 C458 1.381 . S
C456 C462 1.394 . S
C457 C453 1.495 . S
C457 H463 0.959 . S
C457 H464 0.961 . S
C457 H465 0.960 . S
C458 C456 1.381 . S
C458 C459 1.394 . S
C458 H466 0.930 . S
C459 C458 1.394 . S
C459 C460 1.383 . S
C459 H467 0.929 . S
C460 C459 1.383 . S
C460 C461 1.377 1_455 S
C461 H445 0.929 . S
C461 C460 1.377 1_655 S
C461 C462 1.379 1_655 S
C462 H446 0.922 1_455 S
C462 C456 1.394 . S
C462 C461 1.379 1_455 S
H463 C457 0.959 . S
H464 C457 0.961 . S
H465 C457 0.960 . S
H466 C458 0.930 . S
H467 C459 0.929 . S
H468 C476 0.929 . S
H469 C478 0.930 . S
H470 C480 0.930 . S
H471 C483 0.929 . S
H472 C486 0.930 . S
H473 C488 0.960 . S
H474 C488 0.960 . S
H475 C488 0.960 . S
C476 H468 0.929 . S
C476 C477 1.377 . S
C476 C478 1.384 . S
C477 C476 1.377 . S
C477 C483 1.390 . S
C478 H469 0.930 . S
C478 C476 1.384 . S
C478 C479 1.372 . S
C479 C478 1.372 . S
C479 C480 1.400 . S
C479 C484 1.490 . S
C480 H470 0.930 . S
C480 C479 1.400 . S
C480 C483 1.386 . S
H481 C497 0.930 . S
H482 C498 0.931 . S
C483 H471 0.929 . S
C483 C477 1.390 . S
C483 C480 1.386 . S
C484 C479 1.490 . S
C484 C486 1.395 . S
C484 C487 1.403 . S
H485 C491 0.930 . S
C486 H472 0.930 . S
C486 C484 1.395 . S
C486 C489 1.403 . S
C487 C484 1.403 . S
C487 C488 1.524 1_455 S
C487 C491 1.400 . S
C488 H473 0.960 . S
C488 H474 0.960 . S
C488 H475 0.960 . S
C488 C487 1.524 1_655 S
C489 C486 1.403 . S
C489 C490 1.392 . S
C489 C493 1.495 . S
C490 C489 1.392 . S
C490 C491 1.385 . S
C490 C492 1.478 . S
C491 H485 0.930 . S
C491 C487 1.400 . S
C491 C490 1.385 . S
C492 C490 1.478 . S
C492 C494 1.381 . S
C492 C498 1.383 . S
C493 C489 1.495 . S
C493 H499 0.959 . S
C493 H500 0.961 . S
C493 H501 0.960 . S
C494 C492 1.381 . S
C494 C495 1.394 . S
C494 H502 0.930 . S
C495 C494 1.394 . S
C495 C496 1.383 . S
C495 H503 0.929 . S
C496 C495 1.383 . S
C496 C497 1.377 . S
C497 H481 0.930 . S
C497 C496 1.377 . S
C497 C498 1.379 . S
C498 H482 0.931 . S
C498 C492 1.383 . S
C498 C497 1.379 . S
H499 C493 0.959 . S
H500 C493 0.961 . S
H501 C493 0.960 . S
H502 C494 0.930 . S
H503 C495 0.929 . S
H504 C512 0.929 . S
H505 C514 0.930 . S
H506 C516 0.925 1_565 S
H507 C519 0.926 1_565 S
H508 C522 0.938 . S
H509 C524 0.960 . S
H510 C524 0.960 . S
H511 C524 0.960 . S
C512 H504 0.929 . S
C512 C513 1.377 . S
C512 C514 1.384 . S
C513 C512 1.377 . S
C513 C519 1.393 . S
C514 H505 0.930 . S
C514 C512 1.384 . S
C514 C515 1.372 . S
C515 C514 1.372 . S
C515 C516 1.404 . S
C515 C520 1.490 . S
C516 H506 0.925 1_545 S
C516 C515 1.404 . S
C516 C519 1.386 . S
H517 C533 0.930 . S
H518 C534 0.931 . S
C519 H507 0.926 1_545 S
C519 C513 1.393 . S
C519 C516 1.386 . S
C520 C515 1.490 . S
C520 C522 1.386 1_545 S
C520 C523 1.403 . S
H521 C527 0.930 . S
C522 H508 0.938 . S
C522 C520 1.386 1_565 S
C522 C525 1.405 . S
C523 C520 1.403 . S
C523 C524 1.524 . S
C523 C527 1.400 . S
C524 H509 0.960 . S
C524 H510 0.960 . S
C524 H511 0.960 . S
C524 C523 1.524 . S
C525 C522 1.405 . S
C525 C526 1.392 1_565 S
C525 C529 1.495 . S
C526 C525 1.392 1_545 S
C526 C527 1.385 . S
C526 C528 1.478 . S
C527 H521 0.930 . S
C527 C523 1.400 . S
C527 C526 1.385 . S
C528 C526 1.478 . S
C528 C530 1.381 . S
C528 C534 1.383 1_545 S
C529 C525 1.495 . S
C529 H535 0.959 . S
C529 H536 0.961 . S
C529 H537 0.960 . S
C530 C528 1.381 . S
C530 C531 1.394 . S
C530 H538 0.930 . S
C531 C530 1.394 . S
C531 C532 1.383 . S
C531 H539 0.929 . S
C532 C531 1.383 . S
C532 C533 1.377 1_545 S
C533 H517 0.930 . S
C533 C532 1.377 1_565 S
C533 C534 1.379 . S
C534 H518 0.931 . S
C534 C528 1.383 1_565 S
C534 C533 1.379 . S
H535 C529 0.959 . S
H536 C529 0.961 . S
H537 C529 0.960 . S
H538 C530 0.930 . S
H539 C531 0.929 . S
H540 C548 0.929 . S
H541 C550 0.930 . S
H542 C552 0.930 . S
H543 C555 0.929 . S
H544 C558 0.930 . S
H545 C560 0.960 . S
H546 C560 0.960 . S
H547 C560 0.960 . S
C548 H540 0.929 . S
C548 C549 1.377 . S
C548 C550 1.384 . S
C549 C548 1.377 . S
C549 C555 1.390 . S
C550 H541 0.930 . S
C550 C548 1.384 . S
C550 C551 1.372 . S
C551 C550 1.372 . S
C551 C552 1.400 . S
C551 C556 1.490 . S
C552 H542 0.930 . S
C552 C551 1.400 . S
C552 C555 1.386 . S
H553 C569 0.930 . S
H554 C570 0.931 . S
C555 H543 0.929 . S
C555 C549 1.390 . S
C555 C552 1.386 . S
C556 C551 1.490 . S
C556 C558 1.395 . S
C556 C559 1.403 . S
H557 C563 0.930 . S
C558 H544 0.930 . S
C558 C556 1.395 . S
C558 C561 1.403 . S
C559 C556 1.403 . S
C559 C560 1.524 . S
C559 C563 1.400 . S
C560 H545 0.960 . S
C560 H546 0.960 . S
C560 H547 0.960 . S
C560 C559 1.524 . S
C561 C558 1.403 . S
C561 C562 1.392 . S
C561 C565 1.495 . S
C562 C561 1.392 . S
C562 C563 1.385 . S
C562 C564 1.478 . S
C563 H557 0.930 . S
C563 C559 1.400 . S
C563 C562 1.385 . S
C564 C562 1.478 . S
C564 C566 1.381 . S
C564 C570 1.383 . S
C565 C561 1.495 . S
C565 H571 0.959 . S
C565 H572 0.961 . S
C565 H573 0.960 . S
C566 C564 1.381 . S
C566 C567 1.394 . S
C566 H574 0.930 . S
C567 C566 1.394 . S
C567 C568 1.383 . S
C567 H575 0.929 . S
C568 C567 1.383 . S
C568 C569 1.377 . S
C569 H553 0.930 . S
C569 C568 1.377 . S
C569 C570 1.379 . S
C570 H554 0.931 . S
C570 C564 1.383 . S
C570 C569 1.379 . S
H571 C565 0.959 . S
H572 C565 0.961 . S
H573 C565 0.960 . S
H574 C566 0.930 . S
H575 C567 0.929 . S
H576 C584 0.929 . S
H577 C586 0.930 . S
H578 C588 0.930 . S
H579 C591 0.929 . S
H580 C594 0.930 . S
H581 C596 0.960 . S
H582 C596 0.960 . S
H583 C596 0.960 . S
C584 H576 0.929 . S
C584 C585 1.377 . S
C584 C586 1.384 . S
C585 C584 1.377 . S
C585 C591 1.390 . S
C586 H577 0.930 . S
C586 C584 1.384 . S
C586 C587 1.372 . S
C587 C586 1.372 . S
C587 C588 1.400 . S
C587 C592 1.490 . S
C588 H578 0.930 . S
C588 C587 1.400 . S
C588 C591 1.386 . S
H589 C605 0.930 . S
H590 C606 0.931 . S
C591 H579 0.929 . S
C591 C585 1.390 . S
C591 C588 1.386 . S
C592 C587 1.490 . S
C592 C594 1.395 . S
C592 C595 1.403 . S
H593 C599 0.930 . S
C594 H580 0.930 . S
C594 C592 1.395 . S
C594 C597 1.403 . S
C595 C592 1.403 . S
C595 C596 1.524 . S
C595 C599 1.400 . S
C596 H581 0.960 . S
C596 H582 0.960 . S
C596 H583 0.960 . S
C596 C595 1.524 . S
C597 C594 1.403 . S
C597 C598 1.392 . S
C597 C601 1.495 . S
C598 C597 1.392 . S
C598 C599 1.385 . S
C598 C600 1.478 . S
C599 H593 0.930 . S
C599 C595 1.400 . S
C599 C598 1.385 . S
C600 C598 1.478 . S
C600 C602 1.381 . S
C600 C606 1.383 . S
C601 C597 1.495 . S
C601 H607 0.959 . S
C601 H608 0.961 . S
C601 H609 0.960 . S
C602 C600 1.381 . S
C602 C603 1.394 . S
C602 H610 0.930 . S
C603 C602 1.394 . S
C603 C604 1.383 . S
C603 H611 0.929 . S
C604 C603 1.383 . S
C604 C605 1.377 . S
C605 H589 0.930 . S
C605 C604 1.377 . S
C605 C606 1.379 . S
C606 H590 0.931 . S
C606 C600 1.383 . S
C606 C605 1.379 . S
H607 C601 0.959 . S
H608 C601 0.961 . S
H609 C601 0.960 . S
H610 C602 0.930 . S
H611 C603 0.929 . S
H612 C620 0.929 . S
H613 C622 0.930 . S
H614 C624 0.930 . S
H615 C627 0.928 1_656 S
H616 C630 0.930 . S
H617 C632 0.960 . S
H618 C632 0.960 . S
H619 C632 0.960 . S
C620 H612 0.929 . S
C620 C621 1.375 1_455 S
C620 C622 1.384 . S
C621 C620 1.375 1_655 S
C621 C627 1.387 1_655 S
C622 H613 0.930 . S
C622 C620 1.384 . S
C622 C623 1.372 . S
C623 C622 1.372 . S
C623 C624 1.400 1_554 S
C623 C628 1.490 1_554 S
C624 H614 0.930 . S
C624 C623 1.400 1_556 S
C624 C627 1.386 1_556 S
H625 C641 0.930 . S
H626 C642 0.931 . S
C627 H615 0.928 1_454 S
C627 C621 1.387 1_455 S
C627 C624 1.386 1_554 S
C628 C623 1.490 1_556 S
C628 C630 1.395 1_556 S
C628 C631 1.381 1_455 S
H629 C635 0.930 1_655 S
C630 H616 0.930 . S
C630 C628 1.395 1_554 S
C630 C633 1.404 1_554 S
C631 C628 1.381 1_655 S
C631 C632 1.555 . S
C631 C635 1.391 1_655 S
C632 H617 0.960 . S
C632 H618 0.960 . S
C632 H619 0.960 . S
C632 C631 1.555 . S
C633 C630 1.404 1_556 S
C633 C634 1.392 . S
C633 C637 1.495 . S
C634 C633 1.392 . S
C634 C635 1.385 . S
C634 C636 1.478 . S
C635 H629 0.930 1_455 S
C635 C631 1.391 1_455 S
C635 C634 1.385 . S
C636 C634 1.478 . S
C636 C638 1.381 . S
C636 C642 1.383 . S
C637 C633 1.495 . S
C637 H643 0.959 1_556 S
C637 H644 0.961 . S
C637 H645 0.960 1_556 S
C638 C636 1.381 . S
C638 C639 1.394 . S
C638 H646 0.930 . S
C639 C638 1.394 . S
C639 C640 1.383 . S
C639 H647 0.929 . S
C640 C639 1.383 . S
C640 C641 1.377 . S
C641 H625 0.930 . S
C641 C640 1.377 . S
C641 C642 1.379 . S
C642 H626 0.931 . S
C642 C636 1.383 . S
C642 C641 1.379 . S
H643 C637 0.959 1_554 S
H644 C637 0.961 . S
H645 C637 0.960 1_554 S
H646 C638 0.930 . S
H647 C639 0.929 . S
H648 C656 0.929 . S
H649 C658 0.930 . S
H650 C660 0.930 . S
H651 C663 0.929 . S
H652 C666 0.930 . S
H653 C668 0.960 . S
H654 C668 0.960 . S
H655 C668 0.960 . S
C656 H648 0.929 . S
C656 C657 1.347 1_545 S
C656 C658 1.384 . S
C657 C656 1.347 1_565 S
C657 C663 1.412 1_554 S
C658 H649 0.930 . S
C658 C656 1.384 . S
C658 C659 1.372 1_554 S
C659 C658 1.372 1_556 S
C659 C660 1.400 1_545 S
C659 C664 1.490 . S
C660 H650 0.930 . S
C660 C659 1.400 1_565 S
C660 C663 1.386 . S
H661 C677 0.930 . S
H662 C678 0.931 . S
C663 H651 0.929 . S
C663 C657 1.412 1_556 S
C663 C660 1.386 . S
C664 C659 1.490 . S
C664 C666 1.395 . S
C664 C667 1.403 1_545 S
H665 C671 0.930 1_565 S
C666 H652 0.930 . S
C666 C664 1.395 . S
C666 C669 1.403 . S
C667 C664 1.403 1_565 S
C667 C668 1.524 . S
C667 C671 1.400 1_565 S
C668 H653 0.960 . S
C668 H654 0.960 . S
C668 H655 0.960 . S
C668 C667 1.524 . S
C669 C666 1.403 . S
C669 C670 1.392 . S
C669 C673 1.495 . S
C670 C669 1.392 . S
C670 C671 1.385 . S
C670 C672 1.478 . S
C671 H665 0.930 1_545 S
C671 C667 1.400 1_545 S
C671 C670 1.385 . S
C672 C670 1.478 . S
C672 C674 1.381 . S
C672 C678 1.383 . S
C673 C669 1.495 . S
C673 H679 0.959 . S
C673 H680 0.961 . S
C673 H681 0.960 . S
C674 C672 1.381 . S
C674 C675 1.394 . S
C674 H682 0.930 . S
C675 C674 1.394 . S
C675 C676 1.383 . S
C675 H683 0.929 . S
C676 C675 1.383 . S
C676 C677 1.377 . S
C677 H661 0.930 . S
C677 C676 1.377 . S
C677 C678 1.379 . S
C678 H662 0.931 . S
C678 C672 1.383 . S
C678 C677 1.379 . S
H679 C673 0.959 . S
H680 C673 0.961 . S
H681 C673 0.960 . S
H682 C674 0.930 . S
H683 C675 0.929 . S
H684 C692 0.929 . S
H685 C694 0.930 . S
H686 C696 0.930 1_554 S
H687 C699 0.929 . S
H688 C702 0.930 . S
H689 C704 0.960 1_554 S
H690 C704 0.960 . S
H691 C704 0.960 1_554 S
C692 H684 0.929 . S
C692 C693 1.377 1_556 S
C692 C694 1.384 . S
C693 C692 1.377 1_554 S
C693 C699 1.390 . S
C694 H685 0.930 . S
C694 C692 1.384 . S
C694 C695 1.372 . S
C695 C694 1.372 . S
C695 C696 1.400 . S
C695 C700 1.490 . S
C696 H686 0.930 1_556 S
C696 C695 1.400 . S
C696 C699 1.386 1_556 S
H697 C713 0.930 . S
H698 C714 0.931 . S
C699 H687 0.929 . S
C699 C693 1.390 . S
C699 C696 1.386 1_554 S
C700 C695 1.490 . S
C700 C702 1.395 . S
C700 C703 1.403 . S
H701 C707 0.930 . S
C702 H688 0.930 . S
C702 C700 1.395 . S
C702 C705 1.403 . S
C703 C700 1.403 . S
C703 C704 1.524 . S
C703 C707 1.400 . S
C704 H689 0.960 1_556 S
C704 H690 0.960 . S
C704 H691 0.960 1_556 S
C704 C703 1.524 . S
C705 C702 1.403 . S
C705 C706 1.392 . S
C705 C709 1.495 . S
C706 C705 1.392 . S
C706 C707 1.385 . S
C706 C708 1.478 . S
C707 H701 0.930 . S
C707 C703 1.400 . S
C707 C706 1.385 . S
C708 C706 1.478 . S
C708 C710 1.381 . S
C708 C714 1.383 . S
C709 C705 1.495 . S
C709 H715 0.959 . S
C709 H716 0.961 . S
C709 H717 0.960 . S
C710 C708 1.381 . S
C710 C711 1.394 . S
C710 H718 0.930 . S
C711 C710 1.394 . S
C711 C712 1.383 . S
C711 H719 0.929 . S
C712 C711 1.383 . S
C712 C713 1.377 . S
C713 H697 0.930 . S
C713 C712 1.377 . S
C713 C714 1.379 . S
C714 H698 0.931 . S
C714 C708 1.383 . S
C714 C713 1.379 . S
H715 C709 0.959 . S
H716 C709 0.961 . S
H717 C709 0.960 . S
H718 C710 0.930 . S
H719 C711 0.929 . S
H720 C728 0.929 . S
H721 C730 0.930 . S
H722 C732 0.930 . S
H723 C735 0.923 1_554 S
H724 C738 0.930 . S
H725 C740 0.960 1_554 S
H726 C740 0.960 1_554 S
H727 C740 0.960 1_554 S
C728 H720 0.929 . S
C728 C729 1.377 . S
C728 C730 1.384 . S
C729 C728 1.377 . S
C729 C735 1.391 . S
C730 H721 0.930 . S
C730 C728 1.384 . S
C730 C731 1.372 . S
C731 C730 1.372 . S
C731 C732 1.400 . S
C731 C736 1.490 . S
C732 H722 0.930 . S
C732 C731 1.400 . S
C732 C735 1.391 . S
H733 C749 0.930 . S
H734 C750 0.931 . S
C735 H723 0.923 1_556 S
C735 C729 1.391 . S
C735 C732 1.391 . S
C736 C731 1.490 . S
C736 C738 1.395 . S
C736 C739 1.403 . S
H737 C743 0.930 . S
C738 H724 0.930 . S
C738 C736 1.395 . S
C738 C741 1.403 . S
C739 C736 1.403 . S
C739 C740 1.524 . S
C739 C743 1.400 . S
C740 H725 0.960 1_556 S
C740 H726 0.960 1_556 S
C740 H727 0.960 1_556 S
C740 C739 1.524 . S
C741 C738 1.403 . S
C741 C742 1.392 . S
C741 C745 1.495 . S
C742 C741 1.392 . S
C742 C743 1.385 . S
C742 C744 1.478 . S
C743 H737 0.930 . S
C743 C739 1.400 . S
C743 C742 1.385 . S
C744 C742 1.478 . S
C744 C746 1.381 . S
C744 C750 1.383 . S
C745 C741 1.495 . S
C745 H751 0.959 . S
C745 H752 0.961 . S
C745 H753 0.960 . S
C746 C744 1.381 . S
C746 C747 1.394 . S
C746 H754 0.930 . S
C747 C746 1.394 . S
C747 C748 1.383 . S
C747 H755 0.929 . S
C748 C747 1.383 . S
C748 C749 1.377 . S
C749 H733 0.930 . S
C749 C748 1.377 . S
C749 C750 1.379 . S
C750 H734 0.931 . S
C750 C744 1.383 . S
C750 C749 1.379 . S
H751 C745 0.959 . S
H752 C745 0.961 . S
H753 C745 0.960 . S
H754 C746 0.930 . S
H755 C747 0.929 . S
H756 C764 0.929 . S
H757 C766 0.930 . S
H758 C768 0.930 . S
H759 C771 0.929 . S
H760 C774 0.930 . S
H761 C776 0.960 1_556 S
H762 C776 0.960 . S
H763 C776 0.960 . S
C764 H756 0.929 . S
C764 C765 1.377 . S
C764 C766 1.384 . S
C765 C764 1.377 . S
C765 C771 1.390 . S
C766 H757 0.930 . S
C766 C764 1.384 . S
C766 C767 1.372 . S
C767 C766 1.372 . S
C767 C768 1.400 . S
C767 C772 1.490 . S
C768 H758 0.930 . S
C768 C767 1.400 . S
C768 C771 1.386 . S
H769 C785 0.930 1_655 S
H770 C786 0.931 1_655 S
C771 H759 0.929 . S
C771 C765 1.390 . S
C771 C768 1.386 . S
C772 C767 1.490 . S
C772 C774 1.395 . S
C772 C775 1.403 . S
H773 C779 0.930 1_556 S
C774 H760 0.930 . S
C774 C772 1.395 . S
C774 C777 1.403 . S
C775 C772 1.403 . S
C775 C776 1.524 . S
C775 C779 1.400 . S
C776 H761 0.960 1_554 S
C776 H762 0.960 . S
C776 H763 0.960 . S
C776 C775 1.524 . S
C777 C774 1.403 . S
C777 C778 1.392 . S
C777 C781 1.495 . S
C778 C777 1.392 . S
C778 C779 1.385 . S
C778 C780 1.478 1_554 S
C779 H773 0.930 1_554 S
C779 C775 1.400 . S
C779 C778 1.385 . S
C780 C778 1.478 1_556 S
C780 C782 1.381 . S
C780 C786 1.383 . S
C781 C777 1.495 . S
C781 H787 0.959 . S
C781 H788 0.961 . S
C781 H789 0.960 . S
C782 C780 1.381 . S
C782 C783 1.394 . S
C782 H790 0.930 . S
C783 C782 1.394 . S
C783 C784 1.383 . S
C783 H791 0.929 . S
C784 C783 1.383 . S
C784 C785 1.377 . S
C785 H769 0.930 1_455 S
C785 C784 1.377 . S
C785 C786 1.379 . S
C786 H770 0.931 1_455 S
C786 C780 1.383 . S
C786 C785 1.379 . S
H787 C781 0.959 . S
H788 C781 0.961 . S
H789 C781 0.960 . S
H790 C782 0.930 . S
H791 C783 0.929 . S
H792 C800 0.929 . S
H793 C802 0.930 . S
H794 C804 0.930 . S
H795 C807 0.929 . S
H796 C810 0.930 . S
H797 C812 0.960 . S
H798 C812 0.960 1_545 S
H799 C812 0.960 . S
C800 H792 0.929 . S
C800 C801 1.377 . S
C800 C802 1.384 . S
C801 C800 1.377 . S
C801 C807 1.390 1_545 S
C802 H793 0.930 . S
C802 C800 1.384 . S
C802 C803 1.372 . S
C803 C802 1.372 . S
C803 C804 1.400 1_545 S
C803 C808 1.490 . S
C804 H794 0.930 . S
C804 C803 1.400 1_565 S
C804 C807 1.386 . S
H805 C821 0.930 . S
H806 C822 0.931 . S
C807 H795 0.929 . S
C807 C801 1.390 1_565 S
C807 C804 1.386 . S
C808 C803 1.490 . S
C808 C810 1.395 . S
C808 C811 1.403 . S
H809 C815 0.915 1_565 S
C810 H796 0.930 . S
C810 C808 1.395 . S
C810 C813 1.403 . S
C811 C808 1.403 . S
C811 C812 1.524 1_544 S
C811 C815 1.400 1_554 S
C812 H797 0.960 . S
C812 H798 0.960 1_565 S
C812 H799 0.960 . S
C812 C811 1.524 1_566 S
C813 C810 1.403 . S
C813 C814 1.392 1_554 S
C813 C817 1.495 . S
C814 C813 1.392 1_556 S
C814 C815 1.385 . S
C814 C816 1.478 . S
C815 H809 0.915 1_545 S
C815 C811 1.400 1_556 S
C815 C814 1.385 . S
C816 C814 1.478 . S
C816 C818 1.381 . S
C816 C822 1.383 1_545 S
C817 C813 1.495 . S
C817 H823 0.959 . S
C817 H824 0.961 . S
C817 H825 0.960 . S
C818 C816 1.381 . S
C818 C819 1.394 . S
C818 H826 0.930 . S
C819 C818 1.394 . S
C819 C820 1.383 . S
C819 H827 0.929 . S
C820 C819 1.383 . S
C820 C821 1.377 1_545 S
C821 H805 0.930 . S
C821 C820 1.377 1_565 S
C821 C822 1.379 . S
C822 H806 0.931 . S
C822 C816 1.383 1_565 S
C822 C821 1.379 . S
H823 C817 0.959 . S
H824 C817 0.961 . S
H825 C817 0.960 . S
H826 C818 0.930 . S
H827 C819 0.929 . S
H828 C836 0.929 . S
H829 C838 0.930 . S
H830 C840 0.930 . S
H831 C843 0.929 . S
H832 C846 0.930 . S
H833 C848 0.960 . S
H834 C848 0.960 . S
H835 C848 0.960 . S
C836 H828 0.929 . S
C836 C837 1.377 . S
C836 C838 1.384 . S
C837 C836 1.377 . S
C837 C843 1.390 . S
C838 H829 0.930 . S
C838 C836 1.384 . S
C838 C839 1.372 . S
C839 C838 1.372 . S
C839 C840 1.400 . S
C839 C844 1.490 . S
C840 H830 0.930 . S
C840 C839 1.400 . S
C840 C843 1.386 . S
H841 C857 0.930 . S
H842 C858 0.931 . S
C843 H831 0.929 . S
C843 C837 1.390 . S
C843 C840 1.386 . S
C844 C839 1.490 . S
C844 C846 1.395 1_554 S
C844 C847 1.403 . S
H845 C851 0.930 . S
C846 H832 0.930 . S
C846 C844 1.395 1_556 S
C846 C849 1.403 . S
C847 C844 1.403 . S
C847 C848 1.524 . S
C847 C851 1.400 . S
C848 H833 0.960 . S
C848 H834 0.960 . S
C848 H835 0.960 . S
C848 C847 1.524 . S
C849 C846 1.403 . S
C849 C850 1.392 . S
C849 C853 1.495 . S
C850 C849 1.392 . S
C850 C851 1.385 1_556 S
C850 C852 1.478 . S
C851 H845 0.930 . S
C851 C847 1.400 . S
C851 C850 1.385 1_554 S
C852 C850 1.478 . S
C852 C854 1.381 . S
C852 C858 1.383 . S
C853 C849 1.495 . S
C853 H859 0.959 . S
C853 H860 0.961 . S
C853 H861 0.960 . S
C854 C852 1.381 . S
C854 C855 1.394 . S
C854 H862 0.930 . S
C855 C854 1.394 . S
C855 C856 1.383 . S
C855 H863 0.929 . S
C856 C855 1.383 . S
C856 C857 1.377 . S
C857 H841 0.930 . S
C857 C856 1.377 . S
C857 C858 1.379 . S
C858 H842 0.931 . S
C858 C852 1.383 . S
C858 C857 1.379 . S
H859 C853 0.959 . S
H860 C853 0.961 . S
H861 C853 0.960 . S
H862 C854 0.930 . S
H863 C855 0.929 . S
H864 C872 0.929 . S
H865 C874 0.930 . S
H866 C876 0.930 . S
H867 C879 0.929 . S
H868 C882 0.930 . S
H869 C884 0.960 . S
H870 C884 0.960 . S
H871 C884 0.960 . S
C872 H864 0.929 . S
C872 C873 1.377 . S
C872 C874 1.384 . S
C873 C872 1.377 . S
C873 C879 1.390 . S
C874 H865 0.930 . S
C874 C872 1.384 . S
C874 C875 1.372 . S
C875 C874 1.372 . S
C875 C876 1.400 . S
C875 C880 1.490 . S
C876 H866 0.930 . S
C876 C875 1.400 . S
C876 C879 1.386 . S
H877 C893 0.930 . S
H878 C894 0.931 . S
C879 H867 0.929 . S
C879 C873 1.390 . S
C879 C876 1.386 . S
C880 C875 1.490 . S
C880 C882 1.395 1_554 S
C880 C883 1.403 . S
H881 C887 0.930 . S
C882 H868 0.930 . S
C882 C880 1.395 1_556 S
C882 C885 1.403 . S
C883 C880 1.403 . S
C883 C884 1.524 . S
C883 C887 1.400 . S
C884 H869 0.960 . S
C884 H870 0.960 . S
C884 H871 0.960 . S
C884 C883 1.524 . S
C885 C882 1.403 . S
C885 C886 1.392 . S
C885 C889 1.495 . S
C886 C885 1.392 . S
C886 C887 1.385 1_556 S
C886 C888 1.478 . S
C887 H881 0.930 . S
C887 C883 1.400 . S
C887 C886 1.385 1_554 S
C888 C886 1.478 . S
C888 C890 1.381 . S
C888 C894 1.383 . S
C889 C885 1.495 . S
C889 H895 0.959 . S
C889 H896 0.961 . S
C889 H897 0.960 . S
C890 C888 1.381 . S
C890 C891 1.394 . S
C890 H898 0.930 . S
C891 C890 1.394 . S
C891 C892 1.383 . S
C891 H899 0.929 . S
C892 C891 1.383 . S
C892 C893 1.377 . S
C893 H877 0.930 . S
C893 C892 1.377 . S
C893 C894 1.379 . S
C894 H878 0.931 . S
C894 C888 1.383 . S
C894 C893 1.379 . S
H895 C889 0.959 . S
H896 C889 0.961 . S
H897 C889 0.960 . S
H898 C890 0.930 . S
H899 C891 0.929 . S
H900 C908 0.929 . S
H901 C910 0.930 . S
H902 C912 0.930 . S
H903 C915 0.929 . S
H904 C918 0.930 . S
H905 C920 0.960 . S
H906 C920 0.960 . S
H907 C920 0.960 . S
C908 H900 0.929 . S
C908 C909 1.379 . S
C908 C910 1.384 . S
C909 C908 1.379 . S
C909 C915 1.388 1_455 S
C910 H901 0.930 . S
C910 C908 1.384 . S
C910 C911 1.372 1_455 S
C911 C910 1.372 1_655 S
C911 C912 1.400 . S
C911 C916 1.490 . S
C912 H902 0.930 . S
C912 C911 1.400 . S
C912 C915 1.386 . S
H913 C929 0.930 . S
H914 C930 0.931 . S
C915 H903 0.929 . S
C915 C909 1.388 1_655 S
C915 C912 1.386 . S
C916 C911 1.490 . S
C916 C918 1.395 . S
C916 C919 1.403 1_655 S
H917 C923 0.930 . S
C918 H904 0.930 . S
C918 C916 1.395 . S
C918 C921 1.403 . S
C919 C916 1.403 1_455 S
C919 C920 1.524 . S
C919 C923 1.400 . S
C920 H905 0.960 . S
C920 H906 0.960 . S
C920 H907 0.960 . S
C920 C919 1.524 . S
C921 C918 1.403 . S
C921 C922 1.392 . S
C921 C925 1.495 . S
C922 C921 1.392 . S
C922 C923 1.385 1_655 S
C922 C924 1.478 . S
C923 H917 0.930 . S
C923 C919 1.400 . S
C923 C922 1.385 1_455 S
C924 C922 1.478 . S
C924 C926 1.381 1_655 S
C924 C930 1.383 . S
C925 C921 1.495 . S
C925 H931 0.959 . S
C925 H932 0.961 . S
C925 H933 0.960 . S
C926 C924 1.381 1_455 S
C926 C927 1.394 . S
C926 H934 0.930 . S
C927 C926 1.394 . S
C927 C928 1.383 1_455 S
C927 H935 0.929 . S
C928 C927 1.383 1_655 S
C928 C929 1.377 . S
C929 H913 0.930 . S
C929 C928 1.377 . S
C929 C930 1.379 . S
C930 H914 0.931 . S
C930 C924 1.383 . S
C930 C929 1.379 . S
H931 C925 0.959 . S
H932 C925 0.961 . S
H933 C925 0.960 . S
H934 C926 0.930 . S
H935 C927 0.929 . S
H936 C944 0.929 . S
H937 C946 0.930 . S
H938 C948 0.930 . S
H939 C951 0.929 . S
H940 C954 0.930 . S
H941 C956 0.960 . S
H942 C956 0.960 . S
H943 C956 0.960 1_545 S
C944 H936 0.929 . S
C944 C945 1.377 . S
C944 C946 1.384 . S
C945 C944 1.377 . S
C945 C951 1.390 1_565 S
C946 H937 0.930 . S
C946 C944 1.384 . S
C946 C947 1.372 . S
C947 C946 1.372 . S
C947 C948 1.400 1_565 S
C947 C952 1.490 . S
C948 H938 0.930 . S
C948 C947 1.400 1_545 S
C948 C951 1.386 . S
H949 C965 0.930 . S
H950 C966 0.931 . S
C951 H939 0.929 . S
C951 C945 1.390 1_545 S
C951 C948 1.386 . S
C952 C947 1.490 . S
C952 C954 1.395 . S
C952 C955 1.403 . S
H953 C959 0.930 . S
C954 H940 0.930 . S
C954 C952 1.395 . S
C954 C957 1.403 . S
C955 C952 1.403 . S
C955 C956 1.524 . S
C955 C959 1.400 . S
C956 H941 0.960 . S
C956 H942 0.960 . S
C956 H943 0.960 1_565 S
C956 C955 1.524 . S
C957 C954 1.403 . S
C957 C958 1.392 . S
C957 C961 1.495 . S
C958 C957 1.392 . S
C958 C959 1.385 . S
C958 C960 1.478 . S
C959 H953 0.930 . S
C959 C955 1.400 . S
C959 C958 1.385 . S
C960 C958 1.478 . S
C960 C962 1.381 . S
C960 C966 1.383 1_565 S
C961 C957 1.495 . S
C961 H967 0.959 . S
C961 H968 0.975 . S
C961 H969 0.960 . S
C962 C960 1.381 . S
C962 C963 1.394 . S
C962 H970 0.930 . S
C963 C962 1.394 . S
C963 C964 1.383 . S
C963 H971 0.929 . S
C964 C963 1.383 . S
C964 C965 1.377 1_565 S
C965 H949 0.930 . S
C965 C964 1.377 1_545 S
C965 C966 1.379 . S
C966 H950 0.931 . S
C966 C960 1.383 1_545 S
C966 C965 1.379 . S
H967 C961 0.959 . S
H968 C961 0.975 . S
H969 C961 0.960 . S
H970 C962 0.930 . S
H971 C963 0.929 . S
H972 C980 0.929 . S
H973 C982 0.930 . S
H974 C984 0.930 . S
H975 C987 0.929 . S
H976 C990 0.930 . S
H977 C992 0.960 . S
H978 C992 0.960 . S
H979 C992 0.960 . S
C980 H972 0.929 . S
C980 C981 1.377 . S
C980 C982 1.384 . S
C981 C980 1.377 . S
C981 C987 1.390 . S
C982 H973 0.930 . S
C982 C980 1.384 . S
C982 C983 1.372 . S
C983 C982 1.372 . S
C983 C984 1.400 . S
C983 C988 1.490 . S
C984 H974 0.930 . S
C984 C983 1.400 . S
C984 C987 1.386 . S
H985 C1001 0.930 . S
H986 C1002 0.931 . S
C987 H975 0.929 . S
C987 C981 1.390 . S
C987 C984 1.386 . S
C988 C983 1.490 . S
C988 C990 1.395 . S
C988 C991 1.403 . S
H989 C995 0.930 . S
C990 H976 0.930 . S
C990 C988 1.395 . S
C990 C993 1.403 . S
C991 C988 1.403 . S
C991 C992 1.524 . S
C991 C995 1.400 . S
C992 H977 0.960 . S
C992 H978 0.960 . S
C992 H979 0.960 . S
C992 C991 1.524 . S
C993 C990 1.403 . S
C993 C994 1.392 . S
C993 C997 1.495 . S
C994 C993 1.392 . S
C994 C995 1.385 . S
C994 C996 1.478 . S
C995 H989 0.930 . S
C995 C991 1.400 . S
C995 C994 1.385 . S
C996 C994 1.478 . S
C996 C998 1.381 . S
C996 C1002 1.383 . S
C997 C993 1.495 . S
C997 H1003 0.959 . S
C997 H1004 0.961 . S
C997 H1005 0.960 . S
C998 C996 1.381 . S
C998 C999 1.394 . S
C998 H1006 0.930 . S
C999 C998 1.394 . S
C999 C1000 1.383 . S
C999 H1007 0.929 . S
C1000 C999 1.383 . S
C1000 C1001 1.377 . S
C1001 H985 0.930 . S
C1001 C1000 1.377 . S
C1001 C1002 1.379 . S
C1002 H986 0.931 . S
C1002 C996 1.383 . S
C1002 C1001 1.379 . S
H1003 C997 0.959 . S
H1004 C997 0.961 . S
H1005 C997 0.960 . S
H1006 C998 0.930 . S
H1007 C999 0.929 . S
H1008 C1016 0.929 . S
H1009 C1018 0.930 . S
H1010 C1020 0.930 . S
H1011 C1023 0.929 . S
H1012 C1026 0.930 . S
H1013 C1028 0.960 . S
H1014 C1028 0.960 . S
H1015 C1028 0.960 . S
C1016 H1008 0.929 . S
C1016 C1017 1.377 . S
C1016 C1018 1.384 . S
C1017 C1016 1.377 . S
C1017 C1023 1.390 . S
C1018 H1009 0.930 . S
C1018 C1016 1.384 . S
C1018 C1019 1.372 . S
C1019 C1018 1.372 . S
C1019 C1020 1.400 . S
C1019 C1024 1.490 . S
C1020 H1010 0.930 . S
C1020 C1019 1.400 . S
C1020 C1023 1.386 . S
H1021 C1037 0.930 . S
H1022 C1038 0.931 . S
C1023 H1011 0.929 . S
C1023 C1017 1.390 . S
C1023 C1020 1.386 . S
C1024 C1019 1.490 . S
C1024 C1026 1.395 . S
C1024 C1027 1.403 . S
H1025 C1031 0.930 . S
C1026 H1012 0.930 . S
C1026 C1024 1.395 . S
C1026 C1029 1.403 . S
C1027 C1024 1.403 . S
C1027 C1028 1.524 . S
C1027 C1031 1.400 . S
C1028 H1013 0.960 . S
C1028 H1014 0.960 . S
C1028 H1015 0.960 . S
C1028 C1027 1.524 . S
C1029 C1026 1.403 . S
C1029 C1030 1.392 . S
C1029 C1033 1.495 . S
C1030 C1029 1.392 . S
C1030 C1031 1.385 . S
C1030 C1032 1.478 . S
C1031 H1025 0.930 . S
C1031 C1027 1.400 . S
C1031 C1030 1.385 . S
C1032 C1030 1.478 . S
C1032 C1034 1.381 . S
C1032 C1038 1.383 . S
C1033 C1029 1.495 . S
C1033 H1039 0.959 . S
C1033 H1040 0.961 . S
C1033 H1041 0.960 . S
C1034 C1032 1.381 . S
C1034 C1035 1.394 . S
C1034 H1042 0.930 . S
C1035 C1034 1.394 . S
C1035 C1036 1.383 . S
C1035 H1043 0.929 . S
C1036 C1035 1.383 . S
C1036 C1037 1.377 . S
C1037 H1021 0.930 . S
C1037 C1036 1.377 . S
C1037 C1038 1.379 . S
C1038 H1022 0.931 . S
C1038 C1032 1.383 . S
C1038 C1037 1.379 . S
H1039 C1033 0.959 . S
H1040 C1033 0.961 . S
H1041 C1033 0.960 . S
H1042 C1034 0.930 . S
H1043 C1035 0.929 . S
C189 C76 1.542 . S
C208 C104 1.548 . S
C244 C127 1.616 . S
C225 C87 1.592 . S
C280 C150 1.649 . S
C261 C54 1.618 . S
C316 C177 1.514 . S
C297 C65 1.544 . S
C352 C105 1.567 . S
C333 C32 1.543 . S
C369 C43 1.470 . S
C388 C128 1.480 . S
C405 C10 1.439 . S
C424 C151 1.449 . S
C441 C21 1.574 . S
C460 C176 1.599 . S
C496 C106 0.240 . S
C477 C60 0.367 . S
C532 C129 0.187 . S
C513 C71 0.328 . S
C568 C152 0.297 . S
C549 C82 0.307 . S
C585 C49 0.380 . S
C604 C178 0.466 . S
C621 C16 0.401 1_655 S
C640 C109 0.583 . S
C676 C132 0.608 . S
C657 C27 0.385 1_565 S
C712 C155 0.467 . S
C693 C38 0.380 . S
C729 C5 0.319 1_556 S
C748 C175 0.254 . S
C765 C59 1.583 . S
C784 C107 1.572 . S
C801 C70 1.524 . S
C820 C130 1.538 . S
C856 C153 1.521 . S
C837 C81 1.536 . S
C892 C174 1.309 . S
C873 C48 1.279 . S
C909 C15 1.565 . S
C928 C108 1.547 . S
C964 C131 1.449 . S
C945 C26 1.516 1_565 S
C1000 C154 1.462 . S
C981 C37 1.496 . S
C1017 C4 1.725 . S
C1036 C173 1.760 . S
