# Generated by pormake.
# Topology ant, (3,6)-cn, num edge types: 1
# Building blocks:
#     Node 0, Type 0, BuildingBlock: PAMTOO_clean_linker_0, # of connection points: 3
#     Node 1, Type 0, BuildingBlock: PAMTOO_clean_linker_0, # of connection points: 3
#     Node 2, Type 0, BuildingBlock: PAMTOO_clean_linker_0, # of connection points: 3
#     Node 3, Type 0, BuildingBlock: PAMTOO_clean_linker_0, # of connection points: 3
#     Node 4, Type 0, BuildingBlock: PAMTOO_clean_linker_0, # of connection points: 3
#     Node 5, Type 0, BuildingBlock: PAMTOO_clean_linker_0, # of connection points: 3
#     Node 6, Type 0, BuildingBlock: PAMTOO_clean_linker_0, # of connection points: 3
#     Node 7, Type 0, BuildingBlock: PAMTOO_clean_linker_0, # of connection points: 3
#     Node 8, Type 1, BuildingBlock: MIDCAF_clean_sbu_0, # of connection points: 6
#     Node 9, Type 1, BuildingBlock: MIDCAF_clean_sbu_0, # of connection points: 6
#     Node 10, Type 1, BuildingBlock: MIDCAF_clean_sbu_0, # of connection points: 6
#     Node 11, Type 1, BuildingBlock: MIDCAF_clean_sbu_0, # of connection points: 6
#     Edge 12, Type (0, 1), BuildingBlock: KIFKEQ_clean_linker_1, # of connection points: 2
#     Edge 13, Type (0, 1), BuildingBlock: KIFKEQ_clean_linker_1, # of connection points: 2
#     Edge 14, Type (0, 1), BuildingBlock: KIFKEQ_clean_linker_1, # of connection points: 2
#     Edge 15, Type (0, 1), BuildingBlock: KIFKEQ_clean_linker_1, # of connection points: 2
#     Edge 16, Type (0, 1), BuildingBlock: KIFKEQ_clean_linker_1, # of connection points: 2
#     Edge 17, Type (0, 1), BuildingBlock: KIFKEQ_clean_linker_1, # of connection points: 2
#     Edge 18, Type (0, 1), BuildingBlock: KIFKEQ_clean_linker_1, # of connection points: 2
#     Edge 19, Type (0, 1), BuildingBlock: KIFKEQ_clean_linker_1, # of connection points: 2
#     Edge 20, Type (0, 1), BuildingBlock: KIFKEQ_clean_linker_1, # of connection points: 2
#     Edge 21, Type (0, 1), BuildingBlock: KIFKEQ_clean_linker_1, # of connection points: 2
#     Edge 22, Type (0, 1), BuildingBlock: KIFKEQ_clean_linker_1, # of connection points: 2
#     Edge 23, Type (0, 1), BuildingBlock: KIFKEQ_clean_linker_1, # of connection points: 2
#     Edge 24, Type (0, 1), BuildingBlock: KIFKEQ_clean_linker_1, # of connection points: 2
#     Edge 25, Type (0, 1), BuildingBlock: KIFKEQ_clean_linker_1, # of connection points: 2
#     Edge 26, Type (0, 1), BuildingBlock: KIFKEQ_clean_linker_1, # of connection points: 2
#     Edge 27, Type (0, 1), BuildingBlock: KIFKEQ_clean_linker_1, # of connection points: 2
#     Edge 28, Type (0, 1), BuildingBlock: KIFKEQ_clean_linker_1, # of connection points: 2
#     Edge 29, Type (0, 1), BuildingBlock: KIFKEQ_clean_linker_1, # of connection points: 2
#     Edge 30, Type (0, 1), BuildingBlock: KIFKEQ_clean_linker_1, # of connection points: 2
#     Edge 31, Type (0, 1), BuildingBlock: KIFKEQ_clean_linker_1, # of connection points: 2
#     Edge 32, Type (0, 1), BuildingBlock: KIFKEQ_clean_linker_1, # of connection points: 2
#     Edge 33, Type (0, 1), BuildingBlock: KIFKEQ_clean_linker_1, # of connection points: 2
#     Edge 34, Type (0, 1), BuildingBlock: KIFKEQ_clean_linker_1, # of connection points: 2
#     Edge 35, Type (0, 1), BuildingBlock: KIFKEQ_clean_linker_1, # of connection points: 2
# Relax obj value: 0.057
# Max RMSD: 0.149
# Mean RMSD: 0.093
data_MOF--net-ant--node1-MIDCAF_clean_sbu_0--node2-PAMTOO_clean_linker_0--edge1-KIFKEQ_clean_linker_1
_symmetry_space_group_name_H-M    P1
_symmetry_Int_Tables_number       1
_symmetry_cell_setting            triclinic
loop_
_symmetry_equiv_pos_as_xyz
'x, y, z'
_cell_length_a     29.095203
_cell_length_b     28.844787
_cell_length_c     71.817122
_cell_angle_alpha  86.366159
_cell_angle_beta   98.855793
_cell_angle_gamma 90.334909
loop_
_atom_site_label
_atom_site_type_symbol
_atom_site_fract_x
_atom_site_fract_y
_atom_site_fract_z
_atom_type_partial_charge
H0 H 0.23767 0.13369 0.05408 0.0
H1 H 0.20499 0.27932 0.04491 0.0
H2 H 0.24876 0.22015 0.1013 0.0
H3 H 0.17208 0.29738 0.09698 0.0
C4 C 0.18187 0.31549 0.08403 0.0
O5 O 0.22319 0.29727 0.08044 0.0
H6 H 0.15345 0.3098 0.07212 0.0
C7 C 0.23433 0.16743 0.05962 0.0
C8 C 0.24567 0.17231 0.0791 0.0
C9 C 0.21928 0.20551 0.04718 0.0
C10 C 0.21602 0.24932 0.05437 0.0
C11 C 0.22606 0.2546 0.07385 0.0
C12 C 0.24054 0.21594 0.08628 0.0
H13 H 0.1773 0.82169 0.28911 0.0
H14 H 0.0342 0.79851 0.29525 0.0
H15 H 0.13168 0.83987 0.34247 0.0
H16 H 0.06002 0.77199 0.35424 0.0
C17 C 0.03636 0.77496 0.34049 0.0
O18 O 0.045 0.81626 0.33085 0.0
H19 H 0.04358 0.74468 0.33246 0.0
C20 C 0.1497 0.82227 0.29766 0.0
C21 C 0.16004 0.83384 0.31656 0.0
C22 C 0.10462 0.80925 0.28988 0.0
C23 C 0.06903 0.80917 0.30098 0.0
C24 C 0.07892 0.81989 0.31993 0.0
C25 C 0.12431 0.83219 0.32773 0.0
H26 H 0.73239 0.63232 0.54677 0.0
H27 H 0.68448 0.77365 0.54223 0.0
H28 H 0.7543 0.71438 0.5955 0.0
H29 H 0.67316 0.783 0.59721 0.0
C30 C 0.67631 0.80372 0.58386 0.0
O31 O 0.71595 0.79038 0.57721 0.0
H32 H 0.64488 0.79686 0.57346 0.0
C33 C 0.72964 0.66504 0.55319 0.0
C34 C 0.74696 0.66878 0.57239 0.0
C35 C 0.70644 0.70226 0.54238 0.0
C36 C 0.70184 0.7444 0.55059 0.0
C37 C 0.71948 0.749 0.56966 0.0
C38 C 0.74138 0.71094 0.58068 0.0
H39 H 0.69797 0.33426 0.79439 0.0
H40 H 0.54952 0.31922 0.7878 0.0
H41 H 0.6275 0.33027 0.8431 0.0
H42 H 0.54735 0.25904 0.8408 0.0
C43 C 0.52713 0.27455 0.82748 0.0
O44 O 0.5446 0.31826 0.82374 0.0
H45 H 0.53082 0.25163 0.81589 0.0
C46 C 0.6662 0.33343 0.80055 0.0
C47 C 0.66856 0.33457 0.82024 0.0
C48 C 0.62363 0.32795 0.78871 0.0
C49 C 0.58267 0.32382 0.79669 0.0
C50 C 0.58427 0.32428 0.81625 0.0
C51 C 0.62698 0.32989 0.828 0.0
H52 H 0.11492 0.81353 0.95307 0.0
H53 H 0.0873 0.67332 0.93758 0.0
H54 H 0.08547 0.78334 0.89439 0.0
H55 H 0.0151 0.70173 0.88153 0.0
C56 C 0.02767 0.68138 0.895 0.0
O57 O 0.07324 0.69389 0.90117 0.0
H58 H 1.00459 0.68957 0.90538 0.0
C59 C 0.10639 0.78892 0.94227 0.0
C60 C 0.10135 0.80449 0.92311 0.0
C61 C 0.1018 0.74155 0.94761 0.0
C62 C 0.09154 0.70973 0.93361 0.0
C63 C 0.08487 0.72489 0.91449 0.0
C64 C 0.09038 0.77204 0.90924 0.0
H65 H 0.59721 0.82782 0.19666 0.0
H66 H 0.74178 0.82432 0.19055 0.0
H67 H 0.63899 0.86449 0.14265 0.0
H68 H 0.73026 0.81862 0.1302 0.0
C69 C 0.7435 0.81341 0.14554 0.0
O70 O 0.72824 0.84994 0.15462 0.0
H71 H 0.72956 0.77971 0.15073 0.0
C72 C 0.62426 0.83346 0.18793 0.0
C73 C 0.6122 0.84843 0.16881 0.0
C74 C 0.67072 0.82445 0.19586 0.0
C75 C 0.70575 0.83137 0.18464 0.0
C76 C 0.69421 0.84531 0.16545 0.0
C77 C 0.64753 0.85375 0.15751 0.0
H78 H 0.59746 0.30911 0.45003 0.0
H79 H 0.57983 0.16987 0.43141 0.0
H80 H 0.54741 0.28651 0.3917 0.0
H81 H 0.48924 0.19943 0.37897 0.0
C82 C 0.5084 0.17712 0.39078 0.0
O83 O 0.552 0.19581 0.39608 0.0
H84 H 0.48827 0.1759 0.40281 0.0
C85 C 0.58828 0.28557 0.43887 0.0
C86 C 0.5723 0.30387 0.42041 0.0
C87 C 0.59048 0.23715 0.44314 0.0
C88 C 0.57746 0.20719 0.42856 0.0
C89 C 0.56192 0.22506 0.41012 0.0
C90 C 0.55907 0.27316 0.40609 0.0
H91 H 0.08994 0.3363 0.68397 0.0
H92 H 0.23766 0.31158 0.69656 0.0
H93 H 0.16963 0.32254 0.63895 0.0
H94 H 0.24671 0.24959 0.64874 0.0
C95 C 0.26747 0.26679 0.66069 0.0
O96 O 0.24993 0.31096 0.66137 0.0
H97 H 0.26473 0.24579 0.67402 0.0
C98 C 0.1233 0.33192 0.67932 0.0
C99 C 0.12506 0.33154 0.65995 0.0
C100 C 0.16335 0.32346 0.69274 0.0
C101 C 0.20631 0.31829 0.68648 0.0
C102 C 0.20861 0.31827 0.66712 0.0
C103 C 0.1679 0.32416 0.65386 0.0
Zn104 Zn 0.22465 0.69975 0.15066 0.0
Zn105 Zn 0.12766 0.80838 0.09898 0.0
Zn106 Zn 0.17568 0.75315 0.12395 0.0
C107 C 0.13345 0.7248 0.08228 0.0
C108 C 0.2107 0.85287 0.10737 0.0
O109 O 0.13803 0.74664 0.14854 0.0
O110 O 0.17982 0.69666 0.16884 0.0
C111 C 0.20811 0.64726 0.11897 0.0
O112 O 0.16048 0.71447 0.09794 0.0
O113 O 0.11267 0.76343 0.07956 0.0
O114 O 0.17446 0.85631 0.09523 0.0
O115 O 0.21669 0.81742 0.11937 0.0
O116 O 0.23023 0.64576 0.13555 0.0
O117 O 0.18493 0.68415 0.11213 0.0
O118 O 0.24474 0.78629 0.13189 0.0
O119 O 0.27959 0.74069 0.15576 0.0
C120 C 0.28012 0.77642 0.14469 0.0
O121 O 0.10882 0.77144 0.1338 0.0
O122 O 0.07684 0.82506 0.11248 0.0
C123 C 0.14479 0.72298 0.16457 0.0
C124 C 0.07559 0.80055 0.12757 0.0
Zn125 Zn 0.55104 0.70096 0.33726 0.0
Zn126 Zn 0.63911 0.79197 0.38445 0.0
Zn127 Zn 0.59654 0.74497 0.36364 0.0
C128 C 0.57869 0.85215 0.36673 0.0
C129 C 0.70589 0.76141 0.36776 0.0
O130 O 0.58552 0.67389 0.37708 0.0
O131 O 0.54898 0.6414 0.352 0.0
C132 C 0.4929 0.77314 0.34244 0.0
O133 O 0.55908 0.81211 0.36496 0.0
O134 O 0.6219 0.85425 0.37216 0.0
O135 O 0.70335 0.7696 0.3846 0.0
O136 O 0.66795 0.75742 0.35601 0.0
O137 O 0.4937 0.73938 0.33214 0.0
O138 O 0.52847 0.78138 0.35486 0.0
O139 O 0.63813 0.74468 0.34003 0.0
O140 O 0.59392 0.70554 0.31856 0.0
C141 C 0.63052 0.72804 0.32357 0.0
O142 O 0.60436 0.70564 0.39131 0.0
O143 O 0.60782 0.77051 0.40603 0.0
C144 C 0.56626 0.63803 0.36927 0.0
C145 C 0.60301 0.727 0.40643 0.0
Zn146 Zn 0.63177 0.30175 0.59649 0.0
Zn147 Zn 0.74435 0.20065 0.64069 0.0
Zn148 Zn 0.68898 0.2473 0.61903 0.0
C149 C 0.79904 0.2596 0.62416 0.0
C150 C 0.69761 0.13797 0.61846 0.0
O151 O 0.6263 0.26074 0.63269 0.0
O152 O 0.58259 0.30884 0.61212 0.0
C153 C 0.71441 0.35002 0.60216 0.0
O154 O 0.7591 0.28014 0.62142 0.0
O155 O 0.80209 0.21751 0.63013 0.0
O156 O 0.71608 0.13949 0.63549 0.0
O157 O 0.68981 0.17621 0.60814 0.0
O158 O 0.6738 0.35454 0.5931 0.0
O159 O 0.72654 0.31241 0.61236 0.0
O160 O 0.66877 0.20811 0.59352 0.0
O161 O 0.62004 0.25824 0.57618 0.0
C162 C 0.64111 0.2197 0.57815 0.0
O163 O 0.66425 0.24616 0.64657 0.0
O164 O 0.73255 0.2307 0.66373 0.0
C165 C 0.58865 0.28486 0.62761 0.0
C166 C 0.69099 0.24424 0.66266 0.0
Zn167 Zn 0.05472 0.20309 0.84958 0.0
Zn168 Zn 0.16216 0.30398 0.88764 0.0
Zn169 Zn 0.1058 0.24948 0.8689 0.0
C170 C 0.15909 0.22039 0.90986 0.0
C171 C 0.07794 0.34965 0.88222 0.0
O172 O 0.12917 0.25227 0.84095 0.0
O173 O 0.06132 0.23489 0.82489 0.0
C174 C 0.10187 0.13916 0.87369 0.0
O175 O 0.12999 0.20855 0.89559 0.0
O176 O 0.17825 0.25973 0.90965 0.0
O177 O 0.11941 0.35497 0.88989 0.0
O178 O 0.06558 0.31233 0.87379 0.0
O179 O 0.08473 0.14205 0.85642 0.0
O180 O 0.10793 0.17678 0.88261 0.0
O181 O 0.03377 0.27955 0.86584 0.0
O182 O 0.99635 0.21459 0.85944 0.0
C183 C 0.99548 0.25624 0.86376 0.0
O184 O 0.1673 0.26608 0.85388 0.0
O185 O 0.21017 0.31537 0.8715 0.0
C186 C 0.10194 0.25048 0.82508 0.0
C187 C 0.20417 0.29138 0.85727 0.0
H188 H 0.15079 0.38967 0.05923 0.0
H189 H 0.22587 0.35644 0.11502 0.0
H190 H 0.15916 0.47285 0.0643 0.0
H191 H 0.23384 0.43905 0.12028 0.0
H192 H 0.27814 0.58529 0.12084 0.0
H193 H 0.27372 0.50712 0.10993 0.0
H194 H 0.13179 0.53273 0.08341 0.0
H195 H 0.13674 0.61199 0.09413 0.0
C196 C 0.16902 0.40028 0.07258 0.0
C197 C 0.18736 0.36677 0.08684 0.0
C198 C 0.17367 0.44782 0.07551 0.0
C199 C 0.19731 0.46276 0.09266 0.0
C200 C 0.21608 0.42896 0.10678 0.0
C201 C 0.21129 0.38161 0.10386 0.0
C202 C 0.24628 0.57462 0.11233 0.0
C203 C 0.20765 0.60463 0.10848 0.0
C204 C 0.2436 0.52962 0.10621 0.0
C205 C 0.20202 0.51312 0.09623 0.0
C206 C 0.16435 0.54428 0.09111 0.0
C207 C 0.16718 0.58976 0.09716 0.0
H208 H 0.96019 0.74968 0.31589 0.0
H209 H 1.00018 0.79796 0.37166 0.0
H210 H 0.8791 0.74376 0.32133 0.0
H211 H 0.91942 0.79293 0.3771 0.0
H212 H 0.78496 0.7296 0.38957 0.0
H213 H 0.86379 0.73215 0.38212 0.0
H214 H 0.81167 0.7908 0.32604 0.0
H215 H 0.73257 0.78828 0.33374 0.0
C216 C 0.95142 0.7591 0.32928 0.0
C217 C 0.98632 0.77331 0.34353 0.0
C218 C 0.90511 0.75598 0.33237 0.0
C219 C 0.89288 0.76721 0.34975 0.0
C220 C 0.9278 0.78292 0.36373 0.0
C221 C 0.97397 0.78608 0.36061 0.0
C222 C 0.79028 0.74257 0.37557 0.0
C223 C 0.75247 0.75822 0.36209 0.0
C224 C 0.8355 0.74434 0.37134 0.0
C225 C 0.84417 0.76217 0.35355 0.0
C226 C 0.80617 0.77643 0.33982 0.0
C227 C 0.76076 0.77459 0.3441 0.0
H228 H 0.81601 0.61323 0.56467 0.0
H229 H 0.72132 0.6284 0.60459 0.0
H230 H 0.8301 0.53237 0.57628 0.0
H231 H 0.73498 0.5474 0.61613 0.0
H232 H 0.75618 0.39718 0.63181 0.0
H233 H 0.78466 0.47745 0.62963 0.0
H234 H 0.76844 0.47345 0.56892 0.0
H235 H 0.73945 0.39443 0.57121 0.0
C236 C 0.79957 0.59967 0.57642 0.0
C237 C 0.76698 0.62668 0.58354 0.0
C238 C 0.80756 0.55341 0.58304 0.0
C239 C 0.78296 0.53325 0.59685 0.0
C240 C 0.75464 0.56192 0.60553 0.0
C241 C 0.74673 0.60836 0.59892 0.0
C242 C 0.76076 0.41304 0.61813 0.0
C243 C 0.7458 0.38999 0.60165 0.0
C244 C 0.77664 0.45898 0.61687 0.0
C245 C 0.77852 0.48191 0.59911 0.0
C246 C 0.76797 0.45678 0.58284 0.0
C247 C 0.7513 0.41148 0.5841 0.0
H248 H 0.69755 0.28952 0.85501 0.0
H249 H 0.74543 0.38444 0.81316 0.0
H250 H 0.77665 0.28174 0.87168 0.0
H251 H 0.82486 0.37349 0.82884 0.0
H252 H 0.9685 0.3482 0.85772 0.0
H253 H 0.88866 0.37803 0.85289 0.0
H254 H 0.83914 0.23956 0.86547 0.0
H255 H 0.91811 0.21108 0.87119 0.0
C256 C 0.72471 0.30938 0.84948 0.0
C257 C 0.71503 0.33663 0.8324 0.0
C258 C 0.7704 0.30438 0.85893 0.0
C259 C 0.80775 0.32578 0.85137 0.0
C260 C 0.79742 0.35626 0.83519 0.0
C261 C 0.75168 0.36192 0.82595 0.0
C262 C 0.94059 0.32475 0.86015 0.0
C263 C 0.9496 0.27727 0.86469 0.0
C264 C 0.89466 0.34161 0.85711 0.0
C265 C 0.85693 0.31121 0.85848 0.0
C266 C 0.86676 0.26445 0.86444 0.0
C267 C 0.91234 0.24784 0.86755 0.0
H268 H 0.98294 0.63652 0.86463 0.0
H269 H 0.0639 0.61009 0.91979 0.0
H270 H 0.97815 0.55286 0.86061 0.0
H271 H 0.06084 0.52725 0.91569 0.0
H272 H 0.03986 0.3799 0.91129 0.0
H273 H 0.01497 0.45962 0.91387 0.0
H274 H 0.02774 0.4911 0.85521 0.0
H275 H 0.05031 0.41073 0.85264 0.0
C276 C 0.99992 0.61279 0.87585 0.0
C277 C 0.02472 0.62985 0.89236 0.0
C278 C 0.99718 0.56489 0.87357 0.0
C279 C 0.019 0.53303 0.88782 0.0
C280 C 0.04275 0.55039 0.90452 0.0
C281 C 0.04521 0.59808 0.90681 0.0
C282 C 0.0349 0.4034 0.89876 0.0
C283 C 0.0464 0.38934 0.88173 0.0
C284 C 0.02154 0.44931 0.90028 0.0
C285 C 0.0207 0.48231 0.88491 0.0
C286 C 0.02785 0.46683 0.86736 0.0
C287 C 0.04056 0.42067 0.8658 0.0
H288 H 0.79621 0.74085 0.13886 0.0
H289 H 0.8092 0.88024 0.15762 0.0
H290 H 0.88018 0.73718 0.13948 0.0
H291 H 0.8932 0.87608 0.15893 0.0
H292 H 0.02023 0.87581 0.12705 0.0
H293 H 0.94294 0.87808 0.13563 0.0
H294 H 0.95776 0.7348 0.1573 0.0
H295 H 0.03517 0.73224 0.14797 0.0
C296 C 0.81723 0.77027 0.14354 0.0
C297 C 0.79603 0.81057 0.14829 0.0
C298 C 0.86541 0.76808 0.14406 0.0
C299 C 0.89364 0.80633 0.14927 0.0
C300 C 0.87253 0.84614 0.15465 0.0
C301 C 0.82428 0.84843 0.15401 0.0
C302 C 1.0074 0.84503 0.134 0.0
C303 C 0.0337 0.8038 0.13677 0.0
C304 C 0.96308 0.8464 0.13906 0.0
C305 C 0.94376 0.8065 0.14703 0.0
C306 C 0.97131 0.76598 0.15094 0.0
C307 C 0.0159 0.76464 0.14583 0.0
H308 H 0.63894 0.36977 0.42944 0.0
H309 H 0.49811 0.35309 0.40158 0.0
H310 H 0.63548 0.45265 0.41949 0.0
H311 H 0.49365 0.43579 0.39233 0.0
H312 H 0.52359 0.56091 0.35538 0.0
H313 H 0.52415 0.48337 0.36975 0.0
H314 H 0.60416 0.52988 0.42091 0.0
H315 H 0.60504 0.60868 0.40586 0.0
C316 C 0.60698 0.38408 0.42147 0.0
C317 C 0.56905 0.35491 0.41599 0.0
C318 C 0.60486 0.43161 0.41586 0.0
C319 C 0.56453 0.45102 0.40483 0.0
C320 C 0.52579 0.42201 0.40033 0.0
C321 C 0.5282 0.37457 0.40567 0.0
C322 C 0.54122 0.55517 0.36976 0.0
C323 C 0.56445 0.59156 0.37947 0.0
C324 C 0.54111 0.51032 0.37812 0.0
C325 C 0.56376 0.50003 0.39662 0.0
C326 C 0.58654 0.53639 0.40658 0.0
C327 C 0.58682 0.5817 0.39806 0.0
H328 H 0.08801 0.26205 0.63902 0.0
H329 H 0.06116 0.4017 0.65255 0.0
H330 H 1.00725 0.25401 0.6251 0.0
H331 H 0.98043 0.39555 0.63737 0.0
H332 H 0.83361 0.33578 0.64172 0.0
H333 H 0.91395 0.36201 0.64507 0.0
H334 H 0.94152 0.26645 0.60393 0.0
H335 H 0.86208 0.2379 0.60206 0.0
C336 C 0.06506 0.29182 0.63817 0.0
C337 C 0.08062 0.33243 0.64679 0.0
C338 C 0.01847 0.28743 0.63013 0.0
C339 C 0.98641 0.32394 0.63023 0.0
C340 C 1.00339 0.36614 0.63744 0.0
C341 C 0.04983 0.37007 0.64588 0.0
C342 C 0.85674 0.32144 0.63307 0.0
C343 C 0.84212 0.28467 0.62179 0.0
C344 C 0.90298 0.3365 0.6349 0.0
C345 C 0.93522 0.31564 0.62513 0.0
C346 C 0.91862 0.28221 0.61227 0.0
C347 C 0.87286 0.26624 0.61093 0.0
H348 H 0.33624 0.32283 0.67781 0.0
H349 H 0.31312 0.21323 0.63927 0.0
H350 H 0.41849 0.32538 0.67398 0.0
H351 H 0.39512 0.21557 0.63545 0.0
H352 H 0.55065 0.20647 0.64172 0.0
H353 H 0.47515 0.2002 0.65283 0.0
H354 H 0.46144 0.34968 0.64737 0.0
H355 H 0.53676 0.35566 0.63638 0.0
C356 C 0.34876 0.29955 0.66842 0.0
C357 C 0.31809 0.26887 0.65834 0.0
C358 C 0.39579 0.30084 0.6663 0.0
C359 C 0.41327 0.27075 0.65439 0.0
C360 C 0.38285 0.23891 0.64487 0.0
C361 C 0.33581 0.23793 0.64686 0.0
C362 C 0.53205 0.23791 0.64351 0.0
C363 C 0.54957 0.28155 0.63844 0.0
C364 C 0.4887 0.23437 0.64965 0.0
C365 C 0.46218 0.27444 0.65082 0.0
C366 C 0.48114 0.3182 0.64679 0.0
C367 C 0.52422 0.32167 0.64049 0.0
H368 H 0.56322 0.81401 0.13698 0.0
H369 H 0.54828 0.89823 0.18326 0.0
H370 H 0.47846 0.81096 0.12864 0.0
H371 H 0.46384 0.89551 0.1749 0.0
H372 H 0.33736 0.79473 0.17665 0.0
H373 H 0.41557 0.82618 0.17944 0.0
H374 H 0.39982 0.85097 0.11883 0.0
H375 H 0.32058 0.81931 0.11609 0.0
C376 C 0.54186 0.83316 0.14495 0.0
C377 C 0.56226 0.85565 0.16096 0.0
C378 C 0.49331 0.8315 0.14017 0.0
C379 C 0.46444 0.85238 0.15131 0.0
C380 C 0.48512 0.87839 0.16625 0.0
C381 C 0.53345 0.87996 0.17103 0.0
C382 C 0.35011 0.80801 0.16395 0.0
C383 C 0.323 0.80452 0.14617 0.0
C384 C 0.3949 0.82628 0.16553 0.0
C385 C 0.41404 0.84096 0.14934 0.0
C386 C 0.38606 0.83972 0.13155 0.0
C387 C 0.34064 0.82203 0.12999 0.0
H388 H 0.45916 0.33207 0.80719 0.0
H389 H 0.47978 0.22035 0.85056 0.0
H390 H 0.37631 0.3346 0.80993 0.0
H391 H 0.39717 0.22262 0.85327 0.0
H392 H 0.24212 0.21386 0.84611 0.0
H393 H 0.31807 0.20823 0.83565 0.0
H394 H 0.33117 0.35754 0.83495 0.0
H395 H 0.25538 0.36292 0.84532 0.0
C396 C 0.44601 0.30835 0.81741 0.0
C397 C 0.47614 0.27709 0.82916 0.0
C398 C 0.3986 0.30961 0.8189 0.0
C399 C 0.3802 0.27887 0.83183 0.0
C400 C 0.41013 0.24648 0.84304 0.0
C401 C 0.45752 0.24555 0.84168 0.0
C402 C 0.2606 0.24546 0.84305 0.0
C403 C 0.24284 0.28884 0.84631 0.0
C404 C 0.30425 0.24227 0.83729 0.0
C405 C 0.33082 0.28243 0.83467 0.0
C406 C 0.31147 0.32601 0.83671 0.0
C407 C 0.2681 0.32913 0.84263 0.0
H408 H 0.21052 0.79602 0.34928 0.0
H409 H 0.2208 0.89206 0.30153 0.0
H410 H 0.29518 0.79676 0.3579 0.0
H411 H 0.30527 0.89297 0.31015 0.0
H412 H 0.4355 0.79701 0.31008 0.0
H413 H 0.35651 0.82663 0.30675 0.0
H414 H 0.37191 0.83918 0.36701 0.0
H415 H 0.45211 0.80967 0.37028 0.0
C416 C 0.23072 0.81859 0.34104 0.0
C417 C 0.20916 0.84334 0.32455 0.0
C418 C 0.27925 0.81908 0.34599 0.0
C419 C 0.30695 0.84436 0.33452 0.0
C420 C 0.28491 0.87256 0.31908 0.0
C421 C 0.23657 0.87203 0.31415 0.0
C422 C 0.42251 0.80735 0.32256 0.0
C423 C 0.44974 0.80088 0.34043 0.0
C424 C 0.37727 0.82456 0.32066 0.0
C425 C 0.3578 0.83509 0.33664 0.0
C426 C 0.38595 0.83116 0.35447 0.0
C427 C 0.43185 0.81465 0.35632 0.0
H428 H 0.72266 0.84426 0.61452 0.0
H429 H 0.63705 0.87773 0.56087 0.0
H430 H 0.72517 0.92631 0.62114 0.0
H431 H 0.63859 0.9602 0.56757 0.0
H432 H 0.69537 0.11007 0.58219 0.0
H433 H 0.68945 0.02982 0.57238 0.0
H434 H 0.66983 0.9817 0.6288 0.0
H435 H 0.67631 0.06075 0.63848 0.0
C436 C 0.70423 0.86933 0.6042 0.0
C437 C 0.67882 0.8547 0.58742 0.0
C438 C 0.70542 0.91627 0.60798 0.0
C439 C 0.68132 0.9498 0.59502 0.0
C440 C 0.65743 0.93533 0.57784 0.0
C441 C 0.65628 0.88818 0.57406 0.0
C442 C 0.68888 0.08234 0.5923 0.0
C443 C 0.68678 0.09165 0.61112 0.0
C444 C 0.68568 0.03639 0.58674 0.0
C445 C 0.68028 0.99919 0.59994 0.0
C446 C 0.67543 1.00922 0.61842 0.0
C447 C 0.67881 0.05468 0.62393 0.0
H448 H 0.32032 0.11826 0.07694 0.0
H449 H 0.20597 0.13123 0.10799 0.0
H450 H 0.33234 0.03781 0.08945 0.0
H451 H 0.21752 0.05046 0.12043 0.0
H452 H 0.24873 0.89676 0.0792 0.0
H453 H 0.27572 0.97667 0.07842 0.0
H454 H 0.26551 0.98238 0.13761 0.0
H455 H 0.23929 0.90125 0.13837 0.0
C456 C 0.29891 0.1043 0.08703 0.0
C457 C 0.26187 0.13056 0.09136 0.0
C458 C 0.3057 0.05827 0.09414 0.0
C459 C 0.2754 0.03754 0.10565 0.0
C460 C 0.24164 0.06548 0.11167 0.0
C461 C 0.23492 0.11173 0.10456 0.0
C462 C 0.25447 0.91439 0.09224 0.0
C463 C 0.24204 0.8931 0.10881 0.0
C464 C 0.2699 0.96024 0.09184 0.0
C465 C 0.27226 0.98608 0.10793 0.0
C466 C 0.26377 0.96338 0.12499 0.0
C467 C 0.24923 0.91692 0.12547 0.0
H468 H 0.44345 0.10804 0.38937 0.0
H469 H 0.58124 0.13752 0.37661 0.0
H470 H 0.44891 0.02921 0.3791 0.0
H471 H 0.58792 0.05888 0.3674 0.0
H472 H 0.59085 0.92576 0.34294 0.0
H473 H 0.56507 1.00514 0.34517 0.0
H474 H 0.48609 0.95732 0.38897 0.0
H475 H 0.50982 0.87751 0.38566 0.0
C476 C 0.47503 0.09746 0.38453 0.0
C477 C 0.51236 0.12856 0.38434 0.0
C478 C 0.47825 0.05231 0.37868 0.0
C479 C 0.5189 0.03727 0.37243 0.0
C480 C 0.55566 0.06907 0.37177 0.0
C481 C 0.5522 0.11421 0.37739 0.0
C482 C 0.56642 0.93222 0.35246 0.0
C483 C 0.55212 0.89584 0.36409 0.0
C484 C 0.55225 0.97777 0.35402 0.0
C485 C 0.5247 0.98813 0.36772 0.0
C486 C 0.50723 0.95093 0.37824 0.0
C487 C 0.52065 0.90508 0.37634 0.0
H488 H 0.15309 0.84176 0.89732 0.0
H489 H 0.06439 0.88013 0.9368 0.0
H490 H 0.16236 0.92341 0.88776 0.0
H491 H 0.07204 0.96198 0.92678 0.0
H492 H 0.11252 0.11069 0.9117 0.0
H493 H 0.11918 0.03046 0.92545 0.0
H494 H 0.11708 0.98128 0.8697 0.0
H495 H 0.1126 0.06026 0.85638 0.0
C496 C 0.13529 0.86774 0.90385 0.0
C497 C 0.10761 0.85449 0.91764 0.0
C498 C 0.14054 0.91464 0.89838 0.0
C499 C 0.11755 0.9496 0.90632 0.0
C500 C 0.09078 0.9363 0.9205 0.0
C501 C 0.08607 0.88932 0.92615 0.0
C502 C 0.11471 0.0827 0.90254 0.0
C503 C 0.11197 0.09202 0.88296 0.0
C504 C 0.11791 0.03663 0.91036 0.0
C505 C 0.11853 0.99905 0.89871 0.0
C506 C 0.1175 1.00892 0.87925 0.0
C507 C 0.11447 0.05454 0.87154 0.0
H508 H 0.25067 0.25719 0.01877 0.0
H509 H 0.1643 0.13924 0.02947 0.0
H510 H 0.23654 0.24468 0.98509 0.0
H511 H 0.15008 0.12663 -0.00442 0.0
H512 H 0.09451 0.18661 0.93071 0.0
H513 H 0.10925 0.17325 0.96516 0.0
H514 H 0.25702 0.18192 0.96412 0.0
H515 H 0.24216 0.19556 0.92986 0.0
C516 C 0.22845 0.22877 0.01387 0.0
C517 C 0.20858 0.19923 0.02667 0.0
C518 C 0.22085 0.22118 0.99466 0.0
C519 C 0.19284 0.18415 0.98781 0.0
C520 C 0.17207 0.15514 0.00053 0.0
C521 C 0.18023 0.16237 0.01985 0.0
C522 C 0.1301 0.18302 0.9378 0.0
C523 C 0.16726 0.19215 0.92777 0.0
C524 C 0.13855 0.17583 0.95751 0.0
C525 C 0.18423 0.17788 0.96726 0.0
C526 C 0.22146 0.18114 0.95693 0.0
C527 C 0.21301 0.18831 0.93734 0.0
H528 H 0.03888 0.838 0.25974 0.0
H529 H 0.15224 0.74123 0.277 0.0
H530 H 0.0315 0.81282 0.2273 0.0
H531 H 0.14535 0.71644 0.24502 0.0
H532 H 0.12067 0.65961 0.19084 0.0
H533 H 0.09539 0.67644 0.22054 0.0
H534 H 0.08281 0.8219 0.20209 0.0
H535 H 0.1072 0.80475 0.1722 0.0
C536 C 0.06165 0.81093 0.25662 0.0
C537 C 0.09645 0.79183 0.27072 0.0
C538 C 0.05754 0.79664 0.23812 0.0
C539 C 0.08762 0.76245 0.23362 0.0
C540 C 0.12104 0.74222 0.24803 0.0
C541 C 0.12543 0.75679 0.26631 0.0
C542 C 0.11083 0.69489 0.19288 0.0
C543 C 0.1163 0.73095 0.17936 0.0
C544 C 0.09659 0.70459 0.2099 0.0
C545 C 0.08828 0.75065 0.21383 0.0
C546 C 0.08891 0.78605 0.19947 0.0
C547 C 0.10284 0.77624 0.18233 0.0
H548 H 0.61491 0.70188 0.52751 0.0
H549 H 0.75241 0.68753 0.51323 0.0
H550 H 0.58088 0.69042 0.49485 0.0
H551 H 0.71932 0.67927 0.48035 0.0
H552 H 0.65999 0.65654 0.42284 0.0
H553 H 0.67868 0.63739 0.45672 0.0
H554 H 0.571 0.73216 0.46616 0.0
H555 H 0.55036 0.74775 0.4324 0.0
C556 C 0.63771 0.6967 0.51722 0.0
C557 C 0.68608 0.69621 0.52262 0.0
C558 C 0.61839 0.69013 0.49853 0.0
C559 C 0.64718 0.68404 0.48478 0.0
C560 C 0.69577 0.68277 0.49047 0.0
C561 C 0.71494 0.68828 0.50924 0.0
C562 C 0.63841 0.67067 0.43215 0.0
C563 C 0.60318 0.70288 0.42506 0.0
C564 C 0.64993 0.66083 0.45163 0.0
C565 C 0.62733 0.6842 0.46434 0.0
C566 C 0.58918 0.71311 0.457 0.0
C567 C 0.57719 0.72216 0.43757 0.0
H568 H 0.57957 0.26174 0.76693 0.0
H569 H 0.66743 0.38241 0.76452 0.0
H570 H 0.59005 0.24582 0.73482 0.0
H571 H 0.67739 0.36704 0.73237 0.0
H572 H 0.7445 0.28133 0.69214 0.0
H573 H 0.72126 0.30666 0.72091 0.0
H574 H 0.57884 0.2699 0.70081 0.0
H575 H 0.60306 0.24262 0.67215 0.0
C576 C 0.60008 0.28555 0.75933 0.0
C577 C 0.6232 0.32296 0.76827 0.0
C578 C 0.60606 0.27647 0.74094 0.0
C579 C 0.63516 0.30475 0.73117 0.0
C580 C 0.65561 0.34399 0.73969 0.0
C581 C 0.64983 0.3529 0.75806 0.0
C582 C 0.70817 0.27872 0.69381 0.0
C583 C 0.67533 0.26053 0.67976 0.0
C584 C 0.69473 0.29379 0.71022 0.0
C585 C 0.64806 0.29095 0.71306 0.0
C586 C 0.61505 0.27272 0.69901 0.0
C587 C 0.62865 0.2577 0.68248 0.0
H588 H 0.0579 0.77718 0.97418 0.0
H589 H 0.15471 0.66983 0.96645 0.0
H590 H 0.06485 0.75258 0.00755 0.0
H591 H 0.16202 0.6451 0.0002 0.0
H592 H 0.05488 0.69363 0.06216 0.0
H593 H 0.04583 0.68275 0.02842 0.0
H594 H 0.19503 0.68571 0.03104 0.0
H595 H 0.20393 0.69568 0.06502 0.0
C596 C 0.08061 0.74822 0.97966 0.0
C597 C 0.10594 0.72558 0.96781 0.0
C598 C 0.08417 0.73369 -0.00129 0.0
C599 C 0.1135 0.69644 0.00641 0.0
C600 C 0.13892 0.67363 0.99458 0.0
C601 C 0.13474 0.68777 0.97534 0.0
C602 C 0.08576 0.68915 0.05572 0.0
C603 C 0.13003 0.6959 0.06603 0.0
C604 C 0.0806 0.68351 0.03638 0.0
C605 C 0.11966 0.68492 0.02706 0.0
C606 C 0.16431 0.68474 0.03787 0.0
C607 C 0.16947 0.69008 0.05735 0.0
H608 H 0.63457 0.74746 0.21128 0.0
H609 H 0.73046 0.85936 0.22486 0.0
H610 H 0.64292 0.72125 0.24447 0.0
H611 H 0.7392 0.83298 0.25847 0.0
H612 H 0.65611 0.81384 0.3116 0.0
H613 H 0.68231 0.83433 0.28142 0.0
H614 H 0.69498 0.68862 0.27233 0.0
H615 H 0.66796 0.66845 0.30239 0.0
C616 C 0.65813 0.76589 0.22143 0.0
C617 C 0.68151 0.80559 0.21565 0.0
C618 C 0.66336 0.75064 0.24042 0.0
C619 C 0.69187 0.77498 0.25411 0.0
C620 C 0.71697 0.81362 0.24822 0.0
C621 C 0.71211 0.8286 0.22907 0.0
C622 C 0.66658 0.78636 0.30351 0.0
C623 C 0.66041 0.73965 0.30926 0.0
C624 C 0.68157 0.79802 0.28623 0.0
C625 C 0.69003 0.76304 0.27439 0.0
C626 C 0.6881 0.71629 0.28106 0.0
C627 C 0.67298 0.70471 0.29828 0.0
H628 H 0.55067 0.16578 0.46187 0.0
H629 H 0.66246 0.26532 0.46908 0.0
H630 H 0.56871 0.14009 0.49525 0.0
H631 H 0.67968 0.24056 0.50249 0.0
H632 H 0.7122 0.1908 0.56126 0.0
H633 H 0.70568 0.17899 0.52747 0.0
H634 H 0.55587 0.18126 0.52286 0.0
H635 H 0.56272 0.19295 0.5564 0.0
C636 C 0.57967 0.18156 0.47049 0.0
C637 C 0.60477 0.21804 0.46289 0.0
C638 C 0.58988 0.16692 0.48962 0.0
C639 C 0.62555 0.18828 0.50155 0.0
C640 C 0.65236 0.2229 0.49368 0.0
C641 C 0.64202 0.23766 0.47458 0.0
C642 C 0.67803 0.18616 0.55316 0.0
C643 C 0.63792 0.19277 0.56132 0.0
C644 C 0.67424 0.1801 0.53379 0.0
C645 C 0.63027 0.18021 0.52241 0.0
C646 C 0.59027 0.18088 0.53116 0.0
C647 C 0.5941 0.18742 0.55042 0.0
H648 H 0.22025 0.35333 0.72406 0.0
H649 H 0.09698 0.27256 0.7072 0.0
H650 H 0.20985 0.3394 0.75731 0.0
H651 H 0.08646 0.25956 0.73993 0.0
H652 H 0.04639 0.29083 0.79503 0.0
H653 H 0.06541 0.31222 0.76385 0.0
H654 H 0.20798 0.27001 0.78276 0.0
H655 H 0.18843 0.24803 0.81421 0.0
C656 C 0.1911 0.33265 0.72743 0.0
C657 C 0.1588 0.315 0.71298 0.0
C658 C 0.18522 0.32469 0.7464 0.0
C659 C 0.14688 0.29916 0.75111 0.0
C660 C 0.11564 0.28041 0.73668 0.0
C661 C 0.12158 0.28807 0.7179 0.0
C662 C 0.08192 0.28647 0.79262 0.0
C663 C 0.11606 0.26773 0.80704 0.0
C664 C 0.09279 0.29873 0.77477 0.0
C665 C 0.13801 0.29225 0.77085 0.0
C666 C 0.1729 0.27563 0.78548 0.0
C667 C 0.16188 0.2633 0.80347 0.0
loop_
_geom_bond_atom_site_label_1
_geom_bond_atom_site_label_2
_geom_bond_distance
_geom_bond_site_symmetry_2
_ccdc_geom_bond_type
H0 C7 0.929 . S
H1 C10 0.930 . S
H2 C12 0.929 . S
H3 C4 0.969 . S
C4 H3 0.969 . S
C4 O5 1.550 . S
C4 H6 0.973 . S
O5 C4 1.550 . S
O5 C11 1.412 . S
H6 C4 0.973 . S
C7 H0 0.929 . S
C7 C8 1.400 . S
C7 C9 1.364 . S
C8 C7 1.400 . S
C8 C12 1.377 . S
C9 C7 1.364 . S
C9 C10 1.374 . S
C10 H1 0.930 . S
C10 C9 1.374 . S
C10 C11 1.383 . S
C11 O5 1.412 . S
C11 C10 1.383 . S
C11 C12 1.394 . S
C12 H2 0.929 . S
C12 C8 1.377 . S
C12 C11 1.394 . S
H13 C20 0.929 . S
H14 C23 0.930 . S
H15 C25 0.929 . S
H16 C17 0.969 . S
C17 H16 0.969 . S
C17 O18 1.550 . S
C17 H19 0.973 . S
O18 C17 1.550 . S
O18 C24 1.412 . S
H19 C17 0.973 . S
C20 H13 0.929 . S
C20 C21 1.400 . S
C20 C22 1.364 . S
C21 C20 1.400 . S
C21 C25 1.377 . S
C22 C20 1.364 . S
C22 C23 1.374 . S
C23 H14 0.930 . S
C23 C22 1.374 . S
C23 C24 1.383 . S
C24 O18 1.412 . S
C24 C23 1.383 . S
C24 C25 1.394 . S
C25 H15 0.929 . S
C25 C21 1.377 . S
C25 C24 1.394 . S
H26 C33 0.929 . S
H27 C36 0.930 . S
H28 C38 0.929 . S
H29 C30 0.969 . S
C30 H29 0.969 . S
C30 O31 1.550 . S
C30 H32 0.973 . S
O31 C30 1.550 . S
O31 C37 1.412 . S
H32 C30 0.973 . S
C33 H26 0.929 . S
C33 C34 1.400 . S
C33 C35 1.364 . S
C34 C33 1.400 . S
C34 C38 1.377 . S
C35 C33 1.364 . S
C35 C36 1.374 . S
C36 H27 0.930 . S
C36 C35 1.374 . S
C36 C37 1.383 . S
C37 O31 1.412 . S
C37 C36 1.383 . S
C37 C38 1.394 . S
C38 H28 0.929 . S
C38 C34 1.377 . S
C38 C37 1.394 . S
H39 C46 0.929 . S
H40 C49 0.930 . S
H41 C51 0.929 . S
H42 C43 0.969 . S
C43 H42 0.969 . S
C43 O44 1.550 . S
C43 H45 0.973 . S
O44 C43 1.550 . S
O44 C50 1.412 . S
H45 C43 0.973 . S
C46 H39 0.929 . S
C46 C47 1.400 . S
C46 C48 1.364 . S
C47 C46 1.400 . S
C47 C51 1.377 . S
C48 C46 1.364 . S
C48 C49 1.374 . S
C49 H40 0.930 . S
C49 C48 1.374 . S
C49 C50 1.383 . S
C50 O44 1.412 . S
C50 C49 1.383 . S
C50 C51 1.394 . S
C51 H41 0.929 . S
C51 C47 1.377 . S
C51 C50 1.394 . S
H52 C59 0.929 . S
H53 C62 0.930 . S
H54 C64 0.929 . S
H55 C56 0.969 . S
C56 H55 0.969 . S
C56 O57 1.550 . S
C56 H58 0.973 . S
O57 C56 1.550 . S
O57 C63 1.412 . S
H58 C56 0.973 . S
C59 H52 0.929 . S
C59 C60 1.400 . S
C59 C61 1.364 . S
C60 C59 1.400 . S
C60 C64 1.377 . S
C61 C59 1.364 . S
C61 C62 1.374 . S
C62 H53 0.930 . S
C62 C61 1.374 . S
C62 C63 1.383 . S
C63 O57 1.412 . S
C63 C62 1.383 . S
C63 C64 1.394 . S
C64 H54 0.929 . S
C64 C60 1.377 . S
C64 C63 1.394 . S
H65 C72 0.929 . S
H66 C75 0.930 . S
H67 C77 0.929 . S
H68 C69 0.969 . S
C69 H68 0.969 . S
C69 O70 1.550 . S
C69 H71 0.973 . S
O70 C69 1.550 . S
O70 C76 1.412 . S
H71 C69 0.973 . S
C72 H65 0.929 . S
C72 C73 1.400 . S
C72 C74 1.364 . S
C73 C72 1.400 . S
C73 C77 1.377 . S
C74 C72 1.364 . S
C74 C75 1.374 . S
C75 H66 0.930 . S
C75 C74 1.374 . S
C75 C76 1.383 . S
C76 O70 1.412 . S
C76 C75 1.383 . S
C76 C77 1.394 . S
C77 H67 0.929 . S
C77 C73 1.377 . S
C77 C76 1.394 . S
H78 C85 0.929 . S
H79 C88 0.930 . S
H80 C90 0.929 . S
H81 C82 0.969 . S
C82 H81 0.969 . S
C82 O83 1.550 . S
C82 H84 0.973 . S
O83 C82 1.550 . S
O83 C89 1.412 . S
H84 C82 0.973 . S
C85 H78 0.929 . S
C85 C86 1.400 . S
C85 C87 1.364 . S
C86 C85 1.400 . S
C86 C90 1.377 . S
C87 C85 1.364 . S
C87 C88 1.374 . S
C88 H79 0.930 . S
C88 C87 1.374 . S
C88 C89 1.383 . S
C89 O83 1.412 . S
C89 C88 1.383 . S
C89 C90 1.394 . S
C90 H80 0.929 . S
C90 C86 1.377 . S
C90 C89 1.394 . S
H91 C98 0.929 . S
H92 C101 0.930 . S
H93 C103 0.929 . S
H94 C95 0.969 . S
C95 H94 0.969 . S
C95 O96 1.550 . S
C95 H97 0.973 . S
O96 C95 1.550 . S
O96 C102 1.412 . S
H97 C95 0.973 . S
C98 H91 0.929 . S
C98 C99 1.400 . S
C98 C100 1.364 . S
C99 C98 1.400 . S
C99 C103 1.377 . S
C100 C98 1.364 . S
C100 C101 1.374 . S
C101 H92 0.930 . S
C101 C100 1.374 . S
C101 C102 1.383 . S
C102 O96 1.412 . S
C102 C101 1.383 . S
C102 C103 1.394 . S
C103 H93 0.929 . S
C103 C99 1.377 . S
C103 C102 1.394 . S
Zn104 O110 1.920 . S
Zn104 O116 1.898 . S
Zn104 O119 1.905 . S
Zn105 O113 1.905 . S
Zn105 O114 1.898 . S
Zn105 O122 1.920 . S
Zn106 O109 2.080 . S
Zn106 O112 2.114 . S
Zn106 O115 2.120 . S
Zn106 O117 2.120 . S
Zn106 O118 2.114 . S
Zn106 O121 2.080 . S
C107 O112 1.166 . S
C107 O113 1.182 . S
C108 O114 1.167 . S
C108 O115 1.299 . S
O109 Zn106 2.080 . S
O109 C123 1.305 . S
O110 Zn104 1.920 . S
O110 C123 1.234 . S
C111 O116 1.167 . S
C111 O117 1.299 . S
O112 Zn106 2.114 . S
O112 C107 1.166 . S
O113 Zn105 1.905 . S
O113 C107 1.182 . S
O114 Zn105 1.898 . S
O114 C108 1.167 . S
O115 Zn106 2.120 . S
O115 C108 1.299 . S
O116 Zn104 1.898 . S
O116 C111 1.167 . S
O117 Zn106 2.120 . S
O117 C111 1.299 . S
O118 Zn106 2.114 . S
O118 C120 1.166 . S
O119 Zn104 1.905 . S
O119 C120 1.182 . S
C120 O118 1.166 . S
C120 O119 1.182 . S
O121 Zn106 2.080 . S
O121 C124 1.305 . S
O122 Zn105 1.920 . S
O122 C124 1.234 . S
C123 O109 1.305 . S
C123 O110 1.234 . S
C124 O121 1.305 . S
C124 O122 1.234 . S
Zn125 O131 1.920 . S
Zn125 O137 1.898 . S
Zn125 O140 1.905 . S
Zn126 O134 1.905 . S
Zn126 O135 1.898 . S
Zn126 O143 1.920 . S
Zn127 O130 2.080 . S
Zn127 O133 2.114 . S
Zn127 O136 2.120 . S
Zn127 O138 2.120 . S
Zn127 O139 2.114 . S
Zn127 O142 2.080 . S
C128 O133 1.166 . S
C128 O134 1.182 . S
C129 O135 1.167 . S
C129 O136 1.299 . S
O130 Zn127 2.080 . S
O130 C144 1.305 . S
O131 Zn125 1.920 . S
O131 C144 1.234 . S
C132 O137 1.167 . S
C132 O138 1.299 . S
O133 Zn127 2.114 . S
O133 C128 1.166 . S
O134 Zn126 1.905 . S
O134 C128 1.182 . S
O135 Zn126 1.898 . S
O135 C129 1.167 . S
O136 Zn127 2.120 . S
O136 C129 1.299 . S
O137 Zn125 1.898 . S
O137 C132 1.167 . S
O138 Zn127 2.120 . S
O138 C132 1.299 . S
O139 Zn127 2.114 . S
O139 C141 1.166 . S
O140 Zn125 1.905 . S
O140 C141 1.182 . S
C141 O139 1.166 . S
C141 O140 1.182 . S
O142 Zn127 2.080 . S
O142 C145 1.305 . S
O143 Zn126 1.920 . S
O143 C145 1.234 . S
C144 O130 1.305 . S
C144 O131 1.234 . S
C145 O142 1.305 . S
C145 O143 1.234 . S
Zn146 O152 1.920 . S
Zn146 O158 1.898 . S
Zn146 O161 1.905 . S
Zn147 O155 1.905 . S
Zn147 O156 1.898 . S
Zn147 O164 1.920 . S
Zn148 O151 2.080 . S
Zn148 O154 2.114 . S
Zn148 O157 2.120 . S
Zn148 O159 2.120 . S
Zn148 O160 2.114 . S
Zn148 O163 2.080 . S
C149 O154 1.166 . S
C149 O155 1.182 . S
C150 O156 1.167 . S
C150 O157 1.299 . S
O151 Zn148 2.080 . S
O151 C165 1.305 . S
O152 Zn146 1.920 . S
O152 C165 1.234 . S
C153 O158 1.167 . S
C153 O159 1.299 . S
O154 Zn148 2.114 . S
O154 C149 1.166 . S
O155 Zn147 1.905 . S
O155 C149 1.182 . S
O156 Zn147 1.898 . S
O156 C150 1.167 . S
O157 Zn148 2.120 . S
O157 C150 1.299 . S
O158 Zn146 1.898 . S
O158 C153 1.167 . S
O159 Zn148 2.120 . S
O159 C153 1.299 . S
O160 Zn148 2.114 . S
O160 C162 1.166 . S
O161 Zn146 1.905 . S
O161 C162 1.182 . S
C162 O160 1.166 . S
C162 O161 1.182 . S
O163 Zn148 2.080 . S
O163 C166 1.305 . S
O164 Zn147 1.920 . S
O164 C166 1.234 . S
C165 O151 1.305 . S
C165 O152 1.234 . S
C166 O163 1.305 . S
C166 O164 1.234 . S
Zn167 O173 1.920 . S
Zn167 O179 1.898 . S
Zn167 O182 1.905 1_455 S
Zn168 O176 1.905 . S
Zn168 O177 1.898 . S
Zn168 O185 1.920 . S
Zn169 O172 2.080 . S
Zn169 O175 2.114 . S
Zn169 O178 2.120 . S
Zn169 O180 2.120 . S
Zn169 O181 2.114 . S
Zn169 O184 2.080 . S
C170 O175 1.166 . S
C170 O176 1.182 . S
C171 O177 1.167 . S
C171 O178 1.299 . S
O172 Zn169 2.080 . S
O172 C186 1.305 . S
O173 Zn167 1.920 . S
O173 C186 1.234 . S
C174 O179 1.167 . S
C174 O180 1.299 . S
O175 Zn169 2.114 . S
O175 C170 1.166 . S
O176 Zn168 1.905 . S
O176 C170 1.182 . S
O177 Zn168 1.898 . S
O177 C171 1.167 . S
O178 Zn169 2.120 . S
O178 C171 1.299 . S
O179 Zn167 1.898 . S
O179 C174 1.167 . S
O180 Zn169 2.120 . S
O180 C174 1.299 . S
O181 Zn169 2.114 . S
O181 C183 1.166 . S
O182 Zn167 1.905 1_655 S
O182 C183 1.182 1_655 S
C183 O181 1.166 . S
C183 O182 1.182 1_455 S
O184 Zn169 2.080 . S
O184 C187 1.305 . S
O185 Zn168 1.920 . S
O185 C187 1.234 . S
C186 O172 1.305 . S
C186 O173 1.234 . S
C187 O184 1.305 . S
C187 O185 1.234 . S
H188 C196 0.950 . S
H189 C201 0.950 . S
H190 C198 0.950 . S
H191 C200 0.950 . S
H192 C202 0.950 . S
H193 C204 0.950 . S
H194 C206 0.950 . S
H195 C207 0.950 . S
C196 H188 0.950 . S
C196 C197 1.386 . S
C196 C198 1.391 . S
C197 C196 1.386 . S
C197 C201 1.393 . S
C198 H190 0.950 . S
C198 C196 1.391 . S
C198 C199 1.400 . S
C199 C198 1.400 . S
C199 C200 1.398 . S
C199 C205 1.491 . S
C200 H191 0.950 . S
C200 C199 1.398 . S
C200 C201 1.391 . S
C201 H189 0.950 . S
C201 C197 1.393 . S
C201 C200 1.391 . S
C202 H192 0.950 . S
C202 C203 1.386 . S
C202 C204 1.391 . S
C203 C202 1.386 . S
C203 C207 1.393 . S
C204 H193 0.950 . S
C204 C202 1.391 . S
C204 C205 1.400 . S
C205 C199 1.491 . S
C205 C204 1.400 . S
C205 C206 1.398 . S
C206 H194 0.950 . S
C206 C205 1.398 . S
C206 C207 1.391 . S
C207 H195 0.950 . S
C207 C203 1.393 . S
C207 C206 1.391 . S
H208 C216 0.950 . S
H209 C221 0.950 . S
H210 C218 0.950 . S
H211 C220 0.950 . S
H212 C222 0.950 . S
H213 C224 0.950 . S
H214 C226 0.950 . S
H215 C227 0.950 . S
C216 H208 0.950 . S
C216 C217 1.386 . S
C216 C218 1.391 . S
C217 C216 1.386 . S
C217 C221 1.393 . S
C218 H210 0.950 . S
C218 C216 1.391 . S
C218 C219 1.400 . S
C219 C218 1.400 . S
C219 C220 1.398 . S
C219 C225 1.491 . S
C220 H211 0.950 . S
C220 C219 1.398 . S
C220 C221 1.391 . S
C221 H209 0.950 . S
C221 C217 1.393 . S
C221 C220 1.391 . S
C222 H212 0.950 . S
C222 C223 1.386 . S
C222 C224 1.391 . S
C223 C222 1.386 . S
C223 C227 1.393 . S
C224 H213 0.950 . S
C224 C222 1.391 . S
C224 C225 1.400 . S
C225 C219 1.491 . S
C225 C224 1.400 . S
C225 C226 1.398 . S
C226 H214 0.950 . S
C226 C225 1.398 . S
C226 C227 1.391 . S
C227 H215 0.950 . S
C227 C223 1.393 . S
C227 C226 1.391 . S
H228 C236 0.950 . S
H229 C241 0.950 . S
H230 C238 0.950 . S
H231 C240 0.950 . S
H232 C242 0.950 . S
H233 C244 0.950 . S
H234 C246 0.950 . S
H235 C247 0.950 . S
C236 H228 0.950 . S
C236 C237 1.386 . S
C236 C238 1.391 . S
C237 C236 1.386 . S
C237 C241 1.393 . S
C238 H230 0.950 . S
C238 C236 1.391 . S
C238 C239 1.400 . S
C239 C238 1.400 . S
C239 C240 1.398 . S
C239 C245 1.491 . S
C240 H231 0.950 . S
C240 C239 1.398 . S
C240 C241 1.391 . S
C241 H229 0.950 . S
C241 C237 1.393 . S
C241 C240 1.391 . S
C242 H232 0.950 . S
C242 C243 1.386 . S
C242 C244 1.391 . S
C243 C242 1.386 . S
C243 C247 1.393 . S
C244 H233 0.950 . S
C244 C242 1.391 . S
C244 C245 1.400 . S
C245 C239 1.491 . S
C245 C244 1.400 . S
C245 C246 1.398 . S
C246 H234 0.950 . S
C246 C245 1.398 . S
C246 C247 1.391 . S
C247 H235 0.950 . S
C247 C243 1.393 . S
C247 C246 1.391 . S
H248 C256 0.950 . S
H249 C261 0.950 . S
H250 C258 0.950 . S
H251 C260 0.950 . S
H252 C262 0.950 . S
H253 C264 0.950 . S
H254 C266 0.950 . S
H255 C267 0.950 . S
C256 H248 0.950 . S
C256 C257 1.386 . S
C256 C258 1.391 . S
C257 C256 1.386 . S
C257 C261 1.393 . S
C258 H250 0.950 . S
C258 C256 1.391 . S
C258 C259 1.400 . S
C259 C258 1.400 . S
C259 C260 1.398 . S
C259 C265 1.491 . S
C260 H251 0.950 . S
C260 C259 1.398 . S
C260 C261 1.391 . S
C261 H249 0.950 . S
C261 C257 1.393 . S
C261 C260 1.391 . S
C262 H252 0.950 . S
C262 C263 1.386 . S
C262 C264 1.391 . S
C263 C262 1.386 . S
C263 C267 1.393 . S
C264 H253 0.950 . S
C264 C262 1.391 . S
C264 C265 1.400 . S
C265 C259 1.491 . S
C265 C264 1.400 . S
C265 C266 1.398 . S
C266 H254 0.950 . S
C266 C265 1.398 . S
C266 C267 1.391 . S
C267 H255 0.950 . S
C267 C263 1.393 . S
C267 C266 1.391 . S
H268 C276 0.950 . S
H269 C281 0.950 . S
H270 C278 0.950 . S
H271 C280 0.950 . S
H272 C282 0.950 . S
H273 C284 0.950 . S
H274 C286 0.950 . S
H275 C287 0.950 . S
C276 H268 0.950 . S
C276 C277 1.386 . S
C276 C278 1.391 . S
C277 C276 1.386 . S
C277 C281 1.393 . S
C278 H270 0.950 . S
C278 C276 1.391 . S
C278 C279 1.400 . S
C279 C278 1.400 . S
C279 C280 1.398 . S
C279 C285 1.491 . S
C280 H271 0.950 . S
C280 C279 1.398 . S
C280 C281 1.391 . S
C281 H269 0.950 . S
C281 C277 1.393 . S
C281 C280 1.391 . S
C282 H272 0.950 . S
C282 C283 1.386 . S
C282 C284 1.391 . S
C283 C282 1.386 . S
C283 C287 1.393 . S
C284 H273 0.950 . S
C284 C282 1.391 . S
C284 C285 1.400 . S
C285 C279 1.491 . S
C285 C284 1.400 . S
C285 C286 1.398 . S
C286 H274 0.950 . S
C286 C285 1.398 . S
C286 C287 1.391 . S
C287 H275 0.950 . S
C287 C283 1.393 . S
C287 C286 1.391 . S
H288 C296 0.950 . S
H289 C301 0.950 . S
H290 C298 0.950 . S
H291 C300 0.950 . S
H292 C302 0.950 . S
H293 C304 0.950 . S
H294 C306 0.950 . S
H295 C307 0.950 . S
C296 H288 0.950 . S
C296 C297 1.386 . S
C296 C298 1.391 . S
C297 C296 1.386 . S
C297 C301 1.393 . S
C298 H290 0.950 . S
C298 C296 1.391 . S
C298 C299 1.400 . S
C299 C298 1.400 . S
C299 C300 1.398 . S
C299 C305 1.491 . S
C300 H291 0.950 . S
C300 C299 1.398 . S
C300 C301 1.391 . S
C301 H289 0.950 . S
C301 C297 1.393 . S
C301 C300 1.391 . S
C302 H292 0.950 . S
C302 C303 1.386 1_655 S
C302 C304 1.391 . S
C303 C302 1.386 1_455 S
C303 C307 1.393 . S
C304 H293 0.950 . S
C304 C302 1.391 . S
C304 C305 1.400 . S
C305 C299 1.491 . S
C305 C304 1.400 . S
C305 C306 1.398 . S
C306 H294 0.950 . S
C306 C305 1.398 . S
C306 C307 1.391 1_655 S
C307 H295 0.950 . S
C307 C303 1.393 . S
C307 C306 1.391 1_455 S
H308 C316 0.950 . S
H309 C321 0.950 . S
H310 C318 0.950 . S
H311 C320 0.950 . S
H312 C322 0.950 . S
H313 C324 0.950 . S
H314 C326 0.950 . S
H315 C327 0.950 . S
C316 H308 0.950 . S
C316 C317 1.386 . S
C316 C318 1.391 . S
C317 C316 1.386 . S
C317 C321 1.393 . S
C318 H310 0.950 . S
C318 C316 1.391 . S
C318 C319 1.400 . S
C319 C318 1.400 . S
C319 C320 1.398 . S
C319 C325 1.491 . S
C320 H311 0.950 . S
C320 C319 1.398 . S
C320 C321 1.391 . S
C321 H309 0.950 . S
C321 C317 1.393 . S
C321 C320 1.391 . S
C322 H312 0.950 . S
C322 C323 1.386 . S
C322 C324 1.391 . S
C323 C322 1.386 . S
C323 C327 1.393 . S
C324 H313 0.950 . S
C324 C322 1.391 . S
C324 C325 1.400 . S
C325 C319 1.491 . S
C325 C324 1.400 . S
C325 C326 1.398 . S
C326 H314 0.950 . S
C326 C325 1.398 . S
C326 C327 1.391 . S
C327 H315 0.950 . S
C327 C323 1.393 . S
C327 C326 1.391 . S
H328 C336 0.950 . S
H329 C341 0.950 . S
H330 C338 0.950 . S
H331 C340 0.950 . S
H332 C342 0.950 . S
H333 C344 0.950 . S
H334 C346 0.950 . S
H335 C347 0.950 . S
C336 H328 0.950 . S
C336 C337 1.386 . S
C336 C338 1.391 1_455 S
C337 C336 1.386 . S
C337 C341 1.393 . S
C338 H330 0.950 . S
C338 C336 1.391 1_655 S
C338 C339 1.400 . S
C339 C338 1.400 . S
C339 C340 1.398 . S
C339 C345 1.491 . S
C340 H331 0.950 . S
C340 C339 1.398 . S
C340 C341 1.391 1_655 S
C341 H329 0.950 . S
C341 C337 1.393 . S
C341 C340 1.391 1_455 S
C342 H332 0.950 . S
C342 C343 1.386 . S
C342 C344 1.391 . S
C343 C342 1.386 . S
C343 C347 1.393 . S
C344 H333 0.950 . S
C344 C342 1.391 . S
C344 C345 1.400 . S
C345 C339 1.491 . S
C345 C344 1.400 . S
C345 C346 1.398 . S
C346 H334 0.950 . S
C346 C345 1.398 . S
C346 C347 1.391 . S
C347 H335 0.950 . S
C347 C343 1.393 . S
C347 C346 1.391 . S
H348 C356 0.950 . S
H349 C361 0.950 . S
H350 C358 0.950 . S
H351 C360 0.950 . S
H352 C362 0.950 . S
H353 C364 0.950 . S
H354 C366 0.950 . S
H355 C367 0.950 . S
C356 H348 0.950 . S
C356 C357 1.386 . S
C356 C358 1.391 . S
C357 C356 1.386 . S
C357 C361 1.393 . S
C358 H350 0.950 . S
C358 C356 1.391 . S
C358 C359 1.400 . S
C359 C358 1.400 . S
C359 C360 1.398 . S
C359 C365 1.491 . S
C360 H351 0.950 . S
C360 C359 1.398 . S
C360 C361 1.391 . S
C361 H349 0.950 . S
C361 C357 1.393 . S
C361 C360 1.391 . S
C362 H352 0.950 . S
C362 C363 1.386 . S
C362 C364 1.391 . S
C363 C362 1.386 . S
C363 C367 1.393 . S
C364 H353 0.950 . S
C364 C362 1.391 . S
C364 C365 1.400 . S
C365 C359 1.491 . S
C365 C364 1.400 . S
C365 C366 1.398 . S
C366 H354 0.950 . S
C366 C365 1.398 . S
C366 C367 1.391 . S
C367 H355 0.950 . S
C367 C363 1.393 . S
C367 C366 1.391 . S
H368 C376 0.950 . S
H369 C381 0.950 . S
H370 C378 0.950 . S
H371 C380 0.950 . S
H372 C382 0.950 . S
H373 C384 0.950 . S
H374 C386 0.950 . S
H375 C387 0.950 . S
C376 H368 0.950 . S
C376 C377 1.386 . S
C376 C378 1.391 . S
C377 C376 1.386 . S
C377 C381 1.393 . S
C378 H370 0.950 . S
C378 C376 1.391 . S
C378 C379 1.400 . S
C379 C378 1.400 . S
C379 C380 1.398 . S
C379 C385 1.491 . S
C380 H371 0.950 . S
C380 C379 1.398 . S
C380 C381 1.391 . S
C381 H369 0.950 . S
C381 C377 1.393 . S
C381 C380 1.391 . S
C382 H372 0.950 . S
C382 C383 1.386 . S
C382 C384 1.391 . S
C383 C382 1.386 . S
C383 C387 1.393 . S
C384 H373 0.950 . S
C384 C382 1.391 . S
C384 C385 1.400 . S
C385 C379 1.491 . S
C385 C384 1.400 . S
C385 C386 1.398 . S
C386 H374 0.950 . S
C386 C385 1.398 . S
C386 C387 1.391 . S
C387 H375 0.950 . S
C387 C383 1.393 . S
C387 C386 1.391 . S
H388 C396 0.950 . S
H389 C401 0.950 . S
H390 C398 0.950 . S
H391 C400 0.950 . S
H392 C402 0.950 . S
H393 C404 0.950 . S
H394 C406 0.950 . S
H395 C407 0.950 . S
C396 H388 0.950 . S
C396 C397 1.386 . S
C396 C398 1.391 . S
C397 C396 1.386 . S
C397 C401 1.393 . S
C398 H390 0.950 . S
C398 C396 1.391 . S
C398 C399 1.400 . S
C399 C398 1.400 . S
C399 C400 1.398 . S
C399 C405 1.491 . S
C400 H391 0.950 . S
C400 C399 1.398 . S
C400 C401 1.391 . S
C401 H389 0.950 . S
C401 C397 1.393 . S
C401 C400 1.391 . S
C402 H392 0.950 . S
C402 C403 1.386 . S
C402 C404 1.391 . S
C403 C402 1.386 . S
C403 C407 1.393 . S
C404 H393 0.950 . S
C404 C402 1.391 . S
C404 C405 1.400 . S
C405 C399 1.491 . S
C405 C404 1.400 . S
C405 C406 1.398 . S
C406 H394 0.950 . S
C406 C405 1.398 . S
C406 C407 1.391 . S
C407 H395 0.950 . S
C407 C403 1.393 . S
C407 C406 1.391 . S
H408 C416 0.950 . S
H409 C421 0.950 . S
H410 C418 0.950 . S
H411 C420 0.950 . S
H412 C422 0.950 . S
H413 C424 0.950 . S
H414 C426 0.950 . S
H415 C427 0.950 . S
C416 H408 0.950 . S
C416 C417 1.386 . S
C416 C418 1.391 . S
C417 C416 1.386 . S
C417 C421 1.393 . S
C418 H410 0.950 . S
C418 C416 1.391 . S
C418 C419 1.400 . S
C419 C418 1.400 . S
C419 C420 1.398 . S
C419 C425 1.491 . S
C420 H411 0.950 . S
C420 C419 1.398 . S
C420 C421 1.391 . S
C421 H409 0.950 . S
C421 C417 1.393 . S
C421 C420 1.391 . S
C422 H412 0.950 . S
C422 C423 1.386 . S
C422 C424 1.391 . S
C423 C422 1.386 . S
C423 C427 1.393 . S
C424 H413 0.950 . S
C424 C422 1.391 . S
C424 C425 1.400 . S
C425 C419 1.491 . S
C425 C424 1.400 . S
C425 C426 1.398 . S
C426 H414 0.950 . S
C426 C425 1.398 . S
C426 C427 1.391 . S
C427 H415 0.950 . S
C427 C423 1.393 . S
C427 C426 1.391 . S
H428 C436 0.950 . S
H429 C441 0.950 . S
H430 C438 0.950 . S
H431 C440 0.950 . S
H432 C442 0.950 . S
H433 C444 0.950 . S
H434 C446 0.950 . S
H435 C447 0.950 . S
C436 H428 0.950 . S
C436 C437 1.386 . S
C436 C438 1.391 . S
C437 C436 1.386 . S
C437 C441 1.393 . S
C438 H430 0.950 . S
C438 C436 1.391 . S
C438 C439 1.400 . S
C439 C438 1.400 . S
C439 C440 1.398 . S
C439 C445 1.491 1_565 S
C440 H431 0.950 . S
C440 C439 1.398 . S
C440 C441 1.391 . S
C441 H429 0.950 . S
C441 C437 1.393 . S
C441 C440 1.391 . S
C442 H432 0.950 . S
C442 C443 1.386 . S
C442 C444 1.391 . S
C443 C442 1.386 . S
C443 C447 1.393 . S
C444 H433 0.950 . S
C444 C442 1.391 . S
C444 C445 1.400 . S
C445 C439 1.491 1_545 S
C445 C444 1.400 . S
C445 C446 1.398 . S
C446 H434 0.950 . S
C446 C445 1.398 . S
C446 C447 1.391 . S
C447 H435 0.950 . S
C447 C443 1.393 . S
C447 C446 1.391 . S
H448 C456 0.950 . S
H449 C461 0.950 . S
H450 C458 0.950 . S
H451 C460 0.950 . S
H452 C462 0.950 . S
H453 C464 0.950 . S
H454 C466 0.950 1_545 S
H455 C467 0.950 . S
C456 H448 0.950 . S
C456 C457 1.386 . S
C456 C458 1.391 . S
C457 C456 1.386 . S
C457 C461 1.393 . S
C458 H450 0.950 . S
C458 C456 1.391 . S
C458 C459 1.400 . S
C459 C458 1.400 . S
C459 C460 1.398 . S
C459 C465 1.491 . S
C460 H451 0.950 . S
C460 C459 1.398 . S
C460 C461 1.391 . S
C461 H449 0.950 . S
C461 C457 1.393 . S
C461 C460 1.391 . S
C462 H452 0.950 . S
C462 C463 1.386 . S
C462 C464 1.391 . S
C463 C462 1.386 . S
C463 C467 1.393 . S
C464 H453 0.950 . S
C464 C462 1.391 . S
C464 C465 1.400 1_565 S
C465 C459 1.491 . S
C465 C464 1.400 1_545 S
C465 C466 1.398 1_545 S
C466 H454 0.950 1_565 S
C466 C465 1.398 1_565 S
C466 C467 1.391 . S
C467 H455 0.950 . S
C467 C463 1.393 . S
C467 C466 1.391 . S
H468 C476 0.950 . S
H469 C481 0.950 . S
H470 C478 0.950 1_565 S
H471 C480 0.950 . S
H472 C482 0.950 . S
H473 C484 0.950 . S
H474 C486 0.950 . S
H475 C487 0.950 . S
C476 H468 0.950 . S
C476 C477 1.386 . S
C476 C478 1.391 . S
C477 C476 1.386 . S
C477 C481 1.393 . S
C478 H470 0.950 1_545 S
C478 C476 1.391 . S
C478 C479 1.400 1_545 S
C479 C478 1.400 1_565 S
C479 C480 1.398 1_565 S
C479 C485 1.491 . S
C480 H471 0.950 . S
C480 C479 1.398 1_545 S
C480 C481 1.391 . S
C481 H469 0.950 . S
C481 C477 1.393 . S
C481 C480 1.391 . S
C482 H472 0.950 . S
C482 C483 1.386 . S
C482 C484 1.391 . S
C483 C482 1.386 . S
C483 C487 1.393 . S
C484 H473 0.950 . S
C484 C482 1.391 . S
C484 C485 1.400 . S
C485 C479 1.491 . S
C485 C484 1.400 . S
C485 C486 1.398 . S
C486 H474 0.950 . S
C486 C485 1.398 . S
C486 C487 1.391 . S
C487 H475 0.950 . S
C487 C483 1.393 . S
C487 C486 1.391 . S
H488 C496 0.950 . S
H489 C501 0.950 . S
H490 C498 0.950 . S
H491 C500 0.950 . S
H492 C502 0.950 . S
H493 C504 0.945 1_565 S
H494 C506 0.950 . S
H495 C507 0.950 . S
C496 H488 0.950 . S
C496 C497 1.386 . S
C496 C498 1.391 . S
C497 C496 1.386 . S
C497 C501 1.393 . S
C498 H490 0.950 . S
C498 C496 1.391 . S
C498 C499 1.400 . S
C499 C498 1.400 . S
C499 C500 1.398 . S
C499 C505 1.491 . S
C500 H491 0.950 . S
C500 C499 1.398 . S
C500 C501 1.391 . S
C501 H489 0.950 . S
C501 C497 1.393 . S
C501 C500 1.391 . S
C502 H492 0.950 . S
C502 C503 1.386 . S
C502 C504 1.391 . S
C503 C502 1.386 . S
C503 C507 1.393 . S
C504 H493 0.945 1_545 S
C504 C502 1.391 . S
C504 C505 1.400 1_545 S
C505 C499 1.491 . S
C505 C504 1.400 1_565 S
C505 C506 1.398 . S
C506 H494 0.950 . S
C506 C505 1.398 . S
C506 C507 1.391 1_565 S
C507 H495 0.950 . S
C507 C503 1.393 . S
C507 C506 1.391 1_545 S
H508 C516 0.950 . S
H509 C521 0.950 . S
H510 C518 0.929 1_556 S
H511 C520 0.950 . S
H512 C522 0.950 . S
H513 C524 0.950 . S
H514 C526 0.950 . S
H515 C527 0.950 . S
C516 H508 0.950 . S
C516 C517 1.386 . S
C516 C518 1.419 . S
C517 C516 1.386 . S
C517 C521 1.393 . S
C518 H510 0.929 1_554 S
C518 C516 1.419 . S
C518 C519 1.393 1_554 S
C519 C518 1.393 1_556 S
C519 C520 1.398 1_556 S
C519 C525 1.491 . S
C520 H511 0.950 . S
C520 C519 1.398 1_554 S
C520 C521 1.391 . S
C521 H509 0.950 . S
C521 C517 1.393 . S
C521 C520 1.391 . S
C522 H512 0.950 . S
C522 C523 1.386 . S
C522 C524 1.391 . S
C523 C522 1.386 . S
C523 C527 1.393 . S
C524 H513 0.950 . S
C524 C522 1.391 . S
C524 C525 1.400 . S
C525 C519 1.491 . S
C525 C524 1.400 . S
C525 C526 1.398 . S
C526 H514 0.950 . S
C526 C525 1.398 . S
C526 C527 1.391 . S
C527 H515 0.950 . S
C527 C523 1.393 . S
C527 C526 1.391 . S
H528 C536 0.950 . S
H529 C541 0.950 . S
H530 C538 0.950 . S
H531 C540 0.950 . S
H532 C542 0.950 . S
H533 C544 0.950 . S
H534 C546 0.950 . S
H535 C547 0.950 . S
C536 H528 0.950 . S
C536 C537 1.386 . S
C536 C538 1.391 . S
C537 C536 1.386 . S
C537 C541 1.393 . S
C538 H530 0.950 . S
C538 C536 1.391 . S
C538 C539 1.400 . S
C539 C538 1.400 . S
C539 C540 1.398 . S
C539 C545 1.491 . S
C540 H531 0.950 . S
C540 C539 1.398 . S
C540 C541 1.391 . S
C541 H529 0.950 . S
C541 C537 1.393 . S
C541 C540 1.391 . S
C542 H532 0.950 . S
C542 C543 1.386 . S
C542 C544 1.391 . S
C543 C542 1.386 . S
C543 C547 1.393 . S
C544 H533 0.950 . S
C544 C542 1.391 . S
C544 C545 1.400 . S
C545 C539 1.491 . S
C545 C544 1.400 . S
C545 C546 1.398 . S
C546 H534 0.950 . S
C546 C545 1.398 . S
C546 C547 1.391 . S
C547 H535 0.950 . S
C547 C543 1.393 . S
C547 C546 1.391 . S
H548 C556 0.950 . S
H549 C561 0.950 . S
H550 C558 0.950 . S
H551 C560 0.950 . S
H552 C562 0.950 . S
H553 C564 0.950 . S
H554 C566 0.950 . S
H555 C567 0.950 . S
C556 H548 0.950 . S
C556 C557 1.386 . S
C556 C558 1.391 . S
C557 C556 1.386 . S
C557 C561 1.393 . S
C558 H550 0.950 . S
C558 C556 1.391 . S
C558 C559 1.400 . S
C559 C558 1.400 . S
C559 C560 1.398 . S
C559 C565 1.491 . S
C560 H551 0.950 . S
C560 C559 1.398 . S
C560 C561 1.391 . S
C561 H549 0.950 . S
C561 C557 1.393 . S
C561 C560 1.391 . S
C562 H552 0.950 . S
C562 C563 1.386 . S
C562 C564 1.391 . S
C563 C562 1.386 . S
C563 C567 1.393 . S
C564 H553 0.950 . S
C564 C562 1.391 . S
C564 C565 1.400 . S
C565 C559 1.491 . S
C565 C564 1.400 . S
C565 C566 1.398 . S
C566 H554 0.950 . S
C566 C565 1.398 . S
C566 C567 1.391 . S
C567 H555 0.950 . S
C567 C563 1.393 . S
C567 C566 1.391 . S
H568 C576 0.950 . S
H569 C581 0.950 . S
H570 C578 0.950 . S
H571 C580 0.950 . S
H572 C582 0.950 . S
H573 C584 0.950 . S
H574 C586 0.950 . S
H575 C587 0.950 . S
C576 H568 0.950 . S
C576 C577 1.386 . S
C576 C578 1.391 . S
C577 C576 1.386 . S
C577 C581 1.393 . S
C578 H570 0.950 . S
C578 C576 1.391 . S
C578 C579 1.400 . S
C579 C578 1.400 . S
C579 C580 1.398 . S
C579 C585 1.491 . S
C580 H571 0.950 . S
C580 C579 1.398 . S
C580 C581 1.391 . S
C581 H569 0.950 . S
C581 C577 1.393 . S
C581 C580 1.391 . S
C582 H572 0.950 . S
C582 C583 1.386 . S
C582 C584 1.391 . S
C583 C582 1.386 . S
C583 C587 1.393 . S
C584 H573 0.950 . S
C584 C582 1.391 . S
C584 C585 1.400 . S
C585 C579 1.491 . S
C585 C584 1.400 . S
C585 C586 1.398 . S
C586 H574 0.950 . S
C586 C585 1.398 . S
C586 C587 1.391 . S
C587 H575 0.950 . S
C587 C583 1.393 . S
C587 C586 1.391 . S
H588 C596 0.950 . S
H589 C601 0.950 . S
H590 C598 0.950 . S
H591 C600 0.950 1_554 S
H592 C602 0.950 . S
H593 C604 0.950 . S
H594 C606 0.950 . S
H595 C607 0.950 . S
C596 H588 0.950 . S
C596 C597 1.386 . S
C596 C598 1.391 . S
C597 C596 1.386 . S
C597 C601 1.393 . S
C598 H590 0.950 . S
C598 C596 1.391 . S
C598 C599 1.400 1_556 S
C599 C598 1.400 1_554 S
C599 C600 1.398 1_554 S
C599 C605 1.491 . S
C600 H591 0.950 1_556 S
C600 C599 1.398 1_556 S
C600 C601 1.391 . S
C601 H589 0.950 . S
C601 C597 1.393 . S
C601 C600 1.391 . S
C602 H592 0.950 . S
C602 C603 1.386 . S
C602 C604 1.391 . S
C603 C602 1.386 . S
C603 C607 1.393 . S
C604 H593 0.950 . S
C604 C602 1.391 . S
C604 C605 1.400 . S
C605 C599 1.491 . S
C605 C604 1.400 . S
C605 C606 1.398 . S
C606 H594 0.950 . S
C606 C605 1.398 . S
C606 C607 1.391 . S
C607 H595 0.950 . S
C607 C603 1.393 . S
C607 C606 1.391 . S
H608 C616 0.950 . S
H609 C621 0.950 . S
H610 C618 0.950 . S
H611 C620 0.950 . S
H612 C622 0.950 . S
H613 C624 0.950 . S
H614 C626 0.950 . S
H615 C627 0.950 . S
C616 H608 0.950 . S
C616 C617 1.386 . S
C616 C618 1.391 . S
C617 C616 1.386 . S
C617 C621 1.393 . S
C618 H610 0.950 . S
C618 C616 1.391 . S
C618 C619 1.400 . S
C619 C618 1.400 . S
C619 C620 1.398 . S
C619 C625 1.491 . S
C620 H611 0.950 . S
C620 C619 1.398 . S
C620 C621 1.391 . S
C621 H609 0.950 . S
C621 C617 1.393 . S
C621 C620 1.391 . S
C622 H612 0.950 . S
C622 C623 1.386 . S
C622 C624 1.391 . S
C623 C622 1.386 . S
C623 C627 1.393 . S
C624 H613 0.950 . S
C624 C622 1.391 . S
C624 C625 1.400 . S
C625 C619 1.491 . S
C625 C624 1.400 . S
C625 C626 1.398 . S
C626 H614 0.950 . S
C626 C625 1.398 . S
C626 C627 1.391 . S
C627 H615 0.950 . S
C627 C623 1.393 . S
C627 C626 1.391 . S
H628 C636 0.950 . S
H629 C641 0.950 . S
H630 C638 0.950 . S
H631 C640 0.950 . S
H632 C642 0.950 . S
H633 C644 0.950 . S
H634 C646 0.950 . S
H635 C647 0.950 . S
C636 H628 0.950 . S
C636 C637 1.386 . S
C636 C638 1.391 . S
C637 C636 1.386 . S
C637 C641 1.393 . S
C638 H630 0.950 . S
C638 C636 1.391 . S
C638 C639 1.400 . S
C639 C638 1.400 . S
C639 C640 1.398 . S
C639 C645 1.491 . S
C640 H631 0.950 . S
C640 C639 1.398 . S
C640 C641 1.391 . S
C641 H629 0.950 . S
C641 C637 1.393 . S
C641 C640 1.391 . S
C642 H632 0.950 . S
C642 C643 1.386 . S
C642 C644 1.391 . S
C643 C642 1.386 . S
C643 C647 1.393 . S
C644 H633 0.950 . S
C644 C642 1.391 . S
C644 C645 1.400 . S
C645 C639 1.491 . S
C645 C644 1.400 . S
C645 C646 1.398 . S
C646 H634 0.950 . S
C646 C645 1.398 . S
C646 C647 1.391 . S
C647 H635 0.950 . S
C647 C643 1.393 . S
C647 C646 1.391 . S
H648 C656 0.950 . S
H649 C661 0.950 . S
H650 C658 0.950 . S
H651 C660 0.950 . S
H652 C662 0.950 . S
H653 C664 0.950 . S
H654 C666 0.950 . S
H655 C667 0.950 . S
C656 H648 0.950 . S
C656 C657 1.386 . S
C656 C658 1.391 . S
C657 C656 1.386 . S
C657 C661 1.393 . S
C658 H650 0.950 . S
C658 C656 1.391 . S
C658 C659 1.400 . S
C659 C658 1.400 . S
C659 C660 1.398 . S
C659 C665 1.491 . S
C660 H651 0.950 . S
C660 C659 1.398 . S
C660 C661 1.391 . S
C661 H649 0.950 . S
C661 C657 1.393 . S
C661 C660 1.391 . S
C662 H652 0.950 . S
C662 C663 1.386 . S
C662 C664 1.391 . S
C663 C662 1.386 . S
C663 C667 1.393 . S
C664 H653 0.950 . S
C664 C662 1.391 . S
C664 C665 1.400 . S
C665 C659 1.491 . S
C665 C664 1.400 . S
C665 C666 1.398 . S
C666 H654 0.950 . S
C666 C665 1.398 . S
C666 C667 1.391 . S
C667 H655 0.950 . S
C667 C663 1.393 . S
C667 C666 1.391 . S
C203 C111 1.492 . S
C197 C4 1.493 . S
C223 C129 1.354 . S
C217 C17 1.360 1_655 S
C237 C34 1.344 . S
C243 C153 1.212 . S
C263 C183 1.311 1_655 S
C257 C47 1.418 . S
C283 C171 1.314 . S
C277 C56 1.349 . S
C297 C69 1.390 . S
C303 C124 1.395 . S
C317 C86 1.553 . S
C323 C144 1.426 . S
C337 C99 1.407 . S
C343 C149 1.290 . S
C357 C95 1.365 . S
C363 C165 1.371 . S
C377 C73 1.412 . S
C383 C120 1.284 . S
C403 C187 1.366 . S
C397 C43 1.366 . S
C423 C132 1.293 . S
C417 C21 1.417 . S
C437 C30 1.507 . S
C443 C150 1.510 . S
C457 C8 1.339 . S
C463 C108 1.258 . S
C483 C128 1.274 . S
C477 C82 1.356 . S
C503 C174 1.441 . S
C497 C60 1.563 . S
C523 C170 1.337 . S
C517 C9 1.573 . S
C543 C123 1.409 . S
C537 C22 1.462 . S
C557 C35 1.569 . S
C563 C145 1.354 . S
C577 C48 1.492 . S
C583 C166 1.407 . S
C603 C107 1.388 . S
C597 C61 1.524 . S
C617 C74 1.563 . S
C623 C141 1.489 . S
C643 C162 1.382 . S
C637 C87 1.536 . S
C663 C186 1.475 . S
C657 C100 1.537 . S
