# Generated by pormake.
# Topology anh, (6,3)-cn, num edge types: 1
# Building blocks:
#     Node 0, Type 0, BuildingBlock: PAMTUU_clean_sbu_0, # of connection points: 6
#     Node 1, Type 0, BuildingBlock: PAMTUU_clean_sbu_0, # of connection points: 6
#     Node 2, Type 0, BuildingBlock: PAMTUU_clean_sbu_0, # of connection points: 6
#     Node 3, Type 1, BuildingBlock: BELTOD_clean_linker_0, # of connection points: 3
#     Node 4, Type 1, BuildingBlock: BELTOD_clean_linker_0, # of connection points: 3
#     Node 5, Type 1, BuildingBlock: BELTOD_clean_linker_0, # of connection points: 3
#     Node 6, Type 1, BuildingBlock: BELTOD_clean_linker_0, # of connection points: 3
#     Node 7, Type 1, BuildingBlock: BELTOD_clean_linker_0, # of connection points: 3
#     Node 8, Type 1, BuildingBlock: BELTOD_clean_linker_0, # of connection points: 3
#     Edge 9, Type (0, 1), BuildingBlock: ZUJKAS_clean_linker_0, # of connection points: 2
#     Edge 10, Type (0, 1), BuildingBlock: ZUJKAS_clean_linker_0, # of connection points: 2
#     Edge 11, Type (0, 1), BuildingBlock: ZUJKAS_clean_linker_0, # of connection points: 2
#     Edge 12, Type (0, 1), BuildingBlock: ZUJKAS_clean_linker_0, # of connection points: 2
#     Edge 13, Type (0, 1), BuildingBlock: ZUJKAS_clean_linker_0, # of connection points: 2
#     Edge 14, Type (0, 1), BuildingBlock: ZUJKAS_clean_linker_0, # of connection points: 2
#     Edge 15, Type (0, 1), BuildingBlock: ZUJKAS_clean_linker_0, # of connection points: 2
#     Edge 16, Type (0, 1), BuildingBlock: ZUJKAS_clean_linker_0, # of connection points: 2
#     Edge 17, Type (0, 1), BuildingBlock: ZUJKAS_clean_linker_0, # of connection points: 2
#     Edge 18, Type (0, 1), BuildingBlock: ZUJKAS_clean_linker_0, # of connection points: 2
#     Edge 19, Type (0, 1), BuildingBlock: ZUJKAS_clean_linker_0, # of connection points: 2
#     Edge 20, Type (0, 1), BuildingBlock: ZUJKAS_clean_linker_0, # of connection points: 2
#     Edge 21, Type (0, 1), BuildingBlock: ZUJKAS_clean_linker_0, # of connection points: 2
#     Edge 22, Type (0, 1), BuildingBlock: ZUJKAS_clean_linker_0, # of connection points: 2
#     Edge 23, Type (0, 1), BuildingBlock: ZUJKAS_clean_linker_0, # of connection points: 2
#     Edge 24, Type (0, 1), BuildingBlock: ZUJKAS_clean_linker_0, # of connection points: 2
#     Edge 25, Type (0, 1), BuildingBlock: ZUJKAS_clean_linker_0, # of connection points: 2
#     Edge 26, Type (0, 1), BuildingBlock: ZUJKAS_clean_linker_0, # of connection points: 2
# Relax obj value: 0.199
# Max RMSD: 0.177
# Mean RMSD: 0.141
data_MOF--net-anh--node1-PAMTUU_clean_sbu_0--node2-BELTOD_clean_linker_0--edge1-ZUJKAS_clean_linker_0
_symmetry_space_group_name_H-M    P1
_symmetry_Int_Tables_number       1
_symmetry_cell_setting            triclinic
loop_
_symmetry_equiv_pos_as_xyz
'x, y, z'
_cell_length_a     42.851021
_cell_length_b     42.810171
_cell_length_c     76.474107
_cell_angle_alpha  92.682391
_cell_angle_beta   91.590982
_cell_angle_gamma 120.02101
loop_
_atom_site_label
_atom_site_type_symbol
_atom_site_fract_x
_atom_site_fract_y
_atom_site_fract_z
_atom_type_partial_charge
Tb0 Tb 0.10249 0.6361 0.16642 0.0
Tb1 Tb 0.14541 0.59174 0.1608 0.0
C2 C 0.11644 0.6145 0.12949 0.0
C3 C 1.02688 0.64727 0.17671 0.0
C4 C 0.95236 0.60245 0.18005 0.0
C5 C 0.96548 0.63482 0.17158 0.0
C6 C 1.00255 0.65703 0.16986 0.0
C7 C 1.01404 0.61651 0.18638 0.0
C8 C 0.97711 0.59438 0.1881 0.0
C9 C 1.06386 0.6644 0.1709 0.0
O10 O 1.05989 0.57937 0.16176 0.0
O11 O 0.09183 0.55112 0.1683 0.0
O12 O 0.15815 0.61397 0.18762 0.0
O13 O 0.10604 0.61513 0.19137 0.0
O14 O 0.1795 0.5814 0.14532 0.0
O15 O 0.15608 0.55132 0.16802 0.0
O16 O 0.18758 0.64876 0.16014 0.0
O17 O 0.15885 0.67878 0.17052 0.0
O18 O 0.11974 0.6417 0.13961 0.0
O19 O 0.11571 0.58683 0.13645 0.0
C20 C 1.06092 0.55034 0.16582 0.0
O21 O 0.08877 0.6682 0.18242 0.0
O22 O 1.06658 0.65097 0.15575 0.0
C23 C 0.13437 0.6144 0.19784 0.0
C24 C 0.21405 0.56207 0.16129 0.0
C25 C 0.27801 0.56237 0.17114 0.0
C26 C 0.25849 0.56879 0.18388 0.0
C27 C 0.22682 0.56884 0.17899 0.0
C28 C 0.23417 0.55693 0.14854 0.0
C29 C 0.26588 0.55716 0.15339 0.0
C30 C 0.17895 0.55805 0.15586 0.0
C31 C 0.18823 0.67865 0.16596 0.0
H32 H 0.94703 0.64155 0.16509 0.0
H33 H 1.01196 0.68038 0.16216 0.0
H34 H 1.03233 0.60821 0.19159 0.0
H35 H 0.96778 0.56978 0.19482 0.0
H36 H 0.26733 0.57305 0.19763 0.0
H37 H 0.21189 0.5732 0.18908 0.0
H38 H 0.22474 0.5516 0.13484 0.0
H39 H 0.27996 0.55152 0.14329 0.0
Tb40 Tb 0.54269 0.06812 0.49518 0.0
Tb41 Tb 0.6298 0.11032 0.50205 0.0
C42 C 0.59398 0.09811 0.46401 0.0
C43 C 0.44885 1.00285 0.50177 0.0
C44 C 0.40001 0.93911 0.5171 0.0
C45 C 0.38735 0.95686 0.50639 0.0
C46 C 0.41166 0.98843 0.4987 0.0
C47 C 0.46158 0.98654 0.51323 0.0
C48 C 0.43743 0.95489 0.52076 0.0
C49 C 0.47464 1.03371 0.49245 0.0
O50 O 0.55575 1.02579 0.50052 0.0
O51 O 0.61584 0.05456 0.49461 0.0
O52 O 0.60826 0.08003 0.52482 0.0
O53 O 0.55468 0.07918 0.52342 0.0
O54 O 0.68232 0.12959 0.49376 0.0
O55 O 0.67326 0.14128 0.52031 0.0
O56 O 0.61179 0.14871 0.50911 0.0
O57 O 0.5605 0.12482 0.49124 0.0
O58 O 0.56327 0.07228 0.46919 0.0
O59 O 0.62052 0.12023 0.47527 0.0
C60 C 0.58546 1.02487 0.49745 0.0
O61 O 0.49364 0.0638 0.50211 0.0
O62 O 0.49478 1.02706 0.48223 0.0
C63 C 0.57955 0.07612 0.53226 0.0
C64 C 0.72009 0.18847 0.50698 0.0
C65 C 0.75973 0.26441 0.50668 0.0
C66 C 0.76653 0.24677 0.52009 0.0
C67 C 0.74693 0.20912 0.5202 0.0
C68 C 0.71288 0.20591 0.49369 0.0
C69 C 0.73269 0.24349 0.49346 0.0
C70 C 0.69675 0.14946 0.5084 0.0
C71 C 0.58667 0.15233 0.50077 0.0
H72 H 0.3587 0.94575 0.50352 0.0
H73 H 0.40145 1.00097 0.49001 0.0
H74 H 0.4903 0.99755 0.51583 0.0
H75 H 0.44829 0.94185 0.52869 0.0
H76 H 0.78679 0.26205 0.53061 0.0
H77 H 0.75219 0.19616 0.53081 0.0
H78 H 0.69166 0.19055 0.48356 0.0
H79 H 0.72712 0.25604 0.48277 0.0
Tb80 Tb 0.57614 0.53213 0.82516 0.0
Tb81 Tb 0.61515 0.61783 0.83752 0.0
C82 C 0.60094 0.58982 0.79797 0.0
C83 C 0.56606 0.44311 0.82094 0.0
C84 C 0.60298 0.40518 0.82628 0.0
C85 C 0.57774 0.39508 0.81194 0.0
C86 C 0.55939 0.41395 0.8093 0.0
C87 C 0.59069 0.45277 0.83547 0.0
C88 C 0.60882 0.4338 0.83818 0.0
C89 C 0.55068 0.466 0.81694 0.0
O90 O 0.63414 0.55194 0.82396 0.0
O91 O 0.65839 0.60529 0.84115 0.0
O92 O 0.5872 0.58657 0.85944 0.0
O93 O 0.59547 0.53942 0.85224 0.0
O94 O 0.63258 0.67126 0.83164 0.0
O95 O 0.64056 0.65896 0.85785 0.0
O96 O 0.55895 0.60219 0.83114 0.0
O97 O 0.53104 0.54031 0.83178 0.0
O98 O 0.57379 0.55952 0.80255 0.0
O99 O 0.62497 0.61358 0.80981 0.0
C100 C 0.66156 0.5792 0.83312 0.0
O101 O 0.54083 0.47822 0.83039 0.0
O102 O 0.56927 0.49132 0.8065 0.0
C103 C 0.58914 0.55842 0.86395 0.0
C104 C 0.62059 0.70062 0.85511 0.0
C105 C 0.58019 0.72994 0.86956 0.0
C106 C 0.61374 0.73851 0.87759 0.0
C107 C 0.63368 0.72368 0.87047 0.0
C108 C 0.58726 0.69239 0.84708 0.0
C109 C 0.56723 0.70671 0.85425 0.0
C110 C 0.64003 0.68292 0.84814 0.0
C111 C 0.5296 0.5704 0.83189 0.0
H112 H 0.57252 0.37287 0.80266 0.0
H113 H 0.54079 0.40643 0.79792 0.0
H114 H 0.59674 0.47569 0.84444 0.0
H115 H 0.6284 0.44239 0.84921 0.0
H116 H 0.62448 0.75661 0.88933 0.0
H117 H 0.6592 0.7301 0.87696 0.0
H118 H 0.57661 0.67489 0.83516 0.0
H119 H 0.54199 0.7004 0.84748 0.0
P120 P 0.64761 0.10281 0.21746 0.0
H121 H 0.6246 1.04608 0.18894 0.0
H122 H 0.56546 0.99593 0.17855 0.0
H123 H 0.51459 1.04105 0.21093 0.0
H124 H 0.57399 0.09205 0.22055 0.0
H125 H 0.70563 0.12214 0.19347 0.0
H126 H 0.75365 0.17952 0.18452 0.0
H127 H 0.70563 0.23507 0.21097 0.0
H128 H 0.65656 0.17682 0.21938 0.0
H129 H 0.59726 0.05371 0.24152 0.0
H130 H 0.68687 0.16315 0.24496 0.0
O131 O 0.6693 0.07951 0.21762 0.0
H132 H 0.5908 0.05823 0.27284 0.0
H133 H 0.67975 0.16835 0.27629 0.0
C134 C 0.60403 0.07273 0.2058 0.0
C135 C 0.60073 1.04575 0.19346 0.0
C136 C 0.56664 1.01657 0.18773 0.0
C137 C 0.53474 1.01337 0.19424 0.0
C138 C 0.53816 1.04211 0.20555 0.0
C139 C 0.57235 0.07155 0.21111 0.0
C140 C 0.67775 0.14496 0.20756 0.0
C141 C 0.70497 0.14651 0.19719 0.0
C142 C 0.73288 0.17967 0.1922 0.0
C143 C 0.73457 0.21253 0.19743 0.0
C144 C 0.70567 0.21062 0.20673 0.0
C145 C 0.67745 0.17718 0.2116 0.0
C146 C 0.64116 0.10877 0.24048 0.0
C147 C 0.61476 0.07926 0.24885 0.0
C148 C 0.61114 0.08184 0.26689 0.0
C149 C 0.6343 0.11389 0.27718 0.0
C150 C 0.66129 0.14325 0.26883 0.0
C151 C 0.66496 0.14054 0.25074 0.0
P152 P 0.62704 0.61433 0.55018 0.0
H153 H 0.60622 0.57289 0.51532 0.0
H154 H 0.59689 0.51274 0.50603 0.0
H155 H 0.60427 0.49212 0.56025 0.0
H156 H 0.61421 0.55137 0.56928 0.0
H157 H 0.64438 0.65303 0.51787 0.0
H158 H 0.634 0.70057 0.50768 0.0
H159 H 0.5638 0.68447 0.54995 0.0
H160 H 0.57351 0.6367 0.55971 0.0
H161 H 0.68228 0.65249 0.5791 0.0
H162 H 0.56656 0.58344 0.57342 0.0
O163 O 0.67081 0.63469 0.54627 0.0
H164 H 0.67962 0.65384 0.61099 0.0
H165 H 0.56373 0.58586 0.60545 0.0
C166 C 0.60984 0.56681 0.54308 0.0
C167 C 0.6047 0.55496 0.52521 0.0
C168 C 0.59959 0.52053 0.51991 0.0
C169 C 0.60021 0.49744 0.53236 0.0
C170 C 0.60416 0.50909 0.5502 0.0
C171 C 0.6092 0.54316 0.55544 0.0
C172 C 0.61007 0.641 0.53971 0.0
C173 C 0.62597 0.65901 0.5247 0.0
C174 C 0.62039 0.68675 0.51901 0.0
C175 C 0.59857 0.69727 0.52814 0.0
C176 C 0.58073 0.67741 0.54246 0.0
C177 C 0.58636 0.64973 0.54813 0.0
C178 C 0.62454 0.61812 0.57378 0.0
C179 C 0.65621 0.63798 0.58465 0.0
C180 C 0.65473 0.63868 0.60291 0.0
C181 C 0.62148 0.62002 0.61069 0.0
C182 C 0.58969 0.60079 0.5998 0.0
C183 C 0.59127 0.59951 0.58152 0.0
P184 P 0.12306 0.62063 0.88022 0.0
H185 H 0.15345 0.62002 0.84635 0.0
H186 H 0.19941 0.60502 0.83796 0.0
H187 H 0.19146 0.5572 0.88729 0.0
H188 H 0.1458 0.57229 0.89556 0.0
H189 H 0.09564 0.66751 0.86988 0.0
H190 H 1.03621 0.6574 0.86159 0.0
H191 H 0.99245 0.54208 0.86222 0.0
H192 H 1.05332 0.5526 0.86995 0.0
H193 H 0.17645 0.65873 0.90933 0.0
H194 H 1.06433 0.57546 0.90306 0.0
O195 O 0.15173 0.66408 0.87729 0.0
H196 H 0.17387 0.65695 0.94114 0.0
H197 H 1.06164 0.57326 0.93485 0.0
C198 C 0.1458 0.59733 0.87158 0.0
C199 C 0.16061 0.60514 0.8551 0.0
C200 C 0.18723 0.59673 0.85036 0.0
C201 C 0.19992 0.58048 0.86206 0.0
C202 C 0.18314 0.57046 0.87806 0.0
C203 C 0.15647 0.57873 0.88274 0.0
C204 C 0.07946 0.61085 0.87041 0.0
C205 C 0.07364 0.63987 0.86785 0.0
C206 C 1.03916 0.63404 0.86335 0.0
C207 C 1.00892 0.5989 0.86154 0.0
C208 C 1.01491 0.56957 0.86341 0.0
C209 C 1.04981 0.57551 0.86782 0.0
C210 C 0.12041 0.61785 0.90374 0.0
C211 C 0.15122 0.64009 0.91478 0.0
C212 C 0.14978 0.63884 0.933 0.0
C213 C 0.11746 0.61512 0.9406 0.0
C214 C 0.08678 0.59231 0.92947 0.0
C215 C 0.08832 0.5935 0.91121 0.0
P216 P 0.15525 0.50268 0.43262 0.0
H217 H 0.19053 0.50105 0.46543 0.0
H218 H 0.23024 0.54906 0.48767 0.0
H219 H 0.23493 0.62916 0.45389 0.0
H220 H 0.19473 0.58143 0.4321 0.0
H221 H 0.09856 0.44961 0.45323 0.0
H222 H 1.04588 0.44748 0.46581 0.0
H223 H 0.07255 0.54852 0.44376 0.0
H224 H 0.12463 0.54976 0.43075 0.0
H225 H 0.21489 0.54871 0.41073 0.0
H226 H 0.09969 0.47663 0.40429 0.0
O227 O 0.15498 0.46379 0.43414 0.0
H228 H 0.21523 0.56574 0.38053 0.0
H229 H 0.10009 0.4928 0.37403 0.0
C230 C 0.19092 0.53774 0.44679 0.0
C231 C 0.20107 0.52902 0.46261 0.0
C232 C 0.22343 0.55635 0.47535 0.0
C233 C 0.23599 0.59274 0.47236 0.0
C234 C 0.22637 0.60136 0.45634 0.0
C235 C 0.20358 0.57407 0.44379 0.0
C236 C 0.11504 0.49951 0.44086 0.0
C237 C 0.09283 0.47106 0.45096 0.0
C238 C 1.063 0.47019 0.45833 0.0
C239 C 1.0552 0.49806 0.45592 0.0
C240 C 0.07763 0.52654 0.44575 0.0
C241 C 0.10738 0.52727 0.43833 0.0
C242 C 0.15702 0.51256 0.40994 0.0
C243 C 0.18969 0.53664 0.40287 0.0
C244 C 0.18991 0.54625 0.38562 0.0
C245 C 0.15761 0.5309 0.37509 0.0
C246 C 0.12533 0.50508 0.3819 0.0
C247 C 0.12507 0.49599 0.3992 0.0
P248 P 0.64269 1.03234 0.77132 0.0
H249 H 0.70352 0.07685 0.79657 0.0
H250 H 0.72875 0.13913 0.80913 0.0
H251 H 0.65583 0.15271 0.77433 0.0
H252 H 0.63117 0.09111 0.7619 0.0
H253 H 0.5838 0.95762 0.76962 0.0
H254 H 0.53931 0.92235 0.79054 0.0
H255 H 0.57792 1.0185 0.82525 0.0
H256 H 0.62202 0.05362 0.80438 0.0
H257 H 0.67917 1.04228 0.73895 0.0
H258 H 0.57215 1.01233 0.75419 0.0
O259 O 0.67124 1.0167 0.7731 0.0
H260 H 0.66035 1.0406 0.70836 0.0
H261 H 0.55256 1.00906 0.72354 0.0
C262 C 0.66603 0.07969 0.77807 0.0
C263 C 0.69379 0.0937 0.79134 0.0
C264 C 0.70798 0.12912 0.79858 0.0
C265 C 0.69451 0.15092 0.79263 0.0
C266 C 0.66745 0.13697 0.77893 0.0
C267 C 0.6532 0.10163 0.77181 0.0
C268 C 0.60629 1.00819 0.78539 0.0
C269 C 0.58207 0.97126 0.78153 0.0
C270 C 0.55646 0.95124 0.79342 0.0
C271 C 0.55512 0.9678 0.80948 0.0
C272 C 0.57836 1.00513 0.81295 0.0
C273 C 0.60372 1.02518 0.80099 0.0
C274 C 0.62687 1.02656 0.74874 0.0
C275 C 0.65136 1.03447 0.73563 0.0
C276 C 0.64047 1.03337 0.71813 0.0
C277 C 0.60481 1.02439 0.71343 0.0
C278 C 0.58026 1.01629 0.72668 0.0
C279 C 0.5913 1.01767 0.74421 0.0
P280 P 0.49072 0.33928 0.07982 0.0
H281 H 0.51089 0.30545 0.10658 0.0
H282 H 0.56917 0.32302 0.12171 0.0
H283 H 0.62284 0.40759 0.08633 0.0
H284 H 0.56502 0.39057 0.07161 0.0
H285 H 0.43079 0.31611 0.10327 0.0
H286 H 0.41681 0.34954 0.12558 0.0
H287 H 0.51391 0.4481 0.11518 0.0
H288 H 0.5274 0.41466 0.0928 0.0
H289 H 0.52061 0.3318 0.04708 0.0
H290 H 0.46526 0.38634 0.0661 0.0
O291 O 0.46006 0.29527 0.0782 0.0
H292 H 0.52916 0.36091 0.01942 0.0
H293 H 0.47449 0.41612 0.03882 0.0
C294 C 0.53368 0.34593 0.08763 0.0
C295 C 0.53538 0.32698 0.10174 0.0
C296 C 0.56857 0.3372 0.11046 0.0
C297 C 0.60049 0.36646 0.1051 0.0
C298 C 0.59878 0.38442 0.0905 0.0
C299 C 0.56563 0.37454 0.08199 0.0
C300 C 0.47987 0.36307 0.09629 0.0
C301 C 0.44902 0.34489 0.10581 0.0
C302 C 0.44128 0.36395 0.11867 0.0
C303 C 0.46429 0.40144 0.12211 0.0
C304 C 0.49551 0.41932 0.1127 0.0
C305 C 0.50326 0.40026 0.09994 0.0
C306 C 0.49327 0.35768 0.05883 0.0
C307 C 0.51027 0.34999 0.04529 0.0
C308 C 0.51534 0.36683 0.02955 0.0
C309 C 0.50302 0.39131 0.02703 0.0
C310 C 0.4843 0.39743 0.04032 0.0
C311 C 0.47931 0.38062 0.05604 0.0
H312 H 0.28223 0.52344 0.19746 0.0
H313 H 0.32599 0.5031 0.20107 0.0
H314 H 0.38534 0.56741 0.15912 0.0
H315 H 0.34246 0.58866 0.15585 0.0
H316 H 0.32938 0.46294 0.17439 0.0
H317 H 0.46687 0.57686 0.19061 0.0
H318 H 0.42711 0.58006 0.19452 0.0
H319 H 0.44562 0.5875 0.17322 0.0
C320 C 0.3055 0.53448 0.18954 0.0
C321 C 0.30873 0.55728 0.17621 0.0
C322 C 0.33043 0.52275 0.1916 0.0
C323 C 0.35906 0.53385 0.18044 0.0
C324 C 0.36396 0.55902 0.16813 0.0
H325 H 0.46741 0.46557 0.11756 0.0
H326 H 0.44628 0.49724 0.13681 0.0
C327 C 0.33911 0.57077 0.16609 0.0
C328 C 0.37892 0.51388 0.17893 0.0
H329 H 0.46255 0.52643 0.17187 0.0
C330 C 0.35859 0.47655 0.1744 0.0
C331 C 0.41698 0.53167 0.17896 0.0
C332 C 0.44035 0.57119 0.18478 0.0
C333 C 0.37498 0.45725 0.16821 0.0
C334 C 0.41285 0.47573 0.16688 0.0
C335 C 0.4335 0.51239 0.1728 0.0
C336 C 0.43043 0.45897 0.15689 0.0
C337 C 0.35127 0.41805 0.16174 0.0
C338 C 0.42937 0.42741 0.16203 0.0
C339 C 0.44118 0.40902 0.15093 0.0
C340 C 0.45468 0.42224 0.13468 0.0
C341 C 0.45742 0.45486 0.13005 0.0
C342 C 0.44539 0.47302 0.14105 0.0
H343 H 0.32212 0.4095 0.16124 0.0
H344 H 0.35831 0.41309 0.14843 0.0
H345 H 0.35557 0.40071 0.17069 0.0
H346 H 0.41844 0.41647 0.17435 0.0
H347 H 0.43932 0.38423 0.15494 0.0
H348 H 0.73862 0.31234 0.49651 0.0
H349 H 0.77822 0.37579 0.49044 0.0
H350 H 0.87078 0.36969 0.50907 0.0
H351 H 0.83209 0.30658 0.51459 0.0
H352 H 0.87084 0.44001 0.51792 0.0
H353 H 0.84278 0.38937 0.4474 0.0
H354 H 0.80647 0.38074 0.46133 0.0
H355 H 0.83137 0.35771 0.46415 0.0
C356 C 0.76741 0.32466 0.49946 0.0
C357 C 0.78226 0.30417 0.50578 0.0
C358 C 0.78985 0.36097 0.49617 0.0
C359 C 0.82731 0.37722 0.49929 0.0
C360 C 0.84183 0.35764 0.50676 0.0
H361 H 1.03125 0.47796 0.48843 0.0
H362 H 0.97336 0.46441 0.4991 0.0
C363 C 0.8196 0.32146 0.50991 0.0
C364 C 0.85256 0.41208 0.4923 0.0
H365 H 0.89931 0.43938 0.45557 0.0
C366 C 0.87649 0.44078 0.50416 0.0
C367 C 0.85931 0.41348 0.4743 0.0
C368 C 0.83373 0.38382 0.46095 0.0
C369 C 0.9094 0.46846 0.49879 0.0
C370 C 0.91885 0.46637 0.48137 0.0
C371 C 0.89251 0.44071 0.46903 0.0
C372 C 0.95706 0.48337 0.47672 0.0
C373 C 0.93472 0.49814 0.51214 0.0
C374 C 0.96762 0.49868 0.46054 0.0
C375 C 1.00047 0.50529 0.4541 0.0
C376 C 1.02329 0.49672 0.46376 0.0
C377 C 1.01392 0.4841 0.48051 0.0
C378 C 0.98106 0.47717 0.48683 0.0
H379 H 0.91934 0.50669 0.52065 0.0
H380 H 0.94825 0.48776 0.52075 0.0
H381 H 0.95556 0.52208 0.50585 0.0
H382 H 0.94947 0.50338 0.45242 0.0
H383 H 1.00688 0.51498 0.44112 0.0
H384 H 0.50765 0.69895 0.87384 0.0
H385 H 0.47345 0.73078 0.87481 0.0
H386 H 0.57324 0.83295 0.87938 0.0
H387 H 0.60741 0.80147 0.87858 0.0
H388 H 0.51154 0.83343 0.89554 0.0
H389 H 0.48182 0.77279 0.82653 0.0
H390 H 0.46752 0.7435 0.84429 0.0
H391 H 0.51475 0.77039 0.84069 0.0
C392 C 0.52221 0.7282 0.87569 0.0
C393 C 0.56015 0.74784 0.8757 0.0
C394 C 0.50265 0.74629 0.87631 0.0
C395 C 0.52085 0.78415 0.87676 0.0
C396 C 0.55868 0.80367 0.87902 0.0
H397 H 0.57952 0.97037 0.84279 0.0
H398 H 0.55284 0.92327 0.86296 0.0
C399 C 0.57824 0.78564 0.87852 0.0
C400 C 0.50241 0.8034 0.8707 0.0
H401 H 0.48143 0.82603 0.83188 0.0
C402 C 0.50371 0.83121 0.88173 0.0
C403 C 0.49122 0.79988 0.85278 0.0
C404 C 0.4887 0.77015 0.8403 0.0
C405 C 0.49811 0.85799 0.87485 0.0
C406 C 0.49256 0.85753 0.85648 0.0
C407 C 0.48627 0.82695 0.84594 0.0
C408 C 0.50234 0.89099 0.84745 0.0
C409 C 0.5003 0.88754 0.88724 0.0
C410 C 0.48276 0.88959 0.83205 0.0
C411 C 0.49873 0.91626 0.8201 0.0
C412 C 0.53418 0.94511 0.82357 0.0
C413 C 0.55201 0.94865 0.83984 0.0
C414 C 0.53644 0.9217 0.85156 0.0
H415 H 0.48593 0.8759 0.89922 0.0
H416 H 0.52897 0.90671 0.89148 0.0
H417 H 0.48845 0.90257 0.88111 0.0
H418 H 0.45641 0.86627 0.82854 0.0
H419 H 0.48433 0.91313 0.80768 0.0
H420 H 0.92351 0.53098 0.17103 0.0
H421 H 0.86062 0.48664 0.16285 0.0
H422 H 0.83031 0.56674 0.17563 0.0
H423 H 0.89371 0.61155 0.18379 0.0
H424 H 0.79498 0.45775 0.17854 0.0
H425 H 0.80128 0.54061 0.12341 0.0
H426 H 0.84086 0.54962 0.13656 0.0
H427 H 0.8105 0.56355 0.14481 0.0
C428 C 0.90336 0.53888 0.17261 0.0
C429 C 0.91352 0.57472 0.17802 0.0
C430 C 0.86742 0.51355 0.16785 0.0
C431 C 0.84095 0.52359 0.16836 0.0
C432 C 0.85054 0.55869 0.17484 0.0
H433 H 0.61175 0.38084 0.14052 0.0
H434 H 0.6699 0.41554 0.1572 0.0
C435 C 0.88665 0.5842 0.17951 0.0
C436 C 0.8043 0.49828 0.16048 0.0
H437 H 0.74624 0.48712 0.1262 0.0
C438 C 0.78413 0.46415 0.16716 0.0
C439 C 0.79068 0.50653 0.14541 0.0
C440 C 0.81201 0.5419 0.13699 0.0
C441 C 0.75059 0.43798 0.15912 0.0
C442 C 0.73683 0.44651 0.1442 0.0
C443 C 0.75692 0.4807 0.13764 0.0
C444 C 0.7018 0.42058 0.13493 0.0
C445 C 0.7307 0.40119 0.16632 0.0
C446 C 0.70046 0.41152 0.11694 0.0
C447 C 0.66735 0.39198 0.10737 0.0
C448 C 0.63499 0.38111 0.11566 0.0
C449 C 0.63628 0.38843 0.13386 0.0
C450 C 0.66947 0.40823 0.14341 0.0
H451 H 0.7489 0.3959 0.17474 0.0
H452 H 0.70901 0.39974 0.17444 0.0
H453 H 0.71799 0.37951 0.15556 0.0
H454 H 0.72514 0.42083 0.11016 0.0
H455 H 0.66705 0.38651 0.09338 0.0
H456 H 0.34202 0.88427 0.49815 0.0
H457 H 0.30913 0.82101 0.50416 0.0
H458 H 0.36945 0.84562 0.55387 0.0
H459 H 0.40228 0.90981 0.54813 0.0
H460 H 0.37584 0.79642 0.53297 0.0
H461 H 0.23173 0.75328 0.53475 0.0
H462 H 0.25017 0.78071 0.51662 0.0
H463 H 0.26677 0.80011 0.53869 0.0
C464 C 0.34735 0.87672 0.51072 0.0
C465 C 0.37505 0.90223 0.52259 0.0
C466 C 0.32837 0.84034 0.51417 0.0
C467 C 0.33654 0.82859 0.52956 0.0
C468 C 0.3626 0.85418 0.54196 0.0
H469 H 0.21903 0.59501 0.50636 0.0
H470 H 0.2461 0.64807 0.52746 0.0
C471 C 0.3815 0.89077 0.53858 0.0
C472 C 0.32237 0.78942 0.53081 0.0
H473 H 0.24553 0.70912 0.52014 0.0
C474 C 0.34721 0.77712 0.53081 0.0
C475 C 0.28505 0.76408 0.52844 0.0
C476 C 0.25695 0.7753 0.52984 0.0
C477 C 0.336 0.7408 0.52622 0.0
C478 C 0.29923 0.71656 0.52128 0.0
C479 C 0.2739 0.72787 0.52356 0.0
C480 C 0.28759 0.68244 0.51057 0.0
C481 C 0.36396 0.72928 0.52554 0.0
C482 C 0.3024 0.68403 0.49426 0.0
C483 C 0.28699 0.654 0.48224 0.0
C484 C 0.25642 0.62181 0.48629 0.0
C485 C 0.24286 0.61945 0.50301 0.0
C486 C 0.25819 0.6497 0.51504 0.0
H487 H 0.38605 0.74485 0.5358 0.0
H488 H 0.35194 0.69995 0.52732 0.0
H489 H 0.37615 0.73497 0.51262 0.0
H490 H 0.32448 0.70923 0.49033 0.0
H491 H 0.2979 0.65644 0.46944 0.0
H492 H 0.61683 0.38039 0.85619 0.0
H493 H 0.65026 0.34797 0.85913 0.0
H494 H 0.67009 0.35639 0.80408 0.0
H495 H 0.63727 0.38901 0.80112 0.0
H496 H 0.6292 0.2825 0.84053 0.0
H497 H 0.76894 0.38277 0.82665 0.0
H498 H 0.73648 0.39549 0.83342 0.0
H499 H 0.73675 0.38184 0.81082 0.0
C500 C 0.62889 0.3758 0.84481 0.0
C501 C 0.62426 0.38689 0.82839 0.0
C502 C 0.648 0.35742 0.84652 0.0
C503 C 0.66324 0.35047 0.8319 0.0
C504 C 0.65931 0.36228 0.81561 0.0
H505 H 0.70903 0.21321 0.7778 0.0
H506 H 0.71076 0.26593 0.79245 0.0
C507 C 0.64005 0.38036 0.81387 0.0
C508 C 0.67903 0.32679 0.83284 0.0
H509 H 0.75045 0.31961 0.81926 0.0
C510 C 0.65612 0.29071 0.83643 0.0
C511 C 0.7142 0.3378 0.82758 0.0
C512 C 0.74063 0.37672 0.82458 0.0
C513 C 0.66601 0.26446 0.83311 0.0
C514 C 0.70015 0.27495 0.82642 0.0
C515 C 0.72429 0.31164 0.82434 0.0
C516 C 0.70815 0.24767 0.81859 0.0
C517 C 0.63852 0.22533 0.83527 0.0
C518 C 0.70823 0.22098 0.82852 0.0
C519 C 0.70663 0.19045 0.82012 0.0
C520 C 0.70531 0.18651 0.8017 0.0
C521 C 0.70921 0.21518 0.79198 0.0
C522 C 0.71051 0.24545 0.80036 0.0
H523 H 0.61162 0.2215 0.8382 0.0
H524 H 0.63533 0.20831 0.82319 0.0
H525 H 0.64786 0.21544 0.84627 0.0
H526 H 0.70712 0.22261 0.84265 0.0
H527 H 0.70371 0.16884 0.82797 0.0
H528 H 0.64174 1.01177 0.49322 0.0
H529 H 0.64256 0.95573 0.49715 0.0
H530 H 0.53086 0.90292 0.50967 0.0
H531 H 0.52963 0.95861 0.50551 0.0
H532 H 0.63177 0.91783 0.52606 0.0
H533 H 0.52822 0.8289 0.47411 0.0
H534 H 0.54785 0.8774 0.47552 0.0
H535 H 0.51237 0.85009 0.48943 0.0
C536 C 0.61715 0.98817 0.49661 0.0
C537 C 0.58554 0.98998 0.49889 0.0
C538 C 0.6177 0.95601 0.49891 0.0
C539 C 0.58664 0.92455 0.50346 0.0
C540 C 0.55503 0.92628 0.50574 0.0
H541 H 0.53989 0.70789 0.52927 0.0
H542 H 0.53749 0.76246 0.52348 0.0
C543 C 0.55443 0.95842 0.50343 0.0
C544 C 0.58781 0.89059 0.50649 0.0
H545 H 0.54763 0.80009 0.49399 0.0
C546 C 0.61348 0.89218 0.51893 0.0
C547 C 0.56392 0.85678 0.49734 0.0
C548 C 0.53675 0.85312 0.48323 0.0
C549 C 0.6155 0.8612 0.52268 0.0
C550 C 0.59168 0.82741 0.5135 0.0
C551 C 0.56595 0.82577 0.50108 0.0
C552 C 0.59305 0.7936 0.51663 0.0
C553 C 0.64259 0.86487 0.53684 0.0
C554 C 0.62481 0.79215 0.5144 0.0
C555 C 0.62636 0.76093 0.51782 0.0
C556 C 0.59608 0.72993 0.52346 0.0
C557 C 0.56401 0.73117 0.52524 0.0
C558 C 0.5625 0.76244 0.5218 0.0
H559 H 0.65123 0.8892 0.5459 0.0
H560 H 0.63136 0.84068 0.54462 0.0
H561 H 0.66694 0.86769 0.53068 0.0
H562 H 0.64862 0.81532 0.51006 0.0
H563 H 0.65171 0.76152 0.51642 0.0
H564 H 0.72455 0.63017 0.85125 0.0
H565 H 0.78138 0.63008 0.85516 0.0
H566 H 0.73574 0.52924 0.82371 0.0
H567 H 0.67882 0.52918 0.81962 0.0
H568 H 0.79433 0.57953 0.87044 0.0
H569 H 0.83137 0.59021 0.80111 0.0
H570 H 0.79697 0.59928 0.8087 0.0
H571 H 0.78717 0.55346 0.80473 0.0
C572 C 0.72655 0.60804 0.84501 0.0
C573 C 0.69686 0.57982 0.83498 0.0
C574 C 0.7592 0.60802 0.84731 0.0
C575 C 0.76333 0.57995 0.83955 0.0
C576 C 0.73376 0.55168 0.82955 0.0
H577 H 0.95031 0.545 0.84112 0.0
H578 H 0.89015 0.53795 0.83615 0.0
C579 C 0.70101 0.55162 0.82727 0.0
C580 C 0.79814 0.57987 0.84246 0.0
H581 H 0.86866 0.58175 0.82143 0.0
C582 C 0.81055 0.58006 0.8597 0.0
C583 C 0.8194 0.58019 0.8285 0.0
C584 C 0.80833 0.58107 0.80972 0.0
C585 C 0.84324 0.58049 0.86336 0.0
C586 C 0.86498 0.5817 0.84944 0.0
C587 C 0.85227 0.58086 0.83216 0.0
C588 C 0.90153 0.58538 0.85263 0.0
C589 C 0.85376 0.57897 0.88216 0.0
C590 C 0.92841 0.61447 0.86342 0.0
C591 C 0.96268 0.61838 0.8664 0.0
C592 C 0.97157 0.59362 0.85849 0.0
C593 C 0.94462 0.56447 0.84761 0.0
C594 C 0.91016 0.56054 0.84465 0.0
H595 H 0.82976 0.56627 0.89016 0.0
H596 H 0.8682 0.56356 0.88308 0.0
H597 H 0.87187 0.60689 0.88796 0.0
H598 H 0.92304 0.63454 0.86949 0.0
H599 H 0.98219 0.6409 0.87509 0.0
H600 H 0.25692 0.68942 0.16303 0.0
H601 H 0.31462 0.74624 0.16743 0.0
H602 H 0.2579 0.80418 0.17716 0.0
H603 H 0.20027 0.74751 0.17327 0.0
H604 H 0.34488 0.80736 0.15096 0.0
H605 H 0.32705 0.84163 0.21925 0.0
H606 H 0.29733 0.79798 0.20809 0.0
H607 H 0.29127 0.83589 0.20432 0.0
C608 C 0.25663 0.71421 0.16613 0.0
C609 C 0.22365 0.71355 0.16791 0.0
C610 C 0.2898 0.74683 0.16866 0.0
C611 C 0.29103 0.77976 0.17305 0.0
C612 C 0.25808 0.77926 0.17435 0.0
H613 H 0.46659 1.00584 0.19033 0.0
H614 H 0.40821 0.95009 0.18491 0.0
C615 C 0.22494 0.74666 0.17196 0.0
C616 C 0.32661 0.81453 0.17598 0.0
H617 H 0.37649 0.88768 0.20527 0.0
C618 C 0.35175 0.82475 0.1629 0.0
C619 C 0.33602 0.83758 0.19154 0.0
C620 C 0.31167 0.82759 0.20667 0.0
C621 C 0.38537 0.85724 0.1648 0.0
C622 C 0.39458 0.88033 0.18028 0.0
C623 C 0.36949 0.87025 0.19334 0.0
C624 C 0.43043 0.91455 0.18336 0.0
C625 C 0.41058 0.86693 0.15005 0.0
C626 C 0.46264 0.91345 0.18452 0.0
C627 C 0.49615 0.9453 0.18784 0.0
C628 C 0.49863 0.97943 0.19007 0.0
C629 C 0.46617 0.98036 0.18889 0.0
C630 C 0.43258 0.94838 0.18569 0.0
H631 H 0.39629 0.85142 0.13752 0.0
H632 H 0.42374 0.89627 0.14806 0.0
H633 H 0.43205 0.86055 0.1534 0.0
H634 H 0.46185 0.88776 0.18319 0.0
H635 H 0.52007 0.9429 0.1891 0.0
H636 H 0.54153 0.17239 0.48459 0.0
H637 H 0.54395 0.23087 0.48772 0.0
H638 H 0.63594 0.27128 0.52457 0.0
H639 H 0.63434 0.21352 0.52115 0.0
H640 H 0.53615 0.26705 0.51487 0.0
H641 H 0.67401 0.35249 0.49311 0.0
H642 H 0.6509 0.30379 0.49042 0.0
H643 H 0.67371 0.32707 0.51112 0.0
C644 C 0.56247 0.19379 0.49327 0.0
C645 C 0.58784 0.188 0.50253 0.0
C646 C 0.5638 0.22734 0.49508 0.0
C647 C 0.59059 0.25615 0.50613 0.0
C648 C 0.61561 0.25019 0.51555 0.0
H649 H 0.63988 0.46964 0.54665 0.0
H650 H 0.6361 0.41167 0.5393 0.0
C651 C 0.61444 0.2168 0.51368 0.0
C652 C 0.5917 0.29189 0.50829 0.0
H653 H 0.64779 0.38361 0.50782 0.0
C654 C 0.56049 0.29246 0.51312 0.0
C655 C 0.62335 0.3254 0.506 0.0
C656 C 0.65725 0.32722 0.4997 0.0
C657 C 0.56042 0.32522 0.5163 0.0
C658 C 0.5923 0.35869 0.51443 0.0
C659 C 0.62332 0.35814 0.50933 0.0
C660 C 0.59452 0.39452 0.51848 0.0
C661 C 0.52647 0.32377 0.52224 0.0
C662 C 0.57287 0.40496 0.50908 0.0
C663 C 0.57495 0.43842 0.51329 0.0
C664 C 0.59861 0.46224 0.52709 0.0
C665 C 0.62074 0.4519 0.53619 0.0
C666 C 0.61882 0.4187 0.53191 0.0
H667 H 0.50694 0.2968 0.52668 0.0
H668 H 0.53287 0.34456 0.53312 0.0
H669 H 0.51319 0.32941 0.51115 0.0
H670 H 0.55433 0.38724 0.49843 0.0
H671 H 0.55751 0.44529 0.50595 0.0
H672 H 0.51722 0.62719 0.83671 0.0
H673 H 0.46047 0.62569 0.84115 0.0
H674 H 0.40363 0.5092 0.83514 0.0
H675 H 0.46091 0.51056 0.83126 0.0
H676 H 0.40095 0.60301 0.82142 0.0
H677 H 0.36456 0.52292 0.8799 0.0
H678 H 0.40835 0.54098 0.871 0.0
H679 H 0.37045 0.49994 0.86119 0.0
C680 C 0.4928 0.60114 0.83634 0.0
C681 C 0.49409 0.56901 0.8337 0.0
C682 C 0.4601 0.60034 0.83888 0.0
C683 C 0.42741 0.56734 0.83883 0.0
C684 C 0.42837 0.53511 0.83576 0.0
H685 H 0.21711 0.55987 0.83059 0.0
H686 H 0.27057 0.5553 0.82445 0.0
C687 C 0.46126 0.53591 0.83336 0.0
C688 C 0.39268 0.5671 0.84182 0.0
H689 H 0.32025 0.53458 0.86768 0.0
C690 C 0.38334 0.58796 0.83154 0.0
C691 C 0.36967 0.54805 0.85521 0.0
C692 C 0.37887 0.52701 0.86758 0.0
C693 C 0.35203 0.59026 0.83419 0.0
C694 C 0.32845 0.57035 0.84722 0.0
C695 C 0.33784 0.54956 0.85754 0.0
C696 C 0.29486 0.57191 0.85091 0.0
C697 C 0.34533 0.61512 0.82335 0.0
C698 C 0.28952 0.58146 0.86795 0.0
C699 C 0.25866 0.58365 0.87154 0.0
C700 C 0.23202 0.57633 0.8582 0.0
C701 C 0.23712 0.56623 0.84118 0.0
C702 C 0.26792 0.56376 0.83762 0.0
H703 H 0.37051 0.63593 0.81783 0.0
H704 H 0.32576 0.59903 0.81221 0.0
H705 H 0.33395 0.62906 0.83125 0.0
H706 H 0.30964 0.5879 0.87851 0.0
H707 H 0.25618 0.59202 0.88477 0.0
H708 H 1.05154 0.48401 0.17341 0.0
H709 H 0.99535 0.42844 0.17813 0.0
H710 H 0.93519 0.48257 0.16903 0.0
H711 H 0.99124 0.5383 0.16404 0.0
H712 H 0.94683 0.41399 0.20267 0.0
H713 H 0.87649 0.39264 0.13755 0.0
H714 H 0.92382 0.42521 0.1418 0.0
H715 H 0.89009 0.43585 0.14854 0.0
C716 C 1.02639 0.48419 0.17224 0.0
C717 C 1.02624 0.51591 0.16818 0.0
C718 C 0.99412 0.45223 0.175 0.0
C719 C 0.9606 0.45082 0.1737 0.0
C720 C 0.96038 0.48248 0.16972 0.0
H721 H 0.73804 0.2768 0.18935 0.0
H722 H 0.79172 0.33472 0.18425 0.0
C723 C 0.99265 0.51451 0.16695 0.0
C724 C 0.9263 0.4167 0.17713 0.0
H725 H 0.84197 0.35419 0.15935 0.0
C726 C 0.92403 0.40092 0.19312 0.0
C727 C 0.89605 0.39949 0.16485 0.0
C728 C 0.89673 0.41394 0.14716 0.0
C729 C 0.89274 0.36894 0.19719 0.0
C730 C 0.86275 0.35135 0.18479 0.0
C731 C 0.86476 0.36739 0.1689 0.0
C732 C 0.82968 0.31588 0.18788 0.0
C733 C 0.89195 0.35476 0.21497 0.0
C734 C 0.8326 0.28547 0.1914 0.0
C735 C 0.80197 0.25237 0.19446 0.0
C736 C 0.76715 0.24828 0.19389 0.0
C737 C 0.7642 0.2787 0.19014 0.0
C738 C 0.79499 0.31193 0.18708 0.0
H739 H 0.91123 0.37654 0.22468 0.0
H740 H 0.86452 0.34241 0.22002 0.0
H741 H 0.89994 0.3338 0.21387 0.0
H742 H 0.85871 0.28724 0.19175 0.0
H743 H 0.80583 0.23006 0.19753 0.0
H744 H 0.11494 0.56491 0.10514 0.0
H745 H 0.11388 0.5664 0.0733 0.0
H746 H 0.11177 0.6661 0.07774 0.0
H747 H 0.11358 0.66524 0.10977 0.0
H748 H 1.06438 0.56548 0.05 0.0
H749 H 0.19583 0.69209 0.04689 0.0
H750 H 0.18174 0.66861 0.0667 0.0
H751 H 0.16423 0.69689 0.06005 0.0
C752 C 0.11427 0.58724 0.09941 0.0
C753 C 0.11455 0.61509 0.11008 0.0
C754 C 0.11363 0.58801 0.08115 0.0
C755 C 0.11329 0.61662 0.07309 0.0
C756 C 0.11283 0.64414 0.08365 0.0
H757 H 1.06346 0.61077 0.96064 0.0
H758 H 1.06144 0.611 0.99259 0.0
C759 C 0.11364 0.64349 0.10198 0.0
C760 C 0.11322 0.61723 0.05363 0.0
H761 H 0.16112 0.66632 0.02009 0.0
C762 C 0.0855 0.58757 0.04346 0.0
C763 C 0.14106 0.6458 0.04507 0.0
C764 C 0.17261 0.67752 0.0552 0.0
C765 C 0.08481 0.58571 0.02504 0.0
C766 C 0.1122 0.61466 0.01648 0.0
C767 C 0.13996 0.64428 0.02664 0.0
C768 C 0.11315 0.61432 0.99703 0.0
C769 C 1.05528 0.55227 0.01493 0.0
C770 C 0.14321 0.61688 0.98885 0.0
C771 C 0.1445 0.61689 0.97058 0.0
C772 C 0.11578 0.61445 0.96006 0.0
C773 C 0.08575 0.61202 0.9683 0.0
C774 C 0.08454 0.61215 0.98659 0.0
H775 H 1.04239 0.52901 0.02329 0.0
H776 H 1.03408 0.55784 0.00999 0.0
H777 H 1.06592 0.54442 0.0035 0.0
H778 H 0.16562 0.6186 0.99661 0.0
H779 H 0.16788 0.61843 0.96468 0.0
H780 H 0.54322 0.06292 0.43672 0.0
H781 H 0.55178 0.06885 0.40528 0.0
H782 H 0.66398 0.14858 0.41642 0.0
H783 H 0.65579 0.14296 0.4479 0.0
H784 H 0.57969 0.13496 0.38618 0.0
H785 H 0.66384 0.06981 0.38168 0.0
H786 H 0.6356 0.06417 0.39975 0.0
H787 H 0.67763 0.10556 0.39861 0.0
C788 C 0.56976 0.08176 0.43253 0.0
C789 C 0.59884 0.10236 0.4449 0.0
C790 C 0.57456 0.08514 0.41453 0.0
C791 C 0.60859 0.10885 0.40851 0.0
C792 C 0.63759 0.12977 0.42078 0.0
H793 H 0.68853 0.14719 0.30329 0.0
H794 H 0.68267 0.14871 0.33499 0.0
C795 C 0.63278 0.12662 0.43879 0.0
C796 C 0.61365 0.11168 0.38937 0.0
H797 H 0.65489 0.09349 0.35602 0.0
C798 C 0.59611 0.1259 0.37955 0.0
C799 C 0.63527 0.10005 0.3808 0.0
C800 C 0.65403 0.08378 0.39066 0.0
C801 C 0.59984 0.12911 0.3614 0.0
C802 C 0.62093 0.11683 0.35272 0.0
C803 C 0.63873 0.1029 0.36262 0.0
C804 C 0.62429 0.11742 0.33336 0.0
C805 C 0.58174 0.14634 0.35179 0.0
C806 C 0.59348 0.09928 0.32181 0.0
C807 C 0.59671 0.09879 0.30365 0.0
C808 C 0.63089 0.11601 0.29655 0.0
C809 C 0.66174 0.13416 0.30819 0.0
C810 C 0.65846 0.13479 0.32636 0.0
H811 H 0.57672 0.16424 0.36083 0.0
H812 H 0.59829 0.16246 0.34118 0.0
H813 H 0.55523 0.12483 0.34584 0.0
H814 H 0.56684 0.08495 0.32683 0.0
H815 H 0.5723 0.08482 0.29516 0.0
H816 H 0.57329 0.53899 0.77056 0.0
H817 H 0.57912 0.54795 0.73934 0.0
H818 H 0.6414 0.66348 0.75098 0.0
H819 H 0.63714 0.65442 0.78247 0.0
H820 H 0.55574 0.57798 0.71867 0.0
H821 H 0.70485 0.65271 0.71745 0.0
H822 H 0.68197 0.63168 0.73665 0.0
H823 H 0.68848 0.67518 0.73164 0.0
C824 C 0.58843 0.56636 0.76651 0.0
C825 C 0.60485 0.59602 0.77902 0.0
C826 C 0.59173 0.57146 0.7486 0.0
C827 C 0.61114 0.60638 0.74266 0.0
C828 C 0.62717 0.63618 0.75514 0.0
H829 H 0.57995 0.63608 0.63163 0.0
H830 H 0.57797 0.63544 0.66362 0.0
C831 C 0.62449 0.63102 0.77316 0.0
C832 C 0.61339 0.61106 0.7234 0.0
H833 H 0.67213 0.64874 0.6911 0.0
C834 C 0.58126 0.59341 0.71267 0.0
C835 C 0.64665 0.63079 0.71542 0.0
C836 C 0.68245 0.64835 0.72585 0.0
C837 C 0.5814 0.59449 0.69432 0.0
C838 C 0.61453 0.61521 0.68639 0.0
C839 C 0.64666 0.63314 0.69712 0.0
C840 C 0.61669 0.61736 0.66697 0.0
C841 C 0.54606 0.57213 0.68368 0.0
C842 C 0.6403 0.6091 0.65815 0.0
C843 C 0.64216 0.61044 0.63993 0.0
C844 C 0.62015 0.61968 0.63009 0.0
C845 C 0.59682 0.62835 0.63888 0.0
C846 C 0.59551 0.62774 0.65716 0.0
H847 H 0.52596 0.54967 0.69106 0.0
H848 H 0.53459 0.58953 0.68054 0.0
H849 H 0.54983 0.5604 0.67121 0.0
H850 H 0.65702 0.6011 0.66534 0.0
H851 H 0.66029 0.60351 0.63348 0.0
H852 H 0.61771 0.05409 0.55212 0.0
H853 H 0.6114 1.04067 0.58292 0.0
H854 H 0.52536 0.06502 0.58535 0.0
H855 H 0.53118 0.07829 0.55432 0.0
H856 H 0.58916 0.10178 0.61268 0.0
H857 H 0.52249 0.95191 0.60495 0.0
H858 H 0.5598 0.97645 0.59145 0.0
H859 H 0.51929 0.97854 0.58807 0.0
C860 C 0.59732 0.05652 0.55914 0.0
C861 C 0.57502 0.0674 0.55081 0.0
C862 C 0.59364 0.04861 0.5767 0.0
C863 C 0.56773 0.05158 0.58627 0.0
C864 C 0.54533 0.06238 0.57807 0.0
H865 H 0.56052 0.04853 0.70092 0.0
H866 H 0.54565 0.05257 0.67034 0.0
C867 C 0.54873 0.06994 0.56039 0.0
C868 C 0.56572 1.04516 0.6051 0.0
H869 H 0.54792 0.97972 0.63337 0.0
C870 C 0.57961 0.07509 0.61731 0.0
C871 C 0.55345 1.0103 0.61092 0.0
C872 C 0.53763 0.97732 0.59821 0.0
C873 C 0.5833 0.07132 0.63526 0.0
C874 C 0.57182 1.03647 0.6411 0.0
C875 C 0.55666 1.00637 0.62887 0.0
C876 C 0.57781 1.03105 0.65961 0.0
C877 C 0.60126 0.1049 0.64763 0.0
C878 C 0.5994 1.016 0.6637 0.0
C879 C 0.60731 1.0129 0.68114 0.0
C880 C 0.59389 1.02492 0.69487 0.0
C881 C 0.57118 1.03882 0.6907 0.0
C882 C 0.56302 1.04161 0.67322 0.0
H883 H 0.61606 0.12986 0.64052 0.0
H884 H 0.58036 0.10699 0.655 0.0
H885 H 0.62051 0.10376 0.65723 0.0
H886 H 0.61085 1.00739 0.65338 0.0
H887 H 0.62423 1.00136 0.68385 0.0
H888 H 0.5919 0.50167 0.87698 0.0
H889 H 0.57528 0.47799 0.90569 0.0
H890 H 0.55219 0.56249 0.92036 0.0
H891 H 0.56902 0.58676 0.89147 0.0
H892 H 0.59311 0.54865 0.94669 0.0
H893 H 0.46935 0.42395 0.92034 0.0
H894 H 0.5092 0.43268 0.9094 0.0
H895 H 0.49241 0.46352 0.90801 0.0
C896 C 0.58344 0.51542 0.88628 0.0
C897 C 0.58149 0.54597 0.88187 0.0
C898 C 0.5738 0.50171 0.90267 0.0
C899 C 0.5619 0.5181 0.91498 0.0
C900 C 0.56107 0.54933 0.91094 0.0
H901 H 0.45775 0.40601 0.00757 0.0
H902 H 0.47123 0.44022 0.98134 0.0
C903 C 0.5707 0.56313 0.89446 0.0
C904 C 0.55011 0.5021 0.93198 0.0
H905 H 0.49022 0.42383 0.9496 0.0
C906 C 0.57037 0.52154 0.94741 0.0
C907 C 0.5201 0.46696 0.93285 0.0
C908 C 0.49625 0.44564 0.9168 0.0
C909 C 0.56237 0.50601 0.96364 0.0
C910 C 0.5337 0.47002 0.96433 0.0
C911 C 0.51244 0.45127 0.94901 0.0
C912 C 0.52609 0.45073 0.98064 0.0
C913 C 0.58477 0.52821 0.97987 0.0
C914 C 0.5523 0.44491 0.9888 0.0
C915 C 0.54473 0.4255 0.00379 0.0
C916 C 0.51068 0.41129 0.01086 0.0
C917 C 0.48437 0.41696 0.00258 0.0
C918 C 0.49198 0.43638 0.98756 0.0
H919 H 0.59793 0.55766 0.97809 0.0
H920 H 0.56804 0.52212 0.99143 0.0
H921 H 0.60635 0.52168 0.98265 0.0
H922 H 0.57854 0.45507 0.98345 0.0
H923 H 0.56572 0.42196 0.00995 0.0
H924 H 0.09926 0.62678 0.22431 0.0
H925 H 0.10518 0.61973 0.25564 0.0
H926 H 0.18293 0.58617 0.24526 0.0
H927 H 0.17823 0.59444 0.21423 0.0
H928 H 0.08962 0.56139 0.27181 0.0
H929 H 0.23483 0.65862 0.28551 0.0
H930 H 0.21099 0.65727 0.26542 0.0
H931 H 0.22813 0.62676 0.26771 0.0
C932 C 0.11794 0.61835 0.22877 0.0
C933 C 0.13849 0.61146 0.21683 0.0
C934 C 0.1213 0.61433 0.24665 0.0
C935 C 0.14509 0.60317 0.25286 0.0
C936 C 0.16533 0.59599 0.2409 0.0
H937 H 0.12737 0.48835 0.34483 0.0
H938 H 0.12417 0.50783 0.31558 0.0
C939 C 0.16239 0.60048 0.22311 0.0
C940 C 0.14719 0.59672 0.27163 0.0
H941 H 0.20682 0.6126 0.30606 0.0
C942 C 0.1152 0.57299 0.27938 0.0
C943 C 0.18046 0.61239 0.28165 0.0
C944 C 0.21545 0.64048 0.27468 0.0
C945 C 0.11573 0.56332 0.29661 0.0
C946 C 0.14931 0.57677 0.30613 0.0
C947 C 0.18113 0.60171 0.29865 0.0
C948 C 0.15209 0.56498 0.32375 0.0
C949 C 0.08024 0.53901 0.30443 0.0
C950 C 0.17039 0.59067 0.33789 0.0
C951 C 0.17299 0.5796 0.3545 0.0
C952 C 0.15712 0.54264 0.35726 0.0
C953 C 0.13943 0.51699 0.34305 0.0
C954 C 0.13732 0.52809 0.3264 0.0
H955 H 1.05789 0.54132 0.2981 0.0
H956 H 0.07357 0.51047 0.30224 0.0
H957 H 0.08151 0.54552 0.31875 0.0
H958 H 0.18221 0.61929 0.33613 0.0
H959 H 0.18656 0.59987 0.36529 0.0
loop_
_geom_bond_atom_site_label_1
_geom_bond_atom_site_label_2
_geom_bond_distance
_geom_bond_site_symmetry_2
_ccdc_geom_bond_type
Tb0 C9 2.764 1_455 S
Tb0 O10 2.325 1_455 S
Tb0 O13 2.303 . S
Tb0 O17 2.322 . S
Tb0 O18 2.349 . S
Tb0 O21 2.415 1_455 S
Tb0 O22 2.399 1_455 S
Tb1 O11 2.322 . S
Tb1 O12 2.349 . S
Tb1 O14 2.415 . S
Tb1 O15 2.399 . S
Tb1 O16 2.325 . S
Tb1 O19 2.303 . S
Tb1 C30 2.764 . S
C2 O18 1.261 . S
C2 O19 1.257 . S
C3 C6 1.358 . S
C3 C7 1.332 . S
C3 C9 1.504 . S
C4 C5 1.373 . S
C4 C8 1.308 . S
C5 C4 1.373 . S
C5 C6 1.429 . S
C5 H32 0.932 . S
C6 C3 1.358 . S
C6 C5 1.429 . S
C6 H33 0.930 . S
C7 C3 1.332 . S
C7 C8 1.394 . S
C7 H34 0.932 . S
C8 C4 1.308 . S
C8 C7 1.394 . S
C8 H35 0.929 . S
C9 Tb0 2.764 1_655 S
C9 C3 1.504 . S
C9 O21 1.239 . S
C9 O22 1.263 . S
O10 Tb0 2.325 1_655 S
O10 C20 1.236 . S
O11 Tb1 2.322 . S
O11 C20 1.257 1_455 S
O12 Tb1 2.349 . S
O12 C23 1.261 . S
O13 Tb0 2.303 . S
O13 C23 1.257 . S
O14 Tb1 2.415 . S
O14 C30 1.239 . S
O15 Tb1 2.399 . S
O15 C30 1.263 . S
O16 Tb1 2.325 . S
O16 C31 1.236 . S
O17 Tb0 2.322 . S
O17 C31 1.257 . S
O18 Tb0 2.349 . S
O18 C2 1.261 . S
O19 Tb1 2.303 . S
O19 C2 1.257 . S
C20 O10 1.236 . S
C20 O11 1.257 1_655 S
O21 Tb0 2.415 1_655 S
O21 C9 1.239 . S
O22 Tb0 2.399 1_655 S
O22 C9 1.263 . S
C23 O12 1.261 . S
C23 O13 1.257 . S
C24 C27 1.358 . S
C24 C28 1.332 . S
C24 C30 1.504 . S
C25 C26 1.373 . S
C25 C29 1.308 . S
C26 C25 1.373 . S
C26 C27 1.429 . S
C26 H36 0.932 . S
C27 C24 1.358 . S
C27 C26 1.429 . S
C27 H37 0.930 . S
C28 C24 1.332 . S
C28 C29 1.394 . S
C28 H38 0.932 . S
C29 C25 1.308 . S
C29 C28 1.394 . S
C29 H39 0.929 . S
C30 Tb1 2.764 . S
C30 O14 1.239 . S
C30 O15 1.263 . S
C30 C24 1.504 . S
C31 O16 1.236 . S
C31 O17 1.257 . S
H32 C5 0.932 . S
H33 C6 0.930 . S
H34 C7 0.932 . S
H35 C8 0.929 . S
H36 C26 0.932 . S
H37 C27 0.930 . S
H38 C28 0.932 . S
H39 C29 0.929 . S
Tb40 C49 2.764 1_545 S
Tb40 O50 2.325 1_545 S
Tb40 O53 2.303 . S
Tb40 O57 2.322 . S
Tb40 O58 2.349 . S
Tb40 O61 2.415 1_545 S
Tb40 O62 2.399 1_545 S
Tb41 O51 2.322 1_545 S
Tb41 O52 2.349 . S
Tb41 O54 2.415 . S
Tb41 O55 2.399 . S
Tb41 O56 2.325 . S
Tb41 O59 2.303 . S
Tb41 C70 2.764 . S
C42 O58 1.261 . S
C42 O59 1.257 . S
C43 C46 1.358 . S
C43 C47 1.332 . S
C43 C49 1.504 . S
C44 C45 1.373 . S
C44 C48 1.308 . S
C45 C44 1.373 . S
C45 C46 1.429 . S
C45 H72 0.932 . S
C46 C43 1.358 . S
C46 C45 1.429 . S
C46 H73 0.930 . S
C47 C43 1.332 . S
C47 C48 1.394 . S
C47 H74 0.932 . S
C48 C44 1.308 . S
C48 C47 1.394 . S
C48 H75 0.929 . S
C49 Tb40 2.764 1_565 S
C49 C43 1.504 . S
C49 O61 1.239 . S
C49 O62 1.263 . S
O50 Tb40 2.325 1_565 S
O50 C60 1.236 . S
O51 Tb41 2.322 1_565 S
O51 C60 1.257 . S
O52 Tb41 2.349 . S
O52 C63 1.261 . S
O53 Tb40 2.303 . S
O53 C63 1.257 . S
O54 Tb41 2.415 . S
O54 C70 1.239 . S
O55 Tb41 2.399 . S
O55 C70 1.263 . S
O56 Tb41 2.325 . S
O56 C71 1.236 . S
O57 Tb40 2.322 . S
O57 C71 1.257 . S
O58 Tb40 2.349 . S
O58 C42 1.261 . S
O59 Tb41 2.303 . S
O59 C42 1.257 . S
C60 O50 1.236 . S
C60 O51 1.257 . S
O61 Tb40 2.415 1_565 S
O61 C49 1.239 . S
O62 Tb40 2.399 1_565 S
O62 C49 1.263 . S
C63 O52 1.261 . S
C63 O53 1.257 . S
C64 C67 1.358 . S
C64 C68 1.332 . S
C64 C70 1.504 . S
C65 C66 1.373 . S
C65 C69 1.308 . S
C66 C65 1.373 . S
C66 C67 1.429 . S
C66 H76 0.932 . S
C67 C64 1.358 . S
C67 C66 1.429 . S
C67 H77 0.930 . S
C68 C64 1.332 . S
C68 C69 1.394 . S
C68 H78 0.932 . S
C69 C65 1.308 . S
C69 C68 1.394 . S
C69 H79 0.929 . S
C70 Tb41 2.764 . S
C70 O54 1.239 . S
C70 O55 1.263 . S
C70 C64 1.504 . S
C71 O56 1.236 . S
C71 O57 1.257 . S
H72 C45 0.932 . S
H73 C46 0.930 . S
H74 C47 0.932 . S
H75 C48 0.929 . S
H76 C66 0.932 . S
H77 C67 0.930 . S
H78 C68 0.932 . S
H79 C69 0.929 . S
Tb80 C89 2.764 . S
Tb80 O90 2.325 . S
Tb80 O93 2.303 . S
Tb80 O97 2.322 . S
Tb80 O98 2.349 . S
Tb80 O101 2.415 . S
Tb80 O102 2.399 . S
Tb81 O91 2.322 . S
Tb81 O92 2.349 . S
Tb81 O94 2.415 . S
Tb81 O95 2.399 . S
Tb81 O96 2.325 . S
Tb81 O99 2.303 . S
Tb81 C110 2.764 . S
C82 O98 1.261 . S
C82 O99 1.257 . S
C83 C86 1.358 . S
C83 C87 1.332 . S
C83 C89 1.504 . S
C84 C85 1.373 . S
C84 C88 1.308 . S
C85 C84 1.373 . S
C85 C86 1.429 . S
C85 H112 0.932 . S
C86 C83 1.358 . S
C86 C85 1.429 . S
C86 H113 0.930 . S
C87 C83 1.332 . S
C87 C88 1.394 . S
C87 H114 0.932 . S
C88 C84 1.308 . S
C88 C87 1.394 . S
C88 H115 0.929 . S
C89 Tb80 2.764 . S
C89 C83 1.504 . S
C89 O101 1.239 . S
C89 O102 1.263 . S
O90 Tb80 2.325 . S
O90 C100 1.236 . S
O91 Tb81 2.322 . S
O91 C100 1.257 . S
O92 Tb81 2.349 . S
O92 C103 1.261 . S
O93 Tb80 2.303 . S
O93 C103 1.257 . S
O94 Tb81 2.415 . S
O94 C110 1.239 . S
O95 Tb81 2.399 . S
O95 C110 1.263 . S
O96 Tb81 2.325 . S
O96 C111 1.236 . S
O97 Tb80 2.322 . S
O97 C111 1.257 . S
O98 Tb80 2.349 . S
O98 C82 1.261 . S
O99 Tb81 2.303 . S
O99 C82 1.257 . S
C100 O90 1.236 . S
C100 O91 1.257 . S
O101 Tb80 2.415 . S
O101 C89 1.239 . S
O102 Tb80 2.399 . S
O102 C89 1.263 . S
C103 O92 1.261 . S
C103 O93 1.257 . S
C104 C107 1.358 . S
C104 C108 1.332 . S
C104 C110 1.504 . S
C105 C106 1.373 . S
C105 C109 1.308 . S
C106 C105 1.373 . S
C106 C107 1.429 . S
C106 H116 0.932 . S
C107 C104 1.358 . S
C107 C106 1.429 . S
C107 H117 0.930 . S
C108 C104 1.332 . S
C108 C109 1.394 . S
C108 H118 0.932 . S
C109 C105 1.308 . S
C109 C108 1.394 . S
C109 H119 0.929 . S
C110 Tb81 2.764 . S
C110 O94 1.239 . S
C110 O95 1.263 . S
C110 C104 1.504 . S
C111 O96 1.236 . S
C111 O97 1.257 . S
H112 C85 0.932 . S
H113 C86 0.930 . S
H114 C87 0.932 . S
H115 C88 0.929 . S
H116 C106 0.932 . S
H117 C107 0.930 . S
H118 C108 0.932 . S
H119 C109 0.929 . S
P120 O131 1.490 1_545 S
P120 C134 1.812 1_545 S
P120 C140 1.803 . S
P120 C146 1.819 . S
H121 C135 0.941 . S
H122 C136 0.939 . S
H123 C138 0.940 . S
H124 C139 0.940 1_545 S
H125 C141 0.939 . S
H126 C142 0.942 . S
H127 C144 0.940 . S
H128 C145 0.939 . S
H129 C147 0.941 . S
H130 C151 0.939 . S
O131 P120 1.490 1_565 S
H132 C148 0.939 . S
H133 C150 0.940 . S
C134 P120 1.812 1_565 S
C134 C135 1.389 . S
C134 C139 1.391 . S
C135 H121 0.941 . S
C135 C134 1.389 . S
C135 C136 1.397 . S
C136 H122 0.939 . S
C136 C135 1.397 . S
C136 C137 1.378 . S
C137 C136 1.378 . S
C137 C138 1.378 . S
C138 H123 0.940 . S
C138 C137 1.378 . S
C138 C139 1.396 . S
C139 H124 0.940 1_565 S
C139 C134 1.391 . S
C139 C138 1.396 . S
C140 P120 1.803 . S
C140 C141 1.378 . S
C140 C145 1.400 . S
C141 H125 0.939 . S
C141 C140 1.378 . S
C141 C142 1.361 . S
C142 H126 0.942 . S
C142 C141 1.361 . S
C142 C143 1.369 . S
C143 C142 1.369 . S
C143 C144 1.404 . S
C144 H127 0.940 . S
C144 C143 1.404 . S
C144 C145 1.389 . S
C145 H128 0.939 . S
C145 C140 1.400 . S
C145 C144 1.389 . S
C146 P120 1.819 . S
C146 C147 1.391 1_545 S
C146 C151 1.391 . S
C147 H129 0.941 . S
C147 C146 1.391 1_565 S
C147 C148 1.396 . S
C148 H132 0.939 . S
C148 C147 1.396 . S
C148 C149 1.397 1_565 S
C149 C148 1.397 1_545 S
C149 C150 1.385 . S
C150 H133 0.940 . S
C150 C149 1.385 . S
C150 C151 1.388 . S
C151 H130 0.939 . S
C151 C146 1.391 . S
C151 C150 1.388 . S
P152 O163 1.490 . S
P152 C166 1.812 . S
P152 C172 1.803 . S
P152 C178 1.819 . S
H153 C167 0.941 . S
H154 C168 0.939 . S
H155 C170 0.940 . S
H156 C171 0.940 . S
H157 C173 0.939 . S
H158 C174 0.942 . S
H159 C176 0.940 . S
H160 C177 0.939 . S
H161 C179 0.941 . S
H162 C183 0.939 . S
O163 P152 1.490 . S
H164 C180 0.939 . S
H165 C182 0.940 . S
C166 P152 1.812 . S
C166 C167 1.389 . S
C166 C171 1.391 . S
C167 H153 0.941 . S
C167 C166 1.389 . S
C167 C168 1.397 . S
C168 H154 0.939 . S
C168 C167 1.397 . S
C168 C169 1.378 . S
C169 C168 1.378 . S
C169 C170 1.378 . S
C170 H155 0.940 . S
C170 C169 1.378 . S
C170 C171 1.396 . S
C171 H156 0.940 . S
C171 C166 1.391 . S
C171 C170 1.396 . S
C172 P152 1.803 . S
C172 C173 1.378 . S
C172 C177 1.400 . S
C173 H157 0.939 . S
C173 C172 1.378 . S
C173 C174 1.361 . S
C174 H158 0.942 . S
C174 C173 1.361 . S
C174 C175 1.369 . S
C175 C174 1.369 . S
C175 C176 1.404 . S
C176 H159 0.940 . S
C176 C175 1.404 . S
C176 C177 1.389 . S
C177 H160 0.939 . S
C177 C172 1.400 . S
C177 C176 1.389 . S
C178 P152 1.819 . S
C178 C179 1.391 . S
C178 C183 1.391 . S
C179 H161 0.941 . S
C179 C178 1.391 . S
C179 C180 1.396 . S
C180 H164 0.939 . S
C180 C179 1.396 . S
C180 C181 1.397 . S
C181 C180 1.397 . S
C181 C182 1.385 . S
C182 H165 0.940 . S
C182 C181 1.385 . S
C182 C183 1.388 . S
C183 H162 0.939 . S
C183 C178 1.391 . S
C183 C182 1.388 . S
P184 O195 1.490 . S
P184 C198 1.812 . S
P184 C204 1.803 . S
P184 C210 1.819 . S
H185 C199 0.941 . S
H186 C200 0.939 . S
H187 C202 0.940 . S
H188 C203 0.940 . S
H189 C205 0.939 . S
H190 C206 0.942 . S
H191 C208 0.940 . S
H192 C209 0.939 . S
H193 C211 0.941 . S
H194 C215 0.939 . S
O195 P184 1.490 . S
H196 C212 0.939 . S
H197 C214 0.940 . S
C198 P184 1.812 . S
C198 C199 1.389 . S
C198 C203 1.391 . S
C199 H185 0.941 . S
C199 C198 1.389 . S
C199 C200 1.397 . S
C200 H186 0.939 . S
C200 C199 1.397 . S
C200 C201 1.378 . S
C201 C200 1.378 . S
C201 C202 1.378 . S
C202 H187 0.940 . S
C202 C201 1.378 . S
C202 C203 1.396 . S
C203 H188 0.940 . S
C203 C198 1.391 . S
C203 C202 1.396 . S
C204 P184 1.803 . S
C204 C205 1.378 . S
C204 C209 1.400 . S
C205 H189 0.939 . S
C205 C204 1.378 . S
C205 C206 1.361 1_455 S
C206 H190 0.942 . S
C206 C205 1.361 1_655 S
C206 C207 1.369 . S
C207 C206 1.369 . S
C207 C208 1.404 . S
C208 H191 0.940 . S
C208 C207 1.404 . S
C208 C209 1.389 1_655 S
C209 H192 0.939 . S
C209 C204 1.400 . S
C209 C208 1.389 1_455 S
C210 P184 1.819 . S
C210 C211 1.391 . S
C210 C215 1.391 . S
C211 H193 0.941 . S
C211 C210 1.391 . S
C211 C212 1.396 . S
C212 H196 0.939 . S
C212 C211 1.396 . S
C212 C213 1.397 . S
C213 C212 1.397 . S
C213 C214 1.385 . S
C214 H197 0.940 . S
C214 C213 1.385 . S
C214 C215 1.388 . S
C215 H194 0.939 . S
C215 C210 1.391 . S
C215 C214 1.388 . S
P216 O227 1.490 . S
P216 C230 1.812 . S
P216 C236 1.803 1_455 S
P216 C242 1.819 . S
H217 C231 0.941 . S
H218 C232 0.939 . S
H219 C234 0.940 . S
H220 C235 0.940 . S
H221 C237 0.939 . S
H222 C238 0.942 . S
H223 C240 0.940 . S
H224 C241 0.939 . S
H225 C243 0.941 . S
H226 C247 0.939 . S
O227 P216 1.490 . S
H228 C244 0.939 . S
H229 C246 0.940 . S
C230 P216 1.812 . S
C230 C231 1.389 . S
C230 C235 1.391 . S
C231 H217 0.941 . S
C231 C230 1.389 . S
C231 C232 1.397 . S
C232 H218 0.939 . S
C232 C231 1.397 . S
C232 C233 1.378 . S
C233 C232 1.378 . S
C233 C234 1.378 . S
C234 H219 0.940 . S
C234 C233 1.378 . S
C234 C235 1.396 . S
C235 H220 0.940 . S
C235 C230 1.391 . S
C235 C234 1.396 . S
C236 P216 1.803 1_655 S
C236 C237 1.378 . S
C236 C241 1.400 . S
C237 H221 0.939 . S
C237 C236 1.378 . S
C237 C238 1.361 . S
C238 H222 0.942 . S
C238 C237 1.361 . S
C238 C239 1.369 . S
C239 C238 1.369 . S
C239 C240 1.404 . S
C240 H223 0.940 . S
C240 C239 1.404 . S
C240 C241 1.389 . S
C241 H224 0.939 . S
C241 C236 1.400 . S
C241 C240 1.389 . S
C242 P216 1.819 . S
C242 C243 1.391 . S
C242 C247 1.391 1_455 S
C243 H225 0.941 . S
C243 C242 1.391 . S
C243 C244 1.396 . S
C244 H228 0.939 . S
C244 C243 1.396 . S
C244 C245 1.397 . S
C245 C244 1.397 . S
C245 C246 1.385 1_455 S
C246 H229 0.940 . S
C246 C245 1.385 1_655 S
C246 C247 1.388 . S
C247 H226 0.939 . S
C247 C242 1.391 1_655 S
C247 C246 1.388 . S
P248 O259 1.490 . S
P248 C262 1.812 . S
P248 C268 1.803 1_545 S
P248 C274 1.819 . S
H249 C263 0.941 . S
H250 C264 0.939 . S
H251 C266 0.940 . S
H252 C267 0.940 . S
H253 C269 0.939 . S
H254 C270 0.942 . S
H255 C272 0.940 . S
H256 C273 0.939 . S
H257 C275 0.941 . S
H258 C279 0.939 . S
O259 P248 1.490 . S
H260 C276 0.939 . S
H261 C278 0.940 . S
C262 P248 1.812 . S
C262 C263 1.389 . S
C262 C267 1.391 . S
C263 H249 0.941 . S
C263 C262 1.389 . S
C263 C264 1.397 . S
C264 H250 0.939 . S
C264 C263 1.397 . S
C264 C265 1.378 . S
C265 C264 1.378 . S
C265 C266 1.378 . S
C266 H251 0.940 . S
C266 C265 1.378 . S
C266 C267 1.396 . S
C267 H252 0.940 . S
C267 C262 1.391 . S
C267 C266 1.396 . S
C268 P248 1.803 1_565 S
C268 C269 1.378 . S
C268 C273 1.400 . S
C269 H253 0.939 . S
C269 C268 1.378 . S
C269 C270 1.361 . S
C270 H254 0.942 . S
C270 C269 1.361 . S
C270 C271 1.369 . S
C271 C270 1.369 . S
C271 C272 1.404 . S
C272 H255 0.940 . S
C272 C271 1.404 . S
C272 C273 1.389 . S
C273 H256 0.939 . S
C273 C268 1.400 . S
C273 C272 1.389 . S
C274 P248 1.819 . S
C274 C275 1.391 . S
C274 C279 1.391 1_545 S
C275 H257 0.941 . S
C275 C274 1.391 . S
C275 C276 1.396 . S
C276 H260 0.939 . S
C276 C275 1.396 . S
C276 C277 1.397 . S
C277 C276 1.397 . S
C277 C278 1.385 1_545 S
C278 H261 0.940 . S
C278 C277 1.385 1_565 S
C278 C279 1.388 . S
C279 H258 0.939 . S
C279 C274 1.391 1_565 S
C279 C278 1.388 . S
P280 O291 1.490 . S
P280 C294 1.812 . S
P280 C300 1.803 . S
P280 C306 1.819 . S
H281 C295 0.941 . S
H282 C296 0.939 . S
H283 C298 0.940 . S
H284 C299 0.940 . S
H285 C301 0.939 . S
H286 C302 0.942 . S
H287 C304 0.940 . S
H288 C305 0.939 . S
H289 C307 0.941 . S
H290 C311 0.939 . S
O291 P280 1.490 . S
H292 C308 0.939 . S
H293 C310 0.940 . S
C294 P280 1.812 . S
C294 C295 1.389 . S
C294 C299 1.391 . S
C295 H281 0.941 . S
C295 C294 1.389 . S
C295 C296 1.397 . S
C296 H282 0.939 . S
C296 C295 1.397 . S
C296 C297 1.378 . S
C297 C296 1.378 . S
C297 C298 1.378 . S
C298 H283 0.940 . S
C298 C297 1.378 . S
C298 C299 1.396 . S
C299 H284 0.940 . S
C299 C294 1.391 . S
C299 C298 1.396 . S
C300 P280 1.803 . S
C300 C301 1.378 . S
C300 C305 1.400 . S
C301 H285 0.939 . S
C301 C300 1.378 . S
C301 C302 1.361 . S
C302 H286 0.942 . S
C302 C301 1.361 . S
C302 C303 1.369 . S
C303 C302 1.369 . S
C303 C304 1.404 . S
C304 H287 0.940 . S
C304 C303 1.404 . S
C304 C305 1.389 . S
C305 H288 0.939 . S
C305 C300 1.400 . S
C305 C304 1.389 . S
C306 P280 1.819 . S
C306 C307 1.391 . S
C306 C311 1.391 . S
C307 H289 0.941 . S
C307 C306 1.391 . S
C307 C308 1.396 . S
C308 H292 0.939 . S
C308 C307 1.396 . S
C308 C309 1.397 . S
C309 C308 1.397 . S
C309 C310 1.385 . S
C310 H293 0.940 . S
C310 C309 1.385 . S
C310 C311 1.388 . S
C311 H290 0.939 . S
C311 C306 1.391 . S
C311 C310 1.388 . S
H312 C320 0.929 . S
H313 C322 0.930 . S
H314 C324 0.930 . S
H315 C327 0.929 . S
H316 C330 0.930 . S
H317 C332 0.960 . S
H318 C332 0.960 . S
H319 C332 0.960 . S
C320 H312 0.929 . S
C320 C321 1.377 . S
C320 C322 1.384 . S
C321 C320 1.377 . S
C321 C327 1.390 . S
C322 H313 0.930 . S
C322 C320 1.384 . S
C322 C323 1.372 . S
C323 C322 1.372 . S
C323 C324 1.400 . S
C323 C328 1.490 . S
C324 H314 0.930 . S
C324 C323 1.400 . S
C324 C327 1.386 . S
H325 C341 0.930 . S
H326 C342 0.931 . S
C327 H315 0.929 . S
C327 C321 1.390 . S
C327 C324 1.386 . S
C328 C323 1.490 . S
C328 C330 1.395 . S
C328 C331 1.403 . S
H329 C335 0.930 . S
C330 H316 0.930 . S
C330 C328 1.395 . S
C330 C333 1.403 . S
C331 C328 1.403 . S
C331 C332 1.524 . S
C331 C335 1.400 . S
C332 H317 0.960 . S
C332 H318 0.960 . S
C332 H319 0.960 . S
C332 C331 1.524 . S
C333 C330 1.403 . S
C333 C334 1.392 . S
C333 C337 1.495 . S
C334 C333 1.392 . S
C334 C335 1.385 . S
C334 C336 1.478 . S
C335 H329 0.930 . S
C335 C331 1.400 . S
C335 C334 1.385 . S
C336 C334 1.478 . S
C336 C338 1.381 . S
C336 C342 1.383 . S
C337 C333 1.495 . S
C337 H343 0.959 . S
C337 H344 0.961 . S
C337 H345 0.960 . S
C338 C336 1.381 . S
C338 C339 1.394 . S
C338 H346 0.930 . S
C339 C338 1.394 . S
C339 C340 1.383 . S
C339 H347 0.929 . S
C340 C339 1.383 . S
C340 C341 1.377 . S
C341 H325 0.930 . S
C341 C340 1.377 . S
C341 C342 1.379 . S
C342 H326 0.931 . S
C342 C336 1.383 . S
C342 C341 1.379 . S
H343 C337 0.959 . S
H344 C337 0.961 . S
H345 C337 0.960 . S
H346 C338 0.930 . S
H347 C339 0.929 . S
H348 C356 0.929 . S
H349 C358 0.930 . S
H350 C360 0.930 . S
H351 C363 0.929 . S
H352 C366 0.930 . S
H353 C368 0.960 . S
H354 C368 0.960 . S
H355 C368 0.960 . S
C356 H348 0.929 . S
C356 C357 1.377 . S
C356 C358 1.384 . S
C357 C356 1.377 . S
C357 C363 1.390 . S
C358 H349 0.930 . S
C358 C356 1.384 . S
C358 C359 1.372 . S
C359 C358 1.372 . S
C359 C360 1.400 . S
C359 C364 1.490 . S
C360 H350 0.930 . S
C360 C359 1.400 . S
C360 C363 1.386 . S
H361 C377 0.930 . S
H362 C378 0.931 . S
C363 H351 0.929 . S
C363 C357 1.390 . S
C363 C360 1.386 . S
C364 C359 1.490 . S
C364 C366 1.395 . S
C364 C367 1.403 . S
H365 C371 0.930 . S
C366 H352 0.930 . S
C366 C364 1.395 . S
C366 C369 1.403 . S
C367 C364 1.403 . S
C367 C368 1.524 . S
C367 C371 1.400 . S
C368 H353 0.960 . S
C368 H354 0.960 . S
C368 H355 0.960 . S
C368 C367 1.524 . S
C369 C366 1.403 . S
C369 C370 1.392 . S
C369 C373 1.495 . S
C370 C369 1.392 . S
C370 C371 1.385 . S
C370 C372 1.478 . S
C371 H365 0.930 . S
C371 C367 1.400 . S
C371 C370 1.385 . S
C372 C370 1.478 . S
C372 C374 1.381 . S
C372 C378 1.383 . S
C373 C369 1.495 . S
C373 H379 0.959 . S
C373 H380 0.961 . S
C373 H381 0.960 . S
C374 C372 1.381 . S
C374 C375 1.394 . S
C374 H382 0.930 . S
C375 C374 1.394 . S
C375 C376 1.383 . S
C375 H383 0.929 . S
C376 C375 1.383 . S
C376 C377 1.377 . S
C377 H361 0.930 . S
C377 C376 1.377 . S
C377 C378 1.379 . S
C378 H362 0.931 . S
C378 C372 1.383 . S
C378 C377 1.379 . S
H379 C373 0.959 . S
H380 C373 0.961 . S
H381 C373 0.960 . S
H382 C374 0.930 . S
H383 C375 0.929 . S
H384 C392 0.929 . S
H385 C394 0.930 . S
H386 C396 0.930 . S
H387 C399 0.929 . S
H388 C402 0.930 . S
H389 C404 0.960 . S
H390 C404 0.960 . S
H391 C404 0.960 . S
C392 H384 0.929 . S
C392 C393 1.377 . S
C392 C394 1.384 . S
C393 C392 1.377 . S
C393 C399 1.390 . S
C394 H385 0.930 . S
C394 C392 1.384 . S
C394 C395 1.372 . S
C395 C394 1.372 . S
C395 C396 1.400 . S
C395 C400 1.490 . S
C396 H386 0.930 . S
C396 C395 1.400 . S
C396 C399 1.386 . S
H397 C413 0.930 . S
H398 C414 0.931 . S
C399 H387 0.929 . S
C399 C393 1.390 . S
C399 C396 1.386 . S
C400 C395 1.490 . S
C400 C402 1.395 . S
C400 C403 1.403 . S
H401 C407 0.930 . S
C402 H388 0.930 . S
C402 C400 1.395 . S
C402 C405 1.403 . S
C403 C400 1.403 . S
C403 C404 1.524 . S
C403 C407 1.400 . S
C404 H389 0.960 . S
C404 H390 0.960 . S
C404 H391 0.960 . S
C404 C403 1.524 . S
C405 C402 1.403 . S
C405 C406 1.392 . S
C405 C409 1.495 . S
C406 C405 1.392 . S
C406 C407 1.385 . S
C406 C408 1.478 . S
C407 H401 0.930 . S
C407 C403 1.400 . S
C407 C406 1.385 . S
C408 C406 1.478 . S
C408 C410 1.381 . S
C408 C414 1.383 . S
C409 C405 1.495 . S
C409 H415 0.959 . S
C409 H416 0.961 . S
C409 H417 0.960 . S
C410 C408 1.381 . S
C410 C411 1.394 . S
C410 H418 0.930 . S
C411 C410 1.394 . S
C411 C412 1.383 . S
C411 H419 0.929 . S
C412 C411 1.383 . S
C412 C413 1.377 . S
C413 H397 0.930 . S
C413 C412 1.377 . S
C413 C414 1.379 . S
C414 H398 0.931 . S
C414 C408 1.383 . S
C414 C413 1.379 . S
H415 C409 0.959 . S
H416 C409 0.961 . S
H417 C409 0.960 . S
H418 C410 0.930 . S
H419 C411 0.929 . S
H420 C428 0.929 . S
H421 C430 0.930 . S
H422 C432 0.930 . S
H423 C435 0.929 . S
H424 C438 0.930 . S
H425 C440 0.960 . S
H426 C440 0.960 . S
H427 C440 0.960 . S
C428 H420 0.929 . S
C428 C429 1.377 . S
C428 C430 1.384 . S
C429 C428 1.377 . S
C429 C435 1.390 . S
C430 H421 0.930 . S
C430 C428 1.384 . S
C430 C431 1.372 . S
C431 C430 1.372 . S
C431 C432 1.400 . S
C431 C436 1.490 . S
C432 H422 0.930 . S
C432 C431 1.400 . S
C432 C435 1.386 . S
H433 C449 0.930 . S
H434 C450 0.931 . S
C435 H423 0.929 . S
C435 C429 1.390 . S
C435 C432 1.386 . S
C436 C431 1.490 . S
C436 C438 1.395 . S
C436 C439 1.403 . S
H437 C443 0.930 . S
C438 H424 0.930 . S
C438 C436 1.395 . S
C438 C441 1.403 . S
C439 C436 1.403 . S
C439 C440 1.524 . S
C439 C443 1.400 . S
C440 H425 0.960 . S
C440 H426 0.960 . S
C440 H427 0.960 . S
C440 C439 1.524 . S
C441 C438 1.403 . S
C441 C442 1.392 . S
C441 C445 1.495 . S
C442 C441 1.392 . S
C442 C443 1.385 . S
C442 C444 1.478 . S
C443 H437 0.930 . S
C443 C439 1.400 . S
C443 C442 1.385 . S
C444 C442 1.478 . S
C444 C446 1.381 . S
C444 C450 1.383 . S
C445 C441 1.495 . S
C445 H451 0.959 . S
C445 H452 0.961 . S
C445 H453 0.960 . S
C446 C444 1.381 . S
C446 C447 1.394 . S
C446 H454 0.930 . S
C447 C446 1.394 . S
C447 C448 1.383 . S
C447 H455 0.929 . S
C448 C447 1.383 . S
C448 C449 1.377 . S
C449 H433 0.930 . S
C449 C448 1.377 . S
C449 C450 1.379 . S
C450 H434 0.931 . S
C450 C444 1.383 . S
C450 C449 1.379 . S
H451 C445 0.959 . S
H452 C445 0.961 . S
H453 C445 0.960 . S
H454 C446 0.930 . S
H455 C447 0.929 . S
H456 C464 0.929 . S
H457 C466 0.930 . S
H458 C468 0.930 . S
H459 C471 0.929 . S
H460 C474 0.930 . S
H461 C476 0.960 . S
H462 C476 0.960 . S
H463 C476 0.960 . S
C464 H456 0.929 . S
C464 C465 1.377 . S
C464 C466 1.384 . S
C465 C464 1.377 . S
C465 C471 1.390 . S
C466 H457 0.930 . S
C466 C464 1.384 . S
C466 C467 1.372 . S
C467 C466 1.372 . S
C467 C468 1.400 . S
C467 C472 1.490 . S
C468 H458 0.930 . S
C468 C467 1.400 . S
C468 C471 1.386 . S
H469 C485 0.930 . S
H470 C486 0.931 . S
C471 H459 0.929 . S
C471 C465 1.390 . S
C471 C468 1.386 . S
C472 C467 1.490 . S
C472 C474 1.395 . S
C472 C475 1.403 . S
H473 C479 0.930 . S
C474 H460 0.930 . S
C474 C472 1.395 . S
C474 C477 1.403 . S
C475 C472 1.403 . S
C475 C476 1.524 . S
C475 C479 1.400 . S
C476 H461 0.960 . S
C476 H462 0.960 . S
C476 H463 0.960 . S
C476 C475 1.524 . S
C477 C474 1.403 . S
C477 C478 1.392 . S
C477 C481 1.495 . S
C478 C477 1.392 . S
C478 C479 1.385 . S
C478 C480 1.478 . S
C479 H473 0.930 . S
C479 C475 1.400 . S
C479 C478 1.385 . S
C480 C478 1.478 . S
C480 C482 1.381 . S
C480 C486 1.383 . S
C481 C477 1.495 . S
C481 H487 0.959 . S
C481 H488 0.961 . S
C481 H489 0.960 . S
C482 C480 1.381 . S
C482 C483 1.394 . S
C482 H490 0.930 . S
C483 C482 1.394 . S
C483 C484 1.383 . S
C483 H491 0.929 . S
C484 C483 1.383 . S
C484 C485 1.377 . S
C485 H469 0.930 . S
C485 C484 1.377 . S
C485 C486 1.379 . S
C486 H470 0.931 . S
C486 C480 1.383 . S
C486 C485 1.379 . S
H487 C481 0.959 . S
H488 C481 0.961 . S
H489 C481 0.960 . S
H490 C482 0.930 . S
H491 C483 0.929 . S
H492 C500 0.929 . S
H493 C502 0.930 . S
H494 C504 0.930 . S
H495 C507 0.929 . S
H496 C510 0.930 . S
H497 C512 0.960 . S
H498 C512 0.960 . S
H499 C512 0.960 . S
C500 H492 0.929 . S
C500 C501 1.377 . S
C500 C502 1.384 . S
C501 C500 1.377 . S
C501 C507 1.390 . S
C502 H493 0.930 . S
C502 C500 1.384 . S
C502 C503 1.372 . S
C503 C502 1.372 . S
C503 C504 1.400 . S
C503 C508 1.490 . S
C504 H494 0.930 . S
C504 C503 1.400 . S
C504 C507 1.386 . S
H505 C521 0.930 . S
H506 C522 0.931 . S
C507 H495 0.929 . S
C507 C501 1.390 . S
C507 C504 1.386 . S
C508 C503 1.490 . S
C508 C510 1.395 . S
C508 C511 1.403 . S
H509 C515 0.930 . S
C510 H496 0.930 . S
C510 C508 1.395 . S
C510 C513 1.403 . S
C511 C508 1.403 . S
C511 C512 1.524 . S
C511 C515 1.400 . S
C512 H497 0.960 . S
C512 H498 0.960 . S
C512 H499 0.960 . S
C512 C511 1.524 . S
C513 C510 1.403 . S
C513 C514 1.392 . S
C513 C517 1.495 . S
C514 C513 1.392 . S
C514 C515 1.385 . S
C514 C516 1.478 . S
C515 H509 0.930 . S
C515 C511 1.400 . S
C515 C514 1.385 . S
C516 C514 1.478 . S
C516 C518 1.381 . S
C516 C522 1.383 . S
C517 C513 1.495 . S
C517 H523 0.959 . S
C517 H524 0.961 . S
C517 H525 0.960 . S
C518 C516 1.381 . S
C518 C519 1.394 . S
C518 H526 0.930 . S
C519 C518 1.394 . S
C519 C520 1.383 . S
C519 H527 0.929 . S
C520 C519 1.383 . S
C520 C521 1.377 . S
C521 H505 0.930 . S
C521 C520 1.377 . S
C521 C522 1.379 . S
C522 H506 0.931 . S
C522 C516 1.383 . S
C522 C521 1.379 . S
H523 C517 0.959 . S
H524 C517 0.961 . S
H525 C517 0.960 . S
H526 C518 0.930 . S
H527 C519 0.929 . S
H528 C536 0.929 . S
H529 C538 0.930 . S
H530 C540 0.930 . S
H531 C543 0.929 . S
H532 C546 0.930 . S
H533 C548 0.960 . S
H534 C548 0.960 . S
H535 C548 0.960 . S
C536 H528 0.929 . S
C536 C537 1.377 . S
C536 C538 1.384 . S
C537 C536 1.377 . S
C537 C543 1.390 . S
C538 H529 0.930 . S
C538 C536 1.384 . S
C538 C539 1.372 . S
C539 C538 1.372 . S
C539 C540 1.400 . S
C539 C544 1.490 . S
C540 H530 0.930 . S
C540 C539 1.400 . S
C540 C543 1.386 . S
H541 C557 0.930 . S
H542 C558 0.931 . S
C543 H531 0.929 . S
C543 C537 1.390 . S
C543 C540 1.386 . S
C544 C539 1.490 . S
C544 C546 1.395 . S
C544 C547 1.403 . S
H545 C551 0.930 . S
C546 H532 0.930 . S
C546 C544 1.395 . S
C546 C549 1.403 . S
C547 C544 1.403 . S
C547 C548 1.524 . S
C547 C551 1.400 . S
C548 H533 0.960 . S
C548 H534 0.960 . S
C548 H535 0.960 . S
C548 C547 1.524 . S
C549 C546 1.403 . S
C549 C550 1.392 . S
C549 C553 1.495 . S
C550 C549 1.392 . S
C550 C551 1.385 . S
C550 C552 1.478 . S
C551 H545 0.930 . S
C551 C547 1.400 . S
C551 C550 1.385 . S
C552 C550 1.478 . S
C552 C554 1.381 . S
C552 C558 1.383 . S
C553 C549 1.495 . S
C553 H559 0.959 . S
C553 H560 0.961 . S
C553 H561 0.960 . S
C554 C552 1.381 . S
C554 C555 1.394 . S
C554 H562 0.930 . S
C555 C554 1.394 . S
C555 C556 1.383 . S
C555 H563 0.929 . S
C556 C555 1.383 . S
C556 C557 1.377 . S
C557 H541 0.930 . S
C557 C556 1.377 . S
C557 C558 1.379 . S
C558 H542 0.931 . S
C558 C552 1.383 . S
C558 C557 1.379 . S
H559 C553 0.959 . S
H560 C553 0.961 . S
H561 C553 0.960 . S
H562 C554 0.930 . S
H563 C555 0.929 . S
H564 C572 0.929 . S
H565 C574 0.930 . S
H566 C576 0.930 . S
H567 C579 0.929 . S
H568 C582 0.930 . S
H569 C584 0.960 . S
H570 C584 0.960 . S
H571 C584 0.960 . S
C572 H564 0.929 . S
C572 C573 1.377 . S
C572 C574 1.384 . S
C573 C572 1.377 . S
C573 C579 1.390 . S
C574 H565 0.930 . S
C574 C572 1.384 . S
C574 C575 1.372 . S
C575 C574 1.372 . S
C575 C576 1.400 . S
C575 C580 1.490 . S
C576 H566 0.930 . S
C576 C575 1.400 . S
C576 C579 1.386 . S
H577 C593 0.930 . S
H578 C594 0.931 . S
C579 H567 0.929 . S
C579 C573 1.390 . S
C579 C576 1.386 . S
C580 C575 1.490 . S
C580 C582 1.395 . S
C580 C583 1.403 . S
H581 C587 0.930 . S
C582 H568 0.930 . S
C582 C580 1.395 . S
C582 C585 1.403 . S
C583 C580 1.403 . S
C583 C584 1.524 . S
C583 C587 1.400 . S
C584 H569 0.960 . S
C584 H570 0.960 . S
C584 H571 0.960 . S
C584 C583 1.524 . S
C585 C582 1.403 . S
C585 C586 1.392 . S
C585 C589 1.495 . S
C586 C585 1.392 . S
C586 C587 1.385 . S
C586 C588 1.478 . S
C587 H581 0.930 . S
C587 C583 1.400 . S
C587 C586 1.385 . S
C588 C586 1.478 . S
C588 C590 1.381 . S
C588 C594 1.383 . S
C589 C585 1.495 . S
C589 H595 0.959 . S
C589 H596 0.961 . S
C589 H597 0.960 . S
C590 C588 1.381 . S
C590 C591 1.394 . S
C590 H598 0.930 . S
C591 C590 1.394 . S
C591 C592 1.383 . S
C591 H599 0.929 . S
C592 C591 1.383 . S
C592 C593 1.377 . S
C593 H577 0.930 . S
C593 C592 1.377 . S
C593 C594 1.379 . S
C594 H578 0.931 . S
C594 C588 1.383 . S
C594 C593 1.379 . S
H595 C589 0.959 . S
H596 C589 0.961 . S
H597 C589 0.960 . S
H598 C590 0.930 . S
H599 C591 0.929 . S
H600 C608 0.929 . S
H601 C610 0.930 . S
H602 C612 0.930 . S
H603 C615 0.929 . S
H604 C618 0.930 . S
H605 C620 0.960 . S
H606 C620 0.960 . S
H607 C620 0.960 . S
C608 H600 0.929 . S
C608 C609 1.377 . S
C608 C610 1.384 . S
C609 C608 1.377 . S
C609 C615 1.390 . S
C610 H601 0.930 . S
C610 C608 1.384 . S
C610 C611 1.372 . S
C611 C610 1.372 . S
C611 C612 1.400 . S
C611 C616 1.490 . S
C612 H602 0.930 . S
C612 C611 1.400 . S
C612 C615 1.386 . S
H613 C629 0.930 . S
H614 C630 0.931 . S
C615 H603 0.929 . S
C615 C609 1.390 . S
C615 C612 1.386 . S
C616 C611 1.490 . S
C616 C618 1.395 . S
C616 C619 1.403 . S
H617 C623 0.930 . S
C618 H604 0.930 . S
C618 C616 1.395 . S
C618 C621 1.403 . S
C619 C616 1.403 . S
C619 C620 1.524 . S
C619 C623 1.400 . S
C620 H605 0.960 . S
C620 H606 0.960 . S
C620 H607 0.960 . S
C620 C619 1.524 . S
C621 C618 1.403 . S
C621 C622 1.392 . S
C621 C625 1.495 . S
C622 C621 1.392 . S
C622 C623 1.385 . S
C622 C624 1.478 . S
C623 H617 0.930 . S
C623 C619 1.400 . S
C623 C622 1.385 . S
C624 C622 1.478 . S
C624 C626 1.381 . S
C624 C630 1.383 . S
C625 C621 1.495 . S
C625 H631 0.959 . S
C625 H632 0.961 . S
C625 H633 0.960 . S
C626 C624 1.381 . S
C626 C627 1.394 . S
C626 H634 0.930 . S
C627 C626 1.394 . S
C627 C628 1.383 . S
C627 H635 0.929 . S
C628 C627 1.383 . S
C628 C629 1.377 . S
C629 H613 0.930 . S
C629 C628 1.377 . S
C629 C630 1.379 . S
C630 H614 0.931 . S
C630 C624 1.383 . S
C630 C629 1.379 . S
H631 C625 0.959 . S
H632 C625 0.961 . S
H633 C625 0.960 . S
H634 C626 0.930 . S
H635 C627 0.929 . S
H636 C644 0.929 . S
H637 C646 0.930 . S
H638 C648 0.930 . S
H639 C651 0.929 . S
H640 C654 0.930 . S
H641 C656 0.960 . S
H642 C656 0.960 . S
H643 C656 0.960 . S
C644 H636 0.929 . S
C644 C645 1.377 . S
C644 C646 1.384 . S
C645 C644 1.377 . S
C645 C651 1.390 . S
C646 H637 0.930 . S
C646 C644 1.384 . S
C646 C647 1.372 . S
C647 C646 1.372 . S
C647 C648 1.400 . S
C647 C652 1.490 . S
C648 H638 0.930 . S
C648 C647 1.400 . S
C648 C651 1.386 . S
H649 C665 0.930 . S
H650 C666 0.931 . S
C651 H639 0.929 . S
C651 C645 1.390 . S
C651 C648 1.386 . S
C652 C647 1.490 . S
C652 C654 1.395 . S
C652 C655 1.403 . S
H653 C659 0.930 . S
C654 H640 0.930 . S
C654 C652 1.395 . S
C654 C657 1.403 . S
C655 C652 1.403 . S
C655 C656 1.524 . S
C655 C659 1.400 . S
C656 H641 0.960 . S
C656 H642 0.960 . S
C656 H643 0.960 . S
C656 C655 1.524 . S
C657 C654 1.403 . S
C657 C658 1.392 . S
C657 C661 1.495 . S
C658 C657 1.392 . S
C658 C659 1.385 . S
C658 C660 1.478 . S
C659 H653 0.930 . S
C659 C655 1.400 . S
C659 C658 1.385 . S
C660 C658 1.478 . S
C660 C662 1.381 . S
C660 C666 1.383 . S
C661 C657 1.495 . S
C661 H667 0.959 . S
C661 H668 0.961 . S
C661 H669 0.960 . S
C662 C660 1.381 . S
C662 C663 1.394 . S
C662 H670 0.930 . S
C663 C662 1.394 . S
C663 C664 1.383 . S
C663 H671 0.929 . S
C664 C663 1.383 . S
C664 C665 1.377 . S
C665 H649 0.930 . S
C665 C664 1.377 . S
C665 C666 1.379 . S
C666 H650 0.931 . S
C666 C660 1.383 . S
C666 C665 1.379 . S
H667 C661 0.959 . S
H668 C661 0.961 . S
H669 C661 0.960 . S
H670 C662 0.930 . S
H671 C663 0.929 . S
H672 C680 0.929 . S
H673 C682 0.930 . S
H674 C684 0.930 . S
H675 C687 0.929 . S
H676 C690 0.930 . S
H677 C692 0.960 . S
H678 C692 0.960 . S
H679 C692 0.960 . S
C680 H672 0.929 . S
C680 C681 1.377 . S
C680 C682 1.384 . S
C681 C680 1.377 . S
C681 C687 1.390 . S
C682 H673 0.930 . S
C682 C680 1.384 . S
C682 C683 1.372 . S
C683 C682 1.372 . S
C683 C684 1.400 . S
C683 C688 1.490 . S
C684 H674 0.930 . S
C684 C683 1.400 . S
C684 C687 1.386 . S
H685 C701 0.930 . S
H686 C702 0.931 . S
C687 H675 0.929 . S
C687 C681 1.390 . S
C687 C684 1.386 . S
C688 C683 1.490 . S
C688 C690 1.395 . S
C688 C691 1.403 . S
H689 C695 0.930 . S
C690 H676 0.930 . S
C690 C688 1.395 . S
C690 C693 1.403 . S
C691 C688 1.403 . S
C691 C692 1.524 . S
C691 C695 1.400 . S
C692 H677 0.960 . S
C692 H678 0.960 . S
C692 H679 0.960 . S
C692 C691 1.524 . S
C693 C690 1.403 . S
C693 C694 1.392 . S
C693 C697 1.495 . S
C694 C693 1.392 . S
C694 C695 1.385 . S
C694 C696 1.478 . S
C695 H689 0.930 . S
C695 C691 1.400 . S
C695 C694 1.385 . S
C696 C694 1.478 . S
C696 C698 1.381 . S
C696 C702 1.383 . S
C697 C693 1.495 . S
C697 H703 0.959 . S
C697 H704 0.961 . S
C697 H705 0.960 . S
C698 C696 1.381 . S
C698 C699 1.394 . S
C698 H706 0.930 . S
C699 C698 1.394 . S
C699 C700 1.383 . S
C699 H707 0.929 . S
C700 C699 1.383 . S
C700 C701 1.377 . S
C701 H685 0.930 . S
C701 C700 1.377 . S
C701 C702 1.379 . S
C702 H686 0.931 . S
C702 C696 1.383 . S
C702 C701 1.379 . S
H703 C697 0.959 . S
H704 C697 0.961 . S
H705 C697 0.960 . S
H706 C698 0.930 . S
H707 C699 0.929 . S
H708 C716 0.929 . S
H709 C718 0.930 . S
H710 C720 0.930 . S
H711 C723 0.929 . S
H712 C726 0.930 . S
H713 C728 0.960 . S
H714 C728 0.960 . S
H715 C728 0.960 . S
C716 H708 0.929 . S
C716 C717 1.377 . S
C716 C718 1.384 . S
C717 C716 1.377 . S
C717 C723 1.390 . S
C718 H709 0.930 . S
C718 C716 1.384 . S
C718 C719 1.372 . S
C719 C718 1.372 . S
C719 C720 1.400 . S
C719 C724 1.490 . S
C720 H710 0.930 . S
C720 C719 1.400 . S
C720 C723 1.386 . S
H721 C737 0.930 . S
H722 C738 0.931 . S
C723 H711 0.929 . S
C723 C717 1.390 . S
C723 C720 1.386 . S
C724 C719 1.490 . S
C724 C726 1.395 . S
C724 C727 1.403 . S
H725 C731 0.930 . S
C726 H712 0.930 . S
C726 C724 1.395 . S
C726 C729 1.403 . S
C727 C724 1.403 . S
C727 C728 1.524 . S
C727 C731 1.400 . S
C728 H713 0.960 . S
C728 H714 0.960 . S
C728 H715 0.960 . S
C728 C727 1.524 . S
C729 C726 1.403 . S
C729 C730 1.392 . S
C729 C733 1.495 . S
C730 C729 1.392 . S
C730 C731 1.385 . S
C730 C732 1.478 . S
C731 H725 0.930 . S
C731 C727 1.400 . S
C731 C730 1.385 . S
C732 C730 1.478 . S
C732 C734 1.381 . S
C732 C738 1.383 . S
C733 C729 1.495 . S
C733 H739 0.959 . S
C733 H740 0.961 . S
C733 H741 0.960 . S
C734 C732 1.381 . S
C734 C735 1.394 . S
C734 H742 0.930 . S
C735 C734 1.394 . S
C735 C736 1.383 . S
C735 H743 0.929 . S
C736 C735 1.383 . S
C736 C737 1.377 . S
C737 H721 0.930 . S
C737 C736 1.377 . S
C737 C738 1.379 . S
C738 H722 0.931 . S
C738 C732 1.383 . S
C738 C737 1.379 . S
H739 C733 0.959 . S
H740 C733 0.961 . S
H741 C733 0.960 . S
H742 C734 0.930 . S
H743 C735 0.929 . S
H744 C752 0.929 . S
H745 C754 0.930 . S
H746 C756 0.930 . S
H747 C759 0.929 1_655 S
H748 C762 0.930 . S
H749 C764 0.960 . S
H750 C764 0.960 . S
H751 C764 0.960 . S
C752 H744 0.929 . S
C752 C753 1.377 . S
C752 C754 1.384 . S
C753 C752 1.377 . S
C753 C759 1.390 . S
C754 H745 0.930 . S
C754 C752 1.384 . S
C754 C755 1.372 . S
C755 C754 1.372 . S
C755 C756 1.400 . S
C755 C760 1.490 . S
C756 H746 0.930 . S
C756 C755 1.400 . S
C756 C759 1.386 . S
H757 C773 0.930 . S
H758 C774 0.928 . S
C759 H747 0.929 1_455 S
C759 C753 1.390 . S
C759 C756 1.386 . S
C760 C755 1.490 . S
C760 C762 1.395 . S
C760 C763 1.403 . S
H761 C767 0.930 . S
C762 H748 0.930 . S
C762 C760 1.395 . S
C762 C765 1.403 . S
C763 C760 1.403 . S
C763 C764 1.524 . S
C763 C767 1.400 . S
C764 H749 0.960 . S
C764 H750 0.960 . S
C764 H751 0.960 . S
C764 C763 1.524 . S
C765 C762 1.403 . S
C765 C766 1.392 . S
C765 C769 1.495 . S
C766 C765 1.392 . S
C766 C767 1.385 . S
C766 C768 1.478 . S
C767 H761 0.930 . S
C767 C763 1.400 . S
C767 C766 1.385 . S
C768 C766 1.478 . S
C768 C770 1.381 1_554 S
C768 C774 1.383 1_554 S
C769 C765 1.495 . S
C769 H775 0.959 . S
C769 H776 0.961 . S
C769 H777 0.960 . S
C770 C768 1.381 1_556 S
C770 C771 1.394 . S
C770 H778 0.930 1_556 S
C771 C770 1.394 . S
C771 C772 1.383 . S
C771 H779 0.929 . S
C772 C771 1.383 . S
C772 C773 1.377 . S
C773 H757 0.930 . S
C773 C772 1.377 . S
C773 C774 1.379 . S
C774 H758 0.928 . S
C774 C768 1.383 1_556 S
C774 C773 1.379 . S
H775 C769 0.959 . S
H776 C769 0.961 . S
H777 C769 0.960 . S
H778 C770 0.930 1_554 S
H779 C771 0.929 . S
H780 C788 0.929 . S
H781 C790 0.930 . S
H782 C792 0.930 . S
H783 C795 0.929 . S
H784 C798 0.930 . S
H785 C800 0.960 . S
H786 C800 0.960 . S
H787 C800 0.960 1_545 S
C788 H780 0.929 . S
C788 C789 1.377 . S
C788 C790 1.384 . S
C789 C788 1.377 . S
C789 C795 1.390 . S
C790 H781 0.930 . S
C790 C788 1.384 . S
C790 C791 1.372 . S
C791 C790 1.372 . S
C791 C792 1.400 . S
C791 C796 1.490 . S
C792 H782 0.930 . S
C792 C791 1.400 . S
C792 C795 1.386 . S
H793 C809 0.930 . S
H794 C810 0.931 . S
C795 H783 0.929 . S
C795 C789 1.390 . S
C795 C792 1.386 . S
C796 C791 1.490 . S
C796 C798 1.395 . S
C796 C799 1.403 . S
H797 C803 0.930 . S
C798 H784 0.930 . S
C798 C796 1.395 . S
C798 C801 1.403 . S
C799 C796 1.403 . S
C799 C800 1.524 1_545 S
C799 C803 1.400 . S
C800 H785 0.960 . S
C800 H786 0.960 . S
C800 H787 0.960 1_565 S
C800 C799 1.524 1_565 S
C801 C798 1.403 . S
C801 C802 1.392 . S
C801 C805 1.495 . S
C802 C801 1.392 . S
C802 C803 1.385 . S
C802 C804 1.478 . S
C803 H797 0.930 . S
C803 C799 1.400 . S
C803 C802 1.385 . S
C804 C802 1.478 . S
C804 C806 1.381 . S
C804 C810 1.383 . S
C805 C801 1.495 . S
C805 H811 0.959 . S
C805 H812 0.961 . S
C805 H813 0.960 . S
C806 C804 1.381 . S
C806 C807 1.394 . S
C806 H814 0.930 . S
C807 C806 1.394 . S
C807 C808 1.383 . S
C807 H815 0.929 . S
C808 C807 1.383 . S
C808 C809 1.377 . S
C809 H793 0.930 . S
C809 C808 1.377 . S
C809 C810 1.379 . S
C810 H794 0.931 . S
C810 C804 1.383 . S
C810 C809 1.379 . S
H811 C805 0.959 . S
H812 C805 0.961 . S
H813 C805 0.960 . S
H814 C806 0.930 . S
H815 C807 0.929 . S
H816 C824 0.929 . S
H817 C826 0.930 . S
H818 C828 0.930 . S
H819 C831 0.929 . S
H820 C834 0.930 . S
H821 C836 0.960 . S
H822 C836 0.960 . S
H823 C836 0.960 . S
C824 H816 0.929 . S
C824 C825 1.377 . S
C824 C826 1.384 . S
C825 C824 1.377 . S
C825 C831 1.390 . S
C826 H817 0.930 . S
C826 C824 1.384 . S
C826 C827 1.372 . S
C827 C826 1.372 . S
C827 C828 1.400 . S
C827 C832 1.490 . S
C828 H818 0.930 . S
C828 C827 1.400 . S
C828 C831 1.386 . S
H829 C845 0.930 . S
H830 C846 0.931 . S
C831 H819 0.929 . S
C831 C825 1.390 . S
C831 C828 1.386 . S
C832 C827 1.490 . S
C832 C834 1.395 . S
C832 C835 1.403 . S
H833 C839 0.930 . S
C834 H820 0.930 . S
C834 C832 1.395 . S
C834 C837 1.403 . S
C835 C832 1.403 . S
C835 C836 1.524 . S
C835 C839 1.400 . S
C836 H821 0.960 . S
C836 H822 0.960 . S
C836 H823 0.960 . S
C836 C835 1.524 . S
C837 C834 1.403 . S
C837 C838 1.392 . S
C837 C841 1.495 . S
C838 C837 1.392 . S
C838 C839 1.385 . S
C838 C840 1.478 . S
C839 H833 0.930 . S
C839 C835 1.400 . S
C839 C838 1.385 . S
C840 C838 1.478 . S
C840 C842 1.381 . S
C840 C846 1.383 . S
C841 C837 1.495 . S
C841 H847 0.959 . S
C841 H848 0.961 . S
C841 H849 0.960 . S
C842 C840 1.381 . S
C842 C843 1.394 . S
C842 H850 0.930 . S
C843 C842 1.394 . S
C843 C844 1.383 . S
C843 H851 0.929 . S
C844 C843 1.383 . S
C844 C845 1.377 . S
C845 H829 0.930 . S
C845 C844 1.377 . S
C845 C846 1.379 . S
C846 H830 0.931 . S
C846 C840 1.383 . S
C846 C845 1.379 . S
H847 C841 0.959 . S
H848 C841 0.961 . S
H849 C841 0.960 . S
H850 C842 0.930 . S
H851 C843 0.929 . S
H852 C860 0.929 . S
H853 C862 0.930 . S
H854 C864 0.930 . S
H855 C867 0.929 . S
H856 C870 0.930 . S
H857 C872 0.960 . S
H858 C872 0.960 . S
H859 C872 0.960 . S
C860 H852 0.929 . S
C860 C861 1.377 . S
C860 C862 1.384 . S
C861 C860 1.377 . S
C861 C867 1.390 1_545 S
C862 H853 0.930 . S
C862 C860 1.384 . S
C862 C863 1.372 . S
C863 C862 1.372 . S
C863 C864 1.400 1_545 S
C863 C868 1.490 . S
C864 H854 0.930 . S
C864 C863 1.400 1_565 S
C864 C867 1.386 . S
H865 C881 0.930 . S
H866 C882 0.931 . S
C867 H855 0.929 . S
C867 C861 1.390 1_565 S
C867 C864 1.386 . S
C868 C863 1.490 . S
C868 C870 1.395 . S
C868 C871 1.403 1_545 S
H869 C875 0.930 . S
C870 H856 0.930 . S
C870 C868 1.395 . S
C870 C873 1.403 . S
C871 C868 1.403 1_565 S
C871 C872 1.524 . S
C871 C875 1.400 . S
C872 H857 0.960 . S
C872 H858 0.960 . S
C872 H859 0.960 . S
C872 C871 1.524 . S
C873 C870 1.403 . S
C873 C874 1.392 . S
C873 C877 1.495 . S
C874 C873 1.392 . S
C874 C875 1.385 1_545 S
C874 C876 1.478 . S
C875 H869 0.930 . S
C875 C871 1.400 . S
C875 C874 1.385 1_565 S
C876 C874 1.478 . S
C876 C878 1.381 . S
C876 C882 1.383 1_545 S
C877 C873 1.495 . S
C877 H883 0.959 . S
C877 H884 0.961 . S
C877 H885 0.960 . S
C878 C876 1.381 . S
C878 C879 1.394 . S
C878 H886 0.930 . S
C879 C878 1.394 . S
C879 C880 1.403 . S
C879 H887 0.929 . S
C880 C879 1.403 . S
C880 C881 1.366 1_545 S
C881 H865 0.930 . S
C881 C880 1.366 1_565 S
C881 C882 1.379 . S
C882 H866 0.931 . S
C882 C876 1.383 1_565 S
C882 C881 1.379 . S
H883 C877 0.959 . S
H884 C877 0.961 . S
H885 C877 0.960 . S
H886 C878 0.930 . S
H887 C879 0.929 . S
H888 C896 0.929 . S
H889 C898 0.930 . S
H890 C900 0.930 . S
H891 C903 0.929 . S
H892 C906 0.930 . S
H893 C908 0.960 . S
H894 C908 0.960 . S
H895 C908 0.960 . S
C896 H888 0.929 . S
C896 C897 1.377 . S
C896 C898 1.384 . S
C897 C896 1.377 . S
C897 C903 1.390 . S
C898 H889 0.930 . S
C898 C896 1.384 . S
C898 C899 1.372 . S
C899 C898 1.372 . S
C899 C900 1.400 . S
C899 C904 1.490 . S
C900 H890 0.930 . S
C900 C899 1.400 . S
C900 C903 1.386 . S
H901 C917 0.930 . S
H902 C918 0.931 1_556 S
C903 H891 0.929 . S
C903 C897 1.390 . S
C903 C900 1.386 . S
C904 C899 1.490 . S
C904 C906 1.395 . S
C904 C907 1.403 . S
H905 C911 0.930 . S
C906 H892 0.930 . S
C906 C904 1.395 . S
C906 C909 1.403 . S
C907 C904 1.403 . S
C907 C908 1.524 . S
C907 C911 1.400 . S
C908 H893 0.960 . S
C908 H894 0.960 . S
C908 H895 0.960 . S
C908 C907 1.524 . S
C909 C906 1.403 . S
C909 C910 1.392 . S
C909 C913 1.495 . S
C910 C909 1.392 . S
C910 C911 1.385 . S
C910 C912 1.478 . S
C911 H905 0.930 . S
C911 C907 1.400 . S
C911 C910 1.385 . S
C912 C910 1.478 . S
C912 C914 1.381 1_556 S
C912 C918 1.383 1_556 S
C913 C909 1.495 . S
C913 H919 0.959 . S
C913 H920 0.961 . S
C913 H921 0.960 . S
C914 C912 1.381 1_554 S
C914 C915 1.394 . S
C914 H922 0.930 1_554 S
C915 C914 1.394 . S
C915 C916 1.383 . S
C915 H923 0.929 . S
C916 C915 1.383 . S
C916 C917 1.377 . S
C917 H901 0.930 . S
C917 C916 1.377 . S
C917 C918 1.379 . S
C918 H902 0.931 1_554 S
C918 C912 1.383 1_554 S
C918 C917 1.379 . S
H919 C913 0.959 . S
H920 C913 0.961 . S
H921 C913 0.960 . S
H922 C914 0.930 1_556 S
H923 C915 0.929 . S
H924 C932 0.929 . S
H925 C934 0.930 . S
H926 C936 0.930 . S
H927 C939 0.929 . S
H928 C942 0.930 . S
H929 C944 0.960 . S
H930 C944 0.960 . S
H931 C944 0.960 . S
C932 H924 0.929 . S
C932 C933 1.377 . S
C932 C934 1.384 . S
C933 C932 1.377 . S
C933 C939 1.390 . S
C934 H925 0.930 . S
C934 C932 1.384 . S
C934 C935 1.372 . S
C935 C934 1.372 . S
C935 C936 1.400 . S
C935 C940 1.490 . S
C936 H926 0.930 . S
C936 C935 1.400 . S
C936 C939 1.386 . S
H937 C953 0.930 . S
H938 C954 0.931 . S
C939 H927 0.929 . S
C939 C933 1.390 . S
C939 C936 1.386 . S
C940 C935 1.490 . S
C940 C942 1.395 1_455 S
C940 C943 1.403 . S
H941 C947 0.930 . S
C942 H928 0.930 . S
C942 C940 1.395 1_655 S
C942 C945 1.403 . S
C943 C940 1.403 . S
C943 C944 1.524 . S
C943 C947 1.400 . S
C944 H929 0.960 . S
C944 H930 0.960 . S
C944 H931 0.960 . S
C944 C943 1.524 . S
C945 C942 1.403 . S
C945 C946 1.392 1_655 S
C945 C949 1.495 . S
C946 C945 1.392 1_455 S
C946 C947 1.385 . S
C946 C948 1.478 . S
C947 H941 0.930 . S
C947 C943 1.400 . S
C947 C946 1.385 . S
C948 C946 1.478 . S
C948 C950 1.381 . S
C948 C954 1.383 1_455 S
C949 C945 1.495 . S
C949 H955 0.959 . S
C949 H956 0.961 . S
C949 H957 0.960 . S
C950 C948 1.381 . S
C950 C951 1.394 . S
C950 H958 0.930 . S
C951 C950 1.394 . S
C951 C952 1.383 1_455 S
C951 H959 0.929 . S
C952 C951 1.383 1_655 S
C952 C953 1.377 . S
C953 H937 0.930 . S
C953 C952 1.377 . S
C953 C954 1.379 . S
C954 H938 0.931 . S
C954 C948 1.383 1_655 S
C954 C953 1.379 . S
H955 C949 0.959 . S
H956 C949 0.961 . S
H957 C949 0.960 . S
H958 C950 0.930 . S
H959 C951 0.929 . S
C321 C25 0.295 . S
C340 C303 0.217 . S
C357 C65 0.248 . S
C376 C239 0.432 . S
C393 C105 0.303 . S
C412 C271 0.468 . S
C429 C4 0.296 . S
C448 C297 0.116 . S
C484 C233 0.337 . S
C465 C44 0.260 . S
C520 C265 0.453 . S
C501 C84 0.314 . S
C537 C60 2.830 . S
C556 C175 2.752 . S
C573 C100 2.984 . S
C592 C207 2.900 . S
C609 C31 2.989 . S
C628 C137 2.925 . S
C664 C169 2.936 . S
C645 C71 2.977 . S
C700 C201 2.783 . S
C681 C111 2.822 . S
C717 C20 2.828 . S
C736 C143 2.744 . S
C772 C213 1.769 . S
C753 C2 1.727 . S
C789 C42 1.732 . S
C808 C149 1.753 . S
C825 C82 1.734 . S
C844 C181 1.754 . S
C880 C277 1.058 . S
C861 C63 1.069 . S
C916 C309 1.130 . S
C897 C103 1.113 . S
C933 C23 1.072 . S
C952 C245 1.096 1_655 S
