# Generated by pormake.
# Topology csq, (4,8)-cn, num edge types: 1
# Building blocks:
#     Node 0, Type 0, BuildingBlock: GIZVER_clean_linker_0, # of connection points: 4
#     Node 1, Type 0, BuildingBlock: GIZVER_clean_linker_0, # of connection points: 4
#     Node 2, Type 0, BuildingBlock: GIZVER_clean_linker_0, # of connection points: 4
#     Node 3, Type 0, BuildingBlock: GIZVER_clean_linker_0, # of connection points: 4
#     Node 4, Type 0, BuildingBlock: GIZVER_clean_linker_0, # of connection points: 4
#     Node 5, Type 0, BuildingBlock: GIZVER_clean_linker_0, # of connection points: 4
#     Node 6, Type 1, BuildingBlock: TAGTUT_clean_sbu_1, # of connection points: 8
#     Node 7, Type 1, BuildingBlock: TAGTUT_clean_sbu_1, # of connection points: 8
#     Node 8, Type 1, BuildingBlock: TAGTUT_clean_sbu_1, # of connection points: 8
#     Edge 9, Type (0, 1), BuildingBlock: EYOCIG_clean_linker_4, # of connection points: 2
#     Edge 10, Type (0, 1), BuildingBlock: EYOCIG_clean_linker_4, # of connection points: 2
#     Edge 11, Type (0, 1), BuildingBlock: EYOCIG_clean_linker_4, # of connection points: 2
#     Edge 12, Type (0, 1), BuildingBlock: EYOCIG_clean_linker_4, # of connection points: 2
#     Edge 13, Type (0, 1), BuildingBlock: EYOCIG_clean_linker_4, # of connection points: 2
#     Edge 14, Type (0, 1), BuildingBlock: EYOCIG_clean_linker_4, # of connection points: 2
#     Edge 15, Type (0, 1), BuildingBlock: EYOCIG_clean_linker_4, # of connection points: 2
#     Edge 16, Type (0, 1), BuildingBlock: EYOCIG_clean_linker_4, # of connection points: 2
#     Edge 17, Type (0, 1), BuildingBlock: EYOCIG_clean_linker_4, # of connection points: 2
#     Edge 18, Type (0, 1), BuildingBlock: EYOCIG_clean_linker_4, # of connection points: 2
#     Edge 19, Type (0, 1), BuildingBlock: EYOCIG_clean_linker_4, # of connection points: 2
#     Edge 20, Type (0, 1), BuildingBlock: EYOCIG_clean_linker_4, # of connection points: 2
#     Edge 21, Type (0, 1), BuildingBlock: EYOCIG_clean_linker_4, # of connection points: 2
#     Edge 22, Type (0, 1), BuildingBlock: EYOCIG_clean_linker_4, # of connection points: 2
#     Edge 23, Type (0, 1), BuildingBlock: EYOCIG_clean_linker_4, # of connection points: 2
#     Edge 24, Type (0, 1), BuildingBlock: EYOCIG_clean_linker_4, # of connection points: 2
#     Edge 25, Type (0, 1), BuildingBlock: EYOCIG_clean_linker_4, # of connection points: 2
#     Edge 26, Type (0, 1), BuildingBlock: EYOCIG_clean_linker_4, # of connection points: 2
#     Edge 27, Type (0, 1), BuildingBlock: EYOCIG_clean_linker_4, # of connection points: 2
#     Edge 28, Type (0, 1), BuildingBlock: EYOCIG_clean_linker_4, # of connection points: 2
#     Edge 29, Type (0, 1), BuildingBlock: EYOCIG_clean_linker_4, # of connection points: 2
#     Edge 30, Type (0, 1), BuildingBlock: EYOCIG_clean_linker_4, # of connection points: 2
#     Edge 31, Type (0, 1), BuildingBlock: EYOCIG_clean_linker_4, # of connection points: 2
#     Edge 32, Type (0, 1), BuildingBlock: EYOCIG_clean_linker_4, # of connection points: 2
# Relax obj value: 0.047
# Max RMSD: 0.132
# Mean RMSD: 0.096
data_MOF--net-csq--node1-TAGTUT_clean_sbu_1--node2-GIZVER_clean_linker_0--edge1-EYOCIG_clean_linker_4
_symmetry_space_group_name_H-M    P1
_symmetry_Int_Tables_number       1
_symmetry_cell_setting            triclinic
loop_
_symmetry_equiv_pos_as_xyz
'x, y, z'
_cell_length_a     43.159948
_cell_length_b     43.971901
_cell_length_c     15.777282
_cell_angle_alpha  93.330503
_cell_angle_beta   92.083587
_cell_angle_gamma 119.95148
loop_
_atom_site_label
_atom_site_type_symbol
_atom_site_fract_x
_atom_site_fract_y
_atom_site_fract_z
_atom_type_partial_charge
H0 H 0.23374 0.5026 0.0237 0.0
H1 H 0.23424 0.51376 0.29693 0.0
H2 H 0.13464 0.4673 0.14191 0.0
H3 H 0.28687 0.54992 0.11528 0.0
H4 H 0.28897 0.5479 0.22755 0.0
H5 H 0.30084 0.51301 0.01958 0.0
H6 H 0.35641 0.46665 0.13993 0.0
H7 H 0.29801 0.50281 0.28964 0.0
C8 C 0.2193 0.49774 0.08084 0.0
C9 C 0.18203 0.48266 0.07384 0.0
C10 C 0.23841 0.50914 0.16097 0.0
C11 C 0.21958 0.50405 0.23493 0.0
C12 C 0.1821 0.48874 0.22837 0.0
C13 C 0.16341 0.47788 0.14758 0.0
C14 C 0.27872 0.53131 0.16584 0.0
C15 C 0.29629 0.50919 0.15534 0.0
C16 C 0.3073 0.50352 0.07564 0.0
C17 C 0.32866 0.48774 0.06959 0.0
C18 C 0.33848 0.47723 0.14333 0.0
C19 C 0.3273 0.48255 0.22243 0.0
C20 C 0.30548 0.49757 0.22787 0.0
H21 H 0.83345 0.23569 -0.01754 0.0
H22 H 0.846 0.25366 0.25704 0.0
H23 H 0.88296 0.34088 0.1027 0.0
H24 H 0.82995 0.19015 0.07063 0.0
H25 H 0.83281 0.19635 0.18419 0.0
H26 H 0.77291 0.17432 -0.0152 0.0
H27 H 0.67734 0.12841 0.12102 0.0
H28 H 0.78085 0.18501 0.25928 0.0
C29 C 0.84099 0.25331 0.04006 0.0
C30 C 0.85777 0.28957 0.03468 0.0
C31 C 0.83637 0.23997 0.12029 0.0
C32 C 0.84831 0.26355 0.19487 0.0
C33 C 0.86494 0.30005 0.18796 0.0
C34 C 0.86892 0.31262 0.108 0.0
C35 C 0.82168 0.2011 0.12492 0.0
C36 C 0.78136 0.18199 0.12239 0.0
C37 C 0.76016 0.16968 0.04435 0.0
C38 C 0.72255 0.15052 0.04355 0.0
C39 C 0.70631 0.144 0.12105 0.0
C40 C 0.72736 0.15652 0.19865 0.0
C41 C 0.76467 0.17583 0.19911 0.0
H42 H 0.59937 0.83428 0.88149 0.0
H43 H 0.59513 0.82402 0.15225 0.0
H44 H 0.54433 0.8743 0.03143 0.0
H45 H 0.63665 0.81521 0.95424 0.0
H46 H 0.64301 0.82186 0.0679 0.0
H47 H 0.58708 0.75931 0.88316 0.0
H48 H 0.54869 0.6689 0.02615 0.0
H49 H 0.61063 0.77246 0.15596 0.0
C50 C 0.5896 0.83728 0.94192 0.0
C51 C 0.56977 0.85465 0.9481 0.0
C52 C 0.59834 0.8255 0.01582 0.0
C53 C 0.58698 0.83122 0.09448 0.0
C54 C 0.56767 0.84884 0.09921 0.0
C55 C 0.55836 0.85957 0.02622 0.0
C56 C 0.62223 0.80969 0.01352 0.0
C57 C 0.60042 0.77052 0.01919 0.0
C58 C 0.58384 0.7483 0.94416 0.0
C59 C 0.56556 0.71185 0.94755 0.0
C60 C 0.56216 0.69737 0.02497 0.0
C61 C 0.57827 0.71885 0.09994 0.0
C62 C 0.59734 0.75566 0.09789 0.0
H63 H 0.77241 0.58322 0.90734 0.0
H64 H 0.77886 0.58909 0.18166 0.0
H65 H 0.67607 0.54144 0.03974 0.0
H66 H 0.82838 0.6248 -0.0113 0.0
H67 H 0.83175 0.62789 0.10232 0.0
H68 H 0.84336 0.5854 0.90787 0.0
H69 H 0.88728 0.53295 0.04942 0.0
H70 H 0.8349 0.58143 0.17881 0.0
C71 C 0.75936 0.57726 0.96653 0.0
C72 C 0.72203 0.56073 0.96482 0.0
C73 C 0.78013 0.58767 0.04438 0.0
C74 C 0.76295 0.58053 0.12122 0.0
C75 C 0.72534 0.56353 0.11988 0.0
C76 C 0.70503 0.55369 0.04131 0.0
C77 C 0.82043 0.60888 0.04458 0.0
C78 C 0.83659 0.58535 0.04326 0.0
C79 C 0.84769 0.57641 0.96734 0.0
C80 C 0.86583 0.5573 0.96912 0.0
C81 C 0.87228 0.54669 0.04701 0.0
C82 C 0.86093 0.55524 0.12245 0.0
C83 C 0.84274 0.57403 0.12007 0.0
H84 H 0.29622 0.78983 0.96702 0.0
H85 H 0.30836 0.80012 0.2411 0.0
H86 H 0.35858 0.8924 0.10283 0.0
H87 H 0.29208 0.74129 0.05121 0.0
H88 H 0.28949 0.7439 0.16359 0.0
H89 H 0.23818 0.7154 0.95809 0.0
H90 H 0.13771 0.67346 0.07208 0.0
H91 H 0.23542 0.74276 0.22414 0.0
C92 C 0.30584 0.80633 0.02672 0.0
C93 C 0.32712 0.84291 0.02605 0.0
C94 C 0.29901 0.79066 0.10405 0.0
C95 C 0.3127 0.81214 0.18132 0.0
C96 C 0.33409 0.84885 0.18135 0.0
C97 C 0.34103 0.86418 0.10342 0.0
C98 C 0.28179 0.75119 0.10324 0.0
C99 C 0.24146 0.73299 0.09131 0.0
C100 C 0.22321 0.71467 0.01238 0.0
C101 C 0.18573 0.69329 0.00599 0.0
C102 C 0.16658 0.69116 0.0765 0.0
C103 C 0.18432 0.70877 0.15466 0.0
C104 C 0.22165 0.73035 0.16226 0.0
H105 H 0.5428 0.29666 0.0474 0.0
H106 H 0.5139 0.2926 0.30749 0.0
H107 H 0.481 0.34324 0.13044 0.0
H108 H 0.57093 0.27865 0.15335 0.0
H109 H 0.5675 0.28822 0.26324 0.0
H110 H 0.50945 0.22332 0.07741 0.0
H111 H 0.4815 0.13397 0.21912 0.0
H112 H 0.54731 0.2382 0.34228 0.0
C113 C 0.52815 0.30118 0.09615 0.0
C114 C 0.51056 0.32001 0.07914 0.0
C115 C 0.52874 0.29038 0.17867 0.0
C116 C 0.51158 0.29863 0.24269 0.0
C117 C 0.49472 0.31788 0.22461 0.0
C118 C 0.49312 0.32723 0.14274 0.0
C119 C 0.55152 0.27452 0.20209 0.0
C120 C 0.52894 0.23551 0.21042 0.0
C121 C 0.5093 0.2127 0.13783 0.0
C122 C 0.49236 0.17623 0.14172 0.0
C123 C 0.49374 0.16235 0.21771 0.0
C124 C 0.51354 0.1844 0.28961 0.0
C125 C 0.53097 0.2211 0.28692 0.0
C126 C 0.96317 0.41062 0.80865 0.0
C127 C 0.07335 0.46491 0.75381 0.0
C128 C 0.05833 0.57706 0.72435 0.0
Mg129 Mg 1.0032 0.43102 0.64485 0.0
O130 O 0.99471 0.46818 0.67183 0.0
Mg131 Mg 0.01658 0.49633 0.78418 0.0
Mg132 Mg 1.01308 0.50578 0.59388 0.0
O133 O 0.0315 0.54376 0.51697 0.0
Mg134 Mg 0.02209 0.58019 0.54768 0.0
Mg135 Mg 1.00934 0.51573 0.40494 0.0
C136 C 0.97033 0.43412 0.46357 0.0
C137 C 0.06873 0.49652 0.47277 0.0
O138 O 0.97818 0.44304 0.83918 0.0
O139 O 0.96939 0.40054 0.73699 0.0
O140 O 0.06127 0.48262 0.79234 0.0
O141 O 0.05736 0.44488 0.68606 0.0
O142 O 0.97974 0.41798 0.51452 0.0
O143 O 0.97714 0.46598 0.48136 0.0
C144 C 0.95888 0.51773 0.71615 0.0
O145 O 0.96837 0.51757 0.63986 0.0
O146 O 0.97299 0.51035 0.77807 0.0
O147 O 0.04575 0.57011 0.35033 0.0
O148 O 0.05345 0.61196 0.45306 0.0
O149 O 0.96345 0.52736 0.40069 0.0
C150 C 0.05938 0.60252 0.38019 0.0
O151 O 0.9665 0.56334 0.51054 0.0
O152 O 0.04861 0.59395 0.67647 0.0
C153 C 0.95048 0.54351 0.44238 0.0
O154 O 0.04953 0.54481 0.70535 0.0
O155 O 0.05813 0.49491 0.54834 0.0
O156 O 0.05468 0.50406 0.41091 0.0
C157 C 0.46918 0.0493 0.86913 0.0
C158 C 0.41718 0.94604 0.74476 0.0
C159 C 0.54739 0.96205 0.71585 0.0
Mg160 Mg 0.45488 0.01892 0.68079 0.0
O161 O 0.50066 0.02565 0.71044 0.0
Mg162 Mg 0.5053 0.99993 0.80625 0.0
Mg163 Mg 0.5199 0.0089 0.61915 0.0
O164 O 0.53865 0.99227 0.52663 0.0
Mg165 Mg 0.58385 0.9973 0.54892 0.0
Mg166 Mg 0.5328 0.01702 0.4297 0.0
C167 C 0.49603 0.05889 0.52296 0.0
C168 C 0.45305 0.95962 0.47487 0.0
O169 O 0.48769 0.03452 0.88714 0.0
O170 O 0.45444 0.04648 0.79521 0.0
O171 O 0.44644 0.95642 0.78941 0.0
O172 O 0.41426 0.96413 0.68783 0.0
O173 O 0.46916 0.04918 0.56871 0.0
O174 O 0.51862 0.0482 0.53189 0.0
C175 C 0.58591 0.05797 0.76481 0.0
O176 O 0.57681 0.05028 0.68448 0.0
O177 O 0.56371 0.043 0.82075 0.0
O178 O 0.54542 0.97933 0.34733 0.0
O179 O 0.57803 0.96557 0.43642 0.0
O180 O 0.59212 0.05947 0.43926 0.0
C181 C 0.56129 0.96201 0.36478 0.0
O182 O 0.62514 0.05091 0.53657 0.0
O183 O 0.57283 0.9713 0.66593 0.0
C184 C 0.62187 0.06919 0.48091 0.0
O185 O 0.52271 0.97024 0.70682 0.0
O186 O 0.46267 0.96693 0.55495 0.0
O187 O 0.47469 0.97523 0.41879 0.0
C188 C 0.55752 0.59579 0.3483 0.0
C189 C 0.61399 0.54406 0.41747 0.0
C190 C 0.48311 0.43354 0.47905 0.0
Mg191 Mg 0.5817 0.58084 0.52054 0.0
O192 O 0.53471 0.54271 0.50188 0.0
Mg193 Mg 0.52343 0.511 0.39595 0.0
Mg194 Mg 0.51924 0.50848 0.58992 0.0
O195 O 0.5042 0.47486 0.67944 0.0
Mg196 Mg 0.45813 0.43524 0.66904 0.0
Mg197 Mg 0.5176 0.50748 0.78541 0.0
C198 C 0.55149 0.58361 0.70085 0.0
C199 C 0.59148 0.52471 0.70227 0.0
O200 O 0.53773 0.56244 0.32592 0.0
O201 O 0.57614 0.60815 0.41952 0.0
O202 O 0.5823 0.52432 0.38247 0.0
O203 O 0.62037 0.56588 0.48183 0.0
O204 O 0.57533 0.59842 0.64745 0.0
O205 O 0.5274 0.55091 0.69204 0.0
C206 C 0.44817 0.49277 0.47509 0.0
O207 O 0.46137 0.49499 0.55083 0.0
O208 O 0.46645 0.49834 0.41002 0.0
O209 O 0.50864 0.45819 0.85543 0.0
O210 O 0.47124 0.41047 0.76588 0.0
O211 O 0.45951 0.4943 0.80524 0.0
C212 C 0.492 0.42477 0.83382 0.0
O213 O 0.41961 0.44952 0.7152 0.0
O214 O 0.46139 0.41932 0.53718 0.0
C215 C 0.42728 0.47348 0.77529 0.0
O216 O 0.50952 0.4655 0.48765 0.0
O217 O 0.57751 0.52163 0.62699 0.0
O218 O 0.57407 0.5207 0.76804 0.0
C219 C 0.14454 0.48642 0.36018 0.0
C220 C 0.16309 0.48811 0.30278 0.0
C221 C 0.12038 0.48729 0.41771 0.0
C222 C 0.09775 0.49048 0.45377 0.0
C223 C 0.69579 0.13736 0.3421 0.0
C224 C 0.71095 0.14653 0.27782 0.0
C225 C 0.67484 0.11926 0.40825 0.0
C226 C 0.65328 0.09679 0.44875 0.0
C227 C 0.57154 0.67797 0.21986 0.0
C228 C 0.57732 0.70114 0.17452 0.0
C229 C 0.56387 0.64714 0.25935 0.0
C230 C 0.55884 0.62145 0.29399 0.0
C231 C 0.88094 0.54346 0.27198 0.0
C232 C 0.8718 0.54885 0.20392 0.0
C233 C 0.8989 0.54221 0.34723 0.0
C234 C 0.92137 0.54484 0.39954 0.0
C235 C 0.36849 0.88859 0.32503 0.0
C236 C 0.35263 0.87013 0.26022 0.0
C237 C 0.39232 0.91115 0.39478 0.0
C238 C 0.41772 0.93188 0.44286 0.0
C239 C 0.47979 0.35558 0.33006 0.0
C240 C 0.48679 0.33594 0.29064 0.0
C241 C 0.47931 0.38445 0.37107 0.0
C242 C 0.4834 0.40932 0.41592 0.0
C243 C 0.55609 0.89017 0.84073 0.0
C244 C 0.56431 0.87224 0.88008 0.0
C245 C 0.54777 0.91436 0.80607 0.0
C246 C 0.54365 0.93579 0.77069 0.0
C247 C 0.6821 0.54668 0.82089 0.0
C248 C 0.70136 0.55353 0.88485 0.0
C249 C 0.65534 0.53941 0.75599 0.0
C250 C 0.62789 0.53303 0.71733 0.0
C251 C 0.14278 0.64682 0.88316 0.0
C252 C 0.16592 0.66933 0.93262 0.0
C253 C 0.11284 0.61964 0.83323 0.0
C254 C 0.08802 0.59817 0.78561 0.0
C255 C 0.47004 0.12656 0.01858 0.0
C256 C 0.48009 0.15242 0.06655 0.0
C257 C 0.46654 0.09669 -0.0279 0.0
C258 C 0.46896 0.07453 0.92958 0.0
C259 C 0.35824 0.48202 0.92889 0.0
C260 C 0.34378 0.48542 -0.00966 0.0
C261 C 0.37871 0.47806 0.86494 0.0
C262 C 0.39899 0.47421 0.82022 0.0
C263 C 0.88604 0.32732 0.91045 0.0
C264 C 0.86988 0.30489 0.95685 0.0
C265 C 0.91164 0.35801 0.8772 0.0
C266 C 0.93542 0.3839 0.85137 0.0
C267 C 0.89381 0.54361 0.83449 0.0
C268 C 0.88035 0.55067 0.89305 0.0
C269 C 0.91312 0.53524 0.77513 0.0
C270 C 0.93281 0.52791 0.73724 0.0
C271 C 0.34821 0.87275 0.88177 0.0
C272 C 0.33798 0.85817 0.94605 0.0
C273 C 0.3656 0.89387 0.81521 0.0
C274 C 0.38575 0.917 0.77365 0.0
C275 C 0.51119 0.35641 0.95467 0.0
C276 C 0.51393 0.33746 0.0029 0.0
C277 C 0.50575 0.38133 0.91406 0.0
C278 C 0.50059 0.40252 0.88041 0.0
C279 C 0.1471 0.47059 0.92288 0.0
C280 C 0.1636 0.47629 -0.00909 0.0
C281 C 0.12502 0.46624 0.84947 0.0
C282 C 0.10208 0.4633 0.7981 0.0
C283 C 0.67866 0.12193 0.90308 0.0
C284 C 0.70028 0.13574 0.96421 0.0
C285 C 0.64988 0.10261 0.83963 0.0
C286 C 0.62231 0.08333 0.79627 0.0
C287 C 0.54741 0.66203 0.82814 0.0
C288 C 0.55614 0.68833 0.87294 0.0
C289 C 0.54388 0.6309 0.78973 0.0
C290 C 0.54475 0.60676 0.75307 0.0
C291 C 0.5168 0.14533 0.40384 0.0
C292 C 0.51839 0.16761 0.36028 0.0
C293 C 0.51155 0.11511 0.44247 0.0
C294 C 0.50589 0.08944 0.4778 0.0
C295 C 0.35827 0.47505 0.36077 0.0
C296 C 0.3435 0.47879 0.29939 0.0
C297 C 0.38379 0.47736 0.42289 0.0
C298 C 0.41157 0.48365 0.45944 0.0
C299 C 0.89977 0.35336 0.30396 0.0
C300 C 0.88247 0.32615 0.25923 0.0
C301 C 0.92337 0.38633 0.34927 0.0
C302 C 0.94438 0.41188 0.39559 0.0
C303 C 0.55746 0.88086 0.22782 0.0
C304 C 0.56341 0.86307 0.17837 0.0
C305 C 0.55519 0.90846 0.27011 0.0
C306 C 0.5562 0.93349 0.3074 0.0
C307 C 0.68953 0.55277 0.25945 0.0
C308 C 0.70734 0.55833 0.19835 0.0
C309 C 0.66589 0.54842 0.32435 0.0
C310 C 0.64356 0.54764 0.37008 0.0
C311 C 0.13935 0.6816 0.27024 0.0
C312 C 0.16383 0.69797 0.22742 0.0
C313 C 0.10968 0.65481 0.30603 0.0
C314 C 0.0865 0.62981 0.33669 0.0
loop_
_geom_bond_atom_site_label_1
_geom_bond_atom_site_label_2
_geom_bond_distance
_geom_bond_site_symmetry_2
_ccdc_geom_bond_type
H0 C8 0.930 . S
H1 C11 0.930 . S
H2 C13 0.930 . S
H3 C14 0.970 . S
H4 C14 0.970 . S
H5 C16 0.930 . S
H6 C18 0.930 . S
H7 C20 0.930 . S
C8 H0 0.930 . S
C8 C9 1.382 . S
C8 C10 1.426 . S
C9 C8 1.382 . S
C9 C13 1.389 . S
C10 C8 1.426 . S
C10 C11 1.375 . S
C10 C14 1.532 . S
C11 H1 0.930 . S
C11 C10 1.375 . S
C11 C12 1.416 . S
C12 C11 1.416 . S
C12 C13 1.371 . S
C13 H2 0.930 . S
C13 C9 1.389 . S
C13 C12 1.371 . S
C14 H3 0.970 . S
C14 H4 0.970 . S
C14 C10 1.532 . S
C14 C15 1.499 . S
C15 C14 1.499 . S
C15 C16 1.370 . S
C15 C20 1.415 . S
C16 H5 0.930 . S
C16 C15 1.370 . S
C16 C17 1.407 . S
C17 C16 1.407 . S
C17 C18 1.365 . S
C18 H6 0.930 . S
C18 C17 1.365 . S
C18 C19 1.393 . S
C19 C18 1.393 . S
C19 C20 1.387 . S
C20 H7 0.930 . S
C20 C15 1.415 . S
C20 C19 1.387 . S
H21 C29 0.930 . S
H22 C32 0.930 . S
H23 C34 0.930 . S
H24 C35 0.970 . S
H25 C35 0.970 . S
H26 C37 0.930 . S
H27 C39 0.930 . S
H28 C41 0.930 . S
C29 H21 0.930 . S
C29 C30 1.382 . S
C29 C31 1.426 . S
C30 C29 1.382 . S
C30 C34 1.389 . S
C31 C29 1.426 . S
C31 C32 1.375 . S
C31 C35 1.532 . S
C32 H22 0.930 . S
C32 C31 1.375 . S
C32 C33 1.416 . S
C33 C32 1.416 . S
C33 C34 1.371 . S
C34 H23 0.930 . S
C34 C30 1.389 . S
C34 C33 1.371 . S
C35 H24 0.970 . S
C35 H25 0.970 . S
C35 C31 1.532 . S
C35 C36 1.499 . S
C36 C35 1.499 . S
C36 C37 1.370 . S
C36 C41 1.415 . S
C37 H26 0.930 . S
C37 C36 1.370 . S
C37 C38 1.407 . S
C38 C37 1.407 . S
C38 C39 1.365 . S
C39 H27 0.930 . S
C39 C38 1.365 . S
C39 C40 1.393 . S
C40 C39 1.393 . S
C40 C41 1.387 . S
C41 H28 0.930 . S
C41 C36 1.415 . S
C41 C40 1.387 . S
H42 C50 0.930 . S
H43 C53 0.930 . S
H44 C55 0.930 . S
H45 C56 0.970 1_556 S
H46 C56 0.970 . S
H47 C58 0.930 . S
H48 C60 0.930 . S
H49 C62 0.930 . S
C50 H42 0.930 . S
C50 C51 1.382 . S
C50 C52 1.426 1_556 S
C51 C50 1.382 . S
C51 C55 1.389 1_556 S
C52 C50 1.426 1_554 S
C52 C53 1.375 . S
C52 C56 1.532 . S
C53 H43 0.930 . S
C53 C52 1.375 . S
C53 C54 1.416 . S
C54 C53 1.416 . S
C54 C55 1.371 . S
C55 H44 0.930 . S
C55 C51 1.389 1_554 S
C55 C54 1.371 . S
C56 H45 0.970 1_554 S
C56 H46 0.970 . S
C56 C52 1.532 . S
C56 C57 1.499 . S
C57 C56 1.499 . S
C57 C58 1.370 1_554 S
C57 C62 1.415 . S
C58 H47 0.930 . S
C58 C57 1.370 1_556 S
C58 C59 1.407 . S
C59 C58 1.407 . S
C59 C60 1.365 1_556 S
C60 H48 0.930 . S
C60 C59 1.365 1_554 S
C60 C61 1.393 . S
C61 C60 1.393 . S
C61 C62 1.387 . S
C62 H49 0.930 . S
C62 C57 1.415 . S
C62 C61 1.387 . S
H63 C71 0.930 . S
H64 C74 0.930 . S
H65 C76 0.930 . S
H66 C77 0.970 . S
H67 C77 0.970 . S
H68 C79 0.923 1_556 S
H69 C81 0.930 . S
H70 C83 0.930 . S
C71 H63 0.930 . S
C71 C72 1.382 . S
C71 C73 1.426 1_556 S
C72 C71 1.382 . S
C72 C76 1.389 1_556 S
C73 C71 1.426 1_554 S
C73 C74 1.375 . S
C73 C77 1.532 . S
C74 H64 0.930 . S
C74 C73 1.375 . S
C74 C75 1.416 . S
C75 C74 1.416 . S
C75 C76 1.371 . S
C76 H65 0.930 . S
C76 C72 1.389 1_554 S
C76 C75 1.371 . S
C77 H66 0.970 . S
C77 H67 0.970 . S
C77 C73 1.532 . S
C77 C78 1.499 . S
C78 C77 1.499 . S
C78 C79 1.377 . S
C78 C83 1.415 . S
C79 H68 0.923 1_554 S
C79 C78 1.377 . S
C79 C80 1.406 1_554 S
C80 C79 1.406 1_556 S
C80 C81 1.365 1_556 S
C81 H69 0.930 . S
C81 C80 1.365 1_554 S
C81 C82 1.393 . S
C82 C81 1.393 . S
C82 C83 1.387 . S
C83 H70 0.930 . S
C83 C78 1.415 . S
C83 C82 1.387 . S
H84 C92 0.930 1_556 S
H85 C95 0.930 . S
H86 C97 0.930 . S
H87 C98 0.970 . S
H88 C98 0.970 . S
H89 C100 0.930 1_556 S
H90 C102 0.930 . S
H91 C104 0.930 . S
C92 H84 0.930 1_554 S
C92 C93 1.382 . S
C92 C94 1.426 . S
C93 C92 1.382 . S
C93 C97 1.389 . S
C94 C92 1.426 . S
C94 C95 1.375 . S
C94 C98 1.532 . S
C95 H85 0.930 . S
C95 C94 1.375 . S
C95 C96 1.416 . S
C96 C95 1.416 . S
C96 C97 1.371 . S
C97 H86 0.930 . S
C97 C93 1.389 . S
C97 C96 1.371 . S
C98 H87 0.970 . S
C98 H88 0.970 . S
C98 C94 1.532 . S
C98 C99 1.499 . S
C99 C98 1.499 . S
C99 C100 1.370 . S
C99 C104 1.415 . S
C100 H89 0.930 1_554 S
C100 C99 1.370 . S
C100 C101 1.407 . S
C101 C100 1.407 . S
C101 C102 1.365 . S
C102 H90 0.930 . S
C102 C101 1.365 . S
C102 C103 1.393 . S
C103 C102 1.393 . S
C103 C104 1.387 . S
C104 H91 0.930 . S
C104 C99 1.415 . S
C104 C103 1.387 . S
H105 C113 0.930 . S
H106 C116 0.930 . S
H107 C118 0.930 . S
H108 C119 0.970 . S
H109 C119 0.970 . S
H110 C121 0.930 . S
H111 C123 0.930 . S
H112 C125 0.930 . S
C113 H105 0.930 . S
C113 C114 1.382 . S
C113 C115 1.426 . S
C114 C113 1.382 . S
C114 C118 1.389 . S
C115 C113 1.426 . S
C115 C116 1.375 . S
C115 C119 1.532 . S
C116 H106 0.930 . S
C116 C115 1.375 . S
C116 C117 1.416 . S
C117 C116 1.416 . S
C117 C118 1.371 . S
C118 H107 0.930 . S
C118 C114 1.389 . S
C118 C117 1.371 . S
C119 H108 0.970 . S
C119 H109 0.970 . S
C119 C115 1.532 . S
C119 C120 1.499 . S
C120 C119 1.499 . S
C120 C121 1.370 . S
C120 C125 1.415 . S
C121 H110 0.930 . S
C121 C120 1.370 . S
C121 C122 1.407 . S
C122 C121 1.407 . S
C122 C123 1.365 . S
C123 H111 0.930 . S
C123 C122 1.365 . S
C123 C124 1.393 . S
C124 C123 1.393 . S
C124 C125 1.387 . S
C125 H112 0.930 . S
C125 C120 1.415 . S
C125 C124 1.387 . S
C126 O138 1.241 . S
C126 O139 1.280 . S
C127 O140 1.277 . S
C127 O141 1.245 . S
C128 O152 1.247 . S
C128 O154 1.289 . S
Mg129 O130 1.926 . S
Mg129 O139 1.984 . S
Mg129 O141 1.988 1_655 S
Mg129 O142 2.061 . S
O130 Mg129 1.926 . S
O130 Mg131 1.986 1_655 S
O130 Mg132 1.917 1_655 S
Mg131 O130 1.986 1_455 S
Mg131 O138 2.042 1_455 S
Mg131 O140 2.041 . S
Mg131 O146 2.038 1_455 S
Mg131 O154 2.238 . S
Mg132 O130 1.917 1_455 S
Mg132 O133 1.917 . S
Mg132 O143 2.106 1_455 S
Mg132 O145 2.079 1_455 S
Mg132 O154 2.106 . S
Mg132 O155 2.079 . S
O133 Mg132 1.917 . S
O133 Mg134 1.926 . S
O133 Mg135 1.986 . S
Mg134 O133 1.926 . S
Mg134 O148 1.984 . S
Mg134 O151 1.988 1_455 S
Mg134 O152 2.061 . S
Mg135 O133 1.986 . S
Mg135 O143 2.238 1_455 S
Mg135 O147 2.042 . S
Mg135 O149 2.041 1_455 S
Mg135 O156 2.038 . S
C136 O142 1.247 . S
C136 O143 1.289 . S
C137 O155 1.245 . S
C137 O156 1.274 . S
O138 C126 1.241 . S
O138 Mg131 2.042 1_655 S
O139 C126 1.280 . S
O139 Mg129 1.984 . S
O140 C127 1.277 . S
O140 Mg131 2.041 . S
O141 C127 1.245 . S
O141 Mg129 1.988 1_455 S
O142 Mg129 2.061 . S
O142 C136 1.247 . S
O143 Mg132 2.106 1_655 S
O143 Mg135 2.238 1_655 S
O143 C136 1.289 . S
C144 O145 1.245 . S
C144 O146 1.274 . S
O145 Mg132 2.079 1_655 S
O145 C144 1.245 . S
O146 Mg131 2.038 1_655 S
O146 C144 1.274 . S
O147 Mg135 2.042 . S
O147 C150 1.241 . S
O148 Mg134 1.984 . S
O148 C150 1.280 . S
O149 Mg135 2.041 1_655 S
O149 C153 1.277 . S
C150 O147 1.241 . S
C150 O148 1.280 . S
O151 Mg134 1.988 1_655 S
O151 C153 1.245 . S
O152 C128 1.247 . S
O152 Mg134 2.061 . S
C153 O149 1.277 . S
C153 O151 1.245 . S
O154 C128 1.289 . S
O154 Mg131 2.238 . S
O154 Mg132 2.106 . S
O155 Mg132 2.079 . S
O155 C137 1.245 . S
O156 Mg135 2.038 . S
O156 C137 1.274 . S
C157 O169 1.241 . S
C157 O170 1.280 . S
C158 O171 1.277 . S
C158 O172 1.245 . S
C159 O183 1.247 . S
C159 O185 1.289 . S
Mg160 O161 1.926 . S
Mg160 O170 1.984 . S
Mg160 O172 1.988 1_545 S
Mg160 O173 2.061 . S
O161 Mg160 1.926 . S
O161 Mg162 1.986 . S
O161 Mg163 1.917 . S
Mg162 O161 1.986 . S
Mg162 O169 2.042 . S
Mg162 O171 2.041 1_545 S
Mg162 O177 2.038 . S
Mg162 O185 2.238 1_545 S
Mg163 O161 1.917 . S
Mg163 O164 1.917 1_545 S
Mg163 O174 2.106 . S
Mg163 O176 2.079 . S
Mg163 O185 2.106 1_545 S
Mg163 O186 2.079 1_545 S
O164 Mg163 1.917 1_565 S
O164 Mg165 1.926 . S
O164 Mg166 1.986 1_565 S
Mg165 O164 1.926 . S
Mg165 O179 1.984 . S
Mg165 O182 1.988 1_565 S
Mg165 O183 2.061 . S
Mg166 O164 1.986 1_545 S
Mg166 O174 2.238 . S
Mg166 O178 2.042 1_545 S
Mg166 O180 2.041 . S
Mg166 O187 2.038 1_545 S
C167 O173 1.247 . S
C167 O174 1.289 . S
C168 O186 1.245 . S
C168 O187 1.274 . S
O169 C157 1.241 . S
O169 Mg162 2.042 . S
O170 C157 1.280 . S
O170 Mg160 1.984 . S
O171 C158 1.277 . S
O171 Mg162 2.041 1_565 S
O172 C158 1.245 . S
O172 Mg160 1.988 1_565 S
O173 Mg160 2.061 . S
O173 C167 1.247 . S
O174 Mg163 2.106 . S
O174 Mg166 2.238 . S
O174 C167 1.289 . S
C175 O176 1.245 . S
C175 O177 1.274 . S
O176 Mg163 2.079 . S
O176 C175 1.245 . S
O177 Mg162 2.038 . S
O177 C175 1.274 . S
O178 Mg166 2.042 1_565 S
O178 C181 1.241 . S
O179 Mg165 1.984 . S
O179 C181 1.280 . S
O180 Mg166 2.041 . S
O180 C184 1.277 . S
C181 O178 1.241 . S
C181 O179 1.280 . S
O182 Mg165 1.988 1_545 S
O182 C184 1.245 . S
O183 C159 1.247 . S
O183 Mg165 2.061 . S
C184 O180 1.277 . S
C184 O182 1.245 . S
O185 C159 1.289 . S
O185 Mg162 2.238 1_565 S
O185 Mg163 2.106 1_565 S
O186 Mg163 2.079 1_565 S
O186 C168 1.245 . S
O187 Mg166 2.038 1_565 S
O187 C168 1.274 . S
C188 O200 1.241 . S
C188 O201 1.280 . S
C189 O202 1.277 . S
C189 O203 1.245 . S
C190 O214 1.247 . S
C190 O216 1.289 . S
Mg191 O192 1.926 . S
Mg191 O201 1.984 . S
Mg191 O203 1.988 . S
Mg191 O204 2.061 . S
O192 Mg191 1.926 . S
O192 Mg193 1.986 . S
O192 Mg194 1.917 . S
Mg193 O192 1.986 . S
Mg193 O200 2.042 . S
Mg193 O202 2.041 . S
Mg193 O208 2.038 . S
Mg193 O216 2.238 . S
Mg194 O192 1.917 . S
Mg194 O195 1.917 . S
Mg194 O205 2.106 . S
Mg194 O207 2.079 . S
Mg194 O216 2.106 . S
Mg194 O217 2.079 . S
O195 Mg194 1.917 . S
O195 Mg196 1.926 . S
O195 Mg197 1.986 . S
Mg196 O195 1.926 . S
Mg196 O210 1.984 . S
Mg196 O213 1.988 . S
Mg196 O214 2.061 . S
Mg197 O195 1.986 . S
Mg197 O205 2.238 . S
Mg197 O209 2.042 . S
Mg197 O211 2.041 . S
Mg197 O218 2.038 . S
C198 O204 1.247 . S
C198 O205 1.289 . S
C199 O217 1.245 . S
C199 O218 1.274 . S
O200 C188 1.241 . S
O200 Mg193 2.042 . S
O201 C188 1.280 . S
O201 Mg191 1.984 . S
O202 C189 1.277 . S
O202 Mg193 2.041 . S
O203 C189 1.245 . S
O203 Mg191 1.988 . S
O204 Mg191 2.061 . S
O204 C198 1.247 . S
O205 Mg194 2.106 . S
O205 Mg197 2.238 . S
O205 C198 1.289 . S
C206 O207 1.245 . S
C206 O208 1.274 . S
O207 Mg194 2.079 . S
O207 C206 1.245 . S
O208 Mg193 2.038 . S
O208 C206 1.274 . S
O209 Mg197 2.042 . S
O209 C212 1.241 . S
O210 Mg196 1.984 . S
O210 C212 1.280 . S
O211 Mg197 2.041 . S
O211 C215 1.277 . S
C212 O209 1.241 . S
C212 O210 1.280 . S
O213 Mg196 1.988 . S
O213 C215 1.245 . S
O214 C190 1.247 . S
O214 Mg196 2.061 . S
C215 O211 1.277 . S
C215 O213 1.245 . S
O216 C190 1.289 . S
O216 Mg193 2.238 . S
O216 Mg194 2.106 . S
O217 Mg194 2.079 . S
O217 C199 1.245 . S
O218 Mg197 2.038 . S
O218 C199 1.274 . S
C219 C220 1.170 . S
C219 C221 1.380 . S
C220 C219 1.170 . S
C221 C219 1.380 . S
C221 C222 1.170 . S
C222 C221 1.170 . S
C223 C224 1.170 . S
C223 C225 1.380 . S
C224 C223 1.170 . S
C225 C223 1.380 . S
C225 C226 1.170 . S
C226 C225 1.170 . S
C227 C228 1.170 . S
C227 C229 1.380 . S
C228 C227 1.170 . S
C229 C227 1.380 . S
C229 C230 1.170 . S
C230 C229 1.170 . S
C231 C232 1.170 . S
C231 C233 1.380 . S
C232 C231 1.170 . S
C233 C231 1.380 . S
C233 C234 1.170 . S
C234 C233 1.170 . S
C235 C236 1.170 . S
C235 C237 1.380 . S
C236 C235 1.170 . S
C237 C235 1.380 . S
C237 C238 1.170 . S
C238 C237 1.170 . S
C239 C240 1.170 . S
C239 C241 1.380 . S
C240 C239 1.170 . S
C241 C239 1.380 . S
C241 C242 1.170 . S
C242 C241 1.170 . S
C243 C244 1.170 . S
C243 C245 1.380 . S
C244 C243 1.170 . S
C245 C243 1.380 . S
C245 C246 1.170 . S
C246 C245 1.170 . S
C247 C248 1.170 . S
C247 C249 1.380 . S
C248 C247 1.170 . S
C249 C247 1.380 . S
C249 C250 1.170 . S
C250 C249 1.170 . S
C251 C252 1.170 . S
C251 C253 1.380 . S
C252 C251 1.170 . S
C253 C251 1.380 . S
C253 C254 1.170 . S
C254 C253 1.170 . S
C255 C256 1.170 . S
C255 C257 1.380 1_554 S
C256 C255 1.170 . S
C257 C255 1.380 1_556 S
C257 C258 1.170 . S
C258 C257 1.170 . S
C259 C260 1.170 1_556 S
C259 C261 1.380 . S
C260 C259 1.170 1_554 S
C261 C259 1.380 . S
C261 C262 1.170 . S
C262 C261 1.170 . S
C263 C264 1.170 1_556 S
C263 C265 1.380 . S
C264 C263 1.170 1_554 S
C265 C263 1.380 . S
C265 C266 1.170 . S
C266 C265 1.170 . S
C267 C268 1.170 . S
C267 C269 1.380 . S
C268 C267 1.170 . S
C269 C267 1.380 . S
C269 C270 1.170 . S
C270 C269 1.170 . S
C271 C272 1.170 . S
C271 C273 1.380 . S
C272 C271 1.170 . S
C273 C271 1.380 . S
C273 C274 1.170 . S
C274 C273 1.170 . S
C275 C276 1.170 . S
C275 C277 1.380 1_554 S
C276 C275 1.170 . S
C277 C275 1.380 1_556 S
C277 C278 1.170 . S
C278 C277 1.170 . S
C279 C280 1.170 1_556 S
C279 C281 1.380 . S
C280 C279 1.170 1_554 S
C281 C279 1.380 . S
C281 C282 1.170 . S
C282 C281 1.170 . S
C283 C284 1.170 . S
C283 C285 1.380 . S
C284 C283 1.170 . S
C285 C283 1.380 . S
C285 C286 1.170 . S
C286 C285 1.170 . S
C287 C288 1.170 . S
C287 C289 1.380 . S
C288 C287 1.170 . S
C289 C287 1.380 . S
C289 C290 1.170 . S
C290 C289 1.170 . S
C291 C292 1.170 . S
C291 C293 1.380 . S
C292 C291 1.170 . S
C293 C291 1.380 . S
C293 C294 1.170 . S
C294 C293 1.170 . S
C295 C296 1.170 . S
C295 C297 1.380 . S
C296 C295 1.170 . S
C297 C295 1.380 . S
C297 C298 1.170 . S
C298 C297 1.170 . S
C299 C300 1.170 . S
C299 C301 1.380 . S
C300 C299 1.170 . S
C301 C299 1.380 . S
C301 C302 1.170 . S
C302 C301 1.170 . S
C303 C304 1.170 . S
C303 C305 1.380 . S
C304 C303 1.170 . S
C305 C303 1.380 . S
C305 C306 1.170 . S
C306 C305 1.170 . S
C307 C308 1.170 . S
C307 C309 1.380 . S
C308 C307 1.170 . S
C309 C307 1.380 . S
C309 C310 1.170 . S
C310 C309 1.170 . S
C311 C312 1.170 . S
C311 C313 1.380 . S
C312 C311 1.170 . S
C313 C311 1.380 . S
C313 C314 1.170 . S
C314 C313 1.170 . S
C220 C12 1.758 . S
C222 C137 1.835 . S
C224 C40 1.561 . S
C226 C184 1.561 . S
C230 C188 1.707 . S
C228 C61 1.765 . S
C234 C153 1.458 . S
C232 C82 1.497 . S
C236 C96 1.703 . S
C238 C168 1.739 . S
C242 C190 1.242 . S
C240 C117 1.089 . S
C246 C159 1.613 . S
C244 C51 1.572 . S
C248 C72 1.480 . S
C250 C199 1.457 . S
C254 C128 1.484 . S
C252 C101 1.410 1_556 S
C256 C122 1.396 . S
C258 C157 1.397 . S
C260 C17 1.774 . S
C262 C215 1.840 . S
C266 C126 1.484 . S
C264 C30 1.513 . S
C270 C144 1.842 . S
C268 C80 1.848 . S
C274 C158 1.556 . S
C272 C93 1.493 1_556 S
C278 C212 1.737 . S
C276 C114 1.699 . S
C282 C127 1.464 . S
C280 C9 1.425 . S
C286 C175 1.750 . S
C284 C38 1.801 1_556 S
C288 C59 1.155 . S
C290 C198 1.186 . S
C294 C167 1.566 . S
C292 C124 1.478 . S
C298 C206 1.455 . S
C296 C19 1.399 . S
C302 C136 1.455 . S
C300 C33 1.495 . S
C306 C181 1.395 . S
C304 C54 1.386 . S
C308 C75 1.799 . S
C310 C189 1.803 . S
C312 C103 1.396 . S
C314 C150 1.483 . S
