# Generated by pormake.
# Topology csq, (4,8)-cn, num edge types: 1
# Building blocks:
#     Node 0, Type 0, BuildingBlock: MUDLON_clean_linker_0, # of connection points: 4
#     Node 1, Type 0, BuildingBlock: MUDLON_clean_linker_0, # of connection points: 4
#     Node 2, Type 0, BuildingBlock: MUDLON_clean_linker_0, # of connection points: 4
#     Node 3, Type 0, BuildingBlock: MUDLON_clean_linker_0, # of connection points: 4
#     Node 4, Type 0, BuildingBlock: MUDLON_clean_linker_0, # of connection points: 4
#     Node 5, Type 0, BuildingBlock: MUDLON_clean_linker_0, # of connection points: 4
#     Node 6, Type 1, BuildingBlock: TAGTUT_clean_sbu_1, # of connection points: 8
#     Node 7, Type 1, BuildingBlock: TAGTUT_clean_sbu_1, # of connection points: 8
#     Node 8, Type 1, BuildingBlock: TAGTUT_clean_sbu_1, # of connection points: 8
#     Edge 9, Type (0, 1), BuildingBlock: UVAHIK_clean_linker_0, # of connection points: 2
#     Edge 10, Type (0, 1), BuildingBlock: UVAHIK_clean_linker_0, # of connection points: 2
#     Edge 11, Type (0, 1), BuildingBlock: UVAHIK_clean_linker_0, # of connection points: 2
#     Edge 12, Type (0, 1), BuildingBlock: UVAHIK_clean_linker_0, # of connection points: 2
#     Edge 13, Type (0, 1), BuildingBlock: UVAHIK_clean_linker_0, # of connection points: 2
#     Edge 14, Type (0, 1), BuildingBlock: UVAHIK_clean_linker_0, # of connection points: 2
#     Edge 15, Type (0, 1), BuildingBlock: UVAHIK_clean_linker_0, # of connection points: 2
#     Edge 16, Type (0, 1), BuildingBlock: UVAHIK_clean_linker_0, # of connection points: 2
#     Edge 17, Type (0, 1), BuildingBlock: UVAHIK_clean_linker_0, # of connection points: 2
#     Edge 18, Type (0, 1), BuildingBlock: UVAHIK_clean_linker_0, # of connection points: 2
#     Edge 19, Type (0, 1), BuildingBlock: UVAHIK_clean_linker_0, # of connection points: 2
#     Edge 20, Type (0, 1), BuildingBlock: UVAHIK_clean_linker_0, # of connection points: 2
#     Edge 21, Type (0, 1), BuildingBlock: UVAHIK_clean_linker_0, # of connection points: 2
#     Edge 22, Type (0, 1), BuildingBlock: UVAHIK_clean_linker_0, # of connection points: 2
#     Edge 23, Type (0, 1), BuildingBlock: UVAHIK_clean_linker_0, # of connection points: 2
#     Edge 24, Type (0, 1), BuildingBlock: UVAHIK_clean_linker_0, # of connection points: 2
#     Edge 25, Type (0, 1), BuildingBlock: UVAHIK_clean_linker_0, # of connection points: 2
#     Edge 26, Type (0, 1), BuildingBlock: UVAHIK_clean_linker_0, # of connection points: 2
#     Edge 27, Type (0, 1), BuildingBlock: UVAHIK_clean_linker_0, # of connection points: 2
#     Edge 28, Type (0, 1), BuildingBlock: UVAHIK_clean_linker_0, # of connection points: 2
#     Edge 29, Type (0, 1), BuildingBlock: UVAHIK_clean_linker_0, # of connection points: 2
#     Edge 30, Type (0, 1), BuildingBlock: UVAHIK_clean_linker_0, # of connection points: 2
#     Edge 31, Type (0, 1), BuildingBlock: UVAHIK_clean_linker_0, # of connection points: 2
#     Edge 32, Type (0, 1), BuildingBlock: UVAHIK_clean_linker_0, # of connection points: 2
# Relax obj value: 0.045
# Max RMSD: 0.135
# Mean RMSD: 0.093
data_MOF--net-csq--node1-TAGTUT_clean_sbu_1--node2-MUDLON_clean_linker_0--edge1-UVAHIK_clean_linker_0
_symmetry_space_group_name_H-M    P1
_symmetry_Int_Tables_number       1
_symmetry_cell_setting            triclinic
loop_
_symmetry_equiv_pos_as_xyz
'x, y, z'
_cell_length_a     84.797208
_cell_length_b     83.861632
_cell_length_c     28.517966
_cell_angle_alpha  92.442935
_cell_angle_beta   92.156723
_cell_angle_gamma 119.95419
loop_
_atom_site_label
_atom_site_type_symbol
_atom_site_fract_x
_atom_site_fract_y
_atom_site_fract_z
_atom_type_partial_charge
H0 H 0.32281 0.4826 0.15205 0.0
N1 N 0.29001 0.45167 0.12312 0.0
H2 H 0.34067 0.48778 0.22506 0.0
H3 H 0.28144 0.42981 0.19391 0.0
H4 H 0.29858 0.43552 0.26945 0.0
H5 H 0.29682 0.42978 0.06831 0.0
H6 H 0.315 0.43775 -0.00066 0.0
H7 H 0.30513 0.48484 0.0829 0.0
H8 H 0.32357 0.49305 0.0142 0.0
H9 H 0.28922 0.48178 0.16128 0.0
H10 H 0.25612 0.42777 0.09073 0.0
H11 H 0.26189 0.48391 0.1732 0.0
H12 H 0.2288 0.43005 0.1002 0.0
H13 H 0.19159 0.48787 0.21699 0.0
H14 H 0.17756 0.49375 0.28426 0.0
H15 H 0.13148 0.43839 0.26144 0.0
H16 H 0.14537 0.43294 0.19352 0.0
H17 H 0.15564 0.435 0.08204 0.0
H18 H 0.14538 0.44366 0.01115 0.0
H19 H 0.17415 0.50065 0.06633 0.0
H20 H 0.1838 0.49174 0.13739 0.0
H21 H 0.20937 0.48712 0.14747 0.0
H22 H 0.23773 0.48688 0.13775 0.0
H23 H 0.20996 0.42865 0.16033 0.0
N24 N 0.17574 0.45684 0.15647 0.0
H25 H 0.18148 0.42892 0.16745 0.0
C26 C 0.30088 0.45551 0.16679 0.0
C27 C 0.31747 0.47208 0.17694 0.0
C28 C 0.32761 0.47519 0.2195 0.0
C29 C 0.32118 0.46209 0.25366 0.0
C30 C 0.30427 0.44578 0.24385 0.0
C31 C 0.29436 0.4425 0.20078 0.0
C32 C 0.29969 0.45667 0.08078 0.0
C33 C 0.30244 0.44353 0.05625 0.0
C34 C 0.31276 0.4481 0.01684 0.0
C35 C 0.32073 0.46604 0.00141 0.0
C36 C 0.31769 0.47916 0.0255 0.0
C37 C 0.30711 0.47447 0.06461 0.0
C38 C 0.2746 0.45445 0.12557 0.0
C39 C 0.27607 0.4705 0.14772 0.0
C40 C 0.26041 0.47171 0.15434 0.0
C41 C 0.24303 0.45701 0.13843 0.0
C42 C 0.24183 0.44141 0.11423 0.0
C43 C 0.25743 0.44015 0.10817 0.0
C44 C 0.16935 0.45999 0.20001 0.0
C45 C 0.17857 0.47698 0.22683 0.0
C46 C 0.17058 0.48026 0.26549 0.0
C47 C 0.15327 0.46662 0.2779 0.0
C48 C 0.14464 0.44933 0.25235 0.0
C49 C 0.15259 0.44612 0.21379 0.0
C50 C 0.1704 0.46264 0.11492 0.0
C51 C 0.15972 0.44935 0.0786 0.0
C52 C 0.15402 0.45437 0.03804 0.0
C53 C 0.15898 0.47288 0.03294 0.0
C54 C 0.1699 0.48624 0.0693 0.0
C55 C 0.17553 0.48118 0.10994 0.0
C56 C 0.19322 0.4579 0.15755 0.0
C57 C 0.2094 0.47433 0.15054 0.0
C58 C 0.22568 0.47419 0.14521 0.0
C59 C 0.22613 0.45767 0.14735 0.0
C60 C 0.21007 0.44152 0.15701 0.0
C61 C 0.19381 0.44165 0.16175 0.0
H62 H 0.71433 0.13222 0.19707 0.0
N63 N 0.72217 0.16031 0.1449 0.0
H64 H 0.69919 0.12561 0.27104 0.0
H65 H 0.71081 0.1816 0.19147 0.0
H66 H 0.69538 0.17498 0.2653 0.0
H67 H 0.69663 0.16921 0.11456 0.0
H68 H 0.67698 0.15725 0.04242 0.0
H69 H 0.72031 0.13548 0.08059 0.0
H70 H 0.69992 0.12252 0.00929 0.0
H71 H 0.75445 0.16793 0.18263 0.0
H72 H 0.72797 0.19197 0.10454 0.0
H73 H 0.78368 0.19629 0.18006 0.0
H74 H 0.7571 0.21958 0.09818 0.0
H75 H 0.8769 0.28528 0.14921 0.0
H76 H 0.89661 0.31113 0.20539 0.0
H77 H 0.85085 0.31826 0.23593 0.0
H78 H 0.83158 0.29306 0.17828 0.0
H79 H 0.8327 0.29922 0.09189 0.0
H80 H 0.84483 0.31948 0.0279 0.0
H81 H 0.87408 0.29177 0.98649 0.0
H82 H 0.86131 0.27114 0.04976 0.0
H83 H 0.83589 0.24035 0.12448 0.0
H84 H 0.80639 0.21274 0.13117 0.0
H85 H 0.78079 0.24632 0.13372 0.0
N86 N 0.84302 0.27466 0.11884 0.0
H87 H 0.80999 0.27335 0.12279 0.0
C88 C 0.71352 0.15723 0.18871 0.0
C89 C 0.71029 0.14163 0.21199 0.0
C90 C 0.70176 0.13796 0.2543 0.0
C91 C 0.69614 0.14981 0.27402 0.0
C92 C 0.69945 0.16554 0.25073 0.0
C93 C 0.70821 0.16932 0.20855 0.0
C94 C 0.71007 0.15329 0.10284 0.0
C95 C 0.69754 0.15912 0.0917 0.0
C96 C 0.68616 0.15213 0.05038 0.0
C97 C 0.68677 0.13886 0.0197 0.0
C98 C 0.69926 0.13298 0.03133 0.0
C99 C 0.71082 0.14021 0.07231 0.0
C100 C 0.73902 0.17755 0.14322 0.0
C101 C 0.75499 0.17927 0.16451 0.0
C102 C 0.77173 0.19546 0.16249 0.0
C103 C 0.77297 0.21029 0.13822 0.0
C104 C 0.75681 0.20865 0.11766 0.0
C105 C 0.74 0.1926 0.12073 0.0
C106 C 0.85275 0.28706 0.1595 0.0
C107 C 0.87106 0.29216 0.16897 0.0
C108 C 0.88229 0.30696 0.20114 0.0
C109 C 0.87538 0.31696 0.225 0.0
C110 C 0.85674 0.31115 0.21748 0.0
C111 C 0.84556 0.29645 0.18482 0.0
C112 C 0.84608 0.28358 0.07544 0.0
C113 C 0.84108 0.29697 0.06792 0.0
C114 C 0.84826 0.30875 0.03163 0.0
C115 C 0.86068 0.30746 0.00253 0.0
C116 C 0.86446 0.29308 0.00791 0.0
C117 C 0.85719 0.28126 0.04405 0.0
C118 C 0.82529 0.25895 0.12394 0.0
C119 C 0.82384 0.24165 0.12645 0.0
C120 C 0.80694 0.22591 0.13078 0.0
C121 C 0.79104 0.22716 0.1336 0.0
C122 C 0.79258 0.24463 0.13112 0.0
C123 C 0.80946 0.2603 0.12564 0.0
H124 H 0.60105 0.87956 0.95494 0.0
N125 N 0.59016 0.85756 0.02512 0.0
H126 H 0.58155 0.88256 0.89481 0.0
H127 H 0.55407 0.83191 0.00196 0.0
H128 H 0.53448 0.83518 0.94285 0.0
H129 H 0.55991 0.85472 0.06534 0.0
H130 H 0.55935 0.8766 0.12234 0.0
H131 H 0.61867 0.88706 0.06962 0.0
H132 H 0.61812 0.90936 0.12744 0.0
H133 H 0.61107 0.84471 0.99456 0.0
H134 H 0.56718 0.83219 0.08472 0.0
H135 H 0.61012 0.816 0.01286 0.0
H136 H 0.56659 0.80407 0.1043 0.0
H137 H 0.60646 0.72495 0.08557 0.0
H138 H 0.60013 0.69957 0.02855 0.0
H139 H 0.55451 0.70256 0.96619 0.0
H140 H 0.56067 0.72757 0.02391 0.0
H141 H 0.54899 0.71665 0.10212 0.0
H142 H 0.53417 0.69479 0.16094 0.0
H143 H 0.58596 0.71688 0.241 0.0
H144 H 0.60054 0.73953 0.18289 0.0
H145 H 0.61535 0.77252 0.09242 0.0
H146 H 0.61687 0.80167 0.07612 0.0
H147 H 0.55797 0.77417 0.06871 0.0
N148 N 0.58592 0.74002 0.09965 0.0
H149 H 0.55662 0.74552 0.08635 0.0
C150 C 0.57908 0.85579 0.98341 0.0
C151 C 0.58664 0.86939 0.95122 0.0
C152 C 0.57549 0.87106 0.91692 0.0
C153 C 0.5565 0.8592 0.91467 0.0
C154 C 0.54907 0.84455 0.94417 0.0
C155 C 0.56031 0.84269 0.97796 0.0
C156 C 0.58944 0.86923 0.0628 0.0
C157 C 0.57277 0.86643 0.07864 0.0
C158 C 0.57241 0.87908 0.11116 0.0
C159 C 0.58866 0.89483 0.12876 0.0
C160 C 0.60538 0.89732 0.11442 0.0
C161 C 0.60573 0.88463 0.08154 0.0
C162 C 0.58937 0.84078 0.03827 0.0
C163 C 0.60138 0.83587 0.01862 0.0
C164 C 0.60087 0.81954 0.02935 0.0
C165 C 0.5883 0.80776 0.06014 0.0
C166 C 0.57629 0.81272 0.08 0.0
C167 C 0.57675 0.82899 0.06906 0.0
C168 C 0.58413 0.72819 0.05921 0.0
C169 C 0.59542 0.72044 0.05873 0.0
C170 C 0.59175 0.70592 0.02614 0.0
C171 C 0.57667 0.6989 0.99318 0.0
C172 C 0.56602 0.70745 0.99174 0.0
C173 C 0.56968 0.72194 0.0245 0.0
C174 C 0.57599 0.72996 0.13831 0.0
C175 C 0.55707 0.71749 0.13331 0.0
C176 C 0.54861 0.70468 0.16672 0.0
C177 C 0.55891 0.70383 0.20529 0.0
C178 C 0.57754 0.71721 0.212 0.0
C179 C 0.58594 0.73018 0.17881 0.0
C180 C 0.58598 0.75683 0.09078 0.0
C181 C 0.60281 0.77288 0.0875 0.0
C182 C 0.60362 0.78945 0.07786 0.0
C183 C 0.58753 0.79024 0.07106 0.0
C184 C 0.57064 0.77412 0.07446 0.0
C185 C 0.56985 0.75759 0.08434 0.0
H186 H 0.86572 0.56745 0.11963 0.0
N187 N 0.83501 0.54495 0.06824 0.0
H188 H 0.87785 0.56089 0.19106 0.0
H189 H 0.81857 0.51284 0.11354 0.0
H190 H 0.83034 0.50632 0.18482 0.0
H191 H 0.82975 0.51102 0.03798 0.0
H192 H 0.84245 0.50432 0.96999 0.0
H193 H 0.85124 0.56698 0.00017 0.0
H194 H 0.86295 0.56014 0.92975 0.0
H195 H 0.82966 0.57315 0.08388 0.0
H196 H 0.80105 0.51438 0.05178 0.0
H197 H 0.80074 0.57248 0.08929 0.0
H198 H 0.77197 0.51312 0.06134 0.0
H199 H 0.71321 0.56923 0.14538 0.0
H200 H 0.69464 0.56222 0.21341 0.0
H201 H 0.6806 0.50514 0.19473 0.0
H202 H 0.69957 0.51245 0.12688 0.0
H203 H 0.68972 0.51391 0.04798 0.0
H204 H 0.67266 0.51035 0.97356 0.0
H205 H 0.70665 0.56866 0.95692 0.0
H206 H 0.7235 0.57211 0.03201 0.0
H207 H 0.74932 0.56651 0.14034 0.0
H208 H 0.77723 0.56504 0.13668 0.0
H209 H 0.74995 0.51904 0.03197 0.0
N210 N 0.71793 0.54604 0.08984 0.0
H211 H 0.72182 0.51965 0.03921 0.0
C212 C 0.84131 0.54073 0.11109 0.0
C213 C 0.85793 0.55412 0.13394 0.0
C214 C 0.86476 0.55039 0.17484 0.0
C215 C 0.85505 0.53307 0.19362 0.0
C216 C 0.83825 0.51972 0.17098 0.0
C217 C 0.83143 0.52349 0.13018 0.0
C218 C 0.83992 0.5397 0.02478 0.0
C219 C 0.83695 0.52182 0.01461 0.0
C220 C 0.84411 0.51795 0.97511 0.0
C221 C 0.85405 0.53174 0.94429 0.0
C222 C 0.8559 0.54928 0.95318 0.0
C223 C 0.84903 0.5532 0.99313 0.0
C224 C 0.81753 0.54386 0.06826 0.0
C225 C 0.81705 0.56006 0.07846 0.0
C226 C 0.80045 0.55955 0.08224 0.0
C227 C 0.78383 0.54267 0.07693 0.0
C228 C 0.78437 0.52642 0.06556 0.0
C229 C 0.80104 0.52704 0.06065 0.0
C230 C 0.70763 0.54139 0.13106 0.0
C231 C 0.70625 0.55526 0.15633 0.0
C232 C 0.69571 0.55123 0.19522 0.0
C233 C 0.68615 0.53312 0.20945 0.0
C234 C 0.68769 0.51919 0.18434 0.0
C235 C 0.69849 0.52332 0.14564 0.0
C236 C 0.70781 0.54337 0.04566 0.0
C237 C 0.69348 0.52593 0.02842 0.0
C238 C 0.68386 0.52388 0.98558 0.0
C239 C 0.68831 0.53922 0.95932 0.0
C240 C 0.70278 0.55661 0.97653 0.0
C241 C 0.71243 0.55861 0.01924 0.0
C242 C 0.73354 0.54347 0.08968 0.0
C243 C 0.74934 0.55593 0.11724 0.0
C244 C 0.76538 0.55521 0.11445 0.0
C245 C 0.76616 0.54222 0.08302 0.0
C246 C 0.75002 0.52922 0.05674 0.0
C247 C 0.73383 0.52967 0.06051 0.0
H248 H 0.17641 0.71555 0.1557 0.0
N249 N 0.16742 0.73837 0.1102 0.0
H250 H 0.1606 0.69719 0.22003 0.0
H251 H 0.14616 0.74417 0.16604 0.0
H252 H 0.13051 0.72611 0.23186 0.0
H253 H 0.13658 0.72961 0.06163 0.0
H254 H 0.11818 0.70241 0.00789 0.0
H255 H 0.17856 0.71512 0.07437 0.0
H256 H 0.15972 0.68704 0.02361 0.0
H257 H 0.19933 0.74787 0.16413 0.0
H258 H 0.17772 0.76149 0.04244 0.0
H259 H 0.22946 0.77353 0.15355 0.0
H260 H 0.20814 0.78679 0.0305 0.0
H261 H 0.32223 0.8451 0.093 0.0
H262 H 0.34317 0.85788 0.16223 0.0
H263 H 0.30707 0.87366 0.22657 0.0
H264 H 0.28701 0.86231 0.15481 0.0
H265 H 0.30353 0.87691 0.02718 0.0
H266 H 0.31975 0.88286 0.95502 0.0
H267 H 0.31356 0.82845 0.95262 0.0
H268 H 0.29781 0.82284 0.02517 0.0
H269 H 0.28497 0.8135 0.10072 0.0
H270 H 0.25517 0.78583 0.10633 0.0
H271 H 0.22875 0.81641 0.0659 0.0
N272 N 0.29109 0.84717 0.07589 0.0
H273 H 0.25856 0.8436 0.05848 0.0
C274 C 0.16241 0.73127 0.15582 0.0
C275 C 0.16681 0.71836 0.17284 0.0
C276 C 0.15776 0.70786 0.20994 0.0
C277 C 0.14408 0.70999 0.23067 0.0
C278 C 0.14076 0.72392 0.21608 0.0
C279 C 0.14984 0.73442 0.17895 0.0
C280 C 0.15869 0.72416 0.07252 0.0
C281 C 0.14185 0.72057 0.05238 0.0
C282 C 0.13126 0.70485 0.02231 0.0
C283 C 0.13717 0.69215 0.01248 0.0
C284 C 0.15465 0.69642 0.03039 0.0
C285 C 0.16541 0.71241 0.05979 0.0
C286 C 0.18597 0.75256 0.10387 0.0
C287 C 0.20094 0.75605 0.13457 0.0
C288 C 0.21837 0.77082 0.12837 0.0
C289 C 0.22127 0.78235 0.09133 0.0
C290 C 0.2064 0.77847 0.06 0.0
C291 C 0.189 0.76389 0.06649 0.0
C292 C 0.30317 0.8532 0.11803 0.0
C293 C 0.31884 0.85147 0.12163 0.0
C294 C 0.33077 0.8586 0.16197 0.0
C295 C 0.32705 0.86707 0.20039 0.0
C296 C 0.31082 0.86782 0.19745 0.0
C297 C 0.29918 0.86117 0.15659 0.0
C298 C 0.29941 0.8495 0.03156 0.0
C299 C 0.30554 0.86623 0.0107 0.0
C300 C 0.31469 0.86953 0.96935 0.0
C301 C 0.31793 0.8561 0.94796 0.0
C302 C 0.31142 0.83914 0.9684 0.0
C303 C 0.30226 0.83585 0.00978 0.0
C304 C 0.27386 0.83052 0.07869 0.0
C305 C 0.27271 0.81409 0.09248 0.0
C306 C 0.25567 0.79836 0.09611 0.0
C307 C 0.2395 0.79882 0.0864 0.0
C308 C 0.24084 0.81536 0.07268 0.0
C309 C 0.25784 0.83097 0.0687 0.0
H310 H 0.52723 0.32947 0.10044 0.0
N311 N 0.49967 0.30052 0.13462 0.0
H312 H 0.52541 0.34578 0.03335 0.0
H313 H 0.47223 0.28541 0.06324 0.0
H314 H 0.47042 0.30151 0.99636 0.0
H315 H 0.46948 0.30468 0.13249 0.0
H316 H 0.46481 0.32546 0.18431 0.0
H317 H 0.51961 0.3194 0.21275 0.0
H318 H 0.51504 0.34057 0.26493 0.0
H319 H 0.51737 0.28205 0.14041 0.0
H320 H 0.46332 0.27478 0.14023 0.0
H321 H 0.50472 0.24913 0.15039 0.0
H322 H 0.45053 0.24199 0.14791 0.0
H323 H 0.47503 0.16176 0.14688 0.0
H324 H 0.47409 0.1381 0.0934 0.0
H325 H 0.41668 0.11685 0.0594 0.0
H326 H 0.41773 0.14106 0.11342 0.0
H327 H 0.42217 0.14136 0.22772 0.0
H328 H 0.42928 0.12747 0.29271 0.0
H329 H 0.48686 0.16464 0.28005 0.0
H330 H 0.47947 0.17935 0.21799 0.0
H331 H 0.47471 0.18729 0.11842 0.0
H332 H 0.48712 0.21976 0.10951 0.0
H333 H 0.44823 0.22043 0.20214 0.0
N334 N 0.44573 0.16512 0.17179 0.0
H335 H 0.43517 0.18735 0.20952 0.0
C336 C 0.49988 0.30638 0.08764 0.0
C337 C 0.51506 0.32295 0.07674 0.0
C338 C 0.51398 0.33226 0.03842 0.0
C339 C 0.49762 0.32507 0.01026 0.0
C340 C 0.48308 0.30752 0.01811 0.0
C341 C 0.48418 0.29822 0.0564 0.0
C342 C 0.49501 0.31045 0.16872 0.0
C343 C 0.47935 0.31208 0.16178 0.0
C344 C 0.47675 0.32414 0.1912 0.0
C345 C 0.48967 0.3348 0.22823 0.0
C346 C 0.50481 0.33246 0.23673 0.0
C347 C 0.50745 0.3204 0.20707 0.0
C348 C 0.49143 0.28096 0.13936 0.0
C349 C 0.50278 0.27331 0.14207 0.0
C350 C 0.49548 0.2545 0.14748 0.0
C351 C 0.47657 0.24286 0.14985 0.0
C352 C 0.46518 0.25056 0.14698 0.0
C353 C 0.47252 0.26941 0.14213 0.0
C354 C 0.44637 0.15332 0.13429 0.0
C355 C 0.46224 0.15231 0.12763 0.0
C356 C 0.46167 0.13861 0.09719 0.0
C357 C 0.44524 0.12542 0.07289 0.0
C358 C 0.42955 0.12686 0.07769 0.0
C359 C 0.43013 0.14069 0.10831 0.0
C360 C 0.45023 0.16098 0.21724 0.0
C361 C 0.43627 0.14694 0.24036 0.0
C362 C 0.44041 0.13885 0.27697 0.0
C363 C 0.45868 0.1444 0.29039 0.0
C364 C 0.47264 0.15986 0.27058 0.0
C365 C 0.46844 0.16824 0.2347 0.0
C366 C 0.45375 0.18456 0.16481 0.0
C367 C 0.46865 0.19412 0.13697 0.0
C368 C 0.47595 0.21296 0.13203 0.0
C369 C 0.46874 0.22279 0.15513 0.0
C370 C 0.45396 0.21327 0.18315 0.0
C371 C 0.44654 0.19438 0.18767 0.0
C372 C 0.98893 0.45341 0.73639 0.0
C373 C 0.04449 0.49116 0.70076 0.0
C374 C 0.02263 0.54064 0.69196 0.0
Mg375 Mg 0.00799 0.46716 0.64361 0.0
O376 O 0.00089 0.48468 0.6564 0.0
Mg377 Mg 0.00955 0.499 0.7192 0.0
Mg378 Mg 0.00842 0.50548 0.61499 0.0
O379 O 0.01575 0.5264 0.57433 0.0
Mg380 Mg 0.00774 0.54315 0.58952 0.0
Mg381 Mg 0.00652 0.5121 0.51174 0.0
C382 C 0.99425 0.47006 0.5394 0.0
C383 C 0.04115 0.50882 0.55186 0.0
O384 O 0.99463 0.47028 0.75091 0.0
O385 O 0.9922 0.44899 0.69577 0.0
O386 O 0.03651 0.49845 0.72267 0.0
O387 O 0.03646 0.47937 0.66579 0.0
O388 O 0.99905 0.46178 0.56884 0.0
O389 O 0.99435 0.4851 0.55117 0.0
C390 C 0.97561 0.50284 0.67668 0.0
O391 O 0.98234 0.50559 0.63628 0.0
O392 O 0.98316 0.49982 0.71221 0.0
O393 O 0.0205 0.54115 0.48054 0.0
O394 O 0.02229 0.5617 0.53714 0.0
O395 O 0.97924 0.51192 0.51065 0.0
C396 C 0.0255 0.5578 0.49588 0.0
O397 O 0.9791 0.53057 0.56854 0.0
O398 O 0.01734 0.54898 0.66405 0.0
C399 C 0.97111 0.51883 0.53347 0.0
O400 O 0.02246 0.5257 0.67895 0.0
O401 O 0.03464 0.50551 0.59263 0.0
O402 O 0.03315 0.51196 0.51747 0.0
C403 C 0.47164 0.00968 0.74466 0.0
C404 C 0.45432 0.95964 0.65976 0.0
C405 C 0.52431 0.97852 0.66788 0.0
Mg406 Mg 0.4709 7e-05 0.63791 0.0
O407 O 0.49457 0.00556 0.65727 0.0
Mg408 Mg 0.49653 0.99065 0.70823 0.0
Mg409 Mg 0.50884 0.00118 0.60975 0.0
O410 O 0.52322 0.99663 0.56301 0.0
Mg411 Mg 0.54678 0.0022 0.58454 0.0
Mg412 Mg 0.52143 0.01134 0.51174 0.0
C413 C 0.49222 0.02229 0.55085 0.0
C414 C 0.48128 0.97558 0.52078 0.0
O415 O 0.48202 0.00286 0.75352 0.0
O416 O 0.4662 0.01042 0.70264 0.0
O417 O 0.46854 0.96502 0.68732 0.0
O418 O 0.45261 0.97069 0.63354 0.0
O419 O 0.47786 0.01526 0.57435 0.0
O420 O 0.5063 0.02093 0.56212 0.0
C421 C 0.53695 0.02606 0.6988 0.0
O422 O 0.53434 0.02382 0.65377 0.0
O423 O 0.52467 0.01566 0.72569 0.0
O424 O 0.5368 -0.00026 0.46795 0.0
O425 O 0.55286 0.99294 0.5201 0.0
O426 O 0.54919 0.03715 0.53436 0.0
C427 C 0.54767 0.99359 0.47774 0.0
O428 O 0.56443 0.03178 0.59102 0.0
O429 O 0.5391 0.9856 0.6461 0.0
C430 C 0.56303 0.04273 0.56358 0.0
O431 O 0.51103 0.98113 0.6565 0.0
O432 O 0.48344 0.97873 0.56569 0.0
O433 O 0.49368 0.98551 0.49356 0.0
C434 C 0.53067 0.55426 0.47779 0.0
C435 C 0.55359 0.52038 0.51912 0.0
C436 C 0.48538 0.46834 0.54033 0.0
Mg437 Mg 0.5408 0.54383 0.57293 0.0
O438 O 0.51618 0.52559 0.56308 0.0
Mg439 Mg 0.50929 0.50953 0.50312 0.0
Mg440 Mg 0.50629 0.50632 0.60924 0.0
O441 O 0.49662 0.48709 0.65511 0.0
Mg442 Mg 0.4724 0.46784 0.64433 0.0
Mg443 Mg 0.50296 0.50326 0.7148 0.0
C444 C 0.52815 0.54377 0.67764 0.0
C445 C 0.54071 0.5098 0.67246 0.0
O446 O 0.51975 0.53703 0.46568 0.0
O447 O 0.53988 0.55985 0.51765 0.0
O448 O 0.5376 0.51189 0.49841 0.0
O449 O 0.55776 0.53261 0.5528 0.0
O450 O 0.53992 0.55123 0.64667 0.0
O451 O 0.51315 0.52836 0.66887 0.0
C452 C 0.47223 0.5042 0.54735 0.0
O453 O 0.47819 0.50298 0.58829 0.0
O454 O 0.48155 0.507 0.51118 0.0
O455 O 0.49318 0.47586 0.75248 0.0
O456 O 0.47387 0.45247 0.70058 0.0
O457 O 0.47397 0.49959 0.71754 0.0
C458 C 0.48284 0.4585 0.74069 0.0
O459 O 0.45455 0.478 0.66339 0.0
O460 O 0.47371 0.46001 0.57096 0.0
C461 C 0.45806 0.4903 0.6964 0.0
O462 O 0.4993 0.48452 0.54955 0.0
O463 O 0.53441 0.50954 0.63059 0.0
O464 O 0.53139 0.50754 0.70844 0.0
C465 C 0.12487 0.4648 0.30629 0.0
C466 C 0.14351 0.47077 0.31454 0.0
C467 C 0.11569 0.46946 0.3388 0.0
C468 C 0.11636 0.48529 0.4616 0.0
H469 H 0.08618 0.50323 0.40647 0.0
C470 C 0.0603 0.4937 0.55539 0.0
C471 C 0.05783 0.50826 0.54188 0.0
C472 C 0.07353 0.49071 0.53506 0.0
C473 C 0.09469 0.49846 0.42265 0.0
H474 H 0.16698 0.48591 0.36436 0.0
H475 H 0.15083 0.49419 0.4214 0.0
H476 H 0.10334 0.49437 0.35611 0.0
H477 H 0.06829 0.53215 0.50063 0.0
H478 H 0.09158 0.52732 0.46649 0.0
H479 H 0.10742 0.48936 0.52841 0.0
C480 C 0.14338 0.48581 0.38963 0.0
C481 C 0.10437 0.49316 0.39363 0.0
C482 C 0.15265 0.48121 0.3568 0.0
C483 C 0.06981 0.5207 0.51127 0.0
C484 C 0.08306 0.51786 0.49148 0.0
C485 C 0.10648 0.49049 0.49085 0.0
C486 C 0.12487 0.48023 0.38051 0.0
C487 C 0.11521 0.48639 0.41259 0.0
C488 C 0.08446 0.50231 0.5012 0.0
C489 C 0.09556 0.49718 0.47159 0.0
H490 H 0.11742 0.45695 0.27393 0.0
H491 H 0.10137 0.46479 0.33097 0.0
H492 H 0.12456 0.48005 0.47715 0.0
H493 H 0.05111 0.48381 0.57858 0.0
H494 H 0.07429 0.47861 0.54328 0.0
C495 C 0.69236 0.13908 0.35579 0.0
C496 C 0.68628 0.14523 0.31784 0.0
C497 C 0.68206 0.13289 0.39502 0.0
C498 C 0.64205 0.13018 0.45323 0.0
H499 H 0.63666 0.08429 0.49379 0.0
C500 C 0.57761 0.07329 0.5284 0.0
C501 C 0.57909 0.06121 0.55863 0.0
C502 C 0.5932 0.08806 0.51229 0.0
C503 C 0.63828 0.09732 0.4839 0.0
H504 H 0.66497 0.15032 0.29194 0.0
H505 H 0.64676 0.13916 0.35982 0.0
H506 H 0.65934 0.10141 0.43891 0.0
H507 H 0.59819 0.05659 0.6003 0.0
H508 H 0.62542 0.08247 0.57237 0.0
H509 H 0.62022 0.12544 0.49669 0.0
C510 C 0.65967 0.13944 0.35989 0.0
C511 C 0.65133 0.10718 0.45222 0.0
C512 C 0.67007 0.14579 0.32082 0.0
C513 C 0.59654 0.06547 0.57657 0.0
C514 C 0.61215 0.08023 0.56028 0.0
C515 C 0.6289 0.12024 0.48484 0.0
C516 C 0.66533 0.13252 0.39705 0.0
C517 C 0.65309 0.1235 0.43552 0.0
C518 C 0.61062 0.09108 0.52609 0.0
C519 C 0.62657 0.10345 0.49964 0.0
H520 H 0.70497 0.13878 0.3548 0.0
H521 H 0.68705 0.12803 0.42336 0.0
H522 H 0.64325 0.14287 0.44182 0.0
H523 H 0.56438 0.07057 0.51433 0.0
H524 H 0.59147 0.09612 0.48603 0.0
C525 C 0.53944 0.66988 0.21332 0.0
C526 C 0.55095 0.68773 0.23461 0.0
C527 C 0.53396 0.6544 0.23907 0.0
C528 C 0.53244 0.63922 0.36008 0.0
H529 H 0.53684 0.59973 0.29758 0.0
C530 C 0.54231 0.58721 0.46183 0.0
C531 C 0.53184 0.5684 0.44648 0.0
C532 C 0.54243 0.60067 0.43467 0.0
C533 C 0.53528 0.61051 0.31525 0.0
H534 H 0.56484 0.70329 0.30041 0.0
H535 H 0.55574 0.67624 0.34507 0.0
H536 H 0.54031 0.62544 0.25349 0.0
H537 H 0.51366 0.54909 0.38975 0.0
H538 H 0.51413 0.57285 0.3418 0.0
H539 H 0.52806 0.62454 0.42228 0.0
C540 C 0.55076 0.67422 0.30854 0.0
C541 C 0.53722 0.62523 0.29003 0.0
C542 C 0.55615 0.68974 0.28283 0.0
C543 C 0.52187 0.56345 0.4026 0.0
C544 C 0.52213 0.57701 0.37516 0.0
C545 C 0.53062 0.62457 0.38533 0.0
C546 C 0.53996 0.65636 0.28663 0.0
C547 C 0.53612 0.63991 0.31237 0.0
C548 C 0.53221 0.59573 0.39136 0.0
C549 C 0.53236 0.61025 0.36337 0.0
H550 H 0.53533 0.66775 0.17612 0.0
H551 H 0.5254 0.64085 0.22133 0.0
H552 H 0.53119 0.65013 0.3781 0.0
H553 H 0.55021 0.5916 0.49529 0.0
H554 H 0.55062 0.61502 0.44759 0.0
C555 C 0.86191 0.51155 0.23671 0.0
C556 C 0.86275 0.5287 0.23554 0.0
C557 C 0.87007 0.50775 0.27475 0.0
C558 C 0.88899 0.52271 0.3981 0.0
H559 H 0.91969 0.50257 0.36408 0.0
C560 C 0.94774 0.52837 0.52054 0.0
C561 C 0.95311 0.51511 0.51387 0.0
C562 C 0.9332 0.52717 0.49266 0.0
C563 C 0.91087 0.50778 0.37456 0.0
H564 H 0.87222 0.55504 0.27433 0.0
H565 H 0.88672 0.54849 0.3406 0.0
H566 H 0.90116 0.50613 0.30332 0.0
H567 H 0.94619 0.4891 0.4768 0.0
H568 H 0.92041 0.48659 0.42964 0.0
H569 H 0.89899 0.52461 0.46947 0.0
C570 C 0.87963 0.53795 0.31215 0.0
C571 C 0.90027 0.5099 0.33953 0.0
C572 C 0.87152 0.54178 0.27395 0.0
C573 C 0.94255 0.49969 0.4822 0.0
C574 C 0.92787 0.49835 0.45487 0.0
C575 C 0.89954 0.52048 0.43335 0.0
C576 C 0.87924 0.521 0.31259 0.0
C577 C 0.88939 0.5176 0.35075 0.0
C578 C 0.9236 0.51255 0.45802 0.0
C579 C 0.9108 0.51319 0.42192 0.0
H580 H 0.8554 0.50122 0.20754 0.0
H581 H 0.8694 0.49451 0.27427 0.0
H582 H 0.88057 0.52852 0.40785 0.0
H583 H 0.95563 0.54044 0.54464 0.0
H584 H 0.93037 0.53839 0.49609 0.0
C585 C 0.3518 0.86886 0.25647 0.0
C586 C 0.3404 0.87576 0.24225 0.0
C587 C 0.36534 0.87799 0.29303 0.0
C588 C 0.39149 0.92402 0.35972 0.0
H589 H 0.41025 0.89868 0.43404 0.0
C590 C 0.44731 0.95946 0.51292 0.0
C591 C 0.46365 0.96088 0.49903 0.0
C592 C 0.43077 0.94729 0.48777 0.0
C593 C 0.40499 0.90583 0.41367 0.0
H594 H 0.33415 0.89757 0.25743 0.0
H595 H 0.35652 0.91242 0.32305 0.0
H596 H 0.38337 0.88077 0.37955 0.0
H597 H 0.4756 0.95039 0.44949 0.0
H598 H 0.44647 0.92857 0.40643 0.0
H599 H 0.41295 0.94901 0.3951 0.0
C600 C 0.35561 0.90041 0.30463 0.0
C601 C 0.38973 0.89566 0.38206 0.0
C602 C 0.34241 0.89157 0.2673 0.0
C603 C 0.46313 0.94941 0.46095 0.0
C604 C 0.44654 0.93695 0.43652 0.0
C605 C 0.40643 0.9341 0.3921 0.0
C606 C 0.36761 0.89405 0.31732 0.0
C607 C 0.38294 0.90463 0.35394 0.0
C608 C 0.43033 0.93613 0.44909 0.0
C609 C 0.41344 0.92511 0.41873 0.0
H610 H 0.35048 0.8565 0.23906 0.0
H611 H 0.37433 0.87266 0.30117 0.0
H612 H 0.3871 0.93159 0.33818 0.0
H613 H 0.44746 0.96849 0.54141 0.0
H614 H 0.4184 0.94696 0.49763 0.0
C615 C 0.4833 0.36088 0.23328 0.0
C616 C 0.48786 0.34904 0.25606 0.0
C617 C 0.48192 0.37459 0.25912 0.0
C618 C 0.49135 0.4092 0.32142 0.0
H619 H 0.46628 0.39699 0.43676 0.0
C620 C 0.49869 0.46248 0.46927 0.0
C621 C 0.48343 0.45801 0.49522 0.0
C622 C 0.49775 0.45024 0.4329 0.0
C623 C 0.47311 0.40059 0.40429 0.0
H624 H 0.49447 0.34219 0.32364 0.0
H625 H 0.49207 0.3662 0.36895 0.0
H626 H 0.46766 0.37305 0.38894 0.0
H627 H 0.45472 0.43828 0.50019 0.0
H628 H 0.45303 0.41714 0.43641 0.0
H629 H 0.49693 0.43684 0.33722 0.0
C630 C 0.48948 0.36479 0.33109 0.0
C631 C 0.4741 0.38691 0.37727 0.0
C632 C 0.49099 0.35116 0.3052 0.0
C633 C 0.4668 0.44195 0.48136 0.0
C634 C 0.46584 0.4298 0.44498 0.0
C635 C 0.49045 0.42295 0.34868 0.0
C636 C 0.48495 0.37666 0.30828 0.0
C637 C 0.48337 0.3911 0.33582 0.0
C638 C 0.4815 0.43341 0.42184 0.0
C639 C 0.4814 0.41878 0.39055 0.0
H640 H 0.48105 0.35972 0.19534 0.0
H641 H 0.4783 0.38347 0.24067 0.0
H642 H 0.49867 0.41282 0.2897 0.0
H643 H 0.5117 0.47474 0.47914 0.0
H644 H 0.51006 0.45339 0.41573 0.0
C645 C 0.53169 0.86687 0.91095 0.0
C646 C 0.54458 0.86419 0.88761 0.0
C647 C 0.52344 0.87578 0.88961 0.0
C648 C 0.51464 0.89189 0.77945 0.0
H649 H 0.52917 0.93773 0.85296 0.0
C650 C 0.50485 0.9503 0.70944 0.0
C651 C 0.52206 0.96581 0.70442 0.0
C652 C 0.50325 0.93636 0.73747 0.0
C653 C 0.52472 0.92484 0.8325 0.0
H654 H 0.55788 0.8673 0.82256 0.0
H655 H 0.54309 0.88255 0.78464 0.0
H656 H 0.53285 0.91356 0.8881 0.0
H657 H 0.55077 0.97966 0.72726 0.0
H658 H 0.54784 0.95559 0.77769 0.0
H659 H 0.5071 0.90351 0.72332 0.0
C660 C 0.53947 0.87784 0.8195 0.0
C661 C 0.52674 0.91101 0.85253 0.0
C662 C 0.54797 0.86921 0.84116 0.0
C663 C 0.53739 0.96781 0.73047 0.0
C664 C 0.5357 0.95411 0.75937 0.0
C665 C 0.51227 0.90558 0.75973 0.0
C666 C 0.52773 0.88187 0.84431 0.0
C667 C 0.52226 0.89468 0.82569 0.0
C668 C 0.51874 0.93803 0.76184 0.0
C669 C 0.51784 0.92237 0.78566 0.0
H670 H 0.52901 0.86332 0.94702 0.0
H671 H 0.51442 0.87874 0.90933 0.0
H672 H 0.51114 0.87942 0.75814 0.0
H673 H 0.49284 0.94839 0.68946 0.0
H674 H 0.49006 0.92404 0.73896 0.0
C675 C 0.67188 0.55018 0.90675 0.0
C676 C 0.67739 0.53725 0.91524 0.0
C677 C 0.66063 0.54782 0.86697 0.0
C678 C 0.6264 0.51136 0.78262 0.0
H679 H 0.62783 0.55341 0.7269 0.0
C680 C 0.56705 0.50472 0.65956 0.0
C681 C 0.55985 0.51479 0.68134 0.0
C682 C 0.58445 0.50804 0.67467 0.0
C683 C 0.62744 0.54152 0.74155 0.0
H684 H 0.67601 0.51207 0.88756 0.0
H685 H 0.65642 0.50799 0.81765 0.0
H686 H 0.65332 0.558 0.77966 0.0
H687 H 0.56529 0.53686 0.73313 0.0
H688 H 0.59572 0.54311 0.75816 0.0
H689 H 0.60019 0.49503 0.74549 0.0
C690 C 0.66057 0.51982 0.84223 0.0
C691 C 0.64192 0.54414 0.77212 0.0
C692 C 0.67178 0.52214 0.88228 0.0
C693 C 0.57061 0.52893 0.71593 0.0
C694 C 0.58804 0.53256 0.73003 0.0
C695 C 0.61199 0.50873 0.75158 0.0
C696 C 0.65465 0.53251 0.8344 0.0
C697 C 0.64119 0.52922 0.79475 0.0
C698 C 0.59495 0.52183 0.71059 0.0
C699 C 0.61204 0.52389 0.73241 0.0
H700 H 0.67572 0.56181 0.9318 0.0
H701 H 0.65604 0.55766 0.86282 0.0
H702 H 0.62529 0.49956 0.79951 0.0
H703 H 0.55889 0.4937 0.63288 0.0
H704 H 0.58951 0.49956 0.6593 0.0
C705 C 0.1058 0.66515 0.99186 0.0
C706 C 0.12467 0.67414 0.98598 0.0
C707 C 0.09387 0.64848 0.9666 0.0
C708 C 0.08938 0.60744 0.90611 0.0
H709 H 0.05153 0.60806 0.82707 0.0
C710 C 0.04768 0.55209 0.75481 0.0
C711 C 0.0308 0.54981 0.73868 0.0
C712 C 0.05787 0.56487 0.79247 0.0
C713 C 0.06164 0.60733 0.84977 0.0
H714 H 0.14574 0.67217 0.94953 0.0
H715 H 0.12478 0.64262 0.90641 0.0
H716 H 0.07214 0.63509 0.878 0.0
H717 H 0.01028 0.55727 0.75191 0.0
H718 H 0.02731 0.57848 0.81982 0.0
H719 H 0.0787 0.57953 0.87877 0.0
C720 C 0.11938 0.64873 0.93056 0.0
C721 C 0.07358 0.62297 0.87859 0.0
C722 C 0.13134 0.66563 0.95528 0.0
C723 C 0.0234 0.55902 0.76352 0.0
C724 C 0.03331 0.57135 0.802 0.0
C725 C 0.07715 0.59157 0.87791 0.0
C726 C 0.10054 0.64019 0.93559 0.0
C727 C 0.08766 0.62324 0.90658 0.0
C728 C 0.05112 0.57526 0.8153 0.0
C729 C 0.06321 0.59137 0.84891 0.0
H730 H 0.10016 0.67091 0.01622 0.0
H731 H 0.07939 0.64203 0.97131 0.0
H732 H 0.1001 0.60734 0.9278 0.0
H733 H 0.05368 0.54518 0.73591 0.0
H734 H 0.0715 0.56745 0.80134 0.0
C735 C 0.45349 0.10084 0.06179 0.0
C736 C 0.44459 0.10992 0.04427 0.0
C737 C 0.45419 0.08716 0.03399 0.0
C738 C 0.43375 0.05559 0.92704 0.0
H739 H 0.48169 0.06057 0.92323 0.0
C740 C 0.45408 0.0242 0.77455 0.0
C741 C 0.46608 0.01754 0.78387 0.0
C742 C 0.44968 0.0328 0.81044 0.0
C743 C 0.46813 0.05872 0.92452 0.0
H744 H 0.42881 0.11128 0.98464 0.0
H745 H 0.43011 0.08734 0.93568 0.0
H746 H 0.47702 0.08059 0.97815 0.0
H747 H 0.48234 0.01412 0.8388 0.0
H748 H 0.47451 0.02909 0.90176 0.0
H749 H 0.42497 0.03393 0.87266 0.0
C750 C 0.43644 0.09075 0.97113 0.0
C751 C 0.46545 0.07023 0.95594 0.0
C752 C 0.43572 0.10447 -0.00095 0.0
C753 C 0.47313 0.01917 0.83035 0.0
C754 C 0.46871 0.02782 0.86637 0.0
C755 C 0.43642 0.04403 0.89565 0.0
C756 C 0.44599 0.08221 0.98804 0.0
C757 C 0.44832 0.06899 0.95704 0.0
C758 C 0.45713 0.03495 0.85663 0.0
C759 C 0.45372 0.04569 0.89348 0.0
H760 H 0.46008 0.10444 0.09697 0.0
H761 H 0.46133 0.08057 0.04834 0.0
H762 H 0.42033 0.05414 0.9276 0.0
H763 H 0.44831 0.02315 0.73925 0.0
H764 H 0.44092 0.03836 0.80155 0.0
C765 C 0.35006 0.4872 0.96576 0.0
C766 C 0.33282 0.47111 0.96168 0.0
C767 C 0.36221 0.49102 0.93036 0.0
C768 C 0.37158 0.46702 0.8325 0.0
H769 H 0.40718 0.5168 0.80485 0.0
C770 C 0.42469 0.4798 0.69805 0.0
C771 C 0.44283 0.49209 0.71499 0.0
C772 C 0.41014 0.47903 0.72147 0.0
C773 C 0.39731 0.50282 0.8122 0.0
H774 H 0.31441 0.44696 0.91618 0.0
H775 H 0.33534 0.45381 0.85384 0.0
H776 H 0.38353 0.51189 0.85832 0.0
H777 H 0.45982 0.51427 0.76765 0.0
H778 H 0.43446 0.51293 0.80825 0.0
H779 H 0.38542 0.45797 0.7868 0.0
C780 C 0.33976 0.46324 0.88497 0.0
C781 C 0.38379 0.49999 0.84301 0.0
C782 C 0.32771 0.45933 0.92059 0.0
C783 C 0.44605 0.50454 0.75375 0.0
C784 C 0.43149 0.50383 0.77699 0.0
C785 C 0.38497 0.46985 0.80147 0.0
C786 C 0.35735 0.47892 0.88979 0.0
C787 C 0.37089 0.48204 0.85413 0.0
C788 C 0.41339 0.49062 0.76212 0.0
C789 C 0.39815 0.48778 0.79143 0.0
H790 H 0.35445 0.49644 0.99725 0.0
H791 H 0.37568 0.50308 0.93577 0.0
H792 H 0.36219 0.45303 0.84079 0.0
H793 H 0.42166 0.47012 0.66804 0.0
H794 H 0.39633 0.46892 0.70865 0.0
C795 C 0.87842 0.3409 0.98677 0.0
C796 C 0.87141 0.32231 0.97104 0.0
C797 C 0.89049 0.35506 0.96035 0.0
C798 C 0.90837 0.36566 0.84244 0.0
H799 H 0.95055 0.4062 0.91225 0.0
C800 C 0.96986 0.41984 0.74996 0.0
C801 C 0.97696 0.43842 0.76589 0.0
C802 C 0.95718 0.40566 0.77535 0.0
C803 C 0.93877 0.39508 0.89229 0.0
H804 H 0.87094 0.30409 0.91404 0.0
H805 H 0.89229 0.32888 0.86818 0.0
H806 H 0.9272 0.38155 0.95433 0.0
H807 H 0.97665 0.45659 0.82196 0.0
H808 H 0.95452 0.43181 0.86618 0.0
H809 H 0.92003 0.37919 0.78036 0.0
C810 C 0.88834 0.33246 0.90089 0.0
C811 C 0.92536 0.38097 0.91638 0.0
C812 C 0.87622 0.31826 0.92733 0.0
C813 C 0.97151 0.44245 0.80865 0.0
C814 C 0.95884 0.42824 0.8341 0.0
C815 C 0.92181 0.37977 0.81833 0.0
C816 C 0.89591 0.35102 0.91762 0.0
C817 C 0.90999 0.36611 0.89176 0.0
C818 C 0.95134 0.4097 0.81735 0.0
C819 C 0.93716 0.39464 0.84299 0.0
H820 H 0.87523 0.34456 0.02054 0.0
H821 H 0.89583 0.36922 0.97385 0.0
H822 H 0.8966 0.35453 0.82249 0.0
H823 H 0.97379 0.41618 0.7173 0.0
H824 H 0.95189 0.3915 0.76196 0.0
C825 C 0.88036 0.54226 0.89204 0.0
C826 C 0.86333 0.52819 0.90492 0.0
C827 C 0.88974 0.53868 0.85769 0.0
C828 C 0.89653 0.50202 0.8113 0.0
H829 H 0.91951 0.53357 0.71021 0.0
C830 C 0.94333 0.48864 0.69673 0.0
C831 C 0.95925 0.50415 0.68434 0.0
C832 C 0.92907 0.49047 0.71403 0.0
C833 C 0.91336 0.5247 0.7385 0.0
H834 H 0.8426 0.49941 0.88953 0.0
H835 H 0.85945 0.49307 0.83116 0.0
H836 H 0.89967 0.53928 0.75964 0.0
H837 H 0.97283 0.53365 0.67903 0.0
H838 H 0.94839 0.53717 0.71118 0.0
H839 H 0.91092 0.48814 0.79291 0.0
C840 C 0.86539 0.50689 0.84777 0.0
C841 C 0.9019 0.52793 0.76659 0.0
C842 C 0.85581 0.51053 0.88153 0.0
C843 C 0.96047 0.52145 0.68764 0.0
C844 C 0.9464 0.5234 0.70607 0.0
C845 C 0.90823 0.499 0.78392 0.0
C846 C 0.88253 0.52089 0.83588 0.0
C847 C 0.89349 0.5167 0.80349 0.0
C848 C 0.9307 0.508 0.72094 0.0
C849 C 0.91699 0.51039 0.7473 0.0
H850 H 0.88686 0.55594 0.90967 0.0
H851 H 0.90305 0.54967 0.84965 0.0
H852 H 0.89043 0.49332 0.83996 0.0
H853 H 0.94221 0.47517 0.69464 0.0
H854 H 0.91705 0.47818 0.72357 0.0
C855 C 0.34246 0.85525 0.90318 0.0
C856 C 0.32897 0.86027 0.90616 0.0
C857 C 0.35415 0.8608 0.86648 0.0
C858 C 0.36179 0.88084 0.74993 0.0
H859 H 0.41274 0.90365 0.79357 0.0
C860 C 0.42059 0.93837 0.65739 0.0
C861 C 0.43832 0.94131 0.66577 0.0
C862 C 0.40578 0.92364 0.67643 0.0
C863 C 0.39861 0.89695 0.78016 0.0
H864 H 0.31651 0.87412 0.87128 0.0
H865 H 0.33715 0.88413 0.80774 0.0
H866 H 0.38941 0.88701 0.8472 0.0
H867 H 0.45408 0.92975 0.69495 0.0
H868 H 0.42819 0.90365 0.72636 0.0
H869 H 0.37112 0.89132 0.68307 0.0
C870 C 0.33861 0.87579 0.83362 0.0
C871 C 0.38518 0.88742 0.81116 0.0
C872 C 0.32693 0.87026 0.87037 0.0
C873 C 0.44062 0.92802 0.68859 0.0
C874 C 0.42579 0.91315 0.70699 0.0
C875 C 0.37527 0.89033 0.71869 0.0
C876 C 0.35263 0.8715 0.83187 0.0
C877 C 0.36662 0.87959 0.79679 0.0
C878 C 0.40839 0.91142 0.70363 0.0
C879 C 0.39388 0.89886 0.73374 0.0
H880 H 0.34452 0.84768 0.93028 0.0
H881 H 0.36468 0.85709 0.86585 0.0
H882 H 0.34758 0.87476 0.73763 0.0
H883 H 0.41835 0.94836 0.63988 0.0
H884 H 0.39263 0.9228 0.67302 0.0
C885 C 0.50851 0.34832 0.949 0.0
C886 C 0.49484 0.33698 0.97802 0.0
C887 C 0.50654 0.36107 0.923 0.0
C888 C 0.47219 0.37323 0.88035 0.0
H889 H 0.51471 0.42155 0.8721 0.0
C890 C 0.47203 0.42584 0.75831 0.0
C891 C 0.4823 0.44475 0.77253 0.0
C892 C 0.47289 0.4128 0.78526 0.0
C893 C 0.50265 0.40821 0.87463 0.0
H894 H 0.46845 0.33013 0.00273 0.0
H895 H 0.46508 0.35234 0.95799 0.0
H896 H 0.51764 0.39828 0.91358 0.0
H897 H 0.501 0.4647 0.8275 0.0
H898 H 0.50215 0.44178 0.87533 0.0
H899 H 0.45707 0.3833 0.84278 0.0
C900 C 0.47713 0.35116 0.95421 0.0
C901 C 0.50439 0.39475 0.8977 0.0
C902 C 0.47904 0.33837 0.97982 0.0
C903 C 0.49295 0.45025 0.81541 0.0
C904 C 0.49374 0.43713 0.84262 0.0
C905 C 0.47042 0.38671 0.85765 0.0
C906 C 0.49094 0.36282 0.92589 0.0
C907 C 0.48919 0.37706 0.90065 0.0
C908 C 0.48393 0.41827 0.82742 0.0
C909 C 0.48564 0.40433 0.85418 0.0
H910 H 0.52081 0.34749 0.94686 0.0
H911 H 0.5173 0.36962 0.90088 0.0
H912 H 0.46022 0.35971 0.88157 0.0
H913 H 0.46368 0.42104 0.72549 0.0
H914 H 0.46536 0.39845 0.77209 0.0
C915 C 0.151 0.46967 0.9458 0.0
C916 C 0.15223 0.47807 0.99061 0.0
C917 C 0.14351 0.47366 0.90661 0.0
C918 C 0.13049 0.50689 0.8633 0.0
H919 H 0.09306 0.46436 0.78716 0.0
C920 C 0.07079 0.50662 0.76121 0.0
C921 C 0.06247 0.4947 0.72054 0.0
C922 C 0.08564 0.50722 0.78579 0.0
C923 C 0.10376 0.47648 0.80719 0.0
H924 H 0.14678 0.49751 0.02901 0.0
H925 H 0.13384 0.50452 0.96074 0.0
H926 H 0.11173 0.46025 0.84674 0.0
H927 H 0.06439 0.47538 0.67132 0.0
H928 H 0.09052 0.47662 0.71399 0.0
H929 H 0.12213 0.52305 0.82459 0.0
C930 C 0.13888 0.49502 0.95579 0.0
C931 C 0.11445 0.47409 0.84152 0.0
C932 C 0.1463 0.49098 0.99498 0.0
C933 C 0.07032 0.48454 0.70286 0.0
C934 C 0.08522 0.48516 0.72748 0.0
C935 C 0.11984 0.50929 0.82881 0.0
C936 C 0.13716 0.48621 0.91128 0.0
C937 C 0.1276 0.48919 0.87082 0.0
C938 C 0.09261 0.49597 0.77021 0.0
C939 C 0.10599 0.49404 0.80121 0.0
H940 H 0.15575 0.45992 0.94102 0.0
H941 H 0.14257 0.46682 0.87268 0.0
H942 H 0.14073 0.51884 0.8848 0.0
H943 H 0.06523 0.51478 0.77568 0.0
H944 H 0.09088 0.51563 0.81865 0.0
C945 C 0.65618 0.12766 0.97668 0.0
C946 C 0.67412 0.13083 0.97654 0.0
C947 C 0.64402 0.11932 0.9371 0.0
C948 C 0.63353 0.08595 0.8397 0.0
H949 H 0.59969 0.10137 0.79547 0.0
C950 C 0.56072 0.03674 0.7647 0.0
C951 C 0.55497 0.03996 0.72105 0.0
C952 C 0.57763 0.04949 0.78672 0.0
C953 C 0.60927 0.0971 0.80687 0.0
H954 H 0.69342 0.12827 0.93335 0.0
H955 H 0.67186 0.11299 0.86501 0.0
H956 H 0.62526 0.1217 0.85208 0.0
H957 H 0.5625 0.05902 0.66596 0.0
H958 H 0.59213 0.08191 0.70595 0.0
H959 H 0.61686 0.06086 0.79692 0.0
C960 C 0.66736 0.11711 0.89592 0.0
C961 C 0.62377 0.10862 0.83944 0.0
C962 C 0.67964 0.12572 0.93527 0.0
C963 C 0.5666 0.05623 0.69965 0.0
C964 C 0.58347 0.06928 0.72241 0.0
C965 C 0.61888 0.07433 0.80781 0.0
C966 C 0.64939 0.1137 0.89661 0.0
C967 C 0.63576 0.10294 0.85701 0.0
C968 C 0.58908 0.06592 0.76608 0.0
C969 C 0.60639 0.07962 0.79204 0.0
H970 H 0.65126 0.13105 0.0079 0.0
H971 H 0.63015 0.11657 0.9389 0.0
H972 H 0.64248 0.08117 0.85289 0.0
H973 H 0.55219 0.02424 0.78182 0.0
H974 H 0.58161 0.04668 0.82055 0.0
C975 C 0.58468 0.67901 0.9429 0.0
C976 C 0.57135 0.68192 0.96288 0.0
C977 C 0.57971 0.66254 0.91678 0.0
C978 C 0.54231 0.61407 0.89506 0.0
H979 H 0.56686 0.61649 0.78143 0.0
C980 C 0.51832 0.55491 0.74729 0.0
C981 C 0.53217 0.55409 0.72369 0.0
C982 C 0.52286 0.56859 0.78359 0.0
C983 C 0.56006 0.61552 0.81349 0.0
H984 H 0.54233 0.66971 0.97132 0.0
H985 H 0.53362 0.64122 0.92436 0.0
H986 H 0.57514 0.64471 0.82832 0.0
H987 H 0.56136 0.56523 0.72288 0.0
H988 H 0.56921 0.58859 0.78686 0.0
H989 H 0.52693 0.58474 0.87914 0.0
C990 C 0.54794 0.65157 0.92952 0.0
C991 C 0.56481 0.63173 0.84035 0.0
C992 C 0.55292 0.66803 0.95577 0.0
C993 C 0.55044 0.56577 0.74008 0.0
C994 C 0.55494 0.57922 0.77647 0.0
C995 C 0.53748 0.59778 0.86792 0.0
C996 C 0.56129 0.64861 0.90985 0.0
C997 C 0.55606 0.63122 0.88153 0.0
C998 C 0.54127 0.58143 0.79681 0.0
C999 C 0.54641 0.59836 0.827 0.0
H1000 H 0.59898 0.68946 0.9475 0.0
H1001 H 0.59036 0.66063 0.90251 0.0
H1002 H 0.53543 0.61321 0.92688 0.0
H1003 H 0.50413 0.54604 0.7352 0.0
H1004 H 0.51204 0.56994 0.79879 0.0
C1005 C 0.45204 0.11335 0.31396 0.0
C1006 C 0.46306 0.13268 0.31975 0.0
C1007 C 0.45665 0.10202 0.33812 0.0
C1008 C 0.49473 0.09931 0.39084 0.0
H1009 H 0.45721 0.05925 0.45483 0.0
C1010 C 0.50724 0.0512 0.50905 0.0
C1011 C 0.49251 0.03328 0.51186 0.0
C1012 C 0.5053 0.06354 0.48118 0.0
C1013 C 0.46778 0.07013 0.43639 0.0
H1014 H 0.48759 0.15516 0.35619 0.0
H1015 H 0.49586 0.13513 0.39776 0.0
H1016 H 0.45049 0.08104 0.41853 0.0
H1017 H 0.4651 0.01339 0.48428 0.0
H1018 H 0.46202 0.03448 0.43366 0.0
H1019 H 0.51195 0.08814 0.40806 0.0
C1020 C 0.48361 0.12893 0.37436 0.0
C1021 C 0.46395 0.08271 0.41603 0.0
C1022 C 0.47886 0.14036 0.35058 0.0
C1023 C 0.47656 0.02725 0.48294 0.0
C1024 C 0.47475 0.0394 0.45447 0.0
C1025 C 0.49855 0.08655 0.41095 0.0
C1026 C 0.47253 0.10967 0.36822 0.0
C1027 C 0.4773 0.0973 0.39269 0.0
C1028 C 0.48868 0.05797 0.45534 0.0
C1029 C 0.48501 0.07167 0.43345 0.0
H1030 H 0.4401 0.10683 0.28949 0.0
H1031 H 0.44801 0.08719 0.33225 0.0
H1032 H 0.50521 0.11041 0.37269 0.0
H1033 H 0.51964 0.05613 0.53137 0.0
H1034 H 0.51631 0.07772 0.48258 0.0
C1035 C 0.33225 0.45045 0.32018 0.0
C1036 C 0.33233 0.46526 0.29855 0.0
C1037 C 0.34372 0.45358 0.36021 0.0
C1038 C 0.37688 0.49085 0.44977 0.0
H1039 H 0.39897 0.46003 0.45135 0.0
C1040 C 0.45068 0.51302 0.5125 0.0
C1041 C 0.45366 0.50117 0.53996 0.0
C1042 C 0.433 0.50832 0.49684 0.0
C1043 C 0.39266 0.46853 0.452 0.0
H1044 H 0.34395 0.49501 0.30453 0.0
H1045 H 0.36482 0.50055 0.37141 0.0
H1046 H 0.37331 0.45195 0.39575 0.0
H1047 H 0.44071 0.47549 0.57401 0.0
H1048 H 0.40963 0.4669 0.54518 0.0
H1049 H 0.3976 0.5083 0.50349 0.0
C1050 C 0.35556 0.4864 0.35849 0.0
C1051 C 0.37786 0.46389 0.42015 0.0
C1052 C 0.34378 0.48324 0.31917 0.0
C1053 C 0.43867 0.48497 0.55357 0.0
C1054 C 0.42096 0.48003 0.53689 0.0
C1055 C 0.39199 0.49571 0.48089 0.0
C1056 C 0.35595 0.47164 0.37918 0.0
C1057 C 0.37001 0.47523 0.41768 0.0
C1058 C 0.41807 0.49145 0.50737 0.0
C1059 C 0.40021 0.48477 0.48153 0.0
H1060 H 0.32378 0.4364 0.30545 0.0
H1061 H 0.34324 0.44178 0.37561 0.0
H1062 H 0.37096 0.49968 0.45001 0.0
H1063 H 0.46209 0.52551 0.50136 0.0
H1064 H 0.43112 0.51724 0.47369 0.0
C1065 C 0.90256 0.33512 0.28261 0.0
C1066 C 0.88783 0.33396 0.25529 0.0
C1067 C 0.91487 0.35144 0.30877 0.0
C1068 C 0.93107 0.4018 0.32092 0.0
H1069 H 0.95144 0.39824 0.44133 0.0
C1070 C 0.97176 0.46084 0.46986 0.0
C1071 C 0.98651 0.46039 0.49265 0.0
C1072 C 0.96099 0.44746 0.43363 0.0
C1073 C 0.946 0.39945 0.40752 0.0
H1074 H 0.87461 0.34927 0.23425 0.0
H1075 H 0.89553 0.37739 0.2818 0.0
H1076 H 0.92918 0.37027 0.39578 0.0
H1077 H 0.00298 0.44725 0.49172 0.0
H1078 H 0.98434 0.42413 0.42862 0.0
H1079 H 0.94765 0.43123 0.33426 0.0
C1080 C 0.89781 0.36579 0.2821 0.0
C1081 C 0.93327 0.3834 0.38128 0.0
C1082 C 0.8856 0.34951 0.25545 0.0
C1083 C 0.9915 0.44773 0.47526 0.0
C1084 C 0.98082 0.43446 0.43929 0.0
C1085 C 0.94369 0.41794 0.34769 0.0
C1086 C 0.91267 0.367 0.30895 0.0
C1087 C 0.92578 0.38431 0.33734 0.0
C1088 C 0.96493 0.43359 0.41993 0.0
C1089 C 0.95143 0.41686 0.39092 0.0
H1090 H 0.90463 0.3234 0.28379 0.0
H1091 H 0.92628 0.35189 0.3284 0.0
H1092 H 0.92573 0.40303 0.28704 0.0
H1093 H 0.9676 0.47045 0.48263 0.0
H1094 H 0.94882 0.44709 0.41905 0.0
C1095 C 0.57493 0.91406 0.15226 0.0
C1096 C 0.58789 0.90861 0.16139 0.0
C1097 C 0.57306 0.92587 0.18456 0.0
C1098 C 0.58014 0.93922 0.31035 0.0
H1099 H 0.56984 0.97732 0.27392 0.0
C1100 C 0.56903 0.98362 0.44862 0.0
C1101 C 0.55443 0.98673 0.43919 0.0
C1102 C 0.57492 0.97619 0.41342 0.0
C1103 C 0.57256 0.96663 0.28457 0.0
H1104 H 0.60953 0.91177 0.21059 0.0
H1105 H 0.60633 0.93257 0.26721 0.0
H1106 H 0.57753 0.96093 0.21442 0.0
H1107 H 0.53489 0.98494 0.38489 0.0
H1108 H 0.54497 0.97155 0.32339 0.0
H1109 H 0.57475 0.94449 0.3801 0.0
C1110 C 0.59751 0.92754 0.23517 0.0
C1111 C 0.57702 0.9573 0.25055 0.0
C1112 C 0.59944 0.91577 0.20267 0.0
C1113 C 0.54618 0.98271 0.39328 0.0
C1114 C 0.55202 0.97513 0.35801 0.0
C1115 C 0.57563 0.94849 0.34425 0.0
C1116 C 0.58409 0.93246 0.22677 0.0
C1117 C 0.58073 0.9434 0.26308 0.0
C1118 C 0.56629 0.97153 0.36792 0.0
C1119 C 0.57168 0.96222 0.33176 0.0
H1120 H 0.56602 0.90895 0.12036 0.0
H1121 H 0.56251 0.92929 0.17722 0.0
H1122 H 0.58258 0.92834 0.32095 0.0
H1123 H 0.57589 0.9868 0.48342 0.0
H1124 H 0.58621 0.97397 0.42199 0.0
C1125 C 0.65625 0.51382 0.24516 0.0
C1126 C 0.67416 0.52889 0.24931 0.0
C1127 C 0.64435 0.51103 0.28072 0.0
C1128 C 0.63777 0.53711 0.37879 0.0
H1129 H 0.59962 0.48865 0.4079 0.0
C1130 C 0.58652 0.52923 0.51505 0.0
C1131 C 0.56809 0.51757 0.4995 0.0
C1132 C 0.60039 0.52882 0.49086 0.0
C1133 C 0.6102 0.50228 0.40011 0.0
H1134 H 0.69398 0.55219 0.29522 0.0
H1135 H 0.67344 0.54714 0.35763 0.0
H1136 H 0.62232 0.49137 0.35356 0.0
H1137 H 0.54983 0.49532 0.44842 0.0
H1138 H 0.57398 0.49464 0.40642 0.0
H1139 H 0.62556 0.54802 0.42473 0.0
C1140 C 0.66834 0.53775 0.32637 0.0
C1141 C 0.62318 0.50385 0.36883 0.0
C1142 C 0.68016 0.54062 0.29068 0.0
C1143 C 0.56386 0.5046 0.46125 0.0
C1144 C 0.57773 0.50414 0.43722 0.0
C1145 C 0.62488 0.53554 0.41019 0.0
C1146 C 0.65014 0.52317 0.32145 0.0
C1147 C 0.63702 0.52131 0.35727 0.0
C1148 C 0.59617 0.51666 0.45078 0.0
C1149 C 0.61079 0.51811 0.42082 0.0
H1150 H 0.65118 0.50464 0.21351 0.0
H1151 H 0.6304 0.49978 0.27532 0.0
H1152 H 0.64795 0.55079 0.37016 0.0
H1153 H 0.5903 0.53929 0.54457 0.0
H1154 H 0.61446 0.53841 0.50273 0.0
C1155 C 0.11297 0.68897 0.2574 0.0
C1156 C 0.13195 0.69631 0.26299 0.0
C1157 C 0.10122 0.67451 0.28362 0.0
C1158 C 0.09889 0.63617 0.34697 0.0
H1159 H 0.05568 0.63373 0.39547 0.0
C1160 C 0.04275 0.57048 0.42396 0.0
C1161 C 0.03614 0.57328 0.4662 0.0
C1162 C 0.0539 0.58546 0.39814 0.0
C1163 C 0.06773 0.63423 0.38231 0.0
H1164 H 0.1535 0.6947 0.30202 0.0
H1165 H 0.13294 0.66946 0.3481 0.0
H1166 H 0.07689 0.66076 0.35596 0.0
H1167 H 0.03574 0.59404 0.51364 0.0
H1168 H 0.05517 0.61997 0.46893 0.0
H1169 H 0.08989 0.60978 0.37412 0.0
C1170 C 0.12716 0.67472 0.32277 0.0
C1171 C 0.0798 0.64966 0.35935 0.0
C1172 C 0.13894 0.68921 0.29653 0.0
C1173 C 0.04057 0.59132 0.48132 0.0
C1174 C 0.05165 0.60623 0.45552 0.0
C1175 C 0.08679 0.62072 0.36989 0.0
C1176 C 0.10816 0.66702 0.31605 0.0
C1177 C 0.09554 0.65082 0.34148 0.0
C1178 C 0.05861 0.60352 0.4139 0.0
C1179 C 0.0711 0.6196 0.38793 0.0
H1180 H 0.10709 0.69382 0.23122 0.0
H1181 H 0.08665 0.66875 0.27714 0.0
H1182 H 0.11076 0.63652 0.33303 0.0
H1183 H 0.0396 0.55679 0.41127 0.0
H1184 H 0.05888 0.58291 0.36587 0.0
loop_
_geom_bond_atom_site_label_1
_geom_bond_atom_site_label_2
_geom_bond_distance
_geom_bond_site_symmetry_2
_ccdc_geom_bond_type
H0 C27 0.929 . S
N1 C26 1.433 . S
N1 C32 1.435 . S
N1 C38 1.423 . S
H2 C28 0.930 . S
H3 C31 0.931 . S
H4 C30 0.929 . S
H5 C33 0.930 . S
H6 C34 0.932 . S
H7 C37 0.929 . S
H8 C36 0.931 . S
H9 C39 0.929 . S
H10 C43 0.932 . S
H11 C40 0.931 . S
H12 C42 0.929 . S
H13 C45 0.929 . S
H14 C46 0.930 . S
H15 C48 0.929 . S
H16 C49 0.931 . S
H17 C51 0.930 . S
H18 C52 0.932 . S
H19 C54 0.931 . S
H20 C55 0.929 . S
H21 C57 0.929 . S
H22 C58 0.931 . S
H23 C60 0.929 . S
N24 C44 1.433 . S
N24 C50 1.435 . S
N24 C56 1.423 . S
H25 C61 0.932 . S
C26 N1 1.433 . S
C26 C27 1.363 . S
C26 C31 1.370 . S
C27 H0 0.929 . S
C27 C26 1.363 . S
C27 C28 1.385 . S
C28 H2 0.930 . S
C28 C27 1.385 . S
C28 C29 1.357 . S
C29 C28 1.357 . S
C29 C30 1.406 . S
C30 H4 0.929 . S
C30 C29 1.406 . S
C30 C31 1.391 . S
C31 H3 0.931 . S
C31 C26 1.370 . S
C31 C30 1.391 . S
C32 N1 1.435 . S
C32 C33 1.358 . S
C32 C37 1.371 . S
C33 H5 0.930 . S
C33 C32 1.358 . S
C33 C34 1.405 . S
C34 H6 0.932 . S
C34 C33 1.405 . S
C34 C35 1.383 . S
C35 C34 1.383 . S
C35 C36 1.393 . S
C36 H8 0.931 . S
C36 C35 1.393 . S
C36 C37 1.382 . S
C37 H7 0.929 . S
C37 C32 1.371 . S
C37 C36 1.382 . S
C38 N1 1.423 . S
C38 C39 1.362 . S
C38 C43 1.388 . S
C39 H9 0.929 . S
C39 C38 1.362 . S
C39 C40 1.376 . S
C40 H11 0.931 . S
C40 C39 1.376 . S
C40 C41 1.396 . S
C41 C40 1.396 . S
C41 C42 1.348 . S
C41 C59 1.472 . S
C42 H12 0.929 . S
C42 C41 1.348 . S
C42 C43 1.443 . S
C43 H10 0.932 . S
C43 C38 1.388 . S
C43 C42 1.443 . S
C44 N24 1.433 . S
C44 C45 1.363 . S
C44 C49 1.370 . S
C45 H13 0.929 . S
C45 C44 1.363 . S
C45 C46 1.385 . S
C46 H14 0.930 . S
C46 C45 1.385 . S
C46 C47 1.357 . S
C47 C46 1.357 . S
C47 C48 1.406 . S
C48 H15 0.929 . S
C48 C47 1.406 . S
C48 C49 1.391 . S
C49 H16 0.931 . S
C49 C44 1.370 . S
C49 C48 1.391 . S
C50 N24 1.435 . S
C50 C51 1.358 . S
C50 C55 1.371 . S
C51 H17 0.930 . S
C51 C50 1.358 . S
C51 C52 1.405 . S
C52 H18 0.932 . S
C52 C51 1.405 . S
C52 C53 1.383 . S
C53 C52 1.383 . S
C53 C54 1.393 . S
C54 H19 0.931 . S
C54 C53 1.393 . S
C54 C55 1.382 . S
C55 H20 0.929 . S
C55 C50 1.371 . S
C55 C54 1.382 . S
C56 N24 1.423 . S
C56 C57 1.362 . S
C56 C61 1.388 . S
C57 H21 0.929 . S
C57 C56 1.362 . S
C57 C58 1.376 . S
C58 H22 0.931 . S
C58 C57 1.376 . S
C58 C59 1.396 . S
C59 C41 1.472 . S
C59 C58 1.396 . S
C59 C60 1.348 . S
C60 H23 0.929 . S
C60 C59 1.348 . S
C60 C61 1.443 . S
C61 H25 0.932 . S
C61 C56 1.388 . S
C61 C60 1.443 . S
H62 C89 0.929 . S
N63 C88 1.433 . S
N63 C94 1.435 . S
N63 C100 1.423 . S
H64 C90 0.930 . S
H65 C93 0.931 . S
H66 C92 0.929 . S
H67 C95 0.930 . S
H68 C96 0.932 . S
H69 C99 0.929 . S
H70 C98 0.931 1_556 S
H71 C101 0.929 . S
H72 C105 0.932 . S
H73 C102 0.931 . S
H74 C104 0.929 . S
H75 C107 0.929 . S
H76 C108 0.930 . S
H77 C110 0.929 . S
H78 C111 0.931 . S
H79 C113 0.930 . S
H80 C114 0.932 . S
H81 C116 0.931 1_556 S
H82 C117 0.929 . S
H83 C119 0.929 . S
H84 C120 0.931 . S
H85 C122 0.929 . S
N86 C106 1.433 . S
N86 C112 1.435 . S
N86 C118 1.423 . S
H87 C123 0.932 . S
C88 N63 1.433 . S
C88 C89 1.363 . S
C88 C93 1.370 . S
C89 H62 0.929 . S
C89 C88 1.363 . S
C89 C90 1.385 . S
C90 H64 0.930 . S
C90 C89 1.385 . S
C90 C91 1.357 . S
C91 C90 1.357 . S
C91 C92 1.406 . S
C92 H66 0.929 . S
C92 C91 1.406 . S
C92 C93 1.391 . S
C93 H65 0.931 . S
C93 C88 1.370 . S
C93 C92 1.391 . S
C94 N63 1.435 . S
C94 C95 1.358 . S
C94 C99 1.371 . S
C95 H67 0.930 . S
C95 C94 1.358 . S
C95 C96 1.405 . S
C96 H68 0.932 . S
C96 C95 1.405 . S
C96 C97 1.383 . S
C97 C96 1.383 . S
C97 C98 1.393 . S
C98 H70 0.931 1_554 S
C98 C97 1.393 . S
C98 C99 1.382 . S
C99 H69 0.929 . S
C99 C94 1.371 . S
C99 C98 1.382 . S
C100 N63 1.423 . S
C100 C101 1.362 . S
C100 C105 1.388 . S
C101 H71 0.929 . S
C101 C100 1.362 . S
C101 C102 1.376 . S
C102 H73 0.931 . S
C102 C101 1.376 . S
C102 C103 1.396 . S
C103 C102 1.396 . S
C103 C104 1.348 . S
C103 C121 1.472 . S
C104 H74 0.929 . S
C104 C103 1.348 . S
C104 C105 1.443 . S
C105 H72 0.932 . S
C105 C100 1.388 . S
C105 C104 1.443 . S
C106 N86 1.433 . S
C106 C107 1.363 . S
C106 C111 1.370 . S
C107 H75 0.929 . S
C107 C106 1.363 . S
C107 C108 1.385 . S
C108 H76 0.930 . S
C108 C107 1.385 . S
C108 C109 1.357 . S
C109 C108 1.357 . S
C109 C110 1.406 . S
C110 H77 0.929 . S
C110 C109 1.406 . S
C110 C111 1.391 . S
C111 H78 0.931 . S
C111 C106 1.370 . S
C111 C110 1.391 . S
C112 N86 1.435 . S
C112 C113 1.358 . S
C112 C117 1.371 . S
C113 H79 0.930 . S
C113 C112 1.358 . S
C113 C114 1.405 . S
C114 H80 0.932 . S
C114 C113 1.405 . S
C114 C115 1.383 . S
C115 C114 1.383 . S
C115 C116 1.393 . S
C116 H81 0.931 1_554 S
C116 C115 1.393 . S
C116 C117 1.382 . S
C117 H82 0.929 . S
C117 C112 1.371 . S
C117 C116 1.382 . S
C118 N86 1.423 . S
C118 C119 1.362 . S
C118 C123 1.388 . S
C119 H83 0.929 . S
C119 C118 1.362 . S
C119 C120 1.376 . S
C120 H84 0.931 . S
C120 C119 1.376 . S
C120 C121 1.396 . S
C121 C103 1.472 . S
C121 C120 1.396 . S
C121 C122 1.348 . S
C122 H85 0.929 . S
C122 C121 1.348 . S
C122 C123 1.443 . S
C123 H87 0.932 . S
C123 C118 1.388 . S
C123 C122 1.443 . S
H124 C151 0.929 . S
N125 C150 1.433 1_554 S
N125 C156 1.435 . S
N125 C162 1.423 . S
H126 C152 0.930 . S
H127 C155 0.931 . S
H128 C154 0.929 . S
H129 C157 0.930 . S
H130 C158 0.932 . S
H131 C161 0.929 . S
H132 C160 0.931 . S
H133 C163 0.929 1_556 S
H134 C167 0.932 . S
H135 C164 0.931 1_556 S
H136 C166 0.929 . S
H137 C169 0.929 . S
H138 C170 0.930 . S
H139 C172 0.929 . S
H140 C173 0.931 . S
H141 C175 0.930 . S
H142 C176 0.932 . S
H143 C178 0.931 . S
H144 C179 0.929 . S
H145 C181 0.929 1_556 S
H146 C182 0.931 1_556 S
H147 C184 0.929 . S
N148 C168 1.433 1_554 S
N148 C174 1.435 . S
N148 C180 1.423 . S
H149 C185 0.932 . S
C150 N125 1.433 1_556 S
C150 C151 1.363 . S
C150 C155 1.370 . S
C151 H124 0.929 . S
C151 C150 1.363 . S
C151 C152 1.385 . S
C152 H126 0.930 . S
C152 C151 1.385 . S
C152 C153 1.357 . S
C153 C152 1.357 . S
C153 C154 1.406 . S
C154 H128 0.929 . S
C154 C153 1.406 . S
C154 C155 1.391 . S
C155 H127 0.931 . S
C155 C150 1.370 . S
C155 C154 1.391 . S
C156 N125 1.435 . S
C156 C157 1.358 . S
C156 C161 1.371 . S
C157 H129 0.930 . S
C157 C156 1.358 . S
C157 C158 1.405 . S
C158 H130 0.932 . S
C158 C157 1.405 . S
C158 C159 1.383 . S
C159 C158 1.383 . S
C159 C160 1.393 . S
C160 H132 0.931 . S
C160 C159 1.393 . S
C160 C161 1.382 . S
C161 H131 0.929 . S
C161 C156 1.371 . S
C161 C160 1.382 . S
C162 N125 1.423 . S
C162 C163 1.362 . S
C162 C167 1.388 . S
C163 H133 0.929 1_554 S
C163 C162 1.362 . S
C163 C164 1.376 . S
C164 H135 0.931 1_554 S
C164 C163 1.376 . S
C164 C165 1.396 . S
C165 C164 1.396 . S
C165 C166 1.348 . S
C165 C183 1.472 . S
C166 H136 0.929 . S
C166 C165 1.348 . S
C166 C167 1.443 . S
C167 H134 0.932 . S
C167 C162 1.388 . S
C167 C166 1.443 . S
C168 N148 1.433 1_556 S
C168 C169 1.363 . S
C168 C173 1.370 . S
C169 H137 0.929 . S
C169 C168 1.363 . S
C169 C170 1.385 . S
C170 H138 0.930 . S
C170 C169 1.385 . S
C170 C171 1.357 . S
C171 C170 1.357 . S
C171 C172 1.406 . S
C172 H139 0.929 . S
C172 C171 1.406 . S
C172 C173 1.391 . S
C173 H140 0.931 . S
C173 C168 1.370 . S
C173 C172 1.391 . S
C174 N148 1.435 . S
C174 C175 1.358 . S
C174 C179 1.371 . S
C175 H141 0.930 . S
C175 C174 1.358 . S
C175 C176 1.405 . S
C176 H142 0.932 . S
C176 C175 1.405 . S
C176 C177 1.383 . S
C177 C176 1.383 . S
C177 C178 1.393 . S
C178 H143 0.931 . S
C178 C177 1.393 . S
C178 C179 1.382 . S
C179 H144 0.929 . S
C179 C174 1.371 . S
C179 C178 1.382 . S
C180 N148 1.423 . S
C180 C181 1.362 . S
C180 C185 1.388 . S
C181 H145 0.929 1_554 S
C181 C180 1.362 . S
C181 C182 1.376 . S
C182 H146 0.931 1_554 S
C182 C181 1.376 . S
C182 C183 1.396 . S
C183 C165 1.472 . S
C183 C182 1.396 . S
C183 C184 1.348 . S
C184 H147 0.929 . S
C184 C183 1.348 . S
C184 C185 1.443 . S
C185 H149 0.932 . S
C185 C180 1.388 . S
C185 C184 1.443 . S
H186 C213 0.929 . S
N187 C212 1.433 . S
N187 C218 1.435 . S
N187 C224 1.423 . S
H188 C214 0.930 . S
H189 C217 0.931 . S
H190 C216 0.929 . S
H191 C219 0.930 . S
H192 C220 0.932 . S
H193 C223 0.929 . S
H194 C222 0.931 . S
H195 C225 0.929 . S
H196 C229 0.932 . S
H197 C226 0.931 . S
H198 C228 0.929 1_556 S
H199 C231 0.929 . S
H200 C232 0.930 . S
H201 C234 0.929 . S
H202 C235 0.931 . S
H203 C237 0.930 . S
H204 C238 0.932 . S
H205 C240 0.931 . S
H206 C241 0.929 . S
H207 C243 0.929 . S
H208 C244 0.931 . S
H209 C246 0.929 1_556 S
N210 C230 1.433 . S
N210 C236 1.435 . S
N210 C242 1.423 . S
H211 C247 0.932 1_556 S
C212 N187 1.433 . S
C212 C213 1.363 . S
C212 C217 1.370 . S
C213 H186 0.929 . S
C213 C212 1.363 . S
C213 C214 1.385 . S
C214 H188 0.930 . S
C214 C213 1.385 . S
C214 C215 1.357 . S
C215 C214 1.357 . S
C215 C216 1.406 . S
C216 H190 0.929 . S
C216 C215 1.406 . S
C216 C217 1.391 . S
C217 H189 0.931 . S
C217 C212 1.370 . S
C217 C216 1.391 . S
C218 N187 1.435 . S
C218 C219 1.358 . S
C218 C223 1.371 1_554 S
C219 H191 0.930 . S
C219 C218 1.358 . S
C219 C220 1.405 1_554 S
C220 H192 0.932 . S
C220 C219 1.405 1_556 S
C220 C221 1.383 . S
C221 C220 1.383 . S
C221 C222 1.393 . S
C222 H194 0.931 . S
C222 C221 1.393 . S
C222 C223 1.382 . S
C223 H193 0.929 . S
C223 C218 1.371 1_556 S
C223 C222 1.382 . S
C224 N187 1.423 . S
C224 C225 1.362 . S
C224 C229 1.388 . S
C225 H195 0.929 . S
C225 C224 1.362 . S
C225 C226 1.376 . S
C226 H197 0.931 . S
C226 C225 1.376 . S
C226 C227 1.396 . S
C227 C226 1.396 . S
C227 C228 1.348 . S
C227 C245 1.472 . S
C228 H198 0.929 1_554 S
C228 C227 1.348 . S
C228 C229 1.443 . S
C229 H196 0.932 . S
C229 C224 1.388 . S
C229 C228 1.443 . S
C230 N210 1.433 . S
C230 C231 1.363 . S
C230 C235 1.370 . S
C231 H199 0.929 . S
C231 C230 1.363 . S
C231 C232 1.385 . S
C232 H200 0.930 . S
C232 C231 1.385 . S
C232 C233 1.357 . S
C233 C232 1.357 . S
C233 C234 1.406 . S
C234 H201 0.929 . S
C234 C233 1.406 . S
C234 C235 1.391 . S
C235 H202 0.931 . S
C235 C230 1.370 . S
C235 C234 1.391 . S
C236 N210 1.435 . S
C236 C237 1.358 . S
C236 C241 1.371 1_554 S
C237 H203 0.930 . S
C237 C236 1.358 . S
C237 C238 1.405 1_554 S
C238 H204 0.932 . S
C238 C237 1.405 1_556 S
C238 C239 1.383 . S
C239 C238 1.383 . S
C239 C240 1.393 . S
C240 H205 0.931 . S
C240 C239 1.393 . S
C240 C241 1.382 . S
C241 H206 0.929 . S
C241 C236 1.371 1_556 S
C241 C240 1.382 . S
C242 N210 1.423 . S
C242 C243 1.362 . S
C242 C247 1.388 . S
C243 H207 0.929 . S
C243 C242 1.362 . S
C243 C244 1.376 . S
C244 H208 0.931 . S
C244 C243 1.376 . S
C244 C245 1.396 . S
C245 C227 1.472 . S
C245 C244 1.396 . S
C245 C246 1.348 . S
C246 H209 0.929 1_554 S
C246 C245 1.348 . S
C246 C247 1.443 . S
C247 H211 0.932 1_554 S
C247 C242 1.388 . S
C247 C246 1.443 . S
H248 C275 0.929 . S
N249 C274 1.433 . S
N249 C280 1.435 . S
N249 C286 1.423 . S
H250 C276 0.930 . S
H251 C279 0.931 . S
H252 C278 0.929 . S
H253 C281 0.930 . S
H254 C282 0.932 . S
H255 C285 0.926 1_556 S
H256 C284 0.931 . S
H257 C287 0.929 . S
H258 C291 0.932 . S
H259 C288 0.931 . S
H260 C290 0.929 . S
H261 C293 0.929 . S
H262 C294 0.930 . S
H263 C296 0.929 . S
H264 C297 0.931 . S
H265 C299 0.930 . S
H266 C300 0.932 . S
H267 C302 0.931 . S
H268 C303 0.929 . S
H269 C305 0.929 . S
H270 C306 0.931 . S
H271 C308 0.929 . S
N272 C292 1.433 . S
N272 C298 1.435 . S
N272 C304 1.423 . S
H273 C309 0.932 . S
C274 N249 1.433 . S
C274 C275 1.363 . S
C274 C279 1.370 . S
C275 H248 0.929 . S
C275 C274 1.363 . S
C275 C276 1.385 . S
C276 H250 0.930 . S
C276 C275 1.385 . S
C276 C277 1.357 . S
C277 C276 1.357 . S
C277 C278 1.406 . S
C278 H252 0.929 . S
C278 C277 1.406 . S
C278 C279 1.391 . S
C279 H251 0.931 . S
C279 C274 1.370 . S
C279 C278 1.391 . S
C280 N249 1.435 . S
C280 C281 1.358 . S
C280 C285 1.391 . S
C281 H253 0.930 . S
C281 C280 1.358 . S
C281 C282 1.405 . S
C282 H254 0.932 . S
C282 C281 1.405 . S
C282 C283 1.383 1_554 S
C283 C282 1.383 1_556 S
C283 C284 1.393 . S
C284 H256 0.931 . S
C284 C283 1.393 . S
C284 C285 1.366 1_556 S
C285 H255 0.926 1_554 S
C285 C280 1.391 . S
C285 C284 1.366 1_554 S
C286 N249 1.423 . S
C286 C287 1.362 . S
C286 C291 1.388 . S
C287 H257 0.929 . S
C287 C286 1.362 . S
C287 C288 1.376 . S
C288 H259 0.931 . S
C288 C287 1.376 . S
C288 C289 1.396 . S
C289 C288 1.396 . S
C289 C290 1.348 . S
C289 C307 1.472 . S
C290 H260 0.929 . S
C290 C289 1.348 . S
C290 C291 1.443 . S
C291 H258 0.932 . S
C291 C286 1.388 . S
C291 C290 1.443 . S
C292 N272 1.433 . S
C292 C293 1.363 . S
C292 C297 1.370 . S
C293 H261 0.929 . S
C293 C292 1.363 . S
C293 C294 1.385 . S
C294 H262 0.930 . S
C294 C293 1.385 . S
C294 C295 1.357 . S
C295 C294 1.357 . S
C295 C296 1.406 . S
C296 H263 0.929 . S
C296 C295 1.406 . S
C296 C297 1.391 . S
C297 H264 0.931 . S
C297 C292 1.370 . S
C297 C296 1.391 . S
C298 N272 1.435 . S
C298 C299 1.358 . S
C298 C303 1.371 . S
C299 H265 0.930 . S
C299 C298 1.358 . S
C299 C300 1.405 . S
C300 H266 0.932 . S
C300 C299 1.405 . S
C300 C301 1.383 1_554 S
C301 C300 1.383 1_556 S
C301 C302 1.393 . S
C302 H267 0.931 . S
C302 C301 1.393 . S
C302 C303 1.382 1_556 S
C303 H268 0.929 . S
C303 C298 1.371 . S
C303 C302 1.382 1_554 S
C304 N272 1.423 . S
C304 C305 1.362 . S
C304 C309 1.388 . S
C305 H269 0.929 . S
C305 C304 1.362 . S
C305 C306 1.376 . S
C306 H270 0.931 . S
C306 C305 1.376 . S
C306 C307 1.396 . S
C307 C289 1.472 . S
C307 C306 1.396 . S
C307 C308 1.348 . S
C308 H271 0.929 . S
C308 C307 1.348 . S
C308 C309 1.443 . S
C309 H273 0.932 . S
C309 C304 1.388 . S
C309 C308 1.443 . S
H310 C337 0.929 . S
N311 C336 1.433 . S
N311 C342 1.435 . S
N311 C348 1.423 . S
H312 C338 0.930 . S
H313 C341 0.931 . S
H314 C340 0.929 . S
H315 C343 0.930 . S
H316 C344 0.932 . S
H317 C347 0.929 . S
H318 C346 0.931 . S
H319 C349 0.929 . S
H320 C353 0.932 . S
H321 C350 0.931 . S
H322 C352 0.929 . S
H323 C355 0.929 . S
H324 C356 0.930 . S
H325 C358 0.929 . S
H326 C359 0.931 . S
H327 C361 0.930 . S
H328 C362 0.932 . S
H329 C364 0.931 . S
H330 C365 0.929 . S
H331 C367 0.929 . S
H332 C368 0.931 . S
H333 C370 0.929 . S
N334 C354 1.433 . S
N334 C360 1.435 . S
N334 C366 1.423 . S
H335 C371 0.932 . S
C336 N311 1.433 . S
C336 C337 1.363 . S
C336 C341 1.370 . S
C337 H310 0.929 . S
C337 C336 1.363 . S
C337 C338 1.385 . S
C338 H312 0.930 . S
C338 C337 1.385 . S
C338 C339 1.357 . S
C339 C338 1.357 . S
C339 C340 1.406 . S
C340 H314 0.929 . S
C340 C339 1.406 . S
C340 C341 1.391 . S
C341 H313 0.931 . S
C341 C336 1.370 . S
C341 C340 1.391 . S
C342 N311 1.435 . S
C342 C343 1.358 . S
C342 C347 1.371 . S
C343 H315 0.930 . S
C343 C342 1.358 . S
C343 C344 1.405 . S
C344 H316 0.932 . S
C344 C343 1.405 . S
C344 C345 1.383 . S
C345 C344 1.383 . S
C345 C346 1.393 . S
C346 H318 0.931 . S
C346 C345 1.393 . S
C346 C347 1.382 . S
C347 H317 0.929 . S
C347 C342 1.371 . S
C347 C346 1.382 . S
C348 N311 1.423 . S
C348 C349 1.362 . S
C348 C353 1.388 . S
C349 H319 0.929 . S
C349 C348 1.362 . S
C349 C350 1.376 . S
C350 H321 0.931 . S
C350 C349 1.376 . S
C350 C351 1.396 . S
C351 C350 1.396 . S
C351 C352 1.348 . S
C351 C369 1.472 . S
C352 H322 0.929 . S
C352 C351 1.348 . S
C352 C353 1.443 . S
C353 H320 0.932 . S
C353 C348 1.388 . S
C353 C352 1.443 . S
C354 N334 1.433 . S
C354 C355 1.363 . S
C354 C359 1.370 . S
C355 H323 0.929 . S
C355 C354 1.363 . S
C355 C356 1.385 . S
C356 H324 0.930 . S
C356 C355 1.385 . S
C356 C357 1.357 . S
C357 C356 1.357 . S
C357 C358 1.406 . S
C358 H325 0.929 . S
C358 C357 1.406 . S
C358 C359 1.391 . S
C359 H326 0.931 . S
C359 C354 1.370 . S
C359 C358 1.391 . S
C360 N334 1.435 . S
C360 C361 1.358 . S
C360 C365 1.371 . S
C361 H327 0.930 . S
C361 C360 1.358 . S
C361 C362 1.405 . S
C362 H328 0.932 . S
C362 C361 1.405 . S
C362 C363 1.383 . S
C363 C362 1.383 . S
C363 C364 1.393 . S
C364 H329 0.931 . S
C364 C363 1.393 . S
C364 C365 1.382 . S
C365 H330 0.929 . S
C365 C360 1.371 . S
C365 C364 1.382 . S
C366 N334 1.423 . S
C366 C367 1.362 . S
C366 C371 1.388 . S
C367 H331 0.929 . S
C367 C366 1.362 . S
C367 C368 1.376 . S
C368 H332 0.931 . S
C368 C367 1.376 . S
C368 C369 1.396 . S
C369 C351 1.472 . S
C369 C368 1.396 . S
C369 C370 1.348 . S
C370 H333 0.929 . S
C370 C369 1.348 . S
C370 C371 1.443 . S
C371 H335 0.932 . S
C371 C366 1.388 . S
C371 C370 1.443 . S
C372 O384 1.241 . S
C372 O385 1.280 . S
C373 O386 1.277 . S
C373 O387 1.245 . S
C374 O398 1.247 . S
C374 O400 1.289 . S
Mg375 O376 1.942 1_655 S
Mg375 O385 2.004 . S
Mg375 O387 1.958 1_655 S
Mg375 O388 2.078 . S
O376 Mg375 1.942 1_455 S
O376 Mg377 1.986 . S
O376 Mg378 1.917 . S
Mg377 O376 1.986 . S
Mg377 O384 2.042 1_455 S
Mg377 O386 2.041 . S
Mg377 O392 2.038 1_455 S
Mg377 O400 2.238 . S
Mg378 O376 1.917 . S
Mg378 O379 1.917 . S
Mg378 O389 2.106 1_455 S
Mg378 O391 2.079 1_455 S
Mg378 O400 2.106 . S
Mg378 O401 2.079 . S
O379 Mg378 1.917 . S
O379 Mg380 1.926 . S
O379 Mg381 1.986 . S
Mg380 O379 1.926 . S
Mg380 O394 1.984 . S
Mg380 O397 1.988 1_455 S
Mg380 O398 2.061 . S
Mg381 O379 1.986 . S
Mg381 O389 2.238 1_455 S
Mg381 O393 2.042 . S
Mg381 O395 2.041 1_455 S
Mg381 O402 2.038 . S
C382 O388 1.247 . S
C382 O389 1.289 . S
C383 O401 1.245 . S
C383 O402 1.274 . S
O384 C372 1.241 . S
O384 Mg377 2.042 1_655 S
O385 C372 1.280 . S
O385 Mg375 2.004 . S
O386 C373 1.277 . S
O386 Mg377 2.041 . S
O387 C373 1.245 . S
O387 Mg375 1.958 1_455 S
O388 Mg375 2.078 . S
O388 C382 1.247 . S
O389 Mg378 2.106 1_655 S
O389 Mg381 2.238 1_655 S
O389 C382 1.289 . S
C390 O391 1.245 . S
C390 O392 1.274 . S
O391 Mg378 2.079 1_655 S
O391 C390 1.245 . S
O392 Mg377 2.038 1_655 S
O392 C390 1.274 . S
O393 Mg381 2.042 . S
O393 C396 1.241 . S
O394 Mg380 1.984 . S
O394 C396 1.280 . S
O395 Mg381 2.041 1_655 S
O395 C399 1.277 . S
C396 O393 1.241 . S
C396 O394 1.280 . S
O397 Mg380 1.988 1_655 S
O397 C399 1.245 . S
O398 C374 1.247 . S
O398 Mg380 2.061 . S
C399 O395 1.277 . S
C399 O397 1.245 . S
O400 C374 1.289 . S
O400 Mg377 2.238 . S
O400 Mg378 2.106 . S
O401 Mg378 2.079 . S
O401 C383 1.245 . S
O402 Mg381 2.038 . S
O402 C383 1.274 . S
C403 O415 1.241 . S
C403 O416 1.280 . S
C404 O417 1.277 . S
C404 O418 1.245 . S
C405 O429 1.247 . S
C405 O431 1.289 . S
Mg406 O407 1.926 . S
Mg406 O416 1.984 . S
Mg406 O418 1.988 1_545 S
Mg406 O419 2.061 . S
O407 Mg406 1.926 . S
O407 Mg408 1.986 . S
O407 Mg409 1.917 . S
Mg408 O407 1.986 . S
Mg408 O415 2.042 . S
Mg408 O417 2.041 1_545 S
Mg408 O423 2.038 . S
Mg408 O431 2.238 1_545 S
Mg409 O407 1.917 . S
Mg409 O410 1.917 1_545 S
Mg409 O420 2.106 . S
Mg409 O422 2.079 . S
Mg409 O431 2.106 1_545 S
Mg409 O432 2.079 1_545 S
O410 Mg409 1.917 1_565 S
O410 Mg411 1.926 . S
O410 Mg412 1.986 1_565 S
Mg411 O410 1.926 . S
Mg411 O425 1.984 . S
Mg411 O428 1.988 1_565 S
Mg411 O429 2.061 . S
Mg412 O410 1.986 1_545 S
Mg412 O420 2.238 . S
Mg412 O424 2.042 1_545 S
Mg412 O426 2.041 . S
Mg412 O433 2.038 1_545 S
C413 O419 1.247 . S
C413 O420 1.289 . S
C414 O432 1.245 . S
C414 O433 1.274 . S
O415 C403 1.241 . S
O415 Mg408 2.042 . S
O416 C403 1.280 . S
O416 Mg406 1.984 . S
O417 C404 1.277 . S
O417 Mg408 2.041 1_565 S
O418 C404 1.245 . S
O418 Mg406 1.988 1_565 S
O419 Mg406 2.061 . S
O419 C413 1.247 . S
O420 Mg409 2.106 . S
O420 Mg412 2.238 . S
O420 C413 1.289 . S
C421 O422 1.245 . S
C421 O423 1.274 . S
O422 Mg409 2.079 . S
O422 C421 1.245 . S
O423 Mg408 2.038 . S
O423 C421 1.274 . S
O424 Mg412 2.042 1_565 S
O424 C427 1.241 . S
O425 Mg411 1.984 . S
O425 C427 1.280 . S
O426 Mg412 2.041 . S
O426 C430 1.277 . S
C427 O424 1.241 . S
C427 O425 1.280 . S
O428 Mg411 1.988 1_545 S
O428 C430 1.245 . S
O429 C405 1.247 . S
O429 Mg411 2.061 . S
C430 O426 1.277 . S
C430 O428 1.245 . S
O431 C405 1.289 . S
O431 Mg408 2.238 1_565 S
O431 Mg409 2.106 1_565 S
O432 Mg409 2.079 1_565 S
O432 C414 1.245 . S
O433 Mg412 2.038 1_565 S
O433 C414 1.274 . S
C434 O446 1.241 . S
C434 O447 1.280 . S
C435 O448 1.277 . S
C435 O449 1.245 . S
C436 O460 1.247 . S
C436 O462 1.289 . S
Mg437 O438 1.926 . S
Mg437 O447 1.984 . S
Mg437 O449 1.988 . S
Mg437 O450 2.061 . S
O438 Mg437 1.926 . S
O438 Mg439 1.986 . S
O438 Mg440 1.917 . S
Mg439 O438 1.986 . S
Mg439 O446 2.042 . S
Mg439 O448 2.041 . S
Mg439 O454 2.038 . S
Mg439 O462 2.238 . S
Mg440 O438 1.917 . S
Mg440 O441 1.917 . S
Mg440 O451 2.106 . S
Mg440 O453 2.079 . S
Mg440 O462 2.106 . S
Mg440 O463 2.079 . S
O441 Mg440 1.917 . S
O441 Mg442 1.926 . S
O441 Mg443 1.986 . S
Mg442 O441 1.926 . S
Mg442 O456 1.984 . S
Mg442 O459 1.988 . S
Mg442 O460 2.061 . S
Mg443 O441 1.986 . S
Mg443 O451 2.238 . S
Mg443 O455 2.042 . S
Mg443 O457 2.041 . S
Mg443 O464 2.038 . S
C444 O450 1.247 . S
C444 O451 1.289 . S
C445 O463 1.245 . S
C445 O464 1.274 . S
O446 C434 1.241 . S
O446 Mg439 2.042 . S
O447 C434 1.280 . S
O447 Mg437 1.984 . S
O448 C435 1.277 . S
O448 Mg439 2.041 . S
O449 C435 1.245 . S
O449 Mg437 1.988 . S
O450 Mg437 2.061 . S
O450 C444 1.247 . S
O451 Mg440 2.106 . S
O451 Mg443 2.238 . S
O451 C444 1.289 . S
C452 O453 1.245 . S
C452 O454 1.274 . S
O453 Mg440 2.079 . S
O453 C452 1.245 . S
O454 Mg439 2.038 . S
O454 C452 1.274 . S
O455 Mg443 2.042 . S
O455 C458 1.241 . S
O456 Mg442 1.984 . S
O456 C458 1.280 . S
O457 Mg443 2.041 . S
O457 C461 1.277 . S
C458 O455 1.241 . S
C458 O456 1.280 . S
O459 Mg442 1.988 . S
O459 C461 1.245 . S
O460 C436 1.247 . S
O460 Mg442 2.061 . S
C461 O457 1.277 . S
C461 O459 1.245 . S
O462 C436 1.289 . S
O462 Mg439 2.238 . S
O462 Mg440 2.106 . S
O463 Mg440 2.079 . S
O463 C445 1.245 . S
O464 Mg443 2.038 . S
O464 C445 1.274 . S
C465 C466 1.349 . S
C465 C467 1.327 . S
C465 H490 0.950 . S
C466 C465 1.349 . S
C466 C482 1.349 . S
C467 C465 1.327 . S
C467 C486 1.429 . S
C467 H491 0.950 . S
C468 C485 1.574 . S
C468 C487 1.368 . S
C468 H492 0.949 . S
H469 C473 0.949 . S
C470 C471 1.349 . S
C470 C472 1.327 . S
C470 H493 0.950 . S
C471 C470 1.349 . S
C471 C483 1.349 . S
C472 C470 1.327 . S
C472 C488 1.429 . S
C472 H494 0.950 . S
C473 H469 0.949 . S
C473 C481 1.574 . S
C473 C489 1.368 . S
H474 C482 0.950 . S
H475 C480 0.950 . S
H476 C481 0.949 . S
H477 C483 0.950 . S
H478 C484 0.950 . S
H479 C485 0.949 . S
C480 H475 0.950 . S
C480 C482 1.327 . S
C480 C486 1.429 . S
C481 C473 1.574 . S
C481 H476 0.949 . S
C481 C487 1.368 . S
C482 C466 1.349 . S
C482 H474 0.950 . S
C482 C480 1.327 . S
C483 C471 1.349 . S
C483 H477 0.950 . S
C483 C484 1.327 . S
C484 H478 0.950 . S
C484 C483 1.327 . S
C484 C488 1.429 . S
C485 C468 1.574 . S
C485 H479 0.949 . S
C485 C489 1.368 . S
C486 C467 1.429 . S
C486 C480 1.429 . S
C486 C487 1.523 . S
C487 C468 1.368 . S
C487 C481 1.368 . S
C487 C486 1.523 . S
C488 C472 1.429 . S
C488 C484 1.429 . S
C488 C489 1.523 . S
C489 C473 1.368 . S
C489 C485 1.368 . S
C489 C488 1.523 . S
H490 C465 0.950 . S
H491 C467 0.950 . S
H492 C468 0.949 . S
H493 C470 0.950 . S
H494 C472 0.950 . S
C495 C496 1.349 . S
C495 C497 1.327 . S
C495 H520 0.950 . S
C496 C495 1.349 . S
C496 C512 1.349 . S
C497 C495 1.327 . S
C497 C516 1.429 . S
C497 H521 0.950 . S
C498 C515 1.574 . S
C498 C517 1.368 . S
C498 H522 0.949 . S
H499 C503 0.949 . S
C500 C501 1.349 . S
C500 C502 1.327 . S
C500 H523 0.950 . S
C501 C500 1.349 . S
C501 C513 1.349 . S
C502 C500 1.327 . S
C502 C518 1.429 . S
C502 H524 0.950 . S
C503 H499 0.949 . S
C503 C511 1.574 . S
C503 C519 1.368 . S
H504 C512 0.950 . S
H505 C510 0.950 . S
H506 C511 0.949 . S
H507 C513 0.950 . S
H508 C514 0.950 . S
H509 C515 0.949 . S
C510 H505 0.950 . S
C510 C512 1.327 . S
C510 C516 1.429 . S
C511 C503 1.574 . S
C511 H506 0.949 . S
C511 C517 1.368 . S
C512 C496 1.349 . S
C512 H504 0.950 . S
C512 C510 1.327 . S
C513 C501 1.349 . S
C513 H507 0.950 . S
C513 C514 1.327 . S
C514 H508 0.950 . S
C514 C513 1.327 . S
C514 C518 1.429 . S
C515 C498 1.574 . S
C515 H509 0.949 . S
C515 C519 1.368 . S
C516 C497 1.429 . S
C516 C510 1.429 . S
C516 C517 1.523 . S
C517 C498 1.368 . S
C517 C511 1.368 . S
C517 C516 1.523 . S
C518 C502 1.429 . S
C518 C514 1.429 . S
C518 C519 1.523 . S
C519 C503 1.368 . S
C519 C515 1.368 . S
C519 C518 1.523 . S
H520 C495 0.950 . S
H521 C497 0.950 . S
H522 C498 0.949 . S
H523 C500 0.950 . S
H524 C502 0.950 . S
C525 C526 1.349 . S
C525 C527 1.327 . S
C525 H550 0.950 . S
C526 C525 1.349 . S
C526 C542 1.349 . S
C527 C525 1.327 . S
C527 C546 1.429 . S
C527 H551 0.950 . S
C528 C545 1.574 . S
C528 C547 1.368 . S
C528 H552 0.949 . S
H529 C533 0.949 . S
C530 C531 1.349 . S
C530 C532 1.327 . S
C530 H553 0.950 . S
C531 C530 1.349 . S
C531 C543 1.349 . S
C532 C530 1.327 . S
C532 C548 1.429 . S
C532 H554 0.950 . S
C533 H529 0.949 . S
C533 C541 1.574 . S
C533 C549 1.368 . S
H534 C542 0.950 . S
H535 C540 0.950 . S
H536 C541 0.949 . S
H537 C543 0.950 . S
H538 C544 0.950 . S
H539 C545 0.949 . S
C540 H535 0.950 . S
C540 C542 1.327 . S
C540 C546 1.429 . S
C541 C533 1.574 . S
C541 H536 0.949 . S
C541 C547 1.368 . S
C542 C526 1.349 . S
C542 H534 0.950 . S
C542 C540 1.327 . S
C543 C531 1.349 . S
C543 H537 0.950 . S
C543 C544 1.327 . S
C544 H538 0.950 . S
C544 C543 1.327 . S
C544 C548 1.429 . S
C545 C528 1.574 . S
C545 H539 0.949 . S
C545 C549 1.368 . S
C546 C527 1.429 . S
C546 C540 1.429 . S
C546 C547 1.523 . S
C547 C528 1.368 . S
C547 C541 1.368 . S
C547 C546 1.523 . S
C548 C532 1.429 . S
C548 C544 1.429 . S
C548 C549 1.523 . S
C549 C533 1.368 . S
C549 C545 1.368 . S
C549 C548 1.523 . S
H550 C525 0.950 . S
H551 C527 0.950 . S
H552 C528 0.949 . S
H553 C530 0.950 . S
H554 C532 0.950 . S
C555 C556 1.349 . S
C555 C557 1.327 . S
C555 H580 0.950 . S
C556 C555 1.349 . S
C556 C572 1.349 . S
C557 C555 1.327 . S
C557 C576 1.429 . S
C557 H581 0.950 . S
C558 C575 1.574 . S
C558 C577 1.368 . S
C558 H582 0.949 . S
H559 C563 0.949 . S
C560 C561 1.349 . S
C560 C562 1.327 . S
C560 H583 0.950 . S
C561 C560 1.349 . S
C561 C573 1.349 . S
C562 C560 1.327 . S
C562 C578 1.429 . S
C562 H584 0.950 . S
C563 H559 0.949 . S
C563 C571 1.574 . S
C563 C579 1.368 . S
H564 C572 0.950 . S
H565 C570 0.950 . S
H566 C571 0.949 . S
H567 C573 0.950 . S
H568 C574 0.950 . S
H569 C575 0.949 . S
C570 H565 0.950 . S
C570 C572 1.327 . S
C570 C576 1.429 . S
C571 C563 1.574 . S
C571 H566 0.949 . S
C571 C577 1.368 . S
C572 C556 1.349 . S
C572 H564 0.950 . S
C572 C570 1.327 . S
C573 C561 1.349 . S
C573 H567 0.950 . S
C573 C574 1.327 . S
C574 H568 0.950 . S
C574 C573 1.327 . S
C574 C578 1.429 . S
C575 C558 1.574 . S
C575 H569 0.949 . S
C575 C579 1.368 . S
C576 C557 1.429 . S
C576 C570 1.429 . S
C576 C577 1.523 . S
C577 C558 1.368 . S
C577 C571 1.368 . S
C577 C576 1.523 . S
C578 C562 1.429 . S
C578 C574 1.429 . S
C578 C579 1.523 . S
C579 C563 1.368 . S
C579 C575 1.368 . S
C579 C578 1.523 . S
H580 C555 0.950 . S
H581 C557 0.950 . S
H582 C558 0.949 . S
H583 C560 0.950 . S
H584 C562 0.950 . S
C585 C586 1.349 . S
C585 C587 1.327 . S
C585 H610 0.950 . S
C586 C585 1.349 . S
C586 C602 1.349 . S
C587 C585 1.327 . S
C587 C606 1.429 . S
C587 H611 0.950 . S
C588 C605 1.574 . S
C588 C607 1.368 . S
C588 H612 0.949 . S
H589 C593 0.949 . S
C590 C591 1.349 . S
C590 C592 1.327 . S
C590 H613 0.950 . S
C591 C590 1.349 . S
C591 C603 1.349 . S
C592 C590 1.327 . S
C592 C608 1.429 . S
C592 H614 0.950 . S
C593 H589 0.949 . S
C593 C601 1.574 . S
C593 C609 1.368 . S
H594 C602 0.950 . S
H595 C600 0.950 . S
H596 C601 0.949 . S
H597 C603 0.950 . S
H598 C604 0.950 . S
H599 C605 0.949 . S
C600 H595 0.950 . S
C600 C602 1.327 . S
C600 C606 1.429 . S
C601 C593 1.574 . S
C601 H596 0.949 . S
C601 C607 1.368 . S
C602 C586 1.349 . S
C602 H594 0.950 . S
C602 C600 1.327 . S
C603 C591 1.349 . S
C603 H597 0.950 . S
C603 C604 1.327 . S
C604 H598 0.950 . S
C604 C603 1.327 . S
C604 C608 1.429 . S
C605 C588 1.574 . S
C605 H599 0.949 . S
C605 C609 1.368 . S
C606 C587 1.429 . S
C606 C600 1.429 . S
C606 C607 1.523 . S
C607 C588 1.368 . S
C607 C601 1.368 . S
C607 C606 1.523 . S
C608 C592 1.429 . S
C608 C604 1.429 . S
C608 C609 1.523 . S
C609 C593 1.368 . S
C609 C605 1.368 . S
C609 C608 1.523 . S
H610 C585 0.950 . S
H611 C587 0.950 . S
H612 C588 0.949 . S
H613 C590 0.950 . S
H614 C592 0.950 . S
C615 C616 1.349 . S
C615 C617 1.327 . S
C615 H640 0.950 . S
C616 C615 1.349 . S
C616 C632 1.349 . S
C617 C615 1.327 . S
C617 C636 1.429 . S
C617 H641 0.950 . S
C618 C635 1.574 . S
C618 C637 1.368 . S
C618 H642 0.949 . S
H619 C623 0.949 . S
C620 C621 1.349 . S
C620 C622 1.327 . S
C620 H643 0.950 . S
C621 C620 1.349 . S
C621 C633 1.349 . S
C622 C620 1.327 . S
C622 C638 1.429 . S
C622 H644 0.950 . S
C623 H619 0.949 . S
C623 C631 1.574 . S
C623 C639 1.368 . S
H624 C632 0.950 . S
H625 C630 0.950 . S
H626 C631 0.949 . S
H627 C633 0.950 . S
H628 C634 0.950 . S
H629 C635 0.949 . S
C630 H625 0.950 . S
C630 C632 1.327 . S
C630 C636 1.429 . S
C631 C623 1.574 . S
C631 H626 0.949 . S
C631 C637 1.368 . S
C632 C616 1.349 . S
C632 H624 0.950 . S
C632 C630 1.327 . S
C633 C621 1.349 . S
C633 H627 0.950 . S
C633 C634 1.327 . S
C634 H628 0.950 . S
C634 C633 1.327 . S
C634 C638 1.429 . S
C635 C618 1.574 . S
C635 H629 0.949 . S
C635 C639 1.368 . S
C636 C617 1.429 . S
C636 C630 1.429 . S
C636 C637 1.523 . S
C637 C618 1.368 . S
C637 C631 1.368 . S
C637 C636 1.523 . S
C638 C622 1.429 . S
C638 C634 1.429 . S
C638 C639 1.523 . S
C639 C623 1.368 . S
C639 C635 1.368 . S
C639 C638 1.523 . S
H640 C615 0.950 . S
H641 C617 0.950 . S
H642 C618 0.949 . S
H643 C620 0.950 . S
H644 C622 0.950 . S
C645 C646 1.349 . S
C645 C647 1.327 . S
C645 H670 0.950 . S
C646 C645 1.349 . S
C646 C662 1.349 . S
C647 C645 1.327 . S
C647 C666 1.429 . S
C647 H671 0.950 . S
C648 C665 1.574 . S
C648 C667 1.368 . S
C648 H672 0.949 . S
H649 C653 0.949 . S
C650 C651 1.349 . S
C650 C652 1.327 . S
C650 H673 0.950 . S
C651 C650 1.349 . S
C651 C663 1.349 . S
C652 C650 1.327 . S
C652 C668 1.429 . S
C652 H674 0.950 . S
C653 H649 0.949 . S
C653 C661 1.574 . S
C653 C669 1.368 . S
H654 C662 0.950 . S
H655 C660 0.950 . S
H656 C661 0.949 . S
H657 C663 0.950 . S
H658 C664 0.950 . S
H659 C665 0.949 . S
C660 H655 0.950 . S
C660 C662 1.327 . S
C660 C666 1.429 . S
C661 C653 1.574 . S
C661 H656 0.949 . S
C661 C667 1.368 . S
C662 C646 1.349 . S
C662 H654 0.950 . S
C662 C660 1.327 . S
C663 C651 1.349 . S
C663 H657 0.950 . S
C663 C664 1.327 . S
C664 H658 0.950 . S
C664 C663 1.327 . S
C664 C668 1.429 . S
C665 C648 1.574 . S
C665 H659 0.949 . S
C665 C669 1.368 . S
C666 C647 1.429 . S
C666 C660 1.429 . S
C666 C667 1.523 . S
C667 C648 1.368 . S
C667 C661 1.368 . S
C667 C666 1.523 . S
C668 C652 1.429 . S
C668 C664 1.429 . S
C668 C669 1.523 . S
C669 C653 1.368 . S
C669 C665 1.368 . S
C669 C668 1.523 . S
H670 C645 0.950 . S
H671 C647 0.950 . S
H672 C648 0.949 . S
H673 C650 0.950 . S
H674 C652 0.950 . S
C675 C676 1.349 . S
C675 C677 1.327 . S
C675 H700 0.950 . S
C676 C675 1.349 . S
C676 C692 1.349 . S
C677 C675 1.327 . S
C677 C696 1.429 . S
C677 H701 0.950 . S
C678 C695 1.574 . S
C678 C697 1.368 . S
C678 H702 0.949 . S
H679 C683 0.949 . S
C680 C681 1.349 . S
C680 C682 1.327 . S
C680 H703 0.950 . S
C681 C680 1.349 . S
C681 C693 1.349 . S
C682 C680 1.327 . S
C682 C698 1.429 . S
C682 H704 0.950 . S
C683 H679 0.949 . S
C683 C691 1.574 . S
C683 C699 1.368 . S
H684 C692 0.950 . S
H685 C690 0.950 . S
H686 C691 0.949 . S
H687 C693 0.950 . S
H688 C694 0.950 . S
H689 C695 0.949 . S
C690 H685 0.950 . S
C690 C692 1.327 . S
C690 C696 1.429 . S
C691 C683 1.574 . S
C691 H686 0.949 . S
C691 C697 1.368 . S
C692 C676 1.349 . S
C692 H684 0.950 . S
C692 C690 1.327 . S
C693 C681 1.349 . S
C693 H687 0.950 . S
C693 C694 1.327 . S
C694 H688 0.950 . S
C694 C693 1.327 . S
C694 C698 1.429 . S
C695 C678 1.574 . S
C695 H689 0.949 . S
C695 C699 1.368 . S
C696 C677 1.429 . S
C696 C690 1.429 . S
C696 C697 1.523 . S
C697 C678 1.368 . S
C697 C691 1.368 . S
C697 C696 1.523 . S
C698 C682 1.429 . S
C698 C694 1.429 . S
C698 C699 1.523 . S
C699 C683 1.368 . S
C699 C695 1.368 . S
C699 C698 1.523 . S
H700 C675 0.950 . S
H701 C677 0.950 . S
H702 C678 0.949 . S
H703 C680 0.950 . S
H704 C682 0.950 . S
C705 C706 1.349 . S
C705 C707 1.327 . S
C705 H730 0.950 . S
C706 C705 1.349 . S
C706 C722 1.349 . S
C707 C705 1.327 . S
C707 C726 1.429 . S
C707 H731 0.950 . S
C708 C725 1.574 . S
C708 C727 1.368 . S
C708 H732 0.949 . S
H709 C713 0.949 . S
C710 C711 1.349 . S
C710 C712 1.327 . S
C710 H733 0.950 . S
C711 C710 1.349 . S
C711 C723 1.349 . S
C712 C710 1.327 . S
C712 C728 1.429 . S
C712 H734 0.950 . S
C713 H709 0.949 . S
C713 C721 1.574 . S
C713 C729 1.368 . S
H714 C722 0.950 . S
H715 C720 0.950 . S
H716 C721 0.949 . S
H717 C723 0.950 . S
H718 C724 0.950 . S
H719 C725 0.949 . S
C720 H715 0.950 . S
C720 C722 1.327 . S
C720 C726 1.429 . S
C721 C713 1.574 . S
C721 H716 0.949 . S
C721 C727 1.368 . S
C722 C706 1.349 . S
C722 H714 0.950 . S
C722 C720 1.327 . S
C723 C711 1.349 . S
C723 H717 0.950 . S
C723 C724 1.327 . S
C724 H718 0.950 . S
C724 C723 1.327 . S
C724 C728 1.429 . S
C725 C708 1.574 . S
C725 H719 0.949 . S
C725 C729 1.368 . S
C726 C707 1.429 . S
C726 C720 1.429 . S
C726 C727 1.523 . S
C727 C708 1.368 . S
C727 C721 1.368 . S
C727 C726 1.523 . S
C728 C712 1.429 . S
C728 C724 1.429 . S
C728 C729 1.523 . S
C729 C713 1.368 . S
C729 C725 1.368 . S
C729 C728 1.523 . S
H730 C705 0.950 . S
H731 C707 0.950 . S
H732 C708 0.949 . S
H733 C710 0.950 . S
H734 C712 0.950 . S
C735 C736 1.349 . S
C735 C737 1.327 . S
C735 H760 0.950 . S
C736 C735 1.349 . S
C736 C752 1.349 1_554 S
C737 C735 1.327 . S
C737 C756 1.429 1_554 S
C737 H761 0.950 . S
C738 C755 1.574 . S
C738 C757 1.368 . S
C738 H762 0.949 . S
H739 C743 0.949 . S
C740 C741 1.349 . S
C740 C742 1.327 . S
C740 H763 0.950 . S
C741 C740 1.349 . S
C741 C753 1.349 . S
C742 C740 1.327 . S
C742 C758 1.429 . S
C742 H764 0.950 . S
C743 H739 0.949 . S
C743 C751 1.574 . S
C743 C759 1.368 . S
H744 C752 0.950 . S
H745 C750 0.950 . S
H746 C751 0.949 . S
H747 C753 0.950 . S
H748 C754 0.950 . S
H749 C755 0.949 . S
C750 H745 0.950 . S
C750 C752 1.327 . S
C750 C756 1.429 . S
C751 C743 1.574 . S
C751 H746 0.949 . S
C751 C757 1.368 . S
C752 C736 1.349 1_556 S
C752 H744 0.950 . S
C752 C750 1.327 . S
C753 C741 1.349 . S
C753 H747 0.950 . S
C753 C754 1.327 . S
C754 H748 0.950 . S
C754 C753 1.327 . S
C754 C758 1.429 . S
C755 C738 1.574 . S
C755 H749 0.949 . S
C755 C759 1.368 . S
C756 C737 1.429 1_556 S
C756 C750 1.429 . S
C756 C757 1.523 . S
C757 C738 1.368 . S
C757 C751 1.368 . S
C757 C756 1.523 . S
C758 C742 1.429 . S
C758 C754 1.429 . S
C758 C759 1.523 . S
C759 C743 1.368 . S
C759 C755 1.368 . S
C759 C758 1.523 . S
H760 C735 0.950 . S
H761 C737 0.950 . S
H762 C738 0.949 . S
H763 C740 0.950 . S
H764 C742 0.950 . S
C765 C766 1.349 . S
C765 C767 1.327 . S
C765 H790 0.950 1_556 S
C766 C765 1.349 . S
C766 C782 1.349 . S
C767 C765 1.327 . S
C767 C786 1.429 . S
C767 H791 0.950 . S
C768 C785 1.574 . S
C768 C787 1.368 . S
C768 H792 0.949 . S
H769 C773 0.949 . S
C770 C771 1.349 . S
C770 C772 1.327 . S
C770 H793 0.950 . S
C771 C770 1.349 . S
C771 C783 1.349 . S
C772 C770 1.327 . S
C772 C788 1.429 . S
C772 H794 0.950 . S
C773 H769 0.949 . S
C773 C781 1.574 . S
C773 C789 1.368 . S
H774 C782 0.950 . S
H775 C780 0.950 . S
H776 C781 0.949 . S
H777 C783 0.950 . S
H778 C784 0.950 . S
H779 C785 0.949 . S
C780 H775 0.950 . S
C780 C782 1.327 . S
C780 C786 1.429 . S
C781 C773 1.574 . S
C781 H776 0.949 . S
C781 C787 1.368 . S
C782 C766 1.349 . S
C782 H774 0.950 . S
C782 C780 1.327 . S
C783 C771 1.349 . S
C783 H777 0.950 . S
C783 C784 1.327 . S
C784 H778 0.950 . S
C784 C783 1.327 . S
C784 C788 1.429 . S
C785 C768 1.574 . S
C785 H779 0.949 . S
C785 C789 1.368 . S
C786 C767 1.429 . S
C786 C780 1.429 . S
C786 C787 1.523 . S
C787 C768 1.368 . S
C787 C781 1.368 . S
C787 C786 1.523 . S
C788 C772 1.429 . S
C788 C784 1.429 . S
C788 C789 1.523 . S
C789 C773 1.368 . S
C789 C785 1.368 . S
C789 C788 1.523 . S
H790 C765 0.950 1_554 S
H791 C767 0.950 . S
H792 C768 0.949 . S
H793 C770 0.950 . S
H794 C772 0.950 . S
C795 C796 1.352 . S
C795 C797 1.333 . S
C795 H820 0.941 1_556 S
C796 C795 1.352 . S
C796 C812 1.349 . S
C797 C795 1.333 . S
C797 C816 1.429 . S
C797 H821 0.950 . S
C798 C815 1.574 . S
C798 C817 1.368 . S
C798 H822 0.949 . S
H799 C803 0.949 . S
C800 C801 1.349 . S
C800 C802 1.327 . S
C800 H823 0.950 . S
C801 C800 1.349 . S
C801 C813 1.349 . S
C802 C800 1.327 . S
C802 C818 1.429 . S
C802 H824 0.950 . S
C803 H799 0.949 . S
C803 C811 1.574 . S
C803 C819 1.368 . S
H804 C812 0.950 . S
H805 C810 0.950 . S
H806 C811 0.949 . S
H807 C813 0.950 . S
H808 C814 0.950 . S
H809 C815 0.949 . S
C810 H805 0.950 . S
C810 C812 1.327 . S
C810 C816 1.429 . S
C811 C803 1.574 . S
C811 H806 0.949 . S
C811 C817 1.368 . S
C812 C796 1.349 . S
C812 H804 0.950 . S
C812 C810 1.327 . S
C813 C801 1.349 . S
C813 H807 0.950 . S
C813 C814 1.327 . S
C814 H808 0.950 . S
C814 C813 1.327 . S
C814 C818 1.429 . S
C815 C798 1.574 . S
C815 H809 0.949 . S
C815 C819 1.368 . S
C816 C797 1.429 . S
C816 C810 1.429 . S
C816 C817 1.523 . S
C817 C798 1.368 . S
C817 C811 1.368 . S
C817 C816 1.523 . S
C818 C802 1.429 . S
C818 C814 1.429 . S
C818 C819 1.523 . S
C819 C803 1.368 . S
C819 C815 1.368 . S
C819 C818 1.523 . S
H820 C795 0.941 1_554 S
H821 C797 0.950 . S
H822 C798 0.949 . S
H823 C800 0.950 . S
H824 C802 0.950 . S
C825 C826 1.349 . S
C825 C827 1.327 . S
C825 H850 0.950 . S
C826 C825 1.349 . S
C826 C842 1.349 . S
C827 C825 1.327 . S
C827 C846 1.429 . S
C827 H851 0.950 . S
C828 C845 1.574 . S
C828 C847 1.368 . S
C828 H852 0.949 . S
H829 C833 0.949 . S
C830 C831 1.349 . S
C830 C832 1.327 . S
C830 H853 0.950 . S
C831 C830 1.349 . S
C831 C843 1.349 . S
C832 C830 1.327 . S
C832 C848 1.429 . S
C832 H854 0.950 . S
C833 H829 0.949 . S
C833 C841 1.574 . S
C833 C849 1.368 . S
H834 C842 0.950 . S
H835 C840 0.950 . S
H836 C841 0.949 . S
H837 C843 0.950 . S
H838 C844 0.950 . S
H839 C845 0.949 . S
C840 H835 0.950 . S
C840 C842 1.327 . S
C840 C846 1.429 . S
C841 C833 1.574 . S
C841 H836 0.949 . S
C841 C847 1.368 . S
C842 C826 1.349 . S
C842 H834 0.950 . S
C842 C840 1.327 . S
C843 C831 1.349 . S
C843 H837 0.950 . S
C843 C844 1.327 . S
C844 H838 0.950 . S
C844 C843 1.327 . S
C844 C848 1.429 . S
C845 C828 1.574 . S
C845 H839 0.949 . S
C845 C849 1.368 . S
C846 C827 1.429 . S
C846 C840 1.429 . S
C846 C847 1.523 . S
C847 C828 1.368 . S
C847 C841 1.368 . S
C847 C846 1.523 . S
C848 C832 1.429 . S
C848 C844 1.429 . S
C848 C849 1.523 . S
C849 C833 1.368 . S
C849 C845 1.368 . S
C849 C848 1.523 . S
H850 C825 0.950 . S
H851 C827 0.950 . S
H852 C828 0.949 . S
H853 C830 0.950 . S
H854 C832 0.950 . S
C855 C856 1.349 . S
C855 C857 1.327 . S
C855 H880 0.950 . S
C856 C855 1.349 . S
C856 C872 1.349 . S
C857 C855 1.327 . S
C857 C876 1.429 . S
C857 H881 0.950 . S
C858 C875 1.574 . S
C858 C877 1.368 . S
C858 H882 0.949 . S
H859 C863 0.949 . S
C860 C861 1.349 . S
C860 C862 1.327 . S
C860 H883 0.950 . S
C861 C860 1.349 . S
C861 C873 1.349 . S
C862 C860 1.327 . S
C862 C878 1.429 . S
C862 H884 0.950 . S
C863 H859 0.949 . S
C863 C871 1.574 . S
C863 C879 1.368 . S
H864 C872 0.950 . S
H865 C870 0.950 . S
H866 C871 0.949 . S
H867 C873 0.950 . S
H868 C874 0.950 . S
H869 C875 0.949 . S
C870 H865 0.950 . S
C870 C872 1.327 . S
C870 C876 1.429 . S
C871 C863 1.574 . S
C871 H866 0.949 . S
C871 C877 1.368 . S
C872 C856 1.349 . S
C872 H864 0.950 . S
C872 C870 1.327 . S
C873 C861 1.349 . S
C873 H867 0.950 . S
C873 C874 1.327 . S
C874 H868 0.950 . S
C874 C873 1.327 . S
C874 C878 1.429 . S
C875 C858 1.574 . S
C875 H869 0.949 . S
C875 C879 1.368 . S
C876 C857 1.429 . S
C876 C870 1.429 . S
C876 C877 1.523 . S
C877 C858 1.368 . S
C877 C871 1.368 . S
C877 C876 1.523 . S
C878 C862 1.429 . S
C878 C874 1.429 . S
C878 C879 1.523 . S
C879 C863 1.368 . S
C879 C875 1.368 . S
C879 C878 1.523 . S
H880 C855 0.950 . S
H881 C857 0.950 . S
H882 C858 0.949 . S
H883 C860 0.950 . S
H884 C862 0.950 . S
C885 C886 1.349 . S
C885 C887 1.327 1_554 S
C885 H910 0.950 . S
C886 C885 1.349 . S
C886 C902 1.349 1_554 S
C887 C885 1.327 1_556 S
C887 C906 1.429 . S
C887 H911 0.950 . S
C888 C905 1.574 . S
C888 C907 1.368 . S
C888 H912 0.949 . S
H889 C893 0.949 . S
C890 C891 1.349 . S
C890 C892 1.327 . S
C890 H913 0.950 . S
C891 C890 1.349 . S
C891 C903 1.349 . S
C892 C890 1.327 . S
C892 C908 1.429 . S
C892 H914 0.950 . S
C893 H889 0.949 . S
C893 C901 1.574 . S
C893 C909 1.368 . S
H894 C902 0.950 . S
H895 C900 0.950 . S
H896 C901 0.949 . S
H897 C903 0.950 . S
H898 C904 0.950 . S
H899 C905 0.949 . S
C900 H895 0.950 . S
C900 C902 1.327 . S
C900 C906 1.429 . S
C901 C893 1.574 . S
C901 H896 0.949 . S
C901 C907 1.368 . S
C902 C886 1.349 1_556 S
C902 H894 0.950 . S
C902 C900 1.327 . S
C903 C891 1.349 . S
C903 H897 0.950 . S
C903 C904 1.327 . S
C904 H898 0.950 . S
C904 C903 1.327 . S
C904 C908 1.429 . S
C905 C888 1.574 . S
C905 H899 0.949 . S
C905 C909 1.368 . S
C906 C887 1.429 . S
C906 C900 1.429 . S
C906 C907 1.523 . S
C907 C888 1.368 . S
C907 C901 1.368 . S
C907 C906 1.523 . S
C908 C892 1.429 . S
C908 C904 1.429 . S
C908 C909 1.523 . S
C909 C893 1.368 . S
C909 C905 1.368 . S
C909 C908 1.523 . S
H910 C885 0.950 . S
H911 C887 0.950 . S
H912 C888 0.949 . S
H913 C890 0.950 . S
H914 C892 0.950 . S
C915 C916 1.349 . S
C915 C917 1.327 . S
C915 H940 0.950 . S
C916 C915 1.349 . S
C916 C932 1.349 . S
C917 C915 1.327 . S
C917 C936 1.429 . S
C917 H941 0.950 . S
C918 C935 1.574 . S
C918 C937 1.368 . S
C918 H942 0.949 . S
H919 C923 0.949 . S
C920 C921 1.349 . S
C920 C922 1.327 . S
C920 H943 0.950 . S
C921 C920 1.349 . S
C921 C933 1.349 . S
C922 C920 1.327 . S
C922 C938 1.429 . S
C922 H944 0.950 . S
C923 H919 0.949 . S
C923 C931 1.574 . S
C923 C939 1.368 . S
H924 C932 0.950 . S
H925 C930 0.950 . S
H926 C931 0.949 . S
H927 C933 0.950 . S
H928 C934 0.950 . S
H929 C935 0.949 . S
C930 H925 0.950 . S
C930 C932 1.327 . S
C930 C936 1.429 . S
C931 C923 1.574 . S
C931 H926 0.949 . S
C931 C937 1.368 . S
C932 C916 1.349 . S
C932 H924 0.950 . S
C932 C930 1.327 . S
C933 C921 1.349 . S
C933 H927 0.950 . S
C933 C934 1.327 . S
C934 H928 0.950 . S
C934 C933 1.327 . S
C934 C938 1.429 . S
C935 C918 1.574 . S
C935 H929 0.949 . S
C935 C939 1.368 . S
C936 C917 1.429 . S
C936 C930 1.429 . S
C936 C937 1.523 . S
C937 C918 1.368 . S
C937 C931 1.368 . S
C937 C936 1.523 . S
C938 C922 1.429 . S
C938 C934 1.429 . S
C938 C939 1.523 . S
C939 C923 1.368 . S
C939 C935 1.368 . S
C939 C938 1.523 . S
H940 C915 0.950 . S
H941 C917 0.950 . S
H942 C918 0.949 . S
H943 C920 0.950 . S
H944 C922 0.950 . S
C945 C946 1.349 . S
C945 C947 1.327 . S
C945 H970 0.950 1_556 S
C946 C945 1.349 . S
C946 C962 1.349 . S
C947 C945 1.327 . S
C947 C966 1.429 . S
C947 H971 0.950 . S
C948 C965 1.574 . S
C948 C967 1.368 . S
C948 H972 0.949 . S
H949 C953 0.949 . S
C950 C951 1.349 . S
C950 C952 1.327 . S
C950 H973 0.950 . S
C951 C950 1.349 . S
C951 C963 1.349 . S
C952 C950 1.327 . S
C952 C968 1.429 . S
C952 H974 0.950 . S
C953 H949 0.949 . S
C953 C961 1.574 . S
C953 C969 1.368 . S
H954 C962 0.950 . S
H955 C960 0.950 . S
H956 C961 0.949 . S
H957 C963 0.950 . S
H958 C964 0.950 . S
H959 C965 0.949 . S
C960 H955 0.950 . S
C960 C962 1.327 . S
C960 C966 1.429 . S
C961 C953 1.574 . S
C961 H956 0.949 . S
C961 C967 1.368 . S
C962 C946 1.349 . S
C962 H954 0.950 . S
C962 C960 1.327 . S
C963 C951 1.349 . S
C963 H957 0.950 . S
C963 C964 1.327 . S
C964 H958 0.950 . S
C964 C963 1.327 . S
C964 C968 1.429 . S
C965 C948 1.574 . S
C965 H959 0.949 . S
C965 C969 1.368 . S
C966 C947 1.429 . S
C966 C960 1.429 . S
C966 C967 1.523 . S
C967 C948 1.368 . S
C967 C961 1.368 . S
C967 C966 1.523 . S
C968 C952 1.429 . S
C968 C964 1.429 . S
C968 C969 1.523 . S
C969 C953 1.368 . S
C969 C965 1.368 . S
C969 C968 1.523 . S
H970 C945 0.950 1_554 S
H971 C947 0.950 . S
H972 C948 0.949 . S
H973 C950 0.950 . S
H974 C952 0.950 . S
C975 C976 1.349 . S
C975 C977 1.327 . S
C975 H1000 0.950 . S
C976 C975 1.349 . S
C976 C992 1.349 . S
C977 C975 1.327 . S
C977 C996 1.429 . S
C977 H1001 0.950 . S
C978 C995 1.574 . S
C978 C997 1.368 . S
C978 H1002 0.949 . S
H979 C983 0.949 . S
C980 C981 1.349 . S
C980 C982 1.327 . S
C980 H1003 0.950 . S
C981 C980 1.349 . S
C981 C993 1.349 . S
C982 C980 1.327 . S
C982 C998 1.429 . S
C982 H1004 0.950 . S
C983 H979 0.949 . S
C983 C991 1.574 . S
C983 C999 1.368 . S
H984 C992 0.950 . S
H985 C990 0.950 . S
H986 C991 0.949 . S
H987 C993 0.950 . S
H988 C994 0.950 . S
H989 C995 0.949 . S
C990 H985 0.950 . S
C990 C992 1.327 . S
C990 C996 1.429 . S
C991 C983 1.574 . S
C991 H986 0.949 . S
C991 C997 1.368 . S
C992 C976 1.349 . S
C992 H984 0.950 . S
C992 C990 1.327 . S
C993 C981 1.349 . S
C993 H987 0.950 . S
C993 C994 1.327 . S
C994 H988 0.950 . S
C994 C993 1.327 . S
C994 C998 1.429 . S
C995 C978 1.574 . S
C995 H989 0.949 . S
C995 C999 1.368 . S
C996 C977 1.429 . S
C996 C990 1.429 . S
C996 C997 1.523 . S
C997 C978 1.368 . S
C997 C991 1.368 . S
C997 C996 1.523 . S
C998 C982 1.429 . S
C998 C994 1.429 . S
C998 C999 1.523 . S
C999 C983 1.368 . S
C999 C995 1.368 . S
C999 C998 1.523 . S
H1000 C975 0.950 . S
H1001 C977 0.950 . S
H1002 C978 0.949 . S
H1003 C980 0.950 . S
H1004 C982 0.950 . S
C1005 C1006 1.349 . S
C1005 C1007 1.327 . S
C1005 H1030 0.950 . S
C1006 C1005 1.349 . S
C1006 C1022 1.349 . S
C1007 C1005 1.327 . S
C1007 C1026 1.429 . S
C1007 H1031 0.950 . S
C1008 C1025 1.574 . S
C1008 C1027 1.368 . S
C1008 H1032 0.949 . S
H1009 C1013 0.949 . S
C1010 C1011 1.349 . S
C1010 C1012 1.327 . S
C1010 H1033 0.950 . S
C1011 C1010 1.349 . S
C1011 C1023 1.349 . S
C1012 C1010 1.327 . S
C1012 C1028 1.429 . S
C1012 H1034 0.950 . S
C1013 H1009 0.949 . S
C1013 C1021 1.574 . S
C1013 C1029 1.368 . S
H1014 C1022 0.950 . S
H1015 C1020 0.950 . S
H1016 C1021 0.949 . S
H1017 C1023 0.950 . S
H1018 C1024 0.950 . S
H1019 C1025 0.949 . S
C1020 H1015 0.950 . S
C1020 C1022 1.327 . S
C1020 C1026 1.429 . S
C1021 C1013 1.574 . S
C1021 H1016 0.949 . S
C1021 C1027 1.368 . S
C1022 C1006 1.349 . S
C1022 H1014 0.950 . S
C1022 C1020 1.327 . S
C1023 C1011 1.349 . S
C1023 H1017 0.950 . S
C1023 C1024 1.327 . S
C1024 H1018 0.950 . S
C1024 C1023 1.327 . S
C1024 C1028 1.429 . S
C1025 C1008 1.574 . S
C1025 H1019 0.949 . S
C1025 C1029 1.368 . S
C1026 C1007 1.429 . S
C1026 C1020 1.429 . S
C1026 C1027 1.523 . S
C1027 C1008 1.368 . S
C1027 C1021 1.368 . S
C1027 C1026 1.523 . S
C1028 C1012 1.429 . S
C1028 C1024 1.429 . S
C1028 C1029 1.523 . S
C1029 C1013 1.368 . S
C1029 C1025 1.368 . S
C1029 C1028 1.523 . S
H1030 C1005 0.950 . S
H1031 C1007 0.950 . S
H1032 C1008 0.949 . S
H1033 C1010 0.950 . S
H1034 C1012 0.950 . S
C1035 C1036 1.349 . S
C1035 C1037 1.327 . S
C1035 H1060 0.950 . S
C1036 C1035 1.349 . S
C1036 C1052 1.349 . S
C1037 C1035 1.327 . S
C1037 C1056 1.429 . S
C1037 H1061 0.950 . S
C1038 C1055 1.574 . S
C1038 C1057 1.368 . S
C1038 H1062 0.949 . S
H1039 C1043 0.949 . S
C1040 C1041 1.349 . S
C1040 C1042 1.327 . S
C1040 H1063 0.950 . S
C1041 C1040 1.349 . S
C1041 C1053 1.349 . S
C1042 C1040 1.327 . S
C1042 C1058 1.429 . S
C1042 H1064 0.950 . S
C1043 H1039 0.949 . S
C1043 C1051 1.574 . S
C1043 C1059 1.368 . S
H1044 C1052 0.950 . S
H1045 C1050 0.950 . S
H1046 C1051 0.949 . S
H1047 C1053 0.950 . S
H1048 C1054 0.950 . S
H1049 C1055 0.949 . S
C1050 H1045 0.950 . S
C1050 C1052 1.327 . S
C1050 C1056 1.429 . S
C1051 C1043 1.574 . S
C1051 H1046 0.949 . S
C1051 C1057 1.368 . S
C1052 C1036 1.349 . S
C1052 H1044 0.950 . S
C1052 C1050 1.327 . S
C1053 C1041 1.349 . S
C1053 H1047 0.950 . S
C1053 C1054 1.327 . S
C1054 H1048 0.950 . S
C1054 C1053 1.327 . S
C1054 C1058 1.429 . S
C1055 C1038 1.574 . S
C1055 H1049 0.949 . S
C1055 C1059 1.368 . S
C1056 C1037 1.429 . S
C1056 C1050 1.429 . S
C1056 C1057 1.523 . S
C1057 C1038 1.368 . S
C1057 C1051 1.368 . S
C1057 C1056 1.523 . S
C1058 C1042 1.429 . S
C1058 C1054 1.429 . S
C1058 C1059 1.523 . S
C1059 C1043 1.368 . S
C1059 C1055 1.368 . S
C1059 C1058 1.523 . S
H1060 C1035 0.950 . S
H1061 C1037 0.950 . S
H1062 C1038 0.949 . S
H1063 C1040 0.950 . S
H1064 C1042 0.950 . S
C1065 C1066 1.349 . S
C1065 C1067 1.327 . S
C1065 H1090 0.950 . S
C1066 C1065 1.349 . S
C1066 C1082 1.349 . S
C1067 C1065 1.327 . S
C1067 C1086 1.429 . S
C1067 H1091 0.950 . S
C1068 C1085 1.574 . S
C1068 C1087 1.368 . S
C1068 H1092 0.949 . S
H1069 C1073 0.949 . S
C1070 C1071 1.349 . S
C1070 C1072 1.327 . S
C1070 H1093 0.950 . S
C1071 C1070 1.349 . S
C1071 C1083 1.349 . S
C1072 C1070 1.327 . S
C1072 C1088 1.429 . S
C1072 H1094 0.950 . S
C1073 H1069 0.949 . S
C1073 C1081 1.574 . S
C1073 C1089 1.368 . S
H1074 C1082 0.950 . S
H1075 C1080 0.950 . S
H1076 C1081 0.949 . S
H1077 C1083 0.950 . S
H1078 C1084 0.950 . S
H1079 C1085 0.949 . S
C1080 H1075 0.950 . S
C1080 C1082 1.327 . S
C1080 C1086 1.429 . S
C1081 C1073 1.574 . S
C1081 H1076 0.949 . S
C1081 C1087 1.368 . S
C1082 C1066 1.349 . S
C1082 H1074 0.950 . S
C1082 C1080 1.327 . S
C1083 C1071 1.349 . S
C1083 H1077 0.950 . S
C1083 C1084 1.327 . S
C1084 H1078 0.950 . S
C1084 C1083 1.327 . S
C1084 C1088 1.429 . S
C1085 C1068 1.574 . S
C1085 H1079 0.949 . S
C1085 C1089 1.368 . S
C1086 C1067 1.429 . S
C1086 C1080 1.429 . S
C1086 C1087 1.523 . S
C1087 C1068 1.368 . S
C1087 C1081 1.368 . S
C1087 C1086 1.523 . S
C1088 C1072 1.429 . S
C1088 C1084 1.429 . S
C1088 C1089 1.523 . S
C1089 C1073 1.368 . S
C1089 C1085 1.368 . S
C1089 C1088 1.523 . S
H1090 C1065 0.950 . S
H1091 C1067 0.950 . S
H1092 C1068 0.949 . S
H1093 C1070 0.950 . S
H1094 C1072 0.950 . S
C1095 C1096 1.349 . S
C1095 C1097 1.327 . S
C1095 H1120 0.950 . S
C1096 C1095 1.349 . S
C1096 C1112 1.349 . S
C1097 C1095 1.327 . S
C1097 C1116 1.429 . S
C1097 H1121 0.950 . S
C1098 C1115 1.574 . S
C1098 C1117 1.368 . S
C1098 H1122 0.949 . S
H1099 C1103 0.949 . S
C1100 C1101 1.349 . S
C1100 C1102 1.327 . S
C1100 H1123 0.950 . S
C1101 C1100 1.349 . S
C1101 C1113 1.349 . S
C1102 C1100 1.327 . S
C1102 C1118 1.429 . S
C1102 H1124 0.950 . S
C1103 H1099 0.949 . S
C1103 C1111 1.574 . S
C1103 C1119 1.368 . S
H1104 C1112 0.950 . S
H1105 C1110 0.950 . S
H1106 C1111 0.949 . S
H1107 C1113 0.950 . S
H1108 C1114 0.950 . S
H1109 C1115 0.949 . S
C1110 H1105 0.950 . S
C1110 C1112 1.327 . S
C1110 C1116 1.429 . S
C1111 C1103 1.574 . S
C1111 H1106 0.949 . S
C1111 C1117 1.368 . S
C1112 C1096 1.349 . S
C1112 H1104 0.950 . S
C1112 C1110 1.327 . S
C1113 C1101 1.349 . S
C1113 H1107 0.950 . S
C1113 C1114 1.327 . S
C1114 H1108 0.950 . S
C1114 C1113 1.327 . S
C1114 C1118 1.429 . S
C1115 C1098 1.574 . S
C1115 H1109 0.949 . S
C1115 C1119 1.368 . S
C1116 C1097 1.429 . S
C1116 C1110 1.429 . S
C1116 C1117 1.523 . S
C1117 C1098 1.368 . S
C1117 C1111 1.368 . S
C1117 C1116 1.523 . S
C1118 C1102 1.429 . S
C1118 C1114 1.429 . S
C1118 C1119 1.523 . S
C1119 C1103 1.368 . S
C1119 C1115 1.368 . S
C1119 C1118 1.523 . S
H1120 C1095 0.950 . S
H1121 C1097 0.950 . S
H1122 C1098 0.949 . S
H1123 C1100 0.950 . S
H1124 C1102 0.950 . S
C1125 C1126 1.349 . S
C1125 C1127 1.327 . S
C1125 H1150 0.950 . S
C1126 C1125 1.349 . S
C1126 C1142 1.349 . S
C1127 C1125 1.327 . S
C1127 C1146 1.429 . S
C1127 H1151 0.950 . S
C1128 C1145 1.574 . S
C1128 C1147 1.368 . S
C1128 H1152 0.949 . S
H1129 C1133 0.949 . S
C1130 C1131 1.349 . S
C1130 C1132 1.327 . S
C1130 H1153 0.950 . S
C1131 C1130 1.349 . S
C1131 C1143 1.349 . S
C1132 C1130 1.327 . S
C1132 C1148 1.429 . S
C1132 H1154 0.950 . S
C1133 H1129 0.949 . S
C1133 C1141 1.574 . S
C1133 C1149 1.368 . S
H1134 C1142 0.950 . S
H1135 C1140 0.950 . S
H1136 C1141 0.949 . S
H1137 C1143 0.950 . S
H1138 C1144 0.950 . S
H1139 C1145 0.949 . S
C1140 H1135 0.950 . S
C1140 C1142 1.327 . S
C1140 C1146 1.429 . S
C1141 C1133 1.574 . S
C1141 H1136 0.949 . S
C1141 C1147 1.368 . S
C1142 C1126 1.349 . S
C1142 H1134 0.950 . S
C1142 C1140 1.327 . S
C1143 C1131 1.349 . S
C1143 H1137 0.950 . S
C1143 C1144 1.327 . S
C1144 H1138 0.950 . S
C1144 C1143 1.327 . S
C1144 C1148 1.429 . S
C1145 C1128 1.574 . S
C1145 H1139 0.949 . S
C1145 C1149 1.368 . S
C1146 C1127 1.429 . S
C1146 C1140 1.429 . S
C1146 C1147 1.523 . S
C1147 C1128 1.368 . S
C1147 C1141 1.368 . S
C1147 C1146 1.523 . S
C1148 C1132 1.429 . S
C1148 C1144 1.429 . S
C1148 C1149 1.523 . S
C1149 C1133 1.368 . S
C1149 C1145 1.368 . S
C1149 C1148 1.523 . S
H1150 C1125 0.950 . S
H1151 C1127 0.950 . S
H1152 C1128 0.949 . S
H1153 C1130 0.950 . S
H1154 C1132 0.950 . S
C1155 C1156 1.349 . S
C1155 C1157 1.327 . S
C1155 H1180 0.950 . S
C1156 C1155 1.349 . S
C1156 C1172 1.349 . S
C1157 C1155 1.327 . S
C1157 C1176 1.429 . S
C1157 H1181 0.950 . S
C1158 C1175 1.574 . S
C1158 C1177 1.368 . S
C1158 H1182 0.949 . S
H1159 C1163 0.949 . S
C1160 C1161 1.349 . S
C1160 C1162 1.327 . S
C1160 H1183 0.950 . S
C1161 C1160 1.349 . S
C1161 C1173 1.349 . S
C1162 C1160 1.327 . S
C1162 C1178 1.429 . S
C1162 H1184 0.950 . S
C1163 H1159 0.949 . S
C1163 C1171 1.574 . S
C1163 C1179 1.368 . S
H1164 C1172 0.950 . S
H1165 C1170 0.950 . S
H1166 C1171 0.949 . S
H1167 C1173 0.950 . S
H1168 C1174 0.950 . S
H1169 C1175 0.949 . S
C1170 H1165 0.950 . S
C1170 C1172 1.327 . S
C1170 C1176 1.429 . S
C1171 C1163 1.574 . S
C1171 H1166 0.949 . S
C1171 C1177 1.368 . S
C1172 C1156 1.349 . S
C1172 H1164 0.950 . S
C1172 C1170 1.327 . S
C1173 C1161 1.349 . S
C1173 H1167 0.950 . S
C1173 C1174 1.327 . S
C1174 H1168 0.950 . S
C1174 C1173 1.327 . S
C1174 C1178 1.429 . S
C1175 C1158 1.574 . S
C1175 H1169 0.949 . S
C1175 C1179 1.368 . S
C1176 C1157 1.429 . S
C1176 C1170 1.429 . S
C1176 C1177 1.523 . S
C1177 C1158 1.368 . S
C1177 C1171 1.368 . S
C1177 C1176 1.523 . S
C1178 C1162 1.429 . S
C1178 C1174 1.429 . S
C1178 C1179 1.523 . S
C1179 C1163 1.368 . S
C1179 C1175 1.368 . S
C1179 C1178 1.523 . S
H1180 C1155 0.950 . S
H1181 C1157 0.950 . S
H1182 C1158 0.949 . S
H1183 C1160 0.950 . S
H1184 C1162 0.950 . S
C466 C47 2.020 . S
C471 C383 2.126 . S
C496 C91 1.897 . S
C501 C430 1.977 . S
C531 C434 1.891 . S
C526 C177 1.962 . S
C561 C399 1.845 . S
C556 C215 1.809 . S
C586 C295 1.933 . S
C591 C414 1.992 . S
C621 C436 0.763 . S
C616 C345 0.763 . S
C651 C405 1.614 . S
C646 C153 1.562 . S
C676 C239 1.266 . S
C681 C445 1.231 . S
C711 C374 1.138 . S
C706 C283 1.167 . S
C736 C357 1.709 . S
C741 C403 1.756 . S
C766 C35 2.014 1_556 S
C771 C461 1.972 . S
C801 C372 1.510 . S
C796 C115 1.552 1_556 S
C831 C390 1.702 . S
C826 C221 1.759 . S
C861 C404 1.583 . S
C856 C301 1.594 . S
C891 C458 2.203 . S
C886 C339 2.157 . S
C921 C373 1.536 . S
C916 C53 1.567 1_556 S
C951 C421 1.652 . S
C946 C97 1.735 1_556 S
C976 C171 1.105 . S
C981 C444 1.143 . S
C1011 C413 1.215 . S
C1006 C363 1.234 . S
C1041 C452 1.644 . S
C1036 C29 1.540 . S
C1071 C382 1.461 . S
C1066 C109 1.451 . S
C1101 C427 1.457 . S
C1096 C159 1.509 . S
C1126 C233 2.263 . S
C1131 C435 2.298 . S
C1156 C277 1.782 . S
C1161 C396 1.868 . S
