# Generated by pormake.
# Topology csq, (4,8)-cn, num edge types: 1
# Building blocks:
#     Node 0, Type 0, BuildingBlock: GIZVER_clean_linker_0, # of connection points: 4
#     Node 1, Type 0, BuildingBlock: GIZVER_clean_linker_0, # of connection points: 4
#     Node 2, Type 0, BuildingBlock: GIZVER_clean_linker_0, # of connection points: 4
#     Node 3, Type 0, BuildingBlock: GIZVER_clean_linker_0, # of connection points: 4
#     Node 4, Type 0, BuildingBlock: GIZVER_clean_linker_0, # of connection points: 4
#     Node 5, Type 0, BuildingBlock: GIZVER_clean_linker_0, # of connection points: 4
#     Node 6, Type 1, BuildingBlock: TAGTUT_clean_sbu_3, # of connection points: 8
#     Node 7, Type 1, BuildingBlock: TAGTUT_clean_sbu_3, # of connection points: 8
#     Node 8, Type 1, BuildingBlock: TAGTUT_clean_sbu_3, # of connection points: 8
#     Edge 9, Type (0, 1), BuildingBlock: UVAHIK_clean_linker_0, # of connection points: 2
#     Edge 10, Type (0, 1), BuildingBlock: UVAHIK_clean_linker_0, # of connection points: 2
#     Edge 11, Type (0, 1), BuildingBlock: UVAHIK_clean_linker_0, # of connection points: 2
#     Edge 12, Type (0, 1), BuildingBlock: UVAHIK_clean_linker_0, # of connection points: 2
#     Edge 13, Type (0, 1), BuildingBlock: UVAHIK_clean_linker_0, # of connection points: 2
#     Edge 14, Type (0, 1), BuildingBlock: UVAHIK_clean_linker_0, # of connection points: 2
#     Edge 15, Type (0, 1), BuildingBlock: UVAHIK_clean_linker_0, # of connection points: 2
#     Edge 16, Type (0, 1), BuildingBlock: UVAHIK_clean_linker_0, # of connection points: 2
#     Edge 17, Type (0, 1), BuildingBlock: UVAHIK_clean_linker_0, # of connection points: 2
#     Edge 18, Type (0, 1), BuildingBlock: UVAHIK_clean_linker_0, # of connection points: 2
#     Edge 19, Type (0, 1), BuildingBlock: UVAHIK_clean_linker_0, # of connection points: 2
#     Edge 20, Type (0, 1), BuildingBlock: UVAHIK_clean_linker_0, # of connection points: 2
#     Edge 21, Type (0, 1), BuildingBlock: UVAHIK_clean_linker_0, # of connection points: 2
#     Edge 22, Type (0, 1), BuildingBlock: UVAHIK_clean_linker_0, # of connection points: 2
#     Edge 23, Type (0, 1), BuildingBlock: UVAHIK_clean_linker_0, # of connection points: 2
#     Edge 24, Type (0, 1), BuildingBlock: UVAHIK_clean_linker_0, # of connection points: 2
#     Edge 25, Type (0, 1), BuildingBlock: UVAHIK_clean_linker_0, # of connection points: 2
#     Edge 26, Type (0, 1), BuildingBlock: UVAHIK_clean_linker_0, # of connection points: 2
#     Edge 27, Type (0, 1), BuildingBlock: UVAHIK_clean_linker_0, # of connection points: 2
#     Edge 28, Type (0, 1), BuildingBlock: UVAHIK_clean_linker_0, # of connection points: 2
#     Edge 29, Type (0, 1), BuildingBlock: UVAHIK_clean_linker_0, # of connection points: 2
#     Edge 30, Type (0, 1), BuildingBlock: UVAHIK_clean_linker_0, # of connection points: 2
#     Edge 31, Type (0, 1), BuildingBlock: UVAHIK_clean_linker_0, # of connection points: 2
#     Edge 32, Type (0, 1), BuildingBlock: UVAHIK_clean_linker_0, # of connection points: 2
# Relax obj value: 0.037
# Max RMSD: 0.117
# Mean RMSD: 0.082
data_MOF--net-csq--node1-TAGTUT_clean_sbu_3--node2-GIZVER_clean_linker_0--edge1-UVAHIK_clean_linker_0
_symmetry_space_group_name_H-M    P1
_symmetry_Int_Tables_number       1
_symmetry_cell_setting            triclinic
loop_
_symmetry_equiv_pos_as_xyz
'x, y, z'
_cell_length_a     69.744718
_cell_length_b     68.827857
_cell_length_c     22.61466
_cell_angle_alpha  92.637462
_cell_angle_beta   92.376022
_cell_angle_gamma 119.93186
loop_
_atom_site_label
_atom_site_type_symbol
_atom_site_fract_x
_atom_site_fract_y
_atom_site_fract_z
_atom_type_partial_charge
H0 H 0.23031 0.50945 0.03476 0.0
H1 H 0.23834 0.53141 0.22037 0.0
H2 H 0.17363 0.48449 0.13818 0.0
H3 H 0.2642 0.54497 0.07912 0.0
H4 H 0.26866 0.55099 0.15792 0.0
H5 H 0.27627 0.52144 0.03112 0.0
H6 H 0.30586 0.4917 0.13662 0.0
H7 H 0.27574 0.52569 0.22201 0.0
C8 C 0.2233 0.50858 0.07712 0.0
C9 C 0.20042 0.49473 0.08129 0.0
C10 C 0.23711 0.5217 0.12736 0.0
C11 C 0.2278 0.52105 0.18184 0.0
C12 C 0.20488 0.50737 0.1863 0.0
C13 C 0.19148 0.49417 0.13594 0.0
C14 C 0.26157 0.53709 0.12214 0.0
C15 C 0.27366 0.5241 0.12597 0.0
C16 C 0.27979 0.51709 0.07411 0.0
C17 C 0.29117 0.50516 0.07803 0.0
C18 C 0.29605 0.49992 0.13359 0.0
C19 C 0.29087 0.50752 0.18565 0.0
C20 C 0.2795 0.51948 0.18178 0.0
H21 H 0.79015 0.26813 0.98048 0.0
H22 H 0.79996 0.25871 0.16381 0.0
H23 H 0.82443 0.3253 0.10758 0.0
H24 H 0.78544 0.23249 0.00793 0.0
H25 H 0.79283 0.22956 0.08226 0.0
H26 H 0.74941 0.23689 0.99492 0.0
H27 H 0.69606 0.18502 0.08159 0.0
H28 H 0.76313 0.20371 0.13439 0.0
C29 C 0.79609 0.27511 0.02581 0.0
C30 C 0.80702 0.29852 0.03881 0.0
C31 C 0.79339 0.26066 0.07077 0.0
C32 C 0.80158 0.26976 0.12935 0.0
C33 C 0.81246 0.2931 0.14308 0.0
C34 C 0.81491 0.30724 0.09767 0.0
C35 C 0.78356 0.23578 0.05536 0.0
C36 C 0.75921 0.2228 0.06592 0.0
C37 C 0.74376 0.22525 0.02942 0.0
C38 C 0.72094 0.21199 0.03592 0.0
C39 C 0.71371 0.19608 0.0783 0.0
C40 C 0.7287 0.19272 0.11296 0.0
C41 C 0.75152 0.2065 0.108 0.0
H42 H 0.57282 0.81996 0.98754 0.0
H43 H 0.57589 0.81756 0.17777 0.0
H44 H 0.54635 0.8525 0.09589 0.0
H45 H 0.59693 0.80789 0.0383 0.0
H46 H 0.59809 0.80698 0.1172 0.0
H47 H 0.5673 0.77674 0.97465 0.0
H48 H 0.52801 0.71417 0.05238 0.0
H49 H 0.56967 0.77424 0.16487 0.0
C50 C 0.5692 0.82411 0.03092 0.0
C51 C 0.55864 0.83687 0.03591 0.0
C52 C 0.57505 0.8167 0.08206 0.0
C53 C 0.57078 0.82266 0.1383 0.0
C54 C 0.56081 0.83596 0.14374 0.0
C55 C 0.55431 0.84244 0.09219 0.0
C56 C 0.58663 0.80321 0.07714 0.0
C57 C 0.56989 0.7784 0.07054 0.0
C58 C 0.56152 0.7674 0.01363 0.0
C59 C 0.54626 0.74426 0.00686 0.0
C60 C 0.53902 0.73225 0.0575 0.0
C61 C 0.54746 0.74281 0.11453 0.0
C62 C 0.56286 0.76598 0.12094 0.0
H63 H 0.7538 0.55435 0.96635 0.0
H64 H 0.77136 0.58302 0.14731 0.0
H65 H 0.70301 0.5388 0.08722 0.0
H66 H 0.79046 0.59094 3e-05 0.0
H67 H 0.79946 0.5959 0.07726 0.0
H68 H 0.79951 0.56787 0.93873 0.0
H69 H 0.82583 0.52992 0.01871 0.0
H70 H 0.8016 0.56425 0.12855 0.0
C71 C 0.74895 0.5558 0.01053 0.0
C72 C 0.72644 0.54444 0.02177 0.0
C73 C 0.76527 0.56959 0.05565 0.0
C74 C 0.75891 0.57204 0.11261 0.0
C75 C 0.73643 0.56053 0.12449 0.0
C76 C 0.72043 0.54668 0.07898 0.0
C77 C 0.78924 0.58248 0.04161 0.0
C78 C 0.7985 0.56691 0.03424 0.0
C79 C 0.80285 0.56113 0.97769 0.0
C80 C 0.81237 0.54738 0.97181 0.0
C81 C 0.81712 0.53924 0.02268 0.0
C82 C 0.81361 0.54543 0.07927 0.0
C83 C 0.80398 0.55903 0.08481 0.0
H84 H 0.25924 0.7914 0.96845 0.0
H85 H 0.27993 0.78723 0.14733 0.0
H86 H 0.30351 0.85166 0.07731 0.0
H87 H 0.25539 0.7558 0.00242 0.0
H88 H 0.26331 0.75425 0.07733 0.0
H89 H 0.21982 0.75333 0.97633 0.0
H90 H 0.16914 0.72043 0.09751 0.0
H91 H 0.23758 0.74689 0.1558 0.0
C92 C 0.26809 0.79957 0.01093 0.0
C93 C 0.28077 0.82314 0.01831 0.0
C94 C 0.2674 0.78652 0.05791 0.0
C95 C 0.27986 0.79724 0.11175 0.0
C96 C 0.29289 0.82074 0.11906 0.0
C97 C 0.2928 0.83354 0.07271 0.0
C98 C 0.25504 0.76123 0.0493 0.0
C99 C 0.23129 0.75151 0.0646 0.0
C100 C 0.21496 0.74807 0.02034 0.0
C101 C 0.19241 0.73675 0.03149 0.0
C102 C 0.18651 0.7301 0.08893 0.0
C103 C 0.20262 0.73378 0.13417 0.0
C104 C 0.22506 0.74452 0.1217 0.0
H105 H 0.52098 0.2945 0.08188 0.0
H106 H 0.49528 0.28155 0.25434 0.0
H107 H 0.47037 0.30954 0.1263 0.0
H108 H 0.54131 0.28861 0.16506 0.0
H109 H 0.53114 0.28466 0.23742 0.0
H110 H 0.51986 0.25696 0.08329 0.0
H111 H 0.4936 0.19076 0.1438 0.0
H112 H 0.51181 0.24704 0.26944 0.0
C113 C 0.50945 0.29424 0.11296 0.0
C114 C 0.49475 0.30178 0.09652 0.0
C115 C 0.50949 0.28667 0.16983 0.0
C116 C 0.49493 0.28703 0.21032 0.0
C117 C 0.48086 0.29546 0.19549 0.0
C118 C 0.48053 0.30224 0.13791 0.0
C119 C 0.52604 0.27974 0.18932 0.0
C120 C 0.51637 0.25473 0.17742 0.0
C121 C 0.51447 0.24584 0.119 0.0
C122 C 0.50613 0.22279 0.10654 0.0
C123 C 0.4993 0.2085 0.15298 0.0
C124 C 0.50138 0.21704 0.21184 0.0
C125 C 0.50994 0.24026 0.224 0.0
C126 C 0.03715 0.49855 0.5379 0.0
C127 C 0.02101 0.47045 0.74766 0.0
C128 C 0.95651 0.46537 0.70884 0.0
Mg129 Mg 0.01742 0.52407 0.45941 0.0
Mg130 Mg 0.00617 0.55958 0.52988 0.0
O131 O 0.99959 0.52963 0.51853 0.0
Mg132 Mg 0.00491 0.51595 0.58836 0.0
O133 O 0.01063 0.50071 0.65432 0.0
Mg134 Mg 0.99532 0.46896 0.6171 0.0
Mg135 Mg 0.00417 0.50454 0.73221 0.0
C136 C 0.97507 0.53762 0.63543 0.0
O137 O 0.02872 0.54968 0.64056 0.0
O138 O 0.99955 0.53525 0.39054 0.0
O139 O 0.02041 0.54129 0.73523 0.0
O140 O 0.04734 0.5604 0.47225 0.0
O141 O 0.99294 0.55968 0.44325 0.0
O142 O 0.04134 0.58279 0.53328 0.0
O143 O 0.981 0.48123 0.54325 0.0
O144 O 0.98838 0.48759 0.4489 0.0
C145 C 0.97758 0.4743 0.48832 0.0
C146 C 0.99169 0.54864 0.39464 0.0
O147 O 0.97778 0.52039 0.63305 0.0
O148 O 0.01237 0.46139 0.6953 0.0
O149 O 0.98595 0.55462 0.60477 0.0
O150 O 0.96404 0.45796 0.66847 0.0
O151 O 0.02 0.4873 0.77075 0.0
O152 O 0.96875 0.48449 0.73725 0.0
O153 O 0.03178 0.51381 0.53859 0.0
O154 O 0.02648 0.48087 0.56583 0.0
C155 C 0.05408 0.57939 0.50092 0.0
C156 C 0.02992 0.55549 0.69609 0.0
C157 C 0.50108 0.03922 0.50388 0.0
C158 C 0.57205 0.03277 0.46464 0.0
C159 C 0.5359 0.97009 0.54922 0.0
Mg160 Mg 0.46809 0.01906 0.61132 0.0
Mg161 Mg 0.48687 0.01137 0.73938 0.0
O162 O 0.4819 0.00419 0.65704 0.0
Mg163 Mg 0.50834 0.0129 0.61068 0.0
O164 O 0.53369 0.02153 0.56071 0.0
Mg165 Mg 0.51722 1.00217 0.48666 0.0
Mg166 Mg 0.55802 0.01958 0.59233 0.0
C167 C 0.51431 0.98623 0.7224 0.0
O168 O 0.53274 0.04188 0.67724 0.0
O169 O 0.43808 1.00055 0.67053 0.0
O170 O 0.56443 0.04064 0.67434 0.0
O171 O 0.48378 0.05088 0.67573 0.0
O172 O 0.4524 0.99589 0.75628 0.0
O173 O 0.50188 0.04716 0.754 0.0
O174 O 0.48577 0.98508 0.54024 0.0
O175 O 0.45528 0.98793 0.54702 0.0
C176 C 0.46551 0.97863 0.52405 0.0
C177 C 0.43586 0.99328 0.72275 0.0
O178 O 0.5157 0.98968 0.66687 0.0
O179 O 0.55156 0.02184 0.44392 0.0
O180 O 0.50574 0.99451 0.75764 0.0
O181 O 0.52497 0.97454 0.51073 0.0
O182 O 0.57787 0.03402 0.51981 0.0
O183 O 0.54924 0.98478 0.5896 0.0
O184 O 0.49954 0.03529 0.55887 0.0
O185 O 0.50836 0.02964 0.46854 0.0
C186 C 0.49653 0.05906 0.72334 0.0
C187 C 0.55289 0.04873 0.69609 0.0
C188 C 0.51564 0.55418 0.68805 0.0
C189 C 0.4528 0.48175 0.77456 0.0
C190 C 0.48657 0.44912 0.69798 0.0
Mg191 Mg 0.5436 0.55812 0.57211 0.0
Mg192 Mg 0.51925 0.52118 0.4559 0.0
O193 O 0.52708 0.52602 0.53766 0.0
Mg194 Mg 0.50446 0.5118 0.59677 0.0
O195 O 0.48335 0.49889 0.65985 0.0
Mg196 Mg 0.50463 0.50481 0.7297 0.0
Mg197 Mg 0.45978 0.46908 0.64622 0.0
C198 C 0.49138 0.47097 0.49605 0.0
O199 O 0.47484 0.50784 0.53785 0.0
O200 O 0.57039 0.56355 0.50529 0.0
O201 O 0.4471 0.47423 0.56185 0.0
O202 O 0.52641 0.56978 0.50477 0.0
O203 O 0.55309 0.53558 0.43262 0.0
O204 O 0.50733 0.5435 0.43092 0.0
O205 O 0.53145 0.51374 0.66169 0.0
O206 O 0.56001 0.5461 0.63898 0.0
C207 C 0.55201 0.52874 0.66889 0.0
C208 C 0.57068 0.5526 0.45787 0.0
O209 O 0.49517 0.47746 0.55163 0.0
O210 O 0.4739 0.49472 0.78545 0.0
O211 O 0.49718 0.48464 0.45462 0.0
O212 O 0.49816 0.46837 0.72648 0.0
O213 O 0.4441 0.47024 0.72481 0.0
O214 O 0.4714 0.44552 0.65817 0.0
O215 O 0.51469 0.54721 0.63412 0.0
O216 O 0.51132 0.54106 0.73006 0.0
C217 C 0.51376 0.56287 0.45686 0.0
C218 C 0.45473 0.49133 0.5303 0.0
C219 C 0.17614 0.48822 0.25846 0.0
C220 C 0.19407 0.50807 0.24097 0.0
C221 C 0.16258 0.48908 0.30086 0.0
C222 C 0.14579 0.52841 0.3647 0.0
H223 H 0.11045 0.47752 0.45517 0.0
C224 C 0.06427 0.5142 0.45942 0.0
C225 C 0.05732 0.50215 0.51008 0.0
C226 C 0.08317 0.51683 0.43305 0.0
C227 C 0.12036 0.49218 0.43134 0.0
H228 H 0.21301 0.54431 0.25815 0.0
H229 H 0.19002 0.54578 0.33478 0.0
H230 H 0.14111 0.47921 0.4053 0.0
H231 H 0.06534 0.48468 0.57522 0.0
H232 H 0.09876 0.49032 0.53188 0.0
H233 H 0.1256 0.54186 0.39309 0.0
C234 C 0.18588 0.52955 0.3139 0.0
C235 C 0.13783 0.49293 0.40164 0.0
C236 C 0.19932 0.5287 0.27069 0.0
C237 C 0.07004 0.4936 0.53528 0.0
C238 C 0.08919 0.49674 0.51007 0.0
C239 C 0.12859 0.52791 0.3956 0.0
C240 C 0.16684 0.50981 0.32792 0.0
C241 C 0.15041 0.51073 0.36652 0.0
C242 C 0.09583 0.50796 0.45781 0.0
C243 C 0.11529 0.50953 0.42833 0.0
H244 H 0.17185 0.47202 0.23697 0.0
H245 H 0.14805 0.47347 0.30971 0.0
H246 H 0.1549 0.54233 0.33773 0.0
H247 H 0.05476 0.52102 0.43926 0.0
H248 H 0.08747 0.52532 0.39247 0.0
C249 C 0.7051 0.15167 0.11997 0.0
C250 C 0.71957 0.17299 0.14867 0.0
C251 C 0.69177 0.13364 0.15261 0.0
C252 C 0.68116 0.11177 0.29971 0.0
H253 H 0.6193 0.08764 0.24638 0.0
C254 C 0.61086 0.06239 0.44993 0.0
C255 C 0.58987 0.0456 0.425 0.0
C256 C 0.62768 0.07544 0.41396 0.0
C257 C 0.63643 0.09371 0.26131 0.0
H258 H 0.73287 0.1919 0.23378 0.0
H259 H 0.70961 0.16 0.29167 0.0
H260 H 0.6482 0.11462 0.18894 0.0
H261 H 0.57035 0.02894 0.34238 0.0
H262 H 0.60008 0.0513 0.27907 0.0
H263 H 0.66948 0.09073 0.37182 0.0
C264 C 0.7086 0.15736 0.24379 0.0
C265 C 0.65302 0.1093 0.22846 0.0
C266 C 0.72192 0.17555 0.21088 0.0
C267 C 0.58628 0.04184 0.36294 0.0
C268 C 0.60332 0.05475 0.32673 0.0
C269 C 0.66455 0.09586 0.33216 0.0
C270 C 0.69274 0.13653 0.21466 0.0
C271 C 0.67552 0.11873 0.24778 0.0
C272 C 0.62419 0.07191 0.35184 0.0
C273 C 0.64193 0.08695 0.31403 0.0
H274 H 0.70311 0.14933 0.07192 0.0
H275 H 0.67993 0.11768 0.12916 0.0
H276 H 0.69839 0.11866 0.31523 0.0
H277 H 0.61422 0.06597 0.49757 0.0
H278 H 0.64324 0.08877 0.43516 0.0
C279 C 0.51987 0.71293 0.17423 0.0
C280 C 0.54207 0.72861 0.16551 0.0
C281 C 0.51481 0.69616 0.21346 0.0
C282 C 0.53705 0.66197 0.26381 0.0
H283 H 0.49351 0.64266 0.38162 0.0
C284 C 0.5057 0.57721 0.36473 0.0
C285 C 0.50949 0.57919 0.42683 0.0
C286 C 0.50676 0.59507 0.33501 0.0
C287 C 0.50564 0.64787 0.34867 0.0
H288 H 0.57632 0.73967 0.19268 0.0
H289 H 0.56749 0.71012 0.26077 0.0
H290 H 0.50246 0.67652 0.32981 0.0
H291 H 0.51544 0.60071 0.50673 0.0
H292 H 0.51666 0.63163 0.4547 0.0
H293 H 0.54001 0.63325 0.28154 0.0
C294 C 0.55404 0.71095 0.23757 0.0
C295 C 0.51075 0.66718 0.31916 0.0
C296 C 0.55909 0.72796 0.19912 0.0
C297 C 0.51254 0.59869 0.45882 0.0
C298 C 0.51321 0.61639 0.42911 0.0
C299 C 0.53163 0.64249 0.29232 0.0
C300 C 0.53187 0.69451 0.2438 0.0
C301 C 0.52665 0.67449 0.27676 0.0
C302 C 0.51118 0.61509 0.36683 0.0
C303 C 0.51592 0.63525 0.33511 0.0
H304 H 0.50647 0.71303 0.14852 0.0
H305 H 0.4976 0.68365 0.21725 0.0
H306 H 0.54915 0.66706 0.2308 0.0
H307 H 0.50337 0.56248 0.33873 0.0
H308 H 0.50492 0.59358 0.28694 0.0
C309 C 0.8401 0.55975 0.16878 0.0
C310 C 0.82438 0.54135 0.13111 0.0
C311 C 0.85607 0.55798 0.2036 0.0
C312 C 0.88594 0.5273 0.19185 0.0
H313 H 0.91571 0.56088 0.34145 0.0
C314 C 0.96168 0.52837 0.31389 0.0
C315 C 0.9771 0.54867 0.3458 0.0
C316 C 0.94283 0.52648 0.2837 0.0
C317 C 0.90769 0.55162 0.29926 0.0
H318 H 0.8111 0.50596 0.10598 0.0
H319 H 0.83882 0.50273 0.16771 0.0
H320 H 0.88038 0.55728 0.30757 0.0
H321 H 0.98652 0.58355 0.36525 0.0
H322 H 0.95409 0.58047 0.31107 0.0
H323 H 0.91345 0.52188 0.18335 0.0
C324 C 0.8392 0.51867 0.16907 0.0
C325 C 0.88739 0.54943 0.28016 0.0
C326 C 0.82322 0.52045 0.13428 0.0
C327 C 0.97475 0.56766 0.34138 0.0
C328 C 0.95606 0.56582 0.31105 0.0
C329 C 0.90626 0.52946 0.21106 0.0
C330 C 0.85651 0.53775 0.2014 0.0
C331 C 0.87645 0.53755 0.22582 0.0
C332 C 0.93932 0.54492 0.28487 0.0
C333 C 0.91753 0.54201 0.26441 0.0
H334 H 0.84151 0.57611 0.16686 0.0
H335 H 0.86919 0.57301 0.228 0.0
H336 H 0.87812 0.51836 0.14921 0.0
H337 H 0.96302 0.51343 0.31704 0.0
H338 H 0.93024 0.51019 0.26357 0.0
C339 C 0.32321 0.82451 0.19012 0.0
C340 C 0.3087 0.83205 0.17174 0.0
C341 C 0.34045 0.83713 0.23373 0.0
C342 C 0.35992 0.88231 0.35369 0.0
H343 H 0.41886 0.89518 0.31746 0.0
C344 C 0.43406 0.93987 0.51374 0.0
C345 C 0.45191 0.95737 0.48816 0.0
C346 C 0.41795 0.92124 0.47851 0.0
C347 C 0.4025 0.89169 0.32815 0.0
H348 H 0.3001 0.858 0.18626 0.0
H349 H 0.3301 0.88001 0.26263 0.0
H350 H 0.38667 0.86876 0.25112 0.0
H351 H 0.46791 0.96894 0.40692 0.0
H352 H 0.43929 0.93631 0.34416 0.0
H353 H 0.37559 0.90576 0.42921 0.0
C354 C 0.3282 0.86437 0.24346 0.0
C355 C 0.38406 0.87642 0.29058 0.0
C356 C 0.31109 0.85186 0.19961 0.0
C357 C 0.45429 0.95543 0.42733 0.0
C358 C 0.43794 0.93679 0.39167 0.0
C359 C 0.37826 0.89746 0.39122 0.0
C360 C 0.34334 0.85739 0.26005 0.0
C361 C 0.36263 0.87186 0.30257 0.0
C362 C 0.41917 0.91995 0.41675 0.0
C363 C 0.39978 0.90251 0.37861 0.0
H364 H 0.32189 0.80942 0.16885 0.0
H365 H 0.35175 0.83126 0.24611 0.0
H366 H 0.3436 0.87901 0.36427 0.0
H367 H 0.43205 0.94111 0.5608 0.0
H368 H 0.40399 0.90831 0.49932 0.0
C369 C 0.48018 0.31018 0.29835 0.0
C370 C 0.46924 0.30069 0.24195 0.0
C371 C 0.47231 0.32064 0.3367 0.0
C372 C 0.44913 0.35559 0.31693 0.0
H373 H 0.4542 0.3629 0.48883 0.0
C374 C 0.46386 0.43787 0.43022 0.0
C375 C 0.47976 0.44673 0.47863 0.0
C376 C 0.45414 0.41525 0.41014 0.0
C377 C 0.45282 0.36118 0.44079 0.0
H378 H 0.43979 0.29205 0.18522 0.0
H379 H 0.42656 0.31114 0.25154 0.0
H380 H 0.4515 0.3293 0.43868 0.0
H381 H 0.49718 0.43893 0.54636 0.0
H382 H 0.48161 0.39988 0.50892 0.0
H383 H 0.45265 0.38806 0.31773 0.0
C384 C 0.44126 0.31051 0.2657 0.0
C385 C 0.45101 0.34179 0.41221 0.0
C386 C 0.44895 0.29976 0.22761 0.0
C387 C 0.48504 0.43243 0.50857 0.0
C388 C 0.47586 0.40994 0.48736 0.0
C389 C 0.4514 0.3751 0.34528 0.0
C390 C 0.45352 0.32202 0.31919 0.0
C391 C 0.44985 0.33919 0.35 0.0
C392 C 0.46073 0.40118 0.43671 0.0
C393 C 0.45407 0.37857 0.40764 0.0
H394 H 0.4959 0.3114 0.31099 0.0
H395 H 0.4822 0.32953 0.37746 0.0
H396 H 0.44865 0.35424 0.2689 0.0
H397 H 0.45913 0.44852 0.40744 0.0
H398 H 0.44197 0.40903 0.37252 0.0
C399 C 0.53149 0.84192 0.97306 0.0
C400 C 0.55319 0.84603 0.98396 0.0
C401 C 0.52708 0.85465 0.93428 0.0
C402 C 0.52683 0.89608 0.89937 0.0
H403 H 0.55611 0.92085 0.75692 0.0
C404 C 0.52619 0.97191 0.80803 0.0
C405 C 0.52169 0.97115 0.74658 0.0
C406 C 0.53104 0.95636 0.83188 0.0
C407 C 0.5477 0.91395 0.79644 0.0
H408 H 0.58709 0.86562 0.96047 0.0
H409 H 0.57951 0.88824 0.89304 0.0
H410 H 0.56123 0.89205 0.80306 0.0
H411 H 0.51904 0.95356 0.66197 0.0
H412 H 0.52763 0.9264 0.70359 0.0
H413 H 0.51316 0.91766 0.89297 0.0
C414 C 0.5658 0.87496 0.9137 0.0
C415 C 0.55075 0.89758 0.82309 0.0
C416 C 0.57017 0.86201 0.9522 0.0
C417 C 0.52284 0.95488 0.70933 0.0
C418 C 0.52768 0.93925 0.73325 0.0
C419 C 0.52383 0.91238 0.87295 0.0
C420 C 0.54435 0.87205 0.90623 0.0
C421 C 0.54038 0.88849 0.87505 0.0
C422 C 0.53137 0.93952 0.79498 0.0
C423 C 0.53438 0.92172 0.82154 0.0
H424 H 0.51813 0.82964 -0.00298 0.0
H425 H 0.51026 0.85154 0.9284 0.0
H426 H 0.51887 0.88982 0.93989 0.0
H427 H 0.52564 0.98434 0.83796 0.0
H428 H 0.53427 0.95736 0.87951 0.0
C429 C 0.7101 0.54333 0.92047 0.0
C430 C 0.7088 0.53274 0.97294 0.0
C431 C 0.69152 0.53525 0.88042 0.0
C432 C 0.63152 0.50685 0.88539 0.0
H433 H 0.63395 0.51621 0.71753 0.0
C434 C 0.59055 0.53947 0.70459 0.0
C435 C 0.56759 0.52475 0.70558 0.0
C436 C 0.60564 0.53477 0.73327 0.0
C437 C 0.63298 0.51335 0.7643 0.0
H438 H 0.68782 0.50407 0.02165 0.0
H439 H 0.65529 0.48988 0.95138 0.0
H440 H 0.66501 0.51627 0.77155 0.0
H441 H 0.54254 0.49393 0.73947 0.0
H442 H 0.56919 0.48596 0.79119 0.0
H443 H 0.5998 0.50479 0.87833 0.0
C444 C 0.67054 0.50469 0.94188 0.0
C445 C 0.65074 0.5134 0.79519 0.0
C446 C 0.68915 0.51277 0.98197 0.0
C447 C 0.5601 0.50556 0.73781 0.0
C448 C 0.5753 0.50097 0.76722 0.0
C449 C 0.61368 0.50667 0.85433 0.0
C450 C 0.67127 0.5164 0.89196 0.0
C451 C 0.65062 0.51111 0.8566 0.0
C452 C 0.59821 0.51535 0.76414 0.0
C453 C 0.6147 0.51088 0.79412 0.0
H454 H 0.72491 0.55886 0.91252 0.0
H455 H 0.69263 0.54484 0.84276 0.0
H456 H 0.63096 0.50524 0.93278 0.0
H457 H 0.59699 0.55445 0.68044 0.0
H458 H 0.62322 0.54643 0.73141 0.0
C459 C 0.15416 0.72674 0.99102 0.0
C460 C 0.17485 0.72867 0.9819 0.0
C461 C 0.13606 0.71422 0.94967 0.0
C462 C 0.11783 0.68379 0.80026 0.0
H463 H 0.0737 0.63549 0.88448 0.0
C464 C 0.06272 0.59394 0.69203 0.0
C465 C 0.04273 0.57951 0.7164 0.0
C466 C 0.07607 0.61606 0.71654 0.0
C467 C 0.08535 0.64901 0.85969 0.0
H468 H 0.19314 0.72065 0.91917 0.0
H469 H 0.1618 0.69936 0.84693 0.0
H470 H 0.10224 0.66923 0.93972 0.0
H471 H 0.01979 0.57726 0.78102 0.0
H472 H 0.04231 0.61608 0.82162 0.0
H473 H 0.1011 0.66334 0.72008 0.0
C474 C 0.15955 0.70747 0.88609 0.0
C475 C 0.10182 0.66843 0.89168 0.0
C476 C 0.17757 0.71975 0.92768 0.0
C477 C 0.03545 0.58796 0.7625 0.0
C478 C 0.04845 0.61019 0.78589 0.0
C479 C 0.10106 0.66444 0.76797 0.0
C480 C 0.13841 0.70367 0.89805 0.0
C481 C 0.11864 0.68569 0.86253 0.0
C482 C 0.06938 0.6243 0.76497 0.0
C483 C 0.08502 0.64645 0.79746 0.0
H484 H 0.15162 0.73384 0.03166 0.0
H485 H 0.11996 0.71173 0.95956 0.0
H486 H 0.13059 0.69694 0.77674 0.0
H487 H 0.0686 0.58779 0.65617 0.0
H488 H 0.09211 0.62622 0.69937 0.0
C489 C 0.52584 0.22404 0.01565 0.0
C490 C 0.50647 0.2137 0.04631 0.0
C491 C 0.52761 0.21336 0.96387 0.0
C492 C 0.49569 0.1652 0.85131 0.0
H493 H 0.54793 0.15889 0.86442 0.0
C494 C 0.5159 0.09143 0.80041 0.0
C495 C 0.50434 0.08264 0.74452 0.0
C496 C 0.52068 0.11265 0.8235 0.0
C497 C 0.53335 0.16063 0.8598 0.0
H498 H 0.4732 0.18509 0.04467 0.0
H499 H 0.4763 0.1663 0.95478 0.0
H500 H 0.54597 0.18705 0.92916 0.0
H501 H 0.49052 0.09008 0.66675 0.0
H502 H 0.49895 0.12712 0.70709 0.0
H503 H 0.48236 0.13771 0.78512 0.0
C504 C 0.4901 0.18268 0.9703 0.0
C505 C 0.53232 0.17693 0.89639 0.0
C506 C 0.48837 0.1933 0.02211 0.0
C507 C 0.49907 0.09617 0.71045 0.0
C508 C 0.50389 0.1174 0.73353 0.0
C509 C 0.49671 0.14889 0.8148 0.0
C510 C 0.51 0.19222 0.94176 0.0
C511 C 0.51309 0.17873 0.89417 0.0
C512 C 0.51405 0.12554 0.79109 0.0
C513 C 0.51518 0.14584 0.82037 0.0
H514 H 0.54009 0.23974 0.03355 0.0
H515 H 0.54306 0.22118 0.94248 0.0
H516 H 0.4808 0.16642 0.84811 0.0
H517 H 0.52042 0.08154 0.82753 0.0
H518 H 0.5284 0.11834 0.86818 0.0
C519 C 0.32006 0.51989 0.00594 0.0
C520 C 0.30177 0.50139 0.02713 0.0
C521 C 0.33502 0.51682 0.9732 0.0
C522 C 0.35389 0.47533 0.95548 0.0
H523 H 0.39213 0.51645 0.84509 0.0
C524 C 0.41627 0.46329 0.81873 0.0
C525 C 0.43744 0.48225 0.81666 0.0
C526 C 0.39977 0.46499 0.8475 0.0
C527 C 0.38166 0.50499 0.87632 0.0
H528 H 0.28354 0.46514 0.02693 0.0
H529 H 0.3088 0.45951 0.96634 0.0
H530 H 0.36099 0.51972 0.87866 0.0
H531 H 0.4583 0.51761 0.84504 0.0
H532 H 0.42924 0.52065 0.89477 0.0
H533 H 0.37433 0.46024 0.95138 0.0
C534 C 0.31222 0.4765 0.97685 0.0
C535 C 0.36379 0.50682 0.89556 0.0
C536 C 0.29749 0.47963 0.01053 0.0
C537 C 0.4422 0.50267 0.84662 0.0
C538 C 0.42554 0.50448 0.87438 0.0
C539 C 0.37152 0.47328 0.93541 0.0
C540 C 0.3318 0.49512 0.96045 0.0
C541 C 0.34975 0.49212 0.93582 0.0
C542 C 0.40405 0.48578 0.87366 0.0
C543 C 0.38568 0.48822 0.89614 0.0
H544 H 0.32389 0.53685 0.0193 0.0
H545 H 0.34992 0.53161 0.96191 0.0
H546 H 0.34387 0.46404 0.98759 0.0
H547 H 0.41216 0.44738 0.79574 0.0
H548 H 0.38332 0.45034 0.84631 0.0
C549 C 0.82091 0.31053 0.93854 0.0
C550 C 0.81267 0.31426 0.99097 0.0
C551 C 0.83021 0.3273 0.89882 0.0
C552 C 0.86115 0.38816 0.90394 0.0
H553 H 0.85792 0.37899 0.73263 0.0
C554 C 0.92456 0.45765 0.77041 0.0
C555 C 0.9339 0.45024 0.72726 0.0
C556 C 0.90492 0.44232 0.79458 0.0
C557 C 0.8591 0.38185 0.78045 0.0
H558 H 0.80589 0.33776 0.03989 0.0
H559 H 0.82247 0.36716 0.97101 0.0
H560 H 0.83178 0.34875 0.78961 0.0
H561 H 0.92898 0.42111 0.67256 0.0
H562 H 0.89548 0.39451 0.71574 0.0
H563 H 0.8892 0.42056 0.89587 0.0
C564 C 0.82196 0.35135 0.96109 0.0
C565 C 0.84405 0.36453 0.81299 0.0
C566 C 0.8125 0.33453 0.00053 0.0
C567 C 0.92237 0.42745 0.70601 0.0
C568 C 0.90294 0.41212 0.73058 0.0
C569 C 0.87635 0.40534 0.8716 0.0
C570 C 0.83157 0.3482 0.91086 0.0
C571 C 0.84523 0.36736 0.87519 0.0
C572 C 0.89431 0.4192 0.77657 0.0
C573 C 0.87591 0.40224 0.8095 0.0
H574 H 0.82151 0.29524 0.93 0.0
H575 H 0.83764 0.32444 0.86072 0.0
H576 H 0.86269 0.39076 0.95191 0.0
H577 H 0.93282 0.47516 0.78711 0.0
H578 H 0.89848 0.44851 0.82881 0.0
C579 C 0.81902 0.5235 0.89831 0.0
C580 C 0.82136 0.54449 0.91584 0.0
C581 C 0.83331 0.52197 0.85927 0.0
C582 C 0.89062 0.55763 0.8223 0.0
H583 H 0.8783 0.50753 0.71097 0.0
C584 C 0.95747 0.55786 0.68203 0.0
C585 C 0.9579 0.53778 0.67174 0.0
C586 C 0.94021 0.55802 0.7105 0.0
C587 C 0.88201 0.52149 0.74252 0.0
H588 H 0.83887 0.57995 0.90129 0.0
H589 H 0.86338 0.57722 0.83157 0.0
H590 H 0.84759 0.50927 0.7544 0.0
H591 H 0.94072 0.50215 0.68512 0.0
H592 H 0.91052 0.50251 0.7359 0.0
H593 H 0.92494 0.56975 0.81123 0.0
C594 C 0.85089 0.56201 0.8493 0.0
C595 C 0.86441 0.52257 0.76708 0.0
C596 C 0.8366 0.56354 0.88845 0.0
C597 C 0.94093 0.51792 0.69244 0.0
C598 C 0.92351 0.51808 0.72094 0.0
C599 C 0.90814 0.55655 0.79788 0.0
C600 C 0.85019 0.54142 0.83685 0.0
C601 C 0.86852 0.54071 0.80715 0.0
C602 C 0.92286 0.53813 0.72966 0.0
C603 C 0.90408 0.53852 0.75755 0.0
H604 H 0.80734 0.50854 0.9187 0.0
H605 H 0.83224 0.50584 0.85061 0.0
H606 H 0.89447 0.57151 0.85431 0.0
H607 H 0.97029 0.57351 0.66696 0.0
H608 H 0.94015 0.57371 0.71591 0.0
C609 C 0.29527 0.83499 0.91956 0.0
C610 C 0.28444 0.8373 0.96796 0.0
C611 C 0.30468 0.85207 0.88069 0.0
C612 C 0.32304 0.88996 0.79878 0.0
H613 H 0.35295 0.94816 0.88788 0.0
C614 C 0.39446 0.96825 0.70416 0.0
C615 C 0.41342 0.9797 0.74404 0.0
C616 C 0.37399 0.95257 0.72421 0.0
C617 C 0.34467 0.93207 0.86215 0.0
H618 H 0.27297 0.858 0.01067 0.0
H619 H 0.28833 0.88731 0.94117 0.0
H620 H 0.32464 0.91586 0.93271 0.0
H621 H 0.42541 0.98472 0.83667 0.0
H622 H 0.39014 0.95762 0.87125 0.0
H623 H 0.34453 0.9061 0.73001 0.0
C624 C 0.29037 0.8728 0.9342 0.0
C625 C 0.32811 0.91348 0.88758 0.0
C626 C 0.28131 0.85591 0.97363 0.0
C627 C 0.41119 0.97613 0.80465 0.0
C628 C 0.39083 0.96066 0.82462 0.0
C629 C 0.33979 0.90858 0.77349 0.0
C630 C 0.30322 0.8717 0.88913 0.0
C631 C 0.31758 0.89198 0.85713 0.0
C632 C 0.37207 0.94826 0.78457 0.0
C633 C 0.35139 0.92968 0.80585 0.0
H634 H 0.29812 0.82092 0.91476 0.0
H635 H 0.31455 0.85057 0.84702 0.0
H636 H 0.31501 0.8738 0.77344 0.0
H637 H 0.39564 0.97058 0.65713 0.0
H638 H 0.35981 0.94345 0.69229 0.0
C639 C 0.47563 0.30365 0.00265 0.0
C640 C 0.49532 0.31132 0.03862 0.0
C641 C 0.47521 0.31502 0.95333 0.0
C642 C 0.51134 0.36132 0.85855 0.0
H643 H 0.45872 0.36666 0.83825 0.0
C644 C 0.50865 0.43484 0.75173 0.0
C645 C 0.48942 0.43029 0.71709 0.0
C646 C 0.5099 0.41767 0.77919 0.0
C647 C 0.47339 0.36505 0.84249 0.0
H648 H 0.53016 0.33644 0.05035 0.0
H649 H 0.52943 0.35681 0.96552 0.0
H650 H 0.45988 0.34167 0.90876 0.0
H651 H 0.45695 0.4038 0.68133 0.0
H652 H 0.45905 0.3738 0.72992 0.0
H653 H 0.52516 0.38582 0.79418 0.0
C654 C 0.51435 0.34166 0.97405 0.0
C655 C 0.47407 0.35062 0.88299 0.0
C656 C 0.51482 0.33003 0.02286 0.0
C657 C 0.47199 0.4079 0.70769 0.0
C658 C 0.47313 0.39074 0.73588 0.0
C659 C 0.51073 0.37601 0.8185 0.0
C660 C 0.49438 0.33468 0.93943 0.0
C661 C 0.49315 0.3487 0.89227 0.0
C662 C 0.49186 0.39555 0.77325 0.0
C663 C 0.49183 0.37823 0.81054 0.0
H664 H 0.46037 0.2892 0.0138 0.0
H665 H 0.45965 0.30867 0.92704 0.0
H666 H 0.52618 0.36007 0.86345 0.0
H667 H 0.52244 0.45187 0.7597 0.0
H668 H 0.52452 0.42198 0.80785 0.0
C669 C 0.16722 0.4609 0.03102 0.0
C670 C 0.18491 0.48295 0.02828 0.0
C671 C 0.14879 0.45214 0.99013 0.0
C672 C 0.10704 0.45127 0.94471 0.0
H673 H 0.10548 0.4645 0.78042 0.0
C674 C 0.04299 0.47075 0.83856 0.0
C675 C 0.03501 0.46305 0.77915 0.0
C676 C 0.05903 0.4668 0.86523 0.0
C677 C 0.10554 0.46032 0.82599 0.0
H678 H 0.19831 0.5122 0.97718 0.0
H679 H 0.16617 0.49692 0.90555 0.0
H680 H 0.13955 0.4685 0.82784 0.0
H681 H 0.03684 0.44412 0.70213 0.0
H682 H 0.06499 0.43745 0.74879 0.0
H683 H 0.07339 0.44403 0.94368 0.0
C684 C 0.16649 0.48634 0.93914 0.0
C685 C 0.12508 0.46276 0.85319 0.0
C686 C 0.18496 0.49511 0.9801 0.0
C687 C 0.0426 0.4503 0.74801 0.0
C688 C 0.05883 0.44658 0.7745 0.0
C689 C 0.08761 0.44901 0.91769 0.0
C690 C 0.14773 0.46527 0.94576 0.0
C691 C 0.12621 0.45882 0.9133 0.0
C692 C 0.06757 0.45525 0.8329 0.0
C693 C 0.08685 0.45411 0.85859 0.0
H694 H 0.16693 0.4511 0.06748 0.0
H695 H 0.13477 0.43566 0.99559 0.0
H696 H 0.10741 0.44836 0.9913 0.0
H697 H 0.03747 0.48057 0.86384 0.0
H698 H 0.06558 0.47383 0.91021 0.0
C699 C 0.70361 0.20442 0.93305 0.0
C700 C 0.70391 0.21108 0.99285 0.0
C701 C 0.68364 0.19379 0.89755 0.0
C702 C 0.63712 0.16978 0.83207 0.0
H703 H 0.60119 0.11991 0.92578 0.0
C704 C 0.55971 0.08628 0.73531 0.0
C705 C 0.56423 0.06859 0.73901 0.0
C706 C 0.57297 0.10675 0.76877 0.0
C707 C 0.6108 0.1339 0.89941 0.0
H708 H 0.68466 0.21524 0.05975 0.0
H709 H 0.64979 0.19672 -0.00225 0.0
H710 H 0.63225 0.1543 0.97435 0.0
H711 H 0.58527 0.0579 0.78249 0.0
H712 H 0.60797 0.09343 0.84274 0.0
H713 H 0.61604 0.14869 0.75668 0.0
C714 C 0.66481 0.19936 0.97853 0.0
C715 C 0.62847 0.15365 0.9271 0.0
C716 C 0.68477 0.21008 0.01383 0.0
C717 C 0.58143 0.07125 0.77903 0.0
C718 C 0.59434 0.0915 0.81344 0.0
C719 C 0.61911 0.15011 0.80447 0.0
C720 C 0.66379 0.18971 0.92159 0.0
C721 C 0.6423 0.17148 0.89347 0.0
C722 C 0.59059 0.10958 0.80738 0.0
C723 C 0.60636 0.13176 0.83775 0.0
H724 H 0.7181 0.20489 0.9159 0.0
H725 H 0.68335 0.18653 0.85377 0.0
H726 H 0.64757 0.18322 0.80516 0.0
H727 H 0.54675 0.08477 0.70407 0.0
H728 H 0.56984 0.1205 0.76348 0.0
C729 C 0.55667 0.73303 0.91228 0.0
C730 C 0.54005 0.73157 0.94799 0.0
C731 C 0.55161 0.71644 0.86653 0.0
C732 C 0.5143 0.6569 0.84783 0.0
H733 H 0.53851 0.65885 0.69551 0.0
C734 C 0.49878 0.57553 0.72835 0.0
C735 C 0.51649 0.57567 0.7011 0.0
C736 C 0.4996 0.59563 0.74537 0.0
C737 C 0.53176 0.65807 0.73817 0.0
H738 H 0.50481 0.7135 0.95943 0.0
H739 H 0.4959 0.68466 0.87923 0.0
H740 H 0.54333 0.69355 0.74583 0.0
H741 H 0.54852 0.59651 0.66738 0.0
H742 H 0.55076 0.63212 0.7007 0.0
H743 H 0.50397 0.62212 0.84322 0.0
C744 C 0.51288 0.69832 0.8872 0.0
C745 C 0.53439 0.67789 0.76665 0.0
C746 C 0.51794 0.71481 0.93292 0.0
C747 C 0.53476 0.59618 0.68882 0.0
C748 C 0.5359 0.61648 0.70746 0.0
C749 C 0.51198 0.63733 0.82008 0.0
C750 C 0.52986 0.69823 0.856 0.0
C751 C 0.52563 0.67742 0.82178 0.0
C752 C 0.51852 0.61641 0.73741 0.0
C753 C 0.52062 0.63754 0.76485 0.0
H754 H 0.57388 0.74574 0.92319 0.0
H755 H 0.56502 0.71676 0.84327 0.0
H756 H 0.50798 0.65611 0.89115 0.0
H757 H 0.4843 0.5598 0.73702 0.0
H758 H 0.48554 0.59482 0.7662 0.0
C759 C 0.47599 0.18135 0.2569 0.0
C760 C 0.49642 0.20151 0.25969 0.0
C761 C 0.47288 0.16427 0.29327 0.0
C762 C 0.49878 0.14971 0.41976 0.0
H763 H 0.46884 0.09103 0.33305 0.0
C764 C 0.49682 0.05975 0.42026 0.0
C765 C 0.49607 0.05626 0.48109 0.0
C766 C 0.49399 0.07692 0.39873 0.0
C767 C 0.47731 0.10728 0.35798 0.0
H768 H 0.52925 0.22012 0.30467 0.0
H769 H 0.52412 0.19017 0.36744 0.0
H770 H 0.4695 0.12271 0.28855 0.0
H771 H 0.49129 0.068 0.56683 0.0
H772 H 0.48605 0.0979 0.52904 0.0
H773 H 0.50755 0.13427 0.48792 0.0
C774 C 0.51026 0.1876 0.33811 0.0
C775 C 0.4774 0.12548 0.33277 0.0
C776 C 0.51324 0.20483 0.30218 0.0
C777 C 0.4919 0.07014 0.51972 0.0
C778 C 0.48909 0.08742 0.4981 0.0
C779 C 0.49875 0.13144 0.44496 0.0
C780 C 0.49029 0.16676 0.33258 0.0
C781 C 0.48842 0.14706 0.3628 0.0
C782 C 0.49027 0.09113 0.43731 0.0
C783 C 0.48839 0.11008 0.4138 0.0
H784 H 0.46273 0.17842 0.22459 0.0
H785 H 0.45707 0.14875 0.28881 0.0
H786 H 0.50721 0.16597 0.44459 0.0
H787 H 0.50006 0.04947 0.38911 0.0
H788 H 0.49538 0.07944 0.35184 0.0
C789 C 0.29857 0.48537 0.25713 0.0
C790 C 0.30112 0.50609 0.24247 0.0
C791 C 0.31365 0.48467 0.29832 0.0
C792 C 0.37219 0.51839 0.3409 0.0
H793 H 0.36089 0.47434 0.45528 0.0
C794 C 0.44269 0.51443 0.4744 0.0
C795 C 0.43873 0.49322 0.48948 0.0
C796 C 0.4258 0.51669 0.44595 0.0
C797 C 0.36433 0.48655 0.42285 0.0
H798 H 0.32013 0.54215 0.26251 0.0
H799 H 0.34654 0.54095 0.33484 0.0
H800 H 0.33009 0.47738 0.41091 0.0
H801 H 0.41459 0.45755 0.48222 0.0
H802 H 0.38549 0.46136 0.43051 0.0
H803 H 0.40621 0.52701 0.35066 0.0
C804 C 0.33295 0.52529 0.31435 0.0
C805 C 0.34669 0.48842 0.39799 0.0
C806 C 0.31769 0.52596 0.27364 0.0
C807 C 0.41807 0.47416 0.47187 0.0
C808 C 0.40129 0.47639 0.44283 0.0
C809 C 0.38979 0.51636 0.36521 0.0
C810 C 0.33165 0.50472 0.3249 0.0
C811 C 0.35044 0.50425 0.35648 0.0
C812 C 0.40469 0.49775 0.43131 0.0
C813 C 0.38606 0.50026 0.40606 0.0
H814 H 0.286 0.46987 0.23316 0.0
H815 H 0.31228 0.46858 0.30547 0.0
H816 H 0.3755 0.53045 0.30805 0.0
H817 H 0.4584 0.52947 0.48759 0.0
H818 H 0.42904 0.53342 0.43799 0.0
C819 C 0.83808 0.29709 0.22986 0.0
C820 C 0.82372 0.30339 0.20267 0.0
C821 C 0.85263 0.31023 0.27852 0.0
C822 C 0.89353 0.35192 0.33434 0.0
H823 H 0.88288 0.38886 0.44775 0.0
C824 C 0.95962 0.44204 0.41096 0.0
C825 C 0.96079 0.45066 0.46936 0.0
C826 C 0.94293 0.42036 0.39116 0.0
C827 C 0.88613 0.37844 0.4172 0.0
H828 H 0.81176 0.32698 0.20854 0.0
H829 H 0.83724 0.35005 0.29249 0.0
H830 H 0.85149 0.35593 0.39451 0.0
H831 H 0.94558 0.44297 0.5533 0.0
H832 H 0.91626 0.40494 0.51844 0.0
H833 H 0.92813 0.37472 0.35584 0.0
C834 C 0.83734 0.33499 0.27679 0.0
C835 C 0.86814 0.35968 0.38627 0.0
C836 C 0.82283 0.32188 0.22827 0.0
C837 C 0.94518 0.43682 0.50807 0.0
C838 C 0.92832 0.41509 0.48805 0.0
C839 C 0.91147 0.37063 0.36525 0.0
C840 C 0.85308 0.32989 0.30091 0.0
C841 C 0.87164 0.34669 0.34285 0.0
C842 C 0.92689 0.40672 0.42914 0.0
C843 C 0.90799 0.3846 0.40531 0.0
H844 H 0.83918 0.28296 0.21103 0.0
H845 H 0.8643 0.30563 0.29671 0.0
H846 H 0.89692 0.34245 0.30101 0.0
H847 H 0.97139 0.4522 0.37997 0.0
H848 H 0.94212 0.41461 0.34525 0.0
C849 C 0.56317 0.86679 0.21161 0.0
C850 C 0.55812 0.84434 0.2027 0.0
C851 C 0.55865 0.8745 0.26416 0.0
C852 C 0.55307 0.87225 0.41756 0.0
H853 H 0.51127 0.89272 0.38512 0.0
C854 C 0.55368 0.9464 0.54601 0.0
C855 C 0.53439 0.94799 0.54186 0.0
C856 C 0.55334 0.92715 0.52164 0.0
C857 C 0.5225 0.88661 0.39595 0.0
H858 H 0.54572 0.81275 0.24362 0.0
H859 H 0.53805 0.82662 0.33704 0.0
H860 H 0.51783 0.8717 0.30765 0.0
H861 H 0.49908 0.92985 0.51737 0.0
H862 H 0.49819 0.89587 0.4776 0.0
H863 H 0.55862 0.88827 0.50529 0.0
C864 C 0.54532 0.83797 0.30247 0.0
C865 C 0.52635 0.8747 0.35117 0.0
C866 C 0.54971 0.83012 0.24925 0.0
C867 C 0.51425 0.92911 0.52007 0.0
C868 C 0.5138 0.90972 0.49701 0.0
C869 C 0.54928 0.88434 0.46272 0.0
C870 C 0.54926 0.86007 0.3094 0.0
C871 C 0.54217 0.86811 0.36095 0.0
C872 C 0.53361 0.90913 0.49366 0.0
C873 C 0.53446 0.8923 0.45173 0.0
H874 H 0.57024 0.87835 0.17734 0.0
H875 H 0.56204 0.89169 0.26902 0.0
H876 H 0.56543 0.86735 0.42576 0.0
H877 H 0.56941 0.96078 0.56272 0.0
H878 H 0.56892 0.92734 0.51994 0.0
C879 C 0.71254 0.54549 0.20891 0.0
C880 C 0.72876 0.56408 0.18207 0.0
C881 C 0.70114 0.54843 0.25446 0.0
C882 C 0.68358 0.58832 0.30434 0.0
H883 H 0.65457 0.54382 0.41786 0.0
C884 C 0.61135 0.57949 0.44779 0.0
C885 C 0.59226 0.55828 0.43435 0.0
C886 C 0.63181 0.58399 0.4274 0.0
C887 C 0.66277 0.55655 0.38689 0.0
H888 H 0.74702 0.60044 0.18484 0.0
H889 H 0.7274 0.60573 0.26583 0.0
H890 H 0.68576 0.54548 0.36853 0.0
H891 H 0.57979 0.52517 0.38946 0.0
H892 H 0.61538 0.53289 0.35547 0.0
H893 H 0.66011 0.59899 0.32245 0.0
C894 C 0.72319 0.5888 0.2508 0.0
C895 C 0.68053 0.55743 0.35832 0.0
C896 C 0.73464 0.58582 0.20497 0.0
C897 C 0.59408 0.54174 0.40028 0.0
C898 C 0.61449 0.54606 0.3812 0.0
C899 C 0.66599 0.58764 0.33372 0.0
C900 C 0.70572 0.57009 0.27458 0.0
C901 C 0.69052 0.57264 0.31466 0.0
C902 C 0.63354 0.56714 0.39472 0.0
C903 C 0.65489 0.57114 0.37339 0.0
H904 H 0.70774 0.52855 0.19217 0.0
H905 H 0.68769 0.53357 0.27093 0.0
H906 H 0.69069 0.60014 0.27072 0.0
H907 H 0.61047 0.59257 0.47397 0.0
H908 H 0.64632 0.60041 0.43805 0.0
C909 C 0.17931 0.7265 0.221 0.0
C910 C 0.19528 0.72377 0.19159 0.0
C911 C 0.1693 0.71384 0.26881 0.0
C912 C 0.15278 0.65865 0.31795 0.0
H913 H 0.13682 0.67948 0.45962 0.0
C914 C 0.09242 0.59436 0.46785 0.0
C915 C 0.076 0.59844 0.48897 0.0
C916 C 0.11123 0.61151 0.44472 0.0
C917 C 0.14096 0.67331 0.42011 0.0
H918 H 0.214 0.7064 0.19084 0.0
H919 H 0.19635 0.68411 0.27419 0.0
H920 H 0.16209 0.70673 0.39435 0.0
H921 H 0.06706 0.62404 0.50566 0.0
H922 H 0.09926 0.65369 0.46328 0.0
H923 H 0.13081 0.62534 0.34071 0.0
C924 C 0.19165 0.69611 0.26031 0.0
C925 C 0.15557 0.68898 0.38292 0.0
C926 C 0.20189 0.709 0.21297 0.0
C927 C 0.07948 0.62039 0.49001 0.0
C928 C 0.09807 0.63746 0.4657 0.0
C929 C 0.13797 0.643 0.35447 0.0
C930 C 0.17483 0.69796 0.28769 0.0
C931 C 0.1614 0.68178 0.33103 0.0
C932 C 0.11384 0.63306 0.44074 0.0
C933 C 0.13155 0.65003 0.40573 0.0
H934 H 0.17393 0.73778 0.20541 0.0
H935 H 0.1563 0.71555 0.2887 0.0
H936 H 0.15665 0.65254 0.27775 0.0
H937 H 0.09033 0.57765 0.46711 0.0
H938 H 0.1233 0.60757 0.42792 0.0
loop_
_geom_bond_atom_site_label_1
_geom_bond_atom_site_label_2
_geom_bond_distance
_geom_bond_site_symmetry_2
_ccdc_geom_bond_type
H0 C8 0.930 . S
H1 C11 0.930 . S
H2 C13 0.930 . S
H3 C14 0.970 . S
H4 C14 0.970 . S
H5 C16 0.930 . S
H6 C18 0.930 . S
H7 C20 0.930 . S
C8 H0 0.930 . S
C8 C9 1.382 . S
C8 C10 1.426 . S
C9 C8 1.382 . S
C9 C13 1.389 . S
C10 C8 1.426 . S
C10 C11 1.375 . S
C10 C14 1.532 . S
C11 H1 0.930 . S
C11 C10 1.375 . S
C11 C12 1.416 . S
C12 C11 1.416 . S
C12 C13 1.371 . S
C13 H2 0.930 . S
C13 C9 1.389 . S
C13 C12 1.371 . S
C14 H3 0.970 . S
C14 H4 0.970 . S
C14 C10 1.532 . S
C14 C15 1.499 . S
C15 C14 1.499 . S
C15 C16 1.370 . S
C15 C20 1.415 . S
C16 H5 0.930 . S
C16 C15 1.370 . S
C16 C17 1.407 . S
C17 C16 1.407 . S
C17 C18 1.365 . S
C18 H6 0.930 . S
C18 C17 1.365 . S
C18 C19 1.393 . S
C19 C18 1.393 . S
C19 C20 1.387 . S
C20 H7 0.930 . S
C20 C15 1.415 . S
C20 C19 1.387 . S
H21 C29 0.930 . S
H22 C32 0.930 . S
H23 C34 0.930 . S
H24 C35 0.970 . S
H25 C35 0.970 . S
H26 C37 0.930 . S
H27 C39 0.930 . S
H28 C41 0.930 . S
C29 H21 0.930 . S
C29 C30 1.382 . S
C29 C31 1.426 . S
C30 C29 1.382 . S
C30 C34 1.389 . S
C31 C29 1.426 . S
C31 C32 1.375 . S
C31 C35 1.532 . S
C32 H22 0.930 . S
C32 C31 1.375 . S
C32 C33 1.416 . S
C33 C32 1.416 . S
C33 C34 1.371 . S
C34 H23 0.930 . S
C34 C30 1.389 . S
C34 C33 1.371 . S
C35 H24 0.970 . S
C35 H25 0.970 . S
C35 C31 1.532 . S
C35 C36 1.499 . S
C36 C35 1.499 . S
C36 C37 1.370 . S
C36 C41 1.415 . S
C37 H26 0.930 . S
C37 C36 1.370 . S
C37 C38 1.407 . S
C38 C37 1.407 . S
C38 C39 1.365 . S
C39 H27 0.930 . S
C39 C38 1.365 . S
C39 C40 1.393 . S
C40 C39 1.393 . S
C40 C41 1.387 . S
C41 H28 0.930 . S
C41 C36 1.415 . S
C41 C40 1.387 . S
H42 C50 0.930 . S
H43 C53 0.930 . S
H44 C55 0.930 . S
H45 C56 0.970 . S
H46 C56 0.970 . S
H47 C58 0.930 . S
H48 C60 0.930 . S
H49 C62 0.930 . S
C50 H42 0.930 . S
C50 C51 1.382 . S
C50 C52 1.426 1_556 S
C51 C50 1.382 . S
C51 C55 1.389 1_556 S
C52 C50 1.426 1_554 S
C52 C53 1.375 . S
C52 C56 1.532 . S
C53 H43 0.930 . S
C53 C52 1.375 . S
C53 C54 1.416 . S
C54 C53 1.416 . S
C54 C55 1.371 . S
C55 H44 0.930 . S
C55 C51 1.389 1_554 S
C55 C54 1.371 . S
C56 H45 0.970 . S
C56 H46 0.970 . S
C56 C52 1.532 . S
C56 C57 1.499 . S
C57 C56 1.499 . S
C57 C58 1.370 1_554 S
C57 C62 1.415 . S
C58 H47 0.930 . S
C58 C57 1.370 1_556 S
C58 C59 1.407 . S
C59 C58 1.407 . S
C59 C60 1.365 1_556 S
C60 H48 0.930 . S
C60 C59 1.365 1_554 S
C60 C61 1.393 . S
C61 C60 1.393 . S
C61 C62 1.387 . S
C62 H49 0.930 . S
C62 C57 1.415 . S
C62 C61 1.387 . S
H63 C71 0.930 . S
H64 C74 0.930 . S
H65 C76 0.930 . S
H66 C77 0.970 1_556 S
H67 C77 0.970 . S
H68 C79 0.930 . S
H69 C81 0.930 . S
H70 C83 0.930 . S
C71 H63 0.930 . S
C71 C72 1.382 . S
C71 C73 1.426 1_556 S
C72 C71 1.382 . S
C72 C76 1.389 1_556 S
C73 C71 1.426 1_554 S
C73 C74 1.375 . S
C73 C77 1.532 . S
C74 H64 0.930 . S
C74 C73 1.375 . S
C74 C75 1.416 . S
C75 C74 1.416 . S
C75 C76 1.371 . S
C76 H65 0.930 . S
C76 C72 1.389 1_554 S
C76 C75 1.371 . S
C77 H66 0.970 1_554 S
C77 H67 0.970 . S
C77 C73 1.532 . S
C77 C78 1.499 . S
C78 C77 1.499 . S
C78 C79 1.370 1_554 S
C78 C83 1.415 . S
C79 H68 0.930 . S
C79 C78 1.370 1_556 S
C79 C80 1.407 . S
C80 C79 1.407 . S
C80 C81 1.365 1_556 S
C81 H69 0.930 . S
C81 C80 1.365 1_554 S
C81 C82 1.393 . S
C82 C81 1.393 . S
C82 C83 1.387 . S
C83 H70 0.930 . S
C83 C78 1.415 . S
C83 C82 1.387 . S
H84 C92 0.930 . S
H85 C95 0.930 . S
H86 C97 0.930 . S
H87 C98 0.970 . S
H88 C98 0.970 . S
H89 C100 0.930 . S
H90 C102 0.930 . S
H91 C104 0.930 . S
C92 H84 0.930 . S
C92 C93 1.382 . S
C92 C94 1.426 . S
C93 C92 1.382 . S
C93 C97 1.389 . S
C94 C92 1.426 . S
C94 C95 1.375 . S
C94 C98 1.532 . S
C95 H85 0.930 . S
C95 C94 1.375 . S
C95 C96 1.416 . S
C96 C95 1.416 . S
C96 C97 1.371 . S
C97 H86 0.930 . S
C97 C93 1.389 . S
C97 C96 1.371 . S
C98 H87 0.970 . S
C98 H88 0.970 . S
C98 C94 1.532 . S
C98 C99 1.499 . S
C99 C98 1.499 . S
C99 C100 1.370 . S
C99 C104 1.415 . S
C100 H89 0.930 . S
C100 C99 1.370 . S
C100 C101 1.407 . S
C101 C100 1.407 . S
C101 C102 1.365 . S
C102 H90 0.930 . S
C102 C101 1.365 . S
C102 C103 1.393 . S
C103 C102 1.393 . S
C103 C104 1.387 . S
C104 H91 0.930 . S
C104 C99 1.415 . S
C104 C103 1.387 . S
H105 C113 0.930 . S
H106 C116 0.930 . S
H107 C118 0.930 . S
H108 C119 0.970 . S
H109 C119 0.970 . S
H110 C121 0.930 . S
H111 C123 0.930 . S
H112 C125 0.930 . S
C113 H105 0.930 . S
C113 C114 1.382 . S
C113 C115 1.426 . S
C114 C113 1.382 . S
C114 C118 1.389 . S
C115 C113 1.426 . S
C115 C116 1.375 . S
C115 C119 1.532 . S
C116 H106 0.930 . S
C116 C115 1.375 . S
C116 C117 1.416 . S
C117 C116 1.416 . S
C117 C118 1.371 . S
C118 H107 0.930 . S
C118 C114 1.389 . S
C118 C117 1.371 . S
C119 H108 0.970 . S
C119 H109 0.970 . S
C119 C115 1.532 . S
C119 C120 1.499 . S
C120 C119 1.499 . S
C120 C121 1.370 . S
C120 C125 1.415 . S
C121 H110 0.930 . S
C121 C120 1.370 . S
C121 C122 1.407 . S
C122 C121 1.407 . S
C122 C123 1.365 . S
C123 H111 0.930 . S
C123 C122 1.365 . S
C123 C124 1.393 . S
C124 C123 1.393 . S
C124 C125 1.387 . S
C125 H112 0.930 . S
C125 C120 1.415 . S
C125 C124 1.387 . S
C126 O153 1.312 . S
C126 O154 1.208 . S
C127 O148 1.331 . S
C127 O151 1.244 . S
C128 O150 1.264 . S
C128 O152 1.273 . S
Mg129 O131 1.936 1_455 S
Mg129 O138 2.081 1_455 S
Mg129 O140 2.023 . S
Mg129 O144 2.031 1_455 S
Mg129 O153 2.291 . S
Mg130 O131 1.963 . S
Mg130 O141 1.942 . S
Mg130 O142 1.955 1_655 S
Mg130 O149 1.986 . S
O131 Mg129 1.936 1_655 S
O131 Mg130 1.963 . S
O131 Mg132 1.915 1_655 S
Mg132 O131 1.915 1_455 S
Mg132 O133 1.915 . S
Mg132 O137 2.013 . S
Mg132 O143 2.114 1_455 S
Mg132 O147 2.013 1_455 S
Mg132 O153 2.114 . S
O133 Mg132 1.915 . S
O133 Mg134 1.936 . S
O133 Mg135 1.963 . S
Mg134 O133 1.936 . S
Mg134 O143 2.291 1_455 S
Mg134 O148 2.081 . S
Mg134 O150 2.023 1_455 S
Mg134 O154 2.031 . S
Mg135 O133 1.963 . S
Mg135 O139 1.986 . S
Mg135 O151 1.942 . S
Mg135 O152 1.955 1_455 S
C136 O147 1.191 . S
C136 O149 1.307 . S
O137 Mg132 2.013 . S
O137 C156 1.191 . S
O138 Mg129 2.081 1_655 S
O138 C146 1.331 . S
O139 Mg135 1.986 . S
O139 C156 1.307 . S
O140 Mg129 2.023 . S
O140 C155 1.264 . S
O141 Mg130 1.942 . S
O141 C146 1.244 . S
O142 Mg130 1.955 1_455 S
O142 C155 1.273 . S
O143 Mg132 2.114 1_655 S
O143 Mg134 2.291 1_655 S
O143 C145 1.312 . S
O144 Mg129 2.031 1_655 S
O144 C145 1.208 . S
C145 O143 1.312 . S
C145 O144 1.208 . S
C146 O138 1.331 . S
C146 O141 1.244 . S
O147 Mg132 2.013 1_655 S
O147 C136 1.191 . S
O148 C127 1.331 . S
O148 Mg134 2.081 . S
O149 Mg130 1.986 . S
O149 C136 1.307 . S
O150 C128 1.264 . S
O150 Mg134 2.023 1_655 S
O151 C127 1.244 . S
O151 Mg135 1.942 . S
O152 C128 1.273 . S
O152 Mg135 1.955 1_655 S
O153 C126 1.312 . S
O153 Mg129 2.291 . S
O153 Mg132 2.114 . S
O154 C126 1.208 . S
O154 Mg134 2.031 . S
C155 O140 1.264 . S
C155 O142 1.273 . S
C156 O137 1.191 . S
C156 O139 1.307 . S
C157 O184 1.312 . S
C157 O185 1.208 . S
C158 O179 1.331 . S
C158 O182 1.244 . S
C159 O181 1.264 . S
C159 O183 1.273 . S
Mg160 O162 1.936 . S
Mg160 O169 2.081 1_545 S
Mg160 O171 2.023 . S
Mg160 O175 2.031 1_545 S
Mg160 O184 2.291 . S
Mg161 O162 1.963 . S
Mg161 O172 1.942 1_545 S
Mg161 O173 1.955 . S
Mg161 O180 1.986 1_545 S
O162 Mg160 1.936 . S
O162 Mg161 1.963 . S
O162 Mg163 1.915 . S
Mg163 O162 1.915 . S
Mg163 O164 1.915 . S
Mg163 O168 2.013 . S
Mg163 O174 2.114 1_545 S
Mg163 O178 2.013 1_545 S
Mg163 O184 2.114 . S
O164 Mg163 1.915 . S
O164 Mg165 1.936 . S
O164 Mg166 1.963 . S
Mg165 O164 1.936 . S
Mg165 O174 2.291 1_545 S
Mg165 O179 2.081 . S
Mg165 O181 2.023 1_545 S
Mg165 O185 2.031 . S
Mg166 O164 1.963 . S
Mg166 O170 1.986 . S
Mg166 O182 1.942 . S
Mg166 O183 1.955 1_545 S
C167 O178 1.191 . S
C167 O180 1.307 . S
O168 Mg163 2.013 . S
O168 C187 1.191 . S
O169 Mg160 2.081 1_565 S
O169 C177 1.331 . S
O170 Mg166 1.986 . S
O170 C187 1.307 . S
O171 Mg160 2.023 . S
O171 C186 1.264 . S
O172 Mg161 1.942 1_565 S
O172 C177 1.244 . S
O173 Mg161 1.955 . S
O173 C186 1.273 . S
O174 Mg163 2.114 1_565 S
O174 Mg165 2.291 1_565 S
O174 C176 1.312 . S
O175 Mg160 2.031 1_565 S
O175 C176 1.208 . S
C176 O174 1.312 . S
C176 O175 1.208 . S
C177 O169 1.331 . S
C177 O172 1.244 . S
O178 Mg163 2.013 1_565 S
O178 C167 1.191 . S
O179 C158 1.331 . S
O179 Mg165 2.081 . S
O180 Mg161 1.986 1_565 S
O180 C167 1.307 . S
O181 C159 1.264 . S
O181 Mg165 2.023 1_565 S
O182 C158 1.244 . S
O182 Mg166 1.942 . S
O183 C159 1.273 . S
O183 Mg166 1.955 1_565 S
O184 C157 1.312 . S
O184 Mg160 2.291 . S
O184 Mg163 2.114 . S
O185 C157 1.208 . S
O185 Mg165 2.031 . S
C186 O171 1.264 . S
C186 O173 1.273 . S
C187 O168 1.191 . S
C187 O170 1.307 . S
C188 O215 1.312 . S
C188 O216 1.208 . S
C189 O210 1.331 . S
C189 O213 1.244 . S
C190 O212 1.264 . S
C190 O214 1.273 . S
Mg191 O193 1.936 . S
Mg191 O200 2.081 . S
Mg191 O202 2.023 . S
Mg191 O206 2.031 . S
Mg191 O215 2.291 . S
Mg192 O193 1.963 . S
Mg192 O203 1.942 . S
Mg192 O204 1.955 . S
Mg192 O211 1.986 . S
O193 Mg191 1.936 . S
O193 Mg192 1.963 . S
O193 Mg194 1.915 . S
Mg194 O193 1.915 . S
Mg194 O195 1.915 . S
Mg194 O199 2.013 . S
Mg194 O205 2.114 . S
Mg194 O209 2.013 . S
Mg194 O215 2.114 . S
O195 Mg194 1.915 . S
O195 Mg196 1.936 . S
O195 Mg197 1.963 . S
Mg196 O195 1.936 . S
Mg196 O205 2.291 . S
Mg196 O210 2.081 . S
Mg196 O212 2.023 . S
Mg196 O216 2.031 . S
Mg197 O195 1.963 . S
Mg197 O201 1.986 . S
Mg197 O213 1.942 . S
Mg197 O214 1.955 . S
C198 O209 1.191 . S
C198 O211 1.307 . S
O199 Mg194 2.013 . S
O199 C218 1.191 . S
O200 Mg191 2.081 . S
O200 C208 1.331 . S
O201 Mg197 1.986 . S
O201 C218 1.307 . S
O202 Mg191 2.023 . S
O202 C217 1.264 . S
O203 Mg192 1.942 . S
O203 C208 1.244 . S
O204 Mg192 1.955 . S
O204 C217 1.273 . S
O205 Mg194 2.114 . S
O205 Mg196 2.291 . S
O205 C207 1.312 . S
O206 Mg191 2.031 . S
O206 C207 1.208 . S
C207 O205 1.312 . S
C207 O206 1.208 . S
C208 O200 1.331 . S
C208 O203 1.244 . S
O209 Mg194 2.013 . S
O209 C198 1.191 . S
O210 C189 1.331 . S
O210 Mg196 2.081 . S
O211 Mg192 1.986 . S
O211 C198 1.307 . S
O212 C190 1.264 . S
O212 Mg196 2.023 . S
O213 C189 1.244 . S
O213 Mg197 1.942 . S
O214 C190 1.273 . S
O214 Mg197 1.955 . S
O215 C188 1.312 . S
O215 Mg191 2.291 . S
O215 Mg194 2.114 . S
O216 C188 1.208 . S
O216 Mg196 2.031 . S
C217 O202 1.264 . S
C217 O204 1.273 . S
C218 O199 1.191 . S
C218 O201 1.307 . S
C219 C220 1.349 . S
C219 C221 1.327 . S
C219 H244 0.950 . S
C220 C219 1.349 . S
C220 C236 1.349 . S
C221 C219 1.327 . S
C221 C240 1.429 . S
C221 H245 0.950 . S
C222 C239 1.574 . S
C222 C241 1.368 . S
C222 H246 0.949 . S
H223 C227 0.949 . S
C224 C225 1.349 . S
C224 C226 1.327 . S
C224 H247 0.950 . S
C225 C224 1.349 . S
C225 C237 1.349 . S
C226 C224 1.327 . S
C226 C242 1.429 . S
C226 H248 0.950 . S
C227 H223 0.949 . S
C227 C235 1.574 . S
C227 C243 1.368 . S
H228 C236 0.950 . S
H229 C234 0.950 . S
H230 C235 0.949 . S
H231 C237 0.950 . S
H232 C238 0.950 . S
H233 C239 0.949 . S
C234 H229 0.950 . S
C234 C236 1.327 . S
C234 C240 1.429 . S
C235 C227 1.574 . S
C235 H230 0.949 . S
C235 C241 1.368 . S
C236 C220 1.349 . S
C236 H228 0.950 . S
C236 C234 1.327 . S
C237 C225 1.349 . S
C237 H231 0.950 . S
C237 C238 1.327 . S
C238 H232 0.950 . S
C238 C237 1.327 . S
C238 C242 1.429 . S
C239 C222 1.574 . S
C239 H233 0.949 . S
C239 C243 1.368 . S
C240 C221 1.429 . S
C240 C234 1.429 . S
C240 C241 1.523 . S
C241 C222 1.368 . S
C241 C235 1.368 . S
C241 C240 1.523 . S
C242 C226 1.429 . S
C242 C238 1.429 . S
C242 C243 1.523 . S
C243 C227 1.368 . S
C243 C239 1.368 . S
C243 C242 1.523 . S
H244 C219 0.950 . S
H245 C221 0.950 . S
H246 C222 0.949 . S
H247 C224 0.950 . S
H248 C226 0.950 . S
C249 C250 1.349 . S
C249 C251 1.327 . S
C249 H274 0.950 . S
C250 C249 1.349 . S
C250 C266 1.349 . S
C251 C249 1.327 . S
C251 C270 1.429 . S
C251 H275 0.950 . S
C252 C269 1.574 . S
C252 C271 1.368 . S
C252 H276 0.949 . S
H253 C257 0.949 . S
C254 C255 1.349 . S
C254 C256 1.327 . S
C254 H277 0.950 . S
C255 C254 1.349 . S
C255 C267 1.349 . S
C256 C254 1.327 . S
C256 C272 1.429 . S
C256 H278 0.950 . S
C257 H253 0.949 . S
C257 C265 1.574 . S
C257 C273 1.368 . S
H258 C266 0.950 . S
H259 C264 0.950 . S
H260 C265 0.949 . S
H261 C267 0.950 . S
H262 C268 0.950 . S
H263 C269 0.949 . S
C264 H259 0.950 . S
C264 C266 1.327 . S
C264 C270 1.429 . S
C265 C257 1.574 . S
C265 H260 0.949 . S
C265 C271 1.368 . S
C266 C250 1.349 . S
C266 H258 0.950 . S
C266 C264 1.327 . S
C267 C255 1.349 . S
C267 H261 0.950 . S
C267 C268 1.327 . S
C268 H262 0.950 . S
C268 C267 1.327 . S
C268 C272 1.429 . S
C269 C252 1.574 . S
C269 H263 0.949 . S
C269 C273 1.368 . S
C270 C251 1.429 . S
C270 C264 1.429 . S
C270 C271 1.523 . S
C271 C252 1.368 . S
C271 C265 1.368 . S
C271 C270 1.523 . S
C272 C256 1.429 . S
C272 C268 1.429 . S
C272 C273 1.523 . S
C273 C257 1.368 . S
C273 C269 1.368 . S
C273 C272 1.523 . S
H274 C249 0.950 . S
H275 C251 0.950 . S
H276 C252 0.949 . S
H277 C254 0.950 . S
H278 C256 0.950 . S
C279 C280 1.349 . S
C279 C281 1.327 . S
C279 H304 0.950 . S
C280 C279 1.349 . S
C280 C296 1.349 . S
C281 C279 1.327 . S
C281 C300 1.429 . S
C281 H305 0.950 . S
C282 C299 1.574 . S
C282 C301 1.368 . S
C282 H306 0.949 . S
H283 C287 0.949 . S
C284 C285 1.349 . S
C284 C286 1.327 . S
C284 H307 0.950 . S
C285 C284 1.349 . S
C285 C297 1.349 . S
C286 C284 1.327 . S
C286 C302 1.429 . S
C286 H308 0.950 . S
C287 H283 0.949 . S
C287 C295 1.574 . S
C287 C303 1.368 . S
H288 C296 0.950 . S
H289 C294 0.950 . S
H290 C295 0.949 . S
H291 C297 0.950 . S
H292 C298 0.950 . S
H293 C299 0.949 . S
C294 H289 0.950 . S
C294 C296 1.327 . S
C294 C300 1.429 . S
C295 C287 1.574 . S
C295 H290 0.949 . S
C295 C301 1.368 . S
C296 C280 1.349 . S
C296 H288 0.950 . S
C296 C294 1.327 . S
C297 C285 1.349 . S
C297 H291 0.950 . S
C297 C298 1.327 . S
C298 H292 0.950 . S
C298 C297 1.327 . S
C298 C302 1.429 . S
C299 C282 1.574 . S
C299 H293 0.949 . S
C299 C303 1.368 . S
C300 C281 1.429 . S
C300 C294 1.429 . S
C300 C301 1.523 . S
C301 C282 1.368 . S
C301 C295 1.368 . S
C301 C300 1.523 . S
C302 C286 1.429 . S
C302 C298 1.429 . S
C302 C303 1.523 . S
C303 C287 1.368 . S
C303 C299 1.368 . S
C303 C302 1.523 . S
H304 C279 0.950 . S
H305 C281 0.950 . S
H306 C282 0.949 . S
H307 C284 0.950 . S
H308 C286 0.950 . S
C309 C310 1.349 . S
C309 C311 1.327 . S
C309 H334 0.950 . S
C310 C309 1.349 . S
C310 C326 1.349 . S
C311 C309 1.327 . S
C311 C330 1.429 . S
C311 H335 0.950 . S
C312 C329 1.574 . S
C312 C331 1.368 . S
C312 H336 0.949 . S
H313 C317 0.949 . S
C314 C315 1.349 . S
C314 C316 1.327 . S
C314 H337 0.950 . S
C315 C314 1.349 . S
C315 C327 1.349 . S
C316 C314 1.327 . S
C316 C332 1.429 . S
C316 H338 0.950 . S
C317 H313 0.949 . S
C317 C325 1.574 . S
C317 C333 1.368 . S
H318 C326 0.950 . S
H319 C324 0.950 . S
H320 C325 0.949 . S
H321 C327 0.950 . S
H322 C328 0.950 . S
H323 C329 0.949 . S
C324 H319 0.950 . S
C324 C326 1.327 . S
C324 C330 1.429 . S
C325 C317 1.574 . S
C325 H320 0.949 . S
C325 C331 1.368 . S
C326 C310 1.349 . S
C326 H318 0.950 . S
C326 C324 1.327 . S
C327 C315 1.349 . S
C327 H321 0.950 . S
C327 C328 1.327 . S
C328 H322 0.950 . S
C328 C327 1.327 . S
C328 C332 1.429 . S
C329 C312 1.574 . S
C329 H323 0.949 . S
C329 C333 1.368 . S
C330 C311 1.429 . S
C330 C324 1.429 . S
C330 C331 1.523 . S
C331 C312 1.368 . S
C331 C325 1.368 . S
C331 C330 1.523 . S
C332 C316 1.429 . S
C332 C328 1.429 . S
C332 C333 1.523 . S
C333 C317 1.368 . S
C333 C329 1.368 . S
C333 C332 1.523 . S
H334 C309 0.950 . S
H335 C311 0.950 . S
H336 C312 0.949 . S
H337 C314 0.950 . S
H338 C316 0.950 . S
C339 C340 1.349 . S
C339 C341 1.327 . S
C339 H364 0.950 . S
C340 C339 1.349 . S
C340 C356 1.349 . S
C341 C339 1.327 . S
C341 C360 1.429 . S
C341 H365 0.950 . S
C342 C359 1.574 . S
C342 C361 1.368 . S
C342 H366 0.949 . S
H343 C347 0.949 . S
C344 C345 1.349 . S
C344 C346 1.327 . S
C344 H367 0.950 . S
C345 C344 1.349 . S
C345 C357 1.349 . S
C346 C344 1.327 . S
C346 C362 1.429 . S
C346 H368 0.950 . S
C347 H343 0.949 . S
C347 C355 1.574 . S
C347 C363 1.368 . S
H348 C356 0.950 . S
H349 C354 0.950 . S
H350 C355 0.949 . S
H351 C357 0.950 . S
H352 C358 0.950 . S
H353 C359 0.949 . S
C354 H349 0.950 . S
C354 C356 1.327 . S
C354 C360 1.429 . S
C355 C347 1.574 . S
C355 H350 0.949 . S
C355 C361 1.368 . S
C356 C340 1.349 . S
C356 H348 0.950 . S
C356 C354 1.327 . S
C357 C345 1.349 . S
C357 H351 0.950 . S
C357 C358 1.327 . S
C358 H352 0.950 . S
C358 C357 1.327 . S
C358 C362 1.429 . S
C359 C342 1.574 . S
C359 H353 0.949 . S
C359 C363 1.368 . S
C360 C341 1.429 . S
C360 C354 1.429 . S
C360 C361 1.523 . S
C361 C342 1.368 . S
C361 C355 1.368 . S
C361 C360 1.523 . S
C362 C346 1.429 . S
C362 C358 1.429 . S
C362 C363 1.523 . S
C363 C347 1.368 . S
C363 C359 1.368 . S
C363 C362 1.523 . S
H364 C339 0.950 . S
H365 C341 0.950 . S
H366 C342 0.949 . S
H367 C344 0.950 . S
H368 C346 0.950 . S
C369 C370 1.349 . S
C369 C371 1.327 . S
C369 H394 0.950 . S
C370 C369 1.349 . S
C370 C386 1.349 . S
C371 C369 1.327 . S
C371 C390 1.429 . S
C371 H395 0.950 . S
C372 C389 1.574 . S
C372 C391 1.368 . S
C372 H396 0.949 . S
H373 C377 0.949 . S
C374 C375 1.349 . S
C374 C376 1.327 . S
C374 H397 0.950 . S
C375 C374 1.349 . S
C375 C387 1.349 . S
C376 C374 1.327 . S
C376 C392 1.429 . S
C376 H398 0.950 . S
C377 H373 0.949 . S
C377 C385 1.574 . S
C377 C393 1.368 . S
H378 C386 0.950 . S
H379 C384 0.950 . S
H380 C385 0.949 . S
H381 C387 0.950 . S
H382 C388 0.950 . S
H383 C389 0.949 . S
C384 H379 0.950 . S
C384 C386 1.327 . S
C384 C390 1.429 . S
C385 C377 1.574 . S
C385 H380 0.949 . S
C385 C391 1.368 . S
C386 C370 1.349 . S
C386 H378 0.950 . S
C386 C384 1.327 . S
C387 C375 1.349 . S
C387 H381 0.950 . S
C387 C388 1.327 . S
C388 H382 0.950 . S
C388 C387 1.327 . S
C388 C392 1.429 . S
C389 C372 1.574 . S
C389 H383 0.949 . S
C389 C393 1.368 . S
C390 C371 1.429 . S
C390 C384 1.429 . S
C390 C391 1.523 . S
C391 C372 1.368 . S
C391 C385 1.368 . S
C391 C390 1.523 . S
C392 C376 1.429 . S
C392 C388 1.429 . S
C392 C393 1.523 . S
C393 C377 1.368 . S
C393 C389 1.368 . S
C393 C392 1.523 . S
H394 C369 0.950 . S
H395 C371 0.950 . S
H396 C372 0.949 . S
H397 C374 0.950 . S
H398 C376 0.950 . S
C399 C400 1.349 . S
C399 C401 1.327 . S
C399 H424 0.950 . S
C400 C399 1.349 . S
C400 C416 1.349 . S
C401 C399 1.327 . S
C401 C420 1.429 . S
C401 H425 0.950 . S
C402 C419 1.574 . S
C402 C421 1.368 . S
C402 H426 0.949 . S
H403 C407 0.949 . S
C404 C405 1.349 . S
C404 C406 1.327 . S
C404 H427 0.950 . S
C405 C404 1.349 . S
C405 C417 1.349 . S
C406 C404 1.327 . S
C406 C422 1.429 . S
C406 H428 0.950 . S
C407 H403 0.949 . S
C407 C415 1.574 . S
C407 C423 1.368 . S
H408 C416 0.957 . S
H409 C414 0.950 . S
H410 C415 0.949 . S
H411 C417 0.950 . S
H412 C418 0.950 . S
H413 C419 0.949 . S
C414 H409 0.950 . S
C414 C416 1.327 . S
C414 C420 1.429 . S
C415 C407 1.574 . S
C415 H410 0.949 . S
C415 C421 1.368 . S
C416 C400 1.349 . S
C416 H408 0.957 . S
C416 C414 1.327 . S
C417 C405 1.349 . S
C417 H411 0.950 . S
C417 C418 1.327 . S
C418 H412 0.950 . S
C418 C417 1.327 . S
C418 C422 1.429 . S
C419 C402 1.574 . S
C419 H413 0.949 . S
C419 C423 1.368 . S
C420 C401 1.429 . S
C420 C414 1.429 . S
C420 C421 1.523 . S
C421 C402 1.368 . S
C421 C415 1.368 . S
C421 C420 1.523 . S
C422 C406 1.429 . S
C422 C418 1.429 . S
C422 C423 1.523 . S
C423 C407 1.368 . S
C423 C419 1.368 . S
C423 C422 1.523 . S
H424 C399 0.950 . S
H425 C401 0.950 . S
H426 C402 0.949 . S
H427 C404 0.950 . S
H428 C406 0.950 . S
C429 C430 1.349 . S
C429 C431 1.327 . S
C429 H454 0.950 . S
C430 C429 1.349 . S
C430 C446 1.349 . S
C431 C429 1.327 . S
C431 C450 1.429 . S
C431 H455 0.950 . S
C432 C449 1.574 . S
C432 C451 1.368 . S
C432 H456 0.949 . S
H433 C437 0.949 . S
C434 C435 1.349 . S
C434 C436 1.327 . S
C434 H457 0.950 . S
C435 C434 1.349 . S
C435 C447 1.349 . S
C436 C434 1.327 . S
C436 C452 1.429 . S
C436 H458 0.950 . S
C437 H433 0.949 . S
C437 C445 1.574 . S
C437 C453 1.368 . S
H438 C446 0.950 . S
H439 C444 0.950 . S
H440 C445 0.949 . S
H441 C447 0.950 . S
H442 C448 0.950 . S
H443 C449 0.949 . S
C444 H439 0.950 . S
C444 C446 1.327 . S
C444 C450 1.429 . S
C445 C437 1.574 . S
C445 H440 0.949 . S
C445 C451 1.368 . S
C446 C430 1.349 . S
C446 H438 0.950 . S
C446 C444 1.327 . S
C447 C435 1.349 . S
C447 H441 0.950 . S
C447 C448 1.327 . S
C448 H442 0.950 . S
C448 C447 1.327 . S
C448 C452 1.429 . S
C449 C432 1.574 . S
C449 H443 0.949 . S
C449 C453 1.368 . S
C450 C431 1.429 . S
C450 C444 1.429 . S
C450 C451 1.523 . S
C451 C432 1.368 . S
C451 C445 1.368 . S
C451 C450 1.523 . S
C452 C436 1.429 . S
C452 C448 1.429 . S
C452 C453 1.523 . S
C453 C437 1.368 . S
C453 C449 1.368 . S
C453 C452 1.523 . S
H454 C429 0.950 . S
H455 C431 0.950 . S
H456 C432 0.949 . S
H457 C434 0.950 . S
H458 C436 0.950 . S
C459 C460 1.350 . S
C459 C461 1.327 1_554 S
C459 H484 0.950 . S
C460 C459 1.350 . S
C460 C476 1.346 1_554 S
C461 C459 1.327 1_556 S
C461 C480 1.429 . S
C461 H485 0.950 1_556 S
C462 C479 1.574 . S
C462 C481 1.368 . S
C462 H486 0.949 . S
H463 C467 0.949 . S
C464 C465 1.349 . S
C464 C466 1.327 . S
C464 H487 0.950 . S
C465 C464 1.349 . S
C465 C477 1.349 . S
C466 C464 1.327 . S
C466 C482 1.429 . S
C466 H488 0.950 . S
C467 H463 0.949 . S
C467 C475 1.574 . S
C467 C483 1.368 . S
H468 C476 0.950 . S
H469 C474 0.950 . S
H470 C475 0.949 . S
H471 C477 0.950 . S
H472 C478 0.950 . S
H473 C479 0.949 . S
C474 H469 0.950 . S
C474 C476 1.327 . S
C474 C480 1.429 . S
C475 C467 1.574 . S
C475 H470 0.949 . S
C475 C481 1.368 . S
C476 C460 1.346 1_556 S
C476 H468 0.950 . S
C476 C474 1.327 . S
C477 C465 1.349 . S
C477 H471 0.950 . S
C477 C478 1.327 . S
C478 H472 0.950 . S
C478 C477 1.327 . S
C478 C482 1.429 . S
C479 C462 1.574 . S
C479 H473 0.949 . S
C479 C483 1.368 . S
C480 C461 1.429 . S
C480 C474 1.429 . S
C480 C481 1.523 . S
C481 C462 1.368 . S
C481 C475 1.368 . S
C481 C480 1.523 . S
C482 C466 1.429 . S
C482 C478 1.429 . S
C482 C483 1.523 . S
C483 C467 1.368 . S
C483 C479 1.368 . S
C483 C482 1.523 . S
H484 C459 0.950 . S
H485 C461 0.950 1_554 S
H486 C462 0.949 . S
H487 C464 0.950 . S
H488 C466 0.950 . S
C489 C490 1.349 . S
C489 C491 1.327 . S
C489 H514 0.950 . S
C490 C489 1.349 . S
C490 C506 1.349 . S
C491 C489 1.327 . S
C491 C510 1.429 1_554 S
C491 H515 0.950 . S
C492 C509 1.574 . S
C492 C511 1.368 . S
C492 H516 0.949 . S
H493 C497 0.949 . S
C494 C495 1.349 . S
C494 C496 1.327 . S
C494 H517 0.950 . S
C495 C494 1.349 . S
C495 C507 1.349 . S
C496 C494 1.327 . S
C496 C512 1.429 . S
C496 H518 0.950 . S
C497 H493 0.949 . S
C497 C505 1.574 . S
C497 C513 1.368 . S
H498 C506 0.950 . S
H499 C504 0.950 1_556 S
H500 C505 0.949 . S
H501 C507 0.950 . S
H502 C508 0.950 . S
H503 C509 0.949 . S
C504 H499 0.950 1_554 S
C504 C506 1.327 . S
C504 C510 1.429 1_554 S
C505 C497 1.574 . S
C505 H500 0.949 . S
C505 C511 1.368 . S
C506 C490 1.349 . S
C506 H498 0.950 . S
C506 C504 1.327 . S
C507 C495 1.349 . S
C507 H501 0.950 . S
C507 C508 1.327 . S
C508 H502 0.950 . S
C508 C507 1.327 . S
C508 C512 1.429 . S
C509 C492 1.574 . S
C509 H503 0.949 . S
C509 C513 1.368 . S
C510 C491 1.429 1_556 S
C510 C504 1.429 1_556 S
C510 C511 1.523 . S
C511 C492 1.368 . S
C511 C505 1.368 . S
C511 C510 1.523 . S
C512 C496 1.429 . S
C512 C508 1.429 . S
C512 C513 1.523 . S
C513 C497 1.368 . S
C513 C509 1.368 . S
C513 C512 1.523 . S
H514 C489 0.950 . S
H515 C491 0.950 . S
H516 C492 0.949 . S
H517 C494 0.950 . S
H518 C496 0.950 . S
C519 C520 1.349 . S
C519 C521 1.327 . S
C519 H544 0.950 . S
C520 C519 1.349 . S
C520 C536 1.349 . S
C521 C519 1.327 . S
C521 C540 1.429 . S
C521 H545 0.950 . S
C522 C539 1.574 . S
C522 C541 1.368 . S
C522 H546 0.949 . S
H523 C527 0.949 . S
C524 C525 1.349 . S
C524 C526 1.327 . S
C524 H547 0.950 . S
C525 C524 1.349 . S
C525 C537 1.349 . S
C526 C524 1.327 . S
C526 C542 1.429 . S
C526 H548 0.950 . S
C527 H523 0.949 . S
C527 C535 1.574 . S
C527 C543 1.368 . S
H528 C536 0.955 . S
H529 C534 0.950 . S
H530 C535 0.949 1_554 S
H531 C537 0.950 . S
H532 C538 0.950 . S
H533 C539 0.949 . S
C534 H529 0.950 . S
C534 C536 1.327 1_556 S
C534 C540 1.429 1_556 S
C535 C527 1.574 . S
C535 H530 0.949 1_556 S
C535 C541 1.368 . S
C536 C520 1.349 . S
C536 H528 0.955 . S
C536 C534 1.327 1_554 S
C537 C525 1.349 . S
C537 H531 0.950 . S
C537 C538 1.327 . S
C538 H532 0.950 . S
C538 C537 1.327 . S
C538 C542 1.429 . S
C539 C522 1.574 . S
C539 H533 0.949 . S
C539 C543 1.368 . S
C540 C521 1.429 . S
C540 C534 1.429 1_554 S
C540 C541 1.523 1_554 S
C541 C522 1.368 . S
C541 C535 1.368 . S
C541 C540 1.523 1_556 S
C542 C526 1.429 . S
C542 C538 1.429 . S
C542 C543 1.523 . S
C543 C527 1.368 . S
C543 C539 1.368 . S
C543 C542 1.523 . S
H544 C519 0.950 . S
H545 C521 0.950 . S
H546 C522 0.949 . S
H547 C524 0.950 . S
H548 C526 0.950 . S
C549 C550 1.349 . S
C549 C551 1.327 . S
C549 H574 0.950 . S
C550 C549 1.349 . S
C550 C566 1.349 . S
C551 C549 1.327 . S
C551 C570 1.429 . S
C551 H575 0.950 . S
C552 C569 1.574 . S
C552 C571 1.368 . S
C552 H576 0.949 . S
H553 C557 0.949 . S
C554 C555 1.349 . S
C554 C556 1.327 . S
C554 H577 0.950 . S
C555 C554 1.349 . S
C555 C567 1.349 . S
C556 C554 1.327 . S
C556 C572 1.429 . S
C556 H578 0.950 . S
C557 H553 0.949 . S
C557 C565 1.574 . S
C557 C573 1.368 . S
H558 C566 0.950 1_554 S
H559 C564 0.950 . S
H560 C565 0.949 . S
H561 C567 0.950 . S
H562 C568 0.950 . S
H563 C569 0.949 . S
C564 H559 0.950 . S
C564 C566 1.327 . S
C564 C570 1.429 . S
C565 C557 1.574 . S
C565 H560 0.949 . S
C565 C571 1.368 . S
C566 C550 1.349 . S
C566 H558 0.950 1_556 S
C566 C564 1.327 . S
C567 C555 1.349 . S
C567 H561 0.950 . S
C567 C568 1.327 . S
C568 H562 0.950 . S
C568 C567 1.327 . S
C568 C572 1.429 . S
C569 C552 1.574 . S
C569 H563 0.949 . S
C569 C573 1.368 . S
C570 C551 1.429 . S
C570 C564 1.429 . S
C570 C571 1.523 . S
C571 C552 1.368 . S
C571 C565 1.368 . S
C571 C570 1.523 . S
C572 C556 1.429 . S
C572 C568 1.429 . S
C572 C573 1.523 . S
C573 C557 1.368 . S
C573 C569 1.368 . S
C573 C572 1.523 . S
H574 C549 0.950 . S
H575 C551 0.950 . S
H576 C552 0.949 . S
H577 C554 0.950 . S
H578 C556 0.950 . S
C579 C580 1.349 . S
C579 C581 1.327 . S
C579 H604 0.950 . S
C580 C579 1.349 . S
C580 C596 1.349 . S
C581 C579 1.327 . S
C581 C600 1.429 . S
C581 H605 0.950 . S
C582 C599 1.574 . S
C582 C601 1.368 . S
C582 H606 0.949 . S
H583 C587 0.949 . S
C584 C585 1.349 . S
C584 C586 1.327 . S
C584 H607 0.950 . S
C585 C584 1.349 . S
C585 C597 1.349 . S
C586 C584 1.327 . S
C586 C602 1.429 . S
C586 H608 0.950 . S
C587 H583 0.949 . S
C587 C595 1.574 . S
C587 C603 1.368 . S
H588 C596 0.950 . S
H589 C594 0.950 . S
H590 C595 0.949 . S
H591 C597 0.950 . S
H592 C598 0.950 . S
H593 C599 0.949 . S
C594 H589 0.950 . S
C594 C596 1.327 . S
C594 C600 1.429 . S
C595 C587 1.574 . S
C595 H590 0.949 . S
C595 C601 1.368 . S
C596 C580 1.349 . S
C596 H588 0.950 . S
C596 C594 1.327 . S
C597 C585 1.349 . S
C597 H591 0.950 . S
C597 C598 1.327 . S
C598 H592 0.950 . S
C598 C597 1.327 . S
C598 C602 1.429 . S
C599 C582 1.574 . S
C599 H593 0.949 . S
C599 C603 1.368 . S
C600 C581 1.429 . S
C600 C594 1.429 . S
C600 C601 1.523 . S
C601 C582 1.368 . S
C601 C595 1.368 . S
C601 C600 1.523 . S
C602 C586 1.429 . S
C602 C598 1.429 . S
C602 C603 1.523 . S
C603 C587 1.368 . S
C603 C599 1.368 . S
C603 C602 1.523 . S
H604 C579 0.950 . S
H605 C581 0.950 . S
H606 C582 0.949 . S
H607 C584 0.950 . S
H608 C586 0.950 . S
C609 C610 1.349 . S
C609 C611 1.327 . S
C609 H634 0.950 . S
C610 C609 1.349 . S
C610 C626 1.349 1_554 S
C611 C609 1.327 . S
C611 C630 1.429 1_554 S
C611 H635 0.950 . S
C612 C629 1.574 . S
C612 C631 1.368 . S
C612 H636 0.949 . S
H613 C617 0.949 . S
C614 C615 1.349 . S
C614 C616 1.327 . S
C614 H637 0.950 . S
C615 C614 1.349 . S
C615 C627 1.349 . S
C616 C614 1.327 . S
C616 C632 1.429 . S
C616 H638 0.950 . S
C617 H613 0.949 . S
C617 C625 1.574 . S
C617 C633 1.368 . S
H618 C626 0.950 . S
H619 C624 0.950 . S
H620 C625 0.949 . S
H621 C627 0.950 . S
H622 C628 0.950 . S
H623 C629 0.949 . S
C624 H619 0.950 . S
C624 C626 1.327 . S
C624 C630 1.429 . S
C625 C617 1.574 . S
C625 H620 0.949 . S
C625 C631 1.368 . S
C626 C610 1.349 1_556 S
C626 H618 0.950 . S
C626 C624 1.327 . S
C627 C615 1.349 . S
C627 H621 0.950 . S
C627 C628 1.327 . S
C628 H622 0.950 . S
C628 C627 1.327 . S
C628 C632 1.429 . S
C629 C612 1.574 . S
C629 H623 0.949 . S
C629 C633 1.368 . S
C630 C611 1.429 1_556 S
C630 C624 1.429 . S
C630 C631 1.523 . S
C631 C612 1.368 . S
C631 C625 1.368 . S
C631 C630 1.523 . S
C632 C616 1.429 . S
C632 C628 1.429 . S
C632 C633 1.523 . S
C633 C617 1.368 . S
C633 C629 1.368 . S
C633 C632 1.523 . S
H634 C609 0.950 . S
H635 C611 0.950 . S
H636 C612 0.949 . S
H637 C614 0.950 . S
H638 C616 0.950 . S
C639 C640 1.349 . S
C639 C641 1.327 . S
C639 H664 0.950 . S
C640 C639 1.349 . S
C640 C656 1.349 . S
C641 C639 1.327 . S
C641 C660 1.429 1_554 S
C641 H665 0.950 . S
C642 C659 1.574 . S
C642 C661 1.368 . S
C642 H666 0.949 . S
H643 C647 0.949 . S
C644 C645 1.349 . S
C644 C646 1.327 . S
C644 H667 0.950 . S
C645 C644 1.349 . S
C645 C657 1.349 . S
C646 C644 1.327 . S
C646 C662 1.429 . S
C646 H668 0.950 . S
C647 H643 0.949 . S
C647 C655 1.574 . S
C647 C663 1.368 . S
H648 C656 0.950 . S
H649 C654 0.950 . S
H650 C655 0.949 . S
H651 C657 0.950 . S
H652 C658 0.950 . S
H653 C659 0.949 . S
C654 H649 0.950 . S
C654 C656 1.327 1_556 S
C654 C660 1.429 . S
C655 C647 1.574 . S
C655 H650 0.949 . S
C655 C661 1.368 . S
C656 C640 1.349 . S
C656 H648 0.950 . S
C656 C654 1.327 1_554 S
C657 C645 1.349 . S
C657 H651 0.950 . S
C657 C658 1.327 . S
C658 H652 0.950 . S
C658 C657 1.327 . S
C658 C662 1.429 . S
C659 C642 1.574 . S
C659 H653 0.949 . S
C659 C663 1.368 . S
C660 C641 1.429 1_556 S
C660 C654 1.429 . S
C660 C661 1.523 . S
C661 C642 1.368 . S
C661 C655 1.368 . S
C661 C660 1.523 . S
C662 C646 1.429 . S
C662 C658 1.429 . S
C662 C663 1.523 . S
C663 C647 1.368 . S
C663 C659 1.368 . S
C663 C662 1.523 . S
H664 C639 0.950 . S
H665 C641 0.950 . S
H666 C642 0.949 . S
H667 C644 0.950 . S
H668 C646 0.950 . S
C669 C670 1.349 . S
C669 C671 1.327 1_554 S
C669 H694 0.950 . S
C670 C669 1.349 . S
C670 C686 1.349 . S
C671 C669 1.327 1_556 S
C671 C690 1.428 1_556 S
C671 H695 0.950 . S
C672 C689 1.574 . S
C672 C691 1.368 . S
C672 H696 0.949 1_556 S
H673 C677 0.949 . S
C674 C675 1.349 . S
C674 C676 1.327 . S
C674 H697 0.950 . S
C675 C674 1.349 . S
C675 C687 1.349 . S
C676 C674 1.327 . S
C676 C692 1.429 . S
C676 H698 0.950 . S
C677 H673 0.949 . S
C677 C685 1.574 . S
C677 C693 1.368 . S
H678 C686 0.950 . S
H679 C684 0.950 . S
H680 C685 0.949 . S
H681 C687 0.950 . S
H682 C688 0.950 . S
H683 C689 0.949 . S
C684 H679 0.950 . S
C684 C686 1.327 . S
C684 C690 1.435 . S
C685 C677 1.574 . S
C685 H680 0.949 . S
C685 C691 1.368 . S
C686 C670 1.349 . S
C686 H678 0.950 . S
C686 C684 1.327 . S
C687 C675 1.349 . S
C687 H681 0.950 . S
C687 C688 1.327 . S
C688 H682 0.950 . S
C688 C687 1.327 . S
C688 C692 1.429 . S
C689 C672 1.574 . S
C689 H683 0.949 . S
C689 C693 1.368 . S
C690 C671 1.428 1_554 S
C690 C684 1.435 . S
C690 C691 1.517 1_554 S
C691 C672 1.368 . S
C691 C685 1.368 . S
C691 C690 1.517 1_556 S
C692 C676 1.429 . S
C692 C688 1.429 . S
C692 C693 1.523 . S
C693 C677 1.368 . S
C693 C689 1.368 . S
C693 C692 1.523 . S
H694 C669 0.950 . S
H695 C671 0.950 . S
H696 C672 0.949 1_554 S
H697 C674 0.950 . S
H698 C676 0.950 . S
C699 C700 1.349 1_554 S
C699 C701 1.327 1_554 S
C699 H724 0.950 . S
C700 C699 1.349 1_556 S
C700 C716 1.349 . S
C701 C699 1.327 1_556 S
C701 C720 1.429 . S
C701 H725 0.950 . S
C702 C719 1.574 . S
C702 C721 1.368 . S
C702 H726 0.949 . S
H703 C707 0.949 . S
C704 C705 1.349 . S
C704 C706 1.327 . S
C704 H727 0.950 . S
C705 C704 1.349 . S
C705 C717 1.349 . S
C706 C704 1.327 . S
C706 C722 1.429 . S
C706 H728 0.950 . S
C707 H703 0.949 . S
C707 C715 1.574 . S
C707 C723 1.368 . S
H708 C716 0.950 . S
H709 C714 0.950 . S
H710 C715 0.949 . S
H711 C717 0.950 . S
H712 C718 0.950 . S
H713 C719 0.949 . S
C714 H709 0.950 . S
C714 C716 1.327 . S
C714 C720 1.429 . S
C715 C707 1.574 . S
C715 H710 0.949 . S
C715 C721 1.368 . S
C716 C700 1.349 . S
C716 H708 0.950 . S
C716 C714 1.327 . S
C717 C705 1.349 . S
C717 H711 0.950 . S
C717 C718 1.327 . S
C718 H712 0.950 . S
C718 C717 1.327 . S
C718 C722 1.429 . S
C719 C702 1.574 . S
C719 H713 0.949 . S
C719 C723 1.368 . S
C720 C701 1.429 . S
C720 C714 1.429 . S
C720 C721 1.523 . S
C721 C702 1.368 . S
C721 C715 1.368 . S
C721 C720 1.523 . S
C722 C706 1.429 . S
C722 C718 1.429 . S
C722 C723 1.523 . S
C723 C707 1.368 . S
C723 C719 1.368 . S
C723 C722 1.523 . S
H724 C699 0.950 . S
H725 C701 0.950 . S
H726 C702 0.949 . S
H727 C704 0.950 . S
H728 C706 0.950 . S
C729 C730 1.349 . S
C729 C731 1.327 . S
C729 H754 0.950 . S
C730 C729 1.349 . S
C730 C746 1.349 . S
C731 C729 1.327 . S
C731 C750 1.429 . S
C731 H755 0.950 . S
C732 C749 1.574 . S
C732 C751 1.368 . S
C732 H756 0.949 . S
H733 C737 0.949 . S
C734 C735 1.349 . S
C734 C736 1.327 . S
C734 H757 0.950 . S
C735 C734 1.349 . S
C735 C747 1.349 . S
C736 C734 1.327 . S
C736 C752 1.429 . S
C736 H758 0.950 . S
C737 H733 0.949 . S
C737 C745 1.574 . S
C737 C753 1.368 . S
H738 C746 0.950 . S
H739 C744 0.950 . S
H740 C745 0.949 . S
H741 C747 0.950 . S
H742 C748 0.950 . S
H743 C749 0.949 . S
C744 H739 0.950 . S
C744 C746 1.327 . S
C744 C750 1.429 . S
C745 C737 1.574 . S
C745 H740 0.949 . S
C745 C751 1.368 . S
C746 C730 1.349 . S
C746 H738 0.950 . S
C746 C744 1.327 . S
C747 C735 1.349 . S
C747 H741 0.950 . S
C747 C748 1.327 . S
C748 H742 0.950 . S
C748 C747 1.327 . S
C748 C752 1.429 . S
C749 C732 1.574 . S
C749 H743 0.949 . S
C749 C753 1.368 . S
C750 C731 1.429 . S
C750 C744 1.429 . S
C750 C751 1.523 . S
C751 C732 1.368 . S
C751 C745 1.368 . S
C751 C750 1.523 . S
C752 C736 1.429 . S
C752 C748 1.429 . S
C752 C753 1.523 . S
C753 C737 1.368 . S
C753 C749 1.368 . S
C753 C752 1.523 . S
H754 C729 0.950 . S
H755 C731 0.950 . S
H756 C732 0.949 . S
H757 C734 0.950 . S
H758 C736 0.950 . S
C759 C760 1.349 . S
C759 C761 1.327 . S
C759 H784 0.950 . S
C760 C759 1.349 . S
C760 C776 1.349 . S
C761 C759 1.327 . S
C761 C780 1.429 . S
C761 H785 0.950 . S
C762 C779 1.574 . S
C762 C781 1.368 . S
C762 H786 0.949 . S
H763 C767 0.949 . S
C764 C765 1.349 . S
C764 C766 1.327 . S
C764 H787 0.950 . S
C765 C764 1.349 . S
C765 C777 1.349 . S
C766 C764 1.327 . S
C766 C782 1.429 . S
C766 H788 0.950 . S
C767 H763 0.949 . S
C767 C775 1.574 . S
C767 C783 1.368 . S
H768 C776 0.950 . S
H769 C774 0.950 . S
H770 C775 0.949 . S
H771 C777 0.950 . S
H772 C778 0.950 . S
H773 C779 0.949 . S
C774 H769 0.950 . S
C774 C776 1.327 . S
C774 C780 1.429 . S
C775 C767 1.574 . S
C775 H770 0.949 . S
C775 C781 1.368 . S
C776 C760 1.349 . S
C776 H768 0.950 . S
C776 C774 1.327 . S
C777 C765 1.349 . S
C777 H771 0.950 . S
C777 C778 1.327 . S
C778 H772 0.950 . S
C778 C777 1.327 . S
C778 C782 1.429 . S
C779 C762 1.574 . S
C779 H773 0.949 . S
C779 C783 1.368 . S
C780 C761 1.429 . S
C780 C774 1.429 . S
C780 C781 1.523 . S
C781 C762 1.368 . S
C781 C775 1.368 . S
C781 C780 1.523 . S
C782 C766 1.429 . S
C782 C778 1.429 . S
C782 C783 1.523 . S
C783 C767 1.368 . S
C783 C779 1.368 . S
C783 C782 1.523 . S
H784 C759 0.950 . S
H785 C761 0.950 . S
H786 C762 0.949 . S
H787 C764 0.950 . S
H788 C766 0.950 . S
C789 C790 1.349 . S
C789 C791 1.327 . S
C789 H814 0.950 . S
C790 C789 1.349 . S
C790 C806 1.349 . S
C791 C789 1.327 . S
C791 C810 1.429 . S
C791 H815 0.950 . S
C792 C809 1.574 . S
C792 C811 1.368 . S
C792 H816 0.949 . S
H793 C797 0.949 . S
C794 C795 1.349 . S
C794 C796 1.327 . S
C794 H817 0.950 . S
C795 C794 1.349 . S
C795 C807 1.349 . S
C796 C794 1.327 . S
C796 C812 1.429 . S
C796 H818 0.950 . S
C797 H793 0.949 . S
C797 C805 1.574 . S
C797 C813 1.368 . S
H798 C806 0.950 . S
H799 C804 0.950 . S
H800 C805 0.949 . S
H801 C807 0.950 . S
H802 C808 0.950 . S
H803 C809 0.949 . S
C804 H799 0.950 . S
C804 C806 1.327 . S
C804 C810 1.429 . S
C805 C797 1.574 . S
C805 H800 0.949 . S
C805 C811 1.368 . S
C806 C790 1.349 . S
C806 H798 0.950 . S
C806 C804 1.327 . S
C807 C795 1.349 . S
C807 H801 0.950 . S
C807 C808 1.327 . S
C808 H802 0.950 . S
C808 C807 1.327 . S
C808 C812 1.429 . S
C809 C792 1.574 . S
C809 H803 0.949 . S
C809 C813 1.368 . S
C810 C791 1.429 . S
C810 C804 1.429 . S
C810 C811 1.523 . S
C811 C792 1.368 . S
C811 C805 1.368 . S
C811 C810 1.523 . S
C812 C796 1.429 . S
C812 C808 1.429 . S
C812 C813 1.523 . S
C813 C797 1.368 . S
C813 C809 1.368 . S
C813 C812 1.523 . S
H814 C789 0.950 . S
H815 C791 0.950 . S
H816 C792 0.949 . S
H817 C794 0.950 . S
H818 C796 0.950 . S
C819 C820 1.349 . S
C819 C821 1.327 . S
C819 H844 0.950 . S
C820 C819 1.349 . S
C820 C836 1.349 . S
C821 C819 1.327 . S
C821 C840 1.429 . S
C821 H845 0.950 . S
C822 C839 1.574 . S
C822 C841 1.368 . S
C822 H846 0.949 . S
H823 C827 0.949 . S
C824 C825 1.349 . S
C824 C826 1.327 . S
C824 H847 0.950 . S
C825 C824 1.349 . S
C825 C837 1.349 . S
C826 C824 1.327 . S
C826 C842 1.429 . S
C826 H848 0.950 . S
C827 H823 0.949 . S
C827 C835 1.574 . S
C827 C843 1.368 . S
H828 C836 0.950 . S
H829 C834 0.950 . S
H830 C835 0.949 . S
H831 C837 0.950 . S
H832 C838 0.950 . S
H833 C839 0.949 . S
C834 H829 0.950 . S
C834 C836 1.327 . S
C834 C840 1.429 . S
C835 C827 1.574 . S
C835 H830 0.949 . S
C835 C841 1.368 . S
C836 C820 1.349 . S
C836 H828 0.950 . S
C836 C834 1.327 . S
C837 C825 1.349 . S
C837 H831 0.950 . S
C837 C838 1.327 . S
C838 H832 0.950 . S
C838 C837 1.327 . S
C838 C842 1.429 . S
C839 C822 1.574 . S
C839 H833 0.949 . S
C839 C843 1.368 . S
C840 C821 1.429 . S
C840 C834 1.429 . S
C840 C841 1.523 . S
C841 C822 1.368 . S
C841 C835 1.368 . S
C841 C840 1.523 . S
C842 C826 1.429 . S
C842 C838 1.429 . S
C842 C843 1.523 . S
C843 C827 1.368 . S
C843 C839 1.368 . S
C843 C842 1.523 . S
H844 C819 0.950 . S
H845 C821 0.950 . S
H846 C822 0.949 . S
H847 C824 0.950 . S
H848 C826 0.950 . S
C849 C850 1.349 . S
C849 C851 1.327 . S
C849 H874 0.950 . S
C850 C849 1.349 . S
C850 C866 1.349 . S
C851 C849 1.327 . S
C851 C870 1.429 . S
C851 H875 0.950 . S
C852 C869 1.574 . S
C852 C871 1.368 . S
C852 H876 0.949 . S
H853 C857 0.949 . S
C854 C855 1.349 . S
C854 C856 1.327 . S
C854 H877 0.950 . S
C855 C854 1.349 . S
C855 C867 1.349 . S
C856 C854 1.327 . S
C856 C872 1.429 . S
C856 H878 0.950 . S
C857 H853 0.949 . S
C857 C865 1.574 . S
C857 C873 1.368 . S
H858 C866 0.950 . S
H859 C864 0.950 . S
H860 C865 0.949 . S
H861 C867 0.950 . S
H862 C868 0.950 . S
H863 C869 0.949 . S
C864 H859 0.950 . S
C864 C866 1.327 . S
C864 C870 1.429 . S
C865 C857 1.574 . S
C865 H860 0.949 . S
C865 C871 1.368 . S
C866 C850 1.349 . S
C866 H858 0.950 . S
C866 C864 1.327 . S
C867 C855 1.349 . S
C867 H861 0.950 . S
C867 C868 1.327 . S
C868 H862 0.950 . S
C868 C867 1.327 . S
C868 C872 1.429 . S
C869 C852 1.574 . S
C869 H863 0.949 . S
C869 C873 1.368 . S
C870 C851 1.429 . S
C870 C864 1.429 . S
C870 C871 1.523 . S
C871 C852 1.368 . S
C871 C865 1.368 . S
C871 C870 1.523 . S
C872 C856 1.429 . S
C872 C868 1.429 . S
C872 C873 1.523 . S
C873 C857 1.368 . S
C873 C869 1.368 . S
C873 C872 1.523 . S
H874 C849 0.950 . S
H875 C851 0.950 . S
H876 C852 0.949 . S
H877 C854 0.950 . S
H878 C856 0.950 . S
C879 C880 1.349 . S
C879 C881 1.327 . S
C879 H904 0.950 . S
C880 C879 1.349 . S
C880 C896 1.349 . S
C881 C879 1.327 . S
C881 C900 1.429 . S
C881 H905 0.950 . S
C882 C899 1.574 . S
C882 C901 1.368 . S
C882 H906 0.949 . S
H883 C887 0.949 . S
C884 C885 1.349 . S
C884 C886 1.327 . S
C884 H907 0.950 . S
C885 C884 1.349 . S
C885 C897 1.349 . S
C886 C884 1.327 . S
C886 C902 1.429 . S
C886 H908 0.950 . S
C887 H883 0.949 . S
C887 C895 1.574 . S
C887 C903 1.368 . S
H888 C896 0.950 . S
H889 C894 0.950 . S
H890 C895 0.949 . S
H891 C897 0.950 . S
H892 C898 0.950 . S
H893 C899 0.949 . S
C894 H889 0.950 . S
C894 C896 1.327 . S
C894 C900 1.429 . S
C895 C887 1.574 . S
C895 H890 0.949 . S
C895 C901 1.368 . S
C896 C880 1.349 . S
C896 H888 0.950 . S
C896 C894 1.327 . S
C897 C885 1.349 . S
C897 H891 0.950 . S
C897 C898 1.327 . S
C898 H892 0.950 . S
C898 C897 1.327 . S
C898 C902 1.429 . S
C899 C882 1.574 . S
C899 H893 0.949 . S
C899 C903 1.368 . S
C900 C881 1.429 . S
C900 C894 1.429 . S
C900 C901 1.523 . S
C901 C882 1.368 . S
C901 C895 1.368 . S
C901 C900 1.523 . S
C902 C886 1.429 . S
C902 C898 1.429 . S
C902 C903 1.523 . S
C903 C887 1.368 . S
C903 C899 1.368 . S
C903 C902 1.523 . S
H904 C879 0.950 . S
H905 C881 0.950 . S
H906 C882 0.949 . S
H907 C884 0.950 . S
H908 C886 0.950 . S
C909 C910 1.349 . S
C909 C911 1.327 . S
C909 H934 0.950 . S
C910 C909 1.349 . S
C910 C926 1.349 . S
C911 C909 1.327 . S
C911 C930 1.429 . S
C911 H935 0.950 . S
C912 C929 1.574 . S
C912 C931 1.368 . S
C912 H936 0.949 . S
H913 C917 0.949 . S
C914 C915 1.349 . S
C914 C916 1.327 . S
C914 H937 0.950 . S
C915 C914 1.349 . S
C915 C927 1.349 . S
C916 C914 1.327 . S
C916 C932 1.429 . S
C916 H938 0.950 . S
C917 H913 0.949 . S
C917 C925 1.574 . S
C917 C933 1.368 . S
H918 C926 0.950 . S
H919 C924 0.950 . S
H920 C925 0.949 . S
H921 C927 0.950 . S
H922 C928 0.950 . S
H923 C929 0.949 . S
C924 H919 0.950 . S
C924 C926 1.327 . S
C924 C930 1.429 . S
C925 C917 1.574 . S
C925 H920 0.949 . S
C925 C931 1.368 . S
C926 C910 1.349 . S
C926 H918 0.950 . S
C926 C924 1.327 . S
C927 C915 1.349 . S
C927 H921 0.950 . S
C927 C928 1.327 . S
C928 H922 0.950 . S
C928 C927 1.327 . S
C928 C932 1.429 . S
C929 C912 1.574 . S
C929 H923 0.949 . S
C929 C933 1.368 . S
C930 C911 1.429 . S
C930 C924 1.429 . S
C930 C931 1.523 . S
C931 C912 1.368 . S
C931 C925 1.368 . S
C931 C930 1.523 . S
C932 C916 1.429 . S
C932 C928 1.429 . S
C932 C933 1.523 . S
C933 C917 1.368 . S
C933 C929 1.368 . S
C933 C932 1.523 . S
H934 C909 0.950 . S
H935 C911 0.950 . S
H936 C912 0.949 . S
H937 C914 0.950 . S
H938 C916 0.950 . S
C220 C12 1.634 . S
C225 C126 1.735 . S
C250 C40 1.572 . S
C255 C158 1.601 . S
C285 C217 1.983 . S
C280 C61 1.985 . S
C315 C146 1.472 . S
C310 C82 1.470 . S
C340 C96 1.532 . S
C345 C176 1.601 . S
C375 C198 1.224 . S
C370 C117 1.118 . S
C405 C167 1.718 . S
C400 C51 1.680 . S
C430 C72 1.263 . S
C435 C207 1.262 . S
C465 C156 1.587 . S
C460 C101 1.493 . S
C490 C122 1.491 . S
C495 C186 1.564 . S
C520 C17 1.845 . S
C525 C189 1.928 . S
C555 C128 1.682 . S
C550 C30 1.645 1_556 S
C585 C136 1.657 . S
C580 C80 1.620 . S
C615 C177 1.579 . S
C610 C93 1.501 . S
C645 C190 1.997 . S
C640 C114 1.942 . S
C675 C127 1.496 . S
C670 C9 1.447 . S
C705 C187 1.544 . S
C700 C38 1.535 1_556 S
C730 C59 1.189 . S
C735 C188 1.209 . S
C765 C157 1.632 . S
C760 C124 1.584 . S
C795 C218 1.198 . S
C790 C19 1.143 . S
C825 C145 1.538 . S
C820 C33 1.549 . S
C855 C159 1.587 . S
C850 C54 1.561 . S
C880 C75 1.882 . S
C885 C208 1.905 . S
C910 C103 1.597 . S
C915 C155 1.663 . S
