# Generated by pormake.
# Topology ctn, (3,4)-cn, num edge types: 1
# Building blocks:
#     Node 0, Type 0, BuildingBlock: ESEHIV_clean_linker_0, # of connection points: 3
#     Node 1, Type 0, BuildingBlock: ESEHIV_clean_linker_0, # of connection points: 3
#     Node 2, Type 0, BuildingBlock: ESEHIV_clean_linker_0, # of connection points: 3
#     Node 3, Type 0, BuildingBlock: ESEHIV_clean_linker_0, # of connection points: 3
#     Node 4, Type 0, BuildingBlock: ESEHIV_clean_linker_0, # of connection points: 3
#     Node 5, Type 0, BuildingBlock: ESEHIV_clean_linker_0, # of connection points: 3
#     Node 6, Type 0, BuildingBlock: ESEHIV_clean_linker_0, # of connection points: 3
#     Node 7, Type 0, BuildingBlock: ESEHIV_clean_linker_0, # of connection points: 3
#     Node 8, Type 0, BuildingBlock: ESEHIV_clean_linker_0, # of connection points: 3
#     Node 9, Type 0, BuildingBlock: ESEHIV_clean_linker_0, # of connection points: 3
#     Node 10, Type 0, BuildingBlock: ESEHIV_clean_linker_0, # of connection points: 3
#     Node 11, Type 0, BuildingBlock: ESEHIV_clean_linker_0, # of connection points: 3
#     Node 12, Type 0, BuildingBlock: ESEHIV_clean_linker_0, # of connection points: 3
#     Node 13, Type 0, BuildingBlock: ESEHIV_clean_linker_0, # of connection points: 3
#     Node 14, Type 0, BuildingBlock: ESEHIV_clean_linker_0, # of connection points: 3
#     Node 15, Type 0, BuildingBlock: ESEHIV_clean_linker_0, # of connection points: 3
#     Node 16, Type 1, BuildingBlock: NAHDIM_clean_sbu_0, # of connection points: 4
#     Node 17, Type 1, BuildingBlock: NAHDIM_clean_sbu_0, # of connection points: 4
#     Node 18, Type 1, BuildingBlock: NAHDIM_clean_sbu_0, # of connection points: 4
#     Node 19, Type 1, BuildingBlock: NAHDIM_clean_sbu_0, # of connection points: 4
#     Node 20, Type 1, BuildingBlock: NAHDIM_clean_sbu_0, # of connection points: 4
#     Node 21, Type 1, BuildingBlock: NAHDIM_clean_sbu_0, # of connection points: 4
#     Node 22, Type 1, BuildingBlock: NAHDIM_clean_sbu_0, # of connection points: 4
#     Node 23, Type 1, BuildingBlock: NAHDIM_clean_sbu_0, # of connection points: 4
#     Node 24, Type 1, BuildingBlock: NAHDIM_clean_sbu_0, # of connection points: 4
#     Node 25, Type 1, BuildingBlock: NAHDIM_clean_sbu_0, # of connection points: 4
#     Node 26, Type 1, BuildingBlock: NAHDIM_clean_sbu_0, # of connection points: 4
#     Node 27, Type 1, BuildingBlock: NAHDIM_clean_sbu_0, # of connection points: 4
#     Edge 28, Type (0, 1), None
#     Edge 29, Type (0, 1), None
#     Edge 30, Type (0, 1), None
#     Edge 31, Type (0, 1), None
#     Edge 32, Type (0, 1), None
#     Edge 33, Type (0, 1), None
#     Edge 34, Type (0, 1), None
#     Edge 35, Type (0, 1), None
#     Edge 36, Type (0, 1), None
#     Edge 37, Type (0, 1), None
#     Edge 38, Type (0, 1), None
#     Edge 39, Type (0, 1), None
#     Edge 40, Type (0, 1), None
#     Edge 41, Type (0, 1), None
#     Edge 42, Type (0, 1), None
#     Edge 43, Type (0, 1), None
#     Edge 44, Type (0, 1), None
#     Edge 45, Type (0, 1), None
#     Edge 46, Type (0, 1), None
#     Edge 47, Type (0, 1), None
#     Edge 48, Type (0, 1), None
#     Edge 49, Type (0, 1), None
#     Edge 50, Type (0, 1), None
#     Edge 51, Type (0, 1), None
#     Edge 52, Type (0, 1), None
#     Edge 53, Type (0, 1), None
#     Edge 54, Type (0, 1), None
#     Edge 55, Type (0, 1), None
#     Edge 56, Type (0, 1), None
#     Edge 57, Type (0, 1), None
#     Edge 58, Type (0, 1), None
#     Edge 59, Type (0, 1), None
#     Edge 60, Type (0, 1), None
#     Edge 61, Type (0, 1), None
#     Edge 62, Type (0, 1), None
#     Edge 63, Type (0, 1), None
#     Edge 64, Type (0, 1), None
#     Edge 65, Type (0, 1), None
#     Edge 66, Type (0, 1), None
#     Edge 67, Type (0, 1), None
#     Edge 68, Type (0, 1), None
#     Edge 69, Type (0, 1), None
#     Edge 70, Type (0, 1), None
#     Edge 71, Type (0, 1), None
#     Edge 72, Type (0, 1), None
#     Edge 73, Type (0, 1), None
#     Edge 74, Type (0, 1), None
#     Edge 75, Type (0, 1), None
# Relax obj value: 0.003
# Max RMSD: 0.028
# Mean RMSD: 0.020
data_MOF--net-ctn--node1-NAHDIM_clean_sbu_0--node2-ESEHIV_clean_linker_0--edge1-none
_symmetry_space_group_name_H-M    P1
_symmetry_Int_Tables_number       1
_symmetry_cell_setting            triclinic
loop_
_symmetry_equiv_pos_as_xyz
'x, y, z'
_cell_length_a     20.453965
_cell_length_b     21.128591
_cell_length_c     20.860017
_cell_angle_alpha  91.876464
_cell_angle_beta   89.708702
_cell_angle_gamma 95.087603
loop_
_atom_site_label
_atom_site_type_symbol
_atom_site_fract_x
_atom_site_fract_y
_atom_site_fract_z
_atom_type_partial_charge
H0 H 0.94318 0.11257 0.06796 0.0
H1 H 0.07037 0.96806 0.11032 0.0
H2 H 0.10794 0.0818 0.94495 0.0
C3 C 0.98534 0.08686 0.05589 0.0
C4 C 0.0234 0.1031 0.00148 0.0
C5 C 1.00222 0.03841 0.09559 0.0
C6 C 0.05719 0.00559 0.07999 0.0
C7 C 0.09555 0.02071 0.02583 0.0
C8 C 0.07841 0.06966 0.98679 0.0
H9 H 0.3372 0.63246 0.27571 0.0
H10 H 0.34835 0.81467 0.18688 0.0
H11 H 0.20089 0.66736 0.12737 0.0
C12 C 0.31931 0.66414 0.24132 0.0
C13 C 0.26547 0.64279 0.20192 0.0
C14 C 0.35016 0.72627 0.23572 0.0
C15 C 0.32527 0.76683 0.1914 0.0
C16 C 0.27142 0.74601 0.15218 0.0
C17 C 0.24244 0.68383 0.15745 0.0
H18 H 0.95456 0.53802 0.10809 0.0
H19 H 0.08144 0.38736 0.07839 0.0
H20 H 0.9291 0.41166 0.94256 0.0
C21 C 0.9695 0.4979 0.0797 0.0
C22 C 0.93549 0.47894 0.02267 0.0
C23 C 0.02231 0.46501 0.10047 0.0
C24 C 0.04101 0.41297 0.06296 0.0
C25 C 0.0075 0.39336 0.00599 0.0
C26 C 0.95492 0.42657 0.98648 0.0
H27 H 0.67591 0.68812 0.16106 0.0
H28 H 0.8536 0.81164 0.14907 0.0
H29 H 0.70533 0.85453 0.28663 0.0
C30 C 0.70563 0.73052 0.17742 0.0
C31 C 0.68287 0.76868 0.22792 0.0
C32 C 0.76705 0.74574 0.14863 0.0
C33 C 0.80608 0.79961 0.17091 0.0
C34 C 0.78391 0.83935 0.21992 0.0
C35 C 0.72197 0.82422 0.24809 0.0
H36 H 0.9272 0.90461 0.45783 0.0
H37 H 0.04969 0.05743 0.37771 0.0
H38 H 0.12424 0.94839 0.52773 0.0
C39 C 0.97375 0.93343 0.45692 0.0
C40 C 0.02466 0.92027 0.49761 0.0
C41 C 0.9828 0.98204 0.4133 0.0
C42 C 0.04308 0.01924 0.41125 0.0
C43 C 0.09433 0.0081 0.45292 0.0
C44 C 0.08499 0.95783 0.49566 0.0
H45 H 0.1625 0.82571 0.84419 0.0
H46 H 0.30614 0.69173 0.87122 0.0
H47 H 0.187 0.67863 0.70155 0.0
C48 C 0.18703 0.78479 0.82761 0.0
C49 C 0.16907 0.75487 0.76876 0.0
C50 C 0.23653 0.76237 0.86496 0.0
C51 C 0.26784 0.70922 0.84272 0.0
C52 C 0.25002 0.67883 0.78357 0.0
C53 C 0.20075 0.70199 0.74714 0.0
H54 H 0.88308 0.56367 0.53595 0.0
H55 H 0.06675 0.63813 0.45578 0.0
H56 H 0.97164 0.4604 0.38272 0.0
C57 C 0.92254 0.5597 0.50158 0.0
C58 C 0.92117 0.50665 0.4594 0.0
C59 C 0.9747 0.60713 0.50095 0.0
C60 C 0.02599 0.60172 0.45635 0.0
C61 C 0.02538 0.54884 0.41335 0.0
C62 C 0.97256 0.50151 0.41526 0.0
H63 H 0.72308 0.80649 0.86104 0.0
H64 H 0.85113 0.83913 0.69918 0.0
H65 H 0.8813 0.68808 0.82614 0.0
C66 C 0.76461 0.79387 0.8324 0.0
C67 C 0.79967 0.74262 0.85013 0.0
C68 C 0.78259 0.82879 0.77771 0.0
C69 C 0.83656 0.81211 0.74097 0.0
C70 C 0.87273 0.76174 0.75811 0.0
C71 C 0.85359 0.7269 0.8125 0.0
H72 H 0.22308 0.30649 0.36104 0.0
H73 H 0.35113 0.33913 0.19918 0.0
H74 H 0.3813 0.18808 0.32614 0.0
C75 C 0.26461 0.29387 0.3324 0.0
C76 C 0.29967 0.24262 0.35013 0.0
C77 C 0.28259 0.32879 0.27771 0.0
C78 C 0.33656 0.31212 0.24097 0.0
C79 C 0.37273 0.26175 0.25811 0.0
C80 C 0.35359 0.2269 0.3125 0.0
H81 H 0.45456 0.03802 0.60809 0.0
H82 H 0.58144 0.88736 0.57839 0.0
H83 H 0.4291 0.91166 0.44256 0.0
C84 C 0.4695 -0.0021 0.5797 0.0
C85 C 0.43549 0.97894 0.52267 0.0
C86 C 0.52231 0.96501 0.60047 0.0
C87 C 0.54101 0.91297 0.56296 0.0
C88 C 0.5075 0.89336 0.50599 0.0
C89 C 0.45492 0.92657 0.48648 0.0
H90 H 0.17591 0.18812 0.66106 0.0
H91 H 0.3536 0.31164 0.64907 0.0
H92 H 0.20533 0.35453 0.78663 0.0
C93 C 0.20563 0.23052 0.67742 0.0
C94 C 0.18287 0.26868 0.72792 0.0
C95 C 0.26705 0.24574 0.64863 0.0
C96 C 0.30608 0.29961 0.67092 0.0
C97 C 0.28391 0.33935 0.71992 0.0
C98 C 0.22197 0.32422 0.74809 0.0
H99 H 0.8372 0.13246 0.77571 0.0
H100 H 0.84835 0.31467 0.68688 0.0
H101 H 0.70089 0.16736 0.62737 0.0
C102 C 0.81931 0.16414 0.74131 0.0
C103 C 0.76547 0.14279 0.70192 0.0
C104 C 0.85016 0.22627 0.73572 0.0
C105 C 0.82527 0.26683 0.6914 0.0
C106 C 0.77142 0.24601 0.65218 0.0
C107 C 0.74244 0.18383 0.65745 0.0
H108 H 0.44318 0.61257 0.56796 0.0
H109 H 0.57037 0.46806 0.61032 0.0
H110 H 0.60794 0.5818 0.44495 0.0
C111 C 0.48534 0.58686 0.55589 0.0
C112 C 0.5234 0.6031 0.50148 0.0
C113 C 0.50222 0.53841 0.59559 0.0
C114 C 0.55719 0.50559 0.57999 0.0
C115 C 0.59555 0.52071 0.52583 0.0
C116 C 0.57841 0.56966 0.48679 0.0
H117 H 0.4272 0.40461 0.95783 0.0
H118 H 0.54969 0.55743 0.87771 0.0
H119 H 0.62424 0.44839 0.02773 0.0
C120 C 0.47375 0.43343 0.95692 0.0
C121 C 0.52466 0.42027 -0.00239 0.0
C122 C 0.4828 0.48204 0.9133 0.0
C123 C 0.54308 0.51924 0.91125 0.0
C124 C 0.59433 0.5081 0.95292 0.0
C125 C 0.58499 0.45783 -0.00434 0.0
H126 H 0.6625 0.32572 0.34419 0.0
H127 H 0.80615 0.19173 0.37122 0.0
H128 H 0.687 0.17863 0.20155 0.0
C129 C 0.68703 0.28479 0.32761 0.0
C130 C 0.66907 0.25487 0.26875 0.0
C131 C 0.73653 0.26237 0.36496 0.0
C132 C 0.76784 0.20922 0.34272 0.0
C133 C 0.75003 0.17884 0.28357 0.0
C134 C 0.70075 0.20199 0.24714 0.0
H135 H 0.38308 0.06367 0.03595 0.0
H136 H 0.56676 0.13813 0.95578 0.0
H137 H 0.47164 0.9604 0.88272 0.0
C138 C 0.42254 0.0597 0.00159 0.0
C139 C 0.42117 0.00665 0.9594 0.0
C140 C 0.47471 0.10712 0.00096 0.0
C141 C 0.52599 0.10172 0.95636 0.0
C142 C 0.52538 0.04884 0.91335 0.0
C143 C 0.47256 0.00151 0.91526 0.0
C144 C 0.15343 0.98542 0.01056 0.0
O145 O 0.18775 -0.00299 0.95816 0.0
O146 O 0.22708 0.84398 0.94452 0.0
Zn147 Zn 0.2489 0.89654 0.02406 0.0
O148 O 0.32346 0.96077 0.00699 0.0
C149 C 0.24621 0.78833 0.10466 0.0
O150 O 0.1946 0.76918 0.06955 0.0
O151 O 0.17049 0.94332 0.04784 0.0
C152 C 0.36679 0.95624 0.96365 0.0
O153 O 0.36397 0.90593 0.92479 0.0
C154 C 0.25553 0.79541 0.92637 0.0
O155 O 0.30291 0.77656 0.9614 0.0
O156 O 0.27615 0.84239 0.095 0.0
C157 C 0.24606 0.38306 0.2588 0.0
O158 O 0.26192 0.41327 0.20609 0.0
O159 O 0.08145 0.49183 0.33235 0.0
Zn160 Zn 0.15138 0.47644 0.26614 0.0
O161 O 0.21572 0.55581 0.26061 0.0
C162 C 0.0571 0.48426 0.16159 0.0
O163 O 0.03838 0.53175 0.19736 0.0
O164 O 0.19949 0.40155 0.29323 0.0
C165 C 0.23121 0.57846 0.20638 0.0
O166 O 0.20719 0.54881 0.15421 0.0
C167 C 0.0799 0.5423 0.36714 0.0
O168 O 0.12691 0.58836 0.36159 0.0
O169 O 0.10459 0.45444 0.18065 0.0
C170 C 0.8793 0.51265 0.0005 0.0
O171 O 0.84656 0.4921 0.94875 0.0
O172 O 0.80571 0.65493 0.9201 0.0
Zn173 Zn 0.78239 0.6035 -3e-05 0.0
O174 O 0.70561 0.53737 0.98481 0.0
C175 C 0.79065 0.70535 0.09563 0.0
O176 O 0.85062 0.71572 0.07307 0.0
O177 O 0.8614 0.56117 0.03116 0.0
C178 C 0.65568 0.55106 0.95379 0.0
O179 O 0.65707 0.60658 0.92708 0.0
C180 C 0.78055 0.70645 0.90837 0.0
O181 O 0.7373 0.72755 0.94868 0.0
O182 O 0.75282 0.66033 0.07109 0.0
C183 C 0.78272 0.12338 0.25907 0.0
O184 O 0.7662 0.09575 0.20341 0.0
O185 O 0.94308 0.01588 0.315 0.0
Zn186 Zn 0.87101 0.02849 0.25466 0.0
O187 O 0.80532 0.95031 0.24557 0.0
C188 C 0.96443 0.02276 0.15452 0.0
O189 O 0.98549 0.98193 0.19399 0.0
O190 O 0.82773 0.1021 0.2912 0.0
C191 C 0.82716 0.89593 0.24049 0.0
O192 O 0.89076 0.89195 0.24343 0.0
C193 C 0.92955 0.99256 0.369 0.0
O194 O 0.86811 0.97515 0.38347 0.0
O195 O 0.91306 0.04985 0.16924 0.0
C196 C 0.3793 0.01265 0.5005 0.0
O197 O 0.34656 0.9921 0.44875 0.0
O198 O 0.30571 0.15493 0.4201 0.0
Zn199 Zn 0.28239 0.1035 0.49997 0.0
O200 O 0.20561 0.03737 0.48481 0.0
C201 C 0.29065 0.20535 0.59563 0.0
O202 O 0.35062 0.21572 0.57307 0.0
O203 O 0.3614 0.06117 0.53116 0.0
C204 C 0.15568 0.05106 0.45379 0.0
O205 O 0.15707 0.10658 0.42708 0.0
C206 C 0.28055 0.20645 0.40837 0.0
O207 O 0.2373 0.22755 0.44868 0.0
O208 O 0.25282 0.16033 0.57109 0.0
C209 C 0.28271 0.62338 0.75908 0.0
O210 O 0.26619 0.59575 0.70341 0.0
O211 O 0.44308 0.51588 0.815 0.0
Zn212 Zn 0.37101 0.52849 0.75466 0.0
O213 O 0.30532 0.45031 0.74557 0.0
C214 C 0.46443 0.52276 0.65452 0.0
O215 O 0.48549 0.48193 0.69399 0.0
O216 O 0.32773 0.6021 0.7912 0.0
C217 C 0.32716 0.39593 0.74049 0.0
O218 O 0.39075 0.39195 0.74343 0.0
C219 C 0.42955 0.49256 0.869 0.0
O220 O 0.36811 0.47516 0.88348 0.0
O221 O 0.41306 0.54985 0.66924 0.0
C222 C 0.65343 0.48542 0.51056 0.0
O223 O 0.68775 0.49701 0.45816 0.0
O224 O 0.72708 0.34398 0.44452 0.0
Zn225 Zn 0.7489 0.39654 0.52406 0.0
O226 O 0.82346 0.46077 0.50699 0.0
C227 C 0.74621 0.28833 0.60466 0.0
O228 O 0.6946 0.26918 0.56955 0.0
O229 O 0.67049 0.44332 0.54784 0.0
C230 C 0.86679 0.45624 0.46365 0.0
O231 O 0.86397 0.40593 0.42479 0.0
C232 C 0.75553 0.29541 0.42637 0.0
O233 O 0.80291 0.27656 0.4614 0.0
O234 O 0.77615 0.34239 0.595 0.0
C235 C 0.74606 0.88306 0.7588 0.0
O236 O 0.76192 0.91327 0.70609 0.0
O237 O 0.58145 0.99183 0.83235 0.0
Zn238 Zn 0.65138 0.97644 0.76614 0.0
O239 O 0.71572 0.05581 0.76061 0.0
C240 C 0.5571 0.98426 0.66159 0.0
O241 O 0.53838 0.03175 0.69736 0.0
O242 O 0.69949 0.90155 0.79323 0.0
C243 C 0.73121 0.07846 0.70638 0.0
O244 O 0.70719 0.04881 0.65421 0.0
C245 C 0.5799 0.0423 0.86714 0.0
O246 O 0.62691 0.08836 0.8616 0.0
O247 O 0.60459 0.95444 0.68065 0.0
C248 C 1.00605 0.15521 0.96058 0.0
O249 O 0.95154 0.18253 0.97095 0.0
O250 O 0.94193 0.21186 0.804 0.0
Zn251 Zn 0.01974 0.24582 0.86035 0.0
O252 O 0.9935 0.31819 0.91772 0.0
C253 C 0.11991 0.24819 0.76053 0.0
O254 O 0.08574 0.19521 0.74192 0.0
O255 O 0.04388 0.17454 0.91534 0.0
C256 C 0.02721 0.33851 0.96648 0.0
O257 O 0.08012 0.31091 0.98074 0.0
C258 C 0.90788 0.24996 0.77567 0.0
O259 O 0.92515 0.31128 0.78142 0.0
O260 O 0.1003 0.27894 0.80924 0.0
C261 C 0.50605 0.65521 0.46058 0.0
O262 O 0.45154 0.68253 0.47095 0.0
O263 O 0.44193 0.71186 0.304 0.0
Zn264 Zn 0.51974 0.74582 0.36035 0.0
O265 O 0.4935 0.81819 0.41772 0.0
C266 C 0.61991 0.74819 0.26053 0.0
O267 O 0.58574 0.69521 0.24192 0.0
O268 O 0.54388 0.67454 0.41534 0.0
C269 C 0.52721 0.83851 0.46648 0.0
O270 O 0.58012 0.81091 0.48074 0.0
C271 C 0.40788 0.74996 0.27567 0.0
O272 O 0.42515 0.81128 0.28143 0.0
O273 O 0.6003 0.77894 0.30924 0.0
C274 C 0.01421 0.8659 0.54006 0.0
O275 O 0.95943 0.82839 0.53652 0.0
O276 O 0.94836 0.77944 0.67132 0.0
Zn277 Zn 0.03194 0.77088 0.62016 0.0
O278 O 0.02389 0.70277 0.55064 0.0
C279 C 0.11718 0.77779 0.72935 0.0
O280 O 0.08532 0.82638 0.74846 0.0
O281 O 0.05857 0.85222 0.57803 0.0
C282 C 0.97609 0.66039 0.54887 0.0
O283 O 0.92963 0.66252 0.5924 0.0
C284 C 0.93164 0.74739 0.72033 0.0
O285 O 0.9687 0.70361 0.73863 0.0
O286 O 0.10222 0.74894 0.67663 0.0
C287 C 0.51421 0.3659 0.04006 0.0
O288 O 0.45942 0.32839 0.03653 0.0
O289 O 0.44836 0.27944 0.17132 0.0
Zn290 Zn 0.53194 0.27088 0.12016 0.0
O291 O 0.52389 0.20278 0.05064 0.0
C292 C 0.61718 0.2778 0.22935 0.0
O293 O 0.58532 0.32639 0.24846 0.0
O294 O 0.55857 0.35222 0.07803 0.0
C295 C 0.4761 0.16038 0.04888 0.0
O296 O 0.42965 0.16251 0.09241 0.0
C297 C 0.43164 0.24739 0.22033 0.0
O298 O 0.4687 0.20361 0.23864 0.0
O299 O 0.60222 0.24894 0.17663 0.0
loop_
_geom_bond_atom_site_label_1
_geom_bond_atom_site_label_2
_geom_bond_distance
_geom_bond_site_symmetry_2
_ccdc_geom_bond_type
H0 C3 0.931 . S
H1 C6 0.933 . S
H2 C8 0.930 . S
C3 H0 0.931 . S
C3 C4 1.413 1_655 S
C3 C5 1.360 1_655 S
C4 C3 1.413 1_455 S
C4 C8 1.429 1_554 S
C5 C3 1.360 1_455 S
C5 C6 1.368 1_545 S
C6 H1 0.933 . S
C6 C5 1.368 1_565 S
C6 C7 1.403 1_565 S
C7 C6 1.403 1_545 S
C7 C8 1.391 1_554 S
C8 H2 0.930 . S
C8 C4 1.429 1_556 S
C8 C7 1.391 1_556 S
H9 C12 0.931 . S
H10 C15 0.928 . S
H11 C17 0.930 . S
C12 H9 0.931 . S
C12 C13 1.413 . S
C12 C14 1.360 . S
C13 C12 1.413 . S
C13 C17 1.429 . S
C14 C12 1.360 . S
C14 C15 1.372 . S
C15 H10 0.928 . S
C15 C14 1.372 . S
C15 C16 1.404 . S
C16 C15 1.404 . S
C16 C17 1.391 . S
C17 H11 0.930 . S
C17 C13 1.429 . S
C17 C16 1.391 . S
H18 C21 0.931 . S
H19 C24 0.928 . S
H20 C26 0.930 . S
C21 H18 0.931 . S
C21 C22 1.413 . S
C21 C23 1.360 1_655 S
C22 C21 1.413 . S
C22 C26 1.429 1_554 S
C23 C21 1.360 1_455 S
C23 C24 1.372 . S
C24 H19 0.928 . S
C24 C23 1.372 . S
C24 C25 1.404 1_454 S
C25 C24 1.404 1_656 S
C25 C26 1.391 . S
C26 H20 0.930 . S
C26 C22 1.429 1_556 S
C26 C25 1.391 . S
H27 C30 0.931 . S
H28 C33 0.928 . S
H29 C35 0.930 . S
C30 H27 0.931 . S
C30 C31 1.413 . S
C30 C32 1.360 . S
C31 C30 1.413 . S
C31 C35 1.429 . S
C32 C30 1.360 . S
C32 C33 1.372 . S
C33 H28 0.928 . S
C33 C32 1.372 . S
C33 C34 1.404 . S
C34 C33 1.404 . S
C34 C35 1.391 . S
C35 H29 0.930 . S
C35 C31 1.429 . S
C35 C34 1.391 . S
H36 C39 0.931 . S
H37 C42 0.928 . S
H38 C44 0.930 . S
C39 H36 0.931 . S
C39 C40 1.413 1_655 S
C39 C41 1.360 1_655 S
C40 C39 1.413 1_455 S
C40 C44 1.429 . S
C41 C39 1.360 1_455 S
C41 C42 1.372 1_565 S
C42 H37 0.928 . S
C42 C41 1.372 1_545 S
C42 C43 1.404 . S
C43 C42 1.404 . S
C43 C44 1.391 1_545 S
C44 H38 0.930 . S
C44 C40 1.429 . S
C44 C43 1.391 1_565 S
H45 C48 0.931 . S
H46 C51 0.928 . S
H47 C53 0.930 . S
C48 H45 0.931 . S
C48 C49 1.413 . S
C48 C50 1.360 . S
C49 C48 1.413 . S
C49 C53 1.429 . S
C50 C48 1.360 . S
C50 C51 1.372 . S
C51 H46 0.928 . S
C51 C50 1.372 . S
C51 C52 1.404 . S
C52 C51 1.404 . S
C52 C53 1.391 . S
C53 H47 0.930 . S
C53 C49 1.429 . S
C53 C52 1.391 . S
H54 C57 0.931 . S
H55 C60 0.928 . S
H56 C62 0.930 . S
C57 H54 0.931 . S
C57 C58 1.413 . S
C57 C59 1.360 . S
C58 C57 1.413 . S
C58 C62 1.429 . S
C59 C57 1.360 . S
C59 C60 1.372 1_655 S
C60 H55 0.928 . S
C60 C59 1.372 1_455 S
C60 C61 1.404 . S
C61 C60 1.404 . S
C61 C62 1.391 1_455 S
C62 H56 0.930 . S
C62 C58 1.429 . S
C62 C61 1.391 1_655 S
H63 C66 0.931 . S
H64 C69 0.928 . S
H65 C71 0.930 . S
C66 H63 0.931 . S
C66 C67 1.413 . S
C66 C68 1.360 . S
C67 C66 1.413 . S
C67 C71 1.429 . S
C68 C66 1.360 . S
C68 C69 1.372 . S
C69 H64 0.928 . S
C69 C68 1.372 . S
C69 C70 1.404 . S
C70 C69 1.404 . S
C70 C71 1.391 . S
C71 H65 0.930 . S
C71 C67 1.429 . S
C71 C70 1.391 . S
H72 C75 0.931 . S
H73 C78 0.928 . S
H74 C80 0.930 . S
C75 H72 0.931 . S
C75 C76 1.413 . S
C75 C77 1.360 . S
C76 C75 1.413 . S
C76 C80 1.429 . S
C77 C75 1.360 . S
C77 C78 1.372 . S
C78 H73 0.928 . S
C78 C77 1.372 . S
C78 C79 1.404 . S
C79 C78 1.404 . S
C79 C80 1.391 . S
C80 H74 0.930 . S
C80 C76 1.429 . S
C80 C79 1.391 . S
H81 C84 0.931 . S
H82 C87 0.928 . S
H83 C89 0.930 . S
C84 H81 0.931 . S
C84 C85 1.413 . S
C84 C86 1.360 1_545 S
C85 C84 1.413 . S
C85 C89 1.429 1_545 S
C86 C84 1.360 1_565 S
C86 C87 1.372 . S
C87 H82 0.928 . S
C87 C86 1.372 . S
C87 C88 1.404 . S
C88 C87 1.404 . S
C88 C89 1.391 . S
C89 H83 0.930 . S
C89 C85 1.429 1_565 S
C89 C88 1.391 . S
H90 C93 0.931 . S
H91 C96 0.928 . S
H92 C98 0.930 . S
C93 H90 0.931 . S
C93 C94 1.413 . S
C93 C95 1.360 . S
C94 C93 1.413 . S
C94 C98 1.429 . S
C95 C93 1.360 . S
C95 C96 1.372 . S
C96 H91 0.928 . S
C96 C95 1.372 . S
C96 C97 1.404 . S
C97 C96 1.404 . S
C97 C98 1.391 . S
C98 H92 0.930 . S
C98 C94 1.429 . S
C98 C97 1.391 . S
H99 C102 0.931 . S
H100 C105 0.928 . S
H101 C107 0.930 . S
C102 H99 0.931 . S
C102 C103 1.413 . S
C102 C104 1.360 . S
C103 C102 1.413 . S
C103 C107 1.429 . S
C104 C102 1.360 . S
C104 C105 1.372 . S
C105 H100 0.928 . S
C105 C104 1.372 . S
C105 C106 1.404 . S
C106 C105 1.404 . S
C106 C107 1.391 . S
C107 H101 0.930 . S
C107 C103 1.429 . S
C107 C106 1.391 . S
H108 C111 0.931 . S
H109 C114 0.928 . S
H110 C116 0.930 . S
C111 H108 0.931 . S
C111 C112 1.413 . S
C111 C113 1.360 . S
C112 C111 1.413 . S
C112 C116 1.429 . S
C113 C111 1.360 . S
C113 C114 1.372 . S
C114 H109 0.928 . S
C114 C113 1.372 . S
C114 C115 1.404 . S
C115 C114 1.404 . S
C115 C116 1.391 . S
C116 H110 0.930 . S
C116 C112 1.429 . S
C116 C115 1.391 . S
H117 C120 0.931 . S
H118 C123 0.928 . S
H119 C125 0.930 . S
C120 H117 0.931 . S
C120 C121 1.413 1_556 S
C120 C122 1.360 . S
C121 C120 1.413 1_554 S
C121 C125 1.429 . S
C122 C120 1.360 . S
C122 C123 1.372 . S
C123 H118 0.928 . S
C123 C122 1.372 . S
C123 C124 1.404 . S
C124 C123 1.404 . S
C124 C125 1.391 1_556 S
C125 H119 0.930 . S
C125 C121 1.429 . S
C125 C124 1.391 1_554 S
H126 C129 0.931 . S
H127 C132 0.928 . S
H128 C134 0.930 . S
C129 H126 0.931 . S
C129 C130 1.413 . S
C129 C131 1.360 . S
C130 C129 1.413 . S
C130 C134 1.429 . S
C131 C129 1.360 . S
C131 C132 1.372 . S
C132 H127 0.928 . S
C132 C131 1.372 . S
C132 C133 1.404 . S
C133 C132 1.404 . S
C133 C134 1.391 . S
C134 H128 0.930 . S
C134 C130 1.429 . S
C134 C133 1.391 . S
H135 C138 0.931 . S
H136 C141 0.928 . S
H137 C143 0.930 . S
C138 H135 0.931 . S
C138 C139 1.412 1_544 S
C138 C140 1.360 . S
C139 C138 1.412 1_566 S
C139 C143 1.430 . S
C140 C138 1.360 . S
C140 C141 1.372 1_554 S
C141 H136 0.928 . S
C141 C140 1.372 1_556 S
C141 C142 1.404 . S
C142 C141 1.404 . S
C142 C143 1.391 1_545 S
C143 H137 0.930 . S
C143 C139 1.430 . S
C143 C142 1.391 1_565 S
C144 O145 1.160 1_554 S
C144 O151 1.185 . S
O145 C144 1.160 1_556 S
O146 Zn147 1.899 1_556 S
O146 C154 1.284 . S
Zn147 O146 1.899 1_554 S
Zn147 O148 2.030 1_554 S
Zn147 O151 2.086 . S
Zn147 O156 1.977 . S
O148 Zn147 2.030 1_556 S
O148 C152 1.277 1_556 S
C149 O150 1.203 . S
C149 O156 1.267 . S
O150 C149 1.203 . S
O151 C144 1.185 . S
O151 Zn147 2.086 . S
C152 O148 1.277 1_554 S
C152 O153 1.211 . S
O153 C152 1.211 . S
C154 O146 1.284 . S
C154 O155 1.273 . S
O155 C154 1.273 . S
O156 Zn147 1.977 . S
O156 C149 1.267 . S
C157 O158 1.160 . S
C157 O164 1.185 . S
O158 C157 1.160 . S
O159 Zn160 1.899 . S
O159 C167 1.284 . S
Zn160 O159 1.899 . S
Zn160 O161 2.032 . S
Zn160 O164 2.086 . S
Zn160 O169 1.977 . S
O161 Zn160 2.032 . S
O161 C165 1.278 . S
C162 O163 1.203 . S
C162 O169 1.267 . S
O163 C162 1.203 . S
O164 C157 1.185 . S
O164 Zn160 2.086 . S
C165 O161 1.278 . S
C165 O166 1.211 . S
O166 C165 1.211 . S
C167 O159 1.284 . S
C167 O168 1.273 . S
O168 C167 1.273 . S
O169 Zn160 1.977 . S
O169 C162 1.267 . S
C170 O171 1.160 1_554 S
C170 O177 1.185 . S
O171 C170 1.160 1_556 S
O172 Zn173 1.899 1_556 S
O172 C180 1.284 . S
Zn173 O172 1.899 1_554 S
Zn173 O174 2.032 1_554 S
Zn173 O177 2.086 . S
Zn173 O182 1.977 . S
O174 Zn173 2.032 1_556 S
O174 C178 1.278 . S
C175 O176 1.203 . S
C175 O182 1.267 . S
O176 C175 1.203 . S
O177 C170 1.185 . S
O177 Zn173 2.086 . S
C178 O174 1.278 . S
C178 O179 1.211 1_556 S
O179 C178 1.211 1_554 S
C180 O172 1.284 . S
C180 O181 1.273 . S
O181 C180 1.273 . S
O182 Zn173 1.977 . S
O182 C175 1.267 . S
C183 O184 1.160 . S
C183 O190 1.185 . S
O184 C183 1.160 . S
O185 Zn186 1.899 . S
O185 C193 1.284 1_545 S
Zn186 O185 1.899 . S
Zn186 O187 2.032 1_545 S
Zn186 O190 2.086 . S
Zn186 O195 1.977 . S
O187 Zn186 2.032 1_565 S
O187 C191 1.278 . S
C188 O189 1.203 1_645 S
C188 O195 1.267 . S
O189 C188 1.203 1_465 S
O190 C183 1.185 . S
O190 Zn186 2.086 . S
C191 O187 1.278 . S
C191 O192 1.211 . S
O192 C191 1.211 . S
C193 O185 1.284 1_565 S
C193 O194 1.273 . S
O194 C193 1.273 . S
O195 Zn186 1.977 . S
O195 C188 1.267 . S
C196 O197 1.160 . S
C196 O203 1.185 . S
O197 C196 1.160 . S
O198 Zn199 1.899 . S
O198 C206 1.284 . S
Zn199 O198 1.899 . S
Zn199 O200 2.032 . S
Zn199 O203 2.086 . S
Zn199 O208 1.977 . S
O200 Zn199 2.032 . S
O200 C204 1.278 . S
C201 O202 1.203 . S
C201 O208 1.267 . S
O202 C201 1.203 . S
O203 C196 1.185 . S
O203 Zn199 2.086 . S
C204 O200 1.278 . S
C204 O205 1.211 . S
O205 C204 1.211 . S
C206 O198 1.284 . S
C206 O207 1.273 . S
O207 C206 1.273 . S
O208 Zn199 1.977 . S
O208 C201 1.267 . S
C209 O210 1.160 . S
C209 O216 1.185 . S
O210 C209 1.160 . S
O211 Zn212 1.899 . S
O211 C219 1.284 . S
Zn212 O211 1.899 . S
Zn212 O213 2.032 . S
Zn212 O216 2.086 . S
Zn212 O221 1.977 . S
O213 Zn212 2.032 . S
O213 C217 1.278 . S
C214 O215 1.203 . S
C214 O221 1.267 . S
O215 C214 1.203 . S
O216 C209 1.185 . S
O216 Zn212 2.086 . S
C217 O213 1.278 . S
C217 O218 1.211 . S
O218 C217 1.211 . S
C219 O211 1.284 . S
C219 O220 1.273 . S
O220 C219 1.273 . S
O221 Zn212 1.977 . S
O221 C214 1.267 . S
C222 O223 1.160 . S
C222 O229 1.185 . S
O223 C222 1.160 . S
O224 Zn225 1.899 . S
O224 C232 1.284 . S
Zn225 O224 1.899 . S
Zn225 O226 2.032 . S
Zn225 O229 2.086 . S
Zn225 O234 1.977 . S
O226 Zn225 2.032 . S
O226 C230 1.278 . S
C227 O228 1.203 . S
C227 O234 1.267 . S
O228 C227 1.203 . S
O229 C222 1.185 . S
O229 Zn225 2.086 . S
C230 O226 1.278 . S
C230 O231 1.211 . S
O231 C230 1.211 . S
C232 O224 1.284 . S
C232 O233 1.273 . S
O233 C232 1.273 . S
O234 Zn225 1.977 . S
O234 C227 1.267 . S
C235 O236 1.160 . S
C235 O242 1.185 . S
O236 C235 1.160 . S
O237 Zn238 1.899 . S
O237 C245 1.284 1_565 S
Zn238 O237 1.899 . S
Zn238 O239 2.032 1_565 S
Zn238 O242 2.086 . S
Zn238 O247 1.977 . S
O239 Zn238 2.032 1_545 S
O239 C243 1.278 . S
C240 O241 1.203 1_565 S
C240 O247 1.267 . S
O241 C240 1.203 1_545 S
O242 C235 1.185 . S
O242 Zn238 2.086 . S
C243 O239 1.278 . S
C243 O244 1.211 . S
O244 C243 1.211 . S
C245 O237 1.284 1_545 S
C245 O246 1.273 . S
O246 C245 1.273 . S
O247 Zn238 1.977 . S
O247 C240 1.267 . S
C248 O249 1.160 1_455 S
C248 O255 1.185 . S
O249 C248 1.160 1_655 S
O250 Zn251 1.899 1_655 S
O250 C258 1.284 . S
Zn251 O250 1.899 1_455 S
Zn251 O252 2.032 1_455 S
Zn251 O255 2.086 . S
Zn251 O260 1.977 . S
O252 Zn251 2.032 1_655 S
O252 C256 1.277 1_655 S
C253 O254 1.203 . S
C253 O260 1.267 . S
O254 C253 1.203 . S
O255 C248 1.185 . S
O255 Zn251 2.086 . S
C256 O252 1.277 1_455 S
C256 O257 1.215 . S
O257 C256 1.215 . S
C258 O250 1.284 . S
C258 O259 1.273 . S
O259 C258 1.273 . S
O260 Zn251 1.977 . S
O260 C253 1.267 . S
C261 O262 1.160 . S
C261 O268 1.185 . S
O262 C261 1.160 . S
O263 Zn264 1.899 . S
O263 C271 1.284 . S
Zn264 O263 1.899 . S
Zn264 O265 2.032 . S
Zn264 O268 2.086 . S
Zn264 O273 1.977 . S
O265 Zn264 2.032 . S
O265 C269 1.278 . S
C266 O267 1.203 . S
C266 O273 1.267 . S
O267 C266 1.203 . S
O268 C261 1.185 . S
O268 Zn264 2.086 . S
C269 O265 1.278 . S
C269 O270 1.211 . S
O270 C269 1.211 . S
C271 O263 1.284 . S
C271 O272 1.273 . S
O272 C271 1.273 . S
O273 Zn264 1.977 . S
O273 C266 1.267 . S
C274 O275 1.160 1_455 S
C274 O281 1.185 . S
O275 C274 1.160 1_655 S
O276 Zn277 1.899 1_655 S
O276 C284 1.284 . S
Zn277 O276 1.899 1_455 S
Zn277 O278 2.032 1_455 S
Zn277 O281 2.086 . S
Zn277 O286 1.977 . S
O278 Zn277 2.032 1_655 S
O278 C282 1.278 . S
C279 O280 1.203 . S
C279 O286 1.267 . S
O280 C279 1.203 . S
O281 C274 1.185 . S
O281 Zn277 2.086 . S
C282 O278 1.278 . S
C282 O283 1.211 1_655 S
O283 C282 1.211 1_455 S
C284 O276 1.284 . S
C284 O285 1.273 . S
O285 C284 1.273 . S
O286 Zn277 1.977 . S
O286 C279 1.267 . S
C287 O288 1.160 . S
C287 O294 1.185 . S
O288 C287 1.160 . S
O289 Zn290 1.899 . S
O289 C297 1.284 . S
Zn290 O289 1.899 . S
Zn290 O291 2.032 . S
Zn290 O294 2.086 . S
Zn290 O299 1.977 . S
O291 Zn290 2.032 . S
O291 C295 1.278 . S
C292 O293 1.203 . S
C292 O299 1.267 . S
O293 C292 1.203 . S
O294 C287 1.185 . S
O294 Zn290 2.086 . S
C295 O291 1.278 . S
C295 O296 1.211 . S
O296 C295 1.211 . S
C297 O289 1.284 . S
C297 O298 1.273 . S
O298 C297 1.273 . S
O299 Zn290 1.977 . S
O299 C292 1.267 . S
C154 C50 1.431 . S
C167 C61 1.605 . S
C67 C180 1.467 . S
C193 C41 1.509 1_655 S
C201 C95 1.455 . S
C214 C113 1.418 . S
C106 C227 1.515 . S
C240 C86 1.546 . S
C104 C258 1.436 . S
C269 C88 1.506 . S
C94 C253 1.456 . S
C261 C112 1.455 . S
C70 C284 1.524 . S
C40 C274 1.474 . S
C49 C279 1.488 . S
C59 C282 1.540 . S
C34 C191 1.419 . S
C133 C183 1.446 . S
C152 C139 1.556 1_554 S
C157 C77 1.559 . S
C43 C204 1.491 . S
C243 C103 1.519 . S
C196 C85 1.484 . S
C222 C115 1.412 . S
C232 C131 1.431 . S
C142 C245 1.605 . S
C76 C206 1.467 . S
C219 C122 1.509 . S
C32 C175 1.455 . S
C188 C5 1.418 1_655 S
C149 C16 1.515 . S
C162 C23 1.546 . S
C14 C271 1.436 . S
C25 C256 1.502 1_655 S
C31 C266 1.456 . S
C4 C248 1.455 1_554 S
C297 C79 1.524 . S
C287 C121 1.474 . S
C292 C130 1.488 . S
C140 C295 1.540 . S
C97 C217 1.419 . S
C209 C52 1.446 . S
C230 C58 1.555 . S
C235 C68 1.559 . S
C124 C178 1.491 . S
C165 C13 1.519 . S
C22 C170 1.484 . S
C144 C7 1.412 1_565 S
