# Generated by pormake.
# Topology ssc, (4,4)-cn, num edge types: 1
# Building blocks:
#     Node 0, Type 0, BuildingBlock: QUQFOY_clean_sbu_3, # of connection points: 4
#     Node 1, Type 0, BuildingBlock: QUQFOY_clean_sbu_3, # of connection points: 4
#     Node 2, Type 0, BuildingBlock: QUQFOY_clean_sbu_3, # of connection points: 4
#     Node 3, Type 0, BuildingBlock: QUQFOY_clean_sbu_3, # of connection points: 4
#     Node 4, Type 0, BuildingBlock: QUQFOY_clean_sbu_3, # of connection points: 4
#     Node 5, Type 0, BuildingBlock: QUQFOY_clean_sbu_3, # of connection points: 4
#     Node 6, Type 0, BuildingBlock: QUQFOY_clean_sbu_3, # of connection points: 4
#     Node 7, Type 0, BuildingBlock: QUQFOY_clean_sbu_3, # of connection points: 4
#     Node 8, Type 0, BuildingBlock: QUQFOY_clean_sbu_3, # of connection points: 4
#     Node 9, Type 0, BuildingBlock: QUQFOY_clean_sbu_3, # of connection points: 4
#     Node 10, Type 0, BuildingBlock: QUQFOY_clean_sbu_3, # of connection points: 4
#     Node 11, Type 0, BuildingBlock: QUQFOY_clean_sbu_3, # of connection points: 4
#     Node 12, Type 1, BuildingBlock: KUFVIS_clean_linker_0, # of connection points: 4
#     Node 13, Type 1, BuildingBlock: KUFVIS_clean_linker_0, # of connection points: 4
#     Node 14, Type 1, BuildingBlock: KUFVIS_clean_linker_0, # of connection points: 4
#     Node 15, Type 1, BuildingBlock: KUFVIS_clean_linker_0, # of connection points: 4
#     Node 16, Type 1, BuildingBlock: KUFVIS_clean_linker_0, # of connection points: 4
#     Node 17, Type 1, BuildingBlock: KUFVIS_clean_linker_0, # of connection points: 4
#     Node 18, Type 1, BuildingBlock: KUFVIS_clean_linker_0, # of connection points: 4
#     Node 19, Type 1, BuildingBlock: KUFVIS_clean_linker_0, # of connection points: 4
#     Node 20, Type 1, BuildingBlock: KUFVIS_clean_linker_0, # of connection points: 4
#     Node 21, Type 1, BuildingBlock: KUFVIS_clean_linker_0, # of connection points: 4
#     Node 22, Type 1, BuildingBlock: KUFVIS_clean_linker_0, # of connection points: 4
#     Node 23, Type 1, BuildingBlock: KUFVIS_clean_linker_0, # of connection points: 4
#     Edge 24, Type (0, 1), BuildingBlock: CIFDUS_clean_linker_0, # of connection points: 2
#     Edge 25, Type (0, 1), BuildingBlock: CIFDUS_clean_linker_0, # of connection points: 2
#     Edge 26, Type (0, 1), BuildingBlock: CIFDUS_clean_linker_0, # of connection points: 2
#     Edge 27, Type (0, 1), BuildingBlock: CIFDUS_clean_linker_0, # of connection points: 2
#     Edge 28, Type (0, 1), BuildingBlock: CIFDUS_clean_linker_0, # of connection points: 2
#     Edge 29, Type (0, 1), BuildingBlock: CIFDUS_clean_linker_0, # of connection points: 2
#     Edge 30, Type (0, 1), BuildingBlock: CIFDUS_clean_linker_0, # of connection points: 2
#     Edge 31, Type (0, 1), BuildingBlock: CIFDUS_clean_linker_0, # of connection points: 2
#     Edge 32, Type (0, 1), BuildingBlock: CIFDUS_clean_linker_0, # of connection points: 2
#     Edge 33, Type (0, 1), BuildingBlock: CIFDUS_clean_linker_0, # of connection points: 2
#     Edge 34, Type (0, 1), BuildingBlock: CIFDUS_clean_linker_0, # of connection points: 2
#     Edge 35, Type (0, 1), BuildingBlock: CIFDUS_clean_linker_0, # of connection points: 2
#     Edge 36, Type (0, 1), BuildingBlock: CIFDUS_clean_linker_0, # of connection points: 2
#     Edge 37, Type (0, 1), BuildingBlock: CIFDUS_clean_linker_0, # of connection points: 2
#     Edge 38, Type (0, 1), BuildingBlock: CIFDUS_clean_linker_0, # of connection points: 2
#     Edge 39, Type (0, 1), BuildingBlock: CIFDUS_clean_linker_0, # of connection points: 2
#     Edge 40, Type (0, 1), BuildingBlock: CIFDUS_clean_linker_0, # of connection points: 2
#     Edge 41, Type (0, 1), BuildingBlock: CIFDUS_clean_linker_0, # of connection points: 2
#     Edge 42, Type (0, 1), BuildingBlock: CIFDUS_clean_linker_0, # of connection points: 2
#     Edge 43, Type (0, 1), BuildingBlock: CIFDUS_clean_linker_0, # of connection points: 2
#     Edge 44, Type (0, 1), BuildingBlock: CIFDUS_clean_linker_0, # of connection points: 2
#     Edge 45, Type (0, 1), BuildingBlock: CIFDUS_clean_linker_0, # of connection points: 2
#     Edge 46, Type (0, 1), BuildingBlock: CIFDUS_clean_linker_0, # of connection points: 2
#     Edge 47, Type (0, 1), BuildingBlock: CIFDUS_clean_linker_0, # of connection points: 2
#     Edge 48, Type (0, 1), BuildingBlock: CIFDUS_clean_linker_0, # of connection points: 2
#     Edge 49, Type (0, 1), BuildingBlock: CIFDUS_clean_linker_0, # of connection points: 2
#     Edge 50, Type (0, 1), BuildingBlock: CIFDUS_clean_linker_0, # of connection points: 2
#     Edge 51, Type (0, 1), BuildingBlock: CIFDUS_clean_linker_0, # of connection points: 2
#     Edge 52, Type (0, 1), BuildingBlock: CIFDUS_clean_linker_0, # of connection points: 2
#     Edge 53, Type (0, 1), BuildingBlock: CIFDUS_clean_linker_0, # of connection points: 2
#     Edge 54, Type (0, 1), BuildingBlock: CIFDUS_clean_linker_0, # of connection points: 2
#     Edge 55, Type (0, 1), BuildingBlock: CIFDUS_clean_linker_0, # of connection points: 2
#     Edge 56, Type (0, 1), BuildingBlock: CIFDUS_clean_linker_0, # of connection points: 2
#     Edge 57, Type (0, 1), BuildingBlock: CIFDUS_clean_linker_0, # of connection points: 2
#     Edge 58, Type (0, 1), BuildingBlock: CIFDUS_clean_linker_0, # of connection points: 2
#     Edge 59, Type (0, 1), BuildingBlock: CIFDUS_clean_linker_0, # of connection points: 2
#     Edge 60, Type (0, 1), BuildingBlock: CIFDUS_clean_linker_0, # of connection points: 2
#     Edge 61, Type (0, 1), BuildingBlock: CIFDUS_clean_linker_0, # of connection points: 2
#     Edge 62, Type (0, 1), BuildingBlock: CIFDUS_clean_linker_0, # of connection points: 2
#     Edge 63, Type (0, 1), BuildingBlock: CIFDUS_clean_linker_0, # of connection points: 2
#     Edge 64, Type (0, 1), BuildingBlock: CIFDUS_clean_linker_0, # of connection points: 2
#     Edge 65, Type (0, 1), BuildingBlock: CIFDUS_clean_linker_0, # of connection points: 2
#     Edge 66, Type (0, 1), BuildingBlock: CIFDUS_clean_linker_0, # of connection points: 2
#     Edge 67, Type (0, 1), BuildingBlock: CIFDUS_clean_linker_0, # of connection points: 2
#     Edge 68, Type (0, 1), BuildingBlock: CIFDUS_clean_linker_0, # of connection points: 2
#     Edge 69, Type (0, 1), BuildingBlock: CIFDUS_clean_linker_0, # of connection points: 2
#     Edge 70, Type (0, 1), BuildingBlock: CIFDUS_clean_linker_0, # of connection points: 2
#     Edge 71, Type (0, 1), BuildingBlock: CIFDUS_clean_linker_0, # of connection points: 2
# Relax obj value: 0.126
# Max RMSD: 0.304
# Mean RMSD: 0.275
data_MOF--net-ssc--node1-QUQFOY_clean_sbu_3--node2-KUFVIS_clean_linker_0--edge1-CIFDUS_clean_linker_0
_symmetry_space_group_name_H-M    P1
_symmetry_Int_Tables_number       1
_symmetry_cell_setting            triclinic
loop_
_symmetry_equiv_pos_as_xyz
'x, y, z'
_cell_length_a     27.915246
_cell_length_b     28.194075
_cell_length_c     27.954987
_cell_angle_alpha  92.185819
_cell_angle_beta   90.030916
_cell_angle_gamma 90.660606
loop_
_atom_site_label
_atom_site_type_symbol
_atom_site_fract_x
_atom_site_fract_y
_atom_site_fract_z
_atom_type_partial_charge
C0 C 0.07683 0.19625 0.24276 0.0
O1 O 0.05519 0.15884 0.22774 0.0
Cd2 Cd 0.03012 0.14832 0.146 0.0
O3 O 0.07965 0.2323 0.2167 0.0
Cd4 Cd 0.0369 0.24505 0.14042 0.0
C5 C 0.92959 0.19231 0.16839 0.0
O6 O 0.08423 0.18643 0.09325 0.0
O7 O 0.02489 0.21864 0.05787 0.0
O8 O 0.08704 0.31494 0.12785 0.0
C9 C 0.06408 0.19656 0.05452 0.0
O10 O 0.94482 0.15805 0.14216 0.0
C11 C 0.05412 0.33824 0.1083 0.0
O12 O 0.95743 0.22766 0.17766 0.0
O13 O 0.01191 0.32115 0.11059 0.0
C14 C 0.08771 0.75807 0.3203 0.0
O15 O 0.08119 0.8015 0.31263 0.0
Cd16 Cd 0.01247 0.83735 0.34679 0.0
O17 O 0.05736 0.73462 0.34425 0.0
Cd18 Cd 0.98047 0.74265 0.38836 0.0
C19 C 0.91991 0.77274 0.29214 0.0
O20 O 0.00936 0.81611 0.42904 0.0
O21 O 0.93325 0.80258 0.43182 0.0
O22 O 0.94385 0.68437 0.44314 0.0
C23 C 0.96913 0.82663 0.44701 0.0
O24 O 0.94428 0.81095 0.29775 0.0
C25 C 0.98276 0.66282 0.44998 0.0
O26 O 0.92677 0.73766 0.31852 0.0
O27 O 0.01908 0.67733 0.42746 0.0
C28 C 0.57598 0.73359 0.69082 0.0
O29 O 0.57621 0.6899 0.69984 0.0
Cd30 Cd 0.51503 0.64055 0.66549 0.0
O31 O 0.54264 0.75006 0.66528 0.0
Cd32 Cd 0.47091 0.72063 0.61953 0.0
C33 C 0.40995 0.68302 0.71297 0.0
O34 O 0.51658 0.65586 0.58195 0.0
O35 O 0.44002 0.64944 0.57441 0.0
O36 O 0.49802 0.78762 0.57441 0.0
C37 C 0.48121 0.63653 0.56049 0.0
O38 O 0.43968 0.64925 0.7093 0.0
C39 C 0.45953 0.79353 0.55152 0.0
O40 O 0.41398 0.71887 0.68696 0.0
O41 O 0.42424 0.76718 0.56214 0.0
C42 C 0.62488 0.25707 0.75316 0.0
O43 O 0.61553 0.3008 0.75945 0.0
Cd44 Cd 0.57565 0.33512 0.82884 0.0
O45 O 0.61127 0.22684 0.78315 0.0
Cd46 Cd 0.56422 0.22629 0.85781 0.0
C47 C 0.4666 0.27941 0.81167 0.0
O48 O 0.60034 0.29723 0.89919 0.0
O49 O 0.53757 0.26487 0.93041 0.0
O50 O 0.61957 0.16873 0.8888 0.0
C51 C 0.57115 0.29531 0.9339 0.0
O52 O 0.49187 0.31712 0.8166 0.0
C53 C 0.58765 0.1406 0.90389 0.0
O54 O 0.48436 0.23869 0.81885 0.0
O55 O 0.54449 0.14986 0.8934 0.0
C56 C 0.07315 0.04525 0.1548 0.0
O57 O 0.09272 0.08484 0.16626 0.0
Cd58 Cd 0.15868 0.09267 0.22041 0.0
O59 O 0.09131 0.0063 0.16745 0.0
Cd60 Cd 0.16368 0.97864 0.21004 0.0
C61 C 0.10531 0.02463 0.30671 0.0
O62 O 0.21936 0.04229 0.18842 0.0
O63 O 0.23934 5e-05 0.24791 0.0
O64 O 0.18328 0.91434 0.15158 0.0
C65 C 0.25096 0.03091 0.21817 0.0
O66 O 0.11991 0.06497 0.29313 0.0
C67 C 0.19256 0.88454 0.18331 0.0
O68 O 0.11519 -0.01313 0.28247 0.0
O69 O 0.18341 0.89713 0.22641 0.0
C70 C 0.17636 0.94199 0.44132 0.0
O71 O 0.19918 0.93287 0.40286 0.0
Cd72 Cd 0.26089 0.87681 0.39278 0.0
O73 O 0.18382 0.91865 0.47886 0.0
Cd74 Cd 0.2373 0.85262 0.50263 0.0
C75 C 0.32856 0.92895 0.48418 0.0
O76 O 0.23067 0.80751 0.42712 0.0
O77 O 0.29152 0.79098 0.46954 0.0
O78 O 0.175 0.82306 0.55579 0.0
C79 C 0.26651 0.78145 0.43251 0.0
O80 O 0.32508 0.91613 0.44006 0.0
C81 C 0.20368 0.8106 0.58824 0.0
O82 O 0.29876 0.91421 0.51486 0.0
O83 O 0.24793 0.81875 0.58156 0.0
C84 C 0.43958 0.93984 0.6499 0.0
O85 O 0.43756 0.89819 0.66559 0.0
Cd86 Cd 0.37892 0.88076 0.7272 0.0
O87 O 0.41155 0.97167 0.66646 0.0
Cd88 Cd 0.34813 -0.01433 0.72558 0.0
C89 C 0.42385 0.95536 0.81428 0.0
O90 O 0.30139 0.91192 0.70489 0.0
O91 O 0.27569 0.9578 0.76304 0.0
O92 O 0.3287 0.04475 0.66822 0.0
C93 C 0.26896 0.9217 0.73541 0.0
O94 O 0.4159 0.91218 0.80151 0.0
C95 C 0.31651 0.07681 0.6988 0.0
O96 O 0.40546 -0.01135 0.79124 0.0
O97 O 0.31872 0.06664 0.7426 0.0
C98 C 0.18447 0.04247 0.0521 0.0
O99 O 0.18045 0.05804 0.09507 0.0
Cd100 Cd 0.22463 0.12721 0.12335 0.0
O101 O 0.20381 0.06756 0.02016 0.0
Cd102 Cd 0.23942 0.14758 0.01015 0.0
C103 C 0.32909 0.09167 0.06603 0.0
O104 O 0.20279 0.19303 0.07753 0.0
O105 O 0.2696 0.21902 0.04898 0.0
O106 O 0.19154 0.17106 0.9406 0.0
C107 C 0.23419 0.22584 0.07655 0.0
O108 O 0.30575 0.09961 0.10468 0.0
C109 C 0.22753 0.18592 0.91734 0.0
O110 O 0.31266 0.10418 0.02591 0.0
O111 O 0.26854 0.17856 0.9352 0.0
C112 C 0.68583 0.42165 0.01931 0.0
O113 O 0.70795 0.41266 0.98042 0.0
Cd114 Cd 0.77687 0.36139 0.97944 0.0
O115 O 0.69766 0.40101 0.05712 0.0
Cd116 Cd 0.75676 0.34385 0.08325 0.0
C117 C 0.83751 0.42955 0.06193 0.0
O118 O 0.76173 0.28622 0.01463 0.0
O119 O 0.8197 0.2878 0.06614 0.0
O120 O 0.69086 0.30898 0.12623 0.0
C121 C 0.79856 0.26643 0.03124 0.0
O122 O 0.8379 0.41125 0.0196 0.0
C123 C 0.71482 0.30153 0.16377 0.0
O124 O 0.80852 0.41426 0.09309 0.0
O125 O 0.75776 0.31708 0.16527 0.0
C126 C 0.95265 0.46989 0.17758 0.0
O127 O 0.93891 0.42756 0.18433 0.0
Cd128 Cd 0.86708 0.40723 0.22613 0.0
O129 O 0.92844 0.50544 0.19282 0.0
Cd130 Cd 0.85574 0.52741 0.23813 0.0
C131 C 0.90386 0.4682 0.33085 0.0
O132 O 0.8097 0.46213 0.20203 0.0
O133 O 0.77467 0.50158 0.25885 0.0
O134 O 0.8517 0.58952 0.18037 0.0
C135 C 0.77262 0.46812 0.22739 0.0
O136 O 0.89205 0.43058 0.30676 0.0
C137 C 0.8309 0.61993 0.20752 0.0
O138 O 0.89831 0.50941 0.31408 0.0
O139 O 0.82521 0.6091 0.25094 0.0
C140 C 0.65797 0.56143 0.56482 0.0
O141 O 0.6645 0.56437 0.60976 0.0
Cd142 Cd 0.71977 0.62186 0.64564 0.0
O143 O 0.68025 0.58894 0.53722 0.0
Cd144 Cd 0.73869 0.65435 0.53525 0.0
C145 C 0.8201 0.58231 0.58418 0.0
O146 O 0.70535 0.69467 0.60693 0.0
O147 O 0.76998 0.72443 0.57696 0.0
O148 O 0.68937 0.67157 0.46733 0.0
C149 C 0.73722 0.72702 0.60822 0.0
O150 O 0.79703 0.58791 0.62324 0.0
C151 C 0.72256 0.68825 0.44168 0.0
O152 O 0.80557 0.60085 0.546 0.0
O153 O 0.76448 0.68972 0.45944 0.0
C154 C 0.5393 0.51296 0.64949 0.0
O155 O 0.54507 0.55244 0.67203 0.0
Cd156 Cd 0.60559 0.56685 0.73151 0.0
O157 O 0.56698 0.4785 0.65752 0.0
Cd158 Cd 0.63451 0.46694 0.71398 0.0
C159 C 0.56307 0.48478 0.80629 0.0
O160 O 0.68226 0.53962 0.70462 0.0
O161 O 0.68924 0.50671 0.7724 0.0
O162 O 0.67615 0.41097 0.66013 0.0
C163 C 0.70532 0.53628 0.74322 0.0
O164 O 0.57531 0.52816 0.80271 0.0
C165 C 0.68294 0.38061 0.69179 0.0
O166 O 0.57489 0.45395 0.77443 0.0
O167 O 0.66621 0.39014 0.73315 0.0
H168 H 0.88094 0.35149 0.62232 0.0
H169 H 0.94319 0.21483 0.59683 0.0
H170 H 0.03241 0.34204 0.59927 0.0
H171 H 0.00014 0.19757 0.53564 0.0
H172 H 0.14443 0.16182 0.56819 0.0
H173 H 0.08097 0.28245 0.64063 0.0
C174 C 0.91248 0.32997 0.61567 0.0
C175 C 0.95719 0.35209 0.61262 0.0
C176 C 0.90724 0.28089 0.60929 0.0
C177 C 0.94753 0.25304 0.60054 0.0
C178 C -0.0067 0.27471 0.59721 0.0
C179 C -0.00217 0.32466 0.60292 0.0
C180 C 0.03599 0.24502 0.58778 0.0
C181 C 0.03299 0.20563 0.55513 0.0
C182 C 0.07242 0.17621 0.54784 0.0
C183 C 0.11494 0.18638 0.57249 0.0
C184 C 0.11857 0.22445 0.60596 0.0
C185 C 0.07895 0.25397 0.61352 0.0
H186 H 0.86128 0.6351 0.93855 0.0
H187 H 0.0006 0.68994 0.97684 0.0
H188 H 0.92832 0.73889 0.8514 0.0
H189 H 0.02196 0.73077 0.8327 0.0
H190 H 0.11095 0.84482 0.88816 0.0
H191 H 0.00586 0.78256 0.97949 0.0
C192 C 0.89066 0.65976 0.93262 0.0
C193 C 0.88973 0.68758 0.8923 0.0
C194 C 0.93054 0.65985 0.96283 0.0
C195 C 0.96941 0.69004 0.9537 0.0
C196 C 0.9685 0.71958 0.91411 0.0
C197 C 0.92896 0.71726 0.88263 0.0
C198 C 0.0085 0.75342 0.90666 0.0
C199 C 0.03216 0.75504 0.86204 0.0
C200 C 0.06958 0.78788 0.85599 0.0
C201 C 0.08278 0.81881 0.89396 0.0
C202 C 0.06119 0.81654 0.93896 0.0
C203 C 0.02349 0.78407 0.94503 0.0
H204 H 0.37563 0.84753 0.0633 0.0
H205 H 0.44525 0.71459 0.08239 0.0
H206 H 0.52794 0.83964 0.04696 0.0
H207 H 0.50601 0.68768 0.01826 0.0
H208 H 0.65238 0.66952 0.05829 0.0
H209 H 0.57669 0.79226 0.11202 0.0
C210 C 0.40807 0.82657 0.06313 0.0
C211 C 0.45167 0.84873 0.05399 0.0
C212 C 0.40521 0.77852 0.07312 0.0
C213 C 0.44732 0.75176 0.07397 0.0
C214 C 0.49217 0.77351 0.06431 0.0
C215 C 0.49405 0.82244 0.05472 0.0
C216 C 0.53677 0.74502 0.06294 0.0
C217 C 0.53782 0.70128 0.03659 0.0
C218 C 0.57995 0.67477 0.03455 0.0
C219 C 0.62086 0.69177 0.05837 0.0
C220 C 0.62012 0.73339 0.08713 0.0
C221 C 0.57797 0.76044 0.08906 0.0
H222 H 0.4122 0.11678 0.37919 0.0
H223 H 0.52733 0.18474 0.45807 0.0
H224 H 0.48278 0.23813 0.32211 0.0
H225 H 0.57703 0.2371 0.32686 0.0
H226 H 0.63756 0.35806 0.40348 0.0
H227 H 0.51916 0.28289 0.46436 0.0
C228 C 0.43845 0.14544 0.38304 0.0
C229 C 0.44408 0.17711 0.34618 0.0
C230 C 0.46847 0.14754 0.42299 0.0
C231 C 0.50317 0.18363 0.42766 0.0
C232 C 0.50785 0.21709 0.39166 0.0
C233 C 0.4784 0.21347 0.35065 0.0
C234 C 0.54472 0.25477 0.39582 0.0
C235 C 0.57776 0.26077 0.35836 0.0
C236 C 0.61162 0.29763 0.36174 0.0
C237 C 0.61194 0.32875 0.40169 0.0
C238 C 0.57851 0.32406 0.43837 0.0
C239 C 0.54546 0.28634 0.43614 0.0
H240 H 0.58308 0.84049 0.34094 0.0
H241 H 0.65141 0.90941 0.22429 0.0
H242 H 0.53363 0.9761 0.30027 0.0
H243 H 0.59126 0.9459 0.15824 0.0
H244 H 0.6028 0.09684 0.14549 0.0
H245 H 0.59759 0.03888 0.28505 0.0
C246 C 0.58401 0.86887 0.31571 0.0
C247 C 0.55366 0.90722 0.32343 0.0
C248 C 0.62004 0.86964 0.28101 0.0
C249 C 0.62291 0.90802 0.25054 0.0
C250 C 0.59045 0.9459 0.25602 0.0
C251 C 0.5566 0.94582 0.29353 0.0
C252 C 0.59441 -0.01263 0.22529 0.0
C253 C 0.59467 0.98113 0.1749 0.0
C254 C 0.59822 0.02077 0.14616 0.0
C255 C 0.60067 0.06617 0.1678 0.0
C256 C 0.59958 0.07294 0.21756 0.0
C257 C 0.59716 0.03357 0.24643 0.0
H258 H 0.08926 0.33563 0.44194 0.0
H259 H 0.14228 0.43639 0.54857 0.0
H260 H 0.21435 0.30286 0.5227 0.0
H261 H 0.21115 0.31823 0.6166 0.0
H262 H 0.32295 0.41393 0.6655 0.0
H263 H 0.23865 0.448 0.54366 0.0
C264 C 0.11392 0.34459 0.47106 0.0
C265 C 0.15138 0.31385 0.48037 0.0
C266 C 0.11043 0.38878 0.4949 0.0
C267 C 0.14433 0.40185 0.53035 0.0
C268 C 0.18093 0.36996 0.54208 0.0
C269 C 0.18462 0.32621 0.5163 0.0
C270 C 0.21783 0.38346 0.57834 0.0
C271 C 0.23 0.35182 0.61435 0.0
C272 C 0.26738 0.36317 0.6466 0.0
C273 C 0.29221 0.40618 0.64255 0.0
C274 C 0.28268 0.43632 0.60523 0.0
C275 C 0.2449 0.4255 0.57359 0.0
H276 H 0.97456 0.10467 0.90666 0.0
H277 H 0.87012 0.01594 0.83351 0.0
H278 H 0.02161 -0.01041 0.81465 0.0
H279 H 0.98619 0.98291 0.73307 0.0
H280 H 0.90417 0.85944 0.68976 0.0
H281 H 0.87571 0.92891 0.82579 0.0
C282 C 0.96601 0.07503 0.88211 0.0
C283 C 0.00335 0.04923 0.86062 0.0
C284 C 0.91802 0.06288 0.87353 0.0
C285 C 0.90722 0.02486 0.8414 0.0
C286 C 0.94456 -0.00153 0.81955 0.0
C287 C -0.00735 0.01042 0.83005 0.0
C288 C 0.93388 0.95917 0.78473 0.0
C289 C 0.95954 0.95616 0.74129 0.0
C290 C 0.94851 0.92044 0.70706 0.0
C291 C 0.91331 0.88666 0.71689 0.0
C292 C 0.88671 0.88984 0.7592 0.0
C293 C 0.89689 0.92608 0.79334 0.0
H294 H 0.37318 0.57351 0.90884 0.0
H295 H 0.34612 0.51535 0.04573 0.0
H296 H 0.26702 0.63719 0.00136 0.0
H297 H 0.29473 0.64319 0.09898 0.0
H298 H 0.19765 0.56509 0.18691 0.0
H299 H 0.24199 0.50498 0.0518 0.0
C300 C 0.35236 0.57336 0.94168 0.0
C301 C 0.31838 0.60862 0.95047 0.0
C302 C 0.3628 0.54025 0.97595 0.0
C303 C 0.33763 0.54081 0.01894 0.0
C304 C 0.30232 0.57508 0.02788 0.0
C305 C 0.29344 0.60998 -0.00589 0.0
C306 C 0.27442 0.57285 0.07224 0.0
C307 C 0.27475 0.611 0.10607 0.0
C308 C 0.24768 0.60811 0.14821 0.0
C309 C 0.22157 0.56641 0.15637 0.0
C310 C 0.21842 0.52988 0.12141 0.0
C311 C 0.24556 0.53265 0.07967 0.0
H312 H 0.64496 0.90074 0.86249 0.0
H313 H 0.69101 0.94166 0.00418 0.0
H314 H 0.78422 0.85949 0.91049 0.0
H315 H 0.76151 0.83215 0.02121 0.0
H316 H 0.87573 0.90437 0.09786 0.0
H317 H 0.80566 0.97319 0.98292 0.0
C318 C 0.67347 0.90276 0.88895 0.0
C319 C 0.7163 0.87865 0.88011 0.0
C320 C 0.66388 0.92482 0.93332 0.0
C321 C 0.69858 0.92516 0.96938 0.0
C322 C 0.74263 0.90264 0.96059 0.0
C323 C 0.75115 0.87865 0.91632 0.0
C324 C 0.77915 0.90291 -0.00166 0.0
C325 C 0.78425 0.86327 0.02703 0.0
C326 C 0.81911 0.86412 0.06309 0.0
C327 C 0.84822 0.90437 0.07037 0.0
C328 C 0.84365 0.94384 0.04187 0.0
C329 C 0.80914 0.94299 0.0055 0.0
H330 H 0.45254 0.64744 0.31724 0.0
H331 H 0.3746 0.57226 0.20574 0.0
H332 H 0.5016 0.51194 0.2653 0.0
H333 H 0.50588 0.48801 0.17656 0.0
H334 H 0.41169 0.37331 0.13186 0.0
H335 H 0.35565 0.49101 0.21468 0.0
C336 C 0.45095 0.61895 0.28999 0.0
C337 C 0.4831 0.58148 0.29284 0.0
C338 C 0.41062 0.61475 0.26035 0.0
C339 C 0.4063 0.57574 0.22809 0.0
C340 C 0.44031 0.53926 0.22805 0.0
C341 C 0.4784 0.5421 0.26113 0.0
C342 C 0.43198 0.49473 0.19948 0.0
C343 C 0.47048 0.47174 0.17621 0.0
C344 C 0.46323 0.4277 0.1524 0.0
C345 C 0.41754 0.40687 0.15146 0.0
C346 C 0.37872 0.43001 0.17314 0.0
C347 C 0.38582 0.47386 0.19717 0.0
H348 H 0.86838 0.02762 0.33368 0.0
H349 H 0.83246 0.00313 0.47995 0.0
H350 H 0.73585 0.0802 0.39145 0.0
H351 H 0.78346 0.11008 0.50672 0.0
H352 H 0.66304 0.06593 0.59012 0.0
H353 H 0.7023 0.98397 0.46366 0.0
C354 C 0.84245 0.02945 0.36265 0.0
C355 C 0.80023 0.05475 0.35676 0.0
C356 C 0.85463 0.01147 0.40689 0.0
C357 C 0.82259 0.01592 0.44524 0.0
C358 C 0.7787 0.03905 0.4392 0.0
C359 C 0.76806 0.05954 0.3952 0.0
C360 C 0.74653 0.04618 0.48051 0.0
C361 C 0.75428 0.08527 0.51257 0.0
C362 C 0.72405 0.09216 0.55206 0.0
C363 C 0.68646 0.06023 0.55946 0.0
C364 C 0.67823 0.02133 0.52798 0.0
C365 C 0.70853 0.01398 0.48837 0.0
H366 H 0.11018 0.37918 0.87547 0.0
H367 H 0.12798 0.42864 0.73299 0.0
H368 H 0.06804 0.52065 0.84468 0.0
H369 H 0.03351 0.48427 0.71157 0.0
H370 H 0.07484 0.62206 0.66594 0.0
H371 H 0.15027 0.56144 0.78246 0.0
C372 C 0.10689 0.40725 0.85012 0.0
C373 C 0.08802 0.45075 0.86555 0.0
C374 C 0.12123 0.39873 0.80281 0.0
C375 C 0.11662 0.43484 0.76973 0.0
C376 C 0.09772 0.47935 0.78487 0.0
C377 C 0.08318 0.48695 0.83291 0.0
C378 C 0.0926 0.51816 0.75095 0.0
C379 C 0.05645 0.51544 0.71545 0.0
C380 C 0.04974 0.55379 0.68568 0.0
C381 C 0.07935 0.59365 0.69071 0.0
C382 C 0.11538 0.59731 0.7253 0.0
C383 C 0.12229 0.5592 0.75555 0.0
H384 H -0.00688 0.38372 0.04994 0.0
H385 H 0.14226 0.37588 0.0895 0.0
H386 H 0.16441 0.42439 0.02261 0.0
H387 H 0.14339 0.45389 0.94412 0.0
H388 H -0.00348 0.44977 0.89737 0.0
H389 H 0.97149 0.41993 0.97445 0.0
C390 C 0.03034 0.39364 0.04464 0.0
C391 C 0.06589 0.37639 0.07504 0.0
C392 C 0.04323 0.41883 0.00406 0.0
C393 C 0.11405 0.38898 0.06707 0.0
C394 C 0.12683 0.41647 0.02851 0.0
C395 C 0.10564 0.44908 0.95212 0.0
C396 C 0.07166 0.45471 0.9157 0.0
C397 C 0.09197 0.42985 -0.00431 0.0
C398 C 0.02302 0.44679 0.9254 0.0
C399 C 0.00887 0.429 0.96928 0.0
H400 H 0.93524 0.74642 0.20018 0.0
H401 H 0.82697 0.79774 0.29784 0.0
H402 H 0.7775 0.82175 0.23057 0.0
H403 H 0.7755 0.84504 0.14637 0.0
H404 H 0.88604 0.7968 0.04949 0.0
H405 H 0.92401 0.75385 0.11344 0.0
C406 C 0.8999 0.76106 0.20639 0.0
C407 C 0.88435 0.77037 0.25346 0.0
C408 C 0.8728 0.77634 0.16769 0.0
C409 C 0.83904 0.78998 0.26162 0.0
C410 C 0.81119 0.80422 0.22326 0.0
C411 C 0.80654 0.82316 0.13895 0.0
C412 C 0.82803 0.82371 0.09358 0.0
C413 C 0.82903 0.80002 0.17638 0.0
C414 C 0.86875 0.79617 0.08417 0.0
C415 C 0.89087 0.77235 0.12091 0.0
H416 H 0.5474 0.6508 0.49277 0.0
H417 H 0.42721 0.56133 0.5274 0.0
H418 H 0.4296 0.52342 0.44736 0.0
H419 H 0.45427 0.52863 0.36389 0.0
H420 H 0.56227 0.63044 0.32557 0.0
H421 H 0.57718 0.65039 0.4105 0.0
C422 C 0.52257 0.62215 0.483 0.0
C423 C 0.48749 0.60828 0.51579 0.0
C424 C 0.52199 0.60318 0.43593 0.0
C425 C 0.45486 0.5719 0.50279 0.0
C426 C 0.45608 0.55055 0.45697 0.0
C427 C 0.48287 0.55329 0.37441 0.0
C428 C 0.50773 0.57763 0.33902 0.0
C429 C 0.48807 0.56744 0.42268 0.0
C430 C 0.5436 0.61072 0.35249 0.0
C431 C 0.55147 0.62261 0.40087 0.0
H432 H 0.69978 0.19769 0.74592 0.0
H433 H 0.60324 0.27909 0.66214 0.0
H434 H 0.63461 0.24164 0.58826 0.0
H435 H 0.67984 0.17609 0.54965 0.0
H436 H 0.77595 0.09475 0.63368 0.0
H437 H 0.75657 0.14346 0.70526 0.0
C438 C 0.68631 0.20763 0.71134 0.0
C439 C 0.64885 0.24019 0.70908 0.0
C440 C 0.70494 0.18646 0.66923 0.0
C441 C 0.63189 0.25367 0.66439 0.0
C442 C 0.64978 0.2323 0.62228 0.0
C443 C 0.69814 0.17072 0.58324 0.0
C444 C 0.72934 0.13234 0.58678 0.0
C445 C 0.68519 0.19752 0.62443 0.0
C446 C 0.75236 0.1247 0.63036 0.0
C447 C 0.74055 0.15191 0.67135 0.0
H448 H 0.93566 0.65612 0.53477 0.0
H449 H 0.04339 0.58873 0.44625 0.0
H450 H 0.06445 0.53743 0.51139 0.0
H451 H 0.06116 0.52021 0.5958 0.0
H452 H 0.96393 0.59721 0.68831 0.0
H453 H 0.92873 0.63494 0.6194 0.0
C454 C 0.96253 0.62898 0.52925 0.0
C455 C -0.01235 0.62578 0.48565 0.0
C456 C 0.97606 0.60094 0.56757 0.0
C457 C 0.02324 0.59137 0.47933 0.0
C458 C 0.03518 0.56189 0.51639 0.0
C459 C 0.03032 0.54305 0.60033 0.0
C460 C 0.01426 0.55496 0.64673 0.0
C461 C 0.01279 0.56715 0.56101 0.0
C462 C 0.97589 0.5865 0.65268 0.0
C463 C 0.95664 0.60899 0.61338 0.0
H464 H 0.64703 0.71181 0.75253 0.0
H465 H 0.58892 0.82813 0.67561 0.0
H466 H 0.64182 0.88362 0.71977 0.0
H467 H 0.69297 0.90035 0.78956 0.0
H468 H 0.74135 0.78515 0.87366 0.0
H469 H 0.70676 0.72797 0.81506 0.0
C470 C 0.64634 0.74914 0.74493 0.0
C471 C 0.61305 0.76592 0.71191 0.0
C472 C 0.67572 0.78114 0.7714 0.0
C473 C 0.61341 0.81436 0.70177 0.0
C474 C 0.64365 0.8462 0.72688 0.0
C475 C 0.6972 0.86259 0.79425 0.0
C476 C 0.71819 0.84701 0.83658 0.0
C477 C 0.67342 0.83013 0.76316 0.0
C478 C 0.72499 0.79818 0.84164 0.0
C479 C 0.70433 0.76541 0.80874 0.0
H480 H 0.57092 0.27817 0.02733 0.0
H481 H 0.56705 0.39103 0.92784 0.0
H482 H 0.54051 0.44632 -0.00809 0.0
H483 H 0.50313 0.45773 0.07128 0.0
H484 H 0.50538 0.34402 0.16985 0.0
H485 H 0.54912 0.29409 0.11158 0.0
C486 C 0.56577 0.31536 0.02027 0.0
C487 C 0.57048 0.33081 0.9734 0.0
C488 C 0.54969 0.34652 0.05685 0.0
C489 C 0.56373 0.37871 0.96395 0.0
C490 C 0.54772 0.41001 0.00025 0.0
C491 C 0.51493 0.42267 0.08046 0.0
C492 C 0.5014 0.40427 0.12441 0.0
C493 C 0.53853 0.39378 0.04621 0.0
C494 C 0.51587 0.35864 0.13607 0.0
C495 C 0.5404 0.33007 0.10267 0.0
H496 H 0.86468 0.11938 0.16038 0.0
H497 H 0.89859 0.24626 0.24562 0.0
H498 H 0.84903 0.21791 0.31063 0.0
H499 H 0.8135 0.14883 0.34965 0.0
H500 H 0.78388 0.02048 0.26604 0.0
H501 H 0.81324 0.05777 0.19392 0.0
C502 C 0.86008 0.14157 0.19258 0.0
C503 C 0.88671 0.18418 0.19864 0.0
C504 C 0.8328 0.1243 0.23057 0.0
C505 C 0.87934 0.21291 0.24019 0.0
C506 C 0.85134 0.19647 0.27771 0.0
C507 C 0.81131 0.12998 0.31514 0.0
C508 C 0.79643 0.08216 0.31291 0.0
C509 C 0.83051 0.15095 0.27438 0.0
C510 C 0.79458 0.05757 0.26828 0.0
C511 C 0.8121 0.07868 0.22725 0.0
H512 H 0.05021 0.94908 0.33305 0.0
H513 H 0.078 0.09736 0.36674 0.0
H514 H 0.00618 0.10156 0.41583 0.0
H515 H 0.92738 0.06817 0.43343 0.0
H516 H 0.89288 0.92447 0.3877 0.0
H517 H 0.97532 0.91258 0.36095 0.0
C518 C 0.04131 0.98196 0.35223 0.0
C519 C 0.0692 0.02316 0.34558 0.0
C520 C -0.00157 0.98467 0.37857 0.0
C521 C 0.05678 0.06543 0.3705 0.0
C522 C 0.01567 0.06784 0.39868 0.0
C523 C 0.93888 0.03351 0.41997 0.0
C524 C 0.90468 -0.00295 0.41293 0.0
C525 C 0.98505 0.02835 0.40098 0.0
C526 C 0.91907 0.95264 0.39423 0.0
C527 C 0.96606 0.94615 0.37821 0.0
H528 H 0.25069 0.74181 0.63423 0.0
H529 H 0.11775 0.81821 0.63312 0.0
H530 H 0.08314 0.76396 0.69012 0.0
H531 H 0.08612 0.6879 0.72849 0.0
H532 H 0.21312 0.603 0.71694 0.0
H533 H 0.25592 0.66863 0.67993 0.0
C534 C 0.21456 0.74717 0.64747 0.0
C535 C 0.18651 0.78359 0.62923 0.0
C536 C 0.19412 0.71433 0.67843 0.0
C537 C 0.13967 0.79003 0.64621 0.0
C538 C 0.11991 0.759 0.67871 0.0
C539 C 0.12371 0.6844 0.71923 0.0
C540 C 0.14627 0.64053 0.7248 0.0
C541 C 0.14616 0.72001 0.69346 0.0
C542 C 0.19505 0.63648 0.71334 0.0
C543 C 0.21914 0.67365 0.69117 0.0
H544 H 0.45364 0.90191 0.8875 0.0
H545 H 0.48147 0.03352 0.81827 0.0
H546 H 0.55795 0.04203 0.85951 0.0
H547 H 0.62287 0.00362 0.90246 0.0
H548 H 0.59424 0.87483 0.97538 0.0
H549 H 0.51205 0.87373 0.94645 0.0
C550 C 0.47559 0.93341 0.88311 0.0
C551 C 0.46217 0.96668 0.84952 0.0
C552 C 0.51924 0.93875 0.90795 0.0
C553 C 0.49089 0.00736 0.84396 0.0
C554 C 0.53481 0.01225 0.86749 0.0
C555 C 0.59745 0.97747 0.91495 0.0
C556 C 0.61417 0.93967 0.94127 0.0
C557 C 0.5501 0.97728 0.89814 0.0
C558 C 0.58164 0.90491 0.95609 0.0
C559 C 0.53469 0.90394 0.93886 0.0
H560 H 0.22271 0.31882 0.06436 0.0
H561 H 0.25748 0.21698 0.16953 0.0
H562 H 0.29815 0.27892 0.21855 0.0
H563 H 0.34221 0.35508 0.21826 0.0
H564 H 0.31079 0.45547 0.11074 0.0
H565 H 0.24903 0.40207 0.07644 0.0
C566 C 0.2371 0.31097 0.09923 0.0
C567 C 0.23765 0.26385 0.11351 0.0
C568 C 0.26174 0.3464 0.12618 0.0
C569 C 0.25653 0.25334 0.15831 0.0
C570 C 0.28034 0.28859 0.18593 0.0
C571 C 0.32004 0.36599 0.18883 0.0
C572 C 0.3308 0.40858 0.16659 0.0
C573 C 0.28597 0.33434 0.16846 0.0
C574 C 0.30261 0.42274 0.12826 0.0
C575 C 0.26786 0.39193 0.10833 0.0
H576 H 0.04004 0.04465 0.06225 0.0
H577 H -0.00491 0.04631 0.20976 0.0
H578 H 0.91264 0.02871 0.18504 0.0
H579 H 0.8591 -0.00559 0.12371 0.0
H580 H 0.90681 0.97945 0.9775 0.0
H581 H 0.98211 0.02067 -0.00129 0.0
C582 C 0.0122 0.04098 0.08879 0.0
C583 C 0.0235 0.04457 0.13772 0.0
C584 C 0.96547 0.02813 0.07435 0.0
C585 C 0.98689 0.04247 0.17189 0.0
C586 C 0.93992 0.03237 0.15779 0.0
C587 C 0.88538 0.00184 0.09629 0.0
C588 C 0.87814 0.98347 0.04946 0.0
C589 C 0.92947 0.02246 0.1094 0.0
C590 C 0.91191 -0.00672 0.01387 0.0
C591 C 0.9552 0.01618 0.02617 0.0
H592 H 0.25463 0.69093 0.39866 0.0
H593 H 0.32846 0.82226 0.37254 0.0
H594 H 0.37339 0.78403 0.30696 0.0
H595 H 0.40009 0.71036 0.26581 0.0
H596 H 0.32875 0.57821 0.2945 0.0
H597 H 0.27474 0.61902 0.35016 0.0
C598 C 0.28015 0.71101 0.37802 0.0
C599 C 0.28916 0.75882 0.39044 0.0
C600 C 0.30619 0.68859 0.34079 0.0
C601 C 0.32171 0.7851 0.36358 0.0
C602 C 0.34722 0.76332 0.32609 0.0
C603 C 0.37105 0.69113 0.28246 0.0
C604 C 0.36803 0.64161 0.27593 0.0
C605 C 0.34075 0.71475 0.31528 0.0
C606 C 0.33108 0.61656 0.29835 0.0
C607 C 0.30059 0.6398 0.33075 0.0
H608 H 0.5255 0.89695 0.63042 0.0
H609 H 0.43821 0.01562 0.59355 0.0
H610 H 0.50341 0.04752 0.54652 0.0
H611 H 0.58657 0.04572 0.52092 0.0
H612 H 0.67713 0.93124 0.56087 0.0
H613 H 0.60883 0.89234 0.59952 0.0
C614 C 0.52041 0.92912 0.61105 0.0
C615 C 0.47693 0.95379 0.61542 0.0
C616 C 0.5584 0.94767 0.58401 0.0
C617 C 0.47115 -0.0042 0.59067 0.0
C618 C 0.50835 0.01406 0.56356 0.0
C619 C 0.59081 0.01145 0.53677 0.0
C620 C 0.63626 -0.00915 0.53758 0.0
C621 C 0.5522 -0.00929 0.56049 0.0
C622 C 0.64202 0.94705 0.55902 0.0
C623 C 0.60321 0.92533 0.58177 0.0
H624 H 0.15214 0.19428 0.85498 0.0
H625 H 0.28995 0.25503 0.89354 0.0
H626 H 0.27202 0.32514 0.84968 0.0
H627 H 0.2133 0.37467 0.81152 0.0
H628 H 0.07376 0.3172 0.77659 0.0
H629 H 0.09774 0.23936 0.80359 0.0
C630 C 0.17888 0.22217 0.8522 0.0
C631 C 0.22191 0.21966 0.87829 0.0
C632 C 0.16878 0.26264 0.82589 0.0
C633 C 0.25662 0.25571 0.87371 0.0
C634 C 0.24664 0.29595 0.84817 0.0
C635 C 0.18919 0.34433 0.80718 0.0
C636 C 0.14201 0.35153 0.79187 0.0
C637 C 0.20238 0.30054 0.82541 0.0
C638 C 0.11056 0.31228 0.78751 0.0
C639 C 0.12395 0.26804 0.80408 0.0
H640 H 0.36427 0.03683 -0.00758 0.0
H641 H 0.38464 0.0714 0.14262 0.0
H642 H 0.43383 0.00093 0.15051 0.0
H643 H 0.45913 0.92281 0.11732 0.0
H644 H 0.43075 0.88546 0.96949 0.0
H645 H 0.39881 0.96432 0.95711 0.0
C646 C 0.38077 0.02988 0.02655 0.0
C647 C 0.36996 0.0587 0.06721 0.0
C648 C 0.4079 -0.01136 0.03099 0.0
C649 C 0.39161 0.04907 0.11112 0.0
C650 C 0.41954 0.0087 0.11565 0.0
C651 C 0.44797 0.93298 0.082 0.0
C652 C 0.44971 0.89951 0.04358 0.0
C653 C 0.42622 0.97716 0.07625 0.0
C654 C 0.43271 0.91189 -0.00143 0.0
C655 C 0.41322 0.95651 -0.00808 0.0
H656 H 0.92715 0.4572 0.03664 0.0
H657 H 0.79604 0.50809 0.10006 0.0
H658 H 0.81773 0.58913 0.0813 0.0
H659 H 0.86681 0.64271 0.03335 0.0
H660 H -0.00195 0.59206 0.9697 0.0
H661 H 0.9856 0.51516 0.00506 0.0
C662 C 0.90448 0.48642 0.04797 0.0
C663 C 0.85993 0.4768 0.06902 0.0
C664 C 0.9172 0.53311 0.03691 0.0
C665 C 0.83078 0.51472 0.08421 0.0
C666 C 0.84299 0.56115 0.07305 0.0
C667 C 0.89347 0.6152 0.02878 0.0
C668 C 0.93283 0.62255 -0.00153 0.0
C669 C 0.88512 0.57044 0.04763 0.0
C670 C 0.9674 0.58707 -0.00718 0.0
C671 C 0.95968 0.54267 0.01206 0.0
H672 H 0.75412 0.66771 0.24363 0.0
H673 H 0.85106 0.66209 0.12367 0.0
H674 H 0.79666 0.71034 0.07797 0.0
H675 H 0.71508 0.74001 0.06708 0.0
H676 H 0.61471 0.73619 0.18379 0.0
H677 H 0.67679 0.70598 0.23536 0.0
C678 C 0.76418 0.67853 0.20815 0.0
C679 C 0.80621 0.66065 0.18675 0.0
C680 C 0.73187 0.70493 0.18144 0.0
C681 C 0.81845 0.67465 0.14058 0.0
C682 C 0.78732 0.70225 0.11442 0.0
C683 C 0.70769 0.73533 0.10472 0.0
C684 C 0.66034 0.74032 0.12157 0.0
C685 C 0.74301 0.7159 0.13379 0.0
C686 C 0.65094 0.73356 0.17015 0.0
C687 C 0.68643 0.71589 0.19972 0.0
H688 H 0.64593 0.47182 0.59515 0.0
H689 H 0.6057 0.56525 0.48397 0.0
H690 H 0.56648 0.49945 0.43964 0.0
H691 H 0.55511 0.41415 0.42669 0.0
H692 H 0.60308 0.31833 0.53248 0.0
H693 H 0.62642 0.3858 0.58563 0.0
C694 C 0.62739 0.47775 0.56189 0.0
C695 C 0.62789 0.52325 0.54303 0.0
C696 C 0.60697 0.4392 0.53551 0.0
C697 C 0.60486 0.53062 0.49938 0.0
C698 C 0.58275 0.49301 0.47395 0.0
C699 C 0.56924 0.40833 0.46216 0.0
C700 C 0.57743 0.36185 0.47605 0.0
C701 C 0.58496 0.44702 0.49095 0.0
C702 C 0.59614 0.35407 0.52156 0.0
C703 C 0.6103 0.39264 0.55144 0.0
H704 H 0.20557 0.83842 0.09665 0.0
H705 H 0.24758 0.83664 0.2452 0.0
H706 H 0.31474 0.78553 0.22428 0.0
H707 H 0.37235 0.76096 0.1616 0.0
H708 H 0.32967 0.76121 0.01376 0.0
H709 H 0.25072 0.7902 0.03669 0.0
C710 C 0.22851 0.82558 0.12458 0.0
C711 C 0.22242 0.84249 0.17214 0.0
C712 C 0.26708 0.79577 0.11243 0.0
C713 C 0.25186 0.8248 0.20814 0.0
C714 C 0.29049 0.7956 0.19624 0.0
C715 C 0.34468 0.76436 0.13469 0.0
C716 C 0.35717 0.76057 0.08605 0.0
C717 C 0.30009 0.78333 0.14818 0.0
C718 C 0.32088 0.76428 0.05147 0.0
C719 C 0.27612 0.78226 0.06454 0.0
H720 H 0.09589 0.96267 0.49396 0.0
H721 H 0.19984 0.02264 0.39841 0.0
H722 H 0.17075 0.10189 0.41764 0.0
H723 H 0.12464 0.15437 0.47026 0.0
H724 H 0.01841 0.09738 0.56419 0.0
H725 H 0.03776 0.01646 0.53542 0.0
C726 C 0.11116 -0.00692 0.47657 0.0
C727 C 0.15028 -0.013 0.44538 0.0
C728 C 0.09376 0.03889 0.48728 0.0
C729 C 0.16971 0.02644 0.42262 0.0
C730 C 0.15346 0.07187 0.43389 0.0
C731 C 0.10415 0.12441 0.48264 0.0
C732 C 0.07003 0.13156 0.51876 0.0
C733 C 0.11655 0.07855 0.46716 0.0
C734 C 0.0444 0.09247 0.53572 0.0
C735 C 0.05611 0.04629 0.51994 0.0
H736 H 0.78841 0.38505 0.26711 0.0
H737 H 0.67852 0.46792 0.20324 0.0
H738 H 0.61686 0.41247 0.23057 0.0
H739 H 0.59437 0.35008 0.28594 0.0
H740 H 0.70439 0.27231 0.35576 0.0
H741 H 0.76634 0.31556 0.31274 0.0
C742 C 0.75107 0.38991 0.25797 0.0
C743 C 0.73757 0.42986 0.23311 0.0
C744 C 0.71606 0.3593 0.2757 0.0
C745 C 0.68926 0.43692 0.22215 0.0
C746 C 0.65418 0.40549 0.23802 0.0
C747 C 0.63188 0.34122 0.28975 0.0
C748 C 0.64523 0.30788 0.32312 0.0
C749 C 0.66706 0.36776 0.26657 0.0
C750 C 0.69371 0.29734 0.3294 0.0
C751 C 0.72899 0.32267 0.30555 0.0
H752 H 0.69891 0.60377 0.81343 0.0
H753 H 0.79396 0.54543 0.70618 0.0
H754 H 0.85942 0.59742 0.73649 0.0
H755 H 0.89184 0.64955 0.80213 0.0
H756 H 0.79654 0.70509 0.91111 0.0
H757 H 0.72866 0.66447 0.87186 0.0
C758 C 0.73383 0.60324 0.79639 0.0
C759 C 0.74226 0.57127 0.7578 0.0
C760 C 0.77101 0.63262 0.81452 0.0
C761 C 0.78718 0.57051 0.73559 0.0
C762 C 0.82442 0.59993 0.75311 0.0
C763 C 0.85579 0.65457 0.81575 0.0
C764 C 0.84891 0.68023 0.85921 0.0
C765 C 0.81711 0.63012 0.79351 0.0
C766 C 0.80233 0.68579 0.87737 0.0
C767 C 0.7637 0.66204 0.85532 0.0
H768 H 0.52143 0.86445 0.53375 0.0
H769 H 0.39813 0.78984 0.47484 0.0
H770 H 0.41143 0.82669 0.39793 0.0
H771 H 0.4665 0.8694 0.34452 0.0
H772 H 0.58863 0.94436 0.4055 0.0
H773 H 0.56694 0.9187 0.48469 0.0
C774 C 0.49617 0.85789 0.50482 0.0
C775 C 0.45901 0.82453 0.51002 0.0
C776 C 0.50387 0.8792 0.461 0.0
C777 C 0.42698 0.81558 0.47184 0.0
C778 C 0.43467 0.8364 0.42776 0.0
C779 C 0.48656 0.88226 0.37573 0.0
C780 C 0.52849 0.90942 0.36961 0.0
C781 C 0.47409 0.86689 0.42143 0.0
C782 C 0.5555 0.92453 0.40979 0.0
C783 C 0.54338 0.90945 0.45507 0.0
H784 H 0.41885 0.23427 0.73685 0.0
H785 H 0.40361 0.34004 0.8509 0.0
H786 H 0.33293 0.3712 0.81248 0.0
H787 H 0.28259 0.37551 0.74154 0.0
H788 H 0.30202 0.27564 0.62323 0.0
H789 H 0.3604 0.23217 0.66966 0.0
C790 C 0.39849 0.2625 0.75432 0.0
C791 C 0.41644 0.28523 0.79642 0.0
C792 C 0.35764 0.28051 0.73167 0.0
C793 C 0.39052 0.32248 0.81824 0.0
C794 C 0.35005 0.3402 0.79634 0.0
C795 C 0.2983 0.34312 0.72676 0.0
C796 C 0.28767 0.32838 0.67935 0.0
C797 C 0.33412 0.32048 0.75239 0.0
C798 C 0.30872 0.28686 0.66013 0.0
C799 C 0.34285 0.2626 0.68639 0.0
H800 H 0.09774 0.10877 0.03448 0.0
H801 H 0.06556 0.24163 0.97112 0.0
H802 H 0.06767 0.20361 0.89129 0.0
H803 H 0.05198 0.13011 0.84551 0.0
H804 H 0.06293 -0.00338 0.91355 0.0
H805 H 0.09954 0.03603 0.98341 0.0
C806 C 0.09322 0.12949 0.0029 0.0
C807 C 0.08039 0.17733 0.00807 0.0
C808 C 0.09108 0.10666 0.95751 0.0
C809 C 0.07451 0.20436 0.96745 0.0
C810 C 0.07578 0.18265 0.92192 0.0
C811 C 0.06554 0.10955 0.87456 0.0
C812 C 0.05251 0.06141 0.87609 0.0
C813 C 0.08041 0.13327 0.91695 0.0
C814 C 0.07138 0.03419 0.91241 0.0
C815 C 0.09127 0.05696 0.95306 0.0
H816 H 0.12979 0.77454 0.23549 0.0
H817 H 0.13707 0.68584 0.35752 0.0
H818 H 0.19805 0.63746 0.31765 0.0
H819 H 0.24169 0.61474 0.2447 0.0
H820 H 0.22274 0.69479 0.11796 0.0
H821 H 0.17444 0.75223 0.16303 0.0
C822 C 0.14583 0.74538 0.25375 0.0
C823 C 0.12919 0.73356 0.29919 0.0
C824 C 0.17956 0.71665 0.22991 0.0
C825 C 0.14942 0.69535 0.32238 0.0
C826 C 0.1846 0.66797 0.29977 0.0
C827 C 0.22899 0.64616 0.22767 0.0
C828 C 0.23617 0.65074 0.1783 0.0
C829 C 0.19918 0.67767 0.25314 0.0
C830 C 0.21873 0.69095 0.15616 0.0
C831 C 0.19067 0.72366 0.18183 0.0
H832 H 0.52619 0.08386 0.95214 0.0
H833 H 0.67655 0.11636 0.93494 0.0
H834 H 0.69545 0.07113 0.00506 0.0
H835 H 0.66705 0.03636 0.07989 0.0
H836 H 0.51776 0.00417 0.09687 0.0
H837 H 0.50052 0.0333 0.01715 0.0
C838 C 0.56323 0.08007 0.96294 0.0
C839 C 0.59975 0.10417 0.9387 0.0
C840 C 0.57394 0.05392 0.00333 0.0
C841 C 0.64761 0.09854 0.95311 0.0
C842 C 0.65851 0.07271 -0.00668 0.0
C843 C 0.63121 0.03359 0.06493 0.0
C844 C 0.59333 0.01779 0.09357 0.0
C845 C 0.62174 0.05206 0.01992 0.0
C846 C 0.54701 0.01506 0.07451 0.0
C847 C 0.53724 0.03274 0.02958 0.0
H848 H 0.16161 0.23144 0.27688 0.0
H849 H 0.02721 0.16976 0.32018 0.0
H850 H 0.04541 0.19012 0.40402 0.0
H851 H 0.09147 0.24023 0.46137 0.0
H852 H 0.22543 0.30264 0.41868 0.0
H853 H 0.21705 0.26515 0.33872 0.0
C854 C 0.13702 0.22157 0.30495 0.0
C855 C 0.09282 0.20018 0.29278 0.0
C856 C 0.14787 0.23313 0.35308 0.0
C857 C 0.06127 0.18674 0.32903 0.0
C858 C 0.0716 0.1984 0.37687 0.0
C859 C 0.11997 0.24337 0.43524 0.0
C860 C 0.15871 0.27423 0.4454 0.0
C861 C 0.11379 0.22342 0.38899 0.0
C862 C 0.19545 0.27865 0.41153 0.0
C863 C 0.19013 0.25805 0.36553 0.0
H864 H 0.03611 0.85171 0.51368 0.0
H865 H 0.89114 0.87908 0.46981 0.0
H866 H 0.87666 0.92333 0.54498 0.0
H867 H 0.89935 0.93819 0.62845 0.0
H868 H 0.03979 0.9009 0.67717 0.0
H869 H 0.06282 0.87769 0.59479 0.0
C870 C 0.00184 0.86851 0.52022 0.0
C871 C 0.96442 0.8617 0.48689 0.0
C872 C -0.00701 0.89157 0.56466 0.0
C873 C 0.92014 0.88344 0.49543 0.0
C874 C 0.91185 0.90861 0.53837 0.0
C875 C 0.93548 0.9264 0.62052 0.0
C876 C 0.96785 0.92076 0.65817 0.0
C877 C 0.94711 0.91054 0.5741 0.0
C878 C 0.01455 0.90552 0.64831 0.0
C879 C 0.02738 0.89175 0.60145 0.0
H880 H 0.40306 0.73219 0.79777 0.0
H881 H 0.33335 0.62397 0.70905 0.0
H882 H 0.2848 0.59982 0.77676 0.0
H883 H 0.27775 0.59678 0.86381 0.0
H884 H 0.35455 0.6983 0.95431 0.0
H885 H 0.38294 0.7394 0.884 0.0
C886 C 0.37575 0.70471 0.79308 0.0
C887 C 0.3716 0.67969 0.74879 0.0
C888 C 0.3494 0.68975 0.83285 0.0
C889 C 0.33699 0.64351 0.74296 0.0
C890 C 0.30937 0.62965 0.78171 0.0
C891 C 0.29847 0.62949 0.86798 0.0
C892 C 0.31389 0.64477 0.91392 0.0
C893 C 0.31727 0.6507 0.82732 0.0
C894 C 0.34155 0.68654 0.91927 0.0
C895 C 0.35866 0.70935 0.87894 0.0
H896 H 0.56202 0.51751 0.89787 0.0
H897 H 0.48651 0.42493 0.79687 0.0
H898 H 0.41698 0.42377 0.84988 0.0
H899 H 0.37289 0.46398 0.91566 0.0
H900 H 0.44873 0.55724 0.01576 0.0
H901 H 0.52308 0.54252 0.97294 0.0
C902 C 0.53097 0.4957 0.88853 0.0
C903 C 0.5287 0.47224 0.84355 0.0
C904 C 0.4913 0.49518 0.91907 0.0
C905 C 0.48879 0.44342 0.83151 0.0
C906 C 0.44904 0.44273 0.86175 0.0
C907 C 0.40646 0.47839 0.92978 0.0
C908 C 0.40578 0.51174 0.96831 0.0
C909 C 0.44913 0.47034 0.90452 0.0
C910 C 0.44887 0.53105 0.98634 0.0
C911 C 0.49133 0.52322 0.96146 0.0
H912 H 0.622 0.28039 0.18325 0.0
H913 H 0.76697 0.24714 0.22235 0.0
H914 H 0.73847 0.1755 0.26012 0.0
H915 H 0.67755 0.11257 0.25939 0.0
H916 H 0.53388 0.14299 0.21499 0.0
H917 H 0.55625 0.22592 0.2039 0.0
C918 C 0.64717 0.25813 0.20134 0.0
C919 C 0.69651 0.26822 0.19895 0.0
C920 C 0.63093 0.21621 0.22177 0.0
C921 C 0.72881 0.23977 0.22319 0.0
C922 C 0.71271 0.19866 0.2446 0.0
C923 C 0.65062 0.13812 0.25004 0.0
C924 C 0.60459 0.12199 0.23705 0.0
C925 C 0.66448 0.18491 0.24106 0.0
C926 C 0.5697 0.15497 0.22485 0.0
C927 C 0.58273 0.20213 0.21766 0.0
H928 H 0.98653 0.51205 0.36184 0.0
H929 H 0.88177 0.40582 0.39817 0.0
H930 H 0.93539 0.37601 0.45857 0.0
H931 H 0.01576 0.37283 0.4929 0.0
H932 H 0.12387 0.47352 0.45264 0.0
H933 H 0.0657 0.51309 0.40229 0.0
C934 C 0.97481 0.48378 0.38451 0.0
C935 C 0.93009 0.46142 0.37595 0.0
C936 C 0.00671 0.46567 0.4183 0.0
C937 C 0.91586 0.42378 0.40444 0.0
C938 C 0.9467 0.40643 0.43867 0.0
C939 C 0.02581 0.40485 0.4748 0.0
C940 C 0.07344 0.4212 0.47753 0.0
C941 C -0.00737 0.42624 0.44498 0.0
C942 C 0.08694 0.46127 0.45225 0.0
C943 C 0.05379 0.48349 0.42302 0.0
H944 H 0.7767 0.71372 0.69421 0.0
H945 H 0.71038 0.81843 0.60849 0.0
H946 H 0.74126 0.88204 0.66231 0.0
H947 H 0.80219 0.90708 0.72078 0.0
H948 H 0.87883 0.80274 0.79787 0.0
H949 H 0.82689 0.7397 0.76326 0.0
C950 C 0.76754 0.75044 0.68876 0.0
C951 C 0.74144 0.76194 0.64797 0.0
C952 C 0.78748 0.78673 0.71849 0.0
C953 C 0.73027 0.80927 0.64007 0.0
C954 C 0.74829 0.8455 0.67052 0.0
C955 C 0.80567 0.87076 0.73179 0.0
C956 C 0.84395 0.85919 0.76148 0.0
C957 C 0.77895 0.83468 0.70824 0.0
C958 C 0.84912 0.81222 0.77533 0.0
C959 C 0.82018 0.77617 0.75466 0.0
H960 H 0.45628 0.56206 0.65446 0.0
H961 H 0.52317 0.44293 0.5813 0.0
H962 H 0.44686 0.4186 0.54585 0.0
H963 H 0.35975 0.41968 0.55223 0.0
H964 H 0.29146 0.52808 0.63957 0.0
H965 H 0.36879 0.56906 0.65188 0.0
C966 C 0.45438 0.53156 0.62969 0.0
C967 C 0.49567 0.50453 0.62016 0.0
C968 C 0.40947 0.51551 0.61265 0.0
C969 C 0.49239 0.46482 0.58846 0.0
C970 C 0.44847 0.45054 0.56867 0.0
C971 C 0.36168 0.45357 0.57196 0.0
C972 C 0.32036 0.47128 0.59461 0.0
C973 C 0.40652 0.4741 0.58261 0.0
C974 C 0.32289 0.5144 0.62124 0.0
C975 C 0.36718 0.53717 0.62908 0.0
H976 H 0.77831 0.22381 0.94378 0.0
H977 H 0.86094 0.20769 0.07272 0.0
H978 H 0.89845 0.13712 0.03753 0.0
H979 H 0.91507 0.08637 0.96749 0.0
H980 H 0.83865 0.10454 0.8357 0.0
H981 H 0.79013 0.16689 0.87491 0.0
C982 C 0.80413 0.20448 0.96423 0.0
C983 C 0.81745 0.22144 0.01046 0.0
C984 C 0.82651 0.16428 0.9433 0.0
C985 C 0.85072 0.19591 0.03676 0.0
C986 C 0.87207 0.15542 0.01677 0.0
C987 C 0.8871 0.10329 0.94762 0.0
C988 C 0.88075 0.09134 0.89876 0.0
C989 C 0.86126 0.14021 0.96968 0.0
C990 C 0.84412 0.11314 0.87342 0.0
C991 C 0.81686 0.14916 0.89569 0.0
H992 H 0.03622 0.42549 0.1936 0.0
H993 H 0.97319 0.53726 0.11495 0.0
H994 H 0.0505 0.55529 0.07869 0.0
H995 H 0.13698 0.5467 0.07825 0.0
H996 H 0.20354 0.45051 0.17318 0.0
H997 H 0.12455 0.41846 0.19487 0.0
C998 C 0.03958 0.45321 0.1679 0.0
C999 C -0.00104 0.47861 0.15469 0.0
C1000 C 0.08499 0.4664 0.15106 0.0
C1001 C 0.00368 0.5158 0.12321 0.0
C1002 C 0.04793 0.5265 0.10321 0.0
C1003 C 0.13402 0.51737 0.1022 0.0
C1004 C 0.17549 0.49954 0.12286 0.0
C1005 C 0.08888 0.50261 0.11757 0.0
C1006 C 0.17183 0.46332 0.15572 0.0
C1007 C 0.12675 0.44593 0.16885 0.0
H1008 H 0.76357 0.76497 0.40045 0.0
H1009 H 0.65571 0.6557 0.37871 0.0
H1010 H 0.62077 0.69897 0.31355 0.0
H1011 H 0.61106 0.77465 0.27559 0.0
H1012 H 0.71382 0.8875 0.30197 0.0
H1013 H 0.76222 0.83552 0.35015 0.0
C1014 C 0.73343 0.75003 0.38029 0.0
C1015 C 0.71113 0.70804 0.39505 0.0
C1016 C 0.71284 0.77577 0.34345 0.0
C1017 C 0.67226 0.6888 0.36878 0.0
C1018 C 0.65244 0.7134 0.3315 0.0
C1019 C 0.64536 0.78694 0.28991 0.0
C1020 C 0.6587 0.83473 0.28569 0.0
C1021 C 0.67098 0.75797 0.32021 0.0
C1022 C 0.703 0.85064 0.30444 0.0
C1023 C 0.73015 0.82117 0.3329 0.0
H1024 H 0.86525 0.54266 0.65893 0.0
H1025 H 0.86619 0.54642 0.50468 0.0
H1026 H 0.92147 0.48041 0.50064 0.0
H1027 H 0.95375 0.41085 0.54042 0.0
H1028 H 0.95452 0.40768 0.69375 0.0
H1029 H 0.91442 0.48444 0.69906 0.0
C1030 C 0.8777 0.52923 0.6244 0.0
C1031 C 0.86032 0.54858 0.58214 0.0
C1032 C 0.90956 0.49111 0.62225 0.0
C1033 C 0.87829 0.53179 0.5378 0.0
C1034 C 0.90992 0.49383 0.5354 0.0
C1035 C 0.94845 0.42873 0.57476 0.0
C1036 C 0.95776 0.40431 0.61643 0.0
C1037 C 0.92408 0.47194 0.57725 0.0
C1038 C 0.94829 0.42639 0.66122 0.0
C1039 C 0.92442 0.46969 0.66416 0.0
H1040 H 0.41879 0.94227 0.4528 0.0
H1041 H 0.30974 0.00616 0.54194 0.0
H1042 H 0.3516 0.08272 0.54029 0.0
H1043 H 0.4095 0.13359 0.49829 0.0
H1044 H 0.51955 0.06827 0.41135 0.0
H1045 H 0.48754 -0.00996 0.42806 0.0
C1046 C 0.40552 0.97243 0.47365 0.0
C1047 C 0.36128 0.96882 0.49697 0.0
C1048 C 0.42983 0.01615 0.4727 0.0
C1049 C 0.34397 0.00813 0.52381 0.0
C1050 C 0.3677 0.05203 0.52262 0.0
C1051 C 0.42829 0.10202 0.48577 0.0
C1052 C 0.46672 0.1064 0.45373 0.0
C1053 C 0.40946 0.05688 0.49526 0.0
C1054 C 0.4904 0.06552 0.43675 0.0
C1055 C 0.47172 0.0207 0.4457 0.0
H1056 H 0.25168 0.13285 0.7458 0.0
H1057 H 0.33558 0.12098 0.61658 0.0
H1058 H 0.28749 0.18186 0.58048 0.0
H1059 H 0.21133 0.22326 0.57923 0.0
H1060 H 0.12037 0.22521 0.70354 0.0
H1061 H 0.18262 0.18664 0.74918 0.0
C1062 C 0.26029 0.14478 0.71035 0.0
C1063 C 0.29611 0.12168 0.68319 0.0
C1064 C 0.23114 0.17847 0.68912 0.0
C1065 C 0.3072 0.13743 0.63745 0.0
C1066 C 0.27979 0.17225 0.61688 0.0
C1067 C 0.2061 0.21697 0.61696 0.0
C1068 C 0.16109 0.22581 0.63771 0.0
C1069 C 0.24006 0.19092 0.64139 0.0
C1070 C 0.15472 0.21857 0.68674 0.0
C1071 C 0.18999 0.19561 0.71257 0.0
H1072 H 0.10137 -0.00356 0.07124 0.0
H1073 H 0.23964 0.9775 0.00635 0.0
H1074 H 0.21629 0.89763 0.97746 0.0
H1075 H 0.1531 0.83979 0.95967 0.0
H1076 H 0.00836 0.86803 0.00573 0.0
H1077 H 0.03702 0.93671 0.05449 0.0
C1078 C 0.12596 0.97467 0.05088 0.0
C1079 C 0.17131 -0.00704 0.03968 0.0
C1080 C 0.1108 0.93056 0.03105 0.0
C1081 C 0.20399 0.96431 0.01422 0.0
C1082 C 0.19071 0.91876 -0.00211 0.0
C1083 C 0.12772 0.86088 0.98047 0.0
C1084 C 0.07853 0.84968 0.97794 0.0
C1085 C 0.14358 0.90252 0.00428 0.0
C1086 C 0.04639 0.87603 0.00676 0.0
C1087 C 0.0627 0.91568 0.0341 0.0
H1088 H 0.70748 0.33936 0.60596 0.0
H1089 H 0.72933 0.33012 0.75811 0.0
H1090 H 0.79701 0.27766 0.74383 0.0
H1091 H 0.86169 0.25492 0.68868 0.0
H1092 H 0.84278 0.26879 0.53728 0.0
H1093 H 0.76071 0.29541 0.55013 0.0
C1094 C 0.72636 0.32484 0.63591 0.0
C1095 C 0.71465 0.3398 0.68291 0.0
C1096 C 0.76559 0.29503 0.62745 0.0
C1097 C 0.73839 0.31986 0.72153 0.0
C1098 C 0.77711 0.28981 0.71341 0.0
C1099 C 0.83841 0.26083 0.65843 0.0
C1100 C 0.85827 0.26155 0.61239 0.0
C1101 C 0.79279 0.27971 0.66658 0.0
C1102 C 0.82809 0.26859 0.57315 0.0
C1103 C 0.78162 0.28512 0.58065 0.0
H1104 H 0.66644 0.4875 0.95292 0.0
H1105 H 0.62915 0.44579 0.09542 0.0
H1106 H 0.58251 0.51754 0.10783 0.0
H1107 H 0.56252 0.59722 0.08322 0.0
H1108 H 0.60778 0.64399 0.94552 0.0
H1109 H 0.64056 0.56531 0.92576 0.0
C1110 C 0.64739 0.49368 0.98633 0.0
C1111 C 0.65144 0.46123 0.02316 0.0
C1112 C 0.62218 0.53617 -0.00588 0.0
C1113 C 0.62692 0.47017 0.06648 0.0
C1114 C 0.60023 0.51128 0.0737 0.0
C1115 C 0.57759 0.58926 0.04807 0.0
C1116 C 0.58168 0.62553 0.01525 0.0
C1117 C 0.5988 0.54512 0.03838 0.0
C1118 C 0.60302 0.61592 0.97056 0.0
C1119 C 0.62259 0.57131 0.95977 0.0
H1120 H 0.25763 0.82855 0.75408 0.0
H1121 H 0.17974 0.95504 0.72417 0.0
H1122 H 0.1044 0.91623 0.74559 0.0
H1123 H 0.06443 0.85358 0.78937 0.0
H1124 H 0.1439 0.73178 0.83036 0.0
H1125 H 0.21442 0.76036 0.78767 0.0
C1126 C 0.22386 0.84686 0.75099 0.0
C1127 C 0.22384 0.89442 0.73779 0.0
C1128 C 0.18104 0.82514 0.76596 0.0
C1129 C 0.18026 0.91836 0.7344 0.0
C1130 C 0.13729 0.89622 0.74674 0.0
C1131 C 0.09639 0.83208 0.78644 0.0
C1132 C 0.09897 0.79046 0.81232 0.0
C1133 C 0.13757 0.85048 0.76471 0.0
C1134 C 0.14094 0.76349 0.80989 0.0
C1135 C 0.18161 0.78048 0.78648 0.0
H1136 H 0.26436 0.12596 0.22777 0.0
H1137 H 0.33855 -0.00734 0.2216 0.0
H1138 H 0.41282 0.03262 0.24729 0.0
H1139 H 0.45067 0.10107 0.2876 0.0
H1140 H 0.37236 0.23059 0.30991 0.0
H1141 H 0.30653 0.19804 0.25994 0.0
C1142 C 0.29731 0.10623 0.23076 0.0
C1143 C 0.29655 0.05669 0.22321 0.0
C1144 C 0.33904 0.12907 0.24845 0.0
C1145 C 0.33876 0.03085 0.22771 0.0
C1146 C 0.38104 0.05365 0.24241 0.0
C1147 C 0.41991 0.1227 0.27973 0.0
C1148 C 0.41578 0.16773 0.30231 0.0
C1149 C 0.3809 0.10221 0.25506 0.0
C1150 C 0.3761 0.19584 0.2925 0.0
C1151 C 0.33823 0.17689 0.26466 0.0
loop_
_geom_bond_atom_site_label_1
_geom_bond_atom_site_label_2
_geom_bond_distance
_geom_bond_site_symmetry_2
_ccdc_geom_bond_type
C0 O1 1.306 . S
C0 O3 1.160 . S
O1 C0 1.306 . S
O1 Cd2 2.228 . S
Cd2 O1 2.228 . S
Cd2 O6 2.273 . S
Cd2 O10 2.277 1_455 S
O3 C0 1.160 . S
O3 Cd4 2.203 1_455 S
Cd4 O3 2.203 1_655 S
Cd4 O6 2.411 1_655 S
Cd4 O7 2.333 . S
Cd4 O8 2.352 1_655 S
Cd4 O12 2.277 . S
Cd4 O13 2.356 . S
C5 O10 1.209 . S
C5 O12 1.226 . S
O6 Cd2 2.273 . S
O6 Cd4 2.411 1_455 S
O6 C9 1.320 . S
O7 Cd4 2.333 . S
O7 C9 1.214 1_655 S
O8 Cd4 2.352 1_455 S
O8 C11 1.258 1_455 S
C9 O6 1.320 . S
C9 O7 1.214 1_455 S
O10 Cd2 2.277 1_655 S
O10 C5 1.209 . S
C11 O8 1.258 1_655 S
C11 O13 1.282 . S
O12 Cd4 2.277 . S
O12 C5 1.226 . S
O13 Cd4 2.356 . S
O13 C11 1.282 . S
C14 O15 1.306 . S
C14 O17 1.160 . S
O15 C14 1.306 . S
O15 Cd16 2.228 . S
Cd16 O15 2.228 . S
Cd16 O20 2.273 . S
Cd16 O24 2.277 1_455 S
O17 C14 1.160 . S
O17 Cd18 2.203 1_455 S
Cd18 O17 2.203 1_655 S
Cd18 O20 2.411 1_655 S
Cd18 O21 2.333 . S
Cd18 O22 2.352 1_655 S
Cd18 O26 2.277 . S
Cd18 O27 2.356 . S
C19 O24 1.209 . S
C19 O26 1.226 . S
O20 Cd16 2.273 . S
O20 Cd18 2.411 1_455 S
O20 C23 1.320 . S
O21 Cd18 2.333 . S
O21 C23 1.214 1_655 S
O22 Cd18 2.352 1_455 S
O22 C25 1.258 1_455 S
C23 O20 1.320 . S
C23 O21 1.214 1_455 S
O24 Cd16 2.277 1_655 S
O24 C19 1.209 . S
C25 O22 1.258 1_655 S
C25 O27 1.282 . S
O26 Cd18 2.277 . S
O26 C19 1.226 . S
O27 Cd18 2.356 . S
O27 C25 1.282 . S
C28 O29 1.306 . S
C28 O31 1.160 . S
O29 C28 1.306 . S
O29 Cd30 2.228 . S
Cd30 O29 2.228 . S
Cd30 O34 2.273 . S
Cd30 O38 2.277 . S
O31 C28 1.160 . S
O31 Cd32 2.203 . S
Cd32 O31 2.203 . S
Cd32 O34 2.411 . S
Cd32 O35 2.333 . S
Cd32 O36 2.352 . S
Cd32 O40 2.277 . S
Cd32 O41 2.356 . S
C33 O38 1.209 . S
C33 O40 1.226 . S
O34 Cd30 2.273 . S
O34 Cd32 2.411 . S
O34 C37 1.320 . S
O35 Cd32 2.333 . S
O35 C37 1.214 . S
O36 Cd32 2.352 . S
O36 C39 1.258 . S
C37 O34 1.320 . S
C37 O35 1.214 . S
O38 Cd30 2.277 . S
O38 C33 1.209 . S
C39 O36 1.258 . S
C39 O41 1.282 . S
O40 Cd32 2.277 . S
O40 C33 1.226 . S
O41 Cd32 2.356 . S
O41 C39 1.282 . S
C42 O43 1.306 . S
C42 O45 1.160 . S
O43 C42 1.306 . S
O43 Cd44 2.228 . S
Cd44 O43 2.228 . S
Cd44 O48 2.273 . S
Cd44 O52 2.277 . S
O45 C42 1.160 . S
O45 Cd46 2.203 . S
Cd46 O45 2.203 . S
Cd46 O48 2.411 . S
Cd46 O49 2.333 . S
Cd46 O50 2.352 . S
Cd46 O54 2.277 . S
Cd46 O55 2.356 . S
C47 O52 1.209 . S
C47 O54 1.226 . S
O48 Cd44 2.273 . S
O48 Cd46 2.411 . S
O48 C51 1.320 . S
O49 Cd46 2.333 . S
O49 C51 1.214 . S
O50 Cd46 2.352 . S
O50 C53 1.258 . S
C51 O48 1.320 . S
C51 O49 1.214 . S
O52 Cd44 2.277 . S
O52 C47 1.209 . S
C53 O50 1.258 . S
C53 O55 1.282 . S
O54 Cd46 2.277 . S
O54 C47 1.226 . S
O55 Cd46 2.356 . S
O55 C53 1.282 . S
C56 O57 1.306 . S
C56 O59 1.160 1_545 S
O57 C56 1.306 . S
O57 Cd58 2.228 . S
Cd58 O57 2.228 . S
Cd58 O62 2.273 . S
Cd58 O66 2.277 . S
O59 C56 1.160 1_565 S
O59 Cd60 2.203 . S
Cd60 O59 2.203 . S
Cd60 O62 2.411 1_565 S
Cd60 O63 2.333 1_565 S
Cd60 O64 2.352 . S
Cd60 O68 2.277 . S
Cd60 O69 2.356 . S
C61 O66 1.209 . S
C61 O68 1.226 1_545 S
O62 Cd58 2.273 . S
O62 Cd60 2.411 1_545 S
O62 C65 1.320 . S
O63 Cd60 2.333 1_545 S
O63 C65 1.214 . S
O64 Cd60 2.352 . S
O64 C67 1.258 . S
C65 O62 1.320 . S
C65 O63 1.214 . S
O66 Cd58 2.277 . S
O66 C61 1.209 . S
C67 O64 1.258 . S
C67 O69 1.282 . S
O68 Cd60 2.277 . S
O68 C61 1.226 1_565 S
O69 Cd60 2.356 . S
O69 C67 1.282 . S
C70 O71 1.306 . S
C70 O73 1.160 . S
O71 C70 1.306 . S
O71 Cd72 2.228 . S
Cd72 O71 2.228 . S
Cd72 O76 2.273 . S
Cd72 O80 2.277 . S
O73 C70 1.160 . S
O73 Cd74 2.203 . S
Cd74 O73 2.203 . S
Cd74 O76 2.411 . S
Cd74 O77 2.333 . S
Cd74 O78 2.352 . S
Cd74 O82 2.277 . S
Cd74 O83 2.356 . S
C75 O80 1.209 . S
C75 O82 1.226 . S
O76 Cd72 2.273 . S
O76 Cd74 2.411 . S
O76 C79 1.320 . S
O77 Cd74 2.333 . S
O77 C79 1.214 . S
O78 Cd74 2.352 . S
O78 C81 1.258 . S
C79 O76 1.320 . S
C79 O77 1.214 . S
O80 Cd72 2.277 . S
O80 C75 1.209 . S
C81 O78 1.258 . S
C81 O83 1.282 . S
O82 Cd74 2.277 . S
O82 C75 1.226 . S
O83 Cd74 2.356 . S
O83 C81 1.282 . S
C84 O85 1.306 . S
C84 O87 1.160 1_565 S
O85 C84 1.306 . S
O85 Cd86 2.228 . S
Cd86 O85 2.228 . S
Cd86 O90 2.273 . S
Cd86 O94 2.277 . S
O87 C84 1.160 1_545 S
O87 Cd88 2.203 . S
Cd88 O87 2.203 . S
Cd88 O90 2.411 1_545 S
Cd88 O91 2.333 1_545 S
Cd88 O92 2.352 . S
Cd88 O96 2.277 . S
Cd88 O97 2.356 . S
C89 O94 1.209 1_545 S
C89 O96 1.226 . S
O90 Cd86 2.273 . S
O90 Cd88 2.411 1_565 S
O90 C93 1.320 . S
O91 Cd88 2.333 1_565 S
O91 C93 1.214 . S
O92 Cd88 2.352 . S
O92 C95 1.258 . S
C93 O90 1.320 . S
C93 O91 1.214 . S
O94 Cd86 2.277 . S
O94 C89 1.209 1_565 S
C95 O92 1.258 . S
C95 O97 1.282 . S
O96 Cd88 2.277 . S
O96 C89 1.226 . S
O97 Cd88 2.356 . S
O97 C95 1.282 . S
C98 O99 1.306 . S
C98 O101 1.160 1_554 S
O99 C98 1.306 . S
O99 Cd100 2.228 . S
Cd100 O99 2.228 . S
Cd100 O104 2.273 . S
Cd100 O108 2.277 . S
O101 C98 1.160 1_556 S
O101 Cd102 2.203 . S
Cd102 O101 2.203 . S
Cd102 O104 2.411 1_556 S
Cd102 O105 2.333 1_556 S
Cd102 O106 2.352 . S
Cd102 O110 2.277 . S
Cd102 O111 2.356 . S
C103 O108 1.209 1_556 S
C103 O110 1.226 . S
O104 Cd100 2.273 . S
O104 Cd102 2.411 1_554 S
O104 C107 1.320 . S
O105 Cd102 2.333 1_554 S
O105 C107 1.214 . S
O106 Cd102 2.352 . S
O106 C109 1.258 . S
C107 O104 1.320 . S
C107 O105 1.214 . S
O108 Cd100 2.277 . S
O108 C103 1.209 1_554 S
C109 O106 1.258 . S
C109 O111 1.282 . S
O110 Cd102 2.277 . S
O110 C103 1.226 . S
O111 Cd102 2.356 . S
O111 C109 1.282 . S
C112 O113 1.306 1_554 S
C112 O115 1.160 . S
O113 C112 1.306 1_556 S
O113 Cd114 2.228 . S
Cd114 O113 2.228 . S
Cd114 O118 2.273 . S
Cd114 O122 2.277 . S
O115 C112 1.160 . S
O115 Cd116 2.203 . S
Cd116 O115 2.203 . S
Cd116 O118 2.411 1_554 S
Cd116 O119 2.333 1_554 S
Cd116 O120 2.352 . S
Cd116 O124 2.277 . S
Cd116 O125 2.356 . S
C117 O122 1.209 1_554 S
C117 O124 1.226 . S
O118 Cd114 2.273 . S
O118 Cd116 2.411 1_556 S
O118 C121 1.320 . S
O119 Cd116 2.333 1_556 S
O119 C121 1.214 . S
O120 Cd116 2.352 . S
O120 C123 1.258 . S
C121 O118 1.320 . S
C121 O119 1.214 . S
O122 Cd114 2.277 . S
O122 C117 1.209 1_556 S
C123 O120 1.258 . S
C123 O125 1.282 . S
O124 Cd116 2.277 . S
O124 C117 1.226 . S
O125 Cd116 2.356 . S
O125 C123 1.282 . S
C126 O127 1.306 . S
C126 O129 1.160 . S
O127 C126 1.306 . S
O127 Cd128 2.228 . S
Cd128 O127 2.228 . S
Cd128 O132 2.273 . S
Cd128 O136 2.277 . S
O129 C126 1.160 . S
O129 Cd130 2.203 . S
Cd130 O129 2.203 . S
Cd130 O132 2.411 . S
Cd130 O133 2.333 . S
Cd130 O134 2.352 . S
Cd130 O138 2.277 . S
Cd130 O139 2.356 . S
C131 O136 1.209 . S
C131 O138 1.226 . S
O132 Cd128 2.273 . S
O132 Cd130 2.411 . S
O132 C135 1.320 . S
O133 Cd130 2.333 . S
O133 C135 1.214 . S
O134 Cd130 2.352 . S
O134 C137 1.258 . S
C135 O132 1.320 . S
C135 O133 1.214 . S
O136 Cd128 2.277 . S
O136 C131 1.209 . S
C137 O134 1.258 . S
C137 O139 1.282 . S
O138 Cd130 2.277 . S
O138 C131 1.226 . S
O139 Cd130 2.356 . S
O139 C137 1.282 . S
C140 O141 1.306 . S
C140 O143 1.160 . S
O141 C140 1.306 . S
O141 Cd142 2.228 . S
Cd142 O141 2.228 . S
Cd142 O146 2.273 . S
Cd142 O150 2.277 . S
O143 C140 1.160 . S
O143 Cd144 2.203 . S
Cd144 O143 2.203 . S
Cd144 O146 2.411 . S
Cd144 O147 2.333 . S
Cd144 O148 2.352 . S
Cd144 O152 2.277 . S
Cd144 O153 2.356 . S
C145 O150 1.209 . S
C145 O152 1.226 . S
O146 Cd142 2.273 . S
O146 Cd144 2.411 . S
O146 C149 1.320 . S
O147 Cd144 2.333 . S
O147 C149 1.214 . S
O148 Cd144 2.352 . S
O148 C151 1.258 . S
C149 O146 1.320 . S
C149 O147 1.214 . S
O150 Cd142 2.277 . S
O150 C145 1.209 . S
C151 O148 1.258 . S
C151 O153 1.282 . S
O152 Cd144 2.277 . S
O152 C145 1.226 . S
O153 Cd144 2.356 . S
O153 C151 1.282 . S
C154 O155 1.306 . S
C154 O157 1.160 . S
O155 C154 1.306 . S
O155 Cd156 2.228 . S
Cd156 O155 2.228 . S
Cd156 O160 2.273 . S
Cd156 O164 2.277 . S
O157 C154 1.160 . S
O157 Cd158 2.203 . S
Cd158 O157 2.203 . S
Cd158 O160 2.411 . S
Cd158 O161 2.333 . S
Cd158 O162 2.352 . S
Cd158 O166 2.277 . S
Cd158 O167 2.356 . S
C159 O164 1.209 . S
C159 O166 1.226 . S
O160 Cd156 2.273 . S
O160 Cd158 2.411 . S
O160 C163 1.320 . S
O161 Cd158 2.333 . S
O161 C163 1.214 . S
O162 Cd158 2.352 . S
O162 C165 1.258 . S
C163 O160 1.320 . S
C163 O161 1.214 . S
O164 Cd156 2.277 . S
O164 C159 1.209 . S
C165 O162 1.258 . S
C165 O167 1.282 . S
O166 Cd158 2.277 . S
O166 C159 1.226 . S
O167 Cd158 2.356 . S
O167 C165 1.282 . S
H168 C174 0.930 . S
H169 C177 0.931 . S
H170 C179 0.931 1_455 S
H171 C181 0.930 . S
H172 C183 0.930 . S
H173 C185 0.931 . S
C174 H168 0.930 . S
C174 C175 1.380 . S
C174 C176 1.394 . S
C175 C174 1.380 . S
C175 C179 1.382 . S
C176 C174 1.394 . S
C176 C177 1.400 . S
C177 H169 0.931 . S
C177 C176 1.400 . S
C177 C178 1.375 . S
C178 C177 1.375 . S
C178 C179 1.415 . S
C178 C180 1.501 1_655 S
C179 H170 0.931 1_655 S
C179 C175 1.382 . S
C179 C178 1.415 . S
C180 C178 1.501 1_455 S
C180 C181 1.384 . S
C180 C185 1.408 . S
C181 H171 0.930 . S
C181 C180 1.384 . S
C181 C182 1.389 . S
C182 C181 1.389 . S
C182 C183 1.405 . S
C183 H172 0.930 . S
C183 C182 1.405 . S
C183 C184 1.364 . S
C184 C183 1.364 . S
C184 C185 1.400 . S
C185 H173 0.931 . S
C185 C180 1.408 . S
C185 C184 1.400 . S
H186 C192 0.930 . S
H187 C195 0.931 1_455 S
H188 C197 0.931 . S
H189 C199 0.930 . S
H190 C201 0.930 . S
H191 C203 0.931 . S
C192 H186 0.930 . S
C192 C193 1.380 . S
C192 C194 1.394 1_556 S
C193 C192 1.380 . S
C193 C197 1.382 . S
C194 C192 1.394 1_554 S
C194 C195 1.400 . S
C195 H187 0.931 1_655 S
C195 C194 1.400 . S
C195 C196 1.375 1_654 S
C196 C195 1.375 1_456 S
C196 C197 1.415 1_455 S
C196 C198 1.501 . S
C197 H188 0.931 . S
C197 C193 1.382 . S
C197 C196 1.415 1_655 S
C198 C196 1.501 . S
C198 C199 1.384 . S
C198 C203 1.408 1_556 S
C199 H189 0.930 . S
C199 C198 1.384 . S
C199 C200 1.389 . S
C200 C199 1.389 . S
C200 C201 1.405 . S
C201 H190 0.930 . S
C201 C200 1.405 . S
C201 C202 1.364 1_556 S
C202 C201 1.364 1_554 S
C202 C203 1.400 . S
C203 H191 0.931 . S
C203 C198 1.408 1_554 S
C203 C202 1.400 . S
H204 C210 0.930 . S
H205 C213 0.931 . S
H206 C215 0.931 1_556 S
H207 C217 0.930 1_556 S
H208 C219 0.930 . S
H209 C221 0.931 . S
C210 H204 0.930 . S
C210 C211 1.380 . S
C210 C212 1.394 . S
C211 C210 1.380 . S
C211 C215 1.382 . S
C212 C210 1.394 . S
C212 C213 1.400 . S
C213 H205 0.931 . S
C213 C212 1.400 . S
C213 C214 1.375 . S
C214 C213 1.375 . S
C214 C215 1.415 . S
C214 C216 1.501 . S
C215 H206 0.931 1_554 S
C215 C211 1.382 . S
C215 C214 1.415 . S
C216 C214 1.501 . S
C216 C217 1.384 . S
C216 C221 1.408 . S
C217 H207 0.930 1_554 S
C217 C216 1.384 . S
C217 C218 1.389 . S
C218 C217 1.389 . S
C218 C219 1.405 . S
C219 H208 0.930 . S
C219 C218 1.405 . S
C219 C220 1.364 . S
C220 C219 1.364 . S
C220 C221 1.400 . S
C221 H209 0.931 . S
C221 C216 1.408 . S
C221 C220 1.400 . S
H222 C228 0.930 . S
H223 C231 0.931 . S
H224 C233 0.931 . S
H225 C235 0.930 . S
H226 C237 0.930 . S
H227 C239 0.931 . S
C228 H222 0.930 . S
C228 C229 1.380 . S
C228 C230 1.394 . S
C229 C228 1.380 . S
C229 C233 1.382 . S
C230 C228 1.394 . S
C230 C231 1.400 . S
C231 H223 0.931 . S
C231 C230 1.400 . S
C231 C232 1.375 . S
C232 C231 1.375 . S
C232 C233 1.415 . S
C232 C234 1.501 . S
C233 H224 0.931 . S
C233 C229 1.382 . S
C233 C232 1.415 . S
C234 C232 1.501 . S
C234 C235 1.384 . S
C234 C239 1.408 . S
C235 H225 0.930 . S
C235 C234 1.384 . S
C235 C236 1.389 . S
C236 C235 1.389 . S
C236 C237 1.405 . S
C237 H226 0.930 . S
C237 C236 1.405 . S
C237 C238 1.364 . S
C238 C237 1.364 . S
C238 C239 1.400 . S
C239 H227 0.931 . S
C239 C234 1.408 . S
C239 C238 1.400 . S
H240 C246 0.930 . S
H241 C249 0.931 . S
H242 C251 0.931 . S
H243 C253 0.930 . S
H244 C255 0.930 . S
H245 C257 0.931 . S
C246 H240 0.930 . S
C246 C247 1.380 . S
C246 C248 1.394 . S
C247 C246 1.380 . S
C247 C251 1.382 . S
C248 C246 1.394 . S
C248 C249 1.400 . S
C249 H241 0.931 . S
C249 C248 1.400 . S
C249 C250 1.375 . S
C250 C249 1.375 . S
C250 C251 1.415 . S
C250 C252 1.501 1_565 S
C251 H242 0.931 . S
C251 C247 1.382 . S
C251 C250 1.415 . S
C252 C250 1.501 1_545 S
C252 C253 1.384 . S
C252 C257 1.408 . S
C253 H243 0.930 . S
C253 C252 1.384 . S
C253 C254 1.389 . S
C254 C253 1.389 . S
C254 C255 1.405 . S
C255 H244 0.930 . S
C255 C254 1.405 . S
C255 C256 1.364 . S
C256 C255 1.364 . S
C256 C257 1.400 . S
C257 H245 0.931 . S
C257 C252 1.408 . S
C257 C256 1.400 . S
H258 C264 0.930 . S
H259 C267 0.931 . S
H260 C269 0.931 . S
H261 C271 0.930 . S
H262 C273 0.930 . S
H263 C275 0.931 . S
C264 H258 0.930 . S
C264 C265 1.380 . S
C264 C266 1.394 . S
C265 C264 1.380 . S
C265 C269 1.382 . S
C266 C264 1.394 . S
C266 C267 1.400 . S
C267 H259 0.931 . S
C267 C266 1.400 . S
C267 C268 1.375 . S
C268 C267 1.375 . S
C268 C269 1.415 . S
C268 C270 1.501 . S
C269 H260 0.931 . S
C269 C265 1.382 . S
C269 C268 1.415 . S
C270 C268 1.501 . S
C270 C271 1.384 . S
C270 C275 1.408 . S
C271 H261 0.930 . S
C271 C270 1.384 . S
C271 C272 1.389 . S
C272 C271 1.389 . S
C272 C273 1.405 . S
C273 H262 0.930 . S
C273 C272 1.405 . S
C273 C274 1.364 . S
C274 C273 1.364 . S
C274 C275 1.400 . S
C275 H263 0.931 . S
C275 C270 1.408 . S
C275 C274 1.400 . S
H276 C282 0.930 . S
H277 C285 0.931 . S
H278 C287 0.931 . S
H279 C289 0.930 . S
H280 C291 0.930 . S
H281 C293 0.931 . S
C282 H276 0.930 . S
C282 C283 1.380 1_655 S
C282 C284 1.394 . S
C283 C282 1.380 1_455 S
C283 C287 1.382 . S
C284 C282 1.394 . S
C284 C285 1.400 . S
C285 H277 0.931 . S
C285 C284 1.400 . S
C285 C286 1.375 . S
C286 C285 1.375 . S
C286 C287 1.415 1_655 S
C286 C288 1.501 1_545 S
C287 H278 0.931 . S
C287 C283 1.382 . S
C287 C286 1.415 1_455 S
C288 C286 1.501 1_565 S
C288 C289 1.384 1_655 S
C288 C293 1.408 . S
C289 H279 0.930 . S
C289 C288 1.384 1_455 S
C289 C290 1.389 . S
C290 C289 1.389 . S
C290 C291 1.405 1_455 S
C291 H280 0.930 . S
C291 C290 1.405 1_655 S
C291 C292 1.364 . S
C292 C291 1.364 . S
C292 C293 1.400 . S
C293 H281 0.931 . S
C293 C288 1.408 . S
C293 C292 1.400 . S
H294 C300 0.930 . S
H295 C303 0.931 1_554 S
H296 C305 0.931 . S
H297 C307 0.930 . S
H298 C309 0.930 . S
H299 C311 0.931 . S
C300 H294 0.930 . S
C300 C301 1.380 . S
C300 C302 1.394 . S
C301 C300 1.380 . S
C301 C305 1.382 . S
C302 C300 1.394 . S
C302 C303 1.400 . S
C303 H295 0.931 1_556 S
C303 C302 1.400 . S
C303 C304 1.370 1_556 S
C304 C303 1.370 1_554 S
C304 C305 1.405 1_554 S
C304 C306 1.515 . S
C305 H296 0.931 . S
C305 C301 1.382 . S
C305 C304 1.405 1_556 S
C306 C304 1.515 . S
C306 C307 1.384 . S
C306 C311 1.408 . S
C307 H297 0.930 . S
C307 C306 1.384 . S
C307 C308 1.389 . S
C308 C307 1.389 . S
C308 C309 1.405 . S
C309 H298 0.930 . S
C309 C308 1.405 . S
C309 C310 1.364 . S
C310 C309 1.364 . S
C310 C311 1.400 . S
C311 H299 0.931 . S
C311 C306 1.408 . S
C311 C310 1.400 . S
H312 C318 0.930 . S
H313 C321 0.931 1_544 S
H314 C323 0.931 . S
H315 C325 0.930 . S
H316 C327 0.930 . S
H317 C329 0.931 1_545 S
C318 H312 0.930 . S
C318 C319 1.380 . S
C318 C320 1.394 . S
C319 C318 1.380 . S
C319 C323 1.382 . S
C320 C318 1.394 . S
C320 C321 1.400 . S
C321 H313 0.931 1_566 S
C321 C320 1.400 . S
C321 C322 1.375 1_556 S
C322 C321 1.375 1_554 S
C322 C323 1.415 1_554 S
C322 C324 1.501 . S
C323 H314 0.931 . S
C323 C319 1.382 . S
C323 C322 1.415 1_556 S
C324 C322 1.501 . S
C324 C325 1.384 . S
C324 C329 1.408 . S
C325 H315 0.930 . S
C325 C324 1.384 . S
C325 C326 1.389 . S
C326 C325 1.389 . S
C326 C327 1.405 . S
C327 H316 0.930 . S
C327 C326 1.405 . S
C327 C328 1.364 . S
C328 C327 1.364 . S
C328 C329 1.400 . S
C329 H317 0.931 1_565 S
C329 C324 1.408 . S
C329 C328 1.400 . S
H330 C336 0.930 . S
H331 C339 0.931 . S
H332 C341 0.931 . S
H333 C343 0.930 . S
H334 C345 0.930 . S
H335 C347 0.931 . S
C336 H330 0.930 . S
C336 C337 1.380 . S
C336 C338 1.394 . S
C337 C336 1.380 . S
C337 C341 1.382 . S
C338 C336 1.394 . S
C338 C339 1.400 . S
C339 H331 0.931 . S
C339 C338 1.400 . S
C339 C340 1.375 . S
C340 C339 1.375 . S
C340 C341 1.415 . S
C340 C342 1.501 . S
C341 H332 0.931 . S
C341 C337 1.382 . S
C341 C340 1.415 . S
C342 C340 1.501 . S
C342 C343 1.384 . S
C342 C347 1.408 . S
C343 H333 0.930 . S
C343 C342 1.384 . S
C343 C344 1.389 . S
C344 C343 1.389 . S
C344 C345 1.405 . S
C345 H334 0.930 . S
C345 C344 1.405 . S
C345 C346 1.364 . S
C346 C345 1.364 . S
C346 C347 1.400 . S
C347 H335 0.931 . S
C347 C342 1.408 . S
C347 C346 1.400 . S
H348 C354 0.930 . S
H349 C357 0.931 1_565 S
H350 C359 0.931 . S
H351 C361 0.930 . S
H352 C363 0.930 . S
H353 C365 0.931 1_565 S
C354 H348 0.930 . S
C354 C355 1.380 . S
C354 C356 1.394 . S
C355 C354 1.380 . S
C355 C359 1.382 . S
C356 C354 1.394 . S
C356 C357 1.400 . S
C357 H349 0.931 1_545 S
C357 C356 1.400 . S
C357 C358 1.375 . S
C358 C357 1.375 . S
C358 C359 1.415 . S
C358 C360 1.501 . S
C359 H350 0.931 . S
C359 C355 1.382 . S
C359 C358 1.415 . S
C360 C358 1.501 . S
C360 C361 1.384 . S
C360 C365 1.408 . S
C361 H351 0.930 . S
C361 C360 1.384 . S
C361 C362 1.389 . S
C362 C361 1.389 . S
C362 C363 1.405 . S
C363 H352 0.930 . S
C363 C362 1.405 . S
C363 C364 1.364 . S
C364 C363 1.364 . S
C364 C365 1.400 . S
C365 H353 0.931 1_545 S
C365 C360 1.408 . S
C365 C364 1.400 . S
H366 C372 0.930 . S
H367 C375 0.931 . S
H368 C377 0.931 . S
H369 C379 0.930 . S
H370 C381 0.930 . S
H371 C383 0.931 . S
C372 H366 0.930 . S
C372 C373 1.380 . S
C372 C374 1.394 . S
C373 C372 1.380 . S
C373 C377 1.382 . S
C374 C372 1.394 . S
C374 C375 1.400 . S
C375 H367 0.931 . S
C375 C374 1.400 . S
C375 C376 1.375 . S
C376 C375 1.375 . S
C376 C377 1.415 . S
C376 C378 1.501 . S
C377 H368 0.931 . S
C377 C373 1.382 . S
C377 C376 1.415 . S
C378 C376 1.501 . S
C378 C379 1.384 . S
C378 C383 1.408 . S
C379 H369 0.930 . S
C379 C378 1.384 . S
C379 C380 1.389 . S
C380 C379 1.389 . S
C380 C381 1.405 . S
C381 H370 0.930 . S
C381 C380 1.405 . S
C381 C382 1.364 . S
C382 C381 1.364 . S
C382 C383 1.400 . S
C383 H371 0.931 . S
C383 C378 1.408 . S
C383 C382 1.400 . S
H384 C390 0.930 . S
H385 C393 0.930 . S
H386 C394 0.930 . S
H387 C395 0.930 . S
H388 C398 0.930 . S
H389 C399 0.930 . S
C390 H384 0.930 . S
C390 C391 1.355 1_655 S
C390 C392 1.415 1_554 S
C391 C390 1.355 1_455 S
C391 C393 1.419 . S
C392 C390 1.415 1_556 S
C392 C397 1.425 1_655 S
C392 C399 1.409 . S
C393 H385 0.930 . S
C393 C391 1.419 . S
C393 C394 1.362 . S
C394 H386 0.930 . S
C394 C393 1.362 . S
C394 C397 1.409 1_554 S
C395 H387 0.930 . S
C395 C396 1.355 . S
C395 C397 1.415 . S
C396 C395 1.355 . S
C396 C398 1.419 1_455 S
C397 C392 1.425 1_455 S
C397 C394 1.409 1_556 S
C397 C395 1.415 . S
C398 H388 0.930 . S
C398 C396 1.419 1_655 S
C398 C399 1.362 . S
C399 H389 0.930 . S
C399 C392 1.409 . S
C399 C398 1.362 . S
H400 C406 0.930 . S
H401 C409 0.930 . S
H402 C410 0.930 . S
H403 C411 0.930 . S
H404 C414 0.930 . S
H405 C415 0.930 . S
C406 H400 0.930 . S
C406 C407 1.355 . S
C406 C408 1.415 . S
C407 C406 1.355 . S
C407 C409 1.419 . S
C408 C406 1.415 . S
C408 C413 1.425 . S
C408 C415 1.409 . S
C409 H401 0.930 . S
C409 C407 1.419 . S
C409 C410 1.362 . S
C410 H402 0.930 . S
C410 C409 1.362 . S
C410 C413 1.409 . S
C411 H403 0.930 . S
C411 C412 1.355 . S
C411 C413 1.415 . S
C412 C411 1.355 . S
C412 C414 1.419 . S
C413 C408 1.425 . S
C413 C410 1.409 . S
C413 C411 1.415 . S
C414 H404 0.930 . S
C414 C412 1.419 . S
C414 C415 1.362 . S
C415 H405 0.930 . S
C415 C408 1.409 . S
C415 C414 1.362 . S
H416 C422 0.930 . S
H417 C425 0.930 . S
H418 C426 0.930 . S
H419 C427 0.930 . S
H420 C430 0.930 . S
H421 C431 0.930 . S
C422 H416 0.930 . S
C422 C423 1.355 . S
C422 C424 1.415 . S
C423 C422 1.355 . S
C423 C425 1.419 . S
C424 C422 1.415 . S
C424 C429 1.425 . S
C424 C431 1.409 . S
C425 H417 0.930 . S
C425 C423 1.419 . S
C425 C426 1.362 . S
C426 H418 0.930 . S
C426 C425 1.362 . S
C426 C429 1.409 . S
C427 H419 0.930 . S
C427 C428 1.355 . S
C427 C429 1.415 . S
C428 C427 1.355 . S
C428 C430 1.419 . S
C429 C424 1.425 . S
C429 C426 1.409 . S
C429 C427 1.415 . S
C430 H420 0.930 . S
C430 C428 1.419 . S
C430 C431 1.362 . S
C431 H421 0.930 . S
C431 C424 1.409 . S
C431 C430 1.362 . S
H432 C438 0.930 . S
H433 C441 0.930 . S
H434 C442 0.930 . S
H435 C443 0.930 . S
H436 C446 0.930 . S
H437 C447 0.930 . S
C438 H432 0.930 . S
C438 C439 1.355 . S
C438 C440 1.415 . S
C439 C438 1.355 . S
C439 C441 1.419 . S
C440 C438 1.415 . S
C440 C445 1.425 . S
C440 C447 1.409 . S
C441 H433 0.930 . S
C441 C439 1.419 . S
C441 C442 1.362 . S
C442 H434 0.930 . S
C442 C441 1.362 . S
C442 C445 1.409 . S
C443 H435 0.930 . S
C443 C444 1.355 . S
C443 C445 1.415 . S
C444 C443 1.355 . S
C444 C446 1.419 . S
C445 C440 1.425 . S
C445 C442 1.409 . S
C445 C443 1.415 . S
C446 H436 0.930 . S
C446 C444 1.419 . S
C446 C447 1.362 . S
C447 H437 0.930 . S
C447 C440 1.409 . S
C447 C446 1.362 . S
H448 C454 0.930 . S
H449 C457 0.930 . S
H450 C458 0.930 . S
H451 C459 0.930 . S
H452 C462 0.930 . S
H453 C463 0.930 . S
C454 H448 0.930 . S
C454 C455 1.355 1_455 S
C454 C456 1.415 . S
C455 C454 1.355 1_655 S
C455 C457 1.419 . S
C456 C454 1.415 . S
C456 C461 1.425 1_455 S
C456 C463 1.409 . S
C457 H449 0.930 . S
C457 C455 1.419 . S
C457 C458 1.362 . S
C458 H450 0.930 . S
C458 C457 1.362 . S
C458 C461 1.409 . S
C459 H451 0.930 . S
C459 C460 1.355 1_655 S
C459 C461 1.415 . S
C460 C459 1.355 1_455 S
C460 C462 1.419 . S
C461 C456 1.425 1_655 S
C461 C458 1.409 . S
C461 C459 1.415 . S
C462 H452 0.930 . S
C462 C460 1.419 . S
C462 C463 1.362 . S
C463 H453 0.930 . S
C463 C456 1.409 . S
C463 C462 1.362 . S
H464 C470 0.930 . S
H465 C473 0.930 . S
H466 C474 0.930 . S
H467 C475 0.930 . S
H468 C478 0.930 . S
H469 C479 0.930 . S
C470 H464 0.930 . S
C470 C471 1.355 . S
C470 C472 1.415 . S
C471 C470 1.355 . S
C471 C473 1.419 . S
C472 C470 1.415 . S
C472 C477 1.425 . S
C472 C479 1.409 . S
C473 H465 0.930 . S
C473 C471 1.419 . S
C473 C474 1.362 . S
C474 H466 0.930 . S
C474 C473 1.362 . S
C474 C477 1.409 . S
C475 H467 0.930 . S
C475 C476 1.355 . S
C475 C477 1.415 . S
C476 C475 1.355 . S
C476 C478 1.419 . S
C477 C472 1.425 . S
C477 C474 1.409 . S
C477 C475 1.415 . S
C478 H468 0.930 . S
C478 C476 1.419 . S
C478 C479 1.362 . S
C479 H469 0.930 . S
C479 C472 1.409 . S
C479 C478 1.362 . S
H480 C486 0.930 . S
H481 C489 0.930 . S
H482 C490 0.930 . S
H483 C491 0.930 . S
H484 C494 0.930 . S
H485 C495 0.930 . S
C486 H480 0.930 . S
C486 C487 1.355 1_554 S
C486 C488 1.415 . S
C487 C486 1.355 1_556 S
C487 C489 1.419 . S
C488 C486 1.415 . S
C488 C493 1.425 . S
C488 C495 1.409 . S
C489 H481 0.930 . S
C489 C487 1.419 . S
C489 C490 1.362 1_556 S
C490 H482 0.930 . S
C490 C489 1.362 1_554 S
C490 C493 1.409 . S
C491 H483 0.930 . S
C491 C492 1.355 . S
C491 C493 1.415 . S
C492 C491 1.355 . S
C492 C494 1.419 . S
C493 C488 1.425 . S
C493 C490 1.409 . S
C493 C491 1.415 . S
C494 H484 0.930 . S
C494 C492 1.419 . S
C494 C495 1.362 . S
C495 H485 0.930 . S
C495 C488 1.409 . S
C495 C494 1.362 . S
H496 C502 0.930 . S
H497 C505 0.930 . S
H498 C506 0.930 . S
H499 C507 0.930 . S
H500 C510 0.930 . S
H501 C511 0.930 . S
C502 H496 0.930 . S
C502 C503 1.355 . S
C502 C504 1.415 . S
C503 C502 1.355 . S
C503 C505 1.419 . S
C504 C502 1.415 . S
C504 C509 1.425 . S
C504 C511 1.409 . S
C505 H497 0.930 . S
C505 C503 1.419 . S
C505 C506 1.362 . S
C506 H498 0.930 . S
C506 C505 1.362 . S
C506 C509 1.409 . S
C507 H499 0.930 . S
C507 C508 1.355 . S
C507 C509 1.415 . S
C508 C507 1.355 . S
C508 C510 1.419 . S
C509 C504 1.425 . S
C509 C506 1.409 . S
C509 C507 1.415 . S
C510 H500 0.930 . S
C510 C508 1.419 . S
C510 C511 1.362 . S
C511 H501 0.930 . S
C511 C504 1.409 . S
C511 C510 1.362 . S
H512 C518 0.930 . S
H513 C521 0.930 . S
H514 C522 0.930 . S
H515 C523 0.930 . S
H516 C526 0.930 . S
H517 C527 0.930 . S
C518 H512 0.930 . S
C518 C519 1.355 1_565 S
C518 C520 1.415 1_455 S
C519 C518 1.355 1_545 S
C519 C521 1.419 . S
C520 C518 1.415 1_655 S
C520 C525 1.425 1_565 S
C520 C527 1.409 . S
C521 H513 0.930 . S
C521 C519 1.419 . S
C521 C522 1.362 1_455 S
C522 H514 0.930 . S
C522 C521 1.362 1_655 S
C522 C525 1.409 . S
C523 H515 0.930 . S
C523 C524 1.355 1_545 S
C523 C525 1.415 . S
C524 C523 1.355 1_565 S
C524 C526 1.419 . S
C525 C520 1.425 1_545 S
C525 C522 1.409 . S
C525 C523 1.415 . S
C526 H516 0.930 . S
C526 C524 1.419 . S
C526 C527 1.362 . S
C527 H517 0.930 . S
C527 C520 1.409 . S
C527 C526 1.362 . S
H528 C534 0.930 . S
H529 C537 0.930 . S
H530 C538 0.930 . S
H531 C539 0.930 . S
H532 C542 0.930 . S
H533 C543 0.930 . S
C534 H528 0.930 . S
C534 C535 1.355 . S
C534 C536 1.415 . S
C535 C534 1.355 . S
C535 C537 1.419 . S
C536 C534 1.415 . S
C536 C541 1.425 . S
C536 C543 1.409 . S
C537 H529 0.930 . S
C537 C535 1.419 . S
C537 C538 1.362 . S
C538 H530 0.930 . S
C538 C537 1.362 . S
C538 C541 1.409 . S
C539 H531 0.930 . S
C539 C540 1.355 . S
C539 C541 1.415 . S
C540 C539 1.355 . S
C540 C542 1.419 . S
C541 C536 1.425 . S
C541 C538 1.409 . S
C541 C539 1.415 . S
C542 H532 0.930 . S
C542 C540 1.419 . S
C542 C543 1.362 . S
C543 H533 0.930 . S
C543 C536 1.409 . S
C543 C542 1.362 . S
H544 C550 0.930 . S
H545 C553 0.930 . S
H546 C554 0.930 . S
H547 C555 0.930 . S
H548 C558 0.930 1_554 S
H549 C559 0.930 . S
C550 H544 0.930 . S
C550 C551 1.355 . S
C550 C552 1.415 . S
C551 C550 1.355 . S
C551 C553 1.419 1_545 S
C552 C550 1.415 . S
C552 C557 1.422 1_545 S
C552 C559 1.409 . S
C553 H545 0.930 . S
C553 C551 1.419 1_565 S
C553 C554 1.362 . S
C554 H546 0.930 . S
C554 C553 1.362 . S
C554 C557 1.412 . S
C555 H547 0.930 . S
C555 C556 1.355 1_565 S
C555 C557 1.415 . S
C556 C555 1.355 1_545 S
C556 C558 1.419 . S
C557 C552 1.422 1_565 S
C557 C554 1.412 . S
C557 C555 1.415 . S
C558 H548 0.930 1_556 S
C558 C556 1.419 . S
C558 C559 1.362 . S
C559 H549 0.930 . S
C559 C552 1.409 . S
C559 C558 1.362 . S
H560 C566 0.930 . S
H561 C569 0.930 . S
H562 C570 0.930 . S
H563 C571 0.930 . S
H564 C574 0.930 . S
H565 C575 0.930 . S
C566 H560 0.930 . S
C566 C567 1.355 . S
C566 C568 1.415 . S
C567 C566 1.355 . S
C567 C569 1.419 . S
C568 C566 1.415 . S
C568 C573 1.425 . S
C568 C575 1.409 . S
C569 H561 0.930 . S
C569 C567 1.419 . S
C569 C570 1.362 . S
C570 H562 0.930 . S
C570 C569 1.362 . S
C570 C573 1.409 . S
C571 H563 0.930 . S
C571 C572 1.355 . S
C571 C573 1.415 . S
C572 C571 1.355 . S
C572 C574 1.419 . S
C573 C568 1.425 . S
C573 C570 1.409 . S
C573 C571 1.415 . S
C574 H564 0.930 . S
C574 C572 1.419 . S
C574 C575 1.362 . S
C575 H565 0.930 . S
C575 C568 1.409 . S
C575 C574 1.362 . S
H576 C582 0.930 . S
H577 C585 0.930 . S
H578 C586 0.930 . S
H579 C587 0.930 . S
H580 C590 0.930 . S
H581 C591 0.930 . S
C582 H576 0.930 . S
C582 C583 1.355 1_565 S
C582 C584 1.415 1_455 S
C583 C582 1.355 1_545 S
C583 C585 1.419 . S
C584 C582 1.415 1_655 S
C584 C589 1.425 1_565 S
C584 C591 1.409 . S
C585 H577 0.930 . S
C585 C583 1.419 . S
C585 C586 1.362 1_455 S
C586 H578 0.930 . S
C586 C585 1.362 1_655 S
C586 C589 1.409 . S
C587 H579 0.930 . S
C587 C588 1.355 . S
C587 C589 1.415 . S
C588 C587 1.355 . S
C588 C590 1.419 1_545 S
C589 C584 1.425 1_545 S
C589 C586 1.409 . S
C589 C587 1.415 . S
C590 H580 0.930 . S
C590 C588 1.419 1_565 S
C590 C591 1.362 . S
C591 H581 0.930 . S
C591 C584 1.409 . S
C591 C590 1.362 . S
H592 C598 0.930 . S
H593 C601 0.930 . S
H594 C602 0.930 . S
H595 C603 0.930 . S
H596 C606 0.930 . S
H597 C607 0.930 . S
C598 H592 0.930 . S
C598 C599 1.355 . S
C598 C600 1.415 . S
C599 C598 1.355 . S
C599 C601 1.419 . S
C600 C598 1.415 . S
C600 C605 1.425 . S
C600 C607 1.409 . S
C601 H593 0.930 . S
C601 C599 1.419 . S
C601 C602 1.362 . S
C602 H594 0.930 . S
C602 C601 1.362 . S
C602 C605 1.409 . S
C603 H595 0.930 . S
C603 C604 1.355 . S
C603 C605 1.415 . S
C604 C603 1.355 . S
C604 C606 1.419 . S
C605 C600 1.425 . S
C605 C602 1.409 . S
C605 C603 1.415 . S
C606 H596 0.930 . S
C606 C604 1.419 . S
C606 C607 1.362 . S
C607 H597 0.930 . S
C607 C600 1.409 . S
C607 C606 1.362 . S
H608 C614 0.930 . S
H609 C617 0.930 . S
H610 C618 0.930 . S
H611 C619 0.930 . S
H612 C622 0.930 . S
H613 C623 0.930 . S
C614 H608 0.930 . S
C614 C615 1.355 . S
C614 C616 1.415 . S
C615 C614 1.355 . S
C615 C617 1.419 1_565 S
C616 C614 1.415 . S
C616 C621 1.425 1_565 S
C616 C623 1.409 . S
C617 H609 0.930 . S
C617 C615 1.419 1_545 S
C617 C618 1.362 . S
C618 H610 0.930 . S
C618 C617 1.362 . S
C618 C621 1.409 . S
C619 H611 0.930 . S
C619 C620 1.355 1_545 S
C619 C621 1.415 . S
C620 C619 1.355 1_565 S
C620 C622 1.419 . S
C621 C616 1.425 1_545 S
C621 C618 1.409 . S
C621 C619 1.415 . S
C622 H612 0.930 . S
C622 C620 1.419 . S
C622 C623 1.362 . S
C623 H613 0.930 . S
C623 C616 1.409 . S
C623 C622 1.362 . S
H624 C630 0.930 . S
H625 C633 0.930 . S
H626 C634 0.930 . S
H627 C635 0.930 . S
H628 C638 0.930 . S
H629 C639 0.930 . S
C630 H624 0.930 . S
C630 C631 1.355 . S
C630 C632 1.415 . S
C631 C630 1.355 . S
C631 C633 1.419 . S
C632 C630 1.415 . S
C632 C637 1.425 . S
C632 C639 1.409 . S
C633 H625 0.930 . S
C633 C631 1.419 . S
C633 C634 1.362 . S
C634 H626 0.930 . S
C634 C633 1.362 . S
C634 C637 1.409 . S
C635 H627 0.930 . S
C635 C636 1.355 . S
C635 C637 1.415 . S
C636 C635 1.355 . S
C636 C638 1.419 . S
C637 C632 1.425 . S
C637 C634 1.409 . S
C637 C635 1.415 . S
C638 H628 0.930 . S
C638 C636 1.419 . S
C638 C639 1.362 . S
C639 H629 0.930 . S
C639 C632 1.409 . S
C639 C638 1.362 . S
H640 C646 0.930 1_545 S
H641 C649 0.930 . S
H642 C650 0.930 . S
H643 C651 0.930 . S
H644 C654 0.930 . S
H645 C655 0.930 . S
C646 H640 0.930 1_565 S
C646 C647 1.367 1_565 S
C646 C648 1.415 . S
C647 C646 1.367 1_545 S
C647 C649 1.404 1_556 S
C648 C646 1.415 . S
C648 C653 1.425 1_556 S
C648 C655 1.409 . S
C649 H641 0.930 . S
C649 C647 1.404 1_554 S
C649 C650 1.362 1_545 S
C650 H642 0.930 . S
C650 C649 1.362 1_565 S
C650 C653 1.409 . S
C651 H643 0.930 . S
C651 C652 1.355 1_554 S
C651 C653 1.415 . S
C652 C651 1.355 1_556 S
C652 C654 1.419 . S
C653 C648 1.425 1_554 S
C653 C650 1.409 . S
C653 C651 1.415 . S
C654 H644 0.930 . S
C654 C652 1.419 . S
C654 C655 1.362 . S
C655 H645 0.930 . S
C655 C648 1.409 . S
C655 C654 1.362 . S
H656 C662 0.930 . S
H657 C665 0.930 . S
H658 C666 0.930 . S
H659 C667 0.930 . S
H660 C670 0.930 1_455 S
H661 C671 0.930 1_455 S
C662 H656 0.930 . S
C662 C663 1.355 . S
C662 C664 1.415 . S
C663 C662 1.355 . S
C663 C665 1.419 . S
C664 C662 1.415 . S
C664 C669 1.425 . S
C664 C671 1.409 . S
C665 H657 0.930 . S
C665 C663 1.419 . S
C665 C666 1.362 . S
C666 H658 0.930 . S
C666 C665 1.362 . S
C666 C669 1.409 . S
C667 H659 0.930 . S
C667 C668 1.355 . S
C667 C669 1.415 . S
C668 C667 1.355 . S
C668 C670 1.419 . S
C669 C664 1.425 . S
C669 C666 1.409 . S
C669 C667 1.415 . S
C670 H660 0.930 1_655 S
C670 C668 1.419 . S
C670 C671 1.362 . S
C671 H661 0.930 1_655 S
C671 C664 1.409 . S
C671 C670 1.362 . S
H672 C678 0.930 . S
H673 C681 0.930 . S
H674 C682 0.930 . S
H675 C683 0.930 . S
H676 C686 0.930 . S
H677 C687 0.930 . S
C678 H672 0.930 . S
C678 C679 1.355 . S
C678 C680 1.415 . S
C679 C678 1.355 . S
C679 C681 1.419 . S
C680 C678 1.415 . S
C680 C685 1.425 . S
C680 C687 1.409 . S
C681 H673 0.930 . S
C681 C679 1.419 . S
C681 C682 1.362 . S
C682 H674 0.930 . S
C682 C681 1.362 . S
C682 C685 1.409 . S
C683 H675 0.930 . S
C683 C684 1.355 . S
C683 C685 1.415 . S
C684 C683 1.355 . S
C684 C686 1.419 . S
C685 C680 1.425 . S
C685 C682 1.409 . S
C685 C683 1.415 . S
C686 H676 0.930 . S
C686 C684 1.419 . S
C686 C687 1.362 . S
C687 H677 0.930 . S
C687 C680 1.409 . S
C687 C686 1.362 . S
H688 C694 0.930 . S
H689 C697 0.930 . S
H690 C698 0.930 . S
H691 C699 0.930 . S
H692 C702 0.930 . S
H693 C703 0.930 . S
C694 H688 0.930 . S
C694 C695 1.355 . S
C694 C696 1.415 . S
C695 C694 1.355 . S
C695 C697 1.419 . S
C696 C694 1.415 . S
C696 C701 1.425 . S
C696 C703 1.409 . S
C697 H689 0.930 . S
C697 C695 1.419 . S
C697 C698 1.362 . S
C698 H690 0.930 . S
C698 C697 1.362 . S
C698 C701 1.409 . S
C699 H691 0.930 . S
C699 C700 1.355 . S
C699 C701 1.415 . S
C700 C699 1.355 . S
C700 C702 1.419 . S
C701 C696 1.425 . S
C701 C698 1.409 . S
C701 C699 1.415 . S
C702 H692 0.930 . S
C702 C700 1.419 . S
C702 C703 1.362 . S
C703 H693 0.930 . S
C703 C696 1.409 . S
C703 C702 1.362 . S
H704 C710 0.930 . S
H705 C713 0.930 . S
H706 C714 0.930 . S
H707 C715 0.930 . S
H708 C718 0.930 . S
H709 C719 0.930 . S
C710 H704 0.930 . S
C710 C711 1.355 . S
C710 C712 1.415 . S
C711 C710 1.355 . S
C711 C713 1.419 . S
C712 C710 1.415 . S
C712 C717 1.425 . S
C712 C719 1.409 . S
C713 H705 0.930 . S
C713 C711 1.419 . S
C713 C714 1.362 . S
C714 H706 0.930 . S
C714 C713 1.362 . S
C714 C717 1.409 . S
C715 H707 0.930 . S
C715 C716 1.355 . S
C715 C717 1.415 . S
C716 C715 1.355 . S
C716 C718 1.419 . S
C717 C712 1.425 . S
C717 C714 1.409 . S
C717 C715 1.415 . S
C718 H708 0.930 . S
C718 C716 1.419 . S
C718 C719 1.362 . S
C719 H709 0.930 . S
C719 C712 1.409 . S
C719 C718 1.362 . S
H720 C726 0.930 . S
H721 C729 0.930 1_565 S
H722 C730 0.930 . S
H723 C731 0.930 . S
H724 C734 0.930 . S
H725 C735 0.930 . S
C726 H720 0.930 . S
C726 C727 1.355 . S
C726 C728 1.415 1_565 S
C727 C726 1.355 . S
C727 C729 1.419 1_565 S
C728 C726 1.415 1_545 S
C728 C733 1.425 . S
C728 C735 1.409 . S
C729 H721 0.930 1_545 S
C729 C727 1.419 1_545 S
C729 C730 1.362 . S
C730 H722 0.930 . S
C730 C729 1.362 . S
C730 C733 1.409 . S
C731 H723 0.930 . S
C731 C732 1.355 . S
C731 C733 1.415 . S
C732 C731 1.355 . S
C732 C734 1.419 . S
C733 C728 1.425 . S
C733 C730 1.409 . S
C733 C731 1.415 . S
C734 H724 0.930 . S
C734 C732 1.419 . S
C734 C735 1.362 . S
C735 H725 0.930 . S
C735 C728 1.409 . S
C735 C734 1.362 . S
H736 C742 0.930 . S
H737 C745 0.930 . S
H738 C746 0.930 . S
H739 C747 0.930 . S
H740 C750 0.930 . S
H741 C751 0.930 . S
C742 H736 0.930 . S
C742 C743 1.355 . S
C742 C744 1.415 . S
C743 C742 1.355 . S
C743 C745 1.419 . S
C744 C742 1.415 . S
C744 C749 1.425 . S
C744 C751 1.409 . S
C745 H737 0.930 . S
C745 C743 1.419 . S
C745 C746 1.362 . S
C746 H738 0.930 . S
C746 C745 1.362 . S
C746 C749 1.409 . S
C747 H739 0.930 . S
C747 C748 1.355 . S
C747 C749 1.415 . S
C748 C747 1.355 . S
C748 C750 1.419 . S
C749 C744 1.425 . S
C749 C746 1.409 . S
C749 C747 1.415 . S
C750 H740 0.930 . S
C750 C748 1.419 . S
C750 C751 1.362 . S
C751 H741 0.930 . S
C751 C744 1.409 . S
C751 C750 1.362 . S
H752 C758 0.930 . S
H753 C761 0.930 . S
H754 C762 0.930 . S
H755 C763 0.930 . S
H756 C766 0.930 . S
H757 C767 0.930 . S
C758 H752 0.930 . S
C758 C759 1.355 . S
C758 C760 1.415 . S
C759 C758 1.355 . S
C759 C761 1.419 . S
C760 C758 1.415 . S
C760 C765 1.425 . S
C760 C767 1.409 . S
C761 H753 0.930 . S
C761 C759 1.419 . S
C761 C762 1.362 . S
C762 H754 0.930 . S
C762 C761 1.362 . S
C762 C765 1.409 . S
C763 H755 0.930 . S
C763 C764 1.355 . S
C763 C765 1.415 . S
C764 C763 1.355 . S
C764 C766 1.419 . S
C765 C760 1.425 . S
C765 C762 1.409 . S
C765 C763 1.415 . S
C766 H756 0.930 . S
C766 C764 1.419 . S
C766 C767 1.362 . S
C767 H757 0.930 . S
C767 C760 1.409 . S
C767 C766 1.362 . S
H768 C774 0.930 . S
H769 C777 0.930 . S
H770 C778 0.930 . S
H771 C779 0.930 . S
H772 C782 0.930 1_545 S
H773 C783 0.930 . S
C774 H768 0.930 . S
C774 C775 1.355 . S
C774 C776 1.415 . S
C775 C774 1.355 . S
C775 C777 1.419 . S
C776 C774 1.415 . S
C776 C781 1.425 . S
C776 C783 1.409 . S
C777 H769 0.930 . S
C777 C775 1.419 . S
C777 C778 1.362 . S
C778 H770 0.930 . S
C778 C777 1.362 . S
C778 C781 1.409 . S
C779 H771 0.930 . S
C779 C780 1.355 . S
C779 C781 1.415 . S
C780 C779 1.355 . S
C780 C782 1.419 . S
C781 C776 1.425 . S
C781 C778 1.409 . S
C781 C779 1.415 . S
C782 H772 0.930 1_565 S
C782 C780 1.419 . S
C782 C783 1.362 . S
C783 H773 0.930 . S
C783 C776 1.409 . S
C783 C782 1.362 . S
H784 C790 0.930 . S
H785 C793 0.930 . S
H786 C794 0.930 . S
H787 C795 0.930 . S
H788 C798 0.930 . S
H789 C799 0.930 . S
C790 H784 0.930 . S
C790 C791 1.355 . S
C790 C792 1.415 . S
C791 C790 1.355 . S
C791 C793 1.419 . S
C792 C790 1.415 . S
C792 C797 1.425 . S
C792 C799 1.409 . S
C793 H785 0.930 . S
C793 C791 1.419 . S
C793 C794 1.362 . S
C794 H786 0.930 . S
C794 C793 1.362 . S
C794 C797 1.409 . S
C795 H787 0.930 . S
C795 C796 1.355 . S
C795 C797 1.415 . S
C796 C795 1.355 . S
C796 C798 1.419 . S
C797 C792 1.425 . S
C797 C794 1.409 . S
C797 C795 1.415 . S
C798 H788 0.930 . S
C798 C796 1.419 . S
C798 C799 1.362 . S
C799 H789 0.930 . S
C799 C792 1.409 . S
C799 C798 1.362 . S
H800 C806 0.930 . S
H801 C809 0.930 . S
H802 C810 0.930 . S
H803 C811 0.930 . S
H804 C814 0.930 . S
H805 C815 0.930 . S
C806 H800 0.930 . S
C806 C807 1.355 . S
C806 C808 1.415 1_554 S
C807 C806 1.355 . S
C807 C809 1.419 . S
C808 C806 1.415 1_556 S
C808 C813 1.425 . S
C808 C815 1.409 . S
C809 H801 0.930 . S
C809 C807 1.419 . S
C809 C810 1.362 1_554 S
C810 H802 0.930 . S
C810 C809 1.362 1_556 S
C810 C813 1.409 . S
C811 H803 0.930 . S
C811 C812 1.355 . S
C811 C813 1.415 . S
C812 C811 1.355 . S
C812 C814 1.419 . S
C813 C808 1.425 . S
C813 C810 1.409 . S
C813 C811 1.415 . S
C814 H804 0.930 . S
C814 C812 1.419 . S
C814 C815 1.362 . S
C815 H805 0.930 . S
C815 C808 1.409 . S
C815 C814 1.362 . S
H816 C822 0.930 . S
H817 C825 0.930 . S
H818 C826 0.930 . S
H819 C827 0.930 . S
H820 C830 0.930 . S
H821 C831 0.930 . S
C822 H816 0.930 . S
C822 C823 1.355 . S
C822 C824 1.415 . S
C823 C822 1.355 . S
C823 C825 1.419 . S
C824 C822 1.415 . S
C824 C829 1.425 . S
C824 C831 1.409 . S
C825 H817 0.930 . S
C825 C823 1.419 . S
C825 C826 1.362 . S
C826 H818 0.930 . S
C826 C825 1.362 . S
C826 C829 1.409 . S
C827 H819 0.930 . S
C827 C828 1.355 . S
C827 C829 1.415 . S
C828 C827 1.355 . S
C828 C830 1.419 . S
C829 C824 1.425 . S
C829 C826 1.409 . S
C829 C827 1.415 . S
C830 H820 0.930 . S
C830 C828 1.419 . S
C830 C831 1.362 . S
C831 H821 0.930 . S
C831 C824 1.409 . S
C831 C830 1.362 . S
H832 C838 0.930 . S
H833 C841 0.930 . S
H834 C842 0.930 . S
H835 C843 0.930 . S
H836 C846 0.930 . S
H837 C847 0.930 . S
C838 H832 0.930 . S
C838 C839 1.355 1_554 S
C838 C840 1.415 . S
C839 C838 1.355 1_556 S
C839 C841 1.419 . S
C840 C838 1.415 . S
C840 C845 1.425 . S
C840 C847 1.409 . S
C841 H833 0.930 . S
C841 C839 1.419 . S
C841 C842 1.362 1_556 S
C842 H834 0.930 . S
C842 C841 1.362 1_554 S
C842 C845 1.409 . S
C843 H835 0.930 . S
C843 C844 1.355 . S
C843 C845 1.415 . S
C844 C843 1.355 . S
C844 C846 1.419 . S
C845 C840 1.425 . S
C845 C842 1.409 . S
C845 C843 1.415 . S
C846 H836 0.930 . S
C846 C844 1.419 . S
C846 C847 1.362 . S
C847 H837 0.930 . S
C847 C840 1.409 . S
C847 C846 1.362 . S
H848 C854 0.930 . S
H849 C857 0.930 . S
H850 C858 0.930 . S
H851 C859 0.930 . S
H852 C862 0.930 . S
H853 C863 0.930 . S
C854 H848 0.930 . S
C854 C855 1.355 . S
C854 C856 1.415 . S
C855 C854 1.355 . S
C855 C857 1.419 . S
C856 C854 1.415 . S
C856 C861 1.425 . S
C856 C863 1.409 . S
C857 H849 0.930 . S
C857 C855 1.419 . S
C857 C858 1.362 . S
C858 H850 0.930 . S
C858 C857 1.362 . S
C858 C861 1.409 . S
C859 H851 0.930 . S
C859 C860 1.355 . S
C859 C861 1.415 . S
C860 C859 1.355 . S
C860 C862 1.419 . S
C861 C856 1.425 . S
C861 C858 1.409 . S
C861 C859 1.415 . S
C862 H852 0.930 . S
C862 C860 1.419 . S
C862 C863 1.362 . S
C863 H853 0.930 . S
C863 C856 1.409 . S
C863 C862 1.362 . S
H864 C870 0.930 . S
H865 C873 0.930 . S
H866 C874 0.930 . S
H867 C875 0.930 1_655 S
H868 C878 0.930 . S
H869 C879 0.930 . S
C870 H864 0.930 . S
C870 C871 1.355 . S
C870 C872 1.415 . S
C871 C870 1.355 . S
C871 C873 1.419 1_455 S
C872 C870 1.415 . S
C872 C877 1.425 . S
C872 C879 1.409 . S
C873 H865 0.930 . S
C873 C871 1.419 1_655 S
C873 C874 1.362 . S
C874 H866 0.930 . S
C874 C873 1.362 . S
C874 C877 1.409 1_655 S
C875 H867 0.930 1_455 S
C875 C876 1.355 . S
C875 C877 1.415 . S
C876 C875 1.355 . S
C876 C878 1.419 . S
C877 C872 1.425 . S
C877 C874 1.409 1_455 S
C877 C875 1.415 . S
C878 H868 0.930 . S
C878 C876 1.419 . S
C878 C879 1.362 . S
C879 H869 0.930 . S
C879 C872 1.409 . S
C879 C878 1.362 . S
H880 C886 0.930 . S
H881 C889 0.930 . S
H882 C890 0.930 . S
H883 C891 0.930 . S
H884 C894 0.930 . S
H885 C895 0.930 . S
C886 H880 0.930 . S
C886 C887 1.355 . S
C886 C888 1.415 . S
C887 C886 1.355 . S
C887 C889 1.419 . S
C888 C886 1.415 . S
C888 C893 1.425 . S
C888 C895 1.409 . S
C889 H881 0.930 . S
C889 C887 1.419 . S
C889 C890 1.362 . S
C890 H882 0.930 . S
C890 C889 1.362 . S
C890 C893 1.409 . S
C891 H883 0.930 . S
C891 C892 1.355 . S
C891 C893 1.415 . S
C892 C891 1.355 . S
C892 C894 1.419 . S
C893 C888 1.425 . S
C893 C890 1.409 . S
C893 C891 1.415 . S
C894 H884 0.930 . S
C894 C892 1.419 . S
C894 C895 1.362 . S
C895 H885 0.930 . S
C895 C888 1.409 . S
C895 C894 1.362 . S
H896 C902 0.930 . S
H897 C905 0.930 . S
H898 C906 0.930 . S
H899 C907 0.930 . S
H900 C910 0.930 1_554 S
H901 C911 0.930 . S
C902 H896 0.930 . S
C902 C903 1.355 . S
C902 C904 1.415 . S
C903 C902 1.355 . S
C903 C905 1.419 . S
C904 C902 1.415 . S
C904 C909 1.425 . S
C904 C911 1.409 . S
C905 H897 0.930 . S
C905 C903 1.419 . S
C905 C906 1.362 . S
C906 H898 0.930 . S
C906 C905 1.362 . S
C906 C909 1.409 . S
C907 H899 0.930 . S
C907 C908 1.355 . S
C907 C909 1.415 . S
C908 C907 1.355 . S
C908 C910 1.419 . S
C909 C904 1.425 . S
C909 C906 1.409 . S
C909 C907 1.415 . S
C910 H900 0.930 1_556 S
C910 C908 1.419 . S
C910 C911 1.362 . S
C911 H901 0.930 . S
C911 C904 1.409 . S
C911 C910 1.362 . S
H912 C918 0.930 . S
H913 C921 0.930 . S
H914 C922 0.930 . S
H915 C923 0.930 . S
H916 C926 0.930 . S
H917 C927 0.930 . S
C918 H912 0.930 . S
C918 C919 1.355 . S
C918 C920 1.415 . S
C919 C918 1.355 . S
C919 C921 1.419 . S
C920 C918 1.415 . S
C920 C925 1.425 . S
C920 C927 1.409 . S
C921 H913 0.930 . S
C921 C919 1.419 . S
C921 C922 1.362 . S
C922 H914 0.930 . S
C922 C921 1.362 . S
C922 C925 1.409 . S
C923 H915 0.930 . S
C923 C924 1.355 . S
C923 C925 1.415 . S
C924 C923 1.355 . S
C924 C926 1.419 . S
C925 C920 1.425 . S
C925 C922 1.409 . S
C925 C923 1.415 . S
C926 H916 0.930 . S
C926 C924 1.419 . S
C926 C927 1.362 . S
C927 H917 0.930 . S
C927 C920 1.409 . S
C927 C926 1.362 . S
H928 C934 0.930 . S
H929 C937 0.930 . S
H930 C938 0.930 . S
H931 C939 0.930 . S
H932 C942 0.930 . S
H933 C943 0.930 . S
C934 H928 0.930 . S
C934 C935 1.355 1_455 S
C934 C936 1.415 . S
C935 C934 1.355 1_655 S
C935 C937 1.419 . S
C936 C934 1.415 . S
C936 C941 1.425 . S
C936 C943 1.409 . S
C937 H929 0.930 . S
C937 C935 1.419 . S
C937 C938 1.362 1_655 S
C938 H930 0.930 . S
C938 C937 1.362 1_455 S
C938 C941 1.409 . S
C939 H931 0.930 . S
C939 C940 1.355 . S
C939 C941 1.415 . S
C940 C939 1.355 . S
C940 C942 1.419 . S
C941 C936 1.425 . S
C941 C938 1.409 . S
C941 C939 1.415 . S
C942 H932 0.930 . S
C942 C940 1.419 . S
C942 C943 1.362 . S
C943 H933 0.930 . S
C943 C936 1.409 . S
C943 C942 1.362 . S
H944 C950 0.930 . S
H945 C953 0.930 . S
H946 C954 0.930 . S
H947 C955 0.930 . S
H948 C958 0.930 . S
H949 C959 0.930 . S
C950 H944 0.930 . S
C950 C951 1.355 . S
C950 C952 1.415 . S
C951 C950 1.355 . S
C951 C953 1.419 . S
C952 C950 1.415 . S
C952 C957 1.425 . S
C952 C959 1.409 . S
C953 H945 0.930 . S
C953 C951 1.419 . S
C953 C954 1.362 . S
C954 H946 0.930 . S
C954 C953 1.362 . S
C954 C957 1.409 . S
C955 H947 0.930 . S
C955 C956 1.355 . S
C955 C957 1.415 . S
C956 C955 1.355 . S
C956 C958 1.419 . S
C957 C952 1.425 . S
C957 C954 1.409 . S
C957 C955 1.415 . S
C958 H948 0.930 . S
C958 C956 1.419 . S
C958 C959 1.362 . S
C959 H949 0.930 . S
C959 C952 1.409 . S
C959 C958 1.362 . S
H960 C966 0.930 . S
H961 C969 0.930 . S
H962 C970 0.930 . S
H963 C971 0.930 . S
H964 C974 0.930 . S
H965 C975 0.930 . S
C966 H960 0.930 . S
C966 C967 1.355 . S
C966 C968 1.415 . S
C967 C966 1.355 . S
C967 C969 1.419 . S
C968 C966 1.415 . S
C968 C973 1.425 . S
C968 C975 1.409 . S
C969 H961 0.930 . S
C969 C967 1.419 . S
C969 C970 1.362 . S
C970 H962 0.930 . S
C970 C969 1.362 . S
C970 C973 1.409 . S
C971 H963 0.930 . S
C971 C972 1.355 . S
C971 C973 1.415 . S
C972 C971 1.355 . S
C972 C974 1.419 . S
C973 C968 1.425 . S
C973 C970 1.409 . S
C973 C971 1.415 . S
C974 H964 0.930 . S
C974 C972 1.419 . S
C974 C975 1.362 . S
C975 H965 0.930 . S
C975 C968 1.409 . S
C975 C974 1.362 . S
H976 C982 0.930 . S
H977 C985 0.930 . S
H978 C986 0.930 . S
H979 C987 0.930 . S
H980 C990 0.930 . S
H981 C991 0.930 . S
C982 H976 0.930 . S
C982 C983 1.355 . S
C982 C984 1.415 . S
C983 C982 1.355 . S
C983 C985 1.419 . S
C984 C982 1.415 . S
C984 C989 1.425 . S
C984 C991 1.409 . S
C985 H977 0.930 . S
C985 C983 1.419 . S
C985 C986 1.362 . S
C986 H978 0.930 . S
C986 C985 1.362 . S
C986 C989 1.409 . S
C987 H979 0.930 . S
C987 C988 1.355 . S
C987 C989 1.415 . S
C988 C987 1.355 . S
C988 C990 1.419 . S
C989 C984 1.425 . S
C989 C986 1.409 . S
C989 C987 1.415 . S
C990 H980 0.930 . S
C990 C988 1.419 . S
C990 C991 1.362 . S
C991 H981 0.930 . S
C991 C984 1.409 . S
C991 C990 1.362 . S
H992 C998 0.930 . S
H993 C1001 0.930 1_655 S
H994 C1002 0.930 . S
H995 C1003 0.930 . S
H996 C1006 0.930 . S
H997 C1007 0.930 . S
C998 H992 0.930 . S
C998 C999 1.355 1_455 S
C998 C1000 1.415 . S
C999 C998 1.355 1_655 S
C999 C1001 1.419 1_655 S
C1000 C998 1.415 . S
C1000 C1005 1.425 . S
C1000 C1007 1.409 . S
C1001 H993 0.930 1_455 S
C1001 C999 1.419 1_455 S
C1001 C1002 1.362 . S
C1002 H994 0.930 . S
C1002 C1001 1.362 . S
C1002 C1005 1.409 . S
C1003 H995 0.930 . S
C1003 C1004 1.355 . S
C1003 C1005 1.415 . S
C1004 C1003 1.355 . S
C1004 C1006 1.419 . S
C1005 C1000 1.425 . S
C1005 C1002 1.409 . S
C1005 C1003 1.415 . S
C1006 H996 0.930 . S
C1006 C1004 1.419 . S
C1006 C1007 1.362 . S
C1007 H997 0.930 . S
C1007 C1000 1.409 . S
C1007 C1006 1.362 . S
H1008 C1014 0.930 . S
H1009 C1017 0.930 . S
H1010 C1018 0.930 . S
H1011 C1019 0.930 . S
H1012 C1022 0.930 . S
H1013 C1023 0.930 . S
C1014 H1008 0.930 . S
C1014 C1015 1.355 . S
C1014 C1016 1.415 . S
C1015 C1014 1.355 . S
C1015 C1017 1.419 . S
C1016 C1014 1.415 . S
C1016 C1021 1.425 . S
C1016 C1023 1.409 . S
C1017 H1009 0.930 . S
C1017 C1015 1.419 . S
C1017 C1018 1.362 . S
C1018 H1010 0.930 . S
C1018 C1017 1.362 . S
C1018 C1021 1.409 . S
C1019 H1011 0.930 . S
C1019 C1020 1.355 . S
C1019 C1021 1.415 . S
C1020 C1019 1.355 . S
C1020 C1022 1.419 . S
C1021 C1016 1.425 . S
C1021 C1018 1.409 . S
C1021 C1019 1.415 . S
C1022 H1012 0.930 . S
C1022 C1020 1.419 . S
C1022 C1023 1.362 . S
C1023 H1013 0.930 . S
C1023 C1016 1.409 . S
C1023 C1022 1.362 . S
H1024 C1030 0.930 . S
H1025 C1033 0.930 . S
H1026 C1034 0.930 . S
H1027 C1035 0.930 . S
H1028 C1038 0.930 . S
H1029 C1039 0.930 . S
C1030 H1024 0.930 . S
C1030 C1031 1.355 . S
C1030 C1032 1.415 . S
C1031 C1030 1.355 . S
C1031 C1033 1.419 . S
C1032 C1030 1.415 . S
C1032 C1037 1.425 . S
C1032 C1039 1.409 . S
C1033 H1025 0.930 . S
C1033 C1031 1.419 . S
C1033 C1034 1.362 . S
C1034 H1026 0.930 . S
C1034 C1033 1.362 . S
C1034 C1037 1.409 . S
C1035 H1027 0.930 . S
C1035 C1036 1.355 . S
C1035 C1037 1.415 . S
C1036 C1035 1.355 . S
C1036 C1038 1.419 . S
C1037 C1032 1.425 . S
C1037 C1034 1.409 . S
C1037 C1035 1.415 . S
C1038 H1028 0.930 . S
C1038 C1036 1.419 . S
C1038 C1039 1.362 . S
C1039 H1029 0.930 . S
C1039 C1032 1.409 . S
C1039 C1038 1.362 . S
H1040 C1046 0.928 1_565 S
H1041 C1049 0.930 1_565 S
H1042 C1050 0.930 . S
H1043 C1051 0.930 . S
H1044 C1054 0.930 . S
H1045 C1055 0.930 . S
C1046 H1040 0.928 1_545 S
C1046 C1047 1.354 1_545 S
C1046 C1048 1.416 . S
C1047 C1046 1.354 1_565 S
C1047 C1049 1.419 1_565 S
C1048 C1046 1.416 . S
C1048 C1053 1.425 . S
C1048 C1055 1.409 . S
C1049 H1041 0.930 1_545 S
C1049 C1047 1.419 1_545 S
C1049 C1050 1.362 . S
C1050 H1042 0.930 . S
C1050 C1049 1.362 . S
C1050 C1053 1.409 . S
C1051 H1043 0.930 . S
C1051 C1052 1.355 . S
C1051 C1053 1.415 . S
C1052 C1051 1.355 . S
C1052 C1054 1.419 . S
C1053 C1048 1.425 . S
C1053 C1050 1.409 . S
C1053 C1051 1.415 . S
C1054 H1044 0.930 . S
C1054 C1052 1.419 . S
C1054 C1055 1.362 . S
C1055 H1045 0.930 . S
C1055 C1048 1.409 . S
C1055 C1054 1.362 . S
H1056 C1062 0.930 . S
H1057 C1065 0.930 . S
H1058 C1066 0.930 . S
H1059 C1067 0.930 . S
H1060 C1070 0.930 . S
H1061 C1071 0.930 . S
C1062 H1056 0.930 . S
C1062 C1063 1.355 . S
C1062 C1064 1.415 . S
C1063 C1062 1.355 . S
C1063 C1065 1.419 . S
C1064 C1062 1.415 . S
C1064 C1069 1.425 . S
C1064 C1071 1.409 . S
C1065 H1057 0.930 . S
C1065 C1063 1.419 . S
C1065 C1066 1.362 . S
C1066 H1058 0.930 . S
C1066 C1065 1.362 . S
C1066 C1069 1.409 . S
C1067 H1059 0.930 . S
C1067 C1068 1.355 . S
C1067 C1069 1.415 . S
C1068 C1067 1.355 . S
C1068 C1070 1.419 . S
C1069 C1064 1.425 . S
C1069 C1066 1.409 . S
C1069 C1067 1.415 . S
C1070 H1060 0.930 . S
C1070 C1068 1.419 . S
C1070 C1071 1.362 . S
C1071 H1061 0.930 . S
C1071 C1064 1.409 . S
C1071 C1070 1.362 . S
H1072 C1078 0.930 . S
H1073 C1081 0.930 . S
H1074 C1082 0.930 . S
H1075 C1083 0.930 . S
H1076 C1086 0.930 . S
H1077 C1087 0.930 . S
C1078 H1072 0.930 . S
C1078 C1079 1.355 1_556 S
C1078 C1080 1.415 1_546 S
C1079 C1078 1.355 1_554 S
C1079 C1081 1.419 . S
C1080 C1078 1.415 1_564 S
C1080 C1085 1.425 . S
C1080 C1087 1.409 1_554 S
C1081 H1073 0.930 . S
C1081 C1079 1.419 . S
C1081 C1082 1.362 1_545 S
C1082 H1074 0.930 . S
C1082 C1081 1.362 1_565 S
C1082 C1085 1.409 . S
C1083 H1075 0.930 . S
C1083 C1084 1.355 . S
C1083 C1085 1.415 . S
C1084 C1083 1.355 . S
C1084 C1086 1.419 1_554 S
C1085 C1080 1.425 . S
C1085 C1082 1.409 . S
C1085 C1083 1.415 . S
C1086 H1076 0.930 . S
C1086 C1084 1.419 1_556 S
C1086 C1087 1.362 . S
C1087 H1077 0.930 . S
C1087 C1080 1.409 1_556 S
C1087 C1086 1.362 . S
H1088 C1094 0.930 . S
H1089 C1097 0.930 . S
H1090 C1098 0.930 . S
H1091 C1099 0.930 . S
H1092 C1102 0.930 . S
H1093 C1103 0.930 . S
C1094 H1088 0.930 . S
C1094 C1095 1.355 . S
C1094 C1096 1.415 . S
C1095 C1094 1.355 . S
C1095 C1097 1.419 . S
C1096 C1094 1.415 . S
C1096 C1101 1.425 . S
C1096 C1103 1.409 . S
C1097 H1089 0.930 . S
C1097 C1095 1.419 . S
C1097 C1098 1.362 . S
C1098 H1090 0.930 . S
C1098 C1097 1.362 . S
C1098 C1101 1.409 . S
C1099 H1091 0.930 . S
C1099 C1100 1.355 . S
C1099 C1101 1.415 . S
C1100 C1099 1.355 . S
C1100 C1102 1.419 . S
C1101 C1096 1.425 . S
C1101 C1098 1.409 . S
C1101 C1099 1.415 . S
C1102 H1092 0.930 . S
C1102 C1100 1.419 . S
C1102 C1103 1.362 . S
C1103 H1093 0.930 . S
C1103 C1096 1.409 . S
C1103 C1102 1.362 . S
H1104 C1110 0.930 . S
H1105 C1113 0.930 . S
H1106 C1114 0.930 . S
H1107 C1115 0.930 . S
H1108 C1118 0.930 . S
H1109 C1119 0.930 . S
C1110 H1104 0.930 . S
C1110 C1111 1.355 1_556 S
C1110 C1112 1.415 . S
C1111 C1110 1.355 1_554 S
C1111 C1113 1.419 . S
C1112 C1110 1.415 . S
C1112 C1117 1.425 1_556 S
C1112 C1119 1.409 . S
C1113 H1105 0.930 . S
C1113 C1111 1.419 . S
C1113 C1114 1.362 . S
C1114 H1106 0.930 . S
C1114 C1113 1.362 . S
C1114 C1117 1.409 . S
C1115 H1107 0.930 . S
C1115 C1116 1.355 1_554 S
C1115 C1117 1.415 . S
C1116 C1115 1.355 1_556 S
C1116 C1118 1.419 . S
C1117 C1112 1.425 1_554 S
C1117 C1114 1.409 . S
C1117 C1115 1.415 . S
C1118 H1108 0.930 . S
C1118 C1116 1.419 . S
C1118 C1119 1.362 . S
C1119 H1109 0.930 . S
C1119 C1112 1.409 . S
C1119 C1118 1.362 . S
H1120 C1126 0.930 . S
H1121 C1129 0.930 . S
H1122 C1130 0.930 . S
H1123 C1131 0.930 . S
H1124 C1134 0.930 . S
H1125 C1135 0.930 . S
C1126 H1120 0.930 . S
C1126 C1127 1.355 . S
C1126 C1128 1.415 . S
C1127 C1126 1.355 . S
C1127 C1129 1.419 . S
C1128 C1126 1.415 . S
C1128 C1133 1.425 . S
C1128 C1135 1.409 . S
C1129 H1121 0.930 . S
C1129 C1127 1.419 . S
C1129 C1130 1.362 . S
C1130 H1122 0.930 . S
C1130 C1129 1.362 . S
C1130 C1133 1.409 . S
C1131 H1123 0.930 . S
C1131 C1132 1.355 . S
C1131 C1133 1.415 . S
C1132 C1131 1.355 . S
C1132 C1134 1.419 . S
C1133 C1128 1.425 . S
C1133 C1130 1.409 . S
C1133 C1131 1.415 . S
C1134 H1124 0.930 . S
C1134 C1132 1.419 . S
C1134 C1135 1.362 . S
C1135 H1125 0.930 . S
C1135 C1128 1.409 . S
C1135 C1134 1.362 . S
H1136 C1142 0.930 . S
H1137 C1145 0.930 . S
H1138 C1146 0.930 . S
H1139 C1147 0.930 . S
H1140 C1150 0.930 . S
H1141 C1151 0.930 . S
C1142 H1136 0.930 . S
C1142 C1143 1.355 . S
C1142 C1144 1.415 . S
C1143 C1142 1.355 . S
C1143 C1145 1.419 . S
C1144 C1142 1.415 . S
C1144 C1149 1.425 . S
C1144 C1151 1.409 . S
C1145 H1137 0.930 . S
C1145 C1143 1.419 . S
C1145 C1146 1.362 . S
C1146 H1138 0.930 . S
C1146 C1145 1.362 . S
C1146 C1149 1.409 . S
C1147 H1139 0.930 . S
C1147 C1148 1.355 . S
C1147 C1149 1.415 . S
C1148 C1147 1.355 . S
C1148 C1150 1.419 . S
C1149 C1144 1.425 . S
C1149 C1146 1.409 . S
C1149 C1147 1.415 . S
C1150 H1140 0.930 . S
C1150 C1148 1.419 . S
C1150 C1151 1.362 . S
C1151 H1141 0.930 . S
C1151 C1144 1.409 . S
C1151 C1150 1.362 . S
C396 C373 1.190 . S
C391 C11 1.245 1_455 S
C407 C19 1.422 . S
C412 C326 1.334 . S
C423 C37 1.298 . S
C428 C337 1.179 . S
C444 C362 1.223 . S
C439 C42 1.313 . S
C455 C25 1.274 . S
C460 C380 1.091 . S
C476 C319 1.261 . S
C471 C28 1.345 . S
C492 C344 1.070 . S
C487 C51 1.340 . S
C508 C355 1.296 . S
C503 C5 1.374 . S
C519 C61 1.222 . S
C524 C356 1.174 1_565 S
C540 C382 1.366 . S
C535 C81 1.387 . S
C556 C320 1.129 1_545 S
C551 C89 1.262 . S
C572 C346 1.320 . S
C567 C107 1.294 . S
C583 C56 1.161 . S
C588 C328 1.037 1_545 S
C599 C79 1.366 . S
C604 C338 1.339 . S
C615 C84 1.274 . S
C620 C364 1.205 1_565 S
C636 C374 1.332 . S
C631 C109 1.384 . S
C652 C211 1.266 1_556 S
C647 C103 1.328 . S
C668 C194 1.083 . S
C663 C117 1.254 . S
C684 C220 1.342 . S
C679 C137 1.371 . S
C700 C238 1.044 . S
C695 C140 1.247 . S
C711 C67 1.300 . S
C716 C212 1.214 . S
C727 C70 1.206 . S
C732 C182 1.032 . S
C743 C135 1.361 . S
C748 C236 1.298 . S
C759 C163 1.350 . S
C764 C193 1.286 . S
C780 C247 1.098 . S
C775 C39 1.173 . S
C796 C272 1.355 . S
C791 C47 1.425 . S
C807 C9 1.228 . S
C812 C283 1.075 . S
C823 C14 1.367 . S
C828 C308 1.306 . S
C844 C254 1.180 . S
C839 C53 1.273 . S
C860 C265 1.226 . S
C855 C0 1.286 . S
C871 C23 1.318 . S
C876 C290 1.183 . S
C892 C301 1.388 . S
C887 C33 1.370 . S
C903 C159 1.194 . S
C908 C302 1.096 . S
C919 C123 1.342 . S
C924 C256 1.306 . S
C940 C266 1.166 . S
C935 C131 1.332 . S
C951 C149 1.304 . S
C956 C292 1.228 . S
C972 C274 1.078 . S
C967 C154 1.237 . S
C983 C121 1.317 . S
C988 C284 1.255 . S
C1004 C310 1.188 . S
C999 C126 1.234 . S
C1020 C248 1.385 . S
C1015 C151 1.391 . S
C1036 C175 1.220 . S
C1031 C145 1.295 . S
C1052 C230 1.119 . S
C1047 C75 1.245 . S
C1063 C95 1.346 . S
C1068 C184 1.341 . S
C1084 C202 0.986 . S
C1079 C98 1.178 . S
C1100 C176 1.212 . S
C1095 C165 1.294 . S
C1111 C112 1.243 . S
C1116 C218 1.154 1_556 S
C1127 C93 1.369 . S
C1132 C200 1.296 . S
C1143 C65 1.303 . S
C1148 C229 1.335 . S
