# Generated by pormake.
# Topology pyr, (3,6)-cn, num edge types: 1
# Building blocks:
#     Node 0, Type 0, BuildingBlock: CUQRIR_clean_linker_1, # of connection points: 3
#     Node 1, Type 0, BuildingBlock: CUQRIR_clean_linker_1, # of connection points: 3
#     Node 2, Type 0, BuildingBlock: CUQRIR_clean_linker_1, # of connection points: 3
#     Node 3, Type 0, BuildingBlock: CUQRIR_clean_linker_1, # of connection points: 3
#     Node 4, Type 0, BuildingBlock: CUQRIR_clean_linker_1, # of connection points: 3
#     Node 5, Type 0, BuildingBlock: CUQRIR_clean_linker_1, # of connection points: 3
#     Node 6, Type 0, BuildingBlock: CUQRIR_clean_linker_1, # of connection points: 3
#     Node 7, Type 0, BuildingBlock: CUQRIR_clean_linker_1, # of connection points: 3
#     Node 8, Type 1, BuildingBlock: LEVNOQ01_clean_sbu_1, # of connection points: 6
#     Node 9, Type 1, BuildingBlock: LEVNOQ01_clean_sbu_1, # of connection points: 6
#     Node 10, Type 1, BuildingBlock: LEVNOQ01_clean_sbu_1, # of connection points: 6
#     Node 11, Type 1, BuildingBlock: LEVNOQ01_clean_sbu_1, # of connection points: 6
#     Edge 12, Type (0, 1), BuildingBlock: XUDNAN_clean_linker_2, # of connection points: 2
#     Edge 13, Type (0, 1), BuildingBlock: XUDNAN_clean_linker_2, # of connection points: 2
#     Edge 14, Type (0, 1), BuildingBlock: XUDNAN_clean_linker_2, # of connection points: 2
#     Edge 15, Type (0, 1), BuildingBlock: XUDNAN_clean_linker_2, # of connection points: 2
#     Edge 16, Type (0, 1), BuildingBlock: XUDNAN_clean_linker_2, # of connection points: 2
#     Edge 17, Type (0, 1), BuildingBlock: XUDNAN_clean_linker_2, # of connection points: 2
#     Edge 18, Type (0, 1), BuildingBlock: XUDNAN_clean_linker_2, # of connection points: 2
#     Edge 19, Type (0, 1), BuildingBlock: XUDNAN_clean_linker_2, # of connection points: 2
#     Edge 20, Type (0, 1), BuildingBlock: XUDNAN_clean_linker_2, # of connection points: 2
#     Edge 21, Type (0, 1), BuildingBlock: XUDNAN_clean_linker_2, # of connection points: 2
#     Edge 22, Type (0, 1), BuildingBlock: XUDNAN_clean_linker_2, # of connection points: 2
#     Edge 23, Type (0, 1), BuildingBlock: XUDNAN_clean_linker_2, # of connection points: 2
#     Edge 24, Type (0, 1), BuildingBlock: XUDNAN_clean_linker_2, # of connection points: 2
#     Edge 25, Type (0, 1), BuildingBlock: XUDNAN_clean_linker_2, # of connection points: 2
#     Edge 26, Type (0, 1), BuildingBlock: XUDNAN_clean_linker_2, # of connection points: 2
#     Edge 27, Type (0, 1), BuildingBlock: XUDNAN_clean_linker_2, # of connection points: 2
#     Edge 28, Type (0, 1), BuildingBlock: XUDNAN_clean_linker_2, # of connection points: 2
#     Edge 29, Type (0, 1), BuildingBlock: XUDNAN_clean_linker_2, # of connection points: 2
#     Edge 30, Type (0, 1), BuildingBlock: XUDNAN_clean_linker_2, # of connection points: 2
#     Edge 31, Type (0, 1), BuildingBlock: XUDNAN_clean_linker_2, # of connection points: 2
#     Edge 32, Type (0, 1), BuildingBlock: XUDNAN_clean_linker_2, # of connection points: 2
#     Edge 33, Type (0, 1), BuildingBlock: XUDNAN_clean_linker_2, # of connection points: 2
#     Edge 34, Type (0, 1), BuildingBlock: XUDNAN_clean_linker_2, # of connection points: 2
#     Edge 35, Type (0, 1), BuildingBlock: XUDNAN_clean_linker_2, # of connection points: 2
# Relax obj value: 0.104
# Max RMSD: 0.218
# Mean RMSD: 0.159
data_MOF--net-pry--node1-LEVNOQ01_clean_sbu_1--node2-CUQRIR_clean_linker_1--edge1-XUDNAN_clean_linker_2
_symmetry_space_group_name_H-M    P1
_symmetry_Int_Tables_number       1
_symmetry_cell_setting            triclinic
loop_
_symmetry_equiv_pos_as_xyz
'x, y, z'
_cell_length_a     34.709751
_cell_length_b     33.193801
_cell_length_c     32.446937
_cell_angle_alpha  90.529043
_cell_angle_beta   92.661774
_cell_angle_gamma 96.603037
loop_
_atom_site_label
_atom_site_type_symbol
_atom_site_fract_x
_atom_site_fract_y
_atom_site_fract_z
_atom_type_partial_charge
C0 C 0.13272 0.17962 0.14538 0.0
N1 N 0.15971 0.15444 0.15486 0.0
N2 N 0.14561 0.20802 0.11783 0.0
C3 C 0.09256 0.17501 0.16182 0.0
C4 C 0.18133 0.1976 0.10939 0.0
N5 N 0.18977 0.16471 0.13159 0.0
C6 C 0.2093 0.22196 0.08272 0.0
H7 H 0.07187 0.18897 0.14081 0.0
H8 H 0.09324 0.18981 0.19266 0.0
H9 H 0.08216 0.14239 0.16546 0.0
H10 H 0.20856 0.25487 0.08843 0.0
H11 H 0.20028 0.21542 0.04986 0.0
H12 H 0.2394 0.21444 0.08832 0.0
C13 C 0.38928 0.87122 0.60601 0.0
N14 N 0.37332 0.89513 0.63315 0.0
N15 N 0.42546 0.86418 0.61926 0.0
C16 C 0.36943 0.85415 0.56618 0.0
C17 C 0.43184 0.88727 0.6543 0.0
N18 N 0.40031 0.90599 0.663 0.0
C19 C 0.46797 0.88869 0.68217 0.0
H20 H 0.36131 0.82101 0.5691 0.0
H21 H 0.38944 0.85911 0.54066 0.0
H22 H 0.34335 0.86898 0.55724 0.0
H23 H 0.49038 0.8722 0.66838 0.0
H24 H 0.46044 0.87541 0.71243 0.0
H25 H 0.48045 0.92063 0.68785 0.0
C26 C 0.61331 0.36573 0.845 0.0
N27 N 0.63502 0.36021 0.8796 0.0
N28 N 0.62948 0.39752 0.8242 0.0
C29 C 0.57835 0.33771 0.82937 0.0
C30 C 0.66087 0.41262 0.84759 0.0
N31 N 0.66398 0.39021 0.88196 0.0
C32 C 0.68973 0.44737 0.83512 0.0
H33 H 0.58656 0.31925 0.80319 0.0
H34 H 0.5551 0.35556 0.81774 0.0
H35 H 0.56693 0.31728 0.85397 0.0
H36 H 0.67994 0.47637 0.8453 0.0
H37 H 0.69179 0.4487 0.80122 0.0
H38 H 0.71907 0.44476 0.84912 0.0
C39 C 0.86617 0.58139 0.39221 0.0
N40 N 0.89519 0.60913 0.38052 0.0
N41 N 0.85412 0.59088 0.42991 0.0
C42 C 0.84987 0.54449 0.36667 0.0
C43 C 0.8779 0.62498 0.44116 0.0
N44 N 0.90249 0.63653 0.41084 0.0
C45 C 0.87886 0.6453 0.48313 0.0
H46 H 0.83139 0.55417 0.34061 0.0
H47 H 0.83255 0.52187 0.38531 0.0
H48 H 0.87313 0.52929 0.35312 0.0
H49 H 0.88686 0.62376 0.507 0.0
H50 H 0.8498 0.65417 0.48936 0.0
H51 H 0.90102 0.67191 0.48713 0.0
C52 C 0.8767 0.9066 0.91984 0.0
N53 N 0.89549 0.88853 0.89015 0.0
N54 N 0.8482 0.92751 0.90388 0.0
C55 C 0.88563 0.90209 0.96538 0.0
C56 C 0.8531 0.92503 0.86277 0.0
N57 N 0.88186 0.90196 0.85437 0.0
C58 C 0.82826 0.94319 0.83038 0.0
H59 H 0.87121 0.87286 0.9763 0.0
H60 H 0.87556 0.92722 0.98329 0.0
H61 H 0.91736 0.90183 0.97121 0.0
H62 H 0.83583 0.97659 0.83085 0.0
H63 H 0.79715 0.93671 0.83719 0.0
H64 H 0.8327 0.93119 0.79914 0.0
C65 C 0.68922 0.17785 0.44364 0.0
N66 N 0.70184 0.15151 0.41634 0.0
N67 N 0.65216 0.18482 0.4343 0.0
C68 C 0.71364 0.19963 0.47832 0.0
C69 C 0.6419 0.15919 0.40179 0.0
N70 N 0.67208 0.13981 0.38974 0.0
C71 C 0.60446 0.15988 0.37646 0.0
H72 H 0.69486 0.20821 0.50298 0.0
H73 H 0.72928 0.22793 0.46659 0.0
H74 H 0.73511 0.18037 0.49147 0.0
H75 H 0.60973 0.17956 0.34936 0.0
H76 H 0.58212 0.17192 0.39498 0.0
H77 H 0.5934 0.12889 0.36511 0.0
C78 C 0.33111 0.66355 0.1728 0.0
N79 N 0.36896 0.67321 0.18415 0.0
N80 N 0.32323 0.67807 0.13508 0.0
C81 C 0.30222 0.63908 0.19861 0.0
C82 C 0.35766 0.69681 0.12379 0.0
N83 N 0.38564 0.69333 0.15348 0.0
C84 C 0.3641 0.71871 0.08383 0.0
H85 H 0.30236 0.60636 0.19133 0.0
H86 H 0.27248 0.64731 0.19216 0.0
H87 H 0.3103 0.64386 0.23195 0.0
H88 H 0.35839 0.75067 0.08795 0.0
H89 H 0.34421 0.7045 0.05869 0.0
H90 H 0.39445 0.7187 0.07461 0.0
C91 C 0.09851 0.41539 0.6383 0.0
N92 N 0.11864 0.39593 0.61094 0.0
N93 N 0.12174 0.44427 0.66026 0.0
C94 C 0.05533 0.40626 0.64287 0.0
C95 C 0.1563 0.44429 0.64266 0.0
N96 N 0.15433 0.41531 0.61282 0.0
C97 C 0.19284 0.47089 0.65627 0.0
H98 H 0.04319 0.43331 0.65489 0.0
H99 H 0.04884 0.38106 0.66454 0.0
H100 H 0.04078 0.39671 0.61259 0.0
H101 H 0.19711 0.47063 0.69036 0.0
H102 H 0.19008 0.50251 0.64685 0.0
H103 H 0.21882 0.46093 0.64237 0.0
O104 O 0.04121 0.01614 0.61501 0.0
Mg105 Mg 0.07529 0.04002 0.56741 0.0
O106 O 0.00647 0.9846 0.56388 0.0
Mg107 Mg 0.03843 0.01101 0.50257 0.0
O108 O 0.05429 0.08119 0.52769 0.0
O109 O 0.0914 0.09639 0.58559 0.0
O110 O 0.07116 0.0346 0.4411 0.0
O111 O 0.97796 0.04112 0.48484 0.0
Mg112 Mg 0.99671 0.98235 0.43674 0.0
O113 O 0.02066 0.94252 0.47659 0.0
O114 O 0.02918 0.01187 0.39123 0.0
O115 O 0.94121 0.9978 0.44474 0.0
O116 O 0.98864 0.92552 0.41572 0.0
C117 C 0.12987 0.99306 0.54346 0.0
C118 C 0.01269 0.99132 0.6028 0.0
C119 C 0.07179 0.10785 0.55426 0.0
C120 C 0.06139 0.0311 0.4025 0.0
C121 C 0.94504 0.03013 0.46571 0.0
C122 C 0.0064 0.91529 0.44892 0.0
O123 O 0.13007 0.02411 0.56558 0.0
O124 O 0.09913 0.98118 0.52095 0.0
O125 O 0.44607 0.10636 0.06369 0.0
Mg126 Mg 0.50243 0.12533 0.04943 0.0
O127 O 0.45348 0.0412 0.06101 0.0
Mg128 Mg 0.51638 0.03118 0.03362 0.0
O129 O 0.53333 0.09403 0.01069 0.0
O130 O 0.49891 0.13963 0.98645 0.0
O131 O 0.58415 0.02112 0.01115 0.0
O132 O 0.47714 0.01774 0.96901 0.0
Mg133 Mg 0.52465 0.97483 1.00122 0.0
O134 O 0.50139 0.96463 0.059 0.0
O135 O 0.57746 0.95507 0.00749 0.0
O136 O 0.51585 0.98348 0.93708 0.0
O137 O 0.48758 0.92329 0.00459 0.0
C138 C 0.55757 0.08915 0.11523 0.0
C139 C 0.43271 0.06997 0.06818 0.0
C140 C 0.52659 0.11804 0.98128 0.0
C141 C 0.59953 0.98771 0.00753 0.0
C142 C 0.48623 0.00161 0.9355 0.0
C143 C 0.48828 0.92925 0.04368 0.0
O144 O 0.54358 0.12011 0.10002 0.0
O145 O 0.54973 0.05352 0.09834 0.0
O146 O 0.42854 0.56883 0.52918 0.0
Mg147 Mg 0.45247 0.51644 0.55148 0.0
O148 O 0.48716 0.57953 0.50984 0.0
Mg149 Mg 0.49425 0.51184 0.49221 0.0
O150 O 0.50623 0.49611 0.55738 0.0
O151 O 0.48264 0.53503 0.60431 0.0
O152 O 0.51212 0.44789 0.47106 0.0
O153 O 0.56073 0.53249 0.49777 0.0
Mg154 Mg 0.54042 0.53284 0.41174 0.0
O155 O 0.48572 0.5301 0.42843 0.0
O156 O 0.55157 0.47209 0.42239 0.0
O157 O 0.57067 0.57827 0.45042 0.0
O158 O 0.50129 0.5471 0.36533 0.0
C159 C 0.40298 0.46486 0.51368 0.0
C160 C 0.4565 0.59386 0.5196 0.0
C161 C 0.51005 0.51544 0.59214 0.0
C162 C 0.5377 0.44285 0.44453 0.0
C163 C 0.58288 0.56081 0.48205 0.0
C164 C 0.47535 0.54081 0.3924 0.0
O165 O 0.41413 0.46547 0.55125 0.0
O166 O 0.42453 0.4846 0.48746 0.0
O167 O 0.06033 0.4956 0.06019 0.0
Mg168 Mg 0.03184 0.55051 0.06095 0.0
O169 O 0.01134 0.46789 0.02106 0.0
Mg170 Mg 0.99469 0.53311 0.00552 0.0
O171 O 0.9768 0.54435 0.07742 0.0
O172 O 0.02842 0.56224 0.12101 0.0
O173 O 0.97842 0.60103 0.9912 0.0
O174 O 0.93061 0.50672 1.00255 0.0
Mg175 Mg 0.95838 0.54673 0.91722 0.0
O176 O 0.00393 0.51816 0.9383 0.0
O177 O 0.97372 0.60946 0.92361 0.0
O178 O 0.90555 0.52183 0.94116 0.0
O179 O 0.98393 0.51766 0.87191 0.0
C180 C 0.07299 0.59249 0.01106 0.0
C181 C 0.04214 0.46409 0.04293 0.0
C182 C 0.99153 0.55413 0.11436 0.0
C183 C 0.97591 0.62419 0.95979 0.0
C184 C 0.9019 0.50686 0.97676 0.0
C185 C 0.00923 0.50966 0.90015 0.0
O186 O 0.05302 0.60776 0.03691 0.0
O187 O 0.06154 0.55662 0.99908 0.0
H188 H 0.15522 0.17918 0.2334 0.0
H189 H 0.1597 0.07271 0.15691 0.0
H190 H 0.14399 0.0289 0.21708 0.0
H191 H 0.19148 0.13774 0.33348 0.0
H192 H 0.15826 0.16339 0.36245 0.0
H193 H 0.17716 0.18542 0.31586 0.0
H194 H 0.10701 0.18861 0.28636 0.0
H195 H 0.08781 0.16623 0.33247 0.0
H196 H 0.07352 0.14287 0.28287 0.0
H197 H 0.11832 0.99763 0.28242 0.0
H198 H 0.08522 0.9805 0.34666 0.0
H199 H 0.09528 0.10776 0.38119 0.0
C200 C 0.15412 0.1466 0.2299 0.0
C201 C 0.15906 0.12908 0.19085 0.0
C202 C 0.15671 0.08649 0.18679 0.0
C203 C 0.14762 0.06157 0.22078 0.0
C204 C 0.14126 0.07987 0.25856 0.0
C205 C 0.14473 0.12151 0.26334 0.0
C206 C 0.1324 0.13378 0.30558 0.0
C207 C 0.16688 0.15642 0.33084 0.0
C208 C 0.09815 0.15936 0.30156 0.0
C209 C 0.12017 0.09253 0.3237 0.0
C210 C 0.12611 0.06188 0.2962 0.0
C211 C 0.11445 0.02135 0.30444 0.0
C212 C 0.09575 0.01191 0.34113 0.0
C213 C 0.08867 0.04266 0.36949 0.0
C214 C 0.10163 0.08354 0.36091 0.0
H215 H 0.43828 0.97602 0.69415 0.0
H216 H 0.35468 0.87473 0.72261 0.0
H217 H 0.36091 0.89513 0.79663 0.0
H218 H 0.50171 0.96587 0.77507 0.0
H219 H 0.51592 0.01907 0.78563 0.0
H220 H 0.49837 0.00237 0.73463 0.0
H221 H 0.44503 0.05077 0.73597 0.0
H222 H 0.4627 0.06811 0.78698 0.0
H223 H 0.41248 0.04817 0.7778 0.0
H224 H 0.38314 0.92163 0.86875 0.0
H225 H 0.42019 0.94971 0.93164 0.0
H226 H 0.49326 0.03086 0.85672 0.0
C227 C 0.41997 0.95945 0.71586 0.0
C228 C 0.39504 0.92453 0.70259 0.0
C229 C 0.37272 0.90239 0.73196 0.0
C230 C 0.37648 0.91361 0.77411 0.0
C231 C 0.40259 0.94729 0.78648 0.0
C232 C 0.42375 0.9701 0.75804 0.0
C233 C 0.45297 0.00207 0.77952 0.0
C234 C 0.4947 0.997 0.76804 0.0
C235 C 0.44269 0.04482 0.76946 0.0
C236 C 0.44653 0.99238 0.82453 0.0
C237 C 0.4165 0.96151 0.82791 0.0
C238 C 0.40606 0.9464 0.86635 0.0
C239 C 0.42703 0.96277 0.90201 0.0
C240 C 0.45867 0.99343 0.89921 0.0
C241 C 0.46835 0.00847 0.85988 0.0
H242 H 0.56703 0.43404 0.80722 0.0
H243 H 0.66555 0.3886 0.75376 0.0
H244 H 0.64824 0.41823 0.68618 0.0
H245 H 0.50253 0.41626 0.71226 0.0
H246 H 0.47854 0.46014 0.7234 0.0
H247 H 0.49756 0.43158 0.765 0.0
H248 H 0.53724 0.49803 0.79356 0.0
H249 H 0.51975 0.52636 0.75104 0.0
H250 H 0.57125 0.52629 0.76119 0.0
H251 H 0.62044 0.45509 0.62622 0.0
H252 H 0.58026 0.49045 0.57634 0.0
H253 H 0.50392 0.51426 0.67374 0.0
C254 C 0.58434 0.43003 0.78089 0.0
C255 C 0.61759 0.4102 0.78466 0.0
C256 C 0.6401 0.40455 0.75041 0.0
C257 C 0.63053 0.4211 0.71239 0.0
C258 C 0.59822 0.44232 0.70998 0.0
C259 C 0.57501 0.44595 0.74308 0.0
C260 C 0.54196 0.47002 0.73285 0.0
C261 C 0.50285 0.44289 0.73341 0.0
C262 C 0.54265 0.5074 0.76137 0.0
C263 C 0.55165 0.48175 0.68977 0.0
C264 C 0.58352 0.46476 0.67649 0.0
C265 C 0.5956 0.46882 0.63628 0.0
C266 C 0.57299 0.48913 0.60846 0.0
C267 C 0.5395 0.50512 0.62178 0.0
C268 C 0.52995 0.50313 0.66315 0.0
H269 H 0.89484 0.6481 0.3064 0.0
H270 H 0.94646 0.55611 0.37658 0.0
H271 H 0.96798 0.5271 0.31247 0.0
H272 H 0.86281 0.59421 0.21672 0.0
H273 H 0.87928 0.63172 0.17966 0.0
H274 H 0.86814 0.64735 0.23065 0.0
H275 H 0.93696 0.68596 0.24249 0.0
H276 H 0.94768 0.67196 0.19083 0.0
H277 H 0.97877 0.65995 0.23392 0.0
H278 H 0.97339 0.50128 0.24213 0.0
H279 H 0.9895 0.49507 0.16938 0.0
H280 H 0.94512 0.60938 0.14296 0.0
C281 C 0.91201 0.62287 0.30809 0.0
C282 C 0.91866 0.6036 0.34606 0.0
C283 C 0.94137 0.57095 0.34757 0.0
C284 C 0.95295 0.5539 0.31135 0.0
C285 C 0.94339 0.57139 0.27405 0.0
C286 C 0.9258 0.60667 0.27209 0.0
C287 C 0.92312 0.62121 0.22778 0.0
C288 C 0.8808 0.62375 0.21285 0.0
C289 C 0.94812 0.66219 0.2235 0.0
C290 C 0.94025 0.58745 0.20536 0.0
C291 C 0.95055 0.55856 0.23287 0.0
C292 C 0.96624 0.52402 0.22027 0.0
C293 C 0.97471 0.52042 0.17885 0.0
C294 C 0.96807 0.55144 0.1508 0.0
C295 C 0.94946 0.58479 0.16374 0.0
H296 H 0.21717 0.12424 0.06796 0.0
H297 H 0.24256 0.16206 0.19516 0.0
H298 H 0.30399 0.13041 0.1953 0.0
H299 H 0.26017 0.02582 0.07809 0.0
H300 H 0.27814 0.02852 0.02687 0.0
H301 H 0.23455 0.05059 0.03791 0.0
H302 H 0.26457 0.11995 0.01112 0.0
H303 H 0.30779 0.09788 0.99943 0.0
H304 H 0.31115 0.14222 0.03252 0.0
H305 H 0.36442 0.09803 0.18019 0.0
H306 H 0.42215 0.07567 0.14927 0.0
H307 H 0.35923 0.05985 0.03093 0.0
C308 C 0.23563 0.12534 0.09586 0.0
C309 C 0.22512 0.14525 0.13176 0.0
C310 C 0.24992 0.14645 0.16767 0.0
C311 C 0.28476 0.12845 0.16796 0.0
C312 C 0.29425 0.10874 0.13218 0.0
C313 C 0.27042 0.10711 0.09672 0.0
C314 C 0.28834 0.08577 0.06187 0.0
C315 C 0.26383 0.04528 0.0505 0.0
C316 C 0.29329 0.11311 0.02402 0.0
C317 C 0.32724 0.07835 0.08227 0.0
C318 C 0.32932 0.09039 0.12332 0.0
C319 C 0.36272 0.08781 0.14832 0.0
C320 C 0.39529 0.07436 0.13063 0.0
C321 C 0.39487 0.06424 0.08808 0.0
C322 C 0.35992 0.0654 0.06391 0.0
H323 H 0.34407 0.96786 0.6321 0.0
H324 H 0.31146 0.83812 0.62844 0.0
H325 H 0.24597 0.84813 0.6 0.0
H326 H 0.24303 0.98831 0.66365 0.0
H327 H 0.2469 0.03576 0.63678 0.0
H328 H 0.28976 0.01754 0.65983 0.0
H329 H 0.32134 0.02343 0.58908 0.0
H330 H 0.27819 0.04022 0.56543 0.0
H331 H 0.29728 0.9963 0.54491 0.0
H332 H 0.1872 0.87272 0.56111 0.0
H333 H 0.13351 0.91032 0.53435 0.0
H334 H 0.20305 0.02366 0.56892 0.0
C335 C 0.32255 0.9418 0.62688 0.0
C336 C 0.33294 0.9022 0.63149 0.0
C337 C 0.30399 0.86869 0.62462 0.0
C338 C 0.2669 0.87407 0.60802 0.0
C339 C 0.25841 0.91339 0.60053 0.0
C340 C 0.28471 0.94674 0.61178 0.0
C341 C 0.26745 0.98574 0.6026 0.0
C342 C 0.26142 0.00817 0.6431 0.0
C343 C 0.29258 0.013 0.57377 0.0
C344 C 0.22882 0.96915 0.58153 0.0
C345 C 0.22392 0.92734 0.58066 0.0
C346 C 0.19044 0.90553 0.5623 0.0
C347 C 0.16029 0.92706 0.54655 0.0
C348 C 0.16392 0.96988 0.54945 0.0
C349 C 0.19925 0.99088 0.56611 0.0
H350 H 0.68364 0.4636 0.91688 0.0
H351 H 0.70806 0.33868 0.92319 0.0
H352 H 0.76218 0.35844 0.97268 0.0
H353 H 0.77506 0.48868 0.89219 0.0
H354 H 0.78111 0.53946 0.9135 0.0
H355 H 0.73362 0.51613 0.89759 0.0
H356 H 0.7095 0.52821 0.97045 0.0
H357 H 0.75724 0.55187 0.98668 0.0
H358 H 0.73462 0.50987 0.01513 0.0
H359 H 0.82204 0.39119 0.00625 0.0
H360 H 0.88631 0.43191 0.00853 0.0
H361 H 0.83306 0.53592 0.96407 0.0
C362 C 0.69991 0.44034 0.92956 0.0
C363 C 0.69112 0.39959 0.91651 0.0
C364 C 0.71284 0.36986 0.93371 0.0
C365 C 0.74408 0.38099 0.96185 0.0
C366 C 0.75432 0.42208 0.97095 0.0
C367 C 0.73329 0.4515 0.95428 0.0
C368 C 0.75671 0.49291 0.95595 0.0
C369 C 0.76194 0.51023 0.91225 0.0
C370 C 0.73841 0.52244 0.98375 0.0
C371 C 0.79453 0.48193 0.97507 0.0
C372 C 0.79191 0.44139 0.98548 0.0
C373 C 0.82432 0.42315 0.99917 0.0
C374 C 0.86063 0.44638 1.00041 0.0
C375 C 0.86398 0.48675 0.98666 0.0
C376 C 0.83062 0.50516 0.97537 0.0
H377 H 0.78501 0.57222 0.38878 0.0
H378 H 0.84007 0.57457 0.51153 0.0
H379 H 0.77554 0.56295 0.54103 0.0
H380 H 0.70655 0.61185 0.39812 0.0
H381 H 0.67272 0.5754 0.36956 0.0
H382 H 0.7231 0.58022 0.3586 0.0
H383 H 0.72587 0.50386 0.37231 0.0
H384 H 0.67493 0.49831 0.38266 0.0
H385 H 0.70975 0.48264 0.42031 0.0
H386 H 0.70271 0.56301 0.55561 0.0
H387 H 0.63102 0.56529 0.55285 0.0
H388 H 0.62821 0.54903 0.42012 0.0
C389 C 0.78408 0.56813 0.4217 0.0
C390 C 0.81787 0.57575 0.44764 0.0
C391 C 0.81467 0.57136 0.49085 0.0
C392 C 0.7781 0.56364 0.50792 0.0
C393 C 0.74535 0.55732 0.48114 0.0
C394 C 0.74849 0.5572 0.43882 0.0
C395 C 0.70946 0.54868 0.41627 0.0
C396 C 0.70261 0.58102 0.38381 0.0
C397 C 0.70472 0.50584 0.39673 0.0
C398 C 0.68363 0.55041 0.45205 0.0
C399 C 0.7044 0.55397 0.48956 0.0
C400 C 0.68614 0.55922 0.52647 0.0
C401 C 0.6457 0.56094 0.52468 0.0
C402 C 0.62478 0.55852 0.48614 0.0
C403 C 0.64391 0.55207 0.44985 0.0
H404 H 0.13454 0.24958 0.04491 0.0
H405 H 0.12331 0.25576 0.17733 0.0
H406 H 0.08999 0.31663 0.16969 0.0
H407 H 0.15748 0.36038 0.03658 0.0
H408 H 0.13293 0.36316 0.98668 0.0
H409 H 0.15359 0.31767 1.0013 0.0
H410 H 0.08678 0.27585 0.98638 0.0
H411 H 0.06579 0.32129 0.97229 0.0
H412 H 0.04501 0.28929 0.01208 0.0
H413 H 0.05729 0.37516 0.14986 0.0
H414 H 0.03557 0.43692 0.11964 0.0
H415 H 0.07112 0.40102 0.99958 0.0
C416 C 0.12512 0.26395 0.07216 0.0
C417 C 0.13011 0.24661 0.11175 0.0
C418 C 0.11821 0.26708 0.14664 0.0
C419 C 0.09941 0.30195 0.14264 0.0
C420 C 0.09369 0.31748 0.10349 0.0
C421 C 0.10703 0.3001 0.06883 0.0
C422 C 0.09963 0.32596 0.0311 0.0
C423 C 0.1382 0.34279 0.01283 0.0
C424 C 0.07269 0.30164 0.99854 0.0
C425 C 0.07972 0.35997 0.05023 0.0
C426 C 0.0764 0.35374 0.09203 0.0
C427 C 0.0599 0.38059 0.11722 0.0
C428 C 0.04757 0.41558 0.09977 0.0
C429 C 0.05155 0.42379 0.05743 0.0
C430 C 0.06731 0.39525 0.032 0.0
H431 H 0.6163 0.33491 0.95524 0.0
H432 H 0.65749 0.2977 0.83888 0.0
H433 H 0.64824 0.22599 0.85962 0.0
H434 H 0.6566 0.25095 0.01976 0.0
H435 H 0.61426 0.24642 0.05031 0.0
H436 H 0.63258 0.29504 0.03028 0.0
H437 H 0.56518 0.30204 0.99511 0.0
H438 H 0.54656 0.25397 0.01515 0.0
H439 H 0.54292 0.26245 0.9604 0.0
H440 H 0.6146 0.16115 0.88255 0.0
H441 H 0.5675 0.10794 0.91143 0.0
H442 H 0.5599 0.18467 0.01863 0.0
C443 C 0.625 0.31153 0.93537 0.0
C444 C 0.63742 0.32084 0.89584 0.0
C445 C 0.64793 0.29021 0.86947 0.0
C446 C 0.64299 0.2497 0.88104 0.0
C447 C 0.6288 0.24079 0.91965 0.0
C448 C 0.62108 0.27095 0.947 0.0
C449 C 0.60158 0.25321 0.98426 0.0
C450 C 0.62785 0.2619 0.02348 0.0
C451 C 0.56174 0.26882 0.98894 0.0
C452 C 0.59732 0.20876 0.97229 0.0
C453 C 0.61295 0.20198 0.9348 0.0
C454 C 0.60392 0.16525 0.91294 0.0
C455 C 0.57719 0.13526 0.92927 0.0
C456 C 0.5609 0.14252 0.96717 0.0
C457 C 0.57303 0.17844 0.98992 0.0
H458 H 0.87895 0.70896 0.42637 0.0
H459 H 0.97886 0.6518 0.39182 0.0
H460 H 0.02029 0.71785 0.40192 0.0
H461 H 0.90177 0.81031 0.39375 0.0
H462 H 0.88537 0.83148 0.44031 0.0
H463 H 0.86452 0.78206 0.42224 0.0
H464 H 0.88271 0.75322 0.49373 0.0
H465 H 0.90531 0.80236 0.51129 0.0
H466 H 0.93267 0.75939 0.51273 0.0
H467 H 0.0496 0.79299 0.41658 0.0
H468 H 0.06254 0.86686 0.4323 0.0
H469 H 0.94571 0.8665 0.47299 0.0
C470 C 0.90955 0.71045 0.42053 0.0
C471 C 0.92583 0.67533 0.4088 0.0
C472 C 0.9658 0.67841 0.40081 0.0
C473 C 0.98955 0.71565 0.40706 0.0
C474 C 0.97294 0.74879 0.42261 0.0
C475 C 0.93379 0.74607 0.42961 0.0
C476 C 0.92317 0.78363 0.4508 0.0
C477 C 0.89189 0.80302 0.42521 0.0
C478 C 0.91019 0.77407 0.49473 0.0
C479 C 0.96189 0.80948 0.45209 0.0
C480 C 0.9905 0.78909 0.43587 0.0
C481 C 0.02771 0.80872 0.43044 0.0
C482 C 0.03507 0.85047 0.44007 0.0
C483 C 0.00558 0.87164 0.4556 0.0
C484 C 0.96921 0.85044 0.46307 0.0
H485 H 0.4461 0.83346 0.54516 0.0
H486 H 0.43782 0.80766 0.67553 0.0
H487 H 0.45462 0.73915 0.66311 0.0
H488 H 0.39395 0.74007 0.51451 0.0
H489 H 0.42001 0.73286 0.46873 0.0
H490 H 0.41654 0.78333 0.4879 0.0
H491 H 0.49145 0.79834 0.49129 0.0
H492 H 0.49512 0.74788 0.47197 0.0
H493 H 0.52021 0.76522 0.51989 0.0
H494 H 0.46277 0.6724 0.63793 0.0
H495 H 0.46099 0.6078 0.60036 0.0
H496 H 0.45795 0.67042 0.48369 0.0
C497 C 0.44825 0.81353 0.57108 0.0
C498 C 0.44143 0.82653 0.61164 0.0
C499 C 0.44455 0.79928 0.64461 0.0
C500 C 0.45367 0.76001 0.63776 0.0
C501 C 0.45872 0.74773 0.5975 0.0
C502 C 0.45594 0.77332 0.56449 0.0
C503 C 0.45735 0.75015 0.52388 0.0
C504 C 0.41972 0.75169 0.49719 0.0
C505 C 0.49318 0.76637 0.50037 0.0
C506 C 0.46063 0.70751 0.53954 0.0
C507 C 0.46191 0.70744 0.58222 0.0
C508 C 0.46241 0.67203 0.60457 0.0
C509 C 0.4613 0.63547 0.58295 0.0
C510 C 0.45968 0.63427 0.53936 0.0
C511 C 0.45976 0.67076 0.51711 0.0
H512 H 0.9204 0.96959 0.82422 0.0
H513 H 0.89037 0.84141 0.79939 0.0
H514 H 0.91965 0.84943 0.73076 0.0
H515 H 0.89961 0.00394 0.72398 0.0
H516 H 0.93946 0.04393 0.72483 0.0
H517 H 0.91837 0.02726 0.77231 0.0
H518 H 0.98564 0.01242 0.80232 0.0
H519 H 0.0071 0.02978 0.75525 0.0
H520 H 0.01346 0.97989 0.77395 0.0
H521 H 0.94793 0.87457 0.66097 0.0
H522 H 0.97956 0.91143 0.6028 0.0
H523 H 0.99294 0.02232 0.67609 0.0
C524 C 0.92058 0.94316 0.80446 0.0
C525 C 0.90311 0.90485 0.81689 0.0
C526 C 0.90373 0.8709 0.79039 0.0
C527 C 0.92009 0.87535 0.75132 0.0
C528 C 0.93603 0.91396 0.73938 0.0
C529 C 0.93699 0.94709 0.76574 0.0
C530 C 0.95552 0.9854 0.7461 0.0
C531 C 0.92651 0.01699 0.74154 0.0
C532 C 0.99264 0.00288 0.77088 0.0
C533 C 0.96474 0.96899 0.70436 0.0
C534 C 0.95296 0.92783 0.70063 0.0
C535 C 0.95745 0.90672 0.66391 0.0
C536 C 0.97509 0.92795 0.63079 0.0
C537 C 0.98863 0.96979 0.63471 0.0
C538 C 0.98296 0.99033 0.67204 0.0
H539 H 0.64144 0.0705 0.34881 0.0
H540 H 0.70435 0.18903 0.33335 0.0
H541 H 0.68614 0.18569 0.25883 0.0
H542 H 0.66535 0.02995 0.24101 0.0
H543 H 0.61865 -3e-05 0.23562 0.0
H544 H 0.64276 0.00845 0.28595 0.0
H545 H 0.58183 0.03685 0.312 0.0
H546 H 0.55782 0.02959 0.26172 0.0
H547 H 0.56368 0.07914 0.28604 0.0
H548 H 0.64993 0.17625 0.191 0.0
H549 H 0.60738 0.15692 0.12978 0.0
H550 H 0.5698 0.04111 0.18464 0.0
C551 C 0.6534 0.09441 0.32907 0.0
C552 C 0.67527 0.12966 0.34666 0.0
C553 C 0.68889 0.16131 0.32027 0.0
C554 C 0.67809 0.15986 0.278 0.0
C555 C 0.65464 0.1258 0.26202 0.0
C556 C 0.6436 0.0929 0.28629 0.0
C557 C 0.61689 0.06089 0.26133 0.0
C558 C 0.6371 0.02252 0.25565 0.0
C559 C 0.57774 0.05108 0.28148 0.0
C560 C 0.61222 0.08231 0.22034 0.0
C561 C 0.63469 0.11958 0.22159 0.0
C562 C 0.63323 0.14662 0.18921 0.0
C563 C 0.60867 0.13534 0.15452 0.0
C564 C 0.58554 0.09714 0.15177 0.0
C565 C 0.58777 0.07003 0.18518 0.0
H566 H 0.39764 0.69692 0.26062 0.0
H567 H 0.38236 0.59695 0.17269 0.0
H568 H 0.38825 0.54843 0.22912 0.0
H569 H 0.47377 0.65245 0.32274 0.0
H570 H 0.4591 0.67452 0.36968 0.0
H571 H 0.45177 0.69909 0.32133 0.0
H572 H 0.37902 0.69743 0.33816 0.0
H573 H 0.38622 0.66934 0.38464 0.0
H574 H 0.35048 0.64932 0.34538 0.0
H575 H 0.38789 0.51121 0.29299 0.0
H576 H 0.4216 0.48725 0.35451 0.0
H577 H 0.44422 0.61018 0.40192 0.0
C578 C 0.39687 0.66489 0.25353 0.0
C579 C 0.38861 0.64995 0.21307 0.0
C580 C 0.38842 0.60825 0.20402 0.0
C581 C 0.3905 0.58063 0.23579 0.0
C582 C 0.39419 0.59577 0.276 0.0
C583 C 0.40046 0.63688 0.28488 0.0
C584 C 0.41074 0.64478 0.33021 0.0
C585 C 0.45125 0.66908 0.33634 0.0
C586 C 0.37975 0.6665 0.3508 0.0
C587 C 0.41015 0.60148 0.34493 0.0
C588 C 0.39778 0.5739 0.31347 0.0
C589 C 0.39781 0.53226 0.31793 0.0
C590 C 0.41628 0.51877 0.3533 0.0
C591 C 0.43587 0.54734 0.38152 0.0
C592 C 0.42879 0.58819 0.38036 0.0
H593 H 0.08848 0.40016 0.72183 0.0
H594 H 0.14085 0.52051 0.69189 0.0
H595 H 0.13453 0.54282 0.76401 0.0
H596 H 0.01392 0.43722 0.77384 0.0
H597 H 0.00945 0.39605 0.80982 0.0
H598 H 0.02745 0.38826 0.75978 0.0
H599 H 0.08878 0.36359 0.79579 0.0
H600 H 0.07148 0.3737 0.84598 0.0
H601 H 0.11851 0.39677 0.83188 0.0
H602 H 0.11849 0.5533 0.83696 0.0
H603 H 0.07467 0.55972 0.89365 0.0
H604 H 0.0229 0.43625 0.8715 0.0
C605 C 0.09834 0.43134 0.73016 0.0
C606 C 0.11564 0.45854 0.7013 0.0
C607 C 0.12854 0.49892 0.71382 0.0
C608 C 0.12531 0.51167 0.75476 0.0
C609 C 0.10841 0.48384 0.78252 0.0
C610 C 0.09378 0.44493 0.7702 0.0
C611 C 0.06939 0.42365 0.80274 0.0
C612 C 0.0276 0.41059 0.78553 0.0
C613 C 0.08819 0.38728 0.82012 0.0
C614 C 0.07103 0.45741 0.83463 0.0
C615 C 0.09566 0.49098 0.8235 0.0
C616 C 0.09947 0.52715 0.84622 0.0
C617 C 0.07484 0.53038 0.87873 0.0
C618 C 0.04598 0.49824 0.88675 0.0
C619 C 0.04571 0.46059 0.86647 0.0
H620 H 0.80603 0.99381 0.89912 0.0
H621 H 0.8073 0.87432 0.95185 0.0
H622 H 0.75053 0.88429 0.9909 0.0
H623 H 0.7676 0.04459 0.98677 0.0
H624 H 0.73482 0.07162 0.95591 0.0
H625 H 0.77901 0.05858 0.9348 0.0
H626 H 0.73961 0.0212 0.87334 0.0
H627 H 0.69542 0.03472 0.8939 0.0
H628 H 0.70064 0.98226 0.8833 0.0
H629 H 0.69725 0.90688 0.0273 0.0
H630 H 0.6365 0.93156 0.04528 0.0
H631 H 0.65747 0.03211 0.96134 0.0
C632 C 0.79438 0.96997 0.9191 0.0
C633 C 0.81289 0.93409 0.92426 0.0
C634 C 0.79565 0.90306 0.94947 0.0
C635 C 0.763 0.9083 0.97158 0.0
C636 C 0.74647 0.94431 0.96726 0.0
C637 C 0.76037 0.97411 0.9406 0.0
C638 C 0.73343 0.00755 0.93877 0.0
C639 C 0.75501 0.048 0.95501 0.0
C640 C 0.71624 0.01166 0.8947 0.0
C641 C 0.70221 0.99131 0.96812 0.0
C642 C 0.71173 0.95551 0.98509 0.0
C643 C 0.68912 0.93457 0.01383 0.0
C644 C 0.65464 0.94913 0.02403 0.0
C645 C 0.64175 0.98368 0.00467 0.0
C646 C 0.66657 0.00597 0.97712 0.0
H647 H 0.72502 0.07568 0.41551 0.0
H648 H 0.76824 0.20322 0.41514 0.0
H649 H 0.83484 0.18668 0.43167 0.0
H650 H 0.78467 0.04457 0.49597 0.0
H651 H 0.79412 0.9976 0.47224 0.0
H652 H 0.74999 0.01902 0.45856 0.0
H653 H 0.76609 0.0189 0.38143 0.0
H654 H 0.80984 0.99655 0.39476 0.0
H655 H 0.81236 0.04305 0.36626 0.0
H656 H 0.89607 0.15611 0.45696 0.0
H657 H 0.94892 0.11348 0.4731 0.0
H658 H 0.86744 0.00552 0.45051 0.0
C659 C 0.74874 0.09992 0.41779 0.0
C660 C 0.74125 0.14086 0.41515 0.0
C661 C 0.77312 0.17176 0.4182 0.0
C662 C 0.81109 0.16263 0.42763 0.0
C663 C 0.81725 0.12215 0.43259 0.0
C664 C 0.78718 0.09118 0.42626 0.0
C665 C 0.802 0.05016 0.43196 0.0
C666 C 0.78146 0.02646 0.46676 0.0
C667 C 0.7973 0.02572 0.39118 0.0
C668 C 0.84462 0.06293 0.44384 0.0
C669 C 0.85283 0.10461 0.44444 0.0
C670 C 0.89003 0.12339 0.45594 0.0
C671 C 0.91986 0.09896 0.46554 0.0
C672 C 0.91256 0.05613 0.46308 0.0
C673 C 0.87414 0.03818 0.45263 0.0
H674 H 0.27952 0.60668 0.11874 0.0
H675 H 0.28639 0.73605 0.09855 0.0
H676 H 0.22684 0.72552 0.05301 0.0
H677 H 0.24024 0.56884 0.02103 0.0
H678 H 0.20622 0.52979 0.0415 0.0
H679 H 0.25091 0.5467 0.0702 0.0
H680 H 0.21308 0.56396 0.13367 0.0
H681 H 0.1684 0.54575 0.10573 0.0
H682 H 0.17499 0.59632 0.12758 0.0
H683 H 0.16637 0.70199 0.01332 0.0
H684 H 0.10176 0.66813 0.99009 0.0
H685 H 0.13326 0.55404 0.03702 0.0
C686 C 0.26823 0.63268 0.10484 0.0
C687 C 0.28751 0.6721 0.11107 0.0
C688 C 0.27218 0.70562 0.09286 0.0
C689 C 0.2386 0.69988 0.06712 0.0
C690 C 0.22068 0.66048 0.06072 0.0
C691 C 0.23427 0.62756 0.07993 0.0
C692 C 0.2071 0.58912 0.07165 0.0
C693 C 0.22736 0.55672 0.04976 0.0
C694 C 0.18987 0.57286 0.11203 0.0
C695 C 0.17675 0.60549 0.04355 0.0
C696 C 0.18523 0.64673 0.03769 0.0
C697 C 0.15959 0.6696 0.01678 0.0
C698 C 0.1233 0.6502 0.0033 0.0
C699 C 0.11362 0.60853 0.01049 0.0
C700 C 0.14106 0.58555 0.02934 0.0
H701 H 0.21482 0.37166 0.61115 0.0
H702 H 0.15656 0.46175 0.54604 0.0
H703 H 0.21182 0.47469 0.5004 0.0
H704 H 0.30311 0.42516 0.61711 0.0
H705 H 0.33125 0.38331 0.6108 0.0
H706 H 0.28379 0.37459 0.63092 0.0
H707 H 0.2625 0.32119 0.57306 0.0
H708 H 0.31018 0.32965 0.55267 0.0
H709 H 0.26777 0.33494 0.51984 0.0
H710 H 0.27813 0.48691 0.47167 0.0
H711 H 0.34927 0.49863 0.46458 0.0
H712 H 0.36403 0.39934 0.54722 0.0
C713 C 0.21315 0.39239 0.58575 0.0
C714 C 0.18138 0.41484 0.58083 0.0
C715 C 0.18043 0.44347 0.54896 0.0
C716 C 0.21168 0.45103 0.52312 0.0
C717 C 0.24344 0.42925 0.52938 0.0
C718 C 0.24418 0.40018 0.55973 0.0
C719 C 0.28359 0.38506 0.56412 0.0
C720 C 0.30147 0.39252 0.60832 0.0
C721 C 0.28084 0.34003 0.55167 0.0
C722 C 0.30549 0.41152 0.5331 0.0
C723 C 0.28175 0.4363 0.51269 0.0
C724 C 0.29676 0.46673 0.48636 0.0
C725 C 0.33718 0.47295 0.48207 0.0
C726 C 0.36194 0.44919 0.50449 0.0
C727 C 0.34556 0.41704 0.52871 0.0
H728 H 0.96428 0.85369 0.88574 0.0
H729 H 0.84189 0.8278 0.9083 0.0
H730 H 0.85334 0.76239 0.93862 0.0
H731 H 0.96914 0.74568 0.85198 0.0
H732 H 0.01874 0.74581 0.87115 0.0
H733 H 0.00165 0.79216 0.85338 0.0
H734 H 0.02421 0.82614 0.9239 0.0
H735 H 0.04023 0.77945 0.94222 0.0
H736 H 0.00577 0.80391 0.97059 0.0
H737 H 0.87874 0.70519 0.97576 0.0
H738 H 0.91045 0.64396 0.99163 0.0
H739 H 0.01339 0.69636 0.93214 0.0
C740 C 0.93994 0.83377 0.89631 0.0
C741 C 0.90232 0.84658 0.89616 0.0
C742 C 0.87101 0.81905 0.90915 0.0
C743 C 0.87729 0.78203 0.92687 0.0
C744 C 0.91484 0.77136 0.92924 0.0
C745 C 0.94527 0.79497 0.91202 0.0
C746 C 0.9814 0.77272 0.91378 0.0
C747 C 0.99344 0.76354 0.86997 0.0
C748 C 0.01488 0.79703 0.93914 0.0
C749 C 0.96651 0.73389 0.93576 0.0
C750 C 0.92841 0.7348 0.94571 0.0
C751 C 0.90839 0.70366 0.96752 0.0
C752 C 0.92684 0.66925 0.97706 0.0
C753 C 0.96444 0.66559 0.96368 0.0
C754 C 0.98487 0.69875 0.94348 0.0
H755 H 0.39295 0.76578 0.18892 0.0
H756 H 0.45384 0.68216 0.12204 0.0
H757 H 0.50046 0.73881 0.10028 0.0
H758 H 0.38569 0.82727 0.11777 0.0
H759 H 0.39239 0.87548 0.14476 0.0
H760 H 0.37591 0.83042 0.17176 0.0
H761 H 0.43336 0.84289 0.22578 0.0
H762 H 0.44932 0.88945 0.20015 0.0
H763 H 0.48231 0.85191 0.20888 0.0
H764 H 0.52254 0.80092 0.06641 0.0
H765 H 0.52554 0.86495 0.02903 0.0
H766 H 0.44931 0.91208 0.11499 0.0
C767 C 0.41819 0.75966 0.1726 0.0
C768 C 0.42081 0.7202 0.15766 0.0
C769 C 0.45247 0.71231 0.1345 0.0
C770 C 0.47875 0.74443 0.12184 0.0
C771 C 0.47285 0.7839 0.13313 0.0
C772 C 0.44393 0.7917 0.15906 0.0
C773 C 0.438 0.83634 0.15912 0.0
C774 C 0.39551 0.84268 0.14763 0.0
C775 C 0.45157 0.85634 0.20097 0.0
C776 C 0.46485 0.85152 0.12584 0.0
C777 C 0.48555 0.82099 0.11234 0.0
C778 C 0.50773 0.82544 0.07777 0.0
C779 C 0.50873 0.8617 0.05639 0.0
C780 C 0.48757 0.89315 0.06938 0.0
C781 C 0.4662 0.88858 0.10514 0.0
H782 H 0.12331 0.34927 0.54039 0.0
H783 H 0.10253 0.34275 0.67113 0.0
H784 H 0.07749 0.27114 0.66329 0.0
H785 H 0.04706 0.27511 0.49995 0.0
H786 H 0.0762 0.24948 0.46593 0.0
H787 H 0.08945 0.30237 0.47887 0.0
H788 H 0.1578 0.28753 0.50559 0.0
H789 H 0.14508 0.23487 0.49154 0.0
H790 H 0.16209 0.24886 0.54363 0.0
H791 H 0.04385 0.20646 0.6404 0.0
H792 H 0.03391 0.13662 0.614 0.0
H793 H 0.09317 0.17395 0.50325 0.0
C794 C 0.11336 0.33255 0.5671 0.0
C795 C 0.11127 0.35242 0.60567 0.0
C796 C 0.10098 0.32898 0.64064 0.0
C797 C 0.08687 0.28824 0.6366 0.0
C798 C 0.08574 0.27037 0.59777 0.0
C799 C 0.10127 0.29045 0.56421 0.0
C800 C 0.10227 0.26069 0.52824 0.0
C801 C 0.07726 0.27265 0.49103 0.0
C802 C 0.14431 0.2578 0.51657 0.0
C803 C 0.08413 0.2214 0.54714 0.0
C804 C 0.07309 0.229 0.58652 0.0
C805 C 0.05322 0.19955 0.61005 0.0
C806 C 0.04714 0.16013 0.59444 0.0
C807 C 0.06285 0.14992 0.55683 0.0
C808 C 0.08038 0.18109 0.53184 0.0
H809 H 0.6013 0.21673 0.48555 0.0
H810 H 0.67641 0.24355 0.38391 0.0
H811 H 0.65311 0.31038 0.37637 0.0
H812 H 0.52081 0.26597 0.44668 0.0
H813 H 0.50958 0.28817 0.49495 0.0
H814 H 0.53243 0.24208 0.49464 0.0
H815 H 0.58867 0.27561 0.5429 0.0
H816 H 0.56569 0.32162 0.54383 0.0
H817 H 0.61506 0.32295 0.52847 0.0
H818 H 0.61877 0.36852 0.37357 0.0
H819 H 0.5828 0.42592 0.38268 0.0
H820 H 0.53101 0.37037 0.4913 0.0
C821 C 0.61301 0.23719 0.46228 0.0
C822 C 0.64059 0.22522 0.43499 0.0
C823 C 0.65539 0.25246 0.40485 0.0
C824 C 0.64218 0.29026 0.40029 0.0
C825 C 0.61444 0.30094 0.4266 0.0
C826 C 0.60049 0.27608 0.45774 0.0
C827 C 0.57125 0.29688 0.48188 0.0
C828 C 0.53113 0.27177 0.47938 0.0
C829 C 0.58606 0.30473 0.52695 0.0
C830 C 0.57059 0.33663 0.45852 0.0
C831 C 0.59561 0.33735 0.42658 0.0
C832 C 0.5997 0.3689 0.39898 0.0
C833 C 0.57879 0.40159 0.40464 0.0
C834 C 0.55425 0.40365 0.43832 0.0
C835 C 0.54957 0.3701 0.46541 0.0
loop_
_geom_bond_atom_site_label_1
_geom_bond_atom_site_label_2
_geom_bond_distance
_geom_bond_site_symmetry_2
_ccdc_geom_bond_type
C0 N1 1.317 . S
C0 N2 1.348 . S
C0 C3 1.485 . S
N1 C0 1.317 . S
N1 N5 1.370 . S
N2 C0 1.348 . S
N2 C4 1.346 . S
C3 C0 1.485 . S
C3 H7 0.960 . S
C3 H8 0.961 . S
C3 H9 0.960 . S
C4 N2 1.346 . S
C4 N5 1.307 . S
C4 C6 1.486 . S
N5 N1 1.370 . S
N5 C4 1.307 . S
C6 C4 1.486 . S
C6 H10 0.960 . S
C6 H11 0.960 . S
C6 H12 0.959 . S
H7 C3 0.960 . S
H8 C3 0.961 . S
H9 C3 0.960 . S
H10 C6 0.960 . S
H11 C6 0.960 . S
H12 C6 0.959 . S
C13 N14 1.317 . S
C13 N15 1.348 . S
C13 C16 1.485 . S
N14 C13 1.317 . S
N14 N18 1.370 . S
N15 C13 1.348 . S
N15 C17 1.346 . S
C16 C13 1.485 . S
C16 H20 0.960 . S
C16 H21 0.961 . S
C16 H22 0.960 . S
C17 N15 1.346 . S
C17 N18 1.307 . S
C17 C19 1.486 . S
N18 N14 1.370 . S
N18 C17 1.307 . S
C19 C17 1.486 . S
C19 H23 0.960 . S
C19 H24 0.960 . S
C19 H25 0.959 . S
H20 C16 0.960 . S
H21 C16 0.961 . S
H22 C16 0.960 . S
H23 C19 0.960 . S
H24 C19 0.960 . S
H25 C19 0.959 . S
C26 N27 1.317 . S
C26 N28 1.348 . S
C26 C29 1.485 . S
N27 C26 1.317 . S
N27 N31 1.370 . S
N28 C26 1.348 . S
N28 C30 1.346 . S
C29 C26 1.485 . S
C29 H33 0.960 . S
C29 H34 0.961 . S
C29 H35 0.960 . S
C30 N28 1.346 . S
C30 N31 1.307 . S
C30 C32 1.486 . S
N31 N27 1.370 . S
N31 C30 1.307 . S
C32 C30 1.486 . S
C32 H36 0.960 . S
C32 H37 0.960 . S
C32 H38 0.959 . S
H33 C29 0.960 . S
H34 C29 0.961 . S
H35 C29 0.960 . S
H36 C32 0.960 . S
H37 C32 0.960 . S
H38 C32 0.959 . S
C39 N40 1.317 . S
C39 N41 1.348 . S
C39 C42 1.485 . S
N40 C39 1.317 . S
N40 N44 1.370 . S
N41 C39 1.348 . S
N41 C43 1.346 . S
C42 C39 1.485 . S
C42 H46 0.960 . S
C42 H47 0.961 . S
C42 H48 0.960 . S
C43 N41 1.346 . S
C43 N44 1.307 . S
C43 C45 1.486 . S
N44 N40 1.370 . S
N44 C43 1.307 . S
C45 C43 1.486 . S
C45 H49 0.960 . S
C45 H50 0.960 . S
C45 H51 0.959 . S
H46 C42 0.960 . S
H47 C42 0.961 . S
H48 C42 0.960 . S
H49 C45 0.960 . S
H50 C45 0.960 . S
H51 C45 0.959 . S
C52 N53 1.317 . S
C52 N54 1.348 . S
C52 C55 1.485 . S
N53 C52 1.317 . S
N53 N57 1.370 . S
N54 C52 1.348 . S
N54 C56 1.346 . S
C55 C52 1.485 . S
C55 H59 0.960 . S
C55 H60 0.961 . S
C55 H61 0.960 . S
C56 N54 1.346 . S
C56 N57 1.307 . S
C56 C58 1.486 . S
N57 N53 1.370 . S
N57 C56 1.307 . S
C58 C56 1.486 . S
C58 H62 0.960 . S
C58 H63 0.960 . S
C58 H64 0.959 . S
H59 C55 0.960 . S
H60 C55 0.961 . S
H61 C55 0.960 . S
H62 C58 0.960 . S
H63 C58 0.960 . S
H64 C58 0.959 . S
C65 N66 1.317 . S
C65 N67 1.348 . S
C65 C68 1.485 . S
N66 C65 1.317 . S
N66 N70 1.370 . S
N67 C65 1.348 . S
N67 C69 1.346 . S
C68 C65 1.485 . S
C68 H72 0.960 . S
C68 H73 0.961 . S
C68 H74 0.960 . S
C69 N67 1.346 . S
C69 N70 1.307 . S
C69 C71 1.486 . S
N70 N66 1.370 . S
N70 C69 1.307 . S
C71 C69 1.486 . S
C71 H75 0.960 . S
C71 H76 0.960 . S
C71 H77 0.959 . S
H72 C68 0.960 . S
H73 C68 0.961 . S
H74 C68 0.960 . S
H75 C71 0.960 . S
H76 C71 0.960 . S
H77 C71 0.959 . S
C78 N79 1.317 . S
C78 N80 1.348 . S
C78 C81 1.485 . S
N79 C78 1.317 . S
N79 N83 1.370 . S
N80 C78 1.348 . S
N80 C82 1.346 . S
C81 C78 1.485 . S
C81 H85 0.960 . S
C81 H86 0.961 . S
C81 H87 0.960 . S
C82 N80 1.346 . S
C82 N83 1.307 . S
C82 C84 1.486 . S
N83 N79 1.370 . S
N83 C82 1.307 . S
C84 C82 1.486 . S
C84 H88 0.960 . S
C84 H89 0.960 . S
C84 H90 0.959 . S
H85 C81 0.960 . S
H86 C81 0.961 . S
H87 C81 0.960 . S
H88 C84 0.960 . S
H89 C84 0.960 . S
H90 C84 0.959 . S
C91 N92 1.317 . S
C91 N93 1.348 . S
C91 C94 1.485 . S
N92 C91 1.317 . S
N92 N96 1.370 . S
N93 C91 1.348 . S
N93 C95 1.346 . S
C94 C91 1.485 . S
C94 H98 0.960 . S
C94 H99 0.961 . S
C94 H100 0.960 . S
C95 N93 1.346 . S
C95 N96 1.307 . S
C95 C97 1.486 . S
N96 N92 1.370 . S
N96 C95 1.307 . S
C97 C95 1.486 . S
C97 H101 0.960 . S
C97 H102 0.960 . S
C97 H103 0.959 . S
H98 C94 0.960 . S
H99 C94 0.961 . S
H100 C94 0.960 . S
H101 C97 0.960 . S
H102 C97 0.960 . S
H103 C97 0.959 . S
O104 Mg105 1.990 . S
O104 C118 1.253 1_545 S
Mg105 O104 1.990 . S
Mg105 O108 2.180 . S
Mg105 O109 2.117 . S
Mg105 O123 2.013 1_545 S
O106 Mg107 2.072 1_565 S
O106 C118 1.260 . S
Mg107 O106 2.072 1_545 S
Mg107 O108 2.099 . S
Mg107 O110 2.079 . S
Mg107 O111 2.072 . S
Mg107 O113 2.099 1_545 S
Mg107 O124 2.079 1_545 S
O108 Mg105 2.180 . S
O108 Mg107 2.099 . S
O108 C119 1.279 . S
O109 Mg105 2.117 . S
O109 C119 1.250 . S
O110 Mg107 2.079 . S
O110 C120 1.264 . S
O111 Mg107 2.072 . S
O111 C121 1.260 1_455 S
Mg112 O113 2.180 1_655 S
Mg112 O114 2.030 1_665 S
Mg112 O115 1.990 1_565 S
Mg112 O116 2.117 . S
O113 Mg107 2.099 1_565 S
O113 Mg112 2.180 1_455 S
O113 C122 1.279 . S
O114 Mg112 2.030 1_445 S
O114 C120 1.248 . S
O115 Mg112 1.990 1_545 S
O115 C121 1.253 . S
O116 Mg112 2.117 . S
O116 C122 1.250 1_655 S
C117 O123 1.256 . S
C117 O124 1.264 . S
C118 O104 1.253 1_565 S
C118 O106 1.260 . S
C119 O108 1.279 . S
C119 O109 1.250 . S
C120 O110 1.264 . S
C120 O114 1.248 . S
C121 O111 1.260 1_655 S
C121 O115 1.253 . S
C122 O113 1.279 . S
C122 O116 1.250 1_455 S
O123 Mg105 2.013 1_565 S
O123 C117 1.256 . S
O124 Mg107 2.079 1_565 S
O124 C117 1.264 . S
O125 Mg126 1.990 . S
O125 C139 1.253 . S
Mg126 O125 1.990 . S
Mg126 O129 2.180 . S
Mg126 O130 2.117 . S
Mg126 O144 2.030 . S
O127 Mg128 2.072 . S
O127 C139 1.260 . S
Mg128 O127 2.072 . S
Mg128 O129 2.099 . S
Mg128 O131 2.079 . S
Mg128 O132 2.072 1_554 S
Mg128 O134 2.099 1_545 S
Mg128 O145 2.079 . S
O129 Mg126 2.180 . S
O129 Mg128 2.099 . S
O129 C140 1.279 . S
O130 Mg126 2.117 . S
O130 C140 1.250 . S
O131 Mg128 2.079 . S
O131 C141 1.264 1_545 S
O132 Mg128 2.072 1_556 S
O132 C142 1.260 1_545 S
Mg133 O134 2.175 1_556 S
Mg133 O135 2.032 . S
Mg133 O136 1.995 . S
Mg133 O137 2.113 1_556 S
O134 Mg128 2.099 1_565 S
O134 Mg133 2.175 1_554 S
O134 C143 1.279 . S
O135 Mg133 2.032 . S
O135 C141 1.248 1_556 S
O136 Mg133 1.995 . S
O136 C142 1.253 . S
O137 Mg133 2.113 1_554 S
O137 C143 1.250 . S
C138 O144 1.248 . S
C138 O145 1.264 . S
C139 O125 1.253 . S
C139 O127 1.260 . S
C140 O129 1.279 . S
C140 O130 1.250 . S
C141 O131 1.264 1_565 S
C141 O135 1.248 1_554 S
C142 O132 1.260 1_565 S
C142 O136 1.253 . S
C143 O134 1.279 . S
C143 O137 1.250 . S
O144 Mg126 2.030 . S
O144 C138 1.248 . S
O145 Mg128 2.079 . S
O145 C138 1.264 . S
O146 Mg147 1.990 . S
O146 C160 1.253 . S
Mg147 O146 1.990 . S
Mg147 O150 2.180 . S
Mg147 O151 2.117 . S
Mg147 O165 2.030 . S
O148 Mg149 2.072 . S
O148 C160 1.260 . S
Mg149 O148 2.072 . S
Mg149 O150 2.099 . S
Mg149 O152 2.079 . S
Mg149 O153 2.072 . S
Mg149 O155 2.099 . S
Mg149 O166 2.079 . S
O150 Mg147 2.180 . S
O150 Mg149 2.099 . S
O150 C161 1.279 . S
O151 Mg147 2.117 . S
O151 C161 1.250 . S
O152 Mg149 2.079 . S
O152 C162 1.264 . S
O153 Mg149 2.072 . S
O153 C163 1.260 . S
Mg154 O155 2.180 . S
Mg154 O156 2.030 . S
Mg154 O157 1.990 . S
Mg154 O158 2.117 . S
O155 Mg149 2.099 . S
O155 Mg154 2.180 . S
O155 C164 1.279 . S
O156 Mg154 2.030 . S
O156 C162 1.248 . S
O157 Mg154 1.990 . S
O157 C163 1.253 . S
O158 Mg154 2.117 . S
O158 C164 1.250 . S
C159 O165 1.248 . S
C159 O166 1.264 . S
C160 O146 1.253 . S
C160 O148 1.260 . S
C161 O150 1.279 . S
C161 O151 1.250 . S
C162 O152 1.264 . S
C162 O156 1.248 . S
C163 O153 1.260 . S
C163 O157 1.253 . S
C164 O155 1.279 . S
C164 O158 1.250 . S
O165 Mg147 2.030 . S
O165 C159 1.248 . S
O166 Mg149 2.079 . S
O166 C159 1.264 . S
O167 Mg168 1.990 . S
O167 C181 1.253 . S
Mg168 O167 1.990 . S
Mg168 O171 2.161 1_455 S
Mg168 O172 2.117 1_455 S
Mg168 O186 2.030 . S
O169 Mg170 2.072 . S
O169 C181 1.260 . S
Mg170 O169 2.072 . S
Mg170 O171 2.094 1_455 S
Mg170 O173 2.079 1_454 S
Mg170 O174 2.072 1_454 S
Mg170 O176 2.099 1_554 S
Mg170 O187 2.079 . S
O171 Mg168 2.161 1_655 S
O171 Mg170 2.094 1_655 S
O171 C182 1.297 . S
O172 Mg168 2.117 1_655 S
O172 C182 1.250 . S
O173 Mg170 2.079 1_656 S
O173 C183 1.264 . S
O174 Mg170 2.072 1_656 S
O174 C184 1.260 . S
Mg175 O176 2.180 1_655 S
Mg175 O177 2.030 . S
Mg175 O178 1.990 . S
Mg175 O179 2.117 . S
O176 Mg170 2.099 1_556 S
O176 Mg175 2.180 1_455 S
O176 C185 1.279 . S
O177 Mg175 2.030 . S
O177 C183 1.248 . S
O178 Mg175 1.990 . S
O178 C184 1.253 . S
O179 Mg175 2.117 . S
O179 C185 1.250 1_655 S
C180 O186 1.248 . S
C180 O187 1.264 . S
C181 O167 1.253 . S
C181 O169 1.260 . S
C182 O171 1.297 . S
C182 O172 1.250 . S
C183 O173 1.264 . S
C183 O177 1.248 . S
C184 O174 1.260 . S
C184 O178 1.253 . S
C185 O176 1.279 . S
C185 O179 1.250 1_455 S
O186 Mg168 2.030 . S
O186 C180 1.248 . S
O187 Mg170 2.079 . S
O187 C180 1.264 . S
H188 C200 0.930 . S
H189 C202 0.930 . S
H190 C203 0.930 . S
H191 C207 0.959 . S
H192 C207 0.959 . S
H193 C207 0.961 . S
H194 C208 0.960 . S
H195 C208 0.961 . S
H196 C208 0.959 . S
H197 C211 0.929 . S
H198 C212 0.931 . S
H199 C214 0.930 . S
C200 H188 0.930 . S
C200 C201 1.399 . S
C200 C205 1.399 . S
C201 C200 1.399 . S
C201 C202 1.376 . S
C202 H189 0.930 . S
C202 C201 1.376 . S
C202 C203 1.388 . S
C203 H190 0.930 . S
C203 C202 1.388 . S
C203 C204 1.390 . S
C204 C203 1.390 . S
C204 C205 1.394 . S
C204 C210 1.465 . S
C205 C200 1.399 . S
C205 C204 1.394 . S
C205 C206 1.516 . S
C206 C205 1.516 . S
C206 C207 1.502 . S
C206 C208 1.561 . S
C206 C209 1.526 . S
C207 H191 0.959 . S
C207 H192 0.959 . S
C207 H193 0.961 . S
C207 C206 1.502 . S
C208 H194 0.960 . S
C208 H195 0.961 . S
C208 H196 0.959 . S
C208 C206 1.561 . S
C209 C206 1.526 . S
C209 C210 1.396 . S
C209 C214 1.390 . S
C210 C204 1.465 . S
C210 C209 1.396 . S
C210 C211 1.399 . S
C211 H197 0.929 . S
C211 C210 1.399 . S
C211 C212 1.385 . S
C212 H198 0.931 . S
C212 C211 1.385 . S
C212 C213 1.389 . S
C213 C212 1.389 . S
C213 C214 1.387 . S
C214 H199 0.930 . S
C214 C209 1.390 . S
C214 C213 1.387 . S
H215 C227 0.930 . S
H216 C229 0.930 . S
H217 C230 0.930 . S
H218 C234 0.959 . S
H219 C234 0.959 . S
H220 C234 0.961 . S
H221 C235 0.960 . S
H222 C235 0.961 . S
H223 C235 0.959 . S
H224 C238 0.929 . S
H225 C239 0.931 . S
H226 C241 0.930 . S
C227 H215 0.930 . S
C227 C228 1.399 . S
C227 C232 1.399 . S
C228 C227 1.399 . S
C228 C229 1.376 . S
C229 H216 0.930 . S
C229 C228 1.376 . S
C229 C230 1.388 . S
C230 H217 0.930 . S
C230 C229 1.388 . S
C230 C231 1.390 . S
C231 C230 1.390 . S
C231 C232 1.394 . S
C231 C237 1.465 . S
C232 C227 1.399 . S
C232 C231 1.394 . S
C232 C233 1.516 1_565 S
C233 C232 1.516 1_545 S
C233 C234 1.502 . S
C233 C235 1.561 . S
C233 C236 1.526 1_545 S
C234 H218 0.959 . S
C234 H219 0.959 . S
C234 H220 0.961 . S
C234 C233 1.502 . S
C235 H221 0.960 . S
C235 H222 0.961 . S
C235 H223 0.959 . S
C235 C233 1.561 . S
C236 C233 1.526 1_565 S
C236 C237 1.396 . S
C236 C241 1.390 1_565 S
C237 C231 1.465 . S
C237 C236 1.396 . S
C237 C238 1.399 . S
C238 H224 0.929 . S
C238 C237 1.399 . S
C238 C239 1.385 . S
C239 H225 0.931 . S
C239 C238 1.385 . S
C239 C240 1.389 . S
C240 C239 1.389 . S
C240 C241 1.387 1_565 S
C241 H226 0.930 . S
C241 C236 1.390 1_545 S
C241 C240 1.387 1_545 S
H242 C254 0.930 . S
H243 C256 0.930 . S
H244 C257 0.930 . S
H245 C261 0.959 . S
H246 C261 0.959 . S
H247 C261 0.961 . S
H248 C262 0.960 . S
H249 C262 0.961 . S
H250 C262 0.959 . S
H251 C265 0.929 . S
H252 C266 0.931 . S
H253 C268 0.930 . S
C254 H242 0.930 . S
C254 C255 1.399 . S
C254 C259 1.399 . S
C255 C254 1.399 . S
C255 C256 1.376 . S
C256 H243 0.930 . S
C256 C255 1.376 . S
C256 C257 1.388 . S
C257 H244 0.930 . S
C257 C256 1.388 . S
C257 C258 1.390 . S
C258 C257 1.390 . S
C258 C259 1.394 . S
C258 C264 1.465 . S
C259 C254 1.399 . S
C259 C258 1.394 . S
C259 C260 1.516 . S
C260 C259 1.516 . S
C260 C261 1.502 . S
C260 C262 1.561 . S
C260 C263 1.526 . S
C261 H245 0.959 . S
C261 H246 0.959 . S
C261 H247 0.961 . S
C261 C260 1.502 . S
C262 H248 0.960 . S
C262 H249 0.961 . S
C262 H250 0.959 . S
C262 C260 1.561 . S
C263 C260 1.526 . S
C263 C264 1.396 . S
C263 C268 1.390 . S
C264 C258 1.465 . S
C264 C263 1.396 . S
C264 C265 1.399 . S
C265 H251 0.929 . S
C265 C264 1.399 . S
C265 C266 1.385 . S
C266 H252 0.931 . S
C266 C265 1.385 . S
C266 C267 1.389 . S
C267 C266 1.389 . S
C267 C268 1.387 . S
C268 H253 0.930 . S
C268 C263 1.390 . S
C268 C267 1.387 . S
H269 C281 0.930 . S
H270 C283 0.930 . S
H271 C284 0.930 . S
H272 C288 0.959 . S
H273 C288 0.959 . S
H274 C288 0.961 . S
H275 C289 0.960 . S
H276 C289 0.961 . S
H277 C289 0.959 . S
H278 C292 0.929 . S
H279 C293 0.931 . S
H280 C295 0.930 . S
C281 H269 0.930 . S
C281 C282 1.399 . S
C281 C286 1.399 . S
C282 C281 1.399 . S
C282 C283 1.376 . S
C283 H270 0.930 . S
C283 C282 1.376 . S
C283 C284 1.388 . S
C284 H271 0.930 . S
C284 C283 1.388 . S
C284 C285 1.390 . S
C285 C284 1.390 . S
C285 C286 1.394 . S
C285 C291 1.465 . S
C286 C281 1.399 . S
C286 C285 1.394 . S
C286 C287 1.516 . S
C287 C286 1.516 . S
C287 C288 1.502 . S
C287 C289 1.561 . S
C287 C290 1.526 . S
C288 H272 0.959 . S
C288 H273 0.959 . S
C288 H274 0.961 . S
C288 C287 1.502 . S
C289 H275 0.960 . S
C289 H276 0.961 . S
C289 H277 0.959 . S
C289 C287 1.561 . S
C290 C287 1.526 . S
C290 C291 1.396 . S
C290 C295 1.390 . S
C291 C285 1.465 . S
C291 C290 1.396 . S
C291 C292 1.399 . S
C292 H278 0.929 . S
C292 C291 1.399 . S
C292 C293 1.385 . S
C293 H279 0.931 . S
C293 C292 1.385 . S
C293 C294 1.389 . S
C294 C293 1.389 . S
C294 C295 1.387 . S
C295 H280 0.930 . S
C295 C290 1.390 . S
C295 C294 1.387 . S
H296 C308 0.930 . S
H297 C310 0.930 . S
H298 C311 0.930 . S
H299 C315 0.959 . S
H300 C315 0.959 . S
H301 C315 0.961 . S
H302 C316 0.960 . S
H303 C316 0.961 1_556 S
H304 C316 0.959 . S
H305 C319 0.929 . S
H306 C320 0.931 . S
H307 C322 0.930 . S
C308 H296 0.930 . S
C308 C309 1.399 . S
C308 C313 1.399 . S
C309 C308 1.399 . S
C309 C310 1.376 . S
C310 H297 0.930 . S
C310 C309 1.376 . S
C310 C311 1.388 . S
C311 H298 0.930 . S
C311 C310 1.388 . S
C311 C312 1.390 . S
C312 C311 1.390 . S
C312 C313 1.394 . S
C312 C318 1.465 . S
C313 C308 1.399 . S
C313 C312 1.394 . S
C313 C314 1.516 . S
C314 C313 1.516 . S
C314 C315 1.502 . S
C314 C316 1.561 . S
C314 C317 1.526 . S
C315 H299 0.959 . S
C315 H300 0.959 . S
C315 H301 0.961 . S
C315 C314 1.502 . S
C316 H302 0.960 . S
C316 H303 0.961 1_554 S
C316 H304 0.959 . S
C316 C314 1.561 . S
C317 C314 1.526 . S
C317 C318 1.396 . S
C317 C322 1.390 . S
C318 C312 1.465 . S
C318 C317 1.396 . S
C318 C319 1.399 . S
C319 H305 0.929 . S
C319 C318 1.399 . S
C319 C320 1.385 . S
C320 H306 0.931 . S
C320 C319 1.385 . S
C320 C321 1.389 . S
C321 C320 1.389 . S
C321 C322 1.387 . S
C322 H307 0.930 . S
C322 C317 1.390 . S
C322 C321 1.387 . S
H323 C335 0.930 . S
H324 C337 0.930 . S
H325 C338 0.930 . S
H326 C342 0.959 . S
H327 C342 0.959 1_545 S
H328 C342 0.961 . S
H329 C343 0.960 . S
H330 C343 0.961 . S
H331 C343 0.959 . S
H332 C346 0.929 . S
H333 C347 0.931 . S
H334 C349 0.930 1_545 S
C335 H323 0.930 . S
C335 C336 1.399 . S
C335 C340 1.399 . S
C336 C335 1.399 . S
C336 C337 1.376 . S
C337 H324 0.930 . S
C337 C336 1.376 . S
C337 C338 1.388 . S
C338 H325 0.930 . S
C338 C337 1.388 . S
C338 C339 1.390 . S
C339 C338 1.390 . S
C339 C340 1.394 . S
C339 C345 1.465 . S
C340 C335 1.399 . S
C340 C339 1.394 . S
C340 C341 1.516 . S
C341 C340 1.516 . S
C341 C342 1.502 . S
C341 C343 1.561 1_565 S
C341 C344 1.526 . S
C342 H326 0.959 . S
C342 H327 0.959 1_565 S
C342 H328 0.961 . S
C342 C341 1.502 . S
C343 H329 0.960 . S
C343 H330 0.961 . S
C343 H331 0.959 . S
C343 C341 1.561 1_545 S
C344 C341 1.526 . S
C344 C345 1.396 . S
C344 C349 1.390 . S
C345 C339 1.465 . S
C345 C344 1.396 . S
C345 C346 1.399 . S
C346 H332 0.929 . S
C346 C345 1.399 . S
C346 C347 1.385 . S
C347 H333 0.931 . S
C347 C346 1.385 . S
C347 C348 1.389 . S
C348 C347 1.389 . S
C348 C349 1.387 . S
C349 H334 0.930 1_565 S
C349 C344 1.390 . S
C349 C348 1.387 . S
H350 C362 0.930 . S
H351 C364 0.930 . S
H352 C365 0.930 . S
H353 C369 0.959 . S
H354 C369 0.959 . S
H355 C369 0.961 . S
H356 C370 0.960 . S
H357 C370 0.961 . S
H358 C370 0.959 . S
H359 C373 0.929 . S
H360 C374 0.931 1_554 S
H361 C376 0.930 . S
C362 H350 0.930 . S
C362 C363 1.399 . S
C362 C367 1.399 . S
C363 C362 1.399 . S
C363 C364 1.376 . S
C364 H351 0.930 . S
C364 C363 1.376 . S
C364 C365 1.388 . S
C365 H352 0.930 . S
C365 C364 1.388 . S
C365 C366 1.390 . S
C366 C365 1.390 . S
C366 C367 1.394 . S
C366 C372 1.465 . S
C367 C362 1.399 . S
C367 C366 1.394 . S
C367 C368 1.516 . S
C368 C367 1.516 . S
C368 C369 1.502 . S
C368 C370 1.561 . S
C368 C371 1.526 . S
C369 H353 0.959 . S
C369 H354 0.959 . S
C369 H355 0.961 . S
C369 C368 1.502 . S
C370 H356 0.960 . S
C370 H357 0.961 . S
C370 H358 0.959 . S
C370 C368 1.561 . S
C371 C368 1.526 . S
C371 C372 1.396 . S
C371 C376 1.390 . S
C372 C366 1.465 . S
C372 C371 1.396 . S
C372 C373 1.399 . S
C373 H359 0.929 . S
C373 C372 1.399 . S
C373 C374 1.385 . S
C374 H360 0.931 1_556 S
C374 C373 1.385 . S
C374 C375 1.389 . S
C375 C374 1.389 . S
C375 C376 1.387 . S
C376 H361 0.930 . S
C376 C371 1.390 . S
C376 C375 1.387 . S
H377 C389 0.930 . S
H378 C391 0.930 . S
H379 C392 0.930 . S
H380 C396 0.959 . S
H381 C396 0.959 . S
H382 C396 0.961 . S
H383 C397 0.960 . S
H384 C397 0.961 . S
H385 C397 0.959 . S
H386 C400 0.929 . S
H387 C401 0.931 . S
H388 C403 0.930 . S
C389 H377 0.930 . S
C389 C390 1.399 . S
C389 C394 1.399 . S
C390 C389 1.399 . S
C390 C391 1.376 . S
C391 H378 0.930 . S
C391 C390 1.376 . S
C391 C392 1.388 . S
C392 H379 0.930 . S
C392 C391 1.388 . S
C392 C393 1.390 . S
C393 C392 1.390 . S
C393 C394 1.394 . S
C393 C399 1.465 . S
C394 C389 1.399 . S
C394 C393 1.394 . S
C394 C395 1.516 . S
C395 C394 1.516 . S
C395 C396 1.502 . S
C395 C397 1.561 . S
C395 C398 1.526 . S
C396 H380 0.959 . S
C396 H381 0.959 . S
C396 H382 0.961 . S
C396 C395 1.502 . S
C397 H383 0.960 . S
C397 H384 0.961 . S
C397 H385 0.959 . S
C397 C395 1.561 . S
C398 C395 1.526 . S
C398 C399 1.396 . S
C398 C403 1.390 . S
C399 C393 1.465 . S
C399 C398 1.396 . S
C399 C400 1.399 . S
C400 H386 0.929 . S
C400 C399 1.399 . S
C400 C401 1.385 . S
C401 H387 0.931 . S
C401 C400 1.385 . S
C401 C402 1.389 . S
C402 C401 1.389 . S
C402 C403 1.387 . S
C403 H388 0.930 . S
C403 C398 1.390 . S
C403 C402 1.387 . S
H404 C416 0.930 . S
H405 C418 0.930 . S
H406 C419 0.930 . S
H407 C423 0.959 . S
H408 C423 0.959 1_556 S
H409 C423 0.961 1_556 S
H410 C424 0.960 . S
H411 C424 0.961 . S
H412 C424 0.959 . S
H413 C427 0.929 . S
H414 C428 0.931 . S
H415 C430 0.930 1_556 S
C416 H404 0.930 . S
C416 C417 1.399 . S
C416 C421 1.399 . S
C417 C416 1.399 . S
C417 C418 1.376 . S
C418 H405 0.930 . S
C418 C417 1.376 . S
C418 C419 1.388 . S
C419 H406 0.930 . S
C419 C418 1.388 . S
C419 C420 1.390 . S
C420 C419 1.390 . S
C420 C421 1.394 . S
C420 C426 1.465 . S
C421 C416 1.399 . S
C421 C420 1.394 . S
C421 C422 1.516 . S
C422 C421 1.516 . S
C422 C423 1.502 . S
C422 C424 1.561 1_554 S
C422 C425 1.526 . S
C423 H407 0.959 . S
C423 H408 0.959 1_554 S
C423 H409 0.961 1_554 S
C423 C422 1.502 . S
C424 H410 0.960 . S
C424 H411 0.961 . S
C424 H412 0.959 . S
C424 C422 1.561 1_556 S
C425 C422 1.526 . S
C425 C426 1.396 . S
C425 C430 1.390 . S
C426 C420 1.465 . S
C426 C425 1.396 . S
C426 C427 1.399 . S
C427 H413 0.929 . S
C427 C426 1.399 . S
C427 C428 1.385 . S
C428 H414 0.931 . S
C428 C427 1.385 . S
C428 C429 1.389 . S
C429 C428 1.389 . S
C429 C430 1.387 . S
C430 H415 0.930 1_554 S
C430 C425 1.390 . S
C430 C429 1.387 . S
H431 C443 0.930 . S
H432 C445 0.930 . S
H433 C446 0.930 . S
H434 C450 0.959 . S
H435 C450 0.959 . S
H436 C450 0.961 . S
H437 C451 0.960 . S
H438 C451 0.961 1_554 S
H439 C451 0.959 . S
H440 C454 0.929 . S
H441 C455 0.931 . S
H442 C457 0.930 1_554 S
C443 H431 0.930 . S
C443 C444 1.399 . S
C443 C448 1.399 . S
C444 C443 1.399 . S
C444 C445 1.376 . S
C445 H432 0.930 . S
C445 C444 1.376 . S
C445 C446 1.388 . S
C446 H433 0.930 . S
C446 C445 1.388 . S
C446 C447 1.390 . S
C447 C446 1.390 . S
C447 C448 1.394 . S
C447 C453 1.465 . S
C448 C443 1.399 . S
C448 C447 1.394 . S
C448 C449 1.516 . S
C449 C448 1.516 . S
C449 C450 1.502 1_556 S
C449 C451 1.561 . S
C449 C452 1.526 . S
C450 H434 0.959 . S
C450 H435 0.959 . S
C450 H436 0.961 . S
C450 C449 1.502 1_554 S
C451 H437 0.960 . S
C451 H438 0.961 1_556 S
C451 H439 0.959 . S
C451 C449 1.561 . S
C452 C449 1.526 . S
C452 C453 1.396 . S
C452 C457 1.390 . S
C453 C447 1.465 . S
C453 C452 1.396 . S
C453 C454 1.399 . S
C454 H440 0.929 . S
C454 C453 1.399 . S
C454 C455 1.385 . S
C455 H441 0.931 . S
C455 C454 1.385 . S
C455 C456 1.389 . S
C456 C455 1.389 . S
C456 C457 1.387 . S
C457 H442 0.930 1_556 S
C457 C452 1.390 . S
C457 C456 1.387 . S
H458 C470 0.930 . S
H459 C472 0.930 . S
H460 C473 0.930 1_455 S
H461 C477 0.959 . S
H462 C477 0.959 . S
H463 C477 0.961 . S
H464 C478 0.960 . S
H465 C478 0.961 . S
H466 C478 0.959 . S
H467 C481 0.929 . S
H468 C482 0.931 . S
H469 C484 0.930 . S
C470 H458 0.930 . S
C470 C471 1.399 . S
C470 C475 1.399 . S
C471 C470 1.399 . S
C471 C472 1.376 . S
C472 H459 0.930 . S
C472 C471 1.376 . S
C472 C473 1.388 . S
C473 H460 0.930 1_655 S
C473 C472 1.388 . S
C473 C474 1.390 . S
C474 C473 1.390 . S
C474 C475 1.394 . S
C474 C480 1.465 . S
C475 C470 1.399 . S
C475 C474 1.394 . S
C475 C476 1.516 . S
C476 C475 1.516 . S
C476 C477 1.502 . S
C476 C478 1.561 . S
C476 C479 1.526 . S
C477 H461 0.959 . S
C477 H462 0.959 . S
C477 H463 0.961 . S
C477 C476 1.502 . S
C478 H464 0.960 . S
C478 H465 0.961 . S
C478 H466 0.959 . S
C478 C476 1.561 . S
C479 C476 1.526 . S
C479 C480 1.396 . S
C479 C484 1.390 . S
C480 C474 1.465 . S
C480 C479 1.396 . S
C480 C481 1.399 1_655 S
C481 H467 0.929 . S
C481 C480 1.399 1_455 S
C481 C482 1.385 . S
C482 H468 0.931 . S
C482 C481 1.385 . S
C482 C483 1.383 1_455 S
C483 C482 1.383 1_655 S
C483 C484 1.393 . S
C484 H469 0.930 . S
C484 C479 1.390 . S
C484 C483 1.393 . S
H485 C497 0.930 . S
H486 C499 0.930 . S
H487 C500 0.930 . S
H488 C504 0.959 . S
H489 C504 0.959 . S
H490 C504 0.961 . S
H491 C505 0.960 . S
H492 C505 0.961 . S
H493 C505 0.959 . S
H494 C508 0.929 . S
H495 C509 0.931 . S
H496 C511 0.930 . S
C497 H485 0.930 . S
C497 C498 1.399 . S
C497 C502 1.399 . S
C498 C497 1.399 . S
C498 C499 1.376 . S
C499 H486 0.930 . S
C499 C498 1.376 . S
C499 C500 1.388 . S
C500 H487 0.930 . S
C500 C499 1.388 . S
C500 C501 1.390 . S
C501 C500 1.390 . S
C501 C502 1.394 . S
C501 C507 1.465 . S
C502 C497 1.399 . S
C502 C501 1.394 . S
C502 C503 1.516 . S
C503 C502 1.516 . S
C503 C504 1.502 . S
C503 C505 1.561 . S
C503 C506 1.526 . S
C504 H488 0.959 . S
C504 H489 0.959 . S
C504 H490 0.961 . S
C504 C503 1.502 . S
C505 H491 0.960 . S
C505 H492 0.961 . S
C505 H493 0.959 . S
C505 C503 1.561 . S
C506 C503 1.526 . S
C506 C507 1.396 . S
C506 C511 1.390 . S
C507 C501 1.465 . S
C507 C506 1.396 . S
C507 C508 1.399 . S
C508 H494 0.929 . S
C508 C507 1.399 . S
C508 C509 1.385 . S
C509 H495 0.931 . S
C509 C508 1.385 . S
C509 C510 1.389 . S
C510 C509 1.389 . S
C510 C511 1.387 . S
C511 H496 0.930 . S
C511 C506 1.390 . S
C511 C510 1.387 . S
H512 C524 0.930 . S
H513 C526 0.930 . S
H514 C527 0.930 . S
H515 C531 0.959 . S
H516 C531 0.959 . S
H517 C531 0.961 . S
H518 C532 0.967 . S
H519 C532 0.961 . S
H520 C532 0.959 1_565 S
H521 C535 0.929 . S
H522 C536 0.931 . S
H523 C538 0.930 1_545 S
C524 H512 0.930 . S
C524 C525 1.399 . S
C524 C529 1.399 . S
C525 C524 1.399 . S
C525 C526 1.376 . S
C526 H513 0.930 . S
C526 C525 1.376 . S
C526 C527 1.388 . S
C527 H514 0.930 . S
C527 C526 1.388 . S
C527 C528 1.390 . S
C528 C527 1.390 . S
C528 C529 1.394 . S
C528 C534 1.465 . S
C529 C524 1.399 . S
C529 C528 1.394 . S
C529 C530 1.516 . S
C530 C529 1.516 . S
C530 C531 1.502 1_565 S
C530 C532 1.561 1_665 S
C530 C533 1.526 . S
C531 H515 0.959 . S
C531 H516 0.959 . S
C531 H517 0.961 . S
C531 C530 1.502 1_545 S
C532 H518 0.967 . S
C532 H519 0.961 . S
C532 H520 0.959 1_545 S
C532 C530 1.561 1_445 S
C533 C530 1.526 . S
C533 C534 1.396 . S
C533 C538 1.390 . S
C534 C528 1.465 . S
C534 C533 1.396 . S
C534 C535 1.399 . S
C535 H521 0.929 . S
C535 C534 1.399 . S
C535 C536 1.385 1_655 S
C536 H522 0.931 . S
C536 C535 1.385 1_455 S
C536 C537 1.389 . S
C537 C536 1.389 . S
C537 C538 1.387 1_455 S
C538 H523 0.930 1_565 S
C538 C533 1.390 . S
C538 C537 1.387 1_655 S
H539 C551 0.930 . S
H540 C553 0.930 . S
H541 C554 0.930 . S
H542 C558 0.959 . S
H543 C558 0.959 . S
H544 C558 0.961 . S
H545 C559 0.960 . S
H546 C559 0.961 . S
H547 C559 0.959 . S
H548 C562 0.929 . S
H549 C563 0.931 . S
H550 C565 0.930 . S
C551 H539 0.930 . S
C551 C552 1.399 . S
C551 C556 1.399 . S
C552 C551 1.399 . S
C552 C553 1.376 . S
C553 H540 0.930 . S
C553 C552 1.376 . S
C553 C554 1.388 . S
C554 H541 0.930 . S
C554 C553 1.388 . S
C554 C555 1.390 . S
C555 C554 1.390 . S
C555 C556 1.394 . S
C555 C561 1.465 . S
C556 C551 1.399 . S
C556 C555 1.394 . S
C556 C557 1.516 . S
C557 C556 1.516 . S
C557 C558 1.502 . S
C557 C559 1.561 . S
C557 C560 1.526 . S
C558 H542 0.959 . S
C558 H543 0.959 . S
C558 H544 0.961 . S
C558 C557 1.502 . S
C559 H545 0.960 . S
C559 H546 0.961 . S
C559 H547 0.959 . S
C559 C557 1.561 . S
C560 C557 1.526 . S
C560 C561 1.396 . S
C560 C565 1.390 . S
C561 C555 1.465 . S
C561 C560 1.396 . S
C561 C562 1.399 . S
C562 H548 0.929 . S
C562 C561 1.399 . S
C562 C563 1.385 . S
C563 H549 0.931 . S
C563 C562 1.385 . S
C563 C564 1.389 . S
C564 C563 1.389 . S
C564 C565 1.387 . S
C565 H550 0.930 . S
C565 C560 1.390 . S
C565 C564 1.387 . S
H566 C578 0.930 . S
H567 C580 0.930 . S
H568 C581 0.930 . S
H569 C585 0.959 . S
H570 C585 0.959 . S
H571 C585 0.961 . S
H572 C586 0.960 . S
H573 C586 0.961 . S
H574 C586 0.959 . S
H575 C589 0.929 . S
H576 C590 0.931 . S
H577 C592 0.930 . S
C578 H566 0.930 . S
C578 C579 1.399 . S
C578 C583 1.399 . S
C579 C578 1.399 . S
C579 C580 1.376 . S
C580 H567 0.930 . S
C580 C579 1.376 . S
C580 C581 1.388 . S
C581 H568 0.930 . S
C581 C580 1.388 . S
C581 C582 1.390 . S
C582 C581 1.390 . S
C582 C583 1.394 . S
C582 C588 1.465 . S
C583 C578 1.399 . S
C583 C582 1.394 . S
C583 C584 1.516 . S
C584 C583 1.516 . S
C584 C585 1.502 . S
C584 C586 1.561 . S
C584 C587 1.526 . S
C585 H569 0.959 . S
C585 H570 0.959 . S
C585 H571 0.961 . S
C585 C584 1.502 . S
C586 H572 0.960 . S
C586 H573 0.961 . S
C586 H574 0.959 . S
C586 C584 1.561 . S
C587 C584 1.526 . S
C587 C588 1.396 . S
C587 C592 1.390 . S
C588 C582 1.465 . S
C588 C587 1.396 . S
C588 C589 1.399 . S
C589 H575 0.929 . S
C589 C588 1.399 . S
C589 C590 1.385 . S
C590 H576 0.931 . S
C590 C589 1.385 . S
C590 C591 1.389 . S
C591 C590 1.389 . S
C591 C592 1.387 . S
C592 H577 0.930 . S
C592 C587 1.390 . S
C592 C591 1.387 . S
H593 C605 0.930 . S
H594 C607 0.930 . S
H595 C608 0.930 . S
H596 C612 0.959 1_655 S
H597 C612 0.959 1_655 S
H598 C612 0.961 . S
H599 C613 0.960 . S
H600 C613 0.961 . S
H601 C613 0.959 . S
H602 C616 0.929 . S
H603 C617 0.931 . S
H604 C619 0.930 . S
C605 H593 0.930 . S
C605 C606 1.399 . S
C605 C610 1.399 . S
C606 C605 1.399 . S
C606 C607 1.376 . S
C607 H594 0.930 . S
C607 C606 1.376 . S
C607 C608 1.388 . S
C608 H595 0.930 . S
C608 C607 1.388 . S
C608 C609 1.390 . S
C609 C608 1.390 . S
C609 C610 1.394 . S
C609 C615 1.465 . S
C610 C605 1.399 . S
C610 C609 1.394 . S
C610 C611 1.516 . S
C611 C610 1.516 . S
C611 C612 1.502 . S
C611 C613 1.561 . S
C611 C614 1.526 . S
C612 H596 0.959 1_455 S
C612 H597 0.959 1_455 S
C612 H598 0.961 . S
C612 C611 1.502 . S
C613 H599 0.960 . S
C613 H600 0.961 . S
C613 H601 0.959 . S
C613 C611 1.561 . S
C614 C611 1.526 . S
C614 C615 1.396 . S
C614 C619 1.390 . S
C615 C609 1.465 . S
C615 C614 1.396 . S
C615 C616 1.399 . S
C616 H602 0.929 . S
C616 C615 1.399 . S
C616 C617 1.385 . S
C617 H603 0.931 . S
C617 C616 1.385 . S
C617 C618 1.389 . S
C618 C617 1.389 . S
C618 C619 1.387 . S
C619 H604 0.930 . S
C619 C614 1.390 . S
C619 C618 1.387 . S
H620 C632 0.930 . S
H621 C634 0.930 . S
H622 C635 0.930 . S
H623 C639 0.959 . S
H624 C639 0.959 . S
H625 C639 0.961 . S
H626 C640 0.960 . S
H627 C640 0.961 . S
H628 C640 0.959 1_565 S
H629 C643 0.929 1_554 S
H630 C644 0.931 . S
H631 C646 0.930 . S
C632 H620 0.930 . S
C632 C633 1.399 . S
C632 C637 1.399 . S
C633 C632 1.399 . S
C633 C634 1.376 . S
C634 H621 0.930 . S
C634 C633 1.376 . S
C634 C635 1.388 . S
C635 H622 0.930 . S
C635 C634 1.388 . S
C635 C636 1.390 . S
C636 C635 1.390 . S
C636 C637 1.394 . S
C636 C642 1.465 . S
C637 C632 1.399 . S
C637 C636 1.394 . S
C637 C638 1.516 1_565 S
C638 C637 1.516 1_545 S
C638 C639 1.502 . S
C638 C640 1.561 . S
C638 C641 1.526 1_545 S
C639 H623 0.959 . S
C639 H624 0.959 . S
C639 H625 0.961 . S
C639 C638 1.502 . S
C640 H626 0.960 . S
C640 H627 0.961 . S
C640 H628 0.959 1_545 S
C640 C638 1.561 . S
C641 C638 1.526 1_565 S
C641 C642 1.396 . S
C641 C646 1.390 1_565 S
C642 C636 1.465 . S
C642 C641 1.396 . S
C642 C643 1.399 . S
C643 H629 0.929 1_556 S
C643 C642 1.399 . S
C643 C644 1.385 1_556 S
C644 H630 0.931 . S
C644 C643 1.385 1_554 S
C644 C645 1.389 1_554 S
C645 C644 1.389 1_556 S
C645 C646 1.387 1_565 S
C646 H631 0.930 . S
C646 C641 1.390 1_545 S
C646 C645 1.387 1_545 S
H647 C659 0.930 . S
H648 C661 0.930 . S
H649 C662 0.930 . S
H650 C666 0.959 . S
H651 C666 0.959 1_565 S
H652 C666 0.961 . S
H653 C667 0.960 . S
H654 C667 0.961 . S
H655 C667 0.959 . S
H656 C670 0.929 . S
H657 C671 0.931 . S
H658 C673 0.930 . S
C659 H647 0.930 . S
C659 C660 1.399 . S
C659 C664 1.399 . S
C660 C659 1.399 . S
C660 C661 1.376 . S
C661 H648 0.930 . S
C661 C660 1.376 . S
C661 C662 1.388 . S
C662 H649 0.930 . S
C662 C661 1.388 . S
C662 C663 1.390 . S
C663 C662 1.390 . S
C663 C664 1.394 . S
C663 C669 1.465 . S
C664 C659 1.399 . S
C664 C663 1.394 . S
C664 C665 1.516 . S
C665 C664 1.516 . S
C665 C666 1.502 . S
C665 C667 1.561 . S
C665 C668 1.526 . S
C666 H650 0.959 . S
C666 H651 0.959 1_545 S
C666 H652 0.961 . S
C666 C665 1.502 . S
C667 H653 0.960 . S
C667 H654 0.961 . S
C667 H655 0.959 . S
C667 C665 1.561 . S
C668 C665 1.526 . S
C668 C669 1.396 . S
C668 C673 1.390 . S
C669 C663 1.465 . S
C669 C668 1.396 . S
C669 C670 1.399 . S
C670 H656 0.929 . S
C670 C669 1.399 . S
C670 C671 1.385 . S
C671 H657 0.931 . S
C671 C670 1.385 . S
C671 C672 1.389 . S
C672 C671 1.389 . S
C672 C673 1.387 . S
C673 H658 0.930 . S
C673 C668 1.390 . S
C673 C672 1.387 . S
H674 C686 0.930 . S
H675 C688 0.930 . S
H676 C689 0.930 . S
H677 C693 0.959 . S
H678 C693 0.959 . S
H679 C693 0.961 . S
H680 C694 0.960 . S
H681 C694 0.961 . S
H682 C694 0.959 . S
H683 C697 0.929 . S
H684 C698 0.931 . S
H685 C700 0.930 . S
C686 H674 0.930 . S
C686 C687 1.399 . S
C686 C691 1.399 . S
C687 C686 1.399 . S
C687 C688 1.376 . S
C688 H675 0.930 . S
C688 C687 1.376 . S
C688 C689 1.388 . S
C689 H676 0.930 . S
C689 C688 1.388 . S
C689 C690 1.390 . S
C690 C689 1.390 . S
C690 C691 1.394 . S
C690 C696 1.465 . S
C691 C686 1.399 . S
C691 C690 1.394 . S
C691 C692 1.516 . S
C692 C691 1.516 . S
C692 C693 1.502 . S
C692 C694 1.561 . S
C692 C695 1.526 . S
C693 H677 0.959 . S
C693 H678 0.959 . S
C693 H679 0.961 . S
C693 C692 1.502 . S
C694 H680 0.960 . S
C694 H681 0.961 . S
C694 H682 0.959 . S
C694 C692 1.561 . S
C695 C692 1.526 . S
C695 C696 1.396 . S
C695 C700 1.390 . S
C696 C690 1.465 . S
C696 C695 1.396 . S
C696 C697 1.399 . S
C697 H683 0.929 . S
C697 C696 1.399 . S
C697 C698 1.385 . S
C698 H684 0.931 . S
C698 C697 1.385 . S
C698 C699 1.389 . S
C699 C698 1.389 . S
C699 C700 1.387 . S
C700 H685 0.930 . S
C700 C695 1.390 . S
C700 C699 1.387 . S
H701 C713 0.930 . S
H702 C715 0.930 . S
H703 C716 0.930 . S
H704 C720 0.959 . S
H705 C720 0.959 . S
H706 C720 0.961 . S
H707 C721 0.960 . S
H708 C721 0.961 . S
H709 C721 0.959 . S
H710 C724 0.929 . S
H711 C725 0.931 . S
H712 C727 0.930 . S
C713 H701 0.930 . S
C713 C714 1.399 . S
C713 C718 1.399 . S
C714 C713 1.399 . S
C714 C715 1.376 . S
C715 H702 0.930 . S
C715 C714 1.376 . S
C715 C716 1.388 . S
C716 H703 0.930 . S
C716 C715 1.388 . S
C716 C717 1.390 . S
C717 C716 1.390 . S
C717 C718 1.394 . S
C717 C723 1.465 . S
C718 C713 1.399 . S
C718 C717 1.394 . S
C718 C719 1.516 . S
C719 C718 1.516 . S
C719 C720 1.502 . S
C719 C721 1.561 . S
C719 C722 1.526 . S
C720 H704 0.959 . S
C720 H705 0.959 . S
C720 H706 0.961 . S
C720 C719 1.502 . S
C721 H707 0.960 . S
C721 H708 0.961 . S
C721 H709 0.959 . S
C721 C719 1.561 . S
C722 C719 1.526 . S
C722 C723 1.396 . S
C722 C727 1.390 . S
C723 C717 1.465 . S
C723 C722 1.396 . S
C723 C724 1.399 . S
C724 H710 0.929 . S
C724 C723 1.399 . S
C724 C725 1.385 . S
C725 H711 0.931 . S
C725 C724 1.385 . S
C725 C726 1.389 . S
C726 C725 1.389 . S
C726 C727 1.387 . S
C727 H712 0.930 . S
C727 C722 1.390 . S
C727 C726 1.387 . S
H728 C740 0.930 . S
H729 C742 0.930 . S
H730 C743 0.930 . S
H731 C747 0.959 . S
H732 C747 0.959 1_455 S
H733 C747 0.961 . S
H734 C748 0.960 . S
H735 C748 0.961 . S
H736 C748 0.959 . S
H737 C751 0.929 . S
H738 C752 0.931 1_554 S
H739 C754 0.928 1_455 S
C740 H728 0.930 . S
C740 C741 1.399 . S
C740 C745 1.399 . S
C741 C740 1.399 . S
C741 C742 1.376 . S
C742 H729 0.930 . S
C742 C741 1.376 . S
C742 C743 1.388 . S
C743 H730 0.930 . S
C743 C742 1.388 . S
C743 C744 1.390 . S
C744 C743 1.390 . S
C744 C745 1.394 . S
C744 C750 1.465 . S
C745 C740 1.399 . S
C745 C744 1.394 . S
C745 C746 1.516 . S
C746 C745 1.516 . S
C746 C747 1.502 . S
C746 C748 1.561 1_655 S
C746 C749 1.526 . S
C747 H731 0.959 . S
C747 H732 0.959 1_655 S
C747 H733 0.961 . S
C747 C746 1.502 . S
C748 H734 0.960 . S
C748 H735 0.961 . S
C748 H736 0.959 . S
C748 C746 1.561 1_455 S
C749 C746 1.526 . S
C749 C750 1.396 . S
C749 C754 1.390 . S
C750 C744 1.465 . S
C750 C749 1.396 . S
C750 C751 1.399 . S
C751 H737 0.929 . S
C751 C750 1.399 . S
C751 C752 1.385 . S
C752 H738 0.931 1_556 S
C752 C751 1.385 . S
C752 C753 1.389 . S
C753 C752 1.389 . S
C753 C754 1.387 . S
C754 H739 0.928 1_655 S
C754 C749 1.390 . S
C754 C753 1.387 . S
H755 C767 0.930 . S
H756 C769 0.930 . S
H757 C770 0.930 . S
H758 C774 0.959 . S
H759 C774 0.959 . S
H760 C774 0.961 . S
H761 C775 0.960 . S
H762 C775 0.961 . S
H763 C775 0.959 . S
H764 C778 0.929 . S
H765 C779 0.931 . S
H766 C781 0.930 . S
C767 H755 0.930 . S
C767 C768 1.399 . S
C767 C772 1.399 . S
C768 C767 1.399 . S
C768 C769 1.376 . S
C769 H756 0.930 . S
C769 C768 1.376 . S
C769 C770 1.388 . S
C770 H757 0.930 . S
C770 C769 1.388 . S
C770 C771 1.390 . S
C771 C770 1.390 . S
C771 C772 1.394 . S
C771 C777 1.465 . S
C772 C767 1.399 . S
C772 C771 1.394 . S
C772 C773 1.516 . S
C773 C772 1.516 . S
C773 C774 1.502 . S
C773 C775 1.561 . S
C773 C776 1.526 . S
C774 H758 0.959 . S
C774 H759 0.959 . S
C774 H760 0.961 . S
C774 C773 1.502 . S
C775 H761 0.960 . S
C775 H762 0.961 . S
C775 H763 0.959 . S
C775 C773 1.561 . S
C776 C773 1.526 . S
C776 C777 1.396 . S
C776 C781 1.390 . S
C777 C771 1.465 . S
C777 C776 1.396 . S
C777 C778 1.399 . S
C778 H764 0.929 . S
C778 C777 1.399 . S
C778 C779 1.385 . S
C779 H765 0.931 . S
C779 C778 1.385 . S
C779 C780 1.389 . S
C780 C779 1.389 . S
C780 C781 1.387 . S
C781 H766 0.930 . S
C781 C776 1.390 . S
C781 C780 1.387 . S
H782 C794 0.930 . S
H783 C796 0.930 . S
H784 C797 0.930 . S
H785 C801 0.959 . S
H786 C801 0.959 . S
H787 C801 0.961 . S
H788 C802 0.960 . S
H789 C802 0.961 . S
H790 C802 0.959 . S
H791 C805 0.929 . S
H792 C806 0.931 . S
H793 C808 0.930 . S
C794 H782 0.930 . S
C794 C795 1.399 . S
C794 C799 1.399 . S
C795 C794 1.399 . S
C795 C796 1.376 . S
C796 H783 0.930 . S
C796 C795 1.376 . S
C796 C797 1.388 . S
C797 H784 0.930 . S
C797 C796 1.388 . S
C797 C798 1.390 . S
C798 C797 1.390 . S
C798 C799 1.394 . S
C798 C804 1.465 . S
C799 C794 1.399 . S
C799 C798 1.394 . S
C799 C800 1.516 . S
C800 C799 1.516 . S
C800 C801 1.502 . S
C800 C802 1.561 . S
C800 C803 1.526 . S
C801 H785 0.959 . S
C801 H786 0.959 . S
C801 H787 0.961 . S
C801 C800 1.502 . S
C802 H788 0.960 . S
C802 H789 0.961 . S
C802 H790 0.959 . S
C802 C800 1.561 . S
C803 C800 1.526 . S
C803 C804 1.396 . S
C803 C808 1.390 . S
C804 C798 1.465 . S
C804 C803 1.396 . S
C804 C805 1.399 . S
C805 H791 0.929 . S
C805 C804 1.399 . S
C805 C806 1.385 . S
C806 H792 0.931 . S
C806 C805 1.385 . S
C806 C807 1.389 . S
C807 C806 1.389 . S
C807 C808 1.387 . S
C808 H793 0.930 . S
C808 C803 1.390 . S
C808 C807 1.387 . S
H809 C821 0.930 . S
H810 C823 0.930 . S
H811 C824 0.930 . S
H812 C828 0.959 . S
H813 C828 0.959 . S
H814 C828 0.961 . S
H815 C829 0.960 . S
H816 C829 0.961 . S
H817 C829 0.959 . S
H818 C832 0.929 . S
H819 C833 0.931 . S
H820 C835 0.930 . S
C821 H809 0.930 . S
C821 C822 1.399 . S
C821 C826 1.399 . S
C822 C821 1.399 . S
C822 C823 1.376 . S
C823 H810 0.930 . S
C823 C822 1.376 . S
C823 C824 1.388 . S
C824 H811 0.930 . S
C824 C823 1.388 . S
C824 C825 1.390 . S
C825 C824 1.390 . S
C825 C826 1.394 . S
C825 C831 1.465 . S
C826 C821 1.399 . S
C826 C825 1.394 . S
C826 C827 1.516 . S
C827 C826 1.516 . S
C827 C828 1.502 . S
C827 C829 1.561 . S
C827 C830 1.526 . S
C828 H812 0.959 . S
C828 H813 0.959 . S
C828 H814 0.961 . S
C828 C827 1.502 . S
C829 H815 0.960 . S
C829 H816 0.961 . S
C829 H817 0.959 . S
C829 C827 1.561 . S
C830 C827 1.526 . S
C830 C831 1.396 . S
C830 C835 1.390 . S
C831 C825 1.465 . S
C831 C830 1.396 . S
C831 C832 1.399 . S
C832 H818 0.929 . S
C832 C831 1.399 . S
C832 C833 1.385 . S
C833 H819 0.931 . S
C833 C832 1.385 . S
C833 C834 1.389 . S
C834 C833 1.389 . S
C834 C835 1.387 . S
C835 H820 0.930 . S
C835 C830 1.390 . S
C835 C834 1.387 . S
C201 N1 1.523 . S
C213 C120 1.478 . S
C228 N18 1.751 . S
C240 C142 1.680 . S
C267 C161 1.016 . S
C255 N28 1.043 . S
C282 N40 1.847 . S
C294 C182 1.499 . S
C321 C139 1.992 . S
C309 N5 2.061 . S
C348 C117 1.655 . S
C336 N14 1.631 . S
C375 C184 1.313 . S
C363 N31 1.358 . S
C402 C163 1.147 . S
C390 N41 1.142 . S
C417 N2 1.555 . S
C429 C181 1.497 . S
C456 C140 1.438 1_556 S
C444 N27 1.594 . S
C471 N44 1.731 . S
C483 C122 1.502 1_655 S
C498 N15 1.351 . S
C510 C160 1.261 . S
C537 C118 1.839 . S
C525 N57 1.890 . S
C552 N70 1.149 . S
C564 C138 1.145 . S
C579 N79 1.357 . S
C591 C164 1.200 . S
C606 N93 1.455 . S
C618 C185 1.259 . S
C633 N54 1.571 . S
C645 C141 1.509 1_556 S
C672 C121 2.097 . S
C660 N66 2.090 . S
C699 C180 0.864 . S
C687 N80 0.810 . S
C726 C159 1.446 . S
C714 N96 1.506 . S
C741 N53 1.480 . S
C753 C183 1.506 . S
C780 C143 1.100 . S
C768 N83 1.422 . S
C807 C119 1.358 . S
C795 N92 1.542 . S
C822 N67 1.369 . S
C834 C162 1.318 . S
