# Generated by pormake.
# Topology zzz, (3,6)-cn, num edge types: 1
# Building blocks:
#     Node 0, Type 0, BuildingBlock: QEWDON_clean_linker_0, # of connection points: 3
#     Node 1, Type 0, BuildingBlock: QEWDON_clean_linker_0, # of connection points: 3
#     Node 2, Type 0, BuildingBlock: QEWDON_clean_linker_0, # of connection points: 3
#     Node 3, Type 0, BuildingBlock: QEWDON_clean_linker_0, # of connection points: 3
#     Node 4, Type 0, BuildingBlock: QEWDON_clean_linker_0, # of connection points: 3
#     Node 5, Type 0, BuildingBlock: QEWDON_clean_linker_0, # of connection points: 3
#     Node 6, Type 0, BuildingBlock: QEWDON_clean_linker_0, # of connection points: 3
#     Node 7, Type 0, BuildingBlock: QEWDON_clean_linker_0, # of connection points: 3
#     Node 8, Type 1, BuildingBlock: KUMBUR_clean_sbu_0, # of connection points: 6
#     Node 9, Type 1, BuildingBlock: KUMBUR_clean_sbu_0, # of connection points: 6
#     Node 10, Type 1, BuildingBlock: KUMBUR_clean_sbu_0, # of connection points: 6
#     Node 11, Type 1, BuildingBlock: KUMBUR_clean_sbu_0, # of connection points: 6
#     Edge 12, Type (0, 1), BuildingBlock: KIFKEQ_clean_linker_1, # of connection points: 2
#     Edge 13, Type (0, 1), BuildingBlock: KIFKEQ_clean_linker_1, # of connection points: 2
#     Edge 14, Type (0, 1), BuildingBlock: KIFKEQ_clean_linker_1, # of connection points: 2
#     Edge 15, Type (0, 1), BuildingBlock: KIFKEQ_clean_linker_1, # of connection points: 2
#     Edge 16, Type (0, 1), BuildingBlock: KIFKEQ_clean_linker_1, # of connection points: 2
#     Edge 17, Type (0, 1), BuildingBlock: KIFKEQ_clean_linker_1, # of connection points: 2
#     Edge 18, Type (0, 1), BuildingBlock: KIFKEQ_clean_linker_1, # of connection points: 2
#     Edge 19, Type (0, 1), BuildingBlock: KIFKEQ_clean_linker_1, # of connection points: 2
#     Edge 20, Type (0, 1), BuildingBlock: KIFKEQ_clean_linker_1, # of connection points: 2
#     Edge 21, Type (0, 1), BuildingBlock: KIFKEQ_clean_linker_1, # of connection points: 2
#     Edge 22, Type (0, 1), BuildingBlock: KIFKEQ_clean_linker_1, # of connection points: 2
#     Edge 23, Type (0, 1), BuildingBlock: KIFKEQ_clean_linker_1, # of connection points: 2
#     Edge 24, Type (0, 1), BuildingBlock: KIFKEQ_clean_linker_1, # of connection points: 2
#     Edge 25, Type (0, 1), BuildingBlock: KIFKEQ_clean_linker_1, # of connection points: 2
#     Edge 26, Type (0, 1), BuildingBlock: KIFKEQ_clean_linker_1, # of connection points: 2
#     Edge 27, Type (0, 1), BuildingBlock: KIFKEQ_clean_linker_1, # of connection points: 2
#     Edge 28, Type (0, 1), BuildingBlock: KIFKEQ_clean_linker_1, # of connection points: 2
#     Edge 29, Type (0, 1), BuildingBlock: KIFKEQ_clean_linker_1, # of connection points: 2
#     Edge 30, Type (0, 1), BuildingBlock: KIFKEQ_clean_linker_1, # of connection points: 2
#     Edge 31, Type (0, 1), BuildingBlock: KIFKEQ_clean_linker_1, # of connection points: 2
#     Edge 32, Type (0, 1), BuildingBlock: KIFKEQ_clean_linker_1, # of connection points: 2
#     Edge 33, Type (0, 1), BuildingBlock: KIFKEQ_clean_linker_1, # of connection points: 2
#     Edge 34, Type (0, 1), BuildingBlock: KIFKEQ_clean_linker_1, # of connection points: 2
#     Edge 35, Type (0, 1), BuildingBlock: KIFKEQ_clean_linker_1, # of connection points: 2
# Relax obj value: 0.112
# Max RMSD: 0.150
# Mean RMSD: 0.075
data_MOF--net-zzz--node1-KUMBUR_clean_sbu_0--node2-QEWDON_clean_linker_0--edge1-KIFKEQ_clean_linker_1
_symmetry_space_group_name_H-M    P1
_symmetry_Int_Tables_number       1
_symmetry_cell_setting            triclinic
loop_
_symmetry_equiv_pos_as_xyz
'x, y, z'
_cell_length_a     54.674886
_cell_length_b     54.616253
_cell_length_c     14.46851
_cell_angle_alpha  91.202652
_cell_angle_beta   89.770041
_cell_angle_gamma 90.012556
loop_
_atom_site_label
_atom_site_type_symbol
_atom_site_fract_x
_atom_site_fract_y
_atom_site_fract_z
_atom_type_partial_charge
H0 H 0.76519 0.57448 0.10206 0.0
C1 C 0.77847 0.56928 0.15324 0.0
C2 C 0.80271 0.57645 0.13993 0.0
C3 C 0.77155 0.55577 0.23118 0.0
H4 H 0.83931 0.57607 0.19212 0.0
C5 C 0.82053 0.5706 0.2048 0.0
C6 C 0.81503 0.55663 0.28219 0.0
C7 C 0.79029 0.54939 0.29586 0.0
C8 C 0.74485 0.54886 0.24395 0.0
H9 H 0.78602 0.53819 0.35454 0.0
C10 C 0.72813 0.54661 0.16813 0.0
C11 C 0.70298 0.54149 0.18276 0.0
C12 C 0.73544 0.54561 0.33363 0.0
H13 H 0.74696 0.54781 0.39385 0.0
C14 C 0.71076 0.54018 0.34784 0.0
H15 H 0.73443 0.54843 0.09768 0.0
C16 C 0.69471 0.53813 0.27341 0.0
H17 H 0.67561 0.53415 0.28679 0.0
H18 H 0.70394 0.53784 0.41747 0.0
H19 H 0.98309 0.77582 0.10258 0.0
C20 C 0.98839 0.78965 0.15316 0.0
C21 C 0.98025 0.8136 0.14015 0.0
C22 C 1.00313 0.78367 0.229 0.0
H23 H 0.98017 0.85061 0.1926 0.0
C24 C 0.98578 0.83197 0.20584 0.0
C25 C 0.99992 0.82732 0.28419 0.0
C26 C 1.00909 0.80304 0.29431 0.0
C27 C 1.01141 0.75718 0.23931 0.0
H28 H 1.02074 0.79947 0.3527 0.0
C29 C 1.01278 0.73991 0.16285 0.0
C30 C 1.01941 0.71502 0.17585 0.0
C31 C 1.01693 0.74847 0.32772 0.0
H32 H 1.01547 0.76022 0.38856 0.0
C33 C 0.02378 0.72415 0.34028 0.0
H34 H 1.00926 0.7456 0.09307 0.0
C35 C 0.02506 0.70765 0.26555 0.0
H36 H 0.03021 0.68886 0.27814 0.0
H37 H 0.02789 0.71793 0.40907 0.0
H38 H 0.78335 0.98583 0.12961 0.0
C39 C 0.76967 0.99103 0.18038 0.0
C40 C 0.74539 0.98483 0.16105 0.0
C41 C 0.7761 1.00368 0.26267 0.0
H42 H 0.70821 0.98587 0.20891 0.0
C43 C 0.72705 0.99006 0.22633 0.0
C44 C 0.73213 1.00227 0.31021 0.0
C45 C 0.75675 1.00964 0.32707 0.0
C46 C 0.80293 1.00973 0.28069 0.0
H47 H 0.76054 1.01988 0.39009 0.0
C48 C 0.82107 1.01047 0.20848 0.0
C49 C 0.84637 1.01393 0.22821 0.0
C50 C 0.81103 1.01347 0.37215 0.0
H51 H 0.7986 1.01243 0.43018 0.0
C52 C 0.8356 1.01798 0.39154 0.0
H53 H 0.81587 1.00805 0.137 0.0
C54 C 0.85301 1.01818 0.32101 0.0
H55 H 0.87185 1.02178 0.33976 0.0
H56 H 0.84129 1.02096 0.46248 0.0
H57 H 0.57244 0.79203 0.13315 0.0
C58 C 0.56772 0.77957 0.18755 0.0
C59 C 0.56843 0.75449 0.16711 0.0
C60 C 0.5611 0.78835 0.27658 0.0
H61 H 0.56371 0.71812 0.21819 0.0
C62 C 0.56322 0.73755 0.2356 0.0
C63 C 0.55701 0.74516 0.32544 0.0
C64 C 0.55581 0.77067 0.34592 0.0
C65 C 0.56025 0.81575 0.29577 0.0
H66 H 0.5502 0.77649 0.4147 0.0
C67 C 0.55631 0.83305 0.22435 0.0
C68 C 0.55657 0.85866 0.24322 0.0
C69 C 0.56432 0.825 0.38596 0.0
H70 H 0.56818 0.81292 0.44233 0.0
C71 C 0.56422 0.85016 0.405 0.0
H72 H 0.55257 0.82688 0.15434 0.0
C73 C 0.56041 0.8668 0.33471 0.0
H74 H 0.56097 0.8862 0.35173 0.0
H75 H 0.56748 0.85685 0.47483 0.0
H76 H 0.29054 0.4904 0.20141 0.0
C77 C 0.27727 0.49567 0.1503 0.0
C78 C 0.25296 0.48879 0.16407 0.0
C79 C 0.28428 0.50898 0.07194 0.0
H80 H 0.21632 0.48951 0.11234 0.0
C81 C 0.23516 0.49475 0.0993 0.0
C82 C 0.24076 0.50851 0.02149 0.0
C83 C 0.26555 0.51545 1.00733 0.0
C84 C 0.31103 0.51557 0.05862 0.0
H85 H 0.2699 0.52649 0.9483 0.0
C86 C 0.32782 0.51782 0.13419 0.0
C87 C 0.35301 0.5226 0.11911 0.0
C88 C 0.3204 0.51849 0.96871 0.0
H89 H 0.30882 0.51627 0.90869 0.0
C90 C 0.34513 0.5236 0.95404 0.0
H91 H 0.32154 0.51623 0.20478 0.0
C92 C 0.36126 0.52565 0.02825 0.0
H93 H 0.3804 0.52937 0.01455 0.0
H94 H 0.35193 0.52569 0.88426 0.0
H95 H 0.06459 0.28637 0.21684 0.0
C96 C 0.06145 0.27361 0.16001 0.0
C97 C 0.07287 0.25059 0.16271 0.0
C98 C 0.04466 0.27937 0.09008 0.0
H99 H 0.07614 0.21495 0.09639 0.0
C100 C 0.06831 0.23313 0.09212 0.0
C101 C 0.05159 0.23757 0.02168 0.0
C102 C 0.03988 0.26081 0.02041 0.0
C103 C 0.03061 0.30355 0.09666 0.0
H104 H 0.02704 0.26403 0.96543 0.0
C105 C 0.03897 0.32466 0.14906 0.0
C106 C 0.0246 0.34641 0.15696 0.0
C107 C 1.00754 0.30523 0.05414 0.0
H108 H 0.99954 0.28986 0.01709 0.0
C109 C 0.99365 0.32659 0.06084 0.0
H110 H 0.05664 0.3246 0.18229 0.0
C111 C 1.00202 0.34686 0.11127 0.0
H112 H 0.99046 0.36297 0.11586 0.0
H113 H 0.97598 0.32731 0.02753 0.0
H114 H 0.27473 0.07907 0.18652 0.0
C115 C 0.28836 0.07384 0.13557 0.0
C116 C 0.31265 0.08039 0.15368 0.0
C117 C 0.28186 0.06086 0.054 0.0
H118 H 0.34972 0.0795 0.10436 0.0
C119 C 0.33087 0.07505 0.08803 0.0
C120 C 0.3257 0.06244 1.00514 0.0
C121 C 0.30115 0.05478 0.98945 0.0
C122 C 0.25505 0.05461 0.0365 0.0
H123 H 0.29735 0.04423 0.92714 0.0
C124 C 0.23692 0.05403 0.10879 0.0
C125 C 0.21164 0.0503 0.08914 0.0
C126 C 0.24696 0.05052 0.94519 0.0
H127 H 0.25935 0.05148 0.88704 0.0
C128 C 0.22243 0.04577 0.92601 0.0
H129 H 0.2421 0.05678 0.18016 0.0
C130 C 0.20504 0.04567 0.99655 0.0
H131 H 0.18622 0.04186 0.97798 0.0
H132 H 0.21676 0.0425 0.8552 0.0
H133 H 0.4829 0.27168 0.16672 0.0
C134 C 0.4876 0.28412 0.11236 0.0
C135 C 0.48394 0.30914 0.12984 0.0
C136 C 0.49709 0.27553 0.02663 0.0
H137 H 0.48633 0.34551 0.07644 0.0
C138 C 0.48895 0.32613 0.06134 0.0
C139 C 0.49838 0.31873 0.97549 0.0
C140 C 0.50274 0.29345 0.95847 0.0
C141 C 0.50082 0.24818 1.00906 0.0
H142 H 0.51097 0.28816 0.89305 0.0
C143 C 0.50232 0.23086 0.08202 0.0
C144 C 0.50482 0.20525 0.0635 0.0
C145 C 0.50213 0.2389 0.91758 0.0
H146 H 0.50012 0.25065 0.85896 0.0
C147 C 0.50565 0.21403 0.89899 0.0
H148 H 0.50138 0.23702 0.15324 0.0
C149 C 0.50714 0.19746 0.97054 0.0
H150 H 0.51026 0.1784 0.95224 0.0
H151 H 0.50703 0.20746 0.82803 0.0
Tb152 Tb 0.04941 0.02434 0.74449 0.0
C153 C 0.96135 1.00973 0.49033 0.0
C154 C 0.97513 0.98018 0.37498 0.0
C155 C 0.93193 0.98287 0.41325 0.0
C156 C 0.98017 0.99906 0.44056 0.0
C157 C 0.93691 1.00222 0.47567 0.0
C158 C 0.95103 0.9718 0.36318 0.0
C159 C 0.92386 0.03489 0.57919 0.0
N160 N 0.96682 0.02849 0.54927 0.0
C161 C 0.94832 0.0416 0.59167 0.0
C162 C 0.91813 1.01489 0.52189 0.0
Tb163 Tb 1.00757 0.0384 0.56633 0.0
N164 N 1.00318 1.008 0.45285 0.0
C165 C 0.02162 0.99963 0.39568 0.0
C166 C 0.99428 0.97076 0.32111 0.0
C167 C 1.01754 0.98078 0.33066 0.0
H168 H 0.9525 0.05705 0.63675 0.0
H169 H 0.03247 0.97391 0.28814 0.0
H170 H 0.9469 0.95724 0.31364 0.0
H171 H 0.90946 0.04509 0.61417 0.0
H172 H 0.03999 1.00631 0.40067 0.0
H173 H 0.02491 0.08854 0.02449 0.0
H174 H 0.9912 0.95619 0.27046 0.0
H175 H 0.10418 1.00594 0.66979 0.0
H176 H 1.0168 0.05758 0.90728 0.0
H177 H 0.14738 1.0169 0.69468 0.0
H178 H 0.91333 0.97672 0.40157 0.0
H179 H 0.06678 0.1041 0.04903 0.0
H180 H 0.11121 0.10187 1.00898 0.0
H181 H 0.89916 1.00974 0.51212 0.0
H182 H 0.14451 0.08255 0.9192 0.0
N183 N 0.05399 0.05423 0.85981 0.0
C184 C 0.03546 0.06316 0.91543 0.0
C185 C 0.06346 0.09009 0.99642 0.0
C186 C 0.08257 0.08038 0.94304 0.0
C187 C 0.03986 0.08128 0.983 0.0
C188 C 0.07724 0.06223 0.87486 0.0
H189 H 0.15819 0.05071 0.80323 0.0
N190 N 0.09025 0.03368 0.76191 0.0
C191 C 0.13313 0.02691 0.73128 0.0
C192 C 0.09597 0.0516 0.82417 0.0
C193 C 0.10857 1.02079 0.71739 0.0
C194 C 0.13914 0.04604 0.79231 0.0
C195 C 0.12053 0.05845 0.84051 0.0
O196 O 0.07146 0.99867 0.81168 0.0
O197 O 0.02592 1.00922 0.6362 0.0
O198 O 0.9862 1.02129 0.67824 0.0
O199 O 1.01204 0.02652 0.80443 0.0
O200 O 0.06019 0.99535 0.64402 0.0
O201 O 0.03294 0.99941 0.83519 0.0
O202 O 0.98562 0.06429 0.50006 0.0
O203 O 0.03101 0.05372 0.67492 0.0
O204 O 0.07069 0.04213 0.63425 0.0
O205 O 0.04516 0.03647 0.50759 0.0
O206 O 0.99666 0.06742 0.66548 0.0
O207 O 0.02388 0.06239 0.47164 0.0
C208 C 0.03971 0.9927 0.60213 0.0
C209 C 0.05115 0.96059 0.80798 0.0
C210 C 0.02651 0.92417 0.77242 0.0
C211 C 0.02856 0.94832 0.80772 0.0
C212 C 0.04737 0.91288 0.73313 0.0
C213 C 0.07178 0.94865 0.77001 0.0
C214 C 0.06974 0.92511 0.73173 0.0
C215 C 0.99005 0.02202 0.7688 0.0
C216 C 0.05276 0.98644 0.84045 0.0
C217 C 0.1258 0.07694 0.90618 0.0
C218 C 0.10685 0.08792 0.95727 0.0
C219 C 1.017 0.07023 0.70824 0.0
C220 C 1.00693 0.10179 0.49819 0.0
C221 C 0.0298 0.1135 0.49418 0.0
C222 C 0.03278 0.13763 0.5285 0.0
C223 C 1.01262 0.14956 0.57032 0.0
C224 C 0.98699 0.11438 0.53846 0.0
C225 C 0.98997 0.13796 0.57523 0.0
C226 C 0.06704 0.04131 0.54366 0.0
C227 C 1.00437 0.07586 0.46788 0.0
H228 H 1.01254 0.95764 0.8353 0.0
H229 H 0.04679 0.8942 0.7068 0.0
H230 H 0.08942 0.95764 0.76821 0.0
H231 H 0.08568 0.91615 0.70211 0.0
H232 H 0.04528 0.10381 0.46406 0.0
H233 H 1.01396 0.16828 0.5959 0.0
H234 H 0.96916 0.10585 0.54335 0.0
H235 H 0.97456 0.14742 0.60674 0.0
Tb236 Tb 0.53534 0.05604 0.75018 0.0
C237 C 0.55711 0.96817 0.49288 0.0
C238 C 0.58418 0.98527 0.37869 0.0
C239 C 0.58717 0.94216 0.41427 0.0
C240 C 0.56504 0.98806 0.44419 0.0
C241 C 0.56765 0.94483 0.4769 0.0
C242 C 0.59549 0.96238 0.36547 0.0
C243 C 0.53758 0.92801 0.58006 0.0
N244 N 0.53826 0.97142 0.55275 0.0
C245 C 0.52787 0.95148 0.59406 0.0
C246 C 0.55784 0.92473 0.52243 0.0
Tb247 Tb 0.52336 1.0107 0.57311 0.0
N248 N 0.55355 1.00991 0.45881 0.0
C249 C 0.55981 0.02933 0.40441 0.0
C250 C 0.59114 1.0054 0.32702 0.0
C251 C 0.57868 0.0274 0.33918 0.0
H252 H 0.51235 0.95387 0.64001 0.0
H253 H 0.58375 0.04309 0.29875 0.0
H254 H 0.61031 0.96002 0.31615 0.0
H255 H 0.52957 0.91253 0.61451 0.0
H256 H 0.55143 0.04702 0.41142 0.0
H257 H 0.47214 0.02806 0.02235 0.0
H258 H 0.6058 1.00403 0.27654 0.0
H259 H 0.55006 0.11271 0.68914 0.0
H260 H 0.50617 0.02285 0.91741 0.0
H261 H 0.53236 0.1542 0.7005 0.0
H262 H 0.59562 0.92445 0.40169 0.0
H263 H 0.44919 0.06693 0.02971 0.0
H264 H 0.445 0.11018 0.97908 0.0
H265 H 0.56545 0.90656 0.51212 0.0
H266 H 0.46126 0.1446 0.89082 0.0
N267 N 0.50387 0.05868 0.85922 0.0
C268 C 0.49727 0.04029 0.91781 0.0
C269 C 0.46454 0.06492 0.98253 0.0
C270 C 0.47204 0.08421 0.92753 0.0
C271 C 0.47749 0.04303 0.97873 0.0
C272 C 0.49209 0.08057 0.86667 0.0
H273 H 0.49389 0.16122 0.78746 0.0
N274 N 0.52118 0.09588 0.76437 0.0
C275 C 0.52318 0.13905 0.73296 0.0
C276 C 0.501 0.09981 0.81699 0.0
C277 C 0.53309 0.11549 0.72647 0.0
C278 C 0.50148 0.14293 0.78193 0.0
C279 C 0.49043 0.12334 0.82663 0.0
O280 O 0.55907 0.0808 0.81824 0.0
O281 O 0.55103 0.03162 0.64537 0.0
O282 O 0.54137 0.99169 0.68786 0.0
O283 O 0.53604 1.01921 0.81141 0.0
O284 O 0.56478 0.06614 0.65381 0.0
O285 O 0.56056 0.04275 0.84688 0.0
O286 O 0.49849 0.98507 0.51783 0.0
O287 O 0.50746 0.03532 0.67741 0.0
O288 O 0.52202 0.07608 0.63013 0.0
O289 O 0.5198 0.04696 0.50993 0.0
O290 O 0.49504 1.00017 0.67316 0.0
O291 O 0.49798 0.02209 0.47316 0.0
C292 C 0.56756 0.04523 0.61281 0.0
C293 C 0.59828 0.06311 0.82428 0.0
C294 C 0.63581 0.04019 0.78954 0.0
C295 C 0.61129 0.04092 0.81955 0.0
C296 C 0.64677 0.06199 0.75958 0.0
C297 C 0.60984 0.08466 0.7956 0.0
C298 C 0.63379 0.08397 0.76228 0.0
C299 C 0.54124 0.99696 0.77783 0.0
C300 C 0.57217 0.06344 0.85182 0.0
C301 C 0.46976 0.12675 0.88324 0.0
C302 C 0.46055 0.10718 0.93358 0.0
C303 C 0.49147 1.02132 0.71143 0.0
C304 C 0.45975 1.0031 0.50445 0.0
C305 C 0.44711 0.02552 0.5039 0.0
C306 C 0.42257 0.02709 0.53351 0.0
C307 C 0.41121 1.00598 0.568 0.0
C308 C 0.44776 0.98224 0.53751 0.0
C309 C 0.4238 0.98382 0.57024 0.0
C310 C 0.51876 0.06985 0.54224 0.0
C311 C 0.48584 1.00164 0.47706 0.0
H312 H 0.60228 0.02417 0.83961 0.0
H313 H 0.66571 0.0624 0.73766 0.0
H314 H 0.60023 0.10202 0.79746 0.0
H315 H 0.6425 0.10065 0.73997 0.0
H316 H 0.4564 0.04174 0.48015 0.0
H317 H 0.39225 1.0062 0.58977 0.0
H318 H 0.45703 0.96473 0.53942 0.0
H319 H 0.41478 0.96767 0.59597 0.0
Tb320 Tb 0.55221 0.52519 0.56859 0.0
C321 C 0.45213 0.51493 0.76169 0.0
C322 C 0.42323 0.53675 0.66804 0.0
C323 C 0.40918 0.50328 0.7627 0.0
C324 C 0.44734 0.53293 0.69925 0.0
C325 C 0.43306 0.50018 0.79582 0.0
C326 C 0.40428 0.52152 0.69869 0.0
C327 C 0.46221 0.48189 0.89847 0.0
N328 N 0.47535 0.5127 0.79246 0.0
C329 C 0.48044 0.497 0.86265 0.0
C330 C 0.43845 0.48328 0.86414 0.0
Tb331 Tb 0.50419 0.53843 0.73101 0.0
N332 N 0.46614 0.5474 0.67228 0.0
C333 C 0.46147 0.56721 0.61854 0.0
C334 C 0.41877 0.55614 0.60897 0.0
C335 C 0.43794 0.57161 0.58506 0.0
H336 H 0.49879 0.49562 0.88944 0.0
H337 H 0.43465 0.58692 0.54046 0.0
H338 H 0.38569 0.52407 0.67504 0.0
H339 H 0.46652 0.46918 0.95241 0.0
H340 H 0.47577 0.57942 0.5979 0.0
H341 H 0.62157 0.47664 0.7597 0.0
H342 H 0.40056 0.55962 0.58306 0.0
H343 H 0.55773 0.56818 0.41082 0.0
H344 H 0.58052 0.48408 0.70148 0.0
H345 H 0.59004 0.59478 0.34897 0.0
H346 H 0.3943 0.49206 0.78765 0.0
H347 H 0.65565 0.50409 0.71834 0.0
H348 H 0.67056 0.53978 0.62729 0.0
H349 H 0.42433 0.47164 0.89222 0.0
H350 H 0.66205 0.5719 0.51502 0.0
N351 N 0.59018 0.51624 0.62801 0.0
C352 C 0.59482 0.49637 0.68142 0.0
C353 C 0.63747 0.50755 0.69211 0.0
C354 C 0.63305 0.52701 0.63328 0.0
C355 C 0.61831 0.492 0.71533 0.0
C356 C 0.60897 0.5308 0.60163 0.0
H357 H 0.63214 0.59236 0.4101 0.0
N358 N 0.58106 0.55108 0.50811 0.0
C359 C 0.59429 0.58202 0.40283 0.0
C360 C 0.60424 0.54886 0.53937 0.0
C361 C 0.57604 0.56683 0.438 0.0
C362 C 0.61799 0.58065 0.43769 0.0
C363 C 0.62332 0.56369 0.50587 0.0
O364 O 0.55579 0.51861 0.42614 0.0
O365 O 0.513 0.52696 0.59194 0.0
O366 O 0.50163 0.49914 0.69477 0.0
O367 O 0.54163 0.49187 0.64633 0.0
O368 O 0.52551 0.53969 0.46992 0.0
O369 O 0.55819 0.48891 0.52151 0.0
O370 O 0.50162 0.54511 0.87379 0.0
O371 O 0.54339 0.53668 0.70755 0.0
O372 O 0.55468 0.56452 0.60493 0.0
O373 O 0.51467 0.57173 0.65311 0.0
O374 O 0.5309 0.52376 0.82926 0.0
O375 O 0.49775 0.57459 0.77813 0.0
C376 C 0.50598 0.53563 0.51632 0.0
C377 C 0.53708 0.48195 0.37959 0.0
C378 C 0.50418 0.45182 0.36304 0.0
C379 C 0.52206 0.46374 0.41752 0.0
C380 C 0.50115 0.4591 0.27072 0.0
C381 C 0.53372 0.48862 0.28736 0.0
C382 C 0.51568 0.47744 0.23374 0.0
C383 C 0.52022 0.48401 0.67868 0.0
C384 C 0.55566 0.495 0.43533 0.0
C385 C 0.64716 0.56061 0.53947 0.0
C386 C 0.65201 0.54232 0.60329 0.0
C387 C 0.55044 0.52793 0.78303 0.0
C388 C 0.52074 0.58199 0.91527 0.0
C389 C 0.53443 0.60072 0.87418 0.0
C390 C 0.5531 0.61291 0.92359 0.0
C391 C 0.55841 0.60525 0.01396 0.0
C392 C 0.52633 0.57496 1.0055 0.0
C393 C 0.54525 0.58634 0.05394 0.0
C394 C 0.53608 0.57964 0.62103 0.0
C395 C 0.50145 0.5687 0.86392 0.0
H396 H 0.5244 0.45873 0.4889 0.0
H397 H 0.48822 0.45001 0.22514 0.0
H398 H 0.54499 0.50266 0.25684 0.0
H399 H 0.51326 0.48266 0.16259 0.0
H400 H 0.53038 0.60594 0.80422 0.0
H401 H 0.57203 0.61447 0.05608 0.0
H402 H 0.51617 0.56047 0.03836 0.0
H403 H 0.54941 0.58083 0.12359 0.0
Tb404 Tb 0.0382 0.55471 0.56966 0.0
C405 C 0.03423 0.45574 0.75401 0.0
C406 C 1.01188 0.43116 0.64262 0.0
C407 C 0.04225 0.41199 0.7392 0.0
C408 C 1.01728 0.45412 0.68468 0.0
C409 C 0.0463 0.43456 0.78478 0.0
C410 C 0.02505 0.4103 0.66799 0.0
C411 C 0.06255 0.45879 0.91132 0.0
N412 N 0.03725 0.47775 0.79695 0.0
C413 C 0.05003 0.47913 0.8784 0.0
C414 C 0.06111 0.43648 0.8631 0.0
Tb415 Tb 1.01752 0.51106 0.73527 0.0
N416 N 1.00498 0.47477 0.66262 0.0
C417 C 0.98527 0.47284 0.60416 0.0
C418 C 0.99292 0.42968 0.57853 0.0
C419 C 0.97925 0.45052 0.56076 0.0
H420 H 0.05126 0.49631 0.91664 0.0
H421 H 0.96411 0.4495 0.51283 0.0
H422 H 0.02145 0.39264 0.63528 0.0
H423 H 0.07325 0.46035 0.97397 0.0
H424 H 0.97417 0.48825 0.5869 0.0
H425 H 0.09209 0.61601 0.79157 0.0
H426 H 0.98827 0.41246 0.54446 0.0
H427 H 1.00428 0.56942 0.38898 0.0
H428 H 0.08147 0.57723 0.71918 0.0
H429 H 0.98281 0.60553 0.33036 0.0
H430 H 0.05161 0.3956 0.76081 0.0
H431 H 0.06867 0.65335 0.75766 0.0
H432 H 0.03599 0.67345 0.66527 0.0
H433 H 0.07065 0.42066 0.88903 0.0
H434 H 1.00582 0.6706 0.5398 0.0
N435 N 0.05105 0.59097 0.64189 0.0
C436 C 0.07069 0.59276 0.70077 0.0
C437 C 0.06375 0.6361 0.7243 0.0
C438 C 0.04484 0.63474 0.65999 0.0
C439 C 0.07702 0.6151 0.74332 0.0
C440 C 0.03908 0.61174 0.61889 0.0
H441 H 0.98621 0.64545 0.41326 0.0
N442 N 1.01871 0.58811 0.50764 0.0
C443 C 0.99359 0.60712 0.39279 0.0
C444 C 0.02211 0.61019 0.5496 0.0
C445 C 1.00581 0.58669 0.42648 0.0
C446 C 0.99548 0.62956 0.43985 0.0
C447 C 1.01039 0.63147 0.51791 0.0
O448 O 0.04643 0.55653 0.42836 0.0
O449 O 0.03361 0.51595 0.59993 0.0
O450 O 0.05791 0.50899 0.73915 0.0
O451 O 0.07011 0.54182 0.64918 0.0
O452 O 0.02329 0.52739 0.47228 0.0
O453 O 0.07521 0.5555 0.52817 0.0
O454 O 1.0091 0.50898 0.87635 0.0
O455 O 0.02217 0.54978 0.70501 0.0
O456 O 0.99779 0.55703 0.56675 0.0
O457 O 0.98567 0.52389 0.65521 0.0
O458 O 0.03217 0.53846 0.83307 0.0
O459 O 0.98046 0.51013 0.77599 0.0
C460 C 0.02574 0.50835 0.52196 0.0
C461 C 0.08088 0.53351 0.38559 0.0
C462 C 0.10985 0.49952 0.3682 0.0
C463 C 0.09827 0.51766 0.42357 0.0
C464 C 0.10243 0.49664 0.27519 0.0
C465 C 0.07401 0.53022 0.29279 0.0
C466 C 0.08447 0.51165 0.23853 0.0
C467 C 0.07496 0.52405 0.7076 0.0
C468 C 0.06963 0.55357 0.44095 0.0
C469 C 1.01486 0.65412 0.56229 0.0
C470 C 0.03207 0.65575 0.63346 0.0
C471 C 0.02991 0.55745 0.78307 0.0
C472 C 0.97454 0.53187 0.91892 0.0
C473 C 0.9572 0.54777 0.88087 0.0
C474 C 0.94555 0.56584 0.93635 0.0
C475 C 0.95279 0.56856 0.02961 0.0
C476 C 0.98122 0.53499 0.01197 0.0
C477 C 0.97067 0.55347 0.06639 0.0
C478 C 0.98076 0.54183 0.59759 0.0
C479 C 0.9859 0.51192 0.86336 0.0
H480 H 0.10304 0.51974 0.49564 0.0
H481 H 0.11116 0.48354 0.22868 0.0
H482 H 0.06057 0.54211 0.26204 0.0
H483 H 0.07917 0.50935 0.16685 0.0
H484 H 0.95253 0.54579 0.80864 0.0
H485 H 0.944 0.5816 0.07615 0.0
H486 H 0.99461 0.52305 0.04277 0.0
H487 H 0.97584 0.55565 0.13826 0.0
H488 H 0.21202 0.03428 0.27124 0.0
H489 H 0.16531 0.06956 0.07448 0.0
H490 H 0.17791 0.03361 0.38206 0.0
H491 H 0.13148 0.06837 0.18331 0.0
H492 H 0.06865 0.036 0.35348 0.0
H493 H 0.10369 0.03907 0.25016 0.0
H494 H 0.14972 0.05861 0.48164 0.0
H495 H 0.11438 0.05604 0.58512 0.0
C496 C 0.19467 0.0421 0.25151 0.0
C497 C 0.19164 0.05155 0.16227 0.0
C498 C 0.17497 0.04166 0.31527 0.0
C499 C 0.15157 0.05056 0.29179 0.0
C500 C 0.14887 0.06073 0.20383 0.0
C501 C 0.16847 0.06136 0.14083 0.0
C502 C 0.08616 0.04088 0.38307 0.0
C503 C 0.08852 0.04492 0.47921 0.0
C504 C 0.10641 0.04281 0.32319 0.0
C505 C 0.12989 0.04884 0.35689 0.0
C506 C 0.13219 0.05338 0.45276 0.0
C507 C 0.11182 0.05175 0.51258 0.0
H508 H 0.52157 0.2093 0.24515 0.0
H509 H 0.48776 0.15757 0.05524 0.0
H510 H 0.52269 0.17803 0.36211 0.0
H511 H 0.49125 0.12587 0.1675 0.0
H512 H 0.48472 0.07332 0.4037 0.0
H513 H 0.4792 0.10655 0.29558 0.0
H514 H 0.54129 0.14427 0.41668 0.0
H515 H 0.54558 0.11164 0.5269 0.0
C516 C 0.51441 0.19134 0.22763 0.0
C517 C 0.50491 0.18631 0.1388 0.0
C518 C 0.51546 0.17302 0.29485 0.0
C519 C 0.5074 0.14882 0.27561 0.0
C520 C 0.49749 0.14402 0.18726 0.0
C521 C 0.49597 0.16239 0.12105 0.0
C522 C 0.49701 0.08886 0.40734 0.0
C523 C 0.5153 0.09 0.47519 0.0
C524 C 0.49404 0.10801 0.34454 0.0
C525 C 0.50975 0.12865 0.34579 0.0
C526 C 0.52824 0.12939 0.41367 0.0
C527 C 0.53081 0.11052 0.47748 0.0
H528 H 0.37407 0.48555 0.21677 0.0
H529 H 0.37459 0.56387 0.18988 0.0
H530 H 0.40964 0.48826 0.3194 0.0
H531 H 0.40926 0.56699 0.29523 0.0
H532 H 0.48901 0.56364 0.37948 0.0
H533 H 0.45101 0.56024 0.29385 0.0
H534 H 0.42935 0.49913 0.46061 0.0
H535 H 0.46837 0.5021 0.54395 0.0
C536 C 0.38135 0.50343 0.23521 0.0
C537 C 0.37133 0.52452 0.19588 0.0
C538 C 0.40184 0.50505 0.29417 0.0
C539 C 0.41291 0.52785 0.3156 0.0
C540 C 0.40194 0.54898 0.27923 0.0
C541 C 0.38172 0.54731 0.21968 0.0
C542 C 0.47606 0.54958 0.39845 0.0
C543 C 0.48152 0.53363 0.47048 0.0
C544 C 0.45399 0.54771 0.34965 0.0
C545 C 0.43646 0.52967 0.37044 0.0
C546 C 0.44216 0.5133 0.44181 0.0
C547 C 0.46445 0.51517 0.49073 0.0
H548 H 0.02757 0.39324 0.09597 0.0
H549 H 0.0369 0.35158 0.34287 0.0
H550 H 0.0305 0.43124 0.18637 0.0
H551 H 0.03954 0.39001 0.435 0.0
H552 H 0.05785 0.46972 0.55891 0.0
H553 H 0.06145 0.4302 0.47357 0.0
H554 H 1.00336 0.45227 0.29224 0.0
H555 H 0.99986 0.49104 0.37682 0.0
C556 C 0.0307 0.39217 0.16968 0.0
C557 C 0.03199 0.36915 0.21159 0.0
C558 C 0.03213 0.41409 0.22208 0.0
C559 C 0.03476 0.41401 0.31901 0.0
C560 C 0.03755 0.391 0.36074 0.0
C561 C 0.03615 0.36888 0.30777 0.0
C562 C 0.04567 0.46588 0.50158 0.0
C563 C 0.02808 0.48339 0.47648 0.0
C564 C 0.04778 0.44323 0.45223 0.0
C565 C 0.03278 0.43778 0.37497 0.0
C566 C 1.01554 0.45561 0.34996 0.0
C567 C 1.01337 0.47793 0.39918 0.0
H568 H 0.84578 0.03013 0.04636 0.0
H569 H 0.89279 0.99467 0.24183 0.0
H570 H 0.87964 0.03061 0.93451 0.0
H571 H 0.92636 0.99569 0.13186 0.0
H572 H 0.98895 0.02742 0.95893 0.0
H573 H 0.95418 0.02467 0.0636 0.0
H574 H 0.90737 1.00547 0.83399 0.0
H575 H 0.94245 1.00774 0.72913 0.0
C576 C 0.86315 0.02224 0.06563 0.0
C577 C 0.86631 1.01277 0.1548 0.0
C578 C 0.88269 0.02257 1.00123 0.0
C579 C 0.9061 1.01355 0.02393 0.0
C580 C 0.90896 1.00341 0.1119 0.0
C581 C 0.8895 1.00289 0.17557 0.0
C582 C 0.97132 0.02268 0.93001 0.0
C583 C 0.96868 1.01865 0.83398 0.0
C584 C 0.95122 1.02094 0.99069 0.0
C585 C 0.92761 1.01509 0.95795 0.0
C586 C 0.92501 1.01056 0.86217 0.0
C587 C 0.94524 1.01203 0.80153 0.0
H588 H 0.52692 0.8991 0.24653 0.0
H589 H 0.57943 0.8611 0.07322 0.0
H590 H 0.52419 0.93161 0.13496 0.0
H591 H 0.57775 0.89424 0.96245 0.0
H592 H 0.55649 0.94933 0.7425 0.0
H593 H 0.55855 0.91551 0.84842 0.0
H594 H 0.54255 0.96553 0.07605 0.0
H595 H 0.53853 0.99874 0.96858 0.0
C596 C 0.53797 0.89771 0.18432 0.0
C597 C 0.55337 0.87735 0.16916 0.0
C598 C 0.53665 0.91662 0.12024 0.0
C599 C 0.551 0.91618 0.0389 0.0
C600 C 0.5661 0.89547 0.02297 0.0
C601 C 0.56712 0.8763 0.08675 0.0
C602 C 0.55259 0.95301 0.81452 0.0
C603 C 0.54587 0.97674 0.84502 0.0
C604 C 0.55435 0.93354 0.87645 0.0
C605 C 0.55014 0.93721 0.97206 0.0
C606 C 0.54494 0.96135 1.00314 0.0
C607 C 0.54279 0.98068 0.94092 0.0
H608 H 0.68197 0.5785 0.0845 0.0
H609 H 0.68149 0.5002 0.1119 0.0
H610 H 0.6465 0.57571 0.98141 0.0
H611 H 0.64694 0.49699 1.00605 0.0
H612 H 0.56738 0.50001 0.92011 0.0
H613 H 0.60523 0.50358 1.00647 0.0
H614 H 0.62682 0.56483 0.84027 0.0
H615 H 0.58791 0.5617 0.75626 0.0
C616 C 0.67472 0.5606 0.06609 0.0
C617 C 0.68473 0.53954 0.10573 0.0
C618 C 0.65429 0.55894 1.00685 0.0
C619 C 0.64325 0.53612 0.98541 0.0
C620 C 0.65421 0.51501 0.02206 0.0
C621 C 0.67438 0.51674 0.08192 0.0
C622 C 0.58029 0.51414 0.9014 0.0
C623 C 0.57484 0.53007 0.8293 0.0
C624 C 0.60228 0.51611 0.95064 0.0
C625 C 0.61976 0.53423 0.93021 0.0
C626 C 0.61406 0.55059 0.8588 0.0
C627 C 0.59183 0.54864 0.80947 0.0
H628 H 0.98227 0.69553 0.06739 0.0
H629 H 0.05977 0.69026 0.11379 0.0
H630 H 0.98402 0.65885 0.96601 0.0
H631 H 0.06196 0.65456 0.01028 0.0
H632 H 0.0558 0.57458 0.92846 0.0
H633 H 0.0527 0.61334 0.01247 0.0
H634 H 0.99554 0.63624 0.82807 0.0
H635 H 0.99824 0.59637 0.74545 0.0
C636 C 0.99982 0.68699 0.05368 0.0
C637 C 1.02091 0.69603 0.09862 0.0
C638 C 1.00087 0.66581 0.99549 0.0
C639 C 0.02308 0.65302 0.98026 0.0
C640 C 0.0443 0.66309 0.02158 0.0
C641 C 0.04317 0.68394 0.08024 0.0
C642 C 0.04266 0.58793 0.90508 0.0
C643 C 0.0279 0.58253 0.82791 0.0
C644 C 0.04099 0.61048 0.95313 0.0
C645 C 0.02425 0.6287 0.92685 0.0
C646 C 1.00879 0.62299 0.85101 0.0
C647 C 1.0105 0.60018 0.80256 0.0
H648 H 0.05831 0.25937 0.34075 0.0
H649 H 0.11449 0.22263 0.17948 0.0
H650 H 0.06553 0.23232 0.46656 0.0
H651 H 0.12172 0.19503 0.307 0.0
H652 H 0.06226 0.13394 0.37573 0.0
H653 H 0.08957 0.16476 0.3209 0.0
H654 H 0.08246 0.20494 0.58013 0.0
H655 H 0.0552 0.17318 0.63713 0.0
C656 C 0.07322 0.24641 0.33381 0.0
C657 C 0.08504 0.24239 0.24841 0.0
C658 C 0.07748 0.23076 0.40684 0.0
C659 C 0.09339 0.21069 0.39511 0.0
C660 C 0.10872 0.20983 0.31677 0.0
C661 C 0.10449 0.22556 0.24355 0.0
C662 C 0.06735 0.14856 0.42354 0.0
C663 C 0.05558 0.15158 0.50953 0.0
C664 C 0.08331 0.16641 0.39187 0.0
C665 C 0.08754 0.18788 0.44485 0.0
C666 C 0.079 0.18893 0.53668 0.0
C667 C 0.06315 0.17087 0.56887 0.0
H668 H 0.34237 0.1192 0.19881 0.0
H669 H 0.30076 0.06057 0.31812 0.0
H670 H 0.36842 0.12087 0.33536 0.0
H671 H 0.32683 0.06177 0.45278 0.0
H672 H 0.38421 0.04626 0.63748 0.0
H673 H 0.35302 0.07422 0.58187 0.0
H674 H 0.39705 0.08722 0.33905 0.0
H675 H 0.42728 0.05914 0.39167 0.0
C676 C 0.33808 0.1075 0.2562 0.0
C677 C 0.32022 0.08913 0.24678 0.0
C678 C 0.35298 0.10844 0.33439 0.0
C679 C 0.35042 0.09071 0.40289 0.0
C680 C 0.32961 0.07552 0.40094 0.0
C681 C 0.31459 0.07474 0.32319 0.0
C682 C 0.38744 0.0555 0.57313 0.0
C683 C 0.40787 0.04956 0.51739 0.0
C684 C 0.36967 0.07176 0.54191 0.0
C685 C 0.37219 0.08251 0.45495 0.0
C686 C 0.39435 0.07939 0.40647 0.0
C687 C 0.41189 0.063 0.43692 0.0
H688 H 0.51552 0.31572 0.26927 0.0
H689 H 0.43988 0.32519 0.19711 0.0
H690 H 0.51191 0.34704 0.38768 0.0
H691 H 0.43507 0.35541 0.32227 0.0
H692 H 0.4575 0.43667 0.32062 0.0
H693 H 0.44419 0.39484 0.3179 0.0
H694 H 0.50456 0.37568 0.49517 0.0
H695 H 0.51969 0.41713 0.48697 0.0
C696 C 0.49766 0.32362 0.28301 0.0
C697 C 0.47818 0.31867 0.22322 0.0
C698 C 0.49539 0.34177 0.35167 0.0
C699 C 0.47345 0.35524 0.3619 0.0
C700 C 0.45271 0.34671 0.31308 0.0
C701 C 0.45523 0.32904 0.24225 0.0
C702 C 0.46801 0.42353 0.35904 0.0
C703 C 0.49082 0.4299 0.39677 0.0
C704 C 0.46005 0.39928 0.35929 0.0
C705 C 0.47445 0.381 0.39987 0.0
C706 C 0.49403 0.38873 0.45652 0.0
C707 C 0.50256 0.41283 0.45314 0.0
H708 H 0.23774 0.44234 0.20149 0.0
H709 H 0.24785 0.51408 0.32382 0.0
H710 H 0.20715 0.43308 0.31803 0.0
H711 H 0.21608 0.50644 0.43396 0.0
H712 H 0.14334 0.51381 0.50286 0.0
H713 H 0.18427 0.49865 0.51838 0.0
H714 H 0.16814 0.44059 0.31929 0.0
H715 H 0.12635 0.45346 0.316 0.0
C716 C 0.23394 0.45579 0.25573 0.0
C717 C 0.24448 0.47913 0.25278 0.0
C718 C 0.2159 0.45082 0.32157 0.0
C719 C 0.20707 0.4697 0.38107 0.0
C720 C 0.22113 0.4914 0.38816 0.0
C721 C 0.23971 0.49598 0.32459 0.0
C722 C 0.14806 0.49715 0.4653 0.0
C723 C 0.13178 0.48603 0.40198 0.0
C724 C 0.17208 0.48867 0.47259 0.0
C725 C 0.18078 0.46998 0.41233 0.0
C726 C 0.16316 0.456 0.36337 0.0
C727 C 0.13888 0.46375 0.35962 0.0
H728 H 0.99737 0.80241 0.96824 0.0
H729 H 0.93953 0.84168 0.11062 0.0
H730 H 0.99281 0.82843 0.83659 0.0
H731 H 0.9344 0.86765 0.97689 0.0
H732 H 1.00658 0.88717 0.66247 0.0
H733 H 0.97886 0.85539 0.71614 0.0
H734 H 0.96674 0.89734 0.96883 0.0
H735 H 0.99462 0.92796 0.91829 0.0
C736 C 0.98264 0.81568 0.9692 0.0
C737 C 0.96954 0.82081 0.05091 0.0
C738 C 0.97988 0.83066 0.89305 0.0
C739 C 0.96406 0.85098 0.89818 0.0
C740 C 0.94739 0.85269 0.97239 0.0
C741 C 0.95033 0.83787 0.04905 0.0
C742 C 0.99757 0.8898 0.7287 0.0
C743 C 1.00383 0.90965 0.78776 0.0
C744 C 0.98142 0.87172 0.7588 0.0
C745 C 0.97115 0.87338 0.84798 0.0
C746 C 0.97428 0.89522 0.89981 0.0
C747 C 0.99059 0.91301 0.87052 0.0
H748 H 0.71602 0.94611 0.11126 0.0
H749 H 0.75761 1.00577 0.99919 0.0
H750 H 0.69071 0.94484 0.9727 0.0
H751 H 0.73209 1.00518 0.86314 0.0
H752 H 0.63138 1.00607 0.92429 0.0
H753 H 0.66172 0.97759 0.97152 0.0
H754 H 0.70605 0.99457 0.73323 0.0
H755 H 0.67462 0.02303 0.68275 0.0
C756 C 0.72043 0.95818 0.0551 0.0
C757 C 0.73807 0.97666 0.06702 0.0
C758 C 0.70597 0.95748 0.97574 0.0
C759 C 0.70856 0.97572 0.90909 0.0
C760 C 0.72923 0.99106 0.91351 0.0
C761 C 0.74391 0.99152 0.99216 0.0
C762 C 0.64685 1.00305 0.87859 0.0
C763 C 0.65084 1.01771 0.80127 0.0
C764 C 0.66448 0.9864 0.90594 0.0
C765 C 0.68678 0.98424 0.8577 0.0
C766 C 0.68931 0.99627 0.77318 0.0
C767 C 0.67141 1.01281 0.74495 0.0
H768 H 0.53388 0.74422 0.04141 0.0
H769 H 0.61176 0.74287 0.08297 0.0
H770 H 0.53763 0.71446 0.91725 0.0
H771 H 0.61632 0.71385 0.95321 0.0
H772 H 0.59965 0.63049 0.95569 0.0
H773 H 0.61024 0.67318 0.95925 0.0
H774 H 0.54627 0.68926 0.79635 0.0
H775 H 0.53391 0.64696 0.80396 0.0
C776 C 0.55202 0.7384 0.01996 0.0
C777 C 0.57244 0.7452 0.07227 0.0
C778 C 0.55438 0.72128 0.94786 0.0
C779 C 0.57729 0.71052 0.92713 0.0
C780 C 0.59823 0.72071 0.96983 0.0
C781 C 0.59575 0.73757 0.04346 0.0
C782 C 0.58777 0.6431 0.92054 0.0
C783 C 0.56478 0.63553 0.88751 0.0
C784 C 0.59417 0.66782 0.92057 0.0
C785 C 0.57796 0.68528 0.88482 0.0
C786 C 0.55822 0.67664 0.83108 0.0
C787 C 0.55126 0.65205 0.83443 0.0
H788 H 0.80769 0.55146 0.97948 0.0
H789 H 0.81795 0.62298 0.10354 0.0
H790 H 0.83938 0.55927 0.86925 0.0
H791 H 0.84847 0.63242 0.98693 0.0
H792 H 0.91217 0.55175 0.80107 0.0
H793 H 0.87127 0.56703 0.78537 0.0
H794 H 0.88746 0.62494 0.98499 0.0
H795 H 0.9292 0.61194 0.9886 0.0
C796 C 0.81585 0.56955 0.97912 0.0
C797 C 0.81115 0.58628 0.05142 0.0
C798 C 0.83439 0.57423 0.91547 0.0
C799 C 0.84849 0.5959 0.92303 0.0
C800 C 0.8397 0.61469 0.98305 0.0
C801 C 0.82171 0.60962 0.04893 0.0
C802 C 0.90746 0.5684 0.83874 0.0
C803 C 0.92372 0.57943 0.90233 0.0
C804 C 0.88347 0.57694 0.83135 0.0
C805 C 0.87478 0.59562 0.89174 0.0
C806 C 0.89241 0.60953 0.94086 0.0
C807 C 0.91667 0.60171 0.94476 0.0
H808 H 1.01028 0.20956 0.02761 0.0
H809 H 0.07879 0.21526 0.88297 0.0
H810 H 1.00313 0.16971 0.95545 0.0
H811 H 0.07124 0.17596 0.80438 0.0
H812 H 0.06232 0.09413 0.72695 0.0
H813 H 0.07023 0.13464 0.79662 0.0
H814 H 0.99256 0.14385 0.84401 0.0
H815 H 0.98547 0.10303 0.78333 0.0
C816 C 0.02337 0.20271 0.97695 0.0
C817 C 0.04474 0.21613 0.95936 0.0
C818 C 1.01935 0.17952 0.93483 0.0
C819 C 0.0364 0.1688 0.87182 0.0
C820 C 0.05757 0.18278 0.85256 0.0
C821 C 0.06178 0.20579 0.89643 0.0
C822 C 0.04711 0.10463 0.75494 0.0
C823 C 0.02334 0.09472 0.75234 0.0
C824 C 0.05151 0.12831 0.79369 0.0
C825 C 0.03217 0.14327 0.82865 0.0
C826 C 1.00837 0.13331 0.82241 0.0
C827 C 1.00415 0.10962 0.78615 0.0
H828 H 0.36191 0.09378 0.95095 0.0
H829 H 0.33862 1.01881 0.91461 0.0
H830 H 0.40064 0.08421 0.87592 0.0
H831 H 0.37721 1.00928 0.83446 0.0
H832 H 0.4598 0.99299 0.80692 0.0
H833 H 0.4188 1.00267 0.86351 0.0
H834 H 0.42448 0.07457 0.74633 0.0
H835 H 0.46589 0.06477 0.69171 0.0
C836 C 0.36483 0.07525 0.92511 0.0
C837 C 0.34696 0.05705 0.94028 0.0
C838 C 0.3872 0.06975 0.88107 0.0
C839 C 0.39267 0.0458 0.84934 0.0
C840 C 0.37419 0.02785 0.85954 0.0
C841 C 0.35173 0.03338 0.90428 0.0
C842 C 0.45233 1.01094 0.79377 0.0
C843 C 0.46654 0.02834 0.74726 0.0
C844 C 0.42855 1.01647 0.82544 0.0
C845 C 0.41785 0.03954 0.8106 0.0
C846 C 0.43195 0.05677 0.76154 0.0
C847 C 0.45585 0.05121 0.73008 0.0
H848 H 0.47023 0.33572 0.83403 0.0
H849 H 0.53878 0.34793 0.97261 0.0
H850 H 0.47575 0.37384 0.7495 0.0
H851 H 0.54433 0.38614 0.8901 0.0
H852 H 0.478 0.45854 0.71866 0.0
H853 H 0.47399 0.41715 0.77704 0.0
H854 H 0.552 0.40701 0.7496 0.0
H855 H 0.55602 0.44863 0.6939 0.0
C856 C 0.48686 0.3462 0.84425 0.0
C857 C 0.50438 0.33841 0.90823 0.0
C858 C 0.48988 0.36834 0.79697 0.0
C859 C 0.51048 0.38348 0.81267 0.0
C860 C 0.5284 0.37507 0.87442 0.0
C861 C 0.52531 0.35301 0.92174 0.0
C862 C 0.49437 0.44758 0.72544 0.0
C863 C 0.51745 0.4575 0.70384 0.0
C864 C 0.49203 0.42355 0.75802 0.0
C865 C 0.51269 0.40846 0.76971 0.0
C866 C 0.53565 0.41804 0.74392 0.0
C867 C 0.53796 0.44205 0.71125 0.0
H868 H 0.23346 0.50172 0.83182 0.0
H869 H 0.19915 0.53174 0.07781 0.0
H870 H 0.19455 0.5063 0.74748 0.0
H871 H 0.1607 0.53579 0.99532 0.0
H872 H 0.09066 0.50474 0.87121 0.0
H873 H 0.13147 0.50314 0.93501 0.0
H874 H 0.16004 0.53836 0.69368 0.0
H875 H 0.1185 0.54026 0.62966 0.0
C876 C 0.2179 0.50988 0.86727 0.0
C877 C 0.21956 0.51624 0.96204 0.0
C878 C 0.19551 0.51235 0.81913 0.0
C879 C 0.1742 0.52096 0.86494 0.0
C880 C 0.17644 0.52864 0.95794 0.0
C881 C 0.19865 0.52646 1.00523 0.0
C882 C 0.10542 0.51161 0.83002 0.0
C883 C 0.10082 0.52195 0.74353 0.0
C884 C 0.12906 0.51103 0.86758 0.0
C885 C 0.14929 0.52063 0.81993 0.0
C886 C 0.14502 0.5306 0.73235 0.0
C887 C 0.1211 0.53162 0.69547 0.0
H888 H 0.04349 0.84109 0.37139 0.0
H889 H 0.96825 0.8633 0.34528 0.0
H890 H 0.05239 0.87951 0.45509 0.0
H891 H 0.97724 0.90202 0.42229 0.0
H892 H 0.99508 0.96815 0.60761 0.0
H893 H 0.98559 0.92713 0.54626 0.0
H894 H 0.0594 0.9207 0.44039 0.0
H895 H 0.06878 0.96109 0.5051 0.0
C896 C 0.02874 0.85396 0.38418 0.0
C897 C 1.00517 0.84884 0.34983 0.0
C898 C 0.03391 0.87643 0.43104 0.0
C899 C 1.01575 0.89472 0.44498 0.0
C900 C 0.99195 0.88888 0.41452 0.0
C901 C 0.98678 0.86646 0.36887 0.0
C902 C 1.00915 0.95802 0.57038 0.0
C903 C 0.03258 0.96828 0.5598 0.0
C904 C 1.00376 0.9343 0.53473 0.0
C905 C 0.0216 0.91995 0.48702 0.0
C906 C 0.04506 0.93044 0.47745 0.0
C907 C 0.05045 0.95395 0.51379 0.0
H908 H 0.69486 0.97143 0.35904 0.0
H909 H 0.7201 0.04539 0.40626 0.0
H910 H 0.65635 0.98127 0.43524 0.0
H911 H 0.68174 0.05512 0.48759 0.0
H912 H 0.59977 0.07345 0.51977 0.0
H913 H 0.64033 0.06315 0.46026 0.0
H914 H 0.63275 0.99018 0.56642 0.0
H915 H 0.59176 1.00063 0.62403 0.0
C916 C 0.69241 0.98979 0.3873 0.0
C917 C 0.71078 1.00765 0.37487 0.0
C918 C 0.67017 0.99543 0.43211 0.0
C919 C 0.66531 1.01918 0.46743 0.0
C920 C 0.68426 0.03674 0.45976 0.0
C921 C 0.7066 0.03108 0.41427 0.0
C922 C 0.60671 0.05512 0.52981 0.0
C923 C 0.59208 0.03769 0.57427 0.0
C924 C 0.63025 0.04923 0.49647 0.0
C925 C 0.64031 0.0257 0.50748 0.0
C926 C 0.62578 1.00836 0.55421 0.0
C927 C 0.60211 1.0143 0.58737 0.0
H928 H 0.58497 0.72899 0.46979 0.0
H929 H 0.5172 0.71527 0.32758 0.0
H930 H 0.57982 0.69077 0.55453 0.0
H931 H 0.51199 0.67716 0.41054 0.0
H932 H 0.5783 0.6054 0.58236 0.0
H933 H 0.58219 0.64703 0.5257 0.0
H934 H 0.50412 0.6567 0.55229 0.0
H935 H 0.50023 0.61494 0.60652 0.0
C936 C 0.56857 0.7182 0.45884 0.0
C937 C 0.55121 0.72554 0.39342 0.0
C938 C 0.56577 0.69601 0.50626 0.0
C939 C 0.54549 0.68048 0.48967 0.0
C940 C 0.52768 0.68852 0.42687 0.0
C941 C 0.53058 0.71053 0.37924 0.0
C942 C 0.5619 0.61631 0.57576 0.0
C943 C 0.53883 0.60622 0.5966 0.0
C944 C 0.56417 0.64047 0.5442 0.0
C945 C 0.54344 0.65548 0.53265 0.0
C946 C 0.52052 0.64574 0.55787 0.0
C947 C 0.51828 0.62163 0.58961 0.0
H948 H 0.85706 0.53422 0.22559 0.0
H949 H 0.822 0.56285 0.47237 0.0
H950 H 0.89546 0.53042 0.30862 0.0
H951 H 0.86087 0.55849 0.55725 0.0
H952 H 0.93735 0.52473 0.67388 0.0
H953 H 0.89584 0.52642 0.60952 0.0
H954 H 0.92406 0.56351 0.37176 0.0
H955 H 0.96482 0.56216 0.43596 0.0
C956 C 0.85739 0.53925 0.29842 0.0
C957 C 0.83628 0.54902 0.34169 0.0
C958 C 0.87957 0.53721 0.34604 0.0
C959 C 0.88157 0.54455 0.43947 0.0
C960 C 0.86008 0.5527 0.48527 0.0
C961 C 0.83772 0.55504 0.4368 0.0
C962 C 0.93469 0.53372 0.60877 0.0
C963 C 0.95487 0.54392 0.56175 0.0
C964 C 0.91077 0.53462 0.57172 0.0
C965 C 0.90642 0.54504 0.48497 0.0
C966 C 0.92654 0.55524 0.43849 0.0
C967 C 0.95016 0.55478 0.47628 0.0
loop_
_geom_bond_atom_site_label_1
_geom_bond_atom_site_label_2
_geom_bond_distance
_geom_bond_site_symmetry_2
_ccdc_geom_bond_type
H0 C1 0.949 . S
C1 H0 0.949 . S
C1 C2 1.395 . S
C1 C3 1.391 . S
C2 C1 1.395 . S
C2 C5 1.390 . S
C3 C1 1.391 . S
C3 C7 1.387 . S
C3 C8 1.491 . S
H4 C5 0.950 . S
C5 C2 1.390 . S
C5 H4 0.950 . S
C5 C6 1.378 . S
C6 C5 1.378 . S
C6 C7 1.409 . S
C7 C3 1.387 . S
C7 C6 1.409 . S
C7 H9 0.951 . S
C8 C3 1.491 . S
C8 C10 1.382 . S
C8 C12 1.404 . S
H9 C7 0.951 . S
C10 C8 1.382 . S
C10 C11 1.390 . S
C10 H15 0.949 . S
C11 C10 1.390 . S
C11 C16 1.399 . S
C12 C8 1.404 . S
C12 H13 0.950 . S
C12 C14 1.375 . S
H13 C12 0.950 . S
C14 C12 1.375 . S
C14 C16 1.382 . S
C14 H18 0.950 . S
H15 C10 0.949 . S
C16 C11 1.399 . S
C16 C14 1.382 . S
C16 H17 0.952 . S
H17 C16 0.952 . S
H18 C14 0.950 . S
H19 C20 0.949 . S
C20 H19 0.949 . S
C20 C21 1.395 . S
C20 C22 1.391 . S
C21 C20 1.395 . S
C21 C24 1.390 . S
C22 C20 1.391 . S
C22 C26 1.387 . S
C22 C27 1.491 . S
H23 C24 0.950 . S
C24 C21 1.390 . S
C24 H23 0.950 . S
C24 C25 1.378 . S
C25 C24 1.378 . S
C25 C26 1.409 . S
C26 C22 1.387 . S
C26 C25 1.409 . S
C26 H28 0.951 . S
C27 C22 1.491 . S
C27 C29 1.382 . S
C27 C31 1.404 . S
H28 C26 0.951 . S
C29 C27 1.382 . S
C29 C30 1.390 . S
C29 H34 0.949 . S
C30 C29 1.390 . S
C30 C35 1.399 . S
C31 C27 1.404 . S
C31 H32 0.950 . S
C31 C33 1.375 . S
H32 C31 0.950 . S
C33 C31 1.375 . S
C33 C35 1.382 . S
C33 H37 0.950 . S
H34 C29 0.949 . S
C35 C30 1.399 . S
C35 C33 1.382 . S
C35 H36 0.952 . S
H36 C35 0.952 . S
H37 C33 0.950 . S
H38 C39 0.949 . S
C39 H38 0.949 . S
C39 C40 1.395 . S
C39 C41 1.391 . S
C40 C39 1.395 . S
C40 C43 1.390 . S
C41 C39 1.391 . S
C41 C45 1.387 . S
C41 C46 1.491 . S
H42 C43 0.950 . S
C43 C40 1.390 . S
C43 H42 0.950 . S
C43 C44 1.378 . S
C44 C43 1.378 . S
C44 C45 1.409 . S
C45 C41 1.387 . S
C45 C44 1.409 . S
C45 H47 0.951 . S
C46 C41 1.491 . S
C46 C48 1.382 . S
C46 C50 1.404 . S
H47 C45 0.951 . S
C48 C46 1.382 . S
C48 C49 1.390 . S
C48 H53 0.949 . S
C49 C48 1.390 . S
C49 C54 1.399 . S
C50 C46 1.404 . S
C50 H51 0.950 . S
C50 C52 1.375 . S
H51 C50 0.950 . S
C52 C50 1.375 . S
C52 C54 1.382 . S
C52 H56 0.950 . S
H53 C48 0.949 . S
C54 C49 1.399 . S
C54 C52 1.382 . S
C54 H55 0.952 . S
H55 C54 0.952 . S
H56 C52 0.950 . S
H57 C58 0.949 . S
C58 H57 0.949 . S
C58 C59 1.395 . S
C58 C60 1.391 . S
C59 C58 1.395 . S
C59 C62 1.390 . S
C60 C58 1.391 . S
C60 C64 1.387 . S
C60 C65 1.491 . S
H61 C62 0.950 . S
C62 C59 1.390 . S
C62 H61 0.950 . S
C62 C63 1.378 . S
C63 C62 1.378 . S
C63 C64 1.409 . S
C64 C60 1.387 . S
C64 C63 1.409 . S
C64 H66 0.951 . S
C65 C60 1.491 . S
C65 C67 1.382 . S
C65 C69 1.404 . S
H66 C64 0.951 . S
C67 C65 1.382 . S
C67 C68 1.390 . S
C67 H72 0.949 . S
C68 C67 1.390 . S
C68 C73 1.399 . S
C69 C65 1.404 . S
C69 H70 0.950 . S
C69 C71 1.375 . S
H70 C69 0.950 . S
C71 C69 1.375 . S
C71 C73 1.382 . S
C71 H75 0.950 . S
H72 C67 0.949 . S
C73 C68 1.399 . S
C73 C71 1.382 . S
C73 H74 0.952 . S
H74 C73 0.952 . S
H75 C71 0.950 . S
H76 C77 0.949 . S
C77 H76 0.949 . S
C77 C78 1.395 . S
C77 C79 1.391 1_554 S
C78 C77 1.395 . S
C78 C81 1.390 1_554 S
C79 C77 1.391 1_556 S
C79 C83 1.387 . S
C79 C84 1.491 . S
H80 C81 0.950 . S
C81 C78 1.390 1_556 S
C81 H80 0.950 . S
C81 C82 1.378 . S
C82 C81 1.378 . S
C82 C83 1.409 . S
C83 C79 1.387 . S
C83 C82 1.409 . S
C83 H85 0.951 . S
C84 C79 1.491 . S
C84 C86 1.382 1_556 S
C84 C88 1.404 . S
H85 C83 0.951 . S
C86 C84 1.382 1_554 S
C86 C87 1.390 . S
C86 H91 0.949 . S
C87 C86 1.390 . S
C87 C92 1.399 1_554 S
C88 C84 1.404 . S
C88 H89 0.950 . S
C88 C90 1.375 . S
H89 C88 0.950 . S
C90 C88 1.375 . S
C90 C92 1.382 . S
C90 H94 0.950 . S
H91 C86 0.949 . S
C92 C87 1.399 1_556 S
C92 C90 1.382 . S
C92 H93 0.952 . S
H93 C92 0.952 . S
H94 C90 0.950 . S
H95 C96 0.949 . S
C96 H95 0.949 . S
C96 C97 1.395 . S
C96 C98 1.391 1_554 S
C97 C96 1.395 . S
C97 C100 1.390 1_554 S
C98 C96 1.391 1_556 S
C98 C102 1.387 . S
C98 C103 1.491 . S
H99 C100 0.950 . S
C100 C97 1.390 1_556 S
C100 H99 0.950 . S
C100 C101 1.378 . S
C101 C100 1.378 . S
C101 C102 1.409 . S
C102 C98 1.387 . S
C102 C101 1.409 . S
C102 H104 0.951 . S
C103 C98 1.491 . S
C103 C105 1.382 1_556 S
C103 C107 1.404 . S
H104 C102 0.951 . S
C105 C103 1.382 1_554 S
C105 C106 1.390 . S
C105 H110 0.949 . S
C106 C105 1.390 . S
C106 C111 1.399 1_554 S
C107 C103 1.404 . S
C107 H108 0.950 . S
C107 C109 1.375 . S
H108 C107 0.950 . S
C109 C107 1.375 . S
C109 C111 1.382 . S
C109 H113 0.950 . S
H110 C105 0.949 . S
C111 C106 1.399 1_556 S
C111 C109 1.382 . S
C111 H112 0.952 . S
H112 C111 0.952 . S
H113 C109 0.950 . S
H114 C115 0.949 . S
C115 H114 0.949 . S
C115 C116 1.395 . S
C115 C117 1.391 1_554 S
C116 C115 1.395 . S
C116 C119 1.390 1_554 S
C117 C115 1.391 1_556 S
C117 C121 1.387 . S
C117 C122 1.491 . S
H118 C119 0.950 . S
C119 C116 1.390 1_556 S
C119 H118 0.950 . S
C119 C120 1.378 . S
C120 C119 1.378 . S
C120 C121 1.409 . S
C121 C117 1.387 . S
C121 C120 1.409 . S
C121 H123 0.951 . S
C122 C117 1.491 . S
C122 C124 1.382 1_556 S
C122 C126 1.404 . S
H123 C121 0.951 . S
C124 C122 1.382 1_554 S
C124 C125 1.390 . S
C124 H129 0.949 . S
C125 C124 1.390 . S
C125 C130 1.399 1_554 S
C126 C122 1.404 . S
C126 H127 0.950 . S
C126 C128 1.375 . S
H127 C126 0.950 . S
C128 C126 1.375 . S
C128 C130 1.382 . S
C128 H132 0.950 . S
H129 C124 0.949 . S
C130 C125 1.399 1_556 S
C130 C128 1.382 . S
C130 H131 0.952 . S
H131 C130 0.952 . S
H132 C128 0.950 . S
H133 C134 0.949 . S
C134 H133 0.949 . S
C134 C135 1.395 . S
C134 C136 1.391 1_554 S
C135 C134 1.395 . S
C135 C138 1.390 1_554 S
C136 C134 1.391 1_556 S
C136 C140 1.387 . S
C136 C141 1.491 . S
H137 C138 0.950 . S
C138 C135 1.390 1_556 S
C138 H137 0.950 . S
C138 C139 1.378 . S
C139 C138 1.378 . S
C139 C140 1.409 . S
C140 C136 1.387 . S
C140 C139 1.409 . S
C140 H142 0.951 . S
C141 C136 1.491 . S
C141 C143 1.382 1_556 S
C141 C145 1.404 . S
H142 C140 0.951 . S
C143 C141 1.382 1_554 S
C143 C144 1.390 . S
C143 H148 0.949 . S
C144 C143 1.390 . S
C144 C149 1.399 1_554 S
C145 C141 1.404 . S
C145 H146 0.950 . S
C145 C147 1.375 . S
H146 C145 0.950 . S
C147 C145 1.375 . S
C147 C149 1.382 . S
C147 H151 0.950 . S
H148 C143 0.949 . S
C149 C144 1.399 1_556 S
C149 C147 1.382 . S
C149 H150 0.952 . S
H150 C149 0.952 . S
H151 C147 0.950 . S
Tb152 N183 2.660 1_565 S
Tb152 N190 2.600 1_565 S
Tb152 O196 2.546 . S
Tb152 O197 2.610 1_455 S
Tb152 O199 2.321 1_455 S
Tb152 O200 2.552 . S
Tb152 O201 2.413 . S
Tb152 O203 2.362 1_565 S
Tb152 O204 2.427 . S
Tb152 C216 2.833 . S
C153 C156 1.432 1_545 S
C153 C157 1.414 . S
C153 N160 1.359 . S
C154 C156 1.417 . S
C154 C158 1.432 . S
C154 C166 1.410 . S
C155 C157 1.444 1_565 S
C155 C158 1.317 . S
C155 H178 0.929 . S
C156 C153 1.432 1_565 S
C156 C154 1.417 . S
C156 N164 1.360 1_565 S
C157 C153 1.414 . S
C157 C155 1.444 1_545 S
C157 C162 1.385 . S
C158 C154 1.432 . S
C158 C155 1.317 . S
C158 H170 0.930 . S
C159 C161 1.392 . S
C159 C162 1.370 . S
C159 H171 0.931 . S
N160 C153 1.359 . S
N160 C161 1.327 . S
N160 Tb163 2.600 . S
C161 C159 1.392 . S
C161 N160 1.327 . S
C161 H168 0.930 . S
C162 C157 1.385 . S
C162 C159 1.370 . S
C162 H181 0.930 . S
Tb163 N160 2.600 . S
Tb163 N164 2.660 . S
Tb163 O197 2.362 1_545 S
Tb163 O198 2.421 . S
Tb163 O202 2.546 . S
Tb163 O203 2.610 1_655 S
Tb163 O205 2.320 1_655 S
Tb163 O206 2.552 1_655 S
Tb163 O207 2.416 . S
Tb163 C227 2.833 . S
N164 C156 1.360 1_545 S
N164 Tb163 2.660 . S
N164 C165 1.305 1_645 S
C165 N164 1.305 1_465 S
C165 C167 1.407 . S
C165 H172 0.930 . S
C166 C154 1.410 . S
C166 C167 1.345 1_655 S
C166 H174 0.930 . S
C167 C165 1.407 . S
C167 C166 1.345 1_455 S
C167 H169 0.930 . S
H168 C161 0.930 . S
H169 C167 0.930 . S
H170 C158 0.930 . S
H171 C159 0.931 . S
H172 C165 0.930 . S
H173 C187 0.928 1_654 S
H174 C166 0.930 . S
H175 C193 0.930 . S
H176 C184 0.930 1_655 S
H177 C191 0.931 . S
H178 C155 0.929 . S
H179 C185 0.930 . S
H180 C218 0.930 . S
H181 C162 0.930 . S
H182 C217 0.929 . S
N183 Tb152 2.660 1_545 S
N183 C184 1.305 . S
N183 C188 1.360 . S
C184 H176 0.930 1_455 S
C184 N183 1.305 . S
C184 C187 1.412 . S
C185 H179 0.930 . S
C185 C186 1.410 . S
C185 C187 1.342 1_554 S
C186 C185 1.410 . S
C186 C188 1.417 1_554 S
C186 C218 1.432 . S
C187 H173 0.928 1_456 S
C187 C184 1.412 . S
C187 C185 1.342 1_556 S
C188 N183 1.360 . S
C188 C186 1.417 1_556 S
C188 C192 1.432 . S
H189 C194 0.930 . S
N190 Tb152 2.600 1_545 S
N190 C192 1.359 . S
N190 C193 1.327 1_545 S
C191 H177 0.931 . S
C191 C193 1.392 . S
C191 C194 1.370 1_565 S
C192 C188 1.432 . S
C192 N190 1.359 . S
C192 C195 1.414 . S
C193 H175 0.930 . S
C193 N190 1.327 1_565 S
C193 C191 1.392 . S
C194 H189 0.930 . S
C194 C191 1.370 1_545 S
C194 C195 1.385 . S
C195 C192 1.414 . S
C195 C194 1.385 . S
C195 C217 1.444 1_556 S
O196 Tb152 2.546 . S
O196 C216 1.251 . S
O197 Tb152 2.610 1_655 S
O197 Tb163 2.362 1_565 S
O197 C208 1.283 . S
O198 Tb163 2.421 . S
O198 C215 1.262 . S
O199 Tb152 2.321 1_655 S
O199 C215 1.258 1_565 S
O200 Tb152 2.552 . S
O200 C208 1.243 1_455 S
O201 Tb152 2.413 . S
O201 C216 1.256 . S
O202 Tb163 2.546 . S
O202 C227 1.251 . S
O203 Tb152 2.362 1_545 S
O203 Tb163 2.610 1_455 S
O203 C219 1.283 . S
O204 Tb152 2.427 . S
O204 C226 1.236 1_565 S
O205 Tb163 2.320 1_455 S
O205 C226 1.260 . S
O206 Tb163 2.552 1_455 S
O206 C219 1.243 . S
O207 Tb163 2.416 . S
O207 C227 1.267 . S
C208 O197 1.283 . S
C208 O200 1.243 1_655 S
C209 C211 1.382 . S
C209 C213 1.393 . S
C209 C216 1.500 . S
C210 C211 1.400 . S
C210 C212 1.384 1_556 S
C211 C209 1.382 . S
C211 C210 1.400 . S
C211 H228 0.930 1_455 S
C212 C210 1.384 1_554 S
C212 C214 1.392 1_554 S
C212 H229 0.931 . S
C213 C209 1.393 . S
C213 C214 1.401 . S
C213 H230 0.930 . S
C214 C212 1.392 1_556 S
C214 C213 1.401 . S
C214 H231 0.930 . S
C215 O198 1.262 . S
C215 O199 1.258 1_545 S
C216 Tb152 2.833 . S
C216 O196 1.251 . S
C216 O201 1.256 . S
C216 C209 1.500 . S
C217 H182 0.929 . S
C217 C195 1.444 1_554 S
C217 C218 1.317 . S
C218 H180 0.930 . S
C218 C186 1.432 . S
C218 C217 1.317 . S
C219 O203 1.283 . S
C219 O206 1.243 . S
C220 C221 1.380 1_655 S
C220 C224 1.393 . S
C220 C227 1.500 . S
C221 C220 1.380 1_455 S
C221 C222 1.400 1_455 S
C221 H232 0.933 . S
C222 C221 1.400 1_655 S
C222 C223 1.384 . S
C223 C222 1.384 . S
C223 C225 1.392 . S
C223 H233 0.931 . S
C224 C220 1.393 . S
C224 C225 1.401 . S
C224 H234 0.930 . S
C225 C223 1.392 . S
C225 C224 1.401 . S
C225 H235 0.930 . S
C226 O204 1.236 1_545 S
C226 O205 1.260 . S
C227 Tb163 2.833 . S
C227 O202 1.251 . S
C227 O207 1.267 . S
C227 C220 1.500 . S
H228 C211 0.930 1_655 S
H229 C212 0.931 . S
H230 C213 0.930 . S
H231 C214 0.930 . S
H232 C221 0.933 . S
H233 C223 0.931 . S
H234 C224 0.930 . S
H235 C225 0.930 . S
Tb236 N267 2.660 . S
Tb236 N274 2.600 . S
Tb236 O280 2.546 . S
Tb236 O281 2.628 . S
Tb236 O283 2.320 1_545 S
Tb236 O284 2.552 . S
Tb236 O285 2.413 . S
Tb236 O287 2.362 . S
Tb236 O288 2.421 . S
Tb236 C300 2.833 . S
C237 C240 1.432 . S
C237 C241 1.414 . S
C237 N244 1.359 . S
C238 C240 1.417 . S
C238 C242 1.432 . S
C238 C250 1.410 . S
C239 C241 1.444 . S
C239 C242 1.317 . S
C239 H262 0.929 . S
C240 C237 1.432 . S
C240 C238 1.417 . S
C240 N248 1.360 . S
C241 C237 1.414 . S
C241 C239 1.444 . S
C241 C246 1.385 . S
C242 C238 1.432 . S
C242 C239 1.317 . S
C242 H254 0.930 . S
C243 C245 1.392 . S
C243 C246 1.370 . S
C243 H255 0.931 . S
N244 C237 1.359 . S
N244 C245 1.327 . S
N244 Tb247 2.600 . S
C245 C243 1.392 . S
C245 N244 1.327 . S
C245 H252 0.930 . S
C246 C241 1.385 . S
C246 C243 1.370 . S
C246 H265 0.930 . S
Tb247 N244 2.600 . S
Tb247 N248 2.660 . S
Tb247 O281 2.357 1_565 S
Tb247 O282 2.421 . S
Tb247 O286 2.546 . S
Tb247 O287 2.610 1_565 S
Tb247 O289 2.320 1_565 S
Tb247 O290 2.552 1_565 S
Tb247 O291 2.413 1_565 S
Tb247 C311 2.833 . S
N248 C240 1.360 . S
N248 Tb247 2.660 . S
N248 C249 1.305 1_565 S
C249 N248 1.305 1_545 S
C249 C251 1.407 . S
C249 H256 0.930 . S
C250 C238 1.410 . S
C250 C251 1.345 1_565 S
C250 H258 0.930 . S
C251 C249 1.407 . S
C251 C250 1.345 1_545 S
C251 H253 0.930 . S
H252 C245 0.930 . S
H253 C251 0.930 . S
H254 C242 0.930 . S
H255 C243 0.931 . S
H256 C249 0.930 . S
H257 C271 0.926 1_564 S
H258 C250 0.930 . S
H259 C277 0.930 . S
H260 C268 0.930 1_565 S
H261 C275 0.931 . S
H262 C239 0.929 . S
H263 C269 0.930 . S
H264 C302 0.930 . S
H265 C246 0.930 . S
H266 C301 0.929 . S
N267 Tb236 2.660 . S
N267 C268 1.305 . S
N267 C272 1.360 . S
C268 H260 0.930 1_545 S
C268 N267 1.305 . S
C268 C271 1.417 . S
C269 H263 0.930 . S
C269 C270 1.410 . S
C269 C271 1.340 1_554 S
C270 C269 1.410 . S
C270 C272 1.417 1_554 S
C270 C302 1.432 . S
C271 H257 0.926 1_546 S
C271 C268 1.417 . S
C271 C269 1.340 1_556 S
C272 N267 1.360 . S
C272 C270 1.417 1_556 S
C272 C276 1.432 . S
H273 C278 0.930 . S
N274 Tb236 2.600 . S
N274 C276 1.359 . S
N274 C277 1.327 . S
C275 H261 0.931 . S
C275 C277 1.392 . S
C275 C278 1.370 . S
C276 C272 1.432 . S
C276 N274 1.359 . S
C276 C279 1.414 . S
C277 H259 0.930 . S
C277 N274 1.327 . S
C277 C275 1.392 . S
C278 H273 0.930 . S
C278 C275 1.370 . S
C278 C279 1.385 . S
C279 C276 1.414 . S
C279 C278 1.385 . S
C279 C301 1.444 1_556 S
O280 Tb236 2.546 . S
O280 C300 1.251 . S
O281 Tb236 2.628 . S
O281 Tb247 2.357 1_545 S
O281 C292 1.284 . S
O282 Tb247 2.421 . S
O282 C299 1.262 . S
O283 Tb236 2.320 1_565 S
O283 C299 1.260 . S
O284 Tb236 2.552 . S
O284 C292 1.243 . S
O285 Tb236 2.413 . S
O285 C300 1.256 . S
O286 Tb247 2.546 . S
O286 C311 1.251 . S
O287 Tb236 2.362 . S
O287 Tb247 2.610 1_545 S
O287 C303 1.283 . S
O288 Tb236 2.421 . S
O288 C310 1.262 . S
O289 Tb247 2.320 1_545 S
O289 C310 1.260 . S
O290 Tb247 2.552 1_545 S
O290 C303 1.243 . S
O291 Tb247 2.413 1_545 S
O291 C311 1.256 1_545 S
C292 O281 1.284 . S
C292 O284 1.243 . S
C293 C295 1.382 . S
C293 C297 1.393 . S
C293 C300 1.500 . S
C294 C295 1.400 . S
C294 C296 1.384 1_556 S
C295 C293 1.382 . S
C295 C294 1.400 . S
C295 H312 0.930 . S
C296 C294 1.384 1_554 S
C296 C298 1.392 1_554 S
C296 H313 0.931 . S
C297 C293 1.393 . S
C297 C298 1.401 . S
C297 H314 0.930 . S
C298 C296 1.392 1_556 S
C298 C297 1.401 . S
C298 H315 0.930 . S
C299 O282 1.262 . S
C299 O283 1.260 . S
C300 Tb236 2.833 . S
C300 O280 1.251 . S
C300 O285 1.256 . S
C300 C293 1.500 . S
C301 H266 0.929 . S
C301 C279 1.444 1_554 S
C301 C302 1.317 . S
C302 H264 0.930 . S
C302 C270 1.432 . S
C302 C301 1.317 . S
C303 O287 1.283 . S
C303 O290 1.243 . S
C304 C305 1.382 1_565 S
C304 C308 1.393 . S
C304 C311 1.500 . S
C305 C304 1.382 1_545 S
C305 C306 1.404 . S
C305 H316 0.930 . S
C306 C305 1.404 . S
C306 C307 1.346 1_545 S
C307 C306 1.346 1_565 S
C307 C309 1.392 . S
C307 H317 0.931 . S
C308 C304 1.393 . S
C308 C309 1.401 . S
C308 H318 0.930 . S
C309 C307 1.392 . S
C309 C308 1.401 . S
C309 H319 0.930 . S
C310 O288 1.262 . S
C310 O289 1.260 . S
C311 Tb247 2.833 . S
C311 O286 1.251 . S
C311 O291 1.256 1_565 S
C311 C304 1.500 . S
H312 C295 0.930 . S
H313 C296 0.931 . S
H314 C297 0.930 . S
H315 C298 0.930 . S
H316 C305 0.930 . S
H317 C307 0.931 . S
H318 C308 0.930 . S
H319 C309 0.930 . S
Tb320 N351 2.660 . S
Tb320 N358 2.600 . S
Tb320 O364 2.546 . S
Tb320 O365 2.610 . S
Tb320 O367 2.320 . S
Tb320 O368 2.552 . S
Tb320 O369 2.413 . S
Tb320 O371 2.362 . S
Tb320 O372 2.421 . S
Tb320 C384 2.833 . S
C321 C324 1.432 . S
C321 C325 1.414 . S
C321 N328 1.359 . S
C322 C324 1.417 . S
C322 C326 1.432 . S
C322 C334 1.410 . S
C323 C325 1.444 . S
C323 C326 1.317 . S
C323 H346 0.929 . S
C324 C321 1.432 . S
C324 C322 1.417 . S
C324 N332 1.360 . S
C325 C321 1.414 . S
C325 C323 1.444 . S
C325 C330 1.385 . S
C326 C322 1.432 . S
C326 C323 1.317 . S
C326 H338 0.930 . S
C327 C329 1.392 . S
C327 C330 1.370 . S
C327 H339 0.931 . S
N328 C321 1.359 . S
N328 C329 1.327 . S
N328 Tb331 2.600 . S
C329 C327 1.392 . S
C329 N328 1.327 . S
C329 H336 0.930 . S
C330 C325 1.385 . S
C330 C327 1.370 . S
C330 H349 0.930 . S
Tb331 N328 2.600 . S
Tb331 N332 2.660 . S
Tb331 O365 2.362 . S
Tb331 O366 2.421 . S
Tb331 O370 2.546 . S
Tb331 O371 2.610 . S
Tb331 O373 2.320 . S
Tb331 O374 2.552 . S
Tb331 O375 2.413 . S
Tb331 C395 2.833 . S
N332 C324 1.360 . S
N332 Tb331 2.660 . S
N332 C333 1.305 . S
C333 N332 1.305 . S
C333 C335 1.407 . S
C333 H340 0.930 . S
C334 C322 1.410 . S
C334 C335 1.345 . S
C334 H342 0.930 . S
C335 C333 1.407 . S
C335 C334 1.345 . S
C335 H337 0.930 . S
H336 C329 0.930 . S
H337 C335 0.930 . S
H338 C326 0.930 . S
H339 C327 0.931 . S
H340 C333 0.930 . S
H341 C355 0.930 . S
H342 C334 0.930 . S
H343 C361 0.930 . S
H344 C352 0.930 . S
H345 C359 0.931 . S
H346 C323 0.929 . S
H347 C353 0.930 . S
H348 C386 0.930 . S
H349 C330 0.930 . S
H350 C385 0.929 . S
N351 Tb320 2.660 . S
N351 C352 1.305 . S
N351 C356 1.360 . S
C352 H344 0.930 . S
C352 N351 1.305 . S
C352 C355 1.407 . S
C353 H347 0.930 . S
C353 C354 1.410 . S
C353 C355 1.345 . S
C354 C353 1.410 . S
C354 C356 1.417 . S
C354 C386 1.432 . S
C355 H341 0.930 . S
C355 C352 1.407 . S
C355 C353 1.345 . S
C356 N351 1.360 . S
C356 C354 1.417 . S
C356 C360 1.432 . S
H357 C362 0.930 . S
N358 Tb320 2.600 . S
N358 C360 1.359 . S
N358 C361 1.327 . S
C359 H345 0.931 . S
C359 C361 1.392 . S
C359 C362 1.370 . S
C360 C356 1.432 . S
C360 N358 1.359 . S
C360 C363 1.414 . S
C361 H343 0.930 . S
C361 N358 1.327 . S
C361 C359 1.392 . S
C362 H357 0.930 . S
C362 C359 1.370 . S
C362 C363 1.385 . S
C363 C360 1.414 . S
C363 C362 1.385 . S
C363 C385 1.444 . S
O364 Tb320 2.546 . S
O364 C384 1.251 . S
O365 Tb320 2.610 . S
O365 Tb331 2.362 . S
O365 C376 1.283 . S
O366 Tb331 2.421 . S
O366 C383 1.262 . S
O367 Tb320 2.320 . S
O367 C383 1.260 . S
O368 Tb320 2.552 . S
O368 C376 1.243 . S
O369 Tb320 2.413 . S
O369 C384 1.256 . S
O370 Tb331 2.546 . S
O370 C395 1.251 . S
O371 Tb320 2.362 . S
O371 Tb331 2.610 . S
O371 C387 1.283 . S
O372 Tb320 2.421 . S
O372 C394 1.262 . S
O373 Tb331 2.320 . S
O373 C394 1.260 . S
O374 Tb331 2.552 . S
O374 C387 1.243 . S
O375 Tb331 2.413 . S
O375 C395 1.256 . S
C376 O365 1.283 . S
C376 O368 1.243 . S
C377 C379 1.382 . S
C377 C381 1.393 . S
C377 C384 1.500 . S
C378 C379 1.400 . S
C378 C380 1.384 . S
C379 C377 1.382 . S
C379 C378 1.400 . S
C379 H396 0.930 . S
C380 C378 1.384 . S
C380 C382 1.392 . S
C380 H397 0.931 . S
C381 C377 1.393 . S
C381 C382 1.401 . S
C381 H398 0.930 . S
C382 C380 1.392 . S
C382 C381 1.401 . S
C382 H399 0.930 . S
C383 O366 1.262 . S
C383 O367 1.260 . S
C384 Tb320 2.833 . S
C384 O364 1.251 . S
C384 O369 1.256 . S
C384 C377 1.500 . S
C385 H350 0.929 . S
C385 C363 1.444 . S
C385 C386 1.317 . S
C386 H348 0.930 . S
C386 C354 1.432 . S
C386 C385 1.317 . S
C387 O371 1.283 . S
C387 O374 1.243 . S
C388 C389 1.382 . S
C388 C392 1.393 1_556 S
C388 C395 1.500 . S
C389 C388 1.382 . S
C389 C390 1.400 1_556 S
C389 H400 0.930 . S
C390 C389 1.400 1_554 S
C390 C391 1.384 . S
C391 C390 1.384 . S
C391 C393 1.392 . S
C391 H401 0.931 . S
C392 C388 1.393 1_554 S
C392 C393 1.401 . S
C392 H402 0.930 . S
C393 C391 1.392 . S
C393 C392 1.401 . S
C393 H403 0.930 . S
C394 O372 1.262 . S
C394 O373 1.260 . S
C395 Tb331 2.833 . S
C395 O370 1.251 . S
C395 O375 1.256 . S
C395 C388 1.500 . S
H396 C379 0.930 . S
H397 C380 0.931 . S
H398 C381 0.930 . S
H399 C382 0.930 . S
H400 C389 0.930 . S
H401 C391 0.931 . S
H402 C392 0.930 . S
H403 C393 0.930 . S
Tb404 N435 2.660 . S
Tb404 N442 2.600 . S
Tb404 O448 2.546 . S
Tb404 O449 2.610 . S
Tb404 O451 2.320 . S
Tb404 O452 2.552 . S
Tb404 O453 2.413 . S
Tb404 O455 2.362 . S
Tb404 O456 2.421 1_455 S
Tb404 C468 2.833 . S
C405 C408 1.432 . S
C405 C409 1.414 . S
C405 N412 1.359 . S
C406 C408 1.417 . S
C406 C410 1.432 . S
C406 C418 1.410 . S
C407 C409 1.444 . S
C407 C410 1.317 . S
C407 H430 0.929 . S
C408 C405 1.432 . S
C408 C406 1.417 . S
C408 N416 1.360 . S
C409 C405 1.414 . S
C409 C407 1.444 . S
C409 C414 1.385 1_655 S
C410 C406 1.432 . S
C410 C407 1.317 . S
C410 H422 0.930 . S
C411 C413 1.392 . S
C411 C414 1.370 . S
C411 H423 0.931 . S
N412 C405 1.359 . S
N412 C413 1.327 1_655 S
N412 Tb415 2.600 . S
C413 C411 1.392 . S
C413 N412 1.327 1_455 S
C413 H420 0.930 . S
C414 C409 1.385 1_455 S
C414 C411 1.370 . S
C414 H433 0.930 . S
Tb415 N412 2.600 . S
Tb415 N416 2.660 . S
Tb415 O449 2.362 1_655 S
Tb415 O450 2.421 1_655 S
Tb415 O454 2.546 . S
Tb415 O455 2.610 1_655 S
Tb415 O457 2.320 . S
Tb415 O458 2.552 . S
Tb415 O459 2.413 . S
Tb415 C479 2.833 . S
N416 C408 1.360 . S
N416 Tb415 2.660 . S
N416 C417 1.305 . S
C417 N416 1.305 . S
C417 C419 1.407 . S
C417 H424 0.930 . S
C418 C406 1.410 . S
C418 C419 1.345 . S
C418 H426 0.930 . S
C419 C417 1.407 . S
C419 C418 1.345 . S
C419 H421 0.930 . S
H420 C413 0.930 . S
H421 C419 0.930 . S
H422 C410 0.930 . S
H423 C411 0.931 . S
H424 C417 0.930 . S
H425 C439 0.930 . S
H426 C418 0.930 . S
H427 C445 0.930 1_655 S
H428 C436 0.930 . S
H429 C443 0.931 . S
H430 C407 0.929 . S
H431 C437 0.930 . S
H432 C470 0.930 . S
H433 C414 0.930 . S
H434 C469 0.929 . S
N435 Tb404 2.660 . S
N435 C436 1.305 . S
N435 C440 1.360 . S
C436 H428 0.930 . S
C436 N435 1.305 . S
C436 C439 1.407 . S
C437 H431 0.930 . S
C437 C438 1.410 . S
C437 C439 1.345 . S
C438 C437 1.410 . S
C438 C440 1.417 . S
C438 C470 1.432 . S
C439 H425 0.930 . S
C439 C436 1.407 . S
C439 C437 1.345 . S
C440 N435 1.360 . S
C440 C438 1.417 . S
C440 C444 1.432 . S
H441 C446 0.930 . S
N442 Tb404 2.600 . S
N442 C444 1.359 . S
N442 C445 1.327 . S
C443 H429 0.931 . S
C443 C445 1.392 1_655 S
C443 C446 1.370 1_655 S
C444 C440 1.432 . S
C444 N442 1.359 . S
C444 C447 1.414 . S
C445 H427 0.930 1_455 S
C445 N442 1.327 . S
C445 C443 1.392 1_455 S
C446 H441 0.930 . S
C446 C443 1.370 1_455 S
C446 C447 1.385 . S
C447 C444 1.414 . S
C447 C446 1.385 . S
C447 C469 1.444 . S
O448 Tb404 2.546 . S
O448 C468 1.251 . S
O449 Tb404 2.610 . S
O449 Tb415 2.362 1_455 S
O449 C460 1.283 . S
O450 Tb415 2.421 1_455 S
O450 C467 1.262 . S
O451 Tb404 2.320 . S
O451 C467 1.260 . S
O452 Tb404 2.552 . S
O452 C460 1.243 . S
O453 Tb404 2.413 . S
O453 C468 1.256 . S
O454 Tb415 2.546 . S
O454 C479 1.251 . S
O455 Tb404 2.362 . S
O455 Tb415 2.610 1_455 S
O455 C471 1.283 1_455 S
O456 Tb404 2.421 1_655 S
O456 C478 1.262 . S
O457 Tb415 2.320 . S
O457 C478 1.260 . S
O458 Tb415 2.552 . S
O458 C471 1.243 . S
O459 Tb415 2.413 . S
O459 C479 1.256 . S
C460 O449 1.283 . S
C460 O452 1.243 . S
C461 C463 1.382 . S
C461 C465 1.393 . S
C461 C468 1.500 . S
C462 C463 1.400 . S
C462 C464 1.384 . S
C463 C461 1.382 . S
C463 C462 1.400 . S
C463 H480 0.930 . S
C464 C462 1.384 . S
C464 C466 1.392 . S
C464 H481 0.931 . S
C465 C461 1.393 . S
C465 C466 1.401 . S
C465 H482 0.930 . S
C466 C464 1.392 . S
C466 C465 1.401 . S
C466 H483 0.930 . S
C467 O450 1.262 . S
C467 O451 1.260 . S
C468 Tb404 2.833 . S
C468 O448 1.251 . S
C468 O453 1.256 . S
C468 C461 1.500 . S
C469 H434 0.929 . S
C469 C447 1.444 . S
C469 C470 1.317 . S
C470 H432 0.930 . S
C470 C438 1.432 . S
C470 C469 1.317 . S
C471 O455 1.283 1_655 S
C471 O458 1.243 . S
C472 C473 1.382 . S
C472 C476 1.393 1_556 S
C472 C479 1.500 . S
C473 C472 1.382 . S
C473 C474 1.400 1_556 S
C473 H484 0.930 . S
C474 C473 1.400 1_554 S
C474 C475 1.384 . S
C475 C474 1.384 . S
C475 C477 1.392 . S
C475 H485 0.931 . S
C476 C472 1.393 1_554 S
C476 C477 1.401 . S
C476 H486 0.930 . S
C477 C475 1.392 . S
C477 C476 1.401 . S
C477 H487 0.930 . S
C478 O456 1.262 . S
C478 O457 1.260 . S
C479 Tb415 2.833 . S
C479 O454 1.251 . S
C479 O459 1.256 . S
C479 C472 1.500 . S
H480 C463 0.930 . S
H481 C464 0.931 . S
H482 C465 0.930 . S
H483 C466 0.930 . S
H484 C473 0.930 . S
H485 C475 0.931 . S
H486 C476 0.930 . S
H487 C477 0.930 . S
H488 C496 0.950 . S
H489 C501 0.950 . S
H490 C498 0.950 . S
H491 C500 0.950 . S
H492 C502 0.950 . S
H493 C504 0.950 . S
H494 C506 0.950 . S
H495 C507 0.950 . S
C496 H488 0.950 . S
C496 C497 1.386 . S
C496 C498 1.391 . S
C497 C496 1.386 . S
C497 C501 1.393 . S
C498 H490 0.950 . S
C498 C496 1.391 . S
C498 C499 1.400 . S
C499 C498 1.400 . S
C499 C500 1.398 . S
C499 C505 1.491 . S
C500 H491 0.950 . S
C500 C499 1.398 . S
C500 C501 1.391 . S
C501 H489 0.950 . S
C501 C497 1.393 . S
C501 C500 1.391 . S
C502 H492 0.950 . S
C502 C503 1.386 . S
C502 C504 1.391 . S
C503 C502 1.386 . S
C503 C507 1.393 . S
C504 H493 0.950 . S
C504 C502 1.391 . S
C504 C505 1.400 . S
C505 C499 1.491 . S
C505 C504 1.400 . S
C505 C506 1.398 . S
C506 H494 0.950 . S
C506 C505 1.398 . S
C506 C507 1.391 . S
C507 H495 0.950 . S
C507 C503 1.393 . S
C507 C506 1.391 . S
H508 C516 0.950 . S
H509 C521 0.950 . S
H510 C518 0.950 . S
H511 C520 0.950 . S
H512 C522 0.950 . S
H513 C524 0.950 . S
H514 C526 0.950 . S
H515 C527 0.950 . S
C516 H508 0.950 . S
C516 C517 1.386 . S
C516 C518 1.391 . S
C517 C516 1.386 . S
C517 C521 1.393 . S
C518 H510 0.950 . S
C518 C516 1.391 . S
C518 C519 1.400 . S
C519 C518 1.400 . S
C519 C520 1.398 . S
C519 C525 1.491 . S
C520 H511 0.950 . S
C520 C519 1.398 . S
C520 C521 1.391 . S
C521 H509 0.950 . S
C521 C517 1.393 . S
C521 C520 1.391 . S
C522 H512 0.950 . S
C522 C523 1.386 . S
C522 C524 1.391 . S
C523 C522 1.386 . S
C523 C527 1.393 . S
C524 H513 0.950 . S
C524 C522 1.391 . S
C524 C525 1.400 . S
C525 C519 1.491 . S
C525 C524 1.400 . S
C525 C526 1.398 . S
C526 H514 0.950 . S
C526 C525 1.398 . S
C526 C527 1.391 . S
C527 H515 0.950 . S
C527 C523 1.393 . S
C527 C526 1.391 . S
H528 C536 0.950 . S
H529 C541 0.950 . S
H530 C538 0.950 . S
H531 C540 0.950 . S
H532 C542 0.950 . S
H533 C544 0.950 . S
H534 C546 0.950 . S
H535 C547 0.950 . S
C536 H528 0.950 . S
C536 C537 1.386 . S
C536 C538 1.391 . S
C537 C536 1.386 . S
C537 C541 1.393 . S
C538 H530 0.950 . S
C538 C536 1.391 . S
C538 C539 1.400 . S
C539 C538 1.400 . S
C539 C540 1.398 . S
C539 C545 1.491 . S
C540 H531 0.950 . S
C540 C539 1.398 . S
C540 C541 1.391 . S
C541 H529 0.950 . S
C541 C537 1.393 . S
C541 C540 1.391 . S
C542 H532 0.950 . S
C542 C543 1.386 . S
C542 C544 1.391 . S
C543 C542 1.386 . S
C543 C547 1.393 . S
C544 H533 0.950 . S
C544 C542 1.391 . S
C544 C545 1.400 . S
C545 C539 1.491 . S
C545 C544 1.400 . S
C545 C546 1.398 . S
C546 H534 0.950 . S
C546 C545 1.398 . S
C546 C547 1.391 . S
C547 H535 0.950 . S
C547 C543 1.393 . S
C547 C546 1.391 . S
H548 C556 0.950 . S
H549 C561 0.950 . S
H550 C558 0.950 . S
H551 C560 0.950 . S
H552 C562 0.947 1_655 S
H553 C564 0.950 . S
H554 C566 0.950 . S
H555 C567 0.950 . S
C556 H548 0.950 . S
C556 C557 1.386 . S
C556 C558 1.391 . S
C557 C556 1.386 . S
C557 C561 1.393 . S
C558 H550 0.950 . S
C558 C556 1.391 . S
C558 C559 1.400 . S
C559 C558 1.400 . S
C559 C560 1.398 . S
C559 C565 1.491 . S
C560 H551 0.950 . S
C560 C559 1.398 . S
C560 C561 1.391 . S
C561 H549 0.950 . S
C561 C557 1.393 . S
C561 C560 1.391 . S
C562 H552 0.947 1_455 S
C562 C563 1.386 . S
C562 C564 1.391 . S
C563 C562 1.386 . S
C563 C567 1.393 . S
C564 H553 0.950 . S
C564 C562 1.391 . S
C564 C565 1.400 . S
C565 C559 1.491 . S
C565 C564 1.400 . S
C565 C566 1.398 . S
C566 H554 0.950 . S
C566 C565 1.398 . S
C566 C567 1.391 . S
C567 H555 0.950 . S
C567 C563 1.393 . S
C567 C566 1.391 . S
H568 C576 0.950 . S
H569 C581 0.950 . S
H570 C578 0.950 1_556 S
H571 C580 0.950 . S
H572 C582 0.950 . S
H573 C584 0.950 . S
H574 C586 0.950 1_545 S
H575 C587 0.950 . S
C576 H568 0.950 . S
C576 C577 1.386 . S
C576 C578 1.391 . S
C577 C576 1.386 . S
C577 C581 1.393 . S
C578 H570 0.950 1_554 S
C578 C576 1.391 . S
C578 C579 1.400 . S
C579 C578 1.400 . S
C579 C580 1.398 . S
C579 C585 1.491 1_554 S
C580 H571 0.950 . S
C580 C579 1.398 . S
C580 C581 1.391 . S
C581 H569 0.950 . S
C581 C577 1.393 . S
C581 C580 1.391 . S
C582 H572 0.950 . S
C582 C583 1.386 . S
C582 C584 1.391 . S
C583 C582 1.386 . S
C583 C587 1.393 1_565 S
C584 H573 0.950 . S
C584 C582 1.391 . S
C584 C585 1.400 . S
C585 C579 1.491 1_556 S
C585 C584 1.400 . S
C585 C586 1.398 . S
C586 H574 0.950 1_565 S
C586 C585 1.398 . S
C586 C587 1.391 1_565 S
C587 H575 0.950 . S
C587 C583 1.393 1_545 S
C587 C586 1.391 1_545 S
H588 C596 0.950 . S
H589 C601 0.950 . S
H590 C598 0.950 . S
H591 C600 0.950 . S
H592 C602 0.950 . S
H593 C604 0.950 . S
H594 C606 0.950 1_554 S
H595 C607 0.950 . S
C596 H588 0.950 . S
C596 C597 1.386 . S
C596 C598 1.391 . S
C597 C596 1.386 . S
C597 C601 1.393 . S
C598 H590 0.950 . S
C598 C596 1.391 . S
C598 C599 1.400 . S
C599 C598 1.400 . S
C599 C600 1.398 1_554 S
C599 C605 1.491 1_554 S
C600 H591 0.950 . S
C600 C599 1.398 1_556 S
C600 C601 1.391 1_556 S
C601 H589 0.950 . S
C601 C597 1.393 . S
C601 C600 1.391 1_554 S
C602 H592 0.950 . S
C602 C603 1.386 . S
C602 C604 1.391 . S
C603 C602 1.386 . S
C603 C607 1.393 . S
C604 H593 0.950 . S
C604 C602 1.391 . S
C604 C605 1.400 . S
C605 C599 1.491 1_556 S
C605 C604 1.400 . S
C605 C606 1.398 . S
C606 H594 0.950 1_556 S
C606 C605 1.398 . S
C606 C607 1.391 . S
C607 H595 0.950 . S
C607 C603 1.393 . S
C607 C606 1.391 . S
H608 C616 0.950 . S
H609 C621 0.950 . S
H610 C618 0.950 . S
H611 C620 0.950 . S
H612 C622 0.950 . S
H613 C624 0.950 . S
H614 C626 0.950 . S
H615 C627 0.950 . S
C616 H608 0.950 . S
C616 C617 1.386 . S
C616 C618 1.391 . S
C617 C616 1.386 . S
C617 C621 1.393 . S
C618 H610 0.950 . S
C618 C616 1.391 . S
C618 C619 1.400 . S
C619 C618 1.400 . S
C619 C620 1.398 . S
C619 C625 1.491 1_554 S
C620 H611 0.950 . S
C620 C619 1.398 . S
C620 C621 1.391 . S
C621 H609 0.950 . S
C621 C617 1.393 . S
C621 C620 1.391 . S
C622 H612 0.950 . S
C622 C623 1.386 . S
C622 C624 1.391 . S
C623 C622 1.386 . S
C623 C627 1.393 . S
C624 H613 0.950 . S
C624 C622 1.391 . S
C624 C625 1.400 . S
C625 C619 1.491 1_556 S
C625 C624 1.400 . S
C625 C626 1.398 . S
C626 H614 0.950 . S
C626 C625 1.398 . S
C626 C627 1.391 . S
C627 H615 0.950 . S
C627 C623 1.393 . S
C627 C626 1.391 . S
H628 C636 0.950 . S
H629 C641 0.950 . S
H630 C638 0.950 1_556 S
H631 C640 0.950 1_455 S
H632 C642 0.950 . S
H633 C644 0.934 1_455 S
H634 C646 0.950 . S
H635 C647 0.950 . S
C636 H628 0.950 . S
C636 C637 1.386 . S
C636 C638 1.391 . S
C637 C636 1.386 . S
C637 C641 1.393 . S
C638 H630 0.950 1_554 S
C638 C636 1.391 . S
C638 C639 1.400 . S
C639 C638 1.400 . S
C639 C640 1.398 . S
C639 C645 1.491 1_554 S
C640 H631 0.950 1_655 S
C640 C639 1.398 . S
C640 C641 1.391 . S
C641 H629 0.950 . S
C641 C637 1.393 . S
C641 C640 1.391 . S
C642 H632 0.950 . S
C642 C643 1.386 1_455 S
C642 C644 1.386 1_455 S
C643 C642 1.386 1_655 S
C643 C647 1.393 . S
C644 H633 0.934 1_655 S
C644 C642 1.386 1_655 S
C644 C645 1.421 . S
C645 C639 1.491 1_556 S
C645 C644 1.421 . S
C645 C646 1.398 . S
C646 H634 0.950 . S
C646 C645 1.398 . S
C646 C647 1.391 . S
C647 H635 0.950 . S
C647 C643 1.393 . S
C647 C646 1.391 . S
H648 C656 0.950 . S
H649 C661 0.950 . S
H650 C658 0.950 . S
H651 C660 0.950 . S
H652 C662 0.950 . S
H653 C664 0.950 . S
H654 C666 0.950 . S
H655 C667 0.950 1_655 S
C656 H648 0.950 . S
C656 C657 1.386 . S
C656 C658 1.391 . S
C657 C656 1.386 . S
C657 C661 1.393 . S
C658 H650 0.950 . S
C658 C656 1.391 . S
C658 C659 1.400 . S
C659 C658 1.400 . S
C659 C660 1.398 . S
C659 C665 1.491 . S
C660 H651 0.950 . S
C660 C659 1.398 . S
C660 C661 1.391 . S
C661 H649 0.950 . S
C661 C657 1.393 . S
C661 C660 1.391 . S
C662 H652 0.950 . S
C662 C663 1.386 . S
C662 C664 1.391 . S
C663 C662 1.386 . S
C663 C667 1.393 . S
C664 H653 0.950 . S
C664 C662 1.391 . S
C664 C665 1.400 . S
C665 C659 1.491 . S
C665 C664 1.400 . S
C665 C666 1.398 . S
C666 H654 0.950 . S
C666 C665 1.398 . S
C666 C667 1.391 . S
C667 H655 0.950 1_455 S
C667 C663 1.393 . S
C667 C666 1.391 . S
H668 C676 0.950 . S
H669 C681 0.950 . S
H670 C678 0.950 . S
H671 C680 0.950 . S
H672 C682 0.950 1_565 S
H673 C684 0.950 . S
H674 C686 0.950 . S
H675 C687 0.950 . S
C676 H668 0.950 . S
C676 C677 1.386 . S
C676 C678 1.391 . S
C677 C676 1.386 . S
C677 C681 1.393 . S
C678 H670 0.950 . S
C678 C676 1.391 . S
C678 C679 1.400 . S
C679 C678 1.400 . S
C679 C680 1.398 . S
C679 C685 1.491 . S
C680 H671 0.950 . S
C680 C679 1.398 . S
C680 C681 1.391 . S
C681 H669 0.950 . S
C681 C677 1.393 . S
C681 C680 1.391 . S
C682 H672 0.950 1_545 S
C682 C683 1.386 . S
C682 C684 1.391 . S
C683 C682 1.386 . S
C683 C687 1.393 . S
C684 H673 0.950 . S
C684 C682 1.391 . S
C684 C685 1.400 . S
C685 C679 1.491 . S
C685 C684 1.400 . S
C685 C686 1.398 . S
C686 H674 0.950 . S
C686 C685 1.398 . S
C686 C687 1.391 . S
C687 H675 0.950 . S
C687 C683 1.393 . S
C687 C686 1.391 . S
H688 C696 0.950 . S
H689 C701 0.950 . S
H690 C698 0.950 . S
H691 C700 0.950 . S
H692 C702 0.950 . S
H693 C704 0.950 . S
H694 C706 0.950 . S
H695 C707 0.950 . S
C696 H688 0.950 . S
C696 C697 1.386 . S
C696 C698 1.391 . S
C697 C696 1.386 . S
C697 C701 1.393 . S
C698 H690 0.950 . S
C698 C696 1.391 . S
C698 C699 1.400 . S
C699 C698 1.400 . S
C699 C700 1.398 . S
C699 C705 1.491 . S
C700 H691 0.950 . S
C700 C699 1.398 . S
C700 C701 1.391 . S
C701 H689 0.950 . S
C701 C697 1.393 . S
C701 C700 1.391 . S
C702 H692 0.950 . S
C702 C703 1.386 . S
C702 C704 1.391 . S
C703 C702 1.386 . S
C703 C707 1.393 . S
C704 H693 0.950 . S
C704 C702 1.391 . S
C704 C705 1.400 . S
C705 C699 1.491 . S
C705 C704 1.400 . S
C705 C706 1.398 . S
C706 H694 0.950 . S
C706 C705 1.398 . S
C706 C707 1.391 . S
C707 H695 0.950 . S
C707 C703 1.393 . S
C707 C706 1.391 . S
H708 C716 0.950 . S
H709 C721 0.950 . S
H710 C718 0.950 . S
H711 C720 0.950 . S
H712 C722 0.950 . S
H713 C724 0.950 . S
H714 C726 0.950 . S
H715 C727 0.950 . S
C716 H708 0.950 . S
C716 C717 1.386 . S
C716 C718 1.391 . S
C717 C716 1.386 . S
C717 C721 1.393 . S
C718 H710 0.950 . S
C718 C716 1.391 . S
C718 C719 1.400 . S
C719 C718 1.400 . S
C719 C720 1.398 . S
C719 C725 1.491 . S
C720 H711 0.950 . S
C720 C719 1.398 . S
C720 C721 1.391 . S
C721 H709 0.950 . S
C721 C717 1.393 . S
C721 C720 1.391 . S
C722 H712 0.950 . S
C722 C723 1.386 . S
C722 C724 1.391 . S
C723 C722 1.386 . S
C723 C727 1.393 . S
C724 H713 0.950 . S
C724 C722 1.391 . S
C724 C725 1.400 . S
C725 C719 1.491 . S
C725 C724 1.400 . S
C725 C726 1.398 . S
C726 H714 0.950 . S
C726 C725 1.398 . S
C726 C727 1.391 . S
C727 H715 0.950 . S
C727 C723 1.393 . S
C727 C726 1.391 . S
H728 C736 0.950 . S
H729 C741 0.950 . S
H730 C738 0.950 1_455 S
H731 C740 0.950 . S
H732 C742 0.950 . S
H733 C744 0.950 1_556 S
H734 C746 0.950 . S
H735 C747 0.950 . S
C736 H728 0.950 . S
C736 C737 1.386 . S
C736 C738 1.391 . S
C737 C736 1.386 . S
C737 C741 1.393 . S
C738 H730 0.950 1_655 S
C738 C736 1.391 . S
C738 C739 1.400 . S
C739 C738 1.400 . S
C739 C740 1.398 . S
C739 C745 1.491 . S
C740 H731 0.950 . S
C740 C739 1.398 . S
C740 C741 1.391 . S
C741 H729 0.950 . S
C741 C737 1.393 . S
C741 C740 1.391 . S
C742 H732 0.950 . S
C742 C743 1.386 1_655 S
C742 C744 1.391 1_556 S
C743 C742 1.386 1_455 S
C743 C747 1.393 1_556 S
C744 H733 0.950 1_554 S
C744 C742 1.391 1_554 S
C744 C745 1.400 . S
C745 C739 1.491 . S
C745 C744 1.400 . S
C745 C746 1.398 1_655 S
C746 H734 0.950 . S
C746 C745 1.398 1_455 S
C746 C747 1.391 . S
C747 H735 0.950 . S
C747 C743 1.393 1_554 S
C747 C746 1.391 . S
H748 C756 0.950 . S
H749 C761 0.950 . S
H750 C758 0.950 . S
H751 C760 0.950 . S
H752 C762 0.950 . S
H753 C764 0.950 . S
H754 C766 0.950 . S
H755 C767 0.948 1_565 S
C756 H748 0.950 . S
C756 C757 1.386 . S
C756 C758 1.391 . S
C757 C756 1.386 . S
C757 C761 1.393 . S
C758 H750 0.950 . S
C758 C756 1.391 . S
C758 C759 1.400 . S
C759 C758 1.400 . S
C759 C760 1.398 . S
C759 C765 1.491 . S
C760 H751 0.950 . S
C760 C759 1.398 . S
C760 C761 1.391 . S
C761 H749 0.950 . S
C761 C757 1.393 . S
C761 C760 1.391 . S
C762 H752 0.950 . S
C762 C763 1.386 1_554 S
C762 C764 1.391 . S
C763 C762 1.386 1_556 S
C763 C767 1.395 . S
C764 H753 0.950 . S
C764 C762 1.391 . S
C764 C765 1.400 1_545 S
C765 C759 1.491 . S
C765 C764 1.400 1_565 S
C765 C766 1.398 1_554 S
C766 H754 0.950 . S
C766 C765 1.398 1_556 S
C766 C767 1.389 1_565 S
C767 H755 0.948 1_545 S
C767 C763 1.395 . S
C767 C766 1.389 1_545 S
H768 C776 0.950 . S
H769 C781 0.950 . S
H770 C778 0.950 . S
H771 C780 0.950 . S
H772 C782 0.950 . S
H773 C784 0.950 . S
H774 C786 0.950 . S
H775 C787 0.950 1_556 S
C776 H768 0.950 . S
C776 C777 1.386 . S
C776 C778 1.391 . S
C777 C776 1.386 . S
C777 C781 1.393 . S
C778 H770 0.950 . S
C778 C776 1.391 . S
C778 C779 1.400 . S
C779 C778 1.400 . S
C779 C780 1.398 . S
C779 C785 1.491 . S
C780 H771 0.950 . S
C780 C779 1.398 . S
C780 C781 1.391 . S
C781 H769 0.950 . S
C781 C777 1.393 . S
C781 C780 1.391 . S
C782 H772 0.950 . S
C782 C783 1.386 . S
C782 C784 1.391 . S
C783 C782 1.386 . S
C783 C787 1.393 . S
C784 H773 0.950 . S
C784 C782 1.391 . S
C784 C785 1.400 . S
C785 C779 1.491 . S
C785 C784 1.400 . S
C785 C786 1.398 . S
C786 H774 0.950 . S
C786 C785 1.398 . S
C786 C787 1.391 . S
C787 H775 0.950 1_554 S
C787 C783 1.393 . S
C787 C786 1.391 . S
H788 C796 0.950 . S
H789 C801 0.950 . S
H790 C798 0.950 . S
H791 C800 0.947 1_556 S
H792 C802 0.950 . S
H793 C804 0.950 . S
H794 C806 0.950 . S
H795 C807 0.950 . S
C796 H788 0.950 . S
C796 C797 1.386 . S
C796 C798 1.391 . S
C797 C796 1.386 . S
C797 C801 1.393 . S
C798 H790 0.950 . S
C798 C796 1.391 . S
C798 C799 1.400 . S
C799 C798 1.400 . S
C799 C800 1.398 . S
C799 C805 1.491 . S
C800 H791 0.947 1_554 S
C800 C799 1.398 . S
C800 C801 1.391 . S
C801 H789 0.950 . S
C801 C797 1.393 . S
C801 C800 1.391 . S
C802 H792 0.950 . S
C802 C803 1.386 1_556 S
C802 C804 1.391 . S
C803 C802 1.386 1_554 S
C803 C807 1.393 . S
C804 H793 0.950 . S
C804 C802 1.391 . S
C804 C805 1.400 1_556 S
C805 C799 1.491 . S
C805 C804 1.400 1_554 S
C805 C806 1.398 . S
C806 H794 0.950 . S
C806 C805 1.398 . S
C806 C807 1.391 . S
C807 H795 0.950 . S
C807 C803 1.393 . S
C807 C806 1.391 . S
H808 C816 0.950 . S
H809 C821 0.950 . S
H810 C818 0.950 . S
H811 C820 0.950 . S
H812 C822 0.950 . S
H813 C824 0.950 . S
H814 C826 0.950 . S
H815 C827 0.950 . S
C816 H808 0.950 . S
C816 C817 1.386 . S
C816 C818 1.391 . S
C817 C816 1.386 . S
C817 C821 1.393 . S
C818 H810 0.950 . S
C818 C816 1.391 . S
C818 C819 1.400 . S
C819 C818 1.400 . S
C819 C820 1.398 . S
C819 C825 1.491 . S
C820 H811 0.950 . S
C820 C819 1.398 . S
C820 C821 1.391 . S
C821 H809 0.950 . S
C821 C817 1.393 . S
C821 C820 1.391 . S
C822 H812 0.950 . S
C822 C823 1.386 . S
C822 C824 1.391 . S
C823 C822 1.386 . S
C823 C827 1.393 . S
C824 H813 0.950 . S
C824 C822 1.391 . S
C824 C825 1.400 . S
C825 C819 1.491 . S
C825 C824 1.400 . S
C825 C826 1.398 . S
C826 H814 0.950 . S
C826 C825 1.398 . S
C826 C827 1.391 . S
C827 H815 0.950 . S
C827 C823 1.393 . S
C827 C826 1.391 . S
H828 C836 0.950 . S
H829 C841 0.950 . S
H830 C838 0.950 . S
H831 C840 0.950 . S
H832 C842 0.950 . S
H833 C844 0.950 . S
H834 C846 0.950 . S
H835 C847 0.950 . S
C836 H828 0.950 . S
C836 C837 1.386 . S
C836 C838 1.391 . S
C837 C836 1.386 . S
C837 C841 1.393 . S
C838 H830 0.950 . S
C838 C836 1.391 . S
C838 C839 1.400 . S
C839 C838 1.400 . S
C839 C840 1.398 . S
C839 C845 1.491 . S
C840 H831 0.950 . S
C840 C839 1.398 . S
C840 C841 1.391 . S
C841 H829 0.950 . S
C841 C837 1.393 . S
C841 C840 1.391 . S
C842 H832 0.950 . S
C842 C843 1.386 . S
C842 C844 1.391 . S
C843 C842 1.386 . S
C843 C847 1.393 . S
C844 H833 0.950 . S
C844 C842 1.391 . S
C844 C845 1.400 . S
C845 C839 1.491 . S
C845 C844 1.400 . S
C845 C846 1.398 . S
C846 H834 0.950 . S
C846 C845 1.398 . S
C846 C847 1.391 . S
C847 H835 0.950 . S
C847 C843 1.393 . S
C847 C846 1.391 . S
H848 C856 0.950 . S
H849 C861 0.950 . S
H850 C858 0.950 . S
H851 C860 0.950 . S
H852 C862 0.950 . S
H853 C864 0.950 . S
H854 C866 0.950 . S
H855 C867 0.950 . S
C856 H848 0.950 . S
C856 C857 1.386 . S
C856 C858 1.391 . S
C857 C856 1.386 . S
C857 C861 1.393 . S
C858 H850 0.950 . S
C858 C856 1.391 . S
C858 C859 1.400 . S
C859 C858 1.400 . S
C859 C860 1.398 . S
C859 C865 1.491 . S
C860 H851 0.950 . S
C860 C859 1.398 . S
C860 C861 1.391 . S
C861 H849 0.950 . S
C861 C857 1.393 . S
C861 C860 1.391 . S
C862 H852 0.950 . S
C862 C863 1.386 . S
C862 C864 1.391 . S
C863 C862 1.386 . S
C863 C867 1.393 . S
C864 H853 0.950 . S
C864 C862 1.391 . S
C864 C865 1.400 . S
C865 C859 1.491 . S
C865 C864 1.400 . S
C865 C866 1.398 . S
C866 H854 0.950 . S
C866 C865 1.398 . S
C866 C867 1.391 . S
C867 H855 0.950 . S
C867 C863 1.393 . S
C867 C866 1.391 . S
H868 C876 0.950 . S
H869 C881 0.950 . S
H870 C878 0.950 . S
H871 C880 0.950 . S
H872 C882 0.950 . S
H873 C884 0.950 . S
H874 C886 0.950 . S
H875 C887 0.950 . S
C876 H868 0.950 . S
C876 C877 1.386 . S
C876 C878 1.391 . S
C877 C876 1.386 . S
C877 C881 1.393 . S
C878 H870 0.950 . S
C878 C876 1.391 . S
C878 C879 1.400 . S
C879 C878 1.400 . S
C879 C880 1.398 . S
C879 C885 1.491 . S
C880 H871 0.950 . S
C880 C879 1.398 . S
C880 C881 1.391 . S
C881 H869 0.950 . S
C881 C877 1.393 . S
C881 C880 1.391 . S
C882 H872 0.950 . S
C882 C883 1.386 . S
C882 C884 1.391 . S
C883 C882 1.386 . S
C883 C887 1.393 . S
C884 H873 0.950 . S
C884 C882 1.391 . S
C884 C885 1.400 . S
C885 C879 1.491 . S
C885 C884 1.400 . S
C885 C886 1.398 . S
C886 H874 0.950 . S
C886 C885 1.398 . S
C886 C887 1.391 . S
C887 H875 0.950 . S
C887 C883 1.393 . S
C887 C886 1.391 . S
H888 C896 0.950 . S
H889 C901 0.950 . S
H890 C898 0.950 . S
H891 C900 0.950 . S
H892 C902 0.950 . S
H893 C904 0.950 . S
H894 C906 0.950 1_455 S
H895 C907 0.950 1_455 S
C896 H888 0.950 . S
C896 C897 1.386 . S
C896 C898 1.391 . S
C897 C896 1.386 . S
C897 C901 1.393 . S
C898 H890 0.950 . S
C898 C896 1.391 . S
C898 C899 1.400 . S
C899 C898 1.400 . S
C899 C900 1.398 . S
C899 C905 1.491 . S
C900 H891 0.950 . S
C900 C899 1.398 . S
C900 C901 1.391 . S
C901 H889 0.950 . S
C901 C897 1.393 . S
C901 C900 1.391 . S
C902 H892 0.950 . S
C902 C903 1.386 . S
C902 C904 1.391 . S
C903 C902 1.386 . S
C903 C907 1.393 . S
C904 H893 0.950 . S
C904 C902 1.391 . S
C904 C905 1.400 . S
C905 C899 1.491 . S
C905 C904 1.400 . S
C905 C906 1.398 . S
C906 H894 0.950 1_655 S
C906 C905 1.398 . S
C906 C907 1.391 . S
C907 H895 0.950 1_655 S
C907 C903 1.393 . S
C907 C906 1.391 . S
H908 C916 0.950 . S
H909 C921 0.935 1_545 S
H910 C918 0.950 . S
H911 C920 0.950 1_545 S
H912 C922 0.950 . S
H913 C924 0.950 . S
H914 C926 0.950 . S
H915 C927 0.950 . S
C916 H908 0.950 . S
C916 C917 1.386 . S
C916 C918 1.391 . S
C917 C916 1.386 . S
C917 C921 1.393 . S
C918 H910 0.950 . S
C918 C916 1.391 . S
C918 C919 1.400 . S
C919 C918 1.400 . S
C919 C920 1.398 . S
C919 C925 1.491 . S
C920 H911 0.950 1_565 S
C920 C919 1.398 . S
C920 C921 1.391 . S
C921 H909 0.935 1_565 S
C921 C917 1.393 . S
C921 C920 1.391 . S
C922 H912 0.950 . S
C922 C923 1.386 1_545 S
C922 C924 1.391 . S
C923 C922 1.386 1_565 S
C923 C927 1.393 . S
C924 H913 0.950 . S
C924 C922 1.391 . S
C924 C925 1.400 1_545 S
C925 C919 1.491 . S
C925 C924 1.400 1_565 S
C925 C926 1.398 . S
C926 H914 0.950 . S
C926 C925 1.398 . S
C926 C927 1.391 . S
C927 H915 0.950 . S
C927 C923 1.393 . S
C927 C926 1.391 . S
H928 C936 0.950 . S
H929 C941 0.950 . S
H930 C938 0.950 . S
H931 C940 0.950 . S
H932 C942 0.950 . S
H933 C944 0.950 . S
H934 C946 0.950 . S
H935 C947 0.950 . S
C936 H928 0.950 . S
C936 C937 1.386 . S
C936 C938 1.391 . S
C937 C936 1.386 . S
C937 C941 1.393 . S
C938 H930 0.950 . S
C938 C936 1.391 . S
C938 C939 1.400 . S
C939 C938 1.400 . S
C939 C940 1.398 . S
C939 C945 1.491 . S
C940 H931 0.950 . S
C940 C939 1.398 . S
C940 C941 1.391 . S
C941 H929 0.950 . S
C941 C937 1.393 . S
C941 C940 1.391 . S
C942 H932 0.950 . S
C942 C943 1.386 . S
C942 C944 1.391 . S
C943 C942 1.386 . S
C943 C947 1.393 . S
C944 H933 0.950 . S
C944 C942 1.391 . S
C944 C945 1.400 . S
C945 C939 1.491 . S
C945 C944 1.400 . S
C945 C946 1.398 . S
C946 H934 0.950 . S
C946 C945 1.398 . S
C946 C947 1.391 . S
C947 H935 0.950 . S
C947 C943 1.393 . S
C947 C946 1.391 . S
H948 C956 0.950 . S
H949 C961 0.950 . S
H950 C958 0.950 . S
H951 C960 0.950 . S
H952 C962 0.950 . S
H953 C964 0.950 . S
H954 C966 0.950 . S
H955 C967 0.950 . S
C956 H948 0.950 . S
C956 C957 1.386 . S
C956 C958 1.391 . S
C957 C956 1.386 . S
C957 C961 1.393 . S
C958 H950 0.950 . S
C958 C956 1.391 . S
C958 C959 1.400 . S
C959 C958 1.400 . S
C959 C960 1.398 . S
C959 C965 1.491 . S
C960 H951 0.950 . S
C960 C959 1.398 . S
C960 C961 1.391 . S
C961 H949 0.950 . S
C961 C957 1.393 . S
C961 C960 1.391 . S
C962 H952 0.950 . S
C962 C963 1.386 . S
C962 C964 1.391 . S
C963 C962 1.386 . S
C963 C967 1.393 . S
C964 H953 0.950 . S
C964 C962 1.391 . S
C964 C965 1.400 . S
C965 C959 1.491 . S
C965 C964 1.400 . S
C965 C966 1.398 . S
C966 H954 0.950 . S
C966 C965 1.398 . S
C966 C967 1.391 . S
C967 H955 0.950 . S
C967 C963 1.393 . S
C967 C966 1.391 . S
C497 C125 1.910 . S
C503 C226 1.927 . S
C523 C310 1.948 . S
C517 C144 1.919 . S
C543 C376 1.955 . S
C537 C87 1.996 . S
C563 C460 1.930 . S
C557 C106 1.980 . S
C583 C215 1.944 1_565 S
C577 C49 1.994 . S
C597 C68 2.009 . S
C603 C299 1.948 . S
C617 C11 2.114 . S
C623 C387 1.928 . S
C637 C30 2.097 . S
C643 C471 1.908 . S
C663 C222 0.712 1_455 S
C657 C97 0.659 . S
C683 C306 0.668 . S
C677 C116 0.693 . S
C703 C378 0.666 . S
C697 C135 0.613 . S
C717 C78 0.702 . S
C723 C462 0.642 . S
C737 C21 0.707 . S
C743 C210 0.697 . S
C763 C294 0.631 . S
C757 C40 0.666 . S
C783 C390 0.604 . S
C777 C59 0.681 . S
C797 C2 0.673 . S
C803 C474 0.668 . S
C817 C101 2.035 . S
C823 C219 2.084 . S
C837 C120 1.998 . S
C843 C303 2.028 . S
C863 C383 2.073 . S
C857 C139 1.902 . S
C883 C467 2.105 . S
C877 C82 1.932 . S
C897 C25 2.022 . S
C903 C208 2.067 . S
C923 C292 2.045 1_565 S
C917 C44 2.016 . S
C943 C394 2.085 . S
C937 C63 1.915 . S
C957 C6 1.941 . S
C963 C478 2.104 . S
