# Generated by pormake.
# Topology eea, (3,6)-cn, num edge types: 1
# Building blocks:
#     Node 0, Type 0, BuildingBlock: BETDAH_clean_linker_0, # of connection points: 3
#     Node 1, Type 0, BuildingBlock: BETDAH_clean_linker_0, # of connection points: 3
#     Node 2, Type 0, BuildingBlock: BETDAH_clean_linker_0, # of connection points: 3
#     Node 3, Type 0, BuildingBlock: BETDAH_clean_linker_0, # of connection points: 3
#     Node 4, Type 0, BuildingBlock: BETDAH_clean_linker_0, # of connection points: 3
#     Node 5, Type 0, BuildingBlock: BETDAH_clean_linker_0, # of connection points: 3
#     Node 6, Type 0, BuildingBlock: BETDAH_clean_linker_0, # of connection points: 3
#     Node 7, Type 0, BuildingBlock: BETDAH_clean_linker_0, # of connection points: 3
#     Node 8, Type 0, BuildingBlock: BETDAH_clean_linker_0, # of connection points: 3
#     Node 9, Type 0, BuildingBlock: BETDAH_clean_linker_0, # of connection points: 3
#     Node 10, Type 0, BuildingBlock: BETDAH_clean_linker_0, # of connection points: 3
#     Node 11, Type 0, BuildingBlock: BETDAH_clean_linker_0, # of connection points: 3
#     Node 12, Type 0, BuildingBlock: BETDAH_clean_linker_0, # of connection points: 3
#     Node 13, Type 0, BuildingBlock: BETDAH_clean_linker_0, # of connection points: 3
#     Node 14, Type 0, BuildingBlock: BETDAH_clean_linker_0, # of connection points: 3
#     Node 15, Type 0, BuildingBlock: BETDAH_clean_linker_0, # of connection points: 3
#     Node 16, Type 0, BuildingBlock: BETDAH_clean_linker_0, # of connection points: 3
#     Node 17, Type 0, BuildingBlock: BETDAH_clean_linker_0, # of connection points: 3
#     Node 18, Type 1, BuildingBlock: CUWYAW_clean_sbu_0, # of connection points: 6
#     Node 19, Type 1, BuildingBlock: CUWYAW_clean_sbu_0, # of connection points: 6
#     Node 20, Type 1, BuildingBlock: CUWYAW_clean_sbu_0, # of connection points: 6
#     Node 21, Type 1, BuildingBlock: CUWYAW_clean_sbu_0, # of connection points: 6
#     Node 22, Type 1, BuildingBlock: CUWYAW_clean_sbu_0, # of connection points: 6
#     Node 23, Type 1, BuildingBlock: CUWYAW_clean_sbu_0, # of connection points: 6
#     Node 24, Type 1, BuildingBlock: CUWYAW_clean_sbu_0, # of connection points: 6
#     Node 25, Type 1, BuildingBlock: CUWYAW_clean_sbu_0, # of connection points: 6
#     Node 26, Type 1, BuildingBlock: CUWYAW_clean_sbu_0, # of connection points: 6
#     Edge 27, Type (0, 1), BuildingBlock: KIFKEQ_clean_linker_1, # of connection points: 2
#     Edge 28, Type (0, 1), BuildingBlock: KIFKEQ_clean_linker_1, # of connection points: 2
#     Edge 29, Type (0, 1), BuildingBlock: KIFKEQ_clean_linker_1, # of connection points: 2
#     Edge 30, Type (0, 1), BuildingBlock: KIFKEQ_clean_linker_1, # of connection points: 2
#     Edge 31, Type (0, 1), BuildingBlock: KIFKEQ_clean_linker_1, # of connection points: 2
#     Edge 32, Type (0, 1), BuildingBlock: KIFKEQ_clean_linker_1, # of connection points: 2
#     Edge 33, Type (0, 1), BuildingBlock: KIFKEQ_clean_linker_1, # of connection points: 2
#     Edge 34, Type (0, 1), BuildingBlock: KIFKEQ_clean_linker_1, # of connection points: 2
#     Edge 35, Type (0, 1), BuildingBlock: KIFKEQ_clean_linker_1, # of connection points: 2
#     Edge 36, Type (0, 1), BuildingBlock: KIFKEQ_clean_linker_1, # of connection points: 2
#     Edge 37, Type (0, 1), BuildingBlock: KIFKEQ_clean_linker_1, # of connection points: 2
#     Edge 38, Type (0, 1), BuildingBlock: KIFKEQ_clean_linker_1, # of connection points: 2
#     Edge 39, Type (0, 1), BuildingBlock: KIFKEQ_clean_linker_1, # of connection points: 2
#     Edge 40, Type (0, 1), BuildingBlock: KIFKEQ_clean_linker_1, # of connection points: 2
#     Edge 41, Type (0, 1), BuildingBlock: KIFKEQ_clean_linker_1, # of connection points: 2
#     Edge 42, Type (0, 1), BuildingBlock: KIFKEQ_clean_linker_1, # of connection points: 2
#     Edge 43, Type (0, 1), BuildingBlock: KIFKEQ_clean_linker_1, # of connection points: 2
#     Edge 44, Type (0, 1), BuildingBlock: KIFKEQ_clean_linker_1, # of connection points: 2
#     Edge 45, Type (0, 1), BuildingBlock: KIFKEQ_clean_linker_1, # of connection points: 2
#     Edge 46, Type (0, 1), BuildingBlock: KIFKEQ_clean_linker_1, # of connection points: 2
#     Edge 47, Type (0, 1), BuildingBlock: KIFKEQ_clean_linker_1, # of connection points: 2
#     Edge 48, Type (0, 1), BuildingBlock: KIFKEQ_clean_linker_1, # of connection points: 2
#     Edge 49, Type (0, 1), BuildingBlock: KIFKEQ_clean_linker_1, # of connection points: 2
#     Edge 50, Type (0, 1), BuildingBlock: KIFKEQ_clean_linker_1, # of connection points: 2
#     Edge 51, Type (0, 1), BuildingBlock: KIFKEQ_clean_linker_1, # of connection points: 2
#     Edge 52, Type (0, 1), BuildingBlock: KIFKEQ_clean_linker_1, # of connection points: 2
#     Edge 53, Type (0, 1), BuildingBlock: KIFKEQ_clean_linker_1, # of connection points: 2
#     Edge 54, Type (0, 1), BuildingBlock: KIFKEQ_clean_linker_1, # of connection points: 2
#     Edge 55, Type (0, 1), BuildingBlock: KIFKEQ_clean_linker_1, # of connection points: 2
#     Edge 56, Type (0, 1), BuildingBlock: KIFKEQ_clean_linker_1, # of connection points: 2
#     Edge 57, Type (0, 1), BuildingBlock: KIFKEQ_clean_linker_1, # of connection points: 2
#     Edge 58, Type (0, 1), BuildingBlock: KIFKEQ_clean_linker_1, # of connection points: 2
#     Edge 59, Type (0, 1), BuildingBlock: KIFKEQ_clean_linker_1, # of connection points: 2
#     Edge 60, Type (0, 1), BuildingBlock: KIFKEQ_clean_linker_1, # of connection points: 2
#     Edge 61, Type (0, 1), BuildingBlock: KIFKEQ_clean_linker_1, # of connection points: 2
#     Edge 62, Type (0, 1), BuildingBlock: KIFKEQ_clean_linker_1, # of connection points: 2
#     Edge 63, Type (0, 1), BuildingBlock: KIFKEQ_clean_linker_1, # of connection points: 2
#     Edge 64, Type (0, 1), BuildingBlock: KIFKEQ_clean_linker_1, # of connection points: 2
#     Edge 65, Type (0, 1), BuildingBlock: KIFKEQ_clean_linker_1, # of connection points: 2
#     Edge 66, Type (0, 1), BuildingBlock: KIFKEQ_clean_linker_1, # of connection points: 2
#     Edge 67, Type (0, 1), BuildingBlock: KIFKEQ_clean_linker_1, # of connection points: 2
#     Edge 68, Type (0, 1), BuildingBlock: KIFKEQ_clean_linker_1, # of connection points: 2
#     Edge 69, Type (0, 1), BuildingBlock: KIFKEQ_clean_linker_1, # of connection points: 2
#     Edge 70, Type (0, 1), BuildingBlock: KIFKEQ_clean_linker_1, # of connection points: 2
#     Edge 71, Type (0, 1), BuildingBlock: KIFKEQ_clean_linker_1, # of connection points: 2
#     Edge 72, Type (0, 1), BuildingBlock: KIFKEQ_clean_linker_1, # of connection points: 2
#     Edge 73, Type (0, 1), BuildingBlock: KIFKEQ_clean_linker_1, # of connection points: 2
#     Edge 74, Type (0, 1), BuildingBlock: KIFKEQ_clean_linker_1, # of connection points: 2
#     Edge 75, Type (0, 1), BuildingBlock: KIFKEQ_clean_linker_1, # of connection points: 2
#     Edge 76, Type (0, 1), BuildingBlock: KIFKEQ_clean_linker_1, # of connection points: 2
#     Edge 77, Type (0, 1), BuildingBlock: KIFKEQ_clean_linker_1, # of connection points: 2
#     Edge 78, Type (0, 1), BuildingBlock: KIFKEQ_clean_linker_1, # of connection points: 2
#     Edge 79, Type (0, 1), BuildingBlock: KIFKEQ_clean_linker_1, # of connection points: 2
#     Edge 80, Type (0, 1), BuildingBlock: KIFKEQ_clean_linker_1, # of connection points: 2
# Relax obj value: 0.056
# Max RMSD: 0.204
# Mean RMSD: 0.144
data_MOF--net-eea--node1-CUWYAW_clean_sbu_0--node2-BETDAH_clean_linker_0--edge1-KIFKEQ_clean_linker_1
_symmetry_space_group_name_H-M    P1
_symmetry_Int_Tables_number       1
_symmetry_cell_setting            triclinic
loop_
_symmetry_equiv_pos_as_xyz
'x, y, z'
_cell_length_a     55.710899
_cell_length_b     55.451523
_cell_length_c     70.598056
_cell_angle_alpha  93.285988
_cell_angle_beta   93.312594
_cell_angle_gamma 119.89029
loop_
_atom_site_label
_atom_site_type_symbol
_atom_site_fract_x
_atom_site_fract_y
_atom_site_fract_z
_atom_type_partial_charge
H0 H 0.23937 0.0734 0.42677 0.0
H1 H 0.2278 0.14451 0.42488 0.0
H2 H 0.19474 0.08092 0.37777 0.0
C3 C 0.23133 0.08478 0.41927 0.0
C4 C 0.21699 0.07398 0.40098 0.0
C5 C 0.23504 0.11001 0.42816 0.0
C6 C 0.22484 0.12497 0.41829 0.0
C7 C 0.21071 0.11451 0.39993 0.0
C8 C 0.20656 0.08905 0.39163 0.0
N9 N 0.19971 0.12839 0.38928 0.0
C10 C 0.20425 0.15517 0.39381 0.0
H11 H 0.94773 0.1894 0.43692 0.0
H12 H 0.87588 0.1072 0.42244 0.0
H13 H 0.93748 0.14356 0.38303 0.0
C14 C 0.93571 0.17079 0.42705 0.0
C15 C 0.94562 0.16901 0.40947 0.0
C16 C 0.91054 0.14849 0.43196 0.0
C17 C 0.89513 0.12454 0.4188 0.0
C18 C 0.90487 0.12286 0.4011 0.0
C19 C 0.93003 0.14503 0.39667 0.0
N20 N 0.89019 0.0994 0.38727 0.0
C21 C 0.8663 0.07447 0.38971 0.0
H22 H 0.84378 0.77334 0.44376 0.0
H23 H 0.90338 0.74741 0.43309 0.0
H24 H 0.86226 0.7633 0.38644 0.0
C25 C 0.85551 0.76872 0.43392 0.0
C26 C 0.8512 0.77025 0.41429 0.0
C27 C 0.87401 0.76018 0.44091 0.0
C28 C 0.88926 0.75429 0.42804 0.0
C29 C 0.88526 0.75593 0.40845 0.0
C30 C 0.86602 0.76342 0.40169 0.0
N31 N 0.89775 0.74679 0.39508 0.0
C32 C 0.92633 0.75953 0.39431 0.0
H33 H 0.07507 0.2558 0.58286 0.0
H34 H 0.13573 0.22894 0.58558 0.0
H35 H 0.07454 0.20307 0.62543 0.0
C36 C 0.08373 0.24423 0.58937 0.0
C37 C 0.07213 0.2299 0.60528 0.0
C38 C 0.10661 0.24395 0.58194 0.0
C39 C 0.11851 0.22991 0.59119 0.0
C40 C 0.10698 0.21548 0.607 0.0
C41 C 0.08372 0.21517 0.61365 0.0
N42 N 0.11694 0.19941 0.61587 0.0
C43 C 0.14452 0.20582 0.6177 0.0
H44 H 0.78856 0.84103 0.59253 0.0
H45 H 0.76739 0.90496 0.6045 0.0
H46 H 0.78957 0.87058 0.6505 0.0
C47 C 0.78546 0.85441 0.60266 0.0
C48 C 0.79059 0.85372 0.62233 0.0
C49 C 0.7769 0.87271 0.59599 0.0
C50 C 0.77433 0.89103 0.6093 0.0
C51 C 0.77916 0.8903 0.62894 0.0
C52 C 0.78666 0.87135 0.63528 0.0
N53 N 0.77565 0.90756 0.64278 0.0
C54 C 0.78029 0.93412 0.64009 0.0
H55 H 0.17323 0.94319 0.58625 0.0
H56 H 0.10611 0.86095 0.59389 0.0
H57 H 0.14316 0.92412 0.64132 0.0
C58 C 0.15923 0.92858 0.59544 0.0
C59 C 0.16043 0.93751 0.61468 0.0
C60 C 0.14006 0.90094 0.58781 0.0
C61 C 0.12079 0.88233 0.5995 0.0
C62 C 0.12195 0.89102 0.61884 0.0
C63 C 0.14195 0.91822 0.62625 0.0
N64 N 0.10499 0.87278 0.63187 0.0
C65 C 0.07885 0.84911 0.62758 0.0
H66 H 0.90743 0.40733 0.7601 0.0
H67 H 0.88878 0.47397 0.75927 0.0
H68 H 0.85981 0.41174 0.71157 0.0
C69 C 0.89809 0.41774 0.7528 0.0
C70 C 0.88406 0.40672 0.73444 0.0
C71 C 0.89959 0.44177 0.76203 0.0
C72 C 0.88761 0.45539 0.7524 0.0
C73 C 0.87365 0.44459 0.73403 0.0
C74 C 0.87161 0.42025 0.72542 0.0
N75 N 0.86037 0.45676 0.72384 0.0
C76 C 0.86465 0.48352 0.72781 0.0
H77 H 0.61431 0.52257 0.77269 0.0
H78 H 0.5347 0.44839 0.75569 0.0
H79 H 0.58977 0.49028 0.71366 0.0
C80 C 0.59926 0.50696 0.76174 0.0
C81 C 0.60527 0.50894 0.74263 0.0
C82 C 0.57365 0.48539 0.76669 0.0
C83 C 0.55465 0.46489 0.75227 0.0
C84 C 0.56058 0.46679 0.73317 0.0
C85 C 0.58552 0.489 0.72848 0.0
N86 N 0.54127 0.44781 0.71808 0.0
C87 C 0.52343 0.41948 0.71925 0.0
H88 H 0.5113 0.10388 0.7778 0.0
H89 H 0.57672 0.08591 0.76738 0.0
H90 H 0.53498 0.10209 0.72115 0.0
C91 C 0.52491 0.10191 0.76824 0.0
C92 C 0.52126 0.10458 0.74879 0.0
C93 C 0.54458 0.09477 0.77517 0.0
C94 C 0.56161 0.09156 0.76237 0.0
C95 C 0.55811 0.09437 0.74288 0.0
C96 C 0.53773 0.10038 0.73625 0.0
N97 N 0.57276 0.08872 0.72918 0.0
C98 C 0.60089 0.09716 0.73141 0.0
H99 H 0.73223 0.58216 0.9105 0.0
H100 H 0.8055 0.57605 0.92418 0.0
H101 H 0.74683 0.55957 0.96538 0.0
C102 C 0.74488 0.57765 0.92027 0.0
C103 C 0.7365 0.57043 0.93848 0.0
C104 C 0.7701 0.58027 0.915 0.0
C105 C 0.78638 0.57464 0.92812 0.0
C106 C 0.77786 0.56711 0.94629 0.0
C107 C 0.75323 0.56538 0.95134 0.0
N108 N 0.79333 0.56123 0.96008 0.0
C109 C 0.81716 0.55988 0.95737 0.0
H110 H 0.45306 0.17058 0.92486 0.0
H111 H 0.43003 0.23344 0.93554 0.0
H112 H 0.44801 0.19735 0.98228 0.0
C113 C 0.44886 0.18341 0.93472 0.0
C114 C 0.45218 0.18197 0.95449 0.0
C115 C 0.44072 0.20183 0.92761 0.0
C116 C 0.43671 0.21945 0.94064 0.0
C117 C 0.43955 0.21783 0.9603 0.0
C118 C 0.44663 0.19879 0.96705 0.0
N119 N 0.43408 0.23413 0.97365 0.0
C120 C 0.44296 0.26224 0.97251 0.0
H121 H 0.83265 0.27818 0.92102 0.0
H122 H 0.77897 0.18904 0.92034 0.0
H123 H 0.80458 0.2414 0.97314 0.0
C124 C 0.82018 0.25992 0.92834 0.0
C125 C 0.82006 0.26313 0.94821 0.0
C126 C 0.80568 0.23328 0.91802 0.0
C127 C 0.78958 0.20985 0.92782 0.0
C128 C 0.78868 0.21286 0.9476 0.0
C129 C 0.80428 0.2394 0.95776 0.0
N130 N 0.77613 0.18884 0.95766 0.0
C131 C 0.74838 0.17576 0.96137 0.0
H132 H 0.55251 0.72995 0.09755 0.0
H133 H 0.57152 0.81415 0.09042 0.0
H134 H 0.5517 0.75587 0.04133 0.0
C135 C 0.55482 0.74578 0.08833 0.0
C136 C 0.55042 0.73918 0.06844 0.0
C137 C 0.56277 0.77285 0.09644 0.0
C138 C 0.56546 0.79327 0.08438 0.0
C139 C 0.56112 0.78689 0.06448 0.0
C140 C 0.55413 0.76016 0.05671 0.0
N141 N 0.56491 0.80709 0.05171 0.0
C142 C 0.56093 0.82966 0.05551 0.0
H143 H 0.28089 0.84664 0.10417 0.0
H144 H 0.20076 0.77276 0.08838 0.0
H145 H 0.2563 0.81024 0.04584 0.0
C146 C 0.26567 0.83084 0.09341 0.0
C147 C 0.27216 0.83103 0.07439 0.0
C148 C 0.23988 0.80999 0.09871 0.0
C149 C 0.22082 0.7887 0.08471 0.0
C150 C 0.22704 0.78877 0.06571 0.0
C151 C 0.25229 0.81011 0.06069 0.0
N152 N 0.20813 0.76842 0.05099 0.0
C153 C 0.1864 0.74201 0.0536 0.0
H154 H 0.17313 0.43599 0.11163 0.0
H155 H 0.24232 0.42444 0.10033 0.0
H156 H 0.19695 0.43762 0.05477 0.0
C157 C 0.18718 0.43531 0.10189 0.0
C158 C 0.18283 0.43797 0.08254 0.0
C159 C 0.20834 0.43004 0.10853 0.0
C160 C 0.22599 0.42851 0.0955 0.0
C161 C 0.22183 0.4314 0.07608 0.0
C162 C 0.2001 0.43566 0.06978 0.0
N163 N 0.23783 0.42859 0.06209 0.0
C164 C 0.265 0.43394 0.06511 0.0
H165 H 0.39805 0.91146 0.24854 0.0
H166 H 0.47933 0.92169 0.26216 0.0
H167 H 0.42339 0.90271 0.30531 0.0
C168 C 0.41352 0.91185 0.25878 0.0
C169 C 0.40711 0.90588 0.27758 0.0
C170 C 0.43962 0.91779 0.253 0.0
C171 C 0.45906 0.91684 0.26621 0.0
C172 C 0.45289 0.91109 0.28501 0.0
C173 C 0.42734 0.90623 0.29058 0.0
N174 N 0.4721 0.91103 0.29907 0.0
C175 C 0.49437 0.90731 0.29551 0.0
H176 H 0.11705 0.50459 0.25941 0.0
H177 H 0.09319 0.567 0.26968 0.0
H178 H 0.1121 0.53164 0.3166 0.0
C179 C 0.11308 0.51779 0.2691 0.0
C180 C 0.11579 0.51608 0.28882 0.0
C181 C 0.10443 0.53575 0.26186 0.0
C182 C 0.10024 0.55332 0.27482 0.0
C183 C 0.10317 0.55186 0.29453 0.0
C184 C 0.11025 0.53284 0.30136 0.0
N185 N 0.09741 0.56801 0.30781 0.0
C186 C 0.10641 0.59616 0.30682 0.0
H187 H 0.49953 0.61436 0.25186 0.0
H188 H 0.44587 0.52604 0.25483 0.0
H189 H 0.47722 0.58191 0.30605 0.0
C190 C 0.48844 0.59689 0.26015 0.0
C191 C 0.49047 0.60177 0.2801 0.0
C192 C 0.47292 0.56967 0.25077 0.0
C193 C 0.45738 0.54729 0.26157 0.0
C194 C 0.45838 0.55195 0.28143 0.0
C195 C 0.47525 0.57898 0.29061 0.0
N196 N 0.44628 0.52909 0.29257 0.0
C197 C 0.41795 0.51412 0.29455 0.0
C198 C 0.53446 0.02579 0.07376 0.0
Eu199 Eu 0.51987 0.02181 0.0374 0.0
C200 C 0.52209 0.01187 0.0909 0.0
C201 C 0.50369 0.01766 0.10033 0.0
C202 C 0.4933 0.00546 0.11702 0.0
C203 C 0.50108 0.98722 0.12475 0.0
C204 C 0.51922 0.98119 0.11515 0.0
C205 C 0.52966 0.99344 0.09849 0.0
C206 C 0.50618 0.05531 0.01892 0.0
C207 C 0.45331 0.97506 0.02814 0.0
C208 C 0.47939 0.99546 0.9597 0.0
Eu209 Eu 0.49438 1.0005 0.9961 0.0
C210 C 0.49078 0.00824 0.94204 0.0
C211 C 0.49547 0.99274 0.92781 0.0
C212 C 0.50458 0.00353 0.91054 0.0
C213 C 0.50899 0.03007 0.90693 0.0
C214 C 0.50472 0.04582 0.92132 0.0
C215 C 0.49569 0.03503 0.93867 0.0
C216 C 0.50789 0.96683 0.0146 0.0
C217 C 0.56089 0.04762 0.0055 0.0
O218 O 0.53923 0.01126 0.06078 0.0
O219 O 0.52505 0.04094 0.06631 0.0
O220 O 0.52798 0.0647 0.03114 0.0
O221 O 0.49192 0.02901 0.01784 0.0
O222 O 0.47592 0.9868 0.04042 0.0
O223 O 0.45441 0.97964 0.00995 0.0
O224 O 0.47455 0.01014 0.97251 0.0
O225 O 0.48966 0.98114 0.96732 0.0
O226 O 0.48616 0.95762 1.00237 0.0
O227 O 0.52227 0.99314 0.01565 0.0
O228 O 0.53821 0.03621 0.99326 0.0
O229 O 0.55978 0.0424 0.02356 0.0
H230 H 0.49756 0.03193 0.09501 0.0
H231 H 0.47971 0.01093 0.12414 0.0
H232 H 0.52538 0.96696 0.1205 0.0
H233 H 0.54388 0.98864 0.09162 0.0
H234 H 0.49176 0.972 0.92995 0.0
H235 H 0.50808 0.99097 0.89998 0.0
H236 H 0.50758 0.06618 0.919 0.0
H237 H 0.49214 0.04752 0.94928 0.0
C238 C 0.9978 0.52227 0.06868 0.0
Eu239 Eu 0.99468 0.50456 0.0331 0.0
C240 C 0.01171 0.5231 0.08735 0.0
C241 C 0.0118 0.49942 0.09338 0.0
C242 C 0.0242 0.50058 0.11149 0.0
C243 C 0.03699 0.52548 0.1238 0.0
C244 C 0.03742 0.54928 0.11751 0.0
C245 C 0.02482 0.54805 0.09949 0.0
C246 C 0.95692 0.45401 0.01499 0.0
C247 C 0.03725 0.4803 0.02811 0.0
C248 C 0.00441 0.47476 0.95789 0.0
Eu249 Eu 0.00716 0.4923 0.99349 0.0
C250 C 0.99252 0.47529 0.93869 0.0
C251 C 0.00423 0.49965 0.92915 0.0
C252 C 0.994 0.49917 0.91047 0.0
C253 C 0.97183 0.47435 0.9009 0.0
C254 C 0.95984 0.45015 0.91058 0.0
C255 C 0.97014 0.45061 0.92922 0.0
C256 C 0.04469 0.54309 0.01156 0.0
C257 C 0.96515 0.5173 0.99848 0.0
O258 O 0.01387 0.53802 0.05641 0.0
O259 O 0.97813 0.49783 0.06073 0.0
O260 O 0.9503 0.46931 0.02559 0.0
O261 O 0.98299 0.46539 0.01509 0.0
O262 O 0.02905 0.49433 0.03919 0.0
O263 O 0.02849 0.47348 0.00977 0.0
O264 O 0.98691 0.4596 0.96974 0.0
O265 O 0.02503 0.49827 0.96633 0.0
O266 O 0.05142 0.52809 1.00076 0.0
O267 O 0.01864 0.53137 0.01145 0.0
O268 O 0.97316 0.50314 0.98732 0.0
O269 O 0.97376 0.52378 0.01685 0.0
H270 H 1.00211 0.47998 0.0842 0.0
H271 H 0.02383 0.482 0.11586 0.0
H272 H 0.04687 0.56869 0.12671 0.0
H273 H 0.02503 0.56656 0.0951 0.0
H274 H 0.02157 0.51903 0.93599 0.0
H275 H 1.00352 0.51823 0.90349 0.0
H276 H 0.94301 0.43059 0.90356 0.0
H277 H 0.96091 0.43144 0.93611 0.0
C278 C 0.47003 0.48307 0.94962 0.0
Eu279 Eu 0.48808 0.50049 0.98548 0.0
C280 C 0.48212 0.48338 0.93153 0.0
C281 C 0.46837 0.48397 0.91446 0.0
C282 C 0.4795 0.48448 0.89713 0.0
C283 C 0.50469 0.48442 0.89652 0.0
C284 C 0.51843 0.48379 0.9137 0.0
C285 C 0.50727 0.48332 0.93105 0.0
C286 C 0.50025 0.54999 1.00382 0.0
C287 C 0.55612 0.5274 0.99121 0.0
C288 C 0.53574 0.52952 0.0613 0.0
Eu289 Eu 0.51811 0.51343 0.02531 0.0
C290 C 0.5244 0.53214 0.07927 0.0
C291 C 0.52454 0.51643 0.09413 0.0
C292 C 0.51482 0.51912 0.11149 0.0
C293 C 0.50494 0.5378 0.11445 0.0
C294 C 0.50449 0.55332 0.09949 0.0
C295 C 0.51403 0.55047 0.08204 0.0
C296 C 0.50586 0.46392 0.00685 0.0
C297 C 0.45051 0.48734 0.01968 0.0
O298 O 0.47194 0.46737 0.96209 0.0
O299 O 0.47499 0.50725 0.95747 0.0
O300 O 0.47743 0.53415 0.99279 0.0
O301 O 0.51604 0.53979 0.00388 0.0
O302 O 0.53261 0.5135 0.97986 0.0
O303 O 0.55637 0.53293 0.0097 0.0
O304 O 0.53826 0.54676 0.04859 0.0
O305 O 0.52683 0.5041 0.05363 0.0
O306 O 0.52878 0.47991 0.01771 0.0
O307 O 0.49003 0.47406 0.00697 0.0
O308 O 0.47415 0.50301 0.03064 0.0
O309 O 0.45023 0.47994 1.00151 0.0
H310 H 0.44893 0.48399 0.91452 0.0
H311 H 0.46818 0.48458 0.88417 0.0
H312 H 0.53801 0.48407 0.91378 0.0
H313 H 0.51831 0.48297 0.94407 0.0
H314 H 0.53254 0.50227 0.0924 0.0
H315 H 0.51581 0.50716 0.1228 0.0
H316 H 0.4968 0.56772 0.10128 0.0
H317 H 0.5135 0.5628 0.07084 0.0
C318 C 0.20675 0.36748 0.40729 0.0
Eu319 Eu 0.19084 0.36127 0.37098 0.0
C320 C 0.19586 0.35389 0.4247 0.0
C321 C 0.19956 0.3706 0.44151 0.0
C322 C 0.18978 0.35848 0.4583 0.0
C323 C 0.17616 0.32928 0.45873 0.0
C324 C 0.17225 0.31252 0.44175 0.0
C325 C 0.18192 0.32469 0.4249 0.0
C326 C 0.17597 0.39416 0.35264 0.0
C327 C 0.1246 0.31425 0.36302 0.0
C328 C 0.14737 0.33438 0.29393 0.0
Eu329 Eu 0.16366 0.3394 0.33008 0.0
C330 C 0.15886 0.34666 0.27613 0.0
C331 C 0.16519 0.33159 0.26261 0.0
C332 C 0.1745 0.34207 0.24528 0.0
C333 C 0.17749 0.36781 0.2409 0.0
C334 C 0.1715 0.38309 0.25456 0.0
C335 C 0.16226 0.37264 0.27194 0.0
C336 C 0.17661 0.30522 0.34829 0.0
C337 C 0.23068 0.38555 0.33835 0.0
O338 O 0.21278 0.35386 0.39444 0.0
O339 O 0.19464 0.38021 0.39978 0.0
O340 O 0.1986 0.40399 0.36407 0.0
O341 O 0.16197 0.36796 0.35208 0.0
O342 O 0.14794 0.32485 0.37447 0.0
O343 O 0.12458 0.32016 0.34513 0.0
O344 O 0.14418 0.35014 0.30691 0.0
O345 O 0.15633 0.31886 0.30134 0.0
O346 O 0.1547 0.29638 0.33628 0.0
O347 O 0.19162 0.33151 0.34922 0.0
O348 O 0.20768 0.37415 0.32643 0.0
O349 O 0.23009 0.38091 0.35651 0.0
H350 H 0.21007 0.39315 0.44165 0.0
H351 H 0.19268 0.37207 0.47092 0.0
H352 H 0.16211 0.29 0.44153 0.0
H353 H 0.17864 0.31127 0.41208 0.0
H354 H 0.16263 0.31145 0.26533 0.0
H355 H 0.17927 0.32988 0.23527 0.0
H356 H 0.17317 0.40279 0.25161 0.0
H357 H 0.15735 0.38473 0.28193 0.0
C358 C 0.66987 0.85919 0.40269 0.0
Eu359 Eu 0.66659 0.84209 0.36694 0.0
C360 C 0.6841 0.8606 0.4214 0.0
C361 C 0.68179 0.83659 0.42878 0.0
C362 C 0.69412 0.83842 0.44706 0.0
C363 C 0.7091 0.86429 0.4583 0.0
C364 C 0.71198 0.88834 0.4506 0.0
C365 C 0.69953 0.88647 0.4324 0.0
C366 C 0.6283 0.79207 0.34843 0.0
C367 C 0.70919 0.81804 0.36076 0.0
C368 C 0.67537 0.81417 0.29088 0.0
Eu369 Eu 0.67832 0.83044 0.32678 0.0
C370 C 0.66013 0.81182 0.27231 0.0
C371 C 0.67388 0.83061 0.25887 0.0
C372 C 0.66051 0.82772 0.24081 0.0
C373 C 0.63311 0.80577 0.23567 0.0
C374 C 0.6192 0.78715 0.24919 0.0
C375 C 0.63254 0.79013 0.26732 0.0
C376 C 0.71676 0.88029 0.34545 0.0
C377 C 0.63655 0.85525 0.33298 0.0
O378 O 0.68544 0.87535 0.39039 0.0
O379 O 0.65065 0.83454 0.39475 0.0
O380 O 0.62197 0.80714 0.35952 0.0
O381 O 0.6543 0.80337 0.3483 0.0
O382 O 0.70082 0.83148 0.37228 0.0
O383 O 0.70056 0.81194 0.34238 0.0
O384 O 0.66148 0.79719 0.30341 0.0
O385 O 0.69316 0.83942 0.29871 0.0
O386 O 0.72292 0.8652 0.33425 0.0
O387 O 0.69076 0.86918 0.34547 0.0
O388 O 0.64349 0.84035 0.32162 0.0
O389 O 0.64613 0.86209 0.35118 0.0
H390 H 0.67008 0.81634 0.42059 0.0
H391 H 0.69124 0.81942 0.45256 0.0
H392 H 0.7238 0.90868 0.45866 0.0
H393 H 0.7017 0.90529 0.42698 0.0
H394 H 0.69525 0.84731 0.2622 0.0
H395 H 0.67198 0.84217 0.23065 0.0
H396 H 0.598 0.77016 0.24573 0.0
H397 H 0.62133 0.77519 0.27728 0.0
C398 C 0.14199 0.8178 0.28294 0.0
Eu399 Eu 0.15704 0.83593 0.319 0.0
C400 C 0.15481 0.81762 0.26514 0.0
C401 C 0.17399 0.84249 0.25793 0.0
C402 C 0.18468 0.84164 0.24056 0.0
C403 C 0.17653 0.81593 0.23004 0.0
C404 C 0.1578 0.7911 0.23757 0.0
C405 C 0.14701 0.79197 0.25485 0.0
C406 C 0.17073 0.88657 0.33621 0.0
C407 C 0.22445 0.86157 0.32765 0.0
C408 C 0.19864 0.86442 0.39647 0.0
Eu409 Eu 0.18357 0.84819 0.36012 0.0
C410 C 0.18629 0.86288 0.41479 0.0
C411 C 0.18263 0.84203 0.42667 0.0
C412 C 0.17338 0.84194 0.4447 0.0
C413 C 0.16774 0.86282 0.45141 0.0
C414 C 0.17077 0.8833 0.43933 0.0
C415 C 0.18002 0.88338 0.42128 0.0
C416 C 0.1704 0.79793 0.34252 0.0
C417 C 0.11615 0.82328 0.35132 0.0
O418 O 0.14353 0.80256 0.29592 0.0
O419 O 0.14555 0.84172 0.29029 0.0
O420 O 0.14887 0.87175 0.32413 0.0
O421 O 0.18512 0.87488 0.33776 0.0
O422 O 0.20175 0.84757 0.31556 0.0
O423 O 0.2233 0.86768 0.34584 0.0
O424 O 0.19606 0.87993 0.38414 0.0
O425 O 0.19597 0.84133 0.38828 0.0
O426 O 0.19255 0.81312 0.35426 0.0
O427 O 0.15557 0.80919 0.3414 0.0
O428 O 0.13882 0.83694 0.36351 0.0
O429 O 0.11741 0.8172 0.33316 0.0
H430 H 0.18048 0.86263 0.26553 0.0
H431 H 0.19882 0.86121 0.23518 0.0
H432 H 0.15142 0.77089 0.23013 0.0
H433 H 0.13234 0.77249 0.26012 0.0
H434 H 0.18745 0.82603 0.42221 0.0
H435 H 0.17096 0.82564 0.4535 0.0
H436 H 0.16702 0.89994 0.44409 0.0
H437 H 0.18291 0.89997 0.41263 0.0
C438 C 0.87119 0.6932 0.73796 0.0
Eu439 Eu 0.85512 0.68939 0.70193 0.0
C440 C 0.85893 0.67942 0.75518 0.0
C441 C 0.84479 0.68895 0.76652 0.0
C442 C 0.83411 0.67656 0.78309 0.0
C443 C 0.83741 0.65442 0.78883 0.0
C444 C 0.85144 0.6448 0.77744 0.0
C445 C 0.86211 0.65717 0.76086 0.0
C446 C 0.84309 0.72436 0.68394 0.0
C447 C 0.7875 0.64569 0.69452 0.0
C448 C 0.80983 0.66302 0.62516 0.0
Eu449 Eu 0.8265 0.66798 0.66116 0.0
C450 C 0.82104 0.67654 0.60773 0.0
C451 C 0.82285 0.66067 0.59225 0.0
C452 C 0.83266 0.67262 0.57542 0.0
C453 C 0.84069 0.7007 0.57361 0.0
C454 C 0.83903 0.71668 0.58916 0.0
C455 C 0.8294 0.70477 0.60609 0.0
C456 C 0.83782 0.63267 0.67933 0.0
C457 C 0.89391 0.71193 0.66847 0.0
O458 O 0.87491 0.67826 0.72466 0.0
O459 O 0.86234 0.70904 0.73093 0.0
O460 O 0.8654 0.73293 0.69553 0.0
O461 O 0.82766 0.69823 0.68326 0.0
O462 O 0.81074 0.65629 0.70611 0.0
O463 O 0.78775 0.65005 0.6763 0.0
O464 O 0.80522 0.67735 0.6384 0.0
O465 O 0.82046 0.64865 0.63218 0.0
O466 O 0.8157 0.62442 0.66765 0.0
O467 O 0.85361 0.65875 0.67993 0.0
O468 O 0.87056 0.70189 0.65708 0.0
O469 O 0.89377 0.70695 0.68658 0.0
H470 H 0.84222 0.70624 0.76273 0.0
H471 H 0.82381 0.6848 0.79164 0.0
H472 H 0.85412 0.6276 0.7813 0.0
H473 H 0.87301 0.64939 0.75253 0.0
H474 H 0.81638 0.63885 0.5931 0.0
H475 H 0.83331 0.65963 0.56363 0.0
H476 H 0.84527 0.73843 0.58827 0.0
H477 H 0.82836 0.71763 0.61779 0.0
C478 C 0.34267 0.19673 0.73342 0.0
Eu479 Eu 0.33976 0.17924 0.69782 0.0
C480 C 0.35603 0.19724 0.75227 0.0
C481 C 0.35371 0.17289 0.75905 0.0
C482 C 0.36533 0.17383 0.77741 0.0
C483 C 0.3796 0.19913 0.78932 0.0
C484 C 0.38251 0.22356 0.7822 0.0
C485 C 0.37077 0.22257 0.76393 0.0
C486 C 0.30216 0.12894 0.67941 0.0
C487 C 0.3822 0.1547 0.69283 0.0
C488 C 0.35079 0.15111 0.62243 0.0
Eu489 Eu 0.35266 0.16732 0.6582 0.0
C490 C 0.33757 0.15056 0.60341 0.0
C491 C 0.35024 0.17345 0.59254 0.0
C492 C 0.3389 0.17208 0.57403 0.0
C493 C 0.31469 0.14775 0.56589 0.0
C494 C 0.30176 0.12504 0.57688 0.0
C495 C 0.31312 0.12639 0.59539 0.0
C496 C 0.38995 0.21779 0.67673 0.0
C497 C 0.30956 0.19092 0.66322 0.0
O498 O 0.35914 0.21246 0.7213 0.0
O499 O 0.3228 0.17252 0.72531 0.0
O500 O 0.29544 0.14402 0.69014 0.0
O501 O 0.32822 0.1403 0.67962 0.0
O502 O 0.37373 0.16845 0.70396 0.0
O503 O 0.37398 0.14842 0.6744 0.0
O504 O 0.33472 0.13458 0.63441 0.0
O505 O 0.36988 0.17548 0.63083 0.0
O506 O 0.39688 0.20277 0.66614 0.0
O507 O 0.36388 0.20621 0.67631 0.0
O508 O 0.31743 0.17644 0.65226 0.0
O509 O 0.31884 0.19838 0.68145 0.0
H510 H 0.34259 0.15305 0.75031 0.0
H511 H 0.36245 0.15455 0.78243 0.0
H512 H 0.39383 0.24352 0.79077 0.0
H513 H 0.37298 0.24164 0.75896 0.0
H514 H 0.36921 0.19233 0.59819 0.0
H515 H 0.34922 0.19007 0.56606 0.0
H516 H 0.28333 0.10582 0.57097 0.0
H517 H 0.30304 0.10825 0.60326 0.0
C518 C 0.80938 0.15105 0.61591 0.0
Eu519 Eu 0.82661 0.17071 0.65158 0.0
C520 C 0.82134 0.15199 0.59756 0.0
C521 C 0.8367 0.17718 0.58936 0.0
C522 C 0.84693 0.1773 0.57167 0.0
C523 C 0.84211 0.15225 0.56178 0.0
C524 C 0.82706 0.12715 0.5702 0.0
C525 C 0.81674 0.12703 0.58782 0.0
C526 C 0.84176 0.2224 0.66756 0.0
C527 C 0.89421 0.19582 0.65844 0.0
C528 C 0.87427 0.20409 0.72789 0.0
Eu529 Eu 0.85579 0.18545 0.69218 0.0
C530 C 0.86391 0.20646 0.74622 0.0
C531 C 0.88261 0.22609 0.7609 0.0
C532 C 0.87357 0.22875 0.77854 0.0
C533 C 0.84554 0.21184 0.78189 0.0
C534 C 0.82676 0.19215 0.76707 0.0
C535 C 0.83587 0.18953 0.74935 0.0
C536 C 0.84099 0.13409 0.67567 0.0
C537 C 0.78839 0.1604 0.68537 0.0
O538 O 0.81394 0.13725 0.62871 0.0
O539 O 0.81097 0.17402 0.62339 0.0
O540 O 0.81918 0.20712 0.65621 0.0
O541 O 0.85596 0.21051 0.66904 0.0
O542 O 0.87079 0.18121 0.64707 0.0
O543 O 0.89427 0.20342 0.67655 0.0
O544 O 0.87314 0.2196 0.71501 0.0
O545 O 0.86724 0.17893 0.72067 0.0
O546 O 0.8639 0.14962 0.68665 0.0
O547 O 0.82652 0.1457 0.6747 0.0
O548 O 0.81184 0.17619 0.69654 0.0
O549 O 0.78847 0.15198 0.66747 0.0
H550 H 0.84062 0.19681 0.59648 0.0
H551 H 0.85813 0.19699 0.56558 0.0
H552 H 0.82334 0.10752 0.56323 0.0
H553 H 0.805 0.10732 0.59382 0.0
H554 H 0.90433 0.23929 0.75876 0.0
H555 H 0.88871 0.24379 0.78969 0.0
H556 H 0.80501 0.17897 0.7691 0.0
H557 H 0.82108 0.17428 0.73814 0.0
H558 H 0.30365 0.82454 0.04829 0.0
H559 H 0.30285 0.88715 0.08723 0.0
H560 H 0.34641 0.86029 0.03711 0.0
H561 H 0.34639 0.92281 0.07639 0.0
H562 H 0.44073 0.96891 0.0651 0.0
H563 H 0.39711 0.93499 0.07671 0.0
H564 H 0.36111 0.90267 0.01871 0.0
H565 H 0.40467 0.93668 0.00702 0.0
C566 C 0.31244 0.84593 0.05442 0.0
C567 C 0.29943 0.85288 0.06855 0.0
C568 C 0.33704 0.86642 0.04801 0.0
C569 C 0.34964 0.89441 0.05572 0.0
C570 C 0.33721 0.90138 0.07022 0.0
C571 C 0.31231 0.88088 0.07649 0.0
C572 C 0.42347 0.9547 0.05479 0.0
C573 C 0.42625 0.95549 0.0351 0.0
C574 C 0.39844 0.93535 0.06147 0.0
C575 C 0.37572 0.91608 0.04864 0.0
C576 C 0.37835 0.91709 0.02896 0.0
C577 C 0.40326 0.9367 0.02226 0.0
H578 H 0.14442 0.41025 0.05183 0.0
H579 H 0.16965 0.47614 0.09723 0.0
H580 H 0.10799 0.41886 0.03933 0.0
H581 H 0.13384 0.48557 0.08441 0.0
H582 H 0.05213 0.48111 0.0659 0.0
H583 H 0.08567 0.46931 0.0796 0.0
H584 H 0.10197 0.45141 0.02291 0.0
H585 H 0.06767 0.4621 0.00928 0.0
C586 C 0.14225 0.42672 0.05906 0.0
C587 C 0.15996 0.44261 0.07545 0.0
C588 C 0.12144 0.43178 0.05185 0.0
C589 C 0.11799 0.4531 0.06072 0.0
C590 C 0.13552 0.46872 0.07732 0.0
C591 C 0.15615 0.46342 0.08466 0.0
C592 C 0.06279 0.47451 0.05636 0.0
C593 C 0.05716 0.47249 0.03648 0.0
C594 C 0.08219 0.46791 0.06423 0.0
C595 C 0.09668 0.45941 0.05242 0.0
C596 C 0.09092 0.45734 0.03251 0.0
C597 C 0.07131 0.46364 0.02466 0.0
H598 H 0.51359 0.70928 0.03715 0.0
H599 H 0.56894 0.70423 0.08013 0.0
H600 H 0.50187 0.66375 0.02213 0.0
H601 H 0.55582 0.65777 0.06578 0.0
H602 H 0.55024 0.5896 0.02241 0.0
H603 H 0.56198 0.63476 0.03863 0.0
H604 H 0.47708 0.61545 0.02561 0.0
H605 H 0.46579 0.57084 0.00886 0.0
C606 C 0.52324 0.69844 0.04345 0.0
C607 C 0.54236 0.71062 0.05983 0.0
C608 C 0.51617 0.67205 0.03498 0.0
C609 C 0.52781 0.6569 0.04273 0.0
C610 C 0.54668 0.66891 0.05925 0.0
C611 C 0.55392 0.69544 0.06766 0.0
C612 C 0.53413 0.59507 0.02308 0.0
C613 C 0.50717 0.57685 0.01427 0.0
C614 C 0.54078 0.62087 0.03248 0.0
C615 C 0.52053 0.62894 0.0334 0.0
C616 C 0.49339 0.61029 0.02488 0.0
C617 C 0.48683 0.58462 0.01536 0.0
H618 H 0.82395 0.31303 0.94164 0.0
H619 H 0.85824 0.27609 0.97869 0.0
H620 H 0.85686 0.35942 0.9579 0.0
H621 H 0.89134 0.32247 0.99478 0.0
H622 H 0.90094 0.43157 0.0078 0.0
H623 H 0.86701 0.38534 0.9919 0.0
H624 H 0.93305 0.36743 0.98425 0.0
H625 H 0.96708 0.41388 0.99987 0.0
C626 C 0.83842 0.31485 0.95334 0.0
C627 C 0.83846 0.29097 0.95898 0.0
C628 C 0.85718 0.34134 0.96265 0.0
C629 C 0.87673 0.34454 0.97754 0.0
C630 C 0.87663 0.32063 0.98326 0.0
C631 C 0.85754 0.29409 0.97419 0.0
C632 C 0.90819 0.41776 1.00268 0.0
C633 C 0.9366 0.42624 0.00511 0.0
C634 C 0.8888 0.39138 0.99353 0.0
C635 C 0.89738 0.37276 0.98693 0.0
C636 C 0.92583 0.38126 0.98937 0.0
C637 C 0.94529 0.40785 0.99821 0.0
H638 H 0.73022 0.59668 0.96991 0.0
H639 H 0.68385 0.53816 0.92071 0.0
H640 H 0.68702 0.58903 0.98182 0.0
H641 H 0.6403 0.52924 0.93295 0.0
H642 H 0.56579 0.53145 0.95361 0.0
H643 H 0.60933 0.54479 0.9399 0.0
H644 H 0.65003 0.55538 0.99631 0.0
H645 H 0.60684 0.54328 0.00997 0.0
C646 C 0.71066 0.5822 0.96163 0.0
C647 C 0.71031 0.56794 0.94444 0.0
C648 C 0.68584 0.57756 0.96853 0.0
C649 C 0.65994 0.55813 0.95857 0.0
C650 C 0.65972 0.54457 0.94098 0.0
C651 C 0.68466 0.54959 0.93393 0.0
C652 C 0.5841 0.53679 0.96308 0.0
C653 C 0.58283 0.53633 0.98291 0.0
C654 C 0.60911 0.54431 0.9552 0.0
C655 C 0.63342 0.55123 0.96692 0.0
C656 C 0.63203 0.55083 0.98678 0.0
C657 C 0.60714 0.54369 0.99467 0.0
H658 H 0.43747 0.12835 0.94071 0.0
H659 H 0.48836 0.19324 0.98598 0.0
H660 H 0.45186 0.09757 0.95454 0.0
H661 H 0.50128 0.16217 1.00034 0.0
H662 H 0.53952 0.11035 0.01473 0.0
H663 H 0.52801 0.14047 0.99726 0.0
H664 H 0.44503 0.07071 0.98106 0.0
H665 H 0.45712 0.04041 0.99802 0.0
C666 C 0.45179 0.13611 0.95355 0.0
C667 C 0.46157 0.16325 0.96228 0.0
C668 C 0.45977 0.11832 0.96163 0.0
C669 C 0.4777 0.12726 0.97863 0.0
C670 C 0.48777 0.15457 0.98712 0.0
C671 C 0.47998 0.17232 0.97901 0.0
C672 C 0.51886 0.10147 0.00737 0.0
C673 C 0.49914 0.07314 0.00785 0.0
C674 C 0.51217 0.11875 0.99741 0.0
C675 C 0.48544 0.10819 0.98788 0.0
C676 C 0.4659 0.07958 0.98804 0.0
C677 C 0.47273 0.06222 0.99786 0.0
H678 H 0.70505 0.13096 0.94102 0.0
H679 H 0.72913 0.18379 0.99389 0.0
H680 H 0.65914 0.10045 0.9515 0.0
H681 H 0.6831 0.15375 0.00439 0.0
H682 H 0.61234 0.07536 0.02592 0.0
H683 H 0.65688 0.1075 0.01472 0.0
H684 H 0.61573 0.09719 0.95861 0.0
H685 H 0.57126 0.06464 0.96968 0.0
C686 C 0.70022 0.13624 0.95476 0.0
C687 C 0.72033 0.15967 0.96665 0.0
C688 C 0.67396 0.11885 0.96077 0.0
C689 C 0.66738 0.12451 0.97886 0.0
C690 C 0.68753 0.14848 0.99052 0.0
C691 C 0.71377 0.16586 0.98447 0.0
C692 C 0.61274 0.07991 0.01118 0.0
C693 C 0.58813 0.06726 0.99872 0.0
C694 C 0.63831 0.09855 0.00478 0.0
C695 C 0.63998 0.10506 0.98574 0.0
C696 C 0.61534 0.09245 0.97329 0.0
C697 C 0.58976 0.07383 0.97969 0.0
H698 H 0.81944 0.51399 0.94579 0.0
H699 H 0.86869 0.59831 0.97258 0.0
H700 H 0.85785 0.50554 0.95372 0.0
H701 H 0.9074 0.59027 0.98033 0.0
H702 H 0.94741 0.54992 0.01615 0.0
H703 H 0.91406 0.56235 1.00326 0.0
H704 H 0.90581 0.51716 0.94911 0.0
H705 H 0.93906 0.50432 0.9621 0.0
C706 C 0.83887 0.53093 0.95288 0.0
C707 C 0.84141 0.5568 0.95851 0.0
C708 C 0.86086 0.52616 0.95742 0.0
C709 C 0.88562 0.54716 0.96783 0.0
C710 C 0.88847 0.57354 0.97256 0.0
C711 C 0.8665 0.57827 0.96797 0.0
C712 C 0.93866 0.54273 1.00145 0.0
C713 C 0.94587 0.526 0.99021 0.0
C714 C 0.91967 0.55008 0.994 0.0
C715 C 0.90732 0.54085 0.97512 0.0
C716 C 0.9148 0.52445 0.96375 0.0
C717 C 0.93394 0.51718 0.97119 0.0
H718 H 0.42641 0.29188 0.95151 0.0
H719 H 0.48291 0.29901 0.99873 0.0
H720 H 0.44293 0.34212 0.95719 0.0
H721 H 0.49896 0.3487 0.00485 0.0
H722 H 0.53879 0.44097 0.00408 0.0
H723 H 0.52493 0.39298 0.99296 0.0
H724 H 0.44022 0.3744 0.98035 0.0
H725 H 0.45445 0.42283 0.99095 0.0
C726 C 0.44252 0.30436 0.963 0.0
C727 C 0.45362 0.29196 0.97466 0.0
C728 C 0.45184 0.33299 0.96636 0.0
C729 C 0.47235 0.34955 0.98147 0.0
C730 C 0.48357 0.33684 0.99288 0.0
C731 C 0.47431 0.30836 0.98947 0.0
C732 C 0.51727 0.42667 0.99876 0.0
C733 C 0.49763 0.43549 0.99857 0.0
C734 C 0.50927 0.39912 0.99247 0.0
C735 C 0.48136 0.37963 0.986 0.0
C736 C 0.46192 0.38883 0.9851 0.0
C737 C 0.47001 0.41653 0.99128 0.0
H738 H 0.19058 0.69781 0.06321 0.0
H739 H 0.13287 0.72173 0.0405 0.0
H740 H 0.15504 0.64839 0.05598 0.0
H741 H 0.09737 0.67247 0.03287 0.0
H742 H 0.03329 0.58013 0.03048 0.0
H743 H 0.06652 0.62777 0.0444 0.0
H744 H 0.13427 0.6177 0.02675 0.0
H745 H 0.10113 0.57006 0.01328 0.0
C746 C 0.17003 0.69236 0.05703 0.0
C747 C 0.16419 0.71329 0.05251 0.0
C748 C 0.14978 0.66414 0.0527 0.0
C749 C 0.12338 0.6564 0.04366 0.0
C750 C 0.11731 0.67759 0.04 0.0
C751 C 0.13759 0.70579 0.04434 0.0
C752 C 0.05532 0.58807 0.02978 0.0
C753 C 0.06465 0.57145 0.02075 0.0
C754 C 0.07435 0.61539 0.03766 0.0
C755 C 0.10311 0.62664 0.03671 0.0
C756 C 0.11235 0.60966 0.02802 0.0
C757 C 0.09334 0.58241 0.02014 0.0
H758 H 0.27991 0.39816 0.05047 0.0
H759 H 0.3126 0.48332 0.07405 0.0
H760 H 0.32583 0.40994 0.04104 0.0
H761 H 0.35862 0.49544 0.0645 0.0
H762 H 0.44277 0.50264 0.05544 0.0
H763 H 0.39886 0.48831 0.06902 0.0
H764 H 0.35384 0.43752 0.01652 0.0
H765 H 0.39764 0.45156 1.00298 0.0
C766 C 0.29719 0.41926 0.05403 0.0
C767 C 0.29303 0.4398 0.06314 0.0
C768 C 0.32337 0.42611 0.04844 0.0
C769 C 0.34586 0.45371 0.05183 0.0
C770 C 0.34184 0.47395 0.06181 0.0
C771 C 0.31557 0.46706 0.06732 0.0
C772 C 0.42352 0.48831 0.04679 0.0
C773 C 0.42379 0.47827 0.02807 0.0
C774 C 0.39833 0.48019 0.05458 0.0
C775 C 0.3728 0.46168 0.04391 0.0
C776 C 0.37311 0.45146 0.02526 0.0
C777 C 0.39826 0.4597 0.01743 0.0
H778 H 0.59517 0.88123 0.04582 0.0
H779 H 0.5138 0.82864 0.06375 0.0
H780 H 0.58268 0.91658 0.03909 0.0
H781 H 0.50121 0.86414 0.05745 0.0
H782 H 0.47734 0.91049 0.01444 0.0
H783 H 0.49109 0.87945 0.02826 0.0
H784 H 0.57023 0.95074 0.05068 0.0
H785 H 0.55653 0.98185 0.03637 0.0
C786 C 0.57488 0.87772 0.04886 0.0
C787 C 0.55543 0.85248 0.05536 0.0
C788 C 0.5677 0.89794 0.04505 0.0
C789 C 0.54083 0.89314 0.04756 0.0
C790 C 0.52192 0.86834 0.05508 0.0
C791 C 0.52916 0.84814 0.05887 0.0
C792 C 0.4976 0.91955 0.02243 0.0
C793 C 0.51593 0.94855 0.02423 0.0
C794 C 0.50541 0.90177 0.03053 0.0
C795 C 0.53178 0.91255 0.04064 0.0
C796 C 0.54987 0.94171 0.04285 0.0
C797 C 0.542 0.95955 0.03475 0.0
H798 H 0.99061 0.16532 0.40099 0.0
H799 H 0.96069 0.22349 0.4059 0.0
H800 H 0.03398 0.20163 0.39033 0.0
H801 H 0.00402 0.25986 0.39478 0.0
H802 H 0.07112 0.29888 0.34957 0.0
H803 H 0.02785 0.26506 0.36204 0.0
H804 H 0.07542 0.25023 0.40544 0.0
H805 H 0.1185 0.28416 0.39334 0.0
C806 C 0.99346 0.18598 0.39987 0.0
C807 C 0.97248 0.19174 0.40434 0.0
C808 C 0.01822 0.20671 0.3938 0.0
C809 C 0.02228 0.2335 0.39169 0.0
C810 C 1.00131 0.23933 0.3962 0.0
C811 C 0.97671 0.21868 0.40268 0.0
C812 C 0.07231 0.28847 0.36181 0.0
C813 C 0.09823 0.2942 0.37045 0.0
C814 C 0.04759 0.26928 0.369 0.0
C815 C 0.04836 0.25507 0.38469 0.0
C816 C 0.07425 0.26082 0.3933 0.0
C817 C 0.0989 0.28033 0.38638 0.0
H818 H 0.79987 0.75481 0.42634 0.0
H819 H 0.85508 0.80233 0.38516 0.0
H820 H 0.76554 0.76629 0.41366 0.0
H821 H 0.82038 0.81317 0.37223 0.0
H822 H 0.73864 0.79914 0.34126 0.0
H823 H 0.77283 0.78772 0.35441 0.0
H824 H 0.75974 0.80807 0.41141 0.0
H825 H 0.72548 0.81943 0.39834 0.0
C826 C 0.80487 0.76795 0.41473 0.0
C827 C 0.83036 0.77768 0.40682 0.0
C828 C 0.7851 0.77442 0.40742 0.0
C829 C 0.79021 0.79055 0.39191 0.0
C830 C 0.81567 0.80035 0.38402 0.0
C831 C 0.83554 0.7941 0.39143 0.0
C832 C 0.74293 0.80107 0.3566 0.0
C833 C 0.72929 0.81021 0.36873 0.0
C834 C 0.76268 0.79471 0.36412 0.0
C835 C 0.76904 0.79708 0.38394 0.0
C836 C 0.75514 0.80584 0.39608 0.0
C837 C 0.73559 0.81247 0.38857 0.0
H838 H 0.20772 0.02673 0.41786 0.0
H839 H 0.21564 0.05927 0.36286 0.0
H840 H 0.19846 0.98202 0.40228 0.0
H841 H 0.20453 0.01396 0.34746 0.0
H842 H 0.1439 0.9159 0.33167 0.0
H843 H 0.15677 0.96181 0.34743 0.0
H844 H 0.22776 0.96551 0.37839 0.0
H845 H 0.21575 0.92018 0.36193 0.0
C846 C 0.20777 0.0246 0.40253 0.0
C847 C 0.21231 0.04682 0.39169 0.0
C848 C 0.20226 0.99888 0.39364 0.0
C849 C 0.20061 0.99463 0.37371 0.0
C850 C 0.2054 0.01671 0.36285 0.0
C851 C 0.21153 0.04259 0.37173 0.0
C852 C 0.16231 0.92654 0.34178 0.0
C853 C 0.17864 0.91431 0.34576 0.0
C854 C 0.16965 0.95277 0.35076 0.0
C855 C 0.19313 0.96699 0.36416 0.0
C856 C 0.20941 0.95476 0.36823 0.0
C857 C 0.20246 0.92883 0.35889 0.0
H858 H 0.54202 0.64013 0.2706 0.0
H859 H 0.48384 0.62791 0.31209 0.0
H860 H 0.57419 0.68628 0.28637 0.0
H861 H 0.51701 0.67354 0.32871 0.0
H862 H 0.57182 0.76793 0.34382 0.0
H863 H 0.53812 0.72252 0.32698 0.0
H864 H 0.60534 0.70846 0.31397 0.0
H865 H 0.63887 0.75422 0.33019 0.0
C866 C 0.53595 0.64729 0.28304 0.0
C867 C 0.51009 0.63021 0.28992 0.0
C868 C 0.55471 0.6737 0.29232 0.0
C869 C 0.5484 0.68374 0.30893 0.0
C870 C 0.52253 0.66672 0.31584 0.0
C871 C 0.5036 0.64033 0.30643 0.0
C872 C 0.5793 0.75508 0.3373 0.0
C873 C 0.60792 0.76458 0.33827 0.0
C874 C 0.56 0.72897 0.32775 0.0
C875 C 0.5689 0.71167 0.31907 0.0
C876 C 0.59765 0.72131 0.32015 0.0
C877 C 0.61692 0.7475 0.32955 0.0
H878 H 0.37658 0.86782 0.30206 0.0
H879 H 0.3749 0.92901 0.26755 0.0
H880 H 0.3335 0.85944 0.31442 0.0
H881 H 0.33093 0.91958 0.27946 0.0
H882 H 0.23643 0.86617 0.29061 0.0
H883 H 0.28054 0.87786 0.27813 0.0
H884 H 0.31817 0.88794 0.33537 0.0
H885 H 0.27407 0.87651 0.34796 0.0
C886 C 0.36717 0.87964 0.29716 0.0
C887 C 0.37957 0.89942 0.28395 0.0
C888 C 0.3424 0.87474 0.30424 0.0
C889 C 0.32903 0.88907 0.29807 0.0
C890 C 0.34081 0.9082 0.28444 0.0
C891 C 0.3659 0.91346 0.27754 0.0
C892 C 0.25415 0.87106 0.30057 0.0
C893 C 0.25172 0.87032 0.3203 0.0
C894 C 0.27943 0.8779 0.2934 0.0
C895 C 0.30273 0.8837 0.30576 0.0
C896 C 0.30045 0.88334 0.3255 0.0
C897 C 0.27527 0.87695 0.33272 0.0
H898 H 0.16033 0.51036 0.28105 0.0
H899 H 0.08969 0.47795 0.31401 0.0
H900 H 0.17518 0.48001 0.29538 0.0
H901 H 0.10435 0.44758 0.3282 0.0
H902 H 0.12492 0.37754 0.33451 0.0
H903 H 0.11013 0.40595 0.31757 0.0
H904 H 0.19287 0.47748 0.32955 0.0
H905 H 0.20763 0.44908 0.34666 0.0
C906 C 0.14787 0.49653 0.29119 0.0
C907 C 0.12393 0.49653 0.29648 0.0
C908 C 0.15644 0.47935 0.29947 0.0
C909 C 0.14093 0.46149 0.31291 0.0
C910 C 0.1166 0.46099 0.3178 0.0
C911 C 0.10831 0.47847 0.30977 0.0
C912 C 0.13996 0.39931 0.33346 0.0
C913 C 0.16737 0.4112 0.34197 0.0
C914 C 0.13148 0.41556 0.32382 0.0
C915 C 0.15034 0.44391 0.32227 0.0
C916 C 0.17795 0.45563 0.33041 0.0
C917 C 0.18634 0.43946 0.3403 0.0
H918 H 0.37633 0.46722 0.27455 0.0
H919 H 0.39652 0.52317 0.32542 0.0
H920 H 0.33015 0.43621 0.28462 0.0
H921 H 0.35039 0.49262 0.33549 0.0
H922 H 0.28202 0.41484 0.35865 0.0
H923 H 0.32631 0.44671 0.34713 0.0
H924 H 0.28524 0.43209 0.2904 0.0
H925 H 0.24084 0.39982 0.30186 0.0
C926 C 0.37059 0.47304 0.28772 0.0
C927 C 0.38967 0.49748 0.29922 0.0
C928 C 0.34421 0.45537 0.2935 0.0
C929 C 0.3366 0.4618 0.31095 0.0
C930 C 0.35568 0.48679 0.32213 0.0
C931 C 0.38197 0.50442 0.31632 0.0
C932 C 0.28235 0.41834 0.34371 0.0
C933 C 0.25778 0.40468 0.33121 0.0
C934 C 0.30778 0.43682 0.33712 0.0
C935 C 0.30936 0.44212 0.31785 0.0
C936 C 0.28483 0.42833 0.3053 0.0
C937 C 0.25933 0.40989 0.3119 0.0
H938 H 0.49209 0.85878 0.28459 0.0
H939 H 0.54759 0.94383 0.30834 0.0
H940 H 0.52875 0.84742 0.29149 0.0
H941 H 0.58449 0.93281 0.31507 0.0
H942 H 0.62223 0.89057 0.35085 0.0
H943 H 0.58995 0.90475 0.33865 0.0
H944 H 0.57541 0.85546 0.28514 0.0
H945 H 0.60768 0.84091 0.29744 0.0
C946 C 0.51247 0.87519 0.29076 0.0
C947 C 0.51731 0.90215 0.29586 0.0
C948 C 0.53344 0.86874 0.29472 0.0
C949 C 0.55945 0.88915 0.30401 0.0
C950 C 0.56456 0.91654 0.30816 0.0
C951 C 0.54361 0.92295 0.30415 0.0
C952 C 0.6123 0.8828 0.33645 0.0
C953 C 0.61752 0.86451 0.32517 0.0
C954 C 0.59394 0.89115 0.32938 0.0
C955 C 0.58022 0.88138 0.31087 0.0
C956 C 0.58556 0.86325 0.29949 0.0
C957 C 0.60412 0.855 0.30653 0.0
H958 H 0.0922 0.62697 0.28513 0.0
H959 H 0.14408 0.63176 0.33458 0.0
H960 H 0.10892 0.67722 0.29131 0.0
H961 H 0.16027 0.6814 0.34117 0.0
H962 H 0.20236 0.77383 0.34145 0.0
H963 H 0.18824 0.72587 0.33014 0.0
H964 H 0.10503 0.70947 0.31395 0.0
H965 H 0.11962 0.75798 0.32476 0.0
C966 C 0.10733 0.63893 0.29723 0.0
C967 C 0.11711 0.62589 0.30936 0.0
C968 C 0.11675 0.66757 0.30087 0.0
C969 C 0.13605 0.68346 0.31672 0.0
C970 C 0.14588 0.67008 0.32864 0.0
C971 C 0.13653 0.64162 0.32496 0.0
C972 C 0.18112 0.76003 0.33532 0.0
C973 C 0.162 0.76948 0.33418 0.0
C974 C 0.17296 0.73248 0.32891 0.0
C975 C 0.14536 0.7136 0.32139 0.0
C976 C 0.12649 0.72344 0.31955 0.0
C977 C 0.13476 0.75116 0.32584 0.0
H978 H 0.86554 0.02843 0.40055 0.0
H979 H 0.81397 0.05817 0.37551 0.0
H980 H 0.82754 0.98008 0.39306 0.0
H981 H 0.77595 0.0099 0.36769 0.0
H982 H 0.70713 0.91862 0.36446 0.0
H983 H 0.74185 0.9654 0.37918 0.0
H984 H 0.80753 0.95096 0.36278 0.0
H985 H 0.77296 0.90435 0.3484 0.0
C986 C 0.84577 0.02452 0.39385 0.0
C987 C 0.84239 0.04673 0.38868 0.0
C988 C 0.82412 0.99691 0.38939 0.0
C989 C 0.79879 0.9911 0.37959 0.0
C990 C 0.79506 0.01361 0.37539 0.0
C991 C 0.81676 0.04122 0.37983 0.0
C992 C 0.72901 0.92543 0.36421 0.0
C993 C 0.7374 0.90796 0.35523 0.0
C994 C 0.74887 0.95222 0.37256 0.0
C995 C 0.77747 0.96192 0.37219 0.0
C996 C 0.78571 0.94404 0.36359 0.0
C997 C 0.76591 0.91741 0.35519 0.0
H998 H 0.94831 0.7894 0.36511 0.0
H999 H 0.9679 0.75577 0.41331 0.0
H1000 H 0.99496 0.80598 0.35528 0.0
H1001 H 0.01473 0.77207 0.40345 0.0
H1002 H 0.10462 0.82844 0.38811 0.0
H1003 H 0.05942 0.81466 0.3995 0.0
H1004 H 0.02013 0.78432 0.34195 0.0
H1005 H 0.06522 0.79831 0.33049 0.0
C1006 C 0.96284 0.78587 0.37369 0.0
C1007 C 0.95483 0.77152 0.38995 0.0
C1008 C 0.98942 0.79511 0.36799 0.0
C1009 C 0.00851 0.79014 0.37848 0.0
C1010 C 1.0006 0.77641 0.39514 0.0
C1011 C 0.97388 0.76705 0.40079 0.0
C1012 C 0.08636 0.81883 0.37786 0.0
C1013 C 0.08862 0.81453 0.35834 0.0
C1014 C 0.06042 0.81082 0.38443 0.0
C1015 C 0.03616 0.7985 0.37164 0.0
C1016 C 0.03845 0.79414 0.35216 0.0
C1017 C 0.06432 0.802 0.3456 0.0
H1018 H 0.24327 0.2021 0.38051 0.0
H1019 H 0.16624 0.16681 0.40652 0.0
H1020 H 0.23855 0.24237 0.37342 0.0
H1021 H 0.16149 0.20712 0.39971 0.0
H1022 H 0.14092 0.25101 0.35252 0.0
H1023 H 0.15039 0.21846 0.36839 0.0
H1024 H 0.23514 0.28432 0.38475 0.0
H1025 H 0.22549 0.31719 0.36865 0.0
C1026 C 0.22588 0.20357 0.38532 0.0
C1027 C 0.20517 0.18165 0.39411 0.0
C1028 C 0.22315 0.22657 0.38128 0.0
C1029 C 0.19947 0.22779 0.38581 0.0
C1030 C 0.17978 0.20662 0.39583 0.0
C1031 C 0.18258 0.1837 0.39989 0.0
C1032 C 0.16153 0.25864 0.35963 0.0
C1033 C 0.18255 0.28653 0.3592 0.0
C1034 C 0.16689 0.24004 0.36892 0.0
C1035 C 0.1935 0.24879 0.37791 0.0
C1036 C 0.21446 0.27694 0.37788 0.0
C1037 C 0.20895 0.29573 0.36872 0.0
H1038 H 0.65798 0.52614 0.75843 0.0
H1039 H 0.61286 0.5429 0.71438 0.0
H1040 H 0.70191 0.5603 0.74731 0.0
H1041 H 0.65659 0.57769 0.70359 0.0
H1042 H 0.73662 0.61153 0.67453 0.0
H1043 H 0.69305 0.5801 0.68701 0.0
H1044 H 0.73363 0.60796 0.74446 0.0
H1045 H 0.77748 0.63863 0.73189 0.0
C1046 C 0.65752 0.53754 0.74659 0.0
C1047 C 0.63202 0.53172 0.73718 0.0
C1048 C 0.68269 0.55719 0.7402 0.0
C1049 C 0.68293 0.57168 0.72439 0.0
C1050 C 0.65732 0.5665 0.71549 0.0
C1051 C 0.63221 0.54668 0.72173 0.0
C1052 C 0.73624 0.61107 0.68983 0.0
C1053 C 0.76059 0.6276 0.70218 0.0
C1054 C 0.71114 0.59312 0.69704 0.0
C1055 C 0.70964 0.59141 0.71681 0.0
C1056 C 0.73399 0.60831 0.72916 0.0
C1057 C 0.75915 0.62607 0.72194 0.0
H1058 H 0.48302 0.07824 0.71781 0.0
H1059 H 0.51072 0.14499 0.76295 0.0
H1060 H 0.44858 0.08929 0.70482 0.0
H1061 H 0.47681 0.15674 0.74968 0.0
H1062 H 0.39653 0.15529 0.73069 0.0
H1063 H 0.42883 0.1421 0.74465 0.0
H1064 H 0.44508 0.12328 0.68817 0.0
H1065 H 0.41204 0.13546 0.67426 0.0
C1066 C 0.48185 0.09544 0.72487 0.0
C1067 C 0.49966 0.11085 0.74134 0.0
C1068 C 0.46217 0.10188 0.71738 0.0
C1069 C 0.45996 0.12409 0.72606 0.0
C1070 C 0.47759 0.13926 0.74272 0.0
C1071 C 0.49711 0.13262 0.75032 0.0
C1072 C 0.40693 0.14824 0.72125 0.0
C1073 C 0.40162 0.14637 0.70134 0.0
C1074 C 0.42562 0.14084 0.72927 0.0
C1075 C 0.43967 0.1316 0.71758 0.0
C1076 C 0.43432 0.12978 0.69766 0.0
C1077 C 0.41544 0.13693 0.68965 0.0
H1078 H 0.87781 0.36001 0.7506 0.0
H1079 H 0.88415 0.39405 0.69625 0.0
H1080 H 0.87025 0.31635 0.73425 0.0
H1081 H 0.87476 0.34973 0.68008 0.0
H1082 H 0.81353 0.25058 0.66487 0.0
H1083 H 0.82645 0.29626 0.68106 0.0
H1084 H 0.90087 0.30236 0.70827 0.0
H1085 H 0.88879 0.25732 0.69127 0.0
C1086 C 0.87795 0.35845 0.73526 0.0
C1087 C 0.88136 0.38066 0.7248 0.0
C1088 C 0.87343 0.33335 0.72593 0.0
C1089 C 0.87172 0.32979 0.70597 0.0
C1090 C 0.87571 0.35199 0.6955 0.0
C1091 C 0.88085 0.37726 0.70481 0.0
C1092 C 0.83273 0.26172 0.67421 0.0
C1093 C 0.84994 0.2502 0.67707 0.0
C1094 C 0.84008 0.28779 0.68344 0.0
C1095 C 0.86449 0.30254 0.69596 0.0
C1096 C 0.88179 0.29115 0.69881 0.0
C1097 C 0.87479 0.26537 0.6892 0.0
H1098 H 0.15389 0.9705 0.64197 0.0
H1099 H 0.2144 0.97078 0.60619 0.0
H1100 H 0.18832 0.01635 0.65696 0.0
H1101 H 0.24825 0.01783 0.62006 0.0
H1102 H 0.31189 0.0888 0.66377 0.0
H1103 H 0.27785 0.04319 0.64744 0.0
H1104 H 0.21297 0.06361 0.65343 0.0
H1105 H 0.24686 0.10839 0.67066 0.0
C1106 C 0.17451 0.98035 0.6372 0.0
C1107 C 0.18126 0.96661 0.62292 0.0
C1108 C 0.19424 0.00703 0.6456 0.0
C1109 C 0.22125 0.02109 0.63977 0.0
C1110 C 0.22787 0.00762 0.62519 0.0
C1111 C 0.20821 0.9807 0.61697 0.0
C1112 C 0.29031 0.08341 0.66157 0.0
C1113 C 0.28191 0.10192 0.66865 0.0
C1114 C 0.27077 0.05734 0.65206 0.0
C1115 C 0.24243 0.0494 0.64915 0.0
C1116 C 0.23436 0.0685 0.65579 0.0
C1117 C 0.25382 0.09431 0.66557 0.0
H1118 H 0.06192 0.23232 0.64265 0.0
H1119 H 0.02622 0.22608 0.58535 0.0
H1120 H 0.01962 0.22587 0.65512 0.0
H1121 H 0.98446 0.22146 0.59794 0.0
H1122 H 0.90164 0.17657 0.62407 0.0
H1123 H 0.94508 0.18764 0.61124 0.0
H1124 H 0.99096 0.24474 0.66138 0.0
H1125 H 0.94729 0.23274 0.67458 0.0
C1126 C 0.04512 0.22981 0.63269 0.0
C1127 C 0.04742 0.22931 0.61294 0.0
C1128 C 0.02091 0.22651 0.63989 0.0
C1129 C 0.99837 0.22292 0.62758 0.0
C1130 C 1.00113 0.22362 0.60787 0.0
C1131 C 0.02529 0.22669 0.60064 0.0
C1132 C 0.92097 0.19157 0.63237 0.0
C1133 C 0.92093 0.20364 0.65043 0.0
C1134 C 0.94599 0.19812 0.6249 0.0
C1135 C 0.97172 0.21715 0.6352 0.0
C1136 C 0.97163 0.22964 0.65314 0.0
C1137 C 0.94656 0.22286 0.6607 0.0
H1138 H 0.82914 0.86505 0.65234 0.0
H1139 H 0.77355 0.79948 0.60877 0.0
H1140 H 0.842 0.83346 0.66599 0.0
H1141 H 0.78783 0.76819 0.62176 0.0
H1142 H 0.79347 0.71117 0.66483 0.0
H1143 H 0.78195 0.74222 0.64848 0.0
H1144 H 0.86679 0.8098 0.66191 0.0
H1145 H 0.87783 0.7789 0.67885 0.0
C1146 C 0.81973 0.84389 0.64559 0.0
C1147 C 0.80001 0.83476 0.62957 0.0
C1148 C 0.82747 0.82583 0.65327 0.0
C1149 C 0.81599 0.79816 0.64502 0.0
C1150 C 0.79682 0.78921 0.62866 0.0
C1151 C 0.78889 0.80728 0.62105 0.0
C1152 C 0.80963 0.73265 0.6642 0.0
C1153 C 0.83646 0.74275 0.67325 0.0
C1154 C 0.80311 0.75043 0.6547 0.0
C1155 C 0.82337 0.77866 0.65393 0.0
C1156 C 0.85047 0.7884 0.66255 0.0
C1157 C 0.85688 0.77069 0.67219 0.0
H1158 H 0.02969 0.84585 0.61763 0.0
H1159 H 0.06657 0.80052 0.6413 0.0
H1160 H 0.98405 0.81043 0.62606 0.0
H1161 H 0.02103 0.76485 0.6496 0.0
H1162 H 0.94672 0.73371 0.68609 0.0
H1163 H 0.99068 0.76431 0.67354 0.0
H1164 H 0.94613 0.76143 0.62053 0.0
H1165 H 0.90211 0.73106 0.63312 0.0
C1166 C 0.02777 0.82779 0.6241 0.0
C1167 C 0.05136 0.82556 0.62863 0.0
C1168 C 1.0017 0.80755 0.62898 0.0
C1169 C 0.9989 0.7849 0.63869 0.0
C1170 C 0.0225 0.7822 0.6424 0.0
C1171 C 0.04849 0.80237 0.63744 0.0
C1172 C 0.94625 0.73948 0.67174 0.0
C1173 C 0.92081 0.72991 0.66067 0.0
C1174 C 0.9715 0.75688 0.66447 0.0
C1175 C 0.97197 0.76527 0.64598 0.0
C1176 C 0.94653 0.75555 0.63487 0.0
C1177 C 0.92128 0.73802 0.64209 0.0
H1178 H 0.16608 0.21031 0.65327 0.0
H1179 H 0.18275 0.20791 0.59456 0.0
H1180 H 0.20853 0.21013 0.66338 0.0
H1181 H 0.2261 0.20862 0.60457 0.0
H1182 H 0.27746 0.17021 0.62898 0.0
H1183 H 0.24006 0.17777 0.61711 0.0
H1184 H 0.25773 0.23533 0.66687 0.0
H1185 H 0.29446 0.22699 0.67904 0.0
C1186 C 0.17932 0.21037 0.64258 0.0
C1187 C 0.17147 0.20925 0.62322 0.0
C1188 C 0.20374 0.21042 0.64834 0.0
C1189 C 0.2209 0.2094 0.63482 0.0
C1190 C 0.21326 0.20909 0.61536 0.0
C1191 C 0.18865 0.20893 0.60961 0.0
C1192 C 0.27355 0.18469 0.63731 0.0
C1193 C 0.28877 0.19775 0.65508 0.0
C1194 C 0.25217 0.18918 0.63042 0.0
C1195 C 0.24562 0.207 0.64108 0.0
C1196 C 0.26174 0.221 0.65845 0.0
C1197 C 0.28293 0.21632 0.66541 0.0
H1198 H 0.82725 0.97739 0.63015 0.0
H1199 H 0.74865 0.95514 0.65155 0.0
H1200 H 0.8417 0.02703 0.63559 0.0
H1201 H 0.76302 0.00464 0.65738 0.0
H1202 H 0.79082 0.09647 0.6562 0.0
H1203 H 0.77515 0.0483 0.64375 0.0
H1204 H 0.85489 0.05914 0.66419 0.0
H1205 H 0.8706 0.10728 0.67622 0.0
C1206 C 0.81292 0.98325 0.63568 0.0
C1207 C 0.78689 0.96278 0.64038 0.0
C1208 C 0.82122 0.01158 0.63896 0.0
C1209 C 0.80362 0.01984 0.64708 0.0
C1210 C 0.77698 0.99905 0.65093 0.0
C1211 C 0.76874 0.97074 0.64765 0.0
C1212 C 0.80504 0.08857 0.65783 0.0
C1213 C 0.83187 0.10551 0.66724 0.0
C1214 C 0.79604 0.06098 0.65078 0.0
C1215 C 0.81375 0.04983 0.65298 0.0
C1216 C 0.84084 0.06713 0.66199 0.0
C1217 C 0.84979 0.09465 0.66905 0.0
H1218 H 0.47881 0.3865 0.73801 0.0
H1219 H 0.52785 0.38555 0.69327 0.0
H1220 H 0.44677 0.33605 0.73034 0.0
H1221 H 0.49584 0.33575 0.68512 0.0
H1222 H 0.44629 0.24287 0.68157 0.0
H1223 H 0.47954 0.29055 0.69492 0.0
H1224 H 0.41157 0.30452 0.70561 0.0
H1225 H 0.37836 0.25638 0.69285 0.0
C1226 C 0.48277 0.37533 0.72667 0.0
C1227 C 0.50568 0.38953 0.71626 0.0
C1228 C 0.4644 0.34657 0.72215 0.0
C1229 C 0.46867 0.33171 0.7071 0.0
C1230 C 0.49209 0.34622 0.69702 0.0
C1231 C 0.51039 0.37479 0.70159 0.0
C1232 C 0.4385 0.2561 0.68692 0.0
C1233 C 0.40981 0.24608 0.68599 0.0
C1234 C 0.45753 0.28348 0.69451 0.0
C1235 C 0.44832 0.30161 0.70114 0.0
C1236 C 0.41948 0.29116 0.70081 0.0
C1237 C 0.40042 0.26363 0.69337 0.0
H1238 H 0.64611 0.14881 0.73914 0.0
H1239 H 0.61923 0.06434 0.71674 0.0
H1240 H 0.69264 0.16423 0.72911 0.0
H1241 H 0.66562 0.07943 0.70683 0.0
H1242 H 0.73602 0.12323 0.66854 0.0
H1243 H 0.69183 0.1076 0.68186 0.0
H1244 H 0.73522 0.16075 0.73388 0.0
H1245 H 0.77954 0.17671 0.72048 0.0
C1246 C 0.65048 0.13348 0.73253 0.0
C1247 C 0.62942 0.10542 0.72885 0.0
C1248 C 0.67703 0.14225 0.72674 0.0
C1249 C 0.68278 0.1231 0.71699 0.0
C1250 C 0.66179 0.09478 0.71404 0.0
C1251 C 0.63535 0.08605 0.7199 0.0
C1252 C 0.73622 0.13164 0.68281 0.0
C1253 C 0.76141 0.15122 0.69341 0.0
C1254 C 0.71085 0.12249 0.69052 0.0
C1255 C 0.70997 0.13275 0.70901 0.0
C1256 C 0.73514 0.15252 0.71957 0.0
C1257 C 0.76056 0.16158 0.71189 0.0
H1258 H 0.8263 0.49532 0.73954 0.0
H1259 H 0.9038 0.5299 0.71413 0.0
H1260 H 0.8215 0.53526 0.73168 0.0
H1261 H 0.89902 0.56974 0.70597 0.0
H1262 H 0.8865 0.64426 0.69954 0.0
H1263 H 0.89567 0.61166 0.71629 0.0
H1264 H 0.81075 0.54603 0.70012 0.0
H1265 H 0.80166 0.57849 0.6837 0.0
C1266 C 0.84271 0.51199 0.7328 0.0
C1267 C 0.86547 0.50987 0.72751 0.0
C1268 C 0.83987 0.53467 0.72814 0.0
C1269 C 0.8597 0.55548 0.71798 0.0
C1270 C 0.88351 0.55421 0.71392 0.0
C1271 C 0.88628 0.53146 0.71858 0.0
C1272 C 0.86979 0.62293 0.6998 0.0
C1273 C 0.84342 0.61381 0.69026 0.0
C1274 C 0.87504 0.60428 0.70932 0.0
C1275 C 0.85392 0.57629 0.70961 0.0
C1276 C 0.82737 0.56753 0.70046 0.0
C1277 C 0.82222 0.58605 0.69087 0.0
H1278 H 0.42755 0.95147 0.23233 0.0
H1279 H 0.46855 0.90283 0.22932 0.0
H1280 H 0.44121 0.96653 0.20103 0.0
H1281 H 0.48241 0.91813 0.19803 0.0
H1282 H 0.5301 0.97933 0.15413 0.0
H1283 H 0.5141 0.96096 0.1843 0.0
H1284 H 0.43322 0.94976 0.16718 0.0
H1285 H 0.44912 0.96792 0.13688 0.0
C1286 C 0.43914 0.94365 0.2249 0.0
C1287 C 0.44694 0.92592 0.23343 0.0
C1288 C 0.44701 0.95234 0.20692 0.0
C1289 C 0.46299 0.94362 0.197 0.0
C1290 C 0.47049 0.9256 0.20539 0.0
C1291 C 0.46254 0.91684 0.22336 0.0
C1292 C 0.50877 0.97257 0.15664 0.0
C1293 C 0.49094 0.97516 0.143 0.0
C1294 C 0.49959 0.96204 0.17398 0.0
C1295 C 0.47237 0.95389 0.17821 0.0
C1296 C 0.45444 0.95622 0.16452 0.0
C1297 C 0.46359 0.96668 0.14714 0.0
H1298 H 0.07988 0.48973 0.23554 0.0
H1299 H 0.11341 0.57913 0.24062 0.0
H1300 H 0.06641 0.48722 0.20185 0.0
H1301 H 0.09823 0.57632 0.20713 0.0
H1302 H 0.08684 0.56605 0.14236 0.0
H1303 H 0.10546 0.56853 0.17503 0.0
H1304 H 0.03215 0.48997 0.18233 0.0
H1305 H 0.01403 0.48728 0.1496 0.0
C1306 C 0.08467 0.50895 0.22947 0.0
C1307 C 0.0978 0.53466 0.24092 0.0
C1308 C 0.07648 0.50741 0.21014 0.0
C1309 C 0.08092 0.5315 0.20171 0.0
C1310 C 0.09464 0.55733 0.21303 0.0
C1311 C 0.10305 0.5589 0.23235 0.0
C1312 C 0.07478 0.54931 0.15098 0.0
C1313 C 0.04898 0.52646 0.1434 0.0
C1314 C 0.0854 0.55075 0.16973 0.0
C1315 C 0.07034 0.52948 0.18143 0.0
C1316 C 0.04464 0.5065 0.17371 0.0
C1317 C 0.03416 0.50495 0.15492 0.0
H1318 H 0.43229 0.53196 0.22299 0.0
H1319 H 0.51934 0.59553 0.23177 0.0
H1320 H 0.43742 0.52379 0.18935 0.0
H1321 H 0.52408 0.58787 0.19838 0.0
H1322 H 0.51823 0.58724 0.13439 0.0
H1323 H 0.50784 0.59462 0.16659 0.0
H1324 H 0.46292 0.50544 0.16994 0.0
H1325 H 0.47293 0.49799 0.13751 0.0
C1326 C 0.45245 0.54421 0.2178 0.0
C1327 C 0.47528 0.56468 0.23012 0.0
C1328 C 0.45535 0.53956 0.19853 0.0
C1329 C 0.48108 0.55543 0.19117 0.0
C1330 C 0.50383 0.57575 0.20349 0.0
C1331 C 0.50103 0.5802 0.22268 0.0
C1332 C 0.50572 0.56917 0.14185 0.0
C1333 C 0.49652 0.54203 0.13342 0.0
C1334 C 0.49998 0.57341 0.16036 0.0
C1335 C 0.48474 0.55062 0.17086 0.0
C1336 C 0.47459 0.52341 0.16218 0.0
C1337 C 0.48055 0.51917 0.14369 0.0
H1338 H 0.9481 0.44679 0.77794 0.0
H1339 H 0.87959 0.45815 0.79161 0.0
H1340 H 0.96603 0.45736 0.81153 0.0
H1341 H 0.89799 0.46957 0.82516 0.0
H1342 H 0.91805 0.44816 0.88442 0.0
H1343 H 0.90195 0.44357 0.85083 0.0
H1344 H 0.98697 0.49415 0.83804 0.0
H1345 H 1.00312 0.49802 0.87155 0.0
C1346 C 0.93703 0.45183 0.7881 0.0
C1347 C 0.91231 0.45144 0.78211 0.0
C1348 C 0.94745 0.45816 0.80734 0.0
C1349 C 0.93337 0.46417 0.82107 0.0
C1350 C 0.90915 0.46469 0.81499 0.0
C1351 C 0.89878 0.45846 0.79572 0.0
C1352 C 0.93331 0.45829 0.87444 0.0
C1353 C 0.96188 0.47333 0.88067 0.0
C1354 C 0.92407 0.45593 0.85521 0.0
C1355 C 0.94317 0.46847 0.84172 0.0
C1356 C 0.97172 0.48401 0.84802 0.0
C1357 C 0.98096 0.48647 0.86727 0.0
H1358 H 0.54661 0.44058 0.78761 0.0
H1359 H 0.58283 0.53024 0.79076 0.0
H1360 H 0.53109 0.44063 0.81928 0.0
H1361 H 0.56822 0.53038 0.82257 0.0
H1362 H 0.50709 0.5156 0.86724 0.0
H1363 H 0.5248 0.51559 0.83651 0.0
H1364 H 0.54758 0.45537 0.85322 0.0
H1365 H 0.52899 0.4547 0.88383 0.0
C1366 C 0.55143 0.46031 0.79509 0.0
C1367 C 0.56595 0.48539 0.78658 0.0
C1368 C 0.54276 0.46037 0.81333 0.0
C1369 C 0.54829 0.4855 0.82346 0.0
C1370 C 0.56329 0.51061 0.81509 0.0
C1371 C 0.572 0.51056 0.79692 0.0
C1372 C 0.5157 0.5022 0.86434 0.0
C1373 C 0.51648 0.48506 0.878 0.0
C1374 C 0.52617 0.50244 0.84678 0.0
C1375 C 0.53769 0.48552 0.84238 0.0
C1376 C 0.53864 0.46847 0.85607 0.0
C1377 C 0.52824 0.46832 0.8737 0.0
H1378 H 0.54724 0.0507 0.78854 0.0
H1379 H 0.54237 0.12347 0.80737 0.0
H1380 H 0.54178 0.03637 0.82079 0.0
H1381 H 0.53612 0.10874 0.83952 0.0
H1382 H 0.54548 0.08384 0.89921 0.0
H1383 H 0.55776 0.10108 0.86808 0.0
H1384 H 0.50315 0.01772 0.84067 0.0
H1385 H 0.49066 1.00058 0.8716 0.0
C1386 C 0.54551 0.06392 0.79963 0.0
C1387 C 0.54514 0.08819 0.79533 0.0
C1388 C 0.54201 0.05551 0.81808 0.0
C1389 C 0.53817 0.07121 0.83273 0.0
C1390 C 0.53913 0.09619 0.82863 0.0
C1391 C 0.54251 0.10454 0.81016 0.0
C1392 C 0.53598 0.06921 0.88654 0.0
C1393 C 0.51712 0.04076 0.888 0.0
C1394 C 0.54308 0.0791 0.86869 0.0
C1395 C 0.53159 0.06077 0.85185 0.0
C1396 C 0.51287 0.03234 0.85334 0.0
C1397 C 0.50569 0.0225 0.87113 0.0
H1398 H 0.0764 0.24478 0.55013 0.0
H1399 H 0.16077 0.27281 0.57302 0.0
H1400 H 0.09328 0.26574 0.5209 0.0
H1401 H 0.17752 0.29234 0.54329 0.0
H1402 H 0.20154 0.3491 0.49521 0.0
H1403 H 0.1847 0.32935 0.5248 0.0
H1404 H 0.11219 0.2598 0.49296 0.0
H1405 H 0.12822 0.28045 0.46343 0.0
C1406 C 0.09859 0.25552 0.549 0.0
C1407 C 0.11719 0.25717 0.56408 0.0
C1408 C 0.10826 0.26718 0.53205 0.0
C1409 C 0.1368 0.28068 0.52959 0.0
C1410 C 0.15542 0.28241 0.54468 0.0
C1411 C 0.14577 0.27087 0.5617 0.0
C1412 C 0.18181 0.32977 0.49449 0.0
C1413 C 0.16621 0.31652 0.47683 0.0
C1414 C 0.17232 0.3182 0.51151 0.0
C1415 C 0.14704 0.29291 0.51138 0.0
C1416 C 0.13156 0.27949 0.49371 0.0
C1417 C 0.14098 0.29116 0.47669 0.0
H1418 H 0.78823 0.9169 0.57517 0.0
H1419 H 0.7488 0.82681 0.56975 0.0
H1420 H 0.77344 0.91529 0.54169 0.0
H1421 H 0.73436 0.8253 0.53624 0.0
H1422 H 0.73422 0.83602 0.47213 0.0
H1423 H 0.75238 0.83841 0.50494 0.0
H1424 H 0.72897 0.89918 0.52228 0.0
H1425 H 0.71047 0.89652 0.48969 0.0
C1426 C 0.77641 0.89675 0.56686 0.0
C1427 C 0.76962 0.87198 0.57523 0.0
C1428 C 0.76796 0.89584 0.54766 0.0
C1429 C 0.75262 0.87016 0.53632 0.0
C1430 C 0.74643 0.84545 0.54452 0.0
C1431 C 0.75477 0.84634 0.56375 0.0
C1432 C 0.73277 0.84976 0.48295 0.0
C1433 C 0.72091 0.86612 0.47819 0.0
C1434 C 0.74324 0.85116 0.50175 0.0
C1435 C 0.74222 0.86907 0.51621 0.0
C1436 C 0.73054 0.88555 0.51143 0.0
C1437 C 0.71996 0.88404 0.4927 0.0
H1438 H 0.09756 0.87068 0.55919 0.0
H1439 H 0.18662 0.91022 0.57162 0.0
H1440 H 0.10176 0.85813 0.52608 0.0
H1441 H 0.19089 0.89829 0.53881 0.0
H1442 H 0.1896 0.8531 0.48384 0.0
H1443 H 0.18018 0.85833 0.51659 0.0
H1444 H 0.12083 0.88228 0.49717 0.0
H1445 H 0.12956 0.87611 0.46418 0.0
C1446 C 0.11795 0.87649 0.55489 0.0
C1447 C 0.14177 0.89162 0.56797 0.0
C1448 C 0.1204 0.86953 0.53592 0.0
C1449 C 0.14668 0.8772 0.52978 0.0
C1450 C 0.17031 0.89174 0.54305 0.0
C1451 C 0.16789 0.89885 0.56184 0.0
C1452 C 0.17412 0.85894 0.48645 0.0
C1453 C 0.16042 0.86426 0.4713 0.0
C1454 C 0.16894 0.86224 0.50529 0.0
C1455 C 0.14992 0.87097 0.50955 0.0
C1456 C 0.13548 0.87539 0.49439 0.0
C1457 C 0.14073 0.87215 0.4755 0.0
H1458 H 0.5339 0.74245 0.12481 0.0
H1459 H 0.60795 0.8189 0.11545 0.0
H1460 H 0.54834 0.75132 0.15898 0.0
H1461 H 0.62269 0.82763 0.14954 0.0
H1462 H 0.63389 0.84552 0.21389 0.0
H1463 H 0.61433 0.83894 0.18088 0.0
H1464 H 0.58307 0.75015 0.17983 0.0
H1465 H 0.60228 0.75674 0.2128 0.0
C1466 C 0.55322 0.76123 0.13009 0.0
C1467 C 0.56985 0.7799 0.11742 0.0
C1468 C 0.56157 0.76627 0.14966 0.0
C1469 C 0.58685 0.79006 0.15706 0.0
C1470 C 0.60295 0.80927 0.14444 0.0
C1471 C 0.59451 0.80428 0.12486 0.0
C1472 C 0.62277 0.8246 0.20659 0.0
C1473 C 0.61968 0.80166 0.21598 0.0
C1474 C 0.61159 0.82082 0.18766 0.0
C1475 C 0.59714 0.79402 0.17762 0.0
C1476 C 0.59361 0.77104 0.18717 0.0
C1477 C 0.60468 0.7748 0.2061 0.0
H1478 H 0.25125 0.85601 0.12268 0.0
H1479 H 0.21147 0.76601 0.12004 0.0
H1480 H 0.23728 0.85735 0.15464 0.0
H1481 H 0.19713 0.76741 0.15188 0.0
H1482 H 0.14785 0.77992 0.19802 0.0
H1483 H 0.16445 0.77832 0.16711 0.0
H1484 H 0.24517 0.84844 0.18777 0.0
H1485 H 0.22876 0.84979 0.21894 0.0
C1486 C 0.23986 0.83652 0.12898 0.0
C1487 C 0.23246 0.81089 0.11866 0.0
C1488 C 0.23179 0.83731 0.14732 0.0
C1489 C 0.21595 0.81248 0.15581 0.0
C1490 C 0.20892 0.78689 0.14564 0.0
C1491 C 0.21713 0.7861 0.12735 0.0
C1492 C 0.16928 0.79476 0.19615 0.0
C1493 C 0.18694 0.81493 0.21111 0.0
C1494 C 0.17879 0.79386 0.17835 0.0
C1495 C 0.20617 0.81321 0.17495 0.0
C1496 C 0.22386 0.83342 0.18985 0.0
C1497 C 0.2144 0.83422 0.20772 0.0
H1498 H 0.20512 0.458 0.14066 0.0
H1499 H 0.21502 0.3882 0.12205 0.0
H1500 H 0.20066 0.44389 0.17295 0.0
H1501 H 0.21138 0.37451 0.15451 0.0
H1502 H 0.16158 0.33727 0.20594 0.0
H1503 H 0.17354 0.35401 0.17483 0.0
H1504 H 0.22383 0.43856 0.20143 0.0
H1505 H 0.21203 0.42177 0.23269 0.0
C1506 C 0.20677 0.43987 0.14354 0.0
C1507 C 0.2102 0.4241 0.12872 0.0
C1508 C 0.20443 0.4319 0.1621 0.0
C1509 C 0.20539 0.40789 0.16633 0.0
C1510 C 0.21012 0.39287 0.15169 0.0
C1511 C 0.21257 0.40092 0.13313 0.0
C1512 C 0.1756 0.35939 0.20525 0.0
C1513 C 0.18581 0.37813 0.22192 0.0
C1514 C 0.18248 0.369 0.18736 0.0
C1515 C 0.19971 0.39765 0.18558 0.0
C1516 C 0.21025 0.4164 0.20224 0.0
C1517 C 0.20342 0.40676 0.22018 0.0
H1518 H 0.82302 0.61706 0.90696 0.0
H1519 H 0.73912 0.56507 0.88018 0.0
H1520 H 0.83876 0.63366 0.87635 0.0
H1521 H 0.75488 0.58174 0.84951 0.0
H1522 H 0.78815 0.64228 0.803 0.0
H1523 H 0.77194 0.62378 0.83316 0.0
H1524 H 0.84615 0.61884 0.8454 0.0
H1525 H 0.86284 0.63833 0.81561 0.0
C1526 C 0.80797 0.60886 0.8945 0.0
C1527 C 0.77978 0.58968 0.89609 0.0
C1528 C 0.81701 0.61842 0.87691 0.0
C1529 C 0.79811 0.60907 0.86041 0.0
C1530 C 0.76995 0.58972 0.86195 0.0
C1531 C 0.7609 0.58014 0.87956 0.0
C1532 C 0.8011 0.63741 0.81218 0.0
C1533 C 0.82687 0.64191 0.80686 0.0
C1534 C 0.79164 0.62649 0.82939 0.0
C1535 C 0.80773 0.61982 0.84176 0.0
C1536 C 0.83335 0.62403 0.83634 0.0
C1537 C 0.84278 0.6349 0.81912 0.0
H1538 H 0.41502 0.15692 0.90039 0.0
H1539 H 0.45365 0.24692 0.90741 0.0
H1540 H 0.4024 0.1567 0.86669 0.0
H1541 H 0.44071 0.2466 0.87377 0.0
H1542 H 0.37943 0.22961 0.8212 0.0
H1543 H 0.39677 0.23086 0.85385 0.0
H1544 H 0.42142 0.17135 0.83576 0.0
H1545 H 0.40445 0.1704 0.80286 0.0
C1546 C 0.42125 0.17671 0.8947 0.0
C1547 C 0.43521 0.20193 0.9067 0.0
C1548 C 0.41395 0.17656 0.87537 0.0
C1549 C 0.42033 0.20161 0.86757 0.0
C1550 C 0.43504 0.22689 0.87941 0.0
C1551 C 0.44244 0.22706 0.89871 0.0
C1552 C 0.38896 0.21711 0.82405 0.0
C1553 C 0.39062 0.2 0.80929 0.0
C1554 C 0.39888 0.21781 0.84283 0.0
C1555 C 0.41059 0.2013 0.84742 0.0
C1556 C 0.41227 0.18413 0.83272 0.0
C1557 C 0.40248 0.18355 0.81387 0.0
H1558 H 0.85378 0.26017 0.9009 0.0
H1559 H 0.76667 0.19814 0.88866 0.0
H1560 H 0.86088 0.25482 0.86769 0.0
H1561 H 0.77395 0.19256 0.85516 0.0
H1562 H 0.80978 0.17019 0.80254 0.0
H1563 H 0.79811 0.17509 0.83487 0.0
H1564 H 0.8489 0.26484 0.83652 0.0
H1565 H 0.86046 0.25999 0.80432 0.0
C1566 C 0.83599 0.24568 0.89107 0.0
C1567 C 0.80954 0.22988 0.89748 0.0
C1568 C 0.8401 0.24257 0.87197 0.0
C1569 C 0.81794 0.22346 0.85869 0.0
C1570 C 0.7915 0.20736 0.86506 0.0
C1571 C 0.78733 0.21056 0.88424 0.0
C1572 C 0.8181 0.19098 0.80969 0.0
C1573 C 0.83635 0.21468 0.8009 0.0
C1574 C 0.81141 0.19378 0.82823 0.0
C1575 C 0.82285 0.22034 0.83839 0.0
C1576 C 0.84022 0.24404 0.82928 0.0
C1577 C 0.84686 0.24125 0.81081 0.0
H1578 H 0.28212 0.11155 0.44342 0.0
H1579 H 0.21863 0.13045 0.45788 0.0
H1580 H 0.30166 0.12291 0.47664 0.0
H1581 H 0.23873 0.14271 0.49111 0.0
H1582 H 0.26021 0.1242 0.5511 0.0
H1583 H 0.24218 0.11797 0.51776 0.0
H1584 H 0.3262 0.1609 0.50178 0.0
H1585 H 0.34417 0.16621 0.53498 0.0
C1586 C 0.27248 0.11837 0.45368 0.0
C1587 C 0.2487 0.1199 0.44802 0.0
C1588 C 0.28385 0.12516 0.47271 0.0
C1589 C 0.27171 0.13363 0.48659 0.0
C1590 C 0.24839 0.13594 0.48083 0.0
C1591 C 0.23706 0.12923 0.46175 0.0
C1592 C 0.27483 0.13225 0.54046 0.0
C1593 C 0.30364 0.14559 0.54574 0.0
C1594 C 0.2645 0.12897 0.52137 0.0
C1595 C 0.28274 0.13888 0.50706 0.0
C1596 C 0.31156 0.15274 0.5124 0.0
C1597 C 0.32187 0.15607 0.53148 0.0
H1598 H 0.8576 0.13332 0.44004 0.0
H1599 H 0.94109 0.16683 0.46684 0.0
H1600 H 0.84129 0.13496 0.47114 0.0
H1601 H 0.92479 0.16806 0.498 0.0
H1602 H 0.89157 0.19099 0.54937 0.0
H1603 H 0.90774 0.19111 0.51802 0.0
H1604 H 0.83263 0.1127 0.49981 0.0
H1605 H 0.81582 0.11338 0.53075 0.0
C1606 C 0.87244 0.14086 0.4526 0.0
C1607 C 0.90065 0.14994 0.45094 0.0
C1608 C 0.86309 0.14174 0.47047 0.0
C1609 C 0.88167 0.15157 0.48718 0.0
C1610 C 0.90993 0.16079 0.48547 0.0
C1611 C 0.91929 0.16005 0.46758 0.0
C1612 C 0.87833 0.17394 0.53862 0.0
C1613 C 0.85234 0.15218 0.54268 0.0
C1614 C 0.88778 0.17382 0.52067 0.0
C1615 C 0.87156 0.15189 0.5063 0.0
C1616 C 0.84559 0.13014 0.51039 0.0
C1617 C 0.8361 0.13032 0.52828 0.0
H1618 H 0.87238 0.7148 0.45533 0.0
H1619 H 0.87729 0.79323 0.47251 0.0
H1620 H 0.86761 0.70291 0.48809 0.0
H1621 H 0.87301 0.78163 0.50545 0.0
H1622 H 0.82555 0.73354 0.55475 0.0
H1623 H 0.83751 0.75034 0.5236 0.0
H1624 H 0.88877 0.71234 0.51997 0.0
H1625 H 0.8763 0.6951 0.55101 0.0
C1626 C 0.87315 0.72983 0.46621 0.0
C1627 C 0.87511 0.75491 0.4613 0.0
C1628 C 0.8704 0.72302 0.48504 0.0
C1629 C 0.86969 0.74119 0.49948 0.0
C1630 C 0.87288 0.76685 0.49467 0.0
C1631 C 0.87548 0.77358 0.47581 0.0
C1632 C 0.83969 0.72913 0.54742 0.0
C1633 C 0.84984 0.71285 0.55531 0.0
C1634 C 0.84664 0.73882 0.52954 0.0
C1635 C 0.86407 0.73265 0.51915 0.0
C1636 C 0.87489 0.71707 0.52736 0.0
C1637 C 0.86779 0.70723 0.54518 0.0
loop_
_geom_bond_atom_site_label_1
_geom_bond_atom_site_label_2
_geom_bond_distance
_geom_bond_site_symmetry_2
_ccdc_geom_bond_type
H0 C3 0.929 . S
H1 C6 0.929 . S
H2 C8 0.930 . S
C3 H0 0.929 . S
C3 C4 1.398 . S
C3 C5 1.396 . S
C4 C3 1.398 . S
C4 C8 1.407 . S
C5 C3 1.396 . S
C5 C6 1.394 . S
C6 H1 0.929 . S
C6 C5 1.394 . S
C6 C7 1.382 . S
C7 C6 1.382 . S
C7 C8 1.392 . S
C7 N9 1.420 . S
C8 H2 0.930 . S
C8 C4 1.407 . S
C8 C7 1.392 . S
N9 C7 1.420 . S
N9 C10 1.244 . S
C10 N9 1.244 . S
H11 C14 0.929 . S
H12 C17 0.929 . S
H13 C19 0.930 . S
C14 H11 0.929 . S
C14 C15 1.398 . S
C14 C16 1.396 . S
C15 C14 1.398 . S
C15 C19 1.407 . S
C16 C14 1.396 . S
C16 C17 1.394 . S
C17 H12 0.929 . S
C17 C16 1.394 . S
C17 C18 1.382 . S
C18 C17 1.382 . S
C18 C19 1.392 . S
C18 N20 1.420 . S
C19 H13 0.930 . S
C19 C15 1.407 . S
C19 C18 1.392 . S
N20 C18 1.420 . S
N20 C21 1.244 . S
C21 N20 1.244 . S
H22 C25 0.929 . S
H23 C28 0.929 . S
H24 C30 0.930 . S
C25 H22 0.929 . S
C25 C26 1.398 . S
C25 C27 1.396 . S
C26 C25 1.398 . S
C26 C30 1.407 . S
C27 C25 1.396 . S
C27 C28 1.394 . S
C28 H23 0.929 . S
C28 C27 1.394 . S
C28 C29 1.382 . S
C29 C28 1.382 . S
C29 C30 1.392 . S
C29 N31 1.420 . S
C30 H24 0.930 . S
C30 C26 1.407 . S
C30 C29 1.392 . S
N31 C29 1.420 . S
N31 C32 1.244 . S
C32 N31 1.244 . S
H33 C36 0.929 . S
H34 C39 0.929 . S
H35 C41 0.930 . S
C36 H33 0.929 . S
C36 C37 1.398 . S
C36 C38 1.396 . S
C37 C36 1.398 . S
C37 C41 1.407 . S
C38 C36 1.396 . S
C38 C39 1.394 . S
C39 H34 0.929 . S
C39 C38 1.394 . S
C39 C40 1.382 . S
C40 C39 1.382 . S
C40 C41 1.392 . S
C40 N42 1.420 . S
C41 H35 0.930 . S
C41 C37 1.407 . S
C41 C40 1.392 . S
N42 C40 1.420 . S
N42 C43 1.244 . S
C43 N42 1.244 . S
H44 C47 0.929 . S
H45 C50 0.929 . S
H46 C52 0.930 . S
C47 H44 0.929 . S
C47 C48 1.398 . S
C47 C49 1.396 . S
C48 C47 1.398 . S
C48 C52 1.407 . S
C49 C47 1.396 . S
C49 C50 1.394 . S
C50 H45 0.929 . S
C50 C49 1.394 . S
C50 C51 1.382 . S
C51 C50 1.382 . S
C51 C52 1.392 . S
C51 N53 1.420 . S
C52 H46 0.930 . S
C52 C48 1.407 . S
C52 C51 1.392 . S
N53 C51 1.420 . S
N53 C54 1.244 . S
C54 N53 1.244 . S
H55 C58 0.929 . S
H56 C61 0.929 . S
H57 C63 0.930 . S
C58 H55 0.929 . S
C58 C59 1.398 . S
C58 C60 1.396 . S
C59 C58 1.398 . S
C59 C63 1.407 . S
C60 C58 1.396 . S
C60 C61 1.394 . S
C61 H56 0.929 . S
C61 C60 1.394 . S
C61 C62 1.382 . S
C62 C61 1.382 . S
C62 C63 1.392 . S
C62 N64 1.420 . S
C63 H57 0.930 . S
C63 C59 1.407 . S
C63 C62 1.392 . S
N64 C62 1.420 . S
N64 C65 1.244 . S
C65 N64 1.244 . S
H66 C69 0.929 . S
H67 C72 0.929 . S
H68 C74 0.930 . S
C69 H66 0.929 . S
C69 C70 1.398 . S
C69 C71 1.396 . S
C70 C69 1.398 . S
C70 C74 1.407 . S
C71 C69 1.396 . S
C71 C72 1.394 . S
C72 H67 0.929 . S
C72 C71 1.394 . S
C72 C73 1.382 . S
C73 C72 1.382 . S
C73 C74 1.392 . S
C73 N75 1.420 . S
C74 H68 0.930 . S
C74 C70 1.407 . S
C74 C73 1.392 . S
N75 C73 1.420 . S
N75 C76 1.244 . S
C76 N75 1.244 . S
H77 C80 0.929 . S
H78 C83 0.929 . S
H79 C85 0.930 . S
C80 H77 0.929 . S
C80 C81 1.398 . S
C80 C82 1.396 . S
C81 C80 1.398 . S
C81 C85 1.407 . S
C82 C80 1.396 . S
C82 C83 1.394 . S
C83 H78 0.929 . S
C83 C82 1.394 . S
C83 C84 1.382 . S
C84 C83 1.382 . S
C84 C85 1.392 . S
C84 N86 1.420 . S
C85 H79 0.930 . S
C85 C81 1.407 . S
C85 C84 1.392 . S
N86 C84 1.420 . S
N86 C87 1.244 . S
C87 N86 1.244 . S
H88 C91 0.929 . S
H89 C94 0.929 . S
H90 C96 0.930 . S
C91 H88 0.929 . S
C91 C92 1.398 . S
C91 C93 1.396 . S
C92 C91 1.398 . S
C92 C96 1.407 . S
C93 C91 1.396 . S
C93 C94 1.394 . S
C94 H89 0.929 . S
C94 C93 1.394 . S
C94 C95 1.382 . S
C95 C94 1.382 . S
C95 C96 1.392 . S
C95 N97 1.420 . S
C96 H90 0.930 . S
C96 C92 1.407 . S
C96 C95 1.392 . S
N97 C95 1.420 . S
N97 C98 1.244 . S
C98 N97 1.244 . S
H99 C102 0.929 . S
H100 C105 0.929 . S
H101 C107 0.930 . S
C102 H99 0.929 . S
C102 C103 1.398 . S
C102 C104 1.396 . S
C103 C102 1.398 . S
C103 C107 1.407 . S
C104 C102 1.396 . S
C104 C105 1.394 . S
C105 H100 0.929 . S
C105 C104 1.394 . S
C105 C106 1.382 . S
C106 C105 1.382 . S
C106 C107 1.392 . S
C106 N108 1.420 . S
C107 H101 0.930 . S
C107 C103 1.407 . S
C107 C106 1.392 . S
N108 C106 1.420 . S
N108 C109 1.244 . S
C109 N108 1.244 . S
H110 C113 0.929 . S
H111 C116 0.929 . S
H112 C118 0.930 . S
C113 H110 0.929 . S
C113 C114 1.398 . S
C113 C115 1.396 . S
C114 C113 1.398 . S
C114 C118 1.407 . S
C115 C113 1.396 . S
C115 C116 1.394 . S
C116 H111 0.929 . S
C116 C115 1.394 . S
C116 C117 1.382 . S
C117 C116 1.382 . S
C117 C118 1.392 . S
C117 N119 1.420 . S
C118 H112 0.930 . S
C118 C114 1.407 . S
C118 C117 1.392 . S
N119 C117 1.420 . S
N119 C120 1.244 . S
C120 N119 1.244 . S
H121 C124 0.929 . S
H122 C127 0.929 . S
H123 C129 0.930 . S
C124 H121 0.929 . S
C124 C125 1.398 . S
C124 C126 1.396 . S
C125 C124 1.398 . S
C125 C129 1.407 . S
C126 C124 1.396 . S
C126 C127 1.394 . S
C127 H122 0.929 . S
C127 C126 1.394 . S
C127 C128 1.382 . S
C128 C127 1.382 . S
C128 C129 1.392 . S
C128 N130 1.420 . S
C129 H123 0.930 . S
C129 C125 1.407 . S
C129 C128 1.392 . S
N130 C128 1.420 . S
N130 C131 1.244 . S
C131 N130 1.244 . S
H132 C135 0.929 . S
H133 C138 0.929 . S
H134 C140 0.930 . S
C135 H132 0.929 . S
C135 C136 1.398 . S
C135 C137 1.396 . S
C136 C135 1.398 . S
C136 C140 1.407 . S
C137 C135 1.396 . S
C137 C138 1.394 . S
C138 H133 0.929 . S
C138 C137 1.394 . S
C138 C139 1.382 . S
C139 C138 1.382 . S
C139 C140 1.392 . S
C139 N141 1.420 . S
C140 H134 0.930 . S
C140 C136 1.407 . S
C140 C139 1.392 . S
N141 C139 1.420 . S
N141 C142 1.244 . S
C142 N141 1.244 . S
H143 C146 0.929 . S
H144 C149 0.929 . S
H145 C151 0.930 . S
C146 H143 0.929 . S
C146 C147 1.398 . S
C146 C148 1.396 . S
C147 C146 1.398 . S
C147 C151 1.407 . S
C148 C146 1.396 . S
C148 C149 1.394 . S
C149 H144 0.929 . S
C149 C148 1.394 . S
C149 C150 1.382 . S
C150 C149 1.382 . S
C150 C151 1.392 . S
C150 N152 1.420 . S
C151 H145 0.930 . S
C151 C147 1.407 . S
C151 C150 1.392 . S
N152 C150 1.420 . S
N152 C153 1.244 . S
C153 N152 1.244 . S
H154 C157 0.929 . S
H155 C160 0.929 . S
H156 C162 0.930 . S
C157 H154 0.929 . S
C157 C158 1.398 . S
C157 C159 1.396 . S
C158 C157 1.398 . S
C158 C162 1.407 . S
C159 C157 1.396 . S
C159 C160 1.394 . S
C160 H155 0.929 . S
C160 C159 1.394 . S
C160 C161 1.382 . S
C161 C160 1.382 . S
C161 C162 1.392 . S
C161 N163 1.420 . S
C162 H156 0.930 . S
C162 C158 1.407 . S
C162 C161 1.392 . S
N163 C161 1.420 . S
N163 C164 1.244 . S
C164 N163 1.244 . S
H165 C168 0.929 . S
H166 C171 0.929 . S
H167 C173 0.930 . S
C168 H165 0.929 . S
C168 C169 1.398 . S
C168 C170 1.396 . S
C169 C168 1.398 . S
C169 C173 1.407 . S
C170 C168 1.396 . S
C170 C171 1.394 . S
C171 H166 0.929 . S
C171 C170 1.394 . S
C171 C172 1.382 . S
C172 C171 1.382 . S
C172 C173 1.392 . S
C172 N174 1.420 . S
C173 H167 0.930 . S
C173 C169 1.407 . S
C173 C172 1.392 . S
N174 C172 1.420 . S
N174 C175 1.244 . S
C175 N174 1.244 . S
H176 C179 0.929 . S
H177 C182 0.929 . S
H178 C184 0.930 . S
C179 H176 0.929 . S
C179 C180 1.398 . S
C179 C181 1.396 . S
C180 C179 1.398 . S
C180 C184 1.407 . S
C181 C179 1.396 . S
C181 C182 1.394 . S
C182 H177 0.929 . S
C182 C181 1.394 . S
C182 C183 1.382 . S
C183 C182 1.382 . S
C183 C184 1.392 . S
C183 N185 1.420 . S
C184 H178 0.930 . S
C184 C180 1.407 . S
C184 C183 1.392 . S
N185 C183 1.420 . S
N185 C186 1.244 . S
C186 N185 1.244 . S
H187 C190 0.929 . S
H188 C193 0.929 . S
H189 C195 0.930 . S
C190 H187 0.929 . S
C190 C191 1.398 . S
C190 C192 1.396 . S
C191 C190 1.398 . S
C191 C195 1.407 . S
C192 C190 1.396 . S
C192 C193 1.394 . S
C193 H188 0.929 . S
C193 C192 1.394 . S
C193 C194 1.382 . S
C194 C193 1.382 . S
C194 C195 1.392 . S
C194 N196 1.420 . S
C195 H189 0.930 . S
C195 C191 1.407 . S
C195 C194 1.392 . S
N196 C194 1.420 . S
N196 C197 1.244 . S
C197 N196 1.244 . S
C198 Eu199 2.835 . S
C198 C200 1.500 1_545 S
C198 O218 1.257 1_545 S
C198 O219 1.260 . S
Eu199 C198 2.835 . S
Eu199 O218 2.473 1_545 S
Eu199 O219 2.480 . S
Eu199 O220 2.430 . S
Eu199 O221 2.621 1_554 S
Eu199 O222 2.394 1_545 S
Eu199 O227 2.355 1_545 S
Eu199 O229 2.374 . S
C200 C198 1.500 1_565 S
C200 C201 1.377 1_565 S
C200 C205 1.377 . S
C201 C200 1.377 1_545 S
C201 C202 1.399 . S
C201 H230 0.931 . S
C202 C201 1.399 . S
C202 C203 1.368 1_545 S
C202 H231 0.943 . S
C203 C202 1.368 1_565 S
C203 C204 1.394 . S
C204 C203 1.394 . S
C204 C205 1.378 . S
C204 H232 0.931 . S
C205 C200 1.377 . S
C205 C204 1.378 . S
C205 H233 0.931 . S
C206 O220 1.259 . S
C206 O221 1.247 1_554 S
C207 O222 1.251 . S
C207 O223 1.251 1_554 S
C208 Eu209 2.835 1_545 S
C208 C210 1.500 . S
C208 O224 1.257 . S
C208 O225 1.260 1_545 S
Eu209 C208 2.835 1_565 S
Eu209 O221 2.386 1_565 S
Eu209 O223 2.374 . S
Eu209 O224 2.473 1_565 S
Eu209 O225 2.480 . S
Eu209 O226 2.430 . S
Eu209 O227 2.670 1_556 S
Eu209 O228 2.394 1_565 S
C210 C208 1.500 . S
C210 C211 1.377 . S
C210 C215 1.377 . S
C211 C210 1.377 . S
C211 C212 1.395 . S
C211 H234 0.931 1_545 S
C212 C211 1.395 . S
C212 C213 1.383 . S
C212 H235 0.931 1_545 S
C213 C212 1.383 . S
C213 C214 1.394 . S
C214 C213 1.394 . S
C214 C215 1.378 . S
C214 H236 0.931 . S
C215 C210 1.377 . S
C215 C214 1.378 . S
C215 H237 0.931 . S
C216 O226 1.259 1_554 S
C216 O227 1.270 . S
C217 O228 1.251 . S
C217 O229 1.251 1_556 S
O218 C198 1.257 1_565 S
O218 Eu199 2.473 1_565 S
O219 C198 1.260 . S
O219 Eu199 2.480 . S
O220 Eu199 2.430 . S
O220 C206 1.259 . S
O221 Eu199 2.621 1_556 S
O221 C206 1.247 1_556 S
O221 Eu209 2.386 1_545 S
O222 Eu199 2.394 1_565 S
O222 C207 1.251 . S
O223 C207 1.251 1_556 S
O223 Eu209 2.374 . S
O224 C208 1.257 . S
O224 Eu209 2.473 1_545 S
O225 C208 1.260 1_565 S
O225 Eu209 2.480 . S
O226 Eu209 2.430 . S
O226 C216 1.259 1_556 S
O227 Eu199 2.355 1_565 S
O227 Eu209 2.670 1_554 S
O227 C216 1.270 . S
O228 Eu209 2.394 1_545 S
O228 C217 1.251 . S
O229 Eu199 2.374 . S
O229 C217 1.251 1_554 S
H230 C201 0.931 . S
H231 C202 0.943 . S
H232 C204 0.931 . S
H233 C205 0.931 . S
H234 C211 0.931 1_565 S
H235 C212 0.931 1_565 S
H236 C214 0.931 . S
H237 C215 0.931 . S
C238 Eu239 2.835 1_455 S
C238 C240 1.500 . S
C238 O258 1.257 . S
C238 O259 1.260 1_455 S
Eu239 C238 2.835 1_655 S
Eu239 O258 2.473 1_655 S
Eu239 O259 2.480 . S
Eu239 O260 2.430 . S
Eu239 O261 2.670 1_554 S
Eu239 O262 2.394 1_655 S
Eu239 O267 2.355 1_655 S
Eu239 O269 2.374 . S
C240 C238 1.500 . S
C240 C241 1.377 . S
C240 C245 1.377 . S
C241 C240 1.377 . S
C241 C242 1.395 . S
C241 H270 0.931 1_455 S
C242 C241 1.395 . S
C242 C243 1.383 . S
C242 H271 0.945 . S
C243 C242 1.383 . S
C243 C244 1.394 . S
C244 C243 1.394 . S
C244 C245 1.378 . S
C244 H272 0.931 . S
C245 C240 1.377 . S
C245 C244 1.378 . S
C245 H273 0.931 . S
C246 O260 1.259 . S
C246 O261 1.270 1_554 S
C247 O262 1.251 . S
C247 O263 1.251 . S
C248 Eu249 2.835 1_655 S
C248 C250 1.500 . S
C248 O264 1.257 . S
C248 O265 1.260 1_655 S
Eu249 C248 2.835 1_455 S
Eu249 O261 2.355 1_455 S
Eu249 O263 2.374 1_556 S
Eu249 O264 2.473 1_455 S
Eu249 O265 2.480 . S
Eu249 O266 2.430 . S
Eu249 O267 2.670 1_556 S
Eu249 O268 2.394 1_455 S
C250 C248 1.500 . S
C250 C251 1.380 . S
C250 C255 1.377 . S
C251 C250 1.380 . S
C251 C252 1.399 . S
C251 H274 0.924 1_655 S
C252 C251 1.399 . S
C252 C253 1.383 . S
C252 H275 0.931 1_655 S
C253 C252 1.383 . S
C253 C254 1.394 . S
C254 C253 1.394 . S
C254 C255 1.378 . S
C254 H276 0.931 . S
C255 C250 1.377 . S
C255 C254 1.378 . S
C255 H277 0.931 . S
C256 O266 1.259 1_554 S
C256 O267 1.270 . S
C257 O268 1.251 . S
C257 O269 1.251 1_556 S
O258 C238 1.257 . S
O258 Eu239 2.473 1_455 S
O259 C238 1.260 1_655 S
O259 Eu239 2.480 . S
O260 Eu239 2.430 . S
O260 C246 1.259 . S
O261 Eu239 2.670 1_556 S
O261 C246 1.270 1_556 S
O261 Eu249 2.355 1_655 S
O262 Eu239 2.394 1_455 S
O262 C247 1.251 . S
O263 C247 1.251 . S
O263 Eu249 2.374 1_554 S
O264 C248 1.257 . S
O264 Eu249 2.473 1_655 S
O265 C248 1.260 1_455 S
O265 Eu249 2.480 . S
O266 Eu249 2.430 . S
O266 C256 1.259 1_556 S
O267 Eu239 2.355 1_455 S
O267 Eu249 2.670 1_554 S
O267 C256 1.270 . S
O268 Eu249 2.394 1_655 S
O268 C257 1.251 . S
O269 Eu239 2.374 . S
O269 C257 1.251 1_554 S
H270 C241 0.931 1_655 S
H271 C242 0.945 . S
H272 C244 0.931 . S
H273 C245 0.931 . S
H274 C251 0.924 1_455 S
H275 C252 0.931 1_455 S
H276 C254 0.931 . S
H277 C255 0.931 . S
C278 Eu279 2.835 . S
C278 C280 1.500 . S
C278 O298 1.257 . S
C278 O299 1.260 . S
Eu279 C278 2.835 . S
Eu279 O298 2.473 . S
Eu279 O299 2.480 . S
Eu279 O300 2.430 . S
Eu279 O301 2.670 1_556 S
Eu279 O302 2.394 . S
Eu279 O307 2.355 1_556 S
Eu279 O309 2.374 1_556 S
C280 C278 1.500 . S
C280 C281 1.377 . S
C280 C285 1.377 . S
C281 C280 1.377 . S
C281 C282 1.395 . S
C281 H310 0.931 . S
C282 C281 1.395 . S
C282 C283 1.383 . S
C282 H311 0.931 . S
C283 C282 1.383 . S
C283 C284 1.394 . S
C284 C283 1.394 . S
C284 C285 1.378 . S
C284 H312 0.931 . S
C285 C280 1.377 . S
C285 C284 1.378 . S
C285 H313 0.931 . S
C286 O300 1.259 1_554 S
C286 O301 1.270 . S
C287 O302 1.251 . S
C287 O303 1.251 1_556 S
C288 Eu289 2.835 . S
C288 C290 1.500 . S
C288 O304 1.257 . S
C288 O305 1.260 . S
Eu289 C288 2.835 . S
Eu289 O301 2.355 . S
Eu289 O303 2.374 . S
Eu289 O304 2.473 . S
Eu289 O305 2.480 . S
Eu289 O306 2.430 . S
Eu289 O307 2.670 . S
Eu289 O308 2.394 . S
C290 C288 1.500 . S
C290 C291 1.377 . S
C290 C295 1.377 . S
C291 C290 1.377 . S
C291 C292 1.395 . S
C291 H314 0.931 . S
C292 C291 1.395 . S
C292 C293 1.383 . S
C292 H315 0.931 . S
C293 C292 1.383 . S
C293 C294 1.394 . S
C294 C293 1.394 . S
C294 C295 1.378 . S
C294 H316 0.931 . S
C295 C290 1.377 . S
C295 C294 1.378 . S
C295 H317 0.931 . S
C296 O306 1.259 . S
C296 O307 1.270 . S
C297 O308 1.251 . S
C297 O309 1.251 . S
O298 C278 1.257 . S
O298 Eu279 2.473 . S
O299 C278 1.260 . S
O299 Eu279 2.480 . S
O300 Eu279 2.430 . S
O300 C286 1.259 1_556 S
O301 Eu279 2.670 1_554 S
O301 C286 1.270 . S
O301 Eu289 2.355 . S
O302 Eu279 2.394 . S
O302 C287 1.251 . S
O303 C287 1.251 1_554 S
O303 Eu289 2.374 . S
O304 C288 1.257 . S
O304 Eu289 2.473 . S
O305 C288 1.260 . S
O305 Eu289 2.480 . S
O306 Eu289 2.430 . S
O306 C296 1.259 . S
O307 Eu279 2.355 1_554 S
O307 Eu289 2.670 . S
O307 C296 1.270 . S
O308 Eu289 2.394 . S
O308 C297 1.251 . S
O309 Eu279 2.374 1_554 S
O309 C297 1.251 . S
H310 C281 0.931 . S
H311 C282 0.931 . S
H312 C284 0.931 . S
H313 C285 0.931 . S
H314 C291 0.931 . S
H315 C292 0.931 . S
H316 C294 0.931 . S
H317 C295 0.931 . S
C318 Eu319 2.835 . S
C318 C320 1.500 . S
C318 O338 1.257 . S
C318 O339 1.260 . S
Eu319 C318 2.835 . S
Eu319 O338 2.473 . S
Eu319 O339 2.480 . S
Eu319 O340 2.430 . S
Eu319 O341 2.670 . S
Eu319 O342 2.394 . S
Eu319 O347 2.355 . S
Eu319 O349 2.374 . S
C320 C318 1.500 . S
C320 C321 1.377 . S
C320 C325 1.377 . S
C321 C320 1.377 . S
C321 C322 1.395 . S
C321 H350 0.931 . S
C322 C321 1.395 . S
C322 C323 1.383 . S
C322 H351 0.931 . S
C323 C322 1.383 . S
C323 C324 1.394 . S
C324 C323 1.394 . S
C324 C325 1.378 . S
C324 H352 0.931 . S
C325 C320 1.377 . S
C325 C324 1.378 . S
C325 H353 0.931 . S
C326 O340 1.259 . S
C326 O341 1.270 . S
C327 O342 1.251 . S
C327 O343 1.251 . S
C328 Eu329 2.835 . S
C328 C330 1.500 . S
C328 O344 1.257 . S
C328 O345 1.260 . S
Eu329 C328 2.835 . S
Eu329 O341 2.355 . S
Eu329 O343 2.374 . S
Eu329 O344 2.473 . S
Eu329 O345 2.480 . S
Eu329 O346 2.430 . S
Eu329 O347 2.670 . S
Eu329 O348 2.394 . S
C330 C328 1.500 . S
C330 C331 1.377 . S
C330 C335 1.377 . S
C331 C330 1.377 . S
C331 C332 1.395 . S
C331 H354 0.931 . S
C332 C331 1.395 . S
C332 C333 1.383 . S
C332 H355 0.931 . S
C333 C332 1.383 . S
C333 C334 1.394 . S
C334 C333 1.394 . S
C334 C335 1.378 . S
C334 H356 0.931 . S
C335 C330 1.377 . S
C335 C334 1.378 . S
C335 H357 0.931 . S
C336 O346 1.259 . S
C336 O347 1.270 . S
C337 O348 1.251 . S
C337 O349 1.251 . S
O338 C318 1.257 . S
O338 Eu319 2.473 . S
O339 C318 1.260 . S
O339 Eu319 2.480 . S
O340 Eu319 2.430 . S
O340 C326 1.259 . S
O341 Eu319 2.670 . S
O341 C326 1.270 . S
O341 Eu329 2.355 . S
O342 Eu319 2.394 . S
O342 C327 1.251 . S
O343 C327 1.251 . S
O343 Eu329 2.374 . S
O344 C328 1.257 . S
O344 Eu329 2.473 . S
O345 C328 1.260 . S
O345 Eu329 2.480 . S
O346 Eu329 2.430 . S
O346 C336 1.259 . S
O347 Eu319 2.355 . S
O347 Eu329 2.670 . S
O347 C336 1.270 . S
O348 Eu329 2.394 . S
O348 C337 1.251 . S
O349 Eu319 2.374 . S
O349 C337 1.251 . S
H350 C321 0.931 . S
H351 C322 0.931 . S
H352 C324 0.931 . S
H353 C325 0.931 . S
H354 C331 0.931 . S
H355 C332 0.931 . S
H356 C334 0.931 . S
H357 C335 0.931 . S
C358 Eu359 2.835 . S
C358 C360 1.500 . S
C358 O378 1.257 . S
C358 O379 1.260 . S
Eu359 C358 2.835 . S
Eu359 O378 2.473 . S
Eu359 O379 2.480 . S
Eu359 O380 2.430 . S
Eu359 O381 2.670 . S
Eu359 O382 2.394 . S
Eu359 O387 2.355 . S
Eu359 O389 2.374 . S
C360 C358 1.500 . S
C360 C361 1.377 . S
C360 C365 1.377 . S
C361 C360 1.377 . S
C361 C362 1.395 . S
C361 H390 0.931 . S
C362 C361 1.395 . S
C362 C363 1.383 . S
C362 H391 0.931 . S
C363 C362 1.383 . S
C363 C364 1.394 . S
C364 C363 1.394 . S
C364 C365 1.378 . S
C364 H392 0.931 . S
C365 C360 1.377 . S
C365 C364 1.378 . S
C365 H393 0.931 . S
C366 O380 1.259 . S
C366 O381 1.270 . S
C367 O382 1.251 . S
C367 O383 1.251 . S
C368 Eu369 2.835 . S
C368 C370 1.500 . S
C368 O384 1.257 . S
C368 O385 1.260 . S
Eu369 C368 2.835 . S
Eu369 O381 2.355 . S
Eu369 O383 2.374 . S
Eu369 O384 2.473 . S
Eu369 O385 2.480 . S
Eu369 O386 2.430 . S
Eu369 O387 2.670 . S
Eu369 O388 2.394 . S
C370 C368 1.500 . S
C370 C371 1.377 . S
C370 C375 1.377 . S
C371 C370 1.377 . S
C371 C372 1.395 . S
C371 H394 0.931 . S
C372 C371 1.395 . S
C372 C373 1.383 . S
C372 H395 0.931 . S
C373 C372 1.383 . S
C373 C374 1.394 . S
C374 C373 1.394 . S
C374 C375 1.378 . S
C374 H396 0.931 . S
C375 C370 1.377 . S
C375 C374 1.378 . S
C375 H397 0.931 . S
C376 O386 1.259 . S
C376 O387 1.270 . S
C377 O388 1.251 . S
C377 O389 1.251 . S
O378 C358 1.257 . S
O378 Eu359 2.473 . S
O379 C358 1.260 . S
O379 Eu359 2.480 . S
O380 Eu359 2.430 . S
O380 C366 1.259 . S
O381 Eu359 2.670 . S
O381 C366 1.270 . S
O381 Eu369 2.355 . S
O382 Eu359 2.394 . S
O382 C367 1.251 . S
O383 C367 1.251 . S
O383 Eu369 2.374 . S
O384 C368 1.257 . S
O384 Eu369 2.473 . S
O385 C368 1.260 . S
O385 Eu369 2.480 . S
O386 Eu369 2.430 . S
O386 C376 1.259 . S
O387 Eu359 2.355 . S
O387 Eu369 2.670 . S
O387 C376 1.270 . S
O388 Eu369 2.394 . S
O388 C377 1.251 . S
O389 Eu359 2.374 . S
O389 C377 1.251 . S
H390 C361 0.931 . S
H391 C362 0.931 . S
H392 C364 0.931 . S
H393 C365 0.931 . S
H394 C371 0.931 . S
H395 C372 0.931 . S
H396 C374 0.931 . S
H397 C375 0.931 . S
C398 Eu399 2.835 . S
C398 C400 1.500 . S
C398 O418 1.257 . S
C398 O419 1.260 . S
Eu399 C398 2.835 . S
Eu399 O418 2.473 . S
Eu399 O419 2.480 . S
Eu399 O420 2.430 . S
Eu399 O421 2.670 . S
Eu399 O422 2.394 . S
Eu399 O427 2.355 . S
Eu399 O429 2.374 . S
C400 C398 1.500 . S
C400 C401 1.377 . S
C400 C405 1.377 . S
C401 C400 1.377 . S
C401 C402 1.395 . S
C401 H430 0.931 . S
C402 C401 1.395 . S
C402 C403 1.383 . S
C402 H431 0.931 . S
C403 C402 1.383 . S
C403 C404 1.394 . S
C404 C403 1.394 . S
C404 C405 1.378 . S
C404 H432 0.931 . S
C405 C400 1.377 . S
C405 C404 1.378 . S
C405 H433 0.931 . S
C406 O420 1.259 . S
C406 O421 1.270 . S
C407 O422 1.251 . S
C407 O423 1.251 . S
C408 Eu409 2.835 . S
C408 C410 1.500 . S
C408 O424 1.257 . S
C408 O425 1.260 . S
Eu409 C408 2.835 . S
Eu409 O421 2.355 . S
Eu409 O423 2.374 . S
Eu409 O424 2.473 . S
Eu409 O425 2.480 . S
Eu409 O426 2.430 . S
Eu409 O427 2.670 . S
Eu409 O428 2.394 . S
C410 C408 1.500 . S
C410 C411 1.377 . S
C410 C415 1.377 . S
C411 C410 1.377 . S
C411 C412 1.395 . S
C411 H434 0.931 . S
C412 C411 1.395 . S
C412 C413 1.383 . S
C412 H435 0.931 . S
C413 C412 1.383 . S
C413 C414 1.394 . S
C414 C413 1.394 . S
C414 C415 1.378 . S
C414 H436 0.931 . S
C415 C410 1.377 . S
C415 C414 1.378 . S
C415 H437 0.931 . S
C416 O426 1.259 . S
C416 O427 1.270 . S
C417 O428 1.251 . S
C417 O429 1.251 . S
O418 C398 1.257 . S
O418 Eu399 2.473 . S
O419 C398 1.260 . S
O419 Eu399 2.480 . S
O420 Eu399 2.430 . S
O420 C406 1.259 . S
O421 Eu399 2.670 . S
O421 C406 1.270 . S
O421 Eu409 2.355 . S
O422 Eu399 2.394 . S
O422 C407 1.251 . S
O423 C407 1.251 . S
O423 Eu409 2.374 . S
O424 C408 1.257 . S
O424 Eu409 2.473 . S
O425 C408 1.260 . S
O425 Eu409 2.480 . S
O426 Eu409 2.430 . S
O426 C416 1.259 . S
O427 Eu399 2.355 . S
O427 Eu409 2.670 . S
O427 C416 1.270 . S
O428 Eu409 2.394 . S
O428 C417 1.251 . S
O429 Eu399 2.374 . S
O429 C417 1.251 . S
H430 C401 0.931 . S
H431 C402 0.931 . S
H432 C404 0.931 . S
H433 C405 0.931 . S
H434 C411 0.931 . S
H435 C412 0.931 . S
H436 C414 0.931 . S
H437 C415 0.931 . S
C438 Eu439 2.835 . S
C438 C440 1.500 . S
C438 O458 1.257 . S
C438 O459 1.260 . S
Eu439 C438 2.835 . S
Eu439 O458 2.473 . S
Eu439 O459 2.480 . S
Eu439 O460 2.430 . S
Eu439 O461 2.670 . S
Eu439 O462 2.394 . S
Eu439 O467 2.355 . S
Eu439 O469 2.374 . S
C440 C438 1.500 . S
C440 C441 1.377 . S
C440 C445 1.377 . S
C441 C440 1.377 . S
C441 C442 1.395 . S
C441 H470 0.931 . S
C442 C441 1.395 . S
C442 C443 1.383 . S
C442 H471 0.931 . S
C443 C442 1.383 . S
C443 C444 1.394 . S
C444 C443 1.394 . S
C444 C445 1.378 . S
C444 H472 0.931 . S
C445 C440 1.377 . S
C445 C444 1.378 . S
C445 H473 0.931 . S
C446 O460 1.259 . S
C446 O461 1.270 . S
C447 O462 1.251 . S
C447 O463 1.251 . S
C448 Eu449 2.835 . S
C448 C450 1.500 . S
C448 O464 1.257 . S
C448 O465 1.260 . S
Eu449 C448 2.835 . S
Eu449 O461 2.355 . S
Eu449 O463 2.374 . S
Eu449 O464 2.473 . S
Eu449 O465 2.480 . S
Eu449 O466 2.430 . S
Eu449 O467 2.670 . S
Eu449 O468 2.394 . S
C450 C448 1.500 . S
C450 C451 1.377 . S
C450 C455 1.377 . S
C451 C450 1.377 . S
C451 C452 1.395 . S
C451 H474 0.931 . S
C452 C451 1.395 . S
C452 C453 1.383 . S
C452 H475 0.931 . S
C453 C452 1.383 . S
C453 C454 1.394 . S
C454 C453 1.394 . S
C454 C455 1.378 . S
C454 H476 0.931 . S
C455 C450 1.377 . S
C455 C454 1.378 . S
C455 H477 0.931 . S
C456 O466 1.259 . S
C456 O467 1.270 . S
C457 O468 1.251 . S
C457 O469 1.251 . S
O458 C438 1.257 . S
O458 Eu439 2.473 . S
O459 C438 1.260 . S
O459 Eu439 2.480 . S
O460 Eu439 2.430 . S
O460 C446 1.259 . S
O461 Eu439 2.670 . S
O461 C446 1.270 . S
O461 Eu449 2.355 . S
O462 Eu439 2.394 . S
O462 C447 1.251 . S
O463 C447 1.251 . S
O463 Eu449 2.374 . S
O464 C448 1.257 . S
O464 Eu449 2.473 . S
O465 C448 1.260 . S
O465 Eu449 2.480 . S
O466 Eu449 2.430 . S
O466 C456 1.259 . S
O467 Eu439 2.355 . S
O467 Eu449 2.670 . S
O467 C456 1.270 . S
O468 Eu449 2.394 . S
O468 C457 1.251 . S
O469 Eu439 2.374 . S
O469 C457 1.251 . S
H470 C441 0.931 . S
H471 C442 0.931 . S
H472 C444 0.931 . S
H473 C445 0.931 . S
H474 C451 0.931 . S
H475 C452 0.931 . S
H476 C454 0.931 . S
H477 C455 0.931 . S
C478 Eu479 2.835 . S
C478 C480 1.500 . S
C478 O498 1.257 . S
C478 O499 1.260 . S
Eu479 C478 2.835 . S
Eu479 O498 2.473 . S
Eu479 O499 2.480 . S
Eu479 O500 2.430 . S
Eu479 O501 2.670 . S
Eu479 O502 2.394 . S
Eu479 O507 2.355 . S
Eu479 O509 2.374 . S
C480 C478 1.500 . S
C480 C481 1.377 . S
C480 C485 1.377 . S
C481 C480 1.377 . S
C481 C482 1.395 . S
C481 H510 0.931 . S
C482 C481 1.395 . S
C482 C483 1.383 . S
C482 H511 0.931 . S
C483 C482 1.383 . S
C483 C484 1.394 . S
C484 C483 1.394 . S
C484 C485 1.378 . S
C484 H512 0.931 . S
C485 C480 1.377 . S
C485 C484 1.378 . S
C485 H513 0.931 . S
C486 O500 1.259 . S
C486 O501 1.270 . S
C487 O502 1.251 . S
C487 O503 1.251 . S
C488 Eu489 2.835 . S
C488 C490 1.500 . S
C488 O504 1.257 . S
C488 O505 1.260 . S
Eu489 C488 2.835 . S
Eu489 O501 2.355 . S
Eu489 O503 2.374 . S
Eu489 O504 2.473 . S
Eu489 O505 2.480 . S
Eu489 O506 2.430 . S
Eu489 O507 2.670 . S
Eu489 O508 2.394 . S
C490 C488 1.500 . S
C490 C491 1.377 . S
C490 C495 1.377 . S
C491 C490 1.377 . S
C491 C492 1.395 . S
C491 H514 0.931 . S
C492 C491 1.395 . S
C492 C493 1.383 . S
C492 H515 0.931 . S
C493 C492 1.383 . S
C493 C494 1.394 . S
C494 C493 1.394 . S
C494 C495 1.378 . S
C494 H516 0.931 . S
C495 C490 1.377 . S
C495 C494 1.378 . S
C495 H517 0.931 . S
C496 O506 1.259 . S
C496 O507 1.270 . S
C497 O508 1.251 . S
C497 O509 1.251 . S
O498 C478 1.257 . S
O498 Eu479 2.473 . S
O499 C478 1.260 . S
O499 Eu479 2.480 . S
O500 Eu479 2.430 . S
O500 C486 1.259 . S
O501 Eu479 2.670 . S
O501 C486 1.270 . S
O501 Eu489 2.355 . S
O502 Eu479 2.394 . S
O502 C487 1.251 . S
O503 C487 1.251 . S
O503 Eu489 2.374 . S
O504 C488 1.257 . S
O504 Eu489 2.473 . S
O505 C488 1.260 . S
O505 Eu489 2.480 . S
O506 Eu489 2.430 . S
O506 C496 1.259 . S
O507 Eu479 2.355 . S
O507 Eu489 2.670 . S
O507 C496 1.270 . S
O508 Eu489 2.394 . S
O508 C497 1.251 . S
O509 Eu479 2.374 . S
O509 C497 1.251 . S
H510 C481 0.931 . S
H511 C482 0.931 . S
H512 C484 0.931 . S
H513 C485 0.931 . S
H514 C491 0.931 . S
H515 C492 0.931 . S
H516 C494 0.931 . S
H517 C495 0.931 . S
C518 Eu519 2.835 . S
C518 C520 1.500 . S
C518 O538 1.257 . S
C518 O539 1.260 . S
Eu519 C518 2.835 . S
Eu519 O538 2.473 . S
Eu519 O539 2.480 . S
Eu519 O540 2.430 . S
Eu519 O541 2.670 . S
Eu519 O542 2.394 . S
Eu519 O547 2.355 . S
Eu519 O549 2.374 . S
C520 C518 1.500 . S
C520 C521 1.377 . S
C520 C525 1.377 . S
C521 C520 1.377 . S
C521 C522 1.395 . S
C521 H550 0.931 . S
C522 C521 1.395 . S
C522 C523 1.383 . S
C522 H551 0.931 . S
C523 C522 1.383 . S
C523 C524 1.394 . S
C524 C523 1.394 . S
C524 C525 1.378 . S
C524 H552 0.931 . S
C525 C520 1.377 . S
C525 C524 1.378 . S
C525 H553 0.931 . S
C526 O540 1.259 . S
C526 O541 1.270 . S
C527 O542 1.251 . S
C527 O543 1.251 . S
C528 Eu529 2.835 . S
C528 C530 1.500 . S
C528 O544 1.257 . S
C528 O545 1.260 . S
Eu529 C528 2.835 . S
Eu529 O541 2.355 . S
Eu529 O543 2.374 . S
Eu529 O544 2.473 . S
Eu529 O545 2.480 . S
Eu529 O546 2.430 . S
Eu529 O547 2.670 . S
Eu529 O548 2.394 . S
C530 C528 1.500 . S
C530 C531 1.377 . S
C530 C535 1.377 . S
C531 C530 1.377 . S
C531 C532 1.395 . S
C531 H554 0.931 . S
C532 C531 1.395 . S
C532 C533 1.383 . S
C532 H555 0.931 . S
C533 C532 1.383 . S
C533 C534 1.394 . S
C534 C533 1.394 . S
C534 C535 1.378 . S
C534 H556 0.931 . S
C535 C530 1.377 . S
C535 C534 1.378 . S
C535 H557 0.931 . S
C536 O546 1.259 . S
C536 O547 1.270 . S
C537 O548 1.251 . S
C537 O549 1.251 . S
O538 C518 1.257 . S
O538 Eu519 2.473 . S
O539 C518 1.260 . S
O539 Eu519 2.480 . S
O540 Eu519 2.430 . S
O540 C526 1.259 . S
O541 Eu519 2.670 . S
O541 C526 1.270 . S
O541 Eu529 2.355 . S
O542 Eu519 2.394 . S
O542 C527 1.251 . S
O543 C527 1.251 . S
O543 Eu529 2.374 . S
O544 C528 1.257 . S
O544 Eu529 2.473 . S
O545 C528 1.260 . S
O545 Eu529 2.480 . S
O546 Eu529 2.430 . S
O546 C536 1.259 . S
O547 Eu519 2.355 . S
O547 Eu529 2.670 . S
O547 C536 1.270 . S
O548 Eu529 2.394 . S
O548 C537 1.251 . S
O549 Eu519 2.374 . S
O549 C537 1.251 . S
H550 C521 0.931 . S
H551 C522 0.931 . S
H552 C524 0.931 . S
H553 C525 0.931 . S
H554 C531 0.931 . S
H555 C532 0.931 . S
H556 C534 0.931 . S
H557 C535 0.931 . S
H558 C566 0.950 . S
H559 C571 0.950 . S
H560 C568 0.950 . S
H561 C570 0.950 . S
H562 C572 0.950 . S
H563 C574 0.950 . S
H564 C576 0.950 . S
H565 C577 0.997 . S
C566 H558 0.950 . S
C566 C567 1.386 . S
C566 C568 1.391 . S
C567 C566 1.386 . S
C567 C571 1.393 . S
C568 H560 0.950 . S
C568 C566 1.391 . S
C568 C569 1.400 . S
C569 C568 1.400 . S
C569 C570 1.398 . S
C569 C575 1.491 . S
C570 H561 0.950 . S
C570 C569 1.398 . S
C570 C571 1.391 . S
C571 H559 0.950 . S
C571 C567 1.393 . S
C571 C570 1.391 . S
C572 H562 0.950 . S
C572 C573 1.386 . S
C572 C574 1.391 . S
C573 C572 1.386 . S
C573 C577 1.393 . S
C574 H563 0.950 . S
C574 C572 1.391 . S
C574 C575 1.400 . S
C575 C569 1.491 . S
C575 C574 1.400 . S
C575 C576 1.398 . S
C576 H564 0.950 . S
C576 C575 1.398 . S
C576 C577 1.391 . S
C577 H565 0.997 . S
C577 C573 1.393 . S
C577 C576 1.391 . S
H578 C586 0.950 . S
H579 C591 0.950 . S
H580 C588 0.950 . S
H581 C590 0.950 . S
H582 C592 0.950 . S
H583 C594 0.950 . S
H584 C596 0.950 . S
H585 C597 0.950 . S
C586 H578 0.950 . S
C586 C587 1.386 . S
C586 C588 1.391 . S
C587 C586 1.386 . S
C587 C591 1.393 . S
C588 H580 0.950 . S
C588 C586 1.391 . S
C588 C589 1.400 . S
C589 C588 1.400 . S
C589 C590 1.398 . S
C589 C595 1.491 . S
C590 H581 0.950 . S
C590 C589 1.398 . S
C590 C591 1.391 . S
C591 H579 0.950 . S
C591 C587 1.393 . S
C591 C590 1.391 . S
C592 H582 0.950 . S
C592 C593 1.386 . S
C592 C594 1.391 . S
C593 C592 1.386 . S
C593 C597 1.393 . S
C594 H583 0.950 . S
C594 C592 1.391 . S
C594 C595 1.400 . S
C595 C589 1.491 . S
C595 C594 1.400 . S
C595 C596 1.398 . S
C596 H584 0.950 . S
C596 C595 1.398 . S
C596 C597 1.391 . S
C597 H585 0.950 . S
C597 C593 1.393 . S
C597 C596 1.391 . S
H598 C606 0.950 . S
H599 C611 0.950 . S
H600 C608 0.950 . S
H601 C610 0.950 . S
H602 C612 0.950 . S
H603 C614 0.950 . S
H604 C616 0.950 . S
H605 C617 0.950 . S
C606 H598 0.950 . S
C606 C607 1.386 . S
C606 C608 1.391 . S
C607 C606 1.386 . S
C607 C611 1.393 . S
C608 H600 0.950 . S
C608 C606 1.391 . S
C608 C609 1.400 . S
C609 C608 1.400 . S
C609 C610 1.398 . S
C609 C615 1.491 . S
C610 H601 0.950 . S
C610 C609 1.398 . S
C610 C611 1.391 . S
C611 H599 0.950 . S
C611 C607 1.393 . S
C611 C610 1.391 . S
C612 H602 0.950 . S
C612 C613 1.386 . S
C612 C614 1.391 . S
C613 C612 1.386 . S
C613 C617 1.393 . S
C614 H603 0.950 . S
C614 C612 1.391 . S
C614 C615 1.400 . S
C615 C609 1.491 . S
C615 C614 1.400 . S
C615 C616 1.398 . S
C616 H604 0.950 . S
C616 C615 1.398 . S
C616 C617 1.391 . S
C617 H605 0.950 . S
C617 C613 1.393 . S
C617 C616 1.391 . S
H618 C626 0.950 . S
H619 C631 0.950 . S
H620 C628 0.950 . S
H621 C630 0.950 1_554 S
H622 C632 0.950 . S
H623 C634 0.977 . S
H624 C636 0.950 . S
H625 C637 0.950 . S
C626 H618 0.950 . S
C626 C627 1.386 . S
C626 C628 1.391 . S
C627 C626 1.386 . S
C627 C631 1.393 . S
C628 H620 0.950 . S
C628 C626 1.391 . S
C628 C629 1.400 . S
C629 C628 1.400 . S
C629 C630 1.398 . S
C629 C635 1.491 . S
C630 H621 0.950 1_556 S
C630 C629 1.398 . S
C630 C631 1.391 . S
C631 H619 0.950 . S
C631 C627 1.393 . S
C631 C630 1.391 . S
C632 H622 0.950 . S
C632 C633 1.386 1_554 S
C632 C634 1.397 . S
C633 C632 1.386 1_556 S
C633 C637 1.393 . S
C634 H623 0.977 . S
C634 C632 1.397 . S
C634 C635 1.370 1_554 S
C635 C629 1.491 . S
C635 C634 1.370 1_556 S
C635 C636 1.398 . S
C636 H624 0.950 . S
C636 C635 1.398 . S
C636 C637 1.391 . S
C637 H625 0.950 . S
C637 C633 1.393 . S
C637 C636 1.391 . S
H638 C646 0.950 . S
H639 C651 0.950 . S
H640 C648 0.950 . S
H641 C650 0.950 . S
H642 C652 0.950 . S
H643 C654 0.950 . S
H644 C656 0.950 1_554 S
H645 C657 0.950 . S
C646 H638 0.950 . S
C646 C647 1.386 . S
C646 C648 1.391 . S
C647 C646 1.386 . S
C647 C651 1.393 . S
C648 H640 0.950 . S
C648 C646 1.391 . S
C648 C649 1.400 . S
C649 C648 1.400 . S
C649 C650 1.398 . S
C649 C655 1.491 . S
C650 H641 0.950 . S
C650 C649 1.398 . S
C650 C651 1.391 . S
C651 H639 0.950 . S
C651 C647 1.393 . S
C651 C650 1.391 . S
C652 H642 0.950 . S
C652 C653 1.386 . S
C652 C654 1.391 . S
C653 C652 1.386 . S
C653 C657 1.393 1_556 S
C654 H643 0.950 . S
C654 C652 1.391 . S
C654 C655 1.400 . S
C655 C649 1.491 . S
C655 C654 1.400 . S
C655 C656 1.398 . S
C656 H644 0.950 1_556 S
C656 C655 1.398 . S
C656 C657 1.391 1_556 S
C657 H645 0.950 . S
C657 C653 1.393 1_554 S
C657 C656 1.391 1_554 S
H658 C666 0.950 . S
H659 C671 0.950 . S
H660 C668 0.950 . S
H661 C670 0.950 . S
H662 C672 0.950 . S
H663 C674 0.950 . S
H664 C676 0.950 . S
H665 C677 0.950 . S
C666 H658 0.950 . S
C666 C667 1.386 . S
C666 C668 1.391 . S
C667 C666 1.386 . S
C667 C671 1.393 . S
C668 H660 0.950 . S
C668 C666 1.391 . S
C668 C669 1.400 . S
C669 C668 1.400 . S
C669 C670 1.398 . S
C669 C675 1.491 . S
C670 H661 0.950 . S
C670 C669 1.398 . S
C670 C671 1.391 . S
C671 H659 0.950 . S
C671 C667 1.393 . S
C671 C670 1.391 . S
C672 H662 0.950 . S
C672 C673 1.389 . S
C672 C674 1.391 . S
C673 C672 1.389 . S
C673 C677 1.385 1_554 S
C674 H663 0.950 . S
C674 C672 1.391 . S
C674 C675 1.400 1_554 S
C675 C669 1.491 . S
C675 C674 1.400 1_556 S
C675 C676 1.398 . S
C676 H664 0.950 . S
C676 C675 1.398 . S
C676 C677 1.391 . S
C677 H665 0.950 . S
C677 C673 1.385 1_556 S
C677 C676 1.391 . S
H678 C686 0.950 . S
H679 C691 0.950 . S
H680 C688 0.950 . S
H681 C690 0.950 . S
H682 C692 0.950 . S
H683 C694 0.950 . S
H684 C696 0.950 . S
H685 C697 0.950 . S
C686 H678 0.950 . S
C686 C687 1.386 . S
C686 C688 1.391 . S
C687 C686 1.386 . S
C687 C691 1.393 . S
C688 H680 0.950 . S
C688 C686 1.391 . S
C688 C689 1.400 . S
C689 C688 1.400 . S
C689 C690 1.398 . S
C689 C695 1.491 . S
C690 H681 0.950 . S
C690 C689 1.398 . S
C690 C691 1.391 . S
C691 H679 0.950 . S
C691 C687 1.393 . S
C691 C690 1.391 . S
C692 H682 0.950 . S
C692 C693 1.386 . S
C692 C694 1.391 . S
C693 C692 1.386 . S
C693 C697 1.393 . S
C694 H683 0.950 . S
C694 C692 1.391 . S
C694 C695 1.400 . S
C695 C689 1.491 . S
C695 C694 1.400 . S
C695 C696 1.398 . S
C696 H684 0.950 . S
C696 C695 1.398 . S
C696 C697 1.391 . S
C697 H685 0.950 . S
C697 C693 1.393 . S
C697 C696 1.391 . S
H698 C706 0.950 . S
H699 C711 0.950 . S
H700 C708 0.950 . S
H701 C710 0.950 . S
H702 C712 0.950 1_554 S
H703 C714 0.950 1_554 S
H704 C716 0.950 . S
H705 C717 0.950 . S
C706 H698 0.950 . S
C706 C707 1.386 . S
C706 C708 1.391 . S
C707 C706 1.386 . S
C707 C711 1.393 . S
C708 H700 0.950 . S
C708 C706 1.391 . S
C708 C709 1.400 . S
C709 C708 1.400 . S
C709 C710 1.398 . S
C709 C715 1.491 . S
C710 H701 0.950 . S
C710 C709 1.398 . S
C710 C711 1.391 . S
C711 H699 0.950 . S
C711 C707 1.393 . S
C711 C710 1.391 . S
C712 H702 0.950 1_556 S
C712 C713 1.386 . S
C712 C714 1.391 . S
C713 C712 1.386 . S
C713 C717 1.393 . S
C714 H703 0.950 1_556 S
C714 C712 1.391 . S
C714 C715 1.400 . S
C715 C709 1.491 . S
C715 C714 1.400 . S
C715 C716 1.398 . S
C716 H704 0.950 . S
C716 C715 1.398 . S
C716 C717 1.391 . S
C717 H705 0.950 . S
C717 C713 1.393 . S
C717 C716 1.391 . S
H718 C726 0.950 . S
H719 C731 0.950 . S
H720 C728 0.950 . S
H721 C730 0.950 . S
H722 C732 0.950 . S
H723 C734 0.950 . S
H724 C736 0.950 . S
H725 C737 0.950 . S
C726 H718 0.950 . S
C726 C727 1.386 . S
C726 C728 1.391 . S
C727 C726 1.386 . S
C727 C731 1.393 1_556 S
C728 H720 0.950 . S
C728 C726 1.391 . S
C728 C729 1.400 . S
C729 C728 1.400 . S
C729 C730 1.398 1_556 S
C729 C735 1.491 . S
C730 H721 0.950 . S
C730 C729 1.398 1_554 S
C730 C731 1.391 . S
C731 H719 0.950 . S
C731 C727 1.393 1_554 S
C731 C730 1.391 . S
C732 H722 0.950 . S
C732 C733 1.386 . S
C732 C734 1.391 . S
C733 C732 1.386 . S
C733 C737 1.393 1_554 S
C734 H723 0.950 . S
C734 C732 1.391 . S
C734 C735 1.400 1_554 S
C735 C729 1.491 . S
C735 C734 1.400 1_556 S
C735 C736 1.398 . S
C736 H724 0.950 . S
C736 C735 1.398 . S
C736 C737 1.391 . S
C737 H725 0.950 . S
C737 C733 1.393 1_556 S
C737 C736 1.391 . S
H738 C746 0.950 . S
H739 C751 0.950 . S
H740 C748 0.980 . S
H741 C750 0.950 . S
H742 C752 0.950 . S
H743 C754 0.950 . S
H744 C756 0.950 1_556 S
H745 C757 0.950 1_556 S
C746 H738 0.950 . S
C746 C747 1.386 . S
C746 C748 1.391 . S
C747 C746 1.386 . S
C747 C751 1.393 . S
C748 H740 0.980 . S
C748 C746 1.391 . S
C748 C749 1.400 . S
C749 C748 1.400 . S
C749 C750 1.398 . S
C749 C755 1.491 . S
C750 H741 0.950 . S
C750 C749 1.398 . S
C750 C751 1.391 . S
C751 H739 0.950 . S
C751 C747 1.393 . S
C751 C750 1.391 . S
C752 H742 0.950 . S
C752 C753 1.386 . S
C752 C754 1.391 . S
C753 C752 1.386 . S
C753 C757 1.393 . S
C754 H743 0.950 . S
C754 C752 1.391 . S
C754 C755 1.400 . S
C755 C749 1.491 . S
C755 C754 1.400 . S
C755 C756 1.398 . S
C756 H744 0.950 1_554 S
C756 C755 1.398 . S
C756 C757 1.391 . S
C757 H745 0.950 1_554 S
C757 C753 1.393 . S
C757 C756 1.391 . S
H758 C766 0.950 . S
H759 C771 0.950 . S
H760 C768 0.950 . S
H761 C770 0.950 . S
H762 C772 0.950 . S
H763 C774 0.950 . S
H764 C776 0.950 . S
H765 C777 0.950 . S
C766 H758 0.950 . S
C766 C767 1.386 . S
C766 C768 1.391 . S
C767 C766 1.386 . S
C767 C771 1.393 . S
C768 H760 0.950 . S
C768 C766 1.391 . S
C768 C769 1.400 . S
C769 C768 1.400 . S
C769 C770 1.398 . S
C769 C775 1.491 . S
C770 H761 0.950 . S
C770 C769 1.398 . S
C770 C771 1.391 . S
C771 H759 0.950 . S
C771 C767 1.393 . S
C771 C770 1.391 . S
C772 H762 0.950 . S
C772 C773 1.386 . S
C772 C774 1.391 . S
C773 C772 1.386 . S
C773 C777 1.393 . S
C774 H763 0.950 . S
C774 C772 1.391 . S
C774 C775 1.400 . S
C775 C769 1.491 . S
C775 C774 1.400 . S
C775 C776 1.398 . S
C776 H764 0.950 . S
C776 C775 1.398 . S
C776 C777 1.391 . S
C777 H765 0.950 . S
C777 C773 1.393 . S
C777 C776 1.391 . S
H778 C786 0.950 . S
H779 C791 0.950 . S
H780 C788 0.950 . S
H781 C790 0.950 . S
H782 C792 0.950 . S
H783 C794 0.950 . S
H784 C796 0.950 1_556 S
H785 C797 0.950 1_556 S
C786 H778 0.950 . S
C786 C787 1.386 . S
C786 C788 1.391 . S
C787 C786 1.386 . S
C787 C791 1.393 . S
C788 H780 0.950 . S
C788 C786 1.391 . S
C788 C789 1.400 . S
C789 C788 1.400 . S
C789 C790 1.398 . S
C789 C795 1.491 . S
C790 H781 0.950 . S
C790 C789 1.398 . S
C790 C791 1.391 . S
C791 H779 0.950 . S
C791 C787 1.393 . S
C791 C790 1.391 . S
C792 H782 0.950 . S
C792 C793 1.386 . S
C792 C794 1.391 . S
C793 C792 1.386 . S
C793 C797 1.393 . S
C794 H783 0.950 . S
C794 C792 1.391 . S
C794 C795 1.400 . S
C795 C789 1.491 . S
C795 C794 1.400 . S
C795 C796 1.398 . S
C796 H784 0.950 1_554 S
C796 C795 1.398 . S
C796 C797 1.391 . S
C797 H785 0.950 1_554 S
C797 C793 1.393 . S
C797 C796 1.391 . S
H798 C806 0.950 . S
H799 C811 0.950 . S
H800 C808 0.950 . S
H801 C810 0.950 . S
H802 C812 0.950 . S
H803 C814 0.950 . S
H804 C816 0.950 . S
H805 C817 0.950 . S
C806 H798 0.950 . S
C806 C807 1.386 . S
C806 C808 1.391 . S
C807 C806 1.386 . S
C807 C811 1.393 . S
C808 H800 0.950 . S
C808 C806 1.391 . S
C808 C809 1.400 . S
C809 C808 1.400 . S
C809 C810 1.398 . S
C809 C815 1.491 1_655 S
C810 H801 0.950 . S
C810 C809 1.398 . S
C810 C811 1.391 . S
C811 H799 0.950 . S
C811 C807 1.393 . S
C811 C810 1.391 . S
C812 H802 0.950 . S
C812 C813 1.386 . S
C812 C814 1.391 . S
C813 C812 1.386 . S
C813 C817 1.393 . S
C814 H803 0.950 . S
C814 C812 1.391 . S
C814 C815 1.400 . S
C815 C809 1.491 1_455 S
C815 C814 1.400 . S
C815 C816 1.398 . S
C816 H804 0.950 . S
C816 C815 1.398 . S
C816 C817 1.391 . S
C817 H805 0.950 . S
C817 C813 1.393 . S
C817 C816 1.391 . S
H818 C826 0.950 . S
H819 C831 0.950 . S
H820 C828 0.950 . S
H821 C830 0.950 . S
H822 C832 0.950 . S
H823 C834 0.950 . S
H824 C836 0.950 . S
H825 C837 0.950 . S
C826 H818 0.950 . S
C826 C827 1.386 . S
C826 C828 1.391 . S
C827 C826 1.386 . S
C827 C831 1.393 . S
C828 H820 0.950 . S
C828 C826 1.391 . S
C828 C829 1.400 . S
C829 C828 1.400 . S
C829 C830 1.398 . S
C829 C835 1.491 . S
C830 H821 0.950 . S
C830 C829 1.398 . S
C830 C831 1.391 . S
C831 H819 0.950 . S
C831 C827 1.393 . S
C831 C830 1.391 . S
C832 H822 0.950 . S
C832 C833 1.386 . S
C832 C834 1.391 . S
C833 C832 1.386 . S
C833 C837 1.393 . S
C834 H823 0.950 . S
C834 C832 1.391 . S
C834 C835 1.400 . S
C835 C829 1.491 . S
C835 C834 1.400 . S
C835 C836 1.398 . S
C836 H824 0.950 . S
C836 C835 1.398 . S
C836 C837 1.391 . S
C837 H825 0.950 . S
C837 C833 1.393 . S
C837 C836 1.391 . S
H838 C846 0.950 . S
H839 C851 0.950 . S
H840 C848 0.950 . S
H841 C850 0.950 . S
H842 C852 0.950 . S
H843 C854 0.950 1_545 S
H844 C856 0.953 . S
H845 C857 0.950 . S
C846 H838 0.950 . S
C846 C847 1.386 . S
C846 C848 1.391 . S
C847 C846 1.386 . S
C847 C851 1.393 . S
C848 H840 0.950 . S
C848 C846 1.391 . S
C848 C849 1.400 . S
C849 C848 1.400 . S
C849 C850 1.398 . S
C849 C855 1.491 . S
C850 H841 0.950 . S
C850 C849 1.398 . S
C850 C851 1.391 . S
C851 H839 0.950 . S
C851 C847 1.393 . S
C851 C850 1.391 . S
C852 H842 0.950 . S
C852 C853 1.386 . S
C852 C854 1.391 . S
C853 C852 1.386 . S
C853 C857 1.393 . S
C854 H843 0.950 1_565 S
C854 C852 1.391 . S
C854 C855 1.400 1_565 S
C855 C849 1.491 . S
C855 C854 1.400 1_545 S
C855 C856 1.398 1_545 S
C856 H844 0.953 . S
C856 C855 1.398 1_565 S
C856 C857 1.391 . S
C857 H845 0.950 . S
C857 C853 1.393 . S
C857 C856 1.391 . S
H858 C866 0.950 . S
H859 C871 0.950 . S
H860 C868 0.950 . S
H861 C870 0.950 . S
H862 C872 0.950 . S
H863 C874 0.950 . S
H864 C876 0.950 . S
H865 C877 0.950 . S
C866 H858 0.950 . S
C866 C867 1.386 . S
C866 C868 1.391 . S
C867 C866 1.386 . S
C867 C871 1.393 . S
C868 H860 0.950 . S
C868 C866 1.391 . S
C868 C869 1.400 . S
C869 C868 1.400 . S
C869 C870 1.398 . S
C869 C875 1.491 . S
C870 H861 0.950 . S
C870 C869 1.398 . S
C870 C871 1.391 . S
C871 H859 0.950 . S
C871 C867 1.393 . S
C871 C870 1.391 . S
C872 H862 0.950 . S
C872 C873 1.386 . S
C872 C874 1.391 . S
C873 C872 1.386 . S
C873 C877 1.393 . S
C874 H863 0.950 . S
C874 C872 1.391 . S
C874 C875 1.400 . S
C875 C869 1.491 . S
C875 C874 1.400 . S
C875 C876 1.398 . S
C876 H864 0.950 . S
C876 C875 1.398 . S
C876 C877 1.391 . S
C877 H865 0.950 . S
C877 C873 1.393 . S
C877 C876 1.391 . S
H878 C886 0.950 . S
H879 C891 0.950 . S
H880 C888 0.950 . S
H881 C890 0.950 . S
H882 C892 0.950 . S
H883 C894 0.950 . S
H884 C896 0.950 . S
H885 C897 0.950 . S
C886 H878 0.950 . S
C886 C887 1.386 . S
C886 C888 1.391 . S
C887 C886 1.386 . S
C887 C891 1.393 . S
C888 H880 0.950 . S
C888 C886 1.391 . S
C888 C889 1.400 . S
C889 C888 1.400 . S
C889 C890 1.398 . S
C889 C895 1.491 . S
C890 H881 0.950 . S
C890 C889 1.398 . S
C890 C891 1.391 . S
C891 H879 0.950 . S
C891 C887 1.393 . S
C891 C890 1.391 . S
C892 H882 0.950 . S
C892 C893 1.386 . S
C892 C894 1.391 . S
C893 C892 1.386 . S
C893 C897 1.393 . S
C894 H883 0.950 . S
C894 C892 1.391 . S
C894 C895 1.400 . S
C895 C889 1.491 . S
C895 C894 1.400 . S
C895 C896 1.398 . S
C896 H884 0.950 . S
C896 C895 1.398 . S
C896 C897 1.391 . S
C897 H885 0.950 . S
C897 C893 1.393 . S
C897 C896 1.391 . S
H898 C906 0.950 . S
H899 C911 0.950 . S
H900 C908 0.950 . S
H901 C910 0.950 . S
H902 C912 0.950 . S
H903 C914 0.950 . S
H904 C916 0.950 . S
H905 C917 0.950 . S
C906 H898 0.950 . S
C906 C907 1.386 . S
C906 C908 1.391 . S
C907 C906 1.386 . S
C907 C911 1.393 . S
C908 H900 0.950 . S
C908 C906 1.391 . S
C908 C909 1.400 . S
C909 C908 1.400 . S
C909 C910 1.398 . S
C909 C915 1.491 . S
C910 H901 0.950 . S
C910 C909 1.398 . S
C910 C911 1.391 . S
C911 H899 0.950 . S
C911 C907 1.393 . S
C911 C910 1.391 . S
C912 H902 0.950 . S
C912 C913 1.386 . S
C912 C914 1.391 . S
C913 C912 1.386 . S
C913 C917 1.393 . S
C914 H903 0.950 . S
C914 C912 1.391 . S
C914 C915 1.400 . S
C915 C909 1.491 . S
C915 C914 1.400 . S
C915 C916 1.398 . S
C916 H904 0.950 . S
C916 C915 1.398 . S
C916 C917 1.391 . S
C917 H905 0.950 . S
C917 C913 1.393 . S
C917 C916 1.391 . S
H918 C926 0.950 . S
H919 C931 0.950 . S
H920 C928 0.950 . S
H921 C930 0.950 . S
H922 C932 0.950 . S
H923 C934 0.950 . S
H924 C936 0.950 . S
H925 C937 0.950 . S
C926 H918 0.950 . S
C926 C927 1.386 . S
C926 C928 1.391 . S
C927 C926 1.386 . S
C927 C931 1.393 . S
C928 H920 0.950 . S
C928 C926 1.391 . S
C928 C929 1.400 . S
C929 C928 1.400 . S
C929 C930 1.398 . S
C929 C935 1.491 . S
C930 H921 0.950 . S
C930 C929 1.398 . S
C930 C931 1.391 . S
C931 H919 0.950 . S
C931 C927 1.393 . S
C931 C930 1.391 . S
C932 H922 0.950 . S
C932 C933 1.386 . S
C932 C934 1.391 . S
C933 C932 1.386 . S
C933 C937 1.393 . S
C934 H923 0.950 . S
C934 C932 1.391 . S
C934 C935 1.400 . S
C935 C929 1.491 . S
C935 C934 1.400 . S
C935 C936 1.398 . S
C936 H924 0.950 . S
C936 C935 1.398 . S
C936 C937 1.391 . S
C937 H925 0.950 . S
C937 C933 1.393 . S
C937 C936 1.391 . S
H938 C946 0.950 . S
H939 C951 0.950 . S
H940 C948 0.950 . S
H941 C950 0.950 . S
H942 C952 0.950 . S
H943 C954 0.950 . S
H944 C956 0.950 . S
H945 C957 0.950 . S
C946 H938 0.950 . S
C946 C947 1.386 . S
C946 C948 1.391 . S
C947 C946 1.386 . S
C947 C951 1.393 . S
C948 H940 0.950 . S
C948 C946 1.391 . S
C948 C949 1.400 . S
C949 C948 1.400 . S
C949 C950 1.398 . S
C949 C955 1.491 . S
C950 H941 0.950 . S
C950 C949 1.398 . S
C950 C951 1.391 . S
C951 H939 0.950 . S
C951 C947 1.393 . S
C951 C950 1.391 . S
C952 H942 0.950 . S
C952 C953 1.386 . S
C952 C954 1.391 . S
C953 C952 1.386 . S
C953 C957 1.393 . S
C954 H943 0.950 . S
C954 C952 1.391 . S
C954 C955 1.400 . S
C955 C949 1.491 . S
C955 C954 1.400 . S
C955 C956 1.398 . S
C956 H944 0.950 . S
C956 C955 1.398 . S
C956 C957 1.391 . S
C957 H945 0.950 . S
C957 C953 1.393 . S
C957 C956 1.391 . S
H958 C966 0.950 . S
H959 C971 0.950 . S
H960 C968 0.950 . S
H961 C970 0.950 . S
H962 C972 0.950 . S
H963 C974 0.950 . S
H964 C976 0.950 . S
H965 C977 0.950 . S
C966 H958 0.950 . S
C966 C967 1.386 . S
C966 C968 1.391 . S
C967 C966 1.386 . S
C967 C971 1.393 . S
C968 H960 0.950 . S
C968 C966 1.391 . S
C968 C969 1.400 . S
C969 C968 1.400 . S
C969 C970 1.398 . S
C969 C975 1.491 . S
C970 H961 0.950 . S
C970 C969 1.398 . S
C970 C971 1.391 . S
C971 H959 0.950 . S
C971 C967 1.393 . S
C971 C970 1.391 . S
C972 H962 0.950 . S
C972 C973 1.386 . S
C972 C974 1.391 . S
C973 C972 1.386 . S
C973 C977 1.393 . S
C974 H963 0.950 . S
C974 C972 1.391 . S
C974 C975 1.400 . S
C975 C969 1.491 . S
C975 C974 1.400 . S
C975 C976 1.398 . S
C976 H964 0.950 . S
C976 C975 1.398 . S
C976 C977 1.391 . S
C977 H965 0.950 . S
C977 C973 1.393 . S
C977 C976 1.391 . S
H978 C986 0.950 . S
H979 C991 0.950 . S
H980 C988 0.950 . S
H981 C990 0.950 . S
H982 C992 0.950 . S
H983 C994 0.950 . S
H984 C996 0.950 . S
H985 C997 0.950 . S
C986 H978 0.950 . S
C986 C987 1.386 . S
C986 C988 1.391 1_545 S
C987 C986 1.386 . S
C987 C991 1.393 . S
C988 H980 0.950 . S
C988 C986 1.391 1_565 S
C988 C989 1.400 . S
C989 C988 1.400 . S
C989 C990 1.398 . S
C989 C995 1.491 . S
C990 H981 0.950 . S
C990 C989 1.398 . S
C990 C991 1.391 1_565 S
C991 H979 0.950 . S
C991 C987 1.393 . S
C991 C990 1.391 1_545 S
C992 H982 0.950 . S
C992 C993 1.386 . S
C992 C994 1.391 . S
C993 C992 1.386 . S
C993 C997 1.393 . S
C994 H983 0.950 . S
C994 C992 1.391 . S
C994 C995 1.400 . S
C995 C989 1.491 . S
C995 C994 1.400 . S
C995 C996 1.398 . S
C996 H984 0.950 . S
C996 C995 1.398 . S
C996 C997 1.391 . S
C997 H985 0.950 . S
C997 C993 1.393 . S
C997 C996 1.391 . S
H998 C1006 0.950 . S
H999 C1011 0.950 . S
H1000 C1008 0.950 . S
H1001 C1010 0.950 . S
H1002 C1012 0.950 . S
H1003 C1014 0.950 . S
H1004 C1016 0.950 . S
H1005 C1017 0.950 . S
C1006 H998 0.950 . S
C1006 C1007 1.386 . S
C1006 C1008 1.391 1_655 S
C1007 C1006 1.386 . S
C1007 C1011 1.393 1_655 S
C1008 H1000 0.950 . S
C1008 C1006 1.391 1_455 S
C1008 C1009 1.400 . S
C1009 C1008 1.400 . S
C1009 C1010 1.398 . S
C1009 C1015 1.491 . S
C1010 H1001 0.950 . S
C1010 C1009 1.398 . S
C1010 C1011 1.391 . S
C1011 H999 0.950 . S
C1011 C1007 1.393 1_455 S
C1011 C1010 1.391 . S
C1012 H1002 0.950 . S
C1012 C1013 1.386 . S
C1012 C1014 1.391 . S
C1013 C1012 1.386 . S
C1013 C1017 1.393 . S
C1014 H1003 0.950 . S
C1014 C1012 1.391 . S
C1014 C1015 1.400 . S
C1015 C1009 1.491 . S
C1015 C1014 1.400 . S
C1015 C1016 1.398 . S
C1016 H1004 0.950 . S
C1016 C1015 1.398 . S
C1016 C1017 1.391 . S
C1017 H1005 0.950 . S
C1017 C1013 1.393 . S
C1017 C1016 1.391 . S
H1018 C1026 0.950 . S
H1019 C1031 0.950 . S
H1020 C1028 0.950 . S
H1021 C1030 0.950 . S
H1022 C1032 0.950 . S
H1023 C1034 0.950 . S
H1024 C1036 0.950 . S
H1025 C1037 0.950 . S
C1026 H1018 0.950 . S
C1026 C1027 1.386 . S
C1026 C1028 1.391 . S
C1027 C1026 1.386 . S
C1027 C1031 1.393 . S
C1028 H1020 0.950 . S
C1028 C1026 1.391 . S
C1028 C1029 1.400 . S
C1029 C1028 1.400 . S
C1029 C1030 1.398 . S
C1029 C1035 1.491 . S
C1030 H1021 0.950 . S
C1030 C1029 1.398 . S
C1030 C1031 1.391 . S
C1031 H1019 0.950 . S
C1031 C1027 1.393 . S
C1031 C1030 1.391 . S
C1032 H1022 0.950 . S
C1032 C1033 1.386 . S
C1032 C1034 1.391 . S
C1033 C1032 1.386 . S
C1033 C1037 1.393 . S
C1034 H1023 0.950 . S
C1034 C1032 1.391 . S
C1034 C1035 1.400 . S
C1035 C1029 1.491 . S
C1035 C1034 1.400 . S
C1035 C1036 1.398 . S
C1036 H1024 0.950 . S
C1036 C1035 1.398 . S
C1036 C1037 1.391 . S
C1037 H1025 0.950 . S
C1037 C1033 1.393 . S
C1037 C1036 1.391 . S
H1038 C1046 0.950 . S
H1039 C1051 0.950 . S
H1040 C1048 0.950 . S
H1041 C1050 0.950 . S
H1042 C1052 0.950 . S
H1043 C1054 0.950 . S
H1044 C1056 0.950 . S
H1045 C1057 0.950 . S
C1046 H1038 0.950 . S
C1046 C1047 1.386 . S
C1046 C1048 1.391 . S
C1047 C1046 1.386 . S
C1047 C1051 1.393 . S
C1048 H1040 0.950 . S
C1048 C1046 1.391 . S
C1048 C1049 1.400 . S
C1049 C1048 1.400 . S
C1049 C1050 1.398 . S
C1049 C1055 1.491 . S
C1050 H1041 0.950 . S
C1050 C1049 1.398 . S
C1050 C1051 1.391 . S
C1051 H1039 0.950 . S
C1051 C1047 1.393 . S
C1051 C1050 1.391 . S
C1052 H1042 0.950 . S
C1052 C1053 1.386 . S
C1052 C1054 1.391 . S
C1053 C1052 1.386 . S
C1053 C1057 1.393 . S
C1054 H1043 0.950 . S
C1054 C1052 1.391 . S
C1054 C1055 1.400 . S
C1055 C1049 1.491 . S
C1055 C1054 1.400 . S
C1055 C1056 1.398 . S
C1056 H1044 0.950 . S
C1056 C1055 1.398 . S
C1056 C1057 1.391 . S
C1057 H1045 0.950 . S
C1057 C1053 1.393 . S
C1057 C1056 1.391 . S
H1058 C1066 0.950 . S
H1059 C1071 0.950 . S
H1060 C1068 0.950 . S
H1061 C1070 0.950 . S
H1062 C1072 0.950 . S
H1063 C1074 0.950 . S
H1064 C1076 0.950 . S
H1065 C1077 0.950 . S
C1066 H1058 0.950 . S
C1066 C1067 1.386 . S
C1066 C1068 1.391 . S
C1067 C1066 1.386 . S
C1067 C1071 1.393 . S
C1068 H1060 0.950 . S
C1068 C1066 1.391 . S
C1068 C1069 1.400 . S
C1069 C1068 1.400 . S
C1069 C1070 1.398 . S
C1069 C1075 1.491 . S
C1070 H1061 0.950 . S
C1070 C1069 1.398 . S
C1070 C1071 1.391 . S
C1071 H1059 0.950 . S
C1071 C1067 1.393 . S
C1071 C1070 1.391 . S
C1072 H1062 0.950 . S
C1072 C1073 1.386 . S
C1072 C1074 1.391 . S
C1073 C1072 1.386 . S
C1073 C1077 1.393 . S
C1074 H1063 0.950 . S
C1074 C1072 1.391 . S
C1074 C1075 1.400 . S
C1075 C1069 1.491 . S
C1075 C1074 1.400 . S
C1075 C1076 1.398 . S
C1076 H1064 0.950 . S
C1076 C1075 1.398 . S
C1076 C1077 1.391 . S
C1077 H1065 0.950 . S
C1077 C1073 1.393 . S
C1077 C1076 1.391 . S
H1078 C1086 0.950 . S
H1079 C1091 0.950 . S
H1080 C1088 0.950 . S
H1081 C1090 0.950 . S
H1082 C1092 0.950 . S
H1083 C1094 0.950 . S
H1084 C1096 0.950 . S
H1085 C1097 0.950 . S
C1086 H1078 0.950 . S
C1086 C1087 1.386 . S
C1086 C1088 1.391 . S
C1087 C1086 1.386 . S
C1087 C1091 1.393 . S
C1088 H1080 0.950 . S
C1088 C1086 1.391 . S
C1088 C1089 1.400 . S
C1089 C1088 1.400 . S
C1089 C1090 1.398 . S
C1089 C1095 1.491 . S
C1090 H1081 0.950 . S
C1090 C1089 1.398 . S
C1090 C1091 1.391 . S
C1091 H1079 0.950 . S
C1091 C1087 1.393 . S
C1091 C1090 1.391 . S
C1092 H1082 0.950 . S
C1092 C1093 1.386 . S
C1092 C1094 1.391 . S
C1093 C1092 1.386 . S
C1093 C1097 1.393 . S
C1094 H1083 0.950 . S
C1094 C1092 1.391 . S
C1094 C1095 1.400 . S
C1095 C1089 1.491 . S
C1095 C1094 1.400 . S
C1095 C1096 1.398 . S
C1096 H1084 0.950 . S
C1096 C1095 1.398 . S
C1096 C1097 1.391 . S
C1097 H1085 0.950 . S
C1097 C1093 1.393 . S
C1097 C1096 1.391 . S
H1098 C1106 0.950 . S
H1099 C1111 0.950 . S
H1100 C1108 0.950 . S
H1101 C1110 0.950 . S
H1102 C1112 0.950 . S
H1103 C1114 0.950 . S
H1104 C1116 0.950 . S
H1105 C1117 0.950 . S
C1106 H1098 0.950 . S
C1106 C1107 1.386 . S
C1106 C1108 1.391 . S
C1107 C1106 1.386 . S
C1107 C1111 1.393 . S
C1108 H1100 0.950 . S
C1108 C1106 1.391 . S
C1108 C1109 1.400 . S
C1109 C1108 1.400 . S
C1109 C1110 1.398 . S
C1109 C1115 1.491 1_565 S
C1110 H1101 0.950 . S
C1110 C1109 1.398 . S
C1110 C1111 1.391 . S
C1111 H1099 0.950 . S
C1111 C1107 1.393 . S
C1111 C1110 1.391 . S
C1112 H1102 0.950 . S
C1112 C1113 1.386 . S
C1112 C1114 1.391 . S
C1113 C1112 1.386 . S
C1113 C1117 1.393 . S
C1114 H1103 0.950 . S
C1114 C1112 1.391 . S
C1114 C1115 1.400 . S
C1115 C1109 1.491 1_545 S
C1115 C1114 1.400 . S
C1115 C1116 1.398 . S
C1116 H1104 0.950 . S
C1116 C1115 1.398 . S
C1116 C1117 1.391 . S
C1117 H1105 0.950 . S
C1117 C1113 1.393 . S
C1117 C1116 1.391 . S
H1118 C1126 0.950 . S
H1119 C1131 0.950 . S
H1120 C1128 0.950 . S
H1121 C1130 0.950 1_655 S
H1122 C1132 0.950 . S
H1123 C1134 0.950 . S
H1124 C1136 0.950 1_455 S
H1125 C1137 0.950 . S
C1126 H1118 0.950 . S
C1126 C1127 1.386 . S
C1126 C1128 1.391 . S
C1127 C1126 1.386 . S
C1127 C1131 1.393 . S
C1128 H1120 0.950 . S
C1128 C1126 1.391 . S
C1128 C1129 1.400 . S
C1129 C1128 1.400 . S
C1129 C1130 1.398 . S
C1129 C1135 1.491 1_455 S
C1130 H1121 0.950 1_455 S
C1130 C1129 1.398 . S
C1130 C1131 1.391 . S
C1131 H1119 0.950 . S
C1131 C1127 1.393 . S
C1131 C1130 1.391 . S
C1132 H1122 0.950 . S
C1132 C1133 1.386 . S
C1132 C1134 1.391 . S
C1133 C1132 1.386 . S
C1133 C1137 1.393 . S
C1134 H1123 0.950 . S
C1134 C1132 1.391 . S
C1134 C1135 1.400 . S
C1135 C1129 1.491 1_655 S
C1135 C1134 1.400 . S
C1135 C1136 1.398 . S
C1136 H1124 0.950 1_655 S
C1136 C1135 1.398 . S
C1136 C1137 1.391 . S
C1137 H1125 0.950 . S
C1137 C1133 1.393 . S
C1137 C1136 1.391 . S
H1138 C1146 0.950 . S
H1139 C1151 0.950 . S
H1140 C1148 0.950 . S
H1141 C1150 0.950 . S
H1142 C1152 0.950 . S
H1143 C1154 0.950 . S
H1144 C1156 0.950 . S
H1145 C1157 0.950 . S
C1146 H1138 0.950 . S
C1146 C1147 1.386 . S
C1146 C1148 1.391 . S
C1147 C1146 1.386 . S
C1147 C1151 1.393 . S
C1148 H1140 0.950 . S
C1148 C1146 1.391 . S
C1148 C1149 1.400 . S
C1149 C1148 1.400 . S
C1149 C1150 1.398 . S
C1149 C1155 1.491 . S
C1150 H1141 0.950 . S
C1150 C1149 1.398 . S
C1150 C1151 1.391 . S
C1151 H1139 0.950 . S
C1151 C1147 1.393 . S
C1151 C1150 1.391 . S
C1152 H1142 0.950 . S
C1152 C1153 1.386 . S
C1152 C1154 1.391 . S
C1153 C1152 1.386 . S
C1153 C1157 1.393 . S
C1154 H1143 0.950 . S
C1154 C1152 1.391 . S
C1154 C1155 1.400 . S
C1155 C1149 1.491 . S
C1155 C1154 1.400 . S
C1155 C1156 1.398 . S
C1156 H1144 0.950 . S
C1156 C1155 1.398 . S
C1156 C1157 1.391 . S
C1157 H1145 0.950 . S
C1157 C1153 1.393 . S
C1157 C1156 1.391 . S
H1158 C1166 0.950 . S
H1159 C1171 0.950 . S
H1160 C1168 0.950 . S
H1161 C1170 0.950 . S
H1162 C1172 0.950 . S
H1163 C1174 0.950 . S
H1164 C1176 0.950 . S
H1165 C1177 0.950 . S
C1166 H1158 0.950 . S
C1166 C1167 1.386 . S
C1166 C1168 1.391 1_455 S
C1167 C1166 1.386 . S
C1167 C1171 1.393 . S
C1168 H1160 0.950 . S
C1168 C1166 1.391 1_655 S
C1168 C1169 1.400 . S
C1169 C1168 1.400 . S
C1169 C1170 1.398 . S
C1169 C1175 1.491 . S
C1170 H1161 0.950 . S
C1170 C1169 1.398 . S
C1170 C1171 1.391 1_655 S
C1171 H1159 0.950 . S
C1171 C1167 1.393 . S
C1171 C1170 1.391 1_455 S
C1172 H1162 0.950 . S
C1172 C1173 1.386 . S
C1172 C1174 1.391 . S
C1173 C1172 1.386 . S
C1173 C1177 1.393 . S
C1174 H1163 0.950 . S
C1174 C1172 1.391 . S
C1174 C1175 1.400 . S
C1175 C1169 1.491 . S
C1175 C1174 1.400 . S
C1175 C1176 1.398 . S
C1176 H1164 0.950 . S
C1176 C1175 1.398 . S
C1176 C1177 1.391 . S
C1177 H1165 0.950 . S
C1177 C1173 1.393 . S
C1177 C1176 1.391 . S
H1178 C1186 0.950 . S
H1179 C1191 0.950 . S
H1180 C1188 0.950 . S
H1181 C1190 0.950 . S
H1182 C1192 0.950 . S
H1183 C1194 0.950 . S
H1184 C1196 0.950 . S
H1185 C1197 0.950 . S
C1186 H1178 0.950 . S
C1186 C1187 1.386 . S
C1186 C1188 1.391 . S
C1187 C1186 1.386 . S
C1187 C1191 1.393 . S
C1188 H1180 0.950 . S
C1188 C1186 1.391 . S
C1188 C1189 1.400 . S
C1189 C1188 1.400 . S
C1189 C1190 1.398 . S
C1189 C1195 1.491 . S
C1190 H1181 0.950 . S
C1190 C1189 1.398 . S
C1190 C1191 1.391 . S
C1191 H1179 0.950 . S
C1191 C1187 1.393 . S
C1191 C1190 1.391 . S
C1192 H1182 0.950 . S
C1192 C1193 1.386 . S
C1192 C1194 1.391 . S
C1193 C1192 1.386 . S
C1193 C1197 1.393 . S
C1194 H1183 0.950 . S
C1194 C1192 1.391 . S
C1194 C1195 1.400 . S
C1195 C1189 1.491 . S
C1195 C1194 1.400 . S
C1195 C1196 1.398 . S
C1196 H1184 0.950 . S
C1196 C1195 1.398 . S
C1196 C1197 1.391 . S
C1197 H1185 0.950 . S
C1197 C1193 1.393 . S
C1197 C1196 1.391 . S
H1198 C1206 0.950 . S
H1199 C1211 0.950 . S
H1200 C1208 0.950 . S
H1201 C1210 0.950 . S
H1202 C1212 0.950 . S
H1203 C1214 0.950 . S
H1204 C1216 0.950 . S
H1205 C1217 0.950 . S
C1206 H1198 0.950 . S
C1206 C1207 1.386 . S
C1206 C1208 1.391 1_565 S
C1207 C1206 1.386 . S
C1207 C1211 1.393 . S
C1208 H1200 0.950 . S
C1208 C1206 1.391 1_545 S
C1208 C1209 1.400 . S
C1209 C1208 1.400 . S
C1209 C1210 1.398 . S
C1209 C1215 1.491 . S
C1210 H1201 0.950 . S
C1210 C1209 1.398 . S
C1210 C1211 1.391 1_545 S
C1211 H1199 0.950 . S
C1211 C1207 1.393 . S
C1211 C1210 1.391 1_565 S
C1212 H1202 0.950 . S
C1212 C1213 1.386 . S
C1212 C1214 1.391 . S
C1213 C1212 1.386 . S
C1213 C1217 1.393 . S
C1214 H1203 0.950 . S
C1214 C1212 1.391 . S
C1214 C1215 1.400 . S
C1215 C1209 1.491 . S
C1215 C1214 1.400 . S
C1215 C1216 1.398 . S
C1216 H1204 0.950 . S
C1216 C1215 1.398 . S
C1216 C1217 1.391 . S
C1217 H1205 0.950 . S
C1217 C1213 1.393 . S
C1217 C1216 1.391 . S
H1218 C1226 0.950 . S
H1219 C1231 0.950 . S
H1220 C1228 0.950 . S
H1221 C1230 0.950 . S
H1222 C1232 0.950 . S
H1223 C1234 0.950 . S
H1224 C1236 0.950 . S
H1225 C1237 0.950 . S
C1226 H1218 0.950 . S
C1226 C1227 1.386 . S
C1226 C1228 1.391 . S
C1227 C1226 1.386 . S
C1227 C1231 1.393 . S
C1228 H1220 0.950 . S
C1228 C1226 1.391 . S
C1228 C1229 1.400 . S
C1229 C1228 1.400 . S
C1229 C1230 1.398 . S
C1229 C1235 1.491 . S
C1230 H1221 0.950 . S
C1230 C1229 1.398 . S
C1230 C1231 1.391 . S
C1231 H1219 0.950 . S
C1231 C1227 1.393 . S
C1231 C1230 1.391 . S
C1232 H1222 0.950 . S
C1232 C1233 1.386 . S
C1232 C1234 1.391 . S
C1233 C1232 1.386 . S
C1233 C1237 1.393 . S
C1234 H1223 0.950 . S
C1234 C1232 1.391 . S
C1234 C1235 1.400 . S
C1235 C1229 1.491 . S
C1235 C1234 1.400 . S
C1235 C1236 1.398 . S
C1236 H1224 0.950 . S
C1236 C1235 1.398 . S
C1236 C1237 1.391 . S
C1237 H1225 0.950 . S
C1237 C1233 1.393 . S
C1237 C1236 1.391 . S
H1238 C1246 0.950 . S
H1239 C1251 0.950 . S
H1240 C1248 0.950 . S
H1241 C1250 0.950 . S
H1242 C1252 0.950 . S
H1243 C1254 0.950 . S
H1244 C1256 0.950 . S
H1245 C1257 0.950 . S
C1246 H1238 0.950 . S
C1246 C1247 1.386 . S
C1246 C1248 1.391 . S
C1247 C1246 1.386 . S
C1247 C1251 1.393 . S
C1248 H1240 0.950 . S
C1248 C1246 1.391 . S
C1248 C1249 1.400 . S
C1249 C1248 1.400 . S
C1249 C1250 1.398 . S
C1249 C1255 1.491 . S
C1250 H1241 0.950 . S
C1250 C1249 1.398 . S
C1250 C1251 1.391 . S
C1251 H1239 0.950 . S
C1251 C1247 1.393 . S
C1251 C1250 1.391 . S
C1252 H1242 0.950 . S
C1252 C1253 1.386 . S
C1252 C1254 1.391 . S
C1253 C1252 1.386 . S
C1253 C1257 1.393 . S
C1254 H1243 0.950 . S
C1254 C1252 1.391 . S
C1254 C1255 1.400 . S
C1255 C1249 1.491 . S
C1255 C1254 1.400 . S
C1255 C1256 1.398 . S
C1256 H1244 0.950 . S
C1256 C1255 1.398 . S
C1256 C1257 1.391 . S
C1257 H1245 0.950 . S
C1257 C1253 1.393 . S
C1257 C1256 1.391 . S
H1258 C1266 0.950 . S
H1259 C1271 0.950 . S
H1260 C1268 0.950 . S
H1261 C1270 0.950 . S
H1262 C1272 0.950 . S
H1263 C1274 0.950 . S
H1264 C1276 0.950 . S
H1265 C1277 0.950 . S
C1266 H1258 0.950 . S
C1266 C1267 1.386 . S
C1266 C1268 1.391 . S
C1267 C1266 1.386 . S
C1267 C1271 1.393 . S
C1268 H1260 0.950 . S
C1268 C1266 1.391 . S
C1268 C1269 1.400 . S
C1269 C1268 1.400 . S
C1269 C1270 1.398 . S
C1269 C1275 1.491 . S
C1270 H1261 0.950 . S
C1270 C1269 1.398 . S
C1270 C1271 1.391 . S
C1271 H1259 0.950 . S
C1271 C1267 1.393 . S
C1271 C1270 1.391 . S
C1272 H1262 0.950 . S
C1272 C1273 1.386 . S
C1272 C1274 1.391 . S
C1273 C1272 1.386 . S
C1273 C1277 1.393 . S
C1274 H1263 0.950 . S
C1274 C1272 1.391 . S
C1274 C1275 1.400 . S
C1275 C1269 1.491 . S
C1275 C1274 1.400 . S
C1275 C1276 1.398 . S
C1276 H1264 0.950 . S
C1276 C1275 1.398 . S
C1276 C1277 1.391 . S
C1277 H1265 0.950 . S
C1277 C1273 1.393 . S
C1277 C1276 1.391 . S
H1278 C1286 0.950 . S
H1279 C1291 0.950 . S
H1280 C1288 0.950 . S
H1281 C1290 0.950 . S
H1282 C1292 0.950 . S
H1283 C1294 0.950 . S
H1284 C1296 0.950 . S
H1285 C1297 0.950 . S
C1286 H1278 0.950 . S
C1286 C1287 1.386 . S
C1286 C1288 1.391 . S
C1287 C1286 1.386 . S
C1287 C1291 1.393 . S
C1288 H1280 0.950 . S
C1288 C1286 1.391 . S
C1288 C1289 1.400 . S
C1289 C1288 1.400 . S
C1289 C1290 1.398 . S
C1289 C1295 1.491 . S
C1290 H1281 0.950 . S
C1290 C1289 1.398 . S
C1290 C1291 1.391 . S
C1291 H1279 0.950 . S
C1291 C1287 1.393 . S
C1291 C1290 1.391 . S
C1292 H1282 0.950 . S
C1292 C1293 1.386 . S
C1292 C1294 1.391 . S
C1293 C1292 1.386 . S
C1293 C1297 1.393 . S
C1294 H1283 0.950 . S
C1294 C1292 1.391 . S
C1294 C1295 1.400 . S
C1295 C1289 1.491 . S
C1295 C1294 1.400 . S
C1295 C1296 1.398 . S
C1296 H1284 0.950 . S
C1296 C1295 1.398 . S
C1296 C1297 1.391 . S
C1297 H1285 0.950 . S
C1297 C1293 1.393 . S
C1297 C1296 1.391 . S
H1298 C1306 0.950 . S
H1299 C1311 0.950 . S
H1300 C1308 0.950 . S
H1301 C1310 0.950 . S
H1302 C1312 0.950 . S
H1303 C1314 0.950 . S
H1304 C1316 0.950 . S
H1305 C1317 0.950 . S
C1306 H1298 0.950 . S
C1306 C1307 1.386 . S
C1306 C1308 1.391 . S
C1307 C1306 1.386 . S
C1307 C1311 1.393 . S
C1308 H1300 0.950 . S
C1308 C1306 1.391 . S
C1308 C1309 1.400 . S
C1309 C1308 1.400 . S
C1309 C1310 1.398 . S
C1309 C1315 1.491 . S
C1310 H1301 0.950 . S
C1310 C1309 1.398 . S
C1310 C1311 1.391 . S
C1311 H1299 0.950 . S
C1311 C1307 1.393 . S
C1311 C1310 1.391 . S
C1312 H1302 0.950 . S
C1312 C1313 1.386 . S
C1312 C1314 1.391 . S
C1313 C1312 1.386 . S
C1313 C1317 1.393 . S
C1314 H1303 0.950 . S
C1314 C1312 1.391 . S
C1314 C1315 1.400 . S
C1315 C1309 1.491 . S
C1315 C1314 1.400 . S
C1315 C1316 1.398 . S
C1316 H1304 0.950 . S
C1316 C1315 1.398 . S
C1316 C1317 1.391 . S
C1317 H1305 0.950 . S
C1317 C1313 1.393 . S
C1317 C1316 1.391 . S
H1318 C1326 0.950 . S
H1319 C1331 0.950 . S
H1320 C1328 0.950 . S
H1321 C1330 0.950 . S
H1322 C1332 0.950 . S
H1323 C1334 0.950 . S
H1324 C1336 0.950 . S
H1325 C1337 0.950 . S
C1326 H1318 0.950 . S
C1326 C1327 1.386 . S
C1326 C1328 1.391 . S
C1327 C1326 1.386 . S
C1327 C1331 1.393 . S
C1328 H1320 0.950 . S
C1328 C1326 1.391 . S
C1328 C1329 1.400 . S
C1329 C1328 1.400 . S
C1329 C1330 1.398 . S
C1329 C1335 1.491 . S
C1330 H1321 0.950 . S
C1330 C1329 1.398 . S
C1330 C1331 1.391 . S
C1331 H1319 0.950 . S
C1331 C1327 1.393 . S
C1331 C1330 1.391 . S
C1332 H1322 0.950 . S
C1332 C1333 1.386 . S
C1332 C1334 1.391 . S
C1333 C1332 1.386 . S
C1333 C1337 1.393 . S
C1334 H1323 0.950 . S
C1334 C1332 1.391 . S
C1334 C1335 1.400 . S
C1335 C1329 1.491 . S
C1335 C1334 1.400 . S
C1335 C1336 1.398 . S
C1336 H1324 0.950 . S
C1336 C1335 1.398 . S
C1336 C1337 1.391 . S
C1337 H1325 0.950 . S
C1337 C1333 1.393 . S
C1337 C1336 1.391 . S
H1338 C1346 0.950 . S
H1339 C1351 0.950 . S
H1340 C1348 0.950 . S
H1341 C1350 0.950 . S
H1342 C1352 0.950 . S
H1343 C1354 0.950 . S
H1344 C1356 0.950 . S
H1345 C1357 0.950 1_455 S
C1346 H1338 0.950 . S
C1346 C1347 1.386 . S
C1346 C1348 1.391 . S
C1347 C1346 1.386 . S
C1347 C1351 1.393 . S
C1348 H1340 0.950 . S
C1348 C1346 1.391 . S
C1348 C1349 1.400 . S
C1349 C1348 1.400 . S
C1349 C1350 1.398 . S
C1349 C1355 1.491 . S
C1350 H1341 0.950 . S
C1350 C1349 1.398 . S
C1350 C1351 1.391 . S
C1351 H1339 0.950 . S
C1351 C1347 1.393 . S
C1351 C1350 1.391 . S
C1352 H1342 0.950 . S
C1352 C1353 1.386 . S
C1352 C1354 1.391 . S
C1353 C1352 1.386 . S
C1353 C1357 1.393 . S
C1354 H1343 0.950 . S
C1354 C1352 1.391 . S
C1354 C1355 1.400 . S
C1355 C1349 1.491 . S
C1355 C1354 1.400 . S
C1355 C1356 1.398 . S
C1356 H1344 0.950 . S
C1356 C1355 1.398 . S
C1356 C1357 1.391 . S
C1357 H1345 0.950 1_655 S
C1357 C1353 1.393 . S
C1357 C1356 1.391 . S
H1358 C1366 0.950 . S
H1359 C1371 0.950 . S
H1360 C1368 0.950 . S
H1361 C1370 0.950 . S
H1362 C1372 0.950 . S
H1363 C1374 0.950 . S
H1364 C1376 0.950 . S
H1365 C1377 0.950 . S
C1366 H1358 0.950 . S
C1366 C1367 1.386 . S
C1366 C1368 1.391 . S
C1367 C1366 1.386 . S
C1367 C1371 1.393 . S
C1368 H1360 0.950 . S
C1368 C1366 1.391 . S
C1368 C1369 1.400 . S
C1369 C1368 1.400 . S
C1369 C1370 1.398 . S
C1369 C1375 1.491 . S
C1370 H1361 0.950 . S
C1370 C1369 1.398 . S
C1370 C1371 1.391 . S
C1371 H1359 0.950 . S
C1371 C1367 1.393 . S
C1371 C1370 1.391 . S
C1372 H1362 0.950 . S
C1372 C1373 1.386 . S
C1372 C1374 1.391 . S
C1373 C1372 1.386 . S
C1373 C1377 1.393 . S
C1374 H1363 0.950 . S
C1374 C1372 1.391 . S
C1374 C1375 1.400 . S
C1375 C1369 1.491 . S
C1375 C1374 1.400 . S
C1375 C1376 1.398 . S
C1376 H1364 0.950 . S
C1376 C1375 1.398 . S
C1376 C1377 1.391 . S
C1377 H1365 0.950 . S
C1377 C1373 1.393 . S
C1377 C1376 1.391 . S
H1378 C1386 0.950 . S
H1379 C1391 0.950 . S
H1380 C1388 0.950 . S
H1381 C1390 0.950 . S
H1382 C1392 0.950 . S
H1383 C1394 0.950 . S
H1384 C1396 0.950 . S
H1385 C1397 0.950 . S
C1386 H1378 0.950 . S
C1386 C1387 1.386 . S
C1386 C1388 1.391 . S
C1387 C1386 1.386 . S
C1387 C1391 1.393 . S
C1388 H1380 0.950 . S
C1388 C1386 1.391 . S
C1388 C1389 1.400 . S
C1389 C1388 1.400 . S
C1389 C1390 1.398 . S
C1389 C1395 1.491 . S
C1390 H1381 0.950 . S
C1390 C1389 1.398 . S
C1390 C1391 1.391 . S
C1391 H1379 0.950 . S
C1391 C1387 1.393 . S
C1391 C1390 1.391 . S
C1392 H1382 0.950 . S
C1392 C1393 1.386 . S
C1392 C1394 1.391 . S
C1393 C1392 1.386 . S
C1393 C1397 1.393 . S
C1394 H1383 0.950 . S
C1394 C1392 1.391 . S
C1394 C1395 1.400 . S
C1395 C1389 1.491 . S
C1395 C1394 1.400 . S
C1395 C1396 1.398 . S
C1396 H1384 0.950 . S
C1396 C1395 1.398 . S
C1396 C1397 1.391 . S
C1397 H1385 0.950 . S
C1397 C1393 1.393 . S
C1397 C1396 1.391 . S
H1398 C1406 0.950 . S
H1399 C1411 0.950 . S
H1400 C1408 0.950 . S
H1401 C1410 0.950 . S
H1402 C1412 0.950 . S
H1403 C1414 0.950 . S
H1404 C1416 0.950 . S
H1405 C1417 0.950 . S
C1406 H1398 0.950 . S
C1406 C1407 1.386 . S
C1406 C1408 1.391 . S
C1407 C1406 1.386 . S
C1407 C1411 1.393 . S
C1408 H1400 0.950 . S
C1408 C1406 1.391 . S
C1408 C1409 1.400 . S
C1409 C1408 1.400 . S
C1409 C1410 1.398 . S
C1409 C1415 1.491 . S
C1410 H1401 0.950 . S
C1410 C1409 1.398 . S
C1410 C1411 1.391 . S
C1411 H1399 0.950 . S
C1411 C1407 1.393 . S
C1411 C1410 1.391 . S
C1412 H1402 0.950 . S
C1412 C1413 1.386 . S
C1412 C1414 1.391 . S
C1413 C1412 1.386 . S
C1413 C1417 1.393 . S
C1414 H1403 0.950 . S
C1414 C1412 1.391 . S
C1414 C1415 1.400 . S
C1415 C1409 1.491 . S
C1415 C1414 1.400 . S
C1415 C1416 1.398 . S
C1416 H1404 0.950 . S
C1416 C1415 1.398 . S
C1416 C1417 1.391 . S
C1417 H1405 0.950 . S
C1417 C1413 1.393 . S
C1417 C1416 1.391 . S
H1418 C1426 0.950 . S
H1419 C1431 0.950 . S
H1420 C1428 0.950 . S
H1421 C1430 0.950 . S
H1422 C1432 0.950 . S
H1423 C1434 0.950 . S
H1424 C1436 0.950 . S
H1425 C1437 0.950 . S
C1426 H1418 0.950 . S
C1426 C1427 1.386 . S
C1426 C1428 1.391 . S
C1427 C1426 1.386 . S
C1427 C1431 1.393 . S
C1428 H1420 0.950 . S
C1428 C1426 1.391 . S
C1428 C1429 1.400 . S
C1429 C1428 1.400 . S
C1429 C1430 1.398 . S
C1429 C1435 1.491 . S
C1430 H1421 0.950 . S
C1430 C1429 1.398 . S
C1430 C1431 1.391 . S
C1431 H1419 0.950 . S
C1431 C1427 1.393 . S
C1431 C1430 1.391 . S
C1432 H1422 0.950 . S
C1432 C1433 1.386 . S
C1432 C1434 1.391 . S
C1433 C1432 1.386 . S
C1433 C1437 1.393 . S
C1434 H1423 0.950 . S
C1434 C1432 1.391 . S
C1434 C1435 1.400 . S
C1435 C1429 1.491 . S
C1435 C1434 1.400 . S
C1435 C1436 1.398 . S
C1436 H1424 0.950 . S
C1436 C1435 1.398 . S
C1436 C1437 1.391 . S
C1437 H1425 0.950 . S
C1437 C1433 1.393 . S
C1437 C1436 1.391 . S
H1438 C1446 0.950 . S
H1439 C1451 0.950 . S
H1440 C1448 0.950 . S
H1441 C1450 0.950 . S
H1442 C1452 0.950 . S
H1443 C1454 0.950 . S
H1444 C1456 0.950 . S
H1445 C1457 0.950 . S
C1446 H1438 0.950 . S
C1446 C1447 1.386 . S
C1446 C1448 1.391 . S
C1447 C1446 1.386 . S
C1447 C1451 1.393 . S
C1448 H1440 0.950 . S
C1448 C1446 1.391 . S
C1448 C1449 1.400 . S
C1449 C1448 1.400 . S
C1449 C1450 1.398 . S
C1449 C1455 1.491 . S
C1450 H1441 0.950 . S
C1450 C1449 1.398 . S
C1450 C1451 1.391 . S
C1451 H1439 0.950 . S
C1451 C1447 1.393 . S
C1451 C1450 1.391 . S
C1452 H1442 0.950 . S
C1452 C1453 1.386 . S
C1452 C1454 1.391 . S
C1453 C1452 1.386 . S
C1453 C1457 1.393 . S
C1454 H1443 0.950 . S
C1454 C1452 1.391 . S
C1454 C1455 1.400 . S
C1455 C1449 1.491 . S
C1455 C1454 1.400 . S
C1455 C1456 1.398 . S
C1456 H1444 0.950 . S
C1456 C1455 1.398 . S
C1456 C1457 1.391 . S
C1457 H1445 0.950 . S
C1457 C1453 1.393 . S
C1457 C1456 1.391 . S
H1458 C1466 0.950 . S
H1459 C1471 0.950 . S
H1460 C1468 0.950 . S
H1461 C1470 0.950 . S
H1462 C1472 0.950 . S
H1463 C1474 0.950 . S
H1464 C1476 0.950 . S
H1465 C1477 0.950 . S
C1466 H1458 0.950 . S
C1466 C1467 1.386 . S
C1466 C1468 1.391 . S
C1467 C1466 1.386 . S
C1467 C1471 1.393 . S
C1468 H1460 0.950 . S
C1468 C1466 1.391 . S
C1468 C1469 1.400 . S
C1469 C1468 1.400 . S
C1469 C1470 1.398 . S
C1469 C1475 1.491 . S
C1470 H1461 0.950 . S
C1470 C1469 1.398 . S
C1470 C1471 1.391 . S
C1471 H1459 0.950 . S
C1471 C1467 1.393 . S
C1471 C1470 1.391 . S
C1472 H1462 0.950 . S
C1472 C1473 1.386 . S
C1472 C1474 1.391 . S
C1473 C1472 1.386 . S
C1473 C1477 1.393 . S
C1474 H1463 0.950 . S
C1474 C1472 1.391 . S
C1474 C1475 1.400 . S
C1475 C1469 1.491 . S
C1475 C1474 1.400 . S
C1475 C1476 1.398 . S
C1476 H1464 0.950 . S
C1476 C1475 1.398 . S
C1476 C1477 1.391 . S
C1477 H1465 0.950 . S
C1477 C1473 1.393 . S
C1477 C1476 1.391 . S
H1478 C1486 0.950 . S
H1479 C1491 0.950 . S
H1480 C1488 0.950 . S
H1481 C1490 0.950 . S
H1482 C1492 0.950 . S
H1483 C1494 0.950 . S
H1484 C1496 0.950 . S
H1485 C1497 0.950 . S
C1486 H1478 0.950 . S
C1486 C1487 1.386 . S
C1486 C1488 1.391 . S
C1487 C1486 1.386 . S
C1487 C1491 1.393 . S
C1488 H1480 0.950 . S
C1488 C1486 1.391 . S
C1488 C1489 1.400 . S
C1489 C1488 1.400 . S
C1489 C1490 1.398 . S
C1489 C1495 1.491 . S
C1490 H1481 0.950 . S
C1490 C1489 1.398 . S
C1490 C1491 1.391 . S
C1491 H1479 0.950 . S
C1491 C1487 1.393 . S
C1491 C1490 1.391 . S
C1492 H1482 0.950 . S
C1492 C1493 1.386 . S
C1492 C1494 1.391 . S
C1493 C1492 1.386 . S
C1493 C1497 1.393 . S
C1494 H1483 0.950 . S
C1494 C1492 1.391 . S
C1494 C1495 1.400 . S
C1495 C1489 1.491 . S
C1495 C1494 1.400 . S
C1495 C1496 1.398 . S
C1496 H1484 0.950 . S
C1496 C1495 1.398 . S
C1496 C1497 1.391 . S
C1497 H1485 0.950 . S
C1497 C1493 1.393 . S
C1497 C1496 1.391 . S
H1498 C1506 0.950 . S
H1499 C1511 0.950 . S
H1500 C1508 0.950 . S
H1501 C1510 0.950 . S
H1502 C1512 0.950 . S
H1503 C1514 0.950 . S
H1504 C1516 0.950 . S
H1505 C1517 0.950 . S
C1506 H1498 0.950 . S
C1506 C1507 1.386 . S
C1506 C1508 1.391 . S
C1507 C1506 1.386 . S
C1507 C1511 1.393 . S
C1508 H1500 0.950 . S
C1508 C1506 1.391 . S
C1508 C1509 1.400 . S
C1509 C1508 1.400 . S
C1509 C1510 1.398 . S
C1509 C1515 1.491 . S
C1510 H1501 0.950 . S
C1510 C1509 1.398 . S
C1510 C1511 1.391 . S
C1511 H1499 0.950 . S
C1511 C1507 1.393 . S
C1511 C1510 1.391 . S
C1512 H1502 0.950 . S
C1512 C1513 1.386 . S
C1512 C1514 1.391 . S
C1513 C1512 1.386 . S
C1513 C1517 1.393 . S
C1514 H1503 0.950 . S
C1514 C1512 1.391 . S
C1514 C1515 1.400 . S
C1515 C1509 1.491 . S
C1515 C1514 1.400 . S
C1515 C1516 1.398 . S
C1516 H1504 0.950 . S
C1516 C1515 1.398 . S
C1516 C1517 1.391 . S
C1517 H1505 0.950 . S
C1517 C1513 1.393 . S
C1517 C1516 1.391 . S
H1518 C1526 0.950 . S
H1519 C1531 0.950 . S
H1520 C1528 0.950 . S
H1521 C1530 0.950 . S
H1522 C1532 0.950 . S
H1523 C1534 0.950 . S
H1524 C1536 0.950 . S
H1525 C1537 0.950 . S
C1526 H1518 0.950 . S
C1526 C1527 1.386 . S
C1526 C1528 1.391 . S
C1527 C1526 1.386 . S
C1527 C1531 1.393 . S
C1528 H1520 0.950 . S
C1528 C1526 1.391 . S
C1528 C1529 1.400 . S
C1529 C1528 1.400 . S
C1529 C1530 1.398 . S
C1529 C1535 1.491 . S
C1530 H1521 0.950 . S
C1530 C1529 1.398 . S
C1530 C1531 1.391 . S
C1531 H1519 0.950 . S
C1531 C1527 1.393 . S
C1531 C1530 1.391 . S
C1532 H1522 0.950 . S
C1532 C1533 1.386 . S
C1532 C1534 1.391 . S
C1533 C1532 1.386 . S
C1533 C1537 1.393 . S
C1534 H1523 0.950 . S
C1534 C1532 1.391 . S
C1534 C1535 1.400 . S
C1535 C1529 1.491 . S
C1535 C1534 1.400 . S
C1535 C1536 1.398 . S
C1536 H1524 0.950 . S
C1536 C1535 1.398 . S
C1536 C1537 1.391 . S
C1537 H1525 0.950 . S
C1537 C1533 1.393 . S
C1537 C1536 1.391 . S
H1538 C1546 0.950 . S
H1539 C1551 0.950 . S
H1540 C1548 0.950 . S
H1541 C1550 0.950 . S
H1542 C1552 0.950 . S
H1543 C1554 0.950 . S
H1544 C1556 0.950 . S
H1545 C1557 0.950 . S
C1546 H1538 0.950 . S
C1546 C1547 1.386 . S
C1546 C1548 1.391 . S
C1547 C1546 1.386 . S
C1547 C1551 1.393 . S
C1548 H1540 0.950 . S
C1548 C1546 1.391 . S
C1548 C1549 1.400 . S
C1549 C1548 1.400 . S
C1549 C1550 1.398 . S
C1549 C1555 1.491 . S
C1550 H1541 0.950 . S
C1550 C1549 1.398 . S
C1550 C1551 1.391 . S
C1551 H1539 0.950 . S
C1551 C1547 1.393 . S
C1551 C1550 1.391 . S
C1552 H1542 0.950 . S
C1552 C1553 1.386 . S
C1552 C1554 1.391 . S
C1553 C1552 1.386 . S
C1553 C1557 1.393 . S
C1554 H1543 0.950 . S
C1554 C1552 1.391 . S
C1554 C1555 1.400 . S
C1555 C1549 1.491 . S
C1555 C1554 1.400 . S
C1555 C1556 1.398 . S
C1556 H1544 0.950 . S
C1556 C1555 1.398 . S
C1556 C1557 1.391 . S
C1557 H1545 0.950 . S
C1557 C1553 1.393 . S
C1557 C1556 1.391 . S
H1558 C1566 0.950 . S
H1559 C1571 0.950 . S
H1560 C1568 0.950 . S
H1561 C1570 0.950 . S
H1562 C1572 0.950 . S
H1563 C1574 0.950 . S
H1564 C1576 0.950 . S
H1565 C1577 0.950 . S
C1566 H1558 0.950 . S
C1566 C1567 1.386 . S
C1566 C1568 1.391 . S
C1567 C1566 1.386 . S
C1567 C1571 1.393 . S
C1568 H1560 0.950 . S
C1568 C1566 1.391 . S
C1568 C1569 1.400 . S
C1569 C1568 1.400 . S
C1569 C1570 1.398 . S
C1569 C1575 1.491 . S
C1570 H1561 0.950 . S
C1570 C1569 1.398 . S
C1570 C1571 1.391 . S
C1571 H1559 0.950 . S
C1571 C1567 1.393 . S
C1571 C1570 1.391 . S
C1572 H1562 0.950 . S
C1572 C1573 1.386 . S
C1572 C1574 1.391 . S
C1573 C1572 1.386 . S
C1573 C1577 1.393 . S
C1574 H1563 0.950 . S
C1574 C1572 1.391 . S
C1574 C1575 1.400 . S
C1575 C1569 1.491 . S
C1575 C1574 1.400 . S
C1575 C1576 1.398 . S
C1576 H1564 0.950 . S
C1576 C1575 1.398 . S
C1576 C1577 1.391 . S
C1577 H1565 0.950 . S
C1577 C1573 1.393 . S
C1577 C1576 1.391 . S
H1578 C1586 0.950 . S
H1579 C1591 0.950 . S
H1580 C1588 0.950 . S
H1581 C1590 0.950 . S
H1582 C1592 0.950 . S
H1583 C1594 0.950 . S
H1584 C1596 0.950 . S
H1585 C1597 0.950 . S
C1586 H1578 0.950 . S
C1586 C1587 1.386 . S
C1586 C1588 1.391 . S
C1587 C1586 1.386 . S
C1587 C1591 1.393 . S
C1588 H1580 0.950 . S
C1588 C1586 1.391 . S
C1588 C1589 1.400 . S
C1589 C1588 1.400 . S
C1589 C1590 1.398 . S
C1589 C1595 1.491 . S
C1590 H1581 0.950 . S
C1590 C1589 1.398 . S
C1590 C1591 1.391 . S
C1591 H1579 0.950 . S
C1591 C1587 1.393 . S
C1591 C1590 1.391 . S
C1592 H1582 0.950 . S
C1592 C1593 1.386 . S
C1592 C1594 1.391 . S
C1593 C1592 1.386 . S
C1593 C1597 1.393 . S
C1594 H1583 0.950 . S
C1594 C1592 1.391 . S
C1594 C1595 1.400 . S
C1595 C1589 1.491 . S
C1595 C1594 1.400 . S
C1595 C1596 1.398 . S
C1596 H1584 0.950 . S
C1596 C1595 1.398 . S
C1596 C1597 1.391 . S
C1597 H1585 0.950 . S
C1597 C1593 1.393 . S
C1597 C1596 1.391 . S
H1598 C1606 0.950 . S
H1599 C1611 0.950 . S
H1600 C1608 0.950 . S
H1601 C1610 0.950 . S
H1602 C1612 0.950 . S
H1603 C1614 0.950 . S
H1604 C1616 0.950 . S
H1605 C1617 0.950 . S
C1606 H1598 0.950 . S
C1606 C1607 1.386 . S
C1606 C1608 1.391 . S
C1607 C1606 1.386 . S
C1607 C1611 1.393 . S
C1608 H1600 0.950 . S
C1608 C1606 1.391 . S
C1608 C1609 1.400 . S
C1609 C1608 1.400 . S
C1609 C1610 1.398 . S
C1609 C1615 1.491 . S
C1610 H1601 0.950 . S
C1610 C1609 1.398 . S
C1610 C1611 1.391 . S
C1611 H1599 0.950 . S
C1611 C1607 1.393 . S
C1611 C1610 1.391 . S
C1612 H1602 0.950 . S
C1612 C1613 1.386 . S
C1612 C1614 1.391 . S
C1613 C1612 1.386 . S
C1613 C1617 1.393 . S
C1614 H1603 0.950 . S
C1614 C1612 1.391 . S
C1614 C1615 1.400 . S
C1615 C1609 1.491 . S
C1615 C1614 1.400 . S
C1615 C1616 1.398 . S
C1616 H1604 0.950 . S
C1616 C1615 1.398 . S
C1616 C1617 1.391 . S
C1617 H1605 0.950 . S
C1617 C1613 1.393 . S
C1617 C1616 1.391 . S
H1618 C1626 0.950 . S
H1619 C1631 0.950 . S
H1620 C1628 0.950 . S
H1621 C1630 0.950 . S
H1622 C1632 0.950 . S
H1623 C1634 0.950 . S
H1624 C1636 0.950 . S
H1625 C1637 0.950 . S
C1626 H1618 0.950 . S
C1626 C1627 1.386 . S
C1626 C1628 1.391 . S
C1627 C1626 1.386 . S
C1627 C1631 1.393 . S
C1628 H1620 0.950 . S
C1628 C1626 1.391 . S
C1628 C1629 1.400 . S
C1629 C1628 1.400 . S
C1629 C1630 1.398 . S
C1629 C1635 1.491 . S
C1630 H1621 0.950 . S
C1630 C1629 1.398 . S
C1630 C1631 1.391 . S
C1631 H1619 0.950 . S
C1631 C1627 1.393 . S
C1631 C1630 1.391 . S
C1632 H1622 0.950 . S
C1632 C1633 1.386 . S
C1632 C1634 1.391 . S
C1633 C1632 1.386 . S
C1633 C1637 1.393 . S
C1634 H1623 0.950 . S
C1634 C1632 1.391 . S
C1634 C1635 1.400 . S
C1635 C1629 1.491 . S
C1635 C1634 1.400 . S
C1635 C1636 1.398 . S
C1636 H1624 0.950 . S
C1636 C1635 1.398 . S
C1636 C1637 1.391 . S
C1637 H1625 0.950 . S
C1637 C1633 1.393 . S
C1637 C1636 1.391 . S
C567 C147 1.663 . S
C573 C207 1.659 . S
C587 C158 1.777 . S
C593 C247 1.772 . S
C607 C136 1.602 . S
C613 C286 1.565 . S
C627 C125 1.482 . S
C633 C246 1.452 1_556 S
C653 C287 1.498 . S
C647 C103 1.500 . S
C667 C114 1.352 . S
C673 C206 1.345 . S
C693 C217 1.633 . S
C687 C131 1.653 . S
C713 C257 1.647 . S
C707 C109 1.658 . S
C727 C120 1.657 . S
C733 C296 1.663 . S
C747 C153 1.497 . S
C753 C256 1.503 . S
C767 C164 1.460 . S
C773 C297 1.436 . S
C793 C216 1.477 . S
C787 C142 1.455 . S
C813 C327 1.659 . S
C807 C15 1.664 . S
C827 C26 1.776 . S
C833 C367 1.768 . S
C847 C4 1.592 . S
C853 C406 1.572 . S
C867 C191 1.472 . S
C873 C366 1.431 . S
C887 C169 1.500 . S
C893 C407 1.498 . S
C907 C180 1.365 . S
C913 C326 1.337 . S
C927 C197 1.654 . S
C933 C337 1.637 . S
C947 C175 1.650 . S
C953 C377 1.634 . S
C973 C416 1.659 . S
C967 C186 1.653 . S
C987 C21 1.499 . S
C993 C376 1.492 . S
C1013 C417 1.427 . S
C1007 C32 1.454 . S
C1027 C10 1.454 . S
C1033 C336 1.477 . S
C1053 C447 1.658 . S
C1047 C81 1.663 . S
C1067 C92 1.776 . S
C1073 C487 1.769 . S
C1093 C526 1.576 . S
C1087 C70 1.599 . S
C1113 C486 1.442 . S
C1107 C59 1.485 . S
C1133 C527 1.496 . S
C1127 C37 1.499 . S
C1147 C48 1.366 . S
C1153 C446 1.351 . S
C1167 C65 1.646 . S
C1173 C457 1.633 . S
C1187 C43 1.657 . S
C1193 C497 1.635 . S
C1213 C536 1.653 . S
C1207 C54 1.641 . S
C1227 C87 1.506 . S
C1233 C496 1.497 . S
C1247 C98 1.461 . S
C1253 C537 1.446 . S
C1267 C76 1.449 . S
C1273 C456 1.463 . S
C1287 C170 1.496 . S
C1293 C203 1.489 . S
C1313 C243 1.929 . S
C1307 C181 1.929 . S
C1327 C192 1.549 . S
C1333 C293 1.569 . S
C1347 C71 1.773 . S
C1353 C253 1.784 . S
C1367 C82 1.667 . S
C1373 C283 1.670 . S
C1393 C213 1.324 . S
C1387 C93 1.318 . S
C1407 C38 1.485 . S
C1413 C323 1.476 . S
C1427 C49 1.917 . S
C1433 C363 1.917 . S
C1447 C60 1.548 . S
C1453 C413 1.569 . S
C1467 C137 1.770 . S
C1473 C373 1.786 . S
C1493 C403 1.680 . S
C1487 C148 1.679 . S
C1507 C159 1.305 . S
C1513 C333 1.320 . S
C1527 C104 1.492 . S
C1533 C443 1.485 . S
C1547 C115 1.929 . S
C1553 C483 1.928 . S
C1573 C533 1.577 . S
C1567 C126 1.564 . S
C1587 C5 1.773 . S
C1593 C493 1.784 . S
C1607 C16 1.672 . S
C1613 C523 1.676 . S
C1627 C27 1.315 . S
C1633 C453 1.323 . S
