# Generated by pormake.
# Topology pto, (3,4)-cn, num edge types: 1
# Building blocks:
#     Node 0, Type 0, BuildingBlock: INOVEN_clean_linker_0, # of connection points: 3
#     Node 1, Type 0, BuildingBlock: INOVEN_clean_linker_0, # of connection points: 3
#     Node 2, Type 0, BuildingBlock: INOVEN_clean_linker_0, # of connection points: 3
#     Node 3, Type 0, BuildingBlock: INOVEN_clean_linker_0, # of connection points: 3
#     Node 4, Type 0, BuildingBlock: INOVEN_clean_linker_0, # of connection points: 3
#     Node 5, Type 0, BuildingBlock: INOVEN_clean_linker_0, # of connection points: 3
#     Node 6, Type 0, BuildingBlock: INOVEN_clean_linker_0, # of connection points: 3
#     Node 7, Type 0, BuildingBlock: INOVEN_clean_linker_0, # of connection points: 3
#     Node 8, Type 1, BuildingBlock: KOZSID_clean_sbu_0, # of connection points: 4
#     Node 9, Type 1, BuildingBlock: KOZSID_clean_sbu_0, # of connection points: 4
#     Node 10, Type 1, BuildingBlock: KOZSID_clean_sbu_0, # of connection points: 4
#     Node 11, Type 1, BuildingBlock: KOZSID_clean_sbu_0, # of connection points: 4
#     Node 12, Type 1, BuildingBlock: KOZSID_clean_sbu_0, # of connection points: 4
#     Node 13, Type 1, BuildingBlock: KOZSID_clean_sbu_0, # of connection points: 4
#     Edge 14, Type (0, 1), BuildingBlock: OJICUG_clean_linker_0, # of connection points: 2
#     Edge 15, Type (0, 1), BuildingBlock: OJICUG_clean_linker_0, # of connection points: 2
#     Edge 16, Type (0, 1), BuildingBlock: OJICUG_clean_linker_0, # of connection points: 2
#     Edge 17, Type (0, 1), BuildingBlock: OJICUG_clean_linker_0, # of connection points: 2
#     Edge 18, Type (0, 1), BuildingBlock: OJICUG_clean_linker_0, # of connection points: 2
#     Edge 19, Type (0, 1), BuildingBlock: OJICUG_clean_linker_0, # of connection points: 2
#     Edge 20, Type (0, 1), BuildingBlock: OJICUG_clean_linker_0, # of connection points: 2
#     Edge 21, Type (0, 1), BuildingBlock: OJICUG_clean_linker_0, # of connection points: 2
#     Edge 22, Type (0, 1), BuildingBlock: OJICUG_clean_linker_0, # of connection points: 2
#     Edge 23, Type (0, 1), BuildingBlock: OJICUG_clean_linker_0, # of connection points: 2
#     Edge 24, Type (0, 1), BuildingBlock: OJICUG_clean_linker_0, # of connection points: 2
#     Edge 25, Type (0, 1), BuildingBlock: OJICUG_clean_linker_0, # of connection points: 2
#     Edge 26, Type (0, 1), BuildingBlock: OJICUG_clean_linker_0, # of connection points: 2
#     Edge 27, Type (0, 1), BuildingBlock: OJICUG_clean_linker_0, # of connection points: 2
#     Edge 28, Type (0, 1), BuildingBlock: OJICUG_clean_linker_0, # of connection points: 2
#     Edge 29, Type (0, 1), BuildingBlock: OJICUG_clean_linker_0, # of connection points: 2
#     Edge 30, Type (0, 1), BuildingBlock: OJICUG_clean_linker_0, # of connection points: 2
#     Edge 31, Type (0, 1), BuildingBlock: OJICUG_clean_linker_0, # of connection points: 2
#     Edge 32, Type (0, 1), BuildingBlock: OJICUG_clean_linker_0, # of connection points: 2
#     Edge 33, Type (0, 1), BuildingBlock: OJICUG_clean_linker_0, # of connection points: 2
#     Edge 34, Type (0, 1), BuildingBlock: OJICUG_clean_linker_0, # of connection points: 2
#     Edge 35, Type (0, 1), BuildingBlock: OJICUG_clean_linker_0, # of connection points: 2
#     Edge 36, Type (0, 1), BuildingBlock: OJICUG_clean_linker_0, # of connection points: 2
#     Edge 37, Type (0, 1), BuildingBlock: OJICUG_clean_linker_0, # of connection points: 2
# Relax obj value: 0.011
# Max RMSD: 0.122
# Mean RMSD: 0.061
data_MOF--net-pto--node1-KOZSID_clean_sbu_0--node2-INOVEN_clean_linker_0--edge1-OJICUG_clean_linker_0
_symmetry_space_group_name_H-M    P1
_symmetry_Int_Tables_number       1
_symmetry_cell_setting            triclinic
loop_
_symmetry_equiv_pos_as_xyz
'x, y, z'
_cell_length_a     28.814258
_cell_length_b     37.341237
_cell_length_c     33.513487
_cell_angle_alpha  101.8485
_cell_angle_beta   92.612246
_cell_angle_gamma 104.66021
loop_
_atom_site_label
_atom_site_type_symbol
_atom_site_fract_x
_atom_site_fract_y
_atom_site_fract_z
_atom_type_partial_charge
H0 H 0.27629 0.25256 0.46508 0.0
H1 H 0.36606 0.19928 0.38637 0.0
H2 H 0.32709 0.29657 0.36166 0.0
N3 N 0.27287 0.30579 0.42404 0.0
N4 N 0.27412 0.32933 0.40223 0.0
C5 C 0.29739 0.25142 0.43912 0.0
C6 C 0.32135 0.22268 0.42913 0.0
C7 C 0.29914 0.27808 0.41488 0.0
C8 C 0.32531 0.27602 0.38053 0.0
C9 C 0.34903 0.24757 0.36982 0.0
C10 C 0.3475 0.22122 0.3945 0.0
H11 H 0.2294 0.77379 0.72595 0.0
H12 H 0.30686 0.72993 0.80843 0.0
H13 H 0.36537 0.84296 0.79144 0.0
N14 N 0.29272 0.84012 0.73481 0.0
N15 N 0.31676 0.87396 0.74637 0.0
C16 C 0.26054 0.77729 0.74723 0.0
C17 C 0.264 0.74764 0.76599 0.0
C18 C 0.29693 0.81168 0.75603 0.0
C19 C 0.33708 0.81653 0.7843 0.0
C20 C 0.3412 0.78654 0.80241 0.0
C21 C 0.30464 0.75241 0.79302 0.0
H22 H 0.85713 0.7045 0.32892 0.0
H23 H 0.91254 0.76806 0.45207 0.0
H24 H 0.82819 0.81186 0.37501 0.0
N25 N 0.81149 0.75233 0.30987 0.0
N26 N 0.78752 0.77488 0.30493 0.0
C27 C 0.86168 0.72942 0.35349 0.0
C28 C 0.88821 0.73274 0.39104 0.0
C29 C 0.83964 0.75749 0.34755 0.0
C30 C 0.84484 0.78974 0.37926 0.0
C31 C 0.8709 0.79358 0.41687 0.0
C32 C 0.89219 0.7649 0.42297 0.0
H33 H 0.81775 0.36022 0.93356 0.0
H34 H 0.86644 0.30146 0.82611 0.0
H35 H 0.78106 0.23817 0.90332 0.0
N36 N 0.7679 0.29989 0.95554 0.0
N37 N 0.75815 0.27376 0.97429 0.0
C38 C 0.82023 0.33409 0.91365 0.0
C39 C 0.84636 0.33528 0.87942 0.0
C40 C 0.79733 0.29939 0.92283 0.0
C41 C 0.80013 0.26518 0.89725 0.0
C42 C 0.8246 0.26599 0.86202 0.0
C43 C 0.84798 0.30101 0.85356 0.0
H44 H 0.74848 0.81425 0.82651 0.0
H45 H 0.77574 0.70858 0.83822 0.0
H46 H 0.84904 0.77028 0.75382 0.0
N47 N 0.80644 0.82823 0.77106 0.0
N48 N 0.83091 0.83264 0.74182 0.0
C49 C 0.76602 0.79184 0.81712 0.0
C50 C 0.75744 0.76068 0.83566 0.0
C51 C 0.79843 0.79534 0.78746 0.0
C52 C 0.82309 0.76735 0.77614 0.0
C53 C 0.81486 0.73585 0.79435 0.0
C54 C 0.78164 0.73255 0.82372 0.0
H55 H 0.75135 0.20992 0.39413 0.0
H56 H 0.78733 0.32849 0.39322 0.0
H57 H 0.86881 0.2884 0.47699 0.0
N58 N 0.8179 0.21424 0.45258 0.0
N59 N 0.84423 0.21856 0.48477 0.0
C60 C 0.77356 0.23867 0.4061 0.0
C61 C 0.76413 0.26871 0.39094 0.0
C62 C 0.8107 0.24555 0.43748 0.0
C63 C 0.83968 0.28299 0.45311 0.0
C64 C 0.83147 0.31334 0.43739 0.0
C65 C 0.79326 0.30574 0.40661 0.0
H66 H 0.25124 0.27899 0.78572 0.0
H67 H 0.3228 0.23185 0.86894 0.0
H68 H 0.28128 0.33468 0.91366 0.0
N69 N 0.23826 0.33599 0.83965 0.0
N70 N 0.23899 0.36608 0.8644 0.0
C71 C 0.26614 0.28024 0.81644 0.0
C72 C 0.28776 0.2522 0.82356 0.0
C73 C 0.26305 0.30976 0.84861 0.0
C74 C 0.28295 0.31174 0.88852 0.0
C75 C 0.30397 0.28327 0.89602 0.0
C76 C 0.30573 0.25342 0.86346 0.0
H77 H 0.26129 0.695 0.271 0.0
H78 H 0.23336 0.76361 0.38231 0.0
H79 H 0.32086 0.8161 0.29855 0.0
N80 N 0.31858 0.75154 0.24505 0.0
N81 N 0.35793 0.77468 0.24379 0.0
C82 C 0.26541 0.72255 0.29116 0.0
C83 C 0.24304 0.72547 0.32774 0.0
C84 C 0.29421 0.7551 0.28095 0.0
C85 C 0.29954 0.79091 0.30695 0.0
C86 C 0.27692 0.79438 0.34321 0.0
C87 C 0.24908 0.76144 0.35343 0.0
C88 C 0.14061 0.59147 0.42493 0.0
C89 C 0.17476 0.61696 0.45485 0.0
C90 C 0.16935 0.60356 0.49003 0.0
C91 C 0.13238 0.57073 0.4796 0.0
N92 N 0.11428 0.56272 0.44011 0.0
Co93 Co 0.06011 0.51874 0.41224 0.0
N94 N 0.03791 0.50911 0.46544 0.0
C95 C 0.06391 0.52325 0.50237 0.0
C96 C 0.04063 0.51025 0.53353 0.0
C97 C 0.99767 0.48579 0.51504 0.0
C98 C 0.99718 0.48522 0.47348 0.0
N99 N 0.00592 0.4749 0.38386 0.0
C100 C 0.96694 0.45516 0.39871 0.0
C101 C 0.93815 0.42622 0.3678 0.0
C102 C 0.96063 0.42725 0.33288 0.0
C103 C 0.00156 0.45671 0.34414 0.0
N104 N 0.08284 0.52803 0.35922 0.0
C105 C 0.0714 0.50336 0.32258 0.0
C106 C 0.09218 0.51812 0.29137 0.0
C107 C 0.11842 0.55435 0.30952 0.0
C108 C 0.11225 0.55952 0.35098 0.0
N109 N 0.10164 0.48474 0.41328 0.0
C110 C 0.1615 0.43639 0.41515 0.0
C111 C 0.17884 0.47191 0.40556 0.0
C112 C 0.14836 0.49548 0.40459 0.0
C113 C 0.11362 0.42582 0.42413 0.0
C114 C 0.08447 0.45033 0.42307 0.0
N115 N 0.0192 0.5532 0.41136 0.0
C116 C 0.96956 0.58 0.37299 0.0
C117 C 0.97212 0.60968 0.40707 0.0
C118 C 0.99671 0.60923 0.44393 0.0
C119 C 0.01978 0.58075 0.44545 0.0
C120 C 0.9932 0.55209 0.37579 0.0
H121 H 0.03968 0.58194 0.47389 0.0
H122 H 0.99172 0.53032 0.34876 0.0
H123 H 0.1627 0.52244 0.39673 0.0
H124 H 0.04791 0.44115 0.42992 0.0
C125 C 0.10812 0.55089 0.507 0.0
C126 C 0.13597 0.59394 0.38192 0.0
C127 C 0.96035 0.45825 0.4424 0.0
C128 C 0.03398 0.47023 0.31748 0.0
H129 H 0.20075 0.64249 0.45154 0.0
H130 H 0.18861 0.61707 0.52002 0.0
H131 H 0.05329 0.5177 0.56584 0.0
H132 H 0.97041 0.46931 0.53016 0.0
H133 H 0.90535 0.40539 0.37053 0.0
H134 H 0.94847 0.4088 0.30284 0.0
H135 H 0.08682 0.50491 0.25898 0.0
H136 H 0.13922 0.57466 0.2939 0.0
H137 H 0.21575 0.48156 0.39887 0.0
H138 H 0.09828 0.39842 0.43102 0.0
H139 H 0.95001 0.57859 0.34408 0.0
H140 H 0.99988 0.63155 0.47106 0.0
C141 C 0.11432 0.61658 0.82366 0.0
C142 C 0.1437 0.64423 0.85524 0.0
C143 C 0.12602 0.63765 0.89091 0.0
C144 C 0.08726 0.60635 0.87919 0.0
N145 N 0.07944 0.59232 0.83816 0.0
Co146 Co 0.02753 0.5469 0.80791 0.0
N147 N 0.99805 0.53995 0.85982 0.0
C148 C 0.01139 0.56309 0.89753 0.0
C149 C 0.98497 0.55032 0.92726 0.0
C150 C 0.95337 0.51678 0.90748 0.0
C151 C 0.96242 0.51103 0.86667 0.0
N152 N 0.97701 0.50035 0.77798 0.0
C153 C 0.94465 0.47464 0.79299 0.0
C154 C 0.91802 0.4448 0.76205 0.0
C155 C 0.935 0.45142 0.72617 0.0
C156 C 0.97084 0.48476 0.73731 0.0
N157 N 0.05558 0.55485 0.75566 0.0
C158 C 0.03902 0.53396 0.71734 0.0
C159 C 0.0636 0.54781 0.68727 0.0
C160 C 0.09739 0.57992 0.70749 0.0
C161 C 0.09149 0.58364 0.74889 0.0
N162 N 0.06995 0.51408 0.81646 0.0
C163 C 0.12841 0.46637 0.82987 0.0
C164 C 0.11047 0.46605 0.79017 0.0
C165 C 0.08135 0.48978 0.78422 0.0
C166 C 0.11653 0.49118 0.86253 0.0
C167 C 0.08796 0.51467 0.85521 0.0
N168 N 0.98524 0.57999 0.79965 0.0
C169 C 0.92572 0.59621 0.75836 0.0
C170 C 0.92925 0.6295 0.78771 0.0
C171 C 0.96042 0.63727 0.82325 0.0
C172 C 0.98735 0.61222 0.82876 0.0
C173 C 0.95428 0.57217 0.7647 0.0
H174 H 0.00969 0.61978 0.85691 0.0
H175 H 0.95088 0.54763 0.74082 0.0
H176 H 0.06827 0.4879 0.75334 0.0
H177 H 0.08056 0.5328 0.88161 0.0
C178 C 0.05384 0.59269 0.90516 0.0
C179 C 0.11933 0.61581 0.78042 0.0
C180 C 0.93965 0.47625 0.83628 0.0
C181 C 1.00011 0.50165 0.71057 0.0
H182 H 0.17387 0.66746 0.85266 0.0
H183 H 0.13861 0.65465 0.92156 0.0
H184 H 0.99008 0.56269 0.95985 0.0
H185 H 0.92807 0.49792 0.92184 0.0
H186 H 0.89001 0.42036 0.76529 0.0
H187 H 0.92345 0.43359 0.69575 0.0
H188 H 0.05714 0.53632 0.65451 0.0
H189 H 0.12286 0.59886 0.69332 0.0
H190 H 0.11897 0.44775 0.76365 0.0
H191 H 0.1284 0.49216 0.89395 0.0
H192 H 0.90169 0.58911 0.73039 0.0
H193 H 0.96349 0.66243 0.84717 0.0
C194 C 0.35456 0.00314 0.63896 0.0
C195 C 0.39871 0.99842 0.65202 0.0
C196 C 0.4319 0.01492 0.62874 0.0
C197 C 0.40645 0.02871 0.60276 0.0
N198 N 0.35934 0.0224 0.60853 0.0
Co199 Co 0.30993 0.03603 0.57565 0.0
N200 N 0.3601 0.07182 0.55359 0.0
C201 C 0.40701 0.07249 0.55345 0.0
C202 C 0.43304 0.10022 0.53581 0.0
C203 C 0.40038 0.11799 0.52385 0.0
C204 C 0.35611 0.09998 0.53496 0.0
N205 N 0.26075 0.04966 0.54257 0.0
C206 C 0.26517 0.07959 0.52468 0.0
C207 C 0.22153 0.07829 0.50427 0.0
C208 C 0.18891 0.04615 0.50926 0.0
C209 C 0.21429 0.02974 0.53244 0.0
N210 N 0.25959 1.00004 0.59748 0.0
C211 C 0.21293 0.98606 0.58207 0.0
C212 C 0.18626 0.96246 0.60397 0.0
C213 C 0.21821 0.96095 0.63467 0.0
C214 C 0.26298 0.98346 0.62949 0.0
N215 N 0.30773 0.07695 0.62156 0.0
C216 C 0.3036 0.13444 0.68806 0.0
C217 C 0.26134 0.10872 0.66717 0.0
C218 C 0.26416 0.0805 0.63373 0.0
C219 C 0.34805 0.13118 0.67494 0.0
C220 C 0.34936 0.10192 0.64184 0.0
N221 N 0.31168 0.99484 0.52969 0.0
C222 C 0.30914 0.97015 0.45715 0.0
C223 C 0.30506 0.93387 0.46396 0.0
C224 C 0.3061 0.92878 0.50403 0.0
C225 C 0.3099 0.95965 0.53646 0.0
C226 C 0.31224 1.00035 0.49054 0.0
H227 H 0.31011 0.95467 0.56693 0.0
H228 H 0.31387 0.02791 0.48458 0.0
H229 H 0.23096 0.06152 0.61782 0.0
H230 H 0.384 0.09943 0.63274 0.0
C231 C 0.42637 0.05111 0.5759 0.0
C232 C 0.3084 0.98457 0.6523 0.0
C233 C 0.31059 0.1081 0.52412 0.0
C234 C 0.19424 0.99989 0.55095 0.0
H235 H 0.40611 0.9836 0.67509 0.0
H236 H 0.47012 0.01695 0.63082 0.0
H237 H 0.47143 0.10755 0.53321 0.0
H238 H 0.40816 0.14126 0.50838 0.0
H239 H 0.21408 0.09838 0.48744 0.0
H240 H 0.15084 0.03674 0.49864 0.0
H241 H 0.14792 0.94877 0.59891 0.0
H242 H 0.20968 0.94445 0.65769 0.0
H243 H 0.22633 0.11074 0.67628 0.0
H244 H 0.38146 0.15066 0.69057 0.0
H245 H 0.30839 0.97483 0.4263 0.0
H246 H 0.30324 0.90095 0.51016 0.0
C247 C 0.50344 0.8058 0.10238 0.0
C248 C 0.50521 0.84179 0.12517 0.0
C249 C 0.54995 0.86469 0.1231 0.0
C250 C 0.57278 0.84173 0.09877 0.0
N251 N 0.54482 0.80596 0.08462 0.0
Co252 Co 0.56341 0.76436 0.04724 0.0
N253 N 0.62013 0.80052 0.03298 0.0
C254 C 0.64123 0.83617 0.05419 0.0
C255 C 0.67972 0.85426 0.03643 0.0
C256 C 0.68298 0.82831 0.00192 0.0
C257 C 0.64607 0.79582 1.0006 0.0
N258 N 0.58222 0.72296 0.00983 0.0
C259 C 0.61129 0.72496 0.97935 0.0
C260 C 0.61418 0.68911 0.95988 0.0
C261 C 0.58607 0.66387 0.97924 0.0
C262 C 0.56759 0.68566 0.00918 0.0
N263 N 0.50681 0.72781 0.06159 0.0
C264 C 0.49981 0.68984 0.05469 0.0
C265 C 0.459 0.67165 0.06941 0.0
C266 C 0.43938 0.69986 0.08748 0.0
C267 C 0.46944 0.73399 0.08272 0.0
N268 N 0.52395 0.77087 0.00174 0.0
C269 C 0.4715 0.78063 0.93422 0.0
C270 C 0.46749 0.74429 0.94145 0.0
C271 C 0.49398 0.74005 0.9753 0.0
C272 C 0.50189 0.81194 0.9619 0.0
C273 C 0.52764 0.80647 0.99536 0.0
N274 N 0.60347 0.75839 0.09281 0.0
C275 C 0.61668 0.76011 0.16456 0.0
C276 C 0.66418 0.75845 0.16029 0.0
C277 C 0.68004 0.75481 0.12115 0.0
C278 C 0.64912 0.75491 0.08781 0.0
C279 C 0.58696 0.75987 0.13054 0.0
H280 H 0.66271 0.75335 0.05823 0.0
H281 H 0.55105 0.76197 0.13522 0.0
H282 H 0.4905 0.7118 0.9799 0.0
H283 H 0.55107 0.83115 0.01575 0.0
C284 C 0.61804 0.85378 0.08501 0.0
C285 C 0.46556 0.77148 0.10432 0.0
C286 C 0.63813 0.76041 0.9696 0.0
C287 C 0.52994 0.67194 0.0314 0.0
H288 H 0.47771 0.8502 0.1429 0.0
H289 H 0.56392 0.89458 0.13729 0.0
H290 H 0.70127 0.88343 0.04617 0.0
H291 H 0.70927 0.83282 0.98013 0.0
H292 H 0.6342 0.68189 0.93427 0.0
H293 H 0.57818 0.63321 0.97109 0.0
H294 H 0.44514 0.64147 0.06732 0.0
H295 H 0.40758 0.69558 0.10369 0.0
H296 H 0.4437 0.71926 0.92134 0.0
H297 H 0.50644 0.8405 0.95745 0.0
H298 H 0.60272 0.76219 0.19418 0.0
H299 H 0.71658 0.75345 0.11659 0.0
C300 C 0.89208 0.99436 0.68048 0.0
C301 C 0.93405 0.99602 0.70363 0.0
C302 C 0.96688 0.02909 0.70125 0.0
C303 C 0.94311 0.04571 0.67697 0.0
N304 N 0.89743 0.02518 0.66405 0.0
Co305 Co 0.85054 0.03791 0.62785 0.0
N306 N 0.90268 0.07458 0.60856 0.0
C307 C 0.94848 0.08877 0.62625 0.0
C308 C 0.97671 0.11346 0.60632 0.0
C309 C 0.94665 0.11566 0.57463 0.0
C310 C 0.90139 0.09243 0.57727 0.0
N311 N 0.80314 0.05061 0.59177 0.0
C312 C 0.81005 0.0712 0.5625 0.0
C313 C 0.76633 0.07472 0.54667 0.0
C314 C 0.73128 0.05645 0.5672 0.0
C315 C 0.75518 0.04279 0.59436 0.0
N316 N 0.79872 1.0014 0.64739 0.0
C317 C 0.75144 0.99956 0.6446 0.0
C318 C 0.72424 0.97033 0.65955 0.0
C319 C 0.75651 0.95272 0.67258 0.0
C320 C 0.80177 0.97249 0.66502 0.0
N321 N 0.84437 0.0787 0.67279 0.0
C322 C 0.83393 0.13682 0.73681 0.0
C323 C 0.83343 0.1009 0.74362 0.0
C324 C 0.83893 0.07238 0.71133 0.0
C325 C 0.84046 0.14296 0.69731 0.0
C326 C 0.84522 0.11366 0.66589 0.0
N327 N 0.85675 0.99675 0.58348 0.0
C328 C 0.82 0.93716 0.53618 0.0
C329 C 0.86542 0.93127 0.52952 0.0
C330 C 0.90646 0.95971 0.54892 0.0
C331 C 0.90134 0.9921 0.57585 0.0
C332 C 0.81648 0.97024 0.56286 0.0
H333 H 0.93355 0.01268 0.59162 0.0
H334 H 0.78105 0.9737 0.56787 0.0
H335 H 0.83846 0.04509 0.71756 0.0
H336 H 0.8496 0.11951 0.63603 0.0
C337 C 0.9648 0.07547 0.65888 0.0
C338 C 0.84711 0.96428 0.67629 0.0
C339 C 0.85724 0.09285 0.55369 0.0
C340 C 0.73334 0.02013 0.62032 0.0
H341 H 0.94034 0.97537 0.72016 0.0
H342 H 0.00431 0.03876 0.71388 0.0
H343 H 0.01468 0.12792 0.61372 0.0
H344 H 0.95645 0.13352 0.55301 0.0
H345 H 0.76025 0.0902 0.52389 0.0
H346 H 0.69294 0.05358 0.56289 0.0
H347 H 0.68537 0.96148 0.65888 0.0
H348 H 0.74752 0.92795 0.68564 0.0
H349 H 0.82815 0.09458 0.77346 0.0
H350 H 0.84238 0.1704 0.69052 0.0
H351 H 0.78737 0.91623 0.52107 0.0
H352 H 0.94225 0.95635 0.54452 0.0
C353 C 0.46756 0.29169 0.21693 0.0
C354 C 0.45769 0.32452 0.23817 0.0
C355 C 0.47882 0.353 0.21926 0.0
C356 C 0.50033 0.33603 0.18769 0.0
N357 N 0.49393 0.29875 0.18571 0.0
Co358 Co 0.51948 0.26342 0.14601 0.0
N359 N 0.56917 0.30586 0.13323 0.0
C360 C 0.56904 0.34272 0.1418 0.0
C361 C 0.60898 0.36584 0.13057 0.0
C362 C 0.63537 0.34198 0.11328 0.0
C363 C 0.60964 0.30533 0.11436 0.0
N364 N 0.54437 0.22772 0.10604 0.0
C365 C 0.58592 0.23362 0.08803 0.0
C366 C 0.58729 0.20098 0.05978 0.0
C367 C 0.5451 0.17408 0.06012 0.0
C368 C 0.52019 0.19158 0.08826 0.0
N369 N 0.46983 0.22121 0.15897 0.0
C370 C 0.45316 0.18586 0.13564 0.0
C371 C 0.41917 0.1628 0.15334 0.0
C372 C 0.41428 0.18519 0.19005 0.0
C373 C 0.44574 0.2207 0.19258 0.0
N374 N 0.47468 0.26696 0.10216 0.0
C375 C 0.41276 0.27654 0.04079 0.0
C376 C 0.46102 0.27849 0.03514 0.0
C377 C 0.49114 0.2732 0.06587 0.0
C378 C 0.3957 0.269 0.07748 0.0
C379 C 0.42739 0.2647 0.10799 0.0
N380 N 0.56427 0.26042 0.18993 0.0
C381 C 0.59956 0.22407 0.22807 0.0
C382 C 0.62502 0.25744 0.25616 0.0
C383 C 0.62015 0.29224 0.24963 0.0
C384 C 0.58968 0.29309 0.21663 0.0
C385 C 0.5694 0.22619 0.19512 0.0
H386 H 0.58636 0.32034 0.21304 0.0
H387 H 0.54969 0.20017 0.17419 0.0
H388 H 0.52795 0.27454 0.06027 0.0
H389 H 0.41377 0.25991 0.13644 0.0
C390 C 0.53503 0.35503 0.16582 0.0
C391 C 0.45012 0.25399 0.22583 0.0
C392 C 0.62158 0.27067 0.09295 0.0
C393 C 0.47712 0.17379 0.10221 0.0
H394 H 0.43786 0.32765 0.26474 0.0
H395 H 0.48064 0.38286 0.22893 0.0
H396 H 0.61857 0.39648 0.13547 0.0
H397 H 0.66922 0.35058 0.10059 0.0
H398 H 0.61509 0.19712 0.04001 0.0
H399 H 0.53425 0.14508 0.04235 0.0
H400 H 0.40181 0.13283 0.14196 0.0
H401 H 0.39051 0.17641 0.2124 0.0
H402 H 0.47529 0.28356 0.00683 0.0
H403 H 0.35845 0.26711 0.08281 0.0
H404 H 0.60214 0.19652 0.2319 0.0
H405 H 0.63995 0.31887 0.26979 0.0
C406 C 0.25095 0.38053 0.38048 0.0
C407 C 0.24764 0.35686 0.40817 0.0
H408 H 0.22597 0.42363 0.36034 0.0
C409 C 0.21716 0.3601 0.43949 0.0
H410 H 0.27415 0.37812 0.35609 0.0
C411 C 0.18979 0.38648 0.44236 0.0
C412 C 0.19238 0.40983 0.41394 0.0
H413 H 0.21408 0.34212 0.46133 0.0
H414 H 0.16656 0.38852 0.46677 0.0
C415 C 0.2236 0.40667 0.38316 0.0
C416 C 0.23417 0.67704 0.75449 0.0
C417 C 0.22412 0.71262 0.7607 0.0
H418 H 0.20814 0.61816 0.75578 0.0
C419 C 0.17735 0.71504 0.76833 0.0
H420 H 0.26994 0.67447 0.74845 0.0
C421 C 0.14227 0.6829 0.77265 0.0
C422 C 0.15347 0.64802 0.76897 0.0
H423 H 0.16889 0.74218 0.77371 0.0
H424 H 0.10716 0.68561 0.7808 0.0
C425 C 0.19905 0.64495 0.75863 0.0
C426 C 0.9351 0.68625 0.36453 0.0
C427 C 0.91133 0.70236 0.3963 0.0
H428 H 0.97331 0.64506 0.34323 0.0
C429 C 0.90842 0.68826 0.43217 0.0
H430 H 0.93875 0.69692 0.33679 0.0
C431 C 0.92801 0.65819 0.43578 0.0
C432 C 0.95107 0.64165 0.40363 0.0
H433 H 0.88993 0.69981 0.45702 0.0
H434 H 0.92425 0.64742 0.46343 0.0
C435 C 0.95473 0.65636 0.36815 0.0
C436 C 0.91725 0.37795 0.85671 0.0
C437 C 0.87081 0.37211 0.86985 0.0
H438 H 0.97543 0.41596 0.83611 0.0
C439 C 0.84764 0.40139 0.87299 0.0
H440 H 0.93621 0.3561 0.85441 0.0
C441 C 0.87023 0.43557 0.86267 0.0
C442 C 0.91637 0.44103 0.84934 0.0
H443 H 0.81161 0.39755 0.88248 0.0
H444 H 0.85152 0.45754 0.86452 0.0
C445 C 0.9398 0.41212 0.84651 0.0
C446 C 0.31016 0.15493 0.43425 0.0
C447 C 0.3177 0.19336 0.45381 0.0
H448 H 0.30178 0.09792 0.44148 0.0
C449 C 0.32171 0.20341 0.49695 0.0
H450 H 0.30625 0.14613 0.40113 0.0
C451 C 0.31882 0.17566 0.51992 0.0
C452 C 0.31143 0.13748 0.50013 0.0
H453 H 0.32796 0.23279 0.51293 0.0
H454 H 0.32272 0.184 0.55309 0.0
C455 C 0.30715 0.12729 0.4572 0.0
C456 C 0.39076 0.81784 0.86956 0.0
C457 C 0.38185 0.79012 0.83282 0.0
H458 H 0.42541 0.83617 0.93093 0.0
C459 C 0.40637 0.76169 0.82818 0.0
H460 H 0.37174 0.83972 0.87398 0.0
C461 C 0.43698 0.75956 0.86055 0.0
C462 C 0.44352 0.78571 0.89839 0.0
H463 H 0.4001 0.74005 0.8 0.0
H464 H 0.45452 0.73679 0.85626 0.0
C465 C 0.42129 0.81563 0.90214 0.0
C466 C 0.90423 0.86301 0.44584 0.0
C467 C 0.87468 0.82784 0.4493 0.0
H468 H 0.92463 0.92342 0.46873 0.0
C469 C 0.84361 0.82653 0.48029 0.0
H470 H 0.9278 0.86459 0.42161 0.0
C471 C 0.84108 0.86012 0.50674 0.0
C472 C 0.86987 0.89552 0.50279 0.0
H473 H 0.81999 0.79968 0.48298 0.0
H474 H 0.81623 0.85846 0.53002 0.0
C475 C 0.90222 0.89656 0.47262 0.0
C476 C 0.68848 0.29243 0.00252 0.0
C477 C 0.72559 0.27447 0.00478 0.0
H478 H 0.62583 0.30423 0.02811 0.0
C479 C 0.7293 0.25611 0.03683 0.0
H480 H 0.68426 0.30614 0.97759 0.0
C481 C 0.6968 0.25622 0.0667 0.0
C482 C 0.65944 0.27385 0.06414 0.0
H483 H 0.75745 0.24186 0.03875 0.0
H484 H 0.69999 0.24175 0.09118 0.0
C485 C 0.65529 0.29157 0.03153 0.0
C486 C 0.32963 0.94006 0.74152 0.0
C487 C 0.31304 0.9012 0.72319 0.0
H488 H 0.34001 0.99722 0.73361 0.0
C489 C 0.29418 0.88995 0.68172 0.0
H490 H 0.34459 0.9492 0.77333 0.0
C491 C 0.2924 0.91711 0.65905 0.0
C492 C 0.30829 0.95602 0.67754 0.0
H493 H 0.2818 0.86018 0.66654 0.0
H494 H 0.27904 0.90774 0.62684 0.0
C495 C 0.32689 0.96734 0.71898 0.0
C496 C 0.75766 0.74202 0.23296 0.0
C497 C 0.75844 0.77041 0.26806 0.0
H498 H 0.72695 0.71605 0.17095 0.0
C499 C 0.72921 0.79497 0.26711 0.0
H500 H 0.7801 0.72273 0.23291 0.0
C501 C 0.69881 0.79107 0.23203 0.0
C502 C 0.69737 0.76255 0.19699 0.0
H503 H 0.72966 0.81704 0.29387 0.0
H504 H 0.67659 0.81056 0.23224 0.0
C505 C 0.72747 0.73829 0.19755 0.0
C506 C 0.84532 0.20389 0.84141 0.0
C507 C 0.8229 0.23071 0.83177 0.0
H508 H 0.86753 0.15354 0.81877 0.0
C509 C 0.80144 0.22524 0.79183 0.0
H510 H 0.8623 0.20779 0.87208 0.0
C511 C 0.80351 0.19405 0.76158 0.0
C512 C 0.82799 0.16794 0.77034 0.0
H513 H 0.78357 0.24549 0.7839 0.0
H514 H 0.78633 0.19072 0.73113 0.0
C515 C 0.84811 0.17284 0.81089 0.0
C516 C 0.35102 0.24911 0.29575 0.0
C517 C 0.37409 0.24552 0.33207 0.0
H518 H 0.35744 0.25463 0.23367 0.0
C519 C 0.42182 0.24264 0.33251 0.0
H520 H 0.31404 0.25087 0.29436 0.0
C521 C 0.44656 0.24486 0.29767 0.0
C522 C 0.42373 0.24978 0.26211 0.0
H523 H 0.44045 0.24003 0.36014 0.0
H524 H 0.4837 0.24349 0.2987 0.0
C525 C 0.37563 0.25122 0.2611 0.0
C526 C 0.8944 0.72079 0.78997 0.0
C527 C 0.84385 0.70804 0.78588 0.0
H528 H 0.96113 0.70561 0.79373 0.0
C529 C 0.82161 0.6688 0.77796 0.0
H530 H 0.91244 0.75088 0.79642 0.0
C531 C 0.84949 0.64288 0.77598 0.0
C532 C 0.89997 0.65589 0.7826 0.0
H533 H 0.78266 0.65829 0.77458 0.0
H534 H 0.83158 0.6129 0.77148 0.0
C535 C 0.9222 0.69496 0.78866 0.0
C536 C 0.84723 0.3846 0.45157 0.0
C537 C 0.86487 0.35238 0.44965 0.0
H538 H 0.86418 0.44397 0.45111 0.0
C539 C 0.91506 0.35752 0.45368 0.0
H540 H 0.80882 0.38183 0.44945 0.0
C541 C 0.94655 0.39327 0.45562 0.0
C542 C 0.92847 0.42446 0.45344 0.0
H543 H 0.93002 0.33348 0.45206 0.0
H544 H 0.98484 0.39587 0.45552 0.0
C545 C 0.87877 0.42028 0.45307 0.0
C546 C 0.22138 0.42758 0.879 0.0
C547 C 0.21228 0.39089 0.85456 0.0
H548 H 0.20379 0.48077 0.88962 0.0
C549 C 0.17625 0.3792 0.82121 0.0
H550 H 0.2491 0.43708 0.90468 0.0
C551 C 0.14945 0.40375 0.81295 0.0
C552 C 0.15834 0.44067 0.83754 0.0
H553 H 0.16807 0.35084 0.80196 0.0
H554 H 0.12099 0.39336 0.78787 0.0
C555 C 0.19511 0.45237 0.87043 0.0
C556 C 0.23326 0.65944 0.33841 0.0
C557 C 0.21497 0.69121 0.34053 0.0
H558 H 0.22275 0.60392 0.35086 0.0
C559 C 0.17085 0.6909 0.3571 0.0
H560 H 0.26749 0.65911 0.32646 0.0
C561 C 0.14553 0.65946 0.37111 0.0
C562 C 0.16394 0.62791 0.36887 0.0
H563 H 0.15577 0.71492 0.359 0.0
H564 H 0.1114 0.6596 0.38336 0.0
C565 C 0.20807 0.62813 0.35269 0.0
C566 C 0.82593 0.89857 0.74934 0.0
C567 C 0.83781 0.86642 0.72694 0.0
H568 H 0.8205 0.95501 0.75073 0.0
C569 C 0.85558 0.86755 0.68883 0.0
H570 H 0.81278 0.89878 0.77912 0.0
C571 C 0.8595 0.89971 0.67246 0.0
C572 C 0.84601 0.93111 0.69432 0.0
H573 H 0.86518 0.84316 0.67135 0.0
H574 H 0.87208 0.89982 0.6425 0.0
C575 C 0.83036 0.93071 0.73324 0.0
C576 C 0.72077 0.23484 0.32136 0.0
C577 C 0.72467 0.26203 0.35809 0.0
H578 H 0.68661 0.21234 0.25993 0.0
C579 C 0.69276 0.28508 0.36224 0.0
H580 H 0.74514 0.21684 0.31737 0.0
C581 C 0.65908 0.28229 0.32975 0.0
C582 C 0.65685 0.25669 0.29206 0.0
H583 H 0.69452 0.30586 0.39048 0.0
H584 H 0.63534 0.30079 0.33396 0.0
C585 C 0.68723 0.23226 0.28855 0.0
C586 C 0.31628 0.23144 0.75561 0.0
C587 C 0.29237 0.222 0.78914 0.0
H588 H 0.33941 0.21071 0.69742 0.0
C589 C 0.27314 0.18365 0.78971 0.0
H590 H 0.33162 0.2609 0.75477 0.0
C591 C 0.27689 0.15513 0.75678 0.0
C592 C 0.30092 0.16457 0.72331 0.0
H593 H 0.25454 0.17583 0.81531 0.0
H594 H 0.26124 0.12568 0.75748 0.0
C595 C 0.32099 0.20289 0.7231 0.0
C596 C 0.4335 0.78636 0.21379 0.0
C597 C 0.38322 0.77312 0.20847 0.0
H598 H 0.49895 0.7948 0.18505 0.0
C599 C 0.35925 0.76012 0.16859 0.0
H600 H 0.45234 0.79659 0.24435 0.0
C601 C 0.38572 0.76066 0.13451 0.0
C602 C 0.43636 0.77314 0.13996 0.0
H603 H 0.32028 0.75025 0.16388 0.0
H604 H 0.36684 0.75082 0.10395 0.0
C605 C 0.45993 0.78563 0.17995 0.0
C606 C 0.86861 0.19325 0.54104 0.0
C607 C 0.85061 0.1871 0.50001 0.0
H608 H 0.88384 0.16809 0.59039 0.0
C609 C 0.83794 0.14989 0.47551 0.0
H610 H 0.8785 0.22167 0.5603 0.0
C611 C 0.84226 0.11933 0.49235 0.0
C612 C 0.85841 0.12542 0.53398 0.0
H613 H 0.82426 0.14438 0.44359 0.0
H614 H 0.83149 0.09082 0.4733 0.0
C615 C 0.87188 0.1627 0.55807 0.0
C616 C 0.31191 0.25403 0.95583 0.0
C617 C 0.32654 0.28489 0.9371 0.0
H618 H 0.32746 0.22765 0.00414 0.0
C619 C 0.36696 0.31479 0.95507 0.0
H620 H 0.28096 0.23056 0.94226 0.0
C621 C 0.39403 0.31277 0.98986 0.0
C622 C 0.38053 0.28116 0.00765 0.0
H623 H 0.37915 0.33864 0.94086 0.0
H624 H 0.42637 0.33535 0.00219 0.0
C625 C 0.33839 0.25238 0.99112 0.0
C626 C 0.32843 0.85935 0.37884 0.0
C627 C 0.28332 0.83208 0.37123 0.0
H628 H 0.37048 0.9136 0.41427 0.0
C629 C 0.24473 0.84036 0.39215 0.0
H630 H 0.35905 0.85374 0.36364 0.0
C631 C 0.25166 0.87419 0.42139 0.0
C632 C 0.29699 0.90065 0.42973 0.0
H633 H 0.20929 0.82041 0.38642 0.0
H634 H 0.22185 0.87943 0.43812 0.0
C635 C 0.33513 0.8935 0.40781 0.0
C636 C 0.73961 0.74858 0.90501 0.0
C637 C 0.72553 0.75891 0.8692 0.0
H638 H 0.72276 0.74129 0.96505 0.0
C639 C 0.68191 0.76918 0.86653 0.0
H640 H 0.77339 0.74123 0.90837 0.0
C641 C 0.65325 0.7694 0.8991 0.0
C642 C 0.66769 0.75923 0.93467 0.0
H643 H 0.66995 0.77705 0.83926 0.0
H644 H 0.61993 0.77759 0.89662 0.0
C645 C 0.71097 0.74884 0.9375 0.0
loop_
_geom_bond_atom_site_label_1
_geom_bond_atom_site_label_2
_geom_bond_distance
_geom_bond_site_symmetry_2
_ccdc_geom_bond_type
H0 C5 0.929 . S
H1 C10 0.931 . S
H2 C8 0.930 . S
N3 N4 1.234 . S
N3 C7 1.453 . S
N4 N3 1.234 . S
C5 H0 0.929 . S
C5 C6 1.373 . S
C5 C7 1.368 . S
C6 C5 1.373 . S
C6 C10 1.397 . S
C7 N3 1.453 . S
C7 C5 1.368 . S
C7 C8 1.373 . S
C8 H2 0.930 . S
C8 C7 1.373 . S
C8 C9 1.371 . S
C9 C8 1.371 . S
C9 C10 1.383 . S
C10 H1 0.931 . S
C10 C6 1.397 . S
C10 C9 1.383 . S
H11 C16 0.929 . S
H12 C21 0.931 . S
H13 C19 0.930 . S
N14 N15 1.234 . S
N14 C18 1.453 . S
N15 N14 1.234 . S
C16 H11 0.929 . S
C16 C17 1.373 . S
C16 C18 1.368 . S
C17 C16 1.373 . S
C17 C21 1.397 . S
C18 N14 1.453 . S
C18 C16 1.368 . S
C18 C19 1.373 . S
C19 H13 0.930 . S
C19 C18 1.373 . S
C19 C20 1.371 . S
C20 C19 1.371 . S
C20 C21 1.383 . S
C21 H12 0.931 . S
C21 C17 1.397 . S
C21 C20 1.383 . S
H22 C27 0.929 . S
H23 C32 0.931 . S
H24 C30 0.930 . S
N25 N26 1.234 . S
N25 C29 1.453 . S
N26 N25 1.234 . S
C27 H22 0.929 . S
C27 C28 1.373 . S
C27 C29 1.368 . S
C28 C27 1.373 . S
C28 C32 1.397 . S
C29 N25 1.453 . S
C29 C27 1.368 . S
C29 C30 1.373 . S
C30 H24 0.930 . S
C30 C29 1.373 . S
C30 C31 1.371 . S
C31 C30 1.371 . S
C31 C32 1.383 . S
C32 H23 0.931 . S
C32 C28 1.397 . S
C32 C31 1.383 . S
H33 C38 0.929 . S
H34 C43 0.931 . S
H35 C41 0.930 . S
N36 N37 1.234 . S
N36 C40 1.453 . S
N37 N36 1.234 . S
C38 H33 0.929 . S
C38 C39 1.373 . S
C38 C40 1.368 . S
C39 C38 1.373 . S
C39 C43 1.397 . S
C40 N36 1.453 . S
C40 C38 1.368 . S
C40 C41 1.373 . S
C41 H35 0.930 . S
C41 C40 1.373 . S
C41 C42 1.371 . S
C42 C41 1.371 . S
C42 C43 1.383 . S
C43 H34 0.931 . S
C43 C39 1.397 . S
C43 C42 1.383 . S
H44 C49 0.929 . S
H45 C54 0.931 . S
H46 C52 0.930 . S
N47 N48 1.234 . S
N47 C51 1.453 . S
N48 N47 1.234 . S
C49 H44 0.929 . S
C49 C50 1.373 . S
C49 C51 1.368 . S
C50 C49 1.373 . S
C50 C54 1.397 . S
C51 N47 1.453 . S
C51 C49 1.368 . S
C51 C52 1.373 . S
C52 H46 0.930 . S
C52 C51 1.373 . S
C52 C53 1.371 . S
C53 C52 1.371 . S
C53 C54 1.383 . S
C54 H45 0.931 . S
C54 C50 1.397 . S
C54 C53 1.383 . S
H55 C60 0.929 . S
H56 C65 0.931 . S
H57 C63 0.930 . S
N58 N59 1.234 . S
N58 C62 1.453 . S
N59 N58 1.234 . S
C60 H55 0.929 . S
C60 C61 1.373 . S
C60 C62 1.368 . S
C61 C60 1.373 . S
C61 C65 1.397 . S
C62 N58 1.453 . S
C62 C60 1.368 . S
C62 C63 1.373 . S
C63 H57 0.930 . S
C63 C62 1.373 . S
C63 C64 1.371 . S
C64 C63 1.371 . S
C64 C65 1.383 . S
C65 H56 0.931 . S
C65 C61 1.397 . S
C65 C64 1.383 . S
H66 C71 0.929 . S
H67 C76 0.931 . S
H68 C74 0.930 . S
N69 N70 1.234 . S
N69 C73 1.453 . S
N70 N69 1.234 . S
C71 H66 0.929 . S
C71 C72 1.373 . S
C71 C73 1.368 . S
C72 C71 1.373 . S
C72 C76 1.397 . S
C73 N69 1.453 . S
C73 C71 1.368 . S
C73 C74 1.373 . S
C74 H68 0.930 . S
C74 C73 1.373 . S
C74 C75 1.371 . S
C75 C74 1.371 . S
C75 C76 1.383 . S
C76 H67 0.931 . S
C76 C72 1.397 . S
C76 C75 1.383 . S
H77 C82 0.929 . S
H78 C87 0.931 . S
H79 C85 0.930 . S
N80 N81 1.234 . S
N80 C84 1.453 . S
N81 N80 1.234 . S
C82 H77 0.929 . S
C82 C83 1.373 . S
C82 C84 1.368 . S
C83 C82 1.373 . S
C83 C87 1.397 . S
C84 N80 1.453 . S
C84 C82 1.368 . S
C84 C85 1.373 . S
C85 H79 0.930 . S
C85 C84 1.373 . S
C85 C86 1.371 . S
C86 C85 1.371 . S
C86 C87 1.383 . S
C87 H78 0.931 . S
C87 C83 1.397 . S
C87 C86 1.383 . S
C88 C89 1.443 . S
C88 N92 1.376 . S
C88 C126 1.389 . S
C89 C88 1.443 . S
C89 C90 1.340 . S
C89 H129 0.951 . S
C90 C89 1.340 . S
C90 C91 1.439 . S
C90 H130 0.950 . S
C91 C90 1.439 . S
C91 N92 1.374 . S
C91 C125 1.395 . S
N92 C88 1.376 . S
N92 C91 1.374 . S
N92 Co93 2.008 . S
Co93 N92 2.008 . S
Co93 N94 1.995 . S
Co93 N99 2.008 . S
Co93 N104 1.995 . S
Co93 N109 2.282 . S
Co93 N115 2.282 . S
N94 Co93 1.995 . S
N94 C95 1.376 . S
N94 C98 1.383 . S
C95 N94 1.376 . S
C95 C96 1.446 . S
C95 C125 1.391 . S
C96 C95 1.446 . S
C96 C97 1.339 . S
C96 H131 0.949 . S
C97 C96 1.339 . S
C97 C98 1.439 . S
C97 H132 0.950 1_455 S
C98 N94 1.383 . S
C98 C97 1.439 . S
C98 C127 1.392 1_455 S
N99 Co93 2.008 . S
N99 C100 1.376 1_455 S
N99 C103 1.374 . S
C100 N99 1.376 1_655 S
C100 C101 1.443 . S
C100 C127 1.389 . S
C101 C100 1.443 . S
C101 C102 1.340 . S
C101 H133 0.951 . S
C102 C101 1.340 . S
C102 C103 1.439 1_655 S
C102 H134 0.950 . S
C103 N99 1.374 . S
C103 C102 1.439 1_455 S
C103 C128 1.395 . S
N104 Co93 1.995 . S
N104 C105 1.376 . S
N104 C108 1.383 . S
C105 N104 1.376 . S
C105 C106 1.446 . S
C105 C128 1.391 . S
C106 C105 1.446 . S
C106 C107 1.339 . S
C106 H135 0.949 . S
C107 C106 1.339 . S
C107 C108 1.439 . S
C107 H136 0.950 . S
C108 N104 1.383 . S
C108 C107 1.439 . S
C108 C126 1.392 . S
N109 Co93 2.282 . S
N109 C112 1.332 . S
N109 C114 1.332 . S
C110 C111 1.386 . S
C110 C113 1.388 . S
C111 C110 1.386 . S
C111 C112 1.382 . S
C111 H137 0.950 . S
C112 N109 1.332 . S
C112 C111 1.382 . S
C112 H123 0.952 . S
C113 C110 1.388 . S
C113 C114 1.382 . S
C113 H138 0.950 . S
C114 N109 1.332 . S
C114 C113 1.382 . S
C114 H124 0.948 . S
N115 Co93 2.282 . S
N115 C119 1.332 . S
N115 C120 1.332 . S
C116 C117 1.388 . S
C116 C120 1.382 1_655 S
C116 H139 0.950 . S
C117 C116 1.388 . S
C117 C118 1.386 . S
C118 C117 1.386 . S
C118 C119 1.382 1_655 S
C118 H140 0.950 . S
C119 N115 1.332 . S
C119 C118 1.382 1_455 S
C119 H121 0.952 . S
C120 N115 1.332 . S
C120 C116 1.382 1_455 S
C120 H122 0.948 . S
H121 C119 0.952 . S
H122 C120 0.948 . S
H123 C112 0.952 . S
H124 C114 0.948 . S
C125 C91 1.395 . S
C125 C95 1.391 . S
C126 C88 1.389 . S
C126 C108 1.392 . S
C127 C98 1.392 1_655 S
C127 C100 1.389 . S
C128 C103 1.395 . S
C128 C105 1.391 . S
H129 C89 0.951 . S
H130 C90 0.950 . S
H131 C96 0.949 . S
H132 C97 0.950 1_655 S
H133 C101 0.951 . S
H134 C102 0.950 . S
H135 C106 0.949 . S
H136 C107 0.950 . S
H137 C111 0.950 . S
H138 C113 0.950 . S
H139 C116 0.950 . S
H140 C118 0.950 . S
C141 C142 1.443 . S
C141 N145 1.376 . S
C141 C179 1.389 . S
C142 C141 1.443 . S
C142 C143 1.340 . S
C142 H182 0.951 . S
C143 C142 1.340 . S
C143 C144 1.439 . S
C143 H183 0.950 . S
C144 C143 1.439 . S
C144 N145 1.374 . S
C144 C178 1.395 . S
N145 C141 1.376 . S
N145 C144 1.374 . S
N145 Co146 2.008 . S
Co146 N145 2.008 . S
Co146 N147 1.995 1_455 S
Co146 N152 2.008 1_455 S
Co146 N157 1.995 . S
Co146 N162 2.282 . S
Co146 N168 2.282 1_455 S
N147 Co146 1.995 1_655 S
N147 C148 1.376 1_655 S
N147 C151 1.383 . S
C148 N147 1.376 1_455 S
C148 C149 1.446 1_455 S
C148 C178 1.391 . S
C149 C148 1.446 1_655 S
C149 C150 1.339 . S
C149 H184 0.949 . S
C150 C149 1.339 . S
C150 C151 1.439 . S
C150 H185 0.950 . S
C151 N147 1.383 . S
C151 C150 1.439 . S
C151 C180 1.392 . S
N152 Co146 2.008 1_655 S
N152 C153 1.376 . S
N152 C156 1.374 . S
C153 N152 1.376 . S
C153 C154 1.443 . S
C153 C180 1.389 . S
C154 C153 1.443 . S
C154 C155 1.340 . S
C154 H186 0.951 . S
C155 C154 1.340 . S
C155 C156 1.439 . S
C155 H187 0.950 . S
C156 N152 1.374 . S
C156 C155 1.439 . S
C156 C181 1.395 . S
N157 Co146 1.995 . S
N157 C158 1.376 . S
N157 C161 1.383 . S
C158 N157 1.376 . S
C158 C159 1.446 . S
C158 C181 1.391 1_455 S
C159 C158 1.446 . S
C159 C160 1.339 . S
C159 H188 0.949 . S
C160 C159 1.339 . S
C160 C161 1.439 . S
C160 H189 0.950 . S
C161 N157 1.383 . S
C161 C160 1.439 . S
C161 C179 1.392 . S
N162 Co146 2.282 . S
N162 C165 1.332 . S
N162 C167 1.332 . S
C163 C164 1.386 . S
C163 C166 1.388 . S
C164 C163 1.386 . S
C164 C165 1.382 . S
C164 H190 0.950 . S
C165 N162 1.332 . S
C165 C164 1.382 . S
C165 H176 0.952 . S
C166 C163 1.388 . S
C166 C167 1.382 . S
C166 H191 0.950 . S
C167 N162 1.332 . S
C167 C166 1.382 . S
C167 H177 0.948 . S
N168 Co146 2.282 1_655 S
N168 C172 1.332 . S
N168 C173 1.332 . S
C169 C170 1.388 . S
C169 C173 1.382 . S
C169 H192 0.950 . S
C170 C169 1.388 . S
C170 C171 1.386 . S
C171 C170 1.386 . S
C171 C172 1.382 . S
C171 H193 0.950 . S
C172 N168 1.332 . S
C172 C171 1.382 . S
C172 H174 0.952 . S
C173 N168 1.332 . S
C173 C169 1.382 . S
C173 H175 0.948 . S
H174 C172 0.952 . S
H175 C173 0.948 . S
H176 C165 0.952 . S
H177 C167 0.948 . S
C178 C144 1.395 . S
C178 C148 1.391 . S
C179 C141 1.389 . S
C179 C161 1.392 . S
C180 C151 1.392 . S
C180 C153 1.389 . S
C181 C156 1.395 . S
C181 C158 1.391 1_655 S
H182 C142 0.951 . S
H183 C143 0.950 . S
H184 C149 0.949 . S
H185 C150 0.950 . S
H186 C154 0.951 . S
H187 C155 0.950 . S
H188 C159 0.949 . S
H189 C160 0.950 . S
H190 C164 0.950 . S
H191 C166 0.950 . S
H192 C169 0.950 . S
H193 C171 0.950 . S
C194 C195 1.443 . S
C194 N198 1.376 1_565 S
C194 C232 1.389 . S
C195 C194 1.443 . S
C195 C196 1.340 1_565 S
C195 H235 0.951 . S
C196 C195 1.340 1_545 S
C196 C197 1.439 . S
C196 H236 0.950 . S
C197 C196 1.439 . S
C197 N198 1.374 . S
C197 C231 1.395 . S
N198 C194 1.376 1_545 S
N198 C197 1.374 . S
N198 Co199 2.008 . S
Co199 N198 2.008 . S
Co199 N200 1.995 . S
Co199 N205 2.008 . S
Co199 N210 1.995 . S
Co199 N215 2.282 . S
Co199 N221 2.282 1_545 S
N200 Co199 1.995 . S
N200 C201 1.376 . S
N200 C204 1.383 . S
C201 N200 1.376 . S
C201 C202 1.446 . S
C201 C231 1.391 . S
C202 C201 1.446 . S
C202 C203 1.339 . S
C202 H237 0.949 . S
C203 C202 1.339 . S
C203 C204 1.439 . S
C203 H238 0.950 . S
C204 N200 1.383 . S
C204 C203 1.439 . S
C204 C233 1.392 . S
N205 Co199 2.008 . S
N205 C206 1.376 . S
N205 C209 1.374 . S
C206 N205 1.376 . S
C206 C207 1.443 . S
C206 C233 1.389 . S
C207 C206 1.443 . S
C207 C208 1.340 . S
C207 H239 0.951 . S
C208 C207 1.340 . S
C208 C209 1.439 . S
C208 H240 0.950 . S
C209 N205 1.374 . S
C209 C208 1.439 . S
C209 C234 1.395 . S
N210 Co199 1.995 . S
N210 C211 1.376 1_545 S
N210 C214 1.383 1_545 S
C211 N210 1.376 1_565 S
C211 C212 1.446 . S
C211 C234 1.391 1_565 S
C212 C211 1.446 . S
C212 C213 1.339 . S
C212 H241 0.949 . S
C213 C212 1.339 . S
C213 C214 1.439 . S
C213 H242 0.950 . S
C214 N210 1.383 1_565 S
C214 C213 1.439 . S
C214 C232 1.392 . S
N215 Co199 2.282 . S
N215 C218 1.332 . S
N215 C220 1.332 . S
C216 C217 1.386 . S
C216 C219 1.388 . S
C217 C216 1.386 . S
C217 C218 1.382 . S
C217 H243 0.950 . S
C218 N215 1.332 . S
C218 C217 1.382 . S
C218 H229 0.952 . S
C219 C216 1.388 . S
C219 C220 1.382 . S
C219 H244 0.950 . S
C220 N215 1.332 . S
C220 C219 1.382 . S
C220 H230 0.948 . S
N221 Co199 2.282 1_565 S
N221 C225 1.332 . S
N221 C226 1.332 . S
C222 C223 1.388 . S
C222 C226 1.382 . S
C222 H245 0.950 . S
C223 C222 1.388 . S
C223 C224 1.386 . S
C224 C223 1.386 . S
C224 C225 1.382 . S
C224 H246 0.950 . S
C225 N221 1.332 . S
C225 C224 1.382 . S
C225 H227 0.952 1_565 S
C226 N221 1.332 . S
C226 C222 1.382 . S
C226 H228 0.948 . S
H227 C225 0.952 1_545 S
H228 C226 0.948 . S
H229 C218 0.952 . S
H230 C220 0.948 . S
C231 C197 1.395 . S
C231 C201 1.391 . S
C232 C194 1.389 . S
C232 C214 1.392 . S
C233 C204 1.392 . S
C233 C206 1.389 . S
C234 C209 1.395 . S
C234 C211 1.391 1_545 S
H235 C195 0.951 . S
H236 C196 0.950 . S
H237 C202 0.949 . S
H238 C203 0.950 . S
H239 C207 0.951 . S
H240 C208 0.950 . S
H241 C212 0.949 . S
H242 C213 0.950 . S
H243 C217 0.950 . S
H244 C219 0.950 . S
H245 C222 0.950 . S
H246 C224 0.950 . S
C247 C248 1.443 . S
C247 N251 1.376 . S
C247 C285 1.389 . S
C248 C247 1.443 . S
C248 C249 1.340 . S
C248 H288 0.951 . S
C249 C248 1.340 . S
C249 C250 1.439 . S
C249 H289 0.950 . S
C250 C249 1.439 . S
C250 N251 1.374 . S
C250 C284 1.395 . S
N251 C247 1.376 . S
N251 C250 1.374 . S
N251 Co252 2.020 . S
Co252 N251 2.020 . S
Co252 N253 1.985 1_554 S
Co252 N258 1.997 1_554 S
Co252 N263 2.004 . S
Co252 N268 2.268 1_554 S
Co252 N274 2.297 . S
N253 Co252 1.985 1_556 S
N253 C254 1.377 . S
N253 C257 1.383 . S
C254 N253 1.377 . S
C254 C255 1.449 . S
C254 C284 1.388 1_556 S
C255 C254 1.449 . S
C255 C256 1.339 . S
C255 H290 0.949 . S
C256 C255 1.339 . S
C256 C257 1.439 . S
C256 H291 0.950 . S
C257 N253 1.383 . S
C257 C256 1.439 . S
C257 C286 1.392 . S
N258 Co252 1.997 1_556 S
N258 C259 1.376 . S
N258 C262 1.374 . S
C259 N258 1.376 . S
C259 C260 1.443 . S
C259 C286 1.389 . S
C260 C259 1.443 . S
C260 C261 1.340 . S
C260 H292 0.951 . S
C261 C260 1.340 . S
C261 C262 1.439 . S
C261 H293 0.950 . S
C262 N258 1.374 . S
C262 C261 1.439 . S
C262 C287 1.395 . S
N263 Co252 2.004 . S
N263 C264 1.376 . S
N263 C267 1.383 . S
C264 N263 1.376 . S
C264 C265 1.446 . S
C264 C287 1.391 1_554 S
C265 C264 1.446 . S
C265 C266 1.339 . S
C265 H294 0.949 . S
C266 C265 1.339 . S
C266 C267 1.439 . S
C266 H295 0.950 . S
C267 N263 1.383 . S
C267 C266 1.439 . S
C267 C285 1.392 . S
N268 Co252 2.268 1_556 S
N268 C271 1.332 . S
N268 C273 1.332 . S
C269 C270 1.386 . S
C269 C272 1.388 . S
C270 C269 1.386 . S
C270 C271 1.382 . S
C270 H296 0.950 . S
C271 N268 1.332 . S
C271 C270 1.382 . S
C271 H282 0.952 . S
C272 C269 1.388 . S
C272 C273 1.382 . S
C272 H297 0.950 . S
C273 N268 1.332 . S
C273 C272 1.382 . S
C273 H283 0.948 . S
N274 Co252 2.297 . S
N274 C278 1.332 . S
N274 C279 1.332 . S
C275 C276 1.388 . S
C275 C279 1.382 . S
C275 H298 0.950 . S
C276 C275 1.388 . S
C276 C277 1.386 . S
C277 C276 1.386 . S
C277 C278 1.382 . S
C277 H299 0.950 . S
C278 N274 1.332 . S
C278 C277 1.382 . S
C278 H280 0.952 . S
C279 N274 1.332 . S
C279 C275 1.382 . S
C279 H281 0.948 . S
H280 C278 0.952 . S
H281 C279 0.948 . S
H282 C271 0.952 . S
H283 C273 0.948 . S
C284 C250 1.395 . S
C284 C254 1.388 1_554 S
C285 C247 1.389 . S
C285 C267 1.392 . S
C286 C257 1.392 . S
C286 C259 1.389 . S
C287 C262 1.395 . S
C287 C264 1.391 1_556 S
H288 C248 0.951 . S
H289 C249 0.950 . S
H290 C255 0.949 . S
H291 C256 0.950 . S
H292 C260 0.951 . S
H293 C261 0.950 . S
H294 C265 0.949 . S
H295 C266 0.950 . S
H296 C270 0.950 . S
H297 C272 0.950 . S
H298 C275 0.950 . S
H299 C277 0.950 . S
C300 C301 1.452 . S
C300 N304 1.360 1_565 S
C300 C338 1.395 . S
C301 C300 1.452 . S
C301 C302 1.340 1_665 S
C301 H341 0.951 . S
C302 C301 1.340 1_445 S
C302 C303 1.450 . S
C302 H342 0.950 . S
C303 C302 1.450 . S
C303 N304 1.356 1_455 S
C303 C337 1.402 . S
N304 C300 1.360 1_545 S
N304 C303 1.356 1_655 S
N304 Co305 2.008 . S
Co305 N304 2.008 . S
Co305 N306 1.995 . S
Co305 N311 2.008 . S
Co305 N316 1.995 . S
Co305 N321 2.282 . S
Co305 N327 2.282 . S
N306 Co305 1.995 . S
N306 C307 1.376 1_655 S
N306 C310 1.383 . S
C307 N306 1.376 1_455 S
C307 C308 1.446 . S
C307 C337 1.391 . S
C308 C307 1.446 . S
C308 C309 1.339 1_455 S
C308 H343 0.949 . S
C309 C308 1.339 1_655 S
C309 C310 1.439 . S
C309 H344 0.950 1_655 S
C310 N306 1.383 . S
C310 C309 1.439 . S
C310 C339 1.392 . S
N311 Co305 2.008 . S
N311 C312 1.376 . S
N311 C315 1.374 . S
C312 N311 1.376 . S
C312 C313 1.443 . S
C312 C339 1.389 . S
C313 C312 1.443 . S
C313 C314 1.340 . S
C313 H345 0.951 . S
C314 C313 1.340 . S
C314 C315 1.439 . S
C314 H346 0.950 . S
C315 N311 1.374 . S
C315 C314 1.439 . S
C315 C340 1.395 . S
N316 Co305 1.995 . S
N316 C317 1.376 . S
N316 C320 1.383 1_545 S
C317 N316 1.376 . S
C317 C318 1.446 1_545 S
C317 C340 1.391 . S
C318 C317 1.446 1_565 S
C318 C319 1.339 . S
C318 H347 0.949 . S
C319 C318 1.339 . S
C319 C320 1.439 . S
C319 H348 0.950 . S
C320 N316 1.383 1_565 S
C320 C319 1.439 . S
C320 C338 1.392 . S
N321 Co305 2.282 . S
N321 C324 1.332 . S
N321 C326 1.332 . S
C322 C323 1.386 . S
C322 C325 1.388 . S
C323 C322 1.386 . S
C323 C324 1.382 . S
C323 H349 0.950 . S
C324 N321 1.332 . S
C324 C323 1.382 . S
C324 H335 0.952 . S
C325 C322 1.388 . S
C325 C326 1.382 . S
C325 H350 0.950 . S
C326 N321 1.332 . S
C326 C325 1.382 . S
C326 H336 0.948 . S
N327 Co305 2.282 . S
N327 C331 1.332 . S
N327 C332 1.332 1_545 S
C328 C329 1.388 . S
C328 C332 1.382 . S
C328 H351 0.950 . S
C329 C328 1.388 . S
C329 C330 1.386 . S
C330 C329 1.386 . S
C330 C331 1.382 1_565 S
C330 H352 0.950 . S
C331 N327 1.332 . S
C331 C330 1.382 1_545 S
C331 H333 0.952 . S
C332 N327 1.332 1_565 S
C332 C328 1.382 . S
C332 H334 0.948 . S
H333 C331 0.952 . S
H334 C332 0.948 . S
H335 C324 0.952 . S
H336 C326 0.948 . S
C337 C303 1.402 . S
C337 C307 1.391 . S
C338 C300 1.395 . S
C338 C320 1.392 . S
C339 C310 1.392 . S
C339 C312 1.389 . S
C340 C315 1.395 . S
C340 C317 1.391 . S
H341 C301 0.951 . S
H342 C302 0.950 . S
H343 C308 0.949 . S
H344 C309 0.950 1_455 S
H345 C313 0.951 . S
H346 C314 0.950 . S
H347 C318 0.949 . S
H348 C319 0.950 . S
H349 C323 0.950 . S
H350 C325 0.950 . S
H351 C328 0.950 . S
H352 C330 0.950 . S
C353 C354 1.443 . S
C353 N357 1.376 . S
C353 C391 1.389 . S
C354 C353 1.443 . S
C354 C355 1.340 . S
C354 H394 0.951 . S
C355 C354 1.340 . S
C355 C356 1.439 . S
C355 H395 0.950 . S
C356 C355 1.439 . S
C356 N357 1.374 . S
C356 C390 1.395 . S
N357 C353 1.376 . S
N357 C356 1.374 . S
N357 Co358 2.008 . S
Co358 N357 2.008 . S
Co358 N359 1.995 . S
Co358 N364 2.008 . S
Co358 N369 1.995 . S
Co358 N374 2.282 . S
Co358 N380 2.282 . S
N359 Co358 1.995 . S
N359 C360 1.376 . S
N359 C363 1.383 . S
C360 N359 1.376 . S
C360 C361 1.446 . S
C360 C390 1.391 . S
C361 C360 1.446 . S
C361 C362 1.339 . S
C361 H396 0.949 . S
C362 C361 1.339 . S
C362 C363 1.439 . S
C362 H397 0.950 . S
C363 N359 1.383 . S
C363 C362 1.439 . S
C363 C392 1.392 . S
N364 Co358 2.008 . S
N364 C365 1.376 . S
N364 C368 1.374 . S
C365 N364 1.376 . S
C365 C366 1.443 . S
C365 C392 1.389 . S
C366 C365 1.443 . S
C366 C367 1.340 . S
C366 H398 0.951 . S
C367 C366 1.340 . S
C367 C368 1.439 . S
C367 H399 0.950 . S
C368 N364 1.374 . S
C368 C367 1.439 . S
C368 C393 1.395 . S
N369 Co358 1.995 . S
N369 C370 1.376 . S
N369 C373 1.383 . S
C370 N369 1.376 . S
C370 C371 1.446 . S
C370 C393 1.391 . S
C371 C370 1.446 . S
C371 C372 1.339 . S
C371 H400 0.949 . S
C372 C371 1.339 . S
C372 C373 1.439 . S
C372 H401 0.950 . S
C373 N369 1.383 . S
C373 C372 1.439 . S
C373 C391 1.392 . S
N374 Co358 2.282 . S
N374 C377 1.332 . S
N374 C379 1.332 . S
C375 C376 1.386 . S
C375 C378 1.388 . S
C376 C375 1.386 . S
C376 C377 1.382 . S
C376 H402 0.950 . S
C377 N374 1.332 . S
C377 C376 1.382 . S
C377 H388 0.952 . S
C378 C375 1.388 . S
C378 C379 1.382 . S
C378 H403 0.950 . S
C379 N374 1.332 . S
C379 C378 1.382 . S
C379 H389 0.948 . S
N380 Co358 2.282 . S
N380 C384 1.332 . S
N380 C385 1.332 . S
C381 C382 1.388 . S
C381 C385 1.382 . S
C381 H404 0.950 . S
C382 C381 1.388 . S
C382 C383 1.386 . S
C383 C382 1.386 . S
C383 C384 1.382 . S
C383 H405 0.950 . S
C384 N380 1.332 . S
C384 C383 1.382 . S
C384 H386 0.952 . S
C385 N380 1.332 . S
C385 C381 1.382 . S
C385 H387 0.948 . S
H386 C384 0.952 . S
H387 C385 0.948 . S
H388 C377 0.952 . S
H389 C379 0.948 . S
C390 C356 1.395 . S
C390 C360 1.391 . S
C391 C353 1.389 . S
C391 C373 1.392 . S
C392 C363 1.392 . S
C392 C365 1.389 . S
C393 C368 1.395 . S
C393 C370 1.391 . S
H394 C354 0.951 . S
H395 C355 0.950 . S
H396 C361 0.949 . S
H397 C362 0.950 . S
H398 C366 0.951 . S
H399 C367 0.950 . S
H400 C371 0.949 . S
H401 C372 0.950 . S
H402 C376 0.950 . S
H403 C378 0.950 . S
H404 C381 0.950 . S
H405 C383 0.950 . S
C406 C407 1.387 . S
C406 H410 0.950 . S
C406 C415 1.390 . S
C407 C406 1.387 . S
C407 C409 1.387 . S
H408 C415 0.950 . S
C409 C407 1.387 . S
C409 C411 1.390 . S
C409 H413 0.950 . S
H410 C406 0.950 . S
C411 C409 1.390 . S
C411 C412 1.387 . S
C411 H414 0.950 . S
C412 C411 1.387 . S
C412 C415 1.387 . S
H413 C409 0.950 . S
H414 C411 0.950 . S
C415 C406 1.390 . S
C415 H408 0.950 . S
C415 C412 1.387 . S
C416 C417 1.387 . S
C416 H420 0.950 . S
C416 C425 1.390 . S
C417 C416 1.387 . S
C417 C419 1.387 . S
H418 C425 0.950 . S
C419 C417 1.387 . S
C419 C421 1.390 . S
C419 H423 0.950 . S
H420 C416 0.950 . S
C421 C419 1.390 . S
C421 C422 1.387 . S
C421 H424 0.950 . S
C422 C421 1.387 . S
C422 C425 1.387 . S
H423 C419 0.950 . S
H424 C421 0.950 . S
C425 C416 1.390 . S
C425 H418 0.950 . S
C425 C422 1.387 . S
C426 C427 1.387 . S
C426 H430 0.950 . S
C426 C435 1.390 . S
C427 C426 1.387 . S
C427 C429 1.387 . S
H428 C435 0.950 . S
C429 C427 1.387 . S
C429 C431 1.390 . S
C429 H433 0.950 . S
H430 C426 0.950 . S
C431 C429 1.390 . S
C431 C432 1.387 . S
C431 H434 0.950 . S
C432 C431 1.387 . S
C432 C435 1.387 . S
H433 C429 0.950 . S
H434 C431 0.950 . S
C435 C426 1.390 . S
C435 H428 0.950 . S
C435 C432 1.387 . S
C436 C437 1.387 . S
C436 H440 0.950 . S
C436 C445 1.390 . S
C437 C436 1.387 . S
C437 C439 1.387 . S
H438 C445 0.950 . S
C439 C437 1.387 . S
C439 C441 1.390 . S
C439 H443 0.950 . S
H440 C436 0.950 . S
C441 C439 1.390 . S
C441 C442 1.387 . S
C441 H444 0.950 . S
C442 C441 1.387 . S
C442 C445 1.387 . S
H443 C439 0.950 . S
H444 C441 0.950 . S
C445 C436 1.390 . S
C445 H438 0.950 . S
C445 C442 1.387 . S
C446 C447 1.387 . S
C446 H450 0.950 . S
C446 C455 1.390 . S
C447 C446 1.387 . S
C447 C449 1.387 . S
H448 C455 0.950 . S
C449 C447 1.387 . S
C449 C451 1.390 . S
C449 H453 0.950 . S
H450 C446 0.950 . S
C451 C449 1.390 . S
C451 C452 1.387 . S
C451 H454 0.950 . S
C452 C451 1.387 . S
C452 C455 1.387 . S
H453 C449 0.950 . S
H454 C451 0.950 . S
C455 C446 1.390 . S
C455 H448 0.950 . S
C455 C452 1.387 . S
C456 C457 1.387 . S
C456 H460 0.950 . S
C456 C465 1.390 . S
C457 C456 1.387 . S
C457 C459 1.387 . S
H458 C465 0.950 . S
C459 C457 1.387 . S
C459 C461 1.390 . S
C459 H463 0.950 . S
H460 C456 0.950 . S
C461 C459 1.390 . S
C461 C462 1.387 . S
C461 H464 0.950 . S
C462 C461 1.387 . S
C462 C465 1.387 . S
H463 C459 0.950 . S
H464 C461 0.950 . S
C465 C456 1.390 . S
C465 H458 0.950 . S
C465 C462 1.387 . S
C466 C467 1.387 . S
C466 H470 0.950 . S
C466 C475 1.390 . S
C467 C466 1.387 . S
C467 C469 1.387 . S
H468 C475 0.950 . S
C469 C467 1.387 . S
C469 C471 1.390 . S
C469 H473 0.950 . S
H470 C466 0.950 . S
C471 C469 1.390 . S
C471 C472 1.387 . S
C471 H474 0.950 . S
C472 C471 1.387 . S
C472 C475 1.387 . S
H473 C469 0.950 . S
H474 C471 0.950 . S
C475 C466 1.390 . S
C475 H468 0.950 . S
C475 C472 1.387 . S
C476 C477 1.387 1_554 S
C476 H480 0.958 . S
C476 C485 1.390 . S
C477 C476 1.387 1_556 S
C477 C479 1.387 . S
H478 C485 0.950 . S
C479 C477 1.387 . S
C479 C481 1.390 1_556 S
C479 H483 0.950 . S
H480 C476 0.958 . S
C481 C479 1.390 1_554 S
C481 C482 1.387 . S
C481 H484 0.950 . S
C482 C481 1.387 . S
C482 C485 1.387 . S
H483 C479 0.950 . S
H484 C481 0.950 . S
C485 C476 1.390 . S
C485 H478 0.950 . S
C485 C482 1.387 . S
C486 C487 1.387 . S
C486 H490 0.950 . S
C486 C495 1.390 . S
C487 C486 1.387 . S
C487 C489 1.387 . S
H488 C495 0.950 . S
C489 C487 1.387 . S
C489 C491 1.390 . S
C489 H493 0.950 . S
H490 C486 0.950 . S
C491 C489 1.390 . S
C491 C492 1.387 . S
C491 H494 0.950 . S
C492 C491 1.387 . S
C492 C495 1.387 . S
H493 C489 0.950 . S
H494 C491 0.950 . S
C495 C486 1.390 . S
C495 H488 0.950 . S
C495 C492 1.387 . S
C496 C497 1.387 . S
C496 H500 0.950 . S
C496 C505 1.390 . S
C497 C496 1.387 . S
C497 C499 1.387 . S
H498 C505 0.950 . S
C499 C497 1.387 . S
C499 C501 1.390 . S
C499 H503 0.950 . S
H500 C496 0.950 . S
C501 C499 1.390 . S
C501 C502 1.387 . S
C501 H504 0.950 . S
C502 C501 1.387 . S
C502 C505 1.387 . S
H503 C499 0.950 . S
H504 C501 0.950 . S
C505 C496 1.390 . S
C505 H498 0.950 . S
C505 C502 1.387 . S
C506 C507 1.387 . S
C506 H510 0.950 . S
C506 C515 1.390 . S
C507 C506 1.387 . S
C507 C509 1.387 . S
H508 C515 0.950 . S
C509 C507 1.387 . S
C509 C511 1.390 . S
C509 H513 0.950 . S
H510 C506 0.950 . S
C511 C509 1.390 . S
C511 C512 1.387 . S
C511 H514 0.950 . S
C512 C511 1.387 . S
C512 C515 1.387 . S
H513 C509 0.950 . S
H514 C511 0.950 . S
C515 C506 1.390 . S
C515 H508 0.950 . S
C515 C512 1.387 . S
C516 C517 1.387 . S
C516 H520 0.950 . S
C516 C525 1.390 . S
C517 C516 1.387 . S
C517 C519 1.387 . S
H518 C525 0.950 . S
C519 C517 1.387 . S
C519 C521 1.390 . S
C519 H523 0.950 . S
H520 C516 0.950 . S
C521 C519 1.390 . S
C521 C522 1.387 . S
C521 H524 0.950 . S
C522 C521 1.387 . S
C522 C525 1.387 . S
H523 C519 0.950 . S
H524 C521 0.950 . S
C525 C516 1.390 . S
C525 H518 0.950 . S
C525 C522 1.387 . S
C526 C527 1.387 . S
C526 H530 0.950 . S
C526 C535 1.390 . S
C527 C526 1.387 . S
C527 C529 1.387 . S
H528 C535 0.950 . S
C529 C527 1.387 . S
C529 C531 1.390 . S
C529 H533 0.950 . S
H530 C526 0.950 . S
C531 C529 1.390 . S
C531 C532 1.387 . S
C531 H534 0.950 . S
C532 C531 1.387 . S
C532 C535 1.387 . S
H533 C529 0.950 . S
H534 C531 0.950 . S
C535 C526 1.390 . S
C535 H528 0.950 . S
C535 C532 1.387 . S
C536 C537 1.387 . S
C536 H540 0.950 . S
C536 C545 1.390 . S
C537 C536 1.387 . S
C537 C539 1.387 . S
H538 C545 0.950 . S
C539 C537 1.387 . S
C539 C541 1.390 . S
C539 H543 0.950 . S
H540 C536 0.950 . S
C541 C539 1.390 . S
C541 C542 1.387 . S
C541 H544 0.950 . S
C542 C541 1.387 . S
C542 C545 1.387 . S
H543 C539 0.950 . S
H544 C541 0.950 . S
C545 C536 1.390 . S
C545 H538 0.950 . S
C545 C542 1.387 . S
C546 C547 1.387 . S
C546 H550 0.950 . S
C546 C555 1.390 . S
C547 C546 1.387 . S
C547 C549 1.387 . S
H548 C555 0.950 . S
C549 C547 1.387 . S
C549 C551 1.390 . S
C549 H553 0.950 . S
H550 C546 0.950 . S
C551 C549 1.390 . S
C551 C552 1.387 . S
C551 H554 0.950 . S
C552 C551 1.387 . S
C552 C555 1.387 . S
H553 C549 0.950 . S
H554 C551 0.950 . S
C555 C546 1.390 . S
C555 H548 0.950 . S
C555 C552 1.387 . S
C556 C557 1.387 . S
C556 H560 0.950 . S
C556 C565 1.390 . S
C557 C556 1.387 . S
C557 C559 1.387 . S
H558 C565 0.950 . S
C559 C557 1.387 . S
C559 C561 1.390 . S
C559 H563 0.950 . S
H560 C556 0.950 . S
C561 C559 1.390 . S
C561 C562 1.387 . S
C561 H564 0.950 . S
C562 C561 1.387 . S
C562 C565 1.387 . S
H563 C559 0.950 . S
H564 C561 0.950 . S
C565 C556 1.390 . S
C565 H558 0.950 . S
C565 C562 1.387 . S
C566 C567 1.387 . S
C566 H570 0.950 . S
C566 C575 1.390 . S
C567 C566 1.387 . S
C567 C569 1.387 . S
H568 C575 0.950 . S
C569 C567 1.387 . S
C569 C571 1.390 . S
C569 H573 0.950 . S
H570 C566 0.950 . S
C571 C569 1.390 . S
C571 C572 1.387 . S
C571 H574 0.950 . S
C572 C571 1.387 . S
C572 C575 1.387 . S
H573 C569 0.950 . S
H574 C571 0.950 . S
C575 C566 1.390 . S
C575 H568 0.950 . S
C575 C572 1.387 . S
C576 C577 1.387 . S
C576 H580 0.950 . S
C576 C585 1.390 . S
C577 C576 1.387 . S
C577 C579 1.387 . S
H578 C585 0.950 . S
C579 C577 1.387 . S
C579 C581 1.390 . S
C579 H583 0.950 . S
H580 C576 0.950 . S
C581 C579 1.390 . S
C581 C582 1.387 . S
C581 H584 0.950 . S
C582 C581 1.387 . S
C582 C585 1.387 . S
H583 C579 0.950 . S
H584 C581 0.950 . S
C585 C576 1.390 . S
C585 H578 0.950 . S
C585 C582 1.387 . S
C586 C587 1.387 . S
C586 H590 0.950 . S
C586 C595 1.390 . S
C587 C586 1.387 . S
C587 C589 1.387 . S
H588 C595 0.950 . S
C589 C587 1.387 . S
C589 C591 1.390 . S
C589 H593 0.950 . S
H590 C586 0.950 . S
C591 C589 1.390 . S
C591 C592 1.387 . S
C591 H594 0.950 . S
C592 C591 1.387 . S
C592 C595 1.387 . S
H593 C589 0.950 . S
H594 C591 0.950 . S
C595 C586 1.390 . S
C595 H588 0.950 . S
C595 C592 1.387 . S
C596 C597 1.387 . S
C596 H600 0.950 . S
C596 C605 1.390 . S
C597 C596 1.387 . S
C597 C599 1.387 . S
H598 C605 0.950 . S
C599 C597 1.387 . S
C599 C601 1.390 . S
C599 H603 0.950 . S
H600 C596 0.950 . S
C601 C599 1.390 . S
C601 C602 1.387 . S
C601 H604 0.950 . S
C602 C601 1.387 . S
C602 C605 1.387 . S
H603 C599 0.950 . S
H604 C601 0.950 . S
C605 C596 1.390 . S
C605 H598 0.950 . S
C605 C602 1.387 . S
C606 C607 1.387 . S
C606 H610 0.950 . S
C606 C615 1.390 . S
C607 C606 1.387 . S
C607 C609 1.387 . S
H608 C615 0.950 . S
C609 C607 1.387 . S
C609 C611 1.390 . S
C609 H613 0.950 . S
H610 C606 0.950 . S
C611 C609 1.390 . S
C611 C612 1.387 . S
C611 H614 0.950 . S
C612 C611 1.387 . S
C612 C615 1.387 . S
H613 C609 0.950 . S
H614 C611 0.950 . S
C615 C606 1.390 . S
C615 H608 0.950 . S
C615 C612 1.387 . S
C616 C617 1.387 . S
C616 H620 0.950 . S
C616 C625 1.390 1_556 S
C617 C616 1.387 . S
C617 C619 1.387 . S
H618 C625 0.950 . S
C619 C617 1.387 . S
C619 C621 1.390 . S
C619 H623 0.950 . S
H620 C616 0.950 . S
C621 C619 1.390 . S
C621 C622 1.387 . S
C621 H624 0.950 . S
C622 C621 1.387 . S
C622 C625 1.387 1_556 S
H623 C619 0.950 . S
H624 C621 0.950 . S
C625 C616 1.390 1_554 S
C625 H618 0.950 . S
C625 C622 1.387 1_554 S
C626 C627 1.387 . S
C626 H630 0.950 . S
C626 C635 1.390 . S
C627 C626 1.387 . S
C627 C629 1.387 . S
H628 C635 0.950 . S
C629 C627 1.387 . S
C629 C631 1.390 . S
C629 H633 0.950 . S
H630 C626 0.950 . S
C631 C629 1.390 . S
C631 C632 1.387 . S
C631 H634 0.950 . S
C632 C631 1.387 . S
C632 C635 1.387 . S
H633 C629 0.950 . S
H634 C631 0.950 . S
C635 C626 1.390 . S
C635 H628 0.950 . S
C635 C632 1.387 . S
C636 C637 1.387 . S
C636 H640 0.950 . S
C636 C645 1.390 . S
C637 C636 1.387 . S
C637 C639 1.387 . S
H638 C645 0.950 . S
C639 C637 1.387 . S
C639 C641 1.390 . S
C639 H643 0.950 . S
H640 C636 0.950 . S
C641 C639 1.390 . S
C641 C642 1.387 . S
C641 H644 0.950 . S
C642 C641 1.387 . S
C642 C645 1.387 . S
H643 C639 0.950 . S
H644 C641 0.950 . S
C645 C636 1.390 . S
C645 H638 0.950 . S
C645 C642 1.387 . S
C412 C110 1.633 . S
C407 N4 1.653 . S
C422 C179 1.492 . S
C417 C17 1.467 . S
C432 C117 1.638 . S
C427 C28 1.661 . S
C442 C180 1.486 . S
C437 C39 1.484 . S
C452 C233 1.721 . S
C447 C6 1.731 . S
C462 C269 1.502 . S
C457 C20 1.468 . S
C467 C31 1.753 . S
C472 C329 1.740 . S
C482 C392 1.496 . S
C477 N37 1.488 . S
C492 C232 1.572 . S
C487 N15 1.540 . S
C497 N26 1.472 . S
C502 C276 1.460 . S
C512 C322 1.763 . S
C507 C42 1.756 . S
C522 C391 1.671 . S
C517 C9 1.667 . S
C527 C53 1.514 . S
C532 C170 1.532 . S
C542 C127 1.723 . S
C537 C64 1.766 . S
C547 N70 1.491 . S
C552 C163 1.492 . S
C557 C83 1.700 . S
C562 C126 1.703 . S
C572 C338 1.578 . S
C567 N48 1.574 . S
C582 C382 1.678 . S
C577 C61 1.692 . S
C592 C216 1.602 . S
C587 C72 1.608 . S
C597 N81 1.615 . S
C602 C285 1.600 . S
C612 C339 1.665 . S
C607 N59 1.664 . S
C622 C375 1.690 1_556 S
C617 C75 1.667 . S
C632 C223 1.603 . S
C627 C86 1.615 . S
C637 C50 1.552 . S
C642 C286 1.551 . S
