# Generated by pormake.
# Topology cml, (3,6)-cn, num edge types: 1
# Building blocks:
#     Node 0, Type 0, BuildingBlock: CUQRIR_clean_linker_1, # of connection points: 3
#     Node 1, Type 0, BuildingBlock: CUQRIR_clean_linker_1, # of connection points: 3
#     Node 2, Type 0, BuildingBlock: CUQRIR_clean_linker_1, # of connection points: 3
#     Node 3, Type 0, BuildingBlock: CUQRIR_clean_linker_1, # of connection points: 3
#     Node 4, Type 0, BuildingBlock: CUQRIR_clean_linker_1, # of connection points: 3
#     Node 5, Type 0, BuildingBlock: CUQRIR_clean_linker_1, # of connection points: 3
#     Node 6, Type 0, BuildingBlock: CUQRIR_clean_linker_1, # of connection points: 3
#     Node 7, Type 0, BuildingBlock: CUQRIR_clean_linker_1, # of connection points: 3
#     Node 8, Type 1, BuildingBlock: IZENUY_clean_sbu_0, # of connection points: 6
#     Node 9, Type 1, BuildingBlock: IZENUY_clean_sbu_0, # of connection points: 6
#     Node 10, Type 1, BuildingBlock: IZENUY_clean_sbu_0, # of connection points: 6
#     Node 11, Type 1, BuildingBlock: IZENUY_clean_sbu_0, # of connection points: 6
#     Edge 12, Type (0, 1), BuildingBlock: KIFKEQ_clean_linker_1, # of connection points: 2
#     Edge 13, Type (0, 1), BuildingBlock: KIFKEQ_clean_linker_1, # of connection points: 2
#     Edge 14, Type (0, 1), BuildingBlock: KIFKEQ_clean_linker_1, # of connection points: 2
#     Edge 15, Type (0, 1), BuildingBlock: KIFKEQ_clean_linker_1, # of connection points: 2
#     Edge 16, Type (0, 1), BuildingBlock: KIFKEQ_clean_linker_1, # of connection points: 2
#     Edge 17, Type (0, 1), BuildingBlock: KIFKEQ_clean_linker_1, # of connection points: 2
#     Edge 18, Type (0, 1), BuildingBlock: KIFKEQ_clean_linker_1, # of connection points: 2
#     Edge 19, Type (0, 1), BuildingBlock: KIFKEQ_clean_linker_1, # of connection points: 2
#     Edge 20, Type (0, 1), BuildingBlock: KIFKEQ_clean_linker_1, # of connection points: 2
#     Edge 21, Type (0, 1), BuildingBlock: KIFKEQ_clean_linker_1, # of connection points: 2
#     Edge 22, Type (0, 1), BuildingBlock: KIFKEQ_clean_linker_1, # of connection points: 2
#     Edge 23, Type (0, 1), BuildingBlock: KIFKEQ_clean_linker_1, # of connection points: 2
#     Edge 24, Type (0, 1), BuildingBlock: KIFKEQ_clean_linker_1, # of connection points: 2
#     Edge 25, Type (0, 1), BuildingBlock: KIFKEQ_clean_linker_1, # of connection points: 2
#     Edge 26, Type (0, 1), BuildingBlock: KIFKEQ_clean_linker_1, # of connection points: 2
#     Edge 27, Type (0, 1), BuildingBlock: KIFKEQ_clean_linker_1, # of connection points: 2
#     Edge 28, Type (0, 1), BuildingBlock: KIFKEQ_clean_linker_1, # of connection points: 2
#     Edge 29, Type (0, 1), BuildingBlock: KIFKEQ_clean_linker_1, # of connection points: 2
#     Edge 30, Type (0, 1), BuildingBlock: KIFKEQ_clean_linker_1, # of connection points: 2
#     Edge 31, Type (0, 1), BuildingBlock: KIFKEQ_clean_linker_1, # of connection points: 2
#     Edge 32, Type (0, 1), BuildingBlock: KIFKEQ_clean_linker_1, # of connection points: 2
#     Edge 33, Type (0, 1), BuildingBlock: KIFKEQ_clean_linker_1, # of connection points: 2
#     Edge 34, Type (0, 1), BuildingBlock: KIFKEQ_clean_linker_1, # of connection points: 2
#     Edge 35, Type (0, 1), BuildingBlock: KIFKEQ_clean_linker_1, # of connection points: 2
# Relax obj value: 0.001
# Max RMSD: 0.077
# Mean RMSD: 0.057
data_MOF--net-cml--node1-IZENUY_clean_sbu_0--node2-CUQRIR_clean_linker_1--edge1-KIFKEQ_clean_linker_1
_symmetry_space_group_name_H-M    P1
_symmetry_Int_Tables_number       1
_symmetry_cell_setting            triclinic
loop_
_symmetry_equiv_pos_as_xyz
'x, y, z'
_cell_length_a     35.792529
_cell_length_b     38.568309
_cell_length_c     32.968288
_cell_angle_alpha  89.942753
_cell_angle_beta   89.936983
_cell_angle_gamma 90.046836
loop_
_atom_site_label
_atom_site_type_symbol
_atom_site_fract_x
_atom_site_fract_y
_atom_site_fract_z
_atom_type_partial_charge
C0 C 0.24485 0.36211 0.05219 0.0
N1 N 0.27162 0.3869 0.05385 0.0
N2 N 0.23053 0.35981 1.01418 0.0
C3 C 0.23401 0.33912 0.08713 0.0
C4 C 0.24972 0.38402 0.99283 0.0
N5 N 0.27469 0.40032 1.01692 0.0
C6 C 0.24517 0.39058 0.94809 0.0
H7 H 0.25449 0.31764 0.08953 0.0
H8 H 0.20571 0.328 0.08271 0.0
H9 H 0.23453 0.35371 0.11606 0.0
H10 H 0.24011 0.36587 0.93177 0.0
H11 H 0.26995 0.40363 0.93487 0.0
H12 H 0.22058 0.40759 0.94336 0.0
C13 C 0.73028 0.6933 0.53828 0.0
N14 N 0.70485 0.66732 0.54054 0.0
N15 N 0.7482 0.69269 0.50214 0.0
C16 C 0.73951 0.71779 0.57235 0.0
C17 C 0.73294 0.66533 0.48247 0.0
N18 N 0.70676 0.64962 0.50596 0.0
C19 C 0.74111 0.65617 0.43898 0.0
H20 H 0.72118 0.74089 0.57013 0.0
H21 H 0.769 0.72654 0.57043 0.0
H22 H 0.73474 0.7053 0.60225 0.0
H23 H 0.76338 0.6362 0.43816 0.0
H24 H 0.751 0.67918 0.42182 0.0
H25 H 0.71591 0.64557 0.42384 0.0
C26 C 0.73386 0.3442 0.04228 0.0
N27 N 0.70862 0.3704 0.04357 0.0
N28 N 0.74973 0.34204 1.00501 0.0
C29 C 0.74017 0.31847 0.07595 0.0
C30 C 0.73303 0.36769 0.98359 0.0
N31 N 0.70776 0.38466 1.00682 0.0
C32 C 0.74354 0.37799 0.94102 0.0
H33 H 0.76292 0.32804 0.09583 0.0
H34 H 0.74849 0.29284 0.06365 0.0
H35 H 0.71458 0.3152 0.09459 0.0
H36 H 0.72554 0.36376 0.91929 0.0
H37 H 0.77314 0.37148 0.93452 0.0
H38 H 0.73931 0.4062 0.93622 0.0
C39 C 0.24769 0.67391 0.55174 0.0
N40 N 0.2738 0.64849 0.55334 0.0
N41 N 0.23352 0.67671 0.51373 0.0
C42 C 0.23878 0.69821 0.58607 0.0
C43 C 0.25202 0.65221 0.49232 0.0
N44 N 0.27661 0.63528 0.51627 0.0
C45 C 0.24524 0.64403 0.44833 0.0
H46 H 0.21678 0.68631 0.60531 0.0
H47 H 0.22835 0.72346 0.57462 0.0
H48 H 0.26376 0.70276 0.60523 0.0
H49 H 0.26509 0.6592 0.42947 0.0
H50 H 0.21634 0.65102 0.43934 0.0
H51 H 0.25 0.61609 0.44224 0.0
C52 C 0.7656 0.84403 0.04496 0.0
N53 N 0.79146 0.86975 0.0453 0.0
N54 N 0.75018 0.84099 1.0077 0.0
C55 C 0.75592 0.82128 0.08056 0.0
C56 C 0.76764 0.86545 0.98521 0.0
N57 N 0.79308 0.8827 1.00791 0.0
C58 C 0.75969 0.87259 0.94117 0.0
H59 H 0.78086 0.81669 0.09979 0.0
H60 H 0.74443 0.796 0.07057 0.0
H61 H 0.73435 0.83442 0.09919 0.0
H62 H 0.73128 0.86392 0.93249 0.0
H63 H 0.78016 0.85821 0.92233 0.0
H64 H 0.76269 0.90065 0.93444 0.0
C65 C 0.25159 0.17518 0.54997 0.0
N66 N 0.22676 0.14904 0.55464 0.0
N67 N 0.26875 0.17311 0.51335 0.0
C68 C 0.26007 0.20189 0.58188 0.0
C69 C 0.25343 0.14454 0.49605 0.0
N70 N 0.22814 0.12975 0.52134 0.0
C71 C 0.26002 0.13339 0.45288 0.0
H72 H 0.24046 0.22396 0.57846 0.0
H73 H 0.28908 0.21172 0.57874 0.0
H74 H 0.25623 0.19081 0.61268 0.0
H75 H 0.28309 0.11419 0.45231 0.0
H76 H 0.26802 0.15575 0.43354 0.0
H77 H 0.23476 0.12099 0.43988 0.0
C78 C 0.26085 0.86734 0.055 0.0
N79 N 0.23334 0.89141 0.05611 0.0
N80 N 0.2761 0.86551 1.0174 0.0
C81 C 0.27076 0.84375 0.0897 0.0
C82 C 0.25673 0.88925 0.99564 0.0
N83 N 0.23039 0.90469 0.01904 0.0
C84 C 0.26221 0.8959 0.95098 0.0
H85 H 0.27315 0.85877 0.11823 0.0
H86 H 0.29747 0.82999 0.08414 0.0
H87 H 0.24808 0.82443 0.09382 0.0
H88 H 0.24651 0.87611 0.93352 0.0
H89 H 0.292 0.89385 0.94235 0.0
H90 H 0.25208 0.92204 0.94231 0.0
C91 C 0.76724 0.19193 0.54199 0.0
N92 N 0.79267 0.16589 0.54288 0.0
N93 N 0.74942 0.19278 0.5058 0.0
C94 C 0.76236 0.21858 0.5749 0.0
C95 C 0.76495 0.16639 0.48464 0.0
N96 N 0.79171 0.15029 0.50686 0.0
C97 C 0.75129 0.15425 0.44385 0.0
H98 H 0.74009 0.20981 0.59598 0.0
H99 H 0.75397 0.24397 0.56195 0.0
H100 H 0.78855 0.22201 0.59242 0.0
H101 H 0.76681 0.16809 0.4196 0.0
H102 H 0.7211 0.15996 0.44013 0.0
H103 H 0.75581 0.12597 0.4401 0.0
Fe104 Fe 0.00182 0.86335 0.33605 0.0
Fe105 Fe 0.00071 0.90333 0.41646 0.0
O106 O 0.00275 0.90327 0.36266 0.0
Fe107 Fe 0.00575 0.94288 0.33536 0.0
O108 O 0.97858 0.92739 0.29153 0.0
O109 O 0.95934 0.87546 0.30965 0.0
O110 O 0.97221 0.84073 0.37308 0.0
C111 C 0.9501 0.85216 0.39988 0.0
C112 C 0.05377 0.90341 0.29049 0.0
O113 O 0.95607 0.88101 0.41659 0.0
C114 C 0.05218 0.95475 0.40403 0.0
O115 O 0.04427 0.84872 0.36075 0.0
O116 O 0.02678 0.86264 0.42256 0.0
O117 O 0.04966 0.93031 0.31179 0.0
O118 O 0.03117 0.87831 0.2938 0.0
C119 C 0.95548 0.96082 0.39438 0.0
O120 O 0.04514 0.92588 0.42041 0.0
O121 O 0.03318 0.96545 0.37416 0.0
C122 C 0.04845 0.84656 0.39868 0.0
O123 O 0.97431 0.94393 0.42014 0.0
O124 O 0.96232 0.95873 0.35689 0.0
C125 C 0.95626 0.90207 0.28761 0.0
Fe126 Fe 0.00139 0.13096 0.91768 0.0
Fe127 Fe 0.00187 0.09158 0.83668 0.0
O128 O 0.00123 0.13138 0.86384 0.0
Fe129 Fe 0.00028 0.17132 0.8372 0.0
O130 O 0.043 0.1862 0.86104 0.0
O131 O 0.02824 0.17115 0.92329 0.0
O132 O 0.04555 0.10778 0.9191 0.0
C133 C 0.05015 0.07833 0.90332 0.0
C134 C 0.95044 0.1825 0.90302 0.0
O135 O 0.029 0.06797 0.87505 0.0
C136 C 0.95378 0.13348 0.78874 0.0
O137 O 0.97437 0.09068 0.92211 0.0
O138 O 0.95802 0.0779 0.8596 0.0
O139 O 0.97093 0.19375 0.87454 0.0
O140 O 0.95737 0.15402 0.92024 0.0
C141 C 0.05112 0.12996 0.79169 0.0
O142 O 0.97503 0.10755 0.79303 0.0
O143 O 0.95744 0.15976 0.81106 0.0
C144 C 0.95311 0.07505 0.89744 0.0
O145 O 0.04569 0.10257 0.81194 0.0
O146 O 0.02959 0.15588 0.79522 0.0
C147 C 0.04857 0.18788 0.89872 0.0
Fe148 Fe 0.50037 0.36228 0.33579 0.0
Fe149 Fe 0.49638 0.40194 0.41663 0.0
O150 O 0.49738 0.40197 0.36274 0.0
Fe151 Fe 0.49562 0.4418 0.33579 0.0
O152 O 0.45294 0.42925 0.3099 0.0
O153 O 0.47201 0.3771 0.29273 0.0
O154 O 0.45748 0.34616 0.35838 0.0
C155 C 0.45129 0.34403 0.39597 0.0
C156 C 0.54689 0.40191 0.28919 0.0
O157 O 0.47091 0.36082 0.42113 0.0
C158 C 0.54219 0.46001 0.39791 0.0
O159 O 0.52923 0.34034 0.37388 0.0
O160 O 0.54129 0.38033 0.41955 0.0
O161 O 0.5245 0.42709 0.29298 0.0
O162 O 0.54355 0.37528 0.31111 0.0
C163 C 0.44514 0.45253 0.40125 0.0
O164 O 0.52147 0.44315 0.42203 0.0
O165 O 0.53825 0.4572 0.35997 0.0
C166 C 0.54917 0.352 0.40249 0.0
O167 O 0.45149 0.42367 0.41787 0.0
O168 O 0.46611 0.46387 0.37325 0.0
C169 C 0.44945 0.40219 0.28872 0.0
Fe170 Fe 0.49761 0.63182 0.91752 0.0
Fe171 Fe 0.49704 0.59315 0.836 0.0
O172 O 0.49786 0.63258 0.86369 0.0
Fe173 Fe 0.4992 0.67281 0.83762 0.0
O174 O 0.52741 0.6951 0.87603 0.0
O175 O 0.54201 0.65446 0.91993 0.0
O176 O 0.52396 0.59129 0.92197 0.0
C177 C 0.54488 0.57531 0.89733 0.0
C178 C 0.45043 0.68875 0.89867 0.0
O179 O 0.54016 0.57831 0.85952 0.0
C180 C 0.44962 0.63223 0.78972 0.0
O181 O 0.45336 0.60894 0.91896 0.0
O182 O 0.46834 0.56981 0.87329 0.0
O183 O 0.45592 0.68709 0.86092 0.0
O184 O 0.47102 0.67221 0.92316 0.0
C185 C 0.54693 0.63538 0.79003 0.0
O186 O 0.45386 0.60501 0.8105 0.0
O187 O 0.4713 0.65789 0.79433 0.0
C188 C 0.44751 0.58018 0.90191 0.0
O189 O 0.52552 0.60935 0.79347 0.0
O190 O 0.54256 0.66161 0.81236 0.0
C191 C 0.54845 0.68349 0.90373 0.0
H192 H 0.16758 0.3732 0.97229 0.0
H193 H 0.23495 0.29019 0.02015 0.0
H194 H 0.12448 0.33073 0.94275 0.0
H195 H 0.19139 0.24757 0.9918 0.0
H196 H 0.0786 0.18866 0.97472 0.0
H197 H 0.12319 0.23012 1.00272 0.0
H198 H 0.12708 0.28368 0.88777 0.0
H199 H 0.08258 0.24208 0.85948 0.0
C200 C 0.17302 0.34583 0.97644 0.0
C201 C 0.20432 0.33484 0.99857 0.0
C202 C 0.14851 0.32158 0.95957 0.0
C203 C 0.15465 0.28588 0.96498 0.0
C204 C 0.1858 0.27493 0.98751 0.0
C205 C 0.21057 0.29921 1.00387 0.0
C206 C 0.08905 0.20919 0.95534 0.0
C207 C 0.07695 0.21214 0.91491 0.0
C208 C 0.1147 0.23281 0.97135 0.0
C209 C 0.12844 0.26016 0.94746 0.0
C210 C 0.11663 0.26301 0.90695 0.0
C211 C 0.09136 0.23907 0.89072 0.0
H212 H 0.81638 0.67535 0.47461 0.0
H213 H 0.74396 0.76229 0.49729 0.0
H214 H 0.86503 0.71466 0.44984 0.0
H215 H 0.79216 0.80199 0.47203 0.0
H216 H 0.90218 0.86358 0.46358 0.0
H217 H 0.85311 0.82517 0.48869 0.0
H218 H 0.87825 0.75209 0.39325 0.0
H219 H 0.92774 0.78994 0.36879 0.0
C220 C 0.81098 0.70297 0.47396 0.0
C221 C 0.7767 0.71598 0.48772 0.0
C222 C 0.83864 0.72549 0.45971 0.0
C223 C 0.83248 0.76153 0.4588 0.0
C224 C 0.79804 0.77446 0.4728 0.0
C225 C 0.77044 0.75186 0.48714 0.0
C226 C 0.89719 0.83934 0.44792 0.0
C227 C 0.91912 0.82976 0.41434 0.0
C228 C 0.86892 0.81738 0.4622 0.0
C229 C 0.86186 0.78541 0.44315 0.0
C230 C 0.88338 0.77619 0.40915 0.0
C231 C 0.91166 0.79803 0.39496 0.0
H232 H 0.81486 0.3261 0.04174 0.0
H233 H 0.74724 0.30321 0.93702 0.0
H234 H 0.86256 0.28535 1.01771 0.0
H235 H 0.7955 0.26355 0.912 0.0
H236 H 0.91426 0.23417 0.86257 0.0
H237 H 0.86443 0.27166 0.8879 0.0
H238 H 0.86744 0.21861 1.00317 0.0
H239 H 0.917 0.18065 0.97775 0.0
C240 C 0.8102 0.31214 1.01373 0.0
C241 C 0.77754 0.31778 0.99112 0.0
C242 C 0.83741 0.28896 0.99995 0.0
C243 C 0.83268 0.27144 0.96297 0.0
C244 C 0.79996 0.27701 0.94042 0.0
C245 C 0.77249 0.29973 0.95457 0.0
C246 C 0.90424 0.23043 0.89329 0.0
C247 C 0.91961 0.20451 0.9182 0.0
C248 C 0.87562 0.25176 0.90767 0.0
C249 C 0.8622 0.24801 0.94747 0.0
C250 C 0.87749 0.22212 0.97243 0.0
C251 C 0.90567 0.20033 0.9578 0.0
H252 H 0.16404 0.68964 0.54129 0.0
H253 H 0.24507 0.72086 0.45177 0.0
H254 H 0.11919 0.73143 0.51352 0.0
H255 H 0.20074 0.7628 0.42387 0.0
H256 H 0.09743 0.80463 0.35757 0.0
H257 H 0.14235 0.76386 0.38611 0.0
H258 H 0.10871 0.79357 0.50704 0.0
H259 H 0.06337 0.83383 0.47866 0.0
C260 C 0.17217 0.70573 0.51582 0.0
C261 C 0.20767 0.70207 0.49837 0.0
C262 C 0.14669 0.72965 0.49995 0.0
C263 C 0.15633 0.75036 0.46631 0.0
C264 C 0.19217 0.74685 0.44929 0.0
C265 C 0.21756 0.72298 0.46522 0.0
C266 C 0.09962 0.80251 0.39025 0.0
C267 C 0.07664 0.82245 0.41577 0.0
C268 C 0.12553 0.77926 0.40662 0.0
C269 C 0.12908 0.77539 0.44889 0.0
C270 C 0.10631 0.79553 0.47437 0.0
C271 C 0.08045 0.81878 0.45804 0.0
H272 H 0.67858 0.85712 0.99393 0.0
H273 H 0.75728 0.77288 0.99278 0.0
H274 H 0.62929 0.81808 0.96976 0.0
H275 H 0.70836 0.73341 0.96821 0.0
H276 H 0.5999 0.66812 0.96282 0.0
H277 H 0.64884 0.7059 0.98962 0.0
H278 H 0.6149 0.78682 0.90689 0.0
H279 H 0.5659 0.7495 0.88047 0.0
C280 C 0.68503 0.83009 0.98848 0.0
C281 C 0.72126 0.81768 0.99497 0.0
C282 C 0.6571 0.80782 0.97451 0.0
C283 C 0.66499 0.77268 0.96689 0.0
C284 C 0.70133 0.76024 0.97415 0.0
C285 C 0.72928 0.78265 0.98798 0.0
C286 C 0.60288 0.69398 0.95036 0.0
C287 C 0.57882 0.70581 0.91962 0.0
C288 C 0.63103 0.71554 0.96559 0.0
C289 C 0.63557 0.74941 0.95054 0.0
C290 C 0.61173 0.76107 0.9196 0.0
C291 C 0.58376 0.73954 0.90428 0.0
H292 H 0.26026 0.2425 0.50872 0.0
H293 H 0.33443 0.15891 0.47661 0.0
H294 H 0.30399 0.28439 0.47924 0.0
H295 H 0.37771 0.20068 0.44555 0.0
H296 H 0.42198 0.28708 0.35767 0.0
H297 H 0.37709 0.24518 0.38523 0.0
H298 H 0.37157 0.30365 0.49662 0.0
H299 H 0.41667 0.34519 0.46952 0.0
C300 C 0.28608 0.23319 0.49556 0.0
C301 C 0.29429 0.1976 0.49532 0.0
C302 C 0.31094 0.25706 0.47849 0.0
C303 C 0.3442 0.24573 0.46016 0.0
C304 C 0.3521 0.21005 0.4592 0.0
C305 C 0.32748 0.18622 0.47691 0.0
C306 C 0.41105 0.29105 0.38796 0.0
C307 C 0.42292 0.31938 0.41148 0.0
C308 C 0.38557 0.26698 0.40377 0.0
C309 C 0.37095 0.27122 0.44304 0.0
C310 C 0.38226 0.29989 0.46619 0.0
C311 C 0.40819 0.32355 0.45072 0.0
H312 H 0.26496 0.79655 1.01617 0.0
H313 H 0.34377 0.87635 0.98376 0.0
H314 H 0.30648 0.75242 0.987 0.0
H315 H 0.38483 0.83257 0.95313 0.0
H316 H 0.42163 0.74658 0.86198 0.0
H317 H 0.37913 0.7894 0.89158 0.0
H318 H 0.37391 0.72943 1.00202 0.0
H319 H 0.41681 0.68689 0.97284 0.0
C320 C 0.2913 0.80446 1.00288 0.0
C321 C 0.30128 0.83965 1.00185 0.0
C322 C 0.31492 0.77939 0.98615 0.0
C323 C 0.34865 0.78919 0.96752 0.0
C324 C 0.35872 0.82441 0.9668 0.0
C325 C 0.33539 0.84938 0.98422 0.0
C326 C 0.41119 0.74241 0.89245 0.0
C327 C 0.42263 0.71342 0.91513 0.0
C328 C 0.38711 0.76702 0.90945 0.0
C329 C 0.37343 0.76273 0.94911 0.0
C330 C 0.38398 0.73327 0.97134 0.0
C331 C 0.4086 0.70903 0.95467 0.0
H332 H 0.68584 0.21124 0.54433 0.0
H333 H 0.75089 0.22956 0.43632 0.0
H334 H 0.63838 0.25223 0.52018 0.0
H335 H 0.70306 0.26959 0.4114 0.0
H336 H 0.58528 0.29979 0.36321 0.0
H337 H 0.63488 0.26257 0.38919 0.0
H338 H 0.63266 0.31771 0.50303 0.0
H339 H 0.58307 0.35535 0.47696 0.0
C340 C 0.68999 0.22425 0.51557 0.0
C341 C 0.72177 0.21721 0.49201 0.0
C342 C 0.66295 0.24761 0.50176 0.0
C343 C 0.66704 0.26395 0.46388 0.0
C344 C 0.69902 0.25705 0.4405 0.0
C345 C 0.72624 0.2341 0.4546 0.0
C346 C 0.59541 0.30408 0.39375 0.0
C347 C 0.58019 0.33046 0.41807 0.0
C348 C 0.62394 0.28288 0.40851 0.0
C349 C 0.63754 0.28727 0.44811 0.0
C350 C 0.62247 0.31367 0.47248 0.0
C351 C 0.59428 0.33529 0.45747 0.0
H352 H 0.26834 0.46875 0.0293 0.0
H353 H 0.33891 0.3905 0.97687 0.0
H354 H 0.30922 0.5143 1.00189 0.0
H355 H 0.38081 0.43539 0.95045 0.0
H356 H 0.42115 0.52068 0.86789 0.0
H357 H 0.37949 0.47801 0.89793 0.0
H358 H 0.37001 0.54109 1.00572 0.0
H359 H 0.41099 0.58445 0.97504 0.0
C360 C 0.29312 0.46155 1.01243 0.0
C361 C 0.30082 0.42658 1.00483 0.0
C362 C 0.31654 0.48741 0.99684 0.0
C363 C 0.3481 0.47854 0.97351 0.0
C364 C 0.35632 0.44322 0.96743 0.0
C365 C 0.33276 0.41751 0.98281 0.0
C366 C 0.41002 0.5256 0.89791 0.0
C367 C 0.41961 0.55589 0.91914 0.0
C368 C 0.38636 0.50096 0.91531 0.0
C369 C 0.37186 0.5058 0.95455 0.0
C370 C 0.38054 0.53659 0.97537 0.0
C371 C 0.40408 0.56143 0.9578 0.0
H372 H 0.6314 0.646 0.50928 0.0
H373 H 0.72979 0.58824 0.47609 0.0
H374 H 0.5919 0.59859 0.48441 0.0
H375 H 0.69046 0.54138 0.44963 0.0
H376 H 0.60205 0.4917 0.36106 0.0
H377 H 0.64273 0.53665 0.38967 0.0
H378 H 0.57986 0.53373 0.50137 0.0
H379 H 0.53966 0.48872 0.47333 0.0
C380 C 0.64449 0.62294 0.49716 0.0
C381 C 0.68353 0.62068 0.49449 0.0
C382 C 0.62199 0.59596 0.48271 0.0
C383 C 0.63819 0.56651 0.46474 0.0
C384 C 0.67727 0.56401 0.46279 0.0
C385 C 0.69971 0.5907 0.47791 0.0
C386 C 0.59705 0.50058 0.39175 0.0
C387 C 0.56767 0.4866 0.41489 0.0
C388 C 0.62038 0.52615 0.40816 0.0
C389 C 0.61432 0.53866 0.44769 0.0
C390 C 0.58498 0.52471 0.47075 0.0
C391 C 0.56213 0.49879 0.45469 0.0
H392 H 0.65942 0.38238 0.94486 0.0
H393 H 0.70224 0.44897 0.03867 0.0
H394 H 0.62169 0.43001 0.91824 0.0
H395 H 0.66474 0.49722 1.0121 0.0
H396 H 0.561 0.56198 0.9768 0.0
H397 H 0.60051 0.51645 1.00429 0.0
H398 H 0.6297 0.48467 0.88272 0.0
H399 H 0.58939 0.52989 0.85502 0.0
C400 C 0.66062 0.40741 0.95965 0.0
C401 C 0.68364 0.41229 0.99355 0.0
C402 C 0.63931 0.43473 0.94434 0.0
C403 C 0.64053 0.46761 0.96268 0.0
C404 C 0.663 0.4722 0.99736 0.0
C405 C 0.68439 0.44473 1.01265 0.0
C406 C 0.57597 0.54545 0.95582 0.0
C407 C 0.5717 0.54946 0.91361 0.0
C408 C 0.59884 0.51942 0.97168 0.0
C409 C 0.61807 0.4967 0.94577 0.0
C410 C 0.61473 0.50135 0.90355 0.0
C411 C 0.59183 0.52744 0.88764 0.0
H412 H 0.27797 0.56899 0.5417 0.0
H413 H 0.33198 0.64203 0.46225 0.0
H414 H 0.31673 0.52207 0.51415 0.0
H415 H 0.37207 0.59615 0.43575 0.0
H416 H 0.40931 0.50519 0.36299 0.0
H417 H 0.36784 0.54816 0.39258 0.0
H418 H 0.37729 0.49744 0.50917 0.0
H419 H 0.41751 0.4534 0.4788 0.0
C420 C 0.29873 0.57487 0.51879 0.0
C421 C 0.3021 0.60865 0.50362 0.0
C422 C 0.32096 0.5482 0.50303 0.0
C423 C 0.3472 0.55512 0.47215 0.0
C424 C 0.35144 0.58953 0.45852 0.0
C425 C 0.32889 0.61591 0.47387 0.0
C426 C 0.40217 0.50302 0.39484 0.0
C427 C 0.41679 0.47607 0.41861 0.0
C428 C 0.37869 0.52787 0.41198 0.0
C429 C 0.36976 0.52681 0.45356 0.0
C430 C 0.38335 0.49905 0.47704 0.0
C431 C 0.40645 0.4738 0.45967 0.0
H432 H 0.79624 0.94754 0.0381 0.0
H433 H 0.84279 0.88039 0.94692 0.0
H434 H 0.83284 0.99625 1.01113 0.0
H435 H 0.87959 0.92859 0.91979 0.0
H436 H 0.90994 0.02857 0.85512 0.0
H437 H 0.87032 0.98278 0.88292 0.0
H438 H 0.89693 1.01656 1.00439 0.0
H439 H 0.93579 0.06263 0.9768 0.0
C440 C 0.81471 0.9433 1.01254 0.0
C441 C 0.81673 0.91057 0.99428 0.0
C442 C 0.83557 0.97103 0.99703 0.0
C443 C 0.85881 0.96641 0.96295 0.0
C444 C 0.86134 0.93327 0.94542 0.0
C445 C 0.84054 0.90565 0.96099 0.0
C446 C 0.90702 0.02647 0.88773 0.0
C447 C 0.92628 0.04917 0.91367 0.0
C448 C 0.88455 1.00004 0.90369 0.0
C449 C 0.88075 0.99579 0.94591 0.0
C450 C 0.89901 0.01922 0.97176 0.0
C451 C 0.92148 0.04556 0.95586 0.0
H452 H 0.15348 0.13434 0.51619 0.0
H453 H 0.24588 0.06393 0.50244 0.0
H454 H 0.11058 0.08986 0.4908 0.0
H455 H 0.20319 0.01912 0.47662 0.0
H456 H 0.10405 0.94038 0.46326 0.0
H457 H 0.14671 0.98134 0.49629 0.0
H458 H 0.10408 0.06392 0.42101 0.0
H459 H 0.06184 0.02349 0.38809 0.0
C460 C 0.16431 0.10899 0.50847 0.0
C461 C 0.20267 0.10224 0.51126 0.0
C462 C 0.13999 0.0837 0.49362 0.0
C463 C 0.15364 0.05113 0.48144 0.0
C464 C 0.19189 0.0439 0.48599 0.0
C465 C 0.21626 0.06939 0.50057 0.0
C466 C 0.10392 0.96726 0.45372 0.0
C467 C 0.07949 0.97863 0.42305 0.0
C468 C 0.12835 0.99064 0.47257 0.0
C469 C 0.12838 0.02586 0.46151 0.0
C470 C 0.10424 0.03706 0.43064 0.0
C471 C 0.08025 1.01375 0.41153 0.0
H472 H 0.1828 0.89659 0.95667 0.0
H473 H 0.21411 0.96683 0.05219 0.0
H474 H 0.13971 0.93932 0.92959 0.0
H475 H 0.16852 1.00922 0.02735 0.0
H476 H 0.11501 0.09164 0.94471 0.0
H477 H 0.15751 0.04935 0.97509 0.0
H478 H 0.08336 0.96651 0.93828 0.0
H479 H 0.04267 1.00843 0.90603 0.0
C480 C 0.1801 0.92128 0.97197 0.0
C481 C 0.20224 0.92888 1.00583 0.0
C482 C 0.15495 0.94568 0.95692 0.0
C483 C 0.15047 0.97803 0.97611 0.0
C484 C 0.17168 0.98498 1.01119 0.0
C485 C 0.19741 0.96064 0.0258 0.0
C486 C 0.10811 0.06432 0.94304 0.0
C487 C 0.07593 0.05328 0.92244 0.0
C488 C 0.13223 0.04005 0.96077 0.0
C489 C 0.12421 1.00428 0.95897 0.0
C490 C 0.09126 0.9936 0.93935 0.0
C491 C 0.06773 0.0177 0.92093 0.0
H492 H 0.8305 0.15064 0.43719 0.0
H493 H 0.80924 0.08952 0.54414 0.0
H494 H 0.86722 0.10413 0.40858 0.0
H495 H 0.8502 0.04404 0.51818 0.0
H496 H 0.89754 0.95345 0.44713 0.0
H497 H 0.85773 0.99905 0.47474 0.0
H498 H 0.92103 0.07533 0.40669 0.0
H499 H 0.9578 0.02918 0.37663 0.0
C500 C 0.83415 0.12717 0.45476 0.0
C501 C 0.8166 0.12349 0.49256 0.0
C502 C 0.85595 0.10056 0.43874 0.0
C503 C 0.86222 0.06983 0.46083 0.0
C504 C 0.84559 0.06673 0.49956 0.0
C505 C 0.82262 0.09308 0.51498 0.0
C506 C 0.90216 0.98004 0.4377 0.0
C507 C 0.93004 0.98792 0.40924 0.0
C508 C 0.87978 1.00637 0.45396 0.0
C509 C 0.88574 0.04137 0.44322 0.0
C510 C 0.91436 0.04892 0.41504 0.0
C511 C 0.93574 0.02247 0.39778 0.0
H512 H 0.34407 0.36989 0.05541 0.0
H513 H 0.25639 0.4167 0.12589 0.0
H514 H 0.38716 0.37567 0.11263 0.0
H515 H 0.29895 0.42188 0.18405 0.0
H516 H 0.39906 0.45249 0.26621 0.0
H517 H 0.35604 0.45125 0.20863 0.0
H518 H 0.3937 0.34803 0.1787 0.0
H519 H 0.43681 0.34934 0.23549 0.0
C520 C 0.33432 0.38172 0.08324 0.0
C521 C 0.29723 0.39281 0.08667 0.0
C522 C 0.3587 0.38473 0.11609 0.0
C523 C 0.34637 0.39888 0.1531 0.0
C524 C 0.30938 0.41102 0.15595 0.0
C525 C 0.285 0.40794 0.12296 0.0
C526 C 0.39806 0.4295 0.24741 0.0
C527 C 0.42162 0.40111 0.25539 0.0
C528 C 0.37332 0.42877 0.21449 0.0
C529 C 0.37173 0.3997 0.18881 0.0
C530 C 0.39476 0.37112 0.19735 0.0
C531 C 0.41933 0.3718 0.23018 0.0
H532 H 0.69918 0.6073 0.58248 0.0
H533 H 0.65617 0.7113 0.57479 0.0
H534 H 0.66231 0.59736 0.64438 0.0
H535 H 0.61928 0.70181 0.63623 0.0
H536 H 0.59348 0.68898 0.76939 0.0
H537 H 0.63165 0.69464 0.70859 0.0
H538 H 0.59768 0.59236 0.67019 0.0
H539 H 0.5598 0.58637 0.7314 0.0
C540 C 0.68138 0.62778 0.59389 0.0
C541 C 0.68057 0.66012 0.5744 0.0
C542 C 0.66037 0.62222 0.62923 0.0
C543 C 0.63831 0.649 0.64562 0.0
C544 C 0.63667 0.68092 0.62504 0.0
C545 C 0.65753 0.68636 0.58982 0.0
C546 C 0.59436 0.66751 0.74825 0.0
C547 C 0.57327 0.63732 0.75524 0.0
C548 C 0.61606 0.67088 0.71319 0.0
C549 C 0.61729 0.64415 0.68422 0.0
C550 C 0.59743 0.61339 0.69193 0.0
C551 C 0.57563 0.61003 0.72702 0.0
H552 H 0.63343 0.37765 0.04636 0.0
H553 H 0.73333 0.38494 0.11868 0.0
H554 H 0.5953 0.3892 0.10678 0.0
H555 H 0.69539 0.39518 0.1794 0.0
H556 H 0.60817 0.36041 0.27859 0.0
H557 H 0.64834 0.35657 0.21865 0.0
H558 H 0.58443 0.43742 0.16064 0.0
H559 H 0.54455 0.4417 0.22061 0.0
C560 C 0.64716 0.38228 0.07509 0.0
C561 C 0.68621 0.38031 0.07806 0.0
C562 C 0.62545 0.38872 0.10964 0.0
C563 C 0.64243 0.39278 0.14781 0.0
C564 C 0.68156 0.39171 0.15048 0.0
C565 C 0.70321 0.38586 0.11587 0.0
C566 C 0.60294 0.37761 0.25323 0.0
C567 C 0.57319 0.40136 0.25441 0.0
C568 C 0.62598 0.37549 0.219 0.0
C569 C 0.61937 0.39663 0.18498 0.0
C570 C 0.58997 0.42067 0.18633 0.0
C571 C 0.56734 0.42324 0.22081 0.0
H572 H 0.34853 0.65463 0.55271 0.0
H573 H 0.25506 0.62753 0.62871 0.0
H574 H 0.39089 0.64799 0.61042 0.0
H575 H 0.29723 0.62122 0.6871 0.0
H576 H 0.3947 0.58459 0.77173 0.0
H577 H 0.3517 0.58543 0.7139 0.0
H578 H 0.39979 0.68226 0.67377 0.0
H579 H 0.44247 0.68157 0.73097 0.0
C580 C 0.33728 0.64667 0.58176 0.0
C581 C 0.29879 0.64143 0.58652 0.0
C582 C 0.36134 0.64322 0.61485 0.0
C583 C 0.34733 0.63434 0.65338 0.0
C584 C 0.30886 0.62789 0.65776 0.0
C585 C 0.28475 0.63161 0.6246 0.0
C586 C 0.39599 0.60608 0.75061 0.0
C587 C 0.42216 0.63294 0.75599 0.0
C588 C 0.37131 0.60659 0.71759 0.0
C589 C 0.37265 0.63373 0.68908 0.0
C590 C 0.39849 0.66069 0.69481 0.0
C591 C 0.42279 0.66039 0.72786 0.0
H592 H 0.86672 0.87463 0.04693 0.0
H593 H 0.76789 0.88771 0.12007 0.0
H594 H 0.90589 0.88668 0.10632 0.0
H595 H 0.80685 0.89834 0.17988 0.0
H596 H 0.89381 0.86198 0.27859 0.0
H597 H 0.8529 0.85831 0.21935 0.0
H598 H 0.91904 0.93625 0.15854 0.0
H599 H 0.95969 0.9404 0.21792 0.0
C600 C 0.85348 0.88059 0.07562 0.0
C601 C 0.81441 0.87998 0.07917 0.0
C602 C 0.87578 0.88734 0.10956 0.0
C603 C 0.85933 0.8931 0.14772 0.0
C604 C 0.82021 0.89352 0.15093 0.0
C605 C 0.79799 0.88737 0.11687 0.0
C606 C 0.89941 0.87856 0.25274 0.0
C607 C 0.92997 0.90146 0.25295 0.0
C608 C 0.87593 0.87656 0.21894 0.0
C609 C 0.8829 0.89697 0.1844 0.0
C610 C 0.91318 0.92012 0.18472 0.0
C611 C 0.93627 0.92261 0.2188 0.0
H612 H 0.22342 0.09443 0.6055 0.0
H613 H 0.17315 0.19298 0.5783 0.0
H614 H 0.18301 0.08838 0.66529 0.0
H615 H 0.13134 0.18676 0.63633 0.0
H616 H 0.08756 0.18654 0.7629 0.0
H617 H 0.13127 0.18971 0.70661 0.0
H618 H 0.12212 0.07879 0.68997 0.0
H619 H 0.07974 0.07561 0.74802 0.0
C620 C 0.20327 0.11452 0.61231 0.0
C621 C 0.2014 0.1443 0.58804 0.0
C622 C 0.18001 0.11112 0.64631 0.0
C623 C 0.15409 0.1373 0.6562 0.0
C624 C 0.15162 0.16653 0.63065 0.0
C625 C 0.17525 0.17009 0.59721 0.0
C626 C 0.09518 0.16279 0.74742 0.0
C627 C 0.08011 0.13087 0.75971 0.0
C628 C 0.12 0.16461 0.71481 0.0
C629 C 0.12983 0.13461 0.69298 0.0
C630 C 0.11552 0.10244 0.70611 0.0
C631 C 0.09113 0.10057 0.73934 0.0
H632 H 0.24816 0.9191 0.12929 0.0
H633 H 0.16032 0.87547 0.05634 0.0
H634 H 0.20517 0.92347 0.18718 0.0
H635 H 0.11682 0.88032 0.11353 0.0
H636 H 0.06622 0.85156 0.23588 0.0
H637 H 0.10944 0.85111 0.17905 0.0
H638 H 0.14828 0.95327 0.21208 0.0
H639 H 0.10502 0.9537 0.26962 0.0
C640 C 0.21945 0.91076 0.1258 0.0
C641 C 0.20735 0.89672 0.08886 0.0
C642 C 0.19481 0.91343 0.15866 0.0
C643 C 0.15764 0.90194 0.1551 0.0
C644 C 0.14541 0.88887 0.11751 0.0
C645 C 0.17005 0.88634 0.08471 0.0
C646 C 0.084 0.87396 0.23127 0.0
C647 C 0.08195 0.90275 0.25736 0.0
C648 C 0.10862 0.87378 0.1984 0.0
C649 C 0.13201 0.90231 0.19071 0.0
C650 C 0.13069 0.93083 0.21726 0.0
C651 C 0.10585 0.9311 0.25018 0.0
H652 H 0.86811 0.16012 0.54471 0.0
H653 H 0.76892 0.15129 0.61814 0.0
H654 H 0.90692 0.14917 0.6049 0.0
H655 H 0.80738 0.14158 0.67847 0.0
H656 H 0.89359 0.17612 0.77754 0.0
H657 H 0.85426 0.18096 0.71713 0.0
H658 H 0.91811 0.10022 0.65889 0.0
H659 H 0.95714 0.0949 0.71938 0.0
C660 C 0.85473 0.15537 0.57366 0.0
C661 C 0.81568 0.15659 0.57705 0.0
C662 C 0.87679 0.14925 0.60802 0.0
C663 C 0.86008 0.14486 0.64636 0.0
C664 C 0.82097 0.14532 0.64941 0.0
C665 C 0.79903 0.15083 0.61504 0.0
C666 C 0.89903 0.15921 0.75199 0.0
C667 C 0.92839 0.13507 0.75332 0.0
C668 C 0.87649 0.16192 0.71749 0.0
C669 C 0.88326 0.14101 0.68335 0.0
C670 C 0.91247 0.11678 0.68469 0.0
C671 C 0.93458 0.1136 0.71946 0.0
loop_
_geom_bond_atom_site_label_1
_geom_bond_atom_site_label_2
_geom_bond_distance
_geom_bond_site_symmetry_2
_ccdc_geom_bond_type
C0 N1 1.317 . S
C0 N2 1.348 1_554 S
C0 C3 1.485 . S
N1 C0 1.317 . S
N1 N5 1.365 1_554 S
N2 C0 1.348 1_556 S
N2 C4 1.346 . S
C3 C0 1.485 . S
C3 H7 0.960 . S
C3 H8 0.961 . S
C3 H9 0.960 . S
C4 N2 1.346 . S
C4 N5 1.310 . S
C4 C6 1.486 . S
N5 N1 1.365 1_556 S
N5 C4 1.310 . S
C6 C4 1.486 . S
C6 H10 0.960 . S
C6 H11 0.960 . S
C6 H12 0.959 . S
H7 C3 0.960 . S
H8 C3 0.961 . S
H9 C3 0.960 . S
H10 C6 0.960 . S
H11 C6 0.960 . S
H12 C6 0.959 . S
C13 N14 1.317 . S
C13 N15 1.348 . S
C13 C16 1.485 . S
N14 C13 1.317 . S
N14 N18 1.370 . S
N15 C13 1.348 . S
N15 C17 1.346 . S
C16 C13 1.485 . S
C16 H20 0.960 . S
C16 H21 0.961 . S
C16 H22 0.960 . S
C17 N15 1.346 . S
C17 N18 1.307 . S
C17 C19 1.486 . S
N18 N14 1.370 . S
N18 C17 1.307 . S
C19 C17 1.486 . S
C19 H23 0.960 . S
C19 H24 0.960 . S
C19 H25 0.959 . S
H20 C16 0.960 . S
H21 C16 0.961 . S
H22 C16 0.960 . S
H23 C19 0.960 . S
H24 C19 0.960 . S
H25 C19 0.959 . S
C26 N27 1.317 . S
C26 N28 1.348 1_554 S
C26 C29 1.485 . S
N27 C26 1.317 . S
N27 N31 1.370 1_554 S
N28 C26 1.348 1_556 S
N28 C30 1.346 . S
C29 C26 1.485 . S
C29 H33 0.960 . S
C29 H34 0.961 . S
C29 H35 0.960 . S
C30 N28 1.346 . S
C30 N31 1.307 . S
C30 C32 1.486 . S
N31 N27 1.370 1_556 S
N31 C30 1.307 . S
C32 C30 1.486 . S
C32 H36 0.960 . S
C32 H37 0.960 . S
C32 H38 0.959 . S
H33 C29 0.960 . S
H34 C29 0.961 . S
H35 C29 0.960 . S
H36 C32 0.960 . S
H37 C32 0.960 . S
H38 C32 0.959 . S
C39 N40 1.317 . S
C39 N41 1.348 . S
C39 C42 1.485 . S
N40 C39 1.317 . S
N40 N44 1.370 . S
N41 C39 1.348 . S
N41 C43 1.346 . S
C42 C39 1.485 . S
C42 H46 0.960 . S
C42 H47 0.961 . S
C42 H48 0.960 . S
C43 N41 1.346 . S
C43 N44 1.307 . S
C43 C45 1.486 . S
N44 N40 1.370 . S
N44 C43 1.307 . S
C45 C43 1.486 . S
C45 H49 0.960 . S
C45 H50 0.960 . S
C45 H51 0.959 . S
H46 C42 0.960 . S
H47 C42 0.961 . S
H48 C42 0.960 . S
H49 C45 0.960 . S
H50 C45 0.960 . S
H51 C45 0.959 . S
C52 N53 1.317 . S
C52 N54 1.348 1_554 S
C52 C55 1.485 . S
N53 C52 1.317 . S
N53 N57 1.366 1_554 S
N54 C52 1.348 1_556 S
N54 C56 1.346 . S
C55 C52 1.485 . S
C55 H59 0.960 . S
C55 H60 0.961 . S
C55 H61 0.960 . S
C56 N54 1.346 . S
C56 N57 1.310 . S
C56 C58 1.486 . S
N57 N53 1.366 1_556 S
N57 C56 1.310 . S
C58 C56 1.486 . S
C58 H62 0.960 . S
C58 H63 0.960 . S
C58 H64 0.959 . S
H59 C55 0.960 . S
H60 C55 0.961 . S
H61 C55 0.960 . S
H62 C58 0.960 . S
H63 C58 0.960 . S
H64 C58 0.959 . S
C65 N66 1.317 . S
C65 N67 1.348 . S
C65 C68 1.485 . S
N66 C65 1.317 . S
N66 N70 1.370 . S
N67 C65 1.348 . S
N67 C69 1.346 . S
C68 C65 1.485 . S
C68 H72 0.960 . S
C68 H73 0.961 . S
C68 H74 0.960 . S
C69 N67 1.346 . S
C69 N70 1.307 . S
C69 C71 1.486 . S
N70 N66 1.370 . S
N70 C69 1.307 . S
C71 C69 1.486 . S
C71 H75 0.960 . S
C71 H76 0.960 . S
C71 H77 0.959 . S
H72 C68 0.960 . S
H73 C68 0.961 . S
H74 C68 0.960 . S
H75 C71 0.960 . S
H76 C71 0.960 . S
H77 C71 0.959 . S
C78 N79 1.317 . S
C78 N80 1.348 1_554 S
C78 C81 1.485 . S
N79 C78 1.317 . S
N79 N83 1.370 1_554 S
N80 C78 1.348 1_556 S
N80 C82 1.346 . S
C81 C78 1.485 . S
C81 H85 0.960 . S
C81 H86 0.961 . S
C81 H87 0.960 . S
C82 N80 1.346 . S
C82 N83 1.307 . S
C82 C84 1.486 . S
N83 N79 1.370 1_556 S
N83 C82 1.307 . S
C84 C82 1.486 . S
C84 H88 0.960 . S
C84 H89 0.960 . S
C84 H90 0.959 . S
H85 C81 0.960 . S
H86 C81 0.961 . S
H87 C81 0.960 . S
H88 C84 0.960 . S
H89 C84 0.960 . S
H90 C84 0.959 . S
C91 N92 1.317 . S
C91 N93 1.348 . S
C91 C94 1.485 . S
N92 C91 1.317 . S
N92 N96 1.370 . S
N93 C91 1.348 . S
N93 C95 1.346 . S
C94 C91 1.485 . S
C94 H98 0.960 . S
C94 H99 0.961 . S
C94 H100 0.960 . S
C95 N93 1.346 . S
C95 N96 1.307 . S
C95 C97 1.486 . S
N96 N92 1.370 . S
N96 C95 1.307 . S
C97 C95 1.486 . S
C97 H101 0.960 . S
C97 H102 0.960 . S
C97 H103 0.959 . S
H98 C94 0.960 . S
H99 C94 0.961 . S
H100 C94 0.960 . S
H101 C97 0.960 . S
H102 C97 0.960 . S
H103 C97 0.959 . S
Fe104 O106 1.918 . S
Fe104 O109 1.997 1_455 S
Fe104 O110 2.002 1_455 S
Fe104 O115 1.976 . S
Fe104 O118 1.996 . S
Fe105 O106 1.918 . S
Fe105 O113 1.997 1_455 S
Fe105 O116 1.996 . S
Fe105 O120 1.976 . S
Fe105 O123 2.002 1_455 S
O106 Fe104 1.918 . S
O106 Fe105 1.918 . S
O106 Fe107 1.918 . S
Fe107 O106 1.918 . S
Fe107 O108 2.002 1_455 S
Fe107 O117 1.976 . S
Fe107 O121 1.996 . S
Fe107 O124 1.997 1_455 S
O108 Fe107 2.002 1_655 S
O108 C125 1.295 . S
O109 Fe104 1.997 1_655 S
O109 C125 1.235 . S
O110 Fe104 2.002 1_655 S
O110 C111 1.295 . S
C111 O110 1.295 . S
C111 O113 1.235 . S
C112 O117 1.287 . S
C112 O118 1.255 . S
O113 Fe105 1.997 1_655 S
O113 C111 1.235 . S
C114 O120 1.287 . S
C114 O121 1.255 . S
O115 Fe104 1.976 . S
O115 C122 1.287 . S
O116 Fe105 1.996 . S
O116 C122 1.255 . S
O117 Fe107 1.976 . S
O117 C112 1.287 . S
O118 Fe104 1.996 . S
O118 C112 1.255 . S
C119 O123 1.295 . S
C119 O124 1.235 . S
O120 Fe105 1.976 . S
O120 C114 1.287 . S
O121 Fe107 1.996 . S
O121 C114 1.255 . S
C122 O115 1.287 . S
C122 O116 1.255 . S
O123 Fe105 2.002 1_655 S
O123 C119 1.295 . S
O124 Fe107 1.997 1_655 S
O124 C119 1.235 . S
C125 O108 1.295 . S
C125 O109 1.235 . S
Fe126 O128 1.918 . S
Fe126 O131 1.985 1_655 S
Fe126 O132 1.991 1_655 S
Fe126 O137 1.987 . S
Fe126 O140 2.007 . S
Fe127 O128 1.919 . S
Fe127 O135 1.985 1_655 S
Fe127 O138 2.007 . S
Fe127 O142 1.988 . S
Fe127 O145 1.991 1_655 S
O128 Fe126 1.918 . S
O128 Fe127 1.919 . S
O128 Fe129 1.918 . S
Fe129 O128 1.918 . S
Fe129 O130 1.990 1_655 S
Fe129 O139 1.988 . S
Fe129 O143 2.008 . S
Fe129 O146 1.985 1_655 S
O130 Fe129 1.990 1_455 S
O130 C147 1.295 . S
O131 Fe126 1.985 1_455 S
O131 C147 1.235 . S
O132 Fe126 1.991 1_455 S
O132 C133 1.295 . S
C133 O132 1.295 . S
C133 O135 1.235 . S
C134 O139 1.287 . S
C134 O140 1.255 . S
O135 Fe127 1.985 1_455 S
O135 C133 1.235 . S
C136 O142 1.287 . S
C136 O143 1.255 . S
O137 Fe126 1.987 . S
O137 C144 1.287 . S
O138 Fe127 2.007 . S
O138 C144 1.255 . S
O139 Fe129 1.988 . S
O139 C134 1.287 . S
O140 Fe126 2.007 . S
O140 C134 1.255 . S
C141 O145 1.295 . S
C141 O146 1.235 . S
O142 Fe127 1.988 . S
O142 C136 1.287 . S
O143 Fe129 2.008 . S
O143 C136 1.255 . S
C144 O137 1.287 . S
C144 O138 1.255 . S
O145 Fe127 1.991 1_455 S
O145 C141 1.295 . S
O146 Fe129 1.985 1_455 S
O146 C141 1.235 . S
C147 O130 1.295 . S
C147 O131 1.235 . S
Fe148 O150 1.918 . S
Fe148 O153 1.997 . S
Fe148 O154 2.002 . S
Fe148 O159 1.976 . S
Fe148 O162 1.996 . S
Fe149 O150 1.918 . S
Fe149 O157 1.997 . S
Fe149 O160 1.996 . S
Fe149 O164 1.976 . S
Fe149 O167 2.002 . S
O150 Fe148 1.918 . S
O150 Fe149 1.918 . S
O150 Fe151 1.918 . S
Fe151 O150 1.918 . S
Fe151 O152 2.002 . S
Fe151 O161 1.976 . S
Fe151 O165 1.996 . S
Fe151 O168 1.997 . S
O152 Fe151 2.002 . S
O152 C169 1.295 . S
O153 Fe148 1.997 . S
O153 C169 1.235 . S
O154 Fe148 2.002 . S
O154 C155 1.295 . S
C155 O154 1.295 . S
C155 O157 1.235 . S
C156 O161 1.287 . S
C156 O162 1.255 . S
O157 Fe149 1.997 . S
O157 C155 1.235 . S
C158 O164 1.287 . S
C158 O165 1.255 . S
O159 Fe148 1.976 . S
O159 C166 1.287 . S
O160 Fe149 1.996 . S
O160 C166 1.255 . S
O161 Fe151 1.976 . S
O161 C156 1.287 . S
O162 Fe148 1.996 . S
O162 C156 1.255 . S
C163 O167 1.295 . S
C163 O168 1.235 . S
O164 Fe149 1.976 . S
O164 C158 1.287 . S
O165 Fe151 1.996 . S
O165 C158 1.255 . S
C166 O159 1.287 . S
C166 O160 1.255 . S
O167 Fe149 2.002 . S
O167 C163 1.295 . S
O168 Fe151 1.997 . S
O168 C163 1.235 . S
C169 O152 1.295 . S
C169 O153 1.235 . S
Fe170 O172 1.918 . S
Fe170 O175 1.997 . S
Fe170 O176 2.002 . S
Fe170 O181 1.976 . S
Fe170 O184 1.996 . S
Fe171 O172 1.918 . S
Fe171 O179 1.997 . S
Fe171 O182 1.996 . S
Fe171 O186 1.976 . S
Fe171 O189 2.002 . S
O172 Fe170 1.918 . S
O172 Fe171 1.918 . S
O172 Fe173 1.918 . S
Fe173 O172 1.918 . S
Fe173 O174 2.002 . S
Fe173 O183 1.976 . S
Fe173 O187 1.996 . S
Fe173 O190 1.997 . S
O174 Fe173 2.002 . S
O174 C191 1.295 . S
O175 Fe170 1.997 . S
O175 C191 1.235 . S
O176 Fe170 2.002 . S
O176 C177 1.295 . S
C177 O176 1.295 . S
C177 O179 1.235 . S
C178 O183 1.287 . S
C178 O184 1.255 . S
O179 Fe171 1.997 . S
O179 C177 1.235 . S
C180 O186 1.287 . S
C180 O187 1.255 . S
O181 Fe170 1.976 . S
O181 C188 1.287 . S
O182 Fe171 1.996 . S
O182 C188 1.255 . S
O183 Fe173 1.976 . S
O183 C178 1.287 . S
O184 Fe170 1.996 . S
O184 C178 1.255 . S
C185 O189 1.295 . S
C185 O190 1.235 . S
O186 Fe171 1.976 . S
O186 C180 1.287 . S
O187 Fe173 1.996 . S
O187 C180 1.255 . S
C188 O181 1.287 . S
C188 O182 1.255 . S
O189 Fe171 2.002 . S
O189 C185 1.295 . S
O190 Fe173 1.997 . S
O190 C185 1.235 . S
C191 O174 1.295 . S
C191 O175 1.235 . S
H192 C200 0.950 . S
H193 C205 0.950 . S
H194 C202 0.950 . S
H195 C204 0.950 . S
H196 C206 0.950 . S
H197 C208 0.950 . S
H198 C210 0.950 . S
H199 C211 0.950 . S
C200 H192 0.950 . S
C200 C201 1.386 . S
C200 C202 1.391 . S
C201 C200 1.386 . S
C201 C205 1.393 . S
C202 H194 0.950 . S
C202 C200 1.391 . S
C202 C203 1.400 . S
C203 C202 1.400 . S
C203 C204 1.398 . S
C203 C209 1.491 . S
C204 H195 0.950 . S
C204 C203 1.398 . S
C204 C205 1.391 . S
C205 H193 0.950 . S
C205 C201 1.393 . S
C205 C204 1.391 . S
C206 H196 0.950 . S
C206 C207 1.386 . S
C206 C208 1.391 . S
C207 C206 1.386 . S
C207 C211 1.393 . S
C208 H197 0.950 . S
C208 C206 1.391 . S
C208 C209 1.400 . S
C209 C203 1.491 . S
C209 C208 1.400 . S
C209 C210 1.398 . S
C210 H198 0.950 . S
C210 C209 1.398 . S
C210 C211 1.391 . S
C211 H199 0.950 . S
C211 C207 1.393 . S
C211 C210 1.391 . S
H212 C220 0.950 . S
H213 C225 0.950 . S
H214 C222 0.950 . S
H215 C224 0.950 . S
H216 C226 0.950 . S
H217 C228 0.950 . S
H218 C230 0.950 . S
H219 C231 0.950 . S
C220 H212 0.950 . S
C220 C221 1.386 . S
C220 C222 1.391 . S
C221 C220 1.386 . S
C221 C225 1.393 . S
C222 H214 0.950 . S
C222 C220 1.391 . S
C222 C223 1.400 . S
C223 C222 1.400 . S
C223 C224 1.398 . S
C223 C229 1.491 . S
C224 H215 0.950 . S
C224 C223 1.398 . S
C224 C225 1.391 . S
C225 H213 0.950 . S
C225 C221 1.393 . S
C225 C224 1.391 . S
C226 H216 0.950 . S
C226 C227 1.386 . S
C226 C228 1.391 . S
C227 C226 1.386 . S
C227 C231 1.393 . S
C228 H217 0.950 . S
C228 C226 1.391 . S
C228 C229 1.400 . S
C229 C223 1.491 . S
C229 C228 1.400 . S
C229 C230 1.398 . S
C230 H218 0.950 . S
C230 C229 1.398 . S
C230 C231 1.391 . S
C231 H219 0.950 . S
C231 C227 1.393 . S
C231 C230 1.391 . S
H232 C240 0.950 . S
H233 C245 0.950 . S
H234 C242 0.950 1_554 S
H235 C244 0.950 . S
H236 C246 0.950 . S
H237 C248 0.950 . S
H238 C250 0.950 . S
H239 C251 0.950 . S
C240 H232 0.950 . S
C240 C241 1.386 1_554 S
C240 C242 1.391 1_554 S
C241 C240 1.386 1_556 S
C241 C245 1.393 . S
C242 H234 0.950 1_556 S
C242 C240 1.391 1_556 S
C242 C243 1.400 . S
C243 C242 1.400 . S
C243 C244 1.398 . S
C243 C249 1.491 . S
C244 H235 0.950 . S
C244 C243 1.398 . S
C244 C245 1.391 . S
C245 H233 0.950 . S
C245 C241 1.393 . S
C245 C244 1.391 . S
C246 H236 0.950 . S
C246 C247 1.386 . S
C246 C248 1.391 . S
C247 C246 1.386 . S
C247 C251 1.393 . S
C248 H237 0.950 . S
C248 C246 1.391 . S
C248 C249 1.400 . S
C249 C243 1.491 . S
C249 C248 1.400 . S
C249 C250 1.398 . S
C250 H238 0.950 . S
C250 C249 1.398 . S
C250 C251 1.391 . S
C251 H239 0.950 . S
C251 C247 1.393 . S
C251 C250 1.391 . S
H252 C260 0.950 . S
H253 C265 0.950 . S
H254 C262 0.950 . S
H255 C264 0.950 . S
H256 C266 0.950 . S
H257 C268 0.950 . S
H258 C270 0.950 . S
H259 C271 0.950 . S
C260 H252 0.950 . S
C260 C261 1.386 . S
C260 C262 1.391 . S
C261 C260 1.386 . S
C261 C265 1.393 . S
C262 H254 0.950 . S
C262 C260 1.391 . S
C262 C263 1.400 . S
C263 C262 1.400 . S
C263 C264 1.398 . S
C263 C269 1.491 . S
C264 H255 0.950 . S
C264 C263 1.398 . S
C264 C265 1.391 . S
C265 H253 0.950 . S
C265 C261 1.393 . S
C265 C264 1.391 . S
C266 H256 0.950 . S
C266 C267 1.386 . S
C266 C268 1.391 . S
C267 C266 1.386 . S
C267 C271 1.393 . S
C268 H257 0.950 . S
C268 C266 1.391 . S
C268 C269 1.400 . S
C269 C263 1.491 . S
C269 C268 1.400 . S
C269 C270 1.398 . S
C270 H258 0.950 . S
C270 C269 1.398 . S
C270 C271 1.391 . S
C271 H259 0.950 . S
C271 C267 1.393 . S
C271 C270 1.391 . S
H272 C280 0.950 . S
H273 C285 0.950 . S
H274 C282 0.950 . S
H275 C284 0.950 . S
H276 C286 0.950 . S
H277 C288 0.950 . S
H278 C290 0.950 . S
H279 C291 0.950 . S
C280 H272 0.950 . S
C280 C281 1.386 . S
C280 C282 1.391 . S
C281 C280 1.386 . S
C281 C285 1.393 . S
C282 H274 0.950 . S
C282 C280 1.391 . S
C282 C283 1.400 . S
C283 C282 1.400 . S
C283 C284 1.398 . S
C283 C289 1.491 . S
C284 H275 0.950 . S
C284 C283 1.398 . S
C284 C285 1.391 . S
C285 H273 0.950 . S
C285 C281 1.393 . S
C285 C284 1.391 . S
C286 H276 0.950 . S
C286 C287 1.386 . S
C286 C288 1.391 . S
C287 C286 1.386 . S
C287 C291 1.393 . S
C288 H277 0.950 . S
C288 C286 1.391 . S
C288 C289 1.400 . S
C289 C283 1.491 . S
C289 C288 1.400 . S
C289 C290 1.398 . S
C290 H278 0.950 . S
C290 C289 1.398 . S
C290 C291 1.391 . S
C291 H279 0.950 . S
C291 C287 1.393 . S
C291 C290 1.391 . S
H292 C300 0.950 . S
H293 C305 0.950 . S
H294 C302 0.950 . S
H295 C304 0.950 . S
H296 C306 0.950 . S
H297 C308 0.950 . S
H298 C310 0.950 . S
H299 C311 0.950 . S
C300 H292 0.950 . S
C300 C301 1.386 . S
C300 C302 1.391 . S
C301 C300 1.386 . S
C301 C305 1.393 . S
C302 H294 0.950 . S
C302 C300 1.391 . S
C302 C303 1.400 . S
C303 C302 1.400 . S
C303 C304 1.398 . S
C303 C309 1.491 . S
C304 H295 0.950 . S
C304 C303 1.398 . S
C304 C305 1.391 . S
C305 H293 0.950 . S
C305 C301 1.393 . S
C305 C304 1.391 . S
C306 H296 0.950 . S
C306 C307 1.386 . S
C306 C308 1.391 . S
C307 C306 1.386 . S
C307 C311 1.393 . S
C308 H297 0.950 . S
C308 C306 1.391 . S
C308 C309 1.400 . S
C309 C303 1.491 . S
C309 C308 1.400 . S
C309 C310 1.398 . S
C310 H298 0.950 . S
C310 C309 1.398 . S
C310 C311 1.391 . S
C311 H299 0.950 . S
C311 C307 1.393 . S
C311 C310 1.391 . S
H312 C320 0.950 . S
H313 C325 0.950 . S
H314 C322 0.950 . S
H315 C324 0.950 . S
H316 C326 0.950 . S
H317 C328 0.950 . S
H318 C330 0.950 . S
H319 C331 0.950 . S
C320 H312 0.950 . S
C320 C321 1.386 . S
C320 C322 1.391 . S
C321 C320 1.386 . S
C321 C325 1.393 . S
C322 H314 0.950 . S
C322 C320 1.391 . S
C322 C323 1.400 . S
C323 C322 1.400 . S
C323 C324 1.398 . S
C323 C329 1.491 . S
C324 H315 0.950 . S
C324 C323 1.398 . S
C324 C325 1.391 . S
C325 H313 0.950 . S
C325 C321 1.393 . S
C325 C324 1.391 . S
C326 H316 0.950 . S
C326 C327 1.386 . S
C326 C328 1.391 . S
C327 C326 1.386 . S
C327 C331 1.393 . S
C328 H317 0.950 . S
C328 C326 1.391 . S
C328 C329 1.400 . S
C329 C323 1.491 . S
C329 C328 1.400 . S
C329 C330 1.398 . S
C330 H318 0.950 . S
C330 C329 1.398 . S
C330 C331 1.391 . S
C331 H319 0.950 . S
C331 C327 1.393 . S
C331 C330 1.391 . S
H332 C340 0.950 . S
H333 C345 0.950 . S
H334 C342 0.950 . S
H335 C344 0.950 . S
H336 C346 0.950 . S
H337 C348 0.950 . S
H338 C350 0.950 . S
H339 C351 0.950 . S
C340 H332 0.950 . S
C340 C341 1.386 . S
C340 C342 1.391 . S
C341 C340 1.386 . S
C341 C345 1.393 . S
C342 H334 0.950 . S
C342 C340 1.391 . S
C342 C343 1.400 . S
C343 C342 1.400 . S
C343 C344 1.398 . S
C343 C349 1.491 . S
C344 H335 0.950 . S
C344 C343 1.398 . S
C344 C345 1.391 . S
C345 H333 0.950 . S
C345 C341 1.393 . S
C345 C344 1.391 . S
C346 H336 0.950 . S
C346 C347 1.386 . S
C346 C348 1.391 . S
C347 C346 1.386 . S
C347 C351 1.393 . S
C348 H337 0.950 . S
C348 C346 1.391 . S
C348 C349 1.400 . S
C349 C343 1.491 . S
C349 C348 1.400 . S
C349 C350 1.398 . S
C350 H338 0.950 . S
C350 C349 1.398 . S
C350 C351 1.391 . S
C351 H339 0.950 . S
C351 C347 1.393 . S
C351 C350 1.391 . S
H352 C360 0.950 . S
H353 C365 0.950 . S
H354 C362 0.954 . S
H355 C364 0.950 . S
H356 C366 0.950 . S
H357 C368 0.950 . S
H358 C370 0.950 . S
H359 C371 0.950 . S
C360 H352 0.950 . S
C360 C361 1.386 1_554 S
C360 C362 1.391 1_554 S
C361 C360 1.386 1_556 S
C361 C365 1.393 . S
C362 H354 0.954 . S
C362 C360 1.391 1_556 S
C362 C363 1.400 . S
C363 C362 1.400 . S
C363 C364 1.398 . S
C363 C369 1.491 . S
C364 H355 0.950 . S
C364 C363 1.398 . S
C364 C365 1.391 . S
C365 H353 0.950 . S
C365 C361 1.393 . S
C365 C364 1.391 . S
C366 H356 0.950 . S
C366 C367 1.386 . S
C366 C368 1.391 . S
C367 C366 1.386 . S
C367 C371 1.393 . S
C368 H357 0.950 . S
C368 C366 1.391 . S
C368 C369 1.400 . S
C369 C363 1.491 . S
C369 C368 1.400 . S
C369 C370 1.398 . S
C370 H358 0.950 . S
C370 C369 1.398 . S
C370 C371 1.391 . S
C371 H359 0.950 . S
C371 C367 1.393 . S
C371 C370 1.391 . S
H372 C380 0.950 . S
H373 C385 0.950 . S
H374 C382 0.950 . S
H375 C384 0.950 . S
H376 C386 0.950 . S
H377 C388 0.950 . S
H378 C390 0.950 . S
H379 C391 0.950 . S
C380 H372 0.950 . S
C380 C381 1.386 . S
C380 C382 1.391 . S
C381 C380 1.386 . S
C381 C385 1.393 . S
C382 H374 0.950 . S
C382 C380 1.391 . S
C382 C383 1.400 . S
C383 C382 1.400 . S
C383 C384 1.398 . S
C383 C389 1.491 . S
C384 H375 0.950 . S
C384 C383 1.398 . S
C384 C385 1.391 . S
C385 H373 0.950 . S
C385 C381 1.393 . S
C385 C384 1.391 . S
C386 H376 0.950 . S
C386 C387 1.386 . S
C386 C388 1.391 . S
C387 C386 1.386 . S
C387 C391 1.393 . S
C388 H377 0.950 . S
C388 C386 1.391 . S
C388 C389 1.400 . S
C389 C383 1.491 . S
C389 C388 1.400 . S
C389 C390 1.398 . S
C390 H378 0.950 . S
C390 C389 1.398 . S
C390 C391 1.391 . S
C391 H379 0.950 . S
C391 C387 1.393 . S
C391 C390 1.391 . S
H392 C400 0.950 . S
H393 C405 0.950 . S
H394 C402 0.950 . S
H395 C404 0.950 1_554 S
H396 C406 0.950 . S
H397 C408 0.950 . S
H398 C410 0.950 . S
H399 C411 0.950 . S
C400 H392 0.950 . S
C400 C401 1.386 . S
C400 C402 1.391 . S
C401 C400 1.386 . S
C401 C405 1.393 1_556 S
C402 H394 0.950 . S
C402 C400 1.391 . S
C402 C403 1.400 . S
C403 C402 1.400 . S
C403 C404 1.398 . S
C403 C409 1.491 . S
C404 H395 0.950 1_556 S
C404 C403 1.398 . S
C404 C405 1.391 1_556 S
C405 H393 0.950 . S
C405 C401 1.393 1_554 S
C405 C404 1.391 1_554 S
C406 H396 0.950 . S
C406 C407 1.386 . S
C406 C408 1.391 . S
C407 C406 1.386 . S
C407 C411 1.393 . S
C408 H397 0.950 . S
C408 C406 1.391 . S
C408 C409 1.400 . S
C409 C403 1.491 . S
C409 C408 1.400 . S
C409 C410 1.398 . S
C410 H398 0.950 . S
C410 C409 1.398 . S
C410 C411 1.391 . S
C411 H399 0.950 . S
C411 C407 1.393 . S
C411 C410 1.391 . S
H412 C420 0.950 . S
H413 C425 0.950 . S
H414 C422 0.950 . S
H415 C424 0.950 . S
H416 C426 0.950 . S
H417 C428 0.950 . S
H418 C430 0.950 . S
H419 C431 0.950 . S
C420 H412 0.950 . S
C420 C421 1.386 . S
C420 C422 1.391 . S
C421 C420 1.386 . S
C421 C425 1.393 . S
C422 H414 0.950 . S
C422 C420 1.391 . S
C422 C423 1.400 . S
C423 C422 1.400 . S
C423 C424 1.398 . S
C423 C429 1.491 . S
C424 H415 0.950 . S
C424 C423 1.398 . S
C424 C425 1.391 . S
C425 H413 0.950 . S
C425 C421 1.393 . S
C425 C424 1.391 . S
C426 H416 0.950 . S
C426 C427 1.386 . S
C426 C428 1.391 . S
C427 C426 1.386 . S
C427 C431 1.393 . S
C428 H417 0.950 . S
C428 C426 1.391 . S
C428 C429 1.400 . S
C429 C423 1.491 . S
C429 C428 1.400 . S
C429 C430 1.398 . S
C430 H418 0.950 . S
C430 C429 1.398 . S
C430 C431 1.391 . S
C431 H419 0.950 . S
C431 C427 1.393 . S
C431 C430 1.391 . S
H432 C440 0.950 . S
H433 C445 0.950 . S
H434 C442 0.950 1_554 S
H435 C444 0.950 . S
H436 C446 0.950 . S
H437 C448 0.950 1_565 S
H438 C450 0.950 . S
H439 C451 0.950 . S
C440 H432 0.950 . S
C440 C441 1.386 1_554 S
C440 C442 1.391 1_554 S
C441 C440 1.386 1_556 S
C441 C445 1.393 . S
C442 H434 0.950 1_556 S
C442 C440 1.391 1_556 S
C442 C443 1.400 . S
C443 C442 1.400 . S
C443 C444 1.398 . S
C443 C449 1.491 . S
C444 H435 0.950 . S
C444 C443 1.398 . S
C444 C445 1.391 . S
C445 H433 0.950 . S
C445 C441 1.393 . S
C445 C444 1.391 . S
C446 H436 0.950 . S
C446 C447 1.386 . S
C446 C448 1.391 . S
C447 C446 1.386 . S
C447 C451 1.393 . S
C448 H437 0.950 1_545 S
C448 C446 1.391 . S
C448 C449 1.400 1_545 S
C449 C443 1.491 . S
C449 C448 1.400 1_565 S
C449 C450 1.398 1_565 S
C450 H438 0.950 . S
C450 C449 1.398 1_545 S
C450 C451 1.391 . S
C451 H439 0.950 . S
C451 C447 1.393 . S
C451 C450 1.391 . S
H452 C460 0.950 . S
H453 C465 0.950 . S
H454 C462 0.950 . S
H455 C464 0.950 1_565 S
H456 C466 0.950 . S
H457 C468 0.950 . S
H458 C470 0.950 . S
H459 C471 0.950 1_545 S
C460 H452 0.950 . S
C460 C461 1.386 . S
C460 C462 1.391 . S
C461 C460 1.386 . S
C461 C465 1.393 . S
C462 H454 0.950 . S
C462 C460 1.391 . S
C462 C463 1.400 . S
C463 C462 1.400 . S
C463 C464 1.398 . S
C463 C469 1.491 . S
C464 H455 0.950 1_545 S
C464 C463 1.398 . S
C464 C465 1.391 . S
C465 H453 0.950 . S
C465 C461 1.393 . S
C465 C464 1.391 . S
C466 H456 0.950 . S
C466 C467 1.386 . S
C466 C468 1.391 . S
C467 C466 1.386 . S
C467 C471 1.393 . S
C468 H457 0.950 . S
C468 C466 1.391 . S
C468 C469 1.400 1_565 S
C469 C463 1.491 . S
C469 C468 1.400 1_545 S
C469 C470 1.398 . S
C470 H458 0.950 . S
C470 C469 1.398 . S
C470 C471 1.391 1_545 S
C471 H459 0.950 1_565 S
C471 C467 1.393 . S
C471 C470 1.391 1_565 S
H472 C480 0.950 . S
H473 C485 0.950 . S
H474 C482 0.950 . S
H475 C484 0.950 1_545 S
H476 C486 0.950 . S
H477 C488 0.950 . S
H478 C490 0.950 . S
H479 C491 0.950 . S
C480 H472 0.950 . S
C480 C481 1.386 . S
C480 C482 1.391 . S
C481 C480 1.386 . S
C481 C485 1.393 . S
C482 H474 0.950 . S
C482 C480 1.391 . S
C482 C483 1.400 . S
C483 C482 1.400 . S
C483 C484 1.398 . S
C483 C489 1.491 . S
C484 H475 0.950 1_565 S
C484 C483 1.398 . S
C484 C485 1.391 . S
C485 H473 0.950 . S
C485 C481 1.393 . S
C485 C484 1.391 . S
C486 H476 0.950 . S
C486 C487 1.386 . S
C486 C488 1.391 . S
C487 C486 1.386 . S
C487 C491 1.393 . S
C488 H477 0.950 . S
C488 C486 1.391 . S
C488 C489 1.400 1_545 S
C489 C483 1.491 . S
C489 C488 1.400 1_565 S
C489 C490 1.398 . S
C490 H478 0.950 . S
C490 C489 1.398 . S
C490 C491 1.391 1_565 S
C491 H479 0.950 . S
C491 C487 1.393 . S
C491 C490 1.391 1_545 S
H492 C500 0.950 . S
H493 C505 0.950 . S
H494 C502 0.950 . S
H495 C504 0.950 1_565 S
H496 C506 0.950 . S
H497 C508 0.950 . S
H498 C510 0.950 . S
H499 C511 0.950 . S
C500 H492 0.950 . S
C500 C501 1.386 . S
C500 C502 1.391 . S
C501 C500 1.386 . S
C501 C505 1.393 . S
C502 H494 0.950 . S
C502 C500 1.391 . S
C502 C503 1.400 . S
C503 C502 1.400 . S
C503 C504 1.398 . S
C503 C509 1.491 . S
C504 H495 0.950 1_545 S
C504 C503 1.398 . S
C504 C505 1.391 . S
C505 H493 0.950 . S
C505 C501 1.393 . S
C505 C504 1.391 . S
C506 H496 0.950 . S
C506 C507 1.386 . S
C506 C508 1.391 . S
C507 C506 1.386 . S
C507 C511 1.393 . S
C508 H497 0.950 . S
C508 C506 1.391 . S
C508 C509 1.400 1_565 S
C509 C503 1.491 . S
C509 C508 1.400 1_545 S
C509 C510 1.398 . S
C510 H498 0.950 . S
C510 C509 1.398 . S
C510 C511 1.391 1_545 S
C511 H499 0.950 . S
C511 C507 1.393 . S
C511 C510 1.391 1_565 S
H512 C520 0.950 . S
H513 C525 0.950 . S
H514 C522 0.950 . S
H515 C524 0.950 . S
H516 C526 0.950 . S
H517 C528 0.950 . S
H518 C530 0.950 . S
H519 C531 0.950 . S
C520 H512 0.950 . S
C520 C521 1.386 . S
C520 C522 1.391 . S
C521 C520 1.386 . S
C521 C525 1.393 . S
C522 H514 0.950 . S
C522 C520 1.391 . S
C522 C523 1.400 . S
C523 C522 1.400 . S
C523 C524 1.398 . S
C523 C529 1.491 . S
C524 H515 0.950 . S
C524 C523 1.398 . S
C524 C525 1.391 . S
C525 H513 0.950 . S
C525 C521 1.393 . S
C525 C524 1.391 . S
C526 H516 0.950 . S
C526 C527 1.386 . S
C526 C528 1.391 . S
C527 C526 1.386 . S
C527 C531 1.393 . S
C528 H517 0.950 . S
C528 C526 1.391 . S
C528 C529 1.400 . S
C529 C523 1.491 . S
C529 C528 1.400 . S
C529 C530 1.398 . S
C530 H518 0.950 . S
C530 C529 1.398 . S
C530 C531 1.391 . S
C531 H519 0.950 . S
C531 C527 1.393 . S
C531 C530 1.391 . S
H532 C540 0.950 . S
H533 C545 0.950 . S
H534 C542 0.950 . S
H535 C544 0.950 . S
H536 C546 0.950 . S
H537 C548 0.950 . S
H538 C550 0.950 . S
H539 C551 0.950 . S
C540 H532 0.950 . S
C540 C541 1.386 . S
C540 C542 1.391 . S
C541 C540 1.386 . S
C541 C545 1.393 . S
C542 H534 0.950 . S
C542 C540 1.391 . S
C542 C543 1.400 . S
C543 C542 1.400 . S
C543 C544 1.398 . S
C543 C549 1.491 . S
C544 H535 0.950 . S
C544 C543 1.398 . S
C544 C545 1.391 . S
C545 H533 0.950 . S
C545 C541 1.393 . S
C545 C544 1.391 . S
C546 H536 0.950 . S
C546 C547 1.386 . S
C546 C548 1.391 . S
C547 C546 1.386 . S
C547 C551 1.393 . S
C548 H537 0.950 . S
C548 C546 1.391 . S
C548 C549 1.400 . S
C549 C543 1.491 . S
C549 C548 1.400 . S
C549 C550 1.398 . S
C550 H538 0.950 . S
C550 C549 1.398 . S
C550 C551 1.391 . S
C551 H539 0.950 . S
C551 C547 1.393 . S
C551 C550 1.391 . S
H552 C560 0.950 . S
H553 C565 0.950 . S
H554 C562 0.950 . S
H555 C564 0.950 . S
H556 C566 0.950 . S
H557 C568 0.950 . S
H558 C570 0.950 . S
H559 C571 0.950 . S
C560 H552 0.950 . S
C560 C561 1.386 . S
C560 C562 1.391 . S
C561 C560 1.386 . S
C561 C565 1.393 . S
C562 H554 0.950 . S
C562 C560 1.391 . S
C562 C563 1.400 . S
C563 C562 1.400 . S
C563 C564 1.398 . S
C563 C569 1.491 . S
C564 H555 0.950 . S
C564 C563 1.398 . S
C564 C565 1.391 . S
C565 H553 0.950 . S
C565 C561 1.393 . S
C565 C564 1.391 . S
C566 H556 0.950 . S
C566 C567 1.386 . S
C566 C568 1.391 . S
C567 C566 1.386 . S
C567 C571 1.393 . S
C568 H557 0.950 . S
C568 C566 1.391 . S
C568 C569 1.400 . S
C569 C563 1.491 . S
C569 C568 1.400 . S
C569 C570 1.398 . S
C570 H558 0.950 . S
C570 C569 1.398 . S
C570 C571 1.391 . S
C571 H559 0.950 . S
C571 C567 1.393 . S
C571 C570 1.391 . S
H572 C580 0.950 . S
H573 C585 0.950 . S
H574 C582 0.950 . S
H575 C584 0.950 . S
H576 C586 0.950 . S
H577 C588 0.950 . S
H578 C590 0.950 . S
H579 C591 0.950 . S
C580 H572 0.950 . S
C580 C581 1.386 . S
C580 C582 1.391 . S
C581 C580 1.386 . S
C581 C585 1.393 . S
C582 H574 0.950 . S
C582 C580 1.391 . S
C582 C583 1.400 . S
C583 C582 1.400 . S
C583 C584 1.398 . S
C583 C589 1.491 . S
C584 H575 0.950 . S
C584 C583 1.398 . S
C584 C585 1.391 . S
C585 H573 0.950 . S
C585 C581 1.393 . S
C585 C584 1.391 . S
C586 H576 0.950 . S
C586 C587 1.386 . S
C586 C588 1.391 . S
C587 C586 1.386 . S
C587 C591 1.393 . S
C588 H577 0.950 . S
C588 C586 1.391 . S
C588 C589 1.400 . S
C589 C583 1.491 . S
C589 C588 1.400 . S
C589 C590 1.398 . S
C590 H578 0.950 . S
C590 C589 1.398 . S
C590 C591 1.391 . S
C591 H579 0.950 . S
C591 C587 1.393 . S
C591 C590 1.391 . S
H592 C600 0.950 . S
H593 C605 0.950 . S
H594 C602 0.950 . S
H595 C604 0.950 . S
H596 C606 0.950 . S
H597 C608 0.950 . S
H598 C610 0.950 . S
H599 C611 0.950 . S
C600 H592 0.950 . S
C600 C601 1.386 . S
C600 C602 1.391 . S
C601 C600 1.386 . S
C601 C605 1.393 . S
C602 H594 0.950 . S
C602 C600 1.391 . S
C602 C603 1.400 . S
C603 C602 1.400 . S
C603 C604 1.398 . S
C603 C609 1.491 . S
C604 H595 0.950 . S
C604 C603 1.398 . S
C604 C605 1.391 . S
C605 H593 0.950 . S
C605 C601 1.393 . S
C605 C604 1.391 . S
C606 H596 0.950 . S
C606 C607 1.386 . S
C606 C608 1.391 . S
C607 C606 1.386 . S
C607 C611 1.393 . S
C608 H597 0.950 . S
C608 C606 1.391 . S
C608 C609 1.400 . S
C609 C603 1.491 . S
C609 C608 1.400 . S
C609 C610 1.398 . S
C610 H598 0.950 . S
C610 C609 1.398 . S
C610 C611 1.391 . S
C611 H599 0.950 . S
C611 C607 1.393 . S
C611 C610 1.391 . S
H612 C620 0.950 . S
H613 C625 0.950 . S
H614 C622 0.950 . S
H615 C624 0.950 . S
H616 C626 0.950 . S
H617 C628 0.950 . S
H618 C630 0.950 . S
H619 C631 0.950 . S
C620 H612 0.950 . S
C620 C621 1.386 . S
C620 C622 1.391 . S
C621 C620 1.386 . S
C621 C625 1.393 . S
C622 H614 0.950 . S
C622 C620 1.391 . S
C622 C623 1.400 . S
C623 C622 1.400 . S
C623 C624 1.398 . S
C623 C629 1.491 . S
C624 H615 0.950 . S
C624 C623 1.398 . S
C624 C625 1.391 . S
C625 H613 0.950 . S
C625 C621 1.393 . S
C625 C624 1.391 . S
C626 H616 0.950 . S
C626 C627 1.386 . S
C626 C628 1.391 . S
C627 C626 1.386 . S
C627 C631 1.393 . S
C628 H617 0.950 . S
C628 C626 1.391 . S
C628 C629 1.400 . S
C629 C623 1.491 . S
C629 C628 1.400 . S
C629 C630 1.398 . S
C630 H618 0.950 . S
C630 C629 1.398 . S
C630 C631 1.391 . S
C631 H619 0.950 . S
C631 C627 1.393 . S
C631 C630 1.391 . S
H632 C640 0.950 . S
H633 C645 0.950 . S
H634 C642 0.950 . S
H635 C644 0.950 . S
H636 C646 0.950 . S
H637 C648 0.950 . S
H638 C650 0.950 . S
H639 C651 0.950 . S
C640 H632 0.950 . S
C640 C641 1.386 . S
C640 C642 1.391 . S
C641 C640 1.386 . S
C641 C645 1.393 . S
C642 H634 0.950 . S
C642 C640 1.391 . S
C642 C643 1.400 . S
C643 C642 1.400 . S
C643 C644 1.398 . S
C643 C649 1.491 . S
C644 H635 0.950 . S
C644 C643 1.398 . S
C644 C645 1.391 . S
C645 H633 0.950 . S
C645 C641 1.393 . S
C645 C644 1.391 . S
C646 H636 0.950 . S
C646 C647 1.386 . S
C646 C648 1.391 . S
C647 C646 1.386 . S
C647 C651 1.393 . S
C648 H637 0.950 . S
C648 C646 1.391 . S
C648 C649 1.400 . S
C649 C643 1.491 . S
C649 C648 1.400 . S
C649 C650 1.398 . S
C650 H638 0.950 . S
C650 C649 1.398 . S
C650 C651 1.391 . S
C651 H639 0.950 . S
C651 C647 1.393 . S
C651 C650 1.391 . S
H652 C660 0.950 . S
H653 C665 0.950 . S
H654 C662 0.950 . S
H655 C664 0.950 . S
H656 C666 0.950 . S
H657 C668 0.950 . S
H658 C670 0.950 . S
H659 C671 0.950 . S
C660 H652 0.950 . S
C660 C661 1.386 . S
C660 C662 1.391 . S
C661 C660 1.386 . S
C661 C665 1.393 . S
C662 H654 0.950 . S
C662 C660 1.391 . S
C662 C663 1.400 . S
C663 C662 1.400 . S
C663 C664 1.398 . S
C663 C669 1.491 . S
C664 H655 0.950 . S
C664 C663 1.398 . S
C664 C665 1.391 . S
C665 H653 0.950 . S
C665 C661 1.393 . S
C665 C664 1.391 . S
C666 H656 0.950 . S
C666 C667 1.386 . S
C666 C668 1.391 . S
C667 C666 1.386 . S
C667 C671 1.393 . S
C668 H657 0.950 . S
C668 C666 1.391 . S
C668 C669 1.400 . S
C669 C663 1.491 . S
C669 C668 1.400 . S
C669 C670 1.398 . S
C670 H658 0.950 . S
C670 C669 1.398 . S
C670 C671 1.391 . S
C671 H659 0.950 . S
C671 C667 1.393 . S
C671 C670 1.391 . S
C201 N2 1.543 . S
C207 C147 1.529 . S
C227 C111 1.529 . S
C221 N15 1.543 . S
C247 C134 1.528 . S
C241 N28 1.519 . S
C267 C122 1.529 . S
C261 N41 1.520 . S
C287 C191 1.530 . S
C281 N54 1.544 . S
C307 C155 1.537 . S
C301 N67 1.546 . S
C321 N80 1.524 . S
C327 C178 1.530 . S
C347 C166 1.529 . S
C341 N93 1.519 . S
C361 N5 1.503 . S
C367 C188 1.511 . S
C387 C158 1.510 . S
C381 N18 1.497 . S
C401 N31 1.524 . S
C407 C177 1.531 . S
C421 N44 1.521 . S
C427 C163 1.522 . S
C447 C144 1.510 . S
C441 N57 1.500 . S
C461 N70 1.500 . S
C467 C114 1.507 . S
C487 C133 1.527 . S
C481 N83 1.531 . S
C507 C119 1.528 . S
C501 N96 1.530 . S
C527 C169 1.529 . S
C521 N1 1.539 . S
C547 C185 1.525 . S
C541 N14 1.537 . S
C561 N27 1.479 . S
C567 C156 1.505 . S
C587 C180 1.502 . S
C581 N40 1.483 . S
C607 C125 1.525 . S
C601 N53 1.537 . S
C621 N66 1.533 . S
C627 C141 1.523 . S
C641 N79 1.492 . S
C647 C112 1.504 . S
C661 N92 1.479 . S
C667 C136 1.505 . S
