# Generated by pormake.
# Topology zzz, (3,6)-cn, num edge types: 1
# Building blocks:
#     Node 0, Type 0, BuildingBlock: KAKCAD_clean_linker_0, # of connection points: 3
#     Node 1, Type 0, BuildingBlock: KAKCAD_clean_linker_0, # of connection points: 3
#     Node 2, Type 0, BuildingBlock: KAKCAD_clean_linker_0, # of connection points: 3
#     Node 3, Type 0, BuildingBlock: KAKCAD_clean_linker_0, # of connection points: 3
#     Node 4, Type 0, BuildingBlock: KAKCAD_clean_linker_0, # of connection points: 3
#     Node 5, Type 0, BuildingBlock: KAKCAD_clean_linker_0, # of connection points: 3
#     Node 6, Type 0, BuildingBlock: KAKCAD_clean_linker_0, # of connection points: 3
#     Node 7, Type 0, BuildingBlock: KAKCAD_clean_linker_0, # of connection points: 3
#     Node 8, Type 1, BuildingBlock: KUMJIN_clean_sbu_1, # of connection points: 6
#     Node 9, Type 1, BuildingBlock: KUMJIN_clean_sbu_1, # of connection points: 6
#     Node 10, Type 1, BuildingBlock: KUMJIN_clean_sbu_1, # of connection points: 6
#     Node 11, Type 1, BuildingBlock: KUMJIN_clean_sbu_1, # of connection points: 6
#     Edge 12, Type (0, 1), BuildingBlock: UVAHIK_clean_linker_0, # of connection points: 2
#     Edge 13, Type (0, 1), BuildingBlock: UVAHIK_clean_linker_0, # of connection points: 2
#     Edge 14, Type (0, 1), BuildingBlock: UVAHIK_clean_linker_0, # of connection points: 2
#     Edge 15, Type (0, 1), BuildingBlock: UVAHIK_clean_linker_0, # of connection points: 2
#     Edge 16, Type (0, 1), BuildingBlock: UVAHIK_clean_linker_0, # of connection points: 2
#     Edge 17, Type (0, 1), BuildingBlock: UVAHIK_clean_linker_0, # of connection points: 2
#     Edge 18, Type (0, 1), BuildingBlock: UVAHIK_clean_linker_0, # of connection points: 2
#     Edge 19, Type (0, 1), BuildingBlock: UVAHIK_clean_linker_0, # of connection points: 2
#     Edge 20, Type (0, 1), BuildingBlock: UVAHIK_clean_linker_0, # of connection points: 2
#     Edge 21, Type (0, 1), BuildingBlock: UVAHIK_clean_linker_0, # of connection points: 2
#     Edge 22, Type (0, 1), BuildingBlock: UVAHIK_clean_linker_0, # of connection points: 2
#     Edge 23, Type (0, 1), BuildingBlock: UVAHIK_clean_linker_0, # of connection points: 2
#     Edge 24, Type (0, 1), BuildingBlock: UVAHIK_clean_linker_0, # of connection points: 2
#     Edge 25, Type (0, 1), BuildingBlock: UVAHIK_clean_linker_0, # of connection points: 2
#     Edge 26, Type (0, 1), BuildingBlock: UVAHIK_clean_linker_0, # of connection points: 2
#     Edge 27, Type (0, 1), BuildingBlock: UVAHIK_clean_linker_0, # of connection points: 2
#     Edge 28, Type (0, 1), BuildingBlock: UVAHIK_clean_linker_0, # of connection points: 2
#     Edge 29, Type (0, 1), BuildingBlock: UVAHIK_clean_linker_0, # of connection points: 2
#     Edge 30, Type (0, 1), BuildingBlock: UVAHIK_clean_linker_0, # of connection points: 2
#     Edge 31, Type (0, 1), BuildingBlock: UVAHIK_clean_linker_0, # of connection points: 2
#     Edge 32, Type (0, 1), BuildingBlock: UVAHIK_clean_linker_0, # of connection points: 2
#     Edge 33, Type (0, 1), BuildingBlock: UVAHIK_clean_linker_0, # of connection points: 2
#     Edge 34, Type (0, 1), BuildingBlock: UVAHIK_clean_linker_0, # of connection points: 2
#     Edge 35, Type (0, 1), BuildingBlock: UVAHIK_clean_linker_0, # of connection points: 2
# Relax obj value: 0.285
# Max RMSD: 0.209
# Mean RMSD: 0.178
data_MOF--net-zzz--node1-KUMJIN_clean_sbu_1--node2-KAKCAD_clean_linker_0--edge1-UVAHIK_clean_linker_0
_symmetry_space_group_name_H-M    P1
_symmetry_Int_Tables_number       1
_symmetry_cell_setting            triclinic
loop_
_symmetry_equiv_pos_as_xyz
'x, y, z'
_cell_length_a     70.936849
_cell_length_b     70.965718
_cell_length_c     26.226878
_cell_angle_alpha  89.89777
_cell_angle_beta   89.996245
_cell_angle_gamma 90.330373
loop_
_atom_site_label
_atom_site_type_symbol
_atom_site_fract_x
_atom_site_fract_y
_atom_site_fract_z
_atom_type_partial_charge
C0 C 0.78453 0.5887 0.98362 0.0
C1 C 0.80315 0.58216 0.98356 0.0
C2 C 0.77211 0.58336 0.0226 0.0
C3 C 0.77797 0.57097 0.06152 0.0
C4 C 0.79679 0.56479 0.06157 0.0
C5 C 0.80924 0.57046 0.02338 0.0
C6 C 0.76443 0.56356 0.10028 0.0
C7 C 0.74565 0.55969 0.08717 0.0
C8 C 0.73306 0.55143 0.12224 0.0
C9 C 0.73975 0.54621 0.17108 0.0
C10 C 0.75859 0.55031 0.18492 0.0
C11 C 0.77054 0.55925 0.14975 0.0
C12 C 0.76691 0.54522 0.23497 0.0
C13 C 0.7716 0.55963 0.2694 0.0
C14 C 0.77495 0.52736 0.24177 0.0
C15 C 0.78845 0.52433 0.28007 0.0
C16 C 0.79428 0.53919 0.31212 0.0
C17 C 0.71314 0.54846 0.10559 0.0
C18 C 0.70359 0.56327 0.08127 0.0
C19 C 0.70456 0.53057 0.10693 0.0
C20 C 0.68731 0.52739 0.08175 0.0
C21 C 0.67825 0.54205 0.05491 0.0
C22 C 0.68648 0.56013 0.05625 0.0
C23 C 0.78504 0.55663 0.30769 0.0
H24 H 0.77954 0.59772 0.95315 0.0
H25 H 0.75786 0.58871 0.02173 0.0
H26 H 0.80181 0.5549 0.08986 0.0
H27 H 0.82342 0.56488 0.02359 0.0
H28 H 0.74082 0.56256 0.04875 0.0
H29 H 0.78488 0.56256 0.16108 0.0
H30 H 0.73038 0.53945 0.19821 0.0
H31 H 0.76589 0.57364 0.26433 0.0
H32 H 0.77196 0.51617 0.21485 0.0
H33 H 0.7953 0.51076 0.28199 0.0
H34 H 0.70983 0.57724 0.07966 0.0
H35 H 0.71163 0.51886 0.1251 0.0
H36 H 0.78887 0.5683 0.3322 0.0
H37 H 0.68023 0.57178 0.03575 0.0
H38 H 0.6813 0.51333 0.08235 0.0
C39 C 0.94413 0.78265 0.96259 0.0
C40 C 0.95326 0.79993 0.95288 0.0
C41 C 0.94839 0.77229 0.0065 0.0
C42 C 0.96188 0.779 0.04149 0.0
C43 C 0.97053 0.79653 0.0325 0.0
C44 C 0.96628 0.80685 0.98878 0.0
C45 C 0.9681 0.76723 0.08514 0.0
C46 C 0.97179 0.74806 0.07804 0.0
C47 C 0.97963 0.73712 0.11715 0.0
C48 C 0.98363 0.74549 0.1648 0.0
C49 C 0.97996 0.76484 0.17233 0.0
C50 C 0.97208 0.77543 0.13254 0.0
C51 C 0.98533 0.77503 0.21953 0.0
C52 C 0.97371 0.77442 0.26283 0.0
C53 C 0.99993 0.78845 0.21741 0.0
C54 C 1.00238 0.80157 0.25665 0.0
C55 C 0.99016 0.80174 0.29895 0.0
C56 C 0.98474 0.71745 0.10451 0.0
C57 C 0.97246 0.70251 0.11638 0.0
C58 C 0.99957 0.71429 0.07018 0.0
C59 C 1.00152 0.69685 0.04604 0.0
C60 C 0.9886 0.68209 0.05541 0.0
C61 C 0.9744 0.68498 0.09222 0.0
C62 C 0.97611 0.78763 0.30219 0.0
H63 H 0.93391 0.77703 0.9359 0.0
H64 H 0.94135 0.7589 0.01271 0.0
H65 H 0.98125 0.80194 0.05808 0.0
H66 H 0.97391 0.81988 0.98205 0.0
H67 H 0.96934 0.7417 0.04102 0.0
H68 H 0.96935 0.7903 0.13838 0.0
H69 H 0.99012 0.73728 0.19483 0.0
H70 H 0.96213 0.76443 0.26487 0.0
H71 H 0.00882 0.78944 0.18389 0.0
H72 H 0.01318 0.81229 0.25222 0.0
H73 H 0.96069 0.70473 0.14194 0.0
H74 H 0.00894 0.72575 0.05953 0.0
H75 H 0.96657 0.78716 0.33441 0.0
H76 H 0.96436 0.6739 0.10107 0.0
H77 H 0.01247 0.69539 0.01758 0.0
C78 C 0.72358 0.93221 0.01888 0.0
C79 C 0.70537 0.93977 0.02297 0.0
C80 C 0.73818 0.93886 0.05029 0.0
C81 C 0.73481 0.95333 0.08578 0.0
C82 C 0.71665 0.96108 0.08866 0.0
C83 C 0.70213 0.95431 0.058 0.0
C84 C 0.74993 0.9606 0.12 0.0
C85 C 0.76842 0.96345 0.10251 0.0
C86 C 0.78217 0.97197 0.13387 0.0
C87 C 0.77708 0.97799 0.18338 0.0
C88 C 0.75869 0.9746 0.20167 0.0
C89 C 0.74547 0.96572 0.17009 0.0
C90 C 0.75202 0.98047 0.25272 0.0
C91 C 0.74727 0.96646 0.28843 0.0
C92 C 0.74491 0.99873 0.25944 0.0
C93 C 0.73194 1.00247 0.29854 0.0
C94 C 0.72575 0.98793 0.33122 0.0
C95 C 0.80155 0.97471 0.11312 0.0
C96 C 0.81064 0.95969 0.08855 0.0
C97 C 0.81024 0.99255 0.11278 0.0
C98 C 0.82718 0.99549 0.08609 0.0
C99 C 0.83589 0.98058 0.05976 0.0
C100 C 0.8276 0.96256 0.06242 0.0
C101 C 0.73432 0.97016 0.32733 0.0
H102 H 0.72645 0.92108 0.99184 0.0
H103 H 0.75199 0.93255 0.0472 0.0
H104 H 0.71363 0.97265 0.11423 0.0
H105 H 0.6884 0.96082 0.06091 0.0
H106 H 0.77199 0.9597 0.06366 0.0
H107 H 0.73138 0.96311 0.18466 0.0
H108 H 0.78737 0.98488 0.20766 0.0
H109 H 0.75229 0.95219 0.28347 0.0
H110 H 0.74798 0.00963 0.23164 0.0
H111 H 0.72557 0.01628 0.3003 0.0
H112 H 0.8043 0.94576 0.08832 0.0
H113 H 0.80351 1.00441 0.13113 0.0
H114 H 0.73008 0.95874 0.35235 0.0
H115 H 0.83376 0.95078 0.04233 0.0
H116 H 0.83329 0.00951 0.08525 0.0
C117 C 0.52066 0.73355 0.28415 0.0
C118 C 0.53487 0.72076 0.29815 0.0
C119 C 0.52422 0.74763 0.24732 0.0
C120 C 0.54209 0.74921 0.22428 0.0
C121 C 0.5566 0.73738 0.24179 0.0
C122 C 0.553 0.72326 0.27777 0.0
C123 C 0.54506 0.76036 0.17642 0.0
C124 C 0.53965 0.77946 0.17062 0.0
C125 C 0.54304 0.78895 0.12388 0.0
C126 C 0.55118 0.77914 0.08316 0.0
C127 C 0.55614 0.76021 0.08807 0.0
C128 C 0.55322 0.75103 0.13466 0.0
C129 C 0.563 0.74951 0.04345 0.0
C130 C 0.55303 0.75023 0.99733 0.0
C131 C 0.5785 0.73739 0.04775 0.0
C132 C 0.58335 0.7255 0.00743 0.0
C133 C 0.57258 0.7253 0.96233 0.0
C134 C 0.53835 0.80903 0.11453 0.0
C135 C 0.52039 0.81384 0.09641 0.0
C136 C 0.55309 0.8222 0.10942 0.0
C137 C 0.55025 0.83934 0.08397 0.0
C138 C 0.5326 0.84369 0.06249 0.0
C139 C 0.51752 0.831 0.07085 0.0
C140 C 0.55769 0.7382 0.95734 0.0
H141 H 0.50654 0.73191 0.29928 0.0
H142 H 0.5127 0.7564 0.23446 0.0
H143 H 0.57058 0.73834 0.22532 0.0
H144 H 0.56428 0.71377 0.28826 0.0
H145 H 0.53323 0.78691 0.20213 0.0
H146 H 0.55663 0.73619 0.13774 0.0
H147 H 0.55352 0.7863 0.0471 0.0
H148 H 0.5409 0.75932 0.99319 0.0
H149 H 0.58657 0.73678 0.08278 0.0
H150 H 0.59512 0.71603 0.0123 0.0
H151 H 0.5089 0.80374 0.09871 0.0
H152 H 0.5672 0.8186 0.12174 0.0
H153 H 0.54881 0.73828 0.92377 0.0
H154 H 0.50364 0.83394 0.05568 0.0
H155 H 0.56228 0.84853 0.07803 0.0
C156 C 0.23972 0.45717 0.25254 0.0
C157 C 0.22499 0.44404 0.24684 0.0
C158 C 0.25037 0.46289 0.21062 0.0
C159 C 0.2467 0.45552 0.16183 0.0
C160 C 0.23256 0.44169 0.15647 0.0
C161 C 0.22177 0.43604 0.19856 0.0
C162 C 0.25674 0.46342 0.11673 0.0
C163 C 0.27569 0.46889 0.12077 0.0
C164 C 0.28462 0.47916 0.08194 0.0
C165 C 0.27455 0.48356 0.03706 0.0
C166 C 0.25568 0.4774 0.03151 0.0
C167 C 0.24698 0.46738 0.07144 0.0
C168 C 0.24398 0.48224 0.98643 0.0
C169 C 0.236 0.50023 0.98216 0.0
C170 C 0.23776 0.46793 0.9534 0.0
C171 C 0.2234 0.47136 0.91787 0.0
C172 C 0.21464 0.48908 0.91536 0.0
C173 C 0.30396 0.48612 0.09257 0.0
C174 C 0.30634 0.50075 0.12798 0.0
C175 C 0.31964 0.47526 0.07906 0.0
C176 C 0.33717 0.47831 0.10269 0.0
C177 C 0.3393 0.49216 0.14087 0.0
C178 C 0.32375 0.50375 0.15178 0.0
C179 C 0.22142 0.5036 0.94715 0.0
H180 H 0.24231 0.46393 0.28889 0.0
H181 H 0.26085 0.47385 0.21618 0.0
H182 H 0.22956 0.43553 0.11958 0.0
H183 H 0.21057 0.4258 0.1931 0.0
H184 H 0.28349 0.46568 0.15524 0.0
H185 H 0.2322 0.46359 0.0681 0.0
H186 H 0.28121 0.49183 0.00726 0.0
H187 H 0.24028 0.51138 0.00791 0.0
H188 H 0.24343 0.45384 0.95674 0.0
H189 H 0.21843 0.45982 0.89437 0.0
H190 H 0.29431 0.50897 0.14009 0.0
H191 H 0.31805 0.46361 0.05274 0.0
H192 H 0.21508 0.51744 0.94596 0.0
H193 H 0.32457 0.51436 0.18131 0.0
H194 H 0.34883 0.4693 0.09249 0.0
C195 C 0.05873 0.2386 0.27187 0.0
C196 C 0.07235 0.22437 0.26846 0.0
C197 C 0.05401 0.24932 0.22924 0.0
C198 C 0.06289 0.2462 0.1821 0.0
C199 C 0.07713 0.23252 0.17917 0.0
C200 C 0.08176 0.22165 0.22191 0.0
C201 C 0.05636 0.25641 0.13586 0.0
C202 C 0.05079 0.27525 0.13917 0.0
C203 C 0.04243 0.28445 0.09772 0.0
C204 C 0.04018 0.27479 0.05105 0.0
C205 C 0.04628 0.2559 0.04647 0.0
C206 C 0.05416 0.24693 0.08938 0.0
C207 C 0.04383 0.24463 0.99877 0.0
C208 C 0.0266 0.24418 0.97229 0.0
C209 C 0.05818 0.2323 0.98326 0.0
C210 C 0.05502 0.21898 0.94498 0.0
C211 C 0.03747 0.2177 0.92017 0.0
C212 C 0.03535 0.30376 0.10687 0.0
C213 C 0.02027 0.30611 0.14086 0.0
C214 C 0.04629 0.31953 0.09339 0.0
C215 C 0.04289 0.33713 0.11602 0.0
C216 C 0.0286 0.33923 0.15302 0.0
C217 C 0.01693 0.32358 0.16363 0.0
C218 C 0.02346 0.23089 0.93342 0.0
H219 H 0.05092 0.24078 0.30683 0.0
H220 H 0.04273 0.25945 0.2328 0.0
H221 H 0.08444 0.22996 0.14363 0.0
H222 H 0.09239 0.21084 0.21827 0.0
H223 H 0.05259 0.28281 0.17476 0.0
H224 H 0.05778 0.23214 0.08725 0.0
H225 H 0.03364 0.28184 0.01898 0.0
H226 H 0.01523 0.25344 0.98329 0.0
H227 H 0.07172 0.2324 1.00237 0.0
H228 H 0.06618 0.2091 0.93679 0.0
H229 H 0.01193 0.29405 0.15281 0.0
H230 H 0.05824 0.31798 0.06807 0.0
H231 H 0.00988 0.23069 0.91462 0.0
H232 H 0.00598 0.32437 0.19227 0.0
H233 H 0.05198 0.34887 0.10607 0.0
C234 C 0.29696 0.07528 0.24913 0.0
C235 C 0.30936 0.0896 0.23272 0.0
C236 C 0.28299 0.06831 0.21668 0.0
C237 C 0.28113 0.07544 0.16697 0.0
C238 C 0.29262 0.09063 0.1517 0.0
C239 C 0.30655 0.09769 0.18432 0.0
C240 C 0.26883 0.06556 0.12973 0.0
C241 C 0.2509 0.05905 0.1439 0.0
C242 C 0.24017 0.04768 0.11097 0.0
C243 C 0.24764 0.04261 0.06303 0.0
C244 C 0.26564 0.04924 0.04822 0.0
C245 C 0.27591 0.06085 0.08156 0.0
C246 C 0.27513 0.04311 1.00058 0.0
C247 C 0.28076 0.0243 0.99476 0.0
C248 C 0.2821 0.05672 0.9663 0.0
C249 C 0.29522 0.05184 0.92876 0.0
C250 C 0.30193 0.03327 0.92511 0.0
C251 C 0.22157 0.04083 0.12931 0.0
C252 C 0.22073 0.02896 0.17213 0.0
C253 C 0.20482 0.04867 0.11053 0.0
C254 C 0.18763 0.04538 0.13573 0.0
C255 C 0.18688 0.03408 0.17995 0.0
C256 C 0.2036 0.02552 0.19694 0.0
C257 C 0.29411 0.01944 0.95756 0.0
H258 H 0.29883 0.06847 0.28575 0.0
H259 H 0.2745 0.05647 0.22939 0.0
H260 H 0.29129 0.09659 0.11382 0.0
H261 H 0.31563 0.10896 0.17081 0.0
H262 H 0.2453 0.06267 0.18108 0.0
H263 H 0.29006 0.06526 0.07108 0.0
H264 H 0.23969 0.0334 0.03797 0.0
H265 H 0.27586 0.01361 0.02122 0.0
H266 H 0.27818 0.07137 0.97049 0.0
H267 H 0.30101 0.06288 0.90478 0.0
H268 H 0.23353 0.02302 0.1878 0.0
H269 H 0.20518 0.05813 0.07808 0.0
H270 H 0.29883 1.00498 0.95542 0.0
H271 H 0.20365 0.01693 0.23112 0.0
H272 H 0.17501 0.05206 0.12135 0.0
C273 C 0.46269 0.30425 0.9522 0.0
C274 C 0.48064 0.30664 0.93011 0.0
C275 C 0.45975 0.29125 0.99164 0.0
C276 C 0.47462 0.28016 0.01035 0.0
C277 C 0.49233 0.2817 0.9866 0.0
C278 C 0.49532 0.29483 0.94707 0.0
C279 C 0.47216 0.26943 0.05906 0.0
C280 C 0.47785 0.25045 0.06507 0.0
C281 C 0.47565 0.24133 0.11272 0.0
C282 C 0.46812 0.25131 0.15394 0.0
C283 C 0.46254 0.2701 0.14881 0.0
C284 C 0.46445 0.27895 0.10119 0.0
C285 C 0.45591 0.28073 0.19418 0.0
C286 C 0.44441 0.27203 0.23124 0.0
C287 C 0.46214 0.2993 0.20251 0.0
C288 C 0.45755 0.3087 0.24746 0.0
C289 C 0.4467 0.29974 0.28537 0.0
C290 C 0.48114 0.22149 0.1224 0.0
C291 C 0.46823 0.20685 0.11281 0.0
C292 C 0.49679 0.2178 0.15361 0.0
C293 C 0.49896 0.20018 0.17703 0.0
C294 C 0.4854 0.18581 0.17025 0.0
C295 C 0.47035 0.18919 0.13636 0.0
C296 C 0.43994 0.28141 0.27649 0.0
H297 H 0.45104 0.3131 0.94082 0.0
H298 H 0.44592 0.2904 0.00906 0.0
H299 H 0.5041 0.27349 1.00036 0.0
H300 H 0.50927 0.29601 0.93056 0.0
H301 H 0.48387 0.24288 0.03319 0.0
H302 H 0.46022 0.29353 0.09706 0.0
H303 H 0.46704 0.24439 0.19075 0.0
H304 H 0.43911 0.25785 0.22565 0.0
H305 H 0.47129 0.30633 0.17533 0.0
H306 H 0.46328 0.3227 0.25353 0.0
H307 H 0.4558 0.20946 0.08991 0.0
H308 H 0.50665 0.22901 0.16276 0.0
H309 H 0.43142 0.27422 0.30485 0.0
H310 H 0.45978 0.17842 0.12954 0.0
H311 H 0.51061 0.1983 0.20317 0.0
Eu312 Eu 0.98928 0.02013 0.56579 0.0
C313 C 0.05983 0.02827 0.69607 0.0
N314 N 0.05689 0.01674 0.65545 0.0
C315 C 0.08601 0.02724 0.61814 0.0
C316 C 0.0756 0.04045 0.69804 0.0
C317 C 0.0703 0.01525 0.61835 0.0
C318 C 0.08848 0.04018 0.65765 0.0
C319 C 0.05088 0.03785 0.78148 0.0
C320 C 0.04771 0.02698 0.73737 0.0
C321 C 0.06604 0.05066 0.78261 0.0
C322 C 0.07836 0.05198 0.74094 0.0
Eu323 Eu 0.02883 0.99833 0.65757 0.0
N324 N 0.03302 0.01469 0.73484 0.0
C325 C 0.03889 0.03528 0.82339 0.0
C326 C 0.02175 0.01149 0.77615 0.0
C327 C 0.02441 0.02186 0.82093 0.0
H328 H 0.06918 1.00459 0.58927 0.0
H329 H 0.01525 0.01956 0.85339 0.0
H330 H 0.95001 0.99828 0.60287 0.0
H331 H 0.01837 0.0259 0.37259 0.0
H332 H 0.01054 1.00116 0.7741 0.0
H333 H 0.04087 0.04335 0.85802 0.0
H334 H 0.01244 0.03621 0.46072 0.0
H335 H 0.09635 0.02628 0.58792 0.0
H336 H 0.06859 0.05932 0.81591 0.0
H337 H 0.09028 0.06157 0.74286 0.0
H338 H 0.92741 0.97441 0.56992 0.0
H339 H 0.10078 0.04931 0.65769 0.0
H340 H 1.00136 0.99823 0.33787 0.0
N341 N 0.96729 0.99754 0.5368 0.0
C342 C 0.96952 0.99105 0.48857 0.0
C343 C 0.93927 0.97886 0.54682 0.0
C344 C 0.95717 0.97735 0.46837 0.0
C345 C 0.95203 0.99231 0.56537 0.0
C346 C 0.94202 0.97111 0.49841 0.0
N347 N 0.99424 0.01313 0.47829 0.0
C348 C 0.00575 0.02348 0.44711 0.0
C349 C 0.98597 0.99292 0.4078 0.0
C350 C 0.98369 0.99882 0.45877 0.0
C351 C 0.99917 1.00234 0.37719 0.0
C352 C 0.00882 0.01794 0.39666 0.0
H353 H 0.93218 0.96064 0.48421 0.0
H354 H 0.95089 0.95995 0.40263 0.0
H355 H 0.97615 0.97357 0.34955 0.0
O356 O 0.97451 0.04054 0.51802 0.0
O357 O 0.99012 0.98825 0.58048 0.0
O358 O 0.0217 0.98383 0.58355 0.0
O359 O 0.96683 0.03752 0.59713 0.0
O360 O 0.01991 0.02808 0.54729 0.0
O361 O 0.03587 1.00162 0.57314 0.0
O362 O 0.02483 0.97145 0.69655 0.0
O363 O 0.01474 0.02612 0.67786 0.0
O364 O 0.0113 0.03978 0.59979 0.0
O365 O 0.053 0.98121 0.67982 0.0
O366 O 0.99859 0.99159 0.68175 0.0
O367 O 0.98053 0.01583 0.64822 0.0
C368 C 0.00482 0.9774 0.57352 0.0
C369 C 0.96462 0.06775 0.56213 0.0
C370 C 0.98098 0.09809 0.55999 0.0
C371 C 0.9644 0.10681 0.57733 0.0
C372 C 0.94826 0.07667 0.57938 0.0
C373 C 0.9482 0.09612 0.5871 0.0
C374 C 0.981 0.07842 0.55311 0.0
C375 C 0.03422 0.01642 0.54314 0.0
C376 C 0.96459 0.04722 0.55556 0.0
C377 C 0.96004 0.9707 0.41859 0.0
C378 C 0.97446 0.97843 0.38841 0.0
C379 C 0.01423 0.04124 0.64901 0.0
C380 C 0.04639 0.94879 0.66625 0.0
C381 C 0.03554 0.91767 0.63875 0.0
C382 C 0.05239 0.91528 0.61155 0.0
C383 C 0.06321 0.94611 0.63883 0.0
C384 C 0.03268 0.93442 0.6661 0.0
C385 C 0.06612 0.92946 0.61162 0.0
C386 C 0.98334 1.0022 0.68156 0.0
C387 C 0.04252 0.96684 0.69251 0.0
H388 H 0.96378 0.12194 0.58224 0.0
H389 H 0.93557 0.06858 0.58701 0.0
H390 H 0.93551 0.10297 0.60026 0.0
H391 H 0.99373 0.07138 0.54087 0.0
H392 H 0.05489 0.90247 0.59025 0.0
H393 H 0.07405 0.95692 0.63793 0.0
H394 H 0.01979 0.93617 0.68777 0.0
H395 H 0.07907 0.92755 0.59045 0.0
Eu396 Eu 0.51846 0.03672 0.65647 0.0
C397 C 0.49682 0.95302 0.62736 0.0
N398 N 0.50978 0.96259 0.59942 0.0
C399 C 0.53147 0.93697 0.60752 0.0
C400 C 0.50108 0.9354 0.64922 0.0
C401 C 0.52657 0.95449 0.58692 0.0
C402 C 0.51883 0.92759 0.63983 0.0
C403 C 0.46444 0.94994 0.6552 0.0
C404 C 0.47881 0.96017 0.63014 0.0
C405 C 0.46891 0.9331 0.68065 0.0
C406 C 0.48722 0.92582 0.6776 0.0
Eu407 Eu 0.50119 0.99282 0.56959 0.0
N408 N 0.47494 0.97615 0.60378 0.0
C409 C 0.44589 0.95642 0.65158 0.0
C410 C 0.45668 0.9814 0.59581 0.0
C411 C 0.44194 0.97198 0.62072 0.0
H412 H 0.5364 0.96194 0.56257 0.0
H413 H 0.42755 0.97664 0.61582 0.0
H414 H 0.47832 0.04758 0.72091 0.0
H415 H 0.56042 0.08463 0.53958 0.0
H416 H 0.45349 0.99312 0.57093 0.0
H417 H 0.43443 0.94901 0.67036 0.0
H418 H 0.55437 0.05708 0.59574 0.0
H419 H 0.54502 0.93082 0.59887 0.0
H420 H 0.45813 0.92518 0.70081 0.0
H421 H 0.4903 0.91241 0.69552 0.0
H422 H 0.45143 0.06913 0.71165 0.0
H423 H 0.52265 0.91406 0.65586 0.0
H424 H 0.53451 0.10669 0.51955 0.0
N425 N 0.49321 0.05873 0.657 0.0
C426 C 0.49461 0.07341 0.62393 0.0
C427 C 0.46335 0.07031 0.68606 0.0
C428 C 0.47988 0.0865 0.61834 0.0
C429 C 0.47849 0.05787 0.69053 0.0
C430 C 0.46384 0.08443 0.64893 0.0
N431 N 0.52553 0.06371 0.60688 0.0
C432 C 0.54315 0.06689 0.58766 0.0
C433 C 0.51411 0.09189 0.5665 0.0
C434 C 0.51145 0.07616 0.59863 0.0
C435 C 0.53188 0.09478 0.54451 0.0
C436 C 0.54656 0.08238 0.55579 0.0
H437 H 0.45218 0.09417 0.64584 0.0
H438 H 0.47069 0.11166 0.57863 0.0
H439 H 0.5007 0.11631 0.5329 0.0
O440 O 0.54541 0.04031 0.6948 0.0
O441 O 0.51853 0.03751 0.56948 0.0
O442 O 0.49121 0.02236 0.55087 0.0
O443 O 0.52065 0.05285 0.72756 0.0
O444 O 0.54319 0.02052 0.62315 0.0
O445 O 0.53183 1.00136 0.55734 0.0
O446 O 0.4874 0.97652 0.50933 0.0
O447 O 0.52098 0.98728 0.63704 0.0
O448 O 0.5117 0.00901 0.69609 0.0
O449 O 0.5125 0.99249 0.4923 0.0
O450 O 0.47956 0.01336 0.6017 0.0
O451 O 0.49207 0.02034 0.67963 0.0
C452 C 0.50333 0.0359 0.54145 0.0
C453 C 0.54219 0.03849 0.78394 0.0
C454 C 0.55425 0.01119 0.83071 0.0
C455 C 0.55131 0.02104 0.87663 0.0
C456 C 0.53941 0.048 0.83004 0.0
C457 C 0.54374 0.03919 0.87617 0.0
C458 C 0.54899 0.0199 0.78469 0.0
C459 C 0.54563 0.0099 0.58232 0.0
C460 C 0.53804 0.04793 0.73513 0.0
C461 C 0.48197 0.10162 0.58407 0.0
C462 C 0.49907 0.10432 0.55818 0.0
C463 C 0.51858 0.99241 0.68471 0.0
C464 C 0.49013 0.98979 0.42735 0.0
C465 C 0.47031 0.01298 0.38465 0.0
C466 C 0.47445 1.00431 0.33769 0.0
C467 C 0.49415 0.98143 0.38034 0.0
C468 C 0.47831 0.00556 0.42942 0.0
C469 C 0.48632 0.98869 0.33569 0.0
C470 C 0.47743 0.01658 0.65062 0.0
C471 C 0.49881 0.98237 0.47383 0.0
H472 H 0.55548 0.01511 0.91292 0.0
H473 H 0.53399 0.06224 0.8303 0.0
H474 H 0.5417 0.04665 0.9117 0.0
H475 H 0.55055 0.01232 0.74916 0.0
H476 H 0.46822 0.00931 0.30254 0.0
H477 H 0.50335 0.96933 0.3782 0.0
H478 H 0.47547 0.01204 0.46589 0.0
H479 H 0.48937 0.98213 0.29941 0.0
Eu480 Eu 0.53062 0.50009 0.55475 0.0
C481 C 0.46827 0.48751 0.7087 0.0
N482 N 0.46693 0.49549 0.66174 0.0
C483 C 0.44018 0.47605 0.64217 0.0
C484 C 0.45611 0.47267 0.72326 0.0
C485 C 0.45269 0.49061 0.62924 0.0
C486 C 0.44207 0.46686 0.68908 0.0
C487 C 0.48311 0.48677 0.79187 0.0
C488 C 0.48164 0.49449 0.74245 0.0
C489 C 0.47171 0.47132 0.80567 0.0
C490 C 0.45821 0.46432 0.77148 0.0
Eu491 Eu 0.48885 0.51955 0.64222 0.0
N492 N 0.49232 0.50959 0.72815 0.0
C493 C 0.4955 0.49524 0.82659 0.0
C494 C 0.50297 0.51894 0.76342 0.0
C495 C 0.50516 0.51165 0.81261 0.0
H496 H 0.45134 0.49769 0.5929 0.0
H497 H 0.51405 0.51886 0.83995 0.0
H498 H 0.56972 0.50489 0.62828 0.0
H499 H 0.52087 0.52385 0.35922 0.0
H500 H 0.50959 0.53223 0.75413 0.0
H501 H 0.49705 0.48973 0.86491 0.0
H502 H 0.51443 0.50473 0.43655 0.0
H503 H 0.42916 0.47188 0.6159 0.0
H504 H 0.47283 0.46505 0.84325 0.0
H505 H 0.4492 0.45269 0.78309 0.0
H506 H 0.59729 0.52596 0.63477 0.0
H507 H 0.43244 0.45551 0.69886 0.0
H508 H 0.54693 0.54722 0.35948 0.0
N509 N 0.55889 0.51803 0.56158 0.0
C510 C 0.56275 0.53001 0.52242 0.0
C511 C 0.58751 0.52749 0.60337 0.0
C512 C 0.57878 0.54185 0.52333 0.0
C513 C 0.57158 0.51585 0.60024 0.0
C514 C 0.59095 0.54082 0.56521 0.0
N515 N 0.53642 0.51744 0.47957 0.0
C516 C 0.52585 0.51488 0.43665 0.0
C517 C 0.55547 0.54076 0.43684 0.0
C518 C 0.55132 0.52949 0.47973 0.0
C519 C 0.54419 0.53884 0.39327 0.0
C520 C 0.52947 0.52565 0.39296 0.0
H521 H 0.60342 0.54967 0.5674 0.0
H522 H 0.59467 0.56312 0.48192 0.0
H523 H 0.57421 0.56217 0.40613 0.0
O524 O 0.52743 0.47522 0.5073 0.0
O525 O 0.51723 0.52835 0.53523 0.0
O526 O 0.51063 0.54079 0.61343 0.0
O527 O 0.55476 0.48186 0.53885 0.0
O528 O 0.50073 0.49349 0.52639 0.0
O529 O 0.4822 0.51759 0.55798 0.0
O530 O 0.47233 0.53716 0.69337 0.0
O531 O 0.49111 0.48808 0.62282 0.0
O532 O 0.52269 0.48419 0.62634 0.0
O533 O 0.46675 0.53791 0.61266 0.0
O534 O 0.51868 0.5282 0.66652 0.0
O535 O 0.53607 0.50271 0.64031 0.0
C536 C 0.51491 0.54302 0.56502 0.0
C537 C 0.54539 0.44975 0.53865 0.0
C538 C 0.52973 0.42051 0.56568 0.0
C539 C 0.54753 0.41278 0.57649 0.0
C540 C 0.56294 0.44168 0.54933 0.0
C541 C 0.56395 0.42339 0.56885 0.0
C542 C 0.52887 0.43928 0.54853 0.0
C543 C 0.48583 0.50454 0.52382 0.0
C544 C 0.54427 0.46903 0.51735 0.0
C545 C 0.58252 0.5538 0.48169 0.0
C546 C 0.5709 0.55323 0.43848 0.0
C547 C 0.50571 0.47763 0.63424 0.0
C548 C 0.46414 0.5663 0.6573 0.0
C549 C 0.48169 0.59546 0.67233 0.0
C550 C 0.46548 0.60573 0.65895 0.0
C551 C 0.44819 0.57672 0.64397 0.0
C552 C 0.48089 0.57568 0.67052 0.0
C553 C 0.44892 0.59638 0.64458 0.0
C554 C 0.53348 0.51717 0.67093 0.0
C555 C 0.46345 0.54565 0.6566 0.0
H556 H 0.54891 0.3983 0.58895 0.0
H557 H 0.57586 0.44951 0.5425 0.0
H558 H 0.57756 0.41723 0.57684 0.0
H559 H 0.51526 0.44566 0.54197 0.0
H560 H 0.46537 0.62097 0.66081 0.0
H561 H 0.43521 0.56965 0.63321 0.0
H562 H 0.49328 0.56745 0.67954 0.0
H563 H 0.43653 0.60441 0.63457 0.0
Eu564 Eu 0.0157 0.53049 0.55898 0.0
C565 C 0.02274 0.46959 0.72741 0.0
N566 N 0.01652 0.46799 0.67867 0.0
C567 C 0.03459 0.43989 0.66731 0.0
C568 C 0.03597 0.45678 0.74734 0.0
C569 C 0.02159 0.45304 0.6491 0.0
C570 C 0.04202 0.44191 0.7164 0.0
C571 C 0.02079 0.4851 0.80945 0.0
C572 C 0.01515 0.48353 0.75804 0.0
C573 C 0.03483 0.47312 0.82862 0.0
C574 C 0.04235 0.45894 0.79768 0.0
Eu575 Eu 0.9945 0.49048 0.65087 0.0
N576 N 1.00122 0.49452 0.73878 0.0
C577 C 0.01157 0.4981 0.84066 0.0
C578 C 0.99102 0.50586 0.77036 0.0
C579 C 0.99636 0.50825 0.82126 0.0
H580 H 0.01581 0.45153 0.61117 0.0
H581 H 0.98853 0.51766 0.84571 0.0
H582 H 0.01163 0.57045 0.62952 0.0
H583 H 0.98928 0.51792 0.36713 0.0
H584 H 0.97856 0.51291 0.7567 0.0
H585 H 0.0155 0.49977 0.88033 0.0
H586 H 0.00967 0.51287 0.44274 0.0
H587 H 0.0389 0.42824 0.64349 0.0
H588 H 0.03947 0.47427 0.86785 0.0
H589 H 0.05272 0.44942 0.81347 0.0
H590 H 0.99035 0.59761 0.63561 0.0
H591 H 0.05213 0.43175 0.73037 0.0
H592 H 0.96559 0.54342 0.36778 0.0
N593 N 0.99778 0.55861 0.56493 0.0
C594 C 0.98522 0.56174 0.52677 0.0
C595 C 0.98854 0.58746 0.60522 0.0
C596 C 0.97315 0.57746 0.52765 0.0
C597 C 1.00034 0.57178 0.60224 0.0
C598 C 0.97463 0.59013 0.56829 0.0
N599 N 0.99742 0.53516 0.48496 0.0
C600 C 0.99945 0.52412 0.44278 0.0
C601 C 0.97323 0.55314 0.44329 0.0
C602 C 0.98525 0.54982 0.48509 0.0
C603 C 0.97457 0.54134 0.40069 0.0
C604 C 0.98794 0.52693 0.40016 0.0
H605 H 0.96562 0.60239 0.57041 0.0
H606 H 0.95096 0.59225 0.4875 0.0
H607 H 0.951 0.57088 0.41364 0.0
O608 O 0.03978 0.52687 0.50889 0.0
O609 O 0.98761 0.51614 0.54145 0.0
O610 O 0.97498 0.51316 0.62055 0.0
O611 O 0.03433 0.5543 0.54051 0.0
O612 O 0.02287 0.50036 0.53602 0.0
O613 O 0.99854 0.48194 0.56828 0.0
O614 O 0.97513 0.47426 0.69861 0.0
O615 O 0.02653 0.49127 0.63659 0.0
O616 O 0.03147 0.52288 0.63073 0.0
O617 O 0.97492 0.47012 0.61725 0.0
O618 O 0.98759 0.52105 0.67115 0.0
O619 O 0.01403 0.53708 0.64414 0.0
C620 C 0.97285 0.51599 0.57153 0.0
C621 C 0.06625 0.54415 0.53662 0.0
C622 C 0.09701 0.52883 0.54314 0.0
C623 C 0.10305 0.54312 0.5765 0.0
C624 C 0.07265 0.55843 0.56951 0.0
C625 C 0.09092 0.55782 0.58943 0.0
C626 C 0.07855 0.52947 0.52374 0.0
C627 C 0.01199 0.48524 0.53471 0.0
C628 C 0.04658 0.54361 0.51775 0.0
C629 C 0.96049 0.58037 0.4872 0.0
C630 C 0.96054 0.56823 0.44508 0.0
C631 C 0.03772 0.50601 0.64121 0.0
C632 C 0.94589 0.46879 0.65951 0.0
C633 C 0.91826 0.48868 0.67192 0.0
C634 C 0.90668 0.47296 0.66108 0.0
C635 C 0.93418 0.4534 0.6486 0.0
C636 C 0.93793 0.48641 0.66989 0.0
C637 C 0.91463 0.45554 0.64906 0.0
C638 C 0.99963 0.53514 0.67551 0.0
C639 C 0.96642 0.4666 0.66015 0.0
H640 H 0.11722 0.54316 0.59179 0.0
H641 H 0.0635 0.5699 0.58044 0.0
H642 H 0.09572 0.56881 0.61498 0.0
H643 H 0.07359 0.51826 0.49908 0.0
H644 H 0.89148 0.47388 0.66329 0.0
H645 H 0.94015 0.43974 0.64006 0.0
H646 H 0.94722 0.49827 0.67698 0.0
H647 H 0.90559 0.44357 0.64104 0.0
C648 C 0.15787 0.048 0.22059 0.0
C649 C 0.16919 0.0322 0.21056 0.0
C650 C 0.14237 0.04665 0.25367 0.0
C651 C 0.12398 0.01688 0.35952 0.0
H652 H 0.0777 0.04467 0.33866 0.0
C653 C 0.05866 1.00338 0.48447 0.0
C654 C 0.04837 0.01898 0.50181 0.0
C655 C 0.07267 0.0055 0.44745 0.0
C656 C 0.09061 0.03697 0.3453 0.0
H657 H 0.17237 1.00235 0.22559 0.0
H658 H 0.1453 0.9999 0.28246 0.0
H659 H 0.10311 0.04705 0.27585 0.0
H660 H 0.04455 0.04907 0.49297 0.0
H661 H 0.06912 0.05282 0.42776 0.0
H662 H 0.11156 0.00677 0.42874 0.0
C663 C 0.14866 0.0135 0.26591 0.0
C664 C 0.1052 0.03832 0.30926 0.0
C665 C 0.16418 0.01487 0.23305 0.0
C666 C 0.05217 0.03676 0.48024 0.0
C667 C 0.06622 0.03888 0.44285 0.0
C668 C 0.10942 0.0155 0.39534 0.0
C669 C 0.13774 0.02944 0.27752 0.0
C670 C 0.12206 0.02819 0.3157 0.0
C671 C 0.07684 0.02329 0.42649 0.0
C672 C 0.09247 0.0254 0.38863 0.0
H673 H 0.16144 0.06162 0.20449 0.0
H674 H 0.13445 0.05927 0.26195 0.0
H675 H 0.13688 0.00924 0.36665 0.0
H676 H 0.05594 0.98943 0.49974 0.0
H677 H 0.08024 0.9931 0.43511 0.0
C678 C 0.5035 0.15967 0.21386 0.0
C679 C 0.48617 0.16815 0.20175 0.0
C680 C 0.5043 0.14412 0.24693 0.0
C681 C 0.47709 0.1201 0.34988 0.0
H682 H 0.5137 0.08048 0.32985 0.0
C683 C 0.48195 0.05513 0.48546 0.0
C684 C 0.50019 0.04929 0.49878 0.0
C685 C 0.47927 0.0687 0.44713 0.0
C686 C 0.50349 0.0915 0.33636 0.0
H687 H 0.45601 0.16652 0.2151 0.0
H688 H 0.45738 0.13925 0.27156 0.0
H689 H 0.51087 0.10553 0.2667 0.0
H690 H 0.52986 0.05276 0.48177 0.0
H691 H 0.52528 0.0763 0.41518 0.0
H692 H 0.46985 0.10614 0.41984 0.0
C693 C 0.47042 0.14477 0.25597 0.0
C694 C 0.50187 0.10592 0.30002 0.0
C695 C 0.46962 0.1603 0.22285 0.0
C696 C 0.51563 0.05701 0.47238 0.0
C697 C 0.51296 0.0704 0.43384 0.0
C698 C 0.47871 0.10567 0.38625 0.0
C699 C 0.4878 0.13656 0.26901 0.0
C700 C 0.4888 0.12058 0.30647 0.0
C701 C 0.49475 0.07653 0.4207 0.0
C702 C 0.49212 0.09128 0.38038 0.0
H703 H 0.51654 0.16515 0.19813 0.0
H704 H 0.51798 0.13837 0.25626 0.0
H705 H 0.46701 0.13122 0.35667 0.0
H706 H 0.4698 0.04952 0.5055 0.0
H707 H 0.46504 0.07298 0.43803 0.0
C708 C 0.36685 0.47712 0.18665 0.0
C709 C 0.3569 0.49347 0.17252 0.0
C710 C 0.38203 0.47808 0.22085 0.0
C711 C 0.39961 0.50687 0.32691 0.0
H712 H 0.44662 0.48006 0.30924 0.0
C713 C 0.46084 0.51803 0.46749 0.0
C714 C 0.4725 0.50278 0.48023 0.0
C715 C 0.44771 0.51661 0.42796 0.0
C716 C 0.43349 0.48743 0.31526 0.0
H717 H 0.35614 0.52385 0.18174 0.0
H718 H 0.38222 0.5254 0.24212 0.0
H719 H 0.42226 0.47815 0.24337 0.0
H720 H 0.47966 0.47408 0.46057 0.0
H721 H 0.45622 0.47129 0.39236 0.0
H722 H 0.4103 0.51571 0.39913 0.0
C723 C 0.3781 0.5118 0.22698 0.0
C724 C 0.41955 0.48639 0.27727 0.0
C725 C 0.36308 0.51088 0.19237 0.0
C726 C 0.4709 0.4861 0.45169 0.0
C727 C 0.45749 0.48456 0.41237 0.0
C728 C 0.41337 0.50771 0.36506 0.0
C729 C 0.38757 0.49538 0.24233 0.0
C730 C 0.40251 0.49626 0.28245 0.0
C731 C 0.44554 0.49976 0.40025 0.0
C732 C 0.43065 0.49819 0.35971 0.0
H733 H 0.36244 0.46339 0.17305 0.0
H734 H 0.38894 0.46515 0.23212 0.0
H735 H 0.38649 0.51431 0.33267 0.0
H736 H 0.46189 0.53124 0.488 0.0
H737 H 0.43929 0.52886 0.4191 0.0
C738 C 0.04308 0.36707 0.19927 0.0
C739 C 0.0269 0.35688 0.18408 0.0
C740 C 0.04172 0.38217 0.23351 0.0
C741 C 0.01225 0.39859 0.33866 0.0
H742 H 0.03792 0.44659 0.32226 0.0
C743 C 0.99946 0.45898 0.48052 0.0
C744 C 0.01429 0.47142 0.49257 0.0
C745 C 1.0013 0.44583 0.44125 0.0
C746 C 0.03087 0.43318 0.32798 0.0
H747 H 0.99642 0.35567 0.19118 0.0
H748 H 0.9942 0.38156 0.25181 0.0
H749 H 0.04058 0.42257 0.25593 0.0
H750 H 0.04273 0.47981 0.47229 0.0
H751 H 0.04628 0.45633 0.40486 0.0
H752 H 1.00305 0.40863 0.41111 0.0
C753 C 0.00796 0.37769 0.23743 0.0
C754 C 0.03233 0.41944 0.2897 0.0
C755 C 0.00927 0.36279 0.20271 0.0
C756 C 0.03102 0.47044 0.46398 0.0
C757 C 0.03299 0.45702 0.42501 0.0
C758 C 0.01102 0.41214 0.37718 0.0
C759 C 0.02419 0.38735 0.25397 0.0
C760 C 0.02288 0.40206 0.2944 0.0
C761 C 0.01816 0.44443 0.41319 0.0
C762 C 0.02013 0.42976 0.37233 0.0
H763 H 0.05696 0.36288 0.1866 0.0
H764 H 0.0545 0.38926 0.24571 0.0
H765 H 0.00511 0.38519 0.34396 0.0
H766 H 0.98623 0.45952 0.5011 0.0
H767 H 0.98932 0.43687 0.43268 0.0
C768 C 0.86747 0.97065 0.02465 0.0
C769 C 0.85277 0.98387 0.0267 0.0
C770 C 0.88236 0.97283 0.98993 0.0
C771 C 0.89329 0.99529 0.86627 0.0
H772 H 0.94529 0.98435 0.90014 0.0
C773 C 0.95359 0.012 0.7258 0.0
C774 C 0.96887 0.9995 0.72221 0.0
C775 C 0.93997 0.00987 0.76393 0.0
C776 C 0.93082 0.98722 0.88979 0.0
H777 H 0.84252 0.01 0.99427 0.0
H778 H 0.86853 0.0139 0.93419 0.0
H779 H 0.92092 0.98155 0.96567 0.0
H780 H 0.98166 0.97487 0.75652 0.0
H781 H 0.95766 0.97094 0.82271 0.0
H782 H 0.90297 1.00071 0.79044 0.0
C783 C 0.86846 1.00173 0.95918 0.0
C784 C 0.91683 0.98567 0.92748 0.0
C785 C 0.85365 0.99962 0.99412 0.0
C786 C 0.97013 0.98478 0.75805 0.0
C787 C 0.9564 0.9826 0.79627 0.0
C788 C 0.90721 0.99674 0.82862 0.0
C789 C 0.88287 0.98822 0.95605 0.0
C790 C 0.89789 0.98982 0.91627 0.0
C791 C 0.94108 0.9951 0.79964 0.0
C792 C 0.92621 0.99288 0.83983 0.0
H793 H 0.86734 0.95844 0.04949 0.0
H794 H 0.89315 0.96211 0.9885 0.0
H795 H 0.87881 0.9982 0.85591 0.0
H796 H 0.95213 0.02362 0.69931 0.0
H797 H 0.92866 0.02003 0.76573 0.0
C798 C 0.54024 0.87739 0.03689 0.0
C799 C 0.53051 0.86037 0.02764 0.0
C800 C 0.53955 0.89233 1.00176 0.0
C801 C 0.52937 0.90221 0.86486 0.0
H802 H 0.52768 0.9543 0.90871 0.0
C803 C 0.53484 0.96377 0.72007 0.0
C804 C 0.52207 0.97863 0.72647 0.0
C805 C 0.53712 0.95008 0.7582 0.0
C806 C 0.52809 0.93983 0.89575 0.0
H807 H 0.51223 0.84606 0.97362 0.0
H808 H 0.51063 0.87213 0.9135 0.0
H809 H 0.52818 0.92911 0.97226 0.0
H810 H 0.50248 0.99139 0.7794 0.0
H811 H 0.50641 0.9676 0.84581 0.0
H812 H 0.52883 0.91288 0.78841 0.0
C813 C 0.51906 0.87386 0.9476 0.0
C814 C 0.52856 0.92535 0.93228 0.0
C815 C 0.51973 0.85895 0.98268 0.0
C816 C 0.51234 0.98003 0.77301 0.0
C817 C 0.51465 0.9664 0.81124 0.0
C818 C 0.52895 0.91667 0.82839 0.0
C819 C 0.52915 0.89071 0.95621 0.0
C820 C 0.52905 0.90629 0.9174 0.0
C821 C 0.52681 0.95102 0.80403 0.0
C822 C 0.52817 0.9357 0.84324 0.0
H823 H 0.54856 0.87914 0.07118 0.0
H824 H 0.5476 0.905 0.00976 0.0
H825 H 0.53004 0.88777 0.85173 0.0
H826 H 0.5431 0.96271 0.68554 0.0
H827 H 0.54697 0.93874 0.75171 0.0
C828 C 0.65914 0.52175 0.99442 0.0
C829 C 0.66109 0.5385 0.02274 0.0
C830 C 0.64411 0.51931 0.96023 0.0
C831 C 0.61095 0.54661 0.88124 0.0
H832 H 0.58413 0.49915 0.86827 0.0
C833 C 0.54867 0.53742 0.73889 0.0
C834 C 0.54692 0.51996 0.71402 0.0
C835 C 0.56157 0.53982 0.77903 0.0
C836 C 0.59161 0.51245 0.87075 0.0
H837 H 0.64787 0.56537 0.03878 0.0
H838 H 0.62199 0.56121 0.97863 0.0
H839 H 0.6084 0.50269 0.9334 0.0
H840 H 0.55728 0.49128 0.7125 0.0
H841 H 0.58009 0.49559 0.78049 0.0
H842 H 0.59462 0.55627 0.81781 0.0
C843 C 0.63227 0.55007 0.98243 0.0
C844 C 0.60551 0.51448 0.90837 0.0
C845 C 0.64717 0.55245 0.01696 0.0
C846 C 0.5583 0.50497 0.73048 0.0
C847 C 0.57128 0.5074 0.77013 0.0
C848 C 0.59718 0.54453 0.84324 0.0
C849 C 0.63067 0.53359 0.95307 0.0
C850 C 0.61543 0.53156 0.91401 0.0
C851 C 0.57316 0.52485 0.79516 0.0
C852 C 0.58735 0.52737 0.83714 0.0
H853 H 0.66964 0.51078 0.99705 0.0
H854 H 0.64341 0.50648 0.93797 0.0
H855 H 0.61847 0.55989 0.88404 0.0
H856 H 0.54013 0.54927 0.72717 0.0
H857 H 0.56233 0.55341 0.79763 0.0
C858 C 0.00634 0.65694 0.00718 0.0
C859 C 0.9891 0.66454 0.02371 0.0
C860 C 0.00676 0.64173 0.9732 0.0
C861 C 0.97698 0.61712 0.87665 0.0
H862 H 0.01689 0.58008 0.88165 0.0
C863 C 0.97986 0.55275 0.73931 0.0
C864 C 0.99758 0.54885 0.7179 0.0
C865 C 0.97813 0.56595 0.77881 0.0
C866 C 0.0057 0.59038 0.87951 0.0
H867 H 0.95872 0.66153 0.01776 0.0
H868 H 0.95946 0.63467 0.96026 0.0
H869 H 0.01509 0.60422 0.94746 0.0
H870 H 0.02738 0.55565 0.72138 0.0
H871 H 0.02439 0.57857 0.79002 0.0
H872 H 0.9676 0.60315 0.80867 0.0
C873 C 0.97271 0.64073 0.97271 0.0
C874 C 0.00469 0.60429 0.91726 0.0
C875 C 0.97229 0.65602 0.00652 0.0
C876 C 0.01351 0.55835 0.737 0.0
C877 C 0.01182 0.57139 0.77667 0.0
C878 C 0.97793 0.60311 0.83909 0.0
C879 C 0.98995 0.63354 0.95487 0.0
C880 C 0.99044 0.61802 0.91613 0.0
C881 C 0.99412 0.57542 0.79807 0.0
C882 C 0.99243 0.58969 0.83967 0.0
H883 H 0.0196 0.66291 0.01995 0.0
H884 H 0.02034 0.63677 0.96018 0.0
H885 H 0.96597 0.62756 0.8738 0.0
H886 H 0.9673 0.54574 0.72519 0.0
H887 H 0.9643 0.56862 0.79459 0.0
C888 C 0.07429 0.19158 0.30281 0.0
C889 C 0.07477 0.2111 0.31165 0.0
C890 C 0.07185 0.17902 0.34331 0.0
C891 C 0.0471 0.17921 0.46399 0.0
H892 H 0.06147 0.12661 0.46617 0.0
C893 C 1.00287 0.12552 0.57532 0.0
C894 C 0.99785 0.10957 0.54654 0.0
C895 C 0.01778 0.13717 0.55988 0.0
C896 C 0.05738 0.14129 0.46625 0.0
H897 H 0.07535 0.23263 0.37014 0.0
H898 H 0.07114 0.21064 0.44104 0.0
H899 H 0.07944 0.149 0.41426 0.0
H900 H 0.0049 0.09315 0.4795 0.0
H901 H 0.0305 0.11352 0.4522 0.0
H902 H 0.0244 0.17146 0.51315 0.0
C903 C 0.07224 0.20509 0.40272 0.0
C904 C 0.0677 0.1541 0.43665 0.0
C905 C 0.07465 0.21767 0.36218 0.0
C906 C 0.00853 0.10515 0.50307 0.0
C907 C 0.02332 0.11683 0.48748 0.0
C908 C 0.03678 0.16643 0.49338 0.0
C909 C 0.06987 0.18572 0.39345 0.0
C910 C 0.06218 0.17306 0.4336 0.0
C911 C 0.02785 0.13322 0.51499 0.0
C912 C 0.04131 0.14718 0.49318 0.0
H913 H 0.07423 0.18608 0.26431 0.0
H914 H 0.06993 0.16421 0.3347 0.0
H915 H 0.04229 0.19365 0.46208 0.0
H916 H 0.99524 0.12908 0.60972 0.0
H917 H 0.02112 0.14951 0.58243 0.0
C918 C 0.34412 0.09569 0.23816 0.0
C919 C 0.32661 0.09392 0.26293 0.0
C920 C 0.36088 0.09508 0.26598 0.0
C921 C 0.39545 0.09456 0.33489 0.0
H922 H 0.39237 0.04793 0.41158 0.0
C923 C 0.45646 0.04251 0.3474 0.0
C924 C 0.45702 0.02912 0.38693 0.0
C925 C 0.44234 0.05613 0.34602 0.0
C926 C 0.39364 0.06128 0.3918 0.0
H927 H 0.31298 0.09248 0.3369 0.0
H928 H 0.34234 0.09103 0.3854 0.0
H929 H 0.36376 0.0633 0.3849 0.0
H930 H 0.44402 0.0207 0.4585 0.0
H931 H 0.42012 0.04498 0.45747 0.0
H932 H 0.42546 0.09213 0.34043 0.0
C933 C 0.34303 0.09267 0.34436 0.0
C934 C 0.3771 0.07012 0.37638 0.0
C935 C 0.32624 0.09341 0.31656 0.0
C936 C 0.44404 0.03068 0.42723 0.0
C937 C 0.43014 0.04452 0.42635 0.0
C938 C 0.41207 0.08582 0.35095 0.0
C939 C 0.3605 0.09259 0.31911 0.0
C940 C 0.37782 0.08639 0.34588 0.0
C941 C 0.42856 0.05688 0.38459 0.0
C942 C 0.41137 0.06858 0.3776 0.0
H943 H 0.34502 0.09594 0.19696 0.0
H944 H 0.3741 0.09489 0.24531 0.0
H945 H 0.3964 0.10722 0.31188 0.0
H946 H 0.46659 0.04213 0.31653 0.0
H947 H 0.44167 0.06533 0.31312 0.0
C948 C 0.44012 0.32844 0.33767 0.0
C949 C 0.44398 0.30908 0.33539 0.0
C950 C 0.44133 0.33808 0.38387 0.0
C951 C 0.46952 0.33523 0.4988 0.0
H952 H 0.44566 0.3833 0.52428 0.0
C953 C 0.51048 0.39313 0.60013 0.0
C954 C 0.51237 0.40851 0.56642 0.0
C955 C 0.49585 0.37999 0.59388 0.0
C956 C 0.45228 0.36975 0.51845 0.0
H957 H 0.45053 0.28431 0.38043 0.0
H958 H 0.45245 0.30115 0.4614 0.0
H959 H 0.43001 0.36017 0.46967 0.0
H960 H 0.49926 0.4226 0.50181 0.0
H961 H 0.47396 0.40028 0.49209 0.0
H962 H 0.49239 0.3453 0.54439 0.0
C963 C 0.44872 0.30892 0.42731 0.0
C964 C 0.44337 0.35655 0.48701 0.0
C965 C 0.44748 0.29925 0.38098 0.0
C966 C 0.49831 0.41125 0.5293 0.0
C967 C 0.48364 0.39833 0.52359 0.0
C968 C 0.47839 0.3484 0.53033 0.0
C969 C 0.44644 0.32858 0.42891 0.0
C970 C 0.45248 0.33965 0.47421 0.0
C971 C 0.4827 0.38212 0.55423 0.0
C972 C 0.47043 0.36627 0.53771 0.0
H973 H 0.43711 0.33632 0.30325 0.0
H974 H 0.43964 0.35324 0.3834 0.0
H975 H 0.477 0.3224 0.4898 0.0
H976 H 0.52073 0.39079 0.62999 0.0
H977 H 0.49537 0.3677 0.61841 0.0
C978 C 0.19217 0.442 0.28085 0.0
C979 C 0.21165 0.4409 0.28965 0.0
C980 C 0.17966 0.44369 0.32159 0.0
C981 C 0.18003 0.46448 0.44843 0.0
H982 H 0.12671 0.45268 0.43971 0.0
C983 C 0.12278 0.50528 0.56114 0.0
C984 C 0.10987 0.51348 0.52697 0.0
C985 C 0.13495 0.49104 0.54469 0.0
C986 C 0.14162 0.45584 0.44322 0.0
H987 H 0.23313 0.43858 0.34809 0.0
H988 H 0.2112 0.44139 0.4195 0.0
H989 H 0.14911 0.43509 0.38787 0.0
H990 H 0.09992 0.51321 0.44861 0.0
H991 H 0.12054 0.48818 0.42086 0.0
H992 H 0.17234 0.48584 0.50203 0.0
C993 C 0.20565 0.44139 0.38103 0.0
C994 C 0.15443 0.44585 0.41341 0.0
C995 C 0.21819 0.43975 0.34018 0.0
C996 C 0.10927 0.50694 0.47641 0.0
C997 C 0.12111 0.49256 0.4604 0.0
C998 C 0.16722 0.47434 0.47862 0.0
C999 C 0.18633 0.44425 0.3721 0.0
C1000 C 0.17366 0.45078 0.41356 0.0
C1001 C 0.13414 0.48455 0.49415 0.0
C1002 C 0.14782 0.47076 0.47419 0.0
H1003 H 0.18668 0.44311 0.24243 0.0
H1004 H 0.16493 0.44608 0.31306 0.0
H1005 H 0.1947 0.46876 0.44938 0.0
H1006 H 0.12344 0.50982 0.60051 0.0
H1007 H 0.14499 0.48511 0.57131 0.0
C1008 C 0.95032 0.80027 0.8574 0.0
C1009 C 0.95061 0.81011 0.90389 0.0
C1010 C 0.95174 0.81 0.8111 0.0
C1011 C 0.95502 0.85889 0.75578 0.0
H1012 H 0.99369 0.83617 0.67204 0.0
C1013 C 1.00205 0.90639 0.63611 0.0
C1014 C 0.0213 0.9024 0.6416 0.0
C1015 C 0.98844 0.89274 0.64772 0.0
C1016 C 0.98289 0.84278 0.69495 0.0
H1017 H 0.95051 0.83789 0.93802 0.0
H1018 H 0.95389 0.85474 0.85835 0.0
H1019 H 0.97729 0.81716 0.73487 0.0
H1020 H 0.04151 0.88075 0.66038 0.0
H1021 H 0.01805 0.85732 0.68338 0.0
H1022 H 0.96207 0.88496 0.72019 0.0
C1023 C 0.95233 0.83958 0.85685 0.0
C1024 C 0.97318 0.83174 0.73057 0.0
C1025 C 0.95069 0.82988 0.9029 0.0
C1026 C 0.02675 0.88416 0.65559 0.0
C1027 C 0.01318 0.87065 0.66843 0.0
C1028 C 0.96503 0.87002 0.72105 0.0
C1029 C 0.95367 0.82975 0.8104 0.0
C1030 C 0.95987 0.83992 0.76348 0.0
C1031 C 0.99382 0.875 0.66668 0.0
C1032 C 0.97985 0.86232 0.6922 0.0
H1033 H 0.95022 0.78501 0.85678 0.0
H1034 H 0.95229 0.80196 0.77608 0.0
H1035 H 0.94438 0.86554 0.77913 0.0
H1036 H 0.99751 0.92034 0.62495 0.0
H1037 H 0.97372 0.89648 0.64437 0.0
C1038 C 0.67166 0.93075 0.00986 0.0
C1039 C 0.68974 0.93362 0.98932 0.0
C1040 C 0.65593 0.92971 0.97805 0.0
C1041 C 0.64228 0.95124 0.85874 0.0
H1042 H 0.59353 0.92973 0.89313 0.0
C1043 C 0.57744 0.98894 0.79067 0.0
C1044 C 0.56472 0.99298 0.83039 0.0
C1045 C 0.5902 0.97416 0.79516 0.0
C1046 C 0.60704 0.9358 0.8828 0.0
H1047 H 0.70584 0.93552 0.91934 0.0
H1048 H 0.67832 0.93345 0.86339 0.0
H1049 H 0.62217 0.91611 0.92924 0.0
H1050 H 0.55378 0.98269 0.90261 0.0
H1051 H 0.57686 0.95781 0.91208 0.0
H1052 H 0.62745 0.9717 0.8155 0.0
C1053 C 0.67627 0.93235 0.90421 0.0
C1054 C 0.62346 0.92796 0.90336 0.0
C1055 C 0.69204 0.9334 0.93617 0.0
C1056 C 0.56385 0.98055 0.8722 0.0
C1057 C 0.57692 0.96597 0.87716 0.0
C1058 C 0.62596 0.95908 0.83844 0.0
C1059 C 0.65796 0.93151 0.92494 0.0
C1060 C 0.6412 0.93613 0.89331 0.0
C1061 C 0.59097 0.96332 0.83998 0.0
C1062 C 0.60806 0.952 0.8519 0.0
H1063 H 0.66955 0.93059 0.05078 0.0
H1064 H 0.64211 0.92913 0.99551 0.0
H1065 H 0.65562 0.95812 0.85062 0.0
H1066 H 0.57865 0.99798 0.75756 0.0
H1067 H 0.60039 0.97211 0.76493 0.0
C1068 C 0.57879 0.69161 0.93921 0.0
C1069 C 0.57504 0.7102 0.92361 0.0
C1070 C 0.57663 0.67665 0.90523 0.0
C1071 C 0.56433 0.66398 0.7706 0.0
H1072 H 0.53232 0.62733 0.83863 0.0
C1073 C 0.50421 0.62308 0.67209 0.0
C1074 C 0.49897 0.60526 0.69111 0.0
C1075 C 0.5191 0.63315 0.69412 0.0
C1076 C 0.54159 0.63708 0.81888 0.0
H1077 H 0.56856 0.72776 0.85816 0.0
H1078 H 0.56379 0.70163 0.79973 0.0
H1079 H 0.54968 0.64996 0.88874 0.0
H1080 H 0.50623 0.58364 0.74651 0.0
H1081 H 0.53249 0.60082 0.78318 0.0
H1082 H 0.55526 0.65145 0.70034 0.0
C1083 C 0.56854 0.69857 0.83808 0.0
C1084 C 0.55164 0.65012 0.84779 0.0
C1085 C 0.57099 0.71358 0.87189 0.0
C1086 C 0.50981 0.59725 0.73044 0.0
C1087 C 0.5248 0.60722 0.75201 0.0
C1088 C 0.5542 0.65086 0.7415 0.0
C1089 C 0.57036 0.67988 0.85514 0.0
C1090 C 0.56274 0.66408 0.82408 0.0
C1091 C 0.52916 0.62557 0.73547 0.0
C1092 C 0.54232 0.63758 0.76536 0.0
H1093 H 0.58198 0.68836 0.97861 0.0
H1094 H 0.57864 0.66244 0.91923 0.0
H1095 H 0.57294 0.67441 0.75119 0.0
H1096 H 0.49653 0.62949 0.64094 0.0
H1097 H 0.52204 0.64728 0.68047 0.0
C1098 C 0.81018 0.57987 0.8907 0.0
C1099 C 0.81582 0.58547 0.9397 0.0
C1100 C 0.82355 0.57776 0.85202 0.0
C1101 C 0.87243 0.56349 0.84798 0.0
H1102 H 0.86476 0.5637 0.70165 0.0
C1103 C 0.91947 0.51825 0.72479 0.0
C1104 C 0.90994 0.50689 0.68898 0.0
C1105 C 0.91082 0.53404 0.74567 0.0
C1106 C 0.86712 0.56356 0.74243 0.0
H1107 H 0.83921 0.59554 0.98529 0.0
H1108 H 0.86253 0.59238 0.9174 0.0
H1109 H 0.84373 0.58188 0.75657 0.0
H1110 H 0.88441 0.50462 0.64363 0.0
H1111 H 0.86878 0.53121 0.68311 0.0
H1112 H 0.89484 0.54435 0.8351 0.0
C1113 C 0.84793 0.58908 0.90911 0.0
C1114 C 0.85513 0.57403 0.77382 0.0
C1115 C 0.8346 0.59097 0.94789 0.0
C1116 C 0.89196 0.51254 0.6724 0.0
C1117 C 0.88312 0.52812 0.69429 0.0
C1118 C 0.88427 0.553 0.81687 0.0
C1119 C 0.84274 0.58134 0.86177 0.0
C1120 C 0.85735 0.57367 0.8271 0.0
C1121 C 0.89219 0.53863 0.73266 0.0
C1122 C 0.88148 0.55244 0.76381 0.0
H1123 H 0.79577 0.57547 0.88355 0.0
H1124 H 0.81906 0.5717 0.81612 0.0
H1125 H 0.87436 0.5625 0.88886 0.0
H1126 H 0.93326 0.51453 0.73906 0.0
H1127 H 0.91846 0.54211 0.77402 0.0
C1128 C 0.01571 0.19324 0.88099 0.0
C1129 C 0.03361 0.20188 0.8835 0.0
C1130 C 0.01266 0.17719 0.85089 0.0
C1131 C 0.03509 0.14674 0.75005 0.0
H1132 H 1.00016 0.10951 0.8034 0.0
C1133 C 0.02033 0.07621 0.64361 0.0
C1134 C 0.01599 0.06016 0.67289 0.0
C1135 C 0.02209 0.09397 0.66667 0.0
C1136 C 0.01021 0.11955 0.78809 0.0
H1137 H 0.06205 0.20069 0.85306 0.0
H1138 H 0.0571 0.17235 0.8035 0.0
H1139 H 0.00409 0.13918 0.84729 0.0
H1140 H 0.00981 0.05035 0.7493 0.0
H1141 H 0.0136 0.08081 0.78967 0.0
H1142 H 0.04206 0.12659 0.69262 0.0
C1143 C 0.0452 0.17809 0.82398 0.0
C1144 C 0.01219 0.13691 0.81291 0.0
C1145 C 0.04816 0.19431 0.85337 0.0
C1146 C 0.01342 0.06233 0.72565 0.0
C1147 C 0.01527 0.08 0.74872 0.0
C1148 C 0.03336 0.12922 0.72569 0.0
C1149 C 0.02748 0.16903 0.82285 0.0
C1150 C 0.02474 0.1508 0.79455 0.0
C1151 C 0.01945 0.09621 0.71962 0.0
C1152 C 0.02099 0.11524 0.74454 0.0
H1153 H 0.00411 0.19843 0.90368 0.0
H1154 H 0.99867 0.17105 0.85029 0.0
H1155 H 0.04465 0.15706 0.73384 0.0
H1156 H 0.0225 0.07506 0.60286 0.0
H1157 H 0.02541 0.10592 0.64272 0.0
C1158 C 0.3194 0.03643 0.84151 0.0
C1159 C 0.31822 0.02889 0.89105 0.0
C1160 C 0.33552 0.03366 0.81148 0.0
C1161 C 0.37986 1.00511 0.80326 0.0
H1162 H 0.39704 0.0466 0.71845 0.0
C1163 C 0.45599 0.0108 0.7248 0.0
C1164 C 0.45836 0.01654 0.67391 0.0
C1165 C 0.43819 0.01117 0.74779 0.0
C1166 C 0.39232 0.03479 0.74147 0.0
H1167 H 0.33318 0.01249 0.94769 0.0
H1168 H 0.36128 0.00797 0.89617 0.0
H1169 H 0.36738 0.04923 0.76482 0.0
H1170 H 0.44401 0.02733 0.60723 0.0
H1171 H 0.41282 0.02826 0.64767 0.0
H1172 H 0.40522 0.99099 0.78105 0.0
C1173 C 0.34961 0.01562 0.87964 0.0
C1174 C 0.37524 0.03625 0.76805 0.0
C1175 C 0.33343 0.01822 0.9094 0.0
C1176 C 0.44254 0.0227 0.64641 0.0
C1177 C 0.42474 0.02334 0.66967 0.0
C1178 C 0.39704 1.00375 0.77714 0.0
C1179 C 0.35102 0.02345 0.83035 0.0
C1180 C 0.36879 0.02149 0.79975 0.0
C1181 C 0.42235 0.01758 0.72069 0.0
C1182 C 0.40357 0.01863 0.74623 0.0
H1183 H 0.30787 0.04458 0.826 0.0
H1184 H 0.3358 0.03961 0.77345 0.0
H1185 H 0.37529 0.99325 0.82623 0.0
H1186 H 0.46793 0.00598 0.74691 0.0
H1187 H 0.4369 0.00682 0.78725 0.0
C1188 C 0.50082 0.33294 0.89348 0.0
C1189 C 0.48409 0.32216 0.8921 0.0
C1190 C 0.50334 0.34852 0.86105 0.0
C1191 C 0.47611 0.38328 0.78494 0.0
H1192 H 0.525 0.39582 0.72792 0.0
C1193 C 0.48675 0.4481 0.65161 0.0
C1194 C 0.50327 0.4588 0.65857 0.0
C1195 C 0.48444 0.4306 0.67601 0.0
C1196 C 0.51126 0.39267 0.74386 0.0
H1197 H 0.45726 0.31907 0.85319 0.0
H1198 H 0.46165 0.34614 0.79696 0.0
H1199 H 0.52108 0.36696 0.7774 0.0
H1200 H 0.53062 0.45917 0.69535 0.0
H1201 H 0.52659 0.42896 0.73821 0.0
H1202 H 0.46634 0.40911 0.75208 0.0
C1203 C 0.4727 0.34276 0.82387 0.0
C1204 C 0.50901 0.37605 0.77233 0.0
C1205 C 0.4702 0.32716 0.85621 0.0
C1206 C 0.51767 0.45133 0.68924 0.0
C1207 C 0.51538 0.43389 0.71368 0.0
C1208 C 0.47837 0.39993 0.75653 0.0
C1209 C 0.48921 0.35384 0.82622 0.0
C1210 C 0.49144 0.37116 0.79373 0.0
C1211 C 0.49867 0.4233 0.70787 0.0
C1212 C 0.49602 0.40499 0.7359 0.0
H1213 H 0.51175 0.32979 0.92099 0.0
H1214 H 0.51616 0.35678 0.86455 0.0
H1215 H 0.46242 0.3802 0.80132 0.0
H1216 H 0.47562 0.45322 0.62708 0.0
H1217 H 0.47154 0.42274 0.66957 0.0
C1218 C 0.19688 0.48515 0.83235 0.0
C1219 C 0.1976 0.49192 0.88269 0.0
C1220 C 0.18049 0.48711 0.8028 0.0
C1221 C 0.13423 0.51276 0.799 0.0
H1222 H 0.12093 0.47402 0.70128 0.0
C1223 C 0.06793 0.5204 0.67324 0.0
C1224 C 0.05715 0.50417 0.6625 0.0
C1225 C 0.0858 0.51904 0.69556 0.0
C1226 C 0.12426 0.4849 0.72874 0.0
H1227 H 0.18141 0.50574 0.94165 0.0
H1228 H 0.15282 0.50868 0.89125 0.0
H1229 H 0.14996 0.4713 0.75004 0.0
H1230 H 0.0576 0.47374 0.66342 0.0
H1231 H 0.0881 0.47123 0.70558 0.0
H1232 H 0.10813 0.52585 0.77989 0.0
C1233 C 0.16505 0.50242 0.87351 0.0
C1234 C 0.14118 0.4835 0.7563 0.0
C1235 C 0.1815 0.50069 0.9027 0.0
C1236 C 0.06512 0.48651 0.67293 0.0
C1237 C 0.08288 0.48511 0.69626 0.0
C1238 C 0.11724 0.51403 0.77199 0.0
C1239 C 0.16422 0.49567 0.82301 0.0
C1240 C 0.14642 0.49737 0.79215 0.0
C1241 C 0.09342 0.50139 0.70866 0.0
C1242 C 0.11191 0.50011 0.73646 0.0
H1243 H 0.20907 0.47842 0.81564 0.0
H1244 H 0.18067 0.48201 0.76394 0.0
H1245 H 0.13775 0.52397 0.82532 0.0
H1246 H 0.0625 0.5343 0.66494 0.0
H1247 H 0.09358 0.53192 0.70268 0.0
C1248 C 0.00867 0.82525 0.35171 0.0
C1249 C 0.9912 0.8175 0.33686 0.0
C1250 C 0.00956 0.84126 0.38288 0.0
C1251 C 0.98092 0.88256 0.4208 0.0
H1252 H 0.02065 0.89025 0.52025 0.0
C1253 C 0.98486 0.94951 0.54737 0.0
C1254 C 1.00267 0.95811 0.55192 0.0
C1255 C 0.9829 0.93169 0.52492 0.0
C1256 C 0.00954 0.88838 0.49234 0.0
H1257 H 0.96092 0.82049 0.34471 0.0
H1258 H 0.96247 0.84803 0.3999 0.0
H1259 H 0.01822 0.86019 0.4754 0.0
H1260 H 0.03258 0.95413 0.53865 0.0
H1261 H 0.02924 0.92301 0.50055 0.0
H1262 H 0.97234 0.91079 0.43744 0.0
C1263 C 0.97553 0.84189 0.38677 0.0
C1264 C 0.00814 0.87112 0.46656 0.0
C1265 C 0.97465 0.82588 0.3556 0.0
C1266 C 0.01859 0.94807 0.53537 0.0
C1267 C 0.01668 0.93015 0.51364 0.0
C1268 C 0.98229 0.89978 0.44663 0.0
C1269 C 0.99299 0.85003 0.40017 0.0
C1270 C 0.99392 0.86802 0.43 0.0
C1271 C 0.99879 0.92179 0.50756 0.0
C1272 C 0.99675 0.90302 0.48232 0.0
H1273 H 0.02173 0.81909 0.33859 0.0
H1274 H 0.02327 0.84713 0.39198 0.0
H1275 H 0.96995 0.88088 0.39242 0.0
H1276 H 0.97243 0.95648 0.56151 0.0
H1277 H 0.96894 0.92554 0.52187 0.0
C1278 C 0.70587 0.00686 0.39278 0.0
C1279 C 0.70868 0.99043 0.36381 0.0
C1280 C 0.68901 0.00947 0.41999 0.0
C1281 C 0.63916 0.99572 0.41647 0.0
H1282 H 0.63702 0.01042 0.55861 0.0
C1283 C 0.56884 0.99369 0.52519 0.0
C1284 C 0.5651 0.00756 0.56201 0.0
C1285 C 0.58677 0.99199 0.50365 0.0
C1286 C 0.6373 0.00659 0.51869 0.0
H1287 H 0.69585 0.96398 0.34061 0.0
H1288 H 0.66663 0.9686 0.38751 0.0
H1289 H 0.66761 0.00728 0.51631 0.0
H1290 H 0.57766 0.03032 0.60565 0.0
H1291 H 0.60881 0.02778 0.56684 0.0
H1292 H 0.60908 0.99543 0.41775 0.0
C1293 C 0.67747 0.97939 0.38956 0.0
C1294 C 0.65487 1.00474 0.49454 0.0
C1295 C 0.69433 0.97666 0.36311 0.0
C1296 C 0.57997 0.01948 0.5774 0.0
C1297 C 0.59792 0.01793 0.55526 0.0
C1298 C 0.62166 0.99781 0.44026 0.0
C1299 C 0.6745 0.99589 0.4179 0.0
C1300 C 0.65598 0.999 0.44336 0.0
C1301 C 0.60154 1.00429 0.51757 0.0
C1302 C 0.62041 1.00296 0.49199 0.0
H1303 H 0.71664 0.01773 0.39408 0.0
H1304 H 0.6871 0.02236 0.44137 0.0
H1305 H 0.63952 0.99162 0.37672 0.0
H1306 H 0.55786 0.9841 0.51264 0.0
H1307 H 0.58901 0.98093 0.47596 0.0
C1308 C 0.53435 0.68573 0.30917 0.0
C1309 C 0.53068 0.70366 0.32944 0.0
C1310 C 0.53099 0.66942 0.33793 0.0
C1311 C 0.52925 0.65044 0.46662 0.0
H1312 H 0.50026 0.60987 0.40578 0.0
C1313 C 0.51676 0.57864 0.57216 0.0
C1314 C 0.51562 0.56228 0.54202 0.0
C1315 C 0.51733 0.59663 0.54943 0.0
C1316 C 0.50869 0.62084 0.4233 0.0
H1317 H 0.52068 0.71856 0.39598 0.0
H1318 H 0.51531 0.68985 0.4473 0.0
H1319 H 0.50381 0.6396 0.36052 0.0
H1320 H 0.51389 0.55229 0.46423 0.0
H1321 H 0.51618 0.58298 0.4249 0.0
H1322 H 0.53495 0.63146 0.52835 0.0
C1323 C 0.52061 0.68852 0.40875 0.0
C1324 C 0.51055 0.63802 0.39734 0.0
C1325 C 0.52357 0.70492 0.37939 0.0
C1326 C 0.51513 0.56443 0.48878 0.0
C1327 C 0.51603 0.58226 0.46611 0.0
C1328 C 0.5277 0.63307 0.49231 0.0
C1329 C 0.52421 0.67058 0.38817 0.0
C1330 C 0.52103 0.65295 0.41831 0.0
C1331 C 0.51695 0.59874 0.49588 0.0
C1332 C 0.51764 0.61784 0.47066 0.0
H1333 H 0.53978 0.68432 0.27076 0.0
H1334 H 0.53401 0.65584 0.32107 0.0
H1335 H 0.53751 0.66167 0.48365 0.0
H1336 H 0.51733 0.57755 0.61329 0.0
H1337 H 0.51791 0.60885 0.57396 0.0
C1338 C 0.82465 0.55186 0.34861 0.0
C1339 C 0.81123 0.53719 0.34579 0.0
C1340 C 0.84131 0.54971 0.37655 0.0
C1341 C 0.86458 0.52158 0.47781 0.0
H1342 H 0.91044 0.53905 0.41209 0.0
C1343 C 0.93824 0.52364 0.57857 0.0
C1344 C 0.95368 0.51775 0.54911 0.0
C1345 C 0.92037 0.52584 0.55627 0.0
C1346 C 0.8978 0.53402 0.43099 0.0
H1347 H 0.80482 0.50885 0.37177 0.0
H1348 H 0.83401 0.50508 0.42059 0.0
H1349 H 0.88025 0.54306 0.36936 0.0
H1350 H 0.96222 0.50878 0.47373 0.0
H1351 H 0.93139 0.51295 0.43478 0.0
H1352 H 0.88232 0.51239 0.53937 0.0
C1353 C 0.83152 0.51831 0.40115 0.0
C1354 C 0.88042 0.53649 0.40666 0.0
C1355 C 0.81484 0.52042 0.37281 0.0
C1356 C 0.95077 0.5138 0.49723 0.0
C1357 C 0.93304 0.51614 0.47491 0.0
C1358 C 0.88201 0.51924 0.50246 0.0
C1359 C 0.84512 0.53284 0.40271 0.0
C1360 C 0.86356 0.53026 0.42956 0.0
C1361 C 0.9176 0.52231 0.50395 0.0
C1362 C 0.89887 0.52531 0.47912 0.0
H1363 H 0.82259 0.56488 0.32781 0.0
H1364 H 0.85133 0.56128 0.3773 0.0
H1365 H 0.85187 0.51673 0.49674 0.0
H1366 H 0.94004 0.52693 0.61858 0.0
H1367 H 0.90884 0.53079 0.57965 0.0
loop_
_geom_bond_atom_site_label_1
_geom_bond_atom_site_label_2
_geom_bond_distance
_geom_bond_site_symmetry_2
_ccdc_geom_bond_type
C0 C1 1.386 . S
C0 C2 1.397 . S
C0 H24 0.931 1_554 S
C1 C0 1.386 . S
C1 C5 1.397 . S
C2 C0 1.397 . S
C2 C3 1.384 . S
C2 H25 0.930 . S
C3 C2 1.384 . S
C3 C4 1.377 . S
C3 C6 1.481 . S
C4 C3 1.377 . S
C4 C5 1.389 . S
C4 H26 0.929 . S
C5 C1 1.397 . S
C5 C4 1.389 . S
C5 H27 0.931 . S
C6 C3 1.481 . S
C6 C7 1.387 . S
C6 C11 1.390 . S
C7 C6 1.387 . S
C7 C8 1.401 . S
C7 H28 0.930 . S
C8 C7 1.401 . S
C8 C9 1.376 . S
C8 C17 1.511 . S
C9 C8 1.376 . S
C9 C10 1.392 . S
C9 H30 0.931 . S
C10 C9 1.392 . S
C10 C11 1.361 . S
C10 C12 1.500 . S
C11 C6 1.390 . S
C11 C10 1.361 . S
C11 H29 0.931 . S
C12 C10 1.500 . S
C12 C13 1.371 . S
C12 C14 1.365 . S
C13 C12 1.371 . S
C13 C23 1.386 . S
C13 H31 0.931 . S
C14 C12 1.365 . S
C14 C15 1.409 . S
C14 H32 0.929 . S
C15 C14 1.409 . S
C15 C16 1.380 . S
C15 H33 0.930 . S
C16 C15 1.380 . S
C16 C23 1.357 . S
C17 C8 1.511 . S
C17 C18 1.341 . S
C17 C19 1.371 . S
C18 C17 1.341 . S
C18 C22 1.394 . S
C18 H34 0.930 . S
C19 C17 1.371 . S
C19 C20 1.392 . S
C19 H35 0.931 . S
C20 C19 1.392 . S
C20 C21 1.331 . S
C20 H38 0.932 . S
C21 C20 1.331 . S
C21 C22 1.336 . S
C22 C18 1.394 . S
C22 C21 1.336 . S
C22 H37 0.929 . S
C23 C13 1.386 . S
C23 C16 1.357 . S
C23 H36 0.928 . S
H24 C0 0.931 1_556 S
H25 C2 0.930 . S
H26 C4 0.929 . S
H27 C5 0.931 . S
H28 C7 0.930 . S
H29 C11 0.931 . S
H30 C9 0.931 . S
H31 C13 0.931 . S
H32 C14 0.929 . S
H33 C15 0.930 . S
H34 C18 0.930 . S
H35 C19 0.931 . S
H36 C23 0.928 . S
H37 C22 0.929 . S
H38 C20 0.932 . S
C39 C40 1.386 . S
C39 C41 1.397 . S
C39 H63 0.931 1_554 S
C40 C39 1.386 . S
C40 C44 1.397 . S
C41 C39 1.397 . S
C41 C42 1.384 . S
C41 H64 0.930 . S
C42 C41 1.384 . S
C42 C43 1.377 . S
C42 C45 1.481 . S
C43 C42 1.377 . S
C43 C44 1.389 . S
C43 H65 0.929 . S
C44 C40 1.397 . S
C44 C43 1.389 . S
C44 H66 0.931 . S
C45 C42 1.481 . S
C45 C46 1.387 . S
C45 C50 1.390 . S
C46 C45 1.387 . S
C46 C47 1.401 . S
C46 H67 0.930 . S
C47 C46 1.401 . S
C47 C48 1.376 . S
C47 C56 1.511 . S
C48 C47 1.376 . S
C48 C49 1.392 . S
C48 H69 0.931 . S
C49 C48 1.392 . S
C49 C50 1.361 . S
C49 C51 1.500 . S
C50 C45 1.390 . S
C50 C49 1.361 . S
C50 H68 0.931 . S
C51 C49 1.500 . S
C51 C52 1.371 . S
C51 C53 1.365 . S
C52 C51 1.371 . S
C52 C62 1.386 . S
C52 H70 0.931 . S
C53 C51 1.365 . S
C53 C54 1.409 . S
C53 H71 0.929 . S
C54 C53 1.409 . S
C54 C55 1.380 . S
C54 H72 0.930 . S
C55 C54 1.380 . S
C55 C62 1.357 . S
C56 C47 1.511 . S
C56 C57 1.341 . S
C56 C58 1.371 . S
C57 C56 1.341 . S
C57 C61 1.394 . S
C57 H73 0.930 . S
C58 C56 1.371 . S
C58 C59 1.392 . S
C58 H74 0.931 . S
C59 C58 1.392 . S
C59 C60 1.331 . S
C59 H77 0.932 . S
C60 C59 1.331 . S
C60 C61 1.336 . S
C61 C57 1.394 . S
C61 C60 1.336 . S
C61 H76 0.929 . S
C62 C52 1.386 . S
C62 C55 1.357 . S
C62 H75 0.928 . S
H63 C39 0.931 1_556 S
H64 C41 0.930 . S
H65 C43 0.929 . S
H66 C44 0.931 . S
H67 C46 0.930 . S
H68 C50 0.931 . S
H69 C48 0.931 . S
H70 C52 0.931 . S
H71 C53 0.929 . S
H72 C54 0.930 . S
H73 C57 0.930 . S
H74 C58 0.931 . S
H75 C62 0.928 . S
H76 C61 0.929 . S
H77 C59 0.932 . S
C78 C79 1.386 . S
C78 C80 1.397 . S
C78 H102 0.931 1_554 S
C79 C78 1.386 . S
C79 C83 1.397 . S
C80 C78 1.397 . S
C80 C81 1.384 . S
C80 H103 0.930 . S
C81 C80 1.384 . S
C81 C82 1.377 . S
C81 C84 1.481 . S
C82 C81 1.377 . S
C82 C83 1.389 . S
C82 H104 0.929 . S
C83 C79 1.397 . S
C83 C82 1.389 . S
C83 H105 0.931 . S
C84 C81 1.481 . S
C84 C85 1.387 . S
C84 C89 1.390 . S
C85 C84 1.387 . S
C85 C86 1.401 . S
C85 H106 0.930 . S
C86 C85 1.401 . S
C86 C87 1.376 . S
C86 C95 1.511 . S
C87 C86 1.376 . S
C87 C88 1.392 . S
C87 H108 0.931 . S
C88 C87 1.392 . S
C88 C89 1.361 . S
C88 C90 1.500 . S
C89 C84 1.390 . S
C89 C88 1.361 . S
C89 H107 0.931 . S
C90 C88 1.500 . S
C90 C91 1.371 . S
C90 C92 1.365 . S
C91 C90 1.371 . S
C91 C101 1.386 . S
C91 H109 0.931 . S
C92 C90 1.365 . S
C92 C93 1.409 . S
C92 H110 0.929 . S
C93 C92 1.409 . S
C93 C94 1.380 . S
C93 H111 0.930 . S
C94 C93 1.380 . S
C94 C101 1.357 . S
C95 C86 1.511 . S
C95 C96 1.341 . S
C95 C97 1.371 . S
C96 C95 1.341 . S
C96 C100 1.394 . S
C96 H112 0.930 . S
C97 C95 1.371 . S
C97 C98 1.392 . S
C97 H113 0.931 . S
C98 C97 1.392 . S
C98 C99 1.331 . S
C98 H116 0.932 . S
C99 C98 1.331 . S
C99 C100 1.336 . S
C100 C96 1.394 . S
C100 C99 1.336 . S
C100 H115 0.929 . S
C101 C91 1.386 . S
C101 C94 1.357 . S
C101 H114 0.928 . S
H102 C78 0.931 1_556 S
H103 C80 0.930 . S
H104 C82 0.929 . S
H105 C83 0.931 . S
H106 C85 0.930 . S
H107 C89 0.931 . S
H108 C87 0.931 . S
H109 C91 0.931 . S
H110 C92 0.929 . S
H111 C93 0.930 . S
H112 C96 0.930 . S
H113 C97 0.931 . S
H114 C101 0.928 . S
H115 C100 0.929 . S
H116 C98 0.932 . S
C117 C118 1.386 . S
C117 C119 1.397 . S
C117 H141 0.931 . S
C118 C117 1.386 . S
C118 C122 1.397 . S
C119 C117 1.397 . S
C119 C120 1.384 . S
C119 H142 0.930 . S
C120 C119 1.384 . S
C120 C121 1.377 . S
C120 C123 1.481 . S
C121 C120 1.377 . S
C121 C122 1.389 . S
C121 H143 0.929 . S
C122 C118 1.397 . S
C122 C121 1.389 . S
C122 H144 0.931 . S
C123 C120 1.481 . S
C123 C124 1.387 . S
C123 C128 1.390 . S
C124 C123 1.387 . S
C124 C125 1.401 . S
C124 H145 0.930 . S
C125 C124 1.401 . S
C125 C126 1.376 . S
C125 C134 1.511 . S
C126 C125 1.376 . S
C126 C127 1.392 . S
C126 H147 0.931 . S
C127 C126 1.392 . S
C127 C128 1.361 . S
C127 C129 1.500 . S
C128 C123 1.390 . S
C128 C127 1.361 . S
C128 H146 0.931 . S
C129 C127 1.500 . S
C129 C130 1.371 . S
C129 C131 1.365 . S
C130 C129 1.371 . S
C130 C140 1.386 . S
C130 H148 0.931 . S
C131 C129 1.365 . S
C131 C132 1.409 . S
C131 H149 0.929 . S
C132 C131 1.409 . S
C132 C133 1.380 . S
C132 H150 0.930 . S
C133 C132 1.380 . S
C133 C140 1.357 . S
C134 C125 1.511 . S
C134 C135 1.341 . S
C134 C136 1.371 . S
C135 C134 1.341 . S
C135 C139 1.394 . S
C135 H151 0.930 . S
C136 C134 1.371 . S
C136 C137 1.392 . S
C136 H152 0.931 . S
C137 C136 1.392 . S
C137 C138 1.331 . S
C137 H155 0.932 . S
C138 C137 1.331 . S
C138 C139 1.336 . S
C139 C135 1.394 . S
C139 C138 1.336 . S
C139 H154 0.929 . S
C140 C130 1.386 . S
C140 C133 1.357 . S
C140 H153 0.928 1_554 S
H141 C117 0.931 . S
H142 C119 0.930 . S
H143 C121 0.929 . S
H144 C122 0.931 . S
H145 C124 0.930 . S
H146 C128 0.931 . S
H147 C126 0.931 . S
H148 C130 0.931 . S
H149 C131 0.929 . S
H150 C132 0.930 . S
H151 C135 0.930 . S
H152 C136 0.931 . S
H153 C140 0.928 1_556 S
H154 C139 0.929 . S
H155 C137 0.932 . S
C156 C157 1.386 . S
C156 C158 1.397 . S
C156 H180 0.931 . S
C157 C156 1.386 . S
C157 C161 1.397 . S
C158 C156 1.397 . S
C158 C159 1.384 . S
C158 H181 0.930 . S
C159 C158 1.384 . S
C159 C160 1.377 . S
C159 C162 1.481 . S
C160 C159 1.377 . S
C160 C161 1.389 . S
C160 H182 0.929 . S
C161 C157 1.397 . S
C161 C160 1.389 . S
C161 H183 0.931 . S
C162 C159 1.481 . S
C162 C163 1.387 . S
C162 C167 1.390 . S
C163 C162 1.387 . S
C163 C164 1.401 . S
C163 H184 0.930 . S
C164 C163 1.401 . S
C164 C165 1.376 1_554 S
C164 C173 1.511 . S
C165 C164 1.376 1_556 S
C165 C166 1.392 . S
C165 H186 0.931 . S
C166 C165 1.392 . S
C166 C167 1.361 1_556 S
C166 C168 1.500 . S
C167 C162 1.390 . S
C167 C166 1.361 1_554 S
C167 H185 0.931 . S
C168 C166 1.500 . S
C168 C169 1.371 . S
C168 C170 1.365 . S
C169 C168 1.371 . S
C169 C179 1.386 . S
C169 H187 0.931 . S
C170 C168 1.365 . S
C170 C171 1.409 . S
C170 H188 0.929 . S
C171 C170 1.409 . S
C171 C172 1.380 . S
C171 H189 0.930 . S
C172 C171 1.380 . S
C172 C179 1.357 . S
C173 C164 1.511 . S
C173 C174 1.341 . S
C173 C175 1.371 . S
C174 C173 1.341 . S
C174 C178 1.394 . S
C174 H190 0.930 . S
C175 C173 1.371 . S
C175 C176 1.392 . S
C175 H191 0.931 1_554 S
C176 C175 1.392 . S
C176 C177 1.331 . S
C176 H194 0.932 . S
C177 C176 1.331 . S
C177 C178 1.336 . S
C178 C174 1.394 . S
C178 C177 1.336 . S
C178 H193 0.929 . S
C179 C169 1.386 . S
C179 C172 1.357 . S
C179 H192 0.928 . S
H180 C156 0.931 . S
H181 C158 0.930 . S
H182 C160 0.929 . S
H183 C161 0.931 . S
H184 C163 0.930 . S
H185 C167 0.931 . S
H186 C165 0.931 . S
H187 C169 0.931 . S
H188 C170 0.929 . S
H189 C171 0.930 . S
H190 C174 0.930 . S
H191 C175 0.931 1_556 S
H192 C179 0.928 . S
H193 C178 0.929 . S
H194 C176 0.932 . S
C195 C196 1.386 . S
C195 C197 1.397 . S
C195 H219 0.931 . S
C196 C195 1.386 . S
C196 C200 1.397 . S
C197 C195 1.397 . S
C197 C198 1.384 . S
C197 H220 0.930 . S
C198 C197 1.384 . S
C198 C199 1.377 . S
C198 C201 1.481 . S
C199 C198 1.377 . S
C199 C200 1.389 . S
C199 H221 0.929 . S
C200 C196 1.397 . S
C200 C199 1.389 . S
C200 H222 0.931 . S
C201 C198 1.481 . S
C201 C202 1.387 . S
C201 C206 1.390 . S
C202 C201 1.387 . S
C202 C203 1.401 . S
C202 H223 0.930 . S
C203 C202 1.401 . S
C203 C204 1.376 1_554 S
C203 C212 1.511 . S
C204 C203 1.376 1_556 S
C204 C205 1.392 . S
C204 H225 0.931 . S
C205 C204 1.392 . S
C205 C206 1.361 1_556 S
C205 C207 1.500 . S
C206 C201 1.390 . S
C206 C205 1.361 1_554 S
C206 H224 0.931 . S
C207 C205 1.500 . S
C207 C208 1.371 . S
C207 C209 1.365 . S
C208 C207 1.371 . S
C208 C218 1.386 . S
C208 H226 0.931 . S
C209 C207 1.365 . S
C209 C210 1.409 . S
C209 H227 0.929 . S
C210 C209 1.409 . S
C210 C211 1.380 . S
C210 H228 0.930 . S
C211 C210 1.380 . S
C211 C218 1.357 . S
C212 C203 1.511 . S
C212 C213 1.341 . S
C212 C214 1.371 . S
C213 C212 1.341 . S
C213 C217 1.394 . S
C213 H229 0.930 . S
C214 C212 1.371 . S
C214 C215 1.392 . S
C214 H230 0.931 1_554 S
C215 C214 1.392 . S
C215 C216 1.331 . S
C215 H233 0.932 . S
C216 C215 1.331 . S
C216 C217 1.336 . S
C217 C213 1.394 . S
C217 C216 1.336 . S
C217 H232 0.929 . S
C218 C208 1.386 . S
C218 C211 1.357 . S
C218 H231 0.928 . S
H219 C195 0.931 . S
H220 C197 0.930 . S
H221 C199 0.929 . S
H222 C200 0.931 . S
H223 C202 0.930 . S
H224 C206 0.931 . S
H225 C204 0.931 . S
H226 C208 0.931 . S
H227 C209 0.929 . S
H228 C210 0.930 . S
H229 C213 0.930 . S
H230 C214 0.931 1_556 S
H231 C218 0.928 . S
H232 C217 0.929 . S
H233 C215 0.932 . S
C234 C235 1.386 . S
C234 C236 1.397 . S
C234 H258 0.931 . S
C235 C234 1.386 . S
C235 C239 1.397 . S
C236 C234 1.397 . S
C236 C237 1.384 . S
C236 H259 0.930 . S
C237 C236 1.384 . S
C237 C238 1.377 . S
C237 C240 1.481 . S
C238 C237 1.377 . S
C238 C239 1.389 . S
C238 H260 0.929 . S
C239 C235 1.397 . S
C239 C238 1.389 . S
C239 H261 0.931 . S
C240 C237 1.481 . S
C240 C241 1.387 . S
C240 C245 1.390 . S
C241 C240 1.387 . S
C241 C242 1.401 . S
C241 H262 0.930 . S
C242 C241 1.401 . S
C242 C243 1.376 1_554 S
C242 C251 1.511 . S
C243 C242 1.376 1_556 S
C243 C244 1.392 . S
C243 H264 0.931 . S
C244 C243 1.392 . S
C244 C245 1.361 1_556 S
C244 C246 1.500 . S
C245 C240 1.390 . S
C245 C244 1.361 1_554 S
C245 H263 0.931 . S
C246 C244 1.500 . S
C246 C247 1.371 . S
C246 C248 1.365 . S
C247 C246 1.371 . S
C247 C257 1.386 . S
C247 H265 0.931 . S
C248 C246 1.365 . S
C248 C249 1.409 . S
C248 H266 0.929 . S
C249 C248 1.409 . S
C249 C250 1.380 . S
C249 H267 0.930 . S
C250 C249 1.380 . S
C250 C257 1.357 . S
C251 C242 1.511 . S
C251 C252 1.341 . S
C251 C253 1.371 . S
C252 C251 1.341 . S
C252 C256 1.394 . S
C252 H268 0.930 . S
C253 C251 1.371 . S
C253 C254 1.392 . S
C253 H269 0.931 1_554 S
C254 C253 1.392 . S
C254 C255 1.331 . S
C254 H272 0.932 . S
C255 C254 1.331 . S
C255 C256 1.336 . S
C256 C252 1.394 . S
C256 C255 1.336 . S
C256 H271 0.929 . S
C257 C247 1.386 . S
C257 C250 1.357 . S
C257 H270 0.928 . S
H258 C234 0.931 . S
H259 C236 0.930 . S
H260 C238 0.929 . S
H261 C239 0.931 . S
H262 C241 0.930 . S
H263 C245 0.931 . S
H264 C243 0.931 . S
H265 C247 0.931 . S
H266 C248 0.929 . S
H267 C249 0.930 . S
H268 C252 0.930 . S
H269 C253 0.931 1_556 S
H270 C257 0.928 . S
H271 C256 0.929 . S
H272 C254 0.932 . S
C273 C274 1.386 . S
C273 C275 1.397 . S
C273 H297 0.931 . S
C274 C273 1.386 . S
C274 C278 1.397 . S
C275 C273 1.397 . S
C275 C276 1.384 . S
C275 H298 0.930 . S
C276 C275 1.384 . S
C276 C277 1.377 . S
C276 C279 1.481 . S
C277 C276 1.377 . S
C277 C278 1.389 . S
C277 H299 0.929 . S
C278 C274 1.397 . S
C278 C277 1.389 . S
C278 H300 0.931 . S
C279 C276 1.481 . S
C279 C280 1.387 . S
C279 C284 1.390 1_556 S
C280 C279 1.387 . S
C280 C281 1.401 1_556 S
C280 H301 0.930 . S
C281 C280 1.401 1_554 S
C281 C282 1.376 . S
C281 C290 1.511 . S
C282 C281 1.376 . S
C282 C283 1.392 . S
C282 H303 0.931 . S
C283 C282 1.392 . S
C283 C284 1.361 . S
C283 C285 1.500 . S
C284 C279 1.390 1_554 S
C284 C283 1.361 . S
C284 H302 0.931 . S
C285 C283 1.500 . S
C285 C286 1.371 . S
C285 C287 1.365 . S
C286 C285 1.371 . S
C286 C296 1.386 . S
C286 H304 0.931 . S
C287 C285 1.365 . S
C287 C288 1.409 . S
C287 H305 0.929 . S
C288 C287 1.409 . S
C288 C289 1.380 . S
C288 H306 0.930 . S
C289 C288 1.380 . S
C289 C296 1.357 . S
C290 C281 1.511 . S
C290 C291 1.341 . S
C290 C292 1.371 . S
C291 C290 1.341 . S
C291 C295 1.394 . S
C291 H307 0.930 1_554 S
C292 C290 1.371 . S
C292 C293 1.392 . S
C292 H308 0.931 . S
C293 C292 1.392 . S
C293 C294 1.331 . S
C293 H311 0.932 . S
C294 C293 1.331 . S
C294 C295 1.336 . S
C295 C291 1.394 . S
C295 C294 1.336 . S
C295 H310 0.929 . S
C296 C286 1.386 . S
C296 C289 1.357 . S
C296 H309 0.928 . S
H297 C273 0.931 . S
H298 C275 0.930 . S
H299 C277 0.929 . S
H300 C278 0.931 . S
H301 C280 0.930 . S
H302 C284 0.931 . S
H303 C282 0.931 . S
H304 C286 0.931 . S
H305 C287 0.929 . S
H306 C288 0.930 . S
H307 C291 0.930 1_556 S
H308 C292 0.931 . S
H309 C296 0.928 . S
H310 C295 0.929 . S
H311 C293 0.932 . S
Eu312 N341 2.600 . S
Eu312 N347 2.562 . S
Eu312 O356 2.457 1_655 S
Eu312 O357 2.373 1_545 S
Eu312 O359 2.432 . S
Eu312 O360 2.291 1_655 S
Eu312 O364 2.335 1_655 S
Eu312 O367 2.372 . S
Eu312 C376 2.787 . S
C313 N314 1.341 1_545 S
C313 C316 1.405 . S
C313 C320 1.448 . S
N314 C313 1.341 1_565 S
N314 C317 1.328 . S
N314 Eu323 2.613 . S
C315 C317 1.397 1_545 S
C315 C318 1.367 . S
C315 H335 0.931 . S
C316 C313 1.405 . S
C316 C318 1.403 . S
C316 C322 1.439 . S
C317 N314 1.328 . S
C317 C315 1.397 1_565 S
C317 H328 0.930 . S
C318 C315 1.367 . S
C318 C316 1.403 . S
C318 H339 0.929 . S
C319 C320 1.430 . S
C319 C321 1.387 . S
C319 C325 1.404 . S
C320 C313 1.448 . S
C320 C319 1.430 . S
C320 N324 1.351 . S
C321 C319 1.387 . S
C321 C322 1.374 . S
C321 H336 0.931 . S
C322 C316 1.439 . S
C322 C321 1.374 . S
C322 H337 0.931 . S
Eu323 N314 2.613 . S
Eu323 N324 2.562 1_565 S
Eu323 O358 2.335 . S
Eu323 O361 2.372 . S
Eu323 O362 2.462 . S
Eu323 O363 2.373 1_565 S
Eu323 O365 2.432 . S
Eu323 O366 2.275 1_465 S
Eu323 C387 2.787 . S
N324 C320 1.351 . S
N324 Eu323 2.562 1_545 S
N324 C326 1.325 . S
C325 C319 1.404 . S
C325 C327 1.366 . S
C325 H333 0.930 . S
C326 N324 1.325 . S
C326 C327 1.416 . S
C326 H332 0.928 1_445 S
C327 C325 1.366 . S
C327 C326 1.416 . S
C327 H329 0.932 1_455 S
H328 C317 0.930 . S
H329 C327 0.932 1_655 S
H330 C345 0.930 . S
H331 C352 0.899 1_455 S
H332 C326 0.928 1_665 S
H333 C325 0.930 . S
H334 C348 0.923 1_455 S
H335 C315 0.931 . S
H336 C321 0.931 . S
H337 C322 0.931 . S
H338 C343 0.931 . S
H339 C318 0.929 . S
H340 C351 0.930 . S
N341 Eu312 2.600 . S
N341 C342 1.365 . S
N341 C345 1.319 . S
C342 N341 1.365 . S
C342 C344 1.405 1_545 S
C342 C350 1.448 . S
C343 H338 0.931 . S
C343 C345 1.397 . S
C343 C346 1.367 . S
C344 C342 1.405 1_565 S
C344 C346 1.403 1_565 S
C344 C377 1.439 . S
C345 H330 0.930 . S
C345 N341 1.319 . S
C345 C343 1.397 . S
C346 C343 1.367 . S
C346 C344 1.403 1_545 S
C346 H353 0.929 1_545 S
N347 Eu312 2.562 . S
N347 C348 1.331 . S
N347 C350 1.351 . S
C348 H334 0.923 1_655 S
C348 N347 1.331 . S
C348 C352 1.406 1_545 S
C349 C350 1.430 1_565 S
C349 C351 1.404 . S
C349 C378 1.387 . S
C350 C342 1.448 . S
C350 N347 1.351 . S
C350 C349 1.430 1_545 S
C351 H340 0.930 . S
C351 C349 1.404 . S
C351 C352 1.409 . S
C352 H331 0.899 1_655 S
C352 C348 1.406 1_565 S
C352 C351 1.409 . S
H353 C346 0.929 1_565 S
H354 C377 0.931 . S
H355 C378 0.931 . S
O356 Eu312 2.457 1_455 S
O356 C376 1.242 1_455 S
O357 Eu312 2.373 1_565 S
O357 C368 1.249 . S
O358 Eu323 2.335 . S
O358 C368 1.264 1_455 S
O359 Eu312 2.432 . S
O359 C376 1.268 . S
O360 Eu312 2.291 1_455 S
O360 C375 1.255 . S
O361 Eu323 2.372 . S
O361 C375 1.257 1_565 S
O362 Eu323 2.462 . S
O362 C387 1.252 . S
O363 Eu323 2.373 1_545 S
O363 C379 1.249 . S
O364 Eu312 2.335 1_455 S
O364 C379 1.264 . S
O365 Eu323 2.432 . S
O365 C387 1.268 . S
O366 Eu323 2.275 1_645 S
O366 C386 1.270 . S
O367 Eu312 2.372 . S
O367 C386 1.257 . S
C368 O357 1.249 . S
C368 O358 1.264 1_655 S
C369 C372 1.382 . S
C369 C374 1.431 . S
C369 C376 1.506 . S
C370 C371 1.398 . S
C370 C374 1.399 . S
C371 C370 1.398 . S
C371 C373 1.372 . S
C371 H388 0.931 . S
C372 C369 1.382 . S
C372 C373 1.390 . S
C372 H389 0.931 . S
C373 C371 1.372 . S
C373 C372 1.390 . S
C373 H390 0.929 . S
C374 C369 1.431 . S
C374 C370 1.399 . S
C374 H391 0.884 1_655 S
C375 O360 1.255 . S
C375 O361 1.257 1_545 S
C376 Eu312 2.787 . S
C376 O356 1.242 1_655 S
C376 O359 1.268 . S
C376 C369 1.506 . S
C377 C344 1.439 . S
C377 H354 0.931 . S
C377 C378 1.374 . S
C378 C349 1.387 . S
C378 H355 0.931 . S
C378 C377 1.374 . S
C379 O363 1.249 . S
C379 O364 1.264 . S
C380 C383 1.382 . S
C380 C384 1.390 . S
C380 C387 1.506 . S
C381 C382 1.398 . S
C381 C384 1.392 . S
C382 C381 1.398 . S
C382 C385 1.372 . S
C382 H392 0.931 . S
C383 C380 1.382 . S
C383 C385 1.390 . S
C383 H393 0.931 . S
C384 C380 1.390 . S
C384 C381 1.392 . S
C384 H394 0.913 1_455 S
C385 C382 1.372 . S
C385 C383 1.390 . S
C385 H395 0.929 . S
C386 O366 1.270 . S
C386 O367 1.257 . S
C387 Eu323 2.787 . S
C387 O362 1.252 . S
C387 O365 1.268 . S
C387 C380 1.506 . S
H388 C371 0.931 . S
H389 C372 0.931 . S
H390 C373 0.929 . S
H391 C374 0.884 1_455 S
H392 C382 0.931 . S
H393 C383 0.931 . S
H394 C384 0.913 1_655 S
H395 C385 0.929 . S
Eu396 N425 2.600 . S
Eu396 N431 2.562 . S
Eu396 O440 2.462 . S
Eu396 O441 2.373 . S
Eu396 O443 2.432 . S
Eu396 O444 2.291 . S
Eu396 O448 2.335 1_545 S
Eu396 O451 2.372 . S
Eu396 C460 2.787 . S
C397 N398 1.365 . S
C397 C400 1.405 . S
C397 C404 1.448 . S
N398 C397 1.365 . S
N398 C401 1.319 . S
N398 Eu407 2.600 . S
C399 C401 1.397 . S
C399 C402 1.367 . S
C399 H419 0.931 . S
C400 C397 1.405 . S
C400 C402 1.403 . S
C400 C406 1.439 . S
C401 N398 1.319 . S
C401 C399 1.397 . S
C401 H412 0.930 . S
C402 C399 1.367 . S
C402 C400 1.403 . S
C402 H423 0.929 . S
C403 C404 1.430 . S
C403 C405 1.387 . S
C403 C409 1.404 . S
C404 C397 1.448 . S
C404 C403 1.430 . S
C404 N408 1.351 . S
C405 C403 1.387 . S
C405 C406 1.374 . S
C405 H420 0.931 . S
C406 C400 1.439 . S
C406 C405 1.374 . S
C406 H421 0.931 . S
Eu407 N398 2.600 . S
Eu407 N408 2.562 . S
Eu407 O442 2.335 1_565 S
Eu407 O445 2.372 . S
Eu407 O446 2.462 . S
Eu407 O447 2.373 . S
Eu407 O449 2.432 . S
Eu407 O450 2.291 1_565 S
Eu407 C471 2.787 . S
N408 C404 1.351 . S
N408 Eu407 2.562 . S
N408 C410 1.325 . S
C409 C403 1.404 . S
C409 C411 1.366 . S
C409 H417 0.930 . S
C410 N408 1.325 . S
C410 C411 1.416 . S
C410 H416 0.929 . S
C411 C409 1.366 . S
C411 C410 1.416 . S
C411 H413 0.930 . S
H412 C401 0.930 . S
H413 C411 0.930 . S
H414 C429 0.930 . S
H415 C436 0.930 . S
H416 C410 0.929 . S
H417 C409 0.930 . S
H418 C432 0.929 . S
H419 C399 0.931 . S
H420 C405 0.931 . S
H421 C406 0.931 . S
H422 C427 0.931 . S
H423 C402 0.929 . S
H424 C435 0.930 . S
N425 Eu396 2.600 . S
N425 C426 1.365 . S
N425 C429 1.319 . S
C426 N425 1.365 . S
C426 C428 1.405 . S
C426 C434 1.448 . S
C427 H422 0.931 . S
C427 C429 1.397 . S
C427 C430 1.367 . S
C428 C426 1.405 . S
C428 C430 1.403 . S
C428 C461 1.439 . S
C429 H414 0.930 . S
C429 N425 1.319 . S
C429 C427 1.397 . S
C430 C427 1.367 . S
C430 C428 1.403 . S
C430 H437 0.929 . S
N431 Eu396 2.562 . S
N431 C432 1.325 . S
N431 C434 1.351 . S
C432 H418 0.929 . S
C432 N431 1.325 . S
C432 C436 1.416 . S
C433 C434 1.430 . S
C433 C435 1.404 . S
C433 C462 1.387 . S
C434 C426 1.448 . S
C434 N431 1.351 . S
C434 C433 1.430 . S
C435 H424 0.930 . S
C435 C433 1.404 . S
C435 C436 1.366 . S
C436 H415 0.930 . S
C436 C432 1.416 . S
C436 C435 1.366 . S
H437 C430 0.929 . S
H438 C461 0.931 . S
H439 C462 0.931 . S
O440 Eu396 2.462 . S
O440 C460 1.252 . S
O441 Eu396 2.373 . S
O441 C452 1.249 . S
O442 Eu407 2.335 1_545 S
O442 C452 1.264 . S
O443 Eu396 2.432 . S
O443 C460 1.268 . S
O444 Eu396 2.291 . S
O444 C459 1.255 1_545 S
O445 Eu407 2.372 . S
O445 C459 1.257 . S
O446 Eu407 2.462 . S
O446 C471 1.252 . S
O447 Eu407 2.373 . S
O447 C463 1.249 . S
O448 Eu396 2.335 1_565 S
O448 C463 1.264 . S
O449 Eu407 2.432 . S
O449 C471 1.268 . S
O450 Eu407 2.291 1_545 S
O450 C470 1.255 . S
O451 Eu396 2.372 . S
O451 C470 1.257 . S
C452 O441 1.249 . S
C452 O442 1.264 . S
C453 C456 1.382 . S
C453 C458 1.390 . S
C453 C460 1.506 . S
C454 C455 1.398 . S
C454 C458 1.392 . S
C455 C454 1.398 . S
C455 C457 1.372 . S
C455 H472 0.931 . S
C456 C453 1.382 . S
C456 C457 1.390 . S
C456 H473 0.931 . S
C457 C455 1.372 . S
C457 C456 1.390 . S
C457 H474 0.929 . S
C458 C453 1.390 . S
C458 C454 1.392 . S
C458 H475 0.930 . S
C459 O444 1.255 1_565 S
C459 O445 1.257 . S
C460 Eu396 2.787 . S
C460 O440 1.252 . S
C460 O443 1.268 . S
C460 C453 1.506 . S
C461 C428 1.439 . S
C461 H438 0.931 . S
C461 C462 1.374 . S
C462 C433 1.387 . S
C462 H439 0.931 . S
C462 C461 1.374 . S
C463 O447 1.249 . S
C463 O448 1.264 . S
C464 C467 1.382 . S
C464 C468 1.390 1_565 S
C464 C471 1.506 . S
C465 C466 1.398 1_545 S
C465 C468 1.392 . S
C466 C465 1.398 1_565 S
C466 C469 1.372 . S
C466 H476 0.931 . S
C467 C464 1.382 . S
C467 C469 1.390 . S
C467 H477 0.931 . S
C468 C464 1.390 1_545 S
C468 C465 1.392 . S
C468 H478 0.930 . S
C469 C466 1.372 . S
C469 C467 1.390 . S
C469 H479 0.929 . S
C470 O450 1.255 . S
C470 O451 1.257 . S
C471 Eu407 2.787 . S
C471 O446 1.252 . S
C471 O449 1.268 . S
C471 C464 1.506 . S
H472 C455 0.931 . S
H473 C456 0.931 . S
H474 C457 0.929 . S
H475 C458 0.930 . S
H476 C466 0.931 . S
H477 C467 0.931 . S
H478 C468 0.930 . S
H479 C469 0.929 . S
Eu480 N509 2.600 . S
Eu480 N515 2.562 . S
Eu480 O524 2.462 . S
Eu480 O525 2.373 . S
Eu480 O527 2.432 . S
Eu480 O528 2.291 . S
Eu480 O532 2.335 . S
Eu480 O535 2.372 . S
Eu480 C544 2.787 . S
C481 N482 1.365 . S
C481 C484 1.405 . S
C481 C488 1.448 . S
N482 C481 1.365 . S
N482 C485 1.319 . S
N482 Eu491 2.600 . S
C483 C485 1.397 . S
C483 C486 1.367 . S
C483 H503 0.931 . S
C484 C481 1.405 . S
C484 C486 1.403 . S
C484 C490 1.439 . S
C485 N482 1.319 . S
C485 C483 1.397 . S
C485 H496 0.930 . S
C486 C483 1.367 . S
C486 C484 1.403 . S
C486 H507 0.929 . S
C487 C488 1.430 . S
C487 C489 1.387 . S
C487 C493 1.404 . S
C488 C481 1.448 . S
C488 C487 1.430 . S
C488 N492 1.351 . S
C489 C487 1.387 . S
C489 C490 1.374 . S
C489 H504 0.931 . S
C490 C484 1.439 . S
C490 C489 1.374 . S
C490 H505 0.931 . S
Eu491 N482 2.600 . S
Eu491 N492 2.562 . S
Eu491 O526 2.335 . S
Eu491 O529 2.372 . S
Eu491 O530 2.462 . S
Eu491 O531 2.373 . S
Eu491 O533 2.432 . S
Eu491 O534 2.291 . S
Eu491 C555 2.787 . S
N492 C488 1.351 . S
N492 Eu491 2.562 . S
N492 C494 1.325 . S
C493 C487 1.404 . S
C493 C495 1.366 . S
C493 H501 0.930 . S
C494 N492 1.325 . S
C494 C495 1.416 . S
C494 H500 0.929 . S
C495 C493 1.366 . S
C495 C494 1.416 . S
C495 H497 0.930 . S
H496 C485 0.930 . S
H497 C495 0.930 . S
H498 C513 0.930 . S
H499 C520 0.930 . S
H500 C494 0.929 . S
H501 C493 0.930 . S
H502 C516 0.929 . S
H503 C483 0.931 . S
H504 C489 0.931 . S
H505 C490 0.931 . S
H506 C511 0.931 . S
H507 C486 0.929 . S
H508 C519 0.930 . S
N509 Eu480 2.600 . S
N509 C510 1.365 . S
N509 C513 1.319 . S
C510 N509 1.365 . S
C510 C512 1.405 . S
C510 C518 1.448 . S
C511 H506 0.931 . S
C511 C513 1.397 . S
C511 C514 1.367 . S
C512 C510 1.405 . S
C512 C514 1.403 . S
C512 C545 1.439 . S
C513 H498 0.930 . S
C513 N509 1.319 . S
C513 C511 1.397 . S
C514 C511 1.367 . S
C514 C512 1.403 . S
C514 H521 0.929 . S
N515 Eu480 2.562 . S
N515 C516 1.325 . S
N515 C518 1.351 . S
C516 H502 0.929 . S
C516 N515 1.325 . S
C516 C520 1.416 . S
C517 C518 1.430 . S
C517 C519 1.404 . S
C517 C546 1.387 . S
C518 C510 1.448 . S
C518 N515 1.351 . S
C518 C517 1.430 . S
C519 H508 0.930 . S
C519 C517 1.404 . S
C519 C520 1.366 . S
C520 H499 0.930 . S
C520 C516 1.416 . S
C520 C519 1.366 . S
H521 C514 0.929 . S
H522 C545 0.931 . S
H523 C546 0.931 . S
O524 Eu480 2.462 . S
O524 C544 1.252 . S
O525 Eu480 2.373 . S
O525 C536 1.249 . S
O526 Eu491 2.335 . S
O526 C536 1.264 . S
O527 Eu480 2.432 . S
O527 C544 1.268 . S
O528 Eu480 2.291 . S
O528 C543 1.255 . S
O529 Eu491 2.372 . S
O529 C543 1.257 . S
O530 Eu491 2.462 . S
O530 C555 1.252 . S
O531 Eu491 2.373 . S
O531 C547 1.249 . S
O532 Eu480 2.335 . S
O532 C547 1.264 . S
O533 Eu491 2.432 . S
O533 C555 1.268 . S
O534 Eu491 2.291 . S
O534 C554 1.255 . S
O535 Eu480 2.372 . S
O535 C554 1.257 . S
C536 O525 1.249 . S
C536 O526 1.264 . S
C537 C540 1.382 . S
C537 C542 1.390 . S
C537 C544 1.506 . S
C538 C539 1.398 . S
C538 C542 1.392 . S
C539 C538 1.398 . S
C539 C541 1.372 . S
C539 H556 0.931 . S
C540 C537 1.382 . S
C540 C541 1.390 . S
C540 H557 0.931 . S
C541 C539 1.372 . S
C541 C540 1.390 . S
C541 H558 0.929 . S
C542 C537 1.390 . S
C542 C538 1.392 . S
C542 H559 0.930 . S
C543 O528 1.255 . S
C543 O529 1.257 . S
C544 Eu480 2.787 . S
C544 O524 1.252 . S
C544 O527 1.268 . S
C544 C537 1.506 . S
C545 C512 1.439 . S
C545 H522 0.931 . S
C545 C546 1.374 . S
C546 C517 1.387 . S
C546 H523 0.931 . S
C546 C545 1.374 . S
C547 O531 1.249 . S
C547 O532 1.264 . S
C548 C551 1.382 . S
C548 C552 1.390 . S
C548 C555 1.506 . S
C549 C550 1.398 . S
C549 C552 1.392 . S
C550 C549 1.398 . S
C550 C553 1.372 . S
C550 H560 0.931 . S
C551 C548 1.382 . S
C551 C553 1.390 . S
C551 H561 0.931 . S
C552 C548 1.390 . S
C552 C549 1.392 . S
C552 H562 0.930 . S
C553 C550 1.372 . S
C553 C551 1.390 . S
C553 H563 0.929 . S
C554 O534 1.255 . S
C554 O535 1.257 . S
C555 Eu491 2.787 . S
C555 O530 1.252 . S
C555 O533 1.268 . S
C555 C548 1.506 . S
H556 C539 0.931 . S
H557 C540 0.931 . S
H558 C541 0.929 . S
H559 C542 0.930 . S
H560 C550 0.931 . S
H561 C551 0.931 . S
H562 C552 0.930 . S
H563 C553 0.929 . S
Eu564 N593 2.600 . S
Eu564 N599 2.562 . S
Eu564 O608 2.462 . S
Eu564 O609 2.373 1_455 S
Eu564 O611 2.432 . S
Eu564 O612 2.291 . S
Eu564 O616 2.335 . S
Eu564 O619 2.372 . S
Eu564 C628 2.787 . S
C565 N566 1.365 1_455 S
C565 C568 1.405 . S
C565 C572 1.448 . S
N566 C565 1.365 1_655 S
N566 C569 1.319 . S
N566 Eu575 2.600 . S
C567 C569 1.397 1_455 S
C567 C570 1.367 . S
C567 H587 0.930 1_455 S
C568 C565 1.405 . S
C568 C570 1.403 . S
C568 C574 1.439 . S
C569 N566 1.319 . S
C569 C567 1.397 1_655 S
C569 H580 0.930 . S
C570 C567 1.367 . S
C570 C568 1.403 . S
C570 H591 0.929 . S
C571 C572 1.430 . S
C571 C573 1.387 . S
C571 C577 1.404 . S
C572 C565 1.448 . S
C572 C571 1.430 . S
C572 N576 1.370 . S
C573 C571 1.387 . S
C573 C574 1.374 . S
C573 H588 0.931 . S
C574 C568 1.439 . S
C574 C573 1.374 . S
C574 H589 0.931 . S
Eu575 N566 2.600 . S
Eu575 N576 2.547 1_655 S
Eu575 O610 2.335 . S
Eu575 O613 2.372 . S
Eu575 O614 2.462 . S
Eu575 O615 2.373 1_655 S
Eu575 O617 2.432 . S
Eu575 O618 2.289 . S
Eu575 C639 2.787 . S
N576 C572 1.370 . S
N576 Eu575 2.547 1_455 S
N576 C578 1.332 . S
C577 C571 1.404 . S
C577 C579 1.366 . S
C577 H585 0.930 . S
C578 N576 1.332 . S
C578 C579 1.416 . S
C578 H584 0.929 1_455 S
C579 C577 1.366 . S
C579 C578 1.416 . S
C579 H581 0.930 . S
H580 C569 0.930 . S
H581 C579 0.930 . S
H582 C597 0.930 . S
H583 C604 0.930 . S
H584 C578 0.929 1_655 S
H585 C577 0.930 . S
H586 C600 0.929 . S
H587 C567 0.930 1_655 S
H588 C573 0.931 . S
H589 C574 0.931 . S
H590 C595 0.931 . S
H591 C570 0.929 . S
H592 C603 0.930 . S
N593 Eu564 2.600 . S
N593 C594 1.365 . S
N593 C597 1.319 . S
C594 N593 1.365 . S
C594 C596 1.405 1_455 S
C594 C602 1.448 . S
C595 H590 0.931 . S
C595 C597 1.397 . S
C595 C598 1.367 . S
C596 C594 1.405 1_655 S
C596 C598 1.403 1_655 S
C596 C629 1.439 . S
C597 H582 0.930 . S
C597 N593 1.319 . S
C597 C595 1.397 . S
C598 C595 1.367 . S
C598 C596 1.403 1_455 S
C598 H605 0.929 1_455 S
N599 Eu564 2.562 . S
N599 C600 1.325 . S
N599 C602 1.351 . S
C600 H586 0.929 . S
C600 N599 1.325 . S
C600 C604 1.416 1_455 S
C601 C602 1.430 1_655 S
C601 C603 1.404 . S
C601 C630 1.387 . S
C602 C594 1.448 . S
C602 N599 1.351 . S
C602 C601 1.430 1_455 S
C603 H592 0.930 . S
C603 C601 1.404 . S
C603 C604 1.366 . S
C604 H583 0.930 . S
C604 C600 1.416 1_655 S
C604 C603 1.366 . S
H605 C598 0.929 1_655 S
H606 C629 0.931 . S
H607 C630 0.931 . S
O608 Eu564 2.462 . S
O608 C628 1.252 . S
O609 Eu564 2.373 1_655 S
O609 C620 1.249 . S
O610 Eu575 2.335 . S
O610 C620 1.264 . S
O611 Eu564 2.432 . S
O611 C628 1.268 . S
O612 Eu564 2.291 . S
O612 C627 1.255 . S
O613 Eu575 2.372 . S
O613 C627 1.257 1_655 S
O614 Eu575 2.462 . S
O614 C639 1.252 . S
O615 Eu575 2.373 1_455 S
O615 C631 1.249 . S
O616 Eu564 2.335 . S
O616 C631 1.264 . S
O617 Eu575 2.432 . S
O617 C639 1.268 . S
O618 Eu575 2.289 . S
O618 C638 1.257 1_655 S
O619 Eu564 2.372 . S
O619 C638 1.257 . S
C620 O609 1.249 . S
C620 O610 1.264 . S
C621 C624 1.382 . S
C621 C626 1.390 . S
C621 C628 1.506 . S
C622 C623 1.398 . S
C622 C626 1.392 . S
C623 C622 1.398 . S
C623 C625 1.372 . S
C623 H640 0.931 . S
C624 C621 1.382 . S
C624 C625 1.390 . S
C624 H641 0.931 . S
C625 C623 1.372 . S
C625 C624 1.390 . S
C625 H642 0.929 . S
C626 C621 1.390 . S
C626 C622 1.392 . S
C626 H643 0.930 . S
C627 O612 1.255 . S
C627 O613 1.257 1_455 S
C628 Eu564 2.787 . S
C628 O608 1.252 . S
C628 O611 1.268 . S
C628 C621 1.506 . S
C629 C596 1.439 . S
C629 H606 0.931 . S
C629 C630 1.374 . S
C630 C601 1.387 . S
C630 H607 0.931 . S
C630 C629 1.374 . S
C631 O615 1.249 . S
C631 O616 1.264 . S
C632 C635 1.382 . S
C632 C636 1.390 . S
C632 C639 1.506 . S
C633 C634 1.398 . S
C633 C636 1.392 . S
C634 C633 1.398 . S
C634 C637 1.372 . S
C634 H644 0.931 . S
C635 C632 1.382 . S
C635 C637 1.390 . S
C635 H645 0.931 . S
C636 C632 1.390 . S
C636 C633 1.392 . S
C636 H646 0.930 . S
C637 C634 1.372 . S
C637 C635 1.390 . S
C637 H647 0.929 . S
C638 O618 1.257 1_455 S
C638 O619 1.257 . S
C639 Eu575 2.787 . S
C639 O614 1.252 . S
C639 O617 1.268 . S
C639 C632 1.506 . S
H640 C623 0.931 . S
H641 C624 0.931 . S
H642 C625 0.929 . S
H643 C626 0.930 . S
H644 C634 0.931 . S
H645 C635 0.931 . S
H646 C636 0.930 . S
H647 C637 0.929 . S
C648 C649 1.349 . S
C648 C650 1.327 . S
C648 H673 0.950 . S
C649 C648 1.349 . S
C649 C665 1.349 . S
C650 C648 1.327 . S
C650 C669 1.429 . S
C650 H674 0.950 . S
C651 C668 1.574 . S
C651 C670 1.368 . S
C651 H675 0.949 . S
H652 C656 0.949 . S
C653 C654 1.349 . S
C653 C655 1.327 . S
C653 H676 0.950 1_545 S
C654 C653 1.349 . S
C654 C666 1.349 . S
C655 C653 1.327 . S
C655 C671 1.429 . S
C655 H677 0.919 1_545 S
C656 H652 0.949 . S
C656 C664 1.574 . S
C656 C672 1.368 . S
H657 C665 0.950 . S
H658 C663 0.950 . S
H659 C664 0.949 . S
H660 C666 0.950 . S
H661 C667 0.950 . S
H662 C668 0.949 . S
C663 H658 0.950 . S
C663 C665 1.327 . S
C663 C669 1.429 . S
C664 C656 1.574 . S
C664 H659 0.949 . S
C664 C670 1.368 . S
C665 C649 1.349 . S
C665 H657 0.950 . S
C665 C663 1.327 . S
C666 C654 1.349 . S
C666 H660 0.950 . S
C666 C667 1.327 . S
C667 H661 0.950 . S
C667 C666 1.327 . S
C667 C671 1.429 . S
C668 C651 1.574 . S
C668 H662 0.949 . S
C668 C672 1.368 . S
C669 C650 1.429 . S
C669 C663 1.429 . S
C669 C670 1.523 . S
C670 C651 1.368 . S
C670 C664 1.368 . S
C670 C669 1.523 . S
C671 C655 1.429 . S
C671 C667 1.429 . S
C671 C672 1.523 . S
C672 C656 1.368 . S
C672 C668 1.368 . S
C672 C671 1.523 . S
H673 C648 0.950 . S
H674 C650 0.950 . S
H675 C651 0.949 . S
H676 C653 0.950 1_565 S
H677 C655 0.919 1_565 S
C678 C679 1.349 . S
C678 C680 1.327 . S
C678 H703 0.950 . S
C679 C678 1.349 . S
C679 C695 1.349 . S
C680 C678 1.327 . S
C680 C699 1.429 . S
C680 H704 0.950 . S
C681 C698 1.574 . S
C681 C700 1.368 . S
C681 H705 0.949 . S
H682 C686 0.949 . S
C683 C684 1.349 . S
C683 C685 1.327 . S
C683 H706 0.950 . S
C684 C683 1.349 . S
C684 C696 1.349 . S
C685 C683 1.327 . S
C685 C701 1.429 . S
C685 H707 0.950 . S
C686 H682 0.949 . S
C686 C694 1.574 . S
C686 C702 1.368 . S
H687 C695 0.950 . S
H688 C693 0.950 . S
H689 C694 0.949 . S
H690 C696 0.950 . S
H691 C697 0.950 . S
H692 C698 0.949 . S
C693 H688 0.950 . S
C693 C695 1.327 . S
C693 C699 1.429 . S
C694 C686 1.574 . S
C694 H689 0.949 . S
C694 C700 1.368 . S
C695 C679 1.349 . S
C695 H687 0.950 . S
C695 C693 1.327 . S
C696 C684 1.349 . S
C696 H690 0.950 . S
C696 C697 1.327 . S
C697 H691 0.950 . S
C697 C696 1.327 . S
C697 C701 1.429 . S
C698 C681 1.574 . S
C698 H692 0.949 . S
C698 C702 1.368 . S
C699 C680 1.429 . S
C699 C693 1.429 . S
C699 C700 1.523 . S
C700 C681 1.368 . S
C700 C694 1.368 . S
C700 C699 1.523 . S
C701 C685 1.429 . S
C701 C697 1.429 . S
C701 C702 1.523 . S
C702 C686 1.368 . S
C702 C698 1.368 . S
C702 C701 1.523 . S
H703 C678 0.950 . S
H704 C680 0.950 . S
H705 C681 0.949 . S
H706 C683 0.950 . S
H707 C685 0.950 . S
C708 C709 1.349 . S
C708 C710 1.327 . S
C708 H733 0.950 . S
C709 C708 1.349 . S
C709 C725 1.349 . S
C710 C708 1.327 . S
C710 C729 1.429 . S
C710 H734 0.950 . S
C711 C728 1.574 . S
C711 C730 1.368 . S
C711 H735 0.949 . S
H712 C716 0.949 . S
C713 C714 1.349 . S
C713 C715 1.327 . S
C713 H736 0.950 . S
C714 C713 1.349 . S
C714 C726 1.349 . S
C715 C713 1.327 . S
C715 C731 1.429 . S
C715 H737 0.950 . S
C716 H712 0.949 . S
C716 C724 1.574 . S
C716 C732 1.368 . S
H717 C725 0.950 . S
H718 C723 0.950 . S
H719 C724 0.949 . S
H720 C726 0.950 . S
H721 C727 0.950 . S
H722 C728 0.949 . S
C723 H718 0.950 . S
C723 C725 1.327 . S
C723 C729 1.429 . S
C724 C716 1.574 . S
C724 H719 0.949 . S
C724 C730 1.368 . S
C725 C709 1.349 . S
C725 H717 0.950 . S
C725 C723 1.327 . S
C726 C714 1.349 . S
C726 H720 0.950 . S
C726 C727 1.327 . S
C727 H721 0.950 . S
C727 C726 1.327 . S
C727 C731 1.429 . S
C728 C711 1.574 . S
C728 H722 0.949 . S
C728 C732 1.368 . S
C729 C710 1.429 . S
C729 C723 1.429 . S
C729 C730 1.523 . S
C730 C711 1.368 . S
C730 C724 1.368 . S
C730 C729 1.523 . S
C731 C715 1.429 . S
C731 C727 1.429 . S
C731 C732 1.523 . S
C732 C716 1.368 . S
C732 C728 1.368 . S
C732 C731 1.523 . S
H733 C708 0.950 . S
H734 C710 0.950 . S
H735 C711 0.949 . S
H736 C713 0.950 . S
H737 C715 0.950 . S
C738 C739 1.349 . S
C738 C740 1.327 . S
C738 H763 0.950 . S
C739 C738 1.349 . S
C739 C755 1.349 . S
C740 C738 1.327 . S
C740 C759 1.429 . S
C740 H764 0.950 . S
C741 C758 1.574 . S
C741 C760 1.368 . S
C741 H765 0.949 . S
H742 C746 0.949 . S
C743 C744 1.349 . S
C743 C745 1.327 . S
C743 H766 0.950 1_455 S
C744 C743 1.349 . S
C744 C756 1.349 . S
C745 C743 1.327 . S
C745 C761 1.429 . S
C745 H767 0.950 1_455 S
C746 H742 0.949 . S
C746 C754 1.574 . S
C746 C762 1.368 . S
H747 C755 0.950 . S
H748 C753 0.950 . S
H749 C754 0.949 . S
H750 C756 0.950 . S
H751 C757 0.950 . S
H752 C758 0.949 . S
C753 H748 0.950 . S
C753 C755 1.327 . S
C753 C759 1.429 . S
C754 C746 1.574 . S
C754 H749 0.949 . S
C754 C760 1.368 . S
C755 C739 1.349 . S
C755 H747 0.950 . S
C755 C753 1.327 . S
C756 C744 1.349 . S
C756 H750 0.950 . S
C756 C757 1.327 . S
C757 H751 0.950 . S
C757 C756 1.327 . S
C757 C761 1.429 . S
C758 C741 1.574 . S
C758 H752 0.949 . S
C758 C762 1.368 . S
C759 C740 1.429 . S
C759 C753 1.429 . S
C759 C760 1.523 . S
C760 C741 1.368 . S
C760 C754 1.368 . S
C760 C759 1.523 . S
C761 C745 1.429 . S
C761 C757 1.429 . S
C761 C762 1.523 . S
C762 C746 1.368 . S
C762 C758 1.368 . S
C762 C761 1.523 . S
H763 C738 0.950 . S
H764 C740 0.950 . S
H765 C741 0.949 . S
H766 C743 0.950 1_655 S
H767 C745 0.950 1_655 S
C768 C769 1.349 . S
C768 C770 1.327 . S
C768 H793 0.950 . S
C769 C768 1.349 . S
C769 C785 1.349 . S
C770 C768 1.327 . S
C770 C789 1.429 1_554 S
C770 H794 0.952 . S
C771 C788 1.571 1_565 S
C771 C790 1.368 . S
C771 H795 0.949 1_565 S
H772 C776 0.949 . S
C773 C774 1.349 1_545 S
C773 C775 1.327 . S
C773 H796 0.950 . S
C774 C773 1.349 1_565 S
C774 C786 1.349 . S
C775 C773 1.327 . S
C775 C791 1.429 1_545 S
C775 H797 0.950 . S
C776 H772 0.949 . S
C776 C784 1.574 . S
C776 C792 1.368 . S
H777 C785 0.950 . S
H778 C783 0.947 1_556 S
H779 C784 0.949 . S
H780 C786 0.950 . S
H781 C787 0.950 . S
H782 C788 0.961 . S
C783 H778 0.947 1_554 S
C783 C785 1.327 . S
C783 C789 1.429 1_554 S
C784 C776 1.574 . S
C784 H779 0.949 . S
C784 C790 1.368 . S
C785 C769 1.349 . S
C785 H777 0.950 . S
C785 C783 1.327 . S
C786 C774 1.349 . S
C786 H780 0.950 . S
C786 C787 1.327 . S
C787 H781 0.950 . S
C787 C786 1.327 . S
C787 C791 1.429 . S
C788 C771 1.571 1_545 S
C788 H782 0.961 . S
C788 C792 1.358 1_545 S
C789 C770 1.429 1_556 S
C789 C783 1.429 1_556 S
C789 C790 1.523 . S
C790 C771 1.368 . S
C790 C784 1.368 . S
C790 C789 1.523 . S
C791 C775 1.429 1_565 S
C791 C787 1.429 . S
C791 C792 1.523 . S
C792 C776 1.368 . S
C792 C788 1.358 1_565 S
C792 C791 1.523 . S
H793 C768 0.950 . S
H794 C770 0.952 . S
H795 C771 0.949 1_545 S
H796 C773 0.950 . S
H797 C775 0.950 . S
C798 C799 1.349 . S
C798 C800 1.327 . S
C798 H823 0.950 . S
C799 C798 1.349 . S
C799 C815 1.349 . S
C800 C798 1.327 . S
C800 C819 1.429 1_554 S
C800 H824 0.950 . S
C801 C818 1.574 . S
C801 C820 1.368 . S
C801 H825 0.949 . S
H802 C806 0.949 . S
C803 C804 1.349 . S
C803 C805 1.327 . S
C803 H826 0.950 . S
C804 C803 1.349 . S
C804 C816 1.349 . S
C805 C803 1.327 . S
C805 C821 1.429 . S
C805 H827 0.950 . S
C806 H802 0.949 . S
C806 C814 1.574 . S
C806 C822 1.368 . S
H807 C815 0.950 . S
H808 C813 0.961 . S
H809 C814 0.949 . S
H810 C816 0.950 . S
H811 C817 0.950 . S
H812 C818 0.949 . S
C813 H808 0.961 . S
C813 C815 1.314 1_556 S
C813 C819 1.431 . S
C814 C806 1.574 . S
C814 H809 0.949 . S
C814 C820 1.368 . S
C815 C799 1.349 . S
C815 H807 0.950 . S
C815 C813 1.314 1_554 S
C816 C804 1.349 . S
C816 H810 0.950 . S
C816 C817 1.327 . S
C817 H811 0.950 . S
C817 C816 1.327 . S
C817 C821 1.429 . S
C818 C801 1.574 . S
C818 H812 0.949 . S
C818 C822 1.368 . S
C819 C800 1.429 1_556 S
C819 C813 1.431 . S
C819 C820 1.523 . S
C820 C801 1.368 . S
C820 C814 1.368 . S
C820 C819 1.523 . S
C821 C805 1.429 . S
C821 C817 1.429 . S
C821 C822 1.523 . S
C822 C806 1.368 . S
C822 C818 1.368 . S
C822 C821 1.523 . S
H823 C798 0.950 . S
H824 C800 0.950 . S
H825 C801 0.949 . S
H826 C803 0.950 . S
H827 C805 0.950 . S
C828 C829 1.349 . S
C828 C830 1.327 . S
C828 H853 0.950 . S
C829 C828 1.349 . S
C829 C845 1.349 . S
C830 C828 1.327 . S
C830 C849 1.429 1_554 S
C830 H854 0.950 . S
C831 C848 1.574 . S
C831 C850 1.368 . S
C831 H855 0.949 . S
H832 C836 0.949 . S
C833 C834 1.349 . S
C833 C835 1.327 . S
C833 H856 0.950 . S
C834 C833 1.349 . S
C834 C846 1.349 . S
C835 C833 1.327 . S
C835 C851 1.429 . S
C835 H857 0.950 . S
C836 H832 0.949 . S
C836 C844 1.574 . S
C836 C852 1.368 . S
H837 C845 0.950 . S
H838 C843 0.950 . S
H839 C844 0.949 . S
H840 C846 0.950 . S
H841 C847 0.950 . S
H842 C848 0.949 . S
C843 H838 0.950 . S
C843 C845 1.327 1_556 S
C843 C849 1.429 . S
C844 C836 1.574 . S
C844 H839 0.949 . S
C844 C850 1.368 . S
C845 C829 1.349 . S
C845 H837 0.950 . S
C845 C843 1.327 1_554 S
C846 C834 1.349 . S
C846 H840 0.950 . S
C846 C847 1.327 . S
C847 H841 0.950 . S
C847 C846 1.327 . S
C847 C851 1.429 . S
C848 C831 1.574 . S
C848 H842 0.949 . S
C848 C852 1.368 . S
C849 C830 1.429 1_556 S
C849 C843 1.429 . S
C849 C850 1.523 . S
C850 C831 1.368 . S
C850 C844 1.368 . S
C850 C849 1.523 . S
C851 C835 1.429 . S
C851 C847 1.429 . S
C851 C852 1.523 . S
C852 C836 1.368 . S
C852 C848 1.368 . S
C852 C851 1.523 . S
H853 C828 0.950 . S
H854 C830 0.950 . S
H855 C831 0.949 . S
H856 C833 0.950 . S
H857 C835 0.950 . S
C858 C859 1.349 . S
C858 C860 1.327 . S
C858 H883 0.950 . S
C859 C858 1.349 . S
C859 C875 1.349 . S
C860 C858 1.327 . S
C860 C879 1.429 1_554 S
C860 H884 0.950 . S
C861 C878 1.574 . S
C861 C880 1.368 . S
C861 H885 0.949 . S
H862 C866 0.949 . S
C863 C864 1.349 . S
C863 C865 1.327 . S
C863 H886 0.950 . S
C864 C863 1.349 . S
C864 C876 1.347 1_655 S
C865 C863 1.327 . S
C865 C881 1.429 . S
C865 H887 0.950 . S
C866 H862 0.949 . S
C866 C874 1.574 . S
C866 C882 1.368 . S
H867 C875 0.950 . S
H868 C873 0.950 . S
H869 C874 0.949 . S
H870 C876 0.953 . S
H871 C877 0.951 1_455 S
H872 C878 0.949 . S
C873 H868 0.950 . S
C873 C875 1.327 1_556 S
C873 C879 1.429 . S
C874 C866 1.574 . S
C874 H869 0.949 . S
C874 C880 1.368 . S
C875 C859 1.349 . S
C875 H867 0.950 . S
C875 C873 1.327 1_554 S
C876 C864 1.347 1_455 S
C876 H870 0.953 . S
C876 C877 1.326 1_455 S
C877 H871 0.951 1_655 S
C877 C876 1.326 1_655 S
C877 C881 1.429 . S
C878 C861 1.574 . S
C878 H872 0.949 . S
C878 C882 1.368 . S
C879 C860 1.429 1_556 S
C879 C873 1.429 . S
C879 C880 1.523 . S
C880 C861 1.368 . S
C880 C874 1.368 . S
C880 C879 1.523 . S
C881 C865 1.429 . S
C881 C877 1.429 . S
C881 C882 1.523 . S
C882 C866 1.368 . S
C882 C878 1.368 . S
C882 C881 1.523 . S
H883 C858 0.950 . S
H884 C860 0.950 . S
H885 C861 0.949 . S
H886 C863 0.950 . S
H887 C865 0.950 . S
C888 C889 1.349 . S
C888 C890 1.327 . S
C888 H913 0.950 . S
C889 C888 1.349 . S
C889 C905 1.349 . S
C890 C888 1.327 . S
C890 C909 1.429 . S
C890 H914 0.950 . S
C891 C908 1.574 . S
C891 C910 1.368 . S
C891 H915 0.949 . S
H892 C896 0.949 . S
C893 C894 1.349 . S
C893 C895 1.327 . S
C893 H916 0.950 . S
C894 C893 1.349 . S
C894 C906 1.349 . S
C895 C893 1.327 . S
C895 C911 1.429 . S
C895 H917 0.950 . S
C896 H892 0.949 . S
C896 C904 1.574 . S
C896 C912 1.368 . S
H897 C905 0.950 . S
H898 C903 0.950 . S
H899 C904 0.949 . S
H900 C906 0.954 . S
H901 C907 0.950 . S
H902 C908 0.949 . S
C903 H898 0.950 . S
C903 C905 1.327 . S
C903 C909 1.429 . S
C904 C896 1.574 . S
C904 H899 0.949 . S
C904 C910 1.368 . S
C905 C889 1.349 . S
C905 H897 0.950 . S
C905 C903 1.327 . S
C906 C894 1.349 . S
C906 H900 0.954 . S
C906 C907 1.327 . S
C907 H901 0.950 . S
C907 C906 1.327 . S
C907 C911 1.429 . S
C908 C891 1.574 . S
C908 H902 0.949 . S
C908 C912 1.368 . S
C909 C890 1.429 . S
C909 C903 1.429 . S
C909 C910 1.523 . S
C910 C891 1.368 . S
C910 C904 1.368 . S
C910 C909 1.523 . S
C911 C895 1.429 . S
C911 C907 1.429 . S
C911 C912 1.523 . S
C912 C896 1.368 . S
C912 C908 1.368 . S
C912 C911 1.523 . S
H913 C888 0.950 . S
H914 C890 0.950 . S
H915 C891 0.949 . S
H916 C893 0.950 . S
H917 C895 0.950 . S
C918 C919 1.349 . S
C918 C920 1.327 . S
C918 H943 0.950 . S
C919 C918 1.349 . S
C919 C935 1.349 . S
C920 C918 1.327 . S
C920 C939 1.429 . S
C920 H944 0.950 . S
C921 C938 1.574 . S
C921 C940 1.368 . S
C921 H945 0.949 . S
H922 C926 0.949 1_565 S
C923 C924 1.349 . S
C923 C925 1.327 . S
C923 H946 0.950 . S
C924 C923 1.349 . S
C924 C936 1.349 1_545 S
C925 C923 1.327 . S
C925 C941 1.429 . S
C925 H947 0.950 . S
C926 H922 0.949 1_545 S
C926 C934 1.574 . S
C926 C942 1.368 . S
H927 C935 0.950 . S
H928 C933 0.950 . S
H929 C934 0.949 . S
H930 C936 0.950 . S
H931 C937 0.950 . S
H932 C938 0.949 . S
C933 H928 0.950 . S
C933 C935 1.327 . S
C933 C939 1.429 . S
C934 C926 1.574 . S
C934 H929 0.949 . S
C934 C940 1.368 . S
C935 C919 1.349 . S
C935 H927 0.950 . S
C935 C933 1.327 . S
C936 C924 1.349 1_565 S
C936 H930 0.950 . S
C936 C937 1.327 . S
C937 H931 0.950 . S
C937 C936 1.327 . S
C937 C941 1.429 1_565 S
C938 C921 1.574 . S
C938 H932 0.949 . S
C938 C942 1.368 . S
C939 C920 1.429 . S
C939 C933 1.429 . S
C939 C940 1.523 . S
C940 C921 1.368 . S
C940 C934 1.368 . S
C940 C939 1.523 . S
C941 C925 1.429 . S
C941 C937 1.429 1_545 S
C941 C942 1.523 . S
C942 C926 1.368 . S
C942 C938 1.368 . S
C942 C941 1.523 . S
H943 C918 0.950 . S
H944 C920 0.950 . S
H945 C921 0.949 . S
H946 C923 0.950 . S
H947 C925 0.950 . S
C948 C949 1.349 . S
C948 C950 1.327 . S
C948 H973 0.950 . S
C949 C948 1.349 . S
C949 C965 1.349 . S
C950 C948 1.327 . S
C950 C969 1.429 . S
C950 H974 0.950 . S
C951 C968 1.574 . S
C951 C970 1.368 . S
C951 H975 0.949 . S
H952 C956 0.949 . S
C953 C954 1.349 . S
C953 C955 1.327 . S
C953 H976 0.950 . S
C954 C953 1.349 . S
C954 C966 1.349 . S
C955 C953 1.327 . S
C955 C971 1.429 . S
C955 H977 0.950 . S
C956 H952 0.949 . S
C956 C964 1.574 . S
C956 C972 1.368 . S
H957 C965 0.950 . S
H958 C963 0.950 . S
H959 C964 0.949 . S
H960 C966 0.950 . S
H961 C967 0.950 . S
H962 C968 0.949 . S
C963 H958 0.950 . S
C963 C965 1.327 . S
C963 C969 1.429 . S
C964 C956 1.574 . S
C964 H959 0.949 . S
C964 C970 1.368 . S
C965 C949 1.349 . S
C965 H957 0.950 . S
C965 C963 1.327 . S
C966 C954 1.349 . S
C966 H960 0.950 . S
C966 C967 1.327 . S
C967 H961 0.950 . S
C967 C966 1.327 . S
C967 C971 1.429 . S
C968 C951 1.574 . S
C968 H962 0.949 . S
C968 C972 1.368 . S
C969 C950 1.429 . S
C969 C963 1.429 . S
C969 C970 1.523 . S
C970 C951 1.368 . S
C970 C964 1.368 . S
C970 C969 1.523 . S
C971 C955 1.429 . S
C971 C967 1.429 . S
C971 C972 1.523 . S
C972 C956 1.368 . S
C972 C968 1.368 . S
C972 C971 1.523 . S
H973 C948 0.950 . S
H974 C950 0.950 . S
H975 C951 0.949 . S
H976 C953 0.950 . S
H977 C955 0.950 . S
C978 C979 1.349 . S
C978 C980 1.327 . S
C978 H1003 0.950 . S
C979 C978 1.349 . S
C979 C995 1.349 . S
C980 C978 1.327 . S
C980 C999 1.429 . S
C980 H1004 0.950 . S
C981 C998 1.574 . S
C981 C1000 1.368 . S
C981 H1005 0.949 . S
H982 C986 0.949 . S
C983 C984 1.349 . S
C983 C985 1.327 . S
C983 H1006 0.950 . S
C984 C983 1.349 . S
C984 C996 1.349 . S
C985 C983 1.327 . S
C985 C1001 1.429 . S
C985 H1007 0.950 . S
C986 H982 0.949 . S
C986 C994 1.574 . S
C986 C1002 1.368 . S
H987 C995 0.950 . S
H988 C993 0.950 . S
H989 C994 0.949 . S
H990 C996 0.950 . S
H991 C997 0.950 . S
H992 C998 0.949 . S
C993 H988 0.950 . S
C993 C995 1.327 . S
C993 C999 1.429 . S
C994 C986 1.574 . S
C994 H989 0.949 . S
C994 C1000 1.368 . S
C995 C979 1.349 . S
C995 H987 0.950 . S
C995 C993 1.327 . S
C996 C984 1.349 . S
C996 H990 0.950 . S
C996 C997 1.327 . S
C997 H991 0.950 . S
C997 C996 1.327 . S
C997 C1001 1.429 . S
C998 C981 1.574 . S
C998 H992 0.949 . S
C998 C1002 1.368 . S
C999 C980 1.429 . S
C999 C993 1.429 . S
C999 C1000 1.523 . S
C1000 C981 1.368 . S
C1000 C994 1.368 . S
C1000 C999 1.523 . S
C1001 C985 1.429 . S
C1001 C997 1.429 . S
C1001 C1002 1.523 . S
C1002 C986 1.368 . S
C1002 C998 1.368 . S
C1002 C1001 1.523 . S
H1003 C978 0.950 . S
H1004 C980 0.950 . S
H1005 C981 0.949 . S
H1006 C983 0.950 . S
H1007 C985 0.950 . S
C1008 C1009 1.349 . S
C1008 C1010 1.327 1_554 S
C1008 H1033 0.950 . S
C1009 C1008 1.349 . S
C1009 C1025 1.349 1_554 S
C1010 C1008 1.327 1_556 S
C1010 C1029 1.429 . S
C1010 H1034 0.950 . S
C1011 C1028 1.574 . S
C1011 C1030 1.368 . S
C1011 H1035 0.949 . S
H1012 C1016 0.949 . S
C1013 C1014 1.349 1_655 S
C1013 C1015 1.327 . S
C1013 H1036 0.950 . S
C1014 C1013 1.349 1_455 S
C1014 C1026 1.349 . S
C1015 C1013 1.327 . S
C1015 C1031 1.429 . S
C1015 H1037 0.950 . S
C1016 H1012 0.949 . S
C1016 C1024 1.574 1_455 S
C1016 C1032 1.368 1_455 S
H1017 C1025 0.950 1_554 S
H1018 C1023 0.950 . S
H1019 C1024 0.949 1_455 S
H1020 C1026 0.950 . S
H1021 C1027 0.950 . S
H1022 C1028 0.949 . S
C1023 H1018 0.950 . S
C1023 C1025 1.327 . S
C1023 C1029 1.429 . S
C1024 C1016 1.574 1_655 S
C1024 H1019 0.949 1_655 S
C1024 C1030 1.368 . S
C1025 C1009 1.349 1_556 S
C1025 H1017 0.950 1_556 S
C1025 C1023 1.327 . S
C1026 C1014 1.349 . S
C1026 H1020 0.950 . S
C1026 C1027 1.327 . S
C1027 H1021 0.950 . S
C1027 C1026 1.327 . S
C1027 C1031 1.429 1_455 S
C1028 C1011 1.574 . S
C1028 H1022 0.949 . S
C1028 C1032 1.368 . S
C1029 C1010 1.429 . S
C1029 C1023 1.429 . S
C1029 C1030 1.523 . S
C1030 C1011 1.368 . S
C1030 C1024 1.368 . S
C1030 C1029 1.523 . S
C1031 C1015 1.429 . S
C1031 C1027 1.429 1_655 S
C1031 C1032 1.523 . S
C1032 C1016 1.368 1_655 S
C1032 C1028 1.368 . S
C1032 C1031 1.523 . S
H1033 C1008 0.950 . S
H1034 C1010 0.950 . S
H1035 C1011 0.949 . S
H1036 C1013 0.950 . S
H1037 C1015 0.950 . S
C1038 C1039 1.349 . S
C1038 C1040 1.327 1_554 S
C1038 H1063 0.950 . S
C1039 C1038 1.349 . S
C1039 C1055 1.349 . S
C1040 C1038 1.327 1_556 S
C1040 C1059 1.429 . S
C1040 H1064 0.950 . S
C1041 C1058 1.574 1_565 S
C1041 C1060 1.368 . S
C1041 H1065 0.949 1_565 S
H1042 C1046 0.949 . S
C1043 C1044 1.349 . S
C1043 C1045 1.327 . S
C1043 H1066 0.950 . S
C1044 C1043 1.349 . S
C1044 C1056 1.349 1_545 S
C1045 C1043 1.327 . S
C1045 C1061 1.429 1_545 S
C1045 H1067 0.950 . S
C1046 H1042 0.949 . S
C1046 C1054 1.574 . S
C1046 C1062 1.368 . S
H1047 C1055 0.950 . S
H1048 C1053 0.950 . S
H1049 C1054 0.949 . S
H1050 C1056 0.950 . S
H1051 C1057 0.950 . S
H1052 C1058 0.949 . S
C1053 H1048 0.950 . S
C1053 C1055 1.327 1_556 S
C1053 C1059 1.429 . S
C1054 C1046 1.574 . S
C1054 H1049 0.949 . S
C1054 C1060 1.368 . S
C1055 C1039 1.349 . S
C1055 H1047 0.950 . S
C1055 C1053 1.327 1_554 S
C1056 C1044 1.349 1_565 S
C1056 H1050 0.950 . S
C1056 C1057 1.327 . S
C1057 H1051 0.950 . S
C1057 C1056 1.327 . S
C1057 C1061 1.429 . S
C1058 C1041 1.574 1_545 S
C1058 H1052 0.949 . S
C1058 C1062 1.368 1_545 S
C1059 C1040 1.429 . S
C1059 C1053 1.429 . S
C1059 C1060 1.523 . S
C1060 C1041 1.368 . S
C1060 C1054 1.368 . S
C1060 C1059 1.523 . S
C1061 C1045 1.429 1_565 S
C1061 C1057 1.429 . S
C1061 C1062 1.523 . S
C1062 C1046 1.368 . S
C1062 C1058 1.368 1_565 S
C1062 C1061 1.523 . S
H1063 C1038 0.950 . S
H1064 C1040 0.950 . S
H1065 C1041 0.949 1_545 S
H1066 C1043 0.950 . S
H1067 C1045 0.950 . S
C1068 C1069 1.349 . S
C1068 C1070 1.327 1_554 S
C1068 H1093 0.950 . S
C1069 C1068 1.349 . S
C1069 C1085 1.349 1_554 S
C1070 C1068 1.327 1_556 S
C1070 C1089 1.429 . S
C1070 H1094 0.950 . S
C1071 C1088 1.574 . S
C1071 C1090 1.368 . S
C1071 H1095 0.949 . S
H1072 C1076 0.949 . S
C1073 C1074 1.349 . S
C1073 C1075 1.327 . S
C1073 H1096 0.950 . S
C1074 C1073 1.349 . S
C1074 C1086 1.349 . S
C1075 C1073 1.327 . S
C1075 C1091 1.429 . S
C1075 H1097 0.950 . S
C1076 H1072 0.949 . S
C1076 C1084 1.574 . S
C1076 C1092 1.368 . S
H1077 C1085 0.950 . S
H1078 C1083 0.950 . S
H1079 C1084 0.949 . S
H1080 C1086 0.950 . S
H1081 C1087 0.950 . S
H1082 C1088 0.949 . S
C1083 H1078 0.950 . S
C1083 C1085 1.327 . S
C1083 C1089 1.429 . S
C1084 C1076 1.574 . S
C1084 H1079 0.949 . S
C1084 C1090 1.368 . S
C1085 C1069 1.349 1_556 S
C1085 H1077 0.950 . S
C1085 C1083 1.327 . S
C1086 C1074 1.349 . S
C1086 H1080 0.950 . S
C1086 C1087 1.327 . S
C1087 H1081 0.950 . S
C1087 C1086 1.327 . S
C1087 C1091 1.429 . S
C1088 C1071 1.574 . S
C1088 H1082 0.949 . S
C1088 C1092 1.368 . S
C1089 C1070 1.429 . S
C1089 C1083 1.429 . S
C1089 C1090 1.523 . S
C1090 C1071 1.368 . S
C1090 C1084 1.368 . S
C1090 C1089 1.523 . S
C1091 C1075 1.429 . S
C1091 C1087 1.429 . S
C1091 C1092 1.523 . S
C1092 C1076 1.368 . S
C1092 C1088 1.368 . S
C1092 C1091 1.523 . S
H1093 C1068 0.950 . S
H1094 C1070 0.950 . S
H1095 C1071 0.949 . S
H1096 C1073 0.950 . S
H1097 C1075 0.950 . S
C1098 C1099 1.349 1_556 S
C1098 C1100 1.327 . S
C1098 H1123 0.950 . S
C1099 C1098 1.349 1_554 S
C1099 C1115 1.349 . S
C1100 C1098 1.327 . S
C1100 C1119 1.429 . S
C1100 H1124 0.950 . S
C1101 C1118 1.574 . S
C1101 C1120 1.368 . S
C1101 H1125 0.949 . S
H1102 C1106 0.949 . S
C1103 C1104 1.349 . S
C1103 C1105 1.327 . S
C1103 H1126 0.950 . S
C1104 C1103 1.349 . S
C1104 C1116 1.349 . S
C1105 C1103 1.327 . S
C1105 C1121 1.429 . S
C1105 H1127 0.950 . S
C1106 H1102 0.949 . S
C1106 C1114 1.574 . S
C1106 C1122 1.368 . S
H1107 C1115 0.950 . S
H1108 C1113 0.950 . S
H1109 C1114 0.949 . S
H1110 C1116 0.950 . S
H1111 C1117 0.950 . S
H1112 C1118 0.949 . S
C1113 H1108 0.950 . S
C1113 C1115 1.327 . S
C1113 C1119 1.429 1_554 S
C1114 C1106 1.574 . S
C1114 H1109 0.949 . S
C1114 C1120 1.368 . S
C1115 C1099 1.349 . S
C1115 H1107 0.950 . S
C1115 C1113 1.327 . S
C1116 C1104 1.349 . S
C1116 H1110 0.950 . S
C1116 C1117 1.327 . S
C1117 H1111 0.950 . S
C1117 C1116 1.327 . S
C1117 C1121 1.429 . S
C1118 C1101 1.574 . S
C1118 H1112 0.949 . S
C1118 C1122 1.368 . S
C1119 C1100 1.429 . S
C1119 C1113 1.429 1_556 S
C1119 C1120 1.523 . S
C1120 C1101 1.368 . S
C1120 C1114 1.368 . S
C1120 C1119 1.523 . S
C1121 C1105 1.429 . S
C1121 C1117 1.429 . S
C1121 C1122 1.523 . S
C1122 C1106 1.368 . S
C1122 C1118 1.368 . S
C1122 C1121 1.523 . S
H1123 C1098 0.950 . S
H1124 C1100 0.950 . S
H1125 C1101 0.949 . S
H1126 C1103 0.950 . S
H1127 C1105 0.950 . S
C1128 C1129 1.349 . S
C1128 C1130 1.327 . S
C1128 H1153 0.950 . S
C1129 C1128 1.349 . S
C1129 C1145 1.349 . S
C1130 C1128 1.327 . S
C1130 C1149 1.429 . S
C1130 H1154 0.950 . S
C1131 C1148 1.574 . S
C1131 C1150 1.368 . S
C1131 H1155 0.949 . S
H1132 C1136 0.949 . S
C1133 C1134 1.349 . S
C1133 C1135 1.327 . S
C1133 H1156 0.950 . S
C1134 C1133 1.349 . S
C1134 C1146 1.349 . S
C1135 C1133 1.327 . S
C1135 C1151 1.429 . S
C1135 H1157 0.950 . S
C1136 H1132 0.949 . S
C1136 C1144 1.574 . S
C1136 C1152 1.368 . S
H1137 C1145 0.950 . S
H1138 C1143 0.950 . S
H1139 C1144 0.949 . S
H1140 C1146 0.950 . S
H1141 C1147 0.950 . S
H1142 C1148 0.949 . S
C1143 H1138 0.950 . S
C1143 C1145 1.327 . S
C1143 C1149 1.429 . S
C1144 C1136 1.574 . S
C1144 H1139 0.949 . S
C1144 C1150 1.368 . S
C1145 C1129 1.349 . S
C1145 H1137 0.950 . S
C1145 C1143 1.327 . S
C1146 C1134 1.349 . S
C1146 H1140 0.950 . S
C1146 C1147 1.327 . S
C1147 H1141 0.950 . S
C1147 C1146 1.327 . S
C1147 C1151 1.429 . S
C1148 C1131 1.574 . S
C1148 H1142 0.949 . S
C1148 C1152 1.368 . S
C1149 C1130 1.429 . S
C1149 C1143 1.429 . S
C1149 C1150 1.523 . S
C1150 C1131 1.368 . S
C1150 C1144 1.368 . S
C1150 C1149 1.523 . S
C1151 C1135 1.429 . S
C1151 C1147 1.429 . S
C1151 C1152 1.523 . S
C1152 C1136 1.368 . S
C1152 C1148 1.368 . S
C1152 C1151 1.523 . S
H1153 C1128 0.950 . S
H1154 C1130 0.950 . S
H1155 C1131 0.949 . S
H1156 C1133 0.950 . S
H1157 C1135 0.950 . S
C1158 C1159 1.349 . S
C1158 C1160 1.327 . S
C1158 H1183 0.950 . S
C1159 C1158 1.349 . S
C1159 C1175 1.349 . S
C1160 C1158 1.327 . S
C1160 C1179 1.429 . S
C1160 H1184 0.950 . S
C1161 C1178 1.574 . S
C1161 C1180 1.368 . S
C1161 H1185 0.949 . S
H1162 C1166 0.949 . S
C1163 C1164 1.349 . S
C1163 C1165 1.327 . S
C1163 H1186 0.950 1_545 S
C1164 C1163 1.349 . S
C1164 C1176 1.349 . S
C1165 C1163 1.327 . S
C1165 C1181 1.429 . S
C1165 H1187 0.950 1_545 S
C1166 H1162 0.949 . S
C1166 C1174 1.574 . S
C1166 C1182 1.368 . S
H1167 C1175 0.950 . S
H1168 C1173 0.950 . S
H1169 C1174 0.949 . S
H1170 C1176 0.950 . S
H1171 C1177 0.950 . S
H1172 C1178 0.949 . S
C1173 H1168 0.950 . S
C1173 C1175 1.327 . S
C1173 C1179 1.429 . S
C1174 C1166 1.574 . S
C1174 H1169 0.949 . S
C1174 C1180 1.368 . S
C1175 C1159 1.349 . S
C1175 H1167 0.950 . S
C1175 C1173 1.327 . S
C1176 C1164 1.349 . S
C1176 H1170 0.950 . S
C1176 C1177 1.327 . S
C1177 H1171 0.950 . S
C1177 C1176 1.327 . S
C1177 C1181 1.429 . S
C1178 C1161 1.574 . S
C1178 H1172 0.949 . S
C1178 C1182 1.368 . S
C1179 C1160 1.429 . S
C1179 C1173 1.429 . S
C1179 C1180 1.523 . S
C1180 C1161 1.368 . S
C1180 C1174 1.368 . S
C1180 C1179 1.523 . S
C1181 C1165 1.429 . S
C1181 C1177 1.429 . S
C1181 C1182 1.523 . S
C1182 C1166 1.368 . S
C1182 C1178 1.368 . S
C1182 C1181 1.523 . S
H1183 C1158 0.950 . S
H1184 C1160 0.950 . S
H1185 C1161 0.949 . S
H1186 C1163 0.950 1_565 S
H1187 C1165 0.950 1_565 S
C1188 C1189 1.349 . S
C1188 C1190 1.327 . S
C1188 H1213 0.950 . S
C1189 C1188 1.349 . S
C1189 C1205 1.349 . S
C1190 C1188 1.327 . S
C1190 C1209 1.429 . S
C1190 H1214 0.950 . S
C1191 C1208 1.574 . S
C1191 C1210 1.368 . S
C1191 H1215 0.949 . S
H1192 C1196 0.949 . S
C1193 C1194 1.349 . S
C1193 C1195 1.327 . S
C1193 H1216 0.950 . S
C1194 C1193 1.349 . S
C1194 C1206 1.349 . S
C1195 C1193 1.327 . S
C1195 C1211 1.429 . S
C1195 H1217 0.950 . S
C1196 H1192 0.949 . S
C1196 C1204 1.574 . S
C1196 C1212 1.368 . S
H1197 C1205 0.950 . S
H1198 C1203 0.950 . S
H1199 C1204 0.949 . S
H1200 C1206 0.950 . S
H1201 C1207 0.950 . S
H1202 C1208 0.949 . S
C1203 H1198 0.950 . S
C1203 C1205 1.327 . S
C1203 C1209 1.429 . S
C1204 C1196 1.574 . S
C1204 H1199 0.949 . S
C1204 C1210 1.368 . S
C1205 C1189 1.349 . S
C1205 H1197 0.950 . S
C1205 C1203 1.327 . S
C1206 C1194 1.349 . S
C1206 H1200 0.950 . S
C1206 C1207 1.327 . S
C1207 H1201 0.950 . S
C1207 C1206 1.327 . S
C1207 C1211 1.429 . S
C1208 C1191 1.574 . S
C1208 H1202 0.949 . S
C1208 C1212 1.368 . S
C1209 C1190 1.429 . S
C1209 C1203 1.429 . S
C1209 C1210 1.523 . S
C1210 C1191 1.368 . S
C1210 C1204 1.368 . S
C1210 C1209 1.523 . S
C1211 C1195 1.429 . S
C1211 C1207 1.429 . S
C1211 C1212 1.523 . S
C1212 C1196 1.368 . S
C1212 C1208 1.368 . S
C1212 C1211 1.523 . S
H1213 C1188 0.950 . S
H1214 C1190 0.950 . S
H1215 C1191 0.949 . S
H1216 C1193 0.950 . S
H1217 C1195 0.950 . S
C1218 C1219 1.349 . S
C1218 C1220 1.327 . S
C1218 H1243 0.950 . S
C1219 C1218 1.349 . S
C1219 C1235 1.349 . S
C1220 C1218 1.327 . S
C1220 C1239 1.429 . S
C1220 H1244 0.950 . S
C1221 C1238 1.574 . S
C1221 C1240 1.368 . S
C1221 H1245 0.949 . S
H1222 C1226 0.949 . S
C1223 C1224 1.349 . S
C1223 C1225 1.327 . S
C1223 H1246 0.950 . S
C1224 C1223 1.349 . S
C1224 C1236 1.349 . S
C1225 C1223 1.327 . S
C1225 C1241 1.429 . S
C1225 H1247 0.950 . S
C1226 H1222 0.949 . S
C1226 C1234 1.574 . S
C1226 C1242 1.368 . S
H1227 C1235 0.950 . S
H1228 C1233 0.950 . S
H1229 C1234 0.949 . S
H1230 C1236 0.950 . S
H1231 C1237 0.950 . S
H1232 C1238 0.949 . S
C1233 H1228 0.950 . S
C1233 C1235 1.327 . S
C1233 C1239 1.429 . S
C1234 C1226 1.574 . S
C1234 H1229 0.949 . S
C1234 C1240 1.368 . S
C1235 C1219 1.349 . S
C1235 H1227 0.950 . S
C1235 C1233 1.327 . S
C1236 C1224 1.349 . S
C1236 H1230 0.950 . S
C1236 C1237 1.327 . S
C1237 H1231 0.950 . S
C1237 C1236 1.327 . S
C1237 C1241 1.429 . S
C1238 C1221 1.574 . S
C1238 H1232 0.949 . S
C1238 C1242 1.368 . S
C1239 C1220 1.429 . S
C1239 C1233 1.429 . S
C1239 C1240 1.523 . S
C1240 C1221 1.368 . S
C1240 C1234 1.368 . S
C1240 C1239 1.523 . S
C1241 C1225 1.429 . S
C1241 C1237 1.429 . S
C1241 C1242 1.523 . S
C1242 C1226 1.368 . S
C1242 C1238 1.368 . S
C1242 C1241 1.523 . S
H1243 C1218 0.950 . S
H1244 C1220 0.950 . S
H1245 C1221 0.949 . S
H1246 C1223 0.950 . S
H1247 C1225 0.950 . S
C1248 C1249 1.349 . S
C1248 C1250 1.327 . S
C1248 H1273 0.950 . S
C1249 C1248 1.349 . S
C1249 C1265 1.349 . S
C1250 C1248 1.327 . S
C1250 C1269 1.429 . S
C1250 H1274 0.950 . S
C1251 C1268 1.574 . S
C1251 C1270 1.368 . S
C1251 H1275 0.949 . S
H1252 C1256 0.949 . S
C1253 C1254 1.349 . S
C1253 C1255 1.327 . S
C1253 H1276 0.950 . S
C1254 C1253 1.349 . S
C1254 C1266 1.349 . S
C1255 C1253 1.327 . S
C1255 C1271 1.429 . S
C1255 H1277 0.950 . S
C1256 H1252 0.949 . S
C1256 C1264 1.574 . S
C1256 C1272 1.368 . S
H1257 C1265 0.950 . S
H1258 C1263 0.950 . S
H1259 C1264 0.949 . S
H1260 C1266 0.950 1_455 S
H1261 C1267 0.930 1_455 S
H1262 C1268 0.949 . S
C1263 H1258 0.950 . S
C1263 C1265 1.327 . S
C1263 C1269 1.429 . S
C1264 C1256 1.574 . S
C1264 H1259 0.949 . S
C1264 C1270 1.368 . S
C1265 C1249 1.349 . S
C1265 H1257 0.950 . S
C1265 C1263 1.327 . S
C1266 C1254 1.349 . S
C1266 H1260 0.950 1_655 S
C1266 C1267 1.327 . S
C1267 H1261 0.930 1_655 S
C1267 C1266 1.327 . S
C1267 C1271 1.429 . S
C1268 C1251 1.574 . S
C1268 H1262 0.949 . S
C1268 C1272 1.368 . S
C1269 C1250 1.429 . S
C1269 C1263 1.429 . S
C1269 C1270 1.523 . S
C1270 C1251 1.368 . S
C1270 C1264 1.368 . S
C1270 C1269 1.523 . S
C1271 C1255 1.429 . S
C1271 C1267 1.429 . S
C1271 C1272 1.523 . S
C1272 C1256 1.368 . S
C1272 C1268 1.368 . S
C1272 C1271 1.523 . S
H1273 C1248 0.950 . S
H1274 C1250 0.950 . S
H1275 C1251 0.949 . S
H1276 C1253 0.950 . S
H1277 C1255 0.950 . S
C1278 C1279 1.349 . S
C1278 C1280 1.327 . S
C1278 H1303 0.950 . S
C1279 C1278 1.349 . S
C1279 C1295 1.349 . S
C1280 C1278 1.327 . S
C1280 C1299 1.429 . S
C1280 H1304 0.950 . S
C1281 C1298 1.574 . S
C1281 C1300 1.368 . S
C1281 H1305 0.949 . S
H1282 C1286 0.949 . S
C1283 C1284 1.349 . S
C1283 C1285 1.327 . S
C1283 H1306 0.950 . S
C1284 C1283 1.349 . S
C1284 C1296 1.349 . S
C1285 C1283 1.327 . S
C1285 C1301 1.429 . S
C1285 H1307 0.950 . S
C1286 H1282 0.949 . S
C1286 C1294 1.574 . S
C1286 C1302 1.368 . S
H1287 C1295 0.950 . S
H1288 C1293 0.950 . S
H1289 C1294 0.949 . S
H1290 C1296 0.950 . S
H1291 C1297 0.950 . S
H1292 C1298 0.949 . S
C1293 H1288 0.950 . S
C1293 C1295 1.327 . S
C1293 C1299 1.429 . S
C1294 C1286 1.574 . S
C1294 H1289 0.949 . S
C1294 C1300 1.368 . S
C1295 C1279 1.349 . S
C1295 H1287 0.950 . S
C1295 C1293 1.327 . S
C1296 C1284 1.349 . S
C1296 H1290 0.950 . S
C1296 C1297 1.327 . S
C1297 H1291 0.950 . S
C1297 C1296 1.327 . S
C1297 C1301 1.429 . S
C1298 C1281 1.574 . S
C1298 H1292 0.949 . S
C1298 C1302 1.368 . S
C1299 C1280 1.429 . S
C1299 C1293 1.429 . S
C1299 C1300 1.523 . S
C1300 C1281 1.368 . S
C1300 C1294 1.368 . S
C1300 C1299 1.523 . S
C1301 C1285 1.429 . S
C1301 C1297 1.429 . S
C1301 C1302 1.523 . S
C1302 C1286 1.368 . S
C1302 C1298 1.368 . S
C1302 C1301 1.523 . S
H1303 C1278 0.950 . S
H1304 C1280 0.950 . S
H1305 C1281 0.949 . S
H1306 C1283 0.950 . S
H1307 C1285 0.950 . S
C1308 C1309 1.349 . S
C1308 C1310 1.327 . S
C1308 H1333 0.950 . S
C1309 C1308 1.349 . S
C1309 C1325 1.349 . S
C1310 C1308 1.327 . S
C1310 C1329 1.429 . S
C1310 H1334 0.950 . S
C1311 C1328 1.574 . S
C1311 C1330 1.368 . S
C1311 H1335 0.949 . S
H1312 C1316 0.949 . S
C1313 C1314 1.349 . S
C1313 C1315 1.327 . S
C1313 H1336 0.950 . S
C1314 C1313 1.349 . S
C1314 C1326 1.349 . S
C1315 C1313 1.327 . S
C1315 C1331 1.429 . S
C1315 H1337 0.950 . S
C1316 H1312 0.949 . S
C1316 C1324 1.574 . S
C1316 C1332 1.368 . S
H1317 C1325 0.950 . S
H1318 C1323 0.950 . S
H1319 C1324 0.949 . S
H1320 C1326 0.950 . S
H1321 C1327 0.950 . S
H1322 C1328 0.949 . S
C1323 H1318 0.950 . S
C1323 C1325 1.327 . S
C1323 C1329 1.429 . S
C1324 C1316 1.574 . S
C1324 H1319 0.949 . S
C1324 C1330 1.368 . S
C1325 C1309 1.349 . S
C1325 H1317 0.950 . S
C1325 C1323 1.327 . S
C1326 C1314 1.349 . S
C1326 H1320 0.950 . S
C1326 C1327 1.327 . S
C1327 H1321 0.950 . S
C1327 C1326 1.327 . S
C1327 C1331 1.429 . S
C1328 C1311 1.574 . S
C1328 H1322 0.949 . S
C1328 C1332 1.368 . S
C1329 C1310 1.429 . S
C1329 C1323 1.429 . S
C1329 C1330 1.523 . S
C1330 C1311 1.368 . S
C1330 C1324 1.368 . S
C1330 C1329 1.523 . S
C1331 C1315 1.429 . S
C1331 C1327 1.429 . S
C1331 C1332 1.523 . S
C1332 C1316 1.368 . S
C1332 C1328 1.368 . S
C1332 C1331 1.523 . S
H1333 C1308 0.950 . S
H1334 C1310 0.950 . S
H1335 C1311 0.949 . S
H1336 C1313 0.950 . S
H1337 C1315 0.950 . S
C1338 C1339 1.349 . S
C1338 C1340 1.327 . S
C1338 H1363 0.950 . S
C1339 C1338 1.349 . S
C1339 C1355 1.349 . S
C1340 C1338 1.327 . S
C1340 C1359 1.429 . S
C1340 H1364 0.950 . S
C1341 C1358 1.574 . S
C1341 C1360 1.368 . S
C1341 H1365 0.949 . S
H1342 C1346 0.949 . S
C1343 C1344 1.349 . S
C1343 C1345 1.327 . S
C1343 H1366 0.950 . S
C1344 C1343 1.349 . S
C1344 C1356 1.349 . S
C1345 C1343 1.327 . S
C1345 C1361 1.429 . S
C1345 H1367 0.950 . S
C1346 H1342 0.949 . S
C1346 C1354 1.574 . S
C1346 C1362 1.368 . S
H1347 C1355 0.950 . S
H1348 C1353 0.950 . S
H1349 C1354 0.949 . S
H1350 C1356 0.950 . S
H1351 C1357 0.950 . S
H1352 C1358 0.949 . S
C1353 H1348 0.950 . S
C1353 C1355 1.327 . S
C1353 C1359 1.429 . S
C1354 C1346 1.574 . S
C1354 H1349 0.949 . S
C1354 C1360 1.368 . S
C1355 C1339 1.349 . S
C1355 H1347 0.950 . S
C1355 C1353 1.327 . S
C1356 C1344 1.349 . S
C1356 H1350 0.950 . S
C1356 C1357 1.327 . S
C1357 H1351 0.950 . S
C1357 C1356 1.327 . S
C1357 C1361 1.429 . S
C1358 C1341 1.574 . S
C1358 H1352 0.949 . S
C1358 C1362 1.368 . S
C1359 C1340 1.429 . S
C1359 C1353 1.429 . S
C1359 C1360 1.523 . S
C1360 C1341 1.368 . S
C1360 C1354 1.368 . S
C1360 C1359 1.523 . S
C1361 C1345 1.429 . S
C1361 C1357 1.429 . S
C1361 C1362 1.523 . S
C1362 C1346 1.368 . S
C1362 C1358 1.368 . S
C1362 C1361 1.523 . S
H1363 C1338 0.950 . S
H1364 C1340 0.950 . S
H1365 C1341 0.949 . S
H1366 C1343 0.950 . S
H1367 C1345 0.950 . S
C649 C255 2.093 . S
C654 C375 2.203 . S
C684 C452 2.223 . S
C679 C294 2.094 . S
C714 C543 2.195 . S
C709 C177 2.085 . S
C744 C627 2.187 . S
C739 C216 2.079 . S
C774 C386 2.202 1_565 S
C769 C99 2.100 . S
C799 C138 2.086 . S
C804 C463 2.223 . S
C829 C21 2.092 . S
C834 C554 2.195 . S
C859 C60 2.086 . S
C864 C638 2.187 1_655 S
C894 C370 0.429 1_455 S
C889 C196 0.316 . S
C924 C465 0.523 . S
C919 C235 0.303 . S
C954 C538 0.424 . S
C949 C289 0.321 . S
C979 C157 0.308 . S
C984 C622 0.424 . S
C1009 C40 0.302 . S
C1014 C381 0.429 . S
C1044 C454 0.523 . S
C1039 C79 0.286 . S
C1074 C549 0.424 . S
C1069 C133 0.312 . S
C1099 C1 0.292 . S
C1104 C633 0.424 . S
C1129 C211 2.423 . S
C1134 C379 2.664 . S
C1159 C250 2.413 . S
C1164 C470 2.676 . S
C1194 C547 2.684 . S
C1189 C274 2.447 . S
C1224 C631 2.681 . S
C1219 C172 2.439 . S
C1249 C55 2.421 . S
C1254 C368 2.664 . S
C1284 C459 2.676 . S
C1279 C94 2.410 . S
C1314 C536 2.685 . S
C1309 C118 2.444 . S
C1339 C16 2.437 . S
C1344 C620 2.681 . S
