# Generated by pormake.
# Topology pyr, (3,6)-cn, num edge types: 1
# Building blocks:
#     Node 0, Type 0, BuildingBlock: VETTIZ_charged_linker_0, # of connection points: 3
#     Node 1, Type 0, BuildingBlock: VETTIZ_charged_linker_0, # of connection points: 3
#     Node 2, Type 0, BuildingBlock: VETTIZ_charged_linker_0, # of connection points: 3
#     Node 3, Type 0, BuildingBlock: VETTIZ_charged_linker_0, # of connection points: 3
#     Node 4, Type 0, BuildingBlock: VETTIZ_charged_linker_0, # of connection points: 3
#     Node 5, Type 0, BuildingBlock: VETTIZ_charged_linker_0, # of connection points: 3
#     Node 6, Type 0, BuildingBlock: VETTIZ_charged_linker_0, # of connection points: 3
#     Node 7, Type 0, BuildingBlock: VETTIZ_charged_linker_0, # of connection points: 3
#     Node 8, Type 1, BuildingBlock: BETGAK_clean_sbu_0, # of connection points: 6
#     Node 9, Type 1, BuildingBlock: BETGAK_clean_sbu_0, # of connection points: 6
#     Node 10, Type 1, BuildingBlock: BETGAK_clean_sbu_0, # of connection points: 6
#     Node 11, Type 1, BuildingBlock: BETGAK_clean_sbu_0, # of connection points: 6
#     Edge 12, Type (0, 1), BuildingBlock: XIVTED_clean_linker_0, # of connection points: 2
#     Edge 13, Type (0, 1), BuildingBlock: XIVTED_clean_linker_0, # of connection points: 2
#     Edge 14, Type (0, 1), BuildingBlock: XIVTED_clean_linker_0, # of connection points: 2
#     Edge 15, Type (0, 1), BuildingBlock: XIVTED_clean_linker_0, # of connection points: 2
#     Edge 16, Type (0, 1), BuildingBlock: XIVTED_clean_linker_0, # of connection points: 2
#     Edge 17, Type (0, 1), BuildingBlock: XIVTED_clean_linker_0, # of connection points: 2
#     Edge 18, Type (0, 1), BuildingBlock: XIVTED_clean_linker_0, # of connection points: 2
#     Edge 19, Type (0, 1), BuildingBlock: XIVTED_clean_linker_0, # of connection points: 2
#     Edge 20, Type (0, 1), BuildingBlock: XIVTED_clean_linker_0, # of connection points: 2
#     Edge 21, Type (0, 1), BuildingBlock: XIVTED_clean_linker_0, # of connection points: 2
#     Edge 22, Type (0, 1), BuildingBlock: XIVTED_clean_linker_0, # of connection points: 2
#     Edge 23, Type (0, 1), BuildingBlock: XIVTED_clean_linker_0, # of connection points: 2
#     Edge 24, Type (0, 1), BuildingBlock: XIVTED_clean_linker_0, # of connection points: 2
#     Edge 25, Type (0, 1), BuildingBlock: XIVTED_clean_linker_0, # of connection points: 2
#     Edge 26, Type (0, 1), BuildingBlock: XIVTED_clean_linker_0, # of connection points: 2
#     Edge 27, Type (0, 1), BuildingBlock: XIVTED_clean_linker_0, # of connection points: 2
#     Edge 28, Type (0, 1), BuildingBlock: XIVTED_clean_linker_0, # of connection points: 2
#     Edge 29, Type (0, 1), BuildingBlock: XIVTED_clean_linker_0, # of connection points: 2
#     Edge 30, Type (0, 1), BuildingBlock: XIVTED_clean_linker_0, # of connection points: 2
#     Edge 31, Type (0, 1), BuildingBlock: XIVTED_clean_linker_0, # of connection points: 2
#     Edge 32, Type (0, 1), BuildingBlock: XIVTED_clean_linker_0, # of connection points: 2
#     Edge 33, Type (0, 1), BuildingBlock: XIVTED_clean_linker_0, # of connection points: 2
#     Edge 34, Type (0, 1), BuildingBlock: XIVTED_clean_linker_0, # of connection points: 2
#     Edge 35, Type (0, 1), BuildingBlock: XIVTED_clean_linker_0, # of connection points: 2
# Relax obj value: 0.097
# Max RMSD: 0.121
# Mean RMSD: 0.058
data_MOF--net-pyr--node1-BETGAK_clean_sbu_0--node2-VETTIZ_charged_linker_0--edge1-XIVTED_clean_linker_0
_symmetry_space_group_name_H-M    P1
_symmetry_Int_Tables_number       1
_symmetry_cell_setting            triclinic
loop_
_symmetry_equiv_pos_as_xyz
'x, y, z'
_cell_length_a     46.169917
_cell_length_b     48.702194
_cell_length_c     44.637562
_cell_angle_alpha  90.672776
_cell_angle_beta   88.649434
_cell_angle_gamma 100.70332
loop_
_atom_site_label
_atom_site_type_symbol
_atom_site_fract_x
_atom_site_fract_y
_atom_site_fract_z
_atom_type_partial_charge
C0 C 0.32061 0.25823 0.34096 0.0
C1 C 0.2965 0.26778 0.35469 0.0
C2 C 0.28817 0.29204 0.34337 0.0
C3 C 0.32086 0.29087 0.30042 0.0
C4 C 0.33187 0.26946 0.31339 0.0
C5 C 0.35228 0.25735 0.29232 0.0
H6 H 0.3895 0.23082 0.15003 0.0
C7 C 0.33089 0.29284 0.26874 0.0
C8 C 0.34944 0.2734 0.2638 0.0
H9 H 0.42204 0.20145 0.23156 0.0
H10 H 0.39776 0.23279 0.26074 0.0
H11 H 0.40161 0.29744 0.17187 0.0
H12 H 0.32365 0.23282 0.17427 0.0
H13 H 0.31421 0.26385 0.16114 0.0
H14 H 0.34004 0.24758 0.13979 0.0
H15 H 0.38258 0.28456 0.13846 0.0
H16 H 0.37134 0.31194 0.16094 0.0
C17 C 0.3839 0.26429 0.30477 0.0
C18 C 0.34006 0.22561 0.28871 0.0
C19 C 0.27894 0.34753 0.19868 0.0
C20 C 0.27604 0.34756 0.16745 0.0
C21 C 0.29413 0.33331 0.14947 0.0
C22 C 0.31356 0.3181 0.16265 0.0
C23 C 0.31464 0.31683 0.1941 0.0
C24 C 0.2977 0.33175 0.21144 0.0
C25 C 0.29951 0.32656 0.24432 0.0
C26 C 0.32099 0.30651 0.24412 0.0
C27 C 0.32986 0.3008 0.2147 0.0
C28 C 0.31271 0.35456 0.25979 0.0
C29 C 0.26818 0.31295 0.25625 0.0
C30 C 0.39121 0.23106 0.17419 0.0
C31 C 0.40731 0.21327 0.18853 0.0
C32 C 0.4098 0.21486 0.21994 0.0
C33 C 0.3955 0.23288 0.23691 0.0
C34 C 0.37809 0.2492 0.22248 0.0
C35 C 0.3771 0.24908 0.19159 0.0
C36 C 0.359 0.26947 0.18035 0.0
C37 C 0.34889 0.28126 0.20969 0.0
C38 C 0.35947 0.26856 0.23423 0.0
C39 C 0.37948 0.29204 0.16171 0.0
C40 C 0.33288 0.25279 0.16276 0.0
H41 H 0.29237 0.32142 0.30828 0.0
H42 H 0.32843 0.2404 0.34982 0.0
H43 H 0.31593 0.22187 0.28474 0.0
H44 H 0.34991 0.21586 0.26966 0.0
H45 H 0.3437 0.21409 0.30919 0.0
H46 H 0.38652 0.28219 0.32083 0.0
H47 H 0.38954 0.24619 0.31674 0.0
H48 H 0.40071 0.2709 0.28686 0.0
H49 H 0.26583 0.35861 0.21323 0.0
H50 H 0.2924 0.33297 0.12532 0.0
H51 H 0.32625 0.30713 0.14789 0.0
H52 H 0.33145 0.36618 0.24621 0.0
H53 H 0.29592 0.36811 0.2625 0.0
H54 H 0.32184 0.35161 0.28194 0.0
H55 H 0.25257 0.30594 0.23788 0.0
H56 H 0.2683 0.29371 0.26919 0.0
H57 H 0.25818 0.32778 0.2704 0.0
H58 H 0.27008 0.30037 0.35351 0.0
C59 C 0.30063 0.30388 0.31655 0.0
C60 C 0.20137 0.87998 0.60308 0.0
C61 C 0.19071 0.89707 0.62483 0.0
C62 C 0.20681 0.90386 0.65122 0.0
C63 C 0.24513 0.88023 0.63206 0.0
C64 C 0.22839 0.87163 0.60729 0.0
C65 C 0.24298 0.85349 0.58648 0.0
H66 H 0.36344 0.7981 0.55113 0.0
C67 C 0.27323 0.87026 0.62844 0.0
C68 C 0.27205 0.85428 0.60199 0.0
H69 H 0.27853 0.78007 0.50937 0.0
H70 H 0.26065 0.81338 0.54271 0.0
H71 H 0.36645 0.86759 0.56367 0.0
H72 H 0.33929 0.79139 0.61301 0.0
H73 H 0.3539 0.81689 0.63935 0.0
H74 H 0.37737 0.80766 0.60941 0.0
H75 H 0.39135 0.84571 0.57535 0.0
H76 H 0.38133 0.87228 0.59977 0.0
C77 C 0.24752 0.86747 0.55535 0.0
C78 C 0.22387 0.82371 0.58619 0.0
C79 C 0.35481 0.90288 0.70174 0.0
C80 C 0.38334 0.89728 0.70448 0.0
C81 C 0.39412 0.87988 0.68326 0.0
C82 C 0.37663 0.86842 0.65928 0.0
C83 C 0.34795 0.87409 0.65692 0.0
C84 C 0.33748 0.89093 0.67809 0.0
C85 C 0.30611 0.89365 0.67306 0.0
C86 C 0.29945 0.87583 0.64511 0.0
C87 C 0.32407 0.86471 0.6356 0.0
C88 C 0.30571 0.92487 0.6672 0.0
C89 C 0.28697 0.88121 0.70046 0.0
C90 C 0.34131 0.80208 0.54846 0.0
C91 C 0.32253 0.78716 0.52721 0.0
C92 C 0.29342 0.79176 0.52535 0.0
C93 C 0.28307 0.8108 0.54489 0.0
C94 C 0.30188 0.82474 0.56687 0.0
C95 C 0.33048 0.82024 0.5683 0.0
C96 C 0.34647 0.83434 0.59485 0.0
C97 C 0.32277 0.84812 0.60921 0.0
C98 C 0.29686 0.84279 0.59255 0.0
C99 C 0.37296 0.85607 0.58303 0.0
C100 C 0.35498 0.81159 0.61525 0.0
H101 H 0.24547 0.90219 0.67504 0.0
H102 H 0.1897 0.87413 0.58256 0.0
H103 H 0.20993 0.81958 0.60691 0.0
H104 H 0.23738 0.80716 0.58571 0.0
H105 H 0.20886 0.82073 0.56685 0.0
H106 H 0.25688 0.89012 0.5577 0.0
H107 H 0.22625 0.86543 0.54363 0.0
H108 H 0.2631 0.85866 0.54068 0.0
H109 H 0.34579 0.91565 0.71825 0.0
H110 H 0.41605 0.87524 0.68524 0.0
H111 H 0.386 0.8554 0.64369 0.0
H112 H 0.32405 0.93388 0.65157 0.0
H113 H 0.30846 0.93719 0.68839 0.0
H114 H 0.28543 0.92835 0.65654 0.0
H115 H 0.29729 0.86569 0.71244 0.0
H116 H 0.26514 0.8694 0.69393 0.0
H117 H 0.28382 0.89776 0.71689 0.0
H118 H 0.19877 0.91607 0.66891 0.0
C119 C 0.23397 0.89568 0.65485 0.0
C120 C 0.63437 0.27552 0.90426 0.0
C121 C 0.60815 0.25841 0.89449 0.0
C122 C 0.59353 0.26827 0.87038 0.0
C123 C 0.63085 0.31104 0.86675 0.0
C124 C 0.64509 0.30142 0.89034 0.0
C125 C 0.67228 0.32185 0.89891 0.0
H126 H 0.76861 0.44381 0.87892 0.0
C127 C 0.64799 0.33915 0.85761 0.0
C128 C 0.67227 0.34535 0.87673 0.0
H129 H 0.77001 0.37938 0.94454 0.0
H130 H 0.72541 0.35282 0.92523 0.0
H131 H 0.69794 0.44298 0.88626 0.0
H132 H 0.74718 0.40142 0.8227 0.0
H133 H 0.72078 0.41567 0.80327 0.0
H134 H 0.74923 0.43861 0.82312 0.0
H135 H 0.71989 0.4615 0.85657 0.0
H136 H 0.68225 0.44429 0.85096 0.0
C137 C 0.66789 0.33151 0.93168 0.0
C138 C 0.69922 0.30738 0.89371 0.0
C139 C 0.61561 0.39471 0.77041 0.0
C140 C 0.62685 0.4215 0.75827 0.0
C141 C 0.65258 0.4371 0.771 0.0
C142 C 0.66668 0.42672 0.79488 0.0
C143 C 0.65515 0.40025 0.80688 0.0
C144 C 0.6299 0.38467 0.79478 0.0
C145 C 0.62045 0.35728 0.81133 0.0
C146 C 0.64427 0.35887 0.83492 0.0
C147 C 0.66472 0.38424 0.83205 0.0
C148 C 0.58971 0.35712 0.82586 0.0
C149 C 0.62121 0.33303 0.78891 0.0
C150 C 0.75923 0.42406 0.88924 0.0
C151 C 0.77366 0.41371 0.91318 0.0
C152 C 0.76027 0.38779 0.92569 0.0
C153 C 0.73399 0.37232 0.91451 0.0
C154 C 0.72022 0.38255 0.89037 0.0
C155 C 0.73268 0.40813 0.87822 0.0
C156 C 0.71442 0.4156 0.85282 0.0
C157 C 0.6893 0.39023 0.85164 0.0
C158 C 0.69295 0.37093 0.87378 0.0
C159 C 0.70309 0.4426 0.8618 0.0
C160 C 0.73379 0.4182 0.82386 0.0
H161 H 0.59251 0.30024 0.83829 0.0
H162 H 0.64616 0.26921 0.9229 0.0
H163 H 0.69622 0.29352 0.87359 0.0
H164 H 0.71992 0.32227 0.88907 0.0
H165 H 0.70232 0.2943 0.91316 0.0
H166 H 0.64428 0.332 0.93679 0.0
H167 H 0.67512 0.31717 0.94792 0.0
H168 H 0.67948 0.35308 0.93615 0.0
H169 H 0.5958 0.38211 0.76159 0.0
H170 H 0.66218 0.45748 0.76219 0.0
H171 H 0.68615 0.43985 0.80315 0.0
H172 H 0.58857 0.37788 0.83599 0.0
H173 H 0.57217 0.35238 0.80895 0.0
H174 H 0.58455 0.34205 0.84434 0.0
H175 H 0.6418 0.33713 0.77494 0.0
H176 H 0.62108 0.31293 0.80008 0.0
H177 H 0.60222 0.33055 0.77364 0.0
H178 H 0.57351 0.25574 0.86191 0.0
C179 C 0.60469 0.29422 0.85651 0.0
C180 C 0.92033 0.78605 0.3811 0.0
C181 C 0.90977 0.79955 0.40635 0.0
C182 C 0.88306 0.78653 0.42023 0.0
C183 C 0.87843 0.74733 0.38538 0.0
C184 C 0.90437 0.75986 0.37114 0.0
C185 C 0.91233 0.74172 0.34542 0.0
H186 H 0.87678 0.62169 0.26127 0.0
C187 C 0.86713 0.72021 0.37025 0.0
C188 C 0.88682 0.71659 0.34661 0.0
H189 H 0.95418 0.68666 0.25143 0.0
H190 H 0.93704 0.71217 0.29275 0.0
H191 H 0.87892 0.61995 0.33435 0.0
H192 H 0.82975 0.66253 0.27495 0.0
H193 H 0.80604 0.64719 0.30408 0.0
H194 H 0.82251 0.62518 0.27866 0.0
H195 H 0.84967 0.60149 0.31192 0.0
H196 H 0.84235 0.61604 0.34801 0.0
C197 C 0.94211 0.73326 0.35228 0.0
C198 C 0.91273 0.75825 0.31605 0.0
C199 C 0.77197 0.66053 0.41062 0.0
C200 C 0.75502 0.6345 0.40235 0.0
C201 C 0.76481 0.62046 0.37723 0.0
C202 C 0.79084 0.63188 0.36106 0.0
C203 C 0.80758 0.65781 0.36987 0.0
C204 C 0.79784 0.67164 0.39425 0.0
C205 C 0.81795 0.69903 0.40048 0.0
C206 C 0.84157 0.69943 0.37606 0.0
C207 C 0.83558 0.67524 0.35807 0.0
C208 C 0.83055 0.69749 0.43221 0.0
C209 C 0.8001 0.72273 0.39643 0.0
C210 C 0.89039 0.64123 0.26799 0.0
C211 C 0.91705 0.65185 0.25228 0.0
C212 C 0.93334 0.67782 0.26219 0.0
C213 C 0.92347 0.69267 0.28658 0.0
C214 C 0.89692 0.68168 0.30188 0.0
C215 C 0.88095 0.65624 0.29251 0.0
C216 C 0.85348 0.64731 0.31165 0.0
C217 C 0.85542 0.67149 0.33392 0.0
C218 C 0.88097 0.69187 0.32817 0.0
C219 C 0.85592 0.61965 0.32726 0.0
C220 C 0.82638 0.6452 0.29143 0.0
H221 H 0.84748 0.7524 0.42192 0.0
H222 H 0.94078 0.7953 0.36984 0.0
H223 H 0.89327 0.76868 0.31537 0.0
H224 H 0.91146 0.7448 0.29591 0.0
H225 H 0.93288 0.77468 0.3142 0.0
H226 H 0.943 0.7279 0.37636 0.0
H227 H 0.9608 0.75065 0.34731 0.0
H228 H 0.94566 0.71447 0.33977 0.0
H229 H 0.76512 0.67235 0.42932 0.0
H230 H 0.7526 0.60031 0.37029 0.0
H231 H 0.797 0.62001 0.34234 0.0
H232 H 0.83399 0.67598 0.43706 0.0
H233 H 0.81528 0.70324 0.44979 0.0
H234 H 0.85252 0.71077 0.43477 0.0
H235 H 0.78313 0.71709 0.379 0.0
H236 H 0.81386 0.7424 0.38837 0.0
H237 H 0.7885 0.72694 0.41759 0.0
H238 H 0.87391 0.7964 0.43917 0.0
C239 C 0.86751 0.76082 0.41 0.0
C240 C 0.75222 0.73572 0.88426 0.0
C241 C 0.76964 0.71914 0.86852 0.0
C242 C 0.76674 0.71611 0.83719 0.0
C243 C 0.73358 0.74903 0.83727 0.0
C244 C 0.73406 0.75018 0.86815 0.0
C245 C 0.71382 0.76869 0.88076 0.0
H246 H 0.62631 0.86312 0.85442 0.0
C247 C 0.71462 0.76795 0.82687 0.0
C248 C 0.70194 0.77885 0.85217 0.0
H249 H 0.64963 0.83437 0.94023 0.0
H250 H 0.67612 0.80177 0.91533 0.0
H251 H 0.61466 0.79959 0.81965 0.0
H252 H 0.68026 0.87275 0.82694 0.0
H253 H 0.69337 0.85644 0.79553 0.0
H254 H 0.65804 0.86712 0.79449 0.0
H255 H 0.61395 0.83351 0.8046 0.0
H256 H 0.62997 0.80803 0.78351 0.0
C257 C 0.68925 0.75044 0.89976 0.0
C258 C 0.73272 0.79287 0.8984 0.0
C259 C 0.73024 0.8064 0.72208 0.0
C260 C 0.71968 0.82827 0.70808 0.0
C261 C 0.69384 0.83631 0.71987 0.0
C262 C 0.68136 0.82563 0.7472 0.0
C263 C 0.69484 0.80675 0.76288 0.0
C264 C 0.71758 0.79602 0.74943 0.0
C265 C 0.72856 0.77545 0.76917 0.0
C266 C 0.71076 0.77815 0.79788 0.0
C267 C 0.69142 0.79682 0.79409 0.0
C268 C 0.72054 0.74594 0.75473 0.0
C269 C 0.7621 0.78543 0.77355 0.0
C270 C 0.63652 0.84936 0.8679 0.0
C271 C 0.63578 0.85123 0.8993 0.0
C272 C 0.65009 0.83345 0.91597 0.0
C273 C 0.66541 0.81453 0.90148 0.0
C274 C 0.66686 0.8137 0.86998 0.0
C275 C 0.65231 0.8308 0.8538 0.0
C276 C 0.65743 0.82846 0.82061 0.0
C277 C 0.67735 0.80692 0.81943 0.0
C278 C 0.68272 0.79819 0.84837 0.0
C279 C 0.62746 0.81695 0.8061 0.0
C280 C 0.67293 0.85755 0.80861 0.0
H281 H 0.74783 0.72808 0.7978 0.0
H282 H 0.75335 0.73815 0.90837 0.0
H283 H 0.75383 0.80074 0.88613 0.0
H284 H 0.72205 0.8112 0.90137 0.0
H285 H 0.73816 0.78579 0.9208 0.0
H286 H 0.68284 0.72927 0.8896 0.0
H287 H 0.69673 0.74777 0.92284 0.0
H288 H 0.66868 0.75894 0.90097 0.0
H289 H 0.74968 0.79927 0.71352 0.0
H290 H 0.68434 0.85218 0.70895 0.0
H291 H 0.66267 0.83354 0.75588 0.0
H292 H 0.70517 0.74538 0.73581 0.0
H293 H 0.74045 0.73865 0.74569 0.0
H294 H 0.70896 0.7303 0.77094 0.0
H295 H 0.76681 0.80777 0.7806 0.0
H296 H 0.77119 0.77367 0.79079 0.0
H297 H 0.7747 0.78327 0.75244 0.0
H298 H 0.77869 0.70252 0.82455 0.0
C299 C 0.74875 0.73084 0.8216 0.0
C300 C 0.8182 0.18558 0.49313 0.0
C301 C 0.83334 0.1721 0.47146 0.0
C302 C 0.82503 0.17185 0.44132 0.0
C303 C 0.78449 0.19476 0.45534 0.0
C304 C 0.79399 0.19697 0.48453 0.0
C305 C 0.77484 0.21161 0.50455 0.0
H306 H 0.64915 0.26328 0.52202 0.0
C307 C 0.75686 0.20564 0.45428 0.0
C308 C 0.75119 0.21592 0.4829 0.0
H309 H 0.71971 0.26899 0.58494 0.0
H310 H 0.74652 0.24352 0.55017 0.0
H311 H 0.651 0.19839 0.496 0.0
H312 H 0.68828 0.28246 0.46946 0.0
H313 H 0.68044 0.26327 0.43621 0.0
H314 H 0.6507 0.26715 0.46199 0.0
H315 H 0.62946 0.2228 0.48295 0.0
H316 H 0.64609 0.20121 0.45727 0.0
C317 C 0.76209 0.19173 0.53036 0.0
C318 C 0.79347 0.23971 0.51516 0.0
C319 C 0.69494 0.18767 0.36152 0.0
C320 C 0.66689 0.1926 0.35459 0.0
C321 C 0.65195 0.20762 0.37495 0.0
C322 C 0.66433 0.21644 0.40264 0.0
C323 C 0.69195 0.21025 0.40982 0.0
C324 C 0.70702 0.19668 0.38907 0.0
C325 C 0.73613 0.19201 0.40021 0.0
C326 C 0.7359 0.20464 0.43141 0.0
C327 C 0.70987 0.21494 0.43702 0.0
C328 C 0.7352 0.16002 0.40094 0.0
C329 C 0.76102 0.20841 0.37988 0.0
C330 C 0.6699 0.25819 0.52881 0.0
C331 C 0.68203 0.26737 0.55651 0.0
C332 C 0.70979 0.26163 0.56388 0.0
C333 C 0.72536 0.24715 0.54358 0.0
C334 C 0.71321 0.23891 0.51551 0.0
C335 C 0.68593 0.24456 0.5086 0.0
C336 C 0.67745 0.23681 0.47694 0.0
C337 C 0.70427 0.22573 0.46575 0.0
C338 C 0.72492 0.22648 0.48852 0.0
C339 C 0.64944 0.21371 0.47808 0.0
C340 C 0.67377 0.26364 0.46014 0.0
H341 H 0.7949 0.18156 0.41 0.0
H342 H 0.82461 0.18652 0.51636 0.0
H343 H 0.81188 0.24743 0.49907 0.0
H344 H 0.78051 0.25668 0.51646 0.0
H345 H 0.8033 0.23756 0.53728 0.0
H346 H 0.75319 0.17049 0.52143 0.0
H347 H 0.77941 0.18979 0.54665 0.0
H348 H 0.74368 0.19856 0.5427 0.0
H349 H 0.70705 0.17656 0.34594 0.0
H350 H 0.63031 0.21166 0.36985 0.0
H351 H 0.65168 0.22725 0.41758 0.0
H352 H 0.71354 0.14898 0.40998 0.0
H353 H 0.73829 0.15166 0.37807 0.0
H354 H 0.75174 0.15387 0.41557 0.0
H355 H 0.75389 0.22636 0.36885 0.0
H356 H 0.78063 0.21799 0.3927 0.0
H357 H 0.7678 0.19483 0.36188 0.0
H358 H 0.8364 0.16157 0.42428 0.0
C359 C 0.80073 0.18318 0.43314 0.0
C360 C 0.42268 0.67554 0.29534 0.0
C361 C 0.40944 0.6506 0.31019 0.0
C362 C 0.38197 0.63639 0.29984 0.0
C363 C 0.38149 0.67112 0.26093 0.0
C364 C 0.40817 0.68559 0.27116 0.0
C365 C 0.41808 0.71249 0.25385 0.0
H366 H 0.39141 0.80092 0.14311 0.0
C367 C 0.37205 0.68685 0.23544 0.0
C368 C 0.39341 0.71146 0.23131 0.0
H369 H 0.46547 0.81338 0.20234 0.0
H370 H 0.44659 0.76886 0.2259 0.0
H371 H 0.34164 0.77655 0.1932 0.0
H372 H 0.39268 0.73839 0.12882 0.0
H373 H 0.358 0.71645 0.13077 0.0
H374 H 0.3609 0.75205 0.11835 0.0
H375 H 0.3361 0.77692 0.15355 0.0
H376 H 0.31762 0.74857 0.17662 0.0
C377 C 0.41929 0.73727 0.276 0.0
C378 C 0.44794 0.71123 0.23809 0.0
C379 C 0.27732 0.64692 0.17864 0.0
C380 C 0.26328 0.65682 0.15412 0.0
C381 C 0.27696 0.68243 0.14115 0.0
C382 C 0.3032 0.69799 0.15232 0.0
C383 C 0.31664 0.68816 0.17693 0.0
C384 C 0.30386 0.66291 0.18962 0.0
C385 C 0.32163 0.65598 0.21569 0.0
C386 C 0.34718 0.681 0.21621 0.0
C387 C 0.34394 0.69985 0.19345 0.0
C388 C 0.30203 0.65467 0.24446 0.0
C389 C 0.3324 0.62844 0.20805 0.0
C390 C 0.40349 0.79443 0.16142 0.0
C391 C 0.43006 0.81128 0.17071 0.0
C392 C 0.44512 0.8011 0.19429 0.0
C393 C 0.43398 0.77518 0.2082 0.0
C394 C 0.40733 0.75874 0.19864 0.0
C395 C 0.39275 0.76857 0.17544 0.0
C396 C 0.36522 0.74835 0.16733 0.0
C397 C 0.36513 0.725 0.18973 0.0
C398 C 0.38983 0.73095 0.20833 0.0
C399 C 0.33862 0.76323 0.17267 0.0
C400 C 0.36908 0.73832 0.13459 0.0
H401 H 0.34743 0.6342 0.26883 0.0
H402 H 0.44354 0.68729 0.30282 0.0
H403 H 0.44744 0.69037 0.22747 0.0
H404 H 0.45333 0.72654 0.21986 0.0
H405 H 0.46612 0.71477 0.25437 0.0
H406 H 0.39975 0.73376 0.2915 0.0
H407 H 0.43936 0.73983 0.28978 0.0
H408 H 0.41875 0.75718 0.26472 0.0
H409 H 0.26764 0.62746 0.1894 0.0
H410 H 0.26749 0.69051 0.12192 0.0
H411 H 0.312 0.71726 0.14124 0.0
H412 H 0.28706 0.67009 0.24362 0.0
H413 H 0.28811 0.63362 0.24727 0.0
H414 H 0.31494 0.66027 0.26488 0.0
H415 H 0.34039 0.62846 0.18434 0.0
H416 H 0.3512 0.62533 0.22156 0.0
H417 H 0.31426 0.61013 0.21101 0.0
H418 H 0.37121 0.6172 0.31049 0.0
C419 C 0.36816 0.6463 0.27544 0.0
C420 C 0.11632 0.28586 0.68478 0.0
C421 C 0.1271 0.27222 0.65974 0.0
C422 C 0.15406 0.28507 0.64621 0.0
C423 C 0.15841 0.32443 0.68081 0.0
C424 C 0.13229 0.31203 0.69481 0.0
C425 C 0.12421 0.33028 0.7204 0.0
H426 H 0.15978 0.45052 0.80432 0.0
C427 C 0.16965 0.3516 0.69587 0.0
C428 C 0.1498 0.35535 0.71933 0.0
H429 H 0.08212 0.38584 0.81405 0.0
H430 H 0.0993 0.36013 0.7729 0.0
H431 H 0.15778 0.45211 0.73134 0.0
H432 H 0.20669 0.40955 0.79101 0.0
H433 H 0.23051 0.4248 0.76193 0.0
H434 H 0.21399 0.44689 0.7872 0.0
H435 H 0.18715 0.47056 0.75362 0.0
H436 H 0.19429 0.45578 0.71759 0.0
C437 C 0.09454 0.33882 0.71325 0.0
C438 C 0.12351 0.3138 0.74983 0.0
C439 C 0.26493 0.41119 0.65563 0.0
C440 C 0.28181 0.43727 0.66382 0.0
C441 C 0.27192 0.45139 0.68883 0.0
C442 C 0.24587 0.43998 0.70496 0.0
C443 C 0.22919 0.414 0.69622 0.0
C444 C 0.23902 0.4001 0.67196 0.0
C445 C 0.21897 0.37266 0.6658 0.0
C446 C 0.19524 0.37234 0.6901 0.0
C447 C 0.20116 0.3966 0.70798 0.0
C448 C 0.2065 0.37404 0.63399 0.0
C449 C 0.23683 0.349 0.67009 0.0
C450 C 0.14611 0.43101 0.79762 0.0
C451 C 0.11937 0.42053 0.81325 0.0
C452 C 0.10301 0.39457 0.80336 0.0
C453 C 0.11292 0.3796 0.77907 0.0
C454 C 0.13957 0.39046 0.76385 0.0
C455 C 0.15558 0.41589 0.77321 0.0
C456 C 0.18311 0.42471 0.75415 0.0
C457 C 0.18121 0.40046 0.73199 0.0
C458 C 0.15559 0.38014 0.73769 0.0
C459 C 0.18078 0.45234 0.7384 0.0
C460 C 0.21014 0.42684 0.77449 0.0
H461 H 0.18978 0.31907 0.64477 0.0
H462 H 0.09571 0.27673 0.69582 0.0
H463 H 0.14293 0.30334 0.75075 0.0
H464 H 0.12461 0.3273 0.76993 0.0
H465 H 0.10331 0.2974 0.75154 0.0
H466 H 0.09395 0.34434 0.68918 0.0
H467 H 0.07578 0.32143 0.71793 0.0
H468 H 0.09087 0.35754 0.72583 0.0
H469 H 0.27185 0.39931 0.63701 0.0
H470 H 0.28408 0.47158 0.69571 0.0
H471 H 0.23964 0.45192 0.7236 0.0
H472 H 0.20279 0.39546 0.62912 0.0
H473 H 0.22199 0.3685 0.61651 0.0
H474 H 0.18469 0.36052 0.63129 0.0
H475 H 0.25398 0.35486 0.68731 0.0
H476 H 0.22312 0.32947 0.67856 0.0
H477 H 0.24822 0.34445 0.64892 0.0
H478 H 0.16344 0.27508 0.6275 0.0
C479 C 0.16958 0.31077 0.65647 0.0
La480 La 0.03394 0.04429 0.50733 0.0
La481 La 1.00183 1.02402 0.56362 0.0
C482 C 0.05859 0.07043 0.46252 0.0
C483 C 0.07546 0.0984 0.45581 0.0
C484 C 0.09254 0.11414 0.47788 0.0
C485 C 0.11391 0.13727 0.46988 0.0
C486 C 0.1187 0.14476 0.43965 0.0
C487 C 0.09988 0.13036 0.41797 0.0
C488 C 0.07842 0.10732 0.42602 0.0
C489 C 0.05657 1.00757 0.53744 0.0
C490 C 0.04324 0.08372 0.56577 0.0
C491 C 0.98076 1.00429 0.61263 0.0
C492 C 0.95184 0.9866 0.61927 0.0
C493 C 0.92605 0.99313 0.6073 0.0
C494 C 0.89897 0.97537 0.61168 0.0
C495 C 0.89704 0.95059 0.62795 0.0
C496 C 0.92282 0.94402 0.63994 0.0
C497 C 0.95 0.96193 0.63566 0.0
C498 C 0.96982 0.04489 0.52437 0.0
C499 C 0.99271 0.98574 0.50551 0.0
O500 O 0.07157 0.05571 0.48043 0.0
O501 O 0.0303 0.06793 0.46866 0.0
O502 O 0.05533 1.00788 0.50858 0.0
O503 O 0.0461 1.02755 0.54845 0.0
O504 O 0.04849 0.08078 0.53665 0.0
O505 O 0.02696 0.06331 0.58143 0.0
O506 O 0.98015 1.02988 0.60423 0.0
O507 O 0.99893 0.99253 0.59598 0.0
O508 O 0.96003 1.02403 0.54169 0.0
O509 O 0.99627 0.05389 0.53048 0.0
O510 O 0.99466 0.98626 0.53515 0.0
O511 O 1.00239 1.00864 0.48966 0.0
H512 H 0.09094 0.10735 0.50094 0.0
H513 H 0.12821 0.14784 0.48701 0.0
H514 H 0.10291 0.13594 0.39454 0.0
H515 H 0.06549 0.0954 0.40869 0.0
H516 H 0.92677 1.01179 0.59414 0.0
H517 H 0.87957 0.98082 0.60187 0.0
H518 H 0.92192 0.92518 0.65286 0.0
H519 H 0.96964 0.95637 0.64484 0.0
La520 La 0.54665 0.04415 0.04708 0.0
La521 La 0.49049 1.02712 1.02041 0.0
C522 C 0.59292 0.07155 0.06954 0.0
C523 C 0.59972 0.08813 0.09702 0.0
C524 C 0.62235 0.08263 0.11503 0.0
C525 C 0.6272 0.09571 0.14285 0.0
C526 C 0.60944 0.11453 0.15319 0.0
C527 C 0.58757 0.12098 0.13455 0.0
C528 C 0.58274 0.10785 0.10663 0.0
C529 C 0.51817 0.9947 0.06683 0.0
C530 C 0.49067 0.0656 0.07515 0.0
C531 C 0.44492 1.00026 0.99624 0.0
C532 C 0.43993 0.98549 0.96733 0.0
C533 C 0.42042 0.99383 0.94726 0.0
C534 C 0.41843 0.98311 0.91814 0.0
C535 C 0.43596 0.96383 0.90853 0.0
C536 C 0.45444 0.95442 0.92911 0.0
C537 C 0.45639 0.96515 0.9583 0.0
C538 C 0.51934 0.07644 1.00056 0.0
C539 C 0.54641 1.00481 0.99323 0.0
O540 O 0.58366 0.04485 0.07365 0.0
O541 O 0.57759 0.08157 0.04949 0.0
O542 O 0.54624 1.00138 0.0616 0.0
O543 O 0.50676 1.01603 0.06226 0.0
O544 O 0.51966 0.0697 0.07204 0.0
O545 O 0.47382 0.04586 0.05979 0.0
O546 O 0.45334 1.02728 0.99429 0.0
O547 O 0.46002 0.98954 1.01597 0.0
O548 O 0.49132 0.07004 1.00606 0.0
O549 O 0.53044 0.05493 1.00507 0.0
O550 O 0.51741 1.00102 0.99603 0.0
O551 O 0.56326 1.02473 1.00828 0.0
H552 H 0.63578 0.0676 0.1079 0.0
H553 H 0.64463 0.09079 0.15649 0.0
H554 H 0.57354 0.13536 0.14197 0.0
H555 H 0.56527 0.1126 0.09297 0.0
H556 H 0.4074 1.00936 0.95383 0.0
H557 H 0.40344 0.99023 0.90299 0.0
H558 H 0.46821 0.93959 0.92236 0.0
H559 H 0.47146 0.95817 0.97344 0.0
La560 La 0.52052 0.51192 0.51455 0.0
La561 La 0.51647 0.55995 0.55184 0.0
C562 C 0.54015 0.47235 0.48996 0.0
C563 C 0.55051 0.44876 0.50377 0.0
C564 C 0.5354 0.43494 0.52864 0.0
C565 C 0.54789 0.4158 0.5447 0.0
C566 C 0.57589 0.41052 0.53649 0.0
C567 C 0.59051 0.42372 0.51103 0.0
C568 C 0.5779 0.44266 0.49482 0.0
C569 C 0.46847 0.50853 0.54201 0.0
C570 C 0.54276 0.51372 0.58353 0.0
C571 C 0.49658 0.59921 0.57688 0.0
C572 C 0.4745 0.61488 0.5663 0.0
C573 C 0.48046 0.64413 0.56729 0.0
C574 C 0.46131 0.6593 0.55411 0.0
C575 C 0.43586 0.64544 0.53967 0.0
C576 C 0.42961 0.61611 0.5393 0.0
C577 C 0.4488 0.60096 0.55238 0.0
C578 C 0.5685 0.56299 0.52434 0.0
C579 C 0.4939 0.55783 0.48382 0.0
O580 O 0.51197 0.47284 0.49283 0.0
O581 O 0.55647 0.49675 0.49552 0.0
O582 O 0.47239 0.49967 0.51498 0.0
O583 O 0.49339 0.51778 0.55299 0.0
O584 O 0.54128 0.50156 0.55663 0.0
O585 O 0.53256 0.53714 0.5879 0.0
O586 O 0.5213 0.60292 0.5613 0.0
O587 O 0.48696 0.57285 0.58305 0.0
O588 O 0.56467 0.57158 0.55153 0.0
O589 O 0.54352 0.55409 0.51334 0.0
O590 O 0.49043 0.56628 0.51185 0.0
O591 O 0.50927 0.53787 0.47838 0.0
H592 H 0.51447 0.4397 0.53641 0.0
H593 H 0.53618 0.40602 0.56426 0.0
H594 H 0.61184 0.41958 0.50376 0.0
H595 H 0.59002 0.45329 0.4759 0.0
H596 H 0.50024 0.65524 0.57772 0.0
H597 H 0.46641 0.6819 0.55529 0.0
H598 H 0.4103 0.60486 0.52821 0.0
H599 H 0.44386 0.57836 0.55088 0.0
La600 La 0.02044 0.51001 0.04597 0.0
La601 La 0.01663 0.56365 1.01904 0.0
C602 C 0.03709 0.46528 0.05927 0.0
C603 C 0.0643 0.45665 0.06921 0.0
C604 C 0.0783 0.46723 0.09565 0.0
C605 C 0.10346 0.45781 0.10493 0.0
C606 C 0.1152 0.43786 0.08782 0.0
C607 C 0.10157 0.42788 0.06102 0.0
C608 C 0.07629 0.43709 0.0519 0.0
C609 C 0.9914 0.54149 0.08009 0.0
C610 C 0.07345 0.56233 0.05535 0.0
C611 C 1.0 0.60837 1.00562 0.0
C612 C 0.97454 0.6168 0.99154 0.0
C613 C 0.96143 0.60298 0.96609 0.0
C614 C 0.93745 0.61181 0.95312 0.0
C615 C 0.92601 0.63434 0.96561 0.0
C616 C 0.93885 0.64769 0.99142 0.0
C617 C 0.96295 0.63904 1.00418 0.0
C618 C 0.04556 0.53196 0.9849 0.0
C619 C 0.9634 0.5113 1.00975 0.0
O620 O 0.0234 0.47952 0.07812 0.0
O621 O 0.03809 0.47514 1.0321 0.0
O622 O 0.98463 0.51446 0.07784 0.0
O623 O 1.01451 0.54971 0.06437 0.0
O624 O 0.06488 0.53474 0.05519 0.0
O625 O 0.05627 0.57859 0.04457 0.0
O626 O 0.01749 0.59633 0.98854 0.0
O627 O 0.99457 0.59612 1.03156 0.0
O628 O 0.05234 0.55899 0.98699 0.0
O629 O 0.02246 0.52396 1.00065 0.0
O630 O 0.97272 0.53875 1.00836 0.0
O631 O 0.97981 0.49504 1.02195 0.0
H632 H 0.06973 0.48256 0.10931 0.0
H633 H 0.1137 0.46605 0.12556 0.0
H634 H 0.10992 0.41228 0.04755 0.0
H635 H 0.06586 0.42866 1.03142 0.0
H636 H 0.96974 0.58548 0.95619 0.0
H637 H 0.92778 0.60097 0.9334 0.0
H638 H 0.93072 0.66527 1.00135 0.0
H639 H 0.9727 0.64986 1.02391 0.0
H640 H 0.28326 0.21074 0.35356 0.0
H641 H 0.14254 0.19634 0.46355 0.0
H642 H 0.26167 0.28198 0.40193 0.0
H643 H 0.1573 0.13672 0.39525 0.0
H644 H 0.18968 0.22621 0.44859 0.0
H645 H 0.24239 0.18103 0.37846 0.0
C646 C 0.27054 0.22021 0.37005 0.0
C647 C 0.27603 0.2492 0.37531 0.0
C648 C 0.18244 0.2066 0.43694 0.0
C649 C 0.22779 0.21492 0.40309 0.0
C650 C 0.15562 0.18964 0.44537 0.0
C651 C 0.14584 0.16427 0.43026 0.0
C652 C 0.19966 0.19772 0.4137 0.0
C653 C 0.16363 0.15639 0.40704 0.0
C654 C 0.24671 0.20312 0.38393 0.0
C655 C 0.25797 0.25989 0.39662 0.0
N656 N 0.18963 0.17299 0.39957 0.0
N657 N 0.23435 0.24279 0.40946 0.0
H658 H 0.39682 0.95147 0.72261 0.0
H659 H 0.43559 0.91081 0.88657 0.0
H660 H 0.40824 0.86855 0.74584 0.0
H661 H 0.43563 0.99531 0.85844 0.0
H662 H 0.43109 0.89544 0.8342 0.0
H663 H 0.41694 0.96876 0.77078 0.0
C664 C 0.40412 0.93705 0.73777 0.0
C665 C 0.40073 0.90859 0.73056 0.0
C666 C 0.43239 0.91739 0.83948 0.0
C667 C 0.4231 0.92793 0.7859 0.0
C668 C 0.43498 0.92616 0.86935 0.0
C669 C 0.4354 0.95429 0.8769 0.0
C670 C 0.43012 0.93689 0.81711 0.0
C671 C 0.43453 0.97329 0.85371 0.0
C672 C 0.41555 0.94685 0.76526 0.0
C673 C 0.41058 0.89067 0.75072 0.0
N674 N 0.43165 0.9642 0.82493 0.0
N675 N 0.42088 0.90056 0.7778 0.0
H676 H 0.60324 0.39595 0.70586 0.0
H677 H 0.5541 0.53412 0.64102 0.0
H678 H 0.61727 0.47542 0.75193 0.0
H679 H 0.5594 0.46192 0.58593 0.0
H680 H 0.57317 0.5114 0.68308 0.0
H681 H 0.58279 0.41771 0.66358 0.0
C682 C 0.60182 0.41787 0.70731 0.0
C683 C 0.61229 0.43374 0.73275 0.0
C684 C 0.57018 0.50045 0.66181 0.0
C685 C 0.58866 0.45901 0.68401 0.0
C686 C 0.55921 0.51347 0.63763 0.0
C687 C 0.55496 0.50008 0.60951 0.0
C688 C 0.57681 0.47348 0.65835 0.0
C689 C 0.56216 0.4732 0.60696 0.0
C690 C 0.5903 0.43038 0.68297 0.0
C691 C 0.60994 0.46223 0.73286 0.0
N692 N 0.57252 0.46084 0.6309 0.0
N693 N 0.59843 0.47378 0.70915 0.0
H694 H 0.95069 0.67262 0.20201 0.0
H695 H 0.9488 0.52301 0.12281 0.0
H696 H 0.90855 0.59444 0.24158 0.0
H697 H 1.00708 0.59796 0.09361 0.0
H698 H 0.93073 0.54958 0.1639 0.0
H699 H 0.96863 0.64662 0.16054 0.0
C700 C 0.94524 0.65004 0.20233 0.0
C701 C 0.92791 0.63604 0.22599 0.0
C702 C 0.94743 0.56032 0.14853 0.0
C703 C 0.94822 0.60581 0.17734 0.0
C704 C 0.95775 0.54512 0.12491 0.0
C705 C 0.97956 0.55815 0.10451 0.0
C706 C 0.95869 0.58905 0.15194 0.0
C707 C 0.99021 0.58695 0.10861 0.0
C708 C 0.95545 0.63516 0.17831 0.0
C709 C 0.9213 0.60657 0.22404 0.0
N710 N 0.97968 0.60136 0.1317 0.0
N711 N 0.93134 0.59263 0.20034 0.0
H712 H 0.46183 0.19962 0.19464 0.0
H713 H 0.43348 0.07358 0.07566 0.0
H714 H 0.38244 0.17855 0.14362 0.0
H715 H 0.51692 0.10201 0.11795 0.0
H716 H 0.41304 0.10952 0.10328 0.0
H717 H 0.48144 0.16228 0.16878 0.0
C718 C 0.44855 0.18715 0.17794 0.0
C719 C 0.42045 0.1922 0.17128 0.0
C720 C 0.43581 0.10783 0.10658 0.0
C721 C 0.44272 0.14932 0.14164 0.0
C722 C 0.44743 0.08717 0.091 0.0
C723 C 0.47706 0.08492 0.09432 0.0
C724 C 0.45388 0.1263 0.12574 0.0
C725 C 0.49411 0.10321 0.11439 0.0
C726 C 0.45977 0.16586 0.16315 0.0
C727 C 0.40434 0.17559 0.14921 0.0
N728 N 0.48231 0.12317 0.12926 0.0
N729 N 0.41564 0.1548 0.13528 0.0
H730 H 0.18112 0.94905 0.64191 0.0
H731 H 0.06782 0.95746 0.51823 0.0
H732 H 0.14078 0.87492 0.59339 0.0
H733 H 0.07469 1.01241 0.59525 0.0
H734 H 0.09439 0.9266 0.54505 0.0
H735 H 0.14208 0.97236 0.62597 0.0
C736 C 0.16376 0.93732 0.62851 0.0
C737 C 0.16462 0.90991 0.61877 0.0
C738 C 0.08967 0.94518 0.55626 0.0
C739 C 0.1203 0.93715 0.59953 0.0
C740 C 0.07474 0.96284 0.54092 0.0
C741 C 0.0696 0.98759 0.55451 0.0
C742 C 0.10003 0.95275 0.58505 0.0
C743 C 0.07857 0.99356 0.584 0.0
C744 C 0.14151 0.95082 0.61925 0.0
C745 C 0.14164 0.89628 0.60079 0.0
N746 N 0.0939 0.97649 0.59817 0.0
N747 N 0.12071 0.91023 0.59127 0.0
H748 H 0.82051 0.39164 0.93286 0.0
H749 H 0.92198 0.53693 0.98268 0.0
H750 H 0.79351 0.47097 0.9213 0.0
H751 H 0.93957 0.45545 1.00373 0.0
H752 H 0.87641 0.51433 0.95815 0.0
H753 H 0.86546 0.41562 0.95611 0.0
C754 C 0.82383 0.41414 0.9353 0.0
C755 C 0.80255 0.42906 0.92534 0.0
C756 C 0.89023 0.50143 0.9682 0.0
C757 C 0.85512 0.45712 0.95198 0.0
C758 C 0.91631 0.51433 0.9823 0.0
C759 C 0.93488 0.49818 0.99552 0.0
C760 C 0.88257 0.47208 0.96702 0.0
C761 C 0.92617 0.46893 0.99405 0.0
C762 C 0.84978 0.42791 0.94856 0.0
C763 C 0.80907 0.45841 0.92848 0.0
N764 N 0.9009 0.45697 0.9801 0.0
N765 N 0.8346 0.47141 0.94158 0.0
H766 H 0.70228 0.60426 0.3817 0.0
H767 H 0.62238 0.5886 0.54448 0.0
H768 H 0.74443 0.63644 0.46343 0.0
H769 H 0.57857 0.5567 0.46364 0.0
H770 H 0.66762 0.60472 0.51506 0.0
H771 H 0.65757 0.58528 0.41094 0.0
C772 C 0.70233 0.60723 0.40577 0.0
C773 C 0.72745 0.6222 0.41991 0.0
C774 C 0.6482 0.59413 0.50366 0.0
C775 C 0.67579 0.60053 0.45372 0.0
C776 C 0.6223 0.58485 0.52052 0.0
C777 C 0.59653 0.57131 0.50657 0.0
C778 C 0.64858 0.58994 0.47242 0.0
C779 C 0.59788 0.56705 0.47537 0.0
C780 C 0.67662 0.59647 0.42247 0.0
C781 C 0.72568 0.62554 0.45126 0.0
N782 N 0.62336 0.57639 0.45938 0.0
N783 N 0.70047 0.61488 0.46695 0.0
H784 H 0.22027 0.34646 0.1897 0.0
H785 H 0.16428 0.4286 0.05607 0.0
H786 H 0.27772 0.37784 0.11511 0.0
H787 H 0.12338 0.42026 0.14421 0.0
H788 H 0.20427 0.40669 0.0744 0.0
H789 H 0.18249 0.36954 0.17021 0.0
C790 C 0.22513 0.35847 0.16934 0.0
C791 C 0.25259 0.36068 0.1544 0.0
C792 C 0.18661 0.40986 0.08971 0.0
C793 C 0.20875 0.38673 0.13147 0.0
C794 C 0.16379 0.42223 0.07928 0.0
C795 C 0.14052 0.42628 0.0987 0.0
C796 C 0.18585 0.4011 0.11961 0.0
C797 C 0.14102 0.41783 0.12857 0.0
C798 C 0.20339 0.37155 0.15814 0.0
C799 C 0.25694 0.37562 0.12741 0.0
N800 N 0.16318 0.40549 0.13803 0.0
N801 N 0.23523 0.38815 0.11679 0.0
H802 H 0.63833 0.21911 0.91716 0.0
H803 H 0.49282 0.11881 0.98284 0.0
H804 H 0.54998 0.23418 0.90691 0.0
H805 H 0.57813 0.09493 0.98252 0.0
H806 H 0.5144 0.16193 0.95707 0.0
H807 H 0.61799 0.1751 0.94269 0.0
C808 C 0.61467 0.21335 0.92029 0.0
C809 C 0.596 0.23081 0.90963 0.0
C810 C 0.52855 0.14737 0.96252 0.0
C811 C 0.57239 0.17982 0.93914 0.0
C812 C 0.51619 0.12259 0.97736 0.0
C813 C 0.53355 0.10291 0.98492 0.0
C814 C 0.55882 0.15311 0.95509 0.0
C815 C 0.56379 0.10933 0.97715 0.0
C816 C 0.60305 0.188 0.9348 0.0
C817 C 0.56544 0.22159 0.91421 0.0
N818 N 0.57543 0.13381 0.96278 0.0
N819 N 0.55476 0.19704 0.92861 0.0
H820 H 0.93651 0.84819 0.37703 0.0
H821 H 0.97099 0.93493 0.53118 0.0
H822 H 0.91952 0.81337 0.46543 0.0
H823 H 0.98796 0.97369 0.44456 0.0
H824 H 0.95339 0.89024 0.50653 0.0
H825 H 0.95748 0.89366 0.40005 0.0
C826 C 0.93748 0.84994 0.4012 0.0
C827 C 0.92587 0.82677 0.41921 0.0
C828 C 0.96092 0.90844 0.49277 0.0
C829 C 0.94965 0.87899 0.44583 0.0
C830 C 0.97099 0.93417 0.50692 0.0
C831 C 0.98102 0.95844 0.49009 0.0
C832 C 0.96072 0.90651 0.46129 0.0
C833 C 0.98039 0.9557 0.4586 0.0
C834 C 0.94925 0.87601 0.41437 0.0
C835 C 0.92764 0.83057 0.45049 0.0
N836 N 0.97047 0.93032 0.44528 0.0
N837 N 0.93907 0.85596 0.46264 0.0
H838 H 0.37207 0.78905 0.49227 0.0
H839 H 0.37541 0.63527 0.54172 0.0
H840 H 0.29654 0.73232 0.52773 0.0
H841 H 0.45038 0.69237 0.5053 0.0
H842 H 0.34307 0.66578 0.52412 0.0
H843 H 0.39694 0.7496 0.48281 0.0
C844 C 0.36035 0.76809 0.497 0.0
C845 C 0.33251 0.76384 0.5112 0.0
C846 C 0.36655 0.67142 0.51951 0.0
C847 C 0.36108 0.71884 0.50165 0.0
C848 C 0.38503 0.65398 0.52954 0.0
C849 C 0.41571 0.66168 0.52564 0.0
C850 C 0.37886 0.69683 0.5057 0.0
C851 C 0.42693 0.68611 0.50964 0.0
C852 C 0.3746 0.74559 0.49187 0.0
C853 C 0.31812 0.73639 0.51688 0.0
N854 N 0.40856 0.70303 0.50068 0.0
N855 N 0.3329 0.71493 0.51284 0.0
H856 H 0.72728 0.88505 0.70138 0.0
H857 H 0.8837 0.8934 0.62365 0.0
H858 H 0.75665 0.81239 0.66399 0.0
H859 H 0.84443 0.96558 0.64311 0.0
H860 H 0.83606 0.86325 0.63451 0.0
H861 H 0.7671 0.91472 0.67457 0.0
C862 C 0.74149 0.87517 0.68688 0.0
C863 C 0.73874 0.84594 0.68559 0.0
C864 C 0.83778 0.8857 0.63601 0.0
C865 C 0.78555 0.88023 0.65564 0.0
C866 C 0.86502 0.90288 0.63013 0.0
C867 C 0.86808 0.93201 0.6328 0.0
C868 C 0.81355 0.89774 0.64499 0.0
C869 C 0.84305 0.94324 0.6407 0.0
C870 C 0.76461 0.89229 0.67178 0.0
C871 C 0.75839 0.83475 0.66655 0.0
N872 N 0.81695 0.92608 0.64684 0.0
N873 N 0.78136 0.8519 0.65285 0.0
H874 H 0.65993 0.13878 0.33609 0.0
H875 H 0.60964 0.16858 0.1719 0.0
H876 H 0.64248 0.2191 0.31039 0.0
H877 H 0.61703 0.08708 0.20431 0.0
H878 H 0.61863 0.18754 0.22271 0.0
H879 H 0.64136 0.11931 0.28829 0.0
C880 C 0.652 0.15225 0.32028 0.0
C881 C 0.65298 0.18058 0.32685 0.0
C882 C 0.61807 0.16548 0.21868 0.0
C883 C 0.63186 0.15859 0.27198 0.0
C884 C 0.6129 0.15467 0.18975 0.0
C885 C 0.61311 0.12633 0.18384 0.0
C886 C 0.62343 0.14776 0.24169 0.0
C887 C 0.61745 0.10919 0.20771 0.0
C888 C 0.64132 0.14115 0.29304 0.0
C889 C 0.64208 0.19713 0.30595 0.0
N890 N 0.62263 0.12021 0.23549 0.0
N891 N 0.63226 0.18595 0.27915 0.0
H892 H 0.46651 0.64102 0.3153 0.0
H893 H 0.448 0.58696 0.48549 0.0
H894 H 0.38432 0.63311 0.365 0.0
H895 H 0.51111 0.56106 0.42387 0.0
H896 H 0.42837 0.61039 0.44416 0.0
H897 H 0.48726 0.61865 0.35703 0.0
C898 C 0.4529 0.63491 0.33508 0.0
C899 C 0.42351 0.63904 0.3364 0.0
C900 C 0.4465 0.59957 0.43963 0.0
C901 C 0.44734 0.61345 0.38468 0.0
C902 C 0.45783 0.5862 0.46332 0.0
C903 C 0.48128 0.57176 0.4584 0.0
C904 C 0.459 0.59922 0.41056 0.0
C905 C 0.4929 0.57163 0.4289 0.0
C906 C 0.46471 0.62192 0.35885 0.0
C907 C 0.40699 0.63032 0.36272 0.0
N908 N 0.48188 0.58524 0.40631 0.0
N909 N 0.41909 0.61821 0.38568 0.0
H910 H 0.0853 0.40007 0.86339 0.0
H911 H 0.08866 0.54995 0.9425 0.0
H912 H 0.12828 0.47798 0.82382 0.0
H913 H 0.02901 0.4756 0.9711 0.0
H914 H 0.10656 0.52311 0.90152 0.0
H915 H 0.06746 0.42634 0.90471 0.0
C916 C 0.09095 0.42265 0.86303 0.0
C917 C 0.1085 0.43649 0.83942 0.0
C918 C 0.08961 0.51257 0.91675 0.0
C919 C 0.08831 0.46701 0.8879 0.0
C920 C 0.07938 0.52791 0.94031 0.0
C921 C 0.05725 0.51513 0.96053 0.0
C922 C 0.07794 0.48393 0.91322 0.0
C923 C 0.04618 0.48642 0.95629 0.0
C924 C 0.0808 0.43768 0.88697 0.0
C925 C 0.11536 0.46595 0.84133 0.0
N926 N 0.05663 0.47186 0.93328 0.0
N927 N 0.10538 0.48004 0.86495 0.0
H928 H 0.65748 0.88663 0.94485 0.0
H929 H 0.52105 0.96672 0.95134 0.0
H930 H 0.58283 0.86601 0.88706 0.0
H931 H 0.60299 0.99595 0.99608 0.0
H932 H 0.54232 0.92887 0.92851 0.0
H933 H 0.63629 0.92517 0.96612 0.0
C934 C 0.63644 0.89 0.93692 0.0
C935 C 0.62187 0.87307 0.91419 0.0
C936 C 0.55571 0.94368 0.94317 0.0
C937 C 0.5977 0.91742 0.93807 0.0
C938 C 0.54355 0.96529 0.9562 0.0
C939 C 0.56015 0.98441 0.97582 0.0
C940 C 0.5846 0.94103 0.95002 0.0
C941 C 0.58937 0.98175 0.98104 0.0
C942 C 0.6245 0.91219 0.94882 0.0
C943 C 0.5949 0.8787 0.90439 0.0
N944 N 0.60056 0.96032 0.96844 0.0
N945 N 0.58366 0.90037 0.9164 0.0
H946 H 0.82786 0.13401 0.51606 0.0
H947 H 0.98575 0.09377 0.49364 0.0
H948 H 0.88814 0.17185 0.44647 0.0
H949 H 0.91002 0.0367 0.52863 0.0
H950 H 0.95326 0.12609 0.48017 0.0
H951 H 0.86156 0.10242 0.52698 0.0
C952 C 0.84847 0.13595 0.50345 0.0
C953 C 0.85537 0.15554 0.48043 0.0
C954 C 0.94382 0.10634 0.49051 0.0
C955 C 0.8937 0.11932 0.49246 0.0
C956 C 0.96226 0.0879 0.49806 0.0
C957 C 0.95047 0.06264 0.51228 0.0
C958 C 0.91363 0.09956 0.49781 0.0
C959 C 0.91997 0.05601 0.51772 0.0
C960 C 0.86747 0.11772 0.5094 0.0
C961 C 0.88209 0.15691 0.46436 0.0
N962 N 0.90262 0.07454 0.51082 0.0
N963 N 0.90042 0.13902 0.47073 0.0
H964 H 0.24359 0.59948 0.14698 0.0
H965 H 0.0964 0.61817 0.06214 0.0
H966 H 0.21674 0.6785 0.13293 0.0
H967 H 0.11554 0.53699 0.08192 0.0
H968 H 0.14142 0.63992 0.08703 0.0
H969 H 0.19784 0.57569 0.1235 0.0
C970 C 0.22812 0.61188 0.13923 0.0
C971 C 0.23456 0.64125 0.14178 0.0
C972 C 0.13592 0.61733 0.08598 0.0
C973 C 0.18199 0.61397 0.1144 0.0
C974 C 0.11008 0.6048 0.07159 0.0
C975 C 0.10187 0.57555 0.06971 0.0
C976 C 0.15419 0.60071 0.09877 0.0
C977 C 0.12082 0.55959 0.08265 0.0
C978 C 0.20201 0.59824 0.1256 0.0
C979 C 0.21344 0.65598 0.13098 0.0
N980 N 0.14599 0.57232 0.09656 0.0
N981 N 0.18845 0.64229 0.11781 0.0
H982 H 0.33444 0.46768 0.68449 0.0
H983 H 0.41464 0.4829 0.52184 0.0
H984 H 0.29252 0.43514 0.60278 0.0
H985 H 0.45828 0.51508 0.60267 0.0
H986 H 0.36935 0.46687 0.55121 0.0
H987 H 0.37918 0.48666 0.65528 0.0
C988 C 0.33445 0.46463 0.66042 0.0
C989 C 0.30939 0.44956 0.64628 0.0
C990 C 0.38874 0.4775 0.56262 0.0
C991 C 0.36107 0.47123 0.61251 0.0
C992 C 0.41467 0.48673 0.5458 0.0
C993 C 0.44042 0.50032 0.55976 0.0
C994 C 0.38831 0.4818 0.59384 0.0
C995 C 0.439 0.5047 0.59092 0.0
C996 C 0.36018 0.47539 0.64374 0.0
C997 C 0.31123 0.44612 0.61495 0.0
N998 N 0.41349 0.49541 0.60689 0.0
N999 N 0.33645 0.45678 0.59928 0.0
H1000 H 0.76567 0.69523 0.92476 0.0
H1001 H 0.91991 0.64378 0.90612 0.0
H1002 H 0.82438 0.71316 0.8478 0.0
H1003 H 0.87671 0.64879 0.99224 0.0
H1004 H 0.88098 0.66338 0.88285 0.0
H1005 H 0.80283 0.67342 0.94886 0.0
C1006 C 0.7863 0.69467 0.91293 0.0
C1007 C 0.79167 0.70584 0.88401 0.0
C1008 C 0.87996 0.66014 0.90684 0.0
C1009 C 0.83397 0.68053 0.91126 0.0
C1010 C 0.90204 0.64874 0.92008 0.0
C1011 C 0.90155 0.64471 0.95115 0.0
C1012 C 0.85702 0.66736 0.92472 0.0
C1013 C 0.87804 0.65184 0.96823 0.0
C1014 C 0.80742 0.6821 0.92665 0.0
C1015 C 0.81879 0.70423 0.86974 0.0
N1016 N 0.85666 0.6628 0.95479 0.0
N1017 N 0.83878 0.69175 0.88343 0.0
H1018 H 0.39973 0.85094 0.14906 0.0
H1019 H 0.54492 0.95225 0.08393 0.0
H1020 H 0.48814 0.83543 0.15753 0.0
H1021 H 0.45936 0.97563 0.08446 0.0
H1022 H 0.52349 0.90872 0.10901 0.0
H1023 H 0.41987 0.89521 0.12395 0.0
C1024 C 0.42336 0.85664 0.14561 0.0
C1025 C 0.4421 0.83898 0.15567 0.0
C1026 C 0.50925 0.92326 0.10377 0.0
C1027 C 0.46549 0.89032 0.12668 0.0
C1028 C 0.52152 0.94828 0.08932 0.0
C1029 C 0.50406 0.96796 0.08204 0.0
C1030 C 0.47897 0.91727 0.11108 0.0
C1031 C 0.47379 0.96126 0.08965 0.0
C1032 C 0.43487 0.88216 0.13135 0.0
C1033 C 0.47262 0.84816 0.15071 0.0
N1034 N 0.46224 0.93656 0.10366 0.0
N1035 N 0.48319 0.87289 0.1366 0.0
H1036 H 0.11877 0.25818 0.60052 0.0
H1037 H 0.04282 0.09731 0.62627 0.0
H1038 H 0.09885 0.22386 0.68881 0.0
H1039 H 0.07 0.13342 0.54004 0.0
H1040 H 0.0609 0.14295 0.64994 0.0
H1041 H 0.09827 0.21288 0.57868 0.0
C1042 C 0.11003 0.24111 0.61543 0.0
C1043 C 0.11102 0.24504 0.64672 0.0
C1044 C 0.06298 0.14084 0.62585 0.0
C1045 C 0.08704 0.19232 0.62144 0.0
C1046 C 0.05268 0.1147 0.61225 0.0
C1047 C 0.05503 0.11115 0.58095 0.0
C1048 C 0.07562 0.16387 0.60812 0.0
C1049 C 0.06795 0.13474 0.56417 0.0
C1050 C 0.09823 0.21509 0.60284 0.0
C1051 C 0.09861 0.22201 0.66463 0.0
N1052 N 0.07762 0.15985 0.57788 0.0
N1053 N 0.08736 0.19667 0.65178 0.0
H1054 H 0.70638 0.31931 0.57667 0.0
H1055 H 0.55041 0.35971 0.55991 0.0
H1056 H 0.62443 0.26018 0.5754 0.0
H1057 H 0.63328 0.41757 0.55373 0.0
H1058 H 0.57572 0.32545 0.58232 0.0
H1059 H 0.67891 0.35682 0.58675 0.0
C1060 C 0.68267 0.31406 0.57983 0.0
C1061 C 0.66751 0.28682 0.57445 0.0
C1062 C 0.58829 0.34582 0.57656 0.0
C1063 C 0.63595 0.32958 0.58484 0.0
C1064 C 0.57384 0.3654 0.56378 0.0
C1065 C 0.58995 0.39119 0.55413 0.0
C1066 C 0.61907 0.35205 0.57951 0.0
C1067 C 0.62021 0.39752 0.55989 0.0
C1068 C 0.66693 0.33553 0.58521 0.0
C1069 C 0.6368 0.28112 0.57877 0.0
N1070 N 0.63389 0.37791 0.57173 0.0
N1071 N 0.62192 0.30245 0.5829 0.0
loop_
_geom_bond_atom_site_label_1
_geom_bond_atom_site_label_2
_geom_bond_distance
_geom_bond_site_symmetry_2
_ccdc_geom_bond_type
C0 C1 1.391 . S
C0 C4 1.391 . S
C0 H42 0.948 . S
C1 C0 1.391 . S
C1 C2 1.391 . S
C2 C1 1.391 . S
C2 H58 0.947 . S
C2 C59 1.392 . S
C3 C4 1.391 . S
C3 C7 1.397 . S
C3 C59 1.419 . S
C4 C0 1.391 . S
C4 C3 1.391 . S
C4 C5 1.399 . S
C5 C4 1.399 . S
C5 C8 1.396 . S
C5 C17 1.453 . S
C5 C18 1.684 . S
H6 C30 0.948 . S
C7 C3 1.397 . S
C7 C8 1.394 . S
C7 C26 1.723 . S
C8 C5 1.396 . S
C8 C7 1.394 . S
C8 C38 1.723 . S
H9 C32 0.947 . S
H10 C33 0.948 . S
H11 C39 0.982 . S
H12 C40 0.979 . S
H13 C40 0.980 . S
H14 C40 0.983 . S
H15 C39 0.979 . S
H16 C39 0.977 . S
C17 C5 1.453 . S
C17 H46 0.982 . S
C17 H47 0.979 . S
C17 H48 0.977 . S
C18 C5 1.684 . S
C18 H43 0.979 . S
C18 H44 0.980 . S
C18 H45 0.983 . S
C19 C20 1.391 . S
C19 C24 1.391 . S
C19 H49 0.948 . S
C20 C19 1.391 . S
C20 C21 1.391 . S
C21 C20 1.391 . S
C21 C22 1.392 . S
C21 H50 0.947 . S
C22 C21 1.392 . S
C22 C23 1.419 . S
C22 H51 0.948 . S
C23 C22 1.419 . S
C23 C24 1.391 . S
C23 C27 1.397 . S
C24 C19 1.391 . S
C24 C23 1.391 . S
C24 C25 1.399 . S
C25 C24 1.399 . S
C25 C26 1.396 . S
C25 C28 1.453 . S
C25 C29 1.684 . S
C26 C7 1.723 . S
C26 C25 1.396 . S
C26 C27 1.394 . S
C27 C23 1.397 . S
C27 C26 1.394 . S
C27 C37 1.723 . S
C28 C25 1.453 . S
C28 H52 0.982 . S
C28 H53 0.979 . S
C28 H54 0.977 . S
C29 C25 1.684 . S
C29 H55 0.979 . S
C29 H56 0.980 . S
C29 H57 0.983 . S
C30 H6 0.948 . S
C30 C31 1.391 . S
C30 C35 1.391 . S
C31 C30 1.391 . S
C31 C32 1.391 . S
C32 H9 0.947 . S
C32 C31 1.391 . S
C32 C33 1.392 . S
C33 H10 0.948 . S
C33 C32 1.392 . S
C33 C34 1.419 . S
C34 C33 1.419 . S
C34 C35 1.391 . S
C34 C38 1.397 . S
C35 C30 1.391 . S
C35 C34 1.391 . S
C35 C36 1.399 . S
C36 C35 1.399 . S
C36 C37 1.396 . S
C36 C39 1.453 . S
C36 C40 1.684 . S
C37 C27 1.723 . S
C37 C36 1.396 . S
C37 C38 1.394 . S
C38 C8 1.723 . S
C38 C34 1.397 . S
C38 C37 1.394 . S
C39 H11 0.982 . S
C39 H15 0.979 . S
C39 H16 0.977 . S
C39 C36 1.453 . S
C40 H12 0.979 . S
C40 H13 0.980 . S
C40 H14 0.983 . S
C40 C36 1.684 . S
H41 C59 0.948 . S
H42 C0 0.948 . S
H43 C18 0.979 . S
H44 C18 0.980 . S
H45 C18 0.983 . S
H46 C17 0.982 . S
H47 C17 0.979 . S
H48 C17 0.977 . S
H49 C19 0.948 . S
H50 C21 0.947 . S
H51 C22 0.948 . S
H52 C28 0.982 . S
H53 C28 0.979 . S
H54 C28 0.977 . S
H55 C29 0.979 . S
H56 C29 0.980 . S
H57 C29 0.983 . S
H58 C2 0.947 . S
C59 C2 1.392 . S
C59 C3 1.419 . S
C59 H41 0.948 . S
C60 C61 1.391 . S
C60 C64 1.391 . S
C60 H102 0.948 . S
C61 C60 1.391 . S
C61 C62 1.391 . S
C62 C61 1.391 . S
C62 H118 0.947 . S
C62 C119 1.392 . S
C63 C64 1.391 . S
C63 C67 1.397 . S
C63 C119 1.419 . S
C64 C60 1.391 . S
C64 C63 1.391 . S
C64 C65 1.399 . S
C65 C64 1.399 . S
C65 C68 1.396 . S
C65 C77 1.453 . S
C65 C78 1.684 . S
H66 C90 0.948 . S
C67 C63 1.397 . S
C67 C68 1.394 . S
C67 C86 1.723 . S
C68 C65 1.396 . S
C68 C67 1.394 . S
C68 C98 1.723 . S
H69 C92 0.947 . S
H70 C93 0.948 . S
H71 C99 0.982 . S
H72 C100 0.979 . S
H73 C100 0.980 . S
H74 C100 0.983 . S
H75 C99 0.979 . S
H76 C99 0.977 . S
C77 C65 1.453 . S
C77 H106 0.982 . S
C77 H107 0.979 . S
C77 H108 0.977 . S
C78 C65 1.684 . S
C78 H103 0.979 . S
C78 H104 0.980 . S
C78 H105 0.983 . S
C79 C80 1.391 . S
C79 C84 1.391 . S
C79 H109 0.948 . S
C80 C79 1.391 . S
C80 C81 1.391 . S
C81 C80 1.391 . S
C81 C82 1.392 . S
C81 H110 0.947 . S
C82 C81 1.392 . S
C82 C83 1.419 . S
C82 H111 0.948 . S
C83 C82 1.419 . S
C83 C84 1.391 . S
C83 C87 1.397 . S
C84 C79 1.391 . S
C84 C83 1.391 . S
C84 C85 1.399 . S
C85 C84 1.399 . S
C85 C86 1.396 . S
C85 C88 1.453 . S
C85 C89 1.684 . S
C86 C67 1.723 . S
C86 C85 1.396 . S
C86 C87 1.394 . S
C87 C83 1.397 . S
C87 C86 1.394 . S
C87 C97 1.723 . S
C88 C85 1.453 . S
C88 H112 0.982 . S
C88 H113 0.979 . S
C88 H114 0.977 . S
C89 C85 1.684 . S
C89 H115 0.979 . S
C89 H116 0.980 . S
C89 H117 0.983 . S
C90 H66 0.948 . S
C90 C91 1.391 . S
C90 C95 1.391 . S
C91 C90 1.391 . S
C91 C92 1.391 . S
C92 H69 0.947 . S
C92 C91 1.391 . S
C92 C93 1.392 . S
C93 H70 0.948 . S
C93 C92 1.392 . S
C93 C94 1.419 . S
C94 C93 1.419 . S
C94 C95 1.391 . S
C94 C98 1.397 . S
C95 C90 1.391 . S
C95 C94 1.391 . S
C95 C96 1.399 . S
C96 C95 1.399 . S
C96 C97 1.396 . S
C96 C99 1.453 . S
C96 C100 1.684 . S
C97 C87 1.723 . S
C97 C96 1.396 . S
C97 C98 1.394 . S
C98 C68 1.723 . S
C98 C94 1.397 . S
C98 C97 1.394 . S
C99 H71 0.982 . S
C99 H75 0.979 . S
C99 H76 0.977 . S
C99 C96 1.453 . S
C100 H72 0.979 . S
C100 H73 0.980 . S
C100 H74 0.983 . S
C100 C96 1.684 . S
H101 C119 0.948 . S
H102 C60 0.948 . S
H103 C78 0.979 . S
H104 C78 0.980 . S
H105 C78 0.983 . S
H106 C77 0.982 . S
H107 C77 0.979 . S
H108 C77 0.977 . S
H109 C79 0.948 . S
H110 C81 0.947 . S
H111 C82 0.948 . S
H112 C88 0.982 . S
H113 C88 0.979 . S
H114 C88 0.977 . S
H115 C89 0.979 . S
H116 C89 0.980 . S
H117 C89 0.983 . S
H118 C62 0.947 . S
C119 C62 1.392 . S
C119 C63 1.419 . S
C119 H101 0.948 . S
C120 C121 1.391 . S
C120 C124 1.391 . S
C120 H162 0.948 . S
C121 C120 1.391 . S
C121 C122 1.391 . S
C122 C121 1.391 . S
C122 H178 0.947 . S
C122 C179 1.392 . S
C123 C124 1.391 . S
C123 C127 1.397 . S
C123 C179 1.419 . S
C124 C120 1.391 . S
C124 C123 1.391 . S
C124 C125 1.399 . S
C125 C124 1.399 . S
C125 C128 1.396 . S
C125 C137 1.453 . S
C125 C138 1.684 . S
H126 C150 0.948 . S
C127 C123 1.397 . S
C127 C128 1.394 . S
C127 C146 1.723 . S
C128 C125 1.396 . S
C128 C127 1.394 . S
C128 C158 1.723 . S
H129 C152 0.947 . S
H130 C153 0.948 . S
H131 C159 0.982 . S
H132 C160 0.979 . S
H133 C160 0.980 . S
H134 C160 0.983 . S
H135 C159 0.979 . S
H136 C159 0.977 . S
C137 C125 1.453 . S
C137 H166 0.982 . S
C137 H167 0.979 . S
C137 H168 0.977 . S
C138 C125 1.684 . S
C138 H163 0.979 . S
C138 H164 0.980 . S
C138 H165 0.983 . S
C139 C140 1.391 . S
C139 C144 1.391 . S
C139 H169 0.948 . S
C140 C139 1.391 . S
C140 C141 1.391 . S
C141 C140 1.391 . S
C141 C142 1.392 . S
C141 H170 0.947 . S
C142 C141 1.392 . S
C142 C143 1.419 . S
C142 H171 0.948 . S
C143 C142 1.419 . S
C143 C144 1.391 . S
C143 C147 1.397 . S
C144 C139 1.391 . S
C144 C143 1.391 . S
C144 C145 1.399 . S
C145 C144 1.399 . S
C145 C146 1.396 . S
C145 C148 1.453 . S
C145 C149 1.684 . S
C146 C127 1.723 . S
C146 C145 1.396 . S
C146 C147 1.394 . S
C147 C143 1.397 . S
C147 C146 1.394 . S
C147 C157 1.723 . S
C148 C145 1.453 . S
C148 H172 0.982 . S
C148 H173 0.979 . S
C148 H174 0.977 . S
C149 C145 1.684 . S
C149 H175 0.979 . S
C149 H176 0.980 . S
C149 H177 0.983 . S
C150 H126 0.948 . S
C150 C151 1.391 . S
C150 C155 1.391 . S
C151 C150 1.391 . S
C151 C152 1.391 . S
C152 H129 0.947 . S
C152 C151 1.391 . S
C152 C153 1.392 . S
C153 H130 0.948 . S
C153 C152 1.392 . S
C153 C154 1.419 . S
C154 C153 1.419 . S
C154 C155 1.391 . S
C154 C158 1.397 . S
C155 C150 1.391 . S
C155 C154 1.391 . S
C155 C156 1.399 . S
C156 C155 1.399 . S
C156 C157 1.396 . S
C156 C159 1.453 . S
C156 C160 1.684 . S
C157 C147 1.723 . S
C157 C156 1.396 . S
C157 C158 1.394 . S
C158 C128 1.723 . S
C158 C154 1.397 . S
C158 C157 1.394 . S
C159 H131 0.982 . S
C159 H135 0.979 . S
C159 H136 0.977 . S
C159 C156 1.453 . S
C160 H132 0.979 . S
C160 H133 0.980 . S
C160 H134 0.983 . S
C160 C156 1.684 . S
H161 C179 0.948 . S
H162 C120 0.948 . S
H163 C138 0.979 . S
H164 C138 0.980 . S
H165 C138 0.983 . S
H166 C137 0.982 . S
H167 C137 0.979 . S
H168 C137 0.977 . S
H169 C139 0.948 . S
H170 C141 0.947 . S
H171 C142 0.948 . S
H172 C148 0.982 . S
H173 C148 0.979 . S
H174 C148 0.977 . S
H175 C149 0.979 . S
H176 C149 0.980 . S
H177 C149 0.983 . S
H178 C122 0.947 . S
C179 C122 1.392 . S
C179 C123 1.419 . S
C179 H161 0.948 . S
C180 C181 1.391 . S
C180 C184 1.391 . S
C180 H222 0.948 . S
C181 C180 1.391 . S
C181 C182 1.391 . S
C182 C181 1.391 . S
C182 H238 0.947 . S
C182 C239 1.392 . S
C183 C184 1.391 . S
C183 C187 1.397 . S
C183 C239 1.419 . S
C184 C180 1.391 . S
C184 C183 1.391 . S
C184 C185 1.399 . S
C185 C184 1.399 . S
C185 C188 1.396 . S
C185 C197 1.453 . S
C185 C198 1.684 . S
H186 C210 0.948 . S
C187 C183 1.397 . S
C187 C188 1.394 . S
C187 C206 1.723 . S
C188 C185 1.396 . S
C188 C187 1.394 . S
C188 C218 1.723 . S
H189 C212 0.947 . S
H190 C213 0.948 . S
H191 C219 0.982 . S
H192 C220 0.979 . S
H193 C220 0.980 . S
H194 C220 0.983 . S
H195 C219 0.979 . S
H196 C219 0.977 . S
C197 C185 1.453 . S
C197 H226 0.982 . S
C197 H227 0.979 . S
C197 H228 0.977 . S
C198 C185 1.684 . S
C198 H223 0.979 . S
C198 H224 0.980 . S
C198 H225 0.983 . S
C199 C200 1.391 . S
C199 C204 1.391 . S
C199 H229 0.948 . S
C200 C199 1.391 . S
C200 C201 1.391 . S
C201 C200 1.391 . S
C201 C202 1.392 . S
C201 H230 0.947 . S
C202 C201 1.392 . S
C202 C203 1.419 . S
C202 H231 0.948 . S
C203 C202 1.419 . S
C203 C204 1.391 . S
C203 C207 1.397 . S
C204 C199 1.391 . S
C204 C203 1.391 . S
C204 C205 1.399 . S
C205 C204 1.399 . S
C205 C206 1.396 . S
C205 C208 1.453 . S
C205 C209 1.684 . S
C206 C187 1.723 . S
C206 C205 1.396 . S
C206 C207 1.394 . S
C207 C203 1.397 . S
C207 C206 1.394 . S
C207 C217 1.723 . S
C208 C205 1.453 . S
C208 H232 0.982 . S
C208 H233 0.979 . S
C208 H234 0.977 . S
C209 C205 1.684 . S
C209 H235 0.979 . S
C209 H236 0.980 . S
C209 H237 0.983 . S
C210 H186 0.948 . S
C210 C211 1.391 . S
C210 C215 1.391 . S
C211 C210 1.391 . S
C211 C212 1.391 . S
C212 H189 0.947 . S
C212 C211 1.391 . S
C212 C213 1.392 . S
C213 H190 0.948 . S
C213 C212 1.392 . S
C213 C214 1.419 . S
C214 C213 1.419 . S
C214 C215 1.391 . S
C214 C218 1.397 . S
C215 C210 1.391 . S
C215 C214 1.391 . S
C215 C216 1.399 . S
C216 C215 1.399 . S
C216 C217 1.396 . S
C216 C219 1.453 . S
C216 C220 1.684 . S
C217 C207 1.723 . S
C217 C216 1.396 . S
C217 C218 1.394 . S
C218 C188 1.723 . S
C218 C214 1.397 . S
C218 C217 1.394 . S
C219 H191 0.982 . S
C219 H195 0.979 . S
C219 H196 0.977 . S
C219 C216 1.453 . S
C220 H192 0.979 . S
C220 H193 0.980 . S
C220 H194 0.983 . S
C220 C216 1.684 . S
H221 C239 0.948 . S
H222 C180 0.948 . S
H223 C198 0.979 . S
H224 C198 0.980 . S
H225 C198 0.983 . S
H226 C197 0.982 . S
H227 C197 0.979 . S
H228 C197 0.977 . S
H229 C199 0.948 . S
H230 C201 0.947 . S
H231 C202 0.948 . S
H232 C208 0.982 . S
H233 C208 0.979 . S
H234 C208 0.977 . S
H235 C209 0.979 . S
H236 C209 0.980 . S
H237 C209 0.983 . S
H238 C182 0.947 . S
C239 C182 1.392 . S
C239 C183 1.419 . S
C239 H221 0.948 . S
C240 C241 1.391 . S
C240 C244 1.391 . S
C240 H282 0.948 . S
C241 C240 1.391 . S
C241 C242 1.391 . S
C242 C241 1.391 . S
C242 H298 0.947 . S
C242 C299 1.392 . S
C243 C244 1.391 . S
C243 C247 1.397 . S
C243 C299 1.419 . S
C244 C240 1.391 . S
C244 C243 1.391 . S
C244 C245 1.399 . S
C245 C244 1.399 . S
C245 C248 1.396 . S
C245 C257 1.453 . S
C245 C258 1.684 . S
H246 C270 0.948 . S
C247 C243 1.397 . S
C247 C248 1.394 . S
C247 C266 1.723 . S
C248 C245 1.396 . S
C248 C247 1.394 . S
C248 C278 1.723 . S
H249 C272 0.947 . S
H250 C273 0.948 . S
H251 C279 0.982 . S
H252 C280 0.979 . S
H253 C280 0.980 . S
H254 C280 0.983 . S
H255 C279 0.979 . S
H256 C279 0.977 . S
C257 C245 1.453 . S
C257 H286 0.982 . S
C257 H287 0.979 . S
C257 H288 0.977 . S
C258 C245 1.684 . S
C258 H283 0.979 . S
C258 H284 0.980 . S
C258 H285 0.983 . S
C259 C260 1.391 . S
C259 C264 1.391 . S
C259 H289 0.948 . S
C260 C259 1.391 . S
C260 C261 1.391 . S
C261 C260 1.391 . S
C261 C262 1.392 . S
C261 H290 0.947 . S
C262 C261 1.392 . S
C262 C263 1.419 . S
C262 H291 0.948 . S
C263 C262 1.419 . S
C263 C264 1.391 . S
C263 C267 1.397 . S
C264 C259 1.391 . S
C264 C263 1.391 . S
C264 C265 1.399 . S
C265 C264 1.399 . S
C265 C266 1.396 . S
C265 C268 1.453 . S
C265 C269 1.684 . S
C266 C247 1.723 . S
C266 C265 1.396 . S
C266 C267 1.394 . S
C267 C263 1.397 . S
C267 C266 1.394 . S
C267 C277 1.723 . S
C268 C265 1.453 . S
C268 H292 0.982 . S
C268 H293 0.979 . S
C268 H294 0.977 . S
C269 C265 1.684 . S
C269 H295 0.979 . S
C269 H296 0.980 . S
C269 H297 0.983 . S
C270 H246 0.948 . S
C270 C271 1.391 . S
C270 C275 1.391 . S
C271 C270 1.391 . S
C271 C272 1.391 . S
C272 H249 0.947 . S
C272 C271 1.391 . S
C272 C273 1.392 . S
C273 H250 0.948 . S
C273 C272 1.392 . S
C273 C274 1.419 . S
C274 C273 1.419 . S
C274 C275 1.391 . S
C274 C278 1.397 . S
C275 C270 1.391 . S
C275 C274 1.391 . S
C275 C276 1.399 . S
C276 C275 1.399 . S
C276 C277 1.396 . S
C276 C279 1.453 . S
C276 C280 1.684 . S
C277 C267 1.723 . S
C277 C276 1.396 . S
C277 C278 1.394 . S
C278 C248 1.723 . S
C278 C274 1.397 . S
C278 C277 1.394 . S
C279 H251 0.982 . S
C279 H255 0.979 . S
C279 H256 0.977 . S
C279 C276 1.453 . S
C280 H252 0.979 . S
C280 H253 0.980 . S
C280 H254 0.983 . S
C280 C276 1.684 . S
H281 C299 0.948 . S
H282 C240 0.948 . S
H283 C258 0.979 . S
H284 C258 0.980 . S
H285 C258 0.983 . S
H286 C257 0.982 . S
H287 C257 0.979 . S
H288 C257 0.977 . S
H289 C259 0.948 . S
H290 C261 0.947 . S
H291 C262 0.948 . S
H292 C268 0.982 . S
H293 C268 0.979 . S
H294 C268 0.977 . S
H295 C269 0.979 . S
H296 C269 0.980 . S
H297 C269 0.983 . S
H298 C242 0.947 . S
C299 C242 1.392 . S
C299 C243 1.419 . S
C299 H281 0.948 . S
C300 C301 1.391 . S
C300 C304 1.391 . S
C300 H342 0.948 . S
C301 C300 1.391 . S
C301 C302 1.391 . S
C302 C301 1.391 . S
C302 H358 0.947 . S
C302 C359 1.392 . S
C303 C304 1.391 . S
C303 C307 1.397 . S
C303 C359 1.419 . S
C304 C300 1.391 . S
C304 C303 1.391 . S
C304 C305 1.399 . S
C305 C304 1.399 . S
C305 C308 1.396 . S
C305 C317 1.453 . S
C305 C318 1.684 . S
H306 C330 0.948 . S
C307 C303 1.397 . S
C307 C308 1.394 . S
C307 C326 1.723 . S
C308 C305 1.396 . S
C308 C307 1.394 . S
C308 C338 1.723 . S
H309 C332 0.947 . S
H310 C333 0.948 . S
H311 C339 0.982 . S
H312 C340 0.979 . S
H313 C340 0.980 . S
H314 C340 0.983 . S
H315 C339 0.979 . S
H316 C339 0.977 . S
C317 C305 1.453 . S
C317 H346 0.982 . S
C317 H347 0.979 . S
C317 H348 0.977 . S
C318 C305 1.684 . S
C318 H343 0.979 . S
C318 H344 0.980 . S
C318 H345 0.983 . S
C319 C320 1.391 . S
C319 C324 1.391 . S
C319 H349 0.948 . S
C320 C319 1.391 . S
C320 C321 1.391 . S
C321 C320 1.391 . S
C321 C322 1.392 . S
C321 H350 0.947 . S
C322 C321 1.392 . S
C322 C323 1.419 . S
C322 H351 0.948 . S
C323 C322 1.419 . S
C323 C324 1.391 . S
C323 C327 1.397 . S
C324 C319 1.391 . S
C324 C323 1.391 . S
C324 C325 1.399 . S
C325 C324 1.399 . S
C325 C326 1.396 . S
C325 C328 1.453 . S
C325 C329 1.684 . S
C326 C307 1.723 . S
C326 C325 1.396 . S
C326 C327 1.394 . S
C327 C323 1.397 . S
C327 C326 1.394 . S
C327 C337 1.723 . S
C328 C325 1.453 . S
C328 H352 0.982 . S
C328 H353 0.979 . S
C328 H354 0.977 . S
C329 C325 1.684 . S
C329 H355 0.979 . S
C329 H356 0.980 . S
C329 H357 0.983 . S
C330 H306 0.948 . S
C330 C331 1.391 . S
C330 C335 1.391 . S
C331 C330 1.391 . S
C331 C332 1.391 . S
C332 H309 0.947 . S
C332 C331 1.391 . S
C332 C333 1.392 . S
C333 H310 0.948 . S
C333 C332 1.392 . S
C333 C334 1.419 . S
C334 C333 1.419 . S
C334 C335 1.391 . S
C334 C338 1.397 . S
C335 C330 1.391 . S
C335 C334 1.391 . S
C335 C336 1.399 . S
C336 C335 1.399 . S
C336 C337 1.396 . S
C336 C339 1.453 . S
C336 C340 1.684 . S
C337 C327 1.723 . S
C337 C336 1.396 . S
C337 C338 1.394 . S
C338 C308 1.723 . S
C338 C334 1.397 . S
C338 C337 1.394 . S
C339 H311 0.982 . S
C339 H315 0.979 . S
C339 H316 0.977 . S
C339 C336 1.453 . S
C340 H312 0.979 . S
C340 H313 0.980 . S
C340 H314 0.983 . S
C340 C336 1.684 . S
H341 C359 0.948 . S
H342 C300 0.948 . S
H343 C318 0.979 . S
H344 C318 0.980 . S
H345 C318 0.983 . S
H346 C317 0.982 . S
H347 C317 0.979 . S
H348 C317 0.977 . S
H349 C319 0.948 . S
H350 C321 0.947 . S
H351 C322 0.948 . S
H352 C328 0.982 . S
H353 C328 0.979 . S
H354 C328 0.977 . S
H355 C329 0.979 . S
H356 C329 0.980 . S
H357 C329 0.983 . S
H358 C302 0.947 . S
C359 C302 1.392 . S
C359 C303 1.419 . S
C359 H341 0.948 . S
C360 C361 1.391 . S
C360 C364 1.391 . S
C360 H402 0.948 . S
C361 C360 1.391 . S
C361 C362 1.391 . S
C362 C361 1.391 . S
C362 H418 0.947 . S
C362 C419 1.392 . S
C363 C364 1.391 . S
C363 C367 1.397 . S
C363 C419 1.419 . S
C364 C360 1.391 . S
C364 C363 1.391 . S
C364 C365 1.399 . S
C365 C364 1.399 . S
C365 C368 1.396 . S
C365 C377 1.453 . S
C365 C378 1.684 . S
H366 C390 0.948 . S
C367 C363 1.397 . S
C367 C368 1.394 . S
C367 C386 1.723 . S
C368 C365 1.396 . S
C368 C367 1.394 . S
C368 C398 1.723 . S
H369 C392 0.947 . S
H370 C393 0.948 . S
H371 C399 0.982 . S
H372 C400 0.979 . S
H373 C400 0.980 . S
H374 C400 0.983 . S
H375 C399 0.979 . S
H376 C399 0.977 . S
C377 C365 1.453 . S
C377 H406 0.982 . S
C377 H407 0.979 . S
C377 H408 0.977 . S
C378 C365 1.684 . S
C378 H403 0.979 . S
C378 H404 0.980 . S
C378 H405 0.983 . S
C379 C380 1.391 . S
C379 C384 1.391 . S
C379 H409 0.948 . S
C380 C379 1.391 . S
C380 C381 1.391 . S
C381 C380 1.391 . S
C381 C382 1.392 . S
C381 H410 0.947 . S
C382 C381 1.392 . S
C382 C383 1.419 . S
C382 H411 0.948 . S
C383 C382 1.419 . S
C383 C384 1.391 . S
C383 C387 1.397 . S
C384 C379 1.391 . S
C384 C383 1.391 . S
C384 C385 1.399 . S
C385 C384 1.399 . S
C385 C386 1.396 . S
C385 C388 1.453 . S
C385 C389 1.684 . S
C386 C367 1.723 . S
C386 C385 1.396 . S
C386 C387 1.394 . S
C387 C383 1.397 . S
C387 C386 1.394 . S
C387 C397 1.723 . S
C388 C385 1.453 . S
C388 H412 0.982 . S
C388 H413 0.979 . S
C388 H414 0.977 . S
C389 C385 1.684 . S
C389 H415 0.979 . S
C389 H416 0.980 . S
C389 H417 0.983 . S
C390 H366 0.948 . S
C390 C391 1.391 . S
C390 C395 1.391 . S
C391 C390 1.391 . S
C391 C392 1.391 . S
C392 H369 0.947 . S
C392 C391 1.391 . S
C392 C393 1.392 . S
C393 H370 0.948 . S
C393 C392 1.392 . S
C393 C394 1.419 . S
C394 C393 1.419 . S
C394 C395 1.391 . S
C394 C398 1.397 . S
C395 C390 1.391 . S
C395 C394 1.391 . S
C395 C396 1.399 . S
C396 C395 1.399 . S
C396 C397 1.396 . S
C396 C399 1.453 . S
C396 C400 1.684 . S
C397 C387 1.723 . S
C397 C396 1.396 . S
C397 C398 1.394 . S
C398 C368 1.723 . S
C398 C394 1.397 . S
C398 C397 1.394 . S
C399 H371 0.982 . S
C399 H375 0.979 . S
C399 H376 0.977 . S
C399 C396 1.453 . S
C400 H372 0.979 . S
C400 H373 0.980 . S
C400 H374 0.983 . S
C400 C396 1.684 . S
H401 C419 0.948 . S
H402 C360 0.948 . S
H403 C378 0.979 . S
H404 C378 0.980 . S
H405 C378 0.983 . S
H406 C377 0.982 . S
H407 C377 0.979 . S
H408 C377 0.977 . S
H409 C379 0.948 . S
H410 C381 0.947 . S
H411 C382 0.948 . S
H412 C388 0.982 . S
H413 C388 0.979 . S
H414 C388 0.977 . S
H415 C389 0.979 . S
H416 C389 0.980 . S
H417 C389 0.983 . S
H418 C362 0.947 . S
C419 C362 1.392 . S
C419 C363 1.419 . S
C419 H401 0.948 . S
C420 C421 1.391 . S
C420 C424 1.391 . S
C420 H462 0.948 . S
C421 C420 1.391 . S
C421 C422 1.391 . S
C422 C421 1.391 . S
C422 H478 0.947 . S
C422 C479 1.392 . S
C423 C424 1.391 . S
C423 C427 1.397 . S
C423 C479 1.419 . S
C424 C420 1.391 . S
C424 C423 1.391 . S
C424 C425 1.399 . S
C425 C424 1.399 . S
C425 C428 1.396 . S
C425 C437 1.453 . S
C425 C438 1.684 . S
H426 C450 0.948 . S
C427 C423 1.397 . S
C427 C428 1.394 . S
C427 C446 1.723 . S
C428 C425 1.396 . S
C428 C427 1.394 . S
C428 C458 1.723 . S
H429 C452 0.947 . S
H430 C453 0.948 . S
H431 C459 0.982 . S
H432 C460 0.979 . S
H433 C460 0.980 . S
H434 C460 0.983 . S
H435 C459 0.979 . S
H436 C459 0.977 . S
C437 C425 1.453 . S
C437 H466 0.982 . S
C437 H467 0.979 . S
C437 H468 0.977 . S
C438 C425 1.684 . S
C438 H463 0.979 . S
C438 H464 0.980 . S
C438 H465 0.983 . S
C439 C440 1.391 . S
C439 C444 1.391 . S
C439 H469 0.948 . S
C440 C439 1.391 . S
C440 C441 1.391 . S
C441 C440 1.391 . S
C441 C442 1.392 . S
C441 H470 0.947 . S
C442 C441 1.392 . S
C442 C443 1.419 . S
C442 H471 0.948 . S
C443 C442 1.419 . S
C443 C444 1.391 . S
C443 C447 1.397 . S
C444 C439 1.391 . S
C444 C443 1.391 . S
C444 C445 1.399 . S
C445 C444 1.399 . S
C445 C446 1.396 . S
C445 C448 1.453 . S
C445 C449 1.684 . S
C446 C427 1.723 . S
C446 C445 1.396 . S
C446 C447 1.394 . S
C447 C443 1.397 . S
C447 C446 1.394 . S
C447 C457 1.723 . S
C448 C445 1.453 . S
C448 H472 0.982 . S
C448 H473 0.979 . S
C448 H474 0.977 . S
C449 C445 1.684 . S
C449 H475 0.979 . S
C449 H476 0.980 . S
C449 H477 0.983 . S
C450 H426 0.948 . S
C450 C451 1.391 . S
C450 C455 1.391 . S
C451 C450 1.391 . S
C451 C452 1.391 . S
C452 H429 0.947 . S
C452 C451 1.391 . S
C452 C453 1.392 . S
C453 H430 0.948 . S
C453 C452 1.392 . S
C453 C454 1.419 . S
C454 C453 1.419 . S
C454 C455 1.391 . S
C454 C458 1.397 . S
C455 C450 1.391 . S
C455 C454 1.391 . S
C455 C456 1.399 . S
C456 C455 1.399 . S
C456 C457 1.396 . S
C456 C459 1.453 . S
C456 C460 1.684 . S
C457 C447 1.723 . S
C457 C456 1.396 . S
C457 C458 1.394 . S
C458 C428 1.723 . S
C458 C454 1.397 . S
C458 C457 1.394 . S
C459 H431 0.982 . S
C459 H435 0.979 . S
C459 H436 0.977 . S
C459 C456 1.453 . S
C460 H432 0.979 . S
C460 H433 0.980 . S
C460 H434 0.983 . S
C460 C456 1.684 . S
H461 C479 0.948 . S
H462 C420 0.948 . S
H463 C438 0.979 . S
H464 C438 0.980 . S
H465 C438 0.983 . S
H466 C437 0.982 . S
H467 C437 0.979 . S
H468 C437 0.977 . S
H469 C439 0.948 . S
H470 C441 0.947 . S
H471 C442 0.948 . S
H472 C448 0.982 . S
H473 C448 0.979 . S
H474 C448 0.977 . S
H475 C449 0.979 . S
H476 C449 0.980 . S
H477 C449 0.983 . S
H478 C422 0.947 . S
C479 C422 1.392 . S
C479 C423 1.419 . S
C479 H461 0.948 . S
La480 C482 2.928 . S
La480 O500 2.521 . S
La480 O501 2.628 . S
La480 O502 2.554 1_545 S
La480 O503 2.757 1_545 S
La480 O504 2.470 . S
La480 O509 2.482 1_455 S
La480 O511 2.503 1_445 S
La481 C491 2.928 . S
La481 O503 2.482 1_655 S
La481 O505 2.503 1_665 S
La481 O506 2.521 . S
La481 O507 2.628 . S
La481 O508 2.554 1_565 S
La481 O509 2.757 1_565 S
La481 O510 2.470 . S
C482 La480 2.928 . S
C482 C483 1.503 . S
C482 O500 1.261 . S
C482 O501 1.243 . S
C483 C482 1.503 . S
C483 C484 1.394 . S
C483 C488 1.373 . S
C484 C483 1.394 . S
C484 C485 1.380 . S
C484 H512 0.930 . S
C485 C484 1.380 . S
C485 C486 1.376 . S
C485 H513 0.930 . S
C486 C485 1.376 . S
C486 C487 1.370 . S
C487 C486 1.370 . S
C487 C488 1.396 . S
C487 H514 0.929 . S
C488 C483 1.373 . S
C488 C487 1.396 . S
C488 H515 0.929 . S
C489 O502 1.240 . S
C489 O503 1.289 . S
C490 O504 1.258 . S
C490 O505 1.256 . S
C491 La481 2.928 . S
C491 C492 1.503 . S
C491 O506 1.261 . S
C491 O507 1.243 . S
C492 C491 1.503 . S
C492 C493 1.394 . S
C492 C497 1.373 . S
C493 C492 1.394 . S
C493 C494 1.380 . S
C493 H516 0.930 . S
C494 C493 1.380 . S
C494 C495 1.376 . S
C494 H517 0.930 . S
C495 C494 1.376 . S
C495 C496 1.370 . S
C496 C495 1.370 . S
C496 C497 1.396 . S
C496 H518 0.929 . S
C497 C492 1.373 . S
C497 C496 1.396 . S
C497 H519 0.929 . S
C498 O508 1.240 . S
C498 O509 1.289 . S
C499 O510 1.258 . S
C499 O511 1.256 . S
O500 La480 2.521 . S
O500 C482 1.261 . S
O501 La480 2.628 . S
O501 C482 1.243 . S
O502 La480 2.554 1_565 S
O502 C489 1.240 . S
O503 La480 2.757 1_565 S
O503 La481 2.482 1_455 S
O503 C489 1.289 . S
O504 La480 2.470 . S
O504 C490 1.258 . S
O505 La481 2.503 1_445 S
O505 C490 1.256 . S
O506 La481 2.521 . S
O506 C491 1.261 . S
O507 La481 2.628 . S
O507 C491 1.243 . S
O508 La481 2.554 1_545 S
O508 C498 1.240 . S
O509 La480 2.482 1_655 S
O509 La481 2.757 1_545 S
O509 C498 1.289 . S
O510 La481 2.470 . S
O510 C499 1.258 . S
O511 La480 2.503 1_665 S
O511 C499 1.256 . S
H512 C484 0.930 . S
H513 C485 0.930 . S
H514 C487 0.929 . S
H515 C488 0.929 . S
H516 C493 0.930 . S
H517 C494 0.930 . S
H518 C496 0.929 . S
H519 C497 0.929 . S
La520 C522 2.910 1_565 S
La520 O540 2.519 1_565 S
La520 O541 2.597 1_565 S
La520 O542 2.582 . S
La520 O543 2.772 . S
La520 O544 2.451 1_565 S
La520 O549 2.456 1_564 S
La520 O551 2.523 1_554 S
La521 C531 2.928 1_545 S
La521 O543 2.482 1_546 S
La521 O545 2.503 1_556 S
La521 O546 2.521 1_545 S
La521 O547 2.628 1_545 S
La521 O548 2.554 . S
La521 O549 2.757 . S
La521 O550 2.470 1_545 S
C522 La520 2.910 1_545 S
C522 C523 1.503 . S
C522 O540 1.261 . S
C522 O541 1.243 . S
C523 C522 1.503 . S
C523 C524 1.394 . S
C523 C528 1.373 . S
C524 C523 1.394 . S
C524 C525 1.380 . S
C524 H552 0.930 . S
C525 C524 1.380 . S
C525 C526 1.376 . S
C525 H553 0.930 . S
C526 C525 1.376 . S
C526 C527 1.370 . S
C527 C526 1.370 . S
C527 C528 1.396 . S
C527 H554 0.929 . S
C528 C523 1.373 . S
C528 C527 1.396 . S
C528 H555 0.929 . S
C529 O542 1.240 . S
C529 O543 1.289 . S
C530 O544 1.258 . S
C530 O545 1.256 . S
C531 La521 2.928 1_565 S
C531 C532 1.503 . S
C531 O546 1.261 . S
C531 O547 1.243 . S
C532 C531 1.503 . S
C532 C533 1.394 . S
C532 C537 1.373 . S
C533 C532 1.394 . S
C533 C534 1.380 . S
C533 H556 0.930 . S
C534 C533 1.380 . S
C534 C535 1.376 . S
C534 H557 0.930 . S
C535 C534 1.376 . S
C535 C536 1.370 . S
C536 C535 1.370 . S
C536 C537 1.396 . S
C536 H558 0.929 . S
C537 C532 1.373 . S
C537 C536 1.396 . S
C537 H559 0.929 . S
C538 O548 1.240 . S
C538 O549 1.289 . S
C539 O550 1.258 . S
C539 O551 1.256 . S
O540 La520 2.519 1_545 S
O540 C522 1.261 . S
O541 La520 2.597 1_545 S
O541 C522 1.243 . S
O542 La520 2.582 . S
O542 C529 1.240 . S
O543 La520 2.772 . S
O543 La521 2.482 1_564 S
O543 C529 1.289 . S
O544 La520 2.451 1_545 S
O544 C530 1.258 . S
O545 La521 2.503 1_554 S
O545 C530 1.256 . S
O546 La521 2.521 1_565 S
O546 C531 1.261 . S
O547 La521 2.628 1_565 S
O547 C531 1.243 . S
O548 La521 2.554 . S
O548 C538 1.240 . S
O549 La520 2.456 1_546 S
O549 La521 2.757 . S
O549 C538 1.289 . S
O550 La521 2.470 1_565 S
O550 C539 1.258 . S
O551 La520 2.523 1_556 S
O551 C539 1.256 . S
H552 C524 0.930 . S
H553 C525 0.930 . S
H554 C527 0.929 . S
H555 C528 0.929 . S
H556 C533 0.930 . S
H557 C534 0.930 . S
H558 C536 0.929 . S
H559 C537 0.929 . S
La560 C562 2.928 . S
La560 O580 2.521 . S
La560 O581 2.628 . S
La560 O582 2.554 . S
La560 O583 2.757 . S
La560 O584 2.470 . S
La560 O589 2.482 . S
La560 O591 2.503 . S
La561 C571 2.928 . S
La561 O583 2.482 . S
La561 O585 2.503 . S
La561 O586 2.521 . S
La561 O587 2.628 . S
La561 O588 2.554 . S
La561 O589 2.757 . S
La561 O590 2.470 . S
C562 La560 2.928 . S
C562 C563 1.503 . S
C562 O580 1.261 . S
C562 O581 1.243 . S
C563 C562 1.503 . S
C563 C564 1.394 . S
C563 C568 1.373 . S
C564 C563 1.394 . S
C564 C565 1.380 . S
C564 H592 0.930 . S
C565 C564 1.380 . S
C565 C566 1.376 . S
C565 H593 0.930 . S
C566 C565 1.376 . S
C566 C567 1.370 . S
C567 C566 1.370 . S
C567 C568 1.396 . S
C567 H594 0.929 . S
C568 C563 1.373 . S
C568 C567 1.396 . S
C568 H595 0.929 . S
C569 O582 1.240 . S
C569 O583 1.289 . S
C570 O584 1.258 . S
C570 O585 1.256 . S
C571 La561 2.928 . S
C571 C572 1.503 . S
C571 O586 1.261 . S
C571 O587 1.243 . S
C572 C571 1.503 . S
C572 C573 1.394 . S
C572 C577 1.373 . S
C573 C572 1.394 . S
C573 C574 1.380 . S
C573 H596 0.930 . S
C574 C573 1.380 . S
C574 C575 1.376 . S
C574 H597 0.930 . S
C575 C574 1.376 . S
C575 C576 1.370 . S
C576 C575 1.370 . S
C576 C577 1.396 . S
C576 H598 0.929 . S
C577 C572 1.373 . S
C577 C576 1.396 . S
C577 H599 0.929 . S
C578 O588 1.240 . S
C578 O589 1.289 . S
C579 O590 1.258 . S
C579 O591 1.256 . S
O580 La560 2.521 . S
O580 C562 1.261 . S
O581 La560 2.628 . S
O581 C562 1.243 . S
O582 La560 2.554 . S
O582 C569 1.240 . S
O583 La560 2.757 . S
O583 La561 2.482 . S
O583 C569 1.289 . S
O584 La560 2.470 . S
O584 C570 1.258 . S
O585 La561 2.503 . S
O585 C570 1.256 . S
O586 La561 2.521 . S
O586 C571 1.261 . S
O587 La561 2.628 . S
O587 C571 1.243 . S
O588 La561 2.554 . S
O588 C578 1.240 . S
O589 La560 2.482 . S
O589 La561 2.757 . S
O589 C578 1.289 . S
O590 La561 2.470 . S
O590 C579 1.258 . S
O591 La560 2.503 . S
O591 C579 1.256 . S
H592 C564 0.930 . S
H593 C565 0.930 . S
H594 C567 0.929 . S
H595 C568 0.929 . S
H596 C573 0.930 . S
H597 C574 0.930 . S
H598 C576 0.929 . S
H599 C577 0.929 . S
La600 C602 2.928 . S
La600 O620 2.521 . S
La600 O621 2.628 . S
La600 O622 2.554 1_455 S
La600 O623 2.757 1_455 S
La600 O624 2.470 . S
La600 O629 2.482 1_554 S
La600 O631 2.503 1_454 S
La601 C611 2.928 . S
La601 O623 2.482 1_556 S
La601 O625 2.503 1_656 S
La601 O626 2.521 . S
La601 O627 2.628 . S
La601 O628 2.554 1_655 S
La601 O629 2.757 1_655 S
La601 O630 2.470 . S
C602 La600 2.928 . S
C602 C603 1.503 . S
C602 O620 1.261 . S
C602 O621 1.243 . S
C603 C602 1.503 . S
C603 C604 1.394 . S
C603 C608 1.373 . S
C604 C603 1.394 . S
C604 C605 1.380 . S
C604 H632 0.930 . S
C605 C604 1.380 . S
C605 C606 1.376 . S
C605 H633 0.930 . S
C606 C605 1.376 . S
C606 C607 1.370 . S
C607 C606 1.370 . S
C607 C608 1.396 . S
C607 H634 0.929 . S
C608 C603 1.373 . S
C608 C607 1.396 . S
C608 H635 0.929 . S
C609 O622 1.240 . S
C609 O623 1.289 . S
C610 O624 1.258 . S
C610 O625 1.256 . S
C611 La601 2.928 . S
C611 C612 1.503 . S
C611 O626 1.261 . S
C611 O627 1.243 . S
C612 C611 1.503 . S
C612 C613 1.394 . S
C612 C617 1.373 . S
C613 C612 1.394 . S
C613 C614 1.380 . S
C613 H636 0.930 . S
C614 C613 1.380 . S
C614 C615 1.376 . S
C614 H637 0.930 . S
C615 C614 1.376 . S
C615 C616 1.370 . S
C616 C615 1.370 . S
C616 C617 1.396 . S
C616 H638 0.929 . S
C617 C612 1.373 . S
C617 C616 1.396 . S
C617 H639 0.929 . S
C618 O628 1.240 . S
C618 O629 1.289 . S
C619 O630 1.258 . S
C619 O631 1.256 . S
O620 La600 2.521 . S
O620 C602 1.261 . S
O621 La600 2.628 . S
O621 C602 1.243 . S
O622 La600 2.554 1_655 S
O622 C609 1.240 . S
O623 La600 2.757 1_655 S
O623 La601 2.482 1_554 S
O623 C609 1.289 . S
O624 La600 2.470 . S
O624 C610 1.258 . S
O625 La601 2.503 1_454 S
O625 C610 1.256 . S
O626 La601 2.521 . S
O626 C611 1.261 . S
O627 La601 2.628 . S
O627 C611 1.243 . S
O628 La601 2.554 1_455 S
O628 C618 1.240 . S
O629 La600 2.482 1_556 S
O629 La601 2.757 1_455 S
O629 C618 1.289 . S
O630 La601 2.470 . S
O630 C619 1.258 . S
O631 La600 2.503 1_656 S
O631 C619 1.256 . S
H632 C604 0.930 . S
H633 C605 0.930 . S
H634 C607 0.929 . S
H635 C608 0.929 . S
H636 C613 0.930 . S
H637 C614 0.930 . S
H638 C616 0.929 . S
H639 C617 0.929 . S
H640 C646 0.930 . S
H641 C650 0.930 . S
H642 C655 0.929 . S
H643 C653 0.929 . S
H644 C648 0.929 . S
H645 C654 0.929 . S
C646 H640 0.930 . S
C646 C647 1.367 . S
C646 C654 1.378 . S
C647 C646 1.367 . S
C647 C655 1.433 . S
C648 H644 0.929 . S
C648 C650 1.378 . S
C648 C652 1.350 . S
C649 C652 1.463 . S
C649 C654 1.350 . S
C649 N657 1.427 . S
C650 H641 0.930 . S
C650 C648 1.378 . S
C650 C651 1.367 . S
C651 C650 1.367 . S
C651 C653 1.433 . S
C652 C648 1.350 . S
C652 C649 1.463 . S
C652 N656 1.427 . S
C653 H643 0.929 . S
C653 C651 1.433 . S
C653 N656 1.384 . S
C654 H645 0.929 . S
C654 C646 1.378 . S
C654 C649 1.350 . S
C655 H642 0.929 . S
C655 C647 1.433 . S
C655 N657 1.384 . S
N656 C652 1.427 . S
N656 C653 1.384 . S
N657 C649 1.427 . S
N657 C655 1.384 . S
H658 C664 0.930 . S
H659 C668 0.930 . S
H660 C673 0.929 . S
H661 C671 0.929 . S
H662 C666 0.929 . S
H663 C672 0.929 . S
C664 H658 0.930 . S
C664 C665 1.367 . S
C664 C672 1.378 . S
C665 C664 1.367 . S
C665 C673 1.433 . S
C666 H662 0.929 . S
C666 C668 1.378 . S
C666 C670 1.350 . S
C667 C670 1.463 . S
C667 C672 1.350 . S
C667 N675 1.427 . S
C668 H659 0.930 . S
C668 C666 1.378 . S
C668 C669 1.367 . S
C669 C668 1.367 . S
C669 C671 1.433 . S
C670 C666 1.350 . S
C670 C667 1.463 . S
C670 N674 1.427 . S
C671 H661 0.929 . S
C671 C669 1.433 . S
C671 N674 1.384 . S
C672 H663 0.929 . S
C672 C664 1.378 . S
C672 C667 1.350 . S
C673 H660 0.929 . S
C673 C665 1.433 . S
C673 N675 1.384 . S
N674 C670 1.427 . S
N674 C671 1.384 . S
N675 C667 1.427 . S
N675 C673 1.384 . S
H676 C682 0.930 . S
H677 C686 0.930 . S
H678 C691 0.929 . S
H679 C689 0.929 . S
H680 C684 0.929 . S
H681 C690 0.929 . S
C682 H676 0.930 . S
C682 C683 1.367 . S
C682 C690 1.378 . S
C683 C682 1.367 . S
C683 C691 1.433 . S
C684 H680 0.929 . S
C684 C686 1.378 . S
C684 C688 1.350 . S
C685 C688 1.463 . S
C685 C690 1.350 . S
C685 N693 1.427 . S
C686 H677 0.930 . S
C686 C684 1.378 . S
C686 C687 1.367 . S
C687 C686 1.367 . S
C687 C689 1.433 . S
C688 C684 1.350 . S
C688 C685 1.463 . S
C688 N692 1.427 . S
C689 H679 0.929 . S
C689 C687 1.433 . S
C689 N692 1.384 . S
C690 H681 0.929 . S
C690 C682 1.378 . S
C690 C685 1.350 . S
C691 H678 0.929 . S
C691 C683 1.433 . S
C691 N693 1.384 . S
N692 C688 1.427 . S
N692 C689 1.384 . S
N693 C685 1.427 . S
N693 C691 1.384 . S
H694 C700 0.930 . S
H695 C704 0.930 . S
H696 C709 0.929 . S
H697 C707 0.929 . S
H698 C702 0.929 . S
H699 C708 0.929 . S
C700 H694 0.930 . S
C700 C701 1.367 . S
C700 C708 1.378 . S
C701 C700 1.367 . S
C701 C709 1.433 . S
C702 H698 0.929 . S
C702 C704 1.378 . S
C702 C706 1.350 . S
C703 C706 1.463 . S
C703 C708 1.350 . S
C703 N711 1.427 . S
C704 H695 0.930 . S
C704 C702 1.378 . S
C704 C705 1.367 . S
C705 C704 1.367 . S
C705 C707 1.433 . S
C706 C702 1.350 . S
C706 C703 1.463 . S
C706 N710 1.427 . S
C707 H697 0.929 . S
C707 C705 1.433 . S
C707 N710 1.384 . S
C708 H699 0.929 . S
C708 C700 1.378 . S
C708 C703 1.350 . S
C709 H696 0.929 . S
C709 C701 1.433 . S
C709 N711 1.384 . S
N710 C706 1.427 . S
N710 C707 1.384 . S
N711 C703 1.427 . S
N711 C709 1.384 . S
H712 C718 0.930 . S
H713 C722 0.930 . S
H714 C727 0.929 . S
H715 C725 0.929 . S
H716 C720 0.929 . S
H717 C726 0.929 . S
C718 H712 0.930 . S
C718 C719 1.367 . S
C718 C726 1.378 . S
C719 C718 1.367 . S
C719 C727 1.433 . S
C720 H716 0.929 . S
C720 C722 1.378 . S
C720 C724 1.350 . S
C721 C724 1.463 . S
C721 C726 1.350 . S
C721 N729 1.427 . S
C722 H713 0.930 . S
C722 C720 1.378 . S
C722 C723 1.367 . S
C723 C722 1.367 . S
C723 C725 1.433 . S
C724 C720 1.350 . S
C724 C721 1.463 . S
C724 N728 1.427 . S
C725 H715 0.929 . S
C725 C723 1.433 . S
C725 N728 1.384 . S
C726 H717 0.929 . S
C726 C718 1.378 . S
C726 C721 1.350 . S
C727 H714 0.929 . S
C727 C719 1.433 . S
C727 N729 1.384 . S
N728 C724 1.427 . S
N728 C725 1.384 . S
N729 C721 1.427 . S
N729 C727 1.384 . S
H730 C736 0.930 . S
H731 C740 0.930 . S
H732 C745 0.929 . S
H733 C743 0.929 . S
H734 C738 0.929 . S
H735 C744 0.929 . S
C736 H730 0.930 . S
C736 C737 1.367 . S
C736 C744 1.378 . S
C737 C736 1.367 . S
C737 C745 1.433 . S
C738 H734 0.929 . S
C738 C740 1.378 . S
C738 C742 1.350 . S
C739 C742 1.463 . S
C739 C744 1.350 . S
C739 N747 1.427 . S
C740 H731 0.930 . S
C740 C738 1.378 . S
C740 C741 1.367 . S
C741 C740 1.367 . S
C741 C743 1.433 . S
C742 C738 1.350 . S
C742 C739 1.463 . S
C742 N746 1.427 . S
C743 H733 0.929 . S
C743 C741 1.433 . S
C743 N746 1.384 . S
C744 H735 0.929 . S
C744 C736 1.378 . S
C744 C739 1.350 . S
C745 H732 0.929 . S
C745 C737 1.433 . S
C745 N747 1.384 . S
N746 C742 1.427 . S
N746 C743 1.384 . S
N747 C739 1.427 . S
N747 C745 1.384 . S
H748 C754 0.930 . S
H749 C758 0.930 . S
H750 C763 0.929 . S
H751 C761 0.929 . S
H752 C756 0.929 . S
H753 C762 0.929 . S
C754 H748 0.930 . S
C754 C755 1.367 . S
C754 C762 1.378 . S
C755 C754 1.367 . S
C755 C763 1.433 . S
C756 H752 0.929 . S
C756 C758 1.378 . S
C756 C760 1.350 . S
C757 C760 1.463 . S
C757 C762 1.350 . S
C757 N765 1.427 . S
C758 H749 0.930 . S
C758 C756 1.378 . S
C758 C759 1.367 . S
C759 C758 1.367 . S
C759 C761 1.433 . S
C760 C756 1.350 . S
C760 C757 1.463 . S
C760 N764 1.427 . S
C761 H751 0.929 . S
C761 C759 1.433 . S
C761 N764 1.384 . S
C762 H753 0.929 . S
C762 C754 1.378 . S
C762 C757 1.350 . S
C763 H750 0.929 . S
C763 C755 1.433 . S
C763 N765 1.384 . S
N764 C760 1.427 . S
N764 C761 1.384 . S
N765 C757 1.427 . S
N765 C763 1.384 . S
H766 C772 0.930 . S
H767 C776 0.930 . S
H768 C781 0.929 . S
H769 C779 0.929 . S
H770 C774 0.929 . S
H771 C780 0.929 . S
C772 H766 0.930 . S
C772 C773 1.367 . S
C772 C780 1.378 . S
C773 C772 1.367 . S
C773 C781 1.433 . S
C774 H770 0.929 . S
C774 C776 1.378 . S
C774 C778 1.350 . S
C775 C778 1.463 . S
C775 C780 1.350 . S
C775 N783 1.427 . S
C776 H767 0.930 . S
C776 C774 1.378 . S
C776 C777 1.367 . S
C777 C776 1.367 . S
C777 C779 1.433 . S
C778 C774 1.350 . S
C778 C775 1.463 . S
C778 N782 1.427 . S
C779 H769 0.929 . S
C779 C777 1.433 . S
C779 N782 1.384 . S
C780 H771 0.929 . S
C780 C772 1.378 . S
C780 C775 1.350 . S
C781 H768 0.929 . S
C781 C773 1.433 . S
C781 N783 1.384 . S
N782 C778 1.427 . S
N782 C779 1.384 . S
N783 C775 1.427 . S
N783 C781 1.384 . S
H784 C790 0.930 . S
H785 C794 0.930 . S
H786 C799 0.929 . S
H787 C797 0.929 . S
H788 C792 0.929 . S
H789 C798 0.929 . S
C790 H784 0.930 . S
C790 C791 1.367 . S
C790 C798 1.378 . S
C791 C790 1.367 . S
C791 C799 1.433 . S
C792 H788 0.929 . S
C792 C794 1.378 . S
C792 C796 1.350 . S
C793 C796 1.463 . S
C793 C798 1.350 . S
C793 N801 1.427 . S
C794 H785 0.930 . S
C794 C792 1.378 . S
C794 C795 1.367 . S
C795 C794 1.367 . S
C795 C797 1.433 . S
C796 C792 1.350 . S
C796 C793 1.463 . S
C796 N800 1.427 . S
C797 H787 0.929 . S
C797 C795 1.433 . S
C797 N800 1.384 . S
C798 H789 0.929 . S
C798 C790 1.378 . S
C798 C793 1.350 . S
C799 H786 0.929 . S
C799 C791 1.433 . S
C799 N801 1.384 . S
N800 C796 1.427 . S
N800 C797 1.384 . S
N801 C793 1.427 . S
N801 C799 1.384 . S
H802 C808 0.930 . S
H803 C812 0.930 . S
H804 C817 0.929 . S
H805 C815 0.929 . S
H806 C810 0.929 . S
H807 C816 0.929 . S
C808 H802 0.930 . S
C808 C809 1.367 . S
C808 C816 1.378 . S
C809 C808 1.367 . S
C809 C817 1.433 . S
C810 H806 0.929 . S
C810 C812 1.378 . S
C810 C814 1.350 . S
C811 C814 1.463 . S
C811 C816 1.350 . S
C811 N819 1.427 . S
C812 H803 0.930 . S
C812 C810 1.378 . S
C812 C813 1.367 . S
C813 C812 1.367 . S
C813 C815 1.433 . S
C814 C810 1.350 . S
C814 C811 1.463 . S
C814 N818 1.427 . S
C815 H805 0.929 . S
C815 C813 1.433 . S
C815 N818 1.384 . S
C816 H807 0.929 . S
C816 C808 1.378 . S
C816 C811 1.350 . S
C817 H804 0.929 . S
C817 C809 1.433 . S
C817 N819 1.384 . S
N818 C814 1.427 . S
N818 C815 1.384 . S
N819 C811 1.427 . S
N819 C817 1.384 . S
H820 C826 0.930 . S
H821 C830 0.930 . S
H822 C835 0.929 . S
H823 C833 0.929 . S
H824 C828 0.929 . S
H825 C834 0.929 . S
C826 H820 0.930 . S
C826 C827 1.367 . S
C826 C834 1.378 . S
C827 C826 1.367 . S
C827 C835 1.433 . S
C828 H824 0.929 . S
C828 C830 1.378 . S
C828 C832 1.350 . S
C829 C832 1.463 . S
C829 C834 1.350 . S
C829 N837 1.427 . S
C830 H821 0.930 . S
C830 C828 1.378 . S
C830 C831 1.367 . S
C831 C830 1.367 . S
C831 C833 1.433 . S
C832 C828 1.350 . S
C832 C829 1.463 . S
C832 N836 1.427 . S
C833 H823 0.929 . S
C833 C831 1.433 . S
C833 N836 1.384 . S
C834 H825 0.929 . S
C834 C826 1.378 . S
C834 C829 1.350 . S
C835 H822 0.929 . S
C835 C827 1.433 . S
C835 N837 1.384 . S
N836 C832 1.427 . S
N836 C833 1.384 . S
N837 C829 1.427 . S
N837 C835 1.384 . S
H838 C844 0.930 . S
H839 C848 0.930 . S
H840 C853 0.929 . S
H841 C851 0.929 . S
H842 C846 0.929 . S
H843 C852 0.929 . S
C844 H838 0.930 . S
C844 C845 1.367 . S
C844 C852 1.378 . S
C845 C844 1.367 . S
C845 C853 1.433 . S
C846 H842 0.929 . S
C846 C848 1.378 . S
C846 C850 1.350 . S
C847 C850 1.463 . S
C847 C852 1.350 . S
C847 N855 1.427 . S
C848 H839 0.930 . S
C848 C846 1.378 . S
C848 C849 1.367 . S
C849 C848 1.367 . S
C849 C851 1.433 . S
C850 C846 1.350 . S
C850 C847 1.463 . S
C850 N854 1.427 . S
C851 H841 0.929 . S
C851 C849 1.433 . S
C851 N854 1.384 . S
C852 H843 0.929 . S
C852 C844 1.378 . S
C852 C847 1.350 . S
C853 H840 0.929 . S
C853 C845 1.433 . S
C853 N855 1.384 . S
N854 C850 1.427 . S
N854 C851 1.384 . S
N855 C847 1.427 . S
N855 C853 1.384 . S
H856 C862 0.930 . S
H857 C866 0.930 . S
H858 C871 0.929 . S
H859 C869 0.929 . S
H860 C864 0.929 . S
H861 C870 0.929 . S
C862 H856 0.930 . S
C862 C863 1.367 . S
C862 C870 1.378 . S
C863 C862 1.367 . S
C863 C871 1.433 . S
C864 H860 0.929 . S
C864 C866 1.378 . S
C864 C868 1.350 . S
C865 C868 1.463 . S
C865 C870 1.350 . S
C865 N873 1.427 . S
C866 H857 0.930 . S
C866 C864 1.378 . S
C866 C867 1.367 . S
C867 C866 1.367 . S
C867 C869 1.433 . S
C868 C864 1.350 . S
C868 C865 1.463 . S
C868 N872 1.427 . S
C869 H859 0.929 . S
C869 C867 1.433 . S
C869 N872 1.384 . S
C870 H861 0.929 . S
C870 C862 1.378 . S
C870 C865 1.350 . S
C871 H858 0.929 . S
C871 C863 1.433 . S
C871 N873 1.384 . S
N872 C868 1.427 . S
N872 C869 1.384 . S
N873 C865 1.427 . S
N873 C871 1.384 . S
H874 C880 0.930 . S
H875 C884 0.930 . S
H876 C889 0.929 . S
H877 C887 0.929 . S
H878 C882 0.929 . S
H879 C888 0.929 . S
C880 H874 0.930 . S
C880 C881 1.367 . S
C880 C888 1.378 . S
C881 C880 1.367 . S
C881 C889 1.433 . S
C882 H878 0.929 . S
C882 C884 1.378 . S
C882 C886 1.350 . S
C883 C886 1.463 . S
C883 C888 1.350 . S
C883 N891 1.427 . S
C884 H875 0.930 . S
C884 C882 1.378 . S
C884 C885 1.367 . S
C885 C884 1.367 . S
C885 C887 1.433 . S
C886 C882 1.350 . S
C886 C883 1.463 . S
C886 N890 1.427 . S
C887 H877 0.929 . S
C887 C885 1.433 . S
C887 N890 1.384 . S
C888 H879 0.929 . S
C888 C880 1.378 . S
C888 C883 1.350 . S
C889 H876 0.929 . S
C889 C881 1.433 . S
C889 N891 1.384 . S
N890 C886 1.427 . S
N890 C887 1.384 . S
N891 C883 1.427 . S
N891 C889 1.384 . S
H892 C898 0.930 . S
H893 C902 0.930 . S
H894 C907 0.929 . S
H895 C905 0.929 . S
H896 C900 0.929 . S
H897 C906 0.929 . S
C898 H892 0.930 . S
C898 C899 1.367 . S
C898 C906 1.378 . S
C899 C898 1.367 . S
C899 C907 1.433 . S
C900 H896 0.929 . S
C900 C902 1.378 . S
C900 C904 1.350 . S
C901 C904 1.463 . S
C901 C906 1.350 . S
C901 N909 1.427 . S
C902 H893 0.930 . S
C902 C900 1.378 . S
C902 C903 1.367 . S
C903 C902 1.367 . S
C903 C905 1.433 . S
C904 C900 1.350 . S
C904 C901 1.463 . S
C904 N908 1.427 . S
C905 H895 0.929 . S
C905 C903 1.433 . S
C905 N908 1.384 . S
C906 H897 0.929 . S
C906 C898 1.378 . S
C906 C901 1.350 . S
C907 H894 0.929 . S
C907 C899 1.433 . S
C907 N909 1.384 . S
N908 C904 1.427 . S
N908 C905 1.384 . S
N909 C901 1.427 . S
N909 C907 1.384 . S
H910 C916 0.930 . S
H911 C920 0.930 . S
H912 C925 0.929 . S
H913 C923 0.929 . S
H914 C918 0.929 . S
H915 C924 0.929 . S
C916 H910 0.930 . S
C916 C917 1.367 . S
C916 C924 1.378 . S
C917 C916 1.367 . S
C917 C925 1.433 . S
C918 H914 0.929 . S
C918 C920 1.378 . S
C918 C922 1.350 . S
C919 C922 1.463 . S
C919 C924 1.350 . S
C919 N927 1.427 . S
C920 H911 0.930 . S
C920 C918 1.378 . S
C920 C921 1.367 . S
C921 C920 1.367 . S
C921 C923 1.433 . S
C922 C918 1.350 . S
C922 C919 1.463 . S
C922 N926 1.427 . S
C923 H913 0.929 . S
C923 C921 1.433 . S
C923 N926 1.384 . S
C924 H915 0.929 . S
C924 C916 1.378 . S
C924 C919 1.350 . S
C925 H912 0.929 . S
C925 C917 1.433 . S
C925 N927 1.384 . S
N926 C922 1.427 . S
N926 C923 1.384 . S
N927 C919 1.427 . S
N927 C925 1.384 . S
H928 C934 0.930 . S
H929 C938 0.930 . S
H930 C943 0.929 . S
H931 C941 0.929 . S
H932 C936 0.929 . S
H933 C942 0.929 . S
C934 H928 0.930 . S
C934 C935 1.367 . S
C934 C942 1.378 . S
C935 C934 1.367 . S
C935 C943 1.433 . S
C936 H932 0.929 . S
C936 C938 1.378 . S
C936 C940 1.350 . S
C937 C940 1.463 . S
C937 C942 1.350 . S
C937 N945 1.427 . S
C938 H929 0.930 . S
C938 C936 1.378 . S
C938 C939 1.367 . S
C939 C938 1.367 . S
C939 C941 1.433 . S
C940 C936 1.350 . S
C940 C937 1.463 . S
C940 N944 1.427 . S
C941 H931 0.929 . S
C941 C939 1.433 . S
C941 N944 1.384 . S
C942 H933 0.929 . S
C942 C934 1.378 . S
C942 C937 1.350 . S
C943 H930 0.929 . S
C943 C935 1.433 . S
C943 N945 1.384 . S
N944 C940 1.427 . S
N944 C941 1.384 . S
N945 C937 1.427 . S
N945 C943 1.384 . S
H946 C952 0.930 . S
H947 C956 0.930 . S
H948 C961 0.929 . S
H949 C959 0.929 . S
H950 C954 0.929 . S
H951 C960 0.929 . S
C952 H946 0.930 . S
C952 C953 1.367 . S
C952 C960 1.378 . S
C953 C952 1.367 . S
C953 C961 1.433 . S
C954 H950 0.929 . S
C954 C956 1.378 . S
C954 C958 1.350 . S
C955 C958 1.463 . S
C955 C960 1.350 . S
C955 N963 1.427 . S
C956 H947 0.930 . S
C956 C954 1.378 . S
C956 C957 1.367 . S
C957 C956 1.367 . S
C957 C959 1.433 . S
C958 C954 1.350 . S
C958 C955 1.463 . S
C958 N962 1.427 . S
C959 H949 0.929 . S
C959 C957 1.433 . S
C959 N962 1.384 . S
C960 H951 0.929 . S
C960 C952 1.378 . S
C960 C955 1.350 . S
C961 H948 0.929 . S
C961 C953 1.433 . S
C961 N963 1.384 . S
N962 C958 1.427 . S
N962 C959 1.384 . S
N963 C955 1.427 . S
N963 C961 1.384 . S
H964 C970 0.930 . S
H965 C974 0.930 . S
H966 C979 0.929 . S
H967 C977 0.929 . S
H968 C972 0.929 . S
H969 C978 0.929 . S
C970 H964 0.930 . S
C970 C971 1.367 . S
C970 C978 1.378 . S
C971 C970 1.367 . S
C971 C979 1.433 . S
C972 H968 0.929 . S
C972 C974 1.378 . S
C972 C976 1.350 . S
C973 C976 1.463 . S
C973 C978 1.350 . S
C973 N981 1.427 . S
C974 H965 0.930 . S
C974 C972 1.378 . S
C974 C975 1.367 . S
C975 C974 1.367 . S
C975 C977 1.433 . S
C976 C972 1.350 . S
C976 C973 1.463 . S
C976 N980 1.427 . S
C977 H967 0.929 . S
C977 C975 1.433 . S
C977 N980 1.384 . S
C978 H969 0.929 . S
C978 C970 1.378 . S
C978 C973 1.350 . S
C979 H966 0.929 . S
C979 C971 1.433 . S
C979 N981 1.384 . S
N980 C976 1.427 . S
N980 C977 1.384 . S
N981 C973 1.427 . S
N981 C979 1.384 . S
H982 C988 0.930 . S
H983 C992 0.930 . S
H984 C997 0.929 . S
H985 C995 0.929 . S
H986 C990 0.929 . S
H987 C996 0.929 . S
C988 H982 0.930 . S
C988 C989 1.367 . S
C988 C996 1.378 . S
C989 C988 1.367 . S
C989 C997 1.433 . S
C990 H986 0.929 . S
C990 C992 1.378 . S
C990 C994 1.350 . S
C991 C994 1.463 . S
C991 C996 1.350 . S
C991 N999 1.427 . S
C992 H983 0.930 . S
C992 C990 1.378 . S
C992 C993 1.367 . S
C993 C992 1.367 . S
C993 C995 1.433 . S
C994 C990 1.350 . S
C994 C991 1.463 . S
C994 N998 1.427 . S
C995 H985 0.929 . S
C995 C993 1.433 . S
C995 N998 1.384 . S
C996 H987 0.929 . S
C996 C988 1.378 . S
C996 C991 1.350 . S
C997 H984 0.929 . S
C997 C989 1.433 . S
C997 N999 1.384 . S
N998 C994 1.427 . S
N998 C995 1.384 . S
N999 C991 1.427 . S
N999 C997 1.384 . S
H1000 C1006 0.930 . S
H1001 C1010 0.930 . S
H1002 C1015 0.929 . S
H1003 C1013 0.929 . S
H1004 C1008 0.929 . S
H1005 C1014 0.929 . S
C1006 H1000 0.930 . S
C1006 C1007 1.367 . S
C1006 C1014 1.378 . S
C1007 C1006 1.367 . S
C1007 C1015 1.433 . S
C1008 H1004 0.929 . S
C1008 C1010 1.378 . S
C1008 C1012 1.350 . S
C1009 C1012 1.463 . S
C1009 C1014 1.350 . S
C1009 N1017 1.427 . S
C1010 H1001 0.930 . S
C1010 C1008 1.378 . S
C1010 C1011 1.367 . S
C1011 C1010 1.367 . S
C1011 C1013 1.433 . S
C1012 C1008 1.350 . S
C1012 C1009 1.463 . S
C1012 N1016 1.427 . S
C1013 H1003 0.929 . S
C1013 C1011 1.433 . S
C1013 N1016 1.384 . S
C1014 H1005 0.929 . S
C1014 C1006 1.378 . S
C1014 C1009 1.350 . S
C1015 H1002 0.929 . S
C1015 C1007 1.433 . S
C1015 N1017 1.384 . S
N1016 C1012 1.427 . S
N1016 C1013 1.384 . S
N1017 C1009 1.427 . S
N1017 C1015 1.384 . S
H1018 C1024 0.930 . S
H1019 C1028 0.930 . S
H1020 C1033 0.929 . S
H1021 C1031 0.929 . S
H1022 C1026 0.929 . S
H1023 C1032 0.929 . S
C1024 H1018 0.930 . S
C1024 C1025 1.367 . S
C1024 C1032 1.378 . S
C1025 C1024 1.367 . S
C1025 C1033 1.433 . S
C1026 H1022 0.929 . S
C1026 C1028 1.378 . S
C1026 C1030 1.350 . S
C1027 C1030 1.463 . S
C1027 C1032 1.350 . S
C1027 N1035 1.427 . S
C1028 H1019 0.930 . S
C1028 C1026 1.378 . S
C1028 C1029 1.367 . S
C1029 C1028 1.367 . S
C1029 C1031 1.433 . S
C1030 C1026 1.350 . S
C1030 C1027 1.463 . S
C1030 N1034 1.427 . S
C1031 H1021 0.929 . S
C1031 C1029 1.433 . S
C1031 N1034 1.384 . S
C1032 H1023 0.929 . S
C1032 C1024 1.378 . S
C1032 C1027 1.350 . S
C1033 H1020 0.929 . S
C1033 C1025 1.433 . S
C1033 N1035 1.384 . S
N1034 C1030 1.427 . S
N1034 C1031 1.384 . S
N1035 C1027 1.427 . S
N1035 C1033 1.384 . S
H1036 C1042 0.930 . S
H1037 C1046 0.930 . S
H1038 C1051 0.929 . S
H1039 C1049 0.929 . S
H1040 C1044 0.929 . S
H1041 C1050 0.929 . S
C1042 H1036 0.930 . S
C1042 C1043 1.367 . S
C1042 C1050 1.378 . S
C1043 C1042 1.367 . S
C1043 C1051 1.433 . S
C1044 H1040 0.929 . S
C1044 C1046 1.378 . S
C1044 C1048 1.350 . S
C1045 C1048 1.463 . S
C1045 C1050 1.350 . S
C1045 N1053 1.427 . S
C1046 H1037 0.930 . S
C1046 C1044 1.378 . S
C1046 C1047 1.367 . S
C1047 C1046 1.367 . S
C1047 C1049 1.433 . S
C1048 C1044 1.350 . S
C1048 C1045 1.463 . S
C1048 N1052 1.427 . S
C1049 H1039 0.929 . S
C1049 C1047 1.433 . S
C1049 N1052 1.384 . S
C1050 H1041 0.929 . S
C1050 C1042 1.378 . S
C1050 C1045 1.350 . S
C1051 H1038 0.929 . S
C1051 C1043 1.433 . S
C1051 N1053 1.384 . S
N1052 C1048 1.427 . S
N1052 C1049 1.384 . S
N1053 C1045 1.427 . S
N1053 C1051 1.384 . S
H1054 C1060 0.930 . S
H1055 C1064 0.930 . S
H1056 C1069 0.929 . S
H1057 C1067 0.929 . S
H1058 C1062 0.929 . S
H1059 C1068 0.929 . S
C1060 H1054 0.930 . S
C1060 C1061 1.367 . S
C1060 C1068 1.378 . S
C1061 C1060 1.367 . S
C1061 C1069 1.433 . S
C1062 H1058 0.929 . S
C1062 C1064 1.378 . S
C1062 C1066 1.350 . S
C1063 C1066 1.463 . S
C1063 C1068 1.350 . S
C1063 N1071 1.427 . S
C1064 H1055 0.930 . S
C1064 C1062 1.378 . S
C1064 C1065 1.367 . S
C1065 C1064 1.367 . S
C1065 C1067 1.433 . S
C1066 C1062 1.350 . S
C1066 C1063 1.463 . S
C1066 N1070 1.427 . S
C1067 H1057 0.929 . S
C1067 C1065 1.433 . S
C1067 N1070 1.384 . S
C1068 H1059 0.929 . S
C1068 C1060 1.378 . S
C1068 C1063 1.350 . S
C1069 H1056 0.929 . S
C1069 C1061 1.433 . S
C1069 N1071 1.384 . S
N1070 C1066 1.427 . S
N1070 C1067 1.384 . S
N1071 C1063 1.427 . S
N1071 C1069 1.384 . S
C647 C1 1.126 . S
C651 C486 1.252 . S
C665 C80 0.925 . S
C669 C535 0.945 . S
C687 C570 2.486 . S
C683 C140 2.497 . S
C701 C211 2.383 . S
C705 C609 2.353 . S
C723 C530 2.464 . S
C719 C31 2.214 . S
C741 C489 0.837 . S
C737 C61 0.833 . S
C759 C619 1.884 . S
C755 C151 1.920 . S
C777 C578 1.622 . S
C773 C200 1.629 . S
C791 C20 1.618 . S
C795 C606 1.716 . S
C813 C538 2.326 . S
C809 C121 2.411 . S
C827 C181 2.308 . S
C831 C499 2.344 . S
C845 C91 0.852 . S
C849 C575 0.844 . S
C867 C495 1.256 . S
C863 C260 1.170 . S
C881 C320 0.924 . S
C885 C526 0.945 . S
C899 C361 2.495 . S
C903 C579 2.490 . S
C917 C451 2.383 . S
C921 C618 2.352 . S
C935 C271 2.275 . S
C939 C539 2.464 . S
C957 C498 0.840 . S
C953 C301 0.841 . S
C975 C610 1.895 . S
C971 C380 1.908 . S
C993 C569 1.622 . S
C989 C440 1.629 . S
C1007 C241 1.556 . S
C1011 C615 1.720 . S
C1029 C529 2.326 . S
C1025 C391 2.409 . S
C1047 C490 2.342 . S
C1043 C421 2.308 . S
C1061 C331 0.852 . S
C1065 C566 0.851 . S
