# Generated by pormake.
# Topology hwx, (6,3)-cn, num edge types: 1
# Building blocks:
#     Node 0, Type 0, BuildingBlock: IZENUY_clean_sbu_0, # of connection points: 6
#     Node 1, Type 0, BuildingBlock: IZENUY_clean_sbu_0, # of connection points: 6
#     Node 2, Type 0, BuildingBlock: IZENUY_clean_sbu_0, # of connection points: 6
#     Node 3, Type 0, BuildingBlock: IZENUY_clean_sbu_0, # of connection points: 6
#     Node 4, Type 1, BuildingBlock: CUQRIR_clean_linker_1, # of connection points: 3
#     Node 5, Type 1, BuildingBlock: CUQRIR_clean_linker_1, # of connection points: 3
#     Node 6, Type 1, BuildingBlock: CUQRIR_clean_linker_1, # of connection points: 3
#     Node 7, Type 1, BuildingBlock: CUQRIR_clean_linker_1, # of connection points: 3
#     Node 8, Type 1, BuildingBlock: CUQRIR_clean_linker_1, # of connection points: 3
#     Node 9, Type 1, BuildingBlock: CUQRIR_clean_linker_1, # of connection points: 3
#     Node 10, Type 1, BuildingBlock: CUQRIR_clean_linker_1, # of connection points: 3
#     Node 11, Type 1, BuildingBlock: CUQRIR_clean_linker_1, # of connection points: 3
#     Edge 12, Type (0, 1), BuildingBlock: XUDNAN_clean_linker_2, # of connection points: 2
#     Edge 13, Type (0, 1), BuildingBlock: XUDNAN_clean_linker_2, # of connection points: 2
#     Edge 14, Type (0, 1), BuildingBlock: XUDNAN_clean_linker_2, # of connection points: 2
#     Edge 15, Type (0, 1), BuildingBlock: XUDNAN_clean_linker_2, # of connection points: 2
#     Edge 16, Type (0, 1), BuildingBlock: XUDNAN_clean_linker_2, # of connection points: 2
#     Edge 17, Type (0, 1), BuildingBlock: XUDNAN_clean_linker_2, # of connection points: 2
#     Edge 18, Type (0, 1), BuildingBlock: XUDNAN_clean_linker_2, # of connection points: 2
#     Edge 19, Type (0, 1), BuildingBlock: XUDNAN_clean_linker_2, # of connection points: 2
#     Edge 20, Type (0, 1), BuildingBlock: XUDNAN_clean_linker_2, # of connection points: 2
#     Edge 21, Type (0, 1), BuildingBlock: XUDNAN_clean_linker_2, # of connection points: 2
#     Edge 22, Type (0, 1), BuildingBlock: XUDNAN_clean_linker_2, # of connection points: 2
#     Edge 23, Type (0, 1), BuildingBlock: XUDNAN_clean_linker_2, # of connection points: 2
#     Edge 24, Type (0, 1), BuildingBlock: XUDNAN_clean_linker_2, # of connection points: 2
#     Edge 25, Type (0, 1), BuildingBlock: XUDNAN_clean_linker_2, # of connection points: 2
#     Edge 26, Type (0, 1), BuildingBlock: XUDNAN_clean_linker_2, # of connection points: 2
#     Edge 27, Type (0, 1), BuildingBlock: XUDNAN_clean_linker_2, # of connection points: 2
#     Edge 28, Type (0, 1), BuildingBlock: XUDNAN_clean_linker_2, # of connection points: 2
#     Edge 29, Type (0, 1), BuildingBlock: XUDNAN_clean_linker_2, # of connection points: 2
#     Edge 30, Type (0, 1), BuildingBlock: XUDNAN_clean_linker_2, # of connection points: 2
#     Edge 31, Type (0, 1), BuildingBlock: XUDNAN_clean_linker_2, # of connection points: 2
#     Edge 32, Type (0, 1), BuildingBlock: XUDNAN_clean_linker_2, # of connection points: 2
#     Edge 33, Type (0, 1), BuildingBlock: XUDNAN_clean_linker_2, # of connection points: 2
#     Edge 34, Type (0, 1), BuildingBlock: XUDNAN_clean_linker_2, # of connection points: 2
#     Edge 35, Type (0, 1), BuildingBlock: XUDNAN_clean_linker_2, # of connection points: 2
# Relax obj value: 0.001
# Max RMSD: 0.072
# Mean RMSD: 0.053
data_MOF--net-hwx--node1-IZENUY_clean_sbu_0--node2-CUQRIR_clean_linker_1--edge1-XUDNAN_clean_linker_2
_symmetry_space_group_name_H-M    P1
_symmetry_Int_Tables_number       1
_symmetry_cell_setting            triclinic
loop_
_symmetry_equiv_pos_as_xyz
'x, y, z'
_cell_length_a     47.491172
_cell_length_b     47.669998
_cell_length_c     18.788727
_cell_angle_alpha  90.002861
_cell_angle_beta   90.027886
_cell_angle_gamma 89.926284
loop_
_atom_site_label
_atom_site_type_symbol
_atom_site_fract_x
_atom_site_fract_y
_atom_site_fract_z
_atom_type_partial_charge
Fe0 Fe 0.24157 0.23677 0.07319 0.0
Fe1 Fe 0.24519 0.23868 0.90932 0.0
O2 O 0.22869 0.22643 0.98819 0.0
Fe3 Fe 0.19937 0.20367 0.98211 0.0
O4 O 0.17708 0.22814 0.02935 0.0
O5 O 0.20658 0.23652 0.11703 0.0
O6 O 0.2357 0.27343 0.05377 0.0
C7 C 0.24562 0.28638 1.001 0.0
C8 C 0.22975 0.18188 0.10114 0.0
O9 O 0.25468 0.27328 0.94681 0.0
C10 C 0.23188 0.18174 0.87621 0.0
O11 O 0.27887 0.23893 0.04514 0.0
O12 O 0.27851 0.22317 0.93512 0.0
O13 O 0.20747 0.18431 0.06446 0.0
O14 O 0.24842 0.20067 0.09927 0.0
C15 C 0.19026 0.24179 0.86727 0.0
O16 O 0.23866 0.20637 0.85716 0.0
O17 O 0.21962 0.17759 0.93475 0.0
C18 C 0.29149 0.22816 0.99223 0.0
O19 O 0.21294 0.25489 0.87768 0.0
O20 O 0.18567 0.21865 0.8984 0.0
C21 C 0.18171 0.23637 0.09208 0.0
Fe22 Fe 0.28024 0.74525 0.59227 0.0
Fe23 Fe 0.30994 0.69583 0.51826 0.0
O24 O 0.29059 0.72761 0.51314 0.0
Fe25 Fe 0.28137 0.74201 0.42925 0.0
O26 O 0.30016 0.77425 0.44838 0.0
O27 O 0.28139 0.78086 0.55358 0.0
O28 O 0.31678 0.74994 0.62029 0.0
C29 C 0.3335 0.72954 0.62975 0.0
C30 C 0.23228 0.75001 0.51269 0.0
O31 O 0.32942 0.70622 0.59867 0.0
C32 C 0.27236 0.68629 0.40171 0.0
O33 O 0.27745 0.71341 0.64639 0.0
O34 O 0.28268 0.67867 0.57119 0.0
O35 O 0.24763 0.75661 0.46011 0.0
O36 O 0.24315 0.74111 0.56978 0.0
C37 C 0.33673 0.72142 0.40599 0.0
O38 O 0.29392 0.68007 0.43841 0.0
O39 O 0.26215 0.71074 0.40337 0.0
C40 C 0.27536 0.68761 0.63167 0.0
O41 O 0.33885 0.71019 0.46659 0.0
O42 O 0.31323 0.73009 0.38313 0.0
C43 C 0.29469 0.79014 0.5001 0.0
Fe44 Fe 0.78143 0.79315 0.93549 0.0
Fe45 Fe 0.77766 0.78748 0.09937 0.0
O46 O 0.79089 0.80485 0.02229 0.0
Fe47 Fe 0.81368 0.8341 0.03194 0.0
O48 O 0.78966 0.85697 0.98459 0.0
O49 O 0.78154 0.8284 0.89497 0.0
O50 O 0.7443 0.79821 0.95287 0.0
C51 C 0.73081 0.7882 1.00467 0.0
C52 C 0.83676 0.80558 0.91194 0.0
O53 O 0.74331 0.77886 0.05938 0.0
C54 C 0.83458 0.80047 0.13701 0.0
O55 O 0.77979 0.75586 0.95973 0.0
O56 O 0.79267 0.75408 0.07237 0.0
O57 O 0.83397 0.82717 0.95055 0.0
O58 O 0.81789 0.78703 0.91067 0.0
C59 C 0.77457 0.84193 0.14522 0.0
O60 O 0.80975 0.79307 0.15355 0.0
O61 O 0.83936 0.8134 0.07972 0.0
C62 C 0.78919 0.74239 0.01278 0.0
O63 O 0.76146 0.81946 0.13283 0.0
O64 O 0.79795 0.84679 0.11538 0.0
C65 C 0.78141 0.85284 0.9216 0.0
Fe66 Fe 0.70348 0.33381 0.54274 0.0
Fe67 Fe 0.73866 0.28761 0.6131 0.0
O68 O 0.72726 0.30539 0.53487 0.0
Fe69 Fe 0.73967 0.29483 0.4494 0.0
O70 O 0.75365 0.32957 0.42815 0.0
O71 O 0.71679 0.35304 0.4658 0.0
O72 O 0.72806 0.35365 0.59808 0.0
C73 C 0.73709 0.34469 0.65717 0.0
C74 C 0.68147 0.30644 0.42659 0.0
O75 O 0.73702 0.3187 0.67083 0.0
C76 C 0.73214 0.24348 0.51322 0.0
O77 O 0.68548 0.31993 0.6213 0.0
O78 O 0.7027 0.27767 0.638 0.0
O79 O 0.7062 0.30224 0.40325 0.0
O80 O 0.67741 0.31601 0.48851 0.0
C81 C 0.78817 0.29239 0.53784 0.0
O82 O 0.74261 0.25301 0.57026 0.0
O83 O 0.72639 0.25956 0.46213 0.0
C84 C 0.68385 0.29591 0.64972 0.0
O85 O 0.77488 0.29696 0.59481 0.0
O86 O 0.77538 0.28543 0.48115 0.0
C87 C 0.73938 0.35192 0.43042 0.0
C88 C 0.2565 0.5092 0.96246 0.0
N89 N 0.25355 0.53644 0.9826 0.0
N90 N 0.25097 0.49169 0.01771 0.0
C91 C 0.26798 0.49976 0.89173 0.0
C92 C 0.24464 0.5093 0.0721 0.0
N93 N 0.24645 0.53639 0.0512 0.0
C94 C 0.2354 0.50002 0.14501 0.0
H95 H 0.25016 0.4963 0.85455 0.0
H96 H 0.27978 0.47978 0.89704 0.0
H97 H 0.28212 0.51584 0.86849 0.0
H98 H 0.25402 0.49875 0.18052 0.0
H99 H 0.22529 0.47906 0.14276 0.0
H100 H 0.2204 0.51537 0.16826 0.0
C101 C 1.01063 0.76034 0.57662 0.0
N102 N 0.98315 0.76472 0.56017 0.0
N103 N 0.02568 0.75382 0.51763 0.0
C104 C 0.02343 0.76568 0.64863 0.0
C105 C 1.0061 0.75413 0.46504 0.0
N106 N 0.98027 0.76081 0.49057 0.0
C107 C 0.01261 0.75038 0.38729 0.0
H108 H 0.03353 0.78666 0.64853 0.0
H109 H 0.0399 0.74988 0.66052 0.0
H110 H 1.00729 0.76502 0.69127 0.0
H111 H 0.03214 0.7379 0.37997 0.0
H112 H 0.01554 0.77125 0.36227 0.0
H113 H 0.99477 0.73985 0.36006 0.0
C114 C 0.79426 0.52184 0.08214 0.0
N115 N 0.78536 0.49508 0.07182 0.0
N116 N 0.7929 0.53691 0.02109 0.0
C117 C 0.80545 0.53286 0.15169 0.0
C118 C 0.78311 0.51821 0.97266 0.0
N119 N 0.77885 0.49269 1.00305 0.0
C120 C 0.77387 0.52595 0.89842 0.0
H121 H 0.78798 0.54228 0.18275 0.0
H122 H 0.82161 0.54925 0.14237 0.0
H123 H 0.81476 0.5156 0.18367 0.0
H124 H 0.79205 0.52399 0.86169 0.0
H125 H 0.76622 0.54794 0.89647 0.0
H126 H 0.75678 0.51198 0.87945 0.0
C127 C 1.00809 0.27759 0.43994 0.0
N128 N 0.03594 0.27274 0.45146 0.0
N129 N 0.99447 0.28298 0.50195 0.0
C130 C 0.99467 0.27939 0.3675 0.0
C131 C 0.01515 0.28132 0.5517 0.0
N132 N 0.04024 0.2752 0.52112 0.0
C133 C 1.0108 0.28487 0.63055 0.0
H134 H 0.97742 0.29512 0.36727 0.0
H135 H 0.9856 0.25868 0.35345 0.0
H136 H 1.01043 0.28515 0.32644 0.0
H137 H 0.9891 0.27887 0.64614 0.0
H138 H 0.01426 0.30718 0.64479 0.0
H139 H 0.02599 0.27201 0.66133 0.0
C140 C 0.73788 0.02343 0.57207 0.0
N141 N 0.74249 0.99578 0.55946 0.0
N142 N 0.73275 0.03748 0.51064 0.0
C143 C 0.73611 0.03628 0.64517 0.0
C144 C 0.73414 0.01719 0.46002 0.0
N145 N 0.73998 0.99191 0.48966 0.0
C146 C 0.73067 0.02215 0.38141 0.0
H147 H 0.72077 0.05385 0.6459 0.0
H148 H 0.75706 0.0446 0.66044 0.0
H149 H 0.72975 0.02038 0.68517 0.0
H150 H 0.74257 1.0065 0.34977 0.0
H151 H 0.73788 0.0435 0.36665 0.0
H152 H 0.70806 0.02017 0.36747 0.0
C153 C 0.51733 0.24064 0.9791 0.0
N154 N 0.54162 0.25016 1.00855 0.0
N155 N 0.49741 0.23644 0.02981 0.0
C156 C 0.51204 0.23866 0.9002 0.0
C157 C 0.51052 0.24386 0.09108 0.0
N158 N 0.5372 0.25268 0.0782 0.0
C159 C 0.49786 0.24069 0.16406 0.0
H160 H 0.48961 0.24279 0.88747 0.0
H161 H 0.51744 0.21718 0.88197 0.0
H162 H 0.52526 0.25377 0.87027 0.0
H163 H 0.48222 0.22341 0.16475 0.0
H164 H 0.48695 0.2604 0.17905 0.0
H165 H 0.51445 0.23637 0.20422 0.0
C166 C 0.28593 0.01302 0.42967 0.0
N167 N 0.27688 0.03827 0.45388 0.0
N168 N 0.29211 0.99561 0.48468 0.0
C169 C 0.28641 1.00446 0.35255 0.0
C170 C 0.28633 0.01127 0.5431 0.0
N171 N 0.27687 0.03708 0.52449 0.0
C172 C 0.29044 1.00157 0.61859 0.0
H173 H 0.27813 0.98283 0.34643 0.0
H174 H 0.3085 1.00459 0.33347 0.0
H175 H 0.27401 0.01894 0.31859 0.0
H176 H 0.2959 0.01954 0.65353 0.0
H177 H 0.30729 0.98547 0.6217 0.0
H178 H 0.27056 0.99222 0.63841 0.0
C179 C 0.51191 0.7648 0.06813 0.0
N180 N 0.48427 0.7595 0.05558 0.0
N181 N 0.52507 0.77311 1.00766 0.0
C182 C 0.52658 0.75998 0.1382 0.0
C183 C 0.50418 0.77311 0.95825 0.0
N184 N 0.47935 0.76504 0.98732 0.0
C185 C 0.50856 0.77842 0.88008 0.0
H186 H 0.54273 0.77622 0.1481 0.0
H187 H 0.53735 0.73931 0.13675 0.0
H188 H 0.51152 0.76033 0.18326 0.0
H189 H 0.50715 0.75824 0.85085 0.0
H190 H 0.5293 0.78824 0.86957 0.0
H191 H 0.49181 0.79243 0.85935 0.0
H192 H 0.17468 0.27191 0.20798 0.0
H193 H 0.13373 0.20591 0.08712 0.0
H194 H 0.09386 0.20656 0.17059 0.0
H195 H 0.15154 0.25034 0.38352 0.0
H196 H 0.14491 0.28541 0.41522 0.0
H197 H 0.17141 0.27938 0.34824 0.0
H198 H 0.14691 0.31497 0.26438 0.0
H199 H 0.12059 0.32138 0.33146 0.0
H200 H 0.11013 0.31056 0.24341 0.0
H201 H 0.05948 0.21236 0.26852 0.0
H202 H 0.02871 0.22806 0.36663 0.0
H203 H 0.08808 0.29393 0.41828 0.0
C204 C 0.15725 0.25769 0.19928 0.0
C205 C 0.15732 0.23885 0.14097 0.0
C206 C 0.13405 0.2207 0.13092 0.0
C207 C 0.11138 0.22071 0.17843 0.0
C208 C 0.11193 0.23934 0.2354 0.0
C209 C 0.1339 0.25793 0.24549 0.0
C210 C 0.12805 0.27691 0.30892 0.0
C211 C 0.15031 0.27275 0.36743 0.0
C212 C 0.12631 0.30779 0.28563 0.0
C213 C 0.09948 0.26597 0.33259 0.0
C214 C 0.09097 0.24392 0.29004 0.0
C215 C 0.06574 0.22983 0.30169 0.0
C216 C 0.04837 0.23891 0.35729 0.0
C217 C 0.05587 0.26226 0.39973 0.0
C218 C 0.08197 0.27577 0.38763 0.0
H219 H 0.24809 0.636 0.63934 0.0
H220 H 0.29904 0.69447 0.76086 0.0
H221 H 0.29929 0.66195 0.8623 0.0
H222 H 0.20483 0.61438 0.79089 0.0
H223 H 0.20217 0.57839 0.76224 0.0
H224 H 0.20633 0.60593 0.69743 0.0
H225 H 0.25042 0.5808 0.64706 0.0
H226 H 0.24649 0.55328 0.71204 0.0
H227 H 0.27918 0.5723 0.70598 0.0
H228 H 0.29718 0.62231 0.94759 0.0
H229 H 0.28805 0.57951 0.01765 0.0
H230 H 0.23376 0.54833 0.84995 0.0
C231 C 0.25913 0.64188 0.6875 0.0
C232 C 0.27345 0.66781 0.69226 0.0
C233 C 0.28764 0.67488 0.75622 0.0
C234 C 0.28808 0.65647 0.81411 0.0
C235 C 0.27381 0.63115 0.80806 0.0
C236 C 0.25918 0.62393 0.74707 0.0
C237 C 0.24479 0.59571 0.75645 0.0
C238 C 0.21262 0.5988 0.75146 0.0
C239 C 0.25589 0.57426 0.70214 0.0
C240 C 0.25398 0.58824 0.83162 0.0
C241 C 0.27101 0.60888 0.85983 0.0
C242 C 0.28334 0.60626 0.92683 0.0
C243 C 0.27783 0.58201 0.96657 0.0
C244 C 0.25956 0.56102 0.9402 0.0
C245 C 0.24762 0.56419 0.87158 0.0
H246 H 0.84443 0.75994 0.24015 0.0
H247 H 0.87625 0.83848 0.15548 0.0
H248 H 0.91384 0.83856 0.24555 0.0
H249 H 0.86107 0.77332 0.42823 0.0
H250 H 0.87236 0.73788 0.44566 0.0
H251 H 0.84606 0.74464 0.37854 0.0
H252 H 0.87648 0.71884 0.28457 0.0
H253 H 0.90267 0.71176 0.35153 0.0
H254 H 0.91242 0.72967 0.27074 0.0
H255 H 0.94814 0.83062 0.34208 0.0
H256 H 0.98137 0.8116 0.43139 0.0
H257 H 0.9306 0.73675 0.45135 0.0
C258 C 0.85925 0.77718 0.24112 0.0
C259 C 0.85738 0.79924 0.19082 0.0
C260 C 0.87736 0.82127 0.19304 0.0
C261 C 0.89866 0.82165 0.24446 0.0
C262 C 0.90001 0.79971 0.29313 0.0
C263 C 0.88118 0.77762 0.29154 0.0
C264 C 0.88902 0.75564 0.34686 0.0
C265 C 0.86573 0.7527 0.40315 0.0
C266 C 0.89554 0.7273 0.31129 0.0
C267 C 0.91536 0.7687 0.37869 0.0
C268 C 0.92082 0.79444 0.34773 0.0
C269 C 0.94408 0.81054 0.36685 0.0
C270 C 0.96273 0.79972 0.41756 0.0
C271 C 0.95829 0.77298 0.4478 0.0
C272 C 0.93409 0.75742 0.4292 0.0
H273 H 0.77271 0.39017 0.66896 0.0
H274 H 0.70929 0.34258 0.7822 0.0
H275 H 0.71319 0.37476 0.88475 0.0
H276 H 0.8164 0.40161 0.82583 0.0
H277 H 0.82734 0.43618 0.79869 0.0
H278 H 0.81857 0.41024 0.73258 0.0
H279 H 0.78188 0.44422 0.67757 0.0
H280 H 0.79056 0.47024 0.74351 0.0
H281 H 0.75463 0.45879 0.73328 0.0
H282 H 0.72138 0.41461 0.9712 0.0
H283 H 0.73682 0.4562 0.03943 0.0
H284 H 0.80061 0.47289 0.88015 0.0
C285 C 0.75961 0.38675 0.71531 0.0
C286 C 0.74027 0.36432 0.71742 0.0
C287 C 0.7239 0.35994 0.7794 0.0
C288 C 0.72602 0.37805 0.83792 0.0
C289 C 0.74526 0.40001 0.83453 0.0
C290 C 0.76217 0.40412 0.77543 0.0
C291 C 0.78213 0.42847 0.78717 0.0
C292 C 0.81294 0.41852 0.78601 0.0
C293 C 0.77698 0.45181 0.73211 0.0
C294 C 0.77335 0.43768 0.86121 0.0
C295 C 0.7518 0.42126 0.88729 0.0
C296 C 0.73876 0.4272 0.95219 0.0
C297 C 0.74789 0.45068 0.99114 0.0
C298 C 0.77038 0.46743 0.96608 0.0
C299 C 0.78344 0.4604 0.90077 0.0
H300 H 0.67734 0.27195 0.309 0.0
H301 H 0.63016 0.33204 0.43535 0.0
H302 H 0.58944 0.32653 0.3551 0.0
H303 H 0.64903 0.29167 0.13562 0.0
H304 H 0.64719 0.25612 0.10336 0.0
H305 H 0.67352 0.26571 0.16806 0.0
H306 H 0.65582 0.22658 0.25259 0.0
H307 H 0.6296 0.21675 0.18795 0.0
H308 H 0.61916 0.22565 0.27738 0.0
H309 H 0.55413 0.31533 0.26132 0.0
H310 H 0.52438 0.29537 0.16623 0.0
H311 H 0.59237 0.23997 0.10385 0.0
C312 C 0.65849 0.28409 0.31937 0.0
C313 C 0.65702 0.3026 0.3783 0.0
C314 C 0.63181 0.31773 0.39075 0.0
C315 C 0.60861 0.31487 0.34519 0.0
C316 C 0.61074 0.29654 0.28766 0.0
C317 C 0.63487 0.28114 0.27491 0.0
C318 C 0.6309 0.26175 0.21142 0.0
C319 C 0.65138 0.26927 0.15105 0.0
C320 C 0.63405 0.23085 0.23369 0.0
C321 C 0.60072 0.26857 0.19092 0.0
C322 C 0.58973 0.28903 0.23513 0.0
C323 C 0.5624 0.2991 0.2269 0.0
C324 C 0.5456 0.28754 0.17315 0.0
C325 C 0.55589 0.26577 0.12901 0.0
C326 C 0.58402 0.25654 0.13716 0.0
H327 H 0.26702 0.17633 0.75902 0.0
H328 H 0.2018 0.13324 0.87847 0.0
H329 H 0.20384 0.09383 0.79439 0.0
H330 H 0.24546 0.15245 0.58163 0.0
H331 H 0.28098 0.14756 0.55023 0.0
H332 H 0.27353 0.17382 0.61671 0.0
H333 H 0.31046 0.15151 0.70104 0.0
H334 H 0.31823 0.12541 0.63457 0.0
H335 H 0.30787 0.11477 0.7228 0.0
H336 H 0.21279 0.05879 0.70045 0.0
H337 H 0.23191 0.02762 0.60704 0.0
H338 H 0.29276 0.0911 0.54881 0.0
C339 C 0.25308 0.15866 0.76706 0.0
C340 C 0.2342 0.15798 0.82542 0.0
C341 C 0.21654 0.13429 0.83458 0.0
C342 C 0.21736 0.11183 0.78672 0.0
C343 C 0.23609 0.11313 0.72992 0.0
C344 C 0.25388 0.1357 0.72002 0.0
C345 C 0.27325 0.13068 0.6568 0.0
C346 C 0.26798 0.15243 0.59786 0.0
C347 C 0.30429 0.13058 0.68022 0.0
C348 C 0.26373 0.10164 0.63367 0.0
C349 C 0.24194 0.09223 0.67614 0.0
C350 C 0.22984 0.06589 0.66683 0.0
C351 C 0.24078 0.04835 0.61393 0.0
C352 C 0.26375 0.05702 0.57158 0.0
C353 C 0.27501 0.08422 0.58041 0.0
H354 H 0.34619 0.75765 0.29521 0.0
H355 H 0.38311 0.68724 0.40826 0.0
H356 H 0.4234 0.6875 0.32498 0.0
H357 H 0.36809 0.73779 0.11741 0.0
H358 H 0.37584 0.77321 0.09029 0.0
H359 H 0.34911 0.76676 0.15634 0.0
H360 H 0.37467 0.79986 0.24462 0.0
H361 H 0.40128 0.80664 0.17862 0.0
H362 H 0.41124 0.79374 0.26525 0.0
H363 H 0.45902 0.69463 0.22771 0.0
H364 H 0.49064 0.71206 0.13291 0.0
H365 H 0.43254 0.77983 0.08814 0.0
C366 C 0.3627 0.74219 0.30217 0.0
C367 C 0.36143 0.72227 0.35792 0.0
C368 C 0.38366 0.7027 0.36605 0.0
C369 C 0.40652 0.70257 0.3187 0.0
C370 C 0.40701 0.72234 0.26402 0.0
C371 C 0.38589 0.74206 0.2561 0.0
C372 C 0.39233 0.76205 0.1954 0.0
C373 C 0.37001 0.75981 0.13637 0.0
C374 C 0.39505 0.79236 0.22262 0.0
C375 C 0.42046 0.75059 0.17065 0.0
C376 C 0.42828 0.72738 0.21023 0.0
C377 C 0.45328 0.71298 0.19704 0.0
C378 C 0.47114 0.72305 0.14347 0.0
C379 C 0.46427 0.74764 0.10492 0.0
C380 C 0.43827 0.76112 0.11746 0.0
H381 H 0.74478 0.85947 0.8084 0.0
H382 H 0.81136 0.90113 0.92605 0.0
H383 H 0.81033 0.94033 0.84061 0.0
H384 H 0.76555 0.88076 0.63213 0.0
H385 H 0.73027 0.8872 0.60068 0.0
H386 H 0.73642 0.86148 0.66929 0.0
H387 H 0.70113 0.88688 0.75239 0.0
H388 H 0.69451 0.91237 0.68359 0.0
H389 H 0.70574 0.92373 0.7706 0.0
H390 H 0.80462 0.97332 0.73959 0.0
H391 H 0.78845 1.00309 0.64014 0.0
H392 H 0.72167 0.94392 0.59453 0.0
C393 C 0.75896 0.87698 0.81618 0.0
C394 C 0.77817 0.8773 0.87383 0.0
C395 C 0.79631 0.90059 0.88272 0.0
C396 C 0.79609 0.92282 0.83406 0.0
C397 C 0.77723 0.92176 0.77739 0.0
C398 C 0.75848 0.89987 0.76899 0.0
C399 C 0.73922 0.90505 0.70563 0.0
C400 C 0.74311 0.88226 0.64857 0.0
C401 C 0.70832 0.90714 0.7295 0.0
C402 C 0.75022 0.93319 0.67985 0.0
C403 C 0.77256 0.94201 0.72131 0.0
C404 C 0.78687 0.96686 0.70741 0.0
C405 C 0.77755 0.98362 0.65101 0.0
C406 C 0.75372 0.97595 0.6102 0.0
C407 C 0.74015 0.95014 0.62412 0.0
H408 H 0.84932 0.76378 0.81455 0.0
H409 H 0.87839 0.8444 0.89346 0.0
H410 H 0.91696 0.84381 0.80613 0.0
H411 H 0.91773 0.73415 0.78579 0.0
H412 H 0.90796 0.71577 0.70566 0.0
H413 H 0.88187 0.72284 0.77285 0.0
H414 H 0.85087 0.74784 0.67863 0.0
H415 H 0.87704 0.74112 0.61127 0.0
H416 H 0.86538 0.7765 0.62793 0.0
H417 H 0.95265 0.83477 0.7118 0.0
H418 H 0.98542 0.81569 0.62126 0.0
H419 H 0.9343 0.74099 0.60297 0.0
C420 C 0.86379 0.78131 0.81349 0.0
C421 C 0.86068 0.80417 0.86106 0.0
C422 C 0.8802 0.82663 0.85784 0.0
C423 C 0.90216 0.82658 0.8081 0.0
C424 C 0.90444 0.80395 0.76167 0.0
C425 C 0.88594 0.78162 0.76403 0.0
C426 C 0.8938 0.7595 0.70932 0.0
C427 C 0.90076 0.7314 0.74559 0.0
C428 C 0.87037 0.75605 0.65349 0.0
C429 C 0.91984 0.77274 0.67682 0.0
C430 C 0.92536 0.79854 0.70736 0.0
C431 C 0.94855 0.81461 0.68747 0.0
C432 C 0.96699 0.80371 0.63624 0.0
C433 C 0.96225 0.77698 0.60607 0.0
C434 C 0.9381 0.76157 0.62538 0.0
H435 H 0.77495 0.35559 0.31179 0.0
H436 H 0.71989 0.40476 0.44832 0.0
H437 H 0.72606 0.4455 0.37058 0.0
H438 H 0.82356 0.41374 0.26916 0.0
H439 H 0.82849 0.40292 0.17808 0.0
H440 H 0.82093 0.37717 0.24565 0.0
H441 H 0.77812 0.36001 0.17219 0.0
H442 H 0.78537 0.38593 0.10484 0.0
H443 H 0.75124 0.38478 0.14654 0.0
H444 H 0.73394 0.47955 0.27596 0.0
H445 H 0.74833 0.50818 0.17324 0.0
H446 H 0.80103 0.44028 0.09694 0.0
C447 C 0.76462 0.37508 0.3258 0.0
C448 C 0.74675 0.37679 0.38627 0.0
C449 C 0.73346 0.40268 0.40227 0.0
C450 C 0.7368 0.42606 0.35834 0.0
C451 C 0.75372 0.42353 0.2984 0.0
C452 C 0.76782 0.39898 0.28217 0.0
C453 C 0.78459 0.4025 0.21352 0.0
C454 C 0.81628 0.39887 0.22745 0.0
C455 C 0.7742 0.38208 0.15588 0.0
C456 C 0.77747 0.43273 0.19413 0.0
C457 C 0.75936 0.44413 0.24394 0.0
C458 C 0.74855 0.47111 0.23729 0.0
C459 C 0.75687 0.48723 0.17899 0.0
C460 C 0.7762 0.47669 0.12837 0.0
C461 C 0.78646 0.44889 0.13548 0.0
H462 H 0.14655 0.2128 0.80525 0.0
H463 H 0.18933 0.29324 0.80183 0.0
H464 H 0.15754 0.30927 0.70594 0.0
H465 H 0.13532 0.2078 0.61483 0.0
H466 H 0.10115 0.19175 0.62347 0.0
H467 H 0.12745 0.18637 0.69131 0.0
H468 H 0.09296 0.20501 0.78728 0.0
H469 H 0.0665 0.21014 0.71985 0.0
H470 H 0.07696 0.23903 0.77576 0.0
H471 H 0.11945 0.31743 0.61465 0.0
H472 H 0.07744 0.31701 0.53607 0.0
H473 H 0.06098 0.23088 0.59401 0.0
C474 C 0.14922 0.23383 0.78455 0.0
C475 C 0.17047 0.25178 0.81137 0.0
C476 C 0.17329 0.27907 0.78226 0.0
C477 C 0.15536 0.28835 0.72761 0.0
C478 C 0.13485 0.27003 0.70201 0.0
C479 C 0.13169 0.24334 0.72951 0.0
C480 C 0.10771 0.22792 0.69329 0.0
C481 C 0.11857 0.20192 0.65336 0.0
C482 C 0.08467 0.22007 0.74726 0.0
C483 C 0.09755 0.25026 0.64188 0.0
C484 C 0.11356 0.27438 0.64762 0.0
C485 C 0.10714 0.29848 0.60875 0.0
C486 C 0.08348 0.29806 0.56397 0.0
C487 C 0.06685 0.27365 0.55752 0.0
C488 C 0.07412 0.24939 0.59643 0.0
H489 H 0.29164 0.63287 0.37556 0.0
H490 H 0.22911 0.69344 0.30573 0.0
H491 H 0.21453 0.66112 0.20976 0.0
H492 H 0.3128 0.61084 0.20459 0.0
H493 H 0.3176 0.57459 0.22904 0.0
H494 H 0.3218 0.60169 0.2949 0.0
H495 H 0.28448 0.57761 0.37483 0.0
H496 H 0.28026 0.55034 0.30929 0.0
H497 H 0.25008 0.5701 0.33898 0.0
H498 H 0.20897 0.62292 0.11541 0.0
H499 H 0.21164 0.58116 0.03614 0.0
H500 H 0.27749 0.54634 0.16857 0.0
C501 C 0.27459 0.63926 0.34085 0.0
C502 C 0.26154 0.66579 0.34854 0.0
C503 C 0.23944 0.67325 0.3013 0.0
C504 C 0.23102 0.65503 0.24643 0.0
C505 C 0.24476 0.62931 0.23953 0.0
C506 C 0.26592 0.62136 0.28594 0.0
C507 C 0.27791 0.59296 0.26616 0.0
C508 C 0.30939 0.59517 0.24756 0.0
C509 C 0.27287 0.57149 0.32587 0.0
C510 C 0.26043 0.58625 0.20099 0.0
C511 C 0.24139 0.60742 0.18623 0.0
C512 C 0.22361 0.60612 0.12701 0.0
C513 C 0.22526 0.58249 0.08224 0.0
C514 C 0.24448 0.56059 0.09713 0.0
C515 C 0.26225 0.56262 0.15712 0.0
H516 H 0.35858 0.776 0.69316 0.0
H517 H 0.35637 0.68492 0.69891 0.0
H518 H 0.39024 0.68488 0.79759 0.0
H519 H 0.43282 0.78179 0.72588 0.0
H520 H 0.43003 0.81273 0.78061 0.0
H521 H 0.4041 0.80603 0.71278 0.0
H522 H 0.36458 0.80912 0.80755 0.0
H523 H 0.39047 0.81564 0.87573 0.0
H524 H 0.36618 0.78687 0.88504 0.0
H525 H 0.42495 0.69386 0.89364 0.0
H526 H 0.46194 0.71179 0.97454 0.0
H527 H 0.44341 0.79673 0.90805 0.0
C528 C 0.36519 0.7561 0.71542 0.0
C529 C 0.35476 0.73048 0.68786 0.0
C530 C 0.36414 0.70486 0.71828 0.0
C531 C 0.38326 0.70457 0.77496 0.0
C532 C 0.39312 0.73005 0.80086 0.0
C533 C 0.38471 0.75537 0.77185 0.0
C534 C 0.39995 0.7796 0.80764 0.0
C535 C 0.41778 0.796 0.75349 0.0
C536 C 0.37904 0.79895 0.84628 0.0
C537 C 0.4184 0.76382 0.86031 0.0
C538 C 0.41373 0.73527 0.85608 0.0
C539 C 0.42868 0.71618 0.89781 0.0
C540 C 0.44947 0.72648 0.94386 0.0
C541 C 0.45522 0.7555 0.94754 0.0
C542 C 0.43917 0.77444 0.90616 0.0
H543 H 0.80291 0.88612 0.20589 0.0
H544 H 0.7231 0.84186 0.21237 0.0
H545 H 0.70672 0.87373 0.30767 0.0
H546 H 0.80849 0.89845 0.39552 0.0
H547 H 0.82392 0.93272 0.385 0.0
H548 H 0.82952 0.9062 0.31813 0.0
H549 H 0.80976 0.93961 0.22132 0.0
H550 H 0.80434 0.96629 0.28776 0.0
H551 H 0.77534 0.95494 0.23302 0.0
H552 H 0.69824 0.9121 0.39853 0.0
H553 H 0.69843 0.95421 0.47632 0.0
H554 H 0.78417 0.97198 0.41439 0.0
C555 C 0.78195 0.88308 0.22715 0.0
C556 C 0.76427 0.86143 0.20133 0.0
C557 C 0.73706 0.85822 0.23116 0.0
C558 C 0.72759 0.8762 0.28546 0.0
C559 C 0.74564 0.89717 0.30991 0.0
C560 C 0.77226 0.90066 0.2817 0.0
C561 C 0.78743 0.92506 0.31648 0.0
C562 C 0.81391 0.91499 0.35613 0.0
C563 C 0.79463 0.94782 0.26136 0.0
C564 C 0.76505 0.93507 0.36803 0.0
C565 C 0.74111 0.91865 0.36359 0.0
C566 C 0.71704 0.92477 0.40325 0.0
C567 C 0.71734 0.9485 0.44753 0.0
C568 C 0.74156 0.96555 0.45254 0.0
C569 C 0.76577 0.95861 0.4128 0.0
H570 H 0.66004 0.24713 0.7067 0.0
H571 H 0.66149 0.33786 0.72866 0.0
H572 H 0.62938 0.33489 0.83011 0.0
H573 H 0.58596 0.24106 0.74235 0.0
H574 H 0.58873 0.20847 0.79048 0.0
H575 H 0.61425 0.21697 0.72302 0.0
H576 H 0.6544 0.2104 0.81499 0.0
H577 H 0.62891 0.20208 0.88284 0.0
H578 H 0.65369 0.23017 0.89681 0.0
H579 H 0.59654 0.32332 0.92748 0.0
H580 H 0.55993 0.30347 1.00644 0.0
H581 H 0.57607 0.22075 0.92068 0.0
C582 C 0.65373 0.26627 0.73334 0.0
C583 C 0.66366 0.29269 0.70977 0.0
C584 C 0.6544 0.31731 0.74538 0.0
C585 C 0.63621 0.31591 0.80364 0.0
C586 C 0.62684 0.28975 0.82565 0.0
C587 C 0.6348 0.26534 0.79118 0.0
C588 C 0.61946 0.24027 0.82272 0.0
C589 C 0.60101 0.22585 0.76628 0.0
C590 C 0.64037 0.2195 0.85633 0.0
C591 C 0.6016 0.25458 0.87934 0.0
C592 C 0.60669 0.28308 0.88084 0.0
C593 C 0.59244 0.301 0.92722 0.0
C594 C 0.57187 0.28962 0.97216 0.0
C595 C 0.5656 0.2607 0.96995 0.0
C596 C 0.58089 0.24291 0.92364 0.0
H597 H 0.27496 0.16769 0.18712 0.0
H598 H 0.18904 0.1438 0.13604 0.0
H599 H 0.19095 0.10687 0.22745 0.0
H600 H 0.3008 0.09793 0.21453 0.0
H601 H 0.3237 0.10735 0.28721 0.0
H602 H 0.31525 0.13283 0.21974 0.0
H603 H 0.29723 0.16688 0.31728 0.0
H604 H 0.30537 0.14133 0.38498 0.0
H605 H 0.27024 0.15537 0.37804 0.0
H606 H 0.20183 0.07229 0.32379 0.0
H607 H 0.22305 0.03948 0.41136 0.0
H608 H 0.30195 0.0843 0.39879 0.0
C609 C 0.25653 0.15472 0.19518 0.0
C610 C 0.23181 0.15881 0.15422 0.0
C611 C 0.20825 0.14118 0.16638 0.0
C612 C 0.20905 0.12019 0.2186 0.0
C613 C 0.23356 0.11692 0.2584 0.0
C614 C 0.257 0.13348 0.247 0.0
C615 C 0.28108 0.12472 0.29535 0.0
C616 C 0.30672 0.11513 0.25158 0.0
C617 C 0.28894 0.1485 0.34695 0.0
C618 C 0.26766 0.10037 0.33467 0.0
C619 C 0.24006 0.09655 0.31331 0.0
C620 C 0.22337 0.07515 0.34115 0.0
C621 C 0.23541 0.05676 0.39089 0.0
C622 C 0.26381 0.0598 0.41167 0.0
C623 C 0.28004 0.08202 0.38402 0.0
H624 H 0.22815 0.33021 0.91595 0.0
H625 H 0.27569 0.31036 0.10641 0.0
H626 H 0.28454 0.36081 0.12655 0.0
H627 H 0.26966 0.39128 0.85909 0.0
H628 H 0.23928 0.41109 0.83093 0.0
H629 H 0.23875 0.37331 0.82717 0.0
H630 H 0.19368 0.37268 0.90466 0.0
H631 H 0.19406 0.41042 0.90865 0.0
H632 H 0.19376 0.3902 0.98971 0.0
H633 H 0.28791 0.41285 0.12739 0.0
H634 H 0.28254 0.46411 0.11424 0.0
H635 H 0.22949 0.4516 0.92936 0.0
C636 C 0.24077 0.33663 0.96112 0.0
C637 C 0.25157 0.31656 1.00936 0.0
C638 C 0.2674 0.32554 0.0689 0.0
C639 C 0.27259 0.35408 0.08058 0.0
C640 C 0.26145 0.37347 0.03272 0.0
C641 C 0.24565 0.36526 0.9745 0.0
C642 C 0.23445 0.39067 0.93455 0.0
C643 C 0.24624 0.39163 0.85841 0.0
C644 C 0.20207 0.391 0.93442 0.0
C645 C 0.2463 0.41432 0.9797 0.0
C646 C 0.26214 0.40381 0.03539 0.0
C647 C 0.27537 0.42133 0.08435 0.0
C648 C 0.27204 0.45038 0.07685 0.0
C649 C 0.25522 0.46172 0.02172 0.0
C650 C 0.24245 0.44341 0.972 0.0
H651 H 0.1892 0.72198 0.58086 0.0
H652 H 0.20611 0.79004 0.43358 0.0
H653 H 0.15514 0.79858 0.42105 0.0
H654 H 0.12901 0.69552 0.48691 0.0
H655 H 0.10962 0.68617 0.56587 0.0
H656 H 0.14755 0.68627 0.56733 0.0
H657 H 0.14699 0.72053 0.67431 0.0
H658 H 0.10904 0.72049 0.67332 0.0
H659 H 0.12795 0.75316 0.66722 0.0
H660 H 0.10282 0.80025 0.4246 0.0
H661 H 0.05162 0.7935 0.44013 0.0
H662 H 0.0674 0.72221 0.57739 0.0
C663 C 0.1821 0.73888 0.54671 0.0
C664 C 0.20162 0.7555 0.50855 0.0
C665 C 0.19156 0.77706 0.46327 0.0
C666 C 0.16264 0.78212 0.45593 0.0
C667 C 0.14395 0.76522 0.49352 0.0
C668 C 0.15315 0.74392 0.53771 0.0
C669 C 0.12837 0.7281 0.56934 0.0
C670 C 0.12866 0.69718 0.54594 0.0
C671 C 0.12808 0.73073 0.6509 0.0
C672 C 0.1039 0.7439 0.53605 0.0
C673 C 0.11347 0.76538 0.49302 0.0
C674 C 0.09506 0.78333 0.45754 0.0
C675 C 0.06607 0.77922 0.46613 0.0
C676 C 0.05568 0.75711 0.50889 0.0
C677 C 0.07487 0.73923 0.54434 0.0
H678 H 0.77395 0.7 0.10367 0.0
H679 H 0.81587 0.71641 0.90313 0.0
H680 H 0.82408 0.66548 0.88706 0.0
H681 H 0.81621 0.64013 0.16057 0.0
H682 H 0.7865 0.62118 0.19575 0.0
H683 H 0.78621 0.65899 0.19486 0.0
H684 H 0.73933 0.65862 0.1242 0.0
H685 H 0.73942 0.62086 0.12519 0.0
H686 H 0.73726 0.63939 0.04173 0.0
H687 H 0.82787 0.61262 0.89341 0.0
H688 H 0.82265 0.56166 0.9155 0.0
H689 H 0.77347 0.57955 0.10425 0.0
C690 C 0.78522 0.6928 0.05699 0.0
C691 C 0.79467 0.71202 1.00504 0.0
C692 C 0.80863 0.70192 0.94361 0.0
C693 C 0.81347 0.67309 0.93422 0.0
C694 C 0.80373 0.65459 0.98614 0.0
C695 C 0.78954 0.66401 0.04585 0.0
C696 C 0.77923 0.63962 0.0906 0.0
C697 C 0.79285 0.64001 0.16485 0.0
C698 C 0.74689 0.63963 0.09569 0.0
C699 C 0.78983 0.61506 0.04683 0.0
C700 C 0.80434 0.62414 0.98744 0.0
C701 C 0.81637 0.60529 0.93948 0.0
C702 C 0.8132 0.57643 0.95216 0.0
C703 C 0.79764 0.56664 1.01139 0.0
C704 C 0.78592 0.58634 0.05929 0.0
H705 H 0.82801 0.26139 0.46429 0.0
H706 H 0.81848 0.33025 0.61336 0.0
H707 H 0.87006 0.33639 0.61642 0.0
H708 H 0.88952 0.23221 0.54913 0.0
H709 H 0.90602 0.22148 0.46714 0.0
H710 H 0.86822 0.22352 0.4728 0.0
H711 H 0.86742 0.2571 0.36443 0.0
H712 H 0.90526 0.25526 0.35865 0.0
H713 H 0.88804 0.28882 0.36678 0.0
H714 H 0.92251 0.33601 0.60137 0.0
H715 H 0.97278 0.32611 0.57795 0.0
H716 H 0.94928 0.25459 0.44874 0.0
C717 C 0.83685 0.27787 0.49705 0.0
C718 C 0.81925 0.29549 0.53827 0.0
C719 C 0.83158 0.3165 0.5815 0.0
C720 C 0.86085 0.32024 0.58334 0.0
C721 C 0.87766 0.3025 0.5425 0.0
C722 C 0.86621 0.28148 0.50086 0.0
C723 C 0.88927 0.26431 0.4655 0.0
C724 C 0.88819 0.23356 0.49013 0.0
C725 C 0.88738 0.26651 0.384 0.0
C726 C 0.91535 0.27903 0.49362 0.0
C727 C 0.90811 0.30125 0.53713 0.0
C728 C 0.92844 0.31843 0.56812 0.0
C729 C 0.95694 0.31256 0.555 0.0
C730 C 0.96497 0.28939 0.51249 0.0
C731 C 0.94378 0.27253 0.48116 0.0
H732 H 0.76159 0.20021 0.57581 0.0
H733 H 0.69295 0.21764 0.42986 0.0
H734 H 0.68516 0.16674 0.41425 0.0
H735 H 0.78892 0.14118 0.47743 0.0
H736 H 0.79895 0.12177 0.55581 0.0
H737 H 0.79831 0.15954 0.55789 0.0
H738 H 0.76448 0.15814 0.666 0.0
H739 H 0.76493 0.12035 0.66408 0.0
H740 H 0.7319 0.13892 0.65933 0.0
H741 H 0.68376 0.11368 0.41809 0.0
H742 H 0.6913 0.06264 0.43425 0.0
H743 H 0.76371 0.07982 0.5675 0.0
C744 C 0.74482 0.19328 0.54096 0.0
C745 C 0.72772 0.21287 0.50446 0.0
C746 C 0.7063 0.20299 0.45833 0.0
C747 C 0.70166 0.17412 0.44929 0.0
C748 C 0.71891 0.15534 0.48586 0.0
C749 C 0.74028 0.1645 0.53011 0.0
C750 C 0.75661 0.13995 0.56074 0.0
C751 C 0.78753 0.14066 0.5365 0.0
C752 C 0.75433 0.13931 0.64238 0.0
C753 C 0.74093 0.11558 0.52736 0.0
C754 C 0.71906 0.12487 0.48493 0.0
C755 C 0.70106 0.10618 0.45045 0.0
C756 C 0.70558 0.07725 0.45945 0.0
C757 C 0.72819 0.06727 0.50156 0.0
C758 C 0.7461 0.08682 0.53555 0.0
H759 H 0.33144 0.25776 0.06743 0.0
H760 H 0.32136 0.18849 0.91997 0.0
H761 H 0.37295 0.18155 0.91813 0.0
H762 H 0.39247 0.28594 0.98364 0.0
H763 H 0.40906 0.29683 0.06539 0.0
H764 H 0.37126 0.29483 0.05996 0.0
H765 H 0.37059 0.26144 0.16876 0.0
H766 H 0.40842 0.2633 0.17442 0.0
H767 H 0.39129 0.22972 0.16683 0.0
H768 H 0.42593 0.18247 0.9313 0.0
H769 H 0.47629 0.1932 0.95307 0.0
H770 H 0.45205 0.26411 0.08353 0.0
C771 C 0.3401 0.24087 0.03569 0.0
C772 C 0.32237 0.22345 0.99442 0.0
C773 C 0.33455 0.20201 0.95215 0.0
C774 C 0.36382 0.19786 0.95092 0.0
C775 C 0.38076 0.21554 0.99158 0.0
C776 C 0.36938 0.23678 0.03274 0.0
C777 C 0.39237 0.25401 0.06774 0.0
C778 C 0.39122 0.28472 0.04266 0.0
C779 C 0.39055 0.25199 0.14928 0.0
C780 C 0.4184 0.2392 0.03977 0.0
C781 C 0.41126 0.21685 0.99663 0.0
C782 C 0.43175 0.19999 0.96483 0.0
C783 C 0.46025 0.20626 0.97712 0.0
C784 C 0.46804 0.2294 0.01996 0.0
C785 C 0.44673 0.246 0.05159 0.0
H786 H 0.26737 0.83374 0.56632 0.0
H787 H 0.33465 0.8154 0.41722 0.0
H788 H 0.34289 0.86624 0.40114 0.0
H789 H 0.23952 0.8915 0.46983 0.0
H790 H 0.23021 0.91151 0.54775 0.0
H791 H 0.2312 0.8738 0.55195 0.0
H792 H 0.26629 0.87639 0.65743 0.0
H793 H 0.26543 0.91416 0.65349 0.0
H794 H 0.29857 0.89586 0.64744 0.0
H795 H 0.34312 0.91946 0.39971 0.0
H796 H 0.33376 0.97053 0.40937 0.0
H797 H 0.26434 0.9537 0.55232 0.0
C798 C 0.28414 0.84041 0.53116 0.0
C799 C 0.30057 0.82059 0.49354 0.0
C800 C 0.32187 0.83021 0.44675 0.0
C801 C 0.32675 0.85904 0.43741 0.0
C802 C 0.30997 0.87804 0.47469 0.0
C803 C 0.28898 0.8691 0.52034 0.0
C804 C 0.27277 0.89375 0.55073 0.0
C805 C 0.24158 0.89256 0.52873 0.0
C806 C 0.27597 0.89511 0.6321 0.0
C807 C 0.28784 0.91794 0.51496 0.0
C808 C 0.30943 0.90849 0.47186 0.0
C809 C 0.32623 0.92705 0.43323 0.0
C810 C 0.32071 0.95595 0.43863 0.0
C811 C 0.29843 0.96599 0.48164 0.0
C812 C 0.28185 0.94663 0.52014 0.0
H813 H 0.68639 0.81243 0.07525 0.0
H814 H 0.70745 0.75175 0.912 0.0
H815 H 0.6568 0.74161 0.89416 0.0
H816 H 0.627 0.77603 0.15039 0.0
H817 H 0.60624 0.80725 0.16395 0.0
H818 H 0.64412 0.80925 0.16537 0.0
H819 H 0.64275 0.84721 0.06677 0.0
H820 H 0.60486 0.84534 0.06508 0.0
H821 H 0.62467 0.83997 0.9844 0.0
H822 H 0.60435 0.73638 0.89839 0.0
H823 H 0.55293 0.73869 0.91846 0.0
H824 H 0.56495 0.80642 0.06902 0.0
C825 C 0.68017 0.79698 0.03602 0.0
C826 C 0.70056 0.78262 0.99522 0.0
C827 C 0.69194 0.76282 0.94367 0.0
C828 C 0.66331 0.75694 0.9333 0.0
C829 C 0.64358 0.77146 0.97411 0.0
C830 C 0.65155 0.79132 0.02385 0.0
C831 C 0.62595 0.80454 0.0588 0.0
C832 C 0.62583 0.79892 0.13941 0.0
C833 C 0.62448 0.83614 0.04278 0.0
C834 C 0.60242 0.78874 0.02164 0.0
C835 C 0.61313 0.76958 0.97349 0.0
C836 C 0.5957 0.75159 0.93513 0.0
C837 C 0.56656 0.75314 0.94646 0.0
C838 C 0.55504 0.77285 0.99472 0.0
C839 C 0.57326 0.79106 0.03217 0.0
loop_
_geom_bond_atom_site_label_1
_geom_bond_atom_site_label_2
_geom_bond_distance
_geom_bond_site_symmetry_2
_ccdc_geom_bond_type
Fe0 O2 1.919 . S
Fe0 O5 1.997 . S
Fe0 O6 2.002 . S
Fe0 O11 1.976 . S
Fe0 O14 1.996 . S
Fe1 O2 1.917 1_556 S
Fe1 O9 1.997 . S
Fe1 O12 1.996 . S
Fe1 O16 1.976 . S
Fe1 O19 2.002 . S
O2 Fe0 1.919 . S
O2 Fe1 1.917 1_554 S
O2 Fe3 1.918 1_554 S
Fe3 O2 1.918 1_556 S
Fe3 O4 1.996 1_556 S
Fe3 O13 1.970 1_556 S
Fe3 O17 2.002 . S
Fe3 O20 2.003 . S
O4 Fe3 1.996 1_554 S
O4 C21 1.295 . S
O5 Fe0 1.997 . S
O5 C21 1.235 . S
O6 Fe0 2.002 . S
O6 C7 1.295 . S
C7 O6 1.295 . S
C7 O9 1.235 1_554 S
C8 O13 1.287 . S
C8 O14 1.255 . S
O9 Fe1 1.997 . S
O9 C7 1.235 1_556 S
C10 O16 1.287 . S
C10 O17 1.255 . S
O11 Fe0 1.976 . S
O11 C18 1.287 1_554 S
O12 Fe1 1.996 . S
O12 C18 1.255 . S
O13 Fe3 1.970 1_554 S
O13 C8 1.287 . S
O14 Fe0 1.996 . S
O14 C8 1.255 . S
C15 O19 1.295 . S
C15 O20 1.235 . S
O16 Fe1 1.976 . S
O16 C10 1.287 . S
O17 Fe3 2.002 . S
O17 C10 1.255 . S
C18 O11 1.287 1_556 S
C18 O12 1.255 . S
O19 Fe1 2.002 . S
O19 C15 1.295 . S
O20 Fe3 2.003 . S
O20 C15 1.235 . S
C21 O4 1.295 . S
C21 O5 1.235 . S
Fe22 O24 1.918 . S
Fe22 O27 1.997 . S
Fe22 O28 2.002 . S
Fe22 O33 1.976 . S
Fe22 O36 1.996 . S
Fe23 O24 1.918 . S
Fe23 O31 1.997 . S
Fe23 O34 1.996 . S
Fe23 O38 1.976 . S
Fe23 O41 2.002 . S
O24 Fe22 1.918 . S
O24 Fe23 1.918 . S
O24 Fe25 1.918 . S
Fe25 O24 1.918 . S
Fe25 O26 2.002 . S
Fe25 O35 1.976 . S
Fe25 O39 1.996 . S
Fe25 O42 1.997 . S
O26 Fe25 2.002 . S
O26 C43 1.295 . S
O27 Fe22 1.997 . S
O27 C43 1.235 . S
O28 Fe22 2.002 . S
O28 C29 1.295 . S
C29 O28 1.295 . S
C29 O31 1.235 . S
C30 O35 1.287 . S
C30 O36 1.255 . S
O31 Fe23 1.997 . S
O31 C29 1.235 . S
C32 O38 1.287 . S
C32 O39 1.255 . S
O33 Fe22 1.976 . S
O33 C40 1.287 . S
O34 Fe23 1.996 . S
O34 C40 1.255 . S
O35 Fe25 1.976 . S
O35 C30 1.287 . S
O36 Fe22 1.996 . S
O36 C30 1.255 . S
C37 O41 1.295 . S
C37 O42 1.235 . S
O38 Fe23 1.976 . S
O38 C32 1.287 . S
O39 Fe25 1.996 . S
O39 C32 1.255 . S
C40 O33 1.287 . S
C40 O34 1.255 . S
O41 Fe23 2.002 . S
O41 C37 1.295 . S
O42 Fe25 1.997 . S
O42 C37 1.235 . S
C43 O26 1.295 . S
C43 O27 1.235 . S
Fe44 O46 1.912 1_556 S
Fe44 O49 1.997 . S
Fe44 O50 2.002 . S
Fe44 O55 1.976 . S
Fe44 O58 1.996 . S
Fe45 O46 1.925 . S
Fe45 O53 1.997 . S
Fe45 O56 1.996 . S
Fe45 O60 1.976 . S
Fe45 O63 2.002 . S
O46 Fe44 1.912 1_554 S
O46 Fe45 1.925 . S
O46 Fe47 1.918 . S
Fe47 O46 1.918 . S
Fe47 O48 2.002 1_554 S
Fe47 O57 1.976 1_554 S
Fe47 O61 1.996 . S
Fe47 O64 1.997 . S
O48 Fe47 2.002 1_556 S
O48 C65 1.295 . S
O49 Fe44 1.997 . S
O49 C65 1.235 . S
O50 Fe44 2.002 . S
O50 C51 1.295 . S
C51 O50 1.295 . S
C51 O53 1.235 1_556 S
C52 O57 1.287 . S
C52 O58 1.255 . S
O53 Fe45 1.997 . S
O53 C51 1.235 1_554 S
C54 O60 1.287 . S
C54 O61 1.255 . S
O55 Fe44 1.976 . S
O55 C62 1.287 1_556 S
O56 Fe45 1.996 . S
O56 C62 1.255 . S
O57 Fe47 1.976 1_556 S
O57 C52 1.287 . S
O58 Fe44 1.996 . S
O58 C52 1.255 . S
C59 O63 1.295 . S
C59 O64 1.235 . S
O60 Fe45 1.976 . S
O60 C54 1.287 . S
O61 Fe47 1.996 . S
O61 C54 1.255 . S
C62 O55 1.287 1_554 S
C62 O56 1.255 . S
O63 Fe45 2.002 . S
O63 C59 1.295 . S
O64 Fe47 1.997 . S
O64 C59 1.235 . S
C65 O48 1.295 . S
C65 O49 1.235 . S
Fe66 O68 1.918 . S
Fe66 O71 1.997 . S
Fe66 O72 2.002 . S
Fe66 O77 1.976 . S
Fe66 O80 1.996 . S
Fe67 O68 1.918 . S
Fe67 O75 1.997 . S
Fe67 O78 1.996 . S
Fe67 O82 1.976 . S
Fe67 O85 2.002 . S
O68 Fe66 1.918 . S
O68 Fe67 1.918 . S
O68 Fe69 1.918 . S
Fe69 O68 1.918 . S
Fe69 O70 2.002 . S
Fe69 O79 1.976 . S
Fe69 O83 1.996 . S
Fe69 O86 1.997 . S
O70 Fe69 2.002 . S
O70 C87 1.295 . S
O71 Fe66 1.997 . S
O71 C87 1.235 . S
O72 Fe66 2.002 . S
O72 C73 1.295 . S
C73 O72 1.295 . S
C73 O75 1.235 . S
C74 O79 1.287 . S
C74 O80 1.255 . S
O75 Fe67 1.997 . S
O75 C73 1.235 . S
C76 O82 1.287 . S
C76 O83 1.255 . S
O77 Fe66 1.976 . S
O77 C84 1.287 . S
O78 Fe67 1.996 . S
O78 C84 1.255 . S
O79 Fe69 1.976 . S
O79 C74 1.287 . S
O80 Fe66 1.996 . S
O80 C74 1.255 . S
C81 O85 1.295 . S
C81 O86 1.235 . S
O82 Fe67 1.976 . S
O82 C76 1.287 . S
O83 Fe69 1.996 . S
O83 C76 1.255 . S
C84 O77 1.287 . S
C84 O78 1.255 . S
O85 Fe67 2.002 . S
O85 C81 1.295 . S
O86 Fe69 1.997 . S
O86 C81 1.235 . S
C87 O70 1.295 . S
C87 O71 1.235 . S
C88 N89 1.317 . S
C88 N90 1.360 . S
C88 C91 1.485 . S
N89 C88 1.317 . S
N89 N93 1.370 1_556 S
N90 C88 1.360 . S
N90 C92 1.334 1_556 S
C91 C88 1.485 . S
C91 H95 0.960 . S
C91 H96 0.961 . S
C91 H97 0.960 . S
C92 N90 1.334 1_554 S
C92 N93 1.307 . S
C92 C94 1.486 . S
N93 N89 1.370 1_554 S
N93 C92 1.307 . S
C94 C92 1.486 . S
C94 H98 0.960 . S
C94 H99 0.960 . S
C94 H100 0.959 . S
H95 C91 0.960 . S
H96 C91 0.961 . S
H97 C91 0.960 . S
H98 C94 0.960 . S
H99 C94 0.960 . S
H100 C94 0.959 . S
C101 N102 1.317 1_455 S
C101 N103 1.348 . S
C101 C104 1.485 . S
N102 C101 1.317 1_655 S
N102 N106 1.370 . S
N103 C101 1.348 . S
N103 C105 1.346 . S
C104 C101 1.485 . S
C104 H108 0.960 . S
C104 H109 0.961 . S
C104 H110 0.960 1_455 S
C105 N103 1.346 . S
C105 N106 1.307 1_455 S
C105 C107 1.486 . S
N106 N102 1.370 . S
N106 C105 1.307 1_655 S
C107 C105 1.486 . S
C107 H111 0.960 . S
C107 H112 0.960 . S
C107 H113 0.959 . S
H108 C104 0.960 . S
H109 C104 0.961 . S
H110 C104 0.960 1_655 S
H111 C107 0.960 . S
H112 C107 0.960 . S
H113 C107 0.959 . S
C114 N115 1.317 . S
C114 N116 1.348 . S
C114 C117 1.485 . S
N115 C114 1.317 . S
N115 N119 1.370 1_554 S
N116 C114 1.348 . S
N116 C118 1.346 1_554 S
C117 C114 1.485 . S
C117 H121 0.960 . S
C117 H122 0.961 . S
C117 H123 0.960 . S
C118 N116 1.346 1_556 S
C118 N119 1.307 . S
C118 C120 1.486 . S
N119 N115 1.370 1_556 S
N119 C118 1.307 . S
C120 C118 1.486 . S
C120 H124 0.960 . S
C120 H125 0.960 . S
C120 H126 0.959 . S
H121 C117 0.960 . S
H122 C117 0.961 . S
H123 C117 0.960 . S
H124 C120 0.960 . S
H125 C120 0.960 . S
H126 C120 0.959 . S
C127 N128 1.317 1_655 S
C127 N129 1.348 . S
C127 C130 1.485 . S
N128 C127 1.317 1_455 S
N128 N132 1.370 . S
N129 C127 1.348 . S
N129 C131 1.346 . S
C130 C127 1.485 . S
C130 H134 0.960 . S
C130 H135 0.961 . S
C130 H136 0.960 . S
C131 N129 1.346 . S
C131 N132 1.307 1_655 S
C131 C133 1.486 . S
N132 N128 1.370 . S
N132 C131 1.307 1_455 S
C133 C131 1.486 . S
C133 H137 0.960 . S
C133 H138 0.960 . S
C133 H139 0.945 1_655 S
H134 C130 0.960 . S
H135 C130 0.961 . S
H136 C130 0.960 . S
H137 C133 0.960 . S
H138 C133 0.960 . S
H139 C133 0.945 1_455 S
C140 N141 1.317 1_545 S
C140 N142 1.348 . S
C140 C143 1.485 . S
N141 C140 1.317 1_565 S
N141 N145 1.370 . S
N142 C140 1.348 . S
N142 C144 1.346 . S
C143 C140 1.485 . S
C143 H147 0.960 . S
C143 H148 0.961 . S
C143 H149 0.960 . S
C144 N142 1.346 . S
C144 N145 1.307 1_545 S
C144 C146 1.486 . S
N145 N141 1.370 . S
N145 C144 1.307 1_565 S
C146 C144 1.486 . S
C146 H150 0.960 . S
C146 H151 0.960 . S
C146 H152 0.959 . S
H147 C143 0.960 . S
H148 C143 0.961 . S
H149 C143 0.960 . S
H150 C146 0.960 . S
H151 C146 0.960 . S
H152 C146 0.959 . S
C153 N154 1.317 . S
C153 N155 1.360 . S
C153 C156 1.485 . S
N154 C153 1.317 . S
N154 N158 1.370 1_556 S
N155 C153 1.360 . S
N155 C157 1.334 1_556 S
C156 C153 1.485 . S
C156 H160 0.960 . S
C156 H161 0.961 . S
C156 H162 0.960 . S
C157 N155 1.334 1_554 S
C157 N158 1.307 . S
C157 C159 1.486 . S
N158 N154 1.370 1_554 S
N158 C157 1.307 . S
C159 C157 1.486 . S
C159 H163 0.960 . S
C159 H164 0.960 . S
C159 H165 0.959 . S
H160 C156 0.960 . S
H161 C156 0.961 . S
H162 C156 0.960 . S
H163 C159 0.960 . S
H164 C159 0.960 . S
H165 C159 0.959 . S
C166 N167 1.317 1_565 S
C166 N168 1.348 . S
C166 C169 1.485 . S
N167 C166 1.317 1_545 S
N167 N171 1.370 . S
N168 C166 1.348 . S
N168 C170 1.346 . S
C169 C166 1.485 . S
C169 H173 0.960 . S
C169 H174 0.961 . S
C169 H175 0.960 1_565 S
C170 N168 1.346 . S
C170 N171 1.307 1_565 S
C170 C172 1.486 . S
N171 N167 1.370 . S
N171 C170 1.307 1_545 S
C172 C170 1.486 . S
C172 H176 0.960 . S
C172 H177 0.960 . S
C172 H178 0.930 1_565 S
H173 C169 0.960 . S
H174 C169 0.961 . S
H175 C169 0.960 1_545 S
H176 C172 0.960 . S
H177 C172 0.960 . S
H178 C172 0.930 1_545 S
C179 N180 1.317 . S
C179 N181 1.348 . S
C179 C182 1.485 . S
N180 C179 1.317 . S
N180 N184 1.370 1_554 S
N181 C179 1.348 . S
N181 C183 1.346 1_554 S
C182 C179 1.485 . S
C182 H186 0.960 . S
C182 H187 0.961 . S
C182 H188 0.960 . S
C183 N181 1.346 1_556 S
C183 N184 1.307 . S
C183 C185 1.486 . S
N184 N180 1.370 1_556 S
N184 C183 1.307 . S
C185 C183 1.486 . S
C185 H189 0.960 . S
C185 H190 0.960 . S
C185 H191 0.959 . S
H186 C182 0.960 . S
H187 C182 0.961 . S
H188 C182 0.960 . S
H189 C185 0.960 . S
H190 C185 0.960 . S
H191 C185 0.959 . S
H192 C204 0.930 . S
H193 C206 0.930 . S
H194 C207 0.930 . S
H195 C211 0.959 . S
H196 C211 0.959 . S
H197 C211 0.961 . S
H198 C212 0.960 . S
H199 C212 0.961 . S
H200 C212 0.959 . S
H201 C215 0.929 . S
H202 C216 0.931 . S
H203 C218 0.930 . S
C204 H192 0.930 . S
C204 C205 1.399 . S
C204 C209 1.399 . S
C205 C204 1.399 . S
C205 C206 1.376 . S
C206 H193 0.930 . S
C206 C205 1.376 . S
C206 C207 1.388 . S
C207 H194 0.930 . S
C207 C206 1.388 . S
C207 C208 1.390 . S
C208 C207 1.390 . S
C208 C209 1.394 . S
C208 C214 1.465 . S
C209 C204 1.399 . S
C209 C208 1.394 . S
C209 C210 1.516 . S
C210 C209 1.516 . S
C210 C211 1.502 . S
C210 C212 1.561 . S
C210 C213 1.526 . S
C211 H195 0.959 . S
C211 H196 0.959 . S
C211 H197 0.961 . S
C211 C210 1.502 . S
C212 H198 0.960 . S
C212 H199 0.961 . S
C212 H200 0.959 . S
C212 C210 1.561 . S
C213 C210 1.526 . S
C213 C214 1.396 . S
C213 C218 1.390 . S
C214 C208 1.465 . S
C214 C213 1.396 . S
C214 C215 1.399 . S
C215 H201 0.929 . S
C215 C214 1.399 . S
C215 C216 1.385 . S
C216 H202 0.931 . S
C216 C215 1.385 . S
C216 C217 1.389 . S
C217 C216 1.389 . S
C217 C218 1.387 . S
C218 H203 0.930 . S
C218 C213 1.390 . S
C218 C217 1.387 . S
H219 C231 0.930 . S
H220 C233 0.930 . S
H221 C234 0.930 . S
H222 C238 0.959 . S
H223 C238 0.959 . S
H224 C238 0.961 . S
H225 C239 0.960 . S
H226 C239 0.961 . S
H227 C239 0.959 . S
H228 C242 0.929 . S
H229 C243 0.931 . S
H230 C245 0.930 . S
C231 H219 0.930 . S
C231 C232 1.399 . S
C231 C236 1.399 . S
C232 C231 1.399 . S
C232 C233 1.376 . S
C233 H220 0.930 . S
C233 C232 1.376 . S
C233 C234 1.388 . S
C234 H221 0.930 . S
C234 C233 1.388 . S
C234 C235 1.390 . S
C235 C234 1.390 . S
C235 C236 1.394 . S
C235 C241 1.465 . S
C236 C231 1.399 . S
C236 C235 1.394 . S
C236 C237 1.516 . S
C237 C236 1.516 . S
C237 C238 1.502 . S
C237 C239 1.561 . S
C237 C240 1.526 . S
C238 H222 0.959 . S
C238 H223 0.959 . S
C238 H224 0.961 . S
C238 C237 1.502 . S
C239 H225 0.960 . S
C239 H226 0.961 . S
C239 H227 0.959 . S
C239 C237 1.561 . S
C240 C237 1.526 . S
C240 C241 1.396 . S
C240 C245 1.390 . S
C241 C235 1.465 . S
C241 C240 1.396 . S
C241 C242 1.399 . S
C242 H228 0.929 . S
C242 C241 1.399 . S
C242 C243 1.385 . S
C243 H229 0.931 . S
C243 C242 1.385 . S
C243 C244 1.389 . S
C244 C243 1.389 . S
C244 C245 1.387 . S
C245 H230 0.930 . S
C245 C240 1.390 . S
C245 C244 1.387 . S
H246 C258 0.930 . S
H247 C260 0.930 . S
H248 C261 0.930 . S
H249 C265 0.959 . S
H250 C265 0.959 . S
H251 C265 0.961 . S
H252 C266 0.960 . S
H253 C266 0.961 . S
H254 C266 0.959 . S
H255 C269 0.929 . S
H256 C270 0.931 . S
H257 C272 0.930 . S
C258 H246 0.930 . S
C258 C259 1.399 . S
C258 C263 1.399 . S
C259 C258 1.399 . S
C259 C260 1.376 . S
C260 H247 0.930 . S
C260 C259 1.376 . S
C260 C261 1.388 . S
C261 H248 0.930 . S
C261 C260 1.388 . S
C261 C262 1.390 . S
C262 C261 1.390 . S
C262 C263 1.394 . S
C262 C268 1.465 . S
C263 C258 1.399 . S
C263 C262 1.394 . S
C263 C264 1.516 . S
C264 C263 1.516 . S
C264 C265 1.502 . S
C264 C266 1.561 . S
C264 C267 1.526 . S
C265 H249 0.959 . S
C265 H250 0.959 . S
C265 H251 0.961 . S
C265 C264 1.502 . S
C266 H252 0.960 . S
C266 H253 0.961 . S
C266 H254 0.959 . S
C266 C264 1.561 . S
C267 C264 1.526 . S
C267 C268 1.396 . S
C267 C272 1.390 . S
C268 C262 1.465 . S
C268 C267 1.396 . S
C268 C269 1.399 . S
C269 H255 0.929 . S
C269 C268 1.399 . S
C269 C270 1.385 . S
C270 H256 0.931 . S
C270 C269 1.385 . S
C270 C271 1.389 . S
C271 C270 1.389 . S
C271 C272 1.387 . S
C272 H257 0.930 . S
C272 C267 1.390 . S
C272 C271 1.387 . S
H273 C285 0.930 . S
H274 C287 0.930 . S
H275 C288 0.930 . S
H276 C292 0.959 . S
H277 C292 0.959 . S
H278 C292 0.961 . S
H279 C293 0.960 . S
H280 C293 0.961 . S
H281 C293 0.959 . S
H282 C296 0.929 . S
H283 C297 0.922 1_554 S
H284 C299 0.930 . S
C285 H273 0.930 . S
C285 C286 1.399 . S
C285 C290 1.399 . S
C286 C285 1.399 . S
C286 C287 1.376 . S
C287 H274 0.930 . S
C287 C286 1.376 . S
C287 C288 1.388 . S
C288 H275 0.930 . S
C288 C287 1.388 . S
C288 C289 1.390 . S
C289 C288 1.390 . S
C289 C290 1.394 . S
C289 C295 1.465 . S
C290 C285 1.399 . S
C290 C289 1.394 . S
C290 C291 1.516 . S
C291 C290 1.516 . S
C291 C292 1.502 . S
C291 C293 1.561 . S
C291 C294 1.526 . S
C292 H276 0.959 . S
C292 H277 0.959 . S
C292 H278 0.961 . S
C292 C291 1.502 . S
C293 H279 0.960 . S
C293 H280 0.961 . S
C293 H281 0.959 . S
C293 C291 1.561 . S
C294 C291 1.526 . S
C294 C295 1.396 . S
C294 C299 1.390 . S
C295 C289 1.465 . S
C295 C294 1.396 . S
C295 C296 1.399 . S
C296 H282 0.929 . S
C296 C295 1.399 . S
C296 C297 1.385 . S
C297 H283 0.922 1_556 S
C297 C296 1.385 . S
C297 C298 1.389 . S
C298 C297 1.389 . S
C298 C299 1.387 . S
C299 H284 0.930 . S
C299 C294 1.390 . S
C299 C298 1.387 . S
H300 C312 0.930 . S
H301 C314 0.930 . S
H302 C315 0.930 . S
H303 C319 0.959 . S
H304 C319 0.959 . S
H305 C319 0.961 . S
H306 C320 0.960 . S
H307 C320 0.961 . S
H308 C320 0.959 . S
H309 C323 0.929 . S
H310 C324 0.931 . S
H311 C326 0.930 . S
C312 H300 0.930 . S
C312 C313 1.399 . S
C312 C317 1.399 . S
C313 C312 1.399 . S
C313 C314 1.376 . S
C314 H301 0.930 . S
C314 C313 1.376 . S
C314 C315 1.388 . S
C315 H302 0.930 . S
C315 C314 1.388 . S
C315 C316 1.390 . S
C316 C315 1.390 . S
C316 C317 1.394 . S
C316 C322 1.465 . S
C317 C312 1.399 . S
C317 C316 1.394 . S
C317 C318 1.516 . S
C318 C317 1.516 . S
C318 C319 1.502 . S
C318 C320 1.561 . S
C318 C321 1.526 . S
C319 H303 0.959 . S
C319 H304 0.959 . S
C319 H305 0.961 . S
C319 C318 1.502 . S
C320 H306 0.960 . S
C320 H307 0.961 . S
C320 H308 0.959 . S
C320 C318 1.561 . S
C321 C318 1.526 . S
C321 C322 1.396 . S
C321 C326 1.390 . S
C322 C316 1.465 . S
C322 C321 1.396 . S
C322 C323 1.399 . S
C323 H309 0.929 . S
C323 C322 1.399 . S
C323 C324 1.385 . S
C324 H310 0.931 . S
C324 C323 1.385 . S
C324 C325 1.389 . S
C325 C324 1.389 . S
C325 C326 1.387 . S
C326 H311 0.930 . S
C326 C321 1.390 . S
C326 C325 1.387 . S
H327 C339 0.930 . S
H328 C341 0.930 . S
H329 C342 0.930 . S
H330 C346 0.959 . S
H331 C346 0.959 . S
H332 C346 0.961 . S
H333 C347 0.960 . S
H334 C347 0.961 . S
H335 C347 0.959 . S
H336 C350 0.929 . S
H337 C351 0.931 . S
H338 C353 0.930 . S
C339 H327 0.930 . S
C339 C340 1.399 . S
C339 C344 1.399 . S
C340 C339 1.399 . S
C340 C341 1.376 . S
C341 H328 0.930 . S
C341 C340 1.376 . S
C341 C342 1.388 . S
C342 H329 0.930 . S
C342 C341 1.388 . S
C342 C343 1.390 . S
C343 C342 1.390 . S
C343 C344 1.394 . S
C343 C349 1.465 . S
C344 C339 1.399 . S
C344 C343 1.394 . S
C344 C345 1.516 . S
C345 C344 1.516 . S
C345 C346 1.502 . S
C345 C347 1.561 . S
C345 C348 1.526 . S
C346 H330 0.959 . S
C346 H331 0.959 . S
C346 H332 0.961 . S
C346 C345 1.502 . S
C347 H333 0.960 . S
C347 H334 0.961 . S
C347 H335 0.959 . S
C347 C345 1.561 . S
C348 C345 1.526 . S
C348 C349 1.396 . S
C348 C353 1.390 . S
C349 C343 1.465 . S
C349 C348 1.396 . S
C349 C350 1.399 . S
C350 H336 0.929 . S
C350 C349 1.399 . S
C350 C351 1.385 . S
C351 H337 0.931 . S
C351 C350 1.385 . S
C351 C352 1.389 . S
C352 C351 1.389 . S
C352 C353 1.387 . S
C353 H338 0.930 . S
C353 C348 1.390 . S
C353 C352 1.387 . S
H354 C366 0.930 . S
H355 C368 0.930 . S
H356 C369 0.930 . S
H357 C373 0.959 . S
H358 C373 0.959 . S
H359 C373 0.961 . S
H360 C374 0.960 . S
H361 C374 0.961 . S
H362 C374 0.959 . S
H363 C377 0.929 . S
H364 C378 0.931 . S
H365 C380 0.930 . S
C366 H354 0.930 . S
C366 C367 1.399 . S
C366 C371 1.399 . S
C367 C366 1.399 . S
C367 C368 1.376 . S
C368 H355 0.930 . S
C368 C367 1.376 . S
C368 C369 1.388 . S
C369 H356 0.930 . S
C369 C368 1.388 . S
C369 C370 1.390 . S
C370 C369 1.390 . S
C370 C371 1.394 . S
C370 C376 1.465 . S
C371 C366 1.399 . S
C371 C370 1.394 . S
C371 C372 1.516 . S
C372 C371 1.516 . S
C372 C373 1.502 . S
C372 C374 1.561 . S
C372 C375 1.526 . S
C373 H357 0.959 . S
C373 H358 0.959 . S
C373 H359 0.961 . S
C373 C372 1.502 . S
C374 H360 0.960 . S
C374 H361 0.961 . S
C374 H362 0.959 . S
C374 C372 1.561 . S
C375 C372 1.526 . S
C375 C376 1.396 . S
C375 C380 1.390 . S
C376 C370 1.465 . S
C376 C375 1.396 . S
C376 C377 1.399 . S
C377 H363 0.929 . S
C377 C376 1.399 . S
C377 C378 1.385 . S
C378 H364 0.931 . S
C378 C377 1.385 . S
C378 C379 1.389 . S
C379 C378 1.389 . S
C379 C380 1.387 . S
C380 H365 0.930 . S
C380 C375 1.390 . S
C380 C379 1.387 . S
H381 C393 0.930 . S
H382 C395 0.930 . S
H383 C396 0.930 . S
H384 C400 0.959 . S
H385 C400 0.959 . S
H386 C400 0.961 . S
H387 C401 0.960 . S
H388 C401 0.961 . S
H389 C401 0.959 . S
H390 C404 0.929 . S
H391 C405 0.931 . S
H392 C407 0.930 . S
C393 H381 0.930 . S
C393 C394 1.399 . S
C393 C398 1.399 . S
C394 C393 1.399 . S
C394 C395 1.376 . S
C395 H382 0.930 . S
C395 C394 1.376 . S
C395 C396 1.388 . S
C396 H383 0.930 . S
C396 C395 1.388 . S
C396 C397 1.390 . S
C397 C396 1.390 . S
C397 C398 1.394 . S
C397 C403 1.465 . S
C398 C393 1.399 . S
C398 C397 1.394 . S
C398 C399 1.516 . S
C399 C398 1.516 . S
C399 C400 1.502 . S
C399 C401 1.561 . S
C399 C402 1.526 . S
C400 H384 0.959 . S
C400 H385 0.959 . S
C400 H386 0.961 . S
C400 C399 1.502 . S
C401 H387 0.960 . S
C401 H388 0.961 . S
C401 H389 0.959 . S
C401 C399 1.561 . S
C402 C399 1.526 . S
C402 C403 1.396 . S
C402 C407 1.390 . S
C403 C397 1.465 . S
C403 C402 1.396 . S
C403 C404 1.399 . S
C404 H390 0.929 . S
C404 C403 1.399 . S
C404 C405 1.385 . S
C405 H391 0.931 . S
C405 C404 1.385 . S
C405 C406 1.389 . S
C406 C405 1.389 . S
C406 C407 1.387 . S
C407 H392 0.930 . S
C407 C402 1.390 . S
C407 C406 1.387 . S
H408 C420 0.930 . S
H409 C422 0.930 . S
H410 C423 0.930 . S
H411 C427 0.959 . S
H412 C427 0.959 . S
H413 C427 0.961 . S
H414 C428 0.960 . S
H415 C428 0.961 . S
H416 C428 0.959 . S
H417 C431 0.929 . S
H418 C432 0.931 . S
H419 C434 0.930 . S
C420 H408 0.930 . S
C420 C421 1.399 . S
C420 C425 1.399 . S
C421 C420 1.399 . S
C421 C422 1.376 . S
C422 H409 0.930 . S
C422 C421 1.376 . S
C422 C423 1.388 . S
C423 H410 0.930 . S
C423 C422 1.388 . S
C423 C424 1.390 . S
C424 C423 1.390 . S
C424 C425 1.394 . S
C424 C430 1.465 . S
C425 C420 1.399 . S
C425 C424 1.394 . S
C425 C426 1.516 . S
C426 C425 1.516 . S
C426 C427 1.502 . S
C426 C428 1.561 . S
C426 C429 1.526 . S
C427 H411 0.959 . S
C427 H412 0.959 . S
C427 H413 0.961 . S
C427 C426 1.502 . S
C428 H414 0.960 . S
C428 H415 0.961 . S
C428 H416 0.959 . S
C428 C426 1.561 . S
C429 C426 1.526 . S
C429 C430 1.396 . S
C429 C434 1.390 . S
C430 C424 1.465 . S
C430 C429 1.396 . S
C430 C431 1.399 . S
C431 H417 0.929 . S
C431 C430 1.399 . S
C431 C432 1.385 . S
C432 H418 0.931 . S
C432 C431 1.385 . S
C432 C433 1.389 . S
C433 C432 1.389 . S
C433 C434 1.387 . S
C434 H419 0.930 . S
C434 C429 1.390 . S
C434 C433 1.387 . S
H435 C447 0.930 . S
H436 C449 0.930 . S
H437 C450 0.930 . S
H438 C454 0.959 . S
H439 C454 0.959 . S
H440 C454 0.961 . S
H441 C455 0.960 . S
H442 C455 0.961 . S
H443 C455 0.959 . S
H444 C458 0.929 . S
H445 C459 0.931 . S
H446 C461 0.930 . S
C447 H435 0.930 . S
C447 C448 1.399 . S
C447 C452 1.399 . S
C448 C447 1.399 . S
C448 C449 1.376 . S
C449 H436 0.930 . S
C449 C448 1.376 . S
C449 C450 1.388 . S
C450 H437 0.930 . S
C450 C449 1.388 . S
C450 C451 1.390 . S
C451 C450 1.390 . S
C451 C452 1.394 . S
C451 C457 1.465 . S
C452 C447 1.399 . S
C452 C451 1.394 . S
C452 C453 1.516 . S
C453 C452 1.516 . S
C453 C454 1.502 . S
C453 C455 1.561 . S
C453 C456 1.526 . S
C454 H438 0.959 . S
C454 H439 0.959 . S
C454 H440 0.961 . S
C454 C453 1.502 . S
C455 H441 0.960 . S
C455 H442 0.961 . S
C455 H443 0.959 . S
C455 C453 1.561 . S
C456 C453 1.526 . S
C456 C457 1.396 . S
C456 C461 1.390 . S
C457 C451 1.465 . S
C457 C456 1.396 . S
C457 C458 1.399 . S
C458 H444 0.929 . S
C458 C457 1.399 . S
C458 C459 1.385 . S
C459 H445 0.931 . S
C459 C458 1.385 . S
C459 C460 1.389 . S
C460 C459 1.389 . S
C460 C461 1.387 . S
C461 H446 0.930 . S
C461 C456 1.390 . S
C461 C460 1.387 . S
H462 C474 0.930 . S
H463 C476 0.930 . S
H464 C477 0.930 . S
H465 C481 0.959 . S
H466 C481 0.959 . S
H467 C481 0.961 . S
H468 C482 0.960 . S
H469 C482 0.961 . S
H470 C482 0.959 . S
H471 C485 0.929 . S
H472 C486 0.931 . S
H473 C488 0.930 . S
C474 H462 0.930 . S
C474 C475 1.399 . S
C474 C479 1.399 . S
C475 C474 1.399 . S
C475 C476 1.376 . S
C476 H463 0.930 . S
C476 C475 1.376 . S
C476 C477 1.388 . S
C477 H464 0.930 . S
C477 C476 1.388 . S
C477 C478 1.390 . S
C478 C477 1.390 . S
C478 C479 1.394 . S
C478 C484 1.465 . S
C479 C474 1.399 . S
C479 C478 1.394 . S
C479 C480 1.516 . S
C480 C479 1.516 . S
C480 C481 1.502 . S
C480 C482 1.561 . S
C480 C483 1.526 . S
C481 H465 0.959 . S
C481 H466 0.959 . S
C481 H467 0.961 . S
C481 C480 1.502 . S
C482 H468 0.960 . S
C482 H469 0.961 . S
C482 H470 0.959 . S
C482 C480 1.561 . S
C483 C480 1.526 . S
C483 C484 1.396 . S
C483 C488 1.390 . S
C484 C478 1.465 . S
C484 C483 1.396 . S
C484 C485 1.399 . S
C485 H471 0.929 . S
C485 C484 1.399 . S
C485 C486 1.385 . S
C486 H472 0.931 . S
C486 C485 1.385 . S
C486 C487 1.389 . S
C487 C486 1.389 . S
C487 C488 1.387 . S
C488 H473 0.930 . S
C488 C483 1.390 . S
C488 C487 1.387 . S
H489 C501 0.930 . S
H490 C503 0.930 . S
H491 C504 0.930 . S
H492 C508 0.959 . S
H493 C508 0.959 . S
H494 C508 0.961 . S
H495 C509 0.960 . S
H496 C509 0.961 . S
H497 C509 0.959 . S
H498 C512 0.929 . S
H499 C513 0.931 . S
H500 C515 0.930 . S
C501 H489 0.930 . S
C501 C502 1.399 . S
C501 C506 1.399 . S
C502 C501 1.399 . S
C502 C503 1.376 . S
C503 H490 0.930 . S
C503 C502 1.376 . S
C503 C504 1.388 . S
C504 H491 0.930 . S
C504 C503 1.388 . S
C504 C505 1.390 . S
C505 C504 1.390 . S
C505 C506 1.394 . S
C505 C511 1.465 . S
C506 C501 1.399 . S
C506 C505 1.394 . S
C506 C507 1.516 . S
C507 C506 1.516 . S
C507 C508 1.502 . S
C507 C509 1.561 . S
C507 C510 1.526 . S
C508 H492 0.959 . S
C508 H493 0.959 . S
C508 H494 0.961 . S
C508 C507 1.502 . S
C509 H495 0.960 . S
C509 H496 0.961 . S
C509 H497 0.959 . S
C509 C507 1.561 . S
C510 C507 1.526 . S
C510 C511 1.396 . S
C510 C515 1.390 . S
C511 C505 1.465 . S
C511 C510 1.396 . S
C511 C512 1.399 . S
C512 H498 0.929 . S
C512 C511 1.399 . S
C512 C513 1.385 . S
C513 H499 0.931 . S
C513 C512 1.385 . S
C513 C514 1.389 . S
C514 C513 1.389 . S
C514 C515 1.387 . S
C515 H500 0.930 . S
C515 C510 1.390 . S
C515 C514 1.387 . S
H516 C528 0.930 . S
H517 C530 0.930 . S
H518 C531 0.930 . S
H519 C535 0.959 . S
H520 C535 0.959 . S
H521 C535 0.961 . S
H522 C536 0.960 . S
H523 C536 0.961 . S
H524 C536 0.959 . S
H525 C539 0.929 . S
H526 C540 0.931 . S
H527 C542 0.930 . S
C528 H516 0.930 . S
C528 C529 1.399 . S
C528 C533 1.399 . S
C529 C528 1.399 . S
C529 C530 1.376 . S
C530 H517 0.930 . S
C530 C529 1.376 . S
C530 C531 1.388 . S
C531 H518 0.930 . S
C531 C530 1.388 . S
C531 C532 1.390 . S
C532 C531 1.390 . S
C532 C533 1.394 . S
C532 C538 1.465 . S
C533 C528 1.399 . S
C533 C532 1.394 . S
C533 C534 1.516 . S
C534 C533 1.516 . S
C534 C535 1.502 . S
C534 C536 1.561 . S
C534 C537 1.526 . S
C535 H519 0.959 . S
C535 H520 0.959 . S
C535 H521 0.961 . S
C535 C534 1.502 . S
C536 H522 0.960 . S
C536 H523 0.961 . S
C536 H524 0.959 . S
C536 C534 1.561 . S
C537 C534 1.526 . S
C537 C538 1.396 . S
C537 C542 1.390 . S
C538 C532 1.465 . S
C538 C537 1.396 . S
C538 C539 1.399 . S
C539 H525 0.929 . S
C539 C538 1.399 . S
C539 C540 1.385 . S
C540 H526 0.931 . S
C540 C539 1.385 . S
C540 C541 1.389 . S
C541 C540 1.389 . S
C541 C542 1.387 . S
C542 H527 0.930 . S
C542 C537 1.390 . S
C542 C541 1.387 . S
H543 C555 0.930 . S
H544 C557 0.930 . S
H545 C558 0.930 . S
H546 C562 0.959 . S
H547 C562 0.959 . S
H548 C562 0.961 . S
H549 C563 0.960 . S
H550 C563 0.961 . S
H551 C563 0.959 . S
H552 C566 0.929 . S
H553 C567 0.931 . S
H554 C569 0.930 . S
C555 H543 0.930 . S
C555 C556 1.399 . S
C555 C560 1.399 . S
C556 C555 1.399 . S
C556 C557 1.376 . S
C557 H544 0.930 . S
C557 C556 1.376 . S
C557 C558 1.388 . S
C558 H545 0.930 . S
C558 C557 1.388 . S
C558 C559 1.390 . S
C559 C558 1.390 . S
C559 C560 1.394 . S
C559 C565 1.465 . S
C560 C555 1.399 . S
C560 C559 1.394 . S
C560 C561 1.516 . S
C561 C560 1.516 . S
C561 C562 1.502 . S
C561 C563 1.561 . S
C561 C564 1.526 . S
C562 H546 0.959 . S
C562 H547 0.959 . S
C562 H548 0.961 . S
C562 C561 1.502 . S
C563 H549 0.960 . S
C563 H550 0.961 . S
C563 H551 0.959 . S
C563 C561 1.561 . S
C564 C561 1.526 . S
C564 C565 1.396 . S
C564 C569 1.390 . S
C565 C559 1.465 . S
C565 C564 1.396 . S
C565 C566 1.399 . S
C566 H552 0.929 . S
C566 C565 1.399 . S
C566 C567 1.385 . S
C567 H553 0.931 . S
C567 C566 1.385 . S
C567 C568 1.389 . S
C568 C567 1.389 . S
C568 C569 1.387 . S
C569 H554 0.930 . S
C569 C564 1.390 . S
C569 C568 1.387 . S
H570 C582 0.930 . S
H571 C584 0.930 . S
H572 C585 0.930 . S
H573 C589 0.959 . S
H574 C589 0.959 . S
H575 C589 0.961 . S
H576 C590 0.960 . S
H577 C590 0.961 . S
H578 C590 0.959 . S
H579 C593 0.929 . S
H580 C594 0.931 . S
H581 C596 0.930 . S
C582 H570 0.930 . S
C582 C583 1.399 . S
C582 C587 1.399 . S
C583 C582 1.399 . S
C583 C584 1.376 . S
C584 H571 0.930 . S
C584 C583 1.376 . S
C584 C585 1.388 . S
C585 H572 0.930 . S
C585 C584 1.388 . S
C585 C586 1.390 . S
C586 C585 1.390 . S
C586 C587 1.394 . S
C586 C592 1.465 . S
C587 C582 1.399 . S
C587 C586 1.394 . S
C587 C588 1.516 . S
C588 C587 1.516 . S
C588 C589 1.502 . S
C588 C590 1.561 . S
C588 C591 1.526 . S
C589 H573 0.959 . S
C589 H574 0.959 . S
C589 H575 0.961 . S
C589 C588 1.502 . S
C590 H576 0.960 . S
C590 H577 0.961 . S
C590 H578 0.959 . S
C590 C588 1.561 . S
C591 C588 1.526 . S
C591 C592 1.396 . S
C591 C596 1.390 . S
C592 C586 1.465 . S
C592 C591 1.396 . S
C592 C593 1.399 . S
C593 H579 0.929 . S
C593 C592 1.399 . S
C593 C594 1.385 . S
C594 H580 0.931 . S
C594 C593 1.385 . S
C594 C595 1.389 . S
C595 C594 1.389 . S
C595 C596 1.387 . S
C596 H581 0.930 . S
C596 C591 1.390 . S
C596 C595 1.387 . S
H597 C609 0.930 . S
H598 C611 0.930 . S
H599 C612 0.930 . S
H600 C616 0.959 . S
H601 C616 0.959 . S
H602 C616 0.961 . S
H603 C617 0.960 . S
H604 C617 0.961 . S
H605 C617 0.959 . S
H606 C620 0.929 . S
H607 C621 0.931 . S
H608 C623 0.930 . S
C609 H597 0.930 . S
C609 C610 1.399 . S
C609 C614 1.399 . S
C610 C609 1.399 . S
C610 C611 1.376 . S
C611 H598 0.930 . S
C611 C610 1.376 . S
C611 C612 1.388 . S
C612 H599 0.930 . S
C612 C611 1.388 . S
C612 C613 1.390 . S
C613 C612 1.390 . S
C613 C614 1.394 . S
C613 C619 1.465 . S
C614 C609 1.399 . S
C614 C613 1.394 . S
C614 C615 1.516 . S
C615 C614 1.516 . S
C615 C616 1.502 . S
C615 C617 1.561 . S
C615 C618 1.526 . S
C616 H600 0.959 . S
C616 H601 0.959 . S
C616 H602 0.961 . S
C616 C615 1.502 . S
C617 H603 0.960 . S
C617 H604 0.961 . S
C617 H605 0.959 . S
C617 C615 1.561 . S
C618 C615 1.526 . S
C618 C619 1.396 . S
C618 C623 1.390 . S
C619 C613 1.465 . S
C619 C618 1.396 . S
C619 C620 1.399 . S
C620 H606 0.929 . S
C620 C619 1.399 . S
C620 C621 1.385 . S
C621 H607 0.931 . S
C621 C620 1.385 . S
C621 C622 1.389 . S
C622 C621 1.389 . S
C622 C623 1.387 . S
C623 H608 0.930 . S
C623 C618 1.390 . S
C623 C622 1.387 . S
H624 C636 0.930 . S
H625 C638 0.930 . S
H626 C639 0.930 . S
H627 C643 0.959 . S
H628 C643 0.959 . S
H629 C643 0.961 . S
H630 C644 0.960 . S
H631 C644 0.961 . S
H632 C644 0.960 . S
H633 C647 0.929 . S
H634 C648 0.931 . S
H635 C650 0.930 . S
C636 H624 0.930 . S
C636 C637 1.399 1_556 S
C636 C641 1.399 . S
C637 C636 1.399 1_554 S
C637 C638 1.376 . S
C638 H625 0.930 . S
C638 C637 1.376 . S
C638 C639 1.388 . S
C639 H626 0.930 . S
C639 C638 1.388 . S
C639 C640 1.390 . S
C640 C639 1.390 . S
C640 C641 1.394 1_554 S
C640 C646 1.465 . S
C641 C636 1.399 . S
C641 C640 1.394 1_556 S
C641 C642 1.516 . S
C642 C641 1.516 . S
C642 C643 1.502 . S
C642 C644 1.561 . S
C642 C645 1.526 . S
C643 H627 0.959 . S
C643 H628 0.959 . S
C643 H629 0.961 . S
C643 C642 1.502 . S
C644 H630 0.960 . S
C644 H631 0.961 . S
C644 H632 0.960 . S
C644 C642 1.561 . S
C645 C642 1.526 . S
C645 C646 1.396 1_556 S
C645 C650 1.390 . S
C646 C640 1.465 . S
C646 C645 1.396 1_554 S
C646 C647 1.399 . S
C647 H633 0.929 . S
C647 C646 1.399 . S
C647 C648 1.385 . S
C648 H634 0.931 . S
C648 C647 1.385 . S
C648 C649 1.389 . S
C649 C648 1.389 . S
C649 C650 1.387 1_554 S
C650 H635 0.930 . S
C650 C645 1.390 . S
C650 C649 1.387 1_556 S
H651 C663 0.930 . S
H652 C665 0.930 . S
H653 C666 0.930 . S
H654 C670 0.959 . S
H655 C670 0.959 . S
H656 C670 0.961 . S
H657 C671 0.960 . S
H658 C671 0.961 . S
H659 C671 0.959 . S
H660 C674 0.929 . S
H661 C675 0.931 . S
H662 C677 0.930 . S
C663 H651 0.930 . S
C663 C664 1.399 . S
C663 C668 1.399 . S
C664 C663 1.399 . S
C664 C665 1.376 . S
C665 H652 0.930 . S
C665 C664 1.376 . S
C665 C666 1.388 . S
C666 H653 0.930 . S
C666 C665 1.388 . S
C666 C667 1.390 . S
C667 C666 1.390 . S
C667 C668 1.394 . S
C667 C673 1.465 . S
C668 C663 1.399 . S
C668 C667 1.394 . S
C668 C669 1.516 . S
C669 C668 1.516 . S
C669 C670 1.502 . S
C669 C671 1.561 . S
C669 C672 1.526 . S
C670 H654 0.959 . S
C670 H655 0.959 . S
C670 H656 0.961 . S
C670 C669 1.502 . S
C671 H657 0.960 . S
C671 H658 0.961 . S
C671 H659 0.959 . S
C671 C669 1.561 . S
C672 C669 1.526 . S
C672 C673 1.396 . S
C672 C677 1.390 . S
C673 C667 1.465 . S
C673 C672 1.396 . S
C673 C674 1.399 . S
C674 H660 0.929 . S
C674 C673 1.399 . S
C674 C675 1.385 . S
C675 H661 0.931 . S
C675 C674 1.385 . S
C675 C676 1.389 . S
C676 C675 1.389 . S
C676 C677 1.387 . S
C677 H662 0.930 . S
C677 C672 1.390 . S
C677 C676 1.387 . S
H678 C690 0.930 . S
H679 C692 0.930 . S
H680 C693 0.930 . S
H681 C697 0.959 . S
H682 C697 0.959 . S
H683 C697 0.961 . S
H684 C698 0.960 . S
H685 C698 0.961 . S
H686 C698 0.959 . S
H687 C701 0.929 . S
H688 C702 0.931 . S
H689 C704 0.930 . S
C690 H678 0.930 . S
C690 C691 1.399 1_554 S
C690 C695 1.399 . S
C691 C690 1.399 1_556 S
C691 C692 1.376 . S
C692 H679 0.930 . S
C692 C691 1.376 . S
C692 C693 1.388 . S
C693 H680 0.930 . S
C693 C692 1.388 . S
C693 C694 1.390 . S
C694 C693 1.390 . S
C694 C695 1.394 1_556 S
C694 C700 1.465 . S
C695 C690 1.399 . S
C695 C694 1.394 1_554 S
C695 C696 1.516 . S
C696 C695 1.516 . S
C696 C697 1.502 . S
C696 C698 1.561 . S
C696 C699 1.526 . S
C697 H681 0.959 . S
C697 H682 0.959 . S
C697 H683 0.961 . S
C697 C696 1.502 . S
C698 H684 0.960 . S
C698 H685 0.961 . S
C698 H686 0.959 . S
C698 C696 1.561 . S
C699 C696 1.526 . S
C699 C700 1.396 1_554 S
C699 C704 1.390 . S
C700 C694 1.465 . S
C700 C699 1.396 1_556 S
C700 C701 1.399 . S
C701 H687 0.929 . S
C701 C700 1.399 . S
C701 C702 1.385 . S
C702 H688 0.931 . S
C702 C701 1.385 . S
C702 C703 1.389 . S
C703 C702 1.389 . S
C703 C704 1.387 1_556 S
C704 H689 0.930 . S
C704 C699 1.390 . S
C704 C703 1.387 1_554 S
H705 C717 0.930 . S
H706 C719 0.930 . S
H707 C720 0.930 . S
H708 C724 0.959 . S
H709 C724 0.959 . S
H710 C724 0.961 . S
H711 C725 0.960 . S
H712 C725 0.961 . S
H713 C725 0.959 . S
H714 C728 0.929 . S
H715 C729 0.931 . S
H716 C731 0.930 . S
C717 H705 0.930 . S
C717 C718 1.399 . S
C717 C722 1.399 . S
C718 C717 1.399 . S
C718 C719 1.376 . S
C719 H706 0.930 . S
C719 C718 1.376 . S
C719 C720 1.388 . S
C720 H707 0.930 . S
C720 C719 1.388 . S
C720 C721 1.390 . S
C721 C720 1.390 . S
C721 C722 1.394 . S
C721 C727 1.465 . S
C722 C717 1.399 . S
C722 C721 1.394 . S
C722 C723 1.516 . S
C723 C722 1.516 . S
C723 C724 1.502 . S
C723 C725 1.561 . S
C723 C726 1.526 . S
C724 H708 0.959 . S
C724 H709 0.959 . S
C724 H710 0.961 . S
C724 C723 1.502 . S
C725 H711 0.960 . S
C725 H712 0.961 . S
C725 H713 0.959 . S
C725 C723 1.561 . S
C726 C723 1.526 . S
C726 C727 1.396 . S
C726 C731 1.390 . S
C727 C721 1.465 . S
C727 C726 1.396 . S
C727 C728 1.399 . S
C728 H714 0.929 . S
C728 C727 1.399 . S
C728 C729 1.385 . S
C729 H715 0.931 . S
C729 C728 1.385 . S
C729 C730 1.389 . S
C730 C729 1.389 . S
C730 C731 1.387 . S
C731 H716 0.930 . S
C731 C726 1.390 . S
C731 C730 1.387 . S
H732 C744 0.930 . S
H733 C746 0.930 . S
H734 C747 0.930 . S
H735 C751 0.959 . S
H736 C751 0.959 . S
H737 C751 0.961 . S
H738 C752 0.960 . S
H739 C752 0.961 . S
H740 C752 0.959 . S
H741 C755 0.929 . S
H742 C756 0.931 . S
H743 C758 0.930 . S
C744 H732 0.930 . S
C744 C745 1.399 . S
C744 C749 1.399 . S
C745 C744 1.399 . S
C745 C746 1.376 . S
C746 H733 0.930 . S
C746 C745 1.376 . S
C746 C747 1.388 . S
C747 H734 0.930 . S
C747 C746 1.388 . S
C747 C748 1.390 . S
C748 C747 1.390 . S
C748 C749 1.394 . S
C748 C754 1.465 . S
C749 C744 1.399 . S
C749 C748 1.394 . S
C749 C750 1.516 . S
C750 C749 1.516 . S
C750 C751 1.502 . S
C750 C752 1.561 . S
C750 C753 1.526 . S
C751 H735 0.959 . S
C751 H736 0.959 . S
C751 H737 0.961 . S
C751 C750 1.502 . S
C752 H738 0.960 . S
C752 H739 0.961 . S
C752 H740 0.959 . S
C752 C750 1.561 . S
C753 C750 1.526 . S
C753 C754 1.396 . S
C753 C758 1.390 . S
C754 C748 1.465 . S
C754 C753 1.396 . S
C754 C755 1.399 . S
C755 H741 0.929 . S
C755 C754 1.399 . S
C755 C756 1.385 . S
C756 H742 0.931 . S
C756 C755 1.385 . S
C756 C757 1.389 . S
C757 C756 1.389 . S
C757 C758 1.387 . S
C758 H743 0.930 . S
C758 C753 1.390 . S
C758 C757 1.387 . S
H759 C771 0.930 . S
H760 C773 0.930 . S
H761 C774 0.930 . S
H762 C778 0.959 . S
H763 C778 0.959 . S
H764 C778 0.961 . S
H765 C779 0.960 . S
H766 C779 0.961 . S
H767 C779 0.959 . S
H768 C782 0.929 . S
H769 C783 0.931 . S
H770 C785 0.930 . S
C771 H759 0.930 . S
C771 C772 1.399 1_554 S
C771 C776 1.399 . S
C772 C771 1.399 1_556 S
C772 C773 1.376 . S
C773 H760 0.930 . S
C773 C772 1.376 . S
C773 C774 1.388 . S
C774 H761 0.930 . S
C774 C773 1.388 . S
C774 C775 1.390 . S
C775 C774 1.390 . S
C775 C776 1.394 1_556 S
C775 C781 1.465 . S
C776 C771 1.399 . S
C776 C775 1.394 1_554 S
C776 C777 1.516 . S
C777 C776 1.516 . S
C777 C778 1.502 . S
C777 C779 1.561 . S
C777 C780 1.526 . S
C778 H762 0.959 . S
C778 H763 0.959 . S
C778 H764 0.961 . S
C778 C777 1.502 . S
C779 H765 0.960 . S
C779 H766 0.961 . S
C779 H767 0.959 . S
C779 C777 1.561 . S
C780 C777 1.526 . S
C780 C781 1.396 1_554 S
C780 C785 1.390 . S
C781 C775 1.465 . S
C781 C780 1.396 1_556 S
C781 C782 1.399 . S
C782 H768 0.929 . S
C782 C781 1.399 . S
C782 C783 1.385 . S
C783 H769 0.931 . S
C783 C782 1.385 . S
C783 C784 1.389 . S
C784 C783 1.389 . S
C784 C785 1.387 1_556 S
C785 H770 0.930 . S
C785 C780 1.390 . S
C785 C784 1.387 1_554 S
H786 C798 0.930 . S
H787 C800 0.930 . S
H788 C801 0.930 . S
H789 C805 0.959 . S
H790 C805 0.959 . S
H791 C805 0.961 . S
H792 C806 0.960 . S
H793 C806 0.961 . S
H794 C806 0.959 . S
H795 C809 0.929 . S
H796 C810 0.931 . S
H797 C812 0.930 . S
C798 H786 0.930 . S
C798 C799 1.399 . S
C798 C803 1.399 . S
C799 C798 1.399 . S
C799 C800 1.376 . S
C800 H787 0.930 . S
C800 C799 1.376 . S
C800 C801 1.388 . S
C801 H788 0.930 . S
C801 C800 1.388 . S
C801 C802 1.390 . S
C802 C801 1.390 . S
C802 C803 1.394 . S
C802 C808 1.465 . S
C803 C798 1.399 . S
C803 C802 1.394 . S
C803 C804 1.516 . S
C804 C803 1.516 . S
C804 C805 1.502 . S
C804 C806 1.561 . S
C804 C807 1.526 . S
C805 H789 0.959 . S
C805 H790 0.959 . S
C805 H791 0.961 . S
C805 C804 1.502 . S
C806 H792 0.960 . S
C806 H793 0.961 . S
C806 H794 0.959 . S
C806 C804 1.561 . S
C807 C804 1.526 . S
C807 C808 1.396 . S
C807 C812 1.390 . S
C808 C802 1.465 . S
C808 C807 1.396 . S
C808 C809 1.399 . S
C809 H795 0.929 . S
C809 C808 1.399 . S
C809 C810 1.385 . S
C810 H796 0.931 . S
C810 C809 1.385 . S
C810 C811 1.389 . S
C811 C810 1.389 . S
C811 C812 1.387 . S
C812 H797 0.930 . S
C812 C807 1.390 . S
C812 C811 1.387 . S
H813 C825 0.930 . S
H814 C827 0.930 . S
H815 C828 0.930 . S
H816 C832 0.959 . S
H817 C832 0.959 . S
H818 C832 0.961 . S
H819 C833 0.960 . S
H820 C833 0.961 . S
H821 C833 0.959 1_556 S
H822 C836 0.929 . S
H823 C837 0.931 . S
H824 C839 0.930 . S
C825 H813 0.930 . S
C825 C826 1.399 1_554 S
C825 C830 1.399 . S
C826 C825 1.399 1_556 S
C826 C827 1.376 . S
C827 H814 0.930 . S
C827 C826 1.376 . S
C827 C828 1.388 . S
C828 H815 0.930 . S
C828 C827 1.388 . S
C828 C829 1.390 . S
C829 C828 1.390 . S
C829 C830 1.394 1_556 S
C829 C835 1.465 . S
C830 C825 1.399 . S
C830 C829 1.394 1_554 S
C830 C831 1.516 . S
C831 C830 1.516 . S
C831 C832 1.502 . S
C831 C833 1.561 . S
C831 C834 1.526 . S
C832 H816 0.959 . S
C832 H817 0.959 . S
C832 H818 0.961 . S
C832 C831 1.502 . S
C833 H819 0.960 . S
C833 H820 0.961 . S
C833 H821 0.959 1_554 S
C833 C831 1.561 . S
C834 C831 1.526 . S
C834 C835 1.396 1_554 S
C834 C839 1.390 . S
C835 C829 1.465 . S
C835 C834 1.396 1_556 S
C835 C836 1.399 . S
C836 H822 0.929 . S
C836 C835 1.399 . S
C836 C837 1.385 . S
C837 H823 0.931 . S
C837 C836 1.385 . S
C837 C838 1.389 . S
C838 C837 1.389 . S
C838 C839 1.387 1_556 S
C839 H824 0.930 . S
C839 C834 1.390 . S
C839 C838 1.387 1_554 S
C205 C21 1.498 . S
C217 N128 1.498 . S
C232 C40 1.472 . S
C244 N89 1.460 . S
C271 N106 1.460 . S
C259 C54 1.448 . S
C286 C73 1.481 . S
C298 N119 1.514 . S
C325 N158 1.462 . S
C313 C74 1.447 . S
C352 N171 1.481 . S
C340 C10 1.472 . S
C379 N180 1.499 . S
C367 C37 1.496 . S
C406 N141 1.492 . S
C394 C65 1.483 . S
C421 C52 1.446 . S
C433 N102 1.465 . S
C448 C87 1.479 . S
C460 N115 1.510 . S
C475 C15 1.520 . S
C487 N132 1.505 . S
C514 N93 1.483 . S
C502 C32 1.481 . S
C529 C29 1.482 . S
C541 N184 1.515 . S
C568 N145 1.515 . S
C556 C59 1.488 . S
C595 N154 1.464 . S
C583 C84 1.447 . S
C610 C8 1.481 . S
C622 N167 1.468 . S
C649 N90 1.503 1_554 S
C637 C7 1.494 . S
C676 N103 1.478 . S
C664 C30 1.468 . S
C691 C62 1.495 1_556 S
C703 N116 1.498 1_556 S
C718 C81 1.510 . S
C730 N129 1.511 . S
C757 N142 1.501 . S
C745 C76 1.499 . S
C772 C18 1.477 . S
C784 N155 1.470 . S
C799 C43 1.511 . S
C811 N168 1.510 . S
C826 C51 1.490 . S
C838 N181 1.506 1_556 S
