# Generated by pormake.
# Topology llk, (3,12)-cn, num edge types: 1
# Building blocks:
#     Node 0, Type 0, BuildingBlock: BELTOD_clean_linker_0, # of connection points: 3
#     Node 1, Type 0, BuildingBlock: BELTOD_clean_linker_0, # of connection points: 3
#     Node 2, Type 0, BuildingBlock: BELTOD_clean_linker_0, # of connection points: 3
#     Node 3, Type 0, BuildingBlock: BELTOD_clean_linker_0, # of connection points: 3
#     Node 4, Type 0, BuildingBlock: BELTOD_clean_linker_0, # of connection points: 3
#     Node 5, Type 0, BuildingBlock: BELTOD_clean_linker_0, # of connection points: 3
#     Node 6, Type 0, BuildingBlock: BELTOD_clean_linker_0, # of connection points: 3
#     Node 7, Type 0, BuildingBlock: BELTOD_clean_linker_0, # of connection points: 3
#     Node 8, Type 0, BuildingBlock: BELTOD_clean_linker_0, # of connection points: 3
#     Node 9, Type 0, BuildingBlock: BELTOD_clean_linker_0, # of connection points: 3
#     Node 10, Type 0, BuildingBlock: BELTOD_clean_linker_0, # of connection points: 3
#     Node 11, Type 0, BuildingBlock: BELTOD_clean_linker_0, # of connection points: 3
#     Node 12, Type 0, BuildingBlock: BELTOD_clean_linker_0, # of connection points: 3
#     Node 13, Type 0, BuildingBlock: BELTOD_clean_linker_0, # of connection points: 3
#     Node 14, Type 0, BuildingBlock: BELTOD_clean_linker_0, # of connection points: 3
#     Node 15, Type 0, BuildingBlock: BELTOD_clean_linker_0, # of connection points: 3
#     Node 16, Type 0, BuildingBlock: BELTOD_clean_linker_0, # of connection points: 3
#     Node 17, Type 0, BuildingBlock: BELTOD_clean_linker_0, # of connection points: 3
#     Node 18, Type 0, BuildingBlock: BELTOD_clean_linker_0, # of connection points: 3
#     Node 19, Type 0, BuildingBlock: BELTOD_clean_linker_0, # of connection points: 3
#     Node 20, Type 0, BuildingBlock: BELTOD_clean_linker_0, # of connection points: 3
#     Node 21, Type 0, BuildingBlock: BELTOD_clean_linker_0, # of connection points: 3
#     Node 22, Type 0, BuildingBlock: BELTOD_clean_linker_0, # of connection points: 3
#     Node 23, Type 0, BuildingBlock: BELTOD_clean_linker_0, # of connection points: 3
#     Node 24, Type 1, BuildingBlock: EZIPEK_clean_sbu_0, # of connection points: 12
#     Node 25, Type 1, BuildingBlock: EZIPEK_clean_sbu_0, # of connection points: 12
#     Node 26, Type 1, BuildingBlock: EZIPEK_clean_sbu_0, # of connection points: 12
#     Node 27, Type 1, BuildingBlock: EZIPEK_clean_sbu_0, # of connection points: 12
#     Node 28, Type 1, BuildingBlock: EZIPEK_clean_sbu_0, # of connection points: 12
#     Node 29, Type 1, BuildingBlock: EZIPEK_clean_sbu_0, # of connection points: 12
#     Edge 30, Type (0, 1), BuildingBlock: TEMPAE_clean_linker_10, # of connection points: 2
#     Edge 31, Type (0, 1), BuildingBlock: TEMPAE_clean_linker_10, # of connection points: 2
#     Edge 32, Type (0, 1), BuildingBlock: TEMPAE_clean_linker_10, # of connection points: 2
#     Edge 33, Type (0, 1), BuildingBlock: TEMPAE_clean_linker_10, # of connection points: 2
#     Edge 34, Type (0, 1), BuildingBlock: TEMPAE_clean_linker_10, # of connection points: 2
#     Edge 35, Type (0, 1), BuildingBlock: TEMPAE_clean_linker_10, # of connection points: 2
#     Edge 36, Type (0, 1), BuildingBlock: TEMPAE_clean_linker_10, # of connection points: 2
#     Edge 37, Type (0, 1), BuildingBlock: TEMPAE_clean_linker_10, # of connection points: 2
#     Edge 38, Type (0, 1), BuildingBlock: TEMPAE_clean_linker_10, # of connection points: 2
#     Edge 39, Type (0, 1), BuildingBlock: TEMPAE_clean_linker_10, # of connection points: 2
#     Edge 40, Type (0, 1), BuildingBlock: TEMPAE_clean_linker_10, # of connection points: 2
#     Edge 41, Type (0, 1), BuildingBlock: TEMPAE_clean_linker_10, # of connection points: 2
#     Edge 42, Type (0, 1), BuildingBlock: TEMPAE_clean_linker_10, # of connection points: 2
#     Edge 43, Type (0, 1), BuildingBlock: TEMPAE_clean_linker_10, # of connection points: 2
#     Edge 44, Type (0, 1), BuildingBlock: TEMPAE_clean_linker_10, # of connection points: 2
#     Edge 45, Type (0, 1), BuildingBlock: TEMPAE_clean_linker_10, # of connection points: 2
#     Edge 46, Type (0, 1), BuildingBlock: TEMPAE_clean_linker_10, # of connection points: 2
#     Edge 47, Type (0, 1), BuildingBlock: TEMPAE_clean_linker_10, # of connection points: 2
#     Edge 48, Type (0, 1), BuildingBlock: TEMPAE_clean_linker_10, # of connection points: 2
#     Edge 49, Type (0, 1), BuildingBlock: TEMPAE_clean_linker_10, # of connection points: 2
#     Edge 50, Type (0, 1), BuildingBlock: TEMPAE_clean_linker_10, # of connection points: 2
#     Edge 51, Type (0, 1), BuildingBlock: TEMPAE_clean_linker_10, # of connection points: 2
#     Edge 52, Type (0, 1), BuildingBlock: TEMPAE_clean_linker_10, # of connection points: 2
#     Edge 53, Type (0, 1), BuildingBlock: TEMPAE_clean_linker_10, # of connection points: 2
#     Edge 54, Type (0, 1), BuildingBlock: TEMPAE_clean_linker_10, # of connection points: 2
#     Edge 55, Type (0, 1), BuildingBlock: TEMPAE_clean_linker_10, # of connection points: 2
#     Edge 56, Type (0, 1), BuildingBlock: TEMPAE_clean_linker_10, # of connection points: 2
#     Edge 57, Type (0, 1), BuildingBlock: TEMPAE_clean_linker_10, # of connection points: 2
#     Edge 58, Type (0, 1), BuildingBlock: TEMPAE_clean_linker_10, # of connection points: 2
#     Edge 59, Type (0, 1), BuildingBlock: TEMPAE_clean_linker_10, # of connection points: 2
#     Edge 60, Type (0, 1), BuildingBlock: TEMPAE_clean_linker_10, # of connection points: 2
#     Edge 61, Type (0, 1), BuildingBlock: TEMPAE_clean_linker_10, # of connection points: 2
#     Edge 62, Type (0, 1), BuildingBlock: TEMPAE_clean_linker_10, # of connection points: 2
#     Edge 63, Type (0, 1), BuildingBlock: TEMPAE_clean_linker_10, # of connection points: 2
#     Edge 64, Type (0, 1), BuildingBlock: TEMPAE_clean_linker_10, # of connection points: 2
#     Edge 65, Type (0, 1), BuildingBlock: TEMPAE_clean_linker_10, # of connection points: 2
#     Edge 66, Type (0, 1), BuildingBlock: TEMPAE_clean_linker_10, # of connection points: 2
#     Edge 67, Type (0, 1), BuildingBlock: TEMPAE_clean_linker_10, # of connection points: 2
#     Edge 68, Type (0, 1), BuildingBlock: TEMPAE_clean_linker_10, # of connection points: 2
#     Edge 69, Type (0, 1), BuildingBlock: TEMPAE_clean_linker_10, # of connection points: 2
#     Edge 70, Type (0, 1), BuildingBlock: TEMPAE_clean_linker_10, # of connection points: 2
#     Edge 71, Type (0, 1), BuildingBlock: TEMPAE_clean_linker_10, # of connection points: 2
#     Edge 72, Type (0, 1), BuildingBlock: TEMPAE_clean_linker_10, # of connection points: 2
#     Edge 73, Type (0, 1), BuildingBlock: TEMPAE_clean_linker_10, # of connection points: 2
#     Edge 74, Type (0, 1), BuildingBlock: TEMPAE_clean_linker_10, # of connection points: 2
#     Edge 75, Type (0, 1), BuildingBlock: TEMPAE_clean_linker_10, # of connection points: 2
#     Edge 76, Type (0, 1), BuildingBlock: TEMPAE_clean_linker_10, # of connection points: 2
#     Edge 77, Type (0, 1), BuildingBlock: TEMPAE_clean_linker_10, # of connection points: 2
#     Edge 78, Type (0, 1), BuildingBlock: TEMPAE_clean_linker_10, # of connection points: 2
#     Edge 79, Type (0, 1), BuildingBlock: TEMPAE_clean_linker_10, # of connection points: 2
#     Edge 80, Type (0, 1), BuildingBlock: TEMPAE_clean_linker_10, # of connection points: 2
#     Edge 81, Type (0, 1), BuildingBlock: TEMPAE_clean_linker_10, # of connection points: 2
#     Edge 82, Type (0, 1), BuildingBlock: TEMPAE_clean_linker_10, # of connection points: 2
#     Edge 83, Type (0, 1), BuildingBlock: TEMPAE_clean_linker_10, # of connection points: 2
#     Edge 84, Type (0, 1), BuildingBlock: TEMPAE_clean_linker_10, # of connection points: 2
#     Edge 85, Type (0, 1), BuildingBlock: TEMPAE_clean_linker_10, # of connection points: 2
#     Edge 86, Type (0, 1), BuildingBlock: TEMPAE_clean_linker_10, # of connection points: 2
#     Edge 87, Type (0, 1), BuildingBlock: TEMPAE_clean_linker_10, # of connection points: 2
#     Edge 88, Type (0, 1), BuildingBlock: TEMPAE_clean_linker_10, # of connection points: 2
#     Edge 89, Type (0, 1), BuildingBlock: TEMPAE_clean_linker_10, # of connection points: 2
#     Edge 90, Type (0, 1), BuildingBlock: TEMPAE_clean_linker_10, # of connection points: 2
#     Edge 91, Type (0, 1), BuildingBlock: TEMPAE_clean_linker_10, # of connection points: 2
#     Edge 92, Type (0, 1), BuildingBlock: TEMPAE_clean_linker_10, # of connection points: 2
#     Edge 93, Type (0, 1), BuildingBlock: TEMPAE_clean_linker_10, # of connection points: 2
#     Edge 94, Type (0, 1), BuildingBlock: TEMPAE_clean_linker_10, # of connection points: 2
#     Edge 95, Type (0, 1), BuildingBlock: TEMPAE_clean_linker_10, # of connection points: 2
#     Edge 96, Type (0, 1), BuildingBlock: TEMPAE_clean_linker_10, # of connection points: 2
#     Edge 97, Type (0, 1), BuildingBlock: TEMPAE_clean_linker_10, # of connection points: 2
#     Edge 98, Type (0, 1), BuildingBlock: TEMPAE_clean_linker_10, # of connection points: 2
#     Edge 99, Type (0, 1), BuildingBlock: TEMPAE_clean_linker_10, # of connection points: 2
#     Edge 100, Type (0, 1), BuildingBlock: TEMPAE_clean_linker_10, # of connection points: 2
#     Edge 101, Type (0, 1), BuildingBlock: TEMPAE_clean_linker_10, # of connection points: 2
# Relax obj value: 0.096
# Max RMSD: 0.146
# Mean RMSD: 0.122
data_MOF--net-llk--node1-EZIPEK_clean_sbu_0--node2-BELTOD_clean_linker_0--edge1-TEMPAE_clean_linker_10
_symmetry_space_group_name_H-M    P1
_symmetry_Int_Tables_number       1
_symmetry_cell_setting            triclinic
loop_
_symmetry_equiv_pos_as_xyz
'x, y, z'
_cell_length_a     53.173548
_cell_length_b     53.348845
_cell_length_c     53.073264
_cell_angle_alpha  90.010076
_cell_angle_beta   89.996515
_cell_angle_gamma 89.995098
loop_
_atom_site_label
_atom_site_type_symbol
_atom_site_fract_x
_atom_site_fract_y
_atom_site_fract_z
_atom_type_partial_charge
P0 P 0.94608 0.25241 0.252 0.0
H1 H 0.93518 0.25385 0.19796 0.0
H2 H 0.94972 0.28242 0.16514 0.0
H3 H 0.0073 0.31016 0.21538 0.0
H4 H 0.99329 0.2808 0.24769 0.0
H5 H 0.91923 0.21602 0.28149 0.0
H6 H 0.93301 0.18259 0.30898 0.0
H7 H 0.00878 0.19032 0.28038 0.0
H8 H 0.99466 0.22494 0.25329 0.0
H9 H 0.9222 0.30098 0.26003 0.0
H10 H 0.9771 0.25469 0.29783 0.0
O11 O 0.91575 0.25015 0.2442 0.0
H12 H 0.92955 0.33434 0.29099 0.0
H13 H 0.98398 0.28738 0.32873 0.0
C14 C 0.96286 0.26543 0.22545 0.0
C15 C 0.9515 0.26543 0.20163 0.0
C16 C 0.95962 0.28211 0.18297 0.0
C17 C 0.97919 0.29924 0.18783 0.0
C18 C 0.99212 0.29739 0.21091 0.0
C19 C 0.98411 0.28052 0.22949 0.0
C20 C 0.95577 0.22264 0.2649 0.0
C21 C 0.93865 0.20998 0.28039 0.0
C22 C 0.94665 0.19075 0.29626 0.0
C23 C 0.9721 0.18356 0.29707 0.0
C24 C 0.98909 0.19549 0.28052 0.0
C25 C 0.981 0.21499 0.26465 0.0
C26 C 0.9487 0.27516 0.27683 0.0
C27 C 0.93536 0.29777 0.27527 0.0
C28 C 0.93959 0.31678 0.2929 0.0
C29 C 0.95743 0.31345 0.31215 0.0
C30 C 0.97036 0.29058 0.3139 0.0
C31 C 0.96616 0.27169 0.29631 0.0
P32 P 0.75381 0.94101 0.25501 0.0
H33 H 0.72704 0.91303 0.21698 0.0
H34 H 0.69962 0.92581 0.18287 0.0
H35 H 0.72316 0.00272 0.19305 0.0
H36 H 0.75033 0.98958 0.22809 0.0
H37 H 0.80772 0.92984 0.25577 0.0
H38 H 0.8413 0.945 0.28318 0.0
H39 H 0.79204 0.00319 0.31097 0.0
H40 H 0.75887 0.98843 0.28283 0.0
H41 H 0.7049 0.96731 0.25482 0.0
H42 H 0.74894 0.92279 0.30651 0.0
O43 O 0.76134 0.91067 0.25342 0.0
H44 H 0.67437 0.97541 0.28764 0.0
H45 H 0.7182 0.93132 0.3399 0.0
C46 C 0.74119 0.95024 0.2248 0.0
C47 C 0.7271 0.93254 0.21133 0.0
C48 C 0.71125 0.93995 0.19174 0.0
C49 C 0.70897 0.96537 0.1851 0.0
C50 C 0.72418 0.98301 0.1978 0.0
C51 C 0.74009 0.9755 0.21755 0.0
C52 C 0.78064 0.95775 0.26746 0.0
C53 C 0.80439 0.94637 0.26712 0.0
C54 C 0.82351 0.95487 0.28313 0.0
C55 C 0.81921 0.97489 0.2999 0.0
C56 C 0.79609 0.9877 0.29842 0.0
C57 C 0.77704 0.97927 0.28225 0.0
C58 C 0.72923 0.9442 0.2781 0.0
C59 C 0.70799 0.95897 0.27309 0.0
C60 C 0.69053 0.96382 0.29201 0.0
C61 C 0.69405 0.95421 0.31637 0.0
C62 C 0.71495 0.93882 0.32122 0.0
C63 C 0.73248 0.93394 0.3022 0.0
P64 P 0.06395 0.75495 0.25395 0.0
H65 H 0.07474 0.75404 0.19987 0.0
H66 H 0.06072 0.72564 0.16664 0.0
H67 H 0.00409 0.69574 0.21669 0.0
H68 H 0.01767 0.72481 0.24949 0.0
H69 H 0.09174 0.79259 0.28112 0.0
H70 H 0.07879 0.8269 0.308 0.0
H71 H 0.0021 0.81785 0.28253 0.0
H72 H 0.01544 0.78262 0.2558 0.0
H73 H 0.08935 0.70773 0.26541 0.0
H74 H 0.03073 0.75327 0.29819 0.0
O75 O 0.09439 0.7566 0.24642 0.0
H76 H 0.08236 0.67591 0.29805 0.0
H77 H 0.0242 0.72217 0.33075 0.0
C78 C 0.04755 0.74137 0.22735 0.0
C79 C 0.05877 0.74197 0.20345 0.0
C80 C 0.05094 0.72539 0.18454 0.0
C81 C 0.03173 0.70779 0.18914 0.0
C82 C 0.01899 0.7089 0.21239 0.0
C83 C 0.02676 0.72561 0.23126 0.0
C84 C 0.05469 0.78528 0.26601 0.0
C85 C 0.07228 0.79852 0.2805 0.0
C86 C 0.06476 0.81825 0.29604 0.0
C87 C 0.03932 0.82527 0.29764 0.0
C88 C 0.02182 0.81282 0.28202 0.0
C89 C 0.02945 0.79295 0.26636 0.0
C90 C 0.06094 0.73311 0.27958 0.0
C91 C 0.07539 0.71114 0.27987 0.0
C92 C 0.07141 0.69302 0.2985 0.0
C93 C 0.05269 0.69658 0.31687 0.0
C94 C 0.03857 0.71881 0.31668 0.0
C95 C 0.04253 0.73679 0.29812 0.0
P96 P 0.25272 0.93849 0.25018 0.0
H97 H 0.20358 0.91673 0.26159 0.0
H98 H 0.17091 0.92945 0.29097 0.0
H99 H 0.2069 0.00152 0.29958 0.0
H100 H 0.23899 0.98907 0.26929 0.0
H101 H 0.28083 0.91282 0.21162 0.0
H102 H 0.30808 0.92733 0.17823 0.0
H103 H 0.2827 0.00329 0.19071 0.0
H104 H 0.25525 0.98835 0.22481 0.0
H105 H 0.27768 0.90564 0.28702 0.0
H106 H 0.28153 0.98303 0.26374 0.0
O107 O 0.24839 0.9076 0.24744 0.0
H108 H 0.31062 0.91337 0.31815 0.0
H109 H 0.31255 0.99139 0.29587 0.0
C110 C 0.22421 0.95171 0.26338 0.0
C111 C 0.20415 0.93558 0.26911 0.0
C112 C 0.18557 0.94276 0.2863 0.0
C113 C 0.18667 0.96622 0.29836 0.0
C114 C 0.20549 0.98323 0.29084 0.0
C115 C 0.224 0.97606 0.27344 0.0
C116 C 0.26557 0.94937 0.22058 0.0
C117 C 0.28029 0.9325 0.20669 0.0
C118 C 0.29607 0.9409 0.18748 0.0
C119 C 0.29775 0.96655 0.18166 0.0
C120 C 0.28209 0.98342 0.19483 0.0
C121 C 0.26612 0.97488 0.21414 0.0
C122 C 0.27712 0.94374 0.273 0.0
C123 C 0.28546 0.92432 0.28868 0.0
C124 C 0.30413 0.92885 0.30667 0.0
C125 C 0.31437 0.95303 0.30957 0.0
C126 C 0.30565 0.9724 0.29388 0.0
C127 C 0.28751 0.96771 0.27562 0.0
P128 P 0.95013 0.75659 0.75639 0.0
H129 H 0.94071 0.7566 0.81074 0.0
H130 H 0.95507 0.72805 0.84366 0.0
H131 H 0.01047 0.69767 0.79249 0.0
H132 H 0.99677 0.72706 0.76014 0.0
H133 H 0.92171 0.79402 0.72958 0.0
H134 H 0.93394 0.8279 0.70183 0.0
H135 H 0.01154 0.81809 0.72403 0.0
H136 H 0.99891 0.78334 0.75173 0.0
H137 H 0.92573 0.70822 0.74895 0.0
H138 H 0.98083 0.75357 0.71034 0.0
O139 O 0.91993 0.75865 0.76476 0.0
H140 H 0.93285 0.67432 0.71854 0.0
H141 H 0.98763 0.72026 0.68006 0.0
C142 C 0.96732 0.74373 0.78278 0.0
C143 C 0.95656 0.74445 0.80688 0.0
C144 C 0.96456 0.72777 0.8256 0.0
C145 C 0.98339 0.70987 0.82054 0.0
C146 C 0.99586 0.71101 0.79715 0.0
C147 C 0.988 0.72791 0.77853 0.0
C148 C 0.95929 0.78643 0.74318 0.0
C149 C 0.94126 0.79969 0.72928 0.0
C150 C 0.94835 0.81915 0.71324 0.0
C151 C 0.97379 0.82586 0.71053 0.0
C152 C 0.9918 0.81331 0.72545 0.0
C153 C 0.9846 0.79371 0.74164 0.0
C154 C 0.95235 0.73362 0.7317 0.0
C155 C 0.93888 0.71112 0.73364 0.0
C156 C 0.943 0.69179 0.71634 0.0
C157 C 0.96091 0.69467 0.69708 0.0
C158 C 0.97395 0.71743 0.69492 0.0
C159 C 0.96981 0.73667 0.71214 0.0
P160 P 0.25048 0.94806 0.75747 0.0
H161 H 0.27172 0.92337 0.8012 0.0
H162 H 0.30032 0.9374 0.83365 0.0
H163 H 0.29058 0.014 0.80876 0.0
H164 H 0.26267 0.9993 0.77511 0.0
H165 H 0.19703 0.93528 0.75458 0.0
H166 H 0.16447 0.94935 0.72554 0.0
H167 H 0.21231 0.01024 0.70152 0.0
H168 H 0.24473 0.99628 0.73108 0.0
H169 H 0.30603 0.95044 0.75838 0.0
H170 H 0.24716 0.94376 0.70265 0.0
O171 O 0.2422 0.91832 0.76262 0.0
H172 H 0.33711 0.95491 0.72485 0.0
H173 H 0.27829 0.94896 0.66915 0.0
C174 C 0.26456 0.96029 0.78594 0.0
C175 C 0.27502 0.9433 0.80313 0.0
C176 C 0.29154 0.95145 0.82186 0.0
C177 C 0.298 0.97695 0.82406 0.0
C178 C 0.28644 0.99418 0.80751 0.0
C179 C 0.27007 0.98588 0.78848 0.0
C180 C 0.22349 0.96454 0.74489 0.0
C181 C 0.20025 0.95219 0.74378 0.0
C182 C 0.18171 0.96008 0.72687 0.0
C183 C 0.18605 0.98048 0.71062 0.0
C184 C 0.20834 0.99441 0.71366 0.0
C185 C 0.22687 0.98654 0.73075 0.0
C186 C 0.27405 0.94781 0.73309 0.0
C187 C 0.29969 0.94989 0.73904 0.0
C188 C 0.31752 0.95227 0.71988 0.0
C189 C 0.30991 0.95266 0.69458 0.0
C190 C 0.28447 0.94908 0.68861 0.0
C191 C 0.26672 0.94624 0.70774 0.0
P192 P 0.06905 0.25419 0.75334 0.0
H193 H 0.08165 0.2574 0.80698 0.0
H194 H 0.06735 0.28572 0.84007 0.0
H195 H 0.00871 0.31303 0.79083 0.0
H196 H 0.02272 0.28401 0.75805 0.0
H197 H 0.08612 0.20254 0.74614 0.0
H198 H 0.07185 0.16988 0.7175 0.0
H199 H 0.00535 0.21334 0.70079 0.0
H200 H 0.01948 0.24572 0.73023 0.0
H201 H 0.07553 0.3089 0.75359 0.0
H202 H 0.06925 0.25012 0.69797 0.0
O203 O 0.09837 0.24684 0.76178 0.0
H204 H 0.07095 0.34038 0.72037 0.0
H205 H 0.06439 0.28148 0.66498 0.0
C206 C 0.05341 0.26869 0.77991 0.0
C207 C 0.06526 0.26893 0.8035 0.0
C208 C 0.05724 0.28543 0.82235 0.0
C209 C 0.03726 0.3022 0.81796 0.0
C210 C 0.02414 0.30044 0.79496 0.0
C211 C 0.03208 0.28373 0.77617 0.0
C212 C 0.0539 0.22667 0.74041 0.0
C213 C 0.06802 0.20473 0.73707 0.0
C214 C 0.06 0.18616 0.7203 0.0
C215 C 0.03778 0.18923 0.70624 0.0
C216 C 0.02256 0.21028 0.71125 0.0
C217 C 0.03053 0.22879 0.72827 0.0
C218 C 0.07121 0.27714 0.7285 0.0
C219 C 0.07329 0.30272 0.73429 0.0
C220 C 0.0709 0.32071 0.7153 0.0
C221 C 0.06668 0.31325 0.69029 0.0
C222 C 0.067 0.28764 0.68426 0.0
C223 C 0.0696 0.26972 0.70319 0.0
P224 P 0.754 0.06451 0.75443 0.0
H225 H 0.72765 0.09272 0.79246 0.0
H226 H 0.70098 0.07991 0.82714 0.0
H227 H 0.72669 0.00354 0.81847 0.0
H228 H 0.75339 0.01672 0.78305 0.0
H229 H 0.80785 0.0757 0.75331 0.0
H230 H 0.84109 0.06166 0.72487 0.0
H231 H 0.79146 0.00462 0.69538 0.0
H232 H 0.75873 0.01814 0.72456 0.0
H233 H 0.74002 0.0891 0.70724 0.0
H234 H 0.71137 0.02942 0.75408 0.0
O235 O 0.7609 0.09503 0.75509 0.0
H236 H 0.70665 0.08076 0.67644 0.0
H237 H 0.67809 0.02156 0.72404 0.0
C238 C 0.74288 0.05579 0.78536 0.0
C239 C 0.72844 0.07338 0.79861 0.0
C240 C 0.713 0.06596 0.81851 0.0
C241 C 0.71145 0.04062 0.8256 0.0
C242 C 0.7272 0.02317 0.81333 0.0
C243 C 0.74283 0.03072 0.79336 0.0
C244 C 0.78061 0.04829 0.74083 0.0
C245 C 0.80438 0.05964 0.74133 0.0
C246 C 0.82329 0.0518 0.72473 0.0
C247 C 0.81877 0.03248 0.70721 0.0
C248 C 0.79567 0.01961 0.70847 0.0
C249 C 0.77684 0.02738 0.72523 0.0
C250 C 0.72795 0.06028 0.73324 0.0
C251 C 0.72632 0.07459 0.71116 0.0
C252 C 0.70727 0.06984 0.69363 0.0
C253 C 0.68983 0.05049 0.69788 0.0
C254 C 0.69141 0.03643 0.72015 0.0
C255 C 0.71038 0.04116 0.73756 0.0
P256 P 0.25292 0.25254 0.94417 0.0
H257 H 0.28359 0.21708 0.91711 0.0
H258 H 0.31134 0.18369 0.93026 0.0
H259 H 0.28337 0.19015 0.00641 0.0
H260 H 0.25529 0.22424 0.99287 0.0
H261 H 0.20589 0.26779 0.92061 0.0
H262 H 0.17334 0.29621 0.93411 0.0
H263 H 0.20261 0.29377 0.01013 0.0
H264 H 0.23656 0.26635 0.99576 0.0
H265 H 0.26979 0.29652 0.91591 0.0
H266 H 0.28548 0.26178 0.98762 0.0
O267 O 0.24943 0.25095 0.91293 0.0
H268 H 0.29996 0.32977 0.92565 0.0
H269 H 0.31604 0.29428 0.99707 0.0
C270 C 0.26687 0.22304 0.95383 0.0
C271 C 0.2826 0.21086 0.9365 0.0
C272 C 0.29869 0.19164 0.94411 0.0
C273 C 0.29975 0.18408 0.96945 0.0
C274 C 0.28323 0.19561 0.98677 0.0
C275 C 0.26689 0.21491 0.979 0.0
C276 C 0.22377 0.26456 0.95713 0.0
C277 C 0.20505 0.27267 0.94039 0.0
C278 C 0.18616 0.28912 0.94825 0.0
C279 C 0.18517 0.29781 0.9733 0.0
C280 C 0.20292 0.28812 0.99055 0.0
C281 C 0.22215 0.27188 0.98248 0.0
C282 C 0.2759 0.2763 0.95073 0.0
C283 C 0.27999 0.29581 0.93355 0.0
C284 C 0.29724 0.31477 0.93912 0.0
C285 C 0.31046 0.31456 0.96207 0.0
C286 C 0.30602 0.29509 0.97932 0.0
C287 C 0.28875 0.27626 0.97377 0.0
P288 P 0.25122 0.75682 0.94577 0.0
H289 H 0.20668 0.73893 0.91981 0.0
H290 H 0.17381 0.71021 0.9329 0.0
H291 H 0.19887 0.71644 0.01007 0.0
H292 H 0.23143 0.74629 0.9968 0.0
H293 H 0.25193 0.81068 0.93535 0.0
H294 H 0.28068 0.84357 0.94925 0.0
H295 H 0.3115 0.79324 0.00507 0.0
H296 H 0.28213 0.76071 0.99154 0.0
H297 H 0.30257 0.75339 0.92697 0.0
H298 H 0.25074 0.70526 0.96689 0.0
O299 O 0.24761 0.76497 0.91561 0.0
H300 H 0.33608 0.72231 0.93345 0.0
H301 H 0.28401 0.67513 0.97389 0.0
C302 C 0.22157 0.74486 0.9573 0.0
C303 C 0.20455 0.73504 0.93972 0.0
C304 C 0.18596 0.71818 0.9472 0.0
C305 C 0.18421 0.7103 0.97242 0.0
C306 C 0.19974 0.72199 0.99047 0.0
C307 C 0.21824 0.73926 0.98295 0.0
C308 C 0.26509 0.7831 0.96214 0.0
C309 C 0.26429 0.80696 0.95113 0.0
C310 C 0.28102 0.82568 0.95889 0.0
C311 C 0.29896 0.82086 0.9778 0.0
C312 C 0.29805 0.79765 0.99041 0.0
C313 C 0.28117 0.77898 0.98271 0.0
C314 C 0.27416 0.73198 0.9467 0.0
C315 C 0.29827 0.73611 0.93678 0.0
C316 C 0.31736 0.71845 0.9405 0.0
C317 C 0.31253 0.69664 0.95446 0.0
C318 C 0.28818 0.69205 0.96339 0.0
C319 C 0.26911 0.70946 0.9594 0.0
P320 P 0.75416 0.2551 0.9431 0.0
H321 H 0.80107 0.27109 0.91979 0.0
H322 H 0.83398 0.29883 0.93382 0.0
H323 H 0.80438 0.29579 0.00968 0.0
H324 H 0.77012 0.26903 0.99483 0.0
H325 H 0.7324 0.21379 0.91483 0.0
H326 H 0.7049 0.17978 0.92686 0.0
H327 H 0.71742 0.19733 0.0054 0.0
H328 H 0.74714 0.23002 0.99302 0.0
H329 H 0.73449 0.297 0.91328 0.0
H330 H 0.72236 0.26548 0.98716 0.0
O331 O 0.75797 0.25356 0.91189 0.0
H332 H 0.70314 0.32935 0.92227 0.0
H333 H 0.69045 0.29656 0.99566 0.0
C334 C 0.78302 0.26761 0.95621 0.0
C335 C 0.80187 0.27574 0.93962 0.0
C336 C 0.82097 0.29176 0.94779 0.0
C337 C 0.82205 0.29998 0.97299 0.0
C338 C 0.80403 0.29042 0.99002 0.0
C339 C 0.7846 0.2746 0.98165 0.0
C340 C 0.74167 0.22499 0.95296 0.0
C341 C 0.73006 0.2099 0.9347 0.0
C342 C 0.71373 0.19061 0.94166 0.0
C343 C 0.70784 0.18632 0.96714 0.0
C344 C 0.72116 0.20008 0.98554 0.0
C345 C 0.73817 0.219 0.97848 0.0
C346 C 0.73034 0.27828 0.94924 0.0
C347 C 0.72482 0.2967 0.93123 0.0
C348 C 0.70683 0.31514 0.93636 0.0
C349 C 0.69421 0.31547 0.95965 0.0
C350 C 0.69998 0.29704 0.97763 0.0
C351 C 0.71807 0.27887 0.97258 0.0
P352 P 0.75575 0.7539 0.06578 0.0
H353 H 0.79375 0.72658 0.09299 0.0
H354 H 0.82742 0.69915 0.07947 0.0
H355 H 0.81678 0.72364 0.00258 0.0
H356 H 0.78224 0.75102 0.0165 0.0
H357 H 0.75389 0.80754 0.07743 0.0
H358 H 0.72509 0.84034 0.06346 0.0
H359 H 0.69684 0.79097 0.00544 0.0
H360 H 0.72635 0.75863 0.01897 0.0
H361 H 0.70835 0.74388 0.09174 0.0
H362 H 0.75269 0.70964 0.03291 0.0
O363 O 0.75815 0.76142 0.09623 0.0
H364 H 0.67525 0.71254 0.08483 0.0
H365 H 0.7203 0.67845 0.02639 0.0
C366 C 0.78573 0.7413 0.05588 0.0
C367 C 0.79922 0.72687 0.07333 0.0
C368 C 0.81855 0.711 0.0655 0.0
C369 C 0.82493 0.70899 0.03986 0.0
C370 C 0.81224 0.72449 0.02245 0.0
C371 C 0.79278 0.74052 0.0304 0.0
C372 C 0.74213 0.78044 0.0495 0.0
C373 C 0.74211 0.80403 0.06117 0.0
C374 C 0.72529 0.82269 0.05338 0.0
C375 C 0.70802 0.81813 0.03377 0.0
C376 C 0.70973 0.79523 0.02064 0.0
C377 C 0.72671 0.77664 0.02836 0.0
C378 C 0.73322 0.7289 0.06321 0.0
C379 C 0.71123 0.72936 0.07778 0.0
C380 C 0.69238 0.7115 0.07382 0.0
C381 C 0.69523 0.69319 0.055 0.0
C382 C 0.7175 0.69253 0.04084 0.0
C383 C 0.73622 0.7103 0.04479 0.0
P384 P 0.43665 0.75417 0.75431 0.0
H385 H 0.42113 0.75903 0.70159 0.0
H386 H 0.4355 0.78733 0.66857 0.0
H387 H 0.50027 0.80665 0.71371 0.0
H388 H 0.4861 0.7777 0.7464 0.0
H389 H 0.41145 0.71054 0.77509 0.0
H390 H 0.42556 0.67791 0.80341 0.0
H391 H 0.50256 0.7017 0.79252 0.0
H392 H 0.48787 0.73541 0.76491 0.0
H393 H 0.43726 0.80909 0.75224 0.0
H394 H 0.43926 0.75186 0.80986 0.0
O395 O 0.40622 0.7504 0.74756 0.0
H396 H 0.44676 0.84091 0.78404 0.0
H397 H 0.44778 0.78391 0.84162 0.0
C398 C 0.45239 0.76633 0.72664 0.0
C399 C 0.4389 0.76863 0.70407 0.0
C400 C 0.44697 0.78517 0.68529 0.0
C401 C 0.46865 0.79992 0.68876 0.0
C402 C 0.48347 0.79569 0.71035 0.0
C403 C 0.47546 0.77892 0.72905 0.0
C404 C 0.4486 0.72526 0.76743 0.0
C405 C 0.43147 0.7083 0.77805 0.0
C406 C 0.43965 0.6895 0.79443 0.0
C407 C 0.46529 0.68705 0.80057 0.0
C408 C 0.48262 0.70321 0.78867 0.0
C409 C 0.47432 0.72227 0.77245 0.0
C410 C 0.43879 0.77789 0.7784 0.0
C411 C 0.43961 0.80331 0.77165 0.0
C412 C 0.44485 0.82151 0.78976 0.0
C413 C 0.4483 0.81459 0.81499 0.0
C414 C 0.44535 0.78948 0.82214 0.0
C415 C 0.44062 0.7712 0.80393 0.0
P416 P 0.25602 0.43967 0.7524 0.0
H417 H 0.22511 0.41194 0.71763 0.0
H418 H 0.19711 0.42452 0.684 0.0
H419 H 0.22624 0.50001 0.68812 0.0
H420 H 0.2545 0.48708 0.7224 0.0
H421 H 0.30414 0.41826 0.76747 0.0
H422 H 0.33657 0.43338 0.79542 0.0
H423 H 0.30389 0.50759 0.79292 0.0
H424 H 0.27024 0.49163 0.76591 0.0
H425 H 0.23957 0.41285 0.79763 0.0
H426 H 0.22166 0.48193 0.75934 0.0
O427 O 0.26027 0.40866 0.75162 0.0
H428 H 0.20846 0.42281 0.83015 0.0
H429 H 0.1902 0.49149 0.79101 0.0
C430 C 0.24233 0.44841 0.72241 0.0
C431 C 0.22629 0.43102 0.71078 0.0
C432 C 0.21008 0.4383 0.69146 0.0
C433 C 0.20924 0.46333 0.68327 0.0
C434 C 0.2262 0.4806 0.69411 0.0
C435 C 0.24264 0.47318 0.7135 0.0
C436 C 0.28466 0.45376 0.76426 0.0
C437 C 0.3042 0.43798 0.77224 0.0
C438 C 0.32299 0.44678 0.7884 0.0
C439 C 0.32298 0.47179 0.79692 0.0
C440 C 0.30435 0.48808 0.78735 0.0
C441 C 0.28529 0.4791 0.77138 0.0
C442 C 0.23248 0.44631 0.77571 0.0
C443 C 0.2287 0.42994 0.79599 0.0
C444 C 0.21091 0.43562 0.81451 0.0
C445 C 0.19682 0.45789 0.81307 0.0
C446 C 0.20089 0.4743 0.79279 0.0
C447 C 0.21871 0.46866 0.77443 0.0
P448 P 0.55916 0.25643 0.75275 0.0
H449 H 0.57133 0.25271 0.69907 0.0
H450 H 0.55739 0.22315 0.66689 0.0
H451 H 0.49819 0.19768 0.71637 0.0
H452 H 0.51204 0.22769 0.74841 0.0
H453 H 0.58604 0.29832 0.77445 0.0
H454 H 0.57303 0.33212 0.80187 0.0
H455 H 0.49512 0.31359 0.78784 0.0
H456 H 0.50865 0.27879 0.76069 0.0
H457 H 0.57511 0.20435 0.75551 0.0
H458 H 0.54054 0.25831 0.80538 0.0
O459 O 0.58933 0.25965 0.74467 0.0
H460 H 0.56949 0.17174 0.78756 0.0
H461 H 0.53517 0.22612 0.8371 0.0
C462 C 0.5429 0.24234 0.7263 0.0
C463 C 0.55484 0.24138 0.70276 0.0
C464 C 0.54705 0.22416 0.68445 0.0
C465 C 0.52708 0.20751 0.68925 0.0
C466 C 0.51368 0.21013 0.712 0.0
C467 C 0.52151 0.22742 0.73034 0.0
C468 C 0.54836 0.28625 0.76498 0.0
C469 C 0.56611 0.30201 0.77642 0.0
C470 C 0.55857 0.32146 0.7923 0.0
C471 C 0.53294 0.32576 0.79731 0.0
C472 C 0.51504 0.31073 0.78473 0.0
C473 C 0.5227 0.29108 0.76878 0.0
C474 C 0.55804 0.23373 0.77781 0.0
C475 C 0.56666 0.20928 0.77341 0.0
C476 C 0.5635 0.19071 0.79171 0.0
C477 C 0.55163 0.1964 0.81466 0.0
C478 C 0.54397 0.22114 0.81938 0.0
C479 C 0.54714 0.23964 0.80114 0.0
P480 P 0.75177 0.43945 0.75418 0.0
H481 H 0.71688 0.41308 0.78603 0.0
H482 H 0.68325 0.4267 0.81347 0.0
H483 H 0.688 0.50126 0.78203 0.0
H484 H 0.72234 0.48727 0.75438 0.0
H485 H 0.76762 0.41626 0.70711 0.0
H486 H 0.79568 0.43029 0.67431 0.0
H487 H 0.79205 0.50578 0.70384 0.0
H488 H 0.76502 0.49094 0.73798 0.0
H489 H 0.79594 0.41196 0.77212 0.0
H490 H 0.75989 0.48298 0.78664 0.0
O491 O 0.75052 0.40835 0.7508 0.0
H492 H 0.82851 0.42222 0.80305 0.0
H493 H 0.7917 0.49295 0.81791 0.0
C494 C 0.72199 0.44897 0.7677 0.0
C495 C 0.7102 0.43217 0.78424 0.0
C496 C 0.69086 0.44006 0.80013 0.0
C497 C 0.68279 0.46514 0.80012 0.0
C498 C 0.69388 0.48184 0.78273 0.0
C499 C 0.71331 0.4738 0.76663 0.0
C500 C 0.76383 0.45251 0.72508 0.0
C501 C 0.77217 0.43601 0.70627 0.0
C502 C 0.78839 0.44418 0.68725 0.0
C503 C 0.79661 0.46926 0.68626 0.0
C504 C 0.78672 0.48621 0.70415 0.0
C505 C 0.77071 0.47786 0.72349 0.0
C506 C 0.77515 0.44642 0.77754 0.0
C507 C 0.79481 0.42957 0.7822 0.0
C508 C 0.81336 0.43543 0.7999 0.0
C509 C 0.81258 0.45835 0.81299 0.0
C510 C 0.79295 0.47524 0.80799 0.0
C511 C 0.77453 0.4694 0.79029 0.0
P512 P 0.44855 0.25547 0.25541 0.0
H513 H 0.43672 0.25465 0.30927 0.0
H514 H 0.4503 0.2261 0.34252 0.0
H515 H 0.50888 0.19783 0.29376 0.0
H516 H 0.49582 0.22714 0.26102 0.0
H517 H 0.42005 0.29237 0.22796 0.0
H518 H 0.4323 0.32638 0.20039 0.0
H519 H 0.50949 0.31818 0.22455 0.0
H520 H 0.49685 0.28334 0.25217 0.0
H521 H 0.42398 0.20757 0.24548 0.0
H522 H 0.48254 0.2525 0.2118 0.0
O523 O 0.41801 0.25681 0.26262 0.0
H524 H 0.43227 0.17432 0.21466 0.0
H525 H 0.49048 0.21986 0.18107 0.0
C526 C 0.46493 0.2428 0.28244 0.0
C527 C 0.45306 0.24297 0.30602 0.0
C528 C 0.46063 0.2263 0.32493 0.0
C529 C 0.48018 0.209 0.32059 0.0
C530 C 0.49368 0.21072 0.29782 0.0
C531 C 0.48621 0.22758 0.27899 0.0
C532 C 0.45742 0.28556 0.24256 0.0
C533 C 0.43949 0.29842 0.22815 0.0
C534 C 0.44659 0.31796 0.21221 0.0
C535 C 0.47195 0.32512 0.21007 0.0
C536 C 0.48982 0.31303 0.22553 0.0
C537 C 0.4826 0.29339 0.24166 0.0
C538 C 0.45222 0.23275 0.23067 0.0
C539 C 0.4382 0.21052 0.23117 0.0
C540 C 0.44296 0.19157 0.21363 0.0
C541 C 0.46208 0.19453 0.19558 0.0
C542 C 0.47582 0.21697 0.19495 0.0
C543 C 0.47104 0.23584 0.21241 0.0
P544 P 0.7524 0.56481 0.25485 0.0
H545 H 0.71283 0.59291 0.23018 0.0
H546 H 0.67873 0.58037 0.20284 0.0
H547 H 0.69108 0.50291 0.22319 0.0
H548 H 0.72606 0.51579 0.25041 0.0
H549 H 0.7658 0.58742 0.30309 0.0
H550 H 0.79355 0.57362 0.3363 0.0
H551 H 0.79381 0.49888 0.30461 0.0
H552 H 0.76733 0.51366 0.27004 0.0
H553 H 0.7504 0.54102 0.20433 0.0
H554 H 0.80631 0.57357 0.25353 0.0
O555 O 0.75194 0.59593 0.25811 0.0
H556 H 0.78289 0.53046 0.17409 0.0
H557 H 0.83911 0.56289 0.22295 0.0
C558 C 0.72193 0.5554 0.24281 0.0
C559 C 0.70774 0.57328 0.22963 0.0
C560 C 0.6881 0.56601 0.21379 0.0
C561 C 0.68207 0.54055 0.21054 0.0
C562 C 0.69536 0.52267 0.22493 0.0
C563 C 0.71514 0.53004 0.2409 0.0
C564 C 0.76414 0.55159 0.28402 0.0
C565 C 0.77118 0.56786 0.30354 0.0
C566 C 0.78721 0.55981 0.32279 0.0
C567 C 0.79644 0.53505 0.32332 0.0
C568 C 0.78773 0.51824 0.3047 0.0
C569 C 0.77199 0.5265 0.28512 0.0
C570 C 0.77591 0.55789 0.23148 0.0
C571 C 0.7696 0.54585 0.20883 0.0
C572 C 0.78825 0.53971 0.19145 0.0
C573 C 0.81351 0.54566 0.19629 0.0
C574 C 0.81975 0.55818 0.21872 0.0
C575 C 0.80106 0.56421 0.23619 0.0
P576 P 0.56485 0.75295 0.25603 0.0
H577 H 0.59198 0.77753 0.2964 0.0
H578 H 0.57853 0.80487 0.33016 0.0
H579 H 0.5011 0.78509 0.31545 0.0
H580 H 0.5149 0.75783 0.2809 0.0
H581 H 0.58728 0.70486 0.24254 0.0
H582 H 0.57343 0.67207 0.21441 0.0
H583 H 0.49876 0.70429 0.21351 0.0
H584 H 0.51362 0.73844 0.24029 0.0
H585 H 0.54128 0.80336 0.25701 0.0
H586 H 0.57552 0.75399 0.20233 0.0
O587 O 0.59599 0.74926 0.25751 0.0
H588 H 0.53141 0.83307 0.22391 0.0
H589 H 0.56552 0.78405 0.16889 0.0
C590 C 0.55455 0.76516 0.28619 0.0
C591 C 0.57214 0.77821 0.30091 0.0
C592 C 0.56435 0.79406 0.32034 0.0
C593 C 0.53866 0.79745 0.32559 0.0
C594 C 0.52104 0.78322 0.31177 0.0
C595 C 0.52893 0.76724 0.29222 0.0
C596 C 0.55148 0.72413 0.24393 0.0
C597 C 0.56772 0.70461 0.23694 0.0
C598 C 0.55964 0.68562 0.22069 0.0
C599 C 0.5349 0.68536 0.21118 0.0
C600 C 0.51811 0.704 0.21981 0.0
C601 C 0.52641 0.72332 0.23575 0.0
C602 C 0.55893 0.77616 0.23216 0.0
C603 C 0.54667 0.79873 0.23796 0.0
C604 C 0.54093 0.81581 0.21895 0.0
C605 C 0.54747 0.81072 0.19384 0.0
C606 C 0.56034 0.78844 0.18813 0.0
C607 C 0.56599 0.77127 0.20718 0.0
P608 P 0.25529 0.56697 0.25632 0.0
H609 H 0.22392 0.59443 0.29079 0.0
H610 H 0.19551 0.58171 0.32395 0.0
H611 H 0.22467 0.50622 0.31985 0.0
H612 H 0.25331 0.51929 0.28594 0.0
H613 H 0.30299 0.58895 0.24094 0.0
H614 H 0.33547 0.57414 0.21293 0.0
H615 H 0.30413 0.4994 0.21633 0.0
H616 H 0.2704 0.51502 0.2434 0.0
H617 H 0.23694 0.59529 0.21271 0.0
H618 H 0.22322 0.52343 0.24741 0.0
O619 O 0.25938 0.598 0.2574 0.0
H620 H 0.20583 0.58551 0.18014 0.0
H621 H 0.19188 0.51389 0.21555 0.0
C622 C 0.24119 0.55799 0.28603 0.0
C623 C 0.225 0.57531 0.29753 0.0
C624 C 0.20855 0.56794 0.3166 0.0
C625 C 0.20763 0.54288 0.32468 0.0
C626 C 0.22468 0.52564 0.31393 0.0
C627 C 0.24134 0.53315 0.29476 0.0
C628 C 0.28413 0.55316 0.2446 0.0
C629 C 0.30336 0.56919 0.23637 0.0
C630 C 0.3222 0.56057 0.22018 0.0
C631 C 0.32256 0.53549 0.21188 0.0
C632 C 0.30429 0.51897 0.22172 0.0
C633 C 0.28517 0.52777 0.23773 0.0
C634 C 0.23199 0.56033 0.2328 0.0
C635 C 0.22704 0.57757 0.21352 0.0
C636 C 0.20925 0.57199 0.19498 0.0
C637 C 0.19637 0.54897 0.19538 0.0
C638 C 0.20164 0.53169 0.21462 0.0
C639 C 0.2194 0.53726 0.23304 0.0
P640 P 0.7524 0.75408 0.44703 0.0
H641 H 0.75634 0.70187 0.43076 0.0
H642 H 0.78422 0.66812 0.44394 0.0
H643 H 0.80672 0.71176 0.50869 0.0
H644 H 0.77795 0.74486 0.49609 0.0
H645 H 0.70952 0.77353 0.4194 0.0
H646 H 0.67591 0.80171 0.43146 0.0
H647 H 0.69721 0.79374 0.50965 0.0
H648 H 0.72981 0.76365 0.49741 0.0
H649 H 0.78723 0.77838 0.41149 0.0
H650 H 0.76679 0.78575 0.48984 0.0
O651 O 0.7497 0.74763 0.41635 0.0
H652 H 0.81701 0.81294 0.41619 0.0
H653 H 0.7974 0.81856 0.4951 0.0
C654 C 0.76543 0.72641 0.46196 0.0
C655 C 0.76671 0.70399 0.44819 0.0
C656 C 0.78298 0.68474 0.45559 0.0
C657 C 0.79846 0.6875 0.47692 0.0
C658 C 0.79531 0.70897 0.49203 0.0
C659 C 0.77882 0.72815 0.4847 0.0
C660 C 0.72251 0.76658 0.45744 0.0
C661 C 0.70648 0.77699 0.43926 0.0
C662 C 0.68746 0.79364 0.44618 0.0
C663 C 0.68436 0.80091 0.47147 0.0
C664 C 0.69909 0.78883 0.48995 0.0
C665 C 0.71786 0.77162 0.48297 0.0
C666 C 0.77467 0.77933 0.45029 0.0
C667 C 0.7892 0.78724 0.42973 0.0
C668 C 0.80639 0.80691 0.4325 0.0
C669 C 0.80958 0.81871 0.45601 0.0
C670 C 0.79508 0.81046 0.47653 0.0
C671 C 0.77766 0.79127 0.4736 0.0
P672 P 0.74987 0.25549 0.45537 0.0
H673 H 0.69633 0.25453 0.44286 0.0
H674 H 0.6628 0.22619 0.45591 0.0
H675 H 0.71054 0.19726 0.51501 0.0
H676 H 0.74344 0.22638 0.50263 0.0
H677 H 0.77479 0.29449 0.42729 0.0
H678 H 0.80249 0.32823 0.43977 0.0
H679 H 0.78335 0.31535 0.51785 0.0
H680 H 0.75547 0.28087 0.50494 0.0
H681 H 0.77112 0.21802 0.42079 0.0
H682 H 0.78473 0.24443 0.49641 0.0
O683 O 0.74248 0.2579 0.42488 0.0
H684 H 0.80565 0.18813 0.42515 0.0
H685 H 0.81791 0.21382 0.50151 0.0
C686 C 0.72279 0.24225 0.47126 0.0
C687 C 0.69936 0.24268 0.45914 0.0
C688 C 0.68026 0.22615 0.46642 0.0
C689 C 0.68421 0.20874 0.48598 0.0
C690 C 0.70679 0.21019 0.49974 0.0
C691 C 0.72582 0.22691 0.49255 0.0
C692 C 0.76264 0.28533 0.46511 0.0
C693 C 0.77569 0.29943 0.44706 0.0
C694 C 0.79172 0.31883 0.45428 0.0
C695 C 0.79534 0.3246 0.47987 0.0
C696 C 0.78123 0.31127 0.49797 0.0
C697 C 0.765 0.29178 0.49063 0.0
C698 C 0.77545 0.23362 0.45819 0.0
C699 C 0.78148 0.21739 0.43833 0.0
C700 C 0.8011 0.20014 0.44095 0.0
C701 C 0.81469 0.19857 0.46367 0.0
C702 C 0.80836 0.21485 0.48352 0.0
C703 C 0.78914 0.23231 0.48069 0.0
P704 P 0.25172 0.75139 0.44108 0.0
H705 H 0.30449 0.7567 0.42623 0.0
H706 H 0.33685 0.78618 0.43978 0.0
H707 H 0.29013 0.80855 0.50243 0.0
H708 H 0.25789 0.77865 0.48891 0.0
H709 H 0.22979 0.70895 0.4152 0.0
H710 H 0.20247 0.67559 0.42948 0.0
H711 H 0.21856 0.69528 0.50684 0.0
H712 H 0.2456 0.72957 0.49207 0.0
H713 H 0.24833 0.80402 0.42699 0.0
H714 H 0.19951 0.74853 0.46055 0.0
O715 O 0.25848 0.74829 0.41052 0.0
H716 H 0.21646 0.8363 0.43496 0.0
H717 H 0.16812 0.78046 0.46846 0.0
C718 C 0.27863 0.76551 0.45643 0.0
C719 C 0.30147 0.76733 0.44334 0.0
C720 C 0.31988 0.78449 0.45093 0.0
C721 C 0.31586 0.80023 0.47184 0.0
C722 C 0.29387 0.79679 0.48622 0.0
C723 C 0.27543 0.77956 0.47859 0.0
C724 C 0.24022 0.72156 0.45251 0.0
C725 C 0.22832 0.70557 0.43526 0.0
C726 C 0.21249 0.68639 0.44354 0.0
C727 C 0.20802 0.68265 0.46939 0.0
C728 C 0.22122 0.69777 0.48677 0.0
C729 C 0.23712 0.71711 0.47839 0.0
C730 C 0.22662 0.77391 0.4435 0.0
C731 C 0.23072 0.7987 0.43574 0.0
C732 C 0.21253 0.81708 0.44024 0.0
C733 C 0.19006 0.81084 0.45264 0.0
C734 C 0.18553 0.7858 0.45929 0.0
C735 C 0.2036 0.76748 0.45471 0.0
P736 P 0.25331 0.25425 0.56638 0.0
H737 H 0.30559 0.24755 0.58214 0.0
H738 H 0.33792 0.21886 0.5672 0.0
H739 H 0.29275 0.20208 0.50169 0.0
H740 H 0.26068 0.23147 0.51648 0.0
H741 H 0.24918 0.30738 0.57963 0.0
H742 H 0.2205 0.3401 0.56537 0.0
H743 H 0.194 0.29127 0.50608 0.0
H744 H 0.22331 0.25886 0.52007 0.0
H745 H 0.25834 0.19932 0.56742 0.0
H746 H 0.19834 0.25365 0.5726 0.0
O747 O 0.26125 0.26258 0.59564 0.0
H748 H 0.22751 0.16587 0.56272 0.0
H749 H 0.1674 0.21999 0.56816 0.0
C750 C 0.28063 0.24171 0.55047 0.0
C751 C 0.30298 0.23848 0.56408 0.0
C752 C 0.32135 0.22171 0.55568 0.0
C753 C 0.31765 0.20758 0.53359 0.0
C754 C 0.29626 0.21259 0.51878 0.0
C755 C 0.27793 0.22959 0.52714 0.0
C756 C 0.23831 0.28056 0.55104 0.0
C757 C 0.23773 0.30392 0.56312 0.0
C758 C 0.22104 0.32255 0.55512 0.0
C759 C 0.20444 0.31816 0.53494 0.0
C760 C 0.20649 0.29539 0.52165 0.0
C761 C 0.22336 0.27681 0.52958 0.0
C762 C 0.23068 0.22921 0.56882 0.0
C763 C 0.23858 0.20415 0.56758 0.0
C764 C 0.22097 0.18496 0.56505 0.0
C765 C 0.19518 0.1905 0.56445 0.0
C766 C 0.18722 0.21531 0.56832 0.0
C767 C 0.2049 0.23454 0.57063 0.0
C768 C 0.00214 0.94458 0.5648 0.0
C769 C 0.00409 0.9445 0.44169 0.0
C770 C 0.00668 0.06571 0.5642 0.0
C771 C 0.00752 0.06546 0.44129 0.0
C772 C 0.94595 0.06771 0.49886 0.0
C773 C 0.94153 0.94685 0.49772 0.0
C774 C 0.06733 0.06323 0.50887 0.0
C775 C 0.06308 0.94217 0.50037 0.0
C776 C 0.0656 1.00045 0.44213 0.0
C777 C 0.94409 0.00547 0.44121 0.0
C778 C 0.06446 0.00238 0.56513 0.0
C779 C 0.94305 0.00735 0.56416 0.0
Eu780 Eu 0.00264 0.95724 0.50329 0.0
O781 O 0.98177 0.98375 0.48105 0.0
O782 O 0.02601 0.98164 0.52568 0.0
Eu783 Eu 0.95664 0.00678 0.50277 0.0
Eu784 Eu 0.05223 0.00322 0.50345 0.0
O785 O 0.98055 0.98312 0.52545 0.0
O786 O 0.02579 0.98214 0.48148 0.0
Eu787 Eu 0.00388 0.00498 0.55024 0.0
Eu788 Eu 0.0049 0.00505 0.4558 0.0
O789 O 0.98259 0.0285 0.52507 0.0
O790 O 0.98305 0.02809 0.48064 0.0
O791 O 0.02849 0.02699 0.48049 0.0
O792 O 0.02692 0.02614 0.52489 0.0
Eu793 Eu 0.00625 0.05274 0.5027 0.0
O794 O 1.00115 0.93643 0.54094 0.0
O795 O 0.0041 0.93645 0.4656 0.0
O796 O 0.00599 0.07371 0.54028 0.0
O797 O 0.00781 0.07359 0.46515 0.0
O798 O 0.93715 0.0444 0.50098 0.0
O799 O 0.93464 0.97085 0.49884 0.0
O800 O 0.07421 0.03919 0.50778 0.0
O801 O 0.07165 0.96565 0.50139 0.0
O802 O 0.04162 0.00137 0.43488 0.0
O803 O 0.9682 0.00517 0.4342 0.0
O804 O 0.04039 0.00405 0.57197 0.0
O805 O 0.96706 0.00657 0.57143 0.0
O806 O 0.04398 0.07205 0.50628 0.0
O807 O 0.97005 0.07464 0.49904 0.0
O808 O 0.03898 0.93525 0.50155 0.0
O809 O 0.96488 0.93793 0.49984 0.0
O810 O 0.00371 0.96843 0.43445 0.0
O811 O 0.00664 0.0415 0.43418 0.0
O812 O 0.00339 0.96853 0.57188 0.0
O813 O 0.00617 0.04173 0.57138 0.0
O814 O 0.93521 0.00737 0.54017 0.0
O815 O 0.93595 0.00646 0.46506 0.0
O816 O 0.07273 0.00132 0.5413 0.0
O817 O 0.07362 0.00198 0.46601 0.0
C818 C 0.50679 0.94156 0.06378 0.0
C819 C 0.50185 0.06296 0.06579 0.0
C820 C 0.50169 0.94338 0.94185 0.0
C821 C 0.51016 0.06454 0.94368 0.0
C822 C 0.5665 0.00391 0.94335 0.0
C823 C 0.56572 0.00175 0.06494 0.0
C824 C 0.44377 0.00541 0.94265 0.0
C825 C 0.44301 0.00186 0.06422 0.0
C826 C 0.4439 0.06461 0.00309 0.0
C827 C 0.56661 0.06324 0.00251 0.0
C828 C 0.44275 0.94348 0.00203 0.0
C829 C 0.56564 0.942 0.00505 0.0
Eu830 Eu 0.50445 0.00248 0.05162 0.0
O831 O 0.52725 0.02536 0.02695 0.0
O832 O 0.4821 0.98064 0.02579 0.0
Eu833 Eu 0.5519 0.00273 0.00404 0.0
Eu834 Eu 0.4576 0.00398 0.00354 0.0
O835 O 0.52632 0.98052 0.02574 0.0
O836 O 0.48276 0.02558 0.02644 0.0
Eu837 Eu 0.50433 0.95549 0.00301 0.0
Eu838 Eu 0.5052 0.05105 0.0045 0.0
O839 O 0.52717 0.98058 0.98069 0.0
O840 O 0.52676 0.02526 0.9822 0.0
O841 O 0.48284 0.02645 0.98123 0.0
O842 O 0.48267 0.98167 0.9811 0.0
Eu843 Eu 0.50503 0.00386 0.95582 0.0
O844 O 0.50648 0.96526 0.07184 0.0
O845 O 0.50258 0.03902 0.07309 0.0
O846 O 0.5027 0.96727 0.93447 0.0
O847 O 0.5079 0.04098 0.93552 0.0
O848 O 0.57354 0.00253 0.96742 0.0
O849 O 0.57309 0.0029 0.04095 0.0
O850 O 0.43638 0.00565 0.96666 0.0
O851 O 0.43598 0.00379 0.04018 0.0
O852 O 0.46785 0.07238 0.00208 0.0
O853 O 0.54295 0.07158 0.00468 0.0
O854 O 0.46651 0.93515 0.00262 0.0
O855 O 0.54172 0.93419 0.00378 0.0
O856 O 0.46763 0.0046 0.93465 0.0
O857 O 0.54271 0.00457 0.93511 0.0
O858 O 0.4668 1.00038 0.07237 0.0
O859 O 0.54182 0.00136 0.07286 0.0
O860 O 0.50298 0.07108 0.04201 0.0
O861 O 0.50926 0.07198 0.96768 0.0
O862 O 0.50536 0.93416 0.0398 0.0
O863 O 0.50278 0.93525 0.96562 0.0
O864 O 0.57292 0.96593 0.00525 0.0
O865 O 0.57347 0.03919 0.00191 0.0
O866 O 0.43592 0.96755 0.00216 0.0
O867 O 0.43654 0.04076 0.00446 0.0
C868 C 0.00409 0.44308 0.06545 0.0
C869 C 0.00682 0.44249 0.94354 0.0
C870 C 0.0059 0.56554 0.06441 0.0
C871 C 0.00433 0.56496 0.94251 0.0
C872 C 0.94368 0.56502 0.00438 0.0
C873 C 0.94401 0.44281 0.00328 0.0
C874 C 0.06499 0.56539 1.00131 0.0
C875 C 0.06566 0.44301 0.00382 0.0
C876 C 0.06579 0.50049 0.94311 0.0
C877 C 0.94401 0.50042 0.94277 0.0
C878 C 0.06572 0.50762 0.06473 0.0
C879 C 0.94379 0.50628 0.06483 0.0
Eu880 Eu 0.00484 0.45689 0.00453 0.0
O881 O 0.98269 0.48185 0.98176 0.0
O882 O 0.0276 0.48179 0.02697 0.0
Eu883 Eu 0.95692 0.50391 0.00378 0.0
Eu884 Eu 0.05246 0.50416 0.00391 0.0
O885 O 0.98212 0.48188 0.02676 0.0
O886 O 0.02679 0.48211 0.98198 0.0
Eu887 Eu 0.00478 0.50416 0.05195 0.0
Eu888 Eu 0.00483 0.50379 0.9559 0.0
O889 O 0.98245 0.52597 0.02609 0.0
O890 O 0.98192 0.52616 0.98085 0.0
O891 O 0.02725 0.52622 0.98107 0.0
O892 O 0.02674 0.52614 0.02601 0.0
Eu893 Eu 0.00443 0.55103 0.00342 0.0
O894 O 0.00433 0.4359 0.0414 0.0
O895 O 0.0061 0.43548 0.96769 0.0
O896 O 0.00552 0.5725 0.04024 0.0
O897 O 0.00411 0.57208 0.96658 0.0
O898 O 0.93571 0.54121 0.00447 0.0
O899 O 0.936 0.46657 0.00287 0.0
O900 O 0.07327 0.54168 0.0021 0.0
O901 O 0.07359 0.46682 0.00322 0.0
O902 O 0.042 0.50184 0.93516 0.0
O903 O 0.96791 0.50082 0.93514 0.0
O904 O 0.04194 0.50611 0.0727 0.0
O905 O 0.96765 0.5059 0.07266 0.0
O906 O 0.04094 0.57241 0.00182 0.0
O907 O 0.96767 0.57229 0.0038 0.0
O908 O 0.04171 0.43564 0.00496 0.0
O909 O 0.968 0.43548 0.00426 0.0
O910 O 0.00636 0.46623 0.93536 0.0
O911 O 0.00453 0.54111 0.93452 0.0
O912 O 0.00427 0.46692 0.07338 0.0
O913 O 0.00553 0.54178 0.0726 0.0
O914 O 0.93609 0.50516 0.04091 0.0
O915 O 0.93615 0.50226 0.9666 0.0
O916 O 0.0733 0.50682 0.04079 0.0
O917 O 0.07334 0.50151 0.96704 0.0
C918 C 0.50171 0.44427 0.06502 0.0
C919 C 0.50284 0.56536 0.06653 0.0
C920 C 0.50302 0.44614 0.94198 0.0
C921 C 0.50169 0.56747 0.94383 0.0
C922 C 0.56328 0.50521 0.94304 0.0
C923 C 0.56227 0.50634 0.06609 0.0
C924 C 0.44167 0.50512 0.94247 0.0
C925 C 0.44071 0.5059 0.06532 0.0
C926 C 0.44186 0.56707 1.00029 0.0
C927 C 0.56298 0.5662 0.00954 0.0
C928 C 0.44076 0.44569 1.00098 0.0
C929 C 0.56284 0.44514 1.00091 0.0
Eu930 Eu 0.50153 0.50493 0.05165 0.0
O931 O 0.52382 0.52718 0.02656 0.0
O932 O 0.47909 0.48298 0.02616 0.0
Eu933 Eu 0.54978 0.50572 0.00448 0.0
Eu934 Eu 0.45426 0.50616 0.004 0.0
O935 O 0.5245 0.4828 0.02656 0.0
O936 O 0.47934 0.52821 0.02695 0.0
Eu937 Eu 0.50189 0.45809 0.00372 0.0
Eu938 Eu 0.50227 0.55338 0.00492 0.0
O939 O 0.52411 0.48404 0.98208 0.0
O940 O 0.52519 0.52893 0.98194 0.0
O941 O 0.48003 0.52844 0.98225 0.0
O942 O 0.48005 0.48419 0.98179 0.0
Eu943 Eu 0.50242 0.50669 0.95673 0.0
O944 O 0.50242 0.4681 0.07255 0.0
O945 O 0.50146 0.54139 0.07362 0.0
O946 O 0.50198 0.47014 0.93495 0.0
O947 O 0.5025 0.54373 0.936 0.0
O948 O 0.57113 0.50529 0.96703 0.0
O949 O 0.57047 0.50627 0.04223 0.0
O950 O 0.43361 0.50383 0.96633 0.0
O951 O 0.43294 0.50784 0.0414 0.0
O952 O 0.46562 0.5745 0.00326 0.0
O953 O 0.53919 0.57399 0.00793 0.0
O954 O 0.46459 0.43775 1.00101 0.0
O955 O 0.53901 0.43731 0.0019 0.0
O956 O 0.46561 0.50716 0.93522 0.0
O957 O 0.53932 0.50593 0.93563 0.0
O958 O 0.46458 0.5038 0.07276 0.0
O959 O 0.53823 0.5056 0.07326 0.0
O960 O 0.50335 0.57365 0.04275 0.0
O961 O 0.50157 0.57502 0.96787 0.0
O962 O 0.50093 0.43655 0.04102 0.0
O963 O 0.50354 0.43785 0.96579 0.0
O964 O 0.57051 0.46891 0.00233 0.0
O965 O 0.5707 0.54246 0.00778 0.0
O966 O 0.43322 0.46947 0.00285 0.0
O967 O 0.43394 0.5433 1.0001 0.0
C968 C 0.00932 0.44135 0.56391 0.0
C969 C 0.99824 0.44443 0.4423 0.0
C970 C 0.99918 0.56243 0.56755 0.0
C971 C 0.00802 0.56536 0.44555 0.0
C972 C 0.94094 0.56376 0.50375 0.0
C973 C 0.94149 0.44266 0.50574 0.0
C974 C 0.06367 0.56422 0.50525 0.0
C975 C 0.06397 0.4429 0.50418 0.0
C976 C 0.06367 0.5054 0.44379 0.0
C977 C 0.94095 0.50585 0.44454 0.0
C978 C 0.06428 0.5014 0.56551 0.0
C979 C 0.94152 0.50061 0.56614 0.0
Eu980 Eu 0.00272 0.45582 0.50354 0.0
O981 O 0.98042 0.48175 0.48208 0.0
O982 O 0.02447 0.48102 0.52626 0.0
Eu983 Eu 0.95536 0.50323 0.50529 0.0
Eu984 Eu 0.0498 0.50358 0.50476 0.0
O985 O 0.98043 0.48013 0.52716 0.0
O986 O 0.0251 0.48142 0.48135 0.0
Eu987 Eu 0.00278 0.50208 0.55293 0.0
Eu988 Eu 0.00236 0.50464 0.45703 0.0
O989 O 0.98052 0.52507 0.5281 0.0
O990 O 0.98012 0.52638 0.48307 0.0
O991 O 0.0242 0.52602 0.48336 0.0
O992 O 0.02496 0.52553 0.5282 0.0
Eu993 Eu 0.00239 0.55111 0.50613 0.0
O994 O 0.0076 0.43426 0.53985 0.0
O995 O 0.99988 0.43611 0.46596 0.0
O996 O 1.00017 0.57074 0.54383 0.0
O997 O 0.00622 0.57263 0.46956 0.0
O998 O 0.93392 0.53977 0.50463 0.0
O999 O 0.93415 0.46656 0.50618 0.0
O1000 O 0.07106 0.54033 0.50521 0.0
O1001 O 0.07107 0.46687 0.50513 0.0
O1002 O 0.03977 0.50523 0.43581 0.0
O1003 O 0.96471 0.50821 0.43655 0.0
O1004 O 0.04046 0.50134 0.57375 0.0
O1005 O 0.96538 0.49848 0.5739 0.0
O1006 O 0.0398 0.57217 0.5058 0.0
O1007 O 0.96479 0.57186 0.50393 0.0
O1008 O 0.04015 0.43492 0.50261 0.0
O1009 O 0.96534 0.43469 0.50473 0.0
O1010 O 0.99923 0.46841 0.43517 0.0
O1011 O 0.00624 0.54183 0.43725 0.0
O1012 O 0.00698 0.46471 0.57261 0.0
O1013 O 1.00026 0.53845 0.57469 0.0
O1014 O 0.93417 0.50367 0.5423 0.0
O1015 O 0.93383 0.50263 0.46844 0.0
O1016 O 0.07134 0.50249 0.54143 0.0
O1017 O 0.07098 0.50464 0.46782 0.0
C1018 C 0.49829 0.94236 0.5657 0.0
C1019 C 0.50354 0.94207 0.44403 0.0
C1020 C 0.50014 0.06478 0.56531 0.0
C1021 C 0.50087 0.06453 0.44338 0.0
C1022 C 0.43953 0.06449 0.50468 0.0
C1023 C 0.43978 0.94221 0.501 0.0
C1024 C 0.56102 0.06473 0.50486 0.0
C1025 C 0.56129 0.94235 0.50416 0.0
C1026 C 0.5633 0.99982 0.44541 0.0
C1027 C 0.44171 0.99844 0.44196 0.0
C1028 C 0.55977 0.00737 0.5671 0.0
C1029 C 0.43811 0.99898 0.56365 0.0
Eu1030 Eu 0.50055 0.95642 0.50478 0.0
O1031 O 0.47908 0.98152 0.48168 0.0
O1032 O 0.52277 0.98101 0.5282 0.0
Eu1033 Eu 0.45266 0.00338 0.50307 0.0
Eu1034 Eu 0.54832 0.00342 0.50588 0.0
O1035 O 0.4776 0.98156 0.5263 0.0
O1036 O 0.52328 0.98158 0.48306 0.0
Eu1037 Eu 0.49922 0.00348 0.55256 0.0
Eu1038 Eu 0.50203 0.00332 0.45652 0.0
O1039 O 0.47723 0.02559 0.52651 0.0
O1040 O 0.47843 0.02559 0.48094 0.0
O1041 O 0.52376 0.02564 0.48244 0.0
O1042 O 0.52191 0.02526 0.52723 0.0
Eu1043 Eu 0.50029 0.05033 0.50432 0.0
O1044 O 0.49884 0.93525 0.5416 0.0
O1045 O 0.50126 0.93499 0.46802 0.0
O1046 O 0.50092 0.07174 0.54116 0.0
O1047 O 0.50048 0.07156 0.4675 0.0
O1048 O 0.43148 0.04071 0.50395 0.0
O1049 O 0.43176 0.966 0.50098 0.0
O1050 O 0.56916 0.04095 0.5049 0.0
O1051 O 0.56939 0.96604 0.50609 0.0
O1052 O 0.53973 0.0014 0.43689 0.0
O1053 O 0.4658 0.99844 0.43498 0.0
O1054 O 0.53575 0.00605 0.57433 0.0
O1055 O 0.46155 0.0015 0.57231 0.0
O1056 O 0.53693 0.0717 0.50479 0.0
O1057 O 0.46358 0.07155 0.50477 0.0
O1058 O 0.53726 0.93524 0.50361 0.0
O1059 O 0.4638 0.93512 0.50259 0.0
O1060 O 0.50476 0.96579 0.43589 0.0
O1061 O 0.50138 0.04072 0.4353 0.0
O1062 O 0.49887 0.96615 0.57373 0.0
O1063 O 0.49878 0.04103 0.57342 0.0
O1064 O 0.43109 0.99927 0.53951 0.0
O1065 O 0.43295 0.00161 0.46531 0.0
O1066 O 0.56804 0.00615 0.5434 0.0
O1067 O 0.57027 1.00075 0.46954 0.0
C1068 C 0.18112 0.15665 0.53557 0.0
C1069 C 0.17691 0.17091 0.55734 0.0
C1070 C 0.16349 0.13894 0.52742 0.0
C1071 C 0.1413 0.1352 0.54162 0.0
C1072 C 0.1371 0.14927 0.56387 0.0
C1073 C 0.15491 0.16719 0.57136 0.0
C1074 C 0.16841 0.12458 0.50339 0.0
C1075 C 0.11381 0.14541 0.57969 0.0
C1076 C 0.08487 0.10663 0.50873 0.0
C1077 C 0.08698 0.08143 0.51579 0.0
C1078 C 0.10255 0.12436 0.5169 0.0
C1079 C 0.1224 0.1167 0.53293 0.0
C1080 C 0.12454 0.09129 0.54022 0.0
C1081 C 0.10693 0.07389 0.53133 0.0
C1082 C 0.09998 0.15125 0.50841 0.0
C1083 C 0.14518 0.08253 0.55768 0.0
H1084 H 0.19796 0.15986 0.52451 0.0
H1085 H 0.15175 0.17822 0.58822 0.0
H1086 H 0.16857 0.10415 0.50727 0.0
H1087 H 0.15307 0.12816 0.48967 0.0
H1088 H 0.1866 0.1298 0.49453 0.0
H1089 H 0.11362 0.15757 0.59668 0.0
H1090 H 0.09676 0.14947 0.56836 0.0
H1091 H 0.11256 0.12555 0.58578 0.0
H1092 H 0.06942 0.11248 0.49677 0.0
H1093 H 0.10833 0.05449 0.53726 0.0
H1094 H 0.11735 0.15727 0.49854 0.0
H1095 H 0.0976 0.16367 0.525 0.0
H1096 H 0.08371 0.15403 0.49557 0.0
H1097 H 0.16382 0.0861 0.549 0.0
H1098 H 0.14372 0.06222 0.56213 0.0
H1099 H 0.14448 0.09326 0.57557 0.0
C1100 C 0.85637 0.18565 0.48146 0.0
C1101 C 0.83499 0.17974 0.46711 0.0
C1102 C 0.87475 0.16757 0.48659 0.0
C1103 C 0.87207 0.14319 0.47652 0.0
C1104 C 0.85113 0.13732 0.46118 0.0
C1105 C 0.83266 0.15558 0.45691 0.0
C1106 C 0.89683 0.17444 0.50311 0.0
C1107 C 0.84821 0.11172 0.44938 0.0
C1108 C 0.93117 0.10372 0.47364 0.0
C1109 C 0.92744 0.08739 0.49392 0.0
C1110 C 0.91295 0.12156 0.46728 0.0
C1111 C 0.89108 0.12374 0.48232 0.0
C1112 C 0.88748 0.1075 0.50315 0.0
C1113 C 0.90556 0.0891 0.5084 0.0
C1114 C 0.91725 0.13796 0.44449 0.0
C1115 C 0.86467 0.10969 0.51995 0.0
H1116 H 0.85871 0.20443 0.48888 0.0
H1117 H 0.81614 0.15071 0.44602 0.0
H1118 H 0.89781 0.16154 0.51949 0.0
H1119 H 0.91461 0.17232 0.4924 0.0
H1120 H 0.89564 0.194 0.51021 0.0
H1121 H 0.83151 0.11058 0.43685 0.0
H1122 H 0.86524 0.10703 0.43823 0.0
H1123 H 0.84635 0.09729 0.46431 0.0
H1124 H 0.948 0.10197 0.46224 0.0
H1125 H 0.90282 0.07631 0.52405 0.0
H1126 H 0.9243 0.15653 0.45069 0.0
H1127 H 0.89955 0.14102 0.43385 0.0
H1128 H 0.93136 0.12965 0.43152 0.0
H1129 H 0.86353 0.12891 0.52789 0.0
H1130 H 0.86507 0.09604 0.53576 0.0
H1131 H 0.84731 0.10653 0.50881 0.0
C1132 C 0.82306 0.85889 0.47636 0.0
C1133 C 0.82821 0.83917 0.45961 0.0
C1134 C 0.84132 0.87688 0.48214 0.0
C1135 C 0.86504 0.87567 0.47019 0.0
C1136 C 0.86999 0.85668 0.45224 0.0
C1137 C 0.85162 0.83844 0.4474 0.0
C1138 C 0.83548 0.89672 0.50161 0.0
C1139 C 0.89488 0.85531 0.4386 0.0
C1140 C 0.90434 0.93476 0.47251 0.0
C1141 C 0.92173 0.9288 0.49141 0.0
C1142 C 0.88614 0.91738 0.46493 0.0
C1143 C 0.88491 0.89385 0.47715 0.0
C1144 C 0.90228 0.88789 0.49651 0.0
C1145 C 0.92084 0.90535 0.50311 0.0
C1146 C 0.86849 0.92408 0.44367 0.0
C1147 C 0.90107 0.86322 0.5104 0.0
H1148 H 0.8048 0.8601 0.48534 0.0
H1149 H 0.85592 0.82321 0.43459 0.0
H1150 H 0.84896 0.89526 0.5175 0.0
H1151 H 0.83771 0.91566 0.49331 0.0
H1152 H 0.81608 0.895 0.5092 0.0
H1153 H 0.89491 0.84077 0.42361 0.0
H1154 H 0.89941 0.8737 0.42996 0.0
H1155 H 0.9101 0.85092 0.45219 0.0
H1156 H 0.90546 0.95279 0.46314 0.0
H1157 H 0.93441 0.90086 0.51769 0.0
H1158 H 0.84874 0.92368 0.45036 0.0
H1159 H 0.87014 0.91006 0.42831 0.0
H1160 H 0.87246 0.94296 0.43578 0.0
H1161 H 0.88227 0.86094 0.5192 0.0
H1162 H 0.91563 0.86176 0.52534 0.0
H1163 H 0.90363 0.84747 0.497 0.0
C1164 C 0.1626 0.83108 0.48466 0.0
C1165 C 0.17186 0.83045 0.45995 0.0
C1166 C 0.14516 0.84927 0.4921 0.0
C1167 C 0.13671 0.86712 0.47433 0.0
C1168 C 0.1461 0.8667 0.44935 0.0
C1169 C 0.16375 0.84839 0.44248 0.0
C1170 C 0.13569 0.84929 0.51894 0.0
C1171 C 0.13729 0.8854 0.42988 0.0
C1172 C 0.07419 0.89878 0.48666 0.0
C1173 C 0.08186 0.92229 0.49568 0.0
C1174 C 0.09188 0.8806 0.4797 0.0
C1175 C 0.11782 0.88606 0.4819 0.0
C1176 C 0.12571 0.9095 0.49151 0.0
C1177 C 0.10763 0.92737 0.49825 0.0
C1178 C 0.08279 0.85581 0.46939 0.0
C1179 C 0.15326 0.9158 0.49439 0.0
H1180 H 0.16919 0.81742 0.49826 0.0
H1181 H 0.17087 0.84778 0.42334 0.0
H1182 H 0.1395 0.86772 0.52786 0.0
H1183 H 0.11502 0.84647 0.51915 0.0
H1184 H 0.14457 0.8344 0.53055 0.0
H1185 H 0.14666 0.88268 0.41137 0.0
H1186 H 0.11667 0.88368 0.42721 0.0
H1187 H 0.14107 0.90477 0.43647 0.0
H1188 H 0.05435 0.89475 0.48433 0.0
H1189 H 0.11374 0.94546 0.50527 0.0
H1190 H 0.09204 0.84001 0.47932 0.0
H1191 H 0.08789 0.85437 0.44917 0.0
H1192 H 0.06209 0.85362 0.47121 0.0
H1193 H 0.16263 0.90165 0.5065 0.0
H1194 H 0.15624 0.93465 0.50277 0.0
H1195 H 0.16263 0.91522 0.47572 0.0
C1196 C 0.4492 0.16152 0.16473 0.0
C1197 C 0.46828 0.17414 0.17776 0.0
C1198 C 0.45506 0.14293 0.14699 0.0
C1199 C 0.48057 0.13687 0.14237 0.0
C1200 C 0.49987 0.14919 0.15587 0.0
C1201 C 0.49348 0.16771 0.17342 0.0
C1202 C 0.43401 0.13013 0.13287 0.0
C1203 C 0.52727 0.14306 0.15153 0.0
C1204 C 0.49474 0.07475 0.11089 0.0
C1205 C 0.49812 0.08205 0.08569 0.0
C1206 C 0.48924 0.09244 0.1296 0.0
C1207 C 0.48711 0.11801 0.12297 0.0
C1208 C 0.49102 0.12562 0.09775 0.0
C1209 C 0.4965 0.10755 0.0794 0.0
C1210 C 0.48526 0.08371 0.15639 0.0
C1211 C 0.48897 0.15281 0.09006 0.0
H1212 H 0.42973 0.16661 0.16796 0.0
H1213 H 0.50824 0.17718 0.18382 0.0
H1214 H 0.43582 0.13396 0.1124 0.0
H1215 H 0.43525 0.10953 0.13542 0.0
H1216 H 0.41515 0.13651 0.13922 0.0
H1217 H 0.53993 0.15394 0.16407 0.0
H1218 H 0.53063 0.12279 0.15474 0.0
H1219 H 0.53239 0.14711 0.13168 0.0
H1220 H 0.49593 0.05513 0.11602 0.0
H1221 H 0.4991 0.11347 0.06005 0.0
H1222 H 0.46583 0.08821 0.16249 0.0
H1223 H 0.49826 0.09374 0.16926 0.0
H1224 H 0.48831 0.06322 0.15856 0.0
H1225 H 0.46974 0.15984 0.09404 0.0
H1226 H 0.49306 0.15568 0.06973 0.0
H1227 H 0.50225 0.16436 0.10125 0.0
C1228 C 0.83344 0.51473 0.16721 0.0
C1229 C 0.8332 0.53876 0.17788 0.0
C1230 C 0.85147 0.5081 0.14915 0.0
C1231 C 0.86955 0.52602 0.14156 0.0
C1232 C 0.86957 0.55024 0.15246 0.0
C1233 C 0.8514 0.5563 0.1706 0.0
C1234 C 0.85101 0.48206 0.138 0.0
C1235 C 0.8885 0.56987 0.14465 0.0
C1236 C 0.92967 0.5048 0.10972 0.0
C1237 C 0.92424 0.50957 0.08431 0.0
C1238 C 0.91184 0.50962 0.12856 0.0
C1239 C 0.88815 0.51962 0.12179 0.0
C1240 C 0.88236 0.52404 0.09615 0.0
C1241 C 0.90047 0.51888 0.0777 0.0
C1242 C 0.91852 0.50444 0.15573 0.0
C1243 C 0.85735 0.53492 0.08824 0.0
H1244 H 0.81954 0.50105 0.17307 0.0
H1245 H 0.85106 0.57497 0.17868 0.0
H1246 H 0.8477 0.48319 0.11739 0.0
H1247 H 0.86948 0.4728 0.14079 0.0
H1248 H 0.83614 0.47012 0.1465 0.0
H1249 H 0.88628 0.58763 0.15536 0.0
H1250 H 0.90789 0.56274 0.14757 0.0
H1251 H 0.88643 0.57399 0.12427 0.0
H1252 H 0.94795 0.49746 0.11496 0.0
H1253 H 0.89619 0.52287 0.05814 0.0
H1254 H 0.90427 0.4919 0.16435 0.0
H1255 H 0.91838 0.52221 0.16659 0.0
H1256 H 0.93734 0.49562 0.15771 0.0
H1257 H 0.84166 0.52401 0.09659 0.0
H1258 H 0.85502 0.53516 0.06744 0.0
H1259 H 0.85573 0.55442 0.09533 0.0
C1260 C 0.55837 0.83602 0.15573 0.0
C1261 C 0.54059 0.82864 0.17375 0.0
C1262 C 0.55229 0.85388 0.13732 0.0
C1263 C 0.52783 0.86434 0.13692 0.0
C1264 C 0.50965 0.85651 0.15471 0.0
C1265 C 0.51629 0.83877 0.17298 0.0
C1266 C 0.57218 0.86195 0.11868 0.0
C1267 C 0.48334 0.86719 0.15473 0.0
C1268 C 0.5197 0.92818 0.10693 0.0
C1269 C 0.51053 0.92186 0.08298 0.0
C1270 C 0.52527 0.90962 0.12472 0.0
C1271 C 0.52147 0.88414 0.11843 0.0
C1272 C 0.51174 0.8776 0.09451 0.0
C1273 C 0.50645 0.89656 0.07701 0.0
C1274 C 0.53585 0.91729 0.14999 0.0
C1275 C 0.50722 0.85059 0.0873 0.0
H1276 H 0.57722 0.82831 0.15645 0.0
H1277 H 0.50243 0.83279 0.18671 0.0
H1278 H 0.56531 0.85927 0.09913 0.0
H1279 H 0.57621 0.88222 0.12108 0.0
H1280 H 0.59002 0.85135 0.121 0.0
H1281 H 0.47116 0.85835 0.16922 0.0
H1282 H 0.48409 0.88766 0.15838 0.0
H1283 H 0.47451 0.86455 0.13597 0.0
H1284 H 0.52319 0.94764 0.11165 0.0
H1285 H 0.4993 0.8915 0.05857 0.0
H1286 H 0.55556 0.91065 0.15162 0.0
H1287 H 0.52499 0.90849 0.16549 0.0
H1288 H 0.53561 0.93794 0.1527 0.0
H1289 H 0.52524 0.84011 0.08766 0.0
H1290 H 0.49881 0.84873 0.06823 0.0
H1291 H 0.4945 0.84157 0.10117 0.0
C1292 C 0.177 0.51877 0.16513 0.0
C1293 C 0.17753 0.5428 0.17581 0.0
C1294 C 0.15884 0.51233 0.14716 0.0
C1295 C 0.14093 0.53042 0.13963 0.0
C1296 C 0.14146 0.5548 0.15016 0.0
C1297 C 0.15979 0.5607 0.16819 0.0
C1298 C 0.15883 0.48617 0.13625 0.0
C1299 C 0.12263 0.57457 0.14246 0.0
C1300 C 0.10886 0.52154 0.07666 0.0
C1301 C 0.08532 0.51207 0.08392 0.0
C1302 C 0.12713 0.52761 0.09463 0.0
C1303 C 0.1218 0.52391 0.12046 0.0
C1304 C 0.09826 0.51403 0.12795 0.0
C1305 C 0.08023 0.50831 0.10957 0.0
C1306 C 0.15196 0.53836 0.08598 0.0
C1307 C 0.09208 0.50971 0.15538 0.0
H1308 H 0.19092 0.50501 0.17071 0.0
H1309 H 0.15999 0.5792 0.17663 0.0
H1310 H 0.14038 0.47707 0.1397 0.0
H1311 H 0.16153 0.48705 0.11554 0.0
H1312 H 0.17384 0.4742 0.14444 0.0
H1313 H 0.12575 0.59267 0.15233 0.0
H1314 H 0.12375 0.57785 0.12185 0.0
H1315 H 0.10327 0.56802 0.14662 0.0
H1316 H 0.11289 0.52482 0.05691 0.0
H1317 H 0.0621 0.50098 0.11533 0.0
H1318 H 0.16765 0.52629 0.09253 0.0
H1319 H 0.1548 0.55719 0.09439 0.0
H1320 H 0.1531 0.54008 0.06515 0.0
H1321 H 0.10617 0.49697 0.16395 0.0
H1322 H 0.07308 0.50145 0.15802 0.0
H1323 H 0.09296 0.5277 0.16582 0.0
C1324 C 0.48098 0.84351 0.83099 0.0
C1325 C 0.45691 0.83322 0.83342 0.0
C1326 C 0.48993 0.86095 0.84853 0.0
C1327 C 0.4741 0.8686 0.86854 0.0
C1328 C 0.44965 0.8583 0.87096 0.0
C1329 C 0.44144 0.84039 0.85345 0.0
C1330 C 0.51622 0.87125 0.84563 0.0
C1331 C 0.4321 0.86645 0.89179 0.0
C1332 C 0.50142 0.8989 0.92701 0.0
C1333 C 0.49705 0.92438 0.92217 0.0
C1334 C 0.49463 0.88053 0.9094 0.0
C1335 C 0.48291 0.88783 0.88663 0.0
C1336 C 0.47909 0.91353 0.88132 0.0
C1337 C 0.4863 0.93151 0.89912 0.0
C1338 C 0.49956 0.85329 0.91537 0.0
C1339 C 0.46645 0.92203 0.85731 0.0
H1340 H 0.49289 0.83762 0.81549 0.0
H1341 H 0.42282 0.83228 0.85513 0.0
H1342 H 0.51545 0.8918 0.84254 0.0
H1343 H 0.52713 0.86803 0.86316 0.0
H1344 H 0.52646 0.86254 0.82961 0.0
H1345 H 0.41368 0.85666 0.89096 0.0
H1346 H 0.4408 0.86273 0.91042 0.0
H1347 H 0.42876 0.88695 0.89054 0.0
H1348 H 0.50987 0.89327 0.94471 0.0
H1349 H 0.48262 0.95113 0.89531 0.0
H1350 H 0.51021 0.84438 0.89977 0.0
H1351 H 0.48145 0.84312 0.91714 0.0
H1352 H 0.51031 0.85087 0.93315 0.0
H1353 H 0.47478 0.91257 0.84068 0.0
H1354 H 0.46797 0.94261 0.85455 0.0
H1355 H 0.44624 0.91688 0.85797 0.0
C1356 C 0.17614 0.48889 0.84164 0.0
C1357 C 0.17801 0.46423 0.83265 0.0
C1358 C 0.15792 0.49548 0.85948 0.0
C1359 C 0.14135 0.4769 0.8687 0.0
C1360 C 0.1433 0.4519 0.85999 0.0
C1361 C 0.16161 0.44586 0.84198 0.0
C1362 C 0.15636 0.52233 0.86841 0.0
C1363 C 0.12599 0.43158 0.86962 0.0
C1364 C 0.10967 0.48853 0.93144 0.0
C1365 C 0.08545 0.49593 0.92394 0.0
C1366 C 0.12803 0.48227 0.91363 0.0
C1367 C 0.12211 0.48362 0.8877 0.0
C1368 C 0.09789 0.49142 0.87994 0.0
C1369 C 0.07979 0.49743 0.89817 0.0
C1370 C 0.15368 0.47391 0.92256 0.0
C1371 C 0.09103 0.4932 0.85238 0.0
H1372 H 0.18906 0.50306 0.8348 0.0
H1373 H 0.16282 0.42685 0.83488 0.0
H1374 H 0.13733 0.52997 0.8646 0.0
H1375 H 0.15936 0.52318 0.88908 0.0
H1376 H 0.17048 0.53456 0.8591 0.0
H1377 H 0.13009 0.41304 0.86102 0.0
H1378 H 0.12778 0.42991 0.89038 0.0
H1379 H 0.10614 0.43656 0.86552 0.0
H1380 H 0.11423 0.48707 0.95128 0.0
H1381 H 0.06116 0.50312 0.89219 0.0
H1382 H 0.16835 0.48666 0.91506 0.0
H1383 H 0.15785 0.45486 0.91528 0.0
H1384 H 0.15514 0.47358 0.94344 0.0
H1385 H 0.10417 0.50606 0.84256 0.0
H1386 H 0.07151 0.50005 0.84948 0.0
H1387 H 0.09289 0.47453 0.84337 0.0
C1388 C 0.52205 0.17519 0.84411 0.0
C1389 C 0.54602 0.1765 0.83321 0.0
C1390 C 0.51622 0.15671 0.86186 0.0
C1391 C 0.53485 0.13913 0.86889 0.0
C1392 C 0.55907 0.14018 0.85783 0.0
C1393 C 0.56435 0.15887 0.84 0.0
C1394 C 0.49013 0.15601 0.87313 0.0
C1395 C 0.5794 0.12176 0.86504 0.0
C1396 C 0.52571 0.1071 0.93185 0.0
C1397 C 0.51564 0.0839 0.92454 0.0
C1398 C 0.5325 0.12508 0.91388 0.0
C1399 C 0.5289 0.11981 0.88801 0.0
C1400 C 0.51875 0.09648 0.88047 0.0
C1401 C 0.5123 0.07875 0.89884 0.0
C1402 C 0.54357 0.14969 0.92257 0.0
C1403 C 0.51464 0.09028 0.853 0.0
H1404 H 0.50771 0.18854 0.83854 0.0
H1405 H 0.58294 0.15998 0.83167 0.0
H1406 H 0.48129 0.13753 0.86948 0.0
H1407 H 0.49126 0.15838 0.89387 0.0
H1408 H 0.47773 0.17089 0.86538 0.0
H1409 H 0.59705 0.12477 0.85425 0.0
H1410 H 0.58365 0.12348 0.88544 0.0
H1411 H 0.57285 0.10229 0.86175 0.0
H1412 H 0.52876 0.11111 0.95164 0.0
H1413 H 0.50461 0.06085 0.89301 0.0
H1414 H 0.53136 0.16542 0.91645 0.0
H1415 H 0.56229 0.15258 0.91381 0.0
H1416 H 0.54572 0.15059 0.94338 0.0
H1417 H 0.5015 0.10403 0.84448 0.0
H1418 H 0.50684 0.07116 0.85028 0.0
H1419 H 0.53267 0.09167 0.84257 0.0
C1420 C 0.84063 0.44685 0.84904 0.0
C1421 C 0.83219 0.4648 0.83171 0.0
C1422 C 0.8588 0.45295 0.86718 0.0
C1423 C 0.86861 0.4776 0.86798 0.0
C1424 C 0.86021 0.49578 0.85052 0.0
C1425 C 0.84216 0.48913 0.83252 0.0
C1426 C 0.86743 0.43307 0.88551 0.0
C1427 C 0.87028 0.52226 0.85087 0.0
C1428 C 0.89907 0.49908 0.9288 0.0
C1429 C 0.92468 0.4961 0.92322 0.0
C1430 C 0.88058 0.49337 0.91088 0.0
C1431 C 0.88791 0.48431 0.88693 0.0
C1432 C 0.91369 0.48149 0.88106 0.0
C1433 C 0.93178 0.48753 0.89924 0.0
C1434 C 0.8532 0.49677 0.91766 0.0
C1435 C 0.92216 0.47165 0.85575 0.0
H1436 H 0.83275 0.42812 0.84868 0.0
H1437 H 0.83596 0.50297 0.81891 0.0
H1438 H 0.88807 0.43045 0.88398 0.0
H1439 H 0.86341 0.43913 0.9051 0.0
H1440 H 0.85809 0.41474 0.8822 0.0
H1441 H 0.86143 0.53426 0.83625 0.0
H1442 H 0.86692 0.53087 0.86961 0.0
H1443 H 0.8909 0.52208 0.84775 0.0
H1444 H 0.8934 0.50572 0.94725 0.0
H1445 H 0.95149 0.48491 0.89478 0.0
H1446 H 0.84338 0.47844 0.91684 0.0
H1447 H 0.84393 0.50932 0.90382 0.0
H1448 H 0.85069 0.50478 0.93681 0.0
H1449 H 0.91445 0.45257 0.85268 0.0
H1450 H 0.94298 0.47077 0.85412 0.0
H1451 H 0.9148 0.48376 0.84045 0.0
C1452 C 0.66802 0.67113 0.02395 0.0
C1453 C 0.67473 0.67541 0.04913 0.0
C1454 C 0.64945 0.65367 0.0177 0.0
C1455 C 0.63726 0.6402 0.03712 0.0
C1456 C 0.64357 0.64473 0.06264 0.0
C1457 C 0.66227 0.66239 0.06837 0.0
C1458 C 0.64307 0.64943 0.99028 0.0
C1459 C 0.63085 0.63065 0.08379 0.0
C1460 C 0.57498 0.61023 0.02036 0.0
C1461 C 0.58218 0.58536 0.01554 0.0
C1462 C 0.59265 0.62818 0.02789 0.0
C1463 C 0.61814 0.62114 0.03051 0.0
C1464 C 0.62559 0.59613 0.02577 0.0
C1465 C 0.60752 0.57853 0.01832 0.0
C1466 C 0.58406 0.65471 0.03292 0.0
C1467 C 0.65266 0.58797 0.02851 0.0
H1468 H 0.67734 0.68153 0.00909 0.0
H1469 H 0.66755 0.66562 0.08783 0.0
H1470 H 0.64683 0.62962 0.98512 0.0
H1471 H 0.62276 0.65292 0.98704 0.0
H1472 H 0.65407 0.66175 0.97751 0.0
H1473 H 0.63744 0.63687 0.10264 0.0
H1474 H 0.61017 0.63328 0.08274 0.0
H1475 H 0.63456 0.61027 0.08187 0.0
H1476 H 0.55544 0.61572 0.01857 0.0
H1477 H 0.6133 0.55934 0.0149 0.0
H1478 H 0.59299 0.66764 0.01922 0.0
H1479 H 0.59004 0.66072 0.05202 0.0
H1480 H 0.56332 0.65676 0.03149 0.0
H1481 H 0.66468 0.59871 0.01526 0.0
H1482 H 0.65523 0.56765 0.02474 0.0
H1483 H 0.65944 0.59206 0.04784 0.0
C1484 C 0.34764 0.66801 0.94229 0.0
C1485 C 0.33296 0.67919 0.96106 0.0
C1486 C 0.36596 0.65014 0.94857 0.0
C1487 C 0.3698 0.64381 0.97421 0.0
C1488 C 0.35554 0.65573 0.99324 0.0
C1489 C 0.33712 0.67316 0.9864 0.0
C1490 C 0.38074 0.63759 0.92779 0.0
C1491 C 0.35948 0.64981 0.0208 0.0
C1492 C 0.39786 0.5806 0.99045 0.0
C1493 C 0.42307 0.58687 0.99508 0.0
C1494 C 0.38036 0.59896 0.98347 0.0
C1495 C 0.38823 0.62419 0.98119 0.0
C1496 C 0.41351 0.63075 0.98607 0.0
C1497 C 0.43063 0.61202 0.99297 0.0
C1498 C 0.3535 0.59132 0.97829 0.0
C1499 C 0.42249 0.65753 0.98395 0.0
H1500 H 0.34425 0.67271 0.92271 0.0
H1501 H 0.32586 0.68212 1.00087 0.0
H1502 H 0.40121 0.6399 0.9311 0.0
H1503 H 0.37677 0.61717 0.92779 0.0
H1504 H 0.37608 0.64527 0.9089 0.0
H1505 H 0.34761 0.66163 0.03328 0.0
H1506 H 0.35495 0.62983 0.02443 0.0
H1507 H 0.37949 0.65266 0.02596 0.0
H1508 H 0.3918 0.56126 0.9919 0.0
H1509 H 0.45006 0.61715 0.99635 0.0
H1510 H 0.34817 0.59675 0.95882 0.0
H1511 H 0.34061 0.60131 0.99131 0.0
H1512 H 0.35052 0.57083 0.98051 0.0
H1513 H 0.41871 0.66484 0.96476 0.0
H1514 H 0.44293 0.65941 0.98787 0.0
H1515 H 0.41199 0.66953 0.9974 0.0
C1516 C 0.32979 0.34475 0.99245 0.0
C1517 C 0.32886 0.3345 0.96813 0.0
C1518 C 0.34767 0.36298 0.99875 0.0
C1519 C 0.36487 0.37124 0.98021 0.0
C1520 C 0.36383 0.36125 0.95553 0.0
C1521 C 0.34584 0.34293 0.94979 0.0
C1522 C 0.34822 0.37331 0.02524 0.0
C1523 C 0.38185 0.36979 0.93526 0.0
C1524 C 0.39698 0.43394 0.9889 0.0
C1525 C 0.42095 0.42665 0.99722 0.0
C1526 C 0.37848 0.41608 0.98345 0.0
C1527 C 0.38402 0.39035 0.98663 0.0
C1528 C 0.40796 0.38286 0.99552 0.0
C1529 C 0.42621 0.40112 1.00062 0.0
C1530 C 0.35316 0.42472 0.97388 0.0
C1531 C 0.4144 0.35554 0.99928 0.0
H1532 H 0.31643 0.33858 0.00657 0.0
H1533 H 0.34537 0.33485 0.93105 0.0
H1534 H 0.36689 0.3698 0.03388 0.0
H1535 H 0.34539 0.39391 0.02486 0.0
H1536 H 0.33353 0.36483 0.03744 0.0
H1537 H 0.3783 0.36039 0.91692 0.0
H1538 H 0.38025 0.39035 0.93254 0.0
H1539 H 0.40148 0.36583 0.9411 0.0
H1540 H 0.3928 0.45361 0.986 0.0
H1541 H 0.44463 0.39535 0.00716 0.0
H1542 H 0.33806 0.41803 0.98664 0.0
H1543 H 0.34948 0.41653 0.95502 0.0
H1544 H 0.35191 0.44546 0.97243 0.0
H1545 H 0.40065 0.3467 0.01225 0.0
H1546 H 0.4336 0.3529 0.0071 0.0
H1547 H 0.41317 0.34547 0.98103 0.0
C1548 C 0.65785 0.34275 0.9472 0.0
C1549 C 0.67524 0.33502 0.96549 0.0
C1550 C 0.63944 0.36072 0.95286 0.0
C1551 C 0.6383 0.37093 0.97745 0.0
C1552 C 0.65583 0.3633 0.99594 0.0
C1553 C 0.67422 0.3456 0.98967 0.0
C1554 C 0.62116 0.36872 0.9326 0.0
C1555 C 0.6552 0.37388 0.02234 0.0
C1556 C 0.60616 0.43345 0.98727 0.0
C1557 C 0.58244 0.42607 0.99622 0.0
C1558 C 0.62448 0.41567 0.98099 0.0
C1559 C 0.61899 0.3899 0.98384 0.0
C1560 C 0.59524 0.38228 0.99312 0.0
C1561 C 0.57717 0.40048 0.9991 0.0
C1562 C 0.64948 0.42451 0.97079 0.0
C1563 C 0.58891 0.35491 0.99666 0.0
H1564 H 0.65836 0.33447 0.92856 0.0
H1565 H 0.68792 0.34012 0.00375 0.0
H1566 H 0.60161 0.36462 0.93862 0.0
H1567 H 0.62248 0.38927 0.9296 0.0
H1568 H 0.62472 0.35912 0.91437 0.0
H1569 H 0.66981 0.36547 0.03469 0.0
H1570 H 0.65814 0.39447 0.02174 0.0
H1571 H 0.63648 0.37055 0.03095 0.0
H1572 H 0.61032 0.45315 0.98458 0.0
H1573 H 0.5589 0.39462 0.00598 0.0
H1574 H 0.65109 0.41915 0.95066 0.0
H1575 H 0.66523 0.41542 0.98099 0.0
H1576 H 0.65171 0.44516 0.97231 0.0
H1577 H 0.59021 0.34495 0.97836 0.0
H1578 H 0.56972 0.35213 0.00445 0.0
H1579 H 0.6027 0.34607 0.00959 0.0
C1580 C 0.99183 0.66793 0.6742 0.0
C1581 C 0.96672 0.67384 0.67966 0.0
C1582 C 0.99783 0.6491 0.65685 0.0
C1583 C 0.97821 0.63591 0.6447 0.0
C1584 C 0.95281 0.64135 0.65057 0.0
C1585 C 0.94735 0.66028 0.66808 0.0
C1586 C 0.02513 0.64367 0.65117 0.0
C1587 C 0.93144 0.62763 0.6379 0.0
C1588 C 0.99217 0.60676 0.58122 0.0
C1589 C 0.99525 0.5814 0.58754 0.0
C1590 C 0.98669 0.62469 0.59969 0.0
C1591 C 0.9843 0.6171 0.6251 0.0
C1592 C 0.98777 0.59167 0.63175 0.0
C1593 C 0.99321 0.5741 0.61288 0.0
C1594 C 0.98315 0.65172 0.59195 0.0
C1595 C 0.98543 0.58299 0.65873 0.0
H1596 H 0.00683 0.67813 0.6835 0.0
H1597 H 0.92794 0.66493 0.6722 0.0
H1598 H 0.0292 0.62351 0.65425 0.0
H1599 H 0.02913 0.64779 0.63107 0.0
H1600 H 0.03811 0.65495 0.66302 0.0
H1601 H 0.91279 0.63335 0.64537 0.0
H1602 H 0.93183 0.63135 0.61733 0.0
H1603 H 0.93362 0.60711 0.64049 0.0
H1604 H 0.99365 0.61267 0.56174 0.0
H1605 H 0.99553 0.55459 0.61804 0.0
H1606 H 0.99669 0.66383 0.60218 0.0
H1607 H 0.96397 0.6581 0.59712 0.0
H1608 H 0.98582 0.65455 0.57138 0.0
H1609 H 0.99882 0.59343 0.67085 0.0
H1610 H 0.98915 0.5626 0.66082 0.0
H1611 H 0.96624 0.58702 0.66585 0.0
C1612 C 0.35034 0.9448 0.672 0.0
C1613 C 0.32817 0.9587 0.67459 0.0
C1614 C 0.36811 0.95108 0.65351 0.0
C1615 C 0.36371 0.97211 0.63781 0.0
C1616 C 0.34134 0.98623 0.64048 0.0
C1617 C 0.32369 0.97917 0.65872 0.0
C1618 C 0.39153 0.93529 0.65078 0.0
C1619 C 0.33626 0.00902 0.62439 0.0
C1620 C 0.42039 0.00242 0.60703 0.0
C1621 C 0.41842 0.99345 0.58232 0.0
C1622 C 0.40247 0.99587 0.62526 0.0
C1623 C 0.38257 0.9795 0.61867 0.0
C1624 C 0.38057 0.97033 0.59374 0.0
C1625 C 0.39838 0.97766 0.57576 0.0
C1626 C 0.40487 0.00641 0.65156 0.0
C1627 C 0.3599 0.95242 0.58616 0.0
H1628 H 0.35365 0.92893 0.68433 0.0
H1629 H 0.30662 0.99005 0.66104 0.0
H1630 H 0.39312 0.92822 0.63118 0.0
H1631 H 0.40845 0.94687 0.65453 0.0
H1632 H 0.39164 0.91903 0.66385 0.0
H1633 H 0.31803 0.01808 0.62905 0.0
H1634 H 0.35153 0.02297 0.62696 0.0
H1635 H 0.33608 0.00371 0.60418 0.0
H1636 H 0.43589 0.01464 0.61208 0.0
H1637 H 0.39708 0.97034 0.55675 0.0
H1638 H 0.40738 0.99094 0.66529 0.0
H1639 H 0.38737 0.01649 0.6568 0.0
H1640 H 0.421 0.01952 0.65338 0.0
H1641 H 0.36068 0.93537 0.59809 0.0
H1642 H 0.3613 0.94669 0.56608 0.0
H1643 H 0.34126 0.96124 0.58926 0.0
C1644 C 0.0374 0.32805 0.65704 0.0
C1645 C 0.05941 0.33185 0.67103 0.0
C1646 C 0.02914 0.34591 0.6396 0.0
C1647 C 0.04346 0.36794 0.63586 0.0
C1648 C 0.06594 0.37175 0.64967 0.0
C1649 C 0.07355 0.3537 0.66735 0.0
C1650 C 0.0049 0.34138 0.62547 0.0
C1651 C 0.08188 0.39485 0.64577 0.0
C1652 C 0.03231 0.40219 0.57443 0.0
C1653 C 0.01679 0.42199 0.5822 0.0
C1654 C 0.0416 0.38478 0.59183 0.0
C1655 C 0.03474 0.38694 0.61748 0.0
C1656 C 0.01887 0.40675 0.62541 0.0
C1657 C 0.01028 0.42424 0.60767 0.0
C1658 C 0.05891 0.36421 0.58277 0.0
C1659 C 0.01089 0.40939 0.65259 0.0
H1660 H 0.02626 0.31132 0.66022 0.0
H1661 H 0.09059 0.35655 0.67818 0.0
H1662 H 0.99146 0.35684 0.62929 0.0
H1663 H 0.00852 0.34122 0.60489 0.0
H1664 H 0.99589 0.32335 0.63078 0.0
H1665 H 0.09907 0.39476 0.65766 0.0
H1666 H 0.0876 0.3963 0.62571 0.0
H1667 H 0.07078 0.41188 0.65027 0.0
H1668 H 0.03785 0.40072 0.55483 0.0
H1669 H 0.99838 0.43962 0.6137 0.0
H1670 H 0.05007 0.34566 0.58604 0.0
H1671 H 0.07675 0.36458 0.59361 0.0
H1672 H 0.06338 0.36597 0.56242 0.0
H1673 H 1.00101 0.39215 0.65882 0.0
H1674 H 0.99825 0.4257 0.65559 0.0
H1675 H 0.02769 0.41163 0.66478 0.0
C1676 C 0.65646 0.06306 0.66711 0.0
C1677 C 0.67054 0.04417 0.67883 0.0
C1678 C 0.63794 0.05706 0.64927 0.0
C1679 C 0.6336 0.03161 0.64307 0.0
C1680 C 0.64779 0.0125 0.65483 0.0
C1681 C 0.66613 0.01903 0.67254 0.0
C1682 C 0.62309 0.0779 0.63704 0.0
C1683 C 0.64372 0.98517 0.64857 0.0
C1684 C 0.57185 0.01378 0.61227 0.0
C1685 C 0.57885 0.0121 0.58683 0.0
C1686 C 0.58949 0.02011 0.63083 0.0
C1687 C 0.61468 0.02492 0.62375 0.0
C1688 C 0.62196 0.02302 0.5982 0.0
C1689 C 0.60399 0.01657 0.58007 0.0
C1690 C 0.58116 0.02187 0.65798 0.0
C1691 C 0.64869 0.02809 0.58998 0.0
H1692 H 0.6597 0.08249 0.67212 0.0
H1693 H 0.67728 0.00441 0.6813 0.0
H1694 H 0.62595 0.0775 0.61633 0.0
H1695 H 0.6027 0.07515 0.64051 0.0
H1696 H 0.62858 0.09669 0.64419 0.0
H1697 H 0.65594 0.97258 0.6599 0.0
H1698 H 0.62381 0.97996 0.65195 0.0
H1699 H 0.64765 0.98185 0.62831 0.0
H1700 H 0.5525 0.01043 0.61774 0.0
H1701 H 0.60967 0.01549 0.56049 0.0
H1702 H 0.58456 0.04108 0.66523 0.0
H1703 H 0.59237 0.00882 0.66977 0.0
H1704 H 0.5609 0.01734 0.66038 0.0
H1705 H 0.65416 0.04746 0.59526 0.0
H1706 H 0.65126 0.02583 0.56933 0.0
H1707 H 0.66176 0.01515 0.59979 0.0
C1708 C 0.94406 0.34771 0.34147 0.0
C1709 C 0.96334 0.33393 0.32998 0.0
C1710 C 0.94961 0.36638 0.35922 0.0
C1711 C 0.97502 0.37129 0.36549 0.0
C1712 C 0.99456 0.35779 0.35356 0.0
C1713 C 0.98847 0.3393 0.3359 0.0
C1714 C 0.92833 0.38049 0.37163 0.0
C1715 C 0.02187 0.3626 0.35974 0.0
C1716 C 0.99173 0.43276 0.39706 0.0
C1717 C 0.99352 0.42553 0.42243 0.0
C1718 C 0.98561 0.41531 0.3783 0.0
C1719 C 0.98124 0.39005 0.38509 0.0
C1720 C 0.9832 0.38255 0.41057 0.0
C1721 C 0.98934 0.40037 0.42893 0.0
C1722 C 0.98364 0.42392 0.35126 0.0
C1723 C 0.97864 0.35572 0.41846 0.0
H1724 H 0.92462 0.34347 0.33701 0.0
H1725 H 0.00343 0.32897 0.32668 0.0
H1726 H 0.92836 0.37676 0.3922 0.0
H1727 H 0.93093 0.40097 0.36908 0.0
H1728 H 0.90968 0.37512 0.36389 0.0
H1729 H 0.0348 0.35089 0.34827 0.0
H1730 H 0.0265 0.38262 0.35652 0.0
H1731 H 0.02537 0.35861 0.37996 0.0
H1732 H 0.99484 0.45214 0.39179 0.0
H1733 H 0.99049 0.39454 0.44846 0.0
H1734 H 0.96449 0.42006 0.34394 0.0
H1735 H 0.99706 0.41329 0.33934 0.0
H1736 H 0.98759 0.44426 0.34914 0.0
H1737 H 0.95933 0.34994 0.41309 0.0
H1738 H 0.98092 0.35297 0.43908 0.0
H1739 H 0.99191 0.34309 0.4085 0.0
C1740 C 0.66845 0.98609 0.33917 0.0
C1741 C 0.67633 0.96113 0.3367 0.0
C1742 C 0.65081 0.99299 0.35745 0.0
C1743 C 0.64086 0.97447 0.37368 0.0
C1744 C 0.64917 0.94932 0.37175 0.0
C1745 C 0.6669 0.94293 0.35324 0.0
C1746 C 0.64248 0.02002 0.35908 0.0
C1747 C 0.63892 0.9291 0.38883 0.0
C1748 C 0.6087 0.99596 0.43361 0.0
C1749 C 0.58325 0.99488 0.42665 0.0
C1750 C 0.62769 0.98931 0.41657 0.0
C1751 C 0.62105 0.98136 0.39204 0.0
C1752 C 0.59547 0.98045 0.38478 0.0
C1753 C 0.57688 0.98727 0.40216 0.0
C1754 C 0.65483 0.9906 0.42486 0.0
C1755 C 0.58772 0.97195 0.35876 0.0
H1756 H 0.6761 1.00027 0.3267 0.0
H1757 H 0.67291 0.92361 0.35128 0.0
H1758 H 0.62206 0.02138 0.355 0.0
H1759 H 0.64544 0.02727 0.37845 0.0
H1760 H 0.65277 0.03227 0.34565 0.0
H1761 H 0.64821 0.91071 0.38567 0.0
H1762 H 0.64145 0.9345 0.40885 0.0
H1763 H 0.61842 0.92688 0.38558 0.0
H1764 H 0.61384 0.00181 0.45248 0.0
H1765 H 0.55729 0.98608 0.39664 0.0
H1766 H 0.66553 0.00329 0.41224 0.0
H1767 H 0.66359 0.97178 0.42345 0.0
H1768 H 0.65683 0.99741 0.44455 0.0
H1769 H 0.59701 0.9837 0.34424 0.0
H1770 H 0.56704 0.97296 0.3559 0.0
H1771 H 0.5939 0.95233 0.35565 0.0
C1772 C 0.06628 0.6646 0.34866 0.0
C1773 C 0.04695 0.67685 0.33558 0.0
C1774 C 0.06073 0.64632 0.36685 0.0
C1775 C 0.03531 0.64022 0.37187 0.0
C1776 C 0.01578 0.65236 0.35853 0.0
C1777 C 0.02185 0.6705 0.34052 0.0
C1778 C 0.082 0.63367 0.3808 0.0
C1779 C 0.98845 0.64618 0.36328 0.0
C1780 C 0.01874 0.57788 0.40146 0.0
C1781 C 0.01416 0.58476 0.42659 0.0
C1782 C 0.02613 0.59569 0.38356 0.0
C1783 C 0.02893 0.62099 0.39094 0.0
C1784 C 0.0245 0.62811 0.41623 0.0
C1785 C 0.01714 0.6099 0.43377 0.0
C1786 C 0.03092 0.5874 0.35676 0.0
C1787 C 0.02738 0.65498 0.42472 0.0
H1788 H 0.08568 0.66961 0.34496 0.0
H1789 H 0.00689 0.67963 0.3301 0.0
H1790 H 0.08008 0.63701 0.40135 0.0
H1791 H 0.08116 0.6131 0.37782 0.0
H1792 H 0.10073 0.64053 0.37462 0.0
H1793 H 0.97554 0.65748 0.35136 0.0
H1794 H 0.98498 0.62603 0.35945 0.0
H1795 H 0.98374 0.64959 0.38336 0.0
H1796 H 0.01681 0.55849 0.39568 0.0
H1797 H 0.01391 0.61542 0.45316 0.0
H1798 H 0.05044 0.59222 0.35118 0.0
H1799 H 0.01808 0.59746 0.34375 0.0
H1800 H 0.02819 0.56692 0.35419 0.0
H1801 H 0.04649 0.66193 0.42005 0.0
H1802 H 0.02429 0.65722 0.4453 0.0
H1803 H 0.01373 0.66702 0.41454 0.0
C1804 C 0.35286 0.97595 0.32404 0.0
C1805 C 0.33385 0.95834 0.32894 0.0
C1806 C 0.37029 0.98263 0.34261 0.0
C1807 C 0.3693 0.97075 0.36638 0.0
C1808 C 0.35085 0.95227 0.37125 0.0
C1809 C 0.33309 0.94653 0.35257 0.0
C1810 C 0.38957 0.00265 0.33687 0.0
C1811 C 0.34975 0.93871 0.39622 0.0
C1812 C 0.42913 0.97347 0.40476 0.0
C1813 C 0.4233 0.99214 0.42238 0.0
C1814 C 0.41144 0.96584 0.38683 0.0
C1815 C 0.38769 0.97774 0.38611 0.0
C1816 C 0.38179 0.99681 0.40373 0.0
C1817 C 0.39961 0.00352 0.422 0.0
C1818 C 0.41811 0.94492 0.36883 0.0
C1819 C 0.35684 0.01029 0.40307 0.0
H1820 H 0.35412 0.98469 0.30566 0.0
H1821 H 0.31836 0.93313 0.35671 0.0
H1822 H 0.38807 0.01807 0.35083 0.0
H1823 H 0.4088 0.99477 0.33844 0.0
H1824 H 0.38723 0.01066 0.31769 0.0
H1825 H 0.33513 0.92383 0.39647 0.0
H1826 H 0.36824 0.93003 0.40046 0.0
H1827 H 0.34567 0.95222 0.41156 0.0
H1828 H 0.44733 0.96431 0.40547 0.0
H1829 H 0.39518 0.0179 0.43575 0.0
H1830 H 0.41785 0.95196 0.34917 0.0
H1831 H 0.40391 0.92973 0.3701 0.0
H1832 H 0.43697 0.93684 0.37273 0.0
H1833 H 0.3542 0.01933 0.38442 0.0
H1834 H 0.35535 0.02488 0.41793 0.0
H1835 H 0.34125 0.99671 0.40558 0.0
C1836 C 0.00366 0.16854 0.32928 0.0
C1837 C 0.98074 0.16515 0.31653 0.0
C1838 C 0.01066 0.15286 0.34944 0.0
C1839 C 0.99415 0.1336 0.35743 0.0
C1840 C 0.97129 0.12971 0.34433 0.0
C1841 C 0.96506 0.14524 0.3239 0.0
C1842 C 0.03547 0.15725 0.36253 0.0
C1843 C 0.95304 0.10949 0.35229 0.0
C1844 C 0.01537 0.07774 0.39647 0.0
C1845 C 0.007 0.0843 0.42069 0.0
C1846 C 0.01248 0.09413 0.37597 0.0
C1847 C 1.00047 0.11754 0.3796 0.0
C1848 C 0.99281 0.12468 0.40418 0.0
C1849 C 0.99641 0.10808 0.42448 0.0
C1850 C 0.02148 0.086 0.35026 0.0
C1851 C 0.97979 0.1494 0.40883 0.0
H1852 H 0.01584 0.18397 0.32409 0.0
H1853 H 0.9476 0.14198 0.31391 0.0
H1854 H 0.0321 0.16348 0.38218 0.0
H1855 H 0.04637 0.13954 0.36348 0.0
H1856 H 0.04705 0.17165 0.35283 0.0
H1857 H 0.93595 0.10901 0.34026 0.0
H1858 H 0.96228 0.09087 0.35143 0.0
H1859 H 0.94718 0.11261 0.37212 0.0
H1860 H 0.02388 0.05952 0.3934 0.0
H1861 H 0.98989 0.1133 0.4431 0.0
H1862 H 0.03295 0.101 0.34144 0.0
H1863 H 0.00507 0.08261 0.3378 0.0
H1864 H 0.03288 0.06856 0.35108 0.0
H1865 H 0.99146 0.16507 0.40167 0.0
H1866 H 0.9759 0.15263 0.42915 0.0
H1867 H 0.96171 0.14988 0.39839 0.0
C1868 C 0.85012 0.96134 0.33306 0.0
C1869 C 0.83777 0.98083 0.32023 0.0
C1870 C 0.86688 0.96627 0.35292 0.0
C1871 C 0.87143 0.99134 0.3604 0.0
C1872 C 0.85903 0.01114 0.34765 0.0
C1873 C 0.84239 0.00567 0.32774 0.0
C1874 C 0.87966 0.94457 0.36599 0.0
C1875 C 0.86342 0.03812 0.355 0.0
C1876 C 0.89933 1.00085 0.42601 0.0
C1877 C 0.92505 0.0036 0.42062 0.0
C1878 C 0.88159 0.9974 0.4066 0.0
C1879 C 0.88968 0.99671 0.38116 0.0
C1880 C 0.91549 0.99998 0.37558 0.0
C1881 C 0.93279 0.0034 0.39528 0.0
C1882 C 0.85421 0.99406 0.41335 0.0
C1883 C 0.925 0.99921 0.34877 0.0
H1884 H 0.8463 0.94206 0.32791 0.0
H1885 H 0.83312 0.02088 0.31791 0.0
H1886 H 0.90038 0.94655 0.36454 0.0
H1887 H 0.87484 0.94463 0.38632 0.0
H1888 H 0.87417 0.92617 0.35788 0.0
H1889 H 0.85196 0.05133 0.3436 0.0
H1890 H 0.85879 0.04087 0.3752 0.0
H1891 H 0.88357 0.04293 0.35257 0.0
H1892 H 0.89304 1.00091 0.44543 0.0
H1893 H 0.95253 0.00553 0.39071 0.0
H1894 H 0.84741 0.97562 0.40649 0.0
H1895 H 0.84274 0.00868 0.40392 0.0
H1896 H 0.85092 0.99516 0.434 0.0
H1897 H 0.92146 0.98041 0.34057 0.0
H1898 H 0.94546 0.00325 0.34747 0.0
H1899 H 0.91471 0.01304 0.33705 0.0
C1900 C 0.00917 0.84016 0.3312 0.0
C1901 C 0.03122 0.84396 0.3171 0.0
C1902 C 0.0028 0.85607 0.3514 0.0
C1903 C 0.01896 0.87616 0.35793 0.0
C1904 C 0.04091 0.88049 0.34344 0.0
C1905 C 0.04663 0.86452 0.32315 0.0
C1906 C 0.9791 0.85097 0.3662 0.0
C1907 C 0.05869 0.90167 0.34974 0.0
C1908 C 0.99604 0.93139 0.39715 0.0
C1909 C 0.00563 0.92567 0.42113 0.0
C1910 C 0.99945 0.91505 0.37667 0.0
C1911 C 0.01316 0.89255 0.38006 0.0
C1912 C 0.02231 0.88633 0.40438 0.0
C1913 C 0.0183 0.90289 0.42466 0.0
C1914 C 0.98894 0.92223 0.35125 0.0
C1915 C 0.03736 0.86275 0.40882 0.0
H1916 H 0.99727 0.8242 0.32705 0.0
H1917 H 0.06347 0.86798 0.31219 0.0
H1918 H 0.98401 0.84593 0.38587 0.0
H1919 H 0.96728 0.86809 0.367 0.0
H1920 H 0.96782 0.8355 0.35792 0.0
H1921 H 0.07485 0.9027 0.33651 0.0
H1922 H 0.04855 0.91984 0.34928 0.0
H1923 H 0.06609 0.89922 0.36914 0.0
H1924 H 0.98604 0.94888 0.39429 0.0
H1925 H 0.026 0.89847 0.44304 0.0
H1926 H 0.97762 0.9066 0.34338 0.0
H1927 H 0.00459 0.92585 0.33792 0.0
H1928 H 0.97695 0.93926 0.35221 0.0
H1929 H 0.02813 0.84637 0.39987 0.0
H1930 H 0.03986 0.85879 0.4292 0.0
H1931 H 0.05622 0.86484 0.40011 0.0
C1932 C 0.16366 0.9534 0.33771 0.0
C1933 C 0.16947 0.97203 0.31989 0.0
C1934 C 0.14778 0.95837 0.35828 0.0
C1935 C 0.13748 0.98265 0.36134 0.0
C1936 C 0.1435 0.00165 0.34368 0.0
C1937 C 0.15939 0.99613 0.32319 0.0
C1938 C 0.14179 0.93751 0.37659 0.0
C1939 C 0.13282 0.02775 0.34622 0.0
C1940 C 0.07623 0.98821 0.39784 0.0
C1941 C 0.08437 0.99645 0.42166 0.0
C1942 C 0.09328 0.98371 0.37819 0.0
C1943 C 0.11927 0.9877 0.38219 0.0
C1944 C 0.12773 0.99605 0.40612 0.0
C1945 C 0.1102 1.00019 0.42562 0.0
C1946 C 0.08343 0.97439 0.35317 0.0
C1947 C 0.1553 1.00049 0.41113 0.0
H1948 H 0.17178 0.93487 0.33575 0.0
H1949 H 0.16361 0.01062 0.30953 0.0
H1950 H 0.14661 0.94331 0.39607 0.0
H1951 H 0.12132 0.93347 0.37624 0.0
H1952 H 0.1521 0.91994 0.37214 0.0
H1953 H 0.14029 0.04075 0.33169 0.0
H1954 H 0.11204 0.02708 0.34448 0.0
H1955 H 0.13721 0.03547 0.36513 0.0
H1956 H 0.05641 0.98485 0.39452 0.0
H1957 H 0.11673 0.00648 0.4439 0.0
H1958 H 0.09189 0.95591 0.34867 0.0
H1959 H 0.08891 0.98752 0.33793 0.0
H1960 H 0.06263 0.97236 0.35306 0.0
H1961 H 0.16596 0.98282 0.40837 0.0
H1962 H 0.15882 0.00744 0.43054 0.0
H1963 H 0.16284 0.01435 0.3975 0.0
C1964 C 0.00241 0.84028 0.67548 0.0
C1965 C 0.98121 0.84442 0.69074 0.0
C1966 C 0.00791 0.8561 0.65497 0.0
C1967 C 0.99172 0.87643 0.64934 0.0
C1968 C 0.97071 0.88113 0.66506 0.0
C1969 C 0.96586 0.86525 0.68562 0.0
C1970 C 0.03074 0.85069 0.63895 0.0
C1971 C 0.95295 0.9026 0.6598 0.0
C1972 C 0.01254 0.93149 0.60882 0.0
C1973 C 0.00139 0.92587 0.5855 0.0
C1974 C 0.01042 0.9151 0.62942 0.0
C1975 C 0.99639 0.89269 0.62688 0.0
C1976 C 0.98563 0.88659 0.60319 0.0
C1977 C 0.98846 0.90314 0.58271 0.0
C1978 C 0.02265 0.92215 0.65411 0.0
C1979 C 0.97029 0.86304 0.59973 0.0
H1980 H 0.01426 0.82413 0.67899 0.0
H1981 H 0.94972 0.86896 0.6975 0.0
H1982 H 0.02474 0.84548 0.61963 0.0
H1983 H 0.0426 0.86772 0.63731 0.0
H1984 H 0.04236 0.83523 0.64676 0.0
H1985 H 0.93752 0.90379 0.67386 0.0
H1986 H 0.96339 0.9206 0.65985 0.0
H1987 H 0.94454 0.90036 0.6408 0.0
H1988 H 0.02284 0.94889 0.61105 0.0
H1989 H 0.9797 0.89875 0.5648 0.0
H1990 H 0.03425 0.90638 0.66123 0.0
H1991 H 0.00795 0.92597 0.66843 0.0
H1992 H 0.03478 0.93903 0.65236 0.0
H1993 H 0.98138 0.8464 0.60553 0.0
H1994 H 0.96407 0.86044 0.57992 0.0
H1995 H 0.9534 0.8638 0.612 0.0
C1996 C 0.16211 0.00988 0.68195 0.0
C1997 C 0.16868 0.98538 0.68905 0.0
C1998 C 0.14605 0.01431 0.6613 0.0
C1999 C 0.13647 0.99379 0.64728 0.0
C2000 C 0.14336 0.96909 0.65415 0.0
C2001 C 0.15931 0.96521 0.67487 0.0
C2002 C 0.13902 0.04092 0.65469 0.0
C2003 C 0.13371 0.94666 0.63971 0.0
C2004 C 0.07501 0.99928 0.61112 0.0
C2005 C 0.08322 0.0013 0.586 0.0
C2006 C 0.09212 0.99755 0.63117 0.0
C2007 C 0.11826 0.99784 0.6262 0.0
C2008 C 0.12678 1.00044 0.60102 0.0
C2009 C 0.10919 0.0021 0.58122 0.0
C2010 C 0.08214 0.99478 0.65768 0.0
C2011 C 0.1545 1.00092 0.59492 0.0
H2012 H 0.16923 0.02557 0.69279 0.0
H2013 H 0.16475 0.94625 0.67976 0.0
H2014 H 0.14359 0.04481 0.63467 0.0
H2015 H 0.11844 0.04354 0.65693 0.0
H2016 H 0.14887 0.05486 0.6667 0.0
H2017 H 0.14147 0.92872 0.64695 0.0
H2018 H 0.1129 0.94587 0.64092 0.0
H2019 H 0.13869 0.94842 0.61948 0.0
H2020 H 0.05506 0.99865 0.61524 0.0
H2021 H 0.11583 0.00387 0.562 0.0
H2022 H 0.09046 0.0093 0.67011 0.0
H2023 H 0.08766 0.97624 0.66537 0.0
H2024 H 0.06132 0.99637 0.65854 0.0
H2025 H 0.1641 0.01552 0.60628 0.0
H2026 H 0.1581 0.00466 0.57465 0.0
H2027 H 0.1631 0.98264 0.59994 0.0
C2028 C 0.05107 0.16295 0.66926 0.0
C2029 C 0.03177 0.17168 0.68509 0.0
C2030 C 0.04606 0.14659 0.64913 0.0
C2031 C 0.02105 0.13878 0.64444 0.0
C2032 C 0.00138 0.1478 0.66004 0.0
C2033 C 0.00696 0.16412 0.68016 0.0
C2034 C 0.06762 0.13747 0.63301 0.0
C2035 C 0.97446 0.13995 0.65564 0.0
C2036 C 0.00775 0.11051 0.57965 0.0
C2037 C 0.009 0.0847 0.58473 0.0
C2038 C 0.01099 0.12835 0.59897 0.0
C2039 C 0.0158 0.12026 0.62396 0.0
C2040 C 0.01679 0.09428 0.62924 0.0
C2041 C 0.0133 0.0769 0.60968 0.0
C2042 C 0.0097 0.15589 0.59257 0.0
C2043 C 0.02215 0.08477 0.65551 0.0
H2044 H 0.07023 0.16913 0.67242 0.0
H2045 H 0.99191 0.17066 0.69226 0.0
H2046 H 0.06907 0.11675 0.63425 0.0
H2047 H 0.06415 0.14222 0.61297 0.0
H2048 H 0.08592 0.14572 0.63878 0.0
H2049 H 0.96118 0.14952 0.66864 0.0
H2050 H 0.96888 0.14417 0.63595 0.0
H2051 H 0.97262 0.11941 0.65829 0.0
H2052 H 0.00441 0.11684 0.56054 0.0
H2053 H 0.01446 0.05709 0.614 0.0
H2054 H 0.02829 0.16473 0.59591 0.0
H2055 H 0.99594 0.16546 0.605 0.0
H2056 H 0.00423 0.15915 0.57264 0.0
H2057 H 0.04107 0.0911 0.6616 0.0
H2058 H 0.02147 0.06398 0.65669 0.0
H2059 H 0.00832 0.09263 0.66902 0.0
C2060 C 0.84937 0.04732 0.6743 0.0
C2061 C 0.83706 0.02734 0.68639 0.0
C2062 C 0.86589 0.04319 0.65406 0.0
C2063 C 0.87023 0.01846 0.6454 0.0
C2064 C 0.85783 0.99818 0.65738 0.0
C2065 C 0.84145 0.00285 0.67771 0.0
C2066 C 0.87875 0.06537 0.64194 0.0
C2067 C 0.86198 0.97153 0.64878 0.0
C2068 C 0.89822 0.01186 0.5794 0.0
C2069 C 0.92391 0.00878 0.58471 0.0
C2070 C 0.88042 0.0144 0.59894 0.0
C2071 C 0.88846 0.01391 0.62441 0.0
C2072 C 0.91424 0.01027 0.62988 0.0
C2073 C 0.93156 0.00774 0.61007 0.0
C2074 C 0.85308 0.01814 0.5923 0.0
C2075 C 0.92369 0.00968 0.65672 0.0
H2076 H 0.84573 0.06637 0.68036 0.0
H2077 H 0.83222 0.98725 0.68695 0.0
H2078 H 0.89946 0.06331 0.64349 0.0
H2079 H 0.87411 0.0661 0.62157 0.0
H2080 H 0.87321 0.08344 0.65073 0.0
H2081 H 0.85036 0.95791 0.65951 0.0
H2082 H 0.8574 0.96976 0.62846 0.0
H2083 H 0.88208 0.96641 0.65104 0.0
H2084 H 0.89199 0.01267 0.55998 0.0
H2085 H 0.95126 0.00523 0.61462 0.0
H2086 H 0.84679 0.03689 0.59879 0.0
H2087 H 0.84132 0.00401 0.60211 0.0
H2088 H 0.84964 0.01669 0.57171 0.0
H2089 H 0.9201 0.02803 0.66588 0.0
H2090 H 0.94414 0.00559 0.65786 0.0
H2091 H 0.91338 0.99526 0.66769 0.0
C2092 C 0.32292 0.96102 0.14186 0.0
C2093 C 0.31724 0.97535 0.16333 0.0
C2094 C 0.34338 0.96705 0.12623 0.0
C2095 C 0.35842 0.98822 0.13186 0.0
C2096 C 0.35217 0.00346 0.15282 0.0
C2097 C 0.33177 0.99678 0.16836 0.0
C2098 C 0.34929 0.95029 0.10406 0.0
C2099 C 0.36746 0.02643 0.15921 0.0
C2100 C 0.4252 0.98716 0.10553 0.0
C2101 C 0.42233 1.00056 0.083 0.0
C2102 C 0.40472 0.98355 0.12197 0.0
C2103 C 0.38092 0.99399 0.11596 0.0
C2104 C 0.37829 0.00858 0.09383 0.0
C2105 C 0.39891 0.01149 0.07755 0.0
C2106 C 0.40828 0.96765 0.14521 0.0
C2107 C 0.35347 0.0205 0.08692 0.0
H2108 H 0.31158 0.94472 0.13747 0.0
H2109 H 0.3278 0.00787 0.18501 0.0
H2110 H 0.3492 0.96135 0.08636 0.0
H2111 H 0.36843 0.94227 0.10622 0.0
H2112 H 0.33565 0.93464 0.10211 0.0
H2113 H 0.35909 0.03732 0.17497 0.0
H2114 H 0.3868 0.02079 0.16461 0.0
H2115 H 0.36907 0.03882 0.1425 0.0
H2116 H 0.44318 0.97857 0.10981 0.0
H2117 H 0.3966 0.02216 0.06032 0.0
H2118 H 0.39658 0.95049 0.14372 0.0
H2119 H 0.40193 0.978 0.16219 0.0
H2120 H 0.4282 0.96197 0.14793 0.0
H2121 H 0.33957 0.00569 0.08229 0.0
H2122 H 0.35516 0.03327 0.07047 0.0
H2123 H 0.34588 0.03126 0.10311 0.0
C2124 C 0.96436 0.33277 0.15808 0.0
C2125 C 0.98439 0.32033 0.17001 0.0
C2126 C 0.96855 0.35322 0.14197 0.0
C2127 C 0.99339 0.36175 0.1377 0.0
C2128 C 0.01373 0.34947 0.14978 0.0
C2129 C 0.009 0.32891 0.16574 0.0
C2130 C 0.94632 0.36566 0.12941 0.0
C2131 C 0.0405 0.35795 0.14566 0.0
C2132 C 0.00388 0.39738 0.0766 0.0
C2133 C 0.00295 0.42254 0.08451 0.0
C2134 C 0.00142 0.37754 0.09378 0.0
C2135 C 0.99801 0.38278 0.11968 0.0
C2136 C 0.9977 0.40805 0.12798 0.0
C2137 C 1.00015 0.42763 0.11031 0.0
C2138 C 0.00177 0.35093 0.08403 0.0
C2139 C 0.9942 0.4144 0.15547 0.0
H2140 H 0.94522 0.32678 0.16168 0.0
H2141 H 0.02463 0.31942 0.1747 0.0
H2142 H 0.94583 0.38588 0.13427 0.0
H2143 H 0.94819 0.3643 0.10863 0.0
H2144 H 0.92814 0.35706 0.13503 0.0
H2145 H 0.05413 0.34708 0.15717 0.0
H2146 H 0.04557 0.35586 0.12549 0.0
H2147 H 0.04238 0.3781 0.15045 0.0
H2148 H 0.00618 0.393 0.0568 0.0
H2149 H 0.99944 0.4469 0.11672 0.0
H2150 H 0.98323 0.34201 0.08742 0.0
H2151 H 0.01605 0.33973 0.0943 0.0
H2152 H 0.00596 0.34996 0.06355 0.0
H2153 H 0.97536 0.40809 0.16181 0.0
H2154 H 0.9959 0.43484 0.15912 0.0
H2155 H 0.00833 0.40436 0.16706 0.0
C2156 C 0.68357 0.95815 0.14562 0.0
C2157 C 0.68931 0.97328 0.16653 0.0
C2158 C 0.6633 0.96381 0.12959 0.0
C2159 C 0.64852 0.98542 0.13423 0.0
C2160 C 0.65467 0.00125 0.15476 0.0
C2161 C 0.67484 0.99494 0.17072 0.0
C2162 C 0.65741 0.94637 0.10794 0.0
C2163 C 0.63958 0.02461 0.16018 0.0
C2164 C 0.61007 0.00935 0.07874 0.0
C2165 C 0.58607 0.99968 0.084 0.0
C2166 C 0.63031 0.00556 0.09531 0.0
C2167 C 0.62667 0.99136 0.11755 0.0
C2168 C 0.60235 0.982 0.12325 0.0
C2169 C 0.5823 0.98645 0.10651 0.0
C2170 C 0.65576 0.01625 0.08869 0.0
C2171 C 0.59771 0.96643 0.14654 0.0
H2172 H 0.69481 0.94162 0.14188 0.0
H2173 H 0.67874 0.0066 0.18697 0.0
H2174 H 0.638 0.93899 0.10991 0.0
H2175 H 0.65825 0.95674 0.08984 0.0
H2176 H 0.67062 0.93027 0.10693 0.0
H2177 H 0.64744 0.03556 0.17615 0.0
H2178 H 0.63901 0.03678 0.14324 0.0
H2179 H 0.61989 0.01945 0.16475 0.0
H2180 H 0.61311 0.01975 0.06146 0.0
H2181 H 0.5639 0.97867 0.11056 0.0
H2182 H 0.66927 1.00078 0.08523 0.0
H2183 H 0.66319 0.02747 0.10464 0.0
H2184 H 0.65508 0.02831 0.07164 0.0
H2185 H 0.60798 0.9484 0.14491 0.0
H2186 H 0.57743 0.96233 0.14936 0.0
H2187 H 0.60497 0.97619 0.1635 0.0
C2188 C 0.00198 0.67848 0.16637 0.0
C2189 C 0.02656 0.68714 0.17072 0.0
C2190 C 0.99727 0.65837 0.1498 0.0
C2191 C 0.01758 0.64656 0.13719 0.0
C2192 C 0.0424 0.65518 0.14152 0.0
C2193 C 0.04657 0.67523 0.1582 0.0
C2194 C 0.97053 0.64978 0.14571 0.0
C2195 C 0.06463 0.64318 0.12853 0.0
C2196 C 0.01073 0.58088 0.10922 0.0
C2197 C 0.00745 0.5861 0.08348 0.0
C2198 C 0.01349 0.60033 0.12699 0.0
C2199 C 0.01297 0.62566 0.11892 0.0
C2200 C 0.00915 0.63105 0.09309 0.0
C2201 C 0.00643 0.61131 0.07577 0.0
C2202 C 0.01747 0.59374 0.15436 0.0
C2203 C 0.00851 0.65774 0.08361 0.0
H2204 H 0.98636 0.68756 0.17577 0.0
H2205 H 0.06569 0.68128 0.1618 0.0
H2206 H 0.96535 0.652 0.12558 0.0
H2207 H 0.96879 0.62957 0.15033 0.0
H2208 H 0.95688 0.66046 0.15737 0.0
H2209 H 0.08276 0.65203 0.13393 0.0
H2210 H 0.06552 0.62295 0.13327 0.0
H2211 H 0.06242 0.64461 0.10779 0.0
H2212 H 0.01157 0.56157 0.1155 0.0
H2213 H 0.00379 0.61577 0.05603 0.0
H2214 H 0.00345 0.60357 0.16628 0.0
H2215 H 0.03637 0.60012 0.16047 0.0
H2216 H 0.01597 0.57326 0.15785 0.0
H2217 H 0.99409 0.66866 0.09399 0.0
H2218 H 0.00432 0.65884 0.06313 0.0
H2219 H 0.02694 0.66685 0.08711 0.0
C2220 C 0.33535 0.00383 0.83593 0.0
C2221 C 0.31806 0.98489 0.84227 0.0
C2222 C 0.35574 0.00969 0.85179 0.0
C2223 C 0.3594 0.99593 0.87431 0.0
C2224 C 0.34178 0.97723 0.88115 0.0
C2225 C 0.3212 0.97224 0.86531 0.0
C2226 C 0.3738 0.03012 0.84407 0.0
C2227 C 0.34507 0.96191 0.90487 0.0
C2228 C 0.42519 0.98982 0.90223 0.0
C2229 C 0.42343 0.00516 0.92358 0.0
C2230 C 0.40465 0.98704 0.88574 0.0
C2231 C 0.38205 1.0004 0.89039 0.0
C2232 C 0.3807 0.0169 0.91126 0.0
C2233 C 0.40126 0.01878 0.9278 0.0
C2234 C 0.40674 0.96882 0.86408 0.0
C2235 C 0.35733 0.03211 0.9165 0.0
H2236 H 0.33351 0.01358 0.81813 0.0
H2237 H 0.30774 0.95804 0.87087 0.0
H2238 H 0.37648 0.04359 0.85978 0.0
H2239 H 0.39245 0.02185 0.83978 0.0
H2240 H 0.36716 0.04055 0.82722 0.0
H2241 H 0.3297 0.94806 0.90755 0.0
H2242 H 0.36324 0.95167 0.90414 0.0
H2243 H 0.34569 0.97439 0.92157 0.0
H2244 H 0.44218 0.97903 0.89909 0.0
H2245 H 0.39991 0.03081 0.94422 0.0
H2246 H 0.39998 0.97747 0.84633 0.0
H2247 H 0.3947 0.95226 0.86791 0.0
H2248 H 0.42634 0.96231 0.86123 0.0
H2249 H 0.35134 0.04226 0.89927 0.0
H2250 H 0.36024 0.04595 0.93188 0.0
H2251 H 0.34172 0.01945 0.92197 0.0
C2252 C 0.05121 0.33533 0.84865 0.0
C2253 C 0.03153 0.32261 0.83643 0.0
C2254 C 0.04644 0.35502 0.86558 0.0
C2255 C 0.02133 0.36242 0.87043 0.0
C2256 C 0.00134 0.3498 0.85812 0.0
C2257 C 0.00667 0.33007 0.84131 0.0
C2258 C 0.06833 0.36792 0.87829 0.0
C2259 C 0.97431 0.35708 0.86282 0.0
C2260 C 0.00955 0.39683 0.93214 0.0
C2261 C 0.00908 0.42206 0.92446 0.0
C2262 C 0.01303 0.37731 0.91472 0.0
C2263 C 0.01609 0.38297 0.88885 0.0
C2264 C 0.01514 0.4083 0.88083 0.0
C2265 C 0.01166 0.42751 0.89869 0.0
C2266 C 0.01401 0.35061 0.92414 0.0
C2267 C 0.01834 0.41514 0.85342 0.0
H2268 H 0.07052 0.33019 0.84465 0.0
H2269 H 0.99131 0.32031 0.83215 0.0
H2270 H 0.06808 0.38825 0.8739 0.0
H2271 H 0.06669 0.36603 0.89904 0.0
H2272 H 0.08676 0.36009 0.87233 0.0
H2273 H 0.96095 0.34584 0.85137 0.0
H2274 H 0.96967 0.3545 0.88304 0.0
H2275 H 0.97151 0.37721 0.85838 0.0
H2276 H 0.00755 0.39221 0.95191 0.0
H2277 H 0.01135 0.44684 0.89243 0.0
H2278 H 0.03292 0.34259 0.92049 0.0
H2279 H 1.00018 0.33889 0.91383 0.0
H2280 H 0.01005 0.34922 0.94464 0.0
H2281 H 0.0374 0.40964 0.84696 0.0
H2282 H 0.01584 0.43554 0.85004 0.0
H2283 H 0.00458 0.40472 0.84171 0.0
C2284 C 0.68576 0.04757 0.86486 0.0
C2285 C 0.69174 0.03251 0.84398 0.0
C2286 C 0.66526 0.04186 0.88056 0.0
C2287 C 0.65045 0.02037 0.87555 0.0
C2288 C 0.65683 0.00463 0.85502 0.0
C2289 C 0.67731 0.01092 0.83945 0.0
C2290 C 0.65921 0.05908 0.90232 0.0
C2291 C 0.64167 0.98143 0.84916 0.0
C2292 C 0.61096 0.99609 0.93014 0.0
C2293 C 0.58713 0.00601 0.92463 0.0
C2294 C 0.63149 0.99995 0.91395 0.0
C2295 C 0.6283 0.01445 0.89184 0.0
C2296 C 0.60416 0.02414 0.88591 0.0
C2297 C 0.58381 0.01961 0.90226 0.0
C2298 C 0.65676 0.98902 0.92087 0.0
C2299 C 0.60002 0.04008 0.86277 0.0
H2300 H 0.69696 0.06409 0.86877 0.0
H2301 H 0.68145 0.99935 0.82319 0.0
H2302 H 0.63985 0.06658 0.90027 0.0
H2303 H 0.65984 0.04845 0.92026 0.0
H2304 H 0.6725 0.07509 0.90367 0.0
H2305 H 0.64968 0.97057 0.83321 0.0
H2306 H 0.64077 0.9691 0.86598 0.0
H2307 H 0.62208 0.98677 0.84437 0.0
H2308 H 0.61365 0.98545 0.94733 0.0
H2309 H 0.56554 0.02761 0.89805 0.0
H2310 H 0.67029 0.00437 0.92475 0.0
H2311 H 0.6644 0.97795 0.90492 0.0
H2312 H 0.65572 0.97676 0.93776 0.0
H2313 H 0.61135 0.05749 0.86422 0.0
H2314 H 0.57996 0.04535 0.86027 0.0
H2315 H 0.60646 0.02993 0.8457 0.0
C2316 C 0.96801 0.67736 0.85118 0.0
C2317 C 0.98819 0.68875 0.83848 0.0
C2318 C 0.97174 0.65681 0.86731 0.0
C2319 C 0.99626 0.64706 0.87077 0.0
C2320 C 0.01675 0.65831 0.85797 0.0
C2321 C 0.01249 0.67901 0.84205 0.0
C2322 C 0.94936 0.64553 0.88068 0.0
C2323 C 0.04319 0.64851 0.86118 0.0
C2324 C 0.00667 0.61062 0.93143 0.0
C2325 C 0.00394 0.58558 0.92352 0.0
C2326 C 0.00493 0.63064 0.91438 0.0
C2327 C 1.00039 0.62573 0.88859 0.0
C2328 C 0.99838 0.60054 0.88024 0.0
C2329 C 1.00018 0.58077 0.89778 0.0
C2330 C 0.00721 0.65714 0.92417 0.0
C2331 C 0.99371 0.59451 0.85286 0.0
H2332 H 0.94906 0.6842 0.84817 0.0
H2333 H 0.02827 0.68769 0.83251 0.0
H2334 H 0.94758 0.6254 0.87574 0.0
H2335 H 0.9521 0.64665 0.90138 0.0
H2336 H 0.93147 0.65514 0.87581 0.0
H2337 H 0.05696 0.65878 0.8493 0.0
H2338 H 0.049 0.6502 0.88118 0.0
H2339 H 0.04392 0.62832 0.85622 0.0
H2340 H 0.00988 0.61475 0.95116 0.0
H2341 H 0.99812 0.5616 0.89137 0.0
H2342 H 0.98907 0.6671 0.92159 0.0
H2343 H 0.02166 0.66757 0.91336 0.0
H2344 H 0.01229 0.65775 0.94447 0.0
H2345 H 0.97499 0.60174 0.84715 0.0
H2346 H 0.99431 0.57404 0.84907 0.0
H2347 H 0.00793 0.60393 0.84084 0.0
C2348 C 0.17378 0.33666 0.99833 0.0
C2349 C 0.16704 0.31826 0.98056 0.0
C2350 C 0.15784 0.35706 0.00376 0.0
C2351 C 0.13478 0.3597 0.99067 0.0
C2352 C 0.12767 0.34116 0.97294 0.0
C2353 C 0.14358 0.32056 0.96846 0.0
C2354 C 0.16589 0.37604 0.02326 0.0
C2355 C 0.10343 0.34337 0.95823 0.0
C2356 C 0.08156 0.40056 0.01593 0.0
C2357 C 0.08472 0.42277 0.00215 0.0
C2358 C 0.09823 0.38028 0.01307 0.0
C2359 C 0.1181 0.38187 0.99534 0.0
C2360 C 0.12145 0.40437 0.98146 0.0
C2361 C 0.10496 0.42469 0.98534 0.0
C2362 C 0.09432 0.35701 0.02877 0.0
C2363 C 0.14187 0.40667 0.96185 0.0
H2364 H 0.19189 0.33561 0.0076 0.0
H2365 H 0.13764 0.30634 0.95517 0.0
H2366 H 0.16896 0.3945 0.01416 0.0
H2367 H 0.15083 0.37853 0.03753 0.0
H2368 H 0.18348 0.37044 0.03305 0.0
H2369 H 0.10085 0.3277 0.94468 0.0
H2370 H 0.08716 0.34365 0.9713 0.0
H2371 H 0.10317 0.3613 0.94762 0.0
H2372 H 0.06594 0.39904 0.02899 0.0
H2373 H 0.10724 0.44169 0.97437 0.0
H2374 H 0.11201 0.35194 0.03861 0.0
H2375 H 0.08925 0.34103 0.0164 0.0
H2376 H 0.07921 0.35945 0.04302 0.0
H2377 H 0.16055 0.40343 0.97057 0.0
H2378 H 0.14194 0.42536 0.95264 0.0
H2379 H 0.13925 0.39211 0.94714 0.0
C2380 C 0.15376 0.68788 1.00131 0.0
C2381 C 0.16798 0.68841 0.97903 0.0
C2382 C 0.13806 0.66735 0.00699 0.0
C2383 C 0.13651 0.64689 0.98998 0.0
C2384 C 0.15135 0.64705 0.96786 0.0
C2385 C 0.16693 0.66765 0.96276 0.0
C2386 C 0.12263 0.66782 0.03085 0.0
C2387 C 0.15028 0.62572 0.94915 0.0
C2388 C 0.10802 0.58381 0.00862 0.0
C2389 C 0.0836 0.58598 0.99889 0.0
C2390 C 0.12527 0.60378 0.00663 0.0
C2391 C 0.11806 0.62618 0.99415 0.0
C2392 C 0.09343 0.62835 0.98426 0.0
C2393 C 0.07652 0.60837 0.98692 0.0
C2394 C 0.15123 0.60086 0.01774 0.0
C2395 C 0.08504 0.65161 0.97036 0.0
H2396 H 0.15446 0.70376 0.01403 0.0
H2397 H 0.17838 0.66747 0.94586 0.0
H2398 H 0.10235 0.66894 0.02605 0.0
H2399 H 0.12548 0.65025 0.04165 0.0
H2400 H 0.12748 0.684 0.0431 0.0
H2401 H 0.16376 0.62822 0.93336 0.0
H2402 H 0.15445 0.6077 0.95869 0.0
H2403 H 0.13102 0.62426 0.94121 0.0
H2404 H 0.11352 0.56666 0.01809 0.0
H2405 H 0.05775 0.61014 0.97912 0.0
H2406 H 0.1554 0.61676 0.03055 0.0
H2407 H 0.16548 0.60125 0.00248 0.0
H2408 H 0.15332 0.58306 0.02839 0.0
H2409 H 0.08729 0.66833 0.98258 0.0
H2410 H 0.0651 0.65049 0.96419 0.0
H2411 H 0.09701 0.65451 0.95349 0.0
C2412 C 0.32556 0.14516 0.96196 0.0
C2413 C 0.31929 0.16552 0.97756 0.0
C2414 C 0.34587 0.12926 0.96764 0.0
C2415 C 0.36028 0.1335 0.98969 0.0
C2416 C 0.35353 0.15341 0.00605 0.0
C2417 C 0.33321 0.1692 0.99976 0.0
C2418 C 0.35225 0.10819 0.94971 0.0
C2419 C 0.36814 0.15838 0.02991 0.0
C2420 C 0.39952 0.0779 0.01167 0.0
C2421 C 0.42341 0.0836 0.00188 0.0
C2422 C 0.37912 0.09441 0.00876 0.0
C2423 C 0.38245 0.11712 0.99536 0.0
C2424 C 0.40669 0.12335 0.98608 0.0
C2425 C 0.42692 0.10663 0.98962 0.0
C2426 C 0.35381 0.08714 0.01938 0.0
C2427 C 0.41104 0.14725 0.9715 0.0
H2428 H 0.31472 0.14181 0.945 0.0
H2429 H 0.3288 0.18498 0.01184 0.0
H2430 H 0.37168 0.11064 0.94248 0.0
H2431 H 0.35164 0.08996 0.95974 0.0
H2432 H 0.33917 0.10731 0.93342 0.0
H2433 H 0.35969 0.17365 0.04134 0.0
H2434 H 0.36904 0.14113 0.04156 0.0
H2435 H 0.38776 0.16364 0.02515 0.0
H2436 H 0.39664 0.06029 0.02145 0.0
H2437 H 0.44523 0.11114 0.98189 0.0
H2438 H 0.34043 0.08359 0.00375 0.0
H2439 H 0.34599 0.10267 0.03086 0.0
H2440 H 0.35485 0.07003 0.03127 0.0
H2441 H 0.39999 0.14679 0.95377 0.0
H2442 H 0.43118 0.15005 0.96669 0.0
H2443 H 0.40442 0.16362 0.98254 0.0
C2444 C 0.83426 0.33823 0.99851 0.0
C2445 C 0.84066 0.31979 0.98065 0.0
C2446 C 0.85067 0.35819 0.00414 0.0
C2447 C 0.87385 0.36032 0.99116 0.0
C2448 C 0.88066 0.34165 0.97347 0.0
C2449 C 0.86427 0.32148 0.96879 0.0
C2450 C 0.84295 0.37731 0.02362 0.0
C2451 C 0.90503 0.3433 0.95893 0.0
C2452 C 0.90457 0.42473 0.98503 0.0
C2453 C 0.92491 0.42264 0.0017 0.0
C2454 C 0.88772 0.40468 0.98153 0.0
C2455 C 0.89081 0.38228 0.99563 0.0
C2456 C 0.91078 0.38055 0.01325 0.0
C2457 C 0.92783 0.40056 0.01572 0.0
C2458 C 0.86721 0.40712 0.96201 0.0
C2459 C 0.91435 0.35744 0.02926 0.0
H2460 H 0.81606 0.33758 0.00763 0.0
H2461 H 0.86993 0.30717 0.95547 0.0
H2462 H 0.85811 0.37972 0.03778 0.0
H2463 H 0.83998 0.39577 0.01446 0.0
H2464 H 0.82536 0.37193 0.03354 0.0
H2465 H 0.90744 0.32747 0.94554 0.0
H2466 H 0.90566 0.36112 0.94817 0.0
H2467 H 0.92122 0.34342 0.97211 0.0
H2468 H 0.90248 0.44166 0.97392 0.0
H2469 H 0.94348 0.39897 0.02872 0.0
H2470 H 0.84861 0.40304 0.97052 0.0
H2471 H 0.87031 0.39318 0.94679 0.0
H2472 H 0.86662 0.42612 0.95347 0.0
H2473 H 0.92941 0.3599 0.04356 0.0
H2474 H 0.91932 0.34125 0.01712 0.0
H2475 H 0.89656 0.35267 0.03908 0.0
C2476 C 0.67878 0.84066 0.00375 0.0
C2477 C 0.68714 0.83625 0.02847 0.0
C2478 C 0.65853 0.85699 0.99883 0.0
C2479 C 0.6463 0.86933 0.01907 0.0
C2480 C 0.65461 0.86496 0.04404 0.0
C2481 C 0.67479 0.84848 0.04842 0.0
C2482 C 0.65033 0.86118 0.97194 0.0
C2483 C 0.64222 0.87777 0.0662 0.0
C2484 C 0.61142 0.93047 0.00697 0.0
C2485 C 0.58608 0.92289 0.00719 0.0
C2486 C 0.63107 0.91323 0.01043 0.0
C2487 C 0.62547 0.88757 0.01416 0.0
C2488 C 0.60001 0.87961 0.01396 0.0
C2489 C 0.58064 0.89733 0.0105 0.0
C2490 C 0.65788 0.92261 0.01062 0.0
C2491 C 0.59322 0.85243 0.0179 0.0
H2492 H 0.68822 0.83153 0.98816 0.0
H2493 H 0.68062 0.84485 0.06764 0.0
H2494 H 0.63006 0.85667 0.96987 0.0
H2495 H 0.65271 0.88122 0.96687 0.0
H2496 H 0.6612 0.8496 0.95837 0.0
H2497 H 0.6507 0.87217 0.08448 0.0
H2498 H 0.64385 0.89841 0.06422 0.0
H2499 H 0.62187 0.8732 0.06664 0.0
H2500 H 0.61606 0.95008 0.00437 0.0
H2501 H 0.56122 0.89117 0.01081 0.0
H2502 H 0.66927 0.91224 0.99655 0.0
H2503 H 0.66642 0.91917 0.02938 0.0
H2504 H 0.65916 0.94297 0.00641 0.0
H2505 H 0.60331 0.8405 0.00408 0.0
H2506 H 0.5727 0.84903 0.01601 0.0
H2507 H 0.59924 0.84637 0.03697 0.0
C2508 C 0.86429 0.68349 0.04651 0.0
C2509 C 0.84327 0.68933 0.03156 0.0
C2510 C 0.88003 0.66311 0.0407 0.0
C2511 C 0.875 0.64829 0.01914 0.0
C2512 C 0.8544 0.65459 0.00342 0.0
C2513 C 0.83874 0.67491 0.00987 0.0
C2514 C 0.90178 0.65713 0.058 0.0
C2515 C 0.84858 0.6395 0.98008 0.0
C2516 C 0.93004 0.60906 0.99565 0.0
C2517 C 0.92469 0.58539 0.00591 0.0
C2518 C 0.91355 0.62938 0.99892 0.0
C2519 C 0.89131 0.62619 0.01324 0.0
C2520 C 0.88547 0.60216 0.02311 0.0
C2521 C 0.90211 0.582 0.01913 0.0
C2522 C 0.92034 0.65447 0.98765 0.0
C2523 C 0.86217 0.59798 0.03881 0.0
H2524 H 0.86831 0.6947 0.06305 0.0
H2525 H 0.82243 0.67893 0.99832 0.0
H2526 H 0.89964 0.63788 0.06564 0.0
H2527 H 0.91971 0.65763 0.04733 0.0
H2528 H 0.90316 0.67045 0.07403 0.0
H2529 H 0.83275 0.64758 0.9691 0.0
H2530 H 0.86541 0.6385 0.96776 0.0
H2531 H 0.84366 0.62001 0.98544 0.0
H2532 H 0.94736 0.61179 0.98521 0.0
H2533 H 0.89796 0.56384 0.02731 0.0
H2534 H 0.92433 0.6681 0.00293 0.0
H2535 H 0.90432 0.66198 0.97657 0.0
H2536 H 0.9371 0.65333 0.9752 0.0
H2537 H 0.8637 0.60875 0.05664 0.0
H2538 H 0.85933 0.57789 0.04351 0.0
H2539 H 0.84529 0.60494 0.02872 0.0
C2540 C 0.32874 0.8434 0.00718 0.0
C2541 C 0.31983 0.839 0.98267 0.0
C2542 C 0.34909 0.8597 0.01161 0.0
C2543 C 0.36087 0.87193 0.99105 0.0
C2544 C 0.352 0.86757 0.96629 0.0
C2545 C 0.33169 0.85117 0.96241 0.0
C2546 C 0.35793 0.86393 0.0383 0.0
C2547 C 0.36398 0.88022 0.94382 0.0
C2548 C 0.39679 0.93268 0.0016 0.0
C2549 C 0.42199 0.92473 1.00057 0.0
C2550 C 0.37682 0.91565 0.99903 0.0
C2551 C 0.382 0.88989 0.99537 0.0
C2552 C 0.40732 0.88158 0.99479 0.0
C2553 C 0.427 0.89907 0.9974 0.0
C2554 C 0.35014 0.92537 0.99967 0.0
C2555 C 0.41364 0.85427 0.99091 0.0
H2556 H 0.31966 0.83422 0.02297 0.0
H2557 H 0.3254 0.84752 0.94334 0.0
H2558 H 0.37817 0.85914 0.03995 0.0
H2559 H 0.35595 0.88403 0.04331 0.0
H2560 H 0.34719 0.85258 0.05216 0.0
H2561 H 0.355 0.87467 0.92576 0.0
H2562 H 0.3626 0.90088 0.9458 0.0
H2563 H 0.38427 0.87544 0.94289 0.0
H2564 H 0.3925 0.95237 0.00415 0.0
H2565 H 0.44631 0.89263 0.99653 0.0
H2566 H 0.3391 0.91521 0.01416 0.0
H2567 H 0.34094 0.92192 0.98123 0.0
H2568 H 0.34924 0.94576 0.00381 0.0
H2569 H 0.40374 0.84259 0.00508 0.0
H2570 H 0.43415 0.8506 0.99232 0.0
H2571 H 0.40707 0.84816 0.97204 0.0
C2572 C 0.66566 0.16657 0.95827 0.0
C2573 C 0.68683 0.16881 0.97405 0.0
C2574 C 0.64591 0.14999 0.96388 0.0
C2575 C 0.64678 0.13565 0.98628 0.0
C2576 C 0.6676 0.13829 0.00276 0.0
C2577 C 0.68745 0.15461 0.99636 0.0
C2578 C 0.6243 0.1475 0.94554 0.0
C2579 C 0.66909 0.12356 0.02699 0.0
C2580 C 0.58466 0.10666 0.00784 0.0
C2581 C 0.58717 0.08189 0.99933 0.0
C2582 C 0.60419 0.12421 0.00441 0.0
C2583 C 0.6265 0.11697 0.99168 0.0
C2584 C 0.62905 0.092 0.98303 0.0
C2585 C 0.6095 0.0748 0.9871 0.0
C2586 C 0.6009 0.15054 0.01428 0.0
C2587 C 0.65216 0.08357 0.9688 0.0
H2588 H 0.66434 0.17791 0.9414 0.0
H2589 H 0.70362 0.15592 0.0087 0.0
H2590 H 0.62313 0.12791 0.93861 0.0
H2591 H 0.60625 0.15177 0.9551 0.0
H2592 H 0.62629 0.16017 0.92905 0.0
H2593 H 0.68555 0.12903 0.03864 0.0
H2594 H 0.65171 0.12637 0.03822 0.0
H2595 H 0.67047 0.10325 0.02272 0.0
H2596 H 0.56754 0.11228 0.01736 0.0
H2597 H 0.61153 0.05582 0.98007 0.0
H2598 H 0.60071 0.16399 0.99835 0.0
H2599 H 0.61699 0.15563 0.02657 0.0
H2600 H 0.58318 0.15278 0.02515 0.0
H2601 H 0.65333 0.09378 0.95062 0.0
H2602 H 0.65196 0.06312 0.96486 0.0
H2603 H 0.66941 0.08807 0.97963 0.0
C2604 C 0.49253 0.67544 0.83776 0.0
C2605 C 0.47336 0.66904 0.82069 0.0
C2606 C 0.49889 0.65961 0.85799 0.0
C2607 C 0.48544 0.63699 0.86166 0.0
C2608 C 0.46632 0.63021 0.84439 0.0
C2609 C 0.46076 0.6461 0.824 0.0
C2610 C 0.51975 0.66728 0.87568 0.0
C2611 C 0.45135 0.60636 0.84771 0.0
C2612 C 0.51204 0.58347 0.90086 0.0
C2613 C 0.49956 0.58675 0.92391 0.0
C2614 C 0.50838 0.60025 0.8808 0.0
C2615 C 0.49124 0.6204 0.88358 0.0
C2616 C 0.47884 0.62398 0.90698 0.0
C2617 C 0.48343 0.60729 0.92699 0.0
C2618 C 0.52246 0.59608 0.85645 0.0
C2619 C 0.45994 0.64479 0.91058 0.0
H2620 H 0.50219 0.69321 0.83582 0.0
H2621 H 0.44629 0.64057 0.81076 0.0
H2622 H 0.51201 0.67041 0.89484 0.0
H2623 H 0.53389 0.65206 0.87716 0.0
H2624 H 0.52937 0.68469 0.86944 0.0
H2625 H 0.43681 0.60396 0.83288 0.0
H2626 H 0.46408 0.58989 0.84727 0.0
H2627 H 0.44193 0.60642 0.86637 0.0
H2628 H 0.5246 0.56763 0.89848 0.0
H2629 H 0.47347 0.60964 0.94467 0.0
H2630 H 0.53225 0.61353 0.8507 0.0
H2631 H 0.50902 0.59123 0.84123 0.0
H2632 H 0.53655 0.58077 0.85801 0.0
H2633 H 0.46847 0.66313 0.90571 0.0
H2634 H 0.45276 0.6457 0.93023 0.0
H2635 H 0.44376 0.64187 0.8977 0.0
C2636 C 0.36514 0.46926 0.81896 0.0
C2637 C 0.34101 0.47996 0.81715 0.0
C2638 C 0.38108 0.47442 0.83948 0.0
C2639 C 0.37318 0.49135 0.85846 0.0
C2640 C 0.34942 0.50314 0.85624 0.0
C2641 C 0.33355 0.49709 0.83588 0.0
C2642 C 0.40614 0.46118 0.8412 0.0
C2643 C 0.34051 0.52178 0.8757 0.0
C2644 C 0.40329 0.48555 0.92353 0.0
C2645 C 0.42276 0.50318 0.92206 0.0
C2646 C 0.38695 0.48159 0.90304 0.0
C2647 C 0.3896 0.49621 0.88086 0.0
C2648 C 0.40862 0.51481 0.87978 0.0
C2649 C 0.42523 0.51774 0.9002 0.0
C2650 C 0.36741 0.46113 0.90481 0.0
C2651 C 0.4117 0.53135 0.85691 0.0
H2652 H 0.37157 0.4565 0.80445 0.0
H2653 H 0.31493 0.50529 0.83515 0.0
H2654 H 0.42163 0.47508 0.84184 0.0
H2655 H 0.40708 0.45013 0.8589 0.0
H2656 H 0.40944 0.44834 0.82505 0.0
H2657 H 0.32255 0.53091 0.8702 0.0
H2658 H 0.33772 0.5122 0.89403 0.0
H2659 H 0.35495 0.53652 0.87861 0.0
H2660 H 0.40155 0.47406 0.94029 0.0
H2661 H 0.44022 0.53148 0.89907 0.0
H2662 H 0.37038 0.44725 0.88951 0.0
H2663 H 0.34834 0.46915 0.90225 0.0
H2664 H 0.36805 0.45118 0.92318 0.0
H2665 H 0.41766 0.51988 0.84054 0.0
H2666 H 0.42587 0.54636 0.85994 0.0
H2667 H 0.39347 0.54019 0.85194 0.0
C2668 C 0.53934 0.36665 0.82045 0.0
C2669 C 0.52545 0.34447 0.81707 0.0
C2670 C 0.53456 0.38292 0.84076 0.0
C2671 C 0.51505 0.37728 0.85801 0.0
C2672 C 0.50024 0.35552 0.85418 0.0
C2673 C 0.50571 0.33933 0.83393 0.0
C2674 C 0.55092 0.40583 0.84412 0.0
C2675 C 0.47897 0.34903 0.87185 0.0
C2676 C 0.51952 0.40594 0.92383 0.0
C2677 C 0.50447 0.42738 0.92136 0.0
C2678 C 0.52295 0.38936 0.90346 0.0
C2679 C 0.51051 0.39396 0.88026 0.0
C2680 C 0.49453 0.41511 0.87805 0.0
C2681 C 0.49199 0.43172 0.89848 0.0
C2682 C 0.54059 0.36739 0.90652 0.0
C2683 C 0.48045 0.42049 0.85393 0.0
H2684 H 0.5543 0.37119 0.80736 0.0
H2685 H 0.49501 0.32217 0.83186 0.0
H2686 H 0.53914 0.42297 0.84491 0.0
H2687 H 0.56122 0.40457 0.86226 0.0
H2688 H 0.56483 0.40799 0.82866 0.0
H2689 H 0.46816 0.33242 0.86538 0.0
H2690 H 0.48657 0.34507 0.89091 0.0
H2691 H 0.46591 0.36515 0.87366 0.0
H2692 H 0.52943 0.40267 0.94138 0.0
H2693 H 0.48021 0.44819 0.89653 0.0
H2694 H 0.55653 0.36925 0.89316 0.0
H2695 H 0.53071 0.34965 0.90192 0.0
H2696 H 0.54826 0.366 0.92595 0.0
H2697 H 0.494 0.42489 0.83867 0.0
H2698 H 0.46722 0.43649 0.85593 0.0
H2699 H 0.46968 0.4037 0.84794 0.0
C2700 C 0.64425 0.45822 0.82687 0.0
C2701 C 0.66428 0.47379 0.81953 0.0
C2702 C 0.62842 0.46464 0.84708 0.0
C2703 C 0.63235 0.48743 0.86019 0.0
C2704 C 0.65199 0.50364 0.85242 0.0
C2705 C 0.66774 0.49661 0.83228 0.0
C2706 C 0.6077 0.44679 0.85465 0.0
C2707 C 0.65675 0.52814 0.86582 0.0
C2708 C 0.5765 0.51128 0.89816 0.0
C2709 C 0.58233 0.50308 0.92262 0.0
C2710 C 0.59299 0.50712 0.8779 0.0
C2711 C 0.61586 0.49416 0.88203 0.0
C2712 C 0.62225 0.48651 0.90682 0.0
C2713 C 0.60547 0.49116 0.92684 0.0
C2714 C 0.58555 0.51595 0.85192 0.0
C2715 C 0.64626 0.47236 0.91209 0.0
H2716 H 0.6411 0.44074 0.81694 0.0
H2717 H 0.68332 0.50865 0.82709 0.0
H2718 H 0.60995 0.44133 0.8747 0.0
H2719 H 0.58916 0.45615 0.85283 0.0
H2720 H 0.60756 0.42951 0.84297 0.0
H2721 H 0.67207 0.53915 0.85687 0.0
H2722 H 0.63938 0.53967 0.86597 0.0
H2723 H 0.6619 0.52447 0.88574 0.0
H2724 H 0.55877 0.52071 0.89472 0.0
H2725 H 0.61005 0.48453 0.94559 0.0
H2726 H 0.58227 0.49953 0.83953 0.0
H2727 H 0.60096 0.5271 0.84338 0.0
H2728 H 0.5682 0.52756 0.8522 0.0
H2729 H 0.64449 0.45296 0.90475 0.0
H2730 H 0.65042 0.47137 0.93257 0.0
H2731 H 0.66244 0.48125 0.90239 0.0
C2732 C 0.46402 0.36422 0.18468 0.0
C2733 C 0.47951 0.34362 0.19028 0.0
C2734 C 0.46911 0.38003 0.16412 0.0
C2735 C 0.49048 0.37546 0.14886 0.0
C2736 C 0.50676 0.35532 0.15492 0.0
C2737 C 0.50103 0.33959 0.17545 0.0
C2738 C 0.45127 0.40133 0.15842 0.0
C2739 C 0.52993 0.35004 0.13938 0.0
C2740 C 0.48845 0.40239 0.08225 0.0
C2741 C 0.5011 0.42523 0.08543 0.0
C2742 C 0.48537 0.3857 0.10258 0.0
C2743 C 0.49556 0.39178 0.12653 0.0
C2744 C 0.50937 0.41428 0.12946 0.0
C2745 C 0.51177 0.43078 0.10899 0.0
C2746 C 0.4703 0.36203 0.0987 0.0
C2747 C 0.52097 0.42134 0.15445 0.0
H2748 H 0.44759 0.36781 0.19622 0.0
H2749 H 0.51299 0.3236 0.17932 0.0
H2750 H 0.46153 0.41943 0.15872 0.0
H2751 H 0.44334 0.39902 0.13922 0.0
H2752 H 0.43549 0.40238 0.1721 0.0
H2753 H 0.54144 0.33459 0.14738 0.0
H2754 H 0.52437 0.34488 0.11991 0.0
H2755 H 0.54177 0.36712 0.13806 0.0
H2756 H 0.48003 0.39806 0.06416 0.0
H2757 H 0.52184 0.44827 0.11155 0.0
H2758 H 0.45303 0.36273 0.11042 0.0
H2759 H 0.4813 0.34548 0.10488 0.0
H2760 H 0.46473 0.35936 0.0787 0.0
H2761 H 0.5059 0.42505 0.16842 0.0
H2762 H 0.53302 0.43829 0.15302 0.0
H2763 H 0.53249 0.40563 0.16182 0.0
C2764 C 0.66812 0.51209 0.17519 0.0
C2765 C 0.66352 0.53297 0.19068 0.0
C2766 C 0.65217 0.50625 0.15483 0.0
C2767 C 0.63119 0.52176 0.14955 0.0
C2768 C 0.62615 0.54257 0.16536 0.0
C2769 C 0.64219 0.54776 0.18578 0.0
C2770 C 0.65807 0.48374 0.13863 0.0
C2771 C 0.60402 0.55964 0.16046 0.0
C2772 C 0.60312 0.52256 0.0833 0.0
C2773 C 0.58113 0.50843 0.08661 0.0
C2774 C 0.61971 0.52687 0.10353 0.0
C2775 C 0.61448 0.51634 0.12752 0.0
C2776 C 0.59273 0.50133 0.13067 0.0
C2777 C 0.57622 0.49779 0.11029 0.0
C2778 C 0.64238 0.54342 0.09943 0.0
C2779 C 0.58658 0.4894 0.15572 0.0
H2780 H 0.68468 0.50071 0.17844 0.0
H2781 H 0.63814 0.56368 0.19779 0.0
H2782 H 0.64149 0.47114 0.13767 0.0
H2783 H 0.66228 0.48989 0.11912 0.0
H2784 H 0.67437 0.4729 0.14587 0.0
H2785 H 0.60302 0.57537 0.17415 0.0
H2786 H 0.60527 0.56756 0.14117 0.0
H2787 H 0.58623 0.54883 0.16153 0.0
H2788 H 0.60685 0.53111 0.06514 0.0
H2789 H 0.5593 0.48675 0.11294 0.0
H2790 H 0.65977 0.53335 0.10496 0.0
H2791 H 0.64094 0.56032 0.11154 0.0
H2792 H 0.64422 0.54957 0.07951 0.0
H2793 H 0.56988 0.47693 0.15463 0.0
H2794 H 0.58283 0.50419 0.16993 0.0
H2795 H 0.60285 0.4783 0.16257 0.0
C2796 C 0.51059 0.674 0.17178 0.0
C2797 C 0.52751 0.66704 0.19094 0.0
C2798 C 0.505 0.65777 0.15162 0.0
C2799 C 0.51711 0.63419 0.15 0.0
C2800 C 0.53395 0.62686 0.1693 0.0
C2801 C 0.5386 0.64312 0.18966 0.0
C2802 C 0.48644 0.66609 0.13178 0.0
C2803 C 0.54762 0.60206 0.16814 0.0
C2804 C 0.49073 0.58167 0.109 0.0
C2805 C 0.5051 0.58409 0.08699 0.0
C2806 C 0.49385 0.59834 0.1293 0.0
C2807 C 0.51247 0.61731 0.12794 0.0
C2808 C 0.52706 0.61977 0.10569 0.0
C2809 C 0.52289 0.60339 0.08532 0.0
C2810 C 0.47737 0.59547 0.15229 0.0
C2811 C 0.54764 0.63917 0.10366 0.0
H2812 H 0.50215 0.69246 0.17203 0.0
H2813 H 0.55123 0.63707 0.20447 0.0
H2814 H 0.49619 0.66838 0.11345 0.0
H2815 H 0.4717 0.65159 0.12917 0.0
H2816 H 0.4772 0.68411 0.13671 0.0
H2817 H 0.55999 0.59902 0.18473 0.0
H2818 H 0.53395 0.5864 0.16708 0.0
H2819 H 0.55931 0.60124 0.15084 0.0
H2820 H 0.47693 0.56675 0.11028 0.0
H2821 H 0.53429 0.60502 0.06845 0.0
H2822 H 0.46812 0.61357 0.1568 0.0
H2823 H 0.48903 0.59023 0.1688 0.0
H2824 H 0.46263 0.58094 0.14967 0.0
H2825 H 0.53977 0.6582 0.10657 0.0
H2826 H 0.55726 0.63865 0.08508 0.0
H2827 H 0.56185 0.63598 0.11864 0.0
C2828 C 0.3332 0.51012 0.17299 0.0
C2829 C 0.34054 0.5275 0.19154 0.0
C2830 C 0.34892 0.50436 0.15242 0.0
C2831 C 0.37235 0.51671 0.14981 0.0
C2832 C 0.38015 0.53383 0.16865 0.0
C2833 C 0.36441 0.53868 0.18939 0.0
C2834 C 0.34018 0.48544 0.13316 0.0
C2835 C 0.40487 0.54765 0.16654 0.0
C2836 C 0.42466 0.49213 0.10737 0.0
C2837 C 0.42164 0.50686 0.08567 0.0
C2838 C 0.4081 0.49432 0.12791 0.0
C2839 C 0.3885 0.5123 0.12713 0.0
C2840 C 0.38514 0.52694 0.10506 0.0
C2841 C 0.40152 0.52377 0.08445 0.0
C2842 C 0.41193 0.47772 0.15063 0.0
C2843 C 0.36489 0.54672 0.10362 0.0
H2844 H 0.31478 0.50153 0.17399 0.0
H2845 H 0.37076 0.55161 0.20378 0.0
H2846 H 0.33669 0.49494 0.11491 0.0
H2847 H 0.35499 0.47115 0.12992 0.0
H2848 H 0.32263 0.47578 0.13905 0.0
H2849 H 0.40812 0.56057 0.18263 0.0
H2850 H 0.42067 0.5341 0.16568 0.0
H2851 H 0.40528 0.5587 0.14882 0.0
H2852 H 0.44012 0.4789 0.10831 0.0
H2853 H 0.3993 0.53537 0.06782 0.0
H2854 H 0.39397 0.46854 0.15594 0.0
H2855 H 0.41802 0.48923 0.16693 0.0
H2856 H 0.42631 0.46299 0.14724 0.0
H2857 H 0.34621 0.53828 0.10737 0.0
H2858 H 0.36434 0.55612 0.08495 0.0
H2859 H 0.36819 0.56113 0.11834 0.0
C2860 C 0.81901 0.46511 0.64435 0.0
C2861 C 0.81682 0.4769 0.66798 0.0
C2862 C 0.83951 0.46988 0.62829 0.0
C2863 C 0.85804 0.48755 0.63549 0.0
C2864 C 0.85545 0.5004 0.65869 0.0
C2865 C 0.83515 0.4947 0.67476 0.0
C2866 C 0.84164 0.45552 0.60384 0.0
C2867 C 0.8744 0.51988 0.6668 0.0
C2868 C 0.92312 0.48207 0.60548 0.0
C2869 C 0.92118 0.49878 0.5852 0.0
C2870 C 0.90281 0.47837 0.62211 0.0
C2871 C 0.88028 0.49225 0.61882 0.0
C2872 C 0.87868 0.50992 0.59896 0.0
C2873 C 0.89897 0.51267 0.58219 0.0
C2874 C 0.90513 0.45893 0.64264 0.0
C2875 C 0.85539 0.52567 0.59517 0.0
H2876 H 0.80481 0.45181 0.63842 0.0
H2877 H 0.83415 0.50376 0.69299 0.0
H2878 H 0.84184 0.46868 0.58768 0.0
H2879 H 0.85963 0.44498 0.6034 0.0
H2880 H 0.82592 0.44206 0.60117 0.0
H2881 H 0.86867 0.52963 0.68438 0.0
H2882 H 0.89292 0.51087 0.66999 0.0
H2883 H 0.87694 0.53405 0.65171 0.0
H2884 H 0.94014 0.47111 0.60773 0.0
H2885 H 0.89745 0.52576 0.56663 0.0
H2886 H 0.89077 0.4441 0.6398 0.0
H2887 H 0.90149 0.46755 0.6613 0.0
H2888 H 0.92402 0.45003 0.64299 0.0
H2889 H 0.83931 0.51347 0.58999 0.0
H2890 H 0.85791 0.53995 0.58014 0.0
H2891 H 0.85034 0.53535 0.61297 0.0
C2892 C 0.45475 0.83614 0.6619 0.0
C2893 C 0.47436 0.82107 0.67118 0.0
C2894 C 0.45951 0.85645 0.64575 0.0
C2895 C 0.48455 0.86208 0.6387 0.0
C2896 C 0.50451 0.84724 0.64826 0.0
C2897 C 0.49919 0.82692 0.66435 0.0
C2898 C 0.43765 0.87175 0.63603 0.0
C2899 C 0.53148 0.85267 0.64125 0.0
C2900 C 0.49294 0.89693 0.5768 0.0
C2901 C 0.49611 0.92189 0.58475 0.0
C2902 C 0.48963 0.87737 0.59415 0.0
C2903 C 0.4896 0.88266 0.62027 0.0
C2904 C 0.49328 0.90766 0.62855 0.0
C2905 C 0.4964 0.92699 0.61071 0.0
C2906 C 0.48554 0.85105 0.58445 0.0
C2907 C 0.49348 0.91406 0.65625 0.0
H2908 H 0.43555 0.83226 0.66754 0.0
H2909 H 0.51447 0.81542 0.67132 0.0
H2910 H 0.44021 0.89178 0.64103 0.0
H2911 H 0.43688 0.87059 0.61517 0.0
H2912 H 0.41933 0.8653 0.64374 0.0
H2913 H 0.54493 0.84023 0.65126 0.0
H2914 H 0.53408 0.85017 0.62066 0.0
H2915 H 0.53616 0.87244 0.64571 0.0
H2916 H 0.4926 0.89257 0.55686 0.0
H2917 H 0.49886 0.94611 0.61716 0.0
H2918 H 0.46668 0.84429 0.59026 0.0
H2919 H 0.49962 0.83814 0.59276 0.0
H2920 H 0.48689 0.84991 0.56359 0.0
H2921 H 0.47475 0.91009 0.66455 0.0
H2922 H 0.49813 0.93407 0.65969 0.0
H2923 H 0.50735 0.90218 0.66631 0.0
C2924 C 0.18231 0.45563 0.64495 0.0
C2925 C 0.18934 0.47135 0.66501 0.0
C2926 C 0.16181 0.46152 0.62928 0.0
C2927 C 0.14802 0.48385 0.63352 0.0
C2928 C 0.1554 0.50016 0.65326 0.0
C2929 C 0.1759 0.49371 0.66877 0.0
C2930 C 0.15467 0.4436 0.60842 0.0
C2931 C 0.14132 0.52421 0.65832 0.0
C2932 C 0.10913 0.50782 0.57831 0.0
C2933 C 0.08493 0.49906 0.58426 0.0
C2934 C 0.12961 0.50366 0.5945 0.0
C2935 C 0.12599 0.49011 0.61715 0.0
C2936 C 0.1015 0.48168 0.62356 0.0
C2937 C 0.08123 0.48641 0.60713 0.0
C2938 C 0.15528 0.51319 0.58698 0.0
C2939 C 0.09685 0.46696 0.64739 0.0
H2940 H 0.19272 0.43848 0.64162 0.0
H2941 H 0.18086 0.50583 0.68438 0.0
H2942 H 0.13516 0.43679 0.61134 0.0
H2943 H 0.15509 0.45339 0.58998 0.0
H2944 H 0.16742 0.42713 0.60744 0.0
H2945 H 0.14989 0.53527 0.67383 0.0
H2946 H 0.14088 0.53594 0.64106 0.0
H2947 H 0.12154 0.51992 0.66337 0.0
H2948 H 0.11216 0.51776 0.56076 0.0
H2949 H 0.06268 0.47934 0.61174 0.0
H2950 H 0.16806 0.4971 0.58357 0.0
H2951 H 0.16355 0.52448 0.60245 0.0
H2952 H 0.15463 0.52487 0.56966 0.0
H2953 H 0.1077 0.44921 0.64685 0.0
H2954 H 0.07664 0.46239 0.65006 0.0
H2955 H 0.10351 0.47773 0.66398 0.0
C2956 C 0.54168 0.17266 0.66088 0.0
C2957 C 0.52173 0.18631 0.67154 0.0
C2958 C 0.53729 0.15239 0.64452 0.0
C2959 C 0.51229 0.14545 0.63851 0.0
C2960 C 0.49203 0.15895 0.64937 0.0
C2961 C 0.49697 0.17914 0.66579 0.0
C2962 C 0.55948 0.13848 0.63354 0.0
C2963 C 0.46511 0.15224 0.64339 0.0
C2964 C 0.50321 0.11048 0.57657 0.0
C2965 C 0.50169 0.08533 0.58442 0.0
C2966 C 0.50614 0.13013 0.59397 0.0
C2967 C 0.50752 0.12473 0.62005 0.0
C2968 C 0.50547 0.0995 0.62822 0.0
C2969 C 0.50262 0.08013 0.61036 0.0
C2970 C 0.50837 0.15668 0.58433 0.0
C2971 C 0.50681 0.09291 0.65584 0.0
H2972 H 0.56087 0.17762 0.66562 0.0
H2973 H 0.48143 0.18957 0.67384 0.0
H2974 H 0.55823 0.11826 0.63825 0.0
H2975 H 0.55925 0.14003 0.61269 0.0
H2976 H 0.57775 0.1458 0.64055 0.0
H2977 H 0.45146 0.16396 0.65401 0.0
H2978 H 0.46157 0.15469 0.62294 0.0
H2979 H 0.46159 0.13225 0.64791 0.0
H2980 H 0.5025 0.11495 0.55667 0.0
H2981 H 0.5015 0.06088 0.61675 0.0
H2982 H 0.52714 0.16435 0.58922 0.0
H2983 H 0.4941 0.1688 0.5935 0.0
H2984 H 0.50588 0.15789 0.56358 0.0
H2985 H 0.52563 0.09788 0.66337 0.0
H2986 H 0.50346 0.07264 0.65929 0.0
H2987 H 0.49273 0.10391 0.6666 0.0
C2988 C 0.8355 0.51056 0.33518 0.0
C2989 C 0.8165 0.52768 0.3419 0.0
C2990 C 0.85561 0.50513 0.35157 0.0
C2991 C 0.85735 0.51761 0.37507 0.0
C2992 C 0.83813 0.53457 0.3822 0.0
C2993 C 0.81781 0.53903 0.36581 0.0
C2994 C 0.87532 0.4864 0.34349 0.0
C2995 C 0.83936 0.54858 0.40692 0.0
C2996 C 0.8987 0.49295 0.42831 0.0
C2997 C 0.92048 0.50755 0.42561 0.0
C2998 C 0.8784 0.49537 0.41149 0.0
C2999 C 0.87952 0.51344 0.39195 0.0
C3000 C 0.90159 0.52812 0.38906 0.0
C3001 C 0.92195 0.52472 0.40569 0.0
C3002 C 0.85565 0.47877 0.41481 0.0
C3003 C 0.90339 0.54801 0.36892 0.0
H3004 H 0.83521 0.50187 0.31675 0.0
H3005 H 0.8031 0.55177 0.37171 0.0
H3006 H 0.89356 0.49607 0.34063 0.0
H3007 H 0.87817 0.47214 0.35844 0.0
H3008 H 0.87015 0.47668 0.32572 0.0
H3009 H 0.82306 0.56131 0.40964 0.0
H3010 H 0.83997 0.53515 0.42286 0.0
H3011 H 0.85688 0.55986 0.40774 0.0
H3012 H 0.89756 0.47952 0.4436 0.0
H3013 H 0.93864 0.53621 0.4037 0.0
H3014 H 0.85107 0.46923 0.39681 0.0
H3015 H 0.83911 0.49031 0.42007 0.0
H3016 H 0.85854 0.46431 0.42961 0.0
H3017 H 0.90039 0.53958 0.35006 0.0
H3018 H 0.92188 0.5577 0.36901 0.0
H3019 H 0.88837 0.56219 0.37179 0.0
C3020 C 0.54473 0.82195 0.36579 0.0
C3021 C 0.5306 0.81726 0.3439 0.0
C3022 C 0.5392 0.84233 0.38166 0.0
C3023 C 0.51877 0.85836 0.37582 0.0
C3024 C 0.50387 0.85328 0.35429 0.0
C3025 C 0.51002 0.83292 0.33855 0.0
C3026 C 0.55554 0.84698 0.40447 0.0
C3027 C 0.48177 0.86972 0.34754 0.0
C3028 C 0.49408 0.89835 0.4299 0.0
C3029 C 0.50562 0.92155 0.42524 0.0
C3030 C 0.49748 0.87792 0.41353 0.0
C3031 C 0.51325 0.88054 0.39218 0.0
C3032 C 0.52457 0.90409 0.38711 0.0
C3033 C 0.52043 0.92438 0.40357 0.0
C3034 C 0.48464 0.85337 0.41945 0.0
C3035 C 0.54185 0.90761 0.36482 0.0
H3036 H 0.56039 0.8098 0.37041 0.0
H3037 H 0.49916 0.8298 0.32157 0.0
H3038 H 0.56415 0.8659 0.40328 0.0
H3039 H 0.54391 0.84655 0.42182 0.0
H3040 H 0.57081 0.83289 0.40636 0.0
H3041 H 0.47124 0.86252 0.33098 0.0
H3042 H 0.46866 0.87113 0.36376 0.0
H3043 H 0.48842 0.88897 0.34327 0.0
H3044 H 0.48244 0.89608 0.44652 0.0
H3045 H 0.52961 0.94218 0.40001 0.0
H3046 H 0.49896 0.83894 0.424 0.0
H3047 H 0.47403 0.84662 0.40278 0.0
H3048 H 0.47147 0.85497 0.43562 0.0
H3049 H 0.55882 0.89574 0.3672 0.0
H3050 H 0.54793 0.92741 0.36261 0.0
H3051 H 0.53238 0.90153 0.34723 0.0
C3052 C 0.17437 0.51241 0.33931 0.0
C3053 C 0.18768 0.53488 0.3429 0.0
C3054 C 0.1539 0.50597 0.35488 0.0
C3055 C 0.14638 0.52243 0.37444 0.0
C3056 C 0.15996 0.54493 0.37839 0.0
C3057 C 0.1805 0.55073 0.36279 0.0
C3058 C 0.14003 0.48175 0.35012 0.0
C3059 C 0.15268 0.56303 0.39903 0.0
C3060 C 0.07993 0.5197 0.40167 0.0
C3061 C 0.08407 0.50758 0.42475 0.0
C3062 C 0.09992 0.52421 0.38484 0.0
C3063 C 0.12456 0.51611 0.39107 0.0
C3064 C 0.12861 0.50306 0.41394 0.0
C3065 C 0.1084 0.4991 0.43052 0.0
C3066 C 0.09482 0.53856 0.36086 0.0
C3067 C 0.15446 0.49389 0.42128 0.0
H3068 H 0.17944 0.50017 0.32383 0.0
H3069 H 0.19085 0.56793 0.36605 0.0
H3070 H 0.13986 0.47015 0.36747 0.0
H3071 H 0.12016 0.4858 0.34519 0.0
H3072 H 0.1486 0.47065 0.33462 0.0
H3073 H 0.16404 0.58049 0.39848 0.0
H3074 H 0.13252 0.56813 0.39738 0.0
H3075 H 0.15529 0.55401 0.41768 0.0
H3076 H 0.06127 0.52657 0.39719 0.0
H3077 H 0.11176 0.48955 0.44824 0.0
H3078 H 0.10238 0.52821 0.34439 0.0
H3079 H 0.10457 0.55694 0.3616 0.0
H3080 H 0.07442 0.54196 0.35787 0.0
H3081 H 0.16264 0.4824 0.4059 0.0
H3082 H 0.15415 0.48251 0.43881 0.0
H3083 H 0.16714 0.51013 0.42425 0.0
C3084 C 0.46434 0.17561 0.35002 0.0
C3085 C 0.48476 0.18787 0.33859 0.0
C3086 C 0.46794 0.15511 0.36625 0.0
C3087 C 0.49259 0.14635 0.37116 0.0
C3088 C 0.51332 0.15846 0.35961 0.0
C3089 C 0.50918 0.17906 0.3435 0.0
C3090 C 0.44528 0.14285 0.3782 0.0
C3091 C 0.53991 0.14976 0.3644 0.0
C3092 C 0.50115 0.11033 0.43242 0.0
C3093 C 0.50023 0.0852 0.42439 0.0
C3094 C 0.49932 0.13027 0.41526 0.0
C3095 C 0.49655 0.12519 0.38925 0.0
C3096 C 0.49624 0.09995 0.38084 0.0
C3097 C 0.49807 0.08027 0.39849 0.0
C3098 C 0.49971 0.15684 0.42512 0.0
C3099 C 0.49342 0.09374 0.35325 0.0
H3100 H 0.44535 0.18176 0.34594 0.0
H3101 H 0.52511 0.1884 0.33492 0.0
H3102 H 0.44472 0.12266 0.37321 0.0
H3103 H 0.44665 0.14409 0.39902 0.0
H3104 H 0.42733 0.15166 0.37217 0.0
H3105 H 0.55392 0.16057 0.35332 0.0
H3106 H 0.54445 0.15172 0.38471 0.0
H3107 H 0.54176 0.12961 0.35957 0.0
H3108 H 0.503 0.11459 0.45229 0.0
H3109 H 0.4974 0.06103 0.39197 0.0
H3110 H 0.48141 0.16603 0.42116 0.0
H3111 H 0.51446 0.16787 0.41535 0.0
H3112 H 0.50325 0.15768 0.44573 0.0
H3113 H 0.47482 0.10027 0.34642 0.0
H3114 H 0.49502 0.0733 0.34955 0.0
H3115 H 0.50796 0.10368 0.34208 0.0
C3116 C 0.66497 0.8428 0.46157 0.0
C3117 C 0.66715 0.82218 0.47796 0.0
C3118 C 0.64859 0.86278 0.46677 0.0
C3119 C 0.63426 0.86258 0.48923 0.0
C3120 C 0.63685 0.84228 0.50627 0.0
C3121 C 0.65313 0.82228 0.50039 0.0
C3122 C 0.64625 0.88389 0.44792 0.0
C3123 C 0.62202 0.84146 0.53051 0.0
C3124 C 0.60498 0.92474 0.50968 0.0
C3125 C 0.58017 0.92201 0.50116 0.0
C3126 C 0.62269 0.90534 0.5065 0.0
C3127 C 0.61554 0.8829 0.49406 0.0
C3128 C 0.59055 0.88017 0.4853 0.0
C3129 C 0.57321 0.89961 0.48909 0.0
C3130 C 0.64909 0.90886 0.51633 0.0
C3131 C 0.58222 0.8569 0.47136 0.0
H3132 H 0.6762 0.84344 0.44455 0.0
H3133 H 0.65449 0.8065 0.51317 0.0
H3134 H 0.62669 0.8848 0.44068 0.0
H3135 H 0.65029 0.90212 0.45712 0.0
H3136 H 0.6592 0.8816 0.43165 0.0
H3137 H 0.62742 0.82532 0.54258 0.0
H3138 H 0.62488 0.85904 0.54131 0.0
H3139 H 0.60164 0.84005 0.52622 0.0
H3140 H 0.6105 0.94195 0.51904 0.0
H3141 H 0.5542 0.89742 0.48203 0.0
H3142 H 0.66265 0.90843 0.50045 0.0
H3143 H 0.65408 0.89324 0.5292 0.0
H3144 H 0.65137 0.92687 0.52659 0.0
H3145 H 0.59301 0.85508 0.45356 0.0
H3146 H 0.56185 0.85725 0.46674 0.0
H3147 H 0.58615 0.83996 0.48281 0.0
C3148 C 0.66085 0.17891 0.51473 0.0
C3149 C 0.66598 0.18781 0.49035 0.0
C3150 C 0.64461 0.15841 0.51866 0.0
C3151 C 0.63313 0.14651 0.49774 0.0
C3152 C 0.63821 0.15539 0.47313 0.0
C3153 C 0.65458 0.17578 0.46974 0.0
C3154 C 0.63964 0.14956 0.54521 0.0
C3155 C 0.62632 0.14334 0.45028 0.0
C3156 C 0.6058 0.08046 0.50248 0.0
C3157 C 0.57993 0.0854 0.50447 0.0
C3158 C 0.62343 0.10013 0.50098 0.0
C3159 C 0.61505 0.12537 0.50145 0.0
C3160 C 0.58907 0.13045 0.50409 0.0
C3161 C 0.57192 0.11051 0.50558 0.0
C3162 C 0.65099 0.09392 0.49831 0.0
C3163 C 0.57925 0.15703 0.50468 0.0
H3164 H 0.66939 0.1881 0.5308 0.0
H3165 H 0.65882 0.18199 0.45078 0.0
H3166 H 0.61934 0.15149 0.54965 0.0
H3167 H 0.64443 0.12939 0.54698 0.0
H3168 H 0.65061 0.16027 0.5594 0.0
H3169 H 0.63239 0.15231 0.4324 0.0
H3170 H 0.63128 0.12315 0.44955 0.0
H3171 H 0.60554 0.14459 0.45162 0.0
H3172 H 0.61231 0.06122 0.50171 0.0
H3173 H 0.55207 0.11477 0.50731 0.0
H3174 H 0.66204 0.10374 0.51304 0.0
H3175 H 0.65795 0.10058 0.47977 0.0
H3176 H 0.65465 0.07347 0.49977 0.0
H3177 H 0.58898 0.16793 0.51957 0.0
H3178 H 0.55867 0.15785 0.5082 0.0
H3179 H 0.58324 0.16635 0.48643 0.0
C3180 C 0.82558 0.66239 0.50684 0.0
C3181 C 0.81912 0.66918 0.48209 0.0
C3182 C 0.84571 0.64593 0.51169 0.0
C3183 C 0.85974 0.63591 0.49133 0.0
C3184 C 0.85332 0.64265 0.46635 0.0
C3185 C 0.83324 0.65922 0.46206 0.0
C3186 C 0.85187 0.63911 0.53859 0.0
C3187 C 0.86767 0.63233 0.44408 0.0
C3188 C 0.92526 0.60842 0.50167 0.0
C3189 C 0.92027 0.58258 0.50177 0.0
C3190 C 0.90571 0.62604 0.49885 0.0
C3191 C 0.88057 0.61767 0.49597 0.0
C3192 C 0.87538 0.59167 0.49643 0.0
C3193 C 0.89518 0.57452 0.49936 0.0
C3194 C 0.91201 0.65362 0.49851 0.0
C3195 C 0.84891 0.58186 0.49326 0.0
H3196 H 0.81474 0.66979 0.52245 0.0
H3197 H 0.82889 0.66472 0.4429 0.0
H3198 H 0.84959 0.61862 0.54136 0.0
H3199 H 0.87179 0.64371 0.54275 0.0
H3200 H 0.83968 0.64905 0.55234 0.0
H3201 H 0.8606 0.63973 0.42585 0.0
H3202 H 0.88792 0.63707 0.44581 0.0
H3203 H 0.86621 0.61158 0.44375 0.0
H3204 H 0.94446 0.61495 0.50358 0.0
H3205 H 0.89089 0.55467 0.49936 0.0
H3206 H 0.90076 0.66368 0.51292 0.0
H3207 H 0.90704 0.66172 0.47991 0.0
H3208 H 0.93228 0.65717 0.50215 0.0
H3209 H 0.83624 0.59058 0.50737 0.0
H3210 H 0.84784 0.56116 0.49531 0.0
H3211 H 0.84169 0.58699 0.47433 0.0
C3212 C 0.34055 0.82738 0.50205 0.0
C3213 C 0.33355 0.82136 0.47727 0.0
C3214 C 0.35702 0.84746 0.50712 0.0
C3215 C 0.36663 0.86203 0.48695 0.0
C3216 C 0.35932 0.85628 0.46195 0.0
C3217 C 0.34297 0.83607 0.45743 0.0
C3218 C 0.3644 0.85289 0.53403 0.0
C3219 C 0.36892 0.87141 0.43989 0.0
C3220 C 0.39486 0.92686 0.49898 0.0
C3221 C 0.42077 0.92176 0.49842 0.0
C3222 C 0.377 0.90759 0.49576 0.0
C3223 C 0.38518 0.8826 0.49177 0.0
C3224 C 0.41126 0.87731 0.49146 0.0
C3225 C 0.42865 0.89685 0.49481 0.0
C3226 C 0.34937 0.91404 0.49623 0.0
C3227 C 0.42088 0.85102 0.48712 0.0
H3228 H 0.33345 0.81612 0.51749 0.0
H3229 H 0.33725 0.83198 0.43827 0.0
H3230 H 0.38499 0.85038 0.53633 0.0
H3231 H 0.36004 0.87267 0.53878 0.0
H3232 H 0.35459 0.84048 0.54766 0.0
H3233 H 0.36097 0.86494 0.42165 0.0
H3234 H 0.36412 0.89149 0.44244 0.0
H3235 H 0.38972 0.87009 0.43889 0.0
H3236 H 0.38846 0.94593 0.50182 0.0
H3237 H 0.44856 0.89251 0.49421 0.0
H3238 H 0.33946 0.90227 0.51031 0.0
H3239 H 0.34087 0.90998 0.47758 0.0
H3240 H 0.34602 0.93408 0.50084 0.0
H3241 H 0.41272 0.83805 0.50127 0.0
H3242 H 0.44172 0.84986 0.48823 0.0
H3243 H 0.41488 0.84433 0.46826 0.0
C3244 C 0.1708 0.34828 0.54873 0.0
C3245 C 0.18393 0.33641 0.52908 0.0
C3246 C 0.15101 0.36502 0.5438 0.0
C3247 C 0.14398 0.37002 0.51857 0.0
C3248 C 0.15701 0.35805 0.49862 0.0
C3249 C 0.17682 0.34141 0.50411 0.0
C3250 C 0.13765 0.3774 0.56564 0.0
C3251 C 0.15015 0.36298 0.47147 0.0
C3252 C 0.07884 0.39817 0.50823 0.0
C3253 C 0.08437 0.42382 0.50605 0.0
C3254 C 0.09808 0.38036 0.51175 0.0
C3255 C 0.12346 0.38835 0.51317 0.0
C3256 C 0.1292 0.41411 0.51048 0.0
C3257 C 0.10967 0.43145 0.50693 0.0
C3258 C 0.09122 0.35303 0.5144 0.0
C3259 C 0.15596 0.42348 0.51201 0.0
H3260 H 0.17571 0.34417 0.56811 0.0
H3261 H 0.18692 0.33252 0.48879 0.0
H3262 H 0.13986 0.39805 0.56444 0.0
H3263 H 0.11721 0.37333 0.56476 0.0
H3264 H 0.14495 0.37104 0.58417 0.0
H3265 H 0.16163 0.35169 0.45816 0.0
H3266 H 0.13 0.35862 0.46829 0.0
H3267 H 0.15286 0.38312 0.46706 0.0
H3268 H 0.05944 0.39197 0.50764 0.0
H3269 H 0.11435 0.45115 0.50523 0.0
H3270 H 0.0978 0.34582 0.53286 0.0
H3271 H 0.1008 0.34191 0.49957 0.0
H3272 H 0.07062 0.34984 0.51293 0.0
H3273 H 0.16364 0.41976 0.53109 0.0
H3274 H 0.15743 0.44389 0.50817 0.0
H3275 H 0.16799 0.4133 0.49834 0.0
C3276 C 0.34321 0.17035 0.54688 0.0
C3277 C 0.33475 0.18621 0.52752 0.0
C3278 C 0.35914 0.14997 0.54186 0.0
C3279 C 0.36682 0.14509 0.5168 0.0
C3280 C 0.35803 0.16069 0.49705 0.0
C3281 C 0.34209 0.18105 0.50264 0.0
C3282 C 0.36805 0.13386 0.5635 0.0
C3283 C 0.36581 0.15612 0.4701 0.0
C3284 C 0.42858 0.1099 0.51019 0.0
C3285 C 0.42058 0.08507 0.50626 0.0
C3286 C 0.4113 0.12958 0.51297 0.0
C3287 C 0.38522 0.12454 0.51168 0.0
C3288 C 0.37692 0.09969 0.50708 0.0
C3289 C 0.39468 0.08024 0.50452 0.0
C3290 C 0.42103 0.15571 0.51803 0.0
C3291 C 0.34926 0.09358 0.50543 0.0
H3292 H 0.33716 0.17372 0.56608 0.0
H3293 H 0.33569 0.19317 0.48756 0.0
H3294 H 0.36314 0.11396 0.56 0.0
H3295 H 0.38883 0.13496 0.56506 0.0
H3296 H 0.35971 0.13967 0.58179 0.0
H3297 H 0.35624 0.16902 0.45675 0.0
H3298 H 0.38643 0.15866 0.46819 0.0
H3299 H 0.36148 0.13652 0.46461 0.0
H3300 H 0.44847 0.11406 0.51162 0.0
H3301 H 0.38821 0.06123 0.50137 0.0
H3302 H 0.41477 0.162 0.53695 0.0
H3303 H 0.41319 0.16907 0.50408 0.0
H3304 H 0.44188 0.15675 0.51728 0.0
H3305 H 0.34017 0.09709 0.52391 0.0
H3306 H 0.34587 0.07375 0.50002 0.0
H3307 H 0.33996 0.10596 0.49145 0.0
C3308 C 0.81966 0.36445 0.47258 0.0
C3309 C 0.8153 0.34295 0.48724 0.0
C3310 C 0.84037 0.38016 0.47717 0.0
C3311 C 0.85707 0.37456 0.49718 0.0
C3312 C 0.85225 0.35351 0.51272 0.0
C3313 C 0.83153 0.33791 0.50751 0.0
C3314 C 0.84473 0.40244 0.46014 0.0
C3315 C 0.86937 0.34711 0.53448 0.0
C3316 C 0.92326 0.4016 0.49171 0.0
C3317 C 0.92107 0.42375 0.50573 0.0
C3318 C 0.90275 0.3851 0.4892 0.0
C3319 C 0.87969 0.39063 0.50148 0.0
C3320 C 0.87784 0.41239 0.51665 0.0
C3321 C 0.89843 0.4288 0.51834 0.0
C3322 C 0.90543 0.36231 0.47255 0.0
C3323 C 0.85387 0.41879 0.5305 0.0
H3324 H 0.80704 0.36881 0.45716 0.0
H3325 H 0.82861 0.32123 0.51879 0.0
H3326 H 0.84525 0.41994 0.47141 0.0
H3327 H 0.86323 0.40061 0.45064 0.0
H3328 H 0.82992 0.40432 0.4455 0.0
H3329 H 0.86217 0.33111 0.54576 0.0
H3330 H 0.88833 0.34222 0.52726 0.0
H3331 H 0.8716 0.36358 0.54705 0.0
H3332 H 0.94065 0.39774 0.48175 0.0
H3333 H 0.89671 0.44581 0.52941 0.0
H3334 H 0.89236 0.36385 0.45632 0.0
H3335 H 0.90022 0.34515 0.48313 0.0
H3336 H 0.92487 0.36008 0.4652 0.0
H3337 H 0.83888 0.42341 0.51673 0.0
H3338 H 0.85628 0.43499 0.54343 0.0
H3339 H 0.84728 0.40244 0.5416 0.0
C3340 C 0.17176 0.67049 0.49763 0.0
C3341 C 0.18814 0.66451 0.47771 0.0
C3342 C 0.15141 0.65479 0.50392 0.0
C3343 C 0.14699 0.63269 0.48979 0.0
C3344 C 0.16374 0.62624 0.47007 0.0
C3345 C 0.18413 0.64206 0.46443 0.0
C3346 C 0.1343 0.66212 0.52539 0.0
C3347 C 0.15975 0.60295 0.4544 0.0
C3348 C 0.10706 0.57914 0.51542 0.0
C3349 C 0.08393 0.58322 0.50339 0.0
C3350 C 0.12739 0.59562 0.51194 0.0
C3351 C 0.12482 0.61633 0.49543 0.0
C3352 C 0.10135 0.6207 0.48345 0.0
C3353 C 0.08109 0.60428 0.48786 0.0
C3354 C 0.15184 0.59048 0.52546 0.0
C3355 C 0.09792 0.64213 0.46519 0.0
H3356 H 0.17432 0.68788 0.50784 0.0
H3357 H 0.19681 0.63694 0.4493 0.0
H3358 H 0.11512 0.66588 0.51811 0.0
H3359 H 0.13278 0.64648 0.53908 0.0
H3360 H 0.14108 0.67908 0.53548 0.0
H3361 H 0.17535 0.59974 0.44087 0.0
H3362 H 0.15801 0.58621 0.46668 0.0
H3363 H 0.14192 0.60467 0.44367 0.0
H3364 H 0.1093 0.56288 0.52748 0.0
H3365 H 0.06336 0.60726 0.47821 0.0
H3366 H 0.15813 0.60748 0.53573 0.0
H3367 H 0.16668 0.58575 0.51157 0.0
H3368 H 0.15019 0.57475 0.53909 0.0
H3369 H 0.10308 0.66012 0.4743 0.0
H3370 H 0.07829 0.64351 0.45816 0.0
H3371 H 0.11064 0.63955 0.44882 0.0
loop_
_geom_bond_atom_site_label_1
_geom_bond_atom_site_label_2
_geom_bond_distance
_geom_bond_site_symmetry_2
_ccdc_geom_bond_type
P0 O11 1.490 . S
P0 C14 1.812 . S
P0 C20 1.803 . S
P0 C26 1.819 . S
H1 C15 0.941 . S
H2 C16 0.939 . S
H3 C18 0.940 . S
H4 C19 0.940 . S
H5 C21 0.939 . S
H6 C22 0.942 . S
H7 C24 0.940 . S
H8 C25 0.939 . S
H9 C27 0.941 . S
H10 C31 0.939 1_455 S
O11 P0 1.490 . S
H12 C28 0.939 . S
H13 C30 0.940 . S
C14 P0 1.812 . S
C14 C15 1.389 . S
C14 C19 1.391 1_655 S
C15 H1 0.941 . S
C15 C14 1.389 . S
C15 C16 1.397 . S
C16 H2 0.939 . S
C16 C15 1.397 . S
C16 C17 1.378 . S
C17 C16 1.378 . S
C17 C18 1.378 1_655 S
C18 H3 0.940 . S
C18 C17 1.378 1_455 S
C18 C19 1.396 . S
C19 H4 0.940 . S
C19 C14 1.391 1_455 S
C19 C18 1.396 . S
C20 P0 1.803 . S
C20 C21 1.378 . S
C20 C25 1.400 1_655 S
C21 H5 0.939 . S
C21 C20 1.378 . S
C21 C22 1.361 . S
C22 H6 0.942 . S
C22 C21 1.361 . S
C22 C23 1.369 . S
C23 C22 1.369 . S
C23 C24 1.404 1_655 S
C24 H7 0.940 . S
C24 C23 1.404 1_455 S
C24 C25 1.389 . S
C25 H8 0.939 . S
C25 C20 1.400 1_455 S
C25 C24 1.389 . S
C26 P0 1.819 . S
C26 C27 1.391 . S
C26 C31 1.391 . S
C27 H9 0.941 . S
C27 C26 1.391 . S
C27 C28 1.396 . S
C28 H12 0.939 . S
C28 C27 1.396 . S
C28 C29 1.397 . S
C29 C28 1.397 . S
C29 C30 1.385 1_655 S
C30 H13 0.940 . S
C30 C29 1.385 1_455 S
C30 C31 1.388 1_455 S
C31 H10 0.939 1_655 S
C31 C26 1.391 . S
C31 C30 1.388 1_655 S
P32 O43 1.490 . S
P32 C46 1.812 . S
P32 C52 1.803 . S
P32 C58 1.819 . S
H33 C47 0.941 . S
H34 C48 0.939 . S
H35 C50 0.940 . S
H36 C51 0.940 . S
H37 C53 0.939 . S
H38 C54 0.942 . S
H39 C56 0.940 . S
H40 C57 0.939 . S
H41 C59 0.941 . S
H42 C63 0.939 1_545 S
O43 P32 1.490 . S
H44 C60 0.939 . S
H45 C62 0.940 . S
C46 P32 1.812 . S
C46 C47 1.389 . S
C46 C51 1.391 1_565 S
C47 H33 0.941 . S
C47 C46 1.389 . S
C47 C48 1.397 . S
C48 H34 0.939 . S
C48 C47 1.397 . S
C48 C49 1.378 . S
C49 C48 1.378 . S
C49 C50 1.378 1_565 S
C50 H35 0.940 . S
C50 C49 1.378 1_545 S
C50 C51 1.396 . S
C51 H36 0.940 . S
C51 C46 1.391 1_545 S
C51 C50 1.396 . S
C52 P32 1.803 . S
C52 C53 1.378 . S
C52 C57 1.400 1_565 S
C53 H37 0.939 . S
C53 C52 1.378 . S
C53 C54 1.361 . S
C54 H38 0.942 . S
C54 C53 1.361 . S
C54 C55 1.369 . S
C55 C54 1.369 . S
C55 C56 1.404 1_565 S
C56 H39 0.940 . S
C56 C55 1.404 1_545 S
C56 C57 1.389 . S
C57 H40 0.939 . S
C57 C52 1.400 1_545 S
C57 C56 1.389 . S
C58 P32 1.819 . S
C58 C59 1.391 . S
C58 C63 1.391 . S
C59 H41 0.941 . S
C59 C58 1.391 . S
C59 C60 1.396 . S
C60 H44 0.939 . S
C60 C59 1.396 . S
C60 C61 1.397 . S
C61 C60 1.397 . S
C61 C62 1.385 1_565 S
C62 H45 0.940 . S
C62 C61 1.385 1_545 S
C62 C63 1.388 1_545 S
C63 H42 0.939 1_565 S
C63 C58 1.391 . S
C63 C62 1.388 1_565 S
P64 O75 1.490 . S
P64 C78 1.812 . S
P64 C84 1.803 . S
P64 C90 1.819 . S
H65 C79 0.941 . S
H66 C80 0.939 . S
H67 C82 0.940 . S
H68 C83 0.940 1_655 S
H69 C85 0.939 . S
H70 C86 0.942 . S
H71 C88 0.940 . S
H72 C89 0.939 1_655 S
H73 C91 0.941 . S
H74 C95 0.939 . S
O75 P64 1.490 . S
H76 C92 0.939 . S
H77 C94 0.940 . S
C78 P64 1.812 . S
C78 C79 1.389 . S
C78 C83 1.391 . S
C79 H65 0.941 . S
C79 C78 1.389 . S
C79 C80 1.397 . S
C80 H66 0.939 . S
C80 C79 1.397 . S
C80 C81 1.378 . S
C81 C80 1.378 . S
C81 C82 1.378 1_455 S
C82 H67 0.940 . S
C82 C81 1.378 1_655 S
C82 C83 1.396 1_655 S
C83 H68 0.940 1_455 S
C83 C78 1.391 . S
C83 C82 1.396 1_455 S
C84 P64 1.803 . S
C84 C85 1.378 . S
C84 C89 1.400 . S
C85 H69 0.939 . S
C85 C84 1.378 . S
C85 C86 1.361 . S
C86 H70 0.942 . S
C86 C85 1.361 . S
C86 C87 1.369 . S
C87 C86 1.369 . S
C87 C88 1.404 1_455 S
C88 H71 0.940 . S
C88 C87 1.404 1_655 S
C88 C89 1.389 1_655 S
C89 H72 0.939 1_455 S
C89 C84 1.400 . S
C89 C88 1.389 1_455 S
C90 P64 1.819 . S
C90 C91 1.391 . S
C90 C95 1.391 . S
C91 H73 0.941 . S
C91 C90 1.391 . S
C91 C92 1.396 . S
C92 H76 0.939 . S
C92 C91 1.396 . S
C92 C93 1.397 . S
C93 C92 1.397 . S
C93 C94 1.385 1_455 S
C94 H77 0.940 . S
C94 C93 1.385 1_655 S
C94 C95 1.388 1_655 S
C95 H74 0.939 . S
C95 C90 1.391 . S
C95 C94 1.388 1_455 S
P96 O107 1.490 . S
P96 C110 1.812 . S
P96 C116 1.803 . S
P96 C122 1.819 . S
H97 C111 0.941 . S
H98 C112 0.939 . S
H99 C114 0.940 . S
H100 C115 0.940 . S
H101 C117 0.939 . S
H102 C118 0.942 . S
H103 C120 0.940 . S
H104 C121 0.939 . S
H105 C123 0.941 . S
H106 C127 0.939 1_545 S
O107 P96 1.490 . S
H108 C124 0.939 . S
H109 C126 0.940 . S
C110 P96 1.812 . S
C110 C111 1.389 . S
C110 C115 1.391 1_565 S
C111 H97 0.941 . S
C111 C110 1.389 . S
C111 C112 1.397 . S
C112 H98 0.939 . S
C112 C111 1.397 . S
C112 C113 1.378 . S
C113 C112 1.378 . S
C113 C114 1.378 1_565 S
C114 H99 0.940 . S
C114 C113 1.378 1_545 S
C114 C115 1.396 . S
C115 H100 0.940 . S
C115 C110 1.391 1_545 S
C115 C114 1.396 . S
C116 P96 1.803 . S
C116 C117 1.378 . S
C116 C121 1.400 1_565 S
C117 H101 0.939 . S
C117 C116 1.378 . S
C117 C118 1.361 . S
C118 H102 0.942 . S
C118 C117 1.361 . S
C118 C119 1.369 . S
C119 C118 1.369 . S
C119 C120 1.404 1_565 S
C120 H103 0.940 . S
C120 C119 1.404 1_545 S
C120 C121 1.389 . S
C121 H104 0.939 . S
C121 C116 1.400 1_545 S
C121 C120 1.389 . S
C122 P96 1.819 . S
C122 C123 1.391 . S
C122 C127 1.391 . S
C123 H105 0.941 . S
C123 C122 1.391 . S
C123 C124 1.396 . S
C124 H108 0.939 . S
C124 C123 1.396 . S
C124 C125 1.397 . S
C125 C124 1.397 . S
C125 C126 1.385 1_565 S
C126 H109 0.940 . S
C126 C125 1.385 1_545 S
C126 C127 1.388 1_545 S
C127 H106 0.939 1_565 S
C127 C122 1.391 . S
C127 C126 1.388 1_565 S
P128 O139 1.490 . S
P128 C142 1.812 . S
P128 C148 1.803 . S
P128 C154 1.819 . S
H129 C143 0.941 . S
H130 C144 0.939 . S
H131 C146 0.940 . S
H132 C147 0.940 . S
H133 C149 0.939 . S
H134 C150 0.942 . S
H135 C152 0.940 . S
H136 C153 0.939 . S
H137 C155 0.941 . S
H138 C159 0.939 1_455 S
O139 P128 1.490 . S
H140 C156 0.939 . S
H141 C158 0.940 . S
C142 P128 1.812 . S
C142 C143 1.389 . S
C142 C147 1.391 1_655 S
C143 H129 0.941 . S
C143 C142 1.389 . S
C143 C144 1.397 . S
C144 H130 0.939 . S
C144 C143 1.397 . S
C144 C145 1.378 . S
C145 C144 1.378 . S
C145 C146 1.378 1_655 S
C146 H131 0.940 . S
C146 C145 1.378 1_455 S
C146 C147 1.396 . S
C147 H132 0.940 . S
C147 C142 1.391 1_455 S
C147 C146 1.396 . S
C148 P128 1.803 . S
C148 C149 1.378 . S
C148 C153 1.400 1_655 S
C149 H133 0.939 . S
C149 C148 1.378 . S
C149 C150 1.361 . S
C150 H134 0.942 . S
C150 C149 1.361 . S
C150 C151 1.369 . S
C151 C150 1.369 . S
C151 C152 1.404 1_655 S
C152 H135 0.940 . S
C152 C151 1.404 1_455 S
C152 C153 1.389 . S
C153 H136 0.939 . S
C153 C148 1.400 1_455 S
C153 C152 1.389 . S
C154 P128 1.819 . S
C154 C155 1.391 . S
C154 C159 1.391 . S
C155 H137 0.941 . S
C155 C154 1.391 . S
C155 C156 1.396 . S
C156 H140 0.939 . S
C156 C155 1.396 . S
C156 C157 1.397 . S
C157 C156 1.397 . S
C157 C158 1.385 1_655 S
C158 H141 0.940 . S
C158 C157 1.385 1_455 S
C158 C159 1.388 1_455 S
C159 H138 0.939 1_655 S
C159 C154 1.391 . S
C159 C158 1.388 1_655 S
P160 O171 1.490 . S
P160 C174 1.812 . S
P160 C180 1.803 . S
P160 C186 1.819 . S
H161 C175 0.941 . S
H162 C176 0.939 . S
H163 C178 0.940 . S
H164 C179 0.940 . S
H165 C181 0.939 . S
H166 C182 0.942 . S
H167 C184 0.940 . S
H168 C185 0.939 . S
H169 C187 0.941 . S
H170 C191 0.939 1_545 S
O171 P160 1.490 . S
H172 C188 0.939 . S
H173 C190 0.940 . S
C174 P160 1.812 . S
C174 C175 1.389 . S
C174 C179 1.391 1_565 S
C175 H161 0.941 . S
C175 C174 1.389 . S
C175 C176 1.397 . S
C176 H162 0.939 . S
C176 C175 1.397 . S
C176 C177 1.378 . S
C177 C176 1.378 . S
C177 C178 1.378 1_565 S
C178 H163 0.940 . S
C178 C177 1.378 1_545 S
C178 C179 1.396 . S
C179 H164 0.940 . S
C179 C174 1.391 1_545 S
C179 C178 1.396 . S
C180 P160 1.803 . S
C180 C181 1.378 . S
C180 C185 1.400 1_565 S
C181 H165 0.939 . S
C181 C180 1.378 . S
C181 C182 1.361 . S
C182 H166 0.942 . S
C182 C181 1.361 . S
C182 C183 1.369 . S
C183 C182 1.369 . S
C183 C184 1.404 1_565 S
C184 H167 0.940 . S
C184 C183 1.404 1_545 S
C184 C185 1.389 . S
C185 H168 0.939 . S
C185 C180 1.400 1_545 S
C185 C184 1.389 . S
C186 P160 1.819 . S
C186 C187 1.391 . S
C186 C191 1.391 . S
C187 H169 0.941 . S
C187 C186 1.391 . S
C187 C188 1.396 . S
C188 H172 0.939 . S
C188 C187 1.396 . S
C188 C189 1.397 . S
C189 C188 1.397 . S
C189 C190 1.385 1_565 S
C190 H173 0.940 . S
C190 C189 1.385 1_545 S
C190 C191 1.388 1_545 S
C191 H170 0.939 1_565 S
C191 C186 1.391 . S
C191 C190 1.388 1_565 S
P192 O203 1.490 . S
P192 C206 1.812 . S
P192 C212 1.803 . S
P192 C218 1.819 . S
H193 C207 0.941 . S
H194 C208 0.939 . S
H195 C210 0.940 . S
H196 C211 0.940 1_655 S
H197 C213 0.939 . S
H198 C214 0.942 . S
H199 C216 0.940 . S
H200 C217 0.939 1_655 S
H201 C219 0.941 . S
H202 C223 0.939 . S
O203 P192 1.490 . S
H204 C220 0.939 . S
H205 C222 0.940 . S
C206 P192 1.812 . S
C206 C207 1.389 . S
C206 C211 1.391 . S
C207 H193 0.941 . S
C207 C206 1.389 . S
C207 C208 1.397 . S
C208 H194 0.939 . S
C208 C207 1.397 . S
C208 C209 1.378 . S
C209 C208 1.378 . S
C209 C210 1.378 1_455 S
C210 H195 0.940 . S
C210 C209 1.378 1_655 S
C210 C211 1.396 1_655 S
C211 H196 0.940 1_455 S
C211 C206 1.391 . S
C211 C210 1.396 1_455 S
C212 P192 1.803 . S
C212 C213 1.378 . S
C212 C217 1.400 . S
C213 H197 0.939 . S
C213 C212 1.378 . S
C213 C214 1.361 . S
C214 H198 0.942 . S
C214 C213 1.361 . S
C214 C215 1.369 . S
C215 C214 1.369 . S
C215 C216 1.404 1_455 S
C216 H199 0.940 . S
C216 C215 1.404 1_655 S
C216 C217 1.389 1_655 S
C217 H200 0.939 1_455 S
C217 C212 1.400 . S
C217 C216 1.389 1_455 S
C218 P192 1.819 . S
C218 C219 1.391 . S
C218 C223 1.391 . S
C219 H201 0.941 . S
C219 C218 1.391 . S
C219 C220 1.396 . S
C220 H204 0.939 . S
C220 C219 1.396 . S
C220 C221 1.397 . S
C221 C220 1.397 . S
C221 C222 1.385 1_455 S
C222 H205 0.940 . S
C222 C221 1.385 1_655 S
C222 C223 1.388 1_655 S
C223 H202 0.939 . S
C223 C218 1.391 . S
C223 C222 1.388 1_455 S
P224 O235 1.490 . S
P224 C238 1.812 . S
P224 C244 1.803 . S
P224 C250 1.819 . S
H225 C239 0.941 . S
H226 C240 0.939 . S
H227 C242 0.940 . S
H228 C243 0.918 1_565 S
H229 C245 0.939 . S
H230 C246 0.942 . S
H231 C248 0.940 . S
H232 C249 0.928 1_565 S
H233 C251 0.941 . S
H234 C255 0.948 . S
O235 P224 1.490 . S
H236 C252 0.939 . S
H237 C254 0.940 . S
C238 P224 1.812 . S
C238 C239 1.389 . S
C238 C243 1.427 . S
C239 H225 0.941 . S
C239 C238 1.389 . S
C239 C240 1.397 . S
C240 H226 0.939 . S
C240 C239 1.397 . S
C240 C241 1.378 . S
C241 C240 1.378 . S
C241 C242 1.378 1_545 S
C242 H227 0.940 . S
C242 C241 1.378 1_565 S
C242 C243 1.383 1_565 S
C243 H228 0.918 1_545 S
C243 C238 1.427 . S
C243 C242 1.383 1_545 S
C244 P224 1.803 . S
C244 C245 1.378 . S
C244 C249 1.419 . S
C245 H229 0.939 . S
C245 C244 1.378 . S
C245 C246 1.361 . S
C246 H230 0.942 . S
C246 C245 1.361 . S
C246 C247 1.369 . S
C247 C246 1.369 . S
C247 C248 1.404 1_545 S
C248 H231 0.940 . S
C248 C247 1.404 1_565 S
C248 C249 1.382 1_565 S
C249 H232 0.928 1_545 S
C249 C244 1.419 . S
C249 C248 1.382 1_545 S
C250 P224 1.819 . S
C250 C251 1.391 . S
C250 C255 1.391 . S
C251 H233 0.941 . S
C251 C250 1.391 . S
C251 C252 1.396 . S
C252 H236 0.939 . S
C252 C251 1.396 . S
C252 C253 1.397 . S
C253 C252 1.397 . S
C253 C254 1.385 1_545 S
C254 H237 0.940 . S
C254 C253 1.385 1_565 S
C254 C255 1.388 1_565 S
C255 H234 0.948 . S
C255 C250 1.391 . S
C255 C254 1.388 1_545 S
P256 O267 1.490 . S
P256 C270 1.812 . S
P256 C276 1.803 . S
P256 C282 1.819 . S
H257 C271 0.941 . S
H258 C272 0.939 . S
H259 C274 0.940 . S
H260 C275 0.957 . S
H261 C277 0.939 . S
H262 C278 0.942 . S
H263 C280 0.940 . S
H264 C281 0.967 . S
H265 C283 0.941 . S
H266 C287 0.924 1_554 S
O267 P256 1.490 . S
H268 C284 0.939 . S
H269 C286 0.940 . S
C270 P256 1.812 . S
C270 C271 1.389 . S
C270 C275 1.364 1_556 S
C271 H257 0.941 . S
C271 C270 1.389 . S
C271 C272 1.397 . S
C272 H258 0.939 . S
C272 C271 1.397 . S
C272 C273 1.378 . S
C273 C272 1.378 . S
C273 C274 1.378 1_556 S
C274 H259 0.940 . S
C274 C273 1.378 1_554 S
C274 C275 1.407 . S
C275 H260 0.957 . S
C275 C270 1.364 1_554 S
C275 C274 1.407 . S
C276 P256 1.803 . S
C276 C277 1.378 . S
C276 C281 1.356 1_556 S
C277 H261 0.939 . S
C277 C276 1.378 . S
C277 C278 1.361 . S
C278 H262 0.942 . S
C278 C277 1.361 . S
C278 C279 1.369 . S
C279 C278 1.369 . S
C279 C280 1.404 1_556 S
C280 H263 0.940 . S
C280 C279 1.404 1_554 S
C280 C281 1.407 . S
C281 H264 0.967 . S
C281 C276 1.356 1_554 S
C281 C280 1.407 . S
C282 P256 1.819 . S
C282 C283 1.391 . S
C282 C287 1.391 . S
C283 H265 0.941 . S
C283 C282 1.391 . S
C283 C284 1.396 . S
C284 H268 0.939 . S
C284 C283 1.396 . S
C284 C285 1.397 . S
C285 C284 1.397 . S
C285 C286 1.385 1_556 S
C286 H269 0.940 . S
C286 C285 1.385 1_554 S
C286 C287 1.388 1_554 S
C287 H266 0.924 1_556 S
C287 C282 1.391 . S
C287 C286 1.388 1_556 S
P288 O299 1.490 . S
P288 C302 1.812 . S
P288 C308 1.803 . S
P288 C314 1.819 . S
H289 C303 0.941 . S
H290 C304 0.939 . S
H291 C306 0.940 . S
H292 C307 0.958 . S
H293 C309 0.939 . S
H294 C310 0.942 . S
H295 C312 0.940 . S
H296 C313 0.966 . S
H297 C315 0.941 . S
H298 C319 0.925 1_554 S
O299 P288 1.490 . S
H300 C316 0.939 . S
H301 C318 0.940 . S
C302 P288 1.812 . S
C302 C303 1.389 . S
C302 C307 1.362 1_556 S
C303 H289 0.941 . S
C303 C302 1.389 . S
C303 C304 1.397 . S
C304 H290 0.939 . S
C304 C303 1.397 . S
C304 C305 1.378 . S
C305 C304 1.378 . S
C305 C306 1.378 1_556 S
C306 H291 0.940 . S
C306 C305 1.378 1_554 S
C306 C307 1.408 . S
C307 H292 0.958 . S
C307 C302 1.362 1_554 S
C307 C306 1.408 . S
C308 P288 1.803 . S
C308 C309 1.378 . S
C308 C313 1.357 1_556 S
C309 H293 0.939 . S
C309 C308 1.378 . S
C309 C310 1.361 . S
C310 H294 0.942 . S
C310 C309 1.361 . S
C310 C311 1.369 . S
C311 C310 1.369 . S
C311 C312 1.404 1_556 S
C312 H295 0.940 . S
C312 C311 1.404 1_554 S
C312 C313 1.407 . S
C313 H296 0.966 . S
C313 C308 1.357 1_554 S
C313 C312 1.407 . S
C314 P288 1.819 . S
C314 C315 1.391 . S
C314 C319 1.391 . S
C315 H297 0.941 . S
C315 C314 1.391 . S
C315 C316 1.396 . S
C316 H300 0.939 . S
C316 C315 1.396 . S
C316 C317 1.397 . S
C317 C316 1.397 . S
C317 C318 1.385 1_556 S
C318 H301 0.940 . S
C318 C317 1.385 1_554 S
C318 C319 1.388 1_554 S
C319 H298 0.925 1_556 S
C319 C314 1.391 . S
C319 C318 1.388 1_556 S
P320 O331 1.490 . S
P320 C334 1.812 . S
P320 C340 1.803 . S
P320 C346 1.819 . S
H321 C335 0.941 . S
H322 C336 0.939 . S
H323 C338 0.940 . S
H324 C339 0.956 . S
H325 C341 0.939 . S
H326 C342 0.942 . S
H327 C344 0.940 . S
H328 C345 0.964 . S
H329 C347 0.941 . S
H330 C351 0.926 1_554 S
O331 P320 1.490 . S
H332 C348 0.939 . S
H333 C350 0.940 . S
C334 P320 1.812 . S
C334 C335 1.389 . S
C334 C339 1.366 1_556 S
C335 H321 0.941 . S
C335 C334 1.389 . S
C335 C336 1.397 . S
C336 H322 0.939 . S
C336 C335 1.397 . S
C336 C337 1.378 . S
C337 C336 1.378 . S
C337 C338 1.378 1_556 S
C338 H323 0.940 . S
C338 C337 1.378 1_554 S
C338 C339 1.406 . S
C339 H324 0.956 . S
C339 C334 1.366 1_554 S
C339 C338 1.406 . S
C340 P320 1.803 . S
C340 C341 1.378 . S
C340 C345 1.361 1_556 S
C341 H325 0.939 . S
C341 C340 1.378 . S
C341 C342 1.361 . S
C342 H326 0.942 . S
C342 C341 1.361 . S
C342 C343 1.369 . S
C343 C342 1.369 . S
C343 C344 1.404 1_556 S
C344 H327 0.940 . S
C344 C343 1.404 1_554 S
C344 C345 1.405 . S
C345 H328 0.964 . S
C345 C340 1.361 1_554 S
C345 C344 1.405 . S
C346 P320 1.819 . S
C346 C347 1.391 . S
C346 C351 1.391 . S
C347 H329 0.941 . S
C347 C346 1.391 . S
C347 C348 1.396 . S
C348 H332 0.939 . S
C348 C347 1.396 . S
C348 C349 1.397 . S
C349 C348 1.397 . S
C349 C350 1.385 1_556 S
C350 H333 0.940 . S
C350 C349 1.385 1_554 S
C350 C351 1.388 1_554 S
C351 H330 0.926 1_556 S
C351 C346 1.391 . S
C351 C350 1.388 1_556 S
P352 O363 1.490 . S
P352 C366 1.812 . S
P352 C372 1.803 . S
P352 C378 1.819 . S
H353 C367 0.941 . S
H354 C368 0.939 . S
H355 C370 0.940 . S
H356 C371 0.939 . S
H357 C373 0.939 . S
H358 C374 0.942 . S
H359 C376 0.940 . S
H360 C377 0.949 . S
H361 C379 0.941 . S
H362 C383 0.936 1_556 S
O363 P352 1.490 . S
H364 C380 0.939 . S
H365 C382 0.940 . S
C366 P352 1.812 . S
C366 C367 1.389 . S
C366 C371 1.393 1_554 S
C367 H353 0.941 . S
C367 C366 1.389 . S
C367 C368 1.397 . S
C368 H354 0.939 . S
C368 C367 1.397 . S
C368 C369 1.378 . S
C369 C368 1.378 . S
C369 C370 1.378 1_554 S
C370 H355 0.940 . S
C370 C369 1.378 1_556 S
C370 C371 1.396 . S
C371 H356 0.939 . S
C371 C366 1.393 1_556 S
C371 C370 1.396 . S
C372 P352 1.803 . S
C372 C373 1.378 . S
C372 C377 1.385 1_554 S
C373 H357 0.939 . S
C373 C372 1.378 . S
C373 C374 1.361 . S
C374 H358 0.942 . S
C374 C373 1.361 . S
C374 C375 1.369 . S
C375 C374 1.369 . S
C375 C376 1.404 1_554 S
C376 H359 0.940 . S
C376 C375 1.404 1_556 S
C376 C377 1.395 . S
C377 H360 0.949 . S
C377 C372 1.385 1_556 S
C377 C376 1.395 . S
C378 P352 1.819 . S
C378 C379 1.391 . S
C378 C383 1.391 . S
C379 H361 0.941 . S
C379 C378 1.391 . S
C379 C380 1.396 . S
C380 H364 0.939 . S
C380 C379 1.396 . S
C380 C381 1.397 . S
C381 C380 1.397 . S
C381 C382 1.385 1_554 S
C382 H365 0.940 . S
C382 C381 1.385 1_556 S
C382 C383 1.388 1_556 S
C383 H362 0.936 1_554 S
C383 C378 1.391 . S
C383 C382 1.388 1_554 S
P384 O395 1.490 . S
P384 C398 1.812 . S
P384 C404 1.803 . S
P384 C410 1.819 . S
H385 C399 0.941 . S
H386 C400 0.939 . S
H387 C402 0.940 . S
H388 C403 0.940 . S
H389 C405 0.939 . S
H390 C406 0.942 . S
H391 C408 0.940 . S
H392 C409 0.939 . S
H393 C411 0.941 . S
H394 C415 0.939 . S
O395 P384 1.490 . S
H396 C412 0.939 . S
H397 C414 0.940 . S
C398 P384 1.812 . S
C398 C399 1.389 . S
C398 C403 1.391 . S
C399 H385 0.941 . S
C399 C398 1.389 . S
C399 C400 1.397 . S
C400 H386 0.939 . S
C400 C399 1.397 . S
C400 C401 1.378 . S
C401 C400 1.378 . S
C401 C402 1.378 . S
C402 H387 0.940 . S
C402 C401 1.378 . S
C402 C403 1.396 . S
C403 H388 0.940 . S
C403 C398 1.391 . S
C403 C402 1.396 . S
C404 P384 1.803 . S
C404 C405 1.378 . S
C404 C409 1.400 . S
C405 H389 0.939 . S
C405 C404 1.378 . S
C405 C406 1.361 . S
C406 H390 0.942 . S
C406 C405 1.361 . S
C406 C407 1.369 . S
C407 C406 1.369 . S
C407 C408 1.404 . S
C408 H391 0.940 . S
C408 C407 1.404 . S
C408 C409 1.389 . S
C409 H392 0.939 . S
C409 C404 1.400 . S
C409 C408 1.389 . S
C410 P384 1.819 . S
C410 C411 1.391 . S
C410 C415 1.391 . S
C411 H393 0.941 . S
C411 C410 1.391 . S
C411 C412 1.396 . S
C412 H396 0.939 . S
C412 C411 1.396 . S
C412 C413 1.397 . S
C413 C412 1.397 . S
C413 C414 1.385 . S
C414 H397 0.940 . S
C414 C413 1.385 . S
C414 C415 1.388 . S
C415 H394 0.939 . S
C415 C410 1.391 . S
C415 C414 1.388 . S
P416 O427 1.490 . S
P416 C430 1.812 . S
P416 C436 1.803 . S
P416 C442 1.819 . S
H417 C431 0.941 . S
H418 C432 0.939 . S
H419 C434 0.940 . S
H420 C435 0.940 . S
H421 C437 0.939 . S
H422 C438 0.942 . S
H423 C440 0.940 . S
H424 C441 0.939 . S
H425 C443 0.941 . S
H426 C447 0.939 . S
O427 P416 1.490 . S
H428 C444 0.939 . S
H429 C446 0.940 . S
C430 P416 1.812 . S
C430 C431 1.389 . S
C430 C435 1.391 . S
C431 H417 0.941 . S
C431 C430 1.389 . S
C431 C432 1.397 . S
C432 H418 0.939 . S
C432 C431 1.397 . S
C432 C433 1.378 . S
C433 C432 1.378 . S
C433 C434 1.378 . S
C434 H419 0.940 . S
C434 C433 1.378 . S
C434 C435 1.396 . S
C435 H420 0.940 . S
C435 C430 1.391 . S
C435 C434 1.396 . S
C436 P416 1.803 . S
C436 C437 1.378 . S
C436 C441 1.400 . S
C437 H421 0.939 . S
C437 C436 1.378 . S
C437 C438 1.361 . S
C438 H422 0.942 . S
C438 C437 1.361 . S
C438 C439 1.369 . S
C439 C438 1.369 . S
C439 C440 1.404 . S
C440 H423 0.940 . S
C440 C439 1.404 . S
C440 C441 1.389 . S
C441 H424 0.939 . S
C441 C436 1.400 . S
C441 C440 1.389 . S
C442 P416 1.819 . S
C442 C443 1.391 . S
C442 C447 1.391 . S
C443 H425 0.941 . S
C443 C442 1.391 . S
C443 C444 1.396 . S
C444 H428 0.939 . S
C444 C443 1.396 . S
C444 C445 1.397 . S
C445 C444 1.397 . S
C445 C446 1.385 . S
C446 H429 0.940 . S
C446 C445 1.385 . S
C446 C447 1.388 . S
C447 H426 0.939 . S
C447 C442 1.391 . S
C447 C446 1.388 . S
P448 O459 1.490 . S
P448 C462 1.812 . S
P448 C468 1.803 . S
P448 C474 1.819 . S
H449 C463 0.941 . S
H450 C464 0.939 . S
H451 C466 0.940 . S
H452 C467 0.940 . S
H453 C469 0.939 . S
H454 C470 0.942 . S
H455 C472 0.940 . S
H456 C473 0.939 . S
H457 C475 0.941 . S
H458 C479 0.939 . S
O459 P448 1.490 . S
H460 C476 0.939 . S
H461 C478 0.940 . S
C462 P448 1.812 . S
C462 C463 1.389 . S
C462 C467 1.391 . S
C463 H449 0.941 . S
C463 C462 1.389 . S
C463 C464 1.397 . S
C464 H450 0.939 . S
C464 C463 1.397 . S
C464 C465 1.378 . S
C465 C464 1.378 . S
C465 C466 1.378 . S
C466 H451 0.940 . S
C466 C465 1.378 . S
C466 C467 1.396 . S
C467 H452 0.940 . S
C467 C462 1.391 . S
C467 C466 1.396 . S
C468 P448 1.803 . S
C468 C469 1.378 . S
C468 C473 1.400 . S
C469 H453 0.939 . S
C469 C468 1.378 . S
C469 C470 1.361 . S
C470 H454 0.942 . S
C470 C469 1.361 . S
C470 C471 1.369 . S
C471 C470 1.369 . S
C471 C472 1.404 . S
C472 H455 0.940 . S
C472 C471 1.404 . S
C472 C473 1.389 . S
C473 H456 0.939 . S
C473 C468 1.400 . S
C473 C472 1.389 . S
C474 P448 1.819 . S
C474 C475 1.391 . S
C474 C479 1.391 . S
C475 H457 0.941 . S
C475 C474 1.391 . S
C475 C476 1.396 . S
C476 H460 0.939 . S
C476 C475 1.396 . S
C476 C477 1.397 . S
C477 C476 1.397 . S
C477 C478 1.385 . S
C478 H461 0.940 . S
C478 C477 1.385 . S
C478 C479 1.388 . S
C479 H458 0.939 . S
C479 C474 1.391 . S
C479 C478 1.388 . S
P480 O491 1.490 . S
P480 C494 1.812 . S
P480 C500 1.803 . S
P480 C506 1.819 . S
H481 C495 0.941 . S
H482 C496 0.939 . S
H483 C498 0.940 . S
H484 C499 0.940 . S
H485 C501 0.939 . S
H486 C502 0.942 . S
H487 C504 0.940 . S
H488 C505 0.939 . S
H489 C507 0.941 . S
H490 C511 0.939 . S
O491 P480 1.490 . S
H492 C508 0.939 . S
H493 C510 0.940 . S
C494 P480 1.812 . S
C494 C495 1.389 . S
C494 C499 1.391 . S
C495 H481 0.941 . S
C495 C494 1.389 . S
C495 C496 1.397 . S
C496 H482 0.939 . S
C496 C495 1.397 . S
C496 C497 1.378 . S
C497 C496 1.378 . S
C497 C498 1.378 . S
C498 H483 0.940 . S
C498 C497 1.378 . S
C498 C499 1.396 . S
C499 H484 0.940 . S
C499 C494 1.391 . S
C499 C498 1.396 . S
C500 P480 1.803 . S
C500 C501 1.378 . S
C500 C505 1.400 . S
C501 H485 0.939 . S
C501 C500 1.378 . S
C501 C502 1.361 . S
C502 H486 0.942 . S
C502 C501 1.361 . S
C502 C503 1.369 . S
C503 C502 1.369 . S
C503 C504 1.404 . S
C504 H487 0.940 . S
C504 C503 1.404 . S
C504 C505 1.389 . S
C505 H488 0.939 . S
C505 C500 1.400 . S
C505 C504 1.389 . S
C506 P480 1.819 . S
C506 C507 1.391 . S
C506 C511 1.391 . S
C507 H489 0.941 . S
C507 C506 1.391 . S
C507 C508 1.396 . S
C508 H492 0.939 . S
C508 C507 1.396 . S
C508 C509 1.397 . S
C509 C508 1.397 . S
C509 C510 1.385 . S
C510 H493 0.940 . S
C510 C509 1.385 . S
C510 C511 1.388 . S
C511 H490 0.939 . S
C511 C506 1.391 . S
C511 C510 1.388 . S
P512 O523 1.490 . S
P512 C526 1.812 . S
P512 C532 1.803 . S
P512 C538 1.819 . S
H513 C527 0.941 . S
H514 C528 0.939 . S
H515 C530 0.940 . S
H516 C531 0.940 . S
H517 C533 0.939 . S
H518 C534 0.942 . S
H519 C536 0.940 . S
H520 C537 0.939 . S
H521 C539 0.941 . S
H522 C543 0.939 . S
O523 P512 1.490 . S
H524 C540 0.939 . S
H525 C542 0.940 . S
C526 P512 1.812 . S
C526 C527 1.389 . S
C526 C531 1.391 . S
C527 H513 0.941 . S
C527 C526 1.389 . S
C527 C528 1.397 . S
C528 H514 0.939 . S
C528 C527 1.397 . S
C528 C529 1.378 . S
C529 C528 1.378 . S
C529 C530 1.378 . S
C530 H515 0.940 . S
C530 C529 1.378 . S
C530 C531 1.396 . S
C531 H516 0.940 . S
C531 C526 1.391 . S
C531 C530 1.396 . S
C532 P512 1.803 . S
C532 C533 1.378 . S
C532 C537 1.400 . S
C533 H517 0.939 . S
C533 C532 1.378 . S
C533 C534 1.361 . S
C534 H518 0.942 . S
C534 C533 1.361 . S
C534 C535 1.369 . S
C535 C534 1.369 . S
C535 C536 1.404 . S
C536 H519 0.940 . S
C536 C535 1.404 . S
C536 C537 1.389 . S
C537 H520 0.939 . S
C537 C532 1.400 . S
C537 C536 1.389 . S
C538 P512 1.819 . S
C538 C539 1.391 . S
C538 C543 1.391 . S
C539 H521 0.941 . S
C539 C538 1.391 . S
C539 C540 1.396 . S
C540 H524 0.939 . S
C540 C539 1.396 . S
C540 C541 1.397 . S
C541 C540 1.397 . S
C541 C542 1.385 . S
C542 H525 0.940 . S
C542 C541 1.385 . S
C542 C543 1.388 . S
C543 H522 0.939 . S
C543 C538 1.391 . S
C543 C542 1.388 . S
P544 O555 1.490 . S
P544 C558 1.812 . S
P544 C564 1.803 . S
P544 C570 1.819 . S
H545 C559 0.941 . S
H546 C560 0.939 . S
H547 C562 0.940 . S
H548 C563 0.940 . S
H549 C565 0.939 . S
H550 C566 0.942 . S
H551 C568 0.940 . S
H552 C569 0.939 . S
H553 C571 0.941 . S
H554 C575 0.939 . S
O555 P544 1.490 . S
H556 C572 0.939 . S
H557 C574 0.940 . S
C558 P544 1.812 . S
C558 C559 1.389 . S
C558 C563 1.391 . S
C559 H545 0.941 . S
C559 C558 1.389 . S
C559 C560 1.397 . S
C560 H546 0.939 . S
C560 C559 1.397 . S
C560 C561 1.378 . S
C561 C560 1.378 . S
C561 C562 1.378 . S
C562 H547 0.940 . S
C562 C561 1.378 . S
C562 C563 1.396 . S
C563 H548 0.940 . S
C563 C558 1.391 . S
C563 C562 1.396 . S
C564 P544 1.803 . S
C564 C565 1.378 . S
C564 C569 1.400 . S
C565 H549 0.939 . S
C565 C564 1.378 . S
C565 C566 1.361 . S
C566 H550 0.942 . S
C566 C565 1.361 . S
C566 C567 1.369 . S
C567 C566 1.369 . S
C567 C568 1.404 . S
C568 H551 0.940 . S
C568 C567 1.404 . S
C568 C569 1.389 . S
C569 H552 0.939 . S
C569 C564 1.400 . S
C569 C568 1.389 . S
C570 P544 1.819 . S
C570 C571 1.391 . S
C570 C575 1.391 . S
C571 H553 0.941 . S
C571 C570 1.391 . S
C571 C572 1.396 . S
C572 H556 0.939 . S
C572 C571 1.396 . S
C572 C573 1.397 . S
C573 C572 1.397 . S
C573 C574 1.385 . S
C574 H557 0.940 . S
C574 C573 1.385 . S
C574 C575 1.388 . S
C575 H554 0.939 . S
C575 C570 1.391 . S
C575 C574 1.388 . S
P576 O587 1.490 . S
P576 C590 1.812 . S
P576 C596 1.803 . S
P576 C602 1.819 . S
H577 C591 0.941 . S
H578 C592 0.939 . S
H579 C594 0.940 . S
H580 C595 0.940 . S
H581 C597 0.939 . S
H582 C598 0.942 . S
H583 C600 0.940 . S
H584 C601 0.939 . S
H585 C603 0.941 . S
H586 C607 0.939 . S
O587 P576 1.490 . S
H588 C604 0.939 . S
H589 C606 0.940 . S
C590 P576 1.812 . S
C590 C591 1.389 . S
C590 C595 1.391 . S
C591 H577 0.941 . S
C591 C590 1.389 . S
C591 C592 1.397 . S
C592 H578 0.939 . S
C592 C591 1.397 . S
C592 C593 1.378 . S
C593 C592 1.378 . S
C593 C594 1.378 . S
C594 H579 0.940 . S
C594 C593 1.378 . S
C594 C595 1.396 . S
C595 H580 0.940 . S
C595 C590 1.391 . S
C595 C594 1.396 . S
C596 P576 1.803 . S
C596 C597 1.378 . S
C596 C601 1.400 . S
C597 H581 0.939 . S
C597 C596 1.378 . S
C597 C598 1.361 . S
C598 H582 0.942 . S
C598 C597 1.361 . S
C598 C599 1.369 . S
C599 C598 1.369 . S
C599 C600 1.404 . S
C600 H583 0.940 . S
C600 C599 1.404 . S
C600 C601 1.389 . S
C601 H584 0.939 . S
C601 C596 1.400 . S
C601 C600 1.389 . S
C602 P576 1.819 . S
C602 C603 1.391 . S
C602 C607 1.391 . S
C603 H585 0.941 . S
C603 C602 1.391 . S
C603 C604 1.396 . S
C604 H588 0.939 . S
C604 C603 1.396 . S
C604 C605 1.397 . S
C605 C604 1.397 . S
C605 C606 1.385 . S
C606 H589 0.940 . S
C606 C605 1.385 . S
C606 C607 1.388 . S
C607 H586 0.939 . S
C607 C602 1.391 . S
C607 C606 1.388 . S
P608 O619 1.490 . S
P608 C622 1.812 . S
P608 C628 1.803 . S
P608 C634 1.819 . S
H609 C623 0.941 . S
H610 C624 0.939 . S
H611 C626 0.940 . S
H612 C627 0.940 . S
H613 C629 0.939 . S
H614 C630 0.942 . S
H615 C632 0.940 . S
H616 C633 0.939 . S
H617 C635 0.941 . S
H618 C639 0.939 . S
O619 P608 1.490 . S
H620 C636 0.939 . S
H621 C638 0.940 . S
C622 P608 1.812 . S
C622 C623 1.389 . S
C622 C627 1.391 . S
C623 H609 0.941 . S
C623 C622 1.389 . S
C623 C624 1.397 . S
C624 H610 0.939 . S
C624 C623 1.397 . S
C624 C625 1.378 . S
C625 C624 1.378 . S
C625 C626 1.378 . S
C626 H611 0.940 . S
C626 C625 1.378 . S
C626 C627 1.396 . S
C627 H612 0.940 . S
C627 C622 1.391 . S
C627 C626 1.396 . S
C628 P608 1.803 . S
C628 C629 1.378 . S
C628 C633 1.400 . S
C629 H613 0.939 . S
C629 C628 1.378 . S
C629 C630 1.361 . S
C630 H614 0.942 . S
C630 C629 1.361 . S
C630 C631 1.369 . S
C631 C630 1.369 . S
C631 C632 1.404 . S
C632 H615 0.940 . S
C632 C631 1.404 . S
C632 C633 1.389 . S
C633 H616 0.939 . S
C633 C628 1.400 . S
C633 C632 1.389 . S
C634 P608 1.819 . S
C634 C635 1.391 . S
C634 C639 1.391 . S
C635 H617 0.941 . S
C635 C634 1.391 . S
C635 C636 1.396 . S
C636 H620 0.939 . S
C636 C635 1.396 . S
C636 C637 1.397 . S
C637 C636 1.397 . S
C637 C638 1.385 . S
C638 H621 0.940 . S
C638 C637 1.385 . S
C638 C639 1.388 . S
C639 H618 0.939 . S
C639 C634 1.391 . S
C639 C638 1.388 . S
P640 O651 1.490 . S
P640 C654 1.812 . S
P640 C660 1.803 . S
P640 C666 1.819 . S
H641 C655 0.941 . S
H642 C656 0.939 . S
H643 C658 0.940 . S
H644 C659 0.940 . S
H645 C661 0.939 . S
H646 C662 0.942 . S
H647 C664 0.940 . S
H648 C665 0.939 . S
H649 C667 0.941 . S
H650 C671 0.939 . S
O651 P640 1.490 . S
H652 C668 0.939 . S
H653 C670 0.940 . S
C654 P640 1.812 . S
C654 C655 1.389 . S
C654 C659 1.391 . S
C655 H641 0.941 . S
C655 C654 1.389 . S
C655 C656 1.397 . S
C656 H642 0.939 . S
C656 C655 1.397 . S
C656 C657 1.378 . S
C657 C656 1.378 . S
C657 C658 1.378 . S
C658 H643 0.940 . S
C658 C657 1.378 . S
C658 C659 1.396 . S
C659 H644 0.940 . S
C659 C654 1.391 . S
C659 C658 1.396 . S
C660 P640 1.803 . S
C660 C661 1.378 . S
C660 C665 1.400 . S
C661 H645 0.939 . S
C661 C660 1.378 . S
C661 C662 1.361 . S
C662 H646 0.942 . S
C662 C661 1.361 . S
C662 C663 1.369 . S
C663 C662 1.369 . S
C663 C664 1.404 . S
C664 H647 0.940 . S
C664 C663 1.404 . S
C664 C665 1.389 . S
C665 H648 0.939 . S
C665 C660 1.400 . S
C665 C664 1.389 . S
C666 P640 1.819 . S
C666 C667 1.391 . S
C666 C671 1.391 . S
C667 H649 0.941 . S
C667 C666 1.391 . S
C667 C668 1.396 . S
C668 H652 0.939 . S
C668 C667 1.396 . S
C668 C669 1.397 . S
C669 C668 1.397 . S
C669 C670 1.385 . S
C670 H653 0.940 . S
C670 C669 1.385 . S
C670 C671 1.388 . S
C671 H650 0.939 . S
C671 C666 1.391 . S
C671 C670 1.388 . S
P672 O683 1.490 . S
P672 C686 1.812 . S
P672 C692 1.803 . S
P672 C698 1.819 . S
H673 C687 0.941 . S
H674 C688 0.939 . S
H675 C690 0.940 . S
H676 C691 0.940 . S
H677 C693 0.939 . S
H678 C694 0.942 . S
H679 C696 0.940 . S
H680 C697 0.939 . S
H681 C699 0.941 . S
H682 C703 0.939 . S
O683 P672 1.490 . S
H684 C700 0.939 . S
H685 C702 0.940 . S
C686 P672 1.812 . S
C686 C687 1.389 . S
C686 C691 1.391 . S
C687 H673 0.941 . S
C687 C686 1.389 . S
C687 C688 1.397 . S
C688 H674 0.939 . S
C688 C687 1.397 . S
C688 C689 1.378 . S
C689 C688 1.378 . S
C689 C690 1.378 . S
C690 H675 0.940 . S
C690 C689 1.378 . S
C690 C691 1.396 . S
C691 H676 0.940 . S
C691 C686 1.391 . S
C691 C690 1.396 . S
C692 P672 1.803 . S
C692 C693 1.378 . S
C692 C697 1.400 . S
C693 H677 0.939 . S
C693 C692 1.378 . S
C693 C694 1.361 . S
C694 H678 0.942 . S
C694 C693 1.361 . S
C694 C695 1.369 . S
C695 C694 1.369 . S
C695 C696 1.404 . S
C696 H679 0.940 . S
C696 C695 1.404 . S
C696 C697 1.389 . S
C697 H680 0.939 . S
C697 C692 1.400 . S
C697 C696 1.389 . S
C698 P672 1.819 . S
C698 C699 1.391 . S
C698 C703 1.391 . S
C699 H681 0.941 . S
C699 C698 1.391 . S
C699 C700 1.396 . S
C700 H684 0.939 . S
C700 C699 1.396 . S
C700 C701 1.397 . S
C701 C700 1.397 . S
C701 C702 1.385 . S
C702 H685 0.940 . S
C702 C701 1.385 . S
C702 C703 1.388 . S
C703 H682 0.939 . S
C703 C698 1.391 . S
C703 C702 1.388 . S
P704 O715 1.490 . S
P704 C718 1.812 . S
P704 C724 1.803 . S
P704 C730 1.819 . S
H705 C719 0.941 . S
H706 C720 0.939 . S
H707 C722 0.940 . S
H708 C723 0.940 . S
H709 C725 0.939 . S
H710 C726 0.942 . S
H711 C728 0.940 . S
H712 C729 0.939 . S
H713 C731 0.941 . S
H714 C735 0.939 . S
O715 P704 1.490 . S
H716 C732 0.939 . S
H717 C734 0.940 . S
C718 P704 1.812 . S
C718 C719 1.389 . S
C718 C723 1.391 . S
C719 H705 0.941 . S
C719 C718 1.389 . S
C719 C720 1.397 . S
C720 H706 0.939 . S
C720 C719 1.397 . S
C720 C721 1.378 . S
C721 C720 1.378 . S
C721 C722 1.378 . S
C722 H707 0.940 . S
C722 C721 1.378 . S
C722 C723 1.396 . S
C723 H708 0.940 . S
C723 C718 1.391 . S
C723 C722 1.396 . S
C724 P704 1.803 . S
C724 C725 1.378 . S
C724 C729 1.400 . S
C725 H709 0.939 . S
C725 C724 1.378 . S
C725 C726 1.361 . S
C726 H710 0.942 . S
C726 C725 1.361 . S
C726 C727 1.369 . S
C727 C726 1.369 . S
C727 C728 1.404 . S
C728 H711 0.940 . S
C728 C727 1.404 . S
C728 C729 1.389 . S
C729 H712 0.939 . S
C729 C724 1.400 . S
C729 C728 1.389 . S
C730 P704 1.819 . S
C730 C731 1.391 . S
C730 C735 1.391 . S
C731 H713 0.941 . S
C731 C730 1.391 . S
C731 C732 1.396 . S
C732 H716 0.939 . S
C732 C731 1.396 . S
C732 C733 1.397 . S
C733 C732 1.397 . S
C733 C734 1.385 . S
C734 H717 0.940 . S
C734 C733 1.385 . S
C734 C735 1.388 . S
C735 H714 0.939 . S
C735 C730 1.391 . S
C735 C734 1.388 . S
P736 O747 1.490 . S
P736 C750 1.812 . S
P736 C756 1.803 . S
P736 C762 1.819 . S
H737 C751 0.941 . S
H738 C752 0.939 . S
H739 C754 0.940 . S
H740 C755 0.940 . S
H741 C757 0.939 . S
H742 C758 0.942 . S
H743 C760 0.940 . S
H744 C761 0.939 . S
H745 C763 0.941 . S
H746 C767 0.939 . S
O747 P736 1.490 . S
H748 C764 0.939 . S
H749 C766 0.940 . S
C750 P736 1.812 . S
C750 C751 1.389 . S
C750 C755 1.391 . S
C751 H737 0.941 . S
C751 C750 1.389 . S
C751 C752 1.397 . S
C752 H738 0.939 . S
C752 C751 1.397 . S
C752 C753 1.378 . S
C753 C752 1.378 . S
C753 C754 1.378 . S
C754 H739 0.940 . S
C754 C753 1.378 . S
C754 C755 1.396 . S
C755 H740 0.940 . S
C755 C750 1.391 . S
C755 C754 1.396 . S
C756 P736 1.803 . S
C756 C757 1.378 . S
C756 C761 1.400 . S
C757 H741 0.939 . S
C757 C756 1.378 . S
C757 C758 1.361 . S
C758 H742 0.942 . S
C758 C757 1.361 . S
C758 C759 1.369 . S
C759 C758 1.369 . S
C759 C760 1.404 . S
C760 H743 0.940 . S
C760 C759 1.404 . S
C760 C761 1.389 . S
C761 H744 0.939 . S
C761 C756 1.400 . S
C761 C760 1.389 . S
C762 P736 1.819 . S
C762 C763 1.391 . S
C762 C767 1.391 . S
C763 H745 0.941 . S
C763 C762 1.391 . S
C763 C764 1.396 . S
C764 H748 0.939 . S
C764 C763 1.396 . S
C764 C765 1.397 . S
C765 C764 1.397 . S
C765 C766 1.385 . S
C766 H749 0.940 . S
C766 C765 1.385 . S
C766 C767 1.388 . S
C767 H746 0.939 . S
C767 C762 1.391 . S
C767 C766 1.388 . S
C768 O794 1.283 . S
C768 O812 1.283 . S
C769 O795 1.283 . S
C769 O810 1.283 . S
C770 O796 1.283 . S
C770 O813 1.283 . S
C771 O797 1.283 . S
C771 O811 1.283 . S
C772 O798 1.283 . S
C772 O807 1.283 . S
C773 O799 1.283 . S
C773 O809 1.283 . S
C774 O800 1.283 . S
C774 O806 1.283 . S
C775 O801 1.283 . S
C775 O808 1.283 . S
C776 O802 1.283 . S
C776 O817 1.283 . S
C777 O803 1.283 . S
C777 O815 1.283 . S
C778 O804 1.283 . S
C778 O816 1.283 . S
C779 O805 1.283 . S
C779 O814 1.283 . S
Eu780 O781 2.370 1_455 S
Eu780 O782 2.370 . S
Eu780 O785 2.370 1_455 S
Eu780 O786 2.370 . S
Eu780 O794 2.363 . S
Eu780 O795 2.363 . S
Eu780 O808 2.363 . S
Eu780 O809 2.363 1_455 S
O781 Eu780 2.370 1_655 S
O781 Eu783 2.349 1_565 S
O781 Eu788 2.349 1_665 S
O782 Eu780 2.370 . S
O782 Eu784 2.348 1_565 S
O782 Eu787 2.349 1_565 S
Eu783 O781 2.349 1_545 S
Eu783 O785 2.349 1_545 S
Eu783 O789 2.391 . S
Eu783 O790 2.391 . S
Eu783 O798 2.398 . S
Eu783 O799 2.328 1_545 S
Eu783 O814 2.363 . S
Eu783 O815 2.363 . S
Eu784 O782 2.348 1_545 S
Eu784 O786 2.348 1_545 S
Eu784 O791 2.392 . S
Eu784 O792 2.392 . S
Eu784 O800 2.400 . S
Eu784 O801 2.326 1_545 S
Eu784 O816 2.363 . S
Eu784 O817 2.363 . S
O785 Eu780 2.370 1_655 S
O785 Eu783 2.349 1_565 S
O785 Eu787 2.349 1_665 S
O786 Eu780 2.370 . S
O786 Eu784 2.348 1_565 S
O786 Eu788 2.349 1_565 S
Eu787 O782 2.349 1_545 S
Eu787 O785 2.349 1_445 S
Eu787 O789 2.392 1_455 S
Eu787 O792 2.392 . S
Eu787 O804 2.363 . S
Eu787 O805 2.363 1_455 S
Eu787 O812 2.327 1_545 S
Eu787 O813 2.399 . S
Eu788 O781 2.349 1_445 S
Eu788 O786 2.349 1_545 S
Eu788 O790 2.392 1_455 S
Eu788 O791 2.392 . S
Eu788 O802 2.363 . S
Eu788 O803 2.363 1_455 S
Eu788 O810 2.327 1_545 S
Eu788 O811 2.399 . S
O789 Eu783 2.391 . S
O789 Eu787 2.392 1_655 S
O789 Eu793 2.370 1_655 S
O790 Eu783 2.391 . S
O790 Eu788 2.392 1_655 S
O790 Eu793 2.370 1_655 S
O791 Eu784 2.392 . S
O791 Eu788 2.392 . S
O791 Eu793 2.370 . S
O792 Eu784 2.392 . S
O792 Eu787 2.392 . S
O792 Eu793 2.370 . S
Eu793 O789 2.370 1_455 S
Eu793 O790 2.370 1_455 S
Eu793 O791 2.370 . S
Eu793 O792 2.370 . S
Eu793 O796 2.363 . S
Eu793 O797 2.363 . S
Eu793 O806 2.363 . S
Eu793 O807 2.363 1_455 S
O794 C768 1.283 . S
O794 Eu780 2.363 . S
O795 C769 1.283 . S
O795 Eu780 2.363 . S
O796 C770 1.283 . S
O796 Eu793 2.363 . S
O797 C771 1.283 . S
O797 Eu793 2.363 . S
O798 C772 1.283 . S
O798 Eu783 2.398 . S
O799 C773 1.283 . S
O799 Eu783 2.328 1_565 S
O800 C774 1.283 . S
O800 Eu784 2.400 . S
O801 C775 1.283 . S
O801 Eu784 2.326 1_565 S
O802 C776 1.283 . S
O802 Eu788 2.363 . S
O803 C777 1.283 . S
O803 Eu788 2.363 1_655 S
O804 C778 1.283 . S
O804 Eu787 2.363 . S
O805 C779 1.283 . S
O805 Eu787 2.363 1_655 S
O806 C774 1.283 . S
O806 Eu793 2.363 . S
O807 C772 1.283 . S
O807 Eu793 2.363 1_655 S
O808 C775 1.283 . S
O808 Eu780 2.363 . S
O809 C773 1.283 . S
O809 Eu780 2.363 1_655 S
O810 C769 1.283 . S
O810 Eu788 2.327 1_565 S
O811 C771 1.283 . S
O811 Eu788 2.399 . S
O812 C768 1.283 . S
O812 Eu787 2.327 1_565 S
O813 C770 1.283 . S
O813 Eu787 2.399 . S
O814 C779 1.283 . S
O814 Eu783 2.363 . S
O815 C777 1.283 . S
O815 Eu783 2.363 . S
O816 C778 1.283 . S
O816 Eu784 2.363 . S
O817 C776 1.283 . S
O817 Eu784 2.363 . S
C818 O844 1.283 . S
C818 O862 1.283 . S
C819 O845 1.283 . S
C819 O860 1.283 . S
C820 O846 1.283 . S
C820 O863 1.283 . S
C821 O847 1.283 . S
C821 O861 1.283 . S
C822 O848 1.283 . S
C822 O857 1.283 . S
C823 O849 1.283 . S
C823 O859 1.283 . S
C824 O850 1.283 . S
C824 O856 1.283 . S
C825 O851 1.283 . S
C825 O858 1.283 . S
C826 O852 1.283 . S
C826 O867 1.283 . S
C827 O853 1.283 . S
C827 O865 1.283 . S
C828 O854 1.283 . S
C828 O866 1.283 . S
C829 O855 1.283 . S
C829 O864 1.283 . S
Eu830 O831 2.370 . S
Eu830 O832 2.370 1_545 S
Eu830 O835 2.370 1_545 S
Eu830 O836 2.370 . S
Eu830 O844 2.363 1_545 S
Eu830 O845 2.363 . S
Eu830 O858 2.363 . S
Eu830 O859 2.363 . S
O831 Eu830 2.370 . S
O831 Eu833 2.370 . S
O831 Eu838 2.370 . S
O832 Eu830 2.370 1_565 S
O832 Eu834 2.370 1_565 S
O832 Eu837 2.370 . S
Eu833 O831 2.370 . S
Eu833 O835 2.370 1_545 S
Eu833 O839 2.370 1_544 S
Eu833 O840 2.370 1_554 S
Eu833 O848 2.363 1_554 S
Eu833 O849 2.363 . S
Eu833 O864 2.363 1_545 S
Eu833 O865 2.363 . S
Eu834 O832 2.370 1_545 S
Eu834 O836 2.370 . S
Eu834 O841 2.370 1_554 S
Eu834 O842 2.370 1_544 S
Eu834 O850 2.363 1_554 S
Eu834 O851 2.363 . S
Eu834 O866 2.363 1_545 S
Eu834 O867 2.363 . S
O835 Eu830 2.370 1_565 S
O835 Eu833 2.370 1_565 S
O835 Eu837 2.370 . S
O836 Eu830 2.370 . S
O836 Eu834 2.370 . S
O836 Eu838 2.370 . S
Eu837 O832 2.370 . S
Eu837 O835 2.370 . S
Eu837 O839 2.370 1_554 S
Eu837 O842 2.370 1_554 S
Eu837 O854 2.363 . S
Eu837 O855 2.363 . S
Eu837 O862 2.363 . S
Eu837 O863 2.363 1_554 S
Eu838 O831 2.370 . S
Eu838 O836 2.370 . S
Eu838 O840 2.370 1_554 S
Eu838 O841 2.370 1_554 S
Eu838 O852 2.363 . S
Eu838 O853 2.363 . S
Eu838 O860 2.363 . S
Eu838 O861 2.363 1_554 S
O839 Eu833 2.370 1_566 S
O839 Eu837 2.370 1_556 S
O839 Eu843 2.370 1_565 S
O840 Eu833 2.370 1_556 S
O840 Eu838 2.370 1_556 S
O840 Eu843 2.370 . S
O841 Eu834 2.370 1_556 S
O841 Eu838 2.370 1_556 S
O841 Eu843 2.370 . S
O842 Eu834 2.370 1_566 S
O842 Eu837 2.370 1_556 S
O842 Eu843 2.370 1_565 S
Eu843 O839 2.370 1_545 S
Eu843 O840 2.370 . S
Eu843 O841 2.370 . S
Eu843 O842 2.370 1_545 S
Eu843 O846 2.363 1_545 S
Eu843 O847 2.363 . S
Eu843 O856 2.363 . S
Eu843 O857 2.363 . S
O844 C818 1.283 . S
O844 Eu830 2.363 1_565 S
O845 C819 1.283 . S
O845 Eu830 2.363 . S
O846 C820 1.283 . S
O846 Eu843 2.363 1_565 S
O847 C821 1.283 . S
O847 Eu843 2.363 . S
O848 C822 1.283 . S
O848 Eu833 2.363 1_556 S
O849 C823 1.283 . S
O849 Eu833 2.363 . S
O850 C824 1.283 . S
O850 Eu834 2.363 1_556 S
O851 C825 1.283 . S
O851 Eu834 2.363 . S
O852 C826 1.283 . S
O852 Eu838 2.363 . S
O853 C827 1.283 . S
O853 Eu838 2.363 . S
O854 C828 1.283 . S
O854 Eu837 2.363 . S
O855 C829 1.283 . S
O855 Eu837 2.363 . S
O856 C824 1.283 . S
O856 Eu843 2.363 . S
O857 C822 1.283 . S
O857 Eu843 2.363 . S
O858 C825 1.283 . S
O858 Eu830 2.363 . S
O859 C823 1.283 . S
O859 Eu830 2.363 . S
O860 C819 1.283 . S
O860 Eu838 2.363 . S
O861 C821 1.283 . S
O861 Eu838 2.363 1_556 S
O862 C818 1.283 . S
O862 Eu837 2.363 . S
O863 C820 1.283 . S
O863 Eu837 2.363 1_556 S
O864 C829 1.283 . S
O864 Eu833 2.363 1_565 S
O865 C827 1.283 . S
O865 Eu833 2.363 . S
O866 C828 1.283 . S
O866 Eu834 2.363 1_565 S
O867 C826 1.283 . S
O867 Eu834 2.363 . S
C868 O894 1.283 . S
C868 O912 1.283 . S
C869 O895 1.283 . S
C869 O910 1.283 . S
C870 O896 1.283 . S
C870 O913 1.283 . S
C871 O897 1.283 . S
C871 O911 1.283 . S
C872 O898 1.283 . S
C872 O907 1.283 . S
C873 O899 1.283 . S
C873 O909 1.283 . S
C874 O900 1.283 . S
C874 O906 1.283 . S
C875 O901 1.283 . S
C875 O908 1.283 . S
C876 O902 1.283 . S
C876 O917 1.283 . S
C877 O903 1.283 . S
C877 O915 1.283 . S
C878 O904 1.283 . S
C878 O916 1.283 . S
C879 O905 1.283 . S
C879 O914 1.283 . S
Eu880 O881 2.362 1_454 S
Eu880 O882 2.379 . S
Eu880 O885 2.379 1_455 S
Eu880 O886 2.362 1_554 S
Eu880 O894 2.377 . S
Eu880 O895 2.349 1_554 S
Eu880 O908 2.363 . S
Eu880 O909 2.363 1_455 S
O881 Eu880 2.362 1_656 S
O881 Eu883 2.362 1_556 S
O881 Eu888 2.370 1_655 S
O882 Eu880 2.379 . S
O882 Eu884 2.379 . S
O882 Eu887 2.370 . S
Eu883 O881 2.362 1_554 S
Eu883 O885 2.378 . S
Eu883 O889 2.378 . S
Eu883 O890 2.362 1_554 S
Eu883 O898 2.363 . S
Eu883 O899 2.363 . S
Eu883 O914 2.377 . S
Eu883 O915 2.349 1_554 S
Eu884 O882 2.379 . S
Eu884 O886 2.362 1_554 S
Eu884 O891 2.362 1_554 S
Eu884 O892 2.379 . S
Eu884 O900 2.363 . S
Eu884 O901 2.363 . S
Eu884 O916 2.377 . S
Eu884 O917 2.349 1_554 S
O885 Eu880 2.379 1_655 S
O885 Eu883 2.378 . S
O885 Eu887 2.370 1_655 S
O886 Eu880 2.362 1_556 S
O886 Eu884 2.362 1_556 S
O886 Eu888 2.370 . S
Eu887 O882 2.370 . S
Eu887 O885 2.370 1_455 S
Eu887 O889 2.370 1_455 S
Eu887 O892 2.370 . S
Eu887 O904 2.363 . S
Eu887 O905 2.363 1_455 S
Eu887 O912 2.363 . S
Eu887 O913 2.363 . S
Eu888 O881 2.370 1_455 S
Eu888 O886 2.370 . S
Eu888 O890 2.370 1_455 S
Eu888 O891 2.370 . S
Eu888 O902 2.363 . S
Eu888 O903 2.363 1_455 S
Eu888 O910 2.363 . S
Eu888 O911 2.363 . S
O889 Eu883 2.378 . S
O889 Eu887 2.370 1_655 S
O889 Eu893 2.379 1_655 S
O890 Eu883 2.362 1_556 S
O890 Eu888 2.370 1_655 S
O890 Eu893 2.362 1_656 S
O891 Eu884 2.362 1_556 S
O891 Eu888 2.370 . S
O891 Eu893 2.362 1_556 S
O892 Eu884 2.379 . S
O892 Eu887 2.370 . S
O892 Eu893 2.379 . S
Eu893 O889 2.379 1_455 S
Eu893 O890 2.362 1_454 S
Eu893 O891 2.362 1_554 S
Eu893 O892 2.379 . S
Eu893 O896 2.377 . S
Eu893 O897 2.349 1_554 S
Eu893 O906 2.363 . S
Eu893 O907 2.363 1_455 S
O894 C868 1.283 . S
O894 Eu880 2.377 . S
O895 C869 1.283 . S
O895 Eu880 2.349 1_556 S
O896 C870 1.283 . S
O896 Eu893 2.377 . S
O897 C871 1.283 . S
O897 Eu893 2.349 1_556 S
O898 C872 1.283 . S
O898 Eu883 2.363 . S
O899 C873 1.283 . S
O899 Eu883 2.363 . S
O900 C874 1.283 . S
O900 Eu884 2.363 . S
O901 C875 1.283 . S
O901 Eu884 2.363 . S
O902 C876 1.283 . S
O902 Eu888 2.363 . S
O903 C877 1.283 . S
O903 Eu888 2.363 1_655 S
O904 C878 1.283 . S
O904 Eu887 2.363 . S
O905 C879 1.283 . S
O905 Eu887 2.363 1_655 S
O906 C874 1.283 . S
O906 Eu893 2.363 . S
O907 C872 1.283 . S
O907 Eu893 2.363 1_655 S
O908 C875 1.283 . S
O908 Eu880 2.363 . S
O909 C873 1.283 . S
O909 Eu880 2.363 1_655 S
O910 C869 1.283 . S
O910 Eu888 2.363 . S
O911 C871 1.283 . S
O911 Eu888 2.363 . S
O912 C868 1.283 . S
O912 Eu887 2.363 . S
O913 C870 1.283 . S
O913 Eu887 2.363 . S
O914 C879 1.283 . S
O914 Eu883 2.377 . S
O915 C877 1.283 . S
O915 Eu883 2.349 1_556 S
O916 C878 1.283 . S
O916 Eu884 2.377 . S
O917 C876 1.283 . S
O917 Eu884 2.349 1_556 S
C918 O944 1.283 . S
C918 O962 1.283 . S
C919 O945 1.283 . S
C919 O960 1.283 . S
C920 O946 1.283 . S
C920 O963 1.283 . S
C921 O947 1.283 . S
C921 O961 1.283 . S
C922 O948 1.283 . S
C922 O957 1.283 . S
C923 O949 1.283 . S
C923 O959 1.283 . S
C924 O950 1.283 . S
C924 O956 1.283 . S
C925 O951 1.283 . S
C925 O958 1.283 . S
C926 O952 1.283 . S
C926 O967 1.283 . S
C927 O953 1.283 . S
C927 O965 1.283 . S
C928 O954 1.283 . S
C928 O966 1.283 . S
C929 O955 1.283 . S
C929 O964 1.283 . S
Eu930 O931 2.370 . S
Eu930 O932 2.370 . S
Eu930 O935 2.370 . S
Eu930 O936 2.370 . S
Eu930 O944 2.363 . S
Eu930 O945 2.363 . S
Eu930 O958 2.363 . S
Eu930 O959 2.363 . S
O931 Eu930 2.370 . S
O931 Eu933 2.381 . S
O931 Eu938 2.381 . S
O932 Eu930 2.370 . S
O932 Eu934 2.381 . S
O932 Eu937 2.381 . S
Eu933 O931 2.381 . S
Eu933 O935 2.381 . S
Eu933 O939 2.360 1_554 S
Eu933 O940 2.360 1_554 S
Eu933 O948 2.345 1_554 S
Eu933 O949 2.381 . S
Eu933 O964 2.363 . S
Eu933 O965 2.363 . S
Eu934 O932 2.381 . S
Eu934 O936 2.381 . S
Eu934 O941 2.360 1_554 S
Eu934 O942 2.360 1_554 S
Eu934 O950 2.345 1_554 S
Eu934 O951 2.381 . S
Eu934 O966 2.363 . S
Eu934 O967 2.363 . S
O935 Eu930 2.370 . S
O935 Eu933 2.381 . S
O935 Eu937 2.381 . S
O936 Eu930 2.370 . S
O936 Eu934 2.381 . S
O936 Eu938 2.381 . S
Eu937 O932 2.381 . S
Eu937 O935 2.381 . S
Eu937 O939 2.360 1_554 S
Eu937 O942 2.360 1_554 S
Eu937 O954 2.363 . S
Eu937 O955 2.363 . S
Eu937 O962 2.381 . S
Eu937 O963 2.345 1_554 S
Eu938 O931 2.381 . S
Eu938 O936 2.381 . S
Eu938 O940 2.360 1_554 S
Eu938 O941 2.360 1_554 S
Eu938 O952 2.363 . S
Eu938 O953 2.363 . S
Eu938 O960 2.381 . S
Eu938 O961 2.345 1_554 S
O939 Eu933 2.360 1_556 S
O939 Eu937 2.360 1_556 S
O939 Eu943 2.370 . S
O940 Eu933 2.360 1_556 S
O940 Eu938 2.360 1_556 S
O940 Eu943 2.370 . S
O941 Eu934 2.360 1_556 S
O941 Eu938 2.360 1_556 S
O941 Eu943 2.370 . S
O942 Eu934 2.360 1_556 S
O942 Eu937 2.360 1_556 S
O942 Eu943 2.370 . S
Eu943 O939 2.370 . S
Eu943 O940 2.370 . S
Eu943 O941 2.370 . S
Eu943 O942 2.370 . S
Eu943 O946 2.363 . S
Eu943 O947 2.363 . S
Eu943 O956 2.363 . S
Eu943 O957 2.363 . S
O944 C918 1.283 . S
O944 Eu930 2.363 . S
O945 C919 1.283 . S
O945 Eu930 2.363 . S
O946 C920 1.283 . S
O946 Eu943 2.363 . S
O947 C921 1.283 . S
O947 Eu943 2.363 . S
O948 C922 1.283 . S
O948 Eu933 2.345 1_556 S
O949 C923 1.283 . S
O949 Eu933 2.381 . S
O950 C924 1.283 . S
O950 Eu934 2.345 1_556 S
O951 C925 1.283 . S
O951 Eu934 2.381 . S
O952 C926 1.283 . S
O952 Eu938 2.363 . S
O953 C927 1.283 . S
O953 Eu938 2.363 . S
O954 C928 1.283 . S
O954 Eu937 2.363 . S
O955 C929 1.283 . S
O955 Eu937 2.363 . S
O956 C924 1.283 . S
O956 Eu943 2.363 . S
O957 C922 1.283 . S
O957 Eu943 2.363 . S
O958 C925 1.283 . S
O958 Eu930 2.363 . S
O959 C923 1.283 . S
O959 Eu930 2.363 . S
O960 C919 1.283 . S
O960 Eu938 2.381 . S
O961 C921 1.283 . S
O961 Eu938 2.345 1_556 S
O962 C918 1.283 . S
O962 Eu937 2.381 . S
O963 C920 1.283 . S
O963 Eu937 2.345 1_556 S
O964 C929 1.283 . S
O964 Eu933 2.363 . S
O965 C927 1.283 . S
O965 Eu933 2.363 . S
O966 C928 1.283 . S
O966 Eu934 2.363 . S
O967 C926 1.283 . S
O967 Eu934 2.363 . S
C968 O994 1.283 . S
C968 O1012 1.283 . S
C969 O995 1.283 . S
C969 O1010 1.283 . S
C970 O996 1.283 . S
C970 O1013 1.283 . S
C971 O997 1.283 . S
C971 O1011 1.283 . S
C972 O998 1.283 . S
C972 O1007 1.283 . S
C973 O999 1.283 . S
C973 O1009 1.283 . S
C974 O1000 1.283 . S
C974 O1006 1.283 . S
C975 O1001 1.283 . S
C975 O1008 1.283 . S
C976 O1002 1.283 . S
C976 O1017 1.283 . S
C977 O1003 1.283 . S
C977 O1015 1.283 . S
C978 O1004 1.283 . S
C978 O1016 1.283 . S
C979 O1005 1.283 . S
C979 O1014 1.283 . S
Eu980 O981 2.370 1_455 S
Eu980 O982 2.370 . S
Eu980 O985 2.370 1_455 S
Eu980 O986 2.370 . S
Eu980 O994 2.363 . S
Eu980 O995 2.363 . S
Eu980 O1008 2.363 . S
Eu980 O1009 2.363 1_455 S
O981 Eu980 2.370 1_655 S
O981 Eu983 2.370 . S
O981 Eu988 2.370 1_655 S
O982 Eu980 2.370 . S
O982 Eu984 2.370 . S
O982 Eu987 2.370 . S
Eu983 O981 2.370 . S
Eu983 O985 2.370 . S
Eu983 O989 2.370 . S
Eu983 O990 2.370 . S
Eu983 O998 2.363 . S
Eu983 O999 2.363 . S
Eu983 O1014 2.363 . S
Eu983 O1015 2.363 . S
Eu984 O982 2.370 . S
Eu984 O986 2.370 . S
Eu984 O991 2.370 . S
Eu984 O992 2.370 . S
Eu984 O1000 2.363 . S
Eu984 O1001 2.363 . S
Eu984 O1016 2.363 . S
Eu984 O1017 2.363 . S
O985 Eu980 2.370 1_655 S
O985 Eu983 2.370 . S
O985 Eu987 2.370 1_655 S
O986 Eu980 2.370 . S
O986 Eu984 2.370 . S
O986 Eu988 2.370 . S
Eu987 O982 2.370 . S
Eu987 O985 2.370 1_455 S
Eu987 O989 2.370 1_455 S
Eu987 O992 2.370 . S
Eu987 O1004 2.363 . S
Eu987 O1005 2.363 1_455 S
Eu987 O1012 2.363 . S
Eu987 O1013 2.363 . S
Eu988 O981 2.370 1_455 S
Eu988 O986 2.370 . S
Eu988 O990 2.370 1_455 S
Eu988 O991 2.370 . S
Eu988 O1002 2.363 . S
Eu988 O1003 2.363 1_455 S
Eu988 O1010 2.363 . S
Eu988 O1011 2.363 . S
O989 Eu983 2.370 . S
O989 Eu987 2.370 1_655 S
O989 Eu993 2.370 1_655 S
O990 Eu983 2.370 . S
O990 Eu988 2.370 1_655 S
O990 Eu993 2.370 1_655 S
O991 Eu984 2.370 . S
O991 Eu988 2.370 . S
O991 Eu993 2.370 . S
O992 Eu984 2.370 . S
O992 Eu987 2.370 . S
O992 Eu993 2.370 . S
Eu993 O989 2.370 1_455 S
Eu993 O990 2.370 1_455 S
Eu993 O991 2.370 . S
Eu993 O992 2.370 . S
Eu993 O996 2.363 . S
Eu993 O997 2.363 . S
Eu993 O1006 2.363 . S
Eu993 O1007 2.363 1_455 S
O994 C968 1.283 . S
O994 Eu980 2.363 . S
O995 C969 1.283 . S
O995 Eu980 2.363 . S
O996 C970 1.283 . S
O996 Eu993 2.363 . S
O997 C971 1.283 . S
O997 Eu993 2.363 . S
O998 C972 1.283 . S
O998 Eu983 2.363 . S
O999 C973 1.283 . S
O999 Eu983 2.363 . S
O1000 C974 1.283 . S
O1000 Eu984 2.363 . S
O1001 C975 1.283 . S
O1001 Eu984 2.363 . S
O1002 C976 1.283 . S
O1002 Eu988 2.363 . S
O1003 C977 1.283 . S
O1003 Eu988 2.363 1_655 S
O1004 C978 1.283 . S
O1004 Eu987 2.363 . S
O1005 C979 1.283 . S
O1005 Eu987 2.363 1_655 S
O1006 C974 1.283 . S
O1006 Eu993 2.363 . S
O1007 C972 1.283 . S
O1007 Eu993 2.363 1_655 S
O1008 C975 1.283 . S
O1008 Eu980 2.363 . S
O1009 C973 1.283 . S
O1009 Eu980 2.363 1_655 S
O1010 C969 1.283 . S
O1010 Eu988 2.363 . S
O1011 C971 1.283 . S
O1011 Eu988 2.363 . S
O1012 C968 1.283 . S
O1012 Eu987 2.363 . S
O1013 C970 1.283 . S
O1013 Eu987 2.363 . S
O1014 C979 1.283 . S
O1014 Eu983 2.363 . S
O1015 C977 1.283 . S
O1015 Eu983 2.363 . S
O1016 C978 1.283 . S
O1016 Eu984 2.363 . S
O1017 C976 1.283 . S
O1017 Eu984 2.363 . S
C1018 O1044 1.283 . S
C1018 O1062 1.283 . S
C1019 O1045 1.283 . S
C1019 O1060 1.283 . S
C1020 O1046 1.283 . S
C1020 O1063 1.283 . S
C1021 O1047 1.283 . S
C1021 O1061 1.283 . S
C1022 O1048 1.283 . S
C1022 O1057 1.283 . S
C1023 O1049 1.283 . S
C1023 O1059 1.283 . S
C1024 O1050 1.283 . S
C1024 O1056 1.283 . S
C1025 O1051 1.283 . S
C1025 O1058 1.283 . S
C1026 O1052 1.283 . S
C1026 O1067 1.283 . S
C1027 O1053 1.283 . S
C1027 O1065 1.283 . S
C1028 O1054 1.283 . S
C1028 O1066 1.283 . S
C1029 O1055 1.283 . S
C1029 O1064 1.283 . S
Eu1030 O1031 2.370 . S
Eu1030 O1032 2.370 . S
Eu1030 O1035 2.370 . S
Eu1030 O1036 2.370 . S
Eu1030 O1044 2.363 . S
Eu1030 O1045 2.363 . S
Eu1030 O1058 2.363 . S
Eu1030 O1059 2.363 . S
O1031 Eu1030 2.370 . S
O1031 Eu1033 2.370 1_565 S
O1031 Eu1038 2.370 1_565 S
O1032 Eu1030 2.370 . S
O1032 Eu1034 2.370 1_565 S
O1032 Eu1037 2.370 1_565 S
Eu1033 O1031 2.370 1_545 S
Eu1033 O1035 2.370 1_545 S
Eu1033 O1039 2.370 . S
Eu1033 O1040 2.370 . S
Eu1033 O1048 2.363 . S
Eu1033 O1049 2.363 1_545 S
Eu1033 O1064 2.363 . S
Eu1033 O1065 2.363 . S
Eu1034 O1032 2.370 1_545 S
Eu1034 O1036 2.370 1_545 S
Eu1034 O1041 2.370 . S
Eu1034 O1042 2.370 . S
Eu1034 O1050 2.363 . S
Eu1034 O1051 2.363 1_545 S
Eu1034 O1066 2.363 . S
Eu1034 O1067 2.363 . S
O1035 Eu1030 2.370 . S
O1035 Eu1033 2.370 1_565 S
O1035 Eu1037 2.370 1_565 S
O1036 Eu1030 2.370 . S
O1036 Eu1034 2.370 1_565 S
O1036 Eu1038 2.370 1_565 S
Eu1037 O1032 2.370 1_545 S
Eu1037 O1035 2.370 1_545 S
Eu1037 O1039 2.370 . S
Eu1037 O1042 2.370 . S
Eu1037 O1054 2.363 . S
Eu1037 O1055 2.363 . S
Eu1037 O1062 2.363 1_545 S
Eu1037 O1063 2.363 . S
Eu1038 O1031 2.370 1_545 S
Eu1038 O1036 2.370 1_545 S
Eu1038 O1040 2.370 . S
Eu1038 O1041 2.370 . S
Eu1038 O1052 2.363 . S
Eu1038 O1053 2.363 . S
Eu1038 O1060 2.363 1_545 S
Eu1038 O1061 2.363 . S
O1039 Eu1033 2.370 . S
O1039 Eu1037 2.370 . S
O1039 Eu1043 2.370 . S
O1040 Eu1033 2.370 . S
O1040 Eu1038 2.370 . S
O1040 Eu1043 2.370 . S
O1041 Eu1034 2.370 . S
O1041 Eu1038 2.370 . S
O1041 Eu1043 2.370 . S
O1042 Eu1034 2.370 . S
O1042 Eu1037 2.370 . S
O1042 Eu1043 2.370 . S
Eu1043 O1039 2.370 . S
Eu1043 O1040 2.370 . S
Eu1043 O1041 2.370 . S
Eu1043 O1042 2.370 . S
Eu1043 O1046 2.363 . S
Eu1043 O1047 2.363 . S
Eu1043 O1056 2.363 . S
Eu1043 O1057 2.363 . S
O1044 C1018 1.283 . S
O1044 Eu1030 2.363 . S
O1045 C1019 1.283 . S
O1045 Eu1030 2.363 . S
O1046 C1020 1.283 . S
O1046 Eu1043 2.363 . S
O1047 C1021 1.283 . S
O1047 Eu1043 2.363 . S
O1048 C1022 1.283 . S
O1048 Eu1033 2.363 . S
O1049 C1023 1.283 . S
O1049 Eu1033 2.363 1_565 S
O1050 C1024 1.283 . S
O1050 Eu1034 2.363 . S
O1051 C1025 1.283 . S
O1051 Eu1034 2.363 1_565 S
O1052 C1026 1.283 . S
O1052 Eu1038 2.363 . S
O1053 C1027 1.283 . S
O1053 Eu1038 2.363 . S
O1054 C1028 1.283 . S
O1054 Eu1037 2.363 . S
O1055 C1029 1.283 . S
O1055 Eu1037 2.363 . S
O1056 C1024 1.283 . S
O1056 Eu1043 2.363 . S
O1057 C1022 1.283 . S
O1057 Eu1043 2.363 . S
O1058 C1025 1.283 . S
O1058 Eu1030 2.363 . S
O1059 C1023 1.283 . S
O1059 Eu1030 2.363 . S
O1060 C1019 1.283 . S
O1060 Eu1038 2.363 1_565 S
O1061 C1021 1.283 . S
O1061 Eu1038 2.363 . S
O1062 C1018 1.283 . S
O1062 Eu1037 2.363 1_565 S
O1063 C1020 1.283 . S
O1063 Eu1037 2.363 . S
O1064 C1029 1.283 . S
O1064 Eu1033 2.363 . S
O1065 C1027 1.283 . S
O1065 Eu1033 2.363 . S
O1066 C1028 1.283 . S
O1066 Eu1034 2.363 . S
O1067 C1026 1.283 . S
O1067 Eu1034 2.363 . S
C1068 C1069 1.391 . S
C1068 C1070 1.394 . S
C1068 H1084 0.931 . S
C1069 C1068 1.391 . S
C1069 C1073 1.376 . S
C1070 C1068 1.394 . S
C1070 C1071 1.369 . S
C1070 C1074 1.531 . S
C1071 C1070 1.369 . S
C1071 C1072 1.410 . S
C1071 C1079 1.503 . S
C1072 C1071 1.410 . S
C1072 C1073 1.392 . S
C1072 C1075 1.511 . S
C1073 C1069 1.376 . S
C1073 C1072 1.392 . S
C1073 H1085 0.929 . S
C1074 C1070 1.531 . S
C1074 H1086 0.960 . S
C1074 H1087 0.962 . S
C1074 H1088 0.960 . S
C1075 C1072 1.511 . S
C1075 H1089 0.961 . S
C1075 H1090 0.961 . S
C1075 H1091 0.961 . S
C1076 C1077 1.370 . S
C1076 C1078 1.363 . S
C1076 H1092 0.931 . S
C1077 C1076 1.370 . S
C1077 C1081 1.408 . S
C1078 C1076 1.363 . S
C1078 C1079 1.370 . S
C1078 C1082 1.524 . S
C1079 C1071 1.503 . S
C1079 C1078 1.370 . S
C1079 C1080 1.403 . S
C1080 C1079 1.403 . S
C1080 C1081 1.404 . S
C1080 C1083 1.539 . S
C1081 C1077 1.408 . S
C1081 C1080 1.404 . S
C1081 H1093 0.930 . S
C1082 C1078 1.524 . S
C1082 H1094 0.956 . S
C1082 H1095 0.961 . S
C1082 H1096 0.961 . S
C1083 C1080 1.539 . S
C1083 H1097 0.958 . S
C1083 H1098 0.961 . S
C1083 H1099 0.960 . S
H1084 C1068 0.931 . S
H1085 C1073 0.929 . S
H1086 C1074 0.960 . S
H1087 C1074 0.962 . S
H1088 C1074 0.960 . S
H1089 C1075 0.961 . S
H1090 C1075 0.961 . S
H1091 C1075 0.961 . S
H1092 C1076 0.931 . S
H1093 C1081 0.930 . S
H1094 C1082 0.956 . S
H1095 C1082 0.961 . S
H1096 C1082 0.961 . S
H1097 C1083 0.958 . S
H1098 C1083 0.961 . S
H1099 C1083 0.960 . S
C1100 C1101 1.391 . S
C1100 C1102 1.394 . S
C1100 H1116 0.931 . S
C1101 C1100 1.391 . S
C1101 C1105 1.376 . S
C1102 C1100 1.394 . S
C1102 C1103 1.369 . S
C1102 C1106 1.531 . S
C1103 C1102 1.369 . S
C1103 C1104 1.410 . S
C1103 C1111 1.503 . S
C1104 C1103 1.410 . S
C1104 C1105 1.392 . S
C1104 C1107 1.511 . S
C1105 C1101 1.376 . S
C1105 C1104 1.392 . S
C1105 H1117 0.929 . S
C1106 C1102 1.531 . S
C1106 H1118 0.960 . S
C1106 H1119 0.962 . S
C1106 H1120 0.960 . S
C1107 C1104 1.511 . S
C1107 H1121 0.961 . S
C1107 H1122 0.961 . S
C1107 H1123 0.961 . S
C1108 C1109 1.370 . S
C1108 C1110 1.363 . S
C1108 H1124 0.931 . S
C1109 C1108 1.370 . S
C1109 C1113 1.408 . S
C1110 C1108 1.363 . S
C1110 C1111 1.370 . S
C1110 C1114 1.524 . S
C1111 C1103 1.503 . S
C1111 C1110 1.370 . S
C1111 C1112 1.403 . S
C1112 C1111 1.403 . S
C1112 C1113 1.404 . S
C1112 C1115 1.539 . S
C1113 C1109 1.408 . S
C1113 C1112 1.404 . S
C1113 H1125 0.930 . S
C1114 C1110 1.524 . S
C1114 H1126 0.956 . S
C1114 H1127 0.961 . S
C1114 H1128 0.961 . S
C1115 C1112 1.539 . S
C1115 H1129 0.958 . S
C1115 H1130 0.961 . S
C1115 H1131 0.960 . S
H1116 C1100 0.931 . S
H1117 C1105 0.929 . S
H1118 C1106 0.960 . S
H1119 C1106 0.962 . S
H1120 C1106 0.960 . S
H1121 C1107 0.961 . S
H1122 C1107 0.961 . S
H1123 C1107 0.961 . S
H1124 C1108 0.931 . S
H1125 C1113 0.930 . S
H1126 C1114 0.956 . S
H1127 C1114 0.961 . S
H1128 C1114 0.961 . S
H1129 C1115 0.958 . S
H1130 C1115 0.961 . S
H1131 C1115 0.960 . S
C1132 C1133 1.391 . S
C1132 C1134 1.394 . S
C1132 H1148 0.931 . S
C1133 C1132 1.391 . S
C1133 C1137 1.376 . S
C1134 C1132 1.394 . S
C1134 C1135 1.369 . S
C1134 C1138 1.531 . S
C1135 C1134 1.369 . S
C1135 C1136 1.410 . S
C1135 C1143 1.503 . S
C1136 C1135 1.410 . S
C1136 C1137 1.392 . S
C1136 C1139 1.511 . S
C1137 C1133 1.376 . S
C1137 C1136 1.392 . S
C1137 H1149 0.929 . S
C1138 C1134 1.531 . S
C1138 H1150 0.960 . S
C1138 H1151 0.962 . S
C1138 H1152 0.960 . S
C1139 C1136 1.511 . S
C1139 H1153 0.961 . S
C1139 H1154 0.961 . S
C1139 H1155 0.961 . S
C1140 C1141 1.370 . S
C1140 C1142 1.363 . S
C1140 H1156 0.931 . S
C1141 C1140 1.370 . S
C1141 C1145 1.408 . S
C1142 C1140 1.363 . S
C1142 C1143 1.370 . S
C1142 C1146 1.524 . S
C1143 C1135 1.503 . S
C1143 C1142 1.370 . S
C1143 C1144 1.403 . S
C1144 C1143 1.403 . S
C1144 C1145 1.404 . S
C1144 C1147 1.539 . S
C1145 C1141 1.408 . S
C1145 C1144 1.404 . S
C1145 H1157 0.930 . S
C1146 C1142 1.524 . S
C1146 H1158 0.956 . S
C1146 H1159 0.961 . S
C1146 H1160 0.961 . S
C1147 C1144 1.539 . S
C1147 H1161 0.958 . S
C1147 H1162 0.961 . S
C1147 H1163 0.960 . S
H1148 C1132 0.931 . S
H1149 C1137 0.929 . S
H1150 C1138 0.960 . S
H1151 C1138 0.962 . S
H1152 C1138 0.960 . S
H1153 C1139 0.961 . S
H1154 C1139 0.961 . S
H1155 C1139 0.961 . S
H1156 C1140 0.931 . S
H1157 C1145 0.930 . S
H1158 C1146 0.956 . S
H1159 C1146 0.961 . S
H1160 C1146 0.961 . S
H1161 C1147 0.958 . S
H1162 C1147 0.961 . S
H1163 C1147 0.960 . S
C1164 C1165 1.391 . S
C1164 C1166 1.394 . S
C1164 H1180 0.931 . S
C1165 C1164 1.391 . S
C1165 C1169 1.376 . S
C1166 C1164 1.394 . S
C1166 C1167 1.369 . S
C1166 C1170 1.531 . S
C1167 C1166 1.369 . S
C1167 C1168 1.410 . S
C1167 C1175 1.503 . S
C1168 C1167 1.410 . S
C1168 C1169 1.392 . S
C1168 C1171 1.511 . S
C1169 C1165 1.376 . S
C1169 C1168 1.392 . S
C1169 H1181 0.929 . S
C1170 C1166 1.531 . S
C1170 H1182 0.960 . S
C1170 H1183 0.962 . S
C1170 H1184 0.960 . S
C1171 C1168 1.511 . S
C1171 H1185 0.961 . S
C1171 H1186 0.961 . S
C1171 H1187 0.961 . S
C1172 C1173 1.370 . S
C1172 C1174 1.363 . S
C1172 H1188 0.931 . S
C1173 C1172 1.370 . S
C1173 C1177 1.408 . S
C1174 C1172 1.363 . S
C1174 C1175 1.370 . S
C1174 C1178 1.524 . S
C1175 C1167 1.503 . S
C1175 C1174 1.370 . S
C1175 C1176 1.403 . S
C1176 C1175 1.403 . S
C1176 C1177 1.404 . S
C1176 C1179 1.539 . S
C1177 C1173 1.408 . S
C1177 C1176 1.404 . S
C1177 H1189 0.930 . S
C1178 C1174 1.524 . S
C1178 H1190 0.956 . S
C1178 H1191 0.961 . S
C1178 H1192 0.961 . S
C1179 C1176 1.539 . S
C1179 H1193 0.958 . S
C1179 H1194 0.961 . S
C1179 H1195 0.960 . S
H1180 C1164 0.931 . S
H1181 C1169 0.929 . S
H1182 C1170 0.960 . S
H1183 C1170 0.962 . S
H1184 C1170 0.960 . S
H1185 C1171 0.961 . S
H1186 C1171 0.961 . S
H1187 C1171 0.961 . S
H1188 C1172 0.931 . S
H1189 C1177 0.930 . S
H1190 C1178 0.956 . S
H1191 C1178 0.961 . S
H1192 C1178 0.961 . S
H1193 C1179 0.958 . S
H1194 C1179 0.961 . S
H1195 C1179 0.960 . S
C1196 C1197 1.391 . S
C1196 C1198 1.394 . S
C1196 H1212 0.931 . S
C1197 C1196 1.391 . S
C1197 C1201 1.376 . S
C1198 C1196 1.394 . S
C1198 C1199 1.369 . S
C1198 C1202 1.531 . S
C1199 C1198 1.369 . S
C1199 C1200 1.410 . S
C1199 C1207 1.503 . S
C1200 C1199 1.410 . S
C1200 C1201 1.392 . S
C1200 C1203 1.511 . S
C1201 C1197 1.376 . S
C1201 C1200 1.392 . S
C1201 H1213 0.929 . S
C1202 C1198 1.531 . S
C1202 H1214 0.960 . S
C1202 H1215 0.962 . S
C1202 H1216 0.960 . S
C1203 C1200 1.511 . S
C1203 H1217 0.961 . S
C1203 H1218 0.961 . S
C1203 H1219 0.961 . S
C1204 C1205 1.370 . S
C1204 C1206 1.363 . S
C1204 H1220 0.931 . S
C1205 C1204 1.370 . S
C1205 C1209 1.408 . S
C1206 C1204 1.363 . S
C1206 C1207 1.370 . S
C1206 C1210 1.524 . S
C1207 C1199 1.503 . S
C1207 C1206 1.370 . S
C1207 C1208 1.403 . S
C1208 C1207 1.403 . S
C1208 C1209 1.404 . S
C1208 C1211 1.539 . S
C1209 C1205 1.408 . S
C1209 C1208 1.404 . S
C1209 H1221 0.930 . S
C1210 C1206 1.524 . S
C1210 H1222 0.956 . S
C1210 H1223 0.961 . S
C1210 H1224 0.961 . S
C1211 C1208 1.539 . S
C1211 H1225 0.958 . S
C1211 H1226 0.961 . S
C1211 H1227 0.960 . S
H1212 C1196 0.931 . S
H1213 C1201 0.929 . S
H1214 C1202 0.960 . S
H1215 C1202 0.962 . S
H1216 C1202 0.960 . S
H1217 C1203 0.961 . S
H1218 C1203 0.961 . S
H1219 C1203 0.961 . S
H1220 C1204 0.931 . S
H1221 C1209 0.930 . S
H1222 C1210 0.956 . S
H1223 C1210 0.961 . S
H1224 C1210 0.961 . S
H1225 C1211 0.958 . S
H1226 C1211 0.961 . S
H1227 C1211 0.960 . S
C1228 C1229 1.391 . S
C1228 C1230 1.394 . S
C1228 H1244 0.931 . S
C1229 C1228 1.391 . S
C1229 C1233 1.376 . S
C1230 C1228 1.394 . S
C1230 C1231 1.369 . S
C1230 C1234 1.531 . S
C1231 C1230 1.369 . S
C1231 C1232 1.410 . S
C1231 C1239 1.503 . S
C1232 C1231 1.410 . S
C1232 C1233 1.392 . S
C1232 C1235 1.511 . S
C1233 C1229 1.376 . S
C1233 C1232 1.392 . S
C1233 H1245 0.929 . S
C1234 C1230 1.531 . S
C1234 H1246 0.960 . S
C1234 H1247 0.962 . S
C1234 H1248 0.960 . S
C1235 C1232 1.511 . S
C1235 H1249 0.961 . S
C1235 H1250 0.961 . S
C1235 H1251 0.961 . S
C1236 C1237 1.370 . S
C1236 C1238 1.363 . S
C1236 H1252 0.931 . S
C1237 C1236 1.370 . S
C1237 C1241 1.408 . S
C1238 C1236 1.363 . S
C1238 C1239 1.370 . S
C1238 C1242 1.524 . S
C1239 C1231 1.503 . S
C1239 C1238 1.370 . S
C1239 C1240 1.403 . S
C1240 C1239 1.403 . S
C1240 C1241 1.404 . S
C1240 C1243 1.539 . S
C1241 C1237 1.408 . S
C1241 C1240 1.404 . S
C1241 H1253 0.930 . S
C1242 C1238 1.524 . S
C1242 H1254 0.956 . S
C1242 H1255 0.961 . S
C1242 H1256 0.961 . S
C1243 C1240 1.539 . S
C1243 H1257 0.958 . S
C1243 H1258 0.961 . S
C1243 H1259 0.960 . S
H1244 C1228 0.931 . S
H1245 C1233 0.929 . S
H1246 C1234 0.960 . S
H1247 C1234 0.962 . S
H1248 C1234 0.960 . S
H1249 C1235 0.961 . S
H1250 C1235 0.961 . S
H1251 C1235 0.961 . S
H1252 C1236 0.931 . S
H1253 C1241 0.930 . S
H1254 C1242 0.956 . S
H1255 C1242 0.961 . S
H1256 C1242 0.961 . S
H1257 C1243 0.958 . S
H1258 C1243 0.961 . S
H1259 C1243 0.960 . S
C1260 C1261 1.391 . S
C1260 C1262 1.394 . S
C1260 H1276 0.931 . S
C1261 C1260 1.391 . S
C1261 C1265 1.376 . S
C1262 C1260 1.394 . S
C1262 C1263 1.369 . S
C1262 C1266 1.531 . S
C1263 C1262 1.369 . S
C1263 C1264 1.410 . S
C1263 C1271 1.503 . S
C1264 C1263 1.410 . S
C1264 C1265 1.392 . S
C1264 C1267 1.511 . S
C1265 C1261 1.376 . S
C1265 C1264 1.392 . S
C1265 H1277 0.929 . S
C1266 C1262 1.531 . S
C1266 H1278 0.960 . S
C1266 H1279 0.962 . S
C1266 H1280 0.960 . S
C1267 C1264 1.511 . S
C1267 H1281 0.961 . S
C1267 H1282 0.961 . S
C1267 H1283 0.961 . S
C1268 C1269 1.370 . S
C1268 C1270 1.363 . S
C1268 H1284 0.931 . S
C1269 C1268 1.370 . S
C1269 C1273 1.408 . S
C1270 C1268 1.363 . S
C1270 C1271 1.370 . S
C1270 C1274 1.524 . S
C1271 C1263 1.503 . S
C1271 C1270 1.370 . S
C1271 C1272 1.403 . S
C1272 C1271 1.403 . S
C1272 C1273 1.404 . S
C1272 C1275 1.539 . S
C1273 C1269 1.408 . S
C1273 C1272 1.404 . S
C1273 H1285 0.930 . S
C1274 C1270 1.524 . S
C1274 H1286 0.956 . S
C1274 H1287 0.961 . S
C1274 H1288 0.961 . S
C1275 C1272 1.539 . S
C1275 H1289 0.958 . S
C1275 H1290 0.961 . S
C1275 H1291 0.960 . S
H1276 C1260 0.931 . S
H1277 C1265 0.929 . S
H1278 C1266 0.960 . S
H1279 C1266 0.962 . S
H1280 C1266 0.960 . S
H1281 C1267 0.961 . S
H1282 C1267 0.961 . S
H1283 C1267 0.961 . S
H1284 C1268 0.931 . S
H1285 C1273 0.930 . S
H1286 C1274 0.956 . S
H1287 C1274 0.961 . S
H1288 C1274 0.961 . S
H1289 C1275 0.958 . S
H1290 C1275 0.961 . S
H1291 C1275 0.960 . S
C1292 C1293 1.391 . S
C1292 C1294 1.394 . S
C1292 H1308 0.931 . S
C1293 C1292 1.391 . S
C1293 C1297 1.376 . S
C1294 C1292 1.394 . S
C1294 C1295 1.369 . S
C1294 C1298 1.531 . S
C1295 C1294 1.369 . S
C1295 C1296 1.410 . S
C1295 C1303 1.503 . S
C1296 C1295 1.410 . S
C1296 C1297 1.392 . S
C1296 C1299 1.511 . S
C1297 C1293 1.376 . S
C1297 C1296 1.392 . S
C1297 H1309 0.929 . S
C1298 C1294 1.531 . S
C1298 H1310 0.960 . S
C1298 H1311 0.962 . S
C1298 H1312 0.960 . S
C1299 C1296 1.511 . S
C1299 H1313 0.961 . S
C1299 H1314 0.961 . S
C1299 H1315 0.961 . S
C1300 C1301 1.370 . S
C1300 C1302 1.363 . S
C1300 H1316 0.931 . S
C1301 C1300 1.370 . S
C1301 C1305 1.408 . S
C1302 C1300 1.363 . S
C1302 C1303 1.370 . S
C1302 C1306 1.524 . S
C1303 C1295 1.503 . S
C1303 C1302 1.370 . S
C1303 C1304 1.403 . S
C1304 C1303 1.403 . S
C1304 C1305 1.404 . S
C1304 C1307 1.539 . S
C1305 C1301 1.408 . S
C1305 C1304 1.404 . S
C1305 H1317 0.930 . S
C1306 C1302 1.524 . S
C1306 H1318 0.956 . S
C1306 H1319 0.961 . S
C1306 H1320 0.961 . S
C1307 C1304 1.539 . S
C1307 H1321 0.958 . S
C1307 H1322 0.961 . S
C1307 H1323 0.960 . S
H1308 C1292 0.931 . S
H1309 C1297 0.929 . S
H1310 C1298 0.960 . S
H1311 C1298 0.962 . S
H1312 C1298 0.960 . S
H1313 C1299 0.961 . S
H1314 C1299 0.961 . S
H1315 C1299 0.961 . S
H1316 C1300 0.931 . S
H1317 C1305 0.930 . S
H1318 C1306 0.956 . S
H1319 C1306 0.961 . S
H1320 C1306 0.961 . S
H1321 C1307 0.958 . S
H1322 C1307 0.961 . S
H1323 C1307 0.960 . S
C1324 C1325 1.391 . S
C1324 C1326 1.394 . S
C1324 H1340 0.931 . S
C1325 C1324 1.391 . S
C1325 C1329 1.376 . S
C1326 C1324 1.394 . S
C1326 C1327 1.369 . S
C1326 C1330 1.531 . S
C1327 C1326 1.369 . S
C1327 C1328 1.410 . S
C1327 C1335 1.503 . S
C1328 C1327 1.410 . S
C1328 C1329 1.392 . S
C1328 C1331 1.511 . S
C1329 C1325 1.376 . S
C1329 C1328 1.392 . S
C1329 H1341 0.929 . S
C1330 C1326 1.531 . S
C1330 H1342 0.960 . S
C1330 H1343 0.962 . S
C1330 H1344 0.960 . S
C1331 C1328 1.511 . S
C1331 H1345 0.961 . S
C1331 H1346 0.961 . S
C1331 H1347 0.961 . S
C1332 C1333 1.370 . S
C1332 C1334 1.363 . S
C1332 H1348 0.931 . S
C1333 C1332 1.370 . S
C1333 C1337 1.408 . S
C1334 C1332 1.363 . S
C1334 C1335 1.370 . S
C1334 C1338 1.524 . S
C1335 C1327 1.503 . S
C1335 C1334 1.370 . S
C1335 C1336 1.403 . S
C1336 C1335 1.403 . S
C1336 C1337 1.404 . S
C1336 C1339 1.539 . S
C1337 C1333 1.408 . S
C1337 C1336 1.404 . S
C1337 H1349 0.930 . S
C1338 C1334 1.524 . S
C1338 H1350 0.956 . S
C1338 H1351 0.961 . S
C1338 H1352 0.961 . S
C1339 C1336 1.539 . S
C1339 H1353 0.958 . S
C1339 H1354 0.961 . S
C1339 H1355 0.960 . S
H1340 C1324 0.931 . S
H1341 C1329 0.929 . S
H1342 C1330 0.960 . S
H1343 C1330 0.962 . S
H1344 C1330 0.960 . S
H1345 C1331 0.961 . S
H1346 C1331 0.961 . S
H1347 C1331 0.961 . S
H1348 C1332 0.931 . S
H1349 C1337 0.930 . S
H1350 C1338 0.956 . S
H1351 C1338 0.961 . S
H1352 C1338 0.961 . S
H1353 C1339 0.958 . S
H1354 C1339 0.961 . S
H1355 C1339 0.960 . S
C1356 C1357 1.391 . S
C1356 C1358 1.394 . S
C1356 H1372 0.931 . S
C1357 C1356 1.391 . S
C1357 C1361 1.376 . S
C1358 C1356 1.394 . S
C1358 C1359 1.369 . S
C1358 C1362 1.531 . S
C1359 C1358 1.369 . S
C1359 C1360 1.410 . S
C1359 C1367 1.503 . S
C1360 C1359 1.410 . S
C1360 C1361 1.392 . S
C1360 C1363 1.511 . S
C1361 C1357 1.376 . S
C1361 C1360 1.392 . S
C1361 H1373 0.929 . S
C1362 C1358 1.531 . S
C1362 H1374 0.960 . S
C1362 H1375 0.962 . S
C1362 H1376 0.960 . S
C1363 C1360 1.511 . S
C1363 H1377 0.961 . S
C1363 H1378 0.961 . S
C1363 H1379 0.961 . S
C1364 C1365 1.370 . S
C1364 C1366 1.363 . S
C1364 H1380 0.931 . S
C1365 C1364 1.370 . S
C1365 C1369 1.408 . S
C1366 C1364 1.363 . S
C1366 C1367 1.370 . S
C1366 C1370 1.524 . S
C1367 C1359 1.503 . S
C1367 C1366 1.370 . S
C1367 C1368 1.403 . S
C1368 C1367 1.403 . S
C1368 C1369 1.404 . S
C1368 C1371 1.539 . S
C1369 C1365 1.408 . S
C1369 C1368 1.404 . S
C1369 H1381 0.930 . S
C1370 C1366 1.524 . S
C1370 H1382 0.956 . S
C1370 H1383 0.961 . S
C1370 H1384 0.961 . S
C1371 C1368 1.539 . S
C1371 H1385 0.958 . S
C1371 H1386 0.961 . S
C1371 H1387 0.960 . S
H1372 C1356 0.931 . S
H1373 C1361 0.929 . S
H1374 C1362 0.960 . S
H1375 C1362 0.962 . S
H1376 C1362 0.960 . S
H1377 C1363 0.961 . S
H1378 C1363 0.961 . S
H1379 C1363 0.961 . S
H1380 C1364 0.931 . S
H1381 C1369 0.930 . S
H1382 C1370 0.956 . S
H1383 C1370 0.961 . S
H1384 C1370 0.961 . S
H1385 C1371 0.958 . S
H1386 C1371 0.961 . S
H1387 C1371 0.960 . S
C1388 C1389 1.391 . S
C1388 C1390 1.394 . S
C1388 H1404 0.931 . S
C1389 C1388 1.391 . S
C1389 C1393 1.376 . S
C1390 C1388 1.394 . S
C1390 C1391 1.369 . S
C1390 C1394 1.531 . S
C1391 C1390 1.369 . S
C1391 C1392 1.410 . S
C1391 C1399 1.503 . S
C1392 C1391 1.410 . S
C1392 C1393 1.392 . S
C1392 C1395 1.511 . S
C1393 C1389 1.376 . S
C1393 C1392 1.392 . S
C1393 H1405 0.929 . S
C1394 C1390 1.531 . S
C1394 H1406 0.960 . S
C1394 H1407 0.962 . S
C1394 H1408 0.960 . S
C1395 C1392 1.511 . S
C1395 H1409 0.961 . S
C1395 H1410 0.961 . S
C1395 H1411 0.961 . S
C1396 C1397 1.370 . S
C1396 C1398 1.363 . S
C1396 H1412 0.931 . S
C1397 C1396 1.370 . S
C1397 C1401 1.408 . S
C1398 C1396 1.363 . S
C1398 C1399 1.370 . S
C1398 C1402 1.524 . S
C1399 C1391 1.503 . S
C1399 C1398 1.370 . S
C1399 C1400 1.403 . S
C1400 C1399 1.403 . S
C1400 C1401 1.404 . S
C1400 C1403 1.539 . S
C1401 C1397 1.408 . S
C1401 C1400 1.404 . S
C1401 H1413 0.930 . S
C1402 C1398 1.524 . S
C1402 H1414 0.956 . S
C1402 H1415 0.961 . S
C1402 H1416 0.961 . S
C1403 C1400 1.539 . S
C1403 H1417 0.958 . S
C1403 H1418 0.961 . S
C1403 H1419 0.960 . S
H1404 C1388 0.931 . S
H1405 C1393 0.929 . S
H1406 C1394 0.960 . S
H1407 C1394 0.962 . S
H1408 C1394 0.960 . S
H1409 C1395 0.961 . S
H1410 C1395 0.961 . S
H1411 C1395 0.961 . S
H1412 C1396 0.931 . S
H1413 C1401 0.930 . S
H1414 C1402 0.956 . S
H1415 C1402 0.961 . S
H1416 C1402 0.961 . S
H1417 C1403 0.958 . S
H1418 C1403 0.961 . S
H1419 C1403 0.960 . S
C1420 C1421 1.391 . S
C1420 C1422 1.394 . S
C1420 H1436 0.931 . S
C1421 C1420 1.391 . S
C1421 C1425 1.376 . S
C1422 C1420 1.394 . S
C1422 C1423 1.369 . S
C1422 C1426 1.531 . S
C1423 C1422 1.369 . S
C1423 C1424 1.410 . S
C1423 C1431 1.503 . S
C1424 C1423 1.410 . S
C1424 C1425 1.392 . S
C1424 C1427 1.511 . S
C1425 C1421 1.376 . S
C1425 C1424 1.392 . S
C1425 H1437 0.929 . S
C1426 C1422 1.531 . S
C1426 H1438 0.960 . S
C1426 H1439 0.962 . S
C1426 H1440 0.960 . S
C1427 C1424 1.511 . S
C1427 H1441 0.961 . S
C1427 H1442 0.961 . S
C1427 H1443 0.961 . S
C1428 C1429 1.370 . S
C1428 C1430 1.363 . S
C1428 H1444 0.931 . S
C1429 C1428 1.370 . S
C1429 C1433 1.408 . S
C1430 C1428 1.363 . S
C1430 C1431 1.370 . S
C1430 C1434 1.524 . S
C1431 C1423 1.503 . S
C1431 C1430 1.370 . S
C1431 C1432 1.403 . S
C1432 C1431 1.403 . S
C1432 C1433 1.404 . S
C1432 C1435 1.539 . S
C1433 C1429 1.408 . S
C1433 C1432 1.404 . S
C1433 H1445 0.930 . S
C1434 C1430 1.524 . S
C1434 H1446 0.956 . S
C1434 H1447 0.961 . S
C1434 H1448 0.961 . S
C1435 C1432 1.539 . S
C1435 H1449 0.958 . S
C1435 H1450 0.961 . S
C1435 H1451 0.960 . S
H1436 C1420 0.931 . S
H1437 C1425 0.929 . S
H1438 C1426 0.960 . S
H1439 C1426 0.962 . S
H1440 C1426 0.960 . S
H1441 C1427 0.961 . S
H1442 C1427 0.961 . S
H1443 C1427 0.961 . S
H1444 C1428 0.931 . S
H1445 C1433 0.930 . S
H1446 C1434 0.956 . S
H1447 C1434 0.961 . S
H1448 C1434 0.961 . S
H1449 C1435 0.958 . S
H1450 C1435 0.961 . S
H1451 C1435 0.960 . S
C1452 C1453 1.391 . S
C1452 C1454 1.394 . S
C1452 H1468 0.931 . S
C1453 C1452 1.391 . S
C1453 C1457 1.376 1_556 S
C1454 C1452 1.394 . S
C1454 C1455 1.369 . S
C1454 C1458 1.531 . S
C1455 C1454 1.369 . S
C1455 C1456 1.404 1_556 S
C1455 C1463 1.503 . S
C1456 C1455 1.404 1_554 S
C1456 C1457 1.394 . S
C1456 C1459 1.516 . S
C1457 C1453 1.376 1_554 S
C1457 C1456 1.394 . S
C1457 H1469 0.929 . S
C1458 C1454 1.531 . S
C1458 H1470 0.960 . S
C1458 H1471 0.962 . S
C1458 H1472 0.960 . S
C1459 C1456 1.516 . S
C1459 H1473 0.961 . S
C1459 H1474 0.961 . S
C1459 H1475 0.961 1_554 S
C1460 C1461 1.358 1_554 S
C1460 C1462 1.363 . S
C1460 H1476 0.931 . S
C1461 C1460 1.358 1_556 S
C1461 C1465 1.422 . S
C1462 C1460 1.363 . S
C1462 C1463 1.370 1_554 S
C1462 C1466 1.524 . S
C1463 C1455 1.503 . S
C1463 C1462 1.370 1_556 S
C1463 C1464 1.403 . S
C1464 C1463 1.403 . S
C1464 C1465 1.404 . S
C1464 C1467 1.539 . S
C1465 C1461 1.422 . S
C1465 C1464 1.404 . S
C1465 H1477 0.930 . S
C1466 C1462 1.524 . S
C1466 H1478 0.956 . S
C1466 H1479 0.961 . S
C1466 H1480 0.961 . S
C1467 C1464 1.539 . S
C1467 H1481 0.958 . S
C1467 H1482 0.961 . S
C1467 H1483 0.960 . S
H1468 C1452 0.931 . S
H1469 C1457 0.929 . S
H1470 C1458 0.960 . S
H1471 C1458 0.962 . S
H1472 C1458 0.960 . S
H1473 C1459 0.961 . S
H1474 C1459 0.961 . S
H1475 C1459 0.961 1_556 S
H1476 C1460 0.931 . S
H1477 C1465 0.930 . S
H1478 C1466 0.956 . S
H1479 C1466 0.961 . S
H1480 C1466 0.961 . S
H1481 C1467 0.958 . S
H1482 C1467 0.961 . S
H1483 C1467 0.960 . S
C1484 C1485 1.391 . S
C1484 C1486 1.394 . S
C1484 H1500 0.931 . S
C1485 C1484 1.391 . S
C1485 C1489 1.376 1_556 S
C1486 C1484 1.394 . S
C1486 C1487 1.369 . S
C1486 C1490 1.531 . S
C1487 C1486 1.369 . S
C1487 C1488 1.410 1_556 S
C1487 C1495 1.503 . S
C1488 C1487 1.410 1_554 S
C1488 C1489 1.392 . S
C1488 C1491 1.511 . S
C1489 C1485 1.376 1_554 S
C1489 C1488 1.392 . S
C1489 H1501 0.929 . S
C1490 C1486 1.531 . S
C1490 H1502 0.960 . S
C1490 H1503 0.962 . S
C1490 H1504 0.960 . S
C1491 C1488 1.511 . S
C1491 H1505 0.961 . S
C1491 H1506 0.961 . S
C1491 H1507 0.961 . S
C1492 C1493 1.367 1_554 S
C1492 C1494 1.363 . S
C1492 H1508 0.931 . S
C1493 C1492 1.367 1_556 S
C1493 C1497 1.412 . S
C1494 C1492 1.363 . S
C1494 C1495 1.370 1_554 S
C1494 C1498 1.524 . S
C1495 C1487 1.503 . S
C1495 C1494 1.370 1_556 S
C1495 C1496 1.403 . S
C1496 C1495 1.403 . S
C1496 C1497 1.404 . S
C1496 C1499 1.539 . S
C1497 C1493 1.412 . S
C1497 C1496 1.404 . S
C1497 H1509 0.930 . S
C1498 C1494 1.524 . S
C1498 H1510 0.956 . S
C1498 H1511 0.961 . S
C1498 H1512 0.961 . S
C1499 C1496 1.539 . S
C1499 H1513 0.958 . S
C1499 H1514 0.961 . S
C1499 H1515 0.960 . S
H1500 C1484 0.931 . S
H1501 C1489 0.929 . S
H1502 C1490 0.960 . S
H1503 C1490 0.962 . S
H1504 C1490 0.960 . S
H1505 C1491 0.961 . S
H1506 C1491 0.961 . S
H1507 C1491 0.961 . S
H1508 C1492 0.931 . S
H1509 C1497 0.930 . S
H1510 C1498 0.956 . S
H1511 C1498 0.961 . S
H1512 C1498 0.961 . S
H1513 C1499 0.958 . S
H1514 C1499 0.961 . S
H1515 C1499 0.960 . S
C1516 C1517 1.391 . S
C1516 C1518 1.394 . S
C1516 H1532 0.931 . S
C1517 C1516 1.391 . S
C1517 C1521 1.376 1_554 S
C1518 C1516 1.394 . S
C1518 C1519 1.369 . S
C1518 C1522 1.531 . S
C1519 C1518 1.369 . S
C1519 C1520 1.410 1_554 S
C1519 C1527 1.503 . S
C1520 C1519 1.410 1_556 S
C1520 C1521 1.392 . S
C1520 C1523 1.511 . S
C1521 C1517 1.376 1_556 S
C1521 C1520 1.392 . S
C1521 H1533 0.929 . S
C1522 C1518 1.531 . S
C1522 H1534 0.960 . S
C1522 H1535 0.962 . S
C1522 H1536 0.960 . S
C1523 C1520 1.511 . S
C1523 H1537 0.961 . S
C1523 H1538 0.961 . S
C1523 H1539 0.961 1_556 S
C1524 C1525 1.370 1_556 S
C1524 C1526 1.363 . S
C1524 H1540 0.931 . S
C1525 C1524 1.370 1_554 S
C1525 C1529 1.408 . S
C1526 C1524 1.363 . S
C1526 C1527 1.370 1_556 S
C1526 C1530 1.524 . S
C1527 C1519 1.503 . S
C1527 C1526 1.370 1_554 S
C1527 C1528 1.403 . S
C1528 C1527 1.403 . S
C1528 C1529 1.404 . S
C1528 C1531 1.539 . S
C1529 C1525 1.408 . S
C1529 C1528 1.404 . S
C1529 H1541 0.930 . S
C1530 C1526 1.524 . S
C1530 H1542 0.956 . S
C1530 H1543 0.961 . S
C1530 H1544 0.961 . S
C1531 C1528 1.539 . S
C1531 H1545 0.958 . S
C1531 H1546 0.961 . S
C1531 H1547 0.960 . S
H1532 C1516 0.931 . S
H1533 C1521 0.929 . S
H1534 C1522 0.960 . S
H1535 C1522 0.962 . S
H1536 C1522 0.960 . S
H1537 C1523 0.961 . S
H1538 C1523 0.961 . S
H1539 C1523 0.961 1_554 S
H1540 C1524 0.931 . S
H1541 C1529 0.930 . S
H1542 C1530 0.956 . S
H1543 C1530 0.961 . S
H1544 C1530 0.961 . S
H1545 C1531 0.958 . S
H1546 C1531 0.961 . S
H1547 C1531 0.960 . S
C1548 C1549 1.391 1_556 S
C1548 C1550 1.394 . S
C1548 H1564 0.931 . S
C1549 C1548 1.391 1_554 S
C1549 C1553 1.376 . S
C1550 C1548 1.394 . S
C1550 C1551 1.369 1_556 S
C1550 C1554 1.531 . S
C1551 C1550 1.369 1_554 S
C1551 C1552 1.410 . S
C1551 C1559 1.503 . S
C1552 C1551 1.410 . S
C1552 C1553 1.392 . S
C1552 C1555 1.511 . S
C1553 C1549 1.376 . S
C1553 C1552 1.392 . S
C1553 H1565 0.929 . S
C1554 C1550 1.531 . S
C1554 H1566 0.960 . S
C1554 H1567 0.962 . S
C1554 H1568 0.960 . S
C1555 C1552 1.511 . S
C1555 H1569 0.961 . S
C1555 H1570 0.961 . S
C1555 H1571 0.961 . S
C1556 C1557 1.370 1_556 S
C1556 C1558 1.363 . S
C1556 H1572 0.931 . S
C1557 C1556 1.370 1_554 S
C1557 C1561 1.408 . S
C1558 C1556 1.363 . S
C1558 C1559 1.370 1_556 S
C1558 C1562 1.524 . S
C1559 C1551 1.503 . S
C1559 C1558 1.370 1_554 S
C1559 C1560 1.403 . S
C1560 C1559 1.403 . S
C1560 C1561 1.404 . S
C1560 C1563 1.539 . S
C1561 C1557 1.408 . S
C1561 C1560 1.404 . S
C1561 H1573 0.930 . S
C1562 C1558 1.524 . S
C1562 H1574 0.956 . S
C1562 H1575 0.961 . S
C1562 H1576 0.961 . S
C1563 C1560 1.539 . S
C1563 H1577 0.958 . S
C1563 H1578 0.961 . S
C1563 H1579 0.960 . S
H1564 C1548 0.931 . S
H1565 C1553 0.929 . S
H1566 C1554 0.960 . S
H1567 C1554 0.962 . S
H1568 C1554 0.960 . S
H1569 C1555 0.961 . S
H1570 C1555 0.961 . S
H1571 C1555 0.961 . S
H1572 C1556 0.931 . S
H1573 C1561 0.930 . S
H1574 C1562 0.956 . S
H1575 C1562 0.961 . S
H1576 C1562 0.961 . S
H1577 C1563 0.958 . S
H1578 C1563 0.961 . S
H1579 C1563 0.960 . S
C1580 C1581 1.391 . S
C1580 C1582 1.394 . S
C1580 H1596 0.931 . S
C1581 C1580 1.391 . S
C1581 C1585 1.376 1_455 S
C1582 C1580 1.394 . S
C1582 C1583 1.369 . S
C1582 C1586 1.531 . S
C1583 C1582 1.369 . S
C1583 C1584 1.410 1_455 S
C1583 C1591 1.503 . S
C1584 C1583 1.410 1_655 S
C1584 C1585 1.392 . S
C1584 C1587 1.511 . S
C1585 C1581 1.376 1_655 S
C1585 C1584 1.392 . S
C1585 H1597 0.929 . S
C1586 C1582 1.531 . S
C1586 H1598 0.960 . S
C1586 H1599 0.962 . S
C1586 H1600 0.960 . S
C1587 C1584 1.511 . S
C1587 H1601 0.961 . S
C1587 H1602 0.961 . S
C1587 H1603 0.961 . S
C1588 C1589 1.370 . S
C1588 C1590 1.363 . S
C1588 H1604 0.931 . S
C1589 C1588 1.370 . S
C1589 C1593 1.408 1_455 S
C1590 C1588 1.363 . S
C1590 C1591 1.370 . S
C1590 C1594 1.524 . S
C1591 C1583 1.503 . S
C1591 C1590 1.370 . S
C1591 C1592 1.403 1_455 S
C1592 C1591 1.403 1_655 S
C1592 C1593 1.404 . S
C1592 C1595 1.539 . S
C1593 C1589 1.408 1_655 S
C1593 C1592 1.404 . S
C1593 H1605 0.930 . S
C1594 C1590 1.524 . S
C1594 H1606 0.956 . S
C1594 H1607 0.961 1_455 S
C1594 H1608 0.961 . S
C1595 C1592 1.539 . S
C1595 H1609 0.958 1_655 S
C1595 H1610 0.961 . S
C1595 H1611 0.960 . S
H1596 C1580 0.931 . S
H1597 C1585 0.929 . S
H1598 C1586 0.960 . S
H1599 C1586 0.962 . S
H1600 C1586 0.960 . S
H1601 C1587 0.961 . S
H1602 C1587 0.961 . S
H1603 C1587 0.961 . S
H1604 C1588 0.931 . S
H1605 C1593 0.930 . S
H1606 C1594 0.956 . S
H1607 C1594 0.961 1_655 S
H1608 C1594 0.961 . S
H1609 C1595 0.958 1_455 S
H1610 C1595 0.961 . S
H1611 C1595 0.960 . S
C1612 C1613 1.374 1_565 S
C1612 C1614 1.394 . S
C1612 H1628 0.931 . S
C1613 C1612 1.374 1_545 S
C1613 C1617 1.392 . S
C1614 C1612 1.394 . S
C1614 C1615 1.369 . S
C1614 C1618 1.531 . S
C1615 C1614 1.369 . S
C1615 C1616 1.410 1_565 S
C1615 C1623 1.504 . S
C1616 C1615 1.410 1_545 S
C1616 C1617 1.392 . S
C1616 C1619 1.511 . S
C1617 C1613 1.392 . S
C1617 C1616 1.392 . S
C1617 H1629 0.929 . S
C1618 C1614 1.531 . S
C1618 H1630 0.960 . S
C1618 H1631 0.962 . S
C1618 H1632 0.960 . S
C1619 C1616 1.511 . S
C1619 H1633 0.961 . S
C1619 H1634 0.961 . S
C1619 H1635 0.961 . S
C1620 C1621 1.370 . S
C1620 C1622 1.363 . S
C1620 H1636 0.931 . S
C1621 C1620 1.370 . S
C1621 C1625 1.408 1_545 S
C1622 C1620 1.363 . S
C1622 C1623 1.365 1_545 S
C1622 C1626 1.524 . S
C1623 C1615 1.504 . S
C1623 C1622 1.365 1_565 S
C1623 C1624 1.408 . S
C1624 C1623 1.408 . S
C1624 C1625 1.404 . S
C1624 C1627 1.539 . S
C1625 C1621 1.408 1_565 S
C1625 C1624 1.404 . S
C1625 H1637 0.930 . S
C1626 C1622 1.524 . S
C1626 H1638 0.956 . S
C1626 H1639 0.961 . S
C1626 H1640 0.961 . S
C1627 C1624 1.539 . S
C1627 H1641 0.958 . S
C1627 H1642 0.961 . S
C1627 H1643 0.960 . S
H1628 C1612 0.931 . S
H1629 C1617 0.929 . S
H1630 C1618 0.960 . S
H1631 C1618 0.962 . S
H1632 C1618 0.960 . S
H1633 C1619 0.961 . S
H1634 C1619 0.961 . S
H1635 C1619 0.961 . S
H1636 C1620 0.931 . S
H1637 C1625 0.930 . S
H1638 C1626 0.956 . S
H1639 C1626 0.961 . S
H1640 C1626 0.961 . S
H1641 C1627 0.958 . S
H1642 C1627 0.961 . S
H1643 C1627 0.960 . S
C1644 C1645 1.391 1_655 S
C1644 C1646 1.394 . S
C1644 H1660 0.931 . S
C1645 C1644 1.391 1_455 S
C1645 C1649 1.376 . S
C1646 C1644 1.394 . S
C1646 C1647 1.369 1_655 S
C1646 C1650 1.531 . S
C1647 C1646 1.369 1_455 S
C1647 C1648 1.410 . S
C1647 C1655 1.503 . S
C1648 C1647 1.410 . S
C1648 C1649 1.392 . S
C1648 C1651 1.511 . S
C1649 C1645 1.376 . S
C1649 C1648 1.392 . S
C1649 H1661 0.929 . S
C1650 C1646 1.531 . S
C1650 H1662 0.960 . S
C1650 H1663 0.962 . S
C1650 H1664 0.960 . S
C1651 C1648 1.511 . S
C1651 H1665 0.961 . S
C1651 H1666 0.961 . S
C1651 H1667 0.961 . S
C1652 C1653 1.370 . S
C1652 C1654 1.363 . S
C1652 H1668 0.931 . S
C1653 C1652 1.370 . S
C1653 C1657 1.408 . S
C1654 C1652 1.363 . S
C1654 C1655 1.370 . S
C1654 C1658 1.524 . S
C1655 C1647 1.503 . S
C1655 C1654 1.370 . S
C1655 C1656 1.403 . S
C1656 C1655 1.403 . S
C1656 C1657 1.404 . S
C1656 C1659 1.539 . S
C1657 C1653 1.408 . S
C1657 C1656 1.404 . S
C1657 H1669 0.930 . S
C1658 C1654 1.524 . S
C1658 H1670 0.956 1_455 S
C1658 H1671 0.961 . S
C1658 H1672 0.961 . S
C1659 C1656 1.539 . S
C1659 H1673 0.958 1_455 S
C1659 H1674 0.961 . S
C1659 H1675 0.960 . S
H1660 C1644 0.931 . S
H1661 C1649 0.929 . S
H1662 C1650 0.960 . S
H1663 C1650 0.962 . S
H1664 C1650 0.960 . S
H1665 C1651 0.961 . S
H1666 C1651 0.961 . S
H1667 C1651 0.961 . S
H1668 C1652 0.931 . S
H1669 C1657 0.930 . S
H1670 C1658 0.956 1_655 S
H1671 C1658 0.961 . S
H1672 C1658 0.961 . S
H1673 C1659 0.958 1_655 S
H1674 C1659 0.961 . S
H1675 C1659 0.960 . S
C1676 C1677 1.391 . S
C1676 C1678 1.394 . S
C1676 H1692 0.931 . S
C1677 C1676 1.391 . S
C1677 C1681 1.376 1_545 S
C1678 C1676 1.394 . S
C1678 C1679 1.369 . S
C1678 C1682 1.531 . S
C1679 C1678 1.369 . S
C1679 C1680 1.410 1_545 S
C1679 C1687 1.503 . S
C1680 C1679 1.410 1_565 S
C1680 C1681 1.392 . S
C1680 C1683 1.511 . S
C1681 C1677 1.376 1_565 S
C1681 C1680 1.392 . S
C1681 H1693 0.929 . S
C1682 C1678 1.531 . S
C1682 H1694 0.960 . S
C1682 H1695 0.962 . S
C1682 H1696 0.960 . S
C1683 C1680 1.511 . S
C1683 H1697 0.961 . S
C1683 H1698 0.961 . S
C1683 H1699 0.961 1_565 S
C1684 C1685 1.370 1_565 S
C1684 C1686 1.363 . S
C1684 H1700 0.931 . S
C1685 C1684 1.370 1_545 S
C1685 C1689 1.408 . S
C1686 C1684 1.363 . S
C1686 C1687 1.370 1_565 S
C1686 C1690 1.524 . S
C1687 C1679 1.503 . S
C1687 C1686 1.370 1_545 S
C1687 C1688 1.403 . S
C1688 C1687 1.403 . S
C1688 C1689 1.404 . S
C1688 C1691 1.539 . S
C1689 C1685 1.408 . S
C1689 C1688 1.404 . S
C1689 H1701 0.930 . S
C1690 C1686 1.524 . S
C1690 H1702 0.956 . S
C1690 H1703 0.961 . S
C1690 H1704 0.961 . S
C1691 C1688 1.539 . S
C1691 H1705 0.958 . S
C1691 H1706 0.961 . S
C1691 H1707 0.960 . S
H1692 C1676 0.931 . S
H1693 C1681 0.929 . S
H1694 C1682 0.960 . S
H1695 C1682 0.962 . S
H1696 C1682 0.960 . S
H1697 C1683 0.961 . S
H1698 C1683 0.961 . S
H1699 C1683 0.961 1_545 S
H1700 C1684 0.931 . S
H1701 C1689 0.930 . S
H1702 C1690 0.956 . S
H1703 C1690 0.961 . S
H1704 C1690 0.961 . S
H1705 C1691 0.958 . S
H1706 C1691 0.961 . S
H1707 C1691 0.960 . S
C1708 C1709 1.391 1_655 S
C1708 C1710 1.394 . S
C1708 H1724 0.931 . S
C1709 C1708 1.391 1_455 S
C1709 C1713 1.376 . S
C1710 C1708 1.394 . S
C1710 C1711 1.369 1_655 S
C1710 C1714 1.531 . S
C1711 C1710 1.369 1_455 S
C1711 C1712 1.410 . S
C1711 C1719 1.503 . S
C1712 C1711 1.410 . S
C1712 C1713 1.392 . S
C1712 C1715 1.511 . S
C1713 C1709 1.376 . S
C1713 C1712 1.392 . S
C1713 H1725 0.929 . S
C1714 C1710 1.531 . S
C1714 H1726 0.960 . S
C1714 H1727 0.962 . S
C1714 H1728 0.960 . S
C1715 C1712 1.511 . S
C1715 H1729 0.961 . S
C1715 H1730 0.961 . S
C1715 H1731 0.961 . S
C1716 C1717 1.370 1_655 S
C1716 C1718 1.363 . S
C1716 H1732 0.931 . S
C1717 C1716 1.370 1_455 S
C1717 C1721 1.408 . S
C1718 C1716 1.363 . S
C1718 C1719 1.370 1_655 S
C1718 C1722 1.524 . S
C1719 C1711 1.503 . S
C1719 C1718 1.370 1_455 S
C1719 C1720 1.403 . S
C1720 C1719 1.403 . S
C1720 C1721 1.404 . S
C1720 C1723 1.539 . S
C1721 C1717 1.408 . S
C1721 C1720 1.404 . S
C1721 H1733 0.930 . S
C1722 C1718 1.524 . S
C1722 H1734 0.956 . S
C1722 H1735 0.961 1_655 S
C1722 H1736 0.961 . S
C1723 C1720 1.539 . S
C1723 H1737 0.958 . S
C1723 H1738 0.961 . S
C1723 H1739 0.960 . S
H1724 C1708 0.931 . S
H1725 C1713 0.929 . S
H1726 C1714 0.960 . S
H1727 C1714 0.962 . S
H1728 C1714 0.960 . S
H1729 C1715 0.961 . S
H1730 C1715 0.961 . S
H1731 C1715 0.961 . S
H1732 C1716 0.931 . S
H1733 C1721 0.930 . S
H1734 C1722 0.956 . S
H1735 C1722 0.961 1_455 S
H1736 C1722 0.961 . S
H1737 C1723 0.958 . S
H1738 C1723 0.961 . S
H1739 C1723 0.960 . S
C1740 C1741 1.378 1_545 S
C1740 C1742 1.394 . S
C1740 H1756 0.931 . S
C1741 C1740 1.378 1_565 S
C1741 C1745 1.393 . S
C1742 C1740 1.394 . S
C1742 C1743 1.369 1_545 S
C1742 C1746 1.531 . S
C1743 C1742 1.369 1_565 S
C1743 C1744 1.410 . S
C1743 C1751 1.503 . S
C1744 C1743 1.410 . S
C1744 C1745 1.392 . S
C1744 C1747 1.511 . S
C1745 C1741 1.393 . S
C1745 C1744 1.392 . S
C1745 H1757 0.929 . S
C1746 C1742 1.531 . S
C1746 H1758 0.960 . S
C1746 H1759 0.962 . S
C1746 H1760 0.960 . S
C1747 C1744 1.511 . S
C1747 H1761 0.961 . S
C1747 H1762 0.961 . S
C1747 H1763 0.961 . S
C1748 C1749 1.378 . S
C1748 C1750 1.363 . S
C1748 H1764 0.931 . S
C1749 C1748 1.378 . S
C1749 C1753 1.400 1_545 S
C1750 C1748 1.363 . S
C1750 C1751 1.370 1_545 S
C1750 C1754 1.524 . S
C1751 C1743 1.503 . S
C1751 C1750 1.370 1_565 S
C1751 C1752 1.403 . S
C1752 C1751 1.403 . S
C1752 C1753 1.404 . S
C1752 C1755 1.539 . S
C1753 C1749 1.400 1_565 S
C1753 C1752 1.404 . S
C1753 H1765 0.930 . S
C1754 C1750 1.524 . S
C1754 H1766 0.956 . S
C1754 H1767 0.961 . S
C1754 H1768 0.961 . S
C1755 C1752 1.539 . S
C1755 H1769 0.958 . S
C1755 H1770 0.961 . S
C1755 H1771 0.960 . S
H1756 C1740 0.931 . S
H1757 C1745 0.929 . S
H1758 C1746 0.960 . S
H1759 C1746 0.962 . S
H1760 C1746 0.960 . S
H1761 C1747 0.961 . S
H1762 C1747 0.961 . S
H1763 C1747 0.961 . S
H1764 C1748 0.931 . S
H1765 C1753 0.930 . S
H1766 C1754 0.956 . S
H1767 C1754 0.961 . S
H1768 C1754 0.961 . S
H1769 C1755 0.958 . S
H1770 C1755 0.961 . S
H1771 C1755 0.960 . S
C1772 C1773 1.391 . S
C1772 C1774 1.394 . S
C1772 H1788 0.931 . S
C1773 C1772 1.391 . S
C1773 C1777 1.376 1_455 S
C1774 C1772 1.394 . S
C1774 C1775 1.369 . S
C1774 C1778 1.531 . S
C1775 C1774 1.369 . S
C1775 C1776 1.410 1_455 S
C1775 C1783 1.503 . S
C1776 C1775 1.410 1_655 S
C1776 C1777 1.392 . S
C1776 C1779 1.511 . S
C1777 C1773 1.376 1_655 S
C1777 C1776 1.392 . S
C1777 H1789 0.929 . S
C1778 C1774 1.531 . S
C1778 H1790 0.960 . S
C1778 H1791 0.962 . S
C1778 H1792 0.960 . S
C1779 C1776 1.511 . S
C1779 H1793 0.961 . S
C1779 H1794 0.961 . S
C1779 H1795 0.961 . S
C1780 C1781 1.370 . S
C1780 C1782 1.363 . S
C1780 H1796 0.931 . S
C1781 C1780 1.370 . S
C1781 C1785 1.404 1_455 S
C1782 C1780 1.363 . S
C1782 C1783 1.370 . S
C1782 C1786 1.524 . S
C1783 C1775 1.503 . S
C1783 C1782 1.370 . S
C1783 C1784 1.399 1_455 S
C1784 C1783 1.399 1_655 S
C1784 C1785 1.404 . S
C1784 C1787 1.547 . S
C1785 C1781 1.404 1_655 S
C1785 C1784 1.404 . S
C1785 H1797 0.936 . S
C1786 C1782 1.524 . S
C1786 H1798 0.956 . S
C1786 H1799 0.961 1_455 S
C1786 H1800 0.961 . S
C1787 C1784 1.547 . S
C1787 H1801 0.958 1_655 S
C1787 H1802 0.961 . S
C1787 H1803 0.960 . S
H1788 C1772 0.931 . S
H1789 C1777 0.929 . S
H1790 C1778 0.960 . S
H1791 C1778 0.962 . S
H1792 C1778 0.960 . S
H1793 C1779 0.961 . S
H1794 C1779 0.961 . S
H1795 C1779 0.961 . S
H1796 C1780 0.931 . S
H1797 C1785 0.936 . S
H1798 C1786 0.956 . S
H1799 C1786 0.961 1_655 S
H1800 C1786 0.961 . S
H1801 C1787 0.958 1_455 S
H1802 C1787 0.961 . S
H1803 C1787 0.960 . S
C1804 C1805 1.391 . S
C1804 C1806 1.394 . S
C1804 H1820 0.931 . S
C1805 C1804 1.391 . S
C1805 C1809 1.376 1_545 S
C1806 C1804 1.394 . S
C1806 C1807 1.369 . S
C1806 C1810 1.531 . S
C1807 C1806 1.369 . S
C1807 C1808 1.410 1_545 S
C1807 C1815 1.503 . S
C1808 C1807 1.410 1_565 S
C1808 C1809 1.392 . S
C1808 C1811 1.511 . S
C1809 C1805 1.376 1_565 S
C1809 C1808 1.392 . S
C1809 H1821 0.929 . S
C1810 C1806 1.531 . S
C1810 H1822 0.960 . S
C1810 H1823 0.962 . S
C1810 H1824 0.960 . S
C1811 C1808 1.511 . S
C1811 H1825 0.961 . S
C1811 H1826 0.961 . S
C1811 H1827 0.961 . S
C1812 C1813 1.370 1_565 S
C1812 C1814 1.363 . S
C1812 H1828 0.931 . S
C1813 C1812 1.370 1_545 S
C1813 C1817 1.408 . S
C1814 C1812 1.363 . S
C1814 C1815 1.370 1_565 S
C1814 C1818 1.524 . S
C1815 C1807 1.503 . S
C1815 C1814 1.370 1_545 S
C1815 C1816 1.403 . S
C1816 C1815 1.403 . S
C1816 C1817 1.404 . S
C1816 C1819 1.539 . S
C1817 C1813 1.408 . S
C1817 C1816 1.404 . S
C1817 H1829 0.930 . S
C1818 C1814 1.524 . S
C1818 H1830 0.956 . S
C1818 H1831 0.961 . S
C1818 H1832 0.961 . S
C1819 C1816 1.539 . S
C1819 H1833 0.958 . S
C1819 H1834 0.961 . S
C1819 H1835 0.960 . S
H1820 C1804 0.931 . S
H1821 C1809 0.929 . S
H1822 C1810 0.960 . S
H1823 C1810 0.962 . S
H1824 C1810 0.960 . S
H1825 C1811 0.961 . S
H1826 C1811 0.961 . S
H1827 C1811 0.961 . S
H1828 C1812 0.931 . S
H1829 C1817 0.930 . S
H1830 C1818 0.956 . S
H1831 C1818 0.961 . S
H1832 C1818 0.961 . S
H1833 C1819 0.958 . S
H1834 C1819 0.961 . S
H1835 C1819 0.960 . S
C1836 C1837 1.391 . S
C1836 C1838 1.394 . S
C1836 H1852 0.931 . S
C1837 C1836 1.391 . S
C1837 C1841 1.375 1_455 S
C1838 C1836 1.394 . S
C1838 C1839 1.369 1_455 S
C1838 C1842 1.531 . S
C1839 C1838 1.369 1_655 S
C1839 C1840 1.410 . S
C1839 C1847 1.503 . S
C1840 C1839 1.410 . S
C1840 C1841 1.392 . S
C1840 C1843 1.511 . S
C1841 C1837 1.375 1_655 S
C1841 C1840 1.392 . S
C1841 H1853 0.929 . S
C1842 C1838 1.531 . S
C1842 H1854 0.960 1_455 S
C1842 H1855 0.962 . S
C1842 H1856 0.960 . S
C1843 C1840 1.511 . S
C1843 H1857 0.961 . S
C1843 H1858 0.961 . S
C1843 H1859 0.961 . S
C1844 C1845 1.370 . S
C1844 C1846 1.363 . S
C1844 H1860 0.931 . S
C1845 C1844 1.370 . S
C1845 C1849 1.408 1_455 S
C1846 C1844 1.363 . S
C1846 C1847 1.370 1_455 S
C1846 C1850 1.524 . S
C1847 C1839 1.503 . S
C1847 C1846 1.370 1_655 S
C1847 C1848 1.403 . S
C1848 C1847 1.403 . S
C1848 C1849 1.404 . S
C1848 C1851 1.539 . S
C1849 C1845 1.408 1_655 S
C1849 C1848 1.404 . S
C1849 H1861 0.930 . S
C1850 C1846 1.524 . S
C1850 H1862 0.956 . S
C1850 H1863 0.961 . S
C1850 H1864 0.961 . S
C1851 C1848 1.539 . S
C1851 H1865 0.958 . S
C1851 H1866 0.961 . S
C1851 H1867 0.960 . S
H1852 C1836 0.931 . S
H1853 C1841 0.929 . S
H1854 C1842 0.960 1_655 S
H1855 C1842 0.962 . S
H1856 C1842 0.960 . S
H1857 C1843 0.961 . S
H1858 C1843 0.961 . S
H1859 C1843 0.961 . S
H1860 C1844 0.931 . S
H1861 C1849 0.930 . S
H1862 C1850 0.956 . S
H1863 C1850 0.961 . S
H1864 C1850 0.961 . S
H1865 C1851 0.958 . S
H1866 C1851 0.961 . S
H1867 C1851 0.960 . S
C1868 C1869 1.391 . S
C1868 C1870 1.394 . S
C1868 H1884 0.931 . S
C1869 C1868 1.391 . S
C1869 C1873 1.376 1_565 S
C1870 C1868 1.394 . S
C1870 C1871 1.369 . S
C1870 C1874 1.531 . S
C1871 C1870 1.369 . S
C1871 C1872 1.410 1_565 S
C1871 C1879 1.503 . S
C1872 C1871 1.410 1_545 S
C1872 C1873 1.392 . S
C1872 C1875 1.511 . S
C1873 C1869 1.376 1_545 S
C1873 C1872 1.392 . S
C1873 H1885 0.929 . S
C1874 C1870 1.531 . S
C1874 H1886 0.960 . S
C1874 H1887 0.962 . S
C1874 H1888 0.960 . S
C1875 C1872 1.511 . S
C1875 H1889 0.961 . S
C1875 H1890 0.961 . S
C1875 H1891 0.961 1_545 S
C1876 C1877 1.374 1_545 S
C1876 C1878 1.363 . S
C1876 H1892 0.931 . S
C1877 C1876 1.374 1_565 S
C1877 C1881 1.404 . S
C1878 C1876 1.363 . S
C1878 C1879 1.370 1_545 S
C1878 C1882 1.524 . S
C1879 C1871 1.503 . S
C1879 C1878 1.370 1_565 S
C1879 C1880 1.403 . S
C1880 C1879 1.403 . S
C1880 C1881 1.404 . S
C1880 C1883 1.539 . S
C1881 C1877 1.404 . S
C1881 C1880 1.404 . S
C1881 H1893 0.930 . S
C1882 C1878 1.524 . S
C1882 H1894 0.956 . S
C1882 H1895 0.961 . S
C1882 H1896 0.961 . S
C1883 C1880 1.539 . S
C1883 H1897 0.958 . S
C1883 H1898 0.961 . S
C1883 H1899 0.960 . S
H1884 C1868 0.931 . S
H1885 C1873 0.929 . S
H1886 C1874 0.960 . S
H1887 C1874 0.962 . S
H1888 C1874 0.960 . S
H1889 C1875 0.961 . S
H1890 C1875 0.961 . S
H1891 C1875 0.961 1_565 S
H1892 C1876 0.931 . S
H1893 C1881 0.930 . S
H1894 C1882 0.956 . S
H1895 C1882 0.961 . S
H1896 C1882 0.961 . S
H1897 C1883 0.958 . S
H1898 C1883 0.961 . S
H1899 C1883 0.960 . S
C1900 C1901 1.391 1_655 S
C1900 C1902 1.394 . S
C1900 H1916 0.931 . S
C1901 C1900 1.391 1_455 S
C1901 C1905 1.376 . S
C1902 C1900 1.394 . S
C1902 C1903 1.369 1_655 S
C1902 C1906 1.531 . S
C1903 C1902 1.369 1_455 S
C1903 C1904 1.410 . S
C1903 C1911 1.503 . S
C1904 C1903 1.410 . S
C1904 C1905 1.392 . S
C1904 C1907 1.511 . S
C1905 C1901 1.376 . S
C1905 C1904 1.392 . S
C1905 H1917 0.929 . S
C1906 C1902 1.531 . S
C1906 H1918 0.960 . S
C1906 H1919 0.962 . S
C1906 H1920 0.960 . S
C1907 C1904 1.511 . S
C1907 H1921 0.961 . S
C1907 H1922 0.961 . S
C1907 H1923 0.961 . S
C1908 C1909 1.370 1_655 S
C1908 C1910 1.363 . S
C1908 H1924 0.931 . S
C1909 C1908 1.370 1_455 S
C1909 C1913 1.408 . S
C1910 C1908 1.363 . S
C1910 C1911 1.370 1_655 S
C1910 C1914 1.524 . S
C1911 C1903 1.503 . S
C1911 C1910 1.370 1_455 S
C1911 C1912 1.403 . S
C1912 C1911 1.403 . S
C1912 C1913 1.404 . S
C1912 C1915 1.539 . S
C1913 C1909 1.408 . S
C1913 C1912 1.404 . S
C1913 H1925 0.930 . S
C1914 C1910 1.524 . S
C1914 H1926 0.956 . S
C1914 H1927 0.961 . S
C1914 H1928 0.961 . S
C1915 C1912 1.539 . S
C1915 H1929 0.958 . S
C1915 H1930 0.961 . S
C1915 H1931 0.960 . S
H1916 C1900 0.931 . S
H1917 C1905 0.929 . S
H1918 C1906 0.960 . S
H1919 C1906 0.962 . S
H1920 C1906 0.960 . S
H1921 C1907 0.961 . S
H1922 C1907 0.961 . S
H1923 C1907 0.961 . S
H1924 C1908 0.931 . S
H1925 C1913 0.930 . S
H1926 C1914 0.956 . S
H1927 C1914 0.961 . S
H1928 C1914 0.961 . S
H1929 C1915 0.958 . S
H1930 C1915 0.961 . S
H1931 C1915 0.960 . S
C1932 C1933 1.391 1_565 S
C1932 C1934 1.394 . S
C1932 H1948 0.931 . S
C1933 C1932 1.391 1_545 S
C1933 C1937 1.376 . S
C1934 C1932 1.394 . S
C1934 C1935 1.369 1_565 S
C1934 C1938 1.531 . S
C1935 C1934 1.369 1_545 S
C1935 C1936 1.410 . S
C1935 C1943 1.503 . S
C1936 C1935 1.410 . S
C1936 C1937 1.392 . S
C1936 C1939 1.511 . S
C1937 C1933 1.376 . S
C1937 C1936 1.392 . S
C1937 H1949 0.929 . S
C1938 C1934 1.531 . S
C1938 H1950 0.960 . S
C1938 H1951 0.962 . S
C1938 H1952 0.960 . S
C1939 C1936 1.511 . S
C1939 H1953 0.961 . S
C1939 H1954 0.961 . S
C1939 H1955 0.961 . S
C1940 C1941 1.370 1_565 S
C1940 C1942 1.363 . S
C1940 H1956 0.931 . S
C1941 C1940 1.370 1_545 S
C1941 C1945 1.408 . S
C1942 C1940 1.363 . S
C1942 C1943 1.370 1_565 S
C1942 C1946 1.524 . S
C1943 C1935 1.503 . S
C1943 C1942 1.370 1_545 S
C1943 C1944 1.403 . S
C1944 C1943 1.403 . S
C1944 C1945 1.404 . S
C1944 C1947 1.539 . S
C1945 C1941 1.408 . S
C1945 C1944 1.404 . S
C1945 H1957 0.930 . S
C1946 C1942 1.524 . S
C1946 H1958 0.956 . S
C1946 H1959 0.961 . S
C1946 H1960 0.961 . S
C1947 C1944 1.539 . S
C1947 H1961 0.958 . S
C1947 H1962 0.961 . S
C1947 H1963 0.960 . S
H1948 C1932 0.931 . S
H1949 C1937 0.929 . S
H1950 C1938 0.960 . S
H1951 C1938 0.962 . S
H1952 C1938 0.960 . S
H1953 C1939 0.961 . S
H1954 C1939 0.961 . S
H1955 C1939 0.961 . S
H1956 C1940 0.931 . S
H1957 C1945 0.930 . S
H1958 C1946 0.956 . S
H1959 C1946 0.961 . S
H1960 C1946 0.961 . S
H1961 C1947 0.958 . S
H1962 C1947 0.961 . S
H1963 C1947 0.960 . S
C1964 C1965 1.391 . S
C1964 C1966 1.394 . S
C1964 H1980 0.931 . S
C1965 C1964 1.391 . S
C1965 C1969 1.376 1_455 S
C1966 C1964 1.394 . S
C1966 C1967 1.405 . S
C1966 C1970 1.531 . S
C1967 C1966 1.405 . S
C1967 C1968 1.374 1_455 S
C1967 C1975 1.505 . S
C1968 C1967 1.374 1_655 S
C1968 C1969 1.392 . S
C1968 C1971 1.511 . S
C1969 C1965 1.376 1_655 S
C1969 C1968 1.392 . S
C1969 H1981 0.929 . S
C1970 C1966 1.531 . S
C1970 H1982 0.960 . S
C1970 H1983 0.962 . S
C1970 H1984 0.960 . S
C1971 C1968 1.511 . S
C1971 H1985 0.961 . S
C1971 H1986 0.961 . S
C1971 H1987 0.961 . S
C1972 C1973 1.370 . S
C1972 C1974 1.363 . S
C1972 H1988 0.931 . S
C1973 C1972 1.370 . S
C1973 C1977 1.408 1_455 S
C1974 C1972 1.363 . S
C1974 C1975 1.370 . S
C1974 C1978 1.524 . S
C1975 C1967 1.505 . S
C1975 C1974 1.370 . S
C1975 C1976 1.403 1_455 S
C1976 C1975 1.403 1_655 S
C1976 C1977 1.404 . S
C1976 C1979 1.539 . S
C1977 C1973 1.408 1_655 S
C1977 C1976 1.404 . S
C1977 H1989 0.930 . S
C1978 C1974 1.524 . S
C1978 H1990 0.956 . S
C1978 H1991 0.961 . S
C1978 H1992 0.961 . S
C1979 C1976 1.539 . S
C1979 H1993 0.958 . S
C1979 H1994 0.961 . S
C1979 H1995 0.960 . S
H1980 C1964 0.931 . S
H1981 C1969 0.929 . S
H1982 C1970 0.960 . S
H1983 C1970 0.962 . S
H1984 C1970 0.960 . S
H1985 C1971 0.961 . S
H1986 C1971 0.961 . S
H1987 C1971 0.961 . S
H1988 C1972 0.931 . S
H1989 C1977 0.930 . S
H1990 C1978 0.956 . S
H1991 C1978 0.961 . S
H1992 C1978 0.961 . S
H1993 C1979 0.958 . S
H1994 C1979 0.961 . S
H1995 C1979 0.960 . S
C1996 C1997 1.391 . S
C1996 C1998 1.394 . S
C1996 H2012 0.931 . S
C1997 C1996 1.391 . S
C1997 C2001 1.376 1_545 S
C1998 C1996 1.394 . S
C1998 C1999 1.369 . S
C1998 C2002 1.531 . S
C1999 C1998 1.369 . S
C1999 C2000 1.410 1_545 S
C1999 C2007 1.503 . S
C2000 C1999 1.410 1_565 S
C2000 C2001 1.392 . S
C2000 C2003 1.511 . S
C2001 C1997 1.376 1_565 S
C2001 C2000 1.392 . S
C2001 H2013 0.929 . S
C2002 C1998 1.531 . S
C2002 H2014 0.960 . S
C2002 H2015 0.962 . S
C2002 H2016 0.960 . S
C2003 C2000 1.511 . S
C2003 H2017 0.961 . S
C2003 H2018 0.961 . S
C2003 H2019 0.961 . S
C2004 C2005 1.370 1_565 S
C2004 C2006 1.363 . S
C2004 H2020 0.931 . S
C2005 C2004 1.370 1_545 S
C2005 C2009 1.408 . S
C2006 C2004 1.363 . S
C2006 C2007 1.370 1_565 S
C2006 C2010 1.524 . S
C2007 C1999 1.503 . S
C2007 C2006 1.370 1_545 S
C2007 C2008 1.403 . S
C2008 C2007 1.403 . S
C2008 C2009 1.404 . S
C2008 C2011 1.539 . S
C2009 C2005 1.408 . S
C2009 C2008 1.404 . S
C2009 H2021 0.930 . S
C2010 C2006 1.524 . S
C2010 H2022 0.956 . S
C2010 H2023 0.961 . S
C2010 H2024 0.961 . S
C2011 C2008 1.539 . S
C2011 H2025 0.958 . S
C2011 H2026 0.961 . S
C2011 H2027 0.960 . S
H2012 C1996 0.931 . S
H2013 C2001 0.929 . S
H2014 C2002 0.960 . S
H2015 C2002 0.962 . S
H2016 C2002 0.960 . S
H2017 C2003 0.961 . S
H2018 C2003 0.961 . S
H2019 C2003 0.961 . S
H2020 C2004 0.931 . S
H2021 C2009 0.930 . S
H2022 C2010 0.956 . S
H2023 C2010 0.961 . S
H2024 C2010 0.961 . S
H2025 C2011 0.958 . S
H2026 C2011 0.961 . S
H2027 C2011 0.960 . S
C2028 C2029 1.391 . S
C2028 C2030 1.394 . S
C2028 H2044 0.931 . S
C2029 C2028 1.391 . S
C2029 C2033 1.383 . S
C2030 C2028 1.394 . S
C2030 C2031 1.369 . S
C2030 C2034 1.531 . S
C2031 C2030 1.369 . S
C2031 C2032 1.410 . S
C2031 C2039 1.503 . S
C2032 C2031 1.410 . S
C2032 C2033 1.397 . S
C2032 C2035 1.511 1_455 S
C2033 C2029 1.383 . S
C2033 C2032 1.397 . S
C2033 H2045 0.920 1_455 S
C2034 C2030 1.531 . S
C2034 H2046 0.960 . S
C2034 H2047 0.962 . S
C2034 H2048 0.960 . S
C2035 C2032 1.511 1_655 S
C2035 H2049 0.961 . S
C2035 H2050 0.961 . S
C2035 H2051 0.961 1_655 S
C2036 C2037 1.370 1_655 S
C2036 C2038 1.363 . S
C2036 H2052 0.931 . S
C2037 C2036 1.370 1_455 S
C2037 C2041 1.408 . S
C2038 C2036 1.363 . S
C2038 C2039 1.370 1_655 S
C2038 C2042 1.524 . S
C2039 C2031 1.503 . S
C2039 C2038 1.370 1_455 S
C2039 C2040 1.403 . S
C2040 C2039 1.403 . S
C2040 C2041 1.404 . S
C2040 C2043 1.539 . S
C2041 C2037 1.408 . S
C2041 C2040 1.404 . S
C2041 H2053 0.930 . S
C2042 C2038 1.524 . S
C2042 H2054 0.956 . S
C2042 H2055 0.961 . S
C2042 H2056 0.961 . S
C2043 C2040 1.539 . S
C2043 H2057 0.958 . S
C2043 H2058 0.961 . S
C2043 H2059 0.960 . S
H2044 C2028 0.931 . S
H2045 C2033 0.920 1_655 S
H2046 C2034 0.960 . S
H2047 C2034 0.962 . S
H2048 C2034 0.960 . S
H2049 C2035 0.961 . S
H2050 C2035 0.961 . S
H2051 C2035 0.961 1_455 S
H2052 C2036 0.931 . S
H2053 C2041 0.930 . S
H2054 C2042 0.956 . S
H2055 C2042 0.961 . S
H2056 C2042 0.961 . S
H2057 C2043 0.958 . S
H2058 C2043 0.961 . S
H2059 C2043 0.960 . S
C2060 C2061 1.391 . S
C2060 C2062 1.394 . S
C2060 H2076 0.931 . S
C2061 C2060 1.391 . S
C2061 C2065 1.376 1_545 S
C2062 C2060 1.394 . S
C2062 C2063 1.369 . S
C2062 C2066 1.531 . S
C2063 C2062 1.369 . S
C2063 C2064 1.410 1_545 S
C2063 C2071 1.503 . S
C2064 C2063 1.410 1_565 S
C2064 C2065 1.392 . S
C2064 C2067 1.511 . S
C2065 C2061 1.376 1_565 S
C2065 C2064 1.392 . S
C2065 H2077 0.929 . S
C2066 C2062 1.531 . S
C2066 H2078 0.960 . S
C2066 H2079 0.962 . S
C2066 H2080 0.960 . S
C2067 C2064 1.511 . S
C2067 H2081 0.961 . S
C2067 H2082 0.961 . S
C2067 H2083 0.980 . S
C2068 C2069 1.370 1_565 S
C2068 C2070 1.363 . S
C2068 H2084 0.931 . S
C2069 C2068 1.370 1_545 S
C2069 C2073 1.408 . S
C2070 C2068 1.363 . S
C2070 C2071 1.370 1_565 S
C2070 C2074 1.524 . S
C2071 C2063 1.503 . S
C2071 C2070 1.370 1_545 S
C2071 C2072 1.403 . S
C2072 C2071 1.403 . S
C2072 C2073 1.404 . S
C2072 C2075 1.539 . S
C2073 C2069 1.408 . S
C2073 C2072 1.404 . S
C2073 H2085 0.930 . S
C2074 C2070 1.524 . S
C2074 H2086 0.956 . S
C2074 H2087 0.961 . S
C2074 H2088 0.961 . S
C2075 C2072 1.539 . S
C2075 H2089 0.958 . S
C2075 H2090 0.961 . S
C2075 H2091 0.960 . S
H2076 C2060 0.931 . S
H2077 C2065 0.929 . S
H2078 C2066 0.960 . S
H2079 C2066 0.962 . S
H2080 C2066 0.960 . S
H2081 C2067 0.961 . S
H2082 C2067 0.961 . S
H2083 C2067 0.980 . S
H2084 C2068 0.931 . S
H2085 C2073 0.930 . S
H2086 C2074 0.956 . S
H2087 C2074 0.961 . S
H2088 C2074 0.961 . S
H2089 C2075 0.958 . S
H2090 C2075 0.961 . S
H2091 C2075 0.960 . S
C2092 C2093 1.391 1_565 S
C2092 C2094 1.394 . S
C2092 H2108 0.931 . S
C2093 C2092 1.391 1_545 S
C2093 C2097 1.376 . S
C2094 C2092 1.394 . S
C2094 C2095 1.369 1_565 S
C2094 C2098 1.531 . S
C2095 C2094 1.369 1_545 S
C2095 C2096 1.410 . S
C2095 C2103 1.503 . S
C2096 C2095 1.410 . S
C2096 C2097 1.392 . S
C2096 C2099 1.511 . S
C2097 C2093 1.376 . S
C2097 C2096 1.392 . S
C2097 H2109 0.929 . S
C2098 C2094 1.531 . S
C2098 H2110 0.960 . S
C2098 H2111 0.962 . S
C2098 H2112 0.960 . S
C2099 C2096 1.511 . S
C2099 H2113 0.961 . S
C2099 H2114 0.961 . S
C2099 H2115 0.961 . S
C2100 C2101 1.370 1_565 S
C2100 C2102 1.363 . S
C2100 H2116 0.931 . S
C2101 C2100 1.370 1_545 S
C2101 C2105 1.408 . S
C2102 C2100 1.363 . S
C2102 C2103 1.370 1_565 S
C2102 C2106 1.524 . S
C2103 C2095 1.503 . S
C2103 C2102 1.370 1_545 S
C2103 C2104 1.403 . S
C2104 C2103 1.403 . S
C2104 C2105 1.404 . S
C2104 C2107 1.539 . S
C2105 C2101 1.408 . S
C2105 C2104 1.404 . S
C2105 H2117 0.930 . S
C2106 C2102 1.524 . S
C2106 H2118 0.956 . S
C2106 H2119 0.980 . S
C2106 H2120 0.961 . S
C2107 C2104 1.539 . S
C2107 H2121 0.958 . S
C2107 H2122 0.961 . S
C2107 H2123 0.960 . S
H2108 C2092 0.931 . S
H2109 C2097 0.929 . S
H2110 C2098 0.960 . S
H2111 C2098 0.962 . S
H2112 C2098 0.960 . S
H2113 C2099 0.961 . S
H2114 C2099 0.961 . S
H2115 C2099 0.961 . S
H2116 C2100 0.931 . S
H2117 C2105 0.930 . S
H2118 C2106 0.956 . S
H2119 C2106 0.980 . S
H2120 C2106 0.961 . S
H2121 C2107 0.958 . S
H2122 C2107 0.961 . S
H2123 C2107 0.960 . S
C2124 C2125 1.391 1_655 S
C2124 C2126 1.394 . S
C2124 H2140 0.931 . S
C2125 C2124 1.391 1_455 S
C2125 C2129 1.376 . S
C2126 C2124 1.394 . S
C2126 C2127 1.369 1_655 S
C2126 C2130 1.531 . S
C2127 C2126 1.369 1_455 S
C2127 C2128 1.410 . S
C2127 C2135 1.503 . S
C2128 C2127 1.410 . S
C2128 C2129 1.392 . S
C2128 C2131 1.511 . S
C2129 C2125 1.376 . S
C2129 C2128 1.392 . S
C2129 H2141 0.929 . S
C2130 C2126 1.531 . S
C2130 H2142 0.960 . S
C2130 H2143 0.962 . S
C2130 H2144 0.960 . S
C2131 C2128 1.511 . S
C2131 H2145 0.961 . S
C2131 H2146 0.961 . S
C2131 H2147 0.961 . S
C2132 C2133 1.370 1_655 S
C2132 C2134 1.363 . S
C2132 H2148 0.931 . S
C2133 C2132 1.370 1_455 S
C2133 C2137 1.408 . S
C2134 C2132 1.363 . S
C2134 C2135 1.370 1_655 S
C2134 C2138 1.524 . S
C2135 C2127 1.503 . S
C2135 C2134 1.370 1_455 S
C2135 C2136 1.403 . S
C2136 C2135 1.403 . S
C2136 C2137 1.404 . S
C2136 C2139 1.539 . S
C2137 C2133 1.408 . S
C2137 C2136 1.404 . S
C2137 H2149 0.930 . S
C2138 C2134 1.524 . S
C2138 H2150 0.956 . S
C2138 H2151 0.961 . S
C2138 H2152 0.961 . S
C2139 C2136 1.539 . S
C2139 H2153 0.958 . S
C2139 H2154 0.961 . S
C2139 H2155 0.960 . S
H2140 C2124 0.931 . S
H2141 C2129 0.929 . S
H2142 C2130 0.960 . S
H2143 C2130 0.962 . S
H2144 C2130 0.960 . S
H2145 C2131 0.961 . S
H2146 C2131 0.961 . S
H2147 C2131 0.961 . S
H2148 C2132 0.931 . S
H2149 C2137 0.930 . S
H2150 C2138 0.956 . S
H2151 C2138 0.961 . S
H2152 C2138 0.961 . S
H2153 C2139 0.958 . S
H2154 C2139 0.961 . S
H2155 C2139 0.960 . S
C2156 C2157 1.388 1_545 S
C2156 C2158 1.391 1_545 S
C2156 H2172 0.936 . S
C2157 C2156 1.388 1_565 S
C2157 C2161 1.384 . S
C2158 C2156 1.391 1_565 S
C2158 C2159 1.375 . S
C2158 C2162 1.528 1_565 S
C2159 C2158 1.375 . S
C2159 C2160 1.410 . S
C2159 C2167 1.503 . S
C2160 C2159 1.410 . S
C2160 C2161 1.392 . S
C2160 C2163 1.511 . S
C2161 C2157 1.384 . S
C2161 C2160 1.392 . S
C2161 H2173 0.929 . S
C2162 C2158 1.528 1_545 S
C2162 H2174 0.960 1_545 S
C2162 H2175 0.962 . S
C2162 H2176 0.960 1_545 S
C2163 C2160 1.511 . S
C2163 H2177 0.961 . S
C2163 H2178 0.961 . S
C2163 H2179 0.961 . S
C2164 C2165 1.389 . S
C2164 C2166 1.363 . S
C2164 H2180 0.931 . S
C2165 C2164 1.389 . S
C2165 C2169 1.387 1_545 S
C2166 C2164 1.363 . S
C2166 C2167 1.370 1_545 S
C2166 C2170 1.524 . S
C2167 C2159 1.503 . S
C2167 C2166 1.370 1_565 S
C2167 C2168 1.403 . S
C2168 C2167 1.403 . S
C2168 C2169 1.404 . S
C2168 C2171 1.539 . S
C2169 C2165 1.387 1_565 S
C2169 C2168 1.404 . S
C2169 H2181 0.930 . S
C2170 C2166 1.524 . S
C2170 H2182 0.956 . S
C2170 H2183 0.961 . S
C2170 H2184 0.961 . S
C2171 C2168 1.539 . S
C2171 H2185 0.958 . S
C2171 H2186 0.961 . S
C2171 H2187 0.960 . S
H2172 C2156 0.936 . S
H2173 C2161 0.929 . S
H2174 C2162 0.960 1_565 S
H2175 C2162 0.962 . S
H2176 C2162 0.960 1_565 S
H2177 C2163 0.961 . S
H2178 C2163 0.961 . S
H2179 C2163 0.961 . S
H2180 C2164 0.931 . S
H2181 C2169 0.930 . S
H2182 C2170 0.956 . S
H2183 C2170 0.961 . S
H2184 C2170 0.961 . S
H2185 C2171 0.958 . S
H2186 C2171 0.961 . S
H2187 C2171 0.960 . S
C2188 C2189 1.391 1_655 S
C2188 C2190 1.394 . S
C2188 H2204 0.931 . S
C2189 C2188 1.391 1_455 S
C2189 C2193 1.376 . S
C2190 C2188 1.394 . S
C2190 C2191 1.369 1_655 S
C2190 C2194 1.531 . S
C2191 C2190 1.369 1_455 S
C2191 C2192 1.410 . S
C2191 C2199 1.503 . S
C2192 C2191 1.410 . S
C2192 C2193 1.392 . S
C2192 C2195 1.511 . S
C2193 C2189 1.376 . S
C2193 C2192 1.392 . S
C2193 H2205 0.929 . S
C2194 C2190 1.531 . S
C2194 H2206 0.960 . S
C2194 H2207 0.962 . S
C2194 H2208 0.960 . S
C2195 C2192 1.511 . S
C2195 H2209 0.961 . S
C2195 H2210 0.961 . S
C2195 H2211 0.961 . S
C2196 C2197 1.370 1_655 S
C2196 C2198 1.363 . S
C2196 H2212 0.931 . S
C2197 C2196 1.370 1_455 S
C2197 C2201 1.408 . S
C2198 C2196 1.363 . S
C2198 C2199 1.370 1_655 S
C2198 C2202 1.524 . S
C2199 C2191 1.503 . S
C2199 C2198 1.370 1_455 S
C2199 C2200 1.403 . S
C2200 C2199 1.403 . S
C2200 C2201 1.404 . S
C2200 C2203 1.539 . S
C2201 C2197 1.408 . S
C2201 C2200 1.404 . S
C2201 H2213 0.930 . S
C2202 C2198 1.524 . S
C2202 H2214 0.956 . S
C2202 H2215 0.961 . S
C2202 H2216 0.961 . S
C2203 C2200 1.539 . S
C2203 H2217 0.958 . S
C2203 H2218 0.961 . S
C2203 H2219 0.960 . S
H2204 C2188 0.931 . S
H2205 C2193 0.929 . S
H2206 C2194 0.960 . S
H2207 C2194 0.962 . S
H2208 C2194 0.960 . S
H2209 C2195 0.961 . S
H2210 C2195 0.961 . S
H2211 C2195 0.961 . S
H2212 C2196 0.931 . S
H2213 C2201 0.930 . S
H2214 C2202 0.956 . S
H2215 C2202 0.961 . S
H2216 C2202 0.961 . S
H2217 C2203 0.958 . S
H2218 C2203 0.961 . S
H2219 C2203 0.960 . S
C2220 C2221 1.391 . S
C2220 C2222 1.394 . S
C2220 H2236 0.931 . S
C2221 C2220 1.391 . S
C2221 C2225 1.376 . S
C2222 C2220 1.394 . S
C2222 C2223 1.369 . S
C2222 C2226 1.531 . S
C2223 C2222 1.369 . S
C2223 C2224 1.410 . S
C2223 C2231 1.503 . S
C2224 C2223 1.410 . S
C2224 C2225 1.392 . S
C2224 C2227 1.511 . S
C2225 C2221 1.376 . S
C2225 C2224 1.392 . S
C2225 H2237 0.929 . S
C2226 C2222 1.531 . S
C2226 H2238 0.960 . S
C2226 H2239 0.962 1_545 S
C2226 H2240 0.960 . S
C2227 C2224 1.511 . S
C2227 H2241 0.961 . S
C2227 H2242 0.961 . S
C2227 H2243 0.961 . S
C2228 C2229 1.370 1_565 S
C2228 C2230 1.363 . S
C2228 H2244 0.931 . S
C2229 C2228 1.370 1_545 S
C2229 C2233 1.408 . S
C2230 C2228 1.363 . S
C2230 C2231 1.370 1_565 S
C2230 C2234 1.524 . S
C2231 C2223 1.503 . S
C2231 C2230 1.370 1_545 S
C2231 C2232 1.403 . S
C2232 C2231 1.403 . S
C2232 C2233 1.404 . S
C2232 C2235 1.539 . S
C2233 C2229 1.408 . S
C2233 C2232 1.404 . S
C2233 H2245 0.930 . S
C2234 C2230 1.524 . S
C2234 H2246 0.956 . S
C2234 H2247 0.961 . S
C2234 H2248 0.961 . S
C2235 C2232 1.539 . S
C2235 H2249 0.958 . S
C2235 H2250 0.961 . S
C2235 H2251 0.960 . S
H2236 C2220 0.931 . S
H2237 C2225 0.929 . S
H2238 C2226 0.960 . S
H2239 C2226 0.962 1_565 S
H2240 C2226 0.960 . S
H2241 C2227 0.961 . S
H2242 C2227 0.961 . S
H2243 C2227 0.961 . S
H2244 C2228 0.931 . S
H2245 C2233 0.930 . S
H2246 C2234 0.956 . S
H2247 C2234 0.961 . S
H2248 C2234 0.961 . S
H2249 C2235 0.958 . S
H2250 C2235 0.961 . S
H2251 C2235 0.960 . S
C2252 C2253 1.399 . S
C2252 C2254 1.394 . S
C2252 H2268 0.931 . S
C2253 C2252 1.399 . S
C2253 C2257 1.367 1_455 S
C2254 C2252 1.394 . S
C2254 C2255 1.369 1_455 S
C2254 C2258 1.531 . S
C2255 C2254 1.369 1_655 S
C2255 C2256 1.410 . S
C2255 C2263 1.503 . S
C2256 C2255 1.410 . S
C2256 C2257 1.392 . S
C2256 C2259 1.511 . S
C2257 C2253 1.367 1_655 S
C2257 C2256 1.392 . S
C2257 H2269 0.929 . S
C2258 C2254 1.531 . S
C2258 H2270 0.960 . S
C2258 H2271 0.962 . S
C2258 H2272 0.960 . S
C2259 C2256 1.511 . S
C2259 H2273 0.961 . S
C2259 H2274 0.961 . S
C2259 H2275 0.961 . S
C2260 C2261 1.385 . S
C2260 C2262 1.363 . S
C2260 H2276 0.931 . S
C2261 C2260 1.385 . S
C2261 C2265 1.393 1_455 S
C2262 C2260 1.363 . S
C2262 C2263 1.370 1_455 S
C2262 C2266 1.524 . S
C2263 C2255 1.503 . S
C2263 C2262 1.370 1_655 S
C2263 C2264 1.403 . S
C2264 C2263 1.403 . S
C2264 C2265 1.404 . S
C2264 C2267 1.539 . S
C2265 C2261 1.393 1_655 S
C2265 C2264 1.404 . S
C2265 H2277 0.930 . S
C2266 C2262 1.524 . S
C2266 H2278 0.956 . S
C2266 H2279 0.961 . S
C2266 H2280 0.961 . S
C2267 C2264 1.539 . S
C2267 H2281 0.958 . S
C2267 H2282 0.961 . S
C2267 H2283 0.960 . S
H2268 C2252 0.931 . S
H2269 C2257 0.929 . S
H2270 C2258 0.960 . S
H2271 C2258 0.962 . S
H2272 C2258 0.960 . S
H2273 C2259 0.961 . S
H2274 C2259 0.961 . S
H2275 C2259 0.961 . S
H2276 C2260 0.931 . S
H2277 C2265 0.930 . S
H2278 C2266 0.956 . S
H2279 C2266 0.961 . S
H2280 C2266 0.961 . S
H2281 C2267 0.958 . S
H2282 C2267 0.961 . S
H2283 C2267 0.960 . S
C2284 C2285 1.391 . S
C2284 C2286 1.394 . S
C2284 H2300 0.931 . S
C2285 C2284 1.391 . S
C2285 C2289 1.376 1_545 S
C2286 C2284 1.394 . S
C2286 C2287 1.369 . S
C2286 C2290 1.531 . S
C2287 C2286 1.369 . S
C2287 C2288 1.410 1_545 S
C2287 C2295 1.503 . S
C2288 C2287 1.410 1_565 S
C2288 C2289 1.392 . S
C2288 C2291 1.511 . S
C2289 C2285 1.376 1_565 S
C2289 C2288 1.392 . S
C2289 H2301 0.929 . S
C2290 C2286 1.531 . S
C2290 H2302 0.960 . S
C2290 H2303 0.962 . S
C2290 H2304 0.960 . S
C2291 C2288 1.511 . S
C2291 H2305 0.961 . S
C2291 H2306 0.961 . S
C2291 H2307 0.961 . S
C2292 C2293 1.370 1_565 S
C2292 C2294 1.363 . S
C2292 H2308 0.931 . S
C2293 C2292 1.370 1_545 S
C2293 C2297 1.408 . S
C2294 C2292 1.363 . S
C2294 C2295 1.370 1_565 S
C2294 C2298 1.524 . S
C2295 C2287 1.503 . S
C2295 C2294 1.370 1_545 S
C2295 C2296 1.403 . S
C2296 C2295 1.403 . S
C2296 C2297 1.404 . S
C2296 C2299 1.539 . S
C2297 C2293 1.408 . S
C2297 C2296 1.404 . S
C2297 H2309 0.930 . S
C2298 C2294 1.524 . S
C2298 H2310 0.956 . S
C2298 H2311 0.961 . S
C2298 H2312 0.961 . S
C2299 C2296 1.539 . S
C2299 H2313 0.958 . S
C2299 H2314 0.961 . S
C2299 H2315 0.960 . S
H2300 C2284 0.931 . S
H2301 C2289 0.929 . S
H2302 C2290 0.960 . S
H2303 C2290 0.962 . S
H2304 C2290 0.960 . S
H2305 C2291 0.961 . S
H2306 C2291 0.961 . S
H2307 C2291 0.961 . S
H2308 C2292 0.931 . S
H2309 C2297 0.930 . S
H2310 C2298 0.956 . S
H2311 C2298 0.961 . S
H2312 C2298 0.961 . S
H2313 C2299 0.958 . S
H2314 C2299 0.961 . S
H2315 C2299 0.960 . S
C2316 C2317 1.391 1_655 S
C2316 C2318 1.394 . S
C2316 H2332 0.931 . S
C2317 C2316 1.391 1_455 S
C2317 C2321 1.376 . S
C2318 C2316 1.394 . S
C2318 C2319 1.369 1_655 S
C2318 C2322 1.531 . S
C2319 C2318 1.369 1_455 S
C2319 C2320 1.410 . S
C2319 C2327 1.503 . S
C2320 C2319 1.410 . S
C2320 C2321 1.392 . S
C2320 C2323 1.511 . S
C2321 C2317 1.376 . S
C2321 C2320 1.392 . S
C2321 H2333 0.929 . S
C2322 C2318 1.531 . S
C2322 H2334 0.960 . S
C2322 H2335 0.962 . S
C2322 H2336 0.960 . S
C2323 C2320 1.511 . S
C2323 H2337 0.961 . S
C2323 H2338 0.961 . S
C2323 H2339 0.961 . S
C2324 C2325 1.370 1_655 S
C2324 C2326 1.363 . S
C2324 H2340 0.931 . S
C2325 C2324 1.370 1_455 S
C2325 C2329 1.408 . S
C2326 C2324 1.363 . S
C2326 C2327 1.370 1_655 S
C2326 C2330 1.524 . S
C2327 C2319 1.503 . S
C2327 C2326 1.370 1_455 S
C2327 C2328 1.403 . S
C2328 C2327 1.403 . S
C2328 C2329 1.404 . S
C2328 C2331 1.539 . S
C2329 C2325 1.408 . S
C2329 C2328 1.404 . S
C2329 H2341 0.930 . S
C2330 C2326 1.524 . S
C2330 H2342 0.956 . S
C2330 H2343 0.961 . S
C2330 H2344 0.961 . S
C2331 C2328 1.539 . S
C2331 H2345 0.958 . S
C2331 H2346 0.961 . S
C2331 H2347 0.960 . S
H2332 C2316 0.931 . S
H2333 C2321 0.929 . S
H2334 C2322 0.960 . S
H2335 C2322 0.962 . S
H2336 C2322 0.960 . S
H2337 C2323 0.961 . S
H2338 C2323 0.961 . S
H2339 C2323 0.961 . S
H2340 C2324 0.931 . S
H2341 C2329 0.930 . S
H2342 C2330 0.956 . S
H2343 C2330 0.961 . S
H2344 C2330 0.961 . S
H2345 C2331 0.958 . S
H2346 C2331 0.961 . S
H2347 C2331 0.960 . S
C2348 C2349 1.391 1_554 S
C2348 C2350 1.394 . S
C2348 H2364 0.931 . S
C2349 C2348 1.391 1_556 S
C2349 C2353 1.376 . S
C2350 C2348 1.394 . S
C2350 C2351 1.369 1_554 S
C2350 C2354 1.531 . S
C2351 C2350 1.369 1_556 S
C2351 C2352 1.410 . S
C2351 C2359 1.503 . S
C2352 C2351 1.410 . S
C2352 C2353 1.392 . S
C2352 C2355 1.511 . S
C2353 C2349 1.376 . S
C2353 C2352 1.392 . S
C2353 H2365 0.929 . S
C2354 C2350 1.531 . S
C2354 H2366 0.960 . S
C2354 H2367 0.962 . S
C2354 H2368 0.960 . S
C2355 C2352 1.511 . S
C2355 H2369 0.961 . S
C2355 H2370 0.961 . S
C2355 H2371 0.961 . S
C2356 C2357 1.363 1_554 S
C2356 C2358 1.363 . S
C2356 H2372 0.931 . S
C2357 C2356 1.363 1_556 S
C2357 C2361 1.416 . S
C2358 C2356 1.363 . S
C2358 C2359 1.370 1_554 S
C2358 C2362 1.524 . S
C2359 C2351 1.503 . S
C2359 C2358 1.370 1_556 S
C2359 C2360 1.403 . S
C2360 C2359 1.403 . S
C2360 C2361 1.404 . S
C2360 C2363 1.539 . S
C2361 C2357 1.416 . S
C2361 C2360 1.404 . S
C2361 H2373 0.930 . S
C2362 C2358 1.524 . S
C2362 H2374 0.956 . S
C2362 H2375 0.961 . S
C2362 H2376 0.961 . S
C2363 C2360 1.539 . S
C2363 H2377 0.958 . S
C2363 H2378 0.961 . S
C2363 H2379 0.960 . S
H2364 C2348 0.931 . S
H2365 C2353 0.929 . S
H2366 C2354 0.960 . S
H2367 C2354 0.962 . S
H2368 C2354 0.960 . S
H2369 C2355 0.961 . S
H2370 C2355 0.961 . S
H2371 C2355 0.961 . S
H2372 C2356 0.931 . S
H2373 C2361 0.930 . S
H2374 C2362 0.956 . S
H2375 C2362 0.961 . S
H2376 C2362 0.961 . S
H2377 C2363 0.958 . S
H2378 C2363 0.961 . S
H2379 C2363 0.960 . S
C2380 C2381 1.391 1_554 S
C2380 C2382 1.394 . S
C2380 H2396 0.931 . S
C2381 C2380 1.391 1_556 S
C2381 C2385 1.376 . S
C2382 C2380 1.394 . S
C2382 C2383 1.369 1_554 S
C2382 C2386 1.531 . S
C2383 C2382 1.369 1_556 S
C2383 C2384 1.410 . S
C2383 C2391 1.503 . S
C2384 C2383 1.410 . S
C2384 C2385 1.392 . S
C2384 C2387 1.511 . S
C2385 C2381 1.376 . S
C2385 C2384 1.392 . S
C2385 H2397 0.929 . S
C2386 C2382 1.531 . S
C2386 H2398 0.960 . S
C2386 H2399 0.962 . S
C2386 H2400 0.960 . S
C2387 C2384 1.511 . S
C2387 H2401 0.961 . S
C2387 H2402 0.961 . S
C2387 H2403 0.961 . S
C2388 C2389 1.364 1_554 S
C2388 C2390 1.363 . S
C2388 H2404 0.931 . S
C2389 C2388 1.364 1_556 S
C2389 C2393 1.415 . S
C2390 C2388 1.363 . S
C2390 C2391 1.370 1_554 S
C2390 C2394 1.524 . S
C2391 C2383 1.503 . S
C2391 C2390 1.370 1_556 S
C2391 C2392 1.403 . S
C2392 C2391 1.403 . S
C2392 C2393 1.404 . S
C2392 C2395 1.539 . S
C2393 C2389 1.415 . S
C2393 C2392 1.404 . S
C2393 H2405 0.930 . S
C2394 C2390 1.524 . S
C2394 H2406 0.956 . S
C2394 H2407 0.961 . S
C2394 H2408 0.961 . S
C2395 C2392 1.539 . S
C2395 H2409 0.958 . S
C2395 H2410 0.961 . S
C2395 H2411 0.960 . S
H2396 C2380 0.931 . S
H2397 C2385 0.929 . S
H2398 C2386 0.960 . S
H2399 C2386 0.962 . S
H2400 C2386 0.960 . S
H2401 C2387 0.961 . S
H2402 C2387 0.961 . S
H2403 C2387 0.961 . S
H2404 C2388 0.931 . S
H2405 C2393 0.930 . S
H2406 C2394 0.956 . S
H2407 C2394 0.961 . S
H2408 C2394 0.961 . S
H2409 C2395 0.958 . S
H2410 C2395 0.961 . S
H2411 C2395 0.960 . S
C2412 C2413 1.391 . S
C2412 C2414 1.394 . S
C2412 H2428 0.931 . S
C2413 C2412 1.391 . S
C2413 C2417 1.376 1_556 S
C2414 C2412 1.394 . S
C2414 C2415 1.369 . S
C2414 C2418 1.531 . S
C2415 C2414 1.369 . S
C2415 C2416 1.410 1_556 S
C2415 C2423 1.503 . S
C2416 C2415 1.410 1_554 S
C2416 C2417 1.392 . S
C2416 C2419 1.511 . S
C2417 C2413 1.376 1_554 S
C2417 C2416 1.392 . S
C2417 H2429 0.929 . S
C2418 C2414 1.531 . S
C2418 H2430 0.960 . S
C2418 H2431 0.962 . S
C2418 H2432 0.960 . S
C2419 C2416 1.511 . S
C2419 H2433 0.961 . S
C2419 H2434 0.961 . S
C2419 H2435 0.961 . S
C2420 C2421 1.353 1_554 S
C2420 C2422 1.363 . S
C2420 H2436 0.931 . S
C2421 C2420 1.353 1_556 S
C2421 C2425 1.428 . S
C2422 C2420 1.363 . S
C2422 C2423 1.370 1_554 S
C2422 C2426 1.524 . S
C2423 C2415 1.503 . S
C2423 C2422 1.370 1_556 S
C2423 C2424 1.403 . S
C2424 C2423 1.403 . S
C2424 C2425 1.404 . S
C2424 C2427 1.539 . S
C2425 C2421 1.428 . S
C2425 C2424 1.404 . S
C2425 H2437 0.930 . S
C2426 C2422 1.524 . S
C2426 H2438 0.956 . S
C2426 H2439 0.961 . S
C2426 H2440 0.961 . S
C2427 C2424 1.539 . S
C2427 H2441 0.958 . S
C2427 H2442 0.961 . S
C2427 H2443 0.960 . S
H2428 C2412 0.931 . S
H2429 C2417 0.929 . S
H2430 C2418 0.960 . S
H2431 C2418 0.962 . S
H2432 C2418 0.960 . S
H2433 C2419 0.961 . S
H2434 C2419 0.961 . S
H2435 C2419 0.961 . S
H2436 C2420 0.931 . S
H2437 C2425 0.930 . S
H2438 C2426 0.956 . S
H2439 C2426 0.961 . S
H2440 C2426 0.961 . S
H2441 C2427 0.958 . S
H2442 C2427 0.961 . S
H2443 C2427 0.960 . S
C2444 C2445 1.391 . S
C2444 C2446 1.394 . S
C2444 H2460 0.931 . S
C2445 C2444 1.391 . S
C2445 C2449 1.376 1_554 S
C2446 C2444 1.394 . S
C2446 C2447 1.369 . S
C2446 C2450 1.531 . S
C2447 C2446 1.369 . S
C2447 C2448 1.410 1_554 S
C2447 C2455 1.503 . S
C2448 C2447 1.410 1_556 S
C2448 C2449 1.392 . S
C2448 C2451 1.511 . S
C2449 C2445 1.376 1_556 S
C2449 C2448 1.392 . S
C2449 H2461 0.929 . S
C2450 C2446 1.531 . S
C2450 H2462 0.960 . S
C2450 H2463 0.962 . S
C2450 H2464 0.960 . S
C2451 C2448 1.511 . S
C2451 H2465 0.961 . S
C2451 H2466 0.961 . S
C2451 H2467 0.961 . S
C2452 C2453 1.346 1_556 S
C2452 C2454 1.363 . S
C2452 H2468 0.931 . S
C2453 C2452 1.346 1_554 S
C2453 C2457 1.437 . S
C2454 C2452 1.363 . S
C2454 C2455 1.370 1_556 S
C2454 C2458 1.524 . S
C2455 C2447 1.503 . S
C2455 C2454 1.370 1_554 S
C2455 C2456 1.403 . S
C2456 C2455 1.403 . S
C2456 C2457 1.404 . S
C2456 C2459 1.539 . S
C2457 C2453 1.437 . S
C2457 C2456 1.404 . S
C2457 H2469 0.930 . S
C2458 C2454 1.524 . S
C2458 H2470 0.956 . S
C2458 H2471 0.961 . S
C2458 H2472 0.961 . S
C2459 C2456 1.539 . S
C2459 H2473 0.958 . S
C2459 H2474 0.961 . S
C2459 H2475 0.960 . S
H2460 C2444 0.931 . S
H2461 C2449 0.929 . S
H2462 C2450 0.960 . S
H2463 C2450 0.962 . S
H2464 C2450 0.960 . S
H2465 C2451 0.961 . S
H2466 C2451 0.961 . S
H2467 C2451 0.961 . S
H2468 C2452 0.931 . S
H2469 C2457 0.930 . S
H2470 C2458 0.956 . S
H2471 C2458 0.961 . S
H2472 C2458 0.961 . S
H2473 C2459 0.958 . S
H2474 C2459 0.961 . S
H2475 C2459 0.960 . S
C2476 C2477 1.391 . S
C2476 C2478 1.394 . S
C2476 H2492 0.931 . S
C2477 C2476 1.391 . S
C2477 C2481 1.374 1_556 S
C2478 C2476 1.394 . S
C2478 C2479 1.369 . S
C2478 C2482 1.531 . S
C2479 C2478 1.369 . S
C2479 C2480 1.410 . S
C2479 C2487 1.503 . S
C2480 C2479 1.410 . S
C2480 C2481 1.391 1_556 S
C2480 C2483 1.511 1_556 S
C2481 C2477 1.374 1_554 S
C2481 C2480 1.391 1_554 S
C2481 H2493 0.933 . S
C2482 C2478 1.531 . S
C2482 H2494 0.960 . S
C2482 H2495 0.962 1_556 S
C2482 H2496 0.960 . S
C2483 C2480 1.511 1_554 S
C2483 H2497 0.961 . S
C2483 H2498 0.961 . S
C2483 H2499 0.961 1_554 S
C2484 C2485 1.341 1_554 S
C2484 C2486 1.363 . S
C2484 H2500 0.931 . S
C2485 C2484 1.341 1_556 S
C2485 C2489 1.441 . S
C2486 C2484 1.363 . S
C2486 C2487 1.370 1_554 S
C2486 C2490 1.524 . S
C2487 C2479 1.503 . S
C2487 C2486 1.370 1_556 S
C2487 C2488 1.403 . S
C2488 C2487 1.403 . S
C2488 C2489 1.404 . S
C2488 C2491 1.539 . S
C2489 C2485 1.441 . S
C2489 C2488 1.404 . S
C2489 H2501 0.930 . S
C2490 C2486 1.524 . S
C2490 H2502 0.956 . S
C2490 H2503 0.961 . S
C2490 H2504 0.961 . S
C2491 C2488 1.539 . S
C2491 H2505 0.958 . S
C2491 H2506 0.961 . S
C2491 H2507 0.960 . S
H2492 C2476 0.931 . S
H2493 C2481 0.933 . S
H2494 C2482 0.960 . S
H2495 C2482 0.962 1_554 S
H2496 C2482 0.960 . S
H2497 C2483 0.961 . S
H2498 C2483 0.961 . S
H2499 C2483 0.961 1_556 S
H2500 C2484 0.931 . S
H2501 C2489 0.930 . S
H2502 C2490 0.956 . S
H2503 C2490 0.961 . S
H2504 C2490 0.961 . S
H2505 C2491 0.958 . S
H2506 C2491 0.961 . S
H2507 C2491 0.960 . S
C2508 C2509 1.391 . S
C2508 C2510 1.394 . S
C2508 H2524 0.931 . S
C2509 C2508 1.391 . S
C2509 C2513 1.376 1_554 S
C2510 C2508 1.394 . S
C2510 C2511 1.369 . S
C2510 C2514 1.531 . S
C2511 C2510 1.369 . S
C2511 C2512 1.410 1_554 S
C2511 C2519 1.503 . S
C2512 C2511 1.410 1_556 S
C2512 C2513 1.392 . S
C2512 C2515 1.511 . S
C2513 C2509 1.376 1_556 S
C2513 C2512 1.392 . S
C2513 H2525 0.929 . S
C2514 C2510 1.531 . S
C2514 H2526 0.960 . S
C2514 H2527 0.962 . S
C2514 H2528 0.960 . S
C2515 C2512 1.511 . S
C2515 H2529 0.961 . S
C2515 H2530 0.961 . S
C2515 H2531 0.961 1_556 S
C2516 C2517 1.370 1_556 S
C2516 C2518 1.363 . S
C2516 H2532 0.931 . S
C2517 C2516 1.370 1_554 S
C2517 C2521 1.408 . S
C2518 C2516 1.363 . S
C2518 C2519 1.370 1_556 S
C2518 C2522 1.524 . S
C2519 C2511 1.503 . S
C2519 C2518 1.370 1_554 S
C2519 C2520 1.403 . S
C2520 C2519 1.403 . S
C2520 C2521 1.404 . S
C2520 C2523 1.539 . S
C2521 C2517 1.408 . S
C2521 C2520 1.404 . S
C2521 H2533 0.930 . S
C2522 C2518 1.524 . S
C2522 H2534 0.956 . S
C2522 H2535 0.961 . S
C2522 H2536 0.961 . S
C2523 C2520 1.539 . S
C2523 H2537 0.958 . S
C2523 H2538 0.961 . S
C2523 H2539 0.960 . S
H2524 C2508 0.931 . S
H2525 C2513 0.929 . S
H2526 C2514 0.960 . S
H2527 C2514 0.962 . S
H2528 C2514 0.960 . S
H2529 C2515 0.961 . S
H2530 C2515 0.961 . S
H2531 C2515 0.961 1_554 S
H2532 C2516 0.931 . S
H2533 C2521 0.930 . S
H2534 C2522 0.956 . S
H2535 C2522 0.961 . S
H2536 C2522 0.961 . S
H2537 C2523 0.958 . S
H2538 C2523 0.961 . S
H2539 C2523 0.960 . S
C2540 C2541 1.426 . S
C2540 C2542 1.394 . S
C2540 H2556 0.931 . S
C2541 C2540 1.426 . S
C2541 C2545 1.343 1_554 S
C2542 C2540 1.394 . S
C2542 C2543 1.369 . S
C2542 C2546 1.531 . S
C2543 C2542 1.369 . S
C2543 C2544 1.410 1_554 S
C2543 C2551 1.503 . S
C2544 C2543 1.410 1_556 S
C2544 C2545 1.392 . S
C2544 C2547 1.511 . S
C2545 C2541 1.343 1_556 S
C2545 C2544 1.392 . S
C2545 H2557 0.929 . S
C2546 C2542 1.531 . S
C2546 H2558 0.960 . S
C2546 H2559 0.962 . S
C2546 H2560 0.960 . S
C2547 C2544 1.511 . S
C2547 H2561 0.961 . S
C2547 H2562 0.961 . S
C2547 H2563 0.961 . S
C2548 C2549 1.369 1_556 S
C2548 C2550 1.363 . S
C2548 H2564 0.931 . S
C2549 C2548 1.369 1_554 S
C2549 C2553 1.410 . S
C2550 C2548 1.363 . S
C2550 C2551 1.370 1_556 S
C2550 C2554 1.524 . S
C2551 C2543 1.503 . S
C2551 C2550 1.370 1_554 S
C2551 C2552 1.403 . S
C2552 C2551 1.403 . S
C2552 C2553 1.404 . S
C2552 C2555 1.539 . S
C2553 C2549 1.410 . S
C2553 C2552 1.404 . S
C2553 H2565 0.930 . S
C2554 C2550 1.524 . S
C2554 H2566 0.956 1_556 S
C2554 H2567 0.961 . S
C2554 H2568 0.961 . S
C2555 C2552 1.539 . S
C2555 H2569 0.958 . S
C2555 H2570 0.961 . S
C2555 H2571 0.960 . S
H2556 C2540 0.931 . S
H2557 C2545 0.929 . S
H2558 C2546 0.960 . S
H2559 C2546 0.962 . S
H2560 C2546 0.960 . S
H2561 C2547 0.961 . S
H2562 C2547 0.961 . S
H2563 C2547 0.961 . S
H2564 C2548 0.931 . S
H2565 C2553 0.930 . S
H2566 C2554 0.956 1_554 S
H2567 C2554 0.961 . S
H2568 C2554 0.961 . S
H2569 C2555 0.958 . S
H2570 C2555 0.961 . S
H2571 C2555 0.960 . S
C2572 C2573 1.391 . S
C2572 C2574 1.394 . S
C2572 H2588 0.931 . S
C2573 C2572 1.391 . S
C2573 C2577 1.376 . S
C2574 C2572 1.394 . S
C2574 C2575 1.369 . S
C2574 C2578 1.531 . S
C2575 C2574 1.369 . S
C2575 C2576 1.410 . S
C2575 C2583 1.503 . S
C2576 C2575 1.410 . S
C2576 C2577 1.392 . S
C2576 C2579 1.511 . S
C2577 C2573 1.376 . S
C2577 C2576 1.392 . S
C2577 H2589 0.927 1_556 S
C2578 C2574 1.531 . S
C2578 H2590 0.960 . S
C2578 H2591 0.962 1_556 S
C2578 H2592 0.960 . S
C2579 C2576 1.511 . S
C2579 H2593 0.961 1_556 S
C2579 H2594 0.961 1_556 S
C2579 H2595 0.961 . S
C2580 C2581 1.341 1_554 S
C2580 C2582 1.363 . S
C2580 H2596 0.931 . S
C2581 C2580 1.341 1_556 S
C2581 C2585 1.441 . S
C2582 C2580 1.363 . S
C2582 C2583 1.370 1_554 S
C2582 C2586 1.524 . S
C2583 C2575 1.503 . S
C2583 C2582 1.370 1_556 S
C2583 C2584 1.403 . S
C2584 C2583 1.403 . S
C2584 C2585 1.404 . S
C2584 C2587 1.539 . S
C2585 C2581 1.441 . S
C2585 C2584 1.404 . S
C2585 H2597 0.930 . S
C2586 C2582 1.524 . S
C2586 H2598 0.956 . S
C2586 H2599 0.961 . S
C2586 H2600 0.961 . S
C2587 C2584 1.539 . S
C2587 H2601 0.958 . S
C2587 H2602 0.961 . S
C2587 H2603 0.960 . S
H2588 C2572 0.931 . S
H2589 C2577 0.927 1_554 S
H2590 C2578 0.960 . S
H2591 C2578 0.962 1_554 S
H2592 C2578 0.960 . S
H2593 C2579 0.961 1_554 S
H2594 C2579 0.961 1_554 S
H2595 C2579 0.961 . S
H2596 C2580 0.931 . S
H2597 C2585 0.930 . S
H2598 C2586 0.956 . S
H2599 C2586 0.961 . S
H2600 C2586 0.961 . S
H2601 C2587 0.958 . S
H2602 C2587 0.961 . S
H2603 C2587 0.960 . S
C2604 C2605 1.391 . S
C2604 C2606 1.394 . S
C2604 H2620 0.931 . S
C2605 C2604 1.391 . S
C2605 C2609 1.376 . S
C2606 C2604 1.394 . S
C2606 C2607 1.369 . S
C2606 C2610 1.531 . S
C2607 C2606 1.369 . S
C2607 C2608 1.410 . S
C2607 C2615 1.503 . S
C2608 C2607 1.410 . S
C2608 C2609 1.392 . S
C2608 C2611 1.511 . S
C2609 C2605 1.376 . S
C2609 C2608 1.392 . S
C2609 H2621 0.929 . S
C2610 C2606 1.531 . S
C2610 H2622 0.960 . S
C2610 H2623 0.962 . S
C2610 H2624 0.960 . S
C2611 C2608 1.511 . S
C2611 H2625 0.961 . S
C2611 H2626 0.961 . S
C2611 H2627 0.961 . S
C2612 C2613 1.370 . S
C2612 C2614 1.363 . S
C2612 H2628 0.931 . S
C2613 C2612 1.370 . S
C2613 C2617 1.408 . S
C2614 C2612 1.363 . S
C2614 C2615 1.370 . S
C2614 C2618 1.524 . S
C2615 C2607 1.503 . S
C2615 C2614 1.370 . S
C2615 C2616 1.403 . S
C2616 C2615 1.403 . S
C2616 C2617 1.404 . S
C2616 C2619 1.539 . S
C2617 C2613 1.408 . S
C2617 C2616 1.404 . S
C2617 H2629 0.930 . S
C2618 C2614 1.524 . S
C2618 H2630 0.956 . S
C2618 H2631 0.961 . S
C2618 H2632 0.961 . S
C2619 C2616 1.539 . S
C2619 H2633 0.958 . S
C2619 H2634 0.961 . S
C2619 H2635 0.960 . S
H2620 C2604 0.931 . S
H2621 C2609 0.929 . S
H2622 C2610 0.960 . S
H2623 C2610 0.962 . S
H2624 C2610 0.960 . S
H2625 C2611 0.961 . S
H2626 C2611 0.961 . S
H2627 C2611 0.961 . S
H2628 C2612 0.931 . S
H2629 C2617 0.930 . S
H2630 C2618 0.956 . S
H2631 C2618 0.961 . S
H2632 C2618 0.961 . S
H2633 C2619 0.958 . S
H2634 C2619 0.961 . S
H2635 C2619 0.960 . S
C2636 C2637 1.391 . S
C2636 C2638 1.394 . S
C2636 H2652 0.931 . S
C2637 C2636 1.391 . S
C2637 C2641 1.376 . S
C2638 C2636 1.394 . S
C2638 C2639 1.369 . S
C2638 C2642 1.531 . S
C2639 C2638 1.369 . S
C2639 C2640 1.410 . S
C2639 C2647 1.503 . S
C2640 C2639 1.410 . S
C2640 C2641 1.392 . S
C2640 C2643 1.511 . S
C2641 C2637 1.376 . S
C2641 C2640 1.392 . S
C2641 H2653 0.929 . S
C2642 C2638 1.531 . S
C2642 H2654 0.960 . S
C2642 H2655 0.962 . S
C2642 H2656 0.960 . S
C2643 C2640 1.511 . S
C2643 H2657 0.961 . S
C2643 H2658 0.961 . S
C2643 H2659 0.961 . S
C2644 C2645 1.370 . S
C2644 C2646 1.363 . S
C2644 H2660 0.931 . S
C2645 C2644 1.370 . S
C2645 C2649 1.408 . S
C2646 C2644 1.363 . S
C2646 C2647 1.370 . S
C2646 C2650 1.524 . S
C2647 C2639 1.503 . S
C2647 C2646 1.370 . S
C2647 C2648 1.403 . S
C2648 C2647 1.403 . S
C2648 C2649 1.404 . S
C2648 C2651 1.539 . S
C2649 C2645 1.408 . S
C2649 C2648 1.404 . S
C2649 H2661 0.930 . S
C2650 C2646 1.524 . S
C2650 H2662 0.956 . S
C2650 H2663 0.961 . S
C2650 H2664 0.961 . S
C2651 C2648 1.539 . S
C2651 H2665 0.958 . S
C2651 H2666 0.961 . S
C2651 H2667 0.960 . S
H2652 C2636 0.931 . S
H2653 C2641 0.929 . S
H2654 C2642 0.960 . S
H2655 C2642 0.962 . S
H2656 C2642 0.960 . S
H2657 C2643 0.961 . S
H2658 C2643 0.961 . S
H2659 C2643 0.961 . S
H2660 C2644 0.931 . S
H2661 C2649 0.930 . S
H2662 C2650 0.956 . S
H2663 C2650 0.961 . S
H2664 C2650 0.961 . S
H2665 C2651 0.958 . S
H2666 C2651 0.961 . S
H2667 C2651 0.960 . S
C2668 C2669 1.391 . S
C2668 C2670 1.394 . S
C2668 H2684 0.931 . S
C2669 C2668 1.391 . S
C2669 C2673 1.376 . S
C2670 C2668 1.394 . S
C2670 C2671 1.369 . S
C2670 C2674 1.531 . S
C2671 C2670 1.369 . S
C2671 C2672 1.410 . S
C2671 C2679 1.503 . S
C2672 C2671 1.410 . S
C2672 C2673 1.392 . S
C2672 C2675 1.511 . S
C2673 C2669 1.376 . S
C2673 C2672 1.392 . S
C2673 H2685 0.929 . S
C2674 C2670 1.531 . S
C2674 H2686 0.960 . S
C2674 H2687 0.962 . S
C2674 H2688 0.960 . S
C2675 C2672 1.511 . S
C2675 H2689 0.961 . S
C2675 H2690 0.961 . S
C2675 H2691 0.961 . S
C2676 C2677 1.370 . S
C2676 C2678 1.363 . S
C2676 H2692 0.931 . S
C2677 C2676 1.370 . S
C2677 C2681 1.408 . S
C2678 C2676 1.363 . S
C2678 C2679 1.370 . S
C2678 C2682 1.524 . S
C2679 C2671 1.503 . S
C2679 C2678 1.370 . S
C2679 C2680 1.403 . S
C2680 C2679 1.403 . S
C2680 C2681 1.404 . S
C2680 C2683 1.539 . S
C2681 C2677 1.408 . S
C2681 C2680 1.404 . S
C2681 H2693 0.930 . S
C2682 C2678 1.524 . S
C2682 H2694 0.956 . S
C2682 H2695 0.961 . S
C2682 H2696 0.961 . S
C2683 C2680 1.539 . S
C2683 H2697 0.958 . S
C2683 H2698 0.961 . S
C2683 H2699 0.960 . S
H2684 C2668 0.931 . S
H2685 C2673 0.929 . S
H2686 C2674 0.960 . S
H2687 C2674 0.962 . S
H2688 C2674 0.960 . S
H2689 C2675 0.961 . S
H2690 C2675 0.961 . S
H2691 C2675 0.961 . S
H2692 C2676 0.931 . S
H2693 C2681 0.930 . S
H2694 C2682 0.956 . S
H2695 C2682 0.961 . S
H2696 C2682 0.961 . S
H2697 C2683 0.958 . S
H2698 C2683 0.961 . S
H2699 C2683 0.960 . S
C2700 C2701 1.391 . S
C2700 C2702 1.394 . S
C2700 H2716 0.931 . S
C2701 C2700 1.391 . S
C2701 C2705 1.376 . S
C2702 C2700 1.394 . S
C2702 C2703 1.369 . S
C2702 C2706 1.531 . S
C2703 C2702 1.369 . S
C2703 C2704 1.410 . S
C2703 C2711 1.503 . S
C2704 C2703 1.410 . S
C2704 C2705 1.392 . S
C2704 C2707 1.511 . S
C2705 C2701 1.376 . S
C2705 C2704 1.392 . S
C2705 H2717 0.929 . S
C2706 C2702 1.531 . S
C2706 H2718 0.960 . S
C2706 H2719 0.962 . S
C2706 H2720 0.960 . S
C2707 C2704 1.511 . S
C2707 H2721 0.961 . S
C2707 H2722 0.961 . S
C2707 H2723 0.961 . S
C2708 C2709 1.370 . S
C2708 C2710 1.363 . S
C2708 H2724 0.931 . S
C2709 C2708 1.370 . S
C2709 C2713 1.408 . S
C2710 C2708 1.363 . S
C2710 C2711 1.370 . S
C2710 C2714 1.524 . S
C2711 C2703 1.503 . S
C2711 C2710 1.370 . S
C2711 C2712 1.403 . S
C2712 C2711 1.403 . S
C2712 C2713 1.404 . S
C2712 C2715 1.539 . S
C2713 C2709 1.408 . S
C2713 C2712 1.404 . S
C2713 H2725 0.930 . S
C2714 C2710 1.524 . S
C2714 H2726 0.956 . S
C2714 H2727 0.961 . S
C2714 H2728 0.961 . S
C2715 C2712 1.539 . S
C2715 H2729 0.958 . S
C2715 H2730 0.961 . S
C2715 H2731 0.960 . S
H2716 C2700 0.931 . S
H2717 C2705 0.929 . S
H2718 C2706 0.960 . S
H2719 C2706 0.962 . S
H2720 C2706 0.960 . S
H2721 C2707 0.961 . S
H2722 C2707 0.961 . S
H2723 C2707 0.961 . S
H2724 C2708 0.931 . S
H2725 C2713 0.930 . S
H2726 C2714 0.956 . S
H2727 C2714 0.961 . S
H2728 C2714 0.961 . S
H2729 C2715 0.958 . S
H2730 C2715 0.961 . S
H2731 C2715 0.960 . S
C2732 C2733 1.391 . S
C2732 C2734 1.394 . S
C2732 H2748 0.931 . S
C2733 C2732 1.391 . S
C2733 C2737 1.376 . S
C2734 C2732 1.394 . S
C2734 C2735 1.369 . S
C2734 C2738 1.531 . S
C2735 C2734 1.369 . S
C2735 C2736 1.410 . S
C2735 C2743 1.503 . S
C2736 C2735 1.410 . S
C2736 C2737 1.392 . S
C2736 C2739 1.511 . S
C2737 C2733 1.376 . S
C2737 C2736 1.392 . S
C2737 H2749 0.929 . S
C2738 C2734 1.531 . S
C2738 H2750 0.960 . S
C2738 H2751 0.962 . S
C2738 H2752 0.960 . S
C2739 C2736 1.511 . S
C2739 H2753 0.961 . S
C2739 H2754 0.961 . S
C2739 H2755 0.961 . S
C2740 C2741 1.370 . S
C2740 C2742 1.363 . S
C2740 H2756 0.931 . S
C2741 C2740 1.370 . S
C2741 C2745 1.408 . S
C2742 C2740 1.363 . S
C2742 C2743 1.370 . S
C2742 C2746 1.524 . S
C2743 C2735 1.503 . S
C2743 C2742 1.370 . S
C2743 C2744 1.403 . S
C2744 C2743 1.403 . S
C2744 C2745 1.404 . S
C2744 C2747 1.539 . S
C2745 C2741 1.408 . S
C2745 C2744 1.404 . S
C2745 H2757 0.930 . S
C2746 C2742 1.524 . S
C2746 H2758 0.956 . S
C2746 H2759 0.961 . S
C2746 H2760 0.961 . S
C2747 C2744 1.539 . S
C2747 H2761 0.958 . S
C2747 H2762 0.961 . S
C2747 H2763 0.960 . S
H2748 C2732 0.931 . S
H2749 C2737 0.929 . S
H2750 C2738 0.960 . S
H2751 C2738 0.962 . S
H2752 C2738 0.960 . S
H2753 C2739 0.961 . S
H2754 C2739 0.961 . S
H2755 C2739 0.961 . S
H2756 C2740 0.931 . S
H2757 C2745 0.930 . S
H2758 C2746 0.956 . S
H2759 C2746 0.961 . S
H2760 C2746 0.961 . S
H2761 C2747 0.958 . S
H2762 C2747 0.961 . S
H2763 C2747 0.960 . S
C2764 C2765 1.391 . S
C2764 C2766 1.394 . S
C2764 H2780 0.931 . S
C2765 C2764 1.391 . S
C2765 C2769 1.376 . S
C2766 C2764 1.394 . S
C2766 C2767 1.369 . S
C2766 C2770 1.531 . S
C2767 C2766 1.369 . S
C2767 C2768 1.410 . S
C2767 C2775 1.503 . S
C2768 C2767 1.410 . S
C2768 C2769 1.392 . S
C2768 C2771 1.511 . S
C2769 C2765 1.376 . S
C2769 C2768 1.392 . S
C2769 H2781 0.929 . S
C2770 C2766 1.531 . S
C2770 H2782 0.960 . S
C2770 H2783 0.962 . S
C2770 H2784 0.960 . S
C2771 C2768 1.511 . S
C2771 H2785 0.961 . S
C2771 H2786 0.961 . S
C2771 H2787 0.961 . S
C2772 C2773 1.370 . S
C2772 C2774 1.363 . S
C2772 H2788 0.931 . S
C2773 C2772 1.370 . S
C2773 C2777 1.408 . S
C2774 C2772 1.363 . S
C2774 C2775 1.370 . S
C2774 C2778 1.524 . S
C2775 C2767 1.503 . S
C2775 C2774 1.370 . S
C2775 C2776 1.403 . S
C2776 C2775 1.403 . S
C2776 C2777 1.404 . S
C2776 C2779 1.539 . S
C2777 C2773 1.408 . S
C2777 C2776 1.404 . S
C2777 H2789 0.930 . S
C2778 C2774 1.524 . S
C2778 H2790 0.956 . S
C2778 H2791 0.961 . S
C2778 H2792 0.961 . S
C2779 C2776 1.539 . S
C2779 H2793 0.958 . S
C2779 H2794 0.961 . S
C2779 H2795 0.960 . S
H2780 C2764 0.931 . S
H2781 C2769 0.929 . S
H2782 C2770 0.960 . S
H2783 C2770 0.962 . S
H2784 C2770 0.960 . S
H2785 C2771 0.961 . S
H2786 C2771 0.961 . S
H2787 C2771 0.961 . S
H2788 C2772 0.931 . S
H2789 C2777 0.930 . S
H2790 C2778 0.956 . S
H2791 C2778 0.961 . S
H2792 C2778 0.961 . S
H2793 C2779 0.958 . S
H2794 C2779 0.961 . S
H2795 C2779 0.960 . S
C2796 C2797 1.391 . S
C2796 C2798 1.394 . S
C2796 H2812 0.931 . S
C2797 C2796 1.391 . S
C2797 C2801 1.376 . S
C2798 C2796 1.394 . S
C2798 C2799 1.369 . S
C2798 C2802 1.531 . S
C2799 C2798 1.369 . S
C2799 C2800 1.410 . S
C2799 C2807 1.503 . S
C2800 C2799 1.410 . S
C2800 C2801 1.392 . S
C2800 C2803 1.511 . S
C2801 C2797 1.376 . S
C2801 C2800 1.392 . S
C2801 H2813 0.929 . S
C2802 C2798 1.531 . S
C2802 H2814 0.960 . S
C2802 H2815 0.962 . S
C2802 H2816 0.960 . S
C2803 C2800 1.511 . S
C2803 H2817 0.961 . S
C2803 H2818 0.961 . S
C2803 H2819 0.961 . S
C2804 C2805 1.370 . S
C2804 C2806 1.363 . S
C2804 H2820 0.931 . S
C2805 C2804 1.370 . S
C2805 C2809 1.408 . S
C2806 C2804 1.363 . S
C2806 C2807 1.370 . S
C2806 C2810 1.524 . S
C2807 C2799 1.503 . S
C2807 C2806 1.370 . S
C2807 C2808 1.403 . S
C2808 C2807 1.403 . S
C2808 C2809 1.404 . S
C2808 C2811 1.539 . S
C2809 C2805 1.408 . S
C2809 C2808 1.404 . S
C2809 H2821 0.930 . S
C2810 C2806 1.524 . S
C2810 H2822 0.956 . S
C2810 H2823 0.961 . S
C2810 H2824 0.961 . S
C2811 C2808 1.539 . S
C2811 H2825 0.958 . S
C2811 H2826 0.961 . S
C2811 H2827 0.960 . S
H2812 C2796 0.931 . S
H2813 C2801 0.929 . S
H2814 C2802 0.960 . S
H2815 C2802 0.962 . S
H2816 C2802 0.960 . S
H2817 C2803 0.961 . S
H2818 C2803 0.961 . S
H2819 C2803 0.961 . S
H2820 C2804 0.931 . S
H2821 C2809 0.930 . S
H2822 C2810 0.956 . S
H2823 C2810 0.961 . S
H2824 C2810 0.961 . S
H2825 C2811 0.958 . S
H2826 C2811 0.961 . S
H2827 C2811 0.960 . S
C2828 C2829 1.391 . S
C2828 C2830 1.394 . S
C2828 H2844 0.931 . S
C2829 C2828 1.391 . S
C2829 C2833 1.376 . S
C2830 C2828 1.394 . S
C2830 C2831 1.369 . S
C2830 C2834 1.531 . S
C2831 C2830 1.369 . S
C2831 C2832 1.410 . S
C2831 C2839 1.503 . S
C2832 C2831 1.410 . S
C2832 C2833 1.392 . S
C2832 C2835 1.511 . S
C2833 C2829 1.376 . S
C2833 C2832 1.392 . S
C2833 H2845 0.929 . S
C2834 C2830 1.531 . S
C2834 H2846 0.960 . S
C2834 H2847 0.962 . S
C2834 H2848 0.960 . S
C2835 C2832 1.511 . S
C2835 H2849 0.961 . S
C2835 H2850 0.961 . S
C2835 H2851 0.961 . S
C2836 C2837 1.370 . S
C2836 C2838 1.363 . S
C2836 H2852 0.931 . S
C2837 C2836 1.370 . S
C2837 C2841 1.408 . S
C2838 C2836 1.363 . S
C2838 C2839 1.370 . S
C2838 C2842 1.524 . S
C2839 C2831 1.503 . S
C2839 C2838 1.370 . S
C2839 C2840 1.403 . S
C2840 C2839 1.403 . S
C2840 C2841 1.404 . S
C2840 C2843 1.539 . S
C2841 C2837 1.408 . S
C2841 C2840 1.404 . S
C2841 H2853 0.930 . S
C2842 C2838 1.524 . S
C2842 H2854 0.956 . S
C2842 H2855 0.961 . S
C2842 H2856 0.961 . S
C2843 C2840 1.539 . S
C2843 H2857 0.958 . S
C2843 H2858 0.961 . S
C2843 H2859 0.960 . S
H2844 C2828 0.931 . S
H2845 C2833 0.929 . S
H2846 C2834 0.960 . S
H2847 C2834 0.962 . S
H2848 C2834 0.960 . S
H2849 C2835 0.961 . S
H2850 C2835 0.961 . S
H2851 C2835 0.961 . S
H2852 C2836 0.931 . S
H2853 C2841 0.930 . S
H2854 C2842 0.956 . S
H2855 C2842 0.961 . S
H2856 C2842 0.961 . S
H2857 C2843 0.958 . S
H2858 C2843 0.961 . S
H2859 C2843 0.960 . S
C2860 C2861 1.391 . S
C2860 C2862 1.394 . S
C2860 H2876 0.931 . S
C2861 C2860 1.391 . S
C2861 C2865 1.376 . S
C2862 C2860 1.394 . S
C2862 C2863 1.369 . S
C2862 C2866 1.531 . S
C2863 C2862 1.369 . S
C2863 C2864 1.410 . S
C2863 C2871 1.503 . S
C2864 C2863 1.410 . S
C2864 C2865 1.392 . S
C2864 C2867 1.511 . S
C2865 C2861 1.376 . S
C2865 C2864 1.392 . S
C2865 H2877 0.929 . S
C2866 C2862 1.531 . S
C2866 H2878 0.960 . S
C2866 H2879 0.962 . S
C2866 H2880 0.960 . S
C2867 C2864 1.511 . S
C2867 H2881 0.961 . S
C2867 H2882 0.961 . S
C2867 H2883 0.961 . S
C2868 C2869 1.370 . S
C2868 C2870 1.363 . S
C2868 H2884 0.931 . S
C2869 C2868 1.370 . S
C2869 C2873 1.408 . S
C2870 C2868 1.363 . S
C2870 C2871 1.370 . S
C2870 C2874 1.524 . S
C2871 C2863 1.503 . S
C2871 C2870 1.370 . S
C2871 C2872 1.403 . S
C2872 C2871 1.403 . S
C2872 C2873 1.404 . S
C2872 C2875 1.539 . S
C2873 C2869 1.408 . S
C2873 C2872 1.404 . S
C2873 H2885 0.930 . S
C2874 C2870 1.524 . S
C2874 H2886 0.956 . S
C2874 H2887 0.961 . S
C2874 H2888 0.961 . S
C2875 C2872 1.539 . S
C2875 H2889 0.958 . S
C2875 H2890 0.961 . S
C2875 H2891 0.960 . S
H2876 C2860 0.931 . S
H2877 C2865 0.929 . S
H2878 C2866 0.960 . S
H2879 C2866 0.962 . S
H2880 C2866 0.960 . S
H2881 C2867 0.961 . S
H2882 C2867 0.961 . S
H2883 C2867 0.961 . S
H2884 C2868 0.931 . S
H2885 C2873 0.930 . S
H2886 C2874 0.956 . S
H2887 C2874 0.961 . S
H2888 C2874 0.961 . S
H2889 C2875 0.958 . S
H2890 C2875 0.961 . S
H2891 C2875 0.960 . S
C2892 C2893 1.391 . S
C2892 C2894 1.394 . S
C2892 H2908 0.931 . S
C2893 C2892 1.391 . S
C2893 C2897 1.376 . S
C2894 C2892 1.394 . S
C2894 C2895 1.369 . S
C2894 C2898 1.531 . S
C2895 C2894 1.369 . S
C2895 C2896 1.410 . S
C2895 C2903 1.503 . S
C2896 C2895 1.410 . S
C2896 C2897 1.392 . S
C2896 C2899 1.511 . S
C2897 C2893 1.376 . S
C2897 C2896 1.392 . S
C2897 H2909 0.929 . S
C2898 C2894 1.531 . S
C2898 H2910 0.960 . S
C2898 H2911 0.962 . S
C2898 H2912 0.960 . S
C2899 C2896 1.511 . S
C2899 H2913 0.961 . S
C2899 H2914 0.961 . S
C2899 H2915 0.961 . S
C2900 C2901 1.370 . S
C2900 C2902 1.363 . S
C2900 H2916 0.931 . S
C2901 C2900 1.370 . S
C2901 C2905 1.408 . S
C2902 C2900 1.363 . S
C2902 C2903 1.370 . S
C2902 C2906 1.524 . S
C2903 C2895 1.503 . S
C2903 C2902 1.370 . S
C2903 C2904 1.403 . S
C2904 C2903 1.403 . S
C2904 C2905 1.404 . S
C2904 C2907 1.539 . S
C2905 C2901 1.408 . S
C2905 C2904 1.404 . S
C2905 H2917 0.930 . S
C2906 C2902 1.524 . S
C2906 H2918 0.956 . S
C2906 H2919 0.961 . S
C2906 H2920 0.961 . S
C2907 C2904 1.539 . S
C2907 H2921 0.958 . S
C2907 H2922 0.961 . S
C2907 H2923 0.960 . S
H2908 C2892 0.931 . S
H2909 C2897 0.929 . S
H2910 C2898 0.960 . S
H2911 C2898 0.962 . S
H2912 C2898 0.960 . S
H2913 C2899 0.961 . S
H2914 C2899 0.961 . S
H2915 C2899 0.961 . S
H2916 C2900 0.931 . S
H2917 C2905 0.930 . S
H2918 C2906 0.956 . S
H2919 C2906 0.961 . S
H2920 C2906 0.961 . S
H2921 C2907 0.958 . S
H2922 C2907 0.961 . S
H2923 C2907 0.960 . S
C2924 C2925 1.391 . S
C2924 C2926 1.394 . S
C2924 H2940 0.931 . S
C2925 C2924 1.391 . S
C2925 C2929 1.376 . S
C2926 C2924 1.394 . S
C2926 C2927 1.369 . S
C2926 C2930 1.531 . S
C2927 C2926 1.369 . S
C2927 C2928 1.410 . S
C2927 C2935 1.503 . S
C2928 C2927 1.410 . S
C2928 C2929 1.392 . S
C2928 C2931 1.511 . S
C2929 C2925 1.376 . S
C2929 C2928 1.392 . S
C2929 H2941 0.929 . S
C2930 C2926 1.531 . S
C2930 H2942 0.960 . S
C2930 H2943 0.962 . S
C2930 H2944 0.960 . S
C2931 C2928 1.511 . S
C2931 H2945 0.961 . S
C2931 H2946 0.961 . S
C2931 H2947 0.961 . S
C2932 C2933 1.370 . S
C2932 C2934 1.363 . S
C2932 H2948 0.931 . S
C2933 C2932 1.370 . S
C2933 C2937 1.408 . S
C2934 C2932 1.363 . S
C2934 C2935 1.370 . S
C2934 C2938 1.524 . S
C2935 C2927 1.503 . S
C2935 C2934 1.370 . S
C2935 C2936 1.403 . S
C2936 C2935 1.403 . S
C2936 C2937 1.404 . S
C2936 C2939 1.539 . S
C2937 C2933 1.408 . S
C2937 C2936 1.404 . S
C2937 H2949 0.930 . S
C2938 C2934 1.524 . S
C2938 H2950 0.956 . S
C2938 H2951 0.961 . S
C2938 H2952 0.961 . S
C2939 C2936 1.539 . S
C2939 H2953 0.958 . S
C2939 H2954 0.961 . S
C2939 H2955 0.960 . S
H2940 C2924 0.931 . S
H2941 C2929 0.929 . S
H2942 C2930 0.960 . S
H2943 C2930 0.962 . S
H2944 C2930 0.960 . S
H2945 C2931 0.961 . S
H2946 C2931 0.961 . S
H2947 C2931 0.961 . S
H2948 C2932 0.931 . S
H2949 C2937 0.930 . S
H2950 C2938 0.956 . S
H2951 C2938 0.961 . S
H2952 C2938 0.961 . S
H2953 C2939 0.958 . S
H2954 C2939 0.961 . S
H2955 C2939 0.960 . S
C2956 C2957 1.391 . S
C2956 C2958 1.394 . S
C2956 H2972 0.931 . S
C2957 C2956 1.391 . S
C2957 C2961 1.376 . S
C2958 C2956 1.394 . S
C2958 C2959 1.369 . S
C2958 C2962 1.531 . S
C2959 C2958 1.369 . S
C2959 C2960 1.410 . S
C2959 C2967 1.503 . S
C2960 C2959 1.410 . S
C2960 C2961 1.392 . S
C2960 C2963 1.511 . S
C2961 C2957 1.376 . S
C2961 C2960 1.392 . S
C2961 H2973 0.929 . S
C2962 C2958 1.531 . S
C2962 H2974 0.960 . S
C2962 H2975 0.962 . S
C2962 H2976 0.960 . S
C2963 C2960 1.511 . S
C2963 H2977 0.961 . S
C2963 H2978 0.961 . S
C2963 H2979 0.961 . S
C2964 C2965 1.370 . S
C2964 C2966 1.363 . S
C2964 H2980 0.931 . S
C2965 C2964 1.370 . S
C2965 C2969 1.408 . S
C2966 C2964 1.363 . S
C2966 C2967 1.370 . S
C2966 C2970 1.524 . S
C2967 C2959 1.503 . S
C2967 C2966 1.370 . S
C2967 C2968 1.403 . S
C2968 C2967 1.403 . S
C2968 C2969 1.404 . S
C2968 C2971 1.539 . S
C2969 C2965 1.408 . S
C2969 C2968 1.404 . S
C2969 H2981 0.930 . S
C2970 C2966 1.524 . S
C2970 H2982 0.956 . S
C2970 H2983 0.961 . S
C2970 H2984 0.961 . S
C2971 C2968 1.539 . S
C2971 H2985 0.958 . S
C2971 H2986 0.961 . S
C2971 H2987 0.960 . S
H2972 C2956 0.931 . S
H2973 C2961 0.929 . S
H2974 C2962 0.960 . S
H2975 C2962 0.962 . S
H2976 C2962 0.960 . S
H2977 C2963 0.961 . S
H2978 C2963 0.961 . S
H2979 C2963 0.961 . S
H2980 C2964 0.931 . S
H2981 C2969 0.930 . S
H2982 C2970 0.956 . S
H2983 C2970 0.961 . S
H2984 C2970 0.961 . S
H2985 C2971 0.958 . S
H2986 C2971 0.961 . S
H2987 C2971 0.960 . S
C2988 C2989 1.391 . S
C2988 C2990 1.394 . S
C2988 H3004 0.931 . S
C2989 C2988 1.391 . S
C2989 C2993 1.376 . S
C2990 C2988 1.394 . S
C2990 C2991 1.369 . S
C2990 C2994 1.531 . S
C2991 C2990 1.369 . S
C2991 C2992 1.410 . S
C2991 C2999 1.503 . S
C2992 C2991 1.410 . S
C2992 C2993 1.392 . S
C2992 C2995 1.511 . S
C2993 C2989 1.376 . S
C2993 C2992 1.392 . S
C2993 H3005 0.929 . S
C2994 C2990 1.531 . S
C2994 H3006 0.960 . S
C2994 H3007 0.962 . S
C2994 H3008 0.960 . S
C2995 C2992 1.511 . S
C2995 H3009 0.961 . S
C2995 H3010 0.961 . S
C2995 H3011 0.961 . S
C2996 C2997 1.370 . S
C2996 C2998 1.363 . S
C2996 H3012 0.931 . S
C2997 C2996 1.370 . S
C2997 C3001 1.408 . S
C2998 C2996 1.363 . S
C2998 C2999 1.370 . S
C2998 C3002 1.524 . S
C2999 C2991 1.503 . S
C2999 C2998 1.370 . S
C2999 C3000 1.403 . S
C3000 C2999 1.403 . S
C3000 C3001 1.404 . S
C3000 C3003 1.539 . S
C3001 C2997 1.408 . S
C3001 C3000 1.404 . S
C3001 H3013 0.930 . S
C3002 C2998 1.524 . S
C3002 H3014 0.956 . S
C3002 H3015 0.961 . S
C3002 H3016 0.961 . S
C3003 C3000 1.539 . S
C3003 H3017 0.958 . S
C3003 H3018 0.961 . S
C3003 H3019 0.960 . S
H3004 C2988 0.931 . S
H3005 C2993 0.929 . S
H3006 C2994 0.960 . S
H3007 C2994 0.962 . S
H3008 C2994 0.960 . S
H3009 C2995 0.961 . S
H3010 C2995 0.961 . S
H3011 C2995 0.961 . S
H3012 C2996 0.931 . S
H3013 C3001 0.930 . S
H3014 C3002 0.956 . S
H3015 C3002 0.961 . S
H3016 C3002 0.961 . S
H3017 C3003 0.958 . S
H3018 C3003 0.961 . S
H3019 C3003 0.960 . S
C3020 C3021 1.391 . S
C3020 C3022 1.394 . S
C3020 H3036 0.931 . S
C3021 C3020 1.391 . S
C3021 C3025 1.376 . S
C3022 C3020 1.394 . S
C3022 C3023 1.369 . S
C3022 C3026 1.531 . S
C3023 C3022 1.369 . S
C3023 C3024 1.410 . S
C3023 C3031 1.503 . S
C3024 C3023 1.410 . S
C3024 C3025 1.392 . S
C3024 C3027 1.511 . S
C3025 C3021 1.376 . S
C3025 C3024 1.392 . S
C3025 H3037 0.929 . S
C3026 C3022 1.531 . S
C3026 H3038 0.960 . S
C3026 H3039 0.962 . S
C3026 H3040 0.960 . S
C3027 C3024 1.511 . S
C3027 H3041 0.961 . S
C3027 H3042 0.961 . S
C3027 H3043 0.961 . S
C3028 C3029 1.370 . S
C3028 C3030 1.363 . S
C3028 H3044 0.931 . S
C3029 C3028 1.370 . S
C3029 C3033 1.408 . S
C3030 C3028 1.363 . S
C3030 C3031 1.370 . S
C3030 C3034 1.524 . S
C3031 C3023 1.503 . S
C3031 C3030 1.370 . S
C3031 C3032 1.403 . S
C3032 C3031 1.403 . S
C3032 C3033 1.404 . S
C3032 C3035 1.539 . S
C3033 C3029 1.408 . S
C3033 C3032 1.404 . S
C3033 H3045 0.930 . S
C3034 C3030 1.524 . S
C3034 H3046 0.956 . S
C3034 H3047 0.961 . S
C3034 H3048 0.961 . S
C3035 C3032 1.539 . S
C3035 H3049 0.958 . S
C3035 H3050 0.961 . S
C3035 H3051 0.960 . S
H3036 C3020 0.931 . S
H3037 C3025 0.929 . S
H3038 C3026 0.960 . S
H3039 C3026 0.962 . S
H3040 C3026 0.960 . S
H3041 C3027 0.961 . S
H3042 C3027 0.961 . S
H3043 C3027 0.961 . S
H3044 C3028 0.931 . S
H3045 C3033 0.930 . S
H3046 C3034 0.956 . S
H3047 C3034 0.961 . S
H3048 C3034 0.961 . S
H3049 C3035 0.958 . S
H3050 C3035 0.961 . S
H3051 C3035 0.960 . S
C3052 C3053 1.391 . S
C3052 C3054 1.394 . S
C3052 H3068 0.931 . S
C3053 C3052 1.391 . S
C3053 C3057 1.376 . S
C3054 C3052 1.394 . S
C3054 C3055 1.369 . S
C3054 C3058 1.531 . S
C3055 C3054 1.369 . S
C3055 C3056 1.410 . S
C3055 C3063 1.503 . S
C3056 C3055 1.410 . S
C3056 C3057 1.392 . S
C3056 C3059 1.511 . S
C3057 C3053 1.376 . S
C3057 C3056 1.392 . S
C3057 H3069 0.929 . S
C3058 C3054 1.531 . S
C3058 H3070 0.960 . S
C3058 H3071 0.962 . S
C3058 H3072 0.960 . S
C3059 C3056 1.511 . S
C3059 H3073 0.961 . S
C3059 H3074 0.961 . S
C3059 H3075 0.961 . S
C3060 C3061 1.370 . S
C3060 C3062 1.363 . S
C3060 H3076 0.931 . S
C3061 C3060 1.370 . S
C3061 C3065 1.408 . S
C3062 C3060 1.363 . S
C3062 C3063 1.370 . S
C3062 C3066 1.524 . S
C3063 C3055 1.503 . S
C3063 C3062 1.370 . S
C3063 C3064 1.403 . S
C3064 C3063 1.403 . S
C3064 C3065 1.404 . S
C3064 C3067 1.539 . S
C3065 C3061 1.408 . S
C3065 C3064 1.404 . S
C3065 H3077 0.930 . S
C3066 C3062 1.524 . S
C3066 H3078 0.956 . S
C3066 H3079 0.961 . S
C3066 H3080 0.961 . S
C3067 C3064 1.539 . S
C3067 H3081 0.958 . S
C3067 H3082 0.961 . S
C3067 H3083 0.960 . S
H3068 C3052 0.931 . S
H3069 C3057 0.929 . S
H3070 C3058 0.960 . S
H3071 C3058 0.962 . S
H3072 C3058 0.960 . S
H3073 C3059 0.961 . S
H3074 C3059 0.961 . S
H3075 C3059 0.961 . S
H3076 C3060 0.931 . S
H3077 C3065 0.930 . S
H3078 C3066 0.956 . S
H3079 C3066 0.961 . S
H3080 C3066 0.961 . S
H3081 C3067 0.958 . S
H3082 C3067 0.961 . S
H3083 C3067 0.960 . S
C3084 C3085 1.391 . S
C3084 C3086 1.394 . S
C3084 H3100 0.931 . S
C3085 C3084 1.391 . S
C3085 C3089 1.376 . S
C3086 C3084 1.394 . S
C3086 C3087 1.369 . S
C3086 C3090 1.531 . S
C3087 C3086 1.369 . S
C3087 C3088 1.410 . S
C3087 C3095 1.503 . S
C3088 C3087 1.410 . S
C3088 C3089 1.392 . S
C3088 C3091 1.511 . S
C3089 C3085 1.376 . S
C3089 C3088 1.392 . S
C3089 H3101 0.929 . S
C3090 C3086 1.531 . S
C3090 H3102 0.960 . S
C3090 H3103 0.962 . S
C3090 H3104 0.960 . S
C3091 C3088 1.511 . S
C3091 H3105 0.961 . S
C3091 H3106 0.961 . S
C3091 H3107 0.961 . S
C3092 C3093 1.370 . S
C3092 C3094 1.363 . S
C3092 H3108 0.931 . S
C3093 C3092 1.370 . S
C3093 C3097 1.408 . S
C3094 C3092 1.363 . S
C3094 C3095 1.370 . S
C3094 C3098 1.524 . S
C3095 C3087 1.503 . S
C3095 C3094 1.370 . S
C3095 C3096 1.403 . S
C3096 C3095 1.403 . S
C3096 C3097 1.404 . S
C3096 C3099 1.539 . S
C3097 C3093 1.408 . S
C3097 C3096 1.404 . S
C3097 H3109 0.930 . S
C3098 C3094 1.524 . S
C3098 H3110 0.956 . S
C3098 H3111 0.961 . S
C3098 H3112 0.961 . S
C3099 C3096 1.539 . S
C3099 H3113 0.958 . S
C3099 H3114 0.961 . S
C3099 H3115 0.960 . S
H3100 C3084 0.931 . S
H3101 C3089 0.929 . S
H3102 C3090 0.960 . S
H3103 C3090 0.962 . S
H3104 C3090 0.960 . S
H3105 C3091 0.961 . S
H3106 C3091 0.961 . S
H3107 C3091 0.961 . S
H3108 C3092 0.931 . S
H3109 C3097 0.930 . S
H3110 C3098 0.956 . S
H3111 C3098 0.961 . S
H3112 C3098 0.961 . S
H3113 C3099 0.958 . S
H3114 C3099 0.961 . S
H3115 C3099 0.960 . S
C3116 C3117 1.391 . S
C3116 C3118 1.394 . S
C3116 H3132 0.931 . S
C3117 C3116 1.391 . S
C3117 C3121 1.376 . S
C3118 C3116 1.394 . S
C3118 C3119 1.369 . S
C3118 C3122 1.531 . S
C3119 C3118 1.369 . S
C3119 C3120 1.410 . S
C3119 C3127 1.503 . S
C3120 C3119 1.410 . S
C3120 C3121 1.392 . S
C3120 C3123 1.511 . S
C3121 C3117 1.376 . S
C3121 C3120 1.392 . S
C3121 H3133 0.929 . S
C3122 C3118 1.531 . S
C3122 H3134 0.960 . S
C3122 H3135 0.962 . S
C3122 H3136 0.960 . S
C3123 C3120 1.511 . S
C3123 H3137 0.961 . S
C3123 H3138 0.961 . S
C3123 H3139 0.961 . S
C3124 C3125 1.370 . S
C3124 C3126 1.363 . S
C3124 H3140 0.931 . S
C3125 C3124 1.370 . S
C3125 C3129 1.408 . S
C3126 C3124 1.363 . S
C3126 C3127 1.370 . S
C3126 C3130 1.524 . S
C3127 C3119 1.503 . S
C3127 C3126 1.370 . S
C3127 C3128 1.403 . S
C3128 C3127 1.403 . S
C3128 C3129 1.404 . S
C3128 C3131 1.539 . S
C3129 C3125 1.408 . S
C3129 C3128 1.404 . S
C3129 H3141 0.930 . S
C3130 C3126 1.524 . S
C3130 H3142 0.956 . S
C3130 H3143 0.961 . S
C3130 H3144 0.961 . S
C3131 C3128 1.539 . S
C3131 H3145 0.958 . S
C3131 H3146 0.961 . S
C3131 H3147 0.960 . S
H3132 C3116 0.931 . S
H3133 C3121 0.929 . S
H3134 C3122 0.960 . S
H3135 C3122 0.962 . S
H3136 C3122 0.960 . S
H3137 C3123 0.961 . S
H3138 C3123 0.961 . S
H3139 C3123 0.961 . S
H3140 C3124 0.931 . S
H3141 C3129 0.930 . S
H3142 C3130 0.956 . S
H3143 C3130 0.961 . S
H3144 C3130 0.961 . S
H3145 C3131 0.958 . S
H3146 C3131 0.961 . S
H3147 C3131 0.960 . S
C3148 C3149 1.391 . S
C3148 C3150 1.394 . S
C3148 H3164 0.931 . S
C3149 C3148 1.391 . S
C3149 C3153 1.376 . S
C3150 C3148 1.394 . S
C3150 C3151 1.369 . S
C3150 C3154 1.531 . S
C3151 C3150 1.369 . S
C3151 C3152 1.410 . S
C3151 C3159 1.503 . S
C3152 C3151 1.410 . S
C3152 C3153 1.392 . S
C3152 C3155 1.511 . S
C3153 C3149 1.376 . S
C3153 C3152 1.392 . S
C3153 H3165 0.929 . S
C3154 C3150 1.531 . S
C3154 H3166 0.960 . S
C3154 H3167 0.962 . S
C3154 H3168 0.960 . S
C3155 C3152 1.511 . S
C3155 H3169 0.961 . S
C3155 H3170 0.961 . S
C3155 H3171 0.961 . S
C3156 C3157 1.370 . S
C3156 C3158 1.363 . S
C3156 H3172 0.931 . S
C3157 C3156 1.370 . S
C3157 C3161 1.408 . S
C3158 C3156 1.363 . S
C3158 C3159 1.370 . S
C3158 C3162 1.524 . S
C3159 C3151 1.503 . S
C3159 C3158 1.370 . S
C3159 C3160 1.403 . S
C3160 C3159 1.403 . S
C3160 C3161 1.404 . S
C3160 C3163 1.539 . S
C3161 C3157 1.408 . S
C3161 C3160 1.404 . S
C3161 H3173 0.930 . S
C3162 C3158 1.524 . S
C3162 H3174 0.956 . S
C3162 H3175 0.961 . S
C3162 H3176 0.961 . S
C3163 C3160 1.539 . S
C3163 H3177 0.958 . S
C3163 H3178 0.961 . S
C3163 H3179 0.960 . S
H3164 C3148 0.931 . S
H3165 C3153 0.929 . S
H3166 C3154 0.960 . S
H3167 C3154 0.962 . S
H3168 C3154 0.960 . S
H3169 C3155 0.961 . S
H3170 C3155 0.961 . S
H3171 C3155 0.961 . S
H3172 C3156 0.931 . S
H3173 C3161 0.930 . S
H3174 C3162 0.956 . S
H3175 C3162 0.961 . S
H3176 C3162 0.961 . S
H3177 C3163 0.958 . S
H3178 C3163 0.961 . S
H3179 C3163 0.960 . S
C3180 C3181 1.391 . S
C3180 C3182 1.394 . S
C3180 H3196 0.931 . S
C3181 C3180 1.391 . S
C3181 C3185 1.376 . S
C3182 C3180 1.394 . S
C3182 C3183 1.369 . S
C3182 C3186 1.531 . S
C3183 C3182 1.369 . S
C3183 C3184 1.410 . S
C3183 C3191 1.503 . S
C3184 C3183 1.410 . S
C3184 C3185 1.392 . S
C3184 C3187 1.511 . S
C3185 C3181 1.376 . S
C3185 C3184 1.392 . S
C3185 H3197 0.929 . S
C3186 C3182 1.531 . S
C3186 H3198 0.960 . S
C3186 H3199 0.962 . S
C3186 H3200 0.960 . S
C3187 C3184 1.511 . S
C3187 H3201 0.961 . S
C3187 H3202 0.961 . S
C3187 H3203 0.961 . S
C3188 C3189 1.370 . S
C3188 C3190 1.363 . S
C3188 H3204 0.931 . S
C3189 C3188 1.370 . S
C3189 C3193 1.408 . S
C3190 C3188 1.363 . S
C3190 C3191 1.370 . S
C3190 C3194 1.524 . S
C3191 C3183 1.503 . S
C3191 C3190 1.370 . S
C3191 C3192 1.403 . S
C3192 C3191 1.403 . S
C3192 C3193 1.404 . S
C3192 C3195 1.539 . S
C3193 C3189 1.408 . S
C3193 C3192 1.404 . S
C3193 H3205 0.930 . S
C3194 C3190 1.524 . S
C3194 H3206 0.956 . S
C3194 H3207 0.961 . S
C3194 H3208 0.961 . S
C3195 C3192 1.539 . S
C3195 H3209 0.958 . S
C3195 H3210 0.961 . S
C3195 H3211 0.960 . S
H3196 C3180 0.931 . S
H3197 C3185 0.929 . S
H3198 C3186 0.960 . S
H3199 C3186 0.962 . S
H3200 C3186 0.960 . S
H3201 C3187 0.961 . S
H3202 C3187 0.961 . S
H3203 C3187 0.961 . S
H3204 C3188 0.931 . S
H3205 C3193 0.930 . S
H3206 C3194 0.956 . S
H3207 C3194 0.961 . S
H3208 C3194 0.961 . S
H3209 C3195 0.958 . S
H3210 C3195 0.961 . S
H3211 C3195 0.960 . S
C3212 C3213 1.391 . S
C3212 C3214 1.394 . S
C3212 H3228 0.931 . S
C3213 C3212 1.391 . S
C3213 C3217 1.376 . S
C3214 C3212 1.394 . S
C3214 C3215 1.369 . S
C3214 C3218 1.531 . S
C3215 C3214 1.369 . S
C3215 C3216 1.410 . S
C3215 C3223 1.503 . S
C3216 C3215 1.410 . S
C3216 C3217 1.392 . S
C3216 C3219 1.511 . S
C3217 C3213 1.376 . S
C3217 C3216 1.392 . S
C3217 H3229 0.929 . S
C3218 C3214 1.531 . S
C3218 H3230 0.960 . S
C3218 H3231 0.962 . S
C3218 H3232 0.960 . S
C3219 C3216 1.511 . S
C3219 H3233 0.961 . S
C3219 H3234 0.961 . S
C3219 H3235 0.961 . S
C3220 C3221 1.370 . S
C3220 C3222 1.363 . S
C3220 H3236 0.931 . S
C3221 C3220 1.370 . S
C3221 C3225 1.408 . S
C3222 C3220 1.363 . S
C3222 C3223 1.370 . S
C3222 C3226 1.524 . S
C3223 C3215 1.503 . S
C3223 C3222 1.370 . S
C3223 C3224 1.403 . S
C3224 C3223 1.403 . S
C3224 C3225 1.404 . S
C3224 C3227 1.539 . S
C3225 C3221 1.408 . S
C3225 C3224 1.404 . S
C3225 H3237 0.930 . S
C3226 C3222 1.524 . S
C3226 H3238 0.956 . S
C3226 H3239 0.961 . S
C3226 H3240 0.961 . S
C3227 C3224 1.539 . S
C3227 H3241 0.958 . S
C3227 H3242 0.961 . S
C3227 H3243 0.960 . S
H3228 C3212 0.931 . S
H3229 C3217 0.929 . S
H3230 C3218 0.960 . S
H3231 C3218 0.962 . S
H3232 C3218 0.960 . S
H3233 C3219 0.961 . S
H3234 C3219 0.961 . S
H3235 C3219 0.961 . S
H3236 C3220 0.931 . S
H3237 C3225 0.930 . S
H3238 C3226 0.956 . S
H3239 C3226 0.961 . S
H3240 C3226 0.961 . S
H3241 C3227 0.958 . S
H3242 C3227 0.961 . S
H3243 C3227 0.960 . S
C3244 C3245 1.391 . S
C3244 C3246 1.394 . S
C3244 H3260 0.931 . S
C3245 C3244 1.391 . S
C3245 C3249 1.376 . S
C3246 C3244 1.394 . S
C3246 C3247 1.369 . S
C3246 C3250 1.531 . S
C3247 C3246 1.369 . S
C3247 C3248 1.410 . S
C3247 C3255 1.503 . S
C3248 C3247 1.410 . S
C3248 C3249 1.392 . S
C3248 C3251 1.511 . S
C3249 C3245 1.376 . S
C3249 C3248 1.392 . S
C3249 H3261 0.929 . S
C3250 C3246 1.531 . S
C3250 H3262 0.960 . S
C3250 H3263 0.962 . S
C3250 H3264 0.960 . S
C3251 C3248 1.511 . S
C3251 H3265 0.961 . S
C3251 H3266 0.961 . S
C3251 H3267 0.961 . S
C3252 C3253 1.370 . S
C3252 C3254 1.363 . S
C3252 H3268 0.931 . S
C3253 C3252 1.370 . S
C3253 C3257 1.408 . S
C3254 C3252 1.363 . S
C3254 C3255 1.370 . S
C3254 C3258 1.524 . S
C3255 C3247 1.503 . S
C3255 C3254 1.370 . S
C3255 C3256 1.403 . S
C3256 C3255 1.403 . S
C3256 C3257 1.404 . S
C3256 C3259 1.539 . S
C3257 C3253 1.408 . S
C3257 C3256 1.404 . S
C3257 H3269 0.930 . S
C3258 C3254 1.524 . S
C3258 H3270 0.956 . S
C3258 H3271 0.961 . S
C3258 H3272 0.961 . S
C3259 C3256 1.539 . S
C3259 H3273 0.958 . S
C3259 H3274 0.961 . S
C3259 H3275 0.960 . S
H3260 C3244 0.931 . S
H3261 C3249 0.929 . S
H3262 C3250 0.960 . S
H3263 C3250 0.962 . S
H3264 C3250 0.960 . S
H3265 C3251 0.961 . S
H3266 C3251 0.961 . S
H3267 C3251 0.961 . S
H3268 C3252 0.931 . S
H3269 C3257 0.930 . S
H3270 C3258 0.956 . S
H3271 C3258 0.961 . S
H3272 C3258 0.961 . S
H3273 C3259 0.958 . S
H3274 C3259 0.961 . S
H3275 C3259 0.960 . S
C3276 C3277 1.391 . S
C3276 C3278 1.394 . S
C3276 H3292 0.931 . S
C3277 C3276 1.391 . S
C3277 C3281 1.376 . S
C3278 C3276 1.394 . S
C3278 C3279 1.369 . S
C3278 C3282 1.531 . S
C3279 C3278 1.369 . S
C3279 C3280 1.410 . S
C3279 C3287 1.503 . S
C3280 C3279 1.410 . S
C3280 C3281 1.392 . S
C3280 C3283 1.511 . S
C3281 C3277 1.376 . S
C3281 C3280 1.392 . S
C3281 H3293 0.929 . S
C3282 C3278 1.531 . S
C3282 H3294 0.960 . S
C3282 H3295 0.962 . S
C3282 H3296 0.960 . S
C3283 C3280 1.511 . S
C3283 H3297 0.961 . S
C3283 H3298 0.961 . S
C3283 H3299 0.961 . S
C3284 C3285 1.370 . S
C3284 C3286 1.363 . S
C3284 H3300 0.931 . S
C3285 C3284 1.370 . S
C3285 C3289 1.408 . S
C3286 C3284 1.363 . S
C3286 C3287 1.370 . S
C3286 C3290 1.524 . S
C3287 C3279 1.503 . S
C3287 C3286 1.370 . S
C3287 C3288 1.403 . S
C3288 C3287 1.403 . S
C3288 C3289 1.404 . S
C3288 C3291 1.539 . S
C3289 C3285 1.408 . S
C3289 C3288 1.404 . S
C3289 H3301 0.930 . S
C3290 C3286 1.524 . S
C3290 H3302 0.956 . S
C3290 H3303 0.961 . S
C3290 H3304 0.961 . S
C3291 C3288 1.539 . S
C3291 H3305 0.958 . S
C3291 H3306 0.961 . S
C3291 H3307 0.960 . S
H3292 C3276 0.931 . S
H3293 C3281 0.929 . S
H3294 C3282 0.960 . S
H3295 C3282 0.962 . S
H3296 C3282 0.960 . S
H3297 C3283 0.961 . S
H3298 C3283 0.961 . S
H3299 C3283 0.961 . S
H3300 C3284 0.931 . S
H3301 C3289 0.930 . S
H3302 C3290 0.956 . S
H3303 C3290 0.961 . S
H3304 C3290 0.961 . S
H3305 C3291 0.958 . S
H3306 C3291 0.961 . S
H3307 C3291 0.960 . S
C3308 C3309 1.391 . S
C3308 C3310 1.394 . S
C3308 H3324 0.931 . S
C3309 C3308 1.391 . S
C3309 C3313 1.376 . S
C3310 C3308 1.394 . S
C3310 C3311 1.369 . S
C3310 C3314 1.531 . S
C3311 C3310 1.369 . S
C3311 C3312 1.410 . S
C3311 C3319 1.503 . S
C3312 C3311 1.410 . S
C3312 C3313 1.392 . S
C3312 C3315 1.511 . S
C3313 C3309 1.376 . S
C3313 C3312 1.392 . S
C3313 H3325 0.929 . S
C3314 C3310 1.531 . S
C3314 H3326 0.960 . S
C3314 H3327 0.962 . S
C3314 H3328 0.960 . S
C3315 C3312 1.511 . S
C3315 H3329 0.961 . S
C3315 H3330 0.961 . S
C3315 H3331 0.961 . S
C3316 C3317 1.370 . S
C3316 C3318 1.363 . S
C3316 H3332 0.931 . S
C3317 C3316 1.370 . S
C3317 C3321 1.408 . S
C3318 C3316 1.363 . S
C3318 C3319 1.370 . S
C3318 C3322 1.524 . S
C3319 C3311 1.503 . S
C3319 C3318 1.370 . S
C3319 C3320 1.403 . S
C3320 C3319 1.403 . S
C3320 C3321 1.404 . S
C3320 C3323 1.539 . S
C3321 C3317 1.408 . S
C3321 C3320 1.404 . S
C3321 H3333 0.930 . S
C3322 C3318 1.524 . S
C3322 H3334 0.956 . S
C3322 H3335 0.961 . S
C3322 H3336 0.961 . S
C3323 C3320 1.539 . S
C3323 H3337 0.958 . S
C3323 H3338 0.961 . S
C3323 H3339 0.960 . S
H3324 C3308 0.931 . S
H3325 C3313 0.929 . S
H3326 C3314 0.960 . S
H3327 C3314 0.962 . S
H3328 C3314 0.960 . S
H3329 C3315 0.961 . S
H3330 C3315 0.961 . S
H3331 C3315 0.961 . S
H3332 C3316 0.931 . S
H3333 C3321 0.930 . S
H3334 C3322 0.956 . S
H3335 C3322 0.961 . S
H3336 C3322 0.961 . S
H3337 C3323 0.958 . S
H3338 C3323 0.961 . S
H3339 C3323 0.960 . S
C3340 C3341 1.391 . S
C3340 C3342 1.394 . S
C3340 H3356 0.931 . S
C3341 C3340 1.391 . S
C3341 C3345 1.376 . S
C3342 C3340 1.394 . S
C3342 C3343 1.369 . S
C3342 C3346 1.531 . S
C3343 C3342 1.369 . S
C3343 C3344 1.410 . S
C3343 C3351 1.503 . S
C3344 C3343 1.410 . S
C3344 C3345 1.392 . S
C3344 C3347 1.511 . S
C3345 C3341 1.376 . S
C3345 C3344 1.392 . S
C3345 H3357 0.929 . S
C3346 C3342 1.531 . S
C3346 H3358 0.960 . S
C3346 H3359 0.962 . S
C3346 H3360 0.960 . S
C3347 C3344 1.511 . S
C3347 H3361 0.961 . S
C3347 H3362 0.961 . S
C3347 H3363 0.961 . S
C3348 C3349 1.370 . S
C3348 C3350 1.363 . S
C3348 H3364 0.931 . S
C3349 C3348 1.370 . S
C3349 C3353 1.408 . S
C3350 C3348 1.363 . S
C3350 C3351 1.370 . S
C3350 C3354 1.524 . S
C3351 C3343 1.503 . S
C3351 C3350 1.370 . S
C3351 C3352 1.403 . S
C3352 C3351 1.403 . S
C3352 C3353 1.404 . S
C3352 C3355 1.539 . S
C3353 C3349 1.408 . S
C3353 C3352 1.404 . S
C3353 H3365 0.930 . S
C3354 C3350 1.524 . S
C3354 H3366 0.956 . S
C3354 H3367 0.961 . S
C3354 H3368 0.961 . S
C3355 C3352 1.539 . S
C3355 H3369 0.958 . S
C3355 H3370 0.961 . S
C3355 H3371 0.960 . S
H3356 C3340 0.931 . S
H3357 C3345 0.929 . S
H3358 C3346 0.960 . S
H3359 C3346 0.962 . S
H3360 C3346 0.960 . S
H3361 C3347 0.961 . S
H3362 C3347 0.961 . S
H3363 C3347 0.961 . S
H3364 C3348 0.931 . S
H3365 C3353 0.930 . S
H3366 C3354 0.956 . S
H3367 C3354 0.961 . S
H3368 C3354 0.961 . S
H3369 C3355 0.958 . S
H3370 C3355 0.961 . S
H3371 C3355 0.960 . S
C1077 C774 1.130 . S
C1069 C765 1.075 . S
C1101 C701 1.154 . S
C1109 C772 1.147 . S
C1141 C773 1.138 . S
C1133 C669 1.144 . S
C1165 C733 1.108 . S
C1173 C775 1.121 . S
C1205 C819 1.131 . S
C1197 C541 1.115 . S
C1237 C879 1.110 . S
C1229 C573 1.057 . S
C1261 C605 1.131 . S
C1269 C818 1.139 . S
C1301 C878 1.139 . S
C1293 C637 1.143 . S
C1325 C413 1.082 . S
C1333 C820 1.130 . S
C1365 C876 1.138 . S
C1357 C445 1.145 . S
C1389 C477 1.115 . S
C1397 C821 1.121 . S
C1421 C509 1.052 . S
C1429 C877 1.109 . S
C1461 C927 1.123 1_556 S
C1453 C381 1.132 1_556 S
C1485 C317 1.097 . S
C1493 C926 1.153 1_556 S
C1517 C285 1.150 1_554 S
C1525 C928 1.144 . S
C1557 C929 1.115 . S
C1549 C349 1.100 1_554 S
C1581 C157 1.104 1_455 S
C1589 C970 1.125 . S
C1613 C189 1.063 1_545 S
C1621 C1029 1.111 . S
C1645 C221 1.117 . S
C1653 C968 1.134 . S
C1677 C253 1.070 . S
C1685 C1028 1.127 . S
C1717 C969 1.136 . S
C1709 C29 1.115 1_455 S
C1749 C1026 1.138 . S
C1741 C61 1.095 . S
C1773 C93 1.099 . S
C1781 C971 1.127 . S
C1813 C1027 1.121 . S
C1805 C125 1.126 1_545 S
C1845 C771 1.772 . S
C1837 C23 1.639 1_455 S
C1869 C55 1.641 . S
C1877 C777 1.758 1_565 S
C1901 C87 1.619 . S
C1909 C769 1.767 . S
C1933 C113 1.662 1_545 S
C1941 C776 1.752 . S
C1965 C151 1.621 1_455 S
C1973 C768 1.768 . S
C2005 C778 1.750 . S
C1997 C183 1.630 1_545 S
C2029 C215 1.653 . S
C2037 C770 1.772 . S
C2069 C779 1.755 . S
C2061 C247 1.645 . S
C2101 C825 1.745 . S
C2093 C119 1.674 1_545 S
C2125 C17 1.659 1_455 S
C2133 C868 1.765 . S
C2165 C823 1.758 . S
C2157 C49 1.653 . S
C2197 C870 1.757 . S
C2189 C81 1.686 . S
C2221 C177 1.669 1_545 S
C2229 C824 1.746 . S
C2261 C869 1.765 . S
C2253 C209 1.665 . S
C2293 C822 1.756 . S
C2285 C241 1.627 . S
C2325 C871 1.762 . S
C2317 C145 1.664 1_455 S
C2357 C875 1.779 1_556 S
C2349 C279 1.633 . S
C2381 C305 1.699 . S
C2389 C874 1.780 1_556 S
C2421 C826 1.780 1_556 S
C2413 C273 1.655 . S
C2453 C873 1.754 . S
C2445 C337 1.697 1_554 S
C2477 C375 1.678 1_556 S
C2485 C829 1.773 1_556 S
C2509 C369 1.641 . S
C2517 C872 1.765 . S
C2549 C828 1.783 . S
C2541 C311 1.641 1_554 S
C2581 C827 1.767 1_556 S
C2573 C343 1.644 . S
C2613 C921 1.774 . S
C2605 C407 1.628 . S
C2645 C924 1.760 . S
C2637 C439 1.686 . S
C2669 C471 1.689 . S
C2677 C920 1.760 . S
C2709 C922 1.750 . S
C2701 C497 1.620 . S
C2741 C918 1.763 . S
C2733 C535 1.687 . S
C2765 C561 1.682 . S
C2773 C923 1.744 . S
C2797 C599 1.628 . S
C2805 C919 1.775 . S
C2837 C925 1.760 . S
C2829 C631 1.628 . S
C2869 C979 1.740 . S
C2861 C503 1.659 . S
C2893 C401 1.656 . S
C2901 C1018 1.761 . S
C2933 C978 1.757 . S
C2925 C433 1.635 . S
C2965 C1020 1.757 . S
C2957 C465 1.672 . S
C2997 C977 1.743 . S
C2989 C567 1.618 . S
C3021 C593 1.661 . S
C3029 C1019 1.767 . S
C3061 C976 1.755 . S
C3053 C625 1.684 . S
C3093 C1021 1.767 . S
C3085 C529 1.666 . S
C3125 C1025 1.769 . S
C3117 C663 1.663 . S
C3149 C689 1.718 . S
C3157 C1024 1.774 . S
C3189 C972 1.774 . S
C3181 C657 1.713 . S
C3213 C721 1.667 . S
C3221 C1023 1.760 . S
C3253 C975 1.771 . S
C3245 C759 1.649 . S
C3285 C1022 1.767 . S
C3277 C753 1.684 . S
C3317 C973 1.781 . S
C3309 C695 1.691 . S
C3341 C727 1.625 . S
C3349 C974 1.773 . S
