# Generated by pormake.
# Topology zzz, (3,6)-cn, num edge types: 1
# Building blocks:
#     Node 0, Type 0, BuildingBlock: VETTIZ_charged_linker_0, # of connection points: 3
#     Node 1, Type 0, BuildingBlock: VETTIZ_charged_linker_0, # of connection points: 3
#     Node 2, Type 0, BuildingBlock: VETTIZ_charged_linker_0, # of connection points: 3
#     Node 3, Type 0, BuildingBlock: VETTIZ_charged_linker_0, # of connection points: 3
#     Node 4, Type 0, BuildingBlock: VETTIZ_charged_linker_0, # of connection points: 3
#     Node 5, Type 0, BuildingBlock: VETTIZ_charged_linker_0, # of connection points: 3
#     Node 6, Type 0, BuildingBlock: VETTIZ_charged_linker_0, # of connection points: 3
#     Node 7, Type 0, BuildingBlock: VETTIZ_charged_linker_0, # of connection points: 3
#     Node 8, Type 1, BuildingBlock: VOLQOD_clean_sbu_1, # of connection points: 6
#     Node 9, Type 1, BuildingBlock: VOLQOD_clean_sbu_1, # of connection points: 6
#     Node 10, Type 1, BuildingBlock: VOLQOD_clean_sbu_1, # of connection points: 6
#     Node 11, Type 1, BuildingBlock: VOLQOD_clean_sbu_1, # of connection points: 6
#     Edge 12, Type (0, 1), BuildingBlock: OJICUG_clean_linker_0, # of connection points: 2
#     Edge 13, Type (0, 1), BuildingBlock: OJICUG_clean_linker_0, # of connection points: 2
#     Edge 14, Type (0, 1), BuildingBlock: OJICUG_clean_linker_0, # of connection points: 2
#     Edge 15, Type (0, 1), BuildingBlock: OJICUG_clean_linker_0, # of connection points: 2
#     Edge 16, Type (0, 1), BuildingBlock: OJICUG_clean_linker_0, # of connection points: 2
#     Edge 17, Type (0, 1), BuildingBlock: OJICUG_clean_linker_0, # of connection points: 2
#     Edge 18, Type (0, 1), BuildingBlock: OJICUG_clean_linker_0, # of connection points: 2
#     Edge 19, Type (0, 1), BuildingBlock: OJICUG_clean_linker_0, # of connection points: 2
#     Edge 20, Type (0, 1), BuildingBlock: OJICUG_clean_linker_0, # of connection points: 2
#     Edge 21, Type (0, 1), BuildingBlock: OJICUG_clean_linker_0, # of connection points: 2
#     Edge 22, Type (0, 1), BuildingBlock: OJICUG_clean_linker_0, # of connection points: 2
#     Edge 23, Type (0, 1), BuildingBlock: OJICUG_clean_linker_0, # of connection points: 2
#     Edge 24, Type (0, 1), BuildingBlock: OJICUG_clean_linker_0, # of connection points: 2
#     Edge 25, Type (0, 1), BuildingBlock: OJICUG_clean_linker_0, # of connection points: 2
#     Edge 26, Type (0, 1), BuildingBlock: OJICUG_clean_linker_0, # of connection points: 2
#     Edge 27, Type (0, 1), BuildingBlock: OJICUG_clean_linker_0, # of connection points: 2
#     Edge 28, Type (0, 1), BuildingBlock: OJICUG_clean_linker_0, # of connection points: 2
#     Edge 29, Type (0, 1), BuildingBlock: OJICUG_clean_linker_0, # of connection points: 2
#     Edge 30, Type (0, 1), BuildingBlock: OJICUG_clean_linker_0, # of connection points: 2
#     Edge 31, Type (0, 1), BuildingBlock: OJICUG_clean_linker_0, # of connection points: 2
#     Edge 32, Type (0, 1), BuildingBlock: OJICUG_clean_linker_0, # of connection points: 2
#     Edge 33, Type (0, 1), BuildingBlock: OJICUG_clean_linker_0, # of connection points: 2
#     Edge 34, Type (0, 1), BuildingBlock: OJICUG_clean_linker_0, # of connection points: 2
#     Edge 35, Type (0, 1), BuildingBlock: OJICUG_clean_linker_0, # of connection points: 2
# Relax obj value: 0.367
# Max RMSD: 0.260
# Mean RMSD: 0.211
data_MOF--net-zzz--node1-VOLQOD_clean_sbu_1--node2-VETTIZ_charged_linker_0--edge1-OJICUG_clean_linker_0
_symmetry_space_group_name_H-M    P1
_symmetry_Int_Tables_number       1
_symmetry_cell_setting            triclinic
loop_
_symmetry_equiv_pos_as_xyz
'x, y, z'
_cell_length_a     44.643441
_cell_length_b     43.954611
_cell_length_c     17.652505
_cell_angle_alpha  90.233489
_cell_angle_beta   90.050354
_cell_angle_gamma 92.334442
loop_
_atom_site_label
_atom_site_type_symbol
_atom_site_fract_x
_atom_site_fract_y
_atom_site_fract_z
_atom_type_partial_charge
C0 C 0.83563 0.51709 0.32641 0.0
C1 C 0.86638 0.52457 0.33989 0.0
C2 C 0.88437 0.53522 0.27956 0.0
C3 C 0.84318 0.527 0.19231 0.0
C4 C 0.82428 0.51923 0.25163 0.0
C5 C 0.79218 0.51425 0.22345 0.0
H6 H 0.70328 0.4835 0.9114 0.0
C7 C 0.8267 0.52276 0.12066 0.0
C8 C 0.79643 0.5155 0.13729 0.0
H9 H 0.67108 0.50142 0.13669 0.0
H10 H 0.7229 0.50878 0.18181 0.0
H11 H 0.74873 0.53895 0.90623 0.0
H12 H 0.75697 0.4443 0.95629 0.0
H13 H 0.79142 0.45548 0.91536 0.0
H14 H 0.75734 0.45794 0.8608 0.0
H15 H 0.74531 0.50906 0.83673 0.0
H16 H 0.78105 0.52727 0.8593 0.0
C17 C 0.77396 0.54099 0.2526 0.0
C18 C 0.77945 0.48296 0.24981 0.0
C19 C 0.88889 0.50983 0.88447 0.0
C20 C 0.88245 0.49531 0.81504 0.0
C21 C 0.85244 0.48837 0.79513 0.0
C22 C 0.82926 0.4944 0.84583 0.0
C23 C 0.83631 0.50671 0.91781 0.0
C24 C 0.86571 0.51455 0.93553 0.0
C25 C 0.86964 0.52443 0.01659 0.0
C26 C 0.83771 0.52017 0.04564 0.0
C27 C 0.81835 0.51057 0.98728 0.0
C28 C 0.87995 0.55853 0.01654 0.0
C29 C 0.89185 0.503 0.05604 0.0
C30 C 0.70729 0.48877 0.9707 0.0
C31 C 0.68332 0.49155 0.02064 0.0
C32 C 0.68939 0.49909 0.09718 0.0
C33 C 0.71933 0.50359 0.12299 0.0
C34 C 0.74316 0.50136 0.07113 0.0
C35 C 0.73654 0.49426 0.99628 0.0
C36 C 0.76357 0.49454 0.94666 0.0
C37 C 0.78763 0.50455 1.00246 0.0
C38 C 0.7762 0.50767 0.07646 0.0
C39 C 0.75961 0.5185 0.88342 0.0
C40 C 0.76761 0.46152 0.91763 0.0
H41 H 0.8882 0.54404 0.1629 0.0
H42 H 0.82111 0.50969 0.37243 0.0
H43 H 0.79451 0.46469 0.23218 0.0
H44 H 0.7571 0.47746 0.22531 0.0
H45 H 0.7773 0.48235 0.31248 0.0
H46 H 0.78704 0.56294 0.24667 0.0
H47 H 0.76827 0.53799 0.31345 0.0
H48 H 0.75316 0.54374 0.22019 0.0
H49 H 0.91186 0.51467 0.90213 0.0
H50 H 0.8471 0.47712 0.74181 0.0
H51 H 0.80689 0.48807 0.82803 0.0
H52 H 0.86836 0.57108 0.97121 0.0
H53 H 0.90445 0.5613 0.00617 0.0
H54 H 0.87432 0.5704 0.06969 0.0
H55 H 0.89657 0.48264 0.02111 0.0
H56 H 0.88281 0.4933 0.10949 0.0
H57 H 0.91377 0.51492 0.06796 0.0
H58 H 0.90788 0.54135 0.2886 0.0
C59 C 0.87299 0.53652 0.20633 0.0
C60 C 0.1125 0.8251 0.91691 0.0
C61 C 0.11457 0.8567 0.93122 0.0
C62 C 0.11634 0.86682 0.007 0.0
C63 C 0.10183 0.81618 0.04928 0.0
C64 C 0.10554 0.80518 0.97685 0.0
C65 C 0.09658 0.77178 0.97101 0.0
H66 H 1.00089 0.65875 0.07597 0.0
C67 C 0.08478 0.79284 0.09307 0.0
C68 C 0.08212 0.76643 0.04868 0.0
H69 H 0.0733 0.65615 0.91382 0.0
H70 H 0.09251 0.70522 0.95776 0.0
H71 H 0.047 0.68978 0.21645 0.0
H72 H 0.9868 0.73382 0.06191 0.0
H73 H 0.9812 0.74464 0.15742 0.0
H74 H 0.97314 0.70588 0.12904 0.0
H75 H 0.00722 0.6815 0.21834 0.0
H76 H 0.02336 0.71504 0.26374 0.0
C77 C 0.12547 0.75371 0.96023 0.0
C78 C 0.07372 0.76698 0.90553 0.0
C79 C 0.02601 0.83245 0.31296 0.0
C80 C 1.00069 0.82204 0.35294 0.0
C81 C 0.98915 0.79211 0.3397 0.0
C82 C 1.00236 0.77339 0.2844 0.0
C83 C 0.02713 0.78493 0.2421 0.0
C84 C 0.03845 0.81405 0.25784 0.0
C85 C 0.06342 0.82419 0.20652 0.0
C86 C 0.06598 0.79622 0.15702 0.0
C87 C 0.04483 0.77295 0.17749 0.0
C88 C 0.092 0.82986 0.25529 0.0
C89 C 0.05344 0.85267 0.1618 0.0
C90 C 0.0207 0.66908 0.04973 0.0
C91 C 0.03529 0.65409 0.98998 0.0
C92 C 0.06151 0.66758 0.95868 0.0
C93 C 0.07246 0.69608 0.98337 0.0
C94 C 0.05675 0.71175 0.0387 0.0
C95 C 0.03228 0.69791 0.07421 0.0
C96 C 0.02135 0.71759 0.13865 0.0
C97 C 0.04317 0.74533 0.13416 0.0
C98 C 0.06288 0.74186 0.07281 0.0
C99 C 0.0247 0.70012 0.21359 0.0
C100 C 0.98881 0.72593 0.12143 0.0
H101 H 0.11058 0.85555 0.12267 0.0
H102 H 0.11279 0.81661 0.8593 0.0
H103 H 0.0548 0.78247 0.91231 0.0
H104 H 0.06402 0.74355 0.90276 0.0
H105 H 0.08446 0.77159 0.84983 0.0
H106 H 0.14621 0.76863 0.96079 0.0
H107 H 0.12534 0.74139 0.90513 0.0
H108 H 0.12831 0.737 0.0065 0.0
H109 H 0.03539 0.85532 0.32227 0.0
H110 H 0.96961 0.78358 0.37048 0.0
H111 H 0.99251 0.75097 0.27551 0.0
H112 H 0.09345 0.81232 0.30032 0.0
H113 H 0.09195 0.85251 0.28346 0.0
H114 H 0.11285 0.82819 0.22201 0.0
H115 H 0.03016 0.859 0.17525 0.0
H116 H 0.05315 0.84874 0.09972 0.0
H117 H 0.06793 0.87315 0.17473 0.0
H118 H 0.11885 0.89084 0.02048 0.0
C119 C 0.11048 0.84647 0.06633 0.0
C120 C 0.83922 0.99191 0.05652 0.0
C121 C 0.85441 0.00674 0.99576 0.0
C122 C 0.84275 0.0334 0.96581 0.0
C123 C 0.80088 0.02969 0.0522 0.0
C124 C 0.81255 1.00421 0.08482 0.0
C125 C 0.79352 0.9934 0.15164 0.0
H126 H 0.66529 0.01276 0.35869 0.0
C127 C 0.77305 0.03697 0.09163 0.0
C128 C 0.76873 0.01651 0.15221 0.0
H129 H 0.72823 0.94234 0.39263 0.0
H130 H 0.76035 0.96428 0.29245 0.0
H131 H 0.71383 0.06972 0.33043 0.0
H132 H 0.6588 0.0067 0.20634 0.0
H133 H 0.66715 0.0335 0.13574 0.0
H134 H 0.64713 0.0446 0.21971 0.0
H135 H 0.67382 0.06987 0.32008 0.0
H136 H 0.69851 0.09029 0.25524 0.0
C137 C 0.81286 0.99562 0.22404 0.0
C138 C 0.78109 0.96085 0.13447 0.0
C139 C 0.69735 0.0994 0.95733 0.0
C140 C 0.66644 0.10086 0.97267 0.0
C141 C 0.65709 0.09966 0.04894 0.0
C142 C 0.6768 0.09074 0.10551 0.0
C143 C 0.70555 0.08187 0.08499 0.0
C144 C 0.71632 0.08848 0.01352 0.0
C145 C 0.74724 0.07674 1.00156 0.0
C146 C 0.75117 0.05846 0.07404 0.0
C147 C 0.72658 0.0615 0.12201 0.0
C148 C 0.76978 0.10452 0.99674 0.0
C149 C 0.74659 0.05612 0.9299 0.0
C150 C 0.68622 1.00225 0.3454 0.0
C151 C 0.69427 0.97595 0.38302 0.0
C152 C 0.7216 0.96274 0.36398 0.0
C153 C 0.74003 0.9754 0.3057 0.0
C154 C 0.73082 1.00133 0.26625 0.0
C155 C 0.7043 0.01419 0.28754 0.0
C156 C 0.69603 0.04005 0.23836 0.0
C157 C 0.72233 0.04164 0.18445 0.0
C158 C 0.74298 0.01898 0.2 0.0
C159 C 0.69525 0.0691 0.28831 0.0
C160 C 0.66578 0.03105 0.19808 0.0
H161 H 0.80888 0.06536 0.96863 0.0
H162 H 0.84813 0.97179 0.08188 0.0
H163 H 0.77142 0.95956 0.07639 0.0
H164 H 0.76292 0.9535 0.17333 0.0
H165 H 0.79916 0.94425 0.13791 0.0
H166 H 0.82542 0.01798 0.22677 0.0
H167 H 0.82941 0.97742 0.22492 0.0
H168 H 0.79929 0.99401 0.27613 0.0
H169 H 0.70561 0.10225 0.90007 0.0
H170 H 0.6338 0.10183 0.06414 0.0
H171 H 0.66794 0.08832 0.16157 0.0
H172 H 0.75969 0.12608 0.01506 0.0
H173 H 0.77798 0.1081 0.93793 0.0
H174 H 0.78932 0.10196 0.03477 0.0
H175 H 0.72684 0.03986 0.93134 0.0
H176 H 0.76637 0.04216 0.92417 0.0
H177 H 0.74514 0.06993 0.87758 0.0
H178 H 0.8541 0.04532 0.91974 0.0
C179 C 0.81643 0.04502 0.99405 0.0
C180 C 0.56671 0.68641 0.3972 0.0
C181 C 0.57475 0.65557 0.40317 0.0
C182 C 0.58294 0.63978 0.33715 0.0
C183 C 0.56533 0.6806 0.26168 0.0
C184 C 0.5638 0.69911 0.32429 0.0
C185 C 0.55541 0.73095 0.30075 0.0
H186 H 0.50153 0.81791 0.01596 0.0
C187 C 0.55162 0.69553 0.19794 0.0
C188 C 0.55086 0.72664 0.21488 0.0
H189 H 0.58291 0.84323 0.13693 0.0
H190 H 0.58152 0.7928 0.19772 0.0
H191 H 0.52748 0.76049 0.96521 0.0
H192 H 0.4655 0.77152 0.14995 0.0
H193 H 0.45429 0.73864 0.09833 0.0
H194 H 0.45468 0.77531 0.05256 0.0
H195 H 0.48878 0.76829 0.9496 0.0
H196 H 0.50084 0.7301 0.96159 0.0
C197 C 0.58106 0.75395 0.32076 0.0
C198 C 0.52604 0.73955 0.33965 0.0
C199 C 0.47993 0.62663 0.04723 0.0
C200 C 0.45741 0.63215 0.99405 0.0
C201 C 0.44969 0.66241 0.98023 0.0
C202 C 0.46528 0.6868 0.01621 0.0
C203 C 0.48922 0.68082 0.06513 0.0
C204 C 0.49567 0.65109 0.08131 0.0
C205 C 0.52133 0.6487 0.1358 0.0
C206 C 0.53018 0.68224 0.14705 0.0
C207 C 0.51099 0.70079 0.10666 0.0
C208 C 0.54678 0.63063 0.09892 0.0
C209 C 0.50868 0.63362 0.20884 0.0
C210 C 0.51796 0.8137 0.05951 0.0
C211 C 0.54142 0.83519 0.07448 0.0
C212 C 0.56395 0.82759 0.12673 0.0
C213 C 0.56273 0.79911 0.16374 0.0
C214 C 0.53857 0.77845 0.14923 0.0
C215 C 0.51755 0.7853 0.09491 0.0
C216 C 0.49965 0.75745 0.06841 0.0
C217 C 0.51461 0.73284 0.11276 0.0
C218 C 0.53537 0.7456 0.16459 0.0
C219 C 0.50409 0.75377 0.98168 0.0
C220 C 0.46669 0.76078 0.0929 0.0
H221 H 0.58303 0.63919 0.21611 0.0
H222 H 0.56135 0.69942 0.44722 0.0
H223 H 0.5078 0.72225 0.3273 0.0
H224 H 0.51885 0.76197 0.319 0.0
H225 H 0.52905 0.74114 0.40205 0.0
H226 H 0.60077 0.75082 0.28351 0.0
H227 H 0.58825 0.75103 0.3805 0.0
H228 H 0.57364 0.77763 0.31577 0.0
H229 H 0.48687 0.60372 0.05804 0.0
H230 H 0.43247 0.6672 0.93918 0.0
H231 H 0.45891 0.70938 1.00228 0.0
H232 H 0.54132 0.62302 0.0402 0.0
H233 H 0.55144 0.60983 0.13176 0.0
H234 H 0.56791 0.64474 0.09434 0.0
H235 H 0.49217 0.64836 0.23645 0.0
H236 H 0.52618 0.62885 0.25062 0.0
H237 H 0.49721 0.61131 0.19574 0.0
H238 H 0.58999 0.61652 0.34035 0.0
C239 C 0.57829 0.65233 0.26585 0.0
C240 C 0.33213 0.49227 0.31466 0.0
C241 C 0.3418 0.50077 0.38839 0.0
C242 C 0.32574 0.52241 0.42886 0.0
C243 C 0.29096 0.52667 0.32484 0.0
C244 C 0.3064 0.50543 0.28411 0.0
C245 C 0.29133 0.49857 0.20849 0.0
H246 H 0.17784 0.53161 0.96419 0.0
C247 C 0.26596 0.53692 0.27815 0.0
C248 C 0.26623 0.52123 0.2086 0.0
H249 H 0.23663 0.45669 0.94516 0.0
H250 H 0.26481 0.47531 0.05625 0.0
H251 H 0.16689 0.51913 0.1346 0.0
H252 H 0.22326 0.5844 0.01631 0.0
H253 H 0.21271 0.60317 0.09962 0.0
H254 H 0.18431 0.59055 0.03212 0.0
H255 H 0.15311 0.54992 0.07982 0.0
H256 H 0.16205 0.55438 0.17805 0.0
C257 C 0.27885 0.46524 0.21014 0.0
C258 C 0.31402 0.50504 0.14416 0.0
C259 C 0.18471 0.59858 0.39445 0.0
C260 C 0.15794 0.60915 0.36332 0.0
C261 C 0.15672 0.61417 0.28451 0.0
C262 C 0.17904 0.60339 0.2369 0.0
C263 C 0.20259 0.58745 0.26866 0.0
C264 C 0.2068 0.58793 0.34594 0.0
C265 C 0.2348 0.57225 0.36866 0.0
C266 C 0.24395 0.55855 0.29316 0.0
C267 C 0.22439 0.56683 0.23554 0.0
C268 C 0.22642 0.54727 0.42766 0.0
C269 C 0.25802 0.59693 0.39751 0.0
C270 C 0.19724 0.51964 0.98301 0.0
C271 C 0.20535 0.49307 0.94608 0.0
C272 C 0.23017 0.47743 0.97295 0.0
C273 C 0.24614 0.48803 0.03779 0.0
C274 C 0.23642 0.51384 0.07714 0.0
C275 C 0.21238 0.52915 0.04867 0.0
C276 C 0.20199 0.55337 0.10104 0.0
C277 C 0.22408 0.55086 0.16558 0.0
C278 C 0.24451 0.52781 0.15191 0.0
C279 C 0.16933 0.54411 0.12474 0.0
C280 C 0.20548 0.58454 0.06043 0.0
H281 H 0.28953 0.55164 0.43167 0.0
H282 H 0.34399 0.47555 0.28243 0.0
H283 H 0.32517 0.52795 0.15174 0.0
H284 H 0.30326 0.50491 0.08785 0.0
H285 H 0.33166 0.48793 0.14388 0.0
H286 H 0.26996 0.45925 0.26728 0.0
H287 H 0.29664 0.44916 0.1963 0.0
H288 H 0.25976 0.46111 0.17128 0.0
H289 H 0.1871 0.59528 0.45478 0.0
H290 H 0.13717 0.62376 0.25902 0.0
H291 H 0.17571 0.60545 0.177 0.0
H292 H 0.2058 0.53408 0.40974 0.0
H293 H 0.22212 0.55747 0.48408 0.0
H294 H 0.24383 0.53043 0.43464 0.0
H295 H 0.25192 0.62032 0.38127 0.0
H296 H 0.28053 0.59412 0.37247 0.0
H297 H 0.25994 0.59665 0.46024 0.0
H298 H 0.3329 0.52959 0.48506 0.0
C299 C 0.30068 0.53547 0.39746 0.0
C300 C 0.06802 0.1617 0.45944 0.0
C301 C 0.06715 0.12982 0.45287 0.0
C302 C 0.08616 0.11591 0.4005 0.0
C303 C 0.09855 0.1651 0.34681 0.0
C304 C 0.0846 0.17899 0.40649 0.0
C305 C 0.08705 0.21309 0.40048 0.0
H306 H 0.06895 0.33365 0.20945 0.0
C307 C 0.10522 0.18807 0.28851 0.0
C308 C 0.10159 0.21655 0.32209 0.0
H309 H 0.11513 0.32971 0.42527 0.0
H310 H 0.12658 0.27676 0.39908 0.0
H311 H 0.12607 0.28932 0.12978 0.0
H312 H 0.03543 0.26213 0.19872 0.0
H313 H 0.04429 0.25102 0.10474 0.0
H314 H 0.04212 0.29073 0.12733 0.0
H315 H 0.09405 0.30535 0.08544 0.0
H316 H 0.10587 0.2681 0.05955 0.0
C317 C 0.1068 0.22559 0.46633 0.0
C318 C 0.05551 0.22633 0.40263 0.0
C319 C 0.08984 0.14961 0.02038 0.0
C320 C 0.07876 0.16234 0.9539 0.0
C321 C 0.0729 0.19372 0.95371 0.0
C322 C 0.07827 0.21193 0.01898 0.0
C323 C 0.08884 0.19846 0.08564 0.0
C324 C 0.0939 0.16759 0.08537 0.0
C325 C 0.10175 0.15572 0.162 0.0
C326 C 0.10211 0.18489 0.20857 0.0
C327 C 0.09487 0.21018 0.16368 0.0
C328 C 0.1333 0.14258 0.15804 0.0
C329 C 0.07688 0.13186 0.18671 0.0
C330 C 0.08049 0.32111 0.25249 0.0
C331 C 0.08967 0.3354 0.32151 0.0
C332 C 0.10664 0.31901 0.37373 0.0
C333 C 0.11197 0.28837 0.36138 0.0
C334 C 0.09924 0.27386 0.29827 0.0
C335 C 0.08671 0.29014 0.241 0.0
C336 C 0.08284 0.27031 0.17024 0.0
C337 C 0.09374 0.2396 0.19849 0.0
C338 C 0.10084 0.24236 0.27544 0.0
C339 C 0.10316 0.28394 0.10739 0.0
C340 C 0.04937 0.26843 0.14855 0.0
H341 H 0.1161 0.12251 0.30723 0.0
H342 H 0.05451 0.17269 0.50157 0.0
H343 H 0.04113 0.21633 0.35665 0.0
H344 H 0.05677 0.2514 0.39557 0.0
H345 H 0.04435 0.22163 0.4578 0.0
H346 H 0.10256 0.21239 0.51912 0.0
H347 H 0.1015 0.24929 0.4811 0.0
H348 H 0.13102 0.22441 0.45255 0.0
H349 H 0.09363 0.12545 0.02337 0.0
H350 H 0.06405 0.20407 0.90328 0.0
H351 H 0.07331 0.23556 0.0159 0.0
H352 H 0.14903 0.15816 0.12645 0.0
H353 H 0.13248 0.12013 0.12872 0.0
H354 H 0.14322 0.13981 0.21486 0.0
H355 H 0.06145 0.14145 0.22909 0.0
H356 H 0.08643 0.11093 0.2097 0.0
H357 H 0.06235 0.12376 0.13902 0.0
H358 H 0.08653 0.09133 0.39621 0.0
C359 C 0.10231 0.13366 0.34768 0.0
C360 C 0.33582 0.03348 0.01739 0.0
C361 C 0.3666 0.04131 1.00435 0.0
C362 C 0.38382 0.05404 0.06421 0.0
C363 C 0.34263 0.04552 0.15074 0.0
C364 C 0.32402 0.03681 0.0915 0.0
C365 C 0.29172 0.03287 0.11905 0.0
H366 H 0.20113 0.01743 0.43435 0.0
C367 C 0.32605 0.04226 0.22214 0.0
C368 C 0.29559 0.03582 0.20524 0.0
H369 H 0.16941 0.02649 0.20507 0.0
H370 H 0.22148 0.02857 0.15934 0.0
H371 H 0.24948 0.97201 0.39629 0.0
H372 H 0.2508 0.06839 0.43199 0.0
H373 H 0.28187 0.05481 0.48096 0.0
H374 H 0.24477 0.04057 0.50521 0.0
H375 H 0.25343 0.98805 0.48926 0.0
H376 H 0.28563 0.98046 0.43119 0.0
C377 C 0.27857 1.00129 0.09569 0.0
C378 C 0.274 0.05921 0.08635 0.0
C379 C 0.387 0.02303 0.45764 0.0
C380 C 0.37896 0.0097 0.52717 0.0
C381 C 0.34861 0.00738 0.54812 0.0
C382 C 0.3264 0.01655 0.49804 0.0
C383 C 0.33463 0.02709 0.42538 0.0
C384 C 0.36456 0.0308 0.40691 0.0
C385 C 0.36932 0.03968 0.32552 0.0
C386 C 0.33702 0.03952 0.29719 0.0
C387 C 0.31706 0.03233 0.35596 0.0
C388 C 0.38764 0.01459 0.28721 0.0
C389 C 0.38492 0.07191 0.3235 0.0
C390 C 0.20514 0.02043 0.37423 0.0
C391 C 0.18118 0.0228 0.32385 0.0
C392 C 0.18757 0.02518 0.24549 0.0
C393 C 0.21769 0.02684 0.21923 0.0
C394 C 0.24147 0.02619 0.27195 0.0
C395 C 0.23452 0.02257 0.34788 0.0
C396 C 0.26146 0.02172 0.3976 0.0
C397 C 0.28606 0.02827 0.34084 0.0
C398 C 0.27487 0.03016 0.26625 0.0
C399 C 0.26265 0.98905 0.43087 0.0
C400 C 0.25976 0.04752 0.4576 0.0
H401 H 0.38638 0.06571 0.18003 0.0
H402 H 0.32165 0.02496 0.9716 0.0
H403 H 0.28678 0.08129 0.0937 0.0
H404 H 0.25238 0.06186 0.11508 0.0
H405 H 0.2698 0.05571 0.0248 0.0
H406 H 0.2933 0.98315 0.11563 0.0
H407 H 0.27655 0.99946 0.0331 0.0
H408 H 0.25611 0.9967 0.12036 0.0
H409 H 0.41025 0.02465 0.44009 0.0
H410 H 0.34207 0.99719 0.6017 0.0
H411 H 0.30365 0.01378 0.5168 0.0
H412 H 0.37719 0.99166 0.29867 0.0
H413 H 0.41097 0.01505 0.30915 0.0
H414 H 0.38922 0.01663 0.22535 0.0
H415 H 0.38541 0.08321 0.38004 0.0
H416 H 0.37288 0.08755 0.28601 0.0
H417 H 0.40856 0.07097 0.30428 0.0
H418 H 0.40721 0.06077 0.05589 0.0
C419 C 0.37192 0.05648 0.13668 0.0
C420 C 0.46357 0.2893 0.01222 0.0
C421 C 0.44621 0.31407 0.98777 0.0
C422 C 0.41792 0.31767 0.02248 0.0
C423 C 0.43156 0.28399 0.121 0.0
C424 C 0.45456 0.27339 0.0787 0.0
C425 C 0.46622 0.24499 0.11667 0.0
H426 H 0.4731 0.16985 0.45918 0.0
C427 C 0.43244 0.27131 0.19599 0.0
C428 C 0.45058 0.24608 0.19455 0.0
H429 H 0.50379 0.13518 0.24486 0.0
H430 H 0.48744 0.18127 0.18198 0.0
H431 H 0.49929 0.22669 0.45511 0.0
H432 H 0.41094 0.19834 0.40721 0.0
H433 H 0.41106 0.23311 0.4588 0.0
H434 H 0.43074 0.20149 0.49593 0.0
H435 H 0.47079 0.24115 0.51281 0.0
H436 H 0.48567 0.26279 0.43341 0.0
C437 C 0.50058 0.24739 0.12369 0.0
C438 C 0.45505 0.21729 0.06912 0.0
C439 C 0.4441 0.35098 0.39777 0.0
C440 C 0.45272 0.34901 0.47444 0.0
C441 C 0.4469 0.32109 0.51226 0.0
C442 C 0.43761 0.29487 0.47161 0.0
C443 C 0.43448 0.29658 0.39277 0.0
C444 C 0.43497 0.3246 0.35812 0.0
C445 C 0.42934 0.32209 0.27427 0.0
C446 C 0.42831 0.28739 0.26427 0.0
C447 C 0.43344 0.27295 0.33323 0.0
C448 C 0.45582 0.33788 0.23089 0.0
C449 C 0.39932 0.33674 0.25604 0.0
C450 C 0.47627 0.17184 0.39854 0.0
C451 C 0.48974 0.14876 0.35724 0.0
C452 C 0.49311 0.15244 0.27806 0.0
C453 C 0.48341 0.17895 0.24154 0.0
C454 C 0.46984 0.20169 0.28442 0.0
C455 C 0.46691 0.19785 0.36186 0.0
C456 C 0.45389 0.22461 0.40076 0.0
C457 C 0.44643 0.244 0.33311 0.0
C458 C 0.45605 0.23086 0.26449 0.0
C459 C 0.47845 0.2397 0.45316 0.0
C460 C 0.42513 0.2139 0.44341 0.0
H461 H 0.38968 0.30661 0.11805 0.0
H462 H 0.48401 0.28366 0.9835 0.0
H463 H 0.43065 0.21846 0.0571 0.0
H464 H 0.45793 0.1955 0.09803 0.0
H465 H 0.46704 0.21673 0.01401 0.0
H466 H 0.50772 0.26855 0.15462 0.0
H467 H 0.51121 0.24792 0.06681 0.0
H468 H 0.50919 0.22783 0.15504 0.0
H469 H 0.44697 0.37196 0.36667 0.0
H470 H 0.45103 0.31903 0.5724 0.0
H471 H 0.43418 0.27397 0.50207 0.0
H472 H 0.47725 0.32711 0.24476 0.0
H473 H 0.45814 0.36247 0.24506 0.0
H474 H 0.45262 0.33687 0.16884 0.0
H475 H 0.39627 0.3574 0.29132 0.0
H476 H 0.38 0.32059 0.26678 0.0
H477 H 0.39851 0.34476 0.19678 0.0
H478 H 0.40211 0.3334 1.00028 0.0
C479 C 0.41073 0.30293 0.0901 0.0
O480 O 0.07801 0.01151 0.57081 0.0
Zn481 Zn 0.05371 0.00576 0.66762 0.0
O482 O 0.01128 0.99582 0.64353 0.0
Zn483 Zn 0.98777 0.02895 0.68496 0.0
Zn484 Zn 0.00693 0.99197 0.53168 0.0
Zn485 Zn 0.99617 0.95749 0.6901 0.0
O486 O 0.96142 0.01403 0.7702 0.0
O487 O 0.96292 0.96359 0.77018 0.0
O488 O 0.05887 0.04539 0.7288 0.0
O489 O 0.01343 0.06402 0.72753 0.0
O490 O 0.96153 0.04332 0.60145 0.0
O491 O 0.97614 0.02175 0.49788 0.0
O492 O 0.99278 0.9492 0.50251 0.0
O493 O 0.07121 0.97086 0.72595 0.0
O494 O 0.9835 0.92533 0.61116 0.0
O495 O 0.03125 0.93931 0.74018 0.0
C496 C 0.07278 0.00879 0.49992 0.0
C497 C 0.95297 0.98826 0.79711 0.0
C498 C 0.97215 0.04612 0.53508 0.0
C499 C 0.04113 0.06659 0.7448 0.0
C500 C 0.98436 0.92536 0.53892 0.0
C501 C 0.05909 0.94584 0.74938 0.0
O502 O 0.04664 1.00103 0.47546 0.0
O503 O 0.51411 0.05174 0.61833 0.0
Zn504 Zn 0.51701 0.02782 0.71566 0.0
O505 O 0.52736 0.98573 0.69237 0.0
Zn506 Zn 0.49663 0.95892 0.73956 0.0
Zn507 Zn 0.52908 0.97969 0.58032 0.0
Zn508 Zn 0.56633 0.97521 0.73475 0.0
O509 O 0.51321 0.93634 0.82762 0.0
O510 O 0.56262 0.94321 0.82001 0.0
O511 O 0.47659 0.02952 0.77147 0.0
O512 O 0.46046 0.98115 0.77727 0.0
O513 O 0.48575 0.92862 0.65942 0.0
O514 O 0.49753 0.94744 0.54941 0.0
O515 O 0.57013 0.96673 0.54713 0.0
O516 O 0.55049 0.0493 0.77617 0.0
O517 O 0.59628 0.96298 0.65345 0.0
O518 O 0.58436 0.01347 0.7787 0.0
C519 C 0.51597 0.04605 0.54759 0.0
C520 C 0.53936 0.9312 0.85197 0.0
C521 C 0.47728 0.93855 0.59597 0.0
C522 C 0.45642 0.00931 0.78937 0.0
C523 C 0.59449 0.96126 0.58139 0.0
C524 C 0.57658 0.04049 0.79246 0.0
O525 O 0.52101 0.01931 0.52348 0.0
O526 O 0.44538 0.47191 0.63076 0.0
Zn527 Zn 0.47364 0.47457 0.72152 0.0
O528 O 0.51519 0.48414 0.6903 0.0
Zn529 Zn 0.53977 0.44903 0.7171 0.0
Zn530 Zn 0.51501 0.49386 0.58117 0.0
Zn531 Zn 0.53244 0.52031 0.74176 0.0
O532 O 0.57138 0.46123 0.79595 0.0
O533 O 0.5642 0.51005 0.81931 0.0
O534 O 0.47086 0.43462 0.77905 0.0
O535 O 0.51494 0.41372 0.7631 0.0
O536 O 0.55944 0.43548 0.62094 0.0
O537 O 0.54351 0.46521 0.53297 0.0
O538 O 0.52974 0.53725 0.56069 0.0
O539 O 0.45849 0.50847 0.7877 0.0
O540 O 0.54942 0.55305 0.67025 0.0
O541 O 0.49892 0.53992 0.79402 0.0
C542 C 0.44819 0.47916 0.56111 0.0
C543 C 0.57776 0.48567 0.83291 0.0
C544 C 0.54485 0.43846 0.5597 0.0
C545 C 0.48816 0.41248 0.78828 0.0
C546 C 0.54404 0.55729 0.60031 0.0
C547 C 0.47149 0.53346 0.80844 0.0
O548 O 0.47342 0.48871 0.53487 0.0
O549 O 0.97385 0.52731 0.58126 0.0
Zn550 Zn 0.01506 0.53214 0.63199 0.0
O551 O 0.03329 0.49249 0.64678 0.0
Zn552 Zn 0.03838 0.4852 0.75721 0.0
Zn553 Zn 0.00687 0.46103 0.59865 0.0
Zn554 Zn 0.07301 0.49076 0.6007 0.0
O555 O 0.08076 0.47463 0.78437 0.0
O556 O 0.106 0.48382 0.67818 0.0
O557 O 0.01143 0.55482 0.7321 0.0
O558 O 0.02996 0.52376 0.81763 0.0
O559 O 0.0091 0.45146 0.79041 0.0
O560 O 0.99989 0.43068 0.68048 0.0
O561 O 0.02728 0.43931 0.51274 0.0
O562 O 0.04226 0.55908 0.56628 0.0
O563 O 0.07426 0.45765 0.5192 0.0
O564 O 0.0825 0.53101 0.55256 0.0
C565 C 0.958 0.50447 0.5567 0.0
C566 C 0.10543 0.47668 0.74813 0.0
C567 C 0.99015 0.43973 0.74374 0.0
C568 C 0.01893 0.54917 0.80025 0.0
C569 C 0.0543 0.4397 0.48939 0.0
C570 C 0.06879 0.5555 0.54227 0.0
O571 O 0.96764 0.47758 0.5606 0.0
C572 C 0.12707 1.00297 0.3337 0.0
C573 C 0.15039 0.02343 0.3569 0.0
H574 H 0.08378 0.98229 0.36077 0.0
C575 C 0.14588 0.04158 0.42149 0.0
H576 H 0.12988 0.9886 0.28444 0.0
C577 C 0.12023 0.03738 0.4659 0.0
C578 C 0.09779 0.01551 0.44607 0.0
H579 H 0.16315 0.05796 0.44025 0.0
H580 H 0.11838 0.05074 0.51727 0.0
C581 C 0.10082 0.99921 0.37773 0.0
C582 C 0.49409 0.09173 0.37382 0.0
C583 C 0.50036 0.12174 0.39919 0.0
H584 H 0.49413 0.04396 0.40088 0.0
C585 C 0.5143 0.12605 0.47019 0.0
H586 H 0.48325 0.0876 0.31963 0.0
C587 C 0.51987 0.10139 0.51687 0.0
C588 C 0.51229 0.07149 0.49352 0.0
H589 H 0.52014 0.14876 0.49091 0.0
H590 H 0.52977 0.10582 0.57208 0.0
C591 C 0.50016 0.06678 0.42049 0.0
C592 C 0.3667 0.47722 0.49938 0.0
C593 C 0.36876 0.48845 0.42499 0.0
H594 H 0.38992 0.46513 0.60019 0.0
C595 C 0.39725 0.49269 0.39213 0.0
H596 H 0.34499 0.47365 0.52604 0.0
C597 C 0.4232 0.48808 0.43499 0.0
C598 C 0.42112 0.47902 0.51146 0.0
H599 H 0.3995 0.50154 0.33514 0.0
H600 H 0.44485 0.49306 0.40927 0.0
C601 C 0.39251 0.47245 0.54196 0.0
C602 C 0.10215 0.38758 0.3728 0.0
C603 C 0.08057 0.36628 0.34432 0.0
H604 H 0.11087 0.4276 0.44011 0.0
C605 C 0.05011 0.37191 0.35438 0.0
H606 H 0.12582 0.38373 0.3661 0.0
C607 C 0.04145 0.39686 0.39784 0.0
C608 C 0.06312 0.41681 0.43177 0.0
H609 H 0.03302 0.35568 0.33391 0.0
H610 H 0.01779 0.39951 0.40826 0.0
C611 C 0.09354 0.41263 0.41569 0.0
C612 C 0.8832 0.97025 0.91585 0.0
C613 C 0.88284 0.99635 0.9623 0.0
H614 H 0.90611 0.94679 0.82686 0.0
C615 C 0.90787 0.01674 0.96173 0.0
H616 H 0.86395 0.95444 0.91424 0.0
C617 C 0.93146 0.01276 0.91124 0.0
C618 C 0.93088 0.98807 0.86029 0.0
H619 H 0.90811 0.03714 0.99646 0.0
H620 H 0.94952 0.02998 0.90938 0.0
C621 C 0.90721 0.966 0.86549 0.0
C622 C 0.5694 0.8725 0.98859 0.0
C623 C 0.54319 0.86363 0.02853 0.0
H624 H 0.58894 0.90089 0.90107 0.0
C625 C 0.51706 0.87961 0.01569 0.0
H626 H 0.58984 0.86047 0.99676 0.0
C627 C 0.51644 0.90234 0.96077 0.0
C628 C 0.54199 0.90994 0.91705 0.0
H629 H 0.4966 0.87359 0.04607 0.0
H630 H 0.49549 0.91329 0.95096 0.0
C631 C 0.56882 0.89551 0.9334 0.0
C632 C 0.63452 0.51326 0.98241 0.0
C633 C 0.65259 0.48799 0.98868 0.0
H634 H 0.59677 0.53254 0.92788 0.0
C635 C 0.64417 0.46113 0.94931 0.0
H636 H 0.64085 0.53441 0.01102 0.0
C637 C 0.61917 0.46002 0.90139 0.0
C638 C 0.60211 0.4859 0.8909 0.0
H639 H 0.65796 0.44145 0.95247 0.0
H640 H 0.61408 0.43924 0.86996 0.0
C641 C 0.60953 0.51225 0.93391 0.0
C642 C 0.03694 0.59768 0.97456 0.0
C643 C 0.02375 0.62511 0.95571 0.0
H644 H 0.04536 0.55189 0.94096 0.0
C645 C 0.00571 0.62605 0.89069 0.0
H646 H 0.05155 0.59665 0.02344 0.0
C647 C 1.00255 0.60068 0.84255 0.0
C648 C 0.01744 0.57379 0.8584 0.0
H649 H 0.99587 0.64716 0.87409 0.0
H650 H 0.98977 0.60275 0.79079 0.0
C651 C 0.03358 0.57216 0.92679 0.0
C652 C 0.04874 0.08514 0.52901 0.0
C653 C 0.04272 0.11149 0.48838 0.0
H654 H 0.03032 0.04419 0.57842 0.0
C655 C 0.01286 0.11786 0.47109 0.0
H656 H 0.07156 0.07993 0.54322 0.0
C657 C 0.98957 0.09705 0.48947 0.0
C658 C 0.99586 0.06988 0.52606 0.0
H659 H 0.00776 0.13796 0.43895 0.0
H660 H 0.96689 0.10152 0.47212 0.0
C661 C 0.02534 0.06465 0.54839 0.0
C662 C 0.39761 0.96133 0.57731 0.0
C663 C 0.40174 0.993 0.5684 0.0
H664 H 0.41905 0.91894 0.59277 0.0
C665 C 0.43001 0.00694 0.58244 0.0
H666 H 0.37601 0.95007 0.56609 0.0
C667 C 0.4544 0.98913 0.59735 0.0
C668 C 0.45089 0.95728 0.59767 0.0
H669 H 0.43364 0.03134 0.57644 0.0
H670 H 0.47625 1.00007 0.60514 0.0
C671 C 0.42217 0.94351 0.59176 0.0
C672 C 0.49461 0.36689 0.56201 0.0
C673 C 0.47219 0.37389 0.5092 0.0
H674 H 0.53473 0.38177 0.61994 0.0
C675 C 0.47229 0.40372 0.48027 0.0
H676 H 0.49597 0.34427 0.58532 0.0
C677 C 0.49588 0.42452 0.49629 0.0
C678 C 0.51875 0.41712 0.54673 0.0
H679 H 0.45503 0.41081 0.44192 0.0
H680 H 0.49662 0.44606 0.46689 0.0
C681 C 0.51734 0.38836 0.58118 0.0
C682 C 0.10371 0.59335 0.37536 0.0
C683 C 0.12981 0.60676 0.40873 0.0
H684 H 0.0631 0.56671 0.39333 0.0
C685 C 0.13067 0.61022 0.48804 0.0
H686 H 0.102 0.59 0.31472 0.0
C687 C 0.10839 0.5962 0.53295 0.0
C688 C 0.08452 0.57951 0.49906 0.0
H689 H 0.14995 0.62113 0.5157 0.0
H690 H 0.11123 0.59608 0.59392 0.0
C691 C 0.08126 0.5798 0.42034 0.0
C692 C 0.11732 0.90891 0.87126 0.0
C693 C 0.10615 0.87845 0.8713 0.0
H694 H 0.11118 0.9545 0.832 0.0
C695 C 0.08201 0.8702 0.8232 0.0
H696 H 0.13601 0.91596 0.90726 0.0
C697 C 0.0678 0.89211 0.78137 0.0
C698 C 0.07739 0.92284 0.78587 0.0
H699 H 0.07236 0.8472 0.82215 0.0
H700 H 0.04839 0.88505 0.74774 0.0
C701 C 0.10312 0.93096 0.82839 0.0
C702 C 0.61388 0.10099 0.91821 0.0
C703 C 0.64416 0.09329 0.91171 0.0
H704 H 0.56825 0.0901 0.8854 0.0
C705 C 0.65174 0.07205 0.85566 0.0
H706 H 0.6072 0.11768 0.95949 0.0
C707 C 0.62962 0.05649 0.81395 0.0
C708 C 0.59927 0.0617 0.82655 0.0
H709 H 0.67451 0.06503 0.84833 0.0
H710 H 0.63631 0.03901 0.77468 0.0
C711 C 0.59154 0.08527 0.87581 0.0
C712 C 0.45108 0.61102 0.86463 0.0
C713 C 0.44746 0.60696 0.94297 0.0
H714 H 0.46149 0.58975 0.75933 0.0
C715 C 0.44288 0.57724 0.97148 0.0
H716 H 0.45475 0.63355 0.8409 0.0
C717 C 0.44676 0.55206 0.92435 0.0
C718 C 0.45502 0.55659 0.84863 0.0
H719 H 0.43971 0.57356 0.03164 0.0
H720 H 0.44673 0.52952 0.94896 0.0
C721 C 0.4551 0.58594 0.81787 0.0
C722 C 0.90756 0.45095 0.75958 0.0
C723 C 0.90743 0.48255 0.77248 0.0
H724 H 0.93463 0.41238 0.7403 0.0
C725 C 0.93385 0.50032 0.76139 0.0
H726 H 0.88747 0.43673 0.76831 0.0
C727 C 0.96064 0.48634 0.7466 0.0
C728 C 0.96134 0.45452 0.74226 0.0
H729 H 0.93422 0.52474 0.77025 0.0
H730 H 0.98108 0.50022 0.74254 0.0
C731 C 0.93448 0.43698 0.74442 0.0
C732 C 0.09093 0.11902 0.86727 0.0
C733 C 0.07114 0.14165 0.88882 0.0
H734 H 0.09722 0.07788 0.8049 0.0
C735 C 0.04249 0.14123 0.85577 0.0
H736 H 0.11326 0.11883 0.89132 0.0
C737 C 0.03317 0.11757 0.80641 0.0
C738 C 0.05234 0.09384 0.78866 0.0
H739 H 0.02663 0.15814 0.87161 0.0
H740 H 0.01048 0.11727 0.78459 0.0
C741 C 0.0817 0.09549 0.81773 0.0
C742 C 0.385 1.00419 0.90825 0.0
C743 C 0.38275 0.03448 0.93262 0.0
H744 H 0.40997 0.9724 0.84389 0.0
C745 C 0.40207 0.05694 0.90012 0.0
H746 H 0.37077 0.98632 0.93293 0.0
C747 C 0.42481 0.04902 0.84992 0.0
C748 C 0.42891 0.01837 0.83085 0.0
H749 H 0.40095 0.08049 0.91796 0.0
H750 H 0.44024 0.06681 0.82962 0.0
C751 C 0.40782 0.99622 0.8579 0.0
C752 C 0.44797 0.36834 0.94312 0.0
C753 C 0.45755 0.33832 0.9337 0.0
H754 H 0.44929 0.41426 0.90444 0.0
C755 C 0.47821 0.33293 0.87523 0.0
H756 H 0.43347 0.37438 0.98942 0.0
C757 C 0.48838 0.35683 0.82727 0.0
C758 C 0.47768 0.38639 0.83611 0.0
H759 H 0.4864 0.31037 0.86613 0.0
H760 H 0.5043 0.35215 0.78287 0.0
C761 C 0.45735 0.39167 0.89452 0.0
C762 C 0.15914 0.46337 0.90984 0.0
C763 C 0.18464 0.48068 0.88702 0.0
H764 H 0.11405 0.44838 0.88365 0.0
C765 C 0.18551 0.49288 0.81365 0.0
H766 H 0.15769 0.45438 0.96686 0.0
C767 C 0.16053 0.48937 0.76557 0.0
C768 C 0.13399 0.47427 0.79092 0.0
H769 H 0.20463 0.50699 0.79562 0.0
H770 H 0.16124 0.50055 0.711 0.0
C771 C 0.13403 0.46027 0.86245 0.0
C772 C 0.97655 0.87129 0.37284 0.0
C773 C 0.98656 0.84415 0.40413 0.0
H774 H 0.96773 0.91824 0.39115 0.0
C775 C 0.9903 0.8424 0.48296 0.0
H776 H 0.9738 0.87329 0.31208 0.0
C777 C 0.98672 0.86827 0.5287 0.0
C778 C 0.97979 0.89634 0.49596 0.0
H779 H 0.99852 0.82192 0.50823 0.0
H780 H 0.99197 0.86693 0.58848 0.0
C781 C 0.97333 0.8971 0.4181 0.0
C782 C 0.64413 0.95198 0.40986 0.0
C783 C 0.67222 0.96249 0.43754 0.0
H784 H 0.59762 0.94303 0.43366 0.0
C785 C 0.67561 0.96763 0.51571 0.0
H786 H 0.64083 0.94831 0.34963 0.0
C787 C 0.65071 0.96463 0.56432 0.0
C788 C 0.62196 0.95689 0.53522 0.0
H789 H 0.69685 0.97638 0.53817 0.0
H790 H 0.65358 0.97077 0.62344 0.0
C791 C 0.6193 0.94926 0.458 0.0
C792 C 0.59097 0.61912 0.50281 0.0
C793 C 0.5686 0.63706 0.4719 0.0
H794 H 0.60067 0.57987 0.56969 0.0
C795 C 0.53859 0.63073 0.49223 0.0
H796 H 0.61419 0.62309 0.48655 0.0
C797 C 0.53083 0.60548 0.53725 0.0
C798 C 0.55299 0.58656 0.56443 0.0
H799 H 0.52086 0.64362 0.46763 0.0
H800 H 0.50735 0.59988 0.5479 0.0
C801 C 0.58323 0.59427 0.54962 0.0
C802 C 0.88829 0.48994 0.4351 0.0
C803 C 0.88177 0.51964 0.41326 0.0
H804 H 0.91747 0.46172 0.49781 0.0
C805 C 0.89737 0.54426 0.44857 0.0
H806 H 0.87705 0.47055 0.40771 0.0
C807 C 0.9207 0.53932 0.49968 0.0
C808 C 0.92927 0.50959 0.51605 0.0
H809 H 0.89311 0.56739 0.43188 0.0
H810 H 0.93334 0.5589 0.52211 0.0
C811 C 0.9118 0.48494 0.48596 0.0
loop_
_geom_bond_atom_site_label_1
_geom_bond_atom_site_label_2
_geom_bond_distance
_geom_bond_site_symmetry_2
_ccdc_geom_bond_type
C0 C1 1.391 . S
C0 C4 1.391 . S
C0 H42 0.948 . S
C1 C0 1.391 . S
C1 C2 1.391 . S
C2 C1 1.391 . S
C2 H58 0.947 . S
C2 C59 1.392 . S
C3 C4 1.391 . S
C3 C7 1.397 . S
C3 C59 1.419 . S
C4 C0 1.391 . S
C4 C3 1.391 . S
C4 C5 1.399 . S
C5 C4 1.399 . S
C5 C8 1.396 . S
C5 C17 1.453 . S
C5 C18 1.684 . S
H6 C30 0.948 . S
C7 C3 1.397 . S
C7 C8 1.394 . S
C7 C26 1.723 . S
C8 C5 1.396 . S
C8 C7 1.394 . S
C8 C38 1.723 . S
H9 C32 0.947 . S
H10 C33 0.948 . S
H11 C39 0.982 . S
H12 C40 0.979 . S
H13 C40 0.980 . S
H14 C40 0.983 . S
H15 C39 0.979 . S
H16 C39 0.977 . S
C17 C5 1.453 . S
C17 H46 0.982 . S
C17 H47 0.979 . S
C17 H48 0.977 . S
C18 C5 1.684 . S
C18 H43 0.979 . S
C18 H44 0.980 . S
C18 H45 0.983 . S
C19 C20 1.391 . S
C19 C24 1.391 . S
C19 H49 0.948 . S
C20 C19 1.391 . S
C20 C21 1.391 . S
C21 C20 1.391 . S
C21 C22 1.392 . S
C21 H50 0.947 . S
C22 C21 1.392 . S
C22 C23 1.419 . S
C22 H51 0.948 . S
C23 C22 1.419 . S
C23 C24 1.391 . S
C23 C27 1.397 . S
C24 C19 1.391 . S
C24 C23 1.391 . S
C24 C25 1.399 1_556 S
C25 C24 1.399 1_554 S
C25 C26 1.396 . S
C25 C28 1.453 . S
C25 C29 1.684 . S
C26 C7 1.723 . S
C26 C25 1.396 . S
C26 C27 1.394 1_554 S
C27 C23 1.397 . S
C27 C26 1.394 1_556 S
C27 C37 1.723 . S
C28 C25 1.453 . S
C28 H52 0.982 . S
C28 H53 0.979 . S
C28 H54 0.977 . S
C29 C25 1.684 . S
C29 H55 0.979 . S
C29 H56 0.980 . S
C29 H57 0.983 . S
C30 H6 0.948 . S
C30 C31 1.391 . S
C30 C35 1.391 . S
C31 C30 1.391 . S
C31 C32 1.391 1_556 S
C32 H9 0.947 . S
C32 C31 1.391 1_554 S
C32 C33 1.392 . S
C33 H10 0.948 . S
C33 C32 1.392 . S
C33 C34 1.419 . S
C34 C33 1.419 . S
C34 C35 1.391 1_554 S
C34 C38 1.397 . S
C35 C30 1.391 . S
C35 C34 1.391 1_556 S
C35 C36 1.399 . S
C36 C35 1.399 . S
C36 C37 1.396 . S
C36 C39 1.453 . S
C36 C40 1.684 . S
C37 C27 1.723 . S
C37 C36 1.396 . S
C37 C38 1.394 1_556 S
C38 C8 1.723 . S
C38 C34 1.397 . S
C38 C37 1.394 1_554 S
C39 H11 0.982 . S
C39 H15 0.979 . S
C39 H16 0.977 . S
C39 C36 1.453 . S
C40 H12 0.979 . S
C40 H13 0.980 . S
C40 H14 0.983 . S
C40 C36 1.684 . S
H41 C59 0.948 . S
H42 C0 0.948 . S
H43 C18 0.979 . S
H44 C18 0.980 . S
H45 C18 0.983 . S
H46 C17 0.982 . S
H47 C17 0.979 . S
H48 C17 0.977 . S
H49 C19 0.948 . S
H50 C21 0.947 . S
H51 C22 0.948 . S
H52 C28 0.982 . S
H53 C28 0.979 . S
H54 C28 0.977 . S
H55 C29 0.979 . S
H56 C29 0.980 . S
H57 C29 0.983 . S
H58 C2 0.947 . S
C59 C2 1.392 . S
C59 C3 1.419 . S
C59 H41 0.948 . S
C60 C61 1.391 . S
C60 C64 1.391 . S
C60 H102 0.948 . S
C61 C60 1.391 . S
C61 C62 1.391 . S
C62 C61 1.391 . S
C62 H118 0.947 . S
C62 C119 1.392 1_556 S
C63 C64 1.391 1_554 S
C63 C67 1.397 . S
C63 C119 1.419 . S
C64 C60 1.391 . S
C64 C63 1.391 1_556 S
C64 C65 1.399 . S
C65 C64 1.399 . S
C65 C68 1.396 1_556 S
C65 C77 1.453 1_655 S
C65 C78 1.684 . S
H66 C90 0.948 . S
C67 C63 1.397 . S
C67 C68 1.394 . S
C67 C86 1.723 . S
C68 C65 1.396 1_554 S
C68 C67 1.394 . S
C68 C98 1.723 . S
H69 C92 0.947 . S
H70 C93 0.948 . S
H71 C99 0.982 . S
H72 C100 0.979 . S
H73 C100 0.980 . S
H74 C100 0.983 . S
H75 C99 0.979 . S
H76 C99 0.977 . S
C77 C65 1.453 1_455 S
C77 H106 0.982 . S
C77 H107 0.979 . S
C77 H108 0.977 . S
C78 C65 1.684 . S
C78 H103 0.979 . S
C78 H104 0.980 . S
C78 H105 0.983 . S
C79 C80 1.391 . S
C79 C84 1.391 . S
C79 H109 0.948 . S
C80 C79 1.391 . S
C80 C81 1.391 . S
C81 C80 1.391 . S
C81 C82 1.392 . S
C81 H110 0.947 . S
C82 C81 1.392 . S
C82 C83 1.419 . S
C82 H111 0.948 . S
C83 C82 1.419 . S
C83 C84 1.391 . S
C83 C87 1.397 . S
C84 C79 1.391 . S
C84 C83 1.391 . S
C84 C85 1.399 . S
C85 C84 1.399 . S
C85 C86 1.396 . S
C85 C88 1.453 1_655 S
C85 C89 1.684 . S
C86 C67 1.723 . S
C86 C85 1.396 . S
C86 C87 1.394 . S
C87 C83 1.397 . S
C87 C86 1.394 . S
C87 C97 1.723 . S
C88 C85 1.453 1_455 S
C88 H112 0.982 . S
C88 H113 0.979 . S
C88 H114 0.977 . S
C89 C85 1.684 . S
C89 H115 0.979 . S
C89 H116 0.980 . S
C89 H117 0.983 . S
C90 H66 0.948 . S
C90 C91 1.391 . S
C90 C95 1.391 . S
C91 C90 1.391 . S
C91 C92 1.391 1_554 S
C92 H69 0.947 . S
C92 C91 1.391 1_556 S
C92 C93 1.392 . S
C93 H70 0.948 . S
C93 C92 1.392 . S
C93 C94 1.419 1_556 S
C94 C93 1.419 1_554 S
C94 C95 1.391 . S
C94 C98 1.397 . S
C95 C90 1.391 . S
C95 C94 1.391 . S
C95 C96 1.399 . S
C96 C95 1.399 . S
C96 C97 1.396 . S
C96 C99 1.453 1_655 S
C96 C100 1.684 . S
C97 C87 1.723 . S
C97 C96 1.396 . S
C97 C98 1.394 . S
C98 C68 1.723 . S
C98 C94 1.397 . S
C98 C97 1.394 . S
C99 H71 0.982 . S
C99 H75 0.979 . S
C99 H76 0.977 . S
C99 C96 1.453 1_455 S
C100 H72 0.979 . S
C100 H73 0.980 . S
C100 H74 0.983 . S
C100 C96 1.684 . S
H101 C119 0.948 . S
H102 C60 0.948 . S
H103 C78 0.979 . S
H104 C78 0.980 . S
H105 C78 0.983 . S
H106 C77 0.982 . S
H107 C77 0.979 . S
H108 C77 0.977 . S
H109 C79 0.948 . S
H110 C81 0.947 . S
H111 C82 0.948 . S
H112 C88 0.982 . S
H113 C88 0.979 . S
H114 C88 0.977 . S
H115 C89 0.979 . S
H116 C89 0.980 . S
H117 C89 0.983 . S
H118 C62 0.947 . S
C119 C62 1.392 1_554 S
C119 C63 1.419 . S
C119 H101 0.948 . S
C120 C121 1.391 1_554 S
C120 C124 1.391 . S
C120 H162 0.948 . S
C121 C120 1.391 1_556 S
C121 C122 1.391 . S
C122 C121 1.391 . S
C122 H178 0.947 . S
C122 C179 1.392 . S
C123 C124 1.391 . S
C123 C127 1.396 . S
C123 C179 1.419 1_554 S
C124 C120 1.391 . S
C124 C123 1.391 . S
C124 C125 1.399 . S
C125 C124 1.399 . S
C125 C128 1.396 1_565 S
C125 C137 1.453 1_565 S
C125 C138 1.684 . S
H126 C150 0.948 . S
C127 C123 1.396 . S
C127 C128 1.394 1_565 S
C127 C146 1.723 1_564 S
C128 C125 1.396 1_545 S
C128 C127 1.394 1_545 S
C128 C158 1.723 . S
H129 C152 0.947 . S
H130 C153 0.948 . S
H131 C159 0.982 . S
H132 C160 0.979 . S
H133 C160 0.980 . S
H134 C160 0.983 . S
H135 C159 0.979 . S
H136 C159 0.977 . S
C137 C125 1.453 1_545 S
C137 H166 0.982 . S
C137 H167 0.979 . S
C137 H168 0.977 . S
C138 C125 1.684 . S
C138 H163 0.979 . S
C138 H164 0.980 . S
C138 H165 0.983 . S
C139 C140 1.391 . S
C139 C144 1.391 . S
C139 H169 0.948 . S
C140 C139 1.391 . S
C140 C141 1.391 . S
C141 C140 1.391 . S
C141 C142 1.392 . S
C141 H170 0.947 . S
C142 C141 1.392 . S
C142 C143 1.419 . S
C142 H171 0.948 1_556 S
C143 C142 1.419 . S
C143 C144 1.391 . S
C143 C147 1.397 1_566 S
C144 C139 1.391 . S
C144 C143 1.391 . S
C144 C145 1.399 . S
C145 C144 1.399 . S
C145 C146 1.396 1_565 S
C145 C148 1.453 1_565 S
C145 C149 1.684 . S
C146 C127 1.723 1_546 S
C146 C145 1.396 1_545 S
C146 C147 1.394 1_556 S
C147 C143 1.397 1_544 S
C147 C146 1.394 1_554 S
C147 C157 1.723 . S
C148 C145 1.453 1_545 S
C148 H172 0.982 . S
C148 H173 0.979 . S
C148 H174 0.977 . S
C149 C145 1.684 . S
C149 H175 0.979 . S
C149 H176 0.980 . S
C149 H177 0.983 . S
C150 H126 0.948 . S
C150 C151 1.391 . S
C150 C155 1.391 . S
C151 C150 1.391 . S
C151 C152 1.391 . S
C152 H129 0.947 . S
C152 C151 1.391 . S
C152 C153 1.392 . S
C153 H130 0.948 . S
C153 C152 1.392 . S
C153 C154 1.419 . S
C154 C153 1.419 . S
C154 C155 1.391 . S
C154 C158 1.397 1_565 S
C155 C150 1.391 . S
C155 C154 1.391 . S
C155 C156 1.399 . S
C156 C155 1.399 . S
C156 C157 1.396 1_565 S
C156 C159 1.453 1_565 S
C156 C160 1.684 . S
C157 C147 1.723 . S
C157 C156 1.396 1_545 S
C157 C158 1.394 . S
C158 C128 1.723 . S
C158 C154 1.397 1_545 S
C158 C157 1.394 . S
C159 H131 0.982 . S
C159 H135 0.979 . S
C159 H136 0.977 . S
C159 C156 1.453 1_545 S
C160 H132 0.979 . S
C160 H133 0.980 . S
C160 H134 0.983 . S
C160 C156 1.684 . S
H161 C179 0.948 . S
H162 C120 0.948 . S
H163 C138 0.979 . S
H164 C138 0.980 . S
H165 C138 0.983 . S
H166 C137 0.982 . S
H167 C137 0.979 . S
H168 C137 0.977 . S
H169 C139 0.948 . S
H170 C141 0.947 . S
H171 C142 0.948 1_554 S
H172 C148 0.982 . S
H173 C148 0.979 . S
H174 C148 0.977 . S
H175 C149 0.979 . S
H176 C149 0.980 . S
H177 C149 0.983 . S
H178 C122 0.947 . S
C179 C122 1.392 . S
C179 C123 1.419 1_556 S
C179 H161 0.948 . S
C180 C181 1.391 . S
C180 C184 1.391 . S
C180 H222 0.948 . S
C181 C180 1.391 . S
C181 C182 1.391 . S
C182 C181 1.391 . S
C182 H238 0.947 . S
C182 C239 1.392 . S
C183 C184 1.391 . S
C183 C187 1.397 . S
C183 C239 1.419 . S
C184 C180 1.391 . S
C184 C183 1.391 . S
C184 C185 1.399 . S
C185 C184 1.399 . S
C185 C188 1.396 . S
C185 C197 1.453 . S
C185 C198 1.684 . S
H186 C210 0.948 . S
C187 C183 1.397 . S
C187 C188 1.394 . S
C187 C206 1.723 . S
C188 C185 1.396 . S
C188 C187 1.394 . S
C188 C218 1.723 . S
H189 C212 0.947 . S
H190 C213 0.948 . S
H191 C219 0.982 . S
H192 C220 0.979 . S
H193 C220 0.980 . S
H194 C220 0.983 . S
H195 C219 0.979 . S
H196 C219 0.977 . S
C197 C185 1.453 . S
C197 H226 0.982 . S
C197 H227 0.979 . S
C197 H228 0.977 . S
C198 C185 1.684 . S
C198 H223 0.979 . S
C198 H224 0.980 . S
C198 H225 0.983 . S
C199 C200 1.391 . S
C199 C204 1.391 . S
C199 H229 0.948 . S
C200 C199 1.391 . S
C200 C201 1.391 . S
C201 C200 1.391 . S
C201 C202 1.392 . S
C201 H230 0.947 . S
C202 C201 1.392 . S
C202 C203 1.419 . S
C202 H231 0.948 . S
C203 C202 1.419 . S
C203 C204 1.391 . S
C203 C207 1.397 . S
C204 C199 1.391 . S
C204 C203 1.391 . S
C204 C205 1.399 1_556 S
C205 C204 1.399 1_554 S
C205 C206 1.396 . S
C205 C208 1.453 . S
C205 C209 1.684 . S
C206 C187 1.723 . S
C206 C205 1.396 . S
C206 C207 1.394 1_554 S
C207 C203 1.397 . S
C207 C206 1.394 1_556 S
C207 C217 1.723 . S
C208 C205 1.453 . S
C208 H232 0.982 . S
C208 H233 0.979 . S
C208 H234 0.977 . S
C209 C205 1.684 . S
C209 H235 0.979 . S
C209 H236 0.980 . S
C209 H237 0.983 . S
C210 H186 0.948 . S
C210 C211 1.391 . S
C210 C215 1.391 . S
C211 C210 1.391 . S
C211 C212 1.391 1_556 S
C212 H189 0.947 . S
C212 C211 1.391 1_554 S
C212 C213 1.392 . S
C213 H190 0.948 . S
C213 C212 1.392 . S
C213 C214 1.419 . S
C214 C213 1.419 . S
C214 C215 1.391 1_554 S
C214 C218 1.397 . S
C215 C210 1.391 . S
C215 C214 1.391 1_556 S
C215 C216 1.399 . S
C216 C215 1.399 . S
C216 C217 1.396 . S
C216 C219 1.453 . S
C216 C220 1.684 . S
C217 C207 1.723 . S
C217 C216 1.396 . S
C217 C218 1.394 1_556 S
C218 C188 1.723 . S
C218 C214 1.397 . S
C218 C217 1.394 1_554 S
C219 H191 0.982 . S
C219 H195 0.979 . S
C219 H196 0.977 . S
C219 C216 1.453 . S
C220 H192 0.979 . S
C220 H193 0.980 . S
C220 H194 0.983 . S
C220 C216 1.684 . S
H221 C239 0.948 . S
H222 C180 0.948 . S
H223 C198 0.979 . S
H224 C198 0.980 . S
H225 C198 0.983 . S
H226 C197 0.982 . S
H227 C197 0.979 . S
H228 C197 0.977 . S
H229 C199 0.948 . S
H230 C201 0.947 . S
H231 C202 0.948 . S
H232 C208 0.982 . S
H233 C208 0.979 . S
H234 C208 0.977 . S
H235 C209 0.979 . S
H236 C209 0.980 . S
H237 C209 0.983 . S
H238 C182 0.947 . S
C239 C182 1.392 . S
C239 C183 1.419 . S
C239 H221 0.948 . S
C240 C241 1.391 . S
C240 C244 1.391 . S
C240 H282 0.948 . S
C241 C240 1.391 . S
C241 C242 1.391 . S
C242 C241 1.391 . S
C242 H298 0.947 . S
C242 C299 1.392 . S
C243 C244 1.391 . S
C243 C247 1.397 . S
C243 C299 1.419 . S
C244 C240 1.391 . S
C244 C243 1.391 . S
C244 C245 1.399 . S
C245 C244 1.399 . S
C245 C248 1.396 . S
C245 C257 1.453 . S
C245 C258 1.684 . S
H246 C270 0.948 . S
C247 C243 1.397 . S
C247 C248 1.394 . S
C247 C266 1.723 . S
C248 C245 1.396 . S
C248 C247 1.394 . S
C248 C278 1.723 . S
H249 C272 0.947 . S
H250 C273 0.948 . S
H251 C279 0.982 . S
H252 C280 0.979 . S
H253 C280 0.980 . S
H254 C280 0.983 . S
H255 C279 0.979 . S
H256 C279 0.977 . S
C257 C245 1.453 . S
C257 H286 0.982 . S
C257 H287 0.979 . S
C257 H288 0.977 . S
C258 C245 1.684 . S
C258 H283 0.979 . S
C258 H284 0.980 . S
C258 H285 0.983 . S
C259 C260 1.391 . S
C259 C264 1.391 . S
C259 H289 0.948 . S
C260 C259 1.391 . S
C260 C261 1.391 . S
C261 C260 1.391 . S
C261 C262 1.392 . S
C261 H290 0.947 . S
C262 C261 1.392 . S
C262 C263 1.419 . S
C262 H291 0.948 . S
C263 C262 1.419 . S
C263 C264 1.391 . S
C263 C267 1.397 . S
C264 C259 1.391 . S
C264 C263 1.391 . S
C264 C265 1.399 . S
C265 C264 1.399 . S
C265 C266 1.396 . S
C265 C268 1.453 . S
C265 C269 1.684 . S
C266 C247 1.723 . S
C266 C265 1.396 . S
C266 C267 1.394 . S
C267 C263 1.397 . S
C267 C266 1.394 . S
C267 C277 1.723 . S
C268 C265 1.453 . S
C268 H292 0.982 . S
C268 H293 0.979 . S
C268 H294 0.977 . S
C269 C265 1.684 . S
C269 H295 0.979 . S
C269 H296 0.980 . S
C269 H297 0.983 . S
C270 H246 0.948 . S
C270 C271 1.391 1_554 S
C270 C275 1.391 . S
C271 C270 1.391 1_556 S
C271 C272 1.391 . S
C272 H249 0.947 . S
C272 C271 1.391 . S
C272 C273 1.392 1_556 S
C273 H250 0.948 . S
C273 C272 1.392 1_554 S
C273 C274 1.419 . S
C274 C273 1.419 . S
C274 C275 1.391 . S
C274 C278 1.397 . S
C275 C270 1.391 . S
C275 C274 1.391 . S
C275 C276 1.399 . S
C276 C275 1.399 . S
C276 C277 1.396 . S
C276 C279 1.453 . S
C276 C280 1.684 . S
C277 C267 1.723 . S
C277 C276 1.396 . S
C277 C278 1.394 . S
C278 C248 1.723 . S
C278 C274 1.397 . S
C278 C277 1.394 . S
C279 H251 0.982 . S
C279 H255 0.979 . S
C279 H256 0.977 . S
C279 C276 1.453 . S
C280 H252 0.979 . S
C280 H253 0.980 . S
C280 H254 0.983 . S
C280 C276 1.684 . S
H281 C299 0.948 . S
H282 C240 0.948 . S
H283 C258 0.979 . S
H284 C258 0.980 . S
H285 C258 0.983 . S
H286 C257 0.982 . S
H287 C257 0.979 . S
H288 C257 0.977 . S
H289 C259 0.948 . S
H290 C261 0.947 . S
H291 C262 0.948 . S
H292 C268 0.982 . S
H293 C268 0.979 . S
H294 C268 0.977 . S
H295 C269 0.979 . S
H296 C269 0.980 . S
H297 C269 0.983 . S
H298 C242 0.947 . S
C299 C242 1.392 . S
C299 C243 1.419 . S
C299 H281 0.948 . S
C300 C301 1.391 . S
C300 C304 1.391 . S
C300 H342 0.948 . S
C301 C300 1.391 . S
C301 C302 1.391 . S
C302 C301 1.391 . S
C302 H358 0.947 . S
C302 C359 1.392 . S
C303 C304 1.391 . S
C303 C307 1.397 . S
C303 C359 1.419 . S
C304 C300 1.391 . S
C304 C303 1.391 . S
C304 C305 1.399 . S
C305 C304 1.399 . S
C305 C308 1.396 . S
C305 C317 1.453 . S
C305 C318 1.684 . S
H306 C330 0.948 . S
C307 C303 1.397 . S
C307 C308 1.394 . S
C307 C326 1.723 . S
C308 C305 1.396 . S
C308 C307 1.394 . S
C308 C338 1.723 . S
H309 C332 0.947 . S
H310 C333 0.948 . S
H311 C339 0.982 . S
H312 C340 0.979 . S
H313 C340 0.980 . S
H314 C340 0.983 . S
H315 C339 0.979 . S
H316 C339 0.977 . S
C317 C305 1.453 . S
C317 H346 0.982 . S
C317 H347 0.979 . S
C317 H348 0.977 . S
C318 C305 1.684 . S
C318 H343 0.979 . S
C318 H344 0.980 . S
C318 H345 0.983 . S
C319 C320 1.391 . S
C319 C324 1.391 . S
C319 H349 0.948 . S
C320 C319 1.391 . S
C320 C321 1.391 . S
C321 C320 1.391 . S
C321 C322 1.392 . S
C321 H350 0.945 1_554 S
C322 C321 1.392 . S
C322 C323 1.419 . S
C322 H351 0.948 . S
C323 C322 1.419 . S
C323 C324 1.391 . S
C323 C327 1.397 . S
C324 C319 1.391 . S
C324 C323 1.391 . S
C324 C325 1.399 . S
C325 C324 1.399 . S
C325 C326 1.396 . S
C325 C328 1.453 . S
C325 C329 1.684 . S
C326 C307 1.723 . S
C326 C325 1.396 . S
C326 C327 1.394 . S
C327 C323 1.397 . S
C327 C326 1.394 . S
C327 C337 1.723 . S
C328 C325 1.453 . S
C328 H352 0.982 . S
C328 H353 0.979 . S
C328 H354 0.977 . S
C329 C325 1.684 . S
C329 H355 0.979 . S
C329 H356 0.980 . S
C329 H357 0.983 . S
C330 H306 0.948 . S
C330 C331 1.391 . S
C330 C335 1.391 . S
C331 C330 1.391 . S
C331 C332 1.391 . S
C332 H309 0.947 . S
C332 C331 1.391 . S
C332 C333 1.392 . S
C333 H310 0.948 . S
C333 C332 1.392 . S
C333 C334 1.419 . S
C334 C333 1.419 . S
C334 C335 1.391 . S
C334 C338 1.397 . S
C335 C330 1.391 . S
C335 C334 1.391 . S
C335 C336 1.399 . S
C336 C335 1.399 . S
C336 C337 1.396 . S
C336 C339 1.453 . S
C336 C340 1.684 . S
C337 C327 1.723 . S
C337 C336 1.396 . S
C337 C338 1.394 . S
C338 C308 1.723 . S
C338 C334 1.397 . S
C338 C337 1.394 . S
C339 H311 0.982 . S
C339 H315 0.979 . S
C339 H316 0.977 . S
C339 C336 1.453 . S
C340 H312 0.979 . S
C340 H313 0.980 . S
C340 H314 0.983 . S
C340 C336 1.684 . S
H341 C359 0.948 . S
H342 C300 0.948 . S
H343 C318 0.979 . S
H344 C318 0.980 . S
H345 C318 0.983 . S
H346 C317 0.982 . S
H347 C317 0.979 . S
H348 C317 0.977 . S
H349 C319 0.948 . S
H350 C321 0.945 1_556 S
H351 C322 0.948 . S
H352 C328 0.982 . S
H353 C328 0.979 . S
H354 C328 0.977 . S
H355 C329 0.979 . S
H356 C329 0.980 . S
H357 C329 0.983 . S
H358 C302 0.947 . S
C359 C302 1.392 . S
C359 C303 1.419 . S
C359 H341 0.948 . S
C360 C361 1.391 1_554 S
C360 C364 1.391 . S
C360 H402 0.948 1_554 S
C361 C360 1.391 1_556 S
C361 C362 1.391 1_556 S
C362 C361 1.391 1_554 S
C362 H418 0.947 . S
C362 C419 1.392 . S
C363 C364 1.391 . S
C363 C367 1.397 1_545 S
C363 C419 1.419 . S
C364 C360 1.391 . S
C364 C363 1.391 . S
C364 C365 1.399 . S
C365 C364 1.399 . S
C365 C368 1.396 1_545 S
C365 C377 1.453 1_545 S
C365 C378 1.684 . S
H366 C390 0.948 . S
C367 C363 1.397 1_565 S
C367 C368 1.394 . S
C367 C386 1.723 . S
C368 C365 1.396 1_565 S
C368 C367 1.394 . S
C368 C398 1.723 . S
H369 C392 0.947 . S
H370 C393 0.948 . S
H371 C399 0.982 . S
H372 C400 0.979 . S
H373 C400 0.980 . S
H374 C400 0.983 . S
H375 C399 0.979 . S
H376 C399 0.977 . S
C377 C365 1.453 1_565 S
C377 H406 0.982 . S
C377 H407 0.979 . S
C377 H408 0.977 . S
C378 C365 1.684 . S
C378 H403 0.979 . S
C378 H404 0.980 . S
C378 H405 0.983 . S
C379 C380 1.391 . S
C379 C384 1.391 . S
C379 H409 0.948 . S
C380 C379 1.391 . S
C380 C381 1.391 . S
C381 C380 1.391 . S
C381 C382 1.392 . S
C381 H410 0.947 . S
C382 C381 1.392 . S
C382 C383 1.419 . S
C382 H411 0.948 . S
C383 C382 1.419 . S
C383 C384 1.391 . S
C383 C387 1.397 1_545 S
C384 C379 1.391 . S
C384 C383 1.391 . S
C384 C385 1.399 . S
C385 C384 1.399 . S
C385 C386 1.396 1_545 S
C385 C388 1.453 1_545 S
C385 C389 1.684 . S
C386 C367 1.723 . S
C386 C385 1.396 1_565 S
C386 C387 1.394 . S
C387 C383 1.397 1_565 S
C387 C386 1.394 . S
C387 C397 1.723 . S
C388 C385 1.453 1_565 S
C388 H412 0.982 . S
C388 H413 0.979 . S
C388 H414 0.977 . S
C389 C385 1.684 . S
C389 H415 0.979 . S
C389 H416 0.980 . S
C389 H417 0.983 . S
C390 H366 0.948 . S
C390 C391 1.391 . S
C390 C395 1.391 . S
C391 C390 1.391 . S
C391 C392 1.391 . S
C392 H369 0.947 . S
C392 C391 1.391 . S
C392 C393 1.392 . S
C393 H370 0.948 . S
C393 C392 1.392 . S
C393 C394 1.419 . S
C394 C393 1.419 . S
C394 C395 1.391 . S
C394 C398 1.396 1_545 S
C395 C390 1.391 . S
C395 C394 1.391 . S
C395 C396 1.399 . S
C396 C395 1.399 . S
C396 C397 1.396 1_545 S
C396 C399 1.453 1_545 S
C396 C400 1.684 . S
C397 C387 1.723 . S
C397 C396 1.396 1_565 S
C397 C398 1.395 . S
C398 C368 1.723 . S
C398 C394 1.396 1_565 S
C398 C397 1.395 . S
C399 H371 0.982 . S
C399 H375 0.979 . S
C399 H376 0.977 . S
C399 C396 1.453 1_565 S
C400 H372 0.979 . S
C400 H373 0.980 . S
C400 H374 0.983 . S
C400 C396 1.684 . S
H401 C419 0.948 . S
H402 C360 0.948 1_556 S
H403 C378 0.979 . S
H404 C378 0.980 . S
H405 C378 0.983 . S
H406 C377 0.982 . S
H407 C377 0.979 . S
H408 C377 0.977 . S
H409 C379 0.948 . S
H410 C381 0.947 . S
H411 C382 0.948 . S
H412 C388 0.982 . S
H413 C388 0.979 . S
H414 C388 0.977 . S
H415 C389 0.979 . S
H416 C389 0.980 . S
H417 C389 0.983 . S
H418 C362 0.947 . S
C419 C362 1.392 . S
C419 C363 1.419 . S
C419 H401 0.948 . S
C420 C421 1.391 . S
C420 C424 1.391 1_556 S
C420 H462 0.948 . S
C421 C420 1.391 . S
C421 C422 1.391 1_556 S
C422 C421 1.391 1_554 S
C422 H478 0.947 1_554 S
C422 C479 1.392 . S
C423 C424 1.391 . S
C423 C427 1.397 . S
C423 C479 1.419 . S
C424 C420 1.391 1_554 S
C424 C423 1.391 . S
C424 C425 1.399 . S
C425 C424 1.399 . S
C425 C428 1.396 . S
C425 C437 1.453 . S
C425 C438 1.684 . S
H426 C450 0.948 . S
C427 C423 1.397 . S
C427 C428 1.394 . S
C427 C446 1.723 . S
C428 C425 1.396 . S
C428 C427 1.394 . S
C428 C458 1.723 . S
H429 C452 0.947 . S
H430 C453 0.948 . S
H431 C459 0.982 . S
H432 C460 0.979 . S
H433 C460 0.980 . S
H434 C460 0.983 . S
H435 C459 0.979 . S
H436 C459 0.977 . S
C437 C425 1.453 . S
C437 H466 0.982 . S
C437 H467 0.979 . S
C437 H468 0.977 . S
C438 C425 1.684 . S
C438 H463 0.979 . S
C438 H464 0.980 . S
C438 H465 0.983 . S
C439 C440 1.391 . S
C439 C444 1.391 . S
C439 H469 0.948 . S
C440 C439 1.391 . S
C440 C441 1.391 . S
C441 C440 1.391 . S
C441 C442 1.392 . S
C441 H470 0.947 . S
C442 C441 1.392 . S
C442 C443 1.419 . S
C442 H471 0.948 . S
C443 C442 1.419 . S
C443 C444 1.391 . S
C443 C447 1.397 . S
C444 C439 1.391 . S
C444 C443 1.391 . S
C444 C445 1.399 . S
C445 C444 1.399 . S
C445 C446 1.396 . S
C445 C448 1.453 . S
C445 C449 1.684 . S
C446 C427 1.723 . S
C446 C445 1.396 . S
C446 C447 1.394 . S
C447 C443 1.397 . S
C447 C446 1.394 . S
C447 C457 1.723 . S
C448 C445 1.453 . S
C448 H472 0.982 . S
C448 H473 0.979 . S
C448 H474 0.977 . S
C449 C445 1.684 . S
C449 H475 0.979 . S
C449 H476 0.980 . S
C449 H477 0.983 . S
C450 H426 0.948 . S
C450 C451 1.391 . S
C450 C455 1.391 . S
C451 C450 1.391 . S
C451 C452 1.391 . S
C452 H429 0.947 . S
C452 C451 1.391 . S
C452 C453 1.392 . S
C453 H430 0.948 . S
C453 C452 1.392 . S
C453 C454 1.419 . S
C454 C453 1.419 . S
C454 C455 1.391 . S
C454 C458 1.397 . S
C455 C450 1.391 . S
C455 C454 1.391 . S
C455 C456 1.399 . S
C456 C455 1.399 . S
C456 C457 1.396 . S
C456 C459 1.453 . S
C456 C460 1.684 . S
C457 C447 1.723 . S
C457 C456 1.396 . S
C457 C458 1.394 . S
C458 C428 1.723 . S
C458 C454 1.397 . S
C458 C457 1.394 . S
C459 H431 0.982 . S
C459 H435 0.979 . S
C459 H436 0.977 . S
C459 C456 1.453 . S
C460 H432 0.979 . S
C460 H433 0.980 . S
C460 H434 0.983 . S
C460 C456 1.684 . S
H461 C479 0.948 . S
H462 C420 0.948 . S
H463 C438 0.979 . S
H464 C438 0.980 . S
H465 C438 0.983 . S
H466 C437 0.982 . S
H467 C437 0.979 . S
H468 C437 0.977 . S
H469 C439 0.948 . S
H470 C441 0.947 . S
H471 C442 0.948 . S
H472 C448 0.982 . S
H473 C448 0.979 . S
H474 C448 0.977 . S
H475 C449 0.979 . S
H476 C449 0.980 . S
H477 C449 0.983 . S
H478 C422 0.947 1_556 S
C479 C422 1.392 . S
C479 C423 1.419 . S
C479 H461 0.948 . S
O480 Zn481 1.953 . S
O480 C496 1.225 . S
Zn481 O480 1.953 . S
Zn481 O482 1.950 . S
Zn481 O488 1.919 1_565 S
Zn481 O493 1.924 . S
O482 Zn481 1.950 . S
O482 Zn483 1.900 1_565 S
O482 Zn484 1.953 . S
O482 Zn485 1.964 . S
Zn483 O482 1.900 1_545 S
Zn483 O486 1.933 1_455 S
Zn483 O489 1.941 . S
Zn483 O490 1.965 . S
Zn484 O482 1.953 . S
Zn484 O491 1.938 1_565 S
Zn484 O492 1.906 . S
Zn484 O502 1.953 . S
Zn485 O482 1.964 . S
Zn485 O487 1.932 1_455 S
Zn485 O494 1.977 1_455 S
Zn485 O495 1.910 . S
O486 Zn483 1.933 1_655 S
O486 C497 1.226 . S
O487 Zn485 1.932 1_655 S
O487 C497 1.307 1_565 S
O488 Zn481 1.919 1_545 S
O488 C499 1.253 . S
O489 Zn483 1.941 . S
O489 C499 1.283 . S
O490 Zn483 1.965 . S
O490 C498 1.303 . S
O491 Zn484 1.938 1_545 S
O491 C498 1.247 . S
O492 Zn484 1.906 . S
O492 C500 1.283 1_455 S
O493 Zn481 1.924 . S
O493 C501 1.311 . S
O494 Zn485 1.977 1_655 S
O494 C500 1.276 . S
O495 Zn485 1.910 . S
O495 C501 1.231 . S
C496 O480 1.225 . S
C496 O502 1.298 . S
C497 O486 1.226 . S
C497 O487 1.307 1_545 S
C498 O490 1.303 . S
C498 O491 1.247 . S
C499 O488 1.253 . S
C499 O489 1.283 . S
C500 O492 1.283 1_655 S
C500 O494 1.276 . S
C501 O493 1.311 . S
C501 O495 1.231 . S
O502 Zn484 1.953 . S
O502 C496 1.298 . S
O503 Zn504 1.953 . S
O503 C519 1.225 . S
Zn504 O503 1.953 . S
Zn504 O505 1.949 . S
Zn504 O511 1.919 . S
Zn504 O516 1.924 . S
O505 Zn504 1.949 . S
O505 Zn506 1.923 1_545 S
O505 Zn507 1.950 . S
O505 Zn508 1.945 1_545 S
Zn506 O505 1.923 1_565 S
Zn506 O509 1.933 . S
Zn506 O512 1.941 . S
Zn506 O513 1.965 . S
Zn507 O505 1.950 . S
Zn507 O514 1.938 . S
Zn507 O515 1.906 1_545 S
Zn507 O525 1.953 . S
Zn508 O505 1.945 1_565 S
Zn508 O510 1.932 . S
Zn508 O517 1.977 . S
Zn508 O518 1.910 1_565 S
O509 Zn506 1.933 . S
O509 C520 1.226 . S
O510 Zn508 1.932 . S
O510 C520 1.307 . S
O511 Zn504 1.919 . S
O511 C522 1.253 . S
O512 Zn506 1.941 . S
O512 C522 1.283 1_565 S
O513 Zn506 1.965 . S
O513 C521 1.303 . S
O514 Zn507 1.938 . S
O514 C521 1.247 1_545 S
O515 Zn507 1.906 1_565 S
O515 C523 1.304 . S
O516 Zn504 1.924 . S
O516 C524 1.311 . S
O517 Zn508 1.977 . S
O517 C523 1.272 . S
O518 Zn508 1.910 1_545 S
O518 C524 1.231 . S
C519 O503 1.225 . S
C519 O525 1.298 . S
C520 O509 1.226 . S
C520 O510 1.307 . S
C521 O513 1.303 . S
C521 O514 1.247 1_565 S
C522 O511 1.253 . S
C522 O512 1.283 1_545 S
C523 O515 1.304 . S
C523 O517 1.272 . S
C524 O516 1.311 . S
C524 O518 1.231 . S
O525 Zn507 1.953 . S
O525 C519 1.298 . S
O526 Zn527 1.953 . S
O526 C542 1.225 . S
Zn527 O526 1.953 . S
Zn527 O528 1.949 . S
Zn527 O534 1.919 . S
Zn527 O539 1.924 . S
O528 Zn527 1.949 . S
O528 Zn529 1.923 . S
O528 Zn530 1.950 . S
O528 Zn531 1.945 . S
Zn529 O528 1.923 . S
Zn529 O532 1.933 . S
Zn529 O535 1.941 . S
Zn529 O536 1.965 . S
Zn530 O528 1.950 . S
Zn530 O537 1.938 . S
Zn530 O538 1.906 . S
Zn530 O548 1.953 . S
Zn531 O528 1.945 . S
Zn531 O533 1.932 . S
Zn531 O540 1.977 . S
Zn531 O541 1.910 . S
O532 Zn529 1.933 . S
O532 C543 1.226 . S
O533 Zn531 1.932 . S
O533 C543 1.307 . S
O534 Zn527 1.919 . S
O534 C545 1.253 . S
O535 Zn529 1.941 . S
O535 C545 1.283 . S
O536 Zn529 1.965 . S
O536 C544 1.303 . S
O537 Zn530 1.938 . S
O537 C544 1.247 . S
O538 Zn530 1.906 . S
O538 C546 1.304 . S
O539 Zn527 1.924 . S
O539 C547 1.311 . S
O540 Zn531 1.977 . S
O540 C546 1.272 . S
O541 Zn531 1.910 . S
O541 C547 1.231 . S
C542 O526 1.225 . S
C542 O548 1.298 . S
C543 O532 1.226 . S
C543 O533 1.307 . S
C544 O536 1.303 . S
C544 O537 1.247 . S
C545 O534 1.253 . S
C545 O535 1.283 . S
C546 O538 1.304 . S
C546 O540 1.272 . S
C547 O539 1.311 . S
C547 O541 1.231 . S
O548 Zn530 1.953 . S
O548 C542 1.298 . S
O549 Zn550 1.953 1_655 S
O549 C565 1.225 . S
Zn550 O549 1.953 1_455 S
Zn550 O551 1.949 . S
Zn550 O557 1.919 . S
Zn550 O562 1.924 . S
O551 Zn550 1.949 . S
O551 Zn552 1.923 . S
O551 Zn553 1.950 1_455 S
O551 Zn554 1.945 . S
Zn552 O551 1.923 . S
Zn552 O555 1.933 . S
Zn552 O558 1.941 1_455 S
Zn552 O559 1.965 1_455 S
Zn553 O551 1.950 1_655 S
Zn553 O560 1.938 . S
Zn553 O561 1.906 1_655 S
Zn553 O571 1.953 . S
Zn554 O551 1.945 . S
Zn554 O556 1.932 . S
Zn554 O563 1.977 . S
Zn554 O564 1.910 . S
O555 Zn552 1.933 . S
O555 C566 1.226 . S
O556 Zn554 1.932 . S
O556 C566 1.307 . S
O557 Zn550 1.919 . S
O557 C568 1.253 . S
O558 Zn552 1.941 1_655 S
O558 C568 1.283 1_655 S
O559 Zn552 1.965 1_655 S
O559 C567 1.303 . S
O560 Zn553 1.938 . S
O560 C567 1.247 . S
O561 Zn553 1.906 1_455 S
O561 C569 1.304 . S
O562 Zn550 1.924 . S
O562 C570 1.311 . S
O563 Zn554 1.977 . S
O563 C569 1.272 . S
O564 Zn554 1.910 . S
O564 C570 1.231 . S
C565 O549 1.225 . S
C565 O571 1.298 . S
C566 O555 1.226 . S
C566 O556 1.307 . S
C567 O559 1.303 . S
C567 O560 1.247 . S
C568 O557 1.253 . S
C568 O558 1.283 1_455 S
C569 O561 1.304 . S
C569 O563 1.272 . S
C570 O562 1.311 . S
C570 O564 1.231 . S
O571 Zn553 1.953 . S
O571 C565 1.298 . S
C572 C573 1.387 . S
C572 H576 0.950 . S
C572 C581 1.390 . S
C573 C572 1.387 . S
C573 C575 1.387 1_565 S
H574 C581 0.950 . S
C575 C573 1.387 1_545 S
C575 C577 1.390 . S
C575 H579 0.950 . S
H576 C572 0.950 . S
C577 C575 1.390 . S
C577 C578 1.387 1_545 S
C577 H580 0.950 . S
C578 C577 1.387 1_565 S
C578 C581 1.387 . S
H579 C575 0.950 . S
H580 C577 0.950 . S
C581 C572 1.390 . S
C581 H574 0.950 . S
C581 C578 1.387 . S
C582 C583 1.387 . S
C582 H586 0.950 . S
C582 C591 1.390 . S
C583 C582 1.387 . S
C583 C585 1.387 . S
H584 C591 0.950 . S
C585 C583 1.387 . S
C585 C587 1.390 . S
C585 H589 0.950 . S
H586 C582 0.950 . S
C587 C585 1.390 . S
C587 C588 1.387 . S
C587 H590 0.950 . S
C588 C587 1.387 . S
C588 C591 1.387 . S
H589 C585 0.950 . S
H590 C587 0.950 . S
C591 C582 1.390 . S
C591 H584 0.950 . S
C591 C588 1.387 . S
C592 C593 1.387 . S
C592 H596 0.950 . S
C592 C601 1.390 . S
C593 C592 1.387 . S
C593 C595 1.387 . S
H594 C601 0.950 . S
C595 C593 1.387 . S
C595 C597 1.390 . S
C595 H599 0.950 . S
H596 C592 0.950 . S
C597 C595 1.390 . S
C597 C598 1.387 . S
C597 H600 0.950 . S
C598 C597 1.387 . S
C598 C601 1.387 . S
H599 C595 0.950 . S
H600 C597 0.950 . S
C601 C592 1.390 . S
C601 H594 0.950 . S
C601 C598 1.387 . S
C602 C603 1.387 . S
C602 H606 0.950 . S
C602 C611 1.390 . S
C603 C602 1.387 . S
C603 C605 1.387 . S
H604 C611 0.950 . S
C605 C603 1.387 . S
C605 C607 1.390 . S
C605 H609 0.950 . S
H606 C602 0.950 . S
C607 C605 1.390 . S
C607 C608 1.387 . S
C607 H610 0.950 . S
C608 C607 1.387 . S
C608 C611 1.387 . S
H609 C605 0.950 . S
H610 C607 0.950 . S
C611 C602 1.390 . S
C611 H604 0.950 . S
C611 C608 1.387 . S
C612 C613 1.387 1_565 S
C612 H616 0.950 . S
C612 C621 1.390 . S
C613 C612 1.387 1_545 S
C613 C615 1.387 . S
H614 C621 0.950 . S
C615 C613 1.387 . S
C615 C617 1.390 . S
C615 H619 0.950 . S
H616 C612 0.950 . S
C617 C615 1.390 . S
C617 C618 1.387 . S
C617 H620 0.950 . S
C618 C617 1.387 . S
C618 C621 1.387 1_545 S
H619 C615 0.950 . S
H620 C617 0.950 . S
C621 C612 1.390 . S
C621 H614 0.950 . S
C621 C618 1.387 1_565 S
C622 C623 1.387 . S
C622 H626 0.950 . S
C622 C631 1.390 . S
C623 C622 1.387 . S
C623 C625 1.387 . S
H624 C631 0.950 . S
C625 C623 1.387 . S
C625 C627 1.390 . S
C625 H629 0.950 . S
H626 C622 0.950 . S
C627 C625 1.390 . S
C627 C628 1.387 . S
C627 H630 0.950 . S
C628 C627 1.387 . S
C628 C631 1.387 . S
H629 C625 0.950 . S
H630 C627 0.950 . S
C631 C622 1.390 . S
C631 H624 0.950 . S
C631 C628 1.387 . S
C632 C633 1.387 . S
C632 H636 0.950 . S
C632 C641 1.390 . S
C633 C632 1.387 . S
C633 C635 1.387 . S
H634 C641 0.950 . S
C635 C633 1.387 . S
C635 C637 1.390 . S
C635 H639 0.950 . S
H636 C632 0.950 . S
C637 C635 1.390 . S
C637 C638 1.387 . S
C637 H640 0.950 . S
C638 C637 1.387 . S
C638 C641 1.387 . S
H639 C635 0.950 . S
H640 C637 0.950 . S
C641 C632 1.390 . S
C641 H634 0.950 . S
C641 C638 1.387 . S
C642 C643 1.387 . S
C642 H646 0.950 . S
C642 C651 1.390 1_655 S
C643 C642 1.387 . S
C643 C645 1.387 . S
H644 C651 0.950 . S
C645 C643 1.387 . S
C645 C647 1.390 . S
C645 H649 0.950 . S
H646 C642 0.950 . S
C647 C645 1.390 . S
C647 C648 1.387 1_655 S
C647 H650 0.950 . S
C648 C647 1.387 1_455 S
C648 C651 1.387 . S
H649 C645 0.950 . S
H650 C647 0.950 . S
C651 C642 1.390 1_455 S
C651 H644 0.950 . S
C651 C648 1.387 . S
C652 C653 1.387 . S
C652 H656 0.950 . S
C652 C661 1.390 . S
C653 C652 1.387 . S
C653 C655 1.387 . S
H654 C661 0.950 . S
C655 C653 1.387 . S
C655 C657 1.390 . S
C655 H659 0.950 . S
H656 C652 0.950 . S
C657 C655 1.390 . S
C657 C658 1.387 . S
C657 H660 0.950 . S
C658 C657 1.387 . S
C658 C661 1.387 . S
H659 C655 0.950 . S
H660 C657 0.950 . S
C661 C652 1.390 . S
C661 H654 0.950 . S
C661 C658 1.387 . S
C662 C663 1.387 1_565 S
C662 H666 0.950 . S
C662 C671 1.390 . S
C663 C662 1.387 1_545 S
C663 C665 1.387 . S
H664 C671 0.950 . S
C665 C663 1.387 . S
C665 C667 1.391 . S
C665 H669 0.950 . S
H666 C662 0.950 . S
C667 C665 1.391 . S
C667 C668 1.387 1_545 S
C667 H670 0.950 . S
C668 C667 1.387 1_565 S
C668 C671 1.387 . S
H669 C665 0.950 . S
H670 C667 0.950 . S
C671 C662 1.390 . S
C671 H664 0.950 . S
C671 C668 1.387 . S
C672 C673 1.387 . S
C672 H676 0.950 . S
C672 C681 1.390 . S
C673 C672 1.387 . S
C673 C675 1.387 . S
H674 C681 0.950 . S
C675 C673 1.387 . S
C675 C677 1.390 . S
C675 H679 0.950 . S
H676 C672 0.950 . S
C677 C675 1.390 . S
C677 C678 1.387 . S
C677 H680 0.950 . S
C678 C677 1.387 . S
C678 C681 1.387 . S
H679 C675 0.950 . S
H680 C677 0.950 . S
C681 C672 1.390 . S
C681 H674 0.950 . S
C681 C678 1.387 . S
C682 C683 1.387 . S
C682 H686 0.950 . S
C682 C691 1.390 . S
C683 C682 1.387 . S
C683 C685 1.387 . S
H684 C691 0.950 . S
C685 C683 1.387 . S
C685 C687 1.390 . S
C685 H689 0.950 . S
H686 C682 0.950 . S
C687 C685 1.390 . S
C687 C688 1.387 . S
C687 H690 0.950 . S
C688 C687 1.387 . S
C688 C691 1.387 . S
H689 C685 0.950 . S
H690 C687 0.950 . S
C691 C682 1.390 . S
C691 H684 0.950 . S
C691 C688 1.387 . S
C692 C693 1.387 1_455 S
C692 H696 0.950 . S
C692 C701 1.390 . S
C693 C692 1.387 1_655 S
C693 C695 1.387 1_655 S
H694 C701 0.950 . S
C695 C693 1.387 1_455 S
C695 C697 1.390 . S
C695 H699 0.947 1_455 S
H696 C692 0.950 . S
C697 C695 1.390 . S
C697 C698 1.387 . S
C697 H700 0.950 . S
C698 C697 1.387 . S
C698 C701 1.387 . S
H699 C695 0.947 1_655 S
H700 C697 0.950 . S
C701 C692 1.390 . S
C701 H694 0.950 . S
C701 C698 1.387 . S
C702 C703 1.387 . S
C702 H706 0.950 . S
C702 C711 1.390 . S
C703 C702 1.387 . S
C703 C705 1.387 . S
H704 C711 0.950 . S
C705 C703 1.387 . S
C705 C707 1.390 . S
C705 H709 0.950 . S
H706 C702 0.950 . S
C707 C705 1.390 . S
C707 C708 1.387 . S
C707 H710 0.950 . S
C708 C707 1.387 . S
C708 C711 1.387 . S
H709 C705 0.950 . S
H710 C707 0.950 . S
C711 C702 1.390 . S
C711 H704 0.950 . S
C711 C708 1.387 . S
C712 C713 1.387 . S
C712 H716 0.950 . S
C712 C721 1.390 . S
C713 C712 1.387 . S
C713 C715 1.387 . S
H714 C721 0.950 . S
C715 C713 1.387 . S
C715 C717 1.390 . S
C715 H719 0.950 . S
H716 C712 0.950 . S
C717 C715 1.390 . S
C717 C718 1.387 . S
C717 H720 0.950 . S
C718 C717 1.387 . S
C718 C721 1.387 . S
H719 C715 0.950 . S
H720 C717 0.950 . S
C721 C712 1.390 . S
C721 H714 0.950 . S
C721 C718 1.387 . S
C722 C723 1.387 . S
C722 H726 0.950 . S
C722 C731 1.390 . S
C723 C722 1.387 . S
C723 C725 1.387 . S
H724 C731 0.950 . S
C725 C723 1.387 . S
C725 C727 1.390 . S
C725 H729 0.950 . S
H726 C722 0.950 . S
C727 C725 1.390 . S
C727 C728 1.387 . S
C727 H730 0.950 . S
C728 C727 1.387 . S
C728 C731 1.387 . S
H729 C725 0.950 . S
H730 C727 0.950 . S
C731 C722 1.390 . S
C731 H724 0.950 . S
C731 C728 1.387 . S
C732 C733 1.387 1_554 S
C732 H736 0.950 . S
C732 C741 1.390 1_554 S
C733 C732 1.387 1_556 S
C733 C735 1.387 . S
H734 C741 0.950 1_554 S
C735 C733 1.387 . S
C735 C737 1.390 . S
C735 H739 0.950 . S
H736 C732 0.950 . S
C737 C735 1.390 . S
C737 C738 1.387 . S
C737 H740 0.950 . S
C738 C737 1.387 . S
C738 C741 1.387 . S
H739 C735 0.950 . S
H740 C737 0.950 . S
C741 C732 1.390 1_556 S
C741 H734 0.950 1_556 S
C741 C738 1.387 . S
C742 C743 1.386 . S
C742 H746 0.950 . S
C742 C751 1.390 . S
C743 C742 1.386 . S
C743 C745 1.389 1_565 S
H744 C751 0.950 . S
C745 C743 1.389 1_545 S
C745 C747 1.390 . S
C745 H749 0.950 . S
H746 C742 0.950 . S
C747 C745 1.390 . S
C747 C748 1.366 1_545 S
C747 H750 0.950 . S
C748 C747 1.366 1_565 S
C748 C751 1.408 . S
H749 C745 0.950 . S
H750 C747 0.950 . S
C751 C742 1.390 . S
C751 H744 0.950 . S
C751 C748 1.408 . S
C752 C753 1.387 . S
C752 H756 0.950 . S
C752 C761 1.390 . S
C753 C752 1.387 . S
C753 C755 1.387 . S
H754 C761 0.950 . S
C755 C753 1.387 . S
C755 C757 1.390 . S
C755 H759 0.950 . S
H756 C752 0.950 . S
C757 C755 1.390 . S
C757 C758 1.387 . S
C757 H760 0.950 . S
C758 C757 1.387 . S
C758 C761 1.387 . S
H759 C755 0.950 . S
H760 C757 0.950 . S
C761 C752 1.390 . S
C761 H754 0.950 . S
C761 C758 1.387 . S
C762 C763 1.387 . S
C762 H766 0.949 1_556 S
C762 C771 1.390 . S
C763 C762 1.387 . S
C763 C765 1.387 . S
H764 C771 0.950 . S
C765 C763 1.387 . S
C765 C767 1.390 . S
C765 H769 0.950 . S
H766 C762 0.949 1_554 S
C767 C765 1.390 . S
C767 C768 1.387 . S
C767 H770 0.950 . S
C768 C767 1.387 . S
C768 C771 1.387 . S
H769 C765 0.950 . S
H770 C767 0.950 . S
C771 C762 1.390 . S
C771 H764 0.950 . S
C771 C768 1.387 . S
C772 C773 1.387 . S
C772 H776 0.950 . S
C772 C781 1.390 . S
C773 C772 1.387 . S
C773 C775 1.387 1_655 S
H774 C781 0.950 . S
C775 C773 1.387 1_455 S
C775 C777 1.390 . S
C775 H779 0.950 . S
H776 C772 0.950 . S
C777 C775 1.390 . S
C777 C778 1.387 1_455 S
C777 H780 0.950 . S
C778 C777 1.387 1_655 S
C778 C781 1.387 . S
H779 C775 0.950 . S
H780 C777 0.950 . S
C781 C772 1.390 . S
C781 H774 0.950 . S
C781 C778 1.387 . S
C782 C783 1.387 . S
C782 H786 0.950 . S
C782 C791 1.390 . S
C783 C782 1.387 . S
C783 C785 1.387 1_565 S
H784 C791 0.950 . S
C785 C783 1.387 1_545 S
C785 C787 1.390 1_545 S
C785 H789 0.950 . S
H786 C782 0.950 . S
C787 C785 1.390 1_565 S
C787 C788 1.387 . S
C787 H790 0.950 1_565 S
C788 C787 1.387 . S
C788 C791 1.387 . S
H789 C785 0.950 . S
H790 C787 0.950 1_545 S
C791 C782 1.390 . S
C791 H784 0.950 . S
C791 C788 1.387 . S
C792 C793 1.387 . S
C792 H796 0.950 . S
C792 C801 1.390 . S
C793 C792 1.387 . S
C793 C795 1.387 . S
H794 C801 0.950 . S
C795 C793 1.387 . S
C795 C797 1.390 . S
C795 H799 0.950 . S
H796 C792 0.950 . S
C797 C795 1.390 . S
C797 C798 1.387 . S
C797 H800 0.950 . S
C798 C797 1.387 . S
C798 C801 1.387 . S
H799 C795 0.950 . S
H800 C797 0.950 . S
C801 C792 1.390 . S
C801 H794 0.950 . S
C801 C798 1.387 . S
C802 C803 1.387 . S
C802 H806 0.950 . S
C802 C811 1.390 . S
C803 C802 1.387 . S
C803 C805 1.387 . S
H804 C811 0.950 . S
C805 C803 1.387 . S
C805 C807 1.390 . S
C805 H809 0.950 . S
H806 C802 0.950 . S
C807 C805 1.390 . S
C807 C808 1.387 . S
C807 H810 0.950 . S
C808 C807 1.387 . S
C808 C811 1.387 . S
H809 C805 0.950 . S
H810 C807 0.950 . S
C811 C802 1.390 . S
C811 H804 0.950 . S
C811 C808 1.387 . S
C573 C391 1.941 1_565 S
C578 C496 1.853 . S
C588 C519 2.030 . S
C583 C451 2.133 . S
C598 C542 1.875 . S
C593 C241 1.721 . S
C608 C569 1.742 . S
C603 C331 1.684 . S
C618 C497 1.720 . S
C613 C121 1.585 1_545 S
C623 C211 1.816 . S
C628 C520 1.818 . S
C633 C31 1.716 . S
C638 C543 1.665 . S
C643 C91 1.699 1_556 S
C648 C568 1.859 . S
C658 C498 0.863 . S
C653 C301 0.753 . S
C668 C521 0.437 . S
C663 C380 0.467 . S
C678 C544 0.652 . S
C673 C440 0.665 . S
C683 C260 0.727 . S
C688 C570 0.727 . S
C693 C61 0.866 . S
C698 C501 0.822 . S
C708 C524 0.773 . S
C703 C140 0.783 1_545 S
C718 C547 0.863 . S
C713 C200 0.916 . S
C723 C20 0.411 . S
C728 C567 0.382 . S
C733 C320 2.062 1_556 S
C738 C499 2.037 . S
C743 C361 1.779 1_565 S
C748 C522 2.007 1_565 S
C758 C545 2.057 . S
C753 C421 1.849 . S
C768 C566 1.903 . S
C763 C271 1.883 . S
C773 C80 2.199 . S
C778 C500 2.082 . S
C788 C523 1.926 . S
C783 C151 2.024 . S
C798 C546 1.941 . S
C793 C181 1.771 . S
C803 C1 1.905 . S
C808 C565 2.181 . S
