# Generated by pormake.
# Topology tsx, (6,3)-cn, num edge types: 1
# Building blocks:
#     Node 0, Type 0, BuildingBlock: VOLQOD_clean_sbu_1, # of connection points: 6
#     Node 1, Type 0, BuildingBlock: VOLQOD_clean_sbu_1, # of connection points: 6
#     Node 2, Type 1, BuildingBlock: VETTIZ_charged_linker_0, # of connection points: 3
#     Node 3, Type 1, BuildingBlock: VETTIZ_charged_linker_0, # of connection points: 3
#     Node 4, Type 1, BuildingBlock: VETTIZ_charged_linker_0, # of connection points: 3
#     Node 5, Type 1, BuildingBlock: VETTIZ_charged_linker_0, # of connection points: 3
#     Edge 6, Type (0, 1), BuildingBlock: AJUNOK_clean_linker_0, # of connection points: 2
#     Edge 7, Type (0, 1), BuildingBlock: AJUNOK_clean_linker_0, # of connection points: 2
#     Edge 8, Type (0, 1), BuildingBlock: AJUNOK_clean_linker_0, # of connection points: 2
#     Edge 9, Type (0, 1), BuildingBlock: AJUNOK_clean_linker_0, # of connection points: 2
#     Edge 10, Type (0, 1), BuildingBlock: AJUNOK_clean_linker_0, # of connection points: 2
#     Edge 11, Type (0, 1), BuildingBlock: AJUNOK_clean_linker_0, # of connection points: 2
#     Edge 12, Type (0, 1), BuildingBlock: AJUNOK_clean_linker_0, # of connection points: 2
#     Edge 13, Type (0, 1), BuildingBlock: AJUNOK_clean_linker_0, # of connection points: 2
#     Edge 14, Type (0, 1), BuildingBlock: AJUNOK_clean_linker_0, # of connection points: 2
#     Edge 15, Type (0, 1), BuildingBlock: AJUNOK_clean_linker_0, # of connection points: 2
#     Edge 16, Type (0, 1), BuildingBlock: AJUNOK_clean_linker_0, # of connection points: 2
#     Edge 17, Type (0, 1), BuildingBlock: AJUNOK_clean_linker_0, # of connection points: 2
# Relax obj value: 0.078
# Max RMSD: 0.110
# Mean RMSD: 0.085
data_MOF--net-tsx--node1-VOLQOD_clean_sbu_1--node2-VETTIZ_charged_linker_0--edge1-AJUNOK_clean_linker_0
_symmetry_space_group_name_H-M    P1
_symmetry_Int_Tables_number       1
_symmetry_cell_setting            triclinic
loop_
_symmetry_equiv_pos_as_xyz
'x, y, z'
_cell_length_a     19.289065
_cell_length_b     19.861276
_cell_length_c     40.180947
_cell_angle_alpha  90.592415
_cell_angle_beta   89.364462
_cell_angle_gamma 90.252982
loop_
_atom_site_label
_atom_site_type_symbol
_atom_site_fract_x
_atom_site_fract_y
_atom_site_fract_z
_atom_type_partial_charge
O0 O 0.06435 0.9839 0.06411 0.0
Zn1 Zn 0.09933 0.98426 0.01656 0.0
O2 O 0.02128 1.00048 -0.01234 0.0
Zn3 Zn 0.99859 0.9186 0.96388 0.0
Zn4 Zn 0.94119 0.02941 0.01364 0.0
Zn5 Zn 0.04506 0.06962 0.95606 0.0
O6 O 0.99199 0.9365 0.91509 0.0
O7 O 0.05535 0.02996 0.91009 0.0
O8 O 0.14809 0.89578 0.00493 0.0
O9 O 0.07448 0.85111 0.96883 0.0
O10 O 0.91067 0.87643 0.98126 0.0
O11 O 0.87055 0.95483 0.01591 0.0
O12 O 0.89489 0.11105 -0.00578 0.0
O13 O 0.16788 0.06151 0.0129 0.0
O14 O 0.96804 0.1371 0.95336 0.0
O15 O 0.1305 0.12024 0.97 0.0
C16 C 0.01472 0.01649 0.07791 0.0
C17 C 0.02368 0.97974 0.89727 0.0
C18 C 0.86526 0.89701 0.00215 0.0
C19 C 0.13016 0.8478 -0.01459 0.0
C20 C 0.9124 0.14814 0.96982 0.0
C21 C 0.17332 0.1117 -0.00655 0.0
O22 O 0.96842 0.04585 0.06104 0.0
O23 O 0.56892 0.50917 0.56463 0.0
Zn24 Zn 0.5982 0.50993 0.51629 0.0
O25 O 0.5162 0.52504 0.48967 0.0
Zn26 Zn 0.49161 0.44168 0.4673 0.0
Zn27 Zn 0.43866 0.55432 0.51746 0.0
Zn28 Zn 0.53613 0.59443 0.45758 0.0
O29 O 0.48523 0.45626 0.41833 0.0
O30 O 0.53873 0.55495 0.4116 0.0
O31 O 0.64697 0.42219 0.50326 0.0
O32 O 0.56734 0.37408 0.47154 0.0
O33 O 0.40315 0.40133 0.48574 0.0
O34 O 0.36677 0.48084 0.52074 0.0
O35 O 0.39119 0.63738 0.49982 0.0
O36 O 0.66547 0.58793 0.51091 0.0
O37 O 0.46025 0.66237 0.45727 0.0
O38 O 0.62331 0.64549 0.46867 0.0
C39 C 0.52039 0.54112 0.57967 0.0
C40 C 0.51164 0.50134 0.39974 0.0
C41 C 0.35923 0.42313 0.50712 0.0
C42 C 0.62623 0.37268 0.48541 0.0
C43 C 0.40687 0.67442 0.47514 0.0
C44 C 0.66853 0.63773 0.49113 0.0
O45 O 0.47123 0.56904 0.56409 0.0
C46 C 0.16025 0.8957 0.4324 0.0
C47 C 0.21073 0.85569 0.41644 0.0
C48 C 0.21155 0.85062 0.38148 0.0
C49 C 0.11367 0.92603 0.3787 0.0
C50 C 0.11267 0.9309 0.41298 0.0
C51 C 0.05694 0.97785 0.42548 0.0
H52 H 0.78873 0.18606 0.38988 0.0
C53 C 0.05709 0.96802 0.366 0.0
C54 C 0.02231 0.99762 0.39328 0.0
H55 H 0.86569 0.13792 0.48699 0.0
H56 H 0.95213 0.06392 0.46201 0.0
H57 H 0.93866 0.19972 0.35382 0.0
H58 H 0.79104 0.03705 0.36095 0.0
H59 H 0.82679 0.03338 0.3206 0.0
H60 H 0.77825 0.10678 0.33368 0.0
H61 H 0.85574 0.20088 0.33396 0.0
H62 H 0.93019 0.16314 0.31404 0.0
C63 C 0.09365 0.03869 0.4418 0.0
C64 C 0.00788 0.93819 0.44886 0.0
C65 C 0.03029 0.99008 0.24153 0.0
C66 C 0.98142 0.02207 0.22153 0.0
C67 C 0.9267 0.05797 0.23697 0.0
C68 C 0.92098 0.06188 0.27177 0.0
C69 C 0.97039 0.0294 0.29137 0.0
C70 C 0.02309 0.99336 0.27609 0.0
C71 C 0.06892 0.95911 0.30053 0.0
C72 C 0.03615 0.98194 0.33315 0.0
C73 C 0.97914 0.02379 0.32773 0.0
C74 C 0.14345 0.98742 0.29602 0.0
C75 C 0.06211 0.88184 0.29503 0.0
C76 C 0.82387 0.159 0.40573 0.0
C77 C 0.82091 0.1675 0.44044 0.0
C78 C 0.8681 0.13238 0.46021 0.0
C79 C 0.91776 0.08931 0.4456 0.0
C80 C 0.92019 0.08134 0.41073 0.0
C81 C 0.87345 0.11598 0.3915 0.0
C82 C 0.8833 0.10241 0.35493 0.0
C83 C 0.94375 0.05397 0.35517 0.0
C84 C 0.96533 0.04144 0.38786 0.0
C85 C 0.90259 0.16982 0.33801 0.0
C86 C 0.81645 0.06857 0.34155 0.0
H87 H 0.16688 0.8793 0.33606 0.0
H88 H 0.15861 0.90022 0.45929 0.0
H89 H 1.00096 0.88549 0.43978 0.0
H90 H 0.95507 0.95911 0.44984 0.0
H91 H 0.02908 0.936 0.47437 0.0
H92 H 0.13187 0.06117 0.42414 0.0
H93 H 0.1228 0.02244 0.46394 0.0
H94 H 0.05802 0.07959 0.449 0.0
H95 H 0.07389 0.96337 0.2306 0.0
H96 H 0.88805 0.08271 0.2221 0.0
H97 H 0.87834 0.09004 0.28205 0.0
H98 H 0.14229 0.0425 0.29124 0.0
H99 H 0.17036 0.96282 0.27458 0.0
H100 H 0.17562 0.9821 0.31836 0.0
H101 H 0.01121 0.86803 0.28404 0.0
H102 H 0.06362 0.85352 0.31858 0.0
H103 H 0.10317 0.8626 0.27788 0.0
H104 H 0.24941 0.81913 0.36876 0.0
C105 C 0.16329 0.88533 0.36256 0.0
C106 C 0.10977 0.19996 0.55059 0.0
C107 C 0.15483 0.24455 0.56715 0.0
C108 C 0.15968 0.24139 0.60207 0.0
C109 C 0.08125 0.14585 0.6029 0.0
C110 C 0.07414 0.15069 0.56889 0.0
C111 C 0.02924 0.09528 0.55494 0.0
H112 H 0.85619 0.80107 0.58146 0.0
C113 C 0.04329 0.08517 0.61387 0.0
C114 C 0.01288 0.05474 0.58584 0.0
H115 H 0.87235 0.90953 0.48909 0.0
H116 H 0.93918 0.99718 0.51647 0.0
H117 H 0.0109 0.81994 0.60332 0.0
H118 H 0.82475 0.92949 0.62662 0.0
H119 H 0.87028 0.9215 0.66393 0.0
H120 H 0.84181 0.84687 0.64214 0.0
H121 H 0.94836 0.78991 0.63307 0.0
H122 H 0.01843 0.84541 0.64506 0.0
C123 C 0.07326 0.05499 0.52957 0.0
C124 C 0.96394 0.12781 0.54027 0.0
C125 C 0.04241 0.02278 0.7359 0.0
C126 C 0.01656 0.96676 0.75324 0.0
C127 C 0.98765 0.91251 0.73518 0.0
C128 C 0.98095 0.9157 0.70062 0.0
C129 C 0.00435 0.9733 0.68381 0.0
C130 C 0.03629 0.02471 0.70131 0.0
C131 C 0.06252 0.07969 0.679 0.0
C132 C 0.03745 0.05443 0.64543 0.0
C133 C 1.00304 0.99253 0.6485 0.0
C134 C 0.1429 0.0815 0.68095 0.0
C135 C 0.02666 0.14634 0.68949 0.0
C136 C 0.87516 0.84304 0.56689 0.0
C137 C 0.85938 0.84804 0.533 0.0
C138 C 0.88359 0.90459 0.51527 0.0
C139 C 0.92274 0.95523 0.5312 0.0
C140 C 0.93838 0.94905 0.56517 0.0
C141 C 0.91409 0.89362 0.58234 0.0
C142 C 0.93257 0.89577 0.61846 0.0
C143 C 0.97216 0.96162 0.62037 0.0
C144 C 0.97616 0.99273 0.58915 0.0
C145 C 0.9796 0.83453 0.62567 0.0
C146 C 0.86418 0.8981 0.63912 0.0
H147 H 0.13 0.19196 0.64643 0.0
H148 H 0.10389 0.20224 0.52386 0.0
H149 H 0.94551 0.1702 0.55633 0.0
H150 H 0.9196 0.0927 0.53886 0.0
H151 H 0.97542 0.14829 0.51518 0.0
H152 H 0.12408 0.04136 0.54041 0.0
H153 H 0.0836 0.08618 0.50739 0.0
H154 H 0.04903 0.00733 0.5217 0.0
H155 H 0.06576 0.06493 0.74899 0.0
H156 H 0.96989 0.86762 0.74781 0.0
H157 H 0.95736 0.87332 0.68839 0.0
H158 H 0.16422 0.03263 0.68935 0.0
H159 H 0.16088 0.12093 0.6987 0.0
H160 H 0.1679 0.08979 0.6564 0.0
H161 H 0.97058 0.13764 0.69472 0.0
H162 H 0.02862 0.18481 0.66987 0.0
H163 H 0.0502 0.16775 0.7124 0.0
H164 H 0.194 0.27522 0.61542 0.0
C165 C 0.12305 0.19248 0.62001 0.0
C166 C 0.66466 0.36966 0.92918 0.0
C167 C 0.71556 0.33196 0.91207 0.0
C168 C 0.71595 0.33086 0.87703 0.0
C169 C 0.61762 0.40609 0.87656 0.0
C170 C 0.61658 0.40678 0.91089 0.0
C171 C 0.5597 0.45101 0.92477 0.0
H172 H 0.29147 0.66338 0.89425 0.0
C173 C 0.56047 0.44882 0.8651 0.0
C174 C 0.52474 0.47418 0.89318 0.0
H175 H 0.36621 0.60417 -0.00979 0.0
H176 H 0.45076 0.52999 0.96347 0.0
H177 H 0.44262 0.68022 0.85971 0.0
H178 H 0.2915 0.52041 0.86144 0.0
H179 H 0.33073 0.51663 0.82184 0.0
H180 H 0.28305 0.59102 0.83435 0.0
H181 H 0.35946 0.68522 0.84026 0.0
H182 H 0.43311 0.64982 0.81877 0.0
C183 C 0.59484 0.51029 0.94314 0.0
C184 C 0.51144 0.40761 0.94681 0.0
C185 C 0.53911 0.49389 0.74186 0.0
C186 C 0.49094 0.52977 0.72308 0.0
C187 C 0.43322 0.55903 0.73942 0.0
C188 C 0.42544 0.55517 0.77404 0.0
C189 C 0.47541 0.52102 0.79253 0.0
C190 C 0.52987 0.4895 0.77627 0.0
C191 C 0.57508 0.45126 0.79956 0.0
C192 C 0.54032 0.4674 0.83272 0.0
C193 C 0.48275 0.50904 0.8285 0.0
C194 C 0.64929 0.48124 0.79722 0.0
C195 C 0.5699 0.37521 0.79046 0.0
C196 C 0.3261 0.63428 0.90948 0.0
C197 C 0.32279 0.63929 0.94427 0.0
C198 C 0.36887 0.60125 0.96333 0.0
C199 C 0.41784 0.55861 0.94775 0.0
C200 C 0.42144 0.55507 0.91274 0.0
C201 C 0.3755 0.59244 0.89435 0.0
C202 C 0.38613 0.58355 0.85757 0.0
C203 C 0.44639 0.53493 0.85665 0.0
C204 C 0.46721 0.51803 0.88896 0.0
C205 C 0.40601 0.65311 0.84301 0.0
C206 C 0.31949 0.55171 0.84277 0.0
H207 H 0.67065 0.36446 0.83263 0.0
H208 H 0.66295 0.37085 0.95614 0.0
H209 H 0.50618 0.35576 0.93636 0.0
H210 H 0.45805 0.42716 0.94805 0.0
H211 H 0.53229 0.4034 0.97233 0.0
H212 H 0.6283 0.53936 0.92567 0.0
H213 H 0.62881 0.491 0.96291 0.0
H214 H 0.558 0.54616 0.95446 0.0
H215 H 0.58352 0.46999 0.73008 0.0
H216 H 0.39366 0.58446 0.72543 0.0
H217 H 0.38091 0.5791 0.78504 0.0
H218 H 0.64741 0.53717 0.79613 0.0
H219 H 0.67669 0.46287 0.77444 0.0
H220 H 0.68137 0.47002 0.819 0.0
H221 H 0.52096 0.36309 0.77721 0.0
H222 H 0.56835 0.34283 0.81273 0.0
H223 H 0.61357 0.35925 0.77399 0.0
H224 H 0.75369 0.30092 0.86334 0.0
C225 C 0.66729 0.36746 0.85923 0.0
C226 C 0.62752 0.66408 0.04729 0.0
C227 C 0.66912 0.71253 0.06327 0.0
C228 C 0.67115 0.71411 0.0983 0.0
C229 C 0.59383 0.61791 0.10078 0.0
C230 C 0.59095 0.61699 0.06651 0.0
C231 C 0.54628 0.56045 0.05358 0.0
H232 H 0.3457 0.28661 0.08741 0.0
C233 C 0.55082 0.56171 0.11317 0.0
C234 C 0.52158 0.52827 0.0857 0.0
H235 H 0.39107 0.37055 -0.0091 0.0
H236 H 0.45791 0.45998 0.01673 0.0
H237 H 0.50204 0.30697 0.11779 0.0
H238 H 0.31238 0.41965 0.12248 0.0
H239 H 0.35252 0.43335 0.16092 0.0
H240 H 0.32658 0.34906 0.14898 0.0
H241 H 0.42517 0.27906 0.13927 0.0
H242 H 0.48806 0.33231 0.15941 0.0
C243 C 0.59372 0.51264 0.03331 0.0
C244 C 0.48642 0.59132 0.03367 0.0
C245 C 0.53927 0.51862 0.23697 0.0
C246 C 0.5019 0.47239 0.25641 0.0
C247 C 0.45961 0.42398 0.24061 0.0
C248 C 0.45474 0.42175 0.20588 0.0
C249 C 0.492 0.46885 0.1868 0.0
C250 C 0.53304 0.51638 0.20245 0.0
C251 C 0.56624 0.56449 0.17848 0.0
C252 C 0.53828 0.53797 0.14577 0.0
C253 C 0.49568 0.48157 0.15074 0.0
C254 C 0.64591 0.55604 0.18068 0.0
C255 C 0.53963 0.63647 0.18676 0.0
C256 C 0.37112 0.32354 0.07175 0.0
C257 C 0.36359 0.32133 0.03706 0.0
C258 C 0.39602 0.37143 0.01769 0.0
C259 C 0.43526 0.42296 0.03273 0.0
C260 C 0.44262 0.42414 0.06752 0.0
C261 C 0.41039 0.37496 0.08634 0.0
C262 C 0.42133 0.38471 0.12296 0.0
C263 C 0.46614 0.44748 0.12316 0.0
C264 C 0.47886 0.47055 0.09071 0.0
C265 C 0.46083 0.32257 0.13584 0.0
C266 C 0.34976 0.3969 0.13997 0.0
H267 H 0.63794 0.67092 0.14365 0.0
H268 H 0.62389 0.66259 0.02041 0.0
H269 H 0.46997 0.64044 0.04466 0.0
H270 H 0.43912 0.5599 0.03418 0.0
H271 H 0.50272 0.60045 0.00752 0.0
H272 H 0.63634 0.49382 0.04911 0.0
H273 H 0.61802 0.54015 0.01237 0.0
H274 H 0.56676 0.46805 0.02332 0.0
H275 H 0.5721 0.55651 0.24843 0.0
H276 H 0.42893 0.38891 0.25513 0.0
H277 H 0.42149 0.38399 0.1953 0.0
H278 H 0.65978 0.50211 0.18361 0.0
H279 H 0.66689 0.58419 0.2024 0.0
H280 H 0.67385 0.57215 0.15799 0.0
H281 H 0.48691 0.63511 0.19828 0.0
H282 H 0.53358 0.66769 0.16435 0.0
H283 H 0.57443 0.6629 0.2045 0.0
H284 H 0.70316 0.75078 0.11117 0.0
C285 C 0.63362 0.6673 0.11711 0.0
C286 C 0.28176 0.1499 0.02176 0.0
C287 C 0.22666 0.16413 0.0003 0.0
C288 C 0.32767 0.20047 0.03222 0.0
C289 C 0.32027 0.26747 0.02182 0.0
H290 H 0.28857 0.09956 0.03129 0.0
H291 H 0.36836 0.1873 0.04933 0.0
S292 S 0.18639 0.33141 0.96475 0.0
N293 N 0.16926 0.25019 0.96784 0.0
N294 N 0.25494 0.34521 -0.01188 0.0
C295 C 0.26721 0.2821 -0.00065 0.0
C296 C 0.22057 0.23048 -0.01153 0.0
C297 C 0.24729 0.79261 -0.01164 0.0
C298 C 0.1767 0.78904 0.97969 0.0
C299 C 0.29401 0.74168 0.97864 0.0
C300 C 0.2717 0.68559 0.95994 0.0
H301 H 0.26737 0.83647 0.00134 0.0
H302 H 0.34848 0.74796 0.98426 0.0
S303 S 0.09135 0.64622 0.93545 0.0
N304 N 0.08593 0.71984 0.95474 0.0
N305 N 0.17404 0.62533 0.93635 0.0
C306 C 0.20088 0.67916 0.95303 0.0
C307 C 0.15331 0.73053 0.96296 0.0
C308 C 0.7609 0.87316 0.03771 0.0
C309 C 0.80911 0.8508 0.01345 0.0
C310 C 0.71387 0.82863 0.05266 0.0
C311 C 0.7128 0.75998 0.04389 0.0
H312 H 0.76086 0.92513 0.04618 0.0
H313 H 0.67918 0.8478 0.07187 0.0
S314 S 0.82394 0.67607 0.98012 0.0
N315 N 0.84929 0.75555 0.97979 0.0
N316 N 0.76126 0.67195 0.00832 0.0
C317 C 0.75808 0.73734 0.01856 0.0
C318 C 0.80612 0.78269 0.00324 0.0
C319 C 0.79402 0.1999 0.96773 0.0
C320 C 0.86475 0.20164 0.95853 0.0
C321 C 0.74628 0.24441 0.9538 0.0
C322 C 0.7676 0.2922 0.9302 0.0
H323 H 0.7747 0.16201 -0.01528 0.0
H324 H 0.69191 0.23933 0.96038 0.0
S325 S 0.94797 0.32528 0.90178 0.0
N326 N 0.95455 0.26089 0.92719 0.0
N327 N 0.86475 0.34424 0.90121 0.0
C328 C 0.83856 0.29735 0.92238 0.0
C329 C 0.88714 0.25219 0.93649 0.0
C330 C 0.78224 0.67578 0.51425 0.0
C331 C 0.72167 0.69091 0.49671 0.0
C332 C 0.8285 0.72659 0.52411 0.0
C333 C 0.81576 0.7948 0.51723 0.0
H334 H 0.79316 0.6244 0.52123 0.0
H335 H 0.87361 0.7125 0.53823 0.0
S336 S 0.66594 0.86126 0.47085 0.0
N337 N 0.65317 0.77903 0.47136 0.0
N338 N 0.73923 0.87455 0.49076 0.0
C339 C 0.75699 0.81046 0.49845 0.0
C340 C 0.71015 0.75855 0.48803 0.0
C341 C 0.74374 0.3178 0.48679 0.0
C342 C 0.67328 0.31497 0.47783 0.0
C343 C 0.79083 0.26817 0.47592 0.0
C344 C 0.7693 0.21416 0.45557 0.0
H345 H 0.76336 0.35993 0.50124 0.0
H346 H 0.84502 0.27371 0.48227 0.0
S347 S 0.58976 0.17752 0.42875 0.0
N348 N 0.5836 0.24875 0.45007 0.0
N349 N 0.67242 0.15664 0.42966 0.0
C350 C 0.6987 0.20858 0.44795 0.0
C351 C 0.65065 0.25859 0.45909 0.0
C352 C 0.25654 0.4016 0.54431 0.0
C353 C 0.30148 0.37888 0.51869 0.0
C354 C 0.20733 0.35868 0.55888 0.0
C355 C 0.20057 0.29133 0.54834 0.0
H356 H 0.2607 0.45249 0.55408 0.0
H357 H 0.17535 0.37796 0.57913 0.0
S358 S 0.30174 0.20732 0.48081 0.0
N359 N 0.3327 0.28491 0.4821 0.0
N360 N 0.24067 0.20428 0.50985 0.0
C361 C 0.24278 0.26854 0.5218 0.0
C362 C 0.29308 0.31224 0.50691 0.0
C363 C 0.28844 0.72602 0.47349 0.0
C364 C 0.35936 0.72863 0.46476 0.0
C365 C 0.24068 0.77001 0.45916 0.0
C366 C 0.26235 0.81792 0.43569 0.0
H367 H 0.26905 0.6875 0.4901 0.0
H368 H 0.18609 0.76412 0.46512 0.0
S369 S 0.44316 0.85375 0.40903 0.0
N370 N 0.44966 0.78947 0.43451 0.0
N371 N 0.35972 0.87151 0.40765 0.0
C372 C 0.33346 0.82433 0.42864 0.0
C373 C 0.38202 0.77987 0.44318 0.0
C374 C 0.98845 0.07655 0.13124 0.0
C375 C 0.00792 0.01718 0.11438 0.0
C376 C 0.9796 0.07765 0.16588 0.0
C377 C 0.98854 0.01904 0.18474 0.0
H378 H 0.98092 0.12267 0.11759 0.0
H379 H 0.9666 0.12498 0.178 0.0
S380 S 0.0311 0.84884 0.15142 0.0
N381 N 0.03189 0.89767 0.11842 0.0
N382 N 0.01198 0.89861 0.18336 0.0
C383 C 0.00587 0.9588 0.16787 0.0
C384 C 0.01638 0.95815 0.13273 0.0
C385 C 0.07963 0.99232 0.84155 0.0
C386 C 0.02194 0.97276 0.86082 0.0
C387 C 0.07815 0.98843 0.80679 0.0
C388 C 0.01847 0.96598 0.79008 0.0
H389 H 0.12636 0.01052 0.85344 0.0
H390 H 0.12402 1.00346 0.79289 0.0
S391 S 0.85215 0.91314 0.82945 0.0
N392 N 0.9032 0.93134 0.86102 0.0
N393 N 0.89916 0.92672 0.79559 0.0
C394 C 0.96028 0.94654 0.80917 0.0
C395 C 0.96231 0.94934 0.84458 0.0
C396 C 0.53048 0.48136 0.6333 0.0
C397 C 0.51727 0.54108 0.61618 0.0
C398 C 0.52154 0.47817 0.66783 0.0
C399 C 0.50039 0.53501 0.68652 0.0
H400 H 0.5455 0.43612 0.6198 0.0
H401 H 0.52997 0.43038 0.67985 0.0
S402 S 0.46693 0.70544 0.65331 0.0
N403 N 0.4856 0.65908 0.62009 0.0
N404 N 0.47222 0.65438 0.68535 0.0
C405 C 0.48944 0.59576 0.66966 0.0
C406 C 0.49714 0.5985 0.6344 0.0
C407 C 0.50146 0.54843 0.34308 0.0
C408 C 0.50951 0.49209 0.36345 0.0
C409 C 0.49843 0.54126 0.30853 0.0
C410 C 0.50443 0.47761 0.29309 0.0
H411 H 0.49631 0.59836 0.35392 0.0
H412 H 0.4907 0.58596 0.29381 0.0
S413 S 0.53176 0.31493 0.33545 0.0
N414 N 0.5259 0.37092 0.36601 0.0
N415 N 0.52246 0.3576 0.30073 0.0
C416 C 0.51354 0.42089 0.31319 0.0
C417 C 0.51562 0.42812 0.34847 0.0
loop_
_geom_bond_atom_site_label_1
_geom_bond_atom_site_label_2
_geom_bond_distance
_geom_bond_site_symmetry_2
_ccdc_geom_bond_type
O0 Zn1 1.953 . S
O0 C16 1.225 1_565 S
Zn1 O0 1.953 . S
Zn1 O2 1.949 1_565 S
Zn1 O8 1.919 . S
Zn1 O13 1.924 1_565 S
O2 Zn1 1.949 1_545 S
O2 Zn3 1.923 1_444 S
O2 Zn4 1.950 1_455 S
O2 Zn5 1.945 1_554 S
Zn3 O2 1.923 1_666 S
Zn3 O6 1.933 . S
Zn3 O9 1.941 1_655 S
Zn3 O10 1.965 . S
Zn4 O2 1.950 1_655 S
Zn4 O11 1.938 1_545 S
Zn4 O12 1.906 . S
Zn4 O22 1.953 . S
Zn5 O2 1.945 1_556 S
Zn5 O7 1.932 . S
Zn5 O14 1.977 1_455 S
Zn5 O15 1.910 . S
O6 Zn3 1.933 . S
O6 C17 1.226 1_665 S
O7 Zn5 1.932 . S
O7 C17 1.307 . S
O8 Zn1 1.919 . S
O8 C19 1.253 1_554 S
O9 Zn3 1.941 1_455 S
O9 C19 1.283 . S
O10 Zn3 1.965 . S
O10 C18 1.303 1_556 S
O11 Zn4 1.938 1_565 S
O11 C18 1.247 . S
O12 Zn4 1.906 . S
O12 C20 1.304 1_554 S
O13 Zn1 1.924 1_545 S
O13 C21 1.311 . S
O14 Zn5 1.977 1_655 S
O14 C20 1.272 . S
O15 Zn5 1.910 . S
O15 C21 1.231 1_556 S
C16 O0 1.225 1_545 S
C16 O22 1.298 1_455 S
C17 O6 1.226 1_445 S
C17 O7 1.307 . S
C18 O10 1.303 1_554 S
C18 O11 1.247 . S
C19 O8 1.253 1_556 S
C19 O9 1.283 . S
C20 O12 1.304 1_556 S
C20 O14 1.272 . S
C21 O13 1.311 . S
C21 O15 1.231 1_554 S
O22 Zn4 1.953 . S
O22 C16 1.298 1_655 S
O23 Zn24 1.953 . S
O23 C39 1.225 . S
Zn24 O23 1.953 . S
Zn24 O25 1.949 . S
Zn24 O31 1.919 . S
Zn24 O36 1.924 . S
O25 Zn24 1.949 . S
O25 Zn26 1.923 . S
O25 Zn27 1.950 . S
O25 Zn28 1.945 . S
Zn26 O25 1.923 . S
Zn26 O29 1.933 . S
Zn26 O32 1.941 . S
Zn26 O33 1.965 . S
Zn27 O25 1.950 . S
Zn27 O34 1.938 . S
Zn27 O35 1.906 . S
Zn27 O45 1.953 . S
Zn28 O25 1.945 . S
Zn28 O30 1.932 . S
Zn28 O37 1.977 . S
Zn28 O38 1.910 . S
O29 Zn26 1.933 . S
O29 C40 1.226 . S
O30 Zn28 1.932 . S
O30 C40 1.307 . S
O31 Zn24 1.919 . S
O31 C42 1.253 . S
O32 Zn26 1.941 . S
O32 C42 1.283 . S
O33 Zn26 1.965 . S
O33 C41 1.303 . S
O34 Zn27 1.938 . S
O34 C41 1.247 . S
O35 Zn27 1.906 . S
O35 C43 1.304 . S
O36 Zn24 1.924 . S
O36 C44 1.311 . S
O37 Zn28 1.977 . S
O37 C43 1.272 . S
O38 Zn28 1.910 . S
O38 C44 1.231 . S
C39 O23 1.225 . S
C39 O45 1.298 . S
C40 O29 1.226 . S
C40 O30 1.307 . S
C41 O33 1.303 . S
C41 O34 1.247 . S
C42 O31 1.253 . S
C42 O32 1.283 . S
C43 O35 1.304 . S
C43 O37 1.272 . S
C44 O36 1.311 . S
C44 O38 1.231 . S
O45 Zn27 1.953 . S
O45 C39 1.298 . S
C46 C47 1.391 . S
C46 C50 1.391 . S
C46 H88 0.948 . S
C47 C46 1.391 . S
C47 C48 1.391 . S
C48 C47 1.391 . S
C48 H104 0.947 . S
C48 C105 1.392 . S
C49 C50 1.391 . S
C49 C53 1.397 . S
C49 C105 1.419 . S
C50 C46 1.391 . S
C50 C49 1.391 . S
C50 C51 1.399 . S
C51 C50 1.399 . S
C51 C54 1.396 . S
C51 C63 1.453 1_565 S
C51 C64 1.684 1_455 S
H52 C76 0.948 . S
C53 C49 1.397 . S
C53 C54 1.394 . S
C53 C72 1.723 . S
C54 C51 1.396 . S
C54 C53 1.394 . S
C54 C84 1.723 1_465 S
H55 C78 0.947 . S
H56 C79 0.948 . S
H57 C85 0.982 . S
H58 C86 0.979 . S
H59 C86 0.980 . S
H60 C86 0.983 . S
H61 C85 0.979 . S
H62 C85 0.977 . S
C63 C51 1.453 1_545 S
C63 H92 0.982 . S
C63 H93 0.979 1_545 S
C63 H94 0.977 . S
C64 C51 1.684 1_655 S
C64 H89 0.979 . S
C64 H90 0.980 . S
C64 H91 0.983 1_655 S
C65 C66 1.391 1_465 S
C65 C70 1.391 . S
C65 H95 0.948 . S
C66 C65 1.391 1_645 S
C66 C67 1.391 . S
C67 C66 1.391 . S
C67 C68 1.392 . S
C67 H96 0.947 . S
C68 C67 1.392 . S
C68 C69 1.419 . S
C68 H97 0.948 . S
C69 C68 1.419 . S
C69 C70 1.391 1_645 S
C69 C73 1.397 . S
C70 C65 1.391 . S
C70 C69 1.391 1_465 S
C70 C71 1.399 . S
C71 C70 1.399 . S
C71 C72 1.396 . S
C71 C74 1.453 . S
C71 C75 1.684 . S
C72 C53 1.723 . S
C72 C71 1.396 . S
C72 C73 1.394 1_465 S
C73 C69 1.397 . S
C73 C72 1.394 1_645 S
C73 C83 1.723 . S
C74 C71 1.453 . S
C74 H98 0.982 . S
C74 H99 0.979 . S
C74 H100 0.977 . S
C75 C71 1.684 . S
C75 H101 0.979 . S
C75 H102 0.980 . S
C75 H103 0.983 . S
C76 H52 0.948 . S
C76 C77 1.391 . S
C76 C81 1.391 . S
C77 C76 1.391 . S
C77 C78 1.391 . S
C78 H55 0.947 . S
C78 C77 1.391 . S
C78 C79 1.392 . S
C79 H56 0.948 . S
C79 C78 1.392 . S
C79 C80 1.419 . S
C80 C79 1.419 . S
C80 C81 1.391 . S
C80 C84 1.397 . S
C81 C76 1.391 . S
C81 C80 1.391 . S
C81 C82 1.399 . S
C82 C81 1.399 . S
C82 C83 1.396 . S
C82 C85 1.453 . S
C82 C86 1.684 . S
C83 C73 1.723 . S
C83 C82 1.396 . S
C83 C84 1.394 . S
C84 C54 1.723 1_645 S
C84 C80 1.397 . S
C84 C83 1.394 . S
C85 H57 0.982 . S
C85 H61 0.979 . S
C85 H62 0.977 . S
C85 C82 1.453 . S
C86 H58 0.979 . S
C86 H59 0.980 . S
C86 H60 0.983 . S
C86 C82 1.684 . S
H87 C105 0.948 . S
H88 C46 0.948 . S
H89 C64 0.979 . S
H90 C64 0.980 . S
H91 C64 0.983 1_455 S
H92 C63 0.982 . S
H93 C63 0.979 1_565 S
H94 C63 0.977 . S
H95 C65 0.948 . S
H96 C67 0.947 . S
H97 C68 0.948 . S
H98 C74 0.982 . S
H99 C74 0.979 . S
H100 C74 0.977 . S
H101 C75 0.979 . S
H102 C75 0.980 . S
H103 C75 0.983 . S
H104 C48 0.947 . S
C105 C48 1.392 . S
C105 C49 1.419 . S
C105 H87 0.948 . S
C106 C107 1.391 . S
C106 C110 1.391 . S
C106 H148 0.948 . S
C107 C106 1.391 . S
C107 C108 1.391 . S
C108 C107 1.391 . S
C108 H164 0.947 . S
C108 C165 1.392 . S
C109 C110 1.391 . S
C109 C113 1.397 . S
C109 C165 1.419 . S
C110 C106 1.391 . S
C110 C109 1.391 . S
C110 C111 1.399 . S
C111 C110 1.399 . S
C111 C114 1.396 . S
C111 C123 1.453 1_545 S
C111 C124 1.684 1_455 S
H112 C136 0.948 . S
C113 C109 1.397 . S
C113 C114 1.394 . S
C113 C132 1.723 . S
C114 C111 1.396 . S
C114 C113 1.394 . S
C114 C144 1.723 1_445 S
H115 C138 0.947 . S
H116 C139 0.948 . S
H117 C145 0.982 . S
H118 C146 0.979 . S
H119 C146 0.980 . S
H120 C146 0.983 . S
H121 C145 0.979 . S
H122 C145 0.977 . S
C123 C111 1.453 1_565 S
C123 H152 0.982 . S
C123 H153 0.979 1_565 S
C123 H154 0.977 . S
C124 C111 1.684 1_655 S
C124 H149 0.979 . S
C124 H150 0.980 . S
C124 H151 0.983 1_655 S
C125 C126 1.393 . S
C125 C130 1.391 . S
C125 H155 0.948 . S
C126 C125 1.393 . S
C126 C127 1.389 1_445 S
C127 C126 1.389 1_665 S
C127 C128 1.392 . S
C127 H156 0.947 . S
C128 C127 1.392 . S
C128 C129 1.419 . S
C128 H157 0.948 . S
C129 C128 1.419 . S
C129 C130 1.391 1_665 S
C129 C133 1.397 1_655 S
C130 C125 1.391 . S
C130 C129 1.391 1_445 S
C130 C131 1.399 . S
C131 C130 1.399 . S
C131 C132 1.396 . S
C131 C134 1.453 . S
C131 C135 1.684 . S
C132 C113 1.723 . S
C132 C131 1.396 . S
C132 C133 1.394 1_545 S
C133 C129 1.397 1_455 S
C133 C132 1.394 1_565 S
C133 C143 1.723 1_455 S
C134 C131 1.453 . S
C134 H158 0.982 . S
C134 H159 0.979 . S
C134 H160 0.977 . S
C135 C131 1.684 . S
C135 H161 0.979 . S
C135 H162 0.980 . S
C135 H163 0.983 . S
C136 H112 0.948 . S
C136 C137 1.391 . S
C136 C141 1.391 . S
C137 C136 1.391 . S
C137 C138 1.391 . S
C138 H115 0.947 . S
C138 C137 1.391 . S
C138 C139 1.392 . S
C139 H116 0.948 . S
C139 C138 1.392 . S
C139 C140 1.419 . S
C140 C139 1.419 . S
C140 C141 1.391 . S
C140 C144 1.397 . S
C141 C136 1.391 . S
C141 C140 1.391 . S
C141 C142 1.399 . S
C142 C141 1.399 . S
C142 C143 1.396 . S
C142 C145 1.453 . S
C142 C146 1.684 . S
C143 C133 1.723 1_655 S
C143 C142 1.396 . S
C143 C144 1.394 . S
C144 C114 1.723 1_665 S
C144 C140 1.397 . S
C144 C143 1.394 . S
C145 H117 0.982 . S
C145 H121 0.979 . S
C145 H122 0.977 . S
C145 C142 1.453 . S
C146 H118 0.979 . S
C146 H119 0.980 . S
C146 H120 0.983 . S
C146 C142 1.684 . S
H147 C165 0.948 . S
H148 C106 0.948 . S
H149 C124 0.979 . S
H150 C124 0.980 . S
H151 C124 0.983 1_455 S
H152 C123 0.982 . S
H153 C123 0.979 1_545 S
H154 C123 0.977 . S
H155 C125 0.948 . S
H156 C127 0.947 . S
H157 C128 0.948 . S
H158 C134 0.982 . S
H159 C134 0.979 . S
H160 C134 0.977 . S
H161 C135 0.979 . S
H162 C135 0.980 . S
H163 C135 0.983 . S
H164 C108 0.947 . S
C165 C108 1.392 . S
C165 C109 1.419 . S
C165 H147 0.948 . S
C166 C167 1.391 . S
C166 C170 1.391 . S
C166 H208 0.948 . S
C167 C166 1.391 . S
C167 C168 1.391 . S
C168 C167 1.391 . S
C168 H224 0.947 . S
C168 C225 1.392 . S
C169 C170 1.391 . S
C169 C173 1.397 . S
C169 C225 1.419 . S
C170 C166 1.391 . S
C170 C169 1.391 . S
C170 C171 1.399 . S
C171 C170 1.399 . S
C171 C174 1.396 . S
C171 C183 1.453 . S
C171 C184 1.684 . S
H172 C196 0.948 . S
C173 C169 1.397 . S
C173 C174 1.394 . S
C173 C192 1.723 . S
C174 C171 1.396 . S
C174 C173 1.394 . S
C174 C204 1.723 . S
H175 C198 0.947 1_554 S
H176 C199 0.948 . S
H177 C205 0.982 . S
H178 C206 0.979 . S
H179 C206 0.980 . S
H180 C206 0.983 . S
H181 C205 0.979 . S
H182 C205 0.977 . S
C183 C171 1.453 . S
C183 H212 0.982 . S
C183 H213 0.979 1_556 S
C183 H214 0.977 . S
C184 C171 1.684 . S
C184 H209 0.979 . S
C184 H210 0.980 . S
C184 H211 0.983 1_556 S
C185 C186 1.391 . S
C185 C190 1.391 . S
C185 H215 0.948 . S
C186 C185 1.391 . S
C186 C187 1.391 . S
C187 C186 1.391 . S
C187 C188 1.392 . S
C187 H216 0.947 . S
C188 C187 1.392 . S
C188 C189 1.419 . S
C188 H217 0.948 . S
C189 C188 1.419 . S
C189 C190 1.391 . S
C189 C193 1.397 . S
C190 C185 1.391 . S
C190 C189 1.391 . S
C190 C191 1.399 . S
C191 C190 1.399 . S
C191 C192 1.396 . S
C191 C194 1.453 . S
C191 C195 1.684 . S
C192 C173 1.723 . S
C192 C191 1.396 . S
C192 C193 1.394 . S
C193 C189 1.397 . S
C193 C192 1.394 . S
C193 C203 1.723 . S
C194 C191 1.453 . S
C194 H218 0.982 . S
C194 H219 0.979 . S
C194 H220 0.977 . S
C195 C191 1.684 . S
C195 H221 0.979 . S
C195 H222 0.980 . S
C195 H223 0.983 . S
C196 H172 0.948 . S
C196 C197 1.391 . S
C196 C201 1.391 . S
C197 C196 1.391 . S
C197 C198 1.391 . S
C198 H175 0.947 1_556 S
C198 C197 1.391 . S
C198 C199 1.392 . S
C199 H176 0.948 . S
C199 C198 1.392 . S
C199 C200 1.419 . S
C200 C199 1.419 . S
C200 C201 1.391 . S
C200 C204 1.397 . S
C201 C196 1.391 . S
C201 C200 1.391 . S
C201 C202 1.399 . S
C202 C201 1.399 . S
C202 C203 1.396 . S
C202 C205 1.453 . S
C202 C206 1.684 . S
C203 C193 1.723 . S
C203 C202 1.396 . S
C203 C204 1.394 . S
C204 C174 1.723 . S
C204 C200 1.397 . S
C204 C203 1.394 . S
C205 H177 0.982 . S
C205 H181 0.979 . S
C205 H182 0.977 . S
C205 C202 1.453 . S
C206 H178 0.979 . S
C206 H179 0.980 . S
C206 H180 0.983 . S
C206 C202 1.684 . S
H207 C225 0.948 . S
H208 C166 0.948 . S
H209 C184 0.979 . S
H210 C184 0.980 . S
H211 C184 0.983 1_554 S
H212 C183 0.982 . S
H213 C183 0.979 1_554 S
H214 C183 0.977 . S
H215 C185 0.948 . S
H216 C187 0.947 . S
H217 C188 0.948 . S
H218 C194 0.982 . S
H219 C194 0.979 . S
H220 C194 0.977 . S
H221 C195 0.979 . S
H222 C195 0.980 . S
H223 C195 0.983 . S
H224 C168 0.947 . S
C225 C168 1.392 . S
C225 C169 1.419 . S
C225 H207 0.948 . S
C226 C227 1.391 . S
C226 C230 1.391 . S
C226 H268 0.948 . S
C227 C226 1.391 . S
C227 C228 1.391 . S
C228 C227 1.391 . S
C228 H284 0.947 . S
C228 C285 1.392 . S
C229 C230 1.391 . S
C229 C233 1.397 . S
C229 C285 1.419 . S
C230 C226 1.391 . S
C230 C229 1.391 . S
C230 C231 1.399 . S
C231 C230 1.399 . S
C231 C234 1.396 . S
C231 C243 1.453 . S
C231 C244 1.684 . S
H232 C256 0.948 . S
C233 C229 1.397 . S
C233 C234 1.394 . S
C233 C252 1.723 . S
C234 C231 1.396 . S
C234 C233 1.394 . S
C234 C264 1.723 . S
H235 C258 0.947 1_556 S
H236 C259 0.948 . S
H237 C265 0.982 . S
H238 C266 0.979 . S
H239 C266 0.980 . S
H240 C266 0.983 . S
H241 C265 0.979 . S
H242 C265 0.977 . S
C243 C231 1.453 . S
C243 H272 0.982 . S
C243 H273 0.979 . S
C243 H274 0.977 . S
C244 C231 1.684 . S
C244 H269 0.979 . S
C244 H270 0.980 . S
C244 H271 0.983 1_554 S
C245 C246 1.391 . S
C245 C250 1.391 . S
C245 H275 0.948 . S
C246 C245 1.391 . S
C246 C247 1.391 . S
C247 C246 1.391 . S
C247 C248 1.392 . S
C247 H276 0.947 . S
C248 C247 1.392 . S
C248 C249 1.419 . S
C248 H277 0.948 . S
C249 C248 1.419 . S
C249 C250 1.391 . S
C249 C253 1.397 . S
C250 C245 1.391 . S
C250 C249 1.391 . S
C250 C251 1.399 . S
C251 C250 1.399 . S
C251 C252 1.396 . S
C251 C254 1.453 . S
C251 C255 1.684 . S
C252 C233 1.723 . S
C252 C251 1.396 . S
C252 C253 1.394 . S
C253 C249 1.397 . S
C253 C252 1.394 . S
C253 C263 1.723 . S
C254 C251 1.453 . S
C254 H278 0.982 . S
C254 H279 0.979 . S
C254 H280 0.977 . S
C255 C251 1.684 . S
C255 H281 0.979 . S
C255 H282 0.980 . S
C255 H283 0.983 . S
C256 H232 0.948 . S
C256 C257 1.391 . S
C256 C261 1.391 . S
C257 C256 1.391 . S
C257 C258 1.391 . S
C258 H235 0.947 1_554 S
C258 C257 1.391 . S
C258 C259 1.392 . S
C259 H236 0.948 . S
C259 C258 1.392 . S
C259 C260 1.419 . S
C260 C259 1.419 . S
C260 C261 1.391 . S
C260 C264 1.397 . S
C261 C256 1.391 . S
C261 C260 1.391 . S
C261 C262 1.399 . S
C262 C261 1.399 . S
C262 C263 1.396 . S
C262 C265 1.453 . S
C262 C266 1.684 . S
C263 C253 1.723 . S
C263 C262 1.396 . S
C263 C264 1.394 . S
C264 C234 1.723 . S
C264 C260 1.397 . S
C264 C263 1.394 . S
C265 H237 0.982 . S
C265 H241 0.979 . S
C265 H242 0.977 . S
C265 C262 1.453 . S
C266 H238 0.979 . S
C266 H239 0.980 . S
C266 H240 0.983 . S
C266 C262 1.684 . S
H267 C285 0.948 . S
H268 C226 0.948 . S
H269 C244 0.979 . S
H270 C244 0.980 . S
H271 C244 0.983 1_556 S
H272 C243 0.982 . S
H273 C243 0.979 . S
H274 C243 0.977 . S
H275 C245 0.948 . S
H276 C247 0.947 . S
H277 C248 0.948 . S
H278 C254 0.982 . S
H279 C254 0.979 . S
H280 C254 0.977 . S
H281 C255 0.979 . S
H282 C255 0.980 . S
H283 C255 0.983 . S
H284 C228 0.947 . S
C285 C228 1.392 . S
C285 C229 1.419 . S
C285 H267 0.948 . S
C286 C287 1.369 . S
C286 C288 1.419 . S
C286 H290 0.930 . S
C287 C286 1.369 . S
C287 C296 1.429 1_554 S
C288 C286 1.419 . S
C288 C289 1.363 . S
C288 H291 0.929 . S
C289 C288 1.363 . S
C289 C295 1.428 . S
H290 C286 0.930 . S
H291 C288 0.929 . S
S292 N293 1.613 . S
S292 N294 1.610 . S
N293 S292 1.613 . S
N293 C296 1.350 . S
N294 S292 1.610 . S
N294 C295 1.351 1_556 S
C295 C289 1.428 . S
C295 N294 1.351 1_554 S
C295 C296 1.434 1_554 S
C296 C287 1.429 1_556 S
C296 N293 1.350 . S
C296 C295 1.434 1_556 S
C297 C298 1.369 . S
C297 C299 1.419 . S
C297 H301 0.930 1_556 S
C298 C297 1.369 . S
C298 C307 1.429 . S
C299 C297 1.419 . S
C299 C300 1.363 . S
C299 H302 0.929 . S
C300 C299 1.363 . S
C300 C306 1.428 . S
H301 C297 0.930 1_554 S
H302 C299 0.929 . S
S303 N304 1.613 . S
S303 N305 1.610 . S
N304 S303 1.613 . S
N304 C307 1.350 . S
N305 S303 1.610 . S
N305 C306 1.351 . S
C306 C300 1.428 . S
C306 N305 1.351 . S
C306 C307 1.434 . S
C307 C298 1.429 . S
C307 N304 1.350 . S
C307 C306 1.434 . S
C308 C309 1.345 1_556 S
C308 C310 1.415 1_556 S
C308 H312 0.960 . S
C309 C308 1.345 1_554 S
C309 C318 1.429 . S
C310 C308 1.415 1_554 S
C310 C311 1.363 . S
C310 H313 0.929 1_554 S
C311 C310 1.363 . S
C311 C317 1.428 . S
H312 C308 0.960 . S
H313 C310 0.929 1_556 S
S314 N315 1.613 . S
S314 N316 1.610 . S
N315 S314 1.613 . S
N315 C318 1.350 . S
N316 S314 1.610 . S
N316 C317 1.351 . S
C317 C311 1.428 . S
C317 N316 1.351 . S
C317 C318 1.434 . S
C318 C309 1.429 . S
C318 N315 1.350 . S
C318 C317 1.434 . S
C319 C320 1.369 1_554 S
C319 C321 1.419 . S
C319 H323 0.930 . S
C320 C319 1.369 1_556 S
C320 C329 1.429 . S
C321 C319 1.419 . S
C321 C322 1.363 1_554 S
C321 H324 0.929 . S
C322 C321 1.363 1_556 S
C322 C328 1.428 . S
H323 C319 0.930 . S
H324 C321 0.929 . S
S325 N326 1.613 . S
S325 N327 1.610 . S
N326 S325 1.613 . S
N326 C329 1.350 . S
N327 S325 1.610 . S
N327 C328 1.351 . S
C328 C322 1.428 . S
C328 N327 1.351 . S
C328 C329 1.434 . S
C329 C320 1.429 . S
C329 N326 1.350 . S
C329 C328 1.434 . S
C330 C331 1.369 . S
C330 C332 1.419 . S
C330 H334 0.930 . S
C331 C330 1.369 . S
C331 C340 1.429 . S
C332 C330 1.419 . S
C332 C333 1.363 . S
C332 H335 0.929 . S
C333 C332 1.363 . S
C333 C339 1.428 . S
H334 C330 0.930 . S
H335 C332 0.929 . S
S336 N337 1.613 . S
S336 N338 1.610 . S
N337 S336 1.613 . S
N337 C340 1.350 . S
N338 S336 1.610 . S
N338 C339 1.351 . S
C339 C333 1.428 . S
C339 N338 1.351 . S
C339 C340 1.434 . S
C340 C331 1.429 . S
C340 N337 1.350 . S
C340 C339 1.434 . S
C341 C342 1.369 . S
C341 C343 1.419 . S
C341 H345 0.930 . S
C342 C341 1.369 . S
C342 C351 1.429 . S
C343 C341 1.419 . S
C343 C344 1.363 . S
C343 H346 0.929 . S
C344 C343 1.363 . S
C344 C350 1.428 . S
H345 C341 0.930 . S
H346 C343 0.929 . S
S347 N348 1.613 . S
S347 N349 1.610 . S
N348 S347 1.613 . S
N348 C351 1.350 . S
N349 S347 1.610 . S
N349 C350 1.351 . S
C350 C344 1.428 . S
C350 N349 1.351 . S
C350 C351 1.434 . S
C351 C342 1.429 . S
C351 N348 1.350 . S
C351 C350 1.434 . S
C352 C353 1.369 . S
C352 C354 1.419 . S
C352 H356 0.930 . S
C353 C352 1.369 . S
C353 C362 1.429 . S
C354 C352 1.419 . S
C354 C355 1.363 . S
C354 H357 0.929 . S
C355 C354 1.363 . S
C355 C361 1.428 . S
H356 C352 0.930 . S
H357 C354 0.929 . S
S358 N359 1.613 . S
S358 N360 1.610 . S
N359 S358 1.613 . S
N359 C362 1.350 . S
N360 S358 1.610 . S
N360 C361 1.351 . S
C361 C355 1.428 . S
C361 N360 1.351 . S
C361 C362 1.434 . S
C362 C353 1.429 . S
C362 N359 1.350 . S
C362 C361 1.434 . S
C363 C364 1.369 . S
C363 C365 1.419 . S
C363 H367 0.930 . S
C364 C363 1.369 . S
C364 C373 1.429 . S
C365 C363 1.419 . S
C365 C366 1.363 . S
C365 H368 0.929 . S
C366 C365 1.363 . S
C366 C372 1.428 . S
H367 C363 0.930 . S
H368 C365 0.929 . S
S369 N370 1.613 . S
S369 N371 1.610 . S
N370 S369 1.613 . S
N370 C373 1.350 . S
N371 S369 1.610 . S
N371 C372 1.351 . S
C372 C366 1.428 . S
C372 N371 1.351 . S
C372 C373 1.434 . S
C373 C364 1.429 . S
C373 N370 1.350 . S
C373 C372 1.434 . S
C374 C375 1.369 1_655 S
C374 C376 1.419 . S
C374 H378 0.930 . S
C375 C374 1.369 1_455 S
C375 C384 1.429 1_545 S
C376 C374 1.419 . S
C376 C377 1.360 1_645 S
C376 H379 0.929 . S
C377 C376 1.360 1_465 S
C377 C383 1.431 . S
H378 C374 0.930 . S
H379 C376 0.929 . S
S380 N381 1.613 . S
S380 N382 1.610 . S
N381 S380 1.613 . S
N381 C384 1.350 . S
N382 S380 1.610 . S
N382 C383 1.351 . S
C383 C377 1.431 . S
C383 N382 1.351 . S
C383 C384 1.434 . S
C384 C375 1.429 1_565 S
C384 N381 1.350 . S
C384 C383 1.434 . S
C385 C386 1.369 . S
C385 C387 1.419 . S
C385 H389 0.930 . S
C386 C385 1.369 . S
C386 C395 1.429 1_445 S
C387 C385 1.419 . S
C387 C388 1.363 . S
C387 H390 0.929 . S
C388 C387 1.363 . S
C388 C394 1.428 1_445 S
H389 C385 0.930 . S
H390 C387 0.929 . S
S391 N392 1.613 . S
S391 N393 1.610 . S
N392 S391 1.613 . S
N392 C395 1.350 . S
N393 S391 1.610 . S
N393 C394 1.351 . S
C394 C388 1.428 1_665 S
C394 N393 1.351 . S
C394 C395 1.434 . S
C395 C386 1.429 1_665 S
C395 N392 1.350 . S
C395 C394 1.434 . S
C396 C397 1.369 . S
C396 C398 1.419 . S
C396 H400 0.930 . S
C397 C396 1.369 . S
C397 C406 1.429 . S
C398 C396 1.419 . S
C398 C399 1.363 . S
C398 H401 0.929 . S
C399 C398 1.363 . S
C399 C405 1.428 . S
H400 C396 0.930 . S
H401 C398 0.929 . S
S402 N403 1.613 . S
S402 N404 1.610 . S
N403 S402 1.613 . S
N403 C406 1.350 . S
N404 S402 1.610 . S
N404 C405 1.351 . S
C405 C399 1.428 . S
C405 N404 1.351 . S
C405 C406 1.434 . S
C406 C397 1.429 . S
C406 N403 1.350 . S
C406 C405 1.434 . S
C407 C408 1.369 . S
C407 C409 1.419 . S
C407 H411 0.930 . S
C408 C407 1.369 . S
C408 C417 1.429 . S
C409 C407 1.419 . S
C409 C410 1.363 . S
C409 H412 0.929 . S
C410 C409 1.363 . S
C410 C416 1.428 . S
H411 C407 0.930 . S
H412 C409 0.929 . S
S413 N414 1.613 . S
S413 N415 1.610 . S
N414 S413 1.613 . S
N414 C417 1.350 . S
N415 S413 1.610 . S
N415 C416 1.351 . S
C416 C410 1.428 . S
C416 N415 1.351 . S
C416 C417 1.434 . S
C417 C408 1.429 . S
C417 N414 1.350 . S
C417 C416 1.434 . S
C289 C257 1.501 . S
C287 C21 1.486 . S
C298 C19 1.478 . S
C300 C197 1.499 . S
C309 C18 1.462 . S
C311 C227 1.383 . S
C320 C20 1.481 . S
C322 C167 1.398 . S
C331 C44 1.488 . S
C333 C137 1.500 . S
C342 C42 1.476 . S
C344 C77 1.499 . S
C355 C107 1.392 . S
C353 C41 1.460 . S
C366 C47 1.406 . S
C364 C43 1.477 . S
C375 C16 1.495 . S
C377 C66 1.476 1_465 S
C386 C17 1.464 . S
C388 C126 1.439 . S
C399 C186 1.476 . S
C397 C39 1.496 . S
C408 C40 1.464 . S
C410 C246 1.443 . S
