# Generated by pormake.
# Topology nom, (4,4)-cn, num edge types: 1
# Building blocks:
#     Node 0, Type 0, BuildingBlock: NAWXER_clean_linker_0, # of connection points: 4
#     Node 1, Type 0, BuildingBlock: NAWXER_clean_linker_0, # of connection points: 4
#     Node 2, Type 0, BuildingBlock: NAWXER_clean_linker_0, # of connection points: 4
#     Node 3, Type 0, BuildingBlock: NAWXER_clean_linker_0, # of connection points: 4
#     Node 4, Type 0, BuildingBlock: NAWXER_clean_linker_0, # of connection points: 4
#     Node 5, Type 0, BuildingBlock: NAWXER_clean_linker_0, # of connection points: 4
#     Node 6, Type 1, BuildingBlock: GALJAG_clean_sbu_0, # of connection points: 4
#     Node 7, Type 1, BuildingBlock: GALJAG_clean_sbu_0, # of connection points: 4
#     Node 8, Type 1, BuildingBlock: GALJAG_clean_sbu_0, # of connection points: 4
#     Node 9, Type 1, BuildingBlock: GALJAG_clean_sbu_0, # of connection points: 4
#     Node 10, Type 1, BuildingBlock: GALJAG_clean_sbu_0, # of connection points: 4
#     Node 11, Type 1, BuildingBlock: GALJAG_clean_sbu_0, # of connection points: 4
#     Edge 12, Type (0, 1), BuildingBlock: OJICUG_clean_linker_0, # of connection points: 2
#     Edge 13, Type (0, 1), BuildingBlock: OJICUG_clean_linker_0, # of connection points: 2
#     Edge 14, Type (0, 1), BuildingBlock: OJICUG_clean_linker_0, # of connection points: 2
#     Edge 15, Type (0, 1), BuildingBlock: OJICUG_clean_linker_0, # of connection points: 2
#     Edge 16, Type (0, 1), BuildingBlock: OJICUG_clean_linker_0, # of connection points: 2
#     Edge 17, Type (0, 1), BuildingBlock: OJICUG_clean_linker_0, # of connection points: 2
#     Edge 18, Type (0, 1), BuildingBlock: OJICUG_clean_linker_0, # of connection points: 2
#     Edge 19, Type (0, 1), BuildingBlock: OJICUG_clean_linker_0, # of connection points: 2
#     Edge 20, Type (0, 1), BuildingBlock: OJICUG_clean_linker_0, # of connection points: 2
#     Edge 21, Type (0, 1), BuildingBlock: OJICUG_clean_linker_0, # of connection points: 2
#     Edge 22, Type (0, 1), BuildingBlock: OJICUG_clean_linker_0, # of connection points: 2
#     Edge 23, Type (0, 1), BuildingBlock: OJICUG_clean_linker_0, # of connection points: 2
#     Edge 24, Type (0, 1), BuildingBlock: OJICUG_clean_linker_0, # of connection points: 2
#     Edge 25, Type (0, 1), BuildingBlock: OJICUG_clean_linker_0, # of connection points: 2
#     Edge 26, Type (0, 1), BuildingBlock: OJICUG_clean_linker_0, # of connection points: 2
#     Edge 27, Type (0, 1), BuildingBlock: OJICUG_clean_linker_0, # of connection points: 2
#     Edge 28, Type (0, 1), BuildingBlock: OJICUG_clean_linker_0, # of connection points: 2
#     Edge 29, Type (0, 1), BuildingBlock: OJICUG_clean_linker_0, # of connection points: 2
#     Edge 30, Type (0, 1), BuildingBlock: OJICUG_clean_linker_0, # of connection points: 2
#     Edge 31, Type (0, 1), BuildingBlock: OJICUG_clean_linker_0, # of connection points: 2
#     Edge 32, Type (0, 1), BuildingBlock: OJICUG_clean_linker_0, # of connection points: 2
#     Edge 33, Type (0, 1), BuildingBlock: OJICUG_clean_linker_0, # of connection points: 2
#     Edge 34, Type (0, 1), BuildingBlock: OJICUG_clean_linker_0, # of connection points: 2
#     Edge 35, Type (0, 1), BuildingBlock: OJICUG_clean_linker_0, # of connection points: 2
# Relax obj value: 0.004
# Max RMSD: 0.115
# Mean RMSD: 0.086
data_MOF--net-nom--node1-GALJAG_clean_sbu_0--node2-NAWXER_clean_linker_0--edge1-OJICUG_clean_linker_0
_symmetry_space_group_name_H-M    P1
_symmetry_Int_Tables_number       1
_symmetry_cell_setting            triclinic
loop_
_symmetry_equiv_pos_as_xyz
'x, y, z'
_cell_length_a     40.527124
_cell_length_b     40.491164
_cell_length_c     46.082627
_cell_angle_alpha  90.012574
_cell_angle_beta   90.032981
_cell_angle_gamma 120.05172
loop_
_atom_site_label
_atom_site_type_symbol
_atom_site_fract_x
_atom_site_fract_y
_atom_site_fract_z
_atom_type_partial_charge
C0 C 0.87237 0.50422 0.33721 0.0
C1 C 0.85783 0.47932 0.36097 0.0
C2 C 0.91037 0.51959 0.32896 0.0
C3 C 0.93441 0.50949 0.34374 0.0
C4 C 0.88189 0.46971 0.37617 0.0
C5 C 0.91984 0.48461 0.36758 0.0
C6 C 0.97549 0.52776 0.33632 0.0
C7 C 0.919 0.46315 0.25485 0.0
C8 C 0.9204 0.48614 0.23141 0.0
C9 C 0.94076 0.4795 0.27982 0.0
C10 C 0.96474 0.51916 0.28184 0.0
C11 C 0.94438 0.52599 0.23371 0.0
C12 C 0.96668 0.54223 0.25848 0.0
C13 C 0.98934 0.53625 0.3076 0.0
C14 C 0.1603 0.61471 0.31925 0.0
C15 C 0.16976 0.64462 0.29941 0.0
C16 C 0.12255 0.59117 0.32816 0.0
C17 C 0.09362 0.59763 0.31793 0.0
C18 C 0.14057 0.65067 0.28905 0.0
C19 C 0.10302 0.62746 0.29821 0.0
C20 C 0.05305 0.57217 0.32554 0.0
C21 C 0.11329 0.61531 0.41254 0.0
C22 C 0.10886 0.58536 0.43068 0.0
C23 C 0.09115 0.60763 0.38739 0.0
C24 C 0.06432 0.56987 0.37994 0.0
C25 C 0.08174 0.54769 0.42318 0.0
C26 C 0.05959 0.54009 0.39821 0.0
C27 C 0.03946 0.56063 0.35415 0.0
H28 H 0.85459 0.51268 0.32552 0.0
H29 H 0.92109 0.54025 0.31152 0.0
H30 H 0.87128 0.45053 0.39457 0.0
H31 H 0.93787 0.47686 0.37969 0.0
H32 H 0.90168 0.43238 0.25379 0.0
H33 H 0.93947 0.46105 0.29734 0.0
H34 H 0.94579 0.54483 0.21649 0.0
H35 H 0.98512 0.5729 0.25957 0.0
H36 H 0.18203 0.60934 0.32789 0.0
H37 H 0.116 0.56758 0.3426 0.0
H38 H 0.1465 0.67281 0.27331 0.0
H39 H 0.08113 0.63267 0.28965 0.0
H40 H 0.13403 0.64463 0.41769 0.0
H41 H 0.09476 0.63114 0.37393 0.0
H42 H 0.07717 0.52405 0.43691 0.0
H43 H 0.03871 0.51078 0.39307 0.0
N44 N 0.00118 0.53941 0.35839 0.0
N45 N 0.02741 0.55895 0.30339 0.0
C46 C 0.39507 0.87288 0.5066 0.0
C47 C 0.40536 0.85875 0.53064 0.0
C48 C 0.41819 0.91055 0.49763 0.0
C49 C 0.45281 0.93459 0.51191 0.0
C50 C 0.4395 0.88279 0.54535 0.0
C51 C 0.46309 0.92036 0.536 0.0
C52 C 0.47611 0.97545 0.50381 0.0
C53 C 0.47832 0.91506 0.4227 0.0
C54 C 0.45884 0.91887 0.39881 0.0
C55 C 0.4848 0.93714 0.44765 0.0
C56 C 0.47189 0.96346 0.44927 0.0
C57 C 0.44575 0.94512 0.40066 0.0
C58 C 0.45254 0.96741 0.4255 0.0
C59 C 0.48067 0.98863 0.47487 0.0
C60 C 0.57485 0.15863 0.48042 0.0
C61 C 0.55098 0.16848 0.46496 0.0
C62 C 0.56113 0.12119 0.49002 0.0
C63 C 0.52339 0.09295 0.4842 0.0
C64 C 0.51299 0.14003 0.45969 0.0
C65 C 0.49952 0.10264 0.46894 0.0
C66 C 0.50891 0.05269 0.49201 0.0
C67 C 0.52622 0.1152 0.57744 0.0
C68 C 0.55107 0.11103 0.59648 0.0
C69 C 0.51254 0.09269 0.55243 0.0
C70 C 0.52358 0.06571 0.54598 0.0
C71 C 0.56207 0.08403 0.58987 0.0
C72 C 0.54825 0.06145 0.56499 0.0
C73 C 0.50786 0.03991 0.52068 0.0
H74 H 0.36846 0.85511 0.4953 0.0
H75 H 0.40824 0.92104 0.48005 0.0
H76 H 0.44794 0.87248 0.56401 0.0
H77 H 0.48922 0.93843 0.54776 0.0
H78 H 0.4894 0.89567 0.4219 0.0
H79 H 0.50066 0.93425 0.46544 0.0
H80 H 0.43004 0.94838 0.38295 0.0
H81 H 0.44245 0.98763 0.42622 0.0
H82 H 0.6044 0.17958 0.48452 0.0
H83 H 0.5802 0.11409 0.50132 0.0
H84 H 0.49349 0.14658 0.44846 0.0
H85 H 0.47029 0.08117 0.46422 0.0
H86 H 0.51736 0.13588 0.58188 0.0
H87 H 0.49279 0.09587 0.53849 0.0
H88 H 0.58071 0.07973 0.60429 0.0
H89 H 0.55676 0.04048 0.56062 0.0
N90 N 0.49089 0.00172 0.52549 0.0
N91 N 0.49587 0.02662 0.47019 0.0
C92 C 0.56668 0.46688 0.58165 0.0
C93 C 0.54251 0.44989 0.55764 0.0
C94 C 0.55306 0.47507 0.60692 0.0
C95 C 0.51476 0.4658 0.60898 0.0
C96 C 0.50431 0.4411 0.55966 0.0
C97 C 0.49065 0.44904 0.585 0.0
C98 C 0.50037 0.47613 0.63506 0.0
C99 C 0.53109 0.39095 0.66796 0.0
C100 C 0.55675 0.40247 0.69131 0.0
C101 C 0.51632 0.41377 0.6587 0.0
C102 C 0.52789 0.44921 0.67198 0.0
C103 C 0.56792 0.43752 0.70494 0.0
C104 C 0.55371 0.46073 0.6953 0.0
C105 C 0.5102 0.47234 0.66387 0.0
C106 C 0.42403 0.52356 0.73948 0.0
C107 C 0.45381 0.55057 0.75699 0.0
C108 C 0.43202 0.50917 0.71451 0.0
C109 C 0.46992 0.52149 0.7067 0.0
C110 C 0.49168 0.5629 0.749 0.0
C111 C 0.49962 0.54821 0.72425 0.0
C112 C 0.47909 0.50533 0.68126 0.0
C113 C 0.42684 0.57283 0.64505 0.0
C114 C 0.39302 0.54989 0.6294 0.0
C115 C 0.45069 0.55866 0.6531 0.0
C116 C 0.44111 0.52129 0.64569 0.0
C117 C 0.38365 0.51246 0.62209 0.0
C118 C 0.40761 0.49846 0.62996 0.0
C119 C 0.46643 0.50603 0.65287 0.0
H120 H 0.59617 0.47379 0.581 0.0
H121 H 0.57269 0.48916 0.62468 0.0
H122 H 0.48504 0.42867 0.54145 0.0
H123 H 0.46116 0.44216 0.58582 0.0
H124 H 0.52153 0.36369 0.65746 0.0
H125 H 0.49505 0.40308 0.64167 0.0
H126 H 0.58771 0.44698 0.723 0.0
H127 H 0.56265 0.48759 0.70626 0.0
H128 H 0.39457 0.51365 0.74507 0.0
H129 H 0.40864 0.48803 0.70156 0.0
H130 H 0.51516 0.58332 0.76226 0.0
H131 H 0.52905 0.55778 0.71874 0.0
H132 H 0.4353 0.60201 0.6506 0.0
H133 H 0.4769 0.57709 0.66465 0.0
H134 H 0.35759 0.49377 0.6105 0.0
H135 H 0.39979 0.46957 0.62395 0.0
N136 N 0.47802 0.49193 0.63086 0.0
N137 N 0.5 0.48804 0.6857 0.0
C138 C 0.87225 0.39147 0.82261 0.0
C139 C 0.85743 0.40248 0.79943 0.0
C140 C 0.90996 0.41475 0.83149 0.0
C141 C 0.93326 0.45016 0.81799 0.0
C142 C 0.88079 0.43744 0.78551 0.0
C143 C 0.91833 0.46111 0.79477 0.0
C144 C 0.9741 0.47396 0.82592 0.0
C145 C 0.91177 0.46788 0.90799 0.0
C146 C 0.91944 0.45149 0.93212 0.0
C147 C 0.93369 0.47637 0.88277 0.0
C148 C 0.96331 0.46794 0.88084 0.0
C149 C 0.94948 0.4436 0.93026 0.0
C150 C 0.97117 0.4518 0.90494 0.0
C151 C 0.98795 0.47836 0.8547 0.0
C152 C 0.15847 0.57534 0.84358 0.0
C153 C 0.1692 0.55277 0.85985 0.0
C154 C 0.12037 0.5612 0.83569 0.0
C155 C 0.0924 0.52418 0.8438 0.0
C156 C 0.14098 0.51574 0.8679 0.0
C157 C 0.10299 0.50175 0.86012 0.0
C158 C 0.05174 0.50878 0.83669 0.0
C159 C 0.11133 0.52603 0.74995 0.0
C160 C 0.10757 0.55206 0.73197 0.0
C161 C 0.08927 0.51186 0.77508 0.0
C162 C 0.06313 0.52354 0.78269 0.0
C163 C 0.08143 0.56371 0.73973 0.0
C164 C 0.05921 0.54933 0.76471 0.0
C165 C 0.0381 0.50753 0.80829 0.0
H166 H 0.85496 0.36429 0.83332 0.0
H167 H 0.92105 0.4045 0.84845 0.0
H168 H 0.86993 0.4465 0.76756 0.0
H169 H 0.93582 0.48792 0.78364 0.0
H170 H 0.88871 0.47408 0.90849 0.0
H171 H 0.92772 0.48999 0.86492 0.0
H172 H 0.95673 0.43168 0.94856 0.0
H173 H 0.99423 0.44557 0.90423 0.0
H174 H 0.17938 0.6042 0.83743 0.0
H175 H 0.1127 0.57937 0.82369 0.0
H176 H 0.14825 0.49735 0.88 0.0
H177 H 0.08182 0.47313 0.86667 0.0
H178 H 0.13137 0.51666 0.74459 0.0
H179 H 0.09223 0.49139 0.78832 0.0
H180 H 0.07754 0.58332 0.72614 0.0
H181 H 0.03889 0.55836 0.77003 0.0
N182 N -0.00019 0.48968 0.80399 0.0
N183 N 0.02618 0.49468 0.85879 0.0
C184 C 0.50243 0.8778 0.9783 0.0
C185 C 0.47115 0.86038 0.95934 0.0
C186 C 0.51533 0.91476 0.98845 0.0
C187 C 0.49732 0.93505 0.97967 0.0
C188 C 0.45282 0.8805 0.95083 0.0
C189 C 0.46615 0.91778 0.96062 0.0
C190 C 0.51318 0.9753 0.98842 0.0
C191 C 0.45856 0.90837 0.06916 0.0
C192 C 0.48207 0.91679 0.09374 0.0
C193 C 0.4719 0.93086 0.04419 0.0
C194 C 0.50943 0.96181 0.04287 0.0
C195 C 0.51956 0.94789 0.09241 0.0
C196 C 0.53303 0.97007 0.0673 0.0
C197 C 0.52306 0.98783 0.0174 0.0
C198 C 0.59564 0.15837 0.01252 0.0
C199 C 0.62971 0.16855 0.02759 0.0
C200 C 0.5718 0.12078 0.00325 0.0
C201 C 0.58156 0.09272 0.00896 0.0
C202 C 0.6394 0.14024 0.03292 0.0
C203 C 0.61539 0.10272 0.02395 0.0
C204 C 0.5561 0.05241 1.00094 0.0
C205 C 0.59937 0.11545 0.91559 0.0
C206 C 0.57007 0.11155 0.89698 0.0
C207 C 0.59088 0.09287 0.9405 0.0
C208 C 0.55292 0.0661 0.94733 0.0
C209 C 0.5321 0.08488 0.90402 0.0
C210 C 0.52367 0.0622 0.92882 0.0
C211 C 0.54342 0.03998 0.97234 0.0
H212 H 0.51691 0.86279 0.98527 0.0
H213 H 0.53996 0.92783 0.00263 0.0
H214 H 0.42878 0.8677 0.93607 0.0
H215 H 0.4522 0.93316 0.95331 0.0
H216 H 0.42967 0.88449 0.0692 0.0
H217 H 0.45238 0.92452 0.02625 0.0
H218 H 0.53833 0.9558 0.11102 0.0
H219 H 0.56188 0.99409 0.06713 0.0
H220 H 0.58694 0.17923 0.00842 0.0
H221 H 0.54542 0.11347 0.99218 0.0
H222 H 0.66569 0.14704 0.04388 0.0
H223 H 0.62341 0.08142 0.02858 0.0
H224 H 0.62889 0.13588 0.91084 0.0
H225 H 0.61404 0.09577 0.95403 0.0
H226 H 0.50894 0.08083 0.88994 0.0
H227 H 0.49422 0.04137 0.93348 0.0
N228 N 0.52288 0.00182 0.96714 0.0
N229 N 0.54492 0.02591 0.02237 0.0
C230 C 0.50155 0.64347 0.16847 0.0
C231 C 0.47708 0.63362 0.19245 0.0
C232 C 0.51498 0.61945 0.15936 0.0
C233 C 0.50313 0.58444 0.17343 0.0
C234 C 0.46584 0.59912 0.20696 0.0
C235 C 0.47865 0.5747 0.19747 0.0
C236 C 0.51898 0.55975 0.16515 0.0
C237 C 0.45957 0.56497 0.08426 0.0
C238 C 0.4827 0.58013 0.05951 0.0
C239 C 0.47366 0.55674 0.10928 0.0
C240 C 0.51145 0.56415 0.11034 0.0
C241 C 0.52032 0.58697 0.06053 0.0
C242 C 0.53446 0.57902 0.08561 0.0
C243 C 0.52635 0.55385 0.13617 0.0
C244 C 0.59605 0.45355 0.14379 0.0
C245 C 0.62998 0.47635 0.12824 0.0
C246 C 0.5727 0.4682 0.15218 0.0
C247 C 0.58307 0.50593 0.14532 0.0
C248 C 0.63989 0.51399 0.12125 0.0
C249 C 0.61653 0.52848 0.12952 0.0
C250 C 0.55902 0.52229 0.15339 0.0
C251 C 0.60064 0.4968 0.23715 0.0
C252 C 0.57217 0.47821 0.2582 0.0
C253 C 0.59362 0.51257 0.21249 0.0
C254 C 0.55746 0.50862 0.20794 0.0
C255 C 0.53654 0.47534 0.25419 0.0
C256 C 0.52921 0.4902 0.22925 0.0
C257 C 0.54874 0.52512 0.18223 0.0
H258 H 0.51111 0.67028 0.15727 0.0
H259 H 0.5353 0.62878 0.14172 0.0
H260 H 0.44694 0.59096 0.22551 0.0
H261 H 0.46957 0.54823 0.20904 0.0
H262 H 0.43056 0.55955 0.08438 0.0
H263 H 0.4548 0.54411 0.12766 0.0
H264 H 0.53875 0.59788 0.04175 0.0
H265 H 0.56349 0.58442 0.08563 0.0
H266 H 0.58729 0.42425 0.14914 0.0
H267 H 0.54655 0.4501 0.16388 0.0
H268 H 0.66604 0.53255 0.10974 0.0
H269 H 0.62491 0.55764 0.12392 0.0
H270 H 0.62857 0.49989 0.24014 0.0
H271 H 0.61667 0.52827 0.19735 0.0
H272 H 0.51426 0.46125 0.27026 0.0
H273 H 0.50127 0.48719 0.22658 0.0
N274 N 0.52959 0.54424 0.18686 0.0
N275 N 0.54697 0.53629 0.13159 0.0
In276 In 0.62723 0.3948 0.40808 0.0
O277 O 0.69124 0.43008 0.41821 0.0
O278 O 0.67414 0.40128 0.37774 0.0
C279 C 0.59973 0.41557 0.45345 0.0
C280 C 0.60368 0.41814 0.3615 0.0
C281 C 0.60461 0.32241 0.4241 0.0
O282 O 0.63424 0.43462 0.44566 0.0
O283 O 0.57911 0.38674 0.43792 0.0
O284 O 0.58857 0.33009 0.4038 0.0
O285 O 0.63207 0.35108 0.43591 0.0
C286 C 0.70126 0.42245 0.39435 0.0
O287 O 0.60128 0.38586 0.36266 0.0
O288 O 0.61691 0.43817 0.38407 0.0
In289 In 0.24586 0.6333 0.58153 0.0
O290 O 0.27212 0.59556 0.57349 0.0
O291 O 0.29019 0.63152 0.61065 0.0
C292 C 0.19846 0.61476 0.53549 0.0
C293 C 0.19743 0.60777 0.62707 0.0
C294 C 0.29877 0.70522 0.56716 0.0
O295 O 0.21619 0.59735 0.54143 0.0
O296 O 0.20378 0.64072 0.55325 0.0
O297 O 0.27978 0.69759 0.5904 0.0
O298 O 0.29104 0.67672 0.55149 0.0
C299 C 0.29306 0.60694 0.59579 0.0
O300 O 0.21734 0.64282 0.62102 0.0
O301 O 0.2012 0.5858 0.60971 0.0
In302 In 0.63046 0.25057 0.74661 0.0
O303 O 0.69486 0.28211 0.73837 0.0
O304 O 0.6748 0.29338 0.77764 0.0
C305 C 0.6049 0.20178 0.70128 0.0
C306 C 0.60687 0.20204 0.79211 0.0
C307 C 0.60841 0.30071 0.73066 0.0
O308 O 0.63971 0.22024 0.7083 0.0
O309 O 0.58303 0.2071 0.71763 0.0
O310 O 0.59823 0.28286 0.75444 0.0
O311 O 0.62966 0.29339 0.71529 0.0
C312 C 0.70306 0.30023 0.76205 0.0
O313 O 0.59108 0.22108 0.78525 0.0
O314 O 0.63367 0.20674 0.77555 0.0
In315 In 0.39928 0.63371 0.90776 0.0
O316 O 0.33535 0.59869 0.91649 0.0
O317 O 0.35376 0.63053 0.8772 0.0
C318 C 0.42523 0.61382 0.95501 0.0
C319 C 0.42071 0.60787 0.86146 0.0
C320 C 0.4213 0.70684 0.92087 0.0
O321 O 0.39058 0.59608 0.94759 0.0
O322 O 0.44658 0.64086 0.93838 0.0
O323 O 0.44115 0.69789 0.90517 0.0
O324 O 0.3904 0.67904 0.92967 0.0
C325 C 0.32611 0.60821 0.89305 0.0
O326 O 0.43268 0.64289 0.86564 0.0
O327 O 0.39878 0.58611 0.88095 0.0
In328 In 0.78022 0.39597 0.08214 0.0
O329 O 0.79965 0.38802 0.12695 0.0
O330 O 0.8328 0.44147 0.10601 0.0
C331 C 0.73111 0.32337 0.06629 0.0
C332 C 0.73225 0.42167 0.09596 0.0
C333 C 0.82773 0.41643 0.03629 0.0
O334 O 0.75456 0.33144 0.08687 0.0
O335 O 0.7324 0.35179 0.05398 0.0
O336 O 0.81101 0.43447 0.04351 0.0
O337 O 0.82104 0.38865 0.05255 0.0
C338 C 0.82803 0.42136 0.1282 0.0
O339 O 0.75254 0.43238 0.07335 0.0
O340 O 0.73635 0.39834 0.11143 0.0
In341 In 0.40013 0.78306 0.24676 0.0
O342 O 0.43668 0.75527 0.25361 0.0
O343 O 0.40132 0.74006 0.21601 0.0
C344 C 0.42661 0.82813 0.29442 0.0
C345 C 0.4255 0.82771 0.19924 0.0
C346 C 0.32522 0.73859 0.25963 0.0
O347 O 0.42189 0.7949 0.29378 0.0
O348 O 0.41901 0.83881 0.27095 0.0
O349 O 0.33901 0.77243 0.25073 0.0
O350 O 0.34887 0.7272 0.26134 0.0
C351 C 0.42527 0.73571 0.23056 0.0
O352 O 0.39041 0.80806 0.2053 0.0
O353 O 0.44755 0.8253 0.2174 0.0
C354 C 0.22455 0.70801 0.28343 0.0
C355 C 0.20963 0.66885 0.28894 0.0
H356 H 0.27264 0.76069 0.26952 0.0
C357 C 0.23297 0.65288 0.28395 0.0
H358 H 0.20766 0.72146 0.28741 0.0
C359 C 0.27034 0.67554 0.27413 0.0
C360 C 0.28514 0.71458 0.26871 0.0
H361 H 0.22231 0.62274 0.28734 0.0
H362 H 0.28765 0.6624 0.27071 0.0
C363 C 0.26183 0.73058 0.27326 0.0
C364 C 0.55291 0.21456 0.42734 0.0
C365 C 0.56551 0.20807 0.45411 0.0
H366 H 0.55521 0.25572 0.39695 0.0
C367 C 0.59174 0.23972 0.47051 0.0
H368 H 0.53337 0.19096 0.41378 0.0
C369 C 0.60482 0.27681 0.4605 0.0
C370 C 0.59165 0.28313 0.43404 0.0
H371 H 0.60166 0.23595 0.4914 0.0
H372 H 0.62476 0.30057 0.47378 0.0
C373 C 0.56562 0.25167 0.41753 0.0
C374 C 0.34914 0.55525 0.59348 0.0
C375 C 0.36765 0.56487 0.6206 0.0
H376 H 0.31097 0.56089 0.5644 0.0
C377 C 0.36147 0.58867 0.63932 0.0
H378 H 0.35372 0.53752 0.5783 0.0
C379 C 0.33741 0.60247 0.63114 0.0
C380 C 0.31875 0.59256 0.60416 0.0
H381 H 0.37475 0.59619 0.66053 0.0
H382 H 0.33312 0.6206 0.64612 0.0
C383 C 0.32482 0.56881 0.5854 0.0
C384 C 0.80998 0.36644 0.76024 0.0
C385 C 0.81784 0.37709 0.78956 0.0
H386 H 0.76732 0.33311 0.72855 0.0
C387 C 0.78775 0.36266 0.8096 0.0
H388 H 0.83282 0.37704 0.74445 0.0
C389 C 0.7504 0.33806 0.80049 0.0
C390 C 0.74254 0.32688 0.77127 0.0
H391 H 0.79314 0.37061 0.83229 0.0
H392 H 0.72773 0.32737 0.81643 0.0
C393 C 0.77264 0.34122 0.75121 0.0
C394 C 0.41954 0.79305 0.95052 0.0
C395 C 0.45804 0.82143 0.94831 0.0
H396 H 0.3778 0.73428 0.94378 0.0
C397 C 0.48416 0.81223 0.93606 0.0
H398 H 0.39892 0.79946 0.96001 0.0
C399 C 0.47204 0.77516 0.9264 0.0
C400 C 0.43372 0.74653 0.92931 0.0
H401 H 0.51396 0.83375 0.93394 0.0
H402 H 0.49282 0.76874 0.91726 0.0
C403 C 0.40754 0.75583 0.94134 0.0
C404 C 0.67396 0.47099 0.0925 0.0
C405 C 0.65532 0.46132 0.11955 0.0
H406 H 0.71299 0.46618 0.06387 0.0
C407 C 0.66189 0.43803 0.13851 0.0
H408 H 0.66908 0.48836 0.07716 0.0
C409 C 0.68673 0.42502 0.13073 0.0
C410 C 0.70569 0.43515 0.10388 0.0
H411 H 0.64846 0.43047 0.15965 0.0
H412 H 0.69141 0.40735 0.14592 0.0
C413 C 0.69898 0.45816 0.0848 0.0
C414 C 0.36734 0.8118 0.56955 0.0
C415 C 0.37976 0.81924 0.54059 0.0
H416 H 0.33132 0.76969 0.60066 0.0
C417 C 0.36619 0.78891 0.52076 0.0
H418 H 0.37724 0.83485 0.58516 0.0
C419 C 0.3404 0.75179 0.52963 0.0
C420 C 0.32718 0.74438 0.5584 0.0
H421 H 0.3755 0.79398 0.49835 0.0
H422 H 0.33025 0.72898 0.51379 0.0
C423 C 0.34097 0.77467 0.57833 0.0
C424 C 0.56796 0.36714 0.73114 0.0
C425 C 0.57107 0.37742 0.70173 0.0
H426 H 0.57688 0.33417 0.76337 0.0
C427 C 0.58698 0.36279 0.68209 0.0
H428 H 0.55552 0.3779 0.74663 0.0
C429 C 0.59961 0.33831 0.69168 0.0
C430 C 0.59591 0.32744 0.72099 0.0
H431 H 0.58979 0.37045 0.65934 0.0
H432 H 0.61175 0.32743 0.67603 0.0
C433 C 0.57997 0.34204 0.74066 0.0
C434 C 0.23947 0.58986 0.84928 0.0
C435 C 0.20956 0.56764 0.86855 0.0
H436 H 0.29972 0.62002 0.84192 0.0
C437 C 0.21848 0.55927 0.89612 0.0
H438 H 0.23363 0.59642 0.82776 0.0
C439 C 0.25632 0.57242 0.90409 0.0
C440 C 0.2861 0.59443 0.88475 0.0
H441 H 0.19621 0.54278 0.91169 0.0
H442 H 0.26224 0.56544 0.92544 0.0
C443 C 0.27734 0.60317 0.85732 0.0
C444 C 0.67466 0.21546 0.06446 0.0
C445 C 0.65508 0.20836 0.03786 0.0
H446 H 0.71416 0.2573 0.09421 0.0
C447 C 0.66039 0.23963 0.02104 0.0
H448 H 0.67073 0.19217 0.07831 0.0
C449 C 0.68475 0.27695 0.03048 0.0
C450 C 0.70468 0.28387 0.0568 0.0
H451 H 0.6463 0.23536 1.00027 0.0
H452 H 0.68844 0.3004 0.01691 0.0
C453 C 0.69938 0.25279 0.07372 0.0
C454 C 0.44651 0.67286 0.18275 0.0
C455 C 0.46367 0.65959 0.20242 0.0
H456 H 0.42047 0.70705 0.17643 0.0
C457 C 0.46832 0.67157 0.23149 0.0
H458 H 0.44252 0.66387 0.16026 0.0
C459 C 0.45631 0.69679 0.24068 0.0
C460 C 0.43877 0.70974 0.22104 0.0
H461 H 0.48173 0.66185 0.24698 0.0
H462 H 0.46035 0.7058 0.26316 0.0
C463 C 0.43383 0.69742 0.19204 0.0
C464 C 0.78845 0.44764 0.3492 0.0
C465 C 0.81772 0.46395 0.36992 0.0
H466 H 0.72867 0.42149 0.34081 0.0
C467 C 0.8085 0.46641 0.39894 0.0
H468 H 0.79483 0.44525 0.32672 0.0
C469 C 0.77063 0.45325 0.40698 0.0
C470 C 0.74138 0.43689 0.3862 0.0
H471 H 0.83066 0.47916 0.41526 0.0
H472 H 0.76423 0.4557 0.42943 0.0
C473 C 0.75064 0.434 0.35729 0.0
C474 C 0.13811 0.62309 0.47621 0.0
C475 C 0.13202 0.59312 0.45751 0.0
H476 H 0.16344 0.65311 0.51571 0.0
C477 C 0.14761 0.57004 0.46491 0.0
H478 H 0.12611 0.64109 0.4713 0.0
C479 C 0.16887 0.57684 0.49037 0.0
C480 C 0.17486 0.60674 0.50907 0.0
H481 H 0.14376 0.54696 0.45082 0.0
H482 H 0.18076 0.55876 0.49532 0.0
C483 C 0.15921 0.62976 0.50177 0.0
C484 C 0.53977 0.13975 0.641 0.0
C485 C 0.5649 0.13411 0.62348 0.0
H486 H 0.5326 0.1651 0.67949 0.0
C487 C 0.6032 0.15024 0.63214 0.0
H488 H 0.50999 0.12726 0.63513 0.0
C489 C 0.61614 0.17183 0.65761 0.0
C490 C 0.591 0.17755 0.67503 0.0
H491 H 0.62333 0.14666 0.61898 0.0
H492 H 0.64589 0.18428 0.66353 0.0
C493 C 0.55265 0.16114 0.66654 0.0
C494 C 0.46547 0.60458 0.79014 0.0
C495 C 0.44548 0.56533 0.78382 0.0
H496 H 0.47317 0.64886 0.81961 0.0
C497 C 0.41781 0.54019 0.80349 0.0
H498 H 0.4868 0.62463 0.77527 0.0
C499 C 0.41029 0.554 0.82897 0.0
C500 C 0.42998 0.59327 0.83513 0.0
H501 H 0.40228 0.50977 0.79934 0.0
H502 H 0.38873 0.53391 0.84367 0.0
C503 C 0.45763 0.61844 0.81547 0.0
C504 C 0.88682 0.40983 0.97538 0.0
C505 C 0.89642 0.44289 0.95917 0.0
H506 H 0.85786 0.37574 0.01246 0.0
C507 C 0.88375 0.46757 0.96901 0.0
H508 H 0.89554 0.38985 0.96829 0.0
C509 C 0.86169 0.45917 0.99417 0.0
C510 C 0.85207 0.42608 0.01021 0.0
H511 H 0.89112 0.49363 0.95741 0.0
H512 H 0.85221 0.47863 1.00107 0.0
C513 C 0.86505 0.40162 1.00065 0.0
C514 C 0.49141 0.88633 0.13828 0.0
C515 C 0.46738 0.89379 0.12083 0.0
H516 H 0.4971 0.85995 0.17673 0.0
C517 C 0.42932 0.87938 0.12965 0.0
H518 H 0.52066 0.89631 0.13201 0.0
C519 C 0.41564 0.8579 0.1551 0.0
C520 C 0.43982 0.85077 0.1725 0.0
H521 H 0.41011 0.88508 0.11713 0.0
H522 H 0.38621 0.84717 0.16128 0.0
C523 C 0.47786 0.86529 0.16388 0.0
C524 C 0.58809 0.43281 0.28263 0.0
C525 C 0.57971 0.46242 0.28464 0.0
H526 H 0.60131 0.39484 0.30564 0.0
C527 C 0.57826 0.47673 0.31206 0.0
H528 H 0.58917 0.4213 0.26166 0.0
C529 C 0.58588 0.46219 0.33711 0.0
C530 C 0.59408 0.43242 0.33518 0.0
H531 H 0.57184 0.4996 0.31403 0.0
H532 H 0.58523 0.47416 0.35799 0.0
C533 C 0.59475 0.41759 0.30774 0.0
C534 C 0.45437 0.91199 0.34449 0.0
C535 C 0.45246 0.89593 0.37195 0.0
H536 H 0.44785 0.90322 0.29857 0.0
C537 C 0.44393 0.85771 0.37346 0.0
H538 H 0.46172 0.94153 0.34238 0.0
C539 C 0.43672 0.83595 0.34819 0.0
C540 C 0.43754 0.85183 0.32093 0.0
H541 H 0.44181 0.84423 0.3942 0.0
H542 H 0.42943 0.80639 0.35009 0.0
C543 C 0.44678 0.89014 0.31932 0.0
C544 C 0.59408 0.46693 0.52038 0.0
C545 C 0.55707 0.44155 0.53056 0.0
H546 H 0.63654 0.47871 0.488 0.0
C547 C 0.53408 0.40803 0.51467 0.0
H548 H 0.61237 0.49332 0.53176 0.0
C549 C 0.54776 0.4 0.48937 0.0
C550 C 0.58485 0.42515 0.47946 0.0
H551 H 0.50567 0.38754 0.52203 0.0
H552 H 0.52943 0.37373 0.47784 0.0
C553 C 0.60785 0.45874 0.49517 0.0
C554 C 0.14773 0.60525 0.6974 0.0
C555 C 0.13023 0.56641 0.70488 0.0
H556 H 0.18279 0.64886 0.66694 0.0
C557 C 0.13422 0.54125 0.68615 0.0
H558 H 0.14537 0.62537 0.71151 0.0
C559 C 0.15543 0.55464 0.66061 0.0
C560 C 0.17333 0.59353 0.65332 0.0
H561 H 0.12065 0.5111 0.69111 0.0
H562 H 0.15812 0.53453 0.64672 0.0
C563 C 0.16919 0.61871 0.67193 0.0
C564 C 0.60937 0.13943 0.85207 0.0
C565 C 0.5791 0.13444 0.86991 0.0
H566 H 0.64152 0.16424 0.81337 0.0
C567 C 0.55734 0.15112 0.86153 0.0
H568 H 0.62631 0.12648 0.85769 0.0
C569 C 0.566 0.17271 0.83606 0.0
C570 C 0.59642 0.17783 0.81836 0.0
H571 H 0.534 0.14801 0.87493 0.0
H572 H 0.54906 0.18563 0.83037 0.0
C573 C 0.61787 0.16079 0.82655 0.0
C574 C 0.42985 0.56439 0.02354 0.0
C575 C 0.46771 0.58858 0.03267 0.0
H576 H 0.38673 0.55331 0.99184 0.0
C577 C 0.4913 0.62091 0.01581 0.0
H578 H 0.41101 0.53893 0.03571 0.0
C579 C 0.47753 0.62876 0.99049 0.0
C580 C 0.43973 0.60467 0.98148 0.0
H581 H 0.52037 0.64055 0.02237 0.0
H582 H 0.49646 0.65401 0.97813 0.0
C583 C 0.41599 0.57243 0.99828 0.0
C584 C 0.9107 0.48517 0.17722 0.0
C585 C 0.89713 0.46868 0.2047 0.0
H586 H 0.89947 0.48324 0.13161 0.0
C587 C 0.861 0.43548 0.20639 0.0
H588 H 0.93866 0.51014 0.17477 0.0
C589 C 0.83908 0.41943 0.18141 0.0
C590 C 0.85239 0.43659 0.15423 0.0
H591 H 0.84911 0.42223 0.22709 0.0
H592 H 0.8112 0.39421 0.18353 0.0
C593 C 0.88842 0.46954 0.15235 0.0
loop_
_geom_bond_atom_site_label_1
_geom_bond_atom_site_label_2
_geom_bond_distance
_geom_bond_site_symmetry_2
_ccdc_geom_bond_type
C0 C1 1.384 . S
C0 C2 1.384 . S
C0 H28 0.931 . S
C1 C0 1.384 . S
C1 C4 1.382 . S
C2 C0 1.384 . S
C2 C3 1.381 . S
C2 H29 0.930 . S
C3 C2 1.381 . S
C3 C5 1.381 . S
C3 C6 1.487 . S
C4 C1 1.382 . S
C4 C5 1.387 . S
C4 H30 0.930 . S
C5 C3 1.381 . S
C5 C4 1.387 . S
C5 H31 0.931 . S
C6 C3 1.487 . S
C6 C13 1.399 . S
C6 N44 1.343 1_655 S
C7 C8 1.384 . S
C7 C9 1.384 . S
C7 H32 0.931 . S
C8 C7 1.384 . S
C8 C11 1.382 . S
C9 C7 1.384 . S
C9 C10 1.381 . S
C9 H33 0.930 . S
C10 C9 1.381 . S
C10 C12 1.381 . S
C10 C13 1.487 . S
C11 C8 1.382 . S
C11 C12 1.387 . S
C11 H34 0.930 . S
C12 C10 1.381 . S
C12 C11 1.387 . S
C12 H35 0.931 . S
C13 C6 1.399 . S
C13 C10 1.487 . S
C13 N45 1.343 1_655 S
C14 C15 1.384 . S
C14 C16 1.384 . S
C14 H36 0.931 . S
C15 C14 1.384 . S
C15 C18 1.382 . S
C16 C14 1.384 . S
C16 C17 1.381 . S
C16 H37 0.930 . S
C17 C16 1.381 . S
C17 C19 1.381 . S
C17 C20 1.487 . S
C18 C15 1.382 . S
C18 C19 1.387 . S
C18 H38 0.930 . S
C19 C17 1.381 . S
C19 C18 1.387 . S
C19 H39 0.931 . S
C20 C17 1.487 . S
C20 C27 1.399 . S
C20 N45 1.343 . S
C21 C22 1.384 . S
C21 C23 1.384 . S
C21 H40 0.931 . S
C22 C21 1.384 . S
C22 C25 1.382 . S
C23 C21 1.384 . S
C23 C24 1.381 . S
C23 H41 0.930 . S
C24 C23 1.381 . S
C24 C26 1.381 . S
C24 C27 1.487 . S
C25 C22 1.382 . S
C25 C26 1.387 . S
C25 H42 0.930 . S
C26 C24 1.381 . S
C26 C25 1.387 . S
C26 H43 0.931 . S
C27 C20 1.399 . S
C27 C24 1.487 . S
C27 N44 1.343 . S
H28 C0 0.931 . S
H29 C2 0.930 . S
H30 C4 0.930 . S
H31 C5 0.931 . S
H32 C7 0.931 . S
H33 C9 0.930 . S
H34 C11 0.930 . S
H35 C12 0.931 . S
H36 C14 0.931 . S
H37 C16 0.930 . S
H38 C18 0.930 . S
H39 C19 0.931 . S
H40 C21 0.931 . S
H41 C23 0.930 . S
H42 C25 0.930 . S
H43 C26 0.931 . S
N44 C6 1.343 1_455 S
N44 C27 1.343 . S
N45 C13 1.343 1_455 S
N45 C20 1.343 . S
C46 C47 1.384 . S
C46 C48 1.384 . S
C46 H74 0.931 . S
C47 C46 1.384 . S
C47 C50 1.382 . S
C48 C46 1.384 . S
C48 C49 1.381 . S
C48 H75 0.930 . S
C49 C48 1.381 . S
C49 C51 1.381 . S
C49 C52 1.487 . S
C50 C47 1.382 . S
C50 C51 1.387 . S
C50 H76 0.930 . S
C51 C49 1.381 . S
C51 C50 1.387 . S
C51 H77 0.931 . S
C52 C49 1.487 . S
C52 C59 1.399 . S
C52 N90 1.343 1_565 S
C53 C54 1.384 . S
C53 C55 1.384 . S
C53 H78 0.931 . S
C54 C53 1.384 . S
C54 C57 1.382 . S
C55 C53 1.384 . S
C55 C56 1.381 . S
C55 H79 0.930 . S
C56 C55 1.381 . S
C56 C58 1.381 . S
C56 C59 1.487 . S
C57 C54 1.382 . S
C57 C58 1.387 . S
C57 H80 0.930 . S
C58 C56 1.381 . S
C58 C57 1.387 . S
C58 H81 0.931 . S
C59 C52 1.399 . S
C59 C56 1.487 . S
C59 N91 1.343 1_565 S
C60 C61 1.384 . S
C60 C62 1.384 . S
C60 H82 0.931 . S
C61 C60 1.384 . S
C61 C64 1.382 . S
C62 C60 1.384 . S
C62 C63 1.381 . S
C62 H83 0.930 . S
C63 C62 1.381 . S
C63 C65 1.381 . S
C63 C66 1.487 . S
C64 C61 1.382 . S
C64 C65 1.387 . S
C64 H84 0.930 . S
C65 C63 1.381 . S
C65 C64 1.387 . S
C65 H85 0.931 . S
C66 C63 1.487 . S
C66 C73 1.399 . S
C66 N91 1.343 . S
C67 C68 1.384 . S
C67 C69 1.384 . S
C67 H86 0.931 . S
C68 C67 1.384 . S
C68 C71 1.382 . S
C69 C67 1.384 . S
C69 C70 1.381 . S
C69 H87 0.930 . S
C70 C69 1.381 . S
C70 C72 1.381 . S
C70 C73 1.487 . S
C71 C68 1.382 . S
C71 C72 1.387 . S
C71 H88 0.930 . S
C72 C70 1.381 . S
C72 C71 1.387 . S
C72 H89 0.931 . S
C73 C66 1.399 . S
C73 C70 1.487 . S
C73 N90 1.343 . S
H74 C46 0.931 . S
H75 C48 0.930 . S
H76 C50 0.930 . S
H77 C51 0.931 . S
H78 C53 0.931 . S
H79 C55 0.930 . S
H80 C57 0.930 . S
H81 C58 0.931 . S
H82 C60 0.931 . S
H83 C62 0.930 . S
H84 C64 0.930 . S
H85 C65 0.931 . S
H86 C67 0.931 . S
H87 C69 0.930 . S
H88 C71 0.930 . S
H89 C72 0.931 . S
N90 C52 1.343 1_545 S
N90 C73 1.343 . S
N91 C59 1.343 1_545 S
N91 C66 1.343 . S
C92 C93 1.384 . S
C92 C94 1.384 . S
C92 H120 0.931 . S
C93 C92 1.384 . S
C93 C96 1.382 . S
C94 C92 1.384 . S
C94 C95 1.381 . S
C94 H121 0.930 . S
C95 C94 1.381 . S
C95 C97 1.381 . S
C95 C98 1.487 . S
C96 C93 1.382 . S
C96 C97 1.387 . S
C96 H122 0.930 . S
C97 C95 1.381 . S
C97 C96 1.387 . S
C97 H123 0.931 . S
C98 C95 1.487 . S
C98 C105 1.399 . S
C98 N136 1.343 . S
C99 C100 1.384 . S
C99 C101 1.384 . S
C99 H124 0.931 . S
C100 C99 1.384 . S
C100 C103 1.382 . S
C101 C99 1.384 . S
C101 C102 1.381 . S
C101 H125 0.930 . S
C102 C101 1.381 . S
C102 C104 1.381 . S
C102 C105 1.487 . S
C103 C100 1.382 . S
C103 C104 1.387 . S
C103 H126 0.930 . S
C104 C102 1.381 . S
C104 C103 1.387 . S
C104 H127 0.931 . S
C105 C98 1.399 . S
C105 C102 1.487 . S
C105 N137 1.343 . S
C106 C107 1.384 . S
C106 C108 1.384 . S
C106 H128 0.931 . S
C107 C106 1.384 . S
C107 C110 1.382 . S
C108 C106 1.384 . S
C108 C109 1.381 . S
C108 H129 0.930 . S
C109 C108 1.381 . S
C109 C111 1.381 . S
C109 C112 1.487 . S
C110 C107 1.382 . S
C110 C111 1.387 . S
C110 H130 0.930 . S
C111 C109 1.381 . S
C111 C110 1.387 . S
C111 H131 0.931 . S
C112 C109 1.487 . S
C112 C119 1.399 . S
C112 N137 1.343 . S
C113 C114 1.384 . S
C113 C115 1.384 . S
C113 H132 0.931 . S
C114 C113 1.384 . S
C114 C117 1.382 . S
C115 C113 1.384 . S
C115 C116 1.381 . S
C115 H133 0.930 . S
C116 C115 1.381 . S
C116 C118 1.381 . S
C116 C119 1.487 . S
C117 C114 1.382 . S
C117 C118 1.387 . S
C117 H134 0.930 . S
C118 C116 1.381 . S
C118 C117 1.387 . S
C118 H135 0.931 . S
C119 C112 1.399 . S
C119 C116 1.487 . S
C119 N136 1.343 . S
H120 C92 0.931 . S
H121 C94 0.930 . S
H122 C96 0.930 . S
H123 C97 0.931 . S
H124 C99 0.931 . S
H125 C101 0.930 . S
H126 C103 0.930 . S
H127 C104 0.931 . S
H128 C106 0.931 . S
H129 C108 0.930 . S
H130 C110 0.930 . S
H131 C111 0.931 . S
H132 C113 0.931 . S
H133 C115 0.930 . S
H134 C117 0.930 . S
H135 C118 0.931 . S
N136 C98 1.343 . S
N136 C119 1.343 . S
N137 C105 1.343 . S
N137 C112 1.343 . S
C138 C139 1.384 . S
C138 C140 1.384 . S
C138 H166 0.931 . S
C139 C138 1.384 . S
C139 C142 1.382 . S
C140 C138 1.384 . S
C140 C141 1.381 . S
C140 H167 0.930 . S
C141 C140 1.381 . S
C141 C143 1.381 . S
C141 C144 1.487 . S
C142 C139 1.382 . S
C142 C143 1.387 . S
C142 H168 0.930 . S
C143 C141 1.381 . S
C143 C142 1.387 . S
C143 H169 0.931 . S
C144 C141 1.487 . S
C144 C151 1.399 . S
C144 N182 1.343 1_655 S
C145 C146 1.384 . S
C145 C147 1.384 . S
C145 H170 0.931 . S
C146 C145 1.384 . S
C146 C149 1.382 . S
C147 C145 1.384 . S
C147 C148 1.381 . S
C147 H171 0.930 . S
C148 C147 1.381 . S
C148 C150 1.381 . S
C148 C151 1.487 . S
C149 C146 1.382 . S
C149 C150 1.387 . S
C149 H172 0.930 . S
C150 C148 1.381 . S
C150 C149 1.387 . S
C150 H173 0.931 . S
C151 C144 1.399 . S
C151 C148 1.487 . S
C151 N183 1.343 1_655 S
C152 C153 1.384 . S
C152 C154 1.384 . S
C152 H174 0.931 . S
C153 C152 1.384 . S
C153 C156 1.382 . S
C154 C152 1.384 . S
C154 C155 1.381 . S
C154 H175 0.930 . S
C155 C154 1.381 . S
C155 C157 1.381 . S
C155 C158 1.487 . S
C156 C153 1.382 . S
C156 C157 1.387 . S
C156 H176 0.930 . S
C157 C155 1.381 . S
C157 C156 1.387 . S
C157 H177 0.931 . S
C158 C155 1.487 . S
C158 C165 1.399 . S
C158 N183 1.343 . S
C159 C160 1.384 . S
C159 C161 1.384 . S
C159 H178 0.931 . S
C160 C159 1.384 . S
C160 C163 1.382 . S
C161 C159 1.384 . S
C161 C162 1.381 . S
C161 H179 0.930 . S
C162 C161 1.381 . S
C162 C164 1.381 . S
C162 C165 1.487 . S
C163 C160 1.382 . S
C163 C164 1.387 . S
C163 H180 0.930 . S
C164 C162 1.381 . S
C164 C163 1.387 . S
C164 H181 0.931 . S
C165 C158 1.399 . S
C165 C162 1.487 . S
C165 N182 1.343 . S
H166 C138 0.931 . S
H167 C140 0.930 . S
H168 C142 0.930 . S
H169 C143 0.931 . S
H170 C145 0.931 . S
H171 C147 0.930 . S
H172 C149 0.930 . S
H173 C150 0.931 . S
H174 C152 0.931 . S
H175 C154 0.930 . S
H176 C156 0.930 . S
H177 C157 0.931 . S
H178 C159 0.931 . S
H179 C161 0.930 . S
H180 C163 0.930 . S
H181 C164 0.931 . S
N182 C144 1.343 1_455 S
N182 C165 1.343 . S
N183 C151 1.343 1_455 S
N183 C158 1.343 . S
C184 C185 1.384 . S
C184 C186 1.384 . S
C184 H212 0.931 . S
C185 C184 1.384 . S
C185 C188 1.382 . S
C186 C184 1.384 . S
C186 C187 1.381 . S
C186 H213 0.930 1_556 S
C187 C186 1.381 . S
C187 C189 1.381 . S
C187 C190 1.487 . S
C188 C185 1.382 . S
C188 C189 1.387 . S
C188 H214 0.930 . S
C189 C187 1.381 . S
C189 C188 1.387 . S
C189 H215 0.931 . S
C190 C187 1.487 . S
C190 C197 1.399 1_556 S
C190 N228 1.343 1_565 S
C191 C192 1.384 . S
C191 C193 1.384 . S
C191 H216 0.931 . S
C192 C191 1.384 . S
C192 C195 1.382 . S
C193 C191 1.384 . S
C193 C194 1.381 . S
C193 H217 0.930 . S
C194 C193 1.381 . S
C194 C196 1.381 . S
C194 C197 1.487 . S
C195 C192 1.382 . S
C195 C196 1.387 . S
C195 H218 0.930 . S
C196 C194 1.381 . S
C196 C195 1.387 . S
C196 H219 0.931 . S
C197 C190 1.399 1_554 S
C197 C194 1.487 . S
C197 N229 1.343 1_565 S
C198 C199 1.384 . S
C198 C200 1.384 1_554 S
C198 H220 0.920 1_554 S
C199 C198 1.384 . S
C199 C202 1.382 . S
C200 C198 1.384 1_556 S
C200 C201 1.381 1_556 S
C200 H221 0.930 . S
C201 C200 1.381 1_554 S
C201 C203 1.381 . S
C201 C204 1.484 1_554 S
C202 C199 1.382 . S
C202 C203 1.387 . S
C202 H222 0.930 . S
C203 C201 1.381 . S
C203 C202 1.387 . S
C203 H223 0.931 . S
C204 C201 1.484 1_556 S
C204 C211 1.410 . S
C204 N229 1.334 1_556 S
C205 C206 1.384 . S
C205 C207 1.384 . S
C205 H224 0.931 . S
C206 C205 1.384 . S
C206 C209 1.382 . S
C207 C205 1.384 . S
C207 C208 1.381 . S
C207 H225 0.930 . S
C208 C207 1.381 . S
C208 C210 1.381 . S
C208 C211 1.487 . S
C209 C206 1.382 . S
C209 C210 1.387 . S
C209 H226 0.930 . S
C210 C208 1.381 . S
C210 C209 1.387 . S
C210 H227 0.931 . S
C211 C204 1.410 . S
C211 C208 1.487 . S
C211 N228 1.343 . S
H212 C184 0.931 . S
H213 C186 0.930 1_554 S
H214 C188 0.930 . S
H215 C189 0.931 . S
H216 C191 0.931 . S
H217 C193 0.930 . S
H218 C195 0.930 . S
H219 C196 0.931 . S
H220 C198 0.920 1_556 S
H221 C200 0.930 . S
H222 C202 0.930 . S
H223 C203 0.931 . S
H224 C205 0.931 . S
H225 C207 0.930 . S
H226 C209 0.930 . S
H227 C210 0.931 . S
N228 C190 1.343 1_545 S
N228 C211 1.343 . S
N229 C197 1.343 1_545 S
N229 C204 1.334 1_554 S
C230 C231 1.384 . S
C230 C232 1.384 . S
C230 H258 0.931 . S
C231 C230 1.384 . S
C231 C234 1.382 . S
C232 C230 1.384 . S
C232 C233 1.381 . S
C232 H259 0.930 . S
C233 C232 1.381 . S
C233 C235 1.381 . S
C233 C236 1.487 . S
C234 C231 1.382 . S
C234 C235 1.387 . S
C234 H260 0.930 . S
C235 C233 1.381 . S
C235 C234 1.387 . S
C235 H261 0.931 . S
C236 C233 1.487 . S
C236 C243 1.399 . S
C236 N274 1.343 . S
C237 C238 1.384 . S
C237 C239 1.384 . S
C237 H262 0.931 . S
C238 C237 1.384 . S
C238 C241 1.382 . S
C239 C237 1.384 . S
C239 C240 1.381 . S
C239 H263 0.930 . S
C240 C239 1.381 . S
C240 C242 1.381 . S
C240 C243 1.487 . S
C241 C238 1.382 . S
C241 C242 1.387 . S
C241 H264 0.930 . S
C242 C240 1.381 . S
C242 C241 1.387 . S
C242 H265 0.931 . S
C243 C236 1.399 . S
C243 C240 1.487 . S
C243 N275 1.343 . S
C244 C245 1.384 . S
C244 C246 1.384 . S
C244 H266 0.931 . S
C245 C244 1.384 . S
C245 C248 1.382 . S
C246 C244 1.384 . S
C246 C247 1.381 . S
C246 H267 0.930 . S
C247 C246 1.381 . S
C247 C249 1.381 . S
C247 C250 1.487 . S
C248 C245 1.382 . S
C248 C249 1.387 . S
C248 H268 0.930 . S
C249 C247 1.381 . S
C249 C248 1.387 . S
C249 H269 0.931 . S
C250 C247 1.487 . S
C250 C257 1.399 . S
C250 N275 1.343 . S
C251 C252 1.384 . S
C251 C253 1.384 . S
C251 H270 0.931 . S
C252 C251 1.384 . S
C252 C255 1.382 . S
C253 C251 1.384 . S
C253 C254 1.381 . S
C253 H271 0.930 . S
C254 C253 1.381 . S
C254 C256 1.381 . S
C254 C257 1.487 . S
C255 C252 1.382 . S
C255 C256 1.387 . S
C255 H272 0.930 . S
C256 C254 1.381 . S
C256 C255 1.387 . S
C256 H273 0.931 . S
C257 C250 1.399 . S
C257 C254 1.487 . S
C257 N274 1.343 . S
H258 C230 0.931 . S
H259 C232 0.930 . S
H260 C234 0.930 . S
H261 C235 0.931 . S
H262 C237 0.931 . S
H263 C239 0.930 . S
H264 C241 0.930 . S
H265 C242 0.931 . S
H266 C244 0.931 . S
H267 C246 0.930 . S
H268 C248 0.930 . S
H269 C249 0.931 . S
H270 C251 0.931 . S
H271 C253 0.930 . S
H272 C255 0.930 . S
H273 C256 0.931 . S
N274 C236 1.343 . S
N274 C257 1.343 . S
N275 C243 1.343 . S
N275 C250 1.343 . S
In276 O277 2.294 . S
In276 O278 2.326 . S
In276 O282 2.266 . S
In276 O283 2.326 . S
In276 O284 2.266 . S
In276 O285 2.326 . S
In276 O287 2.294 . S
In276 O288 2.326 . S
O277 In276 2.294 . S
O277 C286 1.240 . S
O278 In276 2.326 . S
O278 C286 1.252 . S
C279 O282 1.252 . S
C279 O283 1.260 . S
C280 O287 1.240 . S
C280 O288 1.252 . S
C281 O284 1.252 . S
C281 O285 1.260 . S
O282 In276 2.266 . S
O282 C279 1.252 . S
O283 In276 2.326 . S
O283 C279 1.260 . S
O284 In276 2.266 . S
O284 C281 1.252 . S
O285 In276 2.326 . S
O285 C281 1.260 . S
C286 O277 1.240 . S
C286 O278 1.252 . S
O287 In276 2.294 . S
O287 C280 1.240 . S
O288 In276 2.326 . S
O288 C280 1.252 . S
In289 O290 2.294 . S
In289 O291 2.326 . S
In289 O295 2.266 . S
In289 O296 2.326 . S
In289 O297 2.266 . S
In289 O298 2.326 . S
In289 O300 2.294 . S
In289 O301 2.326 . S
O290 In289 2.294 . S
O290 C299 1.240 . S
O291 In289 2.326 . S
O291 C299 1.252 . S
C292 O295 1.252 . S
C292 O296 1.260 . S
C293 O300 1.240 . S
C293 O301 1.252 . S
C294 O297 1.252 . S
C294 O298 1.260 . S
O295 In289 2.266 . S
O295 C292 1.252 . S
O296 In289 2.326 . S
O296 C292 1.260 . S
O297 In289 2.266 . S
O297 C294 1.252 . S
O298 In289 2.326 . S
O298 C294 1.260 . S
C299 O290 1.240 . S
C299 O291 1.252 . S
O300 In289 2.294 . S
O300 C293 1.240 . S
O301 In289 2.326 . S
O301 C293 1.252 . S
In302 O303 2.294 . S
In302 O304 2.326 . S
In302 O308 2.266 . S
In302 O309 2.326 . S
In302 O310 2.266 . S
In302 O311 2.326 . S
In302 O313 2.294 . S
In302 O314 2.326 . S
O303 In302 2.294 . S
O303 C312 1.240 . S
O304 In302 2.326 . S
O304 C312 1.252 . S
C305 O308 1.252 . S
C305 O309 1.260 . S
C306 O313 1.240 . S
C306 O314 1.252 . S
C307 O310 1.252 . S
C307 O311 1.260 . S
O308 In302 2.266 . S
O308 C305 1.252 . S
O309 In302 2.326 . S
O309 C305 1.260 . S
O310 In302 2.266 . S
O310 C307 1.252 . S
O311 In302 2.326 . S
O311 C307 1.260 . S
C312 O303 1.240 . S
C312 O304 1.252 . S
O313 In302 2.294 . S
O313 C306 1.240 . S
O314 In302 2.326 . S
O314 C306 1.252 . S
In315 O316 2.294 . S
In315 O317 2.326 . S
In315 O321 2.266 . S
In315 O322 2.326 . S
In315 O323 2.266 . S
In315 O324 2.326 . S
In315 O326 2.294 . S
In315 O327 2.326 . S
O316 In315 2.294 . S
O316 C325 1.240 . S
O317 In315 2.326 . S
O317 C325 1.252 . S
C318 O321 1.252 . S
C318 O322 1.260 . S
C319 O326 1.240 . S
C319 O327 1.252 . S
C320 O323 1.252 . S
C320 O324 1.260 . S
O321 In315 2.266 . S
O321 C318 1.252 . S
O322 In315 2.326 . S
O322 C318 1.260 . S
O323 In315 2.266 . S
O323 C320 1.252 . S
O324 In315 2.326 . S
O324 C320 1.260 . S
C325 O316 1.240 . S
C325 O317 1.252 . S
O326 In315 2.294 . S
O326 C319 1.240 . S
O327 In315 2.326 . S
O327 C319 1.252 . S
In328 O329 2.294 . S
In328 O330 2.326 . S
In328 O334 2.266 . S
In328 O335 2.326 . S
In328 O336 2.266 . S
In328 O337 2.326 . S
In328 O339 2.294 . S
In328 O340 2.326 . S
O329 In328 2.294 . S
O329 C338 1.240 . S
O330 In328 2.326 . S
O330 C338 1.252 . S
C331 O334 1.252 . S
C331 O335 1.260 . S
C332 O339 1.240 . S
C332 O340 1.252 . S
C333 O336 1.252 . S
C333 O337 1.260 . S
O334 In328 2.266 . S
O334 C331 1.252 . S
O335 In328 2.326 . S
O335 C331 1.260 . S
O336 In328 2.266 . S
O336 C333 1.252 . S
O337 In328 2.326 . S
O337 C333 1.260 . S
C338 O329 1.240 . S
C338 O330 1.252 . S
O339 In328 2.294 . S
O339 C332 1.240 . S
O340 In328 2.326 . S
O340 C332 1.252 . S
In341 O342 2.294 . S
In341 O343 2.326 . S
In341 O347 2.266 . S
In341 O348 2.326 . S
In341 O349 2.266 . S
In341 O350 2.326 . S
In341 O352 2.294 . S
In341 O353 2.326 . S
O342 In341 2.294 . S
O342 C351 1.240 . S
O343 In341 2.326 . S
O343 C351 1.252 . S
C344 O347 1.252 . S
C344 O348 1.260 . S
C345 O352 1.240 . S
C345 O353 1.252 . S
C346 O349 1.252 . S
C346 O350 1.260 . S
O347 In341 2.266 . S
O347 C344 1.252 . S
O348 In341 2.326 . S
O348 C344 1.260 . S
O349 In341 2.266 . S
O349 C346 1.252 . S
O350 In341 2.326 . S
O350 C346 1.260 . S
C351 O342 1.240 . S
C351 O343 1.252 . S
O352 In341 2.294 . S
O352 C345 1.240 . S
O353 In341 2.326 . S
O353 C345 1.252 . S
C354 C355 1.387 . S
C354 H358 0.950 . S
C354 C363 1.390 . S
C355 C354 1.387 . S
C355 C357 1.387 . S
H356 C363 0.950 . S
C357 C355 1.387 . S
C357 C359 1.390 . S
C357 H361 0.950 . S
H358 C354 0.950 . S
C359 C357 1.390 . S
C359 C360 1.387 . S
C359 H362 0.950 . S
C360 C359 1.387 . S
C360 C363 1.387 . S
H361 C357 0.950 . S
H362 C359 0.950 . S
C363 C354 1.390 . S
C363 H356 0.950 . S
C363 C360 1.387 . S
C364 C365 1.387 . S
C364 H368 0.950 . S
C364 C373 1.390 . S
C365 C364 1.387 . S
C365 C367 1.387 . S
H366 C373 0.950 . S
C367 C365 1.387 . S
C367 C369 1.390 . S
C367 H371 0.950 . S
H368 C364 0.950 . S
C369 C367 1.390 . S
C369 C370 1.387 . S
C369 H372 0.950 . S
C370 C369 1.387 . S
C370 C373 1.387 . S
H371 C367 0.950 . S
H372 C369 0.950 . S
C373 C364 1.390 . S
C373 H366 0.950 . S
C373 C370 1.387 . S
C374 C375 1.387 . S
C374 H378 0.950 . S
C374 C383 1.390 . S
C375 C374 1.387 . S
C375 C377 1.387 . S
H376 C383 0.950 . S
C377 C375 1.387 . S
C377 C379 1.390 . S
C377 H381 0.950 . S
H378 C374 0.950 . S
C379 C377 1.390 . S
C379 C380 1.387 . S
C379 H382 0.950 . S
C380 C379 1.387 . S
C380 C383 1.387 . S
H381 C377 0.950 . S
H382 C379 0.950 . S
C383 C374 1.390 . S
C383 H376 0.950 . S
C383 C380 1.387 . S
C384 C385 1.387 . S
C384 H388 0.950 . S
C384 C393 1.390 . S
C385 C384 1.387 . S
C385 C387 1.387 . S
H386 C393 0.950 . S
C387 C385 1.387 . S
C387 C389 1.390 . S
C387 H391 0.950 . S
H388 C384 0.950 . S
C389 C387 1.390 . S
C389 C390 1.387 . S
C389 H392 0.950 . S
C390 C389 1.387 . S
C390 C393 1.387 . S
H391 C387 0.950 . S
H392 C389 0.950 . S
C393 C384 1.390 . S
C393 H386 0.950 . S
C393 C390 1.387 . S
C394 C395 1.387 . S
C394 H398 0.950 . S
C394 C403 1.390 . S
C395 C394 1.387 . S
C395 C397 1.387 . S
H396 C403 0.950 . S
C397 C395 1.387 . S
C397 C399 1.390 . S
C397 H401 0.950 . S
H398 C394 0.950 . S
C399 C397 1.390 . S
C399 C400 1.387 . S
C399 H402 0.950 . S
C400 C399 1.387 . S
C400 C403 1.387 . S
H401 C397 0.950 . S
H402 C399 0.950 . S
C403 C394 1.390 . S
C403 H396 0.950 . S
C403 C400 1.387 . S
C404 C405 1.387 . S
C404 H408 0.950 . S
C404 C413 1.390 . S
C405 C404 1.387 . S
C405 C407 1.387 . S
H406 C413 0.950 . S
C407 C405 1.387 . S
C407 C409 1.390 . S
C407 H411 0.950 . S
H408 C404 0.950 . S
C409 C407 1.390 . S
C409 C410 1.387 . S
C409 H412 0.950 . S
C410 C409 1.387 . S
C410 C413 1.387 . S
H411 C407 0.950 . S
H412 C409 0.950 . S
C413 C404 1.390 . S
C413 H406 0.950 . S
C413 C410 1.387 . S
C414 C415 1.387 . S
C414 H418 0.950 . S
C414 C423 1.390 . S
C415 C414 1.387 . S
C415 C417 1.387 . S
H416 C423 0.950 . S
C417 C415 1.387 . S
C417 C419 1.390 . S
C417 H421 0.950 . S
H418 C414 0.950 . S
C419 C417 1.390 . S
C419 C420 1.387 . S
C419 H422 0.950 . S
C420 C419 1.387 . S
C420 C423 1.387 . S
H421 C417 0.950 . S
H422 C419 0.950 . S
C423 C414 1.390 . S
C423 H416 0.950 . S
C423 C420 1.387 . S
C424 C425 1.387 . S
C424 H428 0.950 . S
C424 C433 1.390 . S
C425 C424 1.387 . S
C425 C427 1.387 . S
H426 C433 0.950 . S
C427 C425 1.387 . S
C427 C429 1.390 . S
C427 H431 0.950 . S
H428 C424 0.950 . S
C429 C427 1.390 . S
C429 C430 1.387 . S
C429 H432 0.950 . S
C430 C429 1.387 . S
C430 C433 1.387 . S
H431 C427 0.950 . S
H432 C429 0.950 . S
C433 C424 1.390 . S
C433 H426 0.950 . S
C433 C430 1.387 . S
C434 C435 1.387 . S
C434 H438 0.950 . S
C434 C443 1.390 . S
C435 C434 1.387 . S
C435 C437 1.387 . S
H436 C443 0.950 . S
C437 C435 1.387 . S
C437 C439 1.390 . S
C437 H441 0.950 . S
H438 C434 0.950 . S
C439 C437 1.390 . S
C439 C440 1.387 . S
C439 H442 0.950 . S
C440 C439 1.387 . S
C440 C443 1.387 . S
H441 C437 0.950 . S
H442 C439 0.950 . S
C443 C434 1.390 . S
C443 H436 0.950 . S
C443 C440 1.387 . S
C444 C445 1.387 . S
C444 H448 0.950 . S
C444 C453 1.390 . S
C445 C444 1.387 . S
C445 C447 1.387 . S
H446 C453 0.950 . S
C447 C445 1.387 . S
C447 C449 1.390 . S
C447 H451 0.950 1_554 S
H448 C444 0.950 . S
C449 C447 1.390 . S
C449 C450 1.387 . S
C449 H452 0.950 . S
C450 C449 1.387 . S
C450 C453 1.387 . S
H451 C447 0.950 1_556 S
H452 C449 0.950 . S
C453 C444 1.390 . S
C453 H446 0.950 . S
C453 C450 1.387 . S
C454 C455 1.387 . S
C454 H458 0.950 . S
C454 C463 1.390 . S
C455 C454 1.387 . S
C455 C457 1.387 . S
H456 C463 0.950 . S
C457 C455 1.387 . S
C457 C459 1.390 . S
C457 H461 0.950 . S
H458 C454 0.950 . S
C459 C457 1.390 . S
C459 C460 1.387 . S
C459 H462 0.950 . S
C460 C459 1.387 . S
C460 C463 1.387 . S
H461 C457 0.950 . S
H462 C459 0.950 . S
C463 C454 1.390 . S
C463 H456 0.950 . S
C463 C460 1.387 . S
C464 C465 1.387 . S
C464 H468 0.950 . S
C464 C473 1.390 . S
C465 C464 1.387 . S
C465 C467 1.387 . S
H466 C473 0.950 . S
C467 C465 1.387 . S
C467 C469 1.390 . S
C467 H471 0.950 . S
H468 C464 0.950 . S
C469 C467 1.390 . S
C469 C470 1.387 . S
C469 H472 0.950 . S
C470 C469 1.387 . S
C470 C473 1.387 . S
H471 C467 0.950 . S
H472 C469 0.950 . S
C473 C464 1.390 . S
C473 H466 0.950 . S
C473 C470 1.387 . S
C474 C475 1.387 . S
C474 H478 0.950 . S
C474 C483 1.390 . S
C475 C474 1.387 . S
C475 C477 1.387 . S
H476 C483 0.950 . S
C477 C475 1.387 . S
C477 C479 1.390 . S
C477 H481 0.950 . S
H478 C474 0.950 . S
C479 C477 1.390 . S
C479 C480 1.387 . S
C479 H482 0.950 . S
C480 C479 1.387 . S
C480 C483 1.387 . S
H481 C477 0.950 . S
H482 C479 0.950 . S
C483 C474 1.390 . S
C483 H476 0.950 . S
C483 C480 1.387 . S
C484 C485 1.387 . S
C484 H488 0.950 . S
C484 C493 1.390 . S
C485 C484 1.387 . S
C485 C487 1.387 . S
H486 C493 0.950 . S
C487 C485 1.387 . S
C487 C489 1.390 . S
C487 H491 0.950 . S
H488 C484 0.950 . S
C489 C487 1.390 . S
C489 C490 1.387 . S
C489 H492 0.950 . S
C490 C489 1.387 . S
C490 C493 1.387 . S
H491 C487 0.950 . S
H492 C489 0.950 . S
C493 C484 1.390 . S
C493 H486 0.950 . S
C493 C490 1.387 . S
C494 C495 1.387 . S
C494 H498 0.950 . S
C494 C503 1.390 . S
C495 C494 1.387 . S
C495 C497 1.387 . S
H496 C503 0.950 . S
C497 C495 1.387 . S
C497 C499 1.390 . S
C497 H501 0.950 . S
H498 C494 0.950 . S
C499 C497 1.390 . S
C499 C500 1.387 . S
C499 H502 0.950 . S
C500 C499 1.387 . S
C500 C503 1.387 . S
H501 C497 0.950 . S
H502 C499 0.950 . S
C503 C494 1.390 . S
C503 H496 0.950 . S
C503 C500 1.387 . S
C504 C505 1.387 . S
C504 H508 0.950 . S
C504 C513 1.390 . S
C505 C504 1.387 . S
C505 C507 1.387 . S
H506 C513 0.949 1_554 S
C507 C505 1.387 . S
C507 C509 1.390 . S
C507 H511 0.950 . S
H508 C504 0.950 . S
C509 C507 1.390 . S
C509 C510 1.387 1_556 S
C509 H512 0.950 1_556 S
C510 C509 1.387 1_554 S
C510 C513 1.387 1_554 S
H511 C507 0.950 . S
H512 C509 0.950 1_554 S
C513 C504 1.390 . S
C513 H506 0.949 1_556 S
C513 C510 1.387 1_556 S
C514 C515 1.387 . S
C514 H518 0.950 . S
C514 C523 1.390 . S
C515 C514 1.387 . S
C515 C517 1.387 . S
H516 C523 0.950 . S
C517 C515 1.387 . S
C517 C519 1.390 . S
C517 H521 0.950 . S
H518 C514 0.950 . S
C519 C517 1.390 . S
C519 C520 1.387 . S
C519 H522 0.950 . S
C520 C519 1.387 . S
C520 C523 1.387 . S
H521 C517 0.950 . S
H522 C519 0.950 . S
C523 C514 1.390 . S
C523 H516 0.950 . S
C523 C520 1.387 . S
C524 C525 1.387 . S
C524 H528 0.950 . S
C524 C533 1.390 . S
C525 C524 1.387 . S
C525 C527 1.387 . S
H526 C533 0.950 . S
C527 C525 1.387 . S
C527 C529 1.390 . S
C527 H531 0.950 . S
H528 C524 0.950 . S
C529 C527 1.390 . S
C529 C530 1.387 . S
C529 H532 0.950 . S
C530 C529 1.387 . S
C530 C533 1.387 . S
H531 C527 0.950 . S
H532 C529 0.950 . S
C533 C524 1.390 . S
C533 H526 0.950 . S
C533 C530 1.387 . S
C534 C535 1.387 . S
C534 H538 0.950 . S
C534 C543 1.390 . S
C535 C534 1.387 . S
C535 C537 1.387 . S
H536 C543 0.950 . S
C537 C535 1.387 . S
C537 C539 1.390 . S
C537 H541 0.950 . S
H538 C534 0.950 . S
C539 C537 1.390 . S
C539 C540 1.387 . S
C539 H542 0.950 . S
C540 C539 1.387 . S
C540 C543 1.387 . S
H541 C537 0.950 . S
H542 C539 0.950 . S
C543 C534 1.390 . S
C543 H536 0.950 . S
C543 C540 1.387 . S
C544 C545 1.387 . S
C544 H548 0.950 . S
C544 C553 1.390 . S
C545 C544 1.387 . S
C545 C547 1.387 . S
H546 C553 0.950 . S
C547 C545 1.387 . S
C547 C549 1.390 . S
C547 H551 0.950 . S
H548 C544 0.950 . S
C549 C547 1.390 . S
C549 C550 1.387 . S
C549 H552 0.950 . S
C550 C549 1.387 . S
C550 C553 1.387 . S
H551 C547 0.950 . S
H552 C549 0.950 . S
C553 C544 1.390 . S
C553 H546 0.950 . S
C553 C550 1.387 . S
C554 C555 1.387 . S
C554 H558 0.950 . S
C554 C563 1.390 . S
C555 C554 1.387 . S
C555 C557 1.387 . S
H556 C563 0.950 . S
C557 C555 1.387 . S
C557 C559 1.390 . S
C557 H561 0.950 . S
H558 C554 0.950 . S
C559 C557 1.390 . S
C559 C560 1.387 . S
C559 H562 0.950 . S
C560 C559 1.387 . S
C560 C563 1.387 . S
H561 C557 0.950 . S
H562 C559 0.950 . S
C563 C554 1.390 . S
C563 H556 0.950 . S
C563 C560 1.387 . S
C564 C565 1.387 . S
C564 H568 0.950 . S
C564 C573 1.390 . S
C565 C564 1.387 . S
C565 C567 1.387 . S
H566 C573 0.950 . S
C567 C565 1.387 . S
C567 C569 1.390 . S
C567 H571 0.950 . S
H568 C564 0.950 . S
C569 C567 1.390 . S
C569 C570 1.387 . S
C569 H572 0.950 . S
C570 C569 1.387 . S
C570 C573 1.387 . S
H571 C567 0.950 . S
H572 C569 0.950 . S
C573 C564 1.390 . S
C573 H566 0.950 . S
C573 C570 1.387 . S
C574 C575 1.387 . S
C574 H578 0.950 . S
C574 C583 1.390 1_554 S
C575 C574 1.387 . S
C575 C577 1.387 . S
H576 C583 0.950 . S
C577 C575 1.387 . S
C577 C579 1.390 1_554 S
C577 H581 0.950 . S
H578 C574 0.950 . S
C579 C577 1.390 1_556 S
C579 C580 1.387 . S
C579 H582 0.950 . S
C580 C579 1.387 . S
C580 C583 1.387 . S
H581 C577 0.950 . S
H582 C579 0.950 . S
C583 C574 1.390 1_556 S
C583 H576 0.950 . S
C583 C580 1.387 . S
C584 C585 1.387 . S
C584 H588 0.950 . S
C584 C593 1.390 . S
C585 C584 1.387 . S
C585 C587 1.387 . S
H586 C593 0.950 . S
C587 C585 1.387 . S
C587 C589 1.390 . S
C587 H591 0.950 . S
H588 C584 0.950 . S
C589 C587 1.390 . S
C589 C590 1.387 . S
C589 H592 0.950 . S
C590 C589 1.387 . S
C590 C593 1.387 . S
H591 C587 0.950 . S
H592 C589 0.950 . S
C593 C584 1.390 . S
C593 H586 0.950 . S
C593 C590 1.387 . S
C360 C346 1.564 . S
C355 C15 1.550 . S
C365 C61 1.551 . S
C370 C281 1.564 . S
C375 C114 1.550 . S
C380 C299 1.564 . S
C385 C139 1.550 . S
C390 C312 1.557 . S
C400 C320 1.567 . S
C395 C185 1.560 . S
C405 C245 1.549 . S
C410 C332 1.563 . S
C415 C47 1.558 . S
C420 C294 1.564 . S
C425 C100 1.558 . S
C430 C307 1.564 . S
C435 C153 1.547 . S
C440 C325 1.563 . S
C450 C331 1.567 . S
C445 C199 1.553 . S
C460 C351 1.556 . S
C455 C231 1.549 . S
C470 C286 1.564 . S
C465 C1 1.556 . S
C475 C22 1.567 . S
C480 C292 1.585 . S
C485 C68 1.571 . S
C490 C305 1.590 . S
C500 C319 1.583 . S
C495 C107 1.567 . S
C505 C146 1.582 . S
C510 C333 1.589 . S
C520 C345 1.579 . S
C515 C192 1.574 . S
C530 C280 1.582 . S
C525 C252 1.565 . S
C540 C344 1.590 . S
C535 C54 1.583 . S
C545 C93 1.578 . S
C550 C279 1.585 . S
C560 C293 1.582 . S
C555 C160 1.565 . S
C565 C206 1.563 . S
C570 C306 1.580 . S
C575 C238 1.583 . S
C580 C318 1.590 . S
C585 C8 1.579 . S
C590 C338 1.584 . S
