# Generated by pormake.
# Topology pyr, (3,6)-cn, num edge types: 1
# Building blocks:
#     Node 0, Type 0, BuildingBlock: VETTIZ_charged_linker_0, # of connection points: 3
#     Node 1, Type 0, BuildingBlock: VETTIZ_charged_linker_0, # of connection points: 3
#     Node 2, Type 0, BuildingBlock: VETTIZ_charged_linker_0, # of connection points: 3
#     Node 3, Type 0, BuildingBlock: VETTIZ_charged_linker_0, # of connection points: 3
#     Node 4, Type 0, BuildingBlock: VETTIZ_charged_linker_0, # of connection points: 3
#     Node 5, Type 0, BuildingBlock: VETTIZ_charged_linker_0, # of connection points: 3
#     Node 6, Type 0, BuildingBlock: VETTIZ_charged_linker_0, # of connection points: 3
#     Node 7, Type 0, BuildingBlock: VETTIZ_charged_linker_0, # of connection points: 3
#     Node 8, Type 1, BuildingBlock: BETFEN_clean_sbu_0, # of connection points: 6
#     Node 9, Type 1, BuildingBlock: BETFEN_clean_sbu_0, # of connection points: 6
#     Node 10, Type 1, BuildingBlock: BETFEN_clean_sbu_0, # of connection points: 6
#     Node 11, Type 1, BuildingBlock: BETFEN_clean_sbu_0, # of connection points: 6
#     Edge 12, Type (0, 1), BuildingBlock: EZIPEK_clean_linker_0, # of connection points: 2
#     Edge 13, Type (0, 1), BuildingBlock: EZIPEK_clean_linker_0, # of connection points: 2
#     Edge 14, Type (0, 1), BuildingBlock: EZIPEK_clean_linker_0, # of connection points: 2
#     Edge 15, Type (0, 1), BuildingBlock: EZIPEK_clean_linker_0, # of connection points: 2
#     Edge 16, Type (0, 1), BuildingBlock: EZIPEK_clean_linker_0, # of connection points: 2
#     Edge 17, Type (0, 1), BuildingBlock: EZIPEK_clean_linker_0, # of connection points: 2
#     Edge 18, Type (0, 1), BuildingBlock: EZIPEK_clean_linker_0, # of connection points: 2
#     Edge 19, Type (0, 1), BuildingBlock: EZIPEK_clean_linker_0, # of connection points: 2
#     Edge 20, Type (0, 1), BuildingBlock: EZIPEK_clean_linker_0, # of connection points: 2
#     Edge 21, Type (0, 1), BuildingBlock: EZIPEK_clean_linker_0, # of connection points: 2
#     Edge 22, Type (0, 1), BuildingBlock: EZIPEK_clean_linker_0, # of connection points: 2
#     Edge 23, Type (0, 1), BuildingBlock: EZIPEK_clean_linker_0, # of connection points: 2
#     Edge 24, Type (0, 1), BuildingBlock: EZIPEK_clean_linker_0, # of connection points: 2
#     Edge 25, Type (0, 1), BuildingBlock: EZIPEK_clean_linker_0, # of connection points: 2
#     Edge 26, Type (0, 1), BuildingBlock: EZIPEK_clean_linker_0, # of connection points: 2
#     Edge 27, Type (0, 1), BuildingBlock: EZIPEK_clean_linker_0, # of connection points: 2
#     Edge 28, Type (0, 1), BuildingBlock: EZIPEK_clean_linker_0, # of connection points: 2
#     Edge 29, Type (0, 1), BuildingBlock: EZIPEK_clean_linker_0, # of connection points: 2
#     Edge 30, Type (0, 1), BuildingBlock: EZIPEK_clean_linker_0, # of connection points: 2
#     Edge 31, Type (0, 1), BuildingBlock: EZIPEK_clean_linker_0, # of connection points: 2
#     Edge 32, Type (0, 1), BuildingBlock: EZIPEK_clean_linker_0, # of connection points: 2
#     Edge 33, Type (0, 1), BuildingBlock: EZIPEK_clean_linker_0, # of connection points: 2
#     Edge 34, Type (0, 1), BuildingBlock: EZIPEK_clean_linker_0, # of connection points: 2
#     Edge 35, Type (0, 1), BuildingBlock: EZIPEK_clean_linker_0, # of connection points: 2
# Relax obj value: 0.172
# Max RMSD: 0.259
# Mean RMSD: 0.126
data_MOF--net-pyr--node1-BETFEN_clean_sbu_0--node2-VETTIZ_charged_linker_0--edge1-EZIPEK_clean_linker_0
_symmetry_space_group_name_H-M    P1
_symmetry_Int_Tables_number       1
_symmetry_cell_setting            triclinic
loop_
_symmetry_equiv_pos_as_xyz
'x, y, z'
_cell_length_a     35.240703
_cell_length_b     39.352667
_cell_length_c     37.166626
_cell_angle_alpha  91.036657
_cell_angle_beta   100.91853
_cell_angle_gamma 109.88076
loop_
_atom_site_label
_atom_site_type_symbol
_atom_site_fract_x
_atom_site_fract_y
_atom_site_fract_z
_atom_type_partial_charge
C0 C 0.35254 0.2679 0.41642 0.0
C1 C 0.33021 0.2829 0.43602 0.0
C2 C 0.32166 0.3135 0.42204 0.0
C3 C 0.35386 0.31095 0.37049 0.0
C4 C 0.36424 0.28241 0.38443 0.0
C5 C 0.3845 0.26714 0.35927 0.0
H6 H 0.42617 0.25488 0.19067 0.0
C7 C 0.3652 0.31624 0.33416 0.0
C8 C 0.38378 0.29097 0.32765 0.0
H9 H 0.43732 0.18694 0.2789 0.0
H10 H 0.42179 0.22662 0.31974 0.0
H11 H 0.4681 0.33455 0.24012 0.0
H12 H 0.34407 0.25945 0.20324 0.0
H13 H 0.34315 0.30305 0.19603 0.0
H14 H 0.37387 0.2858 0.17268 0.0
H15 H 0.44051 0.33067 0.19352 0.0
H16 H 0.43657 0.36073 0.22886 0.0
C17 C 0.42917 0.27336 0.37966 0.0
C18 C 0.3576 0.22669 0.34742 0.0
C19 C 0.30718 0.39283 0.24754 0.0
C20 C 0.30789 0.39846 0.21049 0.0
C21 C 0.33572 0.38861 0.19378 0.0
C22 C 0.35982 0.37012 0.21285 0.0
C23 C 0.35551 0.36112 0.24868 0.0
C24 C 0.33131 0.3742 0.26617 0.0
C25 C 0.331 0.36245 0.30444 0.0
C26 C 0.35715 0.33853 0.30624 0.0
C27 C 0.37062 0.33723 0.27317 0.0
C28 C 0.35189 0.39664 0.33217 0.0
C29 C 0.2857 0.34057 0.30644 0.0
C30 C 0.42638 0.24938 0.21915 0.0
C31 C 0.43287 0.21805 0.23188 0.0
C32 C 0.43242 0.21109 0.2688 0.0
C33 C 0.42316 0.23404 0.29228 0.0
C34 C 0.41355 0.26383 0.27843 0.0
C35 C 0.41622 0.27158 0.24266 0.0
C36 C 0.40164 0.30236 0.23162 0.0
C37 C 0.38968 0.31182 0.26665 0.0
C38 C 0.39652 0.28903 0.29387 0.0
C39 C 0.43834 0.33377 0.22275 0.0
C40 C 0.36389 0.2873 0.19909 0.0
H41 H 0.32525 0.35025 0.3808 0.0
H42 H 0.35847 0.24349 0.42355 0.0
H43 H 0.32488 0.22106 0.34916 0.0
H44 H 0.35595 0.21865 0.31837 0.0
H45 H 0.36902 0.20836 0.36522 0.0
H46 H 0.44393 0.30138 0.3933 0.0
H47 H 0.42963 0.25418 0.40118 0.0
H48 H 0.44931 0.27096 0.3611 0.0
H49 H 0.28619 0.40062 0.26086 0.0
H50 H 0.3368 0.39319 0.16528 0.0
H51 H 0.37913 0.36174 0.19828 0.0
H52 H 0.3749 0.41848 0.32091 0.0
H53 H 0.32885 0.40787 0.3389 0.0
H54 H 0.36972 0.39129 0.35793 0.0
H55 H 0.26962 0.32213 0.28094 0.0
H56 H 0.28284 0.32278 0.32904 0.0
H57 H 0.26833 0.35896 0.30937 0.0
H58 H 0.30336 0.32584 0.4338 0.0
C59 C 0.33387 0.32775 0.3901 0.0
C60 C 0.2193 0.89571 0.59113 0.0
C61 C 0.20719 0.92085 0.60966 0.0
C62 C 0.22396 0.93071 0.64739 0.0
C63 C 0.26148 0.88925 0.64865 0.0
C64 C 0.24709 0.88061 0.61119 0.0
C65 C 0.2656 0.85481 0.59669 0.0
H66 H 0.39121 0.75404 0.63893 0.0
C67 C 0.28748 0.86776 0.66228 0.0
C68 C 0.2904 0.84728 0.63214 0.0
H69 H 0.33516 0.76987 0.53007 0.0
H70 H 0.30023 0.80537 0.55636 0.0
H71 H 0.41781 0.83493 0.67168 0.0
H72 H 0.31321 0.73934 0.67367 0.0
H73 H 0.32248 0.7646 0.71585 0.0
H74 H 0.36155 0.74828 0.70508 0.0
H75 H 0.42063 0.79694 0.69665 0.0
H76 H 0.40998 0.83355 0.71694 0.0
C77 C 0.29376 0.87519 0.571 0.0
C78 C 0.23047 0.82019 0.57759 0.0
C79 C 0.35295 0.88276 0.79813 0.0
C80 C 0.37858 0.86659 0.81895 0.0
C81 C 0.38387 0.83607 0.80348 0.0
C82 C 0.36673 0.82386 0.76635 0.0
C83 C 0.34429 0.8425 0.74474 0.0
C84 C 0.33595 0.87015 0.76116 0.0
C85 C 0.31035 0.8859 0.7343 0.0
C86 C 0.30653 0.86441 0.6986 0.0
C87 C 0.32722 0.83971 0.70481 0.0
C88 C 0.3352 0.92686 0.7338 0.0
C89 C 0.26814 0.87758 0.74565 0.0
C90 C 0.37136 0.76514 0.62077 0.0
C91 C 0.36617 0.75965 0.58265 0.0
C92 C 0.33986 0.77422 0.55968 0.0
C93 C 0.31998 0.79496 0.57497 0.0
C94 C 0.32684 0.80137 0.61353 0.0
C95 C 0.35188 0.78597 0.63549 0.0
C96 C 0.35706 0.7956 0.67564 0.0
C97 C 0.332 0.82017 0.67465 0.0
C98 C 0.31393 0.82373 0.6383 0.0
C99 C 0.4037 0.81615 0.6914 0.0
C100 C 0.33793 0.76027 0.69378 0.0
H101 H 0.26139 0.92337 0.69571 0.0
H102 H 0.20736 0.88807 0.56196 0.0
H103 H 0.20779 0.80968 0.59545 0.0
H104 H 0.24175 0.7981 0.57194 0.0
H105 H 0.21388 0.82587 0.55118 0.0
H106 H 0.31238 0.90337 0.5831 0.0
H107 H 0.27517 0.87683 0.54381 0.0
H108 H 0.31631 0.86261 0.56675 0.0
H109 H 0.34849 0.90623 0.80976 0.0
H110 H 0.40371 0.82348 0.81939 0.0
H111 H 0.37352 0.80166 0.75549 0.0
H112 H 0.36884 0.93186 0.73798 0.0
H113 H 0.33057 0.94339 0.75598 0.0
H114 H 0.32757 0.93753 0.70715 0.0
H115 H 0.25968 0.85206 0.75957 0.0
H116 H 0.24227 0.87286 0.72183 0.0
H117 H 0.26881 0.89971 0.765 0.0
H118 H 0.21557 0.95024 0.66206 0.0
C119 C 0.25051 0.91491 0.66693 0.0
C120 C 0.59172 0.2152 0.87402 0.0
C121 C 0.55139 0.1903 0.86451 0.0
C122 C 0.5246 0.19815 0.83444 0.0
C123 C 0.5792 0.255 0.82593 0.0
C124 C 0.60433 0.24672 0.85545 0.0
C125 C 0.6453 0.27582 0.86684 0.0
H126 H 0.78791 0.43551 0.8527 0.0
C127 C 0.60384 0.2916 0.81386 0.0
C128 C 0.6424 0.30284 0.83903 0.0
H129 H 0.79253 0.35867 0.93329 0.0
H130 H 0.72498 0.31888 0.90396 0.0
H131 H 0.69645 0.43089 0.85148 0.0
H132 H 0.75017 0.37822 0.78518 0.0
H133 H 0.70718 0.38094 0.75449 0.0
H134 H 0.74747 0.42211 0.77681 0.0
H135 H 0.72226 0.45213 0.81626 0.0
H136 H 0.66748 0.42718 0.80677 0.0
C137 C 0.64842 0.29131 0.9066 0.0
C138 C 0.67859 0.25922 0.86244 0.0
C139 C 0.55821 0.36071 0.7019 0.0
C140 C 0.5806 0.39424 0.68844 0.0
C141 C 0.62138 0.41266 0.707 0.0
C142 C 0.63973 0.3996 0.73768 0.0
C143 C 0.61782 0.36704 0.75108 0.0
C144 C 0.57778 0.34736 0.73343 0.0
C145 C 0.56114 0.31265 0.75321 0.0
C146 C 0.59788 0.3153 0.78493 0.0
C147 C 0.63049 0.34806 0.78295 0.0
C148 C 0.52373 0.3135 0.76827 0.0
C149 C 0.55005 0.27891 0.7264 0.0
C150 C 0.77381 0.41012 0.86388 0.0
C151 C 0.79498 0.39999 0.89536 0.0
C152 C 0.7763 0.36686 0.90918 0.0
C153 C 0.73689 0.34384 0.892 0.0
C154 C 0.71548 0.35406 0.86062 0.0
C155 C 0.73399 0.38667 0.84706 0.0
C156 C 0.7067 0.39262 0.81329 0.0
C157 C 0.6683 0.35855 0.80937 0.0
C158 C 0.67393 0.33617 0.83702 0.0
C159 C 0.69779 0.42758 0.822 0.0
C160 C 0.72887 0.39384 0.78067 0.0
H161 H 0.51686 0.23473 0.79269 0.0
H162 H 0.61326 0.21084 0.89683 0.0
H163 H 0.66704 0.23786 0.83897 0.0
H164 H 0.70661 0.27915 0.85585 0.0
H165 H 0.68757 0.24654 0.88757 0.0
H166 H 0.61748 0.28776 0.91235 0.0
H167 H 0.66342 0.27753 0.92754 0.0
H168 H 0.66507 0.32095 0.91141 0.0
H169 H 0.52662 0.34562 0.68845 0.0
H170 H 0.6393 0.43804 0.69789 0.0
H171 H 0.67072 0.41603 0.75001 0.0
H172 H 0.53204 0.33881 0.78645 0.0
H173 H 0.49789 0.31253 0.74539 0.0
H174 H 0.5127 0.29023 0.78457 0.0
H175 H 0.57721 0.27941 0.71502 0.0
H176 H 0.54007 0.25372 0.74034 0.0
H177 H 0.52463 0.27792 0.70309 0.0
H178 H 0.49299 0.17983 0.82615 0.0
C179 C 0.53833 0.23002 0.81507 0.0
C180 C 0.94825 0.79258 0.35388 0.0
C181 C 0.93722 0.81011 0.38263 0.0
C182 C 0.90414 0.78864 0.39746 0.0
C183 C 0.8934 0.73467 0.35696 0.0
C184 C 0.92579 0.75467 0.34153 0.0
C185 C 0.93196 0.73011 0.31192 0.0
H186 H 0.87163 0.55999 0.21186 0.0
C187 C 0.87576 0.69623 0.33915 0.0
C188 C 0.89791 0.69258 0.31224 0.0
H189 H 0.97192 0.65717 0.20184 0.0
H190 H 0.95547 0.68935 0.24961 0.0
H191 H 0.8857 0.57247 0.31072 0.0
H192 H 0.80064 0.60355 0.2287 0.0
H193 H 0.77914 0.57349 0.26108 0.0
H194 H 0.80034 0.55767 0.22667 0.0
H195 H 0.85004 0.53946 0.27473 0.0
H196 H 0.83208 0.55423 0.31218 0.0
C197 C 0.97544 0.72814 0.32368 0.0
C198 C 0.92546 0.74597 0.27463 0.0
C199 C 0.75511 0.61527 0.39046 0.0
C200 C 0.72788 0.57902 0.38512 0.0
C201 C 0.73393 0.5569 0.35724 0.0
C202 C 0.76581 0.57069 0.33621 0.0
C203 C 0.79295 0.60743 0.34242 0.0
C204 C 0.78636 0.62837 0.36955 0.0
C205 C 0.81609 0.66635 0.37417 0.0
C206 C 0.84224 0.66603 0.34596 0.0
C207 C 0.82972 0.63149 0.3262 0.0
C208 C 0.84196 0.67299 0.41423 0.0
C209 C 0.79035 0.69141 0.36433 0.0
C210 C 0.89017 0.58825 0.21972 0.0
C211 C 0.92383 0.60536 0.20131 0.0
C212 C 0.94621 0.64241 0.21408 0.0
C213 C 0.93649 0.6614 0.24234 0.0
C214 C 0.90347 0.64425 0.26007 0.0
C215 C 0.88075 0.60787 0.24875 0.0
C216 C 0.84686 0.59405 0.27161 0.0
C217 C 0.85262 0.62744 0.29787 0.0
C218 C 0.88651 0.65757 0.29086 0.0
C219 C 0.85394 0.56322 0.29355 0.0
C220 C 0.80424 0.58137 0.24558 0.0
H221 H 0.85812 0.73865 0.39857 0.0
H222 H 0.97367 0.80785 0.34161 0.0
H223 H 0.89602 0.75144 0.26965 0.0
H224 H 0.92342 0.72719 0.25137 0.0
H225 H 0.95097 0.77194 0.27414 0.0
H226 H 0.9808 0.72168 0.35281 0.0
H227 H 0.99947 0.75451 0.32133 0.0
H228 H 0.97979 0.70671 0.30719 0.0
H229 H 0.75221 0.6336 0.41101 0.0
H230 H 0.71392 0.52877 0.35164 0.0
H231 H 0.76846 0.55241 0.3157 0.0
H232 H 0.84504 0.64748 0.42457 0.0
H233 H 0.82745 0.68388 0.43348 0.0
H234 H 0.87422 0.69136 0.41657 0.0
H235 H 0.7614 0.67733 0.34369 0.0
H236 H 0.80646 0.71555 0.35108 0.0
H237 H 0.78143 0.70029 0.389 0.0
H238 H 0.89471 0.80047 0.41923 0.0
C239 C 0.88265 0.75199 0.38509 0.0
C240 C 0.69538 0.6238 0.83067 0.0
C241 C 0.72394 0.60949 0.82108 0.0
C242 C 0.72634 0.60602 0.78393 0.0
C243 C 0.68016 0.63947 0.76806 0.0
C244 C 0.67401 0.63899 0.8037 0.0
C245 C 0.6474 0.66049 0.80999 0.0
H246 H 0.59218 0.80263 0.76761 0.0
C247 C 0.66073 0.66371 0.74864 0.0
C248 C 0.64009 0.67511 0.77257 0.0
H249 H 0.57584 0.74104 0.86181 0.0
H250 H 0.58997 0.69273 0.83182 0.0
H251 H 0.54661 0.73312 0.70508 0.0
H252 H 0.6725 0.79217 0.75751 0.0
H253 H 0.66936 0.7875 0.70981 0.0
H254 H 0.63999 0.81064 0.727 0.0
H255 H 0.57645 0.77334 0.68738 0.0
H256 H 0.57585 0.72901 0.6729 0.0
C257 C 0.60689 0.63427 0.81893 0.0
C258 C 0.6731 0.69114 0.84089 0.0
C259 C 0.71682 0.72327 0.64094 0.0
C260 C 0.71387 0.75449 0.62478 0.0
C261 C 0.68067 0.76568 0.62789 0.0
C262 C 0.65402 0.74893 0.65104 0.0
C263 C 0.6619 0.72186 0.67213 0.0
C264 C 0.69078 0.70757 0.66498 0.0
C265 C 0.69534 0.67934 0.69056 0.0
C266 C 0.66603 0.68055 0.71549 0.0
C267 C 0.6476 0.70643 0.70518 0.0
C268 C 0.68063 0.64223 0.66761 0.0
C269 C 0.74102 0.69234 0.71159 0.0
C270 C 0.59054 0.77816 0.7811 0.0
C271 C 0.58385 0.77555 0.81711 0.0
C272 C 0.58138 0.74345 0.83411 0.0
C273 C 0.59014 0.71583 0.81692 0.0
C274 C 0.60246 0.72101 0.78302 0.0
C275 C 0.59976 0.75048 0.76448 0.0
C276 C 0.61376 0.75124 0.7286 0.0
C277 C 0.62684 0.71808 0.72945 0.0
C278 C 0.62155 0.70137 0.76215 0.0
C279 C 0.57648 0.74669 0.69672 0.0
C280 C 0.65071 0.78718 0.73043 0.0
H281 H 0.70841 0.61861 0.72958 0.0
H282 H 0.69277 0.62612 0.8591 0.0
H283 H 0.70436 0.70537 0.83542 0.0
H284 H 0.65968 0.71227 0.84358 0.0
H285 H 0.67693 0.67998 0.86803 0.0
H286 H 0.60078 0.60564 0.80915 0.0
H287 H 0.60804 0.63525 0.84902 0.0
H288 H 0.57949 0.64022 0.80481 0.0
H289 H 0.74205 0.7142 0.63841 0.0
H290 H 0.67768 0.78942 0.61509 0.0
H291 H 0.63076 0.75992 0.65424 0.0
H292 H 0.65869 0.64146 0.64151 0.0
H293 H 0.70698 0.63628 0.66023 0.0
H294 H 0.66328 0.61966 0.68214 0.0
H295 H 0.75195 0.72166 0.72122 0.0
H296 H 0.74637 0.67857 0.73645 0.0
H297 H 0.76138 0.6886 0.6936 0.0
H298 H 0.74774 0.59444 0.77607 0.0
C299 C 0.70393 0.6204 0.75718 0.0
C300 C 0.82402 0.13485 0.44442 0.0
C301 C 0.84338 0.11616 0.42545 0.0
C302 C 0.83616 0.11453 0.38687 0.0
C303 C 0.78822 0.14645 0.38598 0.0
C304 C 0.79668 0.15015 0.42399 0.0
C305 C 0.77375 0.17218 0.43835 0.0
H306 H 0.6201 0.24461 0.39546 0.0
C307 C 0.75585 0.16169 0.37244 0.0
C308 C 0.74655 0.17677 0.40282 0.0
H309 H 0.70391 0.26074 0.5002 0.0
H310 H 0.73642 0.22153 0.47654 0.0
H311 H 0.60276 0.16252 0.378 0.0
H312 H 0.68875 0.25885 0.34808 0.0
H313 H 0.66478 0.22872 0.30815 0.0
H314 H 0.63372 0.24417 0.3327 0.0
H315 H 0.58843 0.18438 0.33853 0.0
H316 H 0.61072 0.14955 0.3354 0.0
C317 C 0.74799 0.15031 0.46489 0.0
C318 C 0.80589 0.20888 0.45644 0.0
C319 C 0.69118 0.14085 0.23607 0.0
C320 C 0.65273 0.14042 0.21657 0.0
C321 C 0.62787 0.15286 0.23497 0.0
C322 C 0.64098 0.16534 0.27229 0.0
C323 C 0.67882 0.16431 0.29179 0.0
C324 C 0.70268 0.15137 0.27382 0.0
C325 C 0.73785 0.14599 0.3 0.0
C326 C 0.73234 0.15968 0.33648 0.0
C327 C 0.69852 0.17128 0.33126 0.0
C328 C 0.73107 0.10473 0.29776 0.0
C329 C 0.77863 0.1704 0.29009 0.0
C330 C 0.64524 0.23943 0.41341 0.0
C331 C 0.65939 0.25551 0.44955 0.0
C332 C 0.69243 0.24844 0.47217 0.0
C333 C 0.71151 0.22613 0.45828 0.0
C334 C 0.69793 0.21149 0.42125 0.0
C335 C 0.66516 0.21843 0.39973 0.0
C336 C 0.65581 0.20326 0.3606 0.0
C337 C 0.6894 0.18736 0.36135 0.0
C338 C 0.71371 0.1911 0.39701 0.0
C339 C 0.61215 0.17355 0.35242 0.0
C340 C 0.66073 0.23518 0.33583 0.0
H341 H 0.80482 0.12713 0.33782 0.0
H342 H 0.82999 0.13728 0.47419 0.0
H343 H 0.82985 0.21958 0.4398 0.0
H344 H 0.79226 0.23008 0.4583 0.0
H345 H 0.8217 0.20587 0.48441 0.0
H346 H 0.72848 0.12272 0.45171 0.0
H347 H 0.76833 0.14731 0.49045 0.0
H348 H 0.72707 0.16322 0.47272 0.0
H349 H 0.71041 0.13056 0.22276 0.0
H350 H 0.59796 0.15236 0.22049 0.0
H351 H 0.6207 0.17456 0.28464 0.0
H352 H 0.6986 0.08779 0.2853 0.0
H353 H 0.75092 0.09819 0.28085 0.0
H354 H 0.73666 0.09472 0.32519 0.0
H355 H 0.77709 0.19741 0.2834 0.0
H356 H 0.80556 0.17614 0.31307 0.0
H357 H 0.78474 0.158 0.26572 0.0
H358 H 0.85135 0.10102 0.37189 0.0
C359 C 0.80894 0.12959 0.36715 0.0
C360 C 0.48601 0.67217 0.32182 0.0
C361 C 0.45978 0.64406 0.33992 0.0
C362 C 0.41709 0.63739 0.32992 0.0
C363 C 0.42569 0.67699 0.28035 0.0
C364 C 0.46787 0.68944 0.29271 0.0
C365 C 0.48733 0.72236 0.27136 0.0
H366 H 0.44202 0.82259 0.12263 0.0
C367 C 0.41468 0.69511 0.24738 0.0
C368 C 0.45011 0.7238 0.24212 0.0
H369 H 0.55992 0.85538 0.19726 0.0
H370 H 0.53458 0.80118 0.23158 0.0
H371 H 0.38653 0.80184 0.1775 0.0
H372 H 0.43653 0.74355 0.1131 0.0
H373 H 0.38848 0.71159 0.11494 0.0
H374 H 0.39115 0.7534 0.09436 0.0
H375 H 0.3675 0.78957 0.12904 0.0
H376 H 0.34604 0.76061 0.16264 0.0
C377 C 0.50566 0.75677 0.29825 0.0
C378 C 0.52018 0.71606 0.25298 0.0
C379 C 0.27536 0.62968 0.16083 0.0
C380 C 0.25697 0.6379 0.12671 0.0
C381 C 0.27717 0.66998 0.11201 0.0
C382 C 0.31548 0.69367 0.13068 0.0
C383 C 0.3343 0.68526 0.16454 0.0
C384 C 0.31414 0.65393 0.17933 0.0
C385 C 0.33777 0.65104 0.21679 0.0
C386 C 0.37728 0.68438 0.22034 0.0
C387 C 0.37448 0.70414 0.18979 0.0
C388 C 0.31193 0.65383 0.24558 0.0
C389 C 0.34617 0.61498 0.21555 0.0
C390 C 0.46268 0.81884 0.14655 0.0
C391 C 0.5027 0.84399 0.15696 0.0
C392 C 0.52847 0.83689 0.18837 0.0
C393 C 0.5138 0.80561 0.20841 0.0
C394 C 0.47285 0.78084 0.19723 0.0
C395 C 0.44891 0.78837 0.1663 0.0
C396 C 0.40742 0.7601 0.15538 0.0
C397 C 0.40794 0.73529 0.18587 0.0
C398 C 0.4463 0.74609 0.21128 0.0
C399 C 0.37496 0.77874 0.15581 0.0
C400 C 0.40536 0.74121 0.11746 0.0
H401 H 0.36754 0.64552 0.29429 0.0
H402 H 0.5192 0.67999 0.32964 0.0
H403 H 0.50656 0.69062 0.23432 0.0
H404 H 0.53293 0.73886 0.23652 0.0
H405 H 0.54597 0.71376 0.27402 0.0
H406 H 0.48166 0.76046 0.31189 0.0
H407 H 0.53114 0.75484 0.31993 0.0
H408 H 0.51799 0.78125 0.28394 0.0
H409 H 0.25958 0.60541 0.17293 0.0
H410 H 0.26302 0.67679 0.08596 0.0
H411 H 0.32854 0.71775 0.1178 0.0
H412 H 0.28396 0.66013 0.23343 0.0
H413 H 0.30096 0.62798 0.25848 0.0
H414 H 0.32977 0.67614 0.26748 0.0
H415 H 0.36282 0.61372 0.19323 0.0
H416 H 0.36501 0.61134 0.24141 0.0
H417 H 0.31678 0.59141 0.21022 0.0
H418 H 0.39597 0.61818 0.34394 0.0
C419 C 0.40027 0.65309 0.30058 0.0
C420 C 0.09975 0.24332 0.67701 0.0
C421 C 0.1135 0.22543 0.65054 0.0
C422 C 0.1505 0.24592 0.64043 0.0
C423 C 0.15788 0.30021 0.67867 0.0
C424 C 0.12294 0.28074 0.69109 0.0
C425 C 0.1155 0.3052 0.71999 0.0
H426 H 0.17622 0.4736 0.82356 0.0
C427 C 0.17459 0.33871 0.69615 0.0
C428 C 0.15062 0.3425 0.72137 0.0
H429 H 0.07365 0.37661 0.82969 0.0
H430 H 0.0902 0.34565 0.78125 0.0
H431 H 0.16143 0.46217 0.72331 0.0
H432 H 0.2473 0.43177 0.80511 0.0
H433 H 0.26826 0.46246 0.77291 0.0
H434 H 0.24671 0.47736 0.80763 0.0
H435 H 0.1965 0.49521 0.75956 0.0
H436 H 0.2151 0.4811 0.7222 0.0
C437 C 0.07271 0.30809 0.70646 0.0
C438 C 0.11942 0.28846 0.75705 0.0
C439 C 0.29359 0.42074 0.64386 0.0
C440 C 0.32018 0.45722 0.64852 0.0
C441 C 0.31345 0.47942 0.67597 0.0
C442 C 0.28168 0.46546 0.69715 0.0
C443 C 0.25541 0.42841 0.6917 0.0
C444 C 0.26275 0.40741 0.66512 0.0
C445 C 0.235 0.36885 0.6621 0.0
C446 C 0.20786 0.36917 0.68942 0.0
C447 C 0.21905 0.40396 0.70828 0.0
C448 C 0.20987 0.35931 0.62172 0.0
C449 C 0.26298 0.34616 0.67471 0.0
C450 C 0.1571 0.44566 0.81474 0.0
C451 C 0.12301 0.42824 0.83273 0.0
C452 C 0.10002 0.39161 0.81837 0.0
C453 C 0.10986 0.37323 0.78973 0.0
C454 C 0.14365 0.39051 0.773 0.0
C455 C 0.16657 0.42665 0.78519 0.0
C456 C 0.2006 0.44094 0.76248 0.0
C457 C 0.19537 0.40779 0.73607 0.0
C458 C 0.16125 0.37752 0.7425 0.0
C459 C 0.19312 0.47169 0.74065 0.0
C460 C 0.24322 0.45396 0.78849 0.0
H461 H 0.19887 0.29508 0.64294 0.0
H462 H 0.07175 0.22874 0.68623 0.0
H463 H 0.14834 0.28217 0.76316 0.0
H464 H 0.1209 0.30698 0.78028 0.0
H465 H 0.09305 0.2628 0.75632 0.0
H466 H 0.0694 0.31559 0.67763 0.0
H467 H 0.04784 0.28177 0.70721 0.0
H468 H 0.06782 0.32918 0.72304 0.0
H469 H 0.297 0.40223 0.62382 0.0
H470 H 0.33301 0.5077 0.68127 0.0
H471 H 0.2786 0.48376 0.7174 0.0
H472 H 0.20509 0.38354 0.60952 0.0
H473 H 0.226 0.34862 0.6039 0.0
H474 H 0.17824 0.3397 0.61934 0.0
H475 H 0.29155 0.36234 0.69485 0.0
H476 H 0.24807 0.32285 0.68965 0.0
H477 H 0.27272 0.33628 0.65107 0.0
H478 H 0.16266 0.23377 0.62104 0.0
C479 C 0.17199 0.28229 0.65369 0.0
Pr480 Pr 1.00156 1.00294 0.538 0.0
Pr481 Pr 0.04912 0.03281 0.49527 0.0
C482 C 0.9562 0.95991 0.58187 0.0
C483 C 0.91934 0.92723 0.58048 0.0
C484 C 0.88622 0.93062 0.5942 0.0
C485 C 0.85228 0.90003 0.59621 0.0
C486 C 0.85089 0.86546 0.58464 0.0
C487 C 0.88324 0.86189 0.56977 0.0
C488 C 0.91731 0.89264 0.56763 0.0
C489 C 0.04387 0.0772 0.56881 0.0
C490 C 0.0905 0.99222 0.5521 0.0
C491 C 0.09593 0.07628 0.45259 0.0
C492 C 0.1323 0.10965 0.45891 0.0
C493 C 0.14846 0.12511 0.42898 0.0
C494 C 0.18403 0.15608 0.43479 0.0
C495 C 0.20376 0.17191 0.4706 0.0
C496 C 0.18741 0.15667 0.50061 0.0
C497 C 0.15181 0.12563 0.49479 0.0
C498 C 1.00801 0.95809 0.46539 0.0
C499 C 0.95965 0.04437 0.48207 0.0
O500 O 0.94987 0.98859 0.56934 0.0
O501 O 0.98911 0.95604 0.57405 0.0
O502 O 0.0612 0.05714 0.55625 0.0
O503 O 1.0051 0.05904 0.56527 0.0
O504 O 0.10097 0.02424 0.53958 0.0
O505 O 0.05106 0.97445 0.54939 0.0
O506 O 0.10206 0.04762 0.46539 0.0
O507 O 0.06195 0.07926 0.45868 0.0
O508 O 0.99013 0.97833 0.47693 0.0
O509 O 0.04697 0.97634 0.47022 0.0
O510 O 0.9491 1.01346 0.49674 0.0
O511 O 0.99885 0.06076 0.4819 0.0
H512 H 0.88713 0.95692 0.6044 0.0
H513 H 0.82774 0.90316 0.60812 0.0
H514 H 0.88278 0.83529 0.56114 0.0
H515 H 0.94241 0.88922 0.55687 0.0
H516 H 0.13381 0.11302 0.40117 0.0
H517 H 0.19639 0.16757 0.4114 0.0
H518 H 0.20239 0.1686 0.5284 0.0
H519 H 0.13974 0.11386 0.51821 0.0
Pr520 Pr 0.49223 0.01891 1.01495 0.0
Pr521 Pr 0.56219 1.01226 1.0044 0.0
C522 C 0.43324 0.02906 0.04607 0.0
C523 C 0.4337 0.05703 0.07304 0.0
C524 C 0.46006 0.09318 0.07383 0.0
C525 C 0.46129 0.11939 0.10029 0.0
C526 C 0.43652 0.10969 0.12651 0.0
C527 C 0.41065 0.07348 0.12609 0.0
C528 C 0.40921 0.04731 0.09945 0.0
C529 C 0.51878 0.06587 0.95975 0.0
C530 C 0.57985 0.06986 0.07012 0.0
C531 C 0.61909 1.00096 0.97173 0.0
C532 C 0.61688 0.96804 0.95081 0.0
C533 C 0.5946 0.93361 0.96039 0.0
C534 C 0.58839 0.90241 0.9382 0.0
C535 C 0.60391 0.90523 0.90591 0.0
C536 C 0.62604 0.93956 0.89619 0.0
C537 C 0.63251 0.97081 0.91856 0.0
C538 C 0.53459 0.96527 0.05899 0.0
C539 C 0.47571 0.95791 0.95058 0.0
O540 O 0.45346 1.00805 0.05858 0.0
O541 O 0.43927 0.03931 1.01385 0.0
O542 O 0.54232 0.06259 0.98939 0.0
O543 O 0.48166 0.04329 0.95804 0.0
O544 O 0.59794 0.06371 0.04442 0.0
O545 O 0.54018 0.05279 0.06727 0.0
O546 O 0.59362 0.01646 0.9561 0.0
O547 O 0.62048 0.99925 1.00703 0.0
O548 O 0.51148 0.96843 0.02913 0.0
O549 O 0.57193 0.98747 0.06116 0.0
O550 O 0.4561 0.96986 0.97151 0.0
O551 O 0.51602 0.97007 0.95753 0.0
H552 H 0.47968 0.10113 0.054 0.0
H553 H 0.48138 0.14722 0.10026 0.0
H554 H 0.39133 0.06564 0.14617 0.0
H555 H 0.38911 0.01949 0.09951 0.0
H556 H 0.58131 0.93086 0.98466 0.0
H557 H 0.57126 0.8761 0.94603 0.0
H558 H 0.63823 0.94208 0.87132 0.0
H559 H 0.64897 0.99715 0.91033 0.0
Pr560 Pr 0.54443 0.55526 0.54121 0.0
Pr561 Pr 0.50141 0.48168 0.48943 0.0
C562 C 0.55736 0.62337 0.56847 0.0
C563 C 0.53132 0.64621 0.56379 0.0
C564 C 0.53778 0.67398 0.59097 0.0
C565 C 0.51004 0.69268 0.5891 0.0
C566 C 0.47534 0.68385 0.56007 0.0
C567 C 0.4696 0.65683 0.53225 0.0
C568 C 0.49724 0.63802 0.53421 0.0
C569 C 0.56156 0.49794 0.57984 0.0
C570 C 0.44862 0.49884 0.55195 0.0
C571 C 0.48806 0.41245 0.46538 0.0
C572 C 0.51451 0.38997 0.46823 0.0
C573 C 0.49711 0.35236 0.45901 0.0
C574 C 0.52248 0.33141 0.45979 0.0
C575 C 0.56566 0.34769 0.47044 0.0
C576 C 0.58284 0.38516 0.48102 0.0
C577 C 0.55754 0.40613 0.47945 0.0
C578 C 0.48301 0.53811 0.44943 0.0
C579 C 0.59725 0.53796 0.47886 0.0
O580 O 0.57107 0.61653 0.53985 0.0
O581 O 0.54396 0.59477 0.58607 0.0
O582 O 0.54174 0.49654 0.54721 0.0
O583 O 0.57756 0.53201 0.59247 0.0
O584 O 0.44985 0.47493 0.5265 0.0
O585 O 0.47795 0.53166 0.55842 0.0
O586 O 0.47891 0.42112 0.49593 0.0
O587 O 0.49753 0.43966 0.44512 0.0
O588 O 0.50395 0.54115 0.48224 0.0
O589 O 0.46802 0.50359 0.43834 0.0
O590 O 0.59622 0.56201 0.50429 0.0
O591 O 0.56772 0.50525 0.47212 0.0
H592 H 0.5636 0.68049 0.61419 0.0
H593 H 0.51505 0.71344 0.61081 0.0
H594 H 0.44309 0.64961 0.50964 0.0
H595 H 0.49133 0.61636 0.51318 0.0
H596 H 0.46397 0.33935 0.45064 0.0
H597 H 0.5085 0.30259 0.45154 0.0
H598 H 0.61597 0.39834 0.48935 0.0
H599 H 0.57163 0.43513 0.48642 0.0
Pr600 Pr 1.01691 0.54451 0.99401 0.0
Pr601 Pr 0.03027 0.48842 0.04039 0.0
C602 C 0.98514 0.58481 0.94847 0.0
C603 C 0.94537 0.58978 0.93725 0.0
C604 C 0.91349 0.57535 0.95641 0.0
C605 C 0.8743 0.57697 0.94287 0.0
C606 C 0.86666 0.59248 0.90977 0.0
C607 C 0.89876 0.6072 0.89101 0.0
C608 C 0.93784 0.60584 0.90466 0.0
C609 C 0.09928 0.56317 0.03131 0.0
C610 C 0.98592 0.54335 0.07758 0.0
C611 C 0.05625 0.45089 0.09378 0.0
C612 C 0.09498 0.44499 0.10804 0.0
C613 C 0.09753 0.42386 0.13767 0.0
C614 C 0.13462 0.41889 0.15216 0.0
C615 C 0.16957 0.43507 0.13721 0.0
C616 C 0.16708 0.45628 0.10751 0.0
C617 C 0.12992 0.46131 0.09304 0.0
C618 C 0.95548 0.46356 0.98911 0.0
C619 C 0.06037 0.48929 0.9577 0.0
O620 O 0.98512 0.55284 0.93824 0.0
O621 O 1.00609 0.59715 0.98197 0.0
O622 O 0.06789 0.5485 0.04425 0.0
O623 O 0.0889 0.57146 0.99821 0.0
O624 O 0.99697 0.51391 0.08096 0.0
O625 O 0.99052 0.56016 0.04669 0.0
O626 O 0.05718 0.48394 0.09954 0.0
O627 O 0.03682 0.43626 0.06068 0.0
O628 O 0.97015 0.49348 1.00823 0.0
O629 O 0.97823 0.44394 0.9979 0.0
O630 O 0.03527 0.50839 0.94994 0.0
O631 O 0.0691 0.48295 0.99316 0.0
H632 H 0.91873 0.56228 0.98133 0.0
H633 H 0.84989 0.56572 0.95778 0.0
H634 H 0.89339 0.61946 0.86556 0.0
H635 H 0.96196 0.61661 0.88932 0.0
H636 H 0.07087 0.41128 0.14961 0.0
H637 H 0.13608 0.40225 0.17494 0.0
H638 H 0.19374 0.46873 0.09555 0.0
H639 H 0.1284 0.47791 0.07023 0.0
C640 C 0.31581 0.2303 0.47648 0.0
C641 C 0.30989 0.26274 0.46583 0.0
C642 C 0.24022 0.23951 0.47741 0.0
C643 C 0.24214 0.20409 0.47624 0.0
N644 N 0.28364 0.1659 0.48101 0.0
N645 N 0.28113 0.30342 0.48951 0.0
C646 C 0.2808 0.19954 0.47858 0.0
C647 C 0.2763 0.26943 0.47617 0.0
N648 N 0.35493 0.23013 0.48712 0.0
N649 N 0.20399 0.24455 0.47843 0.0
H650 H 0.30984 0.32428 0.49377 0.0
H651 H 0.25875 0.30938 0.50047 0.0
H652 H 0.17719 0.22327 0.4804 0.0
H653 H 0.2004 0.26965 0.47552 0.0
H654 H 0.36167 0.2082 0.49816 0.0
H655 H 0.38045 0.25375 0.488 0.0
H656 H 0.31016 0.1606 0.47871 0.0
H657 H 0.25876 0.14303 0.48373 0.0
C658 C 0.44416 0.91261 0.85265 0.0
C659 C 0.40565 0.88598 0.85396 0.0
C660 C 0.41788 0.9012 0.92029 0.0
C661 C 0.45287 0.93186 0.91778 0.0
N662 N 0.4963 0.96929 0.87929 0.0
N663 N 0.35389 0.85564 0.88792 0.0
C664 C 0.46562 0.93803 0.8835 0.0
C665 C 0.39192 0.88039 0.88751 0.0
N666 N 0.46025 0.9139 0.82174 0.0
N667 N 0.41058 0.89092 0.95399 0.0
H668 H 0.33493 0.83895 0.86462 0.0
H669 H 0.34019 0.85328 0.91069 0.0
H670 H 0.43023 0.90425 0.97862 0.0
H671 H 0.3877 0.86697 0.95755 0.0
H672 H 0.49059 0.92952 0.82105 0.0
H673 H 0.4448 0.89697 0.79769 0.0
H674 H 0.50267 0.97698 0.85379 0.0
H675 H 0.51307 0.98967 0.90018 0.0
C676 C 0.57531 0.41113 0.62175 0.0
C677 C 0.56405 0.41308 0.65645 0.0
C678 C 0.54236 0.46503 0.63653 0.0
C679 C 0.55904 0.46631 0.60416 0.0
N680 N 0.59398 0.44122 0.56745 0.0
N681 N 0.53808 0.4434 0.69726 0.0
C682 C 0.57556 0.43907 0.59692 0.0
C683 C 0.54743 0.44024 0.66361 0.0
N684 N 0.58599 0.38235 0.61264 0.0
N685 N 0.52055 0.48707 0.64107 0.0
H686 H 0.53918 0.42475 0.71668 0.0
H687 H 0.53128 0.46529 0.70668 0.0
H688 H 0.51555 0.50493 0.62192 0.0
H689 H 0.50382 0.48511 0.66169 0.0
H690 H 0.59093 0.37688 0.58676 0.0
H691 H 0.58614 0.36197 0.63021 0.0
H692 H 0.61072 0.42501 0.56245 0.0
H693 H 0.59501 0.46123 0.54927 0.0
C694 C 0.91738 0.5822 0.13141 0.0
C695 C 0.93725 0.58634 0.16964 0.0
C696 C 0.99012 0.56467 0.14748 0.0
C697 C 0.96872 0.55808 0.10949 0.0
N698 N 0.90657 0.55619 0.06808 0.0
N699 N 0.99069 0.57541 0.21296 0.0
C700 C 0.93097 0.56589 0.10249 0.0
C701 C 0.97303 0.57573 0.17702 0.0
N702 N 0.88567 0.59497 0.12221 0.0
N703 N 0.02861 0.56246 0.15552 0.0
H704 H 0.97985 0.58344 0.23471 0.0
H705 H 1.01343 0.5642 0.22127 0.0
H706 H 0.04257 0.55563 0.13554 0.0
H707 H 0.04838 0.57078 0.18117 0.0
H708 H 0.87273 0.59746 0.09524 0.0
H709 H 0.87425 0.60561 0.14192 0.0
H710 H 0.87683 0.55691 0.06135 0.0
H711 H 0.91465 0.54419 0.04691 0.0
C712 C 0.39829 0.17098 0.17856 0.0
C713 C 0.43436 0.19017 0.20531 0.0
C714 C 0.47091 0.15403 0.18266 0.0
C715 C 0.43625 0.13778 0.15352 0.0
N716 N 0.37006 0.13612 0.11936 0.0
N717 N 0.50689 0.204 0.22983 0.0
C718 C 0.4008 0.1478 0.1502 0.0
C719 C 0.47128 0.18282 0.20658 0.0
N720 N 0.3612 0.17378 0.18103 0.0
N721 N 0.50283 0.14116 0.18822 0.0
H722 H 0.50821 0.22531 0.24771 0.0
H723 H 0.53568 0.20241 0.22926 0.0
H724 H 0.50375 0.12017 0.17124 0.0
H725 H 0.52659 0.1491 0.21147 0.0
H726 H 0.33326 0.15745 0.16453 0.0
H727 H 0.35765 0.18978 0.20191 0.0
H728 H 0.34566 0.14578 0.11375 0.0
H729 H 0.37092 0.11942 0.09764 0.0
C730 C 0.18368 0.96028 0.56328 0.0
C731 C 0.17579 0.93641 0.59135 0.0
C732 C 0.11632 0.95373 0.59699 0.0
C733 C 0.12131 0.97452 0.56624 0.0
N734 N 0.15412 0.98876 0.51397 0.0
N735 N 0.12756 0.90315 0.62748 0.0
C736 C 0.15344 0.9754 0.54759 0.0
C737 C 0.13978 0.93081 0.60576 0.0
N738 N 0.22051 0.96965 0.55235 0.0
N739 N 0.09075 0.95715 0.61915 0.0
H740 H 0.14323 0.88505 0.63352 0.0
H741 H 0.09954 0.89586 0.63599 0.0
H742 H 0.07526 0.97558 0.61545 0.0
H743 H 0.0889 0.94494 0.64373 0.0
H744 H 0.22946 0.98995 0.53484 0.0
H745 H 0.2436 0.95953 0.56327 0.0
H746 H 0.17461 0.98674 0.49789 0.0
H747 H 0.13143 0.99798 0.50019 0.0
C748 C 0.87146 0.4159 0.90525 0.0
C749 C 0.83731 0.42281 0.9142 0.0
C750 C 0.88018 0.45669 0.97201 0.0
C751 C 0.91501 0.4508 0.96276 0.0
N752 N 0.94562 0.43268 0.91616 0.0
N753 N 0.81118 0.45761 0.95023 0.0
C754 C 0.91122 0.43276 0.92802 0.0
C755 C 0.84253 0.4461 0.94555 0.0
N756 N 0.86562 0.39224 0.87561 0.0
N757 N 0.88176 0.46954 1.00691 0.0
H758 H 0.78307 0.44985 0.93137 0.0
H759 H 0.81459 0.47759 0.9706 0.0
H760 H 0.90734 0.47485 0.02832 0.0
H761 H 0.85607 0.47106 1.01587 0.0
H762 H 0.88814 0.38233 0.87043 0.0
H763 H 0.83733 0.38089 0.85721 0.0
H764 H 0.94499 0.42338 0.88957 0.0
H765 H 0.97539 0.445 0.93163 0.0
C766 C 0.70443 0.56259 0.44746 0.0
C767 C 0.69377 0.56567 0.40869 0.0
C768 C 0.62039 0.551 0.41617 0.0
C769 C 0.63112 0.54833 0.45499 0.0
N770 N 0.68349 0.54769 0.50634 0.0
N771 N 0.64132 0.56715 0.35768 0.0
C772 C 0.67336 0.55343 0.47018 0.0
C773 C 0.65149 0.56061 0.39358 0.0
N774 N 0.74494 0.56911 0.46287 0.0
N775 N 0.57982 0.54402 0.40054 0.0
H776 H 0.66245 0.57357 0.34044 0.0
H777 H 0.61293 0.56858 0.3453 0.0
H778 H 0.55702 0.53991 0.41591 0.0
H779 H 0.56804 0.54055 0.37234 0.0
H780 H 0.75686 0.57188 0.49101 0.0
H781 H 0.76752 0.57313 0.44724 0.0
H782 H 0.71208 0.5471 0.51928 0.0
H783 H 0.66211 0.54134 0.52336 0.0
C784 C 0.27664 0.44589 0.19224 0.0
C785 C 0.27528 0.40958 0.18807 0.0
C786 C 0.20957 0.39325 0.1437 0.0
C787 C 0.20806 0.42799 0.1519 0.0
N788 N 0.2384 0.48716 0.18546 0.0
N789 N 0.23792 0.34718 0.16371 0.0
C790 C 0.24133 0.45447 0.17633 0.0
C791 C 0.24123 0.38287 0.16457 0.0
N792 N 0.31186 0.47209 0.21108 0.0
N793 N 0.18089 0.37034 0.11562 0.0
H794 H 0.26011 0.33805 0.17878 0.0
H795 H 0.21147 0.3261 0.15047 0.0
H796 H 0.1572 0.37714 0.09971 0.0
H797 H 0.18288 0.34617 0.10582 0.0
H798 H 0.31639 0.49968 0.21219 0.0
H799 H 0.33808 0.46646 0.22313 0.0
H800 H 0.25949 0.50608 0.20613 0.0
H801 H 0.21329 0.49456 0.17388 0.0
C802 C 0.54396 0.16397 0.92683 0.0
C803 C 0.53888 0.15781 0.88792 0.0
C804 C 0.51646 0.09162 0.89583 0.0
C805 C 0.52733 0.09798 0.93521 0.0
N806 N 0.55481 0.14275 0.98754 0.0
N807 N 0.52663 0.11455 0.83663 0.0
C808 C 0.54239 0.13494 0.95038 0.0
C809 C 0.5267 0.12125 0.87282 0.0
N810 N 0.54823 0.19756 0.94135 0.0
N811 N 0.49547 0.05714 0.87988 0.0
H812 H 0.53399 0.13505 0.81904 0.0
H813 H 0.52293 0.08908 0.82492 0.0
H814 H 0.48729 0.03478 0.89496 0.0
H815 H 0.4827 0.05117 0.85184 0.0
H816 H 0.54772 0.20328 0.96868 0.0
H817 H 0.54772 0.21884 0.92516 0.0
H818 H 0.57119 0.16889 1.00008 0.0
H819 H 0.55103 0.12289 1.00585 0.0
C820 C 0.9944 0.85989 0.42816 0.0
C821 C 0.95862 0.85005 0.39933 0.0
C822 C 0.95516 0.91173 0.41223 0.0
C823 C 0.98853 0.92013 0.44347 0.0
N824 N 0.03529 0.89808 0.48403 0.0
N825 N 0.90245 0.86627 0.36654 0.0
C826 C 1.007 0.89309 0.45187 0.0
C827 C 0.93841 0.876 0.39227 0.0
N828 N 1.01668 0.83731 0.43306 0.0
N829 N 0.94058 0.93842 0.4002 0.0
H830 H 0.89095 0.84194 0.34976 0.0
H831 H 0.88297 0.88132 0.36317 0.0
H832 H 0.952 0.96457 0.41331 0.0
H833 H 0.9197 0.93569 0.37547 0.0
H834 H 0.04558 0.8443 0.45045 0.0
H835 H 1.00799 0.81273 0.41716 0.0
H836 H 0.04672 0.8782 0.49418 0.0
H837 H 0.04435 0.92079 0.50273 0.0
C838 C 0.42821 0.75817 0.55892 0.0
C839 C 0.38967 0.73914 0.56817 0.0
C840 C 0.40584 0.68306 0.56949 0.0
C841 C 0.44425 0.702 0.55986 0.0
N842 N 0.48781 0.75498 0.5371 0.0
N843 N 0.3376 0.68236 0.57378 0.0
C844 C 0.45405 0.73878 0.55188 0.0
C845 C 0.37713 0.70112 0.57053 0.0
N846 N 0.44106 0.79507 0.55868 0.0
N847 N 0.3977 0.64846 0.57958 0.0
H848 H 0.31606 0.695 0.57461 0.0
H849 H 0.32507 0.65417 0.57219 0.0
H850 H 0.41783 0.63428 0.5793 0.0
H851 H 0.37245 0.63468 0.59087 0.0
H852 H 0.47084 0.81107 0.55676 0.0
H853 H 0.42258 0.81006 0.56261 0.0
H854 H 0.49446 0.7805 0.52723 0.0
H855 H 0.50731 0.74153 0.53169 0.0
C856 C 0.7852 0.80049 0.64051 0.0
C857 C 0.75029 0.78014 0.61304 0.0
C858 C 0.78245 0.81425 0.56548 0.0
C859 C 0.81797 0.83317 0.59289 0.0
N860 N 0.85746 0.83804 0.65449 0.0
N861 N 0.71788 0.76304 0.54913 0.0
C862 C 0.82071 0.82413 0.62975 0.0
C863 C 0.74961 0.78556 0.57534 0.0
N864 N 0.78366 0.79893 0.67699 0.0
N865 N 0.77959 0.82456 0.53045 0.0
H866 H 0.69337 0.74209 0.55573 0.0
H867 H 0.71735 0.76327 0.52104 0.0
H868 H 0.80355 0.84479 0.52226 0.0
H869 H 0.7528 0.81463 0.51012 0.0
H870 H 0.80644 0.81631 0.69785 0.0
H871 H 0.75798 0.78279 0.6865 0.0
H872 H 0.86241 0.82939 0.68072 0.0
H873 H 0.88424 0.85564 0.64762 0.0
C874 C 0.62199 0.14337 0.15006 0.0
C875 C 0.6369 0.12405 0.17787 0.0
C876 C 0.62601 0.07526 0.1313 0.0
C877 C 0.60423 0.09134 0.10512 0.0
N878 N 0.57509 0.13824 0.09203 0.0
N879 N 0.64103 0.06622 0.19556 0.0
C880 C 0.60025 0.12471 0.11518 0.0
C881 C 0.63572 0.08847 0.16873 0.0
N882 N 0.62947 0.17958 0.15647 0.0
N883 N 0.63733 0.04733 0.12079 0.0
H884 H 0.64451 0.07347 0.22343 0.0
H885 H 0.63669 0.03898 0.18974 0.0
H886 H 0.63313 0.03835 0.09335 0.0
H887 H 0.65565 0.03651 0.13898 0.0
H888 H 0.62202 0.19532 0.13595 0.0
H889 H 0.64703 0.19458 0.18112 0.0
H890 H 0.56796 0.16058 0.09976 0.0
H891 H 0.55858 0.12517 0.06638 0.0
C892 C 0.50012 0.6308 0.40232 0.0
C893 C 0.47269 0.61864 0.36733 0.0
C894 C 0.44786 0.55773 0.39037 0.0
C895 C 0.47904 0.56791 0.42336 0.0
N896 N 0.54216 0.61508 0.45446 0.0
N897 N 0.43128 0.5658 0.32561 0.0
C898 C 0.50729 0.60479 0.42762 0.0
C899 C 0.45041 0.58058 0.36067 0.0
N900 N 0.51858 0.66709 0.41226 0.0
N901 N 0.4138 0.52719 0.38769 0.0
H902 H 0.43388 0.58111 0.30296 0.0
H903 H 0.41716 0.53788 0.31894 0.0
H904 H 0.40716 0.51225 0.41 0.0
H905 H 0.38919 0.5201 0.36505 0.0
H906 H 0.53536 0.67755 0.43874 0.0
H907 H 0.51409 0.68655 0.39497 0.0
H908 H 0.5653 0.64046 0.45679 0.0
H909 H 0.55014 0.59699 0.47156 0.0
C910 C 0.10136 0.47927 0.86449 0.0
C911 C 0.11015 0.44608 0.86594 0.0
C912 C 0.08312 0.43963 0.92554 0.0
C913 C 0.07827 0.47456 0.92613 0.0
N914 N 0.09378 0.53055 0.897 0.0
N915 N 0.11782 0.40039 0.906 0.0
C916 C 0.09045 0.49496 0.89569 0.0
C917 C 0.10332 0.42813 0.89887 0.0
N918 N 0.10154 0.49561 0.83245 0.0
N919 N 0.06633 0.4158 0.94931 0.0
H920 H 0.13407 0.39224 0.88894 0.0
H921 H 0.11809 0.38852 0.93084 0.0
H922 H 0.04971 0.42154 0.96748 0.0
H923 H 0.06462 0.38883 0.94793 0.0
H924 H 0.091 0.51717 0.82759 0.0
H925 H 0.10834 0.48531 0.80942 0.0
H926 H 0.1064 0.54811 0.87828 0.0
H927 H 0.08854 0.5436 0.91918 0.0
C928 C 0.55374 0.8198 0.83896 0.0
C929 C 0.58816 0.80874 0.83944 0.0
C930 C 0.63186 0.85989 0.88436 0.0
C931 C 0.59812 0.87197 0.88289 0.0
N932 N 0.52834 0.86685 0.8559 0.0
N933 N 0.6614 0.82007 0.86167 0.0
C934 C 0.55928 0.85278 0.85945 0.0
C935 C 0.62734 0.82919 0.86157 0.0
N936 N 0.51572 0.79828 0.81966 0.0
N937 N 0.66883 0.87773 0.90772 0.0
H938 H 0.66187 0.79827 0.84556 0.0
H939 H 0.66187 0.79827 0.84556 0.0
H940 H 0.67379 0.90001 0.92596 0.0
H941 H 0.69433 0.86957 0.90942 0.0
H942 H 0.48846 0.8026 0.82093 0.0
H943 H 0.51102 0.77445 0.80387 0.0
H944 H 0.50061 0.85632 0.83679 0.0
H945 H 0.53139 0.89082 0.87057 0.0
C946 C 0.91131 0.11811 0.46461 0.0
C947 C 0.8712 0.09761 0.4446 0.0
C948 C 0.88966 0.04256 0.44693 0.0
C949 C 0.92874 0.06247 0.46953 0.0
N950 N 0.97117 0.11753 0.50821 0.0
N951 N 0.81903 0.03895 0.42421 0.0
C952 C 0.93801 0.0998 0.48074 0.0
C953 C 0.85939 0.05935 0.43826 0.0
N954 N 0.9247 0.15516 0.46717 0.0
N955 N 0.88206 1.00835 0.4319 0.0
H956 H 0.79605 0.05034 0.41805 0.0
H957 H 0.80779 1.0107 0.42225 0.0
H958 H 0.90388 0.99562 0.436 0.0
H959 H 0.85569 0.99407 0.41225 0.0
H960 H 0.95531 0.17138 0.47767 0.0
H961 H 0.90617 0.16971 0.45602 0.0
H962 H 0.97699 0.14356 0.51984 0.0
H963 H 0.99009 0.10482 0.52239 0.0
C964 C 0.21303 0.58939 0.07657 0.0
C965 C 0.21584 0.61428 0.10593 0.0
C966 C 0.14368 0.60823 0.08399 0.0
C967 C 0.1401 0.58198 0.05558 0.0
N968 N 0.16929 0.54426 0.02677 0.0
N969 N 0.18282 0.64228 0.14215 0.0
C970 C 0.17422 0.57158 0.05241 0.0
C971 C 0.18069 0.6219 0.11115 0.0
N972 N 0.24783 0.58372 0.07123 0.0
N973 N 0.11256 0.62165 0.08379 0.0
H974 H 0.20973 0.65318 0.16234 0.0
H975 H 0.15717 0.64563 0.14956 0.0
H976 H 0.08566 0.61363 0.06342 0.0
H977 H 0.11498 0.64338 0.10156 0.0
H978 H 0.2492 0.56944 0.04796 0.0
H979 H 0.27621 0.59484 0.08956 0.0
H980 H 0.19125 0.5322 0.02592 0.0
H981 H 0.14209 0.53223 1.00725 0.0
C982 C 0.38453 0.45279 0.626 0.0
C983 C 0.35469 0.47021 0.62516 0.0
C984 C 0.38798 0.50832 0.57797 0.0
C985 C 0.41488 0.4882 0.57611 0.0
N986 N 0.43375 0.43731 0.59693 0.0
N987 N 0.32543 0.51179 0.59483 0.0
C988 C 0.41131 0.45919 0.59956 0.0
C989 C 0.35609 0.49744 0.59979 0.0
N990 N 0.38917 0.43132 0.65377 0.0
N991 N 0.39255 0.53808 0.55856 0.0
H992 H 0.30182 0.50455 0.60948 0.0
H993 H 0.32131 0.52845 0.57412 0.0
H994 H 0.41257 0.54526 0.54036 0.0
H995 H 0.37835 0.55682 0.5621 0.0
H996 H 0.41309 0.42106 0.65905 0.0
H997 H 0.37181 0.42702 0.67417 0.0
H998 H 0.42886 0.41306 0.60926 0.0
H999 H 0.45561 0.44204 0.58053 0.0
C1000 C 0.75656 0.5684 0.85504 0.0
C1001 C 0.75623 0.60392 0.84987 0.0
C1002 C 0.82167 0.62931 0.89458 0.0
C1003 C 0.8256 0.59472 0.89444 0.0
N1004 N 0.79765 0.53083 0.87421 0.0
N1005 N 0.79083 0.66897 0.86175 0.0
C1006 C 0.79298 0.56391 0.87505 0.0
C1007 C 0.7891 0.63464 0.86928 0.0
N1008 N 0.72203 0.53915 0.84084 0.0
N1009 N 0.84934 0.6571 0.91889 0.0
H1010 H 0.76824 0.67452 0.84289 0.0
H1011 H 0.81651 0.69204 0.87189 0.0
H1012 H 0.87352 0.65385 0.93787 0.0
H1013 H 0.84588 0.68208 0.92277 0.0
H1014 H 0.71882 0.51261 0.84648 0.0
H1015 H 0.69508 0.54185 0.82602 0.0
H1016 H 0.77701 0.50821 0.85727 0.0
H1017 H 0.82354 0.5264 0.88901 0.0
C1018 C 0.5155 0.86954 0.09532 0.0
C1019 C 0.51559 0.8762 0.13329 0.0
C1020 C 0.52955 0.94138 0.12262 0.0
C1021 C 0.52514 0.93395 0.08392 0.0
N1022 N 0.51051 0.88919 0.03327 0.0
N1023 N 0.51723 0.91859 0.18152 0.0
C1024 C 0.51692 0.89745 0.0703 0.0
C1025 C 0.52145 0.91227 0.14649 0.0
N1026 N 0.5158 0.83659 0.08336 0.0
N1027 N 0.54177 0.9766 0.13689 0.0
H1028 H 0.51188 0.89851 0.19977 0.0
H1029 H 0.51598 0.94294 0.19166 0.0
H1030 H 0.54535 0.99831 0.12058 0.0
H1031 H 0.55084 0.98457 0.16499 0.0
H1032 H 0.52001 0.83064 0.05733 0.0
H1033 H 0.5159 0.81613 0.10081 0.0
H1034 H 0.49937 0.86277 0.0209 0.0
H1035 H 0.5136 0.90866 1.01435 0.0
C1036 C 0.08645 0.15459 0.65006 0.0
C1037 C 0.09111 0.1865 0.63098 0.0
C1038 C 0.07296 0.14693 0.5722 0.0
C1039 C 0.06463 0.11477 0.59088 0.0
N1040 N 0.05841 0.08845 0.64836 0.0
N1041 N 0.07859 0.21029 0.5724 0.0
C1042 C 0.06974 0.11886 0.63004 0.0
C1043 C 0.08138 0.18166 0.5916 0.0
N1044 N 0.09977 0.15827 0.68736 0.0
N1045 N 0.07351 0.14453 0.53563 0.0
H1046 H 0.08276 0.23543 0.58536 0.0
H1047 H 0.06774 0.20801 0.54405 0.0
H1048 H 0.06749 0.1199 0.52075 0.0
H1049 H 0.08364 0.16709 0.52104 0.0
H1050 H 0.10183 0.13684 0.70267 0.0
H1051 H 0.11168 0.18338 0.70275 0.0
H1052 H 0.05651 0.08908 0.67597 0.0
H1053 H 0.04851 0.06233 0.63525 0.0
C1054 C 0.64706 0.31429 0.44268 0.0
C1055 C 0.64127 0.28223 0.46114 0.0
C1056 C 0.59216 0.29742 0.4916 0.0
C1057 C 0.593 0.32596 0.46848 0.0
N1058 N 0.61685 0.35766 0.4174 0.0
N1059 N 0.60549 0.24126 0.50108 0.0
C1060 C 0.61954 0.33357 0.44296 0.0
C1061 C 0.61329 0.27336 0.48534 0.0
N1062 N 0.6791 0.32635 0.42487 0.0
N1063 N 0.57198 0.2938 0.52006 0.0
H1064 H 0.62083 0.22335 0.49762 0.0
H1065 H 0.58193 0.2313 0.5155 0.0
H1066 H 0.55676 0.31121 0.52572 0.0
H1067 H 0.57358 0.27579 0.54 0.0
H1068 H 0.68729 0.35135 0.41386 0.0
H1069 H 0.70011 0.31305 0.42452 0.0
H1070 H 0.63231 0.36128 0.3957 0.0
H1071 H 0.59605 0.37141 0.4155 0.0
loop_
_geom_bond_atom_site_label_1
_geom_bond_atom_site_label_2
_geom_bond_distance
_geom_bond_site_symmetry_2
_ccdc_geom_bond_type
C0 C1 1.391 . S
C0 C4 1.391 . S
C0 H42 0.948 . S
C1 C0 1.391 . S
C1 C2 1.391 . S
C2 C1 1.391 . S
C2 H58 0.947 . S
C2 C59 1.392 . S
C3 C4 1.391 . S
C3 C7 1.397 . S
C3 C59 1.419 . S
C4 C0 1.391 . S
C4 C3 1.391 . S
C4 C5 1.399 . S
C5 C4 1.399 . S
C5 C8 1.396 . S
C5 C17 1.453 . S
C5 C18 1.684 . S
H6 C30 0.948 . S
C7 C3 1.397 . S
C7 C8 1.394 . S
C7 C26 1.723 . S
C8 C5 1.396 . S
C8 C7 1.394 . S
C8 C38 1.723 . S
H9 C32 0.947 . S
H10 C33 0.948 . S
H11 C39 0.982 . S
H12 C40 0.979 . S
H13 C40 0.980 . S
H14 C40 0.983 . S
H15 C39 0.979 . S
H16 C39 0.977 . S
C17 C5 1.453 . S
C17 H46 0.982 . S
C17 H47 0.979 . S
C17 H48 0.977 . S
C18 C5 1.684 . S
C18 H43 0.979 . S
C18 H44 0.980 . S
C18 H45 0.983 . S
C19 C20 1.391 . S
C19 C24 1.391 . S
C19 H49 0.948 . S
C20 C19 1.391 . S
C20 C21 1.391 . S
C21 C20 1.391 . S
C21 C22 1.392 . S
C21 H50 0.947 . S
C22 C21 1.392 . S
C22 C23 1.419 . S
C22 H51 0.948 . S
C23 C22 1.419 . S
C23 C24 1.391 . S
C23 C27 1.397 . S
C24 C19 1.391 . S
C24 C23 1.391 . S
C24 C25 1.399 . S
C25 C24 1.399 . S
C25 C26 1.396 . S
C25 C28 1.453 . S
C25 C29 1.684 . S
C26 C7 1.723 . S
C26 C25 1.396 . S
C26 C27 1.394 . S
C27 C23 1.397 . S
C27 C26 1.394 . S
C27 C37 1.723 . S
C28 C25 1.453 . S
C28 H52 0.982 . S
C28 H53 0.979 . S
C28 H54 0.977 . S
C29 C25 1.684 . S
C29 H55 0.979 . S
C29 H56 0.980 . S
C29 H57 0.983 . S
C30 H6 0.948 . S
C30 C31 1.391 . S
C30 C35 1.391 . S
C31 C30 1.391 . S
C31 C32 1.391 . S
C32 H9 0.947 . S
C32 C31 1.391 . S
C32 C33 1.392 . S
C33 H10 0.948 . S
C33 C32 1.392 . S
C33 C34 1.419 . S
C34 C33 1.419 . S
C34 C35 1.391 . S
C34 C38 1.397 . S
C35 C30 1.391 . S
C35 C34 1.391 . S
C35 C36 1.399 . S
C36 C35 1.399 . S
C36 C37 1.396 . S
C36 C39 1.453 . S
C36 C40 1.684 . S
C37 C27 1.723 . S
C37 C36 1.396 . S
C37 C38 1.394 . S
C38 C8 1.723 . S
C38 C34 1.397 . S
C38 C37 1.394 . S
C39 H11 0.982 . S
C39 H15 0.979 . S
C39 H16 0.977 . S
C39 C36 1.453 . S
C40 H12 0.979 . S
C40 H13 0.980 . S
C40 H14 0.983 . S
C40 C36 1.684 . S
H41 C59 0.948 . S
H42 C0 0.948 . S
H43 C18 0.979 . S
H44 C18 0.980 . S
H45 C18 0.983 . S
H46 C17 0.982 . S
H47 C17 0.979 . S
H48 C17 0.977 . S
H49 C19 0.948 . S
H50 C21 0.947 . S
H51 C22 0.948 . S
H52 C28 0.982 . S
H53 C28 0.979 . S
H54 C28 0.977 . S
H55 C29 0.979 . S
H56 C29 0.980 . S
H57 C29 0.983 . S
H58 C2 0.947 . S
C59 C2 1.392 . S
C59 C3 1.419 . S
C59 H41 0.948 . S
C60 C61 1.391 . S
C60 C64 1.391 . S
C60 H102 0.948 . S
C61 C60 1.391 . S
C61 C62 1.391 . S
C62 C61 1.391 . S
C62 H118 0.947 . S
C62 C119 1.392 . S
C63 C64 1.391 . S
C63 C67 1.397 . S
C63 C119 1.419 . S
C64 C60 1.391 . S
C64 C63 1.391 . S
C64 C65 1.399 . S
C65 C64 1.399 . S
C65 C68 1.396 . S
C65 C77 1.453 . S
C65 C78 1.684 . S
H66 C90 0.948 . S
C67 C63 1.397 . S
C67 C68 1.394 . S
C67 C86 1.723 . S
C68 C65 1.396 . S
C68 C67 1.394 . S
C68 C98 1.723 . S
H69 C92 0.947 . S
H70 C93 0.948 . S
H71 C99 0.982 . S
H72 C100 0.979 . S
H73 C100 0.980 . S
H74 C100 0.983 . S
H75 C99 0.979 . S
H76 C99 0.977 . S
C77 C65 1.453 . S
C77 H106 0.982 . S
C77 H107 0.979 . S
C77 H108 0.977 . S
C78 C65 1.684 . S
C78 H103 0.979 . S
C78 H104 0.980 . S
C78 H105 0.983 . S
C79 C80 1.391 . S
C79 C84 1.391 . S
C79 H109 0.948 . S
C80 C79 1.391 . S
C80 C81 1.391 . S
C81 C80 1.391 . S
C81 C82 1.392 . S
C81 H110 0.947 . S
C82 C81 1.392 . S
C82 C83 1.419 . S
C82 H111 0.948 . S
C83 C82 1.419 . S
C83 C84 1.391 . S
C83 C87 1.397 . S
C84 C79 1.391 . S
C84 C83 1.391 . S
C84 C85 1.399 . S
C85 C84 1.399 . S
C85 C86 1.396 . S
C85 C88 1.453 . S
C85 C89 1.684 . S
C86 C67 1.723 . S
C86 C85 1.396 . S
C86 C87 1.394 . S
C87 C83 1.397 . S
C87 C86 1.394 . S
C87 C97 1.723 . S
C88 C85 1.453 . S
C88 H112 0.982 . S
C88 H113 0.979 . S
C88 H114 0.977 . S
C89 C85 1.684 . S
C89 H115 0.979 . S
C89 H116 0.980 . S
C89 H117 0.983 . S
C90 H66 0.948 . S
C90 C91 1.391 . S
C90 C95 1.391 . S
C91 C90 1.391 . S
C91 C92 1.391 . S
C92 H69 0.947 . S
C92 C91 1.391 . S
C92 C93 1.392 . S
C93 H70 0.948 . S
C93 C92 1.392 . S
C93 C94 1.419 . S
C94 C93 1.419 . S
C94 C95 1.391 . S
C94 C98 1.397 . S
C95 C90 1.391 . S
C95 C94 1.391 . S
C95 C96 1.399 . S
C96 C95 1.399 . S
C96 C97 1.396 . S
C96 C99 1.453 . S
C96 C100 1.684 . S
C97 C87 1.723 . S
C97 C96 1.396 . S
C97 C98 1.394 . S
C98 C68 1.723 . S
C98 C94 1.397 . S
C98 C97 1.394 . S
C99 H71 0.982 . S
C99 H75 0.979 . S
C99 H76 0.977 . S
C99 C96 1.453 . S
C100 H72 0.979 . S
C100 H73 0.980 . S
C100 H74 0.983 . S
C100 C96 1.684 . S
H101 C119 0.948 . S
H102 C60 0.948 . S
H103 C78 0.979 . S
H104 C78 0.980 . S
H105 C78 0.983 . S
H106 C77 0.982 . S
H107 C77 0.979 . S
H108 C77 0.977 . S
H109 C79 0.948 . S
H110 C81 0.947 . S
H111 C82 0.948 . S
H112 C88 0.982 . S
H113 C88 0.979 . S
H114 C88 0.977 . S
H115 C89 0.979 . S
H116 C89 0.980 . S
H117 C89 0.983 . S
H118 C62 0.947 . S
C119 C62 1.392 . S
C119 C63 1.419 . S
C119 H101 0.948 . S
C120 C121 1.391 . S
C120 C124 1.391 . S
C120 H162 0.948 . S
C121 C120 1.391 . S
C121 C122 1.391 . S
C122 C121 1.391 . S
C122 H178 0.947 . S
C122 C179 1.392 . S
C123 C124 1.391 . S
C123 C127 1.397 . S
C123 C179 1.419 . S
C124 C120 1.391 . S
C124 C123 1.391 . S
C124 C125 1.399 . S
C125 C124 1.399 . S
C125 C128 1.396 . S
C125 C137 1.453 . S
C125 C138 1.684 . S
H126 C150 0.948 . S
C127 C123 1.397 . S
C127 C128 1.394 . S
C127 C146 1.723 . S
C128 C125 1.396 . S
C128 C127 1.394 . S
C128 C158 1.723 . S
H129 C152 0.947 . S
H130 C153 0.948 . S
H131 C159 0.982 . S
H132 C160 0.979 . S
H133 C160 0.980 . S
H134 C160 0.983 . S
H135 C159 0.979 . S
H136 C159 0.977 . S
C137 C125 1.453 . S
C137 H166 0.982 . S
C137 H167 0.979 . S
C137 H168 0.977 . S
C138 C125 1.684 . S
C138 H163 0.979 . S
C138 H164 0.980 . S
C138 H165 0.983 . S
C139 C140 1.391 . S
C139 C144 1.391 . S
C139 H169 0.948 . S
C140 C139 1.391 . S
C140 C141 1.391 . S
C141 C140 1.391 . S
C141 C142 1.392 . S
C141 H170 0.947 . S
C142 C141 1.392 . S
C142 C143 1.419 . S
C142 H171 0.948 . S
C143 C142 1.419 . S
C143 C144 1.391 . S
C143 C147 1.397 . S
C144 C139 1.391 . S
C144 C143 1.391 . S
C144 C145 1.399 . S
C145 C144 1.399 . S
C145 C146 1.396 . S
C145 C148 1.453 . S
C145 C149 1.684 . S
C146 C127 1.723 . S
C146 C145 1.396 . S
C146 C147 1.394 . S
C147 C143 1.397 . S
C147 C146 1.394 . S
C147 C157 1.723 . S
C148 C145 1.453 . S
C148 H172 0.982 . S
C148 H173 0.979 . S
C148 H174 0.977 . S
C149 C145 1.684 . S
C149 H175 0.979 . S
C149 H176 0.980 . S
C149 H177 0.983 . S
C150 H126 0.948 . S
C150 C151 1.391 . S
C150 C155 1.391 . S
C151 C150 1.391 . S
C151 C152 1.391 . S
C152 H129 0.947 . S
C152 C151 1.391 . S
C152 C153 1.392 . S
C153 H130 0.948 . S
C153 C152 1.392 . S
C153 C154 1.419 . S
C154 C153 1.419 . S
C154 C155 1.391 . S
C154 C158 1.397 . S
C155 C150 1.391 . S
C155 C154 1.391 . S
C155 C156 1.399 . S
C156 C155 1.399 . S
C156 C157 1.396 . S
C156 C159 1.453 . S
C156 C160 1.684 . S
C157 C147 1.723 . S
C157 C156 1.396 . S
C157 C158 1.394 . S
C158 C128 1.723 . S
C158 C154 1.397 . S
C158 C157 1.394 . S
C159 H131 0.982 . S
C159 H135 0.979 . S
C159 H136 0.977 . S
C159 C156 1.453 . S
C160 H132 0.979 . S
C160 H133 0.980 . S
C160 H134 0.983 . S
C160 C156 1.684 . S
H161 C179 0.948 . S
H162 C120 0.948 . S
H163 C138 0.979 . S
H164 C138 0.980 . S
H165 C138 0.983 . S
H166 C137 0.982 . S
H167 C137 0.979 . S
H168 C137 0.977 . S
H169 C139 0.948 . S
H170 C141 0.947 . S
H171 C142 0.948 . S
H172 C148 0.982 . S
H173 C148 0.979 . S
H174 C148 0.977 . S
H175 C149 0.979 . S
H176 C149 0.980 . S
H177 C149 0.983 . S
H178 C122 0.947 . S
C179 C122 1.392 . S
C179 C123 1.419 . S
C179 H161 0.948 . S
C180 C181 1.391 . S
C180 C184 1.391 . S
C180 H222 0.948 . S
C181 C180 1.391 . S
C181 C182 1.391 . S
C182 C181 1.391 . S
C182 H238 0.947 . S
C182 C239 1.392 . S
C183 C184 1.391 . S
C183 C187 1.397 . S
C183 C239 1.419 . S
C184 C180 1.391 . S
C184 C183 1.391 . S
C184 C185 1.399 . S
C185 C184 1.399 . S
C185 C188 1.396 . S
C185 C197 1.453 . S
C185 C198 1.684 . S
H186 C210 0.948 . S
C187 C183 1.397 . S
C187 C188 1.394 . S
C187 C206 1.723 . S
C188 C185 1.396 . S
C188 C187 1.394 . S
C188 C218 1.723 . S
H189 C212 0.947 . S
H190 C213 0.948 . S
H191 C219 0.982 . S
H192 C220 0.979 . S
H193 C220 0.980 . S
H194 C220 0.983 . S
H195 C219 0.979 . S
H196 C219 0.977 . S
C197 C185 1.453 . S
C197 H226 0.982 . S
C197 H227 0.979 . S
C197 H228 0.977 . S
C198 C185 1.684 . S
C198 H223 0.979 . S
C198 H224 0.980 . S
C198 H225 0.983 . S
C199 C200 1.391 . S
C199 C204 1.391 . S
C199 H229 0.948 . S
C200 C199 1.391 . S
C200 C201 1.391 . S
C201 C200 1.391 . S
C201 C202 1.392 . S
C201 H230 0.947 . S
C202 C201 1.392 . S
C202 C203 1.419 . S
C202 H231 0.948 . S
C203 C202 1.419 . S
C203 C204 1.391 . S
C203 C207 1.397 . S
C204 C199 1.391 . S
C204 C203 1.391 . S
C204 C205 1.399 . S
C205 C204 1.399 . S
C205 C206 1.396 . S
C205 C208 1.453 . S
C205 C209 1.684 . S
C206 C187 1.723 . S
C206 C205 1.396 . S
C206 C207 1.394 . S
C207 C203 1.397 . S
C207 C206 1.394 . S
C207 C217 1.723 . S
C208 C205 1.453 . S
C208 H232 0.982 . S
C208 H233 0.979 . S
C208 H234 0.977 . S
C209 C205 1.684 . S
C209 H235 0.979 . S
C209 H236 0.980 . S
C209 H237 0.983 . S
C210 H186 0.948 . S
C210 C211 1.391 . S
C210 C215 1.391 . S
C211 C210 1.391 . S
C211 C212 1.391 . S
C212 H189 0.947 . S
C212 C211 1.391 . S
C212 C213 1.392 . S
C213 H190 0.948 . S
C213 C212 1.392 . S
C213 C214 1.419 . S
C214 C213 1.419 . S
C214 C215 1.391 . S
C214 C218 1.397 . S
C215 C210 1.391 . S
C215 C214 1.391 . S
C215 C216 1.399 . S
C216 C215 1.399 . S
C216 C217 1.396 . S
C216 C219 1.453 . S
C216 C220 1.684 . S
C217 C207 1.723 . S
C217 C216 1.396 . S
C217 C218 1.394 . S
C218 C188 1.723 . S
C218 C214 1.397 . S
C218 C217 1.394 . S
C219 H191 0.982 . S
C219 H195 0.979 . S
C219 H196 0.977 . S
C219 C216 1.453 . S
C220 H192 0.979 . S
C220 H193 0.980 . S
C220 H194 0.983 . S
C220 C216 1.684 . S
H221 C239 0.948 . S
H222 C180 0.948 . S
H223 C198 0.979 . S
H224 C198 0.980 . S
H225 C198 0.983 . S
H226 C197 0.982 . S
H227 C197 0.979 . S
H228 C197 0.977 . S
H229 C199 0.948 . S
H230 C201 0.947 . S
H231 C202 0.948 . S
H232 C208 0.982 . S
H233 C208 0.979 . S
H234 C208 0.977 . S
H235 C209 0.979 . S
H236 C209 0.980 . S
H237 C209 0.983 . S
H238 C182 0.947 . S
C239 C182 1.392 . S
C239 C183 1.419 . S
C239 H221 0.948 . S
C240 C241 1.391 . S
C240 C244 1.391 . S
C240 H282 0.948 . S
C241 C240 1.391 . S
C241 C242 1.391 . S
C242 C241 1.391 . S
C242 H298 0.947 . S
C242 C299 1.392 . S
C243 C244 1.391 . S
C243 C247 1.397 . S
C243 C299 1.419 . S
C244 C240 1.391 . S
C244 C243 1.391 . S
C244 C245 1.399 . S
C245 C244 1.399 . S
C245 C248 1.396 . S
C245 C257 1.453 . S
C245 C258 1.684 . S
H246 C270 0.948 . S
C247 C243 1.397 . S
C247 C248 1.394 . S
C247 C266 1.723 . S
C248 C245 1.396 . S
C248 C247 1.394 . S
C248 C278 1.723 . S
H249 C272 0.947 . S
H250 C273 0.948 . S
H251 C279 0.982 . S
H252 C280 0.979 . S
H253 C280 0.980 . S
H254 C280 0.983 . S
H255 C279 0.979 . S
H256 C279 0.977 . S
C257 C245 1.453 . S
C257 H286 0.982 . S
C257 H287 0.979 . S
C257 H288 0.977 . S
C258 C245 1.684 . S
C258 H283 0.979 . S
C258 H284 0.980 . S
C258 H285 0.983 . S
C259 C260 1.391 . S
C259 C264 1.391 . S
C259 H289 0.948 . S
C260 C259 1.391 . S
C260 C261 1.391 . S
C261 C260 1.391 . S
C261 C262 1.392 . S
C261 H290 0.947 . S
C262 C261 1.392 . S
C262 C263 1.419 . S
C262 H291 0.948 . S
C263 C262 1.419 . S
C263 C264 1.391 . S
C263 C267 1.397 . S
C264 C259 1.391 . S
C264 C263 1.391 . S
C264 C265 1.399 . S
C265 C264 1.399 . S
C265 C266 1.396 . S
C265 C268 1.453 . S
C265 C269 1.684 . S
C266 C247 1.723 . S
C266 C265 1.396 . S
C266 C267 1.394 . S
C267 C263 1.397 . S
C267 C266 1.394 . S
C267 C277 1.723 . S
C268 C265 1.453 . S
C268 H292 0.982 . S
C268 H293 0.979 . S
C268 H294 0.977 . S
C269 C265 1.684 . S
C269 H295 0.979 . S
C269 H296 0.980 . S
C269 H297 0.983 . S
C270 H246 0.948 . S
C270 C271 1.391 . S
C270 C275 1.391 . S
C271 C270 1.391 . S
C271 C272 1.391 . S
C272 H249 0.947 . S
C272 C271 1.391 . S
C272 C273 1.392 . S
C273 H250 0.948 . S
C273 C272 1.392 . S
C273 C274 1.419 . S
C274 C273 1.419 . S
C274 C275 1.391 . S
C274 C278 1.397 . S
C275 C270 1.391 . S
C275 C274 1.391 . S
C275 C276 1.399 . S
C276 C275 1.399 . S
C276 C277 1.396 . S
C276 C279 1.453 . S
C276 C280 1.684 . S
C277 C267 1.723 . S
C277 C276 1.396 . S
C277 C278 1.394 . S
C278 C248 1.723 . S
C278 C274 1.397 . S
C278 C277 1.394 . S
C279 H251 0.982 . S
C279 H255 0.979 . S
C279 H256 0.977 . S
C279 C276 1.453 . S
C280 H252 0.979 . S
C280 H253 0.980 . S
C280 H254 0.983 . S
C280 C276 1.684 . S
H281 C299 0.948 . S
H282 C240 0.948 . S
H283 C258 0.979 . S
H284 C258 0.980 . S
H285 C258 0.983 . S
H286 C257 0.982 . S
H287 C257 0.979 . S
H288 C257 0.977 . S
H289 C259 0.948 . S
H290 C261 0.947 . S
H291 C262 0.948 . S
H292 C268 0.982 . S
H293 C268 0.979 . S
H294 C268 0.977 . S
H295 C269 0.979 . S
H296 C269 0.980 . S
H297 C269 0.983 . S
H298 C242 0.947 . S
C299 C242 1.392 . S
C299 C243 1.419 . S
C299 H281 0.948 . S
C300 C301 1.391 . S
C300 C304 1.391 . S
C300 H342 0.948 . S
C301 C300 1.391 . S
C301 C302 1.391 . S
C302 C301 1.391 . S
C302 H358 0.947 . S
C302 C359 1.392 . S
C303 C304 1.391 . S
C303 C307 1.397 . S
C303 C359 1.419 . S
C304 C300 1.391 . S
C304 C303 1.391 . S
C304 C305 1.399 . S
C305 C304 1.399 . S
C305 C308 1.396 . S
C305 C317 1.453 . S
C305 C318 1.684 . S
H306 C330 0.948 . S
C307 C303 1.397 . S
C307 C308 1.394 . S
C307 C326 1.723 . S
C308 C305 1.396 . S
C308 C307 1.394 . S
C308 C338 1.723 . S
H309 C332 0.947 . S
H310 C333 0.948 . S
H311 C339 0.982 . S
H312 C340 0.979 . S
H313 C340 0.980 . S
H314 C340 0.983 . S
H315 C339 0.979 . S
H316 C339 0.977 . S
C317 C305 1.453 . S
C317 H346 0.982 . S
C317 H347 0.979 . S
C317 H348 0.977 . S
C318 C305 1.684 . S
C318 H343 0.979 . S
C318 H344 0.980 . S
C318 H345 0.983 . S
C319 C320 1.391 . S
C319 C324 1.391 . S
C319 H349 0.948 . S
C320 C319 1.391 . S
C320 C321 1.391 . S
C321 C320 1.391 . S
C321 C322 1.392 . S
C321 H350 0.947 . S
C322 C321 1.392 . S
C322 C323 1.419 . S
C322 H351 0.948 . S
C323 C322 1.419 . S
C323 C324 1.391 . S
C323 C327 1.397 . S
C324 C319 1.391 . S
C324 C323 1.391 . S
C324 C325 1.399 . S
C325 C324 1.399 . S
C325 C326 1.396 . S
C325 C328 1.453 . S
C325 C329 1.684 . S
C326 C307 1.723 . S
C326 C325 1.396 . S
C326 C327 1.394 . S
C327 C323 1.397 . S
C327 C326 1.394 . S
C327 C337 1.723 . S
C328 C325 1.453 . S
C328 H352 0.982 . S
C328 H353 0.979 . S
C328 H354 0.977 . S
C329 C325 1.684 . S
C329 H355 0.979 . S
C329 H356 0.980 . S
C329 H357 0.983 . S
C330 H306 0.948 . S
C330 C331 1.391 . S
C330 C335 1.391 . S
C331 C330 1.391 . S
C331 C332 1.391 . S
C332 H309 0.947 . S
C332 C331 1.391 . S
C332 C333 1.392 . S
C333 H310 0.948 . S
C333 C332 1.392 . S
C333 C334 1.419 . S
C334 C333 1.419 . S
C334 C335 1.391 . S
C334 C338 1.397 . S
C335 C330 1.391 . S
C335 C334 1.391 . S
C335 C336 1.399 . S
C336 C335 1.399 . S
C336 C337 1.396 . S
C336 C339 1.453 . S
C336 C340 1.684 . S
C337 C327 1.723 . S
C337 C336 1.396 . S
C337 C338 1.394 . S
C338 C308 1.723 . S
C338 C334 1.397 . S
C338 C337 1.394 . S
C339 H311 0.982 . S
C339 H315 0.979 . S
C339 H316 0.977 . S
C339 C336 1.453 . S
C340 H312 0.979 . S
C340 H313 0.980 . S
C340 H314 0.983 . S
C340 C336 1.684 . S
H341 C359 0.948 . S
H342 C300 0.948 . S
H343 C318 0.979 . S
H344 C318 0.980 . S
H345 C318 0.983 . S
H346 C317 0.982 . S
H347 C317 0.979 . S
H348 C317 0.977 . S
H349 C319 0.948 . S
H350 C321 0.947 . S
H351 C322 0.948 . S
H352 C328 0.982 . S
H353 C328 0.979 . S
H354 C328 0.977 . S
H355 C329 0.979 . S
H356 C329 0.980 . S
H357 C329 0.983 . S
H358 C302 0.947 . S
C359 C302 1.392 . S
C359 C303 1.419 . S
C359 H341 0.948 . S
C360 C361 1.391 . S
C360 C364 1.391 . S
C360 H402 0.948 . S
C361 C360 1.391 . S
C361 C362 1.391 . S
C362 C361 1.391 . S
C362 H418 0.947 . S
C362 C419 1.392 . S
C363 C364 1.391 . S
C363 C367 1.397 . S
C363 C419 1.419 . S
C364 C360 1.391 . S
C364 C363 1.391 . S
C364 C365 1.399 . S
C365 C364 1.399 . S
C365 C368 1.396 . S
C365 C377 1.453 . S
C365 C378 1.684 . S
H366 C390 0.948 . S
C367 C363 1.397 . S
C367 C368 1.394 . S
C367 C386 1.723 . S
C368 C365 1.396 . S
C368 C367 1.394 . S
C368 C398 1.723 . S
H369 C392 0.947 . S
H370 C393 0.948 . S
H371 C399 0.982 . S
H372 C400 0.979 . S
H373 C400 0.980 . S
H374 C400 0.983 . S
H375 C399 0.979 . S
H376 C399 0.977 . S
C377 C365 1.453 . S
C377 H406 0.982 . S
C377 H407 0.979 . S
C377 H408 0.977 . S
C378 C365 1.684 . S
C378 H403 0.979 . S
C378 H404 0.980 . S
C378 H405 0.983 . S
C379 C380 1.391 . S
C379 C384 1.391 . S
C379 H409 0.948 . S
C380 C379 1.391 . S
C380 C381 1.391 . S
C381 C380 1.391 . S
C381 C382 1.392 . S
C381 H410 0.947 . S
C382 C381 1.392 . S
C382 C383 1.419 . S
C382 H411 0.948 . S
C383 C382 1.419 . S
C383 C384 1.391 . S
C383 C387 1.397 . S
C384 C379 1.391 . S
C384 C383 1.391 . S
C384 C385 1.399 . S
C385 C384 1.399 . S
C385 C386 1.396 . S
C385 C388 1.453 . S
C385 C389 1.684 . S
C386 C367 1.723 . S
C386 C385 1.396 . S
C386 C387 1.394 . S
C387 C383 1.397 . S
C387 C386 1.394 . S
C387 C397 1.723 . S
C388 C385 1.453 . S
C388 H412 0.982 . S
C388 H413 0.979 . S
C388 H414 0.977 . S
C389 C385 1.684 . S
C389 H415 0.979 . S
C389 H416 0.980 . S
C389 H417 0.983 . S
C390 H366 0.948 . S
C390 C391 1.391 . S
C390 C395 1.391 . S
C391 C390 1.391 . S
C391 C392 1.391 . S
C392 H369 0.947 . S
C392 C391 1.391 . S
C392 C393 1.392 . S
C393 H370 0.948 . S
C393 C392 1.392 . S
C393 C394 1.419 . S
C394 C393 1.419 . S
C394 C395 1.391 . S
C394 C398 1.397 . S
C395 C390 1.391 . S
C395 C394 1.391 . S
C395 C396 1.399 . S
C396 C395 1.399 . S
C396 C397 1.396 . S
C396 C399 1.453 . S
C396 C400 1.684 . S
C397 C387 1.723 . S
C397 C396 1.396 . S
C397 C398 1.394 . S
C398 C368 1.723 . S
C398 C394 1.397 . S
C398 C397 1.394 . S
C399 H371 0.982 . S
C399 H375 0.979 . S
C399 H376 0.977 . S
C399 C396 1.453 . S
C400 H372 0.979 . S
C400 H373 0.980 . S
C400 H374 0.983 . S
C400 C396 1.684 . S
H401 C419 0.948 . S
H402 C360 0.948 . S
H403 C378 0.979 . S
H404 C378 0.980 . S
H405 C378 0.983 . S
H406 C377 0.982 . S
H407 C377 0.979 . S
H408 C377 0.977 . S
H409 C379 0.948 . S
H410 C381 0.947 . S
H411 C382 0.948 . S
H412 C388 0.982 . S
H413 C388 0.979 . S
H414 C388 0.977 . S
H415 C389 0.979 . S
H416 C389 0.980 . S
H417 C389 0.983 . S
H418 C362 0.947 . S
C419 C362 1.392 . S
C419 C363 1.419 . S
C419 H401 0.948 . S
C420 C421 1.391 . S
C420 C424 1.391 . S
C420 H462 0.948 . S
C421 C420 1.391 . S
C421 C422 1.391 . S
C422 C421 1.391 . S
C422 H478 0.947 . S
C422 C479 1.392 . S
C423 C424 1.391 . S
C423 C427 1.397 . S
C423 C479 1.419 . S
C424 C420 1.391 . S
C424 C423 1.391 . S
C424 C425 1.399 . S
C425 C424 1.399 . S
C425 C428 1.396 . S
C425 C437 1.453 . S
C425 C438 1.684 . S
H426 C450 0.948 . S
C427 C423 1.397 . S
C427 C428 1.394 . S
C427 C446 1.723 . S
C428 C425 1.396 . S
C428 C427 1.394 . S
C428 C458 1.723 . S
H429 C452 0.947 . S
H430 C453 0.948 . S
H431 C459 0.982 . S
H432 C460 0.979 . S
H433 C460 0.980 . S
H434 C460 0.983 . S
H435 C459 0.979 . S
H436 C459 0.977 . S
C437 C425 1.453 . S
C437 H466 0.982 . S
C437 H467 0.979 . S
C437 H468 0.977 . S
C438 C425 1.684 . S
C438 H463 0.979 . S
C438 H464 0.980 . S
C438 H465 0.983 . S
C439 C440 1.391 . S
C439 C444 1.391 . S
C439 H469 0.948 . S
C440 C439 1.391 . S
C440 C441 1.391 . S
C441 C440 1.391 . S
C441 C442 1.392 . S
C441 H470 0.947 . S
C442 C441 1.392 . S
C442 C443 1.419 . S
C442 H471 0.948 . S
C443 C442 1.419 . S
C443 C444 1.391 . S
C443 C447 1.397 . S
C444 C439 1.391 . S
C444 C443 1.391 . S
C444 C445 1.399 . S
C445 C444 1.399 . S
C445 C446 1.396 . S
C445 C448 1.453 . S
C445 C449 1.684 . S
C446 C427 1.723 . S
C446 C445 1.396 . S
C446 C447 1.394 . S
C447 C443 1.397 . S
C447 C446 1.394 . S
C447 C457 1.723 . S
C448 C445 1.453 . S
C448 H472 0.982 . S
C448 H473 0.979 . S
C448 H474 0.977 . S
C449 C445 1.684 . S
C449 H475 0.979 . S
C449 H476 0.980 . S
C449 H477 0.983 . S
C450 H426 0.948 . S
C450 C451 1.391 . S
C450 C455 1.391 . S
C451 C450 1.391 . S
C451 C452 1.391 . S
C452 H429 0.947 . S
C452 C451 1.391 . S
C452 C453 1.392 . S
C453 H430 0.948 . S
C453 C452 1.392 . S
C453 C454 1.419 . S
C454 C453 1.419 . S
C454 C455 1.391 . S
C454 C458 1.397 . S
C455 C450 1.391 . S
C455 C454 1.391 . S
C455 C456 1.399 . S
C456 C455 1.399 . S
C456 C457 1.396 . S
C456 C459 1.453 . S
C456 C460 1.684 . S
C457 C447 1.723 . S
C457 C456 1.396 . S
C457 C458 1.394 . S
C458 C428 1.723 . S
C458 C454 1.397 . S
C458 C457 1.394 . S
C459 H431 0.982 . S
C459 H435 0.979 . S
C459 H436 0.977 . S
C459 C456 1.453 . S
C460 H432 0.979 . S
C460 H433 0.980 . S
C460 H434 0.983 . S
C460 C456 1.684 . S
H461 C479 0.948 . S
H462 C420 0.948 . S
H463 C438 0.979 . S
H464 C438 0.980 . S
H465 C438 0.983 . S
H466 C437 0.982 . S
H467 C437 0.979 . S
H468 C437 0.977 . S
H469 C439 0.948 . S
H470 C441 0.947 . S
H471 C442 0.948 . S
H472 C448 0.982 . S
H473 C448 0.979 . S
H474 C448 0.977 . S
H475 C449 0.979 . S
H476 C449 0.980 . S
H477 C449 0.983 . S
H478 C422 0.947 . S
C479 C422 1.392 . S
C479 C423 1.419 . S
C479 H461 0.948 . S
Pr480 C482 2.880 . S
Pr480 O500 2.562 . S
Pr480 O501 2.490 . S
Pr480 O502 2.695 1_665 S
Pr480 O503 2.513 1_565 S
Pr480 O505 2.437 1_655 S
Pr480 O508 2.436 . S
Pr480 O510 2.438 1_565 S
Pr481 C491 2.880 . S
Pr481 O502 2.436 . S
Pr481 O504 2.438 1_545 S
Pr481 O506 2.562 . S
Pr481 O507 2.490 . S
Pr481 O508 2.695 1_445 S
Pr481 O509 2.518 1_545 S
Pr481 O511 2.437 1_455 S
C482 Pr480 2.880 . S
C482 C483 1.491 . S
C482 O500 1.254 . S
C482 O501 1.225 . S
C483 C482 1.491 . S
C483 C484 1.392 . S
C483 C488 1.356 . S
C484 C483 1.392 . S
C484 C485 1.368 . S
C484 H512 0.929 . S
C485 C484 1.368 . S
C485 C486 1.386 . S
C485 H513 0.929 . S
C486 C485 1.386 . S
C486 C487 1.373 . S
C487 C486 1.373 . S
C487 C488 1.409 . S
C487 H514 0.931 . S
C488 C483 1.356 . S
C488 C487 1.409 . S
C488 H515 0.930 . S
C489 O502 1.270 . S
C489 O503 1.245 1_455 S
C490 O504 1.267 . S
C490 O505 1.278 . S
C491 Pr481 2.880 . S
C491 C492 1.491 . S
C491 O506 1.254 . S
C491 O507 1.225 . S
C492 C491 1.491 . S
C492 C493 1.392 . S
C492 C497 1.356 . S
C493 C492 1.392 . S
C493 C494 1.368 . S
C493 H516 0.929 . S
C494 C493 1.368 . S
C494 C495 1.386 . S
C494 H517 0.929 . S
C495 C494 1.386 . S
C495 C496 1.373 . S
C496 C495 1.373 . S
C496 C497 1.409 . S
C496 H518 0.931 . S
C497 C492 1.356 . S
C497 C496 1.409 . S
C497 H519 0.930 . S
C498 O508 1.270 . S
C498 O509 1.228 1_655 S
C499 O510 1.267 . S
C499 O511 1.278 . S
O500 Pr480 2.562 . S
O500 C482 1.254 . S
O501 Pr480 2.490 . S
O501 C482 1.225 . S
O502 Pr480 2.695 1_445 S
O502 Pr481 2.436 . S
O502 C489 1.270 . S
O503 Pr480 2.513 1_545 S
O503 C489 1.245 1_655 S
O504 Pr481 2.438 1_565 S
O504 C490 1.267 . S
O505 Pr480 2.437 1_455 S
O505 C490 1.278 . S
O506 Pr481 2.562 . S
O506 C491 1.254 . S
O507 Pr481 2.490 . S
O507 C491 1.225 . S
O508 Pr480 2.436 . S
O508 Pr481 2.695 1_665 S
O508 C498 1.270 . S
O509 Pr481 2.518 1_565 S
O509 C498 1.228 1_455 S
O510 Pr480 2.438 1_545 S
O510 C499 1.267 . S
O511 Pr481 2.437 1_655 S
O511 C499 1.278 . S
H512 C484 0.929 . S
H513 C485 0.929 . S
H514 C487 0.931 . S
H515 C488 0.930 . S
H516 C493 0.929 . S
H517 C494 0.929 . S
H518 C496 0.931 . S
H519 C497 0.930 . S
Pr520 C522 2.880 . S
Pr520 O540 2.562 . S
Pr520 O541 2.490 . S
Pr520 O542 2.695 1_554 S
Pr520 O543 2.512 1_554 S
Pr520 O545 2.437 . S
Pr520 O548 2.436 1_545 S
Pr520 O550 2.438 1_544 S
Pr521 C531 2.900 . S
Pr521 O542 2.446 1_565 S
Pr521 O544 2.420 1_566 S
Pr521 O546 2.588 . S
Pr521 O547 2.500 . S
Pr521 O548 2.678 1_556 S
Pr521 O549 2.494 1_556 S
Pr521 O551 2.447 . S
C522 Pr520 2.880 . S
C522 C523 1.491 . S
C522 O540 1.254 . S
C522 O541 1.225 . S
C523 C522 1.491 . S
C523 C524 1.392 . S
C523 C528 1.356 . S
C524 C523 1.392 . S
C524 C525 1.368 . S
C524 H552 0.929 . S
C525 C524 1.368 . S
C525 C526 1.386 . S
C525 H553 0.929 . S
C526 C525 1.386 . S
C526 C527 1.373 . S
C527 C526 1.373 . S
C527 C528 1.409 . S
C527 H554 0.931 . S
C528 C523 1.356 . S
C528 C527 1.409 . S
C528 H555 0.930 . S
C529 O542 1.270 . S
C529 O543 1.248 . S
C530 O544 1.267 . S
C530 O545 1.278 . S
C531 Pr521 2.900 . S
C531 C532 1.491 . S
C531 O546 1.254 . S
C531 O547 1.225 . S
C532 C531 1.491 . S
C532 C533 1.392 . S
C532 C537 1.356 . S
C533 C532 1.392 . S
C533 C534 1.368 . S
C533 H556 0.929 . S
C534 C533 1.368 . S
C534 C535 1.386 . S
C534 H557 0.929 . S
C535 C534 1.386 . S
C535 C536 1.373 . S
C536 C535 1.373 . S
C536 C537 1.409 . S
C536 H558 0.931 . S
C537 C532 1.356 . S
C537 C536 1.409 . S
C537 H559 0.930 . S
C538 O548 1.270 . S
C538 O549 1.248 . S
C539 O550 1.267 . S
C539 O551 1.278 . S
O540 Pr520 2.562 . S
O540 C522 1.254 . S
O541 Pr520 2.490 . S
O541 C522 1.225 . S
O542 Pr520 2.695 1_556 S
O542 Pr521 2.446 1_545 S
O542 C529 1.270 . S
O543 Pr520 2.512 1_556 S
O543 C529 1.248 . S
O544 Pr521 2.420 1_544 S
O544 C530 1.267 . S
O545 Pr520 2.437 . S
O545 C530 1.278 . S
O546 Pr521 2.588 . S
O546 C531 1.254 . S
O547 Pr521 2.500 . S
O547 C531 1.225 . S
O548 Pr520 2.436 1_565 S
O548 Pr521 2.678 1_554 S
O548 C538 1.270 . S
O549 Pr521 2.494 1_554 S
O549 C538 1.248 . S
O550 Pr520 2.438 1_566 S
O550 C539 1.267 . S
O551 Pr521 2.447 . S
O551 C539 1.278 . S
H552 C524 0.929 . S
H553 C525 0.929 . S
H554 C527 0.931 . S
H555 C528 0.930 . S
H556 C533 0.929 . S
H557 C534 0.929 . S
H558 C536 0.931 . S
H559 C537 0.930 . S
Pr560 C562 2.880 . S
Pr560 O580 2.562 . S
Pr560 O581 2.490 . S
Pr560 O582 2.695 . S
Pr560 O583 2.512 . S
Pr560 O585 2.437 . S
Pr560 O588 2.436 . S
Pr560 O590 2.438 . S
Pr561 C571 2.880 . S
Pr561 O582 2.436 . S
Pr561 O584 2.438 . S
Pr561 O586 2.562 . S
Pr561 O587 2.490 . S
Pr561 O588 2.695 . S
Pr561 O589 2.512 . S
Pr561 O591 2.437 . S
C562 Pr560 2.880 . S
C562 C563 1.491 . S
C562 O580 1.254 . S
C562 O581 1.225 . S
C563 C562 1.491 . S
C563 C564 1.392 . S
C563 C568 1.356 . S
C564 C563 1.392 . S
C564 C565 1.368 . S
C564 H592 0.929 . S
C565 C564 1.368 . S
C565 C566 1.386 . S
C565 H593 0.929 . S
C566 C565 1.386 . S
C566 C567 1.373 . S
C567 C566 1.373 . S
C567 C568 1.409 . S
C567 H594 0.931 . S
C568 C563 1.356 . S
C568 C567 1.409 . S
C568 H595 0.930 . S
C569 O582 1.270 . S
C569 O583 1.248 . S
C570 O584 1.267 . S
C570 O585 1.278 . S
C571 Pr561 2.880 . S
C571 C572 1.491 . S
C571 O586 1.254 . S
C571 O587 1.225 . S
C572 C571 1.491 . S
C572 C573 1.392 . S
C572 C577 1.356 . S
C573 C572 1.392 . S
C573 C574 1.368 . S
C573 H596 0.929 . S
C574 C573 1.368 . S
C574 C575 1.386 . S
C574 H597 0.929 . S
C575 C574 1.386 . S
C575 C576 1.373 . S
C576 C575 1.373 . S
C576 C577 1.409 . S
C576 H598 0.931 . S
C577 C572 1.356 . S
C577 C576 1.409 . S
C577 H599 0.930 . S
C578 O588 1.270 . S
C578 O589 1.248 . S
C579 O590 1.267 . S
C579 O591 1.278 . S
O580 Pr560 2.562 . S
O580 C562 1.254 . S
O581 Pr560 2.490 . S
O581 C562 1.225 . S
O582 Pr560 2.695 . S
O582 Pr561 2.436 . S
O582 C569 1.270 . S
O583 Pr560 2.512 . S
O583 C569 1.248 . S
O584 Pr561 2.438 . S
O584 C570 1.267 . S
O585 Pr560 2.437 . S
O585 C570 1.278 . S
O586 Pr561 2.562 . S
O586 C571 1.254 . S
O587 Pr561 2.490 . S
O587 C571 1.225 . S
O588 Pr560 2.436 . S
O588 Pr561 2.695 . S
O588 C578 1.270 . S
O589 Pr561 2.512 . S
O589 C578 1.248 . S
O590 Pr560 2.438 . S
O590 C579 1.267 . S
O591 Pr561 2.437 . S
O591 C579 1.278 . S
H592 C564 0.929 . S
H593 C565 0.929 . S
H594 C567 0.931 . S
H595 C568 0.930 . S
H596 C573 0.929 . S
H597 C574 0.929 . S
H598 C576 0.931 . S
H599 C577 0.930 . S
Pr600 C602 2.880 . S
Pr600 O620 2.562 . S
Pr600 O621 2.490 . S
Pr600 O622 2.695 1_656 S
Pr600 O623 2.512 1_656 S
Pr600 O625 2.437 1_556 S
Pr600 O628 2.436 . S
Pr600 O630 2.438 1_655 S
Pr601 C611 2.880 . S
Pr601 O622 2.436 . S
Pr601 O624 2.438 1_455 S
Pr601 O626 2.562 . S
Pr601 O627 2.490 . S
Pr601 O628 2.695 1_454 S
Pr601 O629 2.512 1_454 S
Pr601 O631 2.437 1_554 S
C602 Pr600 2.880 . S
C602 C603 1.491 . S
C602 O620 1.254 . S
C602 O621 1.225 . S
C603 C602 1.491 . S
C603 C604 1.392 . S
C603 C608 1.356 . S
C604 C603 1.392 . S
C604 C605 1.368 . S
C604 H632 0.929 . S
C605 C604 1.368 . S
C605 C606 1.386 . S
C605 H633 0.929 . S
C606 C605 1.386 . S
C606 C607 1.373 . S
C607 C606 1.373 . S
C607 C608 1.409 . S
C607 H634 0.931 . S
C608 C603 1.356 . S
C608 C607 1.409 . S
C608 H635 0.930 . S
C609 O622 1.270 . S
C609 O623 1.248 . S
C610 O624 1.267 . S
C610 O625 1.278 . S
C611 Pr601 2.880 . S
C611 C612 1.491 . S
C611 O626 1.254 . S
C611 O627 1.225 . S
C612 C611 1.491 . S
C612 C613 1.392 . S
C612 C617 1.356 . S
C613 C612 1.392 . S
C613 C614 1.368 . S
C613 H636 0.929 . S
C614 C613 1.368 . S
C614 C615 1.386 . S
C614 H637 0.929 . S
C615 C614 1.386 . S
C615 C616 1.373 . S
C616 C615 1.373 . S
C616 C617 1.409 . S
C616 H638 0.931 . S
C617 C612 1.356 . S
C617 C616 1.409 . S
C617 H639 0.930 . S
C618 O628 1.270 . S
C618 O629 1.248 . S
C619 O630 1.267 . S
C619 O631 1.278 . S
O620 Pr600 2.562 . S
O620 C602 1.254 . S
O621 Pr600 2.490 . S
O621 C602 1.225 . S
O622 Pr600 2.695 1_454 S
O622 Pr601 2.436 . S
O622 C609 1.270 . S
O623 Pr600 2.512 1_454 S
O623 C609 1.248 . S
O624 Pr601 2.438 1_655 S
O624 C610 1.267 . S
O625 Pr600 2.437 1_554 S
O625 C610 1.278 . S
O626 Pr601 2.562 . S
O626 C611 1.254 . S
O627 Pr601 2.490 . S
O627 C611 1.225 . S
O628 Pr600 2.436 . S
O628 Pr601 2.695 1_656 S
O628 C618 1.270 . S
O629 Pr601 2.512 1_656 S
O629 C618 1.248 . S
O630 Pr600 2.438 1_455 S
O630 C619 1.267 . S
O631 Pr601 2.437 1_556 S
O631 C619 1.278 . S
H632 C604 0.929 . S
H633 C605 0.929 . S
H634 C607 0.931 . S
H635 C608 0.930 . S
H636 C613 0.929 . S
H637 C614 0.929 . S
H638 C616 0.931 . S
H639 C617 0.930 . S
C640 C641 1.363 . S
C640 C646 1.379 . S
C640 N648 1.356 . S
C641 C640 1.363 . S
C641 C647 1.363 . S
C642 C643 1.363 . S
C642 C647 1.379 . S
C642 N649 1.356 . S
C643 C642 1.363 . S
C643 C646 1.363 . S
N644 C646 1.356 . S
N644 H656 0.984 . S
N644 H657 0.985 . S
N645 C647 1.356 . S
N645 H650 0.984 . S
N645 H651 0.985 . S
C646 C640 1.379 . S
C646 C643 1.363 . S
C646 N644 1.356 . S
C647 C641 1.363 . S
C647 C642 1.379 . S
C647 N645 1.356 . S
N648 C640 1.356 . S
N648 H654 0.984 . S
N648 H655 0.984 . S
N649 C642 1.356 . S
N649 H652 0.984 . S
N649 H653 0.985 . S
H650 N645 0.984 . S
H651 N645 0.985 . S
H652 N649 0.984 . S
H653 N649 0.985 . S
H654 N648 0.984 . S
H655 N648 0.984 . S
H656 N644 0.984 . S
H657 N644 0.985 . S
C658 C659 1.363 . S
C658 C664 1.379 . S
C658 N666 1.356 . S
C659 C658 1.363 . S
C659 C665 1.363 . S
C660 C661 1.363 . S
C660 C665 1.379 . S
C660 N667 1.356 . S
C661 C660 1.363 . S
C661 C664 1.363 . S
N662 C664 1.356 . S
N662 H674 0.984 . S
N662 H675 0.985 . S
N663 C665 1.356 . S
N663 H668 0.984 . S
N663 H669 0.985 . S
C664 C658 1.379 . S
C664 C661 1.363 . S
C664 N662 1.356 . S
C665 C659 1.363 . S
C665 C660 1.379 . S
C665 N663 1.356 . S
N666 C658 1.356 . S
N666 H672 0.984 . S
N666 H673 0.984 . S
N667 C660 1.356 . S
N667 H670 0.984 . S
N667 H671 0.985 . S
H668 N663 0.984 . S
H669 N663 0.985 . S
H670 N667 0.984 . S
H671 N667 0.985 . S
H672 N666 0.984 . S
H673 N666 0.984 . S
H674 N662 0.984 . S
H675 N662 0.985 . S
C676 C677 1.363 . S
C676 C682 1.379 . S
C676 N684 1.356 . S
C677 C676 1.363 . S
C677 C683 1.363 . S
C678 C679 1.363 . S
C678 C683 1.379 . S
C678 N685 1.356 . S
C679 C678 1.363 . S
C679 C682 1.363 . S
N680 C682 1.356 . S
N680 H692 0.984 . S
N680 H693 0.985 . S
N681 C683 1.356 . S
N681 H686 0.984 . S
N681 H687 0.985 . S
C682 C676 1.379 . S
C682 C679 1.363 . S
C682 N680 1.356 . S
C683 C677 1.363 . S
C683 C678 1.379 . S
C683 N681 1.356 . S
N684 C676 1.356 . S
N684 H690 0.984 . S
N684 H691 0.984 . S
N685 C678 1.356 . S
N685 H688 0.984 . S
N685 H689 0.985 . S
H686 N681 0.984 . S
H687 N681 0.985 . S
H688 N685 0.984 . S
H689 N685 0.985 . S
H690 N684 0.984 . S
H691 N684 0.984 . S
H692 N680 0.984 . S
H693 N680 0.985 . S
C694 C695 1.363 . S
C694 C700 1.379 . S
C694 N702 1.356 . S
C695 C694 1.363 . S
C695 C701 1.363 . S
C696 C697 1.363 . S
C696 C701 1.379 . S
C696 N703 1.356 . S
C697 C696 1.363 . S
C697 C700 1.363 . S
N698 C700 1.356 . S
N698 H710 0.984 . S
N698 H711 0.985 . S
N699 C701 1.356 . S
N699 H704 0.984 . S
N699 H705 0.985 . S
C700 C694 1.379 . S
C700 C697 1.363 . S
C700 N698 1.356 . S
C701 C695 1.363 . S
C701 C696 1.379 . S
C701 N699 1.356 . S
N702 C694 1.356 . S
N702 H708 0.984 . S
N702 H709 0.984 . S
N703 C696 1.356 . S
N703 H706 0.984 . S
N703 H707 0.985 . S
H704 N699 0.984 . S
H705 N699 0.985 . S
H706 N703 0.984 . S
H707 N703 0.985 . S
H708 N702 0.984 . S
H709 N702 0.984 . S
H710 N698 0.984 . S
H711 N698 0.985 . S
C712 C713 1.363 . S
C712 C718 1.379 . S
C712 N720 1.356 . S
C713 C712 1.363 . S
C713 C719 1.363 . S
C714 C715 1.363 . S
C714 C719 1.379 . S
C714 N721 1.356 . S
C715 C714 1.363 . S
C715 C718 1.363 . S
N716 C718 1.356 . S
N716 H728 0.984 . S
N716 H729 0.985 . S
N717 C719 1.356 . S
N717 H722 0.984 . S
N717 H723 0.985 . S
C718 C712 1.379 . S
C718 C715 1.363 . S
C718 N716 1.356 . S
C719 C713 1.363 . S
C719 C714 1.379 . S
C719 N717 1.356 . S
N720 C712 1.356 . S
N720 H726 0.984 . S
N720 H727 0.984 . S
N721 C714 1.356 . S
N721 H724 0.984 . S
N721 H725 0.985 . S
H722 N717 0.984 . S
H723 N717 0.985 . S
H724 N721 0.984 . S
H725 N721 0.985 . S
H726 N720 0.984 . S
H727 N720 0.984 . S
H728 N716 0.984 . S
H729 N716 0.985 . S
C730 C731 1.363 . S
C730 C736 1.379 . S
C730 N738 1.356 . S
C731 C730 1.363 . S
C731 C737 1.363 . S
C732 C733 1.363 . S
C732 C737 1.379 . S
C732 N739 1.356 . S
C733 C732 1.363 . S
C733 C736 1.363 . S
N734 C736 1.356 . S
N734 H746 0.984 . S
N734 H747 0.985 . S
N735 C737 1.356 . S
N735 H740 0.984 . S
N735 H741 0.985 1_455 S
C736 C730 1.379 . S
C736 C733 1.363 . S
C736 N734 1.356 . S
C737 C731 1.363 . S
C737 C732 1.379 . S
C737 N735 1.356 . S
N738 C730 1.356 . S
N738 H744 0.984 . S
N738 H745 0.984 . S
N739 C732 1.356 . S
N739 H742 0.984 . S
N739 H743 0.985 1_455 S
H740 N735 0.984 . S
H741 N735 0.985 1_655 S
H742 N739 0.984 . S
H743 N739 0.985 1_655 S
H744 N738 0.984 . S
H745 N738 0.984 . S
H746 N734 0.984 . S
H747 N734 0.985 . S
C748 C749 1.363 . S
C748 C754 1.379 . S
C748 N756 1.356 . S
C749 C748 1.363 . S
C749 C755 1.363 . S
C750 C751 1.363 . S
C750 C755 1.379 . S
C750 N757 1.356 . S
C751 C750 1.363 . S
C751 C754 1.363 . S
N752 C754 1.356 . S
N752 H764 0.984 . S
N752 H765 0.985 . S
N753 C755 1.356 . S
N753 H758 0.984 . S
N753 H759 0.985 . S
C754 C748 1.379 . S
C754 C751 1.363 . S
C754 N752 1.356 . S
C755 C749 1.363 . S
C755 C750 1.379 . S
C755 N753 1.356 . S
N756 C748 1.356 . S
N756 H762 0.984 . S
N756 H763 0.984 . S
N757 C750 1.356 . S
N757 H760 0.984 . S
N757 H761 0.985 . S
H758 N753 0.984 . S
H759 N753 0.985 . S
H760 N757 0.984 . S
H761 N757 0.985 . S
H762 N756 0.984 . S
H763 N756 0.984 . S
H764 N752 0.984 . S
H765 N752 0.985 . S
C766 C767 1.363 . S
C766 C772 1.379 . S
C766 N774 1.356 . S
C767 C766 1.363 . S
C767 C773 1.363 . S
C768 C769 1.363 . S
C768 C773 1.379 . S
C768 N775 1.356 . S
C769 C768 1.363 . S
C769 C772 1.363 . S
N770 C772 1.356 . S
N770 H782 0.984 . S
N770 H783 0.985 . S
N771 C773 1.356 . S
N771 H776 0.984 . S
N771 H777 0.985 . S
C772 C766 1.379 . S
C772 C769 1.363 . S
C772 N770 1.356 . S
C773 C767 1.363 . S
C773 C768 1.379 . S
C773 N771 1.356 . S
N774 C766 1.356 . S
N774 H780 0.984 . S
N774 H781 0.984 . S
N775 C768 1.356 . S
N775 H778 0.984 . S
N775 H779 0.985 . S
H776 N771 0.984 . S
H777 N771 0.985 . S
H778 N775 0.984 . S
H779 N775 0.985 . S
H780 N774 0.984 . S
H781 N774 0.984 . S
H782 N770 0.984 . S
H783 N770 0.985 . S
C784 C785 1.363 . S
C784 C790 1.379 . S
C784 N792 1.356 . S
C785 C784 1.363 . S
C785 C791 1.363 . S
C786 C787 1.363 . S
C786 C791 1.379 . S
C786 N793 1.356 . S
C787 C786 1.363 . S
C787 C790 1.363 . S
N788 C790 1.356 . S
N788 H800 0.984 . S
N788 H801 0.985 . S
N789 C791 1.356 . S
N789 H794 0.984 . S
N789 H795 0.985 . S
C790 C784 1.379 . S
C790 C787 1.363 . S
C790 N788 1.356 . S
C791 C785 1.363 . S
C791 C786 1.379 . S
C791 N789 1.356 . S
N792 C784 1.356 . S
N792 H798 0.984 . S
N792 H799 0.984 . S
N793 C786 1.356 . S
N793 H796 0.984 . S
N793 H797 0.985 . S
H794 N789 0.984 . S
H795 N789 0.985 . S
H796 N793 0.984 . S
H797 N793 0.985 . S
H798 N792 0.984 . S
H799 N792 0.984 . S
H800 N788 0.984 . S
H801 N788 0.985 . S
C802 C803 1.363 . S
C802 C808 1.379 . S
C802 N810 1.356 . S
C803 C802 1.363 . S
C803 C809 1.363 . S
C804 C805 1.363 . S
C804 C809 1.379 . S
C804 N811 1.356 . S
C805 C804 1.363 . S
C805 C808 1.363 . S
N806 C808 1.356 . S
N806 H818 0.984 . S
N806 H819 0.985 . S
N807 C809 1.356 . S
N807 H812 0.984 . S
N807 H813 0.985 . S
C808 C802 1.379 . S
C808 C805 1.363 . S
C808 N806 1.356 . S
C809 C803 1.363 . S
C809 C804 1.379 . S
C809 N807 1.356 . S
N810 C802 1.356 . S
N810 H816 0.984 . S
N810 H817 0.984 . S
N811 C804 1.356 . S
N811 H814 0.984 . S
N811 H815 0.985 . S
H812 N807 0.984 . S
H813 N807 0.985 . S
H814 N811 0.984 . S
H815 N811 0.985 . S
H816 N810 0.984 . S
H817 N810 0.984 . S
H818 N806 0.984 . S
H819 N806 0.985 . S
C820 C821 1.363 . S
C820 C826 1.379 . S
C820 N828 1.356 . S
C821 C820 1.363 . S
C821 C827 1.363 . S
C822 C823 1.363 . S
C822 C827 1.379 . S
C822 N829 1.356 . S
C823 C822 1.363 . S
C823 C826 1.363 . S
N824 C826 1.356 . S
N824 H836 0.984 . S
N824 H837 0.985 . S
N825 C827 1.356 . S
N825 H830 0.984 . S
N825 H831 0.985 . S
C826 C820 1.379 . S
C826 C823 1.363 . S
C826 N824 1.356 . S
C827 C821 1.363 . S
C827 C822 1.379 . S
C827 N825 1.356 . S
N828 C820 1.356 . S
N828 H834 0.984 . S
N828 H835 0.984 . S
N829 C822 1.356 . S
N829 H832 0.984 . S
N829 H833 0.985 . S
H830 N825 0.984 . S
H831 N825 0.985 . S
H832 N829 0.984 . S
H833 N829 0.985 . S
H834 N828 0.984 . S
H835 N828 0.984 . S
H836 N824 0.984 . S
H837 N824 0.985 . S
C838 C839 1.363 . S
C838 C844 1.379 . S
C838 N846 1.356 . S
C839 C838 1.363 . S
C839 C845 1.363 . S
C840 C841 1.363 . S
C840 C845 1.379 . S
C840 N847 1.356 . S
C841 C840 1.363 . S
C841 C844 1.363 . S
N842 C844 1.356 . S
N842 H854 0.984 . S
N842 H855 0.985 . S
N843 C845 1.356 . S
N843 H848 0.984 . S
N843 H849 0.985 . S
C844 C838 1.379 . S
C844 C841 1.363 . S
C844 N842 1.356 . S
C845 C839 1.363 . S
C845 C840 1.379 . S
C845 N843 1.356 . S
N846 C838 1.356 . S
N846 H852 0.984 . S
N846 H853 0.984 . S
N847 C840 1.356 . S
N847 H850 0.984 . S
N847 H851 0.985 . S
H848 N843 0.984 . S
H849 N843 0.985 . S
H850 N847 0.984 . S
H851 N847 0.985 . S
H852 N846 0.984 . S
H853 N846 0.984 . S
H854 N842 0.984 . S
H855 N842 0.985 . S
C856 C857 1.363 . S
C856 C862 1.379 . S
C856 N864 1.356 . S
C857 C856 1.363 . S
C857 C863 1.363 . S
C858 C859 1.363 . S
C858 C863 1.379 . S
C858 N865 1.356 . S
C859 C858 1.363 . S
C859 C862 1.363 . S
N860 C862 1.356 . S
N860 H872 0.984 . S
N860 H873 0.985 . S
N861 C863 1.356 . S
N861 H866 0.984 . S
N861 H867 0.985 . S
C862 C856 1.379 . S
C862 C859 1.363 . S
C862 N860 1.356 . S
C863 C857 1.363 . S
C863 C858 1.379 . S
C863 N861 1.356 . S
N864 C856 1.356 . S
N864 H870 0.984 . S
N864 H871 0.984 . S
N865 C858 1.356 . S
N865 H868 0.984 . S
N865 H869 0.985 . S
H866 N861 0.984 . S
H867 N861 0.985 . S
H868 N865 0.984 . S
H869 N865 0.985 . S
H870 N864 0.984 . S
H871 N864 0.984 . S
H872 N860 0.984 . S
H873 N860 0.985 . S
C874 C875 1.363 . S
C874 C880 1.379 . S
C874 N882 1.356 . S
C875 C874 1.363 . S
C875 C881 1.363 . S
C876 C877 1.363 . S
C876 C881 1.379 . S
C876 N883 1.356 . S
C877 C876 1.363 . S
C877 C880 1.363 . S
N878 C880 1.356 . S
N878 H890 0.984 . S
N878 H891 0.985 . S
N879 C881 1.356 . S
N879 H884 0.984 . S
N879 H885 0.985 . S
C880 C874 1.379 . S
C880 C877 1.363 . S
C880 N878 1.356 . S
C881 C875 1.363 . S
C881 C876 1.379 . S
C881 N879 1.356 . S
N882 C874 1.356 . S
N882 H888 0.984 . S
N882 H889 0.984 . S
N883 C876 1.356 . S
N883 H886 0.984 . S
N883 H887 0.985 . S
H884 N879 0.984 . S
H885 N879 0.985 . S
H886 N883 0.984 . S
H887 N883 0.985 . S
H888 N882 0.984 . S
H889 N882 0.984 . S
H890 N878 0.984 . S
H891 N878 0.985 . S
C892 C893 1.363 . S
C892 C898 1.379 . S
C892 N900 1.356 . S
C893 C892 1.363 . S
C893 C899 1.363 . S
C894 C895 1.363 . S
C894 C899 1.379 . S
C894 N901 1.356 . S
C895 C894 1.363 . S
C895 C898 1.363 . S
N896 C898 1.356 . S
N896 H908 0.984 . S
N896 H909 0.985 . S
N897 C899 1.356 . S
N897 H902 0.984 . S
N897 H903 0.985 . S
C898 C892 1.379 . S
C898 C895 1.363 . S
C898 N896 1.356 . S
C899 C893 1.363 . S
C899 C894 1.379 . S
C899 N897 1.356 . S
N900 C892 1.356 . S
N900 H906 0.984 . S
N900 H907 0.984 . S
N901 C894 1.356 . S
N901 H904 0.984 . S
N901 H905 0.985 . S
H902 N897 0.984 . S
H903 N897 0.985 . S
H904 N901 0.984 . S
H905 N901 0.985 . S
H906 N900 0.984 . S
H907 N900 0.984 . S
H908 N896 0.984 . S
H909 N896 0.985 . S
C910 C911 1.363 . S
C910 C916 1.379 . S
C910 N918 1.356 . S
C911 C910 1.363 . S
C911 C917 1.363 . S
C912 C913 1.363 . S
C912 C917 1.379 . S
C912 N919 1.356 . S
C913 C912 1.363 . S
C913 C916 1.363 . S
N914 C916 1.356 . S
N914 H926 0.984 . S
N914 H927 0.985 . S
N915 C917 1.356 . S
N915 H920 0.984 . S
N915 H921 0.985 . S
C916 C910 1.379 . S
C916 C913 1.363 . S
C916 N914 1.356 . S
C917 C911 1.363 . S
C917 C912 1.379 . S
C917 N915 1.356 . S
N918 C910 1.356 . S
N918 H924 0.984 . S
N918 H925 0.984 . S
N919 C912 1.356 . S
N919 H922 0.984 . S
N919 H923 0.985 . S
H920 N915 0.984 . S
H921 N915 0.985 . S
H922 N919 0.984 . S
H923 N919 0.985 . S
H924 N918 0.984 . S
H925 N918 0.984 . S
H926 N914 0.984 . S
H927 N914 0.985 . S
C928 C929 1.363 . S
C928 C934 1.379 . S
C928 N936 1.356 . S
C929 C928 1.363 . S
C929 C935 1.363 . S
C930 C931 1.363 . S
C930 C935 1.379 . S
C930 N937 1.356 . S
C931 C930 1.363 . S
C931 C934 1.363 . S
N932 C934 1.356 . S
N932 H944 0.984 . S
N932 H945 0.985 . S
N933 C935 1.356 . S
N933 H938 0.984 . S
N933 H939 0.985 . S
C934 C928 1.379 . S
C934 C931 1.363 . S
C934 N932 1.356 . S
C935 C929 1.363 . S
C935 C930 1.379 . S
C935 N933 1.356 . S
N936 C928 1.356 . S
N936 H942 0.984 . S
N936 H943 0.984 . S
N937 C930 1.356 . S
N937 H940 0.984 . S
N937 H941 0.985 . S
H938 N933 0.984 . S
H939 N933 0.985 . S
H940 N937 0.984 . S
H941 N937 0.985 . S
H942 N936 0.984 . S
H943 N936 0.984 . S
H944 N932 0.984 . S
H945 N932 0.985 . S
C946 C947 1.363 . S
C946 C952 1.379 . S
C946 N954 1.356 . S
C947 C946 1.363 . S
C947 C953 1.363 . S
C948 C949 1.363 . S
C948 C953 1.379 . S
C948 N955 1.356 . S
C949 C948 1.363 . S
C949 C952 1.363 . S
N950 C952 1.356 . S
N950 H962 0.984 . S
N950 H963 0.985 . S
N951 C953 1.356 . S
N951 H956 0.984 . S
N951 H957 0.985 . S
C952 C946 1.379 . S
C952 C949 1.363 . S
C952 N950 1.356 . S
C953 C947 1.363 . S
C953 C948 1.379 . S
C953 N951 1.356 . S
N954 C946 1.356 . S
N954 H960 0.984 . S
N954 H961 0.984 . S
N955 C948 1.356 . S
N955 H958 0.984 . S
N955 H959 0.985 . S
H956 N951 0.984 . S
H957 N951 0.985 . S
H958 N955 0.984 . S
H959 N955 0.985 . S
H960 N954 0.984 . S
H961 N954 0.984 . S
H962 N950 0.984 . S
H963 N950 0.985 . S
C964 C965 1.363 . S
C964 C970 1.379 . S
C964 N972 1.356 . S
C965 C964 1.363 . S
C965 C971 1.363 . S
C966 C967 1.363 . S
C966 C971 1.379 . S
C966 N973 1.356 . S
C967 C966 1.363 . S
C967 C970 1.363 . S
N968 C970 1.356 . S
N968 H980 0.984 . S
N968 H981 0.985 . S
N969 C971 1.356 . S
N969 H974 0.984 . S
N969 H975 0.985 . S
C970 C964 1.379 . S
C970 C967 1.363 . S
C970 N968 1.356 . S
C971 C965 1.363 . S
C971 C966 1.379 . S
C971 N969 1.356 . S
N972 C964 1.356 . S
N972 H978 0.984 . S
N972 H979 0.984 . S
N973 C966 1.356 . S
N973 H976 0.984 . S
N973 H977 0.985 . S
H974 N969 0.984 . S
H975 N969 0.985 . S
H976 N973 0.984 . S
H977 N973 0.985 . S
H978 N972 0.984 . S
H979 N972 0.984 . S
H980 N968 0.984 . S
H981 N968 0.985 . S
C982 C983 1.363 . S
C982 C988 1.379 . S
C982 N990 1.356 . S
C983 C982 1.363 . S
C983 C989 1.363 . S
C984 C985 1.363 . S
C984 C989 1.379 . S
C984 N991 1.356 . S
C985 C984 1.363 . S
C985 C988 1.363 . S
N986 C988 1.356 . S
N986 H998 0.984 . S
N986 H999 0.985 . S
N987 C989 1.356 . S
N987 H992 0.984 . S
N987 H993 0.985 . S
C988 C982 1.379 . S
C988 C985 1.363 . S
C988 N986 1.356 . S
C989 C983 1.363 . S
C989 C984 1.379 . S
C989 N987 1.356 . S
N990 C982 1.356 . S
N990 H996 0.984 . S
N990 H997 0.984 . S
N991 C984 1.356 . S
N991 H994 0.984 . S
N991 H995 0.985 . S
H992 N987 0.984 . S
H993 N987 0.985 . S
H994 N991 0.984 . S
H995 N991 0.985 . S
H996 N990 0.984 . S
H997 N990 0.984 . S
H998 N986 0.984 . S
H999 N986 0.985 . S
C1000 C1001 1.363 . S
C1000 C1006 1.379 . S
C1000 N1008 1.356 . S
C1001 C1000 1.363 . S
C1001 C1007 1.363 . S
C1002 C1003 1.363 . S
C1002 C1007 1.379 . S
C1002 N1009 1.356 . S
C1003 C1002 1.363 . S
C1003 C1006 1.363 . S
N1004 C1006 1.356 . S
N1004 H1016 0.984 . S
N1004 H1017 0.985 . S
N1005 C1007 1.356 . S
N1005 H1010 0.984 . S
N1005 H1011 0.985 . S
C1006 C1000 1.379 . S
C1006 C1003 1.363 . S
C1006 N1004 1.356 . S
C1007 C1001 1.363 . S
C1007 C1002 1.379 . S
C1007 N1005 1.356 . S
N1008 C1000 1.356 . S
N1008 H1014 0.984 . S
N1008 H1015 0.984 . S
N1009 C1002 1.356 . S
N1009 H1012 0.984 . S
N1009 H1013 0.985 . S
H1010 N1005 0.984 . S
H1011 N1005 0.985 . S
H1012 N1009 0.984 . S
H1013 N1009 0.985 . S
H1014 N1008 0.984 . S
H1015 N1008 0.984 . S
H1016 N1004 0.984 . S
H1017 N1004 0.985 . S
C1018 C1019 1.363 . S
C1018 C1024 1.379 . S
C1018 N1026 1.356 . S
C1019 C1018 1.363 . S
C1019 C1025 1.363 . S
C1020 C1021 1.363 . S
C1020 C1025 1.379 . S
C1020 N1027 1.356 . S
C1021 C1020 1.363 . S
C1021 C1024 1.363 . S
N1022 C1024 1.356 . S
N1022 H1034 0.984 . S
N1022 H1035 0.985 . S
N1023 C1025 1.356 . S
N1023 H1028 0.984 . S
N1023 H1029 0.985 . S
C1024 C1018 1.379 . S
C1024 C1021 1.363 . S
C1024 N1022 1.356 . S
C1025 C1019 1.363 . S
C1025 C1020 1.379 . S
C1025 N1023 1.356 . S
N1026 C1018 1.356 . S
N1026 H1032 0.984 . S
N1026 H1033 0.984 . S
N1027 C1020 1.356 . S
N1027 H1030 0.984 . S
N1027 H1031 0.985 . S
H1028 N1023 0.984 . S
H1029 N1023 0.985 . S
H1030 N1027 0.984 . S
H1031 N1027 0.985 . S
H1032 N1026 0.984 . S
H1033 N1026 0.984 . S
H1034 N1022 0.984 . S
H1035 N1022 0.985 . S
C1036 C1037 1.363 . S
C1036 C1042 1.379 . S
C1036 N1044 1.356 . S
C1037 C1036 1.363 . S
C1037 C1043 1.363 . S
C1038 C1039 1.363 . S
C1038 C1043 1.379 . S
C1038 N1045 1.356 . S
C1039 C1038 1.363 . S
C1039 C1042 1.363 . S
N1040 C1042 1.356 . S
N1040 H1052 0.984 . S
N1040 H1053 0.985 . S
N1041 C1043 1.356 . S
N1041 H1046 0.984 . S
N1041 H1047 0.985 . S
C1042 C1036 1.379 . S
C1042 C1039 1.363 . S
C1042 N1040 1.356 . S
C1043 C1037 1.363 . S
C1043 C1038 1.379 . S
C1043 N1041 1.356 . S
N1044 C1036 1.356 . S
N1044 H1050 0.984 . S
N1044 H1051 0.984 . S
N1045 C1038 1.356 . S
N1045 H1048 0.984 . S
N1045 H1049 0.985 . S
H1046 N1041 0.984 . S
H1047 N1041 0.985 . S
H1048 N1045 0.984 . S
H1049 N1045 0.985 . S
H1050 N1044 0.984 . S
H1051 N1044 0.984 . S
H1052 N1040 0.984 . S
H1053 N1040 0.985 . S
C1054 C1055 1.363 . S
C1054 C1060 1.379 . S
C1054 N1062 1.356 . S
C1055 C1054 1.363 . S
C1055 C1061 1.363 . S
C1056 C1057 1.363 . S
C1056 C1061 1.379 . S
C1056 N1063 1.356 . S
C1057 C1056 1.363 . S
C1057 C1060 1.363 . S
N1058 C1060 1.356 . S
N1058 H1070 0.984 . S
N1058 H1071 0.985 . S
N1059 C1061 1.356 . S
N1059 H1064 0.984 . S
N1059 H1065 0.985 . S
C1060 C1054 1.379 . S
C1060 C1057 1.363 . S
C1060 N1058 1.356 . S
C1061 C1055 1.363 . S
C1061 C1056 1.379 . S
C1061 N1059 1.356 . S
N1062 C1054 1.356 . S
N1062 H1068 0.984 . S
N1062 H1069 0.984 . S
N1063 C1056 1.356 . S
N1063 H1066 0.984 . S
N1063 H1067 0.985 . S
H1064 N1059 0.984 . S
H1065 N1059 0.985 . S
H1066 N1063 0.984 . S
H1067 N1063 0.985 . S
H1068 N1062 0.984 . S
H1069 N1062 0.984 . S
H1070 N1058 0.984 . S
H1071 N1058 0.985 . S
C641 C1 1.242 . S
C643 C495 1.446 . S
C659 C80 1.726 . S
C661 C539 1.692 . S
C679 C569 2.393 . S
C677 C140 2.251 . S
C695 C211 2.757 . S
C697 C610 2.756 . S
C715 C526 1.047 . S
C713 C31 0.920 . S
C733 C490 2.521 . S
C731 C61 2.403 . S
C751 C618 1.260 . S
C749 C151 1.216 . S
C769 C579 2.426 . S
C767 C200 2.573 . S
C785 C20 1.502 . S
C787 C615 1.671 . S
C805 C529 2.158 . S
C803 C121 2.229 . S
C821 C181 2.025 . S
C823 C498 2.040 . S
C839 C91 2.162 . S
C841 C566 2.087 . S
C859 C486 1.446 . S
C857 C260 1.336 . S
C875 C320 1.726 . S
C877 C530 1.692 . S
C893 C361 2.194 . S
C895 C578 2.393 . S
C911 C451 2.757 . S
C913 C619 2.756 . S
C929 C271 0.970 . S
C931 C535 1.047 . S
C949 C499 2.521 . S
C947 C301 2.403 . S
C967 C609 1.260 . S
C965 C380 1.165 . S
C985 C570 2.426 . S
C983 C440 2.573 . S
C1001 C241 1.472 . S
C1003 C606 1.672 . S
C1021 C538 2.158 . S
C1019 C391 2.183 . S
C1039 C489 2.040 . S
C1037 C421 2.025 . S
C1055 C331 2.162 . S
C1057 C575 2.087 . S
