# Generated by pormake.
# Topology eea, (3,6)-cn, num edge types: 1
# Building blocks:
#     Node 0, Type 0, BuildingBlock: VETTIZ_charged_linker_0, # of connection points: 3
#     Node 1, Type 0, BuildingBlock: VETTIZ_charged_linker_0, # of connection points: 3
#     Node 2, Type 0, BuildingBlock: VETTIZ_charged_linker_0, # of connection points: 3
#     Node 3, Type 0, BuildingBlock: VETTIZ_charged_linker_0, # of connection points: 3
#     Node 4, Type 0, BuildingBlock: VETTIZ_charged_linker_0, # of connection points: 3
#     Node 5, Type 0, BuildingBlock: VETTIZ_charged_linker_0, # of connection points: 3
#     Node 6, Type 0, BuildingBlock: VETTIZ_charged_linker_0, # of connection points: 3
#     Node 7, Type 0, BuildingBlock: VETTIZ_charged_linker_0, # of connection points: 3
#     Node 8, Type 0, BuildingBlock: VETTIZ_charged_linker_0, # of connection points: 3
#     Node 9, Type 0, BuildingBlock: VETTIZ_charged_linker_0, # of connection points: 3
#     Node 10, Type 0, BuildingBlock: VETTIZ_charged_linker_0, # of connection points: 3
#     Node 11, Type 0, BuildingBlock: VETTIZ_charged_linker_0, # of connection points: 3
#     Node 12, Type 0, BuildingBlock: VETTIZ_charged_linker_0, # of connection points: 3
#     Node 13, Type 0, BuildingBlock: VETTIZ_charged_linker_0, # of connection points: 3
#     Node 14, Type 0, BuildingBlock: VETTIZ_charged_linker_0, # of connection points: 3
#     Node 15, Type 0, BuildingBlock: VETTIZ_charged_linker_0, # of connection points: 3
#     Node 16, Type 0, BuildingBlock: VETTIZ_charged_linker_0, # of connection points: 3
#     Node 17, Type 0, BuildingBlock: VETTIZ_charged_linker_0, # of connection points: 3
#     Node 18, Type 1, BuildingBlock: CUKXOW_clean_sbu_0, # of connection points: 6
#     Node 19, Type 1, BuildingBlock: CUKXOW_clean_sbu_0, # of connection points: 6
#     Node 20, Type 1, BuildingBlock: CUKXOW_clean_sbu_0, # of connection points: 6
#     Node 21, Type 1, BuildingBlock: CUKXOW_clean_sbu_0, # of connection points: 6
#     Node 22, Type 1, BuildingBlock: CUKXOW_clean_sbu_0, # of connection points: 6
#     Node 23, Type 1, BuildingBlock: CUKXOW_clean_sbu_0, # of connection points: 6
#     Node 24, Type 1, BuildingBlock: CUKXOW_clean_sbu_0, # of connection points: 6
#     Node 25, Type 1, BuildingBlock: CUKXOW_clean_sbu_0, # of connection points: 6
#     Node 26, Type 1, BuildingBlock: CUKXOW_clean_sbu_0, # of connection points: 6
#     Edge 27, Type (0, 1), BuildingBlock: EZIPEK_clean_linker_0, # of connection points: 2
#     Edge 28, Type (0, 1), BuildingBlock: EZIPEK_clean_linker_0, # of connection points: 2
#     Edge 29, Type (0, 1), BuildingBlock: EZIPEK_clean_linker_0, # of connection points: 2
#     Edge 30, Type (0, 1), BuildingBlock: EZIPEK_clean_linker_0, # of connection points: 2
#     Edge 31, Type (0, 1), BuildingBlock: EZIPEK_clean_linker_0, # of connection points: 2
#     Edge 32, Type (0, 1), BuildingBlock: EZIPEK_clean_linker_0, # of connection points: 2
#     Edge 33, Type (0, 1), BuildingBlock: EZIPEK_clean_linker_0, # of connection points: 2
#     Edge 34, Type (0, 1), BuildingBlock: EZIPEK_clean_linker_0, # of connection points: 2
#     Edge 35, Type (0, 1), BuildingBlock: EZIPEK_clean_linker_0, # of connection points: 2
#     Edge 36, Type (0, 1), BuildingBlock: EZIPEK_clean_linker_0, # of connection points: 2
#     Edge 37, Type (0, 1), BuildingBlock: EZIPEK_clean_linker_0, # of connection points: 2
#     Edge 38, Type (0, 1), BuildingBlock: EZIPEK_clean_linker_0, # of connection points: 2
#     Edge 39, Type (0, 1), BuildingBlock: EZIPEK_clean_linker_0, # of connection points: 2
#     Edge 40, Type (0, 1), BuildingBlock: EZIPEK_clean_linker_0, # of connection points: 2
#     Edge 41, Type (0, 1), BuildingBlock: EZIPEK_clean_linker_0, # of connection points: 2
#     Edge 42, Type (0, 1), BuildingBlock: EZIPEK_clean_linker_0, # of connection points: 2
#     Edge 43, Type (0, 1), BuildingBlock: EZIPEK_clean_linker_0, # of connection points: 2
#     Edge 44, Type (0, 1), BuildingBlock: EZIPEK_clean_linker_0, # of connection points: 2
#     Edge 45, Type (0, 1), BuildingBlock: EZIPEK_clean_linker_0, # of connection points: 2
#     Edge 46, Type (0, 1), BuildingBlock: EZIPEK_clean_linker_0, # of connection points: 2
#     Edge 47, Type (0, 1), BuildingBlock: EZIPEK_clean_linker_0, # of connection points: 2
#     Edge 48, Type (0, 1), BuildingBlock: EZIPEK_clean_linker_0, # of connection points: 2
#     Edge 49, Type (0, 1), BuildingBlock: EZIPEK_clean_linker_0, # of connection points: 2
#     Edge 50, Type (0, 1), BuildingBlock: EZIPEK_clean_linker_0, # of connection points: 2
#     Edge 51, Type (0, 1), BuildingBlock: EZIPEK_clean_linker_0, # of connection points: 2
#     Edge 52, Type (0, 1), BuildingBlock: EZIPEK_clean_linker_0, # of connection points: 2
#     Edge 53, Type (0, 1), BuildingBlock: EZIPEK_clean_linker_0, # of connection points: 2
#     Edge 54, Type (0, 1), BuildingBlock: EZIPEK_clean_linker_0, # of connection points: 2
#     Edge 55, Type (0, 1), BuildingBlock: EZIPEK_clean_linker_0, # of connection points: 2
#     Edge 56, Type (0, 1), BuildingBlock: EZIPEK_clean_linker_0, # of connection points: 2
#     Edge 57, Type (0, 1), BuildingBlock: EZIPEK_clean_linker_0, # of connection points: 2
#     Edge 58, Type (0, 1), BuildingBlock: EZIPEK_clean_linker_0, # of connection points: 2
#     Edge 59, Type (0, 1), BuildingBlock: EZIPEK_clean_linker_0, # of connection points: 2
#     Edge 60, Type (0, 1), BuildingBlock: EZIPEK_clean_linker_0, # of connection points: 2
#     Edge 61, Type (0, 1), BuildingBlock: EZIPEK_clean_linker_0, # of connection points: 2
#     Edge 62, Type (0, 1), BuildingBlock: EZIPEK_clean_linker_0, # of connection points: 2
#     Edge 63, Type (0, 1), BuildingBlock: EZIPEK_clean_linker_0, # of connection points: 2
#     Edge 64, Type (0, 1), BuildingBlock: EZIPEK_clean_linker_0, # of connection points: 2
#     Edge 65, Type (0, 1), BuildingBlock: EZIPEK_clean_linker_0, # of connection points: 2
#     Edge 66, Type (0, 1), BuildingBlock: EZIPEK_clean_linker_0, # of connection points: 2
#     Edge 67, Type (0, 1), BuildingBlock: EZIPEK_clean_linker_0, # of connection points: 2
#     Edge 68, Type (0, 1), BuildingBlock: EZIPEK_clean_linker_0, # of connection points: 2
#     Edge 69, Type (0, 1), BuildingBlock: EZIPEK_clean_linker_0, # of connection points: 2
#     Edge 70, Type (0, 1), BuildingBlock: EZIPEK_clean_linker_0, # of connection points: 2
#     Edge 71, Type (0, 1), BuildingBlock: EZIPEK_clean_linker_0, # of connection points: 2
#     Edge 72, Type (0, 1), BuildingBlock: EZIPEK_clean_linker_0, # of connection points: 2
#     Edge 73, Type (0, 1), BuildingBlock: EZIPEK_clean_linker_0, # of connection points: 2
#     Edge 74, Type (0, 1), BuildingBlock: EZIPEK_clean_linker_0, # of connection points: 2
#     Edge 75, Type (0, 1), BuildingBlock: EZIPEK_clean_linker_0, # of connection points: 2
#     Edge 76, Type (0, 1), BuildingBlock: EZIPEK_clean_linker_0, # of connection points: 2
#     Edge 77, Type (0, 1), BuildingBlock: EZIPEK_clean_linker_0, # of connection points: 2
#     Edge 78, Type (0, 1), BuildingBlock: EZIPEK_clean_linker_0, # of connection points: 2
#     Edge 79, Type (0, 1), BuildingBlock: EZIPEK_clean_linker_0, # of connection points: 2
#     Edge 80, Type (0, 1), BuildingBlock: EZIPEK_clean_linker_0, # of connection points: 2
# Relax obj value: 0.018
# Max RMSD: 0.126
# Mean RMSD: 0.060
data_MOF--net-eea--node1-CUKXOW_clean_sbu_0--node2-VETTIZ_charged_linker_0--edge1-EZIPEK_clean_linker_0
_symmetry_space_group_name_H-M    P1
_symmetry_Int_Tables_number       1
_symmetry_cell_setting            triclinic
loop_
_symmetry_equiv_pos_as_xyz
'x, y, z'
_cell_length_a     52.739434
_cell_length_b     49.611178
_cell_length_c     56.626024
_cell_angle_alpha  93.23671
_cell_angle_beta   93.076969
_cell_angle_gamma 120.00327
loop_
_atom_site_label
_atom_site_type_symbol
_atom_site_fract_x
_atom_site_fract_y
_atom_site_fract_z
_atom_type_partial_charge
C0 C 0.21283 0.19004 0.39327 0.0
C1 C 0.2222 0.22116 0.40129 0.0
C2 C 0.24141 0.23477 0.42233 0.0
C3 C 0.24053 0.18605 0.42732 0.0
C4 C 0.22282 0.17333 0.40614 0.0
C5 C 0.21721 0.14119 0.39865 0.0
H6 H 0.23301 0.0177 0.42029 0.0
C7 C 0.24684 0.16229 0.43623 0.0
C8 C 0.23375 0.13628 0.41913 0.0
H9 H 0.19098 0.03031 0.35776 0.0
H10 H 0.20257 0.08129 0.37501 0.0
H11 H 0.28839 0.08334 0.42532 0.0
H12 H 0.20856 0.05053 0.4596 0.0
H13 H 0.23873 0.0716 0.48117 0.0
H14 H 0.2341 0.03707 0.4648 0.0
H15 H 0.28197 0.06147 0.45069 0.0
H16 H 0.29863 0.10353 0.45381 0.0
C17 C 0.23091 0.1423 0.37486 0.0
C18 C 0.18364 0.11815 0.39745 0.0
C19 C 0.29574 0.17755 0.52023 0.0
C20 C 0.30389 0.15889 0.5328 0.0
C21 C 0.30072 0.13151 0.5209 0.0
C22 C 0.28832 0.12186 0.49735 0.0
C23 C 0.27901 0.13982 0.4853 0.0
C24 C 0.28369 0.16774 0.49638 0.0
C25 C 0.27439 0.18475 0.47984 0.0
C26 C 0.26156 0.16135 0.45776 0.0
C27 C 0.26412 0.13493 0.46125 0.0
C28 C 0.30214 0.21555 0.47508 0.0
C29 C 0.25077 0.18969 0.49106 0.0
C30 C 0.22621 0.03154 0.41052 0.0
C31 C 0.21084 0.02011 0.3878 0.0
C32 C 0.20262 0.03872 0.37535 0.0
C33 C 0.20954 0.06833 0.38538 0.0
C34 C 0.22511 0.07965 0.40804 0.0
C35 C 0.23324 0.06138 0.42021 0.0
C36 C 0.25034 0.07768 0.44381 0.0
C37 C 0.25132 0.10886 0.44367 0.0
C38 C 0.23626 0.10963 0.42277 0.0
C39 C 0.28141 0.08163 0.44364 0.0
C40 C 0.23226 0.0583 0.46352 0.0
H41 H 0.26444 0.22864 0.45161 0.0
H42 H 0.19844 0.17913 0.37702 0.0
H43 H 0.17414 0.12374 0.41276 0.0
H44 H 0.17793 0.09364 0.39851 0.0
H45 H 0.17223 0.11957 0.3809 0.0
H46 H 0.24923 0.16622 0.3727 0.0
H47 H 0.21432 0.13524 0.35937 0.0
H48 H 0.24109 0.12748 0.37384 0.0
H49 H 0.29823 0.19887 0.52891 0.0
H50 H 0.30702 0.11694 0.53021 0.0
H51 H 0.28601 0.10046 0.48954 0.0
H52 H 0.32233 0.21376 0.47734 0.0
H53 H 0.30553 0.23549 0.48746 0.0
H54 H 0.30124 0.22128 0.45656 0.0
H55 H 0.23323 0.16734 0.49681 0.0
H56 H 0.23976 0.19777 0.47861 0.0
H57 H 0.26058 0.20708 0.50692 0.0
H58 H 0.24912 0.25886 0.42872 0.0
C59 C 0.2503 0.21727 0.43554 0.0
C60 C 0.95204 0.1803 0.39807 0.0
C61 C 0.96943 0.21263 0.40416 0.0
C62 C 0.96217 0.22641 0.4232 0.0
C63 C 0.92241 0.17538 0.4308 0.0
C64 C 0.92831 0.16247 0.41104 0.0
C65 C 0.90563 0.12875 0.4047 0.0
H66 H 0.7789 0.00218 0.4266 0.0
C67 C 0.89709 0.14973 0.441 0.0
C68 C 0.88702 0.12255 0.4254 0.0
H69 H 0.82617 0.01649 0.36429 0.0
H70 H 0.86505 0.06652 0.38268 0.0
H71 H 0.82894 0.01966 0.46105 0.0
H72 H 0.79255 0.07611 0.44246 0.0
H73 H 0.79699 0.07398 0.47374 0.0
H74 H 0.7754 0.03885 0.45459 0.0
H75 H 0.809 0.02847 0.48149 0.0
H76 H 0.84838 0.05306 0.48181 0.0
C77 C 0.92116 0.10926 0.40444 0.0
C78 C 0.88844 0.12605 0.38064 0.0
C79 C 0.86295 0.16541 0.5213 0.0
C80 C 0.84626 0.1437 0.53732 0.0
C81 C 0.83597 0.11166 0.53108 0.0
C82 C 0.83937 0.10113 0.50871 0.0
C83 C 0.85443 0.12278 0.49259 0.0
C84 C 0.86801 0.15439 0.49956 0.0
C85 C 0.88916 0.17336 0.48199 0.0
C86 C 0.88415 0.14778 0.46281 0.0
C87 C 0.8625 0.11843 0.46883 0.0
C88 C 0.92059 0.18985 0.49478 0.0
C89 C 0.87998 0.19608 0.47247 0.0
C90 C 0.79745 0.01658 0.41689 0.0
C91 C 0.79927 0.00609 0.39376 0.0
C92 C 0.82416 0.02459 0.38188 0.0
C93 C 0.84657 0.05361 0.39256 0.0
C94 C 0.84416 0.06424 0.41541 0.0
C95 C 0.82028 0.04555 0.42747 0.0
C96 C 0.82299 0.05967 0.45245 0.0
C97 C 0.85055 0.09165 0.45208 0.0
C98 C 0.8628 0.09387 0.43044 0.0
C99 C 0.8275 0.03925 0.47015 0.0
C100 C 0.79549 0.06236 0.45608 0.0
H101 H 0.93454 0.21957 0.45107 0.0
H102 H 0.95647 0.16919 0.38311 0.0
H103 H 0.89177 0.14905 0.37604 0.0
H104 H 0.86433 0.11127 0.38104 0.0
H105 H 0.89548 0.11658 0.36574 0.0
H106 H 0.9376 0.1169 0.42016 0.0
H107 H 0.93291 0.11212 0.38823 0.0
H108 H 0.90579 0.08407 0.40537 0.0
H109 H 0.872 0.19025 0.52564 0.0
H110 H 0.82418 0.09449 0.54331 0.0
H111 H 0.83039 0.07653 0.50476 0.0
H112 H 0.92402 0.17326 0.50502 0.0
H113 H 0.9243 0.20969 0.50746 0.0
H114 H 0.93788 0.19868 0.48249 0.0
H115 H 0.85572 0.18396 0.46824 0.0
H116 H 0.88958 0.20508 0.45582 0.0
H117 H 0.88645 0.2162 0.48587 0.0
H118 H 0.97486 0.25146 0.42784 0.0
C119 C 0.93898 0.2079 0.43674 0.0
C120 C 0.97241 0.7775 0.41679 0.0
C121 C 0.99216 0.76868 0.42582 0.0
C122 C 0.98548 0.75094 0.4455 0.0
C123 C 0.93952 0.75103 0.44678 0.0
C124 C 0.94621 0.76815 0.42728 0.0
C125 C 0.922 0.77373 0.41859 0.0
H126 H 0.78214 0.74031 0.42136 0.0
C127 C 0.91033 0.74496 0.45315 0.0
C128 C 0.90001 0.7582 0.43662 0.0
H129 H 0.84577 0.79623 0.37402 0.0
H130 H 0.88296 0.79307 0.39669 0.0
H131 H 0.80343 0.68806 0.43385 0.0
H132 H 0.82269 0.77813 0.46456 0.0
H133 H 0.83384 0.76224 0.48719 0.0
H134 H 0.79562 0.74305 0.47567 0.0
H135 H 0.77765 0.69833 0.44481 0.0
H136 H 0.79869 0.68874 0.46479 0.0
C137 C 0.91023 0.75668 0.39324 0.0
C138 C 0.93421 0.80951 0.42006 0.0
C139 C 0.86538 0.68507 0.5243 0.0
C140 C 0.84188 0.68177 0.53705 0.0
C141 C 0.82432 0.69373 0.52817 0.0
C142 C 0.82954 0.70795 0.50686 0.0
C143 C 0.85319 0.7113 0.49458 0.0
C144 C 0.87138 0.70112 0.50381 0.0
C145 C 0.89839 0.71181 0.4906 0.0
C146 C 0.89285 0.72924 0.4716 0.0
C147 C 0.8657 0.72773 0.47352 0.0
C148 C 0.89844 0.68253 0.47974 0.0
C149 C 0.92573 0.73389 0.50807 0.0
C150 C 0.80333 0.74966 0.41447 0.0
C151 C 0.80873 0.76278 0.39233 0.0
C152 C 0.83872 0.78075 0.3879 0.0
C153 C 0.86101 0.77987 0.40175 0.0
C154 C 0.854 0.76218 0.42125 0.0
C155 C 0.82599 0.74905 0.42827 0.0
C156 C 0.82398 0.73558 0.45184 0.0
C157 C 0.85456 0.73959 0.45602 0.0
C158 C 0.8719 0.75515 0.43793 0.0
C159 C 0.7996 0.70076 0.44878 0.0
C160 C 0.81863 0.75558 0.47083 0.0
H161 H 0.95529 0.72861 0.47104 0.0
H162 H 0.97697 0.79073 0.40143 0.0
H163 H 0.95282 0.82226 0.43415 0.0
H164 H 0.91772 0.81586 0.42506 0.0
H165 H 0.94236 0.81901 0.40299 0.0
H166 H 0.90784 0.73305 0.39247 0.0
H167 H 0.9256 0.76995 0.38006 0.0
H168 H 0.88828 0.75258 0.38728 0.0
H169 H 0.87958 0.67662 0.53078 0.0
H170 H 0.80642 0.692 0.53778 0.0
H171 H 0.81532 0.7163 0.5009 0.0
H172 H 0.87592 0.66431 0.4722 0.0
H173 H 0.90595 0.67221 0.49343 0.0
H174 H 0.9123 0.68739 0.46483 0.0
H175 H 0.92073 0.74814 0.5208 0.0
H176 H 0.94436 0.75118 0.49911 0.0
H177 H 0.93311 0.72042 0.5186 0.0
H178 H 1.00048 0.74376 0.45249 0.0
C179 C 0.95931 0.74221 0.45615 0.0
C180 C 0.17906 0.2317 0.60021 0.0
C181 C 0.20568 0.23759 0.59186 0.0
C182 C 0.21583 0.25527 0.57234 0.0
C183 C 0.17263 0.26095 0.56977 0.0
C184 C 0.16292 0.24344 0.5889 0.0
C185 C 0.13385 0.23864 0.59538 0.0
H186 H 0.01642 0.25699 0.57472 0.0
C187 C 0.15028 0.26922 0.56207 0.0
C188 C 0.12751 0.25606 0.57696 0.0
H189 H 0.03367 0.20975 0.62966 0.0
H190 H 0.08021 0.22316 0.61523 0.0
H191 H 0.08461 0.31814 0.57822 0.0
H192 H 0.04171 0.2318 0.53214 0.0
H193 H 0.06241 0.26304 0.51527 0.0
H194 H 0.032 0.26149 0.52952 0.0
H195 H 0.05477 0.30879 0.5563 0.0
H196 H 0.0921 0.32616 0.54863 0.0
C197 C 0.1384 0.25431 0.62097 0.0
C198 C 0.11137 0.20298 0.59203 0.0
C199 C 0.16396 0.3297 0.48991 0.0
C200 C 0.145 0.33609 0.47613 0.0
C201 C 0.11834 0.33037 0.48475 0.0
C202 C 0.10989 0.31678 0.50621 0.0
C203 C 0.12807 0.30829 0.51896 0.0
C204 C 0.15485 0.31529 0.51091 0.0
C205 C 0.17019 0.3022 0.52533 0.0
C206 C 0.14847 0.28643 0.54347 0.0
C207 C 0.12374 0.29005 0.53982 0.0
C208 C 0.19967 0.32988 0.53706 0.0
C209 C 0.17343 0.27824 0.50882 0.0
C210 C 0.03043 0.24965 0.58345 0.0
C211 C 0.0216 0.23221 0.60328 0.0
C212 C 0.04017 0.22307 0.61436 0.0
C213 C 0.0672 0.23095 0.60592 0.0
C214 C 0.07589 0.24821 0.58609 0.0
C215 C 0.0578 0.25748 0.57517 0.0
C216 C 0.07123 0.27582 0.55432 0.0
C217 C 0.10038 0.27621 0.55481 0.0
C218 C 0.1026 0.25966 0.57337 0.0
C219 C 0.07585 0.309 0.5594 0.0
C220 C 0.05083 0.25736 0.53152 0.0
H221 H 0.20829 0.28053 0.54653 0.0
H222 H 0.17095 0.21812 0.61522 0.0
H223 H 0.11622 0.19133 0.577 0.0
H224 H 0.08858 0.19745 0.5873 0.0
H225 H 0.11202 0.19161 0.60822 0.0
H226 H 0.16094 0.27495 0.62485 0.0
H227 H 0.13543 0.23778 0.63444 0.0
H228 H 0.12363 0.26377 0.62378 0.0
H229 H 0.1841 0.33298 0.48325 0.0
H230 H 0.10327 0.3347 0.47414 0.0
H231 H 0.08895 0.31212 0.5115 0.0
H232 H 0.19676 0.34964 0.54363 0.0
H233 H 0.21652 0.33866 0.52414 0.0
H234 H 0.20842 0.32392 0.5528 0.0
H235 H 0.15487 0.26643 0.49459 0.0
H236 H 0.17263 0.25893 0.51819 0.0
H237 H 0.19414 0.28982 0.50003 0.0
H238 H 0.23646 0.26 0.56581 0.0
C239 C 0.19947 0.26712 0.56128 0.0
C240 C 0.76949 0.80647 0.62148 0.0
C241 C 0.76865 0.77976 0.61074 0.0
C242 C 0.75917 0.771 0.58631 0.0
C243 C 0.7519 0.81533 0.58378 0.0
C244 C 0.7619 0.82431 0.60758 0.0
C245 C 0.76556 0.85562 0.61543 0.0
H246 H 0.75701 0.98224 0.58849 0.0
C247 C 0.74671 0.83948 0.57426 0.0
C248 C 0.75526 0.86346 0.59263 0.0
H249 H 0.79238 0.96846 0.65424 0.0
H250 H 0.77959 0.91637 0.63841 0.0
H251 H 0.78646 0.95776 0.55599 0.0
H252 H 0.69918 0.90956 0.57844 0.0
H253 H 0.69657 0.8997 0.54773 0.0
H254 H 0.7111 0.93995 0.55879 0.0
H255 H 0.75725 0.96187 0.54234 0.0
H256 H 0.76401 0.93118 0.53182 0.0
C257 C 0.79865 0.87874 0.62318 0.0
C258 C 0.74494 0.85111 0.63515 0.0
C259 C 0.69929 0.82306 0.48981 0.0
C260 C 0.69381 0.84257 0.47588 0.0
C261 C 0.7014 0.87261 0.48584 0.0
C262 C 0.71388 0.88301 0.50933 0.0
C263 C 0.7194 0.86342 0.52301 0.0
C264 C 0.71259 0.83417 0.51314 0.0
C265 C 0.72255 0.81787 0.52977 0.0
C266 C 0.73498 0.8415 0.55164 0.0
C267 C 0.73287 0.868 0.54754 0.0
C268 C 0.74667 0.81364 0.51849 0.0
C269 C 0.69533 0.78688 0.53473 0.0
C270 C 0.76162 0.96772 0.59947 0.0
C271 C 0.77554 0.9791 0.62258 0.0
C272 C 0.78158 0.9599 0.6364 0.0
C273 C 0.77431 0.92985 0.62711 0.0
C274 C 0.76126 0.91909 0.60364 0.0
C275 C 0.75497 0.93788 0.5903 0.0
C276 C 0.74223 0.92317 0.56543 0.0
C277 C 0.74218 0.89258 0.56594 0.0
C278 C 0.75318 0.89025 0.58838 0.0
C279 C 0.7633 0.94453 0.54784 0.0
C280 C 0.71066 0.91789 0.56218 0.0
H281 H 0.74324 0.78042 0.55445 0.0
H282 H 0.77707 0.81398 0.64012 0.0
H283 H 0.72298 0.82988 0.63033 0.0
H284 H 0.74068 0.87065 0.63791 0.0
H285 H 0.75411 0.84816 0.65229 0.0
H286 H 0.81295 0.87163 0.61421 0.0
H287 H 0.80366 0.87991 0.64264 0.0
H288 H 0.80604 0.90259 0.61812 0.0
H289 H 0.69408 0.80005 0.48242 0.0
H290 H 0.69764 0.88809 0.47533 0.0
H291 H 0.71903 0.90607 0.51582 0.0
H292 H 0.75761 0.83084 0.50537 0.0
H293 H 0.73731 0.78991 0.50907 0.0
H294 H 0.76478 0.8179 0.53178 0.0
H295 H 0.67727 0.79098 0.53951 0.0
H296 H 0.6998 0.77608 0.54969 0.0
H297 H 0.68704 0.76967 0.51876 0.0
H298 H 0.75856 0.75062 0.57764 0.0
C299 C 0.75043 0.78838 0.57288 0.0
C300 C 0.03848 0.81042 0.60978 0.0
C301 C 0.01397 0.78428 0.59763 0.0
C302 C 0.01555 0.77495 0.57401 0.0
C303 C 0.06597 0.81823 0.57509 0.0
C304 C 0.064 0.82691 0.59831 0.0
C305 C 0.09151 0.85558 0.60902 0.0
H306 H 0.22277 0.9807 0.59578 0.0
C307 C 0.09579 0.84106 0.56856 0.0
C308 C 0.11061 0.86287 0.5886 0.0
H309 H 0.17735 0.9571 0.65928 0.0
H310 H 0.13951 0.90774 0.63899 0.0
H311 H 0.21839 0.91716 0.58722 0.0
H312 H 0.1669 0.95264 0.55549 0.0
H313 H 0.17712 0.93493 0.53286 0.0
H314 H 0.2052 0.9668 0.55254 0.0
H315 H 0.22769 0.93568 0.56028 0.0
H316 H 0.20317 0.89398 0.55998 0.0
C317 C 0.10426 0.84673 0.63064 0.0
C318 C 0.0837 0.88129 0.61506 0.0
C319 C 0.12928 0.83463 0.48568 0.0
C320 C 0.15667 0.85261 0.47641 0.0
C321 C 0.18003 0.87726 0.49116 0.0
C322 C 0.17632 0.88474 0.51433 0.0
C323 C 0.14903 0.86719 0.52333 0.0
C324 C 0.12616 0.84203 0.50944 0.0
C325 C 0.09954 0.82498 0.52324 0.0
C326 C 0.11032 0.84448 0.54736 0.0
C327 C 0.13921 0.8695 0.54688 0.0
C328 C 0.09353 0.79138 0.52511 0.0
C329 C 0.07354 0.82635 0.51066 0.0
C330 C 0.20454 0.96482 0.60519 0.0
C331 C 0.20237 0.97304 0.62885 0.0
C332 C 0.17902 0.95142 0.64088 0.0
C333 C 0.15714 0.92283 0.62905 0.0
C334 C 0.15893 0.91548 0.60505 0.0
C335 C 0.18294 0.9358 0.59384 0.0
C336 C 0.18281 0.92261 0.56923 0.0
C337 C 0.15351 0.89202 0.56685 0.0
C338 C 0.13951 0.8883 0.58773 0.0
C339 C 0.20939 0.91718 0.56899 0.0
C340 C 0.18316 0.94538 0.55146 0.0
H341 H 0.04142 0.78392 0.54459 0.0
H342 H 0.0377 0.81802 0.62791 0.0
H343 H 0.06827 0.88099 0.60071 0.0
H344 H 0.10282 0.9052 0.61661 0.0
H345 H 0.07289 0.87758 0.63184 0.0
H346 H 0.09793 0.82164 0.62856 0.0
H347 H 0.09614 0.85081 0.6474 0.0
H348 H 0.1286 0.85958 0.63265 0.0
H349 H 0.11095 0.81545 0.47474 0.0
H350 H 0.20122 0.89129 0.48445 0.0
H351 H 0.1949 0.90424 0.52426 0.0
H352 H 0.11443 0.7916 0.52964 0.0
H353 H 0.08317 0.77673 0.50797 0.0
H354 H 0.07937 0.77983 0.53925 0.0
H355 H 0.08103 0.85001 0.50481 0.0
H356 H 0.05611 0.82198 0.52239 0.0
H357 H 0.06373 0.80915 0.4947 0.0
H358 H 0.99667 0.75482 0.56436 0.0
C359 C 0.04146 0.79184 0.56264 0.0
C360 C 0.88531 0.52641 0.72474 0.0
C361 C 0.89468 0.55736 0.73324 0.0
C362 C 0.91373 0.57048 0.75439 0.0
C363 C 0.9128 0.5216 0.75851 0.0
C364 C 0.89516 0.50935 0.73726 0.0
C365 C 0.88929 0.47721 0.72938 0.0
H366 H 0.91276 0.3583 0.74637 0.0
C367 C 0.91916 0.49766 0.76689 0.0
C368 C 0.90599 0.47196 0.74951 0.0
H369 H 0.86049 0.36622 0.68863 0.0
H370 H 0.8702 0.41489 0.7071 0.0
H371 H 0.96626 0.42784 0.75239 0.0
H372 H 0.88555 0.38168 0.78561 0.0
H373 H 0.91331 0.40645 0.80793 0.0
H374 H 0.91556 0.37513 0.79232 0.0
H375 H 0.96034 0.40095 0.77424 0.0
H376 H 0.97478 0.44204 0.78257 0.0
C377 C 0.90276 0.47881 0.70546 0.0
C378 C 0.85568 0.45415 0.72826 0.0
C379 C 0.96973 0.5116 0.84995 0.0
C380 C 0.97824 0.49276 0.86185 0.0
C381 C 0.97515 0.46574 0.84938 0.0
C382 C 0.96255 0.45666 0.82586 0.0
C383 C 0.95308 0.47489 0.81443 0.0
C384 C 0.95748 0.50236 0.82613 0.0
C385 C 0.94754 0.51952 0.81029 0.0
C386 C 0.9345 0.49656 0.78799 0.0
C387 C 0.93778 0.47045 0.79065 0.0
C388 C 0.97495 0.55068 0.80559 0.0
C389 C 0.92395 0.52381 0.82222 0.0
C390 C 0.90521 0.3712 0.73633 0.0
C391 C 0.89039 0.36002 0.71314 0.0
C392 C 0.87616 0.37569 0.70413 0.0
C393 C 0.88102 0.40397 0.71543 0.0
C394 C 0.89923 0.41652 0.73678 0.0
C395 C 0.91006 0.39957 0.74734 0.0
C396 C 0.92675 0.41508 0.7712 0.0
C397 C 0.92539 0.445 0.77259 0.0
C398 C 0.90921 0.44561 0.75236 0.0
C399 C 0.95869 0.42173 0.77031 0.0
C400 C 0.90971 0.39357 0.7904 0.0
H401 H 0.93653 0.56358 0.78342 0.0
H402 H 0.87091 0.51586 0.70845 0.0
H403 H 0.84539 0.46192 0.74166 0.0
H404 H 0.85028 0.43052 0.73263 0.0
H405 H 0.84462 0.45232 0.7105 0.0
H406 H 0.92414 0.50097 0.70555 0.0
H407 H 0.88792 0.47797 0.6904 0.0
H408 H 0.90794 0.46013 0.70177 0.0
H409 H 0.9721 0.5326 0.85911 0.0
H410 H 0.98168 0.45104 0.85821 0.0
H411 H 0.9603 0.43548 0.81761 0.0
H412 H 0.99537 0.54933 0.80757 0.0
H413 H 0.97813 0.57035 0.81819 0.0
H414 H 0.97374 0.5566 0.78717 0.0
H415 H 0.90673 0.5012 0.82786 0.0
H416 H 0.91255 0.53194 0.81023 0.0
H417 H 0.9339 0.5409 0.83824 0.0
H418 H 0.92132 0.59441 0.76117 0.0
C419 C 0.92252 0.55263 0.76723 0.0
C420 C 0.61379 0.51734 0.72799 0.0
C421 C 0.63691 0.54749 0.73676 0.0
C422 C 0.63849 0.55585 0.76151 0.0
C423 C 0.59049 0.5107 0.76477 0.0
C424 C 0.59056 0.50033 0.74167 0.0
C425 C 0.56308 0.47008 0.7333 0.0
H426 H 0.42746 0.35535 0.75231 0.0
C427 C 0.56185 0.48853 0.77335 0.0
C428 C 0.54561 0.46504 0.75464 0.0
H429 H 0.47711 0.36076 0.69283 0.0
H430 H 0.51676 0.4113 0.7096 0.0
H431 H 0.48378 0.38076 0.79264 0.0
H432 H 0.44109 0.42397 0.75755 0.0
H433 H 0.45679 0.44646 0.785 0.0
H434 H 0.4287 0.40573 0.7843 0.0
H435 H 0.44645 0.37124 0.79524 0.0
H436 H 0.47628 0.40259 0.81396 0.0
C437 C 0.57152 0.44452 0.7289 0.0
C438 C 0.54811 0.47544 0.71116 0.0
C439 C 0.53707 0.50177 0.858 0.0
C440 C 0.51044 0.48676 0.86875 0.0
C441 C 0.48447 0.46496 0.85465 0.0
C442 C 0.48514 0.45645 0.83085 0.0
C443 C 0.51198 0.4702 0.8207 0.0
C444 C 0.53712 0.49367 0.83372 0.0
C445 C 0.5625 0.50844 0.81847 0.0
C446 C 0.54891 0.48813 0.79492 0.0
C447 C 0.51945 0.46529 0.79671 0.0
C448 C 0.58824 0.50534 0.82951 0.0
C449 C 0.57023 0.54264 0.81641 0.0
C450 C 0.44679 0.36786 0.74286 0.0
C451 C 0.44937 0.35445 0.72126 0.0
C452 C 0.47479 0.37093 0.70943 0.0
C453 C 0.49781 0.40009 0.71933 0.0
C454 C 0.49548 0.41283 0.74139 0.0
C455 C 0.47024 0.39681 0.75276 0.0
C456 C 0.47233 0.41315 0.77663 0.0
C457 C 0.50326 0.44136 0.77787 0.0
C458 C 0.51648 0.44109 0.75711 0.0
C459 C 0.46946 0.3909 0.79576 0.0
C460 C 0.44846 0.42273 0.77603 0.0
H461 H 0.61774 0.54623 0.79373 0.0
H462 H 0.61317 0.50643 0.7108 0.0
H463 H 0.54967 0.49866 0.7135 0.0
H464 H 0.52436 0.45837 0.7079 0.0
H465 H 0.55885 0.47483 0.69495 0.0
H466 H 0.59186 0.45012 0.74009 0.0
H467 H 0.57559 0.4421 0.71006 0.0
H468 H 0.55464 0.42145 0.73384 0.0
H469 H 0.55725 0.51912 0.86827 0.0
H470 H 0.46369 0.45355 0.86242 0.0
H471 H 0.46475 0.43908 0.82136 0.0
H472 H 0.58009 0.48125 0.83467 0.0
H473 H 0.59925 0.52192 0.8457 0.0
H474 H 0.6049 0.50945 0.81702 0.0
H475 H 0.55 0.54441 0.81514 0.0
H476 H 0.58093 0.55199 0.80022 0.0
H477 H 0.58462 0.55817 0.83221 0.0
H478 H 0.65769 0.57594 0.77069 0.0
C479 C 0.61535 0.53807 0.77533 0.0
C480 C 0.62839 0.10685 0.74369 0.0
C481 C 0.64675 0.09472 0.74896 0.0
C482 C 0.63974 0.07384 0.76671 0.0
C483 C 0.59731 0.07887 0.77429 0.0
C484 C 0.6037 0.09822 0.75615 0.0
C485 C 0.58085 0.10715 0.75109 0.0
H486 H 0.45306 0.09832 0.77453 0.0
C487 C 0.57048 0.0756 0.78411 0.0
C488 C 0.56077 0.09199 0.77033 0.0
H489 H 0.50467 0.13727 0.71585 0.0
H490 H 0.54167 0.1266 0.73198 0.0
H491 H 0.46251 0.03671 0.77759 0.0
H492 H 0.50411 0.12917 0.8135 0.0
H493 H 0.51292 0.10761 0.83255 0.0
H494 H 0.47494 0.09685 0.82584 0.0
H495 H 0.44535 0.05281 0.79567 0.0
H496 H 0.46484 0.03572 0.8089 0.0
C497 C 0.56542 0.09233 0.72574 0.0
C498 C 0.59595 0.14328 0.75455 0.0
C499 C 0.5308 0.01647 0.85707 0.0
C500 C 0.5105 0.01605 0.87256 0.0
C501 C 0.49611 0.03284 0.86739 0.0
C502 C 0.50087 0.0487 0.84699 0.0
C503 C 0.5209 0.0487 0.83171 0.0
C504 C 0.53651 0.03401 0.83733 0.0
C505 C 0.56036 0.04119 0.82094 0.0
C506 C 0.55534 0.06126 0.80402 0.0
C507 C 0.53147 0.06457 0.8101 0.0
C508 C 0.5547 0.01013 0.80803 0.0
C509 C 0.59042 0.05981 0.83599 0.0
C510 C 0.47235 0.10424 0.76526 0.0
C511 C 0.47606 0.11812 0.74381 0.0
C512 C 0.50148 0.12623 0.73226 0.0
C513 C 0.52277 0.11983 0.7416 0.0
C514 C 0.51847 0.10496 0.76263 0.0
C515 C 0.49382 0.09777 0.77431 0.0
C516 C 0.49344 0.08259 0.7967 0.0
C517 C 0.52084 0.07979 0.79544 0.0
C518 C 0.53541 0.09324 0.77561 0.0
C519 C 0.46502 0.05021 0.79478 0.0
C520 C 0.49635 0.105 0.81831 0.0
H521 H 0.611 0.05014 0.79289 0.0
H522 H 0.63295 0.12241 0.72981 0.0
H523 H 0.61192 0.15278 0.77069 0.0
H524 H 0.58033 0.15159 0.75732 0.0
H525 H 0.60818 0.15397 0.7391 0.0
H526 H 0.56851 0.07254 0.71962 0.0
H527 H 0.5742 0.10973 0.71248 0.0
H528 H 0.54125 0.08192 0.72496 0.0
H529 H 0.54254 0.00419 0.86064 0.0
H530 H 0.48068 0.03328 0.87905 0.0
H531 H 0.48887 0.06052 0.84394 0.0
H532 H 0.53087 0.99454 0.80236 0.0
H533 H 0.56177 0.99752 0.81988 0.0
H534 H 0.56591 0.01353 0.79162 0.0
H535 H 0.59044 0.07733 0.84917 0.0
H536 H 0.60881 0.0734 0.82534 0.0
H537 H 0.59528 0.044 0.84595 0.0
H538 H 0.6535 0.06393 0.7708 0.0
C539 C 0.61522 0.06602 0.77953 0.0
C540 C 0.85738 0.57519 0.93689 0.0
C541 C 0.88502 0.58295 0.92962 0.0
C542 C 0.896 0.60242 0.91115 0.0
C543 C 0.85156 0.60572 0.9072 0.0
C544 C 0.84121 0.58697 0.92561 0.0
C545 C 0.81174 0.58148 0.93165 0.0
H546 H 0.69354 0.59821 0.9091 0.0
C547 C 0.82898 0.61353 0.89916 0.0
C548 C 0.80575 0.59955 0.91358 0.0
H549 H 0.71041 0.55203 0.96505 0.0
H550 H 0.75757 0.56603 0.95141 0.0
H551 H 0.76008 0.65968 0.91392 0.0
H552 H 0.72023 0.57381 0.86765 0.0
H553 H 0.74123 0.60496 0.85085 0.0
H554 H 0.71028 0.6032 0.8643 0.0
H555 H 0.73188 0.65053 0.89047 0.0
H556 H 0.77008 0.66868 0.88499 0.0
C557 C 0.81524 0.59588 0.95752 0.0
C558 C 0.78957 0.54585 0.92734 0.0
C559 C 0.84113 0.67149 0.82556 0.0
C560 C 0.82175 0.67729 0.81174 0.0
C561 C 0.79536 0.67193 0.82067 0.0
C562 C 0.78745 0.65904 0.8424 0.0
C563 C 0.80593 0.65099 0.85518 0.0
C564 C 0.83261 0.65793 0.84698 0.0
C565 C 0.8486 0.64599 0.862 0.0
C566 C 0.82706 0.63046 0.88036 0.0
C567 C 0.80202 0.63342 0.87634 0.0
C568 C 0.87782 0.67443 0.87335 0.0
C569 C 0.85241 0.62197 0.84612 0.0
C570 C 0.7076 0.59127 0.91826 0.0
C571 C 0.69853 0.57399 0.93812 0.0
C572 C 0.71716 0.56531 0.94975 0.0
C573 C 0.74452 0.57352 0.94179 0.0
C574 C 0.75347 0.59068 0.92192 0.0
C575 C 0.73529 0.59952 0.91055 0.0
C576 C 0.74898 0.61805 0.8899 0.0
C577 C 0.77843 0.61915 0.89102 0.0
C578 C 0.78058 0.60266 0.90966 0.0
C579 C 0.75288 0.65097 0.89483 0.0
C580 C 0.72921 0.59933 0.86688 0.0
H581 H 0.8888 0.62843 0.88581 0.0
H582 H 0.84866 0.56041 0.95118 0.0
H583 H 0.79379 0.53557 0.91109 0.0
H584 H 0.76652 0.54013 0.92415 0.0
H585 H 0.79146 0.5335 0.9425 0.0
H586 H 0.83807 0.61546 0.96268 0.0
H587 H 0.8102 0.5782 0.97042 0.0
H588 H 0.80133 0.60651 0.95993 0.0
H589 H 0.86117 0.67472 0.81875 0.0
H590 H 0.78002 0.67591 0.81008 0.0
H591 H 0.76663 0.65455 0.84788 0.0
H592 H 0.87497 0.69481 0.87792 0.0
H593 H 0.89527 0.68174 0.86097 0.0
H594 H 0.88575 0.66998 0.89032 0.0
H595 H 0.83258 0.60757 0.83337 0.0
H596 H 0.85487 0.60494 0.85625 0.0
H597 H 0.87161 0.63391 0.83563 0.0
H598 H 0.91736 0.60859 0.90542 0.0
C599 C 0.8794 0.61385 0.89987 0.0
C600 C 0.44349 0.13925 0.94999 0.0
C601 C 0.43546 0.10936 0.93972 0.0
C602 C 0.41865 0.09839 0.91746 0.0
C603 C 0.42023 0.14797 0.91529 0.0
C604 C 0.43555 0.15797 0.93761 0.0
C605 C 0.44263 0.19039 0.94614 0.0
H606 H 0.44402 0.32379 0.92527 0.0
C607 C 0.41762 0.17422 0.90657 0.0
C608 C 0.43072 0.19904 0.9247 0.0
H609 H 0.47185 0.30084 0.99041 0.0
H610 H 0.45797 0.24961 0.97187 0.0
H611 H 0.47204 0.29906 0.89224 0.0
H612 H 0.38265 0.25266 0.91017 0.0
H613 H 0.38368 0.25058 0.87894 0.0
H614 H 0.4001 0.28805 0.89567 0.0
H615 H 0.44434 0.30295 0.87566 0.0
H616 H 0.45136 0.27157 0.86791 0.0
C617 C 0.47649 0.21129 0.95091 0.0
C618 C 0.42556 0.18825 0.96812 0.0
C619 C 0.36877 0.16517 0.82362 0.0
C620 C 0.36849 0.18773 0.80963 0.0
C621 C 0.38397 0.2194 0.81897 0.0
C622 C 0.39777 0.22826 0.84215 0.0
C623 C 0.39706 0.20545 0.85612 0.0
C624 C 0.38401 0.17475 0.84647 0.0
C625 C 0.38983 0.15496 0.86279 0.0
C626 C 0.40654 0.17841 0.88439 0.0
C627 C 0.40996 0.20774 0.88047 0.0
C628 C 0.40921 0.14422 0.85041 0.0
C629 C 0.36005 0.12781 0.86874 0.0
C630 C 0.44665 0.30739 0.9355 0.0
C631 C 0.45863 0.31588 0.95932 0.0
C632 C 0.46234 0.29443 0.97211 0.0
C633 C 0.45432 0.26481 0.96127 0.0
C634 C 0.4426 0.25662 0.93733 0.0
C635 C 0.43876 0.27769 0.92489 0.0
C636 C 0.42638 0.26507 0.89953 0.0
C637 C 0.42241 0.23247 0.8991 0.0
C638 C 0.43229 0.2279 0.92118 0.0
C639 C 0.44951 0.2857 0.88286 0.0
C640 C 0.39664 0.26405 0.89567 0.0
H641 H 0.39845 0.10812 0.8882 0.0
H642 H 0.45615 0.14805 0.96717 0.0
H643 H 0.40559 0.16476 0.96804 0.0
H644 H 0.41709 0.20465 0.9685 0.0
H645 H 0.43944 0.19257 0.98494 0.0
H646 H 0.48759 0.20607 0.93667 0.0
H647 H 0.48453 0.20719 0.96811 0.0
H648 H 0.48426 0.23648 0.95096 0.0
H649 H 0.35771 0.14076 0.81679 0.0
H650 H 0.38472 0.23729 0.80841 0.0
H651 H 0.40849 0.25259 0.84833 0.0
H652 H 0.42477 0.16252 0.83967 0.0
H653 H 0.39553 0.12261 0.83825 0.0
H654 H 0.42337 0.14026 0.86309 0.0
H655 H 0.3449 0.13652 0.87301 0.0
H656 H 0.36221 0.1167 0.88448 0.0
H657 H 0.34928 0.10961 0.85345 0.0
H658 H 0.41208 0.07524 0.90939 0.0
C659 C 0.41101 0.11756 0.90517 0.0
C660 C 0.7138 0.14593 0.94514 0.0
C661 C 0.69 0.11869 0.93328 0.0
C662 C 0.69273 0.10816 0.91043 0.0
C663 C 0.74273 0.15215 0.91159 0.0
C664 C 0.73972 0.16227 0.93401 0.0
C665 C 0.76661 0.19217 0.94412 0.0
H666 H 0.89792 0.31712 0.9286 0.0
C667 C 0.77253 0.17497 0.9051 0.0
C668 C 0.78642 0.19848 0.9242 0.0
H669 H 0.85111 0.29846 0.99142 0.0
H670 H 0.81367 0.24779 0.97257 0.0
H671 H 0.89298 0.25213 0.92312 0.0
H672 H 0.84192 0.28639 0.88831 0.0
H673 H 0.85091 0.26644 0.86661 0.0
H674 H 0.87991 0.29982 0.88462 0.0
H675 H 0.90424 0.27248 0.89708 0.0
H676 H 0.88036 0.23053 0.89517 0.0
C677 C 0.77936 0.1858 0.96707 0.0
C678 C 0.75768 0.21739 0.94784 0.0
C679 C 0.80715 0.16223 0.82449 0.0
C680 C 0.83308 0.18133 0.8138 0.0
C681 C 0.85596 0.2082 0.827 0.0
C682 C 0.85283 0.21676 0.85017 0.0
C683 C 0.8264 0.19841 0.86032 0.0
C684 C 0.80426 0.17127 0.84777 0.0
C685 C 0.77761 0.15513 0.86157 0.0
C686 C 0.78763 0.17692 0.88447 0.0
C687 C 0.81611 0.20242 0.88335 0.0
C688 C 0.77264 0.12246 0.86601 0.0
C689 C 0.7513 0.15438 0.84741 0.0
C690 C 0.87949 0.30206 0.93818 0.0
C691 C 0.87691 0.31196 0.96123 0.0
C692 C 0.85315 0.29144 0.97348 0.0
C693 C 0.83151 0.2621 0.96249 0.0
C694 C 0.83388 0.2529 0.93913 0.0
C695 C 0.85808 0.27237 0.92769 0.0
C696 C 0.85831 0.25762 0.90381 0.0
C697 C 0.8295 0.22667 0.9023 0.0
C698 C 0.81504 0.22433 0.92282 0.0
C699 C 0.88539 0.25305 0.90462 0.0
C700 C 0.85791 0.27859 0.8847 0.0
H701 H 0.71984 0.11558 0.88213 0.0
H702 H 0.71213 0.15447 0.96269 0.0
H703 H 0.74267 0.21567 0.93251 0.0
H704 H 0.77642 0.2415 0.94906 0.0
H705 H 0.74598 0.21438 0.9641 0.0
H706 H 0.77423 0.1611 0.96631 0.0
H707 H 0.77012 0.19027 0.98301 0.0
H708 H 0.80365 0.19983 0.96968 0.0
H709 H 0.78905 0.14171 0.81448 0.0
H710 H 0.87587 0.22328 0.81895 0.0
H711 H 0.87083 0.23793 0.85901 0.0
H712 H 0.79392 0.12384 0.87125 0.0
H713 H 0.76235 0.10594 0.84971 0.0
H714 H 0.75889 0.11236 0.8807 0.0
H715 H 0.75851 0.17665 0.83919 0.0
H716 H 0.73404 0.1521 0.85868 0.0
H717 H 0.74135 0.13502 0.83289 0.0
H718 H 0.67449 0.08715 0.90106 0.0
C719 C 0.71901 0.12469 0.89954 0.0
C720 C 0.54979 0.85845 0.05916 0.0
C721 C 0.55653 0.88785 0.06942 0.0
C722 C 0.57032 0.89795 0.09279 0.0
C723 C 0.5713 0.84954 0.09477 0.0
C724 C 0.55711 0.83976 0.07205 0.0
C725 C 0.55015 0.80744 0.06358 0.0
H726 H 0.57414 0.68797 0.07379 0.0
C727 C 0.57654 0.82452 0.10266 0.0
C728 C 0.56428 0.8 0.08428 0.0
H729 H 0.51565 0.69642 0.02194 0.0
H730 H 0.52585 0.74371 0.04237 0.0
H731 H 0.6256 0.75938 0.08284 0.0
H732 H 0.54622 0.70678 0.11679 0.0
H733 H 0.57403 0.73128 0.13916 0.0
H734 H 0.57747 0.70185 0.1218 0.0
H735 H 0.6208 0.72991 0.10204 0.0
H736 H 0.63432 0.76984 0.11363 0.0
C737 C 0.56531 0.80933 0.04054 0.0
C738 C 0.51616 0.78583 0.06054 0.0
C739 C 0.62864 0.83515 0.18438 0.0
C740 C 0.63814 0.81633 0.19502 0.0
C741 C 0.63562 0.7903 0.1814 0.0
C742 C 0.62251 0.78206 0.158 0.0
C743 C 0.61197 0.80019 0.14788 0.0
C744 C 0.61595 0.82685 0.16067 0.0
C745 C 0.60492 0.84418 0.14615 0.0
C746 C 0.59183 0.82231 0.12332 0.0
C747 C 0.59591 0.79644 0.12459 0.0
C748 C 0.63173 0.87602 0.14198 0.0
C749 C 0.5812 0.84693 0.15921 0.0
C750 C 0.56445 0.70056 0.06602 0.0
C751 C 0.54765 0.68982 0.04353 0.0
C752 C 0.5322 0.70513 0.03667 0.0
C753 C 0.53742 0.7328 0.04924 0.0
C754 C 0.55715 0.74501 0.06974 0.0
C755 C 0.56904 0.72808 0.07859 0.0
C756 C 0.58627 0.74265 0.10248 0.0
C757 C 0.58379 0.77193 0.10575 0.0
C758 C 0.56721 0.77332 0.0862 0.0
C759 C 0.61844 0.75077 0.10038 0.0
C760 C 0.57049 0.71955 0.12115 0.0
H761 H 0.58827 0.88765 0.12327 0.0
H762 H 0.53852 0.84996 0.04145 0.0
H763 H 0.50476 0.79635 0.07003 0.0
H764 H 0.509 0.76336 0.06829 0.0
H765 H 0.50747 0.78097 0.04153 0.0
H766 H 0.58864 0.82863 0.04298 0.0
H767 H 0.55405 0.81392 0.02548 0.0
H768 H 0.56585 0.78795 0.0352 0.0
H769 H 0.63054 0.85541 0.19443 0.0
H770 H 0.64297 0.77566 0.18925 0.0
H771 H 0.62073 0.76161 0.14881 0.0
H772 H 0.65123 0.87358 0.13912 0.0
H773 H 0.6378 0.89344 0.15756 0.0
H774 H 0.62809 0.88562 0.12589 0.0
H775 H 0.56595 0.82437 0.16615 0.0
H776 H 0.56728 0.85233 0.14748 0.0
H777 H 0.59138 0.86519 0.1745 0.0
H778 H 0.57517 0.92043 0.10109 0.0
C779 C 0.57788 0.87894 0.10552 0.0
C780 C 0.29696 0.8553 0.07432 0.0
C781 C 0.32062 0.88271 0.08613 0.0
C782 C 0.31861 0.8918 0.10971 0.0
C783 C 0.26973 0.84604 0.10922 0.0
C784 C 0.27187 0.83761 0.08601 0.0
C785 C 0.2446 0.80852 0.07533 0.0
H786 H 0.11371 0.68195 0.0887 0.0
C787 C 0.24042 0.82232 0.11594 0.0
C788 C 0.2257 0.80047 0.09595 0.0
H789 H 0.15804 0.70736 0.02476 0.0
H790 H 0.19637 0.75608 0.0455 0.0
H791 H 0.17123 0.70921 0.12805 0.0
H792 H 0.11878 0.7457 0.09964 0.0
H793 H 0.13384 0.7668 0.12763 0.0
H794 H 0.10959 0.72489 0.12557 0.0
H795 H 0.13313 0.69465 0.13214 0.0
H796 H 0.16177 0.72631 0.15167 0.0
C797 C 0.25312 0.7835 0.06889 0.0
C798 C 0.23111 0.81699 0.05395 0.0
C799 C 0.20931 0.82746 0.19964 0.0
C800 C 0.18256 0.80911 0.20959 0.0
C801 C 0.15922 0.78352 0.19548 0.0
C802 C 0.16232 0.77587 0.17211 0.0
C803 C 0.18895 0.7942 0.16234 0.0
C804 C 0.2118 0.81988 0.17581 0.0
C805 C 0.23759 0.83776 0.16146 0.0
C806 C 0.22643 0.81824 0.13743 0.0
C807 C 0.19805 0.79247 0.13835 0.0
C808 C 0.26452 0.8374 0.17324 0.0
C809 C 0.24225 0.87096 0.15994 0.0
C810 C 0.13178 0.6981 0.07928 0.0
C811 C 0.13339 0.69061 0.05528 0.0
C812 C 0.15669 0.71252 0.04335 0.0
C813 C 0.17888 0.74074 0.05544 0.0
C814 C 0.17751 0.74749 0.07965 0.0
C815 C 0.15373 0.7268 0.09094 0.0
C816 C 0.15451 0.7393 0.11598 0.0
C817 C 0.18361 0.7701 0.11829 0.0
C818 C 0.19714 0.77445 0.09709 0.0
C819 C 0.15505 0.71621 0.133 0.0
C820 C 0.1278 0.74432 0.11747 0.0
H821 H 0.29314 0.8814 0.13936 0.0
H822 H 0.29787 0.848 0.05613 0.0
H823 H 0.2374 0.84207 0.05588 0.0
H824 H 0.20677 0.80409 0.05249 0.0
H825 H 0.23865 0.81262 0.03697 0.0
H826 H 0.26818 0.78345 0.08341 0.0
H827 H 0.26463 0.78829 0.05243 0.0
H828 H 0.23418 0.75946 0.06648 0.0
H829 H 0.22756 0.84737 0.21006 0.0
H830 H 0.13848 0.76916 0.20274 0.0
H831 H 0.14378 0.75586 0.16256 0.0
H832 H 0.25816 0.81354 0.17809 0.0
H833 H 0.27374 0.85365 0.18975 0.0
H834 H 0.28217 0.84362 0.16138 0.0
H835 H 0.22078 0.87019 0.15808 0.0
H836 H 0.2533 0.88183 0.14423 0.0
H837 H 0.2551 0.88654 0.17621 0.0
H838 H 0.33664 0.91299 0.11906 0.0
C839 C 0.29336 0.87348 0.12138 0.0
C840 C 0.30603 0.44358 0.07974 0.0
C841 C 0.32566 0.43418 0.08797 0.0
C842 C 0.31923 0.4161 0.10747 0.0
C843 C 0.2744 0.4181 0.11072 0.0
C844 C 0.28061 0.43515 0.09117 0.0
C845 C 0.25704 0.44236 0.08386 0.0
H846 H 0.12826 0.43499 0.1022 0.0
C847 C 0.24663 0.41439 0.11886 0.0
C848 C 0.23654 0.42869 0.10313 0.0
H849 H 0.17983 0.468 0.04263 0.0
H850 H 0.21647 0.4579 0.06066 0.0
H851 H 0.13771 0.37307 0.10845 0.0
H852 H 0.17868 0.46723 0.14147 0.0
H853 H 0.18543 0.44598 0.16226 0.0
H854 H 0.14805 0.4359 0.1534 0.0
H855 H 0.11971 0.38984 0.12467 0.0
H856 H 0.13895 0.37381 0.13987 0.0
C857 C 0.24245 0.42489 0.05892 0.0
C858 C 0.27106 0.47834 0.08502 0.0
C859 C 0.20284 0.35599 0.19114 0.0
C860 C 0.18128 0.35511 0.20535 0.0
C861 C 0.16731 0.37203 0.1992 0.0
C862 C 0.17341 0.38804 0.1788 0.0
C863 C 0.19443 0.38813 0.16461 0.0
C864 C 0.20993 0.37377 0.17152 0.0
C865 C 0.2353 0.38169 0.15668 0.0
C866 C 0.23076 0.40093 0.13865 0.0
C867 C 0.20612 0.40367 0.14306 0.0
C868 C 0.23159 0.351 0.14472 0.0
C869 C 0.2643 0.40143 0.17301 0.0
C870 C 0.14749 0.43983 0.09317 0.0
C871 C 0.15137 0.45203 0.07101 0.0
C872 C 0.17657 0.45841 0.05966 0.0
C873 C 0.19768 0.45242 0.07014 0.0
C874 C 0.19341 0.43968 0.09214 0.0
C875 C 0.16868 0.43363 0.10333 0.0
C876 C 0.16785 0.41987 0.12653 0.0
C877 C 0.19549 0.41735 0.12678 0.0
C878 C 0.21045 0.42936 0.10676 0.0
C879 C 0.13956 0.38742 0.12498 0.0
C880 C 0.16993 0.44323 0.14704 0.0
H881 H 0.28985 0.39425 0.13371 0.0
H882 H 0.3103 0.45696 0.06448 0.0
H883 H 0.28651 0.4898 0.10135 0.0
H884 H 0.25477 0.48605 0.08593 0.0
H885 H 0.28367 0.48769 0.06946 0.0
H886 H 0.24571 0.40462 0.05512 0.0
H887 H 0.25178 0.44059 0.04463 0.0
H888 H 0.21827 0.41454 0.05732 0.0
H889 H 0.21445 0.34382 0.1956 0.0
H890 H 0.15116 0.37238 0.21007 0.0
H891 H 0.16163 0.39991 0.17488 0.0
H892 H 0.20847 0.33528 0.13704 0.0
H893 H 0.23702 0.33835 0.1578 0.0
H894 H 0.24534 0.35488 0.12984 0.0
H895 H 0.26191 0.41645 0.18702 0.0
H896 H 0.28268 0.41794 0.16342 0.0
H897 H 0.2708 0.38622 0.18208 0.0
H898 H 0.33408 0.40839 0.11383 0.0
C899 C 0.29371 0.40808 0.11897 0.0
C900 C 0.51549 0.89302 0.27131 0.0
C901 C 0.5428 0.89936 0.26403 0.0
C902 C 0.55292 0.91554 0.24381 0.0
C903 C 0.50812 0.91785 0.23789 0.0
C904 C 0.49853 0.90232 0.25797 0.0
C905 C 0.46859 0.89662 0.26287 0.0
H906 H 0.34961 0.91003 0.23308 0.0
C907 C 0.4846 0.92294 0.22754 0.0
C908 C 0.46135 0.91037 0.24203 0.0
H909 H 0.36769 0.87295 0.29482 0.0
H910 H 0.41345 0.8821 0.2808 0.0
H911 H 0.41819 0.96979 0.23123 0.0
H912 H 0.37115 0.87619 0.19572 0.0
H913 H 0.39475 0.90107 0.17603 0.0
H914 H 0.36546 0.90662 0.18578 0.0
H915 H 0.38558 0.95522 0.21111 0.0
H916 H 0.42107 0.97051 0.20024 0.0
C917 C 0.47176 0.91506 0.28698 0.0
C918 C 0.4475 0.8608 0.26197 0.0
C919 C 0.49891 0.97766 0.15215 0.0
C920 C 0.47962 0.98073 0.13588 0.0
C921 C 0.45033 0.96951 0.14109 0.0
C922 C 0.44054 0.95567 0.16226 0.0
C923 C 0.46002 0.95226 0.17812 0.0
C924 C 0.48847 0.96257 0.1726 0.0
C925 C 0.50489 0.95309 0.18955 0.0
C926 C 0.48214 0.9367 0.20685 0.0
C927 C 0.45604 0.9368 0.2004 0.0
C928 C 0.53219 0.98309 0.20166 0.0
C929 C 0.51211 0.93033 0.17552 0.0
C930 C 0.36359 0.90392 0.24338 0.0
C931 C 0.35536 0.89084 0.26506 0.0
C932 C 0.3738 0.88303 0.2781 0.0
C933 C 0.40036 0.88846 0.26994 0.0
C934 C 0.40869 0.90193 0.24846 0.0
C935 C 0.39041 0.9093 0.23542 0.0
C936 C 0.40315 0.92334 0.21294 0.0
C937 C 0.43252 0.9243 0.21524 0.0
C938 C 0.43539 0.91144 0.23601 0.0
C939 C 0.40718 0.95647 0.21372 0.0
C940 C 0.3826 0.90091 0.19139 0.0
H941 H 0.54459 0.93712 0.21546 0.0
H942 H 0.50735 0.88062 0.28684 0.0
H943 H 0.45236 0.84829 0.24759 0.0
H944 H 0.42419 0.85373 0.25779 0.0
H945 H 0.44986 0.85182 0.27898 0.0
H946 H 0.49401 0.93622 0.29056 0.0
H947 H 0.46843 0.90047 0.30197 0.0
H948 H 0.4565 0.92423 0.28737 0.0
H949 H 0.5213 0.98533 0.14831 0.0
H950 H 0.43496 0.97113 0.12859 0.0
H951 H 0.41804 0.94758 0.16527 0.0
H952 H 0.5263 0.00105 0.207 0.0
H953 H 0.5497 0.99332 0.18937 0.0
H954 H 0.54147 0.9791 0.21813 0.0
H955 H 0.496 0.91766 0.15972 0.0
H956 H 0.51066 0.91158 0.18604 0.0
H957 H 0.5343 0.94303 0.16909 0.0
H958 H 0.57398 0.9206 0.23803 0.0
C959 C 0.53576 0.92492 0.23073 0.0
C960 C 0.10553 0.47362 0.28311 0.0
C961 C 0.10202 0.44607 0.27145 0.0
C962 C 0.091 0.43816 0.24727 0.0
C963 C 0.08859 0.48573 0.2466 0.0
C964 C 0.09949 0.49338 0.27027 0.0
C965 C 0.106 0.52546 0.27926 0.0
H966 H 0.11326 0.66204 0.25898 0.0
C967 C 0.08662 0.51241 0.23812 0.0
C968 C 0.09747 0.53599 0.25707 0.0
H969 H 0.13727 0.63559 0.3241 0.0
H970 H 0.12256 0.58458 0.30498 0.0
H971 H 0.1408 0.6351 0.22534 0.0
H972 H 0.05111 0.59144 0.24303 0.0
H973 H 0.05197 0.58862 0.21186 0.0
H974 H 0.06874 0.62649 0.22815 0.0
H975 H 0.1147 0.64334 0.21081 0.0
H976 H 0.11865 0.61073 0.20009 0.0
C977 C 0.13943 0.54563 0.28722 0.0
C978 C 0.0857 0.52187 0.29911 0.0
C979 C 0.0397 0.50449 0.15504 0.0
C980 C 0.03904 0.52689 0.14115 0.0
C981 C 0.05289 0.55829 0.15101 0.0
C982 C 0.06604 0.567 0.17445 0.0
C983 C 0.06626 0.54433 0.1881 0.0
C984 C 0.05428 0.51391 0.17805 0.0
C985 C 0.06099 0.49435 0.19386 0.0
C986 C 0.07653 0.5173 0.21585 0.0
C987 C 0.07908 0.5464 0.21247 0.0
C988 C 0.08174 0.48545 0.18151 0.0
C989 C 0.03173 0.46587 0.1992 0.0
C990 C 0.1151 0.645 0.26895 0.0
C991 C 0.12635 0.65246 0.29297 0.0
C992 C 0.12865 0.63006 0.30557 0.0
C993 C 0.12013 0.60054 0.2944 0.0
C994 C 0.10928 0.59333 0.2703 0.0
C995 C 0.10667 0.61525 0.25797 0.0
C996 C 0.09471 0.6032 0.23243 0.0
C997 C 0.09056 0.57048 0.23158 0.0
C998 C 0.09927 0.56502 0.25381 0.0
C999 C 0.1182 0.62416 0.21619 0.0
C1000 C 0.0651 0.60243 0.22844 0.0
H1001 H 0.07549 0.45041 0.21656 0.0
H1002 H 0.1142 0.48039 0.30161 0.0
H1003 H 0.06372 0.50045 0.29497 0.0
H1004 H 0.08105 0.54122 0.30108 0.0
H1005 H 0.09521 0.51991 0.31647 0.0
H1006 H 0.15233 0.53824 0.27644 0.0
H1007 H 0.14424 0.54348 0.30613 0.0
H1008 H 0.14863 0.57061 0.28458 0.0
H1009 H 0.02994 0.48034 0.14779 0.0
H1010 H 0.05326 0.57609 0.14055 0.0
H1011 H 0.07584 0.59116 0.18097 0.0
H1012 H 0.09317 0.50125 0.16768 0.0
H1013 H 0.06942 0.46122 0.17267 0.0
H1014 H 0.09973 0.4878 0.19408 0.0
H1015 H 0.01647 0.47353 0.2054 0.0
H1016 H 0.03478 0.45297 0.21328 0.0
H1017 H 0.02075 0.44929 0.183 0.0
H1018 H 0.08817 0.41702 0.23795 0.0
C1019 C 0.0839 0.45765 0.23487 0.0
C1020 C 0.36739 0.47524 0.27437 0.0
C1021 C 0.34254 0.44937 0.26237 0.0
C1022 C 0.34353 0.44008 0.23857 0.0
C1023 C 0.39436 0.48241 0.23943 0.0
C1024 C 0.39276 0.49133 0.26269 0.0
C1025 C 0.4205 0.51977 0.27324 0.0
H1026 H 0.55434 0.64105 0.26051 0.0
C1027 C 0.42441 0.50448 0.23289 0.0
C1028 C 0.43951 0.52635 0.25284 0.0
H1029 H 0.50627 0.62167 0.32263 0.0
H1030 H 0.46775 0.57256 0.30255 0.0
H1031 H 0.54702 0.57613 0.25319 0.0
H1032 H 0.49949 0.6146 0.21915 0.0
H1033 H 0.50943 0.59561 0.19729 0.0
H1034 H 0.53764 0.62706 0.21715 0.0
H1035 H 0.55775 0.59399 0.22612 0.0
H1036 H 0.53176 0.55267 0.22607 0.0
C1037 C 0.43292 0.5108 0.29498 0.0
C1038 C 0.41328 0.54604 0.279 0.0
C1039 C 0.45825 0.49557 0.15059 0.0
C1040 C 0.48595 0.51259 0.14157 0.0
C1041 C 0.50978 0.53622 0.1566 0.0
C1042 C 0.50621 0.54392 0.17976 0.0
C1043 C 0.47853 0.52766 0.1884 0.0
C1044 C 0.45522 0.50319 0.17433 0.0
C1045 C 0.42817 0.4873 0.18785 0.0
C1046 C 0.43915 0.50691 0.21192 0.0
C1047 C 0.46857 0.5309 0.21168 0.0
C1048 C 0.42065 0.45324 0.18995 0.0
C1049 C 0.40313 0.48997 0.17485 0.0
C1050 C 0.53537 0.62612 0.26964 0.0
C1051 C 0.53272 0.63538 0.29285 0.0
C1052 C 0.50834 0.6151 0.30457 0.0
C1053 C 0.48608 0.58667 0.29285 0.0
C1054 C 0.48847 0.57818 0.26928 0.0
C1055 C 0.51325 0.59733 0.25835 0.0
C1056 C 0.51315 0.58332 0.23406 0.0
C1057 C 0.48313 0.55359 0.23152 0.0
C1058 C 0.46879 0.55099 0.25208 0.0
C1059 C 0.53875 0.57626 0.23472 0.0
C1060 C 0.51515 0.60627 0.21582 0.0
H1061 H 0.36895 0.44856 0.20888 0.0
H1062 H 0.36703 0.4829 0.2926 0.0
H1063 H 0.39629 0.5445 0.26556 0.0
H1064 H 0.43222 0.56978 0.27846 0.0
H1065 H 0.40463 0.54427 0.29665 0.0
H1066 H 0.42749 0.48601 0.29238 0.0
H1067 H 0.42364 0.5136 0.31146 0.0
H1068 H 0.45721 0.52444 0.29782 0.0
H1069 H 0.43957 0.47718 0.13942 0.0
H1070 H 0.5312 0.54948 0.15006 0.0
H1071 H 0.52515 0.5627 0.1899 0.0
H1072 H 0.44089 0.45242 0.1951 0.0
H1073 H 0.4105 0.43876 0.17272 0.0
H1074 H 0.40572 0.44216 0.20375 0.0
H1075 H 0.41163 0.51383 0.16908 0.0
H1076 H 0.38558 0.48622 0.18629 0.0
H1077 H 0.39322 0.47294 0.1588 0.0
H1078 H 0.32436 0.42014 0.22903 0.0
C1079 C 0.36938 0.4565 0.22701 0.0
Tb1080 Tb 0.53218 0.02497 1.00054 0.0
C1081 C 0.51769 0.95701 0.01436 0.0
Tb1082 Tb 0.46772 0.97414 0.00698 0.0
O1083 O 0.53773 0.04811 0.03676 0.0
O1084 O 0.50753 0.00189 0.02799 0.0
O1085 O 0.53653 0.98369 0.00584 0.0
C1086 C 0.41983 0.94758 0.03049 0.0
O1087 O 0.49118 0.95122 0.01945 0.0
C1088 C 0.48487 0.97153 0.96448 0.0
C1089 C 0.4801 0.0386 0.9877 0.0
O1090 O 0.42368 0.93492 0.01123 0.0
O1091 O 0.44257 0.97519 0.03614 0.0
O1092 O 0.46327 0.94764 0.97302 0.0
O1093 O 0.49269 0.99543 0.97865 0.0
O1094 O 0.46114 0.01254 0.99683 0.0
O1095 O 0.50806 0.04661 0.98586 0.0
C1096 C 0.5841 0.0558 0.98223 0.0
O1097 O 0.572 0.06878 0.99422 0.0
O1098 O 0.56731 0.02575 0.98109 0.0
C1099 C 0.5154 0.02373 0.04389 0.0
Tb1100 Tb 0.98163 0.51081 0.99809 0.0
C1101 C 0.04682 0.56587 0.01355 0.0
Tb1102 Tb 0.03038 0.49556 0.00568 0.0
O1103 O 0.96579 0.4962 0.03285 0.0
O1104 O 0.00964 0.51327 0.02766 0.0
O1105 O 0.0211 0.55785 1.00196 0.0
C1106 C 0.06782 0.4782 0.02259 0.0
O1107 O 0.05298 0.54443 0.02032 0.0
C1108 C 0.01874 0.50381 0.96134 0.0
C1109 C 0.96421 0.44016 0.99496 0.0
O1110 O 0.07499 0.50316 0.01197 0.0
O1111 O 0.03957 0.46266 0.02321 0.0
O1112 O 0.04398 0.5079 0.96957 0.0
O1113 O 1.00147 0.49193 0.97691 0.0
O1114 O 0.99074 0.44925 0.00554 0.0
O1115 O 0.95707 0.46064 0.9874 0.0
C1116 C 0.94952 0.53189 0.97684 0.0
O1117 O 0.94462 0.51944 0.99691 0.0
O1118 O 0.97239 0.53256 0.96892 0.0
C1119 C 0.99078 0.50049 0.04222 0.0
Tb1120 Tb 0.47553 0.49249 0.01189 0.0
C1121 C 0.49478 0.4426 0.99704 0.0
Tb1122 Tb 0.54131 0.51551 1.00416 0.0
O1123 O 0.46066 0.47932 0.974 0.0
O1124 O 0.50416 0.51274 0.98545 0.0
O1125 O 0.47335 0.44759 1.00347 0.0
C1126 C 0.58981 0.53128 0.9822 0.0
O1127 O 0.52254 0.46532 0.99705 0.0
C1128 C 0.52695 0.5112 0.04838 0.0
C1129 C 0.5233 0.56582 0.01469 0.0
O1130 O 0.58821 0.5303 0.00504 0.0
O1131 O 0.56407 0.52293 0.97187 0.0
O1132 O 0.55323 0.53061 0.04265 0.0
O1133 O 0.51188 0.49398 0.02997 0.0
O1134 O 0.54163 0.55927 1.00412 0.0
O1135 O 0.49763 0.54368 0.02126 0.0
C1136 C 0.42837 0.47514 0.03584 0.0
O1137 O 0.45227 0.47579 0.0435 0.0
O1138 O 0.43088 0.48444 0.01461 0.0
C1139 C 0.48713 0.49573 0.96746 0.0
Tb1140 Tb 0.19028 0.3562 0.33482 0.0
C1141 C 0.17837 0.29074 0.35058 0.0
Tb1142 Tb 0.12596 0.30352 0.33637 0.0
O1143 O 0.19009 0.37848 0.36999 0.0
O1144 O 0.16252 0.33195 0.3611 0.0
O1145 O 0.19728 0.31727 0.3421 0.0
C1146 C 0.072 0.27754 0.35189 0.0
O1147 O 0.15028 0.28232 0.3523 0.0
C1148 C 0.14723 0.30463 0.29494 0.0
C1149 C 0.13965 0.36937 0.31939 0.0
O1150 O 0.08357 0.26214 0.34236 0.0
O1151 O 0.09051 0.30712 0.35203 0.0
O1152 O 0.12453 0.28008 0.3016 0.0
O1153 O 0.1534 0.3271 0.31004 0.0
O1154 O 0.12144 0.34445 0.32993 0.0
O1155 O 0.16677 0.37574 0.31616 0.0
C1156 C 0.24302 0.38907 0.31839 0.0
O1157 O 0.22962 0.4011 0.32972 0.0
O1158 O 0.2274 0.35893 0.31753 0.0
C1159 C 0.16746 0.35363 0.37649 0.0
Tb1160 Tb 0.64332 0.83186 0.33272 0.0
C1161 C 0.71024 0.88432 0.34863 0.0
Tb1162 Tb 0.68974 0.81294 0.33723 0.0
O1163 O 0.62646 0.81375 0.36629 0.0
O1164 O 0.67038 0.83047 0.3613 0.0
O1165 O 0.68312 0.87801 0.34179 0.0
C1166 C 0.72439 0.78997 0.35008 0.0
O1167 O 0.71753 0.86234 0.34909 0.0
C1168 C 0.67939 0.82623 0.29426 0.0
C1169 C 0.62299 0.76119 0.32808 0.0
O1170 O 0.7289 0.81742 0.35707 0.0
O1171 O 0.70072 0.77557 0.33559 0.0
O1172 O 0.70417 0.82877 0.30204 0.0
O1173 O 0.66177 0.81343 0.30947 0.0
O1174 O 0.64843 0.76909 0.34008 0.0
O1175 O 0.61791 0.78264 0.31968 0.0
C1176 C 0.61206 0.85541 0.3138 0.0
O1177 O 0.6365 0.85915 0.30671 0.0
O1178 O 0.60522 0.83861 0.33174 0.0
C1179 C 0.65121 0.81741 0.37566 0.0
Tb1180 Tb 0.14098 0.82259 0.34943 0.0
C1181 C 0.16302 0.7752 0.33712 0.0
Tb1182 Tb 0.20601 0.8491 0.33772 0.0
O1183 O 0.12458 0.80406 0.3121 0.0
O1184 O 0.16642 0.84232 0.32108 0.0
O1185 O 0.14288 0.77964 0.34697 0.0
C1186 C 0.25263 0.86393 0.31349 0.0
O1187 O 0.1868 0.79866 0.32943 0.0
C1188 C 0.19622 0.8473 0.3831 0.0
C1189 C 0.18571 0.89668 0.35101 0.0
O1190 O 0.25092 0.85781 0.33559 0.0
O1191 O 0.22834 0.86205 0.30525 0.0
O1192 O 0.22123 0.86714 0.37553 0.0
O1193 O 0.18018 0.8285 0.36569 0.0
O1194 O 0.20366 0.89158 0.33844 0.0
O1195 O 0.16167 0.87343 0.35877 0.0
C1196 C 0.09437 0.80623 0.3738 0.0
O1197 O 0.11889 0.80853 0.38185 0.0
O1198 O 0.0959 0.81314 0.3519 0.0
C1199 C 0.14965 0.82279 0.30416 0.0
Tb1200 Tb 0.85997 0.69127 0.66916 0.0
C1201 C 0.84867 0.62606 0.68432 0.0
Tb1202 Tb 0.79604 0.63802 0.67245 0.0
O1203 O 0.8598 0.71537 0.70326 0.0
O1204 O 0.8333 0.66794 0.69631 0.0
O1205 O 0.86581 0.65083 0.67312 0.0
C1206 C 0.74193 0.61015 0.68778 0.0
O1207 O 0.82159 0.61888 0.6888 0.0
C1208 C 0.81586 0.63864 0.63042 0.0
C1209 C 0.80902 0.70538 0.65841 0.0
O1210 O 0.75526 0.59568 0.68011 0.0
O1211 O 0.75877 0.63975 0.68617 0.0
O1212 O 0.79402 0.61397 0.63777 0.0
O1213 O 0.82221 0.66115 0.6455 0.0
O1214 O 0.79061 0.67844 0.66666 0.0
O1215 O 0.83713 0.7147 0.65666 0.0
C1216 C 0.91098 0.72529 0.65023 0.0
O1217 O 0.88497 0.71565 0.64007 0.0
O1218 O 0.90856 0.71653 0.67164 0.0
C1219 C 0.83825 0.69049 0.71092 0.0
Tb1220 Tb 0.30048 0.17026 0.66794 0.0
C1221 C 0.36576 0.22653 0.68451 0.0
Tb1222 Tb 0.35372 0.15746 0.6759 0.0
O1223 O 0.29089 0.17022 0.7057 0.0
O1224 O 0.32388 0.16341 0.69507 0.0
O1225 O 0.33834 0.21763 0.67623 0.0
C1226 C 0.39168 0.14389 0.69675 0.0
O1227 O 0.37607 0.20717 0.68648 0.0
C1228 C 0.34296 0.16987 0.63276 0.0
C1229 C 0.28793 0.10061 0.66437 0.0
O1230 O 0.38334 0.16224 0.70618 0.0
O1231 O 0.3787 0.13304 0.67534 0.0
O1232 O 0.36841 0.17399 0.64088 0.0
O1233 O 0.32537 0.15653 0.64794 0.0
O1234 O 0.315 0.11035 0.67429 0.0
O1235 O 0.27873 0.12005 0.65804 0.0
C1236 C 0.26904 0.18862 0.64291 0.0
O1237 O 0.25851 0.16749 0.65795 0.0
O1238 O 0.297 0.19934 0.64211 0.0
C1239 C 0.31248 0.16614 0.71331 0.0
Tb1240 Tb 0.79959 0.1601 0.67456 0.0
C1241 C 0.81411 0.10728 0.65727 0.0
Tb1242 Tb 0.86503 0.1778 0.66911 0.0
O1243 O 0.78593 0.15079 0.63641 0.0
O1244 O 0.83001 0.17808 0.64922 0.0
O1245 O 0.79388 0.11432 0.6632 0.0
C1246 C 0.91409 0.19189 0.64855 0.0
O1247 O 0.84264 0.12798 0.65838 0.0
C1248 C 0.85005 0.17511 0.71324 0.0
C1249 C 0.85184 0.23217 0.68103 0.0
O1250 O 0.9085 0.18153 0.66938 0.0
O1251 O 0.89219 0.194 0.63955 0.0
O1252 O 0.87709 0.19007 0.70767 0.0
O1253 O 0.83395 0.15897 0.69464 0.0
O1254 O 0.87127 0.22442 0.67432 0.0
O1255 O 0.82356 0.21161 0.68262 0.0
C1256 C 0.75092 0.13841 0.6976 0.0
O1257 O 0.7592 0.16013 0.68298 0.0
O1258 O 0.76995 0.12921 0.69896 0.0
C1259 C 0.8129 0.1638 0.63053 0.0
C1260 C 0.34403 0.91586 0.05289 0.0
C1261 C 0.34703 0.90182 0.07326 0.0
C1262 C 0.39895 0.92131 0.06707 0.0
C1263 C 0.3948 0.93196 0.04521 0.0
N1264 N 0.36291 0.93697 0.01594 0.0
N1265 N 0.37624 0.88754 0.09811 0.0
C1266 C 0.36716 0.92846 0.0377 0.0
C1267 C 0.37429 0.9038 0.08007 0.0
N1268 N 0.31944 0.91814 0.04858 0.0
N1269 N 0.42644 0.92782 0.0754 0.0
H1270 H 0.35869 0.87413 0.10789 0.0
H1271 H 0.39449 0.8852 0.1022 0.0
H1272 H 0.44474 0.93892 0.06582 0.0
H1273 H 0.43154 0.92413 0.0925 0.0
H1274 H 0.31709 0.93077 0.03543 0.0
H1275 H 0.30242 0.90989 0.05965 0.0
H1276 H 0.34238 0.93172 0.00825 0.0
H1277 H 0.37965 0.94745 0.00476 0.0
C1278 C 0.13144 0.48773 0.06417 0.0
C1279 C 0.12909 0.45816 0.05944 0.0
C1280 C 0.08733 0.44214 0.02967 0.0
C1281 C 0.08872 0.4711 0.03532 0.0
N1282 N 0.10763 0.51856 0.0615 0.0
N1283 N 0.10248 0.40534 0.04072 0.0
C1284 C 0.1096 0.49318 0.05352 0.0
C1285 C 0.10626 0.43475 0.04311 0.0
N1286 N 0.15486 0.51081 0.07852 0.0
N1287 N 0.06881 0.4223 0.01081 0.0
H1288 H 0.11635 0.39932 0.04987 0.0
H1289 H 0.08438 0.3863 0.03112 0.0
H1290 H 0.05469 0.42696 1.00052 0.0
H1291 H 0.06899 0.40243 1.00413 0.0
H1292 H 0.15974 0.53396 0.08036 0.0
H1293 H 0.17074 0.50736 0.08735 0.0
H1294 H 0.12015 0.53359 0.07644 0.0
H1295 H 0.09141 0.52297 0.05474 0.0
C1296 C 0.52119 0.64147 0.01246 0.0
C1297 C 0.5455 0.66186 0.02896 0.0
C1298 C 0.56054 0.62244 0.02895 0.0
C1299 C 0.5318 0.5994 0.01844 0.0
N1300 N 0.48576 0.58833 0.99753 0.0
N1301 N 0.59639 0.67777 0.03697 0.0
C1302 C 0.51223 0.60922 0.00967 0.0
C1303 C 0.56781 0.6542 0.03251 0.0
N1304 N 0.51145 0.65352 0.99557 0.0
N1305 N 0.58054 0.61423 0.03667 0.0
H1306 H 0.60221 0.70125 0.03725 0.0
H1307 H 0.61429 0.67427 0.03734 0.0
H1308 H 0.57735 0.59181 0.03414 0.0
H1309 H 0.59984 0.62946 0.04733 0.0
H1310 H 0.49491 0.63974 0.98205 0.0
H1311 H 0.52417 0.67683 0.99215 0.0
H1312 H 0.46968 0.59413 0.99334 0.0
H1313 H 0.47952 0.56522 0.99225 0.0
C1314 C 0.92929 0.35258 0.97526 0.0
C1315 C 0.89919 0.34381 0.9724 0.0
C1316 C 0.91213 0.39541 0.99096 0.0
C1317 C 0.94245 0.40613 0.98933 0.0
N1318 N 0.9792 0.39473 0.97519 0.0
N1319 N 0.86258 0.35951 0.97374 0.0
C1320 C 0.95101 0.38468 0.9804 0.0
C1321 C 0.89069 0.36589 0.97929 0.0
N1322 N 0.93722 0.33026 0.97339 0.0
N1323 N 0.90371 0.41292 1.00425 0.0
H1324 H 0.84638 0.33877 0.96425 0.0
H1325 H 0.85626 0.3762 0.9764 0.0
H1326 H 0.91877 0.43374 0.01435 0.0
H1327 H 0.88192 0.40484 0.00753 0.0
H1328 H 0.9587 0.33518 0.97756 0.0
H1329 H 0.92187 0.30642 0.97025 0.0
H1330 H 0.98529 0.38011 0.96639 0.0
H1331 H 0.9959 0.41801 0.977 0.0
C1332 C 0.64521 0.53436 0.93997 0.0
C1333 C 0.66955 0.5646 0.94719 0.0
C1334 C 0.64147 0.57339 0.9769 0.0
C1335 C 0.61713 0.54291 0.96989 0.0
N1336 N 0.59404 0.49578 0.9429 0.0
N1337 N 0.69028 0.61477 0.96967 0.0
C1338 C 0.61842 0.52392 0.95073 0.0
C1339 C 0.66748 0.58467 0.96485 0.0
N1340 N 0.64824 0.51519 0.92344 0.0
N1341 N 0.63962 0.59163 0.995 0.0
H1342 H 0.70971 0.62356 0.96139 0.0
H1343 H 0.6896 0.63186 0.98066 0.0
H1344 H 0.62015 0.58591 1.00252 0.0
H1345 H 0.65745 0.61222 1.00318 0.0
H1346 H 0.63292 0.49158 0.91933 0.0
H1347 H 0.66699 0.52259 0.91438 0.0
H1348 H 0.59206 0.48267 0.92719 0.0
H1349 H 0.57494 0.48584 0.95159 0.0
C1350 C 0.46679 0.08429 0.94136 0.0
C1351 C 0.44613 0.09043 0.95182 0.0
C1352 C 0.45045 0.0659 0.98717 0.0
C1353 C 0.46847 0.05664 0.97552 0.0
N1354 N 0.48711 0.05031 0.93866 0.0
N1355 N 0.41404 0.08195 0.98284 0.0
C1356 C 0.47482 0.06397 0.95181 0.0
C1357 C 0.43669 0.07971 0.97421 0.0
N1358 N 0.4796 0.09866 0.92187 0.0
N1359 N 0.44746 0.0628 0.01084 0.0
H1360 H 0.40317 0.09149 0.9737 0.0
H1361 H 0.40425 0.07169 0.99789 0.0
H1362 H 0.45796 0.05381 0.02115 0.0
H1363 H 0.437 0.07201 0.02077 0.0
H1364 H 0.49708 0.09754 0.91513 0.0
H1365 H 0.47488 0.11428 0.91387 0.0
H1366 H 0.48959 0.05271 0.92065 0.0
H1367 H 0.49178 0.03377 0.94482 0.0
C1368 C 0.63975 0.10914 0.94138 0.0
C1369 C 0.66223 0.10157 0.94497 0.0
C1370 C 0.63459 0.06609 0.97451 0.0
C1371 C 0.61129 0.0722 0.96983 0.0
N1372 N 0.58896 0.0944 0.94527 0.0
N1373 N 0.67949 0.06966 0.96213 0.0
C1374 C 0.61315 0.09244 0.95236 0.0
C1375 C 0.65913 0.07902 0.96069 0.0
N1376 N 0.64406 0.13274 0.92779 0.0
N1377 N 0.63384 0.049 0.99286 0.0
H1378 H 0.69804 0.07912 0.95268 0.0
H1379 H 0.67694 0.05089 0.97117 0.0
H1380 H 0.61647 0.03948 1.00356 0.0
H1381 H 0.65143 0.0464 0.99886 0.0
H1382 H 0.63013 0.14193 0.92679 0.0
H1383 H 0.66275 0.14474 0.91877 0.0
H1384 H 0.58788 0.10585 0.93073 0.0
H1385 H 0.56887 0.08208 0.95242 0.0
C1386 C 0.90238 0.54416 0.93018 0.0
C1387 C 0.90232 0.57045 0.94143 0.0
C1388 C 0.9326 0.57094 0.97621 0.0
C1389 C 0.9325 0.54453 0.965 0.0
N1390 N 0.92045 0.50771 0.93069 0.0
N1391 N 0.91489 0.60771 0.97548 0.0
C1392 C 0.91832 0.53167 0.94177 0.0
C1393 C 0.91679 0.58353 0.96455 0.0
N1394 N 0.88583 0.53016 0.90896 0.0
N1395 N 0.9494 0.58514 0.9973 0.0
H1396 H 0.90529 0.61895 0.96693 0.0
H1397 H 0.92153 0.61592 0.99331 0.0
H1398 H 0.96148 0.57684 0.0063 0.0
H1399 H 0.95318 0.60635 0.00535 0.0
H1400 H 0.88211 0.50899 0.90087 0.0
H1401 H 0.87404 0.53873 0.89986 0.0
H1402 H 0.91418 0.4999 0.91276 0.0
H1403 H 0.92982 0.49622 0.93919 0.0
C1404 C 0.49422 0.37346 0.96245 0.0
C1405 C 0.46912 0.34804 0.97034 0.0
C1406 C 0.46571 0.38414 0.99958 0.0
C1407 C 0.48725 0.41003 0.98868 0.0
N1408 N 0.51853 0.42797 0.95613 0.0
N1409 N 0.4284 0.32923 0.99453 0.0
C1410 C 0.50082 0.40442 0.96926 0.0
C1411 C 0.4541 0.35336 0.98839 0.0
N1412 N 0.51198 0.36808 0.94859 0.0
N1413 N 0.45744 0.38863 0.02123 0.0
H1414 H 0.41922 0.30634 0.98677 0.0
H1415 H 0.41497 0.33251 0.00579 0.0
H1416 H 0.46713 0.41041 0.03101 0.0
H1417 H 0.44371 0.37026 0.03079 0.0
H1418 H 0.53238 0.3858 0.94456 0.0
H1419 H 0.50785 0.34567 0.94321 0.0
H1420 H 0.52679 0.4242 0.94077 0.0
H1421 H 0.52225 0.45061 0.95842 0.0
C1422 C 0.08075 0.65033 0.04114 0.0
C1423 C 0.11104 0.65961 0.04281 0.0
C1424 C 0.09864 0.61062 0.01974 0.0
C1425 C 0.0683 0.59919 0.02171 0.0
N1426 N 0.03109 0.60676 0.03926 0.0
N1427 N 0.14808 0.64511 0.03781 0.0
C1428 C 0.05937 0.61868 0.03361 0.0
C1429 C 0.11985 0.63885 0.03316 0.0
N1430 N 0.07234 0.67178 0.04633 0.0
N1431 N 0.10727 0.59488 0.00466 0.0
H1432 H 0.16408 0.66469 0.04859 0.0
H1433 H 0.15469 0.62911 0.03306 0.0
H1434 H 0.09233 0.57481 0.99373 0.0
H1435 H 0.12907 0.60375 1.00107 0.0
H1436 H 0.05067 0.66673 0.04327 0.0
H1437 H 0.08739 0.69537 0.05126 0.0
H1438 H 0.02451 0.61947 0.05001 0.0
H1439 H 0.01492 0.58335 0.03557 0.0
C1440 C 0.37985 0.46917 0.08508 0.0
C1441 C 0.35255 0.44303 0.07555 0.0
C1442 C 0.37558 0.43655 0.04072 0.0
C1443 C 0.40209 0.46436 0.04922 0.0
N1444 N 0.42884 0.50949 0.07775 0.0
N1445 N 0.32335 0.40283 0.04374 0.0
C1446 C 0.40415 0.48117 0.07106 0.0
C1447 C 0.35013 0.42699 0.05319 0.0
N1448 N 0.38254 0.4825 0.10756 0.0
N1449 N 0.37512 0.41853 0.02131 0.0
H1450 H 0.30464 0.39374 0.053 0.0
H1451 H 0.3192 0.39281 0.0263 0.0
H1452 H 0.39328 0.42474 0.01171 0.0
H1453 H 0.35757 0.39627 0.01573 0.0
H1454 H 0.4026 0.4991 0.11665 0.0
H1455 H 0.36494 0.47537 0.11796 0.0
H1456 H 0.43054 0.52464 0.09203 0.0
H1457 H 0.44691 0.51923 0.06779 0.0
C1458 C 0.56831 0.93164 0.04348 0.0
C1459 C 0.54741 0.90661 0.05542 0.0
C1460 C 0.50736 0.90783 0.03257 0.0
C1461 C 0.528 0.93573 0.0233 0.0
N1462 N 0.5769 0.96373 0.01068 0.0
N1463 N 0.49718 0.87366 0.06386 0.0
C1464 C 0.55834 0.94502 0.02619 0.0
C1465 C 0.51697 0.8955 0.05064 0.0
N1466 N 0.59765 0.94265 0.04874 0.0
N1467 N 0.47897 0.89153 0.02251 0.0
H1468 H 0.50343 0.86436 0.07758 0.0
H1469 H 0.47504 0.8672 0.06281 0.0
H1470 H 0.47227 0.89771 0.00706 0.0
H1471 H 0.46343 0.86969 0.02723 0.0
H1472 H 0.61418 0.9631 0.0429 0.0
H1473 H 0.60563 0.93254 0.06044 0.0
H1474 H 0.59897 0.97022 0.01093 0.0
H1475 H 0.56925 0.96872 0.99514 0.0
C1476 C 0.02369 0.25052 0.40271 0.0
C1477 C 0.99524 0.23161 0.39059 0.0
C1478 C 0.01712 0.24286 0.35248 0.0
C1479 C 0.04501 0.26389 0.36478 0.0
N1480 N 0.07136 0.29601 0.4015 0.0
N1481 N 0.96428 0.21728 0.35369 0.0
C1482 C 0.04725 0.27049 0.38982 0.0
C1483 C 0.99173 0.22993 0.36533 0.0
N1484 N 0.02886 0.24833 0.42624 0.0
N1485 N 0.01473 0.23551 0.32855 0.0
H1486 H 0.94535 0.20929 0.36258 0.0
H1487 H 0.96063 0.21788 0.33551 0.0
H1488 H 0.03252 0.24597 0.31834 0.0
H1489 H 0.99546 0.21773 0.31916 0.0
H1490 H 0.04996 0.25965 0.43508 0.0
H1491 H 0.01279 0.23251 0.43617 0.0
H1492 H 0.07266 0.3026 0.41954 0.0
H1493 H 0.08826 0.31279 0.39285 0.0
C1494 C 0.79 0.77792 0.3553 0.0
C1495 C 0.78408 0.76093 0.37558 0.0
C1496 C 0.73401 0.75251 0.37172 0.0
C1497 C 0.7437 0.77751 0.35702 0.0
N1498 N 0.78063 0.81248 0.3329 0.0
N1499 N 0.74381 0.7139 0.38751 0.0
C1500 C 0.77163 0.78981 0.34822 0.0
C1501 C 0.75397 0.74269 0.37959 0.0
N1502 N 0.8093 0.7776 0.34037 0.0
N1503 N 0.70619 0.7387 0.37866 0.0
H1504 H 0.75729 0.70418 0.38945 0.0
H1505 H 0.72165 0.69821 0.38888 0.0
H1506 H 0.69044 0.74393 0.37216 0.0
H1507 H 0.6993 0.7232 0.39174 0.0
H1508 H 0.81247 0.78732 0.32417 0.0
H1509 H 0.81857 0.7635 0.34268 0.0
H1510 H 0.80204 0.82399 0.3279 0.0
H1511 H 0.76727 0.8208 0.32626 0.0
C1512 C 0.22807 0.98505 0.37049 0.0
C1513 C 0.20452 0.98928 0.37656 0.0
C1514 C 0.16966 0.93605 0.35905 0.0
C1515 C 0.193 0.92964 0.35751 0.0
N1516 N 0.24557 0.94888 0.36562 0.0
N1517 N 0.15247 0.96707 0.37956 0.0
C1518 C 0.22261 0.95439 0.36399 0.0
C1519 C 0.17515 0.9643 0.37165 0.0
N1520 N 0.25569 0.01039 0.37053 0.0
N1521 N 0.14254 0.91594 0.34752 0.0
H1522 H 0.15557 0.98722 0.38917 0.0
H1523 H 0.13096 0.94832 0.37848 0.0
H1524 H 0.13828 0.89641 0.33634 0.0
H1525 H 0.1255 0.92086 0.34658 0.0
H1526 H 0.27299 0.00896 0.36373 0.0
H1527 H 0.26054 0.03328 0.37499 0.0
H1528 H 0.26664 0.96572 0.3729 0.0
H1529 H 0.2436 0.92707 0.36251 0.0
C1530 C 0.58513 0.67367 0.30805 0.0
C1531 C 0.55551 0.66645 0.30468 0.0
C1532 C 0.57012 0.71851 0.32324 0.0
C1533 C 0.60018 0.72767 0.32224 0.0
N1534 N 0.63576 0.71423 0.30864 0.0
N1535 N 0.52051 0.68442 0.30536 0.0
C1536 C 0.60769 0.7053 0.31352 0.0
C1537 C 0.54808 0.68946 0.31136 0.0
N1538 N 0.59177 0.65036 0.30616 0.0
N1539 N 0.56249 0.73714 0.33602 0.0
H1540 H 0.50391 0.664 0.29579 0.0
H1541 H 0.51507 0.70185 0.30778 0.0
H1542 H 0.57796 0.7578 0.34606 0.0
H1543 H 0.5408 0.7302 0.33888 0.0
H1544 H 0.61282 0.65418 0.31062 0.0
H1545 H 0.5757 0.6268 0.30263 0.0
H1546 H 0.64134 0.69903 0.30009 0.0
H1547 H 0.65278 0.73732 0.31039 0.0
C1548 C 0.33031 0.90724 0.29409 0.0
C1549 C 0.32803 0.88607 0.27505 0.0
C1550 C 0.27525 0.85279 0.27897 0.0
C1551 C 0.27834 0.87207 0.29978 0.0
N1552 N 0.30849 0.9174 0.32762 0.0
N1553 N 0.29931 0.83811 0.24967 0.0
C1554 C 0.30581 0.89925 0.30747 0.0
C1555 C 0.30065 0.85888 0.26734 0.0
N1556 N 0.35579 0.93541 0.2989 0.0
N1557 N 0.2481 0.82843 0.27049 0.0
H1558 H 0.31726 0.8422 0.24037 0.0
H1559 H 0.28102 0.81604 0.24501 0.0
H1560 H 0.2294 0.82133 0.27952 0.0
H1561 H 0.24364 0.81612 0.25385 0.0
H1562 H 0.3582 0.95336 0.31093 0.0
H1563 H 0.37404 0.942 0.28932 0.0
H1564 H 0.32854 0.9351 0.33594 0.0
H1565 H 0.29066 0.91395 0.33682 0.0
C1566 C 0.1404 0.43952 0.29494 0.0
C1567 C 0.11112 0.42632 0.28434 0.0
C1568 C 0.10075 0.37487 0.29518 0.0
C1569 C 0.12878 0.38886 0.30849 0.0
N1570 N 0.17182 0.43644 0.32601 0.0
N1571 N 0.06134 0.3826 0.27998 0.0
C1572 C 0.14759 0.4218 0.30988 0.0
C1573 C 0.09061 0.39435 0.2862 0.0
N1574 N 0.16178 0.46841 0.28998 0.0
N1575 N 0.08443 0.34324 0.28966 0.0
H1576 H 0.05286 0.3963 0.27407 0.0
H1577 H 0.04528 0.36013 0.28315 0.0
H1578 H 0.09155 0.32793 0.29421 0.0
H1579 H 0.06527 0.33258 0.27807 0.0
H1580 H 0.18396 0.47766 0.29561 0.0
H1581 H 0.15794 0.48158 0.27811 0.0
H1582 H 0.18476 0.46071 0.32901 0.0
H1583 H 0.17693 0.4246 0.33832 0.0
C1584 C 0.29351 0.44036 0.27367 0.0
C1585 C 0.31587 0.4324 0.27532 0.0
C1586 C 0.29253 0.39982 0.30753 0.0
C1587 C 0.26898 0.40587 0.30468 0.0
N1588 N 0.24392 0.4265 0.28138 0.0
N1589 N 0.33459 0.40098 0.29102 0.0
C1590 C 0.26866 0.42486 0.28687 0.0
C1591 C 0.3147 0.41099 0.29142 0.0
N1592 N 0.29629 0.46322 0.25983 0.0
N1593 N 0.29433 0.38442 0.32626 0.0
H1594 H 0.35124 0.4089 0.27959 0.0
H1595 H 0.33313 0.38294 0.30048 0.0
H1596 H 0.27886 0.37649 0.3387 0.0
H1597 H 0.31245 0.38204 0.33081 0.0
H1598 H 0.28263 0.47276 0.26015 0.0
H1599 H 0.31357 0.47428 0.24922 0.0
H1600 H 0.24121 0.43689 0.26673 0.0
H1601 H 0.22483 0.41485 0.28995 0.0
C1602 C 0.55129 0.85582 0.2747 0.0
C1603 C 0.5604 0.88812 0.27717 0.0
C1604 C 0.60409 0.89916 0.30298 0.0
C1605 C 0.59382 0.86661 0.3019 0.0
N1606 N 0.55623 0.81337 0.28909 0.0
N1607 N 0.59269 0.94003 0.29631 0.0
C1608 C 0.56688 0.84475 0.28858 0.0
C1609 C 0.5861 0.9097 0.29201 0.0
N1610 N 0.52853 0.83595 0.25826 0.0
N1611 N 0.63114 0.92002 0.31434 0.0
H1612 H 0.58004 0.94856 0.28858 0.0
H1613 H 0.60926 0.95615 0.30892 0.0
H1614 H 0.64425 0.9132 0.3237 0.0
H1615 H 0.64144 0.94406 0.31333 0.0
H1616 H 0.52287 0.81289 0.25362 0.0
H1617 H 0.51663 0.84316 0.24769 0.0
H1618 H 0.53512 0.79628 0.28216 0.0
H1619 H 0.56775 0.80424 0.29782 0.0
C1620 C 0.11808 0.68771 0.32094 0.0
C1621 C 0.13639 0.68379 0.30533 0.0
C1622 C 0.17648 0.73689 0.31845 0.0
C1623 C 0.1568 0.74233 0.33131 0.0
N1624 N 0.11593 0.71782 0.35509 0.0
N1625 N 0.18255 0.70484 0.28796 0.0
C1626 C 0.12945 0.71629 0.33556 0.0
C1627 C 0.16551 0.70843 0.30376 0.0
N1628 N 0.08953 0.66442 0.3213 0.0
N1629 N 0.20606 0.75738 0.32229 0.0
H1630 H 0.1757 0.68399 0.27746 0.0
H1631 H 0.20253 0.72326 0.2839 0.0
H1632 H 0.21509 0.77549 0.33596 0.0
H1633 H 0.22178 0.75374 0.31471 0.0
H1634 H 0.07418 0.66728 0.33027 0.0
H1635 H 0.08048 0.64306 0.31093 0.0
H1636 H 0.09696 0.69889 0.36009 0.0
H1637 H 0.12624 0.73642 0.36836 0.0
C1638 C 0.75886 0.9731 0.36115 0.0
C1639 C 0.7758 0.97512 0.38228 0.0
C1640 C 0.74594 0.91856 0.38317 0.0
C1641 C 0.73196 0.91592 0.36027 0.0
N1642 N 0.72818 0.94072 0.32586 0.0
N1643 N 0.78944 0.94876 0.41052 0.0
C1644 C 0.73917 0.94323 0.3488 0.0
C1645 C 0.7705 0.94755 0.39247 0.0
N1646 N 0.76088 0.99958 0.35328 0.0
N1647 N 0.73492 0.89384 0.39669 0.0
H1648 H 0.80828 0.96943 0.41748 0.0
H1649 H 0.78804 0.92879 0.41687 0.0
H1650 H 0.71582 0.87271 0.3913 0.0
H1651 H 0.74266 0.8956 0.41436 0.0
H1652 H 0.74695 0.99921 0.33935 0.0
H1653 H 0.7746 0.02178 0.3621 0.0
H1654 H 0.73514 0.95974 0.31582 0.0
H1655 H 0.71406 0.91929 0.31613 0.0
C1656 C 0.01645 0.75956 0.39181 0.0
C1657 C 0.01899 0.77681 0.41358 0.0
C1658 C 0.07071 0.81408 0.40875 0.0
C1659 C 0.06842 0.79616 0.38744 0.0
N1660 N 0.04131 0.74888 0.36096 0.0
N1661 N 0.04908 0.81756 0.44476 0.0
C1662 C 0.04186 0.76811 0.37953 0.0
C1663 C 0.04637 0.80311 0.42272 0.0
N1664 N 0.9896 0.73517 0.38272 0.0
N1665 N 0.09563 0.84239 0.41496 0.0
H1666 H 0.03145 0.81104 0.45506 0.0
H1667 H 0.06912 0.83451 0.45364 0.0
H1668 H 0.11369 0.85143 0.40498 0.0
H1669 H 0.09766 0.85817 0.42887 0.0
H1670 H 0.98542 0.72432 0.36555 0.0
H1671 H 0.97087 0.72674 0.39191 0.0
H1672 H 0.02366 0.72647 0.35598 0.0
H1673 H 0.05952 0.75417 0.35165 0.0
C1674 C 0.19693 0.25284 0.39978 0.0
C1675 C 0.21142 0.23922 0.38794 0.0
C1676 C 0.20182 0.25691 0.35048 0.0
C1677 C 0.19046 0.27338 0.36309 0.0
N1678 N 0.18818 0.29599 0.40114 0.0
N1679 N 0.23379 0.23496 0.35278 0.0
C1680 C 0.19108 0.27389 0.38816 0.0
C1681 C 0.21563 0.2431 0.36343 0.0
N1682 N 0.18788 0.24512 0.42182 0.0
N1683 N 0.19895 0.25388 0.32624 0.0
H1684 H 0.24546 0.22629 0.36191 0.0
H1685 H 0.23965 0.23991 0.3356 0.0
H1686 H 0.18862 0.2634 0.31638 0.0
H1687 H 0.20436 0.23961 0.3161 0.0
H1688 H 0.17512 0.25278 0.43012 0.0
H1689 H 0.19022 0.22844 0.43056 0.0
H1690 H 0.19075 0.2988 0.41967 0.0
H1691 H 0.18752 0.31412 0.39331 0.0
C1692 C 0.66054 0.55896 0.69689 0.0
C1693 C 0.66045 0.5684 0.72105 0.0
C1694 C 0.71129 0.61072 0.72051 0.0
C1695 C 0.71355 0.59621 0.69884 0.0
N1696 N 0.68885 0.5569 0.66541 0.0
N1697 N 0.67782 0.61766 0.74397 0.0
C1698 C 0.68778 0.57031 0.68678 0.0
C1699 C 0.68358 0.59859 0.72979 0.0
N1700 N 0.63487 0.54465 0.68244 0.0
N1701 N 0.73548 0.63534 0.73297 0.0
H1702 H 0.65638 0.61122 0.74751 0.0
H1703 H 0.69324 0.64109 0.74905 0.0
H1704 H 0.75644 0.64568 0.72731 0.0
H1705 H 0.73495 0.64388 0.75008 0.0
H1706 H 0.63383 0.53976 0.66415 0.0
H1707 H 0.61549 0.54235 0.68826 0.0
H1708 H 0.67123 0.53588 0.65742 0.0
H1709 H 0.7076 0.56584 0.65626 0.0
C1710 C 0.45891 0.15526 0.73402 0.0
C1711 C 0.45339 0.12418 0.73305 0.0
C1712 C 0.40582 0.10547 0.71031 0.0
C1713 C 0.41302 0.13694 0.70883 0.0
N1714 N 0.44878 0.19215 0.71568 0.0
N1715 N 0.42372 0.06996 0.71763 0.0
C1716 C 0.44015 0.16198 0.71981 0.0
C1717 C 0.42741 0.0993 0.72047 0.0
N1718 N 0.48183 0.17825 0.74882 0.0
N1719 N 0.378 0.08151 0.70309 0.0
H1720 H 0.43882 0.06437 0.72511 0.0
H1721 H 0.40686 0.05177 0.70635 0.0
H1722 H 0.36127 0.08501 0.69615 0.0
H1723 H 0.37069 0.05834 0.70609 0.0
H1724 H 0.48507 0.20067 0.75219 0.0
H1725 H 0.49608 0.17413 0.75946 0.0
H1726 H 0.46963 0.21099 0.72127 0.0
H1727 H 0.43634 0.19813 0.70456 0.0
C1728 C 0.8693 0.31632 0.67823 0.0
C1729 C 0.88703 0.33046 0.7001 0.0
C1730 C 0.88582 0.28171 0.70646 0.0
C1731 C 0.86313 0.26584 0.68764 0.0
N1732 N 0.83403 0.26844 0.65437 0.0
N1733 N 0.92893 0.33107 0.71979 0.0
C1734 C 0.85501 0.28323 0.67312 0.0
C1735 C 0.90047 0.31464 0.71005 0.0
N1736 N 0.87078 0.33463 0.66068 0.0
N1737 N 0.89277 0.26551 0.72165 0.0
H1738 H 0.94174 0.35522 0.7191 0.0
H1739 H 0.94057 0.32032 0.72541 0.0
H1740 H 0.88125 0.24122 0.72068 0.0
H1741 H 0.90771 0.27641 0.7367 0.0
H1742 H 0.86046 0.32571 0.64356 0.0
H1743 H 0.8861 0.35856 0.66234 0.0
H1744 H 0.8252 0.2797 0.64486 0.0
H1745 H 0.8242 0.24454 0.6493 0.0
C1746 C 0.25475 0.01401 0.6424 0.0
C1747 C 0.22443 0.00444 0.64078 0.0
C1748 C 0.23683 0.05461 0.6617 0.0
C1749 C 0.26703 0.06647 0.65867 0.0
N1750 N 0.30396 0.0574 0.64189 0.0
N1751 N 0.18705 0.01861 0.6452 0.0
C1752 C 0.27597 0.04616 0.6481 0.0
C1753 C 0.21549 0.02547 0.64953 0.0
N1754 N 0.26333 0.9924 0.63878 0.0
N1755 N 0.22849 0.07076 0.67662 0.0
H1756 H 0.17086 0.9983 0.63524 0.0
H1757 H 0.18036 0.03471 0.64935 0.0
H1758 H 0.24364 0.09128 0.68701 0.0
H1759 H 0.20687 0.06176 0.6808 0.0
H1760 H 0.28511 0.99783 0.64193 0.0
H1761 H 0.24834 0.96852 0.6352 0.0
H1762 H 0.31016 0.04371 0.6319 0.0
H1763 H 0.32028 0.08083 0.64426 0.0
C1764 C 0.99334 0.2411 0.63392 0.0
C1765 C 0.99322 0.22348 0.61324 0.0
C1766 C 0.94084 0.18561 0.61526 0.0
C1767 C 0.94165 0.20185 0.63704 0.0
N1768 N 0.96871 0.24366 0.66827 0.0
N1769 N 0.96818 0.1779 0.58497 0.0
C1770 C 0.96796 0.22917 0.64674 0.0
C1771 C 0.96724 0.19553 0.60399 0.0
N1772 N 0.01758 0.26972 0.64085 0.0
N1773 N 0.91479 0.16065 0.60536 0.0
H1774 H 0.98682 0.18499 0.57581 0.0
H1775 H 0.95117 0.15552 0.57894 0.0
H1776 H 0.89545 0.15136 0.6138 0.0
H1777 H 0.91175 0.15008 0.58824 0.0
H1778 H 0.01831 0.28536 0.65428 0.0
H1779 H 0.03647 0.2791 0.63182 0.0
H1780 H 0.98792 0.2614 0.67768 0.0
H1781 H 0.95026 0.23676 0.67761 0.0
C1782 C 0.75892 0.72849 0.62495 0.0
C1783 C 0.77811 0.76113 0.62476 0.0
C1784 C 0.81401 0.75755 0.6518 0.0
C1785 C 0.79717 0.72441 0.64829 0.0
N1786 N 0.75655 0.67881 0.62544 0.0
N1787 N 0.82726 0.80556 0.63421 0.0
C1788 C 0.77029 0.70986 0.63331 0.0
C1789 C 0.80661 0.77546 0.63721 0.0
N1790 N 0.72975 0.71518 0.61746 0.0
N1791 N 0.83663 0.77205 0.66938 0.0
H1792 H 0.82354 0.81901 0.62255 0.0
H1793 H 0.84909 0.81586 0.6413 0.0
H1794 H 0.84172 0.75975 0.68127 0.0
H1795 H 0.84796 0.79617 0.67382 0.0
H1796 H 0.71455 0.69182 0.61918 0.0
H1797 H 0.72029 0.72823 0.61211 0.0
H1798 H 0.73834 0.66823 0.61283 0.0
H1799 H 0.76525 0.66454 0.62893 0.0
C1800 C 0.9823 0.74274 0.62359 0.0
C1801 C 0.98667 0.7676 0.60994 0.0
C1802 C 0.94411 0.76747 0.62568 0.0
C1803 C 0.93829 0.74097 0.63786 0.0
N1804 N 0.94856 0.69956 0.64461 0.0
N1805 N 0.96938 0.80058 0.59491 0.0
C1806 C 0.95657 0.72761 0.6359 0.0
C1807 C 0.96678 0.77899 0.61004 0.0
N1808 N 0.00305 0.73392 0.62514 0.0
N1809 N 0.92875 0.78248 0.62987 0.0
H1810 H 0.98599 0.80989 0.5835 0.0
H1811 H 0.95372 0.8073 0.59219 0.0
H1812 H 0.91258 0.77531 0.64171 0.0
H1813 H 0.9339 0.80372 0.62347 0.0
H1814 H 0.00299 0.71866 0.63706 0.0
H1815 H 0.02154 0.74354 0.61562 0.0
H1816 H 0.95915 0.68696 0.64131 0.0
H1817 H 0.92971 0.68733 0.65335 0.0
C1818 C 0.24415 0.24423 0.62325 0.0
C1819 C 0.22299 0.22548 0.60403 0.0
C1820 C 0.23321 0.18299 0.60948 0.0
C1821 C 0.25252 0.20077 0.62987 0.0
N1822 N 0.2743 0.24652 0.65809 0.0
N1823 N 0.19494 0.17625 0.57989 0.0
C1824 C 0.25754 0.23099 0.63724 0.0
C1825 C 0.21685 0.19462 0.5974 0.0
N1826 N 0.25168 0.27483 0.62789 0.0
N1827 N 0.23136 0.15555 0.60121 0.0
H1828 H 0.18333 0.18441 0.57 0.0
H1829 H 0.18702 0.15246 0.57607 0.0
H1830 H 0.2427 0.14614 0.60985 0.0
H1831 H 0.22034 0.14322 0.58495 0.0
H1832 H 0.26922 0.29078 0.63988 0.0
H1833 H 0.24171 0.28507 0.61844 0.0
H1834 H 0.27628 0.26708 0.66586 0.0
H1835 H 0.28459 0.23762 0.66875 0.0
C1836 C 0.80781 0.03687 0.6208 0.0
C1837 C 0.7855 0.01187 0.63173 0.0
C1838 C 0.78493 0.04945 0.66136 0.0
C1839 C 0.80434 0.07442 0.64856 0.0
N1840 N 0.82959 0.09094 0.61301 0.0
N1841 N 0.74889 0.99428 0.65982 0.0
C1842 C 0.81453 0.06791 0.62742 0.0
C1843 C 0.77288 0.01812 0.65127 0.0
N1844 N 0.82335 0.03117 0.60467 0.0
N1845 N 0.77917 0.05548 0.68369 0.0
H1846 H 0.73924 0.97105 0.65273 0.0
H1847 H 0.73697 0.99797 0.67242 0.0
H1848 H 0.78881 0.07795 0.69235 0.0
H1849 H 0.76742 0.03798 0.69463 0.0
H1850 H 0.84191 0.0489 0.59807 0.0
H1851 H 0.81963 0.00883 0.59968 0.0
H1852 H 0.83444 0.08653 0.59612 0.0
H1853 H 0.83468 0.11397 0.61669 0.0
C1854 C 0.42358 0.29681 0.72486 0.0
C1855 C 0.42682 0.32193 0.71209 0.0
C1856 C 0.39084 0.28458 0.68024 0.0
C1857 C 0.38569 0.25963 0.6941 0.0
N1858 N 0.39171 0.24328 0.73247 0.0
N1859 N 0.40967 0.34028 0.67985 0.0
C1860 C 0.40046 0.26611 0.71726 0.0
C1861 C 0.40925 0.31599 0.69042 0.0
N1862 N 0.4433 0.30195 0.74371 0.0
N1863 N 0.3794 0.27842 0.65704 0.0
H1864 H 0.42279 0.36353 0.6869 0.0
H1865 H 0.39514 0.33718 0.66536 0.0
H1866 H 0.36633 0.25583 0.64874 0.0
H1867 H 0.38504 0.29568 0.64541 0.0
H1868 H 0.4437 0.28389 0.75196 0.0
H1869 H 0.46108 0.32398 0.74966 0.0
H1870 H 0.39965 0.24767 0.75035 0.0
H1871 H 0.37425 0.22064 0.72801 0.0
C1872 C 0.67028 0.09839 0.71067 0.0
C1873 C 0.67331 0.10425 0.73583 0.0
C1874 C 0.7265 0.12671 0.73591 0.0
C1875 C 0.72405 0.12571 0.71067 0.0
N1876 N 0.69311 0.11175 0.67381 0.0
N1877 N 0.70534 0.13053 0.77184 0.0
C1878 C 0.69578 0.11215 0.69799 0.0
C1879 C 0.7017 0.1202 0.74832 0.0
N1880 N 0.64317 0.07844 0.699 0.0
N1881 N 0.75214 0.13312 0.74825 0.0
H1882 H 0.68794 0.12737 0.78151 0.0
H1883 H 0.72594 0.14514 0.78106 0.0
H1884 H 0.77061 0.13677 0.74012 0.0
H1885 H 0.75393 0.13113 0.76641 0.0
H1886 H 0.6399 0.07082 0.681 0.0
H1887 H 0.6242 0.06691 0.70777 0.0
H1888 H 0.67342 0.10574 0.66401 0.0
H1889 H 0.71086 0.119 0.66358 0.0
C1890 C 0.86853 0.58807 0.73249 0.0
C1891 C 0.8838 0.57563 0.72039 0.0
C1892 C 0.87457 0.59459 0.68347 0.0
C1893 C 0.86208 0.60965 0.69638 0.0
N1894 N 0.8583 0.63016 0.73482 0.0
N1895 N 0.90731 0.57355 0.68537 0.0
C1896 C 0.8622 0.60909 0.72139 0.0
C1897 C 0.88857 0.58073 0.6961 0.0
N1898 N 0.85916 0.57922 0.75427 0.0
N1899 N 0.87242 0.59274 0.65923 0.0
H1900 H 0.9189 0.56462 0.69429 0.0
H1901 H 0.91362 0.57942 0.66843 0.0
H1902 H 0.86208 0.60238 0.64951 0.0
H1903 H 0.87859 0.57937 0.64883 0.0
H1904 H 0.84579 0.58593 0.76268 0.0
H1905 H 0.86191 0.56256 0.76266 0.0
H1906 H 0.86051 0.63224 0.75335 0.0
H1907 H 0.85725 0.64836 0.72747 0.0
C1908 C 0.48876 0.02013 0.10575 0.0
C1909 C 0.48975 0.99347 0.11268 0.0
C1910 C 0.51618 0.99482 0.07819 0.0
C1911 C 0.51061 0.01755 0.06911 0.0
N1912 N 0.48939 0.05047 0.07329 0.0
N1913 N 0.49824 0.95096 0.10164 0.0
C1914 C 0.49634 0.02996 0.08265 0.0
C1915 C 0.5018 0.97956 0.09783 0.0
N1916 N 0.48172 0.03675 0.12143 0.0
N1917 N 0.53594 0.98842 0.06845 0.0
H1918 H 0.48605 0.93777 0.11485 0.0
H1919 H 0.50442 0.9388 0.08988 0.0
H1920 H 0.54842 0.0009 0.05508 0.0
H1921 H 0.54239 0.97362 0.07559 0.0
H1922 H 0.48325 0.05792 0.11806 0.0
H1923 H 0.47706 0.03096 0.13871 0.0
H1924 H 0.476 0.05755 0.08117 0.0
H1925 H 0.49561 0.05887 0.05683 0.0
C1926 C 0.00363 0.52686 0.10897 0.0
C1927 C 0.02445 0.51795 0.11622 0.0
C1928 C 0.01464 0.48958 0.07699 0.0
C1929 C 0.99913 0.50399 0.06832 0.0
N1930 N 0.98316 0.54144 0.07627 0.0
N1931 N 0.05452 0.49626 0.10417 0.0
C1932 C 0.99466 0.52401 0.08435 0.0
C1933 C 0.03132 0.50077 0.09942 0.0
N1934 N 0.99158 0.537 0.12551 0.0
N1935 N 0.01226 0.46412 0.06439 0.0
H1936 H 0.06901 0.50625 0.11952 0.0
H1937 H 0.06123 0.48559 0.09155 0.0
H1938 H 0.99758 0.45349 0.04922 0.0
H1939 H 0.02157 0.45139 0.0708 0.0
H1940 H 0.97451 0.54123 0.12109 0.0
H1941 H 0.99617 0.53762 0.14374 0.0
H1942 H 0.9824 0.55863 0.08718 0.0
H1943 H 0.97705 0.54106 0.05842 0.0
C1944 C 0.49275 0.48262 0.10686 0.0
C1945 C 0.49082 0.50867 0.1161 0.0
C1946 C 0.51496 0.53718 0.08249 0.0
C1947 C 0.51537 0.51059 0.07217 0.0
N1948 N 0.50076 0.45612 0.07319 0.0
N1949 N 0.49225 0.55677 0.10922 0.0
C1950 C 0.50273 0.4826 0.08383 0.0
C1951 C 0.49933 0.53458 0.10267 0.0
N1952 N 0.48665 0.45869 0.12059 0.0
N1953 N 0.53036 0.56542 0.0737 0.0
H1954 H 0.48029 0.5552 0.12371 0.0
H1955 H 0.49519 0.57459 0.0988 0.0
H1956 H 0.54303 0.5687 0.05968 0.0
H1957 H 0.53323 0.58619 0.08195 0.0
H1958 H 0.49096 0.44081 0.11616 0.0
H1959 H 0.47895 0.45774 0.13728 0.0
H1960 H 0.48856 0.43417 0.07928 0.0
H1961 H 0.51008 0.45571 0.0575 0.0
C1962 C 0.01572 0.52429 0.8972 0.0
C1963 C 0.98785 0.49881 0.88786 0.0
C1964 C 0.98286 0.47519 0.92526 0.0
C1965 C 0.00906 0.50203 0.93571 0.0
N1966 N 0.04796 0.55484 0.93254 0.0
N1967 N 0.94138 0.45507 0.89566 0.0
C1968 C 0.02483 0.52746 0.92195 0.0
C1969 C 0.97023 0.47605 0.90285 0.0
N1970 N 0.03395 0.54474 0.88238 0.0
N1971 N 0.97129 0.44782 0.93563 0.0
H1972 H 0.93117 0.45541 0.87947 0.0
H1973 H 0.92701 0.43974 0.9069 0.0
H1974 H 0.98232 0.4449 0.95015 0.0
H1975 H 0.95335 0.42698 0.92778 0.0
H1976 H 0.05571 0.56172 0.88769 0.0
H1977 H 0.02798 0.54323 0.86429 0.0
H1978 H 0.05837 0.57516 0.92395 0.0
H1979 H 0.05516 0.558 0.95054 0.0
C1980 C 0.51505 0.52024 0.90645 0.0
C1981 C 0.509 0.49116 0.89496 0.0
C1982 C 0.48669 0.46513 0.92999 0.0
C1983 C 0.49523 0.49452 0.94261 0.0
N1984 N 0.52028 0.5509 0.94321 0.0
N1985 N 0.49731 0.43813 0.89865 0.0
C1986 C 0.51071 0.52239 0.93108 0.0
C1987 C 0.49744 0.46435 0.9077 0.0
N1988 N 0.52294 0.54527 0.89355 0.0
N1989 N 0.46796 0.43767 0.93884 0.0
H1990 H 0.50638 0.43722 0.8829 0.0
H1991 H 0.49116 0.41856 0.90795 0.0
H1992 H 0.46025 0.43613 0.95547 0.0
H1993 H 0.4584 0.41606 0.9288 0.0
H1994 H 0.52437 0.56604 0.9002 0.0
H1995 H 0.52572 0.5445 0.87549 0.0
H1996 H 0.53499 0.57194 0.93682 0.0
H1997 H 0.51461 0.55367 0.96013 0.0
C1998 C 0.52612 0.00249 0.91158 0.0
C1999 C 0.50364 0.99834 0.89419 0.0
C2000 C 0.46675 0.97063 0.92187 0.0
C2001 C 0.48927 0.97401 0.93878 0.0
N2002 N 0.5373 0.98008 0.94461 0.0
N2003 N 0.45207 0.9674 0.88012 0.0
C2004 C 0.51799 0.98563 0.93193 0.0
C2005 C 0.47374 0.97867 0.89845 0.0
N2006 N 0.55495 0.02402 0.90993 0.0
N2007 N 0.43922 0.96163 0.92824 0.0
H2008 H 0.45659 0.97157 0.86255 0.0
H2009 H 0.4302 0.95111 0.88207 0.0
H2010 H 0.43295 0.95582 0.94518 0.0
H2011 H 0.42327 0.96238 0.91705 0.0
H2012 H 0.57145 0.02901 0.92333 0.0
H2013 H 0.56196 0.0393 0.89672 0.0
H2014 H 0.55794 0.98605 0.93922 0.0
H2015 H 0.53119 0.96662 0.95902 0.0
C2016 C 0.14117 0.31507 0.43426 0.0
C2017 C 0.14955 0.34132 0.45063 0.0
C2018 C 0.1646 0.37543 0.41786 0.0
C2019 C 0.15757 0.34917 0.40151 0.0
N2020 N 0.12671 0.2929 0.39397 0.0
N2021 N 0.17106 0.39681 0.45909 0.0
C2022 C 0.1425 0.3187 0.40968 0.0
C2023 C 0.16159 0.37162 0.4427 0.0
N2024 N 0.13185 0.28625 0.44212 0.0
N2025 N 0.17176 0.40337 0.40936 0.0
H2026 H 0.16861 0.39454 0.47716 0.0
H2027 H 0.18297 0.41995 0.45523 0.0
H2028 H 0.17086 0.40599 0.39125 0.0
H2029 H 0.1752 0.42303 0.41983 0.0
H2030 H 0.13051 0.26756 0.43162 0.0
H2031 H 0.12744 0.28129 0.45957 0.0
H2032 H 0.11349 0.27034 0.3987 0.0
H2033 H 0.12207 0.2948 0.37653 0.0
C2034 C 0.65482 0.83282 0.44344 0.0
C2035 C 0.68073 0.83235 0.4507 0.0
C2036 C 0.68141 0.81374 0.40998 0.0
C2037 C 0.65923 0.82024 0.40186 0.0
N2038 N 0.63061 0.84476 0.41201 0.0
N2039 N 0.72242 0.82861 0.43909 0.0
C2040 C 0.64719 0.83194 0.41885 0.0
C2041 C 0.69508 0.82444 0.43351 0.0
N2042 N 0.63743 0.83414 0.45996 0.0
N2043 N 0.6891 0.79674 0.39546 0.0
H2044 H 0.734 0.83781 0.45579 0.0
H2045 H 0.73483 0.82608 0.42635 0.0
H2046 H 0.67843 0.78704 0.3786 0.0
H2047 H 0.70351 0.78937 0.40131 0.0
H2048 H 0.61699 0.83184 0.45533 0.0
H2049 H 0.64195 0.834 0.47811 0.0
H2050 H 0.62368 0.85572 0.42417 0.0
H2051 H 0.62717 0.84862 0.3946 0.0
C2052 C 0.16379 0.82164 0.4426 0.0
C2053 C 0.16182 0.84795 0.45111 0.0
C2054 C 0.18645 0.87532 0.41725 0.0
C2055 C 0.18619 0.84818 0.40733 0.0
N2056 N 0.17096 0.79366 0.40951 0.0
N2057 N 0.16324 0.89566 0.44271 0.0
C2058 C 0.1734 0.82065 0.41957 0.0
C2059 C 0.17048 0.87334 0.43709 0.0
N2060 N 0.15817 0.79843 0.45698 0.0
N2061 N 0.20281 0.90346 0.40852 0.0
H2062 H 0.15097 0.89449 0.45688 0.0
H2063 H 0.16642 0.91309 0.43176 0.0
H2064 H 0.21647 0.90664 0.39521 0.0
H2065 H 0.20563 0.92437 0.41647 0.0
H2066 H 0.16257 0.78052 0.45295 0.0
H2067 H 0.15102 0.79824 0.47381 0.0
H2068 H 0.15844 0.77202 0.416 0.0
H2069 H 0.18027 0.7925 0.39398 0.0
C2070 C 0.67556 0.84751 0.2305 0.0
C2071 C 0.6482 0.82137 0.22092 0.0
C2072 C 0.64437 0.79698 0.25788 0.0
C2073 C 0.6698 0.82445 0.26863 0.0
N2074 N 0.7075 0.87792 0.26602 0.0
N2075 N 0.60291 0.77551 0.22814 0.0
C2076 C 0.68484 0.85038 0.25517 0.0
C2077 C 0.63141 0.79756 0.23553 0.0
N2078 N 0.69318 0.8689 0.21593 0.0
N2079 N 0.63379 0.7695 0.26804 0.0
H2080 H 0.59234 0.77559 0.21206 0.0
H2081 H 0.58899 0.75933 0.23914 0.0
H2082 H 0.64486 0.76707 0.28278 0.0
H2083 H 0.6166 0.74829 0.25993 0.0
H2084 H 0.71466 0.88657 0.22134 0.0
H2085 H 0.68713 0.86754 0.19787 0.0
H2086 H 0.71726 0.89859 0.2578 0.0
H2087 H 0.71507 0.88067 0.28389 0.0
C2088 C 0.17028 0.79105 0.25 0.0
C2089 C 0.17819 0.81524 0.23482 0.0
C2090 C 0.17054 0.84607 0.26627 0.0
C2091 C 0.15845 0.81984 0.27988 0.0
N2092 N 0.14063 0.7644 0.28111 0.0
N2093 N 0.18168 0.8643 0.2272 0.0
C2094 C 0.15644 0.79145 0.27072 0.0
C2095 C 0.17753 0.84257 0.24267 0.0
N2096 N 0.17652 0.76787 0.24484 0.0
N2097 N 0.17468 0.87418 0.27553 0.0
H2098 H 0.18631 0.86245 0.20973 0.0
H2099 H 0.17811 0.88285 0.23105 0.0
H2100 H 0.16734 0.87723 0.29164 0.0
H2101 H 0.18682 0.89491 0.26774 0.0
H2102 H 0.17393 0.75137 0.25654 0.0
H2103 H 0.18745 0.76738 0.23013 0.0
H2104 H 0.13638 0.74271 0.2736 0.0
H2105 H 0.12899 0.7627 0.2957 0.0
C2106 C 0.14216 0.31626 0.22895 0.0
C2107 C 0.17253 0.33659 0.22653 0.0
C2108 C 0.18383 0.32232 0.26475 0.0
C2109 C 0.15425 0.30962 0.26981 0.0
N2110 N 0.1045 0.29575 0.25608 0.0
N2111 N 0.22274 0.36172 0.24473 0.0
C2112 C 0.13303 0.30656 0.25166 0.0
C2113 C 0.19364 0.3401 0.24498 0.0
N2114 N 0.1221 0.30562 0.20946 0.0
N2115 N 0.20237 0.31679 0.27855 0.0
H2116 H 0.2308 0.37775 0.23208 0.0
H2117 H 0.23842 0.36589 0.25861 0.0
H2118 H 0.19525 0.30306 0.29272 0.0
H2119 H 0.22357 0.32317 0.27441 0.0
H2120 H 0.10005 0.28875 0.20996 0.0
H2121 H 0.12822 0.31089 0.19235 0.0
H2122 H 0.08934 0.29687 0.24417 0.0
H2123 H 0.09634 0.28772 0.27212 0.0
C2124 C 0.81555 0.65469 0.77 0.0
C2125 C 0.8254 0.68159 0.78604 0.0
C2126 C 0.83829 0.7143 0.75243 0.0
C2127 C 0.82987 0.68736 0.73638 0.0
N2128 N 0.79779 0.63121 0.73024 0.0
N2129 N 0.8479 0.73732 0.79351 0.0
C2130 C 0.815 0.65737 0.74527 0.0
C2131 C 0.8371 0.71153 0.77751 0.0
N2132 N 0.80673 0.6262 0.7783 0.0
N2133 N 0.84494 0.74189 0.74353 0.0
H2134 H 0.84682 0.73578 0.81177 0.0
H2135 H 0.85959 0.7602 0.78906 0.0
H2136 H 0.84242 0.74369 0.72542 0.0
H2137 H 0.84944 0.76205 0.75387 0.0
H2138 H 0.80402 0.60693 0.76767 0.0
H2139 H 0.80425 0.62211 0.79611 0.0
H2140 H 0.78434 0.60908 0.73566 0.0
H2141 H 0.7927 0.63263 0.71278 0.0
C2142 C 0.33211 0.19021 0.78029 0.0
C2143 C 0.3516 0.17894 0.78555 0.0
C2144 C 0.33768 0.15174 0.74545 0.0
C2145 C 0.32392 0.16884 0.73869 0.0
N2146 N 0.31484 0.21102 0.75013 0.0
N2147 N 0.37729 0.15359 0.77026 0.0
C2148 C 0.32275 0.18982 0.75623 0.0
C2149 C 0.35565 0.16091 0.76734 0.0
N2150 N 0.32203 0.20084 0.79819 0.0
N2151 N 0.33243 0.12573 0.7317 0.0
H2152 H 0.39226 0.16149 0.78533 0.0
H2153 H 0.38225 0.14257 0.75652 0.0
H2154 H 0.31668 0.11644 0.71716 0.0
H2155 H 0.34061 0.1114 0.73669 0.0
H2156 H 0.30602 0.20702 0.79507 0.0
H2157 H 0.32701 0.19986 0.81609 0.0
H2158 H 0.31624 0.22828 0.76243 0.0
H2159 H 0.31068 0.21427 0.73268 0.0
C2160 C 0.82164 0.18748 0.77167 0.0
C2161 C 0.83491 0.17637 0.78783 0.0
C2162 C 0.8533 0.15893 0.75451 0.0
C2163 C 0.84159 0.17183 0.73843 0.0
N2164 N 0.81246 0.1957 0.7314 0.0
N2165 N 0.86458 0.15299 0.79556 0.0
C2166 C 0.82526 0.1854 0.74706 0.0
C2167 C 0.85099 0.16235 0.77948 0.0
N2168 N 0.80475 0.19922 0.77982 0.0
N2169 N 0.86564 0.14239 0.74569 0.0
H2170 H 0.86224 0.15399 0.81372 0.0
H2171 H 0.87925 0.14566 0.79129 0.0
H2172 H 0.86684 0.13885 0.72754 0.0
H2173 H 0.87255 0.13005 0.75588 0.0
H2174 H 0.79158 0.20444 0.76894 0.0
H2175 H 0.80264 0.20268 0.79776 0.0
H2176 H 0.80551 0.2115 0.73566 0.0
H2177 H 0.80662 0.18546 0.71419 0.0
C2178 C 0.3408 0.19082 0.5685 0.0
C2179 C 0.31299 0.16538 0.55894 0.0
C2180 C 0.30739 0.14174 0.59634 0.0
C2181 C 0.33348 0.16853 0.60708 0.0
N2182 N 0.37282 0.22114 0.60403 0.0
N2183 N 0.26622 0.12194 0.56651 0.0
C2184 C 0.34957 0.19393 0.59335 0.0
C2185 C 0.29504 0.14279 0.57389 0.0
N2186 N 0.35932 0.2112 0.5538 0.0
N2187 N 0.29588 0.1141 0.60634 0.0
H2188 H 0.25623 0.12241 0.55025 0.0
H2189 H 0.25169 0.10662 0.57768 0.0
H2190 H 0.30708 0.11085 0.62053 0.0
H2191 H 0.27797 0.09337 0.59829 0.0
H2192 H 0.38105 0.22814 0.55928 0.0
H2193 H 0.35359 0.2097 0.53567 0.0
H2194 H 0.38346 0.24149 0.59551 0.0
H2195 H 0.37998 0.22407 0.62201 0.0
C2196 C 0.80814 0.13478 0.56554 0.0
C2197 C 0.83767 0.1529 0.56003 0.0
C2198 C 0.84789 0.18441 0.5981 0.0
C2199 C 0.82116 0.16095 0.60592 0.0
N2200 N 0.77852 0.10873 0.59664 0.0
N2201 N 0.88752 0.19309 0.57433 0.0
C2202 C 0.80181 0.13477 0.58951 0.0
C2203 C 0.85819 0.17743 0.57714 0.0
N2204 N 0.78598 0.11774 0.54796 0.0
N2205 N 0.86281 0.21369 0.60978 0.0
H2206 H 0.8965 0.18705 0.56049 0.0
H2207 H 0.90311 0.20965 0.58739 0.0
H2208 H 0.85495 0.22037 0.62414 0.0
H2209 H 0.88126 0.23198 0.60349 0.0
H2210 H 0.76389 0.10585 0.55126 0.0
H2211 H 0.78949 0.11875 0.52998 0.0
H2212 H 0.76552 0.0886 0.58509 0.0
H2213 H 0.77471 0.10522 0.61433 0.0
C2214 C 0.85818 0.67591 0.57875 0.0
C2215 C 0.83566 0.66657 0.55989 0.0
C2216 C 0.79895 0.63549 0.58674 0.0
C2217 C 0.82179 0.64328 0.60502 0.0
N2218 N 0.87293 0.66004 0.61399 0.0
N2219 N 0.78605 0.62804 0.54428 0.0
C2220 C 0.85136 0.65992 0.59956 0.0
C2221 C 0.80647 0.64327 0.56333 0.0
N2222 N 0.8855 0.70129 0.57781 0.0
N2223 N 0.77028 0.62231 0.59156 0.0
H2224 H 0.79118 0.6319 0.52679 0.0
H2225 H 0.76516 0.60912 0.54579 0.0
H2226 H 0.76326 0.61674 0.60833 0.0
H2227 H 0.75366 0.61957 0.57912 0.0
H2228 H 0.90174 0.70983 0.59203 0.0
H2229 H 0.89087 0.71593 0.56417 0.0
H2230 H 0.89456 0.66974 0.60964 0.0
H2231 H 0.8683 0.6475 0.62886 0.0
loop_
_geom_bond_atom_site_label_1
_geom_bond_atom_site_label_2
_geom_bond_distance
_geom_bond_site_symmetry_2
_ccdc_geom_bond_type
C0 C1 1.391 . S
C0 C4 1.391 . S
C0 H42 0.948 . S
C1 C0 1.391 . S
C1 C2 1.391 . S
C2 C1 1.391 . S
C2 H58 0.947 . S
C2 C59 1.392 . S
C3 C4 1.391 . S
C3 C7 1.397 . S
C3 C59 1.419 . S
C4 C0 1.391 . S
C4 C3 1.391 . S
C4 C5 1.399 . S
C5 C4 1.399 . S
C5 C8 1.396 . S
C5 C17 1.453 . S
C5 C18 1.684 . S
H6 C30 0.948 . S
C7 C3 1.397 . S
C7 C8 1.394 . S
C7 C26 1.723 . S
C8 C5 1.396 . S
C8 C7 1.394 . S
C8 C38 1.723 . S
H9 C32 0.947 . S
H10 C33 0.948 . S
H11 C39 0.982 . S
H12 C40 0.979 . S
H13 C40 0.980 . S
H14 C40 0.983 . S
H15 C39 0.979 . S
H16 C39 0.977 . S
C17 C5 1.453 . S
C17 H46 0.982 . S
C17 H47 0.979 . S
C17 H48 0.977 . S
C18 C5 1.684 . S
C18 H43 0.979 . S
C18 H44 0.980 . S
C18 H45 0.983 . S
C19 C20 1.391 . S
C19 C24 1.391 . S
C19 H49 0.948 . S
C20 C19 1.391 . S
C20 C21 1.391 . S
C21 C20 1.391 . S
C21 C22 1.392 . S
C21 H50 0.947 . S
C22 C21 1.392 . S
C22 C23 1.419 . S
C22 H51 0.948 . S
C23 C22 1.419 . S
C23 C24 1.391 . S
C23 C27 1.397 . S
C24 C19 1.391 . S
C24 C23 1.391 . S
C24 C25 1.399 . S
C25 C24 1.399 . S
C25 C26 1.396 . S
C25 C28 1.453 . S
C25 C29 1.684 . S
C26 C7 1.723 . S
C26 C25 1.396 . S
C26 C27 1.394 . S
C27 C23 1.397 . S
C27 C26 1.394 . S
C27 C37 1.723 . S
C28 C25 1.453 . S
C28 H52 0.982 . S
C28 H53 0.979 . S
C28 H54 0.977 . S
C29 C25 1.684 . S
C29 H55 0.979 . S
C29 H56 0.980 . S
C29 H57 0.983 . S
C30 H6 0.948 . S
C30 C31 1.391 . S
C30 C35 1.391 . S
C31 C30 1.391 . S
C31 C32 1.391 . S
C32 H9 0.947 . S
C32 C31 1.391 . S
C32 C33 1.392 . S
C33 H10 0.948 . S
C33 C32 1.392 . S
C33 C34 1.419 . S
C34 C33 1.419 . S
C34 C35 1.391 . S
C34 C38 1.397 . S
C35 C30 1.391 . S
C35 C34 1.391 . S
C35 C36 1.399 . S
C36 C35 1.399 . S
C36 C37 1.396 . S
C36 C39 1.453 . S
C36 C40 1.684 . S
C37 C27 1.723 . S
C37 C36 1.396 . S
C37 C38 1.394 . S
C38 C8 1.723 . S
C38 C34 1.397 . S
C38 C37 1.394 . S
C39 H11 0.982 . S
C39 H15 0.979 . S
C39 H16 0.977 . S
C39 C36 1.453 . S
C40 H12 0.979 . S
C40 H13 0.980 . S
C40 H14 0.983 . S
C40 C36 1.684 . S
H41 C59 0.948 . S
H42 C0 0.948 . S
H43 C18 0.979 . S
H44 C18 0.980 . S
H45 C18 0.983 . S
H46 C17 0.982 . S
H47 C17 0.979 . S
H48 C17 0.977 . S
H49 C19 0.948 . S
H50 C21 0.947 . S
H51 C22 0.948 . S
H52 C28 0.982 . S
H53 C28 0.979 . S
H54 C28 0.977 . S
H55 C29 0.979 . S
H56 C29 0.980 . S
H57 C29 0.983 . S
H58 C2 0.947 . S
C59 C2 1.392 . S
C59 C3 1.419 . S
C59 H41 0.948 . S
C60 C61 1.391 . S
C60 C64 1.391 . S
C60 H102 0.948 . S
C61 C60 1.391 . S
C61 C62 1.391 . S
C62 C61 1.391 . S
C62 H118 0.947 . S
C62 C119 1.392 . S
C63 C64 1.391 . S
C63 C67 1.397 . S
C63 C119 1.419 . S
C64 C60 1.391 . S
C64 C63 1.391 . S
C64 C65 1.399 . S
C65 C64 1.399 . S
C65 C68 1.396 . S
C65 C77 1.453 . S
C65 C78 1.684 . S
H66 C90 0.948 . S
C67 C63 1.397 . S
C67 C68 1.394 . S
C67 C86 1.723 . S
C68 C65 1.396 . S
C68 C67 1.394 . S
C68 C98 1.723 . S
H69 C92 0.947 . S
H70 C93 0.948 . S
H71 C99 0.982 . S
H72 C100 0.979 . S
H73 C100 0.980 . S
H74 C100 0.983 . S
H75 C99 0.979 . S
H76 C99 0.977 . S
C77 C65 1.453 . S
C77 H106 0.982 . S
C77 H107 0.979 . S
C77 H108 0.977 . S
C78 C65 1.684 . S
C78 H103 0.979 . S
C78 H104 0.980 . S
C78 H105 0.983 . S
C79 C80 1.391 . S
C79 C84 1.391 . S
C79 H109 0.948 . S
C80 C79 1.391 . S
C80 C81 1.391 . S
C81 C80 1.391 . S
C81 C82 1.392 . S
C81 H110 0.947 . S
C82 C81 1.392 . S
C82 C83 1.419 . S
C82 H111 0.948 . S
C83 C82 1.419 . S
C83 C84 1.391 . S
C83 C87 1.397 . S
C84 C79 1.391 . S
C84 C83 1.391 . S
C84 C85 1.399 . S
C85 C84 1.399 . S
C85 C86 1.396 . S
C85 C88 1.453 . S
C85 C89 1.684 . S
C86 C67 1.723 . S
C86 C85 1.396 . S
C86 C87 1.394 . S
C87 C83 1.397 . S
C87 C86 1.394 . S
C87 C97 1.723 . S
C88 C85 1.453 . S
C88 H112 0.982 . S
C88 H113 0.979 . S
C88 H114 0.977 . S
C89 C85 1.684 . S
C89 H115 0.979 . S
C89 H116 0.980 . S
C89 H117 0.983 . S
C90 H66 0.948 . S
C90 C91 1.391 . S
C90 C95 1.391 . S
C91 C90 1.391 . S
C91 C92 1.391 . S
C92 H69 0.947 . S
C92 C91 1.391 . S
C92 C93 1.392 . S
C93 H70 0.948 . S
C93 C92 1.392 . S
C93 C94 1.419 . S
C94 C93 1.419 . S
C94 C95 1.391 . S
C94 C98 1.397 . S
C95 C90 1.391 . S
C95 C94 1.391 . S
C95 C96 1.399 . S
C96 C95 1.399 . S
C96 C97 1.396 . S
C96 C99 1.453 . S
C96 C100 1.684 . S
C97 C87 1.723 . S
C97 C96 1.396 . S
C97 C98 1.394 . S
C98 C68 1.723 . S
C98 C94 1.397 . S
C98 C97 1.394 . S
C99 H71 0.982 . S
C99 H75 0.979 . S
C99 H76 0.977 . S
C99 C96 1.453 . S
C100 H72 0.979 . S
C100 H73 0.980 . S
C100 H74 0.983 . S
C100 C96 1.684 . S
H101 C119 0.948 . S
H102 C60 0.948 . S
H103 C78 0.979 . S
H104 C78 0.980 . S
H105 C78 0.983 . S
H106 C77 0.982 . S
H107 C77 0.979 . S
H108 C77 0.977 . S
H109 C79 0.948 . S
H110 C81 0.947 . S
H111 C82 0.948 . S
H112 C88 0.982 . S
H113 C88 0.979 . S
H114 C88 0.977 . S
H115 C89 0.979 . S
H116 C89 0.980 . S
H117 C89 0.983 . S
H118 C62 0.947 . S
C119 C62 1.392 . S
C119 C63 1.419 . S
C119 H101 0.948 . S
C120 C121 1.391 . S
C120 C124 1.391 . S
C120 H162 0.948 . S
C121 C120 1.391 . S
C121 C122 1.391 . S
C122 C121 1.391 . S
C122 H178 0.947 . S
C122 C179 1.392 . S
C123 C124 1.391 . S
C123 C127 1.397 . S
C123 C179 1.419 . S
C124 C120 1.391 . S
C124 C123 1.391 . S
C124 C125 1.399 . S
C125 C124 1.399 . S
C125 C128 1.396 . S
C125 C137 1.453 . S
C125 C138 1.684 . S
H126 C150 0.948 . S
C127 C123 1.397 . S
C127 C128 1.394 . S
C127 C146 1.723 . S
C128 C125 1.396 . S
C128 C127 1.394 . S
C128 C158 1.723 . S
H129 C152 0.947 . S
H130 C153 0.948 . S
H131 C159 0.982 . S
H132 C160 0.979 . S
H133 C160 0.980 . S
H134 C160 0.983 . S
H135 C159 0.979 . S
H136 C159 0.977 . S
C137 C125 1.453 . S
C137 H166 0.982 . S
C137 H167 0.979 . S
C137 H168 0.977 . S
C138 C125 1.684 . S
C138 H163 0.979 . S
C138 H164 0.980 . S
C138 H165 0.983 . S
C139 C140 1.391 . S
C139 C144 1.391 . S
C139 H169 0.948 . S
C140 C139 1.391 . S
C140 C141 1.391 . S
C141 C140 1.391 . S
C141 C142 1.392 . S
C141 H170 0.947 . S
C142 C141 1.392 . S
C142 C143 1.419 . S
C142 H171 0.948 . S
C143 C142 1.419 . S
C143 C144 1.391 . S
C143 C147 1.397 . S
C144 C139 1.391 . S
C144 C143 1.391 . S
C144 C145 1.399 . S
C145 C144 1.399 . S
C145 C146 1.396 . S
C145 C148 1.453 . S
C145 C149 1.684 . S
C146 C127 1.723 . S
C146 C145 1.396 . S
C146 C147 1.394 . S
C147 C143 1.397 . S
C147 C146 1.394 . S
C147 C157 1.723 . S
C148 C145 1.453 . S
C148 H172 0.982 . S
C148 H173 0.979 . S
C148 H174 0.977 . S
C149 C145 1.684 . S
C149 H175 0.979 . S
C149 H176 0.980 . S
C149 H177 0.983 . S
C150 H126 0.948 . S
C150 C151 1.391 . S
C150 C155 1.391 . S
C151 C150 1.391 . S
C151 C152 1.391 . S
C152 H129 0.947 . S
C152 C151 1.391 . S
C152 C153 1.392 . S
C153 H130 0.948 . S
C153 C152 1.392 . S
C153 C154 1.419 . S
C154 C153 1.419 . S
C154 C155 1.391 . S
C154 C158 1.397 . S
C155 C150 1.391 . S
C155 C154 1.391 . S
C155 C156 1.399 . S
C156 C155 1.399 . S
C156 C157 1.396 . S
C156 C159 1.453 . S
C156 C160 1.684 . S
C157 C147 1.723 . S
C157 C156 1.396 . S
C157 C158 1.394 . S
C158 C128 1.723 . S
C158 C154 1.397 . S
C158 C157 1.394 . S
C159 H131 0.982 . S
C159 H135 0.979 . S
C159 H136 0.977 . S
C159 C156 1.453 . S
C160 H132 0.979 . S
C160 H133 0.980 . S
C160 H134 0.983 . S
C160 C156 1.684 . S
H161 C179 0.948 . S
H162 C120 0.948 . S
H163 C138 0.979 . S
H164 C138 0.980 . S
H165 C138 0.983 . S
H166 C137 0.982 . S
H167 C137 0.979 . S
H168 C137 0.977 . S
H169 C139 0.948 . S
H170 C141 0.947 . S
H171 C142 0.948 . S
H172 C148 0.982 . S
H173 C148 0.979 . S
H174 C148 0.977 . S
H175 C149 0.979 . S
H176 C149 0.980 . S
H177 C149 0.983 . S
H178 C122 0.947 . S
C179 C122 1.392 . S
C179 C123 1.419 . S
C179 H161 0.948 . S
C180 C181 1.391 . S
C180 C184 1.391 . S
C180 H222 0.948 . S
C181 C180 1.391 . S
C181 C182 1.391 . S
C182 C181 1.391 . S
C182 H238 0.947 . S
C182 C239 1.392 . S
C183 C184 1.391 . S
C183 C187 1.397 . S
C183 C239 1.419 . S
C184 C180 1.391 . S
C184 C183 1.391 . S
C184 C185 1.399 . S
C185 C184 1.399 . S
C185 C188 1.396 . S
C185 C197 1.453 . S
C185 C198 1.684 . S
H186 C210 0.948 . S
C187 C183 1.397 . S
C187 C188 1.394 . S
C187 C206 1.723 . S
C188 C185 1.396 . S
C188 C187 1.394 . S
C188 C218 1.723 . S
H189 C212 0.947 . S
H190 C213 0.948 . S
H191 C219 0.982 . S
H192 C220 0.979 . S
H193 C220 0.980 . S
H194 C220 0.983 . S
H195 C219 0.979 . S
H196 C219 0.977 . S
C197 C185 1.453 . S
C197 H226 0.982 . S
C197 H227 0.979 . S
C197 H228 0.977 . S
C198 C185 1.684 . S
C198 H223 0.979 . S
C198 H224 0.980 . S
C198 H225 0.983 . S
C199 C200 1.391 . S
C199 C204 1.391 . S
C199 H229 0.948 . S
C200 C199 1.391 . S
C200 C201 1.391 . S
C201 C200 1.391 . S
C201 C202 1.392 . S
C201 H230 0.947 . S
C202 C201 1.392 . S
C202 C203 1.419 . S
C202 H231 0.948 . S
C203 C202 1.419 . S
C203 C204 1.391 . S
C203 C207 1.397 . S
C204 C199 1.391 . S
C204 C203 1.391 . S
C204 C205 1.399 . S
C205 C204 1.399 . S
C205 C206 1.396 . S
C205 C208 1.453 . S
C205 C209 1.684 . S
C206 C187 1.723 . S
C206 C205 1.396 . S
C206 C207 1.394 . S
C207 C203 1.397 . S
C207 C206 1.394 . S
C207 C217 1.723 . S
C208 C205 1.453 . S
C208 H232 0.982 . S
C208 H233 0.979 . S
C208 H234 0.977 . S
C209 C205 1.684 . S
C209 H235 0.979 . S
C209 H236 0.980 . S
C209 H237 0.983 . S
C210 H186 0.948 . S
C210 C211 1.391 . S
C210 C215 1.391 . S
C211 C210 1.391 . S
C211 C212 1.391 . S
C212 H189 0.947 . S
C212 C211 1.391 . S
C212 C213 1.392 . S
C213 H190 0.948 . S
C213 C212 1.392 . S
C213 C214 1.419 . S
C214 C213 1.419 . S
C214 C215 1.391 . S
C214 C218 1.397 . S
C215 C210 1.391 . S
C215 C214 1.391 . S
C215 C216 1.399 . S
C216 C215 1.399 . S
C216 C217 1.396 . S
C216 C219 1.453 . S
C216 C220 1.684 . S
C217 C207 1.723 . S
C217 C216 1.396 . S
C217 C218 1.394 . S
C218 C188 1.723 . S
C218 C214 1.397 . S
C218 C217 1.394 . S
C219 H191 0.982 . S
C219 H195 0.979 . S
C219 H196 0.977 . S
C219 C216 1.453 . S
C220 H192 0.979 . S
C220 H193 0.980 . S
C220 H194 0.983 . S
C220 C216 1.684 . S
H221 C239 0.948 . S
H222 C180 0.948 . S
H223 C198 0.979 . S
H224 C198 0.980 . S
H225 C198 0.983 . S
H226 C197 0.982 . S
H227 C197 0.979 . S
H228 C197 0.977 . S
H229 C199 0.948 . S
H230 C201 0.947 . S
H231 C202 0.948 . S
H232 C208 0.982 . S
H233 C208 0.979 . S
H234 C208 0.977 . S
H235 C209 0.979 . S
H236 C209 0.980 . S
H237 C209 0.983 . S
H238 C182 0.947 . S
C239 C182 1.392 . S
C239 C183 1.419 . S
C239 H221 0.948 . S
C240 C241 1.391 . S
C240 C244 1.391 . S
C240 H282 0.948 . S
C241 C240 1.391 . S
C241 C242 1.391 . S
C242 C241 1.391 . S
C242 H298 0.947 . S
C242 C299 1.392 . S
C243 C244 1.391 . S
C243 C247 1.397 . S
C243 C299 1.419 . S
C244 C240 1.391 . S
C244 C243 1.391 . S
C244 C245 1.399 . S
C245 C244 1.399 . S
C245 C248 1.396 . S
C245 C257 1.453 . S
C245 C258 1.684 . S
H246 C270 0.948 . S
C247 C243 1.397 . S
C247 C248 1.394 . S
C247 C266 1.723 . S
C248 C245 1.396 . S
C248 C247 1.394 . S
C248 C278 1.723 . S
H249 C272 0.947 . S
H250 C273 0.948 . S
H251 C279 0.982 . S
H252 C280 0.979 . S
H253 C280 0.980 . S
H254 C280 0.983 . S
H255 C279 0.979 . S
H256 C279 0.977 . S
C257 C245 1.453 . S
C257 H286 0.982 . S
C257 H287 0.979 . S
C257 H288 0.977 . S
C258 C245 1.684 . S
C258 H283 0.979 . S
C258 H284 0.980 . S
C258 H285 0.983 . S
C259 C260 1.391 . S
C259 C264 1.391 . S
C259 H289 0.948 . S
C260 C259 1.391 . S
C260 C261 1.391 . S
C261 C260 1.391 . S
C261 C262 1.392 . S
C261 H290 0.947 . S
C262 C261 1.392 . S
C262 C263 1.419 . S
C262 H291 0.948 . S
C263 C262 1.419 . S
C263 C264 1.391 . S
C263 C267 1.397 . S
C264 C259 1.391 . S
C264 C263 1.391 . S
C264 C265 1.399 . S
C265 C264 1.399 . S
C265 C266 1.396 . S
C265 C268 1.453 . S
C265 C269 1.684 . S
C266 C247 1.723 . S
C266 C265 1.396 . S
C266 C267 1.394 . S
C267 C263 1.397 . S
C267 C266 1.394 . S
C267 C277 1.723 . S
C268 C265 1.453 . S
C268 H292 0.982 . S
C268 H293 0.979 . S
C268 H294 0.977 . S
C269 C265 1.684 . S
C269 H295 0.979 . S
C269 H296 0.980 . S
C269 H297 0.983 . S
C270 H246 0.948 . S
C270 C271 1.391 . S
C270 C275 1.391 . S
C271 C270 1.391 . S
C271 C272 1.391 . S
C272 H249 0.947 . S
C272 C271 1.391 . S
C272 C273 1.392 . S
C273 H250 0.948 . S
C273 C272 1.392 . S
C273 C274 1.419 . S
C274 C273 1.419 . S
C274 C275 1.391 . S
C274 C278 1.397 . S
C275 C270 1.391 . S
C275 C274 1.391 . S
C275 C276 1.399 . S
C276 C275 1.399 . S
C276 C277 1.396 . S
C276 C279 1.453 . S
C276 C280 1.684 . S
C277 C267 1.723 . S
C277 C276 1.396 . S
C277 C278 1.394 . S
C278 C248 1.723 . S
C278 C274 1.397 . S
C278 C277 1.394 . S
C279 H251 0.982 . S
C279 H255 0.979 . S
C279 H256 0.977 . S
C279 C276 1.453 . S
C280 H252 0.979 . S
C280 H253 0.980 . S
C280 H254 0.983 . S
C280 C276 1.684 . S
H281 C299 0.948 . S
H282 C240 0.948 . S
H283 C258 0.979 . S
H284 C258 0.980 . S
H285 C258 0.983 . S
H286 C257 0.982 . S
H287 C257 0.979 . S
H288 C257 0.977 . S
H289 C259 0.948 . S
H290 C261 0.947 . S
H291 C262 0.948 . S
H292 C268 0.982 . S
H293 C268 0.979 . S
H294 C268 0.977 . S
H295 C269 0.979 . S
H296 C269 0.980 . S
H297 C269 0.983 . S
H298 C242 0.947 . S
C299 C242 1.392 . S
C299 C243 1.419 . S
C299 H281 0.948 . S
C300 C301 1.391 . S
C300 C304 1.391 . S
C300 H342 0.948 . S
C301 C300 1.391 . S
C301 C302 1.391 . S
C302 C301 1.391 . S
C302 H358 0.947 . S
C302 C359 1.392 . S
C303 C304 1.391 . S
C303 C307 1.397 . S
C303 C359 1.419 . S
C304 C300 1.391 . S
C304 C303 1.391 . S
C304 C305 1.399 . S
C305 C304 1.399 . S
C305 C308 1.396 . S
C305 C317 1.453 . S
C305 C318 1.684 . S
H306 C330 0.948 . S
C307 C303 1.397 . S
C307 C308 1.394 . S
C307 C326 1.723 . S
C308 C305 1.396 . S
C308 C307 1.394 . S
C308 C338 1.723 . S
H309 C332 0.947 . S
H310 C333 0.948 . S
H311 C339 0.982 . S
H312 C340 0.979 . S
H313 C340 0.980 . S
H314 C340 0.983 . S
H315 C339 0.979 . S
H316 C339 0.977 . S
C317 C305 1.453 . S
C317 H346 0.982 . S
C317 H347 0.979 . S
C317 H348 0.977 . S
C318 C305 1.684 . S
C318 H343 0.979 . S
C318 H344 0.980 . S
C318 H345 0.983 . S
C319 C320 1.391 . S
C319 C324 1.391 . S
C319 H349 0.948 . S
C320 C319 1.391 . S
C320 C321 1.391 . S
C321 C320 1.391 . S
C321 C322 1.392 . S
C321 H350 0.947 . S
C322 C321 1.392 . S
C322 C323 1.419 . S
C322 H351 0.948 . S
C323 C322 1.419 . S
C323 C324 1.391 . S
C323 C327 1.397 . S
C324 C319 1.391 . S
C324 C323 1.391 . S
C324 C325 1.399 . S
C325 C324 1.399 . S
C325 C326 1.396 . S
C325 C328 1.453 . S
C325 C329 1.684 . S
C326 C307 1.723 . S
C326 C325 1.396 . S
C326 C327 1.394 . S
C327 C323 1.397 . S
C327 C326 1.394 . S
C327 C337 1.723 . S
C328 C325 1.453 . S
C328 H352 0.982 . S
C328 H353 0.979 . S
C328 H354 0.977 . S
C329 C325 1.684 . S
C329 H355 0.979 . S
C329 H356 0.980 . S
C329 H357 0.983 . S
C330 H306 0.948 . S
C330 C331 1.391 . S
C330 C335 1.391 . S
C331 C330 1.391 . S
C331 C332 1.391 . S
C332 H309 0.947 . S
C332 C331 1.391 . S
C332 C333 1.392 . S
C333 H310 0.948 . S
C333 C332 1.392 . S
C333 C334 1.419 . S
C334 C333 1.419 . S
C334 C335 1.391 . S
C334 C338 1.397 . S
C335 C330 1.391 . S
C335 C334 1.391 . S
C335 C336 1.399 . S
C336 C335 1.399 . S
C336 C337 1.396 . S
C336 C339 1.453 . S
C336 C340 1.684 . S
C337 C327 1.723 . S
C337 C336 1.396 . S
C337 C338 1.394 . S
C338 C308 1.723 . S
C338 C334 1.397 . S
C338 C337 1.394 . S
C339 H311 0.982 . S
C339 H315 0.979 . S
C339 H316 0.977 . S
C339 C336 1.453 . S
C340 H312 0.979 . S
C340 H313 0.980 . S
C340 H314 0.983 . S
C340 C336 1.684 . S
H341 C359 0.948 . S
H342 C300 0.948 . S
H343 C318 0.979 . S
H344 C318 0.980 . S
H345 C318 0.983 . S
H346 C317 0.982 . S
H347 C317 0.979 . S
H348 C317 0.977 . S
H349 C319 0.948 . S
H350 C321 0.947 . S
H351 C322 0.948 . S
H352 C328 0.982 . S
H353 C328 0.979 . S
H354 C328 0.977 . S
H355 C329 0.979 . S
H356 C329 0.980 . S
H357 C329 0.983 . S
H358 C302 0.947 . S
C359 C302 1.392 . S
C359 C303 1.419 . S
C359 H341 0.948 . S
C360 C361 1.391 . S
C360 C364 1.391 . S
C360 H402 0.948 . S
C361 C360 1.391 . S
C361 C362 1.391 . S
C362 C361 1.391 . S
C362 H418 0.947 . S
C362 C419 1.392 . S
C363 C364 1.391 . S
C363 C367 1.397 . S
C363 C419 1.419 . S
C364 C360 1.391 . S
C364 C363 1.391 . S
C364 C365 1.399 . S
C365 C364 1.399 . S
C365 C368 1.396 . S
C365 C377 1.453 . S
C365 C378 1.684 . S
H366 C390 0.948 . S
C367 C363 1.397 . S
C367 C368 1.394 . S
C367 C386 1.723 . S
C368 C365 1.396 . S
C368 C367 1.394 . S
C368 C398 1.723 . S
H369 C392 0.947 . S
H370 C393 0.948 . S
H371 C399 0.982 . S
H372 C400 0.979 . S
H373 C400 0.980 . S
H374 C400 0.983 . S
H375 C399 0.979 . S
H376 C399 0.977 . S
C377 C365 1.453 . S
C377 H406 0.982 . S
C377 H407 0.979 . S
C377 H408 0.977 . S
C378 C365 1.684 . S
C378 H403 0.979 . S
C378 H404 0.980 . S
C378 H405 0.983 . S
C379 C380 1.391 . S
C379 C384 1.391 . S
C379 H409 0.948 . S
C380 C379 1.391 . S
C380 C381 1.391 . S
C381 C380 1.391 . S
C381 C382 1.392 . S
C381 H410 0.947 . S
C382 C381 1.392 . S
C382 C383 1.419 . S
C382 H411 0.948 . S
C383 C382 1.419 . S
C383 C384 1.391 . S
C383 C387 1.397 . S
C384 C379 1.391 . S
C384 C383 1.391 . S
C384 C385 1.399 . S
C385 C384 1.399 . S
C385 C386 1.396 . S
C385 C388 1.453 . S
C385 C389 1.684 . S
C386 C367 1.723 . S
C386 C385 1.396 . S
C386 C387 1.394 . S
C387 C383 1.397 . S
C387 C386 1.394 . S
C387 C397 1.723 . S
C388 C385 1.453 . S
C388 H412 0.982 . S
C388 H413 0.979 . S
C388 H414 0.977 . S
C389 C385 1.684 . S
C389 H415 0.979 . S
C389 H416 0.980 . S
C389 H417 0.983 . S
C390 H366 0.948 . S
C390 C391 1.391 . S
C390 C395 1.391 . S
C391 C390 1.391 . S
C391 C392 1.391 . S
C392 H369 0.947 . S
C392 C391 1.391 . S
C392 C393 1.392 . S
C393 H370 0.948 . S
C393 C392 1.392 . S
C393 C394 1.419 . S
C394 C393 1.419 . S
C394 C395 1.391 . S
C394 C398 1.397 . S
C395 C390 1.391 . S
C395 C394 1.391 . S
C395 C396 1.399 . S
C396 C395 1.399 . S
C396 C397 1.396 . S
C396 C399 1.453 . S
C396 C400 1.684 . S
C397 C387 1.723 . S
C397 C396 1.396 . S
C397 C398 1.394 . S
C398 C368 1.723 . S
C398 C394 1.397 . S
C398 C397 1.394 . S
C399 H371 0.982 . S
C399 H375 0.979 . S
C399 H376 0.977 . S
C399 C396 1.453 . S
C400 H372 0.979 . S
C400 H373 0.980 . S
C400 H374 0.983 . S
C400 C396 1.684 . S
H401 C419 0.948 . S
H402 C360 0.948 . S
H403 C378 0.979 . S
H404 C378 0.980 . S
H405 C378 0.983 . S
H406 C377 0.982 . S
H407 C377 0.979 . S
H408 C377 0.977 . S
H409 C379 0.948 . S
H410 C381 0.947 . S
H411 C382 0.948 . S
H412 C388 0.982 . S
H413 C388 0.979 . S
H414 C388 0.977 . S
H415 C389 0.979 . S
H416 C389 0.980 . S
H417 C389 0.983 . S
H418 C362 0.947 . S
C419 C362 1.392 . S
C419 C363 1.419 . S
C419 H401 0.948 . S
C420 C421 1.391 . S
C420 C424 1.391 . S
C420 H462 0.948 . S
C421 C420 1.391 . S
C421 C422 1.391 . S
C422 C421 1.391 . S
C422 H478 0.947 . S
C422 C479 1.392 . S
C423 C424 1.391 . S
C423 C427 1.397 . S
C423 C479 1.419 . S
C424 C420 1.391 . S
C424 C423 1.391 . S
C424 C425 1.399 . S
C425 C424 1.399 . S
C425 C428 1.396 . S
C425 C437 1.453 . S
C425 C438 1.684 . S
H426 C450 0.948 . S
C427 C423 1.397 . S
C427 C428 1.394 . S
C427 C446 1.723 . S
C428 C425 1.396 . S
C428 C427 1.394 . S
C428 C458 1.723 . S
H429 C452 0.947 . S
H430 C453 0.948 . S
H431 C459 0.982 . S
H432 C460 0.979 . S
H433 C460 0.980 . S
H434 C460 0.983 . S
H435 C459 0.979 . S
H436 C459 0.977 . S
C437 C425 1.453 . S
C437 H466 0.982 . S
C437 H467 0.979 . S
C437 H468 0.977 . S
C438 C425 1.684 . S
C438 H463 0.979 . S
C438 H464 0.980 . S
C438 H465 0.983 . S
C439 C440 1.391 . S
C439 C444 1.391 . S
C439 H469 0.948 . S
C440 C439 1.391 . S
C440 C441 1.391 . S
C441 C440 1.391 . S
C441 C442 1.392 . S
C441 H470 0.947 . S
C442 C441 1.392 . S
C442 C443 1.419 . S
C442 H471 0.948 . S
C443 C442 1.419 . S
C443 C444 1.391 . S
C443 C447 1.397 . S
C444 C439 1.391 . S
C444 C443 1.391 . S
C444 C445 1.399 . S
C445 C444 1.399 . S
C445 C446 1.396 . S
C445 C448 1.453 . S
C445 C449 1.684 . S
C446 C427 1.723 . S
C446 C445 1.396 . S
C446 C447 1.394 . S
C447 C443 1.397 . S
C447 C446 1.394 . S
C447 C457 1.723 . S
C448 C445 1.453 . S
C448 H472 0.982 . S
C448 H473 0.979 . S
C448 H474 0.977 . S
C449 C445 1.684 . S
C449 H475 0.979 . S
C449 H476 0.980 . S
C449 H477 0.983 . S
C450 H426 0.948 . S
C450 C451 1.391 . S
C450 C455 1.391 . S
C451 C450 1.391 . S
C451 C452 1.391 . S
C452 H429 0.947 . S
C452 C451 1.391 . S
C452 C453 1.392 . S
C453 H430 0.948 . S
C453 C452 1.392 . S
C453 C454 1.419 . S
C454 C453 1.419 . S
C454 C455 1.391 . S
C454 C458 1.397 . S
C455 C450 1.391 . S
C455 C454 1.391 . S
C455 C456 1.399 . S
C456 C455 1.399 . S
C456 C457 1.396 . S
C456 C459 1.453 . S
C456 C460 1.684 . S
C457 C447 1.723 . S
C457 C456 1.396 . S
C457 C458 1.394 . S
C458 C428 1.723 . S
C458 C454 1.397 . S
C458 C457 1.394 . S
C459 H431 0.982 . S
C459 H435 0.979 . S
C459 H436 0.977 . S
C459 C456 1.453 . S
C460 H432 0.979 . S
C460 H433 0.980 . S
C460 H434 0.983 . S
C460 C456 1.684 . S
H461 C479 0.948 . S
H462 C420 0.948 . S
H463 C438 0.979 . S
H464 C438 0.980 . S
H465 C438 0.983 . S
H466 C437 0.982 . S
H467 C437 0.979 . S
H468 C437 0.977 . S
H469 C439 0.948 . S
H470 C441 0.947 . S
H471 C442 0.948 . S
H472 C448 0.982 . S
H473 C448 0.979 . S
H474 C448 0.977 . S
H475 C449 0.979 . S
H476 C449 0.980 . S
H477 C449 0.983 . S
H478 C422 0.947 . S
C479 C422 1.392 . S
C479 C423 1.419 . S
C479 H461 0.948 . S
C480 C481 1.391 . S
C480 C484 1.391 . S
C480 H522 0.948 . S
C481 C480 1.391 . S
C481 C482 1.391 . S
C482 C481 1.391 . S
C482 H538 0.947 . S
C482 C539 1.392 . S
C483 C484 1.391 . S
C483 C487 1.397 . S
C483 C539 1.419 . S
C484 C480 1.391 . S
C484 C483 1.391 . S
C484 C485 1.399 . S
C485 C484 1.399 . S
C485 C488 1.396 . S
C485 C497 1.453 . S
C485 C498 1.684 . S
H486 C510 0.948 . S
C487 C483 1.397 . S
C487 C488 1.394 . S
C487 C506 1.723 . S
C488 C485 1.396 . S
C488 C487 1.394 . S
C488 C518 1.723 . S
H489 C512 0.947 . S
H490 C513 0.948 . S
H491 C519 0.982 . S
H492 C520 0.979 . S
H493 C520 0.980 . S
H494 C520 0.983 . S
H495 C519 0.979 . S
H496 C519 0.977 . S
C497 C485 1.453 . S
C497 H526 0.982 . S
C497 H527 0.979 . S
C497 H528 0.977 . S
C498 C485 1.684 . S
C498 H523 0.979 . S
C498 H524 0.980 . S
C498 H525 0.983 . S
C499 C500 1.391 . S
C499 C504 1.391 . S
C499 H529 0.948 . S
C500 C499 1.391 . S
C500 C501 1.391 . S
C501 C500 1.391 . S
C501 C502 1.392 . S
C501 H530 0.947 . S
C502 C501 1.392 . S
C502 C503 1.419 . S
C502 H531 0.948 . S
C503 C502 1.419 . S
C503 C504 1.391 . S
C503 C507 1.397 . S
C504 C499 1.391 . S
C504 C503 1.391 . S
C504 C505 1.399 . S
C505 C504 1.399 . S
C505 C506 1.396 . S
C505 C508 1.453 . S
C505 C509 1.684 . S
C506 C487 1.723 . S
C506 C505 1.396 . S
C506 C507 1.394 . S
C507 C503 1.397 . S
C507 C506 1.394 . S
C507 C517 1.723 . S
C508 C505 1.453 . S
C508 H532 0.982 . S
C508 H533 0.979 . S
C508 H534 0.977 . S
C509 C505 1.684 . S
C509 H535 0.979 . S
C509 H536 0.980 . S
C509 H537 0.983 . S
C510 H486 0.948 . S
C510 C511 1.391 . S
C510 C515 1.391 . S
C511 C510 1.391 . S
C511 C512 1.391 . S
C512 H489 0.947 . S
C512 C511 1.391 . S
C512 C513 1.392 . S
C513 H490 0.948 . S
C513 C512 1.392 . S
C513 C514 1.419 . S
C514 C513 1.419 . S
C514 C515 1.391 . S
C514 C518 1.397 . S
C515 C510 1.391 . S
C515 C514 1.391 . S
C515 C516 1.399 . S
C516 C515 1.399 . S
C516 C517 1.396 . S
C516 C519 1.453 . S
C516 C520 1.684 . S
C517 C507 1.723 . S
C517 C516 1.396 . S
C517 C518 1.394 . S
C518 C488 1.723 . S
C518 C514 1.397 . S
C518 C517 1.394 . S
C519 H491 0.982 . S
C519 H495 0.979 . S
C519 H496 0.977 . S
C519 C516 1.453 . S
C520 H492 0.979 . S
C520 H493 0.980 . S
C520 H494 0.983 . S
C520 C516 1.684 . S
H521 C539 0.948 . S
H522 C480 0.948 . S
H523 C498 0.979 . S
H524 C498 0.980 . S
H525 C498 0.983 . S
H526 C497 0.982 . S
H527 C497 0.979 . S
H528 C497 0.977 . S
H529 C499 0.948 . S
H530 C501 0.947 . S
H531 C502 0.948 . S
H532 C508 0.982 . S
H533 C508 0.979 . S
H534 C508 0.977 . S
H535 C509 0.979 . S
H536 C509 0.980 . S
H537 C509 0.983 . S
H538 C482 0.947 . S
C539 C482 1.392 . S
C539 C483 1.419 . S
C539 H521 0.948 . S
C540 C541 1.391 . S
C540 C544 1.391 . S
C540 H582 0.948 . S
C541 C540 1.391 . S
C541 C542 1.391 . S
C542 C541 1.391 . S
C542 H598 0.947 . S
C542 C599 1.392 . S
C543 C544 1.391 . S
C543 C547 1.397 . S
C543 C599 1.419 . S
C544 C540 1.391 . S
C544 C543 1.391 . S
C544 C545 1.399 . S
C545 C544 1.399 . S
C545 C548 1.396 . S
C545 C557 1.453 . S
C545 C558 1.684 . S
H546 C570 0.948 . S
C547 C543 1.397 . S
C547 C548 1.394 . S
C547 C566 1.723 . S
C548 C545 1.396 . S
C548 C547 1.394 . S
C548 C578 1.723 . S
H549 C572 0.947 . S
H550 C573 0.948 . S
H551 C579 0.982 . S
H552 C580 0.979 . S
H553 C580 0.980 . S
H554 C580 0.983 . S
H555 C579 0.979 . S
H556 C579 0.977 . S
C557 C545 1.453 . S
C557 H586 0.982 . S
C557 H587 0.979 . S
C557 H588 0.977 . S
C558 C545 1.684 . S
C558 H583 0.979 . S
C558 H584 0.980 . S
C558 H585 0.983 . S
C559 C560 1.391 . S
C559 C564 1.391 . S
C559 H589 0.948 . S
C560 C559 1.391 . S
C560 C561 1.391 . S
C561 C560 1.391 . S
C561 C562 1.392 . S
C561 H590 0.947 . S
C562 C561 1.392 . S
C562 C563 1.419 . S
C562 H591 0.948 . S
C563 C562 1.419 . S
C563 C564 1.391 . S
C563 C567 1.397 . S
C564 C559 1.391 . S
C564 C563 1.391 . S
C564 C565 1.399 . S
C565 C564 1.399 . S
C565 C566 1.396 . S
C565 C568 1.453 . S
C565 C569 1.684 . S
C566 C547 1.723 . S
C566 C565 1.396 . S
C566 C567 1.394 . S
C567 C563 1.397 . S
C567 C566 1.394 . S
C567 C577 1.723 . S
C568 C565 1.453 . S
C568 H592 0.982 . S
C568 H593 0.979 . S
C568 H594 0.977 . S
C569 C565 1.684 . S
C569 H595 0.979 . S
C569 H596 0.980 . S
C569 H597 0.983 . S
C570 H546 0.948 . S
C570 C571 1.391 . S
C570 C575 1.391 . S
C571 C570 1.391 . S
C571 C572 1.391 . S
C572 H549 0.947 . S
C572 C571 1.391 . S
C572 C573 1.392 . S
C573 H550 0.948 . S
C573 C572 1.392 . S
C573 C574 1.419 . S
C574 C573 1.419 . S
C574 C575 1.391 . S
C574 C578 1.397 . S
C575 C570 1.391 . S
C575 C574 1.391 . S
C575 C576 1.399 . S
C576 C575 1.399 . S
C576 C577 1.396 . S
C576 C579 1.453 . S
C576 C580 1.684 . S
C577 C567 1.723 . S
C577 C576 1.396 . S
C577 C578 1.394 . S
C578 C548 1.723 . S
C578 C574 1.397 . S
C578 C577 1.394 . S
C579 H551 0.982 . S
C579 H555 0.979 . S
C579 H556 0.977 . S
C579 C576 1.453 . S
C580 H552 0.979 . S
C580 H553 0.980 . S
C580 H554 0.983 . S
C580 C576 1.684 . S
H581 C599 0.948 . S
H582 C540 0.948 . S
H583 C558 0.979 . S
H584 C558 0.980 . S
H585 C558 0.983 . S
H586 C557 0.982 . S
H587 C557 0.979 . S
H588 C557 0.977 . S
H589 C559 0.948 . S
H590 C561 0.947 . S
H591 C562 0.948 . S
H592 C568 0.982 . S
H593 C568 0.979 . S
H594 C568 0.977 . S
H595 C569 0.979 . S
H596 C569 0.980 . S
H597 C569 0.983 . S
H598 C542 0.947 . S
C599 C542 1.392 . S
C599 C543 1.419 . S
C599 H581 0.948 . S
C600 C601 1.391 . S
C600 C604 1.391 . S
C600 H642 0.948 . S
C601 C600 1.391 . S
C601 C602 1.391 . S
C602 C601 1.391 . S
C602 H658 0.947 . S
C602 C659 1.392 . S
C603 C604 1.391 . S
C603 C607 1.397 . S
C603 C659 1.419 . S
C604 C600 1.391 . S
C604 C603 1.391 . S
C604 C605 1.399 . S
C605 C604 1.399 . S
C605 C608 1.396 . S
C605 C617 1.453 . S
C605 C618 1.684 . S
H606 C630 0.948 . S
C607 C603 1.397 . S
C607 C608 1.394 . S
C607 C626 1.723 . S
C608 C605 1.396 . S
C608 C607 1.394 . S
C608 C638 1.723 . S
H609 C632 0.947 . S
H610 C633 0.948 . S
H611 C639 0.982 . S
H612 C640 0.979 . S
H613 C640 0.980 . S
H614 C640 0.983 . S
H615 C639 0.979 . S
H616 C639 0.977 . S
C617 C605 1.453 . S
C617 H646 0.982 . S
C617 H647 0.979 . S
C617 H648 0.977 . S
C618 C605 1.684 . S
C618 H643 0.979 . S
C618 H644 0.980 . S
C618 H645 0.983 . S
C619 C620 1.391 . S
C619 C624 1.391 . S
C619 H649 0.948 . S
C620 C619 1.391 . S
C620 C621 1.391 . S
C621 C620 1.391 . S
C621 C622 1.392 . S
C621 H650 0.947 . S
C622 C621 1.392 . S
C622 C623 1.419 . S
C622 H651 0.948 . S
C623 C622 1.419 . S
C623 C624 1.391 . S
C623 C627 1.397 . S
C624 C619 1.391 . S
C624 C623 1.391 . S
C624 C625 1.399 . S
C625 C624 1.399 . S
C625 C626 1.396 . S
C625 C628 1.453 . S
C625 C629 1.684 . S
C626 C607 1.723 . S
C626 C625 1.396 . S
C626 C627 1.394 . S
C627 C623 1.397 . S
C627 C626 1.394 . S
C627 C637 1.723 . S
C628 C625 1.453 . S
C628 H652 0.982 . S
C628 H653 0.979 . S
C628 H654 0.977 . S
C629 C625 1.684 . S
C629 H655 0.979 . S
C629 H656 0.980 . S
C629 H657 0.983 . S
C630 H606 0.948 . S
C630 C631 1.391 . S
C630 C635 1.391 . S
C631 C630 1.391 . S
C631 C632 1.391 . S
C632 H609 0.947 . S
C632 C631 1.391 . S
C632 C633 1.392 . S
C633 H610 0.948 . S
C633 C632 1.392 . S
C633 C634 1.419 . S
C634 C633 1.419 . S
C634 C635 1.391 . S
C634 C638 1.397 . S
C635 C630 1.391 . S
C635 C634 1.391 . S
C635 C636 1.399 . S
C636 C635 1.399 . S
C636 C637 1.396 . S
C636 C639 1.453 . S
C636 C640 1.684 . S
C637 C627 1.723 . S
C637 C636 1.396 . S
C637 C638 1.394 . S
C638 C608 1.723 . S
C638 C634 1.397 . S
C638 C637 1.394 . S
C639 H611 0.982 . S
C639 H615 0.979 . S
C639 H616 0.977 . S
C639 C636 1.453 . S
C640 H612 0.979 . S
C640 H613 0.980 . S
C640 H614 0.983 . S
C640 C636 1.684 . S
H641 C659 0.948 . S
H642 C600 0.948 . S
H643 C618 0.979 . S
H644 C618 0.980 . S
H645 C618 0.983 . S
H646 C617 0.982 . S
H647 C617 0.979 . S
H648 C617 0.977 . S
H649 C619 0.948 . S
H650 C621 0.947 . S
H651 C622 0.948 . S
H652 C628 0.982 . S
H653 C628 0.979 . S
H654 C628 0.977 . S
H655 C629 0.979 . S
H656 C629 0.980 . S
H657 C629 0.983 . S
H658 C602 0.947 . S
C659 C602 1.392 . S
C659 C603 1.419 . S
C659 H641 0.948 . S
C660 C661 1.391 . S
C660 C664 1.391 . S
C660 H702 0.948 . S
C661 C660 1.391 . S
C661 C662 1.391 . S
C662 C661 1.391 . S
C662 H718 0.947 . S
C662 C719 1.392 . S
C663 C664 1.391 . S
C663 C667 1.397 . S
C663 C719 1.419 . S
C664 C660 1.391 . S
C664 C663 1.391 . S
C664 C665 1.399 . S
C665 C664 1.399 . S
C665 C668 1.396 . S
C665 C677 1.453 . S
C665 C678 1.684 . S
H666 C690 0.948 . S
C667 C663 1.397 . S
C667 C668 1.394 . S
C667 C686 1.723 . S
C668 C665 1.396 . S
C668 C667 1.394 . S
C668 C698 1.723 . S
H669 C692 0.947 . S
H670 C693 0.948 . S
H671 C699 0.982 . S
H672 C700 0.979 . S
H673 C700 0.980 . S
H674 C700 0.983 . S
H675 C699 0.979 . S
H676 C699 0.977 . S
C677 C665 1.453 . S
C677 H706 0.982 . S
C677 H707 0.979 . S
C677 H708 0.977 . S
C678 C665 1.684 . S
C678 H703 0.979 . S
C678 H704 0.980 . S
C678 H705 0.983 . S
C679 C680 1.391 . S
C679 C684 1.391 . S
C679 H709 0.948 . S
C680 C679 1.391 . S
C680 C681 1.391 . S
C681 C680 1.391 . S
C681 C682 1.392 . S
C681 H710 0.947 . S
C682 C681 1.392 . S
C682 C683 1.419 . S
C682 H711 0.948 . S
C683 C682 1.419 . S
C683 C684 1.391 . S
C683 C687 1.397 . S
C684 C679 1.391 . S
C684 C683 1.391 . S
C684 C685 1.399 . S
C685 C684 1.399 . S
C685 C686 1.396 . S
C685 C688 1.453 . S
C685 C689 1.684 . S
C686 C667 1.723 . S
C686 C685 1.396 . S
C686 C687 1.394 . S
C687 C683 1.397 . S
C687 C686 1.394 . S
C687 C697 1.723 . S
C688 C685 1.453 . S
C688 H712 0.982 . S
C688 H713 0.979 . S
C688 H714 0.977 . S
C689 C685 1.684 . S
C689 H715 0.979 . S
C689 H716 0.980 . S
C689 H717 0.983 . S
C690 H666 0.948 . S
C690 C691 1.391 . S
C690 C695 1.391 . S
C691 C690 1.391 . S
C691 C692 1.391 . S
C692 H669 0.947 . S
C692 C691 1.391 . S
C692 C693 1.392 . S
C693 H670 0.948 . S
C693 C692 1.392 . S
C693 C694 1.419 . S
C694 C693 1.419 . S
C694 C695 1.391 . S
C694 C698 1.397 . S
C695 C690 1.391 . S
C695 C694 1.391 . S
C695 C696 1.399 . S
C696 C695 1.399 . S
C696 C697 1.396 . S
C696 C699 1.453 . S
C696 C700 1.684 . S
C697 C687 1.723 . S
C697 C696 1.396 . S
C697 C698 1.394 . S
C698 C668 1.723 . S
C698 C694 1.397 . S
C698 C697 1.394 . S
C699 H671 0.982 . S
C699 H675 0.979 . S
C699 H676 0.977 . S
C699 C696 1.453 . S
C700 H672 0.979 . S
C700 H673 0.980 . S
C700 H674 0.983 . S
C700 C696 1.684 . S
H701 C719 0.948 . S
H702 C660 0.948 . S
H703 C678 0.979 . S
H704 C678 0.980 . S
H705 C678 0.983 . S
H706 C677 0.982 . S
H707 C677 0.979 . S
H708 C677 0.977 . S
H709 C679 0.948 . S
H710 C681 0.947 . S
H711 C682 0.948 . S
H712 C688 0.982 . S
H713 C688 0.979 . S
H714 C688 0.977 . S
H715 C689 0.979 . S
H716 C689 0.980 . S
H717 C689 0.983 . S
H718 C662 0.947 . S
C719 C662 1.392 . S
C719 C663 1.419 . S
C719 H701 0.948 . S
C720 C721 1.391 . S
C720 C724 1.391 . S
C720 H762 0.948 . S
C721 C720 1.391 . S
C721 C722 1.391 . S
C722 C721 1.391 . S
C722 H778 0.947 . S
C722 C779 1.392 . S
C723 C724 1.391 . S
C723 C727 1.397 . S
C723 C779 1.419 . S
C724 C720 1.391 . S
C724 C723 1.391 . S
C724 C725 1.399 . S
C725 C724 1.399 . S
C725 C728 1.396 . S
C725 C737 1.453 . S
C725 C738 1.684 . S
H726 C750 0.948 . S
C727 C723 1.397 . S
C727 C728 1.394 . S
C727 C746 1.723 . S
C728 C725 1.396 . S
C728 C727 1.394 . S
C728 C758 1.723 . S
H729 C752 0.947 . S
H730 C753 0.948 . S
H731 C759 0.982 . S
H732 C760 0.979 . S
H733 C760 0.980 . S
H734 C760 0.983 . S
H735 C759 0.979 . S
H736 C759 0.977 . S
C737 C725 1.453 . S
C737 H766 0.982 . S
C737 H767 0.979 . S
C737 H768 0.977 . S
C738 C725 1.684 . S
C738 H763 0.979 . S
C738 H764 0.980 . S
C738 H765 0.983 . S
C739 C740 1.391 . S
C739 C744 1.391 . S
C739 H769 0.948 . S
C740 C739 1.391 . S
C740 C741 1.391 . S
C741 C740 1.391 . S
C741 C742 1.392 . S
C741 H770 0.947 . S
C742 C741 1.392 . S
C742 C743 1.419 . S
C742 H771 0.948 . S
C743 C742 1.419 . S
C743 C744 1.391 . S
C743 C747 1.397 . S
C744 C739 1.391 . S
C744 C743 1.391 . S
C744 C745 1.399 . S
C745 C744 1.399 . S
C745 C746 1.396 . S
C745 C748 1.453 . S
C745 C749 1.684 . S
C746 C727 1.723 . S
C746 C745 1.396 . S
C746 C747 1.394 . S
C747 C743 1.397 . S
C747 C746 1.394 . S
C747 C757 1.723 . S
C748 C745 1.453 . S
C748 H772 0.982 . S
C748 H773 0.979 . S
C748 H774 0.977 . S
C749 C745 1.684 . S
C749 H775 0.979 . S
C749 H776 0.980 . S
C749 H777 0.983 . S
C750 H726 0.948 . S
C750 C751 1.391 . S
C750 C755 1.391 . S
C751 C750 1.391 . S
C751 C752 1.391 . S
C752 H729 0.947 . S
C752 C751 1.391 . S
C752 C753 1.392 . S
C753 H730 0.948 . S
C753 C752 1.392 . S
C753 C754 1.419 . S
C754 C753 1.419 . S
C754 C755 1.391 . S
C754 C758 1.397 . S
C755 C750 1.391 . S
C755 C754 1.391 . S
C755 C756 1.399 . S
C756 C755 1.399 . S
C756 C757 1.396 . S
C756 C759 1.453 . S
C756 C760 1.684 . S
C757 C747 1.723 . S
C757 C756 1.396 . S
C757 C758 1.394 . S
C758 C728 1.723 . S
C758 C754 1.397 . S
C758 C757 1.394 . S
C759 H731 0.982 . S
C759 H735 0.979 . S
C759 H736 0.977 . S
C759 C756 1.453 . S
C760 H732 0.979 . S
C760 H733 0.980 . S
C760 H734 0.983 . S
C760 C756 1.684 . S
H761 C779 0.948 . S
H762 C720 0.948 . S
H763 C738 0.979 . S
H764 C738 0.980 . S
H765 C738 0.983 . S
H766 C737 0.982 . S
H767 C737 0.979 . S
H768 C737 0.977 . S
H769 C739 0.948 . S
H770 C741 0.947 . S
H771 C742 0.948 . S
H772 C748 0.982 . S
H773 C748 0.979 . S
H774 C748 0.977 . S
H775 C749 0.979 . S
H776 C749 0.980 . S
H777 C749 0.983 . S
H778 C722 0.947 . S
C779 C722 1.392 . S
C779 C723 1.419 . S
C779 H761 0.948 . S
C780 C781 1.391 . S
C780 C784 1.391 . S
C780 H822 0.948 . S
C781 C780 1.391 . S
C781 C782 1.391 . S
C782 C781 1.391 . S
C782 H838 0.947 . S
C782 C839 1.392 . S
C783 C784 1.391 . S
C783 C787 1.397 . S
C783 C839 1.419 . S
C784 C780 1.391 . S
C784 C783 1.391 . S
C784 C785 1.399 . S
C785 C784 1.399 . S
C785 C788 1.396 . S
C785 C797 1.453 . S
C785 C798 1.684 . S
H786 C810 0.948 . S
C787 C783 1.397 . S
C787 C788 1.394 . S
C787 C806 1.723 . S
C788 C785 1.396 . S
C788 C787 1.394 . S
C788 C818 1.723 . S
H789 C812 0.947 . S
H790 C813 0.948 . S
H791 C819 0.982 . S
H792 C820 0.979 . S
H793 C820 0.980 . S
H794 C820 0.983 . S
H795 C819 0.979 . S
H796 C819 0.977 . S
C797 C785 1.453 . S
C797 H826 0.982 . S
C797 H827 0.979 . S
C797 H828 0.977 . S
C798 C785 1.684 . S
C798 H823 0.979 . S
C798 H824 0.980 . S
C798 H825 0.983 . S
C799 C800 1.391 . S
C799 C804 1.391 . S
C799 H829 0.948 . S
C800 C799 1.391 . S
C800 C801 1.391 . S
C801 C800 1.391 . S
C801 C802 1.392 . S
C801 H830 0.947 . S
C802 C801 1.392 . S
C802 C803 1.419 . S
C802 H831 0.948 . S
C803 C802 1.419 . S
C803 C804 1.391 . S
C803 C807 1.397 . S
C804 C799 1.391 . S
C804 C803 1.391 . S
C804 C805 1.399 . S
C805 C804 1.399 . S
C805 C806 1.396 . S
C805 C808 1.453 . S
C805 C809 1.684 . S
C806 C787 1.723 . S
C806 C805 1.396 . S
C806 C807 1.394 . S
C807 C803 1.397 . S
C807 C806 1.394 . S
C807 C817 1.723 . S
C808 C805 1.453 . S
C808 H832 0.982 . S
C808 H833 0.979 . S
C808 H834 0.977 . S
C809 C805 1.684 . S
C809 H835 0.979 . S
C809 H836 0.980 . S
C809 H837 0.983 . S
C810 H786 0.948 . S
C810 C811 1.391 . S
C810 C815 1.391 . S
C811 C810 1.391 . S
C811 C812 1.391 . S
C812 H789 0.947 . S
C812 C811 1.391 . S
C812 C813 1.392 . S
C813 H790 0.948 . S
C813 C812 1.392 . S
C813 C814 1.419 . S
C814 C813 1.419 . S
C814 C815 1.391 . S
C814 C818 1.397 . S
C815 C810 1.391 . S
C815 C814 1.391 . S
C815 C816 1.399 . S
C816 C815 1.399 . S
C816 C817 1.396 . S
C816 C819 1.453 . S
C816 C820 1.684 . S
C817 C807 1.723 . S
C817 C816 1.396 . S
C817 C818 1.394 . S
C818 C788 1.723 . S
C818 C814 1.397 . S
C818 C817 1.394 . S
C819 H791 0.982 . S
C819 H795 0.979 . S
C819 H796 0.977 . S
C819 C816 1.453 . S
C820 H792 0.979 . S
C820 H793 0.980 . S
C820 H794 0.983 . S
C820 C816 1.684 . S
H821 C839 0.948 . S
H822 C780 0.948 . S
H823 C798 0.979 . S
H824 C798 0.980 . S
H825 C798 0.983 . S
H826 C797 0.982 . S
H827 C797 0.979 . S
H828 C797 0.977 . S
H829 C799 0.948 . S
H830 C801 0.947 . S
H831 C802 0.948 . S
H832 C808 0.982 . S
H833 C808 0.979 . S
H834 C808 0.977 . S
H835 C809 0.979 . S
H836 C809 0.980 . S
H837 C809 0.983 . S
H838 C782 0.947 . S
C839 C782 1.392 . S
C839 C783 1.419 . S
C839 H821 0.948 . S
C840 C841 1.391 . S
C840 C844 1.391 . S
C840 H882 0.948 . S
C841 C840 1.391 . S
C841 C842 1.391 . S
C842 C841 1.391 . S
C842 H898 0.947 . S
C842 C899 1.392 . S
C843 C844 1.391 . S
C843 C847 1.397 . S
C843 C899 1.419 . S
C844 C840 1.391 . S
C844 C843 1.391 . S
C844 C845 1.399 . S
C845 C844 1.399 . S
C845 C848 1.396 . S
C845 C857 1.453 . S
C845 C858 1.684 . S
H846 C870 0.948 . S
C847 C843 1.397 . S
C847 C848 1.394 . S
C847 C866 1.723 . S
C848 C845 1.396 . S
C848 C847 1.394 . S
C848 C878 1.723 . S
H849 C872 0.947 . S
H850 C873 0.948 . S
H851 C879 0.982 . S
H852 C880 0.979 . S
H853 C880 0.980 . S
H854 C880 0.983 . S
H855 C879 0.979 . S
H856 C879 0.977 . S
C857 C845 1.453 . S
C857 H886 0.982 . S
C857 H887 0.979 . S
C857 H888 0.977 . S
C858 C845 1.684 . S
C858 H883 0.979 . S
C858 H884 0.980 . S
C858 H885 0.983 . S
C859 C860 1.391 . S
C859 C864 1.391 . S
C859 H889 0.948 . S
C860 C859 1.391 . S
C860 C861 1.391 . S
C861 C860 1.391 . S
C861 C862 1.392 . S
C861 H890 0.947 . S
C862 C861 1.392 . S
C862 C863 1.419 . S
C862 H891 0.948 . S
C863 C862 1.419 . S
C863 C864 1.391 . S
C863 C867 1.397 . S
C864 C859 1.391 . S
C864 C863 1.391 . S
C864 C865 1.399 . S
C865 C864 1.399 . S
C865 C866 1.396 . S
C865 C868 1.453 . S
C865 C869 1.684 . S
C866 C847 1.723 . S
C866 C865 1.396 . S
C866 C867 1.394 . S
C867 C863 1.397 . S
C867 C866 1.394 . S
C867 C877 1.723 . S
C868 C865 1.453 . S
C868 H892 0.982 . S
C868 H893 0.979 . S
C868 H894 0.977 . S
C869 C865 1.684 . S
C869 H895 0.979 . S
C869 H896 0.980 . S
C869 H897 0.983 . S
C870 H846 0.948 . S
C870 C871 1.391 . S
C870 C875 1.391 . S
C871 C870 1.391 . S
C871 C872 1.391 . S
C872 H849 0.947 . S
C872 C871 1.391 . S
C872 C873 1.392 . S
C873 H850 0.948 . S
C873 C872 1.392 . S
C873 C874 1.419 . S
C874 C873 1.419 . S
C874 C875 1.391 . S
C874 C878 1.397 . S
C875 C870 1.391 . S
C875 C874 1.391 . S
C875 C876 1.399 . S
C876 C875 1.399 . S
C876 C877 1.396 . S
C876 C879 1.453 . S
C876 C880 1.684 . S
C877 C867 1.723 . S
C877 C876 1.396 . S
C877 C878 1.394 . S
C878 C848 1.723 . S
C878 C874 1.397 . S
C878 C877 1.394 . S
C879 H851 0.982 . S
C879 H855 0.979 . S
C879 H856 0.977 . S
C879 C876 1.453 . S
C880 H852 0.979 . S
C880 H853 0.980 . S
C880 H854 0.983 . S
C880 C876 1.684 . S
H881 C899 0.948 . S
H882 C840 0.948 . S
H883 C858 0.979 . S
H884 C858 0.980 . S
H885 C858 0.983 . S
H886 C857 0.982 . S
H887 C857 0.979 . S
H888 C857 0.977 . S
H889 C859 0.948 . S
H890 C861 0.947 . S
H891 C862 0.948 . S
H892 C868 0.982 . S
H893 C868 0.979 . S
H894 C868 0.977 . S
H895 C869 0.979 . S
H896 C869 0.980 . S
H897 C869 0.983 . S
H898 C842 0.947 . S
C899 C842 1.392 . S
C899 C843 1.419 . S
C899 H881 0.948 . S
C900 C901 1.391 . S
C900 C904 1.391 . S
C900 H942 0.948 . S
C901 C900 1.391 . S
C901 C902 1.391 . S
C902 C901 1.391 . S
C902 H958 0.947 . S
C902 C959 1.392 . S
C903 C904 1.391 . S
C903 C907 1.397 . S
C903 C959 1.419 . S
C904 C900 1.391 . S
C904 C903 1.391 . S
C904 C905 1.399 . S
C905 C904 1.399 . S
C905 C908 1.396 . S
C905 C917 1.453 . S
C905 C918 1.684 . S
H906 C930 0.948 . S
C907 C903 1.397 . S
C907 C908 1.394 . S
C907 C926 1.723 . S
C908 C905 1.396 . S
C908 C907 1.394 . S
C908 C938 1.723 . S
H909 C932 0.947 . S
H910 C933 0.948 . S
H911 C939 0.982 . S
H912 C940 0.979 . S
H913 C940 0.980 . S
H914 C940 0.983 . S
H915 C939 0.979 . S
H916 C939 0.977 . S
C917 C905 1.453 . S
C917 H946 0.982 . S
C917 H947 0.979 . S
C917 H948 0.977 . S
C918 C905 1.684 . S
C918 H943 0.979 . S
C918 H944 0.980 . S
C918 H945 0.983 . S
C919 C920 1.391 . S
C919 C924 1.391 . S
C919 H949 0.948 . S
C920 C919 1.391 . S
C920 C921 1.391 . S
C921 C920 1.391 . S
C921 C922 1.392 . S
C921 H950 0.947 . S
C922 C921 1.392 . S
C922 C923 1.419 . S
C922 H951 0.948 . S
C923 C922 1.419 . S
C923 C924 1.391 . S
C923 C927 1.397 . S
C924 C919 1.391 . S
C924 C923 1.391 . S
C924 C925 1.399 . S
C925 C924 1.399 . S
C925 C926 1.396 . S
C925 C928 1.453 . S
C925 C929 1.684 . S
C926 C907 1.723 . S
C926 C925 1.396 . S
C926 C927 1.394 . S
C927 C923 1.397 . S
C927 C926 1.394 . S
C927 C937 1.723 . S
C928 C925 1.453 . S
C928 H952 0.982 . S
C928 H953 0.979 . S
C928 H954 0.977 . S
C929 C925 1.684 . S
C929 H955 0.979 . S
C929 H956 0.980 . S
C929 H957 0.983 . S
C930 H906 0.948 . S
C930 C931 1.391 . S
C930 C935 1.391 . S
C931 C930 1.391 . S
C931 C932 1.391 . S
C932 H909 0.947 . S
C932 C931 1.391 . S
C932 C933 1.392 . S
C933 H910 0.948 . S
C933 C932 1.392 . S
C933 C934 1.419 . S
C934 C933 1.419 . S
C934 C935 1.391 . S
C934 C938 1.397 . S
C935 C930 1.391 . S
C935 C934 1.391 . S
C935 C936 1.399 . S
C936 C935 1.399 . S
C936 C937 1.396 . S
C936 C939 1.453 . S
C936 C940 1.684 . S
C937 C927 1.723 . S
C937 C936 1.396 . S
C937 C938 1.394 . S
C938 C908 1.723 . S
C938 C934 1.397 . S
C938 C937 1.394 . S
C939 H911 0.982 . S
C939 H915 0.979 . S
C939 H916 0.977 . S
C939 C936 1.453 . S
C940 H912 0.979 . S
C940 H913 0.980 . S
C940 H914 0.983 . S
C940 C936 1.684 . S
H941 C959 0.948 . S
H942 C900 0.948 . S
H943 C918 0.979 . S
H944 C918 0.980 . S
H945 C918 0.983 . S
H946 C917 0.982 . S
H947 C917 0.979 . S
H948 C917 0.977 . S
H949 C919 0.948 . S
H950 C921 0.947 . S
H951 C922 0.948 . S
H952 C928 0.982 . S
H953 C928 0.979 . S
H954 C928 0.977 . S
H955 C929 0.979 . S
H956 C929 0.980 . S
H957 C929 0.983 . S
H958 C902 0.947 . S
C959 C902 1.392 . S
C959 C903 1.419 . S
C959 H941 0.948 . S
C960 C961 1.391 . S
C960 C964 1.391 . S
C960 H1002 0.948 . S
C961 C960 1.391 . S
C961 C962 1.391 . S
C962 C961 1.391 . S
C962 H1018 0.947 . S
C962 C1019 1.392 . S
C963 C964 1.391 . S
C963 C967 1.397 . S
C963 C1019 1.419 . S
C964 C960 1.391 . S
C964 C963 1.391 . S
C964 C965 1.399 . S
C965 C964 1.399 . S
C965 C968 1.396 . S
C965 C977 1.453 . S
C965 C978 1.684 . S
H966 C990 0.948 . S
C967 C963 1.397 . S
C967 C968 1.394 . S
C967 C986 1.723 . S
C968 C965 1.396 . S
C968 C967 1.394 . S
C968 C998 1.723 . S
H969 C992 0.947 . S
H970 C993 0.948 . S
H971 C999 0.982 . S
H972 C1000 0.979 . S
H973 C1000 0.980 . S
H974 C1000 0.983 . S
H975 C999 0.979 . S
H976 C999 0.977 . S
C977 C965 1.453 . S
C977 H1006 0.982 . S
C977 H1007 0.979 . S
C977 H1008 0.977 . S
C978 C965 1.684 . S
C978 H1003 0.979 . S
C978 H1004 0.980 . S
C978 H1005 0.983 . S
C979 C980 1.391 . S
C979 C984 1.391 . S
C979 H1009 0.948 . S
C980 C979 1.391 . S
C980 C981 1.391 . S
C981 C980 1.391 . S
C981 C982 1.392 . S
C981 H1010 0.947 . S
C982 C981 1.392 . S
C982 C983 1.419 . S
C982 H1011 0.948 . S
C983 C982 1.419 . S
C983 C984 1.391 . S
C983 C987 1.397 . S
C984 C979 1.391 . S
C984 C983 1.391 . S
C984 C985 1.399 . S
C985 C984 1.399 . S
C985 C986 1.396 . S
C985 C988 1.453 . S
C985 C989 1.684 . S
C986 C967 1.723 . S
C986 C985 1.396 . S
C986 C987 1.394 . S
C987 C983 1.397 . S
C987 C986 1.394 . S
C987 C997 1.723 . S
C988 C985 1.453 . S
C988 H1012 0.982 . S
C988 H1013 0.979 . S
C988 H1014 0.977 . S
C989 C985 1.684 . S
C989 H1015 0.979 . S
C989 H1016 0.980 . S
C989 H1017 0.983 . S
C990 H966 0.948 . S
C990 C991 1.391 . S
C990 C995 1.391 . S
C991 C990 1.391 . S
C991 C992 1.391 . S
C992 H969 0.947 . S
C992 C991 1.391 . S
C992 C993 1.392 . S
C993 H970 0.948 . S
C993 C992 1.392 . S
C993 C994 1.419 . S
C994 C993 1.419 . S
C994 C995 1.391 . S
C994 C998 1.397 . S
C995 C990 1.391 . S
C995 C994 1.391 . S
C995 C996 1.399 . S
C996 C995 1.399 . S
C996 C997 1.396 . S
C996 C999 1.453 . S
C996 C1000 1.684 . S
C997 C987 1.723 . S
C997 C996 1.396 . S
C997 C998 1.394 . S
C998 C968 1.723 . S
C998 C994 1.397 . S
C998 C997 1.394 . S
C999 H971 0.982 . S
C999 H975 0.979 . S
C999 H976 0.977 . S
C999 C996 1.453 . S
C1000 H972 0.979 . S
C1000 H973 0.980 . S
C1000 H974 0.983 . S
C1000 C996 1.684 . S
H1001 C1019 0.948 . S
H1002 C960 0.948 . S
H1003 C978 0.979 . S
H1004 C978 0.980 . S
H1005 C978 0.983 . S
H1006 C977 0.982 . S
H1007 C977 0.979 . S
H1008 C977 0.977 . S
H1009 C979 0.948 . S
H1010 C981 0.947 . S
H1011 C982 0.948 . S
H1012 C988 0.982 . S
H1013 C988 0.979 . S
H1014 C988 0.977 . S
H1015 C989 0.979 . S
H1016 C989 0.980 . S
H1017 C989 0.983 . S
H1018 C962 0.947 . S
C1019 C962 1.392 . S
C1019 C963 1.419 . S
C1019 H1001 0.948 . S
C1020 C1021 1.391 . S
C1020 C1024 1.391 . S
C1020 H1062 0.948 . S
C1021 C1020 1.391 . S
C1021 C1022 1.391 . S
C1022 C1021 1.391 . S
C1022 H1078 0.947 . S
C1022 C1079 1.392 . S
C1023 C1024 1.391 . S
C1023 C1027 1.397 . S
C1023 C1079 1.419 . S
C1024 C1020 1.391 . S
C1024 C1023 1.391 . S
C1024 C1025 1.399 . S
C1025 C1024 1.399 . S
C1025 C1028 1.396 . S
C1025 C1037 1.453 . S
C1025 C1038 1.684 . S
H1026 C1050 0.948 . S
C1027 C1023 1.397 . S
C1027 C1028 1.394 . S
C1027 C1046 1.723 . S
C1028 C1025 1.396 . S
C1028 C1027 1.394 . S
C1028 C1058 1.723 . S
H1029 C1052 0.947 . S
H1030 C1053 0.948 . S
H1031 C1059 0.982 . S
H1032 C1060 0.979 . S
H1033 C1060 0.980 . S
H1034 C1060 0.983 . S
H1035 C1059 0.979 . S
H1036 C1059 0.977 . S
C1037 C1025 1.453 . S
C1037 H1066 0.982 . S
C1037 H1067 0.979 . S
C1037 H1068 0.977 . S
C1038 C1025 1.684 . S
C1038 H1063 0.979 . S
C1038 H1064 0.980 . S
C1038 H1065 0.983 . S
C1039 C1040 1.391 . S
C1039 C1044 1.391 . S
C1039 H1069 0.948 . S
C1040 C1039 1.391 . S
C1040 C1041 1.391 . S
C1041 C1040 1.391 . S
C1041 C1042 1.392 . S
C1041 H1070 0.947 . S
C1042 C1041 1.392 . S
C1042 C1043 1.419 . S
C1042 H1071 0.948 . S
C1043 C1042 1.419 . S
C1043 C1044 1.391 . S
C1043 C1047 1.397 . S
C1044 C1039 1.391 . S
C1044 C1043 1.391 . S
C1044 C1045 1.399 . S
C1045 C1044 1.399 . S
C1045 C1046 1.396 . S
C1045 C1048 1.453 . S
C1045 C1049 1.684 . S
C1046 C1027 1.723 . S
C1046 C1045 1.396 . S
C1046 C1047 1.394 . S
C1047 C1043 1.397 . S
C1047 C1046 1.394 . S
C1047 C1057 1.723 . S
C1048 C1045 1.453 . S
C1048 H1072 0.982 . S
C1048 H1073 0.979 . S
C1048 H1074 0.977 . S
C1049 C1045 1.684 . S
C1049 H1075 0.979 . S
C1049 H1076 0.980 . S
C1049 H1077 0.983 . S
C1050 H1026 0.948 . S
C1050 C1051 1.391 . S
C1050 C1055 1.391 . S
C1051 C1050 1.391 . S
C1051 C1052 1.391 . S
C1052 H1029 0.947 . S
C1052 C1051 1.391 . S
C1052 C1053 1.392 . S
C1053 H1030 0.948 . S
C1053 C1052 1.392 . S
C1053 C1054 1.419 . S
C1054 C1053 1.419 . S
C1054 C1055 1.391 . S
C1054 C1058 1.397 . S
C1055 C1050 1.391 . S
C1055 C1054 1.391 . S
C1055 C1056 1.399 . S
C1056 C1055 1.399 . S
C1056 C1057 1.396 . S
C1056 C1059 1.453 . S
C1056 C1060 1.684 . S
C1057 C1047 1.723 . S
C1057 C1056 1.396 . S
C1057 C1058 1.394 . S
C1058 C1028 1.723 . S
C1058 C1054 1.397 . S
C1058 C1057 1.394 . S
C1059 H1031 0.982 . S
C1059 H1035 0.979 . S
C1059 H1036 0.977 . S
C1059 C1056 1.453 . S
C1060 H1032 0.979 . S
C1060 H1033 0.980 . S
C1060 H1034 0.983 . S
C1060 C1056 1.684 . S
H1061 C1079 0.948 . S
H1062 C1020 0.948 . S
H1063 C1038 0.979 . S
H1064 C1038 0.980 . S
H1065 C1038 0.983 . S
H1066 C1037 0.982 . S
H1067 C1037 0.979 . S
H1068 C1037 0.977 . S
H1069 C1039 0.948 . S
H1070 C1041 0.947 . S
H1071 C1042 0.948 . S
H1072 C1048 0.982 . S
H1073 C1048 0.979 . S
H1074 C1048 0.977 . S
H1075 C1049 0.979 . S
H1076 C1049 0.980 . S
H1077 C1049 0.983 . S
H1078 C1022 0.947 . S
C1079 C1022 1.392 . S
C1079 C1023 1.419 . S
C1079 H1061 0.948 . S
Tb1080 O1083 2.453 . S
Tb1080 O1084 2.596 1_545 S
Tb1080 O1085 2.374 1_545 S
Tb1080 O1093 2.343 1_554 S
Tb1080 O1095 2.353 . S
Tb1080 O1097 2.427 1_554 S
Tb1080 O1098 2.513 1_554 S
C1081 O1085 1.251 . S
C1081 O1087 1.263 1_554 S
Tb1082 O1084 2.343 1_556 S
Tb1082 O1087 2.353 . S
Tb1082 O1090 2.427 1_556 S
Tb1082 O1091 2.513 1_556 S
Tb1082 O1092 2.453 . S
Tb1082 O1093 2.596 1_565 S
Tb1082 O1094 2.374 1_565 S
O1083 Tb1080 2.453 . S
O1083 C1099 1.245 . S
O1084 Tb1080 2.596 1_565 S
O1084 Tb1082 2.343 1_554 S
O1084 C1099 1.259 1_565 S
O1085 Tb1080 2.374 1_565 S
O1085 C1081 1.251 . S
C1086 O1090 1.275 . S
C1086 O1091 1.246 . S
O1087 C1081 1.263 1_556 S
O1087 Tb1082 2.353 . S
C1088 O1092 1.245 . S
C1088 O1093 1.259 1_565 S
C1089 O1094 1.250 . S
C1089 O1095 1.263 1_556 S
O1090 Tb1082 2.427 1_554 S
O1090 C1086 1.275 . S
O1091 Tb1082 2.513 1_554 S
O1091 C1086 1.246 . S
O1092 Tb1082 2.453 . S
O1092 C1088 1.245 . S
O1093 Tb1080 2.343 1_556 S
O1093 Tb1082 2.596 1_545 S
O1093 C1088 1.259 1_545 S
O1094 Tb1082 2.374 1_545 S
O1094 C1089 1.250 . S
O1095 Tb1080 2.353 . S
O1095 C1089 1.263 1_554 S
C1096 O1097 1.275 . S
C1096 O1098 1.246 . S
O1097 Tb1080 2.427 1_556 S
O1097 C1096 1.275 . S
O1098 Tb1080 2.513 1_556 S
O1098 C1096 1.246 . S
C1099 O1083 1.245 . S
C1099 O1084 1.259 1_545 S
Tb1100 O1103 2.453 . S
Tb1100 O1104 2.596 1_655 S
Tb1100 O1105 2.374 1_655 S
Tb1100 O1113 2.343 1_554 S
Tb1100 O1115 2.353 1_554 S
Tb1100 O1117 2.427 1_554 S
Tb1100 O1118 2.513 1_554 S
C1101 O1105 1.251 . S
C1101 O1107 1.263 . S
Tb1102 O1104 2.343 1_556 S
Tb1102 O1107 2.353 1_556 S
Tb1102 O1110 2.427 1_556 S
Tb1102 O1111 2.513 1_556 S
Tb1102 O1112 2.453 . S
Tb1102 O1113 2.596 1_455 S
Tb1102 O1114 2.374 1_455 S
O1103 Tb1100 2.453 . S
O1103 C1119 1.245 1_655 S
O1104 Tb1100 2.596 1_455 S
O1104 Tb1102 2.343 1_554 S
O1104 C1119 1.259 . S
O1105 Tb1100 2.374 1_455 S
O1105 C1101 1.251 . S
C1106 O1110 1.275 . S
C1106 O1111 1.246 . S
O1107 C1101 1.263 . S
O1107 Tb1102 2.353 1_554 S
C1108 O1112 1.245 1_655 S
C1108 O1113 1.259 . S
C1109 O1114 1.250 . S
C1109 O1115 1.263 . S
O1110 Tb1102 2.427 1_554 S
O1110 C1106 1.275 . S
O1111 Tb1102 2.513 1_554 S
O1111 C1106 1.246 . S
O1112 Tb1102 2.453 . S
O1112 C1108 1.245 1_455 S
O1113 Tb1100 2.343 1_556 S
O1113 Tb1102 2.596 1_655 S
O1113 C1108 1.259 . S
O1114 Tb1102 2.374 1_655 S
O1114 C1109 1.250 . S
O1115 Tb1100 2.353 1_556 S
O1115 C1109 1.263 . S
C1116 O1117 1.275 . S
C1116 O1118 1.246 . S
O1117 Tb1100 2.427 1_556 S
O1117 C1116 1.275 . S
O1118 Tb1100 2.513 1_556 S
O1118 C1116 1.246 . S
C1119 O1103 1.245 1_455 S
C1119 O1104 1.259 . S
Tb1120 O1123 2.453 . S
Tb1120 O1124 2.596 . S
Tb1120 O1125 2.374 . S
Tb1120 O1133 2.343 1_556 S
Tb1120 O1135 2.350 1_556 S
Tb1120 O1137 2.427 1_556 S
Tb1120 O1138 2.513 1_556 S
C1121 O1125 1.251 . S
C1121 O1127 1.250 1_556 S
Tb1122 O1124 2.343 1_554 S
Tb1122 O1127 2.357 . S
Tb1122 O1130 2.427 1_554 S
Tb1122 O1131 2.513 1_554 S
Tb1122 O1132 2.453 . S
Tb1122 O1133 2.596 . S
Tb1122 O1134 2.374 . S
O1123 Tb1120 2.453 . S
O1123 C1139 1.245 . S
O1124 Tb1120 2.596 . S
O1124 Tb1122 2.343 1_556 S
O1124 C1139 1.259 . S
O1125 Tb1120 2.374 . S
O1125 C1121 1.251 . S
C1126 O1130 1.275 . S
C1126 O1131 1.246 . S
O1127 C1121 1.250 1_554 S
O1127 Tb1122 2.357 . S
C1128 O1132 1.245 . S
C1128 O1133 1.259 . S
C1129 O1134 1.250 . S
C1129 O1135 1.275 . S
O1130 Tb1122 2.427 1_556 S
O1130 C1126 1.275 . S
O1131 Tb1122 2.513 1_556 S
O1131 C1126 1.246 . S
O1132 Tb1122 2.453 . S
O1132 C1128 1.245 . S
O1133 Tb1120 2.343 1_554 S
O1133 Tb1122 2.596 . S
O1133 C1128 1.259 . S
O1134 Tb1122 2.374 . S
O1134 C1129 1.250 . S
O1135 Tb1120 2.350 1_554 S
O1135 C1129 1.275 . S
C1136 O1137 1.275 . S
C1136 O1138 1.246 . S
O1137 Tb1120 2.427 1_554 S
O1137 C1136 1.275 . S
O1138 Tb1120 2.513 1_554 S
O1138 C1136 1.246 . S
C1139 O1123 1.245 . S
C1139 O1124 1.259 . S
Tb1140 O1143 2.453 . S
Tb1140 O1144 2.596 . S
Tb1140 O1145 2.374 . S
Tb1140 O1153 2.343 . S
Tb1140 O1155 2.353 . S
Tb1140 O1157 2.427 . S
Tb1140 O1158 2.513 . S
C1141 O1145 1.251 . S
C1141 O1147 1.263 . S
Tb1142 O1144 2.343 . S
Tb1142 O1147 2.353 . S
Tb1142 O1150 2.427 . S
Tb1142 O1151 2.513 . S
Tb1142 O1152 2.453 . S
Tb1142 O1153 2.596 . S
Tb1142 O1154 2.374 . S
O1143 Tb1140 2.453 . S
O1143 C1159 1.245 . S
O1144 Tb1140 2.596 . S
O1144 Tb1142 2.343 . S
O1144 C1159 1.259 . S
O1145 Tb1140 2.374 . S
O1145 C1141 1.251 . S
C1146 O1150 1.275 . S
C1146 O1151 1.246 . S
O1147 C1141 1.263 . S
O1147 Tb1142 2.353 . S
C1148 O1152 1.245 . S
C1148 O1153 1.259 . S
C1149 O1154 1.250 . S
C1149 O1155 1.263 . S
O1150 Tb1142 2.427 . S
O1150 C1146 1.275 . S
O1151 Tb1142 2.513 . S
O1151 C1146 1.246 . S
O1152 Tb1142 2.453 . S
O1152 C1148 1.245 . S
O1153 Tb1140 2.343 . S
O1153 Tb1142 2.596 . S
O1153 C1148 1.259 . S
O1154 Tb1142 2.374 . S
O1154 C1149 1.250 . S
O1155 Tb1140 2.353 . S
O1155 C1149 1.263 . S
C1156 O1157 1.275 . S
C1156 O1158 1.246 . S
O1157 Tb1140 2.427 . S
O1157 C1156 1.275 . S
O1158 Tb1140 2.513 . S
O1158 C1156 1.246 . S
C1159 O1143 1.245 . S
C1159 O1144 1.259 . S
Tb1160 O1163 2.453 . S
Tb1160 O1164 2.596 . S
Tb1160 O1165 2.374 . S
Tb1160 O1173 2.343 . S
Tb1160 O1175 2.353 . S
Tb1160 O1177 2.427 . S
Tb1160 O1178 2.513 . S
C1161 O1165 1.251 . S
C1161 O1167 1.263 . S
Tb1162 O1164 2.343 . S
Tb1162 O1167 2.353 . S
Tb1162 O1170 2.427 . S
Tb1162 O1171 2.513 . S
Tb1162 O1172 2.453 . S
Tb1162 O1173 2.596 . S
Tb1162 O1174 2.374 . S
O1163 Tb1160 2.453 . S
O1163 C1179 1.245 . S
O1164 Tb1160 2.596 . S
O1164 Tb1162 2.343 . S
O1164 C1179 1.259 . S
O1165 Tb1160 2.374 . S
O1165 C1161 1.251 . S
C1166 O1170 1.275 . S
C1166 O1171 1.246 . S
O1167 C1161 1.263 . S
O1167 Tb1162 2.353 . S
C1168 O1172 1.245 . S
C1168 O1173 1.259 . S
C1169 O1174 1.250 . S
C1169 O1175 1.263 . S
O1170 Tb1162 2.427 . S
O1170 C1166 1.275 . S
O1171 Tb1162 2.513 . S
O1171 C1166 1.246 . S
O1172 Tb1162 2.453 . S
O1172 C1168 1.245 . S
O1173 Tb1160 2.343 . S
O1173 Tb1162 2.596 . S
O1173 C1168 1.259 . S
O1174 Tb1162 2.374 . S
O1174 C1169 1.250 . S
O1175 Tb1160 2.353 . S
O1175 C1169 1.263 . S
C1176 O1177 1.275 . S
C1176 O1178 1.246 . S
O1177 Tb1160 2.427 . S
O1177 C1176 1.275 . S
O1178 Tb1160 2.513 . S
O1178 C1176 1.246 . S
C1179 O1163 1.245 . S
C1179 O1164 1.259 . S
Tb1180 O1183 2.453 . S
Tb1180 O1184 2.596 . S
Tb1180 O1185 2.374 . S
Tb1180 O1193 2.343 . S
Tb1180 O1195 2.353 . S
Tb1180 O1197 2.427 . S
Tb1180 O1198 2.513 . S
C1181 O1185 1.251 . S
C1181 O1187 1.263 . S
Tb1182 O1184 2.343 . S
Tb1182 O1187 2.353 . S
Tb1182 O1190 2.427 . S
Tb1182 O1191 2.513 . S
Tb1182 O1192 2.453 . S
Tb1182 O1193 2.596 . S
Tb1182 O1194 2.374 . S
O1183 Tb1180 2.453 . S
O1183 C1199 1.245 . S
O1184 Tb1180 2.596 . S
O1184 Tb1182 2.343 . S
O1184 C1199 1.259 . S
O1185 Tb1180 2.374 . S
O1185 C1181 1.251 . S
C1186 O1190 1.275 . S
C1186 O1191 1.246 . S
O1187 C1181 1.263 . S
O1187 Tb1182 2.353 . S
C1188 O1192 1.245 . S
C1188 O1193 1.259 . S
C1189 O1194 1.250 . S
C1189 O1195 1.263 . S
O1190 Tb1182 2.427 . S
O1190 C1186 1.275 . S
O1191 Tb1182 2.513 . S
O1191 C1186 1.246 . S
O1192 Tb1182 2.453 . S
O1192 C1188 1.245 . S
O1193 Tb1180 2.343 . S
O1193 Tb1182 2.596 . S
O1193 C1188 1.259 . S
O1194 Tb1182 2.374 . S
O1194 C1189 1.250 . S
O1195 Tb1180 2.353 . S
O1195 C1189 1.263 . S
C1196 O1197 1.275 . S
C1196 O1198 1.246 . S
O1197 Tb1180 2.427 . S
O1197 C1196 1.275 . S
O1198 Tb1180 2.513 . S
O1198 C1196 1.246 . S
C1199 O1183 1.245 . S
C1199 O1184 1.259 . S
Tb1200 O1203 2.453 . S
Tb1200 O1204 2.596 . S
Tb1200 O1205 2.374 . S
Tb1200 O1213 2.343 . S
Tb1200 O1215 2.353 . S
Tb1200 O1217 2.427 . S
Tb1200 O1218 2.513 . S
C1201 O1205 1.251 . S
C1201 O1207 1.263 . S
Tb1202 O1204 2.343 . S
Tb1202 O1207 2.353 . S
Tb1202 O1210 2.427 . S
Tb1202 O1211 2.513 . S
Tb1202 O1212 2.453 . S
Tb1202 O1213 2.596 . S
Tb1202 O1214 2.374 . S
O1203 Tb1200 2.453 . S
O1203 C1219 1.245 . S
O1204 Tb1200 2.596 . S
O1204 Tb1202 2.343 . S
O1204 C1219 1.259 . S
O1205 Tb1200 2.374 . S
O1205 C1201 1.251 . S
C1206 O1210 1.275 . S
C1206 O1211 1.246 . S
O1207 C1201 1.263 . S
O1207 Tb1202 2.353 . S
C1208 O1212 1.245 . S
C1208 O1213 1.259 . S
C1209 O1214 1.250 . S
C1209 O1215 1.263 . S
O1210 Tb1202 2.427 . S
O1210 C1206 1.275 . S
O1211 Tb1202 2.513 . S
O1211 C1206 1.246 . S
O1212 Tb1202 2.453 . S
O1212 C1208 1.245 . S
O1213 Tb1200 2.343 . S
O1213 Tb1202 2.596 . S
O1213 C1208 1.259 . S
O1214 Tb1202 2.374 . S
O1214 C1209 1.250 . S
O1215 Tb1200 2.353 . S
O1215 C1209 1.263 . S
C1216 O1217 1.275 . S
C1216 O1218 1.246 . S
O1217 Tb1200 2.427 . S
O1217 C1216 1.275 . S
O1218 Tb1200 2.513 . S
O1218 C1216 1.246 . S
C1219 O1203 1.245 . S
C1219 O1204 1.259 . S
Tb1220 O1223 2.453 . S
Tb1220 O1224 2.596 . S
Tb1220 O1225 2.374 . S
Tb1220 O1233 2.343 . S
Tb1220 O1235 2.353 . S
Tb1220 O1237 2.427 . S
Tb1220 O1238 2.513 . S
C1221 O1225 1.251 . S
C1221 O1227 1.263 . S
Tb1222 O1224 2.343 . S
Tb1222 O1227 2.353 . S
Tb1222 O1230 2.427 . S
Tb1222 O1231 2.513 . S
Tb1222 O1232 2.453 . S
Tb1222 O1233 2.596 . S
Tb1222 O1234 2.374 . S
O1223 Tb1220 2.453 . S
O1223 C1239 1.245 . S
O1224 Tb1220 2.596 . S
O1224 Tb1222 2.343 . S
O1224 C1239 1.259 . S
O1225 Tb1220 2.374 . S
O1225 C1221 1.251 . S
C1226 O1230 1.275 . S
C1226 O1231 1.246 . S
O1227 C1221 1.263 . S
O1227 Tb1222 2.353 . S
C1228 O1232 1.245 . S
C1228 O1233 1.259 . S
C1229 O1234 1.250 . S
C1229 O1235 1.263 . S
O1230 Tb1222 2.427 . S
O1230 C1226 1.275 . S
O1231 Tb1222 2.513 . S
O1231 C1226 1.246 . S
O1232 Tb1222 2.453 . S
O1232 C1228 1.245 . S
O1233 Tb1220 2.343 . S
O1233 Tb1222 2.596 . S
O1233 C1228 1.259 . S
O1234 Tb1222 2.374 . S
O1234 C1229 1.250 . S
O1235 Tb1220 2.353 . S
O1235 C1229 1.263 . S
C1236 O1237 1.275 . S
C1236 O1238 1.246 . S
O1237 Tb1220 2.427 . S
O1237 C1236 1.275 . S
O1238 Tb1220 2.513 . S
O1238 C1236 1.246 . S
C1239 O1223 1.245 . S
C1239 O1224 1.259 . S
Tb1240 O1243 2.453 . S
Tb1240 O1244 2.596 . S
Tb1240 O1245 2.374 . S
Tb1240 O1253 2.343 . S
Tb1240 O1255 2.353 . S
Tb1240 O1257 2.427 . S
Tb1240 O1258 2.513 . S
C1241 O1245 1.251 . S
C1241 O1247 1.263 . S
Tb1242 O1244 2.343 . S
Tb1242 O1247 2.353 . S
Tb1242 O1250 2.427 . S
Tb1242 O1251 2.513 . S
Tb1242 O1252 2.453 . S
Tb1242 O1253 2.596 . S
Tb1242 O1254 2.374 . S
O1243 Tb1240 2.453 . S
O1243 C1259 1.245 . S
O1244 Tb1240 2.596 . S
O1244 Tb1242 2.343 . S
O1244 C1259 1.259 . S
O1245 Tb1240 2.374 . S
O1245 C1241 1.251 . S
C1246 O1250 1.275 . S
C1246 O1251 1.246 . S
O1247 C1241 1.263 . S
O1247 Tb1242 2.353 . S
C1248 O1252 1.245 . S
C1248 O1253 1.259 . S
C1249 O1254 1.250 . S
C1249 O1255 1.263 . S
O1250 Tb1242 2.427 . S
O1250 C1246 1.275 . S
O1251 Tb1242 2.513 . S
O1251 C1246 1.246 . S
O1252 Tb1242 2.453 . S
O1252 C1248 1.245 . S
O1253 Tb1240 2.343 . S
O1253 Tb1242 2.596 . S
O1253 C1248 1.259 . S
O1254 Tb1242 2.374 . S
O1254 C1249 1.250 . S
O1255 Tb1240 2.353 . S
O1255 C1249 1.263 . S
C1256 O1257 1.275 . S
C1256 O1258 1.246 . S
O1257 Tb1240 2.427 . S
O1257 C1256 1.275 . S
O1258 Tb1240 2.513 . S
O1258 C1256 1.246 . S
C1259 O1243 1.245 . S
C1259 O1244 1.259 . S
C1260 C1261 1.363 . S
C1260 C1266 1.379 . S
C1260 N1268 1.356 . S
C1261 C1260 1.363 . S
C1261 C1267 1.363 . S
C1262 C1263 1.363 . S
C1262 C1267 1.379 . S
C1262 N1269 1.356 . S
C1263 C1262 1.363 . S
C1263 C1266 1.363 . S
N1264 C1266 1.356 1_556 S
N1264 H1276 0.984 . S
N1264 H1277 0.985 . S
N1265 C1267 1.356 . S
N1265 H1270 0.984 . S
N1265 H1271 0.985 . S
C1266 C1260 1.379 . S
C1266 C1263 1.363 . S
C1266 N1264 1.356 1_554 S
C1267 C1261 1.363 . S
C1267 C1262 1.379 . S
C1267 N1265 1.356 . S
N1268 C1260 1.356 . S
N1268 H1274 0.984 1_554 S
N1268 H1275 0.984 . S
N1269 C1262 1.356 . S
N1269 H1272 0.984 . S
N1269 H1273 0.985 . S
H1270 N1265 0.984 . S
H1271 N1265 0.985 . S
H1272 N1269 0.984 . S
H1273 N1269 0.985 . S
H1274 N1268 0.984 1_556 S
H1275 N1268 0.984 . S
H1276 N1264 0.984 . S
H1277 N1264 0.985 . S
C1278 C1279 1.363 . S
C1278 C1284 1.379 . S
C1278 N1286 1.356 . S
C1279 C1278 1.363 . S
C1279 C1285 1.363 . S
C1280 C1281 1.363 . S
C1280 C1285 1.379 . S
C1280 N1287 1.356 . S
C1281 C1280 1.363 . S
C1281 C1284 1.363 . S
N1282 C1284 1.356 . S
N1282 H1294 0.984 . S
N1282 H1295 0.985 . S
N1283 C1285 1.356 . S
N1283 H1288 0.984 . S
N1283 H1289 0.985 . S
C1284 C1278 1.379 . S
C1284 C1281 1.363 . S
C1284 N1282 1.356 . S
C1285 C1279 1.363 . S
C1285 C1280 1.379 . S
C1285 N1283 1.356 . S
N1286 C1278 1.356 . S
N1286 H1292 0.984 . S
N1286 H1293 0.984 . S
N1287 C1280 1.356 . S
N1287 H1290 0.984 . S
N1287 H1291 0.985 1_554 S
H1288 N1283 0.984 . S
H1289 N1283 0.985 . S
H1290 N1287 0.984 . S
H1291 N1287 0.985 1_556 S
H1292 N1286 0.984 . S
H1293 N1286 0.984 . S
H1294 N1282 0.984 . S
H1295 N1282 0.985 . S
C1296 C1297 1.363 . S
C1296 C1302 1.379 . S
C1296 N1304 1.356 1_554 S
C1297 C1296 1.363 . S
C1297 C1303 1.363 . S
C1298 C1299 1.363 . S
C1298 C1303 1.379 . S
C1298 N1305 1.356 . S
C1299 C1298 1.363 . S
C1299 C1302 1.363 . S
N1300 C1302 1.356 1_556 S
N1300 H1312 0.984 . S
N1300 H1313 0.985 . S
N1301 C1303 1.356 . S
N1301 H1306 0.984 . S
N1301 H1307 0.985 . S
C1302 C1296 1.379 . S
C1302 C1299 1.363 . S
C1302 N1300 1.356 1_554 S
C1303 C1297 1.363 . S
C1303 C1298 1.379 . S
C1303 N1301 1.356 . S
N1304 C1296 1.356 1_556 S
N1304 H1310 0.984 . S
N1304 H1311 0.984 1_556 S
N1305 C1298 1.356 . S
N1305 H1308 0.984 . S
N1305 H1309 0.985 . S
H1306 N1301 0.984 . S
H1307 N1301 0.985 . S
H1308 N1305 0.984 . S
H1309 N1305 0.985 . S
H1310 N1304 0.984 . S
H1311 N1304 0.984 1_554 S
H1312 N1300 0.984 . S
H1313 N1300 0.985 . S
C1314 C1315 1.363 . S
C1314 C1320 1.379 . S
C1314 N1322 1.356 . S
C1315 C1314 1.363 . S
C1315 C1321 1.363 . S
C1316 C1317 1.363 . S
C1316 C1321 1.379 . S
C1316 N1323 1.356 1_556 S
C1317 C1316 1.363 . S
C1317 C1320 1.363 . S
N1318 C1320 1.356 . S
N1318 H1330 0.984 . S
N1318 H1331 0.985 . S
N1319 C1321 1.356 . S
N1319 H1324 0.984 . S
N1319 H1325 0.985 . S
C1320 C1314 1.379 . S
C1320 C1317 1.363 . S
C1320 N1318 1.356 . S
C1321 C1315 1.363 . S
C1321 C1316 1.379 . S
C1321 N1319 1.356 . S
N1322 C1314 1.356 . S
N1322 H1328 0.984 . S
N1322 H1329 0.984 . S
N1323 C1316 1.356 1_554 S
N1323 H1326 0.984 . S
N1323 H1327 0.985 . S
H1324 N1319 0.984 . S
H1325 N1319 0.985 . S
H1326 N1323 0.984 . S
H1327 N1323 0.985 . S
H1328 N1322 0.984 . S
H1329 N1322 0.984 . S
H1330 N1318 0.984 . S
H1331 N1318 0.985 . S
C1332 C1333 1.363 . S
C1332 C1338 1.379 . S
C1332 N1340 1.356 . S
C1333 C1332 1.363 . S
C1333 C1339 1.363 . S
C1334 C1335 1.363 . S
C1334 C1339 1.379 . S
C1334 N1341 1.356 . S
C1335 C1334 1.363 . S
C1335 C1338 1.363 . S
N1336 C1338 1.356 . S
N1336 H1348 0.984 . S
N1336 H1349 0.985 . S
N1337 C1339 1.356 . S
N1337 H1342 0.984 . S
N1337 H1343 0.985 . S
C1338 C1332 1.379 . S
C1338 C1335 1.363 . S
C1338 N1336 1.356 . S
C1339 C1333 1.363 . S
C1339 C1334 1.379 . S
C1339 N1337 1.356 . S
N1340 C1332 1.356 . S
N1340 H1346 0.984 . S
N1340 H1347 0.984 . S
N1341 C1334 1.356 . S
N1341 H1344 0.984 . S
N1341 H1345 0.985 1_556 S
H1342 N1337 0.984 . S
H1343 N1337 0.985 . S
H1344 N1341 0.984 . S
H1345 N1341 0.985 1_554 S
H1346 N1340 0.984 . S
H1347 N1340 0.984 . S
H1348 N1336 0.984 . S
H1349 N1336 0.985 . S
C1350 C1351 1.363 . S
C1350 C1356 1.379 . S
C1350 N1358 1.356 . S
C1351 C1350 1.363 . S
C1351 C1357 1.363 . S
C1352 C1353 1.363 . S
C1352 C1357 1.379 . S
C1352 N1359 1.356 1_556 S
C1353 C1352 1.363 . S
C1353 C1356 1.363 . S
N1354 C1356 1.356 . S
N1354 H1366 0.984 . S
N1354 H1367 0.985 . S
N1355 C1357 1.356 . S
N1355 H1360 0.984 . S
N1355 H1361 0.985 1_556 S
C1356 C1350 1.379 . S
C1356 C1353 1.363 . S
C1356 N1354 1.356 . S
C1357 C1351 1.363 . S
C1357 C1352 1.379 . S
C1357 N1355 1.356 . S
N1358 C1350 1.356 . S
N1358 H1364 0.984 . S
N1358 H1365 0.984 . S
N1359 C1352 1.356 1_554 S
N1359 H1362 0.984 . S
N1359 H1363 0.985 . S
H1360 N1355 0.984 . S
H1361 N1355 0.985 1_554 S
H1362 N1359 0.984 . S
H1363 N1359 0.985 . S
H1364 N1358 0.984 . S
H1365 N1358 0.984 . S
H1366 N1354 0.984 . S
H1367 N1354 0.985 . S
C1368 C1369 1.363 . S
C1368 C1374 1.379 . S
C1368 N1376 1.356 . S
C1369 C1368 1.363 . S
C1369 C1375 1.363 . S
C1370 C1371 1.363 . S
C1370 C1375 1.379 . S
C1370 N1377 1.356 1_556 S
C1371 C1370 1.363 . S
C1371 C1374 1.363 . S
N1372 C1374 1.356 . S
N1372 H1384 0.984 . S
N1372 H1385 0.985 . S
N1373 C1375 1.356 . S
N1373 H1378 0.984 . S
N1373 H1379 0.985 1_556 S
C1374 C1368 1.379 . S
C1374 C1371 1.363 . S
C1374 N1372 1.356 . S
C1375 C1369 1.363 . S
C1375 C1370 1.379 . S
C1375 N1373 1.356 . S
N1376 C1368 1.356 . S
N1376 H1382 0.984 . S
N1376 H1383 0.984 . S
N1377 C1370 1.356 1_554 S
N1377 H1380 0.984 . S
N1377 H1381 0.985 . S
H1378 N1373 0.984 . S
H1379 N1373 0.985 1_554 S
H1380 N1377 0.984 . S
H1381 N1377 0.985 . S
H1382 N1376 0.984 . S
H1383 N1376 0.984 . S
H1384 N1372 0.984 . S
H1385 N1372 0.985 . S
C1386 C1387 1.363 . S
C1386 C1392 1.379 . S
C1386 N1394 1.356 . S
C1387 C1386 1.363 . S
C1387 C1393 1.363 . S
C1388 C1389 1.363 . S
C1388 C1393 1.379 . S
C1388 N1395 1.356 . S
C1389 C1388 1.363 . S
C1389 C1392 1.363 . S
N1390 C1392 1.356 . S
N1390 H1402 0.984 . S
N1390 H1403 0.985 . S
N1391 C1393 1.356 . S
N1391 H1396 0.984 . S
N1391 H1397 0.985 . S
C1392 C1386 1.379 . S
C1392 C1389 1.363 . S
C1392 N1390 1.356 . S
C1393 C1387 1.363 . S
C1393 C1388 1.379 . S
C1393 N1391 1.356 . S
N1394 C1386 1.356 . S
N1394 H1400 0.984 . S
N1394 H1401 0.984 . S
N1395 C1388 1.356 . S
N1395 H1398 0.984 . S
N1395 H1399 0.984 1_556 S
H1396 N1391 0.984 . S
H1397 N1391 0.985 . S
H1398 N1395 0.984 . S
H1399 N1395 0.984 1_554 S
H1400 N1394 0.984 . S
H1401 N1394 0.984 . S
H1402 N1390 0.984 . S
H1403 N1390 0.985 . S
C1404 C1405 1.363 . S
C1404 C1410 1.379 . S
C1404 N1412 1.356 . S
C1405 C1404 1.363 . S
C1405 C1411 1.363 . S
C1406 C1407 1.363 . S
C1406 C1411 1.379 . S
C1406 N1413 1.356 1_556 S
C1407 C1406 1.363 . S
C1407 C1410 1.363 . S
N1408 C1410 1.356 . S
N1408 H1420 0.984 . S
N1408 H1421 0.985 . S
N1409 C1411 1.336 1_554 S
N1409 H1414 0.971 1_554 S
N1409 H1415 1.020 . S
C1410 C1404 1.379 . S
C1410 C1407 1.363 . S
C1410 N1408 1.356 . S
C1411 C1405 1.363 . S
C1411 C1406 1.379 . S
C1411 N1409 1.336 1_556 S
N1412 C1404 1.356 . S
N1412 H1418 0.984 . S
N1412 H1419 0.984 . S
N1413 C1406 1.356 1_554 S
N1413 H1416 0.984 . S
N1413 H1417 0.985 . S
H1414 N1409 0.971 1_556 S
H1415 N1409 1.020 . S
H1416 N1413 0.984 . S
H1417 N1413 0.985 . S
H1418 N1412 0.984 . S
H1419 N1412 0.984 . S
H1420 N1408 0.984 . S
H1421 N1408 0.985 . S
C1422 C1423 1.363 . S
C1422 C1428 1.379 . S
C1422 N1430 1.356 . S
C1423 C1422 1.363 . S
C1423 C1429 1.363 . S
C1424 C1425 1.363 . S
C1424 C1429 1.379 . S
C1424 N1431 1.356 . S
C1425 C1424 1.363 . S
C1425 C1428 1.363 . S
N1426 C1428 1.356 . S
N1426 H1438 0.984 . S
N1426 H1439 0.985 . S
N1427 C1429 1.356 . S
N1427 H1432 0.984 . S
N1427 H1433 0.985 . S
C1428 C1422 1.379 . S
C1428 C1425 1.363 . S
C1428 N1426 1.356 . S
C1429 C1423 1.363 . S
C1429 C1424 1.379 . S
C1429 N1427 1.356 . S
N1430 C1422 1.356 . S
N1430 H1436 0.984 . S
N1430 H1437 0.984 . S
N1431 C1424 1.356 . S
N1431 H1434 0.984 . S
N1431 H1435 0.985 . S
H1432 N1427 0.984 . S
H1433 N1427 0.985 . S
H1434 N1431 0.984 . S
H1435 N1431 0.985 . S
H1436 N1430 0.984 . S
H1437 N1430 0.984 . S
H1438 N1426 0.984 . S
H1439 N1426 0.985 . S
C1440 C1441 1.363 . S
C1440 C1446 1.379 . S
C1440 N1448 1.356 . S
C1441 C1440 1.363 . S
C1441 C1447 1.363 . S
C1442 C1443 1.363 . S
C1442 C1447 1.379 . S
C1442 N1449 1.356 . S
C1443 C1442 1.363 . S
C1443 C1446 1.363 . S
N1444 C1446 1.356 . S
N1444 H1456 0.984 . S
N1444 H1457 0.985 . S
N1445 C1447 1.356 . S
N1445 H1450 0.984 . S
N1445 H1451 0.985 . S
C1446 C1440 1.379 . S
C1446 C1443 1.363 . S
C1446 N1444 1.356 . S
C1447 C1441 1.363 . S
C1447 C1442 1.379 . S
C1447 N1445 1.356 . S
N1448 C1440 1.356 . S
N1448 H1454 0.984 . S
N1448 H1455 0.984 . S
N1449 C1442 1.356 . S
N1449 H1452 0.984 . S
N1449 H1453 0.985 . S
H1450 N1445 0.984 . S
H1451 N1445 0.985 . S
H1452 N1449 0.984 . S
H1453 N1449 0.985 . S
H1454 N1448 0.984 . S
H1455 N1448 0.984 . S
H1456 N1444 0.984 . S
H1457 N1444 0.985 . S
C1458 C1459 1.363 . S
C1458 C1464 1.379 . S
C1458 N1466 1.356 . S
C1459 C1458 1.363 . S
C1459 C1465 1.363 . S
C1460 C1461 1.363 . S
C1460 C1465 1.379 . S
C1460 N1467 1.356 . S
C1461 C1460 1.363 . S
C1461 C1464 1.363 . S
N1462 C1464 1.356 1_556 S
N1462 H1474 0.984 . S
N1462 H1475 0.985 . S
N1463 C1465 1.356 . S
N1463 H1468 0.984 . S
N1463 H1469 0.985 . S
C1464 C1458 1.379 . S
C1464 C1461 1.363 . S
C1464 N1462 1.356 1_554 S
C1465 C1459 1.363 . S
C1465 C1460 1.379 . S
C1465 N1463 1.356 . S
N1466 C1458 1.356 . S
N1466 H1472 0.984 1_554 S
N1466 H1473 0.984 . S
N1467 C1460 1.356 . S
N1467 H1470 0.984 . S
N1467 H1471 0.985 . S
H1468 N1463 0.984 . S
H1469 N1463 0.985 . S
H1470 N1467 0.984 . S
H1471 N1467 0.985 . S
H1472 N1466 0.984 1_556 S
H1473 N1466 0.984 . S
H1474 N1462 0.984 . S
H1475 N1462 0.985 . S
C1476 C1477 1.359 1_455 S
C1476 C1482 1.379 . S
C1476 N1484 1.356 . S
C1477 C1476 1.359 1_655 S
C1477 C1483 1.362 1_655 S
C1478 C1479 1.363 . S
C1478 C1483 1.379 . S
C1478 N1485 1.356 . S
C1479 C1478 1.363 . S
C1479 C1482 1.363 . S
N1480 C1482 1.356 . S
N1480 H1492 0.984 . S
N1480 H1493 0.985 . S
N1481 C1483 1.356 1_655 S
N1481 H1486 0.984 . S
N1481 H1487 0.985 . S
C1482 C1476 1.379 . S
C1482 C1479 1.363 . S
C1482 N1480 1.356 . S
C1483 C1477 1.362 1_455 S
C1483 C1478 1.379 . S
C1483 N1481 1.356 1_455 S
N1484 C1476 1.356 . S
N1484 H1490 0.984 . S
N1484 H1491 0.984 1_455 S
N1485 C1478 1.356 . S
N1485 H1488 0.984 . S
N1485 H1489 0.985 . S
H1486 N1481 0.984 . S
H1487 N1481 0.985 . S
H1488 N1485 0.984 . S
H1489 N1485 0.985 . S
H1490 N1484 0.984 . S
H1491 N1484 0.984 1_655 S
H1492 N1480 0.984 . S
H1493 N1480 0.985 . S
C1494 C1495 1.363 . S
C1494 C1500 1.379 . S
C1494 N1502 1.356 . S
C1495 C1494 1.363 . S
C1495 C1501 1.363 . S
C1496 C1497 1.363 . S
C1496 C1501 1.379 . S
C1496 N1503 1.356 . S
C1497 C1496 1.363 . S
C1497 C1500 1.363 . S
N1498 C1500 1.356 . S
N1498 H1510 0.984 . S
N1498 H1511 0.985 . S
N1499 C1501 1.356 . S
N1499 H1504 0.984 . S
N1499 H1505 0.985 . S
C1500 C1494 1.379 . S
C1500 C1497 1.363 . S
C1500 N1498 1.356 . S
C1501 C1495 1.363 . S
C1501 C1496 1.379 . S
C1501 N1499 1.356 . S
N1502 C1494 1.356 . S
N1502 H1508 0.984 . S
N1502 H1509 0.984 . S
N1503 C1496 1.356 . S
N1503 H1506 0.984 . S
N1503 H1507 0.985 . S
H1504 N1499 0.984 . S
H1505 N1499 0.985 . S
H1506 N1503 0.984 . S
H1507 N1503 0.985 . S
H1508 N1502 0.984 . S
H1509 N1502 0.984 . S
H1510 N1498 0.984 . S
H1511 N1498 0.985 . S
C1512 C1513 1.363 . S
C1512 C1518 1.379 . S
C1512 N1520 1.356 1_565 S
C1513 C1512 1.363 . S
C1513 C1519 1.363 . S
C1514 C1515 1.363 . S
C1514 C1519 1.379 . S
C1514 N1521 1.356 . S
C1515 C1514 1.363 . S
C1515 C1518 1.363 . S
N1516 C1518 1.356 . S
N1516 H1528 0.984 . S
N1516 H1529 0.985 . S
N1517 C1519 1.356 1_545 S
N1517 H1522 0.984 . S
N1517 H1523 0.985 1_545 S
C1518 C1512 1.379 . S
C1518 C1515 1.363 . S
C1518 N1516 1.356 . S
C1519 C1513 1.363 . S
C1519 C1514 1.379 . S
C1519 N1517 1.356 1_565 S
N1520 C1512 1.356 1_545 S
N1520 H1526 0.984 1_545 S
N1520 H1527 0.984 . S
N1521 C1514 1.356 . S
N1521 H1524 0.984 . S
N1521 H1525 0.985 . S
H1522 N1517 0.984 . S
H1523 N1517 0.985 1_565 S
H1524 N1521 0.984 . S
H1525 N1521 0.985 . S
H1526 N1520 0.984 1_565 S
H1527 N1520 0.984 . S
H1528 N1516 0.984 . S
H1529 N1516 0.985 . S
C1530 C1531 1.363 . S
C1530 C1536 1.379 . S
C1530 N1538 1.356 . S
C1531 C1530 1.363 . S
C1531 C1537 1.363 . S
C1532 C1533 1.363 . S
C1532 C1537 1.379 . S
C1532 N1539 1.356 . S
C1533 C1532 1.363 . S
C1533 C1536 1.363 . S
N1534 C1536 1.356 . S
N1534 H1546 0.984 . S
N1534 H1547 0.985 . S
N1535 C1537 1.356 . S
N1535 H1540 0.984 . S
N1535 H1541 0.985 . S
C1536 C1530 1.379 . S
C1536 C1533 1.363 . S
C1536 N1534 1.356 . S
C1537 C1531 1.363 . S
C1537 C1532 1.379 . S
C1537 N1535 1.356 . S
N1538 C1530 1.356 . S
N1538 H1544 0.984 . S
N1538 H1545 0.984 . S
N1539 C1532 1.356 . S
N1539 H1542 0.984 . S
N1539 H1543 0.985 . S
H1540 N1535 0.984 . S
H1541 N1535 0.985 . S
H1542 N1539 0.984 . S
H1543 N1539 0.985 . S
H1544 N1538 0.984 . S
H1545 N1538 0.984 . S
H1546 N1534 0.984 . S
H1547 N1534 0.985 . S
C1548 C1549 1.363 . S
C1548 C1554 1.379 . S
C1548 N1556 1.356 . S
C1549 C1548 1.363 . S
C1549 C1555 1.363 . S
C1550 C1551 1.363 . S
C1550 C1555 1.379 . S
C1550 N1557 1.356 . S
C1551 C1550 1.363 . S
C1551 C1554 1.363 . S
N1552 C1554 1.356 . S
N1552 H1564 0.984 . S
N1552 H1565 0.985 . S
N1553 C1555 1.356 . S
N1553 H1558 0.984 . S
N1553 H1559 0.985 . S
C1554 C1548 1.379 . S
C1554 C1551 1.363 . S
C1554 N1552 1.356 . S
C1555 C1549 1.363 . S
C1555 C1550 1.379 . S
C1555 N1553 1.356 . S
N1556 C1548 1.356 . S
N1556 H1562 0.984 . S
N1556 H1563 0.984 . S
N1557 C1550 1.356 . S
N1557 H1560 0.984 . S
N1557 H1561 0.985 . S
H1558 N1553 0.984 . S
H1559 N1553 0.985 . S
H1560 N1557 0.984 . S
H1561 N1557 0.985 . S
H1562 N1556 0.984 . S
H1563 N1556 0.984 . S
H1564 N1552 0.984 . S
H1565 N1552 0.985 . S
C1566 C1567 1.363 . S
C1566 C1572 1.379 . S
C1566 N1574 1.356 . S
C1567 C1566 1.363 . S
C1567 C1573 1.363 . S
C1568 C1569 1.363 . S
C1568 C1573 1.379 . S
C1568 N1575 1.356 . S
C1569 C1568 1.363 . S
C1569 C1572 1.363 . S
N1570 C1572 1.356 . S
N1570 H1582 0.984 . S
N1570 H1583 0.985 . S
N1571 C1573 1.356 . S
N1571 H1576 0.984 . S
N1571 H1577 0.985 . S
C1572 C1566 1.379 . S
C1572 C1569 1.363 . S
C1572 N1570 1.356 . S
C1573 C1567 1.363 . S
C1573 C1568 1.379 . S
C1573 N1571 1.356 . S
N1574 C1566 1.356 . S
N1574 H1580 0.984 . S
N1574 H1581 0.984 . S
N1575 C1568 1.356 . S
N1575 H1578 0.984 . S
N1575 H1579 0.985 . S
H1576 N1571 0.984 . S
H1577 N1571 0.985 . S
H1578 N1575 0.984 . S
H1579 N1575 0.985 . S
H1580 N1574 0.984 . S
H1581 N1574 0.984 . S
H1582 N1570 0.984 . S
H1583 N1570 0.985 . S
C1584 C1585 1.363 . S
C1584 C1590 1.379 . S
C1584 N1592 1.356 . S
C1585 C1584 1.363 . S
C1585 C1591 1.363 . S
C1586 C1587 1.363 . S
C1586 C1591 1.379 . S
C1586 N1593 1.356 . S
C1587 C1586 1.363 . S
C1587 C1590 1.363 . S
N1588 C1590 1.356 . S
N1588 H1600 0.984 . S
N1588 H1601 0.985 . S
N1589 C1591 1.356 . S
N1589 H1594 0.984 . S
N1589 H1595 0.985 . S
C1590 C1584 1.379 . S
C1590 C1587 1.363 . S
C1590 N1588 1.356 . S
C1591 C1585 1.363 . S
C1591 C1586 1.379 . S
C1591 N1589 1.356 . S
N1592 C1584 1.356 . S
N1592 H1598 0.984 . S
N1592 H1599 0.984 . S
N1593 C1586 1.356 . S
N1593 H1596 0.984 . S
N1593 H1597 0.985 . S
H1594 N1589 0.984 . S
H1595 N1589 0.985 . S
H1596 N1593 0.984 . S
H1597 N1593 0.985 . S
H1598 N1592 0.984 . S
H1599 N1592 0.984 . S
H1600 N1588 0.984 . S
H1601 N1588 0.985 . S
C1602 C1603 1.363 . S
C1602 C1608 1.379 . S
C1602 N1610 1.356 . S
C1603 C1602 1.363 . S
C1603 C1609 1.363 . S
C1604 C1605 1.363 . S
C1604 C1609 1.379 . S
C1604 N1611 1.356 . S
C1605 C1604 1.363 . S
C1605 C1608 1.363 . S
N1606 C1608 1.356 . S
N1606 H1618 0.984 . S
N1606 H1619 0.985 . S
N1607 C1609 1.356 . S
N1607 H1612 0.984 . S
N1607 H1613 0.985 . S
C1608 C1602 1.379 . S
C1608 C1605 1.363 . S
C1608 N1606 1.356 . S
C1609 C1603 1.363 . S
C1609 C1604 1.379 . S
C1609 N1607 1.356 . S
N1610 C1602 1.356 . S
N1610 H1616 0.984 . S
N1610 H1617 0.984 . S
N1611 C1604 1.356 . S
N1611 H1614 0.984 . S
N1611 H1615 0.985 . S
H1612 N1607 0.984 . S
H1613 N1607 0.985 . S
H1614 N1611 0.984 . S
H1615 N1611 0.985 . S
H1616 N1610 0.984 . S
H1617 N1610 0.984 . S
H1618 N1606 0.984 . S
H1619 N1606 0.985 . S
C1620 C1621 1.363 . S
C1620 C1626 1.379 . S
C1620 N1628 1.356 . S
C1621 C1620 1.363 . S
C1621 C1627 1.363 . S
C1622 C1623 1.363 . S
C1622 C1627 1.379 . S
C1622 N1629 1.356 . S
C1623 C1622 1.363 . S
C1623 C1626 1.363 . S
N1624 C1626 1.356 . S
N1624 H1636 0.984 . S
N1624 H1637 0.985 . S
N1625 C1627 1.356 . S
N1625 H1630 0.984 . S
N1625 H1631 0.985 . S
C1626 C1620 1.379 . S
C1626 C1623 1.363 . S
C1626 N1624 1.356 . S
C1627 C1621 1.363 . S
C1627 C1622 1.379 . S
C1627 N1625 1.356 . S
N1628 C1620 1.356 . S
N1628 H1634 0.984 . S
N1628 H1635 0.984 . S
N1629 C1622 1.356 . S
N1629 H1632 0.984 . S
N1629 H1633 0.985 . S
H1630 N1625 0.984 . S
H1631 N1625 0.985 . S
H1632 N1629 0.984 . S
H1633 N1629 0.985 . S
H1634 N1628 0.984 . S
H1635 N1628 0.984 . S
H1636 N1624 0.984 . S
H1637 N1624 0.985 . S
C1638 C1639 1.363 . S
C1638 C1644 1.379 . S
C1638 N1646 1.356 1_565 S
C1639 C1638 1.363 . S
C1639 C1645 1.363 . S
C1640 C1641 1.363 . S
C1640 C1645 1.379 . S
C1640 N1647 1.356 . S
C1641 C1640 1.363 . S
C1641 C1644 1.363 . S
N1642 C1644 1.356 . S
N1642 H1654 0.984 . S
N1642 H1655 0.985 . S
N1643 C1645 1.356 . S
N1643 H1648 0.984 1_565 S
N1643 H1649 0.985 . S
C1644 C1638 1.379 . S
C1644 C1641 1.363 . S
C1644 N1642 1.356 . S
C1645 C1639 1.363 . S
C1645 C1640 1.379 . S
C1645 N1643 1.356 . S
N1646 C1638 1.356 1_545 S
N1646 H1652 0.984 . S
N1646 H1653 0.984 . S
N1647 C1640 1.356 . S
N1647 H1650 0.984 . S
N1647 H1651 0.985 . S
H1648 N1643 0.984 1_545 S
H1649 N1643 0.985 . S
H1650 N1647 0.984 . S
H1651 N1647 0.985 . S
H1652 N1646 0.984 . S
H1653 N1646 0.984 . S
H1654 N1642 0.984 . S
H1655 N1642 0.985 . S
C1656 C1657 1.363 . S
C1656 C1662 1.379 . S
C1656 N1664 1.356 . S
C1657 C1656 1.363 . S
C1657 C1663 1.363 . S
C1658 C1659 1.363 . S
C1658 C1663 1.379 . S
C1658 N1665 1.356 . S
C1659 C1658 1.363 . S
C1659 C1662 1.363 . S
N1660 C1662 1.356 . S
N1660 H1672 0.984 . S
N1660 H1673 0.985 . S
N1661 C1663 1.356 1_655 S
N1661 H1666 0.984 . S
N1661 H1667 0.985 . S
C1662 C1656 1.379 . S
C1662 C1659 1.363 . S
C1662 N1660 1.356 . S
C1663 C1657 1.363 . S
C1663 C1658 1.379 . S
C1663 N1661 1.356 1_455 S
N1664 C1656 1.356 . S
N1664 H1670 0.984 . S
N1664 H1671 0.984 1_455 S
N1665 C1658 1.356 . S
N1665 H1668 0.984 . S
N1665 H1669 0.985 . S
H1666 N1661 0.984 . S
H1667 N1661 0.985 . S
H1668 N1665 0.984 . S
H1669 N1665 0.985 . S
H1670 N1664 0.984 . S
H1671 N1664 0.984 1_655 S
H1672 N1660 0.984 . S
H1673 N1660 0.985 . S
C1674 C1675 1.363 . S
C1674 C1680 1.379 . S
C1674 N1682 1.356 . S
C1675 C1674 1.363 . S
C1675 C1681 1.363 . S
C1676 C1677 1.363 . S
C1676 C1681 1.379 . S
C1676 N1683 1.356 . S
C1677 C1676 1.363 . S
C1677 C1680 1.363 . S
N1678 C1680 1.356 . S
N1678 H1690 0.984 . S
N1678 H1691 0.985 . S
N1679 C1681 1.356 . S
N1679 H1684 0.984 . S
N1679 H1685 0.985 . S
C1680 C1674 1.379 . S
C1680 C1677 1.363 . S
C1680 N1678 1.356 . S
C1681 C1675 1.363 . S
C1681 C1676 1.379 . S
C1681 N1679 1.356 . S
N1682 C1674 1.356 . S
N1682 H1688 0.984 . S
N1682 H1689 0.984 . S
N1683 C1676 1.356 . S
N1683 H1686 0.984 . S
N1683 H1687 0.985 . S
H1684 N1679 0.984 . S
H1685 N1679 0.985 . S
H1686 N1683 0.984 . S
H1687 N1683 0.985 . S
H1688 N1682 0.984 . S
H1689 N1682 0.984 . S
H1690 N1678 0.984 . S
H1691 N1678 0.985 . S
C1692 C1693 1.363 . S
C1692 C1698 1.379 . S
C1692 N1700 1.356 . S
C1693 C1692 1.363 . S
C1693 C1699 1.363 . S
C1694 C1695 1.363 . S
C1694 C1699 1.379 . S
C1694 N1701 1.356 . S
C1695 C1694 1.363 . S
C1695 C1698 1.363 . S
N1696 C1698 1.356 . S
N1696 H1708 0.984 . S
N1696 H1709 0.985 . S
N1697 C1699 1.356 . S
N1697 H1702 0.984 . S
N1697 H1703 0.985 . S
C1698 C1692 1.379 . S
C1698 C1695 1.363 . S
C1698 N1696 1.356 . S
C1699 C1693 1.363 . S
C1699 C1694 1.379 . S
C1699 N1697 1.356 . S
N1700 C1692 1.356 . S
N1700 H1706 0.984 . S
N1700 H1707 0.984 . S
N1701 C1694 1.356 . S
N1701 H1704 0.984 . S
N1701 H1705 0.985 . S
H1702 N1697 0.984 . S
H1703 N1697 0.985 . S
H1704 N1701 0.984 . S
H1705 N1701 0.985 . S
H1706 N1700 0.984 . S
H1707 N1700 0.984 . S
H1708 N1696 0.984 . S
H1709 N1696 0.985 . S
C1710 C1711 1.363 . S
C1710 C1716 1.379 . S
C1710 N1718 1.356 . S
C1711 C1710 1.363 . S
C1711 C1717 1.363 . S
C1712 C1713 1.363 . S
C1712 C1717 1.379 . S
C1712 N1719 1.356 . S
C1713 C1712 1.363 . S
C1713 C1716 1.363 . S
N1714 C1716 1.356 . S
N1714 H1726 0.984 . S
N1714 H1727 0.985 . S
N1715 C1717 1.356 . S
N1715 H1720 0.984 . S
N1715 H1721 0.985 . S
C1716 C1710 1.379 . S
C1716 C1713 1.363 . S
C1716 N1714 1.356 . S
C1717 C1711 1.363 . S
C1717 C1712 1.379 . S
C1717 N1715 1.356 . S
N1718 C1710 1.356 . S
N1718 H1724 0.984 . S
N1718 H1725 0.984 . S
N1719 C1712 1.356 . S
N1719 H1722 0.984 . S
N1719 H1723 0.985 . S
H1720 N1715 0.984 . S
H1721 N1715 0.985 . S
H1722 N1719 0.984 . S
H1723 N1719 0.985 . S
H1724 N1718 0.984 . S
H1725 N1718 0.984 . S
H1726 N1714 0.984 . S
H1727 N1714 0.985 . S
C1728 C1729 1.363 . S
C1728 C1734 1.379 . S
C1728 N1736 1.356 . S
C1729 C1728 1.363 . S
C1729 C1735 1.363 . S
C1730 C1731 1.363 . S
C1730 C1735 1.379 . S
C1730 N1737 1.356 . S
C1731 C1730 1.363 . S
C1731 C1734 1.363 . S
N1732 C1734 1.356 . S
N1732 H1744 0.984 . S
N1732 H1745 0.985 . S
N1733 C1735 1.356 . S
N1733 H1738 0.984 . S
N1733 H1739 0.985 . S
C1734 C1728 1.379 . S
C1734 C1731 1.363 . S
C1734 N1732 1.356 . S
C1735 C1729 1.363 . S
C1735 C1730 1.379 . S
C1735 N1733 1.356 . S
N1736 C1728 1.356 . S
N1736 H1742 0.984 . S
N1736 H1743 0.984 . S
N1737 C1730 1.356 . S
N1737 H1740 0.984 . S
N1737 H1741 0.985 . S
H1738 N1733 0.984 . S
H1739 N1733 0.985 . S
H1740 N1737 0.984 . S
H1741 N1737 0.985 . S
H1742 N1736 0.984 . S
H1743 N1736 0.984 . S
H1744 N1732 0.984 . S
H1745 N1732 0.985 . S
C1746 C1747 1.363 . S
C1746 C1752 1.379 . S
C1746 N1754 1.356 . S
C1747 C1746 1.363 . S
C1747 C1753 1.363 . S
C1748 C1749 1.363 . S
C1748 C1753 1.379 . S
C1748 N1755 1.356 . S
C1749 C1748 1.363 . S
C1749 C1752 1.363 . S
N1750 C1752 1.356 . S
N1750 H1762 0.984 . S
N1750 H1763 0.985 . S
N1751 C1753 1.356 1_565 S
N1751 H1756 0.984 . S
N1751 H1757 0.981 1_565 S
C1752 C1746 1.379 . S
C1752 C1749 1.363 . S
C1752 N1750 1.356 . S
C1753 C1747 1.363 . S
C1753 C1748 1.379 . S
C1753 N1751 1.356 1_545 S
N1754 C1746 1.356 . S
N1754 H1760 0.984 . S
N1754 H1761 0.984 1_545 S
N1755 C1748 1.356 . S
N1755 H1758 0.984 . S
N1755 H1759 0.985 . S
H1756 N1751 0.984 . S
H1757 N1751 0.981 1_545 S
H1758 N1755 0.984 . S
H1759 N1755 0.985 . S
H1760 N1754 0.984 . S
H1761 N1754 0.984 1_565 S
H1762 N1750 0.984 . S
H1763 N1750 0.985 . S
C1764 C1765 1.363 . S
C1764 C1770 1.379 . S
C1764 N1772 1.356 1_655 S
C1765 C1764 1.363 . S
C1765 C1771 1.363 . S
C1766 C1767 1.363 . S
C1766 C1771 1.379 . S
C1766 N1773 1.356 . S
C1767 C1766 1.363 . S
C1767 C1770 1.363 . S
N1768 C1770 1.356 . S
N1768 H1780 0.984 . S
N1768 H1781 0.985 . S
N1769 C1771 1.356 . S
N1769 H1774 0.984 . S
N1769 H1775 0.985 . S
C1770 C1764 1.379 . S
C1770 C1767 1.363 . S
C1770 N1768 1.356 . S
C1771 C1765 1.363 . S
C1771 C1766 1.379 . S
C1771 N1769 1.356 . S
N1772 C1764 1.356 1_455 S
N1772 H1778 0.984 . S
N1772 H1779 0.984 . S
N1773 C1766 1.356 . S
N1773 H1776 0.984 . S
N1773 H1777 0.985 . S
H1774 N1769 0.984 . S
H1775 N1769 0.985 . S
H1776 N1773 0.984 . S
H1777 N1773 0.985 . S
H1778 N1772 0.984 . S
H1779 N1772 0.984 . S
H1780 N1768 0.984 . S
H1781 N1768 0.985 . S
C1782 C1783 1.363 . S
C1782 C1788 1.379 . S
C1782 N1790 1.356 . S
C1783 C1782 1.363 . S
C1783 C1789 1.363 . S
C1784 C1785 1.363 . S
C1784 C1789 1.379 . S
C1784 N1791 1.356 . S
C1785 C1784 1.363 . S
C1785 C1788 1.363 . S
N1786 C1788 1.356 . S
N1786 H1798 0.984 . S
N1786 H1799 0.985 . S
N1787 C1789 1.356 . S
N1787 H1792 0.984 . S
N1787 H1793 0.985 . S
C1788 C1782 1.379 . S
C1788 C1785 1.363 . S
C1788 N1786 1.356 . S
C1789 C1783 1.363 . S
C1789 C1784 1.379 . S
C1789 N1787 1.356 . S
N1790 C1782 1.356 . S
N1790 H1796 0.984 . S
N1790 H1797 0.984 . S
N1791 C1784 1.356 . S
N1791 H1794 0.984 . S
N1791 H1795 0.985 . S
H1792 N1787 0.984 . S
H1793 N1787 0.985 . S
H1794 N1791 0.984 . S
H1795 N1791 0.985 . S
H1796 N1790 0.984 . S
H1797 N1790 0.984 . S
H1798 N1786 0.984 . S
H1799 N1786 0.985 . S
C1800 C1801 1.357 1_655 S
C1800 C1806 1.379 . S
C1800 N1808 1.356 . S
C1801 C1800 1.357 1_455 S
C1801 C1807 1.350 1_455 S
C1802 C1803 1.363 . S
C1802 C1807 1.379 . S
C1802 N1809 1.356 . S
C1803 C1802 1.363 . S
C1803 C1806 1.363 . S
N1804 C1806 1.356 . S
N1804 H1816 0.984 . S
N1804 H1817 0.985 . S
N1805 C1807 1.356 1_455 S
N1805 H1810 0.984 . S
N1805 H1811 0.985 . S
C1806 C1800 1.379 . S
C1806 C1803 1.363 . S
C1806 N1804 1.356 . S
C1807 C1801 1.350 1_655 S
C1807 C1802 1.379 . S
C1807 N1805 1.356 1_655 S
N1808 C1800 1.356 . S
N1808 H1814 0.984 . S
N1808 H1815 0.984 1_655 S
N1809 C1802 1.356 . S
N1809 H1812 0.984 . S
N1809 H1813 0.985 . S
H1810 N1805 0.984 . S
H1811 N1805 0.985 . S
H1812 N1809 0.984 . S
H1813 N1809 0.985 . S
H1814 N1808 0.984 . S
H1815 N1808 0.984 1_455 S
H1816 N1804 0.984 . S
H1817 N1804 0.985 . S
C1818 C1819 1.363 . S
C1818 C1824 1.379 . S
C1818 N1826 1.356 . S
C1819 C1818 1.363 . S
C1819 C1825 1.363 . S
C1820 C1821 1.363 . S
C1820 C1825 1.379 . S
C1820 N1827 1.356 . S
C1821 C1820 1.363 . S
C1821 C1824 1.363 . S
N1822 C1824 1.356 . S
N1822 H1834 0.984 . S
N1822 H1835 0.985 . S
N1823 C1825 1.356 . S
N1823 H1828 0.984 . S
N1823 H1829 0.985 . S
C1824 C1818 1.379 . S
C1824 C1821 1.363 . S
C1824 N1822 1.356 . S
C1825 C1819 1.363 . S
C1825 C1820 1.379 . S
C1825 N1823 1.356 . S
N1826 C1818 1.356 . S
N1826 H1832 0.984 . S
N1826 H1833 0.984 . S
N1827 C1820 1.356 . S
N1827 H1830 0.984 . S
N1827 H1831 0.985 . S
H1828 N1823 0.984 . S
H1829 N1823 0.985 . S
H1830 N1827 0.984 . S
H1831 N1827 0.985 . S
H1832 N1826 0.984 . S
H1833 N1826 0.984 . S
H1834 N1822 0.984 . S
H1835 N1822 0.985 . S
C1836 C1837 1.363 . S
C1836 C1842 1.379 . S
C1836 N1844 1.356 . S
C1837 C1836 1.363 . S
C1837 C1843 1.363 . S
C1838 C1839 1.363 . S
C1838 C1843 1.379 . S
C1838 N1845 1.356 . S
C1839 C1838 1.363 . S
C1839 C1842 1.363 . S
N1840 C1842 1.356 . S
N1840 H1852 0.984 . S
N1840 H1853 0.985 . S
N1841 C1843 1.356 1_565 S
N1841 H1846 0.984 . S
N1841 H1847 0.985 . S
C1842 C1836 1.379 . S
C1842 C1839 1.363 . S
C1842 N1840 1.356 . S
C1843 C1837 1.363 . S
C1843 C1838 1.379 . S
C1843 N1841 1.356 1_545 S
N1844 C1836 1.356 . S
N1844 H1850 0.984 . S
N1844 H1851 0.984 1_545 S
N1845 C1838 1.356 . S
N1845 H1848 0.984 . S
N1845 H1849 0.985 . S
H1846 N1841 0.984 . S
H1847 N1841 0.985 . S
H1848 N1845 0.984 . S
H1849 N1845 0.985 . S
H1850 N1844 0.984 . S
H1851 N1844 0.984 1_565 S
H1852 N1840 0.984 . S
H1853 N1840 0.985 . S
C1854 C1855 1.363 . S
C1854 C1860 1.379 . S
C1854 N1862 1.356 . S
C1855 C1854 1.363 . S
C1855 C1861 1.363 . S
C1856 C1857 1.363 . S
C1856 C1861 1.379 . S
C1856 N1863 1.356 . S
C1857 C1856 1.363 . S
C1857 C1860 1.363 . S
N1858 C1860 1.356 . S
N1858 H1870 0.984 . S
N1858 H1871 0.985 . S
N1859 C1861 1.356 . S
N1859 H1864 0.984 . S
N1859 H1865 0.985 . S
C1860 C1854 1.379 . S
C1860 C1857 1.363 . S
C1860 N1858 1.356 . S
C1861 C1855 1.363 . S
C1861 C1856 1.379 . S
C1861 N1859 1.356 . S
N1862 C1854 1.356 . S
N1862 H1868 0.984 . S
N1862 H1869 0.984 . S
N1863 C1856 1.356 . S
N1863 H1866 0.984 . S
N1863 H1867 0.985 . S
H1864 N1859 0.984 . S
H1865 N1859 0.985 . S
H1866 N1863 0.984 . S
H1867 N1863 0.985 . S
H1868 N1862 0.984 . S
H1869 N1862 0.984 . S
H1870 N1858 0.984 . S
H1871 N1858 0.985 . S
C1872 C1873 1.363 . S
C1872 C1878 1.379 . S
C1872 N1880 1.356 . S
C1873 C1872 1.363 . S
C1873 C1879 1.363 . S
C1874 C1875 1.363 . S
C1874 C1879 1.379 . S
C1874 N1881 1.356 . S
C1875 C1874 1.363 . S
C1875 C1878 1.363 . S
N1876 C1878 1.356 . S
N1876 H1888 0.984 . S
N1876 H1889 0.985 . S
N1877 C1879 1.356 . S
N1877 H1882 0.984 . S
N1877 H1883 0.985 . S
C1878 C1872 1.379 . S
C1878 C1875 1.363 . S
C1878 N1876 1.356 . S
C1879 C1873 1.363 . S
C1879 C1874 1.379 . S
C1879 N1877 1.356 . S
N1880 C1872 1.356 . S
N1880 H1886 0.984 . S
N1880 H1887 0.984 . S
N1881 C1874 1.356 . S
N1881 H1884 0.984 . S
N1881 H1885 0.985 . S
H1882 N1877 0.984 . S
H1883 N1877 0.985 . S
H1884 N1881 0.984 . S
H1885 N1881 0.985 . S
H1886 N1880 0.984 . S
H1887 N1880 0.984 . S
H1888 N1876 0.984 . S
H1889 N1876 0.985 . S
C1890 C1891 1.363 . S
C1890 C1896 1.379 . S
C1890 N1898 1.356 . S
C1891 C1890 1.363 . S
C1891 C1897 1.363 . S
C1892 C1893 1.363 . S
C1892 C1897 1.379 . S
C1892 N1899 1.356 . S
C1893 C1892 1.363 . S
C1893 C1896 1.363 . S
N1894 C1896 1.356 . S
N1894 H1906 0.984 . S
N1894 H1907 0.985 . S
N1895 C1897 1.356 . S
N1895 H1900 0.984 . S
N1895 H1901 0.985 . S
C1896 C1890 1.379 . S
C1896 C1893 1.363 . S
C1896 N1894 1.356 . S
C1897 C1891 1.363 . S
C1897 C1892 1.379 . S
C1897 N1895 1.356 . S
N1898 C1890 1.356 . S
N1898 H1904 0.984 . S
N1898 H1905 0.984 . S
N1899 C1892 1.356 . S
N1899 H1902 0.984 . S
N1899 H1903 0.985 . S
H1900 N1895 0.984 . S
H1901 N1895 0.985 . S
H1902 N1899 0.984 . S
H1903 N1899 0.985 . S
H1904 N1898 0.984 . S
H1905 N1898 0.984 . S
H1906 N1894 0.984 . S
H1907 N1894 0.985 . S
C1908 C1909 1.363 1_545 S
C1908 C1914 1.379 . S
C1908 N1916 1.356 . S
C1909 C1908 1.363 1_565 S
C1909 C1915 1.363 . S
C1910 C1911 1.363 . S
C1910 C1915 1.379 . S
C1910 N1917 1.356 . S
C1911 C1910 1.363 . S
C1911 C1914 1.363 1_565 S
N1912 C1914 1.356 . S
N1912 H1924 0.984 . S
N1912 H1925 0.985 . S
N1913 C1915 1.356 . S
N1913 H1918 0.984 . S
N1913 H1919 0.985 . S
C1914 C1908 1.379 . S
C1914 C1911 1.363 1_545 S
C1914 N1912 1.356 . S
C1915 C1909 1.363 . S
C1915 C1910 1.379 . S
C1915 N1913 1.356 . S
N1916 C1908 1.356 . S
N1916 H1922 0.984 . S
N1916 H1923 0.984 . S
N1917 C1910 1.356 . S
N1917 H1920 0.984 . S
N1917 H1921 0.985 . S
H1918 N1913 0.984 . S
H1919 N1913 0.985 . S
H1920 N1917 0.984 . S
H1921 N1917 0.985 . S
H1922 N1916 0.984 . S
H1923 N1916 0.984 . S
H1924 N1912 0.984 . S
H1925 N1912 0.985 . S
C1926 C1927 1.363 . S
C1926 C1932 1.379 . S
C1926 N1934 1.356 . S
C1927 C1926 1.363 . S
C1927 C1933 1.363 . S
C1928 C1929 1.363 . S
C1928 C1933 1.379 . S
C1928 N1935 1.356 . S
C1929 C1928 1.363 . S
C1929 C1932 1.363 . S
N1930 C1932 1.356 . S
N1930 H1942 0.984 1_455 S
N1930 H1943 0.985 . S
N1931 C1933 1.356 . S
N1931 H1936 0.984 . S
N1931 H1937 0.985 . S
C1932 C1926 1.379 . S
C1932 C1929 1.363 . S
C1932 N1930 1.356 . S
C1933 C1927 1.363 . S
C1933 C1928 1.379 . S
C1933 N1931 1.356 . S
N1934 C1926 1.356 . S
N1934 H1940 0.988 1_455 S
N1934 H1941 0.984 . S
N1935 C1928 1.356 . S
N1935 H1938 0.984 . S
N1935 H1939 0.985 . S
H1936 N1931 0.984 . S
H1937 N1931 0.985 . S
H1938 N1935 0.984 . S
H1939 N1935 0.985 . S
H1940 N1934 0.988 1_655 S
H1941 N1934 0.984 . S
H1942 N1930 0.984 1_655 S
H1943 N1930 0.985 . S
C1944 C1945 1.363 . S
C1944 C1950 1.379 . S
C1944 N1952 1.356 . S
C1945 C1944 1.363 . S
C1945 C1951 1.363 . S
C1946 C1947 1.363 . S
C1946 C1951 1.379 . S
C1946 N1953 1.356 . S
C1947 C1946 1.363 . S
C1947 C1950 1.363 . S
N1948 C1950 1.356 . S
N1948 H1960 0.984 . S
N1948 H1961 0.985 . S
N1949 C1951 1.356 . S
N1949 H1954 0.984 . S
N1949 H1955 0.985 . S
C1950 C1944 1.379 . S
C1950 C1947 1.363 . S
C1950 N1948 1.356 . S
C1951 C1945 1.363 . S
C1951 C1946 1.379 . S
C1951 N1949 1.356 . S
N1952 C1944 1.356 . S
N1952 H1958 0.984 . S
N1952 H1959 0.984 . S
N1953 C1946 1.356 . S
N1953 H1956 0.984 . S
N1953 H1957 0.985 . S
H1954 N1949 0.984 . S
H1955 N1949 0.985 . S
H1956 N1953 0.984 . S
H1957 N1953 0.985 . S
H1958 N1952 0.984 . S
H1959 N1952 0.984 . S
H1960 N1948 0.984 . S
H1961 N1948 0.985 . S
C1962 C1963 1.363 1_455 S
C1962 C1968 1.379 . S
C1962 N1970 1.356 . S
C1963 C1962 1.363 1_655 S
C1963 C1969 1.363 . S
C1964 C1965 1.363 . S
C1964 C1969 1.379 . S
C1964 N1971 1.356 . S
C1965 C1964 1.363 . S
C1965 C1968 1.363 1_655 S
N1966 C1968 1.356 . S
N1966 H1978 0.984 . S
N1966 H1979 0.985 . S
N1967 C1969 1.356 . S
N1967 H1972 0.984 . S
N1967 H1973 0.985 . S
C1968 C1962 1.379 . S
C1968 C1965 1.363 1_455 S
C1968 N1966 1.356 . S
C1969 C1963 1.363 . S
C1969 C1964 1.379 . S
C1969 N1967 1.356 . S
N1970 C1962 1.356 . S
N1970 H1976 0.984 . S
N1970 H1977 0.984 . S
N1971 C1964 1.356 . S
N1971 H1974 0.984 . S
N1971 H1975 0.985 . S
H1972 N1967 0.984 . S
H1973 N1967 0.985 . S
H1974 N1971 0.984 . S
H1975 N1971 0.985 . S
H1976 N1970 0.984 . S
H1977 N1970 0.984 . S
H1978 N1966 0.984 . S
H1979 N1966 0.985 . S
C1980 C1981 1.363 . S
C1980 C1986 1.379 . S
C1980 N1988 1.356 . S
C1981 C1980 1.363 . S
C1981 C1987 1.363 . S
C1982 C1983 1.363 . S
C1982 C1987 1.379 . S
C1982 N1989 1.356 . S
C1983 C1982 1.363 . S
C1983 C1986 1.363 . S
N1984 C1986 1.356 . S
N1984 H1996 0.984 . S
N1984 H1997 0.985 . S
N1985 C1987 1.356 . S
N1985 H1990 0.984 . S
N1985 H1991 0.985 . S
C1986 C1980 1.379 . S
C1986 C1983 1.363 . S
C1986 N1984 1.356 . S
C1987 C1981 1.363 . S
C1987 C1982 1.379 . S
C1987 N1985 1.356 . S
N1988 C1980 1.356 . S
N1988 H1994 0.984 . S
N1988 H1995 0.984 . S
N1989 C1982 1.356 . S
N1989 H1992 0.984 . S
N1989 H1993 0.985 . S
H1990 N1985 0.984 . S
H1991 N1985 0.985 . S
H1992 N1989 0.984 . S
H1993 N1989 0.985 . S
H1994 N1988 0.984 . S
H1995 N1988 0.984 . S
H1996 N1984 0.984 . S
H1997 N1984 0.985 . S
C1998 C1999 1.363 . S
C1998 C2004 1.379 . S
C1998 N2006 1.356 . S
C1999 C1998 1.363 . S
C1999 C2005 1.363 . S
C2000 C2001 1.363 . S
C2000 C2005 1.379 . S
C2000 N2007 1.356 1_545 S
C2001 C2000 1.363 . S
C2001 C2004 1.363 . S
N2002 C2004 1.356 . S
N2002 H2014 0.984 . S
N2002 H2015 0.985 . S
N2003 C2005 1.356 . S
N2003 H2008 0.984 . S
N2003 H2009 0.985 1_545 S
C2004 C1998 1.379 . S
C2004 C2001 1.363 . S
C2004 N2002 1.356 . S
C2005 C1999 1.363 . S
C2005 C2000 1.379 . S
C2005 N2003 1.356 . S
N2006 C1998 1.356 . S
N2006 H2012 0.984 . S
N2006 H2013 0.984 . S
N2007 C2000 1.356 1_565 S
N2007 H2010 0.984 . S
N2007 H2011 0.985 . S
H2008 N2003 0.984 . S
H2009 N2003 0.985 1_565 S
H2010 N2007 0.984 . S
H2011 N2007 0.985 . S
H2012 N2006 0.984 . S
H2013 N2006 0.984 . S
H2014 N2002 0.984 . S
H2015 N2002 0.985 . S
C2016 C2017 1.363 . S
C2016 C2022 1.379 . S
C2016 N2024 1.356 . S
C2017 C2016 1.363 . S
C2017 C2023 1.363 . S
C2018 C2019 1.363 . S
C2018 C2023 1.379 . S
C2018 N2025 1.356 . S
C2019 C2018 1.363 . S
C2019 C2022 1.363 . S
N2020 C2022 1.356 . S
N2020 H2032 0.984 . S
N2020 H2033 0.985 . S
N2021 C2023 1.356 . S
N2021 H2026 0.984 . S
N2021 H2027 0.985 . S
C2022 C2016 1.379 . S
C2022 C2019 1.363 . S
C2022 N2020 1.356 . S
C2023 C2017 1.363 . S
C2023 C2018 1.379 . S
C2023 N2021 1.356 . S
N2024 C2016 1.356 . S
N2024 H2030 0.984 . S
N2024 H2031 0.984 . S
N2025 C2018 1.356 . S
N2025 H2028 0.984 . S
N2025 H2029 0.985 . S
H2026 N2021 0.984 . S
H2027 N2021 0.985 . S
H2028 N2025 0.984 . S
H2029 N2025 0.985 . S
H2030 N2024 0.984 . S
H2031 N2024 0.984 . S
H2032 N2020 0.984 . S
H2033 N2020 0.985 . S
C2034 C2035 1.363 . S
C2034 C2040 1.379 . S
C2034 N2042 1.356 . S
C2035 C2034 1.363 . S
C2035 C2041 1.363 . S
C2036 C2037 1.363 . S
C2036 C2041 1.379 . S
C2036 N2043 1.356 . S
C2037 C2036 1.363 . S
C2037 C2040 1.363 . S
N2038 C2040 1.356 . S
N2038 H2050 0.984 . S
N2038 H2051 0.985 . S
N2039 C2041 1.356 . S
N2039 H2044 0.984 . S
N2039 H2045 0.985 . S
C2040 C2034 1.379 . S
C2040 C2037 1.363 . S
C2040 N2038 1.356 . S
C2041 C2035 1.363 . S
C2041 C2036 1.379 . S
C2041 N2039 1.356 . S
N2042 C2034 1.356 . S
N2042 H2048 0.984 . S
N2042 H2049 0.984 . S
N2043 C2036 1.356 . S
N2043 H2046 0.984 . S
N2043 H2047 0.985 . S
H2044 N2039 0.984 . S
H2045 N2039 0.985 . S
H2046 N2043 0.984 . S
H2047 N2043 0.985 . S
H2048 N2042 0.984 . S
H2049 N2042 0.984 . S
H2050 N2038 0.984 . S
H2051 N2038 0.985 . S
C2052 C2053 1.363 . S
C2052 C2058 1.379 . S
C2052 N2060 1.356 . S
C2053 C2052 1.363 . S
C2053 C2059 1.363 . S
C2054 C2055 1.363 . S
C2054 C2059 1.379 . S
C2054 N2061 1.356 . S
C2055 C2054 1.363 . S
C2055 C2058 1.363 . S
N2056 C2058 1.356 . S
N2056 H2068 0.984 . S
N2056 H2069 0.985 . S
N2057 C2059 1.356 . S
N2057 H2062 0.984 . S
N2057 H2063 0.985 . S
C2058 C2052 1.379 . S
C2058 C2055 1.363 . S
C2058 N2056 1.356 . S
C2059 C2053 1.363 . S
C2059 C2054 1.379 . S
C2059 N2057 1.356 . S
N2060 C2052 1.356 . S
N2060 H2066 0.984 . S
N2060 H2067 0.984 . S
N2061 C2054 1.356 . S
N2061 H2064 0.984 . S
N2061 H2065 0.985 . S
H2062 N2057 0.984 . S
H2063 N2057 0.985 . S
H2064 N2061 0.984 . S
H2065 N2061 0.985 . S
H2066 N2060 0.984 . S
H2067 N2060 0.984 . S
H2068 N2056 0.984 . S
H2069 N2056 0.985 . S
C2070 C2071 1.363 . S
C2070 C2076 1.379 . S
C2070 N2078 1.356 . S
C2071 C2070 1.363 . S
C2071 C2077 1.363 . S
C2072 C2073 1.363 . S
C2072 C2077 1.379 . S
C2072 N2079 1.356 . S
C2073 C2072 1.363 . S
C2073 C2076 1.363 . S
N2074 C2076 1.356 . S
N2074 H2086 0.984 . S
N2074 H2087 0.985 . S
N2075 C2077 1.356 . S
N2075 H2080 0.984 . S
N2075 H2081 0.985 . S
C2076 C2070 1.379 . S
C2076 C2073 1.363 . S
C2076 N2074 1.356 . S
C2077 C2071 1.363 . S
C2077 C2072 1.379 . S
C2077 N2075 1.356 . S
N2078 C2070 1.356 . S
N2078 H2084 0.984 . S
N2078 H2085 0.984 . S
N2079 C2072 1.356 . S
N2079 H2082 0.984 . S
N2079 H2083 0.985 . S
H2080 N2075 0.984 . S
H2081 N2075 0.985 . S
H2082 N2079 0.984 . S
H2083 N2079 0.985 . S
H2084 N2078 0.984 . S
H2085 N2078 0.984 . S
H2086 N2074 0.984 . S
H2087 N2074 0.985 . S
C2088 C2089 1.363 . S
C2088 C2094 1.379 . S
C2088 N2096 1.356 . S
C2089 C2088 1.363 . S
C2089 C2095 1.363 . S
C2090 C2091 1.363 . S
C2090 C2095 1.379 . S
C2090 N2097 1.356 . S
C2091 C2090 1.363 . S
C2091 C2094 1.363 . S
N2092 C2094 1.356 . S
N2092 H2104 0.984 . S
N2092 H2105 0.985 . S
N2093 C2095 1.356 . S
N2093 H2098 0.984 . S
N2093 H2099 0.985 . S
C2094 C2088 1.379 . S
C2094 C2091 1.363 . S
C2094 N2092 1.356 . S
C2095 C2089 1.363 . S
C2095 C2090 1.379 . S
C2095 N2093 1.356 . S
N2096 C2088 1.356 . S
N2096 H2102 0.984 . S
N2096 H2103 0.984 . S
N2097 C2090 1.356 . S
N2097 H2100 0.984 . S
N2097 H2101 0.985 . S
H2098 N2093 0.984 . S
H2099 N2093 0.985 . S
H2100 N2097 0.984 . S
H2101 N2097 0.985 . S
H2102 N2096 0.984 . S
H2103 N2096 0.984 . S
H2104 N2092 0.984 . S
H2105 N2092 0.985 . S
C2106 C2107 1.363 . S
C2106 C2112 1.379 . S
C2106 N2114 1.356 . S
C2107 C2106 1.363 . S
C2107 C2113 1.363 . S
C2108 C2109 1.363 . S
C2108 C2113 1.379 . S
C2108 N2115 1.356 . S
C2109 C2108 1.363 . S
C2109 C2112 1.363 . S
N2110 C2112 1.356 . S
N2110 H2122 0.984 . S
N2110 H2123 0.985 . S
N2111 C2113 1.356 . S
N2111 H2116 0.984 . S
N2111 H2117 0.985 . S
C2112 C2106 1.379 . S
C2112 C2109 1.363 . S
C2112 N2110 1.356 . S
C2113 C2107 1.363 . S
C2113 C2108 1.379 . S
C2113 N2111 1.356 . S
N2114 C2106 1.356 . S
N2114 H2120 0.984 . S
N2114 H2121 0.984 . S
N2115 C2108 1.356 . S
N2115 H2118 0.984 . S
N2115 H2119 0.985 . S
H2116 N2111 0.984 . S
H2117 N2111 0.985 . S
H2118 N2115 0.984 . S
H2119 N2115 0.985 . S
H2120 N2114 0.984 . S
H2121 N2114 0.984 . S
H2122 N2110 0.984 . S
H2123 N2110 0.985 . S
C2124 C2125 1.363 . S
C2124 C2130 1.379 . S
C2124 N2132 1.356 . S
C2125 C2124 1.363 . S
C2125 C2131 1.363 . S
C2126 C2127 1.363 . S
C2126 C2131 1.379 . S
C2126 N2133 1.356 . S
C2127 C2126 1.363 . S
C2127 C2130 1.363 . S
N2128 C2130 1.356 . S
N2128 H2140 0.984 . S
N2128 H2141 0.985 . S
N2129 C2131 1.356 . S
N2129 H2134 0.984 . S
N2129 H2135 0.985 . S
C2130 C2124 1.379 . S
C2130 C2127 1.363 . S
C2130 N2128 1.356 . S
C2131 C2125 1.363 . S
C2131 C2126 1.379 . S
C2131 N2129 1.356 . S
N2132 C2124 1.356 . S
N2132 H2138 0.984 . S
N2132 H2139 0.984 . S
N2133 C2126 1.356 . S
N2133 H2136 0.984 . S
N2133 H2137 0.985 . S
H2134 N2129 0.984 . S
H2135 N2129 0.985 . S
H2136 N2133 0.984 . S
H2137 N2133 0.985 . S
H2138 N2132 0.984 . S
H2139 N2132 0.984 . S
H2140 N2128 0.984 . S
H2141 N2128 0.985 . S
C2142 C2143 1.363 . S
C2142 C2148 1.379 . S
C2142 N2150 1.356 . S
C2143 C2142 1.363 . S
C2143 C2149 1.363 . S
C2144 C2145 1.363 . S
C2144 C2149 1.379 . S
C2144 N2151 1.356 . S
C2145 C2144 1.363 . S
C2145 C2148 1.363 . S
N2146 C2148 1.356 . S
N2146 H2158 0.984 . S
N2146 H2159 0.985 . S
N2147 C2149 1.356 . S
N2147 H2152 0.984 . S
N2147 H2153 0.985 . S
C2148 C2142 1.379 . S
C2148 C2145 1.363 . S
C2148 N2146 1.356 . S
C2149 C2143 1.363 . S
C2149 C2144 1.379 . S
C2149 N2147 1.356 . S
N2150 C2142 1.356 . S
N2150 H2156 0.984 . S
N2150 H2157 0.984 . S
N2151 C2144 1.356 . S
N2151 H2154 0.984 . S
N2151 H2155 0.985 . S
H2152 N2147 0.984 . S
H2153 N2147 0.985 . S
H2154 N2151 0.984 . S
H2155 N2151 0.985 . S
H2156 N2150 0.984 . S
H2157 N2150 0.984 . S
H2158 N2146 0.984 . S
H2159 N2146 0.985 . S
C2160 C2161 1.363 . S
C2160 C2166 1.379 . S
C2160 N2168 1.356 . S
C2161 C2160 1.363 . S
C2161 C2167 1.363 . S
C2162 C2163 1.363 . S
C2162 C2167 1.379 . S
C2162 N2169 1.356 . S
C2163 C2162 1.363 . S
C2163 C2166 1.363 . S
N2164 C2166 1.356 . S
N2164 H2176 0.984 . S
N2164 H2177 0.985 . S
N2165 C2167 1.356 . S
N2165 H2170 0.984 . S
N2165 H2171 0.985 . S
C2166 C2160 1.379 . S
C2166 C2163 1.363 . S
C2166 N2164 1.356 . S
C2167 C2161 1.363 . S
C2167 C2162 1.379 . S
C2167 N2165 1.356 . S
N2168 C2160 1.356 . S
N2168 H2174 0.984 . S
N2168 H2175 0.984 . S
N2169 C2162 1.356 . S
N2169 H2172 0.984 . S
N2169 H2173 0.985 . S
H2170 N2165 0.984 . S
H2171 N2165 0.985 . S
H2172 N2169 0.984 . S
H2173 N2169 0.985 . S
H2174 N2168 0.984 . S
H2175 N2168 0.984 . S
H2176 N2164 0.984 . S
H2177 N2164 0.985 . S
C2178 C2179 1.363 . S
C2178 C2184 1.379 . S
C2178 N2186 1.356 . S
C2179 C2178 1.363 . S
C2179 C2185 1.363 . S
C2180 C2181 1.363 . S
C2180 C2185 1.379 . S
C2180 N2187 1.356 . S
C2181 C2180 1.363 . S
C2181 C2184 1.363 . S
N2182 C2184 1.356 . S
N2182 H2194 0.984 . S
N2182 H2195 0.985 . S
N2183 C2185 1.356 . S
N2183 H2188 0.984 . S
N2183 H2189 0.985 . S
C2184 C2178 1.379 . S
C2184 C2181 1.363 . S
C2184 N2182 1.356 . S
C2185 C2179 1.363 . S
C2185 C2180 1.379 . S
C2185 N2183 1.356 . S
N2186 C2178 1.356 . S
N2186 H2192 0.984 . S
N2186 H2193 0.984 . S
N2187 C2180 1.356 . S
N2187 H2190 0.984 . S
N2187 H2191 0.985 . S
H2188 N2183 0.984 . S
H2189 N2183 0.985 . S
H2190 N2187 0.984 . S
H2191 N2187 0.985 . S
H2192 N2186 0.984 . S
H2193 N2186 0.984 . S
H2194 N2182 0.984 . S
H2195 N2182 0.985 . S
C2196 C2197 1.363 . S
C2196 C2202 1.379 . S
C2196 N2204 1.356 . S
C2197 C2196 1.363 . S
C2197 C2203 1.363 . S
C2198 C2199 1.363 . S
C2198 C2203 1.379 . S
C2198 N2205 1.356 . S
C2199 C2198 1.363 . S
C2199 C2202 1.363 . S
N2200 C2202 1.356 . S
N2200 H2212 0.984 . S
N2200 H2213 0.985 . S
N2201 C2203 1.356 . S
N2201 H2206 0.984 . S
N2201 H2207 0.985 . S
C2202 C2196 1.379 . S
C2202 C2199 1.363 . S
C2202 N2200 1.356 . S
C2203 C2197 1.363 . S
C2203 C2198 1.379 . S
C2203 N2201 1.356 . S
N2204 C2196 1.356 . S
N2204 H2210 0.984 . S
N2204 H2211 0.984 . S
N2205 C2198 1.356 . S
N2205 H2208 0.984 . S
N2205 H2209 0.985 . S
H2206 N2201 0.984 . S
H2207 N2201 0.985 . S
H2208 N2205 0.984 . S
H2209 N2205 0.985 . S
H2210 N2204 0.984 . S
H2211 N2204 0.984 . S
H2212 N2200 0.984 . S
H2213 N2200 0.985 . S
C2214 C2215 1.363 . S
C2214 C2220 1.379 . S
C2214 N2222 1.356 . S
C2215 C2214 1.363 . S
C2215 C2221 1.363 . S
C2216 C2217 1.363 . S
C2216 C2221 1.379 . S
C2216 N2223 1.356 . S
C2217 C2216 1.363 . S
C2217 C2220 1.363 . S
N2218 C2220 1.356 . S
N2218 H2230 0.984 . S
N2218 H2231 0.985 . S
N2219 C2221 1.356 . S
N2219 H2224 0.984 . S
N2219 H2225 0.985 . S
C2220 C2214 1.379 . S
C2220 C2217 1.363 . S
C2220 N2218 1.356 . S
C2221 C2215 1.363 . S
C2221 C2216 1.379 . S
C2221 N2219 1.356 . S
N2222 C2214 1.356 . S
N2222 H2228 0.984 . S
N2222 H2229 0.984 . S
N2223 C2216 1.356 . S
N2223 H2226 0.984 . S
N2223 H2227 0.985 . S
H2224 N2219 0.984 . S
H2225 N2219 0.985 . S
H2226 N2223 0.984 . S
H2227 N2223 0.985 . S
H2228 N2222 0.984 . S
H2229 N2222 0.984 . S
H2230 N2218 0.984 . S
H2231 N2218 0.985 . S
C1261 C781 1.610 . S
C1263 C1086 1.574 . S
C1279 C871 1.481 . S
C1281 C1106 1.486 . S
C1297 C751 1.547 . S
C1299 C1129 1.573 . S
C1315 C691 1.463 . S
C1317 C1109 1.494 . S
C1335 C1126 1.470 . S
C1333 C571 1.421 . S
C1351 C601 1.534 . S
C1353 C1089 1.521 . S
C1371 C1096 1.574 . S
C1369 C661 1.549 . S
C1389 C1116 1.486 . S
C1387 C541 1.469 . S
C1405 C631 1.605 . S
C1407 C1121 1.573 . S
C1423 C811 1.514 . S
C1425 C1101 1.494 . S
C1441 C841 1.458 . S
C1443 C1136 1.470 . S
C1461 C1081 1.521 . S
C1459 C721 1.476 . S
C1479 C1146 1.574 . S
C1477 C61 1.615 . S
C1495 C151 1.481 . S
C1497 C1166 1.486 . S
C1513 C31 1.547 1_565 S
C1515 C1189 1.573 . S
C1531 C1051 1.463 . S
C1533 C1169 1.494 . S
C1549 C931 1.421 . S
C1551 C1186 1.470 . S
C1567 C961 1.534 . S
C1569 C1149 1.521 . S
C1585 C1021 1.549 . S
C1587 C1156 1.574 . S
C1603 C901 1.469 . S
C1605 C1176 1.486 . S
C1623 C1181 1.573 . S
C1621 C991 1.605 . S
C1639 C91 1.514 1_565 S
C1641 C1161 1.494 . S
C1659 C1196 1.471 . S
C1657 C121 1.458 1_455 S
C1675 C1 1.476 . S
C1677 C1141 1.521 . S
C1695 C1206 1.574 . S
C1693 C421 1.610 . S
C1711 C511 1.481 . S
C1713 C1226 1.486 . S
C1731 C1249 1.573 . S
C1729 C391 1.547 . S
C1749 C1229 1.494 . S
C1747 C331 1.463 1_545 S
C1767 C1246 1.470 . S
C1765 C211 1.421 1_655 S
C1783 C241 1.534 . S
C1785 C1209 1.521 . S
C1801 C301 1.564 . S
C1803 C1216 1.574 . S
C1819 C181 1.468 . S
C1821 C1236 1.486 . S
C1839 C1241 1.573 . S
C1837 C271 1.605 1_545 S
C1855 C451 1.514 . S
C1857 C1221 1.494 . S
C1873 C481 1.458 . S
C1875 C1256 1.470 . S
C1891 C361 1.476 . S
C1893 C1201 1.521 . S
C1909 C920 1.316 . S
C1911 C1099 1.303 1_565 S
C1929 C1119 1.592 . S
C1927 C980 1.644 . S
C1945 C1040 1.455 . S
C1947 C1128 1.473 . S
C1963 C380 1.590 . S
C1965 C1108 1.592 . S
C1981 C440 1.500 . S
C1983 C1139 1.473 . S
C2001 C1088 1.303 1_545 S
C1999 C500 1.288 . S
C2017 C200 1.316 . S
C2019 C1159 1.303 . S
C2035 C260 1.644 . S
C2037 C1179 1.592 . S
C2053 C320 1.455 . S
C2055 C1188 1.473 . S
C2071 C740 1.590 . S
C2073 C1168 1.592 . S
C2091 C1199 1.473 . S
C2089 C800 1.500 . S
C2107 C860 1.288 . S
C2109 C1148 1.303 . S
C2125 C560 1.316 . S
C2127 C1219 1.303 . S
C2143 C620 1.644 . S
C2145 C1239 1.592 . S
C2163 C1248 1.473 . S
C2161 C680 1.455 . S
C2179 C20 1.590 . S
C2181 C1228 1.592 . S
C2197 C80 1.500 . S
C2199 C1259 1.473 . S
C2215 C140 1.288 . S
C2217 C1208 1.303 . S
