# Generated by pormake.
# Topology ctn, (3,4)-cn, num edge types: 1
# Building blocks:
#     Node 0, Type 0, BuildingBlock: CUQRIR_clean_linker_1, # of connection points: 3
#     Node 1, Type 0, BuildingBlock: CUQRIR_clean_linker_1, # of connection points: 3
#     Node 2, Type 0, BuildingBlock: CUQRIR_clean_linker_1, # of connection points: 3
#     Node 3, Type 0, BuildingBlock: CUQRIR_clean_linker_1, # of connection points: 3
#     Node 4, Type 0, BuildingBlock: CUQRIR_clean_linker_1, # of connection points: 3
#     Node 5, Type 0, BuildingBlock: CUQRIR_clean_linker_1, # of connection points: 3
#     Node 6, Type 0, BuildingBlock: CUQRIR_clean_linker_1, # of connection points: 3
#     Node 7, Type 0, BuildingBlock: CUQRIR_clean_linker_1, # of connection points: 3
#     Node 8, Type 0, BuildingBlock: CUQRIR_clean_linker_1, # of connection points: 3
#     Node 9, Type 0, BuildingBlock: CUQRIR_clean_linker_1, # of connection points: 3
#     Node 10, Type 0, BuildingBlock: CUQRIR_clean_linker_1, # of connection points: 3
#     Node 11, Type 0, BuildingBlock: CUQRIR_clean_linker_1, # of connection points: 3
#     Node 12, Type 0, BuildingBlock: CUQRIR_clean_linker_1, # of connection points: 3
#     Node 13, Type 0, BuildingBlock: CUQRIR_clean_linker_1, # of connection points: 3
#     Node 14, Type 0, BuildingBlock: CUQRIR_clean_linker_1, # of connection points: 3
#     Node 15, Type 0, BuildingBlock: CUQRIR_clean_linker_1, # of connection points: 3
#     Node 16, Type 1, BuildingBlock: QUQFOY_clean_sbu_1, # of connection points: 4
#     Node 17, Type 1, BuildingBlock: QUQFOY_clean_sbu_1, # of connection points: 4
#     Node 18, Type 1, BuildingBlock: QUQFOY_clean_sbu_1, # of connection points: 4
#     Node 19, Type 1, BuildingBlock: QUQFOY_clean_sbu_1, # of connection points: 4
#     Node 20, Type 1, BuildingBlock: QUQFOY_clean_sbu_1, # of connection points: 4
#     Node 21, Type 1, BuildingBlock: QUQFOY_clean_sbu_1, # of connection points: 4
#     Node 22, Type 1, BuildingBlock: QUQFOY_clean_sbu_1, # of connection points: 4
#     Node 23, Type 1, BuildingBlock: QUQFOY_clean_sbu_1, # of connection points: 4
#     Node 24, Type 1, BuildingBlock: QUQFOY_clean_sbu_1, # of connection points: 4
#     Node 25, Type 1, BuildingBlock: QUQFOY_clean_sbu_1, # of connection points: 4
#     Node 26, Type 1, BuildingBlock: QUQFOY_clean_sbu_1, # of connection points: 4
#     Node 27, Type 1, BuildingBlock: QUQFOY_clean_sbu_1, # of connection points: 4
#     Edge 28, Type (0, 1), BuildingBlock: EZIPEK_clean_linker_0, # of connection points: 2
#     Edge 29, Type (0, 1), BuildingBlock: EZIPEK_clean_linker_0, # of connection points: 2
#     Edge 30, Type (0, 1), BuildingBlock: EZIPEK_clean_linker_0, # of connection points: 2
#     Edge 31, Type (0, 1), BuildingBlock: EZIPEK_clean_linker_0, # of connection points: 2
#     Edge 32, Type (0, 1), BuildingBlock: EZIPEK_clean_linker_0, # of connection points: 2
#     Edge 33, Type (0, 1), BuildingBlock: EZIPEK_clean_linker_0, # of connection points: 2
#     Edge 34, Type (0, 1), BuildingBlock: EZIPEK_clean_linker_0, # of connection points: 2
#     Edge 35, Type (0, 1), BuildingBlock: EZIPEK_clean_linker_0, # of connection points: 2
#     Edge 36, Type (0, 1), BuildingBlock: EZIPEK_clean_linker_0, # of connection points: 2
#     Edge 37, Type (0, 1), BuildingBlock: EZIPEK_clean_linker_0, # of connection points: 2
#     Edge 38, Type (0, 1), BuildingBlock: EZIPEK_clean_linker_0, # of connection points: 2
#     Edge 39, Type (0, 1), BuildingBlock: EZIPEK_clean_linker_0, # of connection points: 2
#     Edge 40, Type (0, 1), BuildingBlock: EZIPEK_clean_linker_0, # of connection points: 2
#     Edge 41, Type (0, 1), BuildingBlock: EZIPEK_clean_linker_0, # of connection points: 2
#     Edge 42, Type (0, 1), BuildingBlock: EZIPEK_clean_linker_0, # of connection points: 2
#     Edge 43, Type (0, 1), BuildingBlock: EZIPEK_clean_linker_0, # of connection points: 2
#     Edge 44, Type (0, 1), BuildingBlock: EZIPEK_clean_linker_0, # of connection points: 2
#     Edge 45, Type (0, 1), BuildingBlock: EZIPEK_clean_linker_0, # of connection points: 2
#     Edge 46, Type (0, 1), BuildingBlock: EZIPEK_clean_linker_0, # of connection points: 2
#     Edge 47, Type (0, 1), BuildingBlock: EZIPEK_clean_linker_0, # of connection points: 2
#     Edge 48, Type (0, 1), BuildingBlock: EZIPEK_clean_linker_0, # of connection points: 2
#     Edge 49, Type (0, 1), BuildingBlock: EZIPEK_clean_linker_0, # of connection points: 2
#     Edge 50, Type (0, 1), BuildingBlock: EZIPEK_clean_linker_0, # of connection points: 2
#     Edge 51, Type (0, 1), BuildingBlock: EZIPEK_clean_linker_0, # of connection points: 2
#     Edge 52, Type (0, 1), BuildingBlock: EZIPEK_clean_linker_0, # of connection points: 2
#     Edge 53, Type (0, 1), BuildingBlock: EZIPEK_clean_linker_0, # of connection points: 2
#     Edge 54, Type (0, 1), BuildingBlock: EZIPEK_clean_linker_0, # of connection points: 2
#     Edge 55, Type (0, 1), BuildingBlock: EZIPEK_clean_linker_0, # of connection points: 2
#     Edge 56, Type (0, 1), BuildingBlock: EZIPEK_clean_linker_0, # of connection points: 2
#     Edge 57, Type (0, 1), BuildingBlock: EZIPEK_clean_linker_0, # of connection points: 2
#     Edge 58, Type (0, 1), BuildingBlock: EZIPEK_clean_linker_0, # of connection points: 2
#     Edge 59, Type (0, 1), BuildingBlock: EZIPEK_clean_linker_0, # of connection points: 2
#     Edge 60, Type (0, 1), BuildingBlock: EZIPEK_clean_linker_0, # of connection points: 2
#     Edge 61, Type (0, 1), BuildingBlock: EZIPEK_clean_linker_0, # of connection points: 2
#     Edge 62, Type (0, 1), BuildingBlock: EZIPEK_clean_linker_0, # of connection points: 2
#     Edge 63, Type (0, 1), BuildingBlock: EZIPEK_clean_linker_0, # of connection points: 2
#     Edge 64, Type (0, 1), BuildingBlock: EZIPEK_clean_linker_0, # of connection points: 2
#     Edge 65, Type (0, 1), BuildingBlock: EZIPEK_clean_linker_0, # of connection points: 2
#     Edge 66, Type (0, 1), BuildingBlock: EZIPEK_clean_linker_0, # of connection points: 2
#     Edge 67, Type (0, 1), BuildingBlock: EZIPEK_clean_linker_0, # of connection points: 2
#     Edge 68, Type (0, 1), BuildingBlock: EZIPEK_clean_linker_0, # of connection points: 2
#     Edge 69, Type (0, 1), BuildingBlock: EZIPEK_clean_linker_0, # of connection points: 2
#     Edge 70, Type (0, 1), BuildingBlock: EZIPEK_clean_linker_0, # of connection points: 2
#     Edge 71, Type (0, 1), BuildingBlock: EZIPEK_clean_linker_0, # of connection points: 2
#     Edge 72, Type (0, 1), BuildingBlock: EZIPEK_clean_linker_0, # of connection points: 2
#     Edge 73, Type (0, 1), BuildingBlock: EZIPEK_clean_linker_0, # of connection points: 2
#     Edge 74, Type (0, 1), BuildingBlock: EZIPEK_clean_linker_0, # of connection points: 2
#     Edge 75, Type (0, 1), BuildingBlock: EZIPEK_clean_linker_0, # of connection points: 2
# Relax obj value: 0.113
# Max RMSD: 0.207
# Mean RMSD: 0.152
data_MOF--net-ctn--node1-QUQFOY_clean_sbu_1--node2-CUQRIR_clean_linker_1--edge1-EZIPEK_clean_linker_0
_symmetry_space_group_name_H-M    P1
_symmetry_Int_Tables_number       1
_symmetry_cell_setting            triclinic
loop_
_symmetry_equiv_pos_as_xyz
'x, y, z'
_cell_length_a     37.252323
_cell_length_b     34.207831
_cell_length_c     35.485703
_cell_angle_alpha  101.37996
_cell_angle_beta   88.601621
_cell_angle_gamma 99.076783
loop_
_atom_site_label
_atom_site_type_symbol
_atom_site_fract_x
_atom_site_fract_y
_atom_site_fract_z
_atom_type_partial_charge
C0 C 0.03553 0.04763 0.11548 0.0
N1 N 0.04664 0.05343 0.08 0.0
N2 N 0.00475 0.06317 0.12538 0.0
C3 C 0.0533 0.02437 0.13954 0.0
C4 C 0.99723 0.07884 0.09507 0.0
N5 N 0.02274 0.07344 0.06742 0.0
C6 C 0.96586 0.10133 0.0934 0.0
H7 H 0.03903 0.99275 0.13447 0.0
H8 H 0.05106 0.03745 0.17055 0.0
H9 H 0.08236 0.02425 0.13196 0.0
H10 H 0.97443 0.13359 0.10659 0.0
H11 H 0.94234 0.08939 0.10981 0.0
H12 H 0.95739 0.09935 0.06323 0.0
C13 C 0.27712 0.75279 0.24216 0.0
N14 N 0.29038 0.73479 0.26827 0.0
N15 N 0.30092 0.78511 0.23634 0.0
C16 C 0.24183 0.73738 0.2206 0.0
C17 C 0.32928 0.78631 0.25991 0.0
N18 N 0.32299 0.75557 0.27938 0.0
C19 C 0.36389 0.81587 0.26215 0.0
H20 H 0.24639 0.71338 0.19575 0.0
H21 H 0.23167 0.76188 0.20968 0.0
H22 H 0.22092 0.72405 0.23916 0.0
H23 H 0.37521 0.82323 0.2918 0.0
H24 H 0.35934 0.84394 0.25308 0.0
H25 H 0.38413 0.80199 0.24266 0.0
C26 C 0.9684 0.52323 0.09603 0.0
N27 N 0.98585 0.49105 0.09502 0.0
N28 N 0.9414 0.51435 0.06953 0.0
C29 C 0.97733 0.56313 0.12319 0.0
C30 C 0.94282 0.47578 0.05229 0.0
N31 N 0.9702 0.46151 0.06717 0.0
C32 C 0.91813 0.45264 0.01981 0.0
H33 H 0.97078 0.58798 0.10995 0.0
H34 H 0.00645 0.56911 0.13169 0.0
H35 H 0.96064 0.56238 0.14944 0.0
H36 H 0.92859 0.46111 0.99251 0.0
H37 H 0.89036 0.46055 0.02417 0.0
H38 H 0.91679 0.41959 0.01731 0.0
C39 C 0.70005 0.74863 0.24255 0.0
N40 N 0.7302 0.77367 0.23512 0.0
N41 N 0.68581 0.76359 0.27687 0.0
C42 C 0.68338 0.71119 0.21527 0.0
C43 C 0.70839 0.79828 0.2902 0.0
N44 N 0.73505 0.80478 0.26466 0.0
C45 C 0.70287 0.8268 0.32725 0.0
H46 H 0.6723 0.71993 0.18993 0.0
H47 H 0.66122 0.69346 0.22913 0.0
H48 H 0.70453 0.69225 0.20479 0.0
H49 H 0.70177 0.81054 0.35148 0.0
H50 H 0.67633 0.83741 0.32608 0.0
H51 H 0.7248 0.85323 0.33298 0.0
C52 C 0.02944 0.99757 0.52801 0.0
N53 N 0.06404 0.99773 0.53927 0.0
N54 N 0.02901 0.01488 0.49707 0.0
C55 C 0.99594 0.97773 0.54551 0.0
C56 C 0.06447 0.02598 0.48972 0.0
N57 N 0.08609 0.01573 0.51526 0.0
C58 C 0.07804 0.04869 0.45865 0.0
H59 H 0.99132 0.94497 0.53285 0.0
H60 H 0.97164 0.99067 0.53961 0.0
H61 H 0.99952 0.98131 0.57701 0.0
H62 H 0.08385 0.0814 0.47134 0.0
H63 H 0.05749 0.04403 0.43543 0.0
H64 H 0.10363 0.03906 0.44629 0.0
C65 C 0.17536 0.7323 0.83384 0.0
N66 N 0.20301 0.72164 0.85148 0.0
N67 N 0.17248 0.7131 0.79686 0.0
C68 C 0.15316 0.76437 0.85165 0.0
C69 C 0.19879 0.68964 0.79238 0.0
N70 N 0.21763 0.69471 0.82568 0.0
C71 C 0.20498 0.66055 0.75608 0.0
H72 H 0.12428 0.75525 0.84267 0.0
H73 H 0.16353 0.79264 0.84138 0.0
H74 H 0.15471 0.77048 0.88349 0.0
H75 H 0.19714 0.67148 0.73049 0.0
H76 H 0.18782 0.63104 0.75656 0.0
H77 H 0.23387 0.65601 0.75389 0.0
C78 C 0.94756 0.5435 0.45459 0.0
N79 N 0.97405 0.57628 0.45937 0.0
N80 N 0.91763 0.55219 0.47473 0.0
C81 C 0.95069 0.50318 0.42965 0.0
C82 C 0.92619 0.59148 0.49122 0.0
N83 N 0.96066 0.60622 0.48257 0.0
C84 C 0.90213 0.61423 0.51944 0.0
H85 H 0.93268 0.47837 0.43978 0.0
H86 H 0.97925 0.49749 0.42898 0.0
H87 H 0.94227 0.50327 0.3999 0.0
H88 H 0.90171 0.60323 0.54687 0.0
H89 H 0.87384 0.60873 0.50848 0.0
H90 H 0.9118 0.64723 0.52506 0.0
C91 C 0.79302 0.82932 0.85567 0.0
N92 N 0.81839 0.80483 0.84488 0.0
N93 N 0.78902 0.85137 0.82889 0.0
C94 C 0.77116 0.83086 0.89198 0.0
C95 C 0.81299 0.84 0.80133 0.0
N96 N 0.83128 0.81189 0.81083 0.0
C97 C 0.81981 0.85802 0.76596 0.0
H98 H 0.74526 0.80967 0.88582 0.0
H99 H 0.76449 0.86163 0.90245 0.0
H100 H 0.78611 0.82184 0.91472 0.0
H101 H 0.84058 0.8855 0.77275 0.0
H102 H 0.79459 0.86694 0.75663 0.0
H103 H 0.83004 0.83641 0.74216 0.0
C104 C 0.28074 0.31646 0.34007 0.0
N105 N 0.31084 0.29865 0.33146 0.0
N106 N 0.27861 0.34426 0.31817 0.0
C107 C 0.25384 0.30724 0.3708 0.0
C108 C 0.30838 0.34281 0.29559 0.0
N109 N 0.32857 0.31571 0.30388 0.0
C110 C 0.31892 0.36979 0.26692 0.0
H111 H 0.2321 0.32629 0.37407 0.0
H112 H 0.26838 0.31165 0.39861 0.0
H113 H 0.24078 0.27526 0.36366 0.0
H114 H 0.33272 0.39957 0.28236 0.0
H115 H 0.29482 0.37513 0.25224 0.0
H116 H 0.33755 0.35677 0.24479 0.0
C117 C 0.47958 0.0363 0.60052 0.0
N118 N 0.49511 0.00268 0.59912 0.0
N119 N 0.45284 0.02956 0.5739 0.0
C120 C 0.48973 0.07539 0.62856 0.0
C121 C 0.45247 0.99079 0.55614 0.0
N122 N 0.47848 0.97432 0.57088 0.0
C123 C 0.42718 0.96947 0.52351 0.0
H124 H 0.47191 0.07528 0.65406 0.0
H125 H 0.48558 0.10128 0.61551 0.0
H126 H 0.51842 0.07915 0.63816 0.0
H127 H 0.4382 0.97795 0.49641 0.0
H128 H 0.40003 0.97902 0.52814 0.0
H129 H 0.42428 0.93621 0.52048 0.0
C130 C 0.17951 0.24027 0.72885 0.0
N131 N 0.20859 0.26746 0.72274 0.0
N132 N 0.1648 0.25247 0.76363 0.0
C133 C 0.1647 0.20304 0.70024 0.0
C134 C 0.18585 0.28776 0.7785 0.0
N135 N 0.21217 0.29722 0.75357 0.0
C136 C 0.17988 0.31324 0.81719 0.0
H137 H 0.15563 0.21201 0.67406 0.0
H138 H 0.14157 0.18473 0.71218 0.0
H139 H 0.18652 0.18453 0.6915 0.0
H140 H 0.18531 0.29688 0.83999 0.0
H141 H 0.15104 0.31792 0.81976 0.0
H142 H 0.19775 0.34294 0.82213 0.0
C143 C 0.76805 0.26392 0.75152 0.0
N144 N 0.78141 0.24356 0.77557 0.0
N145 N 0.79293 0.29538 0.74562 0.0
C146 C 0.73173 0.25144 0.73159 0.0
C147 C 0.82199 0.29357 0.76707 0.0
N148 N 0.81503 0.26196 0.78533 0.0
C149 C 0.85778 0.32094 0.76819 0.0
H150 H 0.73479 0.22969 0.70448 0.0
H151 H 0.72163 0.27792 0.72438 0.0
H152 H 0.71155 0.2364 0.74977 0.0
H153 H 0.85438 0.35002 0.76042 0.0
H154 H 0.87634 0.30599 0.74719 0.0
H155 H 0.8704 0.32659 0.79716 0.0
C156 C 0.53768 0.5438 0.60519 0.0
N157 N 0.55174 0.55409 0.57221 0.0
N158 N 0.50522 0.55622 0.61286 0.0
C159 C 0.55423 0.51877 0.62842 0.0
C160 C 0.49967 0.5746 0.58375 0.0
N161 N 0.52794 0.57373 0.55893 0.0
C162 C 0.46744 0.59541 0.58078 0.0
H163 H 0.54215 0.48662 0.61893 0.0
H164 H 0.54819 0.52787 0.65939 0.0
H165 H 0.5841 0.52172 0.62438 0.0
H166 H 0.47353 0.62699 0.5969 0.0
H167 H 0.44297 0.58028 0.59363 0.0
H168 H 0.46166 0.59595 0.55038 0.0
C169 C 0.52059 0.49584 0.00569 0.0
N170 N 0.55293 0.49817 0.02359 0.0
N171 N 0.52435 0.51711 0.9772 0.0
C172 C 0.48598 0.46925 0.01343 0.0
C173 C 0.55996 0.53306 0.97841 0.0
N174 N 0.57767 0.52174 0.00654 0.0
C175 C 0.57737 0.56102 0.95282 0.0
H176 H 0.48347 0.44028 0.99238 0.0
H177 H 0.46179 0.48329 0.00989 0.0
H178 H 0.48595 0.46286 0.04289 0.0
H179 H 0.57625 0.59267 0.96722 0.0
H180 H 0.563 0.55579 0.92492 0.0
H181 H 0.60629 0.55753 0.94756 0.0
C182 C 0.68643 0.24271 0.34576 0.0
N183 N 0.70883 0.22691 0.36588 0.0
N184 N 0.67514 0.21657 0.31324 0.0
C185 C 0.67419 0.28315 0.3586 0.0
C186 C 0.69155 0.18418 0.31382 0.0
N187 N 0.71281 0.19057 0.34572 0.0
C188 C 0.68653 0.14648 0.28329 0.0
H189 H 0.64809 0.27893 0.37413 0.0
H190 H 0.66954 0.29658 0.33346 0.0
H191 H 0.69446 0.3043 0.37817 0.0
H192 H 0.70383 0.15174 0.25832 0.0
H193 H 0.65785 0.13916 0.27317 0.0
H194 H 0.69418 0.12061 0.29412 0.0
C195 C 0.43807 0.04545 0.95491 0.0
N196 N 0.46914 0.0726 0.95991 0.0
N197 N 0.41142 0.05965 0.97749 0.0
C198 C 0.43369 0.00435 0.92914 0.0
C199 C 0.42652 0.09704 0.99504 0.0
N200 N 0.46165 0.1052 0.98464 0.0
C201 C 0.40801 0.12381 0.02575 0.0
H202 H 0.40682 0.99752 0.91453 0.0
H203 H 0.43457 0.98118 0.94686 0.0
H204 H 0.45527 0.00213 0.90709 0.0
H205 H 0.41738 0.12106 0.05442 0.0
H206 H 0.37803 0.11509 0.02394 0.0
H207 H 0.41524 0.15585 0.02305 0.0
O208 O 0.2458 0.84137 0.01519 0.0
Cd209 Cd 0.26054 0.88816 0.05987 0.0
Cd210 Cd 0.20763 0.92393 0.01919 0.0
O211 O 0.20643 0.86697 0.98479 0.0
O212 O 0.29655 0.86514 0.08615 0.0
O213 O 0.24596 0.88166 0.11393 0.0
C214 C 0.27521 0.86614 0.11519 0.0
C215 C 0.15623 0.95639 0.02845 0.0
C216 C 0.22408 0.83859 0.98756 0.0
C217 C 0.28656 0.96249 0.02631 0.0
O218 O 0.25439 0.96357 0.01616 0.0
O219 O 0.29359 0.93601 0.04439 0.0
O220 O 0.17167 0.9502 0.99544 0.0
O221 O 0.16848 0.94215 0.05582 0.0
O222 O 0.19667 0.57376 0.31882 0.0
Cd223 Cd 0.15974 0.52447 0.32719 0.0
Cd224 Cd 0.12223 0.55043 0.27251 0.0
O225 O 0.17092 0.58718 0.26838 0.0
O226 O 0.19183 0.49607 0.35292 0.0
O227 O 0.16264 0.46761 0.29907 0.0
C228 C 0.18543 0.46534 0.32508 0.0
C229 C 0.0883 0.51967 0.21677 0.0
C230 C 0.19693 0.59396 0.29242 0.0
C231 C 0.09108 0.55591 0.35283 0.0
O232 O 0.09169 0.56707 0.32068 0.0
O233 O 0.11467 0.53546 0.36073 0.0
O234 O 0.09159 0.55791 0.22985 0.0
O235 O 0.10513 0.49837 0.23457 0.0
O236 O 0.79245 0.71031 0.97779 0.0
Cd237 Cd 0.77685 0.68782 0.02776 0.0
Cd238 Cd 0.79554 0.62056 0.98116 0.0
O239 O 0.80799 0.65598 0.94025 0.0
O240 O 0.76275 0.73556 0.0633 0.0
O241 O 0.80653 0.70443 0.0769 0.0
C242 C 0.78667 0.73228 0.0876 0.0
C243 C 0.84035 0.59724 0.01081 0.0
C244 C 0.80431 0.69298 0.94583 0.0
C245 C 0.72075 0.61033 0.01134 0.0
O246 O 0.74227 0.59441 0.9868 0.0
O247 O 0.73051 0.6457 0.03068 0.0
O248 O 0.82783 0.57882 0.97728 0.0
O249 O 0.82807 0.62968 0.02721 0.0
O250 O 0.92763 0.01995 0.36248 0.0
Cd251 Cd 0.90047 0.01315 0.31147 0.0
Cd252 Cd 0.84608 0.03019 0.36138 0.0
O253 O 0.88349 0.03239 0.40392 0.0
O254 O 0.93931 0.00944 0.27269 0.0
O255 O 0.90399 0.05698 0.28067 0.0
C256 C 0.92964 0.04017 0.26222 0.0
C257 C 0.81429 0.08352 0.36095 0.0
C258 C 0.91622 0.02731 0.39676 0.0
C259 C 0.83514 0.95043 0.30536 0.0
O260 O 0.822 0.9743 0.33221 0.0
O261 O 0.86653 0.96001 0.29234 0.0
O262 O 0.8041 0.05701 0.38193 0.0
O263 O 0.84383 0.08059 0.34144 0.0
O264 O 0.28761 0.21664 0.46587 0.0
Cd265 Cd 0.26508 0.19586 0.51333 0.0
Cd266 Cd 0.30438 0.13455 0.48962 0.0
O267 O 0.31407 0.16363 0.44228 0.0
O268 O 0.24796 0.24152 0.5494 0.0
O269 O 0.2897 0.20858 0.56503 0.0
C270 C 0.2695 0.23624 0.57526 0.0
C271 C 0.35286 0.11536 0.5181 0.0
C272 C 0.30554 0.19762 0.43941 0.0
C273 C 0.22348 0.11352 0.50528 0.0
O274 O 0.25426 0.1017 0.50051 0.0
O275 O 0.22112 0.15036 0.50648 0.0
O276 O 0.33888 0.0949 0.48595 0.0
O277 O 0.34056 0.1481 0.53341 0.0
O278 O 0.41451 0.48695 0.83458 0.0
Cd279 Cd 0.38748 0.48838 0.7857 0.0
Cd280 Cd 0.34316 0.52584 0.83555 0.0
O281 O 0.38997 0.53616 0.86934 0.0
O282 O 0.4227 0.48031 0.74365 0.0
O283 O 0.39737 0.53595 0.75996 0.0
C284 C 0.41898 0.51555 0.73809 0.0
C285 C 0.31066 0.57895 0.83783 0.0
C286 C 0.41418 0.51335 0.86508 0.0
C287 C 0.31673 0.44114 0.78984 0.0
O288 O 0.31225 0.46841 0.8189 0.0
O289 O 0.34491 0.44441 0.76949 0.0
O290 O 0.30847 0.55892 0.8652 0.0
O291 O 0.33213 0.56964 0.80946 0.0
O292 O 0.75437 0.35353 0.52585 0.0
Cd293 Cd 0.76031 0.40279 0.57048 0.0
Cd294 Cd 0.71224 0.42287 0.51894 0.0
O295 O 0.70398 0.3618 0.49879 0.0
O296 O 0.79641 0.38541 0.60166 0.0
O297 O 0.74126 0.39364 0.62254 0.0
C298 C 0.77196 0.38232 0.62751 0.0
C299 C 0.66489 0.46107 0.52726 0.0
C300 C 0.72877 0.34085 0.50147 0.0
C301 C 0.78886 0.46378 0.52546 0.0
O302 O 0.76163 0.45018 0.50339 0.0
O303 O 0.78943 0.45526 0.5587 0.0
O304 O 0.67556 0.44625 0.49336 0.0
O305 O 0.68057 0.45364 0.55659 0.0
O306 O 0.7005 0.08084 0.83174 0.0
Cd307 Cd 0.66883 0.02983 0.84275 0.0
Cd308 Cd 0.62309 0.04373 0.7839 0.0
O309 O 0.66774 0.08822 0.78302 0.0
O310 O 0.70155 0.00227 0.86825 0.0
O311 O 0.6765 0.97635 0.81084 0.0
C312 C 0.6981 0.97395 0.83799 0.0
C313 C 0.59066 0.01939 0.72567 0.0
C314 C 0.69527 0.09942 0.80528 0.0
C315 C 0.59495 0.04664 0.8667 0.0
O316 O 0.59015 0.04908 0.83192 0.0
O317 O 0.62464 0.03842 0.87759 0.0
O318 O 0.58991 0.05509 0.74525 0.0
O319 O 0.61031 0.99695 0.73852 0.0
O320 O 0.96602 0.28022 0.98479 0.0
Cd321 Cd 0.95968 0.2222 0.95209 0.0
Cd322 Cd 0.00081 0.25666 0.90491 0.0
O323 O 0.0143 0.30137 0.95309 0.0
O324 O 0.95629 0.18141 0.98573 0.0
O325 O 0.00294 0.19322 0.94719 0.0
C326 C 0.98782 0.17418 0.97288 0.0
C327 C 0.04625 0.23962 0.8613 0.0
C328 C 0.9923 0.30767 0.98075 0.0
C329 C 0.92148 0.23103 0.88439 0.0
O330 O 0.95091 0.25386 0.87968 0.0
O331 O 0.91931 0.20979 0.91025 0.0
O332 O 0.03507 0.27394 0.8655 0.0
O333 O 0.03193 0.21461 0.8823 0.0
O334 O 0.47344 0.79148 0.48729 0.0
Cd335 Cd 0.46833 0.7336 0.45468 0.0
Cd336 Cd 0.50971 0.76792 0.40617 0.0
O337 O 0.51949 0.81462 0.45367 0.0
O338 O 0.46552 0.69295 0.4884 0.0
O339 O 0.51188 0.70508 0.4496 0.0
C340 C 0.49692 0.68572 0.47512 0.0
C341 C 0.55884 0.75381 0.36643 0.0
C342 C 0.4982 0.82002 0.48212 0.0
C343 C 0.43066 0.73749 0.38435 0.0
O344 O 0.46017 0.75942 0.37805 0.0
O345 O 0.42799 0.71985 0.41289 0.0
O346 O 0.54511 0.78635 0.36801 0.0
O347 O 0.54467 0.72881 0.38751 0.0
O348 O 0.97223 0.77314 0.7032 0.0
Cd349 Cd 0.02133 0.77455 0.67365 0.0
Cd350 Cd 0.99014 0.82544 0.64174 0.0
O351 O 0.95707 0.82871 0.68999 0.0
O352 O 0.04005 0.73021 0.69104 0.0
O353 O 0.06711 0.79383 0.70488 0.0
C354 C 0.06631 0.75655 0.70736 0.0
C355 C 0.0281 0.87969 0.62446 0.0
C356 C 0.95196 0.8003 0.70884 0.0
C357 C 0.00176 0.75086 0.5915 0.0
O358 O 0.97858 0.77478 0.59836 0.0
O359 O 0.02639 0.75284 0.61595 0.0
O360 O 0.99351 0.87381 0.61798 0.0
O361 O 0.04121 0.8559 0.64278 0.0
O362 O 0.4799 0.28093 0.21184 0.0
Cd363 Cd 0.528 0.27487 0.18178 0.0
Cd364 Cd 0.49559 0.3234 0.1393 0.0
O365 O 0.45927 0.32629 0.18516 0.0
O366 O 0.5438 0.23371 0.20697 0.0
O367 O 0.57553 0.2947 0.21027 0.0
C368 C 0.57206 0.25941 0.21899 0.0
C369 C 0.52325 0.38051 0.11579 0.0
C370 C 0.4566 0.30399 0.21026 0.0
C371 C 0.50933 0.24208 0.09822 0.0
O372 O 0.49007 0.26975 0.09881 0.0
O373 O 0.52984 0.24308 0.1264 0.0
O374 O 0.48929 0.36608 0.1098 0.0
O375 O 0.54154 0.36378 0.13691 0.0
C376 C 0.23718 0.78536 0.88609 0.0
C377 C 0.21926 0.74562 0.88672 0.0
C378 C 0.20799 0.76551 0.9558 0.0
C379 C 0.225 0.80524 0.95437 0.0
N380 N 0.26635 0.84946 0.92227 0.0
N381 N 0.19369 0.69563 0.92259 0.0
C382 C 0.24327 0.81388 0.92087 0.0
C383 C 0.20723 0.73489 0.92204 0.0
N384 N 0.24486 0.79716 0.85179 0.0
N385 N 0.19111 0.75771 0.98877 0.0
H386 H 0.19208 0.67346 0.8978 0.0
H387 H 0.18672 0.68454 0.94749 0.0
H388 H 0.19171 0.77953 0.01396 0.0
H389 H 0.1751 0.73044 0.99089 0.0
H390 H 0.25356 0.82705 0.84943 0.0
H391 H 0.23939 0.77775 0.82536 0.0
H392 H 0.28314 0.8555 0.89953 0.0
H393 H 0.27141 0.87131 0.94739 0.0
C394 C 0.04085 0.58085 0.44736 0.0
C395 C 0.0051 0.58016 0.4342 0.0
C396 C 0.0253 0.56227 0.36778 0.0
C397 C 0.06177 0.56607 0.38076 0.0
N398 N 0.10503 0.59156 0.43292 0.0
N399 N 0.96586 0.5814 0.3818 0.0
C400 C 0.06986 0.57934 0.42059 0.0
C401 C 0.99849 0.57523 0.3943 0.0
N402 N 0.04696 0.58059 0.48493 0.0
N403 N 0.01533 0.54321 0.33111 0.0
H404 H 0.94541 0.59017 0.40072 0.0
H405 H 0.96065 0.58161 0.35312 0.0
H406 H 0.033 0.5295 0.31151 0.0
H407 H 0.98839 0.53654 0.32164 0.0
H408 H 0.0719 0.5769 0.49531 0.0
H409 H 0.02612 0.5802 0.50474 0.0
H410 H 0.11193 0.60464 0.46142 0.0
H411 H 0.12694 0.59301 0.41412 0.0
C412 C 0.84833 0.77128 0.88899 0.0
C413 C 0.82054 0.76985 0.86189 0.0
C414 C 0.7841 0.71346 0.88643 0.0
C415 C 0.81164 0.71584 0.91406 0.0
N416 N 0.8732 0.73967 0.93603 0.0
N417 N 0.76437 0.73614 0.83071 0.0
C418 C 0.84489 0.74232 0.91336 0.0
C419 C 0.78947 0.73923 0.85902 0.0
N420 N 0.87678 0.80217 0.89332 0.0
N421 N 0.75205 0.68799 0.8878 0.0
H422 H 0.76678 0.75583 0.81148 0.0
H423 H 0.74264 0.71272 0.82429 0.0
H424 H 0.74766 0.66795 0.90671 0.0
H425 H 0.72907 0.6877 0.87163 0.0
H426 H 0.89579 0.80832 0.91556 0.0
H427 H 0.88003 0.82318 0.87558 0.0
H428 H 0.89934 0.7553 0.93433 0.0
H429 H 0.87125 0.71906 0.95439 0.0
C430 C 0.98573 0.05534 0.47806 0.0
C431 C 0.99795 0.01771 0.47494 0.0
C432 C 0.94947 0.9856 0.42869 0.0
C433 C 0.94056 0.02412 0.42771 0.0
N434 N 0.95018 0.09622 0.44992 0.0
N435 N 0.9945 0.94781 0.4448 0.0
C436 C 0.95839 0.05923 0.45232 0.0
C437 C 0.98041 0.98292 0.44982 0.0
N438 N 0.00021 0.08703 0.50596 0.0
N439 N 0.92798 0.95159 0.40969 0.0
H440 H 0.01734 0.94509 0.45971 0.0
H441 H 0.98549 0.92252 0.42376 0.0
H442 H 0.90485 0.95257 0.3941 0.0
H443 H 0.93099 0.9225 0.41233 0.0
H444 H 0.99051 0.11449 0.51223 0.0
H445 H 0.0204 0.08462 0.52487 0.0
H446 H 0.96486 0.1234 0.46403 0.0
H447 H 0.92956 0.09977 0.43208 0.0
C448 C 0.25773 0.24162 0.68137 0.0
C449 C 0.22988 0.266 0.68803 0.0
C450 C 0.24206 0.28529 0.62554 0.0
C451 C 0.26566 0.25617 0.61654 0.0
N452 N 0.30969 0.22423 0.64282 0.0
N453 N 0.19149 0.30598 0.66414 0.0
C454 C 0.27787 0.23963 0.64662 0.0
C455 C 0.22144 0.28723 0.65982 0.0
N456 N 0.26308 0.21809 0.70698 0.0
N457 N 0.24043 0.31192 0.60185 0.0
H458 H 0.17387 0.30434 0.68719 0.0
H459 H 0.18188 0.31888 0.64291 0.0
H460 H 0.25765 0.31294 0.57829 0.0
H461 H 0.22579 0.33593 0.60833 0.0
H462 H 0.28038 0.19651 0.70195 0.0
H463 H 0.24739 0.21727 0.7316 0.0
H464 H 0.32132 0.21419 0.66481 0.0
H465 H 0.32709 0.22716 0.61974 0.0
C466 C 0.45168 0.51691 0.63714 0.0
C467 C 0.48105 0.54914 0.64381 0.0
C468 C 0.46752 0.56274 0.71252 0.0
C469 C 0.43782 0.53067 0.7057 0.0
N470 N 0.39628 0.48338 0.6614 0.0
N471 N 0.51339 0.60752 0.68497 0.0
C472 C 0.42824 0.50962 0.66788 0.0
C473 C 0.48774 0.57369 0.68071 0.0
N474 N 0.44709 0.49251 0.60163 0.0
N475 N 0.4774 0.58123 0.74938 0.0
H476 H 0.5288 0.61557 0.66196 0.0
H477 H 0.51753 0.62901 0.71031 0.0
H478 H 0.46286 0.57428 0.77331 0.0
H479 H 0.50113 0.60175 0.75648 0.0
H480 H 0.42888 0.46563 0.59582 0.0
H481 H 0.46326 0.49795 0.57829 0.0
H482 H 0.38602 0.46993 0.63408 0.0
H483 H 0.37823 0.4778 0.68337 0.0
C484 C 0.77971 0.35762 0.72713 0.0
C485 C 0.79093 0.31933 0.71686 0.0
C486 C 0.78603 0.32108 0.64878 0.0
C487 C 0.7776 0.36092 0.6588 0.0
N488 N 0.77118 0.41959 0.70731 0.0
N489 N 0.81171 0.26783 0.66922 0.0
C490 C 0.77567 0.37997 0.698 0.0
C491 C 0.79638 0.30219 0.67801 0.0
N492 N 0.77214 0.37194 0.76469 0.0
N493 N 0.78206 0.30029 0.61162 0.0
H494 H 0.81952 0.25344 0.69028 0.0
H495 H 0.81982 0.2559 0.64161 0.0
H496 H 0.77276 0.31211 0.58942 0.0
H497 H 0.78426 0.26981 0.60346 0.0
H498 H 0.76021 0.3977 0.7739 0.0
H499 H 0.77589 0.35638 0.78645 0.0
H500 H 0.77303 0.43629 0.73528 0.0
H501 H 0.76828 0.43675 0.68664 0.0
C502 C 0.50532 0.99406 0.66545 0.0
C503 C 0.51935 0.99711 0.62835 0.0
C504 C 0.58171 0.00709 0.65395 0.0
C505 C 0.56732 0.00452 0.6909 0.0
N506 N 0.51662 0.98534 0.73011 0.0
N507 N 0.57019 0.00236 0.58589 0.0
C508 C 0.52945 0.99452 0.69597 0.0
C509 C 0.55743 0.0017 0.62211 0.0
N510 N 0.46895 0.99327 0.67206 0.0
N511 N 0.61845 0.01676 0.64992 0.0
H512 H 0.55297 0.00143 0.56305 0.0
H513 H 0.59721 0.00199 0.57798 0.0
H514 H 0.63669 0.01952 0.67249 0.0
H515 H 0.63098 0.02328 0.6249 0.0
H516 H 0.45754 0.99652 0.69936 0.0
H517 H 0.45022 0.99172 0.65027 0.0
H518 H 0.48957 0.97396 0.73453 0.0
H519 H 0.53377 0.98547 0.75298 0.0
C520 C 0.8383 0.26489 0.85057 0.0
C521 C 0.83957 0.25017 0.81048 0.0
C522 C 0.8919 0.21716 0.81951 0.0
C523 C 0.8898 0.23108 0.85984 0.0
N524 N 0.85728 0.26163 0.91458 0.0
N525 N 0.86716 0.2134 0.75582 0.0
C526 C 0.8615 0.25246 0.87563 0.0
C527 C 0.8661 0.2262 0.79471 0.0
N528 N 0.81711 0.29363 0.86424 0.0
N529 N 0.91931 0.1963 0.80516 0.0
H530 H 0.85146 0.22365 0.73709 0.0
H531 H 0.88316 0.19274 0.74188 0.0
H532 H 0.93716 0.18732 0.82282 0.0
H533 H 0.92498 0.18813 0.77611 0.0
H534 H 0.81727 0.30872 0.89276 0.0
H535 H 0.80224 0.30567 0.84609 0.0
H536 H 0.83494 0.27344 0.92767 0.0
H537 H 0.87451 0.25434 0.93394 0.0
C538 C 0.50315 0.93429 0.51341 0.0
C539 C 0.49118 0.9374 0.55199 0.0
C540 C 0.49448 0.8655 0.54707 0.0
C541 C 0.4994 0.86104 0.50669 0.0
N542 N 0.4996 0.89175 0.45051 0.0
N543 N 0.46885 0.90357 0.60314 0.0
C544 C 0.50199 0.89564 0.48952 0.0
C545 C 0.48546 0.90243 0.56843 0.0
N546 N 0.51391 0.96841 0.49898 0.0
N547 N 0.49858 0.83469 0.56508 0.0
H548 H 0.45949 0.92934 0.61785 0.0
H549 H 0.46094 0.878 0.61498 0.0
H550 H 0.50642 0.80779 0.55052 0.0
H551 H 0.49808 0.83769 0.59489 0.0
H552 H 0.52626 0.968 0.47226 0.0
H553 H 0.51343 0.99729 0.51511 0.0
H554 H 0.49767 0.91595 0.43726 0.0
H555 H 0.49482 0.86413 0.43143 0.0
C556 C 0.13599 0.2195 0.81421 0.0
C557 C 0.13236 0.2354 0.78096 0.0
C558 C 0.06793 0.23603 0.79425 0.0
C559 C 0.07375 0.22954 0.83172 0.0
N560 N 0.11357 0.21446 0.87796 0.0
N561 N 0.09547 0.25994 0.73888 0.0
C562 C 0.10757 0.21992 0.84166 0.0
C563 C 0.09824 0.24307 0.77028 0.0
N564 N 0.16745 0.20567 0.81987 0.0
N565 N 0.0334 0.23559 0.78185 0.0
H566 H 0.1173 0.26553 0.72075 0.0
H567 H 0.07223 0.2707 0.73226 0.0
H568 H 0.01061 0.22956 0.79872 0.0
H569 H 0.0272 0.23695 0.75371 0.0
H570 H 0.17123 0.19077 0.84204 0.0
H571 H 0.18858 0.20606 0.79998 0.0
H572 H 0.13898 0.21199 0.88799 0.0
H573 H 0.09366 0.21479 0.89908 0.0
C574 C 0.52206 0.58782 0.49398 0.0
C575 C 0.53472 0.60124 0.5324 0.0
C576 C 0.53569 0.6715 0.5254 0.0
C577 C 0.5159 0.65735 0.49064 0.0
N578 N 0.49213 0.60288 0.43949 0.0
N579 N 0.55197 0.65625 0.58577 0.0
C580 C 0.51027 0.61572 0.47381 0.0
C581 C 0.54228 0.64337 0.54795 0.0
N582 N 0.52026 0.54809 0.47751 0.0
N583 N 0.54736 0.71192 0.53723 0.0
H584 H 0.55621 0.6365 0.60354 0.0
H585 H 0.55325 0.68603 0.60028 0.0
H586 H 0.54235 0.7332 0.52139 0.0
H587 H 0.5648 0.72386 0.56058 0.0
H588 H 0.51361 0.53613 0.44881 0.0
H589 H 0.52879 0.52774 0.49214 0.0
H590 H 0.48342 0.57269 0.42741 0.0
H591 H 0.48452 0.6229 0.42359 0.0
C592 C 0.89608 0.83397 0.79717 0.0
C593 C 0.86528 0.8029 0.79259 0.0
C594 C 0.89256 0.7683 0.73386 0.0
C595 C 0.92314 0.79951 0.73875 0.0
N596 N 0.95844 0.85591 0.78028 0.0
N597 N 0.83747 0.737 0.76104 0.0
C598 C 0.92628 0.83037 0.77211 0.0
C599 C 0.86487 0.76873 0.7625 0.0
N600 N 0.8954 0.86839 0.82405 0.0
N601 N 0.889 0.73954 0.70084 0.0
H602 H 0.81706 0.73724 0.78145 0.0
H603 H 0.83671 0.70943 0.74214 0.0
H604 H 0.9086 0.73829 0.67932 0.0
H605 H 0.86566 0.71851 0.69338 0.0
H606 H 0.91438 0.89447 0.82535 0.0
H607 H 0.87445 0.87159 0.84379 0.0
H608 H 0.9637 0.87628 0.80624 0.0
H609 H 0.98117 0.85416 0.76261 0.0
C610 C 0.07229 0.98031 0.60228 0.0
C611 C 0.07248 0.96914 0.56164 0.0
C612 C 0.06104 0.89782 0.56731 0.0
C613 C 0.052 0.90957 0.60632 0.0
N614 N 0.05147 0.96139 0.66274 0.0
N615 N 0.06469 0.9163 0.50507 0.0
C616 C 0.05908 0.9507 0.62461 0.0
C617 C 0.06752 0.92749 0.54409 0.0
N618 N 0.0834 0.01958 0.61906 0.0
N619 N 0.06207 0.85808 0.55222 0.0
H620 H 0.06852 0.93718 0.48705 0.0
H621 H 0.05618 0.88673 0.49078 0.0
H622 H 0.05721 0.83582 0.56885 0.0
H623 H 0.07131 0.848 0.5246 0.0
H624 H 0.08602 0.02998 0.64862 0.0
H625 H 0.09348 0.04089 0.60271 0.0
H626 H 0.05219 0.99111 0.67716 0.0
H627 H 0.04312 0.93993 0.6797 0.0
C628 C 0.1582 0.74519 0.74401 0.0
C629 C 0.14719 0.71842 0.76925 0.0
C630 C 0.08353 0.71881 0.75585 0.0
C631 C 0.09437 0.74374 0.72864 0.0
N632 N 0.14197 0.77234 0.68993 0.0
N633 N 0.10109 0.67242 0.79295 0.0
C634 C 0.13174 0.7546 0.72063 0.0
C635 C 0.1103 0.7025 0.77267 0.0
N636 N 0.19372 0.76269 0.7435 0.0
N637 N 0.0482 0.71301 0.76764 0.0
H638 H 0.12064 0.66053 0.80586 0.0
H639 H 0.07475 0.65693 0.79383 0.0
H640 H 0.02799 0.72667 0.75805 0.0
H641 H 0.03967 0.6982 0.79003 0.0
H642 H 0.20269 0.7861 0.72905 0.0
H643 H 0.21386 0.75546 0.75963 0.0
H644 H 0.1688 0.77736 0.68081 0.0
H645 H 0.12339 0.77844 0.67121 0.0
C646 C 0.98749 0.6785 0.49442 0.0
C647 C 0.98115 0.6411 0.50678 0.0
C648 C 0.98707 0.67627 0.57394 0.0
C649 C 0.99485 0.71371 0.56167 0.0
N650 N 0.00853 0.75081 0.51071 0.0
N651 N 0.98163 0.60373 0.55761 0.0
C652 C 0.99711 0.71496 0.52197 0.0
C653 C 0.98424 0.64 0.54633 0.0
N654 N 0.98201 0.67916 0.45673 0.0
N655 N 0.9792 0.67528 0.6117 0.0
H656 H 0.97608 0.57624 0.53843 0.0
H657 H 0.98783 0.6009 0.58531 0.0
H658 H 0.97858 0.70108 0.63286 0.0
H659 H 0.96936 0.64893 0.62158 0.0
H660 H 0.98206 0.70554 0.44627 0.0
H661 H 0.97542 0.65276 0.43625 0.0
H662 H 0.01411 0.75318 0.48229 0.0
H663 H 0.01477 0.778 0.53033 0.0
C664 C 0.79672 0.8387 0.28544 0.0
C665 C 0.76285 0.83982 0.26866 0.0
C666 C 0.78011 0.91205 0.26934 0.0
C667 C 0.8128 0.91157 0.28858 0.0
N668 N 0.8557 0.87461 0.31008 0.0
N669 N 0.71893 0.8787 0.25264 0.0
C670 C 0.82239 0.87478 0.29474 0.0
C671 C 0.7538 0.8767 0.26217 0.0
N672 N 0.80253 0.80383 0.29588 0.0
N673 N 0.7746 0.94626 0.25731 0.0
H674 H 0.6982 0.85406 0.24988 0.0
H675 H 0.70955 0.90556 0.25155 0.0
H676 H 0.79359 0.97268 0.2619 0.0
H677 H 0.75306 0.94728 0.23955 0.0
H678 H 0.82522 0.80083 0.3109 0.0
H679 H 0.78296 0.77805 0.2919 0.0
H680 H 0.86603 0.84858 0.3121 0.0
H681 H 0.8743 0.90076 0.31918 0.0
C682 C 0.76747 0.1601 0.32301 0.0
C683 C 0.74068 0.16711 0.35154 0.0
C684 C 0.77 0.12948 0.39029 0.0
C685 C 0.79145 0.11509 0.35833 0.0
N686 N 0.80216 0.11047 0.28971 0.0
N687 N 0.71163 0.14903 0.40826 0.0
C688 C 0.78824 0.12885 0.32337 0.0
C689 C 0.74065 0.14939 0.38427 0.0
N690 N 0.77314 0.18319 0.29554 0.0
N691 N 0.77795 0.12521 0.42646 0.0
H692 H 0.68805 0.15896 0.40166 0.0
H693 H 0.70934 0.13392 0.43123 0.0
H694 H 0.80112 0.11405 0.43275 0.0
H695 H 0.76414 0.13772 0.45066 0.0
H696 H 0.79437 0.18109 0.2759 0.0
H697 H 0.75933 0.20739 0.29536 0.0
H698 H 0.79753 0.11806 0.26338 0.0
H699 H 0.81385 0.08438 0.28678 0.0
C700 C 0.34887 0.02398 0.96534 0.0
C701 C 0.37952 0.03612 0.98973 0.0
C702 C 0.34589 0.0081 0.04058 0.0
C703 C 0.31709 0.99042 0.01428 0.0
N704 N 0.29572 0.97401 0.94794 0.0
N705 N 0.41033 0.03207 0.04744 0.0
C706 C 0.31951 0.99647 0.9756 0.0
C707 C 0.37899 0.02593 0.02651 0.0
N708 N 0.34794 0.03875 0.93242 0.0
N709 N 0.34134 0.00904 0.07906 0.0
H710 H 0.43543 0.04357 0.03719 0.0
H711 H 0.41193 0.02182 0.07304 0.0
H712 H 0.31667 0.99824 0.09078 0.0
H713 H 0.36069 0.02467 0.09959 0.0
H714 H 0.32473 0.03386 0.91526 0.0
H715 H 0.36954 0.0587 0.92426 0.0
H716 H 0.29879 0.97513 0.91889 0.0
H717 H 0.2755 0.95091 0.9529 0.0
C718 C 0.2495 0.40061 0.35443 0.0
C719 C 0.25253 0.37183 0.32049 0.0
C720 C 0.2115 0.40352 0.28767 0.0
C721 C 0.20517 0.42984 0.32309 0.0
N722 N 0.20793 0.43883 0.39265 0.0
N723 N 0.22711 0.33797 0.25896 0.0
C724 C 0.22105 0.42403 0.35734 0.0
C725 C 0.23014 0.37049 0.28858 0.0
N726 N 0.27402 0.40622 0.38366 0.0
N727 N 0.20284 0.41111 0.2529 0.0
H728 H 0.24055 0.31346 0.25921 0.0
H729 H 0.20871 0.33398 0.23632 0.0
H730 H 0.19333 0.43704 0.24922 0.0
H731 H 0.20989 0.3939 0.22694 0.0
H732 H 0.27428 0.42924 0.40785 0.0
H733 H 0.29606 0.39055 0.38184 0.0
H734 H 0.21765 0.43299 0.41798 0.0
H735 H 0.18408 0.4515 0.39618 0.0
C736 C 0.13036 0.07593 0.54238 0.0
C737 C 0.12346 0.03523 0.5224 0.0
C738 C 0.18257 0.04525 0.49061 0.0
C739 C 0.19037 0.08514 0.51261 0.0
N740 N 0.17611 0.13187 0.56962 0.0
N741 N 0.14788 0.97847 0.4865 0.0
C742 C 0.1657 0.09843 0.54179 0.0
C743 C 0.15142 0.01898 0.49976 0.0
N744 N 0.1026 0.09413 0.55988 0.0
N745 N 0.20314 0.03307 0.45936 0.0
H746 H 0.1263 0.95899 0.49483 0.0
H747 H 0.16843 0.96428 0.47199 0.0
H748 H 0.2247 0.05192 0.44985 0.0
H749 H 0.19626 0.0056 0.44036 0.0
H750 H 0.10544 0.12506 0.57095 0.0
H751 H 0.0762 0.0788 0.56095 0.0
H752 H 0.15972 0.14069 0.59302 0.0
H753 H 0.20253 0.14774 0.57195 0.0
C754 C 0.76499 0.16933 0.7606 0.0
C755 C 0.76332 0.20669 0.78585 0.0
C756 C 0.71956 0.1728 0.82638 0.0
C757 C 0.72104 0.1356 0.80075 0.0
N758 N 0.75005 0.09626 0.74853 0.0
N759 N 0.73404 0.24585 0.83763 0.0
C760 C 0.74531 0.13322 0.76937 0.0
C761 C 0.73968 0.20886 0.81781 0.0
N762 N 0.78293 0.16899 0.72655 0.0
N763 N 0.69882 0.17354 0.85879 0.0
H764 H 0.74647 0.27265 0.83006 0.0
H765 H 0.71475 0.2503 0.85909 0.0
H766 H 0.68246 0.14799 0.86511 0.0
H767 H 0.69952 0.19873 0.88082 0.0
H768 H 0.78229 0.14351 0.70486 0.0
H769 H 0.79563 0.19527 0.71829 0.0
H770 H 0.77011 0.09203 0.72787 0.0
H771 H 0.73585 0.06924 0.75423 0.0
C772 C 0.44122 0.07823 0.53462 0.0
C773 C 0.43054 0.05729 0.56467 0.0
C774 C 0.37259 0.08343 0.57047 0.0
C775 C 0.38139 0.10021 0.53718 0.0
N776 N 0.4238 0.11486 0.4876 0.0
N777 N 0.38696 0.03832 0.61111 0.0
C778 C 0.41583 0.09825 0.51943 0.0
C779 C 0.39665 0.06 0.58299 0.0
N780 N 0.47586 0.0789 0.52097 0.0
N781 N 0.34103 0.08939 0.5897 0.0
H782 H 0.40457 0.02175 0.62118 0.0
H783 H 0.36118 0.0349 0.62312 0.0
H784 H 0.32197 0.10479 0.58049 0.0
H785 H 0.3346 0.08143 0.61615 0.0
H786 H 0.48692 0.09597 0.50108 0.0
H787 H 0.49467 0.06432 0.53184 0.0
H788 H 0.44656 0.11086 0.47057 0.0
H789 H 0.40676 0.13192 0.4773 0.0
C790 C 0.61637 0.5527 0.55486 0.0
C791 C 0.57952 0.53406 0.55056 0.0
C792 C 0.5991 0.46846 0.52451 0.0
C793 C 0.63571 0.48658 0.53241 0.0
N794 N 0.68043 0.54652 0.54645 0.0
N795 N 0.53528 0.47409 0.53325 0.0
C796 C 0.64472 0.52898 0.54497 0.0
C797 C 0.57085 0.49201 0.53494 0.0
N798 N 0.624 0.59269 0.571 0.0
N799 N 0.59138 0.42868 0.50701 0.0
H800 H 0.51393 0.49065 0.53919 0.0
H801 H 0.52677 0.44304 0.52768 0.0
H802 H 0.61117 0.40998 0.50068 0.0
H803 H 0.56581 0.41467 0.49634 0.0
H804 H 0.64977 0.60791 0.57969 0.0
H805 H 0.60372 0.61058 0.57683 0.0
H806 H 0.68917 0.57752 0.55195 0.0
H807 H 0.70171 0.52992 0.5395 0.0
C808 C 0.75354 0.26987 0.41186 0.0
C809 C 0.71972 0.2443 0.40502 0.0
C810 C 0.69958 0.27256 0.46947 0.0
C811 C 0.72986 0.3035 0.4727 0.0
N812 N 0.78644 0.33265 0.44712 0.0
N813 N 0.65875 0.22356 0.42583 0.0
C814 C 0.75773 0.30186 0.44454 0.0
C815 C 0.69258 0.24544 0.4339 0.0
N816 N 0.78065 0.26509 0.38564 0.0
N817 N 0.67719 0.26979 0.5002 0.0
H818 H 0.65216 0.20411 0.39958 0.0
H819 H 0.63657 0.22698 0.44394 0.0
H820 H 0.68201 0.28957 0.52665 0.0
H821 H 0.65632 0.24569 0.50057 0.0
H822 H 0.80727 0.27988 0.39039 0.0
H823 H 0.77696 0.24388 0.36012 0.0
H824 H 0.80514 0.33565 0.42521 0.0
H825 H 0.79065 0.35694 0.47023 0.0
C826 C 0.52222 0.03594 0.94377 0.0
C827 C 0.50294 0.06772 0.93975 0.0
C828 C 0.5485 0.08936 0.89448 0.0
C829 C 0.56553 0.05516 0.89476 0.0
N830 N 0.5643 0.99146 0.91491 0.0
N831 N 0.49045 0.11214 0.8989 0.0
C832 C 0.5516 0.0274 0.91853 0.0
C833 C 0.51423 0.09136 0.91198 0.0
N834 N 0.51165 0.01285 0.97056 0.0
N835 N 0.56489 0.12002 0.8775 0.0
H836 H 0.46304 0.10812 0.90628 0.0
H837 H 0.49652 0.12777 0.87654 0.0
H838 H 0.59086 0.12058 0.86569 0.0
H839 H 0.55426 0.14675 0.87916 0.0
H840 H 0.52736 0.99302 0.97831 0.0
H841 H 0.48798 0.01485 0.98652 0.0
H842 H 0.55237 0.96812 0.92821 0.0
H843 H 0.58468 0.98312 0.89579 0.0
C844 C 0.29732 0.22881 0.34401 0.0
C845 C 0.31998 0.26727 0.35039 0.0
C846 C 0.34099 0.25385 0.41144 0.0
C847 C 0.31693 0.21667 0.40563 0.0
N848 N 0.28104 0.16316 0.36161 0.0
N849 N 0.36782 0.31315 0.38699 0.0
C850 C 0.29855 0.20207 0.36999 0.0
C851 C 0.34373 0.27827 0.38282 0.0
N852 N 0.27157 0.21967 0.31556 0.0
N853 N 0.36005 0.26644 0.44526 0.0
H854 H 0.36851 0.33229 0.36777 0.0
H855 H 0.38835 0.32191 0.40768 0.0
H856 H 0.36031 0.24799 0.4654 0.0
H857 H 0.37485 0.29514 0.45403 0.0
H858 H 0.25158 0.19422 0.3119 0.0
H859 H 0.26744 0.23975 0.29818 0.0
H860 H 0.27017 0.14943 0.33459 0.0
H861 H 0.28048 0.14334 0.38055 0.0
C862 C 0.50179 0.50125 0.91017 0.0
C863 C 0.49736 0.5184 0.94923 0.0
C864 C 0.4367 0.53019 0.93467 0.0
C865 C 0.44318 0.5179 0.8946 0.0
N866 N 0.48922 0.50704 0.84558 0.0
N867 N 0.46477 0.55899 0.99694 0.0
C868 C 0.47791 0.50788 0.88261 0.0
C869 C 0.4662 0.53632 0.96088 0.0
N870 N 0.52845 0.47827 0.89931 0.0
N871 N 0.40246 0.53328 0.94831 0.0
H872 H 0.48628 0.56401 0.0165 0.0
H873 H 0.4438 0.57555 0.00581 0.0
H874 H 0.37922 0.52504 0.93111 0.0
H875 H 0.39672 0.53913 0.97761 0.0
H876 H 0.53068 0.46256 0.87122 0.0
H877 H 0.5459 0.47192 0.91905 0.0
H878 H 0.51537 0.50235 0.83674 0.0
H879 H 0.47466 0.51668 0.82533 0.0
C880 C 0.74334 0.78981 0.1708 0.0
C881 C 0.75101 0.76951 0.20005 0.0
C882 C 0.79718 0.73876 0.15899 0.0
C883 C 0.78563 0.7548 0.12827 0.0
N884 N 0.76291 0.81093 0.11132 0.0
N885 N 0.78251 0.72152 0.22129 0.0
C886 C 0.76373 0.78558 0.13643 0.0
C887 C 0.77774 0.74365 0.19426 0.0
N888 N 0.71402 0.80954 0.17414 0.0
N889 N 0.82763 0.7208 0.15507 0.0
H890 H 0.76725 0.72298 0.24639 0.0
H891 H 0.79889 0.69906 0.21729 0.0
H892 H 0.84453 0.72131 0.13126 0.0
H893 H 0.83888 0.71074 0.17727 0.0
H894 H 0.7051 0.82206 0.15227 0.0
H895 H 0.69601 0.80879 0.19693 0.0
H896 H 0.74957 0.83603 0.11701 0.0
H897 H 0.77941 0.80939 0.08701 0.0
C898 C 0.99411 0.08813 0.19407 0.0
C899 C 0.98337 0.06089 0.15934 0.0
C900 C 0.93144 0.02846 0.19122 0.0
C901 C 0.94497 0.05206 0.22687 0.0
N902 N 0.98888 0.10384 0.26363 0.0
N903 N 0.94378 0.00383 0.12408 0.0
C904 C 0.97605 0.08217 0.22871 0.0
C905 C 0.95231 0.0309 0.15761 0.0
N906 N 0.02146 0.11969 0.19351 0.0
N907 N 0.89849 0.00399 0.18964 0.0
H908 H 0.95824 0.00549 0.0988 0.0
H909 H 0.92398 0.97834 0.12177 0.0
H910 H 0.88254 0.00162 0.21393 0.0
H911 H 0.88546 0.98877 0.16411 0.0
H912 H 0.02883 0.14288 0.21703 0.0
H913 H 0.03524 0.12405 0.16836 0.0
H914 H 0.01358 0.12322 0.2675 0.0
H915 H 0.9753 0.10105 0.28927 0.0
C916 C 0.28792 0.84652 0.21597 0.0
C917 C 0.29857 0.8079 0.20671 0.0
C918 C 0.29061 0.80625 0.13837 0.0
C919 C 0.28285 0.84645 0.14716 0.0
N920 N 0.28064 0.90766 0.19407 0.0
N921 N 0.31791 0.75471 0.15994 0.0
C922 C 0.28328 0.86749 0.18596 0.0
C923 C 0.3026 0.78911 0.16807 0.0
N924 N 0.28127 0.86248 0.25338 0.0
N925 N 0.28424 0.78342 0.10224 0.0
H926 H 0.327 0.74169 0.18143 0.0
H927 H 0.32478 0.74152 0.13222 0.0
H928 H 0.27309 0.79365 0.08003 0.0
H929 H 0.28615 0.75277 0.09541 0.0
H930 H 0.26967 0.8886 0.26181 0.0
H931 H 0.28517 0.84787 0.2758 0.0
H932 H 0.28424 0.92537 0.22157 0.0
H933 H 0.27804 0.92419 0.17281 0.0
C934 C 0.05003 0.49624 0.11545 0.0
C935 C 0.0123 0.48824 0.1233 0.0
C936 C 0.02632 0.48948 0.19096 0.0
C937 C 0.06356 0.50118 0.18373 0.0
N938 N 0.11248 0.50729 0.13905 0.0
N939 N 0.96408 0.48234 0.16931 0.0
C940 C 0.07592 0.50168 0.14578 0.0
C941 C 0.00036 0.48549 0.1612 0.0
N942 N 0.0607 0.50217 0.07972 0.0
N943 N 0.01592 0.48195 0.22638 0.0
H944 H 0.94417 0.47915 0.1483 0.0
H945 H 0.95367 0.48548 0.19704 0.0
H946 H 0.03454 0.48437 0.24852 0.0
H947 H 0.98965 0.46964 0.23276 0.0
H948 H 0.08734 0.51161 0.07219 0.0
H949 H 0.0421 0.49994 0.05781 0.0
H950 H 0.12397 0.50513 0.11186 0.0
H951 H 0.13167 0.51122 0.16098 0.0
C952 C 0.3452 0.7647 0.34621 0.0
C953 C 0.34743 0.74701 0.30674 0.0
C954 C 0.39946 0.71595 0.32043 0.0
C955 C 0.39875 0.7356 0.35944 0.0
N956 N 0.37182 0.779 0.41043 0.0
N957 N 0.38134 0.71397 0.25493 0.0
C958 C 0.37135 0.75946 0.37281 0.0
C959 C 0.37561 0.72445 0.29349 0.0
N960 N 0.31922 0.78849 0.35757 0.0
N961 N 0.42296 0.68897 0.3093 0.0
H962 H 0.36604 0.72245 0.23463 0.0
H963 H 0.40352 0.70086 0.24319 0.0
H964 H 0.44073 0.6822 0.32852 0.0
H965 H 0.42252 0.67063 0.28209 0.0
H966 H 0.31271 0.79912 0.38601 0.0
H967 H 0.30405 0.79808 0.33788 0.0
H968 H 0.35467 0.79943 0.42195 0.0
H969 H 0.39032 0.77553 0.43064 0.0
C970 C 0.9797 0.39073 0.06615 0.0
C971 C 0.98434 0.42525 0.049 0.0
C972 C 0.99601 0.38301 0.98702 0.0
C973 C 0.99392 0.34889 0.00481 0.0
N974 N 0.99329 0.32321 0.06345 0.0
N975 N 0.00517 0.45566 0.99504 0.0
C976 C 0.98906 0.35379 0.04517 0.0
C977 C 0.99606 0.42181 0.0103 0.0
N978 N 0.96356 0.39219 0.10112 0.0
N979 N 0.99404 0.37834 0.94788 0.0
H980 H 0.00268 0.48444 0.01017 0.0
H981 H 0.01775 0.45534 0.96845 0.0
H982 H 0.99055 0.3505 0.9291 0.0
H983 H 0.99143 0.40191 0.93402 0.0
H984 H 0.95624 0.36689 0.1135 0.0
H985 H 0.95407 0.41793 0.11568 0.0
H986 H 0.99298 0.32645 0.09328 0.0
H987 H 0.00089 0.29614 0.04897 0.0
C988 C 0.61904 0.75839 0.28045 0.0
C989 C 0.65188 0.75019 0.29402 0.0
C990 C 0.62243 0.73729 0.35363 0.0
C991 C 0.58941 0.74571 0.34006 0.0
N992 N 0.55353 0.7503 0.28586 0.0
N993 N 0.68302 0.72156 0.33745 0.0
C994 C 0.58682 0.75159 0.3018 0.0
C995 C 0.65268 0.73566 0.3285 0.0
N996 N 0.61907 0.77517 0.24859 0.0
N997 N 0.62597 0.73405 0.39108 0.0
H998 H 0.70553 0.72091 0.31933 0.0
H999 H 0.68453 0.70733 0.36062 0.0
H1000 H 0.60499 0.73611 0.41094 0.0
H1001 H 0.65065 0.7324 0.40337 0.0
H1002 H 0.59669 0.7861 0.23993 0.0
H1003 H 0.64233 0.78096 0.23245 0.0
H1004 H 0.54989 0.75105 0.25701 0.0
H1005 H 0.52929 0.744 0.30046 0.0
C1006 C 0.01064 0.07918 0.00084 0.0
C1007 C 0.02736 0.09646 0.03702 0.0
C1008 C 0.03043 0.16395 0.02171 0.0
C1009 C 0.00716 0.14706 0.98984 0.0
N1010 N 0.97668 0.08896 0.94655 0.0
N1011 N 0.05023 0.15616 0.08367 0.0
C1012 C 0.99825 0.10463 0.97823 0.0
C1013 C 0.03754 0.1391 0.0474 0.0
N1014 N 0.0054 0.03832 0.98911 0.0
N1015 N 0.04469 0.20404 0.02815 0.0
H1016 H 0.0546 0.13915 0.10398 0.0
H1017 H 0.05364 0.18708 0.09471 0.0
H1018 H 0.0392 0.22324 0.01027 0.0
H1019 H 0.06456 0.21728 0.04892 0.0
H1020 H 0.99563 0.02327 0.96205 0.0
H1021 H 0.01385 0.01967 0.00578 0.0
H1022 H 0.9657 0.05859 0.93855 0.0
H1023 H 0.96867 0.10699 0.92874 0.0
C1024 C 0.39301 0.34208 0.2911 0.0
C1025 C 0.36343 0.30934 0.28607 0.0
C1026 C 0.39815 0.27089 0.23583 0.0
C1027 C 0.42596 0.30488 0.2383 0.0
N1028 N 0.45091 0.37278 0.26829 0.0
N1029 N 0.33483 0.24752 0.24665 0.0
C1030 C 0.42378 0.34038 0.26623 0.0
C1031 C 0.36551 0.27469 0.25707 0.0
N1032 N 0.39085 0.37555 0.31891 0.0
N1033 N 0.40229 0.23514 0.21223 0.0
H1034 H 0.3098 0.25197 0.2586 0.0
H1035 H 0.33321 0.22366 0.22313 0.0
H1036 H 0.42441 0.23159 0.19403 0.0
H1037 H 0.38499 0.20817 0.21281 0.0
H1038 H 0.41231 0.39889 0.32727 0.0
H1039 H 0.3676 0.37954 0.3352 0.0
H1040 H 0.44979 0.4013 0.28469 0.0
H1041 H 0.47476 0.37162 0.25237 0.0
C1042 C 0.55315 0.42779 0.02953 0.0
C1043 C 0.55914 0.46947 0.04699 0.0
C1044 C 0.55306 0.45118 0.11092 0.0
C1045 C 0.54137 0.41039 0.09313 0.0
N1046 N 0.53329 0.3584 0.03616 0.0
N1047 N 0.56521 0.52128 0.10376 0.0
C1048 C 0.54306 0.39824 0.05257 0.0
C1049 C 0.56019 0.4812 0.08764 0.0
N1050 N 0.55486 0.417 0.99037 0.0
N1051 N 0.55657 0.46118 0.15001 0.0
H1052 H 0.57116 0.54335 0.08723 0.0
H1053 H 0.56214 0.53269 0.13288 0.0
H1054 H 0.5506 0.4399 0.16757 0.0
H1055 H 0.56785 0.48966 0.16486 0.0
H1056 H 0.55361 0.38756 0.97518 0.0
H1057 H 0.55958 0.43817 0.97261 0.0
H1058 H 0.5301 0.34706 0.00684 0.0
H1059 H 0.52738 0.33611 0.05249 0.0
C1060 C 0.61209 0.21703 0.2962 0.0
C1061 C 0.64919 0.22208 0.28636 0.0
C1062 C 0.63571 0.24877 0.2302 0.0
C1063 C 0.59917 0.24816 0.24271 0.0
N1064 N 0.55371 0.23808 0.2911 0.0
N1065 N 0.69787 0.24651 0.2474 0.0
C1066 C 0.58753 0.23378 0.27659 0.0
C1067 C 0.66146 0.23886 0.25415 0.0
N1068 N 0.60061 0.19621 0.32449 0.0
N1069 N 0.64549 0.25721 0.19494 0.0
H1070 H 0.71713 0.23856 0.26414 0.0
H1071 H 0.70901 0.26293 0.22699 0.0
H1072 H 0.62728 0.26409 0.17629 0.0
H1073 H 0.67086 0.25409 0.18279 0.0
H1074 H 0.57334 0.1882 0.33092 0.0
H1075 H 0.61841 0.18362 0.33908 0.0
H1076 H 0.54509 0.2317 0.31767 0.0
H1077 H 0.53537 0.25177 0.27843 0.0
C1078 C 0.48786 0.1777 0.99945 0.0
C1079 C 0.48672 0.13807 0.00637 0.0
C1080 C 0.50203 0.16661 0.07384 0.0
C1081 C 0.50562 0.20628 0.06614 0.0
N1082 N 0.5155 0.24746 0.01794 0.0
N1083 N 0.50386 0.0964 0.04783 0.0
C1084 C 0.5032 0.21115 0.02763 0.0
C1085 C 0.49864 0.13336 0.04257 0.0
N1086 N 0.47095 0.18386 0.96802 0.0
N1087 N 0.49802 0.15989 0.11057 0.0
H1088 H 0.50041 0.07164 0.02548 0.0
H1089 H 0.51519 0.09167 0.07283 0.0
H1090 H 0.49608 0.18249 0.13457 0.0
H1091 H 0.49187 0.13105 0.11678 0.0
H1092 H 0.46851 0.21258 0.96361 0.0
H1093 H 0.45571 0.16039 0.94915 0.0
H1094 H 0.51601 0.25177 0.98963 0.0
H1095 H 0.5296 0.27116 0.03768 0.0
C1096 C 0.27305 0.33128 0.77686 0.0
C1097 C 0.23935 0.33287 0.7601 0.0
C1098 C 0.25663 0.40542 0.76231 0.0
C1099 C 0.28983 0.40414 0.78027 0.0
N1100 N 0.32933 0.36778 0.80798 0.0
N1101 N 0.19513 0.37234 0.74609 0.0
C1102 C 0.29816 0.36746 0.78817 0.0
C1103 C 0.23009 0.37017 0.75512 0.0
N1104 N 0.28011 0.29519 0.78331 0.0
N1105 N 0.2508 0.44009 0.7514 0.0
H1106 H 0.17455 0.34748 0.74267 0.0
H1107 H 0.18563 0.39933 0.74587 0.0
H1108 H 0.26932 0.46685 0.75701 0.0
H1109 H 0.22894 0.44156 0.73426 0.0
H1110 H 0.30531 0.29008 0.79147 0.0
H1111 H 0.26028 0.26965 0.77998 0.0
H1112 H 0.33616 0.34296 0.81733 0.0
H1113 H 0.34805 0.39388 0.81707 0.0
C1114 C 0.22568 0.62705 0.83511 0.0
C1115 C 0.24115 0.66742 0.83368 0.0
C1116 C 0.30214 0.65071 0.83987 0.0
C1117 C 0.28683 0.60967 0.8376 0.0
N1118 N 0.23454 0.55719 0.82705 0.0
N1119 N 0.29406 0.71535 0.82629 0.0
C1120 C 0.24867 0.5974 0.83391 0.0
C1121 C 0.27941 0.67876 0.83409 0.0
N1122 N 0.18879 0.6171 0.83721 0.0
N1123 N 0.3383 0.66299 0.84804 0.0
H1124 H 0.27799 0.73528 0.81971 0.0
H1125 H 0.32176 0.72404 0.82239 0.0
H1126 H 0.35576 0.64315 0.8522 0.0
H1127 H 0.35026 0.69321 0.85395 0.0
H1128 H 0.17581 0.58944 0.8424 0.0
H1129 H 0.17114 0.63791 0.83723 0.0
H1130 H 0.20747 0.54602 0.81968 0.0
H1131 H 0.25043 0.5344 0.82543 0.0
C1132 C 0.85154 0.53153 0.47072 0.0
C1133 C 0.88578 0.52546 0.48255 0.0
C1134 C 0.85618 0.47309 0.5155 0.0
C1135 C 0.82204 0.48492 0.51024 0.0
N1136 N 0.78807 0.53026 0.48699 0.0
N1137 N 0.92093 0.49465 0.52142 0.0
C1138 C 0.81977 0.51525 0.48861 0.0
C1139 C 0.88825 0.49736 0.50639 0.0
N1140 N 0.8497 0.55348 0.44282 0.0
N1141 N 0.85812 0.43766 0.5271 0.0
H1142 H 0.94525 0.51164 0.5152 0.0
H1143 H 0.92331 0.47774 0.54241 0.0
H1144 H 0.83527 0.41698 0.53101 0.0
H1145 H 0.88246 0.42645 0.52809 0.0
H1146 H 0.8253 0.55626 0.43063 0.0
H1147 H 0.87298 0.56571 0.42958 0.0
H1148 H 0.78612 0.5549 0.47438 0.0
H1149 H 0.7647 0.52102 0.5017 0.0
C1150 C 0.78112 0.92303 0.84014 0.0
C1151 C 0.76592 0.88179 0.8304 0.0
C1152 C 0.70527 0.90029 0.82678 0.0
C1153 C 0.72109 0.94167 0.83352 0.0
N1154 N 0.77521 0.99166 0.83705 0.0
N1155 N 0.71508 0.83048 0.80855 0.0
C1156 C 0.75939 0.95286 0.83749 0.0
C1157 C 0.72837 0.87022 0.8219 0.0
N1158 N 0.81611 0.93366 0.8532 0.0
N1159 N 0.66832 0.88978 0.82674 0.0
H1160 H 0.73156 0.80807 0.80502 0.0
H1161 H 0.68867 0.82022 0.79818 0.0
H1162 H 0.65059 0.91096 0.83071 0.0
H1163 H 0.65529 0.86036 0.82588 0.0
H1164 H 0.82774 0.9633 0.86446 0.0
H1165 H 0.83226 0.9123 0.85632 0.0
H1166 H 0.80323 1.00047 0.83604 0.0
H1167 H 0.76043 0.0142 0.83352 0.0
C1168 C 0.61899 0.58435 0.03161 0.0
C1169 C 0.61365 0.54169 0.02039 0.0
C1170 C 0.67994 0.54515 0.01673 0.0
C1171 C 0.68414 0.58741 0.01785 0.0
N1172 N 0.65446 0.64613 0.02022 0.0
N1173 N 0.64033 0.48156 0.99855 0.0
C1174 C 0.65296 0.60706 0.02452 0.0
C1175 C 0.64453 0.52199 0.01245 0.0
N1176 N 0.59048 0.6032 0.04591 0.0
N1177 N 0.70949 0.52714 0.02064 0.0
H1178 H 0.61496 0.46397 0.99486 0.0
H1179 H 0.66184 0.46644 0.98814 0.0
H1180 H 0.73554 0.54341 0.02639 0.0
H1181 H 0.70729 0.49693 0.02293 0.0
H1182 H 0.59344 0.63397 0.0577 0.0
H1183 H 0.56456 0.5873 0.04871 0.0
H1184 H 0.63151 0.66023 0.02131 0.0
H1185 H 0.67737 0.66303 0.01074 0.0
C1186 C 0.2763 0.66039 0.257 0.0
C1187 C 0.2724 0.69851 0.27985 0.0
C1188 C 0.22338 0.66611 0.31606 0.0
C1189 C 0.22603 0.62853 0.29172 0.0
N1190 N 0.25946 0.58736 0.24549 0.0
N1191 N 0.23747 0.73885 0.32518 0.0
C1192 C 0.25405 0.62489 0.26425 0.0
C1193 C 0.24518 0.70162 0.30845 0.0
N1194 N 0.2987 0.65881 0.2259 0.0
N1195 N 0.19974 0.66783 0.34623 0.0
H1196 H 0.25076 0.76529 0.31764 0.0
H1197 H 0.21554 0.74355 0.34331 0.0
H1198 H 0.18241 0.6426 0.35188 0.0
H1199 H 0.19934 0.69346 0.36757 0.0
H1200 H 0.30044 0.63274 0.20558 0.0
H1201 H 0.31325 0.68463 0.21837 0.0
H1202 H 0.28155 0.58202 0.22777 0.0
H1203 H 0.24332 0.56097 0.25028 0.0
C1204 C 0.92912 0.56221 0.02968 0.0
C1205 C 0.91811 0.54047 0.0591 0.0
C1206 C 0.85851 0.56278 0.06205 0.0
C1207 C 0.86818 0.58104 0.02979 0.0
N1208 N 0.91218 0.59922 0.98277 0.0
N1209 N 0.87361 0.51866 0.10345 0.0
C1210 C 0.9035 0.58128 0.0137 0.0
C1211 C 0.88326 0.54086 0.07571 0.0
N1212 N 0.96432 0.56463 0.01747 0.0
N1213 N 0.82553 0.566 0.07921 0.0
H1214 H 0.8918 0.50341 0.11446 0.0
H1215 H 0.84752 0.51373 0.11446 0.0
H1216 H 0.80601 0.58005 0.06889 0.0
H1217 H 0.81799 0.55674 0.10487 0.0
H1218 H 0.97556 0.58242 0.99823 0.0
H1219 H 0.98333 0.55066 0.02877 0.0
H1220 H 0.93582 0.59691 0.96685 0.0
H1221 H 0.89495 0.61571 0.97198 0.0
C1222 C 0.06276 0.98807 0.04645 0.0
C1223 C 0.07234 0.0308 0.05736 0.0
C1224 C 0.13644 0.02455 0.04314 0.0
C1225 C 0.12704 0.98187 0.03551 0.0
N1226 N 0.08144 0.92289 0.0213 0.0
N1227 N 0.11815 0.08951 0.0687 0.0
C1228 C 0.09017 0.9636 0.03452 0.0
C1229 C 0.1091 0.04901 0.05551 0.0
N1230 N 0.02752 0.97087 0.05033 0.0
N1231 N 0.17159 0.04166 0.03834 0.0
H1232 H 0.09863 0.10785 0.07728 0.0
H1233 H 0.14466 0.10464 0.07312 0.0
H1234 H 0.19257 0.02478 0.03074 0.0
H1235 H 0.17974 0.07235 0.03921 0.0
H1236 H 0.01893 0.94005 0.04805 0.0
H1237 H 0.00666 0.98796 0.0575 0.0
H1238 H 0.05501 0.9078 0.01602 0.0
H1239 H 0.10102 0.90425 0.01284 0.0
loop_
_geom_bond_atom_site_label_1
_geom_bond_atom_site_label_2
_geom_bond_distance
_geom_bond_site_symmetry_2
_ccdc_geom_bond_type
C0 N1 1.317 . S
C0 N2 1.348 . S
C0 C3 1.485 . S
N1 C0 1.317 . S
N1 N5 1.370 . S
N2 C0 1.348 . S
N2 C4 1.346 . S
C3 C0 1.485 . S
C3 H7 0.960 . S
C3 H8 0.961 . S
C3 H9 0.960 . S
C4 N2 1.346 . S
C4 N5 1.307 . S
C4 C6 1.486 . S
N5 N1 1.370 . S
N5 C4 1.307 . S
C6 C4 1.486 . S
C6 H10 0.960 . S
C6 H11 0.960 . S
C6 H12 0.959 . S
H7 C3 0.960 . S
H8 C3 0.961 . S
H9 C3 0.960 . S
H10 C6 0.960 . S
H11 C6 0.960 . S
H12 C6 0.959 . S
C13 N14 1.317 . S
C13 N15 1.348 . S
C13 C16 1.485 . S
N14 C13 1.317 . S
N14 N18 1.370 . S
N15 C13 1.348 . S
N15 C17 1.346 . S
C16 C13 1.485 . S
C16 H20 0.960 . S
C16 H21 0.961 . S
C16 H22 0.960 . S
C17 N15 1.346 . S
C17 N18 1.307 . S
C17 C19 1.486 . S
N18 N14 1.370 . S
N18 C17 1.307 . S
C19 C17 1.486 . S
C19 H23 0.960 . S
C19 H24 0.960 . S
C19 H25 0.959 . S
H20 C16 0.960 . S
H21 C16 0.961 . S
H22 C16 0.960 . S
H23 C19 0.960 . S
H24 C19 0.960 . S
H25 C19 0.959 . S
C26 N27 1.317 . S
C26 N28 1.348 . S
C26 C29 1.485 . S
N27 C26 1.317 . S
N27 N31 1.370 . S
N28 C26 1.348 . S
N28 C30 1.346 . S
C29 C26 1.485 . S
C29 H33 0.960 . S
C29 H34 0.961 . S
C29 H35 0.960 . S
C30 N28 1.346 . S
C30 N31 1.307 . S
C30 C32 1.486 . S
N31 N27 1.370 . S
N31 C30 1.307 . S
C32 C30 1.486 . S
C32 H36 0.960 . S
C32 H37 0.960 . S
C32 H38 0.959 . S
H33 C29 0.960 . S
H34 C29 0.961 . S
H35 C29 0.960 . S
H36 C32 0.960 . S
H37 C32 0.960 . S
H38 C32 0.959 . S
C39 N40 1.317 . S
C39 N41 1.348 . S
C39 C42 1.485 . S
N40 C39 1.317 . S
N40 N44 1.370 . S
N41 C39 1.348 . S
N41 C43 1.346 . S
C42 C39 1.485 . S
C42 H46 0.960 . S
C42 H47 0.961 . S
C42 H48 0.960 . S
C43 N41 1.346 . S
C43 N44 1.307 . S
C43 C45 1.486 . S
N44 N40 1.370 . S
N44 C43 1.307 . S
C45 C43 1.486 . S
C45 H49 0.960 . S
C45 H50 0.960 . S
C45 H51 0.959 . S
H46 C42 0.960 . S
H47 C42 0.961 . S
H48 C42 0.960 . S
H49 C45 0.960 . S
H50 C45 0.960 . S
H51 C45 0.959 . S
C52 N53 1.317 . S
C52 N54 1.348 . S
C52 C55 1.485 . S
N53 C52 1.317 . S
N53 N57 1.370 . S
N54 C52 1.348 . S
N54 C56 1.346 . S
C55 C52 1.485 . S
C55 H59 0.960 . S
C55 H60 0.961 1_455 S
C55 H61 0.960 . S
C56 N54 1.346 . S
C56 N57 1.307 . S
C56 C58 1.486 1_565 S
N57 N53 1.370 . S
N57 C56 1.307 . S
C58 C56 1.486 1_545 S
C58 H62 0.960 . S
C58 H63 0.960 . S
C58 H64 0.959 . S
H59 C55 0.960 . S
H60 C55 0.961 1_655 S
H61 C55 0.960 . S
H62 C58 0.960 . S
H63 C58 0.960 . S
H64 C58 0.959 . S
C65 N66 1.317 . S
C65 N67 1.348 . S
C65 C68 1.485 . S
N66 C65 1.317 . S
N66 N70 1.370 . S
N67 C65 1.348 . S
N67 C69 1.346 . S
C68 C65 1.485 . S
C68 H72 0.960 . S
C68 H73 0.961 . S
C68 H74 0.960 . S
C69 N67 1.346 . S
C69 N70 1.307 . S
C69 C71 1.486 . S
N70 N66 1.370 . S
N70 C69 1.307 . S
C71 C69 1.486 . S
C71 H75 0.960 . S
C71 H76 0.960 . S
C71 H77 0.959 . S
H72 C68 0.960 . S
H73 C68 0.961 . S
H74 C68 0.960 . S
H75 C71 0.960 . S
H76 C71 0.960 . S
H77 C71 0.959 . S
C78 N79 1.317 . S
C78 N80 1.348 . S
C78 C81 1.485 . S
N79 C78 1.317 . S
N79 N83 1.370 . S
N80 C78 1.348 . S
N80 C82 1.346 . S
C81 C78 1.485 . S
C81 H85 0.960 . S
C81 H86 0.961 . S
C81 H87 0.960 . S
C82 N80 1.346 . S
C82 N83 1.307 . S
C82 C84 1.486 . S
N83 N79 1.370 . S
N83 C82 1.307 . S
C84 C82 1.486 . S
C84 H88 0.960 . S
C84 H89 0.960 . S
C84 H90 0.959 . S
H85 C81 0.960 . S
H86 C81 0.961 . S
H87 C81 0.960 . S
H88 C84 0.960 . S
H89 C84 0.960 . S
H90 C84 0.959 . S
C91 N92 1.317 . S
C91 N93 1.348 . S
C91 C94 1.485 . S
N92 C91 1.317 . S
N92 N96 1.370 . S
N93 C91 1.348 . S
N93 C95 1.346 . S
C94 C91 1.485 . S
C94 H98 0.960 . S
C94 H99 0.961 . S
C94 H100 0.960 . S
C95 N93 1.346 . S
C95 N96 1.307 . S
C95 C97 1.486 . S
N96 N92 1.370 . S
N96 C95 1.307 . S
C97 C95 1.486 . S
C97 H101 0.960 . S
C97 H102 0.960 . S
C97 H103 0.959 . S
H98 C94 0.960 . S
H99 C94 0.961 . S
H100 C94 0.960 . S
H101 C97 0.960 . S
H102 C97 0.960 . S
H103 C97 0.959 . S
C104 N105 1.317 . S
C104 N106 1.348 . S
C104 C107 1.485 . S
N105 C104 1.317 . S
N105 N109 1.370 . S
N106 C104 1.348 . S
N106 C108 1.346 . S
C107 C104 1.485 . S
C107 H111 0.960 . S
C107 H112 0.961 . S
C107 H113 0.960 . S
C108 N106 1.346 . S
C108 N109 1.307 . S
C108 C110 1.486 . S
N109 N105 1.370 . S
N109 C108 1.307 . S
C110 C108 1.486 . S
C110 H114 0.960 . S
C110 H115 0.960 . S
C110 H116 0.959 . S
H111 C107 0.960 . S
H112 C107 0.961 . S
H113 C107 0.960 . S
H114 C110 0.960 . S
H115 C110 0.960 . S
H116 C110 0.959 . S
C117 N118 1.317 . S
C117 N119 1.348 . S
C117 C120 1.485 . S
N118 C117 1.317 . S
N118 N122 1.370 . S
N119 C117 1.348 . S
N119 C121 1.346 . S
C120 C117 1.485 . S
C120 H124 0.960 . S
C120 H125 0.961 1_565 S
C120 H126 0.960 . S
C121 N119 1.346 . S
C121 N122 1.307 . S
C121 C123 1.486 . S
N122 N118 1.370 . S
N122 C121 1.307 . S
C123 C121 1.486 . S
C123 H127 0.960 . S
C123 H128 0.960 . S
C123 H129 0.959 . S
H124 C120 0.960 . S
H125 C120 0.961 1_545 S
H126 C120 0.960 . S
H127 C123 0.960 . S
H128 C123 0.960 . S
H129 C123 0.959 . S
C130 N131 1.317 . S
C130 N132 1.348 . S
C130 C133 1.485 . S
N131 C130 1.317 . S
N131 N135 1.370 . S
N132 C130 1.348 . S
N132 C134 1.346 . S
C133 C130 1.485 . S
C133 H137 0.960 . S
C133 H138 0.961 . S
C133 H139 0.960 . S
C134 N132 1.346 . S
C134 N135 1.307 . S
C134 C136 1.486 . S
N135 N131 1.370 . S
N135 C134 1.307 . S
C136 C134 1.486 . S
C136 H140 0.960 . S
C136 H141 0.960 . S
C136 H142 0.959 . S
H137 C133 0.960 . S
H138 C133 0.961 . S
H139 C133 0.960 . S
H140 C136 0.960 . S
H141 C136 0.960 . S
H142 C136 0.959 . S
C143 N144 1.317 . S
C143 N145 1.348 . S
C143 C146 1.485 . S
N144 C143 1.317 . S
N144 N148 1.370 . S
N145 C143 1.348 . S
N145 C147 1.346 . S
C146 C143 1.485 . S
C146 H150 0.960 . S
C146 H151 0.961 . S
C146 H152 0.960 . S
C147 N145 1.346 . S
C147 N148 1.307 . S
C147 C149 1.486 . S
N148 N144 1.370 . S
N148 C147 1.307 . S
C149 C147 1.486 . S
C149 H153 0.960 . S
C149 H154 0.960 . S
C149 H155 0.959 . S
H150 C146 0.960 . S
H151 C146 0.961 . S
H152 C146 0.960 . S
H153 C149 0.960 . S
H154 C149 0.960 . S
H155 C149 0.959 . S
C156 N157 1.317 . S
C156 N158 1.348 . S
C156 C159 1.485 . S
N157 C156 1.317 . S
N157 N161 1.370 . S
N158 C156 1.348 . S
N158 C160 1.346 . S
C159 C156 1.485 . S
C159 H163 0.960 . S
C159 H164 0.961 . S
C159 H165 0.960 . S
C160 N158 1.346 . S
C160 N161 1.307 . S
C160 C162 1.486 . S
N161 N157 1.370 . S
N161 C160 1.307 . S
C162 C160 1.486 . S
C162 H166 0.960 . S
C162 H167 0.960 . S
C162 H168 0.959 . S
H163 C159 0.960 . S
H164 C159 0.961 . S
H165 C159 0.960 . S
H166 C162 0.960 . S
H167 C162 0.960 . S
H168 C162 0.959 . S
C169 N170 1.317 . S
C169 N171 1.348 . S
C169 C172 1.485 . S
N170 C169 1.317 . S
N170 N174 1.370 . S
N171 C169 1.348 . S
N171 C173 1.346 . S
C172 C169 1.485 . S
C172 H176 0.960 . S
C172 H177 0.961 . S
C172 H178 0.960 . S
C173 N171 1.346 . S
C173 N174 1.307 . S
C173 C175 1.486 . S
N174 N170 1.370 . S
N174 C173 1.307 . S
C175 C173 1.486 . S
C175 H179 0.960 . S
C175 H180 0.960 . S
C175 H181 0.959 . S
H176 C172 0.960 . S
H177 C172 0.961 . S
H178 C172 0.960 . S
H179 C175 0.960 . S
H180 C175 0.960 . S
H181 C175 0.959 . S
C182 N183 1.317 . S
C182 N184 1.348 . S
C182 C185 1.485 . S
N183 C182 1.317 . S
N183 N187 1.370 . S
N184 C182 1.348 . S
N184 C186 1.346 . S
C185 C182 1.485 . S
C185 H189 0.960 . S
C185 H190 0.961 . S
C185 H191 0.960 . S
C186 N184 1.346 . S
C186 N187 1.307 . S
C186 C188 1.486 . S
N187 N183 1.370 . S
N187 C186 1.307 . S
C188 C186 1.486 . S
C188 H192 0.960 . S
C188 H193 0.960 . S
C188 H194 0.959 . S
H189 C185 0.960 . S
H190 C185 0.961 . S
H191 C185 0.960 . S
H192 C188 0.960 . S
H193 C188 0.960 . S
H194 C188 0.959 . S
C195 N196 1.317 . S
C195 N197 1.348 . S
C195 C198 1.485 . S
N196 C195 1.317 . S
N196 N200 1.370 . S
N197 C195 1.348 . S
N197 C199 1.346 . S
C198 C195 1.485 . S
C198 H202 0.960 . S
C198 H203 0.981 . S
C198 H204 0.960 . S
C199 N197 1.346 . S
C199 N200 1.307 . S
C199 C201 1.486 1_556 S
N200 N196 1.370 . S
N200 C199 1.307 . S
C201 C199 1.486 1_554 S
C201 H205 0.960 . S
C201 H206 0.960 . S
C201 H207 0.959 . S
H202 C198 0.960 . S
H203 C198 0.981 . S
H204 C198 0.960 . S
H205 C201 0.960 . S
H206 C201 0.960 . S
H207 C201 0.959 . S
O208 Cd209 2.223 . S
O208 C216 1.315 . S
Cd209 O208 2.223 . S
Cd209 O212 2.297 . S
Cd209 O213 2.439 . S
Cd209 O219 2.240 . S
Cd210 O211 2.240 . S
Cd210 O218 2.223 . S
Cd210 O220 2.297 1_565 S
Cd210 O221 2.439 . S
O211 Cd210 2.240 . S
O211 C216 1.279 . S
O212 Cd209 2.297 . S
O212 C214 1.247 . S
O213 Cd209 2.439 . S
O213 C214 1.208 . S
C214 O212 1.247 . S
C214 O213 1.208 . S
C215 O220 1.247 . S
C215 O221 1.208 1_545 S
C216 O208 1.315 . S
C216 O211 1.279 . S
C217 O218 1.315 . S
C217 O219 1.279 . S
O218 Cd210 2.223 . S
O218 C217 1.315 . S
O219 Cd209 2.240 . S
O219 C217 1.279 . S
O220 Cd210 2.297 1_545 S
O220 C215 1.247 . S
O221 Cd210 2.439 . S
O221 C215 1.208 1_565 S
O222 Cd223 2.223 . S
O222 C230 1.315 . S
Cd223 O222 2.223 . S
Cd223 O226 2.297 . S
Cd223 O227 2.439 . S
Cd223 O233 2.240 . S
Cd224 O225 2.240 . S
Cd224 O232 2.223 . S
Cd224 O234 2.297 . S
Cd224 O235 2.439 . S
O225 Cd224 2.240 . S
O225 C230 1.279 . S
O226 Cd223 2.297 . S
O226 C228 1.247 . S
O227 Cd223 2.439 . S
O227 C228 1.208 . S
C228 O226 1.247 . S
C228 O227 1.208 . S
C229 O234 1.247 . S
C229 O235 1.208 . S
C230 O222 1.315 . S
C230 O225 1.279 . S
C231 O232 1.315 . S
C231 O233 1.279 . S
O232 Cd224 2.223 . S
O232 C231 1.315 . S
O233 Cd223 2.240 . S
O233 C231 1.279 . S
O234 Cd224 2.297 . S
O234 C229 1.247 . S
O235 Cd224 2.439 . S
O235 C229 1.208 . S
O236 Cd237 2.223 1_556 S
O236 C244 1.315 . S
Cd237 O236 2.223 1_554 S
Cd237 O240 2.297 . S
Cd237 O241 2.439 . S
Cd237 O247 2.241 . S
Cd238 O239 2.240 . S
Cd238 O246 2.223 . S
Cd238 O248 2.297 . S
Cd238 O249 2.439 1_556 S
O239 Cd238 2.240 . S
O239 C244 1.279 . S
O240 Cd237 2.297 . S
O240 C242 1.247 . S
O241 Cd237 2.439 . S
O241 C242 1.208 . S
C242 O240 1.247 . S
C242 O241 1.208 . S
C243 O248 1.247 1_554 S
C243 O249 1.208 . S
C244 O236 1.315 . S
C244 O239 1.279 . S
C245 O246 1.315 . S
C245 O247 1.274 1_556 S
O246 Cd238 2.223 . S
O246 C245 1.315 . S
O247 Cd237 2.241 . S
O247 C245 1.274 1_554 S
O248 Cd238 2.297 . S
O248 C243 1.247 1_556 S
O249 Cd238 2.439 1_554 S
O249 C243 1.208 . S
O250 Cd251 2.223 1_565 S
O250 C258 1.315 1_565 S
Cd251 O250 2.223 1_545 S
Cd251 O254 2.297 . S
Cd251 O255 2.439 . S
Cd251 O261 2.240 . S
Cd252 O253 2.240 . S
Cd252 O260 2.223 . S
Cd252 O262 2.297 . S
Cd252 O263 2.439 . S
O253 Cd252 2.240 . S
O253 C258 1.279 . S
O254 Cd251 2.297 . S
O254 C256 1.247 . S
O255 Cd251 2.439 . S
O255 C256 1.208 . S
C256 O254 1.247 . S
C256 O255 1.208 . S
C257 O262 1.247 . S
C257 O263 1.208 . S
C258 O250 1.315 1_545 S
C258 O253 1.279 . S
C259 O260 1.315 1_565 S
C259 O261 1.277 1_565 S
O260 Cd252 2.223 . S
O260 C259 1.315 1_545 S
O261 Cd251 2.240 . S
O261 C259 1.277 1_545 S
O262 Cd252 2.297 . S
O262 C257 1.247 . S
O263 Cd252 2.439 . S
O263 C257 1.208 . S
O264 Cd265 2.223 . S
O264 C272 1.315 . S
Cd265 O264 2.223 . S
Cd265 O268 2.297 . S
Cd265 O269 2.439 . S
Cd265 O275 2.240 . S
Cd266 O267 2.240 . S
Cd266 O274 2.223 . S
Cd266 O276 2.297 . S
Cd266 O277 2.439 . S
O267 Cd266 2.240 . S
O267 C272 1.279 . S
O268 Cd265 2.297 . S
O268 C270 1.247 . S
O269 Cd265 2.439 . S
O269 C270 1.208 . S
C270 O268 1.247 . S
C270 O269 1.208 . S
C271 O276 1.247 . S
C271 O277 1.208 . S
C272 O264 1.315 . S
C272 O267 1.279 . S
C273 O274 1.315 . S
C273 O275 1.279 . S
O274 Cd266 2.223 . S
O274 C273 1.315 . S
O275 Cd265 2.240 . S
O275 C273 1.279 . S
O276 Cd266 2.297 . S
O276 C271 1.247 . S
O277 Cd266 2.439 . S
O277 C271 1.208 . S
O278 Cd279 2.223 . S
O278 C286 1.315 . S
Cd279 O278 2.223 . S
Cd279 O282 2.297 . S
Cd279 O283 2.439 . S
Cd279 O289 2.240 . S
Cd280 O281 2.240 . S
Cd280 O288 2.223 . S
Cd280 O290 2.297 . S
Cd280 O291 2.439 . S
O281 Cd280 2.240 . S
O281 C286 1.279 . S
O282 Cd279 2.297 . S
O282 C284 1.247 . S
O283 Cd279 2.439 . S
O283 C284 1.208 . S
C284 O282 1.247 . S
C284 O283 1.208 . S
C285 O290 1.247 . S
C285 O291 1.208 . S
C286 O278 1.315 . S
C286 O281 1.279 . S
C287 O288 1.315 . S
C287 O289 1.279 . S
O288 Cd280 2.223 . S
O288 C287 1.315 . S
O289 Cd279 2.240 . S
O289 C287 1.279 . S
O290 Cd280 2.297 . S
O290 C285 1.247 . S
O291 Cd280 2.439 . S
O291 C285 1.208 . S
O292 Cd293 2.223 . S
O292 C300 1.315 . S
Cd293 O292 2.223 . S
Cd293 O296 2.297 . S
Cd293 O297 2.439 . S
Cd293 O303 2.240 . S
Cd294 O295 2.240 . S
Cd294 O302 2.223 . S
Cd294 O304 2.297 . S
Cd294 O305 2.439 . S
O295 Cd294 2.240 . S
O295 C300 1.279 . S
O296 Cd293 2.297 . S
O296 C298 1.247 . S
O297 Cd293 2.439 . S
O297 C298 1.208 . S
C298 O296 1.247 . S
C298 O297 1.208 . S
C299 O304 1.247 . S
C299 O305 1.208 . S
C300 O292 1.315 . S
C300 O295 1.279 . S
C301 O302 1.315 . S
C301 O303 1.279 . S
O302 Cd294 2.223 . S
O302 C301 1.315 . S
O303 Cd293 2.240 . S
O303 C301 1.279 . S
O304 Cd294 2.297 . S
O304 C299 1.247 . S
O305 Cd294 2.439 . S
O305 C299 1.208 . S
O306 Cd307 2.223 1_545 S
O306 C314 1.315 . S
Cd307 O306 2.223 1_565 S
Cd307 O310 2.297 . S
Cd307 O311 2.439 . S
Cd307 O317 2.240 1_565 S
Cd308 O309 2.240 . S
Cd308 O316 2.223 . S
Cd308 O318 2.297 . S
Cd308 O319 2.439 1_545 S
O309 Cd308 2.240 . S
O309 C314 1.279 . S
O310 Cd307 2.297 . S
O310 C312 1.247 . S
O311 Cd307 2.439 . S
O311 C312 1.208 . S
C312 O310 1.247 . S
C312 O311 1.208 . S
C313 O318 1.247 1_565 S
C313 O319 1.208 . S
C314 O306 1.315 . S
C314 O309 1.279 . S
C315 O316 1.315 . S
C315 O317 1.279 . S
O316 Cd308 2.223 . S
O316 C315 1.315 . S
O317 Cd307 2.240 1_545 S
O317 C315 1.279 . S
O318 Cd308 2.297 . S
O318 C313 1.247 1_545 S
O319 Cd308 2.439 1_565 S
O319 C313 1.208 . S
O320 Cd321 2.223 . S
O320 C328 1.315 . S
Cd321 O320 2.223 . S
Cd321 O324 2.297 1_556 S
Cd321 O325 2.439 1_655 S
Cd321 O331 2.240 . S
Cd322 O323 2.240 1_455 S
Cd322 O330 2.223 1_455 S
Cd322 O332 2.297 . S
Cd322 O333 2.439 . S
O323 Cd322 2.240 1_655 S
O323 C328 1.279 . S
O324 Cd321 2.297 1_554 S
O324 C326 1.247 1_654 S
O325 Cd321 2.439 1_455 S
O325 C326 1.208 . S
C326 O324 1.247 1_456 S
C326 O325 1.208 . S
C327 O332 1.247 . S
C327 O333 1.208 . S
C328 O320 1.315 . S
C328 O323 1.279 . S
C329 O330 1.315 . S
C329 O331 1.279 . S
O330 Cd322 2.223 1_655 S
O330 C329 1.315 . S
O331 Cd321 2.240 . S
O331 C329 1.279 . S
O332 Cd322 2.297 . S
O332 C327 1.247 . S
O333 Cd322 2.439 . S
O333 C327 1.208 . S
O334 Cd335 2.223 . S
O334 C342 1.315 . S
Cd335 O334 2.223 . S
Cd335 O338 2.297 . S
Cd335 O339 2.439 . S
Cd335 O345 2.240 . S
Cd336 O337 2.240 . S
Cd336 O344 2.223 . S
Cd336 O346 2.297 . S
Cd336 O347 2.439 . S
O337 Cd336 2.240 . S
O337 C342 1.279 . S
O338 Cd335 2.297 . S
O338 C340 1.247 . S
O339 Cd335 2.439 . S
O339 C340 1.208 . S
C340 O338 1.247 . S
C340 O339 1.208 . S
C341 O346 1.247 . S
C341 O347 1.208 . S
C342 O334 1.315 . S
C342 O337 1.279 . S
C343 O344 1.315 . S
C343 O345 1.279 . S
O344 Cd336 2.223 . S
O344 C343 1.315 . S
O345 Cd335 2.240 . S
O345 C343 1.279 . S
O346 Cd336 2.297 . S
O346 C341 1.247 . S
O347 Cd336 2.439 . S
O347 C341 1.208 . S
O348 Cd349 2.223 1_655 S
O348 C356 1.315 . S
Cd349 O348 2.223 1_455 S
Cd349 O352 2.297 . S
Cd349 O353 2.439 . S
Cd349 O359 2.240 . S
Cd350 O351 2.240 . S
Cd350 O358 2.223 . S
Cd350 O360 2.297 1_655 S
Cd350 O361 2.439 1_655 S
O351 Cd350 2.240 . S
O351 C356 1.279 . S
O352 Cd349 2.297 . S
O352 C354 1.247 . S
O353 Cd349 2.439 . S
O353 C354 1.208 . S
C354 O352 1.247 . S
C354 O353 1.208 . S
C355 O360 1.247 . S
C355 O361 1.208 . S
C356 O348 1.315 . S
C356 O351 1.279 . S
C357 O358 1.315 . S
C357 O359 1.279 1_655 S
O358 Cd350 2.223 . S
O358 C357 1.315 . S
O359 Cd349 2.240 . S
O359 C357 1.279 1_455 S
O360 Cd350 2.297 1_455 S
O360 C355 1.247 . S
O361 Cd350 2.439 1_455 S
O361 C355 1.208 . S
O362 Cd363 2.223 . S
O362 C370 1.315 . S
Cd363 O362 2.223 . S
Cd363 O366 2.297 . S
Cd363 O367 2.439 . S
Cd363 O373 2.240 . S
Cd364 O365 2.240 . S
Cd364 O372 2.223 . S
Cd364 O374 2.297 . S
Cd364 O375 2.439 . S
O365 Cd364 2.240 . S
O365 C370 1.279 . S
O366 Cd363 2.297 . S
O366 C368 1.247 . S
O367 Cd363 2.439 . S
O367 C368 1.208 . S
C368 O366 1.247 . S
C368 O367 1.208 . S
C369 O374 1.247 . S
C369 O375 1.208 . S
C370 O362 1.315 . S
C370 O365 1.279 . S
C371 O372 1.315 . S
C371 O373 1.279 . S
O372 Cd364 2.223 . S
O372 C371 1.315 . S
O373 Cd363 2.240 . S
O373 C371 1.279 . S
O374 Cd364 2.297 . S
O374 C369 1.247 . S
O375 Cd364 2.439 . S
O375 C369 1.208 . S
C376 C377 1.363 . S
C376 C382 1.379 . S
C376 N384 1.356 . S
C377 C376 1.363 . S
C377 C383 1.363 . S
C378 C379 1.363 . S
C378 C383 1.379 . S
C378 N385 1.356 1_556 S
C379 C378 1.363 . S
C379 C382 1.363 . S
N380 C382 1.356 . S
N380 H392 0.984 . S
N380 H393 0.985 . S
N381 C383 1.356 . S
N381 H386 0.984 . S
N381 H387 0.985 . S
C382 C376 1.379 . S
C382 C379 1.363 . S
C382 N380 1.356 . S
C383 C377 1.363 . S
C383 C378 1.379 . S
C383 N381 1.356 . S
N384 C376 1.356 . S
N384 H390 0.984 . S
N384 H391 0.984 . S
N385 C378 1.356 1_554 S
N385 H388 0.984 . S
N385 H389 0.985 . S
H386 N381 0.984 . S
H387 N381 0.985 . S
H388 N385 0.984 . S
H389 N385 0.985 . S
H390 N384 0.984 . S
H391 N384 0.984 . S
H392 N380 0.984 . S
H393 N380 0.985 . S
C394 C395 1.363 1_455 S
C394 C400 1.379 . S
C394 N402 1.356 1_455 S
C395 C394 1.363 1_655 S
C395 C401 1.363 . S
C396 C397 1.363 . S
C396 C401 1.379 1_455 S
C396 N403 1.356 . S
C397 C396 1.363 . S
C397 C400 1.363 . S
N398 C400 1.356 . S
N398 H410 0.984 . S
N398 H411 0.985 . S
N399 C401 1.356 . S
N399 H404 0.984 . S
N399 H405 0.985 . S
C400 C394 1.379 . S
C400 C397 1.363 . S
C400 N398 1.356 . S
C401 C395 1.363 . S
C401 C396 1.379 1_655 S
C401 N399 1.356 . S
N402 C394 1.356 1_655 S
N402 H408 0.984 1_655 S
N402 H409 0.984 . S
N403 C396 1.356 . S
N403 H406 0.984 . S
N403 H407 0.985 . S
H404 N399 0.984 . S
H405 N399 0.985 . S
H406 N403 0.984 . S
H407 N403 0.985 . S
H408 N402 0.984 1_455 S
H409 N402 0.984 . S
H410 N398 0.984 . S
H411 N398 0.985 . S
C412 C413 1.363 . S
C412 C418 1.379 . S
C412 N420 1.356 . S
C413 C412 1.363 . S
C413 C419 1.363 . S
C414 C415 1.363 . S
C414 C419 1.379 . S
C414 N421 1.356 . S
C415 C414 1.363 . S
C415 C418 1.363 . S
N416 C418 1.356 . S
N416 H428 0.984 . S
N416 H429 0.985 . S
N417 C419 1.356 . S
N417 H422 0.984 . S
N417 H423 0.985 . S
C418 C412 1.379 . S
C418 C415 1.363 . S
C418 N416 1.356 . S
C419 C413 1.363 . S
C419 C414 1.379 . S
C419 N417 1.356 . S
N420 C412 1.356 . S
N420 H426 0.984 . S
N420 H427 0.984 . S
N421 C414 1.356 . S
N421 H424 0.984 . S
N421 H425 0.985 . S
H422 N417 0.984 . S
H423 N417 0.985 . S
H424 N421 0.984 . S
H425 N421 0.985 . S
H426 N420 0.984 . S
H427 N420 0.984 . S
H428 N416 0.984 . S
H429 N416 0.985 . S
C430 C431 1.363 1_545 S
C430 C436 1.379 1_455 S
C430 N438 1.356 . S
C431 C430 1.363 1_565 S
C431 C437 1.363 1_455 S
C432 C433 1.363 1_565 S
C432 C437 1.379 . S
C432 N439 1.356 . S
C433 C432 1.363 1_545 S
C433 C436 1.363 . S
N434 C436 1.356 . S
N434 H446 0.984 . S
N434 H447 0.985 . S
N435 C437 1.356 . S
N435 H440 0.984 1_655 S
N435 H441 0.985 . S
C436 C430 1.379 1_655 S
C436 C433 1.363 . S
C436 N434 1.356 . S
C437 C431 1.363 1_655 S
C437 C432 1.379 . S
C437 N435 1.356 . S
N438 C430 1.356 . S
N438 H444 0.984 . S
N438 H445 0.984 . S
N439 C432 1.356 . S
N439 H442 0.984 . S
N439 H443 0.985 . S
H440 N435 0.984 1_455 S
H441 N435 0.985 . S
H442 N439 0.984 . S
H443 N439 0.985 . S
H444 N438 0.984 . S
H445 N438 0.984 . S
H446 N434 0.984 . S
H447 N434 0.985 . S
C448 C449 1.363 . S
C448 C454 1.379 . S
C448 N456 1.356 . S
C449 C448 1.363 . S
C449 C455 1.363 . S
C450 C451 1.363 . S
C450 C455 1.379 . S
C450 N457 1.356 . S
C451 C450 1.363 . S
C451 C454 1.363 . S
N452 C454 1.356 . S
N452 H464 0.984 . S
N452 H465 0.985 . S
N453 C455 1.356 . S
N453 H458 0.984 . S
N453 H459 0.985 . S
C454 C448 1.379 . S
C454 C451 1.363 . S
C454 N452 1.356 . S
C455 C449 1.363 . S
C455 C450 1.379 . S
C455 N453 1.356 . S
N456 C448 1.356 . S
N456 H462 0.984 . S
N456 H463 0.984 . S
N457 C450 1.356 . S
N457 H460 0.984 . S
N457 H461 0.985 . S
H458 N453 0.984 . S
H459 N453 0.985 . S
H460 N457 0.984 . S
H461 N457 0.985 . S
H462 N456 0.984 . S
H463 N456 0.984 . S
H464 N452 0.984 . S
H465 N452 0.985 . S
C466 C467 1.363 . S
C466 C472 1.379 . S
C466 N474 1.356 . S
C467 C466 1.363 . S
C467 C473 1.363 . S
C468 C469 1.363 . S
C468 C473 1.379 . S
C468 N475 1.356 . S
C469 C468 1.363 . S
C469 C472 1.363 . S
N470 C472 1.356 . S
N470 H482 0.984 . S
N470 H483 0.985 . S
N471 C473 1.356 . S
N471 H476 0.984 . S
N471 H477 0.985 . S
C472 C466 1.379 . S
C472 C469 1.363 . S
C472 N470 1.356 . S
C473 C467 1.363 . S
C473 C468 1.379 . S
C473 N471 1.356 . S
N474 C466 1.356 . S
N474 H480 0.984 . S
N474 H481 0.984 . S
N475 C468 1.356 . S
N475 H478 0.984 . S
N475 H479 0.985 . S
H476 N471 0.984 . S
H477 N471 0.985 . S
H478 N475 0.984 . S
H479 N475 0.985 . S
H480 N474 0.984 . S
H481 N474 0.984 . S
H482 N470 0.984 . S
H483 N470 0.985 . S
C484 C485 1.363 . S
C484 C490 1.379 . S
C484 N492 1.356 . S
C485 C484 1.363 . S
C485 C491 1.363 . S
C486 C487 1.363 . S
C486 C491 1.379 . S
C486 N493 1.356 . S
C487 C486 1.363 . S
C487 C490 1.363 . S
N488 C490 1.356 . S
N488 H500 0.984 . S
N488 H501 0.985 . S
N489 C491 1.356 . S
N489 H494 0.984 . S
N489 H495 0.985 . S
C490 C484 1.379 . S
C490 C487 1.363 . S
C490 N488 1.356 . S
C491 C485 1.363 . S
C491 C486 1.379 . S
C491 N489 1.356 . S
N492 C484 1.356 . S
N492 H498 0.984 . S
N492 H499 0.984 . S
N493 C486 1.356 . S
N493 H496 0.984 . S
N493 H497 0.985 . S
H494 N489 0.984 . S
H495 N489 0.985 . S
H496 N493 0.984 . S
H497 N493 0.985 . S
H498 N492 0.984 . S
H499 N492 0.984 . S
H500 N488 0.984 . S
H501 N488 0.985 . S
C502 C503 1.363 . S
C502 C508 1.379 . S
C502 N510 1.356 . S
C503 C502 1.363 . S
C503 C509 1.363 . S
C504 C505 1.363 . S
C504 C509 1.379 . S
C504 N511 1.356 . S
C505 C504 1.363 . S
C505 C508 1.363 . S
N506 C508 1.356 . S
N506 H518 0.984 . S
N506 H519 0.985 . S
N507 C509 1.356 . S
N507 H512 0.984 . S
N507 H513 0.985 . S
C508 C502 1.379 . S
C508 C505 1.363 . S
C508 N506 1.356 . S
C509 C503 1.363 . S
C509 C504 1.379 . S
C509 N507 1.356 . S
N510 C502 1.356 . S
N510 H516 0.984 . S
N510 H517 0.984 . S
N511 C504 1.356 . S
N511 H514 0.984 . S
N511 H515 0.985 1_565 S
H512 N507 0.984 . S
H513 N507 0.985 . S
H514 N511 0.984 . S
H515 N511 0.985 1_545 S
H516 N510 0.984 . S
H517 N510 0.984 . S
H518 N506 0.984 . S
H519 N506 0.985 . S
C520 C521 1.363 . S
C520 C526 1.379 . S
C520 N528 1.356 . S
C521 C520 1.363 . S
C521 C527 1.363 . S
C522 C523 1.363 . S
C522 C527 1.379 . S
C522 N529 1.356 . S
C523 C522 1.363 . S
C523 C526 1.363 . S
N524 C526 1.356 . S
N524 H536 0.984 . S
N524 H537 0.985 . S
N525 C527 1.356 . S
N525 H530 0.984 . S
N525 H531 0.985 . S
C526 C520 1.379 . S
C526 C523 1.363 . S
C526 N524 1.356 . S
C527 C521 1.363 . S
C527 C522 1.379 . S
C527 N525 1.356 . S
N528 C520 1.356 . S
N528 H534 0.984 . S
N528 H535 0.984 . S
N529 C522 1.356 . S
N529 H532 0.984 . S
N529 H533 0.985 . S
H530 N525 0.984 . S
H531 N525 0.985 . S
H532 N529 0.984 . S
H533 N529 0.985 . S
H534 N528 0.984 . S
H535 N528 0.984 . S
H536 N524 0.984 . S
H537 N524 0.985 . S
C538 C539 1.363 . S
C538 C544 1.379 . S
C538 N546 1.356 . S
C539 C538 1.363 . S
C539 C545 1.363 . S
C540 C541 1.363 . S
C540 C545 1.379 . S
C540 N547 1.356 . S
C541 C540 1.363 . S
C541 C544 1.363 . S
N542 C544 1.356 . S
N542 H554 0.984 . S
N542 H555 0.985 . S
N543 C545 1.356 . S
N543 H548 0.984 . S
N543 H549 0.985 . S
C544 C538 1.379 . S
C544 C541 1.363 . S
C544 N542 1.356 . S
C545 C539 1.363 . S
C545 C540 1.379 . S
C545 N543 1.356 . S
N546 C538 1.356 . S
N546 H552 0.984 . S
N546 H553 0.984 . S
N547 C540 1.356 . S
N547 H550 0.984 . S
N547 H551 0.985 . S
H548 N543 0.984 . S
H549 N543 0.985 . S
H550 N547 0.984 . S
H551 N547 0.985 . S
H552 N546 0.984 . S
H553 N546 0.984 . S
H554 N542 0.984 . S
H555 N542 0.985 . S
C556 C557 1.363 . S
C556 C562 1.379 . S
C556 N564 1.356 . S
C557 C556 1.363 . S
C557 C563 1.363 . S
C558 C559 1.363 . S
C558 C563 1.379 . S
C558 N565 1.356 . S
C559 C558 1.363 . S
C559 C562 1.363 . S
N560 C562 1.356 . S
N560 H572 0.984 . S
N560 H573 0.985 . S
N561 C563 1.356 . S
N561 H566 0.984 . S
N561 H567 0.985 . S
C562 C556 1.379 . S
C562 C559 1.363 . S
C562 N560 1.356 . S
C563 C557 1.363 . S
C563 C558 1.379 . S
C563 N561 1.356 . S
N564 C556 1.356 . S
N564 H570 0.984 . S
N564 H571 0.984 . S
N565 C558 1.356 . S
N565 H568 0.984 . S
N565 H569 0.985 . S
H566 N561 0.984 . S
H567 N561 0.985 . S
H568 N565 0.984 . S
H569 N565 0.985 . S
H570 N564 0.984 . S
H571 N564 0.984 . S
H572 N560 0.984 . S
H573 N560 0.985 . S
C574 C575 1.363 . S
C574 C580 1.379 . S
C574 N582 1.356 . S
C575 C574 1.363 . S
C575 C581 1.363 . S
C576 C577 1.363 . S
C576 C581 1.379 . S
C576 N583 1.356 . S
C577 C576 1.363 . S
C577 C580 1.363 . S
N578 C580 1.356 . S
N578 H590 0.984 . S
N578 H591 0.985 . S
N579 C581 1.356 . S
N579 H584 0.984 . S
N579 H585 0.985 . S
C580 C574 1.379 . S
C580 C577 1.363 . S
C580 N578 1.356 . S
C581 C575 1.363 . S
C581 C576 1.379 . S
C581 N579 1.356 . S
N582 C574 1.356 . S
N582 H588 0.984 . S
N582 H589 0.984 . S
N583 C576 1.356 . S
N583 H586 0.984 . S
N583 H587 0.985 . S
H584 N579 0.984 . S
H585 N579 0.985 . S
H586 N583 0.984 . S
H587 N583 0.985 . S
H588 N582 0.984 . S
H589 N582 0.984 . S
H590 N578 0.984 . S
H591 N578 0.985 . S
C592 C593 1.363 . S
C592 C598 1.379 . S
C592 N600 1.356 . S
C593 C592 1.363 . S
C593 C599 1.363 . S
C594 C595 1.363 . S
C594 C599 1.379 . S
C594 N601 1.356 . S
C595 C594 1.363 . S
C595 C598 1.363 . S
N596 C598 1.356 . S
N596 H608 0.984 . S
N596 H609 0.985 . S
N597 C599 1.356 . S
N597 H602 0.984 . S
N597 H603 0.985 . S
C598 C592 1.379 . S
C598 C595 1.363 . S
C598 N596 1.356 . S
C599 C593 1.363 . S
C599 C594 1.379 . S
C599 N597 1.356 . S
N600 C592 1.356 . S
N600 H606 0.984 . S
N600 H607 0.984 . S
N601 C594 1.356 . S
N601 H604 0.984 . S
N601 H605 0.985 . S
H602 N597 0.984 . S
H603 N597 0.985 . S
H604 N601 0.984 . S
H605 N601 0.985 . S
H606 N600 0.984 . S
H607 N600 0.984 . S
H608 N596 0.984 . S
H609 N596 0.985 . S
C610 C611 1.363 . S
C610 C616 1.379 . S
C610 N618 1.356 . S
C611 C610 1.363 . S
C611 C617 1.363 . S
C612 C613 1.363 . S
C612 C617 1.379 . S
C612 N619 1.356 . S
C613 C612 1.363 . S
C613 C616 1.363 . S
N614 C616 1.356 . S
N614 H626 0.984 . S
N614 H627 0.985 . S
N615 C617 1.356 . S
N615 H620 0.984 . S
N615 H621 0.985 . S
C616 C610 1.379 . S
C616 C613 1.363 . S
C616 N614 1.356 . S
C617 C611 1.363 . S
C617 C612 1.379 . S
C617 N615 1.356 . S
N618 C610 1.356 . S
N618 H624 0.984 . S
N618 H625 0.984 . S
N619 C612 1.356 . S
N619 H622 0.984 . S
N619 H623 0.985 . S
H620 N615 0.984 . S
H621 N615 0.985 . S
H622 N619 0.984 . S
H623 N619 0.985 . S
H624 N618 0.984 . S
H625 N618 0.984 . S
H626 N614 0.984 . S
H627 N614 0.985 . S
C628 C629 1.363 . S
C628 C634 1.379 . S
C628 N636 1.356 . S
C629 C628 1.363 . S
C629 C635 1.363 . S
C630 C631 1.363 . S
C630 C635 1.379 . S
C630 N637 1.356 . S
C631 C630 1.363 . S
C631 C634 1.363 . S
N632 C634 1.356 . S
N632 H644 0.984 . S
N632 H645 0.985 . S
N633 C635 1.356 . S
N633 H638 0.984 . S
N633 H639 0.985 . S
C634 C628 1.379 . S
C634 C631 1.363 . S
C634 N632 1.356 . S
C635 C629 1.363 . S
C635 C630 1.379 . S
C635 N633 1.356 . S
N636 C628 1.356 . S
N636 H642 0.984 . S
N636 H643 0.984 . S
N637 C630 1.356 . S
N637 H640 0.984 . S
N637 H641 0.985 . S
H638 N633 0.984 . S
H639 N633 0.985 . S
H640 N637 0.984 . S
H641 N637 0.985 . S
H642 N636 0.984 . S
H643 N636 0.984 . S
H644 N632 0.984 . S
H645 N632 0.985 . S
C646 C647 1.363 . S
C646 C652 1.379 . S
C646 N654 1.356 . S
C647 C646 1.363 . S
C647 C653 1.363 . S
C648 C649 1.363 . S
C648 C653 1.379 . S
C648 N655 1.356 . S
C649 C648 1.363 . S
C649 C652 1.363 . S
N650 C652 1.356 1_455 S
N650 H662 0.984 . S
N650 H663 0.985 . S
N651 C653 1.356 . S
N651 H656 0.984 . S
N651 H657 0.985 . S
C652 C646 1.379 . S
C652 C649 1.363 . S
C652 N650 1.356 1_655 S
C653 C647 1.363 . S
C653 C648 1.379 . S
C653 N651 1.356 . S
N654 C646 1.356 . S
N654 H660 0.984 1_655 S
N654 H661 0.984 . S
N655 C648 1.356 . S
N655 H658 0.984 . S
N655 H659 0.985 . S
H656 N651 0.984 . S
H657 N651 0.985 . S
H658 N655 0.984 . S
H659 N655 0.985 . S
H660 N654 0.984 1_455 S
H661 N654 0.984 . S
H662 N650 0.984 . S
H663 N650 0.985 . S
C664 C665 1.363 . S
C664 C670 1.379 . S
C664 N672 1.356 . S
C665 C664 1.363 . S
C665 C671 1.363 . S
C666 C667 1.363 . S
C666 C671 1.379 . S
C666 N673 1.356 . S
C667 C666 1.363 . S
C667 C670 1.363 . S
N668 C670 1.356 . S
N668 H680 0.984 . S
N668 H681 0.985 . S
N669 C671 1.356 . S
N669 H674 0.984 . S
N669 H675 0.985 . S
C670 C664 1.379 . S
C670 C667 1.363 . S
C670 N668 1.356 . S
C671 C665 1.363 . S
C671 C666 1.379 . S
C671 N669 1.356 . S
N672 C664 1.356 . S
N672 H678 0.984 . S
N672 H679 0.984 . S
N673 C666 1.356 . S
N673 H676 0.984 . S
N673 H677 0.985 . S
H674 N669 0.984 . S
H675 N669 0.985 . S
H676 N673 0.984 . S
H677 N673 0.985 . S
H678 N672 0.984 . S
H679 N672 0.984 . S
H680 N668 0.984 . S
H681 N668 0.985 . S
C682 C683 1.363 . S
C682 C688 1.379 . S
C682 N690 1.356 . S
C683 C682 1.363 . S
C683 C689 1.363 . S
C684 C685 1.363 . S
C684 C689 1.379 . S
C684 N691 1.356 . S
C685 C684 1.363 . S
C685 C688 1.363 . S
N686 C688 1.356 . S
N686 H698 0.984 . S
N686 H699 0.985 . S
N687 C689 1.356 . S
N687 H692 0.984 . S
N687 H693 0.985 . S
C688 C682 1.379 . S
C688 C685 1.363 . S
C688 N686 1.356 . S
C689 C683 1.363 . S
C689 C684 1.379 . S
C689 N687 1.356 . S
N690 C682 1.356 . S
N690 H696 0.984 . S
N690 H697 0.984 . S
N691 C684 1.356 . S
N691 H694 0.984 . S
N691 H695 0.985 . S
H692 N687 0.984 . S
H693 N687 0.985 . S
H694 N691 0.984 . S
H695 N691 0.985 . S
H696 N690 0.984 . S
H697 N690 0.984 . S
H698 N686 0.984 . S
H699 N686 0.985 . S
C700 C701 1.363 . S
C700 C706 1.379 1_545 S
C700 N708 1.356 . S
C701 C700 1.363 . S
C701 C707 1.363 1_556 S
C702 C703 1.363 1_545 S
C702 C707 1.379 . S
C702 N709 1.356 . S
C703 C702 1.363 1_565 S
C703 C706 1.363 1_554 S
N704 C706 1.356 . S
N704 H716 0.984 . S
N704 H717 0.985 . S
N705 C707 1.356 . S
N705 H710 0.986 . S
N705 H711 0.985 . S
C706 C700 1.379 1_565 S
C706 C703 1.363 1_556 S
C706 N704 1.356 . S
C707 C701 1.363 1_554 S
C707 C702 1.379 . S
C707 N705 1.356 . S
N708 C700 1.356 . S
N708 H714 0.984 . S
N708 H715 0.984 . S
N709 C702 1.356 . S
N709 H712 0.984 1_545 S
N709 H713 0.985 . S
H710 N705 0.986 . S
H711 N705 0.985 . S
H712 N709 0.984 1_565 S
H713 N709 0.985 . S
H714 N708 0.984 . S
H715 N708 0.984 . S
H716 N704 0.984 . S
H717 N704 0.985 . S
C718 C719 1.363 . S
C718 C724 1.379 . S
C718 N726 1.356 . S
C719 C718 1.363 . S
C719 C725 1.363 . S
C720 C721 1.363 . S
C720 C725 1.379 . S
C720 N727 1.356 . S
C721 C720 1.363 . S
C721 C724 1.363 . S
N722 C724 1.356 . S
N722 H734 0.984 . S
N722 H735 0.985 . S
N723 C725 1.356 . S
N723 H728 0.984 . S
N723 H729 0.985 . S
C724 C718 1.379 . S
C724 C721 1.363 . S
C724 N722 1.356 . S
C725 C719 1.363 . S
C725 C720 1.379 . S
C725 N723 1.356 . S
N726 C718 1.356 . S
N726 H732 0.984 . S
N726 H733 0.984 . S
N727 C720 1.356 . S
N727 H730 0.984 . S
N727 H731 0.985 . S
H728 N723 0.984 . S
H729 N723 0.985 . S
H730 N727 0.984 . S
H731 N727 0.985 . S
H732 N726 0.984 . S
H733 N726 0.984 . S
H734 N722 0.984 . S
H735 N722 0.985 . S
C736 C737 1.363 1_545 S
C736 C742 1.379 . S
C736 N744 1.356 . S
C737 C736 1.363 1_565 S
C737 C743 1.364 . S
C738 C739 1.363 . S
C738 C743 1.373 1_545 S
C738 N745 1.356 . S
C739 C738 1.363 . S
C739 C742 1.363 . S
N740 C742 1.356 . S
N740 H752 0.984 . S
N740 H753 0.985 . S
N741 C743 1.362 . S
N741 H746 0.984 . S
N741 H747 0.985 . S
C742 C736 1.379 . S
C742 C739 1.363 . S
C742 N740 1.356 . S
C743 C737 1.364 . S
C743 C738 1.373 1_565 S
C743 N741 1.362 . S
N744 C736 1.356 . S
N744 H750 0.984 . S
N744 H751 0.984 1_545 S
N745 C738 1.356 . S
N745 H748 0.984 . S
N745 H749 0.985 . S
H746 N741 0.984 . S
H747 N741 0.985 . S
H748 N745 0.984 . S
H749 N745 0.985 . S
H750 N744 0.984 . S
H751 N744 0.984 1_565 S
H752 N740 0.984 . S
H753 N740 0.985 . S
C754 C755 1.363 . S
C754 C760 1.379 . S
C754 N762 1.356 . S
C755 C754 1.363 . S
C755 C761 1.363 . S
C756 C757 1.363 . S
C756 C761 1.379 . S
C756 N763 1.356 . S
C757 C756 1.363 . S
C757 C760 1.363 . S
N758 C760 1.356 . S
N758 H770 0.984 . S
N758 H771 0.985 . S
N759 C761 1.356 . S
N759 H764 0.984 . S
N759 H765 0.985 . S
C760 C754 1.379 . S
C760 C757 1.363 . S
C760 N758 1.356 . S
C761 C755 1.363 . S
C761 C756 1.379 . S
C761 N759 1.356 . S
N762 C754 1.356 . S
N762 H768 0.984 . S
N762 H769 0.984 . S
N763 C756 1.356 . S
N763 H766 0.984 . S
N763 H767 0.985 . S
H764 N759 0.984 . S
H765 N759 0.985 . S
H766 N763 0.984 . S
H767 N763 0.985 . S
H768 N762 0.984 . S
H769 N762 0.984 . S
H770 N758 0.984 . S
H771 N758 0.985 . S
C772 C773 1.363 . S
C772 C778 1.379 1_565 S
C772 N780 1.356 . S
C773 C772 1.363 . S
C773 C779 1.363 . S
C774 C775 1.363 . S
C774 C779 1.379 1_545 S
C774 N781 1.356 . S
C775 C774 1.363 . S
C775 C778 1.363 . S
N776 C778 1.356 . S
N776 H788 0.984 . S
N776 H789 0.985 . S
N777 C779 1.356 . S
N777 H782 0.984 . S
N777 H783 0.985 . S
C778 C772 1.379 1_545 S
C778 C775 1.363 . S
C778 N776 1.356 . S
C779 C773 1.363 . S
C779 C774 1.379 1_565 S
C779 N777 1.356 . S
N780 C772 1.356 . S
N780 H786 0.984 . S
N780 H787 0.984 . S
N781 C774 1.356 . S
N781 H784 0.984 . S
N781 H785 0.985 . S
H782 N777 0.984 . S
H783 N777 0.985 . S
H784 N781 0.984 . S
H785 N781 0.985 . S
H786 N780 0.984 . S
H787 N780 0.984 . S
H788 N776 0.984 . S
H789 N776 0.985 . S
C790 C791 1.363 . S
C790 C796 1.379 . S
C790 N798 1.356 . S
C791 C790 1.363 . S
C791 C797 1.363 . S
C792 C793 1.363 . S
C792 C797 1.379 . S
C792 N799 1.356 . S
C793 C792 1.363 . S
C793 C796 1.363 . S
N794 C796 1.356 . S
N794 H806 0.984 . S
N794 H807 0.985 . S
N795 C797 1.356 . S
N795 H800 0.984 . S
N795 H801 0.985 . S
C796 C790 1.379 . S
C796 C793 1.363 . S
C796 N794 1.356 . S
C797 C791 1.363 . S
C797 C792 1.379 . S
C797 N795 1.356 . S
N798 C790 1.356 . S
N798 H804 0.984 . S
N798 H805 0.984 . S
N799 C792 1.356 . S
N799 H802 0.984 . S
N799 H803 0.985 . S
H800 N795 0.984 . S
H801 N795 0.985 . S
H802 N799 0.984 . S
H803 N799 0.985 . S
H804 N798 0.984 . S
H805 N798 0.984 . S
H806 N794 0.984 . S
H807 N794 0.985 . S
C808 C809 1.363 . S
C808 C814 1.379 . S
C808 N816 1.356 . S
C809 C808 1.363 . S
C809 C815 1.363 . S
C810 C811 1.363 . S
C810 C815 1.379 . S
C810 N817 1.356 . S
C811 C810 1.363 . S
C811 C814 1.363 . S
N812 C814 1.356 . S
N812 H824 0.984 . S
N812 H825 0.985 . S
N813 C815 1.356 . S
N813 H818 0.984 . S
N813 H819 0.985 . S
C814 C808 1.379 . S
C814 C811 1.363 . S
C814 N812 1.356 . S
C815 C809 1.363 . S
C815 C810 1.379 . S
C815 N813 1.356 . S
N816 C808 1.356 . S
N816 H822 0.984 . S
N816 H823 0.984 . S
N817 C810 1.356 . S
N817 H820 0.984 . S
N817 H821 0.985 . S
H818 N813 0.984 . S
H819 N813 0.985 . S
H820 N817 0.984 . S
H821 N817 0.985 . S
H822 N816 0.984 . S
H823 N816 0.984 . S
H824 N812 0.984 . S
H825 N812 0.985 . S
C826 C827 1.363 . S
C826 C832 1.379 . S
C826 N834 1.356 . S
C827 C826 1.363 . S
C827 C833 1.363 . S
C828 C829 1.363 . S
C828 C833 1.379 . S
C828 N835 1.356 . S
C829 C828 1.363 . S
C829 C832 1.363 . S
N830 C832 1.356 . S
N830 H842 0.984 1_545 S
N830 H843 0.985 . S
N831 C833 1.356 . S
N831 H836 0.984 . S
N831 H837 0.985 . S
C832 C826 1.379 . S
C832 C829 1.363 . S
C832 N830 1.356 . S
C833 C827 1.363 . S
C833 C828 1.379 . S
C833 N831 1.356 . S
N834 C826 1.356 . S
N834 H840 0.984 . S
N834 H841 0.984 . S
N835 C828 1.356 . S
N835 H838 0.984 . S
N835 H839 0.985 . S
H836 N831 0.984 . S
H837 N831 0.985 . S
H838 N835 0.984 . S
H839 N835 0.985 . S
H840 N834 0.984 . S
H841 N834 0.984 . S
H842 N830 0.984 1_565 S
H843 N830 0.985 . S
C844 C845 1.363 . S
C844 C850 1.379 . S
C844 N852 1.356 . S
C845 C844 1.363 . S
C845 C851 1.363 . S
C846 C847 1.363 . S
C846 C851 1.379 . S
C846 N853 1.356 . S
C847 C846 1.363 . S
C847 C850 1.363 . S
N848 C850 1.356 . S
N848 H860 0.984 . S
N848 H861 0.985 . S
N849 C851 1.356 . S
N849 H854 0.984 . S
N849 H855 0.985 . S
C850 C844 1.379 . S
C850 C847 1.363 . S
C850 N848 1.356 . S
C851 C845 1.363 . S
C851 C846 1.379 . S
C851 N849 1.356 . S
N852 C844 1.356 . S
N852 H858 0.984 . S
N852 H859 0.984 . S
N853 C846 1.356 . S
N853 H856 0.984 . S
N853 H857 0.985 . S
H854 N849 0.984 . S
H855 N849 0.985 . S
H856 N853 0.984 . S
H857 N853 0.985 . S
H858 N852 0.984 . S
H859 N852 0.984 . S
H860 N848 0.984 . S
H861 N848 0.985 . S
C862 C863 1.363 . S
C862 C868 1.379 . S
C862 N870 1.356 . S
C863 C862 1.363 . S
C863 C869 1.363 . S
C864 C865 1.363 . S
C864 C869 1.379 . S
C864 N871 1.356 . S
C865 C864 1.363 . S
C865 C868 1.363 . S
N866 C868 1.356 . S
N866 H878 0.984 . S
N866 H879 0.985 . S
N867 C869 1.356 . S
N867 H872 0.984 . S
N867 H873 0.985 . S
C868 C862 1.379 . S
C868 C865 1.363 . S
C868 N866 1.356 . S
C869 C863 1.363 . S
C869 C864 1.379 . S
C869 N867 1.356 . S
N870 C862 1.356 . S
N870 H876 0.984 . S
N870 H877 0.984 . S
N871 C864 1.356 . S
N871 H874 0.984 . S
N871 H875 0.985 . S
H872 N867 0.984 . S
H873 N867 0.985 . S
H874 N871 0.984 . S
H875 N871 0.985 . S
H876 N870 0.984 . S
H877 N870 0.984 . S
H878 N866 0.984 . S
H879 N866 0.985 . S
C880 C881 1.363 . S
C880 C886 1.379 . S
C880 N888 1.356 . S
C881 C880 1.363 . S
C881 C887 1.363 . S
C882 C883 1.363 . S
C882 C887 1.379 . S
C882 N889 1.356 . S
C883 C882 1.363 . S
C883 C886 1.363 . S
N884 C886 1.356 . S
N884 H896 0.984 . S
N884 H897 0.985 . S
N885 C887 1.356 . S
N885 H890 0.984 . S
N885 H891 0.985 . S
C886 C880 1.379 . S
C886 C883 1.363 . S
C886 N884 1.356 . S
C887 C881 1.363 . S
C887 C882 1.379 . S
C887 N885 1.356 . S
N888 C880 1.356 . S
N888 H894 0.984 . S
N888 H895 0.984 . S
N889 C882 1.356 . S
N889 H892 0.984 . S
N889 H893 0.985 . S
H890 N885 0.984 . S
H891 N885 0.985 . S
H892 N889 0.984 . S
H893 N889 0.985 . S
H894 N888 0.984 . S
H895 N888 0.984 . S
H896 N884 0.984 . S
H897 N884 0.985 . S
C898 C899 1.363 . S
C898 C904 1.379 . S
C898 N906 1.356 . S
C899 C898 1.363 . S
C899 C905 1.363 . S
C900 C901 1.363 . S
C900 C905 1.379 1_655 S
C900 N907 1.356 . S
C901 C900 1.363 . S
C901 C904 1.363 1_655 S
N902 C904 1.356 . S
N902 H914 0.984 . S
N902 H915 0.985 1_455 S
N903 C905 1.356 . S
N903 H908 0.984 . S
N903 H909 0.985 . S
C904 C898 1.379 . S
C904 C901 1.363 1_455 S
C904 N902 1.356 . S
C905 C899 1.363 . S
C905 C900 1.379 1_455 S
C905 N903 1.356 . S
N906 C898 1.356 . S
N906 H912 0.984 . S
N906 H913 0.984 . S
N907 C900 1.356 . S
N907 H910 0.984 . S
N907 H911 0.985 . S
H908 N903 0.984 . S
H909 N903 0.985 . S
H910 N907 0.984 . S
H911 N907 0.985 . S
H912 N906 0.984 . S
H913 N906 0.984 . S
H914 N902 0.984 . S
H915 N902 0.985 1_655 S
C916 C917 1.363 . S
C916 C922 1.379 . S
C916 N924 1.356 . S
C917 C916 1.363 . S
C917 C923 1.363 . S
C918 C919 1.363 . S
C918 C923 1.379 . S
C918 N925 1.356 . S
C919 C918 1.363 . S
C919 C922 1.363 . S
N920 C922 1.356 . S
N920 H932 0.984 . S
N920 H933 0.985 . S
N921 C923 1.356 . S
N921 H926 0.984 . S
N921 H927 0.985 . S
C922 C916 1.379 . S
C922 C919 1.363 . S
C922 N920 1.356 . S
C923 C917 1.363 . S
C923 C918 1.379 . S
C923 N921 1.356 . S
N924 C916 1.356 . S
N924 H930 0.984 . S
N924 H931 0.984 . S
N925 C918 1.356 . S
N925 H928 0.984 . S
N925 H929 0.985 . S
H926 N921 0.984 . S
H927 N921 0.985 . S
H928 N925 0.984 . S
H929 N925 0.985 . S
H930 N924 0.984 . S
H931 N924 0.984 . S
H932 N920 0.984 . S
H933 N920 0.985 . S
C934 C935 1.363 . S
C934 C940 1.379 1_655 S
C934 N942 1.356 . S
C935 C934 1.363 . S
C935 C941 1.363 . S
C936 C937 1.363 1_655 S
C936 C941 1.379 . S
C936 N943 1.356 . S
C937 C936 1.363 1_455 S
C937 C940 1.363 . S
N938 C940 1.356 . S
N938 H950 0.984 . S
N938 H951 0.985 . S
N939 C941 1.356 . S
N939 H944 0.984 . S
N939 H945 0.985 . S
C940 C934 1.379 1_455 S
C940 C937 1.363 . S
C940 N938 1.356 . S
C941 C935 1.363 . S
C941 C936 1.379 . S
C941 N939 1.356 . S
N942 C934 1.356 . S
N942 H948 0.984 . S
N942 H949 0.984 . S
N943 C936 1.356 . S
N943 H946 0.984 1_655 S
N943 H947 0.985 . S
H944 N939 0.984 . S
H945 N939 0.985 . S
H946 N943 0.984 1_455 S
H947 N943 0.985 . S
H948 N942 0.984 . S
H949 N942 0.984 . S
H950 N938 0.984 . S
H951 N938 0.985 . S
C952 C953 1.363 . S
C952 C958 1.379 . S
C952 N960 1.356 . S
C953 C952 1.363 . S
C953 C959 1.363 . S
C954 C955 1.363 . S
C954 C959 1.379 . S
C954 N961 1.356 . S
C955 C954 1.363 . S
C955 C958 1.363 . S
N956 C958 1.356 . S
N956 H968 0.984 . S
N956 H969 0.985 . S
N957 C959 1.356 . S
N957 H962 0.984 . S
N957 H963 0.985 . S
C958 C952 1.379 . S
C958 C955 1.363 . S
C958 N956 1.356 . S
C959 C953 1.363 . S
C959 C954 1.379 . S
C959 N957 1.356 . S
N960 C952 1.356 . S
N960 H966 0.984 . S
N960 H967 0.984 . S
N961 C954 1.356 . S
N961 H964 0.984 . S
N961 H965 0.985 . S
H962 N957 0.984 . S
H963 N957 0.985 . S
H964 N961 0.984 . S
H965 N961 0.985 . S
H966 N960 0.984 . S
H967 N960 0.984 . S
H968 N956 0.984 . S
H969 N956 0.985 . S
C970 C971 1.363 . S
C970 C976 1.379 . S
C970 N978 1.356 . S
C971 C970 1.363 . S
C971 C977 1.363 . S
C972 C973 1.371 . S
C972 C977 1.395 . S
C972 N979 1.332 1_554 S
C973 C972 1.371 . S
C973 C976 1.363 . S
N974 C976 1.356 . S
N974 H986 0.984 . S
N974 H987 0.985 . S
N975 C977 1.356 . S
N975 H980 0.984 . S
N975 H981 0.985 . S
C976 C970 1.379 . S
C976 C973 1.363 . S
C976 N974 1.356 . S
C977 C971 1.363 . S
C977 C972 1.395 . S
C977 N975 1.356 . S
N978 C970 1.356 . S
N978 H984 0.984 . S
N978 H985 0.984 . S
N979 C972 1.332 1_556 S
N979 H982 0.984 . S
N979 H983 0.985 . S
H980 N975 0.984 . S
H981 N975 0.985 . S
H982 N979 0.984 . S
H983 N979 0.985 . S
H984 N978 0.984 . S
H985 N978 0.984 . S
H986 N974 0.984 . S
H987 N974 0.985 . S
C988 C989 1.363 . S
C988 C994 1.379 . S
C988 N996 1.356 . S
C989 C988 1.363 . S
C989 C995 1.363 . S
C990 C991 1.363 . S
C990 C995 1.379 . S
C990 N997 1.356 . S
C991 C990 1.363 . S
C991 C994 1.363 . S
N992 C994 1.356 . S
N992 H1004 0.984 . S
N992 H1005 0.985 . S
N993 C995 1.356 . S
N993 H998 0.984 . S
N993 H999 0.985 . S
C994 C988 1.379 . S
C994 C991 1.363 . S
C994 N992 1.356 . S
C995 C989 1.363 . S
C995 C990 1.379 . S
C995 N993 1.356 . S
N996 C988 1.356 . S
N996 H1002 0.984 . S
N996 H1003 0.984 . S
N997 C990 1.356 . S
N997 H1000 0.984 . S
N997 H1001 0.985 . S
H998 N993 0.984 . S
H999 N993 0.985 . S
H1000 N997 0.984 . S
H1001 N997 0.985 . S
H1002 N996 0.984 . S
H1003 N996 0.984 . S
H1004 N992 0.984 . S
H1005 N992 0.985 . S
C1006 C1007 1.363 . S
C1006 C1012 1.379 . S
C1006 N1014 1.356 . S
C1007 C1006 1.363 . S
C1007 C1013 1.363 . S
C1008 C1009 1.363 . S
C1008 C1013 1.379 . S
C1008 N1015 1.356 . S
C1009 C1008 1.363 . S
C1009 C1012 1.363 . S
N1010 C1012 1.356 . S
N1010 H1022 0.984 1_554 S
N1010 H1023 0.985 1_554 S
N1011 C1013 1.356 . S
N1011 H1016 0.984 . S
N1011 H1017 0.985 . S
C1012 C1006 1.379 . S
C1012 C1009 1.363 . S
C1012 N1010 1.356 . S
C1013 C1007 1.363 . S
C1013 C1008 1.379 . S
C1013 N1011 1.356 . S
N1014 C1006 1.356 . S
N1014 H1020 0.984 . S
N1014 H1021 0.984 . S
N1015 C1008 1.356 . S
N1015 H1018 0.984 . S
N1015 H1019 0.985 . S
H1016 N1011 0.984 . S
H1017 N1011 0.985 . S
H1018 N1015 0.984 . S
H1019 N1015 0.985 . S
H1020 N1014 0.984 . S
H1021 N1014 0.984 . S
H1022 N1010 0.984 1_556 S
H1023 N1010 0.985 1_556 S
C1024 C1025 1.363 . S
C1024 C1030 1.379 . S
C1024 N1032 1.356 . S
C1025 C1024 1.363 . S
C1025 C1031 1.363 . S
C1026 C1027 1.363 . S
C1026 C1031 1.379 . S
C1026 N1033 1.356 . S
C1027 C1026 1.363 . S
C1027 C1030 1.363 . S
N1028 C1030 1.356 . S
N1028 H1040 0.984 . S
N1028 H1041 0.985 . S
N1029 C1031 1.356 . S
N1029 H1034 0.984 . S
N1029 H1035 0.985 . S
C1030 C1024 1.379 . S
C1030 C1027 1.363 . S
C1030 N1028 1.356 . S
C1031 C1025 1.363 . S
C1031 C1026 1.379 . S
C1031 N1029 1.356 . S
N1032 C1024 1.356 . S
N1032 H1038 0.984 . S
N1032 H1039 0.984 . S
N1033 C1026 1.356 . S
N1033 H1036 0.984 . S
N1033 H1037 0.985 . S
H1034 N1029 0.984 . S
H1035 N1029 0.985 . S
H1036 N1033 0.984 . S
H1037 N1033 0.985 . S
H1038 N1032 0.984 . S
H1039 N1032 0.984 . S
H1040 N1028 0.984 . S
H1041 N1028 0.985 . S
C1042 C1043 1.363 . S
C1042 C1048 1.379 1_556 S
C1042 N1050 1.356 . S
C1043 C1042 1.363 . S
C1043 C1049 1.363 1_556 S
C1044 C1045 1.363 . S
C1044 C1049 1.379 . S
C1044 N1051 1.356 . S
C1045 C1044 1.363 . S
C1045 C1048 1.363 . S
N1046 C1048 1.356 . S
N1046 H1058 0.984 1_554 S
N1046 H1059 0.985 . S
N1047 C1049 1.356 1_556 S
N1047 H1052 0.984 . S
N1047 H1053 0.985 1_556 S
C1048 C1042 1.379 1_554 S
C1048 C1045 1.363 . S
C1048 N1046 1.356 . S
C1049 C1043 1.363 1_554 S
C1049 C1044 1.379 . S
C1049 N1047 1.356 1_554 S
N1050 C1042 1.356 . S
N1050 H1056 0.984 . S
N1050 H1057 0.984 . S
N1051 C1044 1.356 . S
N1051 H1054 0.984 . S
N1051 H1055 0.985 . S
H1052 N1047 0.984 . S
H1053 N1047 0.985 1_554 S
H1054 N1051 0.984 . S
H1055 N1051 0.985 . S
H1056 N1050 0.984 . S
H1057 N1050 0.984 . S
H1058 N1046 0.984 1_556 S
H1059 N1046 0.985 . S
C1060 C1061 1.363 . S
C1060 C1066 1.379 . S
C1060 N1068 1.356 . S
C1061 C1060 1.363 . S
C1061 C1067 1.363 . S
C1062 C1063 1.363 . S
C1062 C1067 1.379 . S
C1062 N1069 1.356 . S
C1063 C1062 1.363 . S
C1063 C1066 1.363 . S
N1064 C1066 1.356 . S
N1064 H1076 0.984 . S
N1064 H1077 0.985 . S
N1065 C1067 1.356 . S
N1065 H1070 0.984 . S
N1065 H1071 0.985 . S
C1066 C1060 1.379 . S
C1066 C1063 1.363 . S
C1066 N1064 1.356 . S
C1067 C1061 1.363 . S
C1067 C1062 1.379 . S
C1067 N1065 1.356 . S
N1068 C1060 1.356 . S
N1068 H1074 0.984 . S
N1068 H1075 0.984 . S
N1069 C1062 1.356 . S
N1069 H1072 0.984 . S
N1069 H1073 0.985 . S
H1070 N1065 0.984 . S
H1071 N1065 0.985 . S
H1072 N1069 0.984 . S
H1073 N1069 0.985 . S
H1074 N1068 0.984 . S
H1075 N1068 0.984 . S
H1076 N1064 0.984 . S
H1077 N1064 0.985 . S
C1078 C1079 1.363 . S
C1078 C1084 1.379 1_556 S
C1078 N1086 1.356 . S
C1079 C1078 1.363 . S
C1079 C1085 1.363 1_556 S
C1080 C1081 1.363 . S
C1080 C1085 1.379 . S
C1080 N1087 1.356 . S
C1081 C1080 1.363 . S
C1081 C1084 1.363 . S
N1082 C1084 1.356 . S
N1082 H1094 0.984 . S
N1082 H1095 0.985 . S
N1083 C1085 1.356 . S
N1083 H1088 0.984 1_554 S
N1083 H1089 0.985 . S
C1084 C1078 1.379 1_554 S
C1084 C1081 1.363 . S
C1084 N1082 1.356 . S
C1085 C1079 1.363 1_554 S
C1085 C1080 1.379 . S
C1085 N1083 1.356 . S
N1086 C1078 1.356 . S
N1086 H1092 0.984 . S
N1086 H1093 0.984 . S
N1087 C1080 1.356 . S
N1087 H1090 0.984 . S
N1087 H1091 0.985 . S
H1088 N1083 0.984 1_556 S
H1089 N1083 0.985 . S
H1090 N1087 0.984 . S
H1091 N1087 0.985 . S
H1092 N1086 0.984 . S
H1093 N1086 0.984 . S
H1094 N1082 0.984 . S
H1095 N1082 0.985 . S
C1096 C1097 1.363 . S
C1096 C1102 1.379 . S
C1096 N1104 1.356 . S
C1097 C1096 1.363 . S
C1097 C1103 1.363 . S
C1098 C1099 1.363 . S
C1098 C1103 1.379 . S
C1098 N1105 1.356 . S
C1099 C1098 1.363 . S
C1099 C1102 1.363 . S
N1100 C1102 1.356 . S
N1100 H1112 0.984 . S
N1100 H1113 0.985 . S
N1101 C1103 1.356 . S
N1101 H1106 0.984 . S
N1101 H1107 0.985 . S
C1102 C1096 1.379 . S
C1102 C1099 1.363 . S
C1102 N1100 1.356 . S
C1103 C1097 1.363 . S
C1103 C1098 1.379 . S
C1103 N1101 1.356 . S
N1104 C1096 1.356 . S
N1104 H1110 0.984 . S
N1104 H1111 0.984 . S
N1105 C1098 1.356 . S
N1105 H1108 0.984 . S
N1105 H1109 0.985 . S
H1106 N1101 0.984 . S
H1107 N1101 0.985 . S
H1108 N1105 0.984 . S
H1109 N1105 0.985 . S
H1110 N1104 0.984 . S
H1111 N1104 0.984 . S
H1112 N1100 0.984 . S
H1113 N1100 0.985 . S
C1114 C1115 1.363 . S
C1114 C1120 1.379 . S
C1114 N1122 1.356 . S
C1115 C1114 1.363 . S
C1115 C1121 1.363 . S
C1116 C1117 1.363 . S
C1116 C1121 1.379 . S
C1116 N1123 1.356 . S
C1117 C1116 1.363 . S
C1117 C1120 1.363 . S
N1118 C1120 1.356 . S
N1118 H1130 0.984 . S
N1118 H1131 0.985 . S
N1119 C1121 1.356 . S
N1119 H1124 0.984 . S
N1119 H1125 0.985 . S
C1120 C1114 1.379 . S
C1120 C1117 1.363 . S
C1120 N1118 1.356 . S
C1121 C1115 1.363 . S
C1121 C1116 1.379 . S
C1121 N1119 1.356 . S
N1122 C1114 1.356 . S
N1122 H1128 0.984 . S
N1122 H1129 0.984 . S
N1123 C1116 1.356 . S
N1123 H1126 0.984 . S
N1123 H1127 0.985 . S
H1124 N1119 0.984 . S
H1125 N1119 0.985 . S
H1126 N1123 0.984 . S
H1127 N1123 0.985 . S
H1128 N1122 0.984 . S
H1129 N1122 0.984 . S
H1130 N1118 0.984 . S
H1131 N1118 0.985 . S
C1132 C1133 1.363 . S
C1132 C1138 1.379 . S
C1132 N1140 1.356 . S
C1133 C1132 1.363 . S
C1133 C1139 1.363 . S
C1134 C1135 1.363 . S
C1134 C1139 1.379 . S
C1134 N1141 1.356 . S
C1135 C1134 1.363 . S
C1135 C1138 1.363 . S
N1136 C1138 1.356 . S
N1136 H1148 0.984 . S
N1136 H1149 0.985 . S
N1137 C1139 1.356 . S
N1137 H1142 0.984 . S
N1137 H1143 0.985 . S
C1138 C1132 1.379 . S
C1138 C1135 1.363 . S
C1138 N1136 1.356 . S
C1139 C1133 1.363 . S
C1139 C1134 1.379 . S
C1139 N1137 1.356 . S
N1140 C1132 1.356 . S
N1140 H1146 0.984 . S
N1140 H1147 0.984 . S
N1141 C1134 1.356 . S
N1141 H1144 0.984 . S
N1141 H1145 0.985 . S
H1142 N1137 0.984 . S
H1143 N1137 0.985 . S
H1144 N1141 0.984 . S
H1145 N1141 0.985 . S
H1146 N1140 0.984 . S
H1147 N1140 0.984 . S
H1148 N1136 0.984 . S
H1149 N1136 0.985 . S
C1150 C1151 1.363 . S
C1150 C1156 1.379 . S
C1150 N1158 1.356 . S
C1151 C1150 1.363 . S
C1151 C1157 1.363 . S
C1152 C1153 1.363 . S
C1152 C1157 1.379 . S
C1152 N1159 1.356 . S
C1153 C1152 1.363 . S
C1153 C1156 1.363 . S
N1154 C1156 1.356 . S
N1154 H1166 0.984 . S
N1154 H1167 0.985 . S
N1155 C1157 1.356 . S
N1155 H1160 0.984 . S
N1155 H1161 0.985 . S
C1156 C1150 1.379 . S
C1156 C1153 1.363 . S
C1156 N1154 1.356 . S
C1157 C1151 1.363 . S
C1157 C1152 1.379 . S
C1157 N1155 1.356 . S
N1158 C1150 1.356 . S
N1158 H1164 0.984 . S
N1158 H1165 0.984 . S
N1159 C1152 1.356 . S
N1159 H1162 0.984 . S
N1159 H1163 0.985 . S
H1160 N1155 0.984 . S
H1161 N1155 0.985 . S
H1162 N1159 0.984 . S
H1163 N1159 0.985 . S
H1164 N1158 0.984 . S
H1165 N1158 0.984 . S
H1166 N1154 0.984 . S
H1167 N1154 0.985 . S
C1168 C1169 1.363 . S
C1168 C1174 1.379 . S
C1168 N1176 1.356 . S
C1169 C1168 1.363 . S
C1169 C1175 1.363 . S
C1170 C1171 1.363 . S
C1170 C1175 1.379 . S
C1170 N1177 1.356 . S
C1171 C1170 1.363 . S
C1171 C1174 1.363 . S
N1172 C1174 1.356 . S
N1172 H1184 0.984 . S
N1172 H1185 0.985 . S
N1173 C1175 1.356 . S
N1173 H1178 0.984 . S
N1173 H1179 0.985 . S
C1174 C1168 1.379 . S
C1174 C1171 1.363 . S
C1174 N1172 1.356 . S
C1175 C1169 1.363 . S
C1175 C1170 1.379 . S
C1175 N1173 1.356 . S
N1176 C1168 1.356 . S
N1176 H1182 0.984 . S
N1176 H1183 0.984 . S
N1177 C1170 1.356 . S
N1177 H1180 0.984 . S
N1177 H1181 0.985 . S
H1178 N1173 0.984 . S
H1179 N1173 0.985 . S
H1180 N1177 0.984 . S
H1181 N1177 0.985 . S
H1182 N1176 0.984 . S
H1183 N1176 0.984 . S
H1184 N1172 0.984 . S
H1185 N1172 0.985 . S
C1186 C1187 1.363 . S
C1186 C1192 1.379 . S
C1186 N1194 1.356 . S
C1187 C1186 1.363 . S
C1187 C1193 1.363 . S
C1188 C1189 1.363 . S
C1188 C1193 1.379 . S
C1188 N1195 1.356 . S
C1189 C1188 1.363 . S
C1189 C1192 1.363 . S
N1190 C1192 1.356 . S
N1190 H1202 0.984 . S
N1190 H1203 0.985 . S
N1191 C1193 1.356 . S
N1191 H1196 0.984 . S
N1191 H1197 0.985 . S
C1192 C1186 1.379 . S
C1192 C1189 1.363 . S
C1192 N1190 1.356 . S
C1193 C1187 1.363 . S
C1193 C1188 1.379 . S
C1193 N1191 1.356 . S
N1194 C1186 1.356 . S
N1194 H1200 0.984 . S
N1194 H1201 0.984 . S
N1195 C1188 1.356 . S
N1195 H1198 0.984 . S
N1195 H1199 0.985 . S
H1196 N1191 0.984 . S
H1197 N1191 0.985 . S
H1198 N1195 0.984 . S
H1199 N1195 0.985 . S
H1200 N1194 0.984 . S
H1201 N1194 0.984 . S
H1202 N1190 0.984 . S
H1203 N1190 0.985 . S
C1204 C1205 1.363 . S
C1204 C1210 1.379 . S
C1204 N1212 1.356 . S
C1205 C1204 1.363 . S
C1205 C1211 1.363 . S
C1206 C1207 1.363 . S
C1206 C1211 1.379 . S
C1206 N1213 1.356 . S
C1207 C1206 1.363 . S
C1207 C1210 1.363 . S
N1208 C1210 1.356 1_556 S
N1208 H1220 0.984 . S
N1208 H1221 0.985 . S
N1209 C1211 1.356 . S
N1209 H1214 0.984 . S
N1209 H1215 0.985 . S
C1210 C1204 1.379 . S
C1210 C1207 1.363 . S
C1210 N1208 1.356 1_554 S
C1211 C1205 1.363 . S
C1211 C1206 1.379 . S
C1211 N1209 1.356 . S
N1212 C1204 1.356 . S
N1212 H1218 0.984 1_554 S
N1212 H1219 0.984 . S
N1213 C1206 1.356 . S
N1213 H1216 0.984 . S
N1213 H1217 0.985 . S
H1214 N1209 0.984 . S
H1215 N1209 0.985 . S
H1216 N1213 0.984 . S
H1217 N1213 0.985 . S
H1218 N1212 0.984 1_556 S
H1219 N1212 0.984 . S
H1220 N1208 0.984 . S
H1221 N1208 0.985 . S
C1222 C1223 1.363 . S
C1222 C1228 1.379 . S
C1222 N1230 1.356 . S
C1223 C1222 1.363 . S
C1223 C1229 1.363 . S
C1224 C1225 1.363 . S
C1224 C1229 1.379 . S
C1224 N1231 1.356 . S
C1225 C1224 1.363 . S
C1225 C1228 1.363 . S
N1226 C1228 1.356 . S
N1226 H1238 0.984 . S
N1226 H1239 0.985 1_545 S
N1227 C1229 1.356 . S
N1227 H1232 0.984 . S
N1227 H1233 0.985 . S
C1228 C1222 1.379 . S
C1228 C1225 1.363 . S
C1228 N1226 1.356 . S
C1229 C1223 1.363 . S
C1229 C1224 1.379 . S
C1229 N1227 1.356 . S
N1230 C1222 1.356 . S
N1230 H1236 0.984 . S
N1230 H1237 0.984 . S
N1231 C1224 1.356 . S
N1231 H1234 0.984 . S
N1231 H1235 0.985 . S
H1232 N1227 0.984 . S
H1233 N1227 0.985 . S
H1234 N1231 0.984 . S
H1235 N1231 0.985 . S
H1236 N1230 0.984 . S
H1237 N1230 0.984 . S
H1238 N1226 0.984 . S
H1239 N1226 0.985 1_565 S
C379 C216 1.445 1_556 S
C377 N66 1.432 . S
C397 C231 1.694 . S
C395 N79 1.717 . S
C413 N92 1.780 . S
C415 C244 1.822 . S
C433 C258 1.411 . S
C431 N54 1.495 . S
C451 C270 1.626 . S
C449 N131 1.751 . S
C469 C284 1.164 . S
C467 N158 1.168 . S
C485 N145 1.689 . S
C487 C298 1.649 . S
C505 C313 1.595 . S
C503 N118 1.609 . S
C521 N148 1.864 . S
C523 C329 1.809 . S
C541 C342 1.525 . S
C539 N122 1.502 . S
C557 N132 1.507 . S
C559 C327 1.411 . S
C577 C340 1.606 . S
C575 N161 1.541 . S
C593 N96 2.007 . S
C595 C356 2.028 . S
C611 N53 1.647 . S
C613 C355 1.618 . S
C629 N67 1.385 . S
C631 C354 1.310 . S
C647 N83 1.361 . S
C649 C357 1.407 . S
C665 N44 1.600 . S
C667 C259 1.653 . S
C683 N187 1.475 . S
C685 C257 1.482 . S
C703 C217 1.325 . S
C701 N197 1.322 . S
C721 C228 1.496 . S
C719 N106 1.511 . S
C737 N57 1.829 . S
C739 C273 1.855 . S
C757 C314 1.776 . S
C755 N144 1.772 . S
C775 C271 1.478 . S
C773 N119 1.439 . S
C793 C299 1.631 . S
C791 N157 1.639 . S
C811 C300 1.445 . S
C809 N183 1.432 . S
C827 N196 1.717 . S
C829 C315 1.694 . S
C845 N105 1.780 . S
C847 C272 1.822 . S
C865 C286 1.411 . S
C863 N171 1.495 . S
C881 N40 1.751 . S
C883 C242 1.626 . S
C901 C256 1.164 . S
C899 N2 1.168 . S
C919 C214 1.649 . S
C917 N15 1.689 . S
C937 C229 1.595 . S
C935 N27 1.609 . S
C953 N18 1.864 . S
C955 C343 1.809 . S
C971 N31 1.502 . S
C973 C328 1.525 1_554 S
C989 N41 1.507 . S
C991 C341 1.411 . S
C1007 N5 1.541 . S
C1009 C326 1.606 1_554 S
C1027 C370 2.028 . S
C1025 N109 2.007 . S
C1045 C369 1.618 . S
C1043 N170 1.647 . S
C1063 C368 1.310 . S
C1061 N184 1.385 . S
C1079 N200 1.361 . S
C1081 C371 1.407 . S
C1097 N135 1.600 . S
C1099 C287 1.651 . S
C1117 C285 1.482 . S
C1115 N70 1.475 . S
C1135 C301 1.325 . S
C1133 N80 1.322 . S
C1153 C312 1.496 . S
C1151 N93 1.511 . S
C1169 N174 1.829 . S
C1171 C245 1.855 . S
C1189 C230 1.776 . S
C1187 N14 1.772 . S
C1205 N28 1.439 . S
C1207 C243 1.478 . S
C1225 C215 1.631 . S
C1223 N1 1.639 . S
