# Generated by pormake.
# Topology zzz, (3,6)-cn, num edge types: 1
# Building blocks:
#     Node 0, Type 0, BuildingBlock: ESEHIV_clean_linker_0, # of connection points: 3
#     Node 1, Type 0, BuildingBlock: ESEHIV_clean_linker_0, # of connection points: 3
#     Node 2, Type 0, BuildingBlock: ESEHIV_clean_linker_0, # of connection points: 3
#     Node 3, Type 0, BuildingBlock: ESEHIV_clean_linker_0, # of connection points: 3
#     Node 4, Type 0, BuildingBlock: ESEHIV_clean_linker_0, # of connection points: 3
#     Node 5, Type 0, BuildingBlock: ESEHIV_clean_linker_0, # of connection points: 3
#     Node 6, Type 0, BuildingBlock: ESEHIV_clean_linker_0, # of connection points: 3
#     Node 7, Type 0, BuildingBlock: ESEHIV_clean_linker_0, # of connection points: 3
#     Node 8, Type 1, BuildingBlock: LEVNOQ01_clean_sbu_1, # of connection points: 6
#     Node 9, Type 1, BuildingBlock: LEVNOQ01_clean_sbu_1, # of connection points: 6
#     Node 10, Type 1, BuildingBlock: LEVNOQ01_clean_sbu_1, # of connection points: 6
#     Node 11, Type 1, BuildingBlock: LEVNOQ01_clean_sbu_1, # of connection points: 6
#     Edge 12, Type (0, 1), BuildingBlock: CIFDUS_clean_linker_0, # of connection points: 2
#     Edge 13, Type (0, 1), BuildingBlock: CIFDUS_clean_linker_0, # of connection points: 2
#     Edge 14, Type (0, 1), BuildingBlock: CIFDUS_clean_linker_0, # of connection points: 2
#     Edge 15, Type (0, 1), BuildingBlock: CIFDUS_clean_linker_0, # of connection points: 2
#     Edge 16, Type (0, 1), BuildingBlock: CIFDUS_clean_linker_0, # of connection points: 2
#     Edge 17, Type (0, 1), BuildingBlock: CIFDUS_clean_linker_0, # of connection points: 2
#     Edge 18, Type (0, 1), BuildingBlock: CIFDUS_clean_linker_0, # of connection points: 2
#     Edge 19, Type (0, 1), BuildingBlock: CIFDUS_clean_linker_0, # of connection points: 2
#     Edge 20, Type (0, 1), BuildingBlock: CIFDUS_clean_linker_0, # of connection points: 2
#     Edge 21, Type (0, 1), BuildingBlock: CIFDUS_clean_linker_0, # of connection points: 2
#     Edge 22, Type (0, 1), BuildingBlock: CIFDUS_clean_linker_0, # of connection points: 2
#     Edge 23, Type (0, 1), BuildingBlock: CIFDUS_clean_linker_0, # of connection points: 2
#     Edge 24, Type (0, 1), BuildingBlock: CIFDUS_clean_linker_0, # of connection points: 2
#     Edge 25, Type (0, 1), BuildingBlock: CIFDUS_clean_linker_0, # of connection points: 2
#     Edge 26, Type (0, 1), BuildingBlock: CIFDUS_clean_linker_0, # of connection points: 2
#     Edge 27, Type (0, 1), BuildingBlock: CIFDUS_clean_linker_0, # of connection points: 2
#     Edge 28, Type (0, 1), BuildingBlock: CIFDUS_clean_linker_0, # of connection points: 2
#     Edge 29, Type (0, 1), BuildingBlock: CIFDUS_clean_linker_0, # of connection points: 2
#     Edge 30, Type (0, 1), BuildingBlock: CIFDUS_clean_linker_0, # of connection points: 2
#     Edge 31, Type (0, 1), BuildingBlock: CIFDUS_clean_linker_0, # of connection points: 2
#     Edge 32, Type (0, 1), BuildingBlock: CIFDUS_clean_linker_0, # of connection points: 2
#     Edge 33, Type (0, 1), BuildingBlock: CIFDUS_clean_linker_0, # of connection points: 2
#     Edge 34, Type (0, 1), BuildingBlock: CIFDUS_clean_linker_0, # of connection points: 2
#     Edge 35, Type (0, 1), BuildingBlock: CIFDUS_clean_linker_0, # of connection points: 2
# Relax obj value: 0.308
# Max RMSD: 0.219
# Mean RMSD: 0.206
data_MOF--net-zzz--node1-LEVNOQ01_clean_sbu_1--node2-ESEHIV_clean_linker_0--edge1-CIFDUS_clean_linker_0
_symmetry_space_group_name_H-M    P1
_symmetry_Int_Tables_number       1
_symmetry_cell_setting            triclinic
loop_
_symmetry_equiv_pos_as_xyz
'x, y, z'
_cell_length_a     36.456885
_cell_length_b     39.370683
_cell_length_c     14.228636
_cell_angle_alpha  89.837168
_cell_angle_beta   89.402444
_cell_angle_gamma 88.527791
loop_
_atom_site_label
_atom_site_type_symbol
_atom_site_fract_x
_atom_site_fract_y
_atom_site_fract_z
_atom_type_partial_charge
H0 H 0.83162 0.63466 0.19926 0.0
H1 H 0.74866 0.61636 -0.00036 0.0
H2 H 0.74027 0.5726 0.27447 0.0
C3 C 0.80478 0.62489 0.18455 0.0
C4 C 0.78789 0.6035 0.25034 0.0
C5 C 0.79391 0.6237 0.09085 0.0
C6 C 0.75732 0.61615 0.07238 0.0
C7 C 0.73738 0.59714 0.13824 0.0
C8 C 0.75327 0.59039 0.22733 0.0
H9 H 0.95247 0.82097 0.2393 0.0
H10 H 0.96608 0.75473 0.00656 0.0
H11 H 0.98302 0.71592 0.28818 0.0
C12 C 0.95595 0.79503 0.21422 0.0
C13 C 0.9653 0.76893 0.27721 0.0
C14 C 0.95827 0.79013 0.11803 0.0
C15 C 0.96483 0.75772 0.08225 0.0
C16 C 0.97309 0.73014 0.14245 0.0
C17 C 0.97399 0.73603 0.24106 0.0
H18 H 0.68567 0.86695 0.23332 0.0
H19 H 0.75603 0.89842 0.01509 0.0
H20 H 0.79483 0.89893 0.29831 0.0
C21 C 0.71352 0.87274 0.21318 0.0
C22 C 0.73848 0.88358 0.28065 0.0
C23 C 0.7179 0.88397 0.12139 0.0
C24 C 0.75306 0.89011 0.08748 0.0
C25 C 0.78236 0.8934 0.15006 0.0
C26 C 0.77437 0.89163 0.24822 0.0
H27 H 0.48989 0.67191 0.23234 0.0
H28 H 0.51272 0.77642 0.29351 0.0
H29 H 0.48482 0.74533 0.01171 0.0
C30 C 0.49221 0.69819 0.20997 0.0
C31 C 0.48576 0.70636 0.11667 0.0
C32 C 0.50268 0.72272 0.27426 0.0
C33 C 0.50513 0.757 0.24412 0.0
C34 C 0.49773 0.76568 0.14871 0.0
C35 C 0.48875 0.73975 0.08567 0.0
H36 H 0.1737 0.357 0.26135 0.0
H37 H 0.26582 0.37713 0.4315 0.0
H38 H 0.26997 0.3992 0.13629 0.0
C39 C 0.20282 0.36195 0.26523 0.0
C40 C 0.22042 0.37549 0.18607 0.0
C41 C 0.21763 0.36687 0.35416 0.0
C42 C 0.25496 0.37333 0.36167 0.0
C43 C 0.27473 0.38502 0.28325 0.0
C44 C 0.25682 0.38679 0.19524 0.0
H45 H 0.05652 0.17064 0.21831 0.0
H46 H 0.05155 0.24663 0.4328 0.0
H47 H 0.01165 0.26948 0.15584 0.0
C48 C 0.05245 0.19688 0.23913 0.0
C49 C 0.03762 0.21956 0.1728 0.0
C50 C 0.05342 0.20528 0.33464 0.0
C51 C 0.04922 0.23955 0.35949 0.0
C52 C 0.03352 0.263 0.29634 0.0
C53 C 0.02664 0.25264 0.2029 0.0
H54 H 0.32792 0.12663 0.23724 0.0
H55 H 0.23948 0.12263 0.43117 0.0
H56 H 0.22987 0.07496 0.1615 0.0
C57 C 0.30075 0.11804 0.25388 0.0
C58 C 0.28217 0.09847 0.18814 0.0
C59 C 0.28854 0.11867 0.34735 0.0
C60 C 0.25051 0.11751 0.36152 0.0
C61 C 0.22837 0.10183 0.29465 0.0
C62 C 0.24508 0.09063 0.20892 0.0
H63 H 0.53366 0.30232 0.15924 0.0
H64 H 0.45648 0.2214 0.1727 0.0
H65 H 0.52715 0.24034 0.4061 0.0
C66 C 0.5228 0.28034 0.19519 0.0
C67 C 0.53264 0.27434 0.28846 0.0
C68 C 0.49402 0.26294 0.15431 0.0
C69 C 0.47929 0.2347 0.2022 0.0
C70 C 0.49327 0.22509 0.2912 0.0
C71 C 0.51934 0.24556 0.33407 0.0
O72 O 0.07416 0.95386 0.85669 0.0
Mg73 Mg 0.06873 0.95558 0.70929 0.0
O74 O 0.01581 0.96398 0.83638 0.0
Mg75 Mg 1.00241 -0.00474 0.70607 0.0
O76 O 0.06165 0.00018 0.63339 0.0
O77 O 0.1143 0.96939 0.63935 0.0
O78 O 0.98798 0.02629 0.57913 0.0
O79 O 0.01213 0.04678 0.79088 0.0
Mg80 Mg 0.92867 0.0392 0.71815 0.0
O81 O 0.94295 -0.00872 0.76573 0.0
O82 O 0.93182 0.04731 0.57029 0.0
O83 O 0.95825 0.07461 0.79747 0.0
O84 O 0.88665 0.01394 0.78382 0.0
C85 C 0.00984 0.91642 0.61546 0.0
C86 C 0.04159 0.95201 0.88669 0.0
C87 C 0.09572 -0.00501 0.60624 0.0
C88 C 0.96358 0.04288 0.53463 0.0
C89 C 0.99218 0.07263 0.8169 0.0
C90 C 0.90969 -0.01083 0.7989 0.0
O91 O 0.04222 0.91378 0.64698 0.0
O92 O 0.99136 0.94439 0.62458 0.0
O93 O 0.41355 0.97638 0.82364 0.0
Mg94 Mg 0.43262 0.93816 0.72813 0.0
O95 O 0.45803 0.01435 0.80454 0.0
Mg96 Mg 0.50474 -0.00653 0.69839 0.0
O97 O 0.49084 0.9379 0.73792 0.0
O98 O 0.49099 0.93739 0.73924 0.0
O99 O 0.5524 0.97186 0.59995 0.0
O100 O 0.54474 -0.01198 0.8133 0.0
Mg101 Mg 0.5734 0.04426 0.71033 0.0
O102 O 0.52069 0.04742 0.66047 0.0
O103 O 0.59926 0.00645 0.62137 0.0
O104 O 0.57908 0.03006 0.85486 0.0
O105 O 0.55655 0.09174 0.65637 0.0
C106 C 0.43278 -0.01156 0.55734 0.0
C107 C 0.4273 0.00511 0.84095 0.0
C108 C 0.51204 0.92017 0.79203 0.0
C109 C 0.58611 0.97966 0.58606 0.0
C110 C 0.56849 -7e-05 0.86691 0.0
C111 C 0.52629 0.07812 0.6322 0.0
O112 O 0.41692 0.96445 0.60089 0.0
O113 O 0.46402 -0.00123 0.58134 0.0
O114 O 0.51324 0.43876 0.91384 0.0
Mg115 Mg 0.54568 0.4576 0.80274 0.0
O116 O 0.48389 0.43857 0.78259 0.0
Mg117 Mg 0.50065 0.49297 0.71275 0.0
O118 O 0.55613 0.50821 0.80138 0.0
O119 O 0.59392 0.46727 0.85845 0.0
O120 O 0.51301 0.54509 0.63329 0.0
O121 O 0.4731 0.5225 0.83372 0.0
Mg122 Mg 0.43299 0.52759 0.68562 0.0
O123 O 0.44722 0.48171 0.62107 0.0
O124 O 0.45905 0.5717 0.63633 0.0
O125 O 0.41382 0.52974 0.82585 0.0
O126 O 0.39515 0.51221 0.59497 0.0
C127 C 0.5481 0.43619 0.60371 0.0
C128 C 0.48944 0.42542 0.86364 0.0
C129 C 0.58593 0.49904 0.84689 0.0
C130 C 0.493 0.57169 0.61688 0.0
C131 C 0.44317 0.53349 0.87023 0.0
C132 C 0.41547 0.48548 0.57944 0.0
O133 O 0.55625 0.42567 0.68503 0.0
O134 O 0.53072 0.46436 0.59431 0.0
O135 O 0.93462 0.45901 0.8783 0.0
Mg136 Mg 0.94311 0.45576 0.73209 0.0
O137 O 0.96151 0.50591 0.84031 0.0
Mg138 Mg 0.00677 0.49568 0.72975 0.0
O139 O 0.99235 0.4405 0.67202 0.0
O140 O 0.94233 0.40839 0.67655 0.0
O141 O 0.05212 0.48386 0.61998 0.0
O142 O 0.04748 0.47119 0.84443 0.0
Mg143 Mg 0.06324 0.53344 0.71414 0.0
O144 O 0.01811 0.55328 0.78365 0.0
O145 O 0.07502 0.53101 0.56884 0.0
O146 O 0.09516 0.5007 0.79845 0.0
O147 O 0.0706 0.58087 0.75815 0.0
C148 C 0.93276 0.51627 0.60393 0.0
C149 C 0.93931 0.4902 0.8929 0.0
C150 C 0.97579 0.4126 0.64925 0.0
C151 C 0.07327 0.49914 0.56372 0.0
C152 C 0.0817 0.47789 0.85024 0.0
C153 C 0.0381 0.58012 0.79441 0.0
O154 O 0.91584 0.49364 0.64952 0.0
O155 O 0.96731 0.51999 0.61529 0.0
H156 H 0.20051 0.03867 0.28067 0.0
H157 H 0.17456 0.1385 0.38952 0.0
H158 H 0.12641 0.11519 0.4901 0.0
H159 H 0.09972 0.06429 0.56843 0.0
H160 H 0.12815 0.96504 0.45806 0.0
H161 H 0.16615 -0.00982 0.33648 0.0
C162 C 0.18339 0.05562 0.32333 0.0
C163 C 0.19165 0.09021 0.32817 0.0
C164 C 0.15645 0.0419 0.38301 0.0
C165 C 0.16913 0.11162 0.38503 0.0
C166 C 0.14175 0.09825 0.4434 0.0
C167 C 0.11362 0.04837 0.51642 0.0
C168 C 0.11184 0.01275 0.52384 0.0
C169 C 0.13641 0.06308 0.44669 0.0
C170 C 0.12977 -0.00752 0.45529 0.0
C171 C 0.15153 0.00682 0.38543 0.0
H172 H 0.50455 0.15711 0.26166 0.0
H173 H 0.45306 0.22912 0.4517 0.0
H174 H 0.45207 0.18624 0.57596 0.0
H175 H 0.47966 0.13313 0.63964 0.0
H176 H 0.52986 0.06036 0.45001 0.0
H177 H 0.51714 0.09807 0.31665 0.0
C178 C 0.49149 0.16282 0.32881 0.0
C179 C 0.47917 0.1963 0.34779 0.0
C180 C 0.4916 0.13804 0.40086 0.0
C181 C 0.46268 0.2035 0.43555 0.0
C182 C 0.46252 0.17908 0.50705 0.0
C183 C 0.48614 0.12493 0.56853 0.0
C184 C 0.50554 0.09406 0.5544 0.0
C185 C 0.47891 0.14693 0.49216 0.0
C186 C 0.51445 0.08387 0.46223 0.0
C187 C 0.50757 0.10564 0.38603 0.0
H188 H 0.33394 0.36529 0.38955 0.0
H189 H 0.28995 0.44923 0.22673 0.0
H190 H 0.3339 0.48698 0.29657 0.0
H191 H 0.37714 0.49822 0.42243 0.0
H192 H 0.4211 0.41566 0.58965 0.0
H193 H 0.38524 0.37522 0.4993 0.0
C194 C 0.33485 0.39162 0.36718 0.0
C195 C 0.30858 0.40431 0.30264 0.0
C196 C 0.35971 0.41357 0.4099 0.0
C197 C 0.31005 0.43852 0.27469 0.0
C198 C 0.33488 0.46032 0.31585 0.0
C199 C 0.37949 0.47125 0.43783 0.0
C200 C 0.40131 0.45994 0.51341 0.0
C201 C 0.35866 0.44842 0.38629 0.0
C202 C 0.40449 0.42495 0.53186 0.0
C203 C 0.38377 0.40191 0.48058 0.0
H204 H 0.06464 0.32252 0.34893 0.0
H205 H 0.96304 0.26907 0.35124 0.0
H206 H 0.93682 0.30925 0.46569 0.0
H207 H 0.94409 0.35713 0.57288 0.0
H208 H 0.04288 0.41426 0.56256 0.0
H209 H 0.06921 0.37531 0.44412 0.0
C210 C 0.0363 0.32059 0.37186 0.0
C211 C 0.01541 0.29342 0.33966 0.0
C212 C 0.02139 0.34386 0.43834 0.0
C213 C 0.97914 0.29046 0.37241 0.0
C214 C 0.96439 0.31308 0.4392 0.0
C215 C 0.97151 0.36107 0.5454 0.0
C216 C 0.9923 0.38804 0.57981 0.0
C217 C 0.98554 0.33941 0.47426 0.0
C218 C 0.02724 0.39297 0.54066 0.0
C219 C 0.04193 0.37095 0.47177 0.0
H220 H 0.8176 0.8753 0.98637 0.0
H221 H 0.8252 0.94356 0.22194 0.0
H222 H 0.87126 0.97582 0.13736 0.0
H223 H 0.90041 -0.00893 0.98629 0.0
H224 H 0.88921 0.92597 0.74637 0.0
H225 H 0.85286 0.88664 0.84122 0.0
C226 C 0.82976 0.89693 0.01997 0.0
C227 C 0.81734 0.90707 0.1105 0.0
C228 C 0.85488 0.91654 0.96879 0.0
C229 C 0.83409 0.93478 0.15318 0.0
C230 C 0.86014 0.95366 0.10403 0.0
C231 C 0.89107 0.9676 0.95598 0.0
C232 C 0.89782 0.96105 0.86008 0.0
C233 C 0.8695 0.94567 0.0105 0.0
C234 C 0.88492 0.9311 0.8205 0.0
C235 C 0.86377 0.90889 0.87452 0.0
H236 H 0.44901 0.80047 0.03881 0.0
H237 H 0.55537 0.80853 0.16526 0.0
H238 H 0.56757 0.85859 0.06796 0.0
H239 H 0.55079 0.89564 0.93417 0.0
H240 H 0.4456 0.88569 0.80279 0.0
H241 H 0.43009 0.84083 0.91435 0.0
C242 C 0.47458 0.81363 0.04642 0.0
C243 C 0.50134 0.80065 0.10913 0.0
C244 C 0.48178 0.84171 0.98815 0.0
C245 C 0.5342 0.8181 0.11855 0.0
C246 C 0.54135 0.84645 0.06189 0.0
C247 C 0.5243 0.88383 0.93046 0.0
C248 C 0.4994 0.89422 0.86024 0.0
C249 C 0.51583 0.85773 -0.00566 0.0
C250 C 0.46513 0.87879 0.85649 0.0
C251 C 0.45636 0.85287 0.92019 0.0
H252 H 0.67705 0.61705 0.03388 0.0
H253 H 0.73236 0.52896 0.15301 0.0
H254 H 0.69135 0.49189 0.07079 0.0
H255 H 0.64234 0.48384 0.96157 0.0
H256 H 0.58351 0.56989 0.84216 0.0
H257 H 0.62356 0.60846 0.9275 0.0
C258 C 0.67946 0.58975 0.04331 0.0
C259 C 0.70734 0.57591 0.10168 0.0
C260 C 0.65567 0.56824 -0.0054 0.0
C261 C 0.71055 0.54045 0.11164 0.0
C262 C 0.68742 0.51915 0.06328 0.0
C263 C 0.63799 0.51103 0.95332 0.0
C264 C 0.61003 0.5238 0.89407 0.0
C265 C 0.66031 0.53272 0.0039 0.0
C266 C 0.605 0.55923 0.88614 0.0
C267 C 0.62781 0.58127 0.93543 0.0
H268 H 0.01895 0.72131 -0.00614 0.0
H269 H 0.95341 0.66449 0.1896 0.0
H270 H 0.96625 0.61236 0.0981 0.0
H271 H 0.9952 0.58358 0.95668 0.0
H272 H 0.05469 0.6447 0.75742 0.0
H273 H 0.04375 0.69471 0.8538 0.0
C274 C 0.00693 0.69767 0.0164 0.0
C275 C 0.98463 0.69709 0.09776 0.0
C276 C 0.01276 0.66861 0.96125 0.0
C277 C 0.97072 0.66577 0.12744 0.0
C278 C 0.97769 0.63605 0.07434 0.0
C279 C 0.0047 0.60806 0.93332 0.0
C280 C 0.02535 0.61038 0.849 0.0
C281 C 0.99814 0.63728 0.98974 0.0
C282 C 0.03868 0.64211 0.82154 0.0
C283 C 0.03264 0.67078 0.87695 0.0
H284 H 0.074 0.13724 0.33684 0.0
H285 H 0.0075 0.21195 0.4886 0.0
H286 H 0.96989 0.16773 0.551 0.0
H287 H 0.95031 0.10931 0.54765 0.0
H288 H 0.01398 0.03387 0.39394 0.0
H289 H 0.05544 0.07773 0.33766 0.0
C290 C 0.05128 0.14397 0.3835 0.0
C291 C 0.04293 0.1784 0.40331 0.0
C292 C 0.02738 0.11867 0.41313 0.0
C293 C 0.01491 0.18606 0.46975 0.0
C294 C 0.99239 0.16077 0.50386 0.0
C295 C 0.9723 0.10268 0.49849 0.0
C296 C 0.97827 0.06873 0.47171 0.0
C297 C 0.99708 0.12745 0.47158 0.0
C298 C 0.00806 0.06017 0.41207 0.0
C299 C 0.03231 0.08502 0.38237 0.0
H300 H 0.36502 0.11534 0.35108 0.0
H301 H 0.26992 0.08376 0.51153 0.0
H302 H 0.30577 0.0385 0.58064 0.0
H303 H 0.36093 0.0025 0.5812 0.0
H304 H 0.45573 0.03133 0.41859 0.0
H305 H 0.42168 0.08101 0.35795 0.0
C306 C 0.35159 0.09857 0.40018 0.0
C307 C 0.31352 0.10233 0.41912 0.0
C308 C 0.37172 0.07061 0.43569 0.0
C309 C 0.29847 0.08173 0.49077 0.0
C310 C 0.31886 0.05497 0.52989 0.0
C311 C 0.37385 0.019 0.53013 0.0
C312 C 0.41036 0.01256 0.50174 0.0
C313 C 0.35471 0.04803 0.49864 0.0
C314 C 0.42723 0.0352 0.4391 0.0
C315 C 0.40803 0.06393 0.40602 0.0
H316 H 0.51634 0.34125 0.27038 0.0
H317 H 0.58218 0.27068 0.4345 0.0
H318 H 0.59717 0.31673 0.54196 0.0
H319 H 0.58502 0.37524 0.59797 0.0
H320 H 0.51868 0.44426 0.43007 0.0
H321 H 0.51181 0.4004 0.31226 0.0
C322 C 0.53532 0.33586 0.327 0.0
C323 C 0.5483 0.3024 0.34369 0.0
C324 C 0.54364 0.36218 0.38787 0.0
C325 C 0.57161 0.29611 0.42024 0.0
C326 C 0.5802 0.32243 0.48155 0.0
C327 C 0.56988 0.38094 0.53439 0.0
C328 C 0.55212 0.41289 0.52324 0.0
C329 C 0.56542 0.35534 0.46745 0.0
C330 C 0.53269 0.41996 0.44044 0.0
C331 C 0.52848 0.39479 0.37331 0.0
H332 H 0.20581 0.43281 0.34092 0.0
H333 H 0.17401 0.34508 0.50126 0.0
H334 H 0.12702 0.38005 0.58455 0.0
H335 H 0.09519 0.4351 0.6062 0.0
H336 H 0.12009 0.51953 0.42419 0.0
H337 H 0.17146 0.48642 0.35575 0.0
C338 C 0.18887 0.42155 0.39535 0.0
C339 C 0.19336 0.38682 0.41692 0.0
C340 C 0.16093 0.44101 0.4373 0.0
C341 C 0.17117 0.37195 0.48553 0.0
C342 C 0.1443 0.39182 0.53196 0.0
C343 C 0.11036 0.44571 0.54781 0.0
C344 C 0.10246 0.47906 0.51619 0.0
C345 C 0.13854 0.42614 0.50657 0.0
C346 C 0.12495 0.49359 0.44738 0.0
C347 C 0.15431 0.47477 0.40884 0.0
H348 H 0.02513 0.812 0.08511 0.0
H349 H 0.91091 0.83609 0.03704 0.0
H350 H 0.92732 0.89219 0.97611 0.0
H351 H 0.97341 0.93355 0.93787 0.0
H352 H 0.08813 0.90925 0.98417 0.0
H353 H 0.0717 0.8545 0.0517 0.0
C354 C 0.004 0.82939 0.05883 0.0
C355 C 0.96712 0.82 0.06188 0.0
C356 C 0.01339 0.86175 0.02805 0.0
C357 C 0.93952 0.84272 0.03189 0.0
C358 C 0.9488 0.87482 -0.00099 0.0
C359 C 0.99493 0.91663 0.96418 0.0
C360 C 0.03204 0.92532 0.9548 0.0
C361 C 0.98553 0.88466 -0.00213 0.0
C362 C 0.05938 0.90321 0.99053 0.0
C363 C 0.05007 0.87167 0.02746 0.0
H364 H 0.67822 0.87938 0.96106 0.0
H365 H 0.69319 0.9407 0.20764 0.0
H366 H 0.64713 0.98179 0.15448 0.0
H367 H 0.60429 0.00209 0.03372 0.0
H368 H 0.58985 0.94098 0.78617 0.0
H369 H 0.63349 0.89854 0.84316 0.0
C370 C 0.67098 0.9016 0.00287 0.0
C371 C 0.68843 0.9069 0.08798 0.0
C372 C 0.64458 0.92541 0.97171 0.0
C373 C 0.6794 0.93593 0.14211 0.0
C374 C 0.65327 0.95958 0.11173 0.0
C375 C 0.61059 0.97932 -0.00673 0.0
C376 C 0.59353 0.97438 0.90748 0.0
C377 C 0.63591 0.95483 0.02615 0.0
C378 C 0.60205 0.94495 0.85427 0.0
C379 C 0.62725 0.92069 0.88612 0.0
H380 H 0.42576 0.66813 0.10543 0.0
H381 H 0.53445 0.68099 0.99105 0.0
H382 H 0.53246 0.62533 0.91577 0.0
H383 H 0.50116 0.57315 0.88881 0.0
H384 H 0.38984 0.56092 0.9878 0.0
H385 H 0.39183 0.61626 0.0669 0.0
C386 C 0.4484 0.65893 0.06155 0.0
C387 C 0.47997 0.67835 0.05185 0.0
C388 C 0.44706 0.62692 0.01934 0.0
C389 C 0.50965 0.66648 -0.00309 0.0
C390 C 0.50873 0.63456 0.95559 0.0
C391 C 0.47738 0.58206 0.92909 0.0
C392 C 0.4456 0.56256 0.93447 0.0
C393 C 0.47791 0.61439 0.96822 0.0
C394 C 0.41485 0.57517 0.98466 0.0
C395 C 0.41582 0.60693 0.0284 0.0
H396 H 0.7939 0.55892 0.03803 0.0
H397 H 0.85845 0.64908 0.01978 0.0
H398 H 0.91121 0.61451 0.96244 0.0
H399 H 0.93894 0.55802 0.92719 0.0
H400 H 0.87428 0.46837 0.96389 0.0
H401 H 0.8214 0.50375 0.0093 0.0
C402 C 0.81907 0.5714 0.01863 0.0
C403 C 0.82192 0.60675 0.03004 0.0
C404 C 0.84951 0.5513 -0.00651 0.0
C405 C 0.85531 0.62212 0.00848 0.0
C406 C 0.88556 0.60226 0.97797 0.0
C407 C 0.91356 0.54617 0.94725 0.0
C408 C 0.91071 0.51053 0.94259 0.0
C409 C 0.88313 0.5667 0.97276 0.0
C410 C 0.87746 0.49561 0.96791 0.0
C411 C 0.84703 0.51584 0.9924 0.0
H412 H 0.07902 0.18011 0.05343 0.0
H413 H 0.96934 0.2212 0.09504 0.0
H414 H 0.94592 0.17987 0.98408 0.0
H415 H 0.95537 0.12742 0.89286 0.0
H416 H 0.06442 0.0832 0.86119 0.0
H417 H 0.08917 0.12987 0.95244 0.0
C418 C 0.05013 0.18072 0.03572 0.0
C419 C 0.02603 0.20401 0.08232 0.0
C420 C 0.03658 0.1555 0.9762 0.0
C421 C 0.98866 0.20422 0.05919 0.0
C422 C 0.97515 0.18003 -0.00286 0.0
C423 C 0.98466 0.12795 0.90507 0.0
C424 C 0.00793 0.10138 0.87046 0.0
C425 C 0.99865 0.15474 0.95825 0.0
C426 C 0.04576 0.10289 0.88742 0.0
C427 C 0.05995 0.12974 0.93926 0.0
H428 H 0.35585 0.08101 0.18499 0.0
H429 H 0.25901 0.07727 0.01245 0.0
H430 H 0.29568 0.04898 0.88885 0.0
H431 H 0.35533 0.0241 0.83179 0.0
H432 H 0.45221 0.03526 -0.00109 0.0
H433 H 0.41539 0.06402 0.12146 0.0
C434 C 0.34241 0.07566 0.1194 0.0
C435 C 0.30421 0.08237 0.10875 0.0
C436 C 0.3639 0.06092 0.0472 0.0
C437 C 0.288 0.0726 0.024 0.0
C438 C 0.3091 0.0566 0.95274 0.0
C439 C 0.36838 0.03345 0.89446 0.0
C440 C 0.40644 0.02763 0.90664 0.0
C441 C 0.34706 0.05052 0.96381 0.0
C442 C 0.42313 0.03978 0.98771 0.0
C443 C 0.40199 0.05592 0.05796 0.0
H444 H 0.52005 0.27528 0.97819 0.0
H445 H 0.4282 0.29599 0.16335 0.0
H446 H 0.41452 0.34903 0.07958 0.0
H447 H 0.4381 0.39546 0.97792 0.0
H448 H 0.52977 0.37381 0.79235 0.0
H449 H 0.53433 0.3157 0.85163 0.0
C450 C 0.49572 0.2904 -0.00358 0.0
C451 C 0.47515 0.28161 0.07688 0.0
C452 C 0.48885 0.32154 0.94983 0.0
C453 C 0.44415 0.30185 0.10095 0.0
C454 C 0.43684 0.33269 0.0543 0.0
C455 C 0.45796 0.37751 0.94782 0.0
C456 C 0.48338 0.38882 0.88024 0.0
C457 C 0.46036 0.34377 0.98228 0.0
C458 C 0.50954 0.36554 0.8432 0.0
C459 C 0.51234 0.3323 0.87764 0.0
H460 H 0.21216 0.43938 0.11989 0.0
H461 H 0.17131 0.33861 0.08534 0.0
H462 H 0.12211 0.36102 0.98429 0.0
H463 H 0.08976 0.41041 0.90692 0.0
H464 H 0.13162 0.51071 0.9491 0.0
H465 H 0.18064 0.48753 0.04601 0.0
C466 C 0.19328 0.42213 0.08769 0.0
C467 C 0.19623 0.38723 0.10773 0.0
C468 C 0.16445 0.43532 0.03247 0.0
C469 C 0.17031 0.36549 0.06883 0.0
C470 C 0.14183 0.37839 0.01213 0.0
C471 C 0.10927 0.4271 0.93879 0.0
C472 C 0.10684 0.46231 0.92083 0.0
C473 C 0.13825 0.41344 -0.00575 0.0
C474 C 0.13276 0.48353 0.96165 0.0
C475 C 0.16106 0.47031 0.01673 0.0
H476 H 0.92166 0.80675 0.39407 0.0
H477 H 0.02969 0.76039 0.37201 0.0
H478 H 0.05279 0.80157 0.48399 0.0
H479 H 0.04488 0.8572 0.56216 0.0
H480 H 0.93837 0.90779 0.56468 0.0
H481 H 0.91246 0.85953 0.48324 0.0
C482 C 0.94994 0.80482 0.41697 0.0
C483 C 0.97392 0.78056 0.37407 0.0
C484 C 0.96373 0.83058 0.474 0.0
C485 C 0.01049 0.77843 0.40422 0.0
C486 C 0.02393 0.80264 0.46642 0.0
C487 C 0.01589 0.8576 0.5458 0.0
C488 C 0.99373 0.88645 0.56881 0.0
C489 C 1.00127 0.82996 0.49725 0.0
C490 C 0.95622 0.88629 0.54694 0.0
C491 C 0.94131 0.85853 0.50094 0.0
H492 H 0.67839 0.86179 0.38461 0.0
H493 H 0.75953 0.93999 0.37956 0.0
H494 H 0.7197 0.97575 0.47743 0.0
H495 H 0.6581 -0.01066 0.54063 0.0
H496 H 0.57303 0.91545 0.52057 0.0
H497 H 0.61681 0.87519 0.44752 0.0
C498 C 0.68754 0.88679 0.40371 0.0
C499 C 0.72182 0.8983 0.36978 0.0
C500 C 0.66279 0.90897 0.45125 0.0
C501 C 0.7336 0.92992 0.40253 0.0
C502 C 0.71028 0.95098 0.45698 0.0
C503 C 0.64893 0.96447 0.52024 0.0
C504 C 0.61197 0.95572 0.53574 0.0
C505 C 0.67415 0.94154 0.47718 0.0
C506 C 0.60102 0.92318 0.50895 0.0
C507 C 0.62621 0.89996 0.46801 0.0
H508 H 0.55561 0.67822 0.33129 0.0
H509 H 0.46064 0.7353 0.43 0.0
H510 H 0.45189 0.69397 0.55662 0.0
H511 H 0.4634 0.63588 0.61611 0.0
H512 H 0.55575 0.57652 0.50927 0.0
H513 H 0.57332 0.62417 0.40879 0.0
C514 C 0.53417 0.6825 0.38371 0.0
C515 C 0.50889 0.70997 0.3715 0.0
C516 C 0.52797 0.65737 0.4524 0.0
C517 C 0.4808 0.71486 0.43863 0.0
C518 C 0.47531 0.69069 0.5097 0.0
C519 C 0.48779 0.63351 0.57208 0.0
C520 C 0.50786 0.6023 0.56913 0.0
C521 C 0.49741 0.66089 0.51358 0.0
C522 C 0.53968 0.60002 0.51273 0.0
C523 C 0.54968 0.62731 0.45504 0.0
H524 H 0.86217 0.58965 0.25394 0.0
H525 H 0.76431 0.58333 0.42678 0.0
H526 H 0.80067 0.55645 0.55149 0.0
H527 H 0.86005 0.53355 0.60971 0.0
H528 H 0.95798 0.54468 0.44073 0.0
H529 H 0.9217 0.57256 0.31738 0.0
C530 C 0.84856 0.58377 0.31981 0.0
C531 C 0.81016 0.58936 0.33057 0.0
C532 C 0.86977 0.56925 0.39216 0.0
C533 C 0.79354 0.57945 0.41562 0.0
C534 C 0.81441 0.56419 0.48732 0.0
C535 C 0.87351 0.5424 0.54621 0.0
C536 C 0.91173 0.53688 0.53422 0.0
C537 C 0.8525 0.55877 0.47607 0.0
C538 C 0.92876 0.54875 0.452 0.0
C539 C 0.90795 0.56448 0.38124 0.0
loop_
_geom_bond_atom_site_label_1
_geom_bond_atom_site_label_2
_geom_bond_distance
_geom_bond_site_symmetry_2
_ccdc_geom_bond_type
H0 C3 0.931 . S
H1 C6 0.928 1_556 S
H2 C8 0.930 . S
C3 H0 0.931 . S
C3 C4 1.413 . S
C3 C5 1.360 . S
C4 C3 1.413 . S
C4 C8 1.429 . S
C5 C3 1.360 . S
C5 C6 1.372 . S
C6 H1 0.928 1_554 S
C6 C5 1.372 . S
C6 C7 1.404 . S
C7 C6 1.404 . S
C7 C8 1.391 . S
C8 H2 0.930 . S
C8 C4 1.429 . S
C8 C7 1.391 . S
H9 C12 0.931 . S
H10 C15 0.928 1_556 S
H11 C17 0.930 . S
C12 H9 0.931 . S
C12 C13 1.413 . S
C12 C14 1.360 . S
C13 C12 1.413 . S
C13 C17 1.429 1_655 S
C14 C12 1.360 . S
C14 C15 1.373 . S
C15 H10 0.928 1_554 S
C15 C14 1.373 . S
C15 C16 1.404 . S
C16 C15 1.404 . S
C16 C17 1.390 1_655 S
C17 H11 0.930 . S
C17 C13 1.429 1_455 S
C17 C16 1.390 1_455 S
H18 C21 0.931 . S
H19 C24 0.928 1_556 S
H20 C26 0.930 . S
C21 H18 0.931 . S
C21 C22 1.413 . S
C21 C23 1.360 . S
C22 C21 1.413 . S
C22 C26 1.429 . S
C23 C21 1.360 . S
C23 C24 1.372 . S
C24 H19 0.928 1_554 S
C24 C23 1.372 . S
C24 C25 1.404 . S
C25 C24 1.404 . S
C25 C26 1.391 . S
C26 H20 0.930 . S
C26 C22 1.429 . S
C26 C25 1.391 . S
H27 C30 0.931 . S
H28 C33 0.928 . S
H29 C35 0.930 1_556 S
C30 H27 0.931 . S
C30 C31 1.413 . S
C30 C32 1.360 . S
C31 C30 1.413 . S
C31 C35 1.429 . S
C32 C30 1.360 . S
C32 C33 1.372 . S
C33 H28 0.928 . S
C33 C32 1.372 . S
C33 C34 1.404 . S
C34 C33 1.404 . S
C34 C35 1.391 . S
C35 H29 0.930 1_554 S
C35 C31 1.429 . S
C35 C34 1.391 . S
H36 C39 0.931 . S
H37 C42 0.928 . S
H38 C44 0.930 . S
C39 H36 0.931 . S
C39 C40 1.413 . S
C39 C41 1.360 . S
C40 C39 1.413 . S
C40 C44 1.429 . S
C41 C39 1.360 . S
C41 C42 1.372 . S
C42 H37 0.928 . S
C42 C41 1.372 . S
C42 C43 1.404 . S
C43 C42 1.404 . S
C43 C44 1.391 . S
C44 H38 0.930 . S
C44 C40 1.429 . S
C44 C43 1.391 . S
H45 C48 0.930 . S
H46 C51 0.928 . S
H47 C53 0.931 . S
C48 H45 0.930 . S
C48 C49 1.413 . S
C48 C50 1.360 . S
C49 C48 1.413 . S
C49 C53 1.429 1_655 S
C50 C48 1.360 . S
C50 C51 1.372 . S
C51 H46 0.928 . S
C51 C50 1.372 . S
C51 C52 1.404 . S
C52 C51 1.404 . S
C52 C53 1.391 1_655 S
C53 H47 0.931 . S
C53 C49 1.429 1_455 S
C53 C52 1.391 1_455 S
H54 C57 0.931 . S
H55 C60 0.928 . S
H56 C62 0.930 . S
C57 H54 0.931 . S
C57 C58 1.413 . S
C57 C59 1.360 . S
C58 C57 1.413 . S
C58 C62 1.429 . S
C59 C57 1.360 . S
C59 C60 1.372 . S
C60 H55 0.928 . S
C60 C59 1.372 . S
C60 C61 1.404 . S
C61 C60 1.404 . S
C61 C62 1.391 . S
C62 H56 0.930 . S
C62 C58 1.429 . S
C62 C61 1.391 . S
H63 C66 0.931 . S
H64 C69 0.928 . S
H65 C71 0.930 . S
C66 H63 0.931 . S
C66 C67 1.413 . S
C66 C68 1.360 . S
C67 C66 1.413 . S
C67 C71 1.429 . S
C68 C66 1.360 . S
C68 C69 1.372 . S
C69 H64 0.928 . S
C69 C68 1.372 . S
C69 C70 1.404 . S
C70 C69 1.404 . S
C70 C71 1.391 . S
C71 H65 0.930 . S
C71 C67 1.429 . S
C71 C70 1.391 . S
O72 Mg73 1.990 . S
O72 C86 1.253 . S
Mg73 O72 1.990 . S
Mg73 O76 2.180 1_565 S
Mg73 O77 2.117 . S
Mg73 O91 2.030 . S
O74 Mg75 2.072 1_465 S
O74 C86 1.260 . S
Mg75 O74 2.072 1_645 S
Mg75 O76 2.099 1_655 S
Mg75 O78 2.079 . S
Mg75 O79 2.072 1_655 S
Mg75 O81 2.099 . S
Mg75 O92 2.079 1_545 S
O76 Mg73 2.180 1_545 S
O76 Mg75 2.099 1_455 S
O76 C87 1.279 . S
O77 Mg73 2.117 . S
O77 C87 1.250 1_565 S
O78 Mg75 2.079 . S
O78 C88 1.264 . S
O79 Mg75 2.072 1_455 S
O79 C89 1.260 . S
Mg80 O81 2.180 . S
Mg80 O82 2.030 . S
Mg80 O83 1.990 . S
Mg80 O84 2.117 . S
O81 Mg75 2.099 . S
O81 Mg80 2.180 . S
O81 C90 1.279 . S
O82 Mg80 2.030 . S
O82 C88 1.248 . S
O83 Mg80 1.990 . S
O83 C89 1.253 1_655 S
O84 Mg80 2.117 . S
O84 C90 1.250 . S
C85 O91 1.248 1_655 S
C85 O92 1.264 . S
C86 O72 1.253 . S
C86 O74 1.260 . S
C87 O76 1.279 . S
C87 O77 1.250 1_545 S
C88 O78 1.264 . S
C88 O82 1.248 . S
C89 O79 1.260 . S
C89 O83 1.253 1_455 S
C90 O81 1.279 . S
C90 O84 1.250 . S
O91 Mg73 2.030 . S
O91 C85 1.248 1_455 S
O92 Mg75 2.079 1_565 S
O92 C85 1.264 . S
O93 Mg94 1.990 1_545 S
O93 C107 1.253 . S
Mg94 O93 1.990 1_565 S
Mg94 O97 2.180 . S
Mg94 O98 2.117 . S
Mg94 O112 2.030 1_565 S
O95 Mg96 2.072 . S
O95 C107 1.260 . S
Mg96 O95 2.072 . S
Mg96 O97 2.099 1_545 S
Mg96 O99 2.079 1_545 S
Mg96 O100 2.072 1_545 S
Mg96 O102 2.099 . S
Mg96 O113 2.079 . S
O97 Mg94 2.180 . S
O97 Mg96 2.099 1_565 S
O97 C108 1.279 . S
O98 Mg94 2.117 . S
O98 C108 1.250 . S
O99 Mg96 2.079 1_565 S
O99 C109 1.264 . S
O100 Mg96 2.072 1_565 S
O100 C110 1.260 1_565 S
Mg101 O102 2.180 . S
Mg101 O103 2.030 1_545 S
Mg101 O104 1.990 . S
Mg101 O105 2.117 . S
O102 Mg96 2.099 . S
O102 Mg101 2.180 . S
O102 C111 1.279 . S
O103 Mg101 2.030 1_565 S
O103 C109 1.248 . S
O104 Mg101 1.990 . S
O104 C110 1.253 . S
O105 Mg101 2.117 . S
O105 C111 1.250 . S
C106 O112 1.248 . S
C106 O113 1.264 . S
C107 O93 1.253 . S
C107 O95 1.260 . S
C108 O97 1.279 . S
C108 O98 1.250 . S
C109 O99 1.264 . S
C109 O103 1.248 . S
C110 O100 1.260 1_545 S
C110 O104 1.253 . S
C111 O102 1.279 . S
C111 O105 1.250 . S
O112 Mg94 2.030 1_545 S
O112 C106 1.248 . S
O113 Mg96 2.079 . S
O113 C106 1.264 . S
O114 Mg115 1.990 . S
O114 C128 1.253 . S
Mg115 O114 1.990 . S
Mg115 O118 2.180 . S
Mg115 O119 2.117 . S
Mg115 O133 2.030 . S
O116 Mg117 2.072 . S
O116 C128 1.260 . S
Mg117 O116 2.072 . S
Mg117 O118 2.099 . S
Mg117 O120 2.079 . S
Mg117 O121 2.072 . S
Mg117 O123 2.099 . S
Mg117 O134 2.079 . S
O118 Mg115 2.180 . S
O118 Mg117 2.099 . S
O118 C129 1.279 . S
O119 Mg115 2.117 . S
O119 C129 1.250 . S
O120 Mg117 2.079 . S
O120 C130 1.264 . S
O121 Mg117 2.072 . S
O121 C131 1.260 . S
Mg122 O123 2.180 . S
Mg122 O124 2.030 . S
Mg122 O125 1.990 . S
Mg122 O126 2.117 . S
O123 Mg117 2.099 . S
O123 Mg122 2.180 . S
O123 C132 1.279 . S
O124 Mg122 2.030 . S
O124 C130 1.248 . S
O125 Mg122 1.990 . S
O125 C131 1.253 . S
O126 Mg122 2.117 . S
O126 C132 1.250 . S
C127 O133 1.248 . S
C127 O134 1.264 . S
C128 O114 1.253 . S
C128 O116 1.260 . S
C129 O118 1.279 . S
C129 O119 1.250 . S
C130 O120 1.264 . S
C130 O124 1.248 . S
C131 O121 1.260 . S
C131 O125 1.253 . S
C132 O123 1.279 . S
C132 O126 1.250 . S
O133 Mg115 2.030 . S
O133 C127 1.248 . S
O134 Mg117 2.079 . S
O134 C127 1.264 . S
O135 Mg136 1.990 . S
O135 C149 1.253 . S
Mg136 O135 1.990 . S
Mg136 O139 2.180 . S
Mg136 O140 2.117 . S
Mg136 O154 2.030 . S
O137 Mg138 2.072 1_655 S
O137 C149 1.260 . S
Mg138 O137 2.072 1_455 S
Mg138 O139 2.099 1_455 S
Mg138 O141 2.079 . S
Mg138 O142 2.072 . S
Mg138 O144 2.099 . S
Mg138 O155 2.079 1_455 S
O139 Mg136 2.180 . S
O139 Mg138 2.099 1_655 S
O139 C150 1.279 . S
O140 Mg136 2.117 . S
O140 C150 1.250 . S
O141 Mg138 2.079 . S
O141 C151 1.264 . S
O142 Mg138 2.072 . S
O142 C152 1.260 . S
Mg143 O144 2.180 . S
Mg143 O145 2.030 . S
Mg143 O146 1.990 . S
Mg143 O147 2.117 . S
O144 Mg138 2.099 . S
O144 Mg143 2.180 . S
O144 C153 1.279 . S
O145 Mg143 2.030 . S
O145 C151 1.248 . S
O146 Mg143 1.990 . S
O146 C152 1.253 . S
O147 Mg143 2.117 . S
O147 C153 1.250 . S
C148 O154 1.248 . S
C148 O155 1.264 . S
C149 O135 1.253 . S
C149 O137 1.260 . S
C150 O139 1.279 . S
C150 O140 1.250 . S
C151 O141 1.264 . S
C151 O145 1.248 . S
C152 O142 1.260 . S
C152 O146 1.253 . S
C153 O144 1.279 . S
C153 O147 1.250 . S
O154 Mg136 2.030 . S
O154 C148 1.248 . S
O155 Mg138 2.079 1_655 S
O155 C148 1.264 . S
H156 C162 0.930 . S
H157 C165 0.930 . S
H158 C166 0.930 . S
H159 C167 0.930 . S
H160 C170 0.930 . S
H161 C171 0.930 . S
C162 H156 0.930 . S
C162 C163 1.355 . S
C162 C164 1.415 . S
C163 C162 1.355 . S
C163 C165 1.419 . S
C164 C162 1.415 . S
C164 C169 1.425 . S
C164 C171 1.409 . S
C165 H157 0.930 . S
C165 C163 1.419 . S
C165 C166 1.362 . S
C166 H158 0.930 . S
C166 C165 1.362 . S
C166 C169 1.409 . S
C167 H159 0.930 . S
C167 C168 1.355 . S
C167 C169 1.415 . S
C168 C167 1.355 . S
C168 C170 1.419 . S
C169 C164 1.425 . S
C169 C166 1.409 . S
C169 C167 1.415 . S
C170 H160 0.930 . S
C170 C168 1.419 . S
C170 C171 1.362 . S
C171 H161 0.930 . S
C171 C164 1.409 . S
C171 C170 1.362 . S
H172 C178 0.930 . S
H173 C181 0.930 . S
H174 C182 0.930 . S
H175 C183 0.930 . S
H176 C186 0.930 . S
H177 C187 0.930 . S
C178 H172 0.930 . S
C178 C179 1.355 . S
C178 C180 1.415 . S
C179 C178 1.355 . S
C179 C181 1.419 . S
C180 C178 1.415 . S
C180 C185 1.425 . S
C180 C187 1.409 . S
C181 H173 0.930 . S
C181 C179 1.419 . S
C181 C182 1.362 . S
C182 H174 0.930 . S
C182 C181 1.362 . S
C182 C185 1.409 . S
C183 H175 0.930 . S
C183 C184 1.355 . S
C183 C185 1.415 . S
C184 C183 1.355 . S
C184 C186 1.419 . S
C185 C180 1.425 . S
C185 C182 1.409 . S
C185 C183 1.415 . S
C186 H176 0.930 . S
C186 C184 1.419 . S
C186 C187 1.362 . S
C187 H177 0.930 . S
C187 C180 1.409 . S
C187 C186 1.362 . S
H188 C194 0.930 . S
H189 C197 0.930 . S
H190 C198 0.930 . S
H191 C199 0.930 . S
H192 C202 0.930 . S
H193 C203 0.930 . S
C194 H188 0.930 . S
C194 C195 1.355 . S
C194 C196 1.415 . S
C195 C194 1.355 . S
C195 C197 1.419 . S
C196 C194 1.415 . S
C196 C201 1.425 . S
C196 C203 1.409 . S
C197 H189 0.930 . S
C197 C195 1.419 . S
C197 C198 1.362 . S
C198 H190 0.930 . S
C198 C197 1.362 . S
C198 C201 1.409 . S
C199 H191 0.930 . S
C199 C200 1.355 . S
C199 C201 1.415 . S
C200 C199 1.355 . S
C200 C202 1.419 . S
C201 C196 1.425 . S
C201 C198 1.409 . S
C201 C199 1.415 . S
C202 H192 0.930 . S
C202 C200 1.419 . S
C202 C203 1.362 . S
C203 H193 0.930 . S
C203 C196 1.409 . S
C203 C202 1.362 . S
H204 C210 0.930 . S
H205 C213 0.930 . S
H206 C214 0.930 . S
H207 C215 0.930 . S
H208 C218 0.930 . S
H209 C219 0.930 . S
C210 H204 0.930 . S
C210 C211 1.355 1_455 S
C210 C212 1.419 . S
C211 C210 1.355 1_655 S
C211 C213 1.419 . S
C212 C210 1.419 . S
C212 C217 1.415 1_455 S
C212 C219 1.415 . S
C213 H205 0.930 . S
C213 C211 1.419 . S
C213 C214 1.362 . S
C214 H206 0.930 . S
C214 C213 1.362 . S
C214 C217 1.409 . S
C215 H207 0.930 . S
C215 C216 1.355 . S
C215 C217 1.415 . S
C216 C215 1.355 . S
C216 C218 1.419 1_655 S
C217 C212 1.415 1_655 S
C217 C214 1.409 . S
C217 C215 1.415 . S
C218 H208 0.930 . S
C218 C216 1.419 1_455 S
C218 C219 1.362 . S
C219 H209 0.930 . S
C219 C212 1.415 . S
C219 C218 1.362 . S
H220 C226 0.930 . S
H221 C229 0.930 . S
H222 C230 0.930 . S
H223 C231 0.930 . S
H224 C234 0.930 . S
H225 C235 0.930 . S
C226 H220 0.930 . S
C226 C227 1.355 1_556 S
C226 C228 1.415 . S
C227 C226 1.355 1_554 S
C227 C229 1.419 . S
C228 C226 1.415 . S
C228 C233 1.425 . S
C228 C235 1.409 . S
C229 H221 0.930 . S
C229 C227 1.419 . S
C229 C230 1.362 . S
C230 H222 0.930 . S
C230 C229 1.362 . S
C230 C233 1.409 1_554 S
C231 H223 0.930 . S
C231 C232 1.355 . S
C231 C233 1.415 . S
C232 C231 1.355 . S
C232 C234 1.419 . S
C233 C228 1.425 . S
C233 C230 1.409 1_556 S
C233 C231 1.415 . S
C234 H224 0.930 . S
C234 C232 1.419 . S
C234 C235 1.362 . S
C235 H225 0.930 . S
C235 C228 1.409 . S
C235 C234 1.362 . S
H236 C242 0.930 . S
H237 C245 0.930 . S
H238 C246 0.930 . S
H239 C247 0.930 . S
H240 C250 0.930 . S
H241 C251 0.930 . S
C242 H236 0.930 . S
C242 C243 1.355 . S
C242 C244 1.415 1_554 S
C243 C242 1.355 . S
C243 C245 1.419 . S
C244 C242 1.415 1_556 S
C244 C249 1.425 . S
C244 C251 1.409 . S
C245 H237 0.930 . S
C245 C243 1.419 . S
C245 C246 1.362 1_554 S
C246 H238 0.930 . S
C246 C245 1.362 1_556 S
C246 C249 1.409 . S
C247 H239 0.930 . S
C247 C248 1.355 . S
C247 C249 1.415 . S
C248 C247 1.355 . S
C248 C250 1.419 . S
C249 C244 1.425 . S
C249 C246 1.409 . S
C249 C247 1.415 . S
C250 H240 0.930 . S
C250 C248 1.419 . S
C250 C251 1.362 . S
C251 H241 0.930 . S
C251 C244 1.409 . S
C251 C250 1.362 . S
H252 C258 0.930 . S
H253 C261 0.930 . S
H254 C262 0.930 . S
H255 C263 0.930 . S
H256 C266 0.930 . S
H257 C267 0.930 1_554 S
C258 H252 0.930 . S
C258 C259 1.355 . S
C258 C260 1.415 1_554 S
C259 C258 1.355 . S
C259 C261 1.419 1_554 S
C260 C258 1.415 1_556 S
C260 C265 1.425 . S
C260 C267 1.409 . S
C261 H253 0.930 . S
C261 C259 1.419 1_556 S
C261 C262 1.362 . S
C262 H254 0.930 . S
C262 C261 1.362 . S
C262 C265 1.409 . S
C263 H255 0.930 . S
C263 C264 1.355 . S
C263 C265 1.415 . S
C264 C263 1.355 . S
C264 C266 1.419 . S
C265 C260 1.425 . S
C265 C262 1.409 . S
C265 C263 1.415 . S
C266 H256 0.930 . S
C266 C264 1.419 . S
C266 C267 1.362 . S
C267 H257 0.930 1_556 S
C267 C260 1.409 . S
C267 C266 1.362 . S
H268 C274 0.930 . S
H269 C277 0.930 . S
H270 C278 0.930 . S
H271 C279 0.929 1_655 S
H272 C282 0.930 . S
H273 C283 0.930 . S
C274 H268 0.930 . S
C274 C275 1.355 1_456 S
C274 C276 1.415 . S
C275 C274 1.355 1_654 S
C275 C277 1.419 . S
C276 C274 1.415 . S
C276 C281 1.431 . S
C276 C283 1.409 . S
C277 H269 0.930 . S
C277 C275 1.419 . S
C277 C278 1.362 . S
C278 H270 0.930 . S
C278 C277 1.362 . S
C278 C281 1.403 1_654 S
C279 H271 0.929 1_455 S
C279 C280 1.355 . S
C279 C281 1.416 . S
C280 C279 1.355 . S
C280 C282 1.419 . S
C281 C276 1.431 . S
C281 C278 1.403 1_456 S
C281 C279 1.416 . S
C282 H272 0.930 . S
C282 C280 1.419 . S
C282 C283 1.362 . S
C283 H273 0.930 . S
C283 C276 1.409 . S
C283 C282 1.362 . S
H284 C290 0.930 . S
H285 C293 0.930 . S
H286 C294 0.930 . S
H287 C295 0.930 . S
H288 C298 0.931 . S
H289 C299 0.930 . S
C290 H284 0.930 . S
C290 C291 1.355 1_455 S
C290 C292 1.415 1_455 S
C291 C290 1.355 1_655 S
C291 C293 1.419 . S
C292 C290 1.415 1_655 S
C292 C297 1.425 . S
C292 C299 1.409 1_655 S
C293 H285 0.930 . S
C293 C291 1.419 . S
C293 C294 1.362 . S
C294 H286 0.930 . S
C294 C293 1.362 . S
C294 C297 1.409 . S
C295 H287 0.930 . S
C295 C296 1.355 . S
C295 C297 1.415 . S
C296 C295 1.355 . S
C296 C298 1.419 . S
C297 C292 1.425 . S
C297 C294 1.409 . S
C297 C295 1.415 . S
C298 H288 0.931 . S
C298 C296 1.419 . S
C298 C299 1.362 1_655 S
C299 H289 0.930 . S
C299 C292 1.409 1_455 S
C299 C298 1.362 1_455 S
H300 C306 0.930 . S
H301 C309 0.930 . S
H302 C310 0.930 . S
H303 C311 0.930 1_565 S
H304 C314 0.930 . S
H305 C315 0.930 . S
C306 H300 0.930 . S
C306 C307 1.355 . S
C306 C308 1.415 . S
C307 C306 1.355 . S
C307 C309 1.419 . S
C308 C306 1.415 . S
C308 C313 1.425 . S
C308 C315 1.409 . S
C309 H301 0.930 . S
C309 C307 1.419 . S
C309 C310 1.362 . S
C310 H302 0.930 . S
C310 C309 1.362 . S
C310 C313 1.409 . S
C311 H303 0.930 1_545 S
C311 C312 1.355 . S
C311 C313 1.415 . S
C312 C311 1.355 . S
C312 C314 1.419 . S
C313 C308 1.425 . S
C313 C310 1.409 . S
C313 C311 1.415 . S
C314 H304 0.930 . S
C314 C312 1.419 . S
C314 C315 1.362 . S
C315 H305 0.930 . S
C315 C308 1.409 . S
C315 C314 1.362 . S
H316 C322 0.930 . S
H317 C325 0.930 . S
H318 C326 0.930 . S
H319 C327 0.930 . S
H320 C330 0.930 . S
H321 C331 0.930 . S
C322 H316 0.930 . S
C322 C323 1.355 . S
C322 C324 1.415 . S
C323 C322 1.355 . S
C323 C325 1.419 . S
C324 C322 1.415 . S
C324 C329 1.425 . S
C324 C331 1.409 . S
C325 H317 0.930 . S
C325 C323 1.419 . S
C325 C326 1.362 . S
C326 H318 0.930 . S
C326 C325 1.362 . S
C326 C329 1.409 . S
C327 H319 0.930 . S
C327 C328 1.355 . S
C327 C329 1.415 . S
C328 C327 1.355 . S
C328 C330 1.419 . S
C329 C324 1.425 . S
C329 C326 1.409 . S
C329 C327 1.415 . S
C330 H320 0.930 . S
C330 C328 1.419 . S
C330 C331 1.362 . S
C331 H321 0.930 . S
C331 C324 1.409 . S
C331 C330 1.362 . S
H332 C338 0.930 . S
H333 C341 0.930 . S
H334 C342 0.930 . S
H335 C343 0.930 . S
H336 C346 0.930 . S
H337 C347 0.930 . S
C338 H332 0.930 . S
C338 C339 1.355 . S
C338 C340 1.415 . S
C339 C338 1.355 . S
C339 C341 1.419 . S
C340 C338 1.415 . S
C340 C345 1.425 . S
C340 C347 1.409 . S
C341 H333 0.930 . S
C341 C339 1.419 . S
C341 C342 1.362 . S
C342 H334 0.930 . S
C342 C341 1.362 . S
C342 C345 1.409 . S
C343 H335 0.930 . S
C343 C344 1.355 . S
C343 C345 1.415 . S
C344 C343 1.355 . S
C344 C346 1.419 . S
C345 C340 1.425 . S
C345 C342 1.409 . S
C345 C343 1.415 . S
C346 H336 0.930 . S
C346 C344 1.419 . S
C346 C347 1.362 . S
C347 H337 0.930 . S
C347 C340 1.409 . S
C347 C346 1.362 . S
H348 C354 0.930 . S
H349 C357 0.930 . S
H350 C358 0.930 . S
H351 C359 0.930 . S
H352 C362 0.930 . S
H353 C363 0.930 1_554 S
C354 H348 0.930 . S
C354 C355 1.355 1_455 S
C354 C356 1.415 1_554 S
C355 C354 1.355 1_655 S
C355 C357 1.419 1_554 S
C356 C354 1.415 1_556 S
C356 C361 1.425 1_455 S
C356 C363 1.409 . S
C357 H349 0.930 . S
C357 C355 1.419 1_556 S
C357 C358 1.362 . S
C358 H350 0.930 . S
C358 C357 1.362 . S
C358 C361 1.409 . S
C359 H351 0.930 . S
C359 C360 1.355 1_655 S
C359 C361 1.415 . S
C360 C359 1.355 1_455 S
C360 C362 1.419 . S
C361 C356 1.425 1_655 S
C361 C358 1.409 . S
C361 C359 1.415 . S
C362 H352 0.930 . S
C362 C360 1.419 . S
C362 C363 1.362 . S
C363 H353 0.930 1_556 S
C363 C356 1.409 . S
C363 C362 1.362 . S
H364 C370 0.930 . S
H365 C373 0.930 . S
H366 C374 0.930 . S
H367 C375 0.930 . S
H368 C378 0.930 . S
H369 C379 0.930 . S
C370 H364 0.930 . S
C370 C371 1.355 1_556 S
C370 C372 1.415 . S
C371 C370 1.355 1_554 S
C371 C373 1.419 . S
C372 C370 1.415 . S
C372 C377 1.425 . S
C372 C379 1.409 . S
C373 H365 0.930 . S
C373 C371 1.419 . S
C373 C374 1.362 . S
C374 H366 0.930 . S
C374 C373 1.362 . S
C374 C377 1.409 1_554 S
C375 H367 0.930 . S
C375 C376 1.355 . S
C375 C377 1.415 . S
C376 C375 1.355 . S
C376 C378 1.419 . S
C377 C372 1.425 . S
C377 C374 1.409 1_556 S
C377 C375 1.415 . S
C378 H368 0.930 . S
C378 C376 1.419 . S
C378 C379 1.362 . S
C379 H369 0.930 . S
C379 C372 1.409 . S
C379 C378 1.362 . S
H380 C386 0.930 . S
H381 C389 0.930 . S
H382 C390 0.930 . S
H383 C391 0.930 . S
H384 C394 0.930 . S
H385 C395 0.930 . S
C386 H380 0.930 . S
C386 C387 1.355 1_556 S
C386 C388 1.415 . S
C387 C386 1.355 1_554 S
C387 C389 1.419 . S
C388 C386 1.415 . S
C388 C393 1.425 . S
C388 C395 1.409 . S
C389 H381 0.930 . S
C389 C387 1.419 . S
C389 C390 1.362 . S
C390 H382 0.930 . S
C390 C389 1.362 . S
C390 C393 1.409 1_554 S
C391 H383 0.930 . S
C391 C392 1.355 . S
C391 C393 1.415 . S
C392 C391 1.355 . S
C392 C394 1.419 . S
C393 C388 1.425 . S
C393 C390 1.409 1_556 S
C393 C391 1.415 . S
C394 H384 0.930 . S
C394 C392 1.419 . S
C394 C395 1.362 . S
C395 H385 0.930 . S
C395 C388 1.409 . S
C395 C394 1.362 . S
H396 C402 0.930 . S
H397 C405 0.930 . S
H398 C406 0.930 . S
H399 C407 0.930 . S
H400 C410 0.930 . S
H401 C411 0.930 . S
C402 H396 0.930 . S
C402 C403 1.355 1_556 S
C402 C404 1.415 . S
C403 C402 1.355 1_554 S
C403 C405 1.419 . S
C404 C402 1.415 . S
C404 C409 1.425 . S
C404 C411 1.409 . S
C405 H397 0.930 . S
C405 C403 1.419 . S
C405 C406 1.362 1_554 S
C406 H398 0.930 . S
C406 C405 1.362 1_556 S
C406 C409 1.409 . S
C407 H399 0.930 . S
C407 C408 1.355 . S
C407 C409 1.415 . S
C408 C407 1.355 . S
C408 C410 1.419 . S
C409 C404 1.425 . S
C409 C406 1.409 . S
C409 C407 1.415 . S
C410 H400 0.930 . S
C410 C408 1.419 . S
C410 C411 1.362 . S
C411 H401 0.930 . S
C411 C404 1.409 . S
C411 C410 1.362 . S
H412 C418 0.930 . S
H413 C421 0.930 . S
H414 C422 0.930 . S
H415 C423 0.930 1_655 S
H416 C426 0.930 . S
H417 C427 0.930 . S
C418 H412 0.930 . S
C418 C419 1.349 1_455 S
C418 C420 1.415 . S
C419 C418 1.349 1_655 S
C419 C421 1.426 . S
C420 C418 1.415 . S
C420 C425 1.428 . S
C420 C427 1.409 1_554 S
C421 H413 0.930 . S
C421 C419 1.426 . S
C421 C422 1.362 . S
C422 H414 0.930 . S
C422 C421 1.362 . S
C422 C425 1.407 1_655 S
C423 H415 0.930 1_455 S
C423 C424 1.355 1_554 S
C423 C425 1.415 . S
C424 C423 1.355 1_556 S
C424 C426 1.419 . S
C425 C420 1.428 . S
C425 C422 1.407 1_455 S
C425 C423 1.415 . S
C426 H416 0.930 . S
C426 C424 1.419 . S
C426 C427 1.362 . S
C427 H417 0.930 . S
C427 C420 1.409 1_556 S
C427 C426 1.362 . S
H428 C434 0.930 . S
H429 C437 0.930 . S
H430 C438 0.930 . S
H431 C439 0.930 . S
H432 C442 0.930 . S
H433 C443 0.930 . S
C434 H428 0.930 . S
C434 C435 1.355 . S
C434 C436 1.415 . S
C435 C434 1.355 . S
C435 C437 1.419 . S
C436 C434 1.415 . S
C436 C441 1.425 1_554 S
C436 C443 1.409 . S
C437 H429 0.930 . S
C437 C435 1.419 . S
C437 C438 1.362 1_554 S
C438 H430 0.930 . S
C438 C437 1.362 1_556 S
C438 C441 1.409 . S
C439 H431 0.930 . S
C439 C440 1.355 . S
C439 C441 1.415 . S
C440 C439 1.355 . S
C440 C442 1.419 1_556 S
C441 C436 1.425 1_556 S
C441 C438 1.409 . S
C441 C439 1.415 . S
C442 H432 0.930 . S
C442 C440 1.419 1_554 S
C442 C443 1.362 . S
C443 H433 0.930 . S
C443 C436 1.409 . S
C443 C442 1.362 . S
H444 C450 0.930 . S
H445 C453 0.930 . S
H446 C454 0.930 . S
H447 C455 0.930 . S
H448 C458 0.930 . S
H449 C459 0.930 . S
C450 H444 0.930 . S
C450 C451 1.355 . S
C450 C452 1.415 . S
C451 C450 1.355 . S
C451 C453 1.419 . S
C452 C450 1.415 . S
C452 C457 1.425 . S
C452 C459 1.409 . S
C453 H445 0.930 . S
C453 C451 1.419 . S
C453 C454 1.362 . S
C454 H446 0.930 . S
C454 C453 1.362 . S
C454 C457 1.409 . S
C455 H447 0.930 . S
C455 C456 1.355 . S
C455 C457 1.415 1_556 S
C456 C455 1.355 . S
C456 C458 1.419 . S
C457 C452 1.425 . S
C457 C454 1.409 . S
C457 C455 1.415 1_554 S
C458 H448 0.930 . S
C458 C456 1.419 . S
C458 C459 1.362 1_556 S
C459 H449 0.930 . S
C459 C452 1.409 . S
C459 C458 1.362 1_554 S
H460 C466 0.930 . S
H461 C469 0.930 . S
H462 C470 0.930 . S
H463 C471 0.930 . S
H464 C474 0.930 . S
H465 C475 0.930 . S
C466 H460 0.930 . S
C466 C467 1.355 . S
C466 C468 1.415 . S
C467 C466 1.355 . S
C467 C469 1.419 . S
C468 C466 1.415 . S
C468 C473 1.425 . S
C468 C475 1.409 1_554 S
C469 H461 0.930 . S
C469 C467 1.419 . S
C469 C470 1.362 . S
C470 H462 0.930 . S
C470 C469 1.362 . S
C470 C473 1.409 . S
C471 H463 0.930 . S
C471 C472 1.355 1_554 S
C471 C473 1.415 . S
C472 C471 1.355 1_556 S
C472 C474 1.419 . S
C473 C468 1.425 . S
C473 C470 1.409 . S
C473 C471 1.415 . S
C474 H464 0.930 . S
C474 C472 1.419 . S
C474 C475 1.362 . S
C475 H465 0.930 . S
C475 C468 1.409 1_556 S
C475 C474 1.362 . S
H476 C482 0.930 . S
H477 C485 0.930 . S
H478 C486 0.930 . S
H479 C487 0.930 . S
H480 C490 0.930 . S
H481 C491 0.930 . S
C482 H476 0.930 . S
C482 C483 1.355 1_655 S
C482 C484 1.415 . S
C483 C482 1.355 1_455 S
C483 C485 1.419 . S
C484 C482 1.415 . S
C484 C489 1.425 1_655 S
C484 C491 1.409 . S
C485 H477 0.930 . S
C485 C483 1.419 . S
C485 C486 1.362 . S
C486 H478 0.930 . S
C486 C485 1.362 . S
C486 C489 1.409 . S
C487 H479 0.930 . S
C487 C488 1.355 1_455 S
C487 C489 1.415 . S
C488 C487 1.355 1_655 S
C488 C490 1.419 . S
C489 C484 1.425 1_455 S
C489 C486 1.409 . S
C489 C487 1.415 . S
C490 H480 0.930 . S
C490 C488 1.419 . S
C490 C491 1.362 . S
C491 H481 0.930 . S
C491 C484 1.409 . S
C491 C490 1.362 . S
H492 C498 0.930 . S
H493 C501 0.930 . S
H494 C502 0.930 . S
H495 C503 0.930 . S
H496 C506 0.930 . S
H497 C507 0.930 . S
C498 H492 0.930 . S
C498 C499 1.355 . S
C498 C500 1.415 . S
C499 C498 1.355 . S
C499 C501 1.419 . S
C500 C498 1.415 . S
C500 C505 1.425 . S
C500 C507 1.409 . S
C501 H493 0.930 . S
C501 C499 1.419 . S
C501 C502 1.362 . S
C502 H494 0.930 . S
C502 C501 1.362 . S
C502 C505 1.409 . S
C503 H495 0.930 . S
C503 C504 1.355 . S
C503 C505 1.415 . S
C504 C503 1.355 . S
C504 C506 1.419 . S
C505 C500 1.425 . S
C505 C502 1.409 . S
C505 C503 1.415 . S
C506 H496 0.930 . S
C506 C504 1.419 . S
C506 C507 1.362 . S
C507 H497 0.930 . S
C507 C500 1.409 . S
C507 C506 1.362 . S
H508 C514 0.930 . S
H509 C517 0.930 . S
H510 C518 0.930 . S
H511 C519 0.930 . S
H512 C522 0.930 . S
H513 C523 0.930 . S
C514 H508 0.930 . S
C514 C515 1.355 . S
C514 C516 1.415 . S
C515 C514 1.355 . S
C515 C517 1.419 . S
C516 C514 1.415 . S
C516 C521 1.425 . S
C516 C523 1.409 . S
C517 H509 0.930 . S
C517 C515 1.419 . S
C517 C518 1.362 . S
C518 H510 0.930 . S
C518 C517 1.362 . S
C518 C521 1.409 . S
C519 H511 0.930 . S
C519 C520 1.355 . S
C519 C521 1.415 . S
C520 C519 1.355 . S
C520 C522 1.419 . S
C521 C516 1.425 . S
C521 C518 1.409 . S
C521 C519 1.415 . S
C522 H512 0.930 . S
C522 C520 1.419 . S
C522 C523 1.362 . S
C523 H513 0.930 . S
C523 C516 1.409 . S
C523 C522 1.362 . S
H524 C530 0.930 . S
H525 C533 0.930 . S
H526 C534 0.930 . S
H527 C535 0.930 . S
H528 C538 0.930 . S
H529 C539 0.930 . S
C530 H524 0.930 . S
C530 C531 1.355 . S
C530 C532 1.415 . S
C531 C530 1.355 . S
C531 C533 1.419 . S
C532 C530 1.415 . S
C532 C537 1.425 . S
C532 C539 1.409 . S
C533 H525 0.930 . S
C533 C531 1.419 . S
C533 C534 1.362 . S
C534 H526 0.930 . S
C534 C533 1.362 . S
C534 C537 1.409 . S
C535 H527 0.930 . S
C535 C536 1.355 . S
C535 C537 1.415 . S
C536 C535 1.355 . S
C536 C538 1.419 . S
C537 C532 1.425 . S
C537 C534 1.409 . S
C537 C535 1.415 . S
C538 H528 0.930 . S
C538 C536 1.419 . S
C538 C539 1.362 . S
C539 H529 0.930 . S
C539 C532 1.409 . S
C539 C538 1.362 . S
C163 C61 1.659 . S
C168 C87 1.525 . S
C184 C111 1.272 . S
C179 C70 1.483 . S
C200 C132 1.580 . S
C195 C43 1.614 . S
C216 C150 1.330 . S
C211 C52 1.480 . S
C232 C90 1.469 1_565 S
C227 C25 1.602 . S
C243 C34 1.376 . S
C248 C108 1.162 . S
C259 C7 1.527 . S
C264 C129 1.492 . S
C275 C16 1.430 . S
C280 C153 1.257 . S
C296 C88 0.672 . S
C291 C50 0.631 . S
C312 C106 0.709 . S
C307 C59 0.657 . S
C328 C127 0.616 . S
C323 C67 0.585 . S
C339 C41 0.841 . S
C344 C151 0.804 . S
C355 C14 0.710 . S
C360 C86 0.668 . S
C376 C110 0.784 1_565 S
C371 C23 0.738 . S
C392 C131 0.638 . S
C387 C31 0.662 . S
C403 C5 0.825 . S
C408 C149 0.789 . S
C419 C49 1.533 . S
C424 C89 1.553 . S
C435 C58 1.713 . S
C440 C107 1.648 . S
C456 C128 1.454 . S
C451 C68 1.524 . S
C472 C152 1.648 . S
C467 C40 1.658 . S
C483 C13 1.455 1_455 S
C488 C85 1.454 . S
C504 C109 1.572 . S
C499 C22 1.576 . S
C520 C130 1.423 . S
C515 C32 1.455 . S
C531 C4 1.606 . S
C536 C148 1.570 . S
