# Generated by pormake.
# Topology pyr, (3,6)-cn, num edge types: 1
# Building blocks:
#     Node 0, Type 0, BuildingBlock: QEWDON_clean_linker_0, # of connection points: 3
#     Node 1, Type 0, BuildingBlock: QEWDON_clean_linker_0, # of connection points: 3
#     Node 2, Type 0, BuildingBlock: QEWDON_clean_linker_0, # of connection points: 3
#     Node 3, Type 0, BuildingBlock: QEWDON_clean_linker_0, # of connection points: 3
#     Node 4, Type 0, BuildingBlock: QEWDON_clean_linker_0, # of connection points: 3
#     Node 5, Type 0, BuildingBlock: QEWDON_clean_linker_0, # of connection points: 3
#     Node 6, Type 0, BuildingBlock: QEWDON_clean_linker_0, # of connection points: 3
#     Node 7, Type 0, BuildingBlock: QEWDON_clean_linker_0, # of connection points: 3
#     Node 8, Type 1, BuildingBlock: FUNLAD_clean_sbu_0, # of connection points: 6
#     Node 9, Type 1, BuildingBlock: FUNLAD_clean_sbu_0, # of connection points: 6
#     Node 10, Type 1, BuildingBlock: FUNLAD_clean_sbu_0, # of connection points: 6
#     Node 11, Type 1, BuildingBlock: FUNLAD_clean_sbu_0, # of connection points: 6
#     Edge 12, Type (0, 1), BuildingBlock: ZUJKAS_clean_linker_0, # of connection points: 2
#     Edge 13, Type (0, 1), BuildingBlock: ZUJKAS_clean_linker_0, # of connection points: 2
#     Edge 14, Type (0, 1), BuildingBlock: ZUJKAS_clean_linker_0, # of connection points: 2
#     Edge 15, Type (0, 1), BuildingBlock: ZUJKAS_clean_linker_0, # of connection points: 2
#     Edge 16, Type (0, 1), BuildingBlock: ZUJKAS_clean_linker_0, # of connection points: 2
#     Edge 17, Type (0, 1), BuildingBlock: ZUJKAS_clean_linker_0, # of connection points: 2
#     Edge 18, Type (0, 1), BuildingBlock: ZUJKAS_clean_linker_0, # of connection points: 2
#     Edge 19, Type (0, 1), BuildingBlock: ZUJKAS_clean_linker_0, # of connection points: 2
#     Edge 20, Type (0, 1), BuildingBlock: ZUJKAS_clean_linker_0, # of connection points: 2
#     Edge 21, Type (0, 1), BuildingBlock: ZUJKAS_clean_linker_0, # of connection points: 2
#     Edge 22, Type (0, 1), BuildingBlock: ZUJKAS_clean_linker_0, # of connection points: 2
#     Edge 23, Type (0, 1), BuildingBlock: ZUJKAS_clean_linker_0, # of connection points: 2
#     Edge 24, Type (0, 1), BuildingBlock: ZUJKAS_clean_linker_0, # of connection points: 2
#     Edge 25, Type (0, 1), BuildingBlock: ZUJKAS_clean_linker_0, # of connection points: 2
#     Edge 26, Type (0, 1), BuildingBlock: ZUJKAS_clean_linker_0, # of connection points: 2
#     Edge 27, Type (0, 1), BuildingBlock: ZUJKAS_clean_linker_0, # of connection points: 2
#     Edge 28, Type (0, 1), BuildingBlock: ZUJKAS_clean_linker_0, # of connection points: 2
#     Edge 29, Type (0, 1), BuildingBlock: ZUJKAS_clean_linker_0, # of connection points: 2
#     Edge 30, Type (0, 1), BuildingBlock: ZUJKAS_clean_linker_0, # of connection points: 2
#     Edge 31, Type (0, 1), BuildingBlock: ZUJKAS_clean_linker_0, # of connection points: 2
#     Edge 32, Type (0, 1), BuildingBlock: ZUJKAS_clean_linker_0, # of connection points: 2
#     Edge 33, Type (0, 1), BuildingBlock: ZUJKAS_clean_linker_0, # of connection points: 2
#     Edge 34, Type (0, 1), BuildingBlock: ZUJKAS_clean_linker_0, # of connection points: 2
#     Edge 35, Type (0, 1), BuildingBlock: ZUJKAS_clean_linker_0, # of connection points: 2
# Relax obj value: 0.225
# Max RMSD: 0.287
# Mean RMSD: 0.188
data_MOF--net-pry--node1-FUNLAD_clean_sbu_0--node2-QEWDON_clean_linker_0--edge1-ZUJKAS_clean_linker_0
_symmetry_space_group_name_H-M    P1
_symmetry_Int_Tables_number       1
_symmetry_cell_setting            triclinic
loop_
_symmetry_equiv_pos_as_xyz
'x, y, z'
_cell_length_a     45.220913
_cell_length_b     47.98347
_cell_length_c     51.397543
_cell_angle_alpha  90.000811
_cell_angle_beta   90.597717
_cell_angle_gamma 94.288673
loop_
_atom_site_label
_atom_site_type_symbol
_atom_site_fract_x
_atom_site_fract_y
_atom_site_fract_z
_atom_type_partial_charge
H0 H 0.21232 0.24958 0.19569 0.0
C1 C 0.20173 0.23867 0.21195 0.0
C2 C 0.21031 0.21187 0.21932 0.0
C3 C 0.18067 0.2523 0.22633 0.0
H4 H 0.20355 0.17879 0.24788 0.0
C5 C 0.19649 0.19868 0.24126 0.0
C6 C 0.17508 0.21174 0.25589 0.0
C7 C 0.1673 0.23839 0.2479 0.0
C8 C 0.17725 0.28301 0.22294 0.0
H9 H 0.15132 0.249 0.25907 0.0
C10 C 0.16673 0.29548 0.19973 0.0
C11 C 0.16443 0.32497 0.19848 0.0
C12 C 0.1852 0.30033 0.24433 0.0
H13 H 0.19348 0.29157 0.26219 0.0
C14 C 0.18292 0.32903 0.24311 0.0
H15 H 0.16048 0.28252 0.18302 0.0
C16 C 0.17268 0.34121 0.22053 0.0
H17 H 0.17091 0.36361 0.2204 0.0
H18 H 0.18913 0.34196 0.25983 0.0
H19 H 0.35277 0.93421 0.78179 0.0
C20 C 0.36658 0.91947 0.77291 0.0
C21 C 0.39422 0.914 0.78435 0.0
C22 C 0.35557 0.90499 0.75065 0.0
H23 H 0.43209 0.88895 0.78052 0.0
C24 C 0.41115 0.89401 0.77204 0.0
C25 C 0.40081 0.87987 0.74907 0.0
C26 C 0.37292 0.88562 0.73883 0.0
C27 C 0.32349 0.90446 0.7437 0.0
H28 H 0.36366 0.87366 0.72238 0.0
C29 C 0.31095 0.92527 0.72838 0.0
C30 C 0.28013 0.92292 0.72223 0.0
C31 C 0.30521 0.88157 0.75252 0.0
H32 H 0.31436 0.8654 0.76418 0.0
C33 C 0.27512 0.8791 0.74636 0.0
H34 H 0.32491 0.943 0.72149 0.0
C35 C 0.26271 0.89943 0.73134 0.0
H36 H 0.2393 0.89649 0.72655 0.0
H37 H 0.26134 0.86121 0.75316 0.0
H38 H 0.64515 0.55821 0.02567 0.0
C39 C 0.63804 0.53619 0.02721 0.0
C40 C 0.65913 0.51644 0.03088 0.0
C41 C 0.60793 0.52749 1.02406 0.0
H42 H 0.66576 0.47261 0.03482 0.0
C43 C 0.64957 0.48795 0.03223 0.0
C44 C 0.61947 0.47898 0.02903 0.0
C45 C 0.59877 0.49895 0.02499 0.0
C46 C 0.5866 0.54772 1.01614 0.0
H47 H 0.57562 0.49231 1.02149 0.0
C48 C 0.57321 0.54511 0.99148 0.0
C49 C 0.55399 0.56479 0.98257 0.0
C50 C 0.58048 0.57006 0.03229 0.0
H51 H 0.5908 0.57244 0.05135 0.0
C52 C 0.56083 0.58941 1.02384 0.0
H53 H 0.57901 0.52838 0.97875 0.0
C54 C 0.54773 0.58693 0.99908 0.0
H55 H 0.53291 0.60238 0.99278 0.0
H56 H 0.55601 0.60658 0.03639 0.0
H57 H 0.91347 0.66117 0.43281 0.0
C58 C 0.90292 0.65414 0.45067 0.0
C59 C 0.90521 0.67203 0.47228 0.0
C60 C 0.88604 0.62824 0.45162 0.0
H61 H 0.89061 0.67847 0.51142 0.0
C62 C 0.89006 0.66415 0.49507 0.0
C63 C 0.8722 0.63903 0.49626 0.0
C64 C 0.87132 0.62067 0.4749 0.0
C65 C 0.88137 0.61083 0.42751 0.0
H66 H 0.85773 0.60119 0.47602 0.0
C67 C 0.90267 0.61237 0.40761 0.0
C68 C 0.8965 0.59999 0.38318 0.0
C69 C 0.85454 0.5945 0.42307 0.0
H70 H 0.83704 0.59317 0.43729 0.0
C71 C 0.84918 0.58052 0.39949 0.0
H72 H 0.92393 0.62384 0.41073 0.0
C73 C 0.86978 0.58351 0.37951 0.0
H74 H 0.86417 0.57387 0.36088 0.0
H75 H 0.82838 0.56826 0.3963 0.0
H76 H 0.86181 0.88395 0.89472 0.0
C77 C 0.87259 0.89477 0.87848 0.0
C78 C 0.90028 0.88668 0.86976 0.0
C79 C 0.85734 0.91497 0.86509 0.0
H80 H 0.93388 0.89391 0.84016 0.0
C81 C 0.91269 0.89976 0.84714 0.0
C82 C 0.89807 0.92069 0.83368 0.0
C83 C 0.87042 0.92792 0.843 0.0
C84 C 0.82526 0.91788 0.87023 0.0
H85 H 0.8581 0.94269 0.83216 0.0
C86 C 0.81465 0.93085 0.89283 0.0
C87 C 0.78364 0.93207 0.89651 0.0
C88 C 0.80472 0.90661 0.85168 0.0
H89 H 0.81223 0.89657 0.83432 0.0
C90 C 0.77438 0.90773 0.85536 0.0
H91 H 0.8302 0.93974 0.90729 0.0
C92 C 0.76392 0.92024 0.87754 0.0
H93 H 0.74018 0.92098 0.87977 0.0
H94 H 0.75885 0.89884 0.8409 0.0
H95 H 0.69364 0.23007 0.43687 0.0
C96 C 0.68722 0.22437 0.4171 0.0
C97 C 0.70436 0.20631 0.40277 0.0
C98 C 0.6603 0.23306 0.40703 0.0
H99 H 0.70702 0.18374 0.36652 0.0
C100 C 0.69427 0.1977 0.37762 0.0
C101 C 0.66733 0.20606 0.36704 0.0
C102 C 0.65077 0.2239 0.38202 0.0
C103 C 0.6388 0.24596 0.42449 0.0
H104 H 0.62975 0.23015 0.37458 0.0
C105 C 0.64319 0.27348 0.43491 0.0
C106 C 0.62171 0.28383 0.45174 0.0
C107 C 0.61296 0.22946 0.43098 0.0
H108 H 0.60907 0.20842 0.42338 0.0
C109 C 0.59205 0.23958 0.4475 0.0
H110 H 0.66292 0.28655 0.43004 0.0
C111 C 0.59637 0.2664 0.45782 0.0
H112 H 0.57957 0.27374 0.47048 0.0
H113 H 0.57233 0.22651 0.45235 0.0
H114 H 0.45815 0.65022 0.1682 0.0
C115 C 0.43885 0.64558 0.15583 0.0
C116 C 0.42827 0.6668 0.14035 0.0
C117 C 0.42462 0.61852 0.15556 0.0
H118 H 0.39452 0.67738 0.11302 0.0
C119 C 0.4035 0.66071 0.12414 0.0
C120 C 0.38891 0.63385 0.1236 0.0
C121 C 0.39972 0.61277 0.13928 0.0
C122 C 0.43479 0.59684 0.17346 0.0
H123 H 0.38823 0.59212 0.13935 0.0
C124 C 0.44232 0.60376 0.19941 0.0
C125 C 0.45176 0.58352 0.21677 0.0
C126 C 0.4368 0.56924 0.16494 0.0
H127 H 0.43132 0.56336 0.14502 0.0
C128 C 0.44632 0.54903 0.18202 0.0
H129 H 0.44071 0.62499 0.20613 0.0
C130 C 0.45378 0.55606 0.20777 0.0
H131 H 0.46065 0.5399 0.22072 0.0
H132 H 0.44785 0.52782 0.1753 0.0
H133 H 0.13875 0.56297 0.59302 0.0
C134 C 0.13132 0.541 0.59162 0.0
C135 C 0.15206 0.52093 0.58828 0.0
C136 C 0.10115 0.53266 0.59463 0.0
H137 H 0.15806 0.47684 0.58549 0.0
C138 C 0.14216 0.49252 0.58747 0.0
C139 C 0.11204 0.48401 0.59037 0.0
C140 C 0.09158 0.50419 0.59378 0.0
C141 C 0.08038 0.55315 0.60269 0.0
H142 H 0.0684 0.49771 0.59698 0.0
C143 C 0.06854 0.5512 0.62774 0.0
C144 C 0.0501 0.57126 0.6369 0.0
C145 C 0.0735 0.57521 0.58639 0.0
H146 H 0.08268 0.57711 0.56703 0.0
C147 C 0.05459 0.59494 0.5951 0.0
H148 H 0.07497 0.53469 0.64055 0.0
C149 C 0.04304 0.59312 0.62025 0.0
H150 H 0.02881 0.60886 0.62674 0.0
H151 H 0.04918 0.6119 0.58244 0.0
C152 C 0.04487 0.09334 0.49502 0.0
N153 N 0.03186 0.13208 0.56708 0.0
C154 C 0.05908 0.14492 0.56229 0.0
C155 C 0.06524 0.17299 0.5685 0.0
C156 C 0.04322 0.18794 0.57986 0.0
C157 C 1.01595 0.1738 0.58617 0.0
C158 C 1.01063 0.14564 0.57942 0.0
Zn159 Zn 0.02222 0.09376 0.55102 0.0
C160 C 0.96339 0.0917 0.52207 0.0
N161 N 1.00304 0.01499 0.51496 0.0
C162 C 0.02476 1.00294 0.50187 0.0
C163 C 0.97568 1.00167 0.51787 0.0
C164 C 0.96949 0.97482 0.5079 0.0
C165 C 0.9917 0.96157 0.49481 0.0
C166 C 0.01953 0.9761 0.49157 0.0
Zn167 Zn 1.01219 0.05299 0.53176 0.0
O168 O 0.04322 0.10883 0.51501 0.0
C169 C 0.07059 0.05536 0.56112 0.0
O170 O 0.03386 0.06818 0.49637 0.0
H171 H 0.95882 1.01166 0.52844 0.0
H172 H 0.07562 0.13373 0.55249 0.0
H173 H 0.04634 1.01397 0.49978 0.0
O174 O 0.0636 0.08013 0.56541 0.0
O175 O 0.05334 0.03932 0.54706 0.0
H176 H 0.9891 0.13499 0.5829 0.0
O177 O 0.99128 0.03779 0.56742 0.0
O178 O 1.00142 0.07802 0.58688 0.0
O179 O 0.97065 0.06716 0.51686 0.0
O180 O 0.98067 0.10724 0.53654 0.0
C181 C 0.99073 0.05266 0.58795 0.0
H182 H 0.08667 0.18318 0.56366 0.0
H183 H 0.99842 0.18475 0.59484 0.0
H184 H 0.94787 0.96422 0.51119 0.0
H185 H 0.03715 0.96675 0.48138 0.0
C186 C 0.56733 0.05348 0.05627 0.0
N187 N 0.52802 0.13007 0.04935 0.0
C188 C 0.55594 0.14248 0.05177 0.0
C189 C 0.56219 0.16991 0.04346 0.0
C190 C 0.53941 0.18478 0.03279 0.0
C191 C 0.51103 0.17114 0.02961 0.0
C192 C 0.50582 0.14355 0.03799 0.0
Zn193 Zn 0.51908 0.09213 0.06624 0.0
C194 C 0.48648 0.05043 0.03027 0.0
N195 N 0.501 1.01385 0.10332 0.0
C196 C 0.52348 1.00115 0.11508 0.0
C197 C 0.47325 1.00098 0.10135 0.0
C198 C 0.46748 0.97385 0.11068 0.0
C199 C 0.49058 0.95969 0.12187 0.0
C200 C 0.51876 0.97392 0.12447 0.0
Zn201 Zn 0.50963 0.0517 0.08615 0.0
O202 O 0.55977 0.07794 0.0512 0.0
C203 C 0.54335 0.09264 0.12197 0.0
O204 O 0.55084 0.03797 0.07113 0.0
H205 H 0.45573 1.01149 0.09191 0.0
H206 H 0.57316 0.13147 0.06109 0.0
H207 H 0.54536 1.01183 0.11644 0.0
O208 O 0.5418 0.10764 0.1016 0.0
O209 O 0.53176 0.06763 0.12119 0.0
H210 H 0.4838 0.13321 0.03625 0.0
O211 O 0.46811 0.066 0.10079 0.0
O212 O 0.47825 0.10612 0.08144 0.0
O213 O 0.4882 0.03579 0.05084 0.0
O214 O 0.49656 0.07597 0.03102 0.0
C215 C 0.46108 0.09071 0.0958 0.0
H216 H 0.58426 0.1798 0.04659 0.0
H217 H 0.49296 0.18189 1.02129 0.0
H218 H 0.44528 0.9639 0.10869 0.0
H219 H 0.53731 0.96378 0.13268 0.0
C220 C 0.54242 0.53868 0.57486 0.0
N221 N 0.53647 0.56735 0.65276 0.0
C222 C 0.52102 0.54432 0.66254 0.0
C223 C 0.52101 0.53929 0.68937 0.0
C224 C 0.53702 0.5582 0.70609 0.0
C225 C 0.55425 0.58069 0.69519 0.0
C226 C 0.55348 0.585 0.66845 0.0
Zn227 Zn 0.53046 0.58037 0.61541 0.0
C228 C 0.5871 0.60763 0.59374 0.0
N229 N 0.51806 0.61274 0.53926 0.0
C230 C 0.50075 0.59459 0.52426 0.0
C231 C 0.53026 0.63724 0.52933 0.0
C232 C 0.5252 0.64411 0.50321 0.0
C233 C 0.50711 0.62572 0.48754 0.0
C234 C 0.49484 0.60076 0.49842 0.0
Zn235 Zn 0.52511 0.59976 0.57658 0.0
O236 O 0.541 0.54049 0.59957 0.0
C237 C 0.46843 0.57232 0.59775 0.0
O238 O 0.53653 0.5598 0.56126 0.0
H239 H 0.54411 0.65128 0.54156 0.0
H240 H 0.50752 0.53063 0.64972 0.0
H241 H 0.49174 0.57496 0.53223 0.0
O242 O 0.48469 0.56665 0.61704 0.0
O243 O 0.48002 0.58553 0.5786 0.0
H244 H 0.56533 0.60337 0.66043 0.0
O245 O 0.51405 0.6395 0.59253 0.0
O246 O 0.51991 0.62045 0.63077 0.0
O247 O 0.5702 0.61385 0.57504 0.0
O248 O 0.57613 0.59411 0.61306 0.0
C249 C 0.51358 0.64149 0.61727 0.0
H250 H 0.50739 0.52171 0.69701 0.0
H251 H 0.56741 0.59545 0.70732 0.0
H252 H 0.53517 0.66352 0.49539 0.0
H253 H 0.48136 0.5857 0.48684 0.0
C254 C 0.01714 0.6481 1.00281 0.0
N255 N 0.02196 0.61896 0.08062 0.0
C256 C 0.0323 0.64436 0.09015 0.0
C257 C 0.02608 0.65181 0.11577 0.0
C258 C 1.00878 0.63301 0.13133 0.0
C259 C 0.99866 0.60698 0.12097 0.0
C260 C 1.00564 0.60031 0.09558 0.0
Zn261 Zn 0.02987 0.60621 0.04367 0.0
C262 C 0.97422 0.57735 1.02106 0.0
N263 N 0.0432 0.57506 0.9676 0.0
C264 C 0.06036 0.59295 0.95257 0.0
C265 C 0.02804 0.55207 0.95718 0.0
C266 C 0.02839 0.54738 0.93031 0.0
C267 C 0.04454 0.56654 0.9142 0.0
C268 C 0.06156 0.58893 0.92581 0.0
Zn269 Zn 0.03625 0.58764 1.00483 0.0
O270 O 0.01718 0.64559 0.02752 0.0
C271 C 0.09195 0.61615 0.0286 0.0
O272 O 0.02479 0.62766 0.98925 0.0
H273 H 1.01443 0.53817 0.96947 0.0
H274 H 0.04533 0.65881 0.07791 0.0
H275 H 0.07194 0.6113 0.96109 0.0
O276 O 0.07429 0.62187 0.04655 0.0
O277 O 0.0819 0.60241 1.00883 0.0
H278 H 0.99797 0.58008 0.08784 0.0
O279 O 0.04749 0.54777 1.02078 0.0
O280 O 0.04279 0.5666 0.05919 0.0
O281 O 0.99061 0.57283 1.00182 0.0
O282 O 0.98545 0.59039 0.04065 0.0
C283 C 0.04902 0.54571 0.04551 0.0
H284 H 0.03431 0.67208 0.12321 0.0
H285 H 0.98576 0.59171 0.13253 0.0
H286 H 1.01489 0.52987 0.92216 0.0
H287 H 0.07484 0.60387 0.91422 0.0
H288 H 0.15736 0.15616 0.26568 0.0
H289 H 0.13544 0.13552 0.30542 0.0
H290 H 0.1422 0.21658 0.34196 0.0
H291 H 0.16387 0.23726 0.3025 0.0
H292 H 0.15489 0.13158 0.35511 0.0
H293 H 0.05677 0.19378 0.35581 0.0
H294 H 0.08089 0.19305 0.32813 0.0
H295 H 0.0909 0.21535 0.35551 0.0
C296 C 0.15423 0.16964 0.28216 0.0
C297 C 0.1621 0.1986 0.28044 0.0
C298 C 0.14155 0.15777 0.30497 0.0
C299 C 0.13629 0.17444 0.32679 0.0
C300 C 0.14491 0.2032 0.32533 0.0
H301 H 0.06753 0.14707 0.48454 0.0
H302 H 0.08977 0.16559 0.4442 0.0
C303 C 0.15743 0.21507 0.30257 0.0
C304 C 0.12236 0.16186 0.35114 0.0
H305 H 0.06595 0.16826 0.39444 0.0
C306 C 0.1353 0.13951 0.36353 0.0
C307 C 0.0967 0.17197 0.36246 0.0
C308 C 0.08031 0.19466 0.34967 0.0
C309 C 0.12395 0.12769 0.38697 0.0
C310 C 0.09853 0.13806 0.39843 0.0
C311 C 0.08548 0.16025 0.38595 0.0
C312 C 0.08519 0.12633 0.42332 0.0
C313 C 0.13988 0.10465 0.39965 0.0
C314 C 0.07473 0.09802 0.42535 0.0
C315 C 0.06187 0.08733 0.4485 0.0
C316 C 0.059 0.10463 0.47039 0.0
C317 C 0.06939 0.13299 0.46827 0.0
C318 C 0.08212 0.14368 0.44508 0.0
H319 H 0.16297 0.10421 0.39256 0.0
H320 H 0.14054 0.10706 0.42114 0.0
H321 H 0.12792 0.08422 0.39493 0.0
H322 H 0.07611 0.08417 0.40885 0.0
H323 H 0.05404 0.06546 0.44918 0.0
H324 H 0.35996 0.93145 0.82488 0.0
H325 H 0.37561 0.95595 0.8645 0.0
H326 H 0.46711 0.95058 0.84381 0.0
H327 H 0.45161 0.92832 0.80267 0.0
H328 H 0.402 0.94329 0.90519 0.0
H329 H 0.47369 0.02981 0.86335 0.0
H330 H 0.45074 1.00604 0.84326 0.0
H331 H 0.48639 0.99655 0.85489 0.0
C332 C 0.38349 0.93612 0.82808 0.0
C333 C 0.40432 0.92816 0.80969 0.0
C334 C 0.39249 0.94992 0.85126 0.0
C335 C 0.42269 0.95599 0.85735 0.0
C336 C 0.44364 0.94726 0.83953 0.0
H337 H 0.47928 0.9946 1.01869 0.0
H338 H 0.46443 0.97232 0.97747 0.0
C339 C 0.43464 0.93389 0.816 0.0
C340 C 0.43182 0.97054 0.88264 0.0
H341 H 0.4769 0.02403 0.90932 0.0
C342 C 0.41828 0.96106 0.90591 0.0
C343 C 0.45267 0.9942 0.88407 0.0
C344 C 0.46645 1.00744 0.86003 0.0
C345 C 0.42497 0.97411 0.93013 0.0
C346 C 0.447 0.99679 0.93177 0.0
C347 C 0.46032 1.00651 0.90849 0.0
C348 C 0.45644 1.0107 0.95726 0.0
C349 C 0.40741 0.96385 0.95351 0.0
C350 C 0.45839 0.04005 0.95993 0.0
C351 C 0.46773 0.05302 0.98355 0.0
C352 C 0.47513 0.03701 1.00533 0.0
C353 C 0.47321 1.0077 1.00262 0.0
C354 C 0.46446 0.99482 0.97892 0.0
H355 H 0.38528 0.9541 0.94767 0.0
H356 H 0.41942 0.94764 0.9637 0.0
H357 H 0.40412 0.98108 0.96735 0.0
H358 H 0.4526 0.05305 0.9437 0.0
H359 H 0.46914 0.07561 0.98475 0.0
H360 H 0.55111 0.60757 0.94781 0.0
H361 H 0.54117 0.60381 0.90107 0.0
H362 H 0.5239 0.51456 0.90855 0.0
H363 H 0.53271 0.51827 0.95546 0.0
H364 H 0.57615 0.57351 0.86976 0.0
H365 H 0.45779 0.53474 0.85891 0.0
H366 H 0.47282 0.55035 0.88866 0.0
H367 H 0.47904 0.51477 0.88084 0.0
C368 C 0.54418 0.58728 0.93967 0.0
C369 C 0.54287 0.5632 0.9553 0.0
C370 C 0.53872 0.58513 0.91293 0.0
C371 C 0.5317 0.55893 0.90138 0.0
C372 C 0.52884 0.53503 0.91711 0.0
H373 H 0.53664 0.51107 0.73667 0.0
H374 H 0.53404 0.5088 0.78443 0.0
C375 C 0.5342 0.53716 0.94387 0.0
C376 C 0.5309 0.55633 0.87269 0.0
H377 H 0.48712 0.53519 0.82071 0.0
C378 C 0.55664 0.5652 0.85906 0.0
C379 C 0.50555 0.54513 0.85883 0.0
C380 C 0.47712 0.5359 0.87249 0.0
C381 C 0.55764 0.56344 0.83191 0.0
C382 C 0.53219 0.55272 0.81804 0.0
C383 C 0.5066 0.54328 0.83157 0.0
C384 C 0.53136 0.5533 0.78937 0.0
C385 C 0.58584 0.57323 0.81813 0.0
C386 C 0.53014 0.57896 0.77661 0.0
C387 C 0.53153 0.58032 0.7496 0.0
C388 C 0.53429 0.55602 0.73477 0.0
C389 C 0.53454 0.53012 0.74758 0.0
C390 C 0.53308 0.52879 0.77477 0.0
H391 H 0.6051 0.57584 0.83174 0.0
H392 H 0.59088 0.55821 0.80264 0.0
H393 H 0.58294 0.59369 0.80874 0.0
H394 H 0.52852 0.59802 0.78764 0.0
H395 H 0.53048 0.60049 0.74031 0.0
H396 H 0.912 0.56518 0.34394 0.0
H397 H 0.93929 0.57835 0.30448 0.0
H398 H 0.95355 0.66307 0.33249 0.0
H399 H 0.9252 0.65045 0.37138 0.0
H400 H 0.93108 0.66123 0.2841 0.0
H401 H 0.02624 0.59547 0.28906 0.0
H402 H 0.99169 0.5751 0.293 0.0
H403 H 1.00338 0.60122 0.31688 0.0
C404 C 0.92117 0.58655 0.34181 0.0
C405 C 0.91641 0.60672 0.36086 0.0
C406 C 0.9371 0.59398 0.3194 0.0
C407 C 0.94885 0.62161 0.31574 0.0
C408 C 0.94492 0.64158 0.33505 0.0
H409 H 0.04631 0.65329 0.17014 0.0
H410 H 0.03466 0.65722 0.21656 0.0
C411 C 0.92889 0.63423 0.35738 0.0
C412 C 0.96248 0.63021 0.29064 0.0
H413 H 1.01336 0.61224 0.24634 0.0
C414 C 0.94946 0.65089 0.27605 0.0
C415 C 0.9868 0.61714 0.28033 0.0
C416 C 1.00304 0.59622 0.29578 0.0
C417 C 0.95883 0.65752 0.25075 0.0
C418 C 0.98144 0.64271 0.23963 0.0
C419 C 0.99581 0.62339 0.25482 0.0
C420 C 0.98804 0.64442 0.21153 0.0
C421 C 0.94392 0.67979 0.23592 0.0
C422 C 0.96561 0.63633 0.19342 0.0
C423 C 0.97218 0.63412 0.16713 0.0
C424 C 1.00135 0.63977 0.15844 0.0
C425 C 0.02361 0.64906 0.17636 0.0
C426 C 0.01702 0.65116 0.20281 0.0
H427 H 0.93527 0.69534 0.24934 0.0
H428 H 0.95938 0.6909 0.22207 0.0
H429 H 0.9248 0.66992 0.22471 0.0
H430 H 0.94323 0.63049 0.19977 0.0
H431 H 0.9546 0.62703 0.15367 0.0
H432 H 0.26084 0.23741 0.19685 0.0
H433 H 0.30092 0.21587 0.17491 0.0
H434 H 0.25813 0.13426 0.18978 0.0
H435 H 0.21695 0.15565 0.21028 0.0
H436 H 0.34081 0.18328 0.19137 0.0
H437 H 0.27576 0.12403 0.11513 0.0
H438 H 0.2598 0.14967 0.13523 0.0
H439 H 0.26336 0.11478 0.1472 0.0
C440 C 0.25935 0.21489 0.19495 0.0
C441 C 0.23501 0.19851 0.20531 0.0
C442 C 0.2827 0.20249 0.18256 0.0
C443 C 0.28269 0.17327 0.18006 0.0
C444 C 0.25863 0.15682 0.19063 0.0
H445 H 0.41631 0.06283 0.12405 0.0
H446 H 0.37333 0.08229 0.1443 0.0
C447 C 0.23512 0.16921 0.20283 0.0
C448 C 0.30828 0.16021 0.16729 0.0
H449 H 0.32614 0.1135 0.12036 0.0
C450 C 0.33744 0.16816 0.17574 0.0
C451 C 0.30438 0.14033 0.14679 0.0
C452 C 0.27417 0.1319 0.13536 0.0
C453 C 0.36236 0.15675 0.16468 0.0
C454 C 0.3584 0.13679 0.14437 0.0
C455 C 0.32934 0.12865 0.13598 0.0
C456 C 0.38422 0.12466 0.13134 0.0
C457 C 0.39286 0.16585 0.17512 0.0
C458 C 0.40459 0.14173 0.11681 0.0
C459 C 0.42905 0.13061 0.105 0.0
C460 C 0.43403 0.10205 0.10743 0.0
C461 C 0.41337 0.08489 0.12172 0.0
C462 C 0.3887 0.09601 0.13334 0.0
H463 H 0.3919 0.17634 0.19433 0.0
H464 H 0.40658 0.1477 0.17709 0.0
H465 H 0.40409 0.18084 0.16131 0.0
H466 H 0.40157 0.16379 0.11458 0.0
H467 H 0.44431 0.14458 0.09419 0.0
H468 H 0.29876 0.94862 0.67639 0.0
H469 H 0.26975 0.97711 0.64726 0.0
H470 H 0.19767 0.97106 0.70173 0.0
H471 H 0.22686 0.94423 0.73116 0.0
H472 H 0.22019 0.96348 0.62202 0.0
H473 H 0.19751 0.05139 0.68566 0.0
H474 H 0.22466 0.02719 0.69423 0.0
H475 H 0.18596 0.01919 0.70141 0.0
C476 C 0.27711 0.95416 0.68248 0.0
C477 C 0.2652 0.94399 0.70614 0.0
C478 C 0.26036 0.97022 0.66567 0.0
C479 C 0.23144 0.97668 0.67225 0.0
C480 C 0.22005 0.96719 0.69625 0.0
H481 H 0.08296 1.00091 0.56883 0.0
H482 H 0.12381 0.98337 0.59388 0.0
C483 C 0.23675 0.95145 0.71303 0.0
C484 C 0.21215 0.9914 0.65356 0.0
H485 H 0.16239 0.04166 0.65035 0.0
C486 C 0.20792 0.98087 0.62814 0.0
C487 C 0.19638 1.01454 0.66105 0.0
C488 C 0.20165 0.02889 0.68698 0.0
C489 C 0.18757 0.99187 0.61061 0.0
C490 C 0.16997 1.01344 0.61889 0.0
C491 C 0.17524 0.02481 0.6439 0.0
C492 C 0.14562 0.02416 0.60236 0.0
C493 C 0.18553 0.98032 0.5833 0.0
C494 C 0.1433 0.05307 0.59917 0.0
C495 C 0.11939 0.0632 0.58533 0.0
C496 C 0.09725 0.0447 0.57405 0.0
C497 C 0.09981 0.01579 0.57685 0.0
C498 C 0.12343 1.00569 0.59109 0.0
H499 H 0.20689 0.97237 0.57732 0.0
H500 H 0.16845 0.96248 0.58253 0.0
H501 H 0.17944 0.99636 0.56903 0.0
H502 H 0.15989 0.06792 0.60766 0.0
H503 H 0.11812 0.08559 0.58367 0.0
H504 H 0.70239 0.49842 0.063 0.0
H505 H 0.75604 0.50908 0.05974 0.0
H506 H 0.74224 0.56362 0.99474 0.0
H507 H 0.68865 0.55303 0.99782 0.0
H508 H 0.79141 0.49942 1.01639 0.0
H509 H 0.79748 0.61192 0.04324 0.0
H510 H 0.76523 0.58849 0.0495 0.0
H511 H 0.77183 0.60208 1.01734 0.0
C512 C 0.7108 0.51285 0.04814 0.0
C513 C 0.69132 0.52502 0.03076 0.0
C514 C 0.7414 0.51889 0.0463 0.0
C515 C 0.75303 0.53727 0.02712 0.0
C516 C 0.73366 0.54977 1.00997 0.0
H517 H 0.93984 0.55548 0.98042 0.0
H518 H 0.88588 0.54461 0.98015 0.0
C519 C 0.70305 0.54378 1.01183 0.0
C520 C 0.78551 0.54265 0.02461 0.0
H521 H 0.84174 0.594 0.02869 0.0
C522 C 0.80248 0.52008 1.01904 0.0
C523 C 0.79977 0.56963 0.02817 0.0
C524 C 0.78274 0.59442 0.03511 0.0
C525 C 0.83346 0.52376 1.0171 0.0
C526 C 0.84768 0.55076 1.02052 0.0
C527 C 0.83068 0.57335 0.02588 0.0
C528 C 0.88034 0.55586 1.0205 0.0
C529 C 0.85082 0.49866 1.01219 0.0
C530 C 0.89493 0.56582 0.04319 0.0
C531 C 0.92548 0.57213 0.04338 0.0
C532 C 0.94215 0.56869 1.0208 0.0
C533 C 0.9276 0.55822 0.99813 0.0
C534 C 0.89684 0.55194 0.99796 0.0
H535 H 0.83713 0.4787 1.01504 0.0
H536 H 0.85877 0.49927 0.99183 0.0
H537 H 0.87052 0.4989 0.02529 0.0
H538 H 0.88257 0.56894 0.06078 0.0
H539 H 0.93596 0.58005 0.06122 0.0
H540 H 0.83838 0.67721 0.51794 0.0
H541 H 0.79649 0.66848 0.54657 0.0
H542 H 0.8135 0.58133 0.55093 0.0
H543 H 0.85604 0.59 0.52205 0.0
H544 H 0.75869 0.58842 0.53402 0.0
H545 H 0.77904 0.65315 0.62192 0.0
H546 H 0.78662 0.67368 0.59331 0.0
H547 H 0.8086 0.64477 0.60056 0.0
C548 C 0.8341 0.65637 0.52578 0.0
C549 C 0.85062 0.63428 0.51769 0.0
C550 C 0.81007 0.65142 0.54229 0.0
C551 C 0.80207 0.62434 0.55124 0.0
C552 C 0.81946 0.60245 0.5444 0.0
H553 H 0.62977 0.59417 0.62879 0.0
H554 H 0.68347 0.59691 0.62208 0.0
C555 C 0.84361 0.60739 0.5278 0.0
C556 C 0.77286 0.61849 0.56363 0.0
H557 H 0.72698 0.64412 0.60872 0.0
C558 C 0.752 0.60008 0.55078 0.0
C559 C 0.7641 0.63353 0.58559 0.0
C560 C 0.78593 0.65215 0.60127 0.0
C561 C 0.7222 0.59785 0.5581 0.0
C562 C 0.71298 0.61478 0.57853 0.0
C563 C 0.7341 0.63163 0.59268 0.0
C564 C 0.68122 0.61626 0.5842 0.0
C565 C 0.70057 0.57808 0.54333 0.0
C566 C 0.6625 0.62725 0.56552 0.0
C567 C 0.63192 0.62577 0.56924 0.0
C568 C 0.61956 0.61328 0.59176 0.0
C569 C 0.6386 0.60379 0.61116 0.0
C570 C 0.66925 0.60532 0.6074 0.0
H571 H 0.71204 0.56158 0.53317 0.0
H572 H 0.68376 0.56793 0.55656 0.0
H573 H 0.68881 0.58999 0.52845 0.0
H574 H 0.6715 0.63615 0.54765 0.0
H575 H 0.61793 0.63344 0.554 0.0
H576 H 0.11074 0.31683 0.17223 0.0
H577 H 0.08927 0.34922 0.1413 0.0
H578 H 0.17084 0.4018 0.1435 0.0
H579 H 0.19233 0.36932 0.17347 0.0
H580 H 0.0773 0.40169 0.14912 0.0
H581 H 0.15532 0.40366 0.06742 0.0
H582 H 0.15529 0.37742 0.09256 0.0
H583 H 0.17487 0.4112 0.09738 0.0
C584 C 0.12442 0.33472 0.16527 0.0
C585 C 0.15344 0.34019 0.17513 0.0
C586 C 0.11201 0.35351 0.14781 0.0
C587 C 0.12838 0.37811 0.13958 0.0
C588 C 0.15775 0.38286 0.14873 0.0
H589 H 0.05997 0.53724 0.09746 0.0
H590 H 0.07752 0.49603 0.11878 0.0
C591 C 0.17008 0.36419 0.16604 0.0
C592 C 0.11437 0.39998 0.12337 0.0
H593 H 0.12622 0.44361 0.071 0.0
C594 C 0.08789 0.41055 0.13186 0.0
C595 C 0.12761 0.41161 0.10048 0.0
C596 C 0.15465 0.40015 0.08878 0.0
C597 C 0.07512 0.4328 0.11891 0.0
C598 C 0.08947 0.44568 0.09706 0.0
C599 C 0.11527 0.43434 0.08793 0.0
C600 C 0.07846 0.47109 0.08374 0.0
C601 C 0.04607 0.44199 0.12873 0.0
C602 C 0.07393 0.47173 0.05656 0.0
C603 C 0.06421 0.49568 0.04413 0.0
C604 C 0.05877 0.51977 0.0585 0.0
C605 C 0.06351 0.51912 0.08565 0.0
C606 C 0.0734 0.4953 0.098 0.0
H607 H 0.03327 0.42472 0.13899 0.0
H608 H 0.05056 0.45932 0.14286 0.0
H609 H 0.03214 0.44941 0.11261 0.0
H610 H 0.07779 0.45359 0.04489 0.0
H611 H 0.061 0.4953 1.02322 0.0
H612 H 0.64708 0.4375 1.0048 0.0
H613 H 0.63137 0.3877 1.00304 0.0
H614 H 0.55433 0.40216 0.0484 0.0
H615 H 0.57017 0.45207 0.05077 0.0
H616 H 0.62028 0.35145 0.04778 0.0
H617 H 0.52174 0.35738 0.98283 0.0
H618 H 0.55092 0.38517 0.98502 0.0
H619 H 0.52406 0.38055 1.01042 0.0
C620 C 0.62696 0.4301 1.01466 0.0
C621 C 0.60995 0.44872 0.02807 0.0
C622 C 0.61791 0.40169 1.01343 0.0
C623 C 0.59157 0.39144 0.02532 0.0
C624 C 0.57448 0.40986 0.03873 0.0
H625 H 0.50467 0.22658 0.04582 0.0
H626 H 0.51691 0.27694 0.04218 0.0
C627 C 0.58357 0.4383 0.04007 0.0
C628 C 0.58265 0.36124 0.02448 0.0
H629 H 0.52993 0.31307 1.00062 0.0
C630 C 0.60061 0.34299 0.0374 0.0
C631 C 0.55689 0.35047 1.01101 0.0
C632 C 0.53731 0.36931 0.99634 0.0
C633 C 0.59326 0.3141 0.03756 0.0
C634 C 0.56766 0.30322 1.02384 0.0
C635 C 0.54963 0.32151 1.01095 0.0
C636 C 0.55892 0.27292 1.02331 0.0
C637 C 0.61255 0.29561 0.053 0.0
C638 C 0.57801 0.25408 1.01301 0.0
C639 C 0.57112 0.22533 1.0151 0.0
C640 C 0.54484 0.21499 0.02724 0.0
C641 C 0.52496 0.23394 0.03618 0.0
C642 C 0.53197 0.26269 0.03422 0.0
H643 H 0.6265 0.30771 0.06762 0.0
H644 H 0.5989 0.27891 0.06325 0.0
H645 H 0.62757 0.28552 0.03958 0.0
H646 H 0.59859 0.26162 1.00394 0.0
H647 H 0.58661 0.21116 1.00772 0.0
H648 H 0.94189 0.6994 0.50812 0.0
H649 H 0.96093 0.74856 0.50724 0.0
H650 H 0.92183 0.75792 0.43119 0.0
H651 H 0.90219 0.70906 0.43206 0.0
H652 H 0.98386 0.7855 0.44106 0.0
H653 H 0.8972 0.8094 0.51217 0.0
H654 H 0.91954 0.78115 0.5205 0.0
H655 H 0.89483 0.7778 0.49295 0.0
C656 C 0.93761 0.71187 0.49111 0.0
C657 C 0.9204 0.70042 0.47024 0.0
C658 C 0.94858 0.73983 0.4906 0.0
C659 C 0.94254 0.75672 0.46923 0.0
C660 C 0.92677 0.74506 0.44779 0.0
H661 H 0.94175 0.937 0.47134 0.0
H662 H 0.93085 0.88734 0.46164 0.0
C663 C 0.91569 0.71713 0.4483 0.0
C664 C 0.95027 0.78709 0.47028 0.0
H665 H 0.93184 0.8464 0.50067 0.0
C666 C 0.97255 0.79891 0.45403 0.0
C667 C 0.93503 0.80438 0.48695 0.0
C668 C 0.91014 0.7927 0.50404 0.0
C669 C 0.98048 0.82777 0.45448 0.0
C670 C 0.96575 0.84494 0.47169 0.0
C671 C 0.94309 0.8331 0.48753 0.0
C672 C 0.97383 0.87521 0.47428 0.0
C673 C 1.00427 0.83973 0.43645 0.0
C674 C 1.00169 0.88475 0.48433 0.0
C675 C 1.0079 0.91303 0.49008 0.0
C676 C 0.98626 0.9322 0.48599 0.0
C677 C 0.95872 0.92268 0.47503 0.0
C678 C 0.95253 0.89439 0.46933 0.0
H679 H 1.00811 0.8252 0.4202 0.0
H680 H 0.99834 0.85999 0.42822 0.0
H681 H 0.02537 0.84351 0.44755 0.0
H682 H 0.01817 0.87015 0.48881 0.0
H683 H 0.02916 0.91962 0.49886 0.0
H684 H 0.4087 0.87095 0.69689 0.0
H685 H 0.43022 0.83166 0.67575 0.0
H686 H 0.45276 0.79871 0.75077 0.0
H687 H 0.43051 0.83774 0.77215 0.0
H688 H 0.48604 0.81215 0.676 0.0
H689 H 0.40547 0.73198 0.71791 0.0
H690 H 0.40043 0.76888 0.71966 0.0
H691 H 0.42576 0.75346 0.74161 0.0
C692 C 0.41823 0.85538 0.70899 0.0
C693 C 0.4175 0.85756 0.73635 0.0
C694 C 0.43068 0.83288 0.6968 0.0
C695 C 0.44266 0.81168 0.71153 0.0
C696 C 0.44311 0.81434 0.73884 0.0
H697 H 0.51266 0.65232 0.66967 0.0
H698 H 0.49695 0.69369 0.69184 0.0
C699 C 0.4307 0.83696 0.7511 0.0
C700 C 0.45415 0.7868 0.69817 0.0
H701 H 0.44404 0.7155 0.69284 0.0
C702 C 0.47681 0.79102 0.6797 0.0
C703 C 0.44222 0.75908 0.70279 0.0
C704 C 0.41695 0.75296 0.72138 0.0
C705 C 0.48809 0.76851 0.66619 0.0
C706 C 0.47602 0.74079 0.6707 0.0
C707 C 0.45344 0.73659 0.68925 0.0
C708 C 0.48654 0.71584 0.65666 0.0
C709 C 0.51339 0.77466 0.64766 0.0
C710 C 0.48594 0.71403 0.62928 0.0
C711 C 0.49511 0.69026 0.61642 0.0
C712 C 0.50489 0.66748 0.63059 0.0
C713 C 0.50539 0.66935 0.65798 0.0
C714 C 0.4963 0.6931 0.67078 0.0
H715 H 0.52567 0.79507 0.65204 0.0
H716 H 0.52924 0.75808 0.64844 0.0
H717 H 0.50444 0.77565 0.62753 0.0
H718 H 0.47786 0.73082 0.61777 0.0
H719 H 0.49412 0.68958 0.59537 0.0
H720 H 0.90034 0.97622 0.81983 0.0
H721 H 0.91657 0.99798 0.77872 0.0
H722 H 0.93961 0.91811 0.75026 0.0
H723 H 0.92344 0.89613 0.79147 0.0
H724 H 0.97515 0.99738 0.75226 0.0
H725 H 0.88133 0.94819 0.69361 0.0
H726 H 0.87989 0.95108 0.72862 0.0
H727 H 0.90135 0.92541 0.714 0.0
C728 C 0.90893 0.9632 0.80489 0.0
C729 C 0.91042 0.93427 0.80915 0.0
C730 C 0.9183 0.97576 0.78133 0.0
C731 C 0.92906 0.95977 0.76106 0.0
C732 C 0.93114 0.93098 0.76537 0.0
H733 H 0.97626 0.99719 0.59869 0.0
H734 H 0.96222 0.97556 0.64027 0.0
C735 C 0.92211 0.91843 0.78911 0.0
C736 C 0.93778 0.97324 0.73548 0.0
H737 H 0.9175 0.97633 0.67113 0.0
C738 C 0.96252 0.99279 0.73452 0.0
C739 C 0.92153 0.9673 0.71217 0.0
C740 C 0.8944 0.94701 0.71195 0.0
C741 C 0.97172 1.00603 0.71103 0.0
C742 C 0.95513 1.00052 0.68768 0.0
C743 C 0.93035 0.98089 0.68875 0.0
C744 C 0.96332 1.01431 0.66195 0.0
C745 C 0.99982 0.02508 0.71146 0.0
C746 C 0.96817 0.04359 0.65953 0.0
C747 C 0.97661 0.0561 0.63562 0.0
C748 C 0.97985 0.03978 0.61316 0.0
C749 C 0.97399 1.01059 0.61539 0.0
C750 C 0.96592 0.9981 0.63934 0.0
H751 H 1.01458 0.02008 0.72796 0.0
H752 H 1.01232 0.02355 0.6931 0.0
H753 H 0.99409 0.04699 0.71395 0.0
H754 H 0.9654 0.05693 0.67617 0.0
H755 H 0.98067 0.07861 0.63477 0.0
H756 H 0.60956 0.18934 0.35317 0.0
H757 H 0.59036 0.17071 0.31158 0.0
H758 H 0.67861 0.17808 0.28026 0.0
H759 H 0.69805 0.19689 0.32187 0.0
H760 H 0.58984 0.19242 0.26308 0.0
H761 H 0.65318 0.09797 0.26174 0.0
H762 H 0.65103 0.11947 0.29036 0.0
H763 H 0.6762 0.12996 0.26468 0.0
C764 C 0.625 0.1873 0.33744 0.0
C765 C 0.65553 0.19479 0.34118 0.0
C766 C 0.61391 0.17642 0.31356 0.0
C767 C 0.63294 0.17244 0.29262 0.0
C768 C 0.66339 0.18017 0.29614 0.0
H769 H 0.5703 0.14534 0.13058 0.0
H770 H 0.59235 0.16475 0.17103 0.0
C771 C 0.67453 0.19104 0.32007 0.0
C772 C 0.62072 0.16065 0.26717 0.0
H773 H 0.62616 0.10743 0.22331 0.0
C774 C 0.59785 0.17383 0.25443 0.0
C775 C 0.63067 0.13611 0.2558 0.0
C776 C 0.6539 0.11985 0.26893 0.0
C777 C 0.58502 0.16349 0.23082 0.0
C778 C 0.59553 0.1394 0.21908 0.0
C779 C 0.61817 0.12602 0.23195 0.0
C780 C 0.58282 0.12733 0.19391 0.0
C781 C 0.55969 0.17812 0.21907 0.0
C782 C 0.57084 0.09942 0.19265 0.0
C783 C 0.55838 0.08815 0.16938 0.0
C784 C 0.55765 0.10439 0.14655 0.0
C785 C 0.5702 0.13217 0.1477 0.0
C786 C 0.58268 0.14342 0.17098 0.0
H787 H 0.54895 0.19098 0.2337 0.0
H788 H 0.56828 0.19228 0.20336 0.0
H789 H 0.5426 0.16288 0.21052 0.0
H790 H 0.5707 0.08639 0.20986 0.0
H791 H 0.54905 0.06669 0.16937 0.0
H792 H 0.49785 0.56711 0.24674 0.0
H793 H 0.50924 0.57918 0.29225 0.0
H794 H 0.43426 0.62955 0.29424 0.0
H795 H 0.4223 0.6172 0.249 0.0
H796 H 0.49019 0.65495 0.31709 0.0
H797 H 0.45616 0.54834 0.3538 0.0
H798 H 0.48216 0.55023 0.3275 0.0
H799 H 0.44516 0.56033 0.32209 0.0
C800 C 0.48365 0.58058 0.25691 0.0
C801 C 0.4591 0.5911 0.24425 0.0
C802 C 0.49029 0.58757 0.28283 0.0
C803 C 0.47251 0.60516 0.29652 0.0
C804 C 0.44832 0.61607 0.28389 0.0
H805 H 0.4543 0.62127 0.46157 0.0
H806 H 0.4465 0.62042 0.41444 0.0
C807 C 0.44159 0.60902 0.25803 0.0
C808 C 0.47839 0.61136 0.32435 0.0
H809 H 0.47638 0.58119 0.38442 0.0
C810 C 0.48728 0.63888 0.33187 0.0
C811 C 0.47422 0.59033 0.34348 0.0
C812 C 0.46368 0.56066 0.33648 0.0
C813 C 0.4923 0.64588 0.35819 0.0
C814 C 0.48837 0.62477 0.37725 0.0
C815 C 0.47943 0.5973 0.36967 0.0
C816 C 0.49267 0.63048 0.40536 0.0
C817 C 0.50118 0.67578 0.36552 0.0
C818 C 0.5211 0.63732 0.41581 0.0
C819 C 0.52562 0.63782 0.44281 0.0
C820 C 0.50178 0.63122 0.4596 0.0
C821 C 0.47309 0.62615 0.44903 0.0
C822 C 0.4686 0.6257 0.42216 0.0
H823 H 0.49804 0.69037 0.34911 0.0
H824 H 0.48811 0.68224 0.38237 0.0
H825 H 0.52494 0.67767 0.37136 0.0
H826 H 0.54 0.64071 0.40312 0.0
H827 H 0.54798 0.64154 0.45046 0.0
H828 H 0.03012 0.52544 0.66519 0.0
H829 H 0.02408 0.52271 0.71232 0.0
H830 H 0.04249 0.61201 0.71816 0.0
H831 H 0.04975 0.61478 0.67115 0.0
H832 H 0.07852 0.58259 0.74938 0.0
H833 H 0.96089 0.54384 0.76282 0.0
H834 H 0.98094 0.52311 0.74101 0.0
H835 H 0.97453 0.55851 0.73248 0.0
C836 C 0.03247 0.54456 0.67648 0.0
C837 C 0.04066 0.57031 0.66447 0.0
C838 C 0.02869 0.54299 0.70338 0.0
C839 C 0.03264 0.56717 0.71871 0.0
C840 C 0.03923 0.59311 0.70663 0.0
H841 H 0.03927 0.60942 0.88016 0.0
H842 H 0.03638 0.60735 0.83283 0.0
C843 C 0.04313 0.59469 0.67973 0.0
C844 C 0.03325 0.56512 0.74744 0.0
H845 H 0.99225 0.54417 0.80037 0.0
C846 C 0.0596 0.5743 0.76051 0.0
C847 C 1.00865 0.55395 0.76187 0.0
C848 C 0.97955 0.5445 0.74889 0.0
C849 C 0.06199 0.57278 0.78764 0.0
C850 C 0.03734 0.56197 0.80206 0.0
C851 C 1.01112 0.55231 0.7891 0.0
C852 C 0.03796 0.5625 0.83076 0.0
C853 C 0.09085 0.58278 0.80079 0.0
C854 C 0.03938 0.53781 0.84518 0.0
C855 C 0.04142 0.53891 0.87237 0.0
C856 C 0.04199 0.56474 0.88542 0.0
C857 C 0.03975 0.58927 0.87074 0.0
C858 C 0.03783 0.58814 0.8437 0.0
H859 H 0.10943 0.58517 0.78679 0.0
H860 H 0.08841 0.6034 0.80998 0.0
H861 H 0.09666 0.56802 0.81634 0.0
H862 H 0.03946 0.51783 0.83538 0.0
H863 H 0.04313 0.51968 0.88312 0.0
H864 H 0.74664 0.90768 0.93271 0.0
H865 H 0.71528 0.93091 0.96331 0.0
H866 H 0.75727 1.01087 0.94121 0.0
H867 H 0.78886 0.98751 0.91051 0.0
H868 H 0.72667 0.96962 1.0063 0.0
H869 H 0.66785 0.0166 0.92354 0.0
H870 H 0.69153 0.98833 0.9192 0.0
H871 H 0.7075 0.02327 0.92451 0.0
C872 C 0.74981 0.93016 0.93495 0.0
C873 C 0.77048 0.94572 0.91938 0.0
C874 C 0.73172 0.94346 0.95235 0.0
C875 C 0.73344 0.97274 0.95436 0.0
C876 C 0.75518 0.98829 0.93983 0.0
H877 H 0.60937 0.08211 0.02612 0.0
H878 H 0.65102 0.06369 1.00333 0.0
C879 C 0.77355 0.97492 0.92254 0.0
C880 C 0.71125 0.98672 0.97039 0.0
H881 H 0.6517 0.02662 0.96558 0.0
C882 C 0.71037 0.9822 0.99741 0.0
C883 C 0.68985 1.00316 0.95892 0.0
C884 C 0.6889 1.00806 0.92994 0.0
C885 C 0.68898 0.99377 1.01319 0.0
C886 C 0.66709 1.0097 1.00163 0.0
C887 C 0.66828 1.01448 0.97463 0.0
C888 C 0.64249 0.02119 1.01694 0.0
C889 C 0.69051 0.98918 0.04219 0.0
C890 C 0.62344 1.00365 0.03235 0.0
C891 C 0.59968 1.01424 0.04567 0.0
C892 C 0.59395 0.04263 0.04367 0.0
C893 C 0.61305 0.06017 0.02827 0.0
C894 C 0.63693 0.0496 1.01511 0.0
H895 H 0.7133 0.98507 0.04865 0.0
H896 H 0.68348 1.00752 0.05305 0.0
H897 H 0.67559 0.97065 0.04737 0.0
H898 H 0.62645 0.98152 0.03362 0.0
H899 H 0.58533 0.99996 0.05704 0.0
H900 H 0.72352 0.15317 0.39853 0.0
H901 H 0.76686 0.13426 0.41878 0.0
H902 H 0.7904 0.21389 0.45507 0.0
H903 H 0.74719 0.23312 0.43467 0.0
H904 H 0.82657 0.14918 0.41496 0.0
H905 H 0.79178 0.16168 0.51712 0.0
H906 H 0.76679 0.16515 0.48991 0.0
H907 H 0.7933 0.1935 0.49866 0.0
C908 C 0.73801 0.16689 0.41055 0.0
C909 C 0.73155 0.19485 0.4148 0.0
C910 C 0.76282 0.1559 0.42232 0.0
C911 C 0.78187 0.17237 0.43892 0.0
C912 C 0.77579 0.2004 0.44293 0.0
H913 H 0.94291 0.1438 0.52812 0.0
H914 H 0.89946 0.16262 0.50781 0.0
C915 C 0.75097 0.21144 0.43115 0.0
C916 C 0.80818 0.16029 0.45163 0.0
H917 H 0.84048 0.14794 0.51076 0.0
C918 C 0.82949 0.14882 0.43592 0.0
C919 C 0.81227 0.15972 0.47903 0.0
C920 C 0.78972 0.17042 0.49722 0.0
C921 C 0.85483 0.13744 0.44667 0.0
C922 C 0.85891 0.13683 0.47408 0.0
C923 C 0.83757 0.14829 0.48979 0.0
C924 C 0.88527 0.1248 0.48681 0.0
C925 C 0.87744 0.12692 0.42844 0.0
C926 C 0.89181 0.09696 0.48237 0.0
C927 C 0.91682 0.08608 0.49399 0.0
C928 C 0.93589 0.10267 0.51059 0.0
C929 C 0.92889 0.13032 0.51547 0.0
C930 C 0.90393 0.14117 0.50382 0.0
H931 H 0.87552 0.13596 0.40864 0.0
H932 H 0.90036 0.13201 0.43587 0.0
H933 H 0.87375 0.10387 0.42668 0.0
H934 H 0.87751 0.08353 0.46992 0.0
H935 H 0.92129 0.06468 0.48983 0.0
H936 H 0.37727 0.65053 0.07385 0.0
H937 H 0.32914 0.64774 0.05127 0.0
H938 H 0.28912 0.60387 0.11677 0.0
H939 H 0.33705 0.60656 0.13943 0.0
H940 H 0.26967 0.58194 0.06841 0.0
H941 H 0.26327 0.69715 0.0732 0.0
H942 H 0.29559 0.68561 0.05762 0.0
H943 H 0.29014 0.67923 0.09173 0.0
C944 C 0.35822 0.64011 0.08333 0.0
C945 C 0.36088 0.62891 0.10848 0.0
C946 C 0.33078 0.63861 0.07045 0.0
C947 C 0.30552 0.62607 0.08257 0.0
C948 C 0.30837 0.61371 0.10712 0.0
H949 H 0.12041 0.64332 0.06942 0.0
H950 H 0.17353 0.64697 0.07891 0.0
C951 C 0.3358 0.61512 0.11999 0.0
C952 C 0.27581 0.62679 0.07033 0.0
H953 H 0.22328 0.67105 0.05292 0.0
C954 C 0.25958 0.6014 0.06477 0.0
C955 C 0.26268 0.65226 0.06592 0.0
C956 C 0.27864 0.68014 0.07259 0.0
C957 C 0.23031 0.60073 0.05531 0.0
C958 C 0.21717 0.6262 0.05091 0.0
C959 C 0.23358 0.65161 0.05605 0.0
C960 C 0.18556 0.62677 0.04331 0.0
C961 C 0.21328 0.57278 0.05121 0.0
C962 C 0.17485 0.61516 1.01967 0.0
C963 C 0.14441 0.61298 1.01417 0.0
C964 C 0.12425 0.6225 0.03222 0.0
C965 C 0.13529 0.63565 0.05515 0.0
C966 C 0.16567 0.63777 0.06062 0.0
H967 H 0.22459 0.55546 0.0604 0.0
H968 H 0.1906 0.57289 0.05929 0.0
H969 H 0.21113 0.56844 0.03004 0.0
H970 H 0.18995 0.60706 1.00583 0.0
H971 H 0.13664 0.6029 0.99626 0.0
H972 H 0.19377 0.50217 0.55589 0.0
H973 H 0.24767 0.51123 0.55926 0.0
H974 H 0.23715 0.56641 0.62421 0.0
H975 H 0.18322 0.55748 0.62093 0.0
H976 H 0.27898 0.58741 0.58888 0.0
H977 H 0.29831 0.47846 0.61648 0.0
H978 H 0.27774 0.48101 0.58662 0.0
H979 H 0.26197 0.49168 0.61668 0.0
C980 C 0.20297 0.51632 0.5708 0.0
C981 C 0.18433 0.52903 0.58822 0.0
C982 C 0.23372 0.52136 0.57279 0.0
C983 C 0.24634 0.53896 0.59237 0.0
C984 C 0.22779 0.55259 0.60909 0.0
H985 H 0.43413 0.55029 0.63762 0.0
H986 H 0.37988 0.54223 0.63794 0.0
C987 C 0.19701 0.54764 0.60707 0.0
C988 C 0.27893 0.54308 0.59542 0.0
H989 H 0.3411 0.50817 0.6057 0.0
C990 C 0.29256 0.57013 0.59272 0.0
C991 C 0.29651 0.52056 0.60094 0.0
C992 C 0.28291 0.49133 0.60562 0.0
C993 C 0.32346 0.57513 0.59448 0.0
C994 C 0.34113 0.55238 0.59861 0.0
C995 C 0.32746 0.52549 0.60224 0.0
C996 C 0.37387 0.55604 0.59828 0.0
C997 C 0.33693 0.60473 0.59194 0.0
C998 C 0.38832 0.56565 0.57566 0.0
C999 C 0.4191 0.57025 0.57541 0.0
C1000 C 0.43608 0.56513 0.59775 0.0
C1001 C 0.42164 0.5545 0.62014 0.0
C1002 C 0.39071 0.54993 0.62037 0.0
H1003 H 0.32056 0.62021 0.59625 0.0
H1004 H 0.35634 0.60859 0.60522 0.0
H1005 H 0.34457 0.60827 0.57168 0.0
H1006 H 0.37573 0.56983 0.55823 0.0
H1007 H 0.42953 0.57818 0.55774 0.0
H1008 H 0.93032 0.84375 0.84889 0.0
H1009 H 0.95111 0.80464 0.87165 0.0
H1010 H 0.92483 0.83779 0.94507 0.0
H1011 H 0.90395 0.87676 0.92253 0.0
H1012 H 0.99442 0.80041 0.908 0.0
H1013 H 0.88825 0.75922 0.95093 0.0
H1014 H 0.89005 0.7858 0.92608 0.0
H1015 H 0.89799 0.79497 0.95953 0.0
C1016 C 0.92916 0.84293 0.86991 0.0
C1017 C 0.91505 0.86355 0.88369 0.0
C1018 C 0.94098 0.82034 0.88296 0.0
C1019 C 0.93902 0.81757 0.9102 0.0
C1020 C 0.92589 0.83865 0.92405 0.0
H1021 H 0.9945 0.69451 0.02488 0.0
H1022 H 0.9768 0.73558 1.00274 0.0
C1023 C 0.91399 0.86114 0.91104 0.0
C1024 C 0.95082 0.79288 0.92409 0.0
H1025 H 0.93164 0.73927 0.96634 0.0
C1026 C 0.98057 0.78701 0.92063 0.0
C1027 C 0.93302 0.7751 0.94074 0.0
C1028 C 0.90049 0.77887 0.94438 0.0
C1029 C 0.993 0.76453 0.93356 0.0
C1030 C 0.97522 0.74685 0.95026 0.0
C1031 C 0.94549 0.75272 0.95374 0.0
C1032 C 0.9868 0.72194 0.9639 0.0
C1033 C 0.02539 0.76036 0.92964 0.0
C1034 C 0.9982 0.70015 0.94968 0.0
C1035 C 1.00833 0.6766 0.96231 0.0
C1036 C 1.00732 0.67394 0.98964 0.0
C1037 C 0.99587 0.69575 1.00388 0.0
C1038 C 0.98562 0.7193 0.99118 0.0
H1039 H 0.03776 0.77976 0.92267 0.0
H1040 H 0.03595 0.75359 0.94795 0.0
H1041 H 0.02746 0.7439 0.91475 0.0
H1042 H 0.99884 0.7011 0.92864 0.0
H1043 H 0.01673 0.66027 0.95054 0.0
H1044 H 0.44303 0.69615 0.18473 0.0
H1045 H 0.45924 0.74593 0.18833 0.0
H1046 H 0.45851 0.753 0.1047 0.0
H1047 H 0.44263 0.70322 0.10091 0.0
H1048 H 0.51007 0.78205 0.13381 0.0
H1049 H 0.3979 0.80529 0.16811 0.0
H1050 H 0.41634 0.77822 0.18453 0.0
H1051 H 0.40425 0.77319 0.15142 0.0
C1052 C 0.44695 0.7082 0.16711 0.0
C1053 C 0.44144 0.69591 0.14252 0.0
C1054 C 0.45601 0.7366 0.16922 0.0
C1055 C 0.45976 0.75302 0.14678 0.0
C1056 C 0.45565 0.74056 0.12221 0.0
H1057 H 0.45725 0.91862 0.09587 0.0
H1058 H 0.45114 0.86898 0.1063 0.0
C1059 C 0.44645 0.71224 0.12008 0.0
C1060 C 0.46591 0.78358 0.14867 0.0
H1061 H 0.43212 0.84354 0.16028 0.0
C1062 C 0.49329 0.79556 0.14002 0.0
C1063 C 0.44376 0.80096 0.15663 0.0
C1064 C 0.4138 0.78894 0.1656 0.0
C1065 C 0.49881 0.82467 0.13843 0.0
C1066 C 0.47632 0.84198 0.1456 0.0
C1067 C 0.4493 0.83004 0.155 0.0
C1068 C 0.47921 0.87228 0.14062 0.0
C1069 C 0.52803 0.83683 0.12798 0.0
C1070 C 0.4967 0.89049 0.15679 0.0
C1071 C 0.49994 0.91906 0.15111 0.0
C1072 C 0.48581 0.92974 0.12911 0.0
C1073 C 0.46799 0.91128 0.11323 0.0
C1074 C 0.46463 0.88286 0.11902 0.0
H1075 H 0.54278 0.82041 0.12227 0.0
H1076 H 0.52411 0.85012 0.11078 0.0
H1077 H 0.53959 0.85036 0.14301 0.0
H1078 H 0.50794 0.88257 0.17365 0.0
H1079 H 0.51353 0.93274 0.16391 0.0
H1080 H 0.13532 0.4446 0.62072 0.0
H1081 H 0.12095 0.39446 0.62179 0.0
H1082 H 0.05297 0.40549 0.56395 0.0
H1083 H 0.06683 0.45595 0.56335 0.0
H1084 H 0.03389 0.36908 0.60233 0.0
H1085 H 0.14268 0.34176 0.56498 0.0
H1086 H 0.14573 0.36194 0.59439 0.0
H1087 H 0.13172 0.37712 0.56515 0.0
C1088 C 0.11734 0.43627 0.60821 0.0
C1089 C 0.10243 0.45394 0.59164 0.0
C1090 C 0.10919 0.40768 0.60882 0.0
C1091 C 0.08637 0.39621 0.59252 0.0
C1092 C 0.07077 0.41395 0.57657 0.0
H1093 H 0.06351 0.22506 0.54335 0.0
H1094 H 0.07197 0.27567 0.54751 0.0
C1095 C 0.07868 0.44267 0.5762 0.0
C1096 C 0.07937 0.36562 0.59159 0.0
H1097 H 0.1099 0.30419 0.57924 0.0
C1098 C 0.05044 0.35483 0.59724 0.0
C1099 C 0.10096 0.34718 0.58461 0.0
C1100 C 0.13192 0.35756 0.57668 0.0
C1101 C 0.04252 0.32599 0.59617 0.0
C1102 C 0.06436 0.30753 0.58989 0.0
C1103 C 0.09327 0.31838 0.58429 0.0
C1104 C 0.05759 0.27698 0.58751 0.0
C1105 C 1.01072 0.31567 0.60104 0.0
C1106 C 0.04661 0.26089 0.60863 0.0
C1107 C 0.04151 0.23187 0.6062 0.0
C1108 C 0.04792 0.21858 0.58279 0.0
C1109 C 0.05883 0.23476 0.56174 0.0
C1110 C 0.06355 0.26366 0.56406 0.0
H1111 H 0.99548 0.33267 0.59883 0.0
H1112 H 1.00337 0.29844 0.5875 0.0
H1113 H 1.00874 0.30762 0.62123 0.0
H1114 H 0.04248 0.27068 0.62709 0.0
H1115 H 0.03321 0.21977 0.62272 0.0
H1116 H 0.62086 0.33446 0.42674 0.0
H1117 H 0.61187 0.37976 0.44659 0.0
H1118 H 0.61559 0.34262 0.5228 0.0
H1119 H 0.62466 0.2977 0.50306 0.0
H1120 H 0.56308 0.38974 0.47644 0.0
H1121 H 0.66489 0.41569 0.53483 0.0
H1122 H 0.66314 0.38977 0.50929 0.0
H1123 H 0.64857 0.3811 0.54096 0.0
C1124 C 0.62091 0.3363 0.44775 0.0
C1125 C 0.62408 0.31258 0.46332 0.0
C1126 C 0.61539 0.36214 0.45912 0.0
C1127 C 0.61327 0.36494 0.48634 0.0
C1128 C 0.61771 0.34145 0.50187 0.0
H1129 H 0.55786 0.48933 0.59724 0.0
H1130 H 0.57465 0.4479 0.57541 0.0
C1131 C 0.62298 0.31569 0.49054 0.0
C1132 C 0.60388 0.3914 0.49847 0.0
H1133 H 0.62288 0.44086 0.54509 0.0
C1134 C 0.57636 0.40107 0.49124 0.0
C1135 C 0.62089 0.40624 0.51805 0.0
C1136 C 0.65114 0.39786 0.5261 0.0
C1137 C 0.56511 0.42444 0.50338 0.0
C1138 C 0.58204 0.43921 0.52308 0.0
C1139 C 0.6097 0.42967 0.53015 0.0
C1140 C 0.57152 0.46457 0.53643 0.0
C1141 C 0.53462 0.43243 0.49556 0.0
C1142 C 0.56434 0.48813 0.52206 0.0
C1143 C 0.55456 0.5118 0.5345 0.0
C1144 C 0.55191 0.51284 0.56179 0.0
C1145 C 0.55938 0.48935 0.57623 0.0
C1146 C 0.56913 0.4656 0.56372 0.0
H1147 H 0.52124 0.41467 0.48632 0.0
H1148 H 0.52236 0.43966 0.5126 0.0
H1149 H 0.53681 0.44969 0.48119 0.0
H1150 H 0.56662 0.4884 0.50111 0.0
H1151 H 0.54936 0.52947 0.52263 0.0
loop_
_geom_bond_atom_site_label_1
_geom_bond_atom_site_label_2
_geom_bond_distance
_geom_bond_site_symmetry_2
_ccdc_geom_bond_type
H0 C1 0.949 . S
C1 H0 0.949 . S
C1 C2 1.395 . S
C1 C3 1.391 . S
C2 C1 1.395 . S
C2 C5 1.390 . S
C3 C1 1.391 . S
C3 C7 1.387 . S
C3 C8 1.491 . S
H4 C5 0.950 . S
C5 C2 1.390 . S
C5 H4 0.950 . S
C5 C6 1.378 . S
C6 C5 1.378 . S
C6 C7 1.409 . S
C7 C3 1.387 . S
C7 C6 1.409 . S
C7 H9 0.951 . S
C8 C3 1.491 . S
C8 C10 1.382 . S
C8 C12 1.404 . S
H9 C7 0.951 . S
C10 C8 1.382 . S
C10 C11 1.390 . S
C10 H15 0.949 . S
C11 C10 1.390 . S
C11 C16 1.399 . S
C12 C8 1.404 . S
C12 H13 0.950 . S
C12 C14 1.375 . S
H13 C12 0.950 . S
C14 C12 1.375 . S
C14 C16 1.382 . S
C14 H18 0.950 . S
H15 C10 0.949 . S
C16 C11 1.399 . S
C16 C14 1.382 . S
C16 H17 0.952 . S
H17 C16 0.952 . S
H18 C14 0.950 . S
H19 C20 0.949 . S
C20 H19 0.949 . S
C20 C21 1.395 . S
C20 C22 1.391 . S
C21 C20 1.395 . S
C21 C24 1.390 . S
C22 C20 1.391 . S
C22 C26 1.387 . S
C22 C27 1.491 . S
H23 C24 0.950 . S
C24 C21 1.390 . S
C24 H23 0.950 . S
C24 C25 1.378 . S
C25 C24 1.378 . S
C25 C26 1.409 . S
C26 C22 1.387 . S
C26 C25 1.409 . S
C26 H28 0.951 . S
C27 C22 1.491 . S
C27 C29 1.382 . S
C27 C31 1.404 . S
H28 C26 0.951 . S
C29 C27 1.382 . S
C29 C30 1.390 . S
C29 H34 0.949 . S
C30 C29 1.390 . S
C30 C35 1.399 . S
C31 C27 1.404 . S
C31 H32 0.950 . S
C31 C33 1.375 . S
H32 C31 0.950 . S
C33 C31 1.375 . S
C33 C35 1.382 . S
C33 H37 0.950 . S
H34 C29 0.949 . S
C35 C30 1.399 . S
C35 C33 1.382 . S
C35 H36 0.952 . S
H36 C35 0.952 . S
H37 C33 0.950 . S
H38 C39 0.949 . S
C39 H38 0.949 . S
C39 C40 1.395 . S
C39 C41 1.391 . S
C40 C39 1.395 . S
C40 C43 1.390 . S
C41 C39 1.391 . S
C41 C45 1.387 . S
C41 C46 1.491 . S
H42 C43 0.950 . S
C43 C40 1.390 . S
C43 H42 0.950 . S
C43 C44 1.378 . S
C44 C43 1.378 . S
C44 C45 1.409 . S
C45 C41 1.387 . S
C45 C44 1.409 . S
C45 H47 0.951 . S
C46 C41 1.491 . S
C46 C48 1.382 . S
C46 C50 1.404 . S
H47 C45 0.951 . S
C48 C46 1.382 . S
C48 C49 1.390 . S
C48 H53 0.949 . S
C49 C48 1.390 . S
C49 C54 1.399 . S
C50 C46 1.404 . S
C50 H51 0.950 . S
C50 C52 1.375 . S
H51 C50 0.950 . S
C52 C50 1.375 . S
C52 C54 1.382 . S
C52 H56 0.950 . S
H53 C48 0.949 . S
C54 C49 1.399 . S
C54 C52 1.382 . S
C54 H55 0.952 . S
H55 C54 0.952 . S
H56 C52 0.950 . S
H57 C58 0.949 . S
C58 H57 0.949 . S
C58 C59 1.395 . S
C58 C60 1.391 . S
C59 C58 1.395 . S
C59 C62 1.390 . S
C60 C58 1.391 . S
C60 C64 1.387 . S
C60 C65 1.491 . S
H61 C62 0.950 . S
C62 C59 1.390 . S
C62 H61 0.950 . S
C62 C63 1.378 . S
C63 C62 1.378 . S
C63 C64 1.409 . S
C64 C60 1.387 . S
C64 C63 1.409 . S
C64 H66 0.951 . S
C65 C60 1.491 . S
C65 C67 1.382 . S
C65 C69 1.404 . S
H66 C64 0.951 . S
C67 C65 1.382 . S
C67 C68 1.390 . S
C67 H72 0.949 . S
C68 C67 1.390 . S
C68 C73 1.399 . S
C69 C65 1.404 . S
C69 H70 0.950 . S
C69 C71 1.375 . S
H70 C69 0.950 . S
C71 C69 1.375 . S
C71 C73 1.382 . S
C71 H75 0.950 . S
H72 C67 0.949 . S
C73 C68 1.399 . S
C73 C71 1.382 . S
C73 H74 0.952 . S
H74 C73 0.952 . S
H75 C71 0.950 . S
H76 C77 0.949 . S
C77 H76 0.949 . S
C77 C78 1.395 . S
C77 C79 1.391 . S
C78 C77 1.395 . S
C78 C81 1.390 . S
C79 C77 1.391 . S
C79 C83 1.387 . S
C79 C84 1.491 . S
H80 C81 0.950 . S
C81 C78 1.390 . S
C81 H80 0.950 . S
C81 C82 1.378 . S
C82 C81 1.378 . S
C82 C83 1.409 . S
C83 C79 1.387 . S
C83 C82 1.409 . S
C83 H85 0.951 . S
C84 C79 1.491 . S
C84 C86 1.382 . S
C84 C88 1.404 . S
H85 C83 0.951 . S
C86 C84 1.382 . S
C86 C87 1.390 . S
C86 H91 0.949 . S
C87 C86 1.390 . S
C87 C92 1.399 . S
C88 C84 1.404 . S
C88 H89 0.950 . S
C88 C90 1.375 . S
H89 C88 0.950 . S
C90 C88 1.375 . S
C90 C92 1.382 . S
C90 H94 0.950 . S
H91 C86 0.949 . S
C92 C87 1.399 . S
C92 C90 1.382 . S
C92 H93 0.952 . S
H93 C92 0.952 . S
H94 C90 0.950 . S
H95 C96 0.949 . S
C96 H95 0.949 . S
C96 C97 1.395 . S
C96 C98 1.391 . S
C97 C96 1.395 . S
C97 C100 1.390 . S
C98 C96 1.391 . S
C98 C102 1.387 . S
C98 C103 1.491 . S
H99 C100 0.950 . S
C100 C97 1.390 . S
C100 H99 0.950 . S
C100 C101 1.378 . S
C101 C100 1.378 . S
C101 C102 1.409 . S
C102 C98 1.387 . S
C102 C101 1.409 . S
C102 H104 0.951 . S
C103 C98 1.491 . S
C103 C105 1.382 . S
C103 C107 1.404 . S
H104 C102 0.951 . S
C105 C103 1.382 . S
C105 C106 1.390 . S
C105 H110 0.949 . S
C106 C105 1.390 . S
C106 C111 1.399 . S
C107 C103 1.404 . S
C107 H108 0.950 . S
C107 C109 1.375 . S
H108 C107 0.950 . S
C109 C107 1.375 . S
C109 C111 1.382 . S
C109 H113 0.950 . S
H110 C105 0.949 . S
C111 C106 1.399 . S
C111 C109 1.382 . S
C111 H112 0.952 . S
H112 C111 0.952 . S
H113 C109 0.950 . S
H114 C115 0.949 . S
C115 H114 0.949 . S
C115 C116 1.395 . S
C115 C117 1.391 . S
C116 C115 1.395 . S
C116 C119 1.390 . S
C117 C115 1.391 . S
C117 C121 1.387 . S
C117 C122 1.491 . S
H118 C119 0.950 . S
C119 C116 1.390 . S
C119 H118 0.950 . S
C119 C120 1.378 . S
C120 C119 1.378 . S
C120 C121 1.409 . S
C121 C117 1.387 . S
C121 C120 1.409 . S
C121 H123 0.951 . S
C122 C117 1.491 . S
C122 C124 1.382 . S
C122 C126 1.404 . S
H123 C121 0.951 . S
C124 C122 1.382 . S
C124 C125 1.390 . S
C124 H129 0.949 . S
C125 C124 1.390 . S
C125 C130 1.399 . S
C126 C122 1.404 . S
C126 H127 0.950 . S
C126 C128 1.375 . S
H127 C126 0.950 . S
C128 C126 1.375 . S
C128 C130 1.382 . S
C128 H132 0.950 . S
H129 C124 0.949 . S
C130 C125 1.399 . S
C130 C128 1.382 . S
C130 H131 0.952 . S
H131 C130 0.952 . S
H132 C128 0.950 . S
H133 C134 0.949 . S
C134 H133 0.949 . S
C134 C135 1.395 . S
C134 C136 1.391 . S
C135 C134 1.395 . S
C135 C138 1.390 . S
C136 C134 1.391 . S
C136 C140 1.387 . S
C136 C141 1.491 . S
H137 C138 0.950 . S
C138 C135 1.390 . S
C138 H137 0.950 . S
C138 C139 1.378 . S
C139 C138 1.378 . S
C139 C140 1.409 . S
C140 C136 1.387 . S
C140 C139 1.409 . S
C140 H142 0.951 . S
C141 C136 1.491 . S
C141 C143 1.382 . S
C141 C145 1.404 . S
H142 C140 0.951 . S
C143 C141 1.382 . S
C143 C144 1.390 . S
C143 H148 0.949 . S
C144 C143 1.390 . S
C144 C149 1.399 . S
C145 C141 1.404 . S
C145 H146 0.950 . S
C145 C147 1.375 . S
H146 C145 0.950 . S
C147 C145 1.375 . S
C147 C149 1.382 . S
C147 H151 0.950 . S
H148 C143 0.949 . S
C149 C144 1.399 . S
C149 C147 1.382 . S
C149 H150 0.952 . S
H150 C149 0.952 . S
H151 C147 0.950 . S
C152 O168 1.251 . S
C152 O170 1.254 . S
N153 C154 1.333 . S
N153 C158 1.307 . S
N153 Zn159 2.020 . S
C154 N153 1.333 . S
C154 C155 1.379 . S
C154 H172 0.952 . S
C155 C154 1.379 . S
C155 C156 1.390 . S
C155 H182 0.949 . S
C156 C155 1.390 . S
C156 C157 1.357 . S
C157 C156 1.357 . S
C157 C158 1.370 . S
C157 H183 0.950 . S
C158 N153 1.307 . S
C158 C157 1.370 . S
C158 H176 0.941 1_455 S
Zn159 N153 2.020 . S
Zn159 O168 2.039 . S
Zn159 O174 2.034 . S
Zn159 O178 2.025 1_455 S
Zn159 O180 2.024 1_455 S
C160 O179 1.246 . S
C160 O180 1.249 . S
N161 C162 1.307 . S
N161 C163 1.333 . S
N161 Zn167 2.020 1_565 S
C162 N161 1.307 . S
C162 C166 1.370 . S
C162 H173 0.948 1_655 S
C163 N161 1.333 . S
C163 C164 1.379 . S
C163 H171 0.952 . S
C164 C163 1.379 . S
C164 C165 1.390 . S
C164 H184 0.949 . S
C165 C164 1.390 . S
C165 C166 1.357 . S
C166 C162 1.370 . S
C166 C165 1.357 . S
C166 H185 0.950 . S
Zn167 N161 2.020 1_545 S
Zn167 O170 2.025 1_655 S
Zn167 O175 2.024 1_655 S
Zn167 O177 2.039 . S
Zn167 O179 2.034 . S
O168 C152 1.251 . S
O168 Zn159 2.039 . S
C169 O174 1.246 . S
C169 O175 1.249 . S
O170 C152 1.254 . S
O170 Zn167 2.025 1_455 S
H171 C163 0.952 . S
H172 C154 0.952 . S
H173 C162 0.948 1_455 S
O174 Zn159 2.034 . S
O174 C169 1.246 . S
O175 Zn167 2.024 1_455 S
O175 C169 1.249 . S
H176 C158 0.941 1_655 S
O177 Zn167 2.039 . S
O177 C181 1.251 . S
O178 Zn159 2.025 1_655 S
O178 C181 1.254 . S
O179 C160 1.246 . S
O179 Zn167 2.034 . S
O180 Zn159 2.024 1_655 S
O180 C160 1.249 . S
C181 O177 1.251 . S
C181 O178 1.254 . S
H182 C155 0.949 . S
H183 C157 0.950 . S
H184 C164 0.949 . S
H185 C166 0.950 . S
C186 O202 1.251 . S
C186 O204 1.254 . S
N187 C188 1.333 . S
N187 C192 1.307 . S
N187 Zn193 2.020 . S
C188 N187 1.333 . S
C188 C189 1.379 . S
C188 H206 0.952 . S
C189 C188 1.379 . S
C189 C190 1.390 . S
C189 H216 0.949 . S
C190 C189 1.390 . S
C190 C191 1.357 . S
C191 C190 1.357 . S
C191 C192 1.370 . S
C191 H217 0.950 . S
C192 N187 1.307 . S
C192 C191 1.370 . S
C192 H210 0.948 . S
Zn193 N187 2.020 . S
Zn193 O202 2.039 . S
Zn193 O208 2.034 . S
Zn193 O212 2.025 . S
Zn193 O214 2.024 . S
C194 O213 1.246 . S
C194 O214 1.249 . S
N195 C196 1.307 . S
N195 C197 1.333 . S
N195 Zn201 2.020 1_565 S
C196 N195 1.307 . S
C196 C200 1.370 . S
C196 H207 0.948 . S
C197 N195 1.333 . S
C197 C198 1.379 . S
C197 H205 0.952 . S
C198 C197 1.379 . S
C198 C199 1.390 . S
C198 H218 0.949 . S
C199 C198 1.390 . S
C199 C200 1.357 . S
C200 C196 1.370 . S
C200 C199 1.357 . S
C200 H219 0.950 . S
Zn201 N195 2.020 1_545 S
Zn201 O204 2.025 . S
Zn201 O209 2.024 . S
Zn201 O211 2.039 . S
Zn201 O213 2.034 . S
O202 C186 1.251 . S
O202 Zn193 2.039 . S
C203 O208 1.246 . S
C203 O209 1.249 . S
O204 C186 1.254 . S
O204 Zn201 2.025 . S
H205 C197 0.952 . S
H206 C188 0.952 . S
H207 C196 0.948 . S
O208 Zn193 2.034 . S
O208 C203 1.246 . S
O209 Zn201 2.024 . S
O209 C203 1.249 . S
H210 C192 0.948 . S
O211 Zn201 2.039 . S
O211 C215 1.251 . S
O212 Zn193 2.025 . S
O212 C215 1.254 . S
O213 C194 1.246 . S
O213 Zn201 2.034 . S
O214 Zn193 2.024 . S
O214 C194 1.249 . S
C215 O211 1.251 . S
C215 O212 1.254 . S
H216 C189 0.949 . S
H217 C191 0.950 . S
H218 C198 0.949 . S
H219 C200 0.950 . S
C220 O236 1.251 . S
C220 O238 1.254 . S
N221 C222 1.333 . S
N221 C226 1.307 . S
N221 Zn227 2.020 . S
C222 N221 1.333 . S
C222 C223 1.379 . S
C222 H240 0.952 . S
C223 C222 1.379 . S
C223 C224 1.390 . S
C223 H250 0.949 . S
C224 C223 1.390 . S
C224 C225 1.357 . S
C225 C224 1.357 . S
C225 C226 1.370 . S
C225 H251 0.950 . S
C226 N221 1.307 . S
C226 C225 1.370 . S
C226 H244 0.948 . S
Zn227 N221 2.020 . S
Zn227 O236 2.039 . S
Zn227 O242 2.034 . S
Zn227 O246 2.025 . S
Zn227 O248 2.024 . S
C228 O247 1.246 . S
C228 O248 1.249 . S
N229 C230 1.307 . S
N229 C231 1.333 . S
N229 Zn235 2.020 . S
C230 N229 1.307 . S
C230 C234 1.370 . S
C230 H241 0.948 . S
C231 N229 1.333 . S
C231 C232 1.379 . S
C231 H239 0.952 . S
C232 C231 1.379 . S
C232 C233 1.390 . S
C232 H252 0.949 . S
C233 C232 1.390 . S
C233 C234 1.357 . S
C234 C230 1.370 . S
C234 C233 1.357 . S
C234 H253 0.950 . S
Zn235 N229 2.020 . S
Zn235 O238 2.025 . S
Zn235 O243 2.024 . S
Zn235 O245 2.039 . S
Zn235 O247 2.034 . S
O236 C220 1.251 . S
O236 Zn227 2.039 . S
C237 O242 1.246 . S
C237 O243 1.249 . S
O238 C220 1.254 . S
O238 Zn235 2.025 . S
H239 C231 0.952 . S
H240 C222 0.952 . S
H241 C230 0.948 . S
O242 Zn227 2.034 . S
O242 C237 1.246 . S
O243 Zn235 2.024 . S
O243 C237 1.249 . S
H244 C226 0.948 . S
O245 Zn235 2.039 . S
O245 C249 1.251 . S
O246 Zn227 2.025 . S
O246 C249 1.254 . S
O247 C228 1.246 . S
O247 Zn235 2.034 . S
O248 Zn227 2.024 . S
O248 C228 1.249 . S
C249 O245 1.251 . S
C249 O246 1.254 . S
H250 C223 0.949 . S
H251 C225 0.950 . S
H252 C232 0.949 . S
H253 C234 0.950 . S
C254 O270 1.251 . S
C254 O272 1.254 1_654 S
N255 C256 1.333 . S
N255 C260 1.307 . S
N255 Zn261 2.020 . S
C256 N255 1.333 . S
C256 C257 1.379 . S
C256 H274 0.952 . S
C257 C256 1.379 . S
C257 C258 1.390 . S
C257 H284 0.949 . S
C258 C257 1.390 . S
C258 C259 1.357 . S
C259 C258 1.357 . S
C259 C260 1.370 . S
C259 H285 0.950 . S
C260 N255 1.307 . S
C260 C259 1.370 . S
C260 H278 0.948 . S
Zn261 N255 2.020 . S
Zn261 O270 2.039 . S
Zn261 O276 2.034 1_655 S
Zn261 O280 2.025 1_655 S
Zn261 O282 2.024 . S
C262 O281 1.240 1_554 S
C262 O282 1.257 . S
N263 C264 1.307 . S
N263 C265 1.333 . S
N263 Zn269 2.020 . S
C264 N263 1.307 . S
C264 C268 1.370 . S
C264 H275 0.948 . S
C265 N263 1.333 . S
C265 C266 1.379 . S
C265 H273 0.952 . S
C266 C265 1.379 . S
C266 C267 1.390 . S
C266 H286 0.949 . S
C267 C266 1.390 . S
C267 C268 1.357 . S
C268 C264 1.370 . S
C268 C267 1.357 . S
C268 H287 0.950 . S
Zn269 N263 2.020 . S
Zn269 O272 2.025 . S
Zn269 O277 2.024 1_556 S
Zn269 O279 2.039 1_556 S
Zn269 O281 2.034 1_455 S
O270 C254 1.251 . S
O270 Zn261 2.039 . S
C271 O276 1.246 . S
C271 O277 1.249 . S
O272 C254 1.254 1_456 S
O272 Zn269 2.025 . S
H273 C265 0.952 . S
H274 C256 0.952 . S
H275 C264 0.948 . S
O276 Zn261 2.034 1_455 S
O276 C271 1.246 . S
O277 Zn269 2.024 1_554 S
O277 C271 1.249 . S
H278 C260 0.948 . S
O279 Zn269 2.039 1_554 S
O279 C283 1.251 . S
O280 Zn261 2.025 1_455 S
O280 C283 1.254 . S
O281 C262 1.240 1_556 S
O281 Zn269 2.034 1_655 S
O282 Zn261 2.024 . S
O282 C262 1.257 . S
C283 O279 1.251 . S
C283 O280 1.254 . S
H284 C257 0.949 . S
H285 C259 0.950 . S
H286 C266 0.949 . S
H287 C268 0.950 . S
H288 C296 0.929 . S
H289 C298 0.930 . S
H290 C300 0.930 . S
H291 C303 0.929 . S
H292 C306 0.930 . S
H293 C308 0.960 . S
H294 C308 0.960 . S
H295 C308 0.960 . S
C296 H288 0.929 . S
C296 C297 1.377 . S
C296 C298 1.384 . S
C297 C296 1.377 . S
C297 C303 1.390 . S
C298 H289 0.930 . S
C298 C296 1.384 . S
C298 C299 1.372 . S
C299 C298 1.372 . S
C299 C300 1.400 . S
C299 C304 1.490 . S
C300 H290 0.930 . S
C300 C299 1.400 . S
C300 C303 1.386 . S
H301 C317 0.930 . S
H302 C318 0.931 . S
C303 H291 0.929 . S
C303 C297 1.390 . S
C303 C300 1.386 . S
C304 C299 1.490 . S
C304 C306 1.395 . S
C304 C307 1.403 . S
H305 C311 0.930 . S
C306 H292 0.930 . S
C306 C304 1.395 . S
C306 C309 1.403 . S
C307 C304 1.403 . S
C307 C308 1.524 . S
C307 C311 1.400 . S
C308 H293 0.960 . S
C308 H294 0.960 . S
C308 H295 0.960 . S
C308 C307 1.524 . S
C309 C306 1.403 . S
C309 C310 1.392 . S
C309 C313 1.495 . S
C310 C309 1.392 . S
C310 C311 1.385 . S
C310 C312 1.478 . S
C311 H305 0.930 . S
C311 C307 1.400 . S
C311 C310 1.385 . S
C312 C310 1.478 . S
C312 C314 1.381 . S
C312 C318 1.383 . S
C313 C309 1.495 . S
C313 H319 0.959 . S
C313 H320 0.961 . S
C313 H321 0.960 . S
C314 C312 1.381 . S
C314 C315 1.394 . S
C314 H322 0.930 . S
C315 C314 1.394 . S
C315 C316 1.383 . S
C315 H323 0.929 . S
C316 C315 1.383 . S
C316 C317 1.377 . S
C317 H301 0.930 . S
C317 C316 1.377 . S
C317 C318 1.379 . S
C318 H302 0.931 . S
C318 C312 1.383 . S
C318 C317 1.379 . S
H319 C313 0.959 . S
H320 C313 0.961 . S
H321 C313 0.960 . S
H322 C314 0.930 . S
H323 C315 0.929 . S
H324 C332 0.929 . S
H325 C334 0.930 . S
H326 C336 0.930 . S
H327 C339 0.929 . S
H328 C342 0.930 . S
H329 C344 0.960 . S
H330 C344 0.960 . S
H331 C344 0.960 . S
C332 H324 0.929 . S
C332 C333 1.377 . S
C332 C334 1.384 . S
C333 C332 1.377 . S
C333 C339 1.390 . S
C334 H325 0.930 . S
C334 C332 1.384 . S
C334 C335 1.372 . S
C335 C334 1.372 . S
C335 C336 1.400 . S
C335 C340 1.490 . S
C336 H326 0.930 . S
C336 C335 1.400 . S
C336 C339 1.386 . S
H337 C353 0.930 1_565 S
H338 C354 0.931 . S
C339 H327 0.929 . S
C339 C333 1.390 . S
C339 C336 1.386 . S
C340 C335 1.490 . S
C340 C342 1.395 . S
C340 C343 1.403 1_565 S
H341 C347 0.930 . S
C342 H328 0.930 . S
C342 C340 1.395 . S
C342 C345 1.403 . S
C343 C340 1.403 1_545 S
C343 C344 1.524 . S
C343 C347 1.400 . S
C344 H329 0.960 . S
C344 H330 0.960 . S
C344 H331 0.960 . S
C344 C343 1.524 . S
C345 C342 1.403 . S
C345 C346 1.392 . S
C345 C349 1.495 . S
C346 C345 1.392 . S
C346 C347 1.385 1_565 S
C346 C348 1.478 1_565 S
C347 H341 0.930 . S
C347 C343 1.400 . S
C347 C346 1.385 1_545 S
C348 C346 1.478 1_545 S
C348 C350 1.381 . S
C348 C354 1.383 1_545 S
C349 C345 1.495 . S
C349 H355 0.959 . S
C349 H356 0.961 . S
C349 H357 0.960 . S
C350 C348 1.381 . S
C350 C351 1.394 . S
C350 H358 0.930 . S
C351 C350 1.394 . S
C351 C352 1.383 . S
C351 H359 0.929 . S
C352 C351 1.383 . S
C352 C353 1.377 . S
C353 H337 0.930 1_545 S
C353 C352 1.377 . S
C353 C354 1.379 1_545 S
C354 H338 0.931 . S
C354 C348 1.383 1_565 S
C354 C353 1.379 1_565 S
H355 C349 0.959 . S
H356 C349 0.961 . S
H357 C349 0.960 . S
H358 C350 0.930 . S
H359 C351 0.929 . S
H360 C368 0.929 . S
H361 C370 0.930 . S
H362 C372 0.930 . S
H363 C375 0.929 . S
H364 C378 0.930 . S
H365 C380 0.960 . S
H366 C380 0.960 . S
H367 C380 0.960 . S
C368 H360 0.929 . S
C368 C369 1.377 . S
C368 C370 1.384 . S
C369 C368 1.377 . S
C369 C375 1.390 . S
C370 H361 0.930 . S
C370 C368 1.384 . S
C370 C371 1.372 . S
C371 C370 1.372 . S
C371 C372 1.400 . S
C371 C376 1.490 . S
C372 H362 0.930 . S
C372 C371 1.400 . S
C372 C375 1.386 . S
H373 C389 0.930 . S
H374 C390 0.931 . S
C375 H363 0.929 . S
C375 C369 1.390 . S
C375 C372 1.386 . S
C376 C371 1.490 . S
C376 C378 1.395 . S
C376 C379 1.403 . S
H377 C383 0.930 . S
C378 H364 0.930 . S
C378 C376 1.395 . S
C378 C381 1.403 . S
C379 C376 1.403 . S
C379 C380 1.524 . S
C379 C383 1.400 . S
C380 H365 0.960 . S
C380 H366 0.960 . S
C380 H367 0.960 . S
C380 C379 1.524 . S
C381 C378 1.403 . S
C381 C382 1.392 . S
C381 C385 1.495 . S
C382 C381 1.392 . S
C382 C383 1.385 . S
C382 C384 1.478 . S
C383 H377 0.930 . S
C383 C379 1.400 . S
C383 C382 1.385 . S
C384 C382 1.478 . S
C384 C386 1.381 . S
C384 C390 1.383 . S
C385 C381 1.495 . S
C385 H391 0.959 . S
C385 H392 0.961 . S
C385 H393 0.960 . S
C386 C384 1.381 . S
C386 C387 1.394 . S
C386 H394 0.930 . S
C387 C386 1.394 . S
C387 C388 1.383 . S
C387 H395 0.929 . S
C388 C387 1.383 . S
C388 C389 1.377 . S
C389 H373 0.930 . S
C389 C388 1.377 . S
C389 C390 1.379 . S
C390 H374 0.931 . S
C390 C384 1.383 . S
C390 C389 1.379 . S
H391 C385 0.959 . S
H392 C385 0.961 . S
H393 C385 0.960 . S
H394 C386 0.930 . S
H395 C387 0.929 . S
H396 C404 0.929 . S
H397 C406 0.930 . S
H398 C408 0.930 . S
H399 C411 0.929 . S
H400 C414 0.930 . S
H401 C416 0.960 . S
H402 C416 0.960 . S
H403 C416 0.960 . S
C404 H396 0.929 . S
C404 C405 1.377 . S
C404 C406 1.384 . S
C405 C404 1.377 . S
C405 C411 1.390 . S
C406 H397 0.930 . S
C406 C404 1.384 . S
C406 C407 1.372 . S
C407 C406 1.372 . S
C407 C408 1.400 . S
C407 C412 1.490 . S
C408 H398 0.930 . S
C408 C407 1.400 . S
C408 C411 1.386 . S
H409 C425 0.930 . S
H410 C426 0.931 . S
C411 H399 0.929 . S
C411 C405 1.390 . S
C411 C408 1.386 . S
C412 C407 1.490 . S
C412 C414 1.395 . S
C412 C415 1.403 . S
H413 C419 0.930 . S
C414 H400 0.930 . S
C414 C412 1.395 . S
C414 C417 1.403 . S
C415 C412 1.403 . S
C415 C416 1.524 . S
C415 C419 1.400 . S
C416 H401 0.960 . S
C416 H402 0.960 . S
C416 H403 0.960 . S
C416 C415 1.524 . S
C417 C414 1.403 . S
C417 C418 1.392 . S
C417 C421 1.495 . S
C418 C417 1.392 . S
C418 C419 1.385 . S
C418 C420 1.478 . S
C419 H413 0.930 . S
C419 C415 1.400 . S
C419 C418 1.385 . S
C420 C418 1.478 . S
C420 C422 1.381 . S
C420 C426 1.383 . S
C421 C417 1.495 . S
C421 H427 0.959 . S
C421 H428 0.961 . S
C421 H429 0.960 . S
C422 C420 1.381 . S
C422 C423 1.394 . S
C422 H430 0.930 . S
C423 C422 1.394 . S
C423 C424 1.383 . S
C423 H431 0.929 . S
C424 C423 1.383 . S
C424 C425 1.377 . S
C425 H409 0.930 . S
C425 C424 1.377 . S
C425 C426 1.379 . S
C426 H410 0.931 . S
C426 C420 1.383 . S
C426 C425 1.379 . S
H427 C421 0.959 . S
H428 C421 0.961 . S
H429 C421 0.960 . S
H430 C422 0.930 . S
H431 C423 0.929 . S
H432 C440 0.929 . S
H433 C442 0.930 . S
H434 C444 0.930 . S
H435 C447 0.929 . S
H436 C450 0.930 . S
H437 C452 0.960 . S
H438 C452 0.960 . S
H439 C452 0.960 . S
C440 H432 0.929 . S
C440 C441 1.377 . S
C440 C442 1.384 . S
C441 C440 1.377 . S
C441 C447 1.390 . S
C442 H433 0.930 . S
C442 C440 1.384 . S
C442 C443 1.372 . S
C443 C442 1.372 . S
C443 C444 1.400 . S
C443 C448 1.490 . S
C444 H434 0.930 . S
C444 C443 1.400 . S
C444 C447 1.386 . S
H445 C461 0.930 . S
H446 C462 0.931 . S
C447 H435 0.929 . S
C447 C441 1.390 . S
C447 C444 1.386 . S
C448 C443 1.490 . S
C448 C450 1.395 . S
C448 C451 1.403 . S
H449 C455 0.930 . S
C450 H436 0.930 . S
C450 C448 1.395 . S
C450 C453 1.403 . S
C451 C448 1.403 . S
C451 C452 1.524 . S
C451 C455 1.400 . S
C452 H437 0.960 . S
C452 H438 0.960 . S
C452 H439 0.960 . S
C452 C451 1.524 . S
C453 C450 1.403 . S
C453 C454 1.392 . S
C453 C457 1.495 . S
C454 C453 1.392 . S
C454 C455 1.385 . S
C454 C456 1.478 . S
C455 H449 0.930 . S
C455 C451 1.400 . S
C455 C454 1.385 . S
C456 C454 1.478 . S
C456 C458 1.381 . S
C456 C462 1.383 . S
C457 C453 1.495 . S
C457 H463 0.959 . S
C457 H464 0.961 . S
C457 H465 0.960 . S
C458 C456 1.381 . S
C458 C459 1.394 . S
C458 H466 0.930 . S
C459 C458 1.394 . S
C459 C460 1.383 . S
C459 H467 0.929 . S
C460 C459 1.383 . S
C460 C461 1.377 . S
C461 H445 0.930 . S
C461 C460 1.377 . S
C461 C462 1.379 . S
C462 H446 0.931 . S
C462 C456 1.383 . S
C462 C461 1.379 . S
H463 C457 0.959 . S
H464 C457 0.961 . S
H465 C457 0.960 . S
H466 C458 0.930 . S
H467 C459 0.929 . S
H468 C476 0.929 . S
H469 C478 0.930 . S
H470 C480 0.930 . S
H471 C483 0.929 . S
H472 C486 0.930 . S
H473 C488 0.960 . S
H474 C488 0.938 1_545 S
H475 C488 0.960 . S
C476 H468 0.929 . S
C476 C477 1.377 1_545 S
C476 C478 1.384 . S
C477 C476 1.377 1_565 S
C477 C483 1.390 . S
C478 H469 0.930 . S
C478 C476 1.384 . S
C478 C479 1.370 . S
C479 C478 1.370 . S
C479 C480 1.402 1_545 S
C479 C484 1.489 . S
C480 H470 0.930 . S
C480 C479 1.402 1_565 S
C480 C483 1.386 . S
H481 C497 0.930 1_565 S
H482 C498 0.931 1_565 S
C483 H471 0.929 . S
C483 C477 1.390 . S
C483 C480 1.386 . S
C484 C479 1.489 . S
C484 C486 1.395 . S
C484 C487 1.403 . S
H485 C491 0.930 . S
C486 H472 0.930 . S
C486 C484 1.395 . S
C486 C489 1.403 . S
C487 C484 1.403 . S
C487 C488 1.523 1_545 S
C487 C491 1.400 . S
C488 H473 0.960 . S
C488 H474 0.938 1_565 S
C488 H475 0.960 . S
C488 C487 1.523 1_565 S
C489 C486 1.403 . S
C489 C490 1.392 . S
C489 C493 1.495 . S
C490 C489 1.392 . S
C490 C491 1.385 . S
C490 C492 1.478 . S
C491 H485 0.930 . S
C491 C487 1.400 . S
C491 C490 1.385 . S
C492 C490 1.478 . S
C492 C494 1.381 . S
C492 C498 1.383 . S
C493 C489 1.495 . S
C493 H499 0.959 . S
C493 H500 0.961 . S
C493 H501 0.960 . S
C494 C492 1.381 . S
C494 C495 1.394 . S
C494 H502 0.930 . S
C495 C494 1.394 . S
C495 C496 1.383 . S
C495 H503 0.929 . S
C496 C495 1.383 . S
C496 C497 1.377 . S
C497 H481 0.930 1_545 S
C497 C496 1.377 . S
C497 C498 1.379 . S
C498 H482 0.931 1_545 S
C498 C492 1.383 . S
C498 C497 1.379 . S
H499 C493 0.959 . S
H500 C493 0.961 . S
H501 C493 0.960 . S
H502 C494 0.930 . S
H503 C495 0.929 . S
H504 C512 0.929 . S
H505 C514 0.930 . S
H506 C516 0.930 . S
H507 C519 0.929 . S
H508 C522 0.930 . S
H509 C524 0.960 . S
H510 C524 0.960 . S
H511 C524 0.960 . S
C512 H504 0.929 . S
C512 C513 1.377 . S
C512 C514 1.384 . S
C513 C512 1.377 . S
C513 C519 1.390 . S
C514 H505 0.930 . S
C514 C512 1.384 . S
C514 C515 1.372 . S
C515 C514 1.372 . S
C515 C516 1.400 . S
C515 C520 1.490 . S
C516 H506 0.930 . S
C516 C515 1.400 . S
C516 C519 1.386 . S
H517 C533 0.930 . S
H518 C534 0.931 . S
C519 H507 0.929 . S
C519 C513 1.390 . S
C519 C516 1.386 . S
C520 C515 1.490 . S
C520 C522 1.395 . S
C520 C523 1.403 . S
H521 C527 0.930 . S
C522 H508 0.930 . S
C522 C520 1.395 . S
C522 C525 1.403 . S
C523 C520 1.403 . S
C523 C524 1.524 . S
C523 C527 1.400 . S
C524 H509 0.960 . S
C524 H510 0.960 . S
C524 H511 0.960 . S
C524 C523 1.524 . S
C525 C522 1.403 . S
C525 C526 1.392 . S
C525 C529 1.495 . S
C526 C525 1.392 . S
C526 C527 1.385 . S
C526 C528 1.478 . S
C527 H521 0.930 . S
C527 C523 1.400 . S
C527 C526 1.385 . S
C528 C526 1.478 . S
C528 C530 1.381 1_556 S
C528 C534 1.383 . S
C529 C525 1.495 . S
C529 H535 0.959 . S
C529 H536 0.961 . S
C529 H537 0.960 . S
C530 C528 1.381 1_554 S
C530 C531 1.394 . S
C530 H538 0.930 . S
C531 C530 1.394 . S
C531 C532 1.383 1_554 S
C531 H539 0.929 . S
C532 C531 1.383 1_556 S
C532 C533 1.377 . S
C533 H517 0.930 . S
C533 C532 1.377 . S
C533 C534 1.379 . S
C534 H518 0.931 . S
C534 C528 1.383 . S
C534 C533 1.379 . S
H535 C529 0.959 . S
H536 C529 0.961 . S
H537 C529 0.960 . S
H538 C530 0.930 . S
H539 C531 0.929 . S
H540 C548 0.929 . S
H541 C550 0.930 . S
H542 C552 0.930 . S
H543 C555 0.929 . S
H544 C558 0.930 . S
H545 C560 0.960 . S
H546 C560 0.960 . S
H547 C560 0.960 . S
C548 H540 0.929 . S
C548 C549 1.377 . S
C548 C550 1.384 . S
C549 C548 1.377 . S
C549 C555 1.390 . S
C550 H541 0.930 . S
C550 C548 1.384 . S
C550 C551 1.372 . S
C551 C550 1.372 . S
C551 C552 1.400 . S
C551 C556 1.490 . S
C552 H542 0.930 . S
C552 C551 1.400 . S
C552 C555 1.386 . S
H553 C569 0.930 . S
H554 C570 0.931 . S
C555 H543 0.929 . S
C555 C549 1.390 . S
C555 C552 1.386 . S
C556 C551 1.490 . S
C556 C558 1.395 . S
C556 C559 1.403 . S
H557 C563 0.930 . S
C558 H544 0.930 . S
C558 C556 1.395 . S
C558 C561 1.403 . S
C559 C556 1.403 . S
C559 C560 1.524 . S
C559 C563 1.400 . S
C560 H545 0.960 . S
C560 H546 0.960 . S
C560 H547 0.960 . S
C560 C559 1.524 . S
C561 C558 1.403 . S
C561 C562 1.392 . S
C561 C565 1.495 . S
C562 C561 1.392 . S
C562 C563 1.385 . S
C562 C564 1.478 . S
C563 H557 0.930 . S
C563 C559 1.400 . S
C563 C562 1.385 . S
C564 C562 1.478 . S
C564 C566 1.381 . S
C564 C570 1.383 . S
C565 C561 1.495 . S
C565 H571 0.959 . S
C565 H572 0.961 . S
C565 H573 0.960 . S
C566 C564 1.381 . S
C566 C567 1.394 . S
C566 H574 0.930 . S
C567 C566 1.394 . S
C567 C568 1.383 . S
C567 H575 0.929 . S
C568 C567 1.383 . S
C568 C569 1.377 . S
C569 H553 0.930 . S
C569 C568 1.377 . S
C569 C570 1.379 . S
C570 H554 0.931 . S
C570 C564 1.383 . S
C570 C569 1.379 . S
H571 C565 0.959 . S
H572 C565 0.961 . S
H573 C565 0.960 . S
H574 C566 0.930 . S
H575 C567 0.929 . S
H576 C584 0.929 . S
H577 C586 0.930 . S
H578 C588 0.930 . S
H579 C591 0.929 . S
H580 C594 0.930 . S
H581 C596 0.960 . S
H582 C596 0.960 . S
H583 C596 0.960 . S
C584 H576 0.929 . S
C584 C585 1.377 . S
C584 C586 1.384 . S
C585 C584 1.377 . S
C585 C591 1.390 . S
C586 H577 0.930 . S
C586 C584 1.384 . S
C586 C587 1.372 . S
C587 C586 1.372 . S
C587 C588 1.400 . S
C587 C592 1.490 . S
C588 H578 0.930 . S
C588 C587 1.400 . S
C588 C591 1.386 . S
H589 C605 0.930 . S
H590 C606 0.931 . S
C591 H579 0.929 . S
C591 C585 1.390 . S
C591 C588 1.386 . S
C592 C587 1.490 . S
C592 C594 1.395 . S
C592 C595 1.403 . S
H593 C599 0.930 . S
C594 H580 0.930 . S
C594 C592 1.395 . S
C594 C597 1.403 . S
C595 C592 1.403 . S
C595 C596 1.524 . S
C595 C599 1.400 . S
C596 H581 0.960 . S
C596 H582 0.960 . S
C596 H583 0.960 . S
C596 C595 1.524 . S
C597 C594 1.403 . S
C597 C598 1.392 . S
C597 C601 1.495 1_455 S
C598 C597 1.392 . S
C598 C599 1.385 . S
C598 C600 1.478 . S
C599 H593 0.930 . S
C599 C595 1.400 . S
C599 C598 1.385 . S
C600 C598 1.478 . S
C600 C602 1.381 . S
C600 C606 1.383 . S
C601 C597 1.495 1_655 S
C601 H607 0.959 . S
C601 H608 0.961 . S
C601 H609 0.960 . S
C602 C600 1.381 . S
C602 C603 1.394 . S
C602 H610 0.930 . S
C603 C602 1.394 . S
C603 C604 1.383 . S
C603 H611 0.929 1_455 S
C604 C603 1.383 . S
C604 C605 1.377 . S
C605 H589 0.930 . S
C605 C604 1.377 . S
C605 C606 1.379 . S
C606 H590 0.931 . S
C606 C600 1.383 . S
C606 C605 1.379 . S
H607 C601 0.959 . S
H608 C601 0.961 . S
H609 C601 0.960 . S
H610 C602 0.930 . S
H611 C603 0.929 1_655 S
H612 C620 0.929 . S
H613 C622 0.930 . S
H614 C624 0.930 . S
H615 C627 0.929 . S
H616 C630 0.930 . S
H617 C632 0.960 . S
H618 C632 0.960 . S
H619 C632 0.960 . S
C620 H612 0.929 . S
C620 C621 1.377 . S
C620 C622 1.384 . S
C621 C620 1.377 . S
C621 C627 1.390 . S
C622 H613 0.930 . S
C622 C620 1.384 . S
C622 C623 1.372 . S
C623 C622 1.372 . S
C623 C624 1.400 . S
C623 C628 1.490 . S
C624 H614 0.930 . S
C624 C623 1.400 . S
C624 C627 1.386 . S
H625 C641 0.930 . S
H626 C642 0.931 . S
C627 H615 0.929 . S
C627 C621 1.390 . S
C627 C624 1.386 . S
C628 C623 1.490 . S
C628 C630 1.395 1_556 S
C628 C631 1.403 . S
H629 C635 0.930 . S
C630 H616 0.930 . S
C630 C628 1.395 1_554 S
C630 C633 1.403 . S
C631 C628 1.403 . S
C631 C632 1.524 . S
C631 C635 1.400 . S
C632 H617 0.960 . S
C632 H618 0.960 . S
C632 H619 0.960 . S
C632 C631 1.524 . S
C633 C630 1.403 . S
C633 C634 1.392 1_554 S
C633 C637 1.495 . S
C634 C633 1.392 1_556 S
C634 C635 1.385 . S
C634 C636 1.478 1_556 S
C635 H629 0.930 . S
C635 C631 1.400 . S
C635 C634 1.385 . S
C636 C634 1.478 1_554 S
C636 C638 1.381 . S
C636 C642 1.383 . S
C637 C633 1.495 . S
C637 H643 0.959 . S
C637 H644 0.961 . S
C637 H645 0.960 . S
C638 C636 1.381 . S
C638 C639 1.394 . S
C638 H646 0.930 1_554 S
C639 C638 1.394 . S
C639 C640 1.383 . S
C639 H647 0.929 . S
C640 C639 1.383 . S
C640 C641 1.377 . S
C641 H625 0.930 . S
C641 C640 1.377 . S
C641 C642 1.379 . S
C642 H626 0.931 . S
C642 C636 1.383 . S
C642 C641 1.379 . S
H643 C637 0.959 . S
H644 C637 0.961 . S
H645 C637 0.960 . S
H646 C638 0.930 1_556 S
H647 C639 0.929 . S
H648 C656 0.929 . S
H649 C658 0.930 . S
H650 C660 0.930 . S
H651 C663 0.929 . S
H652 C666 0.930 . S
H653 C668 0.960 . S
H654 C668 0.960 . S
H655 C668 0.960 . S
C656 H648 0.929 . S
C656 C657 1.377 . S
C656 C658 1.384 . S
C657 C656 1.377 . S
C657 C663 1.390 . S
C658 H649 0.930 . S
C658 C656 1.384 . S
C658 C659 1.372 . S
C659 C658 1.372 . S
C659 C660 1.400 . S
C659 C664 1.490 . S
C660 H650 0.930 . S
C660 C659 1.400 . S
C660 C663 1.386 . S
H661 C677 0.930 . S
H662 C678 0.931 . S
C663 H651 0.929 . S
C663 C657 1.390 . S
C663 C660 1.386 . S
C664 C659 1.490 . S
C664 C666 1.395 . S
C664 C667 1.403 . S
H665 C671 0.930 . S
C666 H652 0.930 . S
C666 C664 1.395 . S
C666 C669 1.403 . S
C667 C664 1.403 . S
C667 C668 1.524 . S
C667 C671 1.400 . S
C668 H653 0.960 . S
C668 H654 0.960 . S
C668 H655 0.960 . S
C668 C667 1.524 . S
C669 C666 1.403 . S
C669 C670 1.392 . S
C669 C673 1.495 . S
C670 C669 1.392 . S
C670 C671 1.385 . S
C670 C672 1.478 . S
C671 H665 0.930 . S
C671 C667 1.400 . S
C671 C670 1.385 . S
C672 C670 1.478 . S
C672 C674 1.381 . S
C672 C678 1.383 . S
C673 C669 1.495 . S
C673 H679 0.959 . S
C673 H680 0.961 . S
C673 H681 0.960 . S
C674 C672 1.381 . S
C674 C675 1.394 . S
C674 H682 0.930 . S
C675 C674 1.394 . S
C675 C676 1.383 . S
C675 H683 0.929 . S
C676 C675 1.383 . S
C676 C677 1.377 . S
C677 H661 0.930 . S
C677 C676 1.377 . S
C677 C678 1.379 . S
C678 H662 0.931 . S
C678 C672 1.383 . S
C678 C677 1.379 . S
H679 C673 0.959 . S
H680 C673 0.961 . S
H681 C673 0.960 . S
H682 C674 0.930 . S
H683 C675 0.929 . S
H684 C692 0.929 . S
H685 C694 0.930 . S
H686 C696 0.930 . S
H687 C699 0.929 . S
H688 C702 0.930 . S
H689 C704 0.960 . S
H690 C704 0.960 . S
H691 C704 0.960 . S
C692 H684 0.929 . S
C692 C693 1.377 . S
C692 C694 1.384 . S
C693 C692 1.377 . S
C693 C699 1.390 . S
C694 H685 0.930 . S
C694 C692 1.384 . S
C694 C695 1.372 . S
C695 C694 1.372 . S
C695 C696 1.400 . S
C695 C700 1.490 . S
C696 H686 0.930 . S
C696 C695 1.400 . S
C696 C699 1.386 . S
H697 C713 0.930 . S
H698 C714 0.931 . S
C699 H687 0.929 . S
C699 C693 1.390 . S
C699 C696 1.386 . S
C700 C695 1.490 . S
C700 C702 1.395 . S
C700 C703 1.403 . S
H701 C707 0.930 . S
C702 H688 0.930 . S
C702 C700 1.395 . S
C702 C705 1.403 . S
C703 C700 1.403 . S
C703 C704 1.524 . S
C703 C707 1.400 . S
C704 H689 0.960 . S
C704 H690 0.960 . S
C704 H691 0.960 . S
C704 C703 1.524 . S
C705 C702 1.403 . S
C705 C706 1.392 . S
C705 C709 1.495 . S
C706 C705 1.392 . S
C706 C707 1.385 . S
C706 C708 1.478 . S
C707 H701 0.930 . S
C707 C703 1.400 . S
C707 C706 1.385 . S
C708 C706 1.478 . S
C708 C710 1.381 . S
C708 C714 1.383 . S
C709 C705 1.495 . S
C709 H715 0.959 . S
C709 H716 0.961 . S
C709 H717 0.960 . S
C710 C708 1.381 . S
C710 C711 1.394 . S
C710 H718 0.930 . S
C711 C710 1.394 . S
C711 C712 1.383 . S
C711 H719 0.929 . S
C712 C711 1.383 . S
C712 C713 1.377 . S
C713 H697 0.930 . S
C713 C712 1.377 . S
C713 C714 1.379 . S
C714 H698 0.931 . S
C714 C708 1.383 . S
C714 C713 1.379 . S
H715 C709 0.959 . S
H716 C709 0.961 . S
H717 C709 0.960 . S
H718 C710 0.930 . S
H719 C711 0.929 . S
H720 C728 0.929 . S
H721 C730 0.930 . S
H722 C732 0.930 . S
H723 C735 0.929 . S
H724 C738 0.930 . S
H725 C740 0.960 . S
H726 C740 0.960 . S
H727 C740 0.960 . S
C728 H720 0.929 . S
C728 C729 1.377 . S
C728 C730 1.384 . S
C729 C728 1.377 . S
C729 C735 1.390 . S
C730 H721 0.930 . S
C730 C728 1.384 . S
C730 C731 1.372 . S
C731 C730 1.372 . S
C731 C732 1.400 . S
C731 C736 1.490 . S
C732 H722 0.930 . S
C732 C731 1.400 . S
C732 C735 1.386 . S
H733 C749 0.930 1_455 S
H734 C750 0.920 1_465 S
C735 H723 0.929 . S
C735 C729 1.390 . S
C735 C732 1.386 . S
C736 C731 1.490 . S
C736 C738 1.395 1_565 S
C736 C739 1.403 . S
H737 C743 0.930 . S
C738 H724 0.930 . S
C738 C736 1.395 1_545 S
C738 C741 1.403 . S
C739 C736 1.403 . S
C739 C740 1.524 . S
C739 C743 1.400 . S
C740 H725 0.960 . S
C740 H726 0.960 . S
C740 H727 0.960 . S
C740 C739 1.524 . S
C741 C738 1.403 . S
C741 C742 1.392 . S
C741 C745 1.495 . S
C742 C741 1.392 . S
C742 C743 1.385 1_545 S
C742 C744 1.478 . S
C743 H737 0.930 . S
C743 C739 1.400 . S
C743 C742 1.385 1_565 S
C744 C742 1.478 . S
C744 C746 1.381 . S
C744 C750 1.383 . S
C745 C741 1.495 . S
C745 H751 0.959 . S
C745 H752 0.961 . S
C745 H753 0.960 . S
C746 C744 1.381 . S
C746 C747 1.394 . S
C746 H754 0.930 . S
C747 C746 1.394 . S
C747 C748 1.383 . S
C747 H755 0.929 . S
C748 C747 1.383 . S
C748 C749 1.377 . S
C749 H733 0.930 1_655 S
C749 C748 1.377 . S
C749 C750 1.379 . S
C750 H734 0.920 1_645 S
C750 C744 1.383 . S
C750 C749 1.379 . S
H751 C745 0.959 . S
H752 C745 0.961 . S
H753 C745 0.960 . S
H754 C746 0.930 . S
H755 C747 0.929 . S
H756 C764 0.929 . S
H757 C766 0.930 . S
H758 C768 0.930 . S
H759 C771 0.929 . S
H760 C774 0.930 . S
H761 C776 0.960 . S
H762 C776 0.960 . S
H763 C776 0.960 . S
C764 H756 0.929 . S
C764 C765 1.377 . S
C764 C766 1.384 . S
C765 C764 1.377 . S
C765 C771 1.390 . S
C766 H757 0.930 . S
C766 C764 1.384 . S
C766 C767 1.372 . S
C767 C766 1.372 . S
C767 C768 1.400 . S
C767 C772 1.490 . S
C768 H758 0.930 . S
C768 C767 1.400 . S
C768 C771 1.386 . S
H769 C785 0.930 . S
H770 C786 0.931 . S
C771 H759 0.929 . S
C771 C765 1.390 . S
C771 C768 1.386 . S
C772 C767 1.490 . S
C772 C774 1.395 . S
C772 C775 1.403 . S
H773 C779 0.930 . S
C774 H760 0.930 . S
C774 C772 1.395 . S
C774 C777 1.403 . S
C775 C772 1.403 . S
C775 C776 1.524 . S
C775 C779 1.400 . S
C776 H761 0.960 . S
C776 H762 0.960 . S
C776 H763 0.960 . S
C776 C775 1.524 . S
C777 C774 1.403 . S
C777 C778 1.392 . S
C777 C781 1.495 . S
C778 C777 1.392 . S
C778 C779 1.385 . S
C778 C780 1.478 . S
C779 H773 0.930 . S
C779 C775 1.400 . S
C779 C778 1.385 . S
C780 C778 1.478 . S
C780 C782 1.381 . S
C780 C786 1.383 . S
C781 C777 1.495 . S
C781 H787 0.959 . S
C781 H788 0.961 . S
C781 H789 0.960 . S
C782 C780 1.381 . S
C782 C783 1.394 . S
C782 H790 0.930 . S
C783 C782 1.394 . S
C783 C784 1.383 . S
C783 H791 0.929 . S
C784 C783 1.383 . S
C784 C785 1.377 . S
C785 H769 0.930 . S
C785 C784 1.377 . S
C785 C786 1.379 . S
C786 H770 0.931 . S
C786 C780 1.383 . S
C786 C785 1.379 . S
H787 C781 0.959 . S
H788 C781 0.961 . S
H789 C781 0.960 . S
H790 C782 0.930 . S
H791 C783 0.929 . S
H792 C800 0.929 . S
H793 C802 0.930 . S
H794 C804 0.930 . S
H795 C807 0.929 . S
H796 C810 0.930 . S
H797 C812 0.960 . S
H798 C812 0.960 . S
H799 C812 0.960 . S
C800 H792 0.929 . S
C800 C801 1.377 . S
C800 C802 1.384 . S
C801 C800 1.377 . S
C801 C807 1.390 . S
C802 H793 0.930 . S
C802 C800 1.384 . S
C802 C803 1.372 . S
C803 C802 1.372 . S
C803 C804 1.400 . S
C803 C808 1.490 . S
C804 H794 0.930 . S
C804 C803 1.400 . S
C804 C807 1.386 . S
H805 C821 0.930 . S
H806 C822 0.931 . S
C807 H795 0.929 . S
C807 C801 1.390 . S
C807 C804 1.386 . S
C808 C803 1.490 . S
C808 C810 1.395 . S
C808 C811 1.403 . S
H809 C815 0.930 . S
C810 H796 0.930 . S
C810 C808 1.395 . S
C810 C813 1.403 . S
C811 C808 1.403 . S
C811 C812 1.524 . S
C811 C815 1.400 . S
C812 H797 0.960 . S
C812 H798 0.960 . S
C812 H799 0.960 . S
C812 C811 1.524 . S
C813 C810 1.403 . S
C813 C814 1.392 . S
C813 C817 1.495 . S
C814 C813 1.392 . S
C814 C815 1.385 . S
C814 C816 1.478 . S
C815 H809 0.930 . S
C815 C811 1.400 . S
C815 C814 1.385 . S
C816 C814 1.478 . S
C816 C818 1.381 . S
C816 C822 1.383 . S
C817 C813 1.495 . S
C817 H823 0.959 . S
C817 H824 0.961 . S
C817 H825 0.960 . S
C818 C816 1.381 . S
C818 C819 1.394 . S
C818 H826 0.930 . S
C819 C818 1.394 . S
C819 C820 1.383 . S
C819 H827 0.929 . S
C820 C819 1.383 . S
C820 C821 1.377 . S
C821 H805 0.930 . S
C821 C820 1.377 . S
C821 C822 1.379 . S
C822 H806 0.931 . S
C822 C816 1.383 . S
C822 C821 1.379 . S
H823 C817 0.959 . S
H824 C817 0.961 . S
H825 C817 0.960 . S
H826 C818 0.930 . S
H827 C819 0.929 . S
H828 C836 0.929 . S
H829 C838 0.930 . S
H830 C840 0.930 . S
H831 C843 0.929 . S
H832 C846 0.930 . S
H833 C848 0.960 . S
H834 C848 0.960 . S
H835 C848 0.960 . S
C836 H828 0.929 . S
C836 C837 1.377 . S
C836 C838 1.384 . S
C837 C836 1.377 . S
C837 C843 1.390 . S
C838 H829 0.930 . S
C838 C836 1.384 . S
C838 C839 1.372 . S
C839 C838 1.372 . S
C839 C840 1.400 . S
C839 C844 1.490 . S
C840 H830 0.930 . S
C840 C839 1.400 . S
C840 C843 1.386 . S
H841 C857 0.930 . S
H842 C858 0.931 . S
C843 H831 0.929 . S
C843 C837 1.390 . S
C843 C840 1.386 . S
C844 C839 1.490 . S
C844 C846 1.395 . S
C844 C847 1.403 . S
H845 C851 0.930 . S
C846 H832 0.930 . S
C846 C844 1.395 . S
C846 C849 1.403 . S
C847 C844 1.403 . S
C847 C848 1.524 . S
C847 C851 1.400 . S
C848 H833 0.960 . S
C848 H834 0.960 . S
C848 H835 0.960 . S
C848 C847 1.524 . S
C849 C846 1.403 . S
C849 C850 1.392 . S
C849 C853 1.495 . S
C850 C849 1.392 . S
C850 C851 1.385 . S
C850 C852 1.478 . S
C851 H845 0.930 . S
C851 C847 1.400 . S
C851 C850 1.385 . S
C852 C850 1.478 . S
C852 C854 1.381 . S
C852 C858 1.383 . S
C853 C849 1.495 . S
C853 H859 0.959 . S
C853 H860 0.961 . S
C853 H861 0.960 . S
C854 C852 1.381 . S
C854 C855 1.394 . S
C854 H862 0.930 . S
C855 C854 1.394 . S
C855 C856 1.383 . S
C855 H863 0.929 . S
C856 C855 1.383 . S
C856 C857 1.377 . S
C857 H841 0.930 . S
C857 C856 1.377 . S
C857 C858 1.379 . S
C858 H842 0.931 . S
C858 C852 1.383 . S
C858 C857 1.379 . S
H859 C853 0.959 . S
H860 C853 0.961 . S
H861 C853 0.960 . S
H862 C854 0.930 . S
H863 C855 0.929 . S
H864 C872 0.929 . S
H865 C874 0.930 . S
H866 C876 0.930 . S
H867 C879 0.929 . S
H868 C882 0.927 1_565 S
H869 C884 0.960 . S
H870 C884 0.960 . S
H871 C884 0.960 1_545 S
C872 H864 0.929 . S
C872 C873 1.377 . S
C872 C874 1.384 . S
C873 C872 1.377 . S
C873 C879 1.390 1_565 S
C874 H865 0.930 . S
C874 C872 1.384 . S
C874 C875 1.372 . S
C875 C874 1.372 . S
C875 C876 1.400 1_565 S
C875 C880 1.490 . S
C876 H866 0.930 . S
C876 C875 1.400 1_545 S
C876 C879 1.386 . S
H877 C893 0.930 . S
H878 C894 0.931 1_556 S
C879 H867 0.929 . S
C879 C873 1.390 1_545 S
C879 C876 1.386 . S
C880 C875 1.490 . S
C880 C882 1.393 1_566 S
C880 C883 1.403 . S
H881 C887 0.930 . S
C882 H868 0.927 1_545 S
C882 C880 1.393 1_544 S
C882 C885 1.408 . S
C883 C880 1.403 . S
C883 C884 1.524 . S
C883 C887 1.400 1_565 S
C884 H869 0.960 . S
C884 H870 0.960 . S
C884 H871 0.960 1_565 S
C884 C883 1.524 . S
C885 C882 1.408 . S
C885 C886 1.392 . S
C885 C889 1.495 . S
C886 C885 1.392 . S
C886 C887 1.385 1_554 S
C886 C888 1.478 . S
C887 H881 0.930 . S
C887 C883 1.400 1_545 S
C887 C886 1.385 1_556 S
C888 C886 1.478 . S
C888 C890 1.381 1_545 S
C888 C894 1.383 . S
C889 C885 1.495 . S
C889 H895 0.959 . S
C889 H896 0.961 . S
C889 H897 0.960 1_545 S
C890 C888 1.381 1_565 S
C890 C891 1.394 1_565 S
C890 H898 0.930 . S
C891 C890 1.394 1_545 S
C891 C892 1.383 . S
C891 H899 0.929 1_545 S
C892 C891 1.383 . S
C892 C893 1.377 . S
C893 H877 0.930 . S
C893 C892 1.377 . S
C893 C894 1.379 . S
C894 H878 0.931 1_554 S
C894 C888 1.383 . S
C894 C893 1.379 . S
H895 C889 0.959 . S
H896 C889 0.961 . S
H897 C889 0.960 1_565 S
H898 C890 0.930 . S
H899 C891 0.929 1_565 S
H900 C908 0.929 . S
H901 C910 0.930 . S
H902 C912 0.930 . S
H903 C915 0.929 . S
H904 C918 0.930 . S
H905 C920 0.960 . S
H906 C920 0.960 . S
H907 C920 0.960 . S
C908 H900 0.929 . S
C908 C909 1.377 . S
C908 C910 1.384 . S
C909 C908 1.377 . S
C909 C915 1.390 . S
C910 H901 0.930 . S
C910 C908 1.384 . S
C910 C911 1.372 . S
C911 C910 1.372 . S
C911 C912 1.400 . S
C911 C916 1.490 . S
C912 H902 0.930 . S
C912 C911 1.400 . S
C912 C915 1.386 . S
H913 C929 0.930 . S
H914 C930 0.931 . S
C915 H903 0.929 . S
C915 C909 1.390 . S
C915 C912 1.386 . S
C916 C911 1.490 . S
C916 C918 1.395 . S
C916 C919 1.403 . S
H917 C923 0.930 . S
C918 H904 0.930 . S
C918 C916 1.395 . S
C918 C921 1.403 . S
C919 C916 1.403 . S
C919 C920 1.524 . S
C919 C923 1.400 . S
C920 H905 0.960 . S
C920 H906 0.960 . S
C920 H907 0.960 . S
C920 C919 1.524 . S
C921 C918 1.403 . S
C921 C922 1.392 . S
C921 C925 1.495 . S
C922 C921 1.392 . S
C922 C923 1.385 . S
C922 C924 1.478 . S
C923 H917 0.930 . S
C923 C919 1.400 . S
C923 C922 1.385 . S
C924 C922 1.478 . S
C924 C926 1.381 . S
C924 C930 1.383 . S
C925 C921 1.495 . S
C925 H931 0.959 . S
C925 H932 0.961 . S
C925 H933 0.960 . S
C926 C924 1.381 . S
C926 C927 1.394 . S
C926 H934 0.930 . S
C927 C926 1.394 . S
C927 C928 1.383 . S
C927 H935 0.929 . S
C928 C927 1.383 . S
C928 C929 1.377 . S
C929 H913 0.930 . S
C929 C928 1.377 . S
C929 C930 1.379 . S
C930 H914 0.931 . S
C930 C924 1.383 . S
C930 C929 1.379 . S
H931 C925 0.959 . S
H932 C925 0.961 . S
H933 C925 0.960 . S
H934 C926 0.930 . S
H935 C927 0.929 . S
H936 C944 0.929 . S
H937 C946 0.930 . S
H938 C948 0.930 . S
H939 C951 0.929 . S
H940 C954 0.930 . S
H941 C956 0.960 . S
H942 C956 0.960 . S
H943 C956 0.960 . S
C944 H936 0.929 . S
C944 C945 1.377 . S
C944 C946 1.384 . S
C945 C944 1.377 . S
C945 C951 1.390 . S
C946 H937 0.930 . S
C946 C944 1.384 . S
C946 C947 1.372 . S
C947 C946 1.372 . S
C947 C948 1.400 . S
C947 C952 1.490 . S
C948 H938 0.930 . S
C948 C947 1.400 . S
C948 C951 1.386 . S
H949 C965 0.930 . S
H950 C966 0.931 . S
C951 H939 0.929 . S
C951 C945 1.390 . S
C951 C948 1.386 . S
C952 C947 1.490 . S
C952 C954 1.395 . S
C952 C955 1.403 . S
H953 C959 0.930 . S
C954 H940 0.930 . S
C954 C952 1.395 . S
C954 C957 1.403 . S
C955 C952 1.403 . S
C955 C956 1.524 . S
C955 C959 1.400 . S
C956 H941 0.960 . S
C956 H942 0.960 . S
C956 H943 0.960 . S
C956 C955 1.524 . S
C957 C954 1.403 . S
C957 C958 1.392 . S
C957 C961 1.495 . S
C958 C957 1.392 . S
C958 C959 1.385 . S
C958 C960 1.478 . S
C959 H953 0.930 . S
C959 C955 1.400 . S
C959 C958 1.385 . S
C960 C958 1.478 . S
C960 C962 1.381 . S
C960 C966 1.383 . S
C961 C957 1.495 . S
C961 H967 0.959 . S
C961 H968 0.961 . S
C961 H969 0.960 . S
C962 C960 1.381 . S
C962 C963 1.394 . S
C962 H970 0.930 . S
C963 C962 1.394 . S
C963 C964 1.383 . S
C963 H971 0.929 . S
C964 C963 1.383 . S
C964 C965 1.377 . S
C965 H949 0.930 . S
C965 C964 1.377 . S
C965 C966 1.379 . S
C966 H950 0.931 . S
C966 C960 1.383 . S
C966 C965 1.379 . S
H967 C961 0.959 . S
H968 C961 0.961 . S
H969 C961 0.960 . S
H970 C962 0.930 . S
H971 C963 0.929 . S
H972 C980 0.929 . S
H973 C982 0.930 . S
H974 C984 0.930 . S
H975 C987 0.929 . S
H976 C990 0.930 . S
H977 C992 0.960 . S
H978 C992 0.960 . S
H979 C992 0.960 . S
C980 H972 0.929 . S
C980 C981 1.377 . S
C980 C982 1.384 . S
C981 C980 1.377 . S
C981 C987 1.390 . S
C982 H973 0.930 . S
C982 C980 1.384 . S
C982 C983 1.372 . S
C983 C982 1.372 . S
C983 C984 1.400 . S
C983 C988 1.490 . S
C984 H974 0.930 . S
C984 C983 1.400 . S
C984 C987 1.386 . S
H985 C1001 0.930 . S
H986 C1002 0.931 . S
C987 H975 0.929 . S
C987 C981 1.390 . S
C987 C984 1.386 . S
C988 C983 1.490 . S
C988 C990 1.395 . S
C988 C991 1.403 . S
H989 C995 0.930 . S
C990 H976 0.930 . S
C990 C988 1.395 . S
C990 C993 1.403 . S
C991 C988 1.403 . S
C991 C992 1.524 . S
C991 C995 1.400 . S
C992 H977 0.960 . S
C992 H978 0.960 . S
C992 H979 0.960 . S
C992 C991 1.524 . S
C993 C990 1.403 . S
C993 C994 1.392 . S
C993 C997 1.495 . S
C994 C993 1.392 . S
C994 C995 1.385 . S
C994 C996 1.478 . S
C995 H989 0.930 . S
C995 C991 1.400 . S
C995 C994 1.385 . S
C996 C994 1.478 . S
C996 C998 1.381 . S
C996 C1002 1.383 . S
C997 C993 1.495 . S
C997 H1003 0.959 . S
C997 H1004 0.961 . S
C997 H1005 0.960 . S
C998 C996 1.381 . S
C998 C999 1.394 . S
C998 H1006 0.930 . S
C999 C998 1.394 . S
C999 C1000 1.383 . S
C999 H1007 0.929 . S
C1000 C999 1.383 . S
C1000 C1001 1.377 . S
C1001 H985 0.930 . S
C1001 C1000 1.377 . S
C1001 C1002 1.379 . S
C1002 H986 0.931 . S
C1002 C996 1.383 . S
C1002 C1001 1.379 . S
H1003 C997 0.959 . S
H1004 C997 0.961 . S
H1005 C997 0.960 . S
H1006 C998 0.930 . S
H1007 C999 0.929 . S
H1008 C1016 0.929 . S
H1009 C1018 0.930 . S
H1010 C1020 0.930 . S
H1011 C1023 0.929 . S
H1012 C1026 0.930 . S
H1013 C1028 0.960 . S
H1014 C1028 0.960 . S
H1015 C1028 0.960 . S
C1016 H1008 0.929 . S
C1016 C1017 1.377 . S
C1016 C1018 1.384 . S
C1017 C1016 1.377 . S
C1017 C1023 1.390 . S
C1018 H1009 0.930 . S
C1018 C1016 1.384 . S
C1018 C1019 1.372 . S
C1019 C1018 1.372 . S
C1019 C1020 1.400 . S
C1019 C1024 1.490 . S
C1020 H1010 0.930 . S
C1020 C1019 1.400 . S
C1020 C1023 1.386 . S
H1021 C1037 0.930 . S
H1022 C1038 0.931 . S
C1023 H1011 0.929 . S
C1023 C1017 1.390 . S
C1023 C1020 1.386 . S
C1024 C1019 1.490 . S
C1024 C1026 1.395 . S
C1024 C1027 1.403 . S
H1025 C1031 0.930 . S
C1026 H1012 0.930 . S
C1026 C1024 1.395 . S
C1026 C1029 1.403 . S
C1027 C1024 1.403 . S
C1027 C1028 1.524 . S
C1027 C1031 1.400 . S
C1028 H1013 0.960 . S
C1028 H1014 0.960 . S
C1028 H1015 0.960 . S
C1028 C1027 1.524 . S
C1029 C1026 1.403 . S
C1029 C1030 1.392 . S
C1029 C1033 1.495 . S
C1030 C1029 1.392 . S
C1030 C1031 1.385 . S
C1030 C1032 1.478 . S
C1031 H1025 0.930 . S
C1031 C1027 1.400 . S
C1031 C1030 1.385 . S
C1032 C1030 1.478 . S
C1032 C1034 1.381 . S
C1032 C1038 1.383 . S
C1033 C1029 1.495 . S
C1033 H1039 0.959 1_556 S
C1033 H1040 0.961 1_556 S
C1033 H1041 0.960 1_655 S
C1034 C1032 1.381 . S
C1034 C1035 1.394 1_655 S
C1034 H1042 0.930 1_655 S
C1035 C1034 1.394 1_455 S
C1035 C1036 1.383 1_455 S
C1035 H1043 0.929 . S
C1036 C1035 1.383 1_655 S
C1036 C1037 1.377 . S
C1037 H1021 0.930 . S
C1037 C1036 1.377 . S
C1037 C1038 1.379 . S
C1038 H1022 0.931 . S
C1038 C1032 1.383 . S
C1038 C1037 1.379 . S
H1039 C1033 0.959 1_554 S
H1040 C1033 0.961 1_554 S
H1041 C1033 0.960 1_455 S
H1042 C1034 0.930 1_455 S
H1043 C1035 0.929 . S
H1044 C1052 0.929 . S
H1045 C1054 0.930 . S
H1046 C1056 0.930 . S
H1047 C1059 0.929 . S
H1048 C1062 0.930 . S
H1049 C1064 0.960 . S
H1050 C1064 0.960 . S
H1051 C1064 0.960 . S
C1052 H1044 0.929 . S
C1052 C1053 1.377 . S
C1052 C1054 1.384 . S
C1053 C1052 1.377 . S
C1053 C1059 1.390 . S
C1054 H1045 0.930 . S
C1054 C1052 1.384 . S
C1054 C1055 1.372 . S
C1055 C1054 1.372 . S
C1055 C1056 1.400 . S
C1055 C1060 1.490 . S
C1056 H1046 0.930 . S
C1056 C1055 1.400 . S
C1056 C1059 1.386 . S
H1057 C1073 0.930 . S
H1058 C1074 0.931 . S
C1059 H1047 0.929 . S
C1059 C1053 1.390 . S
C1059 C1056 1.386 . S
C1060 C1055 1.490 . S
C1060 C1062 1.395 . S
C1060 C1063 1.403 . S
H1061 C1067 0.930 . S
C1062 H1048 0.930 . S
C1062 C1060 1.395 . S
C1062 C1065 1.403 . S
C1063 C1060 1.403 . S
C1063 C1064 1.524 . S
C1063 C1067 1.400 . S
C1064 H1049 0.960 . S
C1064 H1050 0.960 . S
C1064 H1051 0.960 . S
C1064 C1063 1.524 . S
C1065 C1062 1.403 . S
C1065 C1066 1.392 . S
C1065 C1069 1.495 . S
C1066 C1065 1.392 . S
C1066 C1067 1.385 . S
C1066 C1068 1.478 . S
C1067 H1061 0.930 . S
C1067 C1063 1.400 . S
C1067 C1066 1.385 . S
C1068 C1066 1.478 . S
C1068 C1070 1.381 . S
C1068 C1074 1.383 . S
C1069 C1065 1.495 . S
C1069 H1075 0.959 . S
C1069 H1076 0.961 . S
C1069 H1077 0.960 . S
C1070 C1068 1.381 . S
C1070 C1071 1.394 . S
C1070 H1078 0.930 . S
C1071 C1070 1.394 . S
C1071 C1072 1.383 . S
C1071 H1079 0.929 . S
C1072 C1071 1.383 . S
C1072 C1073 1.377 . S
C1073 H1057 0.930 . S
C1073 C1072 1.377 . S
C1073 C1074 1.379 . S
C1074 H1058 0.931 . S
C1074 C1068 1.383 . S
C1074 C1073 1.379 . S
H1075 C1069 0.959 . S
H1076 C1069 0.961 . S
H1077 C1069 0.960 . S
H1078 C1070 0.930 . S
H1079 C1071 0.929 . S
H1080 C1088 0.929 . S
H1081 C1090 0.930 . S
H1082 C1092 0.930 . S
H1083 C1095 0.929 . S
H1084 C1098 0.930 . S
H1085 C1100 0.960 . S
H1086 C1100 0.960 . S
H1087 C1100 0.960 . S
C1088 H1080 0.929 . S
C1088 C1089 1.377 . S
C1088 C1090 1.384 . S
C1089 C1088 1.377 . S
C1089 C1095 1.390 . S
C1090 H1081 0.930 . S
C1090 C1088 1.384 . S
C1090 C1091 1.372 . S
C1091 C1090 1.372 . S
C1091 C1092 1.400 . S
C1091 C1096 1.490 . S
C1092 H1082 0.930 . S
C1092 C1091 1.400 . S
C1092 C1095 1.386 . S
H1093 C1109 0.930 . S
H1094 C1110 0.931 . S
C1095 H1083 0.929 . S
C1095 C1089 1.390 . S
C1095 C1092 1.386 . S
C1096 C1091 1.490 . S
C1096 C1098 1.395 . S
C1096 C1099 1.403 . S
H1097 C1103 0.930 . S
C1098 H1084 0.930 . S
C1098 C1096 1.395 . S
C1098 C1101 1.403 . S
C1099 C1096 1.403 . S
C1099 C1100 1.524 . S
C1099 C1103 1.400 . S
C1100 H1085 0.960 . S
C1100 H1086 0.960 . S
C1100 H1087 0.960 . S
C1100 C1099 1.524 . S
C1101 C1098 1.403 . S
C1101 C1102 1.392 . S
C1101 C1105 1.495 . S
C1102 C1101 1.392 . S
C1102 C1103 1.385 . S
C1102 C1104 1.478 . S
C1103 H1097 0.930 . S
C1103 C1099 1.400 . S
C1103 C1102 1.385 . S
C1104 C1102 1.478 . S
C1104 C1106 1.381 . S
C1104 C1110 1.383 . S
C1105 C1101 1.495 . S
C1105 H1111 0.959 . S
C1105 H1112 0.961 . S
C1105 H1113 0.960 . S
C1106 C1104 1.381 . S
C1106 C1107 1.394 . S
C1106 H1114 0.930 . S
C1107 C1106 1.394 . S
C1107 C1108 1.383 . S
C1107 H1115 0.929 . S
C1108 C1107 1.383 . S
C1108 C1109 1.377 . S
C1109 H1093 0.930 . S
C1109 C1108 1.377 . S
C1109 C1110 1.379 . S
C1110 H1094 0.931 . S
C1110 C1104 1.383 . S
C1110 C1109 1.379 . S
H1111 C1105 0.959 . S
H1112 C1105 0.961 . S
H1113 C1105 0.960 . S
H1114 C1106 0.930 . S
H1115 C1107 0.929 . S
H1116 C1124 0.929 . S
H1117 C1126 0.930 . S
H1118 C1128 0.930 . S
H1119 C1131 0.929 . S
H1120 C1134 0.930 . S
H1121 C1136 0.960 . S
H1122 C1136 0.960 . S
H1123 C1136 0.960 . S
C1124 H1116 0.929 . S
C1124 C1125 1.377 . S
C1124 C1126 1.384 . S
C1125 C1124 1.377 . S
C1125 C1131 1.390 . S
C1126 H1117 0.930 . S
C1126 C1124 1.384 . S
C1126 C1127 1.372 . S
C1127 C1126 1.372 . S
C1127 C1128 1.400 . S
C1127 C1132 1.490 . S
C1128 H1118 0.930 . S
C1128 C1127 1.400 . S
C1128 C1131 1.386 . S
H1129 C1145 0.930 . S
H1130 C1146 0.931 . S
C1131 H1119 0.929 . S
C1131 C1125 1.390 . S
C1131 C1128 1.386 . S
C1132 C1127 1.490 . S
C1132 C1134 1.395 . S
C1132 C1135 1.403 . S
H1133 C1139 0.930 . S
C1134 H1120 0.930 . S
C1134 C1132 1.395 . S
C1134 C1137 1.403 . S
C1135 C1132 1.403 . S
C1135 C1136 1.524 . S
C1135 C1139 1.400 . S
C1136 H1121 0.960 . S
C1136 H1122 0.960 . S
C1136 H1123 0.960 . S
C1136 C1135 1.524 . S
C1137 C1134 1.403 . S
C1137 C1138 1.392 . S
C1137 C1141 1.495 . S
C1138 C1137 1.392 . S
C1138 C1139 1.385 . S
C1138 C1140 1.478 . S
C1139 H1133 0.930 . S
C1139 C1135 1.400 . S
C1139 C1138 1.385 . S
C1140 C1138 1.478 . S
C1140 C1142 1.381 . S
C1140 C1146 1.383 . S
C1141 C1137 1.495 . S
C1141 H1147 0.959 . S
C1141 H1148 0.961 . S
C1141 H1149 0.960 . S
C1142 C1140 1.381 . S
C1142 C1143 1.394 . S
C1142 H1150 0.930 . S
C1143 C1142 1.394 . S
C1143 C1144 1.383 . S
C1143 H1151 0.929 . S
C1144 C1143 1.383 . S
C1144 C1145 1.377 . S
C1145 H1129 0.930 . S
C1145 C1144 1.377 . S
C1145 C1146 1.379 . S
C1146 H1130 0.931 . S
C1146 C1140 1.383 . S
C1146 C1145 1.379 . S
H1147 C1141 0.959 . S
H1148 C1141 0.961 . S
H1149 C1141 0.960 . S
H1150 C1142 0.930 . S
H1151 C1143 0.929 . S
C297 C6 2.647 . S
C316 C152 2.659 . S
C333 C21 2.938 . S
C352 C194 2.951 1_556 S
C388 C224 0.328 . S
C369 C49 0.458 . S
C405 C68 0.770 . S
C424 C258 0.815 . S
C460 C215 2.681 . S
C441 C2 2.667 . S
C496 C169 1.611 . S
C477 C30 1.423 . S
C532 C262 0.949 1_556 S
C513 C40 0.954 . S
C568 C228 1.018 . S
C549 C63 1.011 . S
C585 C11 2.024 . S
C604 C283 2.237 . S
C640 C190 1.241 . S
C621 C44 1.234 . S
C657 C59 0.758 . S
C676 C165 0.749 . S
C693 C25 2.484 . S
C712 C249 2.501 . S
C748 C181 2.886 . S
C729 C82 2.872 . S
C765 C101 2.596 . S
C784 C203 2.602 . S
C801 C125 0.727 . S
C820 C233 0.746 . S
C837 C144 0.631 . S
C856 C267 0.474 . S
C873 C87 1.470 . S
C892 C186 1.640 . S
C928 C160 2.643 . S
C909 C97 2.629 . S
C964 C271 0.939 . S
C945 C120 0.932 . S
C1000 C237 1.074 . S
C981 C135 1.063 . S
C1017 C78 2.623 . S
C1036 C254 2.634 1_556 S
C1072 C199 0.711 . S
C1053 C116 0.722 . S
C1108 C156 1.225 . S
C1089 C139 1.208 . S
C1125 C106 2.080 . S
C1144 C220 2.195 . S
