# Generated by pormake.
# Topology zzz, (3,6)-cn, num edge types: 1
# Building blocks:
#     Node 0, Type 0, BuildingBlock: PAMTOO_clean_linker_0, # of connection points: 3
#     Node 1, Type 0, BuildingBlock: PAMTOO_clean_linker_0, # of connection points: 3
#     Node 2, Type 0, BuildingBlock: PAMTOO_clean_linker_0, # of connection points: 3
#     Node 3, Type 0, BuildingBlock: PAMTOO_clean_linker_0, # of connection points: 3
#     Node 4, Type 0, BuildingBlock: PAMTOO_clean_linker_0, # of connection points: 3
#     Node 5, Type 0, BuildingBlock: PAMTOO_clean_linker_0, # of connection points: 3
#     Node 6, Type 0, BuildingBlock: PAMTOO_clean_linker_0, # of connection points: 3
#     Node 7, Type 0, BuildingBlock: PAMTOO_clean_linker_0, # of connection points: 3
#     Node 8, Type 1, BuildingBlock: KUMBUR_clean_sbu_1, # of connection points: 6
#     Node 9, Type 1, BuildingBlock: KUMBUR_clean_sbu_1, # of connection points: 6
#     Node 10, Type 1, BuildingBlock: KUMBUR_clean_sbu_1, # of connection points: 6
#     Node 11, Type 1, BuildingBlock: KUMBUR_clean_sbu_1, # of connection points: 6
#     Edge 12, Type (0, 1), BuildingBlock: OJICUG_clean_linker_0, # of connection points: 2
#     Edge 13, Type (0, 1), BuildingBlock: OJICUG_clean_linker_0, # of connection points: 2
#     Edge 14, Type (0, 1), BuildingBlock: OJICUG_clean_linker_0, # of connection points: 2
#     Edge 15, Type (0, 1), BuildingBlock: OJICUG_clean_linker_0, # of connection points: 2
#     Edge 16, Type (0, 1), BuildingBlock: OJICUG_clean_linker_0, # of connection points: 2
#     Edge 17, Type (0, 1), BuildingBlock: OJICUG_clean_linker_0, # of connection points: 2
#     Edge 18, Type (0, 1), BuildingBlock: OJICUG_clean_linker_0, # of connection points: 2
#     Edge 19, Type (0, 1), BuildingBlock: OJICUG_clean_linker_0, # of connection points: 2
#     Edge 20, Type (0, 1), BuildingBlock: OJICUG_clean_linker_0, # of connection points: 2
#     Edge 21, Type (0, 1), BuildingBlock: OJICUG_clean_linker_0, # of connection points: 2
#     Edge 22, Type (0, 1), BuildingBlock: OJICUG_clean_linker_0, # of connection points: 2
#     Edge 23, Type (0, 1), BuildingBlock: OJICUG_clean_linker_0, # of connection points: 2
#     Edge 24, Type (0, 1), BuildingBlock: OJICUG_clean_linker_0, # of connection points: 2
#     Edge 25, Type (0, 1), BuildingBlock: OJICUG_clean_linker_0, # of connection points: 2
#     Edge 26, Type (0, 1), BuildingBlock: OJICUG_clean_linker_0, # of connection points: 2
#     Edge 27, Type (0, 1), BuildingBlock: OJICUG_clean_linker_0, # of connection points: 2
#     Edge 28, Type (0, 1), BuildingBlock: OJICUG_clean_linker_0, # of connection points: 2
#     Edge 29, Type (0, 1), BuildingBlock: OJICUG_clean_linker_0, # of connection points: 2
#     Edge 30, Type (0, 1), BuildingBlock: OJICUG_clean_linker_0, # of connection points: 2
#     Edge 31, Type (0, 1), BuildingBlock: OJICUG_clean_linker_0, # of connection points: 2
#     Edge 32, Type (0, 1), BuildingBlock: OJICUG_clean_linker_0, # of connection points: 2
#     Edge 33, Type (0, 1), BuildingBlock: OJICUG_clean_linker_0, # of connection points: 2
#     Edge 34, Type (0, 1), BuildingBlock: OJICUG_clean_linker_0, # of connection points: 2
#     Edge 35, Type (0, 1), BuildingBlock: OJICUG_clean_linker_0, # of connection points: 2
# Relax obj value: 0.241
# Max RMSD: 0.126
# Mean RMSD: 0.083
data_MOF--net-zzz--node1-KUMBUR_clean_sbu_1--node2-PAMTOO_clean_linker_0--edge1-OJICUG_clean_linker_0
_symmetry_space_group_name_H-M    P1
_symmetry_Int_Tables_number       1
_symmetry_cell_setting            triclinic
loop_
_symmetry_equiv_pos_as_xyz
'x, y, z'
_cell_length_a     36.579092
_cell_length_b     36.636786
_cell_length_c     11.56679
_cell_angle_alpha  89.873408
_cell_angle_beta   90.00717
_cell_angle_gamma 90.29529
loop_
_atom_site_label
_atom_site_type_symbol
_atom_site_fract_x
_atom_site_fract_y
_atom_site_fract_z
_atom_type_partial_charge
H0 H 0.86527 0.58601 0.26394 0.0
H1 H 0.75244 0.59745 0.16738 0.0
H2 H 0.78178 0.52814 0.45318 0.0
H3 H 0.71423 0.49719 0.23757 0.0
C4 C 0.71354 0.52573 0.20505 0.0
O5 O 0.72644 0.54819 0.29605 0.0
H6 H 0.73322 0.52648 0.13178 0.0
C7 C 0.83658 0.58077 0.28058 0.0
C8 C 0.82742 0.55982 0.37903 0.0
C9 C 0.81011 0.59145 0.19801 0.0
C10 C 0.77316 0.5865 0.22453 0.0
C11 C 0.76243 0.56031 0.30467 0.0
C12 C 0.78977 0.54707 0.38572 0.0
H13 H 0.96411 0.85466 0.31187 0.0
H14 H 0.96386 0.74527 0.17755 0.0
H15 H 0.04104 0.77603 0.44038 0.0
H16 H 0.06819 0.71852 0.19268 0.0
C17 C 0.03862 0.71384 0.17618 0.0
O18 O 0.01993 0.72253 0.27971 0.0
H19 H 0.0312 0.73367 0.10714 0.0
C20 C 0.97425 0.82704 0.3131 0.0
C21 C 1.00114 0.81853 0.39635 0.0
C22 C 0.96305 0.80217 0.22594 0.0
C23 C 0.97457 0.76588 0.23527 0.0
C24 C 1.00485 0.75659 0.30161 0.0
C25 C 0.01842 0.78315 0.38458 0.0
H26 H 0.71736 0.0937 0.41983 0.0
H27 H 0.81018 0.08158 0.19569 0.0
H28 H 0.77814 0.99331 0.42195 0.0
H29 H 0.87379 1.00163 0.33293 0.0
C30 C 0.8643 0.0217 0.26832 0.0
O31 O 0.82656 1.01604 0.25192 0.0
H32 H 0.86914 0.04889 0.30843 0.0
C33 C 0.7409 0.07802 0.39259 0.0
C34 C 0.74496 0.0427 0.43729 0.0
C35 C 0.76362 0.09198 0.30471 0.0
C36 C 0.79292 0.07107 0.26442 0.0
C37 C 0.79934 0.03585 0.30601 0.0
C38 C 0.7747 0.02113 0.39241 0.0
H39 H 0.4635 0.70518 0.3447 0.0
H40 H 0.47837 0.80519 0.15822 0.0
H41 H 0.55217 0.77818 0.43622 0.0
H42 H 0.51838 0.87576 0.35195 0.0
C43 C 0.51596 0.86403 0.26428 0.0
O44 O 0.53389 0.82972 0.26452 0.0
H45 H 0.48609 0.8601 0.25202 0.0
C46 C 0.47807 0.73085 0.33504 0.0
C47 C 0.50874 0.73753 0.40546 0.0
C48 C 0.46688 0.75514 0.2478 0.0
C49 C 0.4867 0.78706 0.22735 0.0
C50 C 0.51666 0.79701 0.29457 0.0
C51 C 0.52833 0.77168 0.38475 0.0
H52 H 0.2006 0.45251 0.1913 0.0
H53 H 0.31333 0.45395 0.29738 0.0
H54 H 0.27445 0.53292 0.05187 0.0
H55 H 0.31859 0.52575 0.37196 0.0
C56 C 0.33847 0.53363 0.30332 0.0
O57 O 0.33134 0.51327 0.202 0.0
H58 H 0.33246 0.56261 0.28238 0.0
C59 C 0.22812 0.46317 0.18346 0.0
C60 C 0.23434 0.49073 0.10026 0.0
C61 C 0.25525 0.45233 0.26369 0.0
C62 C 0.29116 0.46457 0.24553 0.0
C63 C 0.29802 0.49607 0.1817 0.0
C64 C 0.26936 0.50932 0.10606 0.0
H65 H 0.10092 0.19015 0.2176 0.0
H66 H 0.10403 0.30305 0.31799 0.0
H67 H 0.02925 0.26726 0.05398 0.0
H68 H 0.03231 0.31346 0.37613 0.0
C69 C 0.02695 0.33302 0.30444 0.0
O70 O 0.04849 0.3238 0.20711 0.0
H71 H 0.99797 0.32836 0.27946 0.0
C72 C 0.09234 0.21811 0.20522 0.0
C73 C 0.06753 0.22528 0.1147 0.0
C74 C 0.10275 0.24509 0.28643 0.0
C75 C 0.09341 0.2814 0.26374 0.0
C76 C 0.06398 0.28954 0.19232 0.0
C77 C 0.05099 0.26123 0.11439 0.0
H78 H 0.3528 0.09934 0.12426 0.0
H79 H 0.24406 0.09228 0.2644 0.0
H80 H 0.29246 0.99859 0.10273 0.0
H81 H 0.24477 0.03279 0.39938 0.0
C82 C 0.22759 1.01528 0.3423 0.0
O83 O 0.23298 0.02517 0.2256 0.0
H84 H 0.23831 0.98717 0.35351 0.0
C85 C 0.32773 0.08419 0.13895 0.0
C86 C 0.32615 0.04819 0.09749 0.0
C87 C 0.30028 0.09886 0.21141 0.0
C88 C 0.26663 0.08038 0.21744 0.0
C89 C 0.26379 0.04367 0.18714 0.0
C90 C 0.29391 0.02715 0.12598 0.0
H91 H 0.47052 0.3572 0.18973 0.0
H92 H 0.47209 0.24462 0.29462 0.0
H93 H 0.5492 0.28405 0.04252 0.0
H94 H 0.54686 0.2395 0.36001 0.0
C95 C 0.55042 0.21787 0.29353 0.0
O96 O 0.53032 0.22687 0.19292 0.0
H97 H 0.57992 0.21892 0.27143 0.0
C98 C 0.48099 0.32985 0.18064 0.0
C99 C 0.50781 0.32386 0.09534 0.0
C100 C 0.47074 0.30248 0.26122 0.0
C101 C 0.48245 0.26675 0.24159 0.0
C102 C 0.51345 0.26023 0.17563 0.0
C103 C 0.5262 0.28897 0.09905 0.0
Tb104 Tb 1.00316 0.03916 0.6498 0.0
C105 C 0.12807 0.05018 0.99794 0.0
N106 N 0.12455 0.02778 0.90487 0.0
C107 C 0.18772 0.03798 0.85694 0.0
C108 C 0.16134 0.06827 0.02201 0.0
C109 C 0.15405 0.02097 0.8357 0.0
C110 C 0.19134 0.0619 0.95004 0.0
C111 C 0.09993 0.07954 0.16302 0.0
C112 C 0.09779 0.0557 0.06754 0.0
C113 C 0.1328 0.09809 0.18616 0.0
C114 C 0.16347 0.09234 0.11618 0.0
Tb115 Tb 0.06804 1.0016 0.87843 0.0
N116 N 0.06601 0.03831 0.03974 0.0
C117 C 0.06897 0.08408 0.23222 0.0
C118 C 0.03655 0.0409 0.11186 0.0
C119 C 0.03728 0.06433 0.20718 0.0
H120 H 0.15218 1.00172 0.76556 0.0
H121 H 1.01358 0.06654 0.2627 0.0
H122 H 0.91891 0.04465 0.76059 0.0
H123 H 0.05325 0.97064 0.26661 0.0
H124 H 1.01283 0.02408 0.10004 0.0
H125 H 0.06951 0.10207 0.30647 0.0
H126 H 0.05557 1.01532 0.42382 0.0
H127 H 0.21092 0.03247 0.8017 0.0
H128 H 0.13483 0.11676 0.25844 0.0
H129 H 0.18869 0.10672 0.13541 0.0
H130 H 0.86016 1.01244 0.73806 0.0
H131 H 0.21743 0.07512 0.96594 0.0
H132 H 0.99753 0.93323 0.23644 0.0
N133 N 0.94557 1.01507 0.62671 0.0
C134 C 0.94139 0.99053 0.53964 0.0
C135 C 0.88295 1.00566 0.68257 0.0
C136 C 0.90848 0.97092 0.52512 0.0
C137 C 0.91654 0.0236 0.69592 0.0
C138 C 0.87904 0.97882 0.59791 0.0
N139 N 1.00281 1.00204 0.48962 0.0
C140 C 0.0316 0.99853 0.4154 0.0
C141 C 0.96829 0.95807 0.37853 0.0
C142 C 0.9709 0.98409 0.46773 0.0
C143 C 0.99848 0.95284 0.30643 0.0
C144 C 0.03007 0.97364 0.32387 0.0
H145 H 0.85314 0.96464 0.58875 0.0
H146 H 0.88126 0.92827 0.42749 0.0
H147 H 0.9337 0.917 0.29972 0.0
O148 O 1.01718 0.07719 0.52158 0.0
O149 O 1.00095 0.97826 0.67869 0.0
O150 O 0.05823 0.96181 0.73458 0.0
O151 O 0.9633 0.0768 0.59467 0.0
O152 O 0.06346 0.04524 0.61196 0.0
O153 O 0.08944 0.99607 0.70152 0.0
O154 O 0.05884 0.96657 1.01883 0.0
O155 O 0.07106 0.0622 0.84613 0.0
O156 O 1.01275 0.07722 0.7983 0.0
O157 O 0.10862 0.96312 0.92119 0.0
O158 O 1.0075 0.99395 0.91136 0.0
O159 O 0.98192 0.0441 0.82692 0.0
C160 C 0.02737 0.95373 0.68101 0.0
C161 C 0.99458 0.1333 0.58601 0.0
C162 C 0.04058 0.18036 0.62682 0.0
C163 C 1.01724 0.195 0.71146 0.0
C164 C 0.97132 0.14902 0.66858 0.0
C165 C 0.98254 0.17991 0.72985 0.0
C166 C 0.0283 0.15005 0.56289 0.0
C167 C 0.09035 0.02121 0.62022 0.0
C168 C 0.98777 0.09617 0.54064 0.0
C169 C 0.90615 0.94398 0.43916 0.0
C170 C 0.93599 0.93761 0.3661 0.0
C171 C 0.04419 0.08625 0.84687 0.0
C172 C 0.07849 0.90823 0.96511 0.0
C173 C 0.03253 0.86112 0.92602 0.0
C174 C 0.06099 0.83516 0.92158 0.0
C175 C 0.10614 0.88204 0.96217 0.0
C176 C 0.04237 0.89794 0.93886 0.0
C177 C 0.09744 0.84578 0.93726 0.0
C178 C 0.98025 1.01773 0.90393 0.0
C179 C 0.0869 0.94652 0.99278 0.0
H180 H 0.02549 0.21822 0.76305 0.0
H181 H 0.94516 0.13666 0.68925 0.0
H182 H 0.96475 0.19151 0.79472 0.0
H183 H 0.0451 0.13885 0.49469 0.0
H184 H 0.05542 0.8063 0.9129 0.0
H185 H 0.1343 0.88963 0.97907 0.0
H186 H 0.02155 0.9187 0.93421 0.0
H187 H 0.11884 0.82549 0.93537 0.0
Tb188 Tb 0.54855 0.07353 0.86511 0.0
C189 C 0.55346 0.93316 0.52522 0.0
N190 N 0.55012 0.96916 0.50177 0.0
C191 C 0.58978 0.96281 0.338 0.0
C192 C 0.5767 0.91065 0.4602 0.0
C193 C 0.56639 0.98401 0.40618 0.0
C194 C 0.59569 0.92616 0.36691 0.0
C195 C 0.53003 0.88074 0.62889 0.0
C196 C 0.53098 0.9186 0.60871 0.0
C197 C 0.55502 0.8582 0.57077 0.0
C198 C 0.57865 0.87323 0.48715 0.0
Tb199 Tb 0.51923 1.00241 0.63649 0.0
N200 N 0.50791 0.94155 0.66354 0.0
C201 C 0.50326 0.86681 0.70376 0.0
C202 C 0.48017 0.92807 0.73067 0.0
C203 C 0.47772 0.89052 0.75288 0.0
H204 H 0.56258 1.01252 0.38552 0.0
H205 H 0.45644 0.87995 0.80886 0.0
H206 H 0.47012 0.09598 1.00589 0.0
H207 H 0.64281 0.15768 0.61856 0.0
H208 H 0.46098 0.94645 0.77085 0.0
H209 H 0.50143 0.83781 0.72149 0.0
H210 H 0.62159 0.10189 0.71383 0.0
H211 H 0.60347 0.97481 0.26407 0.0
H212 H 0.55537 0.82907 0.58678 0.0
H213 H 0.59669 0.85539 0.43942 0.0
H214 H 0.42933 0.1481 1.01651 0.0
H215 H 0.61366 0.90979 0.31394 0.0
H216 H 0.60472 0.21316 0.62291 0.0
N217 N 0.50732 0.1207 0.88581 0.0
C218 C 0.51711 0.1528 0.83412 0.0
C219 C 0.4536 0.14962 0.96311 0.0
C220 C 0.49491 0.18413 0.8424 0.0
C221 C 0.47658 0.11941 0.95366 0.0
C222 C 0.46256 0.182 0.9063 0.0
N223 N 0.57104 0.124 0.76961 0.0
C224 C 0.60431 0.12525 0.71612 0.0
C225 C 0.56162 0.18759 0.72304 0.0
C226 C 0.55023 0.15466 0.77581 0.0
C227 C 0.59512 0.18846 0.66502 0.0
C228 C 0.61663 0.1572 0.66214 0.0
H229 H 0.44488 0.20547 0.91505 0.0
H230 H 0.48928 0.24108 0.79442 0.0
H231 H 0.54762 0.24397 0.68932 0.0
O232 O 0.59818 0.07914 0.9548 0.0
O233 O 0.52282 0.08964 0.69711 0.0
O234 O 0.54662 0.05195 0.56425 0.0
O235 O 0.54871 0.10104 0.02516 0.0
O236 O 0.59723 0.04611 0.78347 0.0
O237 O 0.5785 1.01406 0.62074 0.0
O238 O 0.48109 0.03965 0.57828 0.0
O239 O 0.53281 0.97472 0.80236 0.0
O240 O 0.5427 1.01792 0.94635 0.0
O241 O 0.48292 0.98542 0.50415 0.0
O242 O 0.47473 1.01606 0.76294 0.0
O243 O 0.49786 0.04582 0.92399 0.0
C244 C 0.53715 0.08527 0.5934 0.0
C245 C 0.60316 0.13602 0.04686 0.0
C246 C 0.6605 0.16816 0.0827 0.0
C247 C 0.64269 0.20172 0.07201 0.0
C248 C 0.58536 0.16986 0.0374 0.0
C249 C 0.60526 0.20246 0.04747 0.0
C250 C 0.64062 0.13558 0.06929 0.0
C251 C 0.60466 0.02769 0.68709 0.0
C252 C 0.58408 0.10072 0.03172 0.0
C253 C 0.50602 0.21682 0.78904 0.0
C254 C 0.53928 0.21853 0.7295 0.0
C255 C 0.53901 0.98336 0.91159 0.0
C256 C 0.42568 1.0172 0.51649 0.0
C257 C 0.3706 0.05471 0.51107 0.0
C258 C 0.34973 0.02295 0.53451 0.0
C259 C 0.40461 0.98605 0.53988 0.0
C260 C 0.40869 0.05126 0.50552 0.0
C261 C 0.36671 0.98912 0.54994 0.0
C262 C 0.47035 0.03042 0.86732 0.0
C263 C 0.46564 1.0166 0.50832 0.0
H264 H 0.65754 0.22708 0.08404 0.0
H265 H 0.5562 0.17127 0.02379 0.0
H266 H 0.59143 0.22836 0.03927 0.0
H267 H 0.65426 0.10953 0.07988 0.0
H268 H 0.32018 0.0236 0.53645 0.0
H269 H 0.41731 0.95965 0.55113 0.0
H270 H 0.42572 0.0751 0.49159 0.0
H271 H 0.3503 0.96506 0.56736 0.0
Tb272 Tb 0.56164 0.51638 0.64713 0.0
C273 C 0.45287 0.47733 0.9999 0.0
N274 N 0.44919 0.49659 0.89956 0.0
C275 C 0.39505 0.46228 0.85245 0.0
C276 C 0.42799 0.44919 0.0288 0.0
C277 C 0.42043 0.48975 0.82655 0.0
C278 C 0.39886 0.44188 0.95377 0.0
C279 C 0.48756 0.4647 0.17391 0.0
C280 C 0.48234 0.48536 0.07209 0.0
C281 C 0.4631 0.43645 0.20216 0.0
C282 C 0.43325 0.42888 0.13037 0.0
Tb283 Tb 0.49106 0.54265 0.873 0.0
N284 N 0.50531 0.51361 0.04413 0.0
C285 C 0.517 0.47329 0.24557 0.0
C286 C 0.53066 0.52501 0.12349 0.0
C287 C 0.53846 0.50375 0.2208 0.0
H288 H 0.41653 0.50595 0.74971 0.0
H289 H 0.5606 0.5113 0.27804 0.0
H290 H 0.6421 0.49669 0.76786 0.0
H291 H 0.52693 0.5997 0.27673 0.0
H292 H 0.54494 0.5506 0.11449 0.0
H293 H 0.52259 0.45729 0.32208 0.0
H294 H 0.51478 0.55681 0.43594 0.0
H295 H 0.37241 0.457 0.7945 0.0
H296 H 0.4668 0.42062 0.28044 0.0
H297 H 0.41452 0.40708 0.15378 0.0
H298 H 0.70597 0.51748 0.75065 0.0
H299 H 0.37919 0.42052 0.97319 0.0
H300 H 0.58964 0.62307 0.2436 0.0
N301 N 0.6224 0.53175 0.63436 0.0
C302 C 0.63161 0.55607 0.55048 0.0
C303 C 0.68526 0.52879 0.69433 0.0
C304 C 0.66795 0.5683 0.53637 0.0
C305 C 0.64882 0.51746 0.7048 0.0
C306 C 0.69486 0.55452 0.61026 0.0
N307 N 0.56976 0.55654 0.49663 0.0
C308 C 0.54217 0.56692 0.42392 0.0
C309 C 0.61273 0.59291 0.38709 0.0
C310 C 0.60447 0.56835 0.47754 0.0
C311 C 0.58444 0.60426 0.31419 0.0
C312 C 0.549 0.59122 0.33286 0.0
H313 H 0.72313 0.56314 0.60206 0.0
H314 H 0.70386 0.60389 0.43779 0.0
H315 H 0.65558 0.62494 0.30563 0.0
O316 O 0.53944 0.47799 0.53413 0.0
O317 O 0.5551 0.57739 0.66027 0.0
O318 O 0.49798 0.58656 0.73941 0.0
O319 O 0.59732 0.47855 0.56909 0.0
O320 O 0.50282 0.51044 0.58784 0.0
O321 O 0.46747 0.54868 0.69875 0.0
O322 O 0.48192 0.59164 0.96576 0.0
O323 O 0.49679 0.48448 0.81456 0.0
O324 O 0.55719 0.47787 0.79678 0.0
O325 O 0.43957 0.55218 0.94526 0.0
O326 O 0.54953 0.55862 0.91754 0.0
O327 O 0.5815 0.51369 0.8274 0.0
C328 C 0.52644 0.59872 0.67888 0.0
C329 C 0.56561 0.4218 0.57582 0.0
C330 C 0.52296 0.37119 0.60975 0.0
C331 C 0.54671 0.3577 0.6956 0.0
C332 C 0.58927 0.40744 0.65987 0.0
C333 C 0.57995 0.37529 0.71821 0.0
C334 C 0.53346 0.40283 0.54891 0.0
C335 C 0.4721 0.52895 0.60471 0.0
C336 C 0.56972 0.45938 0.5315 0.0
C337 C 0.67622 0.59368 0.44882 0.0
C338 C 0.64873 0.6057 0.37364 0.0
C339 C 0.52586 0.46416 0.83226 0.0
C340 C 0.42166 0.61244 0.93025 0.0
C341 C 0.39186 0.67086 0.95408 0.0
C342 C 0.37493 0.66706 0.84611 0.0
C343 C 0.40403 0.60824 0.82276 0.0
C344 C 0.41487 0.64331 0.99589 0.0
C345 C 0.38062 0.6354 0.7814 0.0
C346 C 0.57998 0.5391 0.90727 0.0
C347 C 0.44711 0.58502 0.97534 0.0
H348 H 0.53989 0.33354 0.7452 0.0
H349 H 0.61413 0.42169 0.68389 0.0
H350 H 0.59803 0.36459 0.78403 0.0
H351 H 0.51646 0.41347 0.48025 0.0
H352 H 0.35819 0.68876 0.81126 0.0
H353 H 0.40845 0.58418 0.77063 0.0
H354 H 0.42915 0.64683 0.07746 0.0
H355 H 0.36757 0.63225 0.698 0.0
Tb356 Tb 0.05221 0.55646 0.62945 0.0
C357 C 0.06059 0.43352 0.97762 0.0
N358 N 0.0393 0.43613 0.88148 0.0
C359 C 0.05273 0.37375 0.83428 0.0
C360 C 0.07974 0.40121 1.00376 0.0
C361 C 0.03469 0.40653 0.81091 0.0
C362 C 0.0755 0.37111 0.93073 0.0
C363 C 0.08703 0.46282 0.14604 0.0
C364 C 0.06409 0.46391 0.04793 0.0
C365 C 0.10666 0.43095 0.17121 0.0
C366 C 0.10279 0.40011 0.10082 0.0
Tb367 Tb 1.01141 0.49137 0.85127 0.0
N368 N 0.04551 0.49471 1.01872 0.0
C369 C 0.08957 0.49378 0.21593 0.0
C370 C 0.04568 0.5238 0.09253 0.0
C371 C 0.06847 0.52426 0.18963 0.0
H372 H 1.01638 0.4076 0.73799 0.0
H373 H 0.06909 0.54788 0.24569 0.0
H374 H 0.0677 0.63885 0.74361 0.0
H375 H 0.97496 0.51464 0.25213 0.0
H376 H 0.02738 0.54623 0.08084 0.0
H377 H 0.10692 0.49408 0.29186 0.0
H378 H 0.01801 0.50644 0.41241 0.0
H379 H 0.04892 0.35047 0.77801 0.0
H380 H 0.12466 0.42978 0.24555 0.0
H381 H 0.11784 0.37559 0.12201 0.0
H382 H 0.04483 0.70136 0.71693 0.0
H383 H 0.08955 0.34572 0.94823 0.0
H384 H 0.94826 0.57536 0.21384 0.0
N385 N 0.03602 0.61648 0.60582 0.0
C386 C 1.01274 0.62379 0.51722 0.0
C387 C 0.03535 0.67972 0.66067 0.0
C388 C 0.99878 0.65916 0.49935 0.0
C389 C 0.04795 0.64405 0.67625 0.0
C390 C 1.0104 0.68727 0.57252 0.0
N391 N 1.01487 0.5614 0.47026 0.0
C392 C 1.00622 0.53285 0.39943 0.0
C393 C 0.97732 0.6014 0.35471 0.0
C394 C 1.00219 0.5954 0.44587 0.0
C395 C 0.96723 0.57189 0.28495 0.0
C396 C 0.98203 0.53754 0.30688 0.0
H397 H 1.00045 0.71486 0.56136 0.0
H398 H 0.96163 0.69193 0.39691 0.0
H399 H 0.9429 0.64133 0.27022 0.0
O400 O 0.08965 0.53745 0.507 0.0
O401 O 0.99092 0.55941 0.64575 0.0
O402 O 0.97296 0.50252 0.7045 0.0
O403 O 0.09384 0.59221 0.57185 0.0
O404 O 0.057 0.49628 0.58775 0.0
O405 O 1.00713 0.46985 0.67344 0.0
O406 O 0.97241 0.49925 0.98147 0.0
O407 O 0.07225 0.48866 0.82249 0.0
O408 O 0.08768 0.5474 0.7839 0.0
O409 O 0.97495 0.44837 0.89136 0.0
O410 O 1.0036 0.5518 0.88741 0.0
O411 O 0.05491 0.57723 0.80831 0.0
C412 C 0.96555 0.53357 0.65116 0.0
C413 C 0.1475 0.55633 0.57009 0.0
C414 C 0.19211 0.50806 0.60805 0.0
C415 C 0.20771 0.52994 0.6952 0.0
C416 C 0.16435 0.57813 0.65473 0.0
C417 C 0.1945 0.56505 0.71581 0.0
C418 C 0.16239 0.5221 0.54489 0.0
C419 C 0.0331 0.46896 0.59464 0.0
C420 C 0.11113 0.56551 0.52264 0.0
C421 C 0.97333 0.66516 0.41037 0.0
C422 C 0.96267 0.63636 0.33813 0.0
C423 C 0.09633 0.51559 0.82945 0.0
C424 C 0.91729 0.47606 0.90673 0.0
C425 C 0.87056 0.52146 0.86122 0.0
C426 C 0.85516 0.49712 0.78057 0.0
C427 C 0.90114 0.45192 0.82721 0.0
C428 C 0.90086 0.50991 0.92613 0.0
C429 C 0.87002 0.46235 0.76555 0.0
C430 C 0.02774 0.57908 0.88265 0.0
C431 C 0.95453 0.46985 0.9522 0.0
H432 H 0.23039 0.52032 0.74677 0.0
H433 H 0.15346 0.60464 0.67696 0.0
H434 H 0.20701 0.58178 0.78209 0.0
H435 H 0.15031 0.50647 0.47523 0.0
H436 H 0.83165 0.50476 0.72931 0.0
H437 H 0.91331 0.42564 0.80943 0.0
H438 H 0.91225 0.52746 0.99229 0.0
H439 H 0.85802 0.44385 0.70319 0.0
C440 C 0.17154 0.98549 0.43936 0.0
C441 C 0.18766 1.01708 0.3904 0.0
H442 H 0.12973 0.96203 0.5476 0.0
C443 C 0.16945 0.05046 0.41175 0.0
H444 H 0.1846 0.95927 0.42832 0.0
C445 C 0.13701 0.05205 0.48044 0.0
C446 C 0.12224 0.02045 0.53407 0.0
H447 H 0.18131 0.07566 0.37986 0.0
H448 H 0.12462 0.07834 0.49635 0.0
C449 C 0.13993 0.98716 0.50969 0.0
C450 C 0.56596 0.1503 0.34249 0.0
C451 C 0.5418 0.18025 0.35287 0.0
H452 H 0.58342 0.09758 0.40592 0.0
C453 C 0.51444 0.17691 0.43867 0.0
H454 H 0.58837 0.15185 0.28182 0.0
C455 C 0.51229 0.146 0.51313 0.0
C456 C 0.53723 0.11667 0.50511 0.0
H457 H 0.49573 0.19923 0.45275 0.0
H458 H 0.49147 0.14559 0.57966 0.0
C459 C 0.56344 0.11907 0.41563 0.0
C460 C 0.39938 0.50015 0.37054 0.0
C461 C 0.37739 0.53184 0.361 0.0
H462 H 0.44665 0.47425 0.44966 0.0
C463 C 0.38863 0.56205 0.42858 0.0
H464 H 0.39157 0.47574 0.32395 0.0
C465 C 0.41935 0.5609 0.50277 0.0
C466 C 0.44122 0.52949 0.51404 0.0
H467 H 0.37247 0.58674 0.42782 0.0
H468 H 0.42567 0.58495 0.55345 0.0
C469 C 0.43109 0.49925 0.44391 0.0
C470 C 0.9987 0.38938 0.40144 0.0
C471 C 0.03061 0.37237 0.3583 0.0
H472 H 0.97438 0.43131 0.50616 0.0
C473 C 0.06418 0.38891 0.39124 0.0
H474 H 0.97218 0.37748 0.38306 0.0
C475 C 0.06543 0.42107 0.46196 0.0
C476 C 0.03322 0.43706 0.5076 0.0
H477 H 0.0896 0.37635 0.36536 0.0
H478 H 0.0918 0.43235 0.48543 0.0
C479 C 0.99995 0.42048 0.47418 0.0
C480 C 0.90753 0.98617 0.13021 0.0
C481 C 0.88905 1.01882 0.15845 0.0
H482 H 0.95075 0.96005 0.03367 0.0
C483 C 0.89962 0.05031 0.09595 0.0
H484 H 0.90007 0.96116 0.17402 0.0
C485 C 0.92821 0.04951 1.01293 0.0
C486 C 0.94814 1.0173 0.98944 0.0
H487 H 0.88673 0.07616 0.11485 0.0
H488 H 0.93559 0.07475 0.96976 0.0
C489 C 0.93683 0.98552 0.04916 0.0
C490 C 0.52146 0.93098 0.1993 0.0
C491 C 0.52775 0.89375 0.17304 0.0
H492 H 0.52112 0.98725 0.14418 0.0
C493 C 0.53794 0.88637 0.05744 0.0
H494 H 0.51161 0.9382 0.28446 0.0
C495 C 0.54256 0.91505 0.97422 0.0
C496 C 0.53702 0.95243 1.0023 0.0
H497 H 0.54148 0.85836 0.03029 0.0
H498 H 0.55011 0.9078 0.8868 0.0
C499 C 0.52667 0.9595 0.11754 0.0
C500 C 0.66409 0.56697 0.10058 0.0
C501 C 0.6746 0.5333 0.1515 0.0
H502 H 0.62619 0.59606 0.98877 0.0
C503 C 0.65153 0.50317 0.12639 0.0
H504 H 0.6813 0.59077 0.11274 0.0
C505 C 0.62075 0.50592 0.05233 0.0
C506 C 0.61041 0.53913 0.99988 0.0
H507 H 0.65845 0.4764 0.15941 0.0
H508 H 0.6053 0.48138 0.03368 0.0
C509 C 0.63233 0.56995 0.02803 0.0
C510 C 0.99914 0.66086 0.08276 0.0
C511 C 0.03323 0.67463 0.12263 0.0
H512 H 0.96995 0.62007 0.98154 0.0
C513 C 0.0644 0.65496 0.08634 0.0
H514 H 0.97439 0.67553 0.10348 0.0
C515 C 0.06201 0.6242 1.01243 0.0
C516 C 0.02824 0.61058 0.97121 0.0
H517 H 0.09137 0.66453 0.11065 0.0
H518 H 0.08717 0.61127 0.98558 0.0
C519 C 0.99662 0.62905 1.01087 0.0
C520 C 0.09426 0.25517 0.4983 0.0
C521 C 0.1105 0.23436 0.40929 0.0
H522 H 0.05731 0.25378 0.63937 0.0
C523 C 0.11965 0.19807 0.43611 0.0
H524 H 0.08941 0.28411 0.48965 0.0
C525 C 0.10181 0.18048 0.52762 0.0
C526 C 0.07486 0.19933 0.59069 0.0
H527 H 0.1356 0.18178 0.37682 0.0
H528 H 0.10489 0.15122 0.53655 0.0
C529 C 0.07557 0.23756 0.58714 0.0
C530 C 0.3481 0.13335 0.31663 0.0
C531 C 0.3109 0.12396 0.30947 0.0
H532 H 0.39879 0.11257 0.37594 0.0
C533 C 0.29474 0.11563 0.41732 0.0
H534 H 0.36139 0.14727 0.24526 0.0
C535 C 0.31541 0.09565 0.49696 0.0
C536 C 0.35267 0.08944 0.47379 0.0
H537 H 0.26537 0.1159 0.42838 0.0
H538 H 0.30154 0.08202 0.56767 0.0
C539 C 0.36975 0.11301 0.3926 0.0
C540 C 0.47656 0.29313 0.47455 0.0
C541 C 0.46052 0.31283 0.38237 0.0
H542 H 0.51057 0.29683 0.62221 0.0
C543 C 0.44852 0.34838 0.40668 0.0
H544 H 0.48357 0.26465 0.46738 0.0
C545 C 0.46336 0.367 0.50124 0.0
C546 C 0.4905 0.35002 0.56914 0.0
H547 H 0.43253 0.36352 0.34431 0.0
H548 H 0.45794 0.39591 0.50942 0.0
C549 C 0.49232 0.31185 0.56638 0.0
C550 C 0.26541 0.45346 0.47759 0.0
C551 C 0.24443 0.44035 0.38351 0.0
H552 H 0.2648 0.48787 0.62469 0.0
C553 C 0.20768 0.43151 0.40721 0.0
H554 H 0.29471 0.45684 0.47267 0.0
C555 C 0.19019 0.44844 0.5001 0.0
C556 C 0.20977 0.47366 0.5685 0.0
H557 H 0.19109 0.41699 0.34476 0.0
H558 H 0.16074 0.44612 0.50666 0.0
C559 C 0.24803 0.47138 0.56797 0.0
C560 C 0.96026 0.79608 1.01038 0.0
C561 C 0.94991 0.81588 0.10998 0.0
H562 H 0.99664 0.79593 0.86563 0.0
C563 C 0.94684 0.85373 0.09415 0.0
H564 H 0.95717 0.76678 1.00533 0.0
C565 C 0.97051 0.87083 1.01618 0.0
C566 C 0.9937 0.8494 0.94612 0.0
H567 H 0.93291 0.8704 0.15709 0.0
H568 H 0.974 0.8999 0.02532 0.0
C569 C 0.98327 0.81281 0.92943 0.0
C570 C 0.74843 0.12219 0.11802 0.0
C571 C 0.75123 0.12454 0.23908 0.0
H572 H 0.71682 0.13653 0.96956 0.0
C573 C 0.73291 0.15296 0.29629 0.0
H574 H 0.76238 0.10098 0.0705 0.0
C575 C 0.70639 0.17316 0.23784 0.0
C576 C 0.69861 0.16529 0.12185 0.0
H577 H 0.73546 0.15621 0.38902 0.0
H578 H 0.68857 0.19078 0.28725 0.0
C579 C 0.72229 0.14267 0.05957 0.0
C580 C 0.40622 0.72528 0.21041 0.0
C581 C 0.43653 0.74508 0.16906 0.0
H582 H 0.36493 0.68607 0.16773 0.0
C583 C 0.44034 0.75048 0.04909 0.0
H584 H 0.40167 0.72192 0.30237 0.0
C585 C 0.41814 0.73137 0.97244 0.0
C586 C 0.3931 0.7057 1.01526 0.0
H587 H 0.46311 0.76581 1.01356 0.0
H588 H 0.4251 0.73183 0.88133 0.0
C589 C 0.38445 0.70562 0.13343 0.0
C590 C 0.79827 0.57671 0.99068 0.0
C591 C 0.82047 0.59471 0.07325 0.0
H592 H 0.7973 0.53786 0.85515 0.0
C593 C 0.8567 0.60282 0.04152 0.0
H594 H 0.76946 0.57176 1.00476 0.0
C595 C 0.87262 0.58398 0.94961 0.0
C596 C 0.85251 0.55632 0.89303 0.0
H597 H 0.87409 0.6192 0.09693 0.0
H598 H 0.90183 0.5867 0.93642 0.0
C599 C 0.81437 0.55697 0.90202 0.0
C600 C 0.08909 0.17272 0.98451 0.0
C601 C 0.05957 0.19297 0.03141 0.0
H602 H 0.10794 0.12522 0.8923 0.0
C603 C 0.02438 0.17767 1.01335 0.0
H604 H 0.1168 0.18252 0.99684 0.0
C605 C 0.01931 0.14376 0.95345 0.0
C606 C 0.04908 0.12353 0.90792 0.0
H607 H 1.00074 0.19114 0.04952 0.0
H608 H 0.99184 0.13297 0.9448 0.0
C609 C 0.08403 0.13919 0.92466 0.0
C610 C 0.3946 0.03474 0.10286 0.0
C611 C 0.36134 0.03412 0.04002 0.0
H612 H 0.45351 0.03377 0.10109 0.0
C613 C 0.36455 0.02919 0.91906 0.0
H614 H 0.39394 0.03935 0.19535 0.0
C615 C 0.39938 0.02616 0.86385 0.0
C616 C 0.43264 0.02856 0.92669 0.0
H617 H 0.34019 0.02973 0.86591 0.0
H618 H 0.40023 0.02388 0.7707 0.0
C619 C 0.42919 0.03197 0.04796 0.0
C620 C 0.54864 0.37685 1.01599 0.0
C621 C 0.51586 0.35614 1.01249 0.0
H622 H 0.57772 0.42591 0.96398 0.0
C623 C 0.48732 0.37109 0.94455 0.0
H624 H 0.57114 0.36742 0.06883 0.0
C625 C 0.49103 0.40487 0.88458 0.0
C626 C 0.52323 0.42626 0.89088 0.0
H627 H 0.4613 0.35693 0.94017 0.0
H628 H 0.46815 0.41456 0.83398 0.0
C629 C 0.55224 0.41101 0.95647 0.0
C630 C 0.18222 0.47014 0.96571 0.0
C631 C 0.202 0.49924 1.01793 0.0
H632 H 0.13525 0.45194 0.86824 0.0
C633 C 0.18661 0.53436 1.00399 0.0
H634 H 0.19227 0.4425 0.974 0.0
C635 C 0.15296 0.53974 0.94302 0.0
C636 C 0.13313 0.51035 0.89255 0.0
H637 H 0.19986 0.55763 0.04383 0.0
H638 H 0.14215 0.56712 0.93688 0.0
C639 C 0.14889 0.47549 0.90506 0.0
C640 C 0.04561 0.86269 0.50934 0.0
C641 C 1.00999 0.84906 0.486 0.0
H642 H 0.07923 0.90515 0.58701 0.0
C643 C 0.98101 0.86924 0.53653 0.0
H644 H 0.06899 0.84902 0.4723 0.0
C645 C 0.98683 0.90176 0.60101 0.0
C646 C 0.02208 0.91642 0.61997 0.0
H647 H 0.95304 0.86041 0.52292 0.0
H648 H 0.96321 0.91592 0.63458 0.0
C649 C 0.05148 0.89545 0.57515 0.0
C650 C 0.68713 1.00554 0.48566 0.0
C651 C 0.71461 0.03028 0.5207 0.0
H652 H 0.63301 0.98406 0.51262 0.0
C653 C 0.70704 0.05066 0.62212 0.0
H654 H 0.69099 0.98964 0.40784 0.0
C655 C 0.67303 0.04791 0.68158 0.0
C656 C 0.64421 0.0256 0.64022 0.0
H657 H 0.72692 0.07048 0.65226 0.0
H658 H 0.66893 0.06476 0.75709 0.0
C659 C 0.65303 1.00312 0.54455 0.0
C660 C 0.55058 0.68703 0.49666 0.0
C661 C 0.51739 0.70685 0.49478 0.0
H662 H 0.5801 0.63938 0.55625 0.0
C663 C 0.48868 0.69155 0.56258 0.0
H664 H 0.57342 0.69661 0.44518 0.0
C665 C 0.49209 0.6579 0.62341 0.0
C666 C 0.52458 0.63712 0.6213 0.0
H667 H 0.4624 0.70503 0.56446 0.0
H668 H 0.46844 0.64757 0.66958 0.0
C669 C 0.55415 0.6533 0.5592 0.0
C670 C 0.87205 0.51605 0.49005 0.0
C671 C 0.85926 0.55162 0.46425 0.0
H672 H 0.91464 0.48232 0.56488 0.0
C673 C 0.88181 0.58063 0.50435 0.0
H674 H 0.85681 0.49264 0.45903 0.0
C675 C 0.91505 0.57473 0.56552 0.0
C676 C 0.92825 0.53935 0.59002 0.0
H677 H 0.8741 0.60852 0.48552 0.0
H678 H 0.93084 0.59831 0.59236 0.0
C679 C 0.90574 0.51011 0.55093 0.0
loop_
_geom_bond_atom_site_label_1
_geom_bond_atom_site_label_2
_geom_bond_distance
_geom_bond_site_symmetry_2
_ccdc_geom_bond_type
H0 C7 0.929 . S
H1 C10 0.930 . S
H2 C12 0.929 . S
H3 C4 0.969 . S
C4 H3 0.969 . S
C4 O5 1.550 . S
C4 H6 0.973 . S
O5 C4 1.550 . S
O5 C11 1.412 . S
H6 C4 0.973 . S
C7 H0 0.929 . S
C7 C8 1.400 . S
C7 C9 1.364 . S
C8 C7 1.400 . S
C8 C12 1.377 . S
C9 C7 1.364 . S
C9 C10 1.374 . S
C10 H1 0.930 . S
C10 C9 1.374 . S
C10 C11 1.383 . S
C11 O5 1.412 . S
C11 C10 1.383 . S
C11 C12 1.394 . S
C12 H2 0.929 . S
C12 C8 1.377 . S
C12 C11 1.394 . S
H13 C20 0.929 . S
H14 C23 0.930 . S
H15 C25 0.929 . S
H16 C17 0.969 1_455 S
C17 H16 0.969 1_655 S
C17 O18 1.550 . S
C17 H19 0.973 . S
O18 C17 1.550 . S
O18 C24 1.412 . S
H19 C17 0.973 . S
C20 H13 0.929 . S
C20 C21 1.400 . S
C20 C22 1.364 . S
C21 C20 1.400 . S
C21 C25 1.377 . S
C22 C20 1.364 . S
C22 C23 1.374 . S
C23 H14 0.930 . S
C23 C22 1.374 . S
C23 C24 1.383 . S
C24 O18 1.412 . S
C24 C23 1.383 . S
C24 C25 1.394 . S
C25 H15 0.929 . S
C25 C21 1.377 . S
C25 C24 1.394 . S
H26 C33 0.929 . S
H27 C36 0.930 . S
H28 C38 0.929 . S
H29 C30 0.969 1_545 S
C30 H29 0.969 1_565 S
C30 O31 1.550 . S
C30 H32 0.973 . S
O31 C30 1.550 . S
O31 C37 1.412 . S
H32 C30 0.973 . S
C33 H26 0.929 . S
C33 C34 1.400 . S
C33 C35 1.364 . S
C34 C33 1.400 . S
C34 C38 1.377 . S
C35 C33 1.364 . S
C35 C36 1.374 . S
C36 H27 0.930 . S
C36 C35 1.374 . S
C36 C37 1.383 . S
C37 O31 1.412 . S
C37 C36 1.383 . S
C37 C38 1.394 . S
C38 H28 0.929 . S
C38 C34 1.377 . S
C38 C37 1.394 . S
H39 C46 0.929 . S
H40 C49 0.930 . S
H41 C51 0.929 . S
H42 C43 0.969 . S
C43 H42 0.969 . S
C43 O44 1.550 . S
C43 H45 0.973 . S
O44 C43 1.550 . S
O44 C50 1.412 . S
H45 C43 0.973 . S
C46 H39 0.929 . S
C46 C47 1.400 . S
C46 C48 1.364 . S
C47 C46 1.400 . S
C47 C51 1.377 . S
C48 C46 1.364 . S
C48 C49 1.374 . S
C49 H40 0.930 . S
C49 C48 1.374 . S
C49 C50 1.383 . S
C50 O44 1.412 . S
C50 C49 1.383 . S
C50 C51 1.394 . S
C51 H41 0.929 . S
C51 C47 1.377 . S
C51 C50 1.394 . S
H52 C59 0.929 . S
H53 C62 0.930 . S
H54 C64 0.929 . S
H55 C56 0.969 . S
C56 H55 0.969 . S
C56 O57 1.550 . S
C56 H58 0.973 . S
O57 C56 1.550 . S
O57 C63 1.412 . S
H58 C56 0.973 . S
C59 H52 0.929 . S
C59 C60 1.400 1_554 S
C59 C61 1.364 . S
C60 C59 1.400 1_556 S
C60 C64 1.377 . S
C61 C59 1.364 . S
C61 C62 1.374 . S
C62 H53 0.930 . S
C62 C61 1.374 . S
C62 C63 1.383 . S
C63 O57 1.412 . S
C63 C62 1.383 . S
C63 C64 1.394 1_554 S
C64 H54 0.929 . S
C64 C60 1.377 . S
C64 C63 1.394 1_556 S
H65 C72 0.929 . S
H66 C75 0.930 . S
H67 C77 0.929 . S
H68 C69 0.969 . S
C69 H68 0.969 . S
C69 O70 1.550 . S
C69 H71 0.973 . S
O70 C69 1.550 . S
O70 C76 1.412 . S
H71 C69 0.973 . S
C72 H65 0.929 . S
C72 C73 1.400 1_554 S
C72 C74 1.364 . S
C73 C72 1.400 1_556 S
C73 C77 1.377 . S
C74 C72 1.364 . S
C74 C75 1.374 . S
C75 H66 0.930 . S
C75 C74 1.374 . S
C75 C76 1.383 . S
C76 O70 1.412 . S
C76 C75 1.383 . S
C76 C77 1.394 1_554 S
C77 H67 0.929 . S
C77 C73 1.377 . S
C77 C76 1.394 1_556 S
H78 C85 0.929 . S
H79 C88 0.930 . S
H80 C90 0.929 . S
H81 C82 0.969 . S
C82 H81 0.969 . S
C82 O83 1.550 . S
C82 H84 0.973 . S
O83 C82 1.550 . S
O83 C89 1.412 . S
H84 C82 0.973 . S
C85 H78 0.929 . S
C85 C86 1.400 1_554 S
C85 C87 1.364 . S
C86 C85 1.400 1_556 S
C86 C90 1.377 . S
C87 C85 1.364 . S
C87 C88 1.374 . S
C88 H79 0.930 . S
C88 C87 1.374 . S
C88 C89 1.383 . S
C89 O83 1.412 . S
C89 C88 1.383 . S
C89 C90 1.394 1_554 S
C90 H80 0.929 . S
C90 C86 1.377 . S
C90 C89 1.394 1_556 S
H91 C98 0.929 . S
H92 C101 0.930 . S
H93 C103 0.929 . S
H94 C95 0.969 . S
C95 H94 0.969 . S
C95 O96 1.550 . S
C95 H97 0.973 . S
O96 C95 1.550 . S
O96 C102 1.412 . S
H97 C95 0.973 . S
C98 H91 0.929 . S
C98 C99 1.400 1_554 S
C98 C100 1.364 . S
C99 C98 1.400 1_556 S
C99 C103 1.377 . S
C100 C98 1.364 . S
C100 C101 1.374 . S
C101 H92 0.930 . S
C101 C100 1.374 . S
C101 C102 1.383 . S
C102 O96 1.412 . S
C102 C101 1.383 . S
C102 C103 1.394 1_554 S
C103 H93 0.929 . S
C103 C99 1.377 . S
C103 C102 1.394 1_556 S
Tb104 N133 2.617 . S
Tb104 N139 2.572 . S
Tb104 O148 2.465 . S
Tb104 O149 2.387 1_545 S
Tb104 O151 2.428 . S
Tb104 O152 2.308 1_655 S
Tb104 O156 2.349 1_655 S
Tb104 O159 2.393 . S
Tb104 C168 2.802 . S
C105 N106 1.379 1_554 S
C105 C108 1.416 . S
C105 C112 1.424 . S
N106 C105 1.379 1_556 S
N106 C109 1.334 . S
N106 Tb115 2.617 1_545 S
C107 C109 1.390 . S
C107 C110 1.339 . S
C107 H127 0.930 . S
C108 C105 1.416 . S
C108 C110 1.416 1_554 S
C108 C114 1.448 . S
C109 N106 1.334 . S
C109 C107 1.390 . S
C109 H120 0.930 1_545 S
C110 C107 1.339 . S
C110 C108 1.416 1_556 S
C110 H131 0.930 . S
C111 C112 1.413 . S
C111 C113 1.427 . S
C111 C117 1.416 . S
C112 C105 1.424 . S
C112 C111 1.413 . S
C112 N116 1.361 . S
C113 C111 1.427 . S
C113 C114 1.328 . S
C113 H128 0.929 . S
C114 C108 1.448 . S
C114 C113 1.328 . S
C114 H129 0.930 . S
Tb115 N106 2.617 1_565 S
Tb115 N116 2.572 1_566 S
Tb115 O150 2.349 . S
Tb115 O153 2.393 . S
Tb115 O154 2.465 . S
Tb115 O155 2.387 1_565 S
Tb115 O157 2.428 . S
Tb115 O158 2.308 1_465 S
Tb115 C179 2.802 . S
N116 C112 1.361 . S
N116 Tb115 2.572 1_544 S
N116 C118 1.340 . S
C117 C111 1.416 . S
C117 C119 1.332 . S
C117 H125 0.931 . S
C118 N116 1.340 . S
C118 C119 1.407 . S
C118 H124 0.930 . S
C119 C117 1.332 . S
C119 C118 1.407 . S
C119 H121 0.929 . S
H120 C109 0.930 1_565 S
H121 C119 0.929 . S
H122 C137 0.930 . S
H123 C144 0.929 1_455 S
H124 C118 0.930 . S
H125 C117 0.931 . S
H126 C140 0.930 1_455 S
H127 C107 0.930 . S
H128 C113 0.929 . S
H129 C114 0.930 . S
H130 C135 0.930 . S
H131 C110 0.930 . S
H132 C143 0.931 . S
N133 Tb104 2.617 . S
N133 C134 1.379 1_545 S
N133 C137 1.334 . S
C134 N133 1.379 1_565 S
C134 C136 1.416 . S
C134 C142 1.424 . S
C135 H130 0.930 . S
C135 C137 1.390 . S
C135 C138 1.339 1_545 S
C136 C134 1.416 . S
C136 C138 1.416 . S
C136 C169 1.448 . S
C137 H122 0.930 . S
C137 N133 1.334 . S
C137 C135 1.390 . S
C138 C135 1.339 1_565 S
C138 C136 1.416 . S
C138 H145 0.930 . S
N139 Tb104 2.572 . S
N139 C140 1.340 . S
N139 C142 1.361 1_545 S
C140 H126 0.930 1_655 S
C140 N139 1.340 . S
C140 C144 1.407 1_545 S
C141 C142 1.413 . S
C141 C143 1.416 . S
C141 C170 1.427 . S
C142 C134 1.424 . S
C142 N139 1.361 1_565 S
C142 C141 1.413 . S
C143 H132 0.931 . S
C143 C141 1.416 . S
C143 C144 1.332 . S
C144 H123 0.929 1_655 S
C144 C140 1.407 1_565 S
C144 C143 1.332 . S
H145 C138 0.930 . S
H146 C169 0.930 . S
H147 C170 0.929 . S
O148 Tb104 2.465 . S
O148 C168 1.264 . S
O149 Tb104 2.387 1_565 S
O149 C160 1.264 . S
O150 Tb115 2.349 . S
O150 C160 1.243 1_455 S
O151 Tb104 2.428 . S
O151 C168 1.256 . S
O152 Tb104 2.308 1_455 S
O152 C167 1.266 . S
O153 Tb115 2.393 . S
O153 C167 1.248 1_565 S
O154 Tb115 2.465 . S
O154 C179 1.264 . S
O155 Tb115 2.387 1_545 S
O155 C171 1.264 . S
O156 Tb104 2.349 1_455 S
O156 C171 1.243 . S
O157 Tb115 2.428 . S
O157 C179 1.256 . S
O158 Tb115 2.308 1_645 S
O158 C178 1.266 . S
O159 Tb104 2.393 . S
O159 C178 1.248 . S
C160 O149 1.264 . S
C160 O150 1.243 1_655 S
C161 C164 1.399 . S
C161 C166 1.383 . S
C161 C168 1.496 . S
C162 C163 1.399 . S
C162 C166 1.389 . S
C163 C162 1.399 . S
C163 C165 1.380 . S
C163 H180 0.929 . S
C164 C161 1.399 . S
C164 C165 1.392 . S
C164 H181 0.929 . S
C165 C163 1.380 . S
C165 C164 1.392 . S
C165 H182 0.929 . S
C166 C161 1.383 . S
C166 C162 1.389 . S
C166 H183 0.931 1_655 S
C167 O152 1.266 . S
C167 O153 1.248 1_545 S
C168 Tb104 2.802 . S
C168 O148 1.264 . S
C168 O151 1.256 . S
C168 C161 1.496 . S
C169 C136 1.448 . S
C169 H146 0.930 . S
C169 C170 1.328 . S
C170 C141 1.427 . S
C170 H147 0.929 . S
C170 C169 1.328 . S
C171 O155 1.264 . S
C171 O156 1.243 . S
C172 C175 1.399 . S
C172 C176 1.383 . S
C172 C179 1.496 1_554 S
C173 C174 1.399 . S
C173 C176 1.389 . S
C174 C173 1.399 . S
C174 C177 1.380 . S
C174 H184 0.929 . S
C175 C172 1.399 . S
C175 C177 1.392 . S
C175 H185 0.929 1_554 S
C176 C172 1.383 . S
C176 C173 1.389 . S
C176 H186 0.931 . S
C177 C174 1.380 . S
C177 C175 1.392 . S
C177 H187 0.929 . S
C178 O158 1.266 . S
C178 O159 1.248 . S
C179 Tb115 2.802 . S
C179 O154 1.264 . S
C179 O157 1.256 . S
C179 C172 1.496 1_556 S
H180 C163 0.929 . S
H181 C164 0.929 . S
H182 C165 0.929 . S
H183 C166 0.931 1_455 S
H184 C174 0.929 . S
H185 C175 0.929 1_556 S
H186 C176 0.931 . S
H187 C177 0.929 . S
Tb188 N217 2.617 . S
Tb188 N223 2.572 . S
Tb188 O232 2.465 . S
Tb188 O233 2.387 . S
Tb188 O235 2.428 1_556 S
Tb188 O236 2.308 . S
Tb188 O240 2.349 1_545 S
Tb188 O243 2.393 . S
Tb188 C252 2.802 1_556 S
C189 N190 1.379 . S
C189 C192 1.416 . S
C189 C196 1.424 . S
N190 C189 1.379 . S
N190 C193 1.334 . S
N190 Tb199 2.617 . S
C191 C193 1.390 . S
C191 C194 1.339 . S
C191 H211 0.930 . S
C192 C189 1.416 . S
C192 C194 1.416 . S
C192 C198 1.448 . S
C193 N190 1.334 . S
C193 C191 1.390 . S
C193 H204 0.930 . S
C194 C191 1.339 . S
C194 C192 1.416 . S
C194 H215 0.930 . S
C195 C196 1.413 . S
C195 C197 1.427 . S
C195 C201 1.416 . S
C196 C189 1.424 . S
C196 C195 1.413 . S
C196 N200 1.361 . S
C197 C195 1.427 . S
C197 C198 1.328 . S
C197 H212 0.929 . S
C198 C192 1.448 . S
C198 C197 1.328 . S
C198 H213 0.930 . S
Tb199 N190 2.617 . S
Tb199 N200 2.572 . S
Tb199 O234 2.349 1_565 S
Tb199 O237 2.393 . S
Tb199 O238 2.465 . S
Tb199 O239 2.387 . S
Tb199 O241 2.428 . S
Tb199 O242 2.308 1_565 S
Tb199 C263 2.802 . S
N200 C196 1.361 . S
N200 Tb199 2.572 . S
N200 C202 1.340 . S
C201 C195 1.416 . S
C201 C203 1.332 . S
C201 H209 0.931 . S
C202 N200 1.340 . S
C202 C203 1.407 . S
C202 H208 0.930 . S
C203 C201 1.332 . S
C203 C202 1.407 . S
C203 H205 0.929 . S
H204 C193 0.930 . S
H205 C203 0.929 . S
H206 C221 0.932 . S
H207 C228 0.929 . S
H208 C202 0.930 . S
H209 C201 0.931 . S
H210 C224 0.930 . S
H211 C191 0.930 . S
H212 C197 0.929 . S
H213 C198 0.930 . S
H214 C219 0.930 . S
H215 C194 0.930 . S
H216 C227 0.931 . S
N217 Tb188 2.617 . S
N217 C218 1.379 . S
N217 C221 1.332 1_556 S
C218 N217 1.379 . S
C218 C220 1.416 . S
C218 C226 1.424 . S
C219 H214 0.930 . S
C219 C221 1.391 . S
C219 C222 1.339 1_554 S
C220 C218 1.416 . S
C220 C222 1.416 . S
C220 C253 1.448 . S
C221 H206 0.932 . S
C221 N217 1.332 1_554 S
C221 C219 1.391 . S
C222 C219 1.339 1_556 S
C222 C220 1.416 . S
C222 H229 0.930 1_556 S
N223 Tb188 2.572 . S
N223 C224 1.340 . S
N223 C226 1.361 . S
C224 H210 0.930 . S
C224 N223 1.340 . S
C224 C228 1.407 . S
C225 C226 1.413 . S
C225 C227 1.416 . S
C225 C254 1.427 . S
C226 C218 1.424 . S
C226 N223 1.361 . S
C226 C225 1.413 . S
C227 H216 0.931 . S
C227 C225 1.416 . S
C227 C228 1.332 . S
C228 H207 0.929 . S
C228 C224 1.407 . S
C228 C227 1.332 . S
H229 C222 0.930 1_554 S
H230 C253 0.930 . S
H231 C254 0.929 . S
O232 Tb188 2.465 . S
O232 C252 1.264 1_556 S
O233 Tb188 2.387 . S
O233 C244 1.264 . S
O234 Tb199 2.349 1_545 S
O234 C244 1.243 . S
O235 Tb188 2.428 1_554 S
O235 C252 1.256 . S
O236 Tb188 2.308 . S
O236 C251 1.264 . S
O237 Tb199 2.393 . S
O237 C251 1.249 1_565 S
O238 Tb199 2.465 . S
O238 C263 1.264 . S
O239 Tb199 2.387 . S
O239 C255 1.264 . S
O240 Tb188 2.349 1_565 S
O240 C255 1.243 . S
O241 Tb199 2.428 . S
O241 C263 1.256 . S
O242 Tb199 2.308 1_545 S
O242 C262 1.266 . S
O243 Tb188 2.393 . S
O243 C262 1.248 . S
C244 O233 1.264 . S
C244 O234 1.243 . S
C245 C248 1.399 . S
C245 C250 1.383 . S
C245 C252 1.496 . S
C246 C247 1.399 . S
C246 C250 1.389 . S
C247 C246 1.399 . S
C247 C249 1.380 . S
C247 H264 0.929 . S
C248 C245 1.399 . S
C248 C249 1.392 . S
C248 H265 0.929 . S
C249 C247 1.380 . S
C249 C248 1.392 . S
C249 H266 0.929 . S
C250 C245 1.383 . S
C250 C246 1.389 . S
C250 H267 0.931 . S
C251 O236 1.264 . S
C251 O237 1.249 1_545 S
C252 Tb188 2.802 1_554 S
C252 O232 1.264 1_554 S
C252 O235 1.256 . S
C252 C245 1.496 . S
C253 C220 1.448 . S
C253 H230 0.930 . S
C253 C254 1.328 . S
C254 C225 1.427 . S
C254 H231 0.929 . S
C254 C253 1.328 . S
C255 O239 1.264 . S
C255 O240 1.243 . S
C256 C259 1.399 . S
C256 C260 1.383 . S
C256 C263 1.496 . S
C257 C258 1.399 . S
C257 C260 1.389 . S
C258 C257 1.399 . S
C258 C261 1.380 . S
C258 H268 0.929 . S
C259 C256 1.399 . S
C259 C261 1.392 . S
C259 H269 0.929 . S
C260 C256 1.383 . S
C260 C257 1.389 . S
C260 H270 0.931 1_565 S
C261 C258 1.380 . S
C261 C259 1.392 . S
C261 H271 0.929 . S
C262 O242 1.266 . S
C262 O243 1.248 . S
C263 Tb199 2.802 . S
C263 O238 1.264 . S
C263 O241 1.256 . S
C263 C256 1.496 . S
H264 C247 0.929 . S
H265 C248 0.929 . S
H266 C249 0.929 . S
H267 C250 0.931 . S
H268 C258 0.929 . S
H269 C259 0.929 . S
H270 C260 0.931 1_545 S
H271 C261 0.929 . S
Tb272 N301 2.617 . S
Tb272 N307 2.572 . S
Tb272 O316 2.465 . S
Tb272 O317 2.387 . S
Tb272 O319 2.428 . S
Tb272 O320 2.308 . S
Tb272 O324 2.349 . S
Tb272 O327 2.393 . S
Tb272 C336 2.802 . S
C273 N274 1.379 1_554 S
C273 C276 1.416 . S
C273 C280 1.424 . S
N274 C273 1.379 1_556 S
N274 C277 1.334 . S
N274 Tb283 2.617 . S
C275 C277 1.390 . S
C275 C278 1.339 . S
C275 H295 0.930 . S
C276 C273 1.416 . S
C276 C278 1.416 1_554 S
C276 C282 1.448 . S
C277 N274 1.334 . S
C277 C275 1.390 . S
C277 H288 0.930 . S
C278 C275 1.339 . S
C278 C276 1.416 1_556 S
C278 H299 0.930 . S
C279 C280 1.413 . S
C279 C281 1.427 . S
C279 C285 1.416 . S
C280 C273 1.424 . S
C280 C279 1.413 . S
C280 N284 1.361 . S
C281 C279 1.427 . S
C281 C282 1.328 . S
C281 H296 0.929 . S
C282 C276 1.448 . S
C282 C281 1.328 . S
C282 H297 0.930 . S
Tb283 N274 2.617 . S
Tb283 N284 2.572 1_556 S
Tb283 O318 2.349 . S
Tb283 O321 2.393 . S
Tb283 O322 2.465 . S
Tb283 O323 2.387 . S
Tb283 O325 2.428 . S
Tb283 O326 2.308 . S
Tb283 C347 2.802 . S
N284 C280 1.361 . S
N284 Tb283 2.572 1_554 S
N284 C286 1.340 . S
C285 C279 1.416 . S
C285 C287 1.332 . S
C285 H293 0.931 . S
C286 N284 1.340 . S
C286 C287 1.407 . S
C286 H292 0.930 . S
C287 C285 1.332 . S
C287 C286 1.407 . S
C287 H289 0.929 . S
H288 C277 0.930 . S
H289 C287 0.929 . S
H290 C305 0.930 . S
H291 C312 0.929 . S
H292 C286 0.930 . S
H293 C285 0.931 . S
H294 C308 0.930 . S
H295 C275 0.930 . S
H296 C281 0.929 . S
H297 C282 0.930 . S
H298 C303 0.930 . S
H299 C278 0.930 . S
H300 C311 0.931 . S
N301 Tb272 2.617 . S
N301 C302 1.379 . S
N301 C305 1.334 . S
C302 N301 1.379 . S
C302 C304 1.416 . S
C302 C310 1.424 . S
C303 H298 0.930 . S
C303 C305 1.390 . S
C303 C306 1.339 . S
C304 C302 1.416 . S
C304 C306 1.416 . S
C304 C337 1.448 . S
C305 H290 0.930 . S
C305 N301 1.334 . S
C305 C303 1.390 . S
C306 C303 1.339 . S
C306 C304 1.416 . S
C306 H313 0.930 . S
N307 Tb272 2.572 . S
N307 C308 1.340 . S
N307 C310 1.361 . S
C308 H294 0.930 . S
C308 N307 1.340 . S
C308 C312 1.407 . S
C309 C310 1.413 . S
C309 C311 1.416 . S
C309 C338 1.427 . S
C310 C302 1.424 . S
C310 N307 1.361 . S
C310 C309 1.413 . S
C311 H300 0.931 . S
C311 C309 1.416 . S
C311 C312 1.332 . S
C312 H291 0.929 . S
C312 C308 1.407 . S
C312 C311 1.332 . S
H313 C306 0.930 . S
H314 C337 0.930 . S
H315 C338 0.929 . S
O316 Tb272 2.465 . S
O316 C336 1.264 . S
O317 Tb272 2.387 . S
O317 C328 1.264 . S
O318 Tb283 2.349 . S
O318 C328 1.243 . S
O319 Tb272 2.428 . S
O319 C336 1.256 . S
O320 Tb272 2.308 . S
O320 C335 1.266 . S
O321 Tb283 2.393 . S
O321 C335 1.248 . S
O322 Tb283 2.465 . S
O322 C347 1.264 . S
O323 Tb283 2.387 . S
O323 C339 1.264 . S
O324 Tb272 2.349 . S
O324 C339 1.243 . S
O325 Tb283 2.428 . S
O325 C347 1.256 . S
O326 Tb283 2.308 . S
O326 C346 1.266 . S
O327 Tb272 2.393 . S
O327 C346 1.248 . S
C328 O317 1.264 . S
C328 O318 1.243 . S
C329 C332 1.399 . S
C329 C334 1.383 . S
C329 C336 1.496 . S
C330 C331 1.399 . S
C330 C334 1.389 . S
C331 C330 1.399 . S
C331 C333 1.380 . S
C331 H348 0.929 . S
C332 C329 1.399 . S
C332 C333 1.392 . S
C332 H349 0.929 . S
C333 C331 1.380 . S
C333 C332 1.392 . S
C333 H350 0.929 . S
C334 C329 1.383 . S
C334 C330 1.389 . S
C334 H351 0.931 . S
C335 O320 1.266 . S
C335 O321 1.248 . S
C336 Tb272 2.802 . S
C336 O316 1.264 . S
C336 O319 1.256 . S
C336 C329 1.496 . S
C337 C304 1.448 . S
C337 H314 0.930 . S
C337 C338 1.328 . S
C338 C309 1.427 . S
C338 H315 0.929 . S
C338 C337 1.328 . S
C339 O323 1.264 . S
C339 O324 1.243 . S
C340 C343 1.399 . S
C340 C344 1.383 . S
C340 C347 1.496 1_554 S
C341 C342 1.399 . S
C341 C344 1.389 . S
C342 C341 1.399 . S
C342 C345 1.380 . S
C342 H352 0.929 . S
C343 C340 1.399 . S
C343 C345 1.392 . S
C343 H353 0.929 1_554 S
C344 C340 1.383 . S
C344 C341 1.389 . S
C344 H354 0.931 . S
C345 C342 1.380 . S
C345 C343 1.392 . S
C345 H355 0.929 . S
C346 O326 1.266 . S
C346 O327 1.248 . S
C347 Tb283 2.802 . S
C347 O322 1.264 . S
C347 O325 1.256 . S
C347 C340 1.496 1_556 S
H348 C331 0.929 . S
H349 C332 0.929 . S
H350 C333 0.929 . S
H351 C334 0.931 . S
H352 C342 0.929 . S
H353 C343 0.929 1_556 S
H354 C344 0.931 . S
H355 C345 0.929 . S
Tb356 N385 2.617 . S
Tb356 N391 2.572 . S
Tb356 O400 2.465 . S
Tb356 O401 2.387 1_455 S
Tb356 O403 2.428 . S
Tb356 O404 2.308 . S
Tb356 O408 2.349 . S
Tb356 O411 2.393 . S
Tb356 C420 2.802 . S
C357 N358 1.379 1_554 S
C357 C360 1.416 . S
C357 C364 1.424 . S
N358 C357 1.379 1_556 S
N358 C361 1.336 . S
N358 Tb367 2.617 1_455 S
C359 C361 1.395 . S
C359 C362 1.339 . S
C359 H379 0.930 . S
C360 C357 1.416 . S
C360 C362 1.416 1_554 S
C360 C366 1.448 . S
C361 N358 1.336 . S
C361 C359 1.395 . S
C361 H372 0.923 1_455 S
C362 C359 1.339 . S
C362 C360 1.416 1_556 S
C362 H383 0.930 . S
C363 C364 1.413 . S
C363 C365 1.427 . S
C363 C369 1.416 . S
C364 C357 1.424 . S
C364 C363 1.413 . S
C364 N368 1.361 . S
C365 C363 1.427 . S
C365 C366 1.328 . S
C365 H380 0.929 . S
C366 C360 1.448 . S
C366 C365 1.328 . S
C366 H381 0.930 . S
Tb367 N358 2.617 1_655 S
Tb367 N368 2.572 1_656 S
Tb367 O402 2.349 . S
Tb367 O405 2.393 . S
Tb367 O406 2.465 . S
Tb367 O407 2.387 1_655 S
Tb367 O409 2.428 . S
Tb367 O410 2.308 1_655 S
Tb367 C431 2.802 . S
N368 C364 1.361 . S
N368 Tb367 2.572 1_454 S
N368 C370 1.340 . S
C369 C363 1.416 . S
C369 C371 1.332 . S
C369 H377 0.931 . S
C370 N368 1.340 . S
C370 C371 1.407 . S
C370 H376 0.930 . S
C371 C369 1.332 . S
C371 C370 1.407 . S
C371 H373 0.929 . S
H372 C361 0.923 1_655 S
H373 C371 0.929 . S
H374 C389 0.930 . S
H375 C396 0.929 . S
H376 C370 0.930 . S
H377 C369 0.931 . S
H378 C392 0.930 . S
H379 C359 0.930 . S
H380 C365 0.929 . S
H381 C366 0.930 . S
H382 C387 0.930 . S
H383 C362 0.930 . S
H384 C395 0.931 . S
N385 Tb356 2.617 . S
N385 C386 1.379 1_455 S
N385 C389 1.334 . S
C386 N385 1.379 1_655 S
C386 C388 1.416 . S
C386 C394 1.424 . S
C387 H382 0.930 . S
C387 C389 1.390 . S
C387 C390 1.339 1_455 S
C388 C386 1.416 . S
C388 C390 1.416 . S
C388 C421 1.448 . S
C389 H374 0.930 . S
C389 N385 1.334 . S
C389 C387 1.390 . S
C390 C387 1.339 1_655 S
C390 C388 1.416 . S
C390 H397 0.930 . S
N391 Tb356 2.572 . S
N391 C392 1.340 . S
N391 C394 1.361 1_455 S
C392 H378 0.930 . S
C392 N391 1.340 . S
C392 C396 1.407 1_455 S
C393 C394 1.413 . S
C393 C395 1.416 . S
C393 C422 1.427 . S
C394 C386 1.424 . S
C394 N391 1.361 1_655 S
C394 C393 1.413 . S
C395 H384 0.931 . S
C395 C393 1.416 . S
C395 C396 1.332 . S
C396 H375 0.929 . S
C396 C392 1.407 1_655 S
C396 C395 1.332 . S
H397 C390 0.930 . S
H398 C421 0.930 . S
H399 C422 0.929 . S
O400 Tb356 2.465 . S
O400 C420 1.264 . S
O401 Tb356 2.387 1_655 S
O401 C412 1.264 . S
O402 Tb367 2.349 . S
O402 C412 1.243 . S
O403 Tb356 2.428 . S
O403 C420 1.256 . S
O404 Tb356 2.308 . S
O404 C419 1.266 . S
O405 Tb367 2.393 . S
O405 C419 1.248 1_655 S
O406 Tb367 2.465 . S
O406 C431 1.264 . S
O407 Tb367 2.387 1_455 S
O407 C423 1.264 . S
O408 Tb356 2.349 . S
O408 C423 1.243 . S
O409 Tb367 2.428 . S
O409 C431 1.256 . S
O410 Tb367 2.308 1_455 S
O410 C430 1.266 . S
O411 Tb356 2.393 . S
O411 C430 1.248 . S
C412 O401 1.264 . S
C412 O402 1.243 . S
C413 C416 1.399 . S
C413 C418 1.383 . S
C413 C420 1.496 . S
C414 C415 1.399 . S
C414 C418 1.389 . S
C415 C414 1.399 . S
C415 C417 1.380 . S
C415 H432 0.929 . S
C416 C413 1.399 . S
C416 C417 1.392 . S
C416 H433 0.929 . S
C417 C415 1.380 . S
C417 C416 1.392 . S
C417 H434 0.929 . S
C418 C413 1.383 . S
C418 C414 1.389 . S
C418 H435 0.931 . S
C419 O404 1.266 . S
C419 O405 1.248 1_455 S
C420 Tb356 2.802 . S
C420 O400 1.264 . S
C420 O403 1.256 . S
C420 C413 1.496 . S
C421 C388 1.448 . S
C421 H398 0.930 . S
C421 C422 1.328 . S
C422 C393 1.427 . S
C422 H399 0.929 . S
C422 C421 1.328 . S
C423 O407 1.264 . S
C423 O408 1.243 . S
C424 C427 1.399 . S
C424 C428 1.383 . S
C424 C431 1.496 1_554 S
C425 C426 1.399 . S
C425 C428 1.389 . S
C426 C425 1.399 . S
C426 C429 1.380 . S
C426 H436 0.929 . S
C427 C424 1.399 . S
C427 C429 1.392 . S
C427 H437 0.929 1_554 S
C428 C424 1.383 . S
C428 C425 1.389 . S
C428 H438 0.931 . S
C429 C426 1.380 . S
C429 C427 1.392 . S
C429 H439 0.929 . S
C430 O410 1.266 . S
C430 O411 1.248 . S
C431 Tb367 2.802 . S
C431 O406 1.264 . S
C431 O409 1.256 . S
C431 C424 1.496 1_556 S
H432 C415 0.929 . S
H433 C416 0.929 . S
H434 C417 0.929 . S
H435 C418 0.931 . S
H436 C426 0.929 . S
H437 C427 0.929 1_556 S
H438 C428 0.931 . S
H439 C429 0.929 . S
C440 C441 1.390 1_565 S
C440 H444 0.947 . S
C440 C449 1.390 . S
C441 C440 1.390 1_545 S
C441 C443 1.387 . S
H442 C449 0.950 . S
C443 C441 1.387 . S
C443 C445 1.390 . S
C443 H447 0.950 . S
H444 C440 0.947 . S
C445 C443 1.390 . S
C445 C446 1.387 . S
C445 H448 0.950 . S
C446 C445 1.387 . S
C446 C449 1.387 1_545 S
H447 C443 0.950 . S
H448 C445 0.950 . S
C449 C440 1.390 . S
C449 H442 0.950 . S
C449 C446 1.387 1_565 S
C450 C451 1.387 . S
C450 H454 0.950 . S
C450 C459 1.390 . S
C451 C450 1.387 . S
C451 C453 1.387 . S
H452 C459 0.950 . S
C453 C451 1.387 . S
C453 C455 1.390 . S
C453 H457 0.950 . S
H454 C450 0.950 . S
C455 C453 1.390 . S
C455 C456 1.387 . S
C455 H458 0.950 . S
C456 C455 1.387 . S
C456 C459 1.387 . S
H457 C453 0.950 . S
H458 C455 0.950 . S
C459 C450 1.390 . S
C459 H452 0.950 . S
C459 C456 1.387 . S
C460 C461 1.387 . S
C460 H464 0.950 . S
C460 C469 1.390 . S
C461 C460 1.387 . S
C461 C463 1.387 . S
H462 C469 0.950 . S
C463 C461 1.387 . S
C463 C465 1.390 . S
C463 H467 0.950 . S
H464 C460 0.950 . S
C465 C463 1.390 . S
C465 C466 1.387 . S
C465 H468 0.950 . S
C466 C465 1.387 . S
C466 C469 1.387 . S
H467 C463 0.950 . S
H468 C465 0.950 . S
C469 C460 1.390 . S
C469 H462 0.950 . S
C469 C466 1.387 . S
C470 C471 1.387 1_655 S
C470 H474 0.950 . S
C470 C479 1.390 . S
C471 C470 1.387 1_455 S
C471 C473 1.387 . S
H472 C479 0.950 . S
C473 C471 1.387 . S
C473 C475 1.390 . S
C473 H477 0.950 . S
H474 C470 0.950 . S
C475 C473 1.390 . S
C475 C476 1.387 . S
C475 H478 0.950 . S
C476 C475 1.387 . S
C476 C479 1.387 1_455 S
H477 C473 0.950 . S
H478 C475 0.950 . S
C479 C470 1.390 . S
C479 H472 0.950 . S
C479 C476 1.387 1_655 S
C480 C481 1.387 . S
C480 H484 0.950 . S
C480 C489 1.390 . S
C481 C480 1.387 . S
C481 C483 1.387 1_565 S
H482 C489 0.950 . S
C483 C481 1.387 1_545 S
C483 C485 1.390 . S
C483 H487 0.950 . S
H484 C480 0.950 . S
C485 C483 1.390 . S
C485 C486 1.369 1_545 S
C485 H488 0.950 . S
C486 C485 1.369 1_565 S
C486 C489 1.408 . S
H487 C483 0.950 . S
H488 C485 0.950 . S
C489 C480 1.390 . S
C489 H482 0.950 . S
C489 C486 1.408 . S
C490 C491 1.387 . S
C490 H494 0.950 . S
C490 C499 1.390 . S
C491 C490 1.387 . S
C491 C493 1.387 . S
H492 C499 0.950 . S
C493 C491 1.387 . S
C493 C495 1.390 . S
C493 H497 0.950 . S
H494 C490 0.950 . S
C495 C493 1.390 . S
C495 C496 1.387 . S
C495 H498 0.952 . S
C496 C495 1.387 . S
C496 C499 1.387 . S
H497 C493 0.950 . S
H498 C495 0.952 . S
C499 C490 1.390 . S
C499 H492 0.950 . S
C499 C496 1.387 . S
C500 C501 1.387 . S
C500 H504 0.950 . S
C500 C509 1.390 . S
C501 C500 1.387 . S
C501 C503 1.387 . S
H502 C509 0.950 . S
C503 C501 1.387 . S
C503 C505 1.390 . S
C503 H507 0.950 . S
H504 C500 0.950 . S
C505 C503 1.390 . S
C505 C506 1.387 . S
C505 H508 0.950 . S
C506 C505 1.387 . S
C506 C509 1.387 . S
H507 C503 0.950 . S
H508 C505 0.950 . S
C509 C500 1.390 . S
C509 H502 0.950 . S
C509 C506 1.387 . S
C510 C511 1.387 . S
C510 H514 0.950 . S
C510 C519 1.390 . S
C511 C510 1.387 . S
C511 C513 1.387 1_655 S
H512 C519 0.950 . S
C513 C511 1.387 1_455 S
C513 C515 1.390 . S
C513 H517 0.950 . S
H514 C510 0.950 . S
C515 C513 1.390 . S
C515 C516 1.387 1_455 S
C515 H518 0.950 . S
C516 C515 1.387 1_655 S
C516 C519 1.387 . S
H517 C513 0.950 . S
H518 C515 0.950 . S
C519 C510 1.390 . S
C519 H512 0.950 . S
C519 C516 1.387 . S
C520 C521 1.387 . S
C520 H524 0.950 . S
C520 C529 1.390 . S
C521 C520 1.387 . S
C521 C523 1.387 . S
H522 C529 0.950 . S
C523 C521 1.387 . S
C523 C525 1.390 . S
C523 H527 0.950 . S
H524 C520 0.950 . S
C525 C523 1.390 . S
C525 C526 1.387 1_455 S
C525 H528 0.950 1_455 S
C526 C525 1.387 1_655 S
C526 C529 1.387 1_655 S
H527 C523 0.950 . S
H528 C525 0.950 1_655 S
C529 C520 1.390 . S
C529 H522 0.950 . S
C529 C526 1.387 1_455 S
C530 C531 1.387 . S
C530 H534 0.950 . S
C530 C539 1.390 . S
C531 C530 1.387 . S
C531 C533 1.387 . S
H532 C539 0.950 . S
C533 C531 1.387 . S
C533 C535 1.390 1_545 S
C533 H537 0.954 . S
H534 C530 0.950 . S
C535 C533 1.390 1_565 S
C535 C536 1.380 1_565 S
C535 H538 0.950 . S
C536 C535 1.380 1_545 S
C536 C539 1.408 . S
H537 C533 0.954 . S
H538 C535 0.950 . S
C539 C530 1.390 . S
C539 H532 0.950 . S
C539 C536 1.408 . S
C540 C541 1.387 . S
C540 H544 0.950 . S
C540 C549 1.390 . S
C541 C540 1.387 . S
C541 C543 1.387 . S
H542 C549 0.950 . S
C543 C541 1.387 . S
C543 C545 1.390 . S
C543 H547 0.950 . S
H544 C540 0.950 . S
C545 C543 1.390 . S
C545 C546 1.387 . S
C545 H548 0.950 . S
C546 C545 1.387 . S
C546 C549 1.387 . S
H547 C543 0.950 . S
H548 C545 0.950 . S
C549 C540 1.390 . S
C549 H542 0.950 . S
C549 C546 1.387 . S
C550 C551 1.387 . S
C550 H554 0.950 . S
C550 C559 1.390 . S
C551 C550 1.387 . S
C551 C553 1.387 . S
H552 C559 0.950 . S
C553 C551 1.387 . S
C553 C555 1.390 . S
C553 H557 0.950 . S
H554 C550 0.950 . S
C555 C553 1.390 . S
C555 C556 1.387 . S
C555 H558 0.950 . S
C556 C555 1.387 . S
C556 C559 1.387 . S
H557 C553 0.950 . S
H558 C555 0.950 . S
C559 C550 1.390 . S
C559 H552 0.950 . S
C559 C556 1.387 . S
C560 C561 1.387 1_455 S
C560 H564 0.950 . S
C560 C569 1.390 . S
C561 C560 1.387 1_655 S
C561 C563 1.387 . S
H562 C569 0.950 . S
C563 C561 1.387 . S
C563 C565 1.390 1_655 S
C563 H567 0.950 . S
H564 C560 0.950 . S
C565 C563 1.390 1_455 S
C565 C566 1.387 . S
C565 H568 0.950 . S
C566 C565 1.387 . S
C566 C569 1.387 . S
H567 C563 0.950 . S
H568 C565 0.950 . S
C569 C560 1.390 . S
C569 H562 0.950 . S
C569 C566 1.387 . S
C570 C571 1.387 . S
C570 H574 0.950 . S
C570 C579 1.390 . S
C571 C570 1.387 . S
C571 C573 1.387 1_565 S
H572 C579 0.950 . S
C573 C571 1.387 1_545 S
C573 C575 1.390 . S
C573 H577 0.950 . S
H574 C570 0.950 . S
C575 C573 1.390 . S
C575 C576 1.387 . S
C575 H578 0.950 . S
C576 C575 1.387 . S
C576 C579 1.387 1_545 S
H577 C573 0.950 . S
H578 C575 0.950 . S
C579 C570 1.390 . S
C579 H572 0.950 . S
C579 C576 1.387 1_565 S
C580 C581 1.387 . S
C580 H584 0.950 . S
C580 C589 1.390 . S
C581 C580 1.387 . S
C581 C583 1.387 . S
H582 C589 0.950 . S
C583 C581 1.387 . S
C583 C585 1.390 . S
C583 H587 0.950 . S
H584 C580 0.950 . S
C585 C583 1.390 . S
C585 C586 1.387 . S
C585 H588 0.950 . S
C586 C585 1.387 . S
C586 C589 1.387 . S
H587 C583 0.950 . S
H588 C585 0.950 . S
C589 C580 1.390 . S
C589 H582 0.950 . S
C589 C586 1.387 . S
C590 C591 1.387 . S
C590 H594 0.950 . S
C590 C599 1.390 . S
C591 C590 1.387 . S
C591 C593 1.387 . S
H592 C599 0.950 . S
C593 C591 1.387 . S
C593 C595 1.390 . S
C593 H597 0.950 . S
H594 C590 0.950 . S
C595 C593 1.390 . S
C595 C596 1.387 . S
C595 H598 0.950 . S
C596 C595 1.387 . S
C596 C599 1.387 . S
H597 C593 0.950 . S
H598 C595 0.950 . S
C599 C590 1.390 . S
C599 H592 0.950 . S
C599 C596 1.387 . S
C600 C601 1.387 . S
C600 H604 0.950 1_556 S
C600 C609 1.390 . S
C601 C600 1.387 . S
C601 C603 1.387 . S
H602 C609 0.950 1_554 S
C603 C601 1.387 . S
C603 C605 1.390 . S
C603 H607 0.950 . S
H604 C600 0.950 1_554 S
C605 C603 1.390 . S
C605 C606 1.387 . S
C605 H608 0.950 . S
C606 C605 1.387 . S
C606 C609 1.387 . S
H607 C603 0.950 . S
H608 C605 0.950 . S
C609 C600 1.390 . S
C609 H602 0.950 1_556 S
C609 C606 1.387 . S
C610 C611 1.387 . S
C610 H614 0.950 1_545 S
C610 C619 1.390 . S
C611 C610 1.387 . S
C611 C613 1.387 . S
H612 C619 0.950 1_565 S
C613 C611 1.387 . S
C613 C615 1.390 . S
C613 H617 0.950 . S
H614 C610 0.950 1_565 S
C615 C613 1.390 . S
C615 C616 1.387 . S
C615 H618 0.950 . S
C616 C615 1.387 . S
C616 C619 1.387 . S
H617 C613 0.950 . S
H618 C615 0.950 . S
C619 C610 1.390 . S
C619 H612 0.950 1_545 S
C619 C616 1.387 . S
C620 C621 1.387 . S
C620 H624 0.950 . S
C620 C629 1.390 . S
C621 C620 1.387 . S
C621 C623 1.387 . S
H622 C629 0.950 . S
C623 C621 1.387 . S
C623 C625 1.390 . S
C623 H627 0.950 . S
H624 C620 0.950 . S
C625 C623 1.390 . S
C625 C626 1.387 . S
C625 H628 0.950 . S
C626 C625 1.387 . S
C626 C629 1.387 . S
H627 C623 0.950 . S
H628 C625 0.950 . S
C629 C620 1.390 . S
C629 H622 0.950 . S
C629 C626 1.387 . S
C630 C631 1.387 . S
C630 H634 0.950 . S
C630 C639 1.390 . S
C631 C630 1.387 . S
C631 C633 1.387 . S
H632 C639 0.950 . S
C633 C631 1.387 . S
C633 C635 1.390 . S
C633 H637 0.950 . S
H634 C630 0.950 . S
C635 C633 1.390 . S
C635 C636 1.387 . S
C635 H638 0.950 . S
C636 C635 1.387 . S
C636 C639 1.387 . S
H637 C633 0.950 . S
H638 C635 0.950 . S
C639 C630 1.390 . S
C639 H632 0.950 . S
C639 C636 1.387 . S
C640 C641 1.387 1_455 S
C640 H644 0.950 . S
C640 C649 1.390 . S
C641 C640 1.387 1_655 S
C641 C643 1.387 . S
H642 C649 0.950 . S
C643 C641 1.387 . S
C643 C645 1.390 . S
C643 H647 0.950 . S
H644 C640 0.950 . S
C645 C643 1.390 . S
C645 C646 1.387 . S
C645 H648 0.950 . S
C646 C645 1.387 . S
C646 C649 1.387 1_655 S
H647 C643 0.950 . S
H648 C645 0.950 . S
C649 C640 1.390 . S
C649 H642 0.950 . S
C649 C646 1.387 1_455 S
C650 C651 1.387 . S
C650 H654 0.950 . S
C650 C659 1.390 . S
C651 C650 1.387 . S
C651 C653 1.387 1_565 S
H652 C659 0.950 . S
C653 C651 1.387 1_545 S
C653 C655 1.390 . S
C653 H657 0.950 . S
H654 C650 0.950 . S
C655 C653 1.390 . S
C655 C656 1.387 1_545 S
C655 H658 0.950 . S
C656 C655 1.387 1_565 S
C656 C659 1.387 . S
H657 C653 0.950 . S
H658 C655 0.950 . S
C659 C650 1.390 . S
C659 H652 0.950 . S
C659 C656 1.387 . S
C660 C661 1.387 . S
C660 H664 0.950 . S
C660 C669 1.390 . S
C661 C660 1.387 . S
C661 C663 1.387 . S
H662 C669 0.950 . S
C663 C661 1.387 . S
C663 C665 1.390 . S
C663 H667 0.950 . S
H664 C660 0.950 . S
C665 C663 1.390 . S
C665 C666 1.387 . S
C665 H668 0.950 . S
C666 C665 1.387 . S
C666 C669 1.387 . S
H667 C663 0.950 . S
H668 C665 0.950 . S
C669 C660 1.390 . S
C669 H662 0.950 . S
C669 C666 1.387 . S
C670 C671 1.387 . S
C670 H674 0.950 . S
C670 C679 1.390 . S
C671 C670 1.387 . S
C671 C673 1.387 . S
H672 C679 0.950 . S
C673 C671 1.387 . S
C673 C675 1.390 . S
C673 H677 0.950 . S
H674 C670 0.950 . S
C675 C673 1.390 . S
C675 C676 1.387 . S
C675 H678 0.950 . S
C676 C675 1.387 . S
C676 C679 1.387 . S
H677 C673 0.950 . S
H678 C675 0.950 . S
C679 C670 1.390 . S
C679 H672 0.950 . S
C679 C676 1.387 . S
C441 C82 1.808 . S
C446 C167 2.176 . S
C456 C244 2.179 . S
C451 C95 1.807 . S
C466 C335 2.176 . S
C461 C56 1.800 . S
C476 C419 2.164 . S
C471 C69 1.796 . S
C486 C178 2.172 1_564 S
C481 C30 1.773 . S
C491 C43 1.771 . S
C496 C255 2.179 1_554 S
C501 C4 1.771 . S
C506 C346 2.176 1_554 S
C511 C17 1.764 . S
C516 C430 2.165 1_654 S
C526 C162 0.770 . S
C521 C74 0.773 . S
C536 C257 0.755 1_545 S
C531 C87 0.758 . S
C546 C330 0.779 . S
C541 C100 0.780 . S
C551 C61 0.762 . S
C556 C414 0.761 . S
C561 C22 0.767 . S
C566 C173 0.773 . S
C576 C246 0.756 . S
C571 C35 0.757 . S
C586 C341 0.777 . S
C581 C48 0.777 . S
C591 C9 0.760 . S
C596 C425 0.757 . S
C601 C73 2.030 . S
C606 C171 2.287 . S
C611 C86 2.034 . S
C616 C262 2.334 . S
C626 C339 2.301 . S
C621 C99 2.040 . S
C636 C423 2.306 . S
C631 C60 2.049 . S
C641 C21 2.030 . S
C646 C160 2.287 . S
C656 C251 2.334 1_565 S
C651 C34 2.032 . S
C666 C328 2.301 . S
C661 C47 2.039 . S
C671 C8 2.047 . S
C676 C412 2.306 . S
