# Generated by pormake.
# Topology eea, (3,6)-cn, num edge types: 1
# Building blocks:
#     Node 0, Type 0, BuildingBlock: KAKCAD_clean_linker_0, # of connection points: 3
#     Node 1, Type 0, BuildingBlock: KAKCAD_clean_linker_0, # of connection points: 3
#     Node 2, Type 0, BuildingBlock: KAKCAD_clean_linker_0, # of connection points: 3
#     Node 3, Type 0, BuildingBlock: KAKCAD_clean_linker_0, # of connection points: 3
#     Node 4, Type 0, BuildingBlock: KAKCAD_clean_linker_0, # of connection points: 3
#     Node 5, Type 0, BuildingBlock: KAKCAD_clean_linker_0, # of connection points: 3
#     Node 6, Type 0, BuildingBlock: KAKCAD_clean_linker_0, # of connection points: 3
#     Node 7, Type 0, BuildingBlock: KAKCAD_clean_linker_0, # of connection points: 3
#     Node 8, Type 0, BuildingBlock: KAKCAD_clean_linker_0, # of connection points: 3
#     Node 9, Type 0, BuildingBlock: KAKCAD_clean_linker_0, # of connection points: 3
#     Node 10, Type 0, BuildingBlock: KAKCAD_clean_linker_0, # of connection points: 3
#     Node 11, Type 0, BuildingBlock: KAKCAD_clean_linker_0, # of connection points: 3
#     Node 12, Type 0, BuildingBlock: KAKCAD_clean_linker_0, # of connection points: 3
#     Node 13, Type 0, BuildingBlock: KAKCAD_clean_linker_0, # of connection points: 3
#     Node 14, Type 0, BuildingBlock: KAKCAD_clean_linker_0, # of connection points: 3
#     Node 15, Type 0, BuildingBlock: KAKCAD_clean_linker_0, # of connection points: 3
#     Node 16, Type 0, BuildingBlock: KAKCAD_clean_linker_0, # of connection points: 3
#     Node 17, Type 0, BuildingBlock: KAKCAD_clean_linker_0, # of connection points: 3
#     Node 18, Type 1, BuildingBlock: HISSIN_clean_sbu_0, # of connection points: 6
#     Node 19, Type 1, BuildingBlock: HISSIN_clean_sbu_0, # of connection points: 6
#     Node 20, Type 1, BuildingBlock: HISSIN_clean_sbu_0, # of connection points: 6
#     Node 21, Type 1, BuildingBlock: HISSIN_clean_sbu_0, # of connection points: 6
#     Node 22, Type 1, BuildingBlock: HISSIN_clean_sbu_0, # of connection points: 6
#     Node 23, Type 1, BuildingBlock: HISSIN_clean_sbu_0, # of connection points: 6
#     Node 24, Type 1, BuildingBlock: HISSIN_clean_sbu_0, # of connection points: 6
#     Node 25, Type 1, BuildingBlock: HISSIN_clean_sbu_0, # of connection points: 6
#     Node 26, Type 1, BuildingBlock: HISSIN_clean_sbu_0, # of connection points: 6
#     Edge 27, Type (0, 1), BuildingBlock: UVAHIK_clean_linker_0, # of connection points: 2
#     Edge 28, Type (0, 1), BuildingBlock: UVAHIK_clean_linker_0, # of connection points: 2
#     Edge 29, Type (0, 1), BuildingBlock: UVAHIK_clean_linker_0, # of connection points: 2
#     Edge 30, Type (0, 1), BuildingBlock: UVAHIK_clean_linker_0, # of connection points: 2
#     Edge 31, Type (0, 1), BuildingBlock: UVAHIK_clean_linker_0, # of connection points: 2
#     Edge 32, Type (0, 1), BuildingBlock: UVAHIK_clean_linker_0, # of connection points: 2
#     Edge 33, Type (0, 1), BuildingBlock: UVAHIK_clean_linker_0, # of connection points: 2
#     Edge 34, Type (0, 1), BuildingBlock: UVAHIK_clean_linker_0, # of connection points: 2
#     Edge 35, Type (0, 1), BuildingBlock: UVAHIK_clean_linker_0, # of connection points: 2
#     Edge 36, Type (0, 1), BuildingBlock: UVAHIK_clean_linker_0, # of connection points: 2
#     Edge 37, Type (0, 1), BuildingBlock: UVAHIK_clean_linker_0, # of connection points: 2
#     Edge 38, Type (0, 1), BuildingBlock: UVAHIK_clean_linker_0, # of connection points: 2
#     Edge 39, Type (0, 1), BuildingBlock: UVAHIK_clean_linker_0, # of connection points: 2
#     Edge 40, Type (0, 1), BuildingBlock: UVAHIK_clean_linker_0, # of connection points: 2
#     Edge 41, Type (0, 1), BuildingBlock: UVAHIK_clean_linker_0, # of connection points: 2
#     Edge 42, Type (0, 1), BuildingBlock: UVAHIK_clean_linker_0, # of connection points: 2
#     Edge 43, Type (0, 1), BuildingBlock: UVAHIK_clean_linker_0, # of connection points: 2
#     Edge 44, Type (0, 1), BuildingBlock: UVAHIK_clean_linker_0, # of connection points: 2
#     Edge 45, Type (0, 1), BuildingBlock: UVAHIK_clean_linker_0, # of connection points: 2
#     Edge 46, Type (0, 1), BuildingBlock: UVAHIK_clean_linker_0, # of connection points: 2
#     Edge 47, Type (0, 1), BuildingBlock: UVAHIK_clean_linker_0, # of connection points: 2
#     Edge 48, Type (0, 1), BuildingBlock: UVAHIK_clean_linker_0, # of connection points: 2
#     Edge 49, Type (0, 1), BuildingBlock: UVAHIK_clean_linker_0, # of connection points: 2
#     Edge 50, Type (0, 1), BuildingBlock: UVAHIK_clean_linker_0, # of connection points: 2
#     Edge 51, Type (0, 1), BuildingBlock: UVAHIK_clean_linker_0, # of connection points: 2
#     Edge 52, Type (0, 1), BuildingBlock: UVAHIK_clean_linker_0, # of connection points: 2
#     Edge 53, Type (0, 1), BuildingBlock: UVAHIK_clean_linker_0, # of connection points: 2
#     Edge 54, Type (0, 1), BuildingBlock: UVAHIK_clean_linker_0, # of connection points: 2
#     Edge 55, Type (0, 1), BuildingBlock: UVAHIK_clean_linker_0, # of connection points: 2
#     Edge 56, Type (0, 1), BuildingBlock: UVAHIK_clean_linker_0, # of connection points: 2
#     Edge 57, Type (0, 1), BuildingBlock: UVAHIK_clean_linker_0, # of connection points: 2
#     Edge 58, Type (0, 1), BuildingBlock: UVAHIK_clean_linker_0, # of connection points: 2
#     Edge 59, Type (0, 1), BuildingBlock: UVAHIK_clean_linker_0, # of connection points: 2
#     Edge 60, Type (0, 1), BuildingBlock: UVAHIK_clean_linker_0, # of connection points: 2
#     Edge 61, Type (0, 1), BuildingBlock: UVAHIK_clean_linker_0, # of connection points: 2
#     Edge 62, Type (0, 1), BuildingBlock: UVAHIK_clean_linker_0, # of connection points: 2
#     Edge 63, Type (0, 1), BuildingBlock: UVAHIK_clean_linker_0, # of connection points: 2
#     Edge 64, Type (0, 1), BuildingBlock: UVAHIK_clean_linker_0, # of connection points: 2
#     Edge 65, Type (0, 1), BuildingBlock: UVAHIK_clean_linker_0, # of connection points: 2
#     Edge 66, Type (0, 1), BuildingBlock: UVAHIK_clean_linker_0, # of connection points: 2
#     Edge 67, Type (0, 1), BuildingBlock: UVAHIK_clean_linker_0, # of connection points: 2
#     Edge 68, Type (0, 1), BuildingBlock: UVAHIK_clean_linker_0, # of connection points: 2
#     Edge 69, Type (0, 1), BuildingBlock: UVAHIK_clean_linker_0, # of connection points: 2
#     Edge 70, Type (0, 1), BuildingBlock: UVAHIK_clean_linker_0, # of connection points: 2
#     Edge 71, Type (0, 1), BuildingBlock: UVAHIK_clean_linker_0, # of connection points: 2
#     Edge 72, Type (0, 1), BuildingBlock: UVAHIK_clean_linker_0, # of connection points: 2
#     Edge 73, Type (0, 1), BuildingBlock: UVAHIK_clean_linker_0, # of connection points: 2
#     Edge 74, Type (0, 1), BuildingBlock: UVAHIK_clean_linker_0, # of connection points: 2
#     Edge 75, Type (0, 1), BuildingBlock: UVAHIK_clean_linker_0, # of connection points: 2
#     Edge 76, Type (0, 1), BuildingBlock: UVAHIK_clean_linker_0, # of connection points: 2
#     Edge 77, Type (0, 1), BuildingBlock: UVAHIK_clean_linker_0, # of connection points: 2
#     Edge 78, Type (0, 1), BuildingBlock: UVAHIK_clean_linker_0, # of connection points: 2
#     Edge 79, Type (0, 1), BuildingBlock: UVAHIK_clean_linker_0, # of connection points: 2
#     Edge 80, Type (0, 1), BuildingBlock: UVAHIK_clean_linker_0, # of connection points: 2
# Relax obj value: 0.034
# Max RMSD: 0.135
# Mean RMSD: 0.066
data_MOF--net-eea--node1-HISSIN_clean_sbu_0--node2-KAKCAD_clean_linker_0--edge1-UVAHIK_clean_linker_0
_symmetry_space_group_name_H-M    P1
_symmetry_Int_Tables_number       1
_symmetry_cell_setting            triclinic
loop_
_symmetry_equiv_pos_as_xyz
'x, y, z'
_cell_length_a     77.90617
_cell_length_b     77.963206
_cell_length_c     108.54669
_cell_angle_alpha  93.682621
_cell_angle_beta   93.491368
_cell_angle_gamma 119.83453
loop_
_atom_site_label
_atom_site_type_symbol
_atom_site_fract_x
_atom_site_fract_y
_atom_site_fract_z
_atom_type_partial_charge
C0 C 0.31041 0.17157 0.46096 0.0
C1 C 0.32313 0.16512 0.46575 0.0
C2 C 0.3048 0.1689 0.44822 0.0
C3 C 0.31193 0.15987 0.43994 0.0
C4 C 0.32501 0.15381 0.44473 0.0
C5 C 0.33049 0.15633 0.45751 0.0
C6 C 0.30495 0.15601 0.42645 0.0
C7 C 0.3018 0.1698 0.42046 0.0
C8 C 0.29325 0.1654 0.40807 0.0
C9 C 0.28871 0.14729 0.40146 0.0
C10 C 0.29202 0.13339 0.40723 0.0
C11 C 0.30009 0.13789 0.41973 0.0
C12 C 0.28578 0.11361 0.40052 0.0
C13 C 0.26773 0.10321 0.39276 0.0
C14 C 0.29735 0.10454 0.40231 0.0
C15 C 0.29072 0.08531 0.39678 0.0
C16 C 0.27248 0.0748 0.38925 0.0
C17 C 0.28758 0.17898 0.40238 0.0
C18 C 0.27918 0.18811 0.40943 0.0
C19 C 0.28953 0.18214 0.3898 0.0
C20 C 0.28286 0.19385 0.38436 0.0
C21 C 0.27426 0.20276 0.39141 0.0
C22 C 0.27267 0.19991 0.40403 0.0
C23 C 0.2612 0.08405 0.38714 0.0
H24 H 0.30428 0.17813 0.46711 0.0
H25 H 0.29439 0.17338 0.4449 0.0
H26 H 0.331 0.14706 0.4386 0.0
H27 H 0.3405 0.15143 0.46095 0.0
H28 H 0.3058 0.18395 0.42551 0.0
H29 H 0.30165 0.12681 0.42442 0.0
H30 H 0.28203 0.14373 0.39193 0.0
H31 H 0.25826 0.10956 0.39134 0.0
H32 H 0.31148 0.11226 0.40807 0.0
H33 H 0.29982 0.0786 0.39843 0.0
H34 H 0.27702 0.18566 0.41906 0.0
H35 H 0.29615 0.17551 0.38414 0.0
H36 H 0.24695 0.0762 0.38151 0.0
H37 H 0.26579 0.20629 0.40965 0.0
H38 H 0.28443 0.19597 0.37464 0.0
C39 C 0.88102 0.18684 0.46645 0.0
C40 C 0.87839 0.17375 0.47541 0.0
C41 C 0.8822 0.18166 0.45407 0.0
C42 C 0.88031 0.16312 0.45044 0.0
C43 C 0.8777 0.15007 0.45941 0.0
C44 C 0.87692 0.1554 0.4718 0.0
C45 C 0.88064 0.15709 0.4373 0.0
C46 C 0.8967 0.16905 0.43078 0.0
C47 C 0.89756 0.16276 0.4185 0.0
C48 C 0.88181 0.14445 0.41275 0.0
C49 C 0.86562 0.13231 0.41917 0.0
C50 C 0.86518 0.13883 0.43144 0.0
C51 C 0.84958 0.1125 0.41324 0.0
C52 C 0.84252 0.10973 0.40061 0.0
C53 C 0.84151 0.09604 0.42013 0.0
C54 C 0.82685 0.0773 0.41454 0.0
C55 C 0.82003 0.07451 0.4019 0.0
C56 C 0.9153 0.17477 0.4119 0.0
C57 C 0.92508 0.19569 0.41334 0.0
C58 C 0.92287 0.16536 0.40428 0.0
C59 C 0.93972 0.17653 0.39826 0.0
C60 C 0.94958 0.1974 0.39983 0.0
C61 C 0.9421 0.20688 0.40742 0.0
C62 C 0.82796 0.09092 0.39499 0.0
H63 H 0.88224 0.20109 0.46904 0.0
H64 H 0.88416 0.19192 0.44728 0.0
H65 H 0.87632 0.13574 0.45683 0.0
H66 H 0.87472 0.14499 0.47852 0.0
H67 H 0.90891 0.18284 0.43549 0.0
H68 H 0.85268 0.12977 0.43648 0.0
H69 H 0.88234 0.13944 0.40331 0.0
H70 H 0.84817 0.12213 0.39507 0.0
H71 H 0.84684 0.09751 0.42981 0.0
H72 H 0.82122 0.06486 0.42005 0.0
H73 H 0.91953 0.20344 0.41899 0.0
H74 H 0.91605 0.14932 0.40316 0.0
H75 H 0.82282 0.08924 0.38525 0.0
H76 H 0.94932 0.22295 0.40869 0.0
H77 H 0.94534 0.16884 0.39262 0.0
C78 C 0.88839 0.73107 0.47385 0.0
C79 C 0.86885 0.71821 0.47652 0.0
C80 C 0.89192 0.73922 0.46253 0.0
C81 C 0.876 0.73464 0.45357 0.0
C82 C 0.8565 0.72143 0.45613 0.0
C83 C 0.85296 0.71336 0.46747 0.0
C84 C 0.87971 0.74411 0.44178 0.0
C85 C 0.89608 0.74705 0.4355 0.0
C86 C 0.90021 0.75682 0.42466 0.0
C87 C 0.88731 0.76321 0.42 0.0
C88 C 0.87061 0.76003 0.42597 0.0
C89 C 0.86708 0.75066 0.43692 0.0
C90 C 0.85682 0.76643 0.42073 0.0
C91 C 0.86417 0.78438 0.41532 0.0
C92 C 0.83612 0.75441 0.42088 0.0
C93 C 0.82311 0.76009 0.41565 0.0
C94 C 0.83048 0.77784 0.41005 0.0
C95 C 0.91813 0.76069 0.41833 0.0
C96 C 0.93597 0.76505 0.42524 0.0
C97 C 0.91775 0.76063 0.40535 0.0
C98 C 0.93484 0.76541 0.3995 0.0
C99 C 0.95274 0.76993 0.40641 0.0
C100 C 0.95294 0.76938 0.41936 0.0
C101 C 0.85115 0.78996 0.40999 0.0
H102 H 0.90101 0.73492 0.48051 0.0
H103 H 0.90712 0.74947 0.46093 0.0
H104 H 0.8439 0.71736 0.44939 0.0
H105 H 0.83771 0.70367 0.46924 0.0
H106 H 0.90545 0.74144 0.43898 0.0
H107 H 0.85475 0.74894 0.44187 0.0
H108 H 0.89026 0.77074 0.41169 0.0
H109 H 0.88002 0.79422 0.41526 0.0
H110 H 0.82989 0.74035 0.42479 0.0
H111 H 0.80724 0.75034 0.41571 0.0
H112 H 0.93703 0.7655 0.43526 0.0
H113 H 0.90426 0.75695 0.39962 0.0
H114 H 0.85726 0.80386 0.40589 0.0
H115 H 0.96623 0.77233 0.42504 0.0
H116 H 0.93401 0.76589 0.38955 0.0
C117 C 0.12789 0.25806 0.52964 0.0
C118 C 0.12584 0.27453 0.52738 0.0
C119 C 0.12422 0.25037 0.54107 0.0
C120 C 0.11829 0.25888 0.5505 0.0
C121 C 0.11605 0.27524 0.54822 0.0
C122 C 0.11991 0.28308 0.5368 0.0
C123 C 0.11463 0.25064 0.56266 0.0
C124 C 0.12801 0.24575 0.56845 0.0
C125 C 0.12438 0.23705 0.57965 0.0
C126 C 0.10698 0.23311 0.585 0.0
C127 C 0.0935 0.23802 0.57939 0.0
C128 C 0.09753 0.24703 0.56831 0.0
C129 C 0.07489 0.23306 0.58496 0.0
C130 C 0.06238 0.21366 0.5879 0.0
C131 C 0.06964 0.24765 0.58752 0.0
C132 C 0.05236 0.24298 0.59316 0.0
C133 C 0.03984 0.22355 0.59608 0.0
C134 C 0.13869 0.23198 0.58569 0.0
C135 C 0.14734 0.22319 0.57857 0.0
C136 C 0.14389 0.23599 0.59861 0.0
C137 C 0.15749 0.2314 0.60426 0.0
C138 C 0.16617 0.22263 0.59713 0.0
C139 C 0.1609 0.21855 0.58422 0.0
C140 C 0.04494 0.20891 0.59331 0.0
H141 H 0.13262 0.25127 0.52263 0.0
H142 H 0.12588 0.23762 0.5425 0.0
H143 H 0.11159 0.28216 0.55534 0.0
H144 H 0.11809 0.2957 0.53528 0.0
H145 H 0.14149 0.24902 0.56432 0.0
H146 H 0.08694 0.25045 0.56383 0.0
H147 H 0.10382 0.22607 0.59352 0.0
H148 H 0.06606 0.20213 0.58595 0.0
H149 H 0.07909 0.26272 0.58537 0.0
H150 H 0.04869 0.2545 0.59516 0.0
H151 H 0.1435 0.21973 0.56861 0.0
H152 H 0.13762 0.24291 0.60434 0.0
H153 H 0.03561 0.19385 0.59554 0.0
H154 H 0.16745 0.21198 0.57845 0.0
H155 H 0.16108 0.23455 0.61424 0.0
C156 C 0.67196 0.81369 0.54509 0.0
C157 C 0.68207 0.82941 0.53787 0.0
C158 C 0.67632 0.81671 0.55802 0.0
C159 C 0.6906 0.83557 0.56391 0.0
C160 C 0.70055 0.85128 0.55666 0.0
C161 C 0.69639 0.84821 0.54378 0.0
C162 C 0.69566 0.839 0.57755 0.0
C163 C 0.70044 0.82644 0.58372 0.0
C164 C 0.70751 0.83096 0.59642 0.0
C165 C 0.70948 0.84817 0.60291 0.0
C166 C 0.70475 0.86092 0.59684 0.0
C167 C 0.69746 0.85593 0.5842 0.0
C168 C 0.70898 0.88023 0.60338 0.0
C169 C 0.70638 0.88202 0.61602 0.0
C170 C 0.71657 0.89733 0.59705 0.0
C171 C 0.72147 0.91569 0.60319 0.0
C172 C 0.71922 0.91751 0.61584 0.0
C173 C 0.71437 0.81863 0.60259 0.0
C174 C 0.70397 0.7978 0.5999 0.0
C175 C 0.73193 0.82771 0.61084 0.0
C176 C 0.73902 0.81629 0.61614 0.0
C177 C 0.72886 0.79555 0.61324 0.0
C178 C 0.71119 0.78639 0.60513 0.0
C179 C 0.71161 0.90053 0.62222 0.0
H180 H 0.66091 0.79903 0.54073 0.0
H181 H 0.66845 0.80437 0.56342 0.0
H182 H 0.7118 0.86591 0.56096 0.0
H183 H 0.70426 0.86063 0.53844 0.0
H184 H 0.69976 0.81378 0.57846 0.0
H185 H 0.69346 0.86543 0.57942 0.0
H186 H 0.71534 0.85197 0.61261 0.0
H187 H 0.70034 0.86915 0.62115 0.0
H188 H 0.71932 0.89672 0.58742 0.0
H189 H 0.72764 0.92863 0.59811 0.0
H190 H 0.69027 0.79032 0.59371 0.0
H191 H 0.74057 0.84372 0.61292 0.0
H192 H 0.70967 0.90159 0.63199 0.0
H193 H 0.70295 0.77039 0.60283 0.0
H194 H 0.75285 0.82378 0.62222 0.0
C195 C 0.11777 0.82845 0.53778 0.0
C196 C 0.13707 0.83444 0.53468 0.0
C197 C 0.1146 0.83179 0.55004 0.0
C198 C 0.13066 0.84107 0.55944 0.0
C199 C 0.14982 0.84628 0.55638 0.0
C200 C 0.15299 0.84308 0.54414 0.0
C201 C 0.12774 0.84636 0.57226 0.0
C202 C 0.11097 0.83335 0.57794 0.0
C203 C 0.10812 0.83872 0.58995 0.0
C204 C 0.12239 0.85725 0.59628 0.0
C205 C 0.13917 0.87047 0.59073 0.0
C206 C 0.14165 0.8649 0.57871 0.0
C207 C 0.15383 0.89037 0.59728 0.0
C208 C 0.14744 0.90158 0.60426 0.0
C209 C 0.17431 0.89856 0.5963 0.0
C210 C 0.188 0.91766 0.60191 0.0
C211 C 0.18155 0.92891 0.60873 0.0
C212 C 0.08996 0.82542 0.59577 0.0
C213 C 0.07118 0.8156 0.58879 0.0
C214 C 0.09112 0.82324 0.60851 0.0
C215 C 0.07389 0.81199 0.6142 0.0
C216 C 0.0551 0.80256 0.60726 0.0
C217 C 0.05395 0.80427 0.59447 0.0
C218 C 0.16117 0.92061 0.60997 0.0
H219 H 0.10524 0.82187 0.53066 0.0
H220 H 0.09969 0.82776 0.55206 0.0
H221 H 0.16244 0.85305 0.56344 0.0
H222 H 0.16797 0.8475 0.54206 0.0
H223 H 0.10025 0.81893 0.57309 0.0
H224 H 0.15413 0.87537 0.57417 0.0
H225 H 0.12027 0.86152 0.60551 0.0
H226 H 0.13178 0.89589 0.60504 0.0
H227 H 0.17978 0.8902 0.59119 0.0
H228 H 0.20366 0.92362 0.60095 0.0
H229 H 0.06973 0.81718 0.579 0.0
H230 H 0.10538 0.83031 0.61412 0.0
H231 H 0.15577 0.92906 0.61506 0.0
H232 H 0.03966 0.79734 0.5889 0.0
H233 H 0.07528 0.81066 0.62403 0.0
C234 C 0.9786 0.50637 0.79455 0.0
C235 C 0.99149 0.50016 0.79939 0.0
C236 C 0.97304 0.50362 0.7818 0.0
C237 C 0.98038 0.49476 0.77356 0.0
C238 C 0.99364 0.48895 0.77841 0.0
C239 C 0.99906 0.49154 0.7912 0.0
C240 C 0.97343 0.49078 0.76007 0.0
C241 C 0.96998 0.50436 0.75404 0.0
C242 C 0.96137 0.49979 0.74166 0.0
C243 C 0.9571 0.48174 0.7351 0.0
C244 C 0.9607 0.46806 0.74089 0.0
C245 C 0.96882 0.47271 0.75339 0.0
C246 C 0.95465 0.44829 0.73425 0.0
C247 C 0.93655 0.43767 0.72654 0.0
C248 C 0.96643 0.43946 0.73603 0.0
C249 C 0.95997 0.42024 0.73055 0.0
C250 C 0.94169 0.40951 0.72309 0.0
C251 C 0.95529 0.51305 0.73595 0.0
C252 C 0.94659 0.52188 0.74299 0.0
C253 C 0.95708 0.51616 0.72335 0.0
C254 C 0.94997 0.52751 0.71789 0.0
C255 C 0.94108 0.5361 0.72494 0.0
C256 C 0.93964 0.53331 0.73757 0.0
C257 C 0.93019 0.41853 0.72098 0.0
H258 H 0.9723 0.51279 0.80067 0.0
H259 H 0.96248 0.50791 0.77844 0.0
H260 H 0.99978 0.48233 0.77232 0.0
H261 H 0.0092 0.48682 0.79468 0.0
H262 H 0.97377 0.51847 0.75906 0.0
H263 H 0.97059 0.46177 0.75811 0.0
H264 H 0.95036 0.47805 0.72557 0.0
H265 H 0.92691 0.44384 0.72514 0.0
H266 H 0.98059 0.44735 0.74175 0.0
H267 H 0.96923 0.4137 0.73221 0.0
H268 H 0.94454 0.51945 0.75264 0.0
H269 H 0.96392 0.50976 0.7177 0.0
H270 H 0.9159 0.4105 0.7154 0.0
H271 H 0.93255 0.53945 0.74319 0.0
H272 H 0.95144 0.52959 0.70816 0.0
C273 C 0.54634 0.52221 0.79843 0.0
C274 C 0.54284 0.50845 0.80707 0.0
C275 C 0.54752 0.51742 0.78598 0.0
C276 C 0.54478 0.49865 0.78196 0.0
C277 C 0.54126 0.48492 0.79061 0.0
C278 C 0.54046 0.48983 0.80307 0.0
C279 C 0.54539 0.49316 0.76876 0.0
C280 C 0.56194 0.50511 0.76261 0.0
C281 C 0.56316 0.4992 0.75032 0.0
C282 C 0.54731 0.4813 0.7442 0.0
C283 C 0.53061 0.46917 0.75024 0.0
C284 C 0.52979 0.47533 0.76252 0.0
C285 C 0.51452 0.44967 0.74394 0.0
C286 C 0.50839 0.44737 0.73117 0.0
C287 C 0.50554 0.433 0.75061 0.0
C288 C 0.49092 0.41452 0.74467 0.0
C289 C 0.4851 0.41218 0.7319 0.0
C290 C 0.58136 0.51114 0.74411 0.0
C291 C 0.59156 0.53206 0.74583 0.0
C292 C 0.58892 0.50163 0.73658 0.0
C293 C 0.60616 0.51272 0.73089 0.0
C294 C 0.61641 0.53358 0.7327 0.0
C295 C 0.60896 0.54316 0.74023 0.0
C296 C 0.49392 0.42878 0.7252 0.0
H297 H 0.54828 0.53667 0.80133 0.0
H298 H 0.55022 0.52821 0.77944 0.0
H299 H 0.53923 0.4704 0.78773 0.0
H300 H 0.53759 0.47892 0.80954 0.0
H301 H 0.57425 0.51854 0.76761 0.0
H302 H 0.51693 0.4663 0.76729 0.0
H303 H 0.54817 0.47658 0.73476 0.0
H304 H 0.51472 0.45992 0.72578 0.0
H305 H 0.51014 0.43408 0.76038 0.0
H306 H 0.48457 0.40189 0.75001 0.0
H307 H 0.58604 0.53988 0.75143 0.0
H308 H 0.58177 0.48556 0.73527 0.0
H309 H 0.48955 0.4274 0.71536 0.0
H310 H 0.61649 0.55925 0.74169 0.0
H311 H 0.61175 0.50494 0.72529 0.0
C312 C 0.55212 0.06203 0.80638 0.0
C313 C 0.53239 0.04849 0.8083 0.0
C314 C 0.55642 0.07099 0.79535 0.0
C315 C 0.54109 0.06653 0.78595 0.0
C316 C 0.52141 0.0525 0.78775 0.0
C317 C 0.51711 0.04365 0.79881 0.0
C318 C 0.54551 0.0772 0.77462 0.0
C319 C 0.56283 0.08174 0.76892 0.0
C320 C 0.56773 0.09292 0.75867 0.0
C321 C 0.55484 0.09941 0.75414 0.0
C322 C 0.53717 0.0944 0.75943 0.0
C323 C 0.53265 0.0834 0.76966 0.0
C324 C 0.52326 0.10046 0.75414 0.0
C325 C 0.53011 0.12032 0.75203 0.0
C326 C 0.50305 0.08626 0.75097 0.0
C327 C 0.49 0.09175 0.74557 0.0
C328 C 0.49683 0.1116 0.74346 0.0
C329 C 0.58617 0.09778 0.75267 0.0
C330 C 0.60363 0.10138 0.75974 0.0
C331 C 0.58655 0.09902 0.7398 0.0
C332 C 0.60392 0.10411 0.73422 0.0
C333 C 0.62137 0.10767 0.74126 0.0
C334 C 0.62089 0.10605 0.7541 0.0
C335 C 0.51696 0.12588 0.74684 0.0
H336 H 0.5642 0.06621 0.81357 0.0
H337 H 0.57171 0.08192 0.79437 0.0
H338 H 0.50927 0.0484 0.78063 0.0
H339 H 0.50179 0.03302 0.79994 0.0
H340 H 0.57229 0.07621 0.77236 0.0
H341 H 0.51934 0.08021 0.77399 0.0
H342 H 0.55841 0.1083 0.74641 0.0
H343 H 0.54561 0.13155 0.75445 0.0
H344 H 0.49745 0.07083 0.75244 0.0
H345 H 0.47452 0.08049 0.74311 0.0
H346 H 0.60412 0.10085 0.76969 0.0
H347 H 0.57338 0.09598 0.73395 0.0
H348 H 0.52261 0.14127 0.74523 0.0
H349 H 0.63382 0.10829 0.75986 0.0
H350 H 0.60363 0.10548 0.72436 0.0
C351 C 0.79546 0.59286 0.86269 0.0
C352 C 0.7934 0.60936 0.86054 0.0
C353 C 0.79166 0.58493 0.87405 0.0
C354 C 0.78557 0.59322 0.8835 0.0
C355 C 0.78333 0.60962 0.88134 0.0
C356 C 0.78733 0.6177 0.86999 0.0
C357 C 0.7817 0.58471 0.89557 0.0
C358 C 0.79505 0.57981 0.9014 0.0
C359 C 0.79124 0.57086 0.91251 0.0
C360 C 0.77367 0.56669 0.91773 0.0
C361 C 0.76026 0.57169 0.91212 0.0
C362 C 0.76447 0.58091 0.90111 0.0
C363 C 0.74161 0.56676 0.91764 0.0
C364 C 0.72902 0.54736 0.92056 0.0
C365 C 0.73644 0.5814 0.9202 0.0
C366 C 0.71916 0.57679 0.92581 0.0
C367 C 0.70656 0.55737 0.92871 0.0
C368 C 0.80559 0.56588 0.91863 0.0
C369 C 0.81508 0.558 0.91154 0.0
C370 C 0.81005 0.56915 0.93162 0.0
C371 C 0.82369 0.56467 0.93736 0.0
C372 C 0.83324 0.55689 0.93025 0.0
C373 C 0.82876 0.55359 0.91728 0.0
C374 C 0.71157 0.54267 0.92595 0.0
H375 H 0.80029 0.58622 0.85564 0.0
H376 H 0.79333 0.57217 0.8754 0.0
H377 H 0.77875 0.61637 0.88849 0.0
H378 H 0.78549 0.63034 0.86857 0.0
H379 H 0.80866 0.58331 0.89736 0.0
H380 H 0.75394 0.5844 0.89662 0.0
H381 H 0.77034 0.55946 0.92618 0.0
H382 H 0.73264 0.53579 0.91861 0.0
H383 H 0.74596 0.59648 0.91807 0.0
H384 H 0.71556 0.58837 0.92781 0.0
H385 H 0.81175 0.55499 0.90154 0.0
H386 H 0.80326 0.57549 0.93735 0.0
H387 H 0.70218 0.52762 0.92816 0.0
H388 H 0.83565 0.54733 0.91155 0.0
H389 H 0.82702 0.56764 0.94736 0.0
C390 C 0.33551 0.14091 0.87869 0.0
C391 C 0.34671 0.15519 0.87083 0.0
C392 C 0.33992 0.14529 0.89159 0.0
C393 C 0.35531 0.16414 0.8968 0.0
C394 C 0.36626 0.17848 0.88893 0.0
C395 C 0.36208 0.17401 0.87607 0.0
C396 C 0.3606 0.16879 0.9104 0.0
C397 C 0.36451 0.15623 0.91725 0.0
C398 C 0.37169 0.16161 0.92991 0.0
C399 C 0.37455 0.17963 0.93571 0.0
C400 C 0.37069 0.19239 0.92898 0.0
C401 C 0.36346 0.18666 0.91635 0.0
C402 C 0.37563 0.21231 0.93489 0.0
C403 C 0.37281 0.21508 0.9474 0.0
C404 C 0.38411 0.22895 0.92817 0.0
C405 C 0.38975 0.24785 0.9338 0.0
C406 C 0.38733 0.25063 0.94634 0.0
C407 C 0.3778 0.14924 0.93673 0.0
C408 C 0.3667 0.12835 0.93464 0.0
C409 C 0.39544 0.15829 0.94491 0.0
C410 C 0.40201 0.14678 0.95065 0.0
C411 C 0.39122 0.12596 0.94826 0.0
C412 C 0.37339 0.11683 0.9403 0.0
C413 C 0.37875 0.23408 0.95309 0.0
H414 H 0.32362 0.12629 0.87485 0.0
H415 H 0.33129 0.13401 0.8975 0.0
H416 H 0.37833 0.19305 0.89271 0.0
H417 H 0.3708 0.18532 0.8702 0.0
H418 H 0.36307 0.14284 0.9125 0.0
H419 H 0.36024 0.19621 0.91103 0.0
H420 H 0.38042 0.18402 0.9454 0.0
H421 H 0.36607 0.20258 0.95281 0.0
H422 H 0.38697 0.22754 0.91863 0.0
H423 H 0.39661 0.26042 0.92845 0.0
H424 H 0.35291 0.12089 0.92854 0.0
H425 H 0.4046 0.17433 0.94655 0.0
H426 H 0.3766 0.23584 0.96275 0.0
H427 H 0.36468 0.10078 0.93841 0.0
H428 H 0.41595 0.15422 0.9566 0.0
C429 C 0.78841 0.15849 0.87269 0.0
C430 C 0.80798 0.16467 0.8701 0.0
C431 C 0.78456 0.16244 0.88465 0.0
C432 C 0.80019 0.17256 0.89427 0.0
C433 C 0.81962 0.17783 0.89178 0.0
C434 C 0.82348 0.174 0.87982 0.0
C435 C 0.79649 0.17904 0.90653 0.0
C436 C 0.77923 0.16667 0.91207 0.0
C437 C 0.77493 0.17355 0.92314 0.0
C438 C 0.78826 0.19305 0.9286 0.0
C439 C 0.80577 0.20531 0.92339 0.0
C440 C 0.80981 0.19824 0.91239 0.0
C441 C 0.81967 0.22574 0.92927 0.0
C442 C 0.81267 0.23881 0.93226 0.0
C443 C 0.84 0.23231 0.93188 0.0
C444 C 0.85312 0.2516 0.93746 0.0
C445 C 0.84617 0.26475 0.94032 0.0
C446 C 0.7564 0.16072 0.92889 0.0
C447 C 0.7385 0.14743 0.92148 0.0
C448 C 0.7563 0.1622 0.94189 0.0
C449 C 0.73868 0.15134 0.94729 0.0
C450 C 0.72089 0.13837 0.93984 0.0
C451 C 0.72095 0.13622 0.92692 0.0
C452 C 0.82584 0.25821 0.93764 0.0
H453 H 0.77619 0.15141 0.86536 0.0
H454 H 0.76945 0.15836 0.88619 0.0
H455 H 0.83194 0.18528 0.89903 0.0
H456 H 0.83866 0.17861 0.87814 0.0
H457 H 0.76928 0.15164 0.90779 0.0
H458 H 0.82297 0.20812 0.90814 0.0
H459 H 0.78503 0.19888 0.93692 0.0
H460 H 0.79707 0.2341 0.93026 0.0
H461 H 0.8457 0.22244 0.92969 0.0
H462 H 0.86876 0.25636 0.93938 0.0
H463 H 0.73784 0.14606 0.91145 0.0
H464 H 0.76983 0.17181 0.94796 0.0
H465 H 0.82013 0.26806 0.93983 0.0
H466 H 0.7073 0.12633 0.92102 0.0
H467 H 0.73895 0.15301 0.95729 0.0
C468 C 0.64482 0.84145 0.12748 0.0
C469 C 0.65708 0.83459 0.13245 0.0
C470 C 0.6392 0.8385 0.11471 0.0
C471 C 0.64584 0.82875 0.10661 0.0
C472 C 0.65855 0.82237 0.11157 0.0
C473 C 0.66405 0.82519 0.12436 0.0
C474 C 0.6387 0.82439 0.09314 0.0
C475 C 0.63619 0.83824 0.08677 0.0
C476 C 0.6278 0.83353 0.07433 0.0
C477 C 0.62257 0.81493 0.06812 0.0
C478 C 0.62516 0.80094 0.07429 0.0
C479 C 0.63318 0.80581 0.0868 0.0
C480 C 0.61839 0.7808 0.06796 0.0
C481 C 0.60038 0.77056 0.06014 0.0
C482 C 0.62948 0.77131 0.07007 0.0
C483 C 0.62247 0.75188 0.06477 0.0
C484 C 0.60431 0.74157 0.05715 0.0
C485 C 0.62317 0.84741 0.06809 0.0
C486 C 0.61538 0.85767 0.07466 0.0
C487 C 0.62547 0.84976 0.05545 0.0
C488 C 0.61966 0.86169 0.04945 0.0
C489 C 0.61158 0.87165 0.056 0.0
C490 C 0.60973 0.8697 0.0687 0.0
C491 C 0.59346 0.75119 0.05476 0.0
H492 H 0.63902 0.84851 0.1335 0.0
H493 H 0.62912 0.8433 0.11125 0.0
H494 H 0.66418 0.81509 0.10558 0.0
H495 H 0.67375 0.81999 0.12792 0.0
H496 H 0.64068 0.85272 0.09153 0.0
H497 H 0.63426 0.79473 0.0918 0.0
H498 H 0.61599 0.81112 0.05856 0.0
H499 H 0.59128 0.77725 0.05848 0.0
H500 H 0.64356 0.77888 0.07588 0.0
H501 H 0.63125 0.74489 0.06664 0.0
H502 H 0.613 0.85591 0.08433 0.0
H503 H 0.63169 0.8423 0.05016 0.0
H504 H 0.57929 0.74351 0.04905 0.0
H505 H 0.60326 0.87694 0.07394 0.0
H506 H 0.62145 0.86312 0.03968 0.0
C507 C 0.21518 0.8559 0.13201 0.0
C508 C 0.21178 0.84234 0.14077 0.0
C509 C 0.21627 0.85087 0.11958 0.0
C510 C 0.21352 0.83205 0.11572 0.0
C511 C 0.2101 0.81852 0.12449 0.0
C512 C 0.2094 0.82368 0.13692 0.0
C513 C 0.21394 0.82627 0.10255 0.0
C514 C 0.23051 0.83789 0.09632 0.0
C515 C 0.2315 0.83172 0.08404 0.0
C516 C 0.21539 0.81392 0.078 0.0
C517 C 0.19866 0.80213 0.08412 0.0
C518 C 0.19809 0.80852 0.09641 0.0
C519 C 0.18224 0.78275 0.0779 0.0
C520 C 0.17599 0.78048 0.06516 0.0
C521 C 0.17304 0.76616 0.08461 0.0
C522 C 0.1581 0.74777 0.07874 0.0
C523 C 0.15216 0.74547 0.06599 0.0
C524 C 0.2497 0.8433 0.07774 0.0
C525 C 0.2603 0.86422 0.07941 0.0
C526 C 0.25687 0.83342 0.07017 0.0
C527 C 0.27411 0.84417 0.0644 0.0
C528 C 0.28475 0.86504 0.06618 0.0
C529 C 0.2777 0.87498 0.07374 0.0
C530 C 0.16119 0.762 0.05926 0.0
H531 H 0.21709 0.8704 0.13479 0.0
H532 H 0.21888 0.8615 0.11295 0.0
H533 H 0.20805 0.80396 0.12172 0.0
H534 H 0.20661 0.81292 0.1435 0.0
H535 H 0.24299 0.85125 0.10125 0.0
H536 H 0.18522 0.79975 0.10124 0.0
H537 H 0.21604 0.80901 0.06857 0.0
H538 H 0.18249 0.793 0.05974 0.0
H539 H 0.17772 0.76721 0.09437 0.0
H540 H 0.1516 0.7352 0.08411 0.0
H541 H 0.25509 0.87233 0.08504 0.0
H542 H 0.24941 0.81734 0.06889 0.0
H543 H 0.15673 0.76065 0.04943 0.0
H544 H 0.28554 0.89108 0.07517 0.0
H545 H 0.27938 0.83613 0.05877 0.0
C546 C 0.22021 0.39706 0.14026 0.0
C547 C 0.20053 0.38432 0.1427 0.0
C548 C 0.22415 0.40527 0.12897 0.0
C549 C 0.20849 0.40084 0.11982 0.0
C550 C 0.18885 0.38763 0.12216 0.0
C551 C 0.18492 0.37954 0.13347 0.0
C552 C 0.21255 0.4105 0.1081 0.0
C553 C 0.2291 0.41356 0.10198 0.0
C554 C 0.23344 0.4234 0.09118 0.0
C555 C 0.22059 0.42977 0.08639 0.0
C556 C 0.20373 0.42648 0.0922 0.0
C557 C 0.20001 0.41705 0.10313 0.0
C558 C 0.18992 0.43278 0.08684 0.0
C559 C 0.19723 0.45078 0.08151 0.0
C560 C 0.16922 0.42066 0.0869 0.0
C561 C 0.15619 0.42635 0.08173 0.0
C562 C 0.16348 0.44425 0.07627 0.0
C563 C 0.2515 0.42732 0.08498 0.0
C564 C 0.26922 0.43159 0.09201 0.0
C565 C 0.25136 0.42733 0.07201 0.0
C566 C 0.26855 0.43207 0.06629 0.0
C567 C 0.28632 0.43648 0.07332 0.0
C568 C 0.2863 0.43589 0.08626 0.0
C569 C 0.18419 0.4564 0.07625 0.0
H570 H 0.23255 0.40118 0.14723 0.0
H571 H 0.23944 0.41557 0.12756 0.0
H572 H 0.17645 0.38355 0.11524 0.0
H573 H 0.16962 0.3695 0.135 0.0
H574 H 0.23842 0.40795 0.10556 0.0
H575 H 0.18756 0.41528 0.10797 0.0
H576 H 0.22369 0.43736 0.0781 0.0
H577 H 0.21308 0.46063 0.08144 0.0
H578 H 0.16301 0.40658 0.09079 0.0
H579 H 0.14037 0.41673 0.08209 0.0
H580 H 0.27011 0.432 0.10203 0.0
H581 H 0.23796 0.42371 0.06619 0.0
H582 H 0.19037 0.47017 0.07201 0.0
H583 H 0.29947 0.43876 0.09203 0.0
H584 H 0.26789 0.43259 0.05634 0.0
C585 C 0.46142 0.92433 0.19624 0.0
C586 C 0.45926 0.94076 0.19404 0.0
C587 C 0.45779 0.91654 0.20764 0.0
C588 C 0.45177 0.9249 0.21711 0.0
C589 C 0.44944 0.94123 0.2149 0.0
C590 C 0.45328 0.94917 0.2035 0.0
C591 C 0.44801 0.91648 0.22921 0.0
C592 C 0.46144 0.91166 0.23503 0.0
C593 C 0.45767 0.90269 0.24613 0.0
C594 C 0.44009 0.89844 0.25136 0.0
C595 C 0.42663 0.9034 0.24577 0.0
C596 C 0.43079 0.91263 0.23477 0.0
C597 C 0.40798 0.89839 0.2513 0.0
C598 C 0.39544 0.87896 0.25419 0.0
C599 C 0.40276 0.91298 0.25392 0.0
C600 C 0.38548 0.90829 0.25956 0.0
C601 C 0.37292 0.88883 0.26242 0.0
C602 C 0.47205 0.89771 0.25223 0.0
C603 C 0.48172 0.89007 0.24509 0.0
C604 C 0.4763 0.90063 0.26523 0.0
C605 C 0.48986 0.89603 0.27094 0.0
C606 C 0.49958 0.88851 0.26379 0.0
C607 C 0.49536 0.88559 0.2508 0.0
C608 C 0.37799 0.87419 0.2596 0.0
H609 H 0.46618 0.91763 0.18918 0.0
H610 H 0.45952 0.90382 0.20902 0.0
H611 H 0.44491 0.94803 0.22205 0.0
H612 H 0.45137 0.96177 0.20205 0.0
H613 H 0.47505 0.91522 0.23097 0.0
H614 H 0.4202 0.91606 0.23028 0.0
H615 H 0.43677 0.89118 0.25979 0.0
H616 H 0.39909 0.86742 0.2522 0.0
H617 H 0.41224 0.92808 0.25182 0.0
H618 H 0.38183 0.91982 0.2616 0.0
H619 H 0.47856 0.88731 0.23508 0.0
H620 H 0.46938 0.90678 0.271 0.0
H621 H 0.36863 0.85911 0.26178 0.0
H622 H 0.5024 0.87954 0.24505 0.0
H623 H 0.49299 0.89869 0.28096 0.0
C624 C 0.00045 0.4729 0.21054 0.0
C625 C 0.00909 0.48782 0.20257 0.0
C626 C 0.00539 0.47754 0.22341 0.0
C627 C 0.01886 0.4972 0.22851 0.0
C628 C 0.02695 0.51217 0.22053 0.0
C629 C 0.02214 0.50752 0.20772 0.0
C630 C 0.02572 0.5021 0.24199 0.0
C631 C 0.03162 0.49032 0.2482 0.0
C632 C 0.04103 0.49651 0.26038 0.0
C633 C 0.04417 0.51441 0.26648 0.0
C634 C 0.03791 0.52617 0.26054 0.0
C635 C 0.02848 0.51973 0.24833 0.0
C636 C 0.04261 0.54582 0.26674 0.0
C637 C 0.04182 0.54854 0.2796 0.0
C638 C 0.04884 0.56229 0.25991 0.0
C639 C 0.05438 0.58102 0.2658 0.0
C640 C 0.05404 0.5838 0.27867 0.0
C641 C 0.04925 0.4852 0.26629 0.0
C642 C 0.0372 0.46472 0.26701 0.0
C643 C 0.06947 0.49482 0.27086 0.0
C644 C 0.07761 0.48406 0.27587 0.0
C645 C 0.06559 0.46358 0.27659 0.0
C646 C 0.04528 0.45401 0.27225 0.0
C647 C 0.0476 0.56737 0.28551 0.0
H648 H 0.99036 0.45758 0.20681 0.0
H649 H 0.99887 0.46572 0.22935 0.0
H650 H 0.03757 0.52741 0.22415 0.0
H651 H 0.02882 0.51936 0.2018 0.0
H652 H 0.03011 0.477 0.2433 0.0
H653 H 0.02356 0.52862 0.24362 0.0
H654 H 0.05206 0.51943 0.27573 0.0
H655 H 0.03681 0.53614 0.28511 0.0
H656 H 0.05007 0.5609 0.25006 0.0
H657 H 0.05957 0.5935 0.26033 0.0
H658 H 0.02157 0.45703 0.26353 0.0
H659 H 0.07907 0.51058 0.27029 0.0
H660 H 0.04703 0.56909 0.29544 0.0
H661 H 0.03577 0.4382 0.27267 0.0
H662 H 0.09329 0.49176 0.27922 0.0
C663 C 0.44883 0.49145 0.20344 0.0
C664 C 0.46805 0.49658 0.20058 0.0
C665 C 0.44554 0.49518 0.2156 0.0
C666 C 0.46141 0.50402 0.22513 0.0
C667 C 0.48041 0.5082 0.22234 0.0
C668 C 0.48371 0.5046 0.2102 0.0
C669 C 0.4586 0.51017 0.23775 0.0
C670 C 0.44158 0.49798 0.24351 0.0
C671 C 0.4389 0.50424 0.25533 0.0
C672 C 0.45356 0.52285 0.26138 0.0
C673 C 0.47056 0.53529 0.25571 0.0
C674 C 0.47288 0.52882 0.2439 0.0
C675 C 0.48561 0.55536 0.26186 0.0
C676 C 0.47967 0.56737 0.26839 0.0
C677 C 0.50601 0.56294 0.26089 0.0
C678 C 0.52006 0.58221 0.26604 0.0
C679 C 0.51406 0.59425 0.27241 0.0
C680 C 0.42052 0.4918 0.26122 0.0
C681 C 0.4018 0.48229 0.25419 0.0
C682 C 0.42146 0.49012 0.27404 0.0
C683 C 0.40407 0.4796 0.27974 0.0
C684 C 0.38534 0.47044 0.27275 0.0
C685 C 0.38441 0.47172 0.25988 0.0
C686 C 0.49376 0.58657 0.27366 0.0
H687 H 0.43651 0.48534 0.19618 0.0
H688 H 0.43076 0.49192 0.21743 0.0
H689 H 0.49286 0.51461 0.22952 0.0
H690 H 0.4986 0.50833 0.20831 0.0
H691 H 0.43054 0.48352 0.23886 0.0
H692 H 0.48554 0.53867 0.23925 0.0
H693 H 0.45156 0.5278 0.27046 0.0
H694 H 0.46408 0.56217 0.26915 0.0
H695 H 0.51115 0.55397 0.25613 0.0
H696 H 0.53566 0.58769 0.2651 0.0
H697 H 0.40053 0.48352 0.24433 0.0
H698 H 0.43567 0.497 0.27969 0.0
H699 H 0.48871 0.59563 0.27841 0.0
H700 H 0.37019 0.46503 0.25426 0.0
H701 H 0.4053 0.47859 0.28963 0.0
Eu702 Eu 0.49418 0.98564 0.98865 0.0
Eu703 Eu 0.51032 0.01342 0.01614 0.0
C704 C 0.48761 0.0225 0.99384 0.0
C705 C 0.48524 0.97069 0.95393 0.0
C706 C 0.48774 0.98898 0.95089 0.0
C707 C 0.48954 0.96302 0.93268 0.0
C708 C 0.49093 0.99417 0.9388 0.0
C709 C 0.48617 0.95776 0.94475 0.0
C710 C 0.49193 0.98128 0.92957 0.0
C711 C 0.48243 0.96532 0.96671 0.0
O712 O 0.48503 0.98354 0.01927 0.0
O713 O 0.46797 0.97457 0.99986 0.0
C714 C 0.46846 0.97321 0.01186 0.0
O715 O 0.50339 0.96918 0.0013 0.0
O716 O 0.50376 0.02783 0.03156 0.0
O717 O 0.53222 0.02922 0.03231 0.0
O718 O 0.52581 0.99565 0.01516 0.0
C719 C 0.5186 0.97741 0.00994 0.0
O720 O 0.52591 0.00912 0.98738 0.0
O721 O 0.53202 0.03301 0.00348 0.0
O722 O 0.48984 0.02153 0.00581 0.0
O723 O 0.49837 0.96862 0.97353 0.0
O724 O 0.4716 0.97068 0.97279 0.0
O725 O 0.49264 0.01306 0.98573 0.0
C726 C 0.51751 0.02657 0.05106 0.0
C727 C 0.51483 0.008 0.05355 0.0
C728 C 0.51226 0.03263 0.07235 0.0
C729 C 0.5109 0.00179 0.06538 0.0
C730 C 0.51631 0.03887 0.06054 0.0
C731 C 0.50936 0.01394 0.07491 0.0
C732 C 0.52012 0.03262 0.03843 0.0
C733 C 0.53672 0.02713 0.99324 0.0
H734 H 0.48737 -0.00068 0.95788 0.0
H735 H 0.4901 0.95273 0.92575 0.0
H736 H 0.49299 0.00844 0.93674 0.0
H737 H 0.4844 0.94364 0.94695 0.0
H738 H 0.51552 0.99819 0.04631 0.0
H739 H 0.51088 0.04225 0.07938 0.0
H740 H 0.50904 0.98744 0.06703 0.0
H741 H 0.51808 0.05314 0.05873 0.0
Eu742 Eu 0.0146 0.50974 0.99138 0.0
Eu743 Eu 0.98853 0.49965 0.01549 0.0
C744 C 0.9793 0.46646 0.99362 0.0
C745 C 0.03055 0.51568 0.95851 0.0
C746 C 0.0129 0.49996 0.95212 0.0
C747 C 0.04111 0.52897 0.93899 0.0
C748 C 0.0095 0.49864 0.93921 0.0
C749 C 0.04458 0.53018 0.95187 0.0
C750 C 0.02358 0.51314 0.93252 0.0
C751 C 0.03461 0.51728 0.97206 0.0
O752 O 0.01685 0.50085 0.02266 0.0
O753 O 0.02764 0.4964 0.0041 0.0
C754 C 0.0284 0.49679 0.01625 0.0
O755 O 0.03182 0.5353 0.00623 0.0
O756 O 0.96294 0.47944 0.02471 0.0
O757 O 0.98377 0.50898 0.03367 0.0
O758 O 0.00488 0.53284 0.01489 0.0
C759 C 0.02357 0.54333 0.01281 0.0
O760 O 0.99218 0.51943 0.98718 0.0
O761 O 0.96887 0.50151 0.00022 0.0
O762 O 0.98329 0.4708 0.0057 0.0
O763 O 0.0322 0.5305 0.9785 0.0
O764 O 0.02774 0.50062 0.97708 0.0
O765 O 0.98633 0.48053 0.98622 0.0
C766 C 0.96871 0.48375 0.04658 0.0
C767 C 0.98251 0.4777 0.04958 0.0
C768 C 0.95805 0.47839 0.0672 0.0
C769 C 0.98434 0.47237 0.06143 0.0
C770 C 0.95626 0.48372 0.05536 0.0
C771 C 0.9724 0.47306 0.07047 0.0
C772 C 0.96833 0.49174 0.03478 0.0
C773 C 0.97432 0.51227 0.99085 0.0
H774 H 0.00177 0.48871 0.95709 0.0
H775 H 0.0523 0.54024 0.93406 0.0
H776 H 0.99576 0.48642 0.93447 0.0
H777 H 0.05826 0.54242 0.95666 0.0
H778 H 0.99225 0.47767 0.04287 0.0
H779 H 0.94883 0.47936 0.07397 0.0
H780 H 0.99537 0.46813 0.06362 0.0
H781 H 0.94562 0.48848 0.05319 0.0
Eu782 Eu 0.50742 0.49197 0.01516 0.0
Eu783 Eu 0.48798 0.49936 0.98948 0.0
C784 C 0.51391 0.53454 0.01124 0.0
C785 C 0.5186 0.48678 0.04883 0.0
C786 C 0.51617 0.50222 0.05418 0.0
C787 C 0.51318 0.47233 0.06838 0.0
C788 C 0.5124 0.50276 0.06659 0.0
C789 C 0.51715 0.4719 0.05602 0.0
C790 C 0.51072 0.48773 0.07378 0.0
C791 C 0.52149 0.48532 0.03561 0.0
O792 O 0.51366 0.49589 0.98413 0.0
O793 O 0.53239 0.50612 0.00305 0.0
C794 C 0.53081 0.50299 0.99089 0.0
O795 O 0.49681 0.46505 0.0013 0.0
O796 O 0.48525 0.51946 0.97734 0.0
O797 O 0.46969 0.48782 0.97168 0.0
O798 O 0.47107 0.46671 0.99151 0.0
C799 C 0.47954 0.45646 0.99455 0.0
O800 O 0.47638 0.48429 0.01892 0.0
O801 O 0.46725 0.4981 0.00341 0.0
O802 O 0.51118 0.52927 0.99924 0.0
O803 O 0.50607 0.47156 0.02841 0.0
O804 O 0.53067 0.50198 0.03061 0.0
O805 O 0.509 0.52131 0.0192 0.0
C806 C 0.48299 0.50913 0.95612 0.0
C807 C 0.49363 0.50023 0.95176 0.0
C808 C 0.48723 0.52527 0.93722 0.0
C809 C 0.50072 0.50355 0.94014 0.0
C810 C 0.47995 0.52177 0.94882 0.0
C811 C 0.49758 0.51608 0.93269 0.0
C812 C 0.4752 0.5054 0.96828 0.0
C813 C 0.46432 0.48974 0.01382 0.0
H814 H 0.51692 0.51372 0.04875 0.0
H815 H 0.51213 0.46065 0.07374 0.0
H816 H 0.51034 0.51468 0.07047 0.0
H817 H 0.51886 0.45981 0.05202 0.0
H818 H 0.49631 0.49054 0.95728 0.0
H819 H 0.48482 0.53526 0.93185 0.0
H820 H 0.50832 0.49595 0.93691 0.0
H821 H 0.47195 0.52892 0.9521 0.0
Eu822 Eu 0.16002 0.31881 0.32276 0.0
Eu823 Eu 0.17538 0.34699 0.34983 0.0
C824 C 0.15406 0.35594 0.3271 0.0
C825 C 0.15229 0.30499 0.28802 0.0
C826 C 0.15555 0.32371 0.28534 0.0
C827 C 0.15671 0.29795 0.26668 0.0
C828 C 0.15916 0.32941 0.27339 0.0
C829 C 0.15293 0.29218 0.27863 0.0
C830 C 0.1598 0.31661 0.26393 0.0
C831 C 0.14884 0.29905 0.30065 0.0
O832 O 0.1496 0.31762 0.35319 0.0
O833 O 0.13328 0.30803 0.33354 0.0
C834 C 0.13327 0.3071 0.34559 0.0
O835 O 0.16735 0.30152 0.3358 0.0
O836 O 0.16865 0.3616 0.36505 0.0
O837 O 0.19762 0.36409 0.36564 0.0
O838 O 0.18934 0.32774 0.35 0.0
C839 C 0.18182 0.30935 0.34493 0.0
O840 O 0.19277 0.34018 0.32287 0.0
O841 O 0.1971 0.36579 0.33683 0.0
O842 O 0.15446 0.35402 0.339 0.0
O843 O 0.16444 0.30192 0.30766 0.0
O844 O 0.13792 0.3044 0.30662 0.0
O845 O 0.16056 0.34724 0.31952 0.0
C846 C 0.1832 0.36125 0.3845 0.0
C847 C 0.18136 0.34302 0.38705 0.0
C848 C 0.17779 0.36701 0.40581 0.0
C849 C 0.17774 0.33682 0.39889 0.0
C850 C 0.18152 0.37325 0.39397 0.0
C851 C 0.17566 0.34862 0.40839 0.0
C852 C 0.18531 0.36708 0.37181 0.0
C853 C 0.20305 0.35885 0.32768 0.0
H854 H 0.1554 0.33396 0.2925 0.0
H855 H 0.15699 0.28772 0.25956 0.0
H856 H 0.16176 0.34398 0.27161 0.0
H857 H 0.15057 0.27773 0.28055 0.0
H858 H 0.18242 0.33344 0.37982 0.0
H859 H 0.176 0.37635 0.41283 0.0
H860 H 0.1765 0.32272 0.40057 0.0
H861 H 0.18265 0.38725 0.39212 0.0
Eu862 Eu 0.68077 0.84099 0.32391 0.0
Eu863 Eu 0.65359 0.82859 0.34761 0.0
C864 C 0.64466 0.79706 0.3241 0.0
C865 C 0.69779 0.84914 0.29144 0.0
C866 C 0.68005 0.83365 0.28499 0.0
C867 C 0.70853 0.8627 0.27202 0.0
C868 C 0.67667 0.8326 0.2721 0.0
C869 C 0.71195 0.86366 0.28489 0.0
C870 C 0.69089 0.84712 0.26548 0.0
C871 C 0.70166 0.85052 0.30498 0.0
O872 O 0.68292 0.8322 0.35501 0.0
O873 O 0.69288 0.8266 0.33644 0.0
C874 C 0.69416 0.82765 0.34863 0.0
O875 O 0.69808 0.86585 0.3392 0.0
O876 O 0.63812 0.80693 0.3605 0.0
O877 O 0.63638 0.83383 0.36095 0.0
O878 O 0.67243 0.86203 0.35024 0.0
C879 C 0.69063 0.87286 0.34728 0.0
O880 O 0.65834 0.85091 0.32058 0.0
O881 O 0.63406 0.82964 0.3319 0.0
O882 O 0.64677 0.80037 0.33624 0.0
O883 O 0.69806 0.86282 0.31148 0.0
O884 O 0.69556 0.83377 0.30979 0.0
O885 O 0.65342 0.81162 0.31719 0.0
C886 C 0.63557 0.82008 0.37985 0.0
C887 C 0.65301 0.83602 0.38626 0.0
C888 C 0.62526 0.80646 0.39931 0.0
C889 C 0.65654 0.83717 0.39915 0.0
C890 C 0.6217 0.8054 0.38645 0.0
C891 C 0.64277 0.82229 0.40582 0.0
C892 C 0.63212 0.81784 0.36627 0.0
C893 C 0.63993 0.84211 0.32343 0.0
H894 H 0.66882 0.8224 0.28992 0.0
H895 H 0.71981 0.874 0.26715 0.0
H896 H 0.66285 0.82056 0.26732 0.0
H897 H 0.7257 0.87574 0.28974 0.0
H898 H 0.66397 0.84742 0.38128 0.0
H899 H 0.61451 0.79457 0.40409 0.0
H900 H 0.67005 0.84969 0.40388 0.0
H901 H 0.60827 0.79288 0.38161 0.0
Eu902 Eu 0.17341 0.82471 0.34856 0.0
Eu903 Eu 0.15443 0.8319 0.32261 0.0
C904 C 0.18072 0.8674 0.3441 0.0
C905 C 0.1843 0.82022 0.38242 0.0
C906 C 0.18146 0.83559 0.38742 0.0
C907 C 0.17963 0.80689 0.40235 0.0
C908 C 0.17787 0.83666 0.39983 0.0
C909 C 0.18341 0.80593 0.38997 0.0
C910 C 0.17678 0.82225 0.40739 0.0
C911 C 0.18713 0.81826 0.36924 0.0
O912 O 0.18005 0.82811 0.31754 0.0
O913 O 0.19857 0.83831 0.33653 0.0
C914 C 0.1971 0.83506 0.32439 0.0
O915 O 0.16259 0.79755 0.33487 0.0
O916 O 0.15112 0.85166 0.31044 0.0
O917 O 0.13711 0.82017 0.30452 0.0
O918 O 0.13701 0.79941 0.32505 0.0
C919 C 0.14528 0.78902 0.32815 0.0
O920 O 0.14249 0.81761 0.35219 0.0
O921 O 0.13361 0.83107 0.33634 0.0
O922 O 0.178 0.86185 0.33213 0.0
O923 O 0.17158 0.80452 0.36212 0.0
O924 O 0.19657 0.83472 0.36407 0.0
O925 O 0.17547 0.85435 0.35218 0.0
C926 C 0.15027 0.84207 0.28924 0.0
C927 C 0.16171 0.83398 0.28504 0.0
C928 C 0.15441 0.85838 0.27042 0.0
C929 C 0.16912 0.83775 0.27353 0.0
C930 C 0.14681 0.85441 0.28191 0.0
C931 C 0.16552 0.84994 0.26603 0.0
C932 C 0.14196 0.83767 0.30122 0.0
C933 C 0.13056 0.82304 0.34686 0.0
H934 H 0.18179 0.84662 0.3817 0.0
H935 H 0.17903 0.79568 0.40799 0.0
H936 H 0.17551 0.84852 0.40343 0.0
H937 H 0.18544 0.7939 0.38625 0.0
H938 H 0.16472 0.82452 0.29059 0.0
H939 H 0.15163 0.8681 0.26501 0.0
H940 H 0.17731 0.83071 0.27042 0.0
H941 H 0.13818 0.86094 0.28506 0.0
Eu942 Eu 0.8272 0.65235 0.65617 0.0
Eu943 Eu 0.84387 0.6811 0.68315 0.0
C944 C 0.82261 0.69053 0.66045 0.0
C945 C 0.81866 0.63788 0.62156 0.0
C946 C 0.8254 0.65765 0.61931 0.0
C947 C 0.81927 0.62943 0.59972 0.0
C948 C 0.82889 0.66324 0.60733 0.0
C949 C 0.81565 0.62382 0.61171 0.0
C950 C 0.82587 0.6492 0.59739 0.0
C951 C 0.81524 0.63209 0.6342 0.0
O952 O 0.81743 0.65233 0.68675 0.0
O953 O 0.80082 0.64247 0.66717 0.0
C954 C 0.80098 0.64189 0.67924 0.0
O955 O 0.83397 0.63481 0.66931 0.0
O956 O 0.83822 0.69654 0.69845 0.0
O957 O 0.86657 0.69767 0.69884 0.0
O958 O 0.8569 0.66104 0.68318 0.0
C959 C 0.84868 0.64247 0.67829 0.0
O960 O 0.86003 0.67304 0.65594 0.0
O961 O 0.86562 0.69912 0.66996 0.0
O962 O 0.82404 0.68956 0.67246 0.0
O963 O 0.83081 0.63474 0.64114 0.0
O964 O 0.80476 0.638 0.64019 0.0
O965 O 0.82783 0.68074 0.65274 0.0
C966 C 0.85263 0.69571 0.71783 0.0
C967 C 0.8503 0.67732 0.72045 0.0
C968 C 0.84741 0.70192 0.73911 0.0
C969 C 0.84653 0.67126 0.73231 0.0
C970 C 0.8513 0.70802 0.72725 0.0
C971 C 0.84477 0.68337 0.74176 0.0
C972 C 0.8548 0.70141 0.70511 0.0
C973 C 0.87098 0.69167 0.66076 0.0
H974 H 0.82804 0.66879 0.62683 0.0
H975 H 0.81668 0.61826 0.59224 0.0
H976 H 0.83425 0.67864 0.60589 0.0
H977 H 0.81054 0.60851 0.6133 0.0
H978 H 0.85108 0.66749 0.71326 0.0
H979 H 0.84587 0.71151 0.74608 0.0
H980 H 0.84488 0.65702 0.73405 0.0
H981 H 0.8528 0.72215 0.72535 0.0
Eu982 Eu 0.34791 0.17555 0.65763 0.0
Eu983 Eu 0.32221 0.16608 0.68186 0.0
C984 C 0.31208 0.13245 0.65964 0.0
C985 C 0.3641 0.18131 0.62484 0.0
C986 C 0.34647 0.16546 0.61851 0.0
C987 C 0.37449 0.19439 0.60524 0.0
C988 C 0.34299 0.16399 0.60559 0.0
C989 C 0.37803 0.19576 0.61813 0.0
C990 C 0.35696 0.17846 0.59883 0.0
C991 C 0.36815 0.18316 0.6384 0.0
O992 O 0.35144 0.16901 0.68892 0.0
O993 O 0.35943 0.16083 0.67029 0.0
C994 C 0.36159 0.163 0.68249 0.0
O995 O 0.36555 0.20124 0.67238 0.0
O996 O 0.30029 0.14458 0.69279 0.0
O997 O 0.31396 0.17608 0.69851 0.0
O998 O 0.33897 0.19925 0.68131 0.0
C999 C 0.35759 0.20952 0.67905 0.0
O1000 O 0.32522 0.18495 0.65349 0.0
O1001 O 0.30198 0.16689 0.66653 0.0
O1002 O 0.3155 0.13691 0.67174 0.0
O1003 O 0.36543 0.19627 0.6447 0.0
O1004 O 0.36152 0.16663 0.64354 0.0
O1005 O 0.31989 0.14631 0.65215 0.0
C1006 C 0.30602 0.15461 0.71429 0.0
C1007 C 0.32493 0.16539 0.72103 0.0
C1008 C 0.29289 0.13683 0.73213 0.0
C1009 C 0.32772 0.16214 0.7333 0.0
C1010 C 0.29008 0.14023 0.71988 0.0
C1011 C 0.31172 0.14788 0.73904 0.0
C1012 C 0.30267 0.15815 0.70145 0.0
C1013 C 0.3073 0.17758 0.65712 0.0
H1014 H 0.33541 0.15424 0.62354 0.0
H1015 H 0.3856 0.20565 0.60026 0.0
H1016 H 0.32925 0.15169 0.60091 0.0
H1017 H 0.39169 0.2081 0.62288 0.0
H1018 H 0.33751 0.17648 0.71686 0.0
H1019 H 0.28032 0.12549 0.73615 0.0
H1020 H 0.34236 0.17112 0.73837 0.0
H1021 H 0.27542 0.13163 0.71477 0.0
Eu1022 Eu 0.84169 0.15909 0.68343 0.0
Eu1023 Eu 0.82229 0.16611 0.65755 0.0
C1024 C 0.84909 0.20179 0.67887 0.0
C1025 C 0.85322 0.15404 0.71718 0.0
C1026 C 0.85037 0.16918 0.72258 0.0
C1027 C 0.8493 0.14015 0.73691 0.0
C1028 C 0.84714 0.16986 0.73509 0.0
C1029 C 0.85271 0.13959 0.72444 0.0
C1030 C 0.84643 0.15527 0.74236 0.0
C1031 C 0.85577 0.1525 0.70392 0.0
O1032 O 0.84766 0.16199 0.65234 0.0
O1033 O 0.86657 0.17253 0.6712 0.0
C1034 C 0.86484 0.16909 0.65905 0.0
O1035 O 0.83027 0.13175 0.66981 0.0
O1036 O 0.81886 0.18573 0.64531 0.0
O1037 O 0.80471 0.15419 0.63955 0.0
O1038 O 0.8046 0.13377 0.66028 0.0
C1039 C 0.81275 0.12326 0.66335 0.0
O1040 O 0.81102 0.15248 0.68738 0.0
O1041 O 0.80184 0.16564 0.67146 0.0
O1042 O 0.84605 0.1961 0.66691 0.0
O1043 O 0.84018 0.13879 0.69681 0.0
O1044 O 0.86495 0.16911 0.69887 0.0
O1045 O 0.84403 0.18885 0.68703 0.0
C1046 C 0.81766 0.17581 0.62411 0.0
C1047 C 0.82935 0.16795 0.62003 0.0
C1048 C 0.82106 0.1913 0.60501 0.0
C1049 C 0.83652 0.17143 0.60844 0.0
C1050 C 0.8137 0.18764 0.61658 0.0
C1051 C 0.83242 0.18308 0.60073 0.0
C1052 C 0.80954 0.17163 0.63616 0.0
C1053 C 0.79904 0.15788 0.68209 0.0
H1054 H 0.85043 0.18034 0.7171 0.0
H1055 H 0.849 0.12882 0.74231 0.0
H1056 H 0.84476 0.18155 0.73901 0.0
H1057 H 0.85478 0.12774 0.72041 0.0
H1058 H 0.83273 0.15888 0.62573 0.0
H1059 H 0.81788 0.20062 0.59944 0.0
H1060 H 0.84492 0.16457 0.60543 0.0
H1061 H 0.80487 0.19398 0.61963 0.0
C1062 C 0.30419 0.87141 0.04777 0.0
C1063 C 0.30337 0.87631 0.06032 0.0
C1064 C 0.32192 0.88159 0.04235 0.0
C1065 C 0.37594 0.91007 0.05 0.0
H1066 H 0.37649 0.92982 0.01806 0.0
C1067 C 0.44912 0.96232 0.03019 0.0
C1068 C 0.44978 0.96054 0.01728 0.0
C1069 C 0.43123 0.95138 0.03531 0.0
C1070 C 0.37658 0.92412 0.02688 0.0
H1071 H 0.32039 0.89566 0.07705 0.0
H1072 H 0.35147 0.91342 0.06758 0.0
H1073 H 0.34521 0.91222 0.02719 0.0
H1074 H 0.43228 0.94542 0.99965 0.0
H1075 H 0.40118 0.92587 0.00861 0.0
H1076 H 0.40717 0.92158 0.04966 0.0
C1077 C 0.33838 0.9017 0.06195 0.0
C1078 C 0.35866 0.91413 0.03213 0.0
C1079 C 0.32058 0.89168 0.06733 0.0
C1080 C 0.43224 0.94722 0.00963 0.0
C1081 C 0.41438 0.93612 0.01476 0.0
C1082 C 0.39383 0.91987 0.0447 0.0
C1083 C 0.33923 0.89672 0.04942 0.0
C1084 C 0.35819 0.90712 0.04378 0.0
C1085 C 0.41359 0.93823 0.02766 0.0
C1086 C 0.39441 0.92714 0.03311 0.0
H1087 H 0.29109 0.85971 0.04213 0.0
H1088 H 0.32219 0.87738 0.03269 0.0
H1089 H 0.37594 0.90455 0.05891 0.0
H1090 H 0.46232 0.97256 0.03636 0.0
H1091 H 0.43118 0.95365 0.04525 0.0
C1092 C 0.15442 0.47016 0.07153 0.0
C1093 C 0.14954 0.45011 0.07054 0.0
C1094 C 0.14142 0.47565 0.06603 0.0
C1095 C 0.08892 0.45618 0.05474 0.0
H1096 H 0.10966 0.50107 0.0353 0.0
C1097 C 0.04122 0.48845 0.03541 0.0
C1098 C 0.04258 0.4922 0.0229 0.0
C1099 C 0.05437 0.4837 0.04155 0.0
C1100 C 0.10366 0.48849 0.04069 0.0
H1101 H 0.12713 0.42018 0.06281 0.0
H1102 H 0.10434 0.42975 0.05346 0.0
H1103 H 0.13236 0.49186 0.04541 0.0
H1104 H 0.05903 0.49414 0.0071 0.0
H1105 H 0.08201 0.48602 0.01787 0.0
H1106 H 0.06019 0.45273 0.04994 0.0
C1107 C 0.11819 0.44118 0.05858 0.0
C1108 C 0.11666 0.48332 0.04655 0.0
C1109 C 0.13125 0.4357 0.06398 0.0
C1110 C 0.05752 0.49131 0.01673 0.0
C1111 C 0.07078 0.48677 0.02291 0.0
C1112 C 0.07594 0.46148 0.04898 0.0
C1113 C 0.12316 0.46121 0.05951 0.0
C1114 C 0.10941 0.46703 0.05357 0.0
C1115 C 0.06929 0.48283 0.03537 0.0
C1116 C 0.08315 0.4776 0.04182 0.0
H1117 H 0.16819 0.48163 0.07669 0.0
H1118 H 0.14555 0.49118 0.06702 0.0
H1119 H 0.08293 0.44365 0.06017 0.0
H1120 H 0.02989 0.48899 0.04044 0.0
H1121 H 0.05297 0.48088 0.05119 0.0
C1122 C 0.59624 0.70679 0.05984 0.0
C1123 C 0.59626 0.72057 0.05211 0.0
C1124 C 0.58775 0.68677 0.05531 0.0
C1125 C 0.57344 0.6529 0.0267 0.0
H1126 H 0.53722 0.61321 0.04647 0.0
C1127 C 0.52601 0.57 0.00767 0.0
C1128 C 0.52326 0.55584 0.01589 0.0
C1129 C 0.535 0.59014 0.01205 0.0
C1130 C 0.54751 0.62406 0.0409 0.0
H1131 H 0.58787 0.72435 0.03351 0.0
H1132 H 0.57307 0.68929 0.02556 0.0
H1133 H 0.55331 0.64835 0.05417 0.0
H1134 H 0.52796 0.55174 0.03513 0.0
H1135 H 0.54404 0.58688 0.04271 0.0
H1136 H 0.56792 0.62868 0.01351 0.0
C1137 C 0.57962 0.69401 0.03512 0.0
C1138 C 0.55668 0.64419 0.04531 0.0
C1139 C 0.58794 0.71401 0.03969 0.0
C1140 C 0.52973 0.56225 0.02857 0.0
C1141 C 0.53886 0.58241 0.03292 0.0
C1142 C 0.5644 0.63275 0.02233 0.0
C1143 C 0.57926 0.68016 0.04293 0.0
C1144 C 0.56971 0.65881 0.03826 0.0
C1145 C 0.5416 0.59661 0.02472 0.0
C1146 C 0.55129 0.61807 0.02937 0.0
H1147 H 0.60239 0.7114 0.06949 0.0
H1148 H 0.58784 0.67644 0.0615 0.0
H1149 H 0.58359 0.66386 0.02113 0.0
H1150 H 0.52108 0.56553 0.99786 0.0
H1151 H 0.53656 0.60061 0.0055 0.0
C1152 C 0.86031 0.30145 0.94081 0.0
C1153 C 0.86009 0.28532 0.94597 0.0
C1154 C 0.87347 0.3209 0.9461 0.0
C1155 C 0.91949 0.35105 0.96801 0.0
H1156 H 0.90269 0.39023 0.96734 0.0
C1157 C 0.96271 0.42987 0.99536 0.0
C1158 C 0.96626 0.44557 0.98828 0.0
C1159 C 0.95009 0.41013 0.99032 0.0
C1160 C 0.90758 0.37943 0.96753 0.0
H1161 H 0.87316 0.27669 0.96076 0.0
H1162 H 0.89568 0.3106 0.97032 0.0
H1163 H 0.87972 0.35603 0.9586 0.0
H1164 H 0.95936 0.45294 0.9704 0.0
H1165 H 0.93697 0.41846 0.96173 0.0
H1166 H 0.94719 0.37457 0.97732 0.0
C1167 C 0.88615 0.30838 0.96197 0.0
C1168 C 0.89449 0.35985 0.96246 0.0
C1169 C 0.8732 0.28894 0.95655 0.0
C1170 C 0.95696 0.44116 0.97608 0.0
C1171 C 0.94408 0.42146 0.97113 0.0
C1172 C 0.93246 0.37059 0.97326 0.0
C1173 C 0.88649 0.32465 0.9568 0.0
C1174 C 0.90031 0.34541 0.96252 0.0
C1175 C 0.94053 0.40579 0.9782 0.0
C1176 C 0.92667 0.38497 0.97297 0.0
H1177 H 0.8505 0.29903 0.93256 0.0
H1178 H 0.87357 0.333 0.94167 0.0
H1179 H 0.92466 0.34048 0.96806 0.0
H1180 H 0.96973 0.43282 0.00478 0.0
H1181 H 0.9475 0.39826 0.99596 0.0
C1182 C 0.68933 0.564 0.94557 0.0
C1183 C 0.68835 0.55244 0.93479 0.0
C1184 C 0.67232 0.55881 0.95162 0.0
C1185 C 0.61809 0.53264 0.94682 0.0
H1186 H 0.62033 0.52695 0.98201 0.0
C1187 C 0.5472 0.50059 0.9722 0.0
C1188 C 0.54884 0.50811 0.9846 0.0
C1189 C 0.56422 0.50585 0.96616 0.0
C1190 C 0.61946 0.52879 0.97223 0.0
H1191 H 0.66882 0.52671 0.9217 0.0
H1192 H 0.63892 0.51789 0.93212 0.0
H1193 H 0.65005 0.53722 0.97136 0.0
H1194 H 0.56964 0.52728 0.00032 0.0
H1195 H 0.59923 0.53707 0.9897 0.0
H1196 H 0.58778 0.52488 0.94765 0.0
C1197 C 0.65289 0.53084 0.93594 0.0
C1198 C 0.63651 0.53458 0.96613 0.0
C1199 C 0.66997 0.53582 0.93003 0.0
C1200 C 0.56787 0.52104 0.99081 0.0
C1201 C 0.58488 0.52658 0.98471 0.0
C1202 C 0.60112 0.52718 0.95295 0.0
C1203 C 0.65394 0.54217 0.94686 0.0
C1204 C 0.63596 0.53646 0.95336 0.0
C1205 C 0.58333 0.51906 0.97228 0.0
C1206 C 0.6015 0.52506 0.96574 0.0
H1207 H 0.70335 0.57682 0.94947 0.0
H1208 H 0.67349 0.56785 0.95999 0.0
H1209 H 0.61734 0.53417 0.93698 0.0
H1210 H 0.53275 0.4905 0.96717 0.0
H1211 H 0.56234 0.4994 0.95669 0.0
C1212 C 0.39985 0.09909 0.94597 0.0
C1213 C 0.39917 0.11396 0.95357 0.0
C1214 C 0.40875 0.0888 0.95068 0.0
C1215 C 0.44491 0.09326 0.97622 0.0
H1216 H 0.42427 0.03751 0.9653 0.0
C1217 C 0.47501 0.0461 0.99773 0.0
C1218 C 0.47827 0.03377 0.98934 0.0
C1219 C 0.46536 0.05602 0.99354 0.0
C1220 C 0.43028 0.05312 0.96835 0.0
H1221 H 0.40656 0.12922 0.97217 0.0
H1222 H 0.42171 0.11094 0.98053 0.0
H1223 H 0.4065 0.05392 0.95799 0.0
H1224 H 0.47412 0.02234 0.96996 0.0
H1225 H 0.4572 0.03961 0.9627 0.0
H1226 H 0.46856 0.0923 0.9867 0.0
C1227 C 0.41584 0.10757 0.97083 0.0
C1228 C 0.42012 0.06255 0.96416 0.0
C1229 C 0.40709 0.11798 0.96607 0.0
C1230 C 0.47187 0.03174 0.97667 0.0
C1231 C 0.46205 0.04151 0.97251 0.0
C1232 C 0.45496 0.08378 0.9805 0.0
C1233 C 0.41703 0.09304 0.96314 0.0
C1234 C 0.42738 0.08278 0.96798 0.0
C1235 C 0.45861 0.05366 0.98092 0.0
C1236 C 0.44781 0.06366 0.97654 0.0
H1237 H 0.39411 0.09588 0.93624 0.0
H1238 H 0.40966 0.07794 0.94444 0.0
H1239 H 0.45113 0.10894 0.97918 0.0
H1240 H 0.47978 0.048 0.00755 0.0
H1241 H 0.46279 0.0652 0.00023 0.0
C1242 C 0.69498 0.13805 0.95237 0.0
C1243 C 0.70217 0.12752 0.94555 0.0
C1244 C 0.67709 0.12789 0.95763 0.0
C1245 C 0.63156 0.07767 0.95614 0.0
H1246 H 0.62391 0.10065 0.98657 0.0
C1247 C 0.55559 0.04033 0.97516 0.0
C1248 C 0.55511 0.04096 0.98806 0.0
C1249 C 0.57333 0.05205 0.9701 0.0
C1250 C 0.62582 0.09383 0.97816 0.0
H1251 H 0.69684 0.09832 0.93905 0.0
H1252 H 0.66615 0.0804 0.94876 0.0
H1253 H 0.65552 0.11786 0.97801 0.0
H1254 H 0.57257 0.0544 0.00586 0.0
H1255 H 0.60388 0.07415 0.99711 0.0
H1256 H 0.60244 0.05302 0.9567 0.0
C1257 C 0.67375 0.09649 0.9497 0.0
C1258 C 0.64392 0.10393 0.97309 0.0
C1259 C 0.69141 0.10669 0.9442 0.0
C1260 C 0.57257 0.05382 0.99586 0.0
C1261 C 0.59049 0.06519 0.99081 0.0
C1262 C 0.61366 0.06738 0.96134 0.0
C1263 C 0.66621 0.10693 0.95641 0.0
C1264 C 0.64703 0.09605 0.96197 0.0
C1265 C 0.59118 0.06426 0.97784 0.0
C1266 C 0.61043 0.07536 0.97238 0.0
H1267 H 0.70304 0.15417 0.95343 0.0
H1268 H 0.67168 0.13653 0.96246 0.0
H1269 H 0.63312 0.07118 0.94746 0.0
H1270 H 0.54222 0.03068 0.96895 0.0
H1271 H 0.573 0.05135 0.96009 0.0
C1272 C 0.84407 0.54291 0.9473 0.0
C1273 C 0.84786 0.55228 0.93635 0.0
C1274 C 0.85782 0.5386 0.95305 0.0
C1275 C 0.90082 0.53228 0.94712 0.0
H1276 H 0.91046 0.5395 0.98305 0.0
C1277 C 0.96446 0.52686 0.97369 0.0
C1278 C 0.95986 0.51662 0.98431 0.0
C1279 C 0.95088 0.53118 0.96768 0.0
C1280 C 0.90779 0.53722 0.97301 0.0
H1281 H 0.86922 0.56474 0.92293 0.0
H1282 H 0.8933 0.55737 0.933 0.0
H1283 H 0.88671 0.54721 0.97292 0.0
H1284 H 0.93724 0.50277 0.99686 0.0
H1285 H 0.91362 0.51026 0.98636 0.0
H1286 H 0.92204 0.52241 0.94725 0.0
C1287 C 0.87952 0.553 0.93704 0.0
C1288 C 0.89416 0.54162 0.9672 0.0
C1289 C 0.86573 0.55725 0.93127 0.0
C1290 C 0.94133 0.51072 0.98873 0.0
C1291 C 0.92781 0.51512 0.98276 0.0
C1292 C 0.91452 0.52795 0.95294 0.0
C1293 C 0.87575 0.54363 0.948 0.0
C1294 C 0.89044 0.53913 0.95418 0.0
C1295 C 0.93244 0.52545 0.97219 0.0
C1296 C 0.9181 0.5303 0.96596 0.0
H1297 H 0.83031 0.53862 0.95135 0.0
H1298 H 0.85427 0.53106 0.96136 0.0
H1299 H 0.89812 0.52992 0.93708 0.0
H1300 H 0.97859 0.53162 0.97003 0.0
H1301 H 0.95496 0.53932 0.95962 0.0
C1302 C 0.38995 0.28394 0.94659 0.0
C1303 C 0.39454 0.27093 0.95239 0.0
C1304 C 0.39807 0.30361 0.95176 0.0
C1305 C 0.4247 0.33803 0.98056 0.0
H1306 H 0.44141 0.37804 0.95751 0.0
C1307 C 0.47576 0.42268 0.99527 0.0
C1308 C 0.46948 0.43503 0.99017 0.0
C1309 C 0.46611 0.4024 0.99109 0.0
C1310 C 0.43668 0.36701 0.96405 0.0
H1311 H 0.41092 0.26808 0.96821 0.0
H1312 H 0.42556 0.30259 0.97712 0.0
H1313 H 0.42521 0.34305 0.94956 0.0
H1314 H 0.44823 0.43581 0.97665 0.0
H1315 H 0.43162 0.4005 0.96927 0.0
H1316 H 0.43676 0.36227 0.99505 0.0
C1317 C 0.41534 0.29755 0.96873 0.0
C1318 C 0.42729 0.34694 0.95951 0.0
C1319 C 0.407 0.27779 0.96363 0.0
C1320 C 0.45342 0.4267 0.98079 0.0
C1321 C 0.44396 0.40651 0.97652 0.0
C1322 C 0.43431 0.35817 0.98511 0.0
C1323 C 0.4112 0.31079 0.96276 0.0
C1324 C 0.42108 0.33216 0.9677 0.0
C1325 C 0.45021 0.39417 0.98161 0.0
C1326 C 0.4403 0.37283 0.97689 0.0
H1327 H 0.38017 0.27892 0.938 0.0
H1328 H 0.39415 0.31322 0.94707 0.0
H1329 H 0.4199 0.32707 0.98714 0.0
H1330 H 0.48805 0.42866 0.00254 0.0
H1331 H 0.4713 0.39321 0.99511 0.0
C1332 C 0.14057 0.71817 0.04862 0.0
C1333 C 0.13707 0.72565 0.0597 0.0
C1334 C 0.12701 0.69893 0.04314 0.0
C1335 C 0.08637 0.65074 0.05085 0.0
H1336 H 0.07741 0.63764 0.0151 0.0
C1337 C 0.0285 0.57251 0.02692 0.0
C1338 C 0.03546 0.56452 0.01783 0.0
C1339 C 0.03992 0.59248 0.03178 0.0
C1340 C 0.07984 0.6411 0.0251 0.0
H1341 H 0.1163 0.71928 0.07348 0.0
H1342 H 0.09233 0.68587 0.06376 0.0
H1343 H 0.09868 0.67221 0.02391 0.0
H1344 H 0.05971 0.57131 0.00658 0.0
H1345 H 0.07954 0.6062 0.01501 0.0
H1346 H 0.06735 0.6196 0.05198 0.0
C1347 C 0.1058 0.6946 0.05947 0.0
C1348 C 0.09208 0.66088 0.03016 0.0
C1349 C 0.11947 0.71376 0.06501 0.0
C1350 C 0.05395 0.57698 0.0136 0.0
C1351 C 0.06526 0.597 0.01836 0.0
C1352 C 0.07398 0.63101 0.04578 0.0
C1353 C 0.10954 0.68681 0.04856 0.0
C1354 C 0.09567 0.66593 0.04311 0.0
C1355 C 0.05841 0.60491 0.02754 0.0
C1356 C 0.07076 0.62597 0.03286 0.0
H1357 H 0.15414 0.72695 0.0444 0.0
H1358 H 0.13057 0.69336 0.03486 0.0
H1359 H 0.08906 0.65398 0.06086 0.0
H1360 H 0.01432 0.56329 0.03037 0.0
H1361 H 0.03425 0.59825 0.0388 0.0
C1362 C 0.32374 0.45559 0.07349 0.0
C1363 C 0.30483 0.44199 0.06722 0.0
C1364 C 0.34104 0.46084 0.06777 0.0
C1365 C 0.36121 0.46858 0.03868 0.0
H1366 H 0.40029 0.45613 0.05246 0.0
C1367 C 0.4288 0.48142 0.01293 0.0
C1368 C 0.44648 0.48574 0.01995 0.0
C1369 C 0.41156 0.47636 0.0187 0.0
C1370 C 0.38981 0.46014 0.04859 0.0
H1371 H 0.28969 0.42311 0.04992 0.0
H1372 H 0.3199 0.43324 0.03978 0.0
H1373 H 0.37037 0.44714 0.06266 0.0
H1374 H 0.46029 0.48898 0.03853 0.0
H1375 H 0.43072 0.48138 0.0487 0.0
H1376 H 0.38078 0.48239 0.02494 0.0
C1377 C 0.32111 0.43959 0.04919 0.0
C1378 C 0.37258 0.45479 0.0544 0.0
C1379 C 0.30382 0.43394 0.05501 0.0
C1380 C 0.44678 0.48549 0.03288 0.0
C1381 C 0.42971 0.48093 0.03869 0.0
C1382 C 0.37866 0.47438 0.03302 0.0
C1383 C 0.33983 0.45301 0.05555 0.0
C1384 C 0.35811 0.45886 0.04945 0.0
C1385 C 0.41172 0.47598 0.03167 0.0
C1386 C 0.39321 0.47016 0.03784 0.0
H1387 H 0.32527 0.46251 0.08277 0.0
H1388 H 0.35537 0.47135 0.0728 0.0
H1389 H 0.35026 0.47199 0.03478 0.0
H1390 H 0.4281 0.48131 0.00293 0.0
H1391 H 0.39802 0.4723 0.01289 0.0
C1392 C 0.5923 0.87562 0.03817 0.0
C1393 C 0.60428 0.88339 0.04959 0.0
C1394 C 0.58398 0.88591 0.03266 0.0
C1395 C 0.58838 0.93529 0.03281 0.0
H1396 H 0.53188 0.90528 0.02171 0.0
C1397 C 0.54294 0.97376 0.02401 0.0
C1398 C 0.52823 0.96607 0.01381 0.0
C1399 C 0.55257 0.96351 0.0275 0.0
C1400 C 0.54772 0.91384 0.02458 0.0
H1401 H 0.61763 0.90837 0.06394 0.0
H1402 H 0.60306 0.92632 0.05435 0.0
H1403 H 0.54874 0.88797 0.02901 0.0
H1404 H 0.51203 0.9415 0.9993 0.0
H1405 H 0.52905 0.92369 0.00532 0.0
H1406 H 0.58739 0.96117 0.02846 0.0
C1407 C 0.60011 0.91229 0.04964 0.0
C1408 C 0.55738 0.90392 0.02876 0.0
C1409 C 0.60831 0.90195 0.05519 0.0
C1410 C 0.52324 0.94779 0.00724 0.0
C1411 C 0.53295 0.93755 0.01071 0.0
C1412 C 0.57875 0.94519 0.02858 0.0
C1413 C 0.58762 0.90424 0.03842 0.0
C1414 C 0.57775 0.91458 0.03308 0.0
C1415 C 0.54781 0.94536 0.02085 0.0
C1416 C 0.55825 0.93463 0.0246 0.0
H1417 H 0.58883 0.86127 0.03369 0.0
H1418 H 0.57455 0.87944 0.02395 0.0
H1419 H 0.60415 0.94385 0.0359 0.0
H1420 H 0.54706 0.98773 0.02935 0.0
H1421 H 0.56364 0.96975 0.03551 0.0
C1422 C 0.96872 0.20412 0.38125 0.0
C1423 C 0.9679 0.20916 0.39377 0.0
C1424 C 0.98622 0.21477 0.37567 0.0
C1425 C 0.03487 0.26214 0.37983 0.0
H1426 H 0.04994 0.23348 0.35645 0.0
C1427 C 0.1133 0.29691 0.3637 0.0
C1428 C 0.11432 0.29474 0.35085 0.0
C1429 C 0.09522 0.28624 0.36865 0.0
C1430 C 0.04583 0.24169 0.36289 0.0
H1431 H 0.98473 0.22919 0.41029 0.0
H1432 H 0.01541 0.2475 0.40069 0.0
H1433 H 0.01876 0.21555 0.36567 0.0
H1434 H 0.09721 0.27928 0.33316 0.0
H1435 H 0.06561 0.26041 0.34189 0.0
H1436 H 0.06224 0.28818 0.37724 0.0
C1437 C 0.00243 0.23567 0.39504 0.0
C1438 C 0.02792 0.23145 0.36814 0.0
C1439 C 0.98487 0.22515 0.40058 0.0
C1440 C 0.09692 0.28131 0.3431 0.0
C1441 C 0.07885 0.27045 0.34809 0.0
C1442 C 0.05286 0.27231 0.37468 0.0
C1443 C 0.00337 0.23058 0.38252 0.0
C1444 C 0.02223 0.24154 0.37671 0.0
C1445 C 0.07779 0.27301 0.3609 0.0
C1446 C 0.05854 0.26218 0.36619 0.0
H1447 H 0.95577 0.192 0.37574 0.0
H1448 H 0.98624 0.21066 0.36595 0.0
H1449 H 0.03083 0.27049 0.38618 0.0
H1450 H 0.12639 0.30714 0.36995 0.0
H1451 H 0.09487 0.28833 0.37858 0.0
C1452 C 0.80054 0.78204 0.41006 0.0
C1453 C 0.81664 0.78349 0.40407 0.0
C1454 C 0.7874 0.78717 0.40432 0.0
C1455 C 0.7683 0.79159 0.37369 0.0
H1456 H 0.75268 0.8252 0.39185 0.0
C1457 C 0.72317 0.82205 0.34903 0.0
C1458 C 0.70848 0.82327 0.35528 0.0
C1459 C 0.73645 0.81752 0.35518 0.0
C1460 C 0.75664 0.81556 0.38668 0.0
H1461 H 0.83148 0.79125 0.38734 0.0
H1462 H 0.80848 0.80012 0.37731 0.0
H1463 H 0.77546 0.81642 0.40226 0.0
H1464 H 0.69623 0.82069 0.37294 0.0
H1465 H 0.71906 0.81228 0.38359 0.0
H1466 H 0.74928 0.79033 0.3582 0.0
C1467 C 0.80605 0.79505 0.38644 0.0
C1468 C 0.76975 0.81059 0.39265 0.0
C1469 C 0.81931 0.79014 0.39223 0.0
C1470 C 0.70744 0.81997 0.36786 0.0
C1471 C 0.72062 0.81524 0.37399 0.0
C1472 C 0.75506 0.79638 0.36776 0.0
C1473 C 0.78996 0.79361 0.39242 0.0
C1474 C 0.7758 0.79865 0.38619 0.0
C1475 C 0.73526 0.81388 0.36772 0.0
C1476 C 0.74914 0.80854 0.37415 0.0
H1477 H 0.7982 0.77708 0.41922 0.0
H1478 H 0.77505 0.78579 0.40912 0.0
H1479 H 0.77246 0.7821 0.36854 0.0
H1480 H 0.72451 0.82469 0.33936 0.0
H1481 H 0.74777 0.81703 0.3501 0.0
C1482 C 0.26501 0.04016 0.3918 0.0
C1483 C 0.26469 0.05388 0.38414 0.0
C1484 C 0.25652 0.02015 0.38727 0.0
C1485 C 0.24135 0.98597 0.35875 0.0
H1486 H 0.2054 0.94675 0.37886 0.0
C1487 C 0.1932 0.90282 0.34024 0.0
C1488 C 0.19039 0.88879 0.34857 0.0
C1489 C 0.20244 0.92304 0.34447 0.0
C1490 C 0.21561 0.95746 0.3732 0.0
H1491 H 0.25578 0.05756 0.36564 0.0
H1492 H 0.24101 0.02249 0.35767 0.0
H1493 H 0.22185 0.98196 0.38642 0.0
H1494 H 0.19529 0.885 0.36785 0.0
H1495 H 0.21182 0.92025 0.37517 0.0
H1496 H 0.2354 0.96152 0.34561 0.0
C1497 C 0.2478 0.02726 0.36719 0.0
C1498 C 0.22499 0.97763 0.37753 0.0
C1499 C 0.25612 0.04727 0.37176 0.0
C1500 C 0.19708 0.89541 0.36121 0.0
C1501 C 0.20648 0.91564 0.36542 0.0
C1502 C 0.23211 0.96576 0.35447 0.0
C1503 C 0.2477 0.01348 0.37495 0.0
C1504 C 0.23794 0.99209 0.37035 0.0
C1505 C 0.20924 0.92972 0.35711 0.0
C1506 C 0.21911 0.95124 0.36164 0.0
H1507 H 0.27135 0.04481 0.4014 0.0
H1508 H 0.2568 0.00986 0.39342 0.0
H1509 H 0.25141 0.99681 0.35308 0.0
H1510 H 0.18811 0.89818 0.33046 0.0
H1511 H 0.20401 0.93341 0.33785 0.0
C1512 C 0.54326 0.62768 0.27022 0.0
C1513 C 0.52887 0.61491 0.27752 0.0
C1514 C 0.55684 0.64738 0.27489 0.0
C1515 C 0.58066 0.68008 0.3039 0.0
H1516 H 0.58785 0.72256 0.28424 0.0
C1517 C 0.61996 0.76134 0.32536 0.0
C1518 C 0.63221 0.77636 0.31823 0.0
C1519 C 0.60825 0.74171 0.32001 0.0
C1520 C 0.58629 0.71089 0.28977 0.0
H1521 H 0.51761 0.61254 0.29547 0.0
H1522 H 0.54147 0.64695 0.30369 0.0
H1523 H 0.566 0.68797 0.27562 0.0
H1524 H 0.64181 0.78255 0.29989 0.0
H1525 H 0.62163 0.74808 0.29058 0.0
H1526 H 0.60102 0.70281 0.31801 0.0
C1527 C 0.5422 0.64173 0.29435 0.0
C1528 C 0.57373 0.69109 0.28484 0.0
C1529 C 0.52848 0.62211 0.28963 0.0
C1530 C 0.63246 0.77131 0.30561 0.0
C1531 C 0.62083 0.75157 0.30027 0.0
C1532 C 0.59336 0.69984 0.30878 0.0
C1533 C 0.55643 0.65458 0.287 0.0
C1534 C 0.57059 0.67552 0.29193 0.0
C1535 C 0.60862 0.73653 0.30743 0.0
C1536 C 0.5961 0.71551 0.30186 0.0
H1537 H 0.54377 0.62254 0.26081 0.0
H1538 H 0.56773 0.65695 0.26906 0.0
H1539 H 0.57874 0.66834 0.30949 0.0
H1540 H 0.61924 0.76473 0.33508 0.0
H1541 H 0.5987 0.73063 0.32574 0.0
C1542 C 0.33638 0.86716 0.26373 0.0
C1543 C 0.3547 0.88379 0.26851 0.0
C1544 C 0.31927 0.86206 0.26965 0.0
C1545 C 0.29901 0.88196 0.29345 0.0
H1546 H 0.25958 0.82614 0.29315 0.0
C1547 C 0.2342 0.85278 0.32445 0.0
C1548 C 0.21516 0.83993 0.31819 0.0
C1549 C 0.25123 0.85815 0.3184 0.0
C1550 C 0.27043 0.84179 0.29325 0.0
H1551 H 0.36963 0.90805 0.28324 0.0
H1552 H 0.34003 0.89881 0.29388 0.0
H1553 H 0.28937 0.83558 0.28272 0.0
H1554 H 0.1991 0.82238 0.30072 0.0
H1555 H 0.22893 0.83139 0.29027 0.0
H1556 H 0.28018 0.88796 0.30439 0.0
C1557 C 0.33859 0.88999 0.28535 0.0
C1558 C 0.28748 0.84726 0.2872 0.0
C1559 C 0.35561 0.89527 0.2793 0.0
C1560 C 0.21354 0.83231 0.30581 0.0
C1561 C 0.2306 0.8374 0.29983 0.0
C1562 C 0.28211 0.87645 0.29968 0.0
C1563 C 0.32015 0.87327 0.28062 0.0
C1564 C 0.302 0.86744 0.28716 0.0
C1565 C 0.24959 0.8505 0.30604 0.0
C1566 C 0.26763 0.85632 0.29959 0.0
H1567 H 0.33524 0.85819 0.25534 0.0
H1568 H 0.30534 0.84939 0.26553 0.0
H1569 H 0.30957 0.89765 0.29345 0.0
H1570 H 0.23595 0.859 0.33397 0.0
H1571 H 0.26572 0.86819 0.32341 0.0
C1572 C 0.0661 0.44031 0.29124 0.0
C1573 C 0.07441 0.45223 0.28168 0.0
C1574 C 0.07482 0.43002 0.29624 0.0
C1575 C 0.122 0.42849 0.29789 0.0
H1576 H 0.08892 0.37697 0.30931 0.0
C1577 C 0.14976 0.37458 0.3104 0.0
C1578 C 0.14554 0.36757 0.32208 0.0
C1579 C 0.14136 0.38526 0.30557 0.0
C1580 C 0.0983 0.39139 0.3062 0.0
H1581 H 0.09787 0.46238 0.26956 0.0
H1582 H 0.11264 0.4438 0.27787 0.0
H1583 H 0.07341 0.39451 0.30036 0.0
H1584 H 0.12913 0.36607 0.33781 0.0
H1585 H 0.1141 0.38436 0.3292 0.0
H1586 H 0.14681 0.42487 0.3034 0.0
C1587 C 0.09987 0.44289 0.28188 0.0
C1588 C 0.08947 0.40153 0.30114 0.0
C1589 C 0.09135 0.45344 0.27704 0.0
C1590 C 0.13273 0.37138 0.32881 0.0
C1591 C 0.12404 0.38172 0.32388 0.0
C1592 C 0.13078 0.41817 0.30275 0.0
C1593 C 0.09183 0.43116 0.29162 0.0
C1594 C 0.1012 0.42026 0.29695 0.0
C1595 C 0.1283 0.38876 0.31223 0.0
C1596 C 0.11901 0.39959 0.30699 0.0
H1597 H 0.05311 0.43931 0.29502 0.0
H1598 H 0.06839 0.42146 0.30388 0.0
H1599 H 0.13159 0.44304 0.29503 0.0
H1600 H 0.1596 0.37189 0.30501 0.0
H1601 H 0.14477 0.39048 0.29653 0.0
C1602 C 0.36489 0.46823 0.29025 0.0
C1603 C 0.3668 0.45996 0.27887 0.0
C1604 C 0.34725 0.45864 0.29584 0.0
C1605 C 0.29381 0.4211 0.28862 0.0
H1606 H 0.29517 0.41813 0.32417 0.0
C1607 C 0.22603 0.36568 0.31126 0.0
C1608 C 0.22172 0.37216 0.32243 0.0
C1609 C 0.2436 0.37784 0.30621 0.0
C1610 C 0.29455 0.41909 0.31426 0.0
H1611 H 0.35186 0.43489 0.26462 0.0
H1612 H 0.32116 0.41807 0.2744 0.0
H1613 H 0.3263 0.43633 0.31487 0.0
H1614 H 0.23255 0.39659 0.33704 0.0
H1615 H 0.26352 0.41792 0.32816 0.0
H1616 H 0.26213 0.40356 0.28796 0.0
C1617 C 0.33314 0.43218 0.27888 0.0
C1618 C 0.31238 0.42949 0.30892 0.0
C1619 C 0.35075 0.44179 0.27328 0.0
C1620 C 0.23543 0.39118 0.32842 0.0
C1621 C 0.25318 0.40333 0.32338 0.0
C1622 C 0.27605 0.41067 0.29394 0.0
C1623 C 0.33112 0.44054 0.29019 0.0
C1624 C 0.31221 0.43038 0.29601 0.0
C1625 C 0.25741 0.39677 0.3122 0.0
C1626 C 0.27623 0.4093 0.30678 0.0
H1627 H 0.3769 0.48235 0.29471 0.0
H1628 H 0.34611 0.4656 0.30447 0.0
H1629 H 0.29312 0.42187 0.27869 0.0
H1630 H 0.2158 0.35116 0.30636 0.0
H1631 H 0.24654 0.37224 0.29767 0.0
C1632 C 0.5099 0.87368 0.28054 0.0
C1633 C 0.51408 0.88372 0.26985 0.0
C1634 C 0.5235 0.86911 0.28622 0.0
C1635 C 0.5671 0.86371 0.28032 0.0
H1636 H 0.57492 0.86794 0.31625 0.0
C1637 C 0.63045 0.85792 0.30692 0.0
C1638 C 0.62542 0.8465 0.31702 0.0
C1639 C 0.61684 0.86231 0.30102 0.0
C1640 C 0.57277 0.86651 0.3062 0.0
H1641 H 0.53597 0.89716 0.25687 0.0
H1642 H 0.55984 0.88944 0.26685 0.0
H1643 H 0.5514 0.87612 0.30631 0.0
H1644 H 0.60208 0.83066 0.32878 0.0
H1645 H 0.57842 0.83835 0.31849 0.0
H1646 H 0.58868 0.85431 0.28027 0.0
C1647 C 0.54586 0.88469 0.27071 0.0
C1648 C 0.55925 0.87116 0.30049 0.0
C1649 C 0.5322 0.88916 0.26499 0.0
C1650 C 0.60646 0.83951 0.32104 0.0
C1651 C 0.59293 0.84402 0.3152 0.0
C1652 C 0.5807 0.85917 0.28604 0.0
C1653 C 0.54168 0.87458 0.28139 0.0
C1654 C 0.55619 0.86977 0.28747 0.0
C1655 C 0.59798 0.8555 0.30514 0.0
C1656 C 0.58364 0.86046 0.29904 0.0
H1657 H 0.49594 0.86905 0.28441 0.0
H1658 H 0.51961 0.86101 0.2943 0.0
H1659 H 0.56491 0.86215 0.27027 0.0
H1660 H 0.64491 0.86353 0.30357 0.0
H1661 H 0.62123 0.87134 0.29337 0.0
C1662 C 0.0552 0.61653 0.2799 0.0
C1663 C 0.06122 0.60399 0.28494 0.0
C1664 C 0.06312 0.63609 0.28526 0.0
C1665 C 0.09181 0.67061 0.31365 0.0
H1666 H 0.10466 0.71078 0.29097 0.0
C1667 C 0.14189 0.75532 0.32842 0.0
C1668 C 0.13505 0.76754 0.32381 0.0
C1669 C 0.13223 0.73506 0.32417 0.0
C1670 C 0.10099 0.69971 0.29742 0.0
H1671 H 0.08002 0.6019 0.29961 0.0
H1672 H 0.09422 0.63618 0.30884 0.0
H1673 H 0.08872 0.67591 0.28277 0.0
H1674 H 0.11265 0.76806 0.31118 0.0
H1675 H 0.09596 0.7328 0.30372 0.0
H1676 H 0.1046 0.69466 0.32829 0.0
C1677 C 0.08306 0.63084 0.30091 0.0
C1678 C 0.09177 0.6797 0.29274 0.0
C1679 C 0.07497 0.61121 0.29562 0.0
C1680 C 0.11832 0.75907 0.31492 0.0
C1681 C 0.1088 0.7389 0.31059 0.0
C1682 C 0.10121 0.69068 0.31834 0.0
C1683 C 0.07744 0.64361 0.29569 0.0
C1684 C 0.087 0.66488 0.30079 0.0
C1685 C 0.11569 0.7267 0.31514 0.0
C1686 C 0.10583 0.70541 0.31026 0.0
H1687 H 0.04441 0.61124 0.27177 0.0
H1688 H 0.05811 0.64535 0.28116 0.0
H1689 H 0.08813 0.65958 0.32013 0.0
H1690 H 0.15471 0.76139 0.3353 0.0
H1691 H 0.13794 0.72601 0.32776 0.0
C1692 C 0.8079 0.04722 0.38443 0.0
C1693 C 0.80511 0.05439 0.39589 0.0
C1694 C 0.79445 0.02787 0.37909 0.0
C1695 C 0.75587 0.97893 0.38723 0.0
H1696 H 0.74328 0.96685 0.35151 0.0
C1697 C 0.69717 0.90078 0.36324 0.0
C1698 C 0.70305 0.89364 0.35305 0.0
C1699 C 0.70886 0.92052 0.36852 0.0
C1700 C 0.74676 0.97 0.3615 0.0
H1701 H 0.78568 0.04721 0.41053 0.0
H1702 H 0.76193 0.01354 0.4011 0.0
H1703 H 0.76464 0.00128 0.36048 0.0
H1704 H 0.7258 0.90169 0.34042 0.0
H1705 H 0.74607 0.93609 0.34961 0.0
H1706 H 0.73782 0.94759 0.3882 0.0
C1707 C 0.77479 0.02266 0.39638 0.0
C1708 C 0.75903 0.98971 0.36665 0.0
C1709 C 0.78834 0.04197 0.40177 0.0
C1710 C 0.72084 0.90668 0.34827 0.0
C1711 C 0.7324 0.92643 0.35347 0.0
C1712 C 0.74346 0.95923 0.38208 0.0
C1713 C 0.77778 0.01529 0.38503 0.0
C1714 C 0.76392 0.99442 0.37957 0.0
C1715 C 0.72653 0.93357 0.36364 0.0
C1716 C 0.73895 0.95455 0.36915 0.0
H1717 H 0.82083 0.05638 0.37977 0.0
H1718 H 0.79743 0.02262 0.37045 0.0
H1719 H 0.75956 0.98193 0.39721 0.0
H1720 H 0.68357 0.89111 0.36715 0.0
H1721 H 0.70394 0.92567 0.37632 0.0
C1722 C 0.97001 0.76745 0.38798 0.0
C1723 C 0.97115 0.77554 0.40019 0.0
C1724 C 0.98719 0.77319 0.38203 0.0
C1725 C 0.04125 0.81218 0.38461 0.0
H1726 H 0.04329 0.77456 0.36044 0.0
C1727 C 0.11272 0.81917 0.36578 0.0
C1728 C 0.11265 0.81928 0.35284 0.0
C1729 C 0.09553 0.81478 0.37142 0.0
C1730 C 0.04282 0.7852 0.36713 0.0
H1731 H 0.99171 0.79617 0.41562 0.0
H1732 H 0.02152 0.80494 0.40567 0.0
H1733 H 0.01334 0.76443 0.37084 0.0
H1734 H 0.09459 0.81484 0.33563 0.0
H1735 H 0.06426 0.80644 0.3455 0.0
H1736 H 0.07129 0.83253 0.38124 0.0
C1737 C 0.00729 0.79468 0.40047 0.0
C1738 C 0.02562 0.7795 0.37305 0.0
C1739 C 0.99008 0.78929 0.40632 0.0
C1740 C 0.09509 0.81499 0.34563 0.0
C1741 C 0.07776 0.8101 0.35124 0.0
C1742 C 0.0586 0.81769 0.3789 0.0
C1743 C 0.00612 0.78686 0.38819 0.0
C1744 C 0.02453 0.79292 0.38187 0.0
C1745 C 0.07787 0.80996 0.36417 0.0
C1746 C 0.05947 0.80427 0.37009 0.0
H1747 H 0.95583 0.75657 0.38297 0.0
H1748 H 0.98551 0.76701 0.37253 0.0
H1749 H 0.04096 0.82315 0.39109 0.0
H1750 H 0.12607 0.82249 0.37156 0.0
H1751 H 0.09588 0.81469 0.3814 0.0
C1752 C 0.25424 0.20713 0.3742 0.0
C1753 C 0.26621 0.21439 0.38564 0.0
C1754 C 0.24516 0.2172 0.36934 0.0
C1755 C 0.22918 0.25272 0.37941 0.0
H1756 H 0.22427 0.25787 0.34426 0.0
C1757 C 0.20374 0.30451 0.36038 0.0
C1758 C 0.19033 0.29742 0.34953 0.0
C1759 C 0.21239 0.29373 0.36458 0.0
C1760 C 0.22533 0.25633 0.35408 0.0
H1761 H 0.27891 0.23838 0.40063 0.0
H1762 H 0.26333 0.2561 0.39209 0.0
H1763 H 0.24142 0.24087 0.35176 0.0
H1764 H 0.17538 0.27331 0.33462 0.0
H1765 H 0.19055 0.25442 0.34201 0.0
H1766 H 0.21328 0.26831 0.38175 0.0
C1767 C 0.26051 0.24237 0.38702 0.0
C1768 C 0.23516 0.24662 0.35838 0.0
C1769 C 0.26949 0.23227 0.3919 0.0
C1770 C 0.18563 0.27917 0.34302 0.0
C1771 C 0.19442 0.26842 0.3472 0.0
C1772 C 0.21944 0.26246 0.37512 0.0
C1773 C 0.24794 0.23476 0.3758 0.0
C1774 C 0.23732 0.24484 0.37111 0.0
C1775 C 0.20791 0.27563 0.35801 0.0
C1776 C 0.21752 0.2645 0.36243 0.0
H1777 H 0.25128 0.19327 0.36924 0.0
H1778 H 0.23544 0.21085 0.36073 0.0
H1779 H 0.23018 0.25121 0.38923 0.0
H1780 H 0.20767 0.31849 0.36564 0.0
H1781 H 0.2229 0.29977 0.37287 0.0
C1782 C 0.63614 0.5404 0.71441 0.0
C1783 C 0.63504 0.54522 0.72693 0.0
C1784 C 0.65393 0.55086 0.7091 0.0
C1785 C 0.70784 0.58007 0.71713 0.0
H1786 H 0.70861 0.59911 0.68492 0.0
C1787 C 0.78122 0.63201 0.69745 0.0
C1788 C 0.7821 0.62972 0.6846 0.0
C1789 C 0.76324 0.62133 0.70251 0.0
C1790 C 0.70864 0.59363 0.69383 0.0
H1791 H 0.65162 0.56474 0.74369 0.0
H1792 H 0.68279 0.583 0.7344 0.0
H1793 H 0.67719 0.58142 0.69391 0.0
H1794 H 0.76484 0.61404 0.667 0.0
H1795 H 0.73355 0.59497 0.67585 0.0
H1796 H 0.73915 0.59188 0.71703 0.0
C1797 C 0.66988 0.57113 0.72872 0.0
C1798 C 0.69064 0.58358 0.69899 0.0
C1799 C 0.65202 0.56081 0.734 0.0
C1800 C 0.76465 0.61623 0.67693 0.0
C1801 C 0.74667 0.6054 0.68201 0.0
C1802 C 0.72581 0.58993 0.71193 0.0
C1803 C 0.67102 0.56619 0.71623 0.0
C1804 C 0.69008 0.57679 0.71072 0.0
C1805 C 0.7457 0.60794 0.69485 0.0
C1806 C 0.72647 0.59694 0.70024 0.0
H1807 H 0.62323 0.52853 0.70873 0.0
H1808 H 0.65443 0.54668 0.69947 0.0
H1809 H 0.70779 0.57472 0.72611 0.0
H1810 H 0.79436 0.64239 0.70363 0.0
H1811 H 0.76303 0.62393 0.7124 0.0
C1812 C 0.47109 0.10659 0.72644 0.0
C1813 C 0.48304 0.11731 0.73752 0.0
C1814 C 0.4583 0.11211 0.7207 0.0
C1815 C 0.42982 0.13661 0.72658 0.0
H1816 H 0.43192 0.14441 0.69168 0.0
C1817 C 0.38289 0.16547 0.70159 0.0
C1818 C 0.37558 0.15819 0.68909 0.0
C1819 C 0.39634 0.16106 0.7077 0.0
C1820 C 0.43084 0.14199 0.70137 0.0
H1821 H 0.49082 0.14197 0.75141 0.0
H1822 H 0.46804 0.15139 0.74147 0.0
H1823 H 0.45433 0.13517 0.70195 0.0
H1824 H 0.37623 0.14012 0.67328 0.0
H1825 H 0.39892 0.13176 0.68399 0.0
H1826 H 0.40588 0.14268 0.726 0.0
C1827 C 0.46874 0.13883 0.73721 0.0
C1828 C 0.44381 0.13681 0.70726 0.0
C1829 C 0.48182 0.13353 0.74284 0.0
C1830 C 0.38178 0.14618 0.68288 0.0
C1831 C 0.39494 0.14149 0.68903 0.0
C1832 C 0.41659 0.14146 0.72065 0.0
C1833 C 0.45697 0.12825 0.72604 0.0
C1834 C 0.4434 0.13405 0.71991 0.0
C1835 C 0.40256 0.14899 0.7015 0.0
C1836 C 0.41687 0.14417 0.70794 0.0
H1837 H 0.47185 0.0941 0.72213 0.0
H1838 H 0.44929 0.10365 0.71213 0.0
H1839 H 0.42911 0.1344 0.73633 0.0
H1840 H 0.37846 0.17485 0.70662 0.0
H1841 H 0.40207 0.16738 0.71723 0.0
C1842 C 0.92535 0.38181 0.70571 0.0
C1843 C 0.93406 0.38859 0.71804 0.0
C1844 C 0.91707 0.36178 0.70123 0.0
C1845 C 0.89452 0.3124 0.71188 0.0
H1846 H 0.9042 0.29576 0.67987 0.0
C1847 C 0.86596 0.22997 0.69584 0.0
C1848 C 0.85896 0.22322 0.68325 0.0
C1849 C 0.87555 0.25024 0.69997 0.0
C1850 C 0.90112 0.30015 0.68876 0.0
H1851 H 0.94107 0.37982 0.73534 0.0
H1852 H 0.92658 0.34482 0.72751 0.0
H1853 H 0.92044 0.33113 0.68718 0.0
H1854 H 0.8563 0.23242 0.66513 0.0
H1855 H 0.87254 0.26772 0.67237 0.0
H1856 H 0.87489 0.28159 0.7134 0.0
C1857 C 0.92616 0.355 0.72132 0.0
C1858 C 0.91049 0.3204 0.69295 0.0
C1859 C 0.93461 0.37504 0.72576 0.0
C1860 C 0.86164 0.23716 0.67488 0.0
C1861 C 0.87107 0.25742 0.67903 0.0
C1862 C 0.885 0.29219 0.70765 0.0
C1863 C 0.91715 0.34814 0.70905 0.0
C1864 C 0.90733 0.32671 0.70457 0.0
C1865 C 0.87818 0.26422 0.69162 0.0
C1866 C 0.88823 0.28579 0.69605 0.0
H1867 H 0.92484 0.39198 0.69955 0.0
H1868 H 0.91013 0.35686 0.69175 0.0
H1869 H 0.89157 0.31688 0.72079 0.0
H1870 H 0.86428 0.21963 0.70252 0.0
H1871 H 0.88113 0.25495 0.70969 0.0
C1872 C 0.21019 0.96292 0.6071 0.0
C1873 C 0.19594 0.9495 0.61421 0.0
C1874 C 0.22328 0.98257 0.61206 0.0
C1875 C 0.2463 0.01475 0.64134 0.0
H1876 H 0.25258 0.05704 0.62177 0.0
C1877 C 0.28776 0.09695 0.66206 0.0
C1878 C 0.29934 0.11144 0.65443 0.0
C1879 C 0.27553 0.07712 0.65714 0.0
C1880 C 0.25127 0.04544 0.62729 0.0
H1881 H 0.18449 0.94595 0.63214 0.0
H1882 H 0.20753 0.98035 0.64086 0.0
H1883 H 0.23084 0.02247 0.61324 0.0
H1884 H 0.30742 0.11645 0.63568 0.0
H1885 H 0.28649 0.08177 0.62715 0.0
H1886 H 0.26692 0.03761 0.65532 0.0
C1887 C 0.2085 0.97564 0.63145 0.0
C1888 C 0.23876 0.02564 0.62241 0.0
C1889 C 0.19525 0.95603 0.62644 0.0
C1890 C 0.29856 0.10566 0.64179 0.0
C1891 C 0.28647 0.08578 0.63689 0.0
C1892 C 0.25898 0.03456 0.64618 0.0
C1893 C 0.22252 0.98913 0.62426 0.0
C1894 C 0.23609 0.01011 0.6294 0.0
C1895 C 0.27473 0.07127 0.64449 0.0
C1896 C 0.26156 0.05016 0.63924 0.0
H1897 H 0.21093 0.95832 0.59761 0.0
H1898 H 0.23404 0.99264 0.60635 0.0
H1899 H 0.24468 0.00304 0.64686 0.0
H1900 H 0.28792 0.10095 0.67183 0.0
H1901 H 0.26645 0.06645 0.66323 0.0
C1902 C 0.00332 0.20184 0.59743 0.0
C1903 C 0.02163 0.21851 0.60217 0.0
C1904 C 0.98624 0.19669 0.60338 0.0
C1905 C 0.96601 0.21641 0.62732 0.0
H1906 H 0.92694 0.16051 0.62717 0.0
C1907 C 0.90189 0.18696 0.65882 0.0
C1908 C 0.88278 0.17398 0.6527 0.0
C1909 C 0.91879 0.1924 0.65262 0.0
C1910 C 0.93769 0.17617 0.62723 0.0
H1911 H 0.03656 0.24281 0.61688 0.0
H1912 H 0.00702 0.23349 0.62759 0.0
H1913 H 0.95658 0.17012 0.61655 0.0
H1914 H 0.86644 0.15628 0.63532 0.0
H1915 H 0.89605 0.16544 0.6246 0.0
H1916 H 0.94724 0.22225 0.63841 0.0
C1917 C 0.00556 0.22466 0.61905 0.0
C1918 C 0.95465 0.18174 0.62107 0.0
C1919 C 0.02256 0.23 0.61296 0.0
C1920 C 0.88095 0.1663 0.6403 0.0
C1921 C 0.89788 0.17148 0.63417 0.0
C1922 C 0.9492 0.2108 0.63366 0.0
C1923 C 0.98714 0.20789 0.61437 0.0
C1924 C 0.96904 0.20196 0.62098 0.0
C1925 C 0.91694 0.18472 0.64024 0.0
C1926 C 0.93486 0.19064 0.63363 0.0
H1927 H 0.00218 0.19286 0.58904 0.0
H1928 H 0.97232 0.18397 0.5993 0.0
H1929 H 0.97647 0.23211 0.62729 0.0
H1930 H 0.90381 0.19322 0.66835 0.0
H1931 H 0.93334 0.20254 0.65752 0.0
C1932 C 0.73846 0.76941 0.6105 0.0
C1933 C 0.73717 0.7837 0.61831 0.0
C1934 C 0.74751 0.75917 0.61509 0.0
C1935 C 0.78279 0.76282 0.64096 0.0
H1936 H 0.76253 0.7073 0.62956 0.0
C1937 C 0.81057 0.71472 0.66354 0.0
C1938 C 0.81409 0.70222 0.65548 0.0
C1939 C 0.80158 0.72498 0.65892 0.0
C1940 C 0.76846 0.72286 0.63273 0.0
H1941 H 0.74362 0.79797 0.63715 0.0
H1942 H 0.75904 0.7798 0.64525 0.0
H1943 H 0.74524 0.72401 0.62191 0.0
H1944 H 0.81114 0.6909 0.63619 0.0
H1945 H 0.79536 0.70881 0.62815 0.0
H1946 H 0.80583 0.76152 0.65193 0.0
C1947 C 0.75356 0.77686 0.6355 0.0
C1948 C 0.75857 0.73245 0.62835 0.0
C1949 C 0.74466 0.78721 0.63088 0.0
C1950 C 0.80865 0.70042 0.64266 0.0
C1951 C 0.7995 0.71055 0.63806 0.0
C1952 C 0.79257 0.75319 0.64541 0.0
C1953 C 0.75532 0.76289 0.62762 0.0
C1954 C 0.76563 0.75256 0.6324 0.0
C1955 C 0.79577 0.72284 0.64615 0.0
C1956 C 0.78552 0.73313 0.64133 0.0
H1957 H 0.73304 0.7666 0.60073 0.0
H1958 H 0.74885 0.74873 0.60872 0.0
H1959 H 0.78887 0.77842 0.6441 0.0
H1960 H 0.81459 0.71645 0.67346 0.0
H1961 H 0.79875 0.73424 0.66538 0.0
C1962 C 0.03457 0.79925 0.62486 0.0
C1963 C 0.03673 0.79139 0.61342 0.0
C1964 C 0.0171 0.78896 0.63054 0.0
C1965 C 0.9739 0.73894 0.6312 0.0
H1966 H 0.94881 0.76712 0.64486 0.0
C1967 C 0.89432 0.69717 0.64471 0.0
C1968 C 0.89006 0.70422 0.65568 0.0
C1969 C 0.91252 0.70837 0.64003 0.0
C1970 C 0.95577 0.75908 0.64124 0.0
H1971 H 0.02239 0.76646 0.59904 0.0
H1972 H 0.99184 0.74854 0.6089 0.0
H1973 H 0.98021 0.78548 0.63587 0.0
H1974 H 0.90152 0.72878 0.67025 0.0
H1975 H 0.93356 0.74834 0.66213 0.0
H1976 H 0.94959 0.71257 0.63656 0.0
C1977 C 0.0037 0.76262 0.61352 0.0
C1978 C 0.97374 0.76959 0.63608 0.0
C1979 C 0.02111 0.77296 0.60781 0.0
C1980 C 0.90433 0.72295 0.66176 0.0
C1981 C 0.92266 0.73417 0.65709 0.0
C1982 C 0.95602 0.72846 0.6364 0.0
C1983 C 0.00148 0.77053 0.62493 0.0
C1984 C 0.98286 0.75959 0.63088 0.0
C1985 C 0.92702 0.72689 0.64623 0.0
C1986 C 0.94659 0.73835 0.64133 0.0
H1987 H 0.04627 0.81352 0.62935 0.0
H1988 H 0.01589 0.79536 0.63937 0.0
H1989 H 0.98076 0.73087 0.62748 0.0
H1990 H 0.88359 0.68292 0.63967 0.0
H1991 H 0.91518 0.70252 0.6315 0.0
C1992 C 0.18 0.19983 0.59946 0.0
C1993 C 0.18069 0.2178 0.60313 0.0
C1994 C 0.19369 0.19531 0.60507 0.0
C1995 C 0.21679 0.18458 0.6236 0.0
H1996 H 0.27221 0.22577 0.63084 0.0
C1997 C 0.27347 0.1741 0.65421 0.0
C1998 C 0.2927 0.18167 0.65051 0.0
C1999 C 0.25981 0.17826 0.64816 0.0
C2000 C 0.25682 0.21406 0.62879 0.0
H2001 H 0.19648 0.24523 0.61551 0.0
H2002 H 0.22017 0.23721 0.62544 0.0
H2003 H 0.24847 0.23351 0.62067 0.0
H2004 H 0.31254 0.19941 0.63743 0.0
H2005 H 0.28865 0.20653 0.62684 0.0
H2006 H 0.22518 0.16506 0.63157 0.0
C2007 C 0.20914 0.22667 0.61814 0.0
C2008 C 0.24317 0.21855 0.62309 0.0
C2009 C 0.19541 0.23117 0.61255 0.0
C2010 C 0.29789 0.19339 0.64056 0.0
C2011 C 0.28423 0.19757 0.63452 0.0
C2012 C 0.23042 0.1801 0.62932 0.0
C2013 C 0.20843 0.20869 0.61447 0.0
C2014 C 0.22298 0.20388 0.62045 0.0
C2015 C 0.26505 0.1901 0.63828 0.0
C2016 C 0.2506 0.19479 0.63201 0.0
H2017 H 0.16873 0.18912 0.59232 0.0
H2018 H 0.19285 0.18141 0.60194 0.0
H2019 H 0.20132 0.17298 0.6218 0.0
H2020 H 0.26895 0.16505 0.66185 0.0
H2021 H 0.24525 0.17247 0.65139 0.0
C2022 C 0.71993 0.94995 0.61713 0.0
C2023 C 0.7257 0.93735 0.62235 0.0
C2024 C 0.72779 0.96949 0.62247 0.0
C2025 C 0.75659 0.00448 0.65071 0.0
H2026 H 0.77067 0.0439 0.62738 0.0
C2027 C 0.80858 0.08934 0.6642 0.0
C2028 C 0.80209 0.10167 0.65934 0.0
C2029 C 0.79845 0.06894 0.6603 0.0
C2030 C 0.76666 0.03305 0.634 0.0
H2031 H 0.74373 0.93498 0.63738 0.0
H2032 H 0.7579 0.96931 0.64659 0.0
H2033 H 0.75403 0.00882 0.61965 0.0
H2034 H 0.77984 0.10228 0.64661 0.0
H2035 H 0.76235 0.06678 0.63973 0.0
H2036 H 0.76983 0.02901 0.66504 0.0
C2037 C 0.747 0.96404 0.63852 0.0
C2038 C 0.75702 0.01292 0.62959 0.0
C2039 C 0.73893 0.94439 0.63326 0.0
C2040 C 0.78524 0.0932 0.65054 0.0
C2041 C 0.77526 0.07289 0.64655 0.0
C2042 C 0.76643 0.02469 0.65512 0.0
C2043 C 0.74183 0.97695 0.63304 0.0
C2044 C 0.75178 0.99835 0.63788 0.0
C2045 C 0.78179 0.06057 0.65136 0.0
C2046 C 0.77148 0.03914 0.6468 0.0
H2047 H 0.70955 0.94477 0.6088 0.0
H2048 H 0.72308 0.97884 0.61818 0.0
H2049 H 0.75258 0.99367 0.65735 0.0
H2050 H 0.82147 0.09542 0.67103 0.0
H2051 H 0.80387 0.05978 0.66408 0.0
C2052 C 0.47418 0.38495 0.71456 0.0
C2053 C 0.47033 0.39229 0.72557 0.0
C2054 C 0.46096 0.36561 0.70908 0.0
C2055 C 0.4208 0.31714 0.7168 0.0
H2056 H 0.41209 0.30374 0.68108 0.0
C2057 C 0.36294 0.23887 0.69313 0.0
C2058 C 0.36972 0.23071 0.68403 0.0
C2059 C 0.37451 0.25885 0.69792 0.0
C2060 C 0.41448 0.30729 0.69107 0.0
H2061 H 0.44927 0.38557 0.73918 0.0
H2062 H 0.42587 0.352 0.72947 0.0
H2063 H 0.43308 0.33841 0.6898 0.0
H2064 H 0.39383 0.23719 0.67271 0.0
H2065 H 0.41394 0.27213 0.68104 0.0
H2066 H 0.40199 0.286 0.71802 0.0
C2067 C 0.43938 0.36091 0.72524 0.0
C2068 C 0.42654 0.32712 0.69608 0.0
C2069 C 0.45271 0.38016 0.73078 0.0
C2070 C 0.38821 0.24301 0.67974 0.0
C2071 C 0.39967 0.26304 0.68444 0.0
C2072 C 0.40858 0.29736 0.71178 0.0
C2073 C 0.44348 0.35326 0.71443 0.0
C2074 C 0.42998 0.33229 0.70902 0.0
C2075 C 0.39298 0.27113 0.69363 0.0
C2076 C 0.40542 0.29222 0.69888 0.0
H2077 H 0.48777 0.39393 0.71042 0.0
H2078 H 0.46478 0.36016 0.70088 0.0
H2079 H 0.4234 0.32046 0.7268 0.0
H2080 H 0.34877 0.22979 0.69663 0.0
H2081 H 0.36894 0.26475 0.70494 0.0
C2082 C 0.65885 0.12605 0.74179 0.0
C2083 C 0.63995 0.11318 0.73526 0.0
C2084 C 0.67621 0.13122 0.73615 0.0
C2085 C 0.69668 0.13924 0.70692 0.0
H2086 H 0.73534 0.12648 0.72103 0.0
C2087 C 0.76371 0.1502 0.68123 0.0
C2088 C 0.78137 0.15445 0.68825 0.0
C2089 C 0.74661 0.14564 0.68702 0.0
C2090 C 0.72498 0.13058 0.71706 0.0
H2091 H 0.62488 0.09547 0.7176 0.0
H2092 H 0.65521 0.10544 0.70766 0.0
H2093 H 0.70549 0.11803 0.73117 0.0
H2094 H 0.79527 0.15808 0.70686 0.0
H2095 H 0.76592 0.15132 0.71706 0.0
H2096 H 0.71631 0.15255 0.69312 0.0
C2097 C 0.65638 0.11133 0.71718 0.0
C2098 C 0.70779 0.12555 0.72285 0.0
C2099 C 0.63902 0.10577 0.72289 0.0
C2100 C 0.78178 0.15464 0.7012 0.0
C2101 C 0.76484 0.15057 0.70703 0.0
C2102 C 0.71409 0.14471 0.70128 0.0
C2103 C 0.6751 0.12403 0.72378 0.0
C2104 C 0.69345 0.12971 0.71778 0.0
C2105 C 0.74687 0.14569 0.70002 0.0
C2106 C 0.72847 0.14034 0.70621 0.0
H2107 H 0.66032 0.13246 0.75121 0.0
H2108 H 0.69053 0.14116 0.74139 0.0
H2109 H 0.68585 0.14274 0.70292 0.0
H2110 H 0.76292 0.14974 0.6712 0.0
H2111 H 0.73307 0.14161 0.68122 0.0
C2112 C 0.93554 0.56511 0.72537 0.0
C2113 C 0.9326 0.54734 0.71915 0.0
C2114 C 0.9262 0.57486 0.72048 0.0
C2115 C 0.90059 0.57858 0.69181 0.0
H2116 H 0.87839 0.6 0.71513 0.0
C2117 C 0.85165 0.61181 0.6764 0.0
C2118 C 0.85667 0.63014 0.68292 0.0
C2119 C 0.86007 0.60074 0.68059 0.0
C2120 C 0.88461 0.5942 0.70851 0.0
H2121 H 0.91789 0.52606 0.7028 0.0
H2122 H 0.90143 0.54305 0.69425 0.0
H2123 H 0.89535 0.58296 0.72264 0.0
H2124 H 0.87413 0.65101 0.69909 0.0
H2125 H 0.8887 0.63174 0.70634 0.0
H2126 H 0.88975 0.58987 0.67768 0.0
C2127 C 0.91115 0.54957 0.70285 0.0
C2128 C 0.89439 0.5845 0.71281 0.0
C2129 C 0.92058 0.53984 0.70774 0.0
C2130 C 0.86997 0.63698 0.69381 0.0
C2131 C 0.87824 0.62588 0.69803 0.0
C2132 C 0.89072 0.58824 0.68749 0.0
C2133 C 0.91361 0.56702 0.70928 0.0
C2134 C 0.90271 0.57679 0.70454 0.0
C2135 C 0.87348 0.60771 0.69143 0.0
C2136 C 0.88284 0.59635 0.69583 0.0
H2137 H 0.94499 0.57141 0.73409 0.0
H2138 H 0.92878 0.58853 0.72551 0.0
H2139 H 0.90697 0.57295 0.68521 0.0
H2140 H 0.84147 0.60614 0.66797 0.0
H2141 H 0.85602 0.58669 0.67538 0.0
C2142 C 0.45624 0.93631 0.17076 0.0
C2143 C 0.46338 0.94906 0.18192 0.0
C2144 C 0.4607 0.94399 0.15936 0.0
C2145 C 0.49748 0.98713 0.14528 0.0
H2146 H 0.45698 0.96661 0.11712 0.0
C2147 C 0.51292 0.02024 0.09825 0.0
C2148 C 0.50423 0.00694 0.08735 0.0
C2149 C 0.50775 0.01371 0.10989 0.0
C2150 C 0.46855 0.97234 0.12484 0.0
H2151 H 0.48074 0.97986 0.18984 0.0
H2152 H 0.48857 0.9933 0.16987 0.0
H2153 H 0.44811 0.95432 0.13721 0.0
H2154 H 0.48311 0.97629 0.08023 0.0
H2155 H 0.47469 0.96479 0.10048 0.0
H2156 H 0.51803 0.00485 0.1329 0.0
C2157 C 0.47954 0.97735 0.16998 0.0
C2158 C 0.46342 0.96533 0.13636 0.0
C2159 C 0.47492 0.96968 0.1814 0.0
C2160 C 0.49033 0.98692 0.08841 0.0
C2161 C 0.48525 0.98037 0.10005 0.0
C2162 C 0.50265 0.99404 0.13373 0.0
C2163 C 0.47254 0.96457 0.15883 0.0
C2164 C 0.47785 0.97258 0.1467 0.0
C2165 C 0.49383 0.99369 0.11094 0.0
C2166 C 0.48827 0.98667 0.12333 0.0
H2167 H 0.44717 0.92037 0.17086 0.0
H2168 H 0.45521 0.93374 0.15094 0.0
H2169 H 0.50898 0.99281 0.15304 0.0
H2170 H 0.52384 0.03571 0.09782 0.0
H2171 H 0.51452 0.02444 0.11805 0.0
C2172 C 0.02095 0.49103 0.18153 0.0
C2173 C 0.00512 0.48297 0.1889 0.0
C2174 C 0.01737 0.48752 0.16862 0.0
C2175 C 0.97961 0.45552 0.1424 0.0
H2176 H 0.00986 0.50129 0.1247 0.0
C2177 C 0.96006 0.45994 0.09064 0.0
C2178 C 0.976 0.46999 0.08352 0.0
C2179 C 0.96362 0.45925 0.10333 0.0
C2180 C 0.00149 0.48827 0.12947 0.0
H2181 H 0.97315 0.46445 0.18859 0.0
H2182 H 0.96679 0.45853 0.16592 0.0
H2183 H 0.01585 0.50444 0.14716 0.0
H2184 H 0.00819 0.48655 0.08409 0.0
H2185 H 0.01437 0.48501 0.10613 0.0
H2186 H 0.96498 0.4395 0.12458 0.0
C2187 C 0.98202 0.46737 0.17015 0.0
C2188 C 0.00493 0.49007 0.14237 0.0
C2189 C 0.98564 0.47079 0.18311 0.0
C2190 C 0.99556 0.47855 0.08926 0.0
C2191 C 0.99912 0.47788 0.10193 0.0
C2192 C 0.97612 0.45373 0.12944 0.0
C2193 C 0.99784 0.47597 0.16275 0.0
C2194 C 0.99408 0.47373 0.149 0.0
C2195 C 0.9832 0.46865 0.10916 0.0
C2196 C 0.98707 0.4701 0.12285 0.0
H2197 H 0.03617 0.50012 0.18575 0.0
H2198 H 0.02994 0.49398 0.16322 0.0
H2199 H 0.97114 0.4426 0.14722 0.0
H2200 H 0.94482 0.45299 0.08645 0.0
H2201 H 0.95105 0.45208 0.10866 0.0
C2202 C 0.48852 0.51043 0.18305 0.0
C2203 C 0.4721 0.49466 0.18754 0.0
C2204 C 0.49241 0.50895 0.17077 0.0
C2205 C 0.4689 0.48074 0.13986 0.0
H2206 H 0.52375 0.50452 0.13253 0.0
C2207 C 0.49149 0.4706 0.09121 0.0
C2208 C 0.50615 0.48798 0.08683 0.0
C2209 C 0.48707 0.47086 0.10349 0.0
C2210 C 0.50837 0.49793 0.13444 0.0
H2211 H 0.44692 0.46492 0.18272 0.0
H2212 H 0.45394 0.46209 0.16126 0.0
H2213 H 0.51651 0.50551 0.154 0.0
H2214 H 0.5278 0.51919 0.09186 0.0
H2215 H 0.52016 0.51962 0.11336 0.0
H2216 H 0.46086 0.47294 0.12023 0.0
C2217 C 0.46361 0.47578 0.16718 0.0
C2218 C 0.5042 0.49854 0.14673 0.0
C2219 C 0.45961 0.47735 0.17947 0.0
C2220 C 0.51635 0.50561 0.09498 0.0
C2221 C 0.51209 0.50581 0.10729 0.0
C2222 C 0.47309 0.47998 0.12756 0.0
C2223 C 0.48008 0.49158 0.16268 0.0
C2224 C 0.48442 0.49013 0.14961 0.0
C2225 C 0.49739 0.48845 0.11166 0.0
C2226 C 0.49287 0.48873 0.12472 0.0
H2227 H 0.49819 0.52411 0.18899 0.0
H2228 H 0.50495 0.52159 0.16758 0.0
H2229 H 0.45352 0.47437 0.14169 0.0
H2230 H 0.48327 0.45685 0.0851 0.0
H2231 H 0.47575 0.45724 0.10663 0.0
C2232 C 0.0013 0.51967 0.82039 0.0
C2233 C 0.99638 0.50207 0.813 0.0
C2234 C 0.00486 0.52109 0.83329 0.0
C2235 C 0.0162 0.49723 0.85861 0.0
H2236 H 0.99579 0.5245 0.8788 0.0
C2237 C 0.01332 0.49357 0.91151 0.0
C2238 C 0.02011 0.51173 0.91882 0.0
C2239 C 0.01055 0.49238 0.89858 0.0
C2240 C 0.00171 0.51698 0.87328 0.0
H2241 H 0.99134 0.47215 0.81328 0.0
H2242 H 0.99724 0.47446 0.8358 0.0
H2243 H 0.99107 0.52254 0.85625 0.0
H2244 H 0.02896 0.54279 0.91837 0.0
H2245 H 0.02408 0.54071 0.89576 0.0
H2246 H 0.02653 0.49141 0.87571 0.0
C2247 C 0.99877 0.48734 0.83165 0.0
C2248 C 0.99908 0.51591 0.86035 0.0
C2249 C 0.99537 0.48599 0.81874 0.0
C2250 C 0.02386 0.52863 0.91296 0.0
C2251 C 0.02092 0.52741 0.90004 0.0
C2252 C 0.01869 0.49817 0.87154 0.0
C2253 C 0.00341 0.50486 0.83909 0.0
C2254 C 0.00634 0.50606 0.85285 0.0
C2255 C 0.01433 0.5093 0.89272 0.0
C2256 C 0.01151 0.5081 0.879 0.0
H2257 H 0.00243 0.53238 0.81619 0.0
H2258 H 0.0088 0.53494 0.8387 0.0
H2259 H 0.02224 0.48979 0.85313 0.0
H2260 H 0.01046 0.48034 0.91579 0.0
H2261 H 0.0053 0.47819 0.89316 0.0
C2262 C 0.52801 0.5197 0.8233 0.0
C2263 C 0.54119 0.51315 0.82022 0.0
C2264 C 0.52511 0.52237 0.8357 0.0
C2265 C 0.53163 0.5068 0.86646 0.0
H2266 H 0.51854 0.54636 0.87852 0.0
C2267 C 0.52261 0.51975 0.91792 0.0
C2268 C 0.50466 0.51905 0.92013 0.0
C2269 C 0.52851 0.521 0.90596 0.0
C2270 C 0.52215 0.53523 0.87524 0.0
H2271 H 0.56245 0.50524 0.82761 0.0
H2272 H 0.55807 0.51064 0.84928 0.0
H2273 H 0.52687 0.54539 0.85724 0.0
H2274 H 0.47914 0.51963 0.91141 0.0
H2275 H 0.48981 0.5224 0.89061 0.0
H2276 H 0.52717 0.49687 0.88454 0.0
C2277 C 0.54937 0.51304 0.84216 0.0
C2278 C 0.52683 0.53459 0.86304 0.0
C2279 C 0.55201 0.51007 0.82976 0.0
C2280 C 0.49317 0.5204 0.91013 0.0
C2281 C 0.49923 0.52193 0.89819 0.0
C2282 C 0.52724 0.50764 0.87868 0.0
C2283 C 0.53557 0.51881 0.8453 0.0
C2284 C 0.53148 0.52024 0.85845 0.0
C2285 C 0.51677 0.52189 0.89597 0.0
C2286 C 0.52231 0.52175 0.88316 0.0
H2287 H 0.51937 0.52201 0.81608 0.0
H2288 H 0.51416 0.52655 0.83771 0.0
H2289 H 0.53465 0.49524 0.86322 0.0
H2290 H 0.5321 0.51922 0.92542 0.0
H2291 H 0.54225 0.52121 0.90451 0.0
C2292 C 0.51174 0.03923 0.82621 0.0
C2293 C 0.52767 0.04001 0.82035 0.0
C2294 C 0.50765 0.03193 0.83774 0.0
C2295 C 0.5308 0.02193 0.86518 0.0
H2296 H 0.47623 0.99179 0.87288 0.0
C2297 C 0.50948 0.98424 0.91047 0.0
C2298 C 0.49563 0.98697 0.91678 0.0
C2299 C 0.51325 0.98999 0.89853 0.0
C2300 C 0.49155 0.0003 0.87089 0.0
H2301 H 0.55153 0.03331 0.82187 0.0
H2302 H 0.54419 0.02019 0.84191 0.0
H2303 H 0.48297 0.00272 0.85228 0.0
H2304 H 0.47464 0.99752 0.91543 0.0
H2305 H 0.4812 0.00753 0.89457 0.0
H2306 H 0.53931 0.0193 0.8838 0.0
C2307 C 0.5351 0.02564 0.83773 0.0
C2308 C 0.49544 0.00662 0.85909 0.0
C2309 C 0.53929 0.0331 0.82622 0.0
C2310 C 0.4855 0.99537 0.91084 0.0
C2311 C 0.48913 0.00094 0.89886 0.0
C2312 C 0.5269 0.01546 0.87695 0.0
C2313 C 0.51929 0.02506 0.84368 0.0
C2314 C 0.51512 0.01767 0.8561 0.0
C2315 C 0.50311 0.9984 0.8926 0.0
C2316 C 0.50723 0.00471 0.87996 0.0
H2317 H 0.50271 0.04474 0.82201 0.0
H2318 H 0.4956 0.03208 0.84212 0.0
H2319 H 0.54615 0.03067 0.86331 0.0
H2320 H 0.51763 0.97795 0.91485 0.0
H2321 H 0.524 0.98772 0.8939 0.0
C2322 C 0.1231 0.26992 0.50412 0.0
C2323 C 0.13007 0.28275 0.51523 0.0
C2324 C 0.12784 0.27748 0.4927 0.0
C2325 C 0.14647 0.32383 0.4773 0.0
H2326 H 0.15862 0.29439 0.45258 0.0
C2327 C 0.17911 0.35476 0.43175 0.0
C2328 C 0.17073 0.34148 0.42082 0.0
C2329 C 0.17425 0.348 0.44338 0.0
C2330 C 0.1551 0.30269 0.45935 0.0
H2331 H 0.14733 0.31359 0.52307 0.0
H2332 H 0.15585 0.32683 0.50314 0.0
H2333 H 0.14986 0.28198 0.47262 0.0
H2334 H 0.15029 0.3107 0.41362 0.0
H2335 H 0.14212 0.29892 0.43387 0.0
H2336 H 0.15199 0.34467 0.46399 0.0
C2337 C 0.14644 0.31092 0.50322 0.0
C2338 C 0.15002 0.29556 0.47083 0.0
C2339 C 0.14159 0.30335 0.51465 0.0
C2340 C 0.15737 0.32129 0.42183 0.0
C2341 C 0.15262 0.31453 0.43344 0.0
C2342 C 0.15169 0.33104 0.46581 0.0
C2343 C 0.13978 0.29806 0.4921 0.0
C2344 C 0.1455 0.30594 0.47994 0.0
C2345 C 0.161 0.32779 0.44435 0.0
C2346 C 0.15593 0.32047 0.45668 0.0
H2347 H 0.11392 0.254 0.50425 0.0
H2348 H 0.12205 0.26715 0.48433 0.0
H2349 H 0.14285 0.3321 0.48402 0.0
H2350 H 0.18965 0.37036 0.43135 0.0
H2351 H 0.18113 0.35855 0.45163 0.0
C2352 C 0.6581 0.81708 0.51857 0.0
C2353 C 0.67778 0.82644 0.52418 0.0
C2354 C 0.65421 0.81575 0.50569 0.0
C2355 C 0.67853 0.83967 0.47841 0.0
H2356 H 0.63303 0.79381 0.45976 0.0
C2357 C 0.66618 0.82916 0.42486 0.0
C2358 C 0.64685 0.82296 0.41945 0.0
C2359 C 0.66991 0.8293 0.43763 0.0
C2360 C 0.6457 0.80677 0.46488 0.0
H2361 H 0.70877 0.84084 0.52076 0.0
H2362 H 0.70203 0.83812 0.49829 0.0
H2363 H 0.63969 0.79385 0.48204 0.0
H2364 H 0.61636 0.81238 0.4233 0.0
H2365 H 0.62288 0.81234 0.44556 0.0
H2366 H 0.68464 0.85246 0.46121 0.0
C2367 C 0.68959 0.83234 0.50381 0.0
C2368 C 0.64951 0.80682 0.47764 0.0
C2369 C 0.69346 0.83383 0.51667 0.0
C2370 C 0.63136 0.81694 0.42713 0.0
C2371 C 0.63508 0.81693 0.43987 0.0
C2372 C 0.67481 0.83954 0.46566 0.0
C2373 C 0.66993 0.82361 0.49817 0.0
C2374 C 0.66596 0.82329 0.48456 0.0
C2375 C 0.65438 0.82309 0.44525 0.0
C2376 C 0.65835 0.82312 0.45877 0.0
H2377 H 0.64575 0.81141 0.52417 0.0
H2378 H 0.63891 0.80913 0.50168 0.0
H2379 H 0.69109 0.85278 0.48348 0.0
H2380 H 0.67839 0.83354 0.41921 0.0
H2381 H 0.68491 0.83391 0.44151 0.0
C2382 C 0.15664 0.84851 0.51682 0.0
C2383 C 0.14082 0.8325 0.52157 0.0
C2384 C 0.16026 0.84693 0.50448 0.0
C2385 C 0.13657 0.8174 0.4739 0.0
H2386 H 0.19117 0.84258 0.46595 0.0
C2387 C 0.15837 0.80585 0.42527 0.0
C2388 C 0.17248 0.82309 0.42047 0.0
C2389 C 0.15424 0.80665 0.43758 0.0
C2390 C 0.17585 0.8356 0.46802 0.0
H2391 H 0.11641 0.80224 0.51715 0.0
H2392 H 0.12294 0.79927 0.49561 0.0
H2393 H 0.18447 0.84422 0.48749 0.0
H2394 H 0.19346 0.85463 0.42481 0.0
H2395 H 0.18632 0.85601 0.44636 0.0
H2396 H 0.12806 0.80855 0.45437 0.0
C2397 C 0.13235 0.81321 0.50136 0.0
C2398 C 0.17198 0.83657 0.48036 0.0
C2399 C 0.12862 0.81487 0.5137 0.0
C2400 C 0.18242 0.84113 0.42824 0.0
C2401 C 0.17846 0.84189 0.44059 0.0
C2402 C 0.14046 0.81628 0.46155 0.0
C2403 C 0.14823 0.82923 0.49659 0.0
C2404 C 0.15229 0.82762 0.48346 0.0
C2405 C 0.16431 0.82466 0.44538 0.0
C2406 C 0.16014 0.82549 0.45849 0.0
H2407 H 0.16607 0.86242 0.5226 0.0
H2408 H 0.17234 0.85973 0.50108 0.0
H2409 H 0.12123 0.81059 0.4759 0.0
H2410 H 0.15035 0.79177 0.41946 0.0
H2411 H 0.14336 0.79312 0.44105 0.0
C2412 C 0.66742 0.85438 0.1534 0.0
C2413 C 0.66192 0.83655 0.14607 0.0
C2414 C 0.67119 0.85592 0.16629 0.0
C2415 C 0.68235 0.83177 0.1915 0.0
H2416 H 0.66358 0.86021 0.2121 0.0
C2417 C 0.68021 0.82787 0.24437 0.0
C2418 C 0.68741 0.846 0.2518 0.0
C2419 C 0.67734 0.82691 0.23145 0.0
C2420 C 0.66906 0.85237 0.20646 0.0
H2421 H 0.65592 0.80631 0.14648 0.0
H2422 H 0.6622 0.80885 0.16897 0.0
H2423 H 0.65839 0.85827 0.18956 0.0
H2424 H 0.6969 0.87725 0.25159 0.0
H2425 H 0.69188 0.87557 0.22901 0.0
H2426 H 0.69271 0.82561 0.20845 0.0
C2427 C 0.66406 0.82182 0.16477 0.0
C2428 C 0.66615 0.8513 0.19354 0.0
C2429 C 0.66042 0.82034 0.15188 0.0
C2430 C 0.69149 0.86311 0.24608 0.0
C2431 C 0.68846 0.86211 0.23317 0.0
C2432 C 0.68512 0.83272 0.20441 0.0
C2433 C 0.6694 0.8396 0.17215 0.0
C2434 C 0.67276 0.84098 0.1859 0.0
C2435 C 0.68145 0.84402 0.22573 0.0
C2436 C 0.6785 0.84302 0.21202 0.0
H2437 H 0.66891 0.86719 0.14915 0.0
H2438 H 0.67562 0.86994 0.17166 0.0
H2439 H 0.68793 0.82398 0.18591 0.0
H2440 H 0.67708 0.81448 0.24852 0.0
H2441 H 0.67175 0.81273 0.22595 0.0
C2442 C 0.19676 0.85359 0.15686 0.0
C2443 C 0.21016 0.84728 0.15388 0.0
C2444 C 0.19385 0.85641 0.16925 0.0
C2445 C 0.20093 0.84166 0.2002 0.0
H2446 H 0.18655 0.88044 0.21183 0.0
C2447 C 0.19115 0.85466 0.25149 0.0
C2448 C 0.17284 0.85325 0.25354 0.0
C2449 C 0.19724 0.85609 0.23958 0.0
C2450 C 0.19054 0.86955 0.20867 0.0
H2451 H 0.23179 0.83996 0.1614 0.0
H2452 H 0.22744 0.84567 0.18304 0.0
H2453 H 0.19507 0.87945 0.1906 0.0
H2454 H 0.14689 0.85282 0.2446 0.0
H2455 H 0.1579 0.85592 0.22388 0.0
H2456 H 0.19665 0.83201 0.21835 0.0
C2457 C 0.21856 0.84775 0.17587 0.0
C2458 C 0.19532 0.86888 0.1965 0.0
C2459 C 0.2212 0.84461 0.16349 0.0
C2460 C 0.16119 0.85414 0.24344 0.0
C2461 C 0.16744 0.85585 0.23155 0.0
C2462 C 0.19645 0.84255 0.21239 0.0
C2463 C 0.20453 0.85326 0.17892 0.0
C2464 C 0.20041 0.8548 0.19206 0.0
C2465 C 0.18534 0.85646 0.22948 0.0
C2466 C 0.19105 0.85637 0.21672 0.0
H2467 H 0.18795 0.85557 0.14959 0.0
H2468 H 0.18272 0.86037 0.17118 0.0
H2469 H 0.20429 0.8303 0.19708 0.0
H2470 H 0.20075 0.85451 0.25907 0.0
H2471 H 0.21124 0.85679 0.23824 0.0
C2472 C 0.20752 0.36922 0.16077 0.0
C2473 C 0.19624 0.37658 0.15498 0.0
C2474 C 0.2036 0.36228 0.17243 0.0
C2475 C 0.18146 0.36701 0.20049 0.0
H2476 H 0.1786 0.31742 0.20711 0.0
C2477 C 0.15423 0.33204 0.24565 0.0
C2478 C 0.16375 0.3228 0.25126 0.0
C2479 C 0.15819 0.33824 0.23383 0.0
C2480 C 0.17961 0.33144 0.20549 0.0
H2481 H 0.17213 0.38258 0.15694 0.0
H2482 H 0.16528 0.37045 0.17725 0.0
H2483 H 0.1858 0.32903 0.18668 0.0
H2484 H 0.18499 0.3129 0.2489 0.0
H2485 H 0.19218 0.324 0.22835 0.0
H2486 H 0.17559 0.36967 0.21929 0.0
C2487 C 0.17717 0.37006 0.17279 0.0
C2488 C 0.1837 0.33806 0.19376 0.0
C2489 C 0.18096 0.37683 0.1611 0.0
C2490 C 0.17724 0.31977 0.24475 0.0
C2491 C 0.18133 0.32611 0.23296 0.0
C2492 C 0.17753 0.36049 0.21223 0.0
C2493 C 0.18846 0.36275 0.1786 0.0
C2494 C 0.18454 0.35585 0.19111 0.0
C2495 C 0.1719 0.33549 0.22736 0.0
C2496 C 0.17642 0.34255 0.21488 0.0
H2497 H 0.2193 0.36872 0.15624 0.0
H2498 H 0.21264 0.35684 0.17671 0.0
H2499 H 0.18234 0.38095 0.1988 0.0
H2500 H 0.14353 0.33431 0.25035 0.0
H2501 H 0.15032 0.34501 0.22973 0.0
C2502 C 0.80927 0.63846 0.84805 0.0
C2503 C 0.79771 0.61781 0.84847 0.0
C2504 C 0.81404 0.64628 0.83668 0.0
C2505 C 0.79829 0.63457 0.80301 0.0
H2506 H 0.85293 0.6743 0.79982 0.0
C2507 C 0.82576 0.65634 0.75525 0.0
C2508 C 0.83958 0.67639 0.7542 0.0
C2509 C 0.82058 0.64978 0.76686 0.0
C2510 C 0.83754 0.66344 0.80057 0.0
H2511 H 0.78162 0.58923 0.83728 0.0
H2512 H 0.78994 0.60285 0.81746 0.0
H2513 H 0.84367 0.66208 0.81989 0.0
H2514 H 0.85891 0.70522 0.76467 0.0
H2515 H 0.84943 0.69391 0.78489 0.0
H2516 H 0.79205 0.63596 0.78376 0.0
C2517 C 0.79532 0.61301 0.82591 0.0
C2518 C 0.83225 0.65641 0.81209 0.0
C2519 C 0.79071 0.60519 0.83726 0.0
C2520 C 0.84807 0.68971 0.7651 0.0
C2521 C 0.84281 0.68317 0.77672 0.0
C2522 C 0.80353 0.64168 0.79153 0.0
C2523 C 0.80717 0.63362 0.82549 0.0
C2524 C 0.8126 0.64177 0.81341 0.0
C2525 C 0.82896 0.66312 0.77776 0.0
C2526 C 0.82327 0.65607 0.79012 0.0
H2527 H 0.81498 0.64854 0.85654 0.0
H2528 H 0.82306 0.66224 0.83665 0.0
H2529 H 0.78296 0.62351 0.80378 0.0
H2530 H 0.81869 0.64568 0.74706 0.0
H2531 H 0.81009 0.63418 0.76728 0.0
C2532 C 0.3581 0.15484 0.84986 0.0
C2533 C 0.34252 0.15065 0.85718 0.0
C2534 C 0.3545 0.15185 0.83693 0.0
C2535 C 0.31401 0.12816 0.81068 0.0
H2536 H 0.35396 0.16852 0.79297 0.0
C2537 C 0.29977 0.14156 0.76018 0.0
C2538 C 0.31456 0.14499 0.75227 0.0
C2539 C 0.30287 0.13996 0.77276 0.0
C2540 C 0.34278 0.157 0.79777 0.0
H2541 H 0.31092 0.13973 0.85683 0.0
H2542 H 0.30463 0.13508 0.83421 0.0
H2543 H 0.35989 0.17006 0.81536 0.0
H2544 H 0.34392 0.14856 0.75136 0.0
H2545 H 0.3495 0.1463 0.77341 0.0
H2546 H 0.29662 0.11564 0.79299 0.0
C2547 C 0.31958 0.14022 0.83841 0.0
C2548 C 0.34618 0.15781 0.81062 0.0
C2549 C 0.32315 0.14295 0.85136 0.0
C2550 C 0.33237 0.14634 0.75722 0.0
C2551 C 0.33555 0.14495 0.76982 0.0
C2552 C 0.31051 0.1275 0.79782 0.0
C2553 C 0.33527 0.1449 0.83102 0.0
C2554 C 0.33183 0.14345 0.81726 0.0
C2555 C 0.32091 0.14195 0.77774 0.0
C2556 C 0.32485 0.14196 0.79126 0.0
H2557 H 0.37312 0.16052 0.85415 0.0
H2558 H 0.36686 0.15515 0.83158 0.0
H2559 H 0.30275 0.11667 0.81544 0.0
H2560 H 0.286 0.14075 0.75676 0.0
H2561 H 0.29144 0.13787 0.77869 0.0
C2562 C 0.82826 0.17859 0.85247 0.0
C2563 C 0.8124 0.16253 0.85716 0.0
C2564 C 0.83203 0.17707 0.84015 0.0
C2565 C 0.80807 0.14785 0.80956 0.0
H2566 H 0.86239 0.17399 0.80109 0.0
C2567 C 0.82874 0.13816 0.76027 0.0
C2568 C 0.84251 0.15566 0.75555 0.0
C2569 C 0.82499 0.13851 0.77269 0.0
C2570 C 0.84714 0.16673 0.80331 0.0
H2571 H 0.78826 0.13214 0.8527 0.0
H2572 H 0.79507 0.12927 0.83122 0.0
H2573 H 0.85616 0.17496 0.82278 0.0
H2574 H 0.86329 0.18719 0.76013 0.0
H2575 H 0.85681 0.18779 0.78187 0.0
H2576 H 0.79914 0.13944 0.79004 0.0
C2577 C 0.80436 0.14322 0.83699 0.0
C2578 C 0.84354 0.16732 0.81574 0.0
C2579 C 0.80049 0.14482 0.8493 0.0
C2580 C 0.85251 0.17351 0.7635 0.0
C2581 C 0.84893 0.17381 0.77595 0.0
C2582 C 0.81169 0.14712 0.79713 0.0
C2583 C 0.82012 0.15939 0.83223 0.0
C2584 C 0.82395 0.15803 0.81903 0.0
C2585 C 0.83511 0.15632 0.78067 0.0
C2586 C 0.83126 0.15669 0.79388 0.0
H2587 H 0.83748 0.19256 0.85824 0.0
H2588 H 0.84402 0.18996 0.83678 0.0
H2589 H 0.79279 0.1408 0.8117 0.0
H2590 H 0.82068 0.12423 0.75432 0.0
H2591 H 0.81436 0.12479 0.77608 0.0
C2592 C 0.32702 0.15086 0.48506 0.0
C2593 C 0.3281 0.16699 0.47935 0.0
C2594 C 0.33056 0.15221 0.49796 0.0
C2595 C 0.33144 0.18094 0.52677 0.0
H2596 H 0.3589 0.15626 0.54188 0.0
C2597 C 0.35699 0.19384 0.57926 0.0
C2598 C 0.35334 0.17698 0.58514 0.0
C2599 C 0.35384 0.19254 0.56634 0.0
C2600 C 0.35105 0.16307 0.53778 0.0
H2601 H 0.33441 0.19739 0.4826 0.0
H2602 H 0.34099 0.19992 0.50509 0.0
H2603 H 0.35425 0.15455 0.51931 0.0
H2604 H 0.34365 0.14558 0.58213 0.0
H2605 H 0.33814 0.1433 0.55952 0.0
H2606 H 0.3285 0.18966 0.54527 0.0
C2607 C 0.3369 0.18604 0.49965 0.0
C2608 C 0.34836 0.16207 0.52485 0.0
C2609 C 0.33321 0.18463 0.48677 0.0
C2610 C 0.34645 0.15878 0.57785 0.0
C2611 C 0.34347 0.15752 0.56492 0.0
C2612 C 0.33427 0.18205 0.53968 0.0
C2613 C 0.3354 0.16977 0.50543 0.0
C2614 C 0.3385 0.17099 0.51918 0.0
C2615 C 0.34715 0.17439 0.55904 0.0
C2616 C 0.34408 0.17311 0.54532 0.0
H2617 H 0.32285 0.13699 0.47959 0.0
H2618 H 0.32898 0.13929 0.50209 0.0
H2619 H 0.32344 0.18763 0.52273 0.0
H2620 H 0.36215 0.20802 0.58465 0.0
H2621 H 0.35693 0.20582 0.56206 0.0
C2622 C 0.86268 0.18449 0.49131 0.0
C2623 C 0.87659 0.17879 0.48847 0.0
C2624 C 0.85967 0.18741 0.50366 0.0
C2625 C 0.86764 0.17398 0.53489 0.0
H2626 H 0.85168 0.21176 0.54598 0.0
C2627 C 0.85793 0.18782 0.58609 0.0
C2628 C 0.83949 0.18607 0.58816 0.0
C2629 C 0.86385 0.18899 0.57413 0.0
C2630 C 0.8561 0.20113 0.54297 0.0
H2631 H 0.89899 0.17266 0.49623 0.0
H2632 H 0.8944 0.17852 0.51779 0.0
H2633 H 0.86014 0.21051 0.52475 0.0
H2634 H 0.81308 0.18473 0.57919 0.0
H2635 H 0.82377 0.18737 0.55839 0.0
H2636 H 0.86386 0.16485 0.55318 0.0
C2637 C 0.88524 0.18005 0.51053 0.0
C2638 C 0.86086 0.20033 0.5308 0.0
C2639 C 0.888 0.17682 0.49819 0.0
C2640 C 0.82749 0.18633 0.57802 0.0
C2641 C 0.83356 0.18777 0.56608 0.0
C2642 C 0.86318 0.17501 0.54707 0.0
C2643 C 0.87072 0.18496 0.51344 0.0
C2644 C 0.86654 0.18661 0.52656 0.0
C2645 C 0.85162 0.18875 0.564 0.0
C2646 C 0.85722 0.18847 0.55121 0.0
H2647 H 0.85359 0.18593 0.48395 0.0
H2648 H 0.84818 0.1909 0.50548 0.0
H2649 H 0.87148 0.1629 0.53193 0.0
H2650 H 0.86779 0.18816 0.59369 0.0
H2651 H 0.87798 0.19 0.5728 0.0
C2652 C 0.87627 0.72254 0.49976 0.0
C2653 C 0.86501 0.71035 0.48883 0.0
C2654 C 0.87228 0.71546 0.51136 0.0
C2655 C 0.84669 0.66909 0.52664 0.0
H2656 H 0.84952 0.70509 0.55408 0.0
C2657 C 0.84 0.64884 0.57723 0.0
C2658 C 0.82973 0.65528 0.58469 0.0
C2659 C 0.84418 0.65512 0.56543 0.0
C2660 C 0.84846 0.69476 0.54651 0.0
H2661 H 0.84095 0.68091 0.4816 0.0
H2662 H 0.83359 0.66876 0.50184 0.0
H2663 H 0.85682 0.71668 0.53375 0.0
H2664 H 0.81523 0.67286 0.58546 0.0
H2665 H 0.82225 0.68361 0.56486 0.0
H2666 H 0.83774 0.64699 0.53935 0.0
C2667 C 0.84571 0.68374 0.50143 0.0
C2668 C 0.85294 0.7015 0.53486 0.0
C2669 C 0.84977 0.69081 0.48982 0.0
C2670 C 0.82346 0.66789 0.58002 0.0
C2671 C 0.82753 0.67409 0.56821 0.0
C2672 C 0.84213 0.66231 0.53829 0.0
C2673 C 0.85683 0.69603 0.51236 0.0
C2674 C 0.85214 0.68877 0.52477 0.0
C2675 C 0.83809 0.66792 0.5608 0.0
C2676 C 0.84294 0.67506 0.54837 0.0
H2677 H 0.88797 0.73775 0.49939 0.0
H2678 H 0.88134 0.72526 0.51955 0.0
H2679 H 0.8461 0.65892 0.51912 0.0
H2680 H 0.84523 0.6393 0.58063 0.0
H2681 H 0.85258 0.65029 0.56007 0.0
loop_
_geom_bond_atom_site_label_1
_geom_bond_atom_site_label_2
_geom_bond_distance
_geom_bond_site_symmetry_2
_ccdc_geom_bond_type
C0 C1 1.386 . S
C0 C2 1.397 . S
C0 H24 0.931 . S
C1 C0 1.386 . S
C1 C5 1.397 . S
C2 C0 1.397 . S
C2 C3 1.384 . S
C2 H25 0.930 . S
C3 C2 1.384 . S
C3 C4 1.377 . S
C3 C6 1.481 . S
C4 C3 1.377 . S
C4 C5 1.389 . S
C4 H26 0.929 . S
C5 C1 1.397 . S
C5 C4 1.389 . S
C5 H27 0.931 . S
C6 C3 1.481 . S
C6 C7 1.387 . S
C6 C11 1.390 . S
C7 C6 1.387 . S
C7 C8 1.401 . S
C7 H28 0.930 . S
C8 C7 1.401 . S
C8 C9 1.376 . S
C8 C17 1.511 . S
C9 C8 1.376 . S
C9 C10 1.392 . S
C9 H30 0.931 . S
C10 C9 1.392 . S
C10 C11 1.361 . S
C10 C12 1.500 . S
C11 C6 1.390 . S
C11 C10 1.361 . S
C11 H29 0.931 . S
C12 C10 1.500 . S
C12 C13 1.371 . S
C12 C14 1.365 . S
C13 C12 1.371 . S
C13 C23 1.386 . S
C13 H31 0.931 . S
C14 C12 1.365 . S
C14 C15 1.409 . S
C14 H32 0.929 . S
C15 C14 1.409 . S
C15 C16 1.380 . S
C15 H33 0.930 . S
C16 C15 1.380 . S
C16 C23 1.357 . S
C17 C8 1.511 . S
C17 C18 1.341 . S
C17 C19 1.371 . S
C18 C17 1.341 . S
C18 C22 1.394 . S
C18 H34 0.930 . S
C19 C17 1.371 . S
C19 C20 1.392 . S
C19 H35 0.931 . S
C20 C19 1.392 . S
C20 C21 1.331 . S
C20 H38 0.932 . S
C21 C20 1.331 . S
C21 C22 1.336 . S
C22 C18 1.394 . S
C22 C21 1.336 . S
C22 H37 0.929 . S
C23 C13 1.386 . S
C23 C16 1.357 . S
C23 H36 0.928 . S
H24 C0 0.931 . S
H25 C2 0.930 . S
H26 C4 0.929 . S
H27 C5 0.931 . S
H28 C7 0.930 . S
H29 C11 0.931 . S
H30 C9 0.931 . S
H31 C13 0.931 . S
H32 C14 0.929 . S
H33 C15 0.930 . S
H34 C18 0.930 . S
H35 C19 0.931 . S
H36 C23 0.928 . S
H37 C22 0.929 . S
H38 C20 0.932 . S
C39 C40 1.386 . S
C39 C41 1.397 . S
C39 H63 0.931 . S
C40 C39 1.386 . S
C40 C44 1.397 . S
C41 C39 1.397 . S
C41 C42 1.384 . S
C41 H64 0.930 . S
C42 C41 1.384 . S
C42 C43 1.377 . S
C42 C45 1.481 . S
C43 C42 1.377 . S
C43 C44 1.389 . S
C43 H65 0.929 . S
C44 C40 1.397 . S
C44 C43 1.389 . S
C44 H66 0.931 . S
C45 C42 1.481 . S
C45 C46 1.387 . S
C45 C50 1.390 . S
C46 C45 1.387 . S
C46 C47 1.401 . S
C46 H67 0.930 . S
C47 C46 1.401 . S
C47 C48 1.376 . S
C47 C56 1.511 . S
C48 C47 1.376 . S
C48 C49 1.392 . S
C48 H69 0.931 . S
C49 C48 1.392 . S
C49 C50 1.361 . S
C49 C51 1.500 . S
C50 C45 1.390 . S
C50 C49 1.361 . S
C50 H68 0.931 . S
C51 C49 1.500 . S
C51 C52 1.371 . S
C51 C53 1.365 . S
C52 C51 1.371 . S
C52 C62 1.386 . S
C52 H70 0.931 . S
C53 C51 1.365 . S
C53 C54 1.409 . S
C53 H71 0.929 . S
C54 C53 1.409 . S
C54 C55 1.380 . S
C54 H72 0.930 . S
C55 C54 1.380 . S
C55 C62 1.357 . S
C56 C47 1.511 . S
C56 C57 1.341 . S
C56 C58 1.371 . S
C57 C56 1.341 . S
C57 C61 1.394 . S
C57 H73 0.930 . S
C58 C56 1.371 . S
C58 C59 1.392 . S
C58 H74 0.931 . S
C59 C58 1.392 . S
C59 C60 1.331 . S
C59 H77 0.932 . S
C60 C59 1.331 . S
C60 C61 1.336 . S
C61 C57 1.394 . S
C61 C60 1.336 . S
C61 H76 0.929 . S
C62 C52 1.386 . S
C62 C55 1.357 . S
C62 H75 0.928 . S
H63 C39 0.931 . S
H64 C41 0.930 . S
H65 C43 0.929 . S
H66 C44 0.931 . S
H67 C46 0.930 . S
H68 C50 0.931 . S
H69 C48 0.931 . S
H70 C52 0.931 . S
H71 C53 0.929 . S
H72 C54 0.930 . S
H73 C57 0.930 . S
H74 C58 0.931 . S
H75 C62 0.928 . S
H76 C61 0.929 . S
H77 C59 0.932 . S
C78 C79 1.386 . S
C78 C80 1.397 . S
C78 H102 0.931 . S
C79 C78 1.386 . S
C79 C83 1.397 . S
C80 C78 1.397 . S
C80 C81 1.384 . S
C80 H103 0.930 . S
C81 C80 1.384 . S
C81 C82 1.377 . S
C81 C84 1.481 . S
C82 C81 1.377 . S
C82 C83 1.389 . S
C82 H104 0.929 . S
C83 C79 1.397 . S
C83 C82 1.389 . S
C83 H105 0.931 . S
C84 C81 1.481 . S
C84 C85 1.387 . S
C84 C89 1.390 . S
C85 C84 1.387 . S
C85 C86 1.401 . S
C85 H106 0.930 . S
C86 C85 1.401 . S
C86 C87 1.376 . S
C86 C95 1.511 . S
C87 C86 1.376 . S
C87 C88 1.392 . S
C87 H108 0.931 . S
C88 C87 1.392 . S
C88 C89 1.361 . S
C88 C90 1.500 . S
C89 C84 1.390 . S
C89 C88 1.361 . S
C89 H107 0.931 . S
C90 C88 1.500 . S
C90 C91 1.371 . S
C90 C92 1.365 . S
C91 C90 1.371 . S
C91 C101 1.386 . S
C91 H109 0.931 . S
C92 C90 1.365 . S
C92 C93 1.409 . S
C92 H110 0.929 . S
C93 C92 1.409 . S
C93 C94 1.380 . S
C93 H111 0.930 . S
C94 C93 1.380 . S
C94 C101 1.357 . S
C95 C86 1.511 . S
C95 C96 1.341 . S
C95 C97 1.371 . S
C96 C95 1.341 . S
C96 C100 1.394 . S
C96 H112 0.930 . S
C97 C95 1.371 . S
C97 C98 1.392 . S
C97 H113 0.931 . S
C98 C97 1.392 . S
C98 C99 1.331 . S
C98 H116 0.932 . S
C99 C98 1.331 . S
C99 C100 1.336 . S
C100 C96 1.394 . S
C100 C99 1.336 . S
C100 H115 0.929 . S
C101 C91 1.386 . S
C101 C94 1.357 . S
C101 H114 0.928 . S
H102 C78 0.931 . S
H103 C80 0.930 . S
H104 C82 0.929 . S
H105 C83 0.931 . S
H106 C85 0.930 . S
H107 C89 0.931 . S
H108 C87 0.931 . S
H109 C91 0.931 . S
H110 C92 0.929 . S
H111 C93 0.930 . S
H112 C96 0.930 . S
H113 C97 0.931 . S
H114 C101 0.928 . S
H115 C100 0.929 . S
H116 C98 0.932 . S
C117 C118 1.386 . S
C117 C119 1.397 . S
C117 H141 0.931 . S
C118 C117 1.386 . S
C118 C122 1.397 . S
C119 C117 1.397 . S
C119 C120 1.384 . S
C119 H142 0.930 . S
C120 C119 1.384 . S
C120 C121 1.377 . S
C120 C123 1.481 . S
C121 C120 1.377 . S
C121 C122 1.389 . S
C121 H143 0.929 . S
C122 C118 1.397 . S
C122 C121 1.389 . S
C122 H144 0.931 . S
C123 C120 1.481 . S
C123 C124 1.387 . S
C123 C128 1.390 . S
C124 C123 1.387 . S
C124 C125 1.401 . S
C124 H145 0.930 . S
C125 C124 1.401 . S
C125 C126 1.376 . S
C125 C134 1.511 . S
C126 C125 1.376 . S
C126 C127 1.392 . S
C126 H147 0.931 . S
C127 C126 1.392 . S
C127 C128 1.361 . S
C127 C129 1.500 . S
C128 C123 1.390 . S
C128 C127 1.361 . S
C128 H146 0.931 . S
C129 C127 1.500 . S
C129 C130 1.371 . S
C129 C131 1.365 . S
C130 C129 1.371 . S
C130 C140 1.386 . S
C130 H148 0.931 . S
C131 C129 1.365 . S
C131 C132 1.409 . S
C131 H149 0.929 . S
C132 C131 1.409 . S
C132 C133 1.380 . S
C132 H150 0.930 . S
C133 C132 1.380 . S
C133 C140 1.357 . S
C134 C125 1.511 . S
C134 C135 1.341 . S
C134 C136 1.371 . S
C135 C134 1.341 . S
C135 C139 1.394 . S
C135 H151 0.930 . S
C136 C134 1.371 . S
C136 C137 1.392 . S
C136 H152 0.931 . S
C137 C136 1.392 . S
C137 C138 1.331 . S
C137 H155 0.932 . S
C138 C137 1.331 . S
C138 C139 1.336 . S
C139 C135 1.394 . S
C139 C138 1.336 . S
C139 H154 0.929 . S
C140 C130 1.386 . S
C140 C133 1.357 . S
C140 H153 0.928 . S
H141 C117 0.931 . S
H142 C119 0.930 . S
H143 C121 0.929 . S
H144 C122 0.931 . S
H145 C124 0.930 . S
H146 C128 0.931 . S
H147 C126 0.931 . S
H148 C130 0.931 . S
H149 C131 0.929 . S
H150 C132 0.930 . S
H151 C135 0.930 . S
H152 C136 0.931 . S
H153 C140 0.928 . S
H154 C139 0.929 . S
H155 C137 0.932 . S
C156 C157 1.386 . S
C156 C158 1.397 . S
C156 H180 0.931 . S
C157 C156 1.386 . S
C157 C161 1.397 . S
C158 C156 1.397 . S
C158 C159 1.384 . S
C158 H181 0.930 . S
C159 C158 1.384 . S
C159 C160 1.377 . S
C159 C162 1.481 . S
C160 C159 1.377 . S
C160 C161 1.389 . S
C160 H182 0.929 . S
C161 C157 1.397 . S
C161 C160 1.389 . S
C161 H183 0.931 . S
C162 C159 1.481 . S
C162 C163 1.387 . S
C162 C167 1.390 . S
C163 C162 1.387 . S
C163 C164 1.401 . S
C163 H184 0.930 . S
C164 C163 1.401 . S
C164 C165 1.376 . S
C164 C173 1.511 . S
C165 C164 1.376 . S
C165 C166 1.392 . S
C165 H186 0.931 . S
C166 C165 1.392 . S
C166 C167 1.361 . S
C166 C168 1.500 . S
C167 C162 1.390 . S
C167 C166 1.361 . S
C167 H185 0.931 . S
C168 C166 1.500 . S
C168 C169 1.371 . S
C168 C170 1.365 . S
C169 C168 1.371 . S
C169 C179 1.386 . S
C169 H187 0.931 . S
C170 C168 1.365 . S
C170 C171 1.409 . S
C170 H188 0.929 . S
C171 C170 1.409 . S
C171 C172 1.380 . S
C171 H189 0.930 . S
C172 C171 1.380 . S
C172 C179 1.357 . S
C173 C164 1.511 . S
C173 C174 1.341 . S
C173 C175 1.371 . S
C174 C173 1.341 . S
C174 C178 1.394 . S
C174 H190 0.930 . S
C175 C173 1.371 . S
C175 C176 1.392 . S
C175 H191 0.931 . S
C176 C175 1.392 . S
C176 C177 1.331 . S
C176 H194 0.932 . S
C177 C176 1.331 . S
C177 C178 1.336 . S
C178 C174 1.394 . S
C178 C177 1.336 . S
C178 H193 0.929 . S
C179 C169 1.386 . S
C179 C172 1.357 . S
C179 H192 0.928 . S
H180 C156 0.931 . S
H181 C158 0.930 . S
H182 C160 0.929 . S
H183 C161 0.931 . S
H184 C163 0.930 . S
H185 C167 0.931 . S
H186 C165 0.931 . S
H187 C169 0.931 . S
H188 C170 0.929 . S
H189 C171 0.930 . S
H190 C174 0.930 . S
H191 C175 0.931 . S
H192 C179 0.928 . S
H193 C178 0.929 . S
H194 C176 0.932 . S
C195 C196 1.386 . S
C195 C197 1.397 . S
C195 H219 0.931 . S
C196 C195 1.386 . S
C196 C200 1.397 . S
C197 C195 1.397 . S
C197 C198 1.384 . S
C197 H220 0.930 . S
C198 C197 1.384 . S
C198 C199 1.377 . S
C198 C201 1.481 . S
C199 C198 1.377 . S
C199 C200 1.389 . S
C199 H221 0.929 . S
C200 C196 1.397 . S
C200 C199 1.389 . S
C200 H222 0.931 . S
C201 C198 1.481 . S
C201 C202 1.387 . S
C201 C206 1.390 . S
C202 C201 1.387 . S
C202 C203 1.401 . S
C202 H223 0.930 . S
C203 C202 1.401 . S
C203 C204 1.376 . S
C203 C212 1.511 . S
C204 C203 1.376 . S
C204 C205 1.392 . S
C204 H225 0.931 . S
C205 C204 1.392 . S
C205 C206 1.361 . S
C205 C207 1.500 . S
C206 C201 1.390 . S
C206 C205 1.361 . S
C206 H224 0.931 . S
C207 C205 1.500 . S
C207 C208 1.371 . S
C207 C209 1.365 . S
C208 C207 1.371 . S
C208 C218 1.386 . S
C208 H226 0.931 . S
C209 C207 1.365 . S
C209 C210 1.409 . S
C209 H227 0.929 . S
C210 C209 1.409 . S
C210 C211 1.380 . S
C210 H228 0.930 . S
C211 C210 1.380 . S
C211 C218 1.357 . S
C212 C203 1.511 . S
C212 C213 1.341 . S
C212 C214 1.371 . S
C213 C212 1.341 . S
C213 C217 1.394 . S
C213 H229 0.930 . S
C214 C212 1.371 . S
C214 C215 1.392 . S
C214 H230 0.931 . S
C215 C214 1.392 . S
C215 C216 1.331 . S
C215 H233 0.932 . S
C216 C215 1.331 . S
C216 C217 1.336 . S
C217 C213 1.394 . S
C217 C216 1.336 . S
C217 H232 0.929 . S
C218 C208 1.386 . S
C218 C211 1.357 . S
C218 H231 0.928 . S
H219 C195 0.931 . S
H220 C197 0.930 . S
H221 C199 0.929 . S
H222 C200 0.931 . S
H223 C202 0.930 . S
H224 C206 0.931 . S
H225 C204 0.931 . S
H226 C208 0.931 . S
H227 C209 0.929 . S
H228 C210 0.930 . S
H229 C213 0.930 . S
H230 C214 0.931 . S
H231 C218 0.928 . S
H232 C217 0.929 . S
H233 C215 0.932 . S
C234 C235 1.386 . S
C234 C236 1.397 . S
C234 H258 0.931 . S
C235 C234 1.386 . S
C235 C239 1.397 . S
C236 C234 1.397 . S
C236 C237 1.384 . S
C236 H259 0.930 . S
C237 C236 1.384 . S
C237 C238 1.377 . S
C237 C240 1.481 . S
C238 C237 1.377 . S
C238 C239 1.389 . S
C238 H260 0.929 . S
C239 C235 1.397 . S
C239 C238 1.389 . S
C239 H261 0.931 1_655 S
C240 C237 1.481 . S
C240 C241 1.387 . S
C240 C245 1.390 . S
C241 C240 1.387 . S
C241 C242 1.401 . S
C241 H262 0.930 . S
C242 C241 1.401 . S
C242 C243 1.376 . S
C242 C251 1.511 . S
C243 C242 1.376 . S
C243 C244 1.392 . S
C243 H264 0.931 . S
C244 C243 1.392 . S
C244 C245 1.361 . S
C244 C246 1.500 . S
C245 C240 1.390 . S
C245 C244 1.361 . S
C245 H263 0.931 . S
C246 C244 1.500 . S
C246 C247 1.371 . S
C246 C248 1.365 . S
C247 C246 1.371 . S
C247 C257 1.386 . S
C247 H265 0.931 . S
C248 C246 1.365 . S
C248 C249 1.409 . S
C248 H266 0.929 . S
C249 C248 1.409 . S
C249 C250 1.380 . S
C249 H267 0.930 . S
C250 C249 1.380 . S
C250 C257 1.357 . S
C251 C242 1.511 . S
C251 C252 1.341 . S
C251 C253 1.371 . S
C252 C251 1.341 . S
C252 C256 1.394 . S
C252 H268 0.930 . S
C253 C251 1.371 . S
C253 C254 1.392 . S
C253 H269 0.931 . S
C254 C253 1.392 . S
C254 C255 1.331 . S
C254 H272 0.932 . S
C255 C254 1.331 . S
C255 C256 1.336 . S
C256 C252 1.394 . S
C256 C255 1.336 . S
C256 H271 0.929 . S
C257 C247 1.386 . S
C257 C250 1.357 . S
C257 H270 0.928 . S
H258 C234 0.931 . S
H259 C236 0.930 . S
H260 C238 0.929 . S
H261 C239 0.931 1_455 S
H262 C241 0.930 . S
H263 C245 0.931 . S
H264 C243 0.931 . S
H265 C247 0.931 . S
H266 C248 0.929 . S
H267 C249 0.930 . S
H268 C252 0.930 . S
H269 C253 0.931 . S
H270 C257 0.928 . S
H271 C256 0.929 . S
H272 C254 0.932 . S
C273 C274 1.386 . S
C273 C275 1.397 . S
C273 H297 0.931 . S
C274 C273 1.386 . S
C274 C278 1.397 . S
C275 C273 1.397 . S
C275 C276 1.384 . S
C275 H298 0.930 . S
C276 C275 1.384 . S
C276 C277 1.377 . S
C276 C279 1.481 . S
C277 C276 1.377 . S
C277 C278 1.389 . S
C277 H299 0.929 . S
C278 C274 1.397 . S
C278 C277 1.389 . S
C278 H300 0.931 . S
C279 C276 1.481 . S
C279 C280 1.387 . S
C279 C284 1.390 . S
C280 C279 1.387 . S
C280 C281 1.401 . S
C280 H301 0.930 . S
C281 C280 1.401 . S
C281 C282 1.376 . S
C281 C290 1.511 . S
C282 C281 1.376 . S
C282 C283 1.392 . S
C282 H303 0.931 . S
C283 C282 1.392 . S
C283 C284 1.361 . S
C283 C285 1.500 . S
C284 C279 1.390 . S
C284 C283 1.361 . S
C284 H302 0.931 . S
C285 C283 1.500 . S
C285 C286 1.371 . S
C285 C287 1.365 . S
C286 C285 1.371 . S
C286 C296 1.386 . S
C286 H304 0.931 . S
C287 C285 1.365 . S
C287 C288 1.409 . S
C287 H305 0.929 . S
C288 C287 1.409 . S
C288 C289 1.380 . S
C288 H306 0.930 . S
C289 C288 1.380 . S
C289 C296 1.357 . S
C290 C281 1.511 . S
C290 C291 1.341 . S
C290 C292 1.371 . S
C291 C290 1.341 . S
C291 C295 1.394 . S
C291 H307 0.930 . S
C292 C290 1.371 . S
C292 C293 1.392 . S
C292 H308 0.931 . S
C293 C292 1.392 . S
C293 C294 1.331 . S
C293 H311 0.932 . S
C294 C293 1.331 . S
C294 C295 1.336 . S
C295 C291 1.394 . S
C295 C294 1.336 . S
C295 H310 0.929 . S
C296 C286 1.386 . S
C296 C289 1.357 . S
C296 H309 0.928 . S
H297 C273 0.931 . S
H298 C275 0.930 . S
H299 C277 0.929 . S
H300 C278 0.931 . S
H301 C280 0.930 . S
H302 C284 0.931 . S
H303 C282 0.931 . S
H304 C286 0.931 . S
H305 C287 0.929 . S
H306 C288 0.930 . S
H307 C291 0.930 . S
H308 C292 0.931 . S
H309 C296 0.928 . S
H310 C295 0.929 . S
H311 C293 0.932 . S
C312 C313 1.386 . S
C312 C314 1.397 . S
C312 H336 0.931 . S
C313 C312 1.386 . S
C313 C317 1.397 . S
C314 C312 1.397 . S
C314 C315 1.384 . S
C314 H337 0.930 . S
C315 C314 1.384 . S
C315 C316 1.377 . S
C315 C318 1.481 . S
C316 C315 1.377 . S
C316 C317 1.389 . S
C316 H338 0.929 . S
C317 C313 1.397 . S
C317 C316 1.389 . S
C317 H339 0.931 . S
C318 C315 1.481 . S
C318 C319 1.387 . S
C318 C323 1.390 . S
C319 C318 1.387 . S
C319 C320 1.401 . S
C319 H340 0.930 . S
C320 C319 1.401 . S
C320 C321 1.376 . S
C320 C329 1.511 . S
C321 C320 1.376 . S
C321 C322 1.392 . S
C321 H342 0.931 . S
C322 C321 1.392 . S
C322 C323 1.361 . S
C322 C324 1.500 . S
C323 C318 1.390 . S
C323 C322 1.361 . S
C323 H341 0.931 . S
C324 C322 1.500 . S
C324 C325 1.371 . S
C324 C326 1.365 . S
C325 C324 1.371 . S
C325 C335 1.386 . S
C325 H343 0.931 . S
C326 C324 1.365 . S
C326 C327 1.409 . S
C326 H344 0.929 . S
C327 C326 1.409 . S
C327 C328 1.380 . S
C327 H345 0.930 . S
C328 C327 1.380 . S
C328 C335 1.357 . S
C329 C320 1.511 . S
C329 C330 1.341 . S
C329 C331 1.371 . S
C330 C329 1.341 . S
C330 C334 1.394 . S
C330 H346 0.930 . S
C331 C329 1.371 . S
C331 C332 1.392 . S
C331 H347 0.931 . S
C332 C331 1.392 . S
C332 C333 1.331 . S
C332 H350 0.932 . S
C333 C332 1.331 . S
C333 C334 1.336 . S
C334 C330 1.394 . S
C334 C333 1.336 . S
C334 H349 0.929 . S
C335 C325 1.386 . S
C335 C328 1.357 . S
C335 H348 0.928 . S
H336 C312 0.931 . S
H337 C314 0.930 . S
H338 C316 0.929 . S
H339 C317 0.931 . S
H340 C319 0.930 . S
H341 C323 0.931 . S
H342 C321 0.931 . S
H343 C325 0.931 . S
H344 C326 0.929 . S
H345 C327 0.930 . S
H346 C330 0.930 . S
H347 C331 0.931 . S
H348 C335 0.928 . S
H349 C334 0.929 . S
H350 C332 0.932 . S
C351 C352 1.386 . S
C351 C353 1.397 . S
C351 H375 0.931 . S
C352 C351 1.386 . S
C352 C356 1.397 . S
C353 C351 1.397 . S
C353 C354 1.384 . S
C353 H376 0.930 . S
C354 C353 1.384 . S
C354 C355 1.377 . S
C354 C357 1.481 . S
C355 C354 1.377 . S
C355 C356 1.389 . S
C355 H377 0.929 . S
C356 C352 1.397 . S
C356 C355 1.389 . S
C356 H378 0.931 . S
C357 C354 1.481 . S
C357 C358 1.387 . S
C357 C362 1.390 . S
C358 C357 1.387 . S
C358 C359 1.401 . S
C358 H379 0.930 . S
C359 C358 1.401 . S
C359 C360 1.376 . S
C359 C368 1.511 . S
C360 C359 1.376 . S
C360 C361 1.392 . S
C360 H381 0.931 . S
C361 C360 1.392 . S
C361 C362 1.361 . S
C361 C363 1.500 . S
C362 C357 1.390 . S
C362 C361 1.361 . S
C362 H380 0.931 . S
C363 C361 1.500 . S
C363 C364 1.371 . S
C363 C365 1.365 . S
C364 C363 1.371 . S
C364 C374 1.386 . S
C364 H382 0.931 . S
C365 C363 1.365 . S
C365 C366 1.409 . S
C365 H383 0.929 . S
C366 C365 1.409 . S
C366 C367 1.380 . S
C366 H384 0.930 . S
C367 C366 1.380 . S
C367 C374 1.357 . S
C368 C359 1.511 . S
C368 C369 1.341 . S
C368 C370 1.371 . S
C369 C368 1.341 . S
C369 C373 1.394 . S
C369 H385 0.930 . S
C370 C368 1.371 . S
C370 C371 1.392 . S
C370 H386 0.931 . S
C371 C370 1.392 . S
C371 C372 1.331 . S
C371 H389 0.932 . S
C372 C371 1.331 . S
C372 C373 1.336 . S
C373 C369 1.394 . S
C373 C372 1.336 . S
C373 H388 0.929 . S
C374 C364 1.386 . S
C374 C367 1.357 . S
C374 H387 0.928 . S
H375 C351 0.931 . S
H376 C353 0.930 . S
H377 C355 0.929 . S
H378 C356 0.931 . S
H379 C358 0.930 . S
H380 C362 0.931 . S
H381 C360 0.931 . S
H382 C364 0.931 . S
H383 C365 0.929 . S
H384 C366 0.930 . S
H385 C369 0.930 . S
H386 C370 0.931 . S
H387 C374 0.928 . S
H388 C373 0.929 . S
H389 C371 0.932 . S
C390 C391 1.386 . S
C390 C392 1.397 . S
C390 H414 0.931 . S
C391 C390 1.386 . S
C391 C395 1.397 . S
C392 C390 1.397 . S
C392 C393 1.384 . S
C392 H415 0.930 . S
C393 C392 1.384 . S
C393 C394 1.377 . S
C393 C396 1.481 . S
C394 C393 1.377 . S
C394 C395 1.389 . S
C394 H416 0.929 . S
C395 C391 1.397 . S
C395 C394 1.389 . S
C395 H417 0.931 . S
C396 C393 1.481 . S
C396 C397 1.387 . S
C396 C401 1.390 . S
C397 C396 1.387 . S
C397 C398 1.401 . S
C397 H418 0.930 . S
C398 C397 1.401 . S
C398 C399 1.376 . S
C398 C407 1.511 . S
C399 C398 1.376 . S
C399 C400 1.392 . S
C399 H420 0.931 . S
C400 C399 1.392 . S
C400 C401 1.361 . S
C400 C402 1.500 . S
C401 C396 1.390 . S
C401 C400 1.361 . S
C401 H419 0.931 . S
C402 C400 1.500 . S
C402 C403 1.371 . S
C402 C404 1.365 . S
C403 C402 1.371 . S
C403 C413 1.386 . S
C403 H421 0.931 . S
C404 C402 1.365 . S
C404 C405 1.409 . S
C404 H422 0.929 . S
C405 C404 1.409 . S
C405 C406 1.380 . S
C405 H423 0.930 . S
C406 C405 1.380 . S
C406 C413 1.357 . S
C407 C398 1.511 . S
C407 C408 1.341 . S
C407 C409 1.371 . S
C408 C407 1.341 . S
C408 C412 1.394 . S
C408 H424 0.930 . S
C409 C407 1.371 . S
C409 C410 1.392 . S
C409 H425 0.931 . S
C410 C409 1.392 . S
C410 C411 1.331 . S
C410 H428 0.932 . S
C411 C410 1.331 . S
C411 C412 1.336 . S
C412 C408 1.394 . S
C412 C411 1.336 . S
C412 H427 0.929 . S
C413 C403 1.386 . S
C413 C406 1.357 . S
C413 H426 0.928 . S
H414 C390 0.931 . S
H415 C392 0.930 . S
H416 C394 0.929 . S
H417 C395 0.931 . S
H418 C397 0.930 . S
H419 C401 0.931 . S
H420 C399 0.931 . S
H421 C403 0.931 . S
H422 C404 0.929 . S
H423 C405 0.930 . S
H424 C408 0.930 . S
H425 C409 0.931 . S
H426 C413 0.928 . S
H427 C412 0.929 . S
H428 C410 0.932 . S
C429 C430 1.386 . S
C429 C431 1.397 . S
C429 H453 0.931 . S
C430 C429 1.386 . S
C430 C434 1.397 . S
C431 C429 1.397 . S
C431 C432 1.384 . S
C431 H454 0.930 . S
C432 C431 1.384 . S
C432 C433 1.377 . S
C432 C435 1.481 . S
C433 C432 1.377 . S
C433 C434 1.389 . S
C433 H455 0.929 . S
C434 C430 1.397 . S
C434 C433 1.389 . S
C434 H456 0.931 . S
C435 C432 1.481 . S
C435 C436 1.387 . S
C435 C440 1.390 . S
C436 C435 1.387 . S
C436 C437 1.401 . S
C436 H457 0.930 . S
C437 C436 1.401 . S
C437 C438 1.376 . S
C437 C446 1.511 . S
C438 C437 1.376 . S
C438 C439 1.392 . S
C438 H459 0.931 . S
C439 C438 1.392 . S
C439 C440 1.361 . S
C439 C441 1.500 . S
C440 C435 1.390 . S
C440 C439 1.361 . S
C440 H458 0.931 . S
C441 C439 1.500 . S
C441 C442 1.371 . S
C441 C443 1.365 . S
C442 C441 1.371 . S
C442 C452 1.386 . S
C442 H460 0.931 . S
C443 C441 1.365 . S
C443 C444 1.409 . S
C443 H461 0.929 . S
C444 C443 1.409 . S
C444 C445 1.380 . S
C444 H462 0.930 . S
C445 C444 1.380 . S
C445 C452 1.357 . S
C446 C437 1.511 . S
C446 C447 1.341 . S
C446 C448 1.371 . S
C447 C446 1.341 . S
C447 C451 1.394 . S
C447 H463 0.930 . S
C448 C446 1.371 . S
C448 C449 1.392 . S
C448 H464 0.931 . S
C449 C448 1.392 . S
C449 C450 1.331 . S
C449 H467 0.932 . S
C450 C449 1.331 . S
C450 C451 1.336 . S
C451 C447 1.394 . S
C451 C450 1.336 . S
C451 H466 0.929 . S
C452 C442 1.386 . S
C452 C445 1.357 . S
C452 H465 0.928 . S
H453 C429 0.931 . S
H454 C431 0.930 . S
H455 C433 0.929 . S
H456 C434 0.931 . S
H457 C436 0.930 . S
H458 C440 0.931 . S
H459 C438 0.931 . S
H460 C442 0.931 . S
H461 C443 0.929 . S
H462 C444 0.930 . S
H463 C447 0.930 . S
H464 C448 0.931 . S
H465 C452 0.928 . S
H466 C451 0.929 . S
H467 C449 0.932 . S
C468 C469 1.386 . S
C468 C470 1.397 . S
C468 H492 0.931 . S
C469 C468 1.386 . S
C469 C473 1.397 . S
C470 C468 1.397 . S
C470 C471 1.384 . S
C470 H493 0.930 . S
C471 C470 1.384 . S
C471 C472 1.377 . S
C471 C474 1.481 . S
C472 C471 1.377 . S
C472 C473 1.389 . S
C472 H494 0.929 . S
C473 C469 1.397 . S
C473 C472 1.389 . S
C473 H495 0.931 . S
C474 C471 1.481 . S
C474 C475 1.387 . S
C474 C479 1.390 . S
C475 C474 1.387 . S
C475 C476 1.401 . S
C475 H496 0.930 . S
C476 C475 1.401 . S
C476 C477 1.376 . S
C476 C485 1.511 . S
C477 C476 1.376 . S
C477 C478 1.392 . S
C477 H498 0.931 . S
C478 C477 1.392 . S
C478 C479 1.361 . S
C478 C480 1.500 . S
C479 C474 1.390 . S
C479 C478 1.361 . S
C479 H497 0.931 . S
C480 C478 1.500 . S
C480 C481 1.371 . S
C480 C482 1.365 . S
C481 C480 1.371 . S
C481 C491 1.386 . S
C481 H499 0.931 . S
C482 C480 1.365 . S
C482 C483 1.409 . S
C482 H500 0.929 . S
C483 C482 1.409 . S
C483 C484 1.380 . S
C483 H501 0.930 . S
C484 C483 1.380 . S
C484 C491 1.357 . S
C485 C476 1.511 . S
C485 C486 1.341 . S
C485 C487 1.371 . S
C486 C485 1.341 . S
C486 C490 1.394 . S
C486 H502 0.930 . S
C487 C485 1.371 . S
C487 C488 1.392 . S
C487 H503 0.931 . S
C488 C487 1.392 . S
C488 C489 1.331 . S
C488 H506 0.932 . S
C489 C488 1.331 . S
C489 C490 1.336 . S
C490 C486 1.394 . S
C490 C489 1.336 . S
C490 H505 0.929 . S
C491 C481 1.386 . S
C491 C484 1.357 . S
C491 H504 0.928 . S
H492 C468 0.931 . S
H493 C470 0.930 . S
H494 C472 0.929 . S
H495 C473 0.931 . S
H496 C475 0.930 . S
H497 C479 0.931 . S
H498 C477 0.931 . S
H499 C481 0.931 . S
H500 C482 0.929 . S
H501 C483 0.930 . S
H502 C486 0.930 . S
H503 C487 0.931 . S
H504 C491 0.928 . S
H505 C490 0.929 . S
H506 C488 0.932 . S
C507 C508 1.386 . S
C507 C509 1.397 . S
C507 H531 0.931 . S
C508 C507 1.386 . S
C508 C512 1.397 . S
C509 C507 1.397 . S
C509 C510 1.384 . S
C509 H532 0.930 . S
C510 C509 1.384 . S
C510 C511 1.377 . S
C510 C513 1.481 . S
C511 C510 1.377 . S
C511 C512 1.389 . S
C511 H533 0.929 . S
C512 C508 1.397 . S
C512 C511 1.389 . S
C512 H534 0.931 . S
C513 C510 1.481 . S
C513 C514 1.387 . S
C513 C518 1.390 . S
C514 C513 1.387 . S
C514 C515 1.401 . S
C514 H535 0.930 . S
C515 C514 1.401 . S
C515 C516 1.376 . S
C515 C524 1.511 . S
C516 C515 1.376 . S
C516 C517 1.392 . S
C516 H537 0.931 . S
C517 C516 1.392 . S
C517 C518 1.361 . S
C517 C519 1.500 . S
C518 C513 1.390 . S
C518 C517 1.361 . S
C518 H536 0.931 . S
C519 C517 1.500 . S
C519 C520 1.371 . S
C519 C521 1.365 . S
C520 C519 1.371 . S
C520 C530 1.386 . S
C520 H538 0.931 . S
C521 C519 1.365 . S
C521 C522 1.409 . S
C521 H539 0.929 . S
C522 C521 1.409 . S
C522 C523 1.380 . S
C522 H540 0.930 . S
C523 C522 1.380 . S
C523 C530 1.357 . S
C524 C515 1.511 . S
C524 C525 1.341 . S
C524 C526 1.371 . S
C525 C524 1.341 . S
C525 C529 1.394 . S
C525 H541 0.930 . S
C526 C524 1.371 . S
C526 C527 1.392 . S
C526 H542 0.931 . S
C527 C526 1.392 . S
C527 C528 1.331 . S
C527 H545 0.932 . S
C528 C527 1.331 . S
C528 C529 1.336 . S
C529 C525 1.394 . S
C529 C528 1.336 . S
C529 H544 0.929 . S
C530 C520 1.386 . S
C530 C523 1.357 . S
C530 H543 0.928 . S
H531 C507 0.931 . S
H532 C509 0.930 . S
H533 C511 0.929 . S
H534 C512 0.931 . S
H535 C514 0.930 . S
H536 C518 0.931 . S
H537 C516 0.931 . S
H538 C520 0.931 . S
H539 C521 0.929 . S
H540 C522 0.930 . S
H541 C525 0.930 . S
H542 C526 0.931 . S
H543 C530 0.928 . S
H544 C529 0.929 . S
H545 C527 0.932 . S
C546 C547 1.386 . S
C546 C548 1.397 . S
C546 H570 0.931 . S
C547 C546 1.386 . S
C547 C551 1.397 . S
C548 C546 1.397 . S
C548 C549 1.384 . S
C548 H571 0.930 . S
C549 C548 1.384 . S
C549 C550 1.377 . S
C549 C552 1.481 . S
C550 C549 1.377 . S
C550 C551 1.389 . S
C550 H572 0.929 . S
C551 C547 1.397 . S
C551 C550 1.389 . S
C551 H573 0.931 . S
C552 C549 1.481 . S
C552 C553 1.387 . S
C552 C557 1.390 . S
C553 C552 1.387 . S
C553 C554 1.401 . S
C553 H574 0.930 . S
C554 C553 1.401 . S
C554 C555 1.376 . S
C554 C563 1.511 . S
C555 C554 1.376 . S
C555 C556 1.392 . S
C555 H576 0.931 . S
C556 C555 1.392 . S
C556 C557 1.361 . S
C556 C558 1.500 . S
C557 C552 1.390 . S
C557 C556 1.361 . S
C557 H575 0.931 . S
C558 C556 1.500 . S
C558 C559 1.371 . S
C558 C560 1.365 . S
C559 C558 1.371 . S
C559 C569 1.386 . S
C559 H577 0.931 . S
C560 C558 1.365 . S
C560 C561 1.409 . S
C560 H578 0.929 . S
C561 C560 1.409 . S
C561 C562 1.380 . S
C561 H579 0.930 . S
C562 C561 1.380 . S
C562 C569 1.357 . S
C563 C554 1.511 . S
C563 C564 1.341 . S
C563 C565 1.371 . S
C564 C563 1.341 . S
C564 C568 1.394 . S
C564 H580 0.930 . S
C565 C563 1.371 . S
C565 C566 1.392 . S
C565 H581 0.931 . S
C566 C565 1.392 . S
C566 C567 1.331 . S
C566 H584 0.932 . S
C567 C566 1.331 . S
C567 C568 1.336 . S
C568 C564 1.394 . S
C568 C567 1.336 . S
C568 H583 0.929 . S
C569 C559 1.386 . S
C569 C562 1.357 . S
C569 H582 0.928 . S
H570 C546 0.931 . S
H571 C548 0.930 . S
H572 C550 0.929 . S
H573 C551 0.931 . S
H574 C553 0.930 . S
H575 C557 0.931 . S
H576 C555 0.931 . S
H577 C559 0.931 . S
H578 C560 0.929 . S
H579 C561 0.930 . S
H580 C564 0.930 . S
H581 C565 0.931 . S
H582 C569 0.928 . S
H583 C568 0.929 . S
H584 C566 0.932 . S
C585 C586 1.386 . S
C585 C587 1.397 . S
C585 H609 0.931 . S
C586 C585 1.386 . S
C586 C590 1.397 . S
C587 C585 1.397 . S
C587 C588 1.384 . S
C587 H610 0.930 . S
C588 C587 1.384 . S
C588 C589 1.377 . S
C588 C591 1.481 . S
C589 C588 1.377 . S
C589 C590 1.389 . S
C589 H611 0.929 . S
C590 C586 1.397 . S
C590 C589 1.389 . S
C590 H612 0.931 . S
C591 C588 1.481 . S
C591 C592 1.387 . S
C591 C596 1.390 . S
C592 C591 1.387 . S
C592 C593 1.401 . S
C592 H613 0.930 . S
C593 C592 1.401 . S
C593 C594 1.376 . S
C593 C602 1.511 . S
C594 C593 1.376 . S
C594 C595 1.392 . S
C594 H615 0.931 . S
C595 C594 1.392 . S
C595 C596 1.361 . S
C595 C597 1.500 . S
C596 C591 1.390 . S
C596 C595 1.361 . S
C596 H614 0.931 . S
C597 C595 1.500 . S
C597 C598 1.371 . S
C597 C599 1.365 . S
C598 C597 1.371 . S
C598 C608 1.386 . S
C598 H616 0.931 . S
C599 C597 1.365 . S
C599 C600 1.409 . S
C599 H617 0.929 . S
C600 C599 1.409 . S
C600 C601 1.380 . S
C600 H618 0.930 . S
C601 C600 1.380 . S
C601 C608 1.357 . S
C602 C593 1.511 . S
C602 C603 1.341 . S
C602 C604 1.371 . S
C603 C602 1.341 . S
C603 C607 1.394 . S
C603 H619 0.930 . S
C604 C602 1.371 . S
C604 C605 1.392 . S
C604 H620 0.931 . S
C605 C604 1.392 . S
C605 C606 1.331 . S
C605 H623 0.932 . S
C606 C605 1.331 . S
C606 C607 1.336 . S
C607 C603 1.394 . S
C607 C606 1.336 . S
C607 H622 0.929 . S
C608 C598 1.386 . S
C608 C601 1.357 . S
C608 H621 0.928 . S
H609 C585 0.931 . S
H610 C587 0.930 . S
H611 C589 0.929 . S
H612 C590 0.931 . S
H613 C592 0.930 . S
H614 C596 0.931 . S
H615 C594 0.931 . S
H616 C598 0.931 . S
H617 C599 0.929 . S
H618 C600 0.930 . S
H619 C603 0.930 . S
H620 C604 0.931 . S
H621 C608 0.928 . S
H622 C607 0.929 . S
H623 C605 0.932 . S
C624 C625 1.386 . S
C624 C626 1.397 . S
C624 H648 0.931 1_455 S
C625 C624 1.386 . S
C625 C629 1.397 . S
C626 C624 1.397 . S
C626 C627 1.384 . S
C626 H649 0.930 . S
C627 C626 1.384 . S
C627 C628 1.377 . S
C627 C630 1.481 . S
C628 C627 1.377 . S
C628 C629 1.389 . S
C628 H650 0.929 . S
C629 C625 1.397 . S
C629 C628 1.389 . S
C629 H651 0.931 . S
C630 C627 1.481 . S
C630 C631 1.387 . S
C630 C635 1.390 . S
C631 C630 1.387 . S
C631 C632 1.401 . S
C631 H652 0.930 . S
C632 C631 1.401 . S
C632 C633 1.376 . S
C632 C641 1.511 . S
C633 C632 1.376 . S
C633 C634 1.392 . S
C633 H654 0.931 . S
C634 C633 1.392 . S
C634 C635 1.361 . S
C634 C636 1.500 . S
C635 C630 1.390 . S
C635 C634 1.361 . S
C635 H653 0.931 . S
C636 C634 1.500 . S
C636 C637 1.371 . S
C636 C638 1.365 . S
C637 C636 1.371 . S
C637 C647 1.386 . S
C637 H655 0.931 . S
C638 C636 1.365 . S
C638 C639 1.409 . S
C638 H656 0.929 . S
C639 C638 1.409 . S
C639 C640 1.380 . S
C639 H657 0.930 . S
C640 C639 1.380 . S
C640 C647 1.357 . S
C641 C632 1.511 . S
C641 C642 1.341 . S
C641 C643 1.371 . S
C642 C641 1.341 . S
C642 C646 1.394 . S
C642 H658 0.930 . S
C643 C641 1.371 . S
C643 C644 1.392 . S
C643 H659 0.931 . S
C644 C643 1.392 . S
C644 C645 1.331 . S
C644 H662 0.932 . S
C645 C644 1.331 . S
C645 C646 1.336 . S
C646 C642 1.394 . S
C646 C645 1.336 . S
C646 H661 0.929 . S
C647 C637 1.386 . S
C647 C640 1.357 . S
C647 H660 0.928 . S
H648 C624 0.931 1_655 S
H649 C626 0.930 . S
H650 C628 0.929 . S
H651 C629 0.931 . S
H652 C631 0.930 . S
H653 C635 0.931 . S
H654 C633 0.931 . S
H655 C637 0.931 . S
H656 C638 0.929 . S
H657 C639 0.930 . S
H658 C642 0.930 . S
H659 C643 0.931 . S
H660 C647 0.928 . S
H661 C646 0.929 . S
H662 C644 0.932 . S
C663 C664 1.386 . S
C663 C665 1.397 . S
C663 H687 0.931 . S
C664 C663 1.386 . S
C664 C668 1.397 . S
C665 C663 1.397 . S
C665 C666 1.384 . S
C665 H688 0.930 . S
C666 C665 1.384 . S
C666 C667 1.377 . S
C666 C669 1.481 . S
C667 C666 1.377 . S
C667 C668 1.389 . S
C667 H689 0.929 . S
C668 C664 1.397 . S
C668 C667 1.389 . S
C668 H690 0.931 . S
C669 C666 1.481 . S
C669 C670 1.387 . S
C669 C674 1.390 . S
C670 C669 1.387 . S
C670 C671 1.401 . S
C670 H691 0.930 . S
C671 C670 1.401 . S
C671 C672 1.376 . S
C671 C680 1.511 . S
C672 C671 1.376 . S
C672 C673 1.392 . S
C672 H693 0.931 . S
C673 C672 1.392 . S
C673 C674 1.361 . S
C673 C675 1.500 . S
C674 C669 1.390 . S
C674 C673 1.361 . S
C674 H692 0.931 . S
C675 C673 1.500 . S
C675 C676 1.371 . S
C675 C677 1.365 . S
C676 C675 1.371 . S
C676 C686 1.386 . S
C676 H694 0.931 . S
C677 C675 1.365 . S
C677 C678 1.409 . S
C677 H695 0.929 . S
C678 C677 1.409 . S
C678 C679 1.380 . S
C678 H696 0.930 . S
C679 C678 1.380 . S
C679 C686 1.357 . S
C680 C671 1.511 . S
C680 C681 1.341 . S
C680 C682 1.371 . S
C681 C680 1.341 . S
C681 C685 1.394 . S
C681 H697 0.930 . S
C682 C680 1.371 . S
C682 C683 1.392 . S
C682 H698 0.931 . S
C683 C682 1.392 . S
C683 C684 1.331 . S
C683 H701 0.932 . S
C684 C683 1.331 . S
C684 C685 1.336 . S
C685 C681 1.394 . S
C685 C684 1.336 . S
C685 H700 0.929 . S
C686 C676 1.386 . S
C686 C679 1.357 . S
C686 H699 0.928 . S
H687 C663 0.931 . S
H688 C665 0.930 . S
H689 C667 0.929 . S
H690 C668 0.931 . S
H691 C670 0.930 . S
H692 C674 0.931 . S
H693 C672 0.931 . S
H694 C676 0.931 . S
H695 C677 0.929 . S
H696 C678 0.930 . S
H697 C681 0.930 . S
H698 C682 0.931 . S
H699 C686 0.928 . S
H700 C685 0.929 . S
H701 C683 0.932 . S
Eu702 C711 2.828 . S
Eu702 O713 2.360 1_556 S
Eu702 O715 2.418 . S
Eu702 O720 2.373 1_565 S
Eu702 O723 2.488 . S
Eu702 O724 2.471 1_565 S
Eu702 O725 2.349 1_565 S
Eu703 O712 2.373 1_545 S
Eu703 O716 2.488 . S
Eu703 O717 2.437 1_545 S
Eu703 O718 2.349 1_545 S
Eu703 O721 2.392 . S
Eu703 O722 2.418 . S
Eu703 C732 2.828 . S
C704 O722 1.269 . S
C704 O725 1.255 1_554 S
C705 C706 1.379 1_565 S
C705 C709 1.373 . S
C705 C711 1.505 . S
C706 C705 1.379 1_545 S
C706 C708 1.369 . S
C706 H734 0.930 . S
C707 C709 1.383 . S
C707 C710 1.382 1_565 S
C707 H735 0.930 . S
C708 C706 1.369 . S
C708 C710 1.392 . S
C708 H736 0.930 . S
C709 C705 1.373 . S
C709 C707 1.383 . S
C709 H737 0.931 . S
C710 C707 1.382 1_545 S
C710 C708 1.392 . S
C711 Eu702 2.828 . S
C711 C705 1.505 . S
C711 O723 1.249 . S
C711 O724 1.244 1_565 S
O712 Eu703 2.373 1_565 S
O712 C714 1.258 . S
O713 Eu702 2.360 1_554 S
O713 C714 1.280 . S
C714 O712 1.258 . S
C714 O713 1.280 . S
O715 Eu702 2.418 . S
O715 C719 1.244 1_556 S
O716 Eu703 2.488 . S
O716 C732 1.249 . S
O717 Eu703 2.437 1_565 S
O717 C732 1.194 1_565 S
O718 Eu703 2.349 1_565 S
O718 C719 1.265 . S
C719 O715 1.244 1_554 S
C719 O718 1.265 . S
O720 Eu702 2.373 1_545 S
O720 C733 1.258 . S
O721 Eu703 2.392 . S
O721 C733 1.242 1_554 S
O722 Eu703 2.418 . S
O722 C704 1.269 . S
O723 Eu702 2.488 . S
O723 C711 1.249 . S
O724 Eu702 2.471 1_545 S
O724 C711 1.244 1_545 S
O725 Eu702 2.349 1_545 S
O725 C704 1.255 1_556 S
C726 C727 1.379 1_545 S
C726 C730 1.373 . S
C726 C732 1.505 . S
C727 C726 1.379 1_565 S
C727 C729 1.369 . S
C727 H738 0.930 . S
C728 C730 1.383 . S
C728 C731 1.382 1_545 S
C728 H739 0.930 . S
C729 C727 1.369 . S
C729 C731 1.392 . S
C729 H740 0.930 . S
C730 C726 1.373 . S
C730 C728 1.383 . S
C730 H741 0.931 . S
C731 C728 1.382 1_565 S
C731 C729 1.392 . S
C732 Eu703 2.828 . S
C732 O716 1.249 . S
C732 O717 1.194 1_545 S
C732 C726 1.505 . S
C733 O720 1.258 . S
C733 O721 1.242 1_556 S
H734 C706 0.930 . S
H735 C707 0.930 . S
H736 C708 0.930 . S
H737 C709 0.931 . S
H738 C727 0.930 . S
H739 C728 0.930 . S
H740 C729 0.930 . S
H741 C730 0.931 . S
Eu742 C751 2.828 . S
Eu742 O753 2.392 1_556 S
Eu742 O755 2.418 . S
Eu742 O760 2.373 1_455 S
Eu742 O763 2.488 . S
Eu742 O764 2.471 1_455 S
Eu742 O765 2.349 1_455 S
Eu743 O752 2.373 1_655 S
Eu743 O756 2.488 . S
Eu743 O757 2.471 1_655 S
Eu743 O758 2.349 1_655 S
Eu743 O761 2.461 . S
Eu743 O762 2.418 . S
Eu743 C772 2.828 . S
C744 O762 1.244 1_556 S
C744 O765 1.265 . S
C745 C746 1.379 1_455 S
C745 C749 1.373 . S
C745 C751 1.505 . S
C746 C745 1.379 1_655 S
C746 C748 1.369 . S
C746 H774 0.930 . S
C747 C749 1.383 . S
C747 C750 1.382 1_455 S
C747 H775 0.930 . S
C748 C746 1.369 . S
C748 C750 1.392 . S
C748 H776 0.930 . S
C749 C745 1.373 . S
C749 C747 1.383 . S
C749 H777 0.931 . S
C750 C747 1.382 1_655 S
C750 C748 1.392 . S
C751 Eu742 2.828 . S
C751 C745 1.505 . S
C751 O763 1.249 . S
C751 O764 1.244 1_455 S
O752 Eu743 2.373 1_455 S
O752 C754 1.258 . S
O753 Eu742 2.392 1_554 S
O753 C754 1.242 . S
C754 O752 1.258 . S
C754 O753 1.242 . S
O755 Eu742 2.418 . S
O755 C759 1.244 1_556 S
O756 Eu743 2.488 . S
O756 C772 1.249 . S
O757 Eu743 2.471 1_455 S
O757 C772 1.244 1_455 S
O758 Eu743 2.349 1_455 S
O758 C759 1.265 . S
C759 O755 1.244 1_554 S
C759 O758 1.265 . S
O760 Eu742 2.373 1_655 S
O760 C773 1.258 . S
O761 Eu743 2.461 . S
O761 C773 1.159 1_554 S
O762 Eu743 2.418 . S
O762 C744 1.244 1_554 S
O763 Eu742 2.488 . S
O763 C751 1.249 . S
O764 Eu742 2.471 1_655 S
O764 C751 1.244 1_655 S
O765 Eu742 2.349 1_655 S
O765 C744 1.265 . S
C766 C767 1.356 1_655 S
C766 C770 1.387 . S
C766 C772 1.515 . S
C767 C766 1.356 1_455 S
C767 C769 1.369 . S
C767 H778 0.930 . S
C768 C770 1.383 . S
C768 C771 1.382 1_655 S
C768 H779 0.930 . S
C769 C767 1.369 . S
C769 C771 1.392 . S
C769 H780 0.930 . S
C770 C766 1.387 . S
C770 C768 1.383 . S
C770 H781 0.931 . S
C771 C768 1.382 1_455 S
C771 C769 1.392 . S
C772 Eu743 2.828 . S
C772 O756 1.249 . S
C772 O757 1.244 1_655 S
C772 C766 1.515 . S
C773 O760 1.258 . S
C773 O761 1.159 1_556 S
H774 C746 0.930 . S
H775 C747 0.930 . S
H776 C748 0.930 . S
H777 C749 0.931 . S
H778 C767 0.930 . S
H779 C768 0.930 . S
H780 C769 0.930 . S
H781 C770 0.931 . S
Eu782 C791 2.828 . S
Eu782 O793 2.392 . S
Eu782 O795 2.418 . S
Eu782 O800 2.373 . S
Eu782 O803 2.488 . S
Eu782 O804 2.471 . S
Eu782 O805 2.349 . S
Eu783 O792 2.373 . S
Eu783 O796 2.488 . S
Eu783 O797 2.471 . S
Eu783 O798 2.349 . S
Eu783 O801 2.392 1_556 S
Eu783 O802 2.418 . S
Eu783 C812 2.828 . S
C784 O802 1.244 1_554 S
C784 O805 1.265 . S
C785 C786 1.379 . S
C785 C789 1.373 . S
C785 C791 1.505 . S
C786 C785 1.379 . S
C786 C788 1.369 . S
C786 H814 0.930 . S
C787 C789 1.383 . S
C787 C790 1.382 . S
C787 H815 0.930 . S
C788 C786 1.369 . S
C788 C790 1.392 . S
C788 H816 0.930 . S
C789 C785 1.373 . S
C789 C787 1.383 . S
C789 H817 0.931 . S
C790 C787 1.382 . S
C790 C788 1.392 . S
C791 Eu782 2.828 . S
C791 C785 1.505 . S
C791 O803 1.249 . S
C791 O804 1.244 . S
O792 Eu783 2.373 . S
O792 C794 1.258 . S
O793 Eu782 2.392 . S
O793 C794 1.242 1_554 S
C794 O792 1.258 . S
C794 O793 1.242 1_556 S
O795 Eu782 2.418 . S
O795 C799 1.244 1_554 S
O796 Eu783 2.488 . S
O796 C812 1.249 . S
O797 Eu783 2.471 . S
O797 C812 1.244 . S
O798 Eu783 2.349 . S
O798 C799 1.265 . S
C799 O795 1.244 1_556 S
C799 O798 1.265 . S
O800 Eu782 2.373 . S
O800 C813 1.258 . S
O801 Eu783 2.392 1_554 S
O801 C813 1.242 . S
O802 Eu783 2.418 . S
O802 C784 1.244 1_556 S
O803 Eu782 2.488 . S
O803 C791 1.249 . S
O804 Eu782 2.471 . S
O804 C791 1.244 . S
O805 Eu782 2.349 . S
O805 C784 1.265 . S
C806 C807 1.379 . S
C806 C810 1.373 . S
C806 C812 1.505 . S
C807 C806 1.379 . S
C807 C809 1.369 . S
C807 H818 0.930 . S
C808 C810 1.383 . S
C808 C811 1.382 . S
C808 H819 0.930 . S
C809 C807 1.369 . S
C809 C811 1.392 . S
C809 H820 0.930 . S
C810 C806 1.373 . S
C810 C808 1.383 . S
C810 H821 0.931 . S
C811 C808 1.382 . S
C811 C809 1.392 . S
C812 Eu783 2.828 . S
C812 O796 1.249 . S
C812 O797 1.244 . S
C812 C806 1.505 . S
C813 O800 1.258 . S
C813 O801 1.242 . S
H814 C786 0.930 . S
H815 C787 0.930 . S
H816 C788 0.930 . S
H817 C789 0.931 . S
H818 C807 0.930 . S
H819 C808 0.930 . S
H820 C809 0.930 . S
H821 C810 0.931 . S
Eu822 C831 2.828 . S
Eu822 O833 2.392 . S
Eu822 O835 2.418 . S
Eu822 O840 2.373 . S
Eu822 O843 2.488 . S
Eu822 O844 2.471 . S
Eu822 O845 2.349 . S
Eu823 O832 2.373 . S
Eu823 O836 2.488 . S
Eu823 O837 2.471 . S
Eu823 O838 2.349 . S
Eu823 O841 2.392 . S
Eu823 O842 2.418 . S
Eu823 C852 2.828 . S
C824 O842 1.244 . S
C824 O845 1.265 . S
C825 C826 1.379 . S
C825 C829 1.373 . S
C825 C831 1.505 . S
C826 C825 1.379 . S
C826 C828 1.369 . S
C826 H854 0.930 . S
C827 C829 1.383 . S
C827 C830 1.382 . S
C827 H855 0.930 . S
C828 C826 1.369 . S
C828 C830 1.392 . S
C828 H856 0.930 . S
C829 C825 1.373 . S
C829 C827 1.383 . S
C829 H857 0.931 . S
C830 C827 1.382 . S
C830 C828 1.392 . S
C831 Eu822 2.828 . S
C831 C825 1.505 . S
C831 O843 1.249 . S
C831 O844 1.244 . S
O832 Eu823 2.373 . S
O832 C834 1.258 . S
O833 Eu822 2.392 . S
O833 C834 1.242 . S
C834 O832 1.258 . S
C834 O833 1.242 . S
O835 Eu822 2.418 . S
O835 C839 1.244 . S
O836 Eu823 2.488 . S
O836 C852 1.249 . S
O837 Eu823 2.471 . S
O837 C852 1.244 . S
O838 Eu823 2.349 . S
O838 C839 1.265 . S
C839 O835 1.244 . S
C839 O838 1.265 . S
O840 Eu822 2.373 . S
O840 C853 1.258 . S
O841 Eu823 2.392 . S
O841 C853 1.242 . S
O842 Eu823 2.418 . S
O842 C824 1.244 . S
O843 Eu822 2.488 . S
O843 C831 1.249 . S
O844 Eu822 2.471 . S
O844 C831 1.244 . S
O845 Eu822 2.349 . S
O845 C824 1.265 . S
C846 C847 1.379 . S
C846 C850 1.373 . S
C846 C852 1.505 . S
C847 C846 1.379 . S
C847 C849 1.369 . S
C847 H858 0.930 . S
C848 C850 1.383 . S
C848 C851 1.382 . S
C848 H859 0.930 . S
C849 C847 1.369 . S
C849 C851 1.392 . S
C849 H860 0.930 . S
C850 C846 1.373 . S
C850 C848 1.383 . S
C850 H861 0.931 . S
C851 C848 1.382 . S
C851 C849 1.392 . S
C852 Eu823 2.828 . S
C852 O836 1.249 . S
C852 O837 1.244 . S
C852 C846 1.505 . S
C853 O840 1.258 . S
C853 O841 1.242 . S
H854 C826 0.930 . S
H855 C827 0.930 . S
H856 C828 0.930 . S
H857 C829 0.931 . S
H858 C847 0.930 . S
H859 C848 0.930 . S
H860 C849 0.930 . S
H861 C850 0.931 . S
Eu862 C871 2.828 . S
Eu862 O873 2.392 . S
Eu862 O875 2.418 . S
Eu862 O880 2.373 . S
Eu862 O883 2.488 . S
Eu862 O884 2.471 . S
Eu862 O885 2.349 . S
Eu863 O872 2.373 . S
Eu863 O876 2.488 . S
Eu863 O877 2.471 . S
Eu863 O878 2.349 . S
Eu863 O881 2.392 . S
Eu863 O882 2.418 . S
Eu863 C892 2.828 . S
C864 O882 1.244 . S
C864 O885 1.265 . S
C865 C866 1.379 . S
C865 C869 1.373 . S
C865 C871 1.505 . S
C866 C865 1.379 . S
C866 C868 1.369 . S
C866 H894 0.930 . S
C867 C869 1.383 . S
C867 C870 1.382 . S
C867 H895 0.930 . S
C868 C866 1.369 . S
C868 C870 1.392 . S
C868 H896 0.930 . S
C869 C865 1.373 . S
C869 C867 1.383 . S
C869 H897 0.931 . S
C870 C867 1.382 . S
C870 C868 1.392 . S
C871 Eu862 2.828 . S
C871 C865 1.505 . S
C871 O883 1.249 . S
C871 O884 1.244 . S
O872 Eu863 2.373 . S
O872 C874 1.258 . S
O873 Eu862 2.392 . S
O873 C874 1.242 . S
C874 O872 1.258 . S
C874 O873 1.242 . S
O875 Eu862 2.418 . S
O875 C879 1.244 . S
O876 Eu863 2.488 . S
O876 C892 1.249 . S
O877 Eu863 2.471 . S
O877 C892 1.244 . S
O878 Eu863 2.349 . S
O878 C879 1.265 . S
C879 O875 1.244 . S
C879 O878 1.265 . S
O880 Eu862 2.373 . S
O880 C893 1.258 . S
O881 Eu863 2.392 . S
O881 C893 1.242 . S
O882 Eu863 2.418 . S
O882 C864 1.244 . S
O883 Eu862 2.488 . S
O883 C871 1.249 . S
O884 Eu862 2.471 . S
O884 C871 1.244 . S
O885 Eu862 2.349 . S
O885 C864 1.265 . S
C886 C887 1.379 . S
C886 C890 1.373 . S
C886 C892 1.505 . S
C887 C886 1.379 . S
C887 C889 1.369 . S
C887 H898 0.930 . S
C888 C890 1.383 . S
C888 C891 1.382 . S
C888 H899 0.930 . S
C889 C887 1.369 . S
C889 C891 1.392 . S
C889 H900 0.930 . S
C890 C886 1.373 . S
C890 C888 1.383 . S
C890 H901 0.931 . S
C891 C888 1.382 . S
C891 C889 1.392 . S
C892 Eu863 2.828 . S
C892 O876 1.249 . S
C892 O877 1.244 . S
C892 C886 1.505 . S
C893 O880 1.258 . S
C893 O881 1.242 . S
H894 C866 0.930 . S
H895 C867 0.930 . S
H896 C868 0.930 . S
H897 C869 0.931 . S
H898 C887 0.930 . S
H899 C888 0.930 . S
H900 C889 0.930 . S
H901 C890 0.931 . S
Eu902 C911 2.828 . S
Eu902 O913 2.392 . S
Eu902 O915 2.418 . S
Eu902 O920 2.373 . S
Eu902 O923 2.488 . S
Eu902 O924 2.471 . S
Eu902 O925 2.349 . S
Eu903 O912 2.373 . S
Eu903 O916 2.488 . S
Eu903 O917 2.471 . S
Eu903 O918 2.349 . S
Eu903 O921 2.392 . S
Eu903 O922 2.418 . S
Eu903 C932 2.828 . S
C904 O922 1.244 . S
C904 O925 1.265 . S
C905 C906 1.379 . S
C905 C909 1.373 . S
C905 C911 1.505 . S
C906 C905 1.379 . S
C906 C908 1.369 . S
C906 H934 0.930 . S
C907 C909 1.383 . S
C907 C910 1.382 . S
C907 H935 0.930 . S
C908 C906 1.369 . S
C908 C910 1.392 . S
C908 H936 0.930 . S
C909 C905 1.373 . S
C909 C907 1.383 . S
C909 H937 0.931 . S
C910 C907 1.382 . S
C910 C908 1.392 . S
C911 Eu902 2.828 . S
C911 C905 1.505 . S
C911 O923 1.249 . S
C911 O924 1.244 . S
O912 Eu903 2.373 . S
O912 C914 1.258 . S
O913 Eu902 2.392 . S
O913 C914 1.242 . S
C914 O912 1.258 . S
C914 O913 1.242 . S
O915 Eu902 2.418 . S
O915 C919 1.244 . S
O916 Eu903 2.488 . S
O916 C932 1.249 . S
O917 Eu903 2.471 . S
O917 C932 1.244 . S
O918 Eu903 2.349 . S
O918 C919 1.265 . S
C919 O915 1.244 . S
C919 O918 1.265 . S
O920 Eu902 2.373 . S
O920 C933 1.258 . S
O921 Eu903 2.392 . S
O921 C933 1.242 . S
O922 Eu903 2.418 . S
O922 C904 1.244 . S
O923 Eu902 2.488 . S
O923 C911 1.249 . S
O924 Eu902 2.471 . S
O924 C911 1.244 . S
O925 Eu902 2.349 . S
O925 C904 1.265 . S
C926 C927 1.379 . S
C926 C930 1.373 . S
C926 C932 1.505 . S
C927 C926 1.379 . S
C927 C929 1.369 . S
C927 H938 0.930 . S
C928 C930 1.383 . S
C928 C931 1.382 . S
C928 H939 0.930 . S
C929 C927 1.369 . S
C929 C931 1.392 . S
C929 H940 0.930 . S
C930 C926 1.373 . S
C930 C928 1.383 . S
C930 H941 0.931 . S
C931 C928 1.382 . S
C931 C929 1.392 . S
C932 Eu903 2.828 . S
C932 O916 1.249 . S
C932 O917 1.244 . S
C932 C926 1.505 . S
C933 O920 1.258 . S
C933 O921 1.242 . S
H934 C906 0.930 . S
H935 C907 0.930 . S
H936 C908 0.930 . S
H937 C909 0.931 . S
H938 C927 0.930 . S
H939 C928 0.930 . S
H940 C929 0.930 . S
H941 C930 0.931 . S
Eu942 C951 2.828 . S
Eu942 O953 2.392 . S
Eu942 O955 2.418 . S
Eu942 O960 2.373 . S
Eu942 O963 2.488 . S
Eu942 O964 2.471 . S
Eu942 O965 2.349 . S
Eu943 O952 2.373 . S
Eu943 O956 2.488 . S
Eu943 O957 2.471 . S
Eu943 O958 2.349 . S
Eu943 O961 2.392 . S
Eu943 O962 2.418 . S
Eu943 C972 2.828 . S
C944 O962 1.244 . S
C944 O965 1.265 . S
C945 C946 1.379 . S
C945 C949 1.373 . S
C945 C951 1.505 . S
C946 C945 1.379 . S
C946 C948 1.369 . S
C946 H974 0.930 . S
C947 C949 1.383 . S
C947 C950 1.382 . S
C947 H975 0.930 . S
C948 C946 1.369 . S
C948 C950 1.392 . S
C948 H976 0.930 . S
C949 C945 1.373 . S
C949 C947 1.383 . S
C949 H977 0.931 . S
C950 C947 1.382 . S
C950 C948 1.392 . S
C951 Eu942 2.828 . S
C951 C945 1.505 . S
C951 O963 1.249 . S
C951 O964 1.244 . S
O952 Eu943 2.373 . S
O952 C954 1.258 . S
O953 Eu942 2.392 . S
O953 C954 1.242 . S
C954 O952 1.258 . S
C954 O953 1.242 . S
O955 Eu942 2.418 . S
O955 C959 1.244 . S
O956 Eu943 2.488 . S
O956 C972 1.249 . S
O957 Eu943 2.471 . S
O957 C972 1.244 . S
O958 Eu943 2.349 . S
O958 C959 1.265 . S
C959 O955 1.244 . S
C959 O958 1.265 . S
O960 Eu942 2.373 . S
O960 C973 1.258 . S
O961 Eu943 2.392 . S
O961 C973 1.242 . S
O962 Eu943 2.418 . S
O962 C944 1.244 . S
O963 Eu942 2.488 . S
O963 C951 1.249 . S
O964 Eu942 2.471 . S
O964 C951 1.244 . S
O965 Eu942 2.349 . S
O965 C944 1.265 . S
C966 C967 1.379 . S
C966 C970 1.373 . S
C966 C972 1.505 . S
C967 C966 1.379 . S
C967 C969 1.369 . S
C967 H978 0.930 . S
C968 C970 1.383 . S
C968 C971 1.382 . S
C968 H979 0.930 . S
C969 C967 1.369 . S
C969 C971 1.392 . S
C969 H980 0.930 . S
C970 C966 1.373 . S
C970 C968 1.383 . S
C970 H981 0.931 . S
C971 C968 1.382 . S
C971 C969 1.392 . S
C972 Eu943 2.828 . S
C972 O956 1.249 . S
C972 O957 1.244 . S
C972 C966 1.505 . S
C973 O960 1.258 . S
C973 O961 1.242 . S
H974 C946 0.930 . S
H975 C947 0.930 . S
H976 C948 0.930 . S
H977 C949 0.931 . S
H978 C967 0.930 . S
H979 C968 0.930 . S
H980 C969 0.930 . S
H981 C970 0.931 . S
Eu982 C991 2.828 . S
Eu982 O993 2.392 . S
Eu982 O995 2.418 . S
Eu982 O1000 2.373 . S
Eu982 O1003 2.488 . S
Eu982 O1004 2.471 . S
Eu982 O1005 2.349 . S
Eu983 O992 2.373 . S
Eu983 O996 2.488 . S
Eu983 O997 2.471 . S
Eu983 O998 2.349 . S
Eu983 O1001 2.392 . S
Eu983 O1002 2.418 . S
Eu983 C1012 2.828 . S
C984 O1002 1.244 . S
C984 O1005 1.265 . S
C985 C986 1.379 . S
C985 C989 1.373 . S
C985 C991 1.505 . S
C986 C985 1.379 . S
C986 C988 1.369 . S
C986 H1014 0.930 . S
C987 C989 1.383 . S
C987 C990 1.382 . S
C987 H1015 0.930 . S
C988 C986 1.369 . S
C988 C990 1.392 . S
C988 H1016 0.930 . S
C989 C985 1.373 . S
C989 C987 1.383 . S
C989 H1017 0.931 . S
C990 C987 1.382 . S
C990 C988 1.392 . S
C991 Eu982 2.828 . S
C991 C985 1.505 . S
C991 O1003 1.249 . S
C991 O1004 1.244 . S
O992 Eu983 2.373 . S
O992 C994 1.258 . S
O993 Eu982 2.392 . S
O993 C994 1.242 . S
C994 O992 1.258 . S
C994 O993 1.242 . S
O995 Eu982 2.418 . S
O995 C999 1.244 . S
O996 Eu983 2.488 . S
O996 C1012 1.249 . S
O997 Eu983 2.471 . S
O997 C1012 1.244 . S
O998 Eu983 2.349 . S
O998 C999 1.265 . S
C999 O995 1.244 . S
C999 O998 1.265 . S
O1000 Eu982 2.373 . S
O1000 C1013 1.258 . S
O1001 Eu983 2.392 . S
O1001 C1013 1.242 . S
O1002 Eu983 2.418 . S
O1002 C984 1.244 . S
O1003 Eu982 2.488 . S
O1003 C991 1.249 . S
O1004 Eu982 2.471 . S
O1004 C991 1.244 . S
O1005 Eu982 2.349 . S
O1005 C984 1.265 . S
C1006 C1007 1.379 . S
C1006 C1010 1.373 . S
C1006 C1012 1.505 . S
C1007 C1006 1.379 . S
C1007 C1009 1.369 . S
C1007 H1018 0.930 . S
C1008 C1010 1.383 . S
C1008 C1011 1.382 . S
C1008 H1019 0.930 . S
C1009 C1007 1.369 . S
C1009 C1011 1.392 . S
C1009 H1020 0.930 . S
C1010 C1006 1.373 . S
C1010 C1008 1.383 . S
C1010 H1021 0.931 . S
C1011 C1008 1.382 . S
C1011 C1009 1.392 . S
C1012 Eu983 2.828 . S
C1012 O996 1.249 . S
C1012 O997 1.244 . S
C1012 C1006 1.505 . S
C1013 O1000 1.258 . S
C1013 O1001 1.242 . S
H1014 C986 0.930 . S
H1015 C987 0.930 . S
H1016 C988 0.930 . S
H1017 C989 0.931 . S
H1018 C1007 0.930 . S
H1019 C1008 0.930 . S
H1020 C1009 0.930 . S
H1021 C1010 0.931 . S
Eu1022 C1031 2.828 . S
Eu1022 O1033 2.392 . S
Eu1022 O1035 2.418 . S
Eu1022 O1040 2.373 . S
Eu1022 O1043 2.488 . S
Eu1022 O1044 2.471 . S
Eu1022 O1045 2.349 . S
Eu1023 O1032 2.373 . S
Eu1023 O1036 2.488 . S
Eu1023 O1037 2.471 . S
Eu1023 O1038 2.349 . S
Eu1023 O1041 2.392 . S
Eu1023 O1042 2.418 . S
Eu1023 C1052 2.828 . S
C1024 O1042 1.244 . S
C1024 O1045 1.265 . S
C1025 C1026 1.379 . S
C1025 C1029 1.373 . S
C1025 C1031 1.505 . S
C1026 C1025 1.379 . S
C1026 C1028 1.369 . S
C1026 H1054 0.930 . S
C1027 C1029 1.383 . S
C1027 C1030 1.382 . S
C1027 H1055 0.930 . S
C1028 C1026 1.369 . S
C1028 C1030 1.392 . S
C1028 H1056 0.930 . S
C1029 C1025 1.373 . S
C1029 C1027 1.383 . S
C1029 H1057 0.931 . S
C1030 C1027 1.382 . S
C1030 C1028 1.392 . S
C1031 Eu1022 2.828 . S
C1031 C1025 1.505 . S
C1031 O1043 1.249 . S
C1031 O1044 1.244 . S
O1032 Eu1023 2.373 . S
O1032 C1034 1.258 . S
O1033 Eu1022 2.392 . S
O1033 C1034 1.242 . S
C1034 O1032 1.258 . S
C1034 O1033 1.242 . S
O1035 Eu1022 2.418 . S
O1035 C1039 1.244 . S
O1036 Eu1023 2.488 . S
O1036 C1052 1.249 . S
O1037 Eu1023 2.471 . S
O1037 C1052 1.244 . S
O1038 Eu1023 2.349 . S
O1038 C1039 1.265 . S
C1039 O1035 1.244 . S
C1039 O1038 1.265 . S
O1040 Eu1022 2.373 . S
O1040 C1053 1.258 . S
O1041 Eu1023 2.392 . S
O1041 C1053 1.242 . S
O1042 Eu1023 2.418 . S
O1042 C1024 1.244 . S
O1043 Eu1022 2.488 . S
O1043 C1031 1.249 . S
O1044 Eu1022 2.471 . S
O1044 C1031 1.244 . S
O1045 Eu1022 2.349 . S
O1045 C1024 1.265 . S
C1046 C1047 1.379 . S
C1046 C1050 1.373 . S
C1046 C1052 1.505 . S
C1047 C1046 1.379 . S
C1047 C1049 1.369 . S
C1047 H1058 0.930 . S
C1048 C1050 1.383 . S
C1048 C1051 1.382 . S
C1048 H1059 0.930 . S
C1049 C1047 1.369 . S
C1049 C1051 1.392 . S
C1049 H1060 0.930 . S
C1050 C1046 1.373 . S
C1050 C1048 1.383 . S
C1050 H1061 0.931 . S
C1051 C1048 1.382 . S
C1051 C1049 1.392 . S
C1052 Eu1023 2.828 . S
C1052 O1036 1.249 . S
C1052 O1037 1.244 . S
C1052 C1046 1.505 . S
C1053 O1040 1.258 . S
C1053 O1041 1.242 . S
H1054 C1026 0.930 . S
H1055 C1027 0.930 . S
H1056 C1028 0.930 . S
H1057 C1029 0.931 . S
H1058 C1047 0.930 . S
H1059 C1048 0.930 . S
H1060 C1049 0.930 . S
H1061 C1050 0.931 . S
C1062 C1063 1.349 . S
C1062 C1064 1.327 . S
C1062 H1087 0.950 . S
C1063 C1062 1.349 . S
C1063 C1079 1.349 . S
C1064 C1062 1.327 . S
C1064 C1083 1.429 . S
C1064 H1088 0.950 . S
C1065 C1082 1.574 . S
C1065 C1084 1.368 . S
C1065 H1089 0.949 . S
H1066 C1070 0.949 . S
C1067 C1068 1.349 . S
C1067 C1069 1.327 . S
C1067 H1090 0.950 . S
C1068 C1067 1.349 . S
C1068 C1080 1.349 . S
C1069 C1067 1.327 . S
C1069 C1085 1.429 . S
C1069 H1091 0.950 . S
C1070 H1066 0.949 . S
C1070 C1078 1.574 . S
C1070 C1086 1.368 . S
H1071 C1079 0.950 . S
H1072 C1077 0.950 . S
H1073 C1078 0.949 . S
H1074 C1080 0.950 . S
H1075 C1081 0.950 . S
H1076 C1082 0.949 . S
C1077 H1072 0.950 . S
C1077 C1079 1.327 . S
C1077 C1083 1.429 . S
C1078 C1070 1.574 . S
C1078 H1073 0.949 . S
C1078 C1084 1.368 . S
C1079 C1063 1.349 . S
C1079 H1071 0.950 . S
C1079 C1077 1.327 . S
C1080 C1068 1.349 . S
C1080 H1074 0.950 . S
C1080 C1081 1.327 . S
C1081 H1075 0.950 . S
C1081 C1080 1.327 . S
C1081 C1085 1.429 . S
C1082 C1065 1.574 . S
C1082 H1076 0.949 . S
C1082 C1086 1.368 . S
C1083 C1064 1.429 . S
C1083 C1077 1.429 . S
C1083 C1084 1.523 . S
C1084 C1065 1.368 . S
C1084 C1078 1.368 . S
C1084 C1083 1.523 . S
C1085 C1069 1.429 . S
C1085 C1081 1.429 . S
C1085 C1086 1.523 . S
C1086 C1070 1.368 . S
C1086 C1082 1.368 . S
C1086 C1085 1.523 . S
H1087 C1062 0.950 . S
H1088 C1064 0.950 . S
H1089 C1065 0.949 . S
H1090 C1067 0.950 . S
H1091 C1069 0.950 . S
C1092 C1093 1.349 . S
C1092 C1094 1.327 . S
C1092 H1117 0.950 . S
C1093 C1092 1.349 . S
C1093 C1109 1.349 . S
C1094 C1092 1.327 . S
C1094 C1113 1.429 . S
C1094 H1118 0.950 . S
C1095 C1112 1.574 . S
C1095 C1114 1.368 . S
C1095 H1119 0.949 . S
H1096 C1100 0.949 . S
C1097 C1098 1.349 . S
C1097 C1099 1.327 . S
C1097 H1120 0.950 . S
C1098 C1097 1.349 . S
C1098 C1110 1.349 . S
C1099 C1097 1.327 . S
C1099 C1115 1.429 . S
C1099 H1121 0.950 . S
C1100 H1096 0.949 . S
C1100 C1108 1.574 . S
C1100 C1116 1.368 . S
H1101 C1109 0.950 . S
H1102 C1107 0.950 . S
H1103 C1108 0.949 . S
H1104 C1110 0.950 . S
H1105 C1111 0.950 . S
H1106 C1112 0.949 . S
C1107 H1102 0.950 . S
C1107 C1109 1.327 . S
C1107 C1113 1.429 . S
C1108 C1100 1.574 . S
C1108 H1103 0.949 . S
C1108 C1114 1.368 . S
C1109 C1093 1.349 . S
C1109 H1101 0.950 . S
C1109 C1107 1.327 . S
C1110 C1098 1.349 . S
C1110 H1104 0.950 . S
C1110 C1111 1.327 . S
C1111 H1105 0.950 . S
C1111 C1110 1.327 . S
C1111 C1115 1.429 . S
C1112 C1095 1.574 . S
C1112 H1106 0.949 . S
C1112 C1116 1.368 . S
C1113 C1094 1.429 . S
C1113 C1107 1.429 . S
C1113 C1114 1.523 . S
C1114 C1095 1.368 . S
C1114 C1108 1.368 . S
C1114 C1113 1.523 . S
C1115 C1099 1.429 . S
C1115 C1111 1.429 . S
C1115 C1116 1.523 . S
C1116 C1100 1.368 . S
C1116 C1112 1.368 . S
C1116 C1115 1.523 . S
H1117 C1092 0.950 . S
H1118 C1094 0.950 . S
H1119 C1095 0.949 . S
H1120 C1097 0.950 . S
H1121 C1099 0.950 . S
C1122 C1123 1.349 . S
C1122 C1124 1.327 . S
C1122 H1147 0.950 . S
C1123 C1122 1.349 . S
C1123 C1139 1.349 . S
C1124 C1122 1.327 . S
C1124 C1143 1.429 . S
C1124 H1148 0.950 . S
C1125 C1142 1.574 . S
C1125 C1144 1.368 . S
C1125 H1149 0.949 . S
H1126 C1130 0.949 . S
C1127 C1128 1.349 . S
C1127 C1129 1.327 . S
C1127 H1150 0.950 1_554 S
C1128 C1127 1.349 . S
C1128 C1140 1.349 . S
C1129 C1127 1.327 . S
C1129 C1145 1.429 . S
C1129 H1151 0.941 . S
C1130 H1126 0.949 . S
C1130 C1138 1.574 . S
C1130 C1146 1.368 . S
H1131 C1139 0.950 . S
H1132 C1137 0.950 . S
H1133 C1138 0.949 . S
H1134 C1140 0.950 . S
H1135 C1141 0.950 . S
H1136 C1142 0.949 . S
C1137 H1132 0.950 . S
C1137 C1139 1.327 . S
C1137 C1143 1.429 . S
C1138 C1130 1.574 . S
C1138 H1133 0.949 . S
C1138 C1144 1.368 . S
C1139 C1123 1.349 . S
C1139 H1131 0.950 . S
C1139 C1137 1.327 . S
C1140 C1128 1.349 . S
C1140 H1134 0.950 . S
C1140 C1141 1.327 . S
C1141 H1135 0.950 . S
C1141 C1140 1.327 . S
C1141 C1145 1.429 . S
C1142 C1125 1.574 . S
C1142 H1136 0.949 . S
C1142 C1146 1.368 . S
C1143 C1124 1.429 . S
C1143 C1137 1.429 . S
C1143 C1144 1.523 . S
C1144 C1125 1.368 . S
C1144 C1138 1.368 . S
C1144 C1143 1.523 . S
C1145 C1129 1.429 . S
C1145 C1141 1.429 . S
C1145 C1146 1.523 . S
C1146 C1130 1.368 . S
C1146 C1142 1.368 . S
C1146 C1145 1.523 . S
H1147 C1122 0.950 . S
H1148 C1124 0.950 . S
H1149 C1125 0.949 . S
H1150 C1127 0.950 1_556 S
H1151 C1129 0.941 . S
C1152 C1153 1.349 . S
C1152 C1154 1.327 . S
C1152 H1177 0.950 . S
C1153 C1152 1.349 . S
C1153 C1169 1.349 . S
C1154 C1152 1.327 . S
C1154 C1173 1.429 . S
C1154 H1178 0.950 . S
C1155 C1172 1.574 . S
C1155 C1174 1.368 . S
C1155 H1179 0.949 . S
H1156 C1160 0.949 . S
C1157 C1158 1.349 . S
C1157 C1159 1.327 . S
C1157 H1180 0.950 1_556 S
C1158 C1157 1.349 . S
C1158 C1170 1.349 . S
C1159 C1157 1.327 . S
C1159 C1175 1.429 . S
C1159 H1181 0.950 . S
C1160 H1156 0.949 . S
C1160 C1168 1.574 . S
C1160 C1176 1.368 . S
H1161 C1169 0.950 . S
H1162 C1167 0.950 . S
H1163 C1168 0.949 . S
H1164 C1170 0.950 . S
H1165 C1171 0.950 . S
H1166 C1172 0.949 . S
C1167 H1162 0.950 . S
C1167 C1169 1.327 . S
C1167 C1173 1.429 . S
C1168 C1160 1.574 . S
C1168 H1163 0.949 . S
C1168 C1174 1.368 . S
C1169 C1153 1.349 . S
C1169 H1161 0.950 . S
C1169 C1167 1.327 . S
C1170 C1158 1.349 . S
C1170 H1164 0.950 . S
C1170 C1171 1.327 . S
C1171 H1165 0.950 . S
C1171 C1170 1.327 . S
C1171 C1175 1.429 . S
C1172 C1155 1.574 . S
C1172 H1166 0.949 . S
C1172 C1176 1.368 . S
C1173 C1154 1.429 . S
C1173 C1167 1.429 . S
C1173 C1174 1.523 . S
C1174 C1155 1.368 . S
C1174 C1168 1.368 . S
C1174 C1173 1.523 . S
C1175 C1159 1.429 . S
C1175 C1171 1.429 . S
C1175 C1176 1.523 . S
C1176 C1160 1.368 . S
C1176 C1172 1.368 . S
C1176 C1175 1.523 . S
H1177 C1152 0.950 . S
H1178 C1154 0.950 . S
H1179 C1155 0.949 . S
H1180 C1157 0.950 1_554 S
H1181 C1159 0.950 . S
C1182 C1183 1.349 . S
C1182 C1184 1.327 . S
C1182 H1207 0.950 . S
C1183 C1182 1.349 . S
C1183 C1199 1.349 . S
C1184 C1182 1.327 . S
C1184 C1203 1.429 . S
C1184 H1208 0.950 . S
C1185 C1202 1.574 . S
C1185 C1204 1.368 . S
C1185 H1209 0.949 . S
H1186 C1190 0.949 . S
C1187 C1188 1.349 . S
C1187 C1189 1.327 . S
C1187 H1210 0.950 . S
C1188 C1187 1.349 . S
C1188 C1200 1.349 . S
C1189 C1187 1.327 . S
C1189 C1205 1.429 . S
C1189 H1211 0.950 . S
C1190 H1186 0.949 . S
C1190 C1198 1.574 . S
C1190 C1206 1.368 . S
H1191 C1199 0.950 . S
H1192 C1197 0.950 . S
H1193 C1198 0.949 . S
H1194 C1200 0.950 . S
H1195 C1201 0.950 . S
H1196 C1202 0.949 . S
C1197 H1192 0.950 . S
C1197 C1199 1.327 . S
C1197 C1203 1.429 . S
C1198 C1190 1.574 . S
C1198 H1193 0.949 . S
C1198 C1204 1.368 . S
C1199 C1183 1.349 . S
C1199 H1191 0.950 . S
C1199 C1197 1.327 . S
C1200 C1188 1.349 . S
C1200 H1194 0.950 . S
C1200 C1201 1.327 . S
C1201 H1195 0.950 . S
C1201 C1200 1.327 . S
C1201 C1205 1.429 . S
C1202 C1185 1.574 . S
C1202 H1196 0.949 . S
C1202 C1206 1.368 . S
C1203 C1184 1.429 . S
C1203 C1197 1.429 . S
C1203 C1204 1.523 . S
C1204 C1185 1.368 . S
C1204 C1198 1.368 . S
C1204 C1203 1.523 . S
C1205 C1189 1.429 . S
C1205 C1201 1.429 . S
C1205 C1206 1.523 . S
C1206 C1190 1.368 . S
C1206 C1202 1.368 . S
C1206 C1205 1.523 . S
H1207 C1182 0.950 . S
H1208 C1184 0.950 . S
H1209 C1185 0.949 . S
H1210 C1187 0.950 . S
H1211 C1189 0.950 . S
C1212 C1213 1.349 . S
C1212 C1214 1.327 . S
C1212 H1237 0.950 . S
C1213 C1212 1.349 . S
C1213 C1229 1.349 . S
C1214 C1212 1.327 . S
C1214 C1233 1.429 . S
C1214 H1238 0.950 . S
C1215 C1232 1.574 . S
C1215 C1234 1.368 . S
C1215 H1239 0.949 . S
H1216 C1220 0.949 . S
C1217 C1218 1.349 1_554 S
C1217 C1219 1.340 . S
C1217 H1240 0.950 . S
C1218 C1217 1.349 1_556 S
C1218 C1230 1.349 . S
C1219 C1217 1.340 . S
C1219 C1235 1.381 1_554 S
C1219 H1241 0.986 . S
C1220 H1216 0.949 . S
C1220 C1228 1.574 . S
C1220 C1236 1.368 . S
H1221 C1229 0.950 . S
H1222 C1227 0.950 . S
H1223 C1228 0.949 . S
H1224 C1230 0.950 . S
H1225 C1231 0.950 . S
H1226 C1232 0.949 1_554 S
C1227 H1222 0.950 . S
C1227 C1229 1.327 . S
C1227 C1233 1.429 . S
C1228 C1220 1.574 . S
C1228 H1223 0.949 . S
C1228 C1234 1.368 . S
C1229 C1213 1.349 . S
C1229 H1221 0.950 . S
C1229 C1227 1.327 . S
C1230 C1218 1.349 . S
C1230 H1224 0.950 . S
C1230 C1231 1.327 . S
C1231 H1225 0.950 . S
C1231 C1230 1.327 . S
C1231 C1235 1.429 . S
C1232 C1215 1.574 . S
C1232 H1226 0.949 1_556 S
C1232 C1236 1.368 . S
C1233 C1214 1.429 . S
C1233 C1227 1.429 . S
C1233 C1234 1.523 . S
C1234 C1215 1.368 . S
C1234 C1228 1.368 . S
C1234 C1233 1.523 . S
C1235 C1219 1.381 1_556 S
C1235 C1231 1.429 . S
C1235 C1236 1.523 . S
C1236 C1220 1.368 . S
C1236 C1232 1.368 . S
C1236 C1235 1.523 . S
H1237 C1212 0.950 . S
H1238 C1214 0.950 . S
H1239 C1215 0.949 . S
H1240 C1217 0.950 . S
H1241 C1219 0.986 . S
C1242 C1243 1.349 . S
C1242 C1244 1.327 . S
C1242 H1267 0.950 . S
C1243 C1242 1.349 . S
C1243 C1259 1.349 . S
C1244 C1242 1.327 . S
C1244 C1263 1.429 . S
C1244 H1268 0.950 . S
C1245 C1262 1.574 . S
C1245 C1264 1.368 . S
C1245 H1269 0.949 . S
H1246 C1250 0.949 . S
C1247 C1248 1.349 . S
C1247 C1249 1.327 . S
C1247 H1270 0.950 . S
C1248 C1247 1.349 . S
C1248 C1260 1.349 . S
C1249 C1247 1.327 . S
C1249 C1265 1.429 . S
C1249 H1271 0.950 . S
C1250 H1246 0.949 . S
C1250 C1258 1.574 . S
C1250 C1266 1.368 . S
H1251 C1259 0.950 . S
H1252 C1257 0.950 . S
H1253 C1258 0.949 . S
H1254 C1260 0.950 1_554 S
H1255 C1261 0.950 . S
H1256 C1262 0.949 . S
C1257 H1252 0.950 . S
C1257 C1259 1.327 . S
C1257 C1263 1.429 . S
C1258 C1250 1.574 . S
C1258 H1253 0.949 . S
C1258 C1264 1.368 . S
C1259 C1243 1.349 . S
C1259 H1251 0.950 . S
C1259 C1257 1.327 . S
C1260 C1248 1.349 . S
C1260 H1254 0.950 1_556 S
C1260 C1261 1.327 . S
C1261 H1255 0.950 . S
C1261 C1260 1.327 . S
C1261 C1265 1.429 . S
C1262 C1245 1.574 . S
C1262 H1256 0.949 . S
C1262 C1266 1.368 . S
C1263 C1244 1.429 . S
C1263 C1257 1.429 . S
C1263 C1264 1.523 . S
C1264 C1245 1.368 . S
C1264 C1258 1.368 . S
C1264 C1263 1.523 . S
C1265 C1249 1.429 . S
C1265 C1261 1.429 . S
C1265 C1266 1.523 . S
C1266 C1250 1.368 . S
C1266 C1262 1.368 . S
C1266 C1265 1.523 . S
H1267 C1242 0.950 . S
H1268 C1244 0.950 . S
H1269 C1245 0.949 . S
H1270 C1247 0.950 . S
H1271 C1249 0.950 . S
C1272 C1273 1.349 . S
C1272 C1274 1.327 . S
C1272 H1297 0.950 . S
C1273 C1272 1.349 . S
C1273 C1289 1.349 . S
C1274 C1272 1.327 . S
C1274 C1293 1.429 . S
C1274 H1298 0.950 . S
C1275 C1292 1.574 . S
C1275 C1294 1.368 . S
C1275 H1299 0.949 . S
H1276 C1280 0.949 . S
C1277 C1278 1.349 . S
C1277 C1279 1.327 . S
C1277 H1300 0.950 . S
C1278 C1277 1.349 . S
C1278 C1290 1.349 . S
C1279 C1277 1.327 . S
C1279 C1295 1.429 . S
C1279 H1301 0.950 . S
C1280 H1276 0.949 . S
C1280 C1288 1.574 . S
C1280 C1296 1.368 . S
H1281 C1289 0.950 . S
H1282 C1287 0.950 . S
H1283 C1288 0.949 . S
H1284 C1290 0.948 . S
H1285 C1291 0.950 . S
H1286 C1292 0.949 . S
C1287 H1282 0.950 . S
C1287 C1289 1.327 . S
C1287 C1293 1.429 . S
C1288 C1280 1.574 . S
C1288 H1283 0.949 . S
C1288 C1294 1.368 . S
C1289 C1273 1.349 . S
C1289 H1281 0.950 . S
C1289 C1287 1.327 . S
C1290 C1278 1.349 . S
C1290 H1284 0.948 . S
C1290 C1291 1.327 . S
C1291 H1285 0.950 . S
C1291 C1290 1.327 . S
C1291 C1295 1.429 . S
C1292 C1275 1.574 . S
C1292 H1286 0.949 . S
C1292 C1296 1.368 . S
C1293 C1274 1.429 . S
C1293 C1287 1.429 . S
C1293 C1294 1.523 . S
C1294 C1275 1.368 . S
C1294 C1288 1.368 . S
C1294 C1293 1.523 . S
C1295 C1279 1.429 . S
C1295 C1291 1.429 . S
C1295 C1296 1.523 . S
C1296 C1280 1.368 . S
C1296 C1292 1.368 . S
C1296 C1295 1.523 . S
H1297 C1272 0.950 . S
H1298 C1274 0.950 . S
H1299 C1275 0.949 . S
H1300 C1277 0.950 . S
H1301 C1279 0.950 . S
C1302 C1303 1.349 . S
C1302 C1304 1.327 . S
C1302 H1327 0.950 . S
C1303 C1302 1.349 . S
C1303 C1319 1.349 . S
C1304 C1302 1.327 . S
C1304 C1323 1.429 . S
C1304 H1328 0.950 . S
C1305 C1322 1.574 . S
C1305 C1324 1.368 . S
C1305 H1329 0.949 . S
H1306 C1310 0.949 . S
C1307 C1308 1.323 1_554 S
C1307 C1309 1.324 1_554 S
C1307 H1330 0.980 . S
C1308 C1307 1.323 1_556 S
C1308 C1320 1.349 . S
C1309 C1307 1.324 1_556 S
C1309 C1325 1.429 . S
C1309 H1331 0.950 1_556 S
C1310 H1306 0.949 . S
C1310 C1318 1.574 . S
C1310 C1326 1.368 . S
H1311 C1319 0.950 . S
H1312 C1317 0.950 . S
H1313 C1318 0.949 . S
H1314 C1320 0.950 . S
H1315 C1321 0.950 . S
H1316 C1322 0.936 1_554 S
C1317 H1312 0.950 . S
C1317 C1319 1.327 . S
C1317 C1323 1.429 . S
C1318 C1310 1.574 . S
C1318 H1313 0.949 . S
C1318 C1324 1.368 . S
C1319 C1303 1.349 . S
C1319 H1311 0.950 . S
C1319 C1317 1.327 . S
C1320 C1308 1.349 . S
C1320 H1314 0.950 . S
C1320 C1321 1.327 . S
C1321 H1315 0.950 . S
C1321 C1320 1.327 . S
C1321 C1325 1.429 . S
C1322 C1305 1.574 . S
C1322 H1316 0.936 1_556 S
C1322 C1326 1.368 . S
C1323 C1304 1.429 . S
C1323 C1317 1.429 . S
C1323 C1324 1.523 . S
C1324 C1305 1.368 . S
C1324 C1318 1.368 . S
C1324 C1323 1.523 . S
C1325 C1309 1.429 . S
C1325 C1321 1.429 . S
C1325 C1326 1.523 . S
C1326 C1310 1.368 . S
C1326 C1322 1.368 . S
C1326 C1325 1.523 . S
H1327 C1302 0.950 . S
H1328 C1304 0.950 . S
H1329 C1305 0.949 . S
H1330 C1307 0.980 . S
H1331 C1309 0.950 1_554 S
C1332 C1333 1.349 . S
C1332 C1334 1.327 . S
C1332 H1357 0.950 . S
C1333 C1332 1.349 . S
C1333 C1349 1.349 . S
C1334 C1332 1.327 . S
C1334 C1353 1.429 . S
C1334 H1358 0.950 . S
C1335 C1352 1.574 . S
C1335 C1354 1.368 . S
C1335 H1359 0.949 . S
H1336 C1340 0.949 . S
C1337 C1338 1.349 . S
C1337 C1339 1.327 . S
C1337 H1360 0.950 . S
C1338 C1337 1.349 . S
C1338 C1350 1.349 . S
C1339 C1337 1.327 . S
C1339 C1355 1.429 . S
C1339 H1361 0.950 . S
C1340 H1336 0.949 . S
C1340 C1348 1.574 . S
C1340 C1356 1.368 . S
H1341 C1349 0.950 . S
H1342 C1347 0.950 . S
H1343 C1348 0.949 . S
H1344 C1350 1.013 . S
H1345 C1351 0.950 . S
H1346 C1352 0.949 . S
C1347 H1342 0.950 . S
C1347 C1349 1.327 . S
C1347 C1353 1.429 . S
C1348 C1340 1.574 . S
C1348 H1343 0.949 . S
C1348 C1354 1.368 . S
C1349 C1333 1.349 . S
C1349 H1341 0.950 . S
C1349 C1347 1.327 . S
C1350 C1338 1.349 . S
C1350 H1344 1.013 . S
C1350 C1351 1.327 . S
C1351 H1345 0.950 . S
C1351 C1350 1.327 . S
C1351 C1355 1.429 . S
C1352 C1335 1.574 . S
C1352 H1346 0.949 . S
C1352 C1356 1.368 . S
C1353 C1334 1.429 . S
C1353 C1347 1.429 . S
C1353 C1354 1.523 . S
C1354 C1335 1.368 . S
C1354 C1348 1.368 . S
C1354 C1353 1.523 . S
C1355 C1339 1.429 . S
C1355 C1351 1.429 . S
C1355 C1356 1.523 . S
C1356 C1340 1.368 . S
C1356 C1352 1.368 . S
C1356 C1355 1.523 . S
H1357 C1332 0.950 . S
H1358 C1334 0.950 . S
H1359 C1335 0.949 . S
H1360 C1337 0.950 . S
H1361 C1339 0.950 . S
C1362 C1363 1.349 . S
C1362 C1364 1.327 . S
C1362 H1387 0.950 . S
C1363 C1362 1.349 . S
C1363 C1379 1.349 . S
C1364 C1362 1.327 . S
C1364 C1383 1.429 . S
C1364 H1388 0.950 . S
C1365 C1382 1.574 . S
C1365 C1384 1.368 . S
C1365 H1389 0.949 . S
H1366 C1370 0.949 . S
C1367 C1368 1.349 . S
C1367 C1369 1.327 . S
C1367 H1390 0.950 . S
C1368 C1367 1.349 . S
C1368 C1380 1.349 . S
C1369 C1367 1.327 . S
C1369 C1385 1.429 . S
C1369 H1391 0.950 . S
C1370 H1366 0.949 . S
C1370 C1378 1.574 . S
C1370 C1386 1.368 . S
H1371 C1379 0.950 . S
H1372 C1377 0.950 . S
H1373 C1378 0.949 . S
H1374 C1380 0.950 . S
H1375 C1381 0.950 . S
H1376 C1382 0.949 . S
C1377 H1372 0.950 . S
C1377 C1379 1.327 . S
C1377 C1383 1.429 . S
C1378 C1370 1.574 . S
C1378 H1373 0.949 . S
C1378 C1384 1.368 . S
C1379 C1363 1.349 . S
C1379 H1371 0.950 . S
C1379 C1377 1.327 . S
C1380 C1368 1.349 . S
C1380 H1374 0.950 . S
C1380 C1381 1.327 . S
C1381 H1375 0.950 . S
C1381 C1380 1.327 . S
C1381 C1385 1.429 . S
C1382 C1365 1.574 . S
C1382 H1376 0.949 . S
C1382 C1386 1.368 . S
C1383 C1364 1.429 . S
C1383 C1377 1.429 . S
C1383 C1384 1.523 . S
C1384 C1365 1.368 . S
C1384 C1378 1.368 . S
C1384 C1383 1.523 . S
C1385 C1369 1.429 . S
C1385 C1381 1.429 . S
C1385 C1386 1.523 . S
C1386 C1370 1.368 . S
C1386 C1382 1.368 . S
C1386 C1385 1.523 . S
H1387 C1362 0.950 . S
H1388 C1364 0.950 . S
H1389 C1365 0.949 . S
H1390 C1367 0.950 . S
H1391 C1369 0.950 . S
C1392 C1393 1.349 . S
C1392 C1394 1.327 . S
C1392 H1417 0.950 . S
C1393 C1392 1.349 . S
C1393 C1409 1.349 . S
C1394 C1392 1.327 . S
C1394 C1413 1.429 . S
C1394 H1418 0.950 . S
C1395 C1412 1.574 . S
C1395 C1414 1.368 . S
C1395 H1419 0.949 . S
H1396 C1400 0.949 . S
C1397 C1398 1.349 . S
C1397 C1399 1.327 . S
C1397 H1420 0.950 . S
C1398 C1397 1.349 . S
C1398 C1410 1.349 . S
C1399 C1397 1.327 . S
C1399 C1415 1.429 . S
C1399 H1421 0.950 . S
C1400 H1396 0.949 . S
C1400 C1408 1.574 . S
C1400 C1416 1.368 . S
H1401 C1409 0.950 . S
H1402 C1407 0.950 . S
H1403 C1408 0.949 . S
H1404 C1410 0.950 . S
H1405 C1411 0.950 . S
H1406 C1412 0.949 . S
C1407 H1402 0.950 . S
C1407 C1409 1.327 . S
C1407 C1413 1.429 . S
C1408 C1400 1.574 . S
C1408 H1403 0.949 . S
C1408 C1414 1.368 . S
C1409 C1393 1.349 . S
C1409 H1401 0.950 . S
C1409 C1407 1.327 . S
C1410 C1398 1.349 . S
C1410 H1404 0.950 . S
C1410 C1411 1.327 . S
C1411 H1405 0.950 . S
C1411 C1410 1.327 . S
C1411 C1415 1.429 . S
C1412 C1395 1.574 . S
C1412 H1406 0.949 . S
C1412 C1416 1.368 . S
C1413 C1394 1.429 . S
C1413 C1407 1.429 . S
C1413 C1414 1.523 . S
C1414 C1395 1.368 . S
C1414 C1408 1.368 . S
C1414 C1413 1.523 . S
C1415 C1399 1.429 . S
C1415 C1411 1.429 . S
C1415 C1416 1.523 . S
C1416 C1400 1.368 . S
C1416 C1412 1.368 . S
C1416 C1415 1.523 . S
H1417 C1392 0.950 . S
H1418 C1394 0.950 . S
H1419 C1395 0.949 . S
H1420 C1397 0.950 . S
H1421 C1399 0.950 . S
C1422 C1423 1.349 . S
C1422 C1424 1.327 . S
C1422 H1447 0.950 . S
C1423 C1422 1.349 . S
C1423 C1439 1.349 . S
C1424 C1422 1.327 . S
C1424 C1443 1.429 . S
C1424 H1448 0.950 . S
C1425 C1442 1.574 . S
C1425 C1444 1.368 . S
C1425 H1449 0.949 . S
H1426 C1430 0.949 . S
C1427 C1428 1.349 . S
C1427 C1429 1.327 . S
C1427 H1450 0.950 . S
C1428 C1427 1.349 . S
C1428 C1440 1.349 . S
C1429 C1427 1.327 . S
C1429 C1445 1.429 . S
C1429 H1451 0.950 . S
C1430 H1426 0.949 . S
C1430 C1438 1.574 . S
C1430 C1446 1.368 . S
H1431 C1439 0.950 . S
H1432 C1437 0.950 1_455 S
H1433 C1438 0.949 . S
H1434 C1440 0.950 . S
H1435 C1441 0.950 . S
H1436 C1442 0.949 . S
C1437 H1432 0.950 1_655 S
C1437 C1439 1.327 . S
C1437 C1443 1.429 . S
C1438 C1430 1.574 . S
C1438 H1433 0.949 . S
C1438 C1444 1.368 . S
C1439 C1423 1.349 . S
C1439 H1431 0.950 . S
C1439 C1437 1.327 . S
C1440 C1428 1.349 . S
C1440 H1434 0.950 . S
C1440 C1441 1.327 . S
C1441 H1435 0.950 . S
C1441 C1440 1.327 . S
C1441 C1445 1.429 . S
C1442 C1425 1.574 . S
C1442 H1436 0.949 . S
C1442 C1446 1.368 . S
C1443 C1424 1.429 . S
C1443 C1437 1.429 . S
C1443 C1444 1.523 1_655 S
C1444 C1425 1.368 . S
C1444 C1438 1.368 . S
C1444 C1443 1.523 1_455 S
C1445 C1429 1.429 . S
C1445 C1441 1.429 . S
C1445 C1446 1.523 . S
C1446 C1430 1.368 . S
C1446 C1442 1.368 . S
C1446 C1445 1.523 . S
H1447 C1422 0.950 . S
H1448 C1424 0.950 . S
H1449 C1425 0.949 . S
H1450 C1427 0.950 . S
H1451 C1429 0.950 . S
C1452 C1453 1.349 . S
C1452 C1454 1.327 . S
C1452 H1477 0.950 . S
C1453 C1452 1.349 . S
C1453 C1469 1.349 . S
C1454 C1452 1.327 . S
C1454 C1473 1.429 . S
C1454 H1478 0.950 . S
C1455 C1472 1.574 . S
C1455 C1474 1.368 . S
C1455 H1479 0.949 . S
H1456 C1460 0.949 . S
C1457 C1458 1.349 . S
C1457 C1459 1.327 . S
C1457 H1480 0.950 . S
C1458 C1457 1.349 . S
C1458 C1470 1.349 . S
C1459 C1457 1.327 . S
C1459 C1475 1.429 . S
C1459 H1481 0.950 . S
C1460 H1456 0.949 . S
C1460 C1468 1.574 . S
C1460 C1476 1.368 . S
H1461 C1469 0.950 . S
H1462 C1467 0.950 . S
H1463 C1468 0.949 . S
H1464 C1470 0.950 . S
H1465 C1471 0.950 . S
H1466 C1472 0.949 . S
C1467 H1462 0.950 . S
C1467 C1469 1.327 . S
C1467 C1473 1.429 . S
C1468 C1460 1.574 . S
C1468 H1463 0.949 . S
C1468 C1474 1.368 . S
C1469 C1453 1.349 . S
C1469 H1461 0.950 . S
C1469 C1467 1.327 . S
C1470 C1458 1.349 . S
C1470 H1464 0.950 . S
C1470 C1471 1.327 . S
C1471 H1465 0.950 . S
C1471 C1470 1.327 . S
C1471 C1475 1.429 . S
C1472 C1455 1.574 . S
C1472 H1466 0.949 . S
C1472 C1476 1.368 . S
C1473 C1454 1.429 . S
C1473 C1467 1.429 . S
C1473 C1474 1.523 . S
C1474 C1455 1.368 . S
C1474 C1468 1.368 . S
C1474 C1473 1.523 . S
C1475 C1459 1.429 . S
C1475 C1471 1.429 . S
C1475 C1476 1.523 . S
C1476 C1460 1.368 . S
C1476 C1472 1.368 . S
C1476 C1475 1.523 . S
H1477 C1452 0.950 . S
H1478 C1454 0.950 . S
H1479 C1455 0.949 . S
H1480 C1457 0.950 . S
H1481 C1459 0.950 . S
C1482 C1483 1.349 . S
C1482 C1484 1.327 . S
C1482 H1507 0.950 . S
C1483 C1482 1.349 . S
C1483 C1499 1.349 . S
C1484 C1482 1.327 . S
C1484 C1503 1.429 . S
C1484 H1508 0.950 . S
C1485 C1502 1.574 . S
C1485 C1504 1.368 . S
C1485 H1509 0.949 1_565 S
H1486 C1490 0.949 . S
C1487 C1488 1.349 . S
C1487 C1489 1.327 . S
C1487 H1510 0.950 . S
C1488 C1487 1.349 . S
C1488 C1500 1.349 . S
C1489 C1487 1.327 . S
C1489 C1505 1.429 . S
C1489 H1511 0.950 . S
C1490 H1486 0.949 . S
C1490 C1498 1.574 . S
C1490 C1506 1.368 . S
H1491 C1499 0.950 . S
H1492 C1497 0.950 . S
H1493 C1498 0.949 . S
H1494 C1500 0.950 . S
H1495 C1501 0.950 . S
H1496 C1502 0.949 . S
C1497 H1492 0.950 . S
C1497 C1499 1.327 . S
C1497 C1503 1.429 . S
C1498 C1490 1.574 . S
C1498 H1493 0.949 . S
C1498 C1504 1.368 . S
C1499 C1483 1.349 . S
C1499 H1491 0.950 . S
C1499 C1497 1.327 . S
C1500 C1488 1.349 . S
C1500 H1494 0.950 . S
C1500 C1501 1.327 . S
C1501 H1495 0.950 . S
C1501 C1500 1.327 . S
C1501 C1505 1.429 . S
C1502 C1485 1.574 . S
C1502 H1496 0.949 . S
C1502 C1506 1.368 . S
C1503 C1484 1.429 . S
C1503 C1497 1.429 . S
C1503 C1504 1.523 1_545 S
C1504 C1485 1.368 . S
C1504 C1498 1.368 . S
C1504 C1503 1.523 1_565 S
C1505 C1489 1.429 . S
C1505 C1501 1.429 . S
C1505 C1506 1.523 . S
C1506 C1490 1.368 . S
C1506 C1502 1.368 . S
C1506 C1505 1.523 . S
H1507 C1482 0.950 . S
H1508 C1484 0.950 . S
H1509 C1485 0.949 1_545 S
H1510 C1487 0.950 . S
H1511 C1489 0.950 . S
C1512 C1513 1.349 . S
C1512 C1514 1.327 . S
C1512 H1537 0.950 . S
C1513 C1512 1.349 . S
C1513 C1529 1.349 . S
C1514 C1512 1.327 . S
C1514 C1533 1.429 . S
C1514 H1538 0.950 . S
C1515 C1532 1.574 . S
C1515 C1534 1.368 . S
C1515 H1539 0.949 . S
H1516 C1520 0.949 . S
C1517 C1518 1.349 . S
C1517 C1519 1.327 . S
C1517 H1540 0.950 . S
C1518 C1517 1.349 . S
C1518 C1530 1.349 . S
C1519 C1517 1.327 . S
C1519 C1535 1.429 . S
C1519 H1541 0.950 . S
C1520 H1516 0.949 . S
C1520 C1528 1.574 . S
C1520 C1536 1.368 . S
H1521 C1529 0.950 . S
H1522 C1527 0.950 . S
H1523 C1528 0.949 . S
H1524 C1530 0.950 . S
H1525 C1531 0.950 . S
H1526 C1532 0.949 . S
C1527 H1522 0.950 . S
C1527 C1529 1.327 . S
C1527 C1533 1.429 . S
C1528 C1520 1.574 . S
C1528 H1523 0.949 . S
C1528 C1534 1.368 . S
C1529 C1513 1.349 . S
C1529 H1521 0.950 . S
C1529 C1527 1.327 . S
C1530 C1518 1.349 . S
C1530 H1524 0.950 . S
C1530 C1531 1.327 . S
C1531 H1525 0.950 . S
C1531 C1530 1.327 . S
C1531 C1535 1.429 . S
C1532 C1515 1.574 . S
C1532 H1526 0.949 . S
C1532 C1536 1.368 . S
C1533 C1514 1.429 . S
C1533 C1527 1.429 . S
C1533 C1534 1.523 . S
C1534 C1515 1.368 . S
C1534 C1528 1.368 . S
C1534 C1533 1.523 . S
C1535 C1519 1.429 . S
C1535 C1531 1.429 . S
C1535 C1536 1.523 . S
C1536 C1520 1.368 . S
C1536 C1532 1.368 . S
C1536 C1535 1.523 . S
H1537 C1512 0.950 . S
H1538 C1514 0.950 . S
H1539 C1515 0.949 . S
H1540 C1517 0.950 . S
H1541 C1519 0.950 . S
C1542 C1543 1.349 . S
C1542 C1544 1.327 . S
C1542 H1567 0.950 . S
C1543 C1542 1.349 . S
C1543 C1559 1.349 . S
C1544 C1542 1.327 . S
C1544 C1563 1.429 . S
C1544 H1568 0.950 . S
C1545 C1562 1.574 . S
C1545 C1564 1.368 . S
C1545 H1569 0.949 . S
H1546 C1550 0.949 . S
C1547 C1548 1.349 . S
C1547 C1549 1.327 . S
C1547 H1570 0.950 . S
C1548 C1547 1.349 . S
C1548 C1560 1.349 . S
C1549 C1547 1.327 . S
C1549 C1565 1.429 . S
C1549 H1571 0.950 . S
C1550 H1546 0.949 . S
C1550 C1558 1.574 . S
C1550 C1566 1.368 . S
H1551 C1559 0.950 . S
H1552 C1557 0.950 . S
H1553 C1558 0.949 . S
H1554 C1560 0.950 . S
H1555 C1561 0.950 . S
H1556 C1562 0.949 . S
C1557 H1552 0.950 . S
C1557 C1559 1.327 . S
C1557 C1563 1.429 . S
C1558 C1550 1.574 . S
C1558 H1553 0.949 . S
C1558 C1564 1.368 . S
C1559 C1543 1.349 . S
C1559 H1551 0.950 . S
C1559 C1557 1.327 . S
C1560 C1548 1.349 . S
C1560 H1554 0.950 . S
C1560 C1561 1.327 . S
C1561 H1555 0.950 . S
C1561 C1560 1.327 . S
C1561 C1565 1.429 . S
C1562 C1545 1.574 . S
C1562 H1556 0.949 . S
C1562 C1566 1.368 . S
C1563 C1544 1.429 . S
C1563 C1557 1.429 . S
C1563 C1564 1.523 . S
C1564 C1545 1.368 . S
C1564 C1558 1.368 . S
C1564 C1563 1.523 . S
C1565 C1549 1.429 . S
C1565 C1561 1.429 . S
C1565 C1566 1.523 . S
C1566 C1550 1.368 . S
C1566 C1562 1.368 . S
C1566 C1565 1.523 . S
H1567 C1542 0.950 . S
H1568 C1544 0.950 . S
H1569 C1545 0.949 . S
H1570 C1547 0.950 . S
H1571 C1549 0.950 . S
C1572 C1573 1.349 . S
C1572 C1574 1.327 . S
C1572 H1597 0.950 . S
C1573 C1572 1.349 . S
C1573 C1589 1.349 . S
C1574 C1572 1.327 . S
C1574 C1593 1.429 . S
C1574 H1598 0.950 . S
C1575 C1592 1.574 . S
C1575 C1594 1.368 . S
C1575 H1599 0.949 . S
H1576 C1580 0.949 . S
C1577 C1578 1.349 . S
C1577 C1579 1.327 . S
C1577 H1600 0.950 . S
C1578 C1577 1.349 . S
C1578 C1590 1.349 . S
C1579 C1577 1.327 . S
C1579 C1595 1.429 . S
C1579 H1601 0.950 . S
C1580 H1576 0.949 . S
C1580 C1588 1.574 . S
C1580 C1596 1.368 . S
H1581 C1589 0.950 . S
H1582 C1587 0.950 . S
H1583 C1588 0.949 . S
H1584 C1590 0.950 . S
H1585 C1591 0.950 . S
H1586 C1592 0.949 . S
C1587 H1582 0.950 . S
C1587 C1589 1.327 . S
C1587 C1593 1.429 . S
C1588 C1580 1.574 . S
C1588 H1583 0.949 . S
C1588 C1594 1.368 . S
C1589 C1573 1.349 . S
C1589 H1581 0.950 . S
C1589 C1587 1.327 . S
C1590 C1578 1.349 . S
C1590 H1584 0.950 . S
C1590 C1591 1.327 . S
C1591 H1585 0.950 . S
C1591 C1590 1.327 . S
C1591 C1595 1.429 . S
C1592 C1575 1.574 . S
C1592 H1586 0.949 . S
C1592 C1596 1.368 . S
C1593 C1574 1.429 . S
C1593 C1587 1.429 . S
C1593 C1594 1.523 . S
C1594 C1575 1.368 . S
C1594 C1588 1.368 . S
C1594 C1593 1.523 . S
C1595 C1579 1.429 . S
C1595 C1591 1.429 . S
C1595 C1596 1.523 . S
C1596 C1580 1.368 . S
C1596 C1592 1.368 . S
C1596 C1595 1.523 . S
H1597 C1572 0.950 . S
H1598 C1574 0.950 . S
H1599 C1575 0.949 . S
H1600 C1577 0.950 . S
H1601 C1579 0.950 . S
C1602 C1603 1.349 . S
C1602 C1604 1.327 . S
C1602 H1627 0.950 . S
C1603 C1602 1.349 . S
C1603 C1619 1.349 . S
C1604 C1602 1.327 . S
C1604 C1623 1.429 . S
C1604 H1628 0.950 . S
C1605 C1622 1.574 . S
C1605 C1624 1.368 . S
C1605 H1629 0.949 . S
H1606 C1610 0.949 . S
C1607 C1608 1.349 . S
C1607 C1609 1.327 . S
C1607 H1630 0.950 . S
C1608 C1607 1.349 . S
C1608 C1620 1.349 . S
C1609 C1607 1.327 . S
C1609 C1625 1.429 . S
C1609 H1631 0.950 . S
C1610 H1606 0.949 . S
C1610 C1618 1.574 . S
C1610 C1626 1.368 . S
H1611 C1619 0.950 . S
H1612 C1617 0.950 . S
H1613 C1618 0.949 . S
H1614 C1620 0.950 . S
H1615 C1621 0.950 . S
H1616 C1622 0.949 . S
C1617 H1612 0.950 . S
C1617 C1619 1.327 . S
C1617 C1623 1.429 . S
C1618 C1610 1.574 . S
C1618 H1613 0.949 . S
C1618 C1624 1.368 . S
C1619 C1603 1.349 . S
C1619 H1611 0.950 . S
C1619 C1617 1.327 . S
C1620 C1608 1.349 . S
C1620 H1614 0.950 . S
C1620 C1621 1.327 . S
C1621 H1615 0.950 . S
C1621 C1620 1.327 . S
C1621 C1625 1.429 . S
C1622 C1605 1.574 . S
C1622 H1616 0.949 . S
C1622 C1626 1.368 . S
C1623 C1604 1.429 . S
C1623 C1617 1.429 . S
C1623 C1624 1.523 . S
C1624 C1605 1.368 . S
C1624 C1618 1.368 . S
C1624 C1623 1.523 . S
C1625 C1609 1.429 . S
C1625 C1621 1.429 . S
C1625 C1626 1.523 . S
C1626 C1610 1.368 . S
C1626 C1622 1.368 . S
C1626 C1625 1.523 . S
H1627 C1602 0.950 . S
H1628 C1604 0.950 . S
H1629 C1605 0.949 . S
H1630 C1607 0.950 . S
H1631 C1609 0.950 . S
C1632 C1633 1.349 . S
C1632 C1634 1.327 . S
C1632 H1657 0.950 . S
C1633 C1632 1.349 . S
C1633 C1649 1.349 . S
C1634 C1632 1.327 . S
C1634 C1653 1.429 . S
C1634 H1658 0.950 . S
C1635 C1652 1.574 . S
C1635 C1654 1.368 . S
C1635 H1659 0.949 . S
H1636 C1640 0.949 . S
C1637 C1638 1.349 . S
C1637 C1639 1.327 . S
C1637 H1660 0.950 . S
C1638 C1637 1.349 . S
C1638 C1650 1.349 . S
C1639 C1637 1.327 . S
C1639 C1655 1.429 . S
C1639 H1661 0.950 . S
C1640 H1636 0.949 . S
C1640 C1648 1.574 . S
C1640 C1656 1.368 . S
H1641 C1649 0.950 . S
H1642 C1647 0.950 . S
H1643 C1648 0.949 . S
H1644 C1650 0.950 . S
H1645 C1651 0.950 . S
H1646 C1652 0.949 . S
C1647 H1642 0.950 . S
C1647 C1649 1.327 . S
C1647 C1653 1.429 . S
C1648 C1640 1.574 . S
C1648 H1643 0.949 . S
C1648 C1654 1.368 . S
C1649 C1633 1.349 . S
C1649 H1641 0.950 . S
C1649 C1647 1.327 . S
C1650 C1638 1.349 . S
C1650 H1644 0.950 . S
C1650 C1651 1.327 . S
C1651 H1645 0.950 . S
C1651 C1650 1.327 . S
C1651 C1655 1.429 . S
C1652 C1635 1.574 . S
C1652 H1646 0.949 . S
C1652 C1656 1.368 . S
C1653 C1634 1.429 . S
C1653 C1647 1.429 . S
C1653 C1654 1.523 . S
C1654 C1635 1.368 . S
C1654 C1648 1.368 . S
C1654 C1653 1.523 . S
C1655 C1639 1.429 . S
C1655 C1651 1.429 . S
C1655 C1656 1.523 . S
C1656 C1640 1.368 . S
C1656 C1652 1.368 . S
C1656 C1655 1.523 . S
H1657 C1632 0.950 . S
H1658 C1634 0.950 . S
H1659 C1635 0.949 . S
H1660 C1637 0.950 . S
H1661 C1639 0.950 . S
C1662 C1663 1.349 . S
C1662 C1664 1.327 . S
C1662 H1687 0.950 . S
C1663 C1662 1.349 . S
C1663 C1679 1.349 . S
C1664 C1662 1.327 . S
C1664 C1683 1.429 . S
C1664 H1688 0.950 . S
C1665 C1682 1.574 . S
C1665 C1684 1.368 . S
C1665 H1689 0.949 . S
H1666 C1670 0.949 . S
C1667 C1668 1.349 . S
C1667 C1669 1.327 . S
C1667 H1690 0.950 . S
C1668 C1667 1.349 . S
C1668 C1680 1.349 . S
C1669 C1667 1.327 . S
C1669 C1685 1.429 . S
C1669 H1691 0.950 . S
C1670 H1666 0.949 . S
C1670 C1678 1.574 . S
C1670 C1686 1.368 . S
H1671 C1679 0.950 . S
H1672 C1677 0.950 . S
H1673 C1678 0.949 . S
H1674 C1680 0.950 . S
H1675 C1681 0.950 . S
H1676 C1682 0.949 . S
C1677 H1672 0.950 . S
C1677 C1679 1.327 . S
C1677 C1683 1.429 . S
C1678 C1670 1.574 . S
C1678 H1673 0.949 . S
C1678 C1684 1.368 . S
C1679 C1663 1.349 . S
C1679 H1671 0.950 . S
C1679 C1677 1.327 . S
C1680 C1668 1.349 . S
C1680 H1674 0.950 . S
C1680 C1681 1.327 . S
C1681 H1675 0.950 . S
C1681 C1680 1.327 . S
C1681 C1685 1.429 . S
C1682 C1665 1.574 . S
C1682 H1676 0.949 . S
C1682 C1686 1.368 . S
C1683 C1664 1.429 . S
C1683 C1677 1.429 . S
C1683 C1684 1.523 . S
C1684 C1665 1.368 . S
C1684 C1678 1.368 . S
C1684 C1683 1.523 . S
C1685 C1669 1.429 . S
C1685 C1681 1.429 . S
C1685 C1686 1.523 . S
C1686 C1670 1.368 . S
C1686 C1682 1.368 . S
C1686 C1685 1.523 . S
H1687 C1662 0.950 . S
H1688 C1664 0.950 . S
H1689 C1665 0.949 . S
H1690 C1667 0.950 . S
H1691 C1669 0.950 . S
C1692 C1693 1.349 . S
C1692 C1694 1.327 . S
C1692 H1717 0.950 . S
C1693 C1692 1.349 . S
C1693 C1709 1.349 . S
C1694 C1692 1.327 . S
C1694 C1713 1.429 . S
C1694 H1718 0.950 . S
C1695 C1712 1.574 . S
C1695 C1714 1.368 . S
C1695 H1719 0.949 . S
H1696 C1700 0.949 . S
C1697 C1698 1.349 . S
C1697 C1699 1.327 . S
C1697 H1720 0.950 . S
C1698 C1697 1.349 . S
C1698 C1710 1.349 . S
C1699 C1697 1.327 . S
C1699 C1715 1.429 . S
C1699 H1721 0.950 . S
C1700 H1696 0.949 . S
C1700 C1708 1.574 . S
C1700 C1716 1.368 . S
H1701 C1709 0.950 . S
H1702 C1707 0.950 . S
H1703 C1708 0.949 . S
H1704 C1710 0.950 . S
H1705 C1711 0.950 . S
H1706 C1712 0.949 . S
C1707 H1702 0.950 . S
C1707 C1709 1.327 . S
C1707 C1713 1.429 . S
C1708 C1700 1.574 . S
C1708 H1703 0.949 . S
C1708 C1714 1.368 . S
C1709 C1693 1.349 . S
C1709 H1701 0.950 . S
C1709 C1707 1.327 . S
C1710 C1698 1.349 . S
C1710 H1704 0.950 . S
C1710 C1711 1.327 . S
C1711 H1705 0.950 . S
C1711 C1710 1.327 . S
C1711 C1715 1.429 . S
C1712 C1695 1.574 . S
C1712 H1706 0.949 . S
C1712 C1716 1.368 . S
C1713 C1694 1.429 . S
C1713 C1707 1.429 . S
C1713 C1714 1.523 1_545 S
C1714 C1695 1.368 . S
C1714 C1708 1.368 . S
C1714 C1713 1.523 1_565 S
C1715 C1699 1.429 . S
C1715 C1711 1.429 . S
C1715 C1716 1.523 . S
C1716 C1700 1.368 . S
C1716 C1712 1.368 . S
C1716 C1715 1.523 . S
H1717 C1692 0.950 . S
H1718 C1694 0.950 . S
H1719 C1695 0.949 . S
H1720 C1697 0.950 . S
H1721 C1699 0.950 . S
C1722 C1723 1.349 . S
C1722 C1724 1.327 . S
C1722 H1747 0.950 . S
C1723 C1722 1.349 . S
C1723 C1739 1.349 . S
C1724 C1722 1.327 . S
C1724 C1743 1.429 1_655 S
C1724 H1748 0.950 . S
C1725 C1742 1.574 . S
C1725 C1744 1.368 . S
C1725 H1749 0.949 . S
H1726 C1730 0.949 . S
C1727 C1728 1.349 . S
C1727 C1729 1.327 . S
C1727 H1750 0.950 . S
C1728 C1727 1.349 . S
C1728 C1740 1.349 . S
C1729 C1727 1.327 . S
C1729 C1745 1.429 . S
C1729 H1751 0.950 . S
C1730 H1726 0.949 . S
C1730 C1738 1.574 . S
C1730 C1746 1.368 . S
H1731 C1739 0.950 . S
H1732 C1737 0.951 . S
H1733 C1738 0.949 . S
H1734 C1740 0.950 . S
H1735 C1741 0.950 . S
H1736 C1742 0.949 . S
C1737 H1732 0.951 . S
C1737 C1739 1.318 1_455 S
C1737 C1743 1.436 . S
C1738 C1730 1.574 . S
C1738 H1733 0.949 . S
C1738 C1744 1.368 . S
C1739 C1723 1.349 . S
C1739 H1731 0.950 . S
C1739 C1737 1.318 1_655 S
C1740 C1728 1.349 . S
C1740 H1734 0.950 . S
C1740 C1741 1.327 . S
C1741 H1735 0.950 . S
C1741 C1740 1.327 . S
C1741 C1745 1.429 . S
C1742 C1725 1.574 . S
C1742 H1736 0.949 . S
C1742 C1746 1.368 . S
C1743 C1724 1.429 1_455 S
C1743 C1737 1.436 . S
C1743 C1744 1.523 . S
C1744 C1725 1.368 . S
C1744 C1738 1.368 . S
C1744 C1743 1.523 . S
C1745 C1729 1.429 . S
C1745 C1741 1.429 . S
C1745 C1746 1.523 . S
C1746 C1730 1.368 . S
C1746 C1742 1.368 . S
C1746 C1745 1.523 . S
H1747 C1722 0.950 . S
H1748 C1724 0.950 . S
H1749 C1725 0.949 . S
H1750 C1727 0.950 . S
H1751 C1729 0.950 . S
C1752 C1753 1.349 . S
C1752 C1754 1.327 . S
C1752 H1777 0.950 . S
C1753 C1752 1.349 . S
C1753 C1769 1.349 . S
C1754 C1752 1.327 . S
C1754 C1773 1.429 . S
C1754 H1778 0.950 . S
C1755 C1772 1.574 . S
C1755 C1774 1.368 . S
C1755 H1779 0.949 . S
H1756 C1760 0.949 . S
C1757 C1758 1.349 . S
C1757 C1759 1.327 . S
C1757 H1780 0.950 . S
C1758 C1757 1.349 . S
C1758 C1770 1.349 . S
C1759 C1757 1.327 . S
C1759 C1775 1.429 . S
C1759 H1781 0.950 . S
C1760 H1756 0.949 . S
C1760 C1768 1.574 . S
C1760 C1776 1.368 . S
H1761 C1769 0.950 . S
H1762 C1767 0.950 . S
H1763 C1768 0.949 . S
H1764 C1770 0.950 . S
H1765 C1771 0.950 . S
H1766 C1772 0.949 . S
C1767 H1762 0.950 . S
C1767 C1769 1.327 . S
C1767 C1773 1.429 . S
C1768 C1760 1.574 . S
C1768 H1763 0.949 . S
C1768 C1774 1.368 . S
C1769 C1753 1.349 . S
C1769 H1761 0.950 . S
C1769 C1767 1.327 . S
C1770 C1758 1.349 . S
C1770 H1764 0.950 . S
C1770 C1771 1.327 . S
C1771 H1765 0.950 . S
C1771 C1770 1.327 . S
C1771 C1775 1.429 . S
C1772 C1755 1.574 . S
C1772 H1766 0.949 . S
C1772 C1776 1.368 . S
C1773 C1754 1.429 . S
C1773 C1767 1.429 . S
C1773 C1774 1.523 . S
C1774 C1755 1.368 . S
C1774 C1768 1.368 . S
C1774 C1773 1.523 . S
C1775 C1759 1.429 . S
C1775 C1771 1.429 . S
C1775 C1776 1.523 . S
C1776 C1760 1.368 . S
C1776 C1772 1.368 . S
C1776 C1775 1.523 . S
H1777 C1752 0.950 . S
H1778 C1754 0.950 . S
H1779 C1755 0.949 . S
H1780 C1757 0.950 . S
H1781 C1759 0.950 . S
C1782 C1783 1.349 . S
C1782 C1784 1.327 . S
C1782 H1807 0.950 . S
C1783 C1782 1.349 . S
C1783 C1799 1.349 . S
C1784 C1782 1.327 . S
C1784 C1803 1.429 . S
C1784 H1808 0.950 . S
C1785 C1802 1.574 . S
C1785 C1804 1.368 . S
C1785 H1809 0.949 . S
H1786 C1790 0.949 . S
C1787 C1788 1.349 . S
C1787 C1789 1.327 . S
C1787 H1810 0.950 . S
C1788 C1787 1.349 . S
C1788 C1800 1.349 . S
C1789 C1787 1.327 . S
C1789 C1805 1.429 . S
C1789 H1811 0.950 . S
C1790 H1786 0.949 . S
C1790 C1798 1.574 . S
C1790 C1806 1.368 . S
H1791 C1799 0.950 . S
H1792 C1797 0.950 . S
H1793 C1798 0.949 . S
H1794 C1800 0.950 . S
H1795 C1801 0.950 . S
H1796 C1802 0.949 . S
C1797 H1792 0.950 . S
C1797 C1799 1.327 . S
C1797 C1803 1.429 . S
C1798 C1790 1.574 . S
C1798 H1793 0.949 . S
C1798 C1804 1.368 . S
C1799 C1783 1.349 . S
C1799 H1791 0.950 . S
C1799 C1797 1.327 . S
C1800 C1788 1.349 . S
C1800 H1794 0.950 . S
C1800 C1801 1.327 . S
C1801 H1795 0.950 . S
C1801 C1800 1.327 . S
C1801 C1805 1.429 . S
C1802 C1785 1.574 . S
C1802 H1796 0.949 . S
C1802 C1806 1.368 . S
C1803 C1784 1.429 . S
C1803 C1797 1.429 . S
C1803 C1804 1.523 . S
C1804 C1785 1.368 . S
C1804 C1798 1.368 . S
C1804 C1803 1.523 . S
C1805 C1789 1.429 . S
C1805 C1801 1.429 . S
C1805 C1806 1.523 . S
C1806 C1790 1.368 . S
C1806 C1802 1.368 . S
C1806 C1805 1.523 . S
H1807 C1782 0.950 . S
H1808 C1784 0.950 . S
H1809 C1785 0.949 . S
H1810 C1787 0.950 . S
H1811 C1789 0.950 . S
C1812 C1813 1.349 . S
C1812 C1814 1.327 . S
C1812 H1837 0.950 . S
C1813 C1812 1.349 . S
C1813 C1829 1.349 . S
C1814 C1812 1.327 . S
C1814 C1833 1.429 . S
C1814 H1838 0.950 . S
C1815 C1832 1.574 . S
C1815 C1834 1.368 . S
C1815 H1839 0.949 . S
H1816 C1820 0.949 . S
C1817 C1818 1.349 . S
C1817 C1819 1.327 . S
C1817 H1840 0.950 . S
C1818 C1817 1.349 . S
C1818 C1830 1.349 . S
C1819 C1817 1.327 . S
C1819 C1835 1.429 . S
C1819 H1841 0.950 . S
C1820 H1816 0.949 . S
C1820 C1828 1.574 . S
C1820 C1836 1.368 . S
H1821 C1829 0.950 . S
H1822 C1827 0.950 . S
H1823 C1828 0.949 . S
H1824 C1830 0.950 . S
H1825 C1831 0.950 . S
H1826 C1832 0.949 . S
C1827 H1822 0.950 . S
C1827 C1829 1.327 . S
C1827 C1833 1.429 . S
C1828 C1820 1.574 . S
C1828 H1823 0.949 . S
C1828 C1834 1.368 . S
C1829 C1813 1.349 . S
C1829 H1821 0.950 . S
C1829 C1827 1.327 . S
C1830 C1818 1.349 . S
C1830 H1824 0.950 . S
C1830 C1831 1.327 . S
C1831 H1825 0.950 . S
C1831 C1830 1.327 . S
C1831 C1835 1.429 . S
C1832 C1815 1.574 . S
C1832 H1826 0.949 . S
C1832 C1836 1.368 . S
C1833 C1814 1.429 . S
C1833 C1827 1.429 . S
C1833 C1834 1.523 . S
C1834 C1815 1.368 . S
C1834 C1828 1.368 . S
C1834 C1833 1.523 . S
C1835 C1819 1.429 . S
C1835 C1831 1.429 . S
C1835 C1836 1.523 . S
C1836 C1820 1.368 . S
C1836 C1832 1.368 . S
C1836 C1835 1.523 . S
H1837 C1812 0.950 . S
H1838 C1814 0.950 . S
H1839 C1815 0.949 . S
H1840 C1817 0.950 . S
H1841 C1819 0.950 . S
C1842 C1843 1.349 . S
C1842 C1844 1.327 . S
C1842 H1867 0.950 . S
C1843 C1842 1.349 . S
C1843 C1859 1.349 . S
C1844 C1842 1.327 . S
C1844 C1863 1.429 . S
C1844 H1868 0.950 . S
C1845 C1862 1.574 . S
C1845 C1864 1.368 . S
C1845 H1869 0.949 . S
H1846 C1850 0.949 . S
C1847 C1848 1.349 . S
C1847 C1849 1.327 . S
C1847 H1870 0.950 . S
C1848 C1847 1.349 . S
C1848 C1860 1.349 . S
C1849 C1847 1.327 . S
C1849 C1865 1.429 . S
C1849 H1871 0.950 . S
C1850 H1846 0.949 . S
C1850 C1858 1.574 . S
C1850 C1866 1.368 . S
H1851 C1859 0.950 . S
H1852 C1857 0.950 . S
H1853 C1858 0.949 . S
H1854 C1860 0.950 . S
H1855 C1861 0.950 . S
H1856 C1862 0.949 . S
C1857 H1852 0.950 . S
C1857 C1859 1.327 . S
C1857 C1863 1.429 . S
C1858 C1850 1.574 . S
C1858 H1853 0.949 . S
C1858 C1864 1.368 . S
C1859 C1843 1.349 . S
C1859 H1851 0.950 . S
C1859 C1857 1.327 . S
C1860 C1848 1.349 . S
C1860 H1854 0.950 . S
C1860 C1861 1.327 . S
C1861 H1855 0.950 . S
C1861 C1860 1.327 . S
C1861 C1865 1.429 . S
C1862 C1845 1.574 . S
C1862 H1856 0.949 . S
C1862 C1866 1.368 . S
C1863 C1844 1.429 . S
C1863 C1857 1.429 . S
C1863 C1864 1.523 . S
C1864 C1845 1.368 . S
C1864 C1858 1.368 . S
C1864 C1863 1.523 . S
C1865 C1849 1.429 . S
C1865 C1861 1.429 . S
C1865 C1866 1.523 . S
C1866 C1850 1.368 . S
C1866 C1862 1.368 . S
C1866 C1865 1.523 . S
H1867 C1842 0.950 . S
H1868 C1844 0.950 . S
H1869 C1845 0.949 . S
H1870 C1847 0.950 . S
H1871 C1849 0.950 . S
C1872 C1873 1.349 . S
C1872 C1874 1.327 . S
C1872 H1897 0.950 . S
C1873 C1872 1.349 . S
C1873 C1889 1.349 . S
C1874 C1872 1.327 . S
C1874 C1893 1.429 . S
C1874 H1898 0.950 . S
C1875 C1892 1.574 . S
C1875 C1894 1.368 . S
C1875 H1899 0.962 . S
H1876 C1880 0.949 . S
C1877 C1878 1.349 . S
C1877 C1879 1.327 . S
C1877 H1900 0.950 . S
C1878 C1877 1.349 . S
C1878 C1890 1.349 . S
C1879 C1877 1.327 . S
C1879 C1895 1.429 . S
C1879 H1901 0.950 . S
C1880 H1876 0.949 . S
C1880 C1888 1.574 . S
C1880 C1896 1.368 . S
H1881 C1889 0.950 . S
H1882 C1887 0.950 . S
H1883 C1888 0.949 . S
H1884 C1890 0.950 . S
H1885 C1891 0.950 . S
H1886 C1892 0.949 . S
C1887 H1882 0.950 . S
C1887 C1889 1.327 . S
C1887 C1893 1.429 . S
C1888 C1880 1.574 . S
C1888 H1883 0.949 . S
C1888 C1894 1.368 . S
C1889 C1873 1.349 . S
C1889 H1881 0.950 . S
C1889 C1887 1.327 . S
C1890 C1878 1.349 . S
C1890 H1884 0.950 . S
C1890 C1891 1.327 . S
C1891 H1885 0.950 . S
C1891 C1890 1.327 . S
C1891 C1895 1.429 . S
C1892 C1875 1.574 . S
C1892 H1886 0.949 . S
C1892 C1896 1.368 . S
C1893 C1874 1.429 . S
C1893 C1887 1.429 . S
C1893 C1894 1.523 1_565 S
C1894 C1875 1.368 . S
C1894 C1888 1.368 . S
C1894 C1893 1.523 1_545 S
C1895 C1879 1.429 . S
C1895 C1891 1.429 . S
C1895 C1896 1.523 . S
C1896 C1880 1.368 . S
C1896 C1892 1.368 . S
C1896 C1895 1.523 . S
H1897 C1872 0.950 . S
H1898 C1874 0.950 . S
H1899 C1875 0.962 . S
H1900 C1877 0.950 . S
H1901 C1879 0.950 . S
C1902 C1903 1.349 . S
C1902 C1904 1.327 . S
C1902 H1927 0.950 . S
C1903 C1902 1.349 . S
C1903 C1919 1.349 . S
C1904 C1902 1.327 . S
C1904 C1923 1.429 1_455 S
C1904 H1928 0.950 1_455 S
C1905 C1922 1.574 . S
C1905 C1924 1.368 . S
C1905 H1929 0.949 . S
H1906 C1910 0.949 . S
C1907 C1908 1.349 . S
C1907 C1909 1.327 . S
C1907 H1930 0.950 . S
C1908 C1907 1.349 . S
C1908 C1920 1.349 . S
C1909 C1907 1.327 . S
C1909 C1925 1.429 . S
C1909 H1931 0.950 . S
C1910 H1906 0.949 . S
C1910 C1918 1.574 . S
C1910 C1926 1.368 . S
H1911 C1919 0.950 . S
H1912 C1917 0.950 . S
H1913 C1918 0.949 . S
H1914 C1920 0.950 . S
H1915 C1921 0.950 . S
H1916 C1922 0.949 . S
C1917 H1912 0.950 . S
C1917 C1919 1.327 . S
C1917 C1923 1.429 1_455 S
C1918 C1910 1.574 . S
C1918 H1913 0.949 . S
C1918 C1924 1.368 . S
C1919 C1903 1.349 . S
C1919 H1911 0.950 . S
C1919 C1917 1.327 . S
C1920 C1908 1.349 . S
C1920 H1914 0.950 . S
C1920 C1921 1.327 . S
C1921 H1915 0.950 . S
C1921 C1920 1.327 . S
C1921 C1925 1.429 . S
C1922 C1905 1.574 . S
C1922 H1916 0.949 . S
C1922 C1926 1.368 . S
C1923 C1904 1.429 1_655 S
C1923 C1917 1.429 1_655 S
C1923 C1924 1.523 . S
C1924 C1905 1.368 . S
C1924 C1918 1.368 . S
C1924 C1923 1.523 . S
C1925 C1909 1.429 . S
C1925 C1921 1.429 . S
C1925 C1926 1.523 . S
C1926 C1910 1.368 . S
C1926 C1922 1.368 . S
C1926 C1925 1.523 . S
H1927 C1902 0.950 . S
H1928 C1904 0.950 1_655 S
H1929 C1905 0.949 . S
H1930 C1907 0.950 . S
H1931 C1909 0.950 . S
C1932 C1933 1.349 . S
C1932 C1934 1.327 . S
C1932 H1957 0.950 . S
C1933 C1932 1.349 . S
C1933 C1949 1.349 . S
C1934 C1932 1.327 . S
C1934 C1953 1.429 . S
C1934 H1958 0.950 . S
C1935 C1952 1.574 . S
C1935 C1954 1.368 . S
C1935 H1959 0.949 . S
H1936 C1940 0.949 . S
C1937 C1938 1.349 . S
C1937 C1939 1.327 . S
C1937 H1960 0.950 . S
C1938 C1937 1.349 . S
C1938 C1950 1.349 . S
C1939 C1937 1.327 . S
C1939 C1955 1.429 . S
C1939 H1961 0.950 . S
C1940 H1936 0.949 . S
C1940 C1948 1.574 . S
C1940 C1956 1.368 . S
H1941 C1949 0.950 . S
H1942 C1947 0.950 . S
H1943 C1948 0.949 . S
H1944 C1950 0.950 . S
H1945 C1951 0.950 . S
H1946 C1952 0.949 . S
C1947 H1942 0.950 . S
C1947 C1949 1.327 . S
C1947 C1953 1.429 . S
C1948 C1940 1.574 . S
C1948 H1943 0.949 . S
C1948 C1954 1.368 . S
C1949 C1933 1.349 . S
C1949 H1941 0.950 . S
C1949 C1947 1.327 . S
C1950 C1938 1.349 . S
C1950 H1944 0.950 . S
C1950 C1951 1.327 . S
C1951 H1945 0.950 . S
C1951 C1950 1.327 . S
C1951 C1955 1.429 . S
C1952 C1935 1.574 . S
C1952 H1946 0.949 . S
C1952 C1956 1.368 . S
C1953 C1934 1.429 . S
C1953 C1947 1.429 . S
C1953 C1954 1.523 . S
C1954 C1935 1.368 . S
C1954 C1948 1.368 . S
C1954 C1953 1.523 . S
C1955 C1939 1.429 . S
C1955 C1951 1.429 . S
C1955 C1956 1.523 . S
C1956 C1940 1.368 . S
C1956 C1952 1.368 . S
C1956 C1955 1.523 . S
H1957 C1932 0.950 . S
H1958 C1934 0.950 . S
H1959 C1935 0.949 . S
H1960 C1937 0.950 . S
H1961 C1939 0.950 . S
C1962 C1963 1.349 . S
C1962 C1964 1.327 . S
C1962 H1987 0.950 . S
C1963 C1962 1.349 . S
C1963 C1979 1.349 . S
C1964 C1962 1.327 . S
C1964 C1983 1.429 . S
C1964 H1988 0.950 . S
C1965 C1982 1.574 . S
C1965 C1984 1.368 . S
C1965 H1989 0.949 . S
H1966 C1970 0.949 . S
C1967 C1968 1.349 . S
C1967 C1969 1.327 . S
C1967 H1990 0.950 . S
C1968 C1967 1.349 . S
C1968 C1980 1.349 . S
C1969 C1967 1.327 . S
C1969 C1985 1.429 . S
C1969 H1991 0.950 . S
C1970 H1966 0.949 . S
C1970 C1978 1.574 . S
C1970 C1986 1.368 . S
H1971 C1979 0.950 . S
H1972 C1977 0.950 . S
H1973 C1978 0.949 . S
H1974 C1980 0.950 . S
H1975 C1981 0.950 . S
H1976 C1982 0.949 . S
C1977 H1972 0.950 . S
C1977 C1979 1.327 . S
C1977 C1983 1.429 . S
C1978 C1970 1.574 . S
C1978 H1973 0.949 . S
C1978 C1984 1.368 . S
C1979 C1963 1.349 . S
C1979 H1971 0.950 . S
C1979 C1977 1.327 . S
C1980 C1968 1.349 . S
C1980 H1974 0.950 . S
C1980 C1981 1.327 . S
C1981 H1975 0.950 . S
C1981 C1980 1.327 . S
C1981 C1985 1.429 . S
C1982 C1965 1.574 . S
C1982 H1976 0.949 . S
C1982 C1986 1.368 . S
C1983 C1964 1.429 . S
C1983 C1977 1.429 . S
C1983 C1984 1.523 1_455 S
C1984 C1965 1.368 . S
C1984 C1978 1.368 . S
C1984 C1983 1.523 1_655 S
C1985 C1969 1.429 . S
C1985 C1981 1.429 . S
C1985 C1986 1.523 . S
C1986 C1970 1.368 . S
C1986 C1982 1.368 . S
C1986 C1985 1.523 . S
H1987 C1962 0.950 . S
H1988 C1964 0.950 . S
H1989 C1965 0.949 . S
H1990 C1967 0.950 . S
H1991 C1969 0.950 . S
C1992 C1993 1.349 . S
C1992 C1994 1.327 . S
C1992 H2017 0.950 . S
C1993 C1992 1.349 . S
C1993 C2009 1.349 . S
C1994 C1992 1.327 . S
C1994 C2013 1.429 . S
C1994 H2018 0.950 . S
C1995 C2012 1.574 . S
C1995 C2014 1.368 . S
C1995 H2019 0.949 . S
H1996 C2000 0.949 . S
C1997 C1998 1.349 . S
C1997 C1999 1.327 . S
C1997 H2020 0.950 . S
C1998 C1997 1.349 . S
C1998 C2010 1.349 . S
C1999 C1997 1.327 . S
C1999 C2015 1.429 . S
C1999 H2021 0.950 . S
C2000 H1996 0.949 . S
C2000 C2008 1.574 . S
C2000 C2016 1.368 . S
H2001 C2009 0.950 . S
H2002 C2007 0.950 . S
H2003 C2008 0.949 . S
H2004 C2010 0.950 . S
H2005 C2011 0.950 . S
H2006 C2012 0.949 . S
C2007 H2002 0.950 . S
C2007 C2009 1.327 . S
C2007 C2013 1.429 . S
C2008 C2000 1.574 . S
C2008 H2003 0.949 . S
C2008 C2014 1.368 . S
C2009 C1993 1.349 . S
C2009 H2001 0.950 . S
C2009 C2007 1.327 . S
C2010 C1998 1.349 . S
C2010 H2004 0.950 . S
C2010 C2011 1.327 . S
C2011 H2005 0.950 . S
C2011 C2010 1.327 . S
C2011 C2015 1.429 . S
C2012 C1995 1.574 . S
C2012 H2006 0.949 . S
C2012 C2016 1.368 . S
C2013 C1994 1.429 . S
C2013 C2007 1.429 . S
C2013 C2014 1.523 . S
C2014 C1995 1.368 . S
C2014 C2008 1.368 . S
C2014 C2013 1.523 . S
C2015 C1999 1.429 . S
C2015 C2011 1.429 . S
C2015 C2016 1.523 . S
C2016 C2000 1.368 . S
C2016 C2012 1.368 . S
C2016 C2015 1.523 . S
H2017 C1992 0.950 . S
H2018 C1994 0.950 . S
H2019 C1995 0.949 . S
H2020 C1997 0.950 . S
H2021 C1999 0.950 . S
C2022 C2023 1.349 . S
C2022 C2024 1.327 . S
C2022 H2047 0.950 . S
C2023 C2022 1.349 . S
C2023 C2039 1.349 . S
C2024 C2022 1.327 . S
C2024 C2043 1.429 . S
C2024 H2048 0.950 . S
C2025 C2042 1.574 . S
C2025 C2044 1.368 . S
C2025 H2049 0.923 1_545 S
H2026 C2030 0.949 . S
C2027 C2028 1.349 . S
C2027 C2029 1.327 . S
C2027 H2050 0.950 . S
C2028 C2027 1.349 . S
C2028 C2040 1.349 . S
C2029 C2027 1.327 . S
C2029 C2045 1.429 . S
C2029 H2051 0.950 . S
C2030 H2026 0.949 . S
C2030 C2038 1.574 . S
C2030 C2046 1.368 . S
H2031 C2039 0.950 . S
H2032 C2037 0.950 . S
H2033 C2038 0.949 . S
H2034 C2040 0.950 . S
H2035 C2041 0.950 . S
H2036 C2042 0.949 . S
C2037 H2032 0.950 . S
C2037 C2039 1.327 . S
C2037 C2043 1.429 . S
C2038 C2030 1.574 . S
C2038 H2033 0.949 . S
C2038 C2044 1.368 . S
C2039 C2023 1.349 . S
C2039 H2031 0.950 . S
C2039 C2037 1.327 . S
C2040 C2028 1.349 . S
C2040 H2034 0.950 . S
C2040 C2041 1.327 . S
C2041 H2035 0.950 . S
C2041 C2040 1.327 . S
C2041 C2045 1.429 . S
C2042 C2025 1.574 . S
C2042 H2036 0.949 . S
C2042 C2046 1.368 . S
C2043 C2024 1.429 . S
C2043 C2037 1.429 . S
C2043 C2044 1.523 1_565 S
C2044 C2025 1.368 . S
C2044 C2038 1.368 . S
C2044 C2043 1.523 1_545 S
C2045 C2029 1.429 . S
C2045 C2041 1.429 . S
C2045 C2046 1.523 . S
C2046 C2030 1.368 . S
C2046 C2042 1.368 . S
C2046 C2045 1.523 . S
H2047 C2022 0.950 . S
H2048 C2024 0.950 . S
H2049 C2025 0.923 1_565 S
H2050 C2027 0.950 . S
H2051 C2029 0.950 . S
C2052 C2053 1.349 . S
C2052 C2054 1.327 . S
C2052 H2077 0.950 . S
C2053 C2052 1.349 . S
C2053 C2069 1.349 . S
C2054 C2052 1.327 . S
C2054 C2073 1.429 . S
C2054 H2078 0.950 . S
C2055 C2072 1.574 . S
C2055 C2074 1.368 . S
C2055 H2079 0.949 . S
H2056 C2060 0.949 . S
C2057 C2058 1.349 . S
C2057 C2059 1.327 . S
C2057 H2080 0.950 . S
C2058 C2057 1.349 . S
C2058 C2070 1.349 . S
C2059 C2057 1.327 . S
C2059 C2075 1.429 . S
C2059 H2081 0.950 . S
C2060 H2056 0.949 . S
C2060 C2068 1.574 . S
C2060 C2076 1.368 . S
H2061 C2069 0.950 . S
H2062 C2067 0.950 . S
H2063 C2068 0.949 . S
H2064 C2070 0.950 . S
H2065 C2071 0.950 . S
H2066 C2072 0.949 . S
C2067 H2062 0.950 . S
C2067 C2069 1.327 . S
C2067 C2073 1.429 . S
C2068 C2060 1.574 . S
C2068 H2063 0.949 . S
C2068 C2074 1.368 . S
C2069 C2053 1.349 . S
C2069 H2061 0.950 . S
C2069 C2067 1.327 . S
C2070 C2058 1.349 . S
C2070 H2064 0.950 . S
C2070 C2071 1.327 . S
C2071 H2065 0.950 . S
C2071 C2070 1.327 . S
C2071 C2075 1.429 . S
C2072 C2055 1.574 . S
C2072 H2066 0.949 . S
C2072 C2076 1.368 . S
C2073 C2054 1.429 . S
C2073 C2067 1.429 . S
C2073 C2074 1.523 . S
C2074 C2055 1.368 . S
C2074 C2068 1.368 . S
C2074 C2073 1.523 . S
C2075 C2059 1.429 . S
C2075 C2071 1.429 . S
C2075 C2076 1.523 . S
C2076 C2060 1.368 . S
C2076 C2072 1.368 . S
C2076 C2075 1.523 . S
H2077 C2052 0.950 . S
H2078 C2054 0.950 . S
H2079 C2055 0.949 . S
H2080 C2057 0.950 . S
H2081 C2059 0.950 . S
C2082 C2083 1.349 . S
C2082 C2084 1.327 . S
C2082 H2107 0.950 . S
C2083 C2082 1.349 . S
C2083 C2099 1.349 . S
C2084 C2082 1.327 . S
C2084 C2103 1.429 . S
C2084 H2108 0.950 . S
C2085 C2102 1.574 . S
C2085 C2104 1.368 . S
C2085 H2109 0.949 . S
H2086 C2090 0.949 . S
C2087 C2088 1.349 . S
C2087 C2089 1.327 . S
C2087 H2110 0.950 . S
C2088 C2087 1.349 . S
C2088 C2100 1.349 . S
C2089 C2087 1.327 . S
C2089 C2105 1.429 . S
C2089 H2111 0.950 . S
C2090 H2086 0.949 . S
C2090 C2098 1.574 . S
C2090 C2106 1.368 . S
H2091 C2099 0.950 . S
H2092 C2097 0.950 . S
H2093 C2098 0.949 . S
H2094 C2100 0.950 . S
H2095 C2101 0.950 . S
H2096 C2102 0.949 . S
C2097 H2092 0.950 . S
C2097 C2099 1.327 . S
C2097 C2103 1.429 . S
C2098 C2090 1.574 . S
C2098 H2093 0.949 . S
C2098 C2104 1.368 . S
C2099 C2083 1.349 . S
C2099 H2091 0.950 . S
C2099 C2097 1.327 . S
C2100 C2088 1.349 . S
C2100 H2094 0.950 . S
C2100 C2101 1.327 . S
C2101 H2095 0.950 . S
C2101 C2100 1.327 . S
C2101 C2105 1.429 . S
C2102 C2085 1.574 . S
C2102 H2096 0.949 . S
C2102 C2106 1.368 . S
C2103 C2084 1.429 . S
C2103 C2097 1.429 . S
C2103 C2104 1.523 . S
C2104 C2085 1.368 . S
C2104 C2098 1.368 . S
C2104 C2103 1.523 . S
C2105 C2089 1.429 . S
C2105 C2101 1.429 . S
C2105 C2106 1.523 . S
C2106 C2090 1.368 . S
C2106 C2102 1.368 . S
C2106 C2105 1.523 . S
H2107 C2082 0.950 . S
H2108 C2084 0.950 . S
H2109 C2085 0.949 . S
H2110 C2087 0.950 . S
H2111 C2089 0.950 . S
C2112 C2113 1.349 . S
C2112 C2114 1.327 . S
C2112 H2137 0.950 . S
C2113 C2112 1.349 . S
C2113 C2129 1.349 . S
C2114 C2112 1.327 . S
C2114 C2133 1.429 . S
C2114 H2138 0.950 . S
C2115 C2132 1.574 . S
C2115 C2134 1.368 . S
C2115 H2139 0.949 . S
H2116 C2120 0.949 . S
C2117 C2118 1.349 . S
C2117 C2119 1.327 . S
C2117 H2140 0.950 . S
C2118 C2117 1.349 . S
C2118 C2130 1.349 . S
C2119 C2117 1.327 . S
C2119 C2135 1.429 . S
C2119 H2141 0.950 . S
C2120 H2116 0.949 . S
C2120 C2128 1.574 . S
C2120 C2136 1.368 . S
H2121 C2129 0.950 . S
H2122 C2127 0.950 . S
H2123 C2128 0.949 . S
H2124 C2130 0.950 . S
H2125 C2131 0.950 . S
H2126 C2132 0.949 . S
C2127 H2122 0.950 . S
C2127 C2129 1.327 . S
C2127 C2133 1.429 . S
C2128 C2120 1.574 . S
C2128 H2123 0.949 . S
C2128 C2134 1.368 . S
C2129 C2113 1.349 . S
C2129 H2121 0.950 . S
C2129 C2127 1.327 . S
C2130 C2118 1.349 . S
C2130 H2124 0.950 . S
C2130 C2131 1.327 . S
C2131 H2125 0.950 . S
C2131 C2130 1.327 . S
C2131 C2135 1.429 . S
C2132 C2115 1.574 . S
C2132 H2126 0.949 . S
C2132 C2136 1.368 . S
C2133 C2114 1.429 . S
C2133 C2127 1.429 . S
C2133 C2134 1.523 . S
C2134 C2115 1.368 . S
C2134 C2128 1.368 . S
C2134 C2133 1.523 . S
C2135 C2119 1.429 . S
C2135 C2131 1.429 . S
C2135 C2136 1.523 . S
C2136 C2120 1.368 . S
C2136 C2132 1.368 . S
C2136 C2135 1.523 . S
H2137 C2112 0.950 . S
H2138 C2114 0.950 . S
H2139 C2115 0.949 . S
H2140 C2117 0.950 . S
H2141 C2119 0.950 . S
C2142 C2143 1.349 . S
C2142 C2144 1.327 . S
C2142 H2167 0.950 . S
C2143 C2142 1.349 . S
C2143 C2159 1.349 . S
C2144 C2142 1.327 . S
C2144 C2163 1.429 . S
C2144 H2168 0.950 . S
C2145 C2162 1.574 . S
C2145 C2164 1.368 . S
C2145 H2169 0.949 . S
H2146 C2150 0.949 . S
C2147 C2148 1.349 1_545 S
C2147 C2149 1.327 1_545 S
C2147 H2170 0.950 . S
C2148 C2147 1.349 1_565 S
C2148 C2160 1.349 . S
C2149 C2147 1.327 1_565 S
C2149 C2165 1.429 . S
C2149 H2171 0.950 1_565 S
C2150 H2146 0.949 . S
C2150 C2158 1.574 . S
C2150 C2166 1.368 . S
H2151 C2159 0.950 . S
H2152 C2157 0.950 . S
H2153 C2158 0.949 . S
H2154 C2160 0.950 . S
H2155 C2161 0.950 . S
H2156 C2162 0.949 1_545 S
C2157 H2152 0.950 . S
C2157 C2159 1.327 . S
C2157 C2163 1.429 . S
C2158 C2150 1.574 . S
C2158 H2153 0.949 . S
C2158 C2164 1.368 . S
C2159 C2143 1.349 . S
C2159 H2151 0.950 . S
C2159 C2157 1.327 . S
C2160 C2148 1.349 . S
C2160 H2154 0.950 . S
C2160 C2161 1.327 . S
C2161 H2155 0.950 . S
C2161 C2160 1.327 . S
C2161 C2165 1.429 . S
C2162 C2145 1.574 . S
C2162 H2156 0.949 1_565 S
C2162 C2166 1.368 . S
C2163 C2144 1.429 . S
C2163 C2157 1.429 . S
C2163 C2164 1.523 . S
C2164 C2145 1.368 . S
C2164 C2158 1.368 . S
C2164 C2163 1.523 . S
C2165 C2149 1.429 . S
C2165 C2161 1.429 . S
C2165 C2166 1.523 . S
C2166 C2150 1.368 . S
C2166 C2162 1.368 . S
C2166 C2165 1.523 . S
H2167 C2142 0.950 . S
H2168 C2144 0.950 . S
H2169 C2145 0.949 . S
H2170 C2147 0.950 . S
H2171 C2149 0.950 1_545 S
C2172 C2173 1.349 . S
C2172 C2174 1.327 . S
C2172 H2197 0.950 . S
C2173 C2172 1.349 . S
C2173 C2189 1.349 1_455 S
C2174 C2172 1.327 . S
C2174 C2193 1.429 . S
C2174 H2198 0.950 . S
C2175 C2192 1.574 . S
C2175 C2194 1.368 1_655 S
C2175 H2199 0.949 . S
H2176 C2180 0.949 . S
C2177 C2178 1.349 1_655 S
C2177 C2179 1.327 . S
C2177 H2200 0.950 . S
C2178 C2177 1.349 1_455 S
C2178 C2190 1.349 . S
C2179 C2177 1.327 . S
C2179 C2195 1.429 1_655 S
C2179 H2201 0.950 . S
C2180 H2176 0.949 . S
C2180 C2188 1.574 . S
C2180 C2196 1.368 . S
H2181 C2189 0.950 . S
H2182 C2187 0.950 . S
H2183 C2188 0.949 . S
H2184 C2190 0.950 . S
H2185 C2191 0.950 . S
H2186 C2192 0.949 . S
C2187 H2182 0.950 . S
C2187 C2189 1.327 . S
C2187 C2193 1.429 1_655 S
C2188 C2180 1.574 . S
C2188 H2183 0.949 . S
C2188 C2194 1.368 . S
C2189 C2173 1.349 1_655 S
C2189 H2181 0.950 . S
C2189 C2187 1.327 . S
C2190 C2178 1.349 . S
C2190 H2184 0.950 . S
C2190 C2191 1.327 . S
C2191 H2185 0.950 . S
C2191 C2190 1.327 . S
C2191 C2195 1.429 . S
C2192 C2175 1.574 . S
C2192 H2186 0.949 . S
C2192 C2196 1.368 1_655 S
C2193 C2174 1.429 . S
C2193 C2187 1.429 1_455 S
C2193 C2194 1.523 . S
C2194 C2175 1.368 1_455 S
C2194 C2188 1.368 . S
C2194 C2193 1.523 . S
C2195 C2179 1.429 1_455 S
C2195 C2191 1.429 . S
C2195 C2196 1.523 . S
C2196 C2180 1.368 . S
C2196 C2192 1.368 1_455 S
C2196 C2195 1.523 . S
H2197 C2172 0.950 . S
H2198 C2174 0.950 . S
H2199 C2175 0.949 . S
H2200 C2177 0.950 . S
H2201 C2179 0.950 . S
C2202 C2203 1.349 . S
C2202 C2204 1.327 . S
C2202 H2227 0.950 . S
C2203 C2202 1.349 . S
C2203 C2219 1.349 . S
C2204 C2202 1.327 . S
C2204 C2223 1.429 . S
C2204 H2228 0.950 . S
C2205 C2222 1.574 . S
C2205 C2224 1.368 . S
C2205 H2229 0.949 . S
H2206 C2210 0.949 . S
C2207 C2208 1.349 . S
C2207 C2209 1.327 . S
C2207 H2230 0.950 . S
C2208 C2207 1.349 . S
C2208 C2220 1.349 . S
C2209 C2207 1.327 . S
C2209 C2225 1.429 . S
C2209 H2231 0.950 . S
C2210 H2206 0.949 . S
C2210 C2218 1.574 . S
C2210 C2226 1.368 . S
H2211 C2219 0.950 . S
H2212 C2217 0.950 . S
H2213 C2218 0.949 . S
H2214 C2220 0.950 . S
H2215 C2221 0.950 . S
H2216 C2222 0.949 . S
C2217 H2212 0.950 . S
C2217 C2219 1.327 . S
C2217 C2223 1.429 . S
C2218 C2210 1.574 . S
C2218 H2213 0.949 . S
C2218 C2224 1.368 . S
C2219 C2203 1.349 . S
C2219 H2211 0.950 . S
C2219 C2217 1.327 . S
C2220 C2208 1.349 . S
C2220 H2214 0.950 . S
C2220 C2221 1.327 . S
C2221 H2215 0.950 . S
C2221 C2220 1.327 . S
C2221 C2225 1.429 . S
C2222 C2205 1.574 . S
C2222 H2216 0.949 . S
C2222 C2226 1.368 . S
C2223 C2204 1.429 . S
C2223 C2217 1.429 . S
C2223 C2224 1.523 . S
C2224 C2205 1.368 . S
C2224 C2218 1.368 . S
C2224 C2223 1.523 . S
C2225 C2209 1.429 . S
C2225 C2221 1.429 . S
C2225 C2226 1.523 . S
C2226 C2210 1.368 . S
C2226 C2222 1.368 . S
C2226 C2225 1.523 . S
H2227 C2202 0.950 . S
H2228 C2204 0.950 . S
H2229 C2205 0.949 . S
H2230 C2207 0.950 . S
H2231 C2209 0.950 . S
C2232 C2233 1.349 . S
C2232 C2234 1.327 . S
C2232 H2257 0.950 . S
C2233 C2232 1.349 . S
C2233 C2249 1.349 . S
C2234 C2232 1.327 . S
C2234 C2253 1.429 . S
C2234 H2258 0.950 . S
C2235 C2252 1.574 . S
C2235 C2254 1.368 . S
C2235 H2259 0.949 . S
H2236 C2240 0.949 . S
C2237 C2238 1.349 . S
C2237 C2239 1.327 . S
C2237 H2260 0.950 . S
C2238 C2237 1.349 . S
C2238 C2250 1.349 . S
C2239 C2237 1.327 . S
C2239 C2255 1.429 . S
C2239 H2261 0.950 . S
C2240 H2236 0.949 . S
C2240 C2248 1.574 . S
C2240 C2256 1.368 . S
H2241 C2249 0.950 . S
H2242 C2247 0.950 . S
H2243 C2248 0.949 . S
H2244 C2250 0.950 . S
H2245 C2251 0.950 . S
H2246 C2252 0.949 . S
C2247 H2242 0.950 . S
C2247 C2249 1.327 . S
C2247 C2253 1.429 . S
C2248 C2240 1.574 . S
C2248 H2243 0.949 . S
C2248 C2254 1.368 . S
C2249 C2233 1.349 . S
C2249 H2241 0.950 . S
C2249 C2247 1.327 . S
C2250 C2238 1.349 . S
C2250 H2244 0.950 . S
C2250 C2251 1.327 . S
C2251 H2245 0.950 . S
C2251 C2250 1.327 . S
C2251 C2255 1.429 . S
C2252 C2235 1.574 . S
C2252 H2246 0.949 . S
C2252 C2256 1.368 . S
C2253 C2234 1.429 . S
C2253 C2247 1.429 . S
C2253 C2254 1.523 . S
C2254 C2235 1.368 . S
C2254 C2248 1.368 . S
C2254 C2253 1.523 . S
C2255 C2239 1.429 . S
C2255 C2251 1.429 . S
C2255 C2256 1.523 . S
C2256 C2240 1.368 . S
C2256 C2252 1.368 . S
C2256 C2255 1.523 . S
H2257 C2232 0.950 . S
H2258 C2234 0.950 . S
H2259 C2235 0.949 . S
H2260 C2237 0.950 . S
H2261 C2239 0.950 . S
C2262 C2263 1.349 . S
C2262 C2264 1.327 . S
C2262 H2287 0.950 . S
C2263 C2262 1.349 . S
C2263 C2279 1.349 . S
C2264 C2262 1.327 . S
C2264 C2283 1.429 . S
C2264 H2288 0.950 . S
C2265 C2282 1.574 . S
C2265 C2284 1.368 . S
C2265 H2289 0.949 . S
H2266 C2270 0.949 . S
C2267 C2268 1.349 . S
C2267 C2269 1.327 . S
C2267 H2290 0.950 . S
C2268 C2267 1.349 . S
C2268 C2280 1.349 . S
C2269 C2267 1.327 . S
C2269 C2285 1.429 . S
C2269 H2291 0.950 . S
C2270 H2266 0.949 . S
C2270 C2278 1.574 . S
C2270 C2286 1.368 . S
H2271 C2279 0.950 . S
H2272 C2277 0.950 . S
H2273 C2278 0.949 . S
H2274 C2280 0.950 . S
H2275 C2281 0.950 . S
H2276 C2282 0.949 . S
C2277 H2272 0.950 . S
C2277 C2279 1.327 . S
C2277 C2283 1.429 . S
C2278 C2270 1.574 . S
C2278 H2273 0.949 . S
C2278 C2284 1.368 . S
C2279 C2263 1.349 . S
C2279 H2271 0.950 . S
C2279 C2277 1.327 . S
C2280 C2268 1.349 . S
C2280 H2274 0.950 . S
C2280 C2281 1.327 . S
C2281 H2275 0.950 . S
C2281 C2280 1.327 . S
C2281 C2285 1.429 . S
C2282 C2265 1.574 . S
C2282 H2276 0.949 . S
C2282 C2286 1.368 . S
C2283 C2264 1.429 . S
C2283 C2277 1.429 . S
C2283 C2284 1.523 . S
C2284 C2265 1.368 . S
C2284 C2278 1.368 . S
C2284 C2283 1.523 . S
C2285 C2269 1.429 . S
C2285 C2281 1.429 . S
C2285 C2286 1.523 . S
C2286 C2270 1.368 . S
C2286 C2282 1.368 . S
C2286 C2285 1.523 . S
H2287 C2262 0.950 . S
H2288 C2264 0.950 . S
H2289 C2265 0.949 . S
H2290 C2267 0.950 . S
H2291 C2269 0.950 . S
C2292 C2293 1.349 . S
C2292 C2294 1.327 . S
C2292 H2317 0.950 . S
C2293 C2292 1.349 . S
C2293 C2309 1.349 . S
C2294 C2292 1.327 . S
C2294 C2313 1.429 . S
C2294 H2318 0.950 . S
C2295 C2312 1.574 . S
C2295 C2314 1.368 . S
C2295 H2319 0.949 . S
H2296 C2300 0.949 . S
C2297 C2298 1.349 . S
C2297 C2299 1.327 . S
C2297 H2320 0.950 . S
C2298 C2297 1.349 . S
C2298 C2310 1.349 . S
C2299 C2297 1.327 . S
C2299 C2315 1.429 . S
C2299 H2321 0.950 . S
C2300 H2296 0.949 . S
C2300 C2308 1.574 . S
C2300 C2316 1.368 . S
H2301 C2309 0.950 . S
H2302 C2307 0.950 . S
H2303 C2308 0.949 . S
H2304 C2310 0.950 . S
H2305 C2311 0.950 . S
H2306 C2312 0.949 . S
C2307 H2302 0.950 . S
C2307 C2309 1.327 . S
C2307 C2313 1.429 . S
C2308 C2300 1.574 . S
C2308 H2303 0.949 . S
C2308 C2314 1.368 . S
C2309 C2293 1.349 . S
C2309 H2301 0.950 . S
C2309 C2307 1.327 . S
C2310 C2298 1.349 . S
C2310 H2304 0.950 . S
C2310 C2311 1.327 . S
C2311 H2305 0.950 . S
C2311 C2310 1.327 . S
C2311 C2315 1.429 . S
C2312 C2295 1.574 . S
C2312 H2306 0.949 . S
C2312 C2316 1.368 . S
C2313 C2294 1.429 . S
C2313 C2307 1.429 . S
C2313 C2314 1.523 . S
C2314 C2295 1.368 . S
C2314 C2308 1.368 . S
C2314 C2313 1.523 . S
C2315 C2299 1.429 . S
C2315 C2311 1.429 . S
C2315 C2316 1.523 . S
C2316 C2300 1.368 . S
C2316 C2312 1.368 . S
C2316 C2315 1.523 . S
H2317 C2292 0.950 . S
H2318 C2294 0.950 . S
H2319 C2295 0.949 . S
H2320 C2297 0.950 . S
H2321 C2299 0.950 . S
C2322 C2323 1.349 . S
C2322 C2324 1.327 . S
C2322 H2347 0.950 . S
C2323 C2322 1.349 . S
C2323 C2339 1.349 . S
C2324 C2322 1.327 . S
C2324 C2343 1.429 . S
C2324 H2348 0.950 . S
C2325 C2342 1.574 . S
C2325 C2344 1.368 . S
C2325 H2349 0.949 . S
H2326 C2330 0.949 . S
C2327 C2328 1.349 . S
C2327 C2329 1.327 . S
C2327 H2350 0.950 . S
C2328 C2327 1.349 . S
C2328 C2340 1.349 . S
C2329 C2327 1.327 . S
C2329 C2345 1.429 . S
C2329 H2351 0.950 . S
C2330 H2326 0.949 . S
C2330 C2338 1.574 . S
C2330 C2346 1.368 . S
H2331 C2339 0.950 . S
H2332 C2337 0.950 . S
H2333 C2338 0.949 . S
H2334 C2340 0.950 . S
H2335 C2341 0.950 . S
H2336 C2342 0.949 . S
C2337 H2332 0.950 . S
C2337 C2339 1.327 . S
C2337 C2343 1.429 . S
C2338 C2330 1.574 . S
C2338 H2333 0.949 . S
C2338 C2344 1.368 . S
C2339 C2323 1.349 . S
C2339 H2331 0.950 . S
C2339 C2337 1.327 . S
C2340 C2328 1.349 . S
C2340 H2334 0.950 . S
C2340 C2341 1.327 . S
C2341 H2335 0.950 . S
C2341 C2340 1.327 . S
C2341 C2345 1.429 . S
C2342 C2325 1.574 . S
C2342 H2336 0.949 . S
C2342 C2346 1.368 . S
C2343 C2324 1.429 . S
C2343 C2337 1.429 . S
C2343 C2344 1.523 . S
C2344 C2325 1.368 . S
C2344 C2338 1.368 . S
C2344 C2343 1.523 . S
C2345 C2329 1.429 . S
C2345 C2341 1.429 . S
C2345 C2346 1.523 . S
C2346 C2330 1.368 . S
C2346 C2342 1.368 . S
C2346 C2345 1.523 . S
H2347 C2322 0.950 . S
H2348 C2324 0.950 . S
H2349 C2325 0.949 . S
H2350 C2327 0.950 . S
H2351 C2329 0.950 . S
C2352 C2353 1.349 . S
C2352 C2354 1.327 . S
C2352 H2377 0.950 . S
C2353 C2352 1.349 . S
C2353 C2369 1.349 . S
C2354 C2352 1.327 . S
C2354 C2373 1.429 . S
C2354 H2378 0.950 . S
C2355 C2372 1.574 . S
C2355 C2374 1.368 . S
C2355 H2379 0.949 . S
H2356 C2360 0.949 . S
C2357 C2358 1.349 . S
C2357 C2359 1.327 . S
C2357 H2380 0.950 . S
C2358 C2357 1.349 . S
C2358 C2370 1.349 . S
C2359 C2357 1.327 . S
C2359 C2375 1.429 . S
C2359 H2381 0.950 . S
C2360 H2356 0.949 . S
C2360 C2368 1.574 . S
C2360 C2376 1.368 . S
H2361 C2369 0.950 . S
H2362 C2367 0.950 . S
H2363 C2368 0.949 . S
H2364 C2370 0.950 . S
H2365 C2371 0.950 . S
H2366 C2372 0.949 . S
C2367 H2362 0.950 . S
C2367 C2369 1.327 . S
C2367 C2373 1.429 . S
C2368 C2360 1.574 . S
C2368 H2363 0.949 . S
C2368 C2374 1.368 . S
C2369 C2353 1.349 . S
C2369 H2361 0.950 . S
C2369 C2367 1.327 . S
C2370 C2358 1.349 . S
C2370 H2364 0.950 . S
C2370 C2371 1.327 . S
C2371 H2365 0.950 . S
C2371 C2370 1.327 . S
C2371 C2375 1.429 . S
C2372 C2355 1.574 . S
C2372 H2366 0.949 . S
C2372 C2376 1.368 . S
C2373 C2354 1.429 . S
C2373 C2367 1.429 . S
C2373 C2374 1.523 . S
C2374 C2355 1.368 . S
C2374 C2368 1.368 . S
C2374 C2373 1.523 . S
C2375 C2359 1.429 . S
C2375 C2371 1.429 . S
C2375 C2376 1.523 . S
C2376 C2360 1.368 . S
C2376 C2372 1.368 . S
C2376 C2375 1.523 . S
H2377 C2352 0.950 . S
H2378 C2354 0.950 . S
H2379 C2355 0.949 . S
H2380 C2357 0.950 . S
H2381 C2359 0.950 . S
C2382 C2383 1.349 . S
C2382 C2384 1.327 . S
C2382 H2407 0.950 . S
C2383 C2382 1.349 . S
C2383 C2399 1.349 . S
C2384 C2382 1.327 . S
C2384 C2403 1.429 . S
C2384 H2408 0.950 . S
C2385 C2402 1.574 . S
C2385 C2404 1.368 . S
C2385 H2409 0.949 . S
H2386 C2390 0.949 . S
C2387 C2388 1.349 . S
C2387 C2389 1.327 . S
C2387 H2410 0.950 . S
C2388 C2387 1.349 . S
C2388 C2400 1.349 . S
C2389 C2387 1.327 . S
C2389 C2405 1.429 . S
C2389 H2411 0.950 . S
C2390 H2386 0.949 . S
C2390 C2398 1.574 . S
C2390 C2406 1.368 . S
H2391 C2399 0.950 . S
H2392 C2397 0.950 . S
H2393 C2398 0.949 . S
H2394 C2400 0.950 . S
H2395 C2401 0.950 . S
H2396 C2402 0.949 . S
C2397 H2392 0.950 . S
C2397 C2399 1.327 . S
C2397 C2403 1.429 . S
C2398 C2390 1.574 . S
C2398 H2393 0.949 . S
C2398 C2404 1.368 . S
C2399 C2383 1.349 . S
C2399 H2391 0.950 . S
C2399 C2397 1.327 . S
C2400 C2388 1.349 . S
C2400 H2394 0.950 . S
C2400 C2401 1.327 . S
C2401 H2395 0.950 . S
C2401 C2400 1.327 . S
C2401 C2405 1.429 . S
C2402 C2385 1.574 . S
C2402 H2396 0.949 . S
C2402 C2406 1.368 . S
C2403 C2384 1.429 . S
C2403 C2397 1.429 . S
C2403 C2404 1.523 . S
C2404 C2385 1.368 . S
C2404 C2398 1.368 . S
C2404 C2403 1.523 . S
C2405 C2389 1.429 . S
C2405 C2401 1.429 . S
C2405 C2406 1.523 . S
C2406 C2390 1.368 . S
C2406 C2402 1.368 . S
C2406 C2405 1.523 . S
H2407 C2382 0.950 . S
H2408 C2384 0.950 . S
H2409 C2385 0.949 . S
H2410 C2387 0.950 . S
H2411 C2389 0.950 . S
C2412 C2413 1.349 . S
C2412 C2414 1.327 . S
C2412 H2437 0.950 . S
C2413 C2412 1.349 . S
C2413 C2429 1.349 . S
C2414 C2412 1.327 . S
C2414 C2433 1.429 . S
C2414 H2438 0.950 . S
C2415 C2432 1.574 . S
C2415 C2434 1.368 . S
C2415 H2439 0.949 . S
H2416 C2420 0.949 . S
C2417 C2418 1.349 . S
C2417 C2419 1.327 . S
C2417 H2440 0.950 . S
C2418 C2417 1.349 . S
C2418 C2430 1.349 . S
C2419 C2417 1.327 . S
C2419 C2435 1.429 . S
C2419 H2441 0.950 . S
C2420 H2416 0.949 . S
C2420 C2428 1.574 . S
C2420 C2436 1.368 . S
H2421 C2429 0.950 . S
H2422 C2427 0.950 . S
H2423 C2428 0.949 . S
H2424 C2430 0.950 . S
H2425 C2431 0.950 . S
H2426 C2432 0.949 . S
C2427 H2422 0.950 . S
C2427 C2429 1.327 . S
C2427 C2433 1.429 . S
C2428 C2420 1.574 . S
C2428 H2423 0.949 . S
C2428 C2434 1.368 . S
C2429 C2413 1.349 . S
C2429 H2421 0.950 . S
C2429 C2427 1.327 . S
C2430 C2418 1.349 . S
C2430 H2424 0.950 . S
C2430 C2431 1.327 . S
C2431 H2425 0.950 . S
C2431 C2430 1.327 . S
C2431 C2435 1.429 . S
C2432 C2415 1.574 . S
C2432 H2426 0.949 . S
C2432 C2436 1.368 . S
C2433 C2414 1.429 . S
C2433 C2427 1.429 . S
C2433 C2434 1.523 . S
C2434 C2415 1.368 . S
C2434 C2428 1.368 . S
C2434 C2433 1.523 . S
C2435 C2419 1.429 . S
C2435 C2431 1.429 . S
C2435 C2436 1.523 . S
C2436 C2420 1.368 . S
C2436 C2432 1.368 . S
C2436 C2435 1.523 . S
H2437 C2412 0.950 . S
H2438 C2414 0.950 . S
H2439 C2415 0.949 . S
H2440 C2417 0.950 . S
H2441 C2419 0.950 . S
C2442 C2443 1.349 . S
C2442 C2444 1.327 . S
C2442 H2467 0.950 . S
C2443 C2442 1.349 . S
C2443 C2459 1.349 . S
C2444 C2442 1.327 . S
C2444 C2463 1.429 . S
C2444 H2468 0.950 . S
C2445 C2462 1.574 . S
C2445 C2464 1.368 . S
C2445 H2469 0.949 . S
H2446 C2450 0.949 . S
C2447 C2448 1.349 . S
C2447 C2449 1.327 . S
C2447 H2470 0.950 . S
C2448 C2447 1.349 . S
C2448 C2460 1.349 . S
C2449 C2447 1.327 . S
C2449 C2465 1.429 . S
C2449 H2471 0.950 . S
C2450 H2446 0.949 . S
C2450 C2458 1.574 . S
C2450 C2466 1.368 . S
H2451 C2459 0.950 . S
H2452 C2457 0.950 . S
H2453 C2458 0.949 . S
H2454 C2460 0.950 . S
H2455 C2461 0.950 . S
H2456 C2462 0.949 . S
C2457 H2452 0.950 . S
C2457 C2459 1.327 . S
C2457 C2463 1.429 . S
C2458 C2450 1.574 . S
C2458 H2453 0.949 . S
C2458 C2464 1.368 . S
C2459 C2443 1.349 . S
C2459 H2451 0.950 . S
C2459 C2457 1.327 . S
C2460 C2448 1.349 . S
C2460 H2454 0.950 . S
C2460 C2461 1.327 . S
C2461 H2455 0.950 . S
C2461 C2460 1.327 . S
C2461 C2465 1.429 . S
C2462 C2445 1.574 . S
C2462 H2456 0.949 . S
C2462 C2466 1.368 . S
C2463 C2444 1.429 . S
C2463 C2457 1.429 . S
C2463 C2464 1.523 . S
C2464 C2445 1.368 . S
C2464 C2458 1.368 . S
C2464 C2463 1.523 . S
C2465 C2449 1.429 . S
C2465 C2461 1.429 . S
C2465 C2466 1.523 . S
C2466 C2450 1.368 . S
C2466 C2462 1.368 . S
C2466 C2465 1.523 . S
H2467 C2442 0.950 . S
H2468 C2444 0.950 . S
H2469 C2445 0.949 . S
H2470 C2447 0.950 . S
H2471 C2449 0.950 . S
C2472 C2473 1.349 . S
C2472 C2474 1.327 . S
C2472 H2497 0.950 . S
C2473 C2472 1.349 . S
C2473 C2489 1.349 . S
C2474 C2472 1.327 . S
C2474 C2493 1.429 . S
C2474 H2498 0.950 . S
C2475 C2492 1.574 . S
C2475 C2494 1.368 . S
C2475 H2499 0.949 . S
H2476 C2480 0.949 . S
C2477 C2478 1.349 . S
C2477 C2479 1.327 . S
C2477 H2500 0.950 . S
C2478 C2477 1.349 . S
C2478 C2490 1.349 . S
C2479 C2477 1.327 . S
C2479 C2495 1.429 . S
C2479 H2501 0.950 . S
C2480 H2476 0.949 . S
C2480 C2488 1.574 . S
C2480 C2496 1.368 . S
H2481 C2489 0.950 . S
H2482 C2487 0.950 . S
H2483 C2488 0.949 . S
H2484 C2490 0.950 . S
H2485 C2491 0.950 . S
H2486 C2492 0.949 . S
C2487 H2482 0.950 . S
C2487 C2489 1.327 . S
C2487 C2493 1.429 . S
C2488 C2480 1.574 . S
C2488 H2483 0.949 . S
C2488 C2494 1.368 . S
C2489 C2473 1.349 . S
C2489 H2481 0.950 . S
C2489 C2487 1.327 . S
C2490 C2478 1.349 . S
C2490 H2484 0.950 . S
C2490 C2491 1.327 . S
C2491 H2485 0.950 . S
C2491 C2490 1.327 . S
C2491 C2495 1.429 . S
C2492 C2475 1.574 . S
C2492 H2486 0.949 . S
C2492 C2496 1.368 . S
C2493 C2474 1.429 . S
C2493 C2487 1.429 . S
C2493 C2494 1.523 . S
C2494 C2475 1.368 . S
C2494 C2488 1.368 . S
C2494 C2493 1.523 . S
C2495 C2479 1.429 . S
C2495 C2491 1.429 . S
C2495 C2496 1.523 . S
C2496 C2480 1.368 . S
C2496 C2492 1.368 . S
C2496 C2495 1.523 . S
H2497 C2472 0.950 . S
H2498 C2474 0.950 . S
H2499 C2475 0.949 . S
H2500 C2477 0.950 . S
H2501 C2479 0.950 . S
C2502 C2503 1.349 . S
C2502 C2504 1.327 . S
C2502 H2527 0.950 . S
C2503 C2502 1.349 . S
C2503 C2519 1.349 . S
C2504 C2502 1.327 . S
C2504 C2523 1.429 . S
C2504 H2528 0.950 . S
C2505 C2522 1.574 . S
C2505 C2524 1.368 . S
C2505 H2529 0.949 . S
H2506 C2510 0.949 . S
C2507 C2508 1.349 . S
C2507 C2509 1.327 . S
C2507 H2530 0.950 . S
C2508 C2507 1.349 . S
C2508 C2520 1.349 . S
C2509 C2507 1.327 . S
C2509 C2525 1.429 . S
C2509 H2531 0.950 . S
C2510 H2506 0.949 . S
C2510 C2518 1.574 . S
C2510 C2526 1.368 . S
H2511 C2519 0.950 . S
H2512 C2517 0.950 . S
H2513 C2518 0.949 . S
H2514 C2520 0.950 . S
H2515 C2521 0.950 . S
H2516 C2522 0.949 . S
C2517 H2512 0.950 . S
C2517 C2519 1.327 . S
C2517 C2523 1.429 . S
C2518 C2510 1.574 . S
C2518 H2513 0.949 . S
C2518 C2524 1.368 . S
C2519 C2503 1.349 . S
C2519 H2511 0.950 . S
C2519 C2517 1.327 . S
C2520 C2508 1.349 . S
C2520 H2514 0.950 . S
C2520 C2521 1.327 . S
C2521 H2515 0.950 . S
C2521 C2520 1.327 . S
C2521 C2525 1.429 . S
C2522 C2505 1.574 . S
C2522 H2516 0.949 . S
C2522 C2526 1.368 . S
C2523 C2504 1.429 . S
C2523 C2517 1.429 . S
C2523 C2524 1.523 . S
C2524 C2505 1.368 . S
C2524 C2518 1.368 . S
C2524 C2523 1.523 . S
C2525 C2509 1.429 . S
C2525 C2521 1.429 . S
C2525 C2526 1.523 . S
C2526 C2510 1.368 . S
C2526 C2522 1.368 . S
C2526 C2525 1.523 . S
H2527 C2502 0.950 . S
H2528 C2504 0.950 . S
H2529 C2505 0.949 . S
H2530 C2507 0.950 . S
H2531 C2509 0.950 . S
C2532 C2533 1.349 . S
C2532 C2534 1.327 . S
C2532 H2557 0.950 . S
C2533 C2532 1.349 . S
C2533 C2549 1.349 . S
C2534 C2532 1.327 . S
C2534 C2553 1.429 . S
C2534 H2558 0.950 . S
C2535 C2552 1.574 . S
C2535 C2554 1.368 . S
C2535 H2559 0.949 . S
H2536 C2540 0.949 . S
C2537 C2538 1.349 . S
C2537 C2539 1.327 . S
C2537 H2560 0.950 . S
C2538 C2537 1.349 . S
C2538 C2550 1.349 . S
C2539 C2537 1.327 . S
C2539 C2555 1.429 . S
C2539 H2561 0.950 . S
C2540 H2536 0.949 . S
C2540 C2548 1.574 . S
C2540 C2556 1.368 . S
H2541 C2549 0.950 . S
H2542 C2547 0.950 . S
H2543 C2548 0.949 . S
H2544 C2550 0.950 . S
H2545 C2551 0.950 . S
H2546 C2552 0.949 . S
C2547 H2542 0.950 . S
C2547 C2549 1.327 . S
C2547 C2553 1.429 . S
C2548 C2540 1.574 . S
C2548 H2543 0.949 . S
C2548 C2554 1.368 . S
C2549 C2533 1.349 . S
C2549 H2541 0.950 . S
C2549 C2547 1.327 . S
C2550 C2538 1.349 . S
C2550 H2544 0.950 . S
C2550 C2551 1.327 . S
C2551 H2545 0.950 . S
C2551 C2550 1.327 . S
C2551 C2555 1.429 . S
C2552 C2535 1.574 . S
C2552 H2546 0.949 . S
C2552 C2556 1.368 . S
C2553 C2534 1.429 . S
C2553 C2547 1.429 . S
C2553 C2554 1.523 . S
C2554 C2535 1.368 . S
C2554 C2548 1.368 . S
C2554 C2553 1.523 . S
C2555 C2539 1.429 . S
C2555 C2551 1.429 . S
C2555 C2556 1.523 . S
C2556 C2540 1.368 . S
C2556 C2552 1.368 . S
C2556 C2555 1.523 . S
H2557 C2532 0.950 . S
H2558 C2534 0.950 . S
H2559 C2535 0.949 . S
H2560 C2537 0.950 . S
H2561 C2539 0.950 . S
C2562 C2563 1.349 . S
C2562 C2564 1.327 . S
C2562 H2587 0.950 . S
C2563 C2562 1.349 . S
C2563 C2579 1.349 . S
C2564 C2562 1.327 . S
C2564 C2583 1.429 . S
C2564 H2588 0.950 . S
C2565 C2582 1.574 . S
C2565 C2584 1.368 . S
C2565 H2589 0.949 . S
H2566 C2570 0.949 . S
C2567 C2568 1.349 . S
C2567 C2569 1.327 . S
C2567 H2590 0.950 . S
C2568 C2567 1.349 . S
C2568 C2580 1.349 . S
C2569 C2567 1.327 . S
C2569 C2585 1.429 . S
C2569 H2591 0.950 . S
C2570 H2566 0.949 . S
C2570 C2578 1.574 . S
C2570 C2586 1.368 . S
H2571 C2579 0.950 . S
H2572 C2577 0.950 . S
H2573 C2578 0.949 . S
H2574 C2580 0.950 . S
H2575 C2581 0.950 . S
H2576 C2582 0.949 . S
C2577 H2572 0.950 . S
C2577 C2579 1.327 . S
C2577 C2583 1.429 . S
C2578 C2570 1.574 . S
C2578 H2573 0.949 . S
C2578 C2584 1.368 . S
C2579 C2563 1.349 . S
C2579 H2571 0.950 . S
C2579 C2577 1.327 . S
C2580 C2568 1.349 . S
C2580 H2574 0.950 . S
C2580 C2581 1.327 . S
C2581 H2575 0.950 . S
C2581 C2580 1.327 . S
C2581 C2585 1.429 . S
C2582 C2565 1.574 . S
C2582 H2576 0.949 . S
C2582 C2586 1.368 . S
C2583 C2564 1.429 . S
C2583 C2577 1.429 . S
C2583 C2584 1.523 . S
C2584 C2565 1.368 . S
C2584 C2578 1.368 . S
C2584 C2583 1.523 . S
C2585 C2569 1.429 . S
C2585 C2581 1.429 . S
C2585 C2586 1.523 . S
C2586 C2570 1.368 . S
C2586 C2582 1.368 . S
C2586 C2585 1.523 . S
H2587 C2562 0.950 . S
H2588 C2564 0.950 . S
H2589 C2565 0.949 . S
H2590 C2567 0.950 . S
H2591 C2569 0.950 . S
C2592 C2593 1.349 . S
C2592 C2594 1.327 . S
C2592 H2617 0.950 . S
C2593 C2592 1.349 . S
C2593 C2609 1.349 . S
C2594 C2592 1.327 . S
C2594 C2613 1.429 . S
C2594 H2618 0.950 . S
C2595 C2612 1.574 . S
C2595 C2614 1.368 . S
C2595 H2619 0.949 . S
H2596 C2600 0.949 . S
C2597 C2598 1.349 . S
C2597 C2599 1.327 . S
C2597 H2620 0.950 . S
C2598 C2597 1.349 . S
C2598 C2610 1.349 . S
C2599 C2597 1.327 . S
C2599 C2615 1.429 . S
C2599 H2621 0.950 . S
C2600 H2596 0.949 . S
C2600 C2608 1.574 . S
C2600 C2616 1.368 . S
H2601 C2609 0.950 . S
H2602 C2607 0.950 . S
H2603 C2608 0.949 . S
H2604 C2610 0.950 . S
H2605 C2611 0.950 . S
H2606 C2612 0.949 . S
C2607 H2602 0.950 . S
C2607 C2609 1.327 . S
C2607 C2613 1.429 . S
C2608 C2600 1.574 . S
C2608 H2603 0.949 . S
C2608 C2614 1.368 . S
C2609 C2593 1.349 . S
C2609 H2601 0.950 . S
C2609 C2607 1.327 . S
C2610 C2598 1.349 . S
C2610 H2604 0.950 . S
C2610 C2611 1.327 . S
C2611 H2605 0.950 . S
C2611 C2610 1.327 . S
C2611 C2615 1.429 . S
C2612 C2595 1.574 . S
C2612 H2606 0.949 . S
C2612 C2616 1.368 . S
C2613 C2594 1.429 . S
C2613 C2607 1.429 . S
C2613 C2614 1.523 . S
C2614 C2595 1.368 . S
C2614 C2608 1.368 . S
C2614 C2613 1.523 . S
C2615 C2599 1.429 . S
C2615 C2611 1.429 . S
C2615 C2616 1.523 . S
C2616 C2600 1.368 . S
C2616 C2612 1.368 . S
C2616 C2615 1.523 . S
H2617 C2592 0.950 . S
H2618 C2594 0.950 . S
H2619 C2595 0.949 . S
H2620 C2597 0.950 . S
H2621 C2599 0.950 . S
C2622 C2623 1.349 . S
C2622 C2624 1.327 . S
C2622 H2647 0.950 . S
C2623 C2622 1.349 . S
C2623 C2639 1.349 . S
C2624 C2622 1.327 . S
C2624 C2643 1.429 . S
C2624 H2648 0.950 . S
C2625 C2642 1.574 . S
C2625 C2644 1.368 . S
C2625 H2649 0.949 . S
H2626 C2630 0.949 . S
C2627 C2628 1.349 . S
C2627 C2629 1.327 . S
C2627 H2650 0.950 . S
C2628 C2627 1.349 . S
C2628 C2640 1.349 . S
C2629 C2627 1.327 . S
C2629 C2645 1.429 . S
C2629 H2651 0.950 . S
C2630 H2626 0.949 . S
C2630 C2638 1.574 . S
C2630 C2646 1.368 . S
H2631 C2639 0.950 . S
H2632 C2637 0.950 . S
H2633 C2638 0.949 . S
H2634 C2640 0.950 . S
H2635 C2641 0.950 . S
H2636 C2642 0.949 . S
C2637 H2632 0.950 . S
C2637 C2639 1.327 . S
C2637 C2643 1.429 . S
C2638 C2630 1.574 . S
C2638 H2633 0.949 . S
C2638 C2644 1.368 . S
C2639 C2623 1.349 . S
C2639 H2631 0.950 . S
C2639 C2637 1.327 . S
C2640 C2628 1.349 . S
C2640 H2634 0.950 . S
C2640 C2641 1.327 . S
C2641 H2635 0.950 . S
C2641 C2640 1.327 . S
C2641 C2645 1.429 . S
C2642 C2625 1.574 . S
C2642 H2636 0.949 . S
C2642 C2646 1.368 . S
C2643 C2624 1.429 . S
C2643 C2637 1.429 . S
C2643 C2644 1.523 . S
C2644 C2625 1.368 . S
C2644 C2638 1.368 . S
C2644 C2643 1.523 . S
C2645 C2629 1.429 . S
C2645 C2641 1.429 . S
C2645 C2646 1.523 . S
C2646 C2630 1.368 . S
C2646 C2642 1.368 . S
C2646 C2645 1.523 . S
H2647 C2622 0.950 . S
H2648 C2624 0.950 . S
H2649 C2625 0.949 . S
H2650 C2627 0.950 . S
H2651 C2629 0.950 . S
C2652 C2653 1.349 . S
C2652 C2654 1.327 . S
C2652 H2677 0.950 . S
C2653 C2652 1.349 . S
C2653 C2669 1.349 . S
C2654 C2652 1.327 . S
C2654 C2673 1.429 . S
C2654 H2678 0.950 . S
C2655 C2672 1.574 . S
C2655 C2674 1.368 . S
C2655 H2679 0.949 . S
H2656 C2660 0.949 . S
C2657 C2658 1.349 . S
C2657 C2659 1.327 . S
C2657 H2680 0.950 . S
C2658 C2657 1.349 . S
C2658 C2670 1.349 . S
C2659 C2657 1.327 . S
C2659 C2675 1.429 . S
C2659 H2681 0.950 . S
C2660 H2656 0.949 . S
C2660 C2668 1.574 . S
C2660 C2676 1.368 . S
H2661 C2669 0.950 . S
H2662 C2667 0.950 . S
H2663 C2668 0.949 . S
H2664 C2670 0.950 . S
H2665 C2671 0.950 . S
H2666 C2672 0.949 . S
C2667 H2662 0.950 . S
C2667 C2669 1.327 . S
C2667 C2673 1.429 . S
C2668 C2660 1.574 . S
C2668 H2663 0.949 . S
C2668 C2674 1.368 . S
C2669 C2653 1.349 . S
C2669 H2661 0.950 . S
C2669 C2667 1.327 . S
C2670 C2658 1.349 . S
C2670 H2664 0.950 . S
C2670 C2671 1.327 . S
C2671 H2665 0.950 . S
C2671 C2670 1.327 . S
C2671 C2675 1.429 . S
C2672 C2655 1.574 . S
C2672 H2666 0.949 . S
C2672 C2676 1.368 . S
C2673 C2654 1.429 . S
C2673 C2667 1.429 . S
C2673 C2674 1.523 . S
C2674 C2655 1.368 . S
C2674 C2668 1.368 . S
C2674 C2673 1.523 . S
C2675 C2659 1.429 . S
C2675 C2671 1.429 . S
C2675 C2676 1.523 . S
C2676 C2660 1.368 . S
C2676 C2672 1.368 . S
C2676 C2675 1.523 . S
H2677 C2652 0.950 . S
H2678 C2654 0.950 . S
H2679 C2655 0.949 . S
H2680 C2657 0.950 . S
H2681 C2659 0.950 . S
C1063 C528 1.638 . S
C1068 C714 1.649 . S
C1093 C562 1.849 . S
C1098 C754 1.852 . S
C1123 C484 1.724 . S
C1128 C784 1.728 . S
C1153 C445 1.538 . S
C1158 C744 1.530 . S
C1188 C794 1.465 . S
C1183 C367 1.459 . S
C1213 C411 1.325 . S
C1218 C704 1.322 1_556 S
C1248 C733 1.669 . S
C1243 C450 1.647 . S
C1278 C773 1.830 . S
C1273 C372 1.822 . S
C1303 C406 1.721 . S
C1308 C799 1.729 . S
C1333 C523 1.535 . S
C1338 C759 1.530 . S
C1363 C567 1.432 . S
C1368 C813 1.443 . S
C1398 C719 1.356 . S
C1393 C489 1.335 . S
C1428 C834 1.648 . S
C1423 C60 1.637 . S
C1453 C94 1.849 . S
C1458 C874 1.852 . S
C1483 C16 1.724 . S
C1488 C904 1.728 . S
C1513 C679 1.538 . S
C1518 C864 1.530 . S
C1543 C601 1.459 . S
C1548 C914 1.466 . S
C1573 C645 1.325 . S
C1578 C824 1.334 . S
C1603 C684 1.647 . S
C1608 C853 1.669 . S
C1633 C606 1.823 . S
C1638 C893 1.830 . S
C1668 C919 1.729 . S
C1663 C640 1.722 . S
C1693 C55 1.535 . S
C1698 C879 1.530 . S
C1728 C933 1.443 . S
C1723 C99 1.431 . S
C1753 C21 1.335 . S
C1758 C839 1.356 . S
C1788 C954 1.649 . S
C1783 C294 1.638 . S
C1813 C328 1.849 . S
C1818 C994 1.852 . S
C1848 C1024 1.728 . S
C1843 C250 1.725 . S
C1878 C984 1.530 . S
C1873 C211 1.538 . S
C1908 C1034 1.465 . S
C1903 C133 1.458 . S
C1933 C177 1.325 . S
C1938 C944 1.334 . S
C1963 C216 1.646 . S
C1968 C973 1.669 . S
C1993 C138 1.823 . S
C1998 C1013 1.830 . S
C2028 C1039 1.729 . S
C2023 C172 1.722 . S
C2053 C289 1.535 . S
C2058 C999 1.530 . S
C2083 C333 1.432 . S
C2088 C1053 1.443 . S
C2113 C255 1.335 . S
C2118 C959 1.356 . S
C2143 C586 1.267 . S
C2148 C731 1.261 . S
C2178 C771 1.892 . S
C2173 C625 1.899 . S
C2203 C664 1.575 . S
C2208 C790 1.580 . S
C2233 C235 1.908 . S
C2238 C750 1.906 . S
C2263 C274 1.562 . S
C2268 C811 1.563 . S
C2298 C710 1.258 . S
C2293 C313 1.264 . S
C2323 C118 1.267 . S
C2328 C851 1.261 . S
C2353 C157 1.899 . S
C2358 C891 1.892 . S
C2383 C196 1.575 . S
C2388 C910 1.580 . S
C2413 C469 1.908 . S
C2418 C870 1.907 . S
C2448 C931 1.563 . S
C2443 C508 1.561 . S
C2473 C547 1.264 . S
C2478 C830 1.258 . S
C2503 C352 1.267 . S
C2508 C971 1.261 . S
C2533 C391 1.899 . S
C2538 C1011 1.892 . S
C2568 C1030 1.580 . S
C2563 C430 1.575 . S
C2593 C1 1.908 . S
C2598 C990 1.906 . S
C2623 C40 1.562 . S
C2628 C1051 1.563 . S
C2653 C79 1.264 . S
C2658 C950 1.258 . S
