# Generated by pormake.
# Topology apo, (3,6)-cn, num edge types: 1
# Building blocks:
#     Node 0, Type 0, BuildingBlock: CUQRIR_clean_linker_1, # of connection points: 3
#     Node 1, Type 0, BuildingBlock: CUQRIR_clean_linker_1, # of connection points: 3
#     Node 2, Type 0, BuildingBlock: CUQRIR_clean_linker_1, # of connection points: 3
#     Node 3, Type 0, BuildingBlock: CUQRIR_clean_linker_1, # of connection points: 3
#     Node 4, Type 0, BuildingBlock: CUQRIR_clean_linker_1, # of connection points: 3
#     Node 5, Type 0, BuildingBlock: CUQRIR_clean_linker_1, # of connection points: 3
#     Node 6, Type 0, BuildingBlock: CUQRIR_clean_linker_1, # of connection points: 3
#     Node 7, Type 0, BuildingBlock: CUQRIR_clean_linker_1, # of connection points: 3
#     Node 8, Type 1, BuildingBlock: MIDCAF_clean_sbu_0, # of connection points: 6
#     Node 9, Type 1, BuildingBlock: MIDCAF_clean_sbu_0, # of connection points: 6
#     Node 10, Type 1, BuildingBlock: MIDCAF_clean_sbu_0, # of connection points: 6
#     Node 11, Type 1, BuildingBlock: MIDCAF_clean_sbu_0, # of connection points: 6
#     Edge 12, Type (0, 1), BuildingBlock: CIFDUS_clean_linker_0, # of connection points: 2
#     Edge 13, Type (0, 1), BuildingBlock: CIFDUS_clean_linker_0, # of connection points: 2
#     Edge 14, Type (0, 1), BuildingBlock: CIFDUS_clean_linker_0, # of connection points: 2
#     Edge 15, Type (0, 1), BuildingBlock: CIFDUS_clean_linker_0, # of connection points: 2
#     Edge 16, Type (0, 1), BuildingBlock: CIFDUS_clean_linker_0, # of connection points: 2
#     Edge 17, Type (0, 1), BuildingBlock: CIFDUS_clean_linker_0, # of connection points: 2
#     Edge 18, Type (0, 1), BuildingBlock: CIFDUS_clean_linker_0, # of connection points: 2
#     Edge 19, Type (0, 1), BuildingBlock: CIFDUS_clean_linker_0, # of connection points: 2
#     Edge 20, Type (0, 1), BuildingBlock: CIFDUS_clean_linker_0, # of connection points: 2
#     Edge 21, Type (0, 1), BuildingBlock: CIFDUS_clean_linker_0, # of connection points: 2
#     Edge 22, Type (0, 1), BuildingBlock: CIFDUS_clean_linker_0, # of connection points: 2
#     Edge 23, Type (0, 1), BuildingBlock: CIFDUS_clean_linker_0, # of connection points: 2
#     Edge 24, Type (0, 1), BuildingBlock: CIFDUS_clean_linker_0, # of connection points: 2
#     Edge 25, Type (0, 1), BuildingBlock: CIFDUS_clean_linker_0, # of connection points: 2
#     Edge 26, Type (0, 1), BuildingBlock: CIFDUS_clean_linker_0, # of connection points: 2
#     Edge 27, Type (0, 1), BuildingBlock: CIFDUS_clean_linker_0, # of connection points: 2
#     Edge 28, Type (0, 1), BuildingBlock: CIFDUS_clean_linker_0, # of connection points: 2
#     Edge 29, Type (0, 1), BuildingBlock: CIFDUS_clean_linker_0, # of connection points: 2
#     Edge 30, Type (0, 1), BuildingBlock: CIFDUS_clean_linker_0, # of connection points: 2
#     Edge 31, Type (0, 1), BuildingBlock: CIFDUS_clean_linker_0, # of connection points: 2
#     Edge 32, Type (0, 1), BuildingBlock: CIFDUS_clean_linker_0, # of connection points: 2
#     Edge 33, Type (0, 1), BuildingBlock: CIFDUS_clean_linker_0, # of connection points: 2
#     Edge 34, Type (0, 1), BuildingBlock: CIFDUS_clean_linker_0, # of connection points: 2
#     Edge 35, Type (0, 1), BuildingBlock: CIFDUS_clean_linker_0, # of connection points: 2
# Relax obj value: 0.008
# Max RMSD: 0.060
# Mean RMSD: 0.058
data_MOF--net-apo--node1-MIDCAF_clean_sbu_0--node2-CUQRIR_clean_linker_1--edge1-CIFDUS_clean_linker_0
_symmetry_space_group_name_H-M    P1
_symmetry_Int_Tables_number       1
_symmetry_cell_setting            triclinic
loop_
_symmetry_equiv_pos_as_xyz
'x, y, z'
_cell_length_a     29.830175
_cell_length_b     33.942518
_cell_length_c     26.387496
_cell_angle_alpha  90.086374
_cell_angle_beta   90.029255
_cell_angle_gamma 89.998506
loop_
_atom_site_label
_atom_site_type_symbol
_atom_site_fract_x
_atom_site_fract_y
_atom_site_fract_z
_atom_type_partial_charge
C0 C 0.31688 0.27524 0.40726 0.0
N1 N 0.35267 0.2992 0.41415 0.0
N2 N 0.29995 0.27954 0.35999 0.0
C3 C 0.29825 0.24765 0.44641 0.0
C4 C 0.3262 0.30727 0.3384 0.0
N5 N 0.35883 0.31896 0.37102 0.0
C6 C 0.31666 0.32575 0.28768 0.0
H7 H 0.32522 0.2367 0.47172 0.0
H8 H 0.28111 0.22232 0.42811 0.0
H9 H 0.27332 0.26373 0.46977 0.0
H10 H 0.28142 0.32085 0.27581 0.0
H11 H 0.33884 0.31222 0.25876 0.0
H12 H 0.32331 0.3579 0.28877 0.0
C13 C 0.18904 0.23013 0.90026 0.0
N14 N 0.16259 0.19898 0.91146 0.0
N15 N 0.20473 0.22737 0.85207 0.0
C16 C 0.19891 0.26363 0.93593 0.0
C17 C 0.18677 0.19331 0.83437 0.0
N18 N 0.16075 0.17626 0.87034 0.0
C19 C 0.19374 0.17709 0.78177 0.0
H20 H 0.17388 0.28732 0.92972 0.0
H21 H 0.23279 0.27589 0.92874 0.0
H22 H 0.19664 0.25418 0.97602 0.0
H23 H 0.22292 0.19027 0.76237 0.0
H24 H 0.16375 0.18377 0.75847 0.0
H25 H 0.19797 0.14463 0.78312 0.0
C26 C 0.78024 0.20538 0.61772 0.0
N27 N 0.81308 0.17985 0.60487 0.0
N28 N 0.76845 0.20056 0.66678 0.0
C29 C 0.75917 0.23459 0.58223 0.0
C30 C 0.79487 0.17088 0.68338 0.0
N31 N 0.82274 0.15847 0.64585 0.0
C32 C 0.78975 0.15161 0.73438 0.0
H33 H 0.74449 0.25974 0.6034 0.0
H34 H 0.73197 0.21969 0.56083 0.0
H35 H 0.78419 0.24563 0.55457 0.0
H36 H 0.79498 0.11932 0.73155 0.0
H37 H 0.75607 0.15729 0.75064 0.0
H38 H 0.81506 0.16401 0.76076 0.0
C39 C 0.69755 0.26951 0.14162 0.0
N40 N 0.66038 0.29196 0.13662 0.0
N41 N 0.70987 0.26677 0.19082 0.0
C42 C 0.72201 0.25036 0.09829 0.0
C43 C 0.67863 0.28822 0.21575 0.0
N44 N 0.64847 0.30415 0.18283 0.0
C45 C 0.67798 0.2933 0.27243 0.0
H46 H 0.69789 0.2391 0.0697 0.0
H47 H 0.74349 0.22581 0.1117 0.0
H48 H 0.74348 0.27273 0.0796 0.0
H49 H 0.70419 0.31482 0.28363 0.0
H50 H 0.68598 0.26502 0.29132 0.0
H51 H 0.64478 0.30359 0.28597 0.0
C52 C 0.67472 0.74063 0.65246 0.0
N53 N 0.64588 0.71096 0.64233 0.0
N54 N 0.68342 0.7427 0.70268 0.0
C55 C 0.69462 0.76746 0.61309 0.0
C56 C 0.65876 0.71327 0.72296 0.0
N57 N 0.63569 0.69368 0.68623 0.0
C58 C 0.65399 0.70672 0.77909 0.0
H59 H 0.69594 0.7528 0.57551 0.0
H60 H 0.72891 0.77679 0.62416 0.0
H61 H 0.67333 0.79413 0.60973 0.0
H62 H 0.6571 0.73505 0.79985 0.0
H63 H 0.68136 0.68713 0.79231 0.0
H64 H 0.62122 0.69305 0.78832 0.0
C65 C 0.80999 0.77314 0.14095 0.0
N66 N 0.83964 0.8028 0.13375 0.0
N67 N 0.80886 0.76236 0.19028 0.0
C68 C 0.78008 0.75607 0.10056 0.0
C69 C 0.83888 0.7864 0.21311 0.0
N70 N 0.85769 0.81122 0.17882 0.0
C71 C 0.85203 0.78331 0.26797 0.0
H72 H 0.7731 0.77803 0.07046 0.0
H73 H 0.7479 0.74589 0.11708 0.0
H74 H 0.79701 0.73029 0.08316 0.0
H75 H 0.84841 0.75255 0.28155 0.0
H76 H 0.82939 0.80218 0.29088 0.0
H77 H 0.88709 0.7932 0.27392 0.0
C78 C 0.19753 0.75974 0.41074 0.0
N79 N 0.17083 0.7903 0.42373 0.0
N80 N 0.21295 0.76397 0.36262 0.0
C81 C 0.2076 0.7253 0.44465 0.0
C82 C 0.19445 0.79834 0.3468 0.0
N83 N 0.16838 0.81411 0.3838 0.0
C84 C 0.20053 0.81584 0.29483 0.0
H85 H 0.20681 0.73419 0.48509 0.0
H86 H 0.24091 0.7125 0.43571 0.0
H87 H 0.18167 0.70231 0.43873 0.0
H88 H 0.17124 0.80785 0.27103 0.0
H89 H 0.23082 0.80466 0.27548 0.0
H90 H 0.20243 0.84844 0.29718 0.0
C91 C 0.29598 0.717 0.93505 0.0
N92 N 0.32364 0.68713 0.948 0.0
N93 N 0.28611 0.71554 0.88492 0.0
C94 C 0.27929 0.74808 0.97107 0.0
C95 C 0.30886 0.68362 0.86779 0.0
N96 N 0.33222 0.66656 0.90611 0.0
C97 C 0.30844 0.6693 0.81376 0.0
H98 H 0.27732 0.73666 1.01035 0.0
H99 H 0.2458 0.75896 0.95928 0.0
H100 H 0.30302 0.77324 0.97074 0.0
H101 H 0.33889 0.68028 0.79426 0.0
H102 H 0.27898 0.68023 0.79253 0.0
H103 H 0.30875 0.63663 0.81245 0.0
Zn104 Zn 0.05652 0.09863 0.35296 0.0
Zn105 Zn 0.96522 0.09001 0.19387 0.0
Zn106 Zn 0.01093 0.0983 0.27495 0.0
C107 C 0.0409 0.12918 0.16205 0.0
C108 C 0.97133 0.01528 0.22793 0.0
O109 O 0.97132 0.13096 0.33549 0.0
O110 O 0.01671 0.12397 0.40094 0.0
C111 C 0.10573 0.14256 0.28584 0.0
O112 O 0.04956 0.12663 0.21005 0.0
O113 O 0.00538 0.11423 0.14471 0.0
O114 O 0.95556 0.03289 0.18993 0.0
O115 O 0.99339 0.03457 0.26211 0.0
O116 O 0.10603 0.13151 0.33131 0.0
O117 O 0.07336 0.13233 0.25608 0.0
O118 O 0.02914 0.0357 0.29748 0.0
O119 O 0.07128 0.0439 0.3653 0.0
C120 C 0.05401 0.02115 0.33303 0.0
O121 O 0.94743 0.13103 0.28939 0.0
O122 O 0.91395 0.12255 0.21526 0.0
C123 C 0.98058 0.13693 0.38276 0.0
C124 C 0.91411 0.13711 0.25923 0.0
Zn125 Zn 0.55139 0.40406 0.69789 0.0
Zn126 Zn 0.46067 0.38945 0.85812 0.0
Zn127 Zn 0.5051 0.39624 0.77864 0.0
C128 C 0.46382 0.46949 0.84305 0.0
C129 C 0.40906 0.3526 0.78688 0.0
O130 O 0.56759 0.36181 0.79064 0.0
O131 O 0.60308 0.37188 0.71822 0.0
C132 C 0.543 0.47913 0.73175 0.0
O133 O 0.48683 0.45774 0.80435 0.0
O134 O 0.44967 0.44449 0.87444 0.0
O135 O 0.40835 0.36148 0.83319 0.0
O136 O 0.44269 0.36262 0.75897 0.0
O137 O 0.55996 0.46102 0.69478 0.0
O138 O 0.52084 0.46025 0.7661 0.0
O139 O 0.46654 0.36833 0.71357 0.0
O140 O 0.5112 0.37964 0.64844 0.0
C141 C 0.47533 0.36534 0.66569 0.0
O142 O 0.54702 0.36546 0.83868 0.0
O143 O 0.50049 0.36046 0.90342 0.0
C144 C 0.60136 0.3558 0.76118 0.0
C145 C 0.53875 0.35463 0.88473 0.0
Zn146 Zn 0.03685 0.89442 0.85353 0.0
Zn147 Zn 0.95642 0.8873 0.69218 0.0
Zn148 Zn -0.00116 0.89137 0.77201 0.0
C149 C 0.96179 0.96688 0.70977 0.0
C150 C 0.90038 0.85215 0.75909 0.0
O151 O 0.06058 0.85521 0.76249 0.0
O152 O 0.08035 0.8519 0.84315 0.0
C153 C 0.04625 0.96895 0.81832 0.0
O154 O 0.98371 0.95403 0.74868 0.0
O155 O 0.94787 0.94273 0.67708 0.0
O156 O 0.90155 0.8609 0.7128 0.0
O157 O 0.93383 0.86058 0.78814 0.0
O158 O 0.0627 0.9465 0.85135 0.0
O159 O 0.01783 0.95495 0.78599 0.0
O160 O 0.95588 0.86505 0.83431 0.0
O161 O 0.98923 0.88668 0.9037 0.0
C162 C 0.95677 0.86925 0.88303 0.0
O163 O 0.04132 0.85841 0.71393 0.0
O164 O 0.99625 0.8581 0.64772 0.0
C165 C 0.08638 0.84179 0.79769 0.0
C166 C 0.03337 0.84902 0.66723 0.0
Zn167 Zn 0.55317 0.58277 0.20361 0.0
Zn168 Zn 0.46697 0.60562 0.35843 0.0
Zn169 Zn 0.51127 0.59659 0.28316 0.0
C170 C 0.5414 0.64658 0.38202 0.0
C171 C 0.47671 0.52682 0.3573 0.0
O172 O 0.47436 0.62616 0.21851 0.0
O173 O 0.52123 0.61583 0.15518 0.0
C174 C 0.61228 0.62451 0.26577 0.0
O175 O 0.55311 0.62891 0.34074 0.0
O176 O 0.50105 0.64547 0.39598 0.0
O177 O 0.46675 0.55336 0.3887 0.0
O178 O 0.49297 0.53672 0.31377 0.0
O179 O 0.61173 0.60385 0.22596 0.0
O180 O 0.5768 0.62669 0.29349 0.0
O181 O 0.52368 0.53164 0.27219 0.0
O182 O 0.54916 0.52558 0.19401 0.0
C183 C 0.53773 0.5099 0.23521 0.0
O184 O 0.44891 0.63076 0.26295 0.0
O185 O 0.40877 0.62189 0.33211 0.0
C186 C 0.48566 0.63116 0.17167 0.0
C187 C 0.41196 0.63521 0.28781 0.0
H188 H 0.11237 0.84243 0.31115 0.0
H189 H 0.17308 0.87027 0.45505 0.0
H190 H 0.13634 0.93436 0.45532 0.0
H191 H 0.09264 0.98423 0.41204 0.0
H192 H 0.04484 0.96308 0.26028 0.0
H193 H 0.07049 0.89468 0.26524 0.0
C194 C 0.11802 0.86279 0.34211 0.0
C195 C 0.1454 0.85158 0.38317 0.0
C196 C 0.09886 0.90069 0.34051 0.0
C197 C 0.15142 0.87787 0.42367 0.0
C198 C 0.1308 0.91467 0.42355 0.0
C199 C 0.08739 0.96472 0.37998 0.0
C200 C 0.06542 0.97862 0.33626 0.0
C201 C 0.10513 0.92659 0.38183 0.0
C202 C 0.05952 0.95279 0.29518 0.0
C203 C 0.07514 0.91385 0.2977 0.0
H204 H 0.3972 0.64696 0.83867 0.0
H205 H 0.32363 0.60426 0.96792 0.0
H206 H 0.36423 0.54214 0.96443 0.0
H207 H 0.41503 0.49815 0.92086 0.0
H208 H 0.477 0.53407 0.78095 0.0
H209 H 0.44668 0.60056 0.79173 0.0
C210 C 0.38983 0.62386 0.86566 0.0
C211 C 0.35777 0.63043 0.904 0.0
C212 C 0.41126 0.58704 0.86128 0.0
C213 C 0.34912 0.60048 0.93923 0.0
C214 C 0.37189 0.56473 0.93676 0.0
C215 C 0.42248 0.52043 0.89267 0.0
C216 C 0.44949 0.51112 0.85048 0.0
C217 C 0.4024 0.55749 0.89749 0.0
C218 C 0.45794 0.54061 0.81449 0.0
C219 C 0.43986 0.57851 0.82037 0.0
H220 H 0.65814 0.63118 0.74302 0.0
H221 H 0.55381 0.67539 0.64541 0.0
H222 H 0.5141 0.61282 0.65186 0.0
H223 H 0.51123 0.54371 0.68285 0.0
H224 H 0.60851 0.50504 0.7927 0.0
H225 H 0.6474 0.56834 0.78684 0.0
C226 C 0.62604 0.62776 0.72437 0.0
C227 C 0.60985 0.65786 0.69264 0.0
C228 C 0.60163 0.59291 0.73148 0.0
C229 C 0.56853 0.6523 0.66796 0.0
C230 C 0.54519 0.61669 0.67255 0.0
C231 C 0.54004 0.54985 0.70669 0.0
C232 C 0.55685 0.52026 0.73867 0.0
C233 C 0.56171 0.58659 0.7038 0.0
C234 C 0.5946 0.52791 0.76875 0.0
C235 C 0.61712 0.56381 0.76486 0.0
H236 H 0.85388 0.86562 0.25294 0.0
H237 H 0.93495 0.82565 0.12802 0.0
H238 H 0.98131 0.88499 0.13449 0.0
H239 H 0.9921 0.95217 0.16951 0.0
H240 H 0.9176 0.98749 0.30172 0.0
H241 H 0.87638 0.92509 0.30034 0.0
C242 C 0.88261 0.86921 0.22829 0.0
C243 C 0.89005 0.84202 0.18891 0.0
C244 C 0.91028 0.90244 0.23378 0.0
C245 C 0.92756 0.847 0.15736 0.0
C246 C 0.95422 0.88075 0.16129 0.0
C247 C 0.9679 0.94546 0.19894 0.0
C248 C 0.95765 0.9741 0.23564 0.0
C249 C 0.94493 0.9093 0.19833 0.0
C250 C 0.92623 0.96551 0.27354 0.0
C251 C 0.90236 0.93008 0.27238 0.0
H252 H 0.88174 0.13946 0.72027 0.0
H253 H 0.82924 0.10004 0.57657 0.0
H254 H 0.87702 0.0424 0.57937 0.0
H255 H 0.92635 -0.0006 0.62612 0.0
H256 H 0.9617 0.02734 0.78063 0.0
H257 H 0.92816 0.09291 0.77083 0.0
C258 C 0.88056 0.11808 0.68981 0.0
C259 C 0.85268 0.12491 0.64746 0.0
C260 C 0.90501 0.08272 0.69402 0.0
C261 C 0.85189 0.09695 0.6082 0.0
C262 C 0.87861 0.06339 0.61032 0.0
C263 C 0.92727 0.0198 0.6578 0.0
C264 C 0.94774 0.00863 0.70372 0.0
C265 C 0.90446 0.05561 0.65346 0.0
C266 C 0.94783 0.03555 0.74425 0.0
C267 C 0.92791 0.07282 0.73888 0.0
H268 H 0.66652 0.3681 0.23944 0.0
H269 H 0.56095 0.31343 0.15284 0.0
H270 H 0.51459 0.37208 0.16315 0.0
H271 H 0.50706 0.44174 0.19237 0.0
H272 H 0.60649 0.48905 0.29408 0.0
H273 H 0.65098 0.42897 0.28591 0.0
C274 C 0.63279 0.36812 0.2243 0.0
C275 C 0.6182 0.33657 0.19375 0.0
C276 C 0.60479 0.40039 0.23424 0.0
C277 C 0.57451 0.33793 0.17376 0.0
C278 C 0.5474 0.37123 0.18076 0.0
C279 C 0.53756 0.43807 0.21423 0.0
C280 C 0.5536 0.46951 0.2439 0.0
C281 C 0.5626 0.40302 0.21018 0.0
C282 C 0.5933 0.46486 0.27173 0.0
C283 C 0.61906 0.43081 0.26642 0.0
H284 H 0.37485 0.37861 0.43552 0.0
H285 H 0.41189 0.33251 0.28932 0.0
H286 H 0.45477 0.39256 0.27149 0.0
H287 H 0.47458 0.46118 0.29554 0.0
H288 H 0.44776 0.50028 0.44838 0.0
H289 H 0.40959 0.43893 0.46648 0.0
C290 C 0.39376 0.38077 0.40063 0.0
C291 C 0.3896 0.35136 0.36356 0.0
C292 C 0.42015 0.41417 0.39187 0.0
C293 C 0.41351 0.35535 0.31789 0.0
C294 C 0.43831 0.38949 0.30788 0.0
C295 C 0.46211 0.45574 0.3333 0.0
C296 C 0.46373 0.48579 0.37005 0.0
C297 C 0.44096 0.41962 0.34425 0.0
C298 C 0.4465 0.47814 0.4188 0.0
C299 C 0.42445 0.443 0.42937 0.0
H300 H 0.10648 0.14739 0.79612 0.0
H301 H 0.16844 0.1187 0.93905 0.0
H302 H 0.13313 0.0541 0.93784 0.0
H303 H 0.08847 0.00512 0.89503 0.0
H304 H 0.03994 0.02607 0.74344 0.0
H305 H 0.06652 0.0945 0.74848 0.0
C306 C 0.11286 0.12671 0.82644 0.0
C307 C 0.13965 0.13802 0.86805 0.0
C308 C 0.09479 0.08844 0.82382 0.0
C309 C 0.14685 0.11116 0.90755 0.0
C310 C 0.12715 0.07407 0.90653 0.0
C311 C 0.0835 0.02444 0.86279 0.0
C312 C 0.0607 0.01077 0.81946 0.0
C313 C 0.10146 0.06236 0.86472 0.0
C314 C 0.0554 0.03632 0.7781 0.0
C315 C 0.0713 0.07523 0.78073 0.0
H316 H 0.19094 0.18249 1.00648 0.0
H317 H 0.07341 0.20244 0.91552 0.0
H318 H 0.02521 0.18689 0.98789 0.0
H319 H 0.01668 0.16281 0.07413 0.0
H320 H 0.13295 0.13763 0.16522 0.0
H321 H 0.18186 0.16117 0.09667 0.0
C322 C 0.15477 0.18414 1.00325 0.0
C323 C 0.13536 0.19385 0.95616 0.0
C324 C 0.12735 0.17427 0.04495 0.0
C325 C 0.08863 0.19521 0.9516 0.0
C326 C 0.06127 0.18624 0.99284 0.0
C327 C 0.05276 0.16282 0.07937 0.0
C328 C 0.07122 0.14863 0.12502 0.0
C329 C 0.08026 0.17502 0.0393 0.0
C330 C 0.11795 0.14914 0.13107 0.0
C331 C 0.14583 0.16209 0.0915 0.0
H332 H 0.32452 0.31762 0.50863 0.0
H333 H 0.44163 0.28999 0.42019 0.0
H334 H 0.4898 0.30396 0.49319 0.0
H335 H 0.49879 0.32934 0.57901 0.0
H336 H 0.38286 0.35979 0.66832 0.0
H337 H 0.33365 0.33813 0.59894 0.0
C338 C 0.36052 0.31382 0.50602 0.0
C339 C 0.3798 0.30281 0.45928 0.0
C340 C 0.38796 0.32242 0.54817 0.0
C341 C 0.42641 0.29855 0.45579 0.0
C342 C 0.45378 0.30657 0.49743 0.0
C343 C 0.46269 0.33084 0.58367 0.0
C344 C 0.44451 0.34631 0.62879 0.0
C345 C 0.43499 0.31934 0.54336 0.0
C346 C 0.39772 0.34761 0.63433 0.0
C347 C 0.36964 0.33564 0.59437 0.0
H348 H 0.68156 0.33964 0.05837 0.0
H349 H 0.58709 0.25258 0.10899 0.0
H350 H 0.54369 0.26013 0.03071 0.0
H351 H 0.52923 0.29589 0.95182 0.0
H352 H 0.62506 0.38062 0.89714 0.0
H353 H 0.67243 0.36889 0.97189 0.0
C354 C 0.65129 0.32268 0.05195 0.0
C355 C 0.63565 0.29728 0.0902 0.0
C356 C 0.62742 0.32637 1.00596 0.0
C357 C 0.59807 0.27363 0.0808 0.0
C358 C 0.57369 0.27768 0.03599 0.0
C359 C 0.56114 0.31097 0.95559 0.0
C360 C 0.57364 0.33914 0.91923 0.0
C361 C 0.58756 0.30449 0.99879 0.0
C362 C 0.61501 0.35848 0.92439 0.0
C363 C 0.64169 0.35221 0.96754 0.0
H364 H 0.89685 0.20049 0.58293 0.0
H365 H 0.77644 0.1529 0.51801 0.0
H366 H 0.8159 0.13958 0.43782 0.0
H367 H 0.88832 0.13405 0.39079 0.0
H368 H 0.0068 0.18627 0.45634 0.0
H369 H 0.96461 0.20619 0.5308 0.0
C370 C 0.87938 0.1878 0.55076 0.0
C371 C 0.8345 0.17682 0.5561 0.0
C372 C 0.902 0.18111 0.50492 0.0
C373 C 0.81136 0.16112 0.51431 0.0
C374 C 0.83392 0.15347 0.46872 0.0
C375 C 0.90433 0.15103 0.42054 0.0
C376 C 0.95074 0.15818 0.41832 0.0
C377 C 0.87972 0.16238 0.46397 0.0
C378 C 0.97119 0.17998 0.45744 0.0
C379 C 0.9472 0.19122 0.50028 0.0
H380 H 0.86401 0.76634 0.04752 0.0
H381 H 0.83919 0.88067 0.1126 0.0
H382 H 0.86863 0.91235 0.03613 0.0
H383 H 0.90983 0.90679 0.95541 0.0
H384 H 0.9304 0.79269 0.88784 0.0
H385 H 0.8922 0.76132 0.95952 0.0
C386 C 0.86391 0.79816 0.04425 0.0
C387 C 0.85059 0.82126 0.08597 0.0
C388 C 0.87977 0.81602 0.99966 0.0
C389 C 0.85044 0.86245 0.08139 0.0
C390 C 0.86705 0.88047 0.03765 0.0
C391 C 0.90452 0.87517 0.95572 0.0
C392 C 0.92258 0.85196 0.91655 0.0
C393 C 0.88299 0.85751 0.9972 0.0
C394 C 0.91599 0.81106 0.91721 0.0
C395 C 0.89479 0.79316 0.95856 0.0
H396 H 0.67167 0.66182 0.56739 0.0
H397 H 0.57432 0.74954 0.60875 0.0
H398 H 0.53711 0.74227 0.52645 0.0
H399 H 0.5288 0.70697 0.44631 0.0
H400 H 0.62626 0.61976 0.40223 0.0
H401 H 0.6683 0.63175 0.48081 0.0
C402 C 0.64215 0.67895 0.55803 0.0
C403 C 0.62422 0.70496 0.59425 0.0
C404 C 0.62171 0.67519 0.51003 0.0
C405 C 0.58733 0.7285 0.58158 0.0
C406 C 0.56647 0.72456 0.53459 0.0
C407 C 0.55993 0.69132 0.45328 0.0
C408 C 0.57427 0.66236 0.41879 0.0
C409 C 0.58295 0.69759 0.49889 0.0
C410 C 0.61474 0.64245 0.42804 0.0
C411 C 0.63833 0.64883 0.47338 0.0
H412 H 0.40867 0.7019 0.97124 0.0
H413 H 0.28485 0.6589 0.03287 0.0
H414 H 0.32266 0.64204 0.11294 0.0
H415 H 0.39375 0.63315 0.16138 0.0
H416 H 0.51676 0.67802 0.09784 0.0
H417 H 0.47674 0.7015 1.02348 0.0
C418 C 0.39016 0.68936 1.00268 0.0
C419 C 0.34456 0.68113 0.99659 0.0
C420 C 0.41204 0.68019 0.04827 0.0
C421 C 0.32022 0.66522 0.03724 0.0
C422 C 0.34184 0.65558 0.08277 0.0
C423 C 0.41137 0.64914 0.13195 0.0
C424 C 0.4582 0.65353 0.1349 0.0
C425 C 0.3881 0.66213 0.08839 0.0
C426 C 0.48074 0.674 0.09622 0.0
C427 C 0.45797 0.68726 0.05347 0.0
H428 H 0.19424 0.8078 0.52025 0.0
H429 H 0.08272 0.77849 0.4239 0.0
H430 H 0.03067 0.78818 0.49452 0.0
H431 H 0.0165 0.81086 0.58011 0.0
H432 H 0.12594 0.84614 0.67696 0.0
H433 H 0.17963 0.82707 0.61056 0.0
C434 C 0.15857 0.80299 0.51545 0.0
C435 C 0.14186 0.79243 0.46733 0.0
C436 C 0.1288 0.80969 0.55615 0.0
C437 C 0.0958 0.78659 0.46076 0.0
C438 C 0.06626 0.79218 0.50102 0.0
C439 C 0.05215 0.81404 0.58719 0.0
C440 C 0.06711 0.83037 0.63334 0.0
C441 C 0.0823 0.80457 0.54842 0.0
C442 C 0.11346 0.8336 0.64193 0.0
C443 C 0.14411 0.82307 0.6037 0.0
H444 H 0.29288 0.21916 0.29505 0.0
H445 H 0.21672 0.30367 0.38061 0.0
H446 H 0.14641 0.27368 0.35137 0.0
H447 H 0.10787 0.2179 0.31193 0.0
H448 H 0.1841 0.12768 0.23648 0.0
H449 H 0.253 0.1659 0.24851 0.0
C450 C 0.26067 0.23099 0.30649 0.0
C451 C 0.25927 0.26306 0.3401 0.0
C452 C 0.22064 0.21288 0.29045 0.0
C453 C 0.21791 0.27866 0.3551 0.0
C454 C 0.178 0.26166 0.33822 0.0
C455 C 0.13934 0.20767 0.29596 0.0
C456 C 0.14082 0.1708 0.2718 0.0
C457 C 0.179 0.22815 0.30698 0.0
C458 C 0.18192 0.15677 0.25323 0.0
C459 C 0.22145 0.17818 0.26135 0.0
H460 H 0.28516 0.21156 0.81064 0.0
H461 H 0.18965 0.30444 0.83667 0.0
H462 H 0.24336 0.35319 0.80517 0.0
H463 H 0.32145 0.36953 0.78429 0.0
H464 H 0.41657 0.27674 0.75629 0.0
H465 H 0.35824 0.22724 0.77093 0.0
C466 C 0.27568 0.2423 0.80757 0.0
C467 C 0.23381 0.25466 0.82626 0.0
C468 C 0.30645 0.26991 0.78846 0.0
C469 C 0.22202 0.29458 0.82314 0.0
C470 C 0.25257 0.3223 0.80486 0.0
C471 C 0.32866 0.33848 0.77876 0.0
C472 C 0.37298 0.3266 0.76926 0.0
C473 C 0.2954 0.31041 0.7891 0.0
C474 C 0.38244 0.28643 0.76285 0.0
C475 C 0.34932 0.25817 0.77236 0.0
H476 H 0.77544 0.26033 0.73245 0.0
H477 H 0.68136 0.18334 0.65874 0.0
H478 H 0.61847 0.22048 0.69504 0.0
H479 H 0.59138 0.28078 0.73584 0.0
H480 H 0.68528 0.36262 0.80099 0.0
H481 H 0.74732 0.31736 0.78229 0.0
C482 C 0.74104 0.25154 0.72549 0.0
C483 C 0.73239 0.2196 0.69312 0.0
C484 C 0.70534 0.27379 0.74538 0.0
C485 C 0.68813 0.20807 0.68356 0.0
C486 C 0.65245 0.22924 0.7043 0.0
C487 C 0.62525 0.2877 0.74804 0.0
C488 C 0.63395 0.32436 0.77064 0.0
C489 C 0.66068 0.26286 0.7339 0.0
C490 C 0.67793 0.33401 0.78471 0.0
C491 C 0.71338 0.30847 0.77311 0.0
H492 H 0.72204 0.20595 0.25491 0.0
H493 H 0.79124 0.29494 0.1694 0.0
H494 H 0.86368 0.26683 0.19397 0.0
H495 H 0.90614 0.21159 0.22944 0.0
H496 H 0.83758 0.1199 0.31076 0.0
H497 H 0.76618 0.15496 0.30062 0.0
C498 C 0.75315 0.2195 0.24286 0.0
C499 C 0.75178 0.2522 0.21025 0.0
C500 C 0.7946 0.20284 0.25688 0.0
C501 C 0.79197 0.26953 0.19416 0.0
C502 C 0.83319 0.25355 0.20833 0.0
C503 C 0.8758 0.20032 0.24689 0.0
C504 C 0.87699 0.16381 0.27172 0.0
C505 C 0.83486 0.21959 0.23848 0.0
C506 C 0.83745 0.14856 0.29274 0.0
C507 C 0.79657 0.16825 0.28603 0.0
H508 H 0.75553 0.72354 0.75808 0.0
H509 H 0.67832 0.82154 0.70283 0.0
H510 H 0.73728 0.86735 0.72928 0.0
H511 H 0.81605 0.87713 0.75163 0.0
H512 H 0.89605 0.77906 0.80141 0.0
H513 H 0.83051 0.73559 0.79606 0.0
C514 C 0.75134 0.75506 0.75346 0.0
C515 C 0.71339 0.76946 0.72789 0.0
C516 C 0.78589 0.78097 0.76783 0.0
C517 C 0.70781 0.81016 0.72175 0.0
C518 C 0.74141 0.83618 0.73687 0.0
C519 C 0.81847 0.84658 0.76346 0.0
C520 C 0.86042 0.83113 0.77698 0.0
C521 C 0.7814 0.82169 0.75769 0.0
C522 C 0.86377 0.79157 0.79174 0.0
C523 C 0.82649 0.76664 0.78769 0.0
H524 H 0.7431 0.76836 0.25959 0.0
H525 H 0.81733 0.68592 0.16848 0.0
H526 H 0.76685 0.63261 0.19385 0.0
H527 H 0.6959 0.61229 0.23103 0.0
H528 H 0.61691 0.69513 0.317 0.0
H529 H 0.67555 0.74513 0.30667 0.0
C530 C 0.74848 0.73845 0.24649 0.0
C531 C 0.78334 0.73069 0.21203 0.0
C532 C 0.71847 0.70824 0.26032 0.0
C533 C 0.79036 0.69215 0.19476 0.0
C534 C 0.76156 0.66187 0.20924 0.0
C535 C 0.69191 0.64101 0.24858 0.0
C536 C 0.65181 0.65018 0.27406 0.0
C537 C 0.72463 0.66991 0.24046 0.0
C538 C 0.64744 0.68729 0.29722 0.0
C539 C 0.68074 0.71606 0.29069 0.0
H540 H 0.29291 0.77878 0.31903 0.0
H541 H 0.19489 0.68781 0.34403 0.0
H542 H 0.24631 0.63842 0.30938 0.0
H543 H 0.32348 0.62049 0.28644 0.0
H544 H 0.42099 0.71139 0.25879 0.0
H545 H 0.36458 0.762 0.27642 0.0
C546 C 0.28232 0.74838 0.31503 0.0
C547 C 0.24048 0.73669 0.3345 0.0
C548 C 0.31179 0.72037 0.29408 0.0
C549 C 0.22729 0.69716 0.33002 0.0
C550 C 0.25653 0.66906 0.30995 0.0
C551 C 0.33163 0.65143 0.28172 0.0
C552 C 0.37622 0.66234 0.27174 0.0
C553 C 0.29945 0.68015 0.29364 0.0
C554 C 0.38673 0.70238 0.26597 0.0
C555 C 0.3547 0.73129 0.27718 0.0
H556 H 0.2098 0.69932 0.83466 0.0
H557 H 0.30094 0.79284 0.87361 0.0
H558 H 0.24924 0.84157 0.83797 0.0
H559 H 0.17339 0.85761 0.80862 0.0
H560 H 0.08127 0.76467 0.7704 0.0
H561 H 0.13867 0.71522 0.79021 0.0
C562 C 0.21872 0.73027 0.83372 0.0
C563 C 0.25879 0.7428 0.85679 0.0
C564 C 0.1888 0.75797 0.81298 0.0
C565 C 0.27 0.7829 0.85632 0.0
C566 C 0.24056 0.8106 0.83588 0.0
C567 C 0.16674 0.82653 0.80242 0.0
C568 C 0.12358 0.81457 0.78778 0.0
C569 C 0.19926 0.79856 0.81569 0.0
C570 C 0.11465 0.77438 0.78074 0.0
C571 C 0.1472 0.74618 0.793 0.0
loop_
_geom_bond_atom_site_label_1
_geom_bond_atom_site_label_2
_geom_bond_distance
_geom_bond_site_symmetry_2
_ccdc_geom_bond_type
C0 N1 1.317 . S
C0 N2 1.348 . S
C0 C3 1.485 . S
N1 C0 1.317 . S
N1 N5 1.370 . S
N2 C0 1.348 . S
N2 C4 1.346 . S
C3 C0 1.485 . S
C3 H7 0.960 . S
C3 H8 0.961 . S
C3 H9 0.960 . S
C4 N2 1.346 . S
C4 N5 1.307 . S
C4 C6 1.486 . S
N5 N1 1.370 . S
N5 C4 1.307 . S
C6 C4 1.486 . S
C6 H10 0.960 . S
C6 H11 0.960 . S
C6 H12 0.959 . S
H7 C3 0.960 . S
H8 C3 0.961 . S
H9 C3 0.960 . S
H10 C6 0.960 . S
H11 C6 0.960 . S
H12 C6 0.959 . S
C13 N14 1.317 . S
C13 N15 1.348 . S
C13 C16 1.485 . S
N14 C13 1.317 . S
N14 N18 1.370 . S
N15 C13 1.348 . S
N15 C17 1.346 . S
C16 C13 1.485 . S
C16 H20 0.960 . S
C16 H21 0.961 . S
C16 H22 0.960 . S
C17 N15 1.346 . S
C17 N18 1.307 . S
C17 C19 1.486 . S
N18 N14 1.370 . S
N18 C17 1.307 . S
C19 C17 1.486 . S
C19 H23 0.960 . S
C19 H24 0.960 . S
C19 H25 0.959 . S
H20 C16 0.960 . S
H21 C16 0.961 . S
H22 C16 0.960 . S
H23 C19 0.960 . S
H24 C19 0.960 . S
H25 C19 0.959 . S
C26 N27 1.317 . S
C26 N28 1.348 . S
C26 C29 1.485 . S
N27 C26 1.317 . S
N27 N31 1.370 . S
N28 C26 1.348 . S
N28 C30 1.346 . S
C29 C26 1.485 . S
C29 H33 0.960 . S
C29 H34 0.961 . S
C29 H35 0.960 . S
C30 N28 1.346 . S
C30 N31 1.307 . S
C30 C32 1.486 . S
N31 N27 1.370 . S
N31 C30 1.307 . S
C32 C30 1.486 . S
C32 H36 0.960 . S
C32 H37 0.960 . S
C32 H38 0.959 . S
H33 C29 0.960 . S
H34 C29 0.961 . S
H35 C29 0.960 . S
H36 C32 0.960 . S
H37 C32 0.960 . S
H38 C32 0.959 . S
C39 N40 1.317 . S
C39 N41 1.348 . S
C39 C42 1.485 . S
N40 C39 1.317 . S
N40 N44 1.370 . S
N41 C39 1.348 . S
N41 C43 1.346 . S
C42 C39 1.485 . S
C42 H46 0.960 . S
C42 H47 0.961 . S
C42 H48 0.960 . S
C43 N41 1.346 . S
C43 N44 1.307 . S
C43 C45 1.486 . S
N44 N40 1.370 . S
N44 C43 1.307 . S
C45 C43 1.486 . S
C45 H49 0.960 . S
C45 H50 0.960 . S
C45 H51 0.959 . S
H46 C42 0.960 . S
H47 C42 0.961 . S
H48 C42 0.960 . S
H49 C45 0.960 . S
H50 C45 0.960 . S
H51 C45 0.959 . S
C52 N53 1.317 . S
C52 N54 1.348 . S
C52 C55 1.485 . S
N53 C52 1.317 . S
N53 N57 1.370 . S
N54 C52 1.348 . S
N54 C56 1.346 . S
C55 C52 1.485 . S
C55 H59 0.960 . S
C55 H60 0.961 . S
C55 H61 0.960 . S
C56 N54 1.346 . S
C56 N57 1.307 . S
C56 C58 1.486 . S
N57 N53 1.370 . S
N57 C56 1.307 . S
C58 C56 1.486 . S
C58 H62 0.960 . S
C58 H63 0.960 . S
C58 H64 0.959 . S
H59 C55 0.960 . S
H60 C55 0.961 . S
H61 C55 0.960 . S
H62 C58 0.960 . S
H63 C58 0.960 . S
H64 C58 0.959 . S
C65 N66 1.317 . S
C65 N67 1.348 . S
C65 C68 1.485 . S
N66 C65 1.317 . S
N66 N70 1.370 . S
N67 C65 1.348 . S
N67 C69 1.346 . S
C68 C65 1.485 . S
C68 H72 0.960 . S
C68 H73 0.961 . S
C68 H74 0.960 . S
C69 N67 1.346 . S
C69 N70 1.307 . S
C69 C71 1.486 . S
N70 N66 1.370 . S
N70 C69 1.307 . S
C71 C69 1.486 . S
C71 H75 0.960 . S
C71 H76 0.960 . S
C71 H77 0.959 . S
H72 C68 0.960 . S
H73 C68 0.961 . S
H74 C68 0.960 . S
H75 C71 0.960 . S
H76 C71 0.960 . S
H77 C71 0.959 . S
C78 N79 1.317 . S
C78 N80 1.348 . S
C78 C81 1.485 . S
N79 C78 1.317 . S
N79 N83 1.370 . S
N80 C78 1.348 . S
N80 C82 1.346 . S
C81 C78 1.485 . S
C81 H85 0.960 . S
C81 H86 0.961 . S
C81 H87 0.960 . S
C82 N80 1.346 . S
C82 N83 1.307 . S
C82 C84 1.486 . S
N83 N79 1.370 . S
N83 C82 1.307 . S
C84 C82 1.486 . S
C84 H88 0.960 . S
C84 H89 0.960 . S
C84 H90 0.959 . S
H85 C81 0.960 . S
H86 C81 0.961 . S
H87 C81 0.960 . S
H88 C84 0.960 . S
H89 C84 0.960 . S
H90 C84 0.959 . S
C91 N92 1.317 . S
C91 N93 1.348 . S
C91 C94 1.485 . S
N92 C91 1.317 . S
N92 N96 1.370 . S
N93 C91 1.348 . S
N93 C95 1.346 . S
C94 C91 1.485 . S
C94 H98 0.960 . S
C94 H99 0.961 . S
C94 H100 0.960 . S
C95 N93 1.346 . S
C95 N96 1.307 . S
C95 C97 1.486 . S
N96 N92 1.370 . S
N96 C95 1.307 . S
C97 C95 1.486 . S
C97 H101 0.960 . S
C97 H102 0.960 . S
C97 H103 0.959 . S
H98 C94 0.960 . S
H99 C94 0.961 . S
H100 C94 0.960 . S
H101 C97 0.960 . S
H102 C97 0.960 . S
H103 C97 0.959 . S
Zn104 O110 1.931 . S
Zn104 O116 1.898 . S
Zn104 O119 1.905 . S
Zn105 O113 1.905 1_655 S
Zn105 O114 1.898 . S
Zn105 O122 1.920 . S
Zn106 O109 2.080 1_455 S
Zn106 O112 2.114 . S
Zn106 O115 2.120 1_455 S
Zn106 O117 2.120 . S
Zn106 O118 2.114 . S
Zn106 O121 2.080 1_455 S
C107 O112 1.166 . S
C107 O113 1.182 . S
C108 O114 1.167 . S
C108 O115 1.299 . S
O109 Zn106 2.080 1_655 S
O109 C123 1.305 . S
O110 Zn104 1.931 . S
O110 C123 1.224 1_455 S
C111 O116 1.167 . S
C111 O117 1.299 . S
O112 Zn106 2.114 . S
O112 C107 1.166 . S
O113 Zn105 1.905 1_455 S
O113 C107 1.182 . S
O114 Zn105 1.898 . S
O114 C108 1.167 . S
O115 Zn106 2.120 1_655 S
O115 C108 1.299 . S
O116 Zn104 1.898 . S
O116 C111 1.167 . S
O117 Zn106 2.120 . S
O117 C111 1.299 . S
O118 Zn106 2.114 . S
O118 C120 1.166 . S
O119 Zn104 1.905 . S
O119 C120 1.182 . S
C120 O118 1.166 . S
C120 O119 1.182 . S
O121 Zn106 2.080 1_655 S
O121 C124 1.305 . S
O122 Zn105 1.920 . S
O122 C124 1.234 . S
C123 O109 1.305 . S
C123 O110 1.224 1_655 S
C124 O121 1.305 . S
C124 O122 1.234 . S
Zn125 O131 1.920 . S
Zn125 O137 1.898 . S
Zn125 O140 1.905 . S
Zn126 O134 1.905 . S
Zn126 O135 1.898 . S
Zn126 O143 1.920 . S
Zn127 O130 2.080 . S
Zn127 O133 2.114 . S
Zn127 O136 2.120 . S
Zn127 O138 2.120 . S
Zn127 O139 2.114 . S
Zn127 O142 2.080 . S
C128 O133 1.166 . S
C128 O134 1.182 . S
C129 O135 1.167 . S
C129 O136 1.299 . S
O130 Zn127 2.080 . S
O130 C144 1.305 . S
O131 Zn125 1.920 . S
O131 C144 1.234 . S
C132 O137 1.167 . S
C132 O138 1.299 . S
O133 Zn127 2.114 . S
O133 C128 1.166 . S
O134 Zn126 1.905 . S
O134 C128 1.182 . S
O135 Zn126 1.898 . S
O135 C129 1.167 . S
O136 Zn127 2.120 . S
O136 C129 1.299 . S
O137 Zn125 1.898 . S
O137 C132 1.167 . S
O138 Zn127 2.120 . S
O138 C132 1.299 . S
O139 Zn127 2.114 . S
O139 C141 1.166 . S
O140 Zn125 1.905 . S
O140 C141 1.182 . S
C141 O139 1.166 . S
C141 O140 1.182 . S
O142 Zn127 2.080 . S
O142 C145 1.305 . S
O143 Zn126 1.920 . S
O143 C145 1.234 . S
C144 O130 1.305 . S
C144 O131 1.234 . S
C145 O142 1.305 . S
C145 O143 1.234 . S
Zn146 O152 1.920 . S
Zn146 O158 1.898 . S
Zn146 O161 1.905 1_455 S
Zn147 O155 1.905 . S
Zn147 O156 1.898 . S
Zn147 O164 1.920 1_655 S
Zn148 O151 2.080 . S
Zn148 O154 2.114 1_455 S
Zn148 O157 2.120 1_455 S
Zn148 O159 2.120 . S
Zn148 O160 2.114 1_455 S
Zn148 O163 2.080 . S
C149 O154 1.166 . S
C149 O155 1.182 . S
C150 O156 1.167 . S
C150 O157 1.299 . S
O151 Zn148 2.080 . S
O151 C165 1.305 . S
O152 Zn146 1.920 . S
O152 C165 1.234 . S
C153 O158 1.167 . S
C153 O159 1.299 . S
O154 Zn148 2.114 1_655 S
O154 C149 1.166 . S
O155 Zn147 1.905 . S
O155 C149 1.182 . S
O156 Zn147 1.898 . S
O156 C150 1.167 . S
O157 Zn148 2.120 1_655 S
O157 C150 1.299 . S
O158 Zn146 1.898 . S
O158 C153 1.167 . S
O159 Zn148 2.120 . S
O159 C153 1.299 . S
O160 Zn148 2.114 1_655 S
O160 C162 1.166 . S
O161 Zn146 1.905 1_655 S
O161 C162 1.182 . S
C162 O160 1.166 . S
C162 O161 1.182 . S
O163 Zn148 2.080 . S
O163 C166 1.305 . S
O164 Zn147 1.920 1_455 S
O164 C166 1.234 . S
C165 O151 1.305 . S
C165 O152 1.234 . S
C166 O163 1.305 . S
C166 O164 1.234 . S
Zn167 O173 1.920 . S
Zn167 O179 1.898 . S
Zn167 O182 1.905 . S
Zn168 O176 1.905 . S
Zn168 O177 1.898 . S
Zn168 O185 1.920 . S
Zn169 O172 2.080 . S
Zn169 O175 2.114 . S
Zn169 O178 2.120 . S
Zn169 O180 2.120 . S
Zn169 O181 2.114 . S
Zn169 O184 2.080 . S
C170 O175 1.166 . S
C170 O176 1.182 . S
C171 O177 1.167 . S
C171 O178 1.299 . S
O172 Zn169 2.080 . S
O172 C186 1.305 . S
O173 Zn167 1.920 . S
O173 C186 1.234 . S
C174 O179 1.167 . S
C174 O180 1.299 . S
O175 Zn169 2.114 . S
O175 C170 1.166 . S
O176 Zn168 1.905 . S
O176 C170 1.182 . S
O177 Zn168 1.898 . S
O177 C171 1.167 . S
O178 Zn169 2.120 . S
O178 C171 1.299 . S
O179 Zn167 1.898 . S
O179 C174 1.167 . S
O180 Zn169 2.120 . S
O180 C174 1.299 . S
O181 Zn169 2.114 . S
O181 C183 1.166 . S
O182 Zn167 1.905 . S
O182 C183 1.182 . S
C183 O181 1.166 . S
C183 O182 1.182 . S
O184 Zn169 2.080 . S
O184 C187 1.305 . S
O185 Zn168 1.920 . S
O185 C187 1.234 . S
C186 O172 1.305 . S
C186 O173 1.234 . S
C187 O184 1.305 . S
C187 O185 1.234 . S
H188 C194 0.930 . S
H189 C197 0.930 . S
H190 C198 0.930 . S
H191 C199 0.930 1_545 S
H192 C202 0.930 1_545 S
H193 C203 0.930 . S
C194 H188 0.930 . S
C194 C195 1.355 . S
C194 C196 1.415 . S
C195 C194 1.355 . S
C195 C197 1.419 . S
C196 C194 1.415 . S
C196 C201 1.425 . S
C196 C203 1.409 . S
C197 H189 0.930 . S
C197 C195 1.419 . S
C197 C198 1.362 . S
C198 H190 0.930 . S
C198 C197 1.362 . S
C198 C201 1.409 . S
C199 H191 0.930 1_565 S
C199 C200 1.355 1_565 S
C199 C201 1.415 . S
C200 C199 1.355 1_545 S
C200 C202 1.419 1_545 S
C201 C196 1.425 . S
C201 C198 1.409 . S
C201 C199 1.415 . S
C202 H192 0.930 1_565 S
C202 C200 1.419 1_565 S
C202 C203 1.362 . S
C203 H193 0.930 . S
C203 C196 1.409 . S
C203 C202 1.362 . S
H204 C210 0.930 . S
H205 C213 0.930 . S
H206 C214 0.930 . S
H207 C215 0.930 . S
H208 C218 0.930 . S
H209 C219 0.930 . S
C210 H204 0.930 . S
C210 C211 1.355 . S
C210 C212 1.415 . S
C211 C210 1.355 . S
C211 C213 1.419 . S
C212 C210 1.415 . S
C212 C217 1.425 . S
C212 C219 1.409 . S
C213 H205 0.930 . S
C213 C211 1.419 . S
C213 C214 1.362 . S
C214 H206 0.930 . S
C214 C213 1.362 . S
C214 C217 1.409 . S
C215 H207 0.930 . S
C215 C216 1.355 . S
C215 C217 1.415 . S
C216 C215 1.355 . S
C216 C218 1.419 . S
C217 C212 1.425 . S
C217 C214 1.409 . S
C217 C215 1.415 . S
C218 H208 0.930 . S
C218 C216 1.419 . S
C218 C219 1.362 . S
C219 H209 0.930 . S
C219 C212 1.409 . S
C219 C218 1.362 . S
H220 C226 0.930 . S
H221 C229 0.930 . S
H222 C230 0.930 . S
H223 C231 0.930 . S
H224 C234 0.930 . S
H225 C235 0.930 . S
C226 H220 0.930 . S
C226 C227 1.355 . S
C226 C228 1.415 . S
C227 C226 1.355 . S
C227 C229 1.419 . S
C228 C226 1.415 . S
C228 C233 1.425 . S
C228 C235 1.409 . S
C229 H221 0.930 . S
C229 C227 1.419 . S
C229 C230 1.362 . S
C230 H222 0.930 . S
C230 C229 1.362 . S
C230 C233 1.409 . S
C231 H223 0.930 . S
C231 C232 1.355 . S
C231 C233 1.415 . S
C232 C231 1.355 . S
C232 C234 1.419 . S
C233 C228 1.425 . S
C233 C230 1.409 . S
C233 C231 1.415 . S
C234 H224 0.930 . S
C234 C232 1.419 . S
C234 C235 1.362 . S
C235 H225 0.930 . S
C235 C228 1.409 . S
C235 C234 1.362 . S
H236 C242 0.930 . S
H237 C245 0.930 . S
H238 C246 0.930 . S
H239 C247 0.930 . S
H240 C250 0.930 . S
H241 C251 0.930 . S
C242 H236 0.930 . S
C242 C243 1.355 . S
C242 C244 1.415 . S
C243 C242 1.355 . S
C243 C245 1.419 . S
C244 C242 1.415 . S
C244 C249 1.425 . S
C244 C251 1.409 . S
C245 H237 0.930 . S
C245 C243 1.419 . S
C245 C246 1.362 . S
C246 H238 0.930 . S
C246 C245 1.362 . S
C246 C249 1.409 . S
C247 H239 0.930 . S
C247 C248 1.355 1_565 S
C247 C249 1.415 . S
C248 C247 1.355 1_545 S
C248 C250 1.419 . S
C249 C244 1.425 . S
C249 C246 1.409 . S
C249 C247 1.415 . S
C250 H240 0.930 . S
C250 C248 1.419 . S
C250 C251 1.362 1_545 S
C251 H241 0.930 . S
C251 C244 1.409 . S
C251 C250 1.362 1_565 S
H252 C258 0.930 . S
H253 C261 0.930 . S
H254 C262 0.930 . S
H255 C263 0.926 1_565 S
H256 C266 0.930 1_455 S
H257 C267 0.930 . S
C258 H252 0.930 . S
C258 C259 1.355 . S
C258 C260 1.415 . S
C259 C258 1.355 . S
C259 C261 1.419 . S
C260 C258 1.415 . S
C260 C265 1.425 . S
C260 C267 1.409 . S
C261 H253 0.930 . S
C261 C259 1.419 . S
C261 C262 1.362 . S
C262 H254 0.930 . S
C262 C261 1.362 . S
C262 C265 1.409 . S
C263 H255 0.926 1_545 S
C263 C264 1.354 1_545 S
C263 C265 1.419 . S
C264 C263 1.354 1_565 S
C264 C266 1.419 1_565 S
C265 C260 1.425 . S
C265 C262 1.409 . S
C265 C263 1.419 . S
C266 H256 0.930 1_655 S
C266 C264 1.419 1_545 S
C266 C267 1.362 . S
C267 H257 0.930 . S
C267 C260 1.409 . S
C267 C266 1.362 . S
H268 C274 0.930 . S
H269 C277 0.930 . S
H270 C278 0.930 . S
H271 C279 0.930 . S
H272 C282 0.930 . S
H273 C283 0.930 . S
C274 H268 0.930 . S
C274 C275 1.355 . S
C274 C276 1.415 . S
C275 C274 1.355 . S
C275 C277 1.419 . S
C276 C274 1.415 . S
C276 C281 1.425 . S
C276 C283 1.409 . S
C277 H269 0.930 . S
C277 C275 1.419 . S
C277 C278 1.362 . S
C278 H270 0.930 . S
C278 C277 1.362 . S
C278 C281 1.409 . S
C279 H271 0.930 . S
C279 C280 1.355 . S
C279 C281 1.415 . S
C280 C279 1.355 . S
C280 C282 1.419 . S
C281 C276 1.425 . S
C281 C278 1.409 . S
C281 C279 1.415 . S
C282 H272 0.930 . S
C282 C280 1.419 . S
C282 C283 1.362 . S
C283 H273 0.930 . S
C283 C276 1.409 . S
C283 C282 1.362 . S
H284 C290 0.930 . S
H285 C293 0.930 . S
H286 C294 0.930 . S
H287 C295 0.930 . S
H288 C298 0.930 . S
H289 C299 0.930 . S
C290 H284 0.930 . S
C290 C291 1.355 . S
C290 C292 1.415 . S
C291 C290 1.355 . S
C291 C293 1.419 . S
C292 C290 1.415 . S
C292 C297 1.425 . S
C292 C299 1.409 . S
C293 H285 0.930 . S
C293 C291 1.419 . S
C293 C294 1.362 . S
C294 H286 0.930 . S
C294 C293 1.362 . S
C294 C297 1.409 . S
C295 H287 0.930 . S
C295 C296 1.355 . S
C295 C297 1.415 . S
C296 C295 1.355 . S
C296 C298 1.419 . S
C297 C292 1.425 . S
C297 C294 1.409 . S
C297 C295 1.415 . S
C298 H288 0.930 . S
C298 C296 1.419 . S
C298 C299 1.362 . S
C299 H289 0.930 . S
C299 C292 1.409 . S
C299 C298 1.362 . S
H300 C306 0.930 . S
H301 C309 0.930 . S
H302 C310 0.930 . S
H303 C311 0.930 1_565 S
H304 C314 0.930 . S
H305 C315 0.930 . S
C306 H300 0.930 . S
C306 C307 1.355 . S
C306 C308 1.415 . S
C307 C306 1.355 . S
C307 C309 1.419 . S
C308 C306 1.415 . S
C308 C313 1.425 . S
C308 C315 1.409 . S
C309 H301 0.930 . S
C309 C307 1.419 . S
C309 C310 1.362 . S
C310 H302 0.930 . S
C310 C309 1.362 . S
C310 C313 1.409 . S
C311 H303 0.930 1_545 S
C311 C312 1.355 1_545 S
C311 C313 1.415 . S
C312 C311 1.355 1_565 S
C312 C314 1.419 1_565 S
C313 C308 1.425 . S
C313 C310 1.409 . S
C313 C311 1.415 . S
C314 H304 0.930 . S
C314 C312 1.419 1_545 S
C314 C315 1.362 . S
C315 H305 0.930 . S
C315 C308 1.409 . S
C315 C314 1.362 . S
H316 C322 0.930 . S
H317 C325 0.930 . S
H318 C326 0.930 . S
H319 C327 0.930 . S
H320 C330 0.930 . S
H321 C331 0.930 . S
C322 H316 0.930 . S
C322 C323 1.355 1_554 S
C322 C324 1.415 . S
C323 C322 1.355 1_556 S
C323 C325 1.419 . S
C324 C322 1.415 . S
C324 C329 1.425 . S
C324 C331 1.409 . S
C325 H317 0.930 . S
C325 C323 1.419 . S
C325 C326 1.362 . S
C326 H318 0.930 . S
C326 C325 1.362 . S
C326 C329 1.409 1_556 S
C327 H319 0.930 . S
C327 C328 1.355 . S
C327 C329 1.415 . S
C328 C327 1.355 . S
C328 C330 1.419 . S
C329 C324 1.425 . S
C329 C326 1.409 1_554 S
C329 C327 1.415 . S
C330 H320 0.930 . S
C330 C328 1.419 . S
C330 C331 1.362 . S
C331 H321 0.930 . S
C331 C324 1.409 . S
C331 C330 1.362 . S
H332 C338 0.930 . S
H333 C341 0.930 . S
H334 C342 0.930 . S
H335 C343 0.930 . S
H336 C346 0.930 . S
H337 C347 0.930 . S
C338 H332 0.930 . S
C338 C339 1.355 . S
C338 C340 1.415 . S
C339 C338 1.355 . S
C339 C341 1.419 . S
C340 C338 1.415 . S
C340 C345 1.425 . S
C340 C347 1.409 . S
C341 H333 0.930 . S
C341 C339 1.419 . S
C341 C342 1.362 . S
C342 H334 0.930 . S
C342 C341 1.362 . S
C342 C345 1.409 . S
C343 H335 0.930 . S
C343 C344 1.355 . S
C343 C345 1.415 . S
C344 C343 1.355 . S
C344 C346 1.419 . S
C345 C340 1.425 . S
C345 C342 1.409 . S
C345 C343 1.415 . S
C346 H336 0.930 . S
C346 C344 1.419 . S
C346 C347 1.362 . S
C347 H337 0.930 . S
C347 C340 1.409 . S
C347 C346 1.362 . S
H348 C354 0.930 . S
H349 C357 0.930 . S
H350 C358 0.930 . S
H351 C359 0.930 . S
H352 C362 0.930 . S
H353 C363 0.930 . S
C354 H348 0.930 . S
C354 C355 1.355 . S
C354 C356 1.415 1_554 S
C355 C354 1.355 . S
C355 C357 1.419 . S
C356 C354 1.415 1_556 S
C356 C361 1.425 . S
C356 C363 1.409 . S
C357 H349 0.930 . S
C357 C355 1.419 . S
C357 C358 1.362 1_554 S
C358 H350 0.930 . S
C358 C357 1.362 1_556 S
C358 C361 1.409 . S
C359 H351 0.930 . S
C359 C360 1.355 . S
C359 C361 1.415 . S
C360 C359 1.355 . S
C360 C362 1.419 . S
C361 C356 1.425 . S
C361 C358 1.409 . S
C361 C359 1.415 . S
C362 H352 0.930 . S
C362 C360 1.419 . S
C362 C363 1.362 . S
C363 H353 0.930 . S
C363 C356 1.409 . S
C363 C362 1.362 . S
H364 C370 0.930 . S
H365 C373 0.930 . S
H366 C374 0.930 . S
H367 C375 0.930 . S
H368 C378 0.930 . S
H369 C379 0.930 . S
C370 H364 0.930 . S
C370 C371 1.355 . S
C370 C372 1.415 . S
C371 C370 1.355 . S
C371 C373 1.419 . S
C372 C370 1.415 . S
C372 C377 1.425 . S
C372 C379 1.409 . S
C373 H365 0.930 . S
C373 C371 1.419 . S
C373 C374 1.362 . S
C374 H366 0.930 . S
C374 C373 1.362 . S
C374 C377 1.409 . S
C375 H367 0.930 . S
C375 C376 1.355 . S
C375 C377 1.415 . S
C376 C375 1.355 . S
C376 C378 1.419 . S
C377 C372 1.425 . S
C377 C374 1.409 . S
C377 C375 1.415 . S
C378 H368 0.930 . S
C378 C376 1.419 . S
C378 C379 1.362 . S
C379 H369 0.930 . S
C379 C372 1.409 . S
C379 C378 1.362 . S
H380 C386 0.930 . S
H381 C389 0.930 . S
H382 C390 0.930 . S
H383 C391 0.930 . S
H384 C394 0.930 . S
H385 C395 0.930 . S
C386 H380 0.930 . S
C386 C387 1.355 . S
C386 C388 1.415 1_554 S
C387 C386 1.355 . S
C387 C389 1.419 . S
C388 C386 1.415 1_556 S
C388 C393 1.425 . S
C388 C395 1.409 . S
C389 H381 0.930 . S
C389 C387 1.419 . S
C389 C390 1.362 1_554 S
C390 H382 0.930 . S
C390 C389 1.362 1_556 S
C390 C393 1.409 . S
C391 H383 0.930 . S
C391 C392 1.355 . S
C391 C393 1.415 . S
C392 C391 1.355 . S
C392 C394 1.419 . S
C393 C388 1.425 . S
C393 C390 1.409 . S
C393 C391 1.415 . S
C394 H384 0.930 . S
C394 C392 1.419 . S
C394 C395 1.362 . S
C395 H385 0.930 . S
C395 C388 1.409 . S
C395 C394 1.362 . S
H396 C402 0.930 . S
H397 C405 0.930 . S
H398 C406 0.930 . S
H399 C407 0.930 . S
H400 C410 0.930 . S
H401 C411 0.930 . S
C402 H396 0.930 . S
C402 C403 1.355 . S
C402 C404 1.415 . S
C403 C402 1.355 . S
C403 C405 1.419 . S
C404 C402 1.415 . S
C404 C409 1.425 . S
C404 C411 1.409 . S
C405 H397 0.930 . S
C405 C403 1.419 . S
C405 C406 1.362 . S
C406 H398 0.930 . S
C406 C405 1.362 . S
C406 C409 1.409 . S
C407 H399 0.930 . S
C407 C408 1.355 . S
C407 C409 1.415 . S
C408 C407 1.355 . S
C408 C410 1.419 . S
C409 C404 1.425 . S
C409 C406 1.409 . S
C409 C407 1.415 . S
C410 H400 0.930 . S
C410 C408 1.419 . S
C410 C411 1.362 . S
C411 H401 0.930 . S
C411 C404 1.409 . S
C411 C410 1.362 . S
H412 C418 0.930 . S
H413 C421 0.930 . S
H414 C422 0.930 . S
H415 C423 0.930 . S
H416 C426 0.930 . S
H417 C427 0.930 . S
C418 H412 0.930 . S
C418 C419 1.355 . S
C418 C420 1.415 1_556 S
C419 C418 1.355 . S
C419 C421 1.419 . S
C420 C418 1.415 1_554 S
C420 C425 1.425 . S
C420 C427 1.409 . S
C421 H413 0.930 . S
C421 C419 1.419 . S
C421 C422 1.362 1_556 S
C422 H414 0.930 . S
C422 C421 1.362 1_554 S
C422 C425 1.409 . S
C423 H415 0.930 . S
C423 C424 1.355 . S
C423 C425 1.415 . S
C424 C423 1.355 . S
C424 C426 1.419 . S
C425 C420 1.425 . S
C425 C422 1.409 . S
C425 C423 1.415 . S
C426 H416 0.930 . S
C426 C424 1.419 . S
C426 C427 1.362 . S
C427 H417 0.930 . S
C427 C420 1.409 . S
C427 C426 1.362 . S
H428 C434 0.930 . S
H429 C437 0.930 . S
H430 C438 0.930 . S
H431 C439 0.930 . S
H432 C442 0.930 . S
H433 C443 0.930 . S
C434 H428 0.930 . S
C434 C435 1.355 . S
C434 C436 1.415 . S
C435 C434 1.355 . S
C435 C437 1.419 . S
C436 C434 1.415 . S
C436 C441 1.425 . S
C436 C443 1.409 . S
C437 H429 0.930 . S
C437 C435 1.419 . S
C437 C438 1.362 . S
C438 H430 0.930 . S
C438 C437 1.362 . S
C438 C441 1.409 . S
C439 H431 0.930 . S
C439 C440 1.355 . S
C439 C441 1.415 . S
C440 C439 1.355 . S
C440 C442 1.419 . S
C441 C436 1.425 . S
C441 C438 1.409 . S
C441 C439 1.415 . S
C442 H432 0.930 . S
C442 C440 1.419 . S
C442 C443 1.362 . S
C443 H433 0.930 . S
C443 C436 1.409 . S
C443 C442 1.362 . S
H444 C450 0.930 . S
H445 C453 0.930 . S
H446 C454 0.930 . S
H447 C455 0.930 . S
H448 C458 0.930 . S
H449 C459 0.930 . S
C450 H444 0.930 . S
C450 C451 1.355 . S
C450 C452 1.415 . S
C451 C450 1.355 . S
C451 C453 1.419 . S
C452 C450 1.415 . S
C452 C457 1.425 . S
C452 C459 1.409 . S
C453 H445 0.930 . S
C453 C451 1.419 . S
C453 C454 1.362 . S
C454 H446 0.930 . S
C454 C453 1.362 . S
C454 C457 1.409 . S
C455 H447 0.930 . S
C455 C456 1.355 . S
C455 C457 1.415 . S
C456 C455 1.355 . S
C456 C458 1.419 . S
C457 C452 1.425 . S
C457 C454 1.409 . S
C457 C455 1.415 . S
C458 H448 0.930 . S
C458 C456 1.419 . S
C458 C459 1.362 . S
C459 H449 0.930 . S
C459 C452 1.409 . S
C459 C458 1.362 . S
H460 C466 0.930 . S
H461 C469 0.930 . S
H462 C470 0.930 . S
H463 C471 0.930 . S
H464 C474 0.930 . S
H465 C475 0.930 . S
C466 H460 0.930 . S
C466 C467 1.355 . S
C466 C468 1.415 . S
C467 C466 1.355 . S
C467 C469 1.419 . S
C468 C466 1.415 . S
C468 C473 1.425 . S
C468 C475 1.409 . S
C469 H461 0.930 . S
C469 C467 1.419 . S
C469 C470 1.362 . S
C470 H462 0.930 . S
C470 C469 1.362 . S
C470 C473 1.409 . S
C471 H463 0.930 . S
C471 C472 1.355 . S
C471 C473 1.415 . S
C472 C471 1.355 . S
C472 C474 1.419 . S
C473 C468 1.425 . S
C473 C470 1.409 . S
C473 C471 1.415 . S
C474 H464 0.930 . S
C474 C472 1.419 . S
C474 C475 1.362 . S
C475 H465 0.930 . S
C475 C468 1.409 . S
C475 C474 1.362 . S
H476 C482 0.930 . S
H477 C485 0.930 . S
H478 C486 0.930 . S
H479 C487 0.930 . S
H480 C490 0.930 . S
H481 C491 0.930 . S
C482 H476 0.930 . S
C482 C483 1.355 . S
C482 C484 1.415 . S
C483 C482 1.355 . S
C483 C485 1.419 . S
C484 C482 1.415 . S
C484 C489 1.425 . S
C484 C491 1.409 . S
C485 H477 0.930 . S
C485 C483 1.419 . S
C485 C486 1.362 . S
C486 H478 0.930 . S
C486 C485 1.362 . S
C486 C489 1.409 . S
C487 H479 0.930 . S
C487 C488 1.355 . S
C487 C489 1.415 . S
C488 C487 1.355 . S
C488 C490 1.419 . S
C489 C484 1.425 . S
C489 C486 1.409 . S
C489 C487 1.415 . S
C490 H480 0.930 . S
C490 C488 1.419 . S
C490 C491 1.362 . S
C491 H481 0.930 . S
C491 C484 1.409 . S
C491 C490 1.362 . S
H492 C498 0.930 . S
H493 C501 0.930 . S
H494 C502 0.930 . S
H495 C503 0.930 . S
H496 C506 0.930 . S
H497 C507 0.930 . S
C498 H492 0.930 . S
C498 C499 1.355 . S
C498 C500 1.415 . S
C499 C498 1.355 . S
C499 C501 1.419 . S
C500 C498 1.415 . S
C500 C505 1.425 . S
C500 C507 1.409 . S
C501 H493 0.930 . S
C501 C499 1.419 . S
C501 C502 1.362 . S
C502 H494 0.930 . S
C502 C501 1.362 . S
C502 C505 1.409 . S
C503 H495 0.930 . S
C503 C504 1.355 . S
C503 C505 1.415 . S
C504 C503 1.355 . S
C504 C506 1.419 . S
C505 C500 1.425 . S
C505 C502 1.409 . S
C505 C503 1.415 . S
C506 H496 0.930 . S
C506 C504 1.419 . S
C506 C507 1.362 . S
C507 H497 0.930 . S
C507 C500 1.409 . S
C507 C506 1.362 . S
H508 C514 0.930 . S
H509 C517 0.930 . S
H510 C518 0.930 . S
H511 C519 0.930 . S
H512 C522 0.930 . S
H513 C523 0.930 . S
C514 H508 0.930 . S
C514 C515 1.355 . S
C514 C516 1.415 . S
C515 C514 1.355 . S
C515 C517 1.419 . S
C516 C514 1.415 . S
C516 C521 1.425 . S
C516 C523 1.409 . S
C517 H509 0.930 . S
C517 C515 1.419 . S
C517 C518 1.362 . S
C518 H510 0.930 . S
C518 C517 1.362 . S
C518 C521 1.409 . S
C519 H511 0.930 . S
C519 C520 1.355 . S
C519 C521 1.415 . S
C520 C519 1.355 . S
C520 C522 1.419 . S
C521 C516 1.425 . S
C521 C518 1.409 . S
C521 C519 1.415 . S
C522 H512 0.930 . S
C522 C520 1.419 . S
C522 C523 1.362 . S
C523 H513 0.930 . S
C523 C516 1.409 . S
C523 C522 1.362 . S
H524 C530 0.930 . S
H525 C533 0.930 . S
H526 C534 0.930 . S
H527 C535 0.930 . S
H528 C538 0.930 . S
H529 C539 0.930 . S
C530 H524 0.930 . S
C530 C531 1.355 . S
C530 C532 1.415 . S
C531 C530 1.355 . S
C531 C533 1.419 . S
C532 C530 1.415 . S
C532 C537 1.425 . S
C532 C539 1.409 . S
C533 H525 0.930 . S
C533 C531 1.419 . S
C533 C534 1.362 . S
C534 H526 0.930 . S
C534 C533 1.362 . S
C534 C537 1.409 . S
C535 H527 0.930 . S
C535 C536 1.355 . S
C535 C537 1.415 . S
C536 C535 1.355 . S
C536 C538 1.419 . S
C537 C532 1.425 . S
C537 C534 1.409 . S
C537 C535 1.415 . S
C538 H528 0.930 . S
C538 C536 1.419 . S
C538 C539 1.362 . S
C539 H529 0.930 . S
C539 C532 1.409 . S
C539 C538 1.362 . S
H540 C546 0.930 . S
H541 C549 0.930 . S
H542 C550 0.930 . S
H543 C551 0.930 . S
H544 C554 0.930 . S
H545 C555 0.930 . S
C546 H540 0.930 . S
C546 C547 1.355 . S
C546 C548 1.415 . S
C547 C546 1.355 . S
C547 C549 1.419 . S
C548 C546 1.415 . S
C548 C553 1.425 . S
C548 C555 1.409 . S
C549 H541 0.930 . S
C549 C547 1.419 . S
C549 C550 1.362 . S
C550 H542 0.930 . S
C550 C549 1.362 . S
C550 C553 1.409 . S
C551 H543 0.930 . S
C551 C552 1.355 . S
C551 C553 1.415 . S
C552 C551 1.355 . S
C552 C554 1.419 . S
C553 C548 1.425 . S
C553 C550 1.409 . S
C553 C551 1.415 . S
C554 H544 0.930 . S
C554 C552 1.419 . S
C554 C555 1.362 . S
C555 H545 0.930 . S
C555 C548 1.409 . S
C555 C554 1.362 . S
H556 C562 0.930 . S
H557 C565 0.930 . S
H558 C566 0.930 . S
H559 C567 0.930 . S
H560 C570 0.930 . S
H561 C571 0.930 . S
C562 H556 0.930 . S
C562 C563 1.355 . S
C562 C564 1.415 . S
C563 C562 1.355 . S
C563 C565 1.419 . S
C564 C562 1.415 . S
C564 C569 1.425 . S
C564 C571 1.409 . S
C565 H557 0.930 . S
C565 C563 1.419 . S
C565 C566 1.362 . S
C566 H558 0.930 . S
C566 C565 1.362 . S
C566 C569 1.409 . S
C567 H559 0.930 . S
C567 C568 1.355 . S
C567 C569 1.415 . S
C568 C567 1.355 . S
C568 C570 1.419 . S
C569 C564 1.425 . S
C569 C566 1.409 . S
C569 C567 1.415 . S
C570 H560 0.930 . S
C570 C568 1.419 . S
C570 C571 1.362 . S
C571 H561 0.930 . S
C571 C564 1.409 . S
C571 C570 1.362 . S
C195 N83 1.455 . S
C200 C120 1.409 . S
C216 C128 1.404 . S
C211 N96 1.456 . S
C232 C132 1.336 . S
C227 N57 1.460 . S
C243 N70 1.459 . S
C248 C108 1.370 . S
C264 C149 1.399 . S
C259 N31 1.446 . S
C280 C183 1.334 . S
C275 N44 1.462 . S
C291 N5 1.449 . S
C296 C171 1.317 . S
C307 N18 1.455 . S
C312 C153 1.386 . S
C328 C107 1.402 . S
C323 N14 1.489 . S
C344 C141 1.387 . S
C339 N1 1.483 . S
C360 C145 1.332 . S
C355 N40 1.476 . S
C376 C123 1.295 . S
C371 N27 1.465 . S
C392 C162 1.377 . S
C387 N66 1.492 . S
C403 N53 1.486 . S
C408 C170 1.397 . S
C424 C186 1.319 . S
C419 N92 1.485 . S
C435 N79 1.490 . S
C440 C166 1.398 . S
C456 C111 1.370 . S
C451 N2 1.516 . S
C472 C129 1.376 . S
C467 N15 1.532 . S
C483 N28 1.512 . S
C488 C144 1.383 . S
C504 C124 1.317 . S
C499 N41 1.515 . S
C520 C150 1.341 . S
C515 N54 1.529 . S
C531 N67 1.529 . S
C536 C174 1.375 . S
C547 N80 1.523 . S
C552 C187 1.299 . S
C563 N93 1.523 . S
C568 C165 1.339 . S
