# Generated by pormake.
# Topology csq, (4,8)-cn, num edge types: 1
# Building blocks:
#     Node 0, Type 0, BuildingBlock: AZAVOO_clean_linker_0, # of connection points: 4
#     Node 1, Type 0, BuildingBlock: AZAVOO_clean_linker_0, # of connection points: 4
#     Node 2, Type 0, BuildingBlock: AZAVOO_clean_linker_0, # of connection points: 4
#     Node 3, Type 0, BuildingBlock: AZAVOO_clean_linker_0, # of connection points: 4
#     Node 4, Type 0, BuildingBlock: AZAVOO_clean_linker_0, # of connection points: 4
#     Node 5, Type 0, BuildingBlock: AZAVOO_clean_linker_0, # of connection points: 4
#     Node 6, Type 1, BuildingBlock: TAGTUT_clean_sbu_1, # of connection points: 8
#     Node 7, Type 1, BuildingBlock: TAGTUT_clean_sbu_1, # of connection points: 8
#     Node 8, Type 1, BuildingBlock: TAGTUT_clean_sbu_1, # of connection points: 8
#     Edge 9, Type (0, 1), None
#     Edge 10, Type (0, 1), None
#     Edge 11, Type (0, 1), None
#     Edge 12, Type (0, 1), None
#     Edge 13, Type (0, 1), None
#     Edge 14, Type (0, 1), None
#     Edge 15, Type (0, 1), None
#     Edge 16, Type (0, 1), None
#     Edge 17, Type (0, 1), None
#     Edge 18, Type (0, 1), None
#     Edge 19, Type (0, 1), None
#     Edge 20, Type (0, 1), None
#     Edge 21, Type (0, 1), None
#     Edge 22, Type (0, 1), None
#     Edge 23, Type (0, 1), None
#     Edge 24, Type (0, 1), None
#     Edge 25, Type (0, 1), None
#     Edge 26, Type (0, 1), None
#     Edge 27, Type (0, 1), None
#     Edge 28, Type (0, 1), None
#     Edge 29, Type (0, 1), None
#     Edge 30, Type (0, 1), None
#     Edge 31, Type (0, 1), None
#     Edge 32, Type (0, 1), None
# Relax obj value: 0.179
# Max RMSD: 0.236
# Mean RMSD: 0.199
data_MOF--net-csq--node1-TAGTUT_clean_sbu_1--node2-AZAVOO_clean_linker_0--edge1-none
_symmetry_space_group_name_H-M    P1
_symmetry_Int_Tables_number       1
_symmetry_cell_setting            triclinic
loop_
_symmetry_equiv_pos_as_xyz
'x, y, z'
_cell_length_a     31.973162
_cell_length_b     31.844356
_cell_length_c     13.49452
_cell_angle_alpha  93.700575
_cell_angle_beta   92.816677
_cell_angle_gamma 119.71109
loop_
_atom_site_label
_atom_site_type_symbol
_atom_site_fract_x
_atom_site_fract_y
_atom_site_fract_z
_atom_type_partial_charge
H0 H 0.1273 0.31608 0.79393 0.0
H1 H 0.53143 0.47733 0.20195 0.0
H2 H 0.09214 0.3597 0.23446 0.0
H3 H 0.03394 0.3665 0.33824 0.0
H4 H 0.13735 0.51756 0.42331 0.0
H5 H 0.19404 0.51155 0.31582 0.0
H6 H 0.1539 0.33591 0.3695 0.0
H7 H 0.13322 0.31274 0.53738 0.0
H8 H 0.21327 0.46422 0.6542 0.0
H9 H 0.23275 0.48698 0.48558 0.0
H10 H 0.27149 0.36808 0.41136 0.0
H11 H 0.33967 0.38768 0.53323 0.0
H12 H 0.38921 0.54049 0.52845 0.0
H13 H 0.32164 0.52097 0.4064 0.0
H14 H 0.29312 0.36194 0.20488 0.0
H15 H 0.36967 0.36158 0.21413 0.0
H16 H 0.44767 0.51778 0.21559 0.0
H17 H 0.37124 0.51822 0.21476 0.0
H18 H 0.23831 0.37217 0.97762 0.0
H19 H 0.29648 0.37826 0.8605 0.0
H20 H 0.38538 0.5315 0.9558 0.0
H21 H 0.32499 0.52556 0.06811 0.0
H22 H 0.12711 0.35486 0.0498 0.0
H23 H 0.0745 0.34908 0.90449 0.0
H24 H 0.16667 0.50222 0.88124 0.0
H25 H 0.21952 0.50771 0.02571 0.0
O26 O 0.13212 0.32637 0.72749 0.0
O27 O 0.18966 0.4016 0.78307 0.0
O28 O 0.46283 0.40696 0.26416 0.0
O29 O 0.50107 0.47711 0.19753 0.0
C30 C 0.18826 0.42914 0.2358 0.0
C31 C 0.215 0.42557 0.31745 0.0
C32 C 0.26148 0.43378 0.30772 0.0
C33 C 0.28035 0.43972 0.21459 0.0
C34 C 0.25373 0.44107 0.12928 0.0
C35 C 0.20682 0.4353 0.13954 0.0
C36 C 0.14696 0.43557 0.2634 0.0
C37 C 0.10156 0.39472 0.27224 0.0
C38 C 0.06928 0.39811 0.33524 0.0
C39 C 0.08244 0.44176 0.39427 0.0
C40 C 0.12714 0.48279 0.38312 0.0
C41 C 0.15866 0.47985 0.318 0.0
C42 C 0.19489 0.41303 0.41552 0.0
C43 C 0.16583 0.36408 0.43106 0.0
C44 C 0.15433 0.35095 0.52705 0.0
C45 C 0.17238 0.38661 0.60917 0.0
C46 C 0.19942 0.43587 0.59256 0.0
C47 C 0.21033 0.44897 0.49636 0.0
C48 C 0.29346 0.44337 0.3982 0.0
C49 C 0.29596 0.40558 0.44017 0.0
C50 C 0.33392 0.41674 0.51143 0.0
C51 C 0.36927 0.46548 0.5386 0.0
C52 C 0.36185 0.50272 0.50876 0.0
C53 C 0.32423 0.49169 0.43736 0.0
C54 C 0.32664 0.44 0.20712 0.0
C55 C 0.32679 0.39602 0.20653 0.0
C56 C 0.37041 0.3959 0.21233 0.0
C57 C 0.4145 0.43975 0.2164 0.0
C58 C 0.41418 0.48358 0.21316 0.0
C59 C 0.37061 0.48384 0.21128 0.0
C60 C 0.2769 0.44827 0.03244 0.0
C61 C 0.26874 0.40765 0.96923 0.0
C62 C 0.30266 0.41126 0.90265 0.0
C63 C 0.34648 0.45534 0.8994 0.0
C64 C 0.35241 0.49694 0.95609 0.0
C65 C 0.31752 0.49358 0.02005 0.0
C66 C 0.17651 0.43194 0.04955 0.0
C67 C 0.13637 0.38699 0.01221 0.0
C68 C 0.10703 0.38345 0.92785 0.0
C69 C 0.11727 0.42491 0.87989 0.0
C70 C 0.15873 0.46946 0.91515 0.0
C71 C 0.18838 0.47284 -0.00135 0.0
C72 C 0.16508 0.37227 0.71195 0.0
C73 C 0.46076 0.44001 0.22719 0.0
H74 H 0.80443 0.40446 0.7504 0.0
H75 H 0.51104 0.91193 0.0931 0.0
H76 H 0.82278 0.36385 0.21638 0.0
H77 H 0.88161 0.41253 0.35551 0.0
H78 H 0.92557 0.30437 0.3683 0.0
H79 H 0.86539 0.25538 0.22919 0.0
H80 H 0.73987 0.31665 0.33854 0.0
H81 H 0.76282 0.36344 0.50252 0.0
H82 H 0.83854 0.28931 0.59398 0.0
H83 H 0.81554 0.24295 0.42936 0.0
H84 H 0.65945 0.21032 0.38052 0.0
H85 H 0.62998 0.16844 0.52959 0.0
H86 H 0.72111 0.10482 0.49814 0.0
H87 H 0.75081 0.14717 0.35044 0.0
H88 H 0.60932 0.15209 0.11326 0.0
H89 H 0.53985 0.07061 0.07241 0.0
H90 H 0.62778 0.00835 0.15727 0.0
H91 H 0.69816 0.09025 0.19154 0.0
H92 H 0.66379 0.21372 0.96069 0.0
H93 H 0.59538 0.15076 0.84874 0.0
H94 H 0.65483 0.05599 0.86964 0.0
H95 H 0.72342 0.11909 0.98101 0.0
H96 H 0.78872 0.32741 0.02482 0.0
H97 H 0.86286 0.38121 0.95083 0.0
H98 H 0.89402 0.26427 0.91039 0.0
H99 H 0.82104 0.2112 0.99039 0.0
O100 O 0.79712 0.38675 0.68511 0.0
O101 O 0.84415 0.35568 0.72145 0.0
O102 O 0.49907 0.97821 0.04218 0.0
O103 O 0.53863 0.94427 0.10799 0.0
C104 C 0.78786 0.2663 0.19063 0.0
C105 C 0.76109 0.24807 0.27211 0.0
C106 C 0.72097 0.20153 0.26055 0.0
C107 C 0.70215 0.17609 0.16515 0.0
C108 C 0.72457 0.19753 0.07923 0.0
C109 C 0.76909 0.24243 0.09317 0.0
C110 C 0.83874 0.30545 0.21512 0.0
C111 C 0.84739 0.35226 0.2443 0.0
C112 C 0.88066 0.37965 0.32574 0.0
C113 C 0.90649 0.36096 0.37642 0.0
C114 C 0.90486 0.31881 0.33321 0.0
C115 C 0.87129 0.29133 0.25188 0.0
C116 C 0.77634 0.27676 0.37194 0.0
C117 C 0.76154 0.31072 0.39405 0.0
C118 C 0.77461 0.33728 0.48778 0.0
C119 C 0.80258 0.33015 0.56121 0.0
C120 C 0.81707 0.29575 0.53896 0.0
C121 C 0.80393 0.26918 0.44514 0.0
C122 C 0.70379 0.17798 0.35122 0.0
C123 C 0.67319 0.18761 0.40677 0.0
C124 C 0.65832 0.16568 0.49406 0.0
C125 C 0.67187 0.13195 0.52184 0.0
C126 C 0.70939 0.12986 0.47671 0.0
C127 C 0.72446 0.15193 0.3898 0.0
C128 C 0.6587 0.12699 0.15506 0.0
C129 C 0.61347 0.12085 0.12365 0.0
C130 C 0.57381 0.07429 0.10051 0.0
C131 C 0.57819 0.03303 0.11196 0.0
C132 C 0.62319 0.03938 0.14775 0.0
C133 C 0.66328 0.08607 0.16824 0.0
C134 C 0.69939 0.17167 0.97898 0.0
C135 C 0.66397 0.18075 0.9361 0.0
C136 C 0.62439 0.1444 0.87304 0.0
C137 C 0.61985 0.09853 0.85059 0.0
C138 C 0.65773 0.09121 0.88486 0.0
C139 C 0.69737 0.1276 0.94758 0.0
C140 C 0.79915 0.26517 0.01191 0.0
C141 C 0.81077 0.31292 -0.00273 0.0
C142 C 0.85391 0.34408 0.95846 0.0
C143 C 0.88506 0.32736 0.92965 0.0
C144 C 0.87116 0.27827 0.93531 0.0
C145 C 0.82876 0.2475 0.9776 0.0
C146 C 0.81608 0.35827 0.66074 0.0
C147 C 0.53619 0.98364 0.08523 0.0
H148 H 0.5495 0.80586 0.38378 0.0
H149 H 0.5923 0.50543 0.0626 0.0
H150 H 0.60726 0.87974 0.00113 0.0
H151 H 0.61166 0.93789 0.88711 0.0
H152 H 0.45564 0.86125 0.83994 0.0
H153 H 0.45165 0.80332 0.95429 0.0
H154 H 0.60231 0.81906 0.80732 0.0
H155 H 0.59509 0.83129 0.63159 0.0
H156 H 0.43924 0.74801 0.62583 0.0
H157 H 0.44706 0.7354 0.80157 0.0
H158 H 0.62853 0.74951 0.87224 0.0
H159 H 0.64336 0.68584 0.80232 0.0
H160 H 0.48908 0.59165 0.72995 0.0
H161 H 0.47493 0.65422 0.80466 0.0
H162 H 0.63529 0.73034 0.06615 0.0
H163 H 0.66256 0.67071 0.06419 0.0
H164 H 0.51398 0.55427 0.01942 0.0
H165 H 0.48704 0.61427 0.01421 0.0
H166 H 0.60989 0.76203 0.26068 0.0
H167 H 0.61449 0.70554 0.36911 0.0
H168 H 0.46534 0.59986 0.27578 0.0
H169 H 0.4605 0.65733 0.16994 0.0
H170 H 0.62113 0.84126 0.19528 0.0
H171 H 0.64255 0.91679 0.29914 0.0
H172 H 0.49165 0.87599 0.282 0.0
H173 H 0.47041 0.80048 0.18094 0.0
O174 O 0.55182 0.80683 0.45542 0.0
O175 O 0.47381 0.7828 0.4619 0.0
O176 O 0.64408 0.58275 -0.00805 0.0
O177 O 0.58131 0.52882 0.06542 0.0
C178 C 0.52836 0.79131 0.00324 0.0
C179 C 0.52997 0.76407 0.91924 0.0
C180 C 0.54134 0.7279 0.93255 0.0
C181 C 0.54426 0.71328 0.02767 0.0
C182 C 0.53756 0.73669 0.11218 0.0
C183 C 0.53366 0.77866 0.10026 0.0
C184 C 0.52917 0.83706 0.98512 0.0
C185 C 0.57397 0.87728 0.97109 0.0
C186 C 0.57644 0.90984 0.90412 0.0
C187 C 0.53404 0.90289 0.85188 0.0
C188 C 0.48893 0.86717 0.87828 0.0
C189 C 0.48651 0.83436 0.94483 0.0
C190 C 0.5252 0.77644 0.81666 0.0
C191 C 0.56668 0.80403 0.76819 0.0
C192 C 0.56243 0.8108 0.66794 0.0
C193 C 0.51659 0.79024 0.61482 0.0
C194 C 0.47502 0.76429 0.6649 0.0
C195 C 0.47936 0.75708 0.76502 0.0
C196 C 0.55069 0.70467 0.84694 0.0
C197 C 0.59838 0.71589 0.83632 0.0
C198 C 0.60675 0.6796 0.79745 0.0
C199 C 0.56718 0.63338 0.76781 0.0
C200 C 0.52007 0.62645 0.75806 0.0
C201 C 0.51181 0.6623 0.79853 0.0
C202 C 0.55933 0.67649 0.03929 0.0
C203 C 0.60868 0.69193 0.05622 0.0
C204 C 0.62415 0.65799 0.05472 0.0
C205 C 0.59031 0.60812 0.03993 0.0
C206 C 0.54069 0.5926 0.02965 0.0
C207 C 0.52529 0.62666 0.02717 0.0
C208 C 0.53461 0.71473 0.20817 0.0
C209 C 0.57735 0.72797 0.2678 0.0
C210 C 0.5802 0.69488 0.32787 0.0
C211 C 0.5407 0.64734 0.32837 0.0
C212 C 0.49682 0.63549 0.27497 0.0
C213 C 0.49365 0.66907 0.21683 0.0
C214 C 0.54405 0.8149 0.18383 0.0
C215 C 0.59267 0.84805 0.21702 0.0
C216 C 0.60503 0.89159 0.27327 0.0
C217 C 0.56896 0.90275 0.29377 0.0
C218 C 0.52024 0.86876 0.26333 0.0
C219 C 0.50784 0.82509 0.20861 0.0
C220 C 0.5126 0.79349 0.50632 0.0
C221 C 0.607 0.57262 0.03116 0.0
H222 H 0.7554 0.70598 0.65828 0.0
H223 H 0.06317 0.73267 0.82953 0.0
H224 H 0.71643 0.49412 0.18086 0.0
H225 H 0.6571 0.47528 0.30451 0.0
H226 H 0.66039 0.61029 0.26804 0.0
H227 H 0.71684 0.62745 0.14067 0.0
H228 H 0.77286 0.57976 0.35058 0.0
H229 H 0.76122 0.62107 0.49544 0.0
H230 H 0.82053 0.7535 0.35071 0.0
H231 H 0.83191 0.71155 0.20511 0.0
H232 H 0.81771 0.54921 0.26763 0.0
H233 H 0.8569 0.53035 0.39919 0.0
H234 H 0.98968 0.66521 0.37788 0.0
H235 H 0.94764 0.68683 0.25186 0.0
H236 H 0.92221 0.56968 0.05851 0.0
H237 H 0.00422 0.60669 0.00533 0.0
H238 H 0.0048 0.74163 0.98266 0.0
H239 H 0.92189 0.70366 0.03026 0.0
H240 H 0.81331 0.48819 0.99026 0.0
H241 H 0.85917 0.45813 0.90068 0.0
H242 H 0.91598 0.58229 0.73193 0.0
H243 H 0.87112 0.61365 0.82557 0.0
H244 H 0.70063 0.47112 0.00598 0.0
H245 H 0.62474 0.44226 0.90267 0.0
H246 H 0.69214 0.56919 0.74235 0.0
H247 H 0.76755 0.59913 0.84902 0.0
O248 O 0.76113 0.69059 0.60044 0.0
O249 O 0.79338 0.75827 0.52442 0.0
O250 O 0.0907 0.74235 0.97177 0.0
O251 O 0.07813 0.7372 0.90149 0.0
C252 C 0.76916 0.58232 0.10945 0.0
C253 C 0.80879 0.61753 0.17483 0.0
C254 C 0.85495 0.62519 0.16172 0.0
C255 C 0.86492 0.61145 0.06898 0.0
C256 C 0.82672 0.57877 -0.0025 0.0
C257 C 0.77829 0.56366 0.01847 0.0
C258 C 0.72038 0.5617 0.14829 0.0
C259 C 0.70192 0.51809 0.19423 0.0
C260 C 0.66915 0.508 0.26744 0.0
C261 C 0.65578 0.54225 0.29849 0.0
C262 C 0.67122 0.58385 0.24743 0.0
C263 C 0.70249 0.59307 0.17238 0.0
C264 C 0.80283 0.64243 0.26618 0.0
C265 C 0.78358 0.61768 0.34983 0.0
C266 C 0.77684 0.64141 0.43288 0.0
C267 C 0.78969 0.69054 0.43455 0.0
C268 C 0.81003 0.71556 0.35169 0.0
C269 C 0.81665 0.69171 0.26849 0.0
C270 C 0.87978 0.61964 0.25036 0.0
C271 C 0.85453 0.57623 0.29498 0.0
C272 C 0.87706 0.5653 0.37033 0.0
C273 C 0.92657 0.59559 0.397 0.0
C274 C 0.95129 0.64105 0.35848 0.0
C275 C 0.92776 0.65315 0.28525 0.0
C276 C 0.91593 0.63381 0.04646 0.0
C277 C 0.93998 0.60709 0.04142 0.0
C278 C 0.98685 0.62835 0.01174 0.0
C279 C 0.01064 0.6769 0.99 0.0
C280 C 0.98706 0.70402 -0.00151 0.0
C281 C 0.93995 0.68251 0.02613 0.0
C282 C 0.83826 0.55316 0.91493 0.0
C283 C 0.83355 0.50792 0.93063 0.0
C284 C 0.86023 0.49088 0.87963 0.0
C285 C 0.89111 0.5176 0.80861 0.0
C286 C 0.89195 0.56039 0.78481 0.0
C287 C 0.86602 0.57822 0.83807 0.0
C288 C 0.73886 0.53805 0.9376 0.0
C289 C 0.6995 0.4921 0.94706 0.0
C290 C 0.65654 0.47519 0.88656 0.0
C291 C 0.65294 0.50364 0.81478 0.0
C292 C 0.69437 0.54635 0.79609 0.0
C293 C 0.7372 0.56363 0.85776 0.0
C294 C 0.78165 0.71536 0.52231 0.0
C295 C 0.0601 0.69883 0.95917 0.0
H296 H 0.18244 0.9404 0.6074 0.0
H297 H 0.0009 0.42956 0.08999 0.0
H298 H 0.28544 0.89126 0.22457 0.0
H299 H 0.35071 0.93855 0.35776 0.0
H300 H 0.38693 0.82499 0.35172 0.0
H301 H 0.32039 0.77664 0.22105 0.0
H302 H 0.16446 0.82972 0.22862 0.0
H303 H 0.16323 0.88002 0.37237 0.0
H304 H 0.25449 0.84341 0.5507 0.0
H305 H 0.25547 0.7934 0.40654 0.0
H306 H 0.07622 0.69814 0.17137 0.0
H307 H 0.02205 0.61543 0.21238 0.0
H308 H 0.13613 0.63014 0.42404 0.0
H309 H 0.18782 0.7105 0.38348 0.0
H310 H 0.08713 0.63623 0.02642 0.0
H311 H 0.04129 0.54725 0.01888 0.0
H312 H 0.158 0.55102 0.20198 0.0
H313 H 0.20208 0.63992 0.21292 0.0
H314 H 0.16378 0.73415 0.89838 0.0
H315 H 0.10455 0.67162 0.77434 0.0
H316 H 0.15272 0.57274 0.8565 0.0
H317 H 0.21286 0.63651 0.98363 0.0
H318 H 0.23283 0.83225 0.96856 0.0
H319 H 0.27298 0.87218 0.82462 0.0
H320 H 0.35345 0.79629 0.82858 0.0
H321 H 0.31151 0.75479 0.97069 0.0
O322 O 0.18328 0.92021 0.55164 0.0
O323 O 0.23054 0.90055 0.63978 0.0
O324 O 0.08927 0.46601 0.12258 0.0
O325 O 0.01972 0.46442 0.08868 0.0
C326 C 0.24999 0.79503 0.15965 0.0
C327 C 0.21064 0.77784 0.21895 0.0
C328 C 0.17326 0.72962 0.19973 0.0
C329 C 0.17604 0.69839 0.12446 0.0
C330 C 0.20803 0.71829 0.05124 0.0
C331 C 0.24492 0.76766 0.06754 0.0
C332 C 0.29827 0.83058 0.21127 0.0
C333 C 0.30775 0.87669 0.25084 0.0
C334 C 0.34366 0.90275 0.32969 0.0
C335 C 0.37143 0.88371 0.36966 0.0
C336 C 0.36401 0.83904 0.32633 0.0
C337 C 0.3275 0.81252 0.24857 0.0
C338 C 0.21023 0.80818 0.30701 0.0
C339 C 0.18416 0.83267 0.29883 0.0
C340 C 0.18353 0.86135 0.38104 0.0
C341 C 0.20886 0.86583 0.47299 0.0
C342 C 0.23464 0.8408 0.48102 0.0
C343 C 0.23516 0.81211 0.39885 0.0
C344 C 0.13657 0.70822 0.26974 0.0
C345 C 0.08784 0.68423 0.23136 0.0
C346 C 0.05758 0.63667 0.25256 0.0
C347 C 0.07677 0.61511 0.31359 0.0
C348 C 0.12129 0.64465 0.37117 0.0
C349 C 0.15066 0.69182 0.35102 0.0
C350 C 0.1469 0.64454 0.12317 0.0
C351 C 0.10193 0.61773 0.06688 0.0
C352 C 0.07622 0.56702 0.06193 0.0
C353 C 0.09594 0.54222 0.11064 0.0
C354 C 0.14177 0.56911 0.16424 0.0
C355 C 0.16683 0.61985 0.17113 0.0
C356 C 0.19233 0.69005 0.95133 0.0
C357 C 0.1629 0.69972 0.88817 0.0
C358 C 0.12793 0.66329 0.81963 0.0
C359 C 0.12207 0.61639 0.81064 0.0
C360 C 0.15484 0.60778 0.8661 0.0
C361 C 0.19034 0.64477 0.93554 0.0
C362 C 0.27086 0.79225 0.98252 0.0
C363 C 0.25875 0.82381 0.93756 0.0
C364 C 0.28038 0.84524 0.85312 0.0
C365 C 0.31553 0.8365 0.81381 0.0
C366 C 0.3255 0.80263 0.85565 0.0
C367 C 0.30285 0.78019 0.93865 0.0
C368 C 0.20833 0.8965 0.56002 0.0
C369 C 0.06833 0.4886 0.10729 0.0
H370 H 0.59323 0.38811 0.68105 0.0
H371 H 0.41288 0.90881 0.14875 0.0
H372 H 0.5568 0.3608 0.19479 0.0
H373 H 0.54472 0.41236 0.08414 0.0
H374 H 0.39143 0.30909 0.04441 0.0
H375 H 0.40368 0.25819 0.15738 0.0
H376 H 0.58234 0.30142 0.05581 0.0
H377 H 0.60173 0.34446 0.90574 0.0
H378 H 0.44912 0.27537 0.80952 0.0
H379 H 0.43033 0.233 0.95985 0.0
H380 H 0.53649 0.16449 0.02124 0.0
H381 H 0.50189 0.08373 0.93353 0.0
H382 H 0.35937 0.06776 0.92288 0.0
H383 H 0.39459 0.14977 0.00895 0.0
H384 H 0.52295 0.12188 0.22845 0.0
H385 H 0.49024 0.03353 0.2085 0.0
H386 H 0.34651 0.01119 0.14722 0.0
H387 H 0.37864 0.09888 0.17783 0.0
H388 H 0.54835 0.19317 0.40185 0.0
H389 H 0.53545 0.12087 0.47868 0.0
H390 H 0.382 0.06926 0.46162 0.0
H391 H 0.39544 0.14174 0.38472 0.0
H392 H 0.55507 0.32713 0.39035 0.0
H393 H 0.54418 0.39023 0.4761 0.0
H394 H 0.39013 0.29061 0.46054 0.0
H395 H 0.40134 0.22785 0.37111 0.0
O396 O 0.58499 0.37002 0.73884 0.0
O397 O 0.50599 0.3357 0.69654 0.0
O398 O 0.35935 0.93934 0.09049 0.0
O399 O 0.42403 0.94274 0.16848 0.0
C400 C 0.48998 0.26525 0.19948 0.0
C401 C 0.49368 0.24071 0.11348 0.0
C402 C 0.48101 0.19238 0.11553 0.0
C403 C 0.47263 0.17032 0.20537 0.0
C404 C 0.47712 0.19761 0.29554 0.0
C405 C 0.48347 0.24477 0.29165 0.0
C406 C 0.4812 0.30576 0.18322 0.0
C407 C 0.52031 0.35088 0.16748 0.0
C408 C 0.51339 0.37967 0.10265 0.0
C409 C 0.46731 0.36349 0.05373 0.0
C410 C 0.42732 0.32151 0.07987 0.0
C411 C 0.43417 0.29319 0.14618 0.0
C412 C 0.505 0.26378 0.01835 0.0
C413 C 0.55322 0.29525 0.00161 0.0
C414 C 0.56416 0.3199 0.91604 0.0
C415 C 0.52696 0.31335 0.8456 0.0
C416 C 0.47866 0.28117 0.86208 0.0
C417 C 0.46781 0.2566 0.9476 0.0
C418 C 0.46758 0.16156 0.02272 0.0
C419 C 0.49828 0.14449 -0.00425 0.0
C420 C 0.47813 0.09777 0.9505 0.0
C421 C 0.42757 0.06864 0.93253 0.0
C422 C 0.39805 0.08911 0.94272 0.0
C423 C 0.41833 0.1362 0.98792 0.0
C424 C 0.45326 0.1168 0.2024 0.0
C425 C 0.48433 0.09779 0.21268 0.0
C426 C 0.46569 0.04748 0.20019 0.0
C427 C 0.41627 0.01579 0.1716 0.0
C428 C 0.38497 0.03482 0.16667 0.0
C429 C 0.40326 0.08484 0.18394 0.0
C430 C 0.47295 0.17336 0.38797 0.0
C431 C 0.51225 0.16766 0.41985 0.0
C432 C 0.50454 0.1252 0.4603 0.0
C433 C 0.45736 0.08785 0.47174 0.0
C434 C 0.41872 0.09641 0.45099 0.0
C435 C 0.4265 0.13888 0.41036 0.0
C436 C 0.47915 0.27262 0.37705 0.0
C437 C 0.51919 0.31842 0.40862 0.0
C438 C 0.51262 0.35495 0.45373 0.0
C439 C 0.46598 0.34578 0.47068 0.0
C440 C 0.42625 0.29884 0.44545 0.0
C441 C 0.43277 0.26252 0.39812 0.0
C442 C 0.5385 0.34026 0.75577 0.0
C443 C 0.3979 0.9636 0.1416 0.0
C444 C 0.92778 0.35903 0.87949 0.0
C445 C 0.07816 0.42528 0.81823 0.0
C446 C 0.08869 0.58237 0.72715 0.0
Mg447 Mg 0.97997 0.37681 0.68849 0.0
O448 O 0.97675 0.43367 0.71818 0.0
Mg449 Mg 0.00916 0.47677 0.84412 0.0
Mg450 Mg -0.00749 0.48042 0.61968 0.0
O451 O 0.00367 0.52402 0.52246 0.0
Mg452 Mg 0.05369 0.582 0.50259 0.0
Mg453 Mg 0.96609 0.48043 0.39727 0.0
C454 C 0.92953 0.3821 0.47871 0.0
C455 C 0.04487 0.4487 0.44029 0.0
O456 O 0.95334 0.40481 0.91077 0.0
O457 O 0.93257 0.34059 0.79679 0.0
O458 O 0.06607 0.4554 0.85235 0.0
O459 O 0.05161 0.39111 0.74941 0.0
O460 O 0.94632 0.36036 0.53169 0.0
O461 O 0.93395 0.42318 0.50921 0.0
C462 C 0.92846 0.50542 0.77794 0.0
O463 O 0.93685 0.50161 0.68688 0.0
O464 O 0.95178 0.49813 0.84692 0.0
O465 O 0.00756 0.53799 0.29385 0.0
O466 O 0.07077 0.54879 0.38391 0.0
O467 O 0.93182 0.52666 0.42896 0.0
C468 C 0.05289 0.56252 0.31684 0.0
O469 O -0.00047 0.60112 0.45939 0.0
O470 O 0.09318 0.60164 0.64534 0.0
C471 C 0.95352 0.57367 0.4384 0.0
O472 O 0.05378 0.53903 0.73675 0.0
O473 O 0.0468 0.46059 0.53498 0.0
O474 O 0.01458 0.44976 0.37745 0.0
C475 C 0.40825 0.01941 0.88972 0.0
C476 C 0.3532 0.87516 0.76282 0.0
C477 C 0.53695 0.92797 0.7621 0.0
Mg478 Mg 0.39057 0.97256 0.67723 0.0
O479 O 0.45532 -0.00616 0.72389 0.0
Mg480 Mg 0.46752 0.96263 0.83706 0.0
Mg481 Mg 0.49208 0.98202 0.62674 0.0
O482 O 0.52812 0.96781 0.53233 0.0
Mg483 Mg 0.59107 0.98127 0.58149 0.0
Mg484 Mg 0.52292 0.00684 0.42812 0.0
C485 C 0.44896 0.0425 0.51439 0.0
C486 C 0.4171 0.91732 0.4296 0.0
O487 O 0.43215 -0.00101 0.9183 0.0
O488 O 0.38512 0.0102 0.80398 0.0
O489 O 0.39471 0.89564 0.81073 0.0
O490 O 0.3423 0.89639 0.69744 0.0
O491 O 0.40811 0.01694 0.55045 0.0
O492 O 0.48526 0.03613 0.53373 0.0
C493 C 0.57266 0.0564 0.80858 0.0
O494 O 0.56266 0.04533 0.71434 0.0
O495 O 0.54259 0.03125 0.86894 0.0
O496 O 0.55621 0.96731 0.34083 0.0
O497 O 0.59814 0.947 0.44887 0.0
O498 O 0.59471 0.06908 0.48407 0.0
C499 C 0.5794 0.94497 0.36144 0.0
O500 O 0.64102 0.05782 0.59468 0.0
O501 O 0.57552 0.9446 0.71677 0.0
C502 C 0.63279 0.08538 0.54303 0.0
O503 O 0.50065 0.9317 0.73051 0.0
O504 O 0.42198 0.92121 0.52597 0.0
O505 O 0.45064 0.94543 0.37938 0.0
C506 C 0.54603 0.6114 0.38594 0.0
C507 C 0.62552 0.53622 0.38227 0.0
C508 C 0.46062 0.38218 0.53197 0.0
Mg509 Mg 0.5994 0.5888 0.55031 0.0
O510 O 0.53765 0.53368 0.54818 0.0
Mg511 Mg 0.50808 0.49072 0.42422 0.0
Mg512 Mg 0.51513 0.48811 0.65577 0.0
O513 O 0.49157 0.44341 0.76374 0.0
Mg514 Mg 0.42724 0.39259 0.75361 0.0
Mg515 Mg 0.51046 0.49461 0.87727 0.0
C516 C 0.57385 0.59148 0.7624 0.0
C517 C 0.60532 0.49778 0.78813 0.0
O518 O 0.52224 0.56519 0.35567 0.0
O519 O 0.57572 0.62852 0.46477 0.0
O520 O 0.58112 0.50271 0.37014 0.0
O521 O 0.64098 0.57159 0.45056 0.0
O522 O 0.60832 0.59469 0.71284 0.0
O523 O 0.53481 0.55081 0.76398 0.0
C524 C 0.4187 0.47601 0.54625 0.0
O525 O 0.44028 0.47798 0.62913 0.0
O526 O 0.43773 0.47991 0.46466 0.0
O527 O 0.48924 0.43486 0.97874 0.0
O528 O 0.43655 0.36378 0.88992 0.0
O529 O 0.4317 0.48516 0.88715 0.0
C530 C 0.46257 0.38865 0.97066 0.0
O531 O 0.37831 0.41893 0.78849 0.0
O532 O 0.43269 0.36537 0.60273 0.0
C533 C 0.38785 0.45501 0.85132 0.0
O534 O 0.49425 0.42705 0.5344 0.0
O535 O 0.59026 0.49688 0.6976 0.0
O536 O 0.58152 0.49762 0.86149 0.0
loop_
_geom_bond_atom_site_label_1
_geom_bond_atom_site_label_2
_geom_bond_distance
_geom_bond_site_symmetry_2
_ccdc_geom_bond_type
H0 O26 0.856 . S
H1 O29 0.854 . S
H2 C37 0.930 . S
H3 C38 0.930 . S
H4 C40 0.930 . S
H5 C41 0.930 . S
H6 C43 0.931 . S
H7 C44 0.930 . S
H8 C46 0.930 . S
H9 C47 0.929 . S
H10 C49 0.930 . S
H11 C50 0.931 . S
H12 C52 0.930 . S
H13 C53 0.929 . S
H14 C55 0.931 . S
H15 C56 0.930 . S
H16 C58 0.930 . S
H17 C59 0.932 . S
H18 C61 0.930 1_554 S
H19 C62 0.929 . S
H20 C64 0.931 . S
H21 C65 0.930 . S
H22 C67 0.929 . S
H23 C68 0.930 1_556 S
H24 C70 0.930 . S
H25 C71 0.929 . S
O26 H0 0.856 . S
O26 C72 1.300 . S
O27 C72 1.209 . S
O28 C73 1.199 . S
O29 H1 0.854 . S
O29 C73 1.297 . S
C30 C31 1.404 . S
C30 C35 1.397 . S
C30 C36 1.492 . S
C31 C30 1.404 . S
C31 C32 1.396 . S
C31 C42 1.492 . S
C32 C31 1.396 . S
C32 C33 1.397 . S
C32 C48 1.509 . S
C33 C32 1.397 . S
C33 C34 1.412 . S
C33 C54 1.485 . S
C34 C33 1.412 . S
C34 C35 1.388 . S
C34 C60 1.490 . S
C35 C30 1.397 . S
C35 C34 1.388 . S
C35 C66 1.519 . S
C36 C30 1.492 . S
C36 C37 1.363 . S
C36 C41 1.390 . S
C37 H2 0.930 . S
C37 C36 1.363 . S
C37 C38 1.372 . S
C38 H3 0.930 . S
C38 C37 1.372 . S
C38 C39 1.383 . S
C39 C38 1.383 . S
C39 C40 1.395 . S
C40 H4 0.930 . S
C40 C39 1.395 . S
C40 C41 1.362 . S
C41 H5 0.930 . S
C41 C36 1.390 . S
C41 C40 1.362 . S
C42 C31 1.492 . S
C42 C43 1.377 . S
C42 C47 1.397 . S
C43 H6 0.931 . S
C43 C42 1.377 . S
C43 C44 1.376 . S
C44 H7 0.930 . S
C44 C43 1.376 . S
C44 C45 1.376 . S
C45 C44 1.376 . S
C45 C46 1.378 . S
C45 C72 1.486 . S
C46 H8 0.930 . S
C46 C45 1.378 . S
C46 C47 1.376 . S
C47 H9 0.929 . S
C47 C42 1.397 . S
C47 C46 1.376 . S
C48 C32 1.509 . S
C48 C49 1.391 . S
C48 C53 1.386 . S
C49 H10 0.930 . S
C49 C48 1.391 . S
C49 C50 1.375 . S
C50 H11 0.931 . S
C50 C49 1.375 . S
C50 C51 1.375 . S
C51 C50 1.375 . S
C51 C52 1.361 . S
C52 H12 0.930 . S
C52 C51 1.361 . S
C52 C53 1.399 . S
C53 H13 0.929 . S
C53 C48 1.386 . S
C53 C52 1.399 . S
C54 C33 1.485 . S
C54 C55 1.394 . S
C54 C59 1.360 . S
C55 H14 0.931 . S
C55 C54 1.394 . S
C55 C56 1.372 . S
C56 H15 0.930 . S
C56 C55 1.372 . S
C56 C57 1.397 . S
C57 C56 1.397 . S
C57 C58 1.390 . S
C57 C73 1.476 . S
C58 H16 0.930 . S
C58 C57 1.390 . S
C58 C59 1.366 . S
C59 H17 0.932 . S
C59 C54 1.360 . S
C59 C58 1.366 . S
C60 C34 1.490 . S
C60 C61 1.380 1_554 S
C60 C65 1.386 . S
C61 H18 0.930 1_556 S
C61 C60 1.380 1_556 S
C61 C62 1.381 . S
C62 H19 0.929 . S
C62 C61 1.381 . S
C62 C63 1.371 . S
C63 C62 1.371 . S
C63 C64 1.380 . S
C64 H20 0.931 . S
C64 C63 1.380 . S
C64 C65 1.387 1_556 S
C65 H21 0.930 . S
C65 C60 1.386 . S
C65 C64 1.387 1_554 S
C66 C35 1.519 . S
C66 C67 1.377 . S
C66 C71 1.361 . S
C67 H22 0.929 . S
C67 C66 1.377 . S
C67 C68 1.393 . S
C68 H23 0.930 1_554 S
C68 C67 1.393 . S
C68 C69 1.358 1_554 S
C69 C68 1.358 1_556 S
C69 C70 1.385 . S
C70 H24 0.930 . S
C70 C69 1.385 . S
C70 C71 1.396 1_556 S
C71 H25 0.929 . S
C71 C66 1.361 . S
C71 C70 1.396 1_554 S
C72 O26 1.300 . S
C72 O27 1.209 . S
C72 C45 1.486 . S
C73 O28 1.199 . S
C73 O29 1.297 . S
C73 C57 1.476 . S
H74 O100 0.856 . S
H75 O103 0.854 . S
H76 C111 0.930 . S
H77 C112 0.930 . S
H78 C114 0.930 . S
H79 C115 0.930 . S
H80 C117 0.931 . S
H81 C118 0.930 . S
H82 C120 0.930 . S
H83 C121 0.929 . S
H84 C123 0.930 . S
H85 C124 0.931 . S
H86 C126 0.930 . S
H87 C127 0.929 . S
H88 C129 0.931 . S
H89 C130 0.930 . S
H90 C132 0.930 1_565 S
H91 C133 0.932 . S
H92 C135 0.930 . S
H93 C136 0.929 . S
H94 C138 0.931 . S
H95 C139 0.930 . S
H96 C141 0.929 . S
H97 C142 0.931 . S
H98 C144 0.930 . S
H99 C145 0.929 . S
O100 H74 0.856 . S
O100 C146 1.300 . S
O101 C146 1.209 . S
O102 C147 1.199 1_556 S
O103 H75 0.854 . S
O103 C147 1.297 . S
C104 C105 1.404 . S
C104 C109 1.397 . S
C104 C110 1.492 . S
C105 C104 1.404 . S
C105 C106 1.396 . S
C105 C116 1.492 . S
C106 C105 1.396 . S
C106 C107 1.397 . S
C106 C122 1.509 . S
C107 C106 1.397 . S
C107 C108 1.412 . S
C107 C128 1.485 . S
C108 C107 1.412 . S
C108 C109 1.388 . S
C108 C134 1.490 1_554 S
C109 C104 1.397 . S
C109 C108 1.388 . S
C109 C140 1.519 . S
C110 C104 1.492 . S
C110 C111 1.363 . S
C110 C115 1.390 . S
C111 H76 0.930 . S
C111 C110 1.363 . S
C111 C112 1.372 . S
C112 H77 0.930 . S
C112 C111 1.372 . S
C112 C113 1.383 . S
C113 C112 1.383 . S
C113 C114 1.395 . S
C114 H78 0.930 . S
C114 C113 1.395 . S
C114 C115 1.362 . S
C115 H79 0.930 . S
C115 C110 1.390 . S
C115 C114 1.362 . S
C116 C105 1.492 . S
C116 C117 1.377 . S
C116 C121 1.397 . S
C117 H80 0.931 . S
C117 C116 1.377 . S
C117 C118 1.376 . S
C118 H81 0.930 . S
C118 C117 1.376 . S
C118 C119 1.376 . S
C119 C118 1.376 . S
C119 C120 1.378 . S
C119 C146 1.486 . S
C120 H82 0.930 . S
C120 C119 1.378 . S
C120 C121 1.376 . S
C121 H83 0.929 . S
C121 C116 1.397 . S
C121 C120 1.376 . S
C122 C106 1.509 . S
C122 C123 1.391 . S
C122 C127 1.386 . S
C123 H84 0.930 . S
C123 C122 1.391 . S
C123 C124 1.375 . S
C124 H85 0.931 . S
C124 C123 1.375 . S
C124 C125 1.375 . S
C125 C124 1.375 . S
C125 C126 1.361 . S
C126 H86 0.930 . S
C126 C125 1.361 . S
C126 C127 1.399 . S
C127 H87 0.929 . S
C127 C122 1.386 . S
C127 C126 1.399 . S
C128 C107 1.485 . S
C128 C129 1.394 . S
C128 C133 1.360 . S
C129 H88 0.931 . S
C129 C128 1.394 . S
C129 C130 1.372 . S
C130 H89 0.930 . S
C130 C129 1.372 . S
C130 C131 1.397 . S
C131 C130 1.397 . S
C131 C132 1.390 . S
C131 C147 1.476 1_545 S
C132 H90 0.930 1_545 S
C132 C131 1.390 . S
C132 C133 1.366 . S
C133 H91 0.932 . S
C133 C128 1.360 . S
C133 C132 1.366 . S
C134 C108 1.490 1_556 S
C134 C135 1.380 . S
C134 C139 1.386 . S
C135 H92 0.930 . S
C135 C134 1.380 . S
C135 C136 1.381 . S
C136 H93 0.929 . S
C136 C135 1.381 . S
C136 C137 1.371 . S
C137 C136 1.371 . S
C137 C138 1.380 . S
C138 H94 0.931 . S
C138 C137 1.380 . S
C138 C139 1.387 . S
C139 H95 0.930 . S
C139 C134 1.386 . S
C139 C138 1.387 . S
C140 C109 1.519 . S
C140 C141 1.377 . S
C140 C145 1.361 . S
C141 H96 0.929 . S
C141 C140 1.377 . S
C141 C142 1.386 1_554 S
C142 H97 0.931 . S
C142 C141 1.386 1_556 S
C142 C143 1.363 . S
C143 C142 1.363 . S
C143 C144 1.385 . S
C144 H98 0.930 . S
C144 C143 1.385 . S
C144 C145 1.396 1_556 S
C145 H99 0.929 . S
C145 C140 1.361 . S
C145 C144 1.396 1_554 S
C146 O100 1.300 . S
C146 O101 1.209 . S
C146 C119 1.486 . S
C147 O102 1.199 1_554 S
C147 O103 1.297 . S
C147 C131 1.476 1_565 S
H148 O174 0.856 . S
H149 O177 0.854 . S
H150 C185 0.930 . S
H151 C186 0.930 . S
H152 C188 0.930 . S
H153 C189 0.930 . S
H154 C191 0.931 . S
H155 C192 0.930 . S
H156 C194 0.930 . S
H157 C195 0.929 . S
H158 C197 0.930 . S
H159 C198 0.931 . S
H160 C200 0.930 . S
H161 C201 0.929 . S
H162 C203 0.931 . S
H163 C204 0.930 . S
H164 C206 0.930 1_556 S
H165 C207 0.932 . S
H166 C209 0.930 . S
H167 C210 0.929 . S
H168 C212 0.931 . S
H169 C213 0.930 . S
H170 C215 0.929 . S
H171 C216 0.931 . S
H172 C218 0.930 . S
H173 C219 0.929 . S
O174 H148 0.856 . S
O174 C220 1.300 . S
O175 C220 1.209 . S
O176 C221 1.199 . S
O177 H149 0.854 . S
O177 C221 1.297 . S
C178 C179 1.404 . S
C178 C183 1.397 1_556 S
C178 C184 1.492 . S
C179 C178 1.404 . S
C179 C180 1.396 . S
C179 C190 1.492 . S
C180 C179 1.396 . S
C180 C181 1.397 . S
C180 C196 1.509 . S
C181 C180 1.397 . S
C181 C182 1.412 1_556 S
C181 C202 1.485 1_556 S
C182 C181 1.412 1_554 S
C182 C183 1.388 . S
C182 C208 1.490 . S
C183 C178 1.397 1_554 S
C183 C182 1.388 . S
C183 C214 1.519 . S
C184 C178 1.492 . S
C184 C185 1.363 . S
C184 C189 1.390 . S
C185 H150 0.930 . S
C185 C184 1.363 . S
C185 C186 1.372 . S
C186 H151 0.930 . S
C186 C185 1.372 . S
C186 C187 1.383 . S
C187 C186 1.383 . S
C187 C188 1.395 . S
C188 H152 0.930 . S
C188 C187 1.395 . S
C188 C189 1.362 . S
C189 H153 0.930 . S
C189 C184 1.390 . S
C189 C188 1.362 . S
C190 C179 1.492 . S
C190 C191 1.377 . S
C190 C195 1.397 . S
C191 H154 0.931 . S
C191 C190 1.377 . S
C191 C192 1.376 . S
C192 H155 0.930 . S
C192 C191 1.376 . S
C192 C193 1.376 . S
C193 C192 1.376 . S
C193 C194 1.378 . S
C193 C220 1.486 . S
C194 H156 0.930 . S
C194 C193 1.378 . S
C194 C195 1.376 . S
C195 H157 0.929 . S
C195 C190 1.397 . S
C195 C194 1.376 . S
C196 C180 1.509 . S
C196 C197 1.391 . S
C196 C201 1.386 . S
C197 H158 0.930 . S
C197 C196 1.391 . S
C197 C198 1.375 . S
C198 H159 0.931 . S
C198 C197 1.375 . S
C198 C199 1.375 . S
C199 C198 1.375 . S
C199 C200 1.361 . S
C200 H160 0.930 . S
C200 C199 1.361 . S
C200 C201 1.399 . S
C201 H161 0.929 . S
C201 C196 1.386 . S
C201 C200 1.399 . S
C202 C181 1.485 1_554 S
C202 C203 1.394 . S
C202 C207 1.360 1_554 S
C203 H162 0.931 . S
C203 C202 1.394 . S
C203 C204 1.372 . S
C204 H163 0.930 . S
C204 C203 1.372 . S
C204 C205 1.397 . S
C205 C204 1.397 . S
C205 C206 1.390 . S
C205 C221 1.476 . S
C206 H164 0.930 1_554 S
C206 C205 1.390 . S
C206 C207 1.366 1_554 S
C207 H165 0.932 . S
C207 C202 1.360 1_556 S
C207 C206 1.366 1_556 S
C208 C182 1.490 . S
C208 C209 1.380 . S
C208 C213 1.386 . S
C209 H166 0.930 . S
C209 C208 1.380 . S
C209 C210 1.381 . S
C210 H167 0.929 . S
C210 C209 1.381 . S
C210 C211 1.371 . S
C211 C210 1.371 . S
C211 C212 1.380 . S
C212 H168 0.931 . S
C212 C211 1.380 . S
C212 C213 1.387 . S
C213 H169 0.930 . S
C213 C208 1.386 . S
C213 C212 1.387 . S
C214 C183 1.519 . S
C214 C215 1.377 . S
C214 C219 1.361 . S
C215 H170 0.929 . S
C215 C214 1.377 . S
C215 C216 1.386 . S
C216 H171 0.931 . S
C216 C215 1.386 . S
C216 C217 1.363 . S
C217 C216 1.363 . S
C217 C218 1.385 . S
C218 H172 0.930 . S
C218 C217 1.385 . S
C218 C219 1.396 . S
C219 H173 0.929 . S
C219 C214 1.361 . S
C219 C218 1.396 . S
C220 O174 1.300 . S
C220 O175 1.209 . S
C220 C193 1.486 . S
C221 O176 1.199 . S
C221 O177 1.297 . S
C221 C205 1.476 . S
H222 O248 0.856 . S
H223 O251 0.854 . S
H224 C259 0.930 . S
H225 C260 0.930 . S
H226 C262 0.930 . S
H227 C263 0.930 . S
H228 C265 0.931 . S
H229 C266 0.930 . S
H230 C268 0.930 . S
H231 C269 0.929 . S
H232 C271 0.930 . S
H233 C272 0.931 . S
H234 C274 0.930 . S
H235 C275 0.929 . S
H236 C277 0.931 . S
H237 C278 0.930 . S
H238 C280 0.930 1_455 S
H239 C281 0.932 . S
H240 C283 0.930 . S
H241 C284 0.929 . S
H242 C286 0.931 . S
H243 C287 0.930 . S
H244 C289 0.929 . S
H245 C290 0.931 . S
H246 C292 0.930 . S
H247 C293 0.929 . S
O248 H222 0.856 . S
O248 C294 1.300 . S
O249 C294 1.209 . S
O250 C295 1.199 . S
O251 H223 0.854 . S
O251 C295 1.297 1_554 S
C252 C253 1.404 . S
C252 C257 1.397 . S
C252 C258 1.492 . S
C253 C252 1.404 . S
C253 C254 1.396 . S
C253 C264 1.492 . S
C254 C253 1.396 . S
C254 C255 1.397 . S
C254 C270 1.509 . S
C255 C254 1.397 . S
C255 C256 1.412 . S
C255 C276 1.485 . S
C256 C255 1.412 . S
C256 C257 1.388 . S
C256 C282 1.490 1_554 S
C257 C252 1.397 . S
C257 C256 1.388 . S
C257 C288 1.519 1_554 S
C258 C252 1.492 . S
C258 C259 1.363 . S
C258 C263 1.390 . S
C259 H224 0.930 . S
C259 C258 1.363 . S
C259 C260 1.372 . S
C260 H225 0.930 . S
C260 C259 1.372 . S
C260 C261 1.383 . S
C261 C260 1.383 . S
C261 C262 1.395 . S
C262 H226 0.930 . S
C262 C261 1.395 . S
C262 C263 1.362 . S
C263 H227 0.930 . S
C263 C258 1.390 . S
C263 C262 1.362 . S
C264 C253 1.492 . S
C264 C265 1.377 . S
C264 C269 1.397 . S
C265 H228 0.931 . S
C265 C264 1.377 . S
C265 C266 1.376 . S
C266 H229 0.930 . S
C266 C265 1.376 . S
C266 C267 1.376 . S
C267 C266 1.376 . S
C267 C268 1.378 . S
C267 C294 1.486 . S
C268 H230 0.930 . S
C268 C267 1.378 . S
C268 C269 1.376 . S
C269 H231 0.929 . S
C269 C264 1.397 . S
C269 C268 1.376 . S
C270 C254 1.509 . S
C270 C271 1.391 . S
C270 C275 1.386 . S
C271 H232 0.930 . S
C271 C270 1.391 . S
C271 C272 1.375 . S
C272 H233 0.931 . S
C272 C271 1.375 . S
C272 C273 1.375 . S
C273 C272 1.375 . S
C273 C274 1.361 . S
C274 H234 0.930 . S
C274 C273 1.361 . S
C274 C275 1.399 . S
C275 H235 0.929 . S
C275 C270 1.386 . S
C275 C274 1.399 . S
C276 C255 1.485 . S
C276 C277 1.394 . S
C276 C281 1.360 . S
C277 H236 0.931 . S
C277 C276 1.394 . S
C277 C278 1.372 1_554 S
C278 H237 0.930 . S
C278 C277 1.372 1_556 S
C278 C279 1.397 1_556 S
C279 C278 1.397 1_554 S
C279 C280 1.390 . S
C279 C295 1.476 1_654 S
C280 H238 0.930 1_655 S
C280 C279 1.390 . S
C280 C281 1.366 . S
C281 H239 0.932 . S
C281 C276 1.360 . S
C281 C280 1.366 . S
C282 C256 1.490 1_556 S
C282 C283 1.380 . S
C282 C287 1.386 . S
C283 H240 0.930 . S
C283 C282 1.380 . S
C283 C284 1.381 . S
C284 H241 0.929 . S
C284 C283 1.381 . S
C284 C285 1.371 . S
C285 C284 1.371 . S
C285 C286 1.380 . S
C286 H242 0.931 . S
C286 C285 1.380 . S
C286 C287 1.387 . S
C287 H243 0.930 . S
C287 C282 1.386 . S
C287 C286 1.387 . S
C288 C257 1.519 1_556 S
C288 C289 1.377 . S
C288 C293 1.361 . S
C289 H244 0.929 . S
C289 C288 1.377 . S
C289 C290 1.386 . S
C290 H245 0.931 . S
C290 C289 1.386 . S
C290 C291 1.363 . S
C291 C290 1.363 . S
C291 C292 1.385 . S
C292 H246 0.930 . S
C292 C291 1.385 . S
C292 C293 1.396 . S
C293 H247 0.929 . S
C293 C288 1.361 . S
C293 C292 1.396 . S
C294 O248 1.300 . S
C294 O249 1.209 . S
C294 C267 1.486 . S
C295 O250 1.199 . S
C295 O251 1.297 1_556 S
C295 C279 1.476 1_456 S
H296 O322 0.856 . S
H297 O325 0.854 . S
H298 C333 0.930 . S
H299 C334 0.930 . S
H300 C336 0.930 . S
H301 C337 0.930 . S
H302 C339 0.931 . S
H303 C340 0.930 . S
H304 C342 0.930 . S
H305 C343 0.929 . S
H306 C345 0.930 . S
H307 C346 0.931 . S
H308 C348 0.930 . S
H309 C349 0.929 . S
H310 C351 0.931 . S
H311 C352 0.933 . S
H312 C354 0.930 . S
H313 C355 0.932 . S
H314 C357 0.930 . S
H315 C358 0.929 . S
H316 C360 0.931 . S
H317 C361 0.930 . S
H318 C363 0.929 1_554 S
H319 C364 0.931 . S
H320 C366 0.930 . S
H321 C367 0.929 . S
O322 H296 0.856 . S
O322 C368 1.300 . S
O323 C368 1.209 . S
O324 C369 1.199 . S
O325 H297 0.854 . S
O325 C369 1.297 1_554 S
C326 C327 1.404 . S
C326 C331 1.397 . S
C326 C332 1.492 . S
C327 C326 1.404 . S
C327 C328 1.396 . S
C327 C338 1.492 . S
C328 C327 1.396 . S
C328 C329 1.397 . S
C328 C344 1.509 . S
C329 C328 1.397 . S
C329 C330 1.412 . S
C329 C350 1.485 . S
C330 C329 1.412 . S
C330 C331 1.388 . S
C330 C356 1.490 1_554 S
C331 C326 1.397 . S
C331 C330 1.388 . S
C331 C362 1.519 . S
C332 C326 1.492 . S
C332 C333 1.363 . S
C332 C337 1.390 . S
C333 H298 0.930 . S
C333 C332 1.363 . S
C333 C334 1.372 . S
C334 H299 0.930 . S
C334 C333 1.372 . S
C334 C335 1.383 . S
C335 C334 1.383 . S
C335 C336 1.395 . S
C336 H300 0.930 . S
C336 C335 1.395 . S
C336 C337 1.362 . S
C337 H301 0.930 . S
C337 C332 1.390 . S
C337 C336 1.362 . S
C338 C327 1.492 . S
C338 C339 1.377 . S
C338 C343 1.397 . S
C339 H302 0.931 . S
C339 C338 1.377 . S
C339 C340 1.376 . S
C340 H303 0.930 . S
C340 C339 1.376 . S
C340 C341 1.376 . S
C341 C340 1.376 . S
C341 C342 1.378 . S
C341 C368 1.486 . S
C342 H304 0.930 . S
C342 C341 1.378 . S
C342 C343 1.376 . S
C343 H305 0.929 . S
C343 C338 1.397 . S
C343 C342 1.376 . S
C344 C328 1.509 . S
C344 C345 1.391 . S
C344 C349 1.386 . S
C345 H306 0.930 . S
C345 C344 1.391 . S
C345 C346 1.375 . S
C346 H307 0.931 . S
C346 C345 1.375 . S
C346 C347 1.375 . S
C347 C346 1.375 . S
C347 C348 1.361 . S
C348 H308 0.930 . S
C348 C347 1.361 . S
C348 C349 1.399 . S
C349 H309 0.929 . S
C349 C344 1.386 . S
C349 C348 1.399 . S
C350 C329 1.485 . S
C350 C351 1.394 . S
C350 C355 1.360 . S
C351 H310 0.931 . S
C351 C350 1.394 . S
C351 C352 1.370 1_554 S
C352 H311 0.933 . S
C352 C351 1.370 1_556 S
C352 C353 1.395 1_556 S
C353 C352 1.395 1_554 S
C353 C354 1.390 . S
C353 C369 1.476 1_454 S
C354 H312 0.930 . S
C354 C353 1.390 . S
C354 C355 1.366 . S
C355 H313 0.932 . S
C355 C350 1.360 . S
C355 C354 1.366 . S
C356 C330 1.490 1_556 S
C356 C357 1.380 . S
C356 C361 1.386 . S
C357 H314 0.930 . S
C357 C356 1.380 . S
C357 C358 1.381 . S
C358 H315 0.929 . S
C358 C357 1.381 . S
C358 C359 1.371 . S
C359 C358 1.371 . S
C359 C360 1.380 . S
C360 H316 0.931 . S
C360 C359 1.380 . S
C360 C361 1.387 . S
C361 H317 0.930 . S
C361 C356 1.386 . S
C361 C360 1.387 . S
C362 C331 1.519 . S
C362 C363 1.377 1_554 S
C362 C367 1.361 1_554 S
C363 H318 0.929 1_556 S
C363 C362 1.377 1_556 S
C363 C364 1.386 . S
C364 H319 0.931 . S
C364 C363 1.386 . S
C364 C365 1.363 . S
C365 C364 1.363 . S
C365 C366 1.385 . S
C366 H320 0.930 . S
C366 C365 1.385 . S
C366 C367 1.396 . S
C367 H321 0.929 . S
C367 C362 1.361 1_556 S
C367 C366 1.396 . S
C368 O322 1.300 . S
C368 O323 1.209 . S
C368 C341 1.486 . S
C369 O324 1.199 . S
C369 O325 1.297 1_556 S
C369 C353 1.476 1_656 S
H370 O396 0.856 . S
H371 O399 0.854 . S
H372 C407 0.930 . S
H373 C408 0.930 . S
H374 C410 0.930 . S
H375 C411 0.930 . S
H376 C413 0.931 . S
H377 C414 0.930 . S
H378 C416 0.930 . S
H379 C417 0.929 . S
H380 C419 0.930 . S
H381 C420 0.931 . S
H382 C422 0.930 . S
H383 C423 0.929 . S
H384 C425 0.931 . S
H385 C426 0.930 . S
H386 C428 0.930 . S
H387 C429 0.932 . S
H388 C431 0.930 . S
H389 C432 0.929 . S
H390 C434 0.931 . S
H391 C435 0.930 . S
H392 C437 0.929 . S
H393 C438 0.931 . S
H394 C440 0.930 . S
H395 C441 0.929 . S
O396 H370 0.856 . S
O396 C442 1.300 . S
O397 C442 1.209 . S
O398 C443 1.199 . S
O399 H371 0.854 . S
O399 C443 1.297 . S
C400 C401 1.404 . S
C400 C405 1.397 . S
C400 C406 1.492 . S
C401 C400 1.404 . S
C401 C402 1.396 . S
C401 C412 1.492 1_554 S
C402 C401 1.396 . S
C402 C403 1.397 . S
C402 C418 1.509 . S
C403 C402 1.397 . S
C403 C404 1.412 . S
C403 C424 1.485 . S
C404 C403 1.412 . S
C404 C405 1.388 . S
C404 C430 1.490 . S
C405 C400 1.397 . S
C405 C404 1.388 . S
C405 C436 1.519 . S
C406 C400 1.492 . S
C406 C407 1.363 . S
C406 C411 1.390 . S
C407 H372 0.930 . S
C407 C406 1.363 . S
C407 C408 1.372 . S
C408 H373 0.930 . S
C408 C407 1.372 . S
C408 C409 1.383 . S
C409 C408 1.383 . S
C409 C410 1.395 . S
C410 H374 0.930 . S
C410 C409 1.395 . S
C410 C411 1.362 . S
C411 H375 0.930 . S
C411 C406 1.390 . S
C411 C410 1.362 . S
C412 C401 1.492 1_556 S
C412 C413 1.377 . S
C412 C417 1.397 . S
C413 H376 0.931 . S
C413 C412 1.377 . S
C413 C414 1.376 . S
C414 H377 0.930 . S
C414 C413 1.376 . S
C414 C415 1.376 . S
C415 C414 1.376 . S
C415 C416 1.378 . S
C415 C442 1.486 . S
C416 H378 0.930 . S
C416 C415 1.378 . S
C416 C417 1.376 . S
C417 H379 0.929 . S
C417 C412 1.397 . S
C417 C416 1.376 . S
C418 C402 1.509 . S
C418 C419 1.391 . S
C418 C423 1.386 1_554 S
C419 H380 0.930 . S
C419 C418 1.391 . S
C419 C420 1.375 1_554 S
C420 H381 0.931 . S
C420 C419 1.375 1_556 S
C420 C421 1.375 . S
C421 C420 1.375 . S
C421 C422 1.361 . S
C422 H382 0.930 . S
C422 C421 1.361 . S
C422 C423 1.399 . S
C423 H383 0.929 . S
C423 C418 1.386 1_556 S
C423 C422 1.399 . S
C424 C403 1.485 . S
C424 C425 1.394 . S
C424 C429 1.360 . S
C425 H384 0.931 . S
C425 C424 1.394 . S
C425 C426 1.372 . S
C426 H385 0.930 . S
C426 C425 1.372 . S
C426 C427 1.397 . S
C427 C426 1.397 . S
C427 C428 1.390 . S
C427 C443 1.476 1_545 S
C428 H386 0.930 . S
C428 C427 1.390 . S
C428 C429 1.366 . S
C429 H387 0.932 . S
C429 C424 1.360 . S
C429 C428 1.366 . S
C430 C404 1.490 . S
C430 C431 1.380 . S
C430 C435 1.386 . S
C431 H388 0.930 . S
C431 C430 1.380 . S
C431 C432 1.381 . S
C432 H389 0.929 . S
C432 C431 1.381 . S
C432 C433 1.371 . S
C433 C432 1.371 . S
C433 C434 1.380 . S
C434 H390 0.931 . S
C434 C433 1.380 . S
C434 C435 1.387 . S
C435 H391 0.930 . S
C435 C430 1.386 . S
C435 C434 1.387 . S
C436 C405 1.519 . S
C436 C437 1.377 . S
C436 C441 1.361 . S
C437 H392 0.929 . S
C437 C436 1.377 . S
C437 C438 1.386 . S
C438 H393 0.931 . S
C438 C437 1.386 . S
C438 C439 1.363 . S
C439 C438 1.363 . S
C439 C440 1.385 . S
C440 H394 0.930 . S
C440 C439 1.385 . S
C440 C441 1.396 . S
C441 H395 0.929 . S
C441 C436 1.361 . S
C441 C440 1.396 . S
C442 O396 1.300 . S
C442 O397 1.209 . S
C442 C415 1.486 . S
C443 O398 1.199 . S
C443 O399 1.297 . S
C443 C427 1.476 1_565 S
C444 O456 1.241 . S
C444 O457 1.280 . S
C445 O458 1.277 . S
C445 O459 1.245 . S
C446 O470 1.247 . S
C446 O472 1.289 . S
Mg447 O448 1.926 . S
Mg447 O457 1.984 . S
Mg447 O459 1.988 1_655 S
Mg447 O460 2.061 . S
O448 Mg447 1.926 . S
O448 Mg449 1.986 1_655 S
O448 Mg450 1.917 1_655 S
Mg449 O448 1.986 1_455 S
Mg449 O456 2.042 1_455 S
Mg449 O458 2.041 . S
Mg449 O464 2.038 1_455 S
Mg449 O472 2.238 . S
Mg450 O448 1.917 1_455 S
Mg450 O451 1.917 . S
Mg450 O461 2.106 1_455 S
Mg450 O463 2.079 1_455 S
Mg450 O472 2.106 . S
Mg450 O473 2.079 . S
O451 Mg450 1.917 . S
O451 Mg452 1.926 . S
O451 Mg453 1.986 . S
Mg452 O451 1.926 . S
Mg452 O466 1.984 . S
Mg452 O469 1.988 1_455 S
Mg452 O470 2.061 . S
Mg453 O451 1.986 . S
Mg453 O461 2.238 1_455 S
Mg453 O465 2.042 . S
Mg453 O467 2.041 1_455 S
Mg453 O474 2.038 . S
C454 O460 1.247 . S
C454 O461 1.289 . S
C455 O473 1.245 . S
C455 O474 1.274 . S
O456 C444 1.241 . S
O456 Mg449 2.042 1_655 S
O457 C444 1.280 . S
O457 Mg447 1.984 . S
O458 C445 1.277 . S
O458 Mg449 2.041 . S
O459 C445 1.245 . S
O459 Mg447 1.988 1_455 S
O460 Mg447 2.061 . S
O460 C454 1.247 . S
O461 Mg450 2.106 1_655 S
O461 Mg453 2.238 1_655 S
O461 C454 1.289 . S
C462 O463 1.245 . S
C462 O464 1.274 . S
O463 Mg450 2.079 1_655 S
O463 C462 1.245 . S
O464 Mg449 2.038 1_655 S
O464 C462 1.274 . S
O465 Mg453 2.042 . S
O465 C468 1.241 . S
O466 Mg452 1.984 . S
O466 C468 1.280 . S
O467 Mg453 2.041 1_655 S
O467 C471 1.277 . S
C468 O465 1.241 . S
C468 O466 1.280 . S
O469 Mg452 1.988 1_655 S
O469 C471 1.245 . S
O470 C446 1.247 . S
O470 Mg452 2.061 . S
C471 O467 1.277 . S
C471 O469 1.245 . S
O472 C446 1.289 . S
O472 Mg449 2.238 . S
O472 Mg450 2.106 . S
O473 Mg450 2.079 . S
O473 C455 1.245 . S
O474 Mg453 2.038 . S
O474 C455 1.274 . S
C475 O487 1.241 . S
C475 O488 1.280 . S
C476 O489 1.277 . S
C476 O490 1.245 . S
C477 O501 1.247 . S
C477 O503 1.289 . S
Mg478 O479 1.926 . S
Mg478 O488 1.984 . S
Mg478 O490 1.988 1_545 S
Mg478 O491 2.061 . S
O479 Mg478 1.926 . S
O479 Mg480 1.986 . S
O479 Mg481 1.917 . S
Mg480 O479 1.986 . S
Mg480 O487 2.042 . S
Mg480 O489 2.041 1_545 S
Mg480 O495 2.038 . S
Mg480 O503 2.238 1_545 S
Mg481 O479 1.917 . S
Mg481 O482 1.917 1_545 S
Mg481 O492 2.106 . S
Mg481 O494 2.079 . S
Mg481 O503 2.106 1_545 S
Mg481 O504 2.079 1_545 S
O482 Mg481 1.917 1_565 S
O482 Mg483 1.926 . S
O482 Mg484 1.986 1_565 S
Mg483 O482 1.926 . S
Mg483 O497 1.984 . S
Mg483 O500 1.988 1_565 S
Mg483 O501 2.061 . S
Mg484 O482 1.986 1_545 S
Mg484 O492 2.238 . S
Mg484 O496 2.042 1_545 S
Mg484 O498 2.041 . S
Mg484 O505 2.038 1_545 S
C485 O491 1.247 . S
C485 O492 1.289 . S
C486 O504 1.245 . S
C486 O505 1.274 . S
O487 C475 1.241 . S
O487 Mg480 2.042 . S
O488 C475 1.280 . S
O488 Mg478 1.984 . S
O489 C476 1.277 . S
O489 Mg480 2.041 1_565 S
O490 C476 1.245 . S
O490 Mg478 1.988 1_565 S
O491 Mg478 2.061 . S
O491 C485 1.247 . S
O492 Mg481 2.106 . S
O492 Mg484 2.238 . S
O492 C485 1.289 . S
C493 O494 1.245 . S
C493 O495 1.274 . S
O494 Mg481 2.079 . S
O494 C493 1.245 . S
O495 Mg480 2.038 . S
O495 C493 1.274 . S
O496 Mg484 2.042 1_565 S
O496 C499 1.241 . S
O497 Mg483 1.984 . S
O497 C499 1.280 . S
O498 Mg484 2.041 . S
O498 C502 1.277 . S
C499 O496 1.241 . S
C499 O497 1.280 . S
O500 Mg483 1.988 1_545 S
O500 C502 1.245 . S
O501 C477 1.247 . S
O501 Mg483 2.061 . S
C502 O498 1.277 . S
C502 O500 1.245 . S
O503 C477 1.289 . S
O503 Mg480 2.238 1_565 S
O503 Mg481 2.106 1_565 S
O504 Mg481 2.079 1_565 S
O504 C486 1.245 . S
O505 Mg484 2.038 1_565 S
O505 C486 1.274 . S
C506 O518 1.241 . S
C506 O519 1.280 . S
C507 O520 1.277 . S
C507 O521 1.245 . S
C508 O532 1.247 . S
C508 O534 1.289 . S
Mg509 O510 1.926 . S
Mg509 O519 1.984 . S
Mg509 O521 1.988 . S
Mg509 O522 2.061 . S
O510 Mg509 1.926 . S
O510 Mg511 1.986 . S
O510 Mg512 1.917 . S
Mg511 O510 1.986 . S
Mg511 O518 2.042 . S
Mg511 O520 2.041 . S
Mg511 O526 2.038 . S
Mg511 O534 2.238 . S
Mg512 O510 1.917 . S
Mg512 O513 1.917 . S
Mg512 O523 2.106 . S
Mg512 O525 2.079 . S
Mg512 O534 2.106 . S
Mg512 O535 2.079 . S
O513 Mg512 1.917 . S
O513 Mg514 1.926 . S
O513 Mg515 1.986 . S
Mg514 O513 1.926 . S
Mg514 O528 1.984 . S
Mg514 O531 1.988 . S
Mg514 O532 2.061 . S
Mg515 O513 1.986 . S
Mg515 O523 2.238 . S
Mg515 O527 2.042 . S
Mg515 O529 2.041 . S
Mg515 O536 2.038 . S
C516 O522 1.247 . S
C516 O523 1.289 . S
C517 O535 1.245 . S
C517 O536 1.274 . S
O518 C506 1.241 . S
O518 Mg511 2.042 . S
O519 C506 1.280 . S
O519 Mg509 1.984 . S
O520 C507 1.277 . S
O520 Mg511 2.041 . S
O521 C507 1.245 . S
O521 Mg509 1.988 . S
O522 Mg509 2.061 . S
O522 C516 1.247 . S
O523 Mg512 2.106 . S
O523 Mg515 2.238 . S
O523 C516 1.289 . S
C524 O525 1.245 . S
C524 O526 1.274 . S
O525 Mg512 2.079 . S
O525 C524 1.245 . S
O526 Mg511 2.038 . S
O526 C524 1.274 . S
O527 Mg515 2.042 . S
O527 C530 1.241 . S
O528 Mg514 1.984 . S
O528 C530 1.280 . S
O529 Mg515 2.041 . S
O529 C533 1.277 . S
C530 O527 1.241 . S
C530 O528 1.280 . S
O531 Mg514 1.988 . S
O531 C533 1.245 . S
O532 C508 1.247 . S
O532 Mg514 2.061 . S
C533 O529 1.277 . S
C533 O531 1.245 . S
O534 C508 1.289 . S
O534 Mg511 2.238 . S
O534 Mg512 2.106 . S
O535 Mg512 2.079 . S
O535 C517 1.245 . S
O536 Mg515 2.038 . S
O536 C517 1.274 . S
C39 C455 2.839 . S
C125 C502 1.456 . S
C506 C211 3.076 . S
C471 C273 0.946 . S
C335 C486 3.336 . S
C508 C439 1.801 . S
C477 C187 2.171 . S
C291 C517 2.419 . S
C446 C359 3.308 . S
C421 C475 0.989 . S
C63 C533 3.073 . S
C444 C143 2.221 . S
C462 C285 3.822 . S
C476 C365 2.145 . S
C530 C409 2.624 1_556 S
C445 C69 1.899 . S
C493 C137 3.292 . S
C199 C516 1.443 . S
C485 C433 3.515 . S
C524 C51 1.267 . S
C454 C113 2.443 . S
C499 C217 1.738 . S
C261 C507 2.947 . S
C347 C468 0.982 . S
