# Generated by pormake.
# Topology pyr, (3,6)-cn, num edge types: 1
# Building blocks:
#     Node 0, Type 0, BuildingBlock: MIDCAF_clean_linker_0, # of connection points: 3
#     Node 1, Type 0, BuildingBlock: MIDCAF_clean_linker_0, # of connection points: 3
#     Node 2, Type 0, BuildingBlock: MIDCAF_clean_linker_0, # of connection points: 3
#     Node 3, Type 0, BuildingBlock: MIDCAF_clean_linker_0, # of connection points: 3
#     Node 4, Type 0, BuildingBlock: MIDCAF_clean_linker_0, # of connection points: 3
#     Node 5, Type 0, BuildingBlock: MIDCAF_clean_linker_0, # of connection points: 3
#     Node 6, Type 0, BuildingBlock: MIDCAF_clean_linker_0, # of connection points: 3
#     Node 7, Type 0, BuildingBlock: MIDCAF_clean_linker_0, # of connection points: 3
#     Node 8, Type 1, BuildingBlock: PAMTOO_clean_sbu_0, # of connection points: 6
#     Node 9, Type 1, BuildingBlock: PAMTOO_clean_sbu_0, # of connection points: 6
#     Node 10, Type 1, BuildingBlock: PAMTOO_clean_sbu_0, # of connection points: 6
#     Node 11, Type 1, BuildingBlock: PAMTOO_clean_sbu_0, # of connection points: 6
#     Edge 12, Type (0, 1), None
#     Edge 13, Type (0, 1), None
#     Edge 14, Type (0, 1), None
#     Edge 15, Type (0, 1), None
#     Edge 16, Type (0, 1), None
#     Edge 17, Type (0, 1), None
#     Edge 18, Type (0, 1), None
#     Edge 19, Type (0, 1), None
#     Edge 20, Type (0, 1), None
#     Edge 21, Type (0, 1), None
#     Edge 22, Type (0, 1), None
#     Edge 23, Type (0, 1), None
#     Edge 24, Type (0, 1), None
#     Edge 25, Type (0, 1), None
#     Edge 26, Type (0, 1), None
#     Edge 27, Type (0, 1), None
#     Edge 28, Type (0, 1), None
#     Edge 29, Type (0, 1), None
#     Edge 30, Type (0, 1), None
#     Edge 31, Type (0, 1), None
#     Edge 32, Type (0, 1), None
#     Edge 33, Type (0, 1), None
#     Edge 34, Type (0, 1), None
#     Edge 35, Type (0, 1), None
# Relax obj value: 0.220
# Max RMSD: 0.199
# Mean RMSD: 0.086
data_MOF--net-pyr--node1-PAMTOO_clean_sbu_0--node2-MIDCAF_clean_linker_0--edge1-none
_symmetry_space_group_name_H-M    P1
_symmetry_Int_Tables_number       1
_symmetry_cell_setting            triclinic
loop_
_symmetry_equiv_pos_as_xyz
'x, y, z'
_cell_length_a     25.530256
_cell_length_b     26.247591
_cell_length_c     24.217402
_cell_angle_alpha  90.019484
_cell_angle_beta   90.021998
_cell_angle_gamma 104.86152
loop_
_atom_site_label
_atom_site_type_symbol
_atom_site_fract_x
_atom_site_fract_y
_atom_site_fract_z
_atom_type_partial_charge
C0 C 0.33928 0.29338 0.52405 0.0
C1 C 0.35422 0.24644 0.5353 0.0
C2 C 0.40416 0.24121 0.51475 0.0
C3 C 0.43085 0.27496 0.47321 0.0
H4 H 0.50407 0.2433 0.33602 0.0
H5 H 0.53075 0.17444 0.28384 0.0
H6 H 0.44305 0.20918 0.14211 0.0
H7 H 0.41636 0.27748 0.19377 0.0
H8 H 0.3154 0.32513 0.21356 0.0
H9 H 0.22696 0.33694 0.18673 0.0
H10 H 0.21579 0.41359 0.34242 0.0
H11 H 0.30358 0.40193 0.36943 0.0
H12 H 0.34965 0.35963 0.47055 0.0
H13 H 0.30218 0.30016 0.54035 0.0
H14 H 0.4187 0.20711 0.5252 0.0
H15 H 0.46457 0.26528 0.45236 0.0
N16 N 0.4408 0.30253 0.35928 0.0
N17 N 0.39389 0.3219 0.28196 0.0
N18 N 0.37506 0.3494 0.36994 0.0
C19 C 0.43247 0.30024 0.30379 0.0
C20 C 0.36537 0.34713 0.31486 0.0
C21 C 0.41239 0.3272 0.3928 0.0
C22 C 0.45713 0.2655 0.26949 0.0
C23 C 0.49116 0.23686 0.29341 0.0
C24 C 0.50654 0.19729 0.26355 0.0
C25 C 0.48809 0.18546 0.20926 0.0
C26 C 0.45717 0.21649 0.18428 0.0
C27 C 0.442 0.25602 0.21391 0.0
C28 C 0.31664 0.36212 0.2939 0.0
C29 C 0.29457 0.3453 0.24172 0.0
C30 C 0.24373 0.35184 0.22641 0.0
C31 C 0.21387 0.37516 0.26299 0.0
C32 C 0.23709 0.39417 0.31394 0.0
C33 C 0.28781 0.3879 0.32913 0.0
C34 C 0.40786 0.31436 0.45253 0.0
C35 C 0.36661 0.32768 0.48339 0.0
C36 C 0.00672 0.90649 0.76333 0.0
C37 C 0.02537 0.91851 0.70916 0.0
C38 C 0.05646 0.88765 0.6842 0.0
C39 C 0.07163 0.8481 0.71378 0.0
H40 H 0.19781 0.77886 0.71306 0.0
H41 H 0.28619 0.76722 0.68586 0.0
H42 H 0.29859 0.69143 0.84175 0.0
H43 H 0.21086 0.70297 0.86914 0.0
H44 H 0.16457 0.74502 0.97025 0.0
H45 H 0.21185 0.8045 1.04022 0.0
H46 H 0.09486 0.89706 1.02522 0.0
H47 H 0.04919 0.83888 0.9522 0.0
H48 H 0.00911 0.86034 0.83569 0.0
H49 H 0.98239 0.92922 0.78359 0.0
H50 H 0.07072 0.89512 0.64211 0.0
H51 H 0.09743 0.82678 0.69366 0.0
N52 N 0.11974 0.78224 0.78173 0.0
N53 N 0.13892 0.75502 0.86971 0.0
N54 N 0.07294 0.80163 0.85909 0.0
C55 C 0.14845 0.75719 0.8146 0.0
C56 C 0.10153 0.77712 0.8926 0.0
C57 C 0.08114 0.80383 0.80358 0.0
C58 C 0.19719 0.7423 0.79353 0.0
C59 C 0.21891 0.75892 0.7412 0.0
C60 C 0.2697 0.75247 0.72567 0.0
C61 C 0.29989 0.72944 0.76217 0.0
C62 C 0.27704 0.71064 0.81331 0.0
C63 C 0.22635 0.71682 0.82872 0.0
C64 C 0.10612 0.79004 0.95232 0.0
C65 C 0.1475 0.77688 0.98315 0.0
C66 C 0.17469 0.81117 1.02393 0.0
C67 C 0.15955 0.85798 1.03531 0.0
C68 C 0.10955 0.86307 1.0147 0.0
C69 C 0.08299 0.82932 0.97306 0.0
C70 C 0.05636 0.83846 0.76928 0.0
C71 C 0.02214 0.86692 0.79315 0.0
C72 C 0.62523 0.20064 1.00779 0.0
C73 C 0.569 0.17824 1.00778 0.0
C74 C 0.53553 0.20477 0.97947 0.0
C75 C 0.55768 0.25431 0.95513 0.0
H76 H 0.57209 0.36362 0.80623 0.0
H77 H 0.53791 0.40564 0.72962 0.0
H78 H 0.62499 0.55863 0.79046 0.0
H79 H 0.66004 0.51636 0.86708 0.0
H80 H 0.77225 0.51242 0.94585 0.0
H81 H 0.85515 0.55307 0.99659 0.0
H82 H 0.828 0.41654 1.10294 0.0
H83 H 0.7457 0.37636 1.05291 0.0
H84 H 0.69046 0.26659 0.98697 0.0
H85 H 0.65247 0.18116 1.02824 0.0
H86 H 0.49201 0.18865 0.97861 0.0
H87 H 0.53081 0.27517 0.93621 0.0
N88 N 0.6168 0.35845 0.90231 0.0
N89 N 0.68383 0.43728 0.9199 0.0
N90 N 0.68057 0.36185 0.97262 0.0
C91 C 0.64014 0.41017 0.88989 0.0
C92 C 0.70412 0.41315 0.96162 0.0
C93 C 0.63725 0.33411 0.94368 0.0
C94 C 0.61886 0.4364 0.84322 0.0
C95 C 0.58407 0.40622 0.8035 0.0
C96 C 0.56462 0.43045 0.75919 0.0
C97 C 0.57867 0.4857 0.75354 0.0
C98 C 0.61324 0.51604 0.79337 0.0
C99 C 0.63341 0.4917 0.83736 0.0
C100 C 0.75239 0.44079 0.99456 0.0
C101 C 0.7837 0.49134 0.98035 0.0
C102 C 0.83133 0.51461 1.00956 0.0
C103 C 0.84872 0.48786 1.0537 0.0
C104 C 0.81625 0.43827 1.06913 0.0
C105 C 0.76886 0.41511 1.04005 0.0
C106 C 0.61355 0.27816 0.95907 0.0
C107 C 0.64709 0.24984 0.984 0.0
C108 C 0.69748 0.6651 0.56985 0.0
C109 C 0.66459 0.61588 0.55381 0.0
C110 C 0.68159 0.58946 0.50916 0.0
C111 C 0.72926 0.61267 0.48007 0.0
H112 H 0.85156 0.58741 0.3659 0.0
H113 H 0.88674 0.54525 0.28926 0.0
H114 H 0.97786 0.69808 0.23185 0.0
H115 H 0.94347 0.73994 0.30835 0.0
H116 H 0.98262 0.82843 0.43686 0.0
H117 H 0.02146 0.91501 0.47916 0.0
H118 H 0.86104 0.92263 0.52871 0.0
H119 H 0.82302 0.83711 0.48755 0.0
H120 H 0.7684 0.72674 0.55413 0.0
H121 H 0.68599 0.68657 0.60403 0.0
H122 H 0.65747 0.55125 0.49575 0.0
H123 H 0.74041 0.59184 0.4452 0.0
N124 N 0.82955 0.6664 0.42027 0.0
N125 N 0.89667 0.74519 0.40291 0.0
N126 N 0.83283 0.74181 0.4731 0.0
C127 C 0.87331 0.69348 0.39037 0.0
C128 C 0.87619 0.76953 0.44425 0.0
C129 C 0.80926 0.69053 0.46201 0.0
C130 C 0.89469 0.66727 0.34372 0.0
C131 C 0.87911 0.61206 0.33693 0.0
C132 C 0.89935 0.58778 0.29291 0.0
C133 C 0.93515 0.61809 0.25404 0.0
C134 C 0.95028 0.67326 0.26067 0.0
C135 C 0.93065 0.6974 0.30493 0.0
C136 C 0.8999 0.82549 0.4597 0.0
C137 C 0.95577 0.84931 0.45576 0.0
C138 C 0.97794 0.8989 0.48005 0.0
C139 C 0.9445 0.9255 0.5083 0.0
C140 C 0.88827 0.90311 0.50832 0.0
C141 C 0.86638 0.85385 0.4846 0.0
C142 C 0.76098 0.66289 0.49487 0.0
C143 C 0.7449 0.68825 0.54084 0.0
C144 C 0.50578 0.9052 0.97952 0.0
C145 C 0.52514 0.9178 1.03338 0.0
C146 C 0.55678 0.88739 1.05817 0.0
C147 C 0.5718 0.84771 1.02867 0.0
H148 H 0.69744 0.77801 1.02931 0.0
H149 H 0.78594 0.76653 1.05635 0.0
H150 H 0.79835 0.69115 0.90018 0.0
H151 H 0.71049 0.7025 0.87295 0.0
H152 H 0.66354 0.74401 0.77204 0.0
H153 H 0.71103 0.80354 0.70229 0.0
H154 H 0.59461 0.89668 0.71771 0.0
H155 H 0.54876 0.83846 0.79053 0.0
H156 H 0.50756 0.85854 0.90737 0.0
H157 H 0.48103 0.92761 0.95941 0.0
H158 H 0.57156 0.89532 1.10006 0.0
H159 H 0.59804 0.82677 1.04861 0.0
N160 N 0.61927 0.78138 0.96072 0.0
N161 N 0.63832 0.75425 0.87268 0.0
N162 N 0.57229 0.80077 0.88347 0.0
C163 C 0.64796 0.7564 0.92776 0.0
C164 C 0.60086 0.77632 0.84988 0.0
C165 C 0.58058 0.80293 0.93898 0.0
C166 C 0.6968 0.74161 0.94872 0.0
C167 C 0.71856 0.75819 1.00108 0.0
C168 C 0.76943 0.75184 1.01652 0.0
C169 C 0.79964 0.72897 0.97989 0.0
C170 C 0.77676 0.71023 0.92872 0.0
C171 C 0.726 0.71631 0.9134 0.0
C172 C 0.60539 0.78931 0.79019 0.0
C173 C 0.64663 0.77601 0.75927 0.0
C174 C 0.67394 0.81033 0.71863 0.0
C175 C 0.65903 0.8573 0.70746 0.0
C176 C 0.60912 0.86255 0.72808 0.0
C177 C 0.58245 0.82878 0.76961 0.0
C178 C 0.55587 0.83755 0.97338 0.0
C179 C 0.52109 0.86554 0.94974 0.0
C180 C 0.90465 0.24215 0.22802 0.0
C181 C 0.85473 0.24745 0.20743 0.0
C182 C 0.83993 0.29448 0.2186 0.0
C183 C 0.86731 0.32877 0.25927 0.0
H184 H 0.80353 0.4023 0.37299 0.0
H185 H 0.71558 0.41372 0.39968 0.0
H186 H 0.72652 0.33702 0.55535 0.0
H187 H 0.81513 0.32546 0.52883 0.0
H188 H 0.91544 0.27736 0.54872 0.0
H189 H 0.94197 0.20886 0.60018 0.0
H190 H 0.03172 0.17593 0.45926 0.0
H191 H 0.00517 0.24496 0.40725 0.0
H192 H 0.96503 0.26613 0.29051 0.0
H193 H 0.9191 0.20799 0.21761 0.0
H194 H 0.80286 0.30132 0.20224 0.0
H195 H 0.85043 0.36079 0.27206 0.0
N196 N 0.8753 0.35014 0.37275 0.0
N197 N 0.89388 0.32252 0.46074 0.0
N198 N 0.94118 0.30345 0.38359 0.0
C199 C 0.8654 0.34773 0.42778 0.0
C200 C 0.93264 0.30103 0.43905 0.0
C201 C 0.9128 0.32811 0.35 0.0
C202 C 0.8165 0.36252 0.44854 0.0
C203 C 0.78767 0.38821 0.41321 0.0
C204 C 0.73685 0.39433 0.42821 0.0
C205 C 0.71354 0.37525 0.47907 0.0
C206 C 0.74337 0.35197 0.51574 0.0
C207 C 0.7943 0.34558 0.50061 0.0
C208 C 0.95723 0.26628 0.47338 0.0
C209 C 0.9415 0.25627 0.52872 0.0
C210 C 0.95657 0.21662 0.55824 0.0
C211 C 0.98802 0.18605 0.53339 0.0
C212 C 0.00711 0.19844 0.47943 0.0
C213 C 0.99179 0.2381 0.44966 0.0
C214 C 0.90847 0.31536 0.29024 0.0
C215 C 0.93138 0.27589 0.26959 0.0
C216 C 0.18183 0.58947 0.23321 0.0
C217 C 0.16462 0.61603 0.18881 0.0
C218 C 0.19732 0.66541 0.17303 0.0
C219 C 0.24477 0.68854 0.20201 0.0
H220 H 0.32359 0.83734 0.25507 0.0
H221 H 0.3617 0.92271 0.21371 0.0
H222 H 0.52223 0.91433 0.26219 0.0
H223 H 0.48329 0.82795 0.3047 0.0
H224 H 0.44493 0.73987 0.43333 0.0
H225 H 0.47932 0.69804 0.50984 0.0
H226 H 0.38613 0.5454 0.4538 0.0
H227 H 0.35099 0.58755 0.37714 0.0
H228 H 0.24086 0.59174 0.29698 0.0
H229 H 0.15784 0.55116 0.24643 0.0
H230 H 0.18569 0.68699 0.13903 0.0
H231 H 0.26813 0.72713 0.1889 0.0
N232 N 0.33315 0.74185 0.26933 0.0
N233 N 0.3972 0.74517 0.33935 0.0
N234 N 0.32981 0.6665 0.32223 0.0
C235 C 0.37667 0.76952 0.29805 0.0
C236 C 0.37372 0.69353 0.352 0.0
C237 C 0.30948 0.69062 0.28052 0.0
C238 C 0.40051 0.82539 0.28244 0.0
C239 C 0.36701 0.8539 0.25775 0.0
C240 C 0.38896 0.90308 0.2339 0.0
C241 C 0.44523 0.92522 0.23355 0.0
C242 C 0.47868 0.89842 0.26153 0.0
C243 C 0.45645 0.84896 0.28598 0.0
C244 C 0.39513 0.66731 0.39864 0.0
C245 C 0.43167 0.69738 0.43705 0.0
C246 C 0.45131 0.67324 0.4813 0.0
C247 C 0.43558 0.61813 0.48833 0.0
C248 C 0.3992 0.58788 0.44985 0.0
C249 C 0.37899 0.61216 0.40581 0.0
C250 C 0.26109 0.66303 0.24773 0.0
C251 C 0.22954 0.61269 0.26231 0.0
C252 C 0.1249 0.20103 0.73413 0.0
C253 C 0.06865 0.17878 0.73399 0.0
C254 C 0.03525 0.20545 0.76219 0.0
C255 C 0.05749 0.25495 0.78663 0.0
H256 H 0.07105 0.36398 0.93514 0.0
H257 H 0.03676 0.40584 1.01175 0.0
H258 H 0.12583 0.55883 0.9528 0.0
H259 H 0.16095 0.51668 0.87612 0.0
H260 H 0.27215 0.51297 0.79632 0.0
H261 H 0.35506 0.55353 0.74558 0.0
H262 H 0.32819 0.41651 0.63984 0.0
H263 H 0.24595 0.37644 0.68981 0.0
H264 H 0.19025 0.26686 0.75515 0.0
H265 H 0.15211 0.18146 0.71377 0.0
H266 H 0.99171 0.18945 0.76298 0.0
H267 H 0.03066 0.27588 0.8055 0.0
N268 N 0.11672 0.35888 0.8398 0.0
N269 N 0.18389 0.43765 0.82249 0.0
N270 N 0.18057 0.36224 0.76964 0.0
C271 C 0.14013 0.41056 0.85237 0.0
C272 C 0.20418 0.41352 0.78076 0.0
C273 C 0.13718 0.33454 0.79844 0.0
C274 C 0.11881 0.43675 0.89906 0.0
C275 C 0.08344 0.40655 0.93827 0.0
C276 C 0.0639 0.43069 0.98258 0.0
C277 C 0.07848 0.48591 0.98878 0.0
C278 C 0.11366 0.51627 0.94947 0.0
C279 C 0.13386 0.492 0.90544 0.0
C280 C 0.25247 0.44111 0.74789 0.0
C281 C 0.28368 0.49177 0.76195 0.0
C282 C 0.33129 0.515 0.73272 0.0
C283 C 0.34876 0.48808 0.68878 0.0
C284 C 0.3164 0.43836 0.67353 0.0
C285 C 0.26903 0.41527 0.70257 0.0
C286 C 0.11338 0.27863 0.78288 0.0
C287 C 0.14686 0.25021 0.75799 0.0
Dy288 Dy 0.06825 0.05947 0.59363 0.0
Dy289 Dy 0.94491 1.04468 0.64875 0.0
C290 C 0.04554 0.13152 0.69926 0.0
O291 O 0.04759 0.98214 0.63694 0.0
O292 O 0.97961 0.98828 0.69683 0.0
O293 O 0.14943 0.0564 0.61398 0.0
O294 O 0.13037 0.07678 0.53075 0.0
O295 O 0.93552 0.98555 0.58022 0.0
O296 O 0.01927 0.9968 0.53906 0.0
O297 O 0.96488 0.12163 0.60472 0.0
O298 O 0.03437 0.11681 0.54614 0.0
O299 O 0.86359 1.04737 0.62856 0.0
O300 O 0.88293 1.02723 0.71179 0.0
C301 C 0.01643 0.96501 0.67956 0.0
O302 O 0.07778 0.1181 0.66269 0.0
O303 O 0.99363 0.10811 0.70259 0.0
C304 C 0.21837 0.11493 0.5644 0.0
C305 C 0.31195 0.199 0.5535 0.0
C306 C 0.26972 0.20336 0.58917 0.0
C307 C 0.22309 0.16171 0.59428 0.0
C308 C 0.26153 0.10907 0.53179 0.0
C309 C 0.3078 0.1506 0.52628 0.0
C310 C 0.16834 0.07238 0.56522 0.0
C311 C 0.96755 0.97279 0.54299 0.0
C312 C 0.99685 0.13943 0.56286 0.0
C313 C 0.79488 0.98882 0.67837 0.0
C314 C 0.70131 0.90474 0.6893 0.0
C315 C 0.74351 0.90041 0.65357 0.0
C316 C 0.79013 0.94206 0.64844 0.0
C317 C 0.75176 0.99465 0.71106 0.0
C318 C 0.7055 0.95312 0.71659 0.0
C319 C 0.84483 1.03144 0.67738 0.0
H320 H 0.27158 0.2397 0.61119 0.0
H321 H 0.19008 0.16663 0.62005 0.0
H322 H 0.25856 0.07306 0.50871 0.0
H323 H 0.33855 0.14564 0.49749 0.0
H324 H 0.74161 0.86409 0.63151 0.0
H325 H 0.8231 0.93717 0.62259 0.0
H326 H 0.75475 1.03066 0.73416 0.0
H327 H 0.67479 0.95806 0.74543 0.0
Dy328 Dy 0.44529 1.04481 1.09365 0.0
Dy329 Dy 0.56874 0.05964 0.14863 0.0
C330 C 0.46831 0.97254 0.19894 0.0
O331 O 0.46677 0.12258 0.13616 0.0
O332 O 0.53321 0.11511 0.1973 0.0
O333 O 0.36428 1.04825 1.11429 0.0
O334 O 0.38292 1.02774 1.03097 0.0
O335 O 0.57788 0.11911 1.08055 0.0
O336 O 0.49449 0.10651 1.03819 0.0
O337 O 0.54948 0.98317 1.10366 0.0
O338 O 0.47809 0.98637 1.04679 0.0
O339 O 0.65018 0.05736 0.12861 0.0
O340 O 0.63064 0.07736 0.21181 0.0
C341 C 0.49711 0.13904 0.17951 0.0
O342 O 0.43576 0.98674 0.16324 0.0
O343 O 0.52042 0.99528 0.20152 0.0
C344 C 0.29507 0.98973 1.06487 0.0
C345 C 0.20164 0.90549 1.05373 0.0
C346 C 0.24392 0.90118 1.0894 0.0
C347 C 0.29048 0.94291 1.09461 0.0
C348 C 0.25183 0.99555 1.03233 0.0
C349 C 0.20563 0.95394 1.0267 0.0
C350 C 0.34513 1.03225 1.06559 0.0
C351 C 0.54603 0.13111 1.04264 0.0
C352 C 0.51649 0.96453 1.06275 0.0
C353 C 0.71871 0.11598 0.17859 0.0
C354 C 0.81236 0.20001 0.18938 0.0
C355 C 0.77011 0.20433 0.15367 0.0
C356 C 0.72346 0.1627 0.14861 0.0
C357 C 0.76186 0.11019 0.21129 0.0
C358 C 0.80816 0.15169 0.21675 0.0
C359 C 0.66883 0.07329 0.17749 0.0
H360 H 0.24218 0.86482 1.11128 0.0
H361 H 0.32356 0.93801 0.12031 0.0
H362 H 0.2547 1.03158 1.00933 0.0
H363 H 0.17485 0.95887 0.99793 0.0
H364 H 0.77201 0.24061 0.13156 0.0
H365 H 0.69048 0.16754 0.12272 0.0
H366 H 0.75888 0.07421 0.23441 0.0
H367 H 0.8389 0.14678 0.24558 0.0
Dy368 Dy 0.49962 0.49699 0.58392 0.0
Dy369 Dy 0.5137 0.60718 0.6577 0.0
C370 C 0.55617 0.51089 0.70695 0.0
O371 O 0.41879 0.48161 0.62403 0.0
O372 O 0.43145 0.55611 0.67822 0.0
O373 O 0.48932 0.41272 0.57834 0.0
O374 O 0.5077 0.461 0.50507 0.0
O375 O 0.48649 0.62392 0.57308 0.0
O376 O 0.45039 0.54159 0.53651 0.0
O377 O 0.59639 0.61964 0.62209 0.0
O378 O 0.57969 0.55046 0.56034 0.0
O379 O 0.52349 0.69148 0.6615 0.0
O380 O 0.50604 0.64459 0.73579 0.0
C381 C 0.40199 0.51004 0.66147 0.0
O382 O 0.53274 0.48068 0.66593 0.0
O383 O 0.55885 0.56156 0.70897 0.0
C384 C 0.55626 0.39754 0.51793 0.0
C385 C 0.65837 0.38002 0.49349 0.0
C386 C 0.6478 0.39743 0.54616 0.0
C387 C 0.5974 0.40642 0.55814 0.0
C388 C 0.56589 0.37822 0.46601 0.0
C389 C 0.6165 0.36948 0.45388 0.0
C390 C 0.50703 0.41578 0.52762 0.0
C391 C 0.45798 0.59305 0.53512 0.0
C392 C 0.61131 0.5938 0.58099 0.0
C393 C 0.4571 0.70757 0.72219 0.0
C394 C 0.35499 0.72474 0.74735 0.0
C395 C 0.36524 0.70715 0.69465 0.0
C396 C 0.41565 0.69833 0.68232 0.0
C397 C 0.44775 0.72704 0.77414 0.0
C398 C 0.39716 0.73561 0.78662 0.0
C399 C 0.50631 0.68934 0.71239 0.0
H400 H 0.67925 0.40637 0.57735 0.0
H401 H 0.5914 0.42235 0.59822 0.0
H402 H 0.53502 0.37176 0.43422 0.0
H403 H 0.62321 0.35537 0.41312 0.0
H404 H 0.33354 0.69795 0.66372 0.0
H405 H 0.42142 0.6822 0.64225 0.0
H406 H 0.47884 0.7337 0.80572 0.0
H407 H 0.3907 0.74986 0.82739 0.0
Dy408 Dy 0.01364 0.60711 1.08461 0.0
Dy409 Dy -0.00033 0.49694 0.15832 0.0
C410 C 0.95762 0.593 0.20731 0.0
O411 O 0.09586 0.6206 0.12153 0.0
O412 O 0.08038 0.54977 0.18109 0.0
O413 O 0.0235 0.69139 1.0803 0.0
O414 O 0.00575 0.64403 1.0063 0.0
O415 O 0.03071 0.48044 1.07535 0.0
O416 O 0.06043 0.56203 1.03468 0.0
O417 O 0.9181 0.48239 0.1198 0.0
O418 O 0.93216 0.5551 1.06288 0.0
O419 O 0.98974 0.41269 0.16324 0.0
O420 O 0.00777 0.46054 0.2369 0.0
C421 C 0.11135 0.59397 0.16158 0.0
O422 O 0.98463 0.62377 0.16846 0.0
O423 O 0.9515 0.5417 0.20692 0.0
C424 C 0.9569 0.70712 1.01968 0.0
C425 C 0.85477 0.72431 0.99466 0.0
C426 C 0.86503 0.70653 1.04725 0.0
C427 C 0.91545 0.6977 1.05952 0.0
C428 C 0.94755 0.72679 0.96785 0.0
C429 C 0.89693 0.73536 0.95543 0.0
C430 C 0.00614 0.68893 1.02945 0.0
C431 C 0.05598 0.51101 1.03546 0.0
C432 C 0.90196 0.50993 1.08101 0.0
C433 C 0.05658 0.39734 0.22377 0.0
C434 C 0.15873 0.37995 0.24844 0.0
C435 C 0.14822 0.39738 0.19577 0.0
C436 C 0.0978 0.40631 0.18367 0.0
C437 C 0.06619 0.37803 0.2757 0.0
C438 C 0.1168 0.36935 0.28795 0.0
C439 C 0.00731 0.4155 0.21403 0.0
H440 H 0.83334 0.69719 1.07815 0.0
H441 H 0.92124 0.68143 1.0995 0.0
H442 H 0.97867 0.73363 0.93631 0.0
H443 H 0.89045 0.74976 0.91474 0.0
H444 H 0.17971 0.40636 0.16466 0.0
H445 H 0.09183 0.42227 0.14359 0.0
H446 H 0.03527 0.37153 0.30742 0.0
H447 H 0.12346 0.35522 0.3287 0.0
loop_
_geom_bond_atom_site_label_1
_geom_bond_atom_site_label_2
_geom_bond_distance
_geom_bond_site_symmetry_2
_ccdc_geom_bond_type
C0 C1 1.384 . S
C0 H13 0.947 . S
C0 C35 1.382 . S
C1 C0 1.384 . S
C1 C2 1.378 . S
C2 C1 1.378 . S
C2 C3 1.378 . S
C2 H14 0.952 . S
C3 C2 1.378 . S
C3 H15 0.950 . S
C3 C34 1.383 . S
H4 C23 0.947 . S
H5 C24 0.946 . S
H6 C26 0.953 . S
H7 C27 0.945 . S
H8 C29 0.952 . S
H9 C30 0.949 . S
H10 C32 0.950 . S
H11 C33 0.948 . S
H12 C35 0.951 . S
H13 C0 0.947 . S
H14 C2 0.952 . S
H15 C3 0.950 . S
N16 C19 1.382 . S
N16 C21 1.363 . S
N17 C19 1.371 . S
N17 C20 1.372 . S
N18 C20 1.361 . S
N18 C21 1.377 . S
C19 N16 1.382 . S
C19 N17 1.371 . S
C19 C22 1.480 . S
C20 N17 1.372 . S
C20 N18 1.361 . S
C20 C28 1.457 . S
C21 N16 1.363 . S
C21 N18 1.377 . S
C21 C34 1.479 . S
C22 C19 1.480 . S
C22 C23 1.383 . S
C22 C27 1.385 . S
C23 H4 0.947 . S
C23 C22 1.383 . S
C23 C24 1.388 . S
C24 H5 0.946 . S
C24 C23 1.388 . S
C24 C25 1.384 . S
C25 C24 1.384 . S
C25 C26 1.377 . S
C26 H6 0.953 . S
C26 C25 1.377 . S
C26 C27 1.369 . S
C27 H7 0.945 . S
C27 C22 1.385 . S
C27 C26 1.369 . S
C28 C20 1.457 . S
C28 C29 1.372 . S
C28 C33 1.364 . S
C29 H8 0.952 . S
C29 C28 1.372 . S
C29 C30 1.389 . S
C30 H9 0.949 . S
C30 C29 1.389 . S
C30 C31 1.387 . S
C31 C30 1.387 . S
C31 C32 1.372 . S
C32 H10 0.950 . S
C32 C31 1.372 . S
C32 C33 1.379 . S
C33 H11 0.948 . S
C33 C28 1.364 . S
C33 C32 1.379 . S
C34 C3 1.383 . S
C34 C21 1.479 . S
C34 C35 1.398 . S
C35 C0 1.382 . S
C35 H12 0.951 . S
C35 C34 1.398 . S
C36 C37 1.384 . S
C36 H49 0.947 . S
C36 C71 1.385 . S
C37 C36 1.384 . S
C37 C38 1.378 . S
C38 C37 1.378 . S
C38 C39 1.378 . S
C38 H50 0.952 . S
C39 C38 1.378 . S
C39 H51 0.950 . S
C39 C70 1.383 1_655 S
H40 C59 0.947 . S
H41 C60 0.946 . S
H42 C62 0.953 . S
H43 C63 0.945 . S
H44 C65 0.952 . S
H45 C66 0.949 . S
H46 C68 0.950 . S
H47 C69 0.948 . S
H48 C71 0.950 1_455 S
H49 C36 0.947 . S
H50 C38 0.952 . S
H51 C39 0.950 . S
N52 C55 1.382 . S
N52 C57 1.363 . S
N53 C55 1.371 . S
N53 C56 1.372 . S
N54 C56 1.361 . S
N54 C57 1.377 . S
C55 N52 1.382 . S
C55 N53 1.371 . S
C55 C58 1.480 . S
C56 N53 1.372 . S
C56 N54 1.361 . S
C56 C64 1.457 . S
C57 N52 1.363 . S
C57 N54 1.377 . S
C57 C70 1.479 . S
C58 C55 1.480 . S
C58 C59 1.383 . S
C58 C63 1.385 . S
C59 H40 0.947 . S
C59 C58 1.383 . S
C59 C60 1.388 . S
C60 H41 0.946 . S
C60 C59 1.388 . S
C60 C61 1.384 . S
C61 C60 1.384 . S
C61 C62 1.377 . S
C62 H42 0.953 . S
C62 C61 1.377 . S
C62 C63 1.369 . S
C63 H43 0.945 . S
C63 C58 1.385 . S
C63 C62 1.369 . S
C64 C56 1.457 . S
C64 C65 1.372 . S
C64 C69 1.364 . S
C65 H44 0.952 . S
C65 C64 1.372 . S
C65 C66 1.389 . S
C66 H45 0.949 . S
C66 C65 1.389 . S
C66 C67 1.387 . S
C67 C66 1.387 . S
C67 C68 1.372 . S
C68 H46 0.950 . S
C68 C67 1.372 . S
C68 C69 1.379 . S
C69 H47 0.948 . S
C69 C64 1.364 . S
C69 C68 1.379 . S
C70 C39 1.383 1_455 S
C70 C57 1.479 . S
C70 C71 1.397 1_455 S
C71 C36 1.385 . S
C71 H48 0.950 1_655 S
C71 C70 1.397 1_655 S
C72 C73 1.384 . S
C72 H85 0.947 . S
C72 C107 1.382 . S
C73 C72 1.384 . S
C73 C74 1.378 . S
C74 C73 1.378 . S
C74 C75 1.378 . S
C74 H86 0.952 . S
C75 C74 1.378 . S
C75 H87 0.950 . S
C75 C106 1.383 . S
H76 C95 0.947 . S
H77 C96 0.946 . S
H78 C98 0.953 . S
H79 C99 0.945 . S
H80 C101 0.952 . S
H81 C102 0.949 . S
H82 C104 0.950 . S
H83 C105 0.948 . S
H84 C107 0.951 . S
H85 C72 0.947 . S
H86 C74 0.952 . S
H87 C75 0.950 . S
N88 C91 1.382 . S
N88 C93 1.363 . S
N89 C91 1.371 . S
N89 C92 1.372 . S
N90 C92 1.361 . S
N90 C93 1.377 . S
C91 N88 1.382 . S
C91 N89 1.371 . S
C91 C94 1.480 . S
C92 N89 1.372 . S
C92 N90 1.361 . S
C92 C100 1.457 . S
C93 N88 1.363 . S
C93 N90 1.377 . S
C93 C106 1.479 . S
C94 C91 1.480 . S
C94 C95 1.383 . S
C94 C99 1.385 . S
C95 H76 0.947 . S
C95 C94 1.383 . S
C95 C96 1.388 . S
C96 H77 0.946 . S
C96 C95 1.388 . S
C96 C97 1.384 . S
C97 C96 1.384 . S
C97 C98 1.377 . S
C98 H78 0.953 . S
C98 C97 1.377 . S
C98 C99 1.369 . S
C99 H79 0.945 . S
C99 C94 1.385 . S
C99 C98 1.369 . S
C100 C92 1.457 . S
C100 C101 1.372 . S
C100 C105 1.364 . S
C101 H80 0.952 . S
C101 C100 1.372 . S
C101 C102 1.389 . S
C102 H81 0.949 . S
C102 C101 1.389 . S
C102 C103 1.387 . S
C103 C102 1.387 . S
C103 C104 1.372 . S
C104 H82 0.950 . S
C104 C103 1.372 . S
C104 C105 1.379 . S
C105 H83 0.948 . S
C105 C100 1.364 . S
C105 C104 1.379 . S
C106 C75 1.383 . S
C106 C93 1.479 . S
C106 C107 1.398 . S
C107 C72 1.382 . S
C107 H84 0.951 . S
C107 C106 1.398 . S
C108 C109 1.384 . S
C108 H121 0.947 . S
C108 C143 1.382 . S
C109 C108 1.384 . S
C109 C110 1.378 . S
C110 C109 1.378 . S
C110 C111 1.378 . S
C110 H122 0.952 . S
C111 C110 1.378 . S
C111 H123 0.950 . S
C111 C142 1.383 . S
H112 C131 0.947 . S
H113 C132 0.946 . S
H114 C134 0.953 1_455 S
H115 C135 0.945 . S
H116 C137 0.952 . S
H117 C138 0.949 1_455 S
H118 C140 0.950 . S
H119 C141 0.948 . S
H120 C143 0.951 . S
H121 C108 0.947 . S
H122 C110 0.952 . S
H123 C111 0.950 . S
N124 C127 1.382 . S
N124 C129 1.363 . S
N125 C127 1.371 . S
N125 C128 1.372 . S
N126 C128 1.361 . S
N126 C129 1.377 . S
C127 N124 1.382 . S
C127 N125 1.371 . S
C127 C130 1.480 . S
C128 N125 1.372 . S
C128 N126 1.361 . S
C128 C136 1.457 . S
C129 N124 1.363 . S
C129 N126 1.377 . S
C129 C142 1.479 . S
C130 C127 1.480 . S
C130 C131 1.383 . S
C130 C135 1.385 . S
C131 H112 0.947 . S
C131 C130 1.383 . S
C131 C132 1.388 . S
C132 H113 0.946 . S
C132 C131 1.388 . S
C132 C133 1.384 . S
C133 C132 1.384 . S
C133 C134 1.377 . S
C134 H114 0.953 1_655 S
C134 C133 1.377 . S
C134 C135 1.369 . S
C135 H115 0.945 . S
C135 C130 1.385 . S
C135 C134 1.369 . S
C136 C128 1.457 . S
C136 C137 1.372 . S
C136 C141 1.364 . S
C137 H116 0.952 . S
C137 C136 1.372 . S
C137 C138 1.389 . S
C138 H117 0.949 1_655 S
C138 C137 1.389 . S
C138 C139 1.387 . S
C139 C138 1.387 . S
C139 C140 1.372 . S
C140 H118 0.950 . S
C140 C139 1.372 . S
C140 C141 1.379 . S
C141 H119 0.948 . S
C141 C136 1.364 . S
C141 C140 1.379 . S
C142 C111 1.383 . S
C142 C129 1.479 . S
C142 C143 1.398 . S
C143 C108 1.382 . S
C143 H120 0.951 . S
C143 C142 1.398 . S
C144 C145 1.384 . S
C144 H157 0.947 . S
C144 C179 1.382 . S
C145 C144 1.384 . S
C145 C146 1.378 . S
C146 C145 1.378 . S
C146 C147 1.378 . S
C146 H158 0.952 . S
C147 C146 1.378 . S
C147 H159 0.950 . S
C147 C178 1.383 . S
H148 C167 0.947 . S
H149 C168 0.946 . S
H150 C170 0.953 . S
H151 C171 0.945 . S
H152 C173 0.952 . S
H153 C174 0.949 . S
H154 C176 0.950 . S
H155 C177 0.948 . S
H156 C179 0.951 . S
H157 C144 0.947 . S
H158 C146 0.952 . S
H159 C147 0.950 . S
N160 C163 1.382 . S
N160 C165 1.363 . S
N161 C163 1.371 . S
N161 C164 1.372 . S
N162 C164 1.361 . S
N162 C165 1.377 . S
C163 N160 1.382 . S
C163 N161 1.371 . S
C163 C166 1.480 . S
C164 N161 1.372 . S
C164 N162 1.361 . S
C164 C172 1.457 . S
C165 N160 1.363 . S
C165 N162 1.377 . S
C165 C178 1.479 . S
C166 C163 1.480 . S
C166 C167 1.383 . S
C166 C171 1.385 . S
C167 H148 0.947 . S
C167 C166 1.383 . S
C167 C168 1.388 . S
C168 H149 0.946 . S
C168 C167 1.388 . S
C168 C169 1.384 . S
C169 C168 1.384 . S
C169 C170 1.377 . S
C170 H150 0.953 . S
C170 C169 1.377 . S
C170 C171 1.369 . S
C171 H151 0.945 . S
C171 C166 1.385 . S
C171 C170 1.369 . S
C172 C164 1.457 . S
C172 C173 1.372 . S
C172 C177 1.364 . S
C173 H152 0.952 . S
C173 C172 1.372 . S
C173 C174 1.389 . S
C174 H153 0.949 . S
C174 C173 1.389 . S
C174 C175 1.387 . S
C175 C174 1.387 . S
C175 C176 1.372 . S
C176 H154 0.950 . S
C176 C175 1.372 . S
C176 C177 1.379 . S
C177 H155 0.948 . S
C177 C172 1.364 . S
C177 C176 1.379 . S
C178 C147 1.383 . S
C178 C165 1.479 . S
C178 C179 1.398 . S
C179 C144 1.382 . S
C179 H156 0.951 . S
C179 C178 1.398 . S
C180 C181 1.384 . S
C180 H193 0.947 . S
C180 C215 1.382 . S
C181 C180 1.384 . S
C181 C182 1.378 . S
C182 C181 1.378 . S
C182 C183 1.378 . S
C182 H194 0.952 . S
C183 C182 1.378 . S
C183 H195 0.950 . S
C183 C214 1.383 . S
H184 C203 0.947 . S
H185 C204 0.946 . S
H186 C206 0.953 . S
H187 C207 0.945 . S
H188 C209 0.952 1_655 S
H189 C210 0.949 . S
H190 C212 0.950 . S
H191 C213 0.948 . S
H192 C215 0.951 . S
H193 C180 0.947 . S
H194 C182 0.952 . S
H195 C183 0.950 . S
N196 C199 1.382 . S
N196 C201 1.363 . S
N197 C199 1.371 . S
N197 C200 1.372 . S
N198 C200 1.361 . S
N198 C201 1.377 . S
C199 N196 1.382 . S
C199 N197 1.371 . S
C199 C202 1.480 . S
C200 N197 1.372 . S
C200 N198 1.361 . S
C200 C208 1.457 1_655 S
C201 N196 1.363 . S
C201 N198 1.377 . S
C201 C214 1.479 . S
C202 C199 1.480 . S
C202 C203 1.383 . S
C202 C207 1.385 . S
C203 H184 0.947 . S
C203 C202 1.383 . S
C203 C204 1.388 . S
C204 H185 0.946 . S
C204 C203 1.388 . S
C204 C205 1.384 . S
C205 C204 1.384 . S
C205 C206 1.377 . S
C206 H186 0.953 . S
C206 C205 1.377 . S
C206 C207 1.369 . S
C207 H187 0.945 . S
C207 C202 1.385 . S
C207 C206 1.369 . S
C208 C200 1.457 1_455 S
C208 C209 1.372 . S
C208 C213 1.364 . S
C209 H188 0.952 1_455 S
C209 C208 1.372 . S
C209 C210 1.389 . S
C210 H189 0.949 . S
C210 C209 1.389 . S
C210 C211 1.387 . S
C211 C210 1.387 . S
C211 C212 1.372 . S
C212 H190 0.950 . S
C212 C211 1.372 . S
C212 C213 1.379 . S
C213 H191 0.948 . S
C213 C208 1.364 . S
C213 C212 1.379 . S
C214 C183 1.383 . S
C214 C201 1.479 . S
C214 C215 1.398 . S
C215 C180 1.382 . S
C215 H192 0.951 . S
C215 C214 1.398 . S
C216 C217 1.384 . S
C216 H229 0.947 . S
C216 C251 1.382 . S
C217 C216 1.384 . S
C217 C218 1.378 . S
C218 C217 1.378 . S
C218 C219 1.378 . S
C218 H230 0.952 . S
C219 C218 1.378 . S
C219 H231 0.950 . S
C219 C250 1.383 . S
H220 C239 0.947 . S
H221 C240 0.946 . S
H222 C242 0.953 . S
H223 C243 0.945 . S
H224 C245 0.952 . S
H225 C246 0.949 . S
H226 C248 0.950 . S
H227 C249 0.948 . S
H228 C251 0.951 . S
H229 C216 0.947 . S
H230 C218 0.952 . S
H231 C219 0.950 . S
N232 C235 1.382 . S
N232 C237 1.363 . S
N233 C235 1.371 . S
N233 C236 1.372 . S
N234 C236 1.361 . S
N234 C237 1.377 . S
C235 N232 1.382 . S
C235 N233 1.371 . S
C235 C238 1.480 . S
C236 N233 1.372 . S
C236 N234 1.361 . S
C236 C244 1.457 . S
C237 N232 1.363 . S
C237 N234 1.377 . S
C237 C250 1.479 . S
C238 C235 1.480 . S
C238 C239 1.383 . S
C238 C243 1.385 . S
C239 H220 0.947 . S
C239 C238 1.383 . S
C239 C240 1.388 . S
C240 H221 0.946 . S
C240 C239 1.388 . S
C240 C241 1.384 . S
C241 C240 1.384 . S
C241 C242 1.377 . S
C242 H222 0.953 . S
C242 C241 1.377 . S
C242 C243 1.369 . S
C243 H223 0.945 . S
C243 C238 1.385 . S
C243 C242 1.369 . S
C244 C236 1.457 . S
C244 C245 1.372 . S
C244 C249 1.364 . S
C245 H224 0.952 . S
C245 C244 1.372 . S
C245 C246 1.389 . S
C246 H225 0.949 . S
C246 C245 1.389 . S
C246 C247 1.387 . S
C247 C246 1.387 . S
C247 C248 1.372 . S
C248 H226 0.950 . S
C248 C247 1.372 . S
C248 C249 1.379 . S
C249 H227 0.948 . S
C249 C244 1.364 . S
C249 C248 1.379 . S
C250 C219 1.383 . S
C250 C237 1.479 . S
C250 C251 1.398 . S
C251 C216 1.382 . S
C251 H228 0.951 . S
C251 C250 1.398 . S
C252 C253 1.384 . S
C252 H265 0.947 . S
C252 C287 1.382 . S
C253 C252 1.384 . S
C253 C254 1.378 . S
C254 C253 1.378 . S
C254 C255 1.378 . S
C254 H266 0.952 1_455 S
C255 C254 1.378 . S
C255 H267 0.950 . S
C255 C286 1.383 . S
H256 C275 0.947 . S
H257 C276 0.946 . S
H258 C278 0.953 . S
H259 C279 0.945 . S
H260 C281 0.952 . S
H261 C282 0.949 . S
H262 C284 0.950 . S
H263 C285 0.948 . S
H264 C287 0.951 . S
H265 C252 0.947 . S
H266 C254 0.952 1_655 S
H267 C255 0.950 . S
N268 C271 1.382 . S
N268 C273 1.363 . S
N269 C271 1.371 . S
N269 C272 1.372 . S
N270 C272 1.361 . S
N270 C273 1.377 . S
C271 N268 1.382 . S
C271 N269 1.371 . S
C271 C274 1.480 . S
C272 N269 1.372 . S
C272 N270 1.361 . S
C272 C280 1.457 . S
C273 N268 1.363 . S
C273 N270 1.377 . S
C273 C286 1.479 . S
C274 C271 1.480 . S
C274 C275 1.383 . S
C274 C279 1.385 . S
C275 H256 0.947 . S
C275 C274 1.383 . S
C275 C276 1.388 . S
C276 H257 0.946 . S
C276 C275 1.388 . S
C276 C277 1.384 . S
C277 C276 1.384 . S
C277 C278 1.377 . S
C278 H258 0.953 . S
C278 C277 1.377 . S
C278 C279 1.369 . S
C279 H259 0.945 . S
C279 C274 1.385 . S
C279 C278 1.369 . S
C280 C272 1.457 . S
C280 C281 1.372 . S
C280 C285 1.364 . S
C281 H260 0.952 . S
C281 C280 1.372 . S
C281 C282 1.389 . S
C282 H261 0.949 . S
C282 C281 1.389 . S
C282 C283 1.387 . S
C283 C282 1.387 . S
C283 C284 1.372 . S
C284 H262 0.950 . S
C284 C283 1.372 . S
C284 C285 1.379 . S
C285 H263 0.948 . S
C285 C280 1.364 . S
C285 C284 1.379 . S
C286 C255 1.383 . S
C286 C273 1.479 . S
C286 C287 1.398 . S
C287 C252 1.382 . S
C287 H264 0.951 . S
C287 C286 1.398 . S
Dy288 O291 2.307 1_545 S
Dy288 O293 2.395 . S
Dy288 O294 2.379 . S
Dy288 O296 2.339 1_545 S
Dy288 O298 2.298 . S
Dy288 O302 2.275 . S
Dy288 C310 2.738 . S
Dy289 O292 2.298 . S
Dy289 O295 2.275 . S
Dy289 O297 2.307 1_565 S
Dy289 O299 2.395 . S
Dy289 O300 2.379 . S
Dy289 O303 2.339 1_565 S
Dy289 C319 2.738 . S
C290 O302 1.254 . S
C290 O303 1.257 1_455 S
O291 Dy288 2.307 1_565 S
O291 C301 1.266 . S
O292 Dy289 2.298 . S
O292 C301 1.236 1_655 S
O293 Dy288 2.395 . S
O293 C310 1.255 . S
O294 Dy288 2.379 . S
O294 C310 1.249 . S
O295 Dy289 2.275 . S
O295 C311 1.254 . S
O296 Dy288 2.339 1_565 S
O296 C311 1.257 1_455 S
O297 Dy289 2.307 1_545 S
O297 C312 1.266 . S
O298 Dy288 2.298 . S
O298 C312 1.236 1_455 S
O299 Dy289 2.395 . S
O299 C319 1.255 . S
O300 Dy289 2.379 . S
O300 C319 1.249 . S
C301 O291 1.266 . S
C301 O292 1.236 1_455 S
O302 Dy288 2.275 . S
O302 C290 1.254 . S
O303 Dy289 2.339 1_545 S
O303 C290 1.257 1_655 S
C304 C307 1.344 . S
C304 C308 1.328 . S
C304 C310 1.516 . S
C305 C306 1.304 . S
C305 C309 1.323 . S
C306 C305 1.304 . S
C306 C307 1.371 . S
C306 H320 0.930 . S
C307 C304 1.344 . S
C307 C306 1.371 . S
C307 H321 0.931 . S
C308 C304 1.328 . S
C308 C309 1.433 . S
C308 H322 0.931 . S
C309 C305 1.323 . S
C309 C308 1.433 . S
C309 H323 0.933 . S
C310 Dy288 2.738 . S
C310 O293 1.255 . S
C310 O294 1.249 . S
C310 C304 1.516 . S
C311 O295 1.254 . S
C311 O296 1.257 1_655 S
C312 O297 1.266 . S
C312 O298 1.236 1_655 S
C313 C316 1.344 . S
C313 C317 1.328 . S
C313 C319 1.516 . S
C314 C315 1.304 . S
C314 C318 1.323 . S
C315 C314 1.304 . S
C315 C316 1.371 . S
C315 H324 0.930 . S
C316 C313 1.344 . S
C316 C315 1.371 . S
C316 H325 0.931 . S
C317 C313 1.328 . S
C317 C318 1.433 . S
C317 H326 0.931 . S
C318 C314 1.323 . S
C318 C317 1.433 . S
C318 H327 0.933 . S
C319 Dy289 2.738 . S
C319 O299 1.255 . S
C319 O300 1.249 . S
C319 C313 1.516 . S
H320 C306 0.930 . S
H321 C307 0.931 . S
H322 C308 0.931 . S
H323 C309 0.933 . S
H324 C315 0.930 . S
H325 C316 0.931 . S
H326 C317 0.931 . S
H327 C318 0.933 . S
Dy328 O331 2.307 1_566 S
Dy328 O333 2.395 . S
Dy328 O334 2.379 . S
Dy328 O336 2.339 1_565 S
Dy328 O338 2.298 . S
Dy328 O342 2.275 1_556 S
Dy328 C350 2.738 . S
Dy329 O332 2.298 . S
Dy329 O335 2.275 1_554 S
Dy329 O337 2.307 1_544 S
Dy329 O339 2.395 . S
Dy329 O340 2.379 . S
Dy329 O343 2.339 1_545 S
Dy329 C359 2.738 . S
C330 O342 1.254 . S
C330 O343 1.257 . S
O331 Dy328 2.307 1_544 S
O331 C341 1.266 . S
O332 Dy329 2.298 . S
O332 C341 1.236 . S
O333 Dy328 2.395 . S
O333 C350 1.255 . S
O334 Dy328 2.379 . S
O334 C350 1.249 . S
O335 Dy329 2.275 1_556 S
O335 C351 1.254 . S
O336 Dy328 2.339 1_545 S
O336 C351 1.257 . S
O337 Dy329 2.307 1_566 S
O337 C352 1.266 . S
O338 Dy328 2.298 . S
O338 C352 1.236 . S
O339 Dy329 2.395 . S
O339 C359 1.255 . S
O340 Dy329 2.379 . S
O340 C359 1.249 . S
C341 O331 1.266 . S
C341 O332 1.236 . S
O342 Dy328 2.275 1_554 S
O342 C330 1.254 . S
O343 Dy329 2.339 1_565 S
O343 C330 1.257 . S
C344 C347 1.344 . S
C344 C348 1.328 . S
C344 C350 1.516 . S
C345 C346 1.304 . S
C345 C349 1.323 . S
C346 C345 1.304 . S
C346 C347 1.371 . S
C346 H360 0.930 . S
C347 C344 1.344 . S
C347 C346 1.371 . S
C347 H361 0.931 . S
C348 C344 1.328 . S
C348 C349 1.433 . S
C348 H362 0.931 . S
C349 C345 1.323 . S
C349 C348 1.433 . S
C349 H363 0.933 . S
C350 Dy328 2.738 . S
C350 O333 1.255 . S
C350 O334 1.249 . S
C350 C344 1.516 . S
C351 O335 1.254 . S
C351 O336 1.257 . S
C352 O337 1.266 . S
C352 O338 1.236 . S
C353 C356 1.344 . S
C353 C357 1.328 . S
C353 C359 1.516 . S
C354 C355 1.304 . S
C354 C358 1.323 . S
C355 C354 1.304 . S
C355 C356 1.371 . S
C355 H364 0.930 . S
C356 C353 1.344 . S
C356 C355 1.371 . S
C356 H365 0.931 . S
C357 C353 1.328 . S
C357 C358 1.433 . S
C357 H366 0.931 . S
C358 C354 1.323 . S
C358 C357 1.433 . S
C358 H367 0.933 . S
C359 Dy329 2.738 . S
C359 O339 1.255 . S
C359 O340 1.249 . S
C359 C353 1.516 . S
H360 C346 0.930 . S
H361 C347 0.931 . S
H362 C348 0.931 . S
H363 C349 0.933 . S
H364 C355 0.930 . S
H365 C356 0.931 . S
H366 C357 0.931 . S
H367 C358 0.933 . S
Dy368 O371 2.307 . S
Dy368 O373 2.395 . S
Dy368 O374 2.379 . S
Dy368 O376 2.339 . S
Dy368 O378 2.298 . S
Dy368 O382 2.275 . S
Dy368 C390 2.738 . S
Dy369 O372 2.298 . S
Dy369 O375 2.275 . S
Dy369 O377 2.307 . S
Dy369 O379 2.395 . S
Dy369 O380 2.379 . S
Dy369 O383 2.339 . S
Dy369 C399 2.738 . S
C370 O382 1.254 . S
C370 O383 1.257 . S
O371 Dy368 2.307 . S
O371 C381 1.266 . S
O372 Dy369 2.298 . S
O372 C381 1.236 . S
O373 Dy368 2.395 . S
O373 C390 1.255 . S
O374 Dy368 2.379 . S
O374 C390 1.249 . S
O375 Dy369 2.275 . S
O375 C391 1.254 . S
O376 Dy368 2.339 . S
O376 C391 1.257 . S
O377 Dy369 2.307 . S
O377 C392 1.266 . S
O378 Dy368 2.298 . S
O378 C392 1.236 . S
O379 Dy369 2.395 . S
O379 C399 1.255 . S
O380 Dy369 2.379 . S
O380 C399 1.249 . S
C381 O371 1.266 . S
C381 O372 1.236 . S
O382 Dy368 2.275 . S
O382 C370 1.254 . S
O383 Dy369 2.339 . S
O383 C370 1.257 . S
C384 C387 1.344 . S
C384 C388 1.328 . S
C384 C390 1.516 . S
C385 C386 1.304 . S
C385 C389 1.323 . S
C386 C385 1.304 . S
C386 C387 1.371 . S
C386 H400 0.930 . S
C387 C384 1.344 . S
C387 C386 1.371 . S
C387 H401 0.931 . S
C388 C384 1.328 . S
C388 C389 1.433 . S
C388 H402 0.931 . S
C389 C385 1.323 . S
C389 C388 1.433 . S
C389 H403 0.933 . S
C390 Dy368 2.738 . S
C390 O373 1.255 . S
C390 O374 1.249 . S
C390 C384 1.516 . S
C391 O375 1.254 . S
C391 O376 1.257 . S
C392 O377 1.266 . S
C392 O378 1.236 . S
C393 C396 1.344 . S
C393 C397 1.328 . S
C393 C399 1.516 . S
C394 C395 1.304 . S
C394 C398 1.323 . S
C395 C394 1.304 . S
C395 C396 1.371 . S
C395 H404 0.930 . S
C396 C393 1.344 . S
C396 C395 1.371 . S
C396 H405 0.931 . S
C397 C393 1.328 . S
C397 C398 1.433 . S
C397 H406 0.931 . S
C398 C394 1.323 . S
C398 C397 1.433 . S
C398 H407 0.933 . S
C399 Dy369 2.738 . S
C399 O379 1.255 . S
C399 O380 1.249 . S
C399 C393 1.516 . S
H400 C386 0.930 . S
H401 C387 0.931 . S
H402 C388 0.931 . S
H403 C389 0.933 . S
H404 C395 0.930 . S
H405 C396 0.931 . S
H406 C397 0.931 . S
H407 C398 0.933 . S
Dy408 O411 2.287 1_656 S
Dy408 O413 2.415 . S
Dy408 O414 2.390 . S
Dy408 O416 2.327 1_655 S
Dy408 O418 2.311 . S
Dy408 O422 2.279 1_556 S
Dy408 C430 2.756 . S
Dy409 O412 2.298 . S
Dy409 O415 2.275 1_554 S
Dy409 O417 2.307 1_455 S
Dy409 O419 2.395 . S
Dy409 O420 2.379 . S
Dy409 O423 2.339 1_455 S
Dy409 C439 2.738 . S
C410 O422 1.254 . S
C410 O423 1.257 . S
O411 Dy408 2.287 1_454 S
O411 C421 1.266 . S
O412 Dy409 2.298 . S
O412 C421 1.236 . S
O413 Dy408 2.415 . S
O413 C430 1.255 . S
O414 Dy408 2.390 . S
O414 C430 1.249 . S
O415 Dy409 2.275 1_556 S
O415 C431 1.254 . S
O416 Dy408 2.327 1_455 S
O416 C431 1.257 . S
O417 Dy409 2.307 1_655 S
O417 C432 1.266 1_554 S
O418 Dy408 2.311 . S
O418 C432 1.236 . S
O419 Dy409 2.395 . S
O419 C439 1.255 . S
O420 Dy409 2.379 . S
O420 C439 1.249 . S
C421 O411 1.266 . S
C421 O412 1.236 . S
O422 Dy408 2.279 1_554 S
O422 C410 1.254 . S
O423 Dy409 2.339 1_655 S
O423 C410 1.257 . S
C424 C427 1.344 . S
C424 C428 1.328 . S
C424 C430 1.516 . S
C425 C426 1.304 . S
C425 C429 1.323 . S
C426 C425 1.304 . S
C426 C427 1.371 . S
C426 H440 0.930 . S
C427 C424 1.344 . S
C427 C426 1.371 . S
C427 H441 0.931 . S
C428 C424 1.328 . S
C428 C429 1.433 . S
C428 H442 0.931 . S
C429 C425 1.323 . S
C429 C428 1.433 . S
C429 H443 0.933 . S
C430 Dy408 2.756 . S
C430 O413 1.255 . S
C430 O414 1.249 . S
C430 C424 1.516 . S
C431 O415 1.254 . S
C431 O416 1.257 . S
C432 O417 1.266 1_556 S
C432 O418 1.236 . S
C433 C436 1.344 . S
C433 C437 1.328 . S
C433 C439 1.516 . S
C434 C435 1.304 . S
C434 C438 1.323 . S
C435 C434 1.304 . S
C435 C436 1.371 . S
C435 H444 0.930 . S
C436 C433 1.344 . S
C436 C435 1.371 . S
C436 H445 0.931 . S
C437 C433 1.328 . S
C437 C438 1.433 . S
C437 H446 0.931 . S
C438 C434 1.323 . S
C438 C437 1.433 . S
C438 H447 0.933 . S
C439 Dy409 2.738 . S
C439 O419 1.255 . S
C439 O420 1.249 . S
C439 C433 1.516 . S
H440 C426 0.930 . S
H441 C427 0.931 . S
H442 C428 0.931 . S
H443 C429 0.933 . S
H444 C435 0.930 . S
H445 C436 0.931 . S
H446 C437 0.931 . S
H447 C438 0.933 . S
C1 C305 2.230 . S
C67 C345 2.253 . S
C370 C97 3.583 . S
C133 C410 3.673 . S
C341 C25 3.672 . S
C301 C37 3.624 1_455 S
C432 C103 2.461 . S
C392 C109 2.481 . S
C31 C434 3.332 . S
C351 C73 3.136 . S
C139 C311 3.197 . S
C61 C394 3.318 . S
C314 C175 2.050 . S
C181 C354 2.142 . S
C247 C391 3.644 . S
C277 C431 3.611 . S
C145 C352 3.483 . S
C312 C211 3.633 1_655 S
C421 C217 2.437 . S
C381 C283 2.461 . S
C169 C425 3.142 . S
C330 C241 3.200 . S
C290 C253 3.179 . S
C205 C385 3.396 . S
