# Generated by pormake.
# Topology nom, (4,4)-cn, num edge types: 1
# Building blocks:
#     Node 0, Type 0, BuildingBlock: NAWXER_clean_linker_0, # of connection points: 4
#     Node 1, Type 0, BuildingBlock: NAWXER_clean_linker_0, # of connection points: 4
#     Node 2, Type 0, BuildingBlock: NAWXER_clean_linker_0, # of connection points: 4
#     Node 3, Type 0, BuildingBlock: NAWXER_clean_linker_0, # of connection points: 4
#     Node 4, Type 0, BuildingBlock: NAWXER_clean_linker_0, # of connection points: 4
#     Node 5, Type 0, BuildingBlock: NAWXER_clean_linker_0, # of connection points: 4
#     Node 6, Type 1, BuildingBlock: TATPOV_clean_sbu_0, # of connection points: 4
#     Node 7, Type 1, BuildingBlock: TATPOV_clean_sbu_0, # of connection points: 4
#     Node 8, Type 1, BuildingBlock: TATPOV_clean_sbu_0, # of connection points: 4
#     Node 9, Type 1, BuildingBlock: TATPOV_clean_sbu_0, # of connection points: 4
#     Node 10, Type 1, BuildingBlock: TATPOV_clean_sbu_0, # of connection points: 4
#     Node 11, Type 1, BuildingBlock: TATPOV_clean_sbu_0, # of connection points: 4
#     Edge 12, Type (0, 1), None
#     Edge 13, Type (0, 1), None
#     Edge 14, Type (0, 1), None
#     Edge 15, Type (0, 1), None
#     Edge 16, Type (0, 1), None
#     Edge 17, Type (0, 1), None
#     Edge 18, Type (0, 1), None
#     Edge 19, Type (0, 1), None
#     Edge 20, Type (0, 1), None
#     Edge 21, Type (0, 1), None
#     Edge 22, Type (0, 1), None
#     Edge 23, Type (0, 1), None
#     Edge 24, Type (0, 1), None
#     Edge 25, Type (0, 1), None
#     Edge 26, Type (0, 1), None
#     Edge 27, Type (0, 1), None
#     Edge 28, Type (0, 1), None
#     Edge 29, Type (0, 1), None
#     Edge 30, Type (0, 1), None
#     Edge 31, Type (0, 1), None
#     Edge 32, Type (0, 1), None
#     Edge 33, Type (0, 1), None
#     Edge 34, Type (0, 1), None
#     Edge 35, Type (0, 1), None
# Relax obj value: 0.026
# Max RMSD: 0.119
# Mean RMSD: 0.112
data_MOF--net-nom--node1-TATPOV_clean_sbu_0--node2-NAWXER_clean_linker_0--edge1-none
_symmetry_space_group_name_H-M    P1
_symmetry_Int_Tables_number       1
_symmetry_cell_setting            triclinic
loop_
_symmetry_equiv_pos_as_xyz
'x, y, z'
_cell_length_a     28.509878
_cell_length_b     28.696218
_cell_length_c     30.73379
_cell_angle_alpha  90.414464
_cell_angle_beta   90.127581
_cell_angle_gamma 120.23847
loop_
_atom_site_label
_atom_site_type_symbol
_atom_site_fract_x
_atom_site_fract_y
_atom_site_fract_z
_atom_type_partial_charge
C0 C 0.84641 0.47905 0.34511 0.0
C1 C 0.80953 0.44154 0.37465 0.0
C2 C 0.88798 0.47274 0.32797 0.0
C3 C 0.89408 0.42908 0.34029 0.0
C4 C 0.81389 0.39638 0.38565 0.0
C5 C 0.85673 0.39082 0.36925 0.0
C6 C 0.94645 0.43244 0.33126 0.0
C7 C 0.85155 0.38489 0.20688 0.0
C8 C 0.87137 0.42699 0.17654 0.0
C9 C 0.88318 0.38833 0.24314 0.0
C10 C 0.93518 0.43369 0.24925 0.0
C11 C 0.92401 0.47123 0.18209 0.0
C12 C 0.95557 0.47438 0.21779 0.0
C13 C 0.96826 0.44143 0.2889 0.0
C14 C 0.19274 0.58496 0.26863 0.0
C15 C 0.19722 0.63478 0.27945 0.0
C16 C 0.14874 0.53674 0.28361 0.0
C17 C 0.11009 0.53804 0.31096 0.0
C18 C 0.15877 0.63578 0.30723 0.0
C19 C 0.11585 0.58795 0.32298 0.0
C20 C 0.05771 0.48897 0.31929 0.0
C21 C 0.07822 0.55 0.4686 0.0
C22 C 0.13198 0.56153 0.47354 0.0
C23 C 0.04698 0.51998 0.43322 0.0
C24 C 0.06873 0.50104 0.40141 0.0
C25 C 0.15316 0.54013 0.44324 0.0
C26 C 0.12174 0.51018 0.40722 0.0
C27 C 0.03599 0.47517 0.36158 0.0
H28 H 0.84355 0.51382 0.33557 0.0
H29 H 0.91741 0.50394 0.30701 0.0
H30 H 0.78564 0.36676 0.40821 0.0
H31 H 0.86177 0.3578 0.3802 0.0
H32 H 0.81111 0.35024 0.20334 0.0
H33 H 0.86676 0.35606 0.26664 0.0
H34 H 0.94071 0.50411 0.15913 0.0
H35 H -0.00461 0.50993 0.22153 0.0
H36 H 0.2221 0.58321 0.24738 0.0
H37 H 0.14405 0.49854 0.27299 0.0
H38 H 0.16157 0.67359 0.31656 0.0
H39 H 0.08547 0.58983 0.34285 0.0
H40 H 0.06048 0.56534 0.49169 0.0
H41 H 0.00636 0.51375 0.42985 0.0
H42 H 0.1945 0.54836 0.44641 0.0
H43 H 0.13919 0.49527 0.38352 0.0
N44 N 0.9811 0.44752 0.36566 0.0
N45 N 0.02313 0.46963 0.2848 0.0
C46 C 0.34435 0.84712 0.50579 0.0
C47 C 0.3517 0.81282 0.5338 0.0
C48 C 0.3888 0.89464 0.49112 0.0
C49 C 0.4416 0.90923 0.50438 0.0
C50 C 0.40471 0.82666 0.54627 0.0
C51 C 0.44935 0.8751 0.53222 0.0
C52 C 0.48662 0.96373 0.49414 0.0
C53 C 0.44885 0.86395 0.37325 0.0
C54 C 0.42207 0.87754 0.34177 0.0
C55 C 0.47476 0.89852 0.4087 0.0
C56 C 0.47455 0.94724 0.41279 0.0
C57 C 0.42344 0.92706 0.34543 0.0
C58 C 0.44974 0.96168 0.38038 0.0
C59 C 0.49846 0.98302 0.45109 0.0
C60 C 0.63679 0.22549 0.4831 0.0
C61 C 0.60828 0.2424 0.45618 0.0
C62 C 0.61799 0.17066 0.48902 0.0
C63 C 0.57006 0.13154 0.46844 0.0
C64 C 0.56117 0.20316 0.43454 0.0
C65 C 0.54237 0.14824 0.44051 0.0
C66 C 0.54652 0.07344 0.47804 0.0
C67 C 0.50783 0.13701 0.59875 0.0
C68 C 0.54745 0.1499 0.63108 0.0
C69 C 0.50581 0.10709 0.56236 0.0
C70 C 0.54298 0.08911 0.55792 0.0
C71 C 0.58577 0.13318 0.62606 0.0
C72 C 0.58302 0.10211 0.5898 0.0
C73 C 0.53661 0.0539 0.52096 0.0
H74 H 0.30408 0.83738 0.49532 0.0
H75 H 0.38173 0.92109 0.47061 0.0
H76 H 0.4115 0.80091 0.56785 0.0
H77 H 0.48973 0.88629 0.54352 0.0
H78 H 0.44852 0.82609 0.37114 0.0
H79 H 0.49446 0.88703 0.43306 0.0
H80 H 0.40364 0.93894 0.32145 0.0
H81 H 0.44916 -0.00091 0.38279 0.0
H82 H 0.67361 0.2546 0.49985 0.0
H83 H 0.64061 0.15881 0.51009 0.0
H84 H 0.53854 0.21481 0.41329 0.0
H85 H 0.50522 0.11876 0.42433 0.0
H86 H 0.47805 0.14973 0.60175 0.0
H87 H 0.47444 0.09691 0.53803 0.0
H88 H 0.61649 0.1425 0.65076 0.0
H89 H 0.61168 0.08802 0.58672 0.0
N90 N 0.50666 -5e-05 0.52744 0.0
N91 N 0.52738 0.03721 0.44464 0.0
C92 C 0.64793 0.54224 0.54086 0.0
C93 C 0.6276 0.48864 0.5267 0.0
C94 C 0.62229 0.55432 0.57405 0.0
C95 C 0.57623 0.5132 0.59436 0.0
C96 C 0.5819 0.4472 0.54771 0.0
C97 C 0.55634 0.4594 0.58122 0.0
C98 C 0.54865 0.52799 0.62782 0.0
C99 C 0.49593 0.3729 0.71576 0.0
C100 C 0.54331 0.36956 0.71524 0.0
C101 C 0.49666 0.41871 0.70075 0.0
C102 C 0.54459 0.46227 0.68465 0.0
C103 C 0.59182 0.41356 0.69963 0.0
C104 C 0.59245 0.4598 0.68431 0.0
C105 C 0.54236 0.51014 0.67119 0.0
C106 C 0.39052 0.53389 0.76644 0.0
C107 C 0.41706 0.57508 0.79772 0.0
C108 C 0.41762 0.53291 0.72918 0.0
C109 C 0.47175 0.57277 0.72281 0.0
C110 C 0.47032 0.61692 0.79003 0.0
C111 C 0.4979 0.61528 0.75296 0.0
C112 C 0.50286 0.56338 0.68954 0.0
C113 C 0.4393 0.664 0.63978 0.0
C114 C 0.39322 0.63172 0.61377 0.0
C115 C 0.47755 0.64822 0.64789 0.0
C116 C 0.47054 0.59995 0.6301 0.0
C117 C 0.38776 0.58475 0.59426 0.0
C118 C 0.42623 0.56915 0.60224 0.0
C119 C 0.50369 0.57693 0.64555 0.0
H120 H 0.68288 0.57529 0.52547 0.0
H121 H 0.63825 0.59607 0.58365 0.0
H122 H 0.56488 0.40556 0.53741 0.0
H123 H 0.52029 0.42702 0.59601 0.0
H124 H 0.45794 0.33988 0.72748 0.0
H125 H 0.45931 0.42001 0.70147 0.0
H126 H 0.62892 0.41192 0.69859 0.0
H127 H 0.62996 0.49341 0.67252 0.0
H128 H 0.34921 0.50151 0.77138 0.0
H129 H 0.39727 0.49943 0.70644 0.0
H130 H 0.49152 0.64905 0.81375 0.0
H131 H 0.54013 0.64577 0.74871 0.0
H132 H 0.44513 0.70075 0.65495 0.0
H133 H 0.51158 0.6727 0.66934 0.0
H134 H 0.35309 0.5593 0.5737 0.0
H135 H 0.41978 0.53148 0.5885 0.0
N136 N 0.52799 0.56001 0.61626 0.0
N137 N 0.5208 0.52951 0.70036 0.0
C138 C 0.79127 0.3554 0.77868 0.0
C139 C 0.76912 0.3763 0.74917 0.0
C140 C 0.8437 0.38765 0.79477 0.0
C141 C 0.87501 0.44183 0.78231 0.0
C142 C 0.80127 0.42988 0.73509 0.0
C143 C 0.85404 0.46239 0.75145 0.0
C144 C 0.93009 0.47538 0.8008 0.0
C145 C 0.83493 0.47069 0.92034 0.0
C146 C 0.83272 0.43538 0.95271 0.0
C147 C 0.86662 0.47964 0.88335 0.0
C148 C 0.89774 0.45454 0.87885 0.0
C149 C 0.86045 0.40702 0.94656 0.0
C150 C 0.89357 0.4173 0.91018 0.0
C151 C 0.94036 0.4735 0.84536 0.0
C152 C 0.18379 0.58733 0.8639 0.0
C153 C 0.18561 0.54414 0.88364 0.0
C154 C 0.13497 0.57968 0.8464 0.0
C155 C 0.08781 0.52877 0.84852 0.0
C156 C 0.13779 0.494 0.88686 0.0
C157 C 0.0895 0.4865 0.86958 0.0
C158 C 0.03507 0.51788 0.83143 0.0
C159 C 0.14444 0.57056 0.71032 0.0
C160 C 0.14528 0.61494 0.69022 0.0
C161 C 0.10673 0.54213 0.74321 0.0
C162 C 0.06937 0.5577 0.75645 0.0
C163 C 0.10921 0.63148 0.70513 0.0
C164 C 0.0715 0.60294 0.7375 0.0
C165 C 0.02547 0.52583 0.78775 0.0
H166 H 0.76795 0.31412 0.78971 0.0
H167 H 0.85978 0.37006 0.81713 0.0
H168 H 0.78532 0.44704 0.7122 0.0
H169 H 0.87794 0.50379 0.7408 0.0
H170 H 0.81412 0.49325 0.92466 0.0
H171 H 0.8698 0.50902 0.85982 0.0
H172 H 0.85988 0.38018 0.97142 0.0
H173 H 0.91762 0.39785 0.90736 0.0
H174 H 0.2202 0.6264 0.86089 0.0
H175 H 0.13408 0.6132 0.83129 0.0
H176 H 0.13776 0.46002 0.90203 0.0
H177 H 0.05336 0.44704 0.87202 0.0
H178 H 0.17132 0.55648 0.69949 0.0
H179 H 0.10547 0.50698 0.75718 0.0
H180 H 0.1085 0.6654 0.69061 0.0
H181 H 0.04314 0.61569 0.74725 0.0
N182 N 0.97299 0.50318 0.77372 0.0
N183 N -0.00777 0.4933 0.85873 0.0
C184 C 0.43555 0.80505 0.95927 0.0
C185 C 0.39584 0.7841 0.92622 0.0
C186 C 0.45456 0.85694 0.97578 0.0
C187 C 0.43405 0.88898 0.95989 0.0
C188 C 0.37584 0.81645 0.90985 0.0
C189 C 0.39508 0.8686 0.92636 0.0
C190 C 0.45639 0.94497 0.97608 0.0
C191 C 0.35741 0.85234 0.09069 0.0
C192 C 0.38798 0.84696 0.12404 0.0
C193 C 0.38337 0.88719 0.05613 0.0
C194 C 0.4403 0.9182 0.05489 0.0
C195 C 0.44502 0.87634 0.12181 0.0
C196 C 0.471 0.91246 0.08784 0.0
C197 C 0.46673 0.95887 0.02055 0.0
C198 C 0.56216 0.20079 0.01955 0.0
C199 C 0.6122 0.21825 0.04068 0.0
C200 C 0.52848 0.14647 0.00848 0.0
C201 C 0.54462 0.10872 0.01762 0.0
C202 C 0.62689 0.17986 0.05188 0.0
C203 C 0.59328 0.12554 0.04051 0.0
C204 C 0.51209 0.05209 0.00247 0.0
C205 C 0.56474 0.15328 0.87873 0.0
C206 C 0.51938 0.14736 0.85549 0.0
C207 C 0.55789 0.1185 0.913 0.0
C208 C 0.50564 0.07745 0.92443 0.0
C209 C 0.46718 0.10701 0.86805 0.0
C210 C 0.46049 0.07222 0.90188 0.0
C211 C 0.49672 0.03789 0.95845 0.0
H212 H 0.45208 0.7814 0.97249 0.0
H213 H 0.48612 0.87234 0.00048 0.0
H214 H 0.3453 0.80153 0.88434 0.0
H215 H 0.37927 0.89289 0.91314 0.0
H216 H 0.31346 0.8304 0.0918 0.0
H217 H 0.35895 0.89149 0.03117 0.0
H218 H 0.46953 0.87345 0.14747 0.0
H219 H 0.51493 0.93624 0.08748 0.0
H220 H 0.54924 0.22917 0.01102 0.0
H221 H 0.49029 0.13415 0.99205 0.0
H222 H 0.66497 0.19194 0.06841 0.0
H223 H 0.60618 0.09692 0.04832 0.0
H224 H 0.60548 0.18381 0.86975 0.0
H225 H 0.59329 0.12283 0.92987 0.0
H226 H 0.43131 0.10112 0.85093 0.0
H227 H 0.41985 0.04079 0.91029 0.0
N228 N 0.47035 0.98492 0.94679 0.0
N229 N 0.49561 0.01192 0.03215 0.0
C230 C 0.44446 0.64563 0.19977 0.0
C231 C 0.4074 0.62854 0.23428 0.0
C232 C 0.46052 0.61116 0.18186 0.0
C233 C 0.43954 0.55859 0.1977 0.0
C234 C 0.3871 0.57622 0.25072 0.0
C235 C 0.4034 0.54169 0.23276 0.0
C236 C 0.46081 0.52442 0.18109 0.0
C237 C 0.36112 0.50976 0.05952 0.0
C238 C 0.39274 0.54859 0.02849 0.0
C239 C 0.38549 0.50301 0.09652 0.0
C240 C 0.44191 0.53388 0.10216 0.0
C241 C 0.44877 0.58171 0.03553 0.0
C242 C 0.47339 0.57361 0.07175 0.0
C243 C 0.46842 0.51962 0.13637 0.0
C244 C 0.60557 0.41285 0.13225 0.0
C245 C 0.64927 0.45293 0.10856 0.0
C246 C 0.56384 0.42139 0.14659 0.0
C247 C 0.56508 0.46972 0.13674 0.0
C248 C 0.64949 0.50056 0.09804 0.0
C249 C 0.60756 0.5086 0.11162 0.0
C250 C 0.52372 0.48185 0.15296 0.0
C251 C 0.62378 0.4972 0.27206 0.0
C252 C 0.59476 0.45684 0.30286 0.0
C253 C 0.59714 0.50388 0.2368 0.0
C254 C 0.54097 0.47045 0.2317 0.0
C255 C 0.53872 0.42201 0.29694 0.0
C256 C 0.51181 0.42931 0.26178 0.0
C257 C 0.5126 0.48257 0.19759 0.0
H258 H 0.46116 0.68572 0.18647 0.0
H259 H 0.49056 0.62628 0.15631 0.0
H260 H 0.35848 0.56183 0.27731 0.0
H261 H 0.38778 0.50179 0.24621 0.0
H262 H 0.31782 0.48376 0.05454 0.0
H263 H 0.36077 0.47171 0.11946 0.0
H264 H 0.47389 0.61151 0.01173 0.0
H265 H 0.51711 0.59736 0.07553 0.0
H266 H 0.60452 0.37578 0.1408 0.0
H267 H 0.53101 0.39065 0.16557 0.0
H268 H 0.68241 0.53197 0.07955 0.0
H269 H 0.60922 0.54612 0.10362 0.0
H270 H 0.66708 0.52446 0.27569 0.0
H271 H 0.62014 0.53643 0.21431 0.0
H272 H 0.51548 0.39082 0.32038 0.0
H273 H 0.46823 0.40359 0.25846 0.0
N274 N 0.48227 0.50466 0.21012 0.0
N275 N 0.50039 0.49954 0.12394 0.0
Zn276 Zn 0.7087 0.50263 0.40777 0.0
Zn277 Zn 0.64346 0.39756 0.41536 0.0
O278 O 0.71934 0.40988 0.39932 0.0
O279 O 0.77491 0.49749 0.39657 0.0
O280 O 0.60435 0.31708 0.42522 0.0
O281 O 0.68771 0.51687 0.46667 0.0
O282 O 0.63084 0.42969 0.47216 0.0
C283 C 0.76643 0.44998 0.39252 0.0
C284 C 0.62323 0.45459 0.34212 0.0
O285 O 0.60733 0.41054 0.36242 0.0
O286 O 0.66446 0.49779 0.35524 0.0
C287 C 0.6286 0.3007 0.45027 0.0
O288 O 0.67373 0.33659 0.46973 0.0
C289 C 0.65093 0.47753 0.48746 0.0
Zn290 Zn 0.19602 0.68863 0.56817 0.0
Zn291 Zn 0.25433 0.64273 0.57692 0.0
O292 O 0.30776 0.72243 0.56035 0.0
O293 O 0.25794 0.75993 0.54974 0.0
O294 O 0.30742 0.61635 0.58664 0.0
O295 O 0.16926 0.67275 0.62948 0.0
O296 O 0.20911 0.62435 0.6345 0.0
C297 C 0.30377 0.76304 0.5494 0.0
C298 C 0.16554 0.59904 0.50863 0.0
O299 O 0.20608 0.59782 0.52495 0.0
O300 O 0.15294 0.63295 0.52246 0.0
C301 C 0.35103 0.64686 0.60768 0.0
O302 O 0.35824 0.69237 0.62426 0.0
C303 C 0.17788 0.63998 0.65048 0.0
Zn304 Zn 0.49306 0.20674 0.73746 0.0
Zn305 Zn 0.60069 0.25611 0.74483 0.0
O306 O 0.58323 0.31598 0.73205 0.0
O307 O 0.49424 0.27659 0.73187 0.0
O308 O 0.68112 0.29882 0.75458 0.0
O309 O 0.48395 0.17058 0.79493 0.0
O310 O 0.57286 0.21185 0.80122 0.0
C311 C 0.54026 0.31865 0.72799 0.0
C312 C 0.54631 0.17836 0.67056 0.0
O313 O 0.58975 0.20874 0.69177 0.0
O314 O 0.50123 0.17224 0.68299 0.0
C315 C 0.71193 0.34287 0.73521 0.0
O316 O 0.69145 0.36025 0.70543 0.0
C317 C 0.52582 0.17934 0.81604 0.0
Zn318 Zn 0.31159 0.51246 0.90783 0.0
Zn319 Zn 0.36062 0.62029 0.91353 0.0
O320 O 0.28025 0.59464 0.90089 0.0
O321 O 0.23948 0.50599 0.90091 0.0
O322 O 0.39268 0.69954 0.92581 0.0
O323 O 0.33744 0.50663 0.96706 0.0
O324 O 0.38089 0.59545 0.96976 0.0
C325 C 0.23736 0.54871 0.89696 0.0
C326 C 0.38959 0.57168 0.83898 0.0
O327 O 0.39834 0.61421 0.85925 0.0
O328 O 0.356 0.52541 0.85344 0.0
C329 C 0.37453 0.72828 0.91007 0.0
O330 O 0.33453 0.70688 0.8816 0.0
C331 C 0.36843 0.55039 0.98686 0.0
Zn332 Zn 0.8046 0.48007 0.07573 0.0
Zn333 Zn 0.74377 0.37308 0.07672 0.0
O334 O 0.69119 0.40073 0.09201 0.0
O335 O 0.74173 0.48924 0.09107 0.0
O336 O 0.69324 0.29266 0.0709 0.0
O337 O 0.82355 0.48073 0.01309 0.0
O338 O 0.78172 0.39209 0.01647 0.0
C339 C 0.69612 0.44717 0.09647 0.0
C340 C 0.83726 0.42721 0.14033 0.0
O341 O 0.79579 0.38375 0.12709 0.0
O342 O 0.84953 0.47185 0.12294 0.0
C343 C 0.6495 0.27642 0.0493 0.0
O344 O 0.63908 0.3123 0.03263 0.0
C345 C 0.81001 0.43569 0.99555 0.0
Zn346 Zn 0.30261 0.79553 0.24093 0.0
Zn347 Zn 0.36508 0.75141 0.24235 0.0
O348 O 0.28777 0.68993 0.25487 0.0
O349 O 0.23669 0.72686 0.26014 0.0
O350 O 0.40365 0.70963 0.23353 0.0
O351 O 0.31974 0.81667 0.17784 0.0
O352 O 0.3827 0.79442 0.18551 0.0
C353 C 0.24224 0.68594 0.26303 0.0
C354 C 0.3907 0.84007 0.30601 0.0
O355 O 0.39946 0.80241 0.29434 0.0
O356 O 0.35435 0.84585 0.28717 0.0
C357 C 0.38786 0.66411 0.25111 0.0
O358 O 0.34945 0.64641 0.28053 0.0
C359 C 0.361 0.81608 0.16343 0.0
loop_
_geom_bond_atom_site_label_1
_geom_bond_atom_site_label_2
_geom_bond_distance
_geom_bond_site_symmetry_2
_ccdc_geom_bond_type
C0 C1 1.384 . S
C0 C2 1.384 . S
C0 H28 0.931 . S
C1 C0 1.384 . S
C1 C4 1.382 . S
C2 C0 1.384 . S
C2 C3 1.381 . S
C2 H29 0.930 . S
C3 C2 1.381 . S
C3 C5 1.381 . S
C3 C6 1.487 . S
C4 C1 1.382 . S
C4 C5 1.387 . S
C4 H30 0.930 . S
C5 C3 1.381 . S
C5 C4 1.387 . S
C5 H31 0.931 . S
C6 C3 1.487 . S
C6 C13 1.399 . S
C6 N44 1.343 . S
C7 C8 1.384 . S
C7 C9 1.384 . S
C7 H32 0.931 . S
C8 C7 1.384 . S
C8 C11 1.382 . S
C9 C7 1.384 . S
C9 C10 1.381 . S
C9 H33 0.930 . S
C10 C9 1.381 . S
C10 C12 1.381 . S
C10 C13 1.487 . S
C11 C8 1.382 . S
C11 C12 1.387 . S
C11 H34 0.930 . S
C12 C10 1.381 . S
C12 C11 1.387 . S
C12 H35 0.931 . S
C13 C6 1.399 . S
C13 C10 1.487 . S
C13 N45 1.343 1_655 S
C14 C15 1.384 . S
C14 C16 1.384 . S
C14 H36 0.931 . S
C15 C14 1.384 . S
C15 C18 1.382 . S
C16 C14 1.384 . S
C16 C17 1.381 . S
C16 H37 0.930 . S
C17 C16 1.381 . S
C17 C19 1.381 . S
C17 C20 1.487 . S
C18 C15 1.382 . S
C18 C19 1.387 . S
C18 H38 0.930 . S
C19 C17 1.381 . S
C19 C18 1.387 . S
C19 H39 0.931 . S
C20 C17 1.487 . S
C20 C27 1.399 . S
C20 N45 1.343 . S
C21 C22 1.384 . S
C21 C23 1.384 . S
C21 H40 0.931 . S
C22 C21 1.384 . S
C22 C25 1.382 . S
C23 C21 1.384 . S
C23 C24 1.381 . S
C23 H41 0.930 . S
C24 C23 1.381 . S
C24 C26 1.381 . S
C24 C27 1.487 . S
C25 C22 1.382 . S
C25 C26 1.387 . S
C25 H42 0.930 . S
C26 C24 1.381 . S
C26 C25 1.387 . S
C26 H43 0.931 . S
C27 C20 1.399 . S
C27 C24 1.487 . S
C27 N44 1.343 1_455 S
H28 C0 0.931 . S
H29 C2 0.930 . S
H30 C4 0.930 . S
H31 C5 0.931 . S
H32 C7 0.931 . S
H33 C9 0.930 . S
H34 C11 0.930 . S
H35 C12 0.931 . S
H36 C14 0.931 . S
H37 C16 0.930 . S
H38 C18 0.930 . S
H39 C19 0.931 . S
H40 C21 0.931 . S
H41 C23 0.930 . S
H42 C25 0.930 . S
H43 C26 0.931 . S
N44 C6 1.343 . S
N44 C27 1.343 1_655 S
N45 C13 1.343 1_455 S
N45 C20 1.343 . S
C46 C47 1.384 . S
C46 C48 1.384 . S
C46 H74 0.931 . S
C47 C46 1.384 . S
C47 C50 1.382 . S
C48 C46 1.384 . S
C48 C49 1.381 . S
C48 H75 0.930 . S
C49 C48 1.381 . S
C49 C51 1.381 . S
C49 C52 1.487 . S
C50 C47 1.382 . S
C50 C51 1.387 . S
C50 H76 0.930 . S
C51 C49 1.381 . S
C51 C50 1.387 . S
C51 H77 0.931 . S
C52 C49 1.487 . S
C52 C59 1.399 . S
C52 N90 1.343 . S
C53 C54 1.384 . S
C53 C55 1.384 . S
C53 H78 0.931 . S
C54 C53 1.384 . S
C54 C57 1.382 . S
C55 C53 1.384 . S
C55 C56 1.381 . S
C55 H79 0.930 . S
C56 C55 1.381 . S
C56 C58 1.381 . S
C56 C59 1.487 . S
C57 C54 1.382 . S
C57 C58 1.387 . S
C57 H80 0.930 . S
C58 C56 1.381 . S
C58 C57 1.387 . S
C58 H81 0.931 . S
C59 C52 1.399 . S
C59 C56 1.487 . S
C59 N91 1.343 1_565 S
C60 C61 1.384 . S
C60 C62 1.384 . S
C60 H82 0.931 . S
C61 C60 1.384 . S
C61 C64 1.382 . S
C62 C60 1.384 . S
C62 C63 1.381 . S
C62 H83 0.930 . S
C63 C62 1.381 . S
C63 C65 1.381 . S
C63 C66 1.487 . S
C64 C61 1.382 . S
C64 C65 1.387 . S
C64 H84 0.930 . S
C65 C63 1.381 . S
C65 C64 1.387 . S
C65 H85 0.931 . S
C66 C63 1.487 . S
C66 C73 1.399 . S
C66 N91 1.343 . S
C67 C68 1.384 . S
C67 C69 1.384 . S
C67 H86 0.931 . S
C68 C67 1.384 . S
C68 C71 1.382 . S
C69 C67 1.384 . S
C69 C70 1.381 . S
C69 H87 0.930 . S
C70 C69 1.381 . S
C70 C72 1.381 . S
C70 C73 1.487 . S
C71 C68 1.382 . S
C71 C72 1.387 . S
C71 H88 0.930 . S
C72 C70 1.381 . S
C72 C71 1.387 . S
C72 H89 0.931 . S
C73 C66 1.399 . S
C73 C70 1.487 . S
C73 N90 1.343 1_545 S
H74 C46 0.931 . S
H75 C48 0.930 . S
H76 C50 0.930 . S
H77 C51 0.931 . S
H78 C53 0.931 . S
H79 C55 0.930 . S
H80 C57 0.930 . S
H81 C58 0.931 . S
H82 C60 0.931 . S
H83 C62 0.930 . S
H84 C64 0.930 . S
H85 C65 0.931 . S
H86 C67 0.931 . S
H87 C69 0.930 . S
H88 C71 0.930 . S
H89 C72 0.931 . S
N90 C52 1.343 . S
N90 C73 1.343 1_565 S
N91 C59 1.343 1_545 S
N91 C66 1.343 . S
C92 C93 1.384 . S
C92 C94 1.384 . S
C92 H120 0.931 . S
C93 C92 1.384 . S
C93 C96 1.382 . S
C94 C92 1.384 . S
C94 C95 1.381 . S
C94 H121 0.930 . S
C95 C94 1.381 . S
C95 C97 1.381 . S
C95 C98 1.487 . S
C96 C93 1.382 . S
C96 C97 1.387 . S
C96 H122 0.930 . S
C97 C95 1.381 . S
C97 C96 1.387 . S
C97 H123 0.931 . S
C98 C95 1.487 . S
C98 C105 1.399 . S
C98 N136 1.343 . S
C99 C100 1.384 . S
C99 C101 1.384 . S
C99 H124 0.931 . S
C100 C99 1.384 . S
C100 C103 1.382 . S
C101 C99 1.384 . S
C101 C102 1.381 . S
C101 H125 0.930 . S
C102 C101 1.381 . S
C102 C104 1.381 . S
C102 C105 1.487 . S
C103 C100 1.382 . S
C103 C104 1.387 . S
C103 H126 0.930 . S
C104 C102 1.381 . S
C104 C103 1.387 . S
C104 H127 0.931 . S
C105 C98 1.399 . S
C105 C102 1.487 . S
C105 N137 1.343 . S
C106 C107 1.384 . S
C106 C108 1.384 . S
C106 H128 0.931 . S
C107 C106 1.384 . S
C107 C110 1.382 . S
C108 C106 1.384 . S
C108 C109 1.381 . S
C108 H129 0.930 . S
C109 C108 1.381 . S
C109 C111 1.381 . S
C109 C112 1.487 . S
C110 C107 1.382 . S
C110 C111 1.387 . S
C110 H130 0.930 . S
C111 C109 1.381 . S
C111 C110 1.387 . S
C111 H131 0.931 . S
C112 C109 1.487 . S
C112 C119 1.399 . S
C112 N137 1.343 . S
C113 C114 1.384 . S
C113 C115 1.384 . S
C113 H132 0.931 . S
C114 C113 1.384 . S
C114 C117 1.382 . S
C115 C113 1.384 . S
C115 C116 1.381 . S
C115 H133 0.930 . S
C116 C115 1.381 . S
C116 C118 1.381 . S
C116 C119 1.487 . S
C117 C114 1.382 . S
C117 C118 1.387 . S
C117 H134 0.930 . S
C118 C116 1.381 . S
C118 C117 1.387 . S
C118 H135 0.931 . S
C119 C112 1.399 . S
C119 C116 1.487 . S
C119 N136 1.343 . S
H120 C92 0.931 . S
H121 C94 0.930 . S
H122 C96 0.930 . S
H123 C97 0.931 . S
H124 C99 0.931 . S
H125 C101 0.930 . S
H126 C103 0.930 . S
H127 C104 0.931 . S
H128 C106 0.931 . S
H129 C108 0.930 . S
H130 C110 0.930 . S
H131 C111 0.931 . S
H132 C113 0.931 . S
H133 C115 0.930 . S
H134 C117 0.930 . S
H135 C118 0.931 . S
N136 C98 1.343 . S
N136 C119 1.343 . S
N137 C105 1.343 . S
N137 C112 1.343 . S
C138 C139 1.384 . S
C138 C140 1.384 . S
C138 H166 0.931 . S
C139 C138 1.384 . S
C139 C142 1.382 . S
C140 C138 1.384 . S
C140 C141 1.381 . S
C140 H167 0.930 . S
C141 C140 1.381 . S
C141 C143 1.381 . S
C141 C144 1.487 . S
C142 C139 1.382 . S
C142 C143 1.387 . S
C142 H168 0.930 . S
C143 C141 1.381 . S
C143 C142 1.387 . S
C143 H169 0.931 . S
C144 C141 1.487 . S
C144 C151 1.399 . S
C144 N182 1.343 . S
C145 C146 1.384 . S
C145 C147 1.384 . S
C145 H170 0.931 . S
C146 C145 1.384 . S
C146 C149 1.382 . S
C147 C145 1.384 . S
C147 C148 1.381 . S
C147 H171 0.930 . S
C148 C147 1.381 . S
C148 C150 1.381 . S
C148 C151 1.487 . S
C149 C146 1.382 . S
C149 C150 1.387 . S
C149 H172 0.930 . S
C150 C148 1.381 . S
C150 C149 1.387 . S
C150 H173 0.931 . S
C151 C144 1.399 . S
C151 C148 1.487 . S
C151 N183 1.343 1_655 S
C152 C153 1.384 . S
C152 C154 1.384 . S
C152 H174 0.931 . S
C153 C152 1.384 . S
C153 C156 1.382 . S
C154 C152 1.384 . S
C154 C155 1.381 . S
C154 H175 0.930 . S
C155 C154 1.381 . S
C155 C157 1.381 . S
C155 C158 1.487 . S
C156 C153 1.382 . S
C156 C157 1.387 . S
C156 H176 0.930 . S
C157 C155 1.381 . S
C157 C156 1.387 . S
C157 H177 0.931 . S
C158 C155 1.487 . S
C158 C165 1.399 . S
C158 N183 1.343 . S
C159 C160 1.384 . S
C159 C161 1.384 . S
C159 H178 0.931 . S
C160 C159 1.384 . S
C160 C163 1.382 . S
C161 C159 1.384 . S
C161 C162 1.381 . S
C161 H179 0.930 . S
C162 C161 1.381 . S
C162 C164 1.381 . S
C162 C165 1.487 . S
C163 C160 1.382 . S
C163 C164 1.387 . S
C163 H180 0.930 . S
C164 C162 1.381 . S
C164 C163 1.387 . S
C164 H181 0.931 . S
C165 C158 1.399 . S
C165 C162 1.487 . S
C165 N182 1.343 1_455 S
H166 C138 0.931 . S
H167 C140 0.930 . S
H168 C142 0.930 . S
H169 C143 0.931 . S
H170 C145 0.931 . S
H171 C147 0.930 . S
H172 C149 0.930 . S
H173 C150 0.931 . S
H174 C152 0.931 . S
H175 C154 0.930 . S
H176 C156 0.930 . S
H177 C157 0.931 . S
H178 C159 0.931 . S
H179 C161 0.930 . S
H180 C163 0.930 . S
H181 C164 0.931 . S
N182 C144 1.343 . S
N182 C165 1.343 1_655 S
N183 C151 1.343 1_455 S
N183 C158 1.343 . S
C184 C185 1.384 . S
C184 C186 1.384 . S
C184 H212 0.931 . S
C185 C184 1.384 . S
C185 C188 1.382 . S
C186 C184 1.384 . S
C186 C187 1.381 . S
C186 H213 0.930 1_556 S
C187 C186 1.381 . S
C187 C189 1.381 . S
C187 C190 1.487 . S
C188 C185 1.382 . S
C188 C189 1.387 . S
C188 H214 0.930 . S
C189 C187 1.381 . S
C189 C188 1.387 . S
C189 H215 0.931 . S
C190 C187 1.487 . S
C190 C197 1.399 1_556 S
C190 N228 1.343 . S
C191 C192 1.384 . S
C191 C193 1.384 . S
C191 H216 0.931 . S
C192 C191 1.384 . S
C192 C195 1.382 . S
C193 C191 1.384 . S
C193 C194 1.381 . S
C193 H217 0.930 . S
C194 C193 1.381 . S
C194 C196 1.381 . S
C194 C197 1.487 . S
C195 C192 1.382 . S
C195 C196 1.387 . S
C195 H218 0.930 . S
C196 C194 1.381 . S
C196 C195 1.387 . S
C196 H219 0.931 . S
C197 C190 1.399 1_554 S
C197 C194 1.487 . S
C197 N229 1.343 1_565 S
C198 C199 1.384 . S
C198 C200 1.391 . S
C198 H220 0.931 . S
C199 C198 1.384 . S
C199 C202 1.382 . S
C200 C198 1.391 . S
C200 C201 1.389 . S
C200 H221 0.915 1_554 S
C201 C200 1.389 . S
C201 C203 1.381 . S
C201 C204 1.487 . S
C202 C199 1.382 . S
C202 C203 1.387 . S
C202 H222 0.930 . S
C203 C201 1.381 . S
C203 C202 1.387 . S
C203 H223 0.931 . S
C204 C201 1.487 . S
C204 C211 1.399 1_554 S
C204 N229 1.343 . S
C205 C206 1.384 . S
C205 C207 1.384 . S
C205 H224 0.931 . S
C206 C205 1.384 . S
C206 C209 1.382 . S
C207 C205 1.384 . S
C207 C208 1.381 . S
C207 H225 0.930 . S
C208 C207 1.381 . S
C208 C210 1.381 . S
C208 C211 1.487 . S
C209 C206 1.382 . S
C209 C210 1.387 . S
C209 H226 0.930 . S
C210 C208 1.381 . S
C210 C209 1.387 . S
C210 H227 0.931 . S
C211 C204 1.399 1_556 S
C211 C208 1.487 . S
C211 N228 1.343 1_545 S
H212 C184 0.931 . S
H213 C186 0.930 1_554 S
H214 C188 0.930 . S
H215 C189 0.931 . S
H216 C191 0.931 . S
H217 C193 0.930 . S
H218 C195 0.930 . S
H219 C196 0.931 . S
H220 C198 0.931 . S
H221 C200 0.915 1_556 S
H222 C202 0.930 . S
H223 C203 0.931 . S
H224 C205 0.931 . S
H225 C207 0.930 . S
H226 C209 0.930 . S
H227 C210 0.931 . S
N228 C190 1.343 . S
N228 C211 1.343 1_565 S
N229 C197 1.343 1_545 S
N229 C204 1.343 . S
C230 C231 1.384 . S
C230 C232 1.384 . S
C230 H258 0.931 . S
C231 C230 1.384 . S
C231 C234 1.382 . S
C232 C230 1.384 . S
C232 C233 1.381 . S
C232 H259 0.930 . S
C233 C232 1.381 . S
C233 C235 1.381 . S
C233 C236 1.487 . S
C234 C231 1.382 . S
C234 C235 1.387 . S
C234 H260 0.930 . S
C235 C233 1.381 . S
C235 C234 1.387 . S
C235 H261 0.931 . S
C236 C233 1.487 . S
C236 C243 1.399 . S
C236 N274 1.343 . S
C237 C238 1.384 . S
C237 C239 1.384 . S
C237 H262 0.931 . S
C238 C237 1.384 . S
C238 C241 1.382 . S
C239 C237 1.384 . S
C239 C240 1.381 . S
C239 H263 0.930 . S
C240 C239 1.381 . S
C240 C242 1.381 . S
C240 C243 1.487 . S
C241 C238 1.382 . S
C241 C242 1.387 . S
C241 H264 0.930 . S
C242 C240 1.381 . S
C242 C241 1.387 . S
C242 H265 0.931 . S
C243 C236 1.399 . S
C243 C240 1.487 . S
C243 N275 1.343 . S
C244 C245 1.384 . S
C244 C246 1.384 . S
C244 H266 0.931 . S
C245 C244 1.384 . S
C245 C248 1.382 . S
C246 C244 1.384 . S
C246 C247 1.381 . S
C246 H267 0.930 . S
C247 C246 1.381 . S
C247 C249 1.381 . S
C247 C250 1.487 . S
C248 C245 1.382 . S
C248 C249 1.387 . S
C248 H268 0.930 . S
C249 C247 1.381 . S
C249 C248 1.387 . S
C249 H269 0.931 . S
C250 C247 1.487 . S
C250 C257 1.399 . S
C250 N275 1.343 . S
C251 C252 1.384 . S
C251 C253 1.384 . S
C251 H270 0.931 . S
C252 C251 1.384 . S
C252 C255 1.382 . S
C253 C251 1.384 . S
C253 C254 1.381 . S
C253 H271 0.930 . S
C254 C253 1.381 . S
C254 C256 1.381 . S
C254 C257 1.487 . S
C255 C252 1.382 . S
C255 C256 1.387 . S
C255 H272 0.930 . S
C256 C254 1.381 . S
C256 C255 1.387 . S
C256 H273 0.931 . S
C257 C250 1.399 . S
C257 C254 1.487 . S
C257 N274 1.343 . S
H258 C230 0.931 . S
H259 C232 0.930 . S
H260 C234 0.930 . S
H261 C235 0.931 . S
H262 C237 0.931 . S
H263 C239 0.930 . S
H264 C241 0.930 . S
H265 C242 0.931 . S
H266 C244 0.931 . S
H267 C246 0.930 . S
H268 C248 0.930 . S
H269 C249 0.931 . S
H270 C251 0.931 . S
H271 C253 0.930 . S
H272 C255 0.930 . S
H273 C256 0.931 . S
N274 C236 1.343 . S
N274 C257 1.343 . S
N275 C243 1.343 . S
N275 C250 1.343 . S
Zn276 O279 2.031 . S
Zn276 O281 2.049 . S
Zn276 O286 2.067 . S
Zn277 O278 1.962 . S
Zn277 O280 1.986 . S
Zn277 O282 1.996 . S
Zn277 O285 1.943 . S
O278 Zn277 1.962 . S
O278 C283 1.254 . S
O279 Zn276 2.031 . S
O279 C283 1.269 . S
O280 Zn277 1.986 . S
O280 C287 1.262 . S
O281 Zn276 2.049 . S
O281 C289 1.260 . S
O282 Zn277 1.996 . S
O282 C289 1.257 . S
C283 O278 1.254 . S
C283 O279 1.269 . S
C284 O285 1.249 . S
C284 O286 1.270 . S
O285 Zn277 1.943 . S
O285 C284 1.249 . S
O286 Zn276 2.067 . S
O286 C284 1.270 . S
C287 O280 1.262 . S
C287 O288 1.232 . S
O288 C287 1.232 . S
C289 O281 1.260 . S
C289 O282 1.257 . S
Zn290 O293 2.031 . S
Zn290 O295 2.049 . S
Zn290 O300 2.067 . S
Zn291 O292 1.962 . S
Zn291 O294 1.986 . S
Zn291 O296 1.996 . S
Zn291 O299 1.943 . S
O292 Zn291 1.962 . S
O292 C297 1.254 . S
O293 Zn290 2.031 . S
O293 C297 1.269 . S
O294 Zn291 1.986 . S
O294 C301 1.262 . S
O295 Zn290 2.049 . S
O295 C303 1.260 . S
O296 Zn291 1.996 . S
O296 C303 1.257 . S
C297 O292 1.254 . S
C297 O293 1.269 . S
C298 O299 1.249 . S
C298 O300 1.270 . S
O299 Zn291 1.943 . S
O299 C298 1.249 . S
O300 Zn290 2.067 . S
O300 C298 1.270 . S
C301 O294 1.262 . S
C301 O302 1.232 . S
O302 C301 1.232 . S
C303 O295 1.260 . S
C303 O296 1.257 . S
Zn304 O307 2.031 . S
Zn304 O309 2.049 . S
Zn304 O314 2.067 . S
Zn305 O306 1.962 . S
Zn305 O308 1.986 . S
Zn305 O310 1.996 . S
Zn305 O313 1.943 . S
O306 Zn305 1.962 . S
O306 C311 1.254 . S
O307 Zn304 2.031 . S
O307 C311 1.269 . S
O308 Zn305 1.986 . S
O308 C315 1.262 . S
O309 Zn304 2.049 . S
O309 C317 1.260 . S
O310 Zn305 1.996 . S
O310 C317 1.257 . S
C311 O306 1.254 . S
C311 O307 1.269 . S
C312 O313 1.249 . S
C312 O314 1.270 . S
O313 Zn305 1.943 . S
O313 C312 1.249 . S
O314 Zn304 2.067 . S
O314 C312 1.270 . S
C315 O308 1.262 . S
C315 O316 1.232 . S
O316 C315 1.232 . S
C317 O309 1.260 . S
C317 O310 1.257 . S
Zn318 O321 2.031 . S
Zn318 O323 2.049 . S
Zn318 O328 2.067 . S
Zn319 O320 1.962 . S
Zn319 O322 1.986 . S
Zn319 O324 1.996 . S
Zn319 O327 1.943 . S
O320 Zn319 1.962 . S
O320 C325 1.254 . S
O321 Zn318 2.031 . S
O321 C325 1.269 . S
O322 Zn319 1.986 . S
O322 C329 1.262 . S
O323 Zn318 2.049 . S
O323 C331 1.260 . S
O324 Zn319 1.996 . S
O324 C331 1.257 . S
C325 O320 1.254 . S
C325 O321 1.269 . S
C326 O327 1.249 . S
C326 O328 1.270 . S
O327 Zn319 1.943 . S
O327 C326 1.249 . S
O328 Zn318 2.067 . S
O328 C326 1.270 . S
C329 O322 1.262 . S
C329 O330 1.232 . S
O330 C329 1.232 . S
C331 O323 1.260 . S
C331 O324 1.257 . S
Zn332 O335 2.031 . S
Zn332 O337 2.049 . S
Zn332 O342 2.067 . S
Zn333 O334 1.962 . S
Zn333 O336 1.986 . S
Zn333 O338 1.996 . S
Zn333 O341 1.943 . S
O334 Zn333 1.962 . S
O334 C339 1.254 . S
O335 Zn332 2.031 . S
O335 C339 1.269 . S
O336 Zn333 1.986 . S
O336 C343 1.262 . S
O337 Zn332 2.049 . S
O337 C345 1.260 . S
O338 Zn333 1.996 . S
O338 C345 1.257 . S
C339 O334 1.254 . S
C339 O335 1.269 . S
C340 O341 1.249 . S
C340 O342 1.270 . S
O341 Zn333 1.943 . S
O341 C340 1.249 . S
O342 Zn332 2.067 . S
O342 C340 1.270 . S
C343 O336 1.262 . S
C343 O344 1.232 . S
O344 C343 1.232 . S
C345 O337 1.260 . S
C345 O338 1.257 . S
Zn346 O349 2.031 . S
Zn346 O351 2.049 . S
Zn346 O356 2.067 . S
Zn347 O348 1.962 . S
Zn347 O350 1.986 . S
Zn347 O352 1.996 . S
Zn347 O355 1.943 . S
O348 Zn347 1.962 . S
O348 C353 1.254 . S
O349 Zn346 2.031 . S
O349 C353 1.269 . S
O350 Zn347 1.986 . S
O350 C357 1.262 . S
O351 Zn346 2.049 . S
O351 C359 1.260 . S
O352 Zn347 1.996 . S
O352 C359 1.257 . S
C353 O348 1.254 . S
C353 O349 1.269 . S
C354 O355 1.249 . S
C354 O356 1.270 . S
O355 Zn347 1.943 . S
O355 C354 1.249 . S
O356 Zn346 2.067 . S
O356 C354 1.270 . S
C357 O350 1.262 . S
C357 O358 1.232 . S
O358 C357 1.232 . S
C359 O351 1.260 . S
C359 O352 1.257 . S
C353 C15 1.908 . S
C61 C287 1.702 . S
C114 C301 1.708 . S
C139 C315 1.901 . S
C329 C185 2.107 . S
C245 C339 2.056 . S
C47 C297 2.079 . S
C100 C311 2.265 . S
C153 C325 2.204 . S
C343 C199 2.022 . S
C357 C231 1.867 . S
C283 C1 1.926 . S
C22 C298 1.447 . S
C68 C312 1.522 . S
C326 C107 1.528 . S
C146 C345 1.651 1_556 S
C359 C192 1.510 . S
C284 C252 1.388 . S
C354 C54 1.417 . S
C93 C289 1.581 . S
C303 C160 1.582 . S
C206 C317 1.521 . S
C238 C331 1.677 1_554 S
C8 C340 1.506 . S
