# Generated by pormake.
# Topology anh, (6,3)-cn, num edge types: 1
# Building blocks:
#     Node 0, Type 0, BuildingBlock: GEDQOX_clean_sbu_0, # of connection points: 6
#     Node 1, Type 0, BuildingBlock: GEDQOX_clean_sbu_0, # of connection points: 6
#     Node 2, Type 0, BuildingBlock: GEDQOX_clean_sbu_0, # of connection points: 6
#     Node 3, Type 1, BuildingBlock: CUQRIR_clean_linker_1, # of connection points: 3
#     Node 4, Type 1, BuildingBlock: CUQRIR_clean_linker_1, # of connection points: 3
#     Node 5, Type 1, BuildingBlock: CUQRIR_clean_linker_1, # of connection points: 3
#     Node 6, Type 1, BuildingBlock: CUQRIR_clean_linker_1, # of connection points: 3
#     Node 7, Type 1, BuildingBlock: CUQRIR_clean_linker_1, # of connection points: 3
#     Node 8, Type 1, BuildingBlock: CUQRIR_clean_linker_1, # of connection points: 3
#     Edge 9, Type (0, 1), BuildingBlock: CIFDUS_clean_linker_0, # of connection points: 2
#     Edge 10, Type (0, 1), BuildingBlock: CIFDUS_clean_linker_0, # of connection points: 2
#     Edge 11, Type (0, 1), BuildingBlock: CIFDUS_clean_linker_0, # of connection points: 2
#     Edge 12, Type (0, 1), BuildingBlock: CIFDUS_clean_linker_0, # of connection points: 2
#     Edge 13, Type (0, 1), BuildingBlock: CIFDUS_clean_linker_0, # of connection points: 2
#     Edge 14, Type (0, 1), BuildingBlock: CIFDUS_clean_linker_0, # of connection points: 2
#     Edge 15, Type (0, 1), BuildingBlock: CIFDUS_clean_linker_0, # of connection points: 2
#     Edge 16, Type (0, 1), BuildingBlock: CIFDUS_clean_linker_0, # of connection points: 2
#     Edge 17, Type (0, 1), BuildingBlock: CIFDUS_clean_linker_0, # of connection points: 2
#     Edge 18, Type (0, 1), BuildingBlock: CIFDUS_clean_linker_0, # of connection points: 2
#     Edge 19, Type (0, 1), BuildingBlock: CIFDUS_clean_linker_0, # of connection points: 2
#     Edge 20, Type (0, 1), BuildingBlock: CIFDUS_clean_linker_0, # of connection points: 2
#     Edge 21, Type (0, 1), BuildingBlock: CIFDUS_clean_linker_0, # of connection points: 2
#     Edge 22, Type (0, 1), BuildingBlock: CIFDUS_clean_linker_0, # of connection points: 2
#     Edge 23, Type (0, 1), BuildingBlock: CIFDUS_clean_linker_0, # of connection points: 2
#     Edge 24, Type (0, 1), BuildingBlock: CIFDUS_clean_linker_0, # of connection points: 2
#     Edge 25, Type (0, 1), BuildingBlock: CIFDUS_clean_linker_0, # of connection points: 2
#     Edge 26, Type (0, 1), BuildingBlock: CIFDUS_clean_linker_0, # of connection points: 2
# Relax obj value: 0.227
# Max RMSD: 0.219
# Mean RMSD: 0.171
data_MOF--net-anh--node1-GEDQOX_clean_sbu_0--node2-CUQRIR_clean_linker_1--edge1-CIFDUS_clean_linker_0
_symmetry_space_group_name_H-M    P1
_symmetry_Int_Tables_number       1
_symmetry_cell_setting            triclinic
loop_
_symmetry_equiv_pos_as_xyz
'x, y, z'
_cell_length_a     26.096061
_cell_length_b     24.085735
_cell_length_c     40.581028
_cell_angle_alpha  89.14976
_cell_angle_beta   88.675599
_cell_angle_gamma 101.11735
loop_
_atom_site_label
_atom_site_type_symbol
_atom_site_fract_x
_atom_site_fract_y
_atom_site_fract_z
_atom_type_partial_charge
Nd0 Nd 1.07125 0.54657 0.14956 0.0
Nd1 Nd 1.0452 0.42738 0.1535 0.0
C2 C 0.10103 0.65707 0.14322 0.0
C3 C 0.15051 0.69295 0.1538 0.0
C4 C 0.18686 0.72089 0.13001 0.0
C5 C 0.2366 0.74858 0.13915 0.0
C6 C 0.25116 0.7488 0.17229 0.0
C7 C 0.21452 0.72164 0.19616 0.0
C8 C 0.16482 0.69403 0.18706 0.0
C9 C 0.07676 0.50359 0.21295 0.0
C10 C 0.17853 0.48392 0.14841 0.0
C11 C 1.00679 0.31924 0.16613 0.0
C12 C 0.95657 0.28296 0.17618 0.0
C13 C 0.92517 0.29714 0.20215 0.0
C14 C 0.87766 0.2613 0.21086 0.0
C15 C 0.86128 0.21093 0.19379 0.0
C16 C 0.89202 0.19772 0.16734 0.0
C17 C 0.93915 0.23355 0.15854 0.0
C18 C 0.08029 0.4653 0.09239 0.0
C19 C 0.93791 0.49332 0.14412 0.0
O20 O 0.10631 0.62246 0.11943 0.0
O21 O 1.06791 0.63323 0.16641 0.0
O22 O 0.11354 0.53896 0.19792 0.0
O23 O 1.03992 0.48937 0.19354 0.0
O24 O 0.15828 0.5285 0.13866 0.0
O25 O 0.14203 0.4392 0.15987 0.0
O26 O 1.03179 0.35314 0.18799 0.0
O27 O 1.00814 0.34261 0.13682 0.0
O28 O 0.09375 0.42218 0.10666 0.0
O29 O 1.04795 0.48591 0.10951 0.0
O30 O 0.95474 0.44391 0.14783 0.0
O31 O 0.97659 0.53978 0.14362 0.0
H32 H 0.1773 0.71988 0.10416 0.0
H33 H 0.26414 0.7686 0.12015 0.0
H34 H 0.22432 0.72167 0.22196 0.0
H35 H 0.13817 0.67239 0.20605 0.0
H36 H 0.93747 0.33549 0.21582 0.0
H37 H 0.85444 0.27204 0.23141 0.0
H38 H 0.87976 0.15928 0.15372 0.0
H39 H 0.96233 0.2224 0.13806 0.0
Nd40 Nd 0.54226 1.00194 0.51995 0.0
Nd41 Nd 0.65714 0.03296 0.51736 0.0
C42 C 0.44688 0.96159 0.54125 0.0
C43 C 0.4109 0.91141 0.53062 0.0
C44 C 0.38171 0.87495 0.55429 0.0
C45 C 0.35291 0.823 0.54491 0.0
C46 C 0.35363 0.80694 0.51184 0.0
C47 C 0.38303 0.84331 0.48817 0.0
C48 C 0.41154 0.89529 0.4975 0.0
C49 C 0.56916 1.00843 0.45338 0.0
C50 C 0.61005 0.89794 0.51905 0.0
C51 C 0.75637 0.07711 0.50674 0.0
C52 C 0.78699 0.13412 0.49988 0.0
C53 C 0.7942 0.15632 0.46752 0.0
C54 C 0.82735 0.20826 0.46116 0.0
C55 C 0.85385 0.23828 0.48703 0.0
C56 C 0.84386 0.218 0.51955 0.0
C57 C 0.81093 0.16618 0.52592 0.0
C58 C 0.61481 1.00673 0.57977 0.0
C59 C 0.58991 0.13735 0.52188 0.0
O60 O 0.48797 0.95019 0.55584 0.0
O61 O 0.45789 1.00383 0.51984 0.0
O62 O 0.52183 0.99714 0.46514 0.0
O63 O 0.60102 0.01732 0.47651 0.0
O64 O 0.56438 0.91275 0.52437 0.0
O65 O 0.65219 0.93676 0.51197 0.0
O66 O 0.72624 0.05317 0.48349 0.0
O67 O 0.73465 0.06863 0.53615 0.0
O68 O 0.65414 0.9875 0.56762 0.0
O69 O 0.59909 0.03802 0.55852 0.0
O70 O 0.63594 0.12369 0.51523 0.0
O71 O 0.54808 0.09732 0.52716 0.0
H72 H 0.38209 0.88617 0.58005 0.0
H73 H 0.33027 0.7952 0.56343 0.0
H74 H 0.38327 0.83186 0.46245 0.0
H75 H 0.43472 0.92231 0.47892 0.0
H76 H 0.77586 0.13275 0.44699 0.0
H77 H 0.83472 0.22316 0.43585 0.0
H78 H 0.86347 0.24101 0.5399 0.0
H79 H 0.8057 0.15041 0.55116 0.0
Nd80 Nd 0.54126 0.55471 0.83887 0.0
Nd81 Nd 0.64074 0.58664 0.83817 0.0
C82 C 0.44138 0.53675 0.82521 0.0
C83 C 0.4104 0.57242 0.80895 0.0
C84 C 0.43478 0.62688 0.79795 0.0
C85 C 0.40647 0.67029 0.79772 0.0
C86 C 0.35336 0.65773 0.80631 0.0
C87 C 0.3273 0.60083 0.80939 0.0
C88 C 0.35615 0.5582 0.81184 0.0
C89 C 0.57853 0.55097 0.903 0.0
C90 C 0.59048 0.6938 0.83792 0.0
C91 C 0.73661 0.58063 0.84674 0.0
C92 C 0.75917 0.54093 0.82689 0.0
C93 C 0.78069 0.49888 0.8422 0.0
C94 C 0.80444 0.46325 0.82298 0.0
C95 C 0.81093 0.47358 0.78859 0.0
C96 C 0.77721 0.50432 0.77338 0.0
C97 C 0.75256 0.53937 0.79253 0.0
C98 C 0.6109 0.59547 0.77367 0.0
C99 C 0.59498 0.44816 0.83274 0.0
O100 O 0.47642 0.52019 0.80644 0.0
O101 O 0.45938 0.55526 0.85366 0.0
O102 O 0.5489 0.50875 0.88923 0.0
O103 O 0.58903 0.59199 0.88269 0.0
O104 O 0.55032 0.65422 0.82962 0.0
O105 O 0.63209 0.67695 0.84854 0.0
O106 O 0.70023 0.5564 0.86785 0.0
O107 O 0.72458 0.62348 0.83047 0.0
O108 O 0.64425 0.63305 0.78846 0.0
O109 O 0.59363 0.55392 0.79323 0.0
O110 O 0.63629 0.48937 0.83115 0.0
O111 O 0.54916 0.46158 0.83678 0.0
H112 H 0.47649 0.63721 0.79355 0.0
H113 H 0.42692 0.71376 0.79478 0.0
H114 H 0.28593 0.59058 0.8158 0.0
H115 H 0.33683 0.51601 0.81974 0.0
H116 H 0.78148 0.49549 0.86883 0.0
H117 H 0.82576 0.43551 0.83577 0.0
H118 H 0.778 0.50974 0.74681 0.0
H119 H 0.73114 0.56752 0.78028 0.0
C120 C 0.5534 0.99056 0.20999 0.0
N121 N 0.58614 1.01426 0.23356 0.0
N122 N 0.51237 0.95335 0.22363 0.0
C123 C 0.56375 1.00081 0.17357 0.0
C124 C 0.5216 0.95569 0.25644 0.0
N125 N 0.56667 0.99205 0.26239 0.0
C126 C 0.48493 0.92561 0.28304 0.0
H127 H 0.54681 0.0375 0.16556 0.0
H128 H 0.54579 0.96327 0.15942 0.0
H129 H 0.60638 1.01092 0.16789 0.0
H130 H 0.49487 0.88365 0.28821 0.0
H131 H 0.44378 0.91938 0.27527 0.0
H132 H 0.48869 0.94969 0.30622 0.0
C133 C 0.60007 0.52067 0.53053 0.0
N134 N 0.59599 0.56339 0.55185 0.0
N135 N 0.59914 0.47058 0.54701 0.0
C136 C 0.60646 0.52746 0.4937 0.0
C137 C 0.59492 0.4846 0.57905 0.0
N138 N 0.59302 0.54023 0.58208 0.0
C139 C 0.59299 0.44364 0.60771 0.0
H140 H 0.58066 0.49187 0.48166 0.0
H141 H 0.64734 0.52563 0.48647 0.0
H142 H 0.5982 0.56824 0.4845 0.0
H143 H 0.61501 0.40986 0.60175 0.0
H144 H 0.55165 0.4237 0.61326 0.0
H145 H 0.60922 0.46525 0.63016 0.0
C146 C 0.10267 0.58196 0.86374 0.0
N147 N 0.12441 0.60473 0.89156 0.0
N148 N 1.05279 0.55684 0.86988 0.0
C149 C 0.13159 0.57825 0.83156 0.0
C150 C 1.04474 0.56481 0.90222 0.0
N151 N 0.08886 0.59306 0.9158 0.0
C152 C 0.99427 0.54314 0.92091 0.0
H153 H 0.12658 0.61386 0.81508 0.0
H154 H 0.11559 0.53813 0.81911 0.0
H155 H 0.1739 0.58057 0.83547 0.0
H156 H 0.99038 0.49706 0.92579 0.0
H157 H 0.96078 0.54959 0.90592 0.0
H158 H 0.99317 0.56496 0.94476 0.0
C159 C 0.08814 0.53622 0.45772 0.0
N160 N 1.06398 0.50594 0.43275 0.0
N161 N 0.12954 0.57427 0.44587 0.0
C162 C 1.07064 0.53076 0.49353 0.0
C163 C 0.12968 0.56656 0.41294 0.0
N164 N 0.08952 0.52493 0.40493 0.0
C165 C 0.17015 0.59878 0.38904 0.0
H166 H 1.04785 0.56405 0.49902 0.0
H167 H 0.10504 0.5373 0.5096 0.0
H168 H 1.04528 0.48956 0.49992 0.0
H169 H 0.20575 0.58004 0.38984 0.0
H170 H 0.181 0.64369 0.39628 0.0
H171 H 0.15706 0.59699 0.3633 0.0
C172 C 0.57196 0.06295 0.82282 0.0
N173 N 0.57255 0.02122 0.80037 0.0
N174 N 0.57296 0.11419 0.80763 0.0
C175 C 0.57079 0.05366 0.85944 0.0
C176 C 0.57261 0.10169 0.77529 0.0
N177 N 0.57372 0.0461 0.77068 0.0
C178 C 0.56462 0.1429 0.74837 0.0
H179 H 0.53009 0.03579 0.8678 0.0
H180 H 0.58436 0.09401 0.87227 0.0
H181 H 0.5955 0.02269 0.86604 0.0
H182 H 0.60298 0.16844 0.74025 0.0
H183 H 0.54004 0.17245 0.75762 0.0
H184 H 0.54545 0.12057 0.72687 0.0
C185 C 0.55896 0.4808 0.14353 0.0
N186 N 0.60477 0.49087 0.12288 0.0
N187 N 0.51215 0.48862 0.12825 0.0
C188 C 0.55996 0.46365 0.17902 0.0
C189 C 0.53224 0.50151 0.09708 0.0
N190 N 0.58552 0.50396 0.09394 0.0
C191 C 0.49786 0.50442 0.0678 0.0
H192 H 0.55033 0.41679 0.18113 0.0
H193 H 0.53032 0.48093 0.19359 0.0
H194 H 0.59936 0.47841 0.18904 0.0
H195 H 0.49441 0.54906 0.06323 0.0
H196 H 0.45836 0.47829 0.07205 0.0
H197 H 0.51402 0.48876 0.04505 0.0
H198 H 0.2588 0.41665 0.17442 0.0
H199 H 0.25104 0.56127 0.11209 0.0
H200 H 0.34499 0.57662 0.10226 0.0
H201 H 0.43455 0.55297 0.10989 0.0
H202 H 0.44731 0.40865 0.1708 0.0
H203 H 0.35234 0.39275 0.18256 0.0
C204 C 0.27674 0.45179 0.15848 0.0
C205 C 0.24229 0.48735 0.1442 0.0
C206 C 0.33491 0.46175 0.15257 0.0
C207 C 0.27171 0.53207 0.12411 0.0
C208 C 0.32742 0.54133 0.11825 0.0
C209 C 0.41771 0.51715 0.12562 0.0
C210 C 0.45317 0.48221 0.13869 0.0
C211 C 0.36041 0.50699 0.13211 0.0
C212 C 0.42554 0.43775 0.15977 0.0
C213 C 0.36925 0.42806 0.16642 0.0
H214 H 0.85432 0.33024 0.44707 0.0
H215 H 0.9511 0.25071 0.51025 0.0
H216 H 1.02636 0.32449 0.49611 0.0
H217 H 1.06476 0.41121 0.46592 0.0
H218 H 0.96896 0.49677 0.40639 0.0
H219 H 0.89325 0.41971 0.41741 0.0
C220 C 0.89196 0.32943 0.45767 0.0
C221 C 0.89739 0.28567 0.47977 0.0
C222 C 0.93512 0.37218 0.44953 0.0
C223 C 0.94604 0.2847 0.49359 0.0
C224 C 0.98914 0.32638 0.48527 0.0
C225 C 1.02711 0.41247 0.45545 0.0
C226 C 1.0214 0.4589 0.43589 0.0
C227 C 0.98409 0.37005 0.46326 0.0
C228 C 0.97338 0.46084 0.42167 0.0
C229 C 0.93036 0.41731 0.42823 0.0
H230 H 0.51023 0.75552 0.82925 0.0
H231 H 0.67804 0.77523 0.83105 0.0
H232 H 0.68775 0.87589 0.81896 0.0
H233 H 0.64966 0.96091 0.80762 0.0
H234 H 0.48283 0.9448 0.80914 0.0
H235 H 0.47176 0.84229 0.82002 0.0
C236 C 0.5489 0.7818 0.82709 0.0
C237 C 0.59327 0.7566 0.83132 0.0
C238 C 0.55456 0.84127 0.82058 0.0
C239 C 0.6429 0.7924 0.82838 0.0
C240 C 0.64869 0.85053 0.82127 0.0
C241 C 0.61097 0.93481 0.81033 0.0
C242 C 0.56707 0.96052 0.80713 0.0
C243 C 0.605 0.87575 0.81731 0.0
C244 C 0.51717 0.92606 0.81121 0.0
C245 C 0.51092 0.86731 0.81745 0.0
H246 H 0.83321 0.41185 0.14961 0.0
H247 H 0.89408 0.58837 0.12869 0.0
H248 H 0.80526 0.60373 0.12048 0.0
H249 H 0.70491 0.5695 0.11737 0.0
H250 H 0.64257 0.39482 0.14214 0.0
H251 H 0.73189 0.37857 0.14962 0.0
C252 C 0.8282 0.45423 0.1432 0.0
C253 C 0.87583 0.49854 0.13977 0.0
C254 C 0.77359 0.46389 0.1387 0.0
C255 C 0.86261 0.55199 0.13166 0.0
C256 C 0.80993 0.56118 0.12679 0.0
C257 C 0.70978 0.52742 0.12459 0.0
C258 C 0.66217 0.48364 0.12892 0.0
C259 C 0.76407 0.51789 0.12992 0.0
C260 C 0.67452 0.43053 0.13848 0.0
C261 C 0.72737 0.42096 0.14281 0.0
H262 H 0.25064 0.77862 0.52204 0.0
H263 H 0.38181 0.72073 0.47743 0.0
H264 H 0.32293 0.63842 0.45551 0.0
H265 H 0.23333 0.58716 0.44638 0.0
H266 H 0.10277 0.65313 0.48519 0.0
H267 H 0.16202 0.7274 0.51335 0.0
C268 C 0.26618 0.74727 0.50802 0.0
C269 C 0.31992 0.75475 0.50142 0.0
C270 C 0.23224 0.70181 0.4947 0.0
C271 C 0.34022 0.71509 0.4827 0.0
C272 C 0.30671 0.66837 0.47023 0.0
C273 C 0.21828 0.61811 0.46094 0.0
C274 C 0.16428 0.61528 0.46393 0.0
C275 C 0.25259 0.66203 0.47556 0.0
C276 C 0.1444 0.65445 0.48319 0.0
C277 C 0.17817 0.69702 0.49894 0.0
H278 H 0.52605 0.35021 0.85216 0.0
H279 H 0.67637 0.4085 0.80406 0.0
H280 H 0.68461 0.31065 0.7943 0.0
H281 H 0.64721 0.20769 0.79665 0.0
H282 H 0.49897 0.14819 0.8462 0.0
H283 H 0.49219 0.24623 0.85875 0.0
C284 C 0.56074 0.34153 0.83967 0.0
C285 C 0.60032 0.38738 0.82861 0.0
C286 C 0.56578 0.28448 0.83463 0.0
C287 C 0.64519 0.37471 0.81284 0.0
C288 C 0.64995 0.31847 0.80721 0.0
C289 C 0.61401 0.21626 0.81086 0.0
C290 C 0.57387 0.17039 0.82083 0.0
C291 C 0.61038 0.27295 0.81773 0.0
C292 C 0.53076 0.18232 0.83881 0.0
C293 C 0.52669 0.23858 0.8456 0.0
H294 H 0.54475 0.79792 0.50219 0.0
H295 H 0.68697 0.86187 0.55253 0.0
H296 H 0.69424 0.76542 0.56864 0.0
H297 H 0.66031 0.66126 0.56871 0.0
H298 H 0.52118 0.59676 0.51579 0.0
H299 H 0.51314 0.69344 0.50001 0.0
C300 C 0.57758 0.79068 0.51643 0.0
C301 C 0.61547 0.83765 0.52589 0.0
C302 C 0.58219 0.73437 0.52514 0.0
C303 C 0.65766 0.82695 0.54437 0.0
C304 C 0.66168 0.77155 0.55383 0.0
C305 C 0.62812 0.66853 0.55391 0.0
C306 C 0.59125 0.62149 0.54357 0.0
C307 C 0.6242 0.72471 0.54447 0.0
C308 C 0.55003 0.63193 0.52409 0.0
C309 C 0.54547 0.68738 0.51505 0.0
H310 H 0.8801 0.40193 0.7943 0.0
H311 H 0.86728 0.56454 0.75331 0.0
H312 H 0.94992 0.60716 0.77598 0.0
H313 H 1.01119 0.60372 0.82075 0.0
H314 H 1.01711 0.44489 0.86857 0.0
H315 H 0.95104 0.3952 0.8315 0.0
C316 C 0.89696 0.44601 0.78888 0.0
C317 C 0.86529 0.4809 0.77527 0.0
C318 C 0.94186 0.47153 0.80519 0.0
C319 C 0.88901 0.53683 0.76581 0.0
C320 C 0.93593 0.56203 0.7796 0.0
C321 C 0.99832 0.55813 0.82234 0.0
C322 C 1.01723 0.52746 0.84714 0.0
C323 C 0.95994 0.53072 0.80167 0.0
C324 C 1.00142 0.46862 0.8497 0.0
C325 C 0.96439 0.44049 0.8284 0.0
H326 H 0.30483 0.85282 0.15252 0.0
H327 H 0.31663 0.70876 0.21429 0.0
H328 H 0.40147 0.75767 0.23319 0.0
H329 H 0.47048 0.84316 0.23406 0.0
H330 H 0.45395 0.99054 0.17698 0.0
H331 H 0.37451 0.93779 0.1529 0.0
C332 C 0.32629 0.83189 0.1698 0.0
C333 C 0.30424 0.77737 0.18211 0.0
C334 C 0.37457 0.86073 0.18109 0.0
C335 C 0.33237 0.75101 0.20475 0.0
C336 C 0.38099 0.77884 0.21546 0.0
C337 C 0.44917 0.86376 0.21657 0.0
C338 C 0.46787 0.92079 0.20752 0.0
C339 C 0.40206 0.83405 0.20421 0.0
C340 C 0.44072 0.94655 0.18409 0.0
C341 C 0.39496 0.91657 0.17061 0.0
H342 H 0.65593 0.23836 0.50057 0.0
H343 H 0.51017 0.17456 0.55312 0.0
H344 H 0.4983 0.27048 0.56291 0.0
H345 H 0.52985 0.37345 0.55908 0.0
H346 H 0.6751 0.44032 0.50776 0.0
H347 H 0.68543 0.34387 0.49402 0.0
C348 C 0.62152 0.24543 0.51408 0.0
C349 C 0.5842 0.1982 0.52614 0.0
C350 C 0.61435 0.30189 0.5196 0.0
C351 C 0.53971 0.20911 0.54333 0.0
C352 C 0.53272 0.26439 0.54905 0.0
C353 C 0.56361 0.36692 0.54468 0.0
C354 C 0.60165 0.41445 0.53458 0.0
C355 C 0.56982 0.31115 0.5376 0.0
C356 C 0.64487 0.40495 0.5156 0.0
C357 C 0.65107 0.34949 0.5081 0.0
H358 H 0.35585 0.67062 0.87052 0.0
H359 H 0.295 0.73154 0.78238 0.0
H360 H 0.21576 0.74252 0.81273 0.0
H361 H 0.15388 0.69678 0.85501 0.0
H362 H 0.20576 0.59525 0.93067 0.0
H363 H 0.29665 0.63709 0.91672 0.0
C364 C 0.32615 0.68944 0.85872 0.0
C365 C 0.32968 0.69878 0.8244 0.0
C366 C 0.27748 0.68499 0.87456 0.0
C367 C 0.29232 0.72358 0.80877 0.0
C368 C 0.2466 0.72839 0.82602 0.0
C369 C 0.18549 0.68581 0.86906 0.0
C370 C 0.17388 0.64247 0.89304 0.0
C371 C 0.23685 0.70334 0.8576 0.0
C372 C 0.214 0.62837 0.91191 0.0
C373 C 0.26596 0.65179 0.90355 0.0
H374 H 0.75999 0.22388 0.19293 0.0
H375 H 0.8581 0.1059 0.21858 0.0
H376 H 0.78127 0.03518 0.23573 0.0
H377 H 0.68555 1.00554 0.2416 0.0
H378 H 0.58689 0.12029 0.21244 0.0
H379 H 0.66384 0.19382 0.19847 0.0
C380 C 0.76423 0.18278 0.20255 0.0
C381 C 0.81426 0.16985 0.20481 0.0
C382 C 0.71975 0.14194 0.21169 0.0
C383 C 0.8197 0.1164 0.21677 0.0
C384 C 0.77589 0.0761 0.22657 0.0
C385 C 0.68139 0.04709 0.23274 0.0
C386 C 0.63132 0.05842 0.22852 0.0
C387 C 0.72572 0.08824 0.22401 0.0
C388 C 0.62555 0.11155 0.2162 0.0
C389 C 0.66938 0.15324 0.20812 0.0
H390 H 0.10156 0.57067 0.06713 0.0
H391 H 0.08746 0.39546 0.04182 0.0
H392 H 0.09663 0.42187 0.98322 0.0
H393 H 0.09795 0.49385 0.93993 0.0
H394 H 0.10889 0.66859 0.96463 0.0
H395 H 0.11473 0.64443 0.0235 0.0
C396 C 0.10145 0.5387 0.04873 0.0
C397 C 0.09322 0.48153 0.0582 0.0
C398 C 0.10674 0.55432 0.01543 0.0
C399 C 0.09376 0.43981 0.03462 0.0
C400 C 0.09886 0.45485 0.00131 0.0
C401 C 0.10241 0.5264 0.95841 0.0
C402 C 0.10173 0.58233 0.94891 0.0
C403 C 0.10384 0.51176 0.99157 0.0
C404 C 0.10844 0.62518 0.97214 0.0
C405 C 0.11148 0.61126 0.00547 0.0
H406 H 0.62127 0.95515 0.40805 0.0
H407 H 0.54107 0.09428 0.41978 0.0
H408 H 0.54271 0.10963 0.36004 0.0
H409 H 0.55322 0.07286 0.30434 0.0
H410 H 0.62715 0.92975 0.29215 0.0
H411 H 0.64284 0.92675 0.35152 0.0
C412 C 0.60562 0.98977 0.39743 0.0
C413 C 0.58118 0.0237 0.41818 0.0
C414 C 0.60519 0.99716 0.3628 0.0
C415 C 0.56013 0.06777 0.4042 0.0
C416 C 0.56087 0.07641 0.37004 0.0
C417 C 0.57463 0.04271 0.31473 0.0
C418 C 0.58967 1.00199 0.2942 0.0
C419 C 0.58142 0.04002 0.34903 0.0
C420 C 0.61614 0.96192 0.30769 0.0
C421 C 0.62442 0.95984 0.34164 0.0
H422 H 0.5309 0.57242 0.72911 0.0
H423 H 0.69862 0.61266 0.73544 0.0
H424 H 0.70813 0.60784 0.67582 0.0
H425 H 0.66945 0.58569 0.62166 0.0
H426 H 0.50276 0.54741 0.61358 0.0
H427 H 0.49179 0.56049 0.67315 0.0
C428 C 0.5694 0.57996 0.71734 0.0
C429 C 0.61406 0.59141 0.73699 0.0
C430 C 0.57473 0.57895 0.68243 0.0
C431 C 0.66363 0.60261 0.72118 0.0
C432 C 0.66917 0.60038 0.68692 0.0
C433 C 0.63087 0.58268 0.63286 0.0
C434 C 0.58698 0.5669 0.61324 0.0
C435 C 0.62515 0.58825 0.66726 0.0
C436 C 0.53703 0.56098 0.62813 0.0
C437 C 0.53088 0.56734 0.66231 0.0
H438 H 0.55662 0.94339 0.62882 0.0
H439 H 0.67032 0.09628 0.60939 0.0
H440 H 0.67449 0.11567 0.66832 0.0
H441 H 0.64507 0.09028 0.72487 0.0
H442 H 0.5192 0.94878 0.74445 0.0
H443 H 0.52336 0.92054 0.68675 0.0
C444 C 0.58199 0.98093 0.63771 0.0
C445 C 0.61314 0.01857 0.61513 0.0
C446 C 0.58321 0.99253 0.67171 0.0
C447 C 0.64602 0.06706 0.62656 0.0
C448 C 0.64868 0.07786 0.66016 0.0
C449 C 0.61839 0.0533 0.71647 0.0
C450 C 0.58173 0.02198 0.73894 0.0
C451 C 0.6175 0.04093 0.68288 0.0
C452 C 0.54836 0.97325 0.72796 0.0
C453 C 0.55001 0.95785 0.69473 0.0
H454 H 0.59595 0.46506 0.94457 0.0
H455 H 0.59265 0.64325 0.94238 0.0
H456 H 0.60703 0.64776 0.00177 0.0
H457 H 0.60848 0.59811 0.0557 0.0
H458 H 0.614 0.42106 0.0582 0.0
H459 H 0.61383 0.41944 -0.00225 0.0
C460 C 0.5989 0.50499 0.95706 0.0
C461 C 0.592 0.55357 0.9389 0.0
C462 C 0.60864 0.50763 0.99141 0.0
C463 C 0.59716 0.6051 0.95554 0.0
C464 C 0.60559 0.60774 0.98963 0.0
C465 C 0.61266 0.55998 0.04289 0.0
C466 C 0.61175 0.50979 0.0617 0.0
C467 C 0.61029 0.55906 0.00801 0.0
C468 C 0.61577 0.46042 0.04457 0.0
C469 C 0.61421 0.45926 0.0099 0.0
H470 H 0.07893 0.42722 0.26296 0.0
H471 H 1.05456 0.59583 0.24144 0.0
H472 H 1.04796 0.61423 0.30024 0.0
H473 H 1.05826 0.58609 0.35744 0.0
H474 H 0.0907 0.42183 0.38013 0.0
H475 H 0.08302 0.39642 0.32163 0.0
C476 C 1.07133 0.46745 0.27138 0.0
C477 C 1.06719 0.51026 0.24829 0.0
C478 C 1.06887 0.4782 0.30536 0.0
C479 C 1.05775 0.56249 0.25907 0.0
C480 C 1.05401 0.573 0.29258 0.0
C481 C 1.06277 0.54453 0.34936 0.0
C482 C 0.07582 0.5061 0.37235 0.0
C483 C 1.06074 0.53173 0.31586 0.0
C484 C 0.08108 0.45197 0.36237 0.0
C485 C 0.07711 0.43781 0.32903 0.0
loop_
_geom_bond_atom_site_label_1
_geom_bond_atom_site_label_2
_geom_bond_distance
_geom_bond_site_symmetry_2
_ccdc_geom_bond_type
Nd0 C2 2.836 . S
Nd0 O20 2.500 . S
Nd0 O21 2.492 . S
Nd0 O22 2.487 . S
Nd0 O23 2.682 1_455 S
Nd0 O24 2.410 . S
Nd0 O29 2.414 . S
Nd0 O31 2.424 1_455 S
Nd1 C11 2.836 . S
Nd1 O23 2.414 . S
Nd1 O25 2.424 1_655 S
Nd1 O26 2.500 . S
Nd1 O27 2.492 . S
Nd1 O28 2.487 . S
Nd1 O29 2.682 1_655 S
Nd1 O30 2.410 . S
C2 Nd0 2.836 . S
C2 C3 1.498 . S
C2 O20 1.258 . S
C2 O21 1.239 . S
C3 C2 1.498 . S
C3 C4 1.366 . S
C3 C8 1.407 . S
C4 C3 1.366 . S
C4 C5 1.392 . S
C4 H32 0.930 . S
C5 C4 1.392 . S
C5 C6 1.398 . S
C5 H33 0.929 . S
C6 C5 1.398 . S
C6 C7 1.352 . S
C7 C6 1.352 . S
C7 C8 1.384 . S
C7 H34 0.930 . S
C8 C3 1.407 . S
C8 C7 1.384 . S
C8 H35 0.929 . S
C9 O22 1.241 1_655 S
C9 O23 1.273 . S
C10 O24 1.251 . S
C10 O25 1.268 . S
C11 Nd1 2.836 . S
C11 C12 1.498 . S
C11 O26 1.258 . S
C11 O27 1.239 . S
C12 C11 1.498 . S
C12 C13 1.366 . S
C12 C17 1.407 . S
C13 C12 1.366 . S
C13 C14 1.392 . S
C13 H36 0.930 . S
C14 C13 1.392 . S
C14 C15 1.398 . S
C14 H37 0.929 . S
C15 C14 1.398 . S
C15 C16 1.352 . S
C16 C15 1.352 . S
C16 C17 1.384 . S
C16 H38 0.930 . S
C17 C12 1.407 . S
C17 C16 1.384 . S
C17 H39 0.929 . S
C18 O28 1.241 1_455 S
C18 O29 1.273 . S
C19 O30 1.251 . S
C19 O31 1.268 . S
O20 Nd0 2.500 . S
O20 C2 1.258 . S
O21 Nd0 2.492 . S
O21 C2 1.239 . S
O22 Nd0 2.487 . S
O22 C9 1.241 1_455 S
O23 Nd0 2.682 1_655 S
O23 Nd1 2.414 . S
O23 C9 1.273 . S
O24 Nd0 2.410 . S
O24 C10 1.251 . S
O25 Nd1 2.424 1_455 S
O25 C10 1.268 . S
O26 Nd1 2.500 . S
O26 C11 1.258 . S
O27 Nd1 2.492 . S
O27 C11 1.239 . S
O28 Nd1 2.487 . S
O28 C18 1.241 1_655 S
O29 Nd0 2.414 . S
O29 Nd1 2.682 1_455 S
O29 C18 1.273 . S
O30 Nd1 2.410 . S
O30 C19 1.251 . S
O31 Nd0 2.424 1_655 S
O31 C19 1.268 . S
H32 C4 0.930 . S
H33 C5 0.929 . S
H34 C7 0.930 . S
H35 C8 0.929 . S
H36 C13 0.930 . S
H37 C14 0.929 . S
H38 C16 0.930 . S
H39 C17 0.929 . S
Nd40 C42 2.836 . S
Nd40 O60 2.500 . S
Nd40 O61 2.492 . S
Nd40 O62 2.487 . S
Nd40 O63 2.682 1_565 S
Nd40 O64 2.410 . S
Nd40 O69 2.412 . S
Nd40 O71 2.424 1_565 S
Nd41 C51 2.836 . S
Nd41 O63 2.414 . S
Nd41 O65 2.424 1_545 S
Nd41 O66 2.500 . S
Nd41 O67 2.492 . S
Nd41 O68 2.487 . S
Nd41 O69 2.681 1_545 S
Nd41 O70 2.410 . S
C42 Nd40 2.836 . S
C42 C43 1.498 . S
C42 O60 1.258 . S
C42 O61 1.239 . S
C43 C42 1.498 . S
C43 C44 1.366 . S
C43 C48 1.407 . S
C44 C43 1.366 . S
C44 C45 1.392 . S
C44 H72 0.930 . S
C45 C44 1.392 . S
C45 C46 1.398 . S
C45 H73 0.929 . S
C46 C45 1.398 . S
C46 C47 1.352 . S
C47 C46 1.352 . S
C47 C48 1.384 . S
C47 H74 0.930 . S
C48 C43 1.407 . S
C48 C47 1.384 . S
C48 H75 0.929 . S
C49 O62 1.241 1_545 S
C49 O63 1.273 . S
C50 O64 1.251 . S
C50 O65 1.268 . S
C51 Nd41 2.836 . S
C51 C52 1.498 . S
C51 O66 1.258 . S
C51 O67 1.239 . S
C52 C51 1.498 . S
C52 C53 1.366 . S
C52 C57 1.407 . S
C53 C52 1.366 . S
C53 C54 1.392 . S
C53 H76 0.930 . S
C54 C53 1.392 . S
C54 C55 1.398 . S
C54 H77 0.929 . S
C55 C54 1.398 . S
C55 C56 1.352 . S
C56 C55 1.352 . S
C56 C57 1.384 . S
C56 H78 0.930 . S
C57 C52 1.407 . S
C57 C56 1.384 . S
C57 H79 0.929 . S
C58 O68 1.241 . S
C58 O69 1.272 1_545 S
C59 O70 1.251 . S
C59 O71 1.268 . S
O60 Nd40 2.500 . S
O60 C42 1.258 . S
O61 Nd40 2.492 . S
O61 C42 1.239 . S
O62 Nd40 2.487 . S
O62 C49 1.241 1_565 S
O63 Nd40 2.682 1_545 S
O63 Nd41 2.414 . S
O63 C49 1.273 . S
O64 Nd40 2.410 . S
O64 C50 1.251 . S
O65 Nd41 2.424 1_565 S
O65 C50 1.268 . S
O66 Nd41 2.500 . S
O66 C51 1.258 . S
O67 Nd41 2.492 . S
O67 C51 1.239 . S
O68 Nd41 2.487 . S
O68 C58 1.241 . S
O69 Nd40 2.412 . S
O69 Nd41 2.681 1_565 S
O69 C58 1.272 1_565 S
O70 Nd41 2.410 . S
O70 C59 1.251 . S
O71 Nd40 2.424 1_545 S
O71 C59 1.268 . S
H72 C44 0.930 . S
H73 C45 0.929 . S
H74 C47 0.930 . S
H75 C48 0.929 . S
H76 C53 0.930 . S
H77 C54 0.929 . S
H78 C56 0.930 . S
H79 C57 0.929 . S
Nd80 C82 2.836 . S
Nd80 O100 2.500 . S
Nd80 O101 2.492 . S
Nd80 O102 2.487 . S
Nd80 O103 2.682 . S
Nd80 O104 2.410 . S
Nd80 O109 2.414 . S
Nd80 O111 2.424 . S
Nd81 C91 2.836 . S
Nd81 O103 2.414 . S
Nd81 O105 2.424 . S
Nd81 O106 2.500 . S
Nd81 O107 2.492 . S
Nd81 O108 2.487 . S
Nd81 O109 2.682 . S
Nd81 O110 2.410 . S
C82 Nd80 2.836 . S
C82 C83 1.498 . S
C82 O100 1.258 . S
C82 O101 1.239 . S
C83 C82 1.498 . S
C83 C84 1.366 . S
C83 C88 1.407 . S
C84 C83 1.366 . S
C84 C85 1.392 . S
C84 H112 0.930 . S
C85 C84 1.392 . S
C85 C86 1.398 . S
C85 H113 0.929 . S
C86 C85 1.398 . S
C86 C87 1.352 . S
C87 C86 1.352 . S
C87 C88 1.384 . S
C87 H114 0.930 . S
C88 C83 1.407 . S
C88 C87 1.384 . S
C88 H115 0.929 . S
C89 O102 1.241 . S
C89 O103 1.273 . S
C90 O104 1.251 . S
C90 O105 1.268 . S
C91 Nd81 2.836 . S
C91 C92 1.498 . S
C91 O106 1.258 . S
C91 O107 1.239 . S
C92 C91 1.498 . S
C92 C93 1.366 . S
C92 C97 1.407 . S
C93 C92 1.366 . S
C93 C94 1.392 . S
C93 H116 0.930 . S
C94 C93 1.392 . S
C94 C95 1.398 . S
C94 H117 0.929 . S
C95 C94 1.398 . S
C95 C96 1.352 . S
C96 C95 1.352 . S
C96 C97 1.384 . S
C96 H118 0.930 . S
C97 C92 1.407 . S
C97 C96 1.384 . S
C97 H119 0.929 . S
C98 O108 1.241 . S
C98 O109 1.273 . S
C99 O110 1.251 . S
C99 O111 1.268 . S
O100 Nd80 2.500 . S
O100 C82 1.258 . S
O101 Nd80 2.492 . S
O101 C82 1.239 . S
O102 Nd80 2.487 . S
O102 C89 1.241 . S
O103 Nd80 2.682 . S
O103 Nd81 2.414 . S
O103 C89 1.273 . S
O104 Nd80 2.410 . S
O104 C90 1.251 . S
O105 Nd81 2.424 . S
O105 C90 1.268 . S
O106 Nd81 2.500 . S
O106 C91 1.258 . S
O107 Nd81 2.492 . S
O107 C91 1.239 . S
O108 Nd81 2.487 . S
O108 C98 1.241 . S
O109 Nd80 2.414 . S
O109 Nd81 2.682 . S
O109 C98 1.273 . S
O110 Nd81 2.410 . S
O110 C99 1.251 . S
O111 Nd80 2.424 . S
O111 C99 1.268 . S
H112 C84 0.930 . S
H113 C85 0.929 . S
H114 C87 0.930 . S
H115 C88 0.929 . S
H116 C93 0.930 . S
H117 C94 0.929 . S
H118 C96 0.930 . S
H119 C97 0.929 . S
C120 N121 1.317 1_565 S
C120 N122 1.348 . S
C120 C123 1.485 1_565 S
N121 C120 1.317 1_545 S
N121 N125 1.370 . S
N122 C120 1.348 . S
N122 C124 1.346 . S
C123 C120 1.485 1_545 S
C123 H127 0.959 . S
C123 H128 0.962 1_545 S
C123 H129 0.959 . S
C124 N122 1.346 . S
C124 N125 1.307 1_565 S
C124 C126 1.486 . S
N125 N121 1.370 . S
N125 C124 1.307 1_545 S
C126 C124 1.486 . S
C126 H130 0.960 . S
C126 H131 0.960 . S
C126 H132 0.959 . S
H127 C123 0.959 . S
H128 C123 0.962 1_565 S
H129 C123 0.959 . S
H130 C126 0.960 . S
H131 C126 0.960 . S
H132 C126 0.959 . S
C133 N134 1.317 . S
C133 N135 1.348 . S
C133 C136 1.485 . S
N134 C133 1.317 . S
N134 N138 1.370 . S
N135 C133 1.348 . S
N135 C137 1.346 . S
C136 C133 1.485 . S
C136 H140 0.960 . S
C136 H141 0.961 . S
C136 H142 0.960 . S
C137 N135 1.346 . S
C137 N138 1.307 . S
C137 C139 1.486 . S
N138 N134 1.370 . S
N138 C137 1.307 . S
C139 C137 1.486 . S
C139 H143 0.960 . S
C139 H144 0.960 . S
C139 H145 0.959 . S
H140 C136 0.960 . S
H141 C136 0.961 . S
H142 C136 0.960 . S
H143 C139 0.960 . S
H144 C139 0.960 . S
H145 C139 0.959 . S
C146 N147 1.317 . S
C146 N148 1.348 1_455 S
C146 C149 1.485 . S
N147 C146 1.317 . S
N147 N151 1.370 . S
N148 C146 1.348 1_655 S
N148 C150 1.346 . S
C149 C146 1.485 . S
C149 H153 0.960 . S
C149 H154 0.961 1_455 S
C149 H155 0.960 . S
C150 N148 1.346 . S
C150 N151 1.307 1_655 S
C150 C152 1.486 . S
N151 N147 1.370 . S
N151 C150 1.307 1_455 S
C152 C150 1.486 . S
C152 H156 0.960 . S
C152 H157 0.960 . S
C152 H158 0.959 . S
H153 C149 0.960 . S
H154 C149 0.961 1_655 S
H155 C149 0.960 . S
H156 C152 0.960 . S
H157 C152 0.960 . S
H158 C152 0.959 . S
C159 N160 1.317 1_455 S
C159 N161 1.348 . S
C159 C162 1.485 . S
N160 C159 1.317 1_655 S
N160 N164 1.370 1_655 S
N161 C159 1.348 . S
N161 C163 1.346 . S
C162 C159 1.485 . S
C162 H166 0.960 1_455 S
C162 H167 0.961 . S
C162 H168 0.960 1_455 S
C163 N161 1.346 . S
C163 N164 1.307 . S
C163 C165 1.486 . S
N164 N160 1.370 1_455 S
N164 C163 1.307 . S
C165 C163 1.486 . S
C165 H169 0.960 . S
C165 H170 0.960 . S
C165 H171 0.959 . S
H166 C162 0.960 1_655 S
H167 C162 0.961 . S
H168 C162 0.960 1_655 S
H169 C165 0.960 . S
H170 C165 0.960 . S
H171 C165 0.959 . S
C172 N173 1.317 . S
C172 N174 1.348 . S
C172 C175 1.485 . S
N173 C172 1.317 . S
N173 N177 1.370 . S
N174 C172 1.348 . S
N174 C176 1.346 . S
C175 C172 1.485 . S
C175 H179 0.960 . S
C175 H180 0.961 . S
C175 H181 0.971 . S
C176 N174 1.346 . S
C176 N177 1.307 . S
C176 C178 1.486 . S
N177 N173 1.370 . S
N177 C176 1.307 . S
C178 C176 1.486 . S
C178 H182 0.960 . S
C178 H183 0.960 . S
C178 H184 0.959 . S
H179 C175 0.960 . S
H180 C175 0.961 . S
H181 C175 0.971 . S
H182 C178 0.960 . S
H183 C178 0.960 . S
H184 C178 0.959 . S
C185 N186 1.317 . S
C185 N187 1.348 . S
C185 C188 1.485 . S
N186 C185 1.317 . S
N186 N190 1.370 . S
N187 C185 1.348 . S
N187 C189 1.346 . S
C188 C185 1.485 . S
C188 H192 0.960 . S
C188 H193 0.961 . S
C188 H194 0.960 . S
C189 N187 1.346 . S
C189 N190 1.307 . S
C189 C191 1.486 . S
N190 N186 1.370 . S
N190 C189 1.307 . S
C191 C189 1.486 . S
C191 H195 0.960 . S
C191 H196 0.960 . S
C191 H197 0.959 . S
H192 C188 0.960 . S
H193 C188 0.961 . S
H194 C188 0.960 . S
H195 C191 0.960 . S
H196 C191 0.960 . S
H197 C191 0.959 . S
H198 C204 0.930 . S
H199 C207 0.930 . S
H200 C208 0.930 . S
H201 C209 0.930 . S
H202 C212 0.930 . S
H203 C213 0.930 . S
C204 H198 0.930 . S
C204 C205 1.355 . S
C204 C206 1.415 . S
C205 C204 1.355 . S
C205 C207 1.419 . S
C206 C204 1.415 . S
C206 C211 1.425 . S
C206 C213 1.409 . S
C207 H199 0.930 . S
C207 C205 1.419 . S
C207 C208 1.362 . S
C208 H200 0.930 . S
C208 C207 1.362 . S
C208 C211 1.409 . S
C209 H201 0.930 . S
C209 C210 1.355 . S
C209 C211 1.415 . S
C210 C209 1.355 . S
C210 C212 1.419 . S
C211 C206 1.425 . S
C211 C208 1.409 . S
C211 C209 1.415 . S
C212 H202 0.930 . S
C212 C210 1.419 . S
C212 C213 1.362 . S
C213 H203 0.930 . S
C213 C206 1.409 . S
C213 C212 1.362 . S
H214 C220 0.930 . S
H215 C223 0.930 . S
H216 C224 0.930 . S
H217 C225 0.930 . S
H218 C228 0.930 . S
H219 C229 0.930 . S
C220 H214 0.930 . S
C220 C221 1.355 . S
C220 C222 1.415 . S
C221 C220 1.355 . S
C221 C223 1.419 . S
C222 C220 1.415 . S
C222 C227 1.425 . S
C222 C229 1.409 . S
C223 H215 0.930 . S
C223 C221 1.419 . S
C223 C224 1.362 . S
C224 H216 0.930 . S
C224 C223 1.362 . S
C224 C227 1.409 . S
C225 H217 0.930 . S
C225 C226 1.355 . S
C225 C227 1.415 . S
C226 C225 1.355 . S
C226 C228 1.419 . S
C227 C222 1.425 . S
C227 C224 1.409 . S
C227 C225 1.415 . S
C228 H218 0.930 . S
C228 C226 1.419 . S
C228 C229 1.362 . S
C229 H219 0.930 . S
C229 C222 1.409 . S
C229 C228 1.362 . S
H230 C236 0.930 . S
H231 C239 0.930 . S
H232 C240 0.930 . S
H233 C241 0.930 . S
H234 C244 0.930 . S
H235 C245 0.930 . S
C236 H230 0.930 . S
C236 C237 1.355 . S
C236 C238 1.415 . S
C237 C236 1.355 . S
C237 C239 1.419 . S
C238 C236 1.415 . S
C238 C243 1.425 . S
C238 C245 1.409 . S
C239 H231 0.930 . S
C239 C237 1.419 . S
C239 C240 1.362 . S
C240 H232 0.930 . S
C240 C239 1.362 . S
C240 C243 1.409 . S
C241 H233 0.930 . S
C241 C242 1.355 . S
C241 C243 1.415 . S
C242 C241 1.355 . S
C242 C244 1.419 . S
C243 C238 1.425 . S
C243 C240 1.409 . S
C243 C241 1.415 . S
C244 H234 0.930 . S
C244 C242 1.419 . S
C244 C245 1.362 . S
C245 H235 0.930 . S
C245 C238 1.409 . S
C245 C244 1.362 . S
H246 C252 0.930 . S
H247 C255 0.930 . S
H248 C256 0.930 . S
H249 C257 0.930 . S
H250 C260 0.930 . S
H251 C261 0.930 . S
C252 H246 0.930 . S
C252 C253 1.355 . S
C252 C254 1.415 . S
C253 C252 1.355 . S
C253 C255 1.419 . S
C254 C252 1.415 . S
C254 C259 1.425 . S
C254 C261 1.409 . S
C255 H247 0.930 . S
C255 C253 1.419 . S
C255 C256 1.362 . S
C256 H248 0.930 . S
C256 C255 1.362 . S
C256 C259 1.409 . S
C257 H249 0.930 . S
C257 C258 1.355 . S
C257 C259 1.415 . S
C258 C257 1.355 . S
C258 C260 1.419 . S
C259 C254 1.425 . S
C259 C256 1.409 . S
C259 C257 1.415 . S
C260 H250 0.930 . S
C260 C258 1.419 . S
C260 C261 1.362 . S
C261 H251 0.930 . S
C261 C254 1.409 . S
C261 C260 1.362 . S
H262 C268 0.930 . S
H263 C271 0.930 . S
H264 C272 0.930 . S
H265 C273 0.930 . S
H266 C276 0.930 . S
H267 C277 0.930 . S
C268 H262 0.930 . S
C268 C269 1.355 . S
C268 C270 1.415 . S
C269 C268 1.355 . S
C269 C271 1.419 . S
C270 C268 1.415 . S
C270 C275 1.425 . S
C270 C277 1.409 . S
C271 H263 0.930 . S
C271 C269 1.419 . S
C271 C272 1.362 . S
C272 H264 0.930 . S
C272 C271 1.362 . S
C272 C275 1.409 . S
C273 H265 0.930 . S
C273 C274 1.355 . S
C273 C275 1.415 . S
C274 C273 1.355 . S
C274 C276 1.419 . S
C275 C270 1.425 . S
C275 C272 1.409 . S
C275 C273 1.415 . S
C276 H266 0.930 . S
C276 C274 1.419 . S
C276 C277 1.362 . S
C277 H267 0.930 . S
C277 C270 1.409 . S
C277 C276 1.362 . S
H278 C284 0.930 . S
H279 C287 0.930 . S
H280 C288 0.930 . S
H281 C289 0.930 . S
H282 C292 0.930 . S
H283 C293 0.930 . S
C284 H278 0.930 . S
C284 C285 1.355 . S
C284 C286 1.415 . S
C285 C284 1.355 . S
C285 C287 1.419 . S
C286 C284 1.415 . S
C286 C291 1.425 . S
C286 C293 1.409 . S
C287 H279 0.930 . S
C287 C285 1.419 . S
C287 C288 1.362 . S
C288 H280 0.930 . S
C288 C287 1.362 . S
C288 C291 1.409 . S
C289 H281 0.930 . S
C289 C290 1.355 . S
C289 C291 1.415 . S
C290 C289 1.355 . S
C290 C292 1.419 . S
C291 C286 1.425 . S
C291 C288 1.409 . S
C291 C289 1.415 . S
C292 H282 0.930 . S
C292 C290 1.419 . S
C292 C293 1.362 . S
C293 H283 0.930 . S
C293 C286 1.409 . S
C293 C292 1.362 . S
H294 C300 0.930 . S
H295 C303 0.930 . S
H296 C304 0.930 . S
H297 C305 0.930 . S
H298 C308 0.930 . S
H299 C309 0.930 . S
C300 H294 0.930 . S
C300 C301 1.355 . S
C300 C302 1.415 . S
C301 C300 1.355 . S
C301 C303 1.419 . S
C302 C300 1.415 . S
C302 C307 1.425 . S
C302 C309 1.409 . S
C303 H295 0.930 . S
C303 C301 1.419 . S
C303 C304 1.362 . S
C304 H296 0.930 . S
C304 C303 1.362 . S
C304 C307 1.409 . S
C305 H297 0.930 . S
C305 C306 1.355 . S
C305 C307 1.415 . S
C306 C305 1.355 . S
C306 C308 1.419 . S
C307 C302 1.425 . S
C307 C304 1.409 . S
C307 C305 1.415 . S
C308 H298 0.930 . S
C308 C306 1.419 . S
C308 C309 1.362 . S
C309 H299 0.930 . S
C309 C302 1.409 . S
C309 C308 1.362 . S
H310 C316 0.930 . S
H311 C319 0.930 . S
H312 C320 0.930 . S
H313 C321 0.930 . S
H314 C324 0.930 . S
H315 C325 0.930 . S
C316 H310 0.930 . S
C316 C317 1.355 . S
C316 C318 1.415 . S
C317 C316 1.355 . S
C317 C319 1.419 . S
C318 C316 1.415 . S
C318 C323 1.425 . S
C318 C325 1.409 . S
C319 H311 0.930 . S
C319 C317 1.419 . S
C319 C320 1.362 . S
C320 H312 0.930 . S
C320 C319 1.362 . S
C320 C323 1.409 . S
C321 H313 0.930 . S
C321 C322 1.355 . S
C321 C323 1.415 . S
C322 C321 1.355 . S
C322 C324 1.419 . S
C323 C318 1.425 . S
C323 C320 1.409 . S
C323 C321 1.415 . S
C324 H314 0.930 . S
C324 C322 1.419 . S
C324 C325 1.362 . S
C325 H315 0.930 . S
C325 C318 1.409 . S
C325 C324 1.362 . S
H326 C332 0.930 . S
H327 C335 0.930 . S
H328 C336 0.930 . S
H329 C337 0.930 . S
H330 C340 0.930 . S
H331 C341 0.930 . S
C332 H326 0.930 . S
C332 C333 1.355 . S
C332 C334 1.415 . S
C333 C332 1.355 . S
C333 C335 1.419 . S
C334 C332 1.415 . S
C334 C339 1.425 . S
C334 C341 1.409 . S
C335 H327 0.930 . S
C335 C333 1.419 . S
C335 C336 1.362 . S
C336 H328 0.930 . S
C336 C335 1.362 . S
C336 C339 1.409 . S
C337 H329 0.930 . S
C337 C338 1.355 . S
C337 C339 1.415 . S
C338 C337 1.355 . S
C338 C340 1.419 . S
C339 C334 1.425 . S
C339 C336 1.409 . S
C339 C337 1.415 . S
C340 H330 0.930 . S
C340 C338 1.419 . S
C340 C341 1.362 . S
C341 H331 0.930 . S
C341 C334 1.409 . S
C341 C340 1.362 . S
H342 C348 0.930 . S
H343 C351 0.930 . S
H344 C352 0.930 . S
H345 C353 0.930 . S
H346 C356 0.930 . S
H347 C357 0.930 . S
C348 H342 0.930 . S
C348 C349 1.355 . S
C348 C350 1.415 . S
C349 C348 1.355 . S
C349 C351 1.419 . S
C350 C348 1.415 . S
C350 C355 1.425 . S
C350 C357 1.409 . S
C351 H343 0.930 . S
C351 C349 1.419 . S
C351 C352 1.362 . S
C352 H344 0.930 . S
C352 C351 1.362 . S
C352 C355 1.409 . S
C353 H345 0.930 . S
C353 C354 1.355 . S
C353 C355 1.415 . S
C354 C353 1.355 . S
C354 C356 1.419 . S
C355 C350 1.425 . S
C355 C352 1.409 . S
C355 C353 1.415 . S
C356 H346 0.930 . S
C356 C354 1.419 . S
C356 C357 1.362 . S
C357 H347 0.930 . S
C357 C350 1.409 . S
C357 C356 1.362 . S
H358 C364 0.930 . S
H359 C367 0.930 . S
H360 C368 0.930 . S
H361 C369 0.930 . S
H362 C372 0.930 . S
H363 C373 0.930 . S
C364 H358 0.930 . S
C364 C365 1.355 . S
C364 C366 1.415 . S
C365 C364 1.355 . S
C365 C367 1.419 . S
C366 C364 1.415 . S
C366 C371 1.425 . S
C366 C373 1.409 . S
C367 H359 0.930 . S
C367 C365 1.419 . S
C367 C368 1.362 . S
C368 H360 0.930 . S
C368 C367 1.362 . S
C368 C371 1.409 . S
C369 H361 0.930 . S
C369 C370 1.355 . S
C369 C371 1.415 . S
C370 C369 1.355 . S
C370 C372 1.419 . S
C371 C366 1.425 . S
C371 C368 1.409 . S
C371 C369 1.415 . S
C372 H362 0.930 . S
C372 C370 1.419 . S
C372 C373 1.362 . S
C373 H363 0.930 . S
C373 C366 1.409 . S
C373 C372 1.362 . S
H374 C380 0.930 . S
H375 C383 0.930 . S
H376 C384 0.930 . S
H377 C385 0.930 . S
H378 C388 0.930 . S
H379 C389 0.930 . S
C380 H374 0.930 . S
C380 C381 1.355 . S
C380 C382 1.415 . S
C381 C380 1.355 . S
C381 C383 1.419 . S
C382 C380 1.415 . S
C382 C387 1.425 . S
C382 C389 1.409 . S
C383 H375 0.930 . S
C383 C381 1.419 . S
C383 C384 1.362 . S
C384 H376 0.930 . S
C384 C383 1.362 . S
C384 C387 1.409 . S
C385 H377 0.930 . S
C385 C386 1.355 . S
C385 C387 1.415 . S
C386 C385 1.355 . S
C386 C388 1.419 . S
C387 C382 1.425 . S
C387 C384 1.409 . S
C387 C385 1.415 . S
C388 H378 0.930 . S
C388 C386 1.419 . S
C388 C389 1.362 . S
C389 H379 0.930 . S
C389 C382 1.409 . S
C389 C388 1.362 . S
H390 C396 0.930 . S
H391 C399 0.930 . S
H392 C400 0.930 . S
H393 C401 0.930 . S
H394 C404 0.930 . S
H395 C405 0.930 1_554 S
C396 H390 0.930 . S
C396 C397 1.355 . S
C396 C398 1.415 . S
C397 C396 1.355 . S
C397 C399 1.419 1_455 S
C398 C396 1.415 . S
C398 C403 1.425 1_455 S
C398 C405 1.409 1_554 S
C399 H391 0.930 . S
C399 C397 1.419 1_655 S
C399 C400 1.362 . S
C400 H392 0.930 . S
C400 C399 1.362 . S
C400 C403 1.409 . S
C401 H393 0.930 . S
C401 C402 1.355 1_655 S
C401 C403 1.415 1_556 S
C402 C401 1.355 1_455 S
C402 C404 1.419 . S
C403 C398 1.425 1_655 S
C403 C400 1.409 . S
C403 C401 1.415 1_554 S
C404 H394 0.930 . S
C404 C402 1.419 . S
C404 C405 1.362 . S
C405 H395 0.930 1_556 S
C405 C398 1.409 1_556 S
C405 C404 1.362 . S
H406 C412 0.930 . S
H407 C415 0.930 . S
H408 C416 0.930 . S
H409 C417 0.930 . S
H410 C420 0.930 . S
H411 C421 0.930 . S
C412 H406 0.930 . S
C412 C413 1.355 1_565 S
C412 C414 1.415 . S
C413 C412 1.355 1_545 S
C413 C415 1.419 . S
C414 C412 1.415 . S
C414 C419 1.425 1_565 S
C414 C421 1.409 . S
C415 H407 0.930 . S
C415 C413 1.419 . S
C415 C416 1.362 . S
C416 H408 0.930 . S
C416 C415 1.362 . S
C416 C419 1.409 . S
C417 H409 0.930 . S
C417 C418 1.355 . S
C417 C419 1.415 . S
C418 C417 1.355 . S
C418 C420 1.419 1_545 S
C419 C414 1.425 1_545 S
C419 C416 1.409 . S
C419 C417 1.415 . S
C420 H410 0.930 . S
C420 C418 1.419 1_565 S
C420 C421 1.362 . S
C421 H411 0.930 . S
C421 C414 1.409 . S
C421 C420 1.362 . S
H422 C428 0.930 . S
H423 C431 0.930 . S
H424 C432 0.930 . S
H425 C433 0.930 . S
H426 C436 0.930 . S
H427 C437 0.930 . S
C428 H422 0.930 . S
C428 C429 1.355 . S
C428 C430 1.415 . S
C429 C428 1.355 . S
C429 C431 1.419 . S
C430 C428 1.415 . S
C430 C435 1.425 . S
C430 C437 1.409 . S
C431 H423 0.930 . S
C431 C429 1.419 . S
C431 C432 1.362 . S
C432 H424 0.930 . S
C432 C431 1.362 . S
C432 C435 1.409 . S
C433 H425 0.930 . S
C433 C434 1.355 . S
C433 C435 1.415 . S
C434 C433 1.355 . S
C434 C436 1.419 . S
C435 C430 1.425 . S
C435 C432 1.409 . S
C435 C433 1.415 . S
C436 H426 0.930 . S
C436 C434 1.419 . S
C436 C437 1.362 . S
C437 H427 0.930 . S
C437 C430 1.409 . S
C437 C436 1.362 . S
H438 C444 0.930 . S
H439 C447 0.930 . S
H440 C448 0.930 . S
H441 C449 0.930 . S
H442 C452 0.930 . S
H443 C453 0.930 . S
C444 H438 0.930 . S
C444 C445 1.355 1_565 S
C444 C446 1.415 . S
C445 C444 1.355 1_545 S
C445 C447 1.419 . S
C446 C444 1.415 . S
C446 C451 1.425 1_565 S
C446 C453 1.409 . S
C447 H439 0.930 . S
C447 C445 1.419 . S
C447 C448 1.362 . S
C448 H440 0.930 . S
C448 C447 1.362 . S
C448 C451 1.409 . S
C449 H441 0.930 . S
C449 C450 1.355 . S
C449 C451 1.415 . S
C450 C449 1.355 . S
C450 C452 1.419 1_545 S
C451 C446 1.425 1_545 S
C451 C448 1.409 . S
C451 C449 1.415 . S
C452 H442 0.930 . S
C452 C450 1.419 1_565 S
C452 C453 1.362 . S
C453 H443 0.930 . S
C453 C446 1.409 . S
C453 C452 1.362 . S
H454 C460 0.930 . S
H455 C463 0.930 . S
H456 C464 0.930 . S
H457 C465 0.930 . S
H458 C468 0.930 . S
H459 C469 0.930 1_556 S
C460 H454 0.930 . S
C460 C461 1.355 . S
C460 C462 1.415 . S
C461 C460 1.355 . S
C461 C463 1.419 . S
C462 C460 1.415 . S
C462 C467 1.425 1_556 S
C462 C469 1.409 1_556 S
C463 H455 0.930 . S
C463 C461 1.419 . S
C463 C464 1.362 . S
C464 H456 0.930 . S
C464 C463 1.362 . S
C464 C467 1.409 1_556 S
C465 H457 0.930 . S
C465 C466 1.355 . S
C465 C467 1.415 . S
C466 C465 1.355 . S
C466 C468 1.419 . S
C467 C462 1.425 1_554 S
C467 C464 1.409 1_554 S
C467 C465 1.415 . S
C468 H458 0.930 . S
C468 C466 1.419 . S
C468 C469 1.362 . S
C469 H459 0.930 1_554 S
C469 C462 1.409 1_554 S
C469 C468 1.362 . S
H470 C476 0.930 . S
H471 C479 0.930 . S
H472 C480 0.930 . S
H473 C481 0.930 . S
H474 C484 0.930 . S
H475 C485 0.930 . S
C476 H470 0.930 . S
C476 C477 1.355 . S
C476 C478 1.415 . S
C477 C476 1.355 . S
C477 C479 1.419 1_655 S
C478 C476 1.415 . S
C478 C483 1.425 1_655 S
C478 C485 1.409 . S
C479 H471 0.930 . S
C479 C477 1.419 1_455 S
C479 C480 1.362 . S
C480 H472 0.930 . S
C480 C479 1.362 . S
C480 C483 1.409 . S
C481 H473 0.930 . S
C481 C482 1.355 1_455 S
C481 C483 1.415 . S
C482 C481 1.355 1_655 S
C482 C484 1.419 . S
C483 C478 1.425 1_455 S
C483 C480 1.409 . S
C483 C481 1.415 . S
C484 H474 0.930 . S
C484 C482 1.419 . S
C484 C485 1.362 . S
C485 H475 0.930 . S
C485 C478 1.409 . S
C485 C484 1.362 . S
C205 C10 2.880 . S
C210 N187 2.840 . S
C221 C55 1.128 . S
C226 N160 1.145 . S
C237 C90 1.811 . S
C242 N173 1.855 1_565 S
C253 C19 3.219 . S
C258 N186 3.269 . S
C274 N161 1.481 . S
C269 C46 1.419 . S
C290 N174 2.030 . S
C285 C99 2.028 . S
C301 C50 1.835 . S
C306 N134 1.827 . S
C317 C95 0.422 . S
C322 N148 0.421 . S
C333 C6 1.343 . S
C338 N122 1.402 . S
C354 N135 2.005 . S
C349 C59 1.970 . S
C370 N147 0.929 . S
C365 C86 0.909 . S
C381 C15 1.263 . S
C386 N121 1.270 . S
C402 N151 1.268 . S
C397 C18 1.233 . S
C413 C49 1.455 . S
C418 N125 1.511 . S
C429 C98 1.386 . S
C434 N138 1.469 . S
C450 N177 1.486 . S
C445 C58 1.452 . S
C466 N190 1.766 . S
C461 C89 1.707 . S
C477 C9 1.439 . S
C482 N164 1.584 1_655 S
