# Generated by pormake.
# Topology ssa, (4,4)-cn, num edge types: 1
# Building blocks:
#     Node 0, Type 0, BuildingBlock: NAWXER_clean_sbu_0, # of connection points: 4
#     Node 1, Type 0, BuildingBlock: NAWXER_clean_sbu_0, # of connection points: 4
#     Node 2, Type 0, BuildingBlock: NAWXER_clean_sbu_0, # of connection points: 4
#     Node 3, Type 0, BuildingBlock: NAWXER_clean_sbu_0, # of connection points: 4
#     Node 4, Type 0, BuildingBlock: NAWXER_clean_sbu_0, # of connection points: 4
#     Node 5, Type 0, BuildingBlock: NAWXER_clean_sbu_0, # of connection points: 4
#     Node 6, Type 1, BuildingBlock: MUDLON_clean_linker_0, # of connection points: 4
#     Node 7, Type 1, BuildingBlock: MUDLON_clean_linker_0, # of connection points: 4
#     Node 8, Type 1, BuildingBlock: MUDLON_clean_linker_0, # of connection points: 4
#     Node 9, Type 1, BuildingBlock: MUDLON_clean_linker_0, # of connection points: 4
#     Node 10, Type 1, BuildingBlock: MUDLON_clean_linker_0, # of connection points: 4
#     Node 11, Type 1, BuildingBlock: MUDLON_clean_linker_0, # of connection points: 4
#     Edge 12, Type (0, 1), None
#     Edge 13, Type (0, 1), None
#     Edge 14, Type (0, 1), None
#     Edge 15, Type (0, 1), None
#     Edge 16, Type (0, 1), None
#     Edge 17, Type (0, 1), None
#     Edge 18, Type (0, 1), None
#     Edge 19, Type (0, 1), None
#     Edge 20, Type (0, 1), None
#     Edge 21, Type (0, 1), None
#     Edge 22, Type (0, 1), None
#     Edge 23, Type (0, 1), None
#     Edge 24, Type (0, 1), None
#     Edge 25, Type (0, 1), None
#     Edge 26, Type (0, 1), None
#     Edge 27, Type (0, 1), None
#     Edge 28, Type (0, 1), None
#     Edge 29, Type (0, 1), None
#     Edge 30, Type (0, 1), None
#     Edge 31, Type (0, 1), None
#     Edge 32, Type (0, 1), None
#     Edge 33, Type (0, 1), None
#     Edge 34, Type (0, 1), None
#     Edge 35, Type (0, 1), None
# Relax obj value: 0.012
# Max RMSD: 0.048
# Mean RMSD: 0.037
data_MOF--net-ssa--node1-NAWXER_clean_sbu_0--node2-MUDLON_clean_linker_0--edge1-none
_symmetry_space_group_name_H-M    P1
_symmetry_Int_Tables_number       1
_symmetry_cell_setting            triclinic
loop_
_symmetry_equiv_pos_as_xyz
'x, y, z'
_cell_length_a     39.148973
_cell_length_b     39.068763
_cell_length_c     22.703211
_cell_angle_alpha  90.185058
_cell_angle_beta   89.858692
_cell_angle_gamma 119.71619
loop_
_atom_site_label
_atom_site_type_symbol
_atom_site_fract_x
_atom_site_fract_y
_atom_site_fract_z
_atom_type_partial_charge
C0 C 0.14957 0.59854 0.05335 0.0
C1 C 0.08214 0.48228 0.92326 0.0
O2 O 0.11484 0.57273 0.06931 0.0
Zn3 Zn 0.06849 0.51588 0.04425 0.0
O4 O 0.16568 0.59212 0.00896 0.0
Zn5 Zn 0.12114 0.53975 -0.00988 0.0
O6 O 0.07925 0.55719 0.96751 0.0
O7 O 0.02729 0.529 0.02636 0.0
O8 O 0.11823 0.50873 0.91931 0.0
O9 O 0.06228 0.48218 0.96807 0.0
O10 O 0.06602 0.48299 0.11078 0.0
O11 O 0.12242 0.50684 0.06349 0.0
C12 C 0.04551 0.55172 0.98326 0.0
C13 C 0.10025 0.487 0.10644 0.0
C14 C 0.50862 0.03461 0.58055 0.0
C15 C 0.57471 0.98982 0.4421 0.0
O16 O 0.50439 1.00011 0.57891 0.0
Zn17 Zn 0.54346 1.01074 0.51752 0.0
O18 O 0.53356 0.0615 0.54673 0.0
Zn19 Zn 0.57329 0.06897 0.47835 0.0
O20 O 0.54714 0.08088 0.41447 0.0
O21 O 0.51413 0.01951 0.44684 0.0
O22 O 0.58523 0.02646 0.43728 0.0
O23 O 0.55155 0.96954 0.48349 0.0
O24 O 0.59793 0.0511 0.55827 0.0
O25 O 0.623 0.10845 0.51281 0.0
C26 C 0.51724 0.04639 0.41187 0.0
C27 C 0.62509 0.08719 0.55344 0.0
C28 C 0.50151 0.45546 0.91609 0.0
C29 C 0.56578 0.56301 0.05976 0.0
O30 O 0.49858 0.48651 0.91727 0.0
Zn31 Zn 0.5348 0.51198 0.98296 0.0
O32 O 0.52389 0.45132 0.9527 0.0
Zn33 Zn 0.56064 0.48053 0.02506 0.0
O34 O 0.53048 0.44223 0.08667 0.0
O35 O 0.50078 0.473 0.05042 0.0
O36 O 0.57429 0.53544 0.06583 0.0
O37 O 0.54403 0.56163 0.01718 0.0
O38 O 0.59053 0.5242 0.94784 0.0
O39 O 0.61065 0.48811 -0.00459 0.0
C40 C 0.50109 0.44789 0.08591 0.0
C41 C 0.61598 0.51302 0.95538 0.0
C42 C 0.10157 0.6104 0.415 0.0
C43 C 0.03855 0.49279 0.5406 0.0
O44 O 0.12347 0.61069 0.45703 0.0
Zn45 Zn 0.11977 0.57522 0.53028 0.0
O46 O 0.06614 0.58248 0.4121 0.0
Zn47 Zn 0.06661 0.55108 0.4787 0.0
O48 O 0.0652 0.58128 0.55613 0.0
O49 O 0.12253 0.60563 0.6009 0.0
O50 O 0.02202 0.49922 0.49703 0.0
O51 O 0.07354 0.51832 0.55579 0.0
O52 O 0.1605 0.56188 0.51034 0.0
O53 O 0.10839 0.53386 0.452 0.0
C54 C 0.08772 0.60029 0.59918 0.0
C55 C 0.14227 0.53943 0.46702 0.0
C56 C 0.56652 0.98718 0.0424 0.0
C57 C 0.50266 0.03444 0.90507 0.0
O58 O 0.5767 0.02355 0.05001 0.0
Zn59 Zn 0.56459 0.06658 0.01114 0.0
O60 O 0.54386 0.96785 3e-05 0.0
Zn61 Zn 0.53664 1.00986 0.96812 0.0
O62 O 0.59249 0.05153 0.93185 0.0
O63 O 0.61461 0.10758 0.98086 0.0
O64 O 0.4996 1.00042 0.9044 0.0
O65 O 0.52625 0.06058 0.94123 0.0
O66 O 0.53701 0.07669 0.07482 0.0
O67 O 0.5046 0.01655 0.03765 0.0
C68 C 0.61881 0.08763 0.94 0.0
C69 C 0.50666 0.04246 0.0741 0.0
C70 C 0.6236 0.52136 0.5658 0.0
C71 C 0.51719 0.45941 0.42127 0.0
O72 O 0.59672 0.53078 0.57204 0.0
Zn73 Zn 0.54263 0.51823 0.53123 0.0
O74 O 0.62152 0.49904 0.52341 0.0
Zn75 Zn 0.57238 0.49063 0.4892 0.0
O76 O 0.58472 0.54616 0.45165 0.0
O77 O 0.55051 0.56798 0.50103 0.0
O78 O 0.54708 0.45457 0.42292 0.0
O79 O 0.51372 0.48219 0.45816 0.0
O80 O 0.503 0.48878 0.59104 0.0
O81 O 0.53142 0.45645 0.55536 0.0
C82 C 0.57391 0.57196 0.45925 0.0
C83 C 0.50632 0.45796 0.58977 0.0
H84 H 0.42516 0.46013 0.29741 0.0
N85 N 0.38575 0.38226 0.26613 0.0
H86 H 0.48338 0.49267 0.35912 0.0
H87 H 0.41822 0.34801 0.32941 0.0
H88 H 0.47785 0.38121 0.39093 0.0
H89 H 0.42002 0.34595 0.21241 0.0
H90 H 0.47338 0.37581 0.1396 0.0
H91 H 0.40074 0.44515 0.19548 0.0
H92 H 0.45195 0.47361 0.12193 0.0
H93 H 0.3623 0.40909 0.3636 0.0
H94 H 0.32869 0.36664 0.18513 0.0
H95 H 0.31014 0.42526 0.36799 0.0
H96 H 0.27502 0.3816 0.19125 0.0
H97 H 0.20545 0.52612 0.30481 0.0
H98 H 0.19593 0.56682 0.3783 0.0
H99 H 0.12009 0.46255 0.47801 0.0
H100 H 0.12988 0.42184 0.40474 0.0
H101 H 0.08974 0.41776 0.27883 0.0
H102 H 0.06086 0.43553 0.19678 0.0
H103 H 0.17697 0.50683 0.12285 0.0
H104 H 0.2054 0.48977 0.20542 0.0
H105 H 0.24545 0.49438 0.32051 0.0
H106 H 0.29683 0.47666 0.31197 0.0
H107 H 0.21102 0.36003 0.25372 0.0
N108 N 0.1658 0.4453 0.30115 0.0
H109 H 0.15901 0.37746 0.26407 0.0
C110 C 0.41636 0.40119 0.31013 0.0
C111 C 0.43584 0.44238 0.31826 0.0
C112 C 0.46956 0.46107 0.35261 0.0
C113 C 0.48534 0.43941 0.37846 0.0
C114 C 0.46656 0.3985 0.37016 0.0
C115 C 0.43211 0.37951 0.33647 0.0
C116 C 0.40596 0.39294 0.20979 0.0
C117 C 0.42606 0.37321 0.19132 0.0
C118 C 0.45702 0.39061 0.15074 0.0
C119 C 0.46738 0.4274 0.12632 0.0
C120 C 0.44491 0.44533 0.14048 0.0
C121 C 0.41491 0.42862 0.18202 0.0
C122 C 0.35262 0.38979 0.27165 0.0
C123 C 0.34477 0.4041 0.32443 0.0
C124 C 0.31436 0.41307 0.32749 0.0
C125 C 0.28933 0.40595 0.27933 0.0
C126 C 0.29445 0.38824 0.22866 0.0
C127 C 0.32542 0.37996 0.22509 0.0
C128 C 0.16834 0.47073 0.34942 0.0
C129 C 0.1881 0.51211 0.34367 0.0
C130 C 0.1829 0.53543 0.38582 0.0
C131 C 0.15798 0.51777 0.43419 0.0
C132 C 0.14026 0.47684 0.44177 0.0
C133 C 0.14566 0.45359 0.39992 0.0
C134 C 0.14962 0.452 0.24807 0.0
C135 C 0.10876 0.43664 0.24421 0.0
C136 C 0.09233 0.44694 0.19748 0.0
C137 C 0.11651 0.47256 0.15315 0.0
C138 C 0.15735 0.48677 0.15596 0.0
C139 C 0.17378 0.47695 0.20315 0.0
C140 C 0.19778 0.43695 0.29383 0.0
C141 C 0.23726 0.46491 0.3062 0.0
C142 C 0.26683 0.45477 0.3013 0.0
C143 C 0.25792 0.41688 0.28255 0.0
C144 C 0.2188 0.38945 0.26818 0.0
C145 C 0.18909 0.39935 0.27421 0.0
H146 H 0.7191 0.08853 0.83015 0.0
N147 N 0.72945 0.14276 0.75095 0.0
H148 H 0.67125 0.06394 0.91146 0.0
H149 H 0.68341 0.17355 0.78713 0.0
H150 H 0.63779 0.15101 0.87077 0.0
H151 H 0.71071 0.18746 0.67949 0.0
H152 H 0.6667 0.1636 0.59353 0.0
H153 H 0.69778 0.07216 0.70139 0.0
H154 H 0.65333 0.0479 0.61683 0.0
H155 H 0.7957 0.14803 0.71129 0.0
H156 H 0.74947 0.21774 0.78815 0.0
H157 H 0.86106 0.20636 0.70706 0.0
H158 H 0.81455 0.27516 0.78794 0.0
H159 H 0.07519 0.41769 0.74587 0.0
H160 H 0.11228 0.46058 0.82906 0.0
H161 H 1.00321 0.44233 0.90493 0.0
H162 H 0.96704 0.40129 0.82191 0.0
H163 H 0.98032 0.44277 0.71765 0.0
H164 H 0.99328 0.48643 0.63357 0.0
H165 H 0.0419 0.42518 0.53757 0.0
H166 H 0.02595 0.37914 0.62036 0.0
H167 H 0.98107 0.30979 0.74988 0.0
H168 H 0.91616 0.25117 0.76054 0.0
H169 H 0.86181 0.32239 0.72805 0.0
N170 N 0.99785 0.38318 0.72558 0.0
H171 H 0.92585 0.38034 0.72187 0.0
C172 C 0.70569 0.1335 0.80351 0.0
C173 C 0.70208 0.10286 0.83967 0.0
C174 C 0.67488 0.08891 0.88594 0.0
C175 C 0.65165 0.10625 0.89789 0.0
C176 C 0.65625 0.13798 0.8633 0.0
C177 C 0.68248 0.151 0.81569 0.0
C178 C 0.70753 0.13144 0.69663 0.0
C179 C 0.69898 0.15725 0.66513 0.0
C180 C 0.67397 0.14362 0.61594 0.0
C181 C 0.65657 0.10387 0.59849 0.0
C182 C 0.66623 0.07865 0.62918 0.0
C183 C 0.69161 0.0924 0.67741 0.0
C184 C 0.76754 0.17806 0.75036 0.0
C185 C 0.79975 0.17582 0.72791 0.0
C186 C 0.83722 0.2092 0.72613 0.0
C187 C 0.84349 0.24576 0.74747 0.0
C188 C 0.81104 0.24785 0.7702 0.0
C189 C 0.77347 0.21458 0.77098 0.0
C190 C 1.01821 0.40559 0.77764 0.0
C191 C 0.05938 0.4227 0.78096 0.0
C192 C 0.08056 0.44722 0.82838 0.0
C193 C 0.0608 0.45458 0.87407 0.0
C194 C 1.01948 0.43687 0.87108 0.0
C195 C 0.99853 0.41315 0.82329 0.0
C196 C 1.00192 0.40733 0.67508 0.0
C197 C 0.99209 0.43745 0.67768 0.0
C198 C 0.99932 0.46231 0.62956 0.0
C199 C 1.01769 0.45844 0.57892 0.0
C200 C 0.02641 0.42773 0.57546 0.0
C201 C 1.01798 0.40198 0.62294 0.0
C202 C 0.95888 0.34961 0.73415 0.0
C203 C 0.95505 0.31265 0.74568 0.0
C204 C 0.91783 0.2791 0.75114 0.0
C205 C 0.88337 0.28168 0.74459 0.0
C206 C 0.88737 0.31898 0.73418 0.0
C207 C 0.92449 0.35249 0.72971 0.0
H208 H 0.54781 0.88724 0.31209 0.0
N209 N 0.61129 0.92678 0.23863 0.0
H210 H 0.53349 0.91393 0.40088 0.0
H211 H 0.65541 0.99709 0.28721 0.0
H212 H 0.64077 0.02435 0.37475 0.0
H213 H 0.65875 0.97741 0.15815 0.0
H214 H 0.64024 1.00398 0.07351 0.0
H215 H 0.53631 0.90404 0.2022 0.0
H216 H 0.51776 0.92839 0.1155 0.0
H217 H 0.54859 0.85328 0.21424 0.0
H218 H 0.67037 0.91496 0.26654 0.0
H219 H 0.54853 0.79109 0.21628 0.0
H220 H 0.67018 0.85236 0.27168 0.0
H221 H 0.53769 0.61976 0.29989 0.0
H222 H 0.52259 0.58038 0.38986 0.0
H223 H 0.6465 0.62769 0.42143 0.0
H224 H 0.66163 0.66949 0.33345 0.0
H225 H 0.65107 0.6381 0.2089 0.0
H226 H 0.63254 0.59285 0.12495 0.0
H227 H 0.52794 0.60175 0.09997 0.0
H228 H 0.54597 0.64596 0.1855 0.0
H229 H 0.54939 0.68205 0.28375 0.0
H230 H 0.54958 0.74424 0.28011 0.0
H231 H 0.66876 0.80152 0.21351 0.0
N232 N 0.611 0.66976 0.2558 0.0
H233 H 0.66885 0.7391 0.22032 0.0
C234 C 0.6029 0.94026 0.29313 0.0
C235 C 0.56865 0.91685 0.32619 0.0
C236 C 0.56062 0.93206 0.37717 0.0
C237 C 0.58618 0.97114 0.39502 0.0
C238 C 0.62064 0.99408 0.36234 0.0
C239 C 0.62899 0.97866 0.31227 0.0
C240 C 0.59904 0.93805 0.18567 0.0
C241 C 0.62792 0.96607 0.14838 0.0
C242 C 0.61738 0.98109 0.10014 0.0
C243 C 0.57763 0.96738 0.08737 0.0
C244 C 0.54858 0.93845 0.12355 0.0
C245 C 0.55917 0.9244 0.17296 0.0
C246 C 0.60984 0.88914 0.23942 0.0
C247 C 0.57543 0.85362 0.2261 0.0
C248 C 0.57531 0.81776 0.228 0.0
C249 C 0.60938 0.81646 0.24405 0.0
C250 C 0.64358 0.8521 0.25796 0.0
C251 C 0.64374 0.88794 0.25547 0.0
C252 C 0.60094 0.64859 0.31089 0.0
C253 C 0.56166 0.62327 0.32758 0.0
C254 C 0.55305 0.60066 0.37892 0.0
C255 C 0.58346 0.60183 0.41313 0.0
C256 C 0.62264 0.62703 0.39646 0.0
C257 C 0.63125 0.65068 0.34627 0.0
C258 C 0.60018 0.64559 0.20341 0.0
C259 C 0.62435 0.63057 0.18495 0.0
C260 C 0.61377 0.60484 0.13697 0.0
C261 C 0.57899 0.59409 0.10556 0.0
C262 C 0.55524 0.61007 0.12276 0.0
C263 C 0.56545 0.63521 0.17184 0.0
C264 C 0.60951 0.70592 0.25317 0.0
C265 C 0.57576 0.70787 0.26901 0.0
C266 C 0.57575 0.74364 0.26617 0.0
C267 C 0.60924 0.77819 0.24667 0.0
C268 C 0.64268 0.77586 0.22991 0.0
C269 C 0.64276 0.74016 0.23334 0.0
H270 H 0.06287 0.65564 0.86888 0.0
N271 N 1.0037 0.61733 0.79453 0.0
H272 H 0.08051 0.62814 0.95254 0.0
H273 H 0.957 0.54398 0.84371 0.0
H274 H 0.97432 0.51673 0.92805 0.0
H275 H 1.00449 0.5506 0.75851 0.0
H276 H 0.04319 0.54546 0.67813 0.0
H277 H 0.05112 0.67385 0.71943 0.0
H278 H 0.08909 0.66807 0.63661 0.0
H279 H 0.97324 0.66043 0.83351 0.0
H280 H 0.94428 0.55587 0.7327 0.0
H281 H 0.90553 0.64692 0.82452 0.0
H282 H 0.87691 0.54287 0.72143 0.0
H283 H 0.70732 0.60783 0.83047 0.0
H284 H 0.66011 0.58695 0.91215 0.0
H285 H 0.64472 0.46984 0.90158 0.0
H286 H 0.69032 0.49039 0.81766 0.0
H287 H 0.70211 0.49813 0.69462 0.0
H288 H 0.65943 0.48124 0.60751 0.0
H289 H 0.65621 0.58947 0.62858 0.0
H290 H 0.69991 0.6067 0.7139 0.0
H291 H 0.79053 0.63236 0.75707 0.0
H292 H 0.85874 0.64629 0.75826 0.0
H293 H 0.81772 0.52169 0.77623 0.0
N294 N 0.72557 0.56267 0.76505 0.0
H295 H 0.74981 0.50821 0.77239 0.0
C296 C 1.00895 0.60207 0.84965 0.0
C297 C 0.0428 0.6257 0.88264 0.0
C298 C 0.05262 0.61006 0.9306 0.0
C299 C 0.02841 0.57055 0.94705 0.0
C300 C 0.99289 0.54756 0.91709 0.0
C301 C 0.98326 0.5631 0.86842 0.0
C302 C 0.02475 0.61278 0.74524 0.0
C303 C 0.02295 0.5766 0.73279 0.0
C304 C 0.04517 0.57364 0.68687 0.0
C305 C 0.06931 0.60644 0.65188 0.0
C306 C 0.07121 0.64259 0.6638 0.0
C307 C 0.04921 0.64572 0.71043 0.0
C308 C 0.96416 0.60963 0.78344 0.0
C309 C 0.95239 0.63495 0.80848 0.0
C310 C 0.91365 0.6272 0.80303 0.0
C311 C 0.88557 0.59382 0.772 0.0
C312 C 0.89752 0.5686 0.7462 0.0
C313 C 0.93633 0.57629 0.75202 0.0
C314 C 0.70271 0.5509 0.81848 0.0
C315 C 0.69435 0.57789 0.84658 0.0
C316 C 0.66748 0.56595 0.89315 0.0
C317 C 0.64919 0.52693 0.91354 0.0
C318 C 0.65908 0.5003 0.88746 0.0
C319 C 0.68518 0.51203 0.83957 0.0
C320 C 0.70426 0.55382 0.71043 0.0
C321 C 0.69308 0.51865 0.67942 0.0
C322 C 0.6688 0.5091 0.62962 0.0
C323 C 0.65459 0.53411 0.61127 0.0
C324 C 0.66675 0.56969 0.64163 0.0
C325 C 0.69163 0.57956 0.69031 0.0
C326 C 0.7652 0.56945 0.76526 0.0
C327 C 0.79644 0.60815 0.76104 0.0
C328 C 0.83537 0.616 0.76212 0.0
C329 C 0.84394 0.58516 0.76786 0.0
C330 C 0.81237 0.54618 0.77117 0.0
C331 C 0.77338 0.53839 0.76964 0.0
H332 H 0.20961 0.70898 0.31744 0.0
N333 N 0.17251 0.71485 0.21841 0.0
H334 H 0.17897 0.66513 0.40018 0.0
H335 H 0.09585 0.66826 0.23839 0.0
H336 H 0.0646 0.62308 0.32139 0.0
H337 H 0.14326 0.7074 0.11079 0.0
H338 H 0.13479 0.65797 0.03678 0.0
H339 H 0.2098 0.67108 0.2191 0.0
H340 H 0.20069 0.62107 0.14548 0.0
H341 H 0.25131 0.7438 0.23725 0.0
H342 H 0.16292 0.7775 0.21232 0.0
H343 H 0.30147 0.81326 0.24981 0.0
H344 H 0.21333 0.84728 0.22262 0.0
H345 H 0.42806 0.95714 0.28149 0.0
H346 H 0.48483 0.98113 0.34574 0.0
H347 H 0.47676 0.08499 0.38515 0.0
H348 H 0.41835 0.06011 0.32113 0.0
H349 H 0.42927 0.06826 0.20269 0.0
H350 H 0.48321 0.08969 0.13107 0.0
H351 H 0.4543 0.96849 0.10752 0.0
H352 H 0.40239 0.94763 0.17939 0.0
H353 H 0.36462 0.93761 0.33782 0.0
H354 H 0.31261 0.86981 0.32832 0.0
H355 H 0.27746 0.89678 0.16312 0.0
N356 N 0.38915 0.99653 0.25128 0.0
H357 H 0.33131 0.96492 0.17035 0.0
C358 C 0.15503 0.69245 0.27151 0.0
C359 C 0.17795 0.69125 0.31817 0.0
C360 C 0.16021 0.66584 0.36578 0.0
C361 C 0.1192 0.64044 0.3676 0.0
C362 C 0.0962 0.64226 0.32157 0.0
C363 C 0.11399 0.66811 0.27421 0.0
C364 C 0.17667 0.69269 0.17063 0.0
C365 C 0.1574 0.6899 0.11745 0.0
C366 C 0.15288 0.66193 0.07506 0.0
C367 C 0.16779 0.63637 0.08505 0.0
C368 C 0.18994 0.64124 0.13609 0.0
C369 C 0.19473 0.66952 0.17845 0.0
C370 C 0.20313 0.75542 0.22477 0.0
C371 C 0.24262 0.76607 0.23476 0.0
C372 C 0.27127 0.80578 0.24185 0.0
C373 C 0.26121 0.83561 0.2375 0.0
C374 C 0.2219 0.82492 0.22617 0.0
C375 C 0.19315 0.78519 0.2204 0.0
C376 C 0.41772 1.00611 0.29797 0.0
C377 C 0.43761 0.98458 0.30487 0.0
C378 C 0.4706 0.99871 0.34063 0.0
C379 C 0.48544 0.03522 0.3691 0.0
C380 C 0.46618 0.05712 0.36244 0.0
C381 C 0.43236 0.04246 0.32736 0.0
C382 C 0.41132 1.00633 0.19665 0.0
C383 C 0.43394 0.04629 0.18065 0.0
C384 C 0.46517 0.0586 0.14076 0.0
C385 C 0.47342 0.03088 0.11487 0.0
C386 C 0.44887 0.99067 0.12717 0.0
C387 C 0.4185 0.97853 0.16778 0.0
C388 C 0.35479 0.95671 0.25207 0.0
C389 C 0.34708 0.92946 0.2982 0.0
C390 C 0.31671 0.89033 0.29337 0.0
C391 C 0.29181 0.87774 0.24415 0.0
C392 C 0.29672 0.90552 0.20107 0.0
C393 C 0.32762 0.94449 0.2052 0.0
H394 H 0.39203 1.00701 0.67451 0.0
N395 N 0.41874 0.07295 0.73808 0.0
H396 H 0.43149 0.98796 0.61243 0.0
H397 H 0.49267 0.12311 0.69592 0.0
H398 H 0.53126 0.10484 0.63254 0.0
H399 H 0.48271 0.12512 0.80277 0.0
H400 H 0.51958 0.10747 0.87012 0.0
H401 H 0.39311 1.00278 0.78904 0.0
H402 H 0.43098 0.9847 0.85537 0.0
H403 H 0.43329 0.1257 0.64641 0.0
H404 H 0.39571 0.10252 0.82811 0.0
H405 H 0.43289 0.18715 0.65083 0.0
H406 H 0.39237 0.16294 0.8311 0.0
H407 H 0.393 0.37747 0.69676 0.0
H408 H 0.43275 0.43468 0.63381 0.0
H409 H 0.52258 0.40133 0.62485 0.0
H410 H 0.48382 0.34555 0.68896 0.0
H411 H 0.48989 0.35463 0.79649 0.0
H412 H 0.52606 0.40935 0.86404 0.0
H413 H 0.42598 0.42718 0.8773 0.0
H414 H 0.38884 0.37074 0.81098 0.0
H415 H 0.39898 0.28204 0.65662 0.0
H416 H 0.39633 0.21862 0.65316 0.0
H417 H 0.42843 0.23057 0.83709 0.0
N418 N 0.41752 0.33232 0.7491 0.0
H419 H 0.42812 0.29205 0.84166 0.0
C420 C 0.43886 0.0667 0.68906 0.0
C421 C 0.42213 0.02875 0.66423 0.0
C422 C 0.44487 0.01762 0.63008 0.0
C423 C 0.48452 0.0447 0.61891 0.0
C424 C 0.50078 0.08325 0.64102 0.0
C425 C 0.47848 0.094 0.67635 0.0
C426 C 0.43472 0.06526 0.79077 0.0
C427 C 0.47029 0.09456 0.8155 0.0
C428 C 0.49177 0.08429 0.85328 0.0
C429 C 0.47867 0.04455 0.86652 0.0
C430 C 0.4422 0.01546 0.8447 0.0
C431 C 0.42019 0.02585 0.80791 0.0
C432 C 0.41781 0.11006 0.73869 0.0
C433 C 0.42576 0.13382 0.688 0.0
C434 C 0.42457 0.16908 0.69003 0.0
C435 C 0.41347 0.18105 0.74179 0.0
C436 C 0.40273 0.15597 0.79106 0.0
C437 C 0.40457 0.12104 0.78934 0.0
C438 C 0.43508 0.35692 0.69773 0.0
C439 C 0.4208 0.38195 0.67983 0.0
C440 C 0.44384 0.41505 0.64499 0.0
C441 C 0.48114 0.42299 0.62586 0.0
C442 C 0.49411 0.39624 0.63965 0.0
C443 C 0.47159 0.3638 0.67555 0.0
C444 C 0.436 0.35766 0.79958 0.0
C445 C 0.47507 0.36925 0.81529 0.0
C446 C 0.49601 0.40108 0.85304 0.0
C447 C 0.479 0.42293 0.87462 0.0
C448 C 0.43993 0.41122 0.86015 0.0
C449 C 0.41849 0.37851 0.82354 0.0
C450 C 0.41694 0.29445 0.74807 0.0
C451 C 0.40618 0.27152 0.69616 0.0
C452 C 0.40471 0.23493 0.69417 0.0
C453 C 0.41329 0.21946 0.74438 0.0
C454 C 0.42183 0.2412 0.79716 0.0
C455 C 0.42263 0.27745 0.79939 0.0
loop_
_geom_bond_atom_site_label_1
_geom_bond_atom_site_label_2
_geom_bond_distance
_geom_bond_site_symmetry_2
_ccdc_geom_bond_type
C0 O2 1.247 . S
C0 O4 1.258 . S
C1 O8 1.247 1_554 S
C1 O9 1.258 . S
O2 C0 1.247 . S
O2 Zn3 2.028 1_455 S
Zn3 O2 2.028 1_655 S
Zn3 O7 2.035 . S
Zn3 O9 2.035 . S
Zn3 O10 2.028 1_655 S
O4 C0 1.258 . S
O4 Zn5 2.035 . S
Zn5 O4 2.035 . S
Zn5 O6 2.028 1_454 S
Zn5 O8 2.028 1_454 S
Zn5 O11 2.035 . S
O6 Zn5 2.028 1_656 S
O6 C12 1.247 1_556 S
O7 Zn3 2.035 . S
O7 C12 1.258 . S
O8 C1 1.247 1_556 S
O8 Zn5 2.028 1_656 S
O9 C1 1.258 . S
O9 Zn3 2.035 . S
O10 Zn3 2.028 1_455 S
O10 C13 1.247 . S
O11 Zn5 2.035 . S
O11 C13 1.258 . S
C12 O6 1.247 1_554 S
C12 O7 1.258 . S
C13 O10 1.247 . S
C13 O11 1.258 . S
C14 O16 1.247 . S
C14 O18 1.258 . S
C15 O22 1.247 . S
C15 O23 1.258 . S
O16 C14 1.247 . S
O16 Zn17 2.028 1_545 S
Zn17 O16 2.028 1_565 S
Zn17 O21 2.035 . S
Zn17 O23 2.035 . S
Zn17 O24 2.028 1_565 S
O18 C14 1.258 . S
O18 Zn19 2.035 . S
Zn19 O18 2.035 . S
Zn19 O20 2.028 1_545 S
Zn19 O22 2.028 1_545 S
Zn19 O25 2.035 . S
O20 Zn19 2.028 1_565 S
O20 C26 1.247 . S
O21 Zn17 2.035 . S
O21 C26 1.258 . S
O22 C15 1.247 . S
O22 Zn19 2.028 1_565 S
O23 C15 1.258 . S
O23 Zn17 2.035 . S
O24 Zn17 2.028 1_545 S
O24 C27 1.247 . S
O25 Zn19 2.035 . S
O25 C27 1.258 . S
C26 O20 1.247 . S
C26 O21 1.258 . S
C27 O24 1.247 . S
C27 O25 1.258 . S
C28 O30 1.247 . S
C28 O32 1.258 1_556 S
C29 O36 1.247 . S
C29 O37 1.258 . S
O30 C28 1.247 . S
O30 Zn31 2.028 . S
Zn31 O30 2.028 . S
Zn31 O35 2.035 1_556 S
Zn31 O37 2.035 1_556 S
Zn31 O38 2.028 . S
O32 C28 1.258 1_554 S
O32 Zn33 2.035 . S
Zn33 O32 2.035 . S
Zn33 O34 2.028 . S
Zn33 O36 2.028 . S
Zn33 O39 2.035 . S
O34 Zn33 2.028 . S
O34 C40 1.247 . S
O35 Zn31 2.035 1_554 S
O35 C40 1.258 . S
O36 C29 1.247 . S
O36 Zn33 2.028 . S
O37 C29 1.258 . S
O37 Zn31 2.035 1_554 S
O38 Zn31 2.028 . S
O38 C41 1.247 . S
O39 Zn33 2.035 . S
O39 C41 1.258 1_554 S
C40 O34 1.247 . S
C40 O35 1.258 . S
C41 O38 1.247 . S
C41 O39 1.258 1_556 S
C42 O44 1.247 . S
C42 O46 1.258 . S
C43 O50 1.247 . S
C43 O51 1.258 . S
O44 C42 1.247 . S
O44 Zn45 2.028 . S
Zn45 O44 2.028 . S
Zn45 O49 2.035 . S
Zn45 O51 2.035 . S
Zn45 O52 2.028 . S
O46 C42 1.258 . S
O46 Zn47 2.035 . S
Zn47 O46 2.035 . S
Zn47 O48 2.028 . S
Zn47 O50 2.028 . S
Zn47 O53 2.035 . S
O48 Zn47 2.028 . S
O48 C54 1.247 . S
O49 Zn45 2.035 . S
O49 C54 1.258 . S
O50 C43 1.247 . S
O50 Zn47 2.028 . S
O51 C43 1.258 . S
O51 Zn45 2.035 . S
O52 Zn45 2.028 . S
O52 C55 1.247 . S
O53 Zn47 2.035 . S
O53 C55 1.258 . S
C54 O48 1.247 . S
C54 O49 1.258 . S
C55 O52 1.247 . S
C55 O53 1.258 . S
C56 O58 1.247 1_565 S
C56 O60 1.258 . S
C57 O64 1.247 . S
C57 O65 1.258 1_556 S
O58 C56 1.247 1_545 S
O58 Zn59 2.028 . S
Zn59 O58 2.028 . S
Zn59 O63 2.035 . S
Zn59 O65 2.035 . S
Zn59 O66 2.028 . S
O60 C56 1.258 . S
O60 Zn61 2.035 1_554 S
Zn61 O60 2.035 1_556 S
Zn61 O62 2.028 1_565 S
Zn61 O64 2.028 1_565 S
Zn61 O67 2.035 1_556 S
O62 Zn61 2.028 1_545 S
O62 C68 1.247 . S
O63 Zn59 2.035 . S
O63 C68 1.258 1_554 S
O64 C57 1.247 . S
O64 Zn61 2.028 1_545 S
O65 C57 1.258 1_554 S
O65 Zn59 2.035 . S
O66 Zn59 2.028 . S
O66 C69 1.247 1_545 S
O67 Zn61 2.035 1_554 S
O67 C69 1.258 . S
C68 O62 1.247 . S
C68 O63 1.258 1_556 S
C69 O66 1.247 1_565 S
C69 O67 1.258 . S
C70 O72 1.247 . S
C70 O74 1.258 . S
C71 O78 1.247 . S
C71 O79 1.258 . S
O72 C70 1.247 . S
O72 Zn73 2.028 . S
Zn73 O72 2.028 . S
Zn73 O77 2.035 . S
Zn73 O79 2.035 . S
Zn73 O80 2.028 . S
O74 C70 1.258 . S
O74 Zn75 2.035 . S
Zn75 O74 2.035 . S
Zn75 O76 2.028 . S
Zn75 O78 2.028 . S
Zn75 O81 2.035 . S
O76 Zn75 2.028 . S
O76 C82 1.247 . S
O77 Zn73 2.035 . S
O77 C82 1.258 . S
O78 C71 1.247 . S
O78 Zn75 2.028 . S
O79 C71 1.258 . S
O79 Zn73 2.035 . S
O80 Zn73 2.028 . S
O80 C83 1.247 . S
O81 Zn75 2.035 . S
O81 C83 1.258 . S
C82 O76 1.247 . S
C82 O77 1.258 . S
C83 O80 1.247 . S
C83 O81 1.258 . S
H84 C111 0.929 . S
N85 C110 1.433 . S
N85 C116 1.435 . S
N85 C122 1.423 . S
H86 C112 0.930 . S
H87 C115 0.931 . S
H88 C114 0.929 . S
H89 C117 0.930 . S
H90 C118 0.932 . S
H91 C121 0.929 . S
H92 C120 0.931 . S
H93 C123 0.929 . S
H94 C127 0.932 . S
H95 C124 0.931 . S
H96 C126 0.929 . S
H97 C129 0.929 . S
H98 C130 0.930 . S
H99 C132 0.929 . S
H100 C133 0.931 . S
H101 C135 0.930 . S
H102 C136 0.932 . S
H103 C138 0.931 . S
H104 C139 0.929 . S
H105 C141 0.929 . S
H106 C142 0.931 . S
H107 C144 0.929 . S
N108 C128 1.433 . S
N108 C134 1.435 . S
N108 C140 1.423 . S
H109 C145 0.932 . S
C110 N85 1.433 . S
C110 C111 1.363 . S
C110 C115 1.370 . S
C111 H84 0.929 . S
C111 C110 1.363 . S
C111 C112 1.385 . S
C112 H86 0.930 . S
C112 C111 1.385 . S
C112 C113 1.357 . S
C113 C112 1.357 . S
C113 C114 1.406 . S
C114 H88 0.929 . S
C114 C113 1.406 . S
C114 C115 1.391 . S
C115 H87 0.931 . S
C115 C110 1.370 . S
C115 C114 1.391 . S
C116 N85 1.435 . S
C116 C117 1.358 . S
C116 C121 1.371 . S
C117 H89 0.930 . S
C117 C116 1.358 . S
C117 C118 1.405 . S
C118 H90 0.932 . S
C118 C117 1.405 . S
C118 C119 1.383 . S
C119 C118 1.383 . S
C119 C120 1.393 . S
C120 H92 0.931 . S
C120 C119 1.393 . S
C120 C121 1.382 . S
C121 H91 0.929 . S
C121 C116 1.371 . S
C121 C120 1.382 . S
C122 N85 1.423 . S
C122 C123 1.362 . S
C122 C127 1.388 . S
C123 H93 0.929 . S
C123 C122 1.362 . S
C123 C124 1.376 . S
C124 H95 0.931 . S
C124 C123 1.376 . S
C124 C125 1.396 . S
C125 C124 1.396 . S
C125 C126 1.348 . S
C125 C143 1.472 . S
C126 H96 0.929 . S
C126 C125 1.348 . S
C126 C127 1.443 . S
C127 H94 0.932 . S
C127 C122 1.388 . S
C127 C126 1.443 . S
C128 N108 1.433 . S
C128 C129 1.363 . S
C128 C133 1.370 . S
C129 H97 0.929 . S
C129 C128 1.363 . S
C129 C130 1.385 . S
C130 H98 0.930 . S
C130 C129 1.385 . S
C130 C131 1.357 . S
C131 C130 1.357 . S
C131 C132 1.406 . S
C132 H99 0.929 . S
C132 C131 1.406 . S
C132 C133 1.391 . S
C133 H100 0.931 . S
C133 C128 1.370 . S
C133 C132 1.391 . S
C134 N108 1.435 . S
C134 C135 1.358 . S
C134 C139 1.371 . S
C135 H101 0.930 . S
C135 C134 1.358 . S
C135 C136 1.405 . S
C136 H102 0.932 . S
C136 C135 1.405 . S
C136 C137 1.383 . S
C137 C136 1.383 . S
C137 C138 1.393 . S
C138 H103 0.931 . S
C138 C137 1.393 . S
C138 C139 1.382 . S
C139 H104 0.929 . S
C139 C134 1.371 . S
C139 C138 1.382 . S
C140 N108 1.423 . S
C140 C141 1.362 . S
C140 C145 1.388 . S
C141 H105 0.929 . S
C141 C140 1.362 . S
C141 C142 1.376 . S
C142 H106 0.931 . S
C142 C141 1.376 . S
C142 C143 1.396 . S
C143 C125 1.472 . S
C143 C142 1.396 . S
C143 C144 1.348 . S
C144 H107 0.929 . S
C144 C143 1.348 . S
C144 C145 1.443 . S
C145 H109 0.932 . S
C145 C140 1.388 . S
C145 C144 1.443 . S
H146 C173 0.929 . S
N147 C172 1.433 . S
N147 C178 1.435 . S
N147 C184 1.423 . S
H148 C174 0.921 1_565 S
H149 C177 0.931 . S
H150 C176 0.929 . S
H151 C179 0.930 . S
H152 C180 0.932 . S
H153 C183 0.929 . S
H154 C182 0.931 . S
H155 C185 0.929 . S
H156 C189 0.932 . S
H157 C186 0.931 . S
H158 C188 0.929 . S
H159 C191 0.929 . S
H160 C192 0.930 . S
H161 C194 0.929 . S
H162 C195 0.931 . S
H163 C197 0.930 . S
H164 C198 0.932 . S
H165 C200 0.931 . S
H166 C201 0.929 . S
H167 C203 0.929 . S
H168 C204 0.931 . S
H169 C206 0.929 . S
N170 C190 1.433 . S
N170 C196 1.435 . S
N170 C202 1.423 . S
H171 C207 0.932 . S
C172 N147 1.433 . S
C172 C173 1.363 . S
C172 C177 1.370 . S
C173 H146 0.929 . S
C173 C172 1.363 . S
C173 C174 1.385 . S
C174 H148 0.921 1_545 S
C174 C173 1.385 . S
C174 C175 1.357 . S
C175 C174 1.357 . S
C175 C176 1.406 . S
C176 H150 0.929 . S
C176 C175 1.406 . S
C176 C177 1.391 . S
C177 H149 0.931 . S
C177 C172 1.370 . S
C177 C176 1.391 . S
C178 N147 1.435 . S
C178 C179 1.358 . S
C178 C183 1.371 . S
C179 H151 0.930 . S
C179 C178 1.358 . S
C179 C180 1.405 . S
C180 H152 0.932 . S
C180 C179 1.405 . S
C180 C181 1.383 . S
C181 C180 1.383 . S
C181 C182 1.393 . S
C182 H154 0.931 . S
C182 C181 1.393 . S
C182 C183 1.382 . S
C183 H153 0.929 . S
C183 C178 1.371 . S
C183 C182 1.382 . S
C184 N147 1.423 . S
C184 C185 1.362 . S
C184 C189 1.388 . S
C185 H155 0.929 . S
C185 C184 1.362 . S
C185 C186 1.376 . S
C186 H157 0.931 . S
C186 C185 1.376 . S
C186 C187 1.396 . S
C187 C186 1.396 . S
C187 C188 1.348 . S
C187 C205 1.472 . S
C188 H158 0.929 . S
C188 C187 1.348 . S
C188 C189 1.443 . S
C189 H156 0.932 . S
C189 C184 1.388 . S
C189 C188 1.443 . S
C190 N170 1.433 . S
C190 C191 1.363 1_655 S
C190 C195 1.370 . S
C191 H159 0.929 . S
C191 C190 1.363 1_455 S
C191 C192 1.385 . S
C192 H160 0.930 . S
C192 C191 1.385 . S
C192 C193 1.357 1_455 S
C193 C192 1.357 1_655 S
C193 C194 1.406 . S
C194 H161 0.929 . S
C194 C193 1.406 . S
C194 C195 1.391 . S
C195 H162 0.931 . S
C195 C190 1.370 . S
C195 C194 1.391 . S
C196 N170 1.435 . S
C196 C197 1.358 . S
C196 C201 1.371 . S
C197 H163 0.930 . S
C197 C196 1.358 . S
C197 C198 1.405 1_655 S
C198 H164 0.932 . S
C198 C197 1.405 1_455 S
C198 C199 1.383 . S
C199 C198 1.383 . S
C199 C200 1.393 . S
C200 H165 0.931 . S
C200 C199 1.393 . S
C200 C201 1.382 1_455 S
C201 H166 0.929 . S
C201 C196 1.371 . S
C201 C200 1.382 1_655 S
C202 N170 1.423 . S
C202 C203 1.362 . S
C202 C207 1.388 . S
C203 H167 0.929 . S
C203 C202 1.362 . S
C203 C204 1.376 . S
C204 H168 0.931 . S
C204 C203 1.376 . S
C204 C205 1.396 . S
C205 C187 1.472 . S
C205 C204 1.396 . S
C205 C206 1.348 . S
C206 H169 0.929 . S
C206 C205 1.348 . S
C206 C207 1.443 . S
C207 H171 0.932 . S
C207 C202 1.388 . S
C207 C206 1.443 . S
H208 C235 0.929 . S
N209 C234 1.433 . S
N209 C240 1.435 . S
N209 C246 1.423 . S
H210 C236 0.930 . S
H211 C239 0.931 . S
H212 C238 0.929 . S
H213 C241 0.930 . S
H214 C242 0.932 . S
H215 C245 0.929 . S
H216 C244 0.931 . S
H217 C247 0.929 . S
H218 C251 0.932 . S
H219 C248 0.931 . S
H220 C250 0.929 . S
H221 C253 0.929 . S
H222 C254 0.930 . S
H223 C256 0.929 . S
H224 C257 0.931 . S
H225 C259 0.930 . S
H226 C260 0.932 . S
H227 C262 0.931 . S
H228 C263 0.929 . S
H229 C265 0.929 . S
H230 C266 0.931 . S
H231 C268 0.929 . S
N232 C252 1.433 . S
N232 C258 1.435 . S
N232 C264 1.423 . S
H233 C269 0.932 . S
C234 N209 1.433 . S
C234 C235 1.363 . S
C234 C239 1.370 . S
C235 H208 0.929 . S
C235 C234 1.363 . S
C235 C236 1.385 . S
C236 H210 0.930 . S
C236 C235 1.385 . S
C236 C237 1.357 . S
C237 C236 1.357 . S
C237 C238 1.406 . S
C238 H212 0.929 . S
C238 C237 1.406 . S
C238 C239 1.391 . S
C239 H211 0.931 . S
C239 C234 1.370 . S
C239 C238 1.391 . S
C240 N209 1.435 . S
C240 C241 1.358 . S
C240 C245 1.371 . S
C241 H213 0.930 . S
C241 C240 1.358 . S
C241 C242 1.405 1_565 S
C242 H214 0.932 . S
C242 C241 1.405 1_545 S
C242 C243 1.383 1_545 S
C243 C242 1.383 1_565 S
C243 C244 1.393 . S
C244 H216 0.931 . S
C244 C243 1.393 . S
C244 C245 1.382 . S
C245 H215 0.929 . S
C245 C240 1.371 . S
C245 C244 1.382 . S
C246 N209 1.423 . S
C246 C247 1.362 . S
C246 C251 1.388 . S
C247 H217 0.929 . S
C247 C246 1.362 . S
C247 C248 1.376 . S
C248 H219 0.931 . S
C248 C247 1.376 . S
C248 C249 1.396 . S
C249 C248 1.396 . S
C249 C250 1.348 . S
C249 C267 1.472 . S
C250 H220 0.929 . S
C250 C249 1.348 . S
C250 C251 1.443 . S
C251 H218 0.932 . S
C251 C246 1.388 . S
C251 C250 1.443 . S
C252 N232 1.433 . S
C252 C253 1.363 . S
C252 C257 1.370 . S
C253 H221 0.929 . S
C253 C252 1.363 . S
C253 C254 1.385 . S
C254 H222 0.930 . S
C254 C253 1.385 . S
C254 C255 1.357 . S
C255 C254 1.357 . S
C255 C256 1.406 . S
C256 H223 0.929 . S
C256 C255 1.406 . S
C256 C257 1.391 . S
C257 H224 0.931 . S
C257 C252 1.370 . S
C257 C256 1.391 . S
C258 N232 1.435 . S
C258 C259 1.358 . S
C258 C263 1.371 . S
C259 H225 0.930 . S
C259 C258 1.358 . S
C259 C260 1.405 . S
C260 H226 0.932 . S
C260 C259 1.405 . S
C260 C261 1.383 . S
C261 C260 1.383 . S
C261 C262 1.393 . S
C262 H227 0.931 . S
C262 C261 1.393 . S
C262 C263 1.382 . S
C263 H228 0.929 . S
C263 C258 1.371 . S
C263 C262 1.382 . S
C264 N232 1.423 . S
C264 C265 1.362 . S
C264 C269 1.388 . S
C265 H229 0.929 . S
C265 C264 1.362 . S
C265 C266 1.376 . S
C266 H230 0.931 . S
C266 C265 1.376 . S
C266 C267 1.396 . S
C267 C249 1.472 . S
C267 C266 1.396 . S
C267 C268 1.348 . S
C268 H231 0.929 . S
C268 C267 1.348 . S
C268 C269 1.443 . S
C269 H233 0.932 . S
C269 C264 1.388 . S
C269 C268 1.443 . S
H270 C297 0.929 . S
N271 C296 1.433 . S
N271 C302 1.435 . S
N271 C308 1.423 . S
H272 C298 0.930 . S
H273 C301 0.931 . S
H274 C300 0.929 . S
H275 C303 0.930 . S
H276 C304 0.932 . S
H277 C307 0.929 . S
H278 C306 0.931 . S
H279 C309 0.929 . S
H280 C313 0.932 . S
H281 C310 0.931 . S
H282 C312 0.929 . S
H283 C315 0.929 . S
H284 C316 0.930 . S
H285 C318 0.929 . S
H286 C319 0.931 . S
H287 C321 0.930 . S
H288 C322 0.932 . S
H289 C324 0.931 . S
H290 C325 0.929 . S
H291 C327 0.929 . S
H292 C328 0.931 . S
H293 C330 0.929 . S
N294 C314 1.433 . S
N294 C320 1.435 . S
N294 C326 1.423 . S
H295 C331 0.932 . S
C296 N271 1.433 . S
C296 C297 1.363 1_655 S
C296 C301 1.370 . S
C297 H270 0.929 . S
C297 C296 1.363 1_455 S
C297 C298 1.385 . S
C298 H272 0.930 . S
C298 C297 1.385 . S
C298 C299 1.357 1_455 S
C299 C298 1.357 1_655 S
C299 C300 1.406 . S
C300 H274 0.929 . S
C300 C299 1.406 . S
C300 C301 1.391 . S
C301 H273 0.931 . S
C301 C296 1.370 . S
C301 C300 1.391 . S
C302 N271 1.435 . S
C302 C303 1.358 . S
C302 C307 1.371 . S
C303 H275 0.930 . S
C303 C302 1.358 . S
C303 C304 1.405 1_655 S
C304 H276 0.932 . S
C304 C303 1.405 1_455 S
C304 C305 1.383 . S
C305 C304 1.383 . S
C305 C306 1.393 . S
C306 H278 0.931 . S
C306 C305 1.393 . S
C306 C307 1.382 1_455 S
C307 H277 0.929 . S
C307 C302 1.371 . S
C307 C306 1.382 1_655 S
C308 N271 1.423 . S
C308 C309 1.362 . S
C308 C313 1.388 . S
C309 H279 0.929 . S
C309 C308 1.362 . S
C309 C310 1.376 . S
C310 H281 0.931 . S
C310 C309 1.376 . S
C310 C311 1.396 . S
C311 C310 1.396 . S
C311 C312 1.348 . S
C311 C329 1.472 . S
C312 H282 0.929 . S
C312 C311 1.348 . S
C312 C313 1.443 . S
C313 H280 0.932 . S
C313 C308 1.388 . S
C313 C312 1.443 . S
C314 N294 1.433 . S
C314 C315 1.363 . S
C314 C319 1.370 . S
C315 H283 0.929 . S
C315 C314 1.363 . S
C315 C316 1.385 . S
C316 H284 0.930 . S
C316 C315 1.385 . S
C316 C317 1.357 . S
C317 C316 1.357 . S
C317 C318 1.406 . S
C318 H285 0.929 . S
C318 C317 1.406 . S
C318 C319 1.391 . S
C319 H286 0.931 . S
C319 C314 1.370 . S
C319 C318 1.391 . S
C320 N294 1.435 . S
C320 C321 1.358 . S
C320 C325 1.371 . S
C321 H287 0.930 . S
C321 C320 1.358 . S
C321 C322 1.405 . S
C322 H288 0.932 . S
C322 C321 1.405 . S
C322 C323 1.383 . S
C323 C322 1.383 . S
C323 C324 1.393 . S
C324 H289 0.931 . S
C324 C323 1.393 . S
C324 C325 1.382 . S
C325 H290 0.929 . S
C325 C320 1.371 . S
C325 C324 1.382 . S
C326 N294 1.423 . S
C326 C327 1.362 . S
C326 C331 1.388 . S
C327 H291 0.929 . S
C327 C326 1.362 . S
C327 C328 1.376 . S
C328 H292 0.931 . S
C328 C327 1.376 . S
C328 C329 1.396 . S
C329 C311 1.472 . S
C329 C328 1.396 . S
C329 C330 1.348 . S
C330 H293 0.929 . S
C330 C329 1.348 . S
C330 C331 1.443 . S
C331 H295 0.932 . S
C331 C326 1.388 . S
C331 C330 1.443 . S
H332 C359 0.929 . S
N333 C358 1.433 . S
N333 C364 1.435 . S
N333 C370 1.423 . S
H334 C360 0.930 . S
H335 C363 0.931 . S
H336 C362 0.929 . S
H337 C365 0.930 . S
H338 C366 0.932 . S
H339 C369 0.929 . S
H340 C368 0.931 . S
H341 C371 0.929 . S
H342 C375 0.932 . S
H343 C372 0.931 . S
H344 C374 0.929 . S
H345 C377 0.929 . S
H346 C378 0.930 . S
H347 C380 0.929 . S
H348 C381 0.931 . S
H349 C383 0.930 . S
H350 C384 0.931 . S
H351 C386 0.931 . S
H352 C387 0.929 . S
H353 C389 0.929 . S
H354 C390 0.931 . S
H355 C392 0.929 . S
N356 C376 1.433 . S
N356 C382 1.435 . S
N356 C388 1.423 . S
H357 C393 0.932 . S
C358 N333 1.433 . S
C358 C359 1.363 . S
C358 C363 1.370 . S
C359 H332 0.929 . S
C359 C358 1.363 . S
C359 C360 1.385 . S
C360 H334 0.930 . S
C360 C359 1.385 . S
C360 C361 1.357 . S
C361 C360 1.357 . S
C361 C362 1.406 . S
C362 H336 0.929 . S
C362 C361 1.406 . S
C362 C363 1.391 . S
C363 H335 0.931 . S
C363 C358 1.370 . S
C363 C362 1.391 . S
C364 N333 1.435 . S
C364 C365 1.358 . S
C364 C369 1.371 . S
C365 H337 0.930 . S
C365 C364 1.358 . S
C365 C366 1.405 . S
C366 H338 0.932 . S
C366 C365 1.405 . S
C366 C367 1.383 . S
C367 C366 1.383 . S
C367 C368 1.393 . S
C368 H340 0.931 . S
C368 C367 1.393 . S
C368 C369 1.382 . S
C369 H339 0.929 . S
C369 C364 1.371 . S
C369 C368 1.382 . S
C370 N333 1.423 . S
C370 C371 1.362 . S
C370 C375 1.388 . S
C371 H341 0.929 . S
C371 C370 1.362 . S
C371 C372 1.376 . S
C372 H343 0.931 . S
C372 C371 1.376 . S
C372 C373 1.396 . S
C373 C372 1.396 . S
C373 C374 1.348 . S
C373 C391 1.472 . S
C374 H344 0.929 . S
C374 C373 1.348 . S
C374 C375 1.443 . S
C375 H342 0.932 . S
C375 C370 1.388 . S
C375 C374 1.443 . S
C376 N356 1.433 . S
C376 C377 1.363 . S
C376 C381 1.370 . S
C377 H345 0.929 . S
C377 C376 1.363 . S
C377 C378 1.385 . S
C378 H346 0.930 . S
C378 C377 1.385 . S
C378 C379 1.357 . S
C379 C378 1.357 . S
C379 C380 1.406 . S
C380 H347 0.929 . S
C380 C379 1.406 . S
C380 C381 1.391 . S
C381 H348 0.931 . S
C381 C376 1.370 . S
C381 C380 1.391 . S
C382 N356 1.435 . S
C382 C383 1.358 . S
C382 C387 1.371 . S
C383 H349 0.930 . S
C383 C382 1.358 . S
C383 C384 1.405 1_565 S
C384 H350 0.931 . S
C384 C383 1.405 1_545 S
C384 C385 1.384 1_545 S
C385 C384 1.384 1_565 S
C385 C386 1.393 . S
C386 H351 0.931 . S
C386 C385 1.393 . S
C386 C387 1.382 . S
C387 H352 0.929 . S
C387 C382 1.371 . S
C387 C386 1.382 . S
C388 N356 1.423 . S
C388 C389 1.362 . S
C388 C393 1.388 . S
C389 H353 0.929 . S
C389 C388 1.362 . S
C389 C390 1.376 . S
C390 H354 0.931 . S
C390 C389 1.376 . S
C390 C391 1.396 . S
C391 C373 1.472 . S
C391 C390 1.396 . S
C391 C392 1.348 . S
C392 H355 0.929 . S
C392 C391 1.348 . S
C392 C393 1.443 . S
C393 H357 0.932 . S
C393 C388 1.388 . S
C393 C392 1.443 . S
H394 C421 0.929 . S
N395 C420 1.433 . S
N395 C426 1.435 . S
N395 C432 1.423 . S
H396 C422 0.952 . S
H397 C425 0.931 . S
H398 C424 0.929 . S
H399 C427 0.930 . S
H400 C428 0.932 . S
H401 C431 0.929 . S
H402 C430 0.931 . S
H403 C433 0.929 . S
H404 C437 0.932 . S
H405 C434 0.931 . S
H406 C436 0.929 . S
H407 C439 0.929 . S
H408 C440 0.930 . S
H409 C442 0.929 . S
H410 C443 0.931 . S
H411 C445 0.930 . S
H412 C446 0.932 . S
H413 C448 0.931 . S
H414 C449 0.929 . S
H415 C451 0.929 . S
H416 C452 0.931 . S
H417 C454 0.929 . S
N418 C438 1.433 . S
N418 C444 1.435 . S
N418 C450 1.423 . S
H419 C455 0.932 . S
C420 N395 1.433 . S
C420 C421 1.363 . S
C420 C425 1.370 . S
C421 H394 0.929 . S
C421 C420 1.363 . S
C421 C422 1.385 . S
C422 H396 0.952 . S
C422 C421 1.385 . S
C422 C423 1.357 . S
C423 C422 1.357 . S
C423 C424 1.406 . S
C424 H398 0.929 . S
C424 C423 1.406 . S
C424 C425 1.391 . S
C425 H397 0.931 . S
C425 C420 1.370 . S
C425 C424 1.391 . S
C426 N395 1.435 . S
C426 C427 1.358 . S
C426 C431 1.371 . S
C427 H399 0.930 . S
C427 C426 1.358 . S
C427 C428 1.405 . S
C428 H400 0.932 . S
C428 C427 1.405 . S
C428 C429 1.383 . S
C429 C428 1.383 . S
C429 C430 1.393 . S
C430 H402 0.931 . S
C430 C429 1.393 . S
C430 C431 1.382 . S
C431 H401 0.929 . S
C431 C426 1.371 . S
C431 C430 1.382 . S
C432 N395 1.423 . S
C432 C433 1.362 . S
C432 C437 1.388 . S
C433 H403 0.929 . S
C433 C432 1.362 . S
C433 C434 1.376 . S
C434 H405 0.931 . S
C434 C433 1.376 . S
C434 C435 1.396 . S
C435 C434 1.396 . S
C435 C436 1.348 . S
C435 C453 1.472 . S
C436 H406 0.929 . S
C436 C435 1.348 . S
C436 C437 1.443 . S
C437 H404 0.932 . S
C437 C432 1.388 . S
C437 C436 1.443 . S
C438 N418 1.433 . S
C438 C439 1.363 . S
C438 C443 1.370 . S
C439 H407 0.929 . S
C439 C438 1.363 . S
C439 C440 1.385 . S
C440 H408 0.930 . S
C440 C439 1.385 . S
C440 C441 1.357 . S
C441 C440 1.357 . S
C441 C442 1.406 . S
C442 H409 0.929 . S
C442 C441 1.406 . S
C442 C443 1.391 . S
C443 H410 0.931 . S
C443 C438 1.370 . S
C443 C442 1.391 . S
C444 N418 1.435 . S
C444 C445 1.358 . S
C444 C449 1.371 . S
C445 H411 0.930 . S
C445 C444 1.358 . S
C445 C446 1.405 . S
C446 H412 0.932 . S
C446 C445 1.405 . S
C446 C447 1.383 . S
C447 C446 1.383 . S
C447 C448 1.393 . S
C448 H413 0.931 . S
C448 C447 1.393 . S
C448 C449 1.382 . S
C449 H414 0.929 . S
C449 C444 1.371 . S
C449 C448 1.382 . S
C450 N418 1.423 . S
C450 C451 1.362 . S
C450 C455 1.388 . S
C451 H415 0.929 . S
C451 C450 1.362 . S
C451 C452 1.376 . S
C452 H416 0.931 . S
C452 C451 1.376 . S
C452 C453 1.396 . S
C453 C435 1.472 . S
C453 C452 1.396 . S
C453 C454 1.348 . S
C454 H417 0.929 . S
C454 C453 1.348 . S
C454 C455 1.443 . S
C455 H419 0.932 . S
C455 C450 1.388 . S
C455 C454 1.443 . S
C13 C137 2.129 . S
C27 C181 2.864 . S
C261 C29 2.456 . S
C305 C54 2.220 . S
C385 C69 2.697 . S
C441 C83 2.686 . S
C15 C237 2.589 . S
C41 C317 2.319 . S
C361 C42 2.838 . S
C429 C57 2.682 . S
C71 C113 2.193 . S
C193 C1 3.039 1_556 S
C299 C12 3.039 1_556 S
C26 C379 2.192 . S
C447 C28 2.683 . S
C55 C131 2.838 . S
C68 C175 2.319 . S
C82 C255 2.589 . S
C14 C423 2.686 . S
C119 C40 2.696 . S
C43 C199 2.220 . S
C56 C243 2.457 . S
C70 C323 2.863 . S
C0 C367 2.128 . S
