# Generated by pormake.
# Topology pth, (4,4)-cn, num edge types: 1
# Building blocks:
#     Node 0, Type 0, BuildingBlock: QUQFOY_clean_sbu_1, # of connection points: 4
#     Node 1, Type 0, BuildingBlock: QUQFOY_clean_sbu_1, # of connection points: 4
#     Node 2, Type 0, BuildingBlock: QUQFOY_clean_sbu_1, # of connection points: 4
#     Node 3, Type 1, BuildingBlock: AZAVOO_clean_linker_0, # of connection points: 4
#     Node 4, Type 1, BuildingBlock: AZAVOO_clean_linker_0, # of connection points: 4
#     Node 5, Type 1, BuildingBlock: AZAVOO_clean_linker_0, # of connection points: 4
#     Edge 6, Type (0, 1), BuildingBlock: XUDNAN_clean_linker_2, # of connection points: 2
#     Edge 7, Type (0, 1), BuildingBlock: XUDNAN_clean_linker_2, # of connection points: 2
#     Edge 8, Type (0, 1), BuildingBlock: XUDNAN_clean_linker_2, # of connection points: 2
#     Edge 9, Type (0, 1), BuildingBlock: XUDNAN_clean_linker_2, # of connection points: 2
#     Edge 10, Type (0, 1), BuildingBlock: XUDNAN_clean_linker_2, # of connection points: 2
#     Edge 11, Type (0, 1), BuildingBlock: XUDNAN_clean_linker_2, # of connection points: 2
#     Edge 12, Type (0, 1), BuildingBlock: XUDNAN_clean_linker_2, # of connection points: 2
#     Edge 13, Type (0, 1), BuildingBlock: XUDNAN_clean_linker_2, # of connection points: 2
#     Edge 14, Type (0, 1), BuildingBlock: XUDNAN_clean_linker_2, # of connection points: 2
#     Edge 15, Type (0, 1), BuildingBlock: XUDNAN_clean_linker_2, # of connection points: 2
#     Edge 16, Type (0, 1), BuildingBlock: XUDNAN_clean_linker_2, # of connection points: 2
#     Edge 17, Type (0, 1), BuildingBlock: XUDNAN_clean_linker_2, # of connection points: 2
# Relax obj value: 0.116
# Max RMSD: 0.231
# Mean RMSD: 0.168
data_MOF--net-pth--node1-QUQFOY_clean_sbu_1--node2-AZAVOO_clean_linker_0--edge1-XUDNAN_clean_linker_2
_symmetry_space_group_name_H-M    P1
_symmetry_Int_Tables_number       1
_symmetry_cell_setting            triclinic
loop_
_symmetry_equiv_pos_as_xyz
'x, y, z'
_cell_length_a     25.152255
_cell_length_b     27.929494
_cell_length_c     72.972144
_cell_angle_alpha  92.422158
_cell_angle_beta   88.803278
_cell_angle_gamma 120.46884
loop_
_atom_site_label
_atom_site_type_symbol
_atom_site_fract_x
_atom_site_fract_y
_atom_site_fract_z
_atom_type_partial_charge
O0 O 0.12421 0.16255 0.08889 0.0
Cd1 Cd 0.0418 0.09642 0.09706 0.0
Cd2 Cd 0.10132 0.03965 0.08962 0.0
O3 O 0.17355 0.11706 0.08296 0.0
O4 O 0.99517 0.13102 0.1077 0.0
O5 O 0.02725 0.08604 0.12432 0.0
C6 C 1.00005 0.1146 0.12347 0.0
C7 C 0.11691 0.98504 0.10967 0.0
C8 C 0.1723 0.16203 0.08354 0.0
C9 C 0.99003 0.00747 0.06684 0.0
O10 O 0.03364 0.99854 0.07005 0.0
O11 O 0.98422 0.04372 0.07637 0.0
O12 O 0.13791 0.99212 0.09313 0.0
O13 O 0.08762 0.01006 0.11504 0.0
O14 O 0.98001 0.0867 0.43719 0.0
Cd15 Cd 0.05254 0.11479 0.41908 0.0
Cd16 Cd 0.02613 0.00431 0.42108 0.0
O17 O 0.95124 0.99761 0.43569 0.0
O18 O 0.06095 0.18366 0.40903 0.0
O19 O 0.04099 0.10937 0.39172 0.0
C20 C 0.05005 0.15929 0.393 0.0
C21 C 0.01114 0.925 0.4041 0.0
C22 C 0.94373 0.03706 0.44182 0.0
C23 C 0.14856 0.09972 0.43628 0.0
O24 O 0.11115 0.04785 0.43387 0.0
O25 O 0.13552 0.13497 0.43062 0.0
O26 O 0.00907 0.92637 0.42171 0.0
O27 O 0.02063 0.96863 0.39583 0.0
O28 O 0.95518 0.02769 0.74212 0.0
Cd29 Cd 0.01077 0.00819 0.75685 0.0
Cd30 Cd 0.067 0.11681 0.76599 0.0
O31 O 0.9898 0.1116 0.75459 0.0
O32 O 0.96257 0.92637 0.75999 0.0
O33 O 0.98867 0.98771 0.78321 0.0
C34 C 0.96052 0.93639 0.77734 0.0
C35 C 0.11089 0.16537 0.79349 0.0
C36 C 0.95212 0.07171 0.74405 0.0
C37 C 0.13786 0.07705 0.7426 0.0
O38 O 0.1322 0.11777 0.74836 0.0
O39 O 0.09567 0.02758 0.74573 0.0
O40 O 0.11326 0.19089 0.77892 0.0
O41 O 0.07942 0.11166 0.79281 0.0
H42 H 0.97527 0.43446 0.13687 0.0
H43 H 0.12981 0.90251 0.28837 0.0
H44 H 0.93462 0.41202 0.25044 0.0
H45 H 0.90752 0.3231 0.2349 0.0
H46 H 0.09374 0.39525 0.21412 0.0
H47 H 0.12073 0.48323 0.2302 0.0
H48 H 0.94626 0.48085 0.21419 0.0
H49 H 0.93959 0.45203 0.18177 0.0
H50 H 0.13811 0.55255 0.17736 0.0
H51 H 0.14408 0.58045 0.20986 0.0
H52 H 0.97425 0.6176 0.22206 0.0
H53 H 0.99498 0.68544 0.19855 0.0
H54 H 0.19019 0.74583 0.20301 0.0
H55 H 0.16889 0.67791 0.22635 0.0
H56 H 0.96074 0.63156 0.26647 0.0
H57 H 0.96668 0.7191 0.27628 0.0
H58 H 0.16562 0.80353 0.27247 0.0
H59 H 0.15889 0.71564 0.26268 0.0
H60 H 0.94429 0.54096 0.29216 0.0
H61 H 0.93396 0.58593 0.32042 0.0
H62 H 0.13123 0.69627 0.32192 0.0
H63 H 0.14164 0.6492 0.29407 0.0
H64 H 0.9539 0.45881 0.29101 0.0
H65 H 0.95583 0.3912 0.31107 0.0
H66 H 0.13697 0.43576 0.29081 0.0
H67 H 0.13612 0.50492 0.27148 0.0
O68 O 0.97893 0.44667 0.14963 0.0
O69 O 0.08105 0.49949 0.14803 0.0
O70 O 0.0238 0.82416 0.28303 0.0
O71 O 0.12619 0.86746 0.2844 0.0
C72 C 0.04169 0.5103 0.24742 0.0
C73 C 0.04927 0.54866 0.2341 0.0
C74 C 0.05806 0.60111 0.23961 0.0
C75 C 0.05539 0.61402 0.25833 0.0
C76 C 0.04777 0.57584 0.27176 0.0
C77 C 0.04301 0.52454 0.26633 0.0
C78 C 0.02943 0.45416 0.24128 0.0
C79 C 0.96997 0.40802 0.24299 0.0
C80 C 0.95446 0.35746 0.23396 0.0
C81 C 0.9982 0.35227 0.22304 0.0
C82 C 0.05901 0.39756 0.2225 0.0
C83 C 0.07449 0.44802 0.23159 0.0
C84 C 0.04557 0.53297 0.21429 0.0
C85 C 0.98818 0.49672 0.20616 0.0
C86 C 0.98454 0.4803 0.18765 0.0
C87 C 0.03832 0.50004 0.17696 0.0
C88 C 0.0958 0.53667 0.18519 0.0
C89 C 0.09935 0.5529 0.20371 0.0
C90 C 0.07009 0.64272 0.22573 0.0
C91 C 0.0214 0.64567 0.21794 0.0
C92 C 0.03337 0.68456 0.20463 0.0
C93 C 0.09421 0.72076 0.19886 0.0
C94 C 0.1428 0.71801 0.20696 0.0
C95 C 0.13081 0.67944 0.22031 0.0
C96 C 0.05936 0.66748 0.26386 0.0
C97 C 0.00549 0.66909 0.26772 0.0
C98 C 0.00905 0.7191 0.27332 0.0
C99 C 0.06667 0.76833 0.27514 0.0
C100 C 0.12056 0.76641 0.27122 0.0
C101 C 0.11689 0.71638 0.26557 0.0
C102 C 0.04383 0.59086 0.29127 0.0
C103 C 0.98559 0.57261 0.29914 0.0
C104 C 0.97967 0.59887 0.31513 0.0
C105 C 0.0318 0.64472 0.32319 0.0
C106 C 0.09042 0.66104 0.31589 0.0
C107 C 0.09645 0.63382 0.30016 0.0
C108 C 0.04535 0.48767 0.28001 0.0
C109 C 0.99484 0.45544 0.29138 0.0
C110 C 0.99574 0.4165 0.30268 0.0
C111 C 0.04647 0.4083 0.30239 0.0
C112 C 0.09723 0.44116 0.29121 0.0
C113 C 0.09686 0.48076 0.28025 0.0
C114 C 0.03432 0.48221 0.15734 0.0
C115 C 0.07067 0.82153 0.28108 0.0
H116 H 0.64947 0.99135 0.4791 0.0
H117 H 0.27745 0.17699 0.62411 0.0
H118 H 0.59723 0.96581 0.58299 0.0
H119 H 0.66311 0.94794 0.56223 0.0
H120 H 0.76588 0.12285 0.55027 0.0
H121 H 0.70359 0.14017 0.57216 0.0
H122 H 0.52743 0.97053 0.54981 0.0
H123 H 0.56628 0.96207 0.51955 0.0
H124 H 0.66403 0.14095 0.51595 0.0
H125 H 0.62553 0.1488 0.54634 0.0
H126 H 0.40571 0.00225 0.5545 0.0
H127 H 0.35603 0.0234 0.53027 0.0
H128 H 0.49934 0.1967 0.53493 0.0
H129 H 0.54553 0.17527 0.56007 0.0
H130 H 0.36739 0.00613 0.58772 0.0
H131 H 0.28443 0.02435 0.5962 0.0
H132 H 0.41999 0.18974 0.61594 0.0
H133 H 0.50246 0.17119 0.60714 0.0
H134 H 0.41601 0.99011 0.62161 0.0
H135 H 0.36844 1.00044 0.64966 0.0
H136 H 0.5366 0.15459 0.66316 0.0
H137 H 0.58163 0.14591 0.63414 0.0
H138 H 0.54922 0.98229 0.62701 0.0
H139 H 0.61146 0.98985 0.65372 0.0
H140 H 0.75092 0.15454 0.63821 0.0
H141 H 0.68881 0.14665 0.61165 0.0
O142 O 0.63194 0.99546 0.49057 0.0
O143 O 0.68 0.08749 0.48915 0.0
O144 O 0.24154 0.08395 0.60969 0.0
O145 O 0.30935 0.16898 0.62035 0.0
C146 C 0.59176 0.06072 0.58393 0.0
C147 C 0.55743 0.06527 0.56964 0.0
C148 C 0.50872 0.07482 0.57385 0.0
C149 C 0.49101 0.07564 0.59225 0.0
C150 C 0.52302 0.06799 0.60653 0.0
C151 C 0.57504 0.06262 0.60241 0.0
C152 C 0.6451 0.05413 0.57881 0.0
C153 C 0.63644 1.00056 0.57669 0.0
C154 C 0.67326 0.99033 0.56439 0.0
C155 C 0.7183 0.03338 0.55378 0.0
C156 C 0.73195 0.0882 0.55798 0.0
C157 C 0.69632 0.0985 0.57065 0.0
C158 C 0.57332 0.06021 0.55019 0.0
C159 C 0.55631 0.00775 0.5423 0.0
C160 C 0.57887 0.00307 0.52506 0.0
C161 C 0.61858 0.05086 0.51537 0.0
C162 C 0.63361 0.10331 0.52305 0.0
C163 C 0.61118 0.10791 0.54033 0.0
C164 C 0.47883 0.0873 0.55903 0.0
C165 C 0.42581 0.04477 0.55034 0.0
C166 C 0.39805 0.05699 0.53632 0.0
C167 C 0.42372 0.11188 0.53047 0.0
C168 C 0.47747 0.15419 0.53921 0.0
C169 C 0.50433 0.14204 0.55348 0.0
C170 C 0.44083 0.08751 0.59668 0.0
C171 C 0.37903 0.0465 0.59365 0.0
C172 C 0.33177 0.05692 0.59861 0.0
C173 C 0.34559 0.10854 0.60676 0.0
C174 C 0.40772 0.14959 0.60968 0.0
C175 C 0.45491 0.13916 0.60466 0.0
C176 C 0.50198 0.06751 0.62573 0.0
C177 C 0.44296 0.02555 0.63084 0.0
C178 C 0.41597 0.03145 0.64702 0.0
C179 C 0.44813 0.07894 0.65867 0.0
C180 C 0.50967 0.11827 0.65431 0.0
C181 C 0.53606 0.11295 0.63786 0.0
C182 C 0.61465 0.06389 0.6174 0.0
C183 C 0.59363 0.0196 0.62928 0.0
C184 C 0.62913 0.02397 0.64448 0.0
C185 C 0.6857 0.07299 0.6481 0.0
C186 C 0.70716 0.11659 0.63587 0.0
C187 C 0.67207 0.11196 0.62063 0.0
C188 C 0.64531 0.04593 0.49755 0.0
C189 C 0.29554 0.11953 0.61231 0.0
H190 H 0.67998 0.73551 0.04608 0.0
H191 H 0.28792 0.20245 0.92046 0.0
H192 H 0.60856 0.7028 0.94406 0.0
H193 H 0.67915 0.78909 0.96043 0.0
H194 H 0.82174 0.74585 0.95634 0.0
H195 H 0.74892 0.65781 0.94067 0.0
H196 H 0.55394 0.63882 0.97606 0.0
H197 H 0.59251 0.68275 0.0064 0.0
H198 H 0.72672 0.62938 0.00381 0.0
H199 H 0.68783 0.58592 0.97343 0.0
H200 H 0.4481 0.52583 0.96924 0.0
H201 H 0.39551 0.47577 0.99679 0.0
H202 H 0.5216 0.41393 0.99943 0.0
H203 H 0.57377 0.46416 0.97174 0.0
H204 H 0.40725 0.47731 0.927 0.0
H205 H 0.31845 0.38407 0.9213 0.0
H206 H 0.43243 0.31321 0.93187 0.0
H207 H 0.52098 0.4068 0.93736 0.0
H208 H 0.4811 0.55337 0.89698 0.0
H209 H 0.40747 0.48559 0.87461 0.0
H210 H 0.49484 0.38721 0.87825 0.0
H211 H 0.56807 0.45513 0.90064 0.0
H212 H 0.61371 0.68345 0.90645 0.0
H213 H 0.67354 0.734 0.87972 0.0
H214 H 0.73535 0.61582 0.87134 0.0
H215 H 0.67541 0.56568 0.89795 0.0
O216 O 0.66522 0.7177 0.03412 0.0
O217 O 0.72407 0.67931 0.03377 0.0
O218 O 0.26522 0.27821 0.91787 0.0
O219 O 0.32188 0.23968 0.92307 0.0
C220 C 0.62487 0.61528 0.93832 0.0
C221 C 0.59604 0.58422 0.95401 0.0
C222 C 0.54635 0.52944 0.95208 0.0
C223 C 0.52513 0.50539 0.9345 0.0
C224 C 0.5551 0.53557 0.9187 0.0
C225 C 0.60554 0.59062 0.92057 0.0
C226 C 0.67366 0.67416 0.9412 0.0
C227 C 0.65588 0.71313 0.94598 0.0
C228 C 0.6965 0.76255 0.95544 0.0
C229 C 0.75601 0.77415 0.9601 0.0
C230 C 0.77576 0.73762 0.95342 0.0
C231 C 0.73468 0.68776 0.94413 0.0
C232 C 0.61817 0.60931 0.97263 0.0
C233 C 0.59153 0.63658 0.98212 0.0
C234 C 0.61378 0.66174 0.9994 0.0
C235 C 0.66268 0.65953 0.00753 0.0
C236 C 0.68889 0.63169 0.99797 0.0
C237 C 0.6668 0.60683 0.98065 0.0
C238 C 0.51443 0.49835 0.96857 0.0
C239 C 0.46424 0.50144 0.97581 0.0
C240 C 0.43467 0.47322 0.99158 0.0
C241 C 0.45474 0.44123 1.00033 0.0
C242 C 0.50498 0.43801 0.99293 0.0
C243 C 0.53481 0.46663 0.97719 0.0
C244 C 0.47037 0.44863 0.93256 0.0
C245 C 0.41274 0.44152 0.9282 0.0
C246 C 0.36218 0.38826 0.92492 0.0
C247 C 0.36839 0.34116 0.92608 0.0
C248 C 0.42606 0.34855 0.93085 0.0
C249 C 0.47663 0.40188 0.93408 0.0
C250 C 0.5297 0.509 0.90048 0.0
C251 C 0.48631 0.51869 0.89223 0.0
C252 C 0.44391 0.47961 0.87957 0.0
C253 C 0.4445 0.43043 0.87505 0.0
C254 C 0.49254 0.42418 0.88178 0.0
C255 C 0.53503 0.46336 0.89434 0.0
C256 C 0.64016 0.62085 0.90414 0.0
C257 C 0.64033 0.66866 0.89885 0.0
C258 C 0.67471 0.69757 0.88362 0.0
C259 C 0.70921 0.67893 0.87337 0.0
C260 C 0.70865 0.63089 0.87875 0.0
C261 C 0.67451 0.60221 0.89397 0.0
C262 C 0.68601 0.68603 0.02591 0.0
C263 C 0.31523 0.28458 0.92212 0.0
H264 H 0.06005 0.15358 0.15624 0.0
H265 H 0.89543 0.11955 0.12714 0.0
H266 H 0.86855 0.16446 0.15263 0.0
H267 H 0.99845 0.14458 0.20456 0.0
H268 H 0.07075 0.20254 0.21259 0.0
H269 H 0.06982 0.15676 0.19425 0.0
H270 H 0.13122 0.24131 0.17371 0.0
H271 H 0.1319 0.28716 0.19185 0.0
H272 H 0.10113 0.2864 0.16968 0.0
H273 H 0.86715 0.22389 0.17857 0.0
H274 H 0.89321 0.29732 0.20243 0.0
H275 H 0.06129 0.29712 0.21462 0.0
C276 C 0.01705 0.15358 0.15568 0.0
C277 C 0.97888 0.13207 0.14002 0.0
C278 C 0.92454 0.13506 0.13922 0.0
C279 C 0.9089 0.16034 0.15364 0.0
C280 C 0.94848 0.18293 0.16867 0.0
C281 C 0.00152 0.17987 0.16983 0.0
C282 C 0.04059 0.21448 0.18612 0.0
C283 C 0.04515 0.17737 0.20022 0.0
C284 C 0.10498 0.26002 0.17996 0.0
C285 C 0.00247 0.23913 0.19348 0.0
C286 C 0.94883 0.21928 0.18347 0.0
C287 C 0.90831 0.23884 0.18678 0.0
C288 C 0.92342 0.28046 0.20046 0.0
C289 C 0.97898 0.30265 0.21059 0.0
C290 C 0.01833 0.28081 0.20721 0.0
H291 H 0.95403 0.10693 0.47034 0.0
H292 H 0.83192 0.9422 0.44667 0.0
H293 H 0.76027 0.92252 0.4729 0.0
H294 H 0.93782 0.06449 0.51611 0.0
H295 H 0.94192 0.12643 0.52608 0.0
H296 H 0.98014 0.1294 0.50467 0.0
H297 H 0.9203 0.16993 0.48916 0.0
H298 H 0.88253 0.16772 0.51061 0.0
H299 H 0.83723 0.13323 0.49036 0.0
H300 H 0.70191 0.92237 0.50171 0.0
H301 H 0.66317 0.93939 0.53096 0.0
H302 H 0.83197 0.09968 0.53751 0.0
C303 C 0.91155 0.06713 0.47047 0.0
C304 C 0.89773 0.02638 0.45635 0.0
C305 C 0.84282 0.97411 0.45729 0.0
C306 C 0.80204 0.96263 0.47212 0.0
C307 C 0.81767 0.00349 0.48601 0.0
C308 C 0.87136 0.05453 0.48535 0.0
C309 C 0.87964 0.09001 0.5025 0.0
C310 C 0.93836 0.10334 0.51295 0.0
C311 C 0.87992 0.14337 0.49787 0.0
C312 C 0.82214 0.05106 0.51295 0.0
C313 C 0.78657 0.0017 0.50313 0.0
C314 C 0.72995 0.96049 0.50966 0.0
C315 C 0.70875 0.97038 0.52653 0.0
C316 C 0.74462 0.02071 0.53696 0.0
C317 C 0.80268 0.06092 0.53004 0.0
H318 H 0.93012 0.94254 0.81355 0.0
H319 H 0.90903 0.82538 0.76925 0.0
H320 H 0.84423 0.74744 0.78915 0.0
H321 H 0.93598 0.86217 0.85082 0.0
H322 H 0.89237 0.88103 0.86635 0.0
H323 H 0.93961 0.92791 0.84891 0.0
H324 H 0.84455 0.92974 0.83683 0.0
H325 H 0.79694 0.88259 0.85415 0.0
H326 H 0.77613 0.86526 0.83029 0.0
H327 H 0.77903 0.68212 0.81328 0.0
H328 H 0.71837 0.63339 0.84036 0.0
H329 H 0.78111 0.79216 0.86926 0.0
C330 C 0.91245 0.9005 0.80811 0.0
C331 C 0.92487 0.89011 0.78984 0.0
C332 C 0.90026 0.83445 0.78319 0.0
C333 C 0.86337 0.78983 0.79439 0.0
C334 C 0.85133 0.80143 0.81223 0.0
C335 C 0.87519 0.85532 0.8191 0.0
C336 C 0.85369 0.85609 0.83864 0.0
C337 C 0.9087 0.88341 0.85197 0.0
C338 C 0.81556 0.88514 0.84005 0.0
C339 C 0.81374 0.79426 0.84159 0.0
C340 C 0.81326 0.76355 0.82618 0.0
C341 C 0.77937 0.70568 0.82548 0.0
C342 C 0.74527 0.67837 0.84097 0.0
C343 C 0.74514 0.70883 0.85699 0.0
C344 C 0.77981 0.76764 0.85719 0.0
H345 H 0.06056 0.94468 0.14283 0.0
H346 H 0.19056 0.94051 0.10362 0.0
H347 H 0.2005 0.87454 0.12258 0.0
H348 H 0.13401 0.93447 0.18398 0.0
H349 H 0.06173 0.89022 0.19521 0.0
H350 H 0.06714 0.93957 0.17907 0.0
H351 H 0.97697 0.86001 0.16033 0.0
H352 H 0.97151 0.8104 0.17635 0.0
H353 H 0.98245 0.80073 0.15228 0.0
H354 H 0.19434 0.80717 0.14505 0.0
H355 H 0.17202 0.7419 0.16976 0.0
H356 H 0.04524 0.78826 0.19446 0.0
C357 C 0.09165 0.93038 0.13836 0.0
C358 C 0.12497 0.94794 0.12176 0.0
C359 C 0.16459 0.92772 0.11627 0.0
C360 C 0.17063 0.89025 0.12696 0.0
C361 C 0.13664 0.87323 0.1431 0.0
C362 C 0.09796 0.89258 0.14883 0.0
C363 C 0.06518 0.8661 0.16646 0.0
C364 C 0.0831 0.91023 0.18211 0.0
C365 C 0.99486 0.8323 0.16368 0.0
C366 C 0.09109 0.82853 0.16962 0.0
C367 C 0.13253 0.83364 0.15603 0.0
C368 C 0.16228 0.80303 0.15585 0.0
C369 C 0.1495 0.76626 0.16998 0.0
C370 C 0.10715 0.76018 0.18408 0.0
C371 C 0.07753 0.79176 0.18381 0.0
H372 H 0.20192 0.03935 0.44498 0.0
H373 H 0.21901 0.20124 0.45382 0.0
H374 H 0.29952 0.22582 0.47712 0.0
H375 H 0.21176 0.01448 0.48982 0.0
H376 H 0.25667 0.98115 0.4861 0.0
H377 H 0.20761 0.97917 0.46816 0.0
H378 H 0.30059 0.02304 0.44589 0.0
H379 H 0.34996 0.02434 0.4637 0.0
H380 H 0.36899 0.08742 0.45251 0.0
H381 H 0.36449 0.22626 0.50288 0.0
H382 H 0.41635 0.20629 0.52712 0.0
H383 H 0.36246 0.04656 0.49999 0.0
C384 C 0.22377 0.08056 0.45145 0.0
C385 C 0.20422 0.11838 0.44759 0.0
C386 C 0.23362 0.17175 0.45644 0.0
C387 C 0.27928 0.18604 0.46974 0.0
C388 C 0.29575 0.1469 0.47373 0.0
C389 C 0.26981 0.09568 0.46457 0.0
C390 C 0.2927 0.05977 0.47217 0.0
C391 C 0.23898 0.00546 0.4795 0.0
C392 C 0.33031 0.04797 0.4577 0.0
C393 C 0.33343 0.09782 0.48758 0.0
C394 C 0.3349 0.14798 0.48821 0.0
C395 C 0.36515 0.18779 0.50222 0.0
C396 C 0.39475 0.17606 0.51591 0.0
C397 C 0.39425 0.12497 0.51549 0.0
C398 C 0.36365 0.08587 0.50091 0.0
H399 H 0.18494 0.2782 0.79795 0.0
H400 H 0.12568 0.12376 0.82515 0.0
H401 H 0.20224 0.17566 0.84968 0.0
H402 H 0.34191 0.33655 0.80569 0.0
H403 H 0.35826 0.4069 0.80961 0.0
H404 H 0.29419 0.35903 0.79532 0.0
H405 H 0.21964 0.37647 0.81571 0.0
H406 H 0.28368 0.42513 0.82992 0.0
H407 H 0.21753 0.36734 0.84008 0.0
H408 H 0.29208 0.243 0.86947 0.0
H409 H 0.38355 0.32177 0.88438 0.0
H410 H 0.38431 0.43236 0.84422 0.0
C411 C 0.18694 0.25535 0.80928 0.0
C412 C 0.14909 0.19687 0.80966 0.0
C413 C 0.15383 0.16856 0.82463 0.0
C414 C 0.19733 0.19767 0.83859 0.0
C415 C 0.23535 0.25507 0.83745 0.0
C416 C 0.22999 0.28373 0.82331 0.0
C417 C 0.27833 0.34499 0.82478 0.0
C418 C 0.32066 0.36288 0.80785 0.0
C419 C 0.24797 0.38058 0.82781 0.0
C420 C 0.31269 0.34615 0.84173 0.0
C421 C 0.28707 0.29389 0.84885 0.0
C422 C 0.31221 0.28414 0.86408 0.0
C423 C 0.36455 0.32905 0.87234 0.0
C424 C 0.39128 0.38311 0.86538 0.0
C425 C 0.36471 0.39158 0.84989 0.0
H426 H 0.87202 0.99907 0.71768 0.0
H427 H 0.93225 0.15963 0.74502 0.0
H428 H 0.86535 0.17447 0.72463 0.0
H429 H 0.87094 0.0404 0.67311 0.0
H430 H 0.80327 0.97664 0.66563 0.0
H431 H 0.85121 0.97594 0.68345 0.0
H432 H 0.75677 0.93017 0.70513 0.0
H433 H 0.70837 0.93043 0.68731 0.0
H434 H 0.71151 0.96294 0.70945 0.0
H435 H 0.79935 0.17568 0.69969 0.0
H436 H 0.73562 0.16163 0.67246 0.0
H437 H 0.71732 1.00011 0.66138 0.0
C438 C 0.87036 0.03694 0.71962 0.0
C439 C 0.9074 0.07813 0.73302 0.0
C440 C 0.90429 0.12737 0.73492 0.0
C441 C 0.86637 0.1362 0.7234 0.0
C442 C 0.83151 0.09528 0.71011 0.0
C443 C 0.83274 0.04642 0.70825 0.0
C444 C 0.79307 0.01034 0.69227 0.0
C445 C 0.83196 1.00027 0.67776 0.0
C446 C 0.73923 0.95521 0.69895 0.0
C447 C 0.77038 0.04709 0.68522 0.0
C448 C 0.79294 0.09579 0.69576 0.0
C449 C 0.7809 0.13749 0.69144 0.0
C450 C 0.74504 0.1293 0.6759 0.0
C451 C 0.72158 0.0798 0.66486 0.0
C452 C 0.73397 0.038 0.66973 0.0
H453 H 0.96322 0.9081 0.05 0.0
H454 H 0.92595 0.04333 0.04741 0.0
H455 H 0.86644 1.00091 0.01887 0.0
H456 H 0.98066 0.89005 0.00207 0.0
H457 H 0.94152 0.81525 0.00222 0.0
H458 H 0.98138 0.85605 0.02245 0.0
H459 H 0.88127 0.80343 0.04158 0.0
H460 H 0.84155 0.76192 0.02145 0.0
H461 H 0.81181 0.80035 0.034 0.0
H462 H 0.81621 0.94642 0.98961 0.0
H463 H 0.76634 0.87724 0.96418 0.0
H464 H 0.82945 0.77401 0.98747 0.0
C465 C 0.94222 0.92859 0.04348 0.0
C466 C 0.94934 0.97908 0.05086 0.0
C467 C 0.92077 0.00444 0.04203 0.0
C468 C 0.8873 0.98091 0.02575 0.0
C469 C 0.88215 0.93165 0.01863 0.0
C470 C 0.90775 0.90519 0.0274 0.0
C471 C 0.89339 0.85152 0.01728 0.0
C472 C 0.95279 0.85337 0.01061 0.0
C473 C 0.85468 0.80134 0.0293 0.0
C474 C 0.85616 0.85217 0.00136 0.0
C475 C 0.85088 0.89906 0.00225 0.0
C476 C 0.81937 0.90916 0.98889 0.0
C477 C 0.79103 0.86948 0.97452 0.0
C478 C 0.79353 0.81982 0.97375 0.0
C479 C 0.82739 0.81178 0.98732 0.0
H480 H 0.05357 0.91851 0.36955 0.0
H481 H 0.95575 0.81956 0.4162 0.0
H482 H 0.95014 0.73699 0.40059 0.0
H483 H 0.97269 0.81079 0.33403 0.0
H484 H 0.04112 0.83192 0.32041 0.0
H485 H 0.03409 0.88245 0.33477 0.0
H486 H 0.13733 0.9094 0.35063 0.0
H487 H 0.14408 0.85856 0.33634 0.0
H488 H 0.14615 0.85631 0.36096 0.0
H489 H 0.95479 0.66499 0.37997 0.0
H490 H 0.97223 0.60918 0.35587 0.0
H491 H 0.072 0.75566 0.32344 0.0
C492 C 0.03025 0.87926 0.37634 0.0
C493 C 0.00462 0.87526 0.39401 0.0
C494 C 0.97555 0.82348 0.40263 0.0
C495 C 0.97211 0.77634 0.39389 0.0
C496 C 0.9986 0.78177 0.37659 0.0
C497 C 0.02731 0.8319 0.36792 0.0
C498 C 0.05408 0.82682 0.34963 0.0
C499 C 0.02363 0.83869 0.33378 0.0
C500 C 0.1246 0.86504 0.34939 0.0
C501 C 0.03596 0.76611 0.34942 0.0
C502 C 0.00352 0.74076 0.36503 0.0
C503 C 0.98046 0.68443 0.36773 0.0
C504 C 0.99056 0.65311 0.35404 0.0
C505 C 0.02415 0.67844 0.33804 0.0
C506 C 0.04728 0.73567 0.33576 0.0
H507 H 0.16921 0.00148 0.72827 0.0
H508 H 0.23294 0.17813 0.73286 0.0
H509 H 0.32408 0.1979 0.71431 0.0
H510 H 0.32356 0.01645 0.72996 0.0
H511 H 0.3036 0.95999 0.71347 0.0
H512 H 0.24513 0.95942 0.72832 0.0
H513 H 0.17921 0.94903 0.69997 0.0
H514 H 0.23738 0.94952 0.68506 0.0
H515 H 0.21266 0.99909 0.68224 0.0
H516 H 0.40261 0.19854 0.69309 0.0
H517 H 0.46419 0.18003 0.67051 0.0
H518 H 0.35489 0.00357 0.68092 0.0
C519 C 0.20268 0.04435 0.72555 0.0
C520 C 0.19373 0.08819 0.73205 0.0
C521 C 0.23857 0.14372 0.72808 0.0
C522 C 0.29073 0.1555 0.71759 0.0
C523 C 0.2979 0.11142 0.71127 0.0
C524 C 0.25542 0.05698 0.71515 0.0
C525 C 0.27309 0.01731 0.70595 0.0
C526 C 0.28719 0.98648 0.72028 0.0
C527 C 0.22258 0.97634 0.69251 0.0
C528 C 0.33107 0.05795 0.6959 0.0
C529 C 0.34467 0.112 0.69929 0.0
C530 C 0.39334 0.15651 0.69062 0.0
C531 C 0.42855 0.14549 0.67789 0.0
C532 C 0.41533 0.09031 0.67397 0.0
C533 C 0.36647 0.04624 0.68347 0.0
H534 H 0.25598 0.1703 0.05749 0.0
H535 H 0.20399 0.26895 0.09269 0.0
H536 H 0.28127 0.35386 0.07746 0.0
H537 H 0.4235 0.2771 0.05277 0.0
H538 H 0.42433 0.25759 0.02895 0.0
H539 H 0.37327 0.20624 0.04478 0.0
H540 H 0.28021 0.18256 0.02397 0.0
H541 H 0.33074 0.23399 0.00819 0.0
H542 H 0.2662 0.23719 0.01799 0.0
H543 H 0.35372 0.42552 0.0561 0.0
H544 H 0.41626 0.47918 0.02992 0.0
H545 H 0.41859 0.33357 0.00783 0.0
C546 C 0.26245 0.21005 0.06241 0.0
C547 C 0.22467 0.21329 0.07641 0.0
C548 C 0.23284 0.26573 0.08206 0.0
C549 C 0.27673 0.31415 0.07354 0.0
C550 C 0.3119 0.30937 0.05936 0.0
C551 C 0.30546 0.2587 0.05386 0.0
C552 C 0.34375 0.264 0.03693 0.0
C553 C 0.39422 0.25044 0.04111 0.0
C554 C 0.30276 0.22727 0.02083 0.0
C555 C 0.37119 0.32517 0.03347 0.0
C556 C 0.35296 0.35073 0.04672 0.0
C557 C 0.369 0.40618 0.04578 0.0
C558 C 0.40407 0.43617 0.03079 0.0
C559 C 0.42231 0.41053 0.01688 0.0
C560 C 0.40636 0.35455 0.01844 0.0
H561 H 0.03464 0.24942 0.39224 0.0
H562 H 0.0611 0.13427 0.35692 0.0
H563 H 0.06134 0.18463 0.32979 0.0
H564 H 0.93086 0.26206 0.36158 0.0
H565 H 0.9611 0.33462 0.3675 0.0
H566 H 0.96293 0.28944 0.38406 0.0
H567 H 0.081 0.35475 0.38768 0.0
H568 H 0.07956 0.40009 0.37113 0.0
H569 H 0.12969 0.37192 0.36767 0.0
H570 H 0.0646 0.25093 0.30675 0.0
H571 H 0.0635 0.32442 0.28924 0.0
H572 H 0.02873 0.3929 0.33939 0.0
C573 C 0.04042 0.23474 0.37879 0.0
C574 C 0.04823 0.18811 0.37667 0.0
C575 C 0.055 0.16985 0.35884 0.0
C576 C 0.05531 0.19826 0.34337 0.0
C577 C 0.04785 0.24428 0.34596 0.0
C578 C 0.03981 0.26201 0.36321 0.0
C579 C 0.0319 0.31217 0.36224 0.0
C580 C 0.96789 0.29875 0.36926 0.0
C581 C 0.08363 0.36271 0.37281 0.0
C582 C 0.03767 0.32047 0.34177 0.0
C583 C 0.04722 0.28105 0.33263 0.0
C584 C 0.05653 0.28162 0.31373 0.0
C585 C 0.05604 0.32352 0.30392 0.0
C586 C 0.04567 0.36389 0.31299 0.0
C587 C 0.03595 0.36202 0.33213 0.0
loop_
_geom_bond_atom_site_label_1
_geom_bond_atom_site_label_2
_geom_bond_distance
_geom_bond_site_symmetry_2
_ccdc_geom_bond_type
O0 Cd1 2.223 . S
O0 C8 1.315 . S
Cd1 O0 2.223 . S
Cd1 O4 2.297 . S
Cd1 O5 2.439 . S
Cd1 O11 2.240 . S
Cd2 O3 2.240 . S
Cd2 O10 2.223 1_545 S
Cd2 O12 2.297 1_545 S
Cd2 O13 2.439 1_545 S
O3 Cd2 2.240 . S
O3 C8 1.279 . S
O4 Cd1 2.297 . S
O4 C6 1.247 . S
O5 Cd1 2.439 . S
O5 C6 1.208 . S
C6 O4 1.247 . S
C6 O5 1.208 . S
C7 O12 1.247 . S
C7 O13 1.208 . S
C8 O0 1.315 . S
C8 O3 1.279 . S
C9 O10 1.315 . S
C9 O11 1.279 1_565 S
O10 Cd2 2.223 1_565 S
O10 C9 1.315 . S
O11 Cd1 2.240 . S
O11 C9 1.279 1_545 S
O12 Cd2 2.297 1_565 S
O12 C7 1.247 . S
O13 Cd2 2.439 1_565 S
O13 C7 1.208 . S
O14 Cd15 2.223 . S
O14 C22 1.315 1_455 S
Cd15 O14 2.223 . S
Cd15 O18 2.297 . S
Cd15 O19 2.439 . S
Cd15 O25 2.240 . S
Cd16 O17 2.240 1_565 S
Cd16 O24 2.223 1_655 S
Cd16 O26 2.297 1_655 S
Cd16 O27 2.439 1_655 S
O17 Cd16 2.240 1_545 S
O17 C22 1.279 . S
O18 Cd15 2.297 . S
O18 C20 1.247 . S
O19 Cd15 2.439 . S
O19 C20 1.208 . S
C20 O18 1.247 . S
C20 O19 1.208 . S
C21 O26 1.247 . S
C21 O27 1.208 . S
C22 O14 1.315 1_655 S
C22 O17 1.279 . S
C23 O24 1.315 1_545 S
C23 O25 1.279 . S
O24 Cd16 2.223 1_455 S
O24 C23 1.315 1_565 S
O25 Cd15 2.240 . S
O25 C23 1.279 . S
O26 Cd16 2.297 1_455 S
O26 C21 1.247 . S
O27 Cd16 2.439 1_455 S
O27 C21 1.208 . S
O28 Cd29 2.223 . S
O28 C36 1.315 . S
Cd29 O28 2.223 . S
Cd29 O32 2.297 1_445 S
Cd29 O33 2.439 . S
Cd29 O39 2.240 . S
Cd30 O31 2.240 . S
Cd30 O38 2.223 . S
Cd30 O40 2.297 . S
Cd30 O41 2.439 . S
O31 Cd30 2.240 . S
O31 C36 1.279 . S
O32 Cd29 2.297 1_665 S
O32 C34 1.247 . S
O33 Cd29 2.439 . S
O33 C34 1.208 1_445 S
C34 O32 1.247 . S
C34 O33 1.208 1_665 S
C35 O40 1.247 . S
C35 O41 1.208 . S
C36 O28 1.315 . S
C36 O31 1.279 . S
C37 O38 1.315 . S
C37 O39 1.279 . S
O38 Cd30 2.223 . S
O38 C37 1.315 . S
O39 Cd29 2.240 . S
O39 C37 1.279 . S
O40 Cd30 2.297 . S
O40 C35 1.247 . S
O41 Cd30 2.439 . S
O41 C35 1.208 . S
H42 O68 0.856 . S
H43 O71 0.854 . S
H44 C79 0.930 . S
H45 C80 0.930 . S
H46 C82 0.930 . S
H47 C83 0.930 . S
H48 C85 0.931 1_655 S
H49 C86 0.930 1_655 S
H50 C88 0.930 . S
H51 C89 0.929 . S
H52 C91 0.930 1_655 S
H53 C92 0.931 1_655 S
H54 C94 0.930 . S
H55 C95 0.929 . S
H56 C97 0.931 . S
H57 C98 0.949 . S
H58 C100 0.930 . S
H59 C101 0.932 . S
H60 C103 0.930 . S
H61 C104 0.929 . S
H62 C106 0.931 . S
H63 C107 0.930 . S
H64 C109 0.929 . S
H65 C110 0.931 . S
H66 C112 0.930 . S
H67 C113 0.929 . S
O68 H42 0.856 . S
O68 C114 1.300 . S
O69 C114 1.209 . S
O70 C115 1.199 . S
O71 H43 0.854 . S
O71 C115 1.297 . S
C72 C73 1.404 . S
C72 C77 1.397 . S
C72 C78 1.492 . S
C73 C72 1.404 . S
C73 C74 1.396 . S
C73 C84 1.492 . S
C74 C73 1.396 . S
C74 C75 1.397 . S
C74 C90 1.509 . S
C75 C74 1.397 . S
C75 C76 1.412 . S
C75 C96 1.485 . S
C76 C75 1.412 . S
C76 C77 1.388 . S
C76 C102 1.490 . S
C77 C72 1.397 . S
C77 C76 1.388 . S
C77 C108 1.519 . S
C78 C72 1.492 . S
C78 C79 1.363 1_455 S
C78 C83 1.390 . S
C79 H44 0.930 . S
C79 C78 1.363 1_655 S
C79 C80 1.372 . S
C80 H45 0.930 . S
C80 C79 1.372 . S
C80 C81 1.383 1_655 S
C81 C80 1.383 1_455 S
C81 C82 1.395 . S
C82 H46 0.930 . S
C82 C81 1.395 . S
C82 C83 1.362 . S
C83 H47 0.930 . S
C83 C78 1.390 . S
C83 C82 1.362 . S
C84 C73 1.492 . S
C84 C85 1.377 . S
C84 C89 1.397 . S
C85 H48 0.931 1_455 S
C85 C84 1.377 . S
C85 C86 1.376 . S
C86 H49 0.930 1_455 S
C86 C85 1.376 . S
C86 C87 1.376 . S
C87 C86 1.376 . S
C87 C88 1.378 . S
C87 C114 1.486 . S
C88 H50 0.930 . S
C88 C87 1.378 . S
C88 C89 1.376 . S
C89 H51 0.929 . S
C89 C84 1.397 . S
C89 C88 1.376 . S
C90 C74 1.509 . S
C90 C91 1.391 . S
C90 C95 1.386 . S
C91 H52 0.930 1_455 S
C91 C90 1.391 . S
C91 C92 1.375 . S
C92 H53 0.931 1_455 S
C92 C91 1.375 . S
C92 C93 1.375 . S
C93 C92 1.375 . S
C93 C94 1.361 . S
C94 H54 0.930 . S
C94 C93 1.361 . S
C94 C95 1.399 . S
C95 H55 0.929 . S
C95 C90 1.386 . S
C95 C94 1.399 . S
C96 C75 1.485 . S
C96 C97 1.394 1_455 S
C96 C101 1.360 . S
C97 H56 0.931 . S
C97 C96 1.394 1_655 S
C97 C98 1.362 . S
C98 H57 0.949 . S
C98 C97 1.362 . S
C98 C99 1.388 1_655 S
C99 C98 1.388 1_455 S
C99 C100 1.390 . S
C99 C115 1.476 . S
C100 H58 0.930 . S
C100 C99 1.390 . S
C100 C101 1.366 . S
C101 H59 0.932 . S
C101 C96 1.360 . S
C101 C100 1.366 . S
C102 C76 1.490 . S
C102 C103 1.380 1_455 S
C102 C107 1.386 . S
C103 H60 0.930 . S
C103 C102 1.380 1_655 S
C103 C104 1.381 . S
C104 H61 0.929 . S
C104 C103 1.381 . S
C104 C105 1.371 1_655 S
C105 C104 1.371 1_455 S
C105 C106 1.380 . S
C106 H62 0.931 . S
C106 C105 1.380 . S
C106 C107 1.387 . S
C107 H63 0.930 . S
C107 C102 1.386 . S
C107 C106 1.387 . S
C108 C77 1.519 . S
C108 C109 1.377 1_455 S
C108 C113 1.361 . S
C109 H64 0.929 . S
C109 C108 1.377 1_655 S
C109 C110 1.386 . S
C110 H65 0.931 . S
C110 C109 1.386 . S
C110 C111 1.363 1_655 S
C111 C110 1.363 1_455 S
C111 C112 1.385 . S
C112 H66 0.930 . S
C112 C111 1.385 . S
C112 C113 1.396 . S
C113 H67 0.929 . S
C113 C108 1.361 . S
C113 C112 1.396 . S
C114 O68 1.300 . S
C114 O69 1.209 . S
C114 C87 1.486 . S
C115 O70 1.199 . S
C115 O71 1.297 . S
C115 C99 1.476 . S
H116 O142 0.856 . S
H117 O145 0.854 . S
H118 C153 0.930 1_565 S
H119 C154 0.930 1_565 S
H120 C156 0.930 . S
H121 C157 0.930 . S
H122 C159 0.940 . S
H123 C160 0.921 1_565 S
H124 C162 0.930 . S
H125 C163 0.929 . S
H126 C165 0.930 . S
H127 C166 0.931 . S
H128 C168 0.930 . S
H129 C169 0.929 . S
H130 C171 0.931 . S
H131 C172 0.930 . S
H132 C174 0.930 . S
H133 C175 0.932 . S
H134 C177 0.930 1_565 S
H135 C178 0.929 1_565 S
H136 C180 0.931 . S
H137 C181 0.930 . S
H138 C183 0.914 1_565 S
H139 C184 0.931 . S
H140 C186 0.930 . S
H141 C187 0.929 . S
O142 H116 0.856 . S
O142 C188 1.300 . S
O143 C188 1.209 . S
O144 C189 1.199 . S
O145 H117 0.854 . S
O145 C189 1.297 . S
C146 C147 1.404 . S
C146 C151 1.397 . S
C146 C152 1.492 . S
C147 C146 1.404 . S
C147 C148 1.396 . S
C147 C158 1.492 . S
C148 C147 1.396 . S
C148 C149 1.397 . S
C148 C164 1.509 . S
C149 C148 1.397 . S
C149 C150 1.412 . S
C149 C170 1.485 . S
C150 C149 1.412 . S
C150 C151 1.388 . S
C150 C176 1.490 . S
C151 C146 1.397 . S
C151 C150 1.388 . S
C151 C182 1.519 . S
C152 C146 1.492 . S
C152 C153 1.363 . S
C152 C157 1.390 . S
C153 H118 0.930 1_545 S
C153 C152 1.363 . S
C153 C154 1.372 . S
C154 H119 0.930 1_545 S
C154 C153 1.372 . S
C154 C155 1.383 . S
C155 C154 1.383 . S
C155 C156 1.395 . S
C156 H120 0.930 . S
C156 C155 1.395 . S
C156 C157 1.362 . S
C157 H121 0.930 . S
C157 C152 1.390 . S
C157 C156 1.362 . S
C158 C147 1.492 . S
C158 C159 1.377 . S
C158 C163 1.397 . S
C159 H122 0.940 . S
C159 C158 1.377 . S
C159 C160 1.376 . S
C160 H123 0.921 1_545 S
C160 C159 1.376 . S
C160 C161 1.376 . S
C161 C160 1.376 . S
C161 C162 1.378 . S
C161 C188 1.486 . S
C162 H124 0.930 . S
C162 C161 1.378 . S
C162 C163 1.376 . S
C163 H125 0.929 . S
C163 C158 1.397 . S
C163 C162 1.376 . S
C164 C148 1.509 . S
C164 C165 1.391 . S
C164 C169 1.386 . S
C165 H126 0.930 . S
C165 C164 1.391 . S
C165 C166 1.375 . S
C166 H127 0.931 . S
C166 C165 1.375 . S
C166 C167 1.375 . S
C167 C166 1.375 . S
C167 C168 1.361 . S
C168 H128 0.930 . S
C168 C167 1.361 . S
C168 C169 1.399 . S
C169 H129 0.929 . S
C169 C164 1.386 . S
C169 C168 1.399 . S
C170 C149 1.485 . S
C170 C171 1.394 . S
C170 C175 1.360 . S
C171 H130 0.931 . S
C171 C170 1.394 . S
C171 C172 1.372 . S
C172 H131 0.930 . S
C172 C171 1.372 . S
C172 C173 1.397 . S
C173 C172 1.397 . S
C173 C174 1.390 . S
C173 C189 1.476 . S
C174 H132 0.930 . S
C174 C173 1.390 . S
C174 C175 1.366 . S
C175 H133 0.932 . S
C175 C170 1.360 . S
C175 C174 1.366 . S
C176 C150 1.490 . S
C176 C177 1.380 . S
C176 C181 1.386 . S
C177 H134 0.930 1_545 S
C177 C176 1.380 . S
C177 C178 1.381 . S
C178 H135 0.929 1_545 S
C178 C177 1.381 . S
C178 C179 1.371 . S
C179 C178 1.371 . S
C179 C180 1.380 . S
C180 H136 0.931 . S
C180 C179 1.380 . S
C180 C181 1.387 . S
C181 H137 0.930 . S
C181 C176 1.386 . S
C181 C180 1.387 . S
C182 C151 1.519 . S
C182 C183 1.377 . S
C182 C187 1.361 . S
C183 H138 0.914 1_545 S
C183 C182 1.377 . S
C183 C184 1.386 . S
C184 H139 0.931 . S
C184 C183 1.386 . S
C184 C185 1.363 . S
C185 C184 1.363 . S
C185 C186 1.385 . S
C186 H140 0.930 . S
C186 C185 1.385 . S
C186 C187 1.396 . S
C187 H141 0.929 . S
C187 C182 1.361 . S
C187 C186 1.396 . S
C188 O142 1.300 . S
C188 O143 1.209 . S
C188 C161 1.486 . S
C189 O144 1.199 . S
C189 O145 1.297 . S
C189 C173 1.476 . S
H190 O216 0.856 . S
H191 O219 0.854 . S
H192 C227 0.930 . S
H193 C228 0.930 . S
H194 C230 0.930 . S
H195 C231 0.930 . S
H196 C233 0.931 . S
H197 C234 0.930 . S
H198 C236 0.930 . S
H199 C237 0.929 . S
H200 C239 0.930 . S
H201 C240 0.931 . S
H202 C242 0.930 . S
H203 C243 0.929 . S
H204 C245 0.931 . S
H205 C246 0.930 . S
H206 C248 0.930 . S
H207 C249 0.932 . S
H208 C251 0.930 . S
H209 C252 0.929 . S
H210 C254 0.931 . S
H211 C255 0.930 . S
H212 C257 0.929 . S
H213 C258 0.931 . S
H214 C260 0.930 . S
H215 C261 0.929 . S
O216 H190 0.856 . S
O216 C262 1.300 . S
O217 C262 1.209 . S
O218 C263 1.199 . S
O219 H191 0.854 . S
O219 C263 1.297 . S
C220 C221 1.404 . S
C220 C225 1.397 . S
C220 C226 1.492 . S
C221 C220 1.404 . S
C221 C222 1.396 . S
C221 C232 1.492 . S
C222 C221 1.396 . S
C222 C223 1.397 . S
C222 C238 1.509 . S
C223 C222 1.397 . S
C223 C224 1.412 . S
C223 C244 1.485 . S
C224 C223 1.412 . S
C224 C225 1.388 . S
C224 C250 1.490 . S
C225 C220 1.397 . S
C225 C224 1.388 . S
C225 C256 1.519 . S
C226 C220 1.492 . S
C226 C227 1.363 . S
C226 C231 1.390 . S
C227 H192 0.930 . S
C227 C226 1.363 . S
C227 C228 1.372 . S
C228 H193 0.930 . S
C228 C227 1.372 . S
C228 C229 1.383 . S
C229 C228 1.383 . S
C229 C230 1.395 . S
C230 H194 0.930 . S
C230 C229 1.395 . S
C230 C231 1.362 . S
C231 H195 0.930 . S
C231 C226 1.390 . S
C231 C230 1.362 . S
C232 C221 1.492 . S
C232 C233 1.377 . S
C232 C237 1.397 . S
C233 H196 0.931 . S
C233 C232 1.377 . S
C233 C234 1.376 1_556 S
C234 H197 0.930 . S
C234 C233 1.376 1_554 S
C234 C235 1.376 . S
C235 C234 1.376 . S
C235 C236 1.378 . S
C235 C262 1.486 . S
C236 H198 0.930 . S
C236 C235 1.378 . S
C236 C237 1.376 1_554 S
C237 H199 0.929 . S
C237 C232 1.397 . S
C237 C236 1.376 1_556 S
C238 C222 1.509 . S
C238 C239 1.391 . S
C238 C243 1.386 . S
C239 H200 0.930 . S
C239 C238 1.391 . S
C239 C240 1.375 . S
C240 H201 0.931 . S
C240 C239 1.375 . S
C240 C241 1.375 . S
C241 C240 1.375 . S
C241 C242 1.361 . S
C242 H202 0.930 . S
C242 C241 1.361 . S
C242 C243 1.399 . S
C243 H203 0.929 . S
C243 C238 1.386 . S
C243 C242 1.399 . S
C244 C223 1.485 . S
C244 C245 1.394 . S
C244 C249 1.360 . S
C245 H204 0.931 . S
C245 C244 1.394 . S
C245 C246 1.372 . S
C246 H205 0.930 . S
C246 C245 1.372 . S
C246 C247 1.397 . S
C247 C246 1.397 . S
C247 C248 1.390 . S
C247 C263 1.476 . S
C248 H206 0.930 . S
C248 C247 1.390 . S
C248 C249 1.366 . S
C249 H207 0.932 . S
C249 C244 1.360 . S
C249 C248 1.366 . S
C250 C224 1.490 . S
C250 C251 1.380 . S
C250 C255 1.386 . S
C251 H208 0.930 . S
C251 C250 1.380 . S
C251 C252 1.381 . S
C252 H209 0.929 . S
C252 C251 1.381 . S
C252 C253 1.371 . S
C253 C252 1.371 . S
C253 C254 1.380 . S
C254 H210 0.931 . S
C254 C253 1.380 . S
C254 C255 1.387 . S
C255 H211 0.930 . S
C255 C250 1.386 . S
C255 C254 1.387 . S
C256 C225 1.519 . S
C256 C257 1.377 . S
C256 C261 1.361 . S
C257 H212 0.929 . S
C257 C256 1.377 . S
C257 C258 1.386 . S
C258 H213 0.931 . S
C258 C257 1.386 . S
C258 C259 1.363 . S
C259 C258 1.363 . S
C259 C260 1.385 . S
C260 H214 0.930 . S
C260 C259 1.385 . S
C260 C261 1.396 . S
C261 H215 0.929 . S
C261 C256 1.361 . S
C261 C260 1.396 . S
C262 O216 1.300 . S
C262 O217 1.209 . S
C262 C235 1.486 . S
C263 O218 1.199 . S
C263 O219 1.297 . S
C263 C247 1.476 . S
H264 C276 0.930 . S
H265 C278 0.930 . S
H266 C279 0.930 . S
H267 C283 0.959 . S
H268 C283 0.959 . S
H269 C283 0.961 . S
H270 C284 0.960 . S
H271 C284 0.961 . S
H272 C284 0.959 . S
H273 C287 0.929 1_655 S
H274 C288 0.945 . S
H275 C290 0.930 . S
C276 H264 0.930 . S
C276 C277 1.399 . S
C276 C281 1.399 . S
C277 C276 1.399 . S
C277 C278 1.376 . S
C278 H265 0.930 . S
C278 C277 1.376 . S
C278 C279 1.388 . S
C279 H266 0.930 . S
C279 C278 1.388 . S
C279 C280 1.390 . S
C280 C279 1.390 . S
C280 C281 1.394 . S
C280 C286 1.465 . S
C281 C276 1.399 . S
C281 C280 1.394 . S
C281 C282 1.516 . S
C282 C281 1.516 . S
C282 C283 1.502 . S
C282 C284 1.561 . S
C282 C285 1.526 . S
C283 H267 0.959 . S
C283 H268 0.959 . S
C283 H269 0.961 . S
C283 C282 1.502 . S
C284 H270 0.960 . S
C284 H271 0.961 . S
C284 H272 0.959 . S
C284 C282 1.561 . S
C285 C282 1.526 . S
C285 C286 1.396 . S
C285 C290 1.390 . S
C286 C280 1.465 . S
C286 C285 1.396 . S
C286 C287 1.399 . S
C287 H273 0.929 1_455 S
C287 C286 1.399 . S
C287 C288 1.380 1_455 S
C288 H274 0.945 . S
C288 C287 1.380 1_655 S
C288 C289 1.380 1_655 S
C289 C288 1.380 1_455 S
C289 C290 1.387 . S
C290 H275 0.930 . S
C290 C285 1.390 . S
C290 C289 1.387 . S
H291 C303 0.930 . S
H292 C305 0.930 . S
H293 C306 0.930 . S
H294 C310 0.959 . S
H295 C310 0.959 . S
H296 C310 0.961 1_455 S
H297 C311 0.960 . S
H298 C311 0.961 . S
H299 C311 0.959 . S
H300 C314 0.929 . S
H301 C315 0.931 . S
H302 C317 0.930 . S
C303 H291 0.930 . S
C303 C304 1.399 . S
C303 C308 1.399 . S
C304 C303 1.399 . S
C304 C305 1.376 1_545 S
C305 H292 0.930 . S
C305 C304 1.376 1_565 S
C305 C306 1.388 . S
C306 H293 0.930 . S
C306 C305 1.388 . S
C306 C307 1.390 1_565 S
C307 C306 1.390 1_545 S
C307 C308 1.394 . S
C307 C313 1.465 . S
C308 C303 1.399 . S
C308 C307 1.394 . S
C308 C309 1.516 . S
C309 C308 1.516 . S
C309 C310 1.502 . S
C309 C311 1.561 . S
C309 C312 1.526 . S
C310 H294 0.959 . S
C310 H295 0.959 . S
C310 H296 0.961 1_655 S
C310 C309 1.502 . S
C311 H297 0.960 . S
C311 H298 0.961 . S
C311 H299 0.959 . S
C311 C309 1.561 . S
C312 C309 1.526 . S
C312 C313 1.396 . S
C312 C317 1.390 . S
C313 C307 1.465 . S
C313 C312 1.396 . S
C313 C314 1.399 1_545 S
C314 H300 0.929 . S
C314 C313 1.399 1_565 S
C314 C315 1.385 . S
C315 H301 0.931 . S
C315 C314 1.385 . S
C315 C316 1.389 1_565 S
C316 C315 1.389 1_545 S
C316 C317 1.387 . S
C317 H302 0.930 . S
C317 C312 1.390 . S
C317 C316 1.387 . S
H318 C330 0.930 . S
H319 C332 0.930 . S
H320 C333 0.930 . S
H321 C337 0.959 . S
H322 C337 0.959 . S
H323 C337 0.961 . S
H324 C338 0.960 . S
H325 C338 0.961 . S
H326 C338 0.959 . S
H327 C341 0.929 . S
H328 C342 0.931 . S
H329 C344 0.930 . S
C330 H318 0.930 . S
C330 C331 1.399 . S
C330 C335 1.399 . S
C331 C330 1.399 . S
C331 C332 1.376 . S
C332 H319 0.930 . S
C332 C331 1.376 . S
C332 C333 1.388 . S
C333 H320 0.930 . S
C333 C332 1.388 . S
C333 C334 1.390 . S
C334 C333 1.390 . S
C334 C335 1.394 . S
C334 C340 1.465 . S
C335 C330 1.399 . S
C335 C334 1.394 . S
C335 C336 1.516 . S
C336 C335 1.516 . S
C336 C337 1.502 . S
C336 C338 1.561 . S
C336 C339 1.526 . S
C337 H321 0.959 . S
C337 H322 0.959 . S
C337 H323 0.961 . S
C337 C336 1.502 . S
C338 H324 0.960 . S
C338 H325 0.961 . S
C338 H326 0.959 . S
C338 C336 1.561 . S
C339 C336 1.526 . S
C339 C340 1.396 . S
C339 C344 1.390 . S
C340 C334 1.465 . S
C340 C339 1.396 . S
C340 C341 1.399 . S
C341 H327 0.929 . S
C341 C340 1.399 . S
C341 C342 1.385 . S
C342 H328 0.931 . S
C342 C341 1.385 . S
C342 C343 1.389 . S
C343 C342 1.389 . S
C343 C344 1.387 . S
C344 H329 0.930 . S
C344 C339 1.390 . S
C344 C343 1.387 . S
H345 C357 0.930 . S
H346 C359 0.930 . S
H347 C360 0.930 . S
H348 C364 0.959 . S
H349 C364 0.959 . S
H350 C364 0.961 . S
H351 C365 0.960 . S
H352 C365 0.961 . S
H353 C365 0.959 . S
H354 C368 0.929 . S
H355 C369 0.931 . S
H356 C371 0.930 . S
C357 H345 0.930 . S
C357 C358 1.399 . S
C357 C362 1.399 . S
C358 C357 1.399 . S
C358 C359 1.376 . S
C359 H346 0.930 . S
C359 C358 1.376 . S
C359 C360 1.388 . S
C360 H347 0.930 . S
C360 C359 1.388 . S
C360 C361 1.390 . S
C361 C360 1.390 . S
C361 C362 1.394 . S
C361 C367 1.465 . S
C362 C357 1.399 . S
C362 C361 1.394 . S
C362 C363 1.516 . S
C363 C362 1.516 . S
C363 C364 1.502 . S
C363 C365 1.561 1_455 S
C363 C366 1.526 . S
C364 H348 0.959 . S
C364 H349 0.959 . S
C364 H350 0.961 . S
C364 C363 1.502 . S
C365 H351 0.960 . S
C365 H352 0.961 . S
C365 H353 0.959 . S
C365 C363 1.561 1_655 S
C366 C363 1.526 . S
C366 C367 1.396 . S
C366 C371 1.390 . S
C367 C361 1.465 . S
C367 C366 1.396 . S
C367 C368 1.399 . S
C368 H354 0.929 . S
C368 C367 1.399 . S
C368 C369 1.385 . S
C369 H355 0.931 . S
C369 C368 1.385 . S
C369 C370 1.389 . S
C370 C369 1.389 . S
C370 C371 1.387 . S
C371 H356 0.930 . S
C371 C366 1.390 . S
C371 C370 1.387 . S
H372 C384 0.930 . S
H373 C386 0.930 . S
H374 C387 0.930 . S
H375 C391 0.959 1_565 S
H376 C391 0.959 . S
H377 C391 0.961 . S
H378 C392 0.960 . S
H379 C392 0.961 . S
H380 C392 0.959 . S
H381 C395 0.929 . S
H382 C396 0.931 . S
H383 C398 0.930 . S
C384 H372 0.930 . S
C384 C385 1.399 . S
C384 C389 1.399 . S
C385 C384 1.399 . S
C385 C386 1.376 . S
C386 H373 0.930 . S
C386 C385 1.376 . S
C386 C387 1.388 . S
C387 H374 0.930 . S
C387 C386 1.388 . S
C387 C388 1.390 . S
C388 C387 1.390 . S
C388 C389 1.394 . S
C388 C394 1.465 . S
C389 C384 1.399 . S
C389 C388 1.394 . S
C389 C390 1.516 . S
C390 C389 1.516 . S
C390 C391 1.502 . S
C390 C392 1.561 . S
C390 C393 1.526 . S
C391 H375 0.959 1_545 S
C391 H376 0.959 . S
C391 H377 0.961 . S
C391 C390 1.502 . S
C392 H378 0.960 . S
C392 H379 0.961 . S
C392 H380 0.959 . S
C392 C390 1.561 . S
C393 C390 1.526 . S
C393 C394 1.396 . S
C393 C398 1.390 . S
C394 C388 1.465 . S
C394 C393 1.396 . S
C394 C395 1.399 . S
C395 H381 0.929 . S
C395 C394 1.399 . S
C395 C396 1.385 . S
C396 H382 0.931 . S
C396 C395 1.385 . S
C396 C397 1.389 . S
C397 C396 1.389 . S
C397 C398 1.387 . S
C398 H383 0.930 . S
C398 C393 1.390 . S
C398 C397 1.387 . S
H399 C411 0.930 . S
H400 C413 0.930 . S
H401 C414 0.930 . S
H402 C418 0.959 . S
H403 C418 0.959 . S
H404 C418 0.961 . S
H405 C419 0.960 . S
H406 C419 0.961 . S
H407 C419 0.959 . S
H408 C422 0.929 . S
H409 C423 0.931 . S
H410 C425 0.930 . S
C411 H399 0.930 . S
C411 C412 1.399 . S
C411 C416 1.399 . S
C412 C411 1.399 . S
C412 C413 1.376 . S
C413 H400 0.930 . S
C413 C412 1.376 . S
C413 C414 1.388 . S
C414 H401 0.930 . S
C414 C413 1.388 . S
C414 C415 1.390 . S
C415 C414 1.390 . S
C415 C416 1.394 . S
C415 C421 1.465 . S
C416 C411 1.399 . S
C416 C415 1.394 . S
C416 C417 1.516 . S
C417 C416 1.516 . S
C417 C418 1.502 . S
C417 C419 1.561 . S
C417 C420 1.526 . S
C418 H402 0.959 . S
C418 H403 0.959 . S
C418 H404 0.961 . S
C418 C417 1.502 . S
C419 H405 0.960 . S
C419 H406 0.961 . S
C419 H407 0.959 . S
C419 C417 1.561 . S
C420 C417 1.526 . S
C420 C421 1.396 . S
C420 C425 1.390 . S
C421 C415 1.465 . S
C421 C420 1.396 . S
C421 C422 1.399 . S
C422 H408 0.929 . S
C422 C421 1.399 . S
C422 C423 1.385 . S
C423 H409 0.931 . S
C423 C422 1.385 . S
C423 C424 1.389 . S
C424 C423 1.389 . S
C424 C425 1.387 . S
C425 H410 0.930 . S
C425 C420 1.390 . S
C425 C424 1.387 . S
H426 C438 0.930 . S
H427 C440 0.930 . S
H428 C441 0.930 . S
H429 C445 0.959 . S
H430 C445 0.959 . S
H431 C445 0.961 . S
H432 C446 0.960 . S
H433 C446 0.961 . S
H434 C446 0.959 . S
H435 C449 0.929 . S
H436 C450 0.931 . S
H437 C452 0.930 . S
C438 H426 0.930 . S
C438 C439 1.399 . S
C438 C443 1.399 . S
C439 C438 1.399 . S
C439 C440 1.376 . S
C440 H427 0.930 . S
C440 C439 1.376 . S
C440 C441 1.388 . S
C441 H428 0.930 . S
C441 C440 1.388 . S
C441 C442 1.390 . S
C442 C441 1.390 . S
C442 C443 1.394 . S
C442 C448 1.465 . S
C443 C438 1.399 . S
C443 C442 1.394 . S
C443 C444 1.516 . S
C444 C443 1.516 . S
C444 C445 1.502 . S
C444 C446 1.561 1_545 S
C444 C447 1.526 . S
C445 H429 0.959 . S
C445 H430 0.959 . S
C445 H431 0.961 . S
C445 C444 1.502 . S
C446 H432 0.960 . S
C446 H433 0.961 . S
C446 H434 0.959 . S
C446 C444 1.561 1_565 S
C447 C444 1.526 . S
C447 C448 1.396 . S
C447 C452 1.390 . S
C448 C442 1.465 . S
C448 C447 1.396 . S
C448 C449 1.399 . S
C449 H435 0.929 . S
C449 C448 1.399 . S
C449 C450 1.385 . S
C450 H436 0.931 . S
C450 C449 1.385 . S
C450 C451 1.389 . S
C451 C450 1.389 . S
C451 C452 1.387 . S
C452 H437 0.930 . S
C452 C447 1.390 . S
C452 C451 1.387 . S
H453 C465 0.930 . S
H454 C467 0.930 1_545 S
H455 C468 0.930 1_545 S
H456 C472 0.959 . S
H457 C472 0.959 . S
H458 C472 0.961 . S
H459 C473 0.960 . S
H460 C473 0.961 . S
H461 C473 0.959 . S
H462 C476 0.929 . S
H463 C477 0.931 . S
H464 C479 0.930 . S
C465 H453 0.930 . S
C465 C466 1.399 . S
C465 C470 1.399 . S
C466 C465 1.399 . S
C466 C467 1.376 . S
C467 H454 0.930 1_565 S
C467 C466 1.376 . S
C467 C468 1.388 . S
C468 H455 0.930 1_565 S
C468 C467 1.388 . S
C468 C469 1.390 . S
C469 C468 1.390 . S
C469 C470 1.394 . S
C469 C475 1.465 . S
C470 C465 1.399 . S
C470 C469 1.394 . S
C470 C471 1.516 . S
C471 C470 1.516 . S
C471 C472 1.502 . S
C471 C473 1.561 . S
C471 C474 1.526 . S
C472 H456 0.959 . S
C472 H457 0.959 . S
C472 H458 0.961 . S
C472 C471 1.502 . S
C473 H459 0.960 . S
C473 H460 0.961 . S
C473 H461 0.959 . S
C473 C471 1.561 . S
C474 C471 1.526 . S
C474 C475 1.396 . S
C474 C479 1.390 1_554 S
C475 C469 1.465 . S
C475 C474 1.396 . S
C475 C476 1.399 1_554 S
C476 H462 0.929 . S
C476 C475 1.399 1_556 S
C476 C477 1.385 . S
C477 H463 0.931 . S
C477 C476 1.385 . S
C477 C478 1.389 . S
C478 C477 1.389 . S
C478 C479 1.387 . S
C479 H464 0.930 . S
C479 C474 1.390 1_556 S
C479 C478 1.387 . S
H480 C492 0.930 . S
H481 C494 0.930 . S
H482 C495 0.930 . S
H483 C499 0.959 . S
H484 C499 0.959 . S
H485 C499 0.961 . S
H486 C500 0.960 . S
H487 C500 0.961 . S
H488 C500 0.959 . S
H489 C503 0.929 . S
H490 C504 0.931 . S
H491 C506 0.925 1_655 S
C492 H480 0.930 . S
C492 C493 1.399 . S
C492 C497 1.399 . S
C493 C492 1.399 . S
C493 C494 1.376 . S
C494 H481 0.930 . S
C494 C493 1.376 . S
C494 C495 1.388 . S
C495 H482 0.930 . S
C495 C494 1.388 . S
C495 C496 1.390 . S
C496 C495 1.390 . S
C496 C497 1.394 . S
C496 C502 1.465 . S
C497 C492 1.399 . S
C497 C496 1.394 . S
C497 C498 1.516 . S
C498 C497 1.516 . S
C498 C499 1.502 1_455 S
C498 C500 1.561 . S
C498 C501 1.526 . S
C499 H483 0.959 . S
C499 H484 0.959 . S
C499 H485 0.961 . S
C499 C498 1.502 1_655 S
C500 H486 0.960 . S
C500 H487 0.961 . S
C500 H488 0.959 . S
C500 C498 1.561 . S
C501 C498 1.526 . S
C501 C502 1.396 . S
C501 C506 1.386 . S
C502 C496 1.465 . S
C502 C501 1.396 . S
C502 C503 1.399 . S
C503 H489 0.929 . S
C503 C502 1.399 . S
C503 C504 1.385 . S
C504 H490 0.931 . S
C504 C503 1.385 . S
C504 C505 1.389 . S
C505 C504 1.389 . S
C505 C506 1.395 . S
C506 H491 0.925 1_455 S
C506 C501 1.386 . S
C506 C505 1.395 . S
H507 C519 0.930 . S
H508 C521 0.930 . S
H509 C522 0.930 . S
H510 C526 0.959 . S
H511 C526 0.959 . S
H512 C526 0.961 . S
H513 C527 0.960 . S
H514 C527 0.961 . S
H515 C527 0.959 . S
H516 C530 0.929 . S
H517 C531 0.931 . S
H518 C533 0.930 . S
C519 H507 0.930 . S
C519 C520 1.399 . S
C519 C524 1.399 . S
C520 C519 1.399 . S
C520 C521 1.376 . S
C521 H508 0.930 . S
C521 C520 1.376 . S
C521 C522 1.388 . S
C522 H509 0.930 . S
C522 C521 1.388 . S
C522 C523 1.390 . S
C523 C522 1.390 . S
C523 C524 1.394 . S
C523 C529 1.465 . S
C524 C519 1.399 . S
C524 C523 1.394 . S
C524 C525 1.516 . S
C525 C524 1.516 . S
C525 C526 1.502 . S
C525 C527 1.561 1_545 S
C525 C528 1.526 . S
C526 H510 0.959 . S
C526 H511 0.959 . S
C526 H512 0.961 . S
C526 C525 1.502 . S
C527 H513 0.960 . S
C527 H514 0.961 . S
C527 H515 0.959 . S
C527 C525 1.561 1_565 S
C528 C525 1.526 . S
C528 C529 1.396 . S
C528 C533 1.390 . S
C529 C523 1.465 . S
C529 C528 1.396 . S
C529 C530 1.399 . S
C530 H516 0.929 . S
C530 C529 1.399 . S
C530 C531 1.385 . S
C531 H517 0.931 . S
C531 C530 1.385 . S
C531 C532 1.389 . S
C532 C531 1.389 . S
C532 C533 1.387 . S
C533 H518 0.930 . S
C533 C528 1.390 . S
C533 C532 1.387 . S
H534 C546 0.930 . S
H535 C548 0.930 . S
H536 C549 0.930 . S
H537 C553 0.959 . S
H538 C553 1.007 . S
H539 C553 0.961 . S
H540 C554 0.960 . S
H541 C554 0.961 1_556 S
H542 C554 0.959 . S
H543 C557 0.929 . S
H544 C558 0.931 . S
H545 C560 0.930 1_556 S
C546 H534 0.930 . S
C546 C547 1.399 . S
C546 C551 1.399 . S
C547 C546 1.399 . S
C547 C548 1.376 . S
C548 H535 0.930 . S
C548 C547 1.376 . S
C548 C549 1.388 . S
C549 H536 0.930 . S
C549 C548 1.388 . S
C549 C550 1.390 . S
C550 C549 1.390 . S
C550 C551 1.394 . S
C550 C556 1.465 . S
C551 C546 1.399 . S
C551 C550 1.394 . S
C551 C552 1.516 . S
C552 C551 1.516 . S
C552 C553 1.502 . S
C552 C554 1.561 . S
C552 C555 1.526 . S
C553 H537 0.959 . S
C553 H538 1.007 . S
C553 H539 0.961 . S
C553 C552 1.502 . S
C554 H540 0.960 . S
C554 H541 0.961 1_554 S
C554 H542 0.959 . S
C554 C552 1.561 . S
C555 C552 1.526 . S
C555 C556 1.396 . S
C555 C560 1.390 . S
C556 C550 1.465 . S
C556 C555 1.396 . S
C556 C557 1.399 . S
C557 H543 0.929 . S
C557 C556 1.399 . S
C557 C558 1.385 . S
C558 H544 0.931 . S
C558 C557 1.385 . S
C558 C559 1.389 . S
C559 C558 1.389 . S
C559 C560 1.387 . S
C560 H545 0.930 1_554 S
C560 C555 1.390 . S
C560 C559 1.387 . S
H561 C573 0.930 . S
H562 C575 0.930 . S
H563 C576 0.930 . S
H564 C580 0.959 . S
H565 C580 0.959 . S
H566 C580 0.961 . S
H567 C581 0.960 . S
H568 C581 0.961 . S
H569 C581 0.959 . S
H570 C584 0.929 . S
H571 C585 0.931 . S
H572 C587 0.930 1_655 S
C573 H561 0.930 . S
C573 C574 1.399 1_655 S
C573 C578 1.399 1_655 S
C574 C573 1.399 1_455 S
C574 C575 1.376 . S
C575 H562 0.930 . S
C575 C574 1.376 . S
C575 C576 1.388 . S
C576 H563 0.930 . S
C576 C575 1.388 . S
C576 C577 1.390 . S
C577 C576 1.390 . S
C577 C578 1.394 . S
C577 C583 1.465 . S
C578 C573 1.399 1_455 S
C578 C577 1.394 . S
C578 C579 1.516 1_455 S
C579 C578 1.516 1_655 S
C579 C580 1.502 . S
C579 C581 1.561 . S
C579 C582 1.526 1_655 S
C580 H564 0.959 . S
C580 H565 0.959 . S
C580 H566 0.961 . S
C580 C579 1.502 . S
C581 H567 0.960 . S
C581 H568 0.961 . S
C581 H569 0.959 . S
C581 C579 1.561 . S
C582 C579 1.526 1_455 S
C582 C583 1.396 . S
C582 C587 1.390 . S
C583 C577 1.465 . S
C583 C582 1.396 . S
C583 C584 1.399 . S
C584 H570 0.929 . S
C584 C583 1.399 . S
C584 C585 1.385 . S
C585 H571 0.931 . S
C585 C584 1.385 . S
C585 C586 1.389 . S
C586 C585 1.389 . S
C586 C587 1.387 . S
C587 H572 0.930 1_455 S
C587 C582 1.390 . S
C587 C586 1.387 . S
C289 C81 1.390 . S
C277 C6 1.505 . S
C304 C22 1.578 . S
C316 C155 1.453 . S
C331 C34 1.885 . S
C343 C259 1.920 . S
C358 C7 0.804 . S
C370 C93 0.853 . S
C397 C167 0.927 . S
C385 C23 0.953 . S
C412 C35 1.302 . S
C424 C253 1.191 . S
C451 C185 2.166 . S
C439 C36 2.158 1_655 S
C466 C9 1.813 1_655 S
C478 C229 1.749 . S
C505 C105 1.520 . S
C493 C21 1.553 . S
C532 C179 1.428 . S
C520 C37 1.590 . S
C559 C241 1.114 1_554 S
C547 C8 1.069 . S
C574 C20 2.147 . S
C586 C111 2.202 . S
