# Generated by pormake.
# Topology zzz, (3,6)-cn, num edge types: 1
# Building blocks:
#     Node 0, Type 0, BuildingBlock: MIDCAF_clean_linker_0, # of connection points: 3
#     Node 1, Type 0, BuildingBlock: MIDCAF_clean_linker_0, # of connection points: 3
#     Node 2, Type 0, BuildingBlock: MIDCAF_clean_linker_0, # of connection points: 3
#     Node 3, Type 0, BuildingBlock: MIDCAF_clean_linker_0, # of connection points: 3
#     Node 4, Type 0, BuildingBlock: MIDCAF_clean_linker_0, # of connection points: 3
#     Node 5, Type 0, BuildingBlock: MIDCAF_clean_linker_0, # of connection points: 3
#     Node 6, Type 0, BuildingBlock: MIDCAF_clean_linker_0, # of connection points: 3
#     Node 7, Type 0, BuildingBlock: MIDCAF_clean_linker_0, # of connection points: 3
#     Node 8, Type 1, BuildingBlock: KUMBUR_clean_sbu_1, # of connection points: 6
#     Node 9, Type 1, BuildingBlock: KUMBUR_clean_sbu_1, # of connection points: 6
#     Node 10, Type 1, BuildingBlock: KUMBUR_clean_sbu_1, # of connection points: 6
#     Node 11, Type 1, BuildingBlock: KUMBUR_clean_sbu_1, # of connection points: 6
#     Edge 12, Type (0, 1), BuildingBlock: AJUNOK_clean_linker_0, # of connection points: 2
#     Edge 13, Type (0, 1), BuildingBlock: AJUNOK_clean_linker_0, # of connection points: 2
#     Edge 14, Type (0, 1), BuildingBlock: AJUNOK_clean_linker_0, # of connection points: 2
#     Edge 15, Type (0, 1), BuildingBlock: AJUNOK_clean_linker_0, # of connection points: 2
#     Edge 16, Type (0, 1), BuildingBlock: AJUNOK_clean_linker_0, # of connection points: 2
#     Edge 17, Type (0, 1), BuildingBlock: AJUNOK_clean_linker_0, # of connection points: 2
#     Edge 18, Type (0, 1), BuildingBlock: AJUNOK_clean_linker_0, # of connection points: 2
#     Edge 19, Type (0, 1), BuildingBlock: AJUNOK_clean_linker_0, # of connection points: 2
#     Edge 20, Type (0, 1), BuildingBlock: AJUNOK_clean_linker_0, # of connection points: 2
#     Edge 21, Type (0, 1), BuildingBlock: AJUNOK_clean_linker_0, # of connection points: 2
#     Edge 22, Type (0, 1), BuildingBlock: AJUNOK_clean_linker_0, # of connection points: 2
#     Edge 23, Type (0, 1), BuildingBlock: AJUNOK_clean_linker_0, # of connection points: 2
#     Edge 24, Type (0, 1), BuildingBlock: AJUNOK_clean_linker_0, # of connection points: 2
#     Edge 25, Type (0, 1), BuildingBlock: AJUNOK_clean_linker_0, # of connection points: 2
#     Edge 26, Type (0, 1), BuildingBlock: AJUNOK_clean_linker_0, # of connection points: 2
#     Edge 27, Type (0, 1), BuildingBlock: AJUNOK_clean_linker_0, # of connection points: 2
#     Edge 28, Type (0, 1), BuildingBlock: AJUNOK_clean_linker_0, # of connection points: 2
#     Edge 29, Type (0, 1), BuildingBlock: AJUNOK_clean_linker_0, # of connection points: 2
#     Edge 30, Type (0, 1), BuildingBlock: AJUNOK_clean_linker_0, # of connection points: 2
#     Edge 31, Type (0, 1), BuildingBlock: AJUNOK_clean_linker_0, # of connection points: 2
#     Edge 32, Type (0, 1), BuildingBlock: AJUNOK_clean_linker_0, # of connection points: 2
#     Edge 33, Type (0, 1), BuildingBlock: AJUNOK_clean_linker_0, # of connection points: 2
#     Edge 34, Type (0, 1), BuildingBlock: AJUNOK_clean_linker_0, # of connection points: 2
#     Edge 35, Type (0, 1), BuildingBlock: AJUNOK_clean_linker_0, # of connection points: 2
# Relax obj value: 0.356
# Max RMSD: 0.207
# Mean RMSD: 0.185
data_MOF--net-zzz--node1-KUMBUR_clean_sbu_1--node2-MIDCAF_clean_linker_0--edge1-AJUNOK_clean_linker_0
_symmetry_space_group_name_H-M    P1
_symmetry_Int_Tables_number       1
_symmetry_cell_setting            triclinic
loop_
_symmetry_equiv_pos_as_xyz
'x, y, z'
_cell_length_a     44.028749
_cell_length_b     44.105284
_cell_length_c     16.367345
_cell_angle_alpha  90.008405
_cell_angle_beta   89.985718
_cell_angle_gamma 90.369688
loop_
_atom_site_label
_atom_site_type_symbol
_atom_site_fract_x
_atom_site_fract_y
_atom_site_fract_z
_atom_type_partial_charge
C0 C 0.82745 0.55607 0.47331 0.0
C1 C 0.85226 0.53708 0.45416 0.0
C2 C 0.8511 0.5215 0.37905 0.0
C3 C 0.82724 0.5262 0.3231 0.0
H4 H 0.7037 0.51069 0.18696 0.0
H5 H 0.65712 0.50403 0.10609 0.0
H6 H 0.65262 0.60098 0.0722 0.0
H7 H 0.69728 0.60734 0.1567 0.0
H8 H 0.75952 0.59789 0.99384 0.0
H9 H 0.78556 0.59336 0.86348 0.0
H10 H 0.87074 0.58262 0.99104 0.0
H11 H 0.84496 0.58699 0.1205 0.0
H12 H 0.78569 0.57663 0.43235 0.0
H13 H 0.82709 0.5682 0.53081 0.0
H14 H 0.86963 0.50685 0.36133 0.0
H15 H 0.82845 0.51534 0.26382 0.0
N16 N 0.75258 0.55317 0.26596 0.0
N17 N 0.75309 0.57802 0.13854 0.0
N18 N 0.79859 0.57105 0.20842 0.0
C19 C 0.73722 0.56401 0.19847 0.0
C20 C 0.78348 0.58162 0.14222 0.0
C21 C 0.7837 0.55734 0.27129 0.0
C22 C 0.70403 0.55963 0.18068 0.0
C23 C 0.69163 0.53061 0.16645 0.0
C24 C 0.66521 0.52683 0.11794 0.0
C25 C 0.65054 0.55192 0.08123 0.0
C26 C 0.66209 0.58095 0.10022 0.0
C27 C 0.68802 0.58468 0.14939 0.0
C28 C 0.80003 0.59117 0.06769 0.0
C29 C 0.78401 0.59574 0.99415 0.0
C30 C 0.79889 0.59338 0.91911 0.0
C31 C 0.82998 0.58673 0.91672 0.0
C32 C 0.84668 0.58761 0.9902 0.0
C33 C 0.83181 0.58975 0.0651 0.0
C34 C 0.80311 0.54608 0.34058 0.0
C35 C 0.80327 0.56049 0.41742 0.0
C36 C 0.96574 0.84739 0.41435 0.0
C37 C 0.99323 0.84974 0.45776 0.0
C38 C 0.01509 0.82683 0.44415 0.0
C39 C 1.00961 0.80275 0.38807 0.0
H40 H 0.03417 0.70819 0.16717 0.0
H41 H 0.04228 0.66297 0.08286 0.0
H42 H 0.94587 0.64464 0.08741 0.0
H43 H 0.93847 0.68832 0.175 0.0
H44 H 0.94187 0.75262 0.98844 0.0
H45 H 0.95003 0.77711 0.85675 0.0
H46 H 0.96333 0.86282 0.97959 0.0
H47 H 0.95427 0.83892 0.10986 0.0
H48 H 0.93904 0.82361 0.32598 0.0
H49 H 0.94858 0.86473 0.42032 0.0
H50 H 0.03662 0.82776 0.47604 0.0
H51 H 0.02733 0.78636 0.37675 0.0
N52 N 0.9854 0.75045 0.26606 0.0
N53 N 0.9648 0.74825 0.13301 0.0
N54 N 0.96373 0.7937 0.20488 0.0
C55 C 0.97848 0.73412 0.19622 0.0
C56 C 0.9575 0.77783 0.13613 0.0
C57 C 0.97723 0.78066 0.27063 0.0
C58 C 0.98579 0.70152 0.18087 0.0
C59 C 0.01506 0.69331 0.1547 0.0
C60 C 0.01951 0.66769 0.10411 0.0
C61 C 0.99478 0.64965 0.0769 0.0
C62 C 0.96582 0.6569 0.10781 0.0
C63 C 0.96151 0.68213 0.15911 0.0
C64 C 0.94916 0.7936 0.05982 0.0
C65 C 0.9453 0.77695 0.98704 0.0
C66 C 0.95002 0.79091 0.9115 0.0
C67 C 0.9589 0.82149 0.90834 0.0
C68 C 0.95707 0.83906 0.97992 0.0
C69 C 0.95208 0.82523 0.05519 0.0
C70 C 0.9822 0.80111 0.3436 0.0
C71 C 0.96032 0.82363 0.35925 0.0
C72 C 0.70828 0.97275 0.48292 0.0
C73 C 0.68883 0.99749 0.46848 0.0
C74 C 0.69745 0.01793 0.40591 0.0
C75 C 0.72342 0.01286 0.35688 0.0
H76 H 0.83576 0.02579 0.2013 0.0
H77 H 0.88188 0.03529 0.11921 0.0
H78 H 0.88362 0.94056 0.05262 0.0
H79 H 0.84063 0.93099 0.13898 0.0
H80 H 0.76603 0.93774 1.01873 0.0
H81 H 0.7243 0.93238 0.9223 0.0
H82 H 0.66526 0.90417 0.11923 0.0
H83 H 0.70664 0.9096 0.21512 0.0
H84 H 0.74679 0.94694 0.44244 0.0
H85 H 0.70242 0.95596 0.5286 0.0
H86 H 0.68332 0.03729 0.39236 0.0
H87 H 0.72765 0.02775 0.30544 0.0
N88 N 0.78905 0.98383 0.27666 0.0
N89 N 0.78647 0.95074 0.16352 0.0
N90 N 0.74507 0.95434 0.25127 0.0
C91 C 0.80263 0.9709 0.20884 0.0
C92 C 0.75801 0.94229 0.18392 0.0
C93 C 0.75992 0.97488 0.29834 0.0
C94 C 0.83429 0.97754 0.17796 0.0
C95 C 0.84697 1.00687 0.17219 0.0
C96 C 0.87322 0.01233 0.12354 0.0
C97 C 0.88737 0.9887 0.07878 0.0
C98 C 0.87495 0.95941 0.0876 0.0
C99 C 0.84955 0.95393 0.13702 0.0
C100 C 0.73899 0.92557 0.12496 0.0
C101 C 0.74458 0.92876 0.04075 0.0
C102 C 0.72073 0.92553 0.98516 0.0
C103 C 0.69135 0.91898 1.01366 0.0
C104 C 0.68757 0.90959 0.09521 0.0
C105 C 0.71125 0.91309 0.15076 0.0
C106 C 0.74188 0.98726 0.36867 0.0
C107 C 0.73413 0.96767 0.43368 0.0
C108 C 0.58912 0.70199 1.00583 0.0
C109 C 0.58891 0.7174 0.93012 0.0
C110 C 0.59597 0.74856 0.93043 0.0
C111 C 0.59528 0.76483 1.00381 0.0
H112 H 0.55217 0.86482 0.21123 0.0
H113 H 0.54308 0.90745 0.11826 0.0
H114 H 0.48538 0.85018 0.9705 0.0
H115 H 0.4944 0.80793 0.0637 0.0
H116 H 0.49167 0.73152 0.29988 0.0
H117 H 0.48552 0.6885 0.39339 0.0
H118 H 0.57558 0.70492 0.48829 0.0
H119 H 0.58194 0.74688 0.39212 0.0
H120 H 0.58538 0.70564 0.13512 0.0
H121 H 0.5849 0.67786 1.00986 0.0
H122 H 0.59881 0.76097 0.87394 0.0
H123 H 0.59656 0.78935 1.00131 0.0
N124 N 0.55959 0.79285 0.1275 0.0
N125 N 0.53042 0.7897 0.24805 0.0
N126 N 0.56555 0.75144 0.21451 0.0
C127 C 0.53867 0.80511 0.17802 0.0
C128 C 0.54469 0.76283 0.26718 0.0
C129 C 0.57306 0.76615 0.14454 0.0
C130 C 0.52344 0.83298 0.14645 0.0
C131 C 0.53629 0.86179 0.1613 0.0
C132 C 0.53141 0.88618 0.10688 0.0
C133 C 0.51444 0.88217 0.03435 0.0
C134 C 0.49949 0.85408 0.02371 0.0
C135 C 0.50404 0.82992 0.07852 0.0
C136 C 0.53696 0.74345 0.33989 0.0
C137 C 0.50964 0.72671 0.34307 0.0
C138 C 0.50623 0.70178 0.39689 0.0
C139 C 0.52999 0.69282 0.44978 0.0
C140 C 0.55677 0.71058 0.44866 0.0
C141 C 0.56026 0.73515 0.39431 0.0
C142 C 0.58867 0.74985 0.07771 0.0
C143 C 0.58924 0.7181 0.07898 0.0
C144 C 0.19162 0.51841 0.02513 0.0
C145 C 0.18959 0.50964 0.94225 0.0
C146 C 0.21545 0.49601 0.90721 0.0
C147 C 0.24178 0.49038 0.95388 0.0
H148 H 0.30722 0.51549 0.32312 0.0
H149 H 0.34949 0.52507 0.41697 0.0
H150 H 0.41207 0.49036 0.2373 0.0
H151 H 0.3694 0.47987 0.145 0.0
H152 H 0.28455 0.42467 0.33442 0.0
H153 H 0.24003 0.4181 0.41754 0.0
H154 H 0.18838 0.3917 0.20511 0.0
H155 H 0.23296 0.39981 0.12039 0.0
H156 H 0.21786 0.51823 0.13615 0.0
H157 H 0.17214 0.52796 0.05593 0.0
H158 H 0.21506 0.48886 0.84393 0.0
H159 H 0.26032 0.47808 0.92605 0.0
N160 N 0.29097 0.49834 0.12513 0.0
N161 N 0.30051 0.45517 0.20616 0.0
N162 N 0.25903 0.45543 0.11736 0.0
C163 C 0.30878 0.4834 0.18126 0.0
C164 C 0.27576 0.44096 0.17467 0.0
C165 C 0.26617 0.48376 0.09162 0.0
C166 C 0.33491 0.4978 0.22532 0.0
C167 C 0.33013 0.51093 0.30257 0.0
C168 C 0.35448 0.51612 0.35687 0.0
C169 C 0.38448 0.508 0.3362 0.0
C170 C 0.38938 0.4962 0.25704 0.0
C171 C 0.36495 0.49086 0.20295 0.0
C172 C 0.26122 0.41573 0.2201 0.0
C173 C 0.26429 0.41561 0.30555 0.0
C174 C 0.23846 0.41154 0.35393 0.0
C175 C 0.21004 0.40728 0.31617 0.0
C176 C 0.20977 0.39687 0.23491 0.0
C177 C 0.23541 0.40164 0.18608 0.0
C178 C 0.24348 0.49864 0.03686 0.0
C179 C 0.21807 0.51301 0.07146 0.0
C180 C 0.01236 0.18967 1.01185 0.0
C181 C 0.02964 0.18688 0.93959 0.0
C182 C 0.05074 0.21031 0.92236 0.0
C183 C 0.05513 0.2349 0.97688 0.0
H184 H 0.99764 0.32979 0.20818 0.0
H185 H 0.98617 0.37621 0.2855 0.0
H186 H 0.08157 0.38784 0.33844 0.0
H187 H 0.0928 0.34261 0.25954 0.0
H188 H 0.1022 0.27522 0.38936 0.0
H189 H 0.10449 0.24633 0.51592 0.0
H190 H 0.07917 0.16535 0.38183 0.0
H191 H 0.0796 0.19337 0.25706 0.0
H192 H 1.00442 0.21419 0.12326 0.0
H193 H 0.99658 0.17192 0.0295 0.0
H194 H 0.06458 0.20919 0.86774 0.0
H195 H 0.07295 0.25127 0.96414 0.0
N196 N 0.04252 0.28583 0.13358 0.0
N197 N 0.07033 0.28453 0.25673 0.0
N198 N 0.06651 0.24091 0.17689 0.0
C199 C 0.05342 0.30038 0.20244 0.0
C200 C 0.07687 0.25495 0.24509 0.0
C201 C 0.04987 0.25583 0.12017 0.0
C202 C 0.04622 0.33245 0.22649 0.0
C203 C 0.0162 0.34296 0.23366 0.0
C204 C 1.00961 0.36929 0.27994 0.0
C205 C 0.03283 0.38574 0.32083 0.0
C206 C 0.06293 0.37617 0.30852 0.0
C207 C 0.06943 0.35009 0.26263 0.0
C208 C 0.08902 0.23687 0.31381 0.0
C209 C 0.09816 0.25098 0.38702 0.0
C210 C 0.09898 0.23446 0.46002 0.0
C211 C 0.08963 0.20388 0.46119 0.0
C212 C 0.08578 0.18899 0.38542 0.0
C213 C 0.08572 0.20526 0.31265 0.0
C214 C 0.03839 0.23705 0.05006 0.0
C215 C 0.01671 0.21419 0.06589 0.0
C216 C 0.34871 0.03373 0.03402 0.0
C217 C 0.346 0.02966 0.94889 0.0
C218 C 0.3162 0.03031 0.91596 0.0
C219 C 0.29064 0.03716 0.96531 0.0
H220 H 0.20214 1.00962 0.21178 0.0
H221 H 0.15787 0.99795 0.2989 0.0
H222 H 0.14009 0.09373 0.322 0.0
H223 H 0.18141 0.10482 0.23122 0.0
H224 H 0.24082 0.14086 0.29923 0.0
H225 H 0.27255 0.1544 0.41549 0.0
H226 H 0.35238 0.13911 0.26801 0.0
H227 H 0.32114 0.12901 0.15189 0.0
H228 H 0.32703 0.04524 0.14702 0.0
H229 H 0.37084 0.03373 0.06282 0.0
H230 H 0.31258 0.02635 0.85146 0.0
H231 H 0.26865 0.03982 0.93662 0.0
N232 N 0.24323 0.04977 0.12443 0.0
N233 N 0.23644 0.09525 0.19798 0.0
N234 N 0.28058 0.08839 0.1227 0.0
C235 C 0.2255 0.06773 0.17455 0.0
C236 C 0.26372 0.10583 0.17294 0.0
C237 C 0.27094 0.06075 0.0971 0.0
C238 C 0.19573 0.0582 0.21346 0.0
C239 C 0.18799 0.02801 0.23293 0.0
C240 C 0.16273 0.02141 0.28423 0.0
C241 C 0.14457 0.04479 0.31793 0.0
C242 C 0.15211 0.07473 0.29598 0.0
C243 C 0.1766 0.08118 0.24409 0.0
C244 C 0.27873 0.13064 0.21909 0.0
C245 C 0.26522 0.14181 0.29086 0.0
C246 C 0.28349 0.1489 0.35827 0.0
C247 C 0.31485 0.14297 0.35482 0.0
C248 C 0.32814 0.14129 0.27635 0.0
C249 C 0.31003 0.13526 0.20847 0.0
C250 C 0.29394 0.04292 0.04947 0.0
C251 C 0.32331 0.04018 0.08298 0.0
C252 C 0.43223 0.34678 0.40903 0.0
C253 C 0.42948 0.32903 0.48016 0.0
C254 C 0.42284 0.29801 0.47191 0.0
C255 C 0.42545 0.28407 0.39564 0.0
H256 H 0.44636 0.19497 0.23973 0.0
H257 H 0.45654 0.15034 0.32315 0.0
H258 H 0.54921 0.1803 0.35506 0.0
H259 H 0.53887 0.22513 0.27023 0.0
H260 H 0.47806 0.29021 0.97972 0.0
H261 H 0.48764 0.33279 0.88525 0.0
H262 H 0.52697 0.3843 0.08309 0.0
H263 H 0.51772 0.34197 0.17598 0.0
H264 H 0.44087 0.34686 0.28085 0.0
H265 H 0.4371 0.37084 0.41285 0.0
H266 H 0.41995 0.28391 0.5256 0.0
H267 H 0.42402 0.25956 0.39282 0.0
N268 N 0.46073 0.25722 0.27043 0.0
N269 N 0.49478 0.26165 0.15991 0.0
N270 N 0.46403 0.30285 0.19914 0.0
C271 C 0.48205 0.24456 0.22178 0.0
C272 C 0.485 0.29097 0.14761 0.0
C273 C 0.45164 0.28617 0.26032 0.0
C274 C 0.49197 0.21339 0.246 0.0
C275 C 0.46931 0.19142 0.2615 0.0
C276 C 0.47502 0.16602 0.31081 0.0
C277 C 0.50364 0.16157 0.34696 0.0
C278 C 0.52696 0.18259 0.32769 0.0
C279 C 0.52117 0.2082 0.27804 0.0
C280 C 0.4981 0.31215 0.08503 0.0
C281 C 0.48993 0.31015 1.002 0.0
C282 C 0.49494 0.33482 0.94821 0.0
C283 C 0.50837 0.36215 0.9759 0.0
C284 C 0.51732 0.36359 0.05845 0.0
C285 C 0.51214 0.33914 0.11193 0.0
C286 C 0.43468 0.30111 0.32714 0.0
C287 C 0.43476 0.33289 0.33282 0.0
Tb288 Tb 0.98158 0.02911 0.63308 0.0
C289 C 0.09493 0.0524 0.84831 0.0
N290 N 0.09187 0.03705 0.77673 0.0
C291 C 0.13738 0.06062 0.72574 0.0
C292 C 0.11913 0.07301 0.86075 0.0
C293 C 0.11295 0.04051 0.71619 0.0
C294 C 0.14043 0.07705 0.79819 0.0
C295 C 0.07529 0.06384 0.983 0.0
C296 C 0.07309 0.04806 0.90814 0.0
C297 C 0.09915 0.08463 0.99544 0.0
C298 C 0.12103 0.08919 0.93448 0.0
Tb299 Tb 0.0513 1.0045 0.76782 0.0
N300 N 0.05015 0.0279 0.89365 0.0
C301 C 0.05387 0.05773 0.04391 0.0
C302 C 0.03105 0.01998 0.95605 0.0
C303 C 0.03199 0.03528 0.03085 0.0
H304 H 0.11142 0.02732 0.66125 0.0
H305 H 0.01632 0.02915 0.07916 0.0
H306 H 0.91856 0.02339 0.74431 0.0
H307 H 0.01461 0.97564 0.34817 0.0
H308 H 0.01589 1.00102 0.95072 0.0
H309 H 0.05477 0.06931 0.10227 0.0
H310 H 0.01968 1.01141 0.46134 0.0
H311 H 0.15395 0.06327 0.67736 0.0
H312 H 0.10108 0.09703 0.05238 0.0
H313 H 0.13936 0.10522 0.94501 0.0
H314 H 0.87105 0.99373 0.74225 0.0
H315 H 0.15934 0.09267 0.80532 0.0
H316 H 0.9689 0.94304 0.33755 0.0
N317 N 0.93633 1.00328 0.63651 0.0
C318 C 0.93082 0.98418 0.573 0.0
C319 C 0.88777 0.99064 0.69453 0.0
C320 C 0.90364 0.96717 0.56839 0.0
C321 C 0.91504 1.00705 0.69634 0.0
C322 C 0.88206 0.97053 0.63041 0.0
N323 N 0.97907 0.99757 0.52124 0.0
C324 C 1.00047 0.99653 0.46091 0.0
C325 C 0.94854 0.96087 0.44779 0.0
C326 C 0.95295 0.98113 0.51352 0.0
C327 C 0.97135 0.95841 0.38881 0.0
C328 C 0.99726 0.9766 0.39494 0.0
H329 H 0.86093 0.95781 0.62923 0.0
H330 H 0.87841 0.93372 0.49845 0.0
H331 H 0.91782 0.92808 0.39303 0.0
O332 O 0.97939 0.05932 0.5345 0.0
O333 O 0.98651 0.98009 0.65772 0.0
O334 O 0.03786 0.9735 0.66694 0.0
O335 O 0.94353 0.05766 0.62322 0.0
O336 O 0.02804 0.04123 0.58765 0.0
O337 O 0.06014 1.00439 0.63623 0.0
O338 O 0.05695 0.96854 0.85034 0.0
O339 O 0.04579 0.05409 0.74706 0.0
O340 O 0.99446 0.06016 0.73299 0.0
O341 O 0.09333 0.9819 0.77125 0.0
O342 O 1.00466 0.99207 0.81115 0.0
O343 O 0.97351 0.03015 0.76537 0.0
C344 C 1.01066 0.96314 0.64756 0.0
C345 C 0.95899 0.10549 0.57714 0.0
C346 C 0.9928 0.14858 0.60415 0.0
C347 C 0.96811 0.16806 0.58823 0.0
C348 C 0.93478 0.12514 0.56332 0.0
C349 C 0.93928 0.15636 0.57024 0.0
C350 C 0.98726 0.11719 0.60167 0.0
C351 C 0.05353 0.02548 0.58243 0.0
C352 C 0.95547 0.07281 0.56337 0.0
C353 C 0.89909 0.94707 0.50287 0.0
C354 C 0.92155 0.94382 0.44293 0.0
C355 C 0.02119 0.07063 0.75601 0.0
C356 C 0.08268 0.92967 0.78002 0.0
C357 C 0.05349 0.88396 0.74725 0.0
C358 C 0.0745 0.87684 0.68575 0.0
C359 C 0.10382 0.92197 0.71914 0.0
C360 C 0.05841 0.90979 0.79561 0.0
C361 C 0.09981 0.89556 0.67284 0.0
C362 C 0.97975 1.00863 0.81838 0.0
C363 C 0.08244 0.96036 0.81676 0.0
H364 H 0.971 0.19236 0.58474 0.0
H365 H 0.91269 0.1164 0.54561 0.0
H366 H 0.92069 0.17163 0.55778 0.0
H367 H 1.0054 0.10155 0.6144 0.0
H368 H 0.0711 0.85726 0.64686 0.0
H369 H 0.12274 0.93691 0.7052 0.0
H370 H 0.04243 0.91506 0.8439 0.0
H371 H 0.11586 0.8901 0.62505 0.0
Tb372 Tb 0.5305 0.0468 0.76287 0.0
C373 C 0.51236 0.93188 0.51642 0.0
N374 N 0.51694 0.96187 0.50349 0.0
C375 C 0.54748 0.95069 0.38594 0.0
C376 C 0.526 0.90986 0.46625 0.0
C377 C 0.53294 0.97158 0.43683 0.0
C378 C 0.54441 0.91965 0.40152 0.0
C379 C 0.48323 0.89287 0.58522 0.0
C380 C 0.49142 0.92356 0.57478 0.0
C381 C 0.49819 0.87052 0.53937 0.0
C382 C 0.51957 0.87901 0.47988 0.0
Tb383 Tb 0.4941 0.99436 0.59286 0.0
N384 N 0.47707 0.94592 0.61596 0.0
C385 C 0.45944 0.8858 0.63882 0.0
C386 C 0.45219 0.93936 0.66306 0.0
C387 C 0.44352 0.90921 0.67687 0.0
H388 H 0.53472 0.99554 0.42354 0.0
H389 H 0.42446 0.90406 0.71638 0.0
H390 H 0.46712 0.08359 0.8065 0.0
H391 H 0.63917 0.08674 0.64688 0.0
H392 H 0.43967 0.95741 0.69206 0.0
H393 H 0.4525 0.86249 0.6489 0.0
H394 H 0.60522 0.05121 0.71815 0.0
H395 H 0.56075 0.95852 0.33431 0.0
H396 H 0.49256 0.84675 0.54727 0.0
H397 H 0.53007 0.86167 0.44266 0.0
H398 H 0.44579 0.13439 0.78224 0.0
H399 H 0.55529 0.90349 0.36135 0.0
H400 H 0.62032 0.137 0.60397 0.0
N401 N 0.50902 0.09347 0.74698 0.0
C402 C 0.52677 0.11516 0.7119 0.0
C403 C 0.46852 0.1292 0.76157 0.0
C404 C 0.51548 0.14441 0.6963 0.0
C405 C 0.48063 0.10036 0.7749 0.0
C406 C 0.48588 0.15121 0.72122 0.0
N407 N 0.56609 0.07916 0.70729 0.0
C408 C 0.59602 0.07221 0.6959 0.0
C409 C 0.57505 0.12912 0.65143 0.0
C410 C 0.55607 0.10753 0.68975 0.0
C411 C 0.60501 0.12111 0.63354 0.0
C412 C 0.61567 0.09271 0.65726 0.0
H413 H 0.47634 0.17344 0.71036 0.0
H414 H 0.52565 0.18824 0.64265 0.0
H415 H 0.57786 0.17486 0.60334 0.0
O416 O 0.56213 0.06275 0.8496 0.0
O417 O 0.504 0.06164 0.65557 0.0
O418 O 0.52088 0.03357 0.55186 0.0
O419 O 0.51686 0.05045 0.88547 0.0
O420 O 0.56438 0.0164 0.70408 0.0
O421 O 0.54373 1.00255 0.57861 0.0
O422 O 0.46456 0.02755 0.55082 0.0
O423 O 0.49793 0.97389 0.71584 0.0
O424 O 0.5384 0.99791 0.7783 0.0
O425 O 0.46534 0.98356 0.49349 0.0
O426 O 0.46105 0.01262 0.68265 0.0
O427 O 0.48554 0.02982 0.80018 0.0
C428 C 0.51565 0.06048 0.5818 0.0
C429 C 0.55584 0.03314 0.96844 0.0
C430 C 0.5855 0.98757 0.99333 0.0
C431 C 0.57095 0.98407 0.06922 0.0
C432 C 0.54171 0.02952 0.04467 0.0
C433 C 0.54925 1.00503 0.09473 0.0
C434 C 0.57784 0.01213 0.94337 0.0
C435 C 0.56736 1.00703 0.62744 0.0
C436 C 0.54437 0.05572 0.9103 0.0
C437 C 0.534 0.16573 0.65609 0.0
C438 C 0.5637 0.15808 0.63351 0.0
C439 C 0.51842 0.97561 0.77433 0.0
C440 C 0.41866 1.01111 0.49482 0.0
C441 C 0.37353 0.04306 0.48953 0.0
C442 C 0.35591 0.01688 0.47353 0.0
C443 C 0.40066 0.98531 0.48074 0.0
C444 C 0.40486 0.03961 0.50138 0.0
C445 C 0.36934 0.98826 0.47092 0.0
C446 C 0.46086 0.02209 0.7594 0.0
C447 C 0.452 1.00983 0.49714 0.0
H448 H 0.57696 0.96561 0.10965 0.0
H449 H 0.52425 0.04511 0.0643 0.0
H450 H 0.53818 1.00222 0.15332 0.0
H451 H 0.58875 0.01445 0.88427 0.0
H452 H 0.33195 0.0184 0.45968 0.0
H453 H 0.41077 0.96306 0.47567 0.0
H454 H 0.41889 0.05935 0.51374 0.0
H455 H 0.35553 0.9684 0.45844 0.0
Tb456 Tb 0.55136 0.50764 0.63315 0.0
C457 C 0.44163 0.48915 0.85151 0.0
N458 N 0.44443 0.5066 0.78331 0.0
C459 C 0.39706 0.48694 0.73271 0.0
C460 C 0.41678 0.46916 0.86163 0.0
C461 C 0.42212 0.50637 0.72528 0.0
C462 C 0.39447 0.46809 0.80086 0.0
C463 C 0.46283 0.47207 0.98024 0.0
C464 C 0.46443 0.49058 0.91001 0.0
C465 C 0.4381 0.45217 0.99059 0.0
C466 C 0.41514 0.45072 0.93147 0.0
Tb467 Tb 0.48632 0.53752 0.77884 0.0
N468 N 0.48853 0.5095 0.89692 0.0
C469 C 0.48621 0.474 0.03781 0.0
C470 C 0.51036 0.51268 0.95553 0.0
C471 C 0.5099 0.49465 0.02577 0.0
H472 H 0.42301 0.52164 0.67411 0.0
H473 H 0.5276 0.49707 0.07126 0.0
H474 H 0.61734 0.49809 0.72706 0.0
H475 H 0.52487 0.55585 0.33807 0.0
H476 H 0.5276 0.52972 0.95043 0.0
H477 H 0.4859 0.46008 0.09236 0.0
H478 H 0.51473 0.52649 0.46275 0.0
H479 H 0.37961 0.48671 0.68613 0.0
H480 H 0.43656 0.43773 0.04401 0.0
H481 H 0.39626 0.43518 0.94019 0.0
H482 H 0.66991 0.51737 0.71504 0.0
H483 H 0.37504 0.45301 0.8063 0.0
H484 H 0.57576 0.57842 0.31496 0.0
N485 N 0.60133 0.52199 0.62341 0.0
C486 C 0.60911 0.53893 0.55736 0.0
C487 C 0.65294 0.52396 0.67074 0.0
C488 C 0.63905 0.54966 0.54605 0.0
C489 C 0.62297 0.51364 0.67863 0.0
C490 C 0.66097 0.54233 0.60457 0.0
N491 N 0.55863 0.53376 0.51344 0.0
C492 C 0.5367 0.53674 0.45499 0.0
C493 C 0.59416 0.56125 0.42845 0.0
C494 C 0.5871 0.54462 0.49959 0.0
C495 C 0.5713 0.56576 0.37046 0.0
C496 C 0.54253 0.55315 0.38344 0.0
H497 H 0.68424 0.55011 0.59821 0.0
H498 H 0.66903 0.57537 0.4665 0.0
H499 H 0.62965 0.58553 0.36334 0.0
O500 O 0.53573 0.471 0.56347 0.0
O501 O 0.5454 0.55715 0.62094 0.0
O502 O 0.50117 0.57162 0.68794 0.0
O503 O 0.58241 0.4733 0.6015 0.0
O504 O 0.50294 0.50115 0.59674 0.0
O505 O 0.47436 0.54003 0.64936 0.0
O506 O 0.48057 0.56655 0.87899 0.0
O507 O 0.49241 0.48827 0.75431 0.0
O508 O 0.54347 0.48389 0.74894 0.0
O509 O 0.44667 0.56399 0.78517 0.0
O510 O 0.53335 0.55172 0.81321 0.0
O511 O 0.56499 0.51468 0.76183 0.0
C512 C 0.52429 0.57727 0.63845 0.0
C513 C 0.55633 0.4264 0.61732 0.0
C514 C 0.52107 0.38603 0.65727 0.0
C515 C 0.54232 0.37559 0.71452 0.0
C516 C 0.57737 0.41567 0.67499 0.0
C517 C 0.57043 0.39022 0.72262 0.0
C518 C 0.52872 0.41082 0.60747 0.0
C519 C 0.47956 0.51976 0.59227 0.0
C520 C 0.56063 0.45579 0.57518 0.0
C521 C 0.64619 0.56682 0.47619 0.0
C522 C 0.62378 0.57258 0.41741 0.0
C523 C 0.51708 0.47289 0.7715 0.0
C524 C 0.45802 0.61196 0.83895 0.0
C525 C 0.48885 0.65745 0.81337 0.0
C526 C 0.46343 0.6751 0.83548 0.0
C527 C 0.43302 0.62991 0.85827 0.0
C528 C 0.48529 0.62573 0.81364 0.0
C529 C 0.43568 0.66141 0.8556 0.0
C530 C 0.5593 0.53666 0.81456 0.0
C531 C 0.45639 0.57891 0.84833 0.0
H532 H 0.53719 0.35621 0.75285 0.0
H533 H 0.59879 0.42732 0.68478 0.0
H534 H 0.58664 0.38219 0.76722 0.0
H535 H 0.51293 0.4183 0.56096 0.0
H536 H 0.46494 0.69943 0.84171 0.0
H537 H 0.41174 0.61961 0.8771 0.0
H538 H 0.50405 0.61138 0.79705 0.0
H539 H 0.41651 0.67532 0.87251 0.0
Tb540 Tb 0.03673 0.55248 0.62456 0.0
C541 C 0.06026 0.44313 0.83214 0.0
N542 N 0.04114 0.44574 0.76721 0.0
C543 C 0.05968 0.39863 0.71332 0.0
C544 C 0.08052 0.41858 0.83868 0.0
C545 C 0.04009 0.4234 0.70926 0.0
C546 C 0.08014 0.3963 0.77795 0.0
C547 C 0.08028 0.46425 0.95813 0.0
C548 C 0.06009 0.46566 0.8912 0.0
C549 C 0.10051 0.4399 0.9647 0.0
C550 C 0.10061 0.41711 0.90519 0.0
Tb551 Tb 1.00988 0.48724 0.76847 0.0
N552 N 0.04081 0.48941 0.88168 0.0
C553 C 0.07975 0.4875 1.01612 0.0
C554 C 0.03931 0.51127 0.94053 0.0
C555 C 0.05895 0.51097 1.00761 0.0
H556 H 0.02375 0.42386 0.66061 0.0
H557 H 0.05778 0.5287 0.0532 0.0
H558 H 0.07191 0.6092 0.71461 0.0
H559 H 0.96303 0.54854 0.35973 0.0
H560 H 0.02266 0.52861 0.93777 0.0
H561 H 0.09499 0.48733 0.0681 0.0
H562 H 0.99644 0.52699 0.465 0.0
H563 H 0.05876 0.38117 0.66686 0.0
H564 H 0.11624 0.43854 1.01547 0.0
H565 H 0.11638 0.39847 0.91101 0.0
H566 H 0.06922 0.66534 0.71476 0.0
H567 H 0.09532 0.37708 0.7808 0.0
H568 H 0.95436 0.60389 0.3546 0.0
N569 N 0.03778 0.60403 0.62401 0.0
C570 C 0.01877 0.61792 0.57103 0.0
C571 C 0.05482 0.65227 0.67417 0.0
C572 C 0.01675 0.64975 0.56779 0.0
C573 C 0.05621 0.62057 0.6743 0.0
C574 C 0.03482 0.66694 0.6211 0.0
N575 N 1.00602 0.56956 0.52144 0.0
C576 C 0.99301 0.55116 0.46371 0.0
C577 C 0.98379 0.61343 0.45757 0.0
C578 C 1.0025 0.60006 0.5172 0.0
C579 C 0.96905 0.59455 0.40121 0.0
C580 C 0.97394 0.5633 0.40383 0.0
H581 H 0.03392 0.69148 0.62074 0.0
H582 H 0.99526 0.68772 0.5072 0.0
H583 H 0.96643 0.65586 0.41036 0.0
O584 O 0.07134 0.52536 0.5785 0.0
O585 O 0.9869 0.54959 0.63131 0.0
O586 O 0.9748 0.50141 0.67839 0.0
O587 O 0.07087 0.57463 0.55508 0.0
O588 O 0.03226 0.50726 0.56533 0.0
O589 O 1.00406 0.47291 0.64166 0.0
O590 O 0.98276 0.48226 0.87294 0.0
O591 O 0.05855 0.49526 0.73665 0.0
O592 O 0.06337 0.54626 0.73594 0.0
O593 O 0.98383 0.44726 0.78229 0.0
O594 O 0.99564 0.5337 0.8059 0.0
O595 O 0.03206 0.56627 0.75371 0.0
C596 C 0.96756 0.52697 0.64083 0.0
C597 C 0.11253 0.54523 0.49654 0.0
C598 C 0.14778 0.51233 0.42512 0.0
C599 C 0.16422 0.53801 0.39914 0.0
C600 C 0.12917 0.5707 0.47054 0.0
C601 C 0.15502 0.56702 0.42224 0.0
C602 C 0.12212 0.51608 0.47427 0.0
C603 C 0.01846 0.48073 0.57429 0.0
C604 C 0.08454 0.54873 0.54402 0.0
C605 C 0.9973 0.66328 0.51046 0.0
C606 C 0.98088 0.64514 0.45533 0.0
C607 C 0.07414 0.51977 0.7568 0.0
C608 C 0.93694 0.45785 0.84356 0.0
C609 C 0.89064 0.48701 0.81811 0.0
C610 C 0.87395 0.46282 0.85393 0.0
C611 C 0.9199 0.43432 0.87786 0.0
C612 C 0.92221 0.4832 0.8106 0.0
C613 C 0.8884 0.43663 0.88168 0.0
C614 C 1.01037 0.56 0.80719 0.0
C615 C 0.97022 0.45731 0.84701 0.0
H616 H 0.18422 0.53559 0.36117 0.0
H617 H 0.12213 0.59337 0.4871 0.0
H618 H 0.16781 0.58668 0.40212 0.0
H619 H 0.10919 0.49628 0.49308 0.0
H620 H 0.84979 0.46422 0.86456 0.0
H621 H 0.93096 0.41454 0.90306 0.0
H622 H 0.93602 0.5001 0.78193 0.0
H623 H 0.87518 0.41859 0.90939 0.0
C624 C 0.12275 0.01586 0.43981 0.0
C625 C 0.11944 0.03867 0.38006 0.0
C626 C 0.10121 1.01154 0.50287 0.0
C627 C 0.07536 0.03021 0.51148 0.0
H628 H 0.14264 1.00156 0.43951 0.0
H629 H 0.10531 0.9935 0.54628 0.0
S630 S 0.05323 0.09067 0.36541 0.0
N631 N 0.08558 0.07779 0.32858 0.0
N632 N 0.04656 0.07089 0.44916 0.0
C633 C 0.07112 0.05242 0.45059 0.0
C634 C 0.09271 0.05638 0.38499 0.0
C635 C 0.4862 0.13097 0.47009 0.0
C636 C 0.50805 0.13623 0.4082 0.0
C637 C 0.48904 0.10701 0.52683 0.0
C638 C 0.5137 0.08686 0.52398 0.0
H639 H 0.46663 0.14562 0.47499 0.0
H640 H 0.47142 0.10392 0.57234 0.0
S641 S 0.57764 0.0905 0.37657 0.0
N642 N 0.55569 0.11906 0.34969 0.0
N643 N 0.56079 0.07422 0.4555 0.0
C644 C 0.53584 0.09193 0.46329 0.0
C645 C 0.53316 0.11654 0.40602 0.0
C646 C 0.4121 0.53657 0.44959 0.0
C647 C 0.40998 0.5109 0.39831 0.0
C648 C 0.43472 0.5393 0.51042 0.0
C649 C 0.45647 0.51642 0.52409 0.0
H650 H 0.39611 0.55495 0.44258 0.0
H651 H 0.43499 0.55965 0.54749 0.0
S652 S 0.46118 0.44417 0.40766 0.0
N653 N 0.43192 0.46178 0.36669 0.0
N654 N 0.47429 0.46704 0.47947 0.0
C655 C 0.4549 0.49073 0.47265 0.0
C656 C 0.43181 0.48795 0.41053 0.0
C657 C 0.04538 0.4374 0.38326 0.0
C658 C 0.02629 0.41149 0.38 0.0
C659 C 0.04189 0.46013 0.44352 0.0
C660 C 0.01928 0.45815 0.5045 0.0
H661 H 0.06362 0.44 0.33937 0.0
H662 H 0.05777 0.47897 0.44362 0.0
S663 S 0.96187 0.39621 0.5215 0.0
N664 N 0.983 0.38615 0.44281 0.0
N665 N 0.97597 0.42886 0.55353 0.0
C666 C 0.99922 0.43304 0.49998 0.0
C667 C 1.00281 0.40985 0.4387 0.0
C668 C 0.91375 0.02094 0.96987 0.0
C669 C 0.91314 0.99442 1.01824 0.0
C670 C 0.93554 0.02542 0.90745 0.0
C671 C 0.95764 1.00341 0.8882 0.0
H672 H 0.89671 0.03822 0.97854 0.0
H673 H 0.93468 0.04639 0.87313 0.0
S674 S 0.96861 0.93121 1.00086 0.0
N675 N 0.9396 0.94724 0.04748 0.0
N676 N 0.97829 0.95449 0.92627 0.0
C677 C 0.95783 0.97709 0.93708 0.0
C678 C 0.93625 0.9729 1.00252 0.0
C679 C 0.51168 0.93713 0.98459 0.0
C680 C 0.51464 0.90589 0.967 0.0
C681 C 0.51334 0.95947 0.92246 0.0
C682 C 0.51812 0.95173 0.83986 0.0
H683 H 0.50793 0.94441 0.04694 0.0
H684 H 0.51033 0.98301 0.93908 0.0
S685 S 0.53036 0.87405 0.76076 0.0
N686 N 0.52476 0.86909 0.85962 0.0
N687 N 0.52735 0.91086 0.74458 0.0
C688 C 0.52141 0.92083 0.8214 0.0
C689 C 0.51984 0.89806 0.8843 0.0
C690 C 0.62683 0.52369 0.96102 0.0
C691 C 0.62561 0.54786 1.01739 0.0
C692 C 0.6054 0.52036 0.89743 0.0
C693 C 0.58175 0.54137 0.88436 0.0
H694 H 0.64487 0.50719 0.96488 0.0
H695 H 0.60738 0.50063 0.85895 0.0
S696 S 0.56522 0.6066 1.0209 0.0
N697 N 0.59599 0.59142 0.0609 0.0
N698 N 0.55698 0.58594 0.93968 0.0
C699 C 0.5796 0.5652 0.94176 0.0
C700 C 0.60114 0.56829 1.00795 0.0
C701 C 0.01885 0.63065 0.94508 0.0
C702 C 0.99869 0.62562 1.01084 0.0
C703 C 0.02208 0.60966 0.88055 0.0
C704 C 1.00517 0.58235 0.8768 0.0
H705 H 0.0321 0.65139 0.94229 0.0
H706 H 0.03826 0.61509 0.83323 0.0
S707 S 0.95014 0.55678 0.03566 0.0
N708 N 0.96248 0.58987 0.06973 0.0
N709 N 0.96778 0.55119 0.94804 0.0
C710 C 0.98496 0.57682 0.94252 0.0
C711 C 0.98189 0.59813 1.00904 0.0
C712 C 0.07437 0.15757 0.53905 0.0
C713 C 0.07647 0.18939 0.53617 0.0
C714 C 0.0485 0.14338 0.57092 0.0
C715 C 0.02483 0.16046 0.60629 0.0
H716 H 0.09033 0.14377 0.5053 0.0
H717 H 0.04604 0.11947 0.5584 0.0
S718 S 0.03071 0.2414 0.66549 0.0
N719 N 0.05986 0.23581 0.60399 0.0
N720 N 0.01346 0.20822 0.67378 0.0
C721 C 0.03148 0.19086 0.62549 0.0
C722 C 0.057 0.20566 0.58874 0.0
C723 C 0.36252 0.12447 0.42117 0.0
C724 C 0.33066 0.12712 0.42392 0.0
C725 C 0.37683 0.09796 0.4474 0.0
C726 C 0.36014 0.07406 0.48353 0.0
H727 H 0.37614 0.14112 0.38884 0.0
H728 H 0.40059 0.09546 0.43222 0.0
S729 S 0.27955 0.07755 0.54824 0.0
N730 N 0.28487 0.10836 0.49282 0.0
N731 N 0.31269 0.06037 0.55016 0.0
C732 C 0.32978 0.07976 0.50445 0.0
C733 C 0.31484 0.10611 0.4741 0.0
C734 C 0.46948 0.32377 0.58522 0.0
C735 C 0.44444 0.34024 0.55556 0.0
C736 C 0.493 0.33824 0.62761 0.0
C737 C 0.49218 0.36958 0.64193 0.0
H738 H 0.47296 0.30044 0.56689 0.0
H739 H 0.51334 0.32543 0.64073 0.0
S740 S 0.4268 0.42032 0.60298 0.0
N741 N 0.41654 0.38749 0.56252 0.0
N742 N 0.4609 0.41493 0.64216 0.0
C743 C 0.4651 0.38515 0.62447 0.0
C744 C 0.4411 0.37036 0.58144 0.0
C745 C 0.17484 0.44964 0.28781 0.0
C746 C 0.1851 0.42748 0.34351 0.0
C747 C 0.16129 0.47632 0.31481 0.0
C748 C 0.15704 0.48179 0.3983 0.0
H749 H 0.17994 0.448 0.22322 0.0
H750 H 0.1556 0.49354 0.27021 0.0
S751 S 0.17355 0.42867 0.56785 0.0
N752 N 0.18545 0.41084 0.48509 0.0
N753 N 0.15964 0.46131 0.53602 0.0
C754 C 0.16395 0.45862 0.45415 0.0
C755 C 0.17801 0.43136 0.42664 0.0
C756 C 0.97432 0.86382 0.81674 0.0
C757 C 0.97742 0.83333 0.8396 0.0
C758 C 0.99839 0.87949 0.78028 0.0
C759 C 0.02612 0.86511 0.76312 0.0
H760 H 0.9544 0.87647 0.83488 0.0
H761 H 0.99614 0.9037 0.77195 0.0
S762 S 0.04367 0.78404 0.79631 0.0
N763 N 1.00889 0.78813 0.83202 0.0
N764 N 0.05373 0.81765 0.76085 0.0
C765 C 0.02813 0.83376 0.77602 0.0
C766 C 1.00375 0.81779 0.8145 0.0
C767 C 0.66602 0.96393 0.95611 0.0
C768 C 0.66482 0.93259 0.97262 0.0
C769 C 0.63961 0.98128 0.95538 0.0
C770 C 0.6112 0.96785 0.97091 0.0
H771 H 0.6876 0.97584 0.95348 0.0
H772 H 0.64182 1.00569 0.95043 0.0
S773 S 0.59536 0.88553 0.98957 0.0
N774 N 0.63273 0.88793 0.98404 0.0
N775 N 0.5828 0.9207 0.98357 0.0
C776 C 0.60937 0.93609 0.97554 0.0
C777 C 0.63629 0.91838 0.97549 0.0
C778 C 0.57226 0.67088 0.85497 0.0
C779 C 0.57293 0.70272 0.85942 0.0
C780 C 0.5459 0.65558 0.83046 0.0
C781 C 0.51989 0.67155 0.80465 0.0
H782 H 0.59038 0.6577 0.88184 0.0
H783 H 0.54539 0.63147 0.84062 0.0
S784 S 0.51877 0.75325 0.75111 0.0
N785 N 0.55082 0.7487 0.80176 0.0
N786 N 0.50302 0.71926 0.74588 0.0
C787 C 0.52398 0.70248 0.78636 0.0
C788 C 0.55026 0.71833 0.81538 0.0
C789 C 0.82735 0.54359 0.82001 0.0
C790 C 0.84285 0.56972 0.84677 0.0
C791 C 0.84344 0.51791 0.79537 0.0
C792 C 0.87543 0.51703 0.80101 0.0
H793 H 0.80304 0.54134 0.82837 0.0
H794 H 0.83041 0.49772 0.78102 0.0
S795 S 0.92422 0.58655 0.81671 0.0
N796 N 0.8897 0.59828 0.83842 0.0
N797 N 0.92085 0.54989 0.7984 0.0
C798 C 0.89051 0.54557 0.80754 0.0
C799 C 0.87379 0.57201 0.82902 0.0
C800 C 0.05295 0.14395 0.85546 0.0
C801 C 0.02691 0.15872 0.88617 0.0
C802 C 0.05094 0.11625 0.81174 0.0
C803 C 0.02289 0.10146 0.79739 0.0
H804 H 0.07527 0.15346 0.86692 0.0
H805 H 0.07167 0.10638 0.78904 0.0
S806 S 0.94734 0.13283 0.85301 0.0
N807 N 0.97176 0.15802 0.88908 0.0
N808 N 0.96804 0.10602 0.81074 0.0
C809 C 0.99658 0.11682 0.82421 0.0
C810 C 0.99859 0.14517 0.86774 0.0
C811 C 0.4001 1.01046 0.92566 0.0
C812 C 0.37441 0.02627 0.89614 0.0
C813 C 0.42769 1.00911 0.88134 0.0
C814 C 0.43097 0.0229 0.80417 0.0
H815 H 0.39906 0.99903 0.98412 0.0
H816 H 0.44663 0.99698 0.9077 0.0
S817 S 0.3724 0.06882 0.69984 0.0
N818 N 0.35558 0.05762 0.78491 0.0
N819 N 0.40662 0.05374 0.70118 0.0
C820 C 0.40565 0.03844 0.77315 0.0
C821 C 0.37769 0.0404 0.8189 0.0
C822 C 0.48687 0.39978 0.87329 0.0
C823 C 0.51153 0.38965 0.921 0.0
C824 C 0.48874 0.42655 0.82585 0.0
C825 C 0.51548 0.44432 0.82238 0.0
H826 H 0.46558 0.38735 0.87422 0.0
H827 H 0.46889 0.43348 0.79206 0.0
S828 S 0.58699 0.42758 0.93368 0.0
N829 N 0.5639 0.39959 0.95987 0.0
N830 N 0.56735 0.44937 0.87139 0.0
C831 C 0.54038 0.43426 0.86909 0.0
C832 C 0.53842 0.40719 0.91799 0.0
C833 C 0.14981 0.48961 0.84191 0.0
C834 C 0.16031 0.51308 0.89393 0.0
C835 C 0.12229 0.4919 0.7977 0.0
C836 C 0.10374 0.51779 0.80304 0.0
H837 H 0.16272 0.4689 0.83623 0.0
H838 H 0.11548 0.47315 0.75898 0.0
S839 S 0.12058 0.58618 0.92804 0.0
N840 N 0.14969 0.56366 0.94535 0.0
N841 N 0.09817 0.5676 0.86431 0.0
C842 C 0.11402 0.54153 0.85399 0.0
C843 C 0.14202 0.53923 0.899 0.0
C844 C 0.02639 0.89341 0.51125 0.0
C845 C 0.99881 0.87681 0.51352 0.0
C846 C 0.03044 0.92068 0.55616 0.0
C847 C 1.00706 0.93286 0.60511 0.0
H848 H 0.04472 0.88583 0.47234 0.0
H849 H 0.05181 0.93279 0.55044 0.0
S850 S 0.93225 0.89603 0.64307 0.0
N851 N 0.94917 0.87313 0.57788 0.0
N852 N 0.95632 0.92427 0.65877 0.0
C853 C 0.97984 0.91592 0.61013 0.0
C854 C 0.9759 0.88803 0.56568 0.0
C855 C 0.63188 1.00735 0.46792 0.0
C856 C 0.65842 1.00038 0.51239 0.0
C857 C 0.60302 1.009 0.5055 0.0
C858 C 0.5988 1.00404 0.59008 0.0
H859 H 0.63324 1.01112 0.40264 0.0
H860 H 0.58382 0.01468 0.46743 0.0
S861 S 0.66055 0.98565 0.7362 0.0
N862 N 0.67826 0.989 0.6476 0.0
N863 N 0.62426 0.99186 0.71741 0.0
C864 C 0.62509 0.99721 0.63572 0.0
C865 C 0.65463 0.99538 0.59728 0.0
C866 C 0.55331 0.64465 0.50864 0.0
C867 C 0.52802 0.66412 0.50152 0.0
C868 C 0.55206 0.61734 0.55388 0.0
C869 C 0.52539 0.60759 0.59431 0.0
H870 H 0.57433 0.65023 0.47762 0.0
H871 H 0.57236 0.60373 0.55692 0.0
S872 S 0.45292 0.65059 0.5994 0.0
N873 N 0.47578 0.67209 0.54392 0.0
N874 N 0.47293 0.62051 0.62475 0.0
C875 C 0.49999 0.62701 0.58871 0.0
C876 C 0.50139 0.65508 0.54337 0.0
C877 C 0.8934 0.5064 0.52675 0.0
C878 C 0.88014 0.53476 0.50876 0.0
C879 C 0.92072 0.50395 0.57222 0.0
C880 C 0.93665 0.52978 0.60063 0.0
H881 H 0.88267 0.48579 0.50483 0.0
H882 H 0.92995 0.48158 0.58267 0.0
S883 S 0.9116 0.60947 0.5728 0.0
N884 N 0.88516 0.58926 0.52588 0.0
N885 N 0.93606 0.58477 0.60953 0.0
C886 C 0.92333 0.55822 0.58443 0.0
C887 C 0.89534 0.56068 0.53926 0.0
loop_
_geom_bond_atom_site_label_1
_geom_bond_atom_site_label_2
_geom_bond_distance
_geom_bond_site_symmetry_2
_ccdc_geom_bond_type
C0 C1 1.384 . S
C0 H13 0.947 . S
C0 C35 1.382 . S
C1 C0 1.384 . S
C1 C2 1.378 . S
C2 C1 1.378 . S
C2 C3 1.378 . S
C2 H14 0.952 . S
C3 C2 1.378 . S
C3 H15 0.950 . S
C3 C34 1.383 . S
H4 C23 0.947 . S
H5 C24 0.946 . S
H6 C26 0.953 . S
H7 C27 0.945 . S
H8 C29 0.952 . S
H9 C30 0.949 1_556 S
H10 C32 0.950 . S
H11 C33 0.948 . S
H12 C35 0.951 . S
H13 C0 0.947 . S
H14 C2 0.952 . S
H15 C3 0.950 . S
N16 C19 1.382 . S
N16 C21 1.363 . S
N17 C19 1.371 . S
N17 C20 1.372 . S
N18 C20 1.361 . S
N18 C21 1.377 . S
C19 N16 1.382 . S
C19 N17 1.371 . S
C19 C22 1.480 . S
C20 N17 1.372 . S
C20 N18 1.361 . S
C20 C28 1.457 . S
C21 N16 1.363 . S
C21 N18 1.377 . S
C21 C34 1.479 . S
C22 C19 1.480 . S
C22 C23 1.383 . S
C22 C27 1.385 . S
C23 H4 0.947 . S
C23 C22 1.383 . S
C23 C24 1.388 . S
C24 H5 0.946 . S
C24 C23 1.388 . S
C24 C25 1.384 . S
C25 C24 1.384 . S
C25 C26 1.377 . S
C26 H6 0.953 . S
C26 C25 1.377 . S
C26 C27 1.369 . S
C27 H7 0.945 . S
C27 C22 1.385 . S
C27 C26 1.369 . S
C28 C20 1.457 . S
C28 C29 1.372 . S
C28 C33 1.364 . S
C29 H8 0.952 . S
C29 C28 1.372 . S
C29 C30 1.389 . S
C30 H9 0.949 1_554 S
C30 C29 1.389 . S
C30 C31 1.387 . S
C31 C30 1.387 . S
C31 C32 1.372 . S
C32 H10 0.950 . S
C32 C31 1.372 . S
C32 C33 1.379 . S
C33 H11 0.948 . S
C33 C28 1.364 . S
C33 C32 1.379 . S
C34 C3 1.383 . S
C34 C21 1.479 . S
C34 C35 1.398 . S
C35 C0 1.382 . S
C35 H12 0.951 . S
C35 C34 1.398 . S
C36 C37 1.384 . S
C36 H49 0.947 . S
C36 C71 1.382 . S
C37 C36 1.384 . S
C37 C38 1.378 . S
C38 C37 1.378 . S
C38 C39 1.378 . S
C38 H50 0.952 . S
C39 C38 1.378 . S
C39 H51 0.950 . S
C39 C70 1.383 . S
H40 C59 0.947 . S
H41 C60 0.946 . S
H42 C62 0.953 . S
H43 C63 0.945 . S
H44 C65 0.952 . S
H45 C66 0.949 1_556 S
H46 C68 0.950 . S
H47 C69 0.948 . S
H48 C71 0.951 . S
H49 C36 0.947 . S
H50 C38 0.952 . S
H51 C39 0.950 . S
N52 C55 1.382 . S
N52 C57 1.363 . S
N53 C55 1.371 . S
N53 C56 1.372 . S
N54 C56 1.361 . S
N54 C57 1.377 . S
C55 N52 1.382 . S
C55 N53 1.371 . S
C55 C58 1.480 . S
C56 N53 1.372 . S
C56 N54 1.361 . S
C56 C64 1.457 . S
C57 N52 1.363 . S
C57 N54 1.377 . S
C57 C70 1.479 . S
C58 C55 1.480 . S
C58 C59 1.383 . S
C58 C63 1.385 . S
C59 H40 0.947 . S
C59 C58 1.383 . S
C59 C60 1.388 . S
C60 H41 0.946 . S
C60 C59 1.388 . S
C60 C61 1.384 . S
C61 C60 1.384 . S
C61 C62 1.377 . S
C62 H42 0.953 . S
C62 C61 1.377 . S
C62 C63 1.369 . S
C63 H43 0.945 . S
C63 C58 1.385 . S
C63 C62 1.369 . S
C64 C56 1.457 . S
C64 C65 1.372 . S
C64 C69 1.364 . S
C65 H44 0.952 . S
C65 C64 1.372 . S
C65 C66 1.389 . S
C66 H45 0.949 1_554 S
C66 C65 1.389 . S
C66 C67 1.387 . S
C67 C66 1.387 . S
C67 C68 1.372 . S
C68 H46 0.950 . S
C68 C67 1.372 . S
C68 C69 1.379 . S
C69 H47 0.948 . S
C69 C64 1.364 . S
C69 C68 1.379 . S
C70 C39 1.383 . S
C70 C57 1.479 . S
C70 C71 1.398 . S
C71 C36 1.382 . S
C71 H48 0.951 . S
C71 C70 1.398 . S
C72 C73 1.384 . S
C72 H85 0.947 . S
C72 C107 1.382 . S
C73 C72 1.384 . S
C73 C74 1.378 . S
C74 C73 1.378 . S
C74 C75 1.378 . S
C74 H86 0.952 . S
C75 C74 1.378 . S
C75 H87 0.950 . S
C75 C106 1.383 . S
H76 C95 0.947 . S
H77 C96 0.946 . S
H78 C98 0.953 . S
H79 C99 0.945 . S
H80 C101 0.952 . S
H81 C102 0.949 1_556 S
H82 C104 0.950 . S
H83 C105 0.948 . S
H84 C107 0.951 . S
H85 C72 0.947 . S
H86 C74 0.952 . S
H87 C75 0.950 . S
N88 C91 1.382 . S
N88 C93 1.363 . S
N89 C91 1.371 . S
N89 C92 1.372 . S
N90 C92 1.361 . S
N90 C93 1.377 . S
C91 N88 1.382 . S
C91 N89 1.371 . S
C91 C94 1.480 . S
C92 N89 1.372 . S
C92 N90 1.361 . S
C92 C100 1.457 . S
C93 N88 1.363 . S
C93 N90 1.377 . S
C93 C106 1.479 . S
C94 C91 1.480 . S
C94 C95 1.383 . S
C94 C99 1.385 . S
C95 H76 0.947 . S
C95 C94 1.383 . S
C95 C96 1.388 . S
C96 H77 0.946 . S
C96 C95 1.388 . S
C96 C97 1.384 . S
C97 C96 1.384 . S
C97 C98 1.377 . S
C98 H78 0.953 . S
C98 C97 1.377 . S
C98 C99 1.369 . S
C99 H79 0.945 . S
C99 C94 1.385 . S
C99 C98 1.369 . S
C100 C92 1.457 . S
C100 C101 1.372 . S
C100 C105 1.364 . S
C101 H80 0.952 . S
C101 C100 1.372 . S
C101 C102 1.389 . S
C102 H81 0.949 1_554 S
C102 C101 1.389 . S
C102 C103 1.387 . S
C103 C102 1.387 . S
C103 C104 1.372 . S
C104 H82 0.950 . S
C104 C103 1.372 . S
C104 C105 1.379 . S
C105 H83 0.948 . S
C105 C100 1.364 . S
C105 C104 1.379 . S
C106 C75 1.383 . S
C106 C93 1.479 . S
C106 C107 1.398 . S
C107 C72 1.382 . S
C107 H84 0.951 . S
C107 C106 1.398 . S
C108 C109 1.384 . S
C108 H121 0.947 . S
C108 C143 1.382 . S
C109 C108 1.384 . S
C109 C110 1.378 . S
C110 C109 1.378 . S
C110 C111 1.378 . S
C110 H122 0.952 1_554 S
C111 C110 1.378 . S
C111 H123 0.950 . S
C111 C142 1.383 . S
H112 C131 0.947 . S
H113 C132 0.946 . S
H114 C134 0.953 . S
H115 C135 0.945 . S
H116 C137 0.952 . S
H117 C138 0.949 . S
H118 C140 0.950 . S
H119 C141 0.948 . S
H120 C143 0.951 . S
H121 C108 0.947 . S
H122 C110 0.952 1_556 S
H123 C111 0.950 . S
N124 C127 1.382 . S
N124 C129 1.363 . S
N125 C127 1.371 . S
N125 C128 1.372 . S
N126 C128 1.361 . S
N126 C129 1.377 . S
C127 N124 1.382 . S
C127 N125 1.371 . S
C127 C130 1.480 . S
C128 N125 1.372 . S
C128 N126 1.361 . S
C128 C136 1.457 . S
C129 N124 1.363 . S
C129 N126 1.377 . S
C129 C142 1.479 . S
C130 C127 1.480 . S
C130 C131 1.383 . S
C130 C135 1.385 . S
C131 H112 0.947 . S
C131 C130 1.383 . S
C131 C132 1.388 . S
C132 H113 0.946 . S
C132 C131 1.388 . S
C132 C133 1.384 . S
C133 C132 1.384 . S
C133 C134 1.377 . S
C134 H114 0.953 . S
C134 C133 1.377 . S
C134 C135 1.369 . S
C135 H115 0.945 . S
C135 C130 1.385 . S
C135 C134 1.369 . S
C136 C128 1.457 . S
C136 C137 1.372 . S
C136 C141 1.364 . S
C137 H116 0.952 . S
C137 C136 1.372 . S
C137 C138 1.389 . S
C138 H117 0.949 . S
C138 C137 1.389 . S
C138 C139 1.387 . S
C139 C138 1.387 . S
C139 C140 1.372 . S
C140 H118 0.950 . S
C140 C139 1.372 . S
C140 C141 1.379 . S
C141 H119 0.948 . S
C141 C136 1.364 . S
C141 C140 1.379 . S
C142 C111 1.383 . S
C142 C129 1.479 . S
C142 C143 1.398 . S
C143 C108 1.382 . S
C143 H120 0.951 . S
C143 C142 1.398 . S
C144 C145 1.384 . S
C144 H157 0.947 . S
C144 C179 1.382 . S
C145 C144 1.384 . S
C145 C146 1.378 . S
C146 C145 1.378 . S
C146 C147 1.378 . S
C146 H158 0.952 . S
C147 C146 1.378 . S
C147 H159 0.950 . S
C147 C178 1.383 . S
H148 C167 0.947 1_556 S
H149 C168 0.946 . S
H150 C170 0.953 . S
H151 C171 0.945 . S
H152 C173 0.952 . S
H153 C174 0.949 . S
H154 C176 0.950 . S
H155 C177 0.948 . S
H156 C179 0.951 . S
H157 C144 0.947 . S
H158 C146 0.952 . S
H159 C147 0.950 . S
N160 C163 1.382 1_556 S
N160 C165 1.363 . S
N161 C163 1.371 . S
N161 C164 1.372 . S
N162 C164 1.361 . S
N162 C165 1.377 1_554 S
C163 N160 1.382 1_554 S
C163 N161 1.371 . S
C163 C166 1.480 . S
C164 N161 1.372 . S
C164 N162 1.361 . S
C164 C172 1.457 . S
C165 N160 1.363 . S
C165 N162 1.377 1_556 S
C165 C178 1.479 . S
C166 C163 1.480 . S
C166 C167 1.383 . S
C166 C171 1.385 . S
C167 H148 0.947 1_554 S
C167 C166 1.383 . S
C167 C168 1.388 . S
C168 H149 0.946 . S
C168 C167 1.388 . S
C168 C169 1.384 . S
C169 C168 1.384 . S
C169 C170 1.377 . S
C170 H150 0.953 . S
C170 C169 1.377 . S
C170 C171 1.369 . S
C171 H151 0.945 . S
C171 C166 1.385 . S
C171 C170 1.369 . S
C172 C164 1.457 . S
C172 C173 1.372 . S
C172 C177 1.364 . S
C173 H152 0.952 . S
C173 C172 1.372 . S
C173 C174 1.389 . S
C174 H153 0.949 . S
C174 C173 1.389 . S
C174 C175 1.387 . S
C175 C174 1.387 . S
C175 C176 1.372 . S
C176 H154 0.950 . S
C176 C175 1.372 . S
C176 C177 1.379 . S
C177 H155 0.948 . S
C177 C172 1.364 . S
C177 C176 1.379 . S
C178 C147 1.383 . S
C178 C165 1.479 . S
C178 C179 1.398 . S
C179 C144 1.382 . S
C179 H156 0.951 . S
C179 C178 1.398 . S
C180 C181 1.384 . S
C180 H193 0.947 . S
C180 C215 1.382 . S
C181 C180 1.384 . S
C181 C182 1.378 . S
C182 C181 1.378 . S
C182 C183 1.378 . S
C182 H194 0.952 . S
C183 C182 1.378 . S
C183 H195 0.950 . S
C183 C214 1.383 . S
H184 C203 0.947 1_556 S
H185 C204 0.946 . S
H186 C206 0.953 . S
H187 C207 0.945 . S
H188 C209 0.952 . S
H189 C210 0.949 . S
H190 C212 0.950 . S
H191 C213 0.948 . S
H192 C215 0.951 . S
H193 C180 0.947 . S
H194 C182 0.952 . S
H195 C183 0.950 . S
N196 C199 1.382 1_556 S
N196 C201 1.363 . S
N197 C199 1.371 . S
N197 C200 1.372 . S
N198 C200 1.361 . S
N198 C201 1.377 1_554 S
C199 N196 1.382 1_554 S
C199 N197 1.371 . S
C199 C202 1.480 . S
C200 N197 1.372 . S
C200 N198 1.361 . S
C200 C208 1.457 . S
C201 N196 1.363 . S
C201 N198 1.377 1_556 S
C201 C214 1.479 . S
C202 C199 1.480 . S
C202 C203 1.383 . S
C202 C207 1.385 . S
C203 H184 0.947 1_554 S
C203 C202 1.383 . S
C203 C204 1.388 . S
C204 H185 0.946 . S
C204 C203 1.388 . S
C204 C205 1.384 . S
C205 C204 1.384 . S
C205 C206 1.377 . S
C206 H186 0.953 . S
C206 C205 1.377 . S
C206 C207 1.369 . S
C207 H187 0.945 . S
C207 C202 1.385 . S
C207 C206 1.369 . S
C208 C200 1.457 . S
C208 C209 1.372 . S
C208 C213 1.364 . S
C209 H188 0.952 . S
C209 C208 1.372 . S
C209 C210 1.389 . S
C210 H189 0.949 . S
C210 C209 1.389 . S
C210 C211 1.387 . S
C211 C210 1.387 . S
C211 C212 1.372 . S
C212 H190 0.950 . S
C212 C211 1.372 . S
C212 C213 1.379 . S
C213 H191 0.948 . S
C213 C208 1.364 . S
C213 C212 1.379 . S
C214 C183 1.383 . S
C214 C201 1.479 . S
C214 C215 1.398 . S
C215 C180 1.382 . S
C215 H192 0.951 . S
C215 C214 1.398 . S
C216 C217 1.384 . S
C216 H229 0.947 . S
C216 C251 1.382 . S
C217 C216 1.384 . S
C217 C218 1.378 . S
C218 C217 1.378 . S
C218 C219 1.378 . S
C218 H230 0.952 . S
C219 C218 1.378 . S
C219 H231 0.950 . S
C219 C250 1.383 . S
H220 C239 0.947 1_556 S
H221 C240 0.946 . S
H222 C242 0.953 . S
H223 C243 0.945 . S
H224 C245 0.952 . S
H225 C246 0.949 . S
H226 C248 0.950 . S
H227 C249 0.948 . S
H228 C251 0.951 . S
H229 C216 0.947 . S
H230 C218 0.952 . S
H231 C219 0.950 . S
N232 C235 1.382 1_556 S
N232 C237 1.363 . S
N233 C235 1.371 . S
N233 C236 1.372 . S
N234 C236 1.361 . S
N234 C237 1.377 1_554 S
C235 N232 1.382 1_554 S
C235 N233 1.371 . S
C235 C238 1.480 . S
C236 N233 1.372 . S
C236 N234 1.361 . S
C236 C244 1.457 . S
C237 N232 1.363 . S
C237 N234 1.377 1_556 S
C237 C250 1.479 . S
C238 C235 1.480 . S
C238 C239 1.383 . S
C238 C243 1.385 . S
C239 H220 0.947 1_554 S
C239 C238 1.383 . S
C239 C240 1.388 . S
C240 H221 0.946 . S
C240 C239 1.388 . S
C240 C241 1.384 . S
C241 C240 1.384 . S
C241 C242 1.377 . S
C242 H222 0.953 . S
C242 C241 1.377 . S
C242 C243 1.369 . S
C243 H223 0.945 . S
C243 C238 1.385 . S
C243 C242 1.369 . S
C244 C236 1.457 . S
C244 C245 1.372 . S
C244 C249 1.364 . S
C245 H224 0.952 . S
C245 C244 1.372 . S
C245 C246 1.389 . S
C246 H225 0.949 . S
C246 C245 1.389 . S
C246 C247 1.387 . S
C247 C246 1.387 . S
C247 C248 1.372 . S
C248 H226 0.950 . S
C248 C247 1.372 . S
C248 C249 1.379 . S
C249 H227 0.948 . S
C249 C244 1.364 . S
C249 C248 1.379 . S
C250 C219 1.383 . S
C250 C237 1.479 . S
C250 C251 1.398 . S
C251 C216 1.382 . S
C251 H228 0.951 . S
C251 C250 1.398 . S
C252 C253 1.384 . S
C252 H265 0.947 . S
C252 C287 1.382 . S
C253 C252 1.384 . S
C253 C254 1.378 . S
C254 C253 1.378 . S
C254 C255 1.378 . S
C254 H266 0.952 . S
C255 C254 1.378 . S
C255 H267 0.950 . S
C255 C286 1.383 . S
H256 C275 0.947 . S
H257 C276 0.946 . S
H258 C278 0.953 1_556 S
H259 C279 0.945 1_556 S
H260 C281 0.952 . S
H261 C282 0.949 . S
H262 C284 0.950 . S
H263 C285 0.948 . S
H264 C287 0.951 . S
H265 C252 0.947 . S
H266 C254 0.952 . S
H267 C255 0.950 . S
N268 C271 1.382 . S
N268 C273 1.363 . S
N269 C271 1.371 1_556 S
N269 C272 1.372 . S
N270 C272 1.361 1_554 S
N270 C273 1.377 . S
C271 N268 1.382 . S
C271 N269 1.371 1_554 S
C271 C274 1.480 . S
C272 N269 1.372 . S
C272 N270 1.361 1_556 S
C272 C280 1.457 . S
C273 N268 1.363 . S
C273 N270 1.377 . S
C273 C286 1.479 . S
C274 C271 1.480 . S
C274 C275 1.383 . S
C274 C279 1.385 . S
C275 H256 0.947 . S
C275 C274 1.383 . S
C275 C276 1.388 . S
C276 H257 0.946 . S
C276 C275 1.388 . S
C276 C277 1.384 . S
C277 C276 1.384 . S
C277 C278 1.377 . S
C278 H258 0.953 1_554 S
C278 C277 1.377 . S
C278 C279 1.369 . S
C279 H259 0.945 1_554 S
C279 C274 1.385 . S
C279 C278 1.369 . S
C280 C272 1.457 . S
C280 C281 1.372 . S
C280 C285 1.364 . S
C281 H260 0.952 . S
C281 C280 1.372 . S
C281 C282 1.389 . S
C282 H261 0.949 . S
C282 C281 1.389 . S
C282 C283 1.387 . S
C283 C282 1.387 . S
C283 C284 1.372 . S
C284 H262 0.950 . S
C284 C283 1.372 . S
C284 C285 1.379 . S
C285 H263 0.948 . S
C285 C280 1.364 . S
C285 C284 1.379 . S
C286 C255 1.383 . S
C286 C273 1.479 . S
C286 C287 1.398 . S
C287 C252 1.382 . S
C287 H264 0.951 . S
C287 C286 1.398 . S
Tb288 N317 2.617 . S
Tb288 N323 2.572 . S
Tb288 O332 2.465 . S
Tb288 O333 2.387 1_545 S
Tb288 O335 2.428 . S
Tb288 O336 2.308 1_655 S
Tb288 O340 2.331 1_655 S
Tb288 O343 2.393 . S
Tb288 C352 2.802 . S
C289 N290 1.396 . S
C289 C292 1.416 . S
C289 C296 1.424 . S
N290 C289 1.396 . S
N290 C293 1.331 1_545 S
N290 Tb299 2.609 1_545 S
C291 C293 1.390 1_545 S
C291 C294 1.339 . S
C291 H311 0.930 . S
C292 C289 1.416 . S
C292 C294 1.416 . S
C292 C298 1.448 . S
C293 N290 1.331 1_565 S
C293 C291 1.390 1_565 S
C293 H304 0.930 . S
C294 C291 1.339 . S
C294 C292 1.416 . S
C294 H315 0.930 . S
C295 C296 1.413 . S
C295 C297 1.427 1_556 S
C295 C301 1.416 1_556 S
C296 C289 1.424 . S
C296 C295 1.413 . S
C296 N300 1.361 . S
C297 C295 1.427 1_554 S
C297 C298 1.328 1_554 S
C297 H312 0.929 . S
C298 C292 1.448 . S
C298 C297 1.328 1_556 S
C298 H313 0.930 . S
Tb299 N290 2.609 1_565 S
Tb299 N300 2.572 1_565 S
Tb299 O334 2.349 . S
Tb299 O337 2.393 . S
Tb299 O338 2.465 . S
Tb299 O339 2.387 1_565 S
Tb299 O341 2.428 . S
Tb299 O342 2.307 1_465 S
Tb299 C363 2.802 . S
N300 C296 1.361 . S
N300 Tb299 2.572 1_545 S
N300 C302 1.340 . S
C301 C295 1.416 1_554 S
C301 C303 1.332 . S
C301 H309 0.931 . S
C302 N300 1.340 . S
C302 C303 1.407 1_556 S
C302 H308 0.930 . S
C303 C301 1.332 . S
C303 C302 1.407 1_554 S
C303 H305 0.929 . S
H304 C293 0.930 . S
H305 C303 0.929 . S
H306 C321 0.930 . S
H307 C328 0.929 1_455 S
H308 C302 0.930 . S
H309 C301 0.931 . S
H310 C324 0.930 1_455 S
H311 C291 0.930 . S
H312 C297 0.929 . S
H313 C298 0.930 . S
H314 C319 0.930 . S
H315 C294 0.930 . S
H316 C327 0.931 . S
N317 Tb288 2.617 . S
N317 C318 1.370 1_545 S
N317 C321 1.334 . S
C318 N317 1.370 1_565 S
C318 C320 1.423 . S
C318 C326 1.426 . S
C319 H314 0.930 . S
C319 C321 1.390 . S
C319 C322 1.339 1_545 S
C320 C318 1.423 . S
C320 C322 1.416 . S
C320 C353 1.448 . S
C321 H306 0.930 . S
C321 N317 1.334 . S
C321 C319 1.390 . S
C322 C319 1.339 1_565 S
C322 C320 1.416 . S
C322 H329 0.930 . S
N323 Tb288 2.572 . S
N323 C324 1.340 . S
N323 C326 1.361 1_545 S
C324 H310 0.930 1_655 S
C324 N323 1.340 . S
C324 C328 1.407 1_545 S
C325 C326 1.413 . S
C325 C327 1.416 . S
C325 C354 1.427 . S
C326 C318 1.426 . S
C326 N323 1.361 1_565 S
C326 C325 1.413 . S
C327 H316 0.931 . S
C327 C325 1.416 . S
C327 C328 1.332 . S
C328 H307 0.929 1_655 S
C328 C324 1.407 1_565 S
C328 C327 1.332 . S
H329 C322 0.930 . S
H330 C353 0.930 . S
H331 C354 0.929 . S
O332 Tb288 2.465 . S
O332 C352 1.264 . S
O333 Tb288 2.387 1_565 S
O333 C344 1.264 . S
O334 Tb299 2.349 . S
O334 C344 1.243 1_455 S
O335 Tb288 2.428 . S
O335 C352 1.256 . S
O336 Tb288 2.308 1_455 S
O336 C351 1.266 . S
O337 Tb299 2.393 . S
O337 C351 1.248 1_565 S
O338 Tb299 2.465 . S
O338 C363 1.264 . S
O339 Tb299 2.387 1_545 S
O339 C355 1.264 . S
O340 Tb288 2.331 1_455 S
O340 C355 1.270 . S
O341 Tb299 2.428 . S
O341 C363 1.256 . S
O342 Tb299 2.307 1_645 S
O342 C362 1.267 . S
O343 Tb288 2.393 . S
O343 C362 1.248 . S
C344 O333 1.264 . S
C344 O334 1.243 1_655 S
C345 C348 1.399 . S
C345 C350 1.383 . S
C345 C352 1.496 . S
C346 C347 1.399 . S
C346 C350 1.389 . S
C347 C346 1.399 . S
C347 C349 1.380 . S
C347 H364 0.929 . S
C348 C345 1.399 . S
C348 C349 1.392 . S
C348 H365 0.929 . S
C349 C347 1.380 . S
C349 C348 1.392 . S
C349 H366 0.929 . S
C350 C345 1.383 . S
C350 C346 1.389 . S
C350 H367 0.931 1_655 S
C351 O336 1.266 . S
C351 O337 1.248 1_545 S
C352 Tb288 2.802 . S
C352 O332 1.264 . S
C352 O335 1.256 . S
C352 C345 1.496 . S
C353 C320 1.448 . S
C353 H330 0.930 . S
C353 C354 1.328 . S
C354 C325 1.427 . S
C354 H331 0.929 . S
C354 C353 1.328 . S
C355 O339 1.264 . S
C355 O340 1.270 . S
C356 C359 1.399 . S
C356 C360 1.383 . S
C356 C363 1.496 . S
C357 C358 1.399 . S
C357 C360 1.389 . S
C358 C357 1.399 . S
C358 C361 1.380 . S
C358 H368 0.929 . S
C359 C356 1.399 . S
C359 C361 1.392 . S
C359 H369 0.929 . S
C360 C356 1.383 . S
C360 C357 1.389 . S
C360 H370 0.931 . S
C361 C358 1.380 . S
C361 C359 1.392 . S
C361 H371 0.929 . S
C362 O342 1.267 . S
C362 O343 1.248 . S
C363 Tb299 2.802 . S
C363 O338 1.264 . S
C363 O341 1.256 . S
C363 C356 1.496 . S
H364 C347 0.929 . S
H365 C348 0.929 . S
H366 C349 0.929 . S
H367 C350 0.931 1_455 S
H368 C358 0.929 . S
H369 C359 0.929 . S
H370 C360 0.931 . S
H371 C361 0.929 . S
Tb372 N401 2.617 . S
Tb372 N407 2.572 . S
Tb372 O416 2.465 . S
Tb372 O417 2.387 . S
Tb372 O419 2.428 . S
Tb372 O420 2.308 . S
Tb372 O424 2.349 1_545 S
Tb372 O427 2.393 . S
Tb372 C436 2.802 . S
C373 N374 1.379 . S
C373 C376 1.416 . S
C373 C380 1.424 . S
N374 C373 1.379 . S
N374 C377 1.334 . S
N374 Tb383 2.617 . S
C375 C377 1.390 . S
C375 C378 1.339 . S
C375 H395 0.930 . S
C376 C373 1.416 . S
C376 C378 1.416 . S
C376 C382 1.448 . S
C377 N374 1.334 . S
C377 C375 1.390 . S
C377 H388 0.930 . S
C378 C375 1.339 . S
C378 C376 1.416 . S
C378 H399 0.930 . S
C379 C380 1.413 . S
C379 C381 1.427 . S
C379 C385 1.416 . S
C380 C373 1.424 . S
C380 C379 1.413 . S
C380 N384 1.361 . S
C381 C379 1.427 . S
C381 C382 1.328 . S
C381 H396 0.929 . S
C382 C376 1.448 . S
C382 C381 1.328 . S
C382 H397 0.930 . S
Tb383 N374 2.617 . S
Tb383 N384 2.572 . S
Tb383 O418 2.349 1_565 S
Tb383 O421 2.393 . S
Tb383 O422 2.465 . S
Tb383 O423 2.387 . S
Tb383 O425 2.428 . S
Tb383 O426 2.308 1_565 S
Tb383 C447 2.802 . S
N384 C380 1.361 . S
N384 Tb383 2.572 . S
N384 C386 1.340 . S
C385 C379 1.416 . S
C385 C387 1.332 . S
C385 H393 0.931 . S
C386 N384 1.340 . S
C386 C387 1.407 . S
C386 H392 0.930 . S
C387 C385 1.332 . S
C387 C386 1.407 . S
C387 H389 0.929 . S
H388 C377 0.930 . S
H389 C387 0.929 . S
H390 C405 0.930 . S
H391 C412 0.929 . S
H392 C386 0.930 . S
H393 C385 0.931 . S
H394 C408 0.930 . S
H395 C375 0.930 . S
H396 C381 0.929 . S
H397 C382 0.930 . S
H398 C403 0.930 . S
H399 C378 0.930 . S
H400 C411 0.931 . S
N401 Tb372 2.617 . S
N401 C402 1.379 . S
N401 C405 1.334 . S
C402 N401 1.379 . S
C402 C404 1.416 . S
C402 C410 1.424 . S
C403 H398 0.930 . S
C403 C405 1.390 . S
C403 C406 1.339 . S
C404 C402 1.416 . S
C404 C406 1.416 . S
C404 C437 1.448 . S
C405 H390 0.930 . S
C405 N401 1.334 . S
C405 C403 1.390 . S
C406 C403 1.339 . S
C406 C404 1.416 . S
C406 H413 0.930 . S
N407 Tb372 2.572 . S
N407 C408 1.340 . S
N407 C410 1.361 . S
C408 H394 0.930 . S
C408 N407 1.340 . S
C408 C412 1.407 . S
C409 C410 1.413 . S
C409 C411 1.416 . S
C409 C438 1.427 . S
C410 C402 1.424 . S
C410 N407 1.361 . S
C410 C409 1.413 . S
C411 H400 0.931 . S
C411 C409 1.416 . S
C411 C412 1.332 . S
C412 H391 0.929 . S
C412 C408 1.407 . S
C412 C411 1.332 . S
H413 C406 0.930 . S
H414 C437 0.930 . S
H415 C438 0.929 . S
O416 Tb372 2.465 . S
O416 C436 1.264 . S
O417 Tb372 2.387 . S
O417 C428 1.264 . S
O418 Tb383 2.349 1_545 S
O418 C428 1.243 . S
O419 Tb372 2.428 . S
O419 C436 1.256 . S
O420 Tb372 2.308 . S
O420 C435 1.266 1_545 S
O421 Tb383 2.393 . S
O421 C435 1.248 . S
O422 Tb383 2.465 . S
O422 C447 1.264 . S
O423 Tb383 2.387 . S
O423 C439 1.264 . S
O424 Tb372 2.349 1_565 S
O424 C439 1.243 . S
O425 Tb383 2.428 . S
O425 C447 1.256 . S
O426 Tb383 2.308 1_545 S
O426 C446 1.266 . S
O427 Tb372 2.393 . S
O427 C446 1.248 . S
C428 O417 1.264 . S
C428 O418 1.243 . S
C429 C432 1.399 1_556 S
C429 C434 1.383 . S
C429 C436 1.496 . S
C430 C431 1.399 1_556 S
C430 C434 1.389 . S
C431 C430 1.399 1_554 S
C431 C433 1.380 . S
C431 H448 0.929 . S
C432 C429 1.399 1_554 S
C432 C433 1.392 . S
C432 H449 0.929 . S
C433 C431 1.380 . S
C433 C432 1.392 . S
C433 H450 0.929 . S
C434 C429 1.383 . S
C434 C430 1.389 . S
C434 H451 0.931 . S
C435 O420 1.266 1_565 S
C435 O421 1.248 . S
C436 Tb372 2.802 . S
C436 O416 1.264 . S
C436 O419 1.256 . S
C436 C429 1.496 . S
C437 C404 1.448 . S
C437 H414 0.930 . S
C437 C438 1.328 . S
C438 C409 1.427 . S
C438 H415 0.929 . S
C438 C437 1.328 . S
C439 O423 1.264 . S
C439 O424 1.243 . S
C440 C443 1.399 . S
C440 C444 1.383 . S
C440 C447 1.496 . S
C441 C442 1.399 . S
C441 C444 1.389 . S
C442 C441 1.399 . S
C442 C445 1.380 . S
C442 H452 0.929 . S
C443 C440 1.399 . S
C443 C445 1.392 . S
C443 H453 0.929 . S
C444 C440 1.383 . S
C444 C441 1.389 . S
C444 H454 0.931 . S
C445 C442 1.380 . S
C445 C443 1.392 . S
C445 H455 0.929 . S
C446 O426 1.266 . S
C446 O427 1.248 . S
C447 Tb383 2.802 . S
C447 O422 1.264 . S
C447 O425 1.256 . S
C447 C440 1.496 . S
H448 C431 0.929 . S
H449 C432 0.929 . S
H450 C433 0.929 . S
H451 C434 0.931 . S
H452 C442 0.929 . S
H453 C443 0.929 . S
H454 C444 0.931 . S
H455 C445 0.929 . S
Tb456 N485 2.617 . S
Tb456 N491 2.572 . S
Tb456 O500 2.465 . S
Tb456 O501 2.387 . S
Tb456 O503 2.428 . S
Tb456 O504 2.308 . S
Tb456 O508 2.349 . S
Tb456 O511 2.393 . S
Tb456 C520 2.802 . S
C457 N458 1.379 . S
C457 C460 1.416 . S
C457 C464 1.424 . S
N458 C457 1.379 . S
N458 C461 1.334 . S
N458 Tb467 2.617 . S
C459 C461 1.390 . S
C459 C462 1.339 . S
C459 H479 0.930 . S
C460 C457 1.416 . S
C460 C462 1.416 . S
C460 C466 1.448 . S
C461 N458 1.334 . S
C461 C459 1.390 . S
C461 H472 0.930 . S
C462 C459 1.339 . S
C462 C460 1.416 . S
C462 H483 0.930 . S
C463 C464 1.413 . S
C463 C465 1.427 1_556 S
C463 C469 1.416 1_556 S
C464 C457 1.424 . S
C464 C463 1.413 . S
C464 N468 1.361 . S
C465 C463 1.427 1_554 S
C465 C466 1.328 1_554 S
C465 H480 0.929 . S
C466 C460 1.448 . S
C466 C465 1.328 1_556 S
C466 H481 0.930 . S
Tb467 N458 2.617 . S
Tb467 N468 2.572 . S
Tb467 O502 2.349 . S
Tb467 O505 2.393 . S
Tb467 O506 2.465 . S
Tb467 O507 2.387 . S
Tb467 O509 2.428 . S
Tb467 O510 2.308 . S
Tb467 C531 2.802 . S
N468 C464 1.361 . S
N468 Tb467 2.572 . S
N468 C470 1.340 . S
C469 C463 1.416 1_554 S
C469 C471 1.332 . S
C469 H477 0.931 . S
C470 N468 1.340 . S
C470 C471 1.407 1_556 S
C470 H476 0.930 . S
C471 C469 1.332 . S
C471 C470 1.407 1_554 S
C471 H473 0.929 . S
H472 C461 0.930 . S
H473 C471 0.929 . S
H474 C489 0.930 . S
H475 C496 0.929 . S
H476 C470 0.930 . S
H477 C469 0.931 . S
H478 C492 0.930 . S
H479 C459 0.930 . S
H480 C465 0.929 . S
H481 C466 0.930 . S
H482 C487 0.930 . S
H483 C462 0.930 . S
H484 C495 0.931 . S
N485 Tb456 2.617 . S
N485 C486 1.379 . S
N485 C489 1.334 . S
C486 N485 1.379 . S
C486 C488 1.416 . S
C486 C494 1.424 . S
C487 H482 0.930 . S
C487 C489 1.390 . S
C487 C490 1.339 . S
C488 C486 1.416 . S
C488 C490 1.416 . S
C488 C521 1.448 . S
C489 H474 0.930 . S
C489 N485 1.334 . S
C489 C487 1.390 . S
C490 C487 1.339 . S
C490 C488 1.416 . S
C490 H497 0.930 . S
N491 Tb456 2.572 . S
N491 C492 1.340 . S
N491 C494 1.361 . S
C492 H478 0.930 . S
C492 N491 1.340 . S
C492 C496 1.407 . S
C493 C494 1.413 . S
C493 C495 1.416 . S
C493 C522 1.427 . S
C494 C486 1.424 . S
C494 N491 1.361 . S
C494 C493 1.413 . S
C495 H484 0.931 . S
C495 C493 1.416 . S
C495 C496 1.332 . S
C496 H475 0.929 . S
C496 C492 1.407 . S
C496 C495 1.332 . S
H497 C490 0.930 . S
H498 C521 0.930 . S
H499 C522 0.929 . S
O500 Tb456 2.465 . S
O500 C520 1.264 . S
O501 Tb456 2.387 . S
O501 C512 1.264 . S
O502 Tb467 2.349 . S
O502 C512 1.243 . S
O503 Tb456 2.428 . S
O503 C520 1.256 . S
O504 Tb456 2.308 . S
O504 C519 1.266 . S
O505 Tb467 2.393 . S
O505 C519 1.248 . S
O506 Tb467 2.465 . S
O506 C531 1.264 . S
O507 Tb467 2.387 . S
O507 C523 1.264 . S
O508 Tb456 2.349 . S
O508 C523 1.243 . S
O509 Tb467 2.428 . S
O509 C531 1.256 . S
O510 Tb467 2.308 . S
O510 C530 1.266 . S
O511 Tb456 2.393 . S
O511 C530 1.248 . S
C512 O501 1.264 . S
C512 O502 1.243 . S
C513 C516 1.399 . S
C513 C518 1.383 . S
C513 C520 1.496 . S
C514 C515 1.399 . S
C514 C518 1.389 . S
C515 C514 1.399 . S
C515 C517 1.380 . S
C515 H532 0.929 . S
C516 C513 1.399 . S
C516 C517 1.392 . S
C516 H533 0.929 . S
C517 C515 1.380 . S
C517 C516 1.392 . S
C517 H534 0.929 . S
C518 C513 1.383 . S
C518 C514 1.389 . S
C518 H535 0.931 . S
C519 O504 1.266 . S
C519 O505 1.248 . S
C520 Tb456 2.802 . S
C520 O500 1.264 . S
C520 O503 1.256 . S
C520 C513 1.496 . S
C521 C488 1.448 . S
C521 H498 0.930 . S
C521 C522 1.328 . S
C522 C493 1.427 . S
C522 H499 0.929 . S
C522 C521 1.328 . S
C523 O507 1.264 . S
C523 O508 1.243 . S
C524 C527 1.399 . S
C524 C528 1.383 . S
C524 C531 1.496 . S
C525 C526 1.399 . S
C525 C528 1.389 . S
C526 C525 1.399 . S
C526 C529 1.380 . S
C526 H536 0.929 . S
C527 C524 1.399 . S
C527 C529 1.392 . S
C527 H537 0.929 . S
C528 C524 1.383 . S
C528 C525 1.389 . S
C528 H538 0.931 . S
C529 C526 1.380 . S
C529 C527 1.392 . S
C529 H539 0.929 . S
C530 O510 1.266 . S
C530 O511 1.248 . S
C531 Tb467 2.802 . S
C531 O506 1.264 . S
C531 O509 1.256 . S
C531 C524 1.496 . S
H532 C515 0.929 . S
H533 C516 0.929 . S
H534 C517 0.929 . S
H535 C518 0.931 . S
H536 C526 0.929 . S
H537 C527 0.929 . S
H538 C528 0.931 . S
H539 C529 0.929 . S
Tb540 N569 2.617 . S
Tb540 N575 2.572 . S
Tb540 O584 2.465 . S
Tb540 O585 2.387 1_455 S
Tb540 O587 2.428 . S
Tb540 O588 2.308 . S
Tb540 O592 2.349 . S
Tb540 O595 2.393 . S
Tb540 C604 2.802 . S
C541 N542 1.379 1_455 S
C541 C544 1.416 . S
C541 C548 1.424 . S
N542 C541 1.379 1_655 S
N542 C545 1.334 . S
N542 Tb551 2.617 . S
C543 C545 1.390 1_455 S
C543 C546 1.339 . S
C543 H563 0.930 . S
C544 C541 1.416 . S
C544 C546 1.416 . S
C544 C550 1.448 . S
C545 N542 1.334 . S
C545 C543 1.390 1_655 S
C545 H556 0.930 . S
C546 C543 1.339 . S
C546 C544 1.416 . S
C546 H567 0.930 . S
C547 C548 1.413 . S
C547 C549 1.427 1_556 S
C547 C553 1.416 1_556 S
C548 C541 1.424 . S
C548 C547 1.413 . S
C548 N552 1.361 . S
C549 C547 1.427 1_554 S
C549 C550 1.328 1_554 S
C549 H564 0.929 . S
C550 C544 1.448 . S
C550 C549 1.328 1_556 S
C550 H565 0.930 . S
Tb551 N542 2.617 . S
Tb551 N552 2.572 1_655 S
Tb551 O586 2.349 . S
Tb551 O589 2.393 . S
Tb551 O590 2.465 . S
Tb551 O591 2.387 1_655 S
Tb551 O593 2.428 . S
Tb551 O594 2.308 . S
Tb551 C615 2.802 . S
N552 C548 1.361 . S
N552 Tb551 2.572 1_455 S
N552 C554 1.340 . S
C553 C547 1.416 1_554 S
C553 C555 1.332 . S
C553 H561 0.931 . S
C554 N552 1.340 . S
C554 C555 1.407 1_556 S
C554 H560 0.924 1_455 S
C555 C553 1.332 . S
C555 C554 1.407 1_554 S
C555 H557 0.929 . S
H556 C545 0.930 . S
H557 C555 0.929 . S
H558 C573 0.930 . S
H559 C580 0.929 . S
H560 C554 0.924 1_655 S
H561 C553 0.931 . S
H562 C576 0.930 . S
H563 C543 0.930 . S
H564 C549 0.929 . S
H565 C550 0.930 . S
H566 C571 0.930 . S
H567 C546 0.930 . S
H568 C579 0.931 . S
N569 Tb540 2.617 . S
N569 C570 1.366 1_455 S
N569 C573 1.334 . S
C570 N569 1.366 1_655 S
C570 C572 1.427 . S
C570 C578 1.427 . S
C571 H566 0.930 . S
C571 C573 1.390 . S
C571 C574 1.339 1_455 S
C572 C570 1.427 . S
C572 C574 1.416 . S
C572 C605 1.448 . S
C573 H558 0.930 . S
C573 N569 1.334 . S
C573 C571 1.390 . S
C574 C571 1.339 1_655 S
C574 C572 1.416 . S
C574 H581 0.930 . S
N575 Tb540 2.572 . S
N575 C576 1.340 . S
N575 C578 1.361 1_455 S
C576 H562 0.930 . S
C576 N575 1.340 . S
C576 C580 1.407 1_455 S
C577 C578 1.413 . S
C577 C579 1.416 . S
C577 C606 1.427 . S
C578 C570 1.427 . S
C578 N575 1.361 1_655 S
C578 C577 1.413 . S
C579 H568 0.931 . S
C579 C577 1.416 . S
C579 C580 1.332 . S
C580 H559 0.929 . S
C580 C576 1.407 1_655 S
C580 C579 1.332 . S
H581 C574 0.930 . S
H582 C605 0.930 . S
H583 C606 0.929 . S
O584 Tb540 2.465 . S
O584 C604 1.264 . S
O585 Tb540 2.387 1_655 S
O585 C596 1.264 . S
O586 Tb551 2.349 . S
O586 C596 1.243 . S
O587 Tb540 2.428 . S
O587 C604 1.256 . S
O588 Tb540 2.308 . S
O588 C603 1.266 . S
O589 Tb551 2.393 . S
O589 C603 1.248 1_655 S
O590 Tb551 2.465 . S
O590 C615 1.264 . S
O591 Tb551 2.387 1_455 S
O591 C607 1.264 . S
O592 Tb540 2.349 . S
O592 C607 1.243 . S
O593 Tb551 2.428 . S
O593 C615 1.256 . S
O594 Tb551 2.308 . S
O594 C614 1.266 1_655 S
O595 Tb540 2.393 . S
O595 C614 1.248 . S
C596 O585 1.264 . S
C596 O586 1.243 . S
C597 C600 1.399 . S
C597 C602 1.383 . S
C597 C604 1.496 . S
C598 C599 1.399 . S
C598 C602 1.389 . S
C599 C598 1.399 . S
C599 C601 1.380 . S
C599 H616 0.929 . S
C600 C597 1.399 . S
C600 C601 1.392 . S
C600 H617 0.929 . S
C601 C599 1.380 . S
C601 C600 1.392 . S
C601 H618 0.929 . S
C602 C597 1.383 . S
C602 C598 1.389 . S
C602 H619 0.931 . S
C603 O588 1.266 . S
C603 O589 1.248 1_455 S
C604 Tb540 2.802 . S
C604 O584 1.264 . S
C604 O587 1.256 . S
C604 C597 1.496 . S
C605 C572 1.448 . S
C605 H582 0.930 . S
C605 C606 1.328 . S
C606 C577 1.427 . S
C606 H583 0.929 . S
C606 C605 1.328 . S
C607 O591 1.264 . S
C607 O592 1.243 . S
C608 C611 1.399 . S
C608 C612 1.383 . S
C608 C615 1.496 . S
C609 C610 1.399 . S
C609 C612 1.389 . S
C610 C609 1.399 . S
C610 C613 1.380 . S
C610 H620 0.929 . S
C611 C608 1.399 . S
C611 C613 1.392 . S
C611 H621 0.929 . S
C612 C608 1.383 . S
C612 C609 1.389 . S
C612 H622 0.931 . S
C613 C610 1.380 . S
C613 C611 1.392 . S
C613 H623 0.929 . S
C614 O594 1.266 1_455 S
C614 O595 1.248 . S
C615 Tb551 2.802 . S
C615 O590 1.264 . S
C615 O593 1.256 . S
C615 C608 1.496 . S
H616 C599 0.929 . S
H617 C600 0.929 . S
H618 C601 0.929 . S
H619 C602 0.931 . S
H620 C610 0.929 . S
H621 C611 0.929 . S
H622 C612 0.931 . S
H623 C613 0.929 . S
C624 C625 1.369 . S
C624 C626 1.419 . S
C624 H628 0.930 . S
C625 C624 1.369 . S
C625 C634 1.429 . S
C626 C624 1.419 . S
C626 C627 1.363 . S
C626 H629 0.929 . S
C627 C626 1.363 . S
C627 C633 1.428 . S
H628 C624 0.930 . S
H629 C626 0.929 . S
S630 N631 1.613 1_655 S
S630 N632 1.610 1_655 S
N631 S630 1.613 1_455 S
N631 C634 1.350 . S
N632 S630 1.610 1_455 S
N632 C633 1.351 . S
C633 C627 1.428 . S
C633 N632 1.351 . S
C633 C634 1.434 . S
C634 C625 1.429 . S
C634 N631 1.350 . S
C634 C633 1.434 . S
C635 C636 1.369 . S
C635 C637 1.419 . S
C635 H639 0.930 . S
C636 C635 1.369 . S
C636 C645 1.429 . S
C637 C635 1.419 . S
C637 C638 1.363 . S
C637 H640 0.929 . S
C638 C637 1.363 . S
C638 C644 1.428 . S
H639 C635 0.930 . S
H640 C637 0.929 . S
S641 N642 1.613 1_565 S
S641 N643 1.610 1_565 S
N642 S641 1.613 1_545 S
N642 C645 1.350 . S
N643 S641 1.610 1_545 S
N643 C644 1.351 . S
C644 C638 1.428 . S
C644 N643 1.351 . S
C644 C645 1.434 . S
C645 C636 1.429 . S
C645 N642 1.350 . S
C645 C644 1.434 . S
C646 C647 1.369 . S
C646 C648 1.419 . S
C646 H650 0.930 . S
C647 C646 1.369 . S
C647 C656 1.429 . S
C648 C646 1.419 . S
C648 C649 1.363 . S
C648 H651 0.929 . S
C649 C648 1.363 . S
C649 C655 1.428 . S
H650 C646 0.930 . S
H651 C648 0.929 . S
S652 N653 1.613 . S
S652 N654 1.610 . S
N653 S652 1.613 . S
N653 C656 1.350 . S
N654 S652 1.610 . S
N654 C655 1.351 . S
C655 C649 1.428 . S
C655 N654 1.351 . S
C655 C656 1.434 . S
C656 C647 1.429 . S
C656 N653 1.350 . S
C656 C655 1.434 . S
C657 C658 1.369 . S
C657 C659 1.419 . S
C657 H661 0.930 . S
C658 C657 1.369 . S
C658 C667 1.429 . S
C659 C657 1.419 . S
C659 C660 1.363 . S
C659 H662 0.929 . S
C660 C659 1.363 . S
C660 C666 1.428 1_455 S
H661 C657 0.930 . S
H662 C659 0.929 . S
S663 N664 1.613 . S
S663 N665 1.610 . S
N664 S663 1.613 . S
N664 C667 1.350 1_655 S
N665 S663 1.610 . S
N665 C666 1.351 . S
C666 C660 1.428 1_655 S
C666 N665 1.351 . S
C666 C667 1.434 1_655 S
C667 C658 1.429 . S
C667 N664 1.350 1_455 S
C667 C666 1.434 1_455 S
C668 C669 1.369 1_545 S
C668 C670 1.419 1_554 S
C668 H672 0.930 . S
C669 C668 1.369 1_565 S
C669 C678 1.429 . S
C670 C668 1.419 1_556 S
C670 C671 1.363 1_545 S
C670 H673 0.929 . S
C671 C670 1.363 1_565 S
C671 C677 1.428 . S
H672 C668 0.930 . S
H673 C670 0.929 . S
S674 N675 1.613 1_556 S
S674 N676 1.610 . S
N675 S674 1.613 1_554 S
N675 C678 1.350 . S
N676 S674 1.610 . S
N676 C677 1.351 . S
C677 C671 1.428 . S
C677 N676 1.351 . S
C677 C678 1.434 1_556 S
C678 C669 1.429 . S
C678 N675 1.350 . S
C678 C677 1.434 1_554 S
C679 C680 1.369 . S
C679 C681 1.419 1_554 S
C679 H683 0.930 . S
C680 C679 1.369 . S
C680 C689 1.429 . S
C681 C679 1.419 1_556 S
C681 C682 1.363 . S
C681 H684 0.929 . S
C682 C681 1.363 . S
C682 C688 1.428 . S
H683 C679 0.930 . S
H684 C681 0.929 . S
S685 N686 1.613 . S
S685 N687 1.610 1_554 S
N686 S685 1.613 . S
N686 C689 1.350 . S
N687 S685 1.610 1_556 S
N687 C688 1.351 . S
C688 C682 1.428 . S
C688 N687 1.351 . S
C688 C689 1.434 1_556 S
C689 C680 1.429 . S
C689 N686 1.350 . S
C689 C688 1.434 1_554 S
C690 C691 1.369 . S
C690 C692 1.419 1_554 S
C690 H694 0.930 . S
C691 C690 1.369 . S
C691 C700 1.429 . S
C692 C690 1.419 1_556 S
C692 C693 1.363 . S
C692 H695 0.929 . S
C693 C692 1.363 . S
C693 C699 1.428 . S
H694 C690 0.930 . S
H695 C692 0.929 . S
S696 N697 1.613 1_556 S
S696 N698 1.610 . S
N697 S696 1.613 1_554 S
N697 C700 1.350 . S
N698 S696 1.610 . S
N698 C699 1.351 . S
C699 C693 1.428 . S
C699 N698 1.351 . S
C699 C700 1.434 1_556 S
C700 C691 1.429 . S
C700 N697 1.350 . S
C700 C699 1.434 1_554 S
C701 C702 1.369 . S
C701 C703 1.416 1_654 S
C701 H705 0.930 1_655 S
C702 C701 1.369 . S
C702 C711 1.429 . S
C703 C701 1.416 1_456 S
C703 C704 1.357 1_455 S
C703 H706 0.940 . S
C704 C703 1.357 1_655 S
C704 C710 1.428 . S
H705 C701 0.930 1_455 S
H706 C703 0.940 . S
S707 N708 1.613 . S
S707 N709 1.610 1_554 S
N708 S707 1.613 . S
N708 C711 1.350 . S
N709 S707 1.610 1_556 S
N709 C710 1.351 . S
C710 C704 1.428 . S
C710 N709 1.351 . S
C710 C711 1.434 1_556 S
C711 C702 1.429 . S
C711 N708 1.350 . S
C711 C710 1.434 1_554 S
C712 C713 1.369 . S
C712 C714 1.419 . S
C712 H716 0.930 . S
C713 C712 1.369 . S
C713 C722 1.429 . S
C714 C712 1.419 . S
C714 C715 1.363 1_455 S
C714 H717 0.929 . S
C715 C714 1.363 1_655 S
C715 C721 1.428 . S
H716 C712 0.930 . S
H717 C714 0.929 . S
S718 N719 1.613 1_655 S
S718 N720 1.610 . S
N719 S718 1.613 1_455 S
N719 C722 1.350 . S
N720 S718 1.610 . S
N720 C721 1.351 . S
C721 C715 1.428 . S
C721 N720 1.351 . S
C721 C722 1.434 1_655 S
C722 C713 1.429 . S
C722 N719 1.350 . S
C722 C721 1.434 1_455 S
C723 C724 1.369 . S
C723 C725 1.419 . S
C723 H727 0.930 . S
C724 C723 1.369 . S
C724 C733 1.429 . S
C725 C723 1.419 . S
C725 C726 1.363 1_545 S
C725 H728 0.929 . S
C726 C725 1.363 1_565 S
C726 C732 1.428 1_565 S
H727 C723 0.930 . S
H728 C725 0.929 . S
S729 N730 1.613 . S
S729 N731 1.610 1_545 S
N730 S729 1.613 . S
N730 C733 1.350 . S
N731 S729 1.610 1_565 S
N731 C732 1.351 1_565 S
C732 C726 1.428 1_545 S
C732 N731 1.351 1_545 S
C732 C733 1.434 . S
C733 C724 1.429 . S
C733 N730 1.350 . S
C733 C732 1.434 . S
C734 C735 1.369 . S
C734 C736 1.419 . S
C734 H738 0.930 . S
C735 C734 1.369 . S
C735 C744 1.429 . S
C736 C734 1.419 . S
C736 C737 1.363 . S
C736 H739 0.929 . S
C737 C736 1.363 . S
C737 C743 1.428 . S
H738 C734 0.930 . S
H739 C736 0.929 . S
S740 N741 1.613 . S
S740 N742 1.610 . S
N741 S740 1.613 . S
N741 C744 1.350 . S
N742 S740 1.610 . S
N742 C743 1.351 . S
C743 C737 1.428 . S
C743 N742 1.351 . S
C743 C744 1.434 . S
C744 C735 1.429 . S
C744 N741 1.350 . S
C744 C743 1.434 . S
C745 C746 1.369 . S
C745 C747 1.419 . S
C745 H749 0.930 . S
C746 C745 1.369 . S
C746 C755 1.429 . S
C747 C745 1.419 . S
C747 C748 1.363 . S
C747 H750 0.929 . S
C748 C747 1.363 . S
C748 C754 1.428 . S
H749 C745 0.930 . S
H750 C747 0.929 . S
S751 N752 1.613 . S
S751 N753 1.610 . S
N752 S751 1.613 . S
N752 C755 1.350 . S
N753 S751 1.610 . S
N753 C754 1.351 . S
C754 C748 1.428 . S
C754 N753 1.351 . S
C754 C755 1.434 . S
C755 C746 1.429 . S
C755 N752 1.350 . S
C755 C754 1.434 . S
C756 C757 1.369 1_556 S
C756 C758 1.419 . S
C756 H760 0.930 . S
C757 C756 1.369 1_554 S
C757 C766 1.429 1_655 S
C758 C756 1.419 . S
C758 C759 1.363 1_655 S
C758 H761 0.929 . S
C759 C758 1.363 1_455 S
C759 C765 1.428 1_556 S
H760 C756 0.930 . S
H761 C758 0.929 . S
S762 N763 1.613 . S
S762 N764 1.610 . S
N763 S762 1.613 . S
N763 C766 1.350 . S
N764 S762 1.610 . S
N764 C765 1.351 . S
C765 C759 1.428 1_554 S
C765 N764 1.351 . S
C765 C766 1.434 . S
C766 C757 1.429 1_455 S
C766 N763 1.350 . S
C766 C765 1.434 . S
C767 C768 1.369 1_545 S
C767 C769 1.419 . S
C767 H771 0.930 . S
C768 C767 1.369 1_565 S
C768 C777 1.429 1_554 S
C769 C767 1.419 . S
C769 C770 1.363 1_554 S
C769 H772 0.929 . S
C770 C769 1.363 1_556 S
C770 C776 1.428 1_545 S
H771 C767 0.930 . S
H772 C769 0.929 . S
S773 N774 1.613 . S
S773 N775 1.610 . S
N774 S773 1.613 . S
N774 C777 1.350 . S
N775 S773 1.610 . S
N775 C776 1.351 . S
C776 C770 1.428 1_565 S
C776 N775 1.351 . S
C776 C777 1.434 . S
C777 C768 1.429 1_556 S
C777 N774 1.350 . S
C777 C776 1.434 . S
C778 C779 1.369 . S
C778 C780 1.419 . S
C778 H782 0.930 . S
C779 C778 1.369 . S
C779 C788 1.429 1_554 S
C780 C778 1.419 . S
C780 C781 1.363 1_554 S
C780 H783 0.929 . S
C781 C780 1.363 1_556 S
C781 C787 1.428 . S
H782 C778 0.930 . S
H783 C780 0.929 . S
S784 N785 1.613 . S
S784 N786 1.610 . S
N785 S784 1.613 . S
N785 C788 1.350 . S
N786 S784 1.610 . S
N786 C787 1.351 . S
C787 C781 1.428 . S
C787 N786 1.351 . S
C787 C788 1.434 . S
C788 C779 1.429 1_556 S
C788 N785 1.350 . S
C788 C787 1.434 . S
C789 C790 1.369 . S
C789 C791 1.419 1_554 S
C789 H793 0.930 . S
C790 C789 1.369 . S
C790 C799 1.429 . S
C791 C789 1.419 1_556 S
C791 C792 1.363 . S
C791 H794 0.929 . S
C792 C791 1.363 . S
C792 C798 1.428 . S
H793 C789 0.930 . S
H794 C791 0.929 . S
S795 N796 1.613 . S
S795 N797 1.610 1_554 S
N796 S795 1.613 . S
N796 C799 1.350 . S
N797 S795 1.610 1_556 S
N797 C798 1.351 . S
C798 C792 1.428 . S
C798 N797 1.351 . S
C798 C799 1.434 1_556 S
C799 C790 1.429 . S
C799 N796 1.350 . S
C799 C798 1.434 1_554 S
C800 C801 1.369 . S
C800 C802 1.419 . S
C800 H804 0.930 . S
C801 C800 1.369 . S
C801 C810 1.429 . S
C802 C800 1.419 . S
C802 C803 1.363 . S
C802 H805 0.929 . S
C803 C802 1.363 . S
C803 C809 1.428 . S
H804 C800 0.930 . S
H805 C802 0.929 . S
S806 N807 1.613 1_655 S
S806 N808 1.610 1_655 S
N807 S806 1.613 1_455 S
N807 C810 1.350 . S
N808 S806 1.610 1_455 S
N808 C809 1.351 . S
C809 C803 1.428 . S
C809 N808 1.351 . S
C809 C810 1.434 . S
C810 C801 1.429 . S
C810 N807 1.350 . S
C810 C809 1.434 . S
C811 C812 1.369 . S
C811 C813 1.419 . S
C811 H815 0.930 . S
C812 C811 1.369 . S
C812 C821 1.429 . S
C813 C811 1.419 . S
C813 C814 1.363 . S
C813 H816 0.929 1_545 S
C814 C813 1.363 . S
C814 C820 1.428 . S
H815 C811 0.930 . S
H816 C813 0.929 1_565 S
S817 N818 1.613 . S
S817 N819 1.610 . S
N818 S817 1.613 . S
N818 C821 1.350 . S
N819 S817 1.610 . S
N819 C820 1.351 . S
C820 C814 1.428 . S
C820 N819 1.351 . S
C820 C821 1.434 . S
C821 C812 1.429 . S
C821 N818 1.350 . S
C821 C820 1.434 . S
C822 C823 1.369 . S
C822 C824 1.419 . S
C822 H826 0.930 . S
C823 C822 1.369 . S
C823 C832 1.429 . S
C824 C822 1.419 . S
C824 C825 1.363 . S
C824 H827 0.929 . S
C825 C824 1.363 . S
C825 C831 1.428 . S
H826 C822 0.930 . S
H827 C824 0.929 . S
S828 N829 1.613 . S
S828 N830 1.610 . S
N829 S828 1.613 . S
N829 C832 1.350 . S
N830 S828 1.610 . S
N830 C831 1.351 . S
C831 C825 1.428 . S
C831 N830 1.351 . S
C831 C832 1.434 . S
C832 C823 1.429 . S
C832 N829 1.350 . S
C832 C831 1.434 . S
C833 C834 1.369 . S
C833 C835 1.419 . S
C833 H837 0.930 . S
C834 C833 1.369 . S
C834 C843 1.429 . S
C835 C833 1.419 . S
C835 C836 1.363 . S
C835 H838 0.929 . S
C836 C835 1.363 . S
C836 C842 1.428 . S
H837 C833 0.930 . S
H838 C835 0.929 . S
S839 N840 1.613 . S
S839 N841 1.610 . S
N840 S839 1.613 . S
N840 C843 1.350 . S
N841 S839 1.610 . S
N841 C842 1.351 . S
C842 C836 1.428 . S
C842 N841 1.351 . S
C842 C843 1.434 . S
C843 C834 1.429 . S
C843 N840 1.350 . S
C843 C842 1.434 . S
C844 C845 1.369 . S
C844 C846 1.419 . S
C844 H848 0.930 . S
C845 C844 1.369 . S
C845 C854 1.429 . S
C846 C844 1.419 . S
C846 C847 1.363 . S
C846 H849 0.929 . S
C847 C846 1.363 . S
C847 C853 1.428 . S
H848 C844 0.930 . S
H849 C846 0.929 . S
S850 N851 1.613 . S
S850 N852 1.610 . S
N851 S850 1.613 . S
N851 C854 1.350 . S
N852 S850 1.610 . S
N852 C853 1.351 . S
C853 C847 1.428 . S
C853 N852 1.351 . S
C853 C854 1.434 . S
C854 C845 1.429 . S
C854 N851 1.350 . S
C854 C853 1.434 . S
C855 C856 1.369 . S
C855 C857 1.419 . S
C855 H859 0.930 . S
C856 C855 1.369 . S
C856 C865 1.429 1_565 S
C857 C855 1.419 . S
C857 C858 1.363 . S
C857 H860 0.929 . S
C858 C857 1.363 . S
C858 C864 1.428 1_565 S
H859 C855 0.930 . S
H860 C857 0.929 . S
S861 N862 1.613 . S
S861 N863 1.610 . S
N862 S861 1.613 . S
N862 C865 1.350 . S
N863 S861 1.610 . S
N863 C864 1.351 . S
C864 C858 1.428 1_545 S
C864 N863 1.351 . S
C864 C865 1.434 . S
C865 C856 1.429 1_545 S
C865 N862 1.350 . S
C865 C864 1.434 . S
C866 C867 1.369 . S
C866 C868 1.419 . S
C866 H870 0.930 . S
C867 C866 1.369 . S
C867 C876 1.429 . S
C868 C866 1.419 . S
C868 C869 1.363 . S
C868 H871 0.929 . S
C869 C868 1.363 . S
C869 C875 1.428 . S
H870 C866 0.930 . S
H871 C868 0.929 . S
S872 N873 1.613 . S
S872 N874 1.610 . S
N873 S872 1.613 . S
N873 C876 1.350 . S
N874 S872 1.610 . S
N874 C875 1.351 . S
C875 C869 1.428 . S
C875 N874 1.351 . S
C875 C876 1.434 . S
C876 C867 1.429 . S
C876 N873 1.350 . S
C876 C875 1.434 . S
C877 C878 1.369 . S
C877 C879 1.419 . S
C877 H881 0.930 . S
C878 C877 1.369 . S
C878 C887 1.429 . S
C879 C877 1.419 . S
C879 C880 1.363 . S
C879 H882 0.929 . S
C880 C879 1.363 . S
C880 C886 1.428 . S
H881 C877 0.930 . S
H882 C879 0.929 . S
S883 N884 1.613 . S
S883 N885 1.610 . S
N884 S883 1.613 . S
N884 C887 1.350 . S
N885 S883 1.610 . S
N885 C886 1.351 . S
C886 C880 1.428 . S
C886 N885 1.351 . S
C886 C887 1.434 . S
C887 C878 1.429 . S
C887 N884 1.350 . S
C887 C886 1.434 . S
C625 C241 2.519 . S
C627 C351 2.812 . S
C638 C428 2.823 . S
C636 C277 2.600 . S
C649 C519 2.821 . S
C647 C169 2.514 . S
C660 C603 2.802 . S
C658 C205 2.512 . S
C671 C362 2.814 1_565 S
C669 C97 2.486 . S
C680 C133 2.620 . S
C682 C439 2.828 . S
C691 C25 2.491 . S
C693 C530 2.820 . S
C702 C61 2.485 . S
C704 C614 2.802 1_655 S
C715 C346 0.751 . S
C713 C211 0.763 . S
C726 C441 0.759 . S
C724 C247 0.761 . S
C737 C514 0.771 . S
C735 C253 0.775 . S
C746 C175 0.764 . S
C748 C598 0.750 . S
C757 C67 0.740 . S
C759 C357 0.759 . S
C770 C430 0.750 . S
C768 C103 0.766 . S
C781 C525 0.766 . S
C779 C109 0.759 . S
C790 C31 0.765 . S
C792 C609 0.754 . S
C801 C181 2.923 . S
C803 C355 3.275 . S
C812 C217 2.917 . S
C814 C446 3.369 . S
C825 C523 3.298 . S
C823 C283 2.843 . S
C836 C607 3.289 . S
C834 C145 2.936 . S
C845 C37 2.912 . S
C847 C344 3.275 . S
C858 C435 3.369 . S
C856 C73 2.902 . S
C869 C512 3.299 . S
C867 C139 2.861 . S
C878 C1 2.918 . S
C880 C596 3.291 . S
