# Generated by pormake.
# Topology pth, (4,4)-cn, num edge types: 1
# Building blocks:
#     Node 0, Type 0, BuildingBlock: UXUYUI_clean_sbu_0, # of connection points: 4
#     Node 1, Type 0, BuildingBlock: UXUYUI_clean_sbu_0, # of connection points: 4
#     Node 2, Type 0, BuildingBlock: UXUYUI_clean_sbu_0, # of connection points: 4
#     Node 3, Type 1, BuildingBlock: MIFKUJ_clean_linker_1, # of connection points: 4
#     Node 4, Type 1, BuildingBlock: MIFKUJ_clean_linker_1, # of connection points: 4
#     Node 5, Type 1, BuildingBlock: MIFKUJ_clean_linker_1, # of connection points: 4
#     Edge 6, Type (0, 1), BuildingBlock: CIFDUS_clean_linker_0, # of connection points: 2
#     Edge 7, Type (0, 1), BuildingBlock: CIFDUS_clean_linker_0, # of connection points: 2
#     Edge 8, Type (0, 1), BuildingBlock: CIFDUS_clean_linker_0, # of connection points: 2
#     Edge 9, Type (0, 1), BuildingBlock: CIFDUS_clean_linker_0, # of connection points: 2
#     Edge 10, Type (0, 1), BuildingBlock: CIFDUS_clean_linker_0, # of connection points: 2
#     Edge 11, Type (0, 1), BuildingBlock: CIFDUS_clean_linker_0, # of connection points: 2
#     Edge 12, Type (0, 1), BuildingBlock: CIFDUS_clean_linker_0, # of connection points: 2
#     Edge 13, Type (0, 1), BuildingBlock: CIFDUS_clean_linker_0, # of connection points: 2
#     Edge 14, Type (0, 1), BuildingBlock: CIFDUS_clean_linker_0, # of connection points: 2
#     Edge 15, Type (0, 1), BuildingBlock: CIFDUS_clean_linker_0, # of connection points: 2
#     Edge 16, Type (0, 1), BuildingBlock: CIFDUS_clean_linker_0, # of connection points: 2
#     Edge 17, Type (0, 1), BuildingBlock: CIFDUS_clean_linker_0, # of connection points: 2
# Relax obj value: 0.075
# Max RMSD: 0.209
# Mean RMSD: 0.121
data_MOF--net-pth--node1-UXUYUI_clean_sbu_0--node2-MIFKUJ_clean_linker_1--edge1-CIFDUS_clean_linker_0
_symmetry_space_group_name_H-M    P1
_symmetry_Int_Tables_number       1
_symmetry_cell_setting            triclinic
loop_
_symmetry_equiv_pos_as_xyz
'x, y, z'
_cell_length_a     32.117522
_cell_length_b     32.147568
_cell_length_c     69.165596
_cell_angle_alpha  90.036575
_cell_angle_beta   89.979572
_cell_angle_gamma 120.04591
loop_
_atom_site_label
_atom_site_type_symbol
_atom_site_fract_x
_atom_site_fract_y
_atom_site_fract_z
_atom_type_partial_charge
Li0 Li 0.04867 0.03616 0.03442 0.0
Li1 Li 0.98955 0.03681 0.05656 0.0
Li2 Li 0.0092 0.97047 0.05876 0.0
Li3 Li 0.96049 0.97365 0.0323 0.0
C4 C 0.0969 0.06126 0.07113 0.0
N5 N 0.18761 0.10226 0.08744 0.0
C6 C 0.11981 0.10882 0.07764 0.0
C7 C 0.12007 0.03446 0.0731 0.0
C8 C 0.16569 0.12893 0.08578 0.0
C9 C 0.16591 0.05584 0.08133 0.0
C10 C 0.98257 0.08024 0.02492 0.0
C11 C 0.92582 0.10821 0.02188 0.0
N12 N 0.96293 0.15386 0.01948 0.0
C13 C 0.02014 0.12738 0.02229 0.0
C14 C 0.93502 0.0705 0.02459 0.0
C15 C 0.00947 0.16411 0.01962 0.0
C16 C 0.09431 0.08638 1.00094 0.0
N17 N 0.10401 0.07762 0.01913 0.0
C18 C 0.18742 0.13538 0.01507 0.0
C19 C 0.14971 0.10059 0.02616 0.0
C20 C 0.17809 0.14691 0.99658 0.0
C21 C 0.13088 0.1211 0.98938 0.0
H22 H 0.05765 0.06778 0.9957 0.0
H23 H 0.15709 0.09288 0.04049 0.0
C24 C 0.93953 0.0635 0.08366 0.0
N25 N 0.97792 0.07971 0.07155 0.0
C26 C 0.93468 0.09558 0.09586 0.0
C27 C 0.00855 0.16021 0.08268 0.0
C28 C 0.01187 0.12703 0.07076 0.0
C29 C 0.96999 0.14455 0.09567 0.0
H30 H 0.91345 0.02556 0.08426 0.0
H31 H 0.04224 0.13891 0.06116 0.0
C32 C 0.04179 0.94203 0.02529 0.0
N33 N 0.09058 0.89513 0.01457 0.0
C34 C 0.01709 0.8966 0.01669 0.0
C35 C 0.09144 0.96394 0.02809 0.0
C36 C 0.04235 0.87336 0.01148 0.0
C37 C 0.11543 0.93958 0.02267 0.0
C38 C 0.89825 0.93301 0.06163 0.0
C39 C 0.88447 0.88638 0.06767 0.0
C40 C 0.86307 0.94453 0.05665 0.0
C41 C 0.83565 0.85176 0.06826 0.0
C42 C 0.81462 0.9089 0.05742 0.0
N43 N 0.80202 0.86362 0.06314 0.0
C44 C 0.02476 0.94084 0.095 0.0
C45 C 0.00364 0.88282 0.07018 0.0
C46 C 0.02514 0.90903 0.10865 0.0
N47 N 0.0143 0.92734 0.07618 0.0
C48 C 0.00349 0.84983 0.08334 0.0
C49 C 0.01407 0.86265 0.1029 0.0
H50 H 0.0322 0.97618 0.09944 0.0
H51 H 0.99363 0.87227 0.05533 0.0
C52 C 0.89588 0.94947 1.0002 0.0
N53 N 0.91028 0.93215 0.01513 0.0
C54 C 0.86088 0.91779 0.98723 0.0
C55 C 0.85627 0.8513 0.0053 0.0
C56 C 0.89137 0.88416 0.01782 0.0
C57 C 0.8408 0.86789 0.98962 0.0
H58 H 0.91224 0.98782 0.99812 0.0
H59 H 0.90415 0.87137 0.02957 0.0
O60 O 0.05173 0.04087 0.06326 0.0
O61 O 0.9923 0.04382 0.02775 0.0
O62 O 0.01758 0.96533 0.0304 0.0
O63 O 0.94592 0.96723 0.0607 0.0
H64 H 0.10253 0.13013 0.07643 0.0
H65 H 0.10304 0.99758 0.06831 0.0
H66 H 0.18384 0.16575 0.09081 0.0
H67 H 0.18423 0.0355 0.08287 0.0
H68 H 0.88918 0.10119 0.02165 0.0
H69 H 0.05719 0.13571 0.02265 0.0
H70 H 0.9055 0.03421 0.02637 0.0
H71 H 0.03821 0.2008 0.01772 0.0
H72 H 0.22341 0.1536 0.02106 0.0
H73 H 0.1218 0.129 0.97531 0.0
H74 H 0.9046 0.08196 0.10578 0.0
H75 H 0.03621 0.19771 0.08187 0.0
H76 H 0.97878 0.87931 0.01417 0.0
H77 H 0.11135 0.99948 0.03426 0.0
H78 H 0.02361 0.83805 0.00495 0.0
H79 H 0.15383 0.95609 0.02484 0.0
H80 H 0.91117 0.87689 0.07171 0.0
H81 H 0.87307 0.98057 0.05222 0.0
H82 H 0.82449 0.81545 0.07278 0.0
H83 H 0.78703 0.91727 0.05349 0.0
H84 H 0.03385 0.92059 0.12354 0.0
H85 H 0.99368 0.81415 0.07833 0.0
H86 H 0.85058 0.93225 0.9752 0.0
H87 H 0.84145 0.81325 0.0079 0.0
Li88 Li 0.98942 0.96 0.36497 0.0
Li89 Li 0.04216 0.00998 0.3911 0.0
Li90 Li 0.95748 0.99331 0.38824 0.0
Li91 Li 0.01862 0.04899 0.36567 0.0
C92 C 0.96473 0.89988 0.39534 0.0
N93 N 0.93273 0.80283 0.39861 0.0
C94 C 0.99462 0.88435 0.40328 0.0
C95 C 0.91836 0.86609 0.3893 0.0
C96 C 0.97783 0.83511 0.40476 0.0
C97 C 0.90291 0.81718 0.391 0.0
C98 C 0.10197 0.03368 0.3565 0.0
C99 C 0.17944 0.10148 0.34844 0.0
N100 N 0.19486 0.07085 0.3429 0.0
C101 C 0.11836 0.0029 0.35043 0.0
C102 C 0.13254 0.0834 0.35525 0.0
C103 C 0.16553 0.02237 0.34373 0.0
C104 C 0.95195 0.90188 0.33158 0.0
N105 N 0.978 0.90876 0.34797 0.0
C106 C 0.99568 0.84774 0.33853 0.0
C107 C 0.99975 0.8826 0.35162 0.0
C108 C 0.96972 0.84036 0.32131 0.0
C109 C 0.9474 0.86772 0.31794 0.0
H110 H 0.93576 0.92381 0.32886 0.0
H111 H 0.0216 0.88987 0.36442 0.0
C112 C 0.09113 0.03189 0.42696 0.0
N113 N 0.09028 0.01554 0.40875 0.0
C114 C 0.12349 0.03261 0.44065 0.0
C115 C 0.15333 0.99948 0.41659 0.0
C116 C 0.1204 0.99935 0.40341 0.0
C117 C 0.155 0.01598 0.43555 0.0
H118 H 0.06607 0.04362 0.43096 0.0
H119 H 0.11774 0.98475 0.38913 0.0
C120 C 0.90947 0.98858 0.35599 0.0
N121 N 0.81971 0.97773 0.34944 0.0
C122 C 0.90465 0.02887 0.35271 0.0
C123 C 0.86875 0.94275 0.35568 0.0
C124 C 0.85893 0.02264 0.34949 0.0
C125 C 0.82365 0.93802 0.35242 0.0
C126 C 0.04591 0.10021 0.40162 0.0
C127 C 0.02587 0.12447 0.41111 0.0
C128 C 0.09585 0.12198 0.39991 0.0
C129 C 0.05619 0.17049 0.41846 0.0
C130 C 0.12495 0.168 0.40747 0.0
N131 N 0.10468 0.19114 0.41649 0.0
C132 C 0.87614 0.94632 0.41359 0.0
C133 C 0.89389 0.02222 0.40124 0.0
C134 C 0.83793 0.94333 0.42443 0.0
N135 N 0.90312 0.98541 0.40232 0.0
C136 C 0.85595 0.02057 0.41166 0.0
C137 C 0.82753 0.98089 0.42354 0.0
H138 H 0.88467 0.91783 0.4144 0.0
H139 H 0.91654 0.05327 0.39245 0.0
C140 C 0.03125 0.09238 0.32992 0.0
N141 N 0.03475 0.10228 0.34914 0.0
C142 C 0.03468 0.12629 0.31645 0.0
C143 C 0.04724 0.18077 0.34279 0.0
C144 C 0.04326 0.14569 0.35575 0.0
C145 C 0.04175 0.17087 0.32285 0.0
H146 H 0.02364 0.05722 0.32512 0.0
H147 H 0.04518 0.15267 0.37106 0.0
O148 O 0.98073 0.94793 0.3936 0.0
O149 O 0.05562 0.01518 0.36284 0.0
O150 O 0.95385 0.99398 0.35941 0.0
O151 O 0.01663 0.05514 0.39433 0.0
H152 H 0.03048 0.91001 0.40816 0.0
H153 H 0.89466 0.87753 0.3833 0.0
H154 H 1.00066 0.82257 0.41077 0.0
H155 H 0.86721 0.79062 0.38627 0.0
H156 H 0.20351 0.13988 0.34749 0.0
H157 H 0.09506 0.96436 0.35103 0.0
H158 H 0.12016 0.10786 0.3593 0.0
H159 H 0.17878 0.99893 0.33915 0.0
H160 H 0.01416 0.82803 0.34151 0.0
H161 H 0.927 0.86299 0.30485 0.0
H162 H 0.12369 0.04583 0.45507 0.0
H163 H 0.17615 0.9853 0.41216 0.0
H164 H 0.93578 0.06462 0.35288 0.0
H165 H 0.87193 0.91118 0.35791 0.0
H166 H 0.85462 0.05352 0.34708 0.0
H167 H 0.79179 0.90277 0.35223 0.0
H168 H 0.98732 0.10802 0.41274 0.0
H169 H 0.11203 0.10335 0.39305 0.0
H170 H 0.04115 0.18977 0.42575 0.0
H171 H 0.16366 0.18526 0.40623 0.0
H172 H 0.81676 0.91203 0.43337 0.0
H173 H 0.84973 0.05067 0.41081 0.0
H174 H 0.02957 0.11674 0.30127 0.0
H175 H 0.05339 0.21487 0.34837 0.0
Li176 Li 0.03815 0.99691 0.70022 0.0
Li177 Li 0.03387 0.05008 0.72335 0.0
Li178 Li 0.97502 0.96758 0.72573 0.0
Li179 Li 0.97157 0.01908 0.69896 0.0
C180 C 0.05812 0.96243 0.73324 0.0
N181 N 0.08333 0.89392 0.74176 0.0
C182 C 0.09922 0.9747 0.74423 0.0
C183 C 0.02997 0.91534 0.72655 0.0
C184 C 0.11135 0.93956 0.74839 0.0
C185 C 0.04323 0.8812 0.73103 0.0
C186 C 0.07574 0.1051 0.69083 0.0
C187 C 0.09857 0.18422 0.67901 0.0
N188 N 0.14542 0.19867 0.68285 0.0
C189 C 0.12411 0.12056 0.69453 0.0
C190 C 0.06277 0.13699 0.68291 0.0
C191 C 0.15881 0.1681 0.69045 0.0
C192 C 0.0684 0.9687 0.6663 0.0
N193 N 0.08082 0.98669 0.68451 0.0
C194 C 0.16124 0.00287 0.67976 0.0
C195 C 0.12598 0.00309 0.69144 0.0
C196 C 0.15006 0.98584 0.66068 0.0
C197 C 0.10263 0.96763 0.65409 0.0
H198 H 0.03245 0.9568 0.66103 0.0
H199 H 0.13514 0.01804 0.70585 0.0
C200 C 0.0932 0.09482 0.755 0.0
N201 N 0.07504 0.10487 0.73907 0.0
C202 C 0.12664 0.13179 0.76672 0.0
C203 C 0.12099 0.18906 0.74589 0.0
C204 C 0.08716 0.15085 0.73468 0.0
C205 C 0.1417 0.1797 0.76198 0.0
H206 H 0.08224 0.05797 0.75844 0.0
H207 H 0.07113 0.15804 0.72236 0.0
C208 C 0.93217 0.91225 0.68984 0.0
N209 N 0.86063 0.82683 0.6744 0.0
C210 C 0.88538 0.9042 0.68787 0.0
C211 C 0.94271 0.87712 0.68366 0.0
C212 C 0.84967 0.86071 0.68012 0.0
C213 C 0.90601 0.83409 0.67598 0.0
C214 C 0.96529 0.05178 0.74182 0.0
C215 C 0.96574 0.03866 0.76104 0.0
C216 C 0.9687 0.09592 0.73765 0.0
C217 C 0.96969 0.07007 0.77583 0.0
C218 C 0.97257 0.12632 0.75285 0.0
N219 N 0.97301 0.11288 0.77146 0.0
C220 C 0.95119 0.9082 0.75952 0.0
C221 C 0.88592 0.89335 0.73914 0.0
C222 C 0.91982 0.87412 0.77281 0.0
N223 N 0.93385 0.91684 0.74297 0.0
C224 C 0.85336 0.85887 0.75194 0.0
C225 C 0.87014 0.84902 0.7691 0.0
H226 H 0.9892 0.92863 0.7627 0.0
H227 H 0.87272 0.90255 0.72647 0.0
C228 C 0.92663 0.01316 0.66331 0.0
N229 N 0.92912 0.02656 0.68212 0.0
C230 C 0.8924 0.0136 0.65097 0.0
C231 C 0.86509 0.04305 0.67744 0.0
C232 C 0.89931 0.04134 0.68934 0.0
C233 C 0.86097 0.02851 0.65805 0.0
H234 H 0.95042 0.00093 0.65807 0.0
H235 H 0.90118 0.05054 0.70446 0.0
O236 O 0.04641 0.99682 0.72879 0.0
O237 O 0.04117 0.0588 0.69469 0.0
O238 O 0.96789 0.95503 0.69704 0.0
O239 O 0.96269 0.02202 0.72715 0.0
H240 H 0.12175 0.0111 0.74937 0.0
H241 H 0.99794 0.90509 0.7182 0.0
H242 H 0.1431 0.94859 0.75685 0.0
H243 H 0.02161 0.84459 0.726 0.0
H244 H 0.0891 0.2094 0.67296 0.0
H245 H 0.13464 0.09632 0.70071 0.0
H246 H 0.02543 0.1254 0.67992 0.0
H247 H 0.19636 0.18072 0.69337 0.0
H248 H 0.19718 0.01674 0.68549 0.0
H249 H 0.09264 0.95463 0.63941 0.0
H250 H 0.1418 0.123 0.77897 0.0
H251 H 0.13107 0.22552 0.74196 0.0
H252 H 0.87658 0.93108 0.69243 0.0
H253 H 0.9789 0.88304 0.6847 0.0
H254 H 0.81326 0.85391 0.67864 0.0
H255 H 0.91364 0.80654 0.67122 0.0
H256 H 0.96351 0.00481 0.76451 0.0
H257 H 0.96939 0.10708 0.72284 0.0
H258 H 0.97027 0.06047 0.79077 0.0
H259 H 0.97557 0.16073 0.74984 0.0
H260 H 0.93427 0.86772 0.78589 0.0
H261 H 0.81526 0.84132 0.74874 0.0
H262 H 0.89039 0.00225 0.63608 0.0
H263 H 0.84103 0.05411 0.6835 0.0
H264 H 0.07115 0.47336 0.17769 0.0
H265 H 0.07298 0.41147 0.15779 0.0
H266 H 0.93804 0.30451 0.18281 0.0
H267 H 0.93554 0.36686 0.20213 0.0
H268 H 0.01193 0.50598 0.17725 0.0
H269 H 0.06577 0.44099 0.22609 0.0
H270 H 0.07139 0.38404 0.24774 0.0
H271 H 0.92656 0.33545 0.26772 0.0
H272 H 0.92198 0.3937 0.24645 0.0
H273 H 0.91137 0.51472 0.24477 0.0
H274 H 0.90185 0.57055 0.26578 0.0
H275 H 0.03795 0.68682 0.24575 0.0
H276 H 0.04802 0.63062 0.22504 0.0
H277 H 0.97785 0.4905 0.24758 0.0
H278 H 0.93368 0.56822 0.1967 0.0
H279 H 0.94195 0.63316 0.1756 0.0
H280 H 0.0857 0.66564 0.16041 0.0
H281 H 0.07699 0.60058 0.1813 0.0
C282 C 0.00343 0.42478 0.19153 0.0
C283 C 0.04201 0.43656 0.17892 0.0
C284 C 0.04318 0.40105 0.16766 0.0
C285 C 0.00566 0.35299 0.16872 0.0
C286 C 0.96726 0.34122 0.1815 0.0
C287 C 0.96609 0.37677 0.19274 0.0
C288 C 1.00081 0.46294 0.20266 0.0
C289 C 0.00509 0.50293 0.1927 0.0
C290 C 0.99185 0.45903 0.22276 0.0
C291 C 0.99342 0.42148 0.23464 0.0
C292 C 0.03505 0.41763 0.23498 0.0
C293 C 0.03813 0.38491 0.24734 0.0
C294 C 0.99951 0.35521 0.25958 0.0
C295 C 0.95736 0.35837 0.2588 0.0
C296 C 0.95451 0.39141 0.24656 0.0
C297 C 0.98027 0.56841 0.23321 0.0
C298 C 0.93907 0.55229 0.24478 0.0
C299 C 0.93366 0.58416 0.2568 0.0
C300 C 0.96922 0.63293 0.25742 0.0
C301 C 0.00976 0.64947 0.24539 0.0
C302 C 0.01545 0.6174 0.2335 0.0
C303 C 0.98764 0.53304 0.2221 0.0
C304 C 0.98446 0.49353 0.23212 0.0
C305 C 0.99917 0.53832 0.20216 0.0
C306 C 0.00476 0.57963 0.19059 0.0
C307 C 0.96716 0.58978 0.18901 0.0
C308 C 0.97199 0.62694 0.17697 0.0
C309 C 0.0144 0.65438 0.16623 0.0
C310 C 0.05228 0.64468 0.16821 0.0
C311 C 0.04744 0.60764 0.18021 0.0
H312 H 0.59344 0.04919 0.50901 0.0
H313 H 0.65523 0.04526 0.48972 0.0
H314 H 0.6178 0.90924 0.51622 0.0
H315 H 0.55613 0.91334 0.53544 0.0
H316 H 0.50042 0.99468 0.5094 0.0
H317 H 0.62075 0.04729 0.55682 0.0
H318 H 0.68573 0.04939 0.57599 0.0
H319 H 0.58633 0.9096 0.59944 0.0
H320 H 0.52131 0.90754 0.58007 0.0
H321 H 0.38585 0.90111 0.57552 0.0
H322 H 0.31848 0.89479 0.5944 0.0
H323 H 0.35637 0.03857 0.57699 0.0
H324 H 0.42426 0.04496 0.55839 0.0
H325 H 0.4831 0.9666 0.58019 0.0
H326 H 0.36018 0.92654 0.53016 0.0
H327 H 0.30521 0.93795 0.50922 0.0
H328 H 0.42272 0.07584 0.49137 0.0
H329 H 0.47734 0.06426 0.51227 0.0
C330 C 0.57039 0.9818 0.52381 0.0
C331 C 0.59859 0.01856 0.51068 0.0
C332 C 0.63378 0.01618 0.49962 0.0
C333 C 0.64137 0.97689 0.50142 0.0
C334 C 0.61332 0.9403 0.51469 0.0
C335 C 0.57806 0.94264 0.5257 0.0
C336 C 0.53155 0.98319 0.53496 0.0
C337 C 0.49702 0.98927 0.52493 0.0
C338 C 0.52717 0.97631 0.55521 0.0
C339 C 0.56627 0.9771 0.56691 0.0
C340 C 0.61298 0.01698 0.56601 0.0
C341 C 0.64999 0.01829 0.57707 0.0
C342 C 0.64109 0.97966 0.5892 0.0
C343 C 0.5943 0.93969 0.59008 0.0
C344 C 0.55712 0.93859 0.57914 0.0
C345 C 0.40988 0.97337 0.56546 0.0
C346 C 0.37956 0.93122 0.57575 0.0
C347 C 0.34087 0.92752 0.5864 0.0
C348 C 0.33202 0.96613 0.58715 0.0
C349 C 0.36245 0.00834 0.57681 0.0
C350 C 0.40103 0.01192 0.56606 0.0
C351 C 0.45138 0.97715 0.55453 0.0
C352 C 0.48652 0.97208 0.56466 0.0
C353 C 0.45733 0.98702 0.53446 0.0
C354 C 0.42286 0.99464 0.52285 0.0
C355 C 0.3739 0.95953 0.52197 0.0
C356 C 0.34254 0.96612 0.51 0.0
C357 C 0.3597 0.00771 0.49856 0.0
C358 C 0.40854 0.04311 0.49977 0.0
C359 C 0.43976 0.0366 0.51176 0.0
H360 H 0.46343 0.41149 0.83682 0.0
H361 H 0.39331 0.35278 0.81846 0.0
H362 H 0.30018 0.37563 0.85659 0.0
H363 H 0.37037 0.43555 0.87454 0.0
H364 H 0.50206 0.50089 0.84217 0.0
H365 H 0.43963 0.36899 0.88431 0.0
H366 H 0.37954 0.30082 0.903 0.0
H367 H 0.35425 0.39757 0.93789 0.0
H368 H 0.41466 0.46574 0.91915 0.0
H369 H 0.53799 0.59628 0.91508 0.0
H370 H 0.60245 0.65893 0.93439 0.0
H371 H 0.70601 0.63368 0.9045 0.0
H372 H 0.64088 0.56936 0.88587 0.0
H373 H 0.50799 0.50182 0.91379 0.0
H374 H 0.58416 0.63614 0.86723 0.0
H375 H 0.64815 0.69388 0.84593 0.0
H376 H 0.65614 0.57733 0.81851 0.0
H377 H 0.5929 0.52005 0.83989 0.0
C378 C 0.42231 0.42766 0.85724 0.0
C379 C 0.42799 0.40416 0.84118 0.0
C380 C 0.38794 0.37064 0.83069 0.0
C381 C 0.34139 0.35965 0.83616 0.0
C382 C 0.33565 0.38307 0.85222 0.0
C383 C 0.37575 0.41714 0.86252 0.0
C384 C 0.46508 0.46405 0.86815 0.0
C385 C 0.50362 0.50069 0.85783 0.0
C386 C 0.46744 0.46368 0.88859 0.0
C387 C 0.43129 0.42246 0.90019 0.0
C388 C 0.42092 0.37551 0.89591 0.0
C389 C 0.38648 0.33654 0.90658 0.0
C390 C 0.36193 0.34371 0.92189 0.0
C391 C 0.37287 0.39086 0.92633 0.0
C392 C 0.4073 0.42985 0.91561 0.0
C393 C 0.58456 0.57837 0.89889 0.0
C394 C 0.57459 0.60422 0.9127 0.0
C395 C 0.61161 0.64042 0.9236 0.0
C396 C 0.65957 0.65166 0.92095 0.0
C397 C 0.66949 0.62575 0.90705 0.0
C398 C 0.63233 0.58928 0.89622 0.0
C399 C 0.5445 0.53924 0.88779 0.0
C400 C 0.5064 0.50194 0.89813 0.0
C401 C 0.54372 0.53779 0.86732 0.0
C402 C 0.58386 0.57375 0.85523 0.0
C403 C 0.60021 0.62314 0.85683 0.0
C404 C 0.63673 0.65607 0.84466 0.0
C405 C 0.65694 0.64004 0.83051 0.0
C406 C 0.64083 0.59068 0.82911 0.0
C407 C 0.60475 0.55794 0.84134 0.0
H408 H 0.04338 0.21366 0.11668 0.0
H409 H 0.89168 0.15254 0.10552 0.0
H410 H 0.88899 0.21074 0.12757 0.0
H411 H 0.93053 0.28081 0.1491 0.0
H412 H 0.08224 0.34119 0.16028 0.0
H413 H 0.08431 0.28203 0.13879 0.0
C414 C 0.00978 0.2133 0.11895 0.0
C415 C 0.96786 0.17907 0.10936 0.0
C416 C 0.00858 0.24689 0.13155 0.0
C417 C 0.92439 0.17837 0.1128 0.0
C418 C 0.9229 0.21177 0.12533 0.0
C419 C 0.96392 0.28065 0.14703 0.0
C420 C 0.00622 0.31558 0.15624 0.0
C421 C 0.96484 0.24635 0.13471 0.0
C422 C 0.04932 0.31523 0.15316 0.0
C423 C 0.0505 0.28125 0.14095 0.0
H424 H 0.80661 0.95525 0.46133 0.0
H425 H 0.7607 0.00453 0.41214 0.0
H426 H 0.69914 0.00754 0.43185 0.0
H427 H 0.65907 0.99723 0.46313 0.0
H428 H 0.70551 0.94899 0.5125 0.0
H429 H 0.76553 0.94367 0.49258 0.0
C430 C 0.78271 0.96604 0.45488 0.0
C431 C 0.78829 0.97973 0.43531 0.0
C432 C 0.74753 0.96793 0.46633 0.0
C433 C 0.75748 0.99431 0.42722 0.0
C434 C 0.7222 0.99593 0.43846 0.0
C435 C 0.6826 0.98595 0.46957 0.0
C436 C 0.67789 0.9737 0.48929 0.0
C437 C 0.7172 0.98324 0.45807 0.0
C438 C 0.70807 0.95824 0.49732 0.0
C439 C 0.74255 0.95538 0.48596 0.0
H440 H 0.79247 0.76147 0.76165 0.0
H441 H 0.87022 0.85832 0.80843 0.0
H442 H 0.81135 0.80235 0.83162 0.0
H443 H 0.73659 0.72632 0.83851 0.0
H444 H 0.6591 0.63015 0.79151 0.0
H445 H 0.71878 0.6855 0.76851 0.0
C446 C 0.79641 0.77042 0.77691 0.0
C447 C 0.8356 0.81404 0.78328 0.0
C448 C 0.76236 0.73823 0.79013 0.0
C449 C 0.84065 0.82474 0.80316 0.0
C450 C 0.80682 0.79291 0.81641 0.0
C451 C 0.73273 0.7177 0.82322 0.0
C452 C 0.69351 0.67422 0.81673 0.0
C453 C 0.76734 0.74967 0.81005 0.0
C454 C 0.68923 0.66318 0.79689 0.0
C455 C 0.72323 0.69487 0.78372 0.0
H456 H 0.04607 0.79917 0.09853 0.0
H457 H 0.97737 0.84654 0.13963 0.0
H458 H 0.97228 0.7872 0.16296 0.0
H459 H 0.98604 0.72072 0.17152 0.0
H460 H 0.05219 0.67182 0.12983 0.0
H461 H 0.05935 0.73271 0.10694 0.0
C462 C 0.02965 0.79631 0.11253 0.0
C463 C 0.01213 0.82731 0.11728 0.0
C464 C 0.02635 0.76177 0.12581 0.0
C465 C 0.99175 0.82361 0.13566 0.0
C466 C 0.98849 0.78943 0.14898 0.0
C467 C 0.00172 0.72319 0.15737 0.0
C468 C 0.01867 0.6918 0.15245 0.0
C469 C 0.00545 0.75814 0.14418 0.0
C470 C 0.03949 0.69595 0.13414 0.0
C471 C 0.04335 0.73059 0.12097 0.0
H472 H 0.24829 0.03986 0.43027 0.0
H473 H 0.1362 0.98766 0.47338 0.0
H474 H 0.18973 0.9814 0.4968 0.0
H475 H 0.26792 0.9888 0.5048 0.0
H476 H 0.37906 0.03935 0.46131 0.0
H477 H 0.32636 0.04803 0.43831 0.0
C478 C 0.23549 0.02689 0.44476 0.0
C479 C 0.18827 0.01416 0.45002 0.0
C480 C 0.26629 0.023 0.4581 0.0
C481 C 0.17255 0.99822 0.46899 0.0
C482 C 0.20303 0.99429 0.48236 0.0
C483 C 0.28047 0.00148 0.49026 0.0
C484 C 0.32739 0.01345 0.48481 0.0
C485 C 0.24987 0.00625 0.47704 0.0
C486 C 0.34335 0.03046 0.46597 0.0
C487 C 0.31315 0.03519 0.45276 0.0
H488 H 0.15075 0.18852 0.80111 0.0
H489 H 0.22014 0.25983 0.74799 0.0
H490 H 0.2877 0.32233 0.76625 0.0
H491 H 0.32864 0.3549 0.79728 0.0
H492 H 0.25904 0.28423 0.85043 0.0
H493 H 0.19001 0.22321 0.83223 0.0
C494 C 0.18067 0.21782 0.79356 0.0
C495 C 0.18055 0.21949 0.77324 0.0
C496 C 0.21941 0.25356 0.80415 0.0
C497 C 0.21919 0.25799 0.76364 0.0
C498 C 0.25798 0.29354 0.77406 0.0
C499 C 0.29834 0.32604 0.80483 0.0
C500 C 0.29896 0.32377 0.82512 0.0
C501 C 0.25873 0.29137 0.7943 0.0
C502 C 0.25921 0.28674 0.8348 0.0
C503 C 0.21987 0.25181 0.82442 0.0
H504 H 0.79799 0.95546 0.63507 0.0
H505 H 0.83855 0.09918 0.65327 0.0
H506 H 0.77448 0.09698 0.6334 0.0
H507 H 0.70619 0.05371 0.61123 0.0
H508 H 0.66415 0.9092 0.59365 0.0
H509 H 0.72935 0.91201 0.61295 0.0
C510 C 0.79301 0.98641 0.63451 0.0
C511 C 0.82302 0.02751 0.64552 0.0
C512 C 0.7557 0.98461 0.62327 0.0
C513 C 0.81572 0.06709 0.64497 0.0
C514 C 0.77919 0.06587 0.6336 0.0
C515 C 0.71157 0.02299 0.61153 0.0
C516 C 0.68051 0.98136 0.601 0.0
C517 C 0.74886 0.02477 0.62275 0.0
C518 C 0.68737 0.94151 0.60176 0.0
C519 C 0.72475 0.94319 0.61271 0.0
H520 H 0.83406 0.78569 0.97539 0.0
H521 H 0.76602 0.87219 0.97252 0.0
H522 H 0.70554 0.81428 0.95035 0.0
H523 H 0.67068 0.73798 0.93248 0.0
H524 H 0.73653 0.64965 0.93688 0.0
H525 H 0.79918 0.70951 0.95768 0.0
C526 C 0.80575 0.79173 0.97008 0.0
C527 C 0.80455 0.83321 0.97575 0.0
C528 C 0.77071 0.75799 0.95755 0.0
C529 C 0.76819 0.84088 0.9683 0.0
C530 C 0.73337 0.80761 0.9557 0.0
C531 C 0.69851 0.7316 0.93809 0.0
C532 C 0.6987 0.6892 0.93308 0.0
C533 C 0.73408 0.76585 0.95035 0.0
C534 C 0.73571 0.68214 0.94022 0.0
C535 C 0.77141 0.71622 0.95227 0.0
H536 H 0.95117 0.74923 0.32735 0.0
H537 H 0.98477 0.85433 0.28243 0.0
H538 H 0.98707 0.79936 0.25854 0.0
H539 H 0.98213 0.72212 0.25064 0.0
H540 H 0.94754 0.61701 0.29566 0.0
H541 H 0.94313 0.67118 0.31927 0.0
C542 C 0.95899 0.76003 0.31232 0.0
C543 C 0.96795 0.80578 0.30666 0.0
C544 C 0.96021 0.72828 0.29869 0.0
C545 C 0.97735 0.81911 0.2871 0.0
C546 C 0.97898 0.78783 0.27346 0.0
C547 C 0.97368 0.71123 0.26563 0.0
C548 C 0.96523 0.66573 0.27142 0.0
C549 C 0.9709 0.74248 0.27913 0.0
C550 C 0.95376 0.65172 0.29083 0.0
C551 C 0.95144 0.68273 0.30436 0.0
H552 H 0.14548 0.91876 0.63515 0.0
H553 H 0.24088 0.06181 0.6566 0.0
H554 H 0.30495 0.06861 0.63557 0.0
H555 H 0.33458 0.03364 0.61152 0.0
H556 H 0.23981 0.89077 0.58985 0.0
H557 H 0.17489 0.88422 0.61047 0.0
C558 C 0.18019 0.95151 0.6351 0.0
C559 C 0.18843 0.98955 0.64754 0.0
C560 C 0.21705 0.95522 0.62295 0.0
C561 C 0.23378 0.03164 0.64742 0.0
C562 C 0.2704 0.03571 0.63531 0.0
C563 C 0.29955 0.00129 0.61114 0.0
C564 C 0.29205 0.9628 0.59915 0.0
C565 C 0.26252 0.99769 0.62308 0.0
C566 C 0.24666 0.92077 0.59908 0.0
C567 C 0.20947 0.91706 0.61081 0.0
H568 H 0.19445 0.15123 0.95765 0.0
H569 H 0.24842 0.23379 0.01019 0.0
H570 H 0.31029 0.30119 0.99186 0.0
H571 H 0.34836 0.33747 0.96088 0.0
H572 H 0.29267 0.25632 0.90816 0.0
H573 H 0.2322 0.18781 0.92659 0.0
C574 C 0.21955 0.18405 0.96509 0.0
C575 C 0.21674 0.1872 0.9853 0.0
C576 C 0.25476 0.22305 0.95442 0.0
C577 C 0.25012 0.22989 0.9947 0.0
C578 C 0.28534 0.26869 0.98421 0.0
C579 C 0.32272 0.30496 0.9534 0.0
C580 C 0.32508 0.30212 0.93317 0.0
C581 C 0.28784 0.26578 0.96406 0.0
C582 C 0.29207 0.25934 0.92375 0.0
C583 C 0.25729 0.2202 0.93426 0.0
H584 H 0.99905 0.2248 0.32797 0.0
H585 H 0.08003 0.19389 0.28631 0.0
H586 H 0.07321 0.24718 0.26296 0.0
H587 H 0.04315 0.3016 0.25423 0.0
H588 H 0.96588 0.33533 0.29672 0.0
H589 H 0.97229 0.28169 0.31982 0.0
C590 C 0.01599 0.23029 0.31391 0.0
C591 C 0.04013 0.20538 0.30897 0.0
C592 C 0.01221 0.26117 0.30061 0.0
C593 C 0.06081 0.21219 0.29047 0.0
C594 C 0.05708 0.2428 0.27712 0.0
C595 C 0.02815 0.29768 0.2686 0.0
C596 C 0.00374 0.32235 0.2736 0.0
C597 C 0.03266 0.26732 0.28201 0.0
C598 C 0.98397 0.31614 0.29226 0.0
C599 C 0.98798 0.28575 0.30558 0.0
loop_
_geom_bond_atom_site_label_1
_geom_bond_atom_site_label_2
_geom_bond_distance
_geom_bond_site_symmetry_2
_ccdc_geom_bond_type
Li0 N17 1.990 . S
Li0 O60 1.956 . S
Li0 O61 1.970 1_455 S
Li0 O62 1.961 1_545 S
Li1 N25 1.990 . S
Li1 O60 1.970 1_655 S
Li1 O61 1.956 . S
Li1 O63 1.961 1_545 S
Li2 N47 1.990 . S
Li2 O60 1.961 1_565 S
Li2 O62 1.956 . S
Li2 O63 1.970 1_455 S
Li3 N53 1.990 . S
Li3 O61 1.961 1_565 S
Li3 O62 1.970 1_655 S
Li3 O63 1.956 . S
C4 C6 1.348 . S
C4 C7 1.356 . S
C4 O60 1.325 . S
N5 C8 1.314 . S
N5 C9 1.279 . S
C6 C4 1.348 . S
C6 C8 1.353 . S
C6 H64 0.929 . S
C7 C4 1.356 . S
C7 C9 1.358 . S
C7 H65 0.930 . S
C8 N5 1.314 . S
C8 C6 1.353 . S
C8 H66 0.930 . S
C9 N5 1.279 . S
C9 C7 1.358 . S
C9 H67 0.930 . S
C10 C13 1.348 1_655 S
C10 C14 1.356 . S
C10 O61 1.325 . S
C11 N12 1.279 1_554 S
C11 C14 1.358 . S
C11 H68 0.930 . S
N12 C11 1.279 1_556 S
N12 C15 1.314 . S
C13 C10 1.348 1_455 S
C13 C15 1.353 1_454 S
C13 H69 0.929 . S
C14 C10 1.356 . S
C14 C11 1.358 . S
C14 H70 0.930 . S
C15 N12 1.314 . S
C15 C13 1.353 1_656 S
C15 H71 0.930 1_655 S
C16 N17 1.314 1_556 S
C16 C21 1.353 . S
C16 H22 0.930 . S
N17 Li0 1.990 . S
N17 C16 1.314 1_554 S
N17 C19 1.279 . S
C18 C19 1.358 . S
C18 C20 1.356 1_554 S
C18 H72 0.930 . S
C19 N17 1.279 . S
C19 C18 1.358 . S
C19 H23 0.930 . S
C20 C18 1.356 1_556 S
C20 C21 1.348 . S
C21 C16 1.353 . S
C21 C20 1.348 . S
C21 H73 0.929 . S
H22 C16 0.930 . S
H23 C19 0.930 . S
C24 N25 1.314 . S
C24 C26 1.353 . S
C24 H30 0.930 . S
N25 Li1 1.990 . S
N25 C24 1.314 . S
N25 C28 1.279 . S
C26 C24 1.353 . S
C26 C29 1.348 . S
C26 H74 0.929 . S
C27 C28 1.358 . S
C27 C29 1.356 . S
C27 H75 0.930 . S
C28 N25 1.279 . S
C28 C27 1.358 . S
C28 H31 0.930 . S
C29 C26 1.348 . S
C29 C27 1.356 . S
H30 C24 0.930 . S
H31 C28 0.930 . S
C32 C34 1.348 1_455 S
C32 C35 1.356 . S
C32 O62 1.325 . S
N33 C36 1.314 . S
N33 C37 1.279 1_556 S
C34 C32 1.348 1_655 S
C34 C36 1.353 1_654 S
C34 H76 0.929 . S
C35 C32 1.356 . S
C35 C37 1.358 . S
C35 H77 0.930 . S
C36 N33 1.314 . S
C36 C34 1.353 1_456 S
C36 H78 0.930 1_455 S
C37 N33 1.279 1_554 S
C37 C35 1.358 . S
C37 H79 0.930 . S
C38 C39 1.348 . S
C38 C40 1.356 . S
C38 O63 1.325 . S
C39 C38 1.348 . S
C39 C41 1.353 . S
C39 H80 0.929 . S
C40 C38 1.356 . S
C40 C42 1.358 . S
C40 H81 0.930 . S
C41 C39 1.353 . S
C41 N43 1.314 . S
C41 H82 0.930 . S
C42 C40 1.358 . S
C42 N43 1.279 . S
C42 H83 0.930 . S
N43 C41 1.314 . S
N43 C42 1.279 . S
C44 C46 1.353 . S
C44 N47 1.314 . S
C44 H50 0.930 . S
C45 N47 1.279 . S
C45 C48 1.358 . S
C45 H51 0.930 . S
C46 C44 1.353 . S
C46 C49 1.348 . S
C46 H84 0.929 . S
N47 Li2 1.990 . S
N47 C44 1.314 . S
N47 C45 1.279 . S
C48 C45 1.358 . S
C48 C49 1.356 . S
C48 H85 0.930 . S
C49 C46 1.348 . S
C49 C48 1.356 . S
H50 C44 0.930 . S
H51 C45 0.930 . S
C52 N53 1.314 1_556 S
C52 C54 1.353 . S
C52 H58 0.930 . S
N53 Li3 1.990 . S
N53 C52 1.314 1_554 S
N53 C56 1.279 . S
C54 C52 1.353 . S
C54 C57 1.348 . S
C54 H86 0.929 . S
C55 C56 1.358 . S
C55 C57 1.356 1_554 S
C55 H87 0.930 . S
C56 N53 1.279 . S
C56 C55 1.358 . S
C56 H59 0.930 . S
C57 C54 1.348 . S
C57 C55 1.356 1_556 S
H58 C52 0.930 . S
H59 C56 0.930 . S
O60 Li0 1.956 . S
O60 Li1 1.970 1_455 S
O60 Li2 1.961 1_545 S
O60 C4 1.325 . S
O61 Li0 1.970 1_655 S
O61 Li1 1.956 . S
O61 Li3 1.961 1_545 S
O61 C10 1.325 . S
O62 Li0 1.961 1_565 S
O62 Li2 1.956 . S
O62 Li3 1.970 1_455 S
O62 C32 1.325 . S
O63 Li1 1.961 1_565 S
O63 Li2 1.970 1_655 S
O63 Li3 1.956 . S
O63 C38 1.325 . S
H64 C6 0.929 . S
H65 C7 0.930 . S
H66 C8 0.930 . S
H67 C9 0.930 . S
H68 C11 0.930 . S
H69 C13 0.929 . S
H70 C14 0.930 . S
H71 C15 0.930 1_455 S
H72 C18 0.930 . S
H73 C21 0.929 . S
H74 C26 0.929 . S
H75 C27 0.930 . S
H76 C34 0.929 . S
H77 C35 0.930 . S
H78 C36 0.930 1_655 S
H79 C37 0.930 . S
H80 C39 0.929 . S
H81 C40 0.930 . S
H82 C41 0.930 . S
H83 C42 0.930 . S
H84 C46 0.929 . S
H85 C48 0.930 . S
H86 C54 0.929 . S
H87 C55 0.930 . S
Li88 N105 1.990 . S
Li88 O148 1.956 . S
Li88 O149 1.970 1_665 S
Li88 O150 1.961 . S
Li89 N113 1.990 . S
Li89 O148 1.970 1_445 S
Li89 O149 1.956 . S
Li89 O151 1.961 . S
Li90 N135 1.990 . S
Li90 O148 1.961 . S
Li90 O150 1.956 . S
Li90 O151 1.970 1_665 S
Li91 N141 1.990 . S
Li91 O149 1.961 . S
Li91 O150 1.970 1_445 S
Li91 O151 1.956 . S
C92 C94 1.348 1_655 S
C92 C95 1.356 . S
C92 O148 1.325 . S
N93 C96 1.314 . S
N93 C97 1.279 . S
C94 C92 1.348 1_455 S
C94 C96 1.353 1_455 S
C94 H152 0.929 . S
C95 C92 1.356 . S
C95 C97 1.358 . S
C95 H153 0.930 . S
C96 N93 1.314 . S
C96 C94 1.353 1_655 S
C96 H154 0.930 1_655 S
C97 N93 1.279 . S
C97 C95 1.358 . S
C97 H155 0.930 . S
C98 C101 1.348 1_545 S
C98 C102 1.356 . S
C98 O149 1.325 . S
C99 N100 1.279 . S
C99 C102 1.358 . S
C99 H156 0.930 . S
N100 C99 1.279 . S
N100 C103 1.314 . S
C101 C98 1.348 1_565 S
C101 C103 1.353 1_565 S
C101 H157 0.929 . S
C102 C98 1.356 . S
C102 C99 1.358 . S
C102 H158 0.930 . S
C103 N100 1.314 . S
C103 C101 1.353 1_545 S
C103 H159 0.930 1_545 S
C104 N105 1.314 . S
C104 C109 1.353 . S
C104 H110 0.930 . S
N105 Li88 1.990 . S
N105 C104 1.314 . S
N105 C107 1.279 . S
C106 C107 1.358 . S
C106 C108 1.356 . S
C106 H160 0.930 . S
C107 N105 1.279 . S
C107 C106 1.358 . S
C107 H111 0.930 . S
C108 C106 1.356 . S
C108 C109 1.348 . S
C109 C104 1.353 . S
C109 C108 1.348 . S
C109 H161 0.929 . S
H110 C104 0.930 . S
H111 C107 0.930 . S
C112 N113 1.314 . S
C112 C114 1.353 . S
C112 H118 0.930 . S
N113 Li89 1.990 . S
N113 C112 1.314 . S
N113 C116 1.279 . S
C114 C112 1.353 . S
C114 C117 1.348 . S
C114 H162 0.929 . S
C115 C116 1.358 . S
C115 C117 1.356 . S
C115 H163 0.930 . S
C116 N113 1.279 . S
C116 C115 1.358 . S
C116 H119 0.930 . S
C117 C114 1.348 . S
C117 C115 1.356 . S
H118 C112 0.930 . S
H119 C116 0.930 . S
C120 C122 1.348 1_565 S
C120 C123 1.356 . S
C120 O150 1.325 . S
N121 C124 1.314 . S
N121 C125 1.279 . S
C122 C120 1.348 1_545 S
C122 C124 1.353 1_545 S
C122 H164 0.929 . S
C123 C120 1.356 . S
C123 C125 1.358 . S
C123 H165 0.930 . S
C124 N121 1.314 . S
C124 C122 1.353 1_565 S
C124 H166 0.930 1_565 S
C125 N121 1.279 . S
C125 C123 1.358 . S
C125 H167 0.930 . S
C126 C127 1.348 1_455 S
C126 C128 1.356 . S
C126 O151 1.325 . S
C127 C126 1.348 1_655 S
C127 C129 1.353 1_655 S
C127 H168 0.929 . S
C128 C126 1.356 . S
C128 C130 1.358 . S
C128 H169 0.930 . S
C129 C127 1.353 1_455 S
C129 N131 1.314 . S
C129 H170 0.930 1_455 S
C130 C128 1.358 . S
C130 N131 1.279 . S
C130 H171 0.930 . S
N131 C129 1.314 . S
N131 C130 1.279 . S
C132 C134 1.353 . S
C132 N135 1.314 . S
C132 H138 0.930 . S
C133 N135 1.279 . S
C133 C136 1.358 . S
C133 H139 0.930 . S
C134 C132 1.353 . S
C134 C137 1.348 . S
C134 H172 0.929 . S
N135 Li90 1.990 . S
N135 C132 1.314 . S
N135 C133 1.279 . S
C136 C133 1.358 . S
C136 C137 1.356 . S
C136 H173 0.930 . S
C137 C134 1.348 . S
C137 C136 1.356 . S
H138 C132 0.930 . S
H139 C133 0.930 . S
C140 N141 1.314 . S
C140 C142 1.353 . S
C140 H146 0.930 . S
N141 Li91 1.990 . S
N141 C140 1.314 . S
N141 C144 1.279 . S
C142 C140 1.353 . S
C142 C145 1.348 . S
C142 H174 0.929 . S
C143 C144 1.358 . S
C143 C145 1.356 . S
C143 H175 0.930 . S
C144 N141 1.279 . S
C144 C143 1.358 . S
C144 H147 0.930 . S
C145 C142 1.348 . S
C145 C143 1.356 . S
H146 C140 0.930 . S
H147 C144 0.930 . S
O148 Li88 1.956 . S
O148 Li89 1.970 1_665 S
O148 Li90 1.961 . S
O148 C92 1.325 . S
O149 Li88 1.970 1_445 S
O149 Li89 1.956 . S
O149 Li91 1.961 . S
O149 C98 1.325 . S
O150 Li88 1.961 . S
O150 Li90 1.956 . S
O150 Li91 1.970 1_665 S
O150 C120 1.325 . S
O151 Li89 1.961 . S
O151 Li90 1.970 1_445 S
O151 Li91 1.956 . S
O151 C126 1.325 . S
H152 C94 0.929 . S
H153 C95 0.930 . S
H154 C96 0.930 1_455 S
H155 C97 0.930 . S
H156 C99 0.930 . S
H157 C101 0.929 . S
H158 C102 0.930 . S
H159 C103 0.930 1_565 S
H160 C106 0.930 . S
H161 C109 0.929 . S
H162 C114 0.929 . S
H163 C115 0.930 . S
H164 C122 0.929 . S
H165 C123 0.930 . S
H166 C124 0.930 1_545 S
H167 C125 0.930 . S
H168 C127 0.929 . S
H169 C128 0.930 . S
H170 C129 0.930 1_655 S
H171 C130 0.930 . S
H172 C134 0.929 . S
H173 C136 0.930 . S
H174 C142 0.929 . S
H175 C143 0.930 . S
Li176 N193 1.990 . S
Li176 O236 1.956 . S
Li176 O237 1.970 1_565 S
Li176 O238 1.961 1_455 S
Li177 N201 1.990 . S
Li177 O236 1.970 1_545 S
Li177 O237 1.956 . S
Li177 O239 1.961 1_455 S
Li178 N223 1.990 . S
Li178 O236 1.961 1_655 S
Li178 O238 1.956 . S
Li178 O239 1.970 1_565 S
Li179 N229 1.990 . S
Li179 O237 1.961 1_655 S
Li179 O238 1.970 1_545 S
Li179 O239 1.956 . S
C180 C182 1.348 1_565 S
C180 C183 1.356 . S
C180 O236 1.325 . S
N181 C184 1.314 . S
N181 C185 1.279 . S
C182 C180 1.348 1_545 S
C182 C184 1.353 1_545 S
C182 H240 0.929 . S
C183 C180 1.356 . S
C183 C185 1.358 . S
C183 H241 0.930 . S
C184 N181 1.314 . S
C184 C182 1.353 1_565 S
C184 H242 0.930 1_565 S
C185 N181 1.279 . S
C185 C183 1.358 . S
C185 H243 0.930 . S
C186 C189 1.348 . S
C186 C190 1.356 . S
C186 O237 1.325 . S
C187 N188 1.279 . S
C187 C190 1.358 . S
C187 H244 0.930 . S
N188 C187 1.279 . S
N188 C191 1.314 . S
C189 C186 1.348 . S
C189 C191 1.353 . S
C189 H245 0.929 . S
C190 C186 1.356 . S
C190 C187 1.358 . S
C190 H246 0.930 . S
C191 N188 1.314 . S
C191 C189 1.353 . S
C191 H247 0.930 . S
C192 N193 1.314 . S
C192 C197 1.353 . S
C192 H198 0.930 . S
N193 Li176 1.990 . S
N193 C192 1.314 . S
N193 C195 1.279 . S
C194 C195 1.358 . S
C194 C196 1.356 . S
C194 H248 0.930 . S
C195 N193 1.279 . S
C195 C194 1.358 . S
C195 H199 0.930 . S
C196 C194 1.356 . S
C196 C197 1.348 . S
C197 C192 1.353 . S
C197 C196 1.348 . S
C197 H249 0.929 . S
H198 C192 0.930 . S
H199 C195 0.930 . S
C200 N201 1.314 . S
C200 C202 1.353 . S
C200 H206 0.930 . S
N201 Li177 1.990 . S
N201 C200 1.314 . S
N201 C204 1.279 . S
C202 C200 1.353 . S
C202 C205 1.348 . S
C202 H250 0.929 . S
C203 C204 1.358 . S
C203 C205 1.356 . S
C203 H251 0.930 . S
C204 N201 1.279 . S
C204 C203 1.358 . S
C204 H207 0.930 . S
C205 C202 1.348 . S
C205 C203 1.356 . S
H206 C200 0.930 . S
H207 C204 0.930 . S
C208 C210 1.348 . S
C208 C211 1.356 . S
C208 O238 1.325 . S
N209 C212 1.314 . S
N209 C213 1.279 . S
C210 C208 1.348 . S
C210 C212 1.353 . S
C210 H252 0.929 . S
C211 C208 1.356 . S
C211 C213 1.358 . S
C211 H253 0.930 . S
C212 N209 1.314 . S
C212 C210 1.353 . S
C212 H254 0.930 . S
C213 N209 1.279 . S
C213 C211 1.358 . S
C213 H255 0.930 . S
C214 C215 1.348 1_545 S
C214 C216 1.356 . S
C214 O239 1.325 . S
C215 C214 1.348 1_565 S
C215 C217 1.353 1_565 S
C215 H256 0.929 . S
C216 C214 1.356 . S
C216 C218 1.358 . S
C216 H257 0.930 . S
C217 C215 1.353 1_545 S
C217 N219 1.314 . S
C217 H258 0.930 1_545 S
C218 C216 1.358 . S
C218 N219 1.279 . S
C218 H259 0.930 . S
N219 C217 1.314 . S
N219 C218 1.279 . S
C220 C222 1.353 . S
C220 N223 1.314 . S
C220 H226 0.930 . S
C221 N223 1.279 . S
C221 C224 1.358 . S
C221 H227 0.930 . S
C222 C220 1.353 . S
C222 C225 1.348 . S
C222 H260 0.929 . S
N223 Li178 1.990 . S
N223 C220 1.314 . S
N223 C221 1.279 . S
C224 C221 1.358 . S
C224 C225 1.356 . S
C224 H261 0.930 . S
C225 C222 1.348 . S
C225 C224 1.356 . S
H226 C220 0.930 . S
H227 C221 0.930 . S
C228 N229 1.314 . S
C228 C230 1.353 . S
C228 H234 0.930 . S
N229 Li179 1.990 . S
N229 C228 1.314 . S
N229 C232 1.279 . S
C230 C228 1.353 . S
C230 C233 1.348 . S
C230 H262 0.929 . S
C231 C232 1.358 . S
C231 C233 1.356 . S
C231 H263 0.930 . S
C232 N229 1.279 . S
C232 C231 1.358 . S
C232 H235 0.930 . S
C233 C230 1.348 . S
C233 C231 1.356 . S
H234 C228 0.930 . S
H235 C232 0.930 . S
O236 Li176 1.956 . S
O236 Li177 1.970 1_565 S
O236 Li178 1.961 1_455 S
O236 C180 1.325 . S
O237 Li176 1.970 1_545 S
O237 Li177 1.956 . S
O237 Li179 1.961 1_455 S
O237 C186 1.325 . S
O238 Li176 1.961 1_655 S
O238 Li178 1.956 . S
O238 Li179 1.970 1_565 S
O238 C208 1.325 . S
O239 Li177 1.961 1_655 S
O239 Li178 1.970 1_545 S
O239 Li179 1.956 . S
O239 C214 1.325 . S
H240 C182 0.929 . S
H241 C183 0.930 . S
H242 C184 0.930 1_545 S
H243 C185 0.930 . S
H244 C187 0.930 . S
H245 C189 0.929 . S
H246 C190 0.930 . S
H247 C191 0.930 . S
H248 C194 0.930 . S
H249 C197 0.929 . S
H250 C202 0.929 . S
H251 C203 0.930 . S
H252 C210 0.929 . S
H253 C211 0.930 . S
H254 C212 0.930 . S
H255 C213 0.930 . S
H256 C215 0.929 . S
H257 C216 0.930 . S
H258 C217 0.930 1_565 S
H259 C218 0.930 . S
H260 C222 0.929 . S
H261 C224 0.930 . S
H262 C230 0.929 . S
H263 C231 0.930 . S
H264 C283 0.949 . S
H265 C284 0.950 . S
H266 C286 0.950 . S
H267 C287 0.950 . S
H268 C289 0.950 . S
H269 C292 0.950 . S
H270 C293 0.950 . S
H271 C295 0.951 . S
H272 C296 0.949 . S
H273 C298 0.949 . S
H274 C299 0.950 . S
H275 C301 0.950 . S
H276 C302 0.950 . S
H277 C304 0.950 . S
H278 C307 0.950 . S
H279 C308 0.950 . S
H280 C310 0.951 . S
H281 C311 0.949 . S
C282 C283 1.376 . S
C282 C287 1.386 1_455 S
C282 C288 1.483 . S
C283 H264 0.949 . S
C283 C282 1.376 . S
C283 C284 1.397 . S
C284 H265 0.950 . S
C284 C283 1.397 . S
C284 C285 1.391 . S
C285 C284 1.391 . S
C285 C286 1.405 1_455 S
C286 H266 0.950 . S
C286 C285 1.405 1_655 S
C286 C287 1.367 . S
C287 H267 0.950 . S
C287 C282 1.386 1_655 S
C287 C286 1.367 . S
C288 C282 1.483 . S
C288 C289 1.382 . S
C288 C290 1.403 1_455 S
C289 H268 0.950 . S
C289 C288 1.382 . S
C289 C305 1.411 . S
C290 C288 1.403 1_655 S
C290 C291 1.489 . S
C290 C304 1.411 . S
C291 C290 1.489 . S
C291 C292 1.383 1_655 S
C291 C296 1.382 . S
C292 H269 0.950 . S
C292 C291 1.383 1_455 S
C292 C293 1.395 . S
C293 H270 0.950 . S
C293 C292 1.395 . S
C293 C294 1.288 1_455 S
C294 C293 1.288 1_655 S
C294 C295 1.392 . S
C295 H271 0.951 . S
C295 C294 1.392 . S
C295 C296 1.392 . S
C296 H272 0.949 . S
C296 C291 1.382 . S
C296 C295 1.392 . S
C297 C298 1.376 . S
C297 C302 1.386 1_655 S
C297 C303 1.483 . S
C298 H273 0.949 . S
C298 C297 1.376 . S
C298 C299 1.397 . S
C299 H274 0.950 . S
C299 C298 1.397 . S
C299 C300 1.399 . S
C300 C299 1.399 . S
C300 C301 1.390 1_655 S
C301 H275 0.950 . S
C301 C300 1.390 1_455 S
C301 C302 1.367 . S
C302 H276 0.950 . S
C302 C297 1.386 1_455 S
C302 C301 1.367 . S
C303 C297 1.483 . S
C303 C304 1.382 . S
C303 C305 1.403 1_655 S
C304 H277 0.950 . S
C304 C290 1.411 . S
C304 C303 1.382 . S
C305 C289 1.411 . S
C305 C303 1.403 1_455 S
C305 C306 1.489 . S
C306 C305 1.489 . S
C306 C307 1.383 1_455 S
C306 C311 1.382 . S
C307 H278 0.950 . S
C307 C306 1.383 1_655 S
C307 C308 1.395 . S
C308 H279 0.950 . S
C308 C307 1.395 . S
C308 C309 1.288 1_655 S
C309 C308 1.288 1_455 S
C309 C310 1.392 . S
C310 H280 0.951 . S
C310 C309 1.392 . S
C310 C311 1.392 . S
C311 H281 0.949 . S
C311 C306 1.382 . S
C311 C310 1.392 . S
H312 C331 0.949 . S
H313 C332 0.950 . S
H314 C334 0.950 . S
H315 C335 0.950 . S
H316 C337 0.950 . S
H317 C340 0.950 . S
H318 C341 0.950 . S
H319 C343 0.951 . S
H320 C344 0.949 . S
H321 C346 0.949 . S
H322 C347 0.950 . S
H323 C349 0.950 . S
H324 C350 0.950 . S
H325 C352 0.950 . S
H326 C355 0.950 . S
H327 C356 0.950 . S
H328 C358 0.951 . S
H329 C359 0.949 . S
C330 C331 1.376 . S
C330 C335 1.386 1_545 S
C330 C336 1.483 . S
C331 H312 0.949 . S
C331 C330 1.376 . S
C331 C332 1.397 . S
C332 H313 0.950 . S
C332 C331 1.397 . S
C332 C333 1.391 . S
C333 C332 1.391 . S
C333 C334 1.405 1_545 S
C334 H314 0.950 . S
C334 C333 1.405 1_565 S
C334 C335 1.367 . S
C335 H315 0.950 . S
C335 C330 1.386 1_565 S
C335 C334 1.367 . S
C336 C330 1.483 . S
C336 C337 1.382 . S
C336 C338 1.403 1_545 S
C337 H316 0.950 . S
C337 C336 1.382 . S
C337 C353 1.411 . S
C338 C336 1.403 1_565 S
C338 C339 1.489 . S
C338 C352 1.411 . S
C339 C338 1.489 . S
C339 C340 1.383 1_565 S
C339 C344 1.382 . S
C340 H317 0.950 . S
C340 C339 1.383 1_545 S
C340 C341 1.395 . S
C341 H318 0.950 . S
C341 C340 1.395 . S
C341 C342 1.288 1_545 S
C342 C341 1.288 1_565 S
C342 C343 1.392 . S
C343 H319 0.951 . S
C343 C342 1.392 . S
C343 C344 1.392 . S
C344 H320 0.949 . S
C344 C339 1.382 . S
C344 C343 1.392 . S
C345 C346 1.376 . S
C345 C350 1.386 1_565 S
C345 C351 1.483 . S
C346 H321 0.949 . S
C346 C345 1.376 . S
C346 C347 1.397 . S
C347 H322 0.950 . S
C347 C346 1.397 . S
C347 C348 1.413 . S
C348 C347 1.413 . S
C348 C349 1.393 1_565 S
C349 H323 0.950 . S
C349 C348 1.393 1_545 S
C349 C350 1.367 . S
C350 H324 0.950 . S
C350 C345 1.386 1_545 S
C350 C349 1.367 . S
C351 C345 1.483 . S
C351 C352 1.382 . S
C351 C353 1.403 1_565 S
C352 H325 0.950 . S
C352 C338 1.411 . S
C352 C351 1.382 . S
C353 C337 1.411 . S
C353 C351 1.403 1_545 S
C353 C354 1.489 . S
C354 C353 1.489 . S
C354 C355 1.383 1_545 S
C354 C359 1.382 . S
C355 H326 0.950 . S
C355 C354 1.383 1_565 S
C355 C356 1.395 . S
C356 H327 0.950 . S
C356 C355 1.395 . S
C356 C357 1.288 1_565 S
C357 C356 1.288 1_545 S
C357 C358 1.392 . S
C358 H328 0.951 . S
C358 C357 1.392 . S
C358 C359 1.392 . S
C359 H329 0.949 . S
C359 C354 1.382 . S
C359 C358 1.392 . S
H360 C379 0.949 . S
H361 C380 0.950 . S
H362 C382 0.950 . S
H363 C383 0.950 . S
H364 C385 0.950 . S
H365 C388 0.950 . S
H366 C389 0.950 . S
H367 C391 0.951 . S
H368 C392 0.949 . S
H369 C394 0.949 . S
H370 C395 0.950 . S
H371 C397 0.950 . S
H372 C398 0.950 . S
H373 C400 0.950 . S
H374 C403 0.950 . S
H375 C404 0.950 . S
H376 C406 0.951 . S
H377 C407 0.949 . S
C378 C379 1.376 . S
C378 C383 1.386 . S
C378 C384 1.483 . S
C379 H360 0.949 . S
C379 C378 1.376 . S
C379 C380 1.397 . S
C380 H361 0.950 . S
C380 C379 1.397 . S
C380 C381 1.391 . S
C381 C380 1.391 . S
C381 C382 1.405 . S
C382 H362 0.950 . S
C382 C381 1.405 . S
C382 C383 1.367 . S
C383 H363 0.950 . S
C383 C378 1.386 . S
C383 C382 1.367 . S
C384 C378 1.483 . S
C384 C385 1.382 . S
C384 C386 1.403 . S
C385 H364 0.950 . S
C385 C384 1.382 . S
C385 C401 1.411 . S
C386 C384 1.403 . S
C386 C387 1.489 . S
C386 C400 1.411 . S
C387 C386 1.489 . S
C387 C388 1.383 . S
C387 C392 1.382 . S
C388 H365 0.950 . S
C388 C387 1.383 . S
C388 C389 1.395 . S
C389 H366 0.950 . S
C389 C388 1.395 . S
C389 C390 1.288 . S
C390 C389 1.288 . S
C390 C391 1.392 . S
C391 H367 0.951 . S
C391 C390 1.392 . S
C391 C392 1.392 . S
C392 H368 0.949 . S
C392 C387 1.382 . S
C392 C391 1.392 . S
C393 C394 1.376 . S
C393 C398 1.386 . S
C393 C399 1.483 . S
C394 H369 0.949 . S
C394 C393 1.376 . S
C394 C395 1.397 . S
C395 H370 0.950 . S
C395 C394 1.397 . S
C395 C396 1.391 . S
C396 C395 1.391 . S
C396 C397 1.405 . S
C397 H371 0.950 . S
C397 C396 1.405 . S
C397 C398 1.367 . S
C398 H372 0.950 . S
C398 C393 1.386 . S
C398 C397 1.367 . S
C399 C393 1.483 . S
C399 C400 1.382 . S
C399 C401 1.403 . S
C400 H373 0.950 . S
C400 C386 1.411 . S
C400 C399 1.382 . S
C401 C385 1.411 . S
C401 C399 1.403 . S
C401 C402 1.489 . S
C402 C401 1.489 . S
C402 C403 1.383 . S
C402 C407 1.382 . S
C403 H374 0.950 . S
C403 C402 1.383 . S
C403 C404 1.395 . S
C404 H375 0.950 . S
C404 C403 1.395 . S
C404 C405 1.288 . S
C405 C404 1.288 . S
C405 C406 1.392 . S
C406 H376 0.951 . S
C406 C405 1.392 . S
C406 C407 1.392 . S
C407 H377 0.949 . S
C407 C402 1.382 . S
C407 C406 1.392 . S
H408 C414 0.930 1_455 S
H409 C417 0.930 . S
H410 C418 0.930 . S
H411 C419 0.930 . S
H412 C422 0.930 . S
H413 C423 0.930 . S
C414 H408 0.930 1_655 S
C414 C415 1.355 . S
C414 C416 1.415 . S
C415 C414 1.355 . S
C415 C417 1.419 . S
C416 C414 1.415 . S
C416 C421 1.425 . S
C416 C423 1.409 1_655 S
C417 H409 0.930 . S
C417 C415 1.419 . S
C417 C418 1.362 . S
C418 H410 0.930 . S
C418 C417 1.362 . S
C418 C421 1.409 . S
C419 H411 0.930 . S
C419 C420 1.355 . S
C419 C421 1.415 . S
C420 C419 1.355 . S
C420 C422 1.419 1_655 S
C421 C416 1.425 . S
C421 C418 1.409 . S
C421 C419 1.415 . S
C422 H412 0.930 . S
C422 C420 1.419 1_455 S
C422 C423 1.362 . S
C423 H413 0.930 . S
C423 C416 1.409 1_455 S
C423 C422 1.362 . S
H424 C430 0.930 . S
H425 C433 0.930 . S
H426 C434 0.930 . S
H427 C435 0.930 . S
H428 C438 0.930 . S
H429 C439 0.930 . S
C430 H424 0.930 . S
C430 C431 1.355 . S
C430 C432 1.415 . S
C431 C430 1.355 . S
C431 C433 1.419 . S
C432 C430 1.415 . S
C432 C437 1.425 . S
C432 C439 1.409 . S
C433 H425 0.930 . S
C433 C431 1.419 . S
C433 C434 1.362 . S
C434 H426 0.930 . S
C434 C433 1.362 . S
C434 C437 1.409 . S
C435 H427 0.930 . S
C435 C436 1.355 . S
C435 C437 1.415 . S
C436 C435 1.355 . S
C436 C438 1.419 1_565 S
C437 C432 1.425 . S
C437 C434 1.409 . S
C437 C435 1.415 . S
C438 H428 0.930 . S
C438 C436 1.419 1_545 S
C438 C439 1.362 1_545 S
C439 H429 0.930 . S
C439 C432 1.409 . S
C439 C438 1.362 1_565 S
H440 C446 0.930 . S
H441 C449 0.930 . S
H442 C450 0.930 . S
H443 C451 0.930 . S
H444 C454 0.930 . S
H445 C455 0.930 . S
C446 H440 0.930 . S
C446 C447 1.355 . S
C446 C448 1.415 . S
C447 C446 1.355 . S
C447 C449 1.419 . S
C448 C446 1.415 . S
C448 C453 1.425 . S
C448 C455 1.409 . S
C449 H441 0.930 . S
C449 C447 1.419 . S
C449 C450 1.362 . S
C450 H442 0.930 . S
C450 C449 1.362 . S
C450 C453 1.409 . S
C451 H443 0.930 . S
C451 C452 1.355 . S
C451 C453 1.415 . S
C452 C451 1.355 . S
C452 C454 1.419 . S
C453 C448 1.425 . S
C453 C450 1.409 . S
C453 C451 1.415 . S
C454 H444 0.930 . S
C454 C452 1.419 . S
C454 C455 1.362 . S
C455 H445 0.930 . S
C455 C448 1.409 . S
C455 C454 1.362 . S
H456 C462 0.930 . S
H457 C465 0.930 . S
H458 C466 0.930 . S
H459 C467 0.930 . S
H460 C470 0.930 . S
H461 C471 0.930 . S
C462 H456 0.930 . S
C462 C463 1.355 . S
C462 C464 1.415 . S
C463 C462 1.355 . S
C463 C465 1.419 . S
C464 C462 1.415 . S
C464 C469 1.425 . S
C464 C471 1.409 . S
C465 H457 0.930 . S
C465 C463 1.419 . S
C465 C466 1.362 1_455 S
C466 H458 0.930 . S
C466 C465 1.362 1_655 S
C466 C469 1.409 1_655 S
C467 H459 0.930 . S
C467 C468 1.355 1_655 S
C467 C469 1.415 1_655 S
C468 C467 1.355 1_455 S
C468 C470 1.419 . S
C469 C464 1.425 . S
C469 C466 1.409 1_455 S
C469 C467 1.415 1_455 S
C470 H460 0.930 . S
C470 C468 1.419 . S
C470 C471 1.362 . S
C471 H461 0.930 . S
C471 C464 1.409 . S
C471 C470 1.362 . S
H472 C478 0.930 . S
H473 C481 0.930 . S
H474 C482 0.930 1_565 S
H475 C483 0.930 1_565 S
H476 C486 0.930 . S
H477 C487 0.930 . S
C478 H472 0.930 . S
C478 C479 1.355 . S
C478 C480 1.415 . S
C479 C478 1.355 . S
C479 C481 1.419 . S
C480 C478 1.415 . S
C480 C485 1.425 . S
C480 C487 1.409 . S
C481 H473 0.930 . S
C481 C479 1.419 . S
C481 C482 1.362 . S
C482 H474 0.930 1_545 S
C482 C481 1.362 . S
C482 C485 1.409 . S
C483 H475 0.930 1_545 S
C483 C484 1.355 . S
C483 C485 1.415 . S
C484 C483 1.355 . S
C484 C486 1.419 . S
C485 C480 1.425 . S
C485 C482 1.409 . S
C485 C483 1.415 . S
C486 H476 0.930 . S
C486 C484 1.419 . S
C486 C487 1.362 . S
C487 H477 0.930 . S
C487 C480 1.409 . S
C487 C486 1.362 . S
H488 C494 0.930 . S
H489 C497 0.930 . S
H490 C498 0.930 . S
H491 C499 0.930 . S
H492 C502 0.930 . S
H493 C503 0.930 . S
C494 H488 0.930 . S
C494 C495 1.355 . S
C494 C496 1.415 . S
C495 C494 1.355 . S
C495 C497 1.419 . S
C496 C494 1.415 . S
C496 C501 1.425 . S
C496 C503 1.409 . S
C497 H489 0.930 . S
C497 C495 1.419 . S
C497 C498 1.362 . S
C498 H490 0.930 . S
C498 C497 1.362 . S
C498 C501 1.409 . S
C499 H491 0.930 . S
C499 C500 1.355 . S
C499 C501 1.415 . S
C500 C499 1.355 . S
C500 C502 1.419 . S
C501 C496 1.425 . S
C501 C498 1.409 . S
C501 C499 1.415 . S
C502 H492 0.930 . S
C502 C500 1.419 . S
C502 C503 1.362 . S
C503 H493 0.930 . S
C503 C496 1.409 . S
C503 C502 1.362 . S
H504 C510 0.930 1_565 S
H505 C513 0.930 . S
H506 C514 0.930 . S
H507 C515 0.930 . S
H508 C518 0.930 . S
H509 C519 0.930 . S
C510 H504 0.930 1_545 S
C510 C511 1.355 . S
C510 C512 1.415 . S
C511 C510 1.355 . S
C511 C513 1.419 . S
C512 C510 1.415 . S
C512 C517 1.425 . S
C512 C519 1.409 1_545 S
C513 H505 0.930 . S
C513 C511 1.419 . S
C513 C514 1.362 . S
C514 H506 0.930 . S
C514 C513 1.362 . S
C514 C517 1.409 . S
C515 H507 0.930 . S
C515 C516 1.355 . S
C515 C517 1.415 . S
C516 C515 1.355 . S
C516 C518 1.419 1_545 S
C517 C512 1.425 . S
C517 C514 1.409 . S
C517 C515 1.415 . S
C518 H508 0.930 . S
C518 C516 1.419 1_565 S
C518 C519 1.362 . S
C519 H509 0.930 . S
C519 C512 1.409 1_565 S
C519 C518 1.362 . S
H520 C526 0.930 . S
H521 C529 0.930 . S
H522 C530 0.930 . S
H523 C531 0.930 . S
H524 C534 0.930 . S
H525 C535 0.930 . S
C526 H520 0.930 . S
C526 C527 1.355 . S
C526 C528 1.415 . S
C527 C526 1.355 . S
C527 C529 1.419 . S
C528 C526 1.415 . S
C528 C533 1.425 . S
C528 C535 1.409 . S
C529 H521 0.930 . S
C529 C527 1.419 . S
C529 C530 1.362 . S
C530 H522 0.930 . S
C530 C529 1.362 . S
C530 C533 1.409 . S
C531 H523 0.930 . S
C531 C532 1.355 . S
C531 C533 1.415 . S
C532 C531 1.355 . S
C532 C534 1.419 . S
C533 C528 1.425 . S
C533 C530 1.409 . S
C533 C531 1.415 . S
C534 H524 0.930 . S
C534 C532 1.419 . S
C534 C535 1.362 . S
C535 H525 0.930 . S
C535 C528 1.409 . S
C535 C534 1.362 . S
H536 C542 0.930 . S
H537 C545 0.930 . S
H538 C546 0.930 . S
H539 C547 0.930 . S
H540 C550 0.931 . S
H541 C551 0.930 . S
C542 H536 0.930 . S
C542 C543 1.355 . S
C542 C544 1.415 . S
C543 C542 1.355 . S
C543 C545 1.419 . S
C544 C542 1.415 . S
C544 C549 1.425 . S
C544 C551 1.409 . S
C545 H537 0.930 . S
C545 C543 1.419 . S
C545 C546 1.362 . S
C546 H538 0.930 . S
C546 C545 1.362 . S
C546 C549 1.409 . S
C547 H539 0.930 . S
C547 C548 1.355 . S
C547 C549 1.415 . S
C548 C547 1.355 . S
C548 C550 1.419 . S
C549 C544 1.425 . S
C549 C546 1.409 . S
C549 C547 1.415 . S
C550 H540 0.931 . S
C550 C548 1.419 . S
C550 C551 1.362 . S
C551 H541 0.930 . S
C551 C544 1.409 . S
C551 C550 1.362 . S
H552 C558 0.930 . S
H553 C561 0.930 . S
H554 C562 0.930 . S
H555 C563 0.930 . S
H556 C566 0.930 . S
H557 C567 0.930 . S
C558 H552 0.930 . S
C558 C559 1.355 . S
C558 C560 1.415 . S
C559 C558 1.355 . S
C559 C561 1.419 . S
C560 C558 1.415 . S
C560 C565 1.425 . S
C560 C567 1.409 . S
C561 H553 0.930 . S
C561 C559 1.419 . S
C561 C562 1.362 1_565 S
C562 H554 0.930 . S
C562 C561 1.362 1_545 S
C562 C565 1.409 1_545 S
C563 H555 0.930 . S
C563 C564 1.355 1_545 S
C563 C565 1.415 1_545 S
C564 C563 1.355 1_565 S
C564 C566 1.419 . S
C565 C560 1.425 . S
C565 C562 1.409 1_565 S
C565 C563 1.415 1_565 S
C566 H556 0.930 . S
C566 C564 1.419 . S
C566 C567 1.362 . S
C567 H557 0.930 . S
C567 C560 1.409 . S
C567 C566 1.362 . S
H568 C574 0.930 . S
H569 C577 0.930 . S
H570 C578 0.930 . S
H571 C579 0.930 . S
H572 C582 0.930 . S
H573 C583 0.930 . S
C574 H568 0.930 . S
C574 C575 1.355 . S
C574 C576 1.415 . S
C575 C574 1.355 . S
C575 C577 1.419 . S
C576 C574 1.415 . S
C576 C581 1.425 . S
C576 C583 1.409 . S
C577 H569 0.930 . S
C577 C575 1.419 . S
C577 C578 1.362 . S
C578 H570 0.930 . S
C578 C577 1.362 . S
C578 C581 1.409 . S
C579 H571 0.930 . S
C579 C580 1.355 . S
C579 C581 1.415 . S
C580 C579 1.355 . S
C580 C582 1.419 . S
C581 C576 1.425 . S
C581 C578 1.409 . S
C581 C579 1.415 . S
C582 H572 0.930 . S
C582 C580 1.419 . S
C582 C583 1.362 . S
C583 H573 0.930 . S
C583 C576 1.409 . S
C583 C582 1.362 . S
H584 C590 0.930 1_655 S
H585 C593 0.930 . S
H586 C594 0.930 . S
H587 C595 0.930 . S
H588 C598 0.930 . S
H589 C599 0.930 . S
C590 H584 0.930 1_455 S
C590 C591 1.355 . S
C590 C592 1.415 . S
C591 C590 1.355 . S
C591 C593 1.419 . S
C592 C590 1.415 . S
C592 C597 1.425 . S
C592 C599 1.409 1_455 S
C593 H585 0.930 . S
C593 C591 1.419 . S
C593 C594 1.362 . S
C594 H586 0.930 . S
C594 C593 1.362 . S
C594 C597 1.409 . S
C595 H587 0.930 . S
C595 C596 1.355 . S
C595 C597 1.415 . S
C596 C595 1.355 . S
C596 C598 1.419 1_455 S
C597 C592 1.425 . S
C597 C594 1.409 . S
C597 C595 1.415 . S
C598 H588 0.930 . S
C598 C596 1.419 1_655 S
C598 C599 1.362 . S
C599 H589 0.930 . S
C599 C592 1.409 1_655 S
C599 C598 1.362 . S
C420 C285 1.513 1_655 S
C415 C29 1.499 . S
C431 C137 1.490 . S
C436 C333 1.507 1_565 S
C447 C225 1.456 . S
C452 C405 1.455 . S
C463 C49 1.454 . S
C468 C309 1.453 . S
C484 C357 1.455 . S
C479 C117 1.458 . S
C495 C205 1.461 . S
C500 C381 1.495 . S
C516 C342 1.509 1_545 S
C511 C233 1.503 . S
C527 C57 1.504 . S
C532 C396 1.512 . S
C548 C300 1.499 . S
C543 C108 1.470 . S
C564 C348 1.478 . S
C559 C196 1.466 . S
C580 C390 1.508 . S
C575 C20 1.459 . S
C591 C145 1.490 . S
C596 C294 1.503 1_455 S
