# Generated by pormake.
# Topology eea, (3,6)-cn, num edge types: 1
# Building blocks:
#     Node 0, Type 0, BuildingBlock: VETTIZ_charged_linker_0, # of connection points: 3
#     Node 1, Type 0, BuildingBlock: VETTIZ_charged_linker_0, # of connection points: 3
#     Node 2, Type 0, BuildingBlock: VETTIZ_charged_linker_0, # of connection points: 3
#     Node 3, Type 0, BuildingBlock: VETTIZ_charged_linker_0, # of connection points: 3
#     Node 4, Type 0, BuildingBlock: VETTIZ_charged_linker_0, # of connection points: 3
#     Node 5, Type 0, BuildingBlock: VETTIZ_charged_linker_0, # of connection points: 3
#     Node 6, Type 0, BuildingBlock: VETTIZ_charged_linker_0, # of connection points: 3
#     Node 7, Type 0, BuildingBlock: VETTIZ_charged_linker_0, # of connection points: 3
#     Node 8, Type 0, BuildingBlock: VETTIZ_charged_linker_0, # of connection points: 3
#     Node 9, Type 0, BuildingBlock: VETTIZ_charged_linker_0, # of connection points: 3
#     Node 10, Type 0, BuildingBlock: VETTIZ_charged_linker_0, # of connection points: 3
#     Node 11, Type 0, BuildingBlock: VETTIZ_charged_linker_0, # of connection points: 3
#     Node 12, Type 0, BuildingBlock: VETTIZ_charged_linker_0, # of connection points: 3
#     Node 13, Type 0, BuildingBlock: VETTIZ_charged_linker_0, # of connection points: 3
#     Node 14, Type 0, BuildingBlock: VETTIZ_charged_linker_0, # of connection points: 3
#     Node 15, Type 0, BuildingBlock: VETTIZ_charged_linker_0, # of connection points: 3
#     Node 16, Type 0, BuildingBlock: VETTIZ_charged_linker_0, # of connection points: 3
#     Node 17, Type 0, BuildingBlock: VETTIZ_charged_linker_0, # of connection points: 3
#     Node 18, Type 1, BuildingBlock: CUKXOW_clean_sbu_0, # of connection points: 6
#     Node 19, Type 1, BuildingBlock: CUKXOW_clean_sbu_0, # of connection points: 6
#     Node 20, Type 1, BuildingBlock: CUKXOW_clean_sbu_0, # of connection points: 6
#     Node 21, Type 1, BuildingBlock: CUKXOW_clean_sbu_0, # of connection points: 6
#     Node 22, Type 1, BuildingBlock: CUKXOW_clean_sbu_0, # of connection points: 6
#     Node 23, Type 1, BuildingBlock: CUKXOW_clean_sbu_0, # of connection points: 6
#     Node 24, Type 1, BuildingBlock: CUKXOW_clean_sbu_0, # of connection points: 6
#     Node 25, Type 1, BuildingBlock: CUKXOW_clean_sbu_0, # of connection points: 6
#     Node 26, Type 1, BuildingBlock: CUKXOW_clean_sbu_0, # of connection points: 6
#     Edge 27, Type (0, 1), BuildingBlock: XIVTED_clean_linker_0, # of connection points: 2
#     Edge 28, Type (0, 1), BuildingBlock: XIVTED_clean_linker_0, # of connection points: 2
#     Edge 29, Type (0, 1), BuildingBlock: XIVTED_clean_linker_0, # of connection points: 2
#     Edge 30, Type (0, 1), BuildingBlock: XIVTED_clean_linker_0, # of connection points: 2
#     Edge 31, Type (0, 1), BuildingBlock: XIVTED_clean_linker_0, # of connection points: 2
#     Edge 32, Type (0, 1), BuildingBlock: XIVTED_clean_linker_0, # of connection points: 2
#     Edge 33, Type (0, 1), BuildingBlock: XIVTED_clean_linker_0, # of connection points: 2
#     Edge 34, Type (0, 1), BuildingBlock: XIVTED_clean_linker_0, # of connection points: 2
#     Edge 35, Type (0, 1), BuildingBlock: XIVTED_clean_linker_0, # of connection points: 2
#     Edge 36, Type (0, 1), BuildingBlock: XIVTED_clean_linker_0, # of connection points: 2
#     Edge 37, Type (0, 1), BuildingBlock: XIVTED_clean_linker_0, # of connection points: 2
#     Edge 38, Type (0, 1), BuildingBlock: XIVTED_clean_linker_0, # of connection points: 2
#     Edge 39, Type (0, 1), BuildingBlock: XIVTED_clean_linker_0, # of connection points: 2
#     Edge 40, Type (0, 1), BuildingBlock: XIVTED_clean_linker_0, # of connection points: 2
#     Edge 41, Type (0, 1), BuildingBlock: XIVTED_clean_linker_0, # of connection points: 2
#     Edge 42, Type (0, 1), BuildingBlock: XIVTED_clean_linker_0, # of connection points: 2
#     Edge 43, Type (0, 1), BuildingBlock: XIVTED_clean_linker_0, # of connection points: 2
#     Edge 44, Type (0, 1), BuildingBlock: XIVTED_clean_linker_0, # of connection points: 2
#     Edge 45, Type (0, 1), BuildingBlock: XIVTED_clean_linker_0, # of connection points: 2
#     Edge 46, Type (0, 1), BuildingBlock: XIVTED_clean_linker_0, # of connection points: 2
#     Edge 47, Type (0, 1), BuildingBlock: XIVTED_clean_linker_0, # of connection points: 2
#     Edge 48, Type (0, 1), BuildingBlock: XIVTED_clean_linker_0, # of connection points: 2
#     Edge 49, Type (0, 1), BuildingBlock: XIVTED_clean_linker_0, # of connection points: 2
#     Edge 50, Type (0, 1), BuildingBlock: XIVTED_clean_linker_0, # of connection points: 2
#     Edge 51, Type (0, 1), BuildingBlock: XIVTED_clean_linker_0, # of connection points: 2
#     Edge 52, Type (0, 1), BuildingBlock: XIVTED_clean_linker_0, # of connection points: 2
#     Edge 53, Type (0, 1), BuildingBlock: XIVTED_clean_linker_0, # of connection points: 2
#     Edge 54, Type (0, 1), BuildingBlock: XIVTED_clean_linker_0, # of connection points: 2
#     Edge 55, Type (0, 1), BuildingBlock: XIVTED_clean_linker_0, # of connection points: 2
#     Edge 56, Type (0, 1), BuildingBlock: XIVTED_clean_linker_0, # of connection points: 2
#     Edge 57, Type (0, 1), BuildingBlock: XIVTED_clean_linker_0, # of connection points: 2
#     Edge 58, Type (0, 1), BuildingBlock: XIVTED_clean_linker_0, # of connection points: 2
#     Edge 59, Type (0, 1), BuildingBlock: XIVTED_clean_linker_0, # of connection points: 2
#     Edge 60, Type (0, 1), BuildingBlock: XIVTED_clean_linker_0, # of connection points: 2
#     Edge 61, Type (0, 1), BuildingBlock: XIVTED_clean_linker_0, # of connection points: 2
#     Edge 62, Type (0, 1), BuildingBlock: XIVTED_clean_linker_0, # of connection points: 2
#     Edge 63, Type (0, 1), BuildingBlock: XIVTED_clean_linker_0, # of connection points: 2
#     Edge 64, Type (0, 1), BuildingBlock: XIVTED_clean_linker_0, # of connection points: 2
#     Edge 65, Type (0, 1), BuildingBlock: XIVTED_clean_linker_0, # of connection points: 2
#     Edge 66, Type (0, 1), BuildingBlock: XIVTED_clean_linker_0, # of connection points: 2
#     Edge 67, Type (0, 1), BuildingBlock: XIVTED_clean_linker_0, # of connection points: 2
#     Edge 68, Type (0, 1), BuildingBlock: XIVTED_clean_linker_0, # of connection points: 2
#     Edge 69, Type (0, 1), BuildingBlock: XIVTED_clean_linker_0, # of connection points: 2
#     Edge 70, Type (0, 1), BuildingBlock: XIVTED_clean_linker_0, # of connection points: 2
#     Edge 71, Type (0, 1), BuildingBlock: XIVTED_clean_linker_0, # of connection points: 2
#     Edge 72, Type (0, 1), BuildingBlock: XIVTED_clean_linker_0, # of connection points: 2
#     Edge 73, Type (0, 1), BuildingBlock: XIVTED_clean_linker_0, # of connection points: 2
#     Edge 74, Type (0, 1), BuildingBlock: XIVTED_clean_linker_0, # of connection points: 2
#     Edge 75, Type (0, 1), BuildingBlock: XIVTED_clean_linker_0, # of connection points: 2
#     Edge 76, Type (0, 1), BuildingBlock: XIVTED_clean_linker_0, # of connection points: 2
#     Edge 77, Type (0, 1), BuildingBlock: XIVTED_clean_linker_0, # of connection points: 2
#     Edge 78, Type (0, 1), BuildingBlock: XIVTED_clean_linker_0, # of connection points: 2
#     Edge 79, Type (0, 1), BuildingBlock: XIVTED_clean_linker_0, # of connection points: 2
#     Edge 80, Type (0, 1), BuildingBlock: XIVTED_clean_linker_0, # of connection points: 2
# Relax obj value: 0.018
# Max RMSD: 0.128
# Mean RMSD: 0.057
data_MOF--net-eea--node1-CUKXOW_clean_sbu_0--node2-VETTIZ_charged_linker_0--edge1-XIVTED_clean_linker_0
_symmetry_space_group_name_H-M    P1
_symmetry_Int_Tables_number       1
_symmetry_cell_setting            triclinic
loop_
_symmetry_equiv_pos_as_xyz
'x, y, z'
_cell_length_a     66.920472
_cell_length_b     63.864976
_cell_length_c     73.719128
_cell_angle_alpha  93.101288
_cell_angle_beta   93.048094
_cell_angle_gamma 119.88726
loop_
_atom_site_label
_atom_site_type_symbol
_atom_site_fract_x
_atom_site_fract_y
_atom_site_fract_z
_atom_type_partial_charge
C0 C 0.2387 0.18212 0.39518 0.0
C1 C 0.2422 0.20414 0.40347 0.0
C2 C 0.2533 0.21226 0.4213 0.0
C3 C 0.25606 0.17592 0.42261 0.0
C4 C 0.24587 0.16846 0.4049 0.0
C5 C 0.24341 0.14465 0.39801 0.0
H6 H 0.24888 0.04497 0.41547 0.0
C7 C 0.26062 0.15705 0.42905 0.0
C8 C 0.25349 0.13884 0.4146 0.0
H9 H 0.22593 0.06055 0.36469 0.0
H10 H 0.23668 0.10058 0.37796 0.0
H11 H 0.29473 0.09565 0.42318 0.0
H12 H 0.22728 0.06865 0.44212 0.0
H13 H 0.24805 0.08355 0.46095 0.0
H14 H 0.24653 0.05776 0.44846 0.0
H15 H 0.28613 0.07737 0.44202 0.0
H16 H 0.29947 0.11001 0.44524 0.0
C17 C 0.25821 0.14889 0.38164 0.0
C18 C 0.21726 0.12621 0.39348 0.0
C19 C 0.29077 0.16313 0.49515 0.0
C20 C 0.29648 0.14817 0.50484 0.0
C21 C 0.29419 0.12705 0.49567 0.0
C22 C 0.28604 0.12068 0.47721 0.0
C23 C 0.28009 0.13557 0.46773 0.0
C24 C 0.28284 0.15661 0.47659 0.0
C25 C 0.27657 0.17067 0.46401 0.0
C26 C 0.26927 0.15437 0.44626 0.0
C27 C 0.27111 0.13372 0.44864 0.0
C28 C 0.29852 0.19557 0.46259 0.0
C29 C 0.25613 0.17232 0.47141 0.0
C30 C 0.24618 0.05705 0.40725 0.0
C31 C 0.2363 0.04959 0.38912 0.0
C32 C 0.23354 0.06596 0.37869 0.0
C33 C 0.23963 0.08911 0.38647 0.0
C34 C 0.24858 0.09596 0.40486 0.0
C35 C 0.25226 0.08026 0.41479 0.0
C36 C 0.26257 0.09086 0.43396 0.0
C37 C 0.26386 0.11529 0.43406 0.0
C38 C 0.2554 0.11802 0.41706 0.0
C39 C 0.28692 0.09353 0.4364 0.0
C40 C 0.24541 0.0744 0.4472 0.0
H41 H 0.26829 0.20517 0.44454 0.0
H42 H 0.23058 0.17568 0.38137 0.0
H43 H 0.207 0.12836 0.40406 0.0
H44 H 0.21302 0.10716 0.39324 0.0
H45 H 0.21083 0.12899 0.38013 0.0
H46 H 0.27332 0.16766 0.38284 0.0
H47 H 0.2479 0.14619 0.36852 0.0
H48 H 0.2659 0.13706 0.38091 0.0
H49 H 0.29272 0.17967 0.5018 0.0
H50 H 0.29836 0.11519 0.5029 0.0
H51 H 0.2845 0.10427 0.47108 0.0
H52 H 0.31447 0.19425 0.46422 0.0
H53 H 0.30016 0.20936 0.47333 0.0
H54 H 0.2989 0.20238 0.44907 0.0
H55 H 0.24313 0.15458 0.47589 0.0
H56 H 0.24655 0.17668 0.46109 0.0
H57 H 0.26222 0.18609 0.48334 0.0
H58 H 0.25614 0.22919 0.42793 0.0
C59 C 0.26022 0.19823 0.43093 0.0
C60 C 0.93861 0.18335 0.40729 0.0
C61 C 0.95699 0.20495 0.41623 0.0
C62 C 0.954 0.21355 0.43334 0.0
C63 C 0.91515 0.17881 0.43243 0.0
C64 C 0.91809 0.17064 0.4156 0.0
C65 C 0.8975 0.14691 0.40806 0.0
H66 H 0.79221 0.05182 0.41831 0.0
C67 C 0.8918 0.16097 0.43725 0.0
C68 C 0.88145 0.1423 0.42298 0.0
H69 H 0.8358 0.06147 0.37461 0.0
H70 H 0.86382 0.10141 0.38831 0.0
H71 H 0.83368 0.07433 0.45074 0.0
H72 H 0.79946 0.10556 0.42097 0.0
H73 H 0.80629 0.1195 0.44336 0.0
H74 H 0.78667 0.08717 0.43924 0.0
H75 H 0.80396 0.06588 0.45244 0.0
H76 H 0.82705 0.09124 0.46642 0.0
C77 C 0.90524 0.1277 0.40625 0.0
C78 C 0.88759 0.15091 0.38993 0.0
C79 C 0.8645 0.1719 0.49838 0.0
C80 C 0.84358 0.15837 0.50627 0.0
C81 C 0.82504 0.13809 0.49596 0.0
C82 C 0.82753 0.13084 0.47835 0.0
C83 C 0.84879 0.14399 0.47091 0.0
C84 C 0.86664 0.16454 0.48067 0.0
C85 C 0.88758 0.17686 0.47012 0.0
C86 C 0.87956 0.15988 0.4527 0.0
C87 C 0.85693 0.14046 0.45338 0.0
C88 C 0.90818 0.17721 0.48102 0.0
C89 C 0.89159 0.20229 0.46654 0.0
C90 C 0.80771 0.06272 0.41164 0.0
C91 C 0.81194 0.05348 0.39545 0.0
C92 C 0.83235 0.06809 0.38723 0.0
C93 C 0.84859 0.0913 0.39521 0.0
C94 C 0.84457 0.09999 0.41172 0.0
C95 C 0.82431 0.0859 0.4196 0.0
C96 C 0.82338 0.09798 0.4374 0.0
C97 C 0.84662 0.12142 0.43903 0.0
C98 C 0.85885 0.12242 0.42393 0.0
C99 C 0.8218 0.08158 0.45264 0.0
C100 C 0.80283 0.10272 0.43532 0.0
H101 H 0.93206 0.20794 0.45457 0.0
H102 H 0.94006 0.17635 0.39402 0.0
H103 H 0.88837 0.16875 0.39098 0.0
H104 H 0.86913 0.13739 0.38632 0.0
H105 H 0.89763 0.15069 0.37847 0.0
H106 H 0.92029 0.13237 0.41619 0.0
H107 H 0.91044 0.12628 0.39239 0.0
H108 H 0.89176 0.10954 0.40941 0.0
H109 H 0.87893 0.18779 0.50588 0.0
H110 H 0.8088 0.12731 0.50177 0.0
H111 H 0.81292 0.11501 0.47135 0.0
H112 H 0.90243 0.15973 0.4871 0.0
H113 H 0.91581 0.19196 0.49233 0.0
H114 H 0.92197 0.17927 0.47246 0.0
H115 H 0.87484 0.2019 0.46425 0.0
H116 H 0.90034 0.20891 0.45408 0.0
H117 H 0.90176 0.21577 0.47835 0.0
H118 H 0.96792 0.23003 0.44063 0.0
C119 C 0.93319 0.20062 0.44147 0.0
C120 C 0.94522 0.76069 0.41759 0.0
C121 C 0.96238 0.75636 0.42515 0.0
C122 C 0.95964 0.74642 0.44207 0.0
C123 C 0.92291 0.74513 0.44346 0.0
C124 C 0.9258 0.75509 0.42696 0.0
C125 C 0.90636 0.75927 0.42097 0.0
H126 H 0.80532 0.75353 0.43721 0.0
C127 C 0.90091 0.7417 0.44966 0.0
C128 C 0.89125 0.75013 0.43659 0.0
H129 H 0.84509 0.77998 0.39091 0.0
H130 H 0.87349 0.77084 0.40356 0.0
H131 H 0.8105 0.70689 0.43867 0.0
H132 H 0.84894 0.77774 0.46794 0.0
H133 H 0.84494 0.75653 0.48363 0.0
H134 H 0.82003 0.75592 0.47238 0.0
H135 H 0.79919 0.71627 0.45694 0.0
H136 H 0.81677 0.70259 0.46111 0.0
C137 C 0.89414 0.74346 0.40276 0.0
C138 C 0.91654 0.78689 0.4199 0.0
C139 C 0.87269 0.70273 0.50839 0.0
C140 C 0.85286 0.69713 0.51743 0.0
C141 C 0.83687 0.7034 0.51003 0.0
C142 C 0.84033 0.71468 0.49383 0.0
C143 C 0.86003 0.71988 0.48484 0.0
C144 C 0.87589 0.71405 0.49217 0.0
C145 C 0.89593 0.72123 0.48077 0.0
C146 C 0.88925 0.73198 0.4653 0.0
C147 C 0.86821 0.73112 0.46778 0.0
C148 C 0.89613 0.69796 0.47401 0.0
C149 C 0.91832 0.7405 0.49236 0.0
C150 C 0.82028 0.75755 0.42992 0.0
C151 C 0.82298 0.7675 0.41305 0.0
C152 C 0.8425 0.77209 0.40383 0.0
C153 C 0.85904 0.76687 0.41125 0.0
C154 C 0.85608 0.75685 0.42808 0.0
C155 C 0.83692 0.75228 0.4371 0.0
C156 C 0.83641 0.74104 0.45461 0.0
C157 C 0.85856 0.73991 0.45469 0.0
C158 C 0.87 0.74926 0.43915 0.0
C159 C 0.81456 0.71542 0.45295 0.0
C160 C 0.83746 0.7585 0.47056 0.0
H161 H 0.93878 0.73308 0.46402 0.0
H162 H 0.94704 0.76873 0.40476 0.0
H163 H 0.93108 0.79756 0.43066 0.0
H164 H 0.90395 0.79288 0.42238 0.0
H165 H 0.92334 0.79238 0.40649 0.0
H166 H 0.89397 0.72593 0.40253 0.0
H167 H 0.90315 0.75282 0.39094 0.0
H168 H 0.87572 0.73826 0.40065 0.0
H169 H 0.88529 0.69812 0.51366 0.0
H170 H 0.82172 0.69983 0.5169 0.0
H171 H 0.8275 0.71893 0.48896 0.0
H172 H 0.87821 0.6828 0.46996 0.0
H173 H 0.90386 0.69209 0.4849 0.0
H174 H 0.90549 0.70005 0.46175 0.0
H175 H 0.91469 0.75184 0.50212 0.0
H176 H 0.93135 0.75361 0.48405 0.0
H177 H 0.92621 0.73183 0.50044 0.0
H178 H 0.97262 0.74283 0.4481 0.0
C179 C 0.93995 0.7407 0.45124 0.0
C180 C 0.17466 0.25246 0.5935 0.0
C181 C 0.19674 0.25951 0.58793 0.0
C182 C 0.20399 0.27346 0.57287 0.0
C183 C 0.16722 0.27238 0.56906 0.0
C184 C 0.16036 0.25913 0.58401 0.0
C185 C 0.13646 0.25293 0.58831 0.0
H186 H 0.03757 0.25381 0.56687 0.0
C187 C 0.14788 0.27559 0.56201 0.0
C188 C 0.12991 0.26436 0.57333 0.0
H189 H 0.05495 0.22462 0.61283 0.0
H190 H 0.09266 0.23795 0.60291 0.0
H191 H 0.08714 0.30413 0.56993 0.0
H192 H 0.06054 0.23602 0.53739 0.0
H193 H 0.07628 0.25913 0.52342 0.0
H194 H 0.0511 0.25718 0.53275 0.0
H195 H 0.06536 0.29455 0.55113 0.0
H196 H 0.09579 0.31058 0.54785 0.0
C197 C 0.13831 0.2653 0.60753 0.0
C198 C 0.12102 0.2249 0.58638 0.0
C199 C 0.15312 0.31598 0.5035 0.0
C200 C 0.13707 0.3193 0.49279 0.0
C201 C 0.11542 0.31269 0.49921 0.0
C202 C 0.10957 0.3023 0.51577 0.0
C203 C 0.12544 0.29822 0.52599 0.0
C204 C 0.14691 0.30529 0.51992 0.0
C205 C 0.16125 0.29879 0.53225 0.0
C206 C 0.14481 0.28653 0.54664 0.0
C207 C 0.12385 0.28626 0.5429 0.0
C208 C 0.18314 0.32256 0.54031 0.0
C209 C 0.16629 0.28093 0.52109 0.0
C210 C 0.04958 0.25047 0.57486 0.0
C211 C 0.04307 0.23784 0.59056 0.0
C212 C 0.05925 0.23378 0.60047 0.0
C213 C 0.08129 0.24174 0.59477 0.0
C214 C 0.08743 0.254 0.57896 0.0
C215 C 0.0718 0.25838 0.56935 0.0
C216 C 0.0816 0.27187 0.55294 0.0
C217 C 0.10569 0.27494 0.55442 0.0
C218 C 0.10885 0.26425 0.56961 0.0
C219 C 0.08244 0.29655 0.55539 0.0
C220 C 0.06663 0.25543 0.53564 0.0
H221 H 0.19586 0.29047 0.55207 0.0
H222 H 0.16831 0.24149 0.60482 0.0
H223 H 0.12542 0.21675 0.57464 0.0
H224 H 0.10243 0.21857 0.58352 0.0
H225 H 0.12347 0.21708 0.59883 0.0
H226 H 0.15539 0.28216 0.61073 0.0
H227 H 0.13632 0.2531 0.61832 0.0
H228 H 0.12553 0.27138 0.60867 0.0
H229 H 0.16975 0.32052 0.49879 0.0
H230 H 0.10284 0.31523 0.49123 0.0
H231 H 0.09272 0.2974 0.51978 0.0
H232 H 0.17909 0.33729 0.543 0.0
H233 H 0.19686 0.32886 0.53073 0.0
H234 H 0.19025 0.32082 0.55364 0.0
H235 H 0.151 0.26811 0.51155 0.0
H236 H 0.16981 0.26928 0.52963 0.0
H237 H 0.18111 0.29079 0.51283 0.0
H238 H 0.22103 0.2795 0.56842 0.0
C239 C 0.18938 0.27994 0.56344 0.0
C240 C 0.75511 0.80762 0.60129 0.0
C241 C 0.75315 0.78702 0.59162 0.0
C242 C 0.74467 0.78168 0.57304 0.0
C243 C 0.74084 0.81753 0.57399 0.0
C244 C 0.74901 0.8226 0.59224 0.0
C245 C 0.75141 0.84595 0.60031 0.0
H246 H 0.74357 0.94601 0.58894 0.0
C247 C 0.73664 0.83708 0.56863 0.0
C248 C 0.74275 0.85373 0.58403 0.0
H249 H 0.7713 0.92939 0.63676 0.0
H250 H 0.76133 0.89043 0.62164 0.0
H251 H 0.76692 0.9273 0.56063 0.0
H252 H 0.69886 0.89365 0.57927 0.0
H253 H 0.69514 0.88253 0.5563 0.0
H254 H 0.70692 0.91464 0.56215 0.0
H255 H 0.74623 0.93665 0.55524 0.0
H256 H 0.74675 0.91289 0.54144 0.0
C257 C 0.77741 0.86385 0.60635 0.0
C258 C 0.73532 0.84011 0.61589 0.0
C259 C 0.70986 0.83777 0.50277 0.0
C260 C 0.70433 0.85357 0.49404 0.0
C261 C 0.70419 0.87249 0.50477 0.0
C262 C 0.71057 0.87641 0.52355 0.0
C263 C 0.71714 0.86126 0.53188 0.0
C264 C 0.71604 0.84186 0.52167 0.0
C265 C 0.72246 0.82696 0.5332 0.0
C266 C 0.72837 0.84119 0.55181 0.0
C267 C 0.72552 0.86145 0.55084 0.0
C268 C 0.74384 0.82724 0.52585 0.0
C269 C 0.70091 0.80133 0.53294 0.0
C270 C 0.74715 0.93378 0.59623 0.0
C271 C 0.75818 0.94067 0.61404 0.0
C272 C 0.76295 0.92448 0.62297 0.0
C273 C 0.75716 0.90191 0.61416 0.0
C274 C 0.7468 0.89559 0.59611 0.0
C275 C 0.74185 0.91137 0.5875 0.0
C276 C 0.73186 0.90219 0.56806 0.0
C277 C 0.7319 0.87841 0.56635 0.0
C278 C 0.74054 0.8746 0.58283 0.0
C279 C 0.7486 0.92065 0.55556 0.0
C280 C 0.70696 0.89815 0.56618 0.0
H281 H 0.73219 0.7918 0.55004 0.0
H282 H 0.76201 0.81247 0.61548 0.0
H283 H 0.71833 0.82345 0.61181 0.0
H284 H 0.73121 0.8545 0.61936 0.0
H285 H 0.74307 0.83693 0.62839 0.0
H286 H 0.7888 0.85973 0.59825 0.0
H287 H 0.78168 0.86292 0.62095 0.0
H288 H 0.78273 0.88282 0.60405 0.0
H289 H 0.71 0.82293 0.49507 0.0
H290 H 0.69918 0.88442 0.49864 0.0
H291 H 0.7104 0.89131 0.53082 0.0
H292 H 0.75625 0.84556 0.52189 0.0
H293 H 0.73869 0.81412 0.51361 0.0
H294 H 0.75383 0.82328 0.53609 0.0
H295 H 0.68469 0.80221 0.53212 0.0
H296 H 0.70051 0.79258 0.54554 0.0
H297 H 0.69981 0.78931 0.52099 0.0
H298 H 0.74291 0.76582 0.56535 0.0
C299 C 0.7384 0.79674 0.5642 0.0
C300 C 0.06151 0.82203 0.59466 0.0
C301 C 0.04258 0.80138 0.58511 0.0
C302 C 0.04458 0.79465 0.56704 0.0
C303 C 0.08365 0.82899 0.56837 0.0
C304 C 0.08173 0.83543 0.58611 0.0
C305 C 0.10319 0.85799 0.59438 0.0
H306 H 0.20752 0.95436 0.58329 0.0
C307 C 0.10684 0.84702 0.56346 0.0
C308 C 0.11841 0.86397 0.57873 0.0
H309 H 0.17018 0.93946 0.63139 0.0
H310 H 0.14076 0.9004 0.6167 0.0
H311 H 0.20122 0.90223 0.57597 0.0
H312 H 0.16376 0.93495 0.554 0.0
H313 H 0.16886 0.91983 0.53574 0.0
H314 H 0.19302 0.94386 0.54983 0.0
H315 H 0.21081 0.92058 0.55724 0.0
H316 H 0.19084 0.88827 0.55367 0.0
C317 C 0.11338 0.85141 0.61103 0.0
C318 C 0.09658 0.87762 0.59893 0.0
C319 C 0.12971 0.84289 0.49901 0.0
C320 C 0.1501 0.85746 0.49071 0.0
C321 C 0.16922 0.87661 0.50149 0.0
C322 C 0.16783 0.88183 0.51988 0.0
C323 C 0.14713 0.86778 0.52777 0.0
C324 C 0.12867 0.84832 0.51754 0.0
C325 C 0.10848 0.83485 0.52865 0.0
C326 C 0.11781 0.84979 0.54705 0.0
C327 C 0.14035 0.86923 0.5463 0.0
C328 C 0.10414 0.80875 0.52962 0.0
C329 C 0.08761 0.83613 0.5199 0.0
C330 C 0.193 0.94261 0.59065 0.0
C331 C 0.19092 0.95005 0.60838 0.0
C332 C 0.17211 0.93408 0.6177 0.0
C333 C 0.15497 0.91153 0.60908 0.0
C334 C 0.15668 0.90488 0.59096 0.0
C335 C 0.17582 0.92006 0.58226 0.0
C336 C 0.17508 0.90994 0.5632 0.0
C337 C 0.15188 0.88656 0.56161 0.0
C338 C 0.1411 0.88378 0.57782 0.0
C339 C 0.19557 0.9051 0.56231 0.0
C340 C 0.17532 0.92802 0.54988 0.0
H341 H 0.06542 0.80226 0.54488 0.0
H342 H 0.06051 0.82798 0.60845 0.0
H343 H 0.08379 0.8767 0.58816 0.0
H344 H 0.11134 0.89629 0.59946 0.0
H345 H 0.08868 0.87507 0.61209 0.0
H346 H 0.11048 0.8327 0.60869 0.0
H347 H 0.10518 0.85225 0.62355 0.0
H348 H 0.13236 0.86315 0.61365 0.0
H349 H 0.11472 0.82794 0.49122 0.0
H350 H 0.18542 0.88765 0.49573 0.0
H351 H 0.18292 0.89681 0.52718 0.0
H352 H 0.12068 0.80855 0.52989 0.0
H353 H 0.09275 0.79657 0.5176 0.0
H354 H 0.09658 0.80084 0.54222 0.0
H355 H 0.09332 0.85448 0.5154 0.0
H356 H 0.07449 0.83315 0.52945 0.0
H357 H 0.07913 0.82276 0.50775 0.0
H358 H 0.03041 0.77867 0.55942 0.0
C359 C 0.06499 0.8083 0.55864 0.0
C360 C 0.90607 0.51687 0.73119 0.0
C361 C 0.91102 0.53947 0.73949 0.0
C362 C 0.92388 0.54794 0.75668 0.0
C363 C 0.92522 0.51074 0.75758 0.0
C364 C 0.91344 0.50295 0.74037 0.0
C365 C 0.90967 0.47856 0.73342 0.0
H366 H 0.91383 0.37765 0.75 0.0
C367 C 0.92925 0.49139 0.76375 0.0
C368 C 0.92035 0.47258 0.74955 0.0
H369 H 0.88943 0.39297 0.69978 0.0
H370 H 0.9005 0.43314 0.71318 0.0
H371 H 0.96039 0.42959 0.75708 0.0
H372 H 0.89308 0.40018 0.77663 0.0
H373 H 0.91305 0.41796 0.79519 0.0
H374 H 0.91386 0.39216 0.78486 0.0
H375 H 0.95096 0.40834 0.77405 0.0
H376 H 0.96496 0.44062 0.78013 0.0
C377 C 0.92311 0.48171 0.71633 0.0
C378 C 0.88325 0.46081 0.72993 0.0
C379 C 0.96407 0.49842 0.82859 0.0
C380 C 0.96809 0.48234 0.83843 0.0
C381 C 0.96245 0.45967 0.82956 0.0
C382 C 0.95317 0.45315 0.81136 0.0
C383 C 0.94912 0.46927 0.80178 0.0
C384 C 0.95454 0.49148 0.81035 0.0
C385 C 0.94847 0.50593 0.79799 0.0
C386 C 0.93865 0.48871 0.78064 0.0
C387 C 0.93909 0.46729 0.78302 0.0
C388 C 0.97101 0.5296 0.79518 0.0
C389 C 0.92992 0.50995 0.80665 0.0
C390 C 0.91084 0.38967 0.74191 0.0
C391 C 0.90054 0.38212 0.7239 0.0
C392 C 0.89739 0.39844 0.71368 0.0
C393 C 0.90371 0.42168 0.72152 0.0
C394 C 0.91339 0.42871 0.73976 0.0
C395 C 0.91722 0.41295 0.74948 0.0
C396 C 0.92828 0.42364 0.76847 0.0
C397 C 0.93028 0.44838 0.76864 0.0
C398 C 0.92127 0.45115 0.7519 0.0
C399 C 0.95235 0.42557 0.77022 0.0
C400 C 0.91142 0.4077 0.78211 0.0
H401 H 0.94042 0.54093 0.77895 0.0
H402 H 0.89662 0.51016 0.71782 0.0
H403 H 0.87411 0.46328 0.7413 0.0
H404 H 0.87854 0.44158 0.7292 0.0
H405 H 0.87611 0.46402 0.71711 0.0
H406 H 0.93856 0.5002 0.7169 0.0
H407 H 0.91206 0.47897 0.70363 0.0
H408 H 0.93016 0.46932 0.71521 0.0
H409 H 0.96826 0.51601 0.83488 0.0
H410 H 0.96472 0.44659 0.8368 0.0
H411 H 0.94921 0.43561 0.80555 0.0
H412 H 0.98593 0.52644 0.79495 0.0
H413 H 0.97527 0.54396 0.80635 0.0
H414 H 0.97019 0.53658 0.78194 0.0
H415 H 0.91715 0.4933 0.8126 0.0
H416 H 0.91955 0.51382 0.79671 0.0
H417 H 0.93796 0.52494 0.81778 0.0
H418 H 0.9279 0.56533 0.7633 0.0
C419 C 0.93097 0.53368 0.76578 0.0
C420 C 0.60757 0.5172 0.74338 0.0
C421 C 0.62471 0.53977 0.75203 0.0
C422 C 0.62039 0.54859 0.76844 0.0
C423 C 0.5822 0.51274 0.76701 0.0
C424 C 0.58658 0.50418 0.75098 0.0
C425 C 0.56665 0.48009 0.7432 0.0
H426 H 0.4572 0.38937 0.74732 0.0
C427 C 0.55852 0.49478 0.77102 0.0
C428 C 0.54932 0.47574 0.757 0.0
H429 H 0.50634 0.39384 0.70947 0.0
H430 H 0.53445 0.43301 0.72388 0.0
H431 H 0.49054 0.40239 0.78015 0.0
H432 H 0.47132 0.44721 0.75138 0.0
H433 H 0.47126 0.45347 0.77499 0.0
H434 H 0.45247 0.42316 0.76439 0.0
H435 H 0.46601 0.40493 0.78556 0.0
H436 H 0.49462 0.42527 0.79667 0.0
C437 C 0.57471 0.46111 0.74313 0.0
C438 C 0.55813 0.48327 0.72414 0.0
C439 C 0.5274 0.50491 0.83033 0.0
C440 C 0.50686 0.48967 0.83807 0.0
C441 C 0.48906 0.46911 0.82754 0.0
C442 C 0.49199 0.46316 0.80972 0.0
C443 C 0.51313 0.47767 0.80249 0.0
C444 C 0.53026 0.49845 0.81257 0.0
C445 C 0.55182 0.51112 0.80275 0.0
C446 C 0.54508 0.49394 0.78555 0.0
C447 C 0.52237 0.47446 0.78549 0.0
C448 C 0.57219 0.51232 0.81468 0.0
C449 C 0.55537 0.53618 0.79851 0.0
C450 C 0.47399 0.39853 0.74208 0.0
C451 C 0.47917 0.38813 0.72698 0.0
C452 C 0.50136 0.40131 0.72071 0.0
C453 C 0.51793 0.42408 0.72928 0.0
C454 C 0.51257 0.4338 0.74457 0.0
C455 C 0.49099 0.42095 0.75082 0.0
C456 C 0.48909 0.43292 0.76827 0.0
C457 C 0.51296 0.45543 0.77117 0.0
C458 C 0.52648 0.45597 0.75713 0.0
C459 C 0.4847 0.41558 0.78349 0.0
C460 C 0.46995 0.43948 0.76474 0.0
H461 H 0.59687 0.5429 0.78841 0.0
H462 H 0.61046 0.50964 0.73096 0.0
H463 H 0.55784 0.50055 0.7244 0.0
H464 H 0.54028 0.46892 0.71947 0.0
H465 H 0.56976 0.48379 0.71375 0.0
H466 H 0.58909 0.46631 0.7539 0.0
H467 H 0.581 0.45925 0.72983 0.0
H468 H 0.56096 0.44306 0.74628 0.0
H469 H 0.54139 0.52069 0.8383 0.0
H470 H 0.4731 0.45724 0.83334 0.0
H471 H 0.47794 0.44708 0.80249 0.0
H472 H 0.56648 0.49505 0.82105 0.0
H473 H 0.57894 0.52724 0.82582 0.0
H474 H 0.58663 0.51468 0.80683 0.0
H475 H 0.53847 0.53524 0.79546 0.0
H476 H 0.56465 0.54273 0.78625 0.0
H477 H 0.56481 0.54997 0.8103 0.0
H478 H 0.63325 0.566 0.77531 0.0
C479 C 0.5992 0.53522 0.77595 0.0
C480 C 0.60539 0.08573 0.74599 0.0
C481 C 0.62238 0.08097 0.75329 0.0
C482 C 0.61786 0.06736 0.76855 0.0
C483 C 0.58022 0.06422 0.76914 0.0
C484 C 0.58467 0.07733 0.75409 0.0
C485 C 0.56526 0.08147 0.74803 0.0
H486 H 0.45994 0.06704 0.75949 0.0
C487 C 0.55702 0.05846 0.77422 0.0
C488 C 0.54823 0.06849 0.76182 0.0
H489 H 0.50728 0.10719 0.72003 0.0
H490 H 0.53408 0.09551 0.73162 0.0
H491 H 0.46797 0.02071 0.75731 0.0
H492 H 0.49782 0.08717 0.79222 0.0
H493 H 0.49616 0.06511 0.80616 0.0
H494 H 0.46992 0.06187 0.79511 0.0
H495 H 0.45258 0.02657 0.77421 0.0
H496 H 0.47041 0.01354 0.77972 0.0
C497 C 0.55571 0.06904 0.72841 0.0
C498 C 0.57457 0.10922 0.74999 0.0
C499 C 0.52582 0.01577 0.83119 0.0
C500 C 0.50576 0.01035 0.83979 0.0
C501 C 0.48858 0.01376 0.83094 0.0
C502 C 0.4917 0.02343 0.81408 0.0
C503 C 0.51239 0.03015 0.80609 0.0
C504 C 0.52885 0.02582 0.81438 0.0
C505 C 0.55002 0.03486 0.80402 0.0
C506 C 0.54374 0.04585 0.78848 0.0
C507 C 0.52169 0.04304 0.78984 0.0
C508 C 0.55206 0.01275 0.79709 0.0
C509 C 0.57119 0.05428 0.81668 0.0
C510 C 0.47611 0.07343 0.75337 0.0
C511 C 0.48126 0.08793 0.73865 0.0
C512 C 0.5025 0.09558 0.73109 0.0
C513 C 0.51824 0.08897 0.73798 0.0
C514 C 0.51295 0.07474 0.75278 0.0
C515 C 0.49221 0.06722 0.76024 0.0
C516 C 0.49004 0.05308 0.77642 0.0
C517 C 0.51285 0.05322 0.7773 0.0
C518 C 0.5261 0.06588 0.7634 0.0
C519 C 0.46909 0.02712 0.77187 0.0
C520 C 0.48822 0.06728 0.79341 0.0
H521 H 0.5945 0.04885 0.78816 0.0
H522 H 0.60802 0.09569 0.73407 0.0
H523 H 0.58882 0.11861 0.76115 0.0
H524 H 0.56139 0.11382 0.75386 0.0
H525 H 0.58148 0.11745 0.73722 0.0
H526 H 0.55569 0.05162 0.72671 0.0
H527 H 0.56647 0.08076 0.71814 0.0
H528 H 0.53752 0.06409 0.725 0.0
H529 H 0.53938 0.01357 0.83788 0.0
H530 H 0.47303 0.00964 0.83742 0.0
H531 H 0.47817 0.02603 0.80822 0.0
H532 H 0.53466 0.99674 0.79288 0.0
H533 H 0.56053 0.00759 0.80792 0.0
H534 H 0.5616 0.01587 0.78482 0.0
H535 H 0.56645 0.06593 0.82502 0.0
H536 H 0.58556 0.06693 0.80915 0.0
H537 H 0.57774 0.0457 0.82621 0.0
H538 H 0.63071 0.06353 0.77452 0.0
C539 C 0.59687 0.05894 0.7765 0.0
C540 C 0.83694 0.57632 0.92303 0.0
C541 C 0.85759 0.58035 0.91603 0.0
C542 C 0.86384 0.59192 0.89982 0.0
C543 C 0.82855 0.59386 0.8974 0.0
C544 C 0.8228 0.58321 0.91356 0.0
C545 C 0.80002 0.57958 0.91894 0.0
H546 H 0.70083 0.57975 0.89761 0.0
C547 C 0.8094 0.59739 0.89047 0.0
C548 C 0.7927 0.58916 0.90303 0.0
H549 H 0.72301 0.56081 0.94725 0.0
H550 H 0.75948 0.57171 0.93594 0.0
H551 H 0.75145 0.63006 0.89559 0.0
H552 H 0.7224 0.55743 0.86937 0.0
H553 H 0.73544 0.57845 0.85321 0.0
H554 H 0.71116 0.57687 0.86383 0.0
H555 H 0.72756 0.61749 0.87826 0.0
H556 H 0.75708 0.63174 0.8725 0.0
C557 C 0.80458 0.59531 0.93716 0.0
C558 C 0.78352 0.552 0.91976 0.0
C559 C 0.81233 0.6296 0.82895 0.0
C560 C 0.79658 0.63267 0.81766 0.0
C561 C 0.77524 0.62751 0.82411 0.0
C562 C 0.76959 0.6189 0.84136 0.0
C563 C 0.7854 0.61536 0.85224 0.0
C564 C 0.80637 0.62079 0.84591 0.0
C565 C 0.82088 0.61525 0.85877 0.0
C566 C 0.80539 0.60589 0.87408 0.0
C567 C 0.78459 0.60597 0.8703 0.0
C568 C 0.84361 0.63925 0.86505 0.0
C569 C 0.82433 0.59531 0.84893 0.0
C570 C 0.71363 0.57812 0.90606 0.0
C571 C 0.70869 0.56877 0.9232 0.0
C572 C 0.72596 0.56715 0.93379 0.0
C573 C 0.7473 0.5737 0.92725 0.0
C574 C 0.75167 0.5821 0.90992 0.0
C575 C 0.73526 0.58476 0.89974 0.0
C576 C 0.74367 0.59497 0.88189 0.0
C577 C 0.7676 0.5976 0.88305 0.0
C578 C 0.77192 0.58968 0.89943 0.0
C579 C 0.74492 0.61982 0.88187 0.0
C580 C 0.72733 0.57613 0.86614 0.0
H581 H 0.85511 0.60724 0.87817 0.0
H582 H 0.83147 0.56731 0.93535 0.0
H583 H 0.78541 0.54143 0.90814 0.0
H584 H 0.76506 0.54664 0.91859 0.0
H585 H 0.78747 0.54587 0.93258 0.0
H586 H 0.82262 0.61091 0.93912 0.0
H587 H 0.8019 0.58454 0.94906 0.0
H588 H 0.7936 0.60374 0.9376 0.0
H589 H 0.82907 0.63382 0.82468 0.0
H590 H 0.76271 0.6296 0.81568 0.0
H591 H 0.75302 0.61501 0.84545 0.0
H592 H 0.84032 0.65466 0.86673 0.0
H593 H 0.85652 0.64367 0.85491 0.0
H594 H 0.85146 0.63895 0.87853 0.0
H595 H 0.80911 0.58296 0.83916 0.0
H596 H 0.82587 0.5832 0.85833 0.0
H597 H 0.83978 0.6034 0.84109 0.0
H598 H 0.87987 0.59569 0.8943 0.0
C599 C 0.84947 0.59871 0.8905 0.0
C600 C 0.4191 0.14379 0.94145 0.0
C601 C 0.41699 0.12269 0.93256 0.0
C602 C 0.40742 0.11576 0.91425 0.0
C603 C 0.40307 0.15125 0.91382 0.0
C604 C 0.4123 0.15785 0.93182 0.0
C605 C 0.41532 0.18187 0.93885 0.0
H606 H 0.40994 0.28229 0.92308 0.0
C607 C 0.39899 0.17056 0.90754 0.0
C608 C 0.40628 0.18858 0.92216 0.0
H609 H 0.43628 0.26703 0.97238 0.0
H610 H 0.42574 0.22736 0.95855 0.0
H611 H 0.4322 0.26296 0.89663 0.0
H612 H 0.36357 0.22736 0.9142 0.0
H613 H 0.36104 0.21986 0.89056 0.0
H614 H 0.3733 0.25118 0.89926 0.0
H615 H 0.41016 0.26872 0.88759 0.0
H616 H 0.41369 0.24445 0.87763 0.0
C617 C 0.44153 0.1997 0.9441 0.0
C618 C 0.39988 0.17759 0.95475 0.0
C619 C 0.36677 0.16464 0.84203 0.0
C620 C 0.36326 0.18094 0.83217 0.0
C621 C 0.36732 0.20289 0.84119 0.0
C622 C 0.37508 0.20876 0.85976 0.0
C623 C 0.3792 0.19269 0.8694 0.0
C624 C 0.37495 0.17099 0.86059 0.0
C625 C 0.38153 0.15684 0.87286 0.0
C626 C 0.39013 0.1735 0.8905 0.0
C627 C 0.38869 0.19445 0.88835 0.0
C628 C 0.4011 0.15422 0.86463 0.0
C629 C 0.35944 0.13245 0.87502 0.0
C630 C 0.41308 0.27021 0.93096 0.0
C631 C 0.42397 0.27775 0.94883 0.0
C632 C 0.42812 0.26168 0.95854 0.0
C633 C 0.42195 0.23865 0.95047 0.0
C634 C 0.41175 0.23163 0.9324 0.0
C635 C 0.40728 0.24722 0.92301 0.0
C636 C 0.39706 0.237 0.90373 0.0
C637 C 0.39625 0.21276 0.90309 0.0
C638 C 0.40486 0.20975 0.91992 0.0
C639 C 0.41393 0.25411 0.8906 0.0
C640 C 0.3725 0.23376 0.90164 0.0
H641 H 0.39321 0.12366 0.89096 0.0
H642 H 0.42681 0.1498 0.95539 0.0
H643 H 0.38301 0.16044 0.95172 0.0
H644 H 0.39533 0.19187 0.95709 0.0
H645 H 0.40835 0.17617 0.96762 0.0
H646 H 0.45235 0.19516 0.9356 0.0
H647 H 0.44648 0.1991 0.9586 0.0
H648 H 0.44688 0.21862 0.94163 0.0
H649 H 0.36411 0.14784 0.83529 0.0
H650 H 0.3647 0.21564 0.83377 0.0
H651 H 0.378 0.22582 0.86579 0.0
H652 H 0.41215 0.17013 0.85714 0.0
H653 H 0.39391 0.13775 0.85486 0.0
H654 H 0.41324 0.15373 0.87512 0.0
H655 H 0.34454 0.13527 0.87695 0.0
H656 H 0.36111 0.12378 0.8871 0.0
H657 H 0.35476 0.11955 0.86269 0.0
H658 H 0.40561 0.0995 0.90717 0.0
C659 C 0.40027 0.12981 0.90489 0.0
C660 C 0.72951 0.14647 0.93252 0.0
C661 C 0.71147 0.12444 0.9238 0.0
C662 C 0.71424 0.11646 0.90636 0.0
C663 C 0.75215 0.15241 0.90663 0.0
C664 C 0.74956 0.15997 0.92382 0.0
C665 C 0.77012 0.18372 0.9314 0.0
H666 H 0.87193 0.2823 0.91875 0.0
C667 C 0.7749 0.17104 0.90134 0.0
C668 C 0.78552 0.1893 0.91591 0.0
H669 H 0.83417 0.26777 0.96662 0.0
H670 H 0.80584 0.22793 0.95259 0.0
H671 H 0.86834 0.2315 0.91349 0.0
H672 H 0.82773 0.25924 0.88888 0.0
H673 H 0.83368 0.24375 0.87146 0.0
H674 H 0.85728 0.26939 0.88487 0.0
H675 H 0.87733 0.24912 0.89431 0.0
H676 H 0.85893 0.21651 0.89143 0.0
C677 C 0.78101 0.17947 0.94891 0.0
C678 C 0.76192 0.20237 0.93437 0.0
C679 C 0.79986 0.16364 0.83821 0.0
C680 C 0.82014 0.17835 0.82986 0.0
C681 C 0.83804 0.19953 0.83979 0.0
C682 C 0.83577 0.20616 0.85761 0.0
C683 C 0.81537 0.19152 0.86571 0.0
C684 C 0.79795 0.17046 0.85618 0.0
C685 C 0.77792 0.15681 0.86742 0.0
C686 C 0.78618 0.17336 0.88512 0.0
C687 C 0.80801 0.19377 0.88387 0.0
C688 C 0.77559 0.13185 0.87016 0.0
C689 C 0.75614 0.15533 0.85766 0.0
C690 C 0.85752 0.27048 0.92616 0.0
C691 C 0.85504 0.27818 0.94369 0.0
C692 C 0.83639 0.26216 0.95311 0.0
C693 C 0.81991 0.23912 0.94487 0.0
C694 C 0.82214 0.232 0.92706 0.0
C695 C 0.84101 0.24737 0.91819 0.0
C696 C 0.84099 0.23649 0.89959 0.0
C697 C 0.8186 0.21231 0.89852 0.0
C698 C 0.80754 0.20991 0.91454 0.0
C699 C 0.86253 0.23332 0.89953 0.0
C700 C 0.84001 0.25302 0.88535 0.0
H701 H 0.73547 0.12331 0.88448 0.0
H702 H 0.72797 0.15346 0.94577 0.0
H703 H 0.74913 0.19996 0.92299 0.0
H704 H 0.77598 0.22135 0.93456 0.0
H705 H 0.75346 0.20012 0.94725 0.0
H706 H 0.7783 0.16076 0.94814 0.0
H707 H 0.77323 0.18191 0.96121 0.0
H708 H 0.80002 0.19144 0.95093 0.0
H709 H 0.78592 0.14711 0.83098 0.0
H710 H 0.8537 0.2113 0.83361 0.0
H711 H 0.84995 0.22261 0.86431 0.0
H712 H 0.79287 0.13324 0.87133 0.0
H713 H 0.76503 0.11832 0.85848 0.0
H714 H 0.76806 0.12467 0.88295 0.0
H715 H 0.7605 0.17294 0.85231 0.0
H716 H 0.74245 0.15165 0.86678 0.0
H717 H 0.74884 0.14117 0.84593 0.0
H718 H 0.70084 0.0994 0.89938 0.0
C719 C 0.73444 0.13031 0.89774 0.0
C720 C 0.57732 0.85424 0.06192 0.0
C721 C 0.57816 0.87458 0.07107 0.0
C722 C 0.58766 0.88156 0.08939 0.0
C723 C 0.59471 0.8478 0.08927 0.0
C724 C 0.58544 0.84105 0.07128 0.0
C725 C 0.58419 0.81796 0.06395 0.0
H726 H 0.59337 0.71988 0.08016 0.0
C727 C 0.60075 0.82971 0.09518 0.0
C728 C 0.59455 0.81214 0.08038 0.0
H729 H 0.5675 0.73408 0.03016 0.0
H730 H 0.57815 0.77417 0.0434 0.0
H731 H 0.63881 0.77123 0.08655 0.0
H732 H 0.57267 0.7428 0.10804 0.0
H733 H 0.5945 0.75798 0.12622 0.0
H734 H 0.59284 0.7326 0.11301 0.0
H735 H 0.63234 0.75427 0.10613 0.0
H736 H 0.64453 0.7868 0.10828 0.0
C737 C 0.59944 0.82358 0.04779 0.0
C738 C 0.55832 0.79871 0.05895 0.0
C739 C 0.63559 0.83762 0.16013 0.0
C740 C 0.64317 0.82364 0.16921 0.0
C741 C 0.64163 0.80313 0.1596 0.0
C742 C 0.63238 0.79638 0.14137 0.0
C743 C 0.62454 0.81025 0.13255 0.0
C744 C 0.62657 0.83073 0.14179 0.0
C745 C 0.618 0.84363 0.1299 0.0
C746 C 0.61054 0.82749 0.11206 0.0
C747 C 0.6141 0.80779 0.11384 0.0
C748 C 0.63857 0.8693 0.12803 0.0
C749 C 0.59722 0.8434 0.13842 0.0
C750 C 0.59006 0.73171 0.0721 0.0
C751 C 0.57928 0.72379 0.05424 0.0
C752 C 0.57576 0.73983 0.04396 0.0
C753 C 0.58177 0.76298 0.05174 0.0
C754 C 0.59141 0.77016 0.06998 0.0
C755 C 0.59606 0.75489 0.07963 0.0
C756 C 0.60707 0.7658 0.09861 0.0
C757 C 0.6072 0.78967 0.09908 0.0
C758 C 0.59782 0.79202 0.08235 0.0
C759 C 0.63192 0.76964 0.10013 0.0
C760 C 0.59112 0.74898 0.11231 0.0
H761 H 0.60302 0.87456 0.11244 0.0
H762 H 0.56973 0.84821 0.04795 0.0
H763 H 0.54725 0.80077 0.06881 0.0
H764 H 0.55464 0.77992 0.05958 0.0
H765 H 0.55224 0.80057 0.04514 0.0
H766 H 0.61512 0.84192 0.05033 0.0
H767 H 0.58981 0.82317 0.03491 0.0
H768 H 0.60616 0.81103 0.04577 0.0
H769 H 0.63679 0.85363 0.1671 0.0
H770 H 0.64711 0.79193 0.16633 0.0
H771 H 0.63141 0.78041 0.13493 0.0
H772 H 0.65482 0.86875 0.12685 0.0
H773 H 0.64145 0.88195 0.14013 0.0
H774 H 0.63635 0.87709 0.1156 0.0
H775 H 0.58677 0.82624 0.1448 0.0
H776 H 0.58491 0.8441 0.12824 0.0
H777 H 0.60319 0.85866 0.14919 0.0
H778 H 0.58857 0.89725 0.09667 0.0
C779 C 0.59607 0.86838 0.09849 0.0
C780 C 0.26895 0.84884 0.07239 0.0
C781 C 0.28703 0.87063 0.08135 0.0
C782 C 0.28368 0.87911 0.09837 0.0
C783 C 0.24507 0.84394 0.09729 0.0
C784 C 0.24837 0.83586 0.08056 0.0
C785 C 0.22805 0.81198 0.07294 0.0
H786 H 0.12251 0.71663 0.08214 0.0
C787 C 0.2217 0.82586 0.10194 0.0
C788 C 0.21173 0.80716 0.08766 0.0
H789 H 0.16708 0.72613 0.03922 0.0
H790 H 0.19498 0.76608 0.0531 0.0
H791 H 0.16305 0.73824 0.11465 0.0
H792 H 0.12994 0.77043 0.08477 0.0
H793 H 0.13604 0.78381 0.1073 0.0
H794 H 0.11657 0.75152 0.10265 0.0
H795 H 0.13361 0.73064 0.11665 0.0
H796 H 0.15729 0.75571 0.13046 0.0
C797 C 0.23614 0.79303 0.07137 0.0
C798 C 0.21827 0.81575 0.05465 0.0
C799 C 0.19293 0.83607 0.16259 0.0
C800 C 0.17192 0.82211 0.1703 0.0
C801 C 0.15376 0.80166 0.15984 0.0
C802 C 0.15668 0.7947 0.1423 0.0
C803 C 0.17801 0.80826 0.13506 0.0
C804 C 0.19552 0.82893 0.14494 0.0
C805 C 0.21665 0.84155 0.13462 0.0
C806 C 0.20914 0.82459 0.11721 0.0
C807 C 0.18657 0.80498 0.11769 0.0
C808 C 0.23726 0.84228 0.14581 0.0
C809 C 0.22036 0.86682 0.13094 0.0
C810 C 0.13818 0.72751 0.07566 0.0
C811 C 0.1427 0.71829 0.05962 0.0
C812 C 0.16338 0.7328 0.05169 0.0
C813 C 0.17955 0.756 0.05978 0.0
C814 C 0.17516 0.76471 0.07612 0.0
C815 C 0.15469 0.75062 0.08373 0.0
C816 C 0.15342 0.76254 0.10147 0.0
C817 C 0.17663 0.78598 0.10332 0.0
C818 C 0.18919 0.78712 0.08842 0.0
C819 C 0.1516 0.746 0.11669 0.0
C820 C 0.13287 0.76724 0.09911 0.0
H821 H 0.26139 0.87315 0.1194 0.0
H822 H 0.27067 0.84192 0.05918 0.0
H823 H 0.21864 0.83339 0.05561 0.0
H824 H 0.19995 0.80194 0.05083 0.0
H825 H 0.22865 0.81585 0.04336 0.0
H826 H 0.25109 0.7979 0.08149 0.0
H827 H 0.24163 0.79171 0.05761 0.0
H828 H 0.22273 0.7748 0.07447 0.0
H829 H 0.20708 0.8521 0.17018 0.0
H830 H 0.13749 0.7905 0.16548 0.0
H831 H 0.14232 0.77872 0.13521 0.0
H832 H 0.23166 0.82481 0.15186 0.0
H833 H 0.24447 0.85696 0.15716 0.0
H834 H 0.25134 0.8447 0.13747 0.0
H835 H 0.20348 0.86609 0.12826 0.0
H836 H 0.22946 0.87366 0.11865 0.0
H837 H 0.23005 0.88032 0.14284 0.0
H838 H 0.29736 0.89574 0.10568 0.0
C839 C 0.26281 0.8659 0.10637 0.0
C840 C 0.27517 0.42589 0.08024 0.0
C841 C 0.29305 0.42242 0.08751 0.0
C842 C 0.28995 0.41044 0.10356 0.0
C843 C 0.25178 0.40575 0.10465 0.0
C844 C 0.25493 0.41761 0.08903 0.0
C845 C 0.23473 0.42063 0.08324 0.0
H846 H 0.12931 0.40421 0.09771 0.0
C847 C 0.22867 0.39939 0.11023 0.0
C848 C 0.21866 0.40811 0.09774 0.0
H849 H 0.17392 0.44308 0.05641 0.0
H850 H 0.20186 0.43266 0.06746 0.0
H851 H 0.13702 0.35903 0.09488 0.0
H852 H 0.17111 0.42513 0.13068 0.0
H853 H 0.16451 0.40066 0.14381 0.0
H854 H 0.14139 0.40219 0.13153 0.0
H855 H 0.12383 0.36351 0.11416 0.0
H856 H 0.14312 0.35144 0.1162 0.0
C857 C 0.22444 0.40701 0.06403 0.0
C858 C 0.24323 0.44821 0.08434 0.0
C859 C 0.20085 0.35646 0.16746 0.0
C860 C 0.18025 0.34832 0.17596 0.0
C861 C 0.1619 0.35003 0.16729 0.0
C862 C 0.16441 0.36069 0.15081 0.0
C863 C 0.18548 0.36974 0.14291 0.0
C864 C 0.20304 0.36695 0.15097 0.0
C865 C 0.22395 0.377 0.14032 0.0
C866 C 0.21628 0.38688 0.12485 0.0
C867 C 0.19383 0.38282 0.12656 0.0
C868 C 0.22733 0.35572 0.13344 0.0
C869 C 0.2448 0.39743 0.15268 0.0
C870 C 0.14517 0.4106 0.09113 0.0
C871 C 0.14925 0.42438 0.07605 0.0
C872 C 0.17004 0.43206 0.0678 0.0
C873 C 0.18643 0.42618 0.07436 0.0
C874 C 0.18223 0.41264 0.08949 0.0
C875 C 0.16188 0.40503 0.09763 0.0
C876 C 0.16073 0.39116 0.11381 0.0
C877 C 0.18386 0.39202 0.1141 0.0
C878 C 0.19628 0.40459 0.0998 0.0
C879 C 0.14005 0.36494 0.10974 0.0
C880 C 0.15921 0.40529 0.13093 0.0
H881 H 0.26816 0.39316 0.12431 0.0
H882 H 0.2767 0.43468 0.06782 0.0
H883 H 0.25843 0.45869 0.0946 0.0
H884 H 0.23012 0.45252 0.08896 0.0
H885 H 0.24851 0.45558 0.07101 0.0
H886 H 0.22459 0.38964 0.06288 0.0
H887 H 0.23464 0.41805 0.05324 0.0
H888 H 0.20613 0.40178 0.06096 0.0
H889 H 0.21513 0.35508 0.1737 0.0
H890 H 0.14591 0.34402 0.17363 0.0
H891 H 0.15001 0.36194 0.14508 0.0
H892 H 0.21035 0.33884 0.1299 0.0
H893 H 0.23718 0.35187 0.14404 0.0
H894 H 0.2361 0.35892 0.12076 0.0
H895 H 0.23926 0.40813 0.1613 0.0
H896 H 0.25833 0.41082 0.14489 0.0
H897 H 0.2527 0.38984 0.16195 0.0
H898 H 0.30353 0.40782 0.10965 0.0
C899 C 0.26942 0.40205 0.11212 0.0
C900 C 0.50481 0.90805 0.25124 0.0
C901 C 0.52561 0.91314 0.24401 0.0
C902 C 0.53241 0.92722 0.22901 0.0
C903 C 0.49754 0.93002 0.22842 0.0
C904 C 0.49109 0.91647 0.24323 0.0
C905 C 0.46812 0.91171 0.24895 0.0
H906 H 0.37122 0.91808 0.23323 0.0
C907 C 0.47894 0.93522 0.22307 0.0
C908 C 0.46168 0.92448 0.23504 0.0
H909 H 0.389 0.8859 0.27689 0.0
H910 H 0.42605 0.89877 0.26578 0.0
H911 H 0.42153 0.96755 0.23691 0.0
H912 H 0.39244 0.9013 0.20149 0.0
H913 H 0.40752 0.9256 0.18825 0.0
H914 H 0.38313 0.92307 0.19931 0.0
H915 H 0.39984 0.96023 0.21846 0.0
H916 H 0.43024 0.97543 0.21505 0.0
C917 C 0.47198 0.92384 0.26862 0.0
C918 C 0.45136 0.88387 0.24675 0.0
C919 C 0.48447 0.98111 0.16769 0.0
C920 C 0.46892 0.98646 0.15837 0.0
C921 C 0.44783 0.98042 0.1656 0.0
C922 C 0.44205 0.96871 0.18165 0.0
C923 C 0.45741 0.96268 0.19046 0.0
C924 C 0.47832 0.96911 0.18356 0.0
C925 C 0.49202 0.96028 0.1942 0.0
C926 C 0.47599 0.94767 0.20873 0.0
C927 C 0.45573 0.94911 0.20647 0.0
C928 C 0.515 0.98265 0.20249 0.0
C929 C 0.49507 0.94224 0.18131 0.0
C930 C 0.38316 0.91396 0.24047 0.0
C931 C 0.37692 0.90056 0.25582 0.0
C932 C 0.39304 0.8956 0.26477 0.0
C933 C 0.41469 0.90327 0.25838 0.0
C934 C 0.42046 0.91612 0.24283 0.0
C935 C 0.405 0.92162 0.23429 0.0
C936 C 0.41452 0.936 0.21821 0.0
C937 C 0.43811 0.93792 0.21845 0.0
C938 C 0.44129 0.926 0.23278 0.0
C939 C 0.41656 0.9611 0.22216 0.0
C940 C 0.39861 0.92094 0.20084 0.0
H941 H 0.52455 0.9462 0.20976 0.0
H942 H 0.49923 0.89772 0.26297 0.0
H943 H 0.45445 0.8754 0.23443 0.0
H944 H 0.43297 0.8787 0.24465 0.0
H945 H 0.45382 0.87529 0.25873 0.0
H946 H 0.48953 0.94017 0.2713 0.0
H947 H 0.47035 0.91117 0.27895 0.0
H948 H 0.45998 0.93067 0.27107 0.0
H949 H 0.50058 0.98504 0.16224 0.0
H950 H 0.43561 0.9844 0.15862 0.0
H951 H 0.42562 0.9643 0.18634 0.0
H952 H 0.51202 0.99752 0.20754 0.0
H953 H 0.52773 0.98975 0.19214 0.0
H954 H 0.52291 0.97888 0.21446 0.0
H955 H 0.4799 0.93209 0.17099 0.0
H956 H 0.49606 0.92802 0.18852 0.0
H957 H 0.5107 0.95187 0.17383 0.0
H958 H 0.54827 0.93129 0.22307 0.0
C959 C 0.51853 0.93574 0.22122 0.0
C960 C 0.08993 0.47643 0.27076 0.0
C961 C 0.08849 0.45597 0.26135 0.0
C962 C 0.07975 0.44997 0.24283 0.0
C963 C 0.07428 0.48481 0.24341 0.0
C964 C 0.08295 0.49061 0.26155 0.0
C965 C 0.085 0.51387 0.26934 0.0
H966 H 0.074 0.61173 0.25714 0.0
C967 C 0.06902 0.50363 0.23792 0.0
C968 C 0.07527 0.52064 0.25311 0.0
H969 H 0.10571 0.59825 0.30423 0.0
H970 H 0.09514 0.55868 0.28997 0.0
H971 H 0.09598 0.59245 0.22819 0.0
H972 H 0.02961 0.55921 0.24961 0.0
H973 H 0.02442 0.54604 0.22708 0.0
H974 H 0.03573 0.57831 0.23131 0.0
H975 H 0.07462 0.60112 0.22358 0.0
H976 H 0.07476 0.57719 0.20974 0.0
C977 C 0.11104 0.53245 0.27468 0.0
C978 C 0.06956 0.50822 0.28537 0.0
C979 C 0.03869 0.50175 0.17249 0.0
C980 C 0.03214 0.51695 0.16397 0.0
C981 C 0.03144 0.53542 0.17482 0.0
C982 C 0.03841 0.53968 0.19348 0.0
C983 C 0.04623 0.52538 0.20156 0.0
C984 C 0.04552 0.50622 0.19131 0.0
C985 C 0.05326 0.4922 0.20272 0.0
C986 C 0.05957 0.50678 0.22124 0.0
C987 C 0.05573 0.52641 0.22029 0.0
C988 C 0.07463 0.49318 0.19478 0.0
C989 C 0.03244 0.46625 0.20306 0.0
C990 C 0.07831 0.60003 0.26446 0.0
C991 C 0.09063 0.60795 0.28179 0.0
C992 C 0.09633 0.59249 0.2908 0.0
C993 C 0.09024 0.56959 0.28247 0.0
C994 C 0.07871 0.56228 0.2648 0.0
C995 C 0.07279 0.57735 0.25616 0.0
C996 C 0.06177 0.56726 0.23706 0.0
C997 C 0.06241 0.5438 0.23554 0.0
C998 C 0.0722 0.54094 0.25184 0.0
C999 C 0.07738 0.58536 0.22383 0.0
C1000 C 0.03663 0.56256 0.23605 0.0
H1001 H 0.06605 0.4588 0.21973 0.0
H1002 H 0.09712 0.48181 0.28486 0.0
H1003 H 0.05261 0.49134 0.28173 0.0
H1004 H 0.06535 0.52251 0.2889 0.0
H1005 H 0.07795 0.50553 0.29773 0.0
H1006 H 0.12243 0.52798 0.26689 0.0
H1007 H 0.11583 0.5329 0.28941 0.0
H1008 H 0.11588 0.55101 0.2714 0.0
H1009 H 0.03918 0.4872 0.16465 0.0
H1010 H 0.02564 0.54681 0.16883 0.0
H1011 H 0.03782 0.55428 0.20083 0.0
H1012 H 0.08635 0.51153 0.19051 0.0
H1013 H 0.06937 0.47988 0.18263 0.0
H1014 H 0.08537 0.48986 0.20478 0.0
H1015 H 0.01598 0.46655 0.20341 0.0
H1016 H 0.03347 0.45758 0.21535 0.0
H1017 H 0.03074 0.45448 0.19073 0.0
H1018 H 0.07853 0.43426 0.23533 0.0
C1019 C 0.07248 0.46419 0.23384 0.0
C1020 C 0.39801 0.48296 0.2653 0.0
C1021 C 0.38112 0.45949 0.25792 0.0
C1022 C 0.38486 0.44992 0.24155 0.0
C1023 C 0.42136 0.48715 0.24013 0.0
C1024 C 0.41789 0.49625 0.25635 0.0
C1025 C 0.43743 0.52127 0.26268 0.0
H1026 H 0.54013 0.6183 0.24896 0.0
C1027 C 0.44364 0.50593 0.23423 0.0
C1028 C 0.45319 0.52584 0.24755 0.0
H1029 H 0.49821 0.6095 0.29369 0.0
H1030 H 0.47004 0.56905 0.28075 0.0
H1031 H 0.53249 0.56277 0.24589 0.0
H1032 H 0.50056 0.59819 0.21919 0.0
H1033 H 0.49831 0.57615 0.20269 0.0
H1034 H 0.52658 0.6002 0.21201 0.0
H1035 H 0.54637 0.58552 0.23041 0.0
H1036 H 0.52865 0.55387 0.22235 0.0
C1037 C 0.44873 0.52008 0.28122 0.0
C1038 C 0.42767 0.53879 0.26329 0.0
C1039 C 0.4689 0.49485 0.17209 0.0
C1040 C 0.48758 0.51062 0.16264 0.0
C1041 C 0.50491 0.53292 0.17156 0.0
C1042 C 0.5034 0.53987 0.18951 0.0
C1043 C 0.48414 0.52454 0.19858 0.0
C1044 C 0.46743 0.50227 0.19002 0.0
C1045 C 0.44785 0.48887 0.20173 0.0
C1046 C 0.45533 0.50707 0.21842 0.0
C1047 C 0.47664 0.52786 0.21645 0.0
C1048 C 0.44751 0.46535 0.20637 0.0
C1049 C 0.42519 0.48458 0.19138 0.0
C1050 C 0.52503 0.60747 0.25607 0.0
C1051 C 0.52138 0.61697 0.27239 0.0
C1052 C 0.50128 0.60256 0.28104 0.0
C1053 C 0.485 0.57906 0.27353 0.0
C1054 C 0.48871 0.5699 0.25706 0.0
C1055 C 0.50846 0.58406 0.24862 0.0
C1056 C 0.50894 0.57183 0.23077 0.0
C1057 C 0.48643 0.54778 0.23007 0.0
C1058 C 0.47473 0.54676 0.24551 0.0
C1059 C 0.53027 0.56837 0.23224 0.0
C1060 C 0.50874 0.58732 0.21529 0.0
H1061 H 0.40664 0.45536 0.22023 0.0
H1062 H 0.39573 0.49117 0.27766 0.0
H1063 H 0.41345 0.53314 0.25228 0.0
H1064 H 0.44061 0.55751 0.26085 0.0
H1065 H 0.42056 0.53909 0.27651 0.0
H1066 H 0.44862 0.50262 0.28157 0.0
H1067 H 0.43925 0.52149 0.29271 0.0
H1068 H 0.46717 0.5342 0.28382 0.0
H1069 H 0.45527 0.47771 0.16538 0.0
H1070 H 0.51941 0.54524 0.16444 0.0
H1071 H 0.51701 0.55723 0.19545 0.0
H1072 H 0.46538 0.4683 0.2081 0.0
H1073 H 0.43762 0.45048 0.19534 0.0
H1074 H 0.44027 0.45918 0.21945 0.0
H1075 H 0.42822 0.50102 0.18473 0.0
H1076 H 0.41139 0.48094 0.20038 0.0
H1077 H 0.41855 0.46928 0.18056 0.0
H1078 H 0.37241 0.43176 0.23566 0.0
C1079 C 0.40485 0.4636 0.23264 0.0
Tb1080 Tb 0.52349 0.01826 0.9988 0.0
C1081 C 0.51182 0.96611 0.01038 0.0
Tb1082 Tb 0.47264 0.97946 0.0037 0.0
O1083 O 0.52687 0.03772 0.02546 0.0
O1084 O 0.50392 0.0006 0.02017 0.0
O1085 O 0.52634 0.98585 0.00265 0.0
C1086 C 0.43197 0.9568 0.01778 0.0
O1087 O 0.491 0.96179 0.01436 0.0
C1088 C 0.48582 0.98002 0.97067 0.0
C1089 C 0.48475 0.03241 0.993 0.0
O1090 O 0.43929 0.94677 0.00608 0.0
O1091 O 0.4474 0.97955 0.02132 0.0
O1092 O 0.46866 0.96092 0.97637 0.0
O1093 O 0.49202 0.99738 0.98252 0.0
O1094 O 0.46967 0.01178 0.99953 0.0
O1095 O 0.50618 0.03774 0.99002 0.0
C1096 C 0.56335 0.04012 0.98351 0.0
O1097 O 0.56019 0.0463 0.99975 0.0
O1098 O 0.54419 0.02176 0.97605 0.0
C1099 C 0.51 0.01859 0.03146 0.0
Tb1100 Tb 0.98021 0.50662 0.99554 0.0
C1101 C 0.02994 0.54683 0.01069 0.0
Tb1102 Tb 0.01472 0.49077 0.00725 0.0
O1103 O 0.98042 0.51898 0.02381 0.0
O1104 O 0.98568 0.48985 0.0178 0.0
O1105 O 0.01131 0.54193 0.99994 0.0
C1106 C 0.04494 0.48092 0.02408 0.0
O1107 O 0.03368 0.5296 0.0165 0.0
C1108 C 0.00931 0.49337 0.97223 0.0
C1109 C 0.96467 0.45048 0.99234 0.0
O1110 O 0.02672 0.47915 0.03089 0.0
O1111 O 0.04619 0.48843 0.00798 0.0
O1112 O 0.01444 0.4782 0.97913 0.0
O1113 O 0.00929 0.5075 0.98486 0.0
O1114 O 0.98359 0.45527 0.00268 0.0
O1115 O 0.96079 0.46774 0.98687 0.0
C1116 C 0.95093 0.51683 0.97754 0.0
O1117 O 0.96728 0.51473 0.97058 0.0
O1118 O 0.95087 0.51292 0.99462 0.0
C1119 C 0.98562 0.50375 0.03053 0.0
Tb1120 Tb 0.47346 0.49538 0.00363 0.0
C1121 C 0.48194 0.45117 0.99321 0.0
Tb1122 Tb 0.52252 0.50558 0.99723 0.0
O1123 O 0.46904 0.50662 0.97674 0.0
O1124 O 0.49071 0.49246 0.98148 0.0
O1125 O 0.46795 0.4584 0.99973 0.0
C1126 C 0.56174 0.52021 0.98149 0.0
O1127 O 0.50323 0.46669 0.98919 0.0
C1128 C 0.51096 0.49837 0.03077 0.0
C1129 C 0.51413 0.5497 0.00771 0.0
O1130 O 0.55644 0.5085 0.99598 0.0
O1131 O 0.54504 0.52377 0.97597 0.0
O1132 O 0.52673 0.49451 0.02441 0.0
O1133 O 0.5052 0.50854 0.01925 0.0
O1134 O 0.52778 0.54256 0.00038 0.0
O1135 O 0.49323 0.53404 0.01239 0.0
C1136 C 0.43467 0.4798 0.02002 0.0
O1137 O 0.44004 0.49324 0.00644 0.0
O1138 O 0.45099 0.47511 0.0242 0.0
C1139 C 0.48476 0.50281 0.9702 0.0
Tb1140 Tb 0.19307 0.35322 0.33292 0.0
C1141 C 0.18136 0.30091 0.34418 0.0
Tb1142 Tb 0.14232 0.31469 0.33831 0.0
O1143 O 0.1971 0.37253 0.35985 0.0
O1144 O 0.17387 0.33563 0.35449 0.0
O1145 O 0.19613 0.32115 0.33714 0.0
C1146 C 0.10219 0.29272 0.35323 0.0
O1147 O 0.16031 0.29613 0.34791 0.0
C1148 C 0.15465 0.3142 0.30518 0.0
C1149 C 0.15416 0.36695 0.32639 0.0
O1150 O 0.10868 0.28253 0.34097 0.0
O1151 O 0.11816 0.31526 0.35691 0.0
O1152 O 0.13735 0.29554 0.31119 0.0
O1153 O 0.16144 0.33203 0.31676 0.0
O1154 O 0.13936 0.34688 0.33369 0.0
O1155 O 0.17532 0.37179 0.32301 0.0
C1156 C 0.23329 0.37465 0.31806 0.0
O1157 O 0.22866 0.38344 0.33253 0.0
O1158 O 0.21541 0.35391 0.31214 0.0
C1159 C 0.18025 0.35351 0.36593 0.0
Tb1160 Tb 0.64987 0.84346 0.32649 0.0
C1161 C 0.7007 0.88306 0.34267 0.0
Tb1162 Tb 0.68707 0.82762 0.33729 0.0
O1163 O 0.6477 0.85189 0.35516 0.0
O1164 O 0.65749 0.8265 0.3476 0.0
O1165 O 0.68135 0.87841 0.33297 0.0
C1166 C 0.71269 0.81294 0.35533 0.0
O1167 O 0.70566 0.86608 0.34698 0.0
C1168 C 0.68701 0.83871 0.30307 0.0
C1169 C 0.63679 0.78833 0.32017 0.0
O1170 O 0.70766 0.82889 0.36192 0.0
O1171 O 0.70331 0.80537 0.33869 0.0
O1172 O 0.70064 0.8315 0.30988 0.0
O1173 O 0.6764 0.84036 0.31595 0.0
O1174 O 0.65534 0.79277 0.33097 0.0
O1175 O 0.63257 0.80559 0.31516 0.0
C1176 C 0.62331 0.85651 0.30799 0.0
O1177 O 0.61597 0.83962 0.31916 0.0
O1178 O 0.64546 0.86596 0.30732 0.0
C1179 C 0.65583 0.83849 0.36099 0.0
Tb1180 Tb 0.13798 0.82229 0.3365 0.0
C1181 C 0.14983 0.78234 0.32285 0.0
Tb1182 Tb 0.18961 0.83776 0.32742 0.0
O1183 O 0.12585 0.82516 0.30834 0.0
O1184 O 0.15874 0.83268 0.31529 0.0
O1185 O 0.1363 0.78749 0.33248 0.0
C1186 C 0.2275 0.84906 0.31079 0.0
O1187 O 0.1701 0.79915 0.31778 0.0
C1188 C 0.18167 0.83572 0.36188 0.0
C1189 C 0.17703 0.87775 0.33962 0.0
O1190 O 0.21932 0.83323 0.32275 0.0
O1191 O 0.21438 0.85845 0.30828 0.0
O1192 O 0.20204 0.84907 0.3563 0.0
O1193 O 0.16774 0.82259 0.34847 0.0
O1194 O 0.1909 0.8726 0.33046 0.0
O1195 O 0.15681 0.86105 0.34472 0.0
C1196 C 0.10094 0.8086 0.35482 0.0
O1197 O 0.12185 0.82537 0.36075 0.0
O1198 O 0.10085 0.79976 0.3385 0.0
C1199 C 0.14565 0.83125 0.30203 0.0
Tb1200 Tb 0.85857 0.68478 0.66361 0.0
C1201 C 0.85079 0.63844 0.68209 0.0
Tb1202 Tb 0.80979 0.6495 0.67449 0.0
O1203 O 0.87053 0.69837 0.69237 0.0
O1204 O 0.83639 0.68516 0.68288 0.0
O1205 O 0.8632 0.6547 0.67078 0.0
C1206 C 0.77271 0.62434 0.69255 0.0
O1207 O 0.83021 0.63455 0.68637 0.0
C1208 C 0.81697 0.6418 0.64085 0.0
C1209 C 0.81708 0.69462 0.65439 0.0
O1210 O 0.77328 0.62232 0.67503 0.0
O1211 O 0.79312 0.64034 0.69999 0.0
O1212 O 0.79671 0.63548 0.64617 0.0
O1213 O 0.83155 0.64934 0.65464 0.0
O1214 O 0.80454 0.67872 0.66587 0.0
O1215 O 0.83794 0.69879 0.65074 0.0
C1216 C 0.89629 0.71158 0.64649 0.0
O1217 O 0.89594 0.70936 0.66386 0.0
O1218 O 0.87535 0.69894 0.63875 0.0
C1219 C 0.85015 0.69265 0.69705 0.0
Tb1220 Tb 0.31249 0.1758 0.66549 0.0
C1221 C 0.36482 0.21797 0.67696 0.0
Tb1222 Tb 0.35206 0.16262 0.67307 0.0
O1223 O 0.29897 0.16229 0.69161 0.0
O1224 O 0.33371 0.17585 0.68773 0.0
O1225 O 0.34305 0.21181 0.67176 0.0
C1226 C 0.37962 0.14953 0.68993 0.0
O1227 O 0.37192 0.20204 0.67919 0.0
C1228 C 0.34336 0.16448 0.63801 0.0
C1229 C 0.30025 0.12142 0.66003 0.0
O1230 O 0.38485 0.16314 0.67649 0.0
O1231 O 0.35885 0.14338 0.69404 0.0
O1232 O 0.35926 0.16002 0.64428 0.0
O1233 O 0.33416 0.16738 0.65153 0.0
O1234 O 0.32014 0.12708 0.66945 0.0
O1235 O 0.29498 0.1379 0.65494 0.0
C1236 C 0.28848 0.19401 0.64963 0.0
O1237 O 0.2841 0.18374 0.66481 0.0
O1238 O 0.30627 0.19399 0.6435 0.0
C1239 C 0.31865 0.16529 0.69856 0.0
Tb1240 Tb 0.80399 0.15501 0.67078 0.0
C1241 C 0.81561 0.11354 0.65942 0.0
Tb1242 Tb 0.85586 0.1693 0.66396 0.0
O1243 O 0.79886 0.16629 0.64395 0.0
O1244 O 0.82342 0.15609 0.64888 0.0
O1245 O 0.8002 0.11925 0.66511 0.0
C1246 C 0.89395 0.18269 0.64702 0.0
O1247 O 0.83734 0.12995 0.6568 0.0
C1248 C 0.84806 0.16636 0.69886 0.0
C1249 C 0.84397 0.20946 0.6772 0.0
O1250 O 0.88576 0.16578 0.65814 0.0
O1251 O 0.88074 0.19217 0.64551 0.0
O1252 O 0.86797 0.17153 0.69316 0.0
O1253 O 0.83515 0.1636 0.685 0.0
O1254 O 0.85734 0.20439 0.66726 0.0
O1255 O 0.82417 0.19241 0.68267 0.0
C1256 C 0.76451 0.13739 0.68651 0.0
O1257 O 0.77207 0.15503 0.67603 0.0
O1258 O 0.77902 0.12957 0.68792 0.0
C1259 C 0.8163 0.16548 0.63764 0.0
H1260 H 0.3149 0.92003 0.08077 0.0
H1261 H 0.40031 0.90838 0.01424 0.0
H1262 H 0.30984 0.85197 0.06263 0.0
H1263 H 0.41481 0.97648 0.04173 0.0
H1264 H 0.36532 0.88756 0.03019 0.0
H1265 H 0.35035 0.94135 0.06541 0.0
C1266 C 0.3213 0.90956 0.0737 0.0
C1267 C 0.3092 0.88412 0.0729 0.0
C1268 C 0.37613 0.90706 0.03274 0.0
C1269 C 0.34954 0.9084 0.05503 0.0
C1270 C 0.39603 0.91893 0.02358 0.0
C1271 C 0.41036 0.94413 0.02669 0.0
C1272 C 0.37049 0.92054 0.04501 0.0
C1273 C 0.40413 0.95699 0.03896 0.0
C1274 C 0.34146 0.92175 0.06484 0.0
C1275 C 0.31823 0.87155 0.06331 0.0
N1276 N 0.38462 0.94506 0.04767 0.0
N1277 N 0.33774 0.88379 0.05471 0.0
H1278 H 0.12288 0.43798 0.09551 0.0
H1279 H 0.07928 0.47799 0.00843 0.0
H1280 H 0.13693 0.42647 0.04048 0.0
H1281 H 0.04597 0.46672 0.05839 0.0
H1282 H 0.10393 0.46346 0.02139 0.0
H1283 H 0.09697 0.45169 0.08339 0.0
C1284 C 0.12037 0.43809 0.08089 0.0
C1285 C 0.1323 0.43124 0.06901 0.0
C1286 C 0.09124 0.46414 0.02954 0.0
C1287 C 0.10313 0.44739 0.05517 0.0
C1288 C 0.07727 0.47256 0.02219 0.0
C1289 C 0.0606 0.47347 0.03238 0.0
C1290 C 0.08867 0.45677 0.04728 0.0
C1291 C 0.05865 0.46622 0.05012 0.0
C1292 C 0.1057 0.44606 0.07402 0.0
C1293 C 0.12856 0.43208 0.05021 0.0
N1294 N 0.0726 0.45818 0.05707 0.0
N1295 N 0.11446 0.44017 0.0439 0.0
H1296 H 0.55263 0.68324 0.07088 0.0
H1297 H 0.55159 0.5888 0.99554 0.0
H1298 H 0.5849 0.70652 0.02105 0.0
H1299 H 0.49823 0.57001 0.03231 0.0
H1300 H 0.56777 0.63179 0.00622 0.0
H1301 H 0.53663 0.64105 0.05876 0.0
C1302 C 0.55648 0.67941 0.05742 0.0
C1303 C 0.57015 0.69831 0.04695 0.0
C1304 C 0.55244 0.61818 0.01181 0.0
C1305 C 0.55187 0.65013 0.03299 0.0
C1306 C 0.54324 0.5937 0.00578 0.0
C1307 C 0.52354 0.57579 0.01304 0.0
C1308 C 0.54209 0.62465 0.02542 0.0
C1309 C 0.51337 0.58315 0.02625 0.0
C1310 C 0.5472 0.65537 0.05046 0.0
C1311 C 0.57436 0.69239 0.02949 0.0
N1312 N 0.52289 0.60696 0.03212 0.0
N1313 N 0.56536 0.66874 0.02306 0.0
H1314 H 0.87774 0.29344 0.97806 0.0
H1315 H 0.9302 0.43377 0.96463 0.0
H1316 H 0.86865 0.31986 0.92744 0.0
H1317 H 0.96011 0.40912 0.00568 0.0
H1318 H 0.90314 0.39168 0.95336 0.0
H1319 H 0.90406 0.33553 0.99082 0.0
C1320 C 0.88128 0.30812 0.96968 0.0
C1321 C 0.87117 0.30327 0.95167 0.0
C1322 C 0.9156 0.39548 0.96486 0.0
C1323 C 0.90085 0.35113 0.96613 0.0
C1324 C 0.93097 0.41951 0.97139 0.0
C1325 C 0.94748 0.42498 0.98611 0.0
C1326 C 0.91651 0.37673 0.97323 0.0
C1327 C 0.94773 0.40571 0.99423 0.0
C1328 C 0.89631 0.33204 0.97691 0.0
C1329 C 0.87633 0.32285 0.94132 0.0
N1330 N 0.93241 0.38238 0.9877 0.0
N1331 N 0.89071 0.34593 0.94873 0.0
H1332 H 0.68407 0.52912 0.94183 0.0
H1333 H 0.57673 0.54903 0.95348 0.0
H1334 H 0.68079 0.58911 0.92051 0.0
H1335 H 0.59473 0.50793 0.98861 0.0
H1336 H 0.61193 0.56049 0.93809 0.0
H1337 H 0.64814 0.51733 0.95563 0.0
C1338 C 0.67586 0.53991 0.9401 0.0
C1339 C 0.68575 0.56044 0.93024 0.0
C1340 C 0.60817 0.54902 0.94919 0.0
C1341 C 0.64421 0.54665 0.94579 0.0
C1342 C 0.58813 0.54246 0.95795 0.0
C1343 C 0.58296 0.52759 0.97234 0.0
C1344 C 0.62287 0.54031 0.95474 0.0
C1345 C 0.59818 0.5195 0.97761 0.0
C1346 C 0.65527 0.53309 0.94794 0.0
C1347 C 0.67381 0.57316 0.92796 0.0
N1348 N 0.61741 0.52588 0.96875 0.0
N1349 N 0.65367 0.5661 0.93574 0.0
H1350 H 0.40859 0.10618 0.96643 0.0
H1351 H 0.50362 0.06574 0.9682 0.0
H1352 H 0.44656 0.1085 0.92039 0.0
H1353 H 0.44604 0.03423 0.00128 0.0
H1354 H 0.48699 0.08792 0.95394 0.0
H1355 H 0.42571 0.08523 0.98242 0.0
C1356 C 0.42048 0.1022 0.9597 0.0
C1357 C 0.4261 0.1089 0.94205 0.0
C1358 C 0.47808 0.07625 0.9644 0.0
C1359 C 0.44598 0.08552 0.9603 0.0
C1360 C 0.48765 0.06375 0.97269 0.0
C1361 C 0.47618 0.04805 0.98597 0.0
C1362 C 0.45704 0.07336 0.96957 0.0
C1363 C 0.45541 0.04606 0.99106 0.0
C1364 C 0.43018 0.09026 0.96879 0.0
C1365 C 0.44158 0.10337 0.9339 0.0
N1366 N 0.44649 0.05861 0.98287 0.0
N1367 N 0.45113 0.09217 0.94315 0.0
H1368 H 0.70662 0.11821 0.96027 0.0
H1369 H 0.56926 0.03315 0.94796 0.0
H1370 H 0.66666 0.09843 0.90789 0.0
H1371 H 0.60668 0.07365 0.99899 0.0
H1372 H 0.6054 0.05259 0.93328 0.0
H1373 H 0.6707 0.09756 0.97491 0.0
C1374 C 0.69034 0.10961 0.95181 0.0
C1375 C 0.68977 0.11033 0.93276 0.0
C1376 C 0.60571 0.05724 0.94768 0.0
C1377 C 0.64853 0.0862 0.94953 0.0
C1378 C 0.58514 0.04613 0.95607 0.0
C1379 C 0.58508 0.05189 0.97468 0.0
C1380 C 0.62641 0.07399 0.95805 0.0
C1381 C 0.60604 0.06882 0.98458 0.0
C1382 C 0.66983 0.09774 0.96021 0.0
C1383 C 0.66807 0.0982 0.92256 0.0
N1384 N 0.62594 0.07922 0.97615 0.0
N1385 N 0.64833 0.08666 0.93107 0.0
H1386 H 0.86748 0.5814 0.9528 0.0
H1387 H 0.94817 0.52322 0.94145 0.0
H1388 H 0.88051 0.55946 0.90037 0.0
H1389 H 0.92101 0.52881 0.99212 0.0
H1390 H 0.92559 0.53893 0.92624 0.0
H1391 H 0.88948 0.56499 0.96766 0.0
C1392 C 0.87491 0.57308 0.9444 0.0
C1393 C 0.87205 0.57175 0.92528 0.0
C1394 C 0.92448 0.5366 0.94066 0.0
C1395 C 0.89749 0.55317 0.94225 0.0
C1396 C 0.93733 0.52764 0.94932 0.0
C1397 C 0.93636 0.52475 0.96802 0.0
C1398 C 0.91081 0.54293 0.95085 0.0
C1399 C 0.92214 0.53074 0.97765 0.0
C1400 C 0.88751 0.56377 0.9529 0.0
C1401 C 0.8825 0.5612 0.91513 0.0
N1402 N 0.90999 0.5397 0.96897 0.0
N1403 N 0.89475 0.55231 0.92374 0.0
H1404 H 0.46623 0.30978 0.96658 0.0
H1405 H 0.43657 0.41461 0.98873 0.0
H1406 H 0.40025 0.30251 0.94944 0.0
H1407 H 0.50634 0.42806 0.98684 0.0
H1408 H 0.42185 0.37173 0.9791 0.0
H1409 H 0.48003 0.35155 0.97891 0.0
C1410 C 0.45458 0.31692 0.96559 0.0
C1411 C 0.43207 0.30271 0.95699 0.0
C1412 C 0.44037 0.3841 0.98086 0.0
C1413 C 0.44774 0.35043 0.97102 0.0
C1414 C 0.4488 0.40853 0.98645 0.0
C1415 C 0.47273 0.42497 0.98851 0.0
C1416 C 0.45599 0.376 0.9776 0.0
C1417 C 0.48776 0.41607 0.9853 0.0
C1418 C 0.46251 0.34078 0.97251 0.0
C1419 C 0.41778 0.31295 0.95585 0.0
N1420 N 0.47914 0.39219 0.98003 0.0
N1421 N 0.42584 0.3362 0.96284 0.0
H1422 H 0.15282 0.68339 0.04872 0.0
H1423 H 0.02355 0.58584 0.00992 0.0
H1424 H 0.09568 0.6963 0.0524 0.0
H1425 H 0.07467 0.56615 0.02561 0.0
H1426 H 0.05115 0.6279 0.02125 0.0
H1427 H 0.12564 0.6417 0.03601 0.0
C1428 C 0.13455 0.67746 0.04672 0.0
C1429 C 0.12643 0.69324 0.05158 0.0
C1430 C 0.0563 0.61436 0.02218 0.0
C1431 C 0.09534 0.64573 0.03708 0.0
C1432 C 0.04063 0.59038 0.01563 0.0
C1433 C 0.04682 0.57245 0.01683 0.0
C1434 C 0.07844 0.62053 0.02975 0.0
C1435 C 0.06914 0.57937 0.02447 0.0
C1436 C 0.11907 0.65367 0.03959 0.0
C1437 C 0.10258 0.68461 0.04892 0.0
N1438 N 0.08419 0.60291 0.03059 0.0
N1439 N 0.08785 0.66143 0.04176 0.0
H1440 H 0.31945 0.40077 0.08355 0.0
H1441 H 0.40209 0.49355 0.01648 0.0
H1442 H 0.31602 0.46404 0.07025 0.0
H1443 H 0.41984 0.44731 0.04546 0.0
H1444 H 0.36772 0.47988 0.03337 0.0
H1445 H 0.35415 0.41492 0.0673 0.0
C1446 C 0.32605 0.41772 0.07738 0.0
C1447 C 0.31466 0.43116 0.07825 0.0
C1448 C 0.37917 0.47276 0.03602 0.0
C1449 C 0.35408 0.44711 0.05927 0.0
C1450 C 0.39867 0.48047 0.02635 0.0
C1451 C 0.41369 0.47149 0.02963 0.0
C1452 C 0.37462 0.45577 0.04884 0.0
C1453 C 0.40862 0.45464 0.04257 0.0
C1454 C 0.34579 0.4257 0.06801 0.0
C1455 C 0.32388 0.45278 0.06965 0.0
N1456 N 0.38943 0.44723 0.05167 0.0
N1457 N 0.34295 0.46001 0.06044 0.0
H1458 H 0.54813 0.88779 0.08384 0.0
H1459 H 0.5496 0.96321 0.00099 0.0
H1460 H 0.58547 0.89114 0.03715 0.0
H1461 H 0.49417 0.93409 0.03625 0.0
H1462 H 0.56558 0.94019 0.01521 0.0
H1463 H 0.53111 0.90877 0.06808 0.0
C1464 C 0.55285 0.89311 0.07031 0.0
C1465 C 0.56826 0.88781 0.06179 0.0
C1466 C 0.54981 0.93872 0.01968 0.0
C1467 C 0.54885 0.91174 0.04367 0.0
C1468 C 0.54069 0.95184 0.0116 0.0
C1469 C 0.52051 0.95058 0.01743 0.0
C1470 C 0.53891 0.92463 0.03392 0.0
C1471 C 0.50969 0.93555 0.03123 0.0
C1472 C 0.543 0.90488 0.06127 0.0
C1473 C 0.57357 0.89482 0.04414 0.0
N1474 N 0.51916 0.92338 0.03913 0.0
N1475 N 0.564 0.90659 0.03569 0.0
H1476 H 0.97899 0.18556 0.39723 0.0
H1477 H 0.08647 0.31288 0.37815 0.0
H1478 H 0.9857 0.25426 0.4158 0.0
H1479 H 0.06956 0.24461 0.34944 0.0
H1480 H 0.05144 0.29186 0.39409 0.0
H1481 H 0.01408 0.20701 0.38181 0.0
C1482 C 0.98775 0.20517 0.398 0.0
C1483 C 0.97915 0.21808 0.40769 0.0
C1484 C 0.05535 0.28149 0.38426 0.0
C1485 C 0.01973 0.24284 0.39023 0.0
C1486 C 0.0753 0.29346 0.37516 0.0
C1487 C 0.08079 0.28041 0.36244 0.0
C1488 C 0.04094 0.25627 0.38071 0.0
C1489 C 0.06587 0.25532 0.35911 0.0
C1490 C 0.00788 0.21742 0.38923 0.0
C1491 C 0.99172 0.24354 0.40861 0.0
N1492 N 0.04665 0.24404 0.36824 0.0
N1493 N 0.01136 0.25508 0.39996 0.0
H1494 H 0.8042 0.75736 0.37769 0.0
H1495 H 0.73241 0.82577 0.39062 0.0
H1496 H 0.80198 0.78981 0.42986 0.0
H1497 H 0.72672 0.78269 0.34141 0.0
H1498 H 0.75838 0.81365 0.40538 0.0
H1499 H 0.7764 0.7675 0.36413 0.0
C1500 C 0.79788 0.76669 0.38628 0.0
C1501 C 0.80549 0.77288 0.4049 0.0
C1502 C 0.75135 0.80678 0.39139 0.0
C1503 C 0.77355 0.78448 0.38949 0.0
C1504 C 0.73659 0.81371 0.38298 0.0
C1505 C 0.72756 0.80526 0.36479 0.0
C1506 C 0.75716 0.79146 0.38144 0.0
C1507 C 0.73339 0.78964 0.35546 0.0
C1508 C 0.7819 0.77236 0.37856 0.0
C1509 C 0.79644 0.7846 0.41546 0.0
N1510 N 0.74791 0.78334 0.36386 0.0
N1511 N 0.78104 0.79017 0.40759 0.0
H1512 H 0.20973 0.00818 0.405 0.0
H1513 H 0.21168 0.9185 0.32667 0.0
H1514 H 0.24305 0.03373 0.35589 0.0
H1515 H 0.16104 0.89547 0.36614 0.0
H1516 H 0.22615 0.96078 0.33821 0.0
H1517 H 0.19484 0.96646 0.39223 0.0
C1518 C 0.21403 0.00496 0.39156 0.0
C1519 C 0.22769 0.02436 0.38149 0.0
C1520 C 0.21177 0.94642 0.34421 0.0
C1521 C 0.21062 0.97671 0.36675 0.0
C1522 C 0.20353 0.92232 0.33767 0.0
C1523 C 0.18509 0.90342 0.34543 0.0
C1524 C 0.20173 0.95157 0.35878 0.0
C1525 C 0.17517 0.90942 0.35964 0.0
C1526 C 0.20538 0.98117 0.38422 0.0
C1527 C 0.23247 0.01921 0.36403 0.0
N1528 N 0.18373 0.93295 0.36594 0.0
N1529 N 0.22404 0.99582 0.35722 0.0
H1530 H 0.51224 0.6523 0.28431 0.0
H1531 H 0.64327 0.74923 0.31918 0.0
H1532 H 0.56853 0.63864 0.27782 0.0
H1533 H 0.59176 0.76935 0.3062 0.0
H1534 H 0.61511 0.70725 0.30795 0.0
H1535 H 0.54027 0.69406 0.29639 0.0
C1536 C 0.5305 0.65809 0.28555 0.0
C1537 C 0.53813 0.64207 0.28008 0.0
C1538 C 0.61001 0.72089 0.30757 0.0
C1539 C 0.57019 0.68965 0.29386 0.0
C1540 C 0.62602 0.74482 0.31404 0.0
C1541 C 0.61986 0.76284 0.31361 0.0
C1542 C 0.58758 0.71485 0.30087 0.0
C1543 C 0.59729 0.75608 0.3067 0.0
C1544 C 0.54647 0.68191 0.29232 0.0
C1545 C 0.56199 0.65051 0.28178 0.0
N1546 N 0.58193 0.73259 0.30068 0.0
N1547 N 0.57719 0.67372 0.28861 0.0
H1548 H 0.34922 0.85705 0.26937 0.0
H1549 H 0.24775 0.88469 0.28811 0.0
H1550 H 0.35179 0.92388 0.25773 0.0
H1551 H 0.25505 0.8288 0.3127 0.0
H1552 H 0.28343 0.89656 0.27355 0.0
H1553 H 0.31228 0.84378 0.28207 0.0
C1554 C 0.34209 0.86901 0.26954 0.0
C1555 C 0.35381 0.89177 0.26263 0.0
C1556 C 0.27723 0.8817 0.28212 0.0
C1557 C 0.31126 0.87641 0.27688 0.0
C1558 C 0.25688 0.87489 0.29039 0.0
C1559 C 0.24861 0.85584 0.30166 0.0
C1560 C 0.28925 0.8692 0.28502 0.0
C1561 C 0.26097 0.84367 0.30415 0.0
C1562 C 0.32093 0.86133 0.27672 0.0
C1563 C 0.34335 0.90613 0.26277 0.0
N1564 N 0.28071 0.85055 0.29588 0.0
N1565 N 0.32269 0.89823 0.26983 0.0
H1566 H 0.1183 0.44191 0.2494 0.0
H1567 H 0.11545 0.36888 0.33435 0.0
H1568 H 0.07889 0.43838 0.29473 0.0
H1569 H 0.17231 0.39871 0.30046 0.0
H1570 H 0.09892 0.39044 0.31863 0.0
H1571 H 0.13485 0.42115 0.26612 0.0
C1572 C 0.11295 0.43649 0.26279 0.0
C1573 C 0.09723 0.44181 0.27072 0.0
C1574 C 0.11511 0.39238 0.31479 0.0
C1575 C 0.11613 0.41826 0.28994 0.0
C1576 C 0.12457 0.38014 0.32375 0.0
C1577 C 0.14531 0.38202 0.31874 0.0
C1578 C 0.12626 0.40619 0.3005 0.0
C1579 C 0.15637 0.39683 0.30488 0.0
C1580 C 0.12256 0.42489 0.27239 0.0
C1581 C 0.09108 0.43469 0.28821 0.0
N1582 N 0.14658 0.40812 0.29612 0.0
N1583 N 0.10048 0.42318 0.29723 0.0
H1584 H 0.37617 0.45845 0.29476 0.0
H1585 H 0.24098 0.36233 0.28434 0.0
H1586 H 0.33678 0.42832 0.24229 0.0
H1587 H 0.27496 0.41348 0.3318 0.0
H1588 H 0.27715 0.38197 0.26968 0.0
H1589 H 0.34035 0.43769 0.30951 0.0
C1590 C 0.36004 0.44757 0.28629 0.0
C1591 C 0.3596 0.44543 0.26716 0.0
C1592 C 0.27669 0.38889 0.2833 0.0
C1593 C 0.31852 0.42111 0.28413 0.0
C1594 C 0.25611 0.37767 0.29168 0.0
C1595 C 0.25508 0.38637 0.30928 0.0
C1596 C 0.29644 0.40871 0.2927 0.0
C1597 C 0.27509 0.40631 0.31819 0.0
C1598 C 0.3396 0.43564 0.29477 0.0
C1599 C 0.33812 0.4304 0.25704 0.0
N1600 N 0.29504 0.41676 0.30983 0.0
N1601 N 0.31847 0.41883 0.26565 0.0
H1602 H 0.51085 0.86869 0.25679 0.0
H1603 H 0.63799 0.89388 0.28661 0.0
H1604 H 0.57302 0.9358 0.24972 0.0
H1605 H 0.5763 0.83649 0.30589 0.0
H1606 H 0.61429 0.90706 0.26989 0.0
H1607 H 0.53448 0.85423 0.27176 0.0
C1608 C 0.52947 0.88045 0.25843 0.0
C1609 C 0.53994 0.90364 0.25214 0.0
C1610 C 0.60593 0.89158 0.27777 0.0
C1611 C 0.5671 0.88695 0.26902 0.0
C1612 C 0.61942 0.88404 0.28729 0.0
C1613 C 0.60902 0.86416 0.29768 0.0
C1614 C 0.58185 0.87902 0.27856 0.0
C1615 C 0.58494 0.85197 0.29807 0.0
C1616 C 0.54294 0.87211 0.26691 0.0
C1617 C 0.56419 0.91775 0.25422 0.0
N1618 N 0.57212 0.8596 0.28862 0.0
N1619 N 0.57695 0.90921 0.26253 0.0
H1620 H 0.06546 0.6306 0.2857 0.0
H1621 H 0.17518 0.76177 0.31163 0.0
H1622 H 0.13443 0.642 0.29551 0.0
H1623 H 0.10587 0.74406 0.32222 0.0
H1624 H 0.16077 0.71868 0.30296 0.0
H1625 H 0.08009 0.67309 0.29659 0.0
C1626 C 0.08365 0.64207 0.29028 0.0
C1627 C 0.09878 0.63289 0.28979 0.0
C1628 C 0.1488 0.72429 0.30728 0.0
C1629 C 0.11567 0.6814 0.30196 0.0
C1630 C 0.15697 0.74885 0.31213 0.0
C1631 C 0.14171 0.75651 0.31767 0.0
C1632 C 0.12517 0.70741 0.30769 0.0
C1633 C 0.11829 0.73898 0.31812 0.0
C1634 C 0.09198 0.66624 0.29651 0.0
C1635 C 0.1222 0.6484 0.29587 0.0
N1636 N 0.11071 0.71528 0.31308 0.0
N1637 N 0.13001 0.67202 0.30155 0.0
H1638 H 0.82233 0.01912 0.38362 0.0
H1639 H 0.69294 0.92131 0.34503 0.0
H1640 H 0.76468 0.03081 0.38915 0.0
H1641 H 0.74601 0.90286 0.35632 0.0
H1642 H 0.71996 0.96292 0.35773 0.0
H1643 H 0.79544 0.97775 0.37024 0.0
C1644 C 0.80399 0.01298 0.38192 0.0
C1645 C 0.79568 0.02838 0.38743 0.0
C1646 C 0.72567 0.94975 0.3574 0.0
C1647 C 0.76487 0.98113 0.37215 0.0
C1648 C 0.71032 0.92602 0.35005 0.0
C1649 C 0.71723 0.90854 0.34958 0.0
C1650 C 0.74818 0.95615 0.36414 0.0
C1651 C 0.73991 0.91569 0.35644 0.0
C1652 C 0.78867 0.98935 0.37439 0.0
C1653 C 0.77175 0.01943 0.38516 0.0
N1654 N 0.75461 0.93898 0.36338 0.0
N1655 N 0.75717 0.99641 0.37758 0.0
H1656 H 0.00777 0.78012 0.43925 0.0
H1657 H 0.0561 0.77626 0.34282 0.0
H1658 H 0.96418 0.74677 0.38891 0.0
H1659 H 0.09964 0.82167 0.39042 0.0
H1660 H 0.02236 0.76216 0.3603 0.0
H1661 H 0.04191 0.79213 0.42242 0.0
C1662 C 0.0054 0.77514 0.42469 0.0
C1663 C 0.98316 0.76255 0.41542 0.0
C1664 C 0.03928 0.77523 0.36693 0.0
C1665 C 0.02201 0.77631 0.39612 0.0
C1666 C 0.05851 0.78326 0.35697 0.0
C1667 C 0.08056 0.80022 0.36521 0.0
C1668 C 0.04218 0.78412 0.38531 0.0
C1669 C 0.08283 0.80868 0.38357 0.0
C1670 C 0.02486 0.78214 0.41508 0.0
C1671 C 0.98104 0.75674 0.39653 0.0
N1672 N 0.06384 0.80051 0.39305 0.0
N1673 N 0.00022 0.76367 0.3875 0.0
H1674 H 0.26559 0.25269 0.39921 0.0
H1675 H 0.15606 0.25469 0.35414 0.0
H1676 H 0.19956 0.18751 0.38558 0.0
H1677 H 0.22625 0.31122 0.34921 0.0
H1678 H 0.17105 0.23044 0.36755 0.0
H1679 H 0.25086 0.27558 0.38313 0.0
C1680 C 0.24799 0.24325 0.39285 0.0
C1681 C 0.23374 0.21823 0.39369 0.0
C1682 C 0.18313 0.24807 0.36337 0.0
C1683 C 0.21681 0.24416 0.37539 0.0
C1684 C 0.1746 0.26192 0.35574 0.0
C1685 C 0.18992 0.28504 0.35059 0.0
C1686 C 0.20714 0.25759 0.36615 0.0
C1687 C 0.21378 0.29348 0.35294 0.0
C1688 C 0.23966 0.25624 0.38359 0.0
C1689 C 0.21113 0.20677 0.38511 0.0
N1690 N 0.22167 0.27986 0.36074 0.0
N1691 N 0.20328 0.21986 0.37642 0.0
H1692 H 0.63058 0.54613 0.71599 0.0
H1693 H 0.76875 0.62693 0.72932 0.0
H1694 H 0.66905 0.56573 0.76896 0.0
H1695 H 0.72892 0.59387 0.67746 0.0
H1696 H 0.73279 0.60732 0.7445 0.0
H1697 H 0.66682 0.56676 0.70197 0.0
C1698 C 0.64669 0.55472 0.72469 0.0
C1699 C 0.64677 0.55391 0.74367 0.0
C1700 C 0.73198 0.60432 0.72981 0.0
C1701 C 0.6885 0.57789 0.72766 0.0
C1702 C 0.75244 0.61545 0.72117 0.0
C1703 C 0.75168 0.61192 0.70215 0.0
C1704 C 0.71074 0.5898 0.71926 0.0
C1705 C 0.73022 0.597 0.69217 0.0
C1706 C 0.66741 0.56658 0.71667 0.0
C1707 C 0.66819 0.56597 0.75428 0.0
N1708 N 0.71061 0.58657 0.70084 0.0
N1709 N 0.68825 0.57741 0.74611 0.0
H1710 H 0.47194 0.09363 0.70312 0.0
H1711 H 0.37457 0.12688 0.72124 0.0
H1712 H 0.45323 0.09972 0.75757 0.0
H1713 H 0.41779 0.15205 0.67683 0.0
H1714 H 0.39875 0.11097 0.73354 0.0
H1715 H 0.44722 0.10889 0.69177 0.0
C1716 C 0.46275 0.09825 0.71274 0.0
C1717 C 0.46498 0.09562 0.73141 0.0
C1718 C 0.40292 0.12007 0.72115 0.0
C1719 C 0.43613 0.11255 0.71832 0.0
C1720 C 0.38917 0.12908 0.71414 0.0
C1721 C 0.3943 0.14077 0.69805 0.0
C1722 C 0.42152 0.12239 0.71174 0.0
C1723 C 0.41334 0.14322 0.68932 0.0
C1724 C 0.44855 0.10686 0.7062 0.0
C1725 C 0.45195 0.1012 0.74306 0.0
N1726 N 0.42617 0.13392 0.6962 0.0
N1727 N 0.43806 0.1094 0.73631 0.0
H1728 H 0.90726 0.36668 0.69045 0.0
H1729 H 0.82804 0.22632 0.70436 0.0
H1730 H 0.87493 0.34039 0.73978 0.0
H1731 H 0.87803 0.25091 0.66439 0.0
H1732 H 0.8416 0.26836 0.71511 0.0
H1733 H 0.89338 0.32459 0.67834 0.0
C1734 C 0.89719 0.35204 0.69867 0.0
C1735 C 0.8923 0.35696 0.71616 0.0
C1736 C 0.84962 0.26459 0.70398 0.0
C1737 C 0.87634 0.30904 0.70243 0.0
C1738 C 0.84181 0.24056 0.69775 0.0
C1739 C 0.85193 0.23504 0.68344 0.0
C1740 C 0.86754 0.28338 0.69575 0.0
C1741 C 0.86981 0.25433 0.67552 0.0
C1742 C 0.8894 0.32811 0.69182 0.0
C1743 C 0.8793 0.3374 0.72632 0.0
N1744 N 0.87702 0.2777 0.68174 0.0
N1745 N 0.8717 0.31432 0.71929 0.0
H1746 H 0.20466 0.9918 0.59233 0.0
H1747 H 0.29776 0.0805 0.67277 0.0
H1748 H 0.21414 0.96518 0.64273 0.0
H1749 H 0.26532 0.10373 0.63268 0.0
H1750 H 0.27095 0.03817 0.6608 0.0
H1751 H 0.23112 0.03324 0.60554 0.0
C1752 C 0.21248 0.99472 0.60616 0.0
C1753 C 0.20731 0.97509 0.61644 0.0
C1754 C 0.2697 0.05261 0.65476 0.0
C1755 C 0.23756 0.02248 0.63169 0.0
C1756 C 0.285 0.07672 0.66152 0.0
C1757 C 0.28376 0.09569 0.65374 0.0
C1758 C 0.25342 0.04756 0.63992 0.0
C1759 C 0.26686 0.08975 0.63921 0.0
C1760 C 0.22743 0.01836 0.61374 0.0
C1761 C 0.21765 0.97989 0.6344 0.0
N1762 N 0.25251 0.06626 0.6327 0.0
N1763 N 0.23246 0.00316 0.64146 0.0
H1764 H 0.01738 0.26065 0.59103 0.0
H1765 H 0.9207 0.1617 0.64717 0.0
H1766 H 0.01534 0.19466 0.60438 0.0
H1767 H 0.91473 0.21987 0.62538 0.0
H1768 H 0.95592 0.17416 0.63189 0.0
H1769 H 0.97997 0.24647 0.60342 0.0
C1770 C 0.00898 0.24309 0.59639 0.0
C1771 C 0.01967 0.22895 0.59684 0.0
C1772 C 0.9469 0.18418 0.63037 0.0
C1773 C 0.97705 0.2128 0.61126 0.0
C1774 C 0.92684 0.1771 0.63913 0.0
C1775 C 0.91494 0.18987 0.63757 0.0
C1776 C 0.95522 0.2043 0.62007 0.0
C1777 C 0.92352 0.20962 0.62695 0.0
C1778 C 0.98768 0.23507 0.60354 0.0
C1779 C 0.00805 0.20644 0.60411 0.0
N1780 N 0.94325 0.21634 0.61866 0.0
N1781 N 0.98749 0.19916 0.61113 0.0
H1782 H 0.74391 0.76994 0.62526 0.0
H1783 H 0.83178 0.7198 0.62449 0.0
H1784 H 0.78049 0.77008 0.57877 0.0
H1785 H 0.78061 0.70028 0.66332 0.0
H1786 H 0.81537 0.74134 0.60896 0.0
H1787 H 0.75908 0.74703 0.64072 0.0
C1788 C 0.75508 0.76508 0.6183 0.0
C1789 C 0.76096 0.77188 0.60071 0.0
C1790 C 0.80772 0.73234 0.62087 0.0
C1791 C 0.77846 0.74591 0.61832 0.0
C1792 C 0.81718 0.72017 0.62984 0.0
C1793 C 0.80761 0.7083 0.64529 0.0
C1794 C 0.78869 0.73289 0.62749 0.0
C1795 C 0.78852 0.70918 0.65145 0.0
C1796 C 0.76365 0.75195 0.62709 0.0
C1797 C 0.77535 0.76498 0.59225 0.0
N1798 N 0.77975 0.72138 0.64258 0.0
N1799 N 0.78375 0.75253 0.60119 0.0
H1800 H 0.03804 0.78986 0.62051 0.0
H1801 H 0.89938 0.71695 0.61 0.0
H1802 H 0.99757 0.78048 0.56998 0.0
H1803 H 0.94092 0.73634 0.66148 0.0
H1804 H 0.9349 0.7383 0.59459 0.0
H1805 H 0.00239 0.76825 0.63527 0.0
C1806 C 0.02166 0.78334 0.61251 0.0
C1807 C 0.02087 0.78718 0.59397 0.0
C1808 C 0.93623 0.73794 0.60926 0.0
C1809 C 0.97981 0.76208 0.61081 0.0
C1810 C 0.91599 0.72581 0.61805 0.0
C1811 C 0.91732 0.725 0.63702 0.0
C1812 C 0.95787 0.74918 0.61956 0.0
C1813 C 0.93919 0.73661 0.64683 0.0
C1814 C 0.00127 0.7709 0.62095 0.0
C1815 C 0.99905 0.77778 0.58424 0.0
N1816 N 0.9586 0.74818 0.63798 0.0
N1817 N 0.97939 0.76571 0.59279 0.0
H1818 H 0.20221 0.2559 0.62464 0.0
H1819 H 0.29307 0.21019 0.61591 0.0
H1820 H 0.22548 0.24526 0.57322 0.0
H1821 H 0.25471 0.20113 0.66288 0.0
H1822 H 0.27173 0.22741 0.60098 0.0
H1823 H 0.22471 0.24027 0.63982 0.0
C1824 C 0.21199 0.25024 0.6165 0.0
C1825 C 0.21174 0.25174 0.59754 0.0
C1826 C 0.26796 0.22165 0.61455 0.0
C1827 C 0.23788 0.23418 0.61498 0.0
C1828 C 0.28015 0.21187 0.62307 0.0
C1829 C 0.27556 0.20424 0.64061 0.0
C1830 C 0.25125 0.22404 0.62372 0.0
C1831 C 0.25867 0.20677 0.64931 0.0
C1832 C 0.2249 0.2414 0.62522 0.0
C1833 C 0.22528 0.2447 0.58786 0.0
N1834 N 0.24714 0.21654 0.64079 0.0
N1835 N 0.23776 0.23619 0.59668 0.0
H1836 H 0.73317 0.96377 0.61634 0.0
H1837 H 0.84167 0.09217 0.65267 0.0
H1838 H 0.80064 0.97341 0.63126 0.0
H1839 H 0.77096 0.07574 0.6547 0.0
H1840 H 0.82745 0.04936 0.64323 0.0
H1841 H 0.74708 0.00553 0.6288 0.0
C1842 C 0.75088 0.97468 0.62234 0.0
C1843 C 0.76579 0.9652 0.6228 0.0
C1844 C 0.8151 0.05516 0.64587 0.0
C1845 C 0.78189 0.01295 0.63689 0.0
C1846 C 0.82318 0.07959 0.65119 0.0
C1847 C 0.80749 0.08761 0.65443 0.0
C1848 C 0.79116 0.03871 0.64353 0.0
C1849 C 0.78372 0.07044 0.65237 0.0
C1850 C 0.75879 0.99845 0.62949 0.0
C1851 C 0.78855 0.98001 0.63079 0.0
N1852 N 0.77629 0.04686 0.64691 0.0
N1853 N 0.79599 0.00326 0.63737 0.0
H1854 H 0.4737 0.36916 0.69114 0.0
H1855 H 0.35588 0.24999 0.69519 0.0
H1856 H 0.44504 0.34978 0.74299 0.0
H1857 H 0.41094 0.2441 0.67203 0.0
H1858 H 0.3838 0.29211 0.70668 0.0
H1859 H 0.44631 0.32781 0.67799 0.0
C1860 C 0.46186 0.35643 0.69985 0.0
C1861 C 0.46195 0.36333 0.71835 0.0
C1862 C 0.38962 0.28158 0.69892 0.0
C1863 C 0.42994 0.31641 0.70296 0.0
C1864 C 0.37378 0.25771 0.6923 0.0
C1865 C 0.38123 0.24369 0.6827 0.0
C1866 C 0.41284 0.29162 0.69542 0.0
C1867 C 0.40464 0.2544 0.67947 0.0
C1868 C 0.44615 0.3329 0.69222 0.0
C1869 C 0.44549 0.34588 0.72862 0.0
N1870 N 0.4197 0.27792 0.68571 0.0
N1871 N 0.43004 0.32334 0.72074 0.0
H1872 H 0.64802 0.12501 0.73989 0.0
H1873 H 0.74625 0.09913 0.7072 0.0
H1874 H 0.64738 0.05807 0.74732 0.0
H1875 H 0.73572 0.15603 0.68846 0.0
H1876 H 0.71229 0.08564 0.72445 0.0
H1877 H 0.68265 0.1387 0.72375 0.0
C1878 C 0.65512 0.11313 0.7381 0.0
C1879 C 0.64455 0.09019 0.74479 0.0
C1880 C 0.71736 0.10102 0.71652 0.0
C1881 C 0.6845 0.10598 0.72649 0.0
C1882 C 0.7367 0.10871 0.70668 0.0
C1883 C 0.74364 0.12863 0.69637 0.0
C1884 C 0.70507 0.11353 0.71617 0.0
C1885 C 0.73081 0.14051 0.69619 0.0
C1886 C 0.67495 0.12102 0.72891 0.0
C1887 C 0.65497 0.07593 0.74248 0.0
N1888 N 0.71216 0.13282 0.70601 0.0
N1889 N 0.67433 0.08403 0.73346 0.0
H1890 H 0.86707 0.52367 0.72475 0.0
H1891 H 0.89562 0.64824 0.68502 0.0
H1892 H 0.93473 0.5877 0.73386 0.0
H1893 H 0.82688 0.59522 0.69699 0.0
H1894 H 0.9106 0.62412 0.69873 0.0
H1895 H 0.85234 0.54756 0.71028 0.0
C1896 C 0.87883 0.54274 0.72359 0.0
C1897 C 0.90213 0.55377 0.73048 0.0
C1898 C 0.89224 0.6178 0.69833 0.0
C1899 C 0.88546 0.58111 0.71393 0.0
C1900 C 0.88366 0.63146 0.69042 0.0
C1901 C 0.85995 0.6237 0.68984 0.0
C1902 C 0.87697 0.59605 0.70543 0.0
C1903 C 0.84528 0.60191 0.69719 0.0
C1904 C 0.8704 0.55636 0.71545 0.0
C1905 C 0.91661 0.57858 0.72881 0.0
N1906 N 0.85401 0.58877 0.70458 0.0
N1907 N 0.90807 0.59142 0.72059 0.0
H1908 H 0.50899 0.02432 0.14822 0.0
H1909 H 0.47669 0.9784 0.04477 0.0
H1910 H 0.43986 0.96927 0.12717 0.0
H1911 H 0.52677 0.05364 0.06055 0.0
H1912 H 0.46472 0.97395 0.07554 0.0
H1913 H 0.51786 0.03527 0.11698 0.0
C1914 C 0.49562 0.01481 0.13705 0.0
C1915 C 0.47369 0.99582 0.14022 0.0
C1916 C 0.4781 0.99155 0.07225 0.0
C1917 C 0.48379 0.00793 0.1047 0.0
C1918 C 0.48488 0.99415 0.05464 0.0
C1919 C 0.50242 0.01655 0.05001 0.0
C1920 C 0.48944 0.01129 0.08558 0.0
C1921 C 0.51303 0.03611 0.06357 0.0
C1922 C 0.50065 0.02112 0.11931 0.0
C1923 C 0.45693 0.98411 0.12533 0.0
N1924 N 0.50658 0.03296 0.0809 0.0
N1925 N 0.46244 0.99008 0.10819 0.0
H1926 H 0.04399 0.55322 0.14151 0.0
H1927 H 0.98729 0.46808 0.04846 0.0
H1928 H 0.00847 0.47512 0.14039 0.0
H1929 H 0.00017 0.5413 0.05648 0.0
H1930 H -0.00022 0.47058 0.08092 0.0
H1931 H 0.03314 0.54944 0.10901 0.0
C1932 C 0.03375 0.53522 0.13447 0.0
C1933 C 0.02673 0.51444 0.14386 0.0
C1934 C -0.00017 0.48605 0.07553 0.0
C1935 C 0.01466 0.51004 0.10634 0.0
C1936 C 0.99284 0.48467 0.05706 0.0
C1937 C 0.99279 0.50455 0.04989 0.0
C1938 C 0.00705 0.50756 0.08671 0.0
C1939 C -0.00012 0.52555 0.06153 0.0
C1940 C 0.02767 0.53311 0.11585 0.0
C1941 C 0.01424 0.49164 0.13375 0.0
N1942 N 0.00683 0.52655 0.07934 0.0
N1943 N 0.00852 0.49003 0.11551 0.0
H1944 H 0.49231 0.47414 0.1457 0.0
H1945 H 0.4863 0.51644 0.04647 0.0
H1946 H 0.4845 0.53552 0.13524 0.0
H1947 H 0.52176 0.4772 0.05829 0.0
H1948 H 0.47802 0.51649 0.07822 0.0
H1949 H 0.49616 0.46838 0.11292 0.0
C1950 C 0.49117 0.48617 0.13643 0.0
C1951 C 0.48817 0.50534 0.143 0.0
C1952 C 0.48755 0.50778 0.07389 0.0
C1953 C 0.4923 0.49885 0.1059 0.0
C1954 C 0.49223 0.50767 0.05574 0.0
C1955 C 0.50489 0.49694 0.04979 0.0
C1956 C 0.49547 0.49699 0.08626 0.0
C1957 C 0.51208 0.4858 0.06241 0.0
C1958 C 0.49347 0.48299 0.11785 0.0
C1959 C 0.48689 0.52059 0.13062 0.0
N1960 N 0.50731 0.48614 0.08015 0.0
N1961 N 0.4889 0.51699 0.11267 0.0
H1962 H 0.95918 0.50731 0.86557 0.0
H1963 H 0.00643 0.46156 0.94502 0.0
H1964 H 0.99839 0.47138 0.85605 0.0
H1965 H 0.00387 0.52738 0.9545 0.0
H1966 H 0.99904 0.46196 0.91232 0.0
H1967 H 0.9716 0.51295 0.89826 0.0
C1968 C 0.97063 0.5009 0.87024 0.0
C1969 C 0.9774 0.48846 0.85798 0.0
C1970 C 8e-05 0.47633 0.92154 0.0
C1971 C 0.99112 0.49437 0.89533 0.0
C1972 C 0.00422 0.47608 0.94021 0.0
C1973 C 0.00527 0.4942 0.95249 0.0
C1974 C 0.99663 0.49465 0.91508 0.0
C1975 C 0.00244 0.51266 0.94549 0.0
C1976 C 0.9776 0.50405 0.88891 0.0
C1977 C 0.9921 0.4804 0.86496 0.0
N1978 N 0.99795 0.51228 0.9272 0.0
N1979 N 0.99817 0.48318 0.88315 0.0
H1980 H 0.50189 0.45907 0.86355 0.0
H1981 H 0.4752 0.52605 0.94376 0.0
H1982 H 0.50743 0.52835 0.85687 0.0
H1983 H 0.50626 0.48195 0.95309 0.0
H1984 H 0.48225 0.52497 0.91133 0.0
H1985 H 0.49821 0.46433 0.89607 0.0
C1986 C 0.50227 0.47538 0.86902 0.0
C1987 C 0.50489 0.49329 0.85767 0.0
C1988 C 0.48766 0.51576 0.92059 0.0
C1989 C 0.50052 0.49936 0.8947 0.0
C1990 C 0.48359 0.51629 0.939 0.0
C1991 C 0.49005 0.50395 0.95102 0.0
C1992 C 0.49778 0.50238 0.91426 0.0
C1993 C 0.50095 0.49164 0.94426 0.0
C1994 C 0.50031 0.47844 0.88753 0.0
C1995 C 0.50545 0.51419 0.86531 0.0
N1996 N 0.50422 0.49093 0.9263 0.0
N1997 N 0.50303 0.51659 0.88342 0.0
H1998 H 0.50536 0.97139 0.85446 0.0
H1999 H 0.50903 0.02274 0.9559 0.0
H2000 H 0.50228 0.03609 0.86836 0.0
H2001 H 0.47454 0.9454 0.94191 0.0
H2002 H 0.51551 0.0292 0.9241 0.0
H2003 H 0.50176 0.96258 0.88678 0.0
C2004 C 0.50399 0.98369 0.86434 0.0
C2005 C 0.50394 0.00438 0.85889 0.0
C2006 C 0.50663 0.01079 0.92796 0.0
C2007 C 0.50034 0.99481 0.89542 0.0
C2008 C 0.50303 0.00706 0.94616 0.0
C2009 C 0.49116 0.98346 0.95154 0.0
C2010 C 0.49842 0.99083 0.91495 0.0
C2011 C 0.48368 0.96386 0.93823 0.0
C2012 C 0.50186 0.97864 0.88264 0.0
C2013 C 0.50217 0.01986 0.87206 0.0
N2014 N 0.48741 0.96796 0.92042 0.0
N2015 N 0.50059 0.01484 0.88972 0.0
H2016 H 0.10886 0.29939 0.46124 0.0
H2017 H 0.19725 0.38857 0.39504 0.0
H2018 H 0.17674 0.35743 0.4822 0.0
H2019 H 0.14786 0.31302 0.37962 0.0
H2020 H 0.18588 0.38278 0.4265 0.0
H2021 H 0.11842 0.31023 0.43032 0.0
C2022 C 0.12564 0.31469 0.45935 0.0
C2023 C 0.14207 0.32749 0.47428 0.0
C2024 C 0.17744 0.36764 0.41608 0.0
C2025 C 0.15315 0.33987 0.43894 0.0
C2026 C 0.18384 0.37092 0.3982 0.0
C2027 C 0.17323 0.35132 0.38468 0.0
C2028 C 0.16007 0.34474 0.42022 0.0
C2029 C 0.15613 0.32876 0.38949 0.0
C2030 C 0.13114 0.32073 0.44171 0.0
C2031 C 0.16369 0.34697 0.471 0.0
N2032 N 0.15001 0.32612 0.40681 0.0
N2033 N 0.16866 0.35259 0.45364 0.0
H2034 H 0.7165 0.88969 0.47127 0.0
H2035 H 0.66302 0.80518 0.37788 0.0
H2036 H 0.68091 0.8116 0.47055 0.0
H2037 H 0.668 0.87493 0.38732 0.0
H2038 H 0.67649 0.80824 0.41025 0.0
H2039 H 0.70594 0.88555 0.43865 0.0
C2040 C 0.70634 0.87163 0.46433 0.0
C2041 C 0.69917 0.85095 0.47387 0.0
C2042 C 0.67461 0.82281 0.40515 0.0
C2043 C 0.68762 0.84619 0.43623 0.0
C2044 C 0.66704 0.82112 0.38676 0.0
C2045 C 0.66434 0.83979 0.38007 0.0
C2046 C 0.67986 0.84351 0.41665 0.0
C2047 C 0.66971 0.86007 0.39201 0.0
C2048 C 0.70047 0.86932 0.44565 0.0
C2049 C 0.68683 0.82807 0.46383 0.0
N2050 N 0.67732 0.86144 0.40969 0.0
N2051 N 0.68136 0.82628 0.44553 0.0
H2052 H 0.13199 0.81392 0.46936 0.0
H2053 H 0.20438 0.87514 0.38639 0.0
H2054 H 0.17178 0.89143 0.46673 0.0
H2055 H 0.14507 0.80288 0.37916 0.0
H2056 H 0.1946 0.88012 0.41715 0.0
H2057 H 0.13763 0.80808 0.43725 0.0
C2058 C 0.14171 0.8297 0.46205 0.0
C2059 C 0.15176 0.85322 0.47092 0.0
C2060 C 0.18363 0.86319 0.40885 0.0
C2061 C 0.15856 0.8466 0.43437 0.0
C2062 C 0.1893 0.8603 0.39135 0.0
C2063 C 0.1755 0.83858 0.38034 0.0
C2064 C 0.16424 0.84404 0.41552 0.0
C2065 C 0.15606 0.81994 0.38731 0.0
C2066 C 0.14498 0.82633 0.44375 0.0
C2067 C 0.16429 0.87295 0.46071 0.0
N2068 N 0.15106 0.823 0.40459 0.0
N2069 N 0.16752 0.86919 0.4431 0.0
H2070 H 0.68142 0.8248 0.18564 0.0
H2071 H 0.64837 0.83609 0.28642 0.0
H2072 H 0.62476 0.83596 0.19734 0.0
H2073 H 0.71342 0.84207 0.27525 0.0
H2074 H 0.63946 0.83627 0.25391 0.0
H2075 H 0.69356 0.83113 0.21832 0.0
C2076 C 0.67161 0.8287 0.19511 0.0
C2077 C 0.65197 0.82972 0.18879 0.0
C2078 C 0.65586 0.83794 0.25855 0.0
C2079 C 0.66569 0.83688 0.22621 0.0
C2080 C 0.66107 0.83818 0.27716 0.0
C2081 C 0.68193 0.83983 0.28356 0.0
C2082 C 0.67148 0.83887 0.24618 0.0
C2083 C 0.69722 0.841 0.27084 0.0
C2084 C 0.67859 0.83241 0.21374 0.0
C2085 C 0.64006 0.83514 0.20162 0.0
N2086 N 0.69165 0.8404 0.25273 0.0
N2087 N 0.64697 0.83827 0.21973 0.0
H2088 H 0.13476 0.82238 0.18414 0.0
H2089 H 0.18073 0.82874 0.28718 0.0
H2090 H 0.20276 0.8341 0.20023 0.0
H2091 H 0.12121 0.8357 0.27298 0.0
H2092 H 0.18891 0.83059 0.2553 0.0
H2093 H 0.12911 0.82714 0.21634 0.0
C2094 C 0.14856 0.82613 0.19446 0.0
C2095 C 0.16922 0.82773 0.18951 0.0
C2096 C 0.17425 0.8321 0.25913 0.0
C2097 C 0.16282 0.83303 0.22634 0.0
C2098 C 0.16978 0.83137 0.27739 0.0
C2099 C 0.15076 0.83288 0.28278 0.0
C2100 C 0.15926 0.83383 0.24602 0.0
C2101 C 0.13621 0.83474 0.26936 0.0
C2102 C 0.14535 0.82893 0.21281 0.0
C2103 C 0.18663 0.83288 0.20341 0.0
N2104 N 0.14071 0.83507 0.25154 0.0
N2105 N 0.18293 0.83509 0.22118 0.0
H2106 H 0.2123 0.36982 0.20527 0.0
H2107 H 0.13603 0.27896 0.27636 0.0
H2108 H 0.14432 0.30859 0.18889 0.0
H2109 H 0.18491 0.35499 0.29034 0.0
H2110 H 0.14378 0.28467 0.24416 0.0
H2111 H 0.20783 0.35903 0.23669 0.0
C2112 C 0.1966 0.35384 0.20824 0.0
C2113 C 0.17859 0.34013 0.19451 0.0
C2114 C 0.15299 0.29994 0.25441 0.0
C2115 C 0.17333 0.32783 0.2304 0.0
C2116 C 0.14864 0.2967 0.27271 0.0
C2117 C 0.1601 0.31647 0.28603 0.0
C2118 C 0.16914 0.32299 0.2496 0.0
C2119 C 0.1761 0.33914 0.2806 0.0
C2120 C 0.194 0.34781 0.22617 0.0
C2121 C 0.15849 0.31976 0.19916 0.0
N2122 N 0.18019 0.34176 0.26283 0.0
N2123 N 0.15634 0.31423 0.21678 0.0
H2124 H 0.81895 0.61934 0.79373 0.0
H2125 H 0.81463 0.694 0.71258 0.0
H2126 H 0.78769 0.66414 0.79919 0.0
H2127 H 0.86891 0.67726 0.72289 0.0
H2128 H 0.80024 0.67937 0.74208 0.0
H2129 H 0.83233 0.63555 0.76489 0.0
C2130 C 0.81497 0.6327 0.78893 0.0
C2131 C 0.8026 0.64079 0.79918 0.0
C2132 C 0.81545 0.6792 0.73793 0.0
C2133 C 0.81754 0.65906 0.76582 0.0
C2134 C 0.82365 0.68755 0.72121 0.0
C2135 C 0.84292 0.68677 0.71544 0.0
C2136 C 0.82645 0.6697 0.74866 0.0
C2137 C 0.85405 0.67823 0.72693 0.0
C2138 C 0.82259 0.64189 0.77242 0.0
C2139 C 0.79721 0.65741 0.7918 0.0
N2140 N 0.84548 0.66973 0.7429 0.0
N2141 N 0.80477 0.66608 0.77554 0.0
H2142 H 0.38798 0.20815 0.80596 0.0
H2143 H 0.28895 0.14338 0.72475 0.0
H2144 H 0.32422 0.14319 0.81336 0.0
H2145 H 0.36145 0.18383 0.71627 0.0
H2146 H 0.29973 0.14457 0.75744 0.0
H2147 H 0.37698 0.20164 0.77308 0.0
C2148 C 0.37167 0.19245 0.80057 0.0
C2149 C 0.35695 0.17617 0.81225 0.0
C2150 C 0.31321 0.15291 0.74832 0.0
C2151 C 0.34407 0.16875 0.77477 0.0
C2152 C 0.30708 0.15228 0.72974 0.0
C2153 C 0.32433 0.16361 0.71786 0.0
C2154 C 0.3367 0.16536 0.75499 0.0
C2155 C 0.34758 0.17489 0.72496 0.0
C2156 C 0.36543 0.18869 0.78185 0.0
C2157 C 0.33602 0.15606 0.80468 0.0
N2158 N 0.35307 0.17573 0.74307 0.0
N2159 N 0.33001 0.15303 0.78637 0.0
H2160 H 0.85769 0.1791 0.81634 0.0
H2161 H 0.80918 0.16273 0.71211 0.0
H2162 H 0.7887 0.16429 0.79989 0.0
H2163 H 0.87429 0.16797 0.72897 0.0
H2164 H 0.80065 0.16195 0.74401 0.0
H2165 H 0.86346 0.17365 0.78438 0.0
C2166 C 0.8437 0.17456 0.80597 0.0
C2167 C 0.82275 0.17234 0.81074 0.0
C2168 C 0.81671 0.16303 0.74074 0.0
C2169 C 0.82925 0.16616 0.77408 0.0
C2170 C 0.8215 0.16333 0.72252 0.0
C2171 C 0.84232 0.16512 0.71793 0.0
C2172 C 0.83301 0.1648 0.75448 0.0
C2173 C 0.85801 0.16652 0.73197 0.0
C2174 C 0.84698 0.17139 0.78773 0.0
C2175 C 0.80509 0.16608 0.79679 0.0
N2176 N 0.85307 0.16643 0.74963 0.0
N2177 N 0.80882 0.16346 0.77906 0.0
H2178 H 0.2776 0.16123 0.53224 0.0
H2179 H 0.36959 0.16903 0.61024 0.0
H2180 H 0.33378 0.14861 0.52205 0.0
H2181 H 0.30363 0.16065 0.62168 0.0
H2182 H 0.35949 0.1681 0.57777 0.0
H2183 H 0.28985 0.16792 0.56507 0.0
C2184 C 0.29266 0.16015 0.53692 0.0
C2185 C 0.30463 0.15421 0.52449 0.0
C2186 C 0.34729 0.16672 0.58738 0.0
C2187 C 0.31865 0.16179 0.56181 0.0
C2188 C 0.35305 0.16728 0.6059 0.0
C2189 C 0.33755 0.16534 0.61864 0.0
C2190 C 0.32579 0.16411 0.58153 0.0
C2191 C 0.31633 0.16297 0.61234 0.0
C2192 C 0.29953 0.16381 0.55561 0.0
C2193 C 0.32392 0.15286 0.53122 0.0
N2194 N 0.31101 0.16238 0.59417 0.0
N2195 N 0.33031 0.1566 0.54941 0.0
H2196 H 0.80785 0.16134 0.52036 0.0
H2197 H 0.84847 0.15784 0.62234 0.0
H2198 H 0.87405 0.16827 0.53602 0.0
H2199 H 0.79769 0.17891 0.60964 0.0
H2200 H 0.85737 0.1605 0.59061 0.0
H2201 H 0.8028 0.16667 0.55268 0.0
C2202 C 0.82139 0.16419 0.53061 0.0
C2203 C 0.84136 0.16427 0.52554 0.0
C2204 C 0.84449 0.16487 0.59477 0.0
C2205 C 0.83561 0.17011 0.56244 0.0
C2206 C 0.83949 0.16348 0.61292 0.0
C2207 C 0.82256 0.16851 0.61867 0.0
C2208 C 0.83206 0.17074 0.58211 0.0
C2209 C 0.81095 0.175 0.60576 0.0
C2210 C 0.81855 0.16733 0.54902 0.0
C2211 C 0.85846 0.16823 0.53933 0.0
N2212 N 0.81574 0.17569 0.588 0.0
N2213 N 0.85506 0.17067 0.55716 0.0
H2214 H 0.88441 0.70517 0.54636 0.0
H2215 H 0.78741 0.6358 0.61197 0.0
H2216 H 0.81186 0.66133 0.52759 0.0
H2217 H 0.85799 0.6542 0.62613 0.0
H2218 H 0.79654 0.64546 0.58093 0.0
H2219 H 0.87609 0.68742 0.57562 0.0
C2220 C 0.8668 0.69158 0.54827 0.0
C2221 C 0.84873 0.68502 0.53459 0.0
C2222 C 0.81007 0.64727 0.59075 0.0
C2223 C 0.83914 0.66494 0.56801 0.0
C2224 C 0.80486 0.64176 0.60849 0.0
C2225 C 0.82218 0.64491 0.62171 0.0
C2226 C 0.83285 0.65627 0.5862 0.0
C2227 C 0.84439 0.65238 0.61641 0.0
C2228 C 0.86209 0.68151 0.56498 0.0
C2229 C 0.82624 0.66744 0.53789 0.0
N2230 N 0.84926 0.65826 0.59907 0.0
N2231 N 0.82207 0.65824 0.55431 0.0
loop_
_geom_bond_atom_site_label_1
_geom_bond_atom_site_label_2
_geom_bond_distance
_geom_bond_site_symmetry_2
_ccdc_geom_bond_type
C0 C1 1.391 . S
C0 C4 1.391 . S
C0 H42 0.948 . S
C1 C0 1.391 . S
C1 C2 1.391 . S
C2 C1 1.391 . S
C2 H58 0.947 . S
C2 C59 1.392 . S
C3 C4 1.391 . S
C3 C7 1.397 . S
C3 C59 1.419 . S
C4 C0 1.391 . S
C4 C3 1.391 . S
C4 C5 1.399 . S
C5 C4 1.399 . S
C5 C8 1.396 . S
C5 C17 1.453 . S
C5 C18 1.684 . S
H6 C30 0.948 . S
C7 C3 1.397 . S
C7 C8 1.394 . S
C7 C26 1.723 . S
C8 C5 1.396 . S
C8 C7 1.394 . S
C8 C38 1.723 . S
H9 C32 0.947 . S
H10 C33 0.948 . S
H11 C39 0.982 . S
H12 C40 0.979 . S
H13 C40 0.980 . S
H14 C40 0.983 . S
H15 C39 0.979 . S
H16 C39 0.977 . S
C17 C5 1.453 . S
C17 H46 0.982 . S
C17 H47 0.979 . S
C17 H48 0.977 . S
C18 C5 1.684 . S
C18 H43 0.979 . S
C18 H44 0.980 . S
C18 H45 0.983 . S
C19 C20 1.391 . S
C19 C24 1.391 . S
C19 H49 0.948 . S
C20 C19 1.391 . S
C20 C21 1.391 . S
C21 C20 1.391 . S
C21 C22 1.392 . S
C21 H50 0.947 . S
C22 C21 1.392 . S
C22 C23 1.419 . S
C22 H51 0.948 . S
C23 C22 1.419 . S
C23 C24 1.391 . S
C23 C27 1.397 . S
C24 C19 1.391 . S
C24 C23 1.391 . S
C24 C25 1.399 . S
C25 C24 1.399 . S
C25 C26 1.396 . S
C25 C28 1.453 . S
C25 C29 1.684 . S
C26 C7 1.723 . S
C26 C25 1.396 . S
C26 C27 1.394 . S
C27 C23 1.397 . S
C27 C26 1.394 . S
C27 C37 1.723 . S
C28 C25 1.453 . S
C28 H52 0.982 . S
C28 H53 0.979 . S
C28 H54 0.977 . S
C29 C25 1.684 . S
C29 H55 0.979 . S
C29 H56 0.980 . S
C29 H57 0.983 . S
C30 H6 0.948 . S
C30 C31 1.391 . S
C30 C35 1.391 . S
C31 C30 1.391 . S
C31 C32 1.391 . S
C32 H9 0.947 . S
C32 C31 1.391 . S
C32 C33 1.392 . S
C33 H10 0.948 . S
C33 C32 1.392 . S
C33 C34 1.419 . S
C34 C33 1.419 . S
C34 C35 1.391 . S
C34 C38 1.397 . S
C35 C30 1.391 . S
C35 C34 1.391 . S
C35 C36 1.399 . S
C36 C35 1.399 . S
C36 C37 1.396 . S
C36 C39 1.453 . S
C36 C40 1.684 . S
C37 C27 1.723 . S
C37 C36 1.396 . S
C37 C38 1.394 . S
C38 C8 1.723 . S
C38 C34 1.397 . S
C38 C37 1.394 . S
C39 H11 0.982 . S
C39 H15 0.979 . S
C39 H16 0.977 . S
C39 C36 1.453 . S
C40 H12 0.979 . S
C40 H13 0.980 . S
C40 H14 0.983 . S
C40 C36 1.684 . S
H41 C59 0.948 . S
H42 C0 0.948 . S
H43 C18 0.979 . S
H44 C18 0.980 . S
H45 C18 0.983 . S
H46 C17 0.982 . S
H47 C17 0.979 . S
H48 C17 0.977 . S
H49 C19 0.948 . S
H50 C21 0.947 . S
H51 C22 0.948 . S
H52 C28 0.982 . S
H53 C28 0.979 . S
H54 C28 0.977 . S
H55 C29 0.979 . S
H56 C29 0.980 . S
H57 C29 0.983 . S
H58 C2 0.947 . S
C59 C2 1.392 . S
C59 C3 1.419 . S
C59 H41 0.948 . S
C60 C61 1.391 . S
C60 C64 1.391 . S
C60 H102 0.948 . S
C61 C60 1.391 . S
C61 C62 1.391 . S
C62 C61 1.391 . S
C62 H118 0.947 . S
C62 C119 1.392 . S
C63 C64 1.391 . S
C63 C67 1.397 . S
C63 C119 1.419 . S
C64 C60 1.391 . S
C64 C63 1.391 . S
C64 C65 1.399 . S
C65 C64 1.399 . S
C65 C68 1.396 . S
C65 C77 1.453 . S
C65 C78 1.684 . S
H66 C90 0.948 . S
C67 C63 1.397 . S
C67 C68 1.394 . S
C67 C86 1.723 . S
C68 C65 1.396 . S
C68 C67 1.394 . S
C68 C98 1.723 . S
H69 C92 0.947 . S
H70 C93 0.948 . S
H71 C99 0.982 . S
H72 C100 0.979 . S
H73 C100 0.980 . S
H74 C100 0.983 . S
H75 C99 0.979 . S
H76 C99 0.977 . S
C77 C65 1.453 . S
C77 H106 0.982 . S
C77 H107 0.979 . S
C77 H108 0.977 . S
C78 C65 1.684 . S
C78 H103 0.979 . S
C78 H104 0.980 . S
C78 H105 0.983 . S
C79 C80 1.391 . S
C79 C84 1.391 . S
C79 H109 0.948 . S
C80 C79 1.391 . S
C80 C81 1.391 . S
C81 C80 1.391 . S
C81 C82 1.392 . S
C81 H110 0.947 . S
C82 C81 1.392 . S
C82 C83 1.419 . S
C82 H111 0.948 . S
C83 C82 1.419 . S
C83 C84 1.391 . S
C83 C87 1.397 . S
C84 C79 1.391 . S
C84 C83 1.391 . S
C84 C85 1.399 . S
C85 C84 1.399 . S
C85 C86 1.396 . S
C85 C88 1.453 . S
C85 C89 1.684 . S
C86 C67 1.723 . S
C86 C85 1.396 . S
C86 C87 1.394 . S
C87 C83 1.397 . S
C87 C86 1.394 . S
C87 C97 1.723 . S
C88 C85 1.453 . S
C88 H112 0.982 . S
C88 H113 0.979 . S
C88 H114 0.977 . S
C89 C85 1.684 . S
C89 H115 0.979 . S
C89 H116 0.980 . S
C89 H117 0.983 . S
C90 H66 0.948 . S
C90 C91 1.391 . S
C90 C95 1.391 . S
C91 C90 1.391 . S
C91 C92 1.391 . S
C92 H69 0.947 . S
C92 C91 1.391 . S
C92 C93 1.392 . S
C93 H70 0.948 . S
C93 C92 1.392 . S
C93 C94 1.419 . S
C94 C93 1.419 . S
C94 C95 1.391 . S
C94 C98 1.397 . S
C95 C90 1.391 . S
C95 C94 1.391 . S
C95 C96 1.399 . S
C96 C95 1.399 . S
C96 C97 1.396 . S
C96 C99 1.453 . S
C96 C100 1.684 . S
C97 C87 1.723 . S
C97 C96 1.396 . S
C97 C98 1.394 . S
C98 C68 1.723 . S
C98 C94 1.397 . S
C98 C97 1.394 . S
C99 H71 0.982 . S
C99 H75 0.979 . S
C99 H76 0.977 . S
C99 C96 1.453 . S
C100 H72 0.979 . S
C100 H73 0.980 . S
C100 H74 0.983 . S
C100 C96 1.684 . S
H101 C119 0.948 . S
H102 C60 0.948 . S
H103 C78 0.979 . S
H104 C78 0.980 . S
H105 C78 0.983 . S
H106 C77 0.982 . S
H107 C77 0.979 . S
H108 C77 0.977 . S
H109 C79 0.948 . S
H110 C81 0.947 . S
H111 C82 0.948 . S
H112 C88 0.982 . S
H113 C88 0.979 . S
H114 C88 0.977 . S
H115 C89 0.979 . S
H116 C89 0.980 . S
H117 C89 0.983 . S
H118 C62 0.947 . S
C119 C62 1.392 . S
C119 C63 1.419 . S
C119 H101 0.948 . S
C120 C121 1.391 . S
C120 C124 1.391 . S
C120 H162 0.948 . S
C121 C120 1.391 . S
C121 C122 1.391 . S
C122 C121 1.391 . S
C122 H178 0.947 . S
C122 C179 1.392 . S
C123 C124 1.391 . S
C123 C127 1.397 . S
C123 C179 1.419 . S
C124 C120 1.391 . S
C124 C123 1.391 . S
C124 C125 1.399 . S
C125 C124 1.399 . S
C125 C128 1.396 . S
C125 C137 1.453 . S
C125 C138 1.684 . S
H126 C150 0.948 . S
C127 C123 1.397 . S
C127 C128 1.394 . S
C127 C146 1.723 . S
C128 C125 1.396 . S
C128 C127 1.394 . S
C128 C158 1.723 . S
H129 C152 0.947 . S
H130 C153 0.948 . S
H131 C159 0.982 . S
H132 C160 0.979 . S
H133 C160 0.980 . S
H134 C160 0.983 . S
H135 C159 0.979 . S
H136 C159 0.977 . S
C137 C125 1.453 . S
C137 H166 0.982 . S
C137 H167 0.979 . S
C137 H168 0.977 . S
C138 C125 1.684 . S
C138 H163 0.979 . S
C138 H164 0.980 . S
C138 H165 0.983 . S
C139 C140 1.391 . S
C139 C144 1.391 . S
C139 H169 0.948 . S
C140 C139 1.391 . S
C140 C141 1.391 . S
C141 C140 1.391 . S
C141 C142 1.392 . S
C141 H170 0.947 . S
C142 C141 1.392 . S
C142 C143 1.419 . S
C142 H171 0.948 . S
C143 C142 1.419 . S
C143 C144 1.391 . S
C143 C147 1.397 . S
C144 C139 1.391 . S
C144 C143 1.391 . S
C144 C145 1.399 . S
C145 C144 1.399 . S
C145 C146 1.396 . S
C145 C148 1.453 . S
C145 C149 1.684 . S
C146 C127 1.723 . S
C146 C145 1.396 . S
C146 C147 1.394 . S
C147 C143 1.397 . S
C147 C146 1.394 . S
C147 C157 1.723 . S
C148 C145 1.453 . S
C148 H172 0.982 . S
C148 H173 0.979 . S
C148 H174 0.977 . S
C149 C145 1.684 . S
C149 H175 0.979 . S
C149 H176 0.980 . S
C149 H177 0.983 . S
C150 H126 0.948 . S
C150 C151 1.391 . S
C150 C155 1.391 . S
C151 C150 1.391 . S
C151 C152 1.391 . S
C152 H129 0.947 . S
C152 C151 1.391 . S
C152 C153 1.392 . S
C153 H130 0.948 . S
C153 C152 1.392 . S
C153 C154 1.419 . S
C154 C153 1.419 . S
C154 C155 1.391 . S
C154 C158 1.397 . S
C155 C150 1.391 . S
C155 C154 1.391 . S
C155 C156 1.399 . S
C156 C155 1.399 . S
C156 C157 1.396 . S
C156 C159 1.453 . S
C156 C160 1.684 . S
C157 C147 1.723 . S
C157 C156 1.396 . S
C157 C158 1.394 . S
C158 C128 1.723 . S
C158 C154 1.397 . S
C158 C157 1.394 . S
C159 H131 0.982 . S
C159 H135 0.979 . S
C159 H136 0.977 . S
C159 C156 1.453 . S
C160 H132 0.979 . S
C160 H133 0.980 . S
C160 H134 0.983 . S
C160 C156 1.684 . S
H161 C179 0.948 . S
H162 C120 0.948 . S
H163 C138 0.979 . S
H164 C138 0.980 . S
H165 C138 0.983 . S
H166 C137 0.982 . S
H167 C137 0.979 . S
H168 C137 0.977 . S
H169 C139 0.948 . S
H170 C141 0.947 . S
H171 C142 0.948 . S
H172 C148 0.982 . S
H173 C148 0.979 . S
H174 C148 0.977 . S
H175 C149 0.979 . S
H176 C149 0.980 . S
H177 C149 0.983 . S
H178 C122 0.947 . S
C179 C122 1.392 . S
C179 C123 1.419 . S
C179 H161 0.948 . S
C180 C181 1.391 . S
C180 C184 1.391 . S
C180 H222 0.948 . S
C181 C180 1.391 . S
C181 C182 1.391 . S
C182 C181 1.391 . S
C182 H238 0.947 . S
C182 C239 1.392 . S
C183 C184 1.391 . S
C183 C187 1.397 . S
C183 C239 1.419 . S
C184 C180 1.391 . S
C184 C183 1.391 . S
C184 C185 1.399 . S
C185 C184 1.399 . S
C185 C188 1.396 . S
C185 C197 1.453 . S
C185 C198 1.684 . S
H186 C210 0.948 . S
C187 C183 1.397 . S
C187 C188 1.394 . S
C187 C206 1.723 . S
C188 C185 1.396 . S
C188 C187 1.394 . S
C188 C218 1.723 . S
H189 C212 0.947 . S
H190 C213 0.948 . S
H191 C219 0.982 . S
H192 C220 0.979 . S
H193 C220 0.980 . S
H194 C220 0.983 . S
H195 C219 0.979 . S
H196 C219 0.977 . S
C197 C185 1.453 . S
C197 H226 0.982 . S
C197 H227 0.979 . S
C197 H228 0.977 . S
C198 C185 1.684 . S
C198 H223 0.979 . S
C198 H224 0.980 . S
C198 H225 0.983 . S
C199 C200 1.391 . S
C199 C204 1.391 . S
C199 H229 0.948 . S
C200 C199 1.391 . S
C200 C201 1.391 . S
C201 C200 1.391 . S
C201 C202 1.392 . S
C201 H230 0.947 . S
C202 C201 1.392 . S
C202 C203 1.419 . S
C202 H231 0.948 . S
C203 C202 1.419 . S
C203 C204 1.391 . S
C203 C207 1.397 . S
C204 C199 1.391 . S
C204 C203 1.391 . S
C204 C205 1.399 . S
C205 C204 1.399 . S
C205 C206 1.396 . S
C205 C208 1.453 . S
C205 C209 1.684 . S
C206 C187 1.723 . S
C206 C205 1.396 . S
C206 C207 1.394 . S
C207 C203 1.397 . S
C207 C206 1.394 . S
C207 C217 1.723 . S
C208 C205 1.453 . S
C208 H232 0.982 . S
C208 H233 0.979 . S
C208 H234 0.977 . S
C209 C205 1.684 . S
C209 H235 0.979 . S
C209 H236 0.980 . S
C209 H237 0.983 . S
C210 H186 0.948 . S
C210 C211 1.391 . S
C210 C215 1.391 . S
C211 C210 1.391 . S
C211 C212 1.391 . S
C212 H189 0.947 . S
C212 C211 1.391 . S
C212 C213 1.392 . S
C213 H190 0.948 . S
C213 C212 1.392 . S
C213 C214 1.419 . S
C214 C213 1.419 . S
C214 C215 1.391 . S
C214 C218 1.397 . S
C215 C210 1.391 . S
C215 C214 1.391 . S
C215 C216 1.399 . S
C216 C215 1.399 . S
C216 C217 1.396 . S
C216 C219 1.453 . S
C216 C220 1.684 . S
C217 C207 1.723 . S
C217 C216 1.396 . S
C217 C218 1.394 . S
C218 C188 1.723 . S
C218 C214 1.397 . S
C218 C217 1.394 . S
C219 H191 0.982 . S
C219 H195 0.979 . S
C219 H196 0.977 . S
C219 C216 1.453 . S
C220 H192 0.979 . S
C220 H193 0.980 . S
C220 H194 0.983 . S
C220 C216 1.684 . S
H221 C239 0.948 . S
H222 C180 0.948 . S
H223 C198 0.979 . S
H224 C198 0.980 . S
H225 C198 0.983 . S
H226 C197 0.982 . S
H227 C197 0.979 . S
H228 C197 0.977 . S
H229 C199 0.948 . S
H230 C201 0.947 . S
H231 C202 0.948 . S
H232 C208 0.982 . S
H233 C208 0.979 . S
H234 C208 0.977 . S
H235 C209 0.979 . S
H236 C209 0.980 . S
H237 C209 0.983 . S
H238 C182 0.947 . S
C239 C182 1.392 . S
C239 C183 1.419 . S
C239 H221 0.948 . S
C240 C241 1.391 . S
C240 C244 1.391 . S
C240 H282 0.948 . S
C241 C240 1.391 . S
C241 C242 1.391 . S
C242 C241 1.391 . S
C242 H298 0.947 . S
C242 C299 1.392 . S
C243 C244 1.391 . S
C243 C247 1.397 . S
C243 C299 1.419 . S
C244 C240 1.391 . S
C244 C243 1.391 . S
C244 C245 1.399 . S
C245 C244 1.399 . S
C245 C248 1.396 . S
C245 C257 1.453 . S
C245 C258 1.684 . S
H246 C270 0.948 . S
C247 C243 1.397 . S
C247 C248 1.394 . S
C247 C266 1.723 . S
C248 C245 1.396 . S
C248 C247 1.394 . S
C248 C278 1.723 . S
H249 C272 0.947 . S
H250 C273 0.948 . S
H251 C279 0.982 . S
H252 C280 0.979 . S
H253 C280 0.980 . S
H254 C280 0.983 . S
H255 C279 0.979 . S
H256 C279 0.977 . S
C257 C245 1.453 . S
C257 H286 0.982 . S
C257 H287 0.979 . S
C257 H288 0.977 . S
C258 C245 1.684 . S
C258 H283 0.979 . S
C258 H284 0.980 . S
C258 H285 0.983 . S
C259 C260 1.391 . S
C259 C264 1.391 . S
C259 H289 0.948 . S
C260 C259 1.391 . S
C260 C261 1.391 . S
C261 C260 1.391 . S
C261 C262 1.392 . S
C261 H290 0.947 . S
C262 C261 1.392 . S
C262 C263 1.419 . S
C262 H291 0.948 . S
C263 C262 1.419 . S
C263 C264 1.391 . S
C263 C267 1.397 . S
C264 C259 1.391 . S
C264 C263 1.391 . S
C264 C265 1.399 . S
C265 C264 1.399 . S
C265 C266 1.396 . S
C265 C268 1.453 . S
C265 C269 1.684 . S
C266 C247 1.723 . S
C266 C265 1.396 . S
C266 C267 1.394 . S
C267 C263 1.397 . S
C267 C266 1.394 . S
C267 C277 1.723 . S
C268 C265 1.453 . S
C268 H292 0.982 . S
C268 H293 0.979 . S
C268 H294 0.977 . S
C269 C265 1.684 . S
C269 H295 0.979 . S
C269 H296 0.980 . S
C269 H297 0.983 . S
C270 H246 0.948 . S
C270 C271 1.391 . S
C270 C275 1.391 . S
C271 C270 1.391 . S
C271 C272 1.391 . S
C272 H249 0.947 . S
C272 C271 1.391 . S
C272 C273 1.392 . S
C273 H250 0.948 . S
C273 C272 1.392 . S
C273 C274 1.419 . S
C274 C273 1.419 . S
C274 C275 1.391 . S
C274 C278 1.397 . S
C275 C270 1.391 . S
C275 C274 1.391 . S
C275 C276 1.399 . S
C276 C275 1.399 . S
C276 C277 1.396 . S
C276 C279 1.453 . S
C276 C280 1.684 . S
C277 C267 1.723 . S
C277 C276 1.396 . S
C277 C278 1.394 . S
C278 C248 1.723 . S
C278 C274 1.397 . S
C278 C277 1.394 . S
C279 H251 0.982 . S
C279 H255 0.979 . S
C279 H256 0.977 . S
C279 C276 1.453 . S
C280 H252 0.979 . S
C280 H253 0.980 . S
C280 H254 0.983 . S
C280 C276 1.684 . S
H281 C299 0.948 . S
H282 C240 0.948 . S
H283 C258 0.979 . S
H284 C258 0.980 . S
H285 C258 0.983 . S
H286 C257 0.982 . S
H287 C257 0.979 . S
H288 C257 0.977 . S
H289 C259 0.948 . S
H290 C261 0.947 . S
H291 C262 0.948 . S
H292 C268 0.982 . S
H293 C268 0.979 . S
H294 C268 0.977 . S
H295 C269 0.979 . S
H296 C269 0.980 . S
H297 C269 0.983 . S
H298 C242 0.947 . S
C299 C242 1.392 . S
C299 C243 1.419 . S
C299 H281 0.948 . S
C300 C301 1.391 . S
C300 C304 1.391 . S
C300 H342 0.948 . S
C301 C300 1.391 . S
C301 C302 1.391 . S
C302 C301 1.391 . S
C302 H358 0.947 . S
C302 C359 1.392 . S
C303 C304 1.391 . S
C303 C307 1.397 . S
C303 C359 1.419 . S
C304 C300 1.391 . S
C304 C303 1.391 . S
C304 C305 1.399 . S
C305 C304 1.399 . S
C305 C308 1.396 . S
C305 C317 1.453 . S
C305 C318 1.684 . S
H306 C330 0.948 . S
C307 C303 1.397 . S
C307 C308 1.394 . S
C307 C326 1.723 . S
C308 C305 1.396 . S
C308 C307 1.394 . S
C308 C338 1.723 . S
H309 C332 0.947 . S
H310 C333 0.948 . S
H311 C339 0.982 . S
H312 C340 0.979 . S
H313 C340 0.980 . S
H314 C340 0.983 . S
H315 C339 0.979 . S
H316 C339 0.977 . S
C317 C305 1.453 . S
C317 H346 0.982 . S
C317 H347 0.979 . S
C317 H348 0.977 . S
C318 C305 1.684 . S
C318 H343 0.979 . S
C318 H344 0.980 . S
C318 H345 0.983 . S
C319 C320 1.391 . S
C319 C324 1.391 . S
C319 H349 0.948 . S
C320 C319 1.391 . S
C320 C321 1.391 . S
C321 C320 1.391 . S
C321 C322 1.392 . S
C321 H350 0.947 . S
C322 C321 1.392 . S
C322 C323 1.419 . S
C322 H351 0.948 . S
C323 C322 1.419 . S
C323 C324 1.391 . S
C323 C327 1.397 . S
C324 C319 1.391 . S
C324 C323 1.391 . S
C324 C325 1.399 . S
C325 C324 1.399 . S
C325 C326 1.396 . S
C325 C328 1.453 . S
C325 C329 1.684 . S
C326 C307 1.723 . S
C326 C325 1.396 . S
C326 C327 1.394 . S
C327 C323 1.397 . S
C327 C326 1.394 . S
C327 C337 1.723 . S
C328 C325 1.453 . S
C328 H352 0.982 . S
C328 H353 0.979 . S
C328 H354 0.977 . S
C329 C325 1.684 . S
C329 H355 0.979 . S
C329 H356 0.980 . S
C329 H357 0.983 . S
C330 H306 0.948 . S
C330 C331 1.391 . S
C330 C335 1.391 . S
C331 C330 1.391 . S
C331 C332 1.391 . S
C332 H309 0.947 . S
C332 C331 1.391 . S
C332 C333 1.392 . S
C333 H310 0.948 . S
C333 C332 1.392 . S
C333 C334 1.419 . S
C334 C333 1.419 . S
C334 C335 1.391 . S
C334 C338 1.397 . S
C335 C330 1.391 . S
C335 C334 1.391 . S
C335 C336 1.399 . S
C336 C335 1.399 . S
C336 C337 1.396 . S
C336 C339 1.453 . S
C336 C340 1.684 . S
C337 C327 1.723 . S
C337 C336 1.396 . S
C337 C338 1.394 . S
C338 C308 1.723 . S
C338 C334 1.397 . S
C338 C337 1.394 . S
C339 H311 0.982 . S
C339 H315 0.979 . S
C339 H316 0.977 . S
C339 C336 1.453 . S
C340 H312 0.979 . S
C340 H313 0.980 . S
C340 H314 0.983 . S
C340 C336 1.684 . S
H341 C359 0.948 . S
H342 C300 0.948 . S
H343 C318 0.979 . S
H344 C318 0.980 . S
H345 C318 0.983 . S
H346 C317 0.982 . S
H347 C317 0.979 . S
H348 C317 0.977 . S
H349 C319 0.948 . S
H350 C321 0.947 . S
H351 C322 0.948 . S
H352 C328 0.982 . S
H353 C328 0.979 . S
H354 C328 0.977 . S
H355 C329 0.979 . S
H356 C329 0.980 . S
H357 C329 0.983 . S
H358 C302 0.947 . S
C359 C302 1.392 . S
C359 C303 1.419 . S
C359 H341 0.948 . S
C360 C361 1.391 . S
C360 C364 1.391 . S
C360 H402 0.948 . S
C361 C360 1.391 . S
C361 C362 1.391 . S
C362 C361 1.391 . S
C362 H418 0.947 . S
C362 C419 1.392 . S
C363 C364 1.391 . S
C363 C367 1.397 . S
C363 C419 1.419 . S
C364 C360 1.391 . S
C364 C363 1.391 . S
C364 C365 1.399 . S
C365 C364 1.399 . S
C365 C368 1.396 . S
C365 C377 1.453 . S
C365 C378 1.684 . S
H366 C390 0.948 . S
C367 C363 1.397 . S
C367 C368 1.394 . S
C367 C386 1.723 . S
C368 C365 1.396 . S
C368 C367 1.394 . S
C368 C398 1.723 . S
H369 C392 0.947 . S
H370 C393 0.948 . S
H371 C399 0.982 . S
H372 C400 0.979 . S
H373 C400 0.980 . S
H374 C400 0.983 . S
H375 C399 0.979 . S
H376 C399 0.977 . S
C377 C365 1.453 . S
C377 H406 0.982 . S
C377 H407 0.979 . S
C377 H408 0.977 . S
C378 C365 1.684 . S
C378 H403 0.979 . S
C378 H404 0.980 . S
C378 H405 0.983 . S
C379 C380 1.391 . S
C379 C384 1.391 . S
C379 H409 0.948 . S
C380 C379 1.391 . S
C380 C381 1.391 . S
C381 C380 1.391 . S
C381 C382 1.392 . S
C381 H410 0.947 . S
C382 C381 1.392 . S
C382 C383 1.419 . S
C382 H411 0.948 . S
C383 C382 1.419 . S
C383 C384 1.391 . S
C383 C387 1.397 . S
C384 C379 1.391 . S
C384 C383 1.391 . S
C384 C385 1.399 . S
C385 C384 1.399 . S
C385 C386 1.396 . S
C385 C388 1.453 . S
C385 C389 1.684 . S
C386 C367 1.723 . S
C386 C385 1.396 . S
C386 C387 1.394 . S
C387 C383 1.397 . S
C387 C386 1.394 . S
C387 C397 1.723 . S
C388 C385 1.453 . S
C388 H412 0.982 . S
C388 H413 0.979 . S
C388 H414 0.977 . S
C389 C385 1.684 . S
C389 H415 0.979 . S
C389 H416 0.980 . S
C389 H417 0.983 . S
C390 H366 0.948 . S
C390 C391 1.391 . S
C390 C395 1.391 . S
C391 C390 1.391 . S
C391 C392 1.391 . S
C392 H369 0.947 . S
C392 C391 1.391 . S
C392 C393 1.392 . S
C393 H370 0.948 . S
C393 C392 1.392 . S
C393 C394 1.419 . S
C394 C393 1.419 . S
C394 C395 1.391 . S
C394 C398 1.397 . S
C395 C390 1.391 . S
C395 C394 1.391 . S
C395 C396 1.399 . S
C396 C395 1.399 . S
C396 C397 1.396 . S
C396 C399 1.453 . S
C396 C400 1.684 . S
C397 C387 1.723 . S
C397 C396 1.396 . S
C397 C398 1.394 . S
C398 C368 1.723 . S
C398 C394 1.397 . S
C398 C397 1.394 . S
C399 H371 0.982 . S
C399 H375 0.979 . S
C399 H376 0.977 . S
C399 C396 1.453 . S
C400 H372 0.979 . S
C400 H373 0.980 . S
C400 H374 0.983 . S
C400 C396 1.684 . S
H401 C419 0.948 . S
H402 C360 0.948 . S
H403 C378 0.979 . S
H404 C378 0.980 . S
H405 C378 0.983 . S
H406 C377 0.982 . S
H407 C377 0.979 . S
H408 C377 0.977 . S
H409 C379 0.948 . S
H410 C381 0.947 . S
H411 C382 0.948 . S
H412 C388 0.982 . S
H413 C388 0.979 . S
H414 C388 0.977 . S
H415 C389 0.979 . S
H416 C389 0.980 . S
H417 C389 0.983 . S
H418 C362 0.947 . S
C419 C362 1.392 . S
C419 C363 1.419 . S
C419 H401 0.948 . S
C420 C421 1.391 . S
C420 C424 1.391 . S
C420 H462 0.948 . S
C421 C420 1.391 . S
C421 C422 1.391 . S
C422 C421 1.391 . S
C422 H478 0.947 . S
C422 C479 1.392 . S
C423 C424 1.391 . S
C423 C427 1.397 . S
C423 C479 1.419 . S
C424 C420 1.391 . S
C424 C423 1.391 . S
C424 C425 1.399 . S
C425 C424 1.399 . S
C425 C428 1.396 . S
C425 C437 1.453 . S
C425 C438 1.684 . S
H426 C450 0.948 . S
C427 C423 1.397 . S
C427 C428 1.394 . S
C427 C446 1.723 . S
C428 C425 1.396 . S
C428 C427 1.394 . S
C428 C458 1.723 . S
H429 C452 0.947 . S
H430 C453 0.948 . S
H431 C459 0.982 . S
H432 C460 0.979 . S
H433 C460 0.980 . S
H434 C460 0.983 . S
H435 C459 0.979 . S
H436 C459 0.977 . S
C437 C425 1.453 . S
C437 H466 0.982 . S
C437 H467 0.979 . S
C437 H468 0.977 . S
C438 C425 1.684 . S
C438 H463 0.979 . S
C438 H464 0.980 . S
C438 H465 0.983 . S
C439 C440 1.391 . S
C439 C444 1.391 . S
C439 H469 0.948 . S
C440 C439 1.391 . S
C440 C441 1.391 . S
C441 C440 1.391 . S
C441 C442 1.392 . S
C441 H470 0.947 . S
C442 C441 1.392 . S
C442 C443 1.419 . S
C442 H471 0.948 . S
C443 C442 1.419 . S
C443 C444 1.391 . S
C443 C447 1.397 . S
C444 C439 1.391 . S
C444 C443 1.391 . S
C444 C445 1.399 . S
C445 C444 1.399 . S
C445 C446 1.396 . S
C445 C448 1.453 . S
C445 C449 1.684 . S
C446 C427 1.723 . S
C446 C445 1.396 . S
C446 C447 1.394 . S
C447 C443 1.397 . S
C447 C446 1.394 . S
C447 C457 1.723 . S
C448 C445 1.453 . S
C448 H472 0.982 . S
C448 H473 0.979 . S
C448 H474 0.977 . S
C449 C445 1.684 . S
C449 H475 0.979 . S
C449 H476 0.980 . S
C449 H477 0.983 . S
C450 H426 0.948 . S
C450 C451 1.391 . S
C450 C455 1.391 . S
C451 C450 1.391 . S
C451 C452 1.391 . S
C452 H429 0.947 . S
C452 C451 1.391 . S
C452 C453 1.392 . S
C453 H430 0.948 . S
C453 C452 1.392 . S
C453 C454 1.419 . S
C454 C453 1.419 . S
C454 C455 1.391 . S
C454 C458 1.397 . S
C455 C450 1.391 . S
C455 C454 1.391 . S
C455 C456 1.399 . S
C456 C455 1.399 . S
C456 C457 1.396 . S
C456 C459 1.453 . S
C456 C460 1.684 . S
C457 C447 1.723 . S
C457 C456 1.396 . S
C457 C458 1.394 . S
C458 C428 1.723 . S
C458 C454 1.397 . S
C458 C457 1.394 . S
C459 H431 0.982 . S
C459 H435 0.979 . S
C459 H436 0.977 . S
C459 C456 1.453 . S
C460 H432 0.979 . S
C460 H433 0.980 . S
C460 H434 0.983 . S
C460 C456 1.684 . S
H461 C479 0.948 . S
H462 C420 0.948 . S
H463 C438 0.979 . S
H464 C438 0.980 . S
H465 C438 0.983 . S
H466 C437 0.982 . S
H467 C437 0.979 . S
H468 C437 0.977 . S
H469 C439 0.948 . S
H470 C441 0.947 . S
H471 C442 0.948 . S
H472 C448 0.982 . S
H473 C448 0.979 . S
H474 C448 0.977 . S
H475 C449 0.979 . S
H476 C449 0.980 . S
H477 C449 0.983 . S
H478 C422 0.947 . S
C479 C422 1.392 . S
C479 C423 1.419 . S
C479 H461 0.948 . S
C480 C481 1.391 . S
C480 C484 1.391 . S
C480 H522 0.948 . S
C481 C480 1.391 . S
C481 C482 1.391 . S
C482 C481 1.391 . S
C482 H538 0.947 . S
C482 C539 1.392 . S
C483 C484 1.391 . S
C483 C487 1.397 . S
C483 C539 1.419 . S
C484 C480 1.391 . S
C484 C483 1.391 . S
C484 C485 1.399 . S
C485 C484 1.399 . S
C485 C488 1.396 . S
C485 C497 1.453 . S
C485 C498 1.684 . S
H486 C510 0.948 . S
C487 C483 1.397 . S
C487 C488 1.394 . S
C487 C506 1.723 . S
C488 C485 1.396 . S
C488 C487 1.394 . S
C488 C518 1.723 . S
H489 C512 0.947 . S
H490 C513 0.948 . S
H491 C519 0.982 . S
H492 C520 0.979 . S
H493 C520 0.980 . S
H494 C520 0.983 . S
H495 C519 0.979 . S
H496 C519 0.977 . S
C497 C485 1.453 . S
C497 H526 0.982 . S
C497 H527 0.979 . S
C497 H528 0.977 . S
C498 C485 1.684 . S
C498 H523 0.979 . S
C498 H524 0.980 . S
C498 H525 0.983 . S
C499 C500 1.391 . S
C499 C504 1.391 . S
C499 H529 0.948 . S
C500 C499 1.391 . S
C500 C501 1.391 . S
C501 C500 1.391 . S
C501 C502 1.392 . S
C501 H530 0.947 . S
C502 C501 1.392 . S
C502 C503 1.419 . S
C502 H531 0.948 . S
C503 C502 1.419 . S
C503 C504 1.391 . S
C503 C507 1.397 . S
C504 C499 1.391 . S
C504 C503 1.391 . S
C504 C505 1.399 . S
C505 C504 1.399 . S
C505 C506 1.396 . S
C505 C508 1.453 . S
C505 C509 1.684 . S
C506 C487 1.723 . S
C506 C505 1.396 . S
C506 C507 1.394 . S
C507 C503 1.397 . S
C507 C506 1.394 . S
C507 C517 1.723 . S
C508 C505 1.453 . S
C508 H532 0.982 . S
C508 H533 0.979 . S
C508 H534 0.977 . S
C509 C505 1.684 . S
C509 H535 0.979 . S
C509 H536 0.980 . S
C509 H537 0.983 . S
C510 H486 0.948 . S
C510 C511 1.391 . S
C510 C515 1.391 . S
C511 C510 1.391 . S
C511 C512 1.391 . S
C512 H489 0.947 . S
C512 C511 1.391 . S
C512 C513 1.392 . S
C513 H490 0.948 . S
C513 C512 1.392 . S
C513 C514 1.419 . S
C514 C513 1.419 . S
C514 C515 1.391 . S
C514 C518 1.397 . S
C515 C510 1.391 . S
C515 C514 1.391 . S
C515 C516 1.399 . S
C516 C515 1.399 . S
C516 C517 1.396 . S
C516 C519 1.453 . S
C516 C520 1.684 . S
C517 C507 1.723 . S
C517 C516 1.396 . S
C517 C518 1.394 . S
C518 C488 1.723 . S
C518 C514 1.397 . S
C518 C517 1.394 . S
C519 H491 0.982 . S
C519 H495 0.979 . S
C519 H496 0.977 . S
C519 C516 1.453 . S
C520 H492 0.979 . S
C520 H493 0.980 . S
C520 H494 0.983 . S
C520 C516 1.684 . S
H521 C539 0.948 . S
H522 C480 0.948 . S
H523 C498 0.979 . S
H524 C498 0.980 . S
H525 C498 0.983 . S
H526 C497 0.982 . S
H527 C497 0.979 . S
H528 C497 0.977 . S
H529 C499 0.948 . S
H530 C501 0.947 . S
H531 C502 0.948 . S
H532 C508 0.982 . S
H533 C508 0.979 . S
H534 C508 0.977 . S
H535 C509 0.979 . S
H536 C509 0.980 . S
H537 C509 0.983 . S
H538 C482 0.947 . S
C539 C482 1.392 . S
C539 C483 1.419 . S
C539 H521 0.948 . S
C540 C541 1.391 . S
C540 C544 1.391 . S
C540 H582 0.948 . S
C541 C540 1.391 . S
C541 C542 1.391 . S
C542 C541 1.391 . S
C542 H598 0.947 . S
C542 C599 1.392 . S
C543 C544 1.391 . S
C543 C547 1.397 . S
C543 C599 1.419 . S
C544 C540 1.391 . S
C544 C543 1.391 . S
C544 C545 1.399 . S
C545 C544 1.399 . S
C545 C548 1.396 . S
C545 C557 1.453 . S
C545 C558 1.684 . S
H546 C570 0.948 . S
C547 C543 1.397 . S
C547 C548 1.394 . S
C547 C566 1.723 . S
C548 C545 1.396 . S
C548 C547 1.394 . S
C548 C578 1.723 . S
H549 C572 0.947 . S
H550 C573 0.948 . S
H551 C579 0.982 . S
H552 C580 0.979 . S
H553 C580 0.980 . S
H554 C580 0.983 . S
H555 C579 0.979 . S
H556 C579 0.977 . S
C557 C545 1.453 . S
C557 H586 0.982 . S
C557 H587 0.979 . S
C557 H588 0.977 . S
C558 C545 1.684 . S
C558 H583 0.979 . S
C558 H584 0.980 . S
C558 H585 0.983 . S
C559 C560 1.391 . S
C559 C564 1.391 . S
C559 H589 0.948 . S
C560 C559 1.391 . S
C560 C561 1.391 . S
C561 C560 1.391 . S
C561 C562 1.392 . S
C561 H590 0.947 . S
C562 C561 1.392 . S
C562 C563 1.419 . S
C562 H591 0.948 . S
C563 C562 1.419 . S
C563 C564 1.391 . S
C563 C567 1.397 . S
C564 C559 1.391 . S
C564 C563 1.391 . S
C564 C565 1.399 . S
C565 C564 1.399 . S
C565 C566 1.396 . S
C565 C568 1.453 . S
C565 C569 1.684 . S
C566 C547 1.723 . S
C566 C565 1.396 . S
C566 C567 1.394 . S
C567 C563 1.397 . S
C567 C566 1.394 . S
C567 C577 1.723 . S
C568 C565 1.453 . S
C568 H592 0.982 . S
C568 H593 0.979 . S
C568 H594 0.977 . S
C569 C565 1.684 . S
C569 H595 0.979 . S
C569 H596 0.980 . S
C569 H597 0.983 . S
C570 H546 0.948 . S
C570 C571 1.391 . S
C570 C575 1.391 . S
C571 C570 1.391 . S
C571 C572 1.391 . S
C572 H549 0.947 . S
C572 C571 1.391 . S
C572 C573 1.392 . S
C573 H550 0.948 . S
C573 C572 1.392 . S
C573 C574 1.419 . S
C574 C573 1.419 . S
C574 C575 1.391 . S
C574 C578 1.397 . S
C575 C570 1.391 . S
C575 C574 1.391 . S
C575 C576 1.399 . S
C576 C575 1.399 . S
C576 C577 1.396 . S
C576 C579 1.453 . S
C576 C580 1.684 . S
C577 C567 1.723 . S
C577 C576 1.396 . S
C577 C578 1.394 . S
C578 C548 1.723 . S
C578 C574 1.397 . S
C578 C577 1.394 . S
C579 H551 0.982 . S
C579 H555 0.979 . S
C579 H556 0.977 . S
C579 C576 1.453 . S
C580 H552 0.979 . S
C580 H553 0.980 . S
C580 H554 0.983 . S
C580 C576 1.684 . S
H581 C599 0.948 . S
H582 C540 0.948 . S
H583 C558 0.979 . S
H584 C558 0.980 . S
H585 C558 0.983 . S
H586 C557 0.982 . S
H587 C557 0.979 . S
H588 C557 0.977 . S
H589 C559 0.948 . S
H590 C561 0.947 . S
H591 C562 0.948 . S
H592 C568 0.982 . S
H593 C568 0.979 . S
H594 C568 0.977 . S
H595 C569 0.979 . S
H596 C569 0.980 . S
H597 C569 0.983 . S
H598 C542 0.947 . S
C599 C542 1.392 . S
C599 C543 1.419 . S
C599 H581 0.948 . S
C600 C601 1.391 . S
C600 C604 1.391 . S
C600 H642 0.948 . S
C601 C600 1.391 . S
C601 C602 1.391 . S
C602 C601 1.391 . S
C602 H658 0.947 . S
C602 C659 1.392 . S
C603 C604 1.391 . S
C603 C607 1.397 . S
C603 C659 1.419 . S
C604 C600 1.391 . S
C604 C603 1.391 . S
C604 C605 1.399 . S
C605 C604 1.399 . S
C605 C608 1.396 . S
C605 C617 1.453 . S
C605 C618 1.684 . S
H606 C630 0.948 . S
C607 C603 1.397 . S
C607 C608 1.394 . S
C607 C626 1.723 . S
C608 C605 1.396 . S
C608 C607 1.394 . S
C608 C638 1.723 . S
H609 C632 0.947 . S
H610 C633 0.948 . S
H611 C639 0.982 . S
H612 C640 0.979 . S
H613 C640 0.980 . S
H614 C640 0.983 . S
H615 C639 0.979 . S
H616 C639 0.977 . S
C617 C605 1.453 . S
C617 H646 0.982 . S
C617 H647 0.979 . S
C617 H648 0.977 . S
C618 C605 1.684 . S
C618 H643 0.979 . S
C618 H644 0.980 . S
C618 H645 0.983 . S
C619 C620 1.391 . S
C619 C624 1.391 . S
C619 H649 0.948 . S
C620 C619 1.391 . S
C620 C621 1.391 . S
C621 C620 1.391 . S
C621 C622 1.392 . S
C621 H650 0.947 . S
C622 C621 1.392 . S
C622 C623 1.419 . S
C622 H651 0.948 . S
C623 C622 1.419 . S
C623 C624 1.391 . S
C623 C627 1.397 . S
C624 C619 1.391 . S
C624 C623 1.391 . S
C624 C625 1.399 . S
C625 C624 1.399 . S
C625 C626 1.396 . S
C625 C628 1.453 . S
C625 C629 1.684 . S
C626 C607 1.723 . S
C626 C625 1.396 . S
C626 C627 1.394 . S
C627 C623 1.397 . S
C627 C626 1.394 . S
C627 C637 1.723 . S
C628 C625 1.453 . S
C628 H652 0.982 . S
C628 H653 0.979 . S
C628 H654 0.977 . S
C629 C625 1.684 . S
C629 H655 0.979 . S
C629 H656 0.980 . S
C629 H657 0.983 . S
C630 H606 0.948 . S
C630 C631 1.391 . S
C630 C635 1.391 . S
C631 C630 1.391 . S
C631 C632 1.391 . S
C632 H609 0.947 . S
C632 C631 1.391 . S
C632 C633 1.392 . S
C633 H610 0.948 . S
C633 C632 1.392 . S
C633 C634 1.419 . S
C634 C633 1.419 . S
C634 C635 1.391 . S
C634 C638 1.397 . S
C635 C630 1.391 . S
C635 C634 1.391 . S
C635 C636 1.399 . S
C636 C635 1.399 . S
C636 C637 1.396 . S
C636 C639 1.453 . S
C636 C640 1.684 . S
C637 C627 1.723 . S
C637 C636 1.396 . S
C637 C638 1.394 . S
C638 C608 1.723 . S
C638 C634 1.397 . S
C638 C637 1.394 . S
C639 H611 0.982 . S
C639 H615 0.979 . S
C639 H616 0.977 . S
C639 C636 1.453 . S
C640 H612 0.979 . S
C640 H613 0.980 . S
C640 H614 0.983 . S
C640 C636 1.684 . S
H641 C659 0.948 . S
H642 C600 0.948 . S
H643 C618 0.979 . S
H644 C618 0.980 . S
H645 C618 0.983 . S
H646 C617 0.982 . S
H647 C617 0.979 . S
H648 C617 0.977 . S
H649 C619 0.948 . S
H650 C621 0.947 . S
H651 C622 0.948 . S
H652 C628 0.982 . S
H653 C628 0.979 . S
H654 C628 0.977 . S
H655 C629 0.979 . S
H656 C629 0.980 . S
H657 C629 0.983 . S
H658 C602 0.947 . S
C659 C602 1.392 . S
C659 C603 1.419 . S
C659 H641 0.948 . S
C660 C661 1.391 . S
C660 C664 1.391 . S
C660 H702 0.948 . S
C661 C660 1.391 . S
C661 C662 1.391 . S
C662 C661 1.391 . S
C662 H718 0.947 . S
C662 C719 1.392 . S
C663 C664 1.391 . S
C663 C667 1.397 . S
C663 C719 1.419 . S
C664 C660 1.391 . S
C664 C663 1.391 . S
C664 C665 1.399 . S
C665 C664 1.399 . S
C665 C668 1.396 . S
C665 C677 1.453 . S
C665 C678 1.684 . S
H666 C690 0.948 . S
C667 C663 1.397 . S
C667 C668 1.394 . S
C667 C686 1.723 . S
C668 C665 1.396 . S
C668 C667 1.394 . S
C668 C698 1.723 . S
H669 C692 0.947 . S
H670 C693 0.948 . S
H671 C699 0.982 . S
H672 C700 0.979 . S
H673 C700 0.980 . S
H674 C700 0.983 . S
H675 C699 0.979 . S
H676 C699 0.977 . S
C677 C665 1.453 . S
C677 H706 0.982 . S
C677 H707 0.979 . S
C677 H708 0.977 . S
C678 C665 1.684 . S
C678 H703 0.979 . S
C678 H704 0.980 . S
C678 H705 0.983 . S
C679 C680 1.391 . S
C679 C684 1.391 . S
C679 H709 0.948 . S
C680 C679 1.391 . S
C680 C681 1.391 . S
C681 C680 1.391 . S
C681 C682 1.392 . S
C681 H710 0.947 . S
C682 C681 1.392 . S
C682 C683 1.419 . S
C682 H711 0.948 . S
C683 C682 1.419 . S
C683 C684 1.391 . S
C683 C687 1.397 . S
C684 C679 1.391 . S
C684 C683 1.391 . S
C684 C685 1.399 . S
C685 C684 1.399 . S
C685 C686 1.396 . S
C685 C688 1.453 . S
C685 C689 1.684 . S
C686 C667 1.723 . S
C686 C685 1.396 . S
C686 C687 1.394 . S
C687 C683 1.397 . S
C687 C686 1.394 . S
C687 C697 1.723 . S
C688 C685 1.453 . S
C688 H712 0.982 . S
C688 H713 0.979 . S
C688 H714 0.977 . S
C689 C685 1.684 . S
C689 H715 0.979 . S
C689 H716 0.980 . S
C689 H717 0.983 . S
C690 H666 0.948 . S
C690 C691 1.391 . S
C690 C695 1.391 . S
C691 C690 1.391 . S
C691 C692 1.391 . S
C692 H669 0.947 . S
C692 C691 1.391 . S
C692 C693 1.392 . S
C693 H670 0.948 . S
C693 C692 1.392 . S
C693 C694 1.419 . S
C694 C693 1.419 . S
C694 C695 1.391 . S
C694 C698 1.397 . S
C695 C690 1.391 . S
C695 C694 1.391 . S
C695 C696 1.399 . S
C696 C695 1.399 . S
C696 C697 1.396 . S
C696 C699 1.453 . S
C696 C700 1.684 . S
C697 C687 1.723 . S
C697 C696 1.396 . S
C697 C698 1.394 . S
C698 C668 1.723 . S
C698 C694 1.397 . S
C698 C697 1.394 . S
C699 H671 0.982 . S
C699 H675 0.979 . S
C699 H676 0.977 . S
C699 C696 1.453 . S
C700 H672 0.979 . S
C700 H673 0.980 . S
C700 H674 0.983 . S
C700 C696 1.684 . S
H701 C719 0.948 . S
H702 C660 0.948 . S
H703 C678 0.979 . S
H704 C678 0.980 . S
H705 C678 0.983 . S
H706 C677 0.982 . S
H707 C677 0.979 . S
H708 C677 0.977 . S
H709 C679 0.948 . S
H710 C681 0.947 . S
H711 C682 0.948 . S
H712 C688 0.982 . S
H713 C688 0.979 . S
H714 C688 0.977 . S
H715 C689 0.979 . S
H716 C689 0.980 . S
H717 C689 0.983 . S
H718 C662 0.947 . S
C719 C662 1.392 . S
C719 C663 1.419 . S
C719 H701 0.948 . S
C720 C721 1.391 . S
C720 C724 1.391 . S
C720 H762 0.948 . S
C721 C720 1.391 . S
C721 C722 1.391 . S
C722 C721 1.391 . S
C722 H778 0.947 . S
C722 C779 1.392 . S
C723 C724 1.391 . S
C723 C727 1.397 . S
C723 C779 1.419 . S
C724 C720 1.391 . S
C724 C723 1.391 . S
C724 C725 1.399 . S
C725 C724 1.399 . S
C725 C728 1.396 . S
C725 C737 1.453 . S
C725 C738 1.684 . S
H726 C750 0.948 . S
C727 C723 1.397 . S
C727 C728 1.394 . S
C727 C746 1.723 . S
C728 C725 1.396 . S
C728 C727 1.394 . S
C728 C758 1.723 . S
H729 C752 0.947 . S
H730 C753 0.948 . S
H731 C759 0.982 . S
H732 C760 0.979 . S
H733 C760 0.980 . S
H734 C760 0.983 . S
H735 C759 0.979 . S
H736 C759 0.977 . S
C737 C725 1.453 . S
C737 H766 0.982 . S
C737 H767 0.979 . S
C737 H768 0.977 . S
C738 C725 1.684 . S
C738 H763 0.979 . S
C738 H764 0.980 . S
C738 H765 0.983 . S
C739 C740 1.391 . S
C739 C744 1.391 . S
C739 H769 0.948 . S
C740 C739 1.391 . S
C740 C741 1.391 . S
C741 C740 1.391 . S
C741 C742 1.392 . S
C741 H770 0.947 . S
C742 C741 1.392 . S
C742 C743 1.419 . S
C742 H771 0.948 . S
C743 C742 1.419 . S
C743 C744 1.391 . S
C743 C747 1.397 . S
C744 C739 1.391 . S
C744 C743 1.391 . S
C744 C745 1.399 . S
C745 C744 1.399 . S
C745 C746 1.396 . S
C745 C748 1.453 . S
C745 C749 1.684 . S
C746 C727 1.723 . S
C746 C745 1.396 . S
C746 C747 1.394 . S
C747 C743 1.397 . S
C747 C746 1.394 . S
C747 C757 1.723 . S
C748 C745 1.453 . S
C748 H772 0.982 . S
C748 H773 0.979 . S
C748 H774 0.977 . S
C749 C745 1.684 . S
C749 H775 0.979 . S
C749 H776 0.980 . S
C749 H777 0.983 . S
C750 H726 0.948 . S
C750 C751 1.391 . S
C750 C755 1.391 . S
C751 C750 1.391 . S
C751 C752 1.391 . S
C752 H729 0.947 . S
C752 C751 1.391 . S
C752 C753 1.392 . S
C753 H730 0.948 . S
C753 C752 1.392 . S
C753 C754 1.419 . S
C754 C753 1.419 . S
C754 C755 1.391 . S
C754 C758 1.397 . S
C755 C750 1.391 . S
C755 C754 1.391 . S
C755 C756 1.399 . S
C756 C755 1.399 . S
C756 C757 1.396 . S
C756 C759 1.453 . S
C756 C760 1.684 . S
C757 C747 1.723 . S
C757 C756 1.396 . S
C757 C758 1.394 . S
C758 C728 1.723 . S
C758 C754 1.397 . S
C758 C757 1.394 . S
C759 H731 0.982 . S
C759 H735 0.979 . S
C759 H736 0.977 . S
C759 C756 1.453 . S
C760 H732 0.979 . S
C760 H733 0.980 . S
C760 H734 0.983 . S
C760 C756 1.684 . S
H761 C779 0.948 . S
H762 C720 0.948 . S
H763 C738 0.979 . S
H764 C738 0.980 . S
H765 C738 0.983 . S
H766 C737 0.982 . S
H767 C737 0.979 . S
H768 C737 0.977 . S
H769 C739 0.948 . S
H770 C741 0.947 . S
H771 C742 0.948 . S
H772 C748 0.982 . S
H773 C748 0.979 . S
H774 C748 0.977 . S
H775 C749 0.979 . S
H776 C749 0.980 . S
H777 C749 0.983 . S
H778 C722 0.947 . S
C779 C722 1.392 . S
C779 C723 1.419 . S
C779 H761 0.948 . S
C780 C781 1.391 . S
C780 C784 1.391 . S
C780 H822 0.948 . S
C781 C780 1.391 . S
C781 C782 1.391 . S
C782 C781 1.391 . S
C782 H838 0.947 . S
C782 C839 1.392 . S
C783 C784 1.391 . S
C783 C787 1.397 . S
C783 C839 1.419 . S
C784 C780 1.391 . S
C784 C783 1.391 . S
C784 C785 1.399 . S
C785 C784 1.399 . S
C785 C788 1.396 . S
C785 C797 1.453 . S
C785 C798 1.684 . S
H786 C810 0.948 . S
C787 C783 1.397 . S
C787 C788 1.394 . S
C787 C806 1.723 . S
C788 C785 1.396 . S
C788 C787 1.394 . S
C788 C818 1.723 . S
H789 C812 0.947 . S
H790 C813 0.948 . S
H791 C819 0.982 . S
H792 C820 0.979 . S
H793 C820 0.980 . S
H794 C820 0.983 . S
H795 C819 0.979 . S
H796 C819 0.977 . S
C797 C785 1.453 . S
C797 H826 0.982 . S
C797 H827 0.979 . S
C797 H828 0.977 . S
C798 C785 1.684 . S
C798 H823 0.979 . S
C798 H824 0.980 . S
C798 H825 0.983 . S
C799 C800 1.391 . S
C799 C804 1.391 . S
C799 H829 0.948 . S
C800 C799 1.391 . S
C800 C801 1.391 . S
C801 C800 1.391 . S
C801 C802 1.392 . S
C801 H830 0.947 . S
C802 C801 1.392 . S
C802 C803 1.419 . S
C802 H831 0.948 . S
C803 C802 1.419 . S
C803 C804 1.391 . S
C803 C807 1.397 . S
C804 C799 1.391 . S
C804 C803 1.391 . S
C804 C805 1.399 . S
C805 C804 1.399 . S
C805 C806 1.396 . S
C805 C808 1.453 . S
C805 C809 1.684 . S
C806 C787 1.723 . S
C806 C805 1.396 . S
C806 C807 1.394 . S
C807 C803 1.397 . S
C807 C806 1.394 . S
C807 C817 1.723 . S
C808 C805 1.453 . S
C808 H832 0.982 . S
C808 H833 0.979 . S
C808 H834 0.977 . S
C809 C805 1.684 . S
C809 H835 0.979 . S
C809 H836 0.980 . S
C809 H837 0.983 . S
C810 H786 0.948 . S
C810 C811 1.391 . S
C810 C815 1.391 . S
C811 C810 1.391 . S
C811 C812 1.391 . S
C812 H789 0.947 . S
C812 C811 1.391 . S
C812 C813 1.392 . S
C813 H790 0.948 . S
C813 C812 1.392 . S
C813 C814 1.419 . S
C814 C813 1.419 . S
C814 C815 1.391 . S
C814 C818 1.397 . S
C815 C810 1.391 . S
C815 C814 1.391 . S
C815 C816 1.399 . S
C816 C815 1.399 . S
C816 C817 1.396 . S
C816 C819 1.453 . S
C816 C820 1.684 . S
C817 C807 1.723 . S
C817 C816 1.396 . S
C817 C818 1.394 . S
C818 C788 1.723 . S
C818 C814 1.397 . S
C818 C817 1.394 . S
C819 H791 0.982 . S
C819 H795 0.979 . S
C819 H796 0.977 . S
C819 C816 1.453 . S
C820 H792 0.979 . S
C820 H793 0.980 . S
C820 H794 0.983 . S
C820 C816 1.684 . S
H821 C839 0.948 . S
H822 C780 0.948 . S
H823 C798 0.979 . S
H824 C798 0.980 . S
H825 C798 0.983 . S
H826 C797 0.982 . S
H827 C797 0.979 . S
H828 C797 0.977 . S
H829 C799 0.948 . S
H830 C801 0.947 . S
H831 C802 0.948 . S
H832 C808 0.982 . S
H833 C808 0.979 . S
H834 C808 0.977 . S
H835 C809 0.979 . S
H836 C809 0.980 . S
H837 C809 0.983 . S
H838 C782 0.947 . S
C839 C782 1.392 . S
C839 C783 1.419 . S
C839 H821 0.948 . S
C840 C841 1.391 . S
C840 C844 1.391 . S
C840 H882 0.948 . S
C841 C840 1.391 . S
C841 C842 1.391 . S
C842 C841 1.391 . S
C842 H898 0.947 . S
C842 C899 1.392 . S
C843 C844 1.391 . S
C843 C847 1.397 . S
C843 C899 1.419 . S
C844 C840 1.391 . S
C844 C843 1.391 . S
C844 C845 1.399 . S
C845 C844 1.399 . S
C845 C848 1.396 . S
C845 C857 1.453 . S
C845 C858 1.684 . S
H846 C870 0.948 . S
C847 C843 1.397 . S
C847 C848 1.394 . S
C847 C866 1.723 . S
C848 C845 1.396 . S
C848 C847 1.394 . S
C848 C878 1.723 . S
H849 C872 0.947 . S
H850 C873 0.948 . S
H851 C879 0.982 . S
H852 C880 0.979 . S
H853 C880 0.980 . S
H854 C880 0.983 . S
H855 C879 0.979 . S
H856 C879 0.977 . S
C857 C845 1.453 . S
C857 H886 0.982 . S
C857 H887 0.979 . S
C857 H888 0.977 . S
C858 C845 1.684 . S
C858 H883 0.979 . S
C858 H884 0.980 . S
C858 H885 0.983 . S
C859 C860 1.391 . S
C859 C864 1.391 . S
C859 H889 0.948 . S
C860 C859 1.391 . S
C860 C861 1.391 . S
C861 C860 1.391 . S
C861 C862 1.392 . S
C861 H890 0.947 . S
C862 C861 1.392 . S
C862 C863 1.419 . S
C862 H891 0.948 . S
C863 C862 1.419 . S
C863 C864 1.391 . S
C863 C867 1.397 . S
C864 C859 1.391 . S
C864 C863 1.391 . S
C864 C865 1.399 . S
C865 C864 1.399 . S
C865 C866 1.396 . S
C865 C868 1.453 . S
C865 C869 1.684 . S
C866 C847 1.723 . S
C866 C865 1.396 . S
C866 C867 1.394 . S
C867 C863 1.397 . S
C867 C866 1.394 . S
C867 C877 1.723 . S
C868 C865 1.453 . S
C868 H892 0.982 . S
C868 H893 0.979 . S
C868 H894 0.977 . S
C869 C865 1.684 . S
C869 H895 0.979 . S
C869 H896 0.980 . S
C869 H897 0.983 . S
C870 H846 0.948 . S
C870 C871 1.391 . S
C870 C875 1.391 . S
C871 C870 1.391 . S
C871 C872 1.391 . S
C872 H849 0.947 . S
C872 C871 1.391 . S
C872 C873 1.392 . S
C873 H850 0.948 . S
C873 C872 1.392 . S
C873 C874 1.419 . S
C874 C873 1.419 . S
C874 C875 1.391 . S
C874 C878 1.397 . S
C875 C870 1.391 . S
C875 C874 1.391 . S
C875 C876 1.399 . S
C876 C875 1.399 . S
C876 C877 1.396 . S
C876 C879 1.453 . S
C876 C880 1.684 . S
C877 C867 1.723 . S
C877 C876 1.396 . S
C877 C878 1.394 . S
C878 C848 1.723 . S
C878 C874 1.397 . S
C878 C877 1.394 . S
C879 H851 0.982 . S
C879 H855 0.979 . S
C879 H856 0.977 . S
C879 C876 1.453 . S
C880 H852 0.979 . S
C880 H853 0.980 . S
C880 H854 0.983 . S
C880 C876 1.684 . S
H881 C899 0.948 . S
H882 C840 0.948 . S
H883 C858 0.979 . S
H884 C858 0.980 . S
H885 C858 0.983 . S
H886 C857 0.982 . S
H887 C857 0.979 . S
H888 C857 0.977 . S
H889 C859 0.948 . S
H890 C861 0.947 . S
H891 C862 0.948 . S
H892 C868 0.982 . S
H893 C868 0.979 . S
H894 C868 0.977 . S
H895 C869 0.979 . S
H896 C869 0.980 . S
H897 C869 0.983 . S
H898 C842 0.947 . S
C899 C842 1.392 . S
C899 C843 1.419 . S
C899 H881 0.948 . S
C900 C901 1.391 . S
C900 C904 1.391 . S
C900 H942 0.948 . S
C901 C900 1.391 . S
C901 C902 1.391 . S
C902 C901 1.391 . S
C902 H958 0.947 . S
C902 C959 1.392 . S
C903 C904 1.391 . S
C903 C907 1.397 . S
C903 C959 1.419 . S
C904 C900 1.391 . S
C904 C903 1.391 . S
C904 C905 1.399 . S
C905 C904 1.399 . S
C905 C908 1.396 . S
C905 C917 1.453 . S
C905 C918 1.684 . S
H906 C930 0.948 . S
C907 C903 1.397 . S
C907 C908 1.394 . S
C907 C926 1.723 . S
C908 C905 1.396 . S
C908 C907 1.394 . S
C908 C938 1.723 . S
H909 C932 0.947 . S
H910 C933 0.948 . S
H911 C939 0.982 . S
H912 C940 0.979 . S
H913 C940 0.980 . S
H914 C940 0.983 . S
H915 C939 0.979 . S
H916 C939 0.977 . S
C917 C905 1.453 . S
C917 H946 0.982 . S
C917 H947 0.979 . S
C917 H948 0.977 . S
C918 C905 1.684 . S
C918 H943 0.979 . S
C918 H944 0.980 . S
C918 H945 0.983 . S
C919 C920 1.391 . S
C919 C924 1.391 . S
C919 H949 0.948 . S
C920 C919 1.391 . S
C920 C921 1.391 . S
C921 C920 1.391 . S
C921 C922 1.392 . S
C921 H950 0.947 . S
C922 C921 1.392 . S
C922 C923 1.419 . S
C922 H951 0.948 . S
C923 C922 1.419 . S
C923 C924 1.391 . S
C923 C927 1.397 . S
C924 C919 1.391 . S
C924 C923 1.391 . S
C924 C925 1.399 . S
C925 C924 1.399 . S
C925 C926 1.396 . S
C925 C928 1.453 . S
C925 C929 1.684 . S
C926 C907 1.723 . S
C926 C925 1.396 . S
C926 C927 1.394 . S
C927 C923 1.397 . S
C927 C926 1.394 . S
C927 C937 1.723 . S
C928 C925 1.453 . S
C928 H952 0.982 . S
C928 H953 0.979 . S
C928 H954 0.977 . S
C929 C925 1.684 . S
C929 H955 0.979 . S
C929 H956 0.980 . S
C929 H957 0.983 . S
C930 H906 0.948 . S
C930 C931 1.391 . S
C930 C935 1.391 . S
C931 C930 1.391 . S
C931 C932 1.391 . S
C932 H909 0.947 . S
C932 C931 1.391 . S
C932 C933 1.392 . S
C933 H910 0.948 . S
C933 C932 1.392 . S
C933 C934 1.419 . S
C934 C933 1.419 . S
C934 C935 1.391 . S
C934 C938 1.397 . S
C935 C930 1.391 . S
C935 C934 1.391 . S
C935 C936 1.399 . S
C936 C935 1.399 . S
C936 C937 1.396 . S
C936 C939 1.453 . S
C936 C940 1.684 . S
C937 C927 1.723 . S
C937 C936 1.396 . S
C937 C938 1.394 . S
C938 C908 1.723 . S
C938 C934 1.397 . S
C938 C937 1.394 . S
C939 H911 0.982 . S
C939 H915 0.979 . S
C939 H916 0.977 . S
C939 C936 1.453 . S
C940 H912 0.979 . S
C940 H913 0.980 . S
C940 H914 0.983 . S
C940 C936 1.684 . S
H941 C959 0.948 . S
H942 C900 0.948 . S
H943 C918 0.979 . S
H944 C918 0.980 . S
H945 C918 0.983 . S
H946 C917 0.982 . S
H947 C917 0.979 . S
H948 C917 0.977 . S
H949 C919 0.948 . S
H950 C921 0.947 . S
H951 C922 0.948 . S
H952 C928 0.982 . S
H953 C928 0.979 . S
H954 C928 0.977 . S
H955 C929 0.979 . S
H956 C929 0.980 . S
H957 C929 0.983 . S
H958 C902 0.947 . S
C959 C902 1.392 . S
C959 C903 1.419 . S
C959 H941 0.948 . S
C960 C961 1.391 . S
C960 C964 1.391 . S
C960 H1002 0.948 . S
C961 C960 1.391 . S
C961 C962 1.391 . S
C962 C961 1.391 . S
C962 H1018 0.947 . S
C962 C1019 1.392 . S
C963 C964 1.391 . S
C963 C967 1.397 . S
C963 C1019 1.419 . S
C964 C960 1.391 . S
C964 C963 1.391 . S
C964 C965 1.399 . S
C965 C964 1.399 . S
C965 C968 1.396 . S
C965 C977 1.453 . S
C965 C978 1.684 . S
H966 C990 0.948 . S
C967 C963 1.397 . S
C967 C968 1.394 . S
C967 C986 1.723 . S
C968 C965 1.396 . S
C968 C967 1.394 . S
C968 C998 1.723 . S
H969 C992 0.947 . S
H970 C993 0.948 . S
H971 C999 0.982 . S
H972 C1000 0.979 . S
H973 C1000 0.980 . S
H974 C1000 0.983 . S
H975 C999 0.979 . S
H976 C999 0.977 . S
C977 C965 1.453 . S
C977 H1006 0.982 . S
C977 H1007 0.979 . S
C977 H1008 0.977 . S
C978 C965 1.684 . S
C978 H1003 0.979 . S
C978 H1004 0.980 . S
C978 H1005 0.983 . S
C979 C980 1.391 . S
C979 C984 1.391 . S
C979 H1009 0.948 . S
C980 C979 1.391 . S
C980 C981 1.391 . S
C981 C980 1.391 . S
C981 C982 1.392 . S
C981 H1010 0.947 . S
C982 C981 1.392 . S
C982 C983 1.419 . S
C982 H1011 0.948 . S
C983 C982 1.419 . S
C983 C984 1.391 . S
C983 C987 1.397 . S
C984 C979 1.391 . S
C984 C983 1.391 . S
C984 C985 1.399 . S
C985 C984 1.399 . S
C985 C986 1.396 . S
C985 C988 1.453 . S
C985 C989 1.684 . S
C986 C967 1.723 . S
C986 C985 1.396 . S
C986 C987 1.394 . S
C987 C983 1.397 . S
C987 C986 1.394 . S
C987 C997 1.723 . S
C988 C985 1.453 . S
C988 H1012 0.982 . S
C988 H1013 0.979 . S
C988 H1014 0.977 . S
C989 C985 1.684 . S
C989 H1015 0.979 . S
C989 H1016 0.980 . S
C989 H1017 0.983 . S
C990 H966 0.948 . S
C990 C991 1.391 . S
C990 C995 1.391 . S
C991 C990 1.391 . S
C991 C992 1.391 . S
C992 H969 0.947 . S
C992 C991 1.391 . S
C992 C993 1.392 . S
C993 H970 0.948 . S
C993 C992 1.392 . S
C993 C994 1.419 . S
C994 C993 1.419 . S
C994 C995 1.391 . S
C994 C998 1.397 . S
C995 C990 1.391 . S
C995 C994 1.391 . S
C995 C996 1.399 . S
C996 C995 1.399 . S
C996 C997 1.396 . S
C996 C999 1.453 . S
C996 C1000 1.684 . S
C997 C987 1.723 . S
C997 C996 1.396 . S
C997 C998 1.394 . S
C998 C968 1.723 . S
C998 C994 1.397 . S
C998 C997 1.394 . S
C999 H971 0.982 . S
C999 H975 0.979 . S
C999 H976 0.977 . S
C999 C996 1.453 . S
C1000 H972 0.979 . S
C1000 H973 0.980 . S
C1000 H974 0.983 . S
C1000 C996 1.684 . S
H1001 C1019 0.948 . S
H1002 C960 0.948 . S
H1003 C978 0.979 . S
H1004 C978 0.980 . S
H1005 C978 0.983 . S
H1006 C977 0.982 . S
H1007 C977 0.979 . S
H1008 C977 0.977 . S
H1009 C979 0.948 . S
H1010 C981 0.947 . S
H1011 C982 0.948 . S
H1012 C988 0.982 . S
H1013 C988 0.979 . S
H1014 C988 0.977 . S
H1015 C989 0.979 . S
H1016 C989 0.980 . S
H1017 C989 0.983 . S
H1018 C962 0.947 . S
C1019 C962 1.392 . S
C1019 C963 1.419 . S
C1019 H1001 0.948 . S
C1020 C1021 1.391 . S
C1020 C1024 1.391 . S
C1020 H1062 0.948 . S
C1021 C1020 1.391 . S
C1021 C1022 1.391 . S
C1022 C1021 1.391 . S
C1022 H1078 0.947 . S
C1022 C1079 1.392 . S
C1023 C1024 1.391 . S
C1023 C1027 1.397 . S
C1023 C1079 1.419 . S
C1024 C1020 1.391 . S
C1024 C1023 1.391 . S
C1024 C1025 1.399 . S
C1025 C1024 1.399 . S
C1025 C1028 1.396 . S
C1025 C1037 1.453 . S
C1025 C1038 1.684 . S
H1026 C1050 0.948 . S
C1027 C1023 1.397 . S
C1027 C1028 1.394 . S
C1027 C1046 1.723 . S
C1028 C1025 1.396 . S
C1028 C1027 1.394 . S
C1028 C1058 1.723 . S
H1029 C1052 0.947 . S
H1030 C1053 0.948 . S
H1031 C1059 0.982 . S
H1032 C1060 0.979 . S
H1033 C1060 0.980 . S
H1034 C1060 0.983 . S
H1035 C1059 0.979 . S
H1036 C1059 0.977 . S
C1037 C1025 1.453 . S
C1037 H1066 0.982 . S
C1037 H1067 0.979 . S
C1037 H1068 0.977 . S
C1038 C1025 1.684 . S
C1038 H1063 0.979 . S
C1038 H1064 0.980 . S
C1038 H1065 0.983 . S
C1039 C1040 1.391 . S
C1039 C1044 1.391 . S
C1039 H1069 0.948 . S
C1040 C1039 1.391 . S
C1040 C1041 1.391 . S
C1041 C1040 1.391 . S
C1041 C1042 1.392 . S
C1041 H1070 0.947 . S
C1042 C1041 1.392 . S
C1042 C1043 1.419 . S
C1042 H1071 0.948 . S
C1043 C1042 1.419 . S
C1043 C1044 1.391 . S
C1043 C1047 1.397 . S
C1044 C1039 1.391 . S
C1044 C1043 1.391 . S
C1044 C1045 1.399 . S
C1045 C1044 1.399 . S
C1045 C1046 1.396 . S
C1045 C1048 1.453 . S
C1045 C1049 1.684 . S
C1046 C1027 1.723 . S
C1046 C1045 1.396 . S
C1046 C1047 1.394 . S
C1047 C1043 1.397 . S
C1047 C1046 1.394 . S
C1047 C1057 1.723 . S
C1048 C1045 1.453 . S
C1048 H1072 0.982 . S
C1048 H1073 0.979 . S
C1048 H1074 0.977 . S
C1049 C1045 1.684 . S
C1049 H1075 0.979 . S
C1049 H1076 0.980 . S
C1049 H1077 0.983 . S
C1050 H1026 0.948 . S
C1050 C1051 1.391 . S
C1050 C1055 1.391 . S
C1051 C1050 1.391 . S
C1051 C1052 1.391 . S
C1052 H1029 0.947 . S
C1052 C1051 1.391 . S
C1052 C1053 1.392 . S
C1053 H1030 0.948 . S
C1053 C1052 1.392 . S
C1053 C1054 1.419 . S
C1054 C1053 1.419 . S
C1054 C1055 1.391 . S
C1054 C1058 1.397 . S
C1055 C1050 1.391 . S
C1055 C1054 1.391 . S
C1055 C1056 1.399 . S
C1056 C1055 1.399 . S
C1056 C1057 1.396 . S
C1056 C1059 1.453 . S
C1056 C1060 1.684 . S
C1057 C1047 1.723 . S
C1057 C1056 1.396 . S
C1057 C1058 1.394 . S
C1058 C1028 1.723 . S
C1058 C1054 1.397 . S
C1058 C1057 1.394 . S
C1059 H1031 0.982 . S
C1059 H1035 0.979 . S
C1059 H1036 0.977 . S
C1059 C1056 1.453 . S
C1060 H1032 0.979 . S
C1060 H1033 0.980 . S
C1060 H1034 0.983 . S
C1060 C1056 1.684 . S
H1061 C1079 0.948 . S
H1062 C1020 0.948 . S
H1063 C1038 0.979 . S
H1064 C1038 0.980 . S
H1065 C1038 0.983 . S
H1066 C1037 0.982 . S
H1067 C1037 0.979 . S
H1068 C1037 0.977 . S
H1069 C1039 0.948 . S
H1070 C1041 0.947 . S
H1071 C1042 0.948 . S
H1072 C1048 0.982 . S
H1073 C1048 0.979 . S
H1074 C1048 0.977 . S
H1075 C1049 0.979 . S
H1076 C1049 0.980 . S
H1077 C1049 0.983 . S
H1078 C1022 0.947 . S
C1079 C1022 1.392 . S
C1079 C1023 1.419 . S
C1079 H1061 0.948 . S
Tb1080 O1083 2.453 . S
Tb1080 O1084 2.596 1_545 S
Tb1080 O1085 2.374 1_545 S
Tb1080 O1093 2.343 1_554 S
Tb1080 O1095 2.353 . S
Tb1080 O1097 2.427 1_554 S
Tb1080 O1098 2.513 1_554 S
C1081 O1085 1.251 . S
C1081 O1087 1.263 1_554 S
Tb1082 O1084 2.343 1_556 S
Tb1082 O1087 2.353 . S
Tb1082 O1090 2.427 1_556 S
Tb1082 O1091 2.513 1_556 S
Tb1082 O1092 2.453 . S
Tb1082 O1093 2.596 1_565 S
Tb1082 O1094 2.374 1_565 S
O1083 Tb1080 2.453 . S
O1083 C1099 1.245 . S
O1084 Tb1080 2.596 1_565 S
O1084 Tb1082 2.343 1_554 S
O1084 C1099 1.259 1_565 S
O1085 Tb1080 2.374 1_565 S
O1085 C1081 1.251 . S
C1086 O1090 1.275 . S
C1086 O1091 1.246 . S
O1087 C1081 1.263 1_556 S
O1087 Tb1082 2.353 . S
C1088 O1092 1.245 . S
C1088 O1093 1.259 1_565 S
C1089 O1094 1.250 . S
C1089 O1095 1.263 1_556 S
O1090 Tb1082 2.427 1_554 S
O1090 C1086 1.275 . S
O1091 Tb1082 2.513 1_554 S
O1091 C1086 1.246 . S
O1092 Tb1082 2.453 . S
O1092 C1088 1.245 . S
O1093 Tb1080 2.343 1_556 S
O1093 Tb1082 2.596 1_545 S
O1093 C1088 1.259 1_545 S
O1094 Tb1082 2.374 1_545 S
O1094 C1089 1.250 . S
O1095 Tb1080 2.353 . S
O1095 C1089 1.263 1_554 S
C1096 O1097 1.275 . S
C1096 O1098 1.246 . S
O1097 Tb1080 2.427 1_556 S
O1097 C1096 1.275 . S
O1098 Tb1080 2.513 1_556 S
O1098 C1096 1.246 . S
C1099 O1083 1.245 . S
C1099 O1084 1.259 1_545 S
Tb1100 O1103 2.453 . S
Tb1100 O1104 2.596 1_655 S
Tb1100 O1105 2.374 1_655 S
Tb1100 O1113 2.343 1_554 S
Tb1100 O1115 2.344 1_554 S
Tb1100 O1117 2.427 1_554 S
Tb1100 O1118 2.513 1_554 S
C1101 O1105 1.251 . S
C1101 O1107 1.263 . S
Tb1102 O1104 2.343 1_556 S
Tb1102 O1107 2.353 1_556 S
Tb1102 O1110 2.427 1_556 S
Tb1102 O1111 2.513 1_556 S
Tb1102 O1112 2.453 . S
Tb1102 O1113 2.596 1_455 S
Tb1102 O1114 2.374 1_455 S
O1103 Tb1100 2.453 . S
O1103 C1119 1.245 1_655 S
O1104 Tb1100 2.596 1_455 S
O1104 Tb1102 2.343 1_554 S
O1104 C1119 1.259 . S
O1105 Tb1100 2.374 1_455 S
O1105 C1101 1.251 . S
C1106 O1110 1.275 . S
C1106 O1111 1.246 . S
O1107 C1101 1.263 . S
O1107 Tb1102 2.353 1_554 S
C1108 O1112 1.227 1_655 S
C1108 O1113 1.266 . S
C1109 O1114 1.250 . S
C1109 O1115 1.294 . S
O1110 Tb1102 2.427 1_554 S
O1110 C1106 1.275 . S
O1111 Tb1102 2.513 1_554 S
O1111 C1106 1.246 . S
O1112 Tb1102 2.453 . S
O1112 C1108 1.227 1_455 S
O1113 Tb1100 2.343 1_556 S
O1113 Tb1102 2.596 1_655 S
O1113 C1108 1.266 . S
O1114 Tb1102 2.374 1_655 S
O1114 C1109 1.250 . S
O1115 Tb1100 2.344 1_556 S
O1115 C1109 1.294 . S
C1116 O1117 1.275 . S
C1116 O1118 1.246 . S
O1117 Tb1100 2.427 1_556 S
O1117 C1116 1.275 . S
O1118 Tb1100 2.513 1_556 S
O1118 C1116 1.246 . S
C1119 O1103 1.245 1_455 S
C1119 O1104 1.259 . S
Tb1120 O1123 2.453 . S
Tb1120 O1124 2.596 . S
Tb1120 O1125 2.374 . S
Tb1120 O1133 2.343 1_556 S
Tb1120 O1135 2.348 1_556 S
Tb1120 O1137 2.427 1_556 S
Tb1120 O1138 2.513 1_556 S
C1121 O1125 1.251 . S
C1121 O1127 1.240 1_556 S
Tb1122 O1124 2.343 1_554 S
Tb1122 O1127 2.361 . S
Tb1122 O1130 2.427 1_554 S
Tb1122 O1131 2.513 1_554 S
Tb1122 O1132 2.453 . S
Tb1122 O1133 2.596 . S
Tb1122 O1134 2.374 . S
O1123 Tb1120 2.453 . S
O1123 C1139 1.245 . S
O1124 Tb1120 2.596 . S
O1124 Tb1122 2.343 1_556 S
O1124 C1139 1.259 . S
O1125 Tb1120 2.374 . S
O1125 C1121 1.251 . S
C1126 O1130 1.275 . S
C1126 O1131 1.246 . S
O1127 C1121 1.240 1_554 S
O1127 Tb1122 2.361 . S
C1128 O1132 1.245 . S
C1128 O1133 1.259 . S
C1129 O1134 1.250 . S
C1129 O1135 1.284 . S
O1130 Tb1122 2.427 1_556 S
O1130 C1126 1.275 . S
O1131 Tb1122 2.513 1_556 S
O1131 C1126 1.246 . S
O1132 Tb1122 2.453 . S
O1132 C1128 1.245 . S
O1133 Tb1120 2.343 1_554 S
O1133 Tb1122 2.596 . S
O1133 C1128 1.259 . S
O1134 Tb1122 2.374 . S
O1134 C1129 1.250 . S
O1135 Tb1120 2.348 1_554 S
O1135 C1129 1.284 . S
C1136 O1137 1.275 . S
C1136 O1138 1.246 . S
O1137 Tb1120 2.427 1_554 S
O1137 C1136 1.275 . S
O1138 Tb1120 2.513 1_554 S
O1138 C1136 1.246 . S
C1139 O1123 1.245 . S
C1139 O1124 1.259 . S
Tb1140 O1143 2.453 . S
Tb1140 O1144 2.596 . S
Tb1140 O1145 2.374 . S
Tb1140 O1153 2.343 . S
Tb1140 O1155 2.353 . S
Tb1140 O1157 2.427 . S
Tb1140 O1158 2.513 . S
C1141 O1145 1.251 . S
C1141 O1147 1.263 . S
Tb1142 O1144 2.343 . S
Tb1142 O1147 2.353 . S
Tb1142 O1150 2.427 . S
Tb1142 O1151 2.513 . S
Tb1142 O1152 2.453 . S
Tb1142 O1153 2.596 . S
Tb1142 O1154 2.374 . S
O1143 Tb1140 2.453 . S
O1143 C1159 1.245 . S
O1144 Tb1140 2.596 . S
O1144 Tb1142 2.343 . S
O1144 C1159 1.259 . S
O1145 Tb1140 2.374 . S
O1145 C1141 1.251 . S
C1146 O1150 1.275 . S
C1146 O1151 1.246 . S
O1147 C1141 1.263 . S
O1147 Tb1142 2.353 . S
C1148 O1152 1.245 . S
C1148 O1153 1.259 . S
C1149 O1154 1.250 . S
C1149 O1155 1.263 . S
O1150 Tb1142 2.427 . S
O1150 C1146 1.275 . S
O1151 Tb1142 2.513 . S
O1151 C1146 1.246 . S
O1152 Tb1142 2.453 . S
O1152 C1148 1.245 . S
O1153 Tb1140 2.343 . S
O1153 Tb1142 2.596 . S
O1153 C1148 1.259 . S
O1154 Tb1142 2.374 . S
O1154 C1149 1.250 . S
O1155 Tb1140 2.353 . S
O1155 C1149 1.263 . S
C1156 O1157 1.275 . S
C1156 O1158 1.246 . S
O1157 Tb1140 2.427 . S
O1157 C1156 1.275 . S
O1158 Tb1140 2.513 . S
O1158 C1156 1.246 . S
C1159 O1143 1.245 . S
C1159 O1144 1.259 . S
Tb1160 O1163 2.453 . S
Tb1160 O1164 2.596 . S
Tb1160 O1165 2.374 . S
Tb1160 O1173 2.343 . S
Tb1160 O1175 2.353 . S
Tb1160 O1177 2.427 . S
Tb1160 O1178 2.513 . S
C1161 O1165 1.251 . S
C1161 O1167 1.263 . S
Tb1162 O1164 2.343 . S
Tb1162 O1167 2.353 . S
Tb1162 O1170 2.427 . S
Tb1162 O1171 2.513 . S
Tb1162 O1172 2.453 . S
Tb1162 O1173 2.596 . S
Tb1162 O1174 2.374 . S
O1163 Tb1160 2.453 . S
O1163 C1179 1.245 . S
O1164 Tb1160 2.596 . S
O1164 Tb1162 2.343 . S
O1164 C1179 1.259 . S
O1165 Tb1160 2.374 . S
O1165 C1161 1.251 . S
C1166 O1170 1.275 . S
C1166 O1171 1.246 . S
O1167 C1161 1.263 . S
O1167 Tb1162 2.353 . S
C1168 O1172 1.245 . S
C1168 O1173 1.259 . S
C1169 O1174 1.250 . S
C1169 O1175 1.263 . S
O1170 Tb1162 2.427 . S
O1170 C1166 1.275 . S
O1171 Tb1162 2.513 . S
O1171 C1166 1.246 . S
O1172 Tb1162 2.453 . S
O1172 C1168 1.245 . S
O1173 Tb1160 2.343 . S
O1173 Tb1162 2.596 . S
O1173 C1168 1.259 . S
O1174 Tb1162 2.374 . S
O1174 C1169 1.250 . S
O1175 Tb1160 2.353 . S
O1175 C1169 1.263 . S
C1176 O1177 1.275 . S
C1176 O1178 1.246 . S
O1177 Tb1160 2.427 . S
O1177 C1176 1.275 . S
O1178 Tb1160 2.513 . S
O1178 C1176 1.246 . S
C1179 O1163 1.245 . S
C1179 O1164 1.259 . S
Tb1180 O1183 2.453 . S
Tb1180 O1184 2.596 . S
Tb1180 O1185 2.374 . S
Tb1180 O1193 2.343 . S
Tb1180 O1195 2.353 . S
Tb1180 O1197 2.427 . S
Tb1180 O1198 2.513 . S
C1181 O1185 1.251 . S
C1181 O1187 1.263 . S
Tb1182 O1184 2.343 . S
Tb1182 O1187 2.353 . S
Tb1182 O1190 2.427 . S
Tb1182 O1191 2.513 . S
Tb1182 O1192 2.453 . S
Tb1182 O1193 2.596 . S
Tb1182 O1194 2.374 . S
O1183 Tb1180 2.453 . S
O1183 C1199 1.245 . S
O1184 Tb1180 2.596 . S
O1184 Tb1182 2.343 . S
O1184 C1199 1.259 . S
O1185 Tb1180 2.374 . S
O1185 C1181 1.251 . S
C1186 O1190 1.275 . S
C1186 O1191 1.246 . S
O1187 C1181 1.263 . S
O1187 Tb1182 2.353 . S
C1188 O1192 1.245 . S
C1188 O1193 1.259 . S
C1189 O1194 1.250 . S
C1189 O1195 1.263 . S
O1190 Tb1182 2.427 . S
O1190 C1186 1.275 . S
O1191 Tb1182 2.513 . S
O1191 C1186 1.246 . S
O1192 Tb1182 2.453 . S
O1192 C1188 1.245 . S
O1193 Tb1180 2.343 . S
O1193 Tb1182 2.596 . S
O1193 C1188 1.259 . S
O1194 Tb1182 2.374 . S
O1194 C1189 1.250 . S
O1195 Tb1180 2.353 . S
O1195 C1189 1.263 . S
C1196 O1197 1.275 . S
C1196 O1198 1.246 . S
O1197 Tb1180 2.427 . S
O1197 C1196 1.275 . S
O1198 Tb1180 2.513 . S
O1198 C1196 1.246 . S
C1199 O1183 1.245 . S
C1199 O1184 1.259 . S
Tb1200 O1203 2.453 . S
Tb1200 O1204 2.596 . S
Tb1200 O1205 2.374 . S
Tb1200 O1213 2.343 . S
Tb1200 O1215 2.353 . S
Tb1200 O1217 2.427 . S
Tb1200 O1218 2.513 . S
C1201 O1205 1.251 . S
C1201 O1207 1.263 . S
Tb1202 O1204 2.343 . S
Tb1202 O1207 2.353 . S
Tb1202 O1210 2.427 . S
Tb1202 O1211 2.513 . S
Tb1202 O1212 2.453 . S
Tb1202 O1213 2.596 . S
Tb1202 O1214 2.374 . S
O1203 Tb1200 2.453 . S
O1203 C1219 1.245 . S
O1204 Tb1200 2.596 . S
O1204 Tb1202 2.343 . S
O1204 C1219 1.259 . S
O1205 Tb1200 2.374 . S
O1205 C1201 1.251 . S
C1206 O1210 1.275 . S
C1206 O1211 1.246 . S
O1207 C1201 1.263 . S
O1207 Tb1202 2.353 . S
C1208 O1212 1.245 . S
C1208 O1213 1.259 . S
C1209 O1214 1.250 . S
C1209 O1215 1.263 . S
O1210 Tb1202 2.427 . S
O1210 C1206 1.275 . S
O1211 Tb1202 2.513 . S
O1211 C1206 1.246 . S
O1212 Tb1202 2.453 . S
O1212 C1208 1.245 . S
O1213 Tb1200 2.343 . S
O1213 Tb1202 2.596 . S
O1213 C1208 1.259 . S
O1214 Tb1202 2.374 . S
O1214 C1209 1.250 . S
O1215 Tb1200 2.353 . S
O1215 C1209 1.263 . S
C1216 O1217 1.275 . S
C1216 O1218 1.246 . S
O1217 Tb1200 2.427 . S
O1217 C1216 1.275 . S
O1218 Tb1200 2.513 . S
O1218 C1216 1.246 . S
C1219 O1203 1.245 . S
C1219 O1204 1.259 . S
Tb1220 O1223 2.453 . S
Tb1220 O1224 2.596 . S
Tb1220 O1225 2.374 . S
Tb1220 O1233 2.343 . S
Tb1220 O1235 2.353 . S
Tb1220 O1237 2.427 . S
Tb1220 O1238 2.513 . S
C1221 O1225 1.251 . S
C1221 O1227 1.263 . S
Tb1222 O1224 2.343 . S
Tb1222 O1227 2.353 . S
Tb1222 O1230 2.427 . S
Tb1222 O1231 2.513 . S
Tb1222 O1232 2.453 . S
Tb1222 O1233 2.596 . S
Tb1222 O1234 2.374 . S
O1223 Tb1220 2.453 . S
O1223 C1239 1.245 . S
O1224 Tb1220 2.596 . S
O1224 Tb1222 2.343 . S
O1224 C1239 1.259 . S
O1225 Tb1220 2.374 . S
O1225 C1221 1.251 . S
C1226 O1230 1.275 . S
C1226 O1231 1.246 . S
O1227 C1221 1.263 . S
O1227 Tb1222 2.353 . S
C1228 O1232 1.245 . S
C1228 O1233 1.259 . S
C1229 O1234 1.250 . S
C1229 O1235 1.263 . S
O1230 Tb1222 2.427 . S
O1230 C1226 1.275 . S
O1231 Tb1222 2.513 . S
O1231 C1226 1.246 . S
O1232 Tb1222 2.453 . S
O1232 C1228 1.245 . S
O1233 Tb1220 2.343 . S
O1233 Tb1222 2.596 . S
O1233 C1228 1.259 . S
O1234 Tb1222 2.374 . S
O1234 C1229 1.250 . S
O1235 Tb1220 2.353 . S
O1235 C1229 1.263 . S
C1236 O1237 1.275 . S
C1236 O1238 1.246 . S
O1237 Tb1220 2.427 . S
O1237 C1236 1.275 . S
O1238 Tb1220 2.513 . S
O1238 C1236 1.246 . S
C1239 O1223 1.245 . S
C1239 O1224 1.259 . S
Tb1240 O1243 2.453 . S
Tb1240 O1244 2.596 . S
Tb1240 O1245 2.374 . S
Tb1240 O1253 2.343 . S
Tb1240 O1255 2.353 . S
Tb1240 O1257 2.427 . S
Tb1240 O1258 2.513 . S
C1241 O1245 1.251 . S
C1241 O1247 1.263 . S
Tb1242 O1244 2.343 . S
Tb1242 O1247 2.353 . S
Tb1242 O1250 2.427 . S
Tb1242 O1251 2.513 . S
Tb1242 O1252 2.453 . S
Tb1242 O1253 2.596 . S
Tb1242 O1254 2.374 . S
O1243 Tb1240 2.453 . S
O1243 C1259 1.245 . S
O1244 Tb1240 2.596 . S
O1244 Tb1242 2.343 . S
O1244 C1259 1.259 . S
O1245 Tb1240 2.374 . S
O1245 C1241 1.251 . S
C1246 O1250 1.275 . S
C1246 O1251 1.246 . S
O1247 C1241 1.263 . S
O1247 Tb1242 2.353 . S
C1248 O1252 1.245 . S
C1248 O1253 1.259 . S
C1249 O1254 1.250 . S
C1249 O1255 1.263 . S
O1250 Tb1242 2.427 . S
O1250 C1246 1.275 . S
O1251 Tb1242 2.513 . S
O1251 C1246 1.246 . S
O1252 Tb1242 2.453 . S
O1252 C1248 1.245 . S
O1253 Tb1240 2.343 . S
O1253 Tb1242 2.596 . S
O1253 C1248 1.259 . S
O1254 Tb1242 2.374 . S
O1254 C1249 1.250 . S
O1255 Tb1240 2.353 . S
O1255 C1249 1.263 . S
C1256 O1257 1.275 . S
C1256 O1258 1.246 . S
O1257 Tb1240 2.427 . S
O1257 C1256 1.275 . S
O1258 Tb1240 2.513 . S
O1258 C1256 1.246 . S
C1259 O1243 1.245 . S
C1259 O1244 1.259 . S
H1260 C1266 0.930 . S
H1261 C1270 0.930 . S
H1262 C1275 0.929 . S
H1263 C1273 0.929 . S
H1264 C1268 0.929 . S
H1265 C1274 0.929 . S
C1266 H1260 0.930 . S
C1266 C1267 1.367 . S
C1266 C1274 1.378 . S
C1267 C1266 1.367 . S
C1267 C1275 1.433 . S
C1268 H1264 0.929 . S
C1268 C1270 1.378 . S
C1268 C1272 1.350 . S
C1269 C1272 1.463 . S
C1269 C1274 1.350 . S
C1269 N1277 1.427 . S
C1270 H1261 0.930 . S
C1270 C1268 1.378 . S
C1270 C1271 1.367 . S
C1271 C1270 1.367 . S
C1271 C1273 1.433 . S
C1272 C1268 1.350 . S
C1272 C1269 1.463 . S
C1272 N1276 1.427 . S
C1273 H1263 0.929 . S
C1273 C1271 1.433 . S
C1273 N1276 1.384 . S
C1274 H1265 0.929 . S
C1274 C1266 1.378 . S
C1274 C1269 1.350 . S
C1275 H1262 0.929 . S
C1275 C1267 1.433 . S
C1275 N1277 1.384 . S
N1276 C1272 1.427 . S
N1276 C1273 1.384 . S
N1277 C1269 1.427 . S
N1277 C1275 1.384 . S
H1278 C1284 0.930 . S
H1279 C1288 0.930 . S
H1280 C1293 0.929 . S
H1281 C1291 0.929 . S
H1282 C1286 0.929 . S
H1283 C1292 0.929 . S
C1284 H1278 0.930 . S
C1284 C1285 1.367 . S
C1284 C1292 1.378 . S
C1285 C1284 1.367 . S
C1285 C1293 1.433 . S
C1286 H1282 0.929 . S
C1286 C1288 1.378 . S
C1286 C1290 1.350 . S
C1287 C1290 1.463 . S
C1287 C1292 1.350 . S
C1287 N1295 1.427 . S
C1288 H1279 0.930 . S
C1288 C1286 1.378 . S
C1288 C1289 1.367 . S
C1289 C1288 1.367 . S
C1289 C1291 1.433 . S
C1290 C1286 1.350 . S
C1290 C1287 1.463 . S
C1290 N1294 1.427 . S
C1291 H1281 0.929 . S
C1291 C1289 1.433 . S
C1291 N1294 1.384 . S
C1292 H1283 0.929 . S
C1292 C1284 1.378 . S
C1292 C1287 1.350 . S
C1293 H1280 0.929 . S
C1293 C1285 1.433 . S
C1293 N1295 1.384 . S
N1294 C1290 1.427 . S
N1294 C1291 1.384 . S
N1295 C1287 1.427 . S
N1295 C1293 1.384 . S
H1296 C1302 0.930 . S
H1297 C1306 0.930 1_556 S
H1298 C1311 0.929 . S
H1299 C1309 0.929 . S
H1300 C1304 0.929 . S
H1301 C1310 0.929 . S
C1302 H1296 0.930 . S
C1302 C1303 1.367 . S
C1302 C1310 1.378 . S
C1303 C1302 1.367 . S
C1303 C1311 1.433 . S
C1304 H1300 0.929 . S
C1304 C1306 1.378 . S
C1304 C1308 1.350 . S
C1305 C1308 1.463 . S
C1305 C1310 1.350 . S
C1305 N1313 1.427 . S
C1306 H1297 0.930 1_554 S
C1306 C1304 1.378 . S
C1306 C1307 1.367 . S
C1307 C1306 1.367 . S
C1307 C1309 1.433 . S
C1308 C1304 1.350 . S
C1308 C1305 1.463 . S
C1308 N1312 1.427 . S
C1309 H1299 0.929 . S
C1309 C1307 1.433 . S
C1309 N1312 1.384 . S
C1310 H1301 0.929 . S
C1310 C1302 1.378 . S
C1310 C1305 1.350 . S
C1311 H1298 0.929 . S
C1311 C1303 1.433 . S
C1311 N1313 1.384 . S
N1312 C1308 1.427 . S
N1312 C1309 1.384 . S
N1313 C1305 1.427 . S
N1313 C1311 1.384 . S
H1314 C1320 0.930 . S
H1315 C1324 0.930 . S
H1316 C1329 0.929 . S
H1317 C1327 0.929 1_554 S
H1318 C1322 0.929 . S
H1319 C1328 0.929 . S
C1320 H1314 0.930 . S
C1320 C1321 1.367 . S
C1320 C1328 1.378 . S
C1321 C1320 1.367 . S
C1321 C1329 1.433 . S
C1322 H1318 0.929 . S
C1322 C1324 1.378 . S
C1322 C1326 1.350 . S
C1323 C1326 1.463 . S
C1323 C1328 1.350 . S
C1323 N1331 1.427 . S
C1324 H1315 0.930 . S
C1324 C1322 1.378 . S
C1324 C1325 1.367 . S
C1325 C1324 1.367 . S
C1325 C1327 1.433 . S
C1326 C1322 1.350 . S
C1326 C1323 1.463 . S
C1326 N1330 1.427 . S
C1327 H1317 0.929 1_556 S
C1327 C1325 1.433 . S
C1327 N1330 1.384 . S
C1328 H1319 0.929 . S
C1328 C1320 1.378 . S
C1328 C1323 1.350 . S
C1329 H1316 0.929 . S
C1329 C1321 1.433 . S
C1329 N1331 1.384 . S
N1330 C1326 1.427 . S
N1330 C1327 1.384 . S
N1331 C1323 1.427 . S
N1331 C1329 1.384 . S
H1332 C1338 0.930 . S
H1333 C1342 0.930 . S
H1334 C1347 0.929 . S
H1335 C1345 0.929 . S
H1336 C1340 0.929 . S
H1337 C1346 0.929 . S
C1338 H1332 0.930 . S
C1338 C1339 1.367 . S
C1338 C1346 1.378 . S
C1339 C1338 1.367 . S
C1339 C1347 1.433 . S
C1340 H1336 0.929 . S
C1340 C1342 1.378 . S
C1340 C1344 1.350 . S
C1341 C1344 1.463 . S
C1341 C1346 1.350 . S
C1341 N1349 1.427 . S
C1342 H1333 0.930 . S
C1342 C1340 1.378 . S
C1342 C1343 1.367 . S
C1343 C1342 1.367 . S
C1343 C1345 1.433 . S
C1344 C1340 1.350 . S
C1344 C1341 1.463 . S
C1344 N1348 1.427 . S
C1345 H1335 0.929 . S
C1345 C1343 1.433 . S
C1345 N1348 1.384 . S
C1346 H1337 0.929 . S
C1346 C1338 1.378 . S
C1346 C1341 1.350 . S
C1347 H1334 0.929 . S
C1347 C1339 1.433 . S
C1347 N1349 1.384 . S
N1348 C1344 1.427 . S
N1348 C1345 1.384 . S
N1349 C1341 1.427 . S
N1349 C1347 1.384 . S
H1350 C1356 0.930 . S
H1351 C1360 0.930 . S
H1352 C1365 0.929 . S
H1353 C1363 0.929 1_554 S
H1354 C1358 0.929 . S
H1355 C1364 0.929 . S
C1356 H1350 0.930 . S
C1356 C1357 1.367 . S
C1356 C1364 1.378 . S
C1357 C1356 1.367 . S
C1357 C1365 1.433 . S
C1358 H1354 0.929 . S
C1358 C1360 1.378 . S
C1358 C1362 1.350 . S
C1359 C1362 1.463 . S
C1359 C1364 1.350 . S
C1359 N1367 1.427 . S
C1360 H1351 0.930 . S
C1360 C1358 1.378 . S
C1360 C1361 1.367 . S
C1361 C1360 1.367 . S
C1361 C1363 1.433 . S
C1362 C1358 1.350 . S
C1362 C1359 1.463 . S
C1362 N1366 1.427 . S
C1363 H1353 0.929 1_556 S
C1363 C1361 1.433 . S
C1363 N1366 1.384 . S
C1364 H1355 0.929 . S
C1364 C1356 1.378 . S
C1364 C1359 1.350 . S
C1365 H1352 0.929 . S
C1365 C1357 1.433 . S
C1365 N1367 1.384 . S
N1366 C1362 1.427 . S
N1366 C1363 1.384 . S
N1367 C1359 1.427 . S
N1367 C1365 1.384 . S
H1368 C1374 0.930 . S
H1369 C1378 0.930 . S
H1370 C1383 0.929 . S
H1371 C1381 0.929 . S
H1372 C1376 0.929 . S
H1373 C1382 0.929 . S
C1374 H1368 0.930 . S
C1374 C1375 1.367 . S
C1374 C1382 1.378 . S
C1375 C1374 1.367 . S
C1375 C1383 1.433 . S
C1376 H1372 0.929 . S
C1376 C1378 1.378 . S
C1376 C1380 1.350 . S
C1377 C1380 1.463 . S
C1377 C1382 1.350 . S
C1377 N1385 1.427 . S
C1378 H1369 0.930 . S
C1378 C1376 1.378 . S
C1378 C1379 1.367 . S
C1379 C1378 1.367 . S
C1379 C1381 1.433 . S
C1380 C1376 1.350 . S
C1380 C1377 1.463 . S
C1380 N1384 1.427 . S
C1381 H1371 0.929 . S
C1381 C1379 1.433 . S
C1381 N1384 1.384 . S
C1382 H1373 0.929 . S
C1382 C1374 1.378 . S
C1382 C1377 1.350 . S
C1383 H1370 0.929 . S
C1383 C1375 1.433 . S
C1383 N1385 1.384 . S
N1384 C1380 1.427 . S
N1384 C1381 1.384 . S
N1385 C1377 1.427 . S
N1385 C1383 1.384 . S
H1386 C1392 0.930 . S
H1387 C1396 0.930 . S
H1388 C1401 0.929 . S
H1389 C1399 0.929 . S
H1390 C1394 0.929 . S
H1391 C1400 0.929 . S
C1392 H1386 0.930 . S
C1392 C1393 1.367 . S
C1392 C1400 1.378 . S
C1393 C1392 1.367 . S
C1393 C1401 1.433 . S
C1394 H1390 0.929 . S
C1394 C1396 1.378 . S
C1394 C1398 1.350 . S
C1395 C1398 1.463 . S
C1395 C1400 1.350 . S
C1395 N1403 1.427 . S
C1396 H1387 0.930 . S
C1396 C1394 1.378 . S
C1396 C1397 1.367 . S
C1397 C1396 1.367 . S
C1397 C1399 1.433 . S
C1398 C1394 1.350 . S
C1398 C1395 1.463 . S
C1398 N1402 1.427 . S
C1399 H1389 0.929 . S
C1399 C1397 1.433 . S
C1399 N1402 1.384 . S
C1400 H1391 0.929 . S
C1400 C1392 1.378 . S
C1400 C1395 1.350 . S
C1401 H1388 0.929 . S
C1401 C1393 1.433 . S
C1401 N1403 1.384 . S
N1402 C1398 1.427 . S
N1402 C1399 1.384 . S
N1403 C1395 1.427 . S
N1403 C1401 1.384 . S
H1404 C1410 0.930 . S
H1405 C1414 0.930 . S
H1406 C1419 0.929 . S
H1407 C1417 0.919 1_554 S
H1408 C1412 0.929 . S
H1409 C1418 0.929 . S
C1410 H1404 0.930 . S
C1410 C1411 1.367 . S
C1410 C1418 1.378 . S
C1411 C1410 1.367 . S
C1411 C1419 1.433 . S
C1412 H1408 0.929 . S
C1412 C1414 1.378 . S
C1412 C1416 1.350 . S
C1413 C1416 1.463 . S
C1413 C1418 1.350 . S
C1413 N1421 1.427 . S
C1414 H1405 0.930 . S
C1414 C1412 1.378 . S
C1414 C1415 1.367 . S
C1415 C1414 1.367 . S
C1415 C1417 1.433 . S
C1416 C1412 1.350 . S
C1416 C1413 1.463 . S
C1416 N1420 1.427 . S
C1417 H1407 0.919 1_556 S
C1417 C1415 1.433 . S
C1417 N1420 1.384 . S
C1418 H1409 0.929 . S
C1418 C1410 1.378 . S
C1418 C1413 1.350 . S
C1419 H1406 0.929 . S
C1419 C1411 1.433 . S
C1419 N1421 1.384 . S
N1420 C1416 1.427 . S
N1420 C1417 1.384 . S
N1421 C1413 1.427 . S
N1421 C1419 1.384 . S
H1422 C1428 0.930 . S
H1423 C1432 0.930 . S
H1424 C1437 0.929 . S
H1425 C1435 0.929 . S
H1426 C1430 0.929 . S
H1427 C1436 0.929 . S
C1428 H1422 0.930 . S
C1428 C1429 1.367 . S
C1428 C1436 1.378 . S
C1429 C1428 1.367 . S
C1429 C1437 1.433 . S
C1430 H1426 0.929 . S
C1430 C1432 1.378 . S
C1430 C1434 1.350 . S
C1431 C1434 1.463 . S
C1431 C1436 1.350 . S
C1431 N1439 1.427 . S
C1432 H1423 0.930 . S
C1432 C1430 1.378 . S
C1432 C1433 1.367 . S
C1433 C1432 1.367 . S
C1433 C1435 1.433 . S
C1434 C1430 1.350 . S
C1434 C1431 1.463 . S
C1434 N1438 1.427 . S
C1435 H1425 0.929 . S
C1435 C1433 1.433 . S
C1435 N1438 1.384 . S
C1436 H1427 0.929 . S
C1436 C1428 1.378 . S
C1436 C1431 1.350 . S
C1437 H1424 0.929 . S
C1437 C1429 1.433 . S
C1437 N1439 1.384 . S
N1438 C1434 1.427 . S
N1438 C1435 1.384 . S
N1439 C1431 1.427 . S
N1439 C1437 1.384 . S
H1440 C1446 0.930 . S
H1441 C1450 0.930 . S
H1442 C1455 0.929 . S
H1443 C1453 0.929 . S
H1444 C1448 0.929 . S
H1445 C1454 0.929 . S
C1446 H1440 0.930 . S
C1446 C1447 1.367 . S
C1446 C1454 1.378 . S
C1447 C1446 1.367 . S
C1447 C1455 1.433 . S
C1448 H1444 0.929 . S
C1448 C1450 1.378 . S
C1448 C1452 1.350 . S
C1449 C1452 1.463 . S
C1449 C1454 1.350 . S
C1449 N1457 1.427 . S
C1450 H1441 0.930 . S
C1450 C1448 1.378 . S
C1450 C1451 1.367 . S
C1451 C1450 1.367 . S
C1451 C1453 1.433 . S
C1452 C1448 1.350 . S
C1452 C1449 1.463 . S
C1452 N1456 1.427 . S
C1453 H1443 0.929 . S
C1453 C1451 1.433 . S
C1453 N1456 1.384 . S
C1454 H1445 0.929 . S
C1454 C1446 1.378 . S
C1454 C1449 1.350 . S
C1455 H1442 0.929 . S
C1455 C1447 1.433 . S
C1455 N1457 1.384 . S
N1456 C1452 1.427 . S
N1456 C1453 1.384 . S
N1457 C1449 1.427 . S
N1457 C1455 1.384 . S
H1458 C1464 0.930 . S
H1459 C1468 0.930 1_556 S
H1460 C1473 0.929 . S
H1461 C1471 0.929 . S
H1462 C1466 0.929 . S
H1463 C1472 0.929 . S
C1464 H1458 0.930 . S
C1464 C1465 1.367 . S
C1464 C1472 1.378 . S
C1465 C1464 1.367 . S
C1465 C1473 1.433 . S
C1466 H1462 0.929 . S
C1466 C1468 1.378 . S
C1466 C1470 1.350 . S
C1467 C1470 1.463 . S
C1467 C1472 1.350 . S
C1467 N1475 1.427 . S
C1468 H1459 0.930 1_554 S
C1468 C1466 1.378 . S
C1468 C1469 1.367 . S
C1469 C1468 1.367 . S
C1469 C1471 1.433 . S
C1470 C1466 1.350 . S
C1470 C1467 1.463 . S
C1470 N1474 1.427 . S
C1471 H1461 0.929 . S
C1471 C1469 1.433 . S
C1471 N1474 1.384 . S
C1472 H1463 0.929 . S
C1472 C1464 1.378 . S
C1472 C1467 1.350 . S
C1473 H1460 0.929 . S
C1473 C1465 1.433 . S
C1473 N1475 1.384 . S
N1474 C1470 1.427 . S
N1474 C1471 1.384 . S
N1475 C1467 1.427 . S
N1475 C1473 1.384 . S
H1476 C1482 0.930 . S
H1477 C1486 0.930 . S
H1478 C1491 0.929 . S
H1479 C1489 0.929 . S
H1480 C1484 0.929 . S
H1481 C1490 0.929 1_455 S
C1482 H1476 0.930 . S
C1482 C1483 1.367 . S
C1482 C1490 1.378 . S
C1483 C1482 1.367 . S
C1483 C1491 1.433 . S
C1484 H1480 0.929 . S
C1484 C1486 1.378 . S
C1484 C1488 1.350 . S
C1485 C1488 1.463 . S
C1485 C1490 1.350 1_455 S
C1485 N1493 1.427 . S
C1486 H1477 0.930 . S
C1486 C1484 1.378 . S
C1486 C1487 1.367 . S
C1487 C1486 1.367 . S
C1487 C1489 1.433 . S
C1488 C1484 1.350 . S
C1488 C1485 1.463 . S
C1488 N1492 1.427 . S
C1489 H1479 0.929 . S
C1489 C1487 1.433 . S
C1489 N1492 1.384 . S
C1490 H1481 0.929 1_655 S
C1490 C1482 1.378 . S
C1490 C1485 1.350 1_655 S
C1491 H1478 0.929 . S
C1491 C1483 1.433 . S
C1491 N1493 1.384 1_655 S
N1492 C1488 1.427 . S
N1492 C1489 1.384 . S
N1493 C1485 1.427 . S
N1493 C1491 1.384 1_455 S
H1494 C1500 0.930 . S
H1495 C1504 0.930 . S
H1496 C1509 0.929 . S
H1497 C1507 0.929 . S
H1498 C1502 0.929 . S
H1499 C1508 0.929 . S
C1500 H1494 0.930 . S
C1500 C1501 1.367 . S
C1500 C1508 1.378 . S
C1501 C1500 1.367 . S
C1501 C1509 1.433 . S
C1502 H1498 0.929 . S
C1502 C1504 1.378 . S
C1502 C1506 1.350 . S
C1503 C1506 1.463 . S
C1503 C1508 1.350 . S
C1503 N1511 1.427 . S
C1504 H1495 0.930 . S
C1504 C1502 1.378 . S
C1504 C1505 1.367 . S
C1505 C1504 1.367 . S
C1505 C1507 1.433 . S
C1506 C1502 1.350 . S
C1506 C1503 1.463 . S
C1506 N1510 1.427 . S
C1507 H1497 0.929 . S
C1507 C1505 1.433 . S
C1507 N1510 1.384 . S
C1508 H1499 0.929 . S
C1508 C1500 1.378 . S
C1508 C1503 1.350 . S
C1509 H1496 0.929 . S
C1509 C1501 1.433 . S
C1509 N1511 1.384 . S
N1510 C1506 1.427 . S
N1510 C1507 1.384 . S
N1511 C1503 1.427 . S
N1511 C1509 1.384 . S
H1512 C1518 0.930 . S
H1513 C1522 0.930 . S
H1514 C1527 0.929 . S
H1515 C1525 0.929 . S
H1516 C1520 0.929 . S
H1517 C1526 0.929 . S
C1518 H1512 0.930 . S
C1518 C1519 1.367 . S
C1518 C1526 1.378 1_545 S
C1519 C1518 1.367 . S
C1519 C1527 1.433 . S
C1520 H1516 0.929 . S
C1520 C1522 1.378 . S
C1520 C1524 1.350 . S
C1521 C1524 1.463 . S
C1521 C1526 1.350 . S
C1521 N1529 1.427 . S
C1522 H1513 0.930 . S
C1522 C1520 1.378 . S
C1522 C1523 1.367 . S
C1523 C1522 1.367 . S
C1523 C1525 1.433 . S
C1524 C1520 1.350 . S
C1524 C1521 1.463 . S
C1524 N1528 1.427 . S
C1525 H1515 0.929 . S
C1525 C1523 1.433 . S
C1525 N1528 1.384 . S
C1526 H1517 0.929 . S
C1526 C1518 1.378 1_565 S
C1526 C1521 1.350 . S
C1527 H1514 0.929 . S
C1527 C1519 1.433 . S
C1527 N1529 1.384 1_545 S
N1528 C1524 1.427 . S
N1528 C1525 1.384 . S
N1529 C1521 1.427 . S
N1529 C1527 1.384 1_565 S
H1530 C1536 0.930 . S
H1531 C1540 0.930 . S
H1532 C1545 0.929 . S
H1533 C1543 0.929 . S
H1534 C1538 0.929 . S
H1535 C1544 0.929 . S
C1536 H1530 0.930 . S
C1536 C1537 1.367 . S
C1536 C1544 1.378 . S
C1537 C1536 1.367 . S
C1537 C1545 1.433 . S
C1538 H1534 0.929 . S
C1538 C1540 1.378 . S
C1538 C1542 1.350 . S
C1539 C1542 1.463 . S
C1539 C1544 1.350 . S
C1539 N1547 1.427 . S
C1540 H1531 0.930 . S
C1540 C1538 1.378 . S
C1540 C1541 1.367 . S
C1541 C1540 1.367 . S
C1541 C1543 1.433 . S
C1542 C1538 1.350 . S
C1542 C1539 1.463 . S
C1542 N1546 1.427 . S
C1543 H1533 0.929 . S
C1543 C1541 1.433 . S
C1543 N1546 1.384 . S
C1544 H1535 0.929 . S
C1544 C1536 1.378 . S
C1544 C1539 1.350 . S
C1545 H1532 0.929 . S
C1545 C1537 1.433 . S
C1545 N1547 1.384 . S
N1546 C1542 1.427 . S
N1546 C1543 1.384 . S
N1547 C1539 1.427 . S
N1547 C1545 1.384 . S
H1548 C1554 0.930 . S
H1549 C1558 0.930 . S
H1550 C1563 0.929 . S
H1551 C1561 0.929 . S
H1552 C1556 0.929 . S
H1553 C1562 0.929 . S
C1554 H1548 0.930 . S
C1554 C1555 1.367 . S
C1554 C1562 1.378 . S
C1555 C1554 1.367 . S
C1555 C1563 1.433 . S
C1556 H1552 0.929 . S
C1556 C1558 1.378 . S
C1556 C1560 1.350 . S
C1557 C1560 1.463 . S
C1557 C1562 1.350 . S
C1557 N1565 1.427 . S
C1558 H1549 0.930 . S
C1558 C1556 1.378 . S
C1558 C1559 1.367 . S
C1559 C1558 1.367 . S
C1559 C1561 1.433 . S
C1560 C1556 1.350 . S
C1560 C1557 1.463 . S
C1560 N1564 1.427 . S
C1561 H1551 0.929 . S
C1561 C1559 1.433 . S
C1561 N1564 1.384 . S
C1562 H1553 0.929 . S
C1562 C1554 1.378 . S
C1562 C1557 1.350 . S
C1563 H1550 0.929 . S
C1563 C1555 1.433 . S
C1563 N1565 1.384 . S
N1564 C1560 1.427 . S
N1564 C1561 1.384 . S
N1565 C1557 1.427 . S
N1565 C1563 1.384 . S
H1566 C1572 0.930 . S
H1567 C1576 0.930 . S
H1568 C1581 0.929 . S
H1569 C1579 0.929 . S
H1570 C1574 0.929 . S
H1571 C1580 0.929 . S
C1572 H1566 0.930 . S
C1572 C1573 1.367 . S
C1572 C1580 1.378 . S
C1573 C1572 1.367 . S
C1573 C1581 1.433 . S
C1574 H1570 0.929 . S
C1574 C1576 1.378 . S
C1574 C1578 1.350 . S
C1575 C1578 1.463 . S
C1575 C1580 1.350 . S
C1575 N1583 1.427 . S
C1576 H1567 0.930 . S
C1576 C1574 1.378 . S
C1576 C1577 1.367 . S
C1577 C1576 1.367 . S
C1577 C1579 1.433 . S
C1578 C1574 1.350 . S
C1578 C1575 1.463 . S
C1578 N1582 1.427 . S
C1579 H1569 0.929 . S
C1579 C1577 1.433 . S
C1579 N1582 1.384 . S
C1580 H1571 0.929 . S
C1580 C1572 1.378 . S
C1580 C1575 1.350 . S
C1581 H1568 0.929 . S
C1581 C1573 1.433 . S
C1581 N1583 1.384 . S
N1582 C1578 1.427 . S
N1582 C1579 1.384 . S
N1583 C1575 1.427 . S
N1583 C1581 1.384 . S
H1584 C1590 0.930 . S
H1585 C1594 0.930 . S
H1586 C1599 0.929 . S
H1587 C1597 0.929 . S
H1588 C1592 0.929 . S
H1589 C1598 0.929 . S
C1590 H1584 0.930 . S
C1590 C1591 1.367 . S
C1590 C1598 1.378 . S
C1591 C1590 1.367 . S
C1591 C1599 1.433 . S
C1592 H1588 0.929 . S
C1592 C1594 1.378 . S
C1592 C1596 1.350 . S
C1593 C1596 1.463 . S
C1593 C1598 1.350 . S
C1593 N1601 1.427 . S
C1594 H1585 0.930 . S
C1594 C1592 1.378 . S
C1594 C1595 1.367 . S
C1595 C1594 1.367 . S
C1595 C1597 1.433 . S
C1596 C1592 1.350 . S
C1596 C1593 1.463 . S
C1596 N1600 1.427 . S
C1597 H1587 0.929 . S
C1597 C1595 1.433 . S
C1597 N1600 1.384 . S
C1598 H1589 0.929 . S
C1598 C1590 1.378 . S
C1598 C1593 1.350 . S
C1599 H1586 0.929 . S
C1599 C1591 1.433 . S
C1599 N1601 1.384 . S
N1600 C1596 1.427 . S
N1600 C1597 1.384 . S
N1601 C1593 1.427 . S
N1601 C1599 1.384 . S
H1602 C1608 0.930 . S
H1603 C1612 0.930 . S
H1604 C1617 0.929 . S
H1605 C1615 0.929 . S
H1606 C1610 0.929 . S
H1607 C1616 0.929 . S
C1608 H1602 0.930 . S
C1608 C1609 1.367 . S
C1608 C1616 1.378 . S
C1609 C1608 1.367 . S
C1609 C1617 1.433 . S
C1610 H1606 0.929 . S
C1610 C1612 1.378 . S
C1610 C1614 1.350 . S
C1611 C1614 1.463 . S
C1611 C1616 1.350 . S
C1611 N1619 1.427 . S
C1612 H1603 0.930 . S
C1612 C1610 1.378 . S
C1612 C1613 1.367 . S
C1613 C1612 1.367 . S
C1613 C1615 1.433 . S
C1614 C1610 1.350 . S
C1614 C1611 1.463 . S
C1614 N1618 1.427 . S
C1615 H1605 0.929 . S
C1615 C1613 1.433 . S
C1615 N1618 1.384 . S
C1616 H1607 0.929 . S
C1616 C1608 1.378 . S
C1616 C1611 1.350 . S
C1617 H1604 0.929 . S
C1617 C1609 1.433 . S
C1617 N1619 1.384 . S
N1618 C1614 1.427 . S
N1618 C1615 1.384 . S
N1619 C1611 1.427 . S
N1619 C1617 1.384 . S
H1620 C1626 0.930 . S
H1621 C1630 0.930 . S
H1622 C1635 0.929 . S
H1623 C1633 0.929 . S
H1624 C1628 0.929 . S
H1625 C1634 0.929 . S
C1626 H1620 0.930 . S
C1626 C1627 1.367 . S
C1626 C1634 1.378 . S
C1627 C1626 1.367 . S
C1627 C1635 1.433 . S
C1628 H1624 0.929 . S
C1628 C1630 1.378 . S
C1628 C1632 1.350 . S
C1629 C1632 1.463 . S
C1629 C1634 1.350 . S
C1629 N1637 1.427 . S
C1630 H1621 0.930 . S
C1630 C1628 1.378 . S
C1630 C1631 1.367 . S
C1631 C1630 1.367 . S
C1631 C1633 1.433 . S
C1632 C1628 1.350 . S
C1632 C1629 1.463 . S
C1632 N1636 1.427 . S
C1633 H1623 0.929 . S
C1633 C1631 1.433 . S
C1633 N1636 1.384 . S
C1634 H1625 0.929 . S
C1634 C1626 1.378 . S
C1634 C1629 1.350 . S
C1635 H1622 0.929 . S
C1635 C1627 1.433 . S
C1635 N1637 1.384 . S
N1636 C1632 1.427 . S
N1636 C1633 1.384 . S
N1637 C1629 1.427 . S
N1637 C1635 1.384 . S
H1638 C1644 0.930 . S
H1639 C1648 0.930 . S
H1640 C1653 0.929 . S
H1641 C1651 0.929 . S
H1642 C1646 0.929 . S
H1643 C1652 0.929 . S
C1644 H1638 0.930 . S
C1644 C1645 1.367 . S
C1644 C1652 1.378 1_545 S
C1645 C1644 1.367 . S
C1645 C1653 1.433 . S
C1646 H1642 0.929 . S
C1646 C1648 1.378 . S
C1646 C1650 1.350 . S
C1647 C1650 1.463 . S
C1647 C1652 1.350 . S
C1647 N1655 1.427 . S
C1648 H1639 0.930 . S
C1648 C1646 1.378 . S
C1648 C1649 1.367 . S
C1649 C1648 1.367 . S
C1649 C1651 1.433 . S
C1650 C1646 1.350 . S
C1650 C1647 1.463 . S
C1650 N1654 1.427 . S
C1651 H1641 0.929 . S
C1651 C1649 1.433 . S
C1651 N1654 1.384 . S
C1652 H1643 0.929 . S
C1652 C1644 1.378 1_565 S
C1652 C1647 1.350 . S
C1653 H1640 0.929 . S
C1653 C1645 1.433 . S
C1653 N1655 1.384 1_545 S
N1654 C1650 1.427 . S
N1654 C1651 1.384 . S
N1655 C1647 1.427 . S
N1655 C1653 1.384 1_565 S
H1656 C1662 0.930 . S
H1657 C1666 0.930 . S
H1658 C1671 0.929 . S
H1659 C1669 0.929 . S
H1660 C1664 0.929 . S
H1661 C1670 0.929 . S
C1662 H1656 0.930 . S
C1662 C1663 1.367 1_455 S
C1662 C1670 1.378 . S
C1663 C1662 1.367 1_655 S
C1663 C1671 1.433 . S
C1664 H1660 0.929 . S
C1664 C1666 1.378 . S
C1664 C1668 1.350 . S
C1665 C1668 1.463 . S
C1665 C1670 1.350 . S
C1665 N1673 1.427 . S
C1666 H1657 0.930 . S
C1666 C1664 1.378 . S
C1666 C1667 1.367 . S
C1667 C1666 1.367 . S
C1667 C1669 1.433 . S
C1668 C1664 1.350 . S
C1668 C1665 1.463 . S
C1668 N1672 1.427 . S
C1669 H1659 0.929 . S
C1669 C1667 1.433 . S
C1669 N1672 1.384 . S
C1670 H1661 0.929 . S
C1670 C1662 1.378 . S
C1670 C1665 1.350 . S
C1671 H1658 0.929 . S
C1671 C1663 1.433 . S
C1671 N1673 1.384 1_655 S
N1672 C1668 1.427 . S
N1672 C1669 1.384 . S
N1673 C1665 1.427 . S
N1673 C1671 1.384 1_455 S
H1674 C1680 0.930 . S
H1675 C1684 0.930 . S
H1676 C1689 0.929 . S
H1677 C1687 0.929 . S
H1678 C1682 0.929 . S
H1679 C1688 0.929 . S
C1680 H1674 0.930 . S
C1680 C1681 1.367 . S
C1680 C1688 1.378 . S
C1681 C1680 1.367 . S
C1681 C1689 1.433 . S
C1682 H1678 0.929 . S
C1682 C1684 1.378 . S
C1682 C1686 1.350 . S
C1683 C1686 1.463 . S
C1683 C1688 1.350 . S
C1683 N1691 1.427 . S
C1684 H1675 0.930 . S
C1684 C1682 1.378 . S
C1684 C1685 1.367 . S
C1685 C1684 1.367 . S
C1685 C1687 1.433 . S
C1686 C1682 1.350 . S
C1686 C1683 1.463 . S
C1686 N1690 1.427 . S
C1687 H1677 0.929 . S
C1687 C1685 1.433 . S
C1687 N1690 1.384 . S
C1688 H1679 0.929 . S
C1688 C1680 1.378 . S
C1688 C1683 1.350 . S
C1689 H1676 0.929 . S
C1689 C1681 1.433 . S
C1689 N1691 1.384 . S
N1690 C1686 1.427 . S
N1690 C1687 1.384 . S
N1691 C1683 1.427 . S
N1691 C1689 1.384 . S
H1692 C1698 0.930 . S
H1693 C1702 0.930 . S
H1694 C1707 0.929 . S
H1695 C1705 0.929 . S
H1696 C1700 0.929 . S
H1697 C1706 0.929 . S
C1698 H1692 0.930 . S
C1698 C1699 1.367 . S
C1698 C1706 1.378 . S
C1699 C1698 1.367 . S
C1699 C1707 1.433 . S
C1700 H1696 0.929 . S
C1700 C1702 1.378 . S
C1700 C1704 1.350 . S
C1701 C1704 1.463 . S
C1701 C1706 1.350 . S
C1701 N1709 1.427 . S
C1702 H1693 0.930 . S
C1702 C1700 1.378 . S
C1702 C1703 1.367 . S
C1703 C1702 1.367 . S
C1703 C1705 1.433 . S
C1704 C1700 1.350 . S
C1704 C1701 1.463 . S
C1704 N1708 1.427 . S
C1705 H1695 0.929 . S
C1705 C1703 1.433 . S
C1705 N1708 1.384 . S
C1706 H1697 0.929 . S
C1706 C1698 1.378 . S
C1706 C1701 1.350 . S
C1707 H1694 0.929 . S
C1707 C1699 1.433 . S
C1707 N1709 1.384 . S
N1708 C1704 1.427 . S
N1708 C1705 1.384 . S
N1709 C1701 1.427 . S
N1709 C1707 1.384 . S
H1710 C1716 0.930 . S
H1711 C1720 0.930 . S
H1712 C1725 0.929 . S
H1713 C1723 0.929 . S
H1714 C1718 0.929 . S
H1715 C1724 0.929 . S
C1716 H1710 0.930 . S
C1716 C1717 1.367 . S
C1716 C1724 1.378 . S
C1717 C1716 1.367 . S
C1717 C1725 1.433 . S
C1718 H1714 0.929 . S
C1718 C1720 1.378 . S
C1718 C1722 1.350 . S
C1719 C1722 1.463 . S
C1719 C1724 1.350 . S
C1719 N1727 1.427 . S
C1720 H1711 0.930 . S
C1720 C1718 1.378 . S
C1720 C1721 1.367 . S
C1721 C1720 1.367 . S
C1721 C1723 1.433 . S
C1722 C1718 1.350 . S
C1722 C1719 1.463 . S
C1722 N1726 1.427 . S
C1723 H1713 0.929 . S
C1723 C1721 1.433 . S
C1723 N1726 1.384 . S
C1724 H1715 0.929 . S
C1724 C1716 1.378 . S
C1724 C1719 1.350 . S
C1725 H1712 0.929 . S
C1725 C1717 1.433 . S
C1725 N1727 1.384 . S
N1726 C1722 1.427 . S
N1726 C1723 1.384 . S
N1727 C1719 1.427 . S
N1727 C1725 1.384 . S
H1728 C1734 0.930 . S
H1729 C1738 0.930 . S
H1730 C1743 0.929 . S
H1731 C1741 0.929 . S
H1732 C1736 0.929 . S
H1733 C1742 0.929 . S
C1734 H1728 0.930 . S
C1734 C1735 1.367 . S
C1734 C1742 1.378 . S
C1735 C1734 1.367 . S
C1735 C1743 1.433 . S
C1736 H1732 0.929 . S
C1736 C1738 1.378 . S
C1736 C1740 1.350 . S
C1737 C1740 1.463 . S
C1737 C1742 1.350 . S
C1737 N1745 1.427 . S
C1738 H1729 0.930 . S
C1738 C1736 1.378 . S
C1738 C1739 1.367 . S
C1739 C1738 1.367 . S
C1739 C1741 1.433 . S
C1740 C1736 1.350 . S
C1740 C1737 1.463 . S
C1740 N1744 1.427 . S
C1741 H1731 0.929 . S
C1741 C1739 1.433 . S
C1741 N1744 1.384 . S
C1742 H1733 0.929 . S
C1742 C1734 1.378 . S
C1742 C1737 1.350 . S
C1743 H1730 0.929 . S
C1743 C1735 1.433 . S
C1743 N1745 1.384 . S
N1744 C1740 1.427 . S
N1744 C1741 1.384 . S
N1745 C1737 1.427 . S
N1745 C1743 1.384 . S
H1746 C1752 0.930 . S
H1747 C1756 0.930 . S
H1748 C1761 0.929 . S
H1749 C1759 0.929 . S
H1750 C1754 0.929 . S
H1751 C1760 0.929 . S
C1752 H1746 0.930 . S
C1752 C1753 1.367 . S
C1752 C1760 1.378 1_565 S
C1753 C1752 1.367 . S
C1753 C1761 1.433 . S
C1754 H1750 0.929 . S
C1754 C1756 1.378 . S
C1754 C1758 1.350 . S
C1755 C1758 1.463 . S
C1755 C1760 1.350 . S
C1755 N1763 1.427 . S
C1756 H1747 0.930 . S
C1756 C1754 1.378 . S
C1756 C1757 1.367 . S
C1757 C1756 1.367 . S
C1757 C1759 1.433 . S
C1758 C1754 1.350 . S
C1758 C1755 1.463 . S
C1758 N1762 1.427 . S
C1759 H1749 0.929 . S
C1759 C1757 1.433 . S
C1759 N1762 1.384 . S
C1760 H1751 0.929 . S
C1760 C1752 1.378 1_545 S
C1760 C1755 1.350 . S
C1761 H1748 0.929 . S
C1761 C1753 1.433 . S
C1761 N1763 1.384 1_565 S
N1762 C1758 1.427 . S
N1762 C1759 1.384 . S
N1763 C1755 1.427 . S
N1763 C1761 1.384 1_545 S
H1764 C1770 0.930 . S
H1765 C1774 0.930 . S
H1766 C1779 0.929 . S
H1767 C1777 0.929 . S
H1768 C1772 0.929 . S
H1769 C1778 0.929 . S
C1770 H1764 0.930 . S
C1770 C1771 1.367 . S
C1770 C1778 1.378 1_455 S
C1771 C1770 1.367 . S
C1771 C1779 1.433 . S
C1772 H1768 0.929 . S
C1772 C1774 1.378 . S
C1772 C1776 1.350 . S
C1773 C1776 1.463 . S
C1773 C1778 1.350 . S
C1773 N1781 1.427 . S
C1774 H1765 0.930 . S
C1774 C1772 1.378 . S
C1774 C1775 1.367 . S
C1775 C1774 1.367 . S
C1775 C1777 1.433 . S
C1776 C1772 1.350 . S
C1776 C1773 1.463 . S
C1776 N1780 1.427 . S
C1777 H1767 0.929 . S
C1777 C1775 1.433 . S
C1777 N1780 1.384 . S
C1778 H1769 0.929 . S
C1778 C1770 1.378 1_655 S
C1778 C1773 1.350 . S
C1779 H1766 0.929 . S
C1779 C1771 1.433 . S
C1779 N1781 1.384 1_455 S
N1780 C1776 1.427 . S
N1780 C1777 1.384 . S
N1781 C1773 1.427 . S
N1781 C1779 1.384 1_655 S
H1782 C1788 0.930 . S
H1783 C1792 0.930 . S
H1784 C1797 0.929 . S
H1785 C1795 0.929 . S
H1786 C1790 0.929 . S
H1787 C1796 0.929 . S
C1788 H1782 0.930 . S
C1788 C1789 1.367 . S
C1788 C1796 1.378 . S
C1789 C1788 1.367 . S
C1789 C1797 1.433 . S
C1790 H1786 0.929 . S
C1790 C1792 1.378 . S
C1790 C1794 1.350 . S
C1791 C1794 1.463 . S
C1791 C1796 1.350 . S
C1791 N1799 1.427 . S
C1792 H1783 0.930 . S
C1792 C1790 1.378 . S
C1792 C1793 1.367 . S
C1793 C1792 1.367 . S
C1793 C1795 1.433 . S
C1794 C1790 1.350 . S
C1794 C1791 1.463 . S
C1794 N1798 1.427 . S
C1795 H1785 0.929 . S
C1795 C1793 1.433 . S
C1795 N1798 1.384 . S
C1796 H1787 0.929 . S
C1796 C1788 1.378 . S
C1796 C1791 1.350 . S
C1797 H1784 0.929 . S
C1797 C1789 1.433 . S
C1797 N1799 1.384 . S
N1798 C1794 1.427 . S
N1798 C1795 1.384 . S
N1799 C1791 1.427 . S
N1799 C1797 1.384 . S
H1800 C1806 0.930 . S
H1801 C1810 0.930 . S
H1802 C1815 0.929 . S
H1803 C1813 0.929 . S
H1804 C1808 0.929 . S
H1805 C1814 0.929 . S
C1806 H1800 0.930 . S
C1806 C1807 1.367 . S
C1806 C1814 1.378 . S
C1807 C1806 1.367 . S
C1807 C1815 1.433 . S
C1808 H1804 0.929 . S
C1808 C1810 1.378 . S
C1808 C1812 1.350 . S
C1809 C1812 1.463 . S
C1809 C1814 1.350 1_655 S
C1809 N1817 1.427 . S
C1810 H1801 0.930 . S
C1810 C1808 1.378 . S
C1810 C1811 1.367 . S
C1811 C1810 1.367 . S
C1811 C1813 1.433 . S
C1812 C1808 1.350 . S
C1812 C1809 1.463 . S
C1812 N1816 1.427 . S
C1813 H1803 0.929 . S
C1813 C1811 1.433 . S
C1813 N1816 1.384 . S
C1814 H1805 0.929 . S
C1814 C1806 1.378 . S
C1814 C1809 1.350 1_455 S
C1815 H1802 0.929 . S
C1815 C1807 1.433 . S
C1815 N1817 1.384 1_455 S
N1816 C1812 1.427 . S
N1816 C1813 1.384 . S
N1817 C1809 1.427 . S
N1817 C1815 1.384 1_655 S
H1818 C1824 0.930 . S
H1819 C1828 0.930 . S
H1820 C1833 0.929 . S
H1821 C1831 0.929 . S
H1822 C1826 0.929 . S
H1823 C1832 0.929 . S
C1824 H1818 0.930 . S
C1824 C1825 1.367 . S
C1824 C1832 1.378 . S
C1825 C1824 1.367 . S
C1825 C1833 1.433 . S
C1826 H1822 0.929 . S
C1826 C1828 1.378 . S
C1826 C1830 1.350 . S
C1827 C1830 1.463 . S
C1827 C1832 1.350 . S
C1827 N1835 1.427 . S
C1828 H1819 0.930 . S
C1828 C1826 1.378 . S
C1828 C1829 1.367 . S
C1829 C1828 1.367 . S
C1829 C1831 1.433 . S
C1830 C1826 1.350 . S
C1830 C1827 1.463 . S
C1830 N1834 1.427 . S
C1831 H1821 0.929 . S
C1831 C1829 1.433 . S
C1831 N1834 1.384 . S
C1832 H1823 0.929 . S
C1832 C1824 1.378 . S
C1832 C1827 1.350 . S
C1833 H1820 0.929 . S
C1833 C1825 1.433 . S
C1833 N1835 1.384 . S
N1834 C1830 1.427 . S
N1834 C1831 1.384 . S
N1835 C1827 1.427 . S
N1835 C1833 1.384 . S
H1836 C1842 0.930 . S
H1837 C1846 0.930 . S
H1838 C1851 0.929 . S
H1839 C1849 0.929 . S
H1840 C1844 0.929 . S
H1841 C1850 0.929 . S
C1842 H1836 0.930 . S
C1842 C1843 1.367 . S
C1842 C1850 1.378 1_565 S
C1843 C1842 1.367 . S
C1843 C1851 1.433 . S
C1844 H1840 0.929 . S
C1844 C1846 1.378 . S
C1844 C1848 1.350 . S
C1845 C1848 1.463 . S
C1845 C1850 1.350 . S
C1845 N1853 1.427 . S
C1846 H1837 0.930 . S
C1846 C1844 1.378 . S
C1846 C1847 1.367 . S
C1847 C1846 1.367 . S
C1847 C1849 1.433 . S
C1848 C1844 1.350 . S
C1848 C1845 1.463 . S
C1848 N1852 1.427 . S
C1849 H1839 0.929 . S
C1849 C1847 1.433 . S
C1849 N1852 1.384 . S
C1850 H1841 0.929 . S
C1850 C1842 1.378 1_545 S
C1850 C1845 1.350 . S
C1851 H1838 0.929 . S
C1851 C1843 1.433 . S
C1851 N1853 1.384 1_565 S
N1852 C1848 1.427 . S
N1852 C1849 1.384 . S
N1853 C1845 1.427 . S
N1853 C1851 1.384 1_545 S
H1854 C1860 0.930 . S
H1855 C1864 0.930 . S
H1856 C1869 0.929 . S
H1857 C1867 0.929 . S
H1858 C1862 0.929 . S
H1859 C1868 0.929 . S
C1860 H1854 0.930 . S
C1860 C1861 1.367 . S
C1860 C1868 1.378 . S
C1861 C1860 1.367 . S
C1861 C1869 1.433 . S
C1862 H1858 0.929 . S
C1862 C1864 1.378 . S
C1862 C1866 1.350 . S
C1863 C1866 1.463 . S
C1863 C1868 1.350 . S
C1863 N1871 1.427 . S
C1864 H1855 0.930 . S
C1864 C1862 1.378 . S
C1864 C1865 1.367 . S
C1865 C1864 1.367 . S
C1865 C1867 1.433 . S
C1866 C1862 1.350 . S
C1866 C1863 1.463 . S
C1866 N1870 1.427 . S
C1867 H1857 0.929 . S
C1867 C1865 1.433 . S
C1867 N1870 1.384 . S
C1868 H1859 0.929 . S
C1868 C1860 1.378 . S
C1868 C1863 1.350 . S
C1869 H1856 0.929 . S
C1869 C1861 1.433 . S
C1869 N1871 1.384 . S
N1870 C1866 1.427 . S
N1870 C1867 1.384 . S
N1871 C1863 1.427 . S
N1871 C1869 1.384 . S
H1872 C1878 0.930 . S
H1873 C1882 0.930 . S
H1874 C1887 0.929 . S
H1875 C1885 0.929 . S
H1876 C1880 0.929 . S
H1877 C1886 0.929 . S
C1878 H1872 0.930 . S
C1878 C1879 1.367 . S
C1878 C1886 1.378 . S
C1879 C1878 1.367 . S
C1879 C1887 1.433 . S
C1880 H1876 0.929 . S
C1880 C1882 1.378 . S
C1880 C1884 1.350 . S
C1881 C1884 1.463 . S
C1881 C1886 1.350 . S
C1881 N1889 1.427 . S
C1882 H1873 0.930 . S
C1882 C1880 1.378 . S
C1882 C1883 1.367 . S
C1883 C1882 1.367 . S
C1883 C1885 1.433 . S
C1884 C1880 1.350 . S
C1884 C1881 1.463 . S
C1884 N1888 1.427 . S
C1885 H1875 0.929 . S
C1885 C1883 1.433 . S
C1885 N1888 1.384 . S
C1886 H1877 0.929 . S
C1886 C1878 1.378 . S
C1886 C1881 1.350 . S
C1887 H1874 0.929 . S
C1887 C1879 1.433 . S
C1887 N1889 1.384 . S
N1888 C1884 1.427 . S
N1888 C1885 1.384 . S
N1889 C1881 1.427 . S
N1889 C1887 1.384 . S
H1890 C1896 0.930 . S
H1891 C1900 0.930 . S
H1892 C1905 0.929 . S
H1893 C1903 0.929 . S
H1894 C1898 0.929 . S
H1895 C1904 0.929 . S
C1896 H1890 0.930 . S
C1896 C1897 1.367 . S
C1896 C1904 1.378 . S
C1897 C1896 1.367 . S
C1897 C1905 1.433 . S
C1898 H1894 0.929 . S
C1898 C1900 1.378 . S
C1898 C1902 1.350 . S
C1899 C1902 1.463 . S
C1899 C1904 1.350 . S
C1899 N1907 1.427 . S
C1900 H1891 0.930 . S
C1900 C1898 1.378 . S
C1900 C1901 1.367 . S
C1901 C1900 1.367 . S
C1901 C1903 1.433 . S
C1902 C1898 1.350 . S
C1902 C1899 1.463 . S
C1902 N1906 1.427 . S
C1903 H1893 0.929 . S
C1903 C1901 1.433 . S
C1903 N1906 1.384 . S
C1904 H1895 0.929 . S
C1904 C1896 1.378 . S
C1904 C1899 1.350 . S
C1905 H1892 0.929 . S
C1905 C1897 1.433 . S
C1905 N1907 1.384 . S
N1906 C1902 1.427 . S
N1906 C1903 1.384 . S
N1907 C1899 1.427 . S
N1907 C1905 1.384 . S
H1908 C1914 0.930 1_545 S
H1909 C1918 0.930 . S
H1910 C1923 0.929 . S
H1911 C1921 0.929 . S
H1912 C1916 0.929 . S
H1913 C1922 0.929 1_545 S
C1914 H1908 0.930 1_565 S
C1914 C1915 1.367 . S
C1914 C1922 1.378 . S
C1915 C1914 1.367 . S
C1915 C1923 1.433 . S
C1916 H1912 0.929 . S
C1916 C1918 1.378 . S
C1916 C1920 1.350 . S
C1917 C1920 1.463 . S
C1917 C1922 1.350 . S
C1917 N1925 1.427 . S
C1918 H1909 0.930 . S
C1918 C1916 1.378 . S
C1918 C1919 1.367 . S
C1919 C1918 1.367 . S
C1919 C1921 1.433 1_565 S
C1920 C1916 1.350 . S
C1920 C1917 1.463 . S
C1920 N1924 1.427 1_565 S
C1921 H1911 0.929 . S
C1921 C1919 1.433 1_545 S
C1921 N1924 1.384 . S
C1922 H1913 0.929 1_565 S
C1922 C1914 1.378 . S
C1922 C1917 1.350 . S
C1923 H1910 0.929 . S
C1923 C1915 1.433 . S
C1923 N1925 1.384 . S
N1924 C1920 1.427 1_545 S
N1924 C1921 1.384 . S
N1925 C1917 1.427 . S
N1925 C1923 1.384 . S
H1926 C1932 0.930 . S
H1927 C1936 0.930 . S
H1928 C1941 0.929 1_655 S
H1929 C1939 0.929 . S
H1930 C1934 0.929 . S
H1931 C1940 0.929 . S
C1932 H1926 0.930 . S
C1932 C1933 1.367 . S
C1932 C1940 1.378 . S
C1933 C1932 1.367 . S
C1933 C1941 1.433 . S
C1934 H1930 0.929 . S
C1934 C1936 1.378 . S
C1934 C1938 1.350 1_655 S
C1935 C1938 1.463 . S
C1935 C1940 1.350 . S
C1935 N1943 1.406 1_455 S
C1936 H1927 0.930 . S
C1936 C1934 1.378 . S
C1936 C1937 1.367 1_655 S
C1937 C1936 1.367 1_455 S
C1937 C1939 1.433 . S
C1938 C1934 1.350 1_455 S
C1938 C1935 1.463 . S
C1938 N1942 1.427 . S
C1939 H1929 0.929 . S
C1939 C1937 1.433 . S
C1939 N1942 1.384 . S
C1940 H1931 0.929 . S
C1940 C1932 1.378 . S
C1940 C1935 1.350 . S
C1941 H1928 0.929 1_455 S
C1941 C1933 1.433 . S
C1941 N1943 1.382 1_455 S
N1942 C1938 1.427 . S
N1942 C1939 1.384 . S
N1943 C1935 1.406 1_655 S
N1943 C1941 1.382 1_655 S
H1944 C1950 0.930 . S
H1945 C1954 0.930 . S
H1946 C1959 0.929 . S
H1947 C1957 0.929 . S
H1948 C1952 0.929 . S
H1949 C1958 0.929 . S
C1950 H1944 0.930 . S
C1950 C1951 1.367 . S
C1950 C1958 1.378 . S
C1951 C1950 1.367 . S
C1951 C1959 1.433 . S
C1952 H1948 0.929 . S
C1952 C1954 1.378 . S
C1952 C1956 1.350 . S
C1953 C1956 1.463 . S
C1953 C1958 1.350 . S
C1953 N1961 1.427 . S
C1954 H1945 0.930 . S
C1954 C1952 1.378 . S
C1954 C1955 1.367 . S
C1955 C1954 1.367 . S
C1955 C1957 1.433 . S
C1956 C1952 1.350 . S
C1956 C1953 1.463 . S
C1956 N1960 1.427 . S
C1957 H1947 0.929 . S
C1957 C1955 1.433 . S
C1957 N1960 1.384 . S
C1958 H1949 0.929 . S
C1958 C1950 1.378 . S
C1958 C1953 1.350 . S
C1959 H1946 0.929 . S
C1959 C1951 1.433 . S
C1959 N1961 1.384 . S
N1960 C1956 1.427 . S
N1960 C1957 1.384 . S
N1961 C1953 1.427 . S
N1961 C1959 1.384 . S
H1962 C1968 0.930 . S
H1963 C1972 0.930 . S
H1964 C1977 0.929 . S
H1965 C1975 0.929 . S
H1966 C1970 0.929 . S
H1967 C1976 0.929 . S
C1968 H1962 0.930 . S
C1968 C1969 1.367 . S
C1968 C1976 1.378 . S
C1969 C1968 1.367 . S
C1969 C1977 1.433 . S
C1970 H1966 0.929 . S
C1970 C1972 1.378 . S
C1970 C1974 1.350 . S
C1971 C1974 1.463 . S
C1971 C1976 1.350 . S
C1971 N1979 1.427 . S
C1972 H1963 0.930 . S
C1972 C1970 1.378 . S
C1972 C1973 1.367 . S
C1973 C1972 1.367 . S
C1973 C1975 1.433 . S
C1974 C1970 1.350 . S
C1974 C1971 1.463 . S
C1974 N1978 1.427 . S
C1975 H1965 0.929 . S
C1975 C1973 1.433 . S
C1975 N1978 1.384 . S
C1976 H1967 0.929 . S
C1976 C1968 1.378 . S
C1976 C1971 1.350 . S
C1977 H1964 0.929 . S
C1977 C1969 1.433 . S
C1977 N1979 1.384 . S
N1978 C1974 1.427 . S
N1978 C1975 1.384 . S
N1979 C1971 1.427 . S
N1979 C1977 1.384 . S
H1980 C1986 0.930 . S
H1981 C1990 0.930 . S
H1982 C1995 0.929 . S
H1983 C1993 0.929 . S
H1984 C1988 0.929 . S
H1985 C1994 0.929 . S
C1986 H1980 0.930 . S
C1986 C1987 1.367 . S
C1986 C1994 1.378 . S
C1987 C1986 1.367 . S
C1987 C1995 1.433 . S
C1988 H1984 0.929 . S
C1988 C1990 1.378 . S
C1988 C1992 1.350 . S
C1989 C1992 1.463 . S
C1989 C1994 1.350 . S
C1989 N1997 1.427 . S
C1990 H1981 0.930 . S
C1990 C1988 1.378 . S
C1990 C1991 1.367 . S
C1991 C1990 1.367 . S
C1991 C1993 1.433 . S
C1992 C1988 1.350 . S
C1992 C1989 1.463 . S
C1992 N1996 1.427 . S
C1993 H1983 0.929 . S
C1993 C1991 1.433 . S
C1993 N1996 1.384 . S
C1994 H1985 0.929 . S
C1994 C1986 1.378 . S
C1994 C1989 1.350 . S
C1995 H1982 0.929 . S
C1995 C1987 1.433 . S
C1995 N1997 1.384 . S
N1996 C1992 1.427 . S
N1996 C1993 1.384 . S
N1997 C1989 1.427 . S
N1997 C1995 1.384 . S
H1998 C2004 0.930 . S
H1999 C2008 0.930 . S
H2000 C2013 0.929 . S
H2001 C2011 0.929 . S
H2002 C2006 0.929 . S
H2003 C2012 0.929 1_565 S
C2004 H1998 0.930 . S
C2004 C2005 1.367 . S
C2004 C2012 1.378 . S
C2005 C2004 1.367 . S
C2005 C2013 1.433 . S
C2006 H2002 0.929 . S
C2006 C2008 1.378 . S
C2006 C2010 1.350 . S
C2007 C2010 1.463 . S
C2007 C2012 1.350 . S
C2007 N2015 1.427 . S
C2008 H1999 0.930 . S
C2008 C2006 1.378 . S
C2008 C2009 1.367 . S
C2009 C2008 1.367 . S
C2009 C2011 1.433 1_545 S
C2010 C2006 1.350 . S
C2010 C2007 1.463 . S
C2010 N2014 1.399 1_545 S
C2011 H2001 0.929 . S
C2011 C2009 1.433 1_565 S
C2011 N2014 1.390 . S
C2012 H2003 0.929 1_545 S
C2012 C2004 1.378 . S
C2012 C2007 1.350 . S
C2013 H2000 0.929 . S
C2013 C2005 1.433 . S
C2013 N2015 1.384 . S
N2014 C2010 1.399 1_565 S
N2014 C2011 1.390 . S
N2015 C2007 1.427 . S
N2015 C2013 1.384 . S
H2016 C2022 0.930 . S
H2017 C2026 0.930 . S
H2018 C2031 0.929 . S
H2019 C2029 0.929 . S
H2020 C2024 0.929 . S
H2021 C2030 0.929 . S
C2022 H2016 0.930 . S
C2022 C2023 1.367 . S
C2022 C2030 1.378 . S
C2023 C2022 1.367 . S
C2023 C2031 1.433 . S
C2024 H2020 0.929 . S
C2024 C2026 1.378 . S
C2024 C2028 1.350 . S
C2025 C2028 1.463 . S
C2025 C2030 1.350 . S
C2025 N2033 1.427 . S
C2026 H2017 0.930 . S
C2026 C2024 1.378 . S
C2026 C2027 1.367 . S
C2027 C2026 1.367 . S
C2027 C2029 1.433 . S
C2028 C2024 1.350 . S
C2028 C2025 1.463 . S
C2028 N2032 1.427 . S
C2029 H2019 0.929 . S
C2029 C2027 1.433 . S
C2029 N2032 1.384 . S
C2030 H2021 0.929 . S
C2030 C2022 1.378 . S
C2030 C2025 1.350 . S
C2031 H2018 0.929 . S
C2031 C2023 1.433 . S
C2031 N2033 1.384 . S
N2032 C2028 1.427 . S
N2032 C2029 1.384 . S
N2033 C2025 1.427 . S
N2033 C2031 1.384 . S
H2034 C2040 0.930 . S
H2035 C2044 0.930 . S
H2036 C2049 0.929 . S
H2037 C2047 0.929 . S
H2038 C2042 0.929 . S
H2039 C2048 0.929 . S
C2040 H2034 0.930 . S
C2040 C2041 1.367 . S
C2040 C2048 1.378 . S
C2041 C2040 1.367 . S
C2041 C2049 1.433 . S
C2042 H2038 0.929 . S
C2042 C2044 1.378 . S
C2042 C2046 1.350 . S
C2043 C2046 1.463 . S
C2043 C2048 1.350 . S
C2043 N2051 1.427 . S
C2044 H2035 0.930 . S
C2044 C2042 1.378 . S
C2044 C2045 1.367 . S
C2045 C2044 1.367 . S
C2045 C2047 1.433 . S
C2046 C2042 1.350 . S
C2046 C2043 1.463 . S
C2046 N2050 1.427 . S
C2047 H2037 0.929 . S
C2047 C2045 1.433 . S
C2047 N2050 1.384 . S
C2048 H2039 0.929 . S
C2048 C2040 1.378 . S
C2048 C2043 1.350 . S
C2049 H2036 0.929 . S
C2049 C2041 1.433 . S
C2049 N2051 1.384 . S
N2050 C2046 1.427 . S
N2050 C2047 1.384 . S
N2051 C2043 1.427 . S
N2051 C2049 1.384 . S
H2052 C2058 0.930 . S
H2053 C2062 0.930 . S
H2054 C2067 0.929 . S
H2055 C2065 0.929 . S
H2056 C2060 0.929 . S
H2057 C2066 0.929 . S
C2058 H2052 0.930 . S
C2058 C2059 1.367 . S
C2058 C2066 1.378 . S
C2059 C2058 1.367 . S
C2059 C2067 1.433 . S
C2060 H2056 0.929 . S
C2060 C2062 1.378 . S
C2060 C2064 1.350 . S
C2061 C2064 1.463 . S
C2061 C2066 1.350 . S
C2061 N2069 1.427 . S
C2062 H2053 0.930 . S
C2062 C2060 1.378 . S
C2062 C2063 1.367 . S
C2063 C2062 1.367 . S
C2063 C2065 1.433 . S
C2064 C2060 1.350 . S
C2064 C2061 1.463 . S
C2064 N2068 1.427 . S
C2065 H2055 0.929 . S
C2065 C2063 1.433 . S
C2065 N2068 1.384 . S
C2066 H2057 0.929 . S
C2066 C2058 1.378 . S
C2066 C2061 1.350 . S
C2067 H2054 0.929 . S
C2067 C2059 1.433 . S
C2067 N2069 1.384 . S
N2068 C2064 1.427 . S
N2068 C2065 1.384 . S
N2069 C2061 1.427 . S
N2069 C2067 1.384 . S
H2070 C2076 0.930 . S
H2071 C2080 0.930 . S
H2072 C2085 0.929 . S
H2073 C2083 0.929 . S
H2074 C2078 0.929 . S
H2075 C2084 0.929 . S
C2076 H2070 0.930 . S
C2076 C2077 1.367 . S
C2076 C2084 1.378 . S
C2077 C2076 1.367 . S
C2077 C2085 1.433 . S
C2078 H2074 0.929 . S
C2078 C2080 1.378 . S
C2078 C2082 1.350 . S
C2079 C2082 1.463 . S
C2079 C2084 1.350 . S
C2079 N2087 1.427 . S
C2080 H2071 0.930 . S
C2080 C2078 1.378 . S
C2080 C2081 1.367 . S
C2081 C2080 1.367 . S
C2081 C2083 1.433 . S
C2082 C2078 1.350 . S
C2082 C2079 1.463 . S
C2082 N2086 1.427 . S
C2083 H2073 0.929 . S
C2083 C2081 1.433 . S
C2083 N2086 1.384 . S
C2084 H2075 0.929 . S
C2084 C2076 1.378 . S
C2084 C2079 1.350 . S
C2085 H2072 0.929 . S
C2085 C2077 1.433 . S
C2085 N2087 1.384 . S
N2086 C2082 1.427 . S
N2086 C2083 1.384 . S
N2087 C2079 1.427 . S
N2087 C2085 1.384 . S
H2088 C2094 0.930 . S
H2089 C2098 0.930 . S
H2090 C2103 0.929 . S
H2091 C2101 0.929 . S
H2092 C2096 0.929 . S
H2093 C2102 0.929 . S
C2094 H2088 0.930 . S
C2094 C2095 1.367 . S
C2094 C2102 1.378 . S
C2095 C2094 1.367 . S
C2095 C2103 1.433 . S
C2096 H2092 0.929 . S
C2096 C2098 1.378 . S
C2096 C2100 1.350 . S
C2097 C2100 1.463 . S
C2097 C2102 1.350 . S
C2097 N2105 1.427 . S
C2098 H2089 0.930 . S
C2098 C2096 1.378 . S
C2098 C2099 1.367 . S
C2099 C2098 1.367 . S
C2099 C2101 1.433 . S
C2100 C2096 1.350 . S
C2100 C2097 1.463 . S
C2100 N2104 1.427 . S
C2101 H2091 0.929 . S
C2101 C2099 1.433 . S
C2101 N2104 1.384 . S
C2102 H2093 0.929 . S
C2102 C2094 1.378 . S
C2102 C2097 1.350 . S
C2103 H2090 0.929 . S
C2103 C2095 1.433 . S
C2103 N2105 1.384 . S
N2104 C2100 1.427 . S
N2104 C2101 1.384 . S
N2105 C2097 1.427 . S
N2105 C2103 1.384 . S
H2106 C2112 0.930 . S
H2107 C2116 0.930 . S
H2108 C2121 0.929 . S
H2109 C2119 0.929 . S
H2110 C2114 0.929 . S
H2111 C2120 0.929 . S
C2112 H2106 0.930 . S
C2112 C2113 1.367 . S
C2112 C2120 1.378 . S
C2113 C2112 1.367 . S
C2113 C2121 1.433 . S
C2114 H2110 0.929 . S
C2114 C2116 1.378 . S
C2114 C2118 1.350 . S
C2115 C2118 1.463 . S
C2115 C2120 1.350 . S
C2115 N2123 1.427 . S
C2116 H2107 0.930 . S
C2116 C2114 1.378 . S
C2116 C2117 1.367 . S
C2117 C2116 1.367 . S
C2117 C2119 1.433 . S
C2118 C2114 1.350 . S
C2118 C2115 1.463 . S
C2118 N2122 1.427 . S
C2119 H2109 0.929 . S
C2119 C2117 1.433 . S
C2119 N2122 1.384 . S
C2120 H2111 0.929 . S
C2120 C2112 1.378 . S
C2120 C2115 1.350 . S
C2121 H2108 0.929 . S
C2121 C2113 1.433 . S
C2121 N2123 1.384 . S
N2122 C2118 1.427 . S
N2122 C2119 1.384 . S
N2123 C2115 1.427 . S
N2123 C2121 1.384 . S
H2124 C2130 0.930 . S
H2125 C2134 0.930 . S
H2126 C2139 0.929 . S
H2127 C2137 0.929 . S
H2128 C2132 0.929 . S
H2129 C2138 0.929 . S
C2130 H2124 0.930 . S
C2130 C2131 1.367 . S
C2130 C2138 1.378 . S
C2131 C2130 1.367 . S
C2131 C2139 1.433 . S
C2132 H2128 0.929 . S
C2132 C2134 1.378 . S
C2132 C2136 1.350 . S
C2133 C2136 1.463 . S
C2133 C2138 1.350 . S
C2133 N2141 1.427 . S
C2134 H2125 0.930 . S
C2134 C2132 1.378 . S
C2134 C2135 1.367 . S
C2135 C2134 1.367 . S
C2135 C2137 1.433 . S
C2136 C2132 1.350 . S
C2136 C2133 1.463 . S
C2136 N2140 1.427 . S
C2137 H2127 0.929 . S
C2137 C2135 1.433 . S
C2137 N2140 1.384 . S
C2138 H2129 0.929 . S
C2138 C2130 1.378 . S
C2138 C2133 1.350 . S
C2139 H2126 0.929 . S
C2139 C2131 1.433 . S
C2139 N2141 1.384 . S
N2140 C2136 1.427 . S
N2140 C2137 1.384 . S
N2141 C2133 1.427 . S
N2141 C2139 1.384 . S
H2142 C2148 0.930 . S
H2143 C2152 0.930 . S
H2144 C2157 0.929 . S
H2145 C2155 0.929 . S
H2146 C2150 0.929 . S
H2147 C2156 0.929 . S
C2148 H2142 0.930 . S
C2148 C2149 1.367 . S
C2148 C2156 1.378 . S
C2149 C2148 1.367 . S
C2149 C2157 1.433 . S
C2150 H2146 0.929 . S
C2150 C2152 1.378 . S
C2150 C2154 1.350 . S
C2151 C2154 1.463 . S
C2151 C2156 1.350 . S
C2151 N2159 1.427 . S
C2152 H2143 0.930 . S
C2152 C2150 1.378 . S
C2152 C2153 1.367 . S
C2153 C2152 1.367 . S
C2153 C2155 1.433 . S
C2154 C2150 1.350 . S
C2154 C2151 1.463 . S
C2154 N2158 1.427 . S
C2155 H2145 0.929 . S
C2155 C2153 1.433 . S
C2155 N2158 1.384 . S
C2156 H2147 0.929 . S
C2156 C2148 1.378 . S
C2156 C2151 1.350 . S
C2157 H2144 0.929 . S
C2157 C2149 1.433 . S
C2157 N2159 1.384 . S
N2158 C2154 1.427 . S
N2158 C2155 1.384 . S
N2159 C2151 1.427 . S
N2159 C2157 1.384 . S
H2160 C2166 0.930 . S
H2161 C2170 0.930 . S
H2162 C2175 0.929 . S
H2163 C2173 0.929 . S
H2164 C2168 0.929 . S
H2165 C2174 0.929 . S
C2166 H2160 0.930 . S
C2166 C2167 1.367 . S
C2166 C2174 1.378 . S
C2167 C2166 1.367 . S
C2167 C2175 1.433 . S
C2168 H2164 0.929 . S
C2168 C2170 1.378 . S
C2168 C2172 1.350 . S
C2169 C2172 1.463 . S
C2169 C2174 1.350 . S
C2169 N2177 1.427 . S
C2170 H2161 0.930 . S
C2170 C2168 1.378 . S
C2170 C2171 1.367 . S
C2171 C2170 1.367 . S
C2171 C2173 1.433 . S
C2172 C2168 1.350 . S
C2172 C2169 1.463 . S
C2172 N2176 1.427 . S
C2173 H2163 0.929 . S
C2173 C2171 1.433 . S
C2173 N2176 1.384 . S
C2174 H2165 0.929 . S
C2174 C2166 1.378 . S
C2174 C2169 1.350 . S
C2175 H2162 0.929 . S
C2175 C2167 1.433 . S
C2175 N2177 1.384 . S
N2176 C2172 1.427 . S
N2176 C2173 1.384 . S
N2177 C2169 1.427 . S
N2177 C2175 1.384 . S
H2178 C2184 0.930 . S
H2179 C2188 0.930 . S
H2180 C2193 0.929 . S
H2181 C2191 0.929 . S
H2182 C2186 0.929 . S
H2183 C2192 0.929 . S
C2184 H2178 0.930 . S
C2184 C2185 1.367 . S
C2184 C2192 1.378 . S
C2185 C2184 1.367 . S
C2185 C2193 1.433 . S
C2186 H2182 0.929 . S
C2186 C2188 1.378 . S
C2186 C2190 1.350 . S
C2187 C2190 1.463 . S
C2187 C2192 1.350 . S
C2187 N2195 1.427 . S
C2188 H2179 0.930 . S
C2188 C2186 1.378 . S
C2188 C2189 1.367 . S
C2189 C2188 1.367 . S
C2189 C2191 1.433 . S
C2190 C2186 1.350 . S
C2190 C2187 1.463 . S
C2190 N2194 1.427 . S
C2191 H2181 0.929 . S
C2191 C2189 1.433 . S
C2191 N2194 1.384 . S
C2192 H2183 0.929 . S
C2192 C2184 1.378 . S
C2192 C2187 1.350 . S
C2193 H2180 0.929 . S
C2193 C2185 1.433 . S
C2193 N2195 1.384 . S
N2194 C2190 1.427 . S
N2194 C2191 1.384 . S
N2195 C2187 1.427 . S
N2195 C2193 1.384 . S
H2196 C2202 0.930 . S
H2197 C2206 0.930 . S
H2198 C2211 0.929 . S
H2199 C2209 0.929 . S
H2200 C2204 0.929 . S
H2201 C2210 0.929 . S
C2202 H2196 0.930 . S
C2202 C2203 1.367 . S
C2202 C2210 1.378 . S
C2203 C2202 1.367 . S
C2203 C2211 1.433 . S
C2204 H2200 0.929 . S
C2204 C2206 1.378 . S
C2204 C2208 1.350 . S
C2205 C2208 1.463 . S
C2205 C2210 1.350 . S
C2205 N2213 1.427 . S
C2206 H2197 0.930 . S
C2206 C2204 1.378 . S
C2206 C2207 1.367 . S
C2207 C2206 1.367 . S
C2207 C2209 1.433 . S
C2208 C2204 1.350 . S
C2208 C2205 1.463 . S
C2208 N2212 1.427 . S
C2209 H2199 0.929 . S
C2209 C2207 1.433 . S
C2209 N2212 1.384 . S
C2210 H2201 0.929 . S
C2210 C2202 1.378 . S
C2210 C2205 1.350 . S
C2211 H2198 0.929 . S
C2211 C2203 1.433 . S
C2211 N2213 1.384 . S
N2212 C2208 1.427 . S
N2212 C2209 1.384 . S
N2213 C2205 1.427 . S
N2213 C2211 1.384 . S
H2214 C2220 0.930 . S
H2215 C2224 0.930 . S
H2216 C2229 0.929 . S
H2217 C2227 0.929 . S
H2218 C2222 0.929 . S
H2219 C2228 0.929 . S
C2220 H2214 0.930 . S
C2220 C2221 1.367 . S
C2220 C2228 1.378 . S
C2221 C2220 1.367 . S
C2221 C2229 1.433 . S
C2222 H2218 0.929 . S
C2222 C2224 1.378 . S
C2222 C2226 1.350 . S
C2223 C2226 1.463 . S
C2223 C2228 1.350 . S
C2223 N2231 1.427 . S
C2224 H2215 0.930 . S
C2224 C2222 1.378 . S
C2224 C2225 1.367 . S
C2225 C2224 1.367 . S
C2225 C2227 1.433 . S
C2226 C2222 1.350 . S
C2226 C2223 1.463 . S
C2226 N2230 1.427 . S
C2227 H2217 0.929 . S
C2227 C2225 1.433 . S
C2227 N2230 1.384 . S
C2228 H2219 0.929 . S
C2228 C2220 1.378 . S
C2228 C2223 1.350 . S
C2229 H2216 0.929 . S
C2229 C2221 1.433 . S
C2229 N2231 1.384 . S
N2230 C2226 1.427 . S
N2230 C2227 1.384 . S
N2231 C2223 1.427 . S
N2231 C2229 1.384 . S
C1267 C781 1.564 . S
C1271 C1086 1.546 . S
C1285 C871 1.486 . S
C1289 C1106 1.488 . S
C1303 C751 1.534 . S
C1307 C1129 1.559 . S
C1321 C691 1.443 . S
C1325 C1109 1.470 . S
C1343 C1126 1.424 . S
C1339 C571 1.387 . S
C1357 C601 1.476 . S
C1361 C1089 1.474 . S
C1379 C1096 1.552 . S
C1375 C661 1.532 . S
C1397 C1116 1.498 . S
C1393 C541 1.487 . S
C1411 C631 1.579 . S
C1415 C1121 1.564 . S
C1429 C811 1.472 . S
C1433 C1101 1.465 . S
C1447 C841 1.417 . S
C1451 C1136 1.425 . S
C1469 C1081 1.468 . S
C1465 C721 1.420 . S
C1487 C1146 1.548 . S
C1483 C61 1.570 . S
C1501 C151 1.494 . S
C1505 C1166 1.497 . S
C1519 C31 1.533 . S
C1523 C1189 1.559 . S
C1537 C1051 1.432 . S
C1541 C1169 1.462 . S
C1555 C931 1.387 . S
C1559 C1186 1.422 . S
C1573 C961 1.466 . S
C1577 C1149 1.470 . S
C1591 C1021 1.532 . S
C1595 C1156 1.552 . S
C1609 C901 1.476 . S
C1613 C1176 1.489 . S
C1631 C1181 1.566 . S
C1627 C991 1.584 . S
C1645 C91 1.473 . S
C1649 C1161 1.462 . S
C1667 C1196 1.420 . S
C1663 C121 1.410 . S
C1681 C1 1.424 . S
C1685 C1141 1.472 . S
C1703 C1206 1.552 . S
C1699 C421 1.571 . S
C1717 C511 1.491 . S
C1721 C1226 1.499 . S
C1739 C1249 1.569 . S
C1735 C391 1.544 . S
C1757 C1229 1.461 . S
C1753 C331 1.433 . S
C1775 C1246 1.425 . S
C1771 C211 1.402 . S
C1789 C241 1.476 . S
C1793 C1209 1.473 . S
C1807 C301 1.530 . S
C1811 C1216 1.550 . S
C1825 C181 1.486 . S
C1829 C1236 1.498 . S
C1847 C1241 1.563 . S
C1843 C271 1.584 . S
C1861 C451 1.472 . S
C1865 C1221 1.468 . S
C1879 C481 1.417 . S
C1883 C1256 1.427 . S
C1897 C361 1.427 . S
C1901 C1201 1.469 . S
C1915 C920 1.262 . S
C1919 C1099 1.252 1_565 S
C1937 C1119 1.612 . S
C1933 C980 1.661 . S
C1951 C1040 1.456 . S
C1955 C1128 1.463 . S
C1969 C380 1.625 . S
C1973 C1108 1.621 . S
C1987 C440 1.478 . S
C1991 C1139 1.454 . S
C2009 C1088 1.248 1_545 S
C2005 C500 1.247 . S
C2023 C200 1.250 . S
C2027 C1159 1.238 . S
C2041 C260 1.660 . S
C2045 C1179 1.614 . S
C2059 C320 1.456 . S
C2063 C1188 1.460 . S
C2077 C740 1.621 . S
C2081 C1168 1.625 . S
C2099 C1199 1.464 . S
C2095 C800 1.484 . S
C2113 C860 1.238 . S
C2117 C1148 1.237 . S
C2131 C560 1.252 . S
C2135 C1219 1.239 . S
C2149 C620 1.660 . S
C2153 C1239 1.613 . S
C2171 C1248 1.464 . S
C2167 C680 1.445 . S
C2185 C20 1.623 . S
C2189 C1228 1.614 . S
C2203 C80 1.480 . S
C2207 C1259 1.466 . S
C2221 C140 1.242 . S
C2225 C1208 1.239 . S
