# Generated by pormake.
# Topology anh, (6,3)-cn, num edge types: 1
# Building blocks:
#     Node 0, Type 0, BuildingBlock: CUKXOW_clean_sbu_0, # of connection points: 6
#     Node 1, Type 0, BuildingBlock: CUKXOW_clean_sbu_0, # of connection points: 6
#     Node 2, Type 0, BuildingBlock: CUKXOW_clean_sbu_0, # of connection points: 6
#     Node 3, Type 1, BuildingBlock: ESEHIV_clean_linker_0, # of connection points: 3
#     Node 4, Type 1, BuildingBlock: ESEHIV_clean_linker_0, # of connection points: 3
#     Node 5, Type 1, BuildingBlock: ESEHIV_clean_linker_0, # of connection points: 3
#     Node 6, Type 1, BuildingBlock: ESEHIV_clean_linker_0, # of connection points: 3
#     Node 7, Type 1, BuildingBlock: ESEHIV_clean_linker_0, # of connection points: 3
#     Node 8, Type 1, BuildingBlock: ESEHIV_clean_linker_0, # of connection points: 3
#     Edge 9, Type (0, 1), BuildingBlock: XUDNAN_clean_linker_2, # of connection points: 2
#     Edge 10, Type (0, 1), BuildingBlock: XUDNAN_clean_linker_2, # of connection points: 2
#     Edge 11, Type (0, 1), BuildingBlock: XUDNAN_clean_linker_2, # of connection points: 2
#     Edge 12, Type (0, 1), BuildingBlock: XUDNAN_clean_linker_2, # of connection points: 2
#     Edge 13, Type (0, 1), BuildingBlock: XUDNAN_clean_linker_2, # of connection points: 2
#     Edge 14, Type (0, 1), BuildingBlock: XUDNAN_clean_linker_2, # of connection points: 2
#     Edge 15, Type (0, 1), BuildingBlock: XUDNAN_clean_linker_2, # of connection points: 2
#     Edge 16, Type (0, 1), BuildingBlock: XUDNAN_clean_linker_2, # of connection points: 2
#     Edge 17, Type (0, 1), BuildingBlock: XUDNAN_clean_linker_2, # of connection points: 2
#     Edge 18, Type (0, 1), BuildingBlock: XUDNAN_clean_linker_2, # of connection points: 2
#     Edge 19, Type (0, 1), BuildingBlock: XUDNAN_clean_linker_2, # of connection points: 2
#     Edge 20, Type (0, 1), BuildingBlock: XUDNAN_clean_linker_2, # of connection points: 2
#     Edge 21, Type (0, 1), BuildingBlock: XUDNAN_clean_linker_2, # of connection points: 2
#     Edge 22, Type (0, 1), BuildingBlock: XUDNAN_clean_linker_2, # of connection points: 2
#     Edge 23, Type (0, 1), BuildingBlock: XUDNAN_clean_linker_2, # of connection points: 2
#     Edge 24, Type (0, 1), BuildingBlock: XUDNAN_clean_linker_2, # of connection points: 2
#     Edge 25, Type (0, 1), BuildingBlock: XUDNAN_clean_linker_2, # of connection points: 2
#     Edge 26, Type (0, 1), BuildingBlock: XUDNAN_clean_linker_2, # of connection points: 2
# Relax obj value: 0.137
# Max RMSD: 0.194
# Mean RMSD: 0.141
data_MOF--net-anh--node1-CUKXOW_clean_sbu_0--node2-ESEHIV_clean_linker_0--edge1-XUDNAN_clean_linker_2
_symmetry_space_group_name_H-M    P1
_symmetry_Int_Tables_number       1
_symmetry_cell_setting            triclinic
loop_
_symmetry_equiv_pos_as_xyz
'x, y, z'
_cell_length_a     26.501037
_cell_length_b     25.868222
_cell_length_c     50.644821
_cell_angle_alpha  94.685192
_cell_angle_beta   90.021183
_cell_angle_gamma 112.60954
loop_
_atom_site_label
_atom_site_type_symbol
_atom_site_fract_x
_atom_site_fract_y
_atom_site_fract_z
_atom_type_partial_charge
Tb0 Tb 0.08486 0.52995 0.15423 0.0
C1 C 0.04954 0.45265 0.20123 0.0
Tb2 Tb 1.01185 0.40287 0.14162 0.0
O3 O 1.01699 0.55379 0.14257 0.0
O4 O 1.00064 0.47653 0.15711 0.0
O5 O 0.08457 0.50067 0.19326 0.0
C6 C 0.92137 0.30972 0.13555 0.0
O7 O 1.01391 0.41207 0.18494 0.0
C8 C 0.11784 0.41959 0.13948 0.0
C9 C 0.0528 0.48106 0.095 0.0
O10 O 0.96357 0.31703 0.15066 0.0
O11 O 0.93071 0.35452 0.12329 0.0
O12 O 0.07775 0.37073 0.13513 0.0
O13 O 0.09547 0.45445 0.1442 0.0
O14 O 1.01513 0.43394 0.10245 0.0
O15 O 0.08783 0.52021 0.11177 0.0
C16 C 0.17374 0.62421 0.1604 0.0
O17 O 0.16817 0.57992 0.14493 0.0
O18 O 0.12894 0.61562 0.17319 0.0
C19 C 0.97845 0.5057 0.14662 0.0
Tb20 Tb 0.4967 0.98808 0.49219 0.0
C21 C 0.56206 0.03316 0.44096 0.0
Tb22 Tb 0.61656 0.06391 0.49823 0.0
O23 O 0.47291 0.05715 0.50754 0.0
O24 O 0.54428 0.07347 0.48701 0.0
O25 O 0.5192 0.9931 0.45036 0.0
C26 C 0.71079 0.15272 0.50662 0.0
O27 O 0.601 0.07092 0.4568 0.0
C28 C 0.59585 0.95566 0.48966 0.0
C29 C 0.55098 0.01923 0.54955 0.0
O30 O 0.70514 0.10436 0.49474 0.0
O31 O 0.66344 0.1506 0.51439 0.0
O32 O 0.64012 0.99501 0.48252 0.0
O33 O 0.56906 0.97828 0.50331 0.0
O34 O 0.59448 0.05844 0.54005 0.0
O35 O 0.51145 0.98191 0.53378 0.0
C36 C 0.40171 0.90116 0.4824 0.0
O37 O 0.40769 0.94957 0.49429 0.0
O38 O 0.44917 0.9018 0.4757 0.0
C39 C 0.51729 0.09625 0.50038 0.0
Tb40 Tb 0.52027 0.51741 0.82345 0.0
C41 C 0.57766 0.53569 0.87883 0.0
Tb42 Tb 0.63897 0.54779 0.82584 0.0
O43 O 0.50021 0.43433 0.83686 0.0
O44 O 0.57101 0.47161 0.8156 0.0
O45 O 0.53761 0.54259 0.86581 0.0
C46 C 0.74439 0.57207 0.83473 0.0
O47 O 0.61775 0.52695 0.86621 0.0
C48 C 0.60821 0.63142 0.81942 0.0
C49 C 0.58441 0.5231 0.76957 0.0
O50 O 0.71626 0.5981 0.84617 0.0
O51 O 0.71276 0.53043 0.81867 0.0
O52 O 0.65089 0.62654 0.80915 0.0
O53 O 0.58751 0.59269 0.83435 0.0
O54 O 0.62846 0.52798 0.78349 0.0
O55 O 0.53818 0.51945 0.78101 0.0
C56 C 0.42735 0.53056 0.81421 0.0
O57 O 0.4326 0.49389 0.82888 0.0
O58 O 0.47416 0.55858 0.80457 0.0
C59 C 0.54587 0.43132 0.82925 0.0
H60 H 0.47481 0.94932 0.24678 0.0
H61 H 0.62813 0.08755 0.23926 0.0
H62 H 0.53709 0.99202 0.16958 0.0
C63 C 0.50589 0.97574 0.23448 0.0
C64 C 0.5006 0.96441 0.20675 0.0
C65 C 0.55132 0.02063 0.24647 0.0
C66 C 0.59218 0.05366 0.23032 0.0
C67 C 0.58716 0.04355 0.20262 0.0
C68 C 0.54096 0.99951 0.19099 0.0
H69 H 0.56227 0.626 0.57526 0.0
H70 H 0.54645 0.45483 0.5747 0.0
H71 H 0.53615 0.52274 0.50106 0.0
C72 C 0.55389 0.58562 0.56431 0.0
C73 C 0.54747 0.57981 0.53644 0.0
C74 C 0.55358 0.54053 0.57794 0.0
C75 C 0.54502 0.4889 0.56396 0.0
C76 C 0.53842 0.48177 0.53628 0.0
C77 C 0.54028 0.52765 0.5225 0.0
H78 H 0.05696 0.68725 0.92495 0.0
H79 H 0.20869 0.66731 0.93587 0.0
H80 H 0.17765 0.73462 0.86568 0.0
C81 C 0.09815 0.69483 0.91873 0.0
C82 C 0.11454 0.71516 0.89396 0.0
C83 C 0.13165 0.67705 0.93394 0.0
C84 C 0.18364 0.68352 0.92494 0.0
C85 C 0.20025 0.70327 0.90006 0.0
C86 C 0.1667 0.72203 0.88546 0.0
H87 H 0.98152 0.40551 0.4036 0.0
H88 H 0.12378 0.5561 0.39534 0.0
H89 H 0.05315 0.52243 0.4715 0.0
C90 C 1.01354 0.44371 0.41227 0.0
C91 C 1.01349 0.45902 0.43955 0.0
C92 C 0.05302 0.47839 0.39599 0.0
C93 C 0.09285 0.52893 0.40751 0.0
C94 C 0.09246 0.5455 0.43458 0.0
C95 C 0.05281 0.51027 0.45049 0.0
H96 H 0.58828 0.11148 0.747 0.0
H97 H 0.5956 0.94877 0.74495 0.0
H98 H 0.60925 0.04546 0.81982 0.0
C99 C 0.59442 0.07917 0.75734 0.0
C100 C 0.60134 0.08564 0.78514 0.0
C101 C 0.59118 0.02939 0.74293 0.0
C102 C 0.59661 0.98652 0.75634 0.0
C103 C 0.60227 0.9913 0.78409 0.0
C104 C 0.60529 0.04142 0.79839 0.0
H105 H 0.48274 0.50906 0.07332 0.0
H106 H 0.64625 0.51462 0.07464 0.0
H107 H 0.54802 0.46698 0.14306 0.0
C108 C 0.516 0.50446 0.08398 0.0
C109 C 0.50833 0.48708 0.10989 0.0
C110 C 0.56569 0.51513 0.07136 0.0
C111 C 0.60874 0.50851 0.08487 0.0
C112 C 0.60405 0.49223 0.11083 0.0
C113 C 0.55281 0.48026 0.12316 0.0
H114 H 0.21178 0.50771 0.12372 0.0
H115 H 0.15805 0.34783 0.15792 0.0
H116 H 0.2525 0.35176 0.15797 0.0
H117 H 0.30406 0.48035 0.07976 0.0
H118 H 0.3557 0.55071 0.08284 0.0
H119 H 0.28527 0.53947 0.08831 0.0
H120 H 0.31186 0.59257 0.13509 0.0
H121 H 0.38247 0.6049 0.12934 0.0
H122 H 0.3502 0.57108 0.15809 0.0
H123 H 0.35317 0.37017 0.15244 0.0
H124 H 0.44911 0.39861 0.1388 0.0
H125 H 0.43944 0.54539 0.10699 0.0
C126 C 0.22027 0.47444 0.13192 0.0
C127 C 0.17716 0.42789 0.14138 0.0
C128 C 0.19007 0.38418 0.15085 0.0
C129 C 0.24386 0.38605 0.151 0.0
C130 C 0.28528 0.43181 0.14131 0.0
C131 C 0.27422 0.47525 0.13184 0.0
C132 C 0.32586 0.51736 0.12074 0.0
C133 C 0.31719 0.52224 0.09116 0.0
C134 C 0.34368 0.57491 0.13677 0.0
C135 C 0.36691 0.49018 0.1249 0.0
C136 C 0.34289 0.44136 0.13724 0.0
C137 C 0.37239 0.40857 0.14286 0.0
C138 C 0.42728 0.42531 0.13521 0.0
C139 C 0.45266 0.47424 0.1217 0.0
C140 C 0.42172 0.50743 0.11705 0.0
H141 H 0.80319 0.16536 0.48001 0.0
H142 H 0.72711 0.25727 0.52982 0.0
H143 H 0.80286 0.3467 0.52182 0.0
H144 H 0.94866 0.26004 0.49651 0.0
H145 H 0.96813 0.25182 0.46281 0.0
H146 H 0.91337 0.19517 0.4763 0.0
H147 H 0.84893 0.19322 0.43738 0.0
H148 H 0.90307 0.25024 0.42399 0.0
H149 H 0.83906 0.25652 0.43142 0.0
H150 H 0.88056 0.42617 0.50387 0.0
H151 H 0.95395 0.48917 0.4777 0.0
H152 H 0.97779 0.34464 0.43907 0.0
C153 C 0.80348 0.20417 0.48995 0.0
C154 C 0.75991 0.20464 0.5058 0.0
C155 C 0.76066 0.25621 0.51787 0.0
C156 C 0.80344 0.3071 0.51343 0.0
C157 C 0.84497 0.30542 0.4969 0.0
C158 C 0.8455 0.25519 0.4855 0.0
C159 C 0.8915 0.26492 0.4664 0.0
C160 C 0.93287 0.24161 0.4761 0.0
C161 C 0.86928 0.23974 0.43814 0.0
C162 C 0.91581 0.32844 0.46821 0.0
C163 C 0.889 0.35112 0.48616 0.0
C164 C 0.90244 0.40891 0.49009 0.0
C165 C 0.94421 0.44435 0.47518 0.0
C166 C 0.97161 0.42178 0.4564 0.0
C167 C 0.95743 0.3631 0.45319 0.0
H168 H 0.54499 0.66862 0.7905 0.0
H169 H 0.66429 0.71738 0.85569 0.0
H170 H 0.66858 0.81507 0.85749 0.0
H171 H 0.60615 0.78668 0.75745 0.0
H172 H 0.54404 0.79217 0.74614 0.0
H173 H 0.54377 0.72486 0.7528 0.0
H174 H 0.46583 0.7126 0.78474 0.0
H175 H 0.4659 0.78055 0.7796 0.0
H176 H 0.47435 0.76342 0.8127 0.0
H177 H 0.66944 0.90955 0.84766 0.0
H178 H 0.66445 0.99199 0.82797 0.0
H179 H 0.54088 0.87987 0.77076 0.0
C180 C 0.57042 0.69962 0.80571 0.0
C181 C 0.60357 0.68604 0.82331 0.0
C182 C 0.63797 0.72747 0.84243 0.0
C183 C 0.64064 0.78283 0.84355 0.0
C184 C 0.60834 0.79558 0.82549 0.0
C185 C 0.57333 0.75494 0.80714 0.0
C186 C 0.54668 0.78039 0.78846 0.0
C187 C 0.56105 0.77044 0.75952 0.0
C188 C 0.48449 0.75794 0.79162 0.0
C189 C 0.57338 0.8417 0.79858 0.0
C190 C 0.60857 0.84982 0.82003 0.0
C191 C 0.64108 0.90359 0.83122 0.0
C192 C 0.63788 0.95019 0.81996 0.0
C193 C 0.60251 0.94258 0.79772 0.0
C194 C 0.56897 0.8874 0.7875 0.0
H195 H 0.92739 0.57036 0.12716 0.0
H196 H 0.8922 0.41314 0.16193 0.0
H197 H 0.79301 0.39409 0.15942 0.0
H198 H 0.82329 0.60725 0.16036 0.0
H199 H 0.80742 0.63708 0.13211 0.0
H200 H 0.87513 0.63794 0.13686 0.0
H201 H 0.86827 0.58659 0.09009 0.0
H202 H 0.80078 0.58603 0.08513 0.0
H203 H 0.81136 0.52106 0.0815 0.0
H204 H 0.6943 0.39286 0.1524 0.0
H205 H 0.61042 0.40687 0.13907 0.0
H206 H 0.71177 0.56595 0.11019 0.0
C207 C 0.89888 0.53188 0.13429 0.0
C208 C 0.91806 0.4932 0.1447 0.0
C209 C 0.87893 0.44339 0.15373 0.0
C210 C 0.82229 0.43236 0.1525 0.0
C211 C 0.80479 0.47162 0.14228 0.0
C212 C 0.84226 0.52035 0.13326 0.0
C213 C 0.81341 0.55553 0.12271 0.0
C214 C 0.83086 0.61284 0.13898 0.0
C215 C 0.82409 0.5627 0.0931 0.0
C216 C 0.75387 0.51914 0.12697 0.0
C217 C 0.74936 0.47094 0.1384 0.0
C218 C 0.6978 0.4307 0.14352 0.0
C219 C 0.6501 0.43921 0.13612 0.0
C220 C 0.65377 0.48748 0.12352 0.0
C221 C 0.7069 0.52834 0.11965 0.0
H222 H 0.3837 0.79945 0.45546 0.0
H223 H 0.30249 0.89333 0.50035 0.0
H224 H 0.21485 0.81098 0.49442 0.0
H225 H 0.2743 0.72856 0.40751 0.0
H226 H 0.2851 0.66369 0.40526 0.0
H227 H 0.34161 0.72943 0.41379 0.0
H228 H 0.36143 0.69145 0.45675 0.0
H229 H 0.30486 0.62559 0.44841 0.0
H230 H 0.30776 0.6648 0.47987 0.0
H231 H 0.13645 0.71884 0.48358 0.0
H232 H 0.07118 0.62446 0.46648 0.0
H233 H 0.20323 0.59123 0.42799 0.0
C234 C 0.34741 0.80254 0.46402 0.0
C235 C 0.34954 0.85246 0.47836 0.0
C236 C 0.30144 0.85529 0.48926 0.0
C237 C 0.25162 0.80877 0.48607 0.0
C238 C 0.2508 0.76001 0.47186 0.0
C239 C 0.29731 0.75665 0.46087 0.0
C240 C 0.28502 0.69982 0.44591 0.0
C241 C 0.29722 0.70576 0.41637 0.0
C242 C 0.31664 0.66857 0.45849 0.0
C243 C 0.22423 0.67191 0.45003 0.0
C244 C 0.20541 0.70715 0.46526 0.0
C245 C 0.15067 0.69078 0.47168 0.0
C246 C 0.11401 0.6371 0.46201 0.0
C247 C 0.13226 0.60071 0.44596 0.0
C248 C 0.18816 0.61838 0.44008 0.0
H249 H 0.61519 0.39861 0.79842 0.0
H250 H 0.50285 0.34971 0.86257 0.0
H251 H 0.51575 0.26007 0.86242 0.0
H252 H 0.56655 0.26873 0.76266 0.0
H253 H 0.63174 0.27146 0.75106 0.0
H254 H 0.6214 0.33557 0.75917 0.0
H255 H 0.70478 0.37078 0.79224 0.0
H256 H 0.71553 0.30667 0.78413 0.0
H257 H 0.70728 0.32785 0.81812 0.0
H258 H 0.53152 0.17205 0.85183 0.0
H259 H 0.54633 0.0902 0.83048 0.0
H260 H 0.64861 0.19532 0.77301 0.0
C261 C 0.59451 0.36955 0.81286 0.0
C262 C 0.55828 0.38085 0.83061 0.0
C263 C 0.53085 0.34158 0.84885 0.0
C264 C 0.53816 0.29079 0.84901 0.0
C265 C 0.57309 0.28006 0.83081 0.0
C266 C 0.60092 0.31832 0.81308 0.0
C267 C 0.63131 0.29397 0.79374 0.0
C268 C 0.61154 0.29233 0.76497 0.0
C269 C 0.69342 0.32677 0.79728 0.0
C270 C 0.61446 0.2354 0.80273 0.0
C271 C 0.58178 0.22864 0.82447 0.0
C272 C 0.55798 0.17707 0.83514 0.0
C273 C 0.56686 0.13083 0.82294 0.0
C274 C 0.59895 0.13637 0.80017 0.0
C275 C 0.62397 0.18977 0.79041 0.0
H276 H 0.52814 0.87646 0.52037 0.0
H277 H 0.64731 0.9005 0.45912 0.0
H278 H 0.6405 0.80279 0.46122 0.0
H279 H 0.57911 0.80146 0.55954 0.0
H280 H 0.51352 0.75437 0.56976 0.0
H281 H 0.52204 0.82312 0.56091 0.0
H282 H 0.44243 0.77851 0.52591 0.0
H283 H 0.43344 0.70945 0.53472 0.0
H284 H 0.44471 0.72602 0.50078 0.0
H285 H 0.62567 0.70484 0.47226 0.0
H286 H 0.60801 0.61651 0.49295 0.0
H287 H 0.50093 0.6572 0.54822 0.0
C288 C 0.55192 0.86072 0.50702 0.0
C289 C 0.588 0.8958 0.48941 0.0
C290 C 0.61928 0.87415 0.47265 0.0
C291 C 0.61553 0.81868 0.47366 0.0
C292 C 0.58038 0.78542 0.4916 0.0
C293 C 0.54914 0.80564 0.50801 0.0
C294 C 0.51801 0.76295 0.52703 0.0
C295 C 0.53416 0.78692 0.55602 0.0
C296 C 0.45597 0.74305 0.52179 0.0
C297 C 0.53796 0.71628 0.51933 0.0
C298 C 0.57301 0.72958 0.49849 0.0
C299 C 0.59787 0.69375 0.48842 0.0
C300 C 0.5874 0.6435 0.50022 0.0
C301 C 0.55295 0.62975 0.52213 0.0
C302 C 0.52746 0.66652 0.5315 0.0
H303 H 0.8095 0.65537 0.86949 0.0
H304 H 0.81281 0.53878 0.80358 0.0
H305 H 0.91412 0.58219 0.80531 0.0
H306 H 0.9323 0.77774 0.85258 0.0
H307 H 0.95355 0.7981 0.88697 0.0
H308 H 0.88181 0.76423 0.87774 0.0
H309 H 0.87073 0.68652 0.90928 0.0
H310 H 0.94175 0.72105 0.91899 0.0
H311 H 0.91503 0.64825 0.90606 0.0
H312 H 1.01235 0.62968 0.81757 0.0
H313 H 0.09851 0.66478 0.84361 0.0
H314 H 0.03219 0.75324 0.90113 0.0
C315 C 0.83162 0.63944 0.85521 0.0
C316 C 0.80401 0.59405 0.83638 0.0
C317 C 0.83377 0.57355 0.81821 0.0
C318 C 0.89103 0.59851 0.81879 0.0
C319 C 0.91719 0.64394 0.83748 0.0
C320 C 0.88839 0.66375 0.85555 0.0
C321 C 0.92581 0.70773 0.87589 0.0
C322 C 0.9232 0.76537 0.87311 0.0
C323 C 0.91256 0.68977 0.9042 0.0
C324 C 0.98023 0.70717 0.86747 0.0
C325 C 0.97455 0.67163 0.8447 0.0
C326 C 1.0177 0.65868 0.83499 0.0
C327 C 0.06684 0.67938 0.84989 0.0
C328 C 0.07203 0.71217 0.87436 0.0
C329 C 1.02935 0.72896 0.88233 0.0
H330 H 0.20209 0.71772 0.19652 0.0
H331 H 0.25772 0.64635 0.12753 0.0
H332 H 0.34549 0.72765 0.1308 0.0
H333 H 0.26869 0.86541 0.18064 0.0
H334 H 0.28611 0.892 0.21485 0.0
H335 H 0.226 0.82931 0.20646 0.0
H336 H 0.26161 0.77496 0.23749 0.0
H337 H 0.32191 0.83733 0.24584 0.0
H338 H 0.32844 0.77341 0.23268 0.0
H339 H 0.42906 0.81073 0.14341 0.0
H340 H 0.5037 0.89509 0.16342 0.0
H341 H 0.39333 0.9188 0.22234 0.0
C342 C 0.23262 0.71981 0.18199 0.0
C343 C 0.22373 0.6756 0.16202 0.0
C344 C 0.26435 0.67942 0.14329 0.0
C345 C 0.31415 0.72557 0.14484 0.0
C346 C 0.32235 0.76799 0.16503 0.0
C347 C 0.28273 0.76612 0.18312 0.0
C348 C 0.30316 0.81711 0.20319 0.0
C349 C 0.26895 0.85309 0.20115 0.0
C350 C 0.30382 0.79963 0.23147 0.0
C351 C 0.36067 0.84694 0.19381 0.0
C352 C 0.37065 0.81776 0.17176 0.0
C353 C 0.42155 0.83481 0.16034 0.0
C354 C 0.46363 0.88318 0.17178 0.0
C355 C 0.45452 0.91446 0.19428 0.0
C356 C 0.40198 0.89601 0.20523 0.0
H357 H 0.46302 0.15203 0.52889 0.0
H358 H 0.59248 0.17633 0.47304 0.0
H359 H 0.6058 0.27627 0.47257 0.0
H360 H 0.40651 0.24563 0.50274 0.0
H361 H 0.39363 0.27196 0.53501 0.0
H362 H 0.39229 0.20167 0.52988 0.0
H363 H 0.4651 0.22412 0.5679 0.0
H364 H 0.4661 0.29413 0.57335 0.0
H365 H 0.52873 0.28403 0.56694 0.0
H366 H 0.60566 0.37463 0.47881 0.0
H367 H 0.5993 0.46478 0.49523 0.0
H368 H 0.4712 0.37615 0.54745 0.0
C369 C 0.49394 0.17838 0.51646 0.0
C370 C 0.52642 0.15644 0.50084 0.0
C371 C 0.56702 0.1923 0.48511 0.0
C372 C 0.57466 0.24904 0.48459 0.0
C373 C 0.54155 0.26935 0.50002 0.0
C374 C 0.50243 0.23521 0.51591 0.0
C375 C 0.47449 0.26805 0.53185 0.0
C376 C 0.41309 0.24547 0.52441 0.0
C377 C 0.48422 0.26756 0.56178 0.0
C378 C 0.50423 0.32604 0.52264 0.0
C379 C 0.54225 0.3259 0.50401 0.0
C380 C 0.57578 0.37515 0.49328 0.0
C381 C 0.57158 0.42608 0.50252 0.0
C382 C 0.53457 0.42736 0.52246 0.0
C383 C 0.49964 0.37635 0.53207 0.0
H384 H 0.34058 0.49699 0.84634 0.0
H385 H 0.41956 0.61545 0.78887 0.0
H386 H 0.36956 0.67452 0.80499 0.0
H387 H 0.20568 0.51675 0.84404 0.0
H388 H 0.19786 0.50817 0.87897 0.0
H389 H 0.23212 0.47125 0.85924 0.0
H390 H 0.31565 0.51467 0.89216 0.0
H391 H 0.28301 0.55405 0.9112 0.0
H392 H 0.34912 0.59008 0.89778 0.0
H393 H 0.32736 0.72952 0.83367 0.0
H394 H 0.27451 0.76522 0.86517 0.0
H395 H 0.21969 0.60735 0.90174 0.0
C396 C 0.34534 0.53396 0.83635 0.0
C397 C 0.38415 0.55246 0.8167 0.0
C398 C 0.39009 0.60127 0.80417 0.0
C399 C 0.36226 0.63513 0.81329 0.0
C400 C 0.32795 0.61848 0.83442 0.0
C401 C 0.31756 0.56792 0.84507 0.0
C402 C 0.28085 0.56103 0.86842 0.0
C403 C 0.22585 0.51138 0.86229 0.0
C404 C 0.30887 0.55459 0.89388 0.0
C405 C 0.27429 0.61661 0.86991 0.0
C406 C 0.30194 0.64933 0.85028 0.0
C407 C 0.30418 0.70367 0.84869 0.0
C408 C 0.27454 0.72375 0.86679 0.0
C409 C 0.24276 0.68917 0.88591 0.0
C410 C 0.24412 0.63554 0.88779 0.0
H411 H 0.89316 0.22668 0.16878 0.0
H412 H 0.82825 0.29137 0.10645 0.0
H413 H 0.73506 0.22275 0.11392 0.0
H414 H 0.79607 0.07729 0.15805 0.0
H415 H 0.79234 0.06994 0.19316 0.0
H416 H 0.85428 0.11743 0.17979 0.0
H417 H 0.85064 0.19877 0.21217 0.0
H418 H 0.78845 0.15187 0.22539 0.0
H419 H 0.79035 0.21512 0.2121 0.0
H420 H 0.64829 0.15424 0.13161 0.0
H421 H 0.57501 0.09195 0.15816 0.0
H422 H 0.69748 0.07465 0.20957 0.0
C423 C 0.85955 0.22516 0.15613 0.0
C424 C 0.86768 0.26354 0.13679 0.0
C425 C 0.8227 0.26159 0.12112 0.0
C426 C 0.76974 0.22286 0.12524 0.0
C427 C 0.76279 0.1866 0.14509 0.0
C428 C 0.80658 0.18727 0.16018 0.0
C429 C 0.78788 0.14809 0.18197 0.0
C430 C 0.80888 0.10035 0.17799 0.0
C431 C 0.80536 0.18042 0.20952 0.0
C432 C 0.72664 0.12637 0.17728 0.0
C433 C 0.7129 0.14836 0.1557 0.0
C434 C 0.65858 0.13618 0.14831 0.0
C435 C 0.6173 0.10079 0.16347 0.0
C436 C 0.6307 0.07864 0.18589 0.0
C437 C 0.68609 0.09129 0.19262 0.0
H438 H 0.13975 0.55524 0.07193 0.0
H439 H 0.97204 0.43824 0.05555 0.0
H440 H 0.97436 0.4744 0.01147 0.0
H441 H 0.12638 0.66887 0.04581 0.0
H442 H 0.19373 0.69572 0.03247 0.0
H443 H 0.1814 0.65563 0.06088 0.0
H444 H 0.21741 0.58531 0.03645 0.0
H445 H 0.23097 0.62579 0.00809 0.0
H446 H 0.18832 0.55188 0.0043 0.0
H447 H 0.99366 0.52963 0.97091 0.0
H448 H 1.02937 0.59394 0.93596 0.0
H449 H 0.18255 0.67792 0.98125 0.0
C450 C 0.10364 0.53634 0.05895 0.0
C451 C 0.0556 0.49397 0.06711 0.0
C452 C 1.0094 0.47035 0.04952 0.0
C453 C 1.0103 0.4909 0.02458 0.0
C454 C 0.05777 0.53459 0.01772 0.0
C455 C 0.10377 0.55645 0.03432 0.0
C456 C 0.1487 0.60515 0.02322 0.0
C457 C 0.16337 0.65953 0.0417 0.0
C458 C 0.19933 0.59117 0.01768 0.0
C459 C 0.12058 0.60821 -0.00215 0.0
C460 C 0.06832 0.56704 -0.00509 0.0
C461 C 0.03447 0.562 0.97304 0.0
C462 C 0.05494 0.59935 0.95348 0.0
C463 C 0.10862 0.64166 0.95605 0.0
C464 C 0.14146 0.64612 0.97869 0.0
H465 H 0.52236 0.95285 0.39881 0.0
H466 H 0.60544 0.13246 0.41913 0.0
H467 H 0.60938 0.14851 0.37177 0.0
H468 H 0.60196 0.94808 0.34177 0.0
H469 H 0.54569 0.89531 0.32258 0.0
H470 H 0.54664 0.89773 0.35822 0.0
H471 H 0.45171 0.9048 0.35849 0.0
H472 H 0.45054 0.90253 0.32283 0.0
H473 H 0.44218 0.96007 0.34228 0.0
H474 H 0.60294 0.1459 0.32281 0.0
H475 H 0.59222 0.12435 0.27445 0.0
H476 H 0.52074 0.94574 0.28515 0.0
C477 C 0.54096 0.99547 0.39319 0.0
C478 C 0.56342 0.04144 0.41252 0.0
C479 C 0.58823 0.09664 0.40456 0.0
C480 C 0.59045 0.10625 0.37775 0.0
C481 C 0.56829 0.06015 0.35913 0.0
C482 C 0.54452 0.0058 0.36638 0.0
C483 C 0.52626 0.96374 0.34218 0.0
C484 C 0.55699 0.92387 0.34113 0.0
C485 C 0.46397 0.93085 0.34141 0.0
C486 C 0.5433 1.00309 0.32031 0.0
C487 C 0.56694 0.05849 0.33059 0.0
C488 C 0.58506 0.10264 0.31445 0.0
C489 C 0.57922 0.08986 0.28695 0.0
C490 C 0.55622 0.03329 0.27579 0.0
C491 C 0.53799 0.98946 0.29287 0.0
H492 H 0.50654 0.52283 0.7332 0.0
H493 H 0.67222 0.5287 0.74004 0.0
H494 H 0.68328 0.54023 0.69245 0.0
H495 H 0.4735 0.44358 0.66896 0.0
H496 H 0.43372 0.48089 0.65755 0.0
H497 H 0.43873 0.47343 0.69238 0.0
H498 H 0.47412 0.58165 0.70212 0.0
H499 H 0.46997 0.5895 0.66725 0.0
H500 H 0.53371 0.62572 0.68578 0.0
H501 H 0.67769 0.55164 0.64466 0.0
H502 H 0.65225 0.55401 0.59794 0.0
H503 H 0.49046 0.54027 0.62099 0.0
C504 C 0.54498 0.52608 0.72465 0.0
C505 C 0.5885 0.52489 0.74047 0.0
C506 C 0.6382 0.52948 0.72846 0.0
C507 C 0.64507 0.53633 0.70142 0.0
C508 C 0.60188 0.53842 0.68654 0.0
C509 C 0.55258 0.53283 0.69756 0.0
C510 C 0.51243 0.53527 0.6768 0.0
C511 C 0.46159 0.48 0.67374 0.0
C512 C 0.49664 0.58606 0.68339 0.0
C513 C 0.54688 0.54269 0.6524 0.0
C514 C 0.59853 0.54494 0.65864 0.0
C515 C 0.63752 0.55023 0.63951 0.0
C516 C 0.62292 0.55185 0.61315 0.0
C517 C 0.56993 0.54821 0.60622 0.0
C518 C 0.53159 0.5443 0.62606 0.0
H519 H 0.61455 0.09301 0.59029 0.0
H520 H 0.48171 0.92988 0.57376 0.0
H521 H 0.47742 0.91637 0.62125 0.0
H522 H 0.68141 0.05379 0.64205 0.0
H523 H 0.69974 0.11955 0.66217 0.0
H524 H 0.69232 0.11756 0.62671 0.0
H525 H 0.6214 0.16373 0.63248 0.0
H526 H 0.62859 0.16587 0.66797 0.0
H527 H 0.56202 0.13157 0.65178 0.0
H528 H 0.48824 0.91835 0.66973 0.0
H529 H 0.51253 0.93712 0.71751 0.0
H530 H 0.63739 0.09932 0.70375 0.0
C531 C 0.58451 0.05455 0.59669 0.0
C532 C 0.54842 0.01261 0.57827 0.0
C533 C 0.5096 0.96287 0.58744 0.0
C534 C 0.50685 0.95464 0.61441 0.0
C535 C 0.54293 0.99664 0.63202 0.0
C536 C 0.58088 0.04573 0.62368 0.0
C537 C 0.61481 0.08393 0.64696 0.0
C538 C 0.67567 0.09429 0.64431 0.0
C539 C 0.60617 0.13957 0.64997 0.0
C540 C 0.59018 0.04825 0.66957 0.0
C541 C 0.54885 0.99806 0.66039 0.0
C542 C 0.52046 0.9575 0.67723 0.0
C543 C 0.53475 0.9684 0.70427 0.0
C544 C 0.57699 0.01947 0.71421 0.0
C545 C 0.60476 0.06009 0.69663 0.0
H546 H 0.49882 0.48885 0.91497 0.0
H547 H 0.66776 0.60153 0.90809 0.0
H548 H 0.67944 0.61572 0.95685 0.0
H549 H 0.46994 0.55892 0.97627 0.0
H550 H 0.43021 0.49365 0.98976 0.0
H551 H 0.43249 0.49731 0.95436 0.0
H552 H 0.4657 0.4151 0.94936 0.0
H553 H 0.46331 0.41108 0.98468 0.0
H554 H 0.52584 0.42048 0.96794 0.0
H555 H 0.67438 0.61585 0.00567 0.0
H556 H 0.65626 0.59454 0.05201 0.0
H557 H 0.49283 0.475 0.02812 0.0
C558 C 0.53782 0.51722 0.92389 0.0
C559 C 0.5823 0.54474 0.90797 0.0
C560 C 0.63326 0.58035 0.92008 0.0
C561 C 0.64017 0.58889 0.94771 0.0
C562 C 0.59587 0.56084 0.96297 0.0
C563 C 0.54584 0.52517 0.9516 0.0
C564 C 0.50684 0.49605 0.97267 0.0
C565 C 0.45691 0.51248 0.97329 0.0
C566 C 0.48942 0.43188 0.9684 0.0
C567 C 0.5431 0.52041 -0.00248 0.0
C568 C 0.59387 0.5585 -0.00861 0.0
C569 C 0.63485 0.58594 0.01073 0.0
C570 C 0.62425 0.57321 0.03701 0.0
C571 C 0.57338 0.53253 0.04378 0.0
C572 C 0.53194 0.50666 0.02372 0.0
H573 H 0.07912 0.53413 0.24274 0.0
H574 H 1.01646 0.35332 0.22411 0.0
H575 H 1.0135 0.34004 0.27198 0.0
H576 H 0.16285 0.54211 0.30041 0.0
H577 H 0.14598 0.59603 0.31842 0.0
H578 H 0.14584 0.59131 0.28273 0.0
H579 H 0.04564 0.58436 0.28123 0.0
H580 H 0.04554 0.58923 0.31689 0.0
H581 H 0.9942 0.53052 0.29796 0.0
H582 H 1.01865 0.34691 0.32194 0.0
H583 H 1.02525 0.3727 0.37015 0.0
H584 H 0.07712 0.54871 0.35567 0.0
C585 C 0.06535 0.49177 0.24873 0.0
C586 C 0.04852 0.44473 0.22978 0.0
C587 C 1.0296 0.38991 0.23836 0.0
C588 C 1.02797 0.38198 0.26547 0.0
C589 C 0.04472 0.42928 0.28368 0.0
C590 C 0.06251 0.48307 0.27567 0.0
C591 C 0.07544 0.52666 0.29919 0.0
C592 C 0.13614 0.56636 0.30024 0.0
C593 C 0.03796 0.55961 0.29879 0.0
C594 C 0.06243 0.48901 0.32169 0.0
C595 C 0.0453 0.43306 0.31236 0.0
C596 C 0.03158 0.39058 0.32948 0.0
C597 C 0.03508 0.40568 0.35686 0.0
C598 C 0.05145 0.46279 0.36691 0.0
C599 C 0.06532 0.50475 0.34888 0.0
loop_
_geom_bond_atom_site_label_1
_geom_bond_atom_site_label_2
_geom_bond_distance
_geom_bond_site_symmetry_2
_ccdc_geom_bond_type
Tb0 O3 2.453 1_455 S
Tb0 O4 2.596 1_455 S
Tb0 O5 2.374 . S
Tb0 O13 2.343 . S
Tb0 O15 2.353 . S
Tb0 O17 2.427 . S
Tb0 O18 2.513 . S
C1 O5 1.251 . S
C1 O7 1.263 . S
Tb2 O4 2.343 1_455 S
Tb2 O7 2.353 . S
Tb2 O10 2.427 1_455 S
Tb2 O11 2.513 1_455 S
Tb2 O12 2.453 . S
Tb2 O13 2.596 . S
Tb2 O14 2.374 . S
O3 Tb0 2.453 1_655 S
O3 C19 1.245 . S
O4 Tb0 2.596 1_655 S
O4 Tb2 2.343 1_655 S
O4 C19 1.259 . S
O5 Tb0 2.374 . S
O5 C1 1.251 . S
C6 O10 1.275 . S
C6 O11 1.246 . S
O7 C1 1.263 . S
O7 Tb2 2.353 . S
C8 O12 1.245 . S
C8 O13 1.259 . S
C9 O14 1.250 . S
C9 O15 1.263 . S
O10 Tb2 2.427 1_655 S
O10 C6 1.275 . S
O11 Tb2 2.513 1_655 S
O11 C6 1.246 . S
O12 Tb2 2.453 . S
O12 C8 1.245 . S
O13 Tb0 2.343 . S
O13 Tb2 2.596 . S
O13 C8 1.259 . S
O14 Tb2 2.374 . S
O14 C9 1.250 . S
O15 Tb0 2.353 . S
O15 C9 1.263 . S
C16 O17 1.275 . S
C16 O18 1.246 . S
O17 Tb0 2.427 . S
O17 C16 1.275 . S
O18 Tb0 2.513 . S
O18 C16 1.246 . S
C19 O3 1.245 . S
C19 O4 1.259 . S
Tb20 O23 2.453 . S
Tb20 O24 2.596 . S
Tb20 O25 2.374 . S
Tb20 O33 2.343 1_545 S
Tb20 O35 2.353 . S
Tb20 O37 2.427 1_545 S
Tb20 O38 2.513 1_545 S
C21 O25 1.251 . S
C21 O27 1.263 . S
Tb22 O24 2.343 . S
Tb22 O27 2.353 . S
Tb22 O30 2.427 . S
Tb22 O31 2.513 . S
Tb22 O32 2.453 1_545 S
Tb22 O33 2.596 1_545 S
Tb22 O34 2.374 . S
O23 Tb20 2.453 . S
O23 C39 1.245 . S
O24 Tb20 2.596 . S
O24 Tb22 2.343 . S
O24 C39 1.259 . S
O25 Tb20 2.374 . S
O25 C21 1.251 . S
C26 O30 1.275 . S
C26 O31 1.246 . S
O27 C21 1.263 . S
O27 Tb22 2.353 . S
C28 O32 1.245 . S
C28 O33 1.259 . S
C29 O34 1.250 . S
C29 O35 1.263 . S
O30 Tb22 2.427 . S
O30 C26 1.275 . S
O31 Tb22 2.513 . S
O31 C26 1.246 . S
O32 Tb22 2.453 1_565 S
O32 C28 1.245 . S
O33 Tb20 2.343 1_565 S
O33 Tb22 2.596 1_565 S
O33 C28 1.259 . S
O34 Tb22 2.374 . S
O34 C29 1.250 . S
O35 Tb20 2.353 . S
O35 C29 1.263 . S
C36 O37 1.275 . S
C36 O38 1.246 . S
O37 Tb20 2.427 1_565 S
O37 C36 1.275 . S
O38 Tb20 2.513 1_565 S
O38 C36 1.246 . S
C39 O23 1.245 . S
C39 O24 1.259 . S
Tb40 O43 2.453 . S
Tb40 O44 2.596 . S
Tb40 O45 2.374 . S
Tb40 O53 2.343 . S
Tb40 O55 2.353 . S
Tb40 O57 2.427 . S
Tb40 O58 2.513 . S
C41 O45 1.251 . S
C41 O47 1.263 . S
Tb42 O44 2.343 . S
Tb42 O47 2.353 . S
Tb42 O50 2.427 . S
Tb42 O51 2.513 . S
Tb42 O52 2.453 . S
Tb42 O53 2.596 . S
Tb42 O54 2.374 . S
O43 Tb40 2.453 . S
O43 C59 1.245 . S
O44 Tb40 2.596 . S
O44 Tb42 2.343 . S
O44 C59 1.259 . S
O45 Tb40 2.374 . S
O45 C41 1.251 . S
C46 O50 1.275 . S
C46 O51 1.246 . S
O47 C41 1.263 . S
O47 Tb42 2.353 . S
C48 O52 1.245 . S
C48 O53 1.259 . S
C49 O54 1.250 . S
C49 O55 1.263 . S
O50 Tb42 2.427 . S
O50 C46 1.275 . S
O51 Tb42 2.513 . S
O51 C46 1.246 . S
O52 Tb42 2.453 . S
O52 C48 1.245 . S
O53 Tb40 2.343 . S
O53 Tb42 2.596 . S
O53 C48 1.259 . S
O54 Tb42 2.374 . S
O54 C49 1.250 . S
O55 Tb40 2.353 . S
O55 C49 1.263 . S
C56 O57 1.275 . S
C56 O58 1.246 . S
O57 Tb40 2.427 . S
O57 C56 1.275 . S
O58 Tb40 2.513 . S
O58 C56 1.246 . S
C59 O43 1.245 . S
C59 O44 1.259 . S
H60 C63 0.931 1_565 S
H61 C66 0.928 . S
H62 C68 0.930 . S
C63 H60 0.931 1_545 S
C63 C64 1.413 1_545 S
C63 C65 1.360 . S
C64 C63 1.413 1_565 S
C64 C68 1.429 1_565 S
C65 C63 1.360 . S
C65 C66 1.372 . S
C66 H61 0.928 . S
C66 C65 1.372 . S
C66 C67 1.404 . S
C67 C66 1.404 . S
C67 C68 1.391 . S
C68 H62 0.930 . S
C68 C64 1.429 1_545 S
C68 C67 1.391 . S
H69 C72 0.931 . S
H70 C75 0.928 . S
H71 C77 0.930 . S
C72 H69 0.931 . S
C72 C73 1.413 . S
C72 C74 1.360 . S
C73 C72 1.413 . S
C73 C77 1.429 . S
C74 C72 1.360 . S
C74 C75 1.372 . S
C75 H70 0.928 . S
C75 C74 1.372 . S
C75 C76 1.404 . S
C76 C75 1.404 . S
C76 C77 1.391 . S
C77 H71 0.930 . S
C77 C73 1.429 . S
C77 C76 1.391 . S
H78 C81 0.931 1_655 S
H79 C84 0.928 . S
H80 C86 0.930 . S
C81 H78 0.931 1_455 S
C81 C82 1.413 . S
C81 C83 1.360 . S
C82 C81 1.413 . S
C82 C86 1.429 . S
C83 C81 1.360 . S
C83 C84 1.372 . S
C84 H79 0.928 . S
C84 C83 1.372 . S
C84 C85 1.404 . S
C85 C84 1.404 . S
C85 C86 1.391 . S
C86 H80 0.930 . S
C86 C82 1.429 . S
C86 C85 1.391 . S
H87 C90 0.931 . S
H88 C93 0.928 . S
H89 C95 0.930 . S
C90 H87 0.931 . S
C90 C91 1.413 . S
C90 C92 1.360 1_655 S
C91 C90 1.413 . S
C91 C95 1.429 1_655 S
C92 C90 1.360 1_455 S
C92 C93 1.372 . S
C93 H88 0.928 . S
C93 C92 1.372 . S
C93 C94 1.404 . S
C94 C93 1.404 . S
C94 C95 1.391 . S
C95 H89 0.930 . S
C95 C91 1.429 1_455 S
C95 C94 1.391 . S
H96 C99 0.931 . S
H97 C102 0.928 . S
H98 C104 0.930 . S
C99 H96 0.931 . S
C99 C100 1.413 . S
C99 C101 1.360 . S
C100 C99 1.413 . S
C100 C104 1.429 . S
C101 C99 1.360 . S
C101 C102 1.372 1_545 S
C102 H97 0.928 . S
C102 C101 1.372 1_565 S
C102 C103 1.404 . S
C103 C102 1.404 . S
C103 C104 1.391 1_565 S
C104 H98 0.930 . S
C104 C100 1.429 . S
C104 C103 1.391 1_545 S
H105 C108 0.931 . S
H106 C111 0.928 . S
H107 C113 0.930 . S
C108 H105 0.931 . S
C108 C109 1.413 . S
C108 C110 1.360 . S
C109 C108 1.413 . S
C109 C113 1.429 . S
C110 C108 1.360 . S
C110 C111 1.372 . S
C111 H106 0.928 . S
C111 C110 1.372 . S
C111 C112 1.404 . S
C112 C111 1.404 . S
C112 C113 1.391 . S
C113 H107 0.930 . S
C113 C109 1.429 . S
C113 C112 1.391 . S
H114 C126 0.930 . S
H115 C128 0.930 . S
H116 C129 0.930 . S
H117 C133 0.959 . S
H118 C133 0.959 . S
H119 C133 0.961 . S
H120 C134 0.960 . S
H121 C134 0.961 . S
H122 C134 0.959 . S
H123 C137 0.929 . S
H124 C138 0.931 . S
H125 C140 0.930 . S
C126 H114 0.930 . S
C126 C127 1.399 . S
C126 C131 1.399 . S
C127 C126 1.399 . S
C127 C128 1.376 . S
C128 H115 0.930 . S
C128 C127 1.376 . S
C128 C129 1.388 . S
C129 H116 0.930 . S
C129 C128 1.388 . S
C129 C130 1.390 . S
C130 C129 1.390 . S
C130 C131 1.394 . S
C130 C136 1.465 . S
C131 C126 1.399 . S
C131 C130 1.394 . S
C131 C132 1.516 . S
C132 C131 1.516 . S
C132 C133 1.502 . S
C132 C134 1.561 . S
C132 C135 1.526 . S
C133 H117 0.959 . S
C133 H118 0.959 . S
C133 H119 0.961 . S
C133 C132 1.502 . S
C134 H120 0.960 . S
C134 H121 0.961 . S
C134 H122 0.959 . S
C134 C132 1.561 . S
C135 C132 1.526 . S
C135 C136 1.396 . S
C135 C140 1.390 . S
C136 C130 1.465 . S
C136 C135 1.396 . S
C136 C137 1.399 . S
C137 H123 0.929 . S
C137 C136 1.399 . S
C137 C138 1.385 . S
C138 H124 0.931 . S
C138 C137 1.385 . S
C138 C139 1.389 . S
C139 C138 1.389 . S
C139 C140 1.387 . S
C140 H125 0.930 . S
C140 C135 1.390 . S
C140 C139 1.387 . S
H141 C153 0.930 . S
H142 C155 0.930 . S
H143 C156 0.930 . S
H144 C160 0.959 . S
H145 C160 0.959 . S
H146 C160 0.961 . S
H147 C161 0.960 . S
H148 C161 0.961 . S
H149 C161 0.959 . S
H150 C164 0.929 . S
H151 C165 0.931 . S
H152 C167 0.930 . S
C153 H141 0.930 . S
C153 C154 1.399 . S
C153 C158 1.399 . S
C154 C153 1.399 . S
C154 C155 1.376 . S
C155 H142 0.930 . S
C155 C154 1.376 . S
C155 C156 1.388 . S
C156 H143 0.930 . S
C156 C155 1.388 . S
C156 C157 1.390 . S
C157 C156 1.390 . S
C157 C158 1.394 . S
C157 C163 1.465 . S
C158 C153 1.399 . S
C158 C157 1.394 . S
C158 C159 1.516 . S
C159 C158 1.516 . S
C159 C160 1.502 . S
C159 C161 1.561 . S
C159 C162 1.526 . S
C160 H144 0.959 . S
C160 H145 0.959 . S
C160 H146 0.961 . S
C160 C159 1.502 . S
C161 H147 0.960 . S
C161 H148 0.961 . S
C161 H149 0.959 . S
C161 C159 1.561 . S
C162 C159 1.526 . S
C162 C163 1.396 . S
C162 C167 1.390 . S
C163 C157 1.465 . S
C163 C162 1.396 . S
C163 C164 1.399 . S
C164 H150 0.929 . S
C164 C163 1.399 . S
C164 C165 1.385 . S
C165 H151 0.931 . S
C165 C164 1.385 . S
C165 C166 1.389 . S
C166 C165 1.389 . S
C166 C167 1.387 . S
C167 H152 0.930 . S
C167 C162 1.390 . S
C167 C166 1.387 . S
H168 C180 0.930 . S
H169 C182 0.930 . S
H170 C183 0.930 . S
H171 C187 0.959 . S
H172 C187 0.959 . S
H173 C187 0.961 . S
H174 C188 0.960 . S
H175 C188 0.961 . S
H176 C188 0.959 . S
H177 C191 0.929 . S
H178 C192 0.931 . S
H179 C194 0.930 . S
C180 H168 0.930 . S
C180 C181 1.399 . S
C180 C185 1.399 . S
C181 C180 1.399 . S
C181 C182 1.376 . S
C182 H169 0.930 . S
C182 C181 1.376 . S
C182 C183 1.388 . S
C183 H170 0.930 . S
C183 C182 1.388 . S
C183 C184 1.390 . S
C184 C183 1.390 . S
C184 C185 1.394 . S
C184 C190 1.465 . S
C185 C180 1.399 . S
C185 C184 1.394 . S
C185 C186 1.516 . S
C186 C185 1.516 . S
C186 C187 1.502 . S
C186 C188 1.561 . S
C186 C189 1.526 . S
C187 H171 0.959 . S
C187 H172 0.959 . S
C187 H173 0.961 . S
C187 C186 1.502 . S
C188 H174 0.960 . S
C188 H175 0.961 . S
C188 H176 0.959 . S
C188 C186 1.561 . S
C189 C186 1.526 . S
C189 C190 1.396 . S
C189 C194 1.390 . S
C190 C184 1.465 . S
C190 C189 1.396 . S
C190 C191 1.399 . S
C191 H177 0.929 . S
C191 C190 1.399 . S
C191 C192 1.385 . S
C192 H178 0.931 . S
C192 C191 1.385 . S
C192 C193 1.389 . S
C193 C192 1.389 . S
C193 C194 1.387 . S
C194 H179 0.930 . S
C194 C189 1.390 . S
C194 C193 1.387 . S
H195 C207 0.930 . S
H196 C209 0.930 . S
H197 C210 0.930 . S
H198 C214 0.959 . S
H199 C214 0.959 . S
H200 C214 0.961 . S
H201 C215 0.960 . S
H202 C215 0.961 . S
H203 C215 0.959 . S
H204 C218 0.929 . S
H205 C219 0.931 . S
H206 C221 0.930 . S
C207 H195 0.930 . S
C207 C208 1.399 . S
C207 C212 1.399 . S
C208 C207 1.399 . S
C208 C209 1.376 . S
C209 H196 0.930 . S
C209 C208 1.376 . S
C209 C210 1.388 . S
C210 H197 0.930 . S
C210 C209 1.388 . S
C210 C211 1.390 . S
C211 C210 1.390 . S
C211 C212 1.394 . S
C211 C217 1.465 . S
C212 C207 1.399 . S
C212 C211 1.394 . S
C212 C213 1.516 . S
C213 C212 1.516 . S
C213 C214 1.502 . S
C213 C215 1.561 . S
C213 C216 1.526 . S
C214 H198 0.959 . S
C214 H199 0.959 . S
C214 H200 0.961 . S
C214 C213 1.502 . S
C215 H201 0.960 . S
C215 H202 0.961 . S
C215 H203 0.959 . S
C215 C213 1.561 . S
C216 C213 1.526 . S
C216 C217 1.396 . S
C216 C221 1.390 . S
C217 C211 1.465 . S
C217 C216 1.396 . S
C217 C218 1.399 . S
C218 H204 0.929 . S
C218 C217 1.399 . S
C218 C219 1.385 . S
C219 H205 0.931 . S
C219 C218 1.385 . S
C219 C220 1.389 . S
C220 C219 1.389 . S
C220 C221 1.387 . S
C221 H206 0.930 . S
C221 C216 1.390 . S
C221 C220 1.387 . S
H222 C234 0.930 . S
H223 C236 0.930 . S
H224 C237 0.930 . S
H225 C241 0.959 . S
H226 C241 0.959 . S
H227 C241 0.961 . S
H228 C242 0.960 . S
H229 C242 0.961 . S
H230 C242 0.959 . S
H231 C245 0.929 . S
H232 C246 0.931 . S
H233 C248 0.930 . S
C234 H222 0.930 . S
C234 C235 1.399 . S
C234 C239 1.399 . S
C235 C234 1.399 . S
C235 C236 1.376 . S
C236 H223 0.930 . S
C236 C235 1.376 . S
C236 C237 1.388 . S
C237 H224 0.930 . S
C237 C236 1.388 . S
C237 C238 1.390 . S
C238 C237 1.390 . S
C238 C239 1.394 . S
C238 C244 1.465 . S
C239 C234 1.399 . S
C239 C238 1.394 . S
C239 C240 1.516 . S
C240 C239 1.516 . S
C240 C241 1.502 . S
C240 C242 1.561 . S
C240 C243 1.526 . S
C241 H225 0.959 . S
C241 H226 0.959 . S
C241 H227 0.961 . S
C241 C240 1.502 . S
C242 H228 0.960 . S
C242 H229 0.961 . S
C242 H230 0.959 . S
C242 C240 1.561 . S
C243 C240 1.526 . S
C243 C244 1.396 . S
C243 C248 1.390 . S
C244 C238 1.465 . S
C244 C243 1.396 . S
C244 C245 1.399 . S
C245 H231 0.929 . S
C245 C244 1.399 . S
C245 C246 1.385 . S
C246 H232 0.931 . S
C246 C245 1.385 . S
C246 C247 1.389 . S
C247 C246 1.389 . S
C247 C248 1.387 . S
C248 H233 0.930 . S
C248 C243 1.390 . S
C248 C247 1.387 . S
H249 C261 0.930 . S
H250 C263 0.930 . S
H251 C264 0.930 . S
H252 C268 0.959 . S
H253 C268 0.959 . S
H254 C268 0.961 . S
H255 C269 0.960 . S
H256 C269 0.961 . S
H257 C269 0.959 . S
H258 C272 0.929 . S
H259 C273 0.931 . S
H260 C275 0.930 . S
C261 H249 0.930 . S
C261 C262 1.399 . S
C261 C266 1.399 . S
C262 C261 1.399 . S
C262 C263 1.376 . S
C263 H250 0.930 . S
C263 C262 1.376 . S
C263 C264 1.388 . S
C264 H251 0.930 . S
C264 C263 1.388 . S
C264 C265 1.390 . S
C265 C264 1.390 . S
C265 C266 1.394 . S
C265 C271 1.465 . S
C266 C261 1.399 . S
C266 C265 1.394 . S
C266 C267 1.516 . S
C267 C266 1.516 . S
C267 C268 1.502 . S
C267 C269 1.561 . S
C267 C270 1.526 . S
C268 H252 0.959 . S
C268 H253 0.959 . S
C268 H254 0.961 . S
C268 C267 1.502 . S
C269 H255 0.960 . S
C269 H256 0.961 . S
C269 H257 0.959 . S
C269 C267 1.561 . S
C270 C267 1.526 . S
C270 C271 1.396 . S
C270 C275 1.390 . S
C271 C265 1.465 . S
C271 C270 1.396 . S
C271 C272 1.399 . S
C272 H258 0.929 . S
C272 C271 1.399 . S
C272 C273 1.385 . S
C273 H259 0.931 . S
C273 C272 1.385 . S
C273 C274 1.389 . S
C274 C273 1.389 . S
C274 C275 1.387 . S
C275 H260 0.930 . S
C275 C270 1.390 . S
C275 C274 1.387 . S
H276 C288 0.930 . S
H277 C290 0.930 . S
H278 C291 0.930 . S
H279 C295 0.959 . S
H280 C295 0.959 . S
H281 C295 0.961 . S
H282 C296 0.960 . S
H283 C296 0.961 . S
H284 C296 0.959 . S
H285 C299 0.929 . S
H286 C300 0.931 . S
H287 C302 0.930 . S
C288 H276 0.930 . S
C288 C289 1.399 . S
C288 C293 1.399 . S
C289 C288 1.399 . S
C289 C290 1.376 . S
C290 H277 0.930 . S
C290 C289 1.376 . S
C290 C291 1.388 . S
C291 H278 0.930 . S
C291 C290 1.388 . S
C291 C292 1.390 . S
C292 C291 1.390 . S
C292 C293 1.394 . S
C292 C298 1.465 . S
C293 C288 1.399 . S
C293 C292 1.394 . S
C293 C294 1.516 . S
C294 C293 1.516 . S
C294 C295 1.502 . S
C294 C296 1.561 . S
C294 C297 1.526 . S
C295 H279 0.959 . S
C295 H280 0.959 . S
C295 H281 0.961 . S
C295 C294 1.502 . S
C296 H282 0.960 . S
C296 H283 0.961 . S
C296 H284 0.959 . S
C296 C294 1.561 . S
C297 C294 1.526 . S
C297 C298 1.396 . S
C297 C302 1.390 . S
C298 C292 1.465 . S
C298 C297 1.396 . S
C298 C299 1.399 . S
C299 H285 0.929 . S
C299 C298 1.399 . S
C299 C300 1.385 . S
C300 H286 0.931 . S
C300 C299 1.385 . S
C300 C301 1.389 . S
C301 C300 1.389 . S
C301 C302 1.387 . S
C302 H287 0.930 . S
C302 C297 1.390 . S
C302 C301 1.387 . S
H303 C315 0.930 . S
H304 C317 0.930 . S
H305 C318 0.930 . S
H306 C322 0.959 . S
H307 C322 0.959 . S
H308 C322 0.961 . S
H309 C323 0.960 . S
H310 C323 0.961 . S
H311 C323 0.959 . S
H312 C326 0.929 . S
H313 C327 0.931 . S
H314 C329 0.934 . S
C315 H303 0.930 . S
C315 C316 1.399 . S
C315 C320 1.399 . S
C316 C315 1.399 . S
C316 C317 1.376 . S
C317 H304 0.930 . S
C317 C316 1.376 . S
C317 C318 1.388 . S
C318 H305 0.930 . S
C318 C317 1.388 . S
C318 C319 1.390 . S
C319 C318 1.390 . S
C319 C320 1.394 . S
C319 C325 1.465 . S
C320 C315 1.399 . S
C320 C319 1.394 . S
C320 C321 1.516 . S
C321 C320 1.516 . S
C321 C322 1.502 . S
C321 C323 1.561 . S
C321 C324 1.526 . S
C322 H306 0.959 . S
C322 H307 0.959 . S
C322 H308 0.961 . S
C322 C321 1.502 . S
C323 H309 0.960 . S
C323 H310 0.961 . S
C323 H311 0.959 . S
C323 C321 1.561 . S
C324 C321 1.526 . S
C324 C325 1.396 . S
C324 C329 1.390 . S
C325 C319 1.465 . S
C325 C324 1.396 . S
C325 C326 1.399 . S
C326 H312 0.929 . S
C326 C325 1.399 . S
C326 C327 1.385 . S
C327 H313 0.931 . S
C327 C326 1.385 . S
C327 C328 1.389 . S
C328 C327 1.389 . S
C328 C329 1.387 . S
C329 H314 0.934 . S
C329 C324 1.390 . S
C329 C328 1.387 . S
H330 C342 0.930 . S
H331 C344 0.930 . S
H332 C345 0.930 . S
H333 C349 0.959 . S
H334 C349 0.959 . S
H335 C349 0.961 . S
H336 C350 0.960 . S
H337 C350 0.961 . S
H338 C350 0.959 . S
H339 C353 0.929 . S
H340 C354 0.931 . S
H341 C356 0.930 . S
C342 H330 0.930 . S
C342 C343 1.399 . S
C342 C347 1.399 . S
C343 C342 1.399 . S
C343 C344 1.376 . S
C344 H331 0.930 . S
C344 C343 1.376 . S
C344 C345 1.388 . S
C345 H332 0.930 . S
C345 C344 1.388 . S
C345 C346 1.390 . S
C346 C345 1.390 . S
C346 C347 1.394 . S
C346 C352 1.465 . S
C347 C342 1.399 . S
C347 C346 1.394 . S
C347 C348 1.516 . S
C348 C347 1.516 . S
C348 C349 1.502 . S
C348 C350 1.561 . S
C348 C351 1.526 . S
C349 H333 0.959 . S
C349 H334 0.959 . S
C349 H335 0.961 . S
C349 C348 1.502 . S
C350 H336 0.960 . S
C350 H337 0.961 . S
C350 H338 0.959 . S
C350 C348 1.561 . S
C351 C348 1.526 . S
C351 C352 1.396 . S
C351 C356 1.390 . S
C352 C346 1.465 . S
C352 C351 1.396 . S
C352 C353 1.399 . S
C353 H339 0.929 . S
C353 C352 1.399 . S
C353 C354 1.385 . S
C354 H340 0.931 . S
C354 C353 1.385 . S
C354 C355 1.389 . S
C355 C354 1.389 . S
C355 C356 1.387 . S
C356 H341 0.930 . S
C356 C351 1.390 . S
C356 C355 1.387 . S
H357 C369 0.930 . S
H358 C371 0.930 . S
H359 C372 0.930 . S
H360 C376 0.959 . S
H361 C376 0.959 . S
H362 C376 0.961 . S
H363 C377 0.960 . S
H364 C377 0.961 . S
H365 C377 0.959 . S
H366 C380 0.929 . S
H367 C381 0.931 . S
H368 C383 0.930 . S
C369 H357 0.930 . S
C369 C370 1.399 . S
C369 C374 1.399 . S
C370 C369 1.399 . S
C370 C371 1.376 . S
C371 H358 0.930 . S
C371 C370 1.376 . S
C371 C372 1.388 . S
C372 H359 0.930 . S
C372 C371 1.388 . S
C372 C373 1.390 . S
C373 C372 1.390 . S
C373 C374 1.394 . S
C373 C379 1.465 . S
C374 C369 1.399 . S
C374 C373 1.394 . S
C374 C375 1.516 . S
C375 C374 1.516 . S
C375 C376 1.502 . S
C375 C377 1.561 . S
C375 C378 1.526 . S
C376 H360 0.959 . S
C376 H361 0.959 . S
C376 H362 0.961 . S
C376 C375 1.502 . S
C377 H363 0.960 . S
C377 H364 0.961 . S
C377 H365 0.959 . S
C377 C375 1.561 . S
C378 C375 1.526 . S
C378 C379 1.396 . S
C378 C383 1.390 . S
C379 C373 1.465 . S
C379 C378 1.396 . S
C379 C380 1.399 . S
C380 H366 0.929 . S
C380 C379 1.399 . S
C380 C381 1.385 . S
C381 H367 0.931 . S
C381 C380 1.385 . S
C381 C382 1.389 . S
C382 C381 1.389 . S
C382 C383 1.387 . S
C383 H368 0.930 . S
C383 C378 1.390 . S
C383 C382 1.387 . S
H384 C396 0.930 . S
H385 C398 0.930 . S
H386 C399 0.930 . S
H387 C403 0.959 . S
H388 C403 0.959 . S
H389 C403 0.961 . S
H390 C404 0.960 . S
H391 C404 0.961 . S
H392 C404 0.959 . S
H393 C407 0.929 . S
H394 C408 0.931 . S
H395 C410 0.930 . S
C396 H384 0.930 . S
C396 C397 1.399 . S
C396 C401 1.399 . S
C397 C396 1.399 . S
C397 C398 1.376 . S
C398 H385 0.930 . S
C398 C397 1.376 . S
C398 C399 1.388 . S
C399 H386 0.930 . S
C399 C398 1.388 . S
C399 C400 1.390 . S
C400 C399 1.390 . S
C400 C401 1.394 . S
C400 C406 1.465 . S
C401 C396 1.399 . S
C401 C400 1.394 . S
C401 C402 1.516 . S
C402 C401 1.516 . S
C402 C403 1.502 . S
C402 C404 1.561 . S
C402 C405 1.526 . S
C403 H387 0.959 . S
C403 H388 0.959 . S
C403 H389 0.961 . S
C403 C402 1.502 . S
C404 H390 0.960 . S
C404 H391 0.961 . S
C404 H392 0.959 . S
C404 C402 1.561 . S
C405 C402 1.526 . S
C405 C406 1.396 . S
C405 C410 1.390 . S
C406 C400 1.465 . S
C406 C405 1.396 . S
C406 C407 1.399 . S
C407 H393 0.929 . S
C407 C406 1.399 . S
C407 C408 1.385 . S
C408 H394 0.931 . S
C408 C407 1.385 . S
C408 C409 1.389 . S
C409 C408 1.389 . S
C409 C410 1.387 . S
C410 H395 0.930 . S
C410 C405 1.390 . S
C410 C409 1.387 . S
H411 C423 0.930 . S
H412 C425 0.930 . S
H413 C426 0.930 . S
H414 C430 0.959 . S
H415 C430 0.959 . S
H416 C430 0.961 . S
H417 C431 0.960 . S
H418 C431 0.961 . S
H419 C431 0.959 . S
H420 C434 0.929 . S
H421 C435 0.931 . S
H422 C437 0.930 . S
C423 H411 0.930 . S
C423 C424 1.399 . S
C423 C428 1.399 . S
C424 C423 1.399 . S
C424 C425 1.376 . S
C425 H412 0.930 . S
C425 C424 1.376 . S
C425 C426 1.388 . S
C426 H413 0.930 . S
C426 C425 1.388 . S
C426 C427 1.390 . S
C427 C426 1.390 . S
C427 C428 1.394 . S
C427 C433 1.465 . S
C428 C423 1.399 . S
C428 C427 1.394 . S
C428 C429 1.516 . S
C429 C428 1.516 . S
C429 C430 1.502 . S
C429 C431 1.561 . S
C429 C432 1.526 . S
C430 H414 0.959 . S
C430 H415 0.959 . S
C430 H416 0.961 . S
C430 C429 1.502 . S
C431 H417 0.960 . S
C431 H418 0.961 . S
C431 H419 0.959 . S
C431 C429 1.561 . S
C432 C429 1.526 . S
C432 C433 1.396 . S
C432 C437 1.390 . S
C433 C427 1.465 . S
C433 C432 1.396 . S
C433 C434 1.399 . S
C434 H420 0.929 . S
C434 C433 1.399 . S
C434 C435 1.385 . S
C435 H421 0.931 . S
C435 C434 1.385 . S
C435 C436 1.389 . S
C436 C435 1.389 . S
C436 C437 1.387 . S
C437 H422 0.930 . S
C437 C432 1.390 . S
C437 C436 1.387 . S
H438 C450 0.930 . S
H439 C452 0.930 . S
H440 C453 0.930 . S
H441 C457 0.959 . S
H442 C457 0.959 . S
H443 C457 0.961 . S
H444 C458 0.960 . S
H445 C458 0.961 . S
H446 C458 0.959 . S
H447 C461 0.929 . S
H448 C462 0.931 . S
H449 C464 0.930 . S
C450 H438 0.930 . S
C450 C451 1.399 . S
C450 C455 1.399 . S
C451 C450 1.399 . S
C451 C452 1.376 . S
C452 H439 0.930 . S
C452 C451 1.376 . S
C452 C453 1.388 . S
C453 H440 0.930 . S
C453 C452 1.388 . S
C453 C454 1.390 . S
C454 C453 1.390 . S
C454 C455 1.394 . S
C454 C460 1.465 1_554 S
C455 C450 1.399 . S
C455 C454 1.394 . S
C455 C456 1.516 . S
C456 C455 1.516 . S
C456 C457 1.502 . S
C456 C458 1.561 . S
C456 C459 1.526 1_554 S
C457 H441 0.959 . S
C457 H442 0.959 . S
C457 H443 0.961 . S
C457 C456 1.502 . S
C458 H444 0.960 . S
C458 H445 0.961 . S
C458 H446 0.959 . S
C458 C456 1.561 . S
C459 C456 1.526 1_556 S
C459 C460 1.396 . S
C459 C464 1.390 . S
C460 C454 1.465 1_556 S
C460 C459 1.396 . S
C460 C461 1.399 . S
C461 H447 0.929 . S
C461 C460 1.399 . S
C461 C462 1.385 . S
C462 H448 0.931 . S
C462 C461 1.385 . S
C462 C463 1.389 . S
C463 C462 1.389 . S
C463 C464 1.387 . S
C464 H449 0.930 . S
C464 C459 1.390 . S
C464 C463 1.387 . S
H465 C477 0.930 1_565 S
H466 C479 0.930 . S
H467 C480 0.930 . S
H468 C484 0.959 . S
H469 C484 0.959 . S
H470 C484 0.961 . S
H471 C485 0.960 . S
H472 C485 0.961 . S
H473 C485 0.959 . S
H474 C488 0.929 . S
H475 C489 0.931 . S
H476 C491 0.930 1_565 S
C477 H465 0.930 1_545 S
C477 C478 1.399 . S
C477 C482 1.399 . S
C478 C477 1.399 . S
C478 C479 1.376 . S
C479 H466 0.930 . S
C479 C478 1.376 . S
C479 C480 1.388 . S
C480 H467 0.930 . S
C480 C479 1.388 . S
C480 C481 1.390 . S
C481 C480 1.390 . S
C481 C482 1.394 . S
C481 C487 1.465 . S
C482 C477 1.399 . S
C482 C481 1.394 . S
C482 C483 1.516 1_545 S
C483 C482 1.516 1_565 S
C483 C484 1.502 . S
C483 C485 1.561 . S
C483 C486 1.526 1_565 S
C484 H468 0.959 . S
C484 H469 0.959 . S
C484 H470 0.961 . S
C484 C483 1.502 . S
C485 H471 0.960 . S
C485 H472 0.961 . S
C485 H473 0.959 . S
C485 C483 1.561 . S
C486 C483 1.526 1_545 S
C486 C487 1.396 . S
C486 C491 1.390 . S
C487 C481 1.465 . S
C487 C486 1.396 . S
C487 C488 1.399 . S
C488 H474 0.929 . S
C488 C487 1.399 . S
C488 C489 1.385 . S
C489 H475 0.931 . S
C489 C488 1.385 . S
C489 C490 1.389 . S
C490 C489 1.389 . S
C490 C491 1.387 . S
C491 H476 0.930 1_545 S
C491 C486 1.390 . S
C491 C490 1.387 . S
H492 C504 0.930 . S
H493 C506 0.930 . S
H494 C507 0.930 . S
H495 C511 0.959 . S
H496 C511 0.959 . S
H497 C511 0.961 . S
H498 C512 0.960 . S
H499 C512 0.961 . S
H500 C512 0.959 . S
H501 C515 0.929 . S
H502 C516 0.931 . S
H503 C518 0.930 . S
C504 H492 0.930 . S
C504 C505 1.399 . S
C504 C509 1.399 . S
C505 C504 1.399 . S
C505 C506 1.376 . S
C506 H493 0.930 . S
C506 C505 1.376 . S
C506 C507 1.388 . S
C507 H494 0.930 . S
C507 C506 1.388 . S
C507 C508 1.390 . S
C508 C507 1.390 . S
C508 C509 1.394 . S
C508 C514 1.465 . S
C509 C504 1.399 . S
C509 C508 1.394 . S
C509 C510 1.516 . S
C510 C509 1.516 . S
C510 C511 1.502 . S
C510 C512 1.561 . S
C510 C513 1.526 . S
C511 H495 0.959 . S
C511 H496 0.959 . S
C511 H497 0.961 . S
C511 C510 1.502 . S
C512 H498 0.960 . S
C512 H499 0.961 . S
C512 H500 0.959 . S
C512 C510 1.561 . S
C513 C510 1.526 . S
C513 C514 1.396 . S
C513 C518 1.390 . S
C514 C508 1.465 . S
C514 C513 1.396 . S
C514 C515 1.399 . S
C515 H501 0.929 . S
C515 C514 1.399 . S
C515 C516 1.385 . S
C516 H502 0.931 . S
C516 C515 1.385 . S
C516 C517 1.389 . S
C517 C516 1.389 . S
C517 C518 1.387 . S
C518 H503 0.930 . S
C518 C513 1.390 . S
C518 C517 1.387 . S
H519 C531 0.930 . S
H520 C533 0.930 . S
H521 C534 0.930 . S
H522 C538 0.959 . S
H523 C538 0.959 . S
H524 C538 0.961 . S
H525 C539 0.960 . S
H526 C539 0.961 . S
H527 C539 0.959 . S
H528 C542 0.929 . S
H529 C543 0.931 . S
H530 C545 0.930 . S
C531 H519 0.930 . S
C531 C532 1.399 . S
C531 C536 1.399 . S
C532 C531 1.399 . S
C532 C533 1.376 1_545 S
C533 H520 0.930 . S
C533 C532 1.376 1_565 S
C533 C534 1.388 . S
C534 H521 0.930 . S
C534 C533 1.388 . S
C534 C535 1.390 1_565 S
C535 C534 1.390 1_545 S
C535 C536 1.394 . S
C535 C541 1.465 1_545 S
C536 C531 1.399 . S
C536 C535 1.394 . S
C536 C537 1.516 . S
C537 C536 1.516 . S
C537 C538 1.502 . S
C537 C539 1.561 . S
C537 C540 1.526 . S
C538 H522 0.959 . S
C538 H523 0.959 . S
C538 H524 0.961 . S
C538 C537 1.502 . S
C539 H525 0.960 . S
C539 H526 0.961 . S
C539 H527 0.959 . S
C539 C537 1.561 . S
C540 C537 1.526 . S
C540 C541 1.396 1_545 S
C540 C545 1.390 . S
C541 C535 1.465 1_565 S
C541 C540 1.396 1_565 S
C541 C542 1.399 . S
C542 H528 0.929 . S
C542 C541 1.399 . S
C542 C543 1.385 . S
C543 H529 0.931 . S
C543 C542 1.385 . S
C543 C544 1.389 1_565 S
C544 C543 1.389 1_545 S
C544 C545 1.387 . S
C545 H530 0.930 . S
C545 C540 1.390 . S
C545 C544 1.387 . S
H546 C558 0.930 . S
H547 C560 0.930 . S
H548 C561 0.930 . S
H549 C565 0.959 . S
H550 C565 0.959 . S
H551 C565 0.961 . S
H552 C566 0.960 . S
H553 C566 0.961 . S
H554 C566 0.959 . S
H555 C569 0.929 . S
H556 C570 0.931 . S
H557 C572 0.930 . S
C558 H546 0.930 . S
C558 C559 1.399 . S
C558 C563 1.399 . S
C559 C558 1.399 . S
C559 C560 1.376 . S
C560 H547 0.930 . S
C560 C559 1.376 . S
C560 C561 1.388 . S
C561 H548 0.930 . S
C561 C560 1.388 . S
C561 C562 1.390 . S
C562 C561 1.390 . S
C562 C563 1.394 . S
C562 C568 1.442 1_556 S
C563 C558 1.399 . S
C563 C562 1.394 . S
C563 C564 1.516 . S
C564 C563 1.516 . S
C564 C565 1.502 . S
C564 C566 1.561 . S
C564 C567 1.526 1_556 S
C565 H549 0.959 . S
C565 H550 0.959 . S
C565 H551 0.961 . S
C565 C564 1.502 . S
C566 H552 0.960 . S
C566 H553 0.961 . S
C566 H554 0.959 . S
C566 C564 1.561 . S
C567 C564 1.526 1_554 S
C567 C568 1.400 . S
C567 C572 1.390 . S
C568 C562 1.442 1_554 S
C568 C567 1.400 . S
C568 C569 1.416 . S
C569 H555 0.929 . S
C569 C568 1.416 . S
C569 C570 1.385 . S
C570 H556 0.931 . S
C570 C569 1.385 . S
C570 C571 1.389 . S
C571 C570 1.389 . S
C571 C572 1.387 . S
C572 H557 0.930 . S
C572 C567 1.390 . S
C572 C571 1.387 . S
H573 C585 0.930 . S
H574 C587 0.930 . S
H575 C588 0.930 . S
H576 C592 0.959 . S
H577 C592 0.959 . S
H578 C592 0.961 . S
H579 C593 0.960 . S
H580 C593 0.961 . S
H581 C593 0.959 . S
H582 C596 0.929 . S
H583 C597 0.931 . S
H584 C599 0.930 . S
C585 H573 0.930 . S
C585 C586 1.399 . S
C585 C590 1.399 . S
C586 C585 1.399 . S
C586 C587 1.376 1_455 S
C587 H574 0.930 . S
C587 C586 1.376 1_655 S
C587 C588 1.388 . S
C588 H575 0.930 . S
C588 C587 1.388 . S
C588 C589 1.390 . S
C589 C588 1.390 . S
C589 C590 1.394 1_655 S
C589 C595 1.465 . S
C590 C585 1.399 . S
C590 C589 1.394 1_455 S
C590 C591 1.516 . S
C591 C590 1.516 . S
C591 C592 1.502 . S
C591 C593 1.561 . S
C591 C594 1.526 . S
C592 H576 0.959 . S
C592 H577 0.959 . S
C592 H578 0.961 . S
C592 C591 1.502 . S
C593 H579 0.960 . S
C593 H580 0.961 . S
C593 H581 0.959 . S
C593 C591 1.561 . S
C594 C591 1.526 . S
C594 C595 1.396 1_455 S
C594 C599 1.390 . S
C595 C589 1.465 . S
C595 C594 1.396 1_655 S
C595 C596 1.399 . S
C596 H582 0.929 . S
C596 C595 1.399 . S
C596 C597 1.385 . S
C597 H583 0.931 . S
C597 C596 1.385 . S
C597 C598 1.389 . S
C598 C597 1.389 . S
C598 C599 1.387 1_655 S
C599 H584 0.930 . S
C599 C594 1.390 . S
C599 C598 1.387 1_455 S
C127 C8 1.850 . S
C139 C109 1.933 . S
C154 C26 1.327 . S
C166 C91 1.330 . S
C181 C48 1.397 . S
C193 C103 1.447 . S
C208 C19 1.665 . S
C220 C112 1.763 . S
C247 C94 1.400 . S
C235 C36 1.330 . S
C274 C100 1.595 . S
C262 C59 1.465 . S
C289 C28 1.423 . S
C301 C73 1.477 . S
C316 C46 1.151 . S
C328 C82 1.128 1_655 S
C343 C16 1.455 . S
C355 C64 1.464 . S
C382 C76 1.545 . S
C370 C39 1.483 . S
C409 C85 1.000 . S
C397 C56 1.021 . S
C424 C6 1.329 . S
C436 C67 1.344 . S
C463 C83 1.431 . S
C451 C9 1.429 . S
C478 C21 1.500 . S
C490 C65 1.503 . S
C505 C49 1.434 . S
C517 C74 1.470 . S
C544 C101 1.461 . S
C532 C29 1.450 . S
C571 C110 1.573 . S
C559 C41 1.564 . S
C586 C1 1.506 . S
C598 C92 1.507 1_655 S
