# Generated by pormake.
# Topology eea, (3,6)-cn, num edge types: 1
# Building blocks:
#     Node 0, Type 0, BuildingBlock: BETDIP_clean_linker_0, # of connection points: 3
#     Node 1, Type 0, BuildingBlock: BETDIP_clean_linker_0, # of connection points: 3
#     Node 2, Type 0, BuildingBlock: BETDIP_clean_linker_0, # of connection points: 3
#     Node 3, Type 0, BuildingBlock: BETDIP_clean_linker_0, # of connection points: 3
#     Node 4, Type 0, BuildingBlock: BETDIP_clean_linker_0, # of connection points: 3
#     Node 5, Type 0, BuildingBlock: BETDIP_clean_linker_0, # of connection points: 3
#     Node 6, Type 0, BuildingBlock: BETDIP_clean_linker_0, # of connection points: 3
#     Node 7, Type 0, BuildingBlock: BETDIP_clean_linker_0, # of connection points: 3
#     Node 8, Type 0, BuildingBlock: BETDIP_clean_linker_0, # of connection points: 3
#     Node 9, Type 0, BuildingBlock: BETDIP_clean_linker_0, # of connection points: 3
#     Node 10, Type 0, BuildingBlock: BETDIP_clean_linker_0, # of connection points: 3
#     Node 11, Type 0, BuildingBlock: BETDIP_clean_linker_0, # of connection points: 3
#     Node 12, Type 0, BuildingBlock: BETDIP_clean_linker_0, # of connection points: 3
#     Node 13, Type 0, BuildingBlock: BETDIP_clean_linker_0, # of connection points: 3
#     Node 14, Type 0, BuildingBlock: BETDIP_clean_linker_0, # of connection points: 3
#     Node 15, Type 0, BuildingBlock: BETDIP_clean_linker_0, # of connection points: 3
#     Node 16, Type 0, BuildingBlock: BETDIP_clean_linker_0, # of connection points: 3
#     Node 17, Type 0, BuildingBlock: BETDIP_clean_linker_0, # of connection points: 3
#     Node 18, Type 1, BuildingBlock: CUWYAW_clean_sbu_0, # of connection points: 6
#     Node 19, Type 1, BuildingBlock: CUWYAW_clean_sbu_0, # of connection points: 6
#     Node 20, Type 1, BuildingBlock: CUWYAW_clean_sbu_0, # of connection points: 6
#     Node 21, Type 1, BuildingBlock: CUWYAW_clean_sbu_0, # of connection points: 6
#     Node 22, Type 1, BuildingBlock: CUWYAW_clean_sbu_0, # of connection points: 6
#     Node 23, Type 1, BuildingBlock: CUWYAW_clean_sbu_0, # of connection points: 6
#     Node 24, Type 1, BuildingBlock: CUWYAW_clean_sbu_0, # of connection points: 6
#     Node 25, Type 1, BuildingBlock: CUWYAW_clean_sbu_0, # of connection points: 6
#     Node 26, Type 1, BuildingBlock: CUWYAW_clean_sbu_0, # of connection points: 6
#     Edge 27, Type (0, 1), BuildingBlock: AJUNOK_clean_linker_0, # of connection points: 2
#     Edge 28, Type (0, 1), BuildingBlock: AJUNOK_clean_linker_0, # of connection points: 2
#     Edge 29, Type (0, 1), BuildingBlock: AJUNOK_clean_linker_0, # of connection points: 2
#     Edge 30, Type (0, 1), BuildingBlock: AJUNOK_clean_linker_0, # of connection points: 2
#     Edge 31, Type (0, 1), BuildingBlock: AJUNOK_clean_linker_0, # of connection points: 2
#     Edge 32, Type (0, 1), BuildingBlock: AJUNOK_clean_linker_0, # of connection points: 2
#     Edge 33, Type (0, 1), BuildingBlock: AJUNOK_clean_linker_0, # of connection points: 2
#     Edge 34, Type (0, 1), BuildingBlock: AJUNOK_clean_linker_0, # of connection points: 2
#     Edge 35, Type (0, 1), BuildingBlock: AJUNOK_clean_linker_0, # of connection points: 2
#     Edge 36, Type (0, 1), BuildingBlock: AJUNOK_clean_linker_0, # of connection points: 2
#     Edge 37, Type (0, 1), BuildingBlock: AJUNOK_clean_linker_0, # of connection points: 2
#     Edge 38, Type (0, 1), BuildingBlock: AJUNOK_clean_linker_0, # of connection points: 2
#     Edge 39, Type (0, 1), BuildingBlock: AJUNOK_clean_linker_0, # of connection points: 2
#     Edge 40, Type (0, 1), BuildingBlock: AJUNOK_clean_linker_0, # of connection points: 2
#     Edge 41, Type (0, 1), BuildingBlock: AJUNOK_clean_linker_0, # of connection points: 2
#     Edge 42, Type (0, 1), BuildingBlock: AJUNOK_clean_linker_0, # of connection points: 2
#     Edge 43, Type (0, 1), BuildingBlock: AJUNOK_clean_linker_0, # of connection points: 2
#     Edge 44, Type (0, 1), BuildingBlock: AJUNOK_clean_linker_0, # of connection points: 2
#     Edge 45, Type (0, 1), BuildingBlock: AJUNOK_clean_linker_0, # of connection points: 2
#     Edge 46, Type (0, 1), BuildingBlock: AJUNOK_clean_linker_0, # of connection points: 2
#     Edge 47, Type (0, 1), BuildingBlock: AJUNOK_clean_linker_0, # of connection points: 2
#     Edge 48, Type (0, 1), BuildingBlock: AJUNOK_clean_linker_0, # of connection points: 2
#     Edge 49, Type (0, 1), BuildingBlock: AJUNOK_clean_linker_0, # of connection points: 2
#     Edge 50, Type (0, 1), BuildingBlock: AJUNOK_clean_linker_0, # of connection points: 2
#     Edge 51, Type (0, 1), BuildingBlock: AJUNOK_clean_linker_0, # of connection points: 2
#     Edge 52, Type (0, 1), BuildingBlock: AJUNOK_clean_linker_0, # of connection points: 2
#     Edge 53, Type (0, 1), BuildingBlock: AJUNOK_clean_linker_0, # of connection points: 2
#     Edge 54, Type (0, 1), BuildingBlock: AJUNOK_clean_linker_0, # of connection points: 2
#     Edge 55, Type (0, 1), BuildingBlock: AJUNOK_clean_linker_0, # of connection points: 2
#     Edge 56, Type (0, 1), BuildingBlock: AJUNOK_clean_linker_0, # of connection points: 2
#     Edge 57, Type (0, 1), BuildingBlock: AJUNOK_clean_linker_0, # of connection points: 2
#     Edge 58, Type (0, 1), BuildingBlock: AJUNOK_clean_linker_0, # of connection points: 2
#     Edge 59, Type (0, 1), BuildingBlock: AJUNOK_clean_linker_0, # of connection points: 2
#     Edge 60, Type (0, 1), BuildingBlock: AJUNOK_clean_linker_0, # of connection points: 2
#     Edge 61, Type (0, 1), BuildingBlock: AJUNOK_clean_linker_0, # of connection points: 2
#     Edge 62, Type (0, 1), BuildingBlock: AJUNOK_clean_linker_0, # of connection points: 2
#     Edge 63, Type (0, 1), BuildingBlock: AJUNOK_clean_linker_0, # of connection points: 2
#     Edge 64, Type (0, 1), BuildingBlock: AJUNOK_clean_linker_0, # of connection points: 2
#     Edge 65, Type (0, 1), BuildingBlock: AJUNOK_clean_linker_0, # of connection points: 2
#     Edge 66, Type (0, 1), BuildingBlock: AJUNOK_clean_linker_0, # of connection points: 2
#     Edge 67, Type (0, 1), BuildingBlock: AJUNOK_clean_linker_0, # of connection points: 2
#     Edge 68, Type (0, 1), BuildingBlock: AJUNOK_clean_linker_0, # of connection points: 2
#     Edge 69, Type (0, 1), BuildingBlock: AJUNOK_clean_linker_0, # of connection points: 2
#     Edge 70, Type (0, 1), BuildingBlock: AJUNOK_clean_linker_0, # of connection points: 2
#     Edge 71, Type (0, 1), BuildingBlock: AJUNOK_clean_linker_0, # of connection points: 2
#     Edge 72, Type (0, 1), BuildingBlock: AJUNOK_clean_linker_0, # of connection points: 2
#     Edge 73, Type (0, 1), BuildingBlock: AJUNOK_clean_linker_0, # of connection points: 2
#     Edge 74, Type (0, 1), BuildingBlock: AJUNOK_clean_linker_0, # of connection points: 2
#     Edge 75, Type (0, 1), BuildingBlock: AJUNOK_clean_linker_0, # of connection points: 2
#     Edge 76, Type (0, 1), BuildingBlock: AJUNOK_clean_linker_0, # of connection points: 2
#     Edge 77, Type (0, 1), BuildingBlock: AJUNOK_clean_linker_0, # of connection points: 2
#     Edge 78, Type (0, 1), BuildingBlock: AJUNOK_clean_linker_0, # of connection points: 2
#     Edge 79, Type (0, 1), BuildingBlock: AJUNOK_clean_linker_0, # of connection points: 2
#     Edge 80, Type (0, 1), BuildingBlock: AJUNOK_clean_linker_0, # of connection points: 2
# Relax obj value: 0.062
# Max RMSD: 0.228
# Mean RMSD: 0.161
data_MOF--net-eea--node1-CUWYAW_clean_sbu_0--node2-BETDIP_clean_linker_0--edge1-AJUNOK_clean_linker_0
_symmetry_space_group_name_H-M    P1
_symmetry_Int_Tables_number       1
_symmetry_cell_setting            triclinic
loop_
_symmetry_equiv_pos_as_xyz
'x, y, z'
_cell_length_a     39.776025
_cell_length_b     39.240433
_cell_length_c     54.955327
_cell_angle_alpha  92.957943
_cell_angle_beta   92.758065
_cell_angle_gamma 119.98798
loop_
_atom_site_label
_atom_site_type_symbol
_atom_site_fract_x
_atom_site_fract_y
_atom_site_fract_z
_atom_type_partial_charge
H0 H 0.20176 0.08978 0.37057 0.0
H1 H 0.24394 0.1634 0.43843 0.0
H2 H 0.25042 0.05738 0.43047 0.0
H3 H 0.25009 0.21056 0.41325 0.0
C4 C 0.22426 0.19495 0.40049 0.0
C5 C 0.21515 0.09576 0.38911 0.0
C6 C 0.22635 0.07005 0.39861 0.0
C7 C 0.22182 0.12974 0.40312 0.0
C8 C 0.23922 0.13766 0.4272 0.0
C9 C 0.25028 0.11198 0.43701 0.0
C10 C 0.24334 0.07808 0.42268 0.0
N11 N 0.20976 0.15461 0.39255 0.0
H12 H 0.94252 0.14441 0.38075 0.0
H13 H 0.87144 0.10456 0.44098 0.0
H14 H 0.97215 0.22108 0.44699 0.0
H15 H 0.82417 0.06947 0.40946 0.0
C16 C 0.83928 0.05841 0.3985 0.0
C17 C 0.93632 0.15023 0.39899 0.0
C18 C 0.96098 0.18694 0.41235 0.0
C19 C 0.90356 0.12073 0.40893 0.0
C20 C 0.89617 0.12747 0.43291 0.0
C21 C 0.92068 0.16353 0.44678 0.0
C22 C 0.95306 0.19321 0.43638 0.0
N23 N 0.87913 0.08417 0.39475 0.0
H24 H 0.89042 0.80049 0.38282 0.0
H25 H 0.93477 0.77631 0.44877 0.0
H26 H 0.82429 0.77049 0.4459 0.0
H27 H 0.9724 0.76715 0.42524 0.0
C28 C 0.97758 0.78488 0.40987 0.0
C29 C 0.88713 0.79246 0.4015 0.0
C30 C 0.8536 0.78576 0.4128 0.0
C31 C 0.91631 0.78827 0.41396 0.0
C32 C 0.91204 0.77801 0.43831 0.0
C33 C 0.8785 0.77074 0.44972 0.0
C34 C 0.8498 0.77525 0.43695 0.0
N35 N 0.94965 0.79525 0.40163 0.0
H36 H 0.0898 0.22456 0.64326 0.0
H37 H 0.16459 0.2631 0.58457 0.0
H38 H 0.06469 0.27829 0.58401 0.0
H39 H 0.16753 0.2078 0.59336 0.0
C40 C 0.17385 0.21391 0.61307 0.0
C41 C 0.09721 0.23823 0.62618 0.0
C42 C 0.0736 0.2511 0.61491 0.0
C43 C 0.12963 0.24173 0.61513 0.0
C44 C 0.13906 0.25945 0.59299 0.0
C45 C 0.11583 0.27261 0.5815 0.0
C46 C 0.08292 0.26826 0.59259 0.0
N47 N 0.1525 0.22746 0.62654 0.0
H48 H 0.82902 0.90053 0.65573 0.0
H49 H 0.79256 0.93522 0.59144 0.0
H50 H 0.78382 0.82137 0.58989 0.0
H51 H 0.77926 0.97017 0.62105 0.0
C52 C 0.80606 0.98257 0.63292 0.0
C53 C 0.81694 0.89383 0.63683 0.0
C54 C 0.80662 0.85724 0.62439 0.0
C55 C 0.81115 0.92169 0.62533 0.0
C56 C 0.79619 0.91347 0.60075 0.0
C57 C 0.78652 0.87751 0.5878 0.0
C58 C 0.79104 0.84908 0.59984 0.0
N59 N 0.82203 0.95831 0.63861 0.0
H60 H 0.14032 0.93106 0.65015 0.0
H61 H 0.11099 0.85333 0.58467 0.0
H62 H 0.21577 0.96676 0.5917 0.0
H63 H 0.05099 0.82787 0.59544 0.0
C64 C 0.0519 0.83144 0.6152 0.0
C65 C 0.14702 0.92501 0.63211 0.0
C66 C 0.18146 0.95295 0.62262 0.0
C67 C 0.12075 0.88944 0.61841 0.0
C68 C 0.12983 0.88132 0.5951 0.0
C69 C 0.16404 0.90914 0.58528 0.0
C70 C 0.18974 0.94475 0.59928 0.0
N71 N 0.08571 0.86277 0.62869 0.0
H72 H 0.86996 0.4278 0.70475 0.0
H73 H 0.91117 0.5037 0.77162 0.0
H74 H 0.91688 0.39699 0.7664 0.0
H75 H 0.91829 0.55003 0.74542 0.0
C76 C 0.89212 0.53389 0.73298 0.0
C77 C 0.88296 0.43435 0.72343 0.0
C78 C 0.89368 0.40879 0.73375 0.0
C79 C 0.88957 0.46883 0.73677 0.0
C80 C 0.90622 0.47733 0.76106 0.0
C81 C 0.91604 0.45145 0.77194 0.0
C82 C 0.90997 0.41743 0.75805 0.0
N83 N 0.87778 0.49342 0.72547 0.0
H84 H 0.60327 0.4806 0.70862 0.0
H85 H 0.53441 0.43919 0.76997 0.0
H86 H 0.63814 0.5534 0.77688 0.0
H87 H 0.4855 0.40901 0.73787 0.0
C88 C 0.49919 0.39648 0.72675 0.0
C89 C 0.59803 0.48539 0.72733 0.0
C90 C 0.62442 0.52061 0.74146 0.0
C91 C 0.56506 0.45613 0.73727 0.0
C92 C 0.55906 0.46202 0.76176 0.0
C93 C 0.58512 0.49703 0.77605 0.0
C94 C 0.61772 0.52643 0.76582 0.0
N95 N 0.53921 0.4204 0.72275 0.0
H96 H 0.56051 0.14205 0.7187 0.0
H97 H 0.59331 0.09978 0.78118 0.0
H98 H 0.48637 0.10171 0.77771 0.0
H99 H 0.65326 0.13872 0.77055 0.0
C100 C 0.65127 0.13777 0.75075 0.0
C101 C 0.55469 0.13058 0.73648 0.0
C102 C 0.52 0.12258 0.74669 0.0
C103 C 0.582 0.12369 0.74902 0.0
C104 C 0.57368 0.10722 0.77172 0.0
C105 C 0.53885 0.0986 0.78191 0.0
C106 C 0.51267 0.10711 0.76951 0.0
N107 N 0.61684 0.13257 0.73796 0.0
H108 H 0.76481 0.5672 0.97663 0.0
H109 H 0.83594 0.59907 0.91592 0.0
H110 H 0.73215 0.6064 0.91241 0.0
H111 H 0.88068 0.60275 0.94074 0.0
C112 C 0.86722 0.58283 0.95475 0.0
C113 C 0.77061 0.57803 0.95867 0.0
C114 C 0.74405 0.58583 0.94577 0.0
C115 C 0.80424 0.58317 0.94836 0.0
C116 C 0.81084 0.59569 0.92463 0.0
C117 C 0.78496 0.60389 0.91154 0.0
C118 C 0.75195 0.5996 0.92237 0.0
N119 N 0.82983 0.57385 0.96174 0.0
H120 H 0.49677 0.22665 0.98663 0.0
H121 H 0.45382 0.25871 0.92403 0.0
H122 H 0.44309 0.14396 0.92274 0.0
H123 H 0.44384 0.29499 0.95412 0.0
C124 C 0.47124 0.30756 0.96538 0.0
C125 C 0.48269 0.21909 0.9682 0.0
C126 C 0.47089 0.18187 0.95607 0.0
C127 C 0.47568 0.24645 0.9571 0.0
C128 C 0.45773 0.23701 0.93319 0.0
C129 C 0.44581 0.20013 0.92061 0.0
C130 C 0.4523 0.17252 0.93223 0.0
N131 N 0.48789 0.28359 0.97014 0.0
H132 H 0.80851 0.26353 0.98644 0.0
H133 H 0.77784 0.18981 0.91891 0.0
H134 H 0.88519 0.30054 0.92857 0.0
H135 H 0.71805 0.16493 0.93007 0.0
C136 C 0.71927 0.16663 0.94987 0.0
C137 C 0.81549 0.25806 0.96836 0.0
C138 C 0.85049 0.28595 0.9594 0.0
C139 C 0.78857 0.22366 0.95385 0.0
C140 C 0.79738 0.21673 0.93018 0.0
C141 C 0.83237 0.24426 0.92106 0.0
C142 C 0.85848 0.2789 0.93569 0.0
N143 N 0.7533 0.19678 0.9638 0.0
H144 H 0.54138 0.75631 0.0361 0.0
H145 H 0.58618 0.83149 0.10329 0.0
H146 H 0.58596 0.72169 0.09694 0.0
H147 H 0.58922 0.87822 0.07946 0.0
C148 C 0.56509 0.86259 0.0655 0.0
C149 C 0.55454 0.76219 0.0547 0.0
C150 C 0.56294 0.7349 0.06486 0.0
C151 C 0.56309 0.79723 0.06821 0.0
C152 C 0.58011 0.80499 0.09238 0.0
C153 C 0.58907 0.77812 0.10271 0.0
C154 C 0.58032 0.74315 0.08883 0.0
N155 N 0.55252 0.82283 0.05707 0.0
H156 H 0.26559 0.81212 0.04138 0.0
H157 H 0.19923 0.77197 0.10343 0.0
H158 H 0.30833 0.88117 0.11122 0.0
H159 H 0.14951 0.74104 0.07244 0.0
C160 C 0.16291 0.72899 0.06067 0.0
C161 C 0.26286 0.81644 0.06064 0.0
C162 C 0.29192 0.85017 0.07503 0.0
C163 C 0.2296 0.78811 0.0707 0.0
C164 C 0.22468 0.79387 0.09538 0.0
C165 C 0.25253 0.82778 0.10992 0.0
C166 C 0.28624 0.85568 0.09973 0.0
N167 N 0.20249 0.75324 0.0559 0.0
H168 H 0.22844 0.47066 0.05149 0.0
H169 H 0.26225 0.42956 0.11417 0.0
H170 H 0.15619 0.433 0.11161 0.0
H171 H 0.32093 0.46452 0.10205 0.0
C172 C 0.31848 0.46381 0.08228 0.0
C173 C 0.22263 0.45893 0.0692 0.0
C174 C 0.18881 0.45252 0.08001 0.0
C175 C 0.2498 0.4515 0.08143 0.0
C176 C 0.24235 0.43647 0.10457 0.0
C177 C 0.20884 0.43026 0.11561 0.0
C178 C 0.1824 0.43844 0.10325 0.0
N179 N 0.28405 0.45936 0.06992 0.0
H180 H 0.42839 0.89581 0.30976 0.0
H181 H 0.50423 0.93562 0.25178 0.0
H182 H 0.40426 0.95047 0.25046 0.0
H183 H 0.50734 0.88052 0.26034 0.0
C184 C 0.51315 0.88608 0.28008 0.0
C185 C 0.43604 0.91 0.29288 0.0
C186 C 0.41238 0.92296 0.28158 0.0
C187 C 0.46868 0.91366 0.28201 0.0
C188 C 0.47858 0.93187 0.26007 0.0
C189 C 0.45573 0.94547 0.24865 0.0
C190 C 0.42218 0.94025 0.25925 0.0
N191 N 0.49137 0.89918 0.29347 0.0
H192 H 0.16339 0.56276 0.32473 0.0
H193 H 0.12255 0.59503 0.26122 0.0
H194 H 0.12102 0.48444 0.25864 0.0
H195 H 0.11058 0.63065 0.29033 0.0
C196 C 0.1372 0.64301 0.30238 0.0
C197 C 0.151 0.55582 0.3059 0.0
C198 C 0.14272 0.52016 0.29312 0.0
C199 C 0.14324 0.58263 0.29473 0.0
C200 C 0.12768 0.57399 0.27026 0.0
C201 C 0.11943 0.53863 0.25705 0.0
C202 C 0.12655 0.51147 0.26873 0.0
N203 N 0.15322 0.61886 0.30817 0.0
H204 H 0.47355 0.59869 0.31683 0.0
H205 H 0.44129 0.52484 0.24922 0.0
H206 H 0.54639 0.63772 0.25716 0.0
H207 H 0.39353 0.48117 0.26737 0.0
C208 C 0.39001 0.49257 0.28482 0.0
C209 C 0.4794 0.59368 0.29832 0.0
C210 C 0.51318 0.62247 0.28864 0.0
C211 C 0.45304 0.55828 0.28447 0.0
C212 C 0.46084 0.55178 0.26039 0.0
C213 C 0.49462 0.58028 0.25047 0.0
C214 C 0.52067 0.61534 0.26482 0.0
N215 N 0.41905 0.5307 0.29541 0.0
C216 C 0.54735 0.05194 0.08612 0.0
Eu217 Eu 0.52389 0.03525 0.03968 0.0
C218 C 0.5315 0.03685 0.10946 0.0
C219 C 0.53878 0.06378 0.12958 0.0
C220 C 0.52471 0.05038 0.15205 0.0
C221 C 0.50338 1.0097 0.15493 0.0
C222 C 0.49514 0.98271 0.13454 0.0
C223 C 0.50903 0.99615 0.11198 0.0
C224 C 0.50424 0.07876 0.01214 0.0
C225 C 0.43138 0.96602 0.03279 0.0
C226 C 0.46152 0.98044 0.9431 0.0
Eu227 Eu 0.48519 0.99621 0.9894 0.0
C228 C 0.47507 0.99859 0.92013 0.0
C229 C 0.47209 0.97449 0.89947 0.0
C230 C 0.48409 0.99061 0.87729 0.0
C231 C 0.49899 0.03114 0.87533 0.0
C232 C 0.50299 0.05553 0.89622 0.0
C233 C 0.49113 0.03939 0.9185 0.0
C234 C 0.5069 0.95338 0.01636 0.0
C235 C 0.5775 0.06362 0.99571 0.0
O236 O 0.55471 0.02939 0.07159 0.0
O237 O 0.53131 0.06901 0.07433 0.0
O238 O 0.53569 0.09351 0.02682 0.0
O239 O 0.48347 0.04196 0.0135 0.0
O240 O 0.46367 0.98628 0.04751 0.0
O241 O 0.43091 0.96783 1.00893 0.0
O242 O 0.45003 0.99826 0.95855 0.0
O243 O 0.4823 0.96726 0.95381 0.0
O244 O 0.47563 0.93818 1.0015 0.0
O245 O 0.5265 0.99029 0.01528 0.0
O246 O 0.54429 0.04621 0.98179 0.0
O247 O 0.57836 0.06014 0.01952 0.0
H248 H 0.55556 0.09528 0.12793 0.0
H249 H 0.53067 0.0719 0.16723 0.0
H250 H 0.47873 0.95121 0.13619 0.0
H251 H 0.50256 0.97475 0.09662 0.0
H252 H 0.46026 0.94307 0.90046 0.0
H253 H 0.48154 0.97132 0.86161 0.0
H254 H 0.51453 0.0869 0.89519 0.0
H255 H 0.49422 0.05869 0.93433 0.0
C256 C 1.00091 0.52242 0.08767 0.0
Eu257 Eu 1.00234 0.50416 0.0416 0.0
C258 C 0.01934 0.522 0.11144 0.0
C259 C 0.02737 0.49182 0.11629 0.0
C260 C 0.0446 0.49211 0.13921 0.0
C261 C 0.05435 0.52278 0.15745 0.0
C262 C 0.04672 0.55312 0.15237 0.0
C263 C 0.02928 0.55264 0.1296 0.0
C264 C 0.95652 0.43348 0.01654 0.0
C265 C 0.07083 0.48151 0.03469 0.0
C266 C 0.02968 0.47856 0.94492 0.0
Eu267 Eu 0.02656 0.49595 0.99084 0.0
C268 C 1.01209 0.47844 0.92064 0.0
C269 C 0.03656 0.49863 0.90255 0.0
C270 C 0.02093 0.4973 0.87898 0.0
C271 C 0.98046 0.47561 0.873 0.0
C272 C 0.95589 0.45591 0.89125 0.0
C273 C 0.97153 0.45744 0.91489 0.0
C274 C 0.07083 0.56776 0.01593 0.0
C275 C 0.9594 0.52011 0.99717 0.0
O276 O 0.02379 0.5479 0.07312 0.0
O277 O 0.97605 0.48817 0.07609 0.0
O278 O 0.94337 0.45029 0.03109 0.0
O279 O 0.99317 0.45309 0.01698 0.0
O280 O 0.05526 0.49699 0.04913 0.0
O281 O 0.0603 0.47315 0.01107 0.0
O282 O 1.00729 0.45252 0.95942 0.0
O283 O 0.05335 0.51314 0.9565 0.0
O284 O 0.08497 0.5509 1.00219 0.0
O285 O 0.03431 0.54673 0.01501 0.0
O286 O 0.97443 0.50389 0.9829 0.0
O287 O 0.96898 0.52755 0.02101 0.0
H288 H 0.02037 0.4681 0.1024 0.0
H289 H 0.05069 0.4687 0.14259 0.0
H290 H 0.05388 0.57702 0.16615 0.0
H291 H 0.02346 0.57624 0.12617 0.0
H292 H 0.06791 0.515 0.90657 0.0
H293 H 0.04055 0.51289 0.86532 0.0
H294 H 0.92464 0.43827 0.88708 0.0
H295 H 0.95191 0.44156 0.92846 0.0
C296 C 0.48099 0.49456 0.94002 0.0
Eu297 Eu 0.50623 0.51811 0.9858 0.0
C298 C 0.49936 0.49748 0.91685 0.0
C299 C 0.52749 0.53414 0.90944 0.0
C300 C 0.5446 0.53609 0.88748 0.0
C301 C 0.53431 0.50145 0.87269 0.0
C302 C 0.50617 0.46489 0.88013 0.0
C303 C 0.48891 0.46295 0.90198 0.0
C304 C 0.52571 0.5888 1.00858 0.0
C305 C 0.60132 0.55296 0.99027 0.0
C306 C 0.57814 0.56037 0.08148 0.0
Eu307 Eu 0.55157 0.53697 0.03579 0.0
C308 C 0.56243 0.5609 0.10529 0.0
C309 C 0.56929 0.54206 0.12432 0.0
C310 C 0.55582 0.54296 0.14724 0.0
C311 C 0.53526 0.56286 0.1517 0.0
C312 C 0.52808 0.58147 0.13255 0.0
C313 C 0.54138 0.58037 0.10954 0.0
C314 C 0.52951 0.4651 0.01312 0.0
C315 C 0.45675 0.50129 0.03157 0.0
O316 O 0.4844 0.47203 0.95553 0.0
O317 O 0.48544 0.52728 0.95076 0.0
O318 O 0.49343 0.56674 0.99503 0.0
O319 O 0.54749 0.5739 1.00819 0.0
O320 O 0.56732 0.53331 0.97713 0.0
O321 O 0.60369 0.56299 0.01387 0.0
O322 O 0.57733 0.58377 0.0656 0.0
O323 O 0.56918 0.52569 0.0713 0.0
O324 O 0.56259 0.48673 0.02602 0.0
O325 O 0.5092 0.48147 0.01383 0.0
O326 O 0.49081 0.52255 0.04449 0.0
O327 O 0.45422 0.4909 1.00797 0.0
H328 H 0.53642 0.56132 0.9206 0.0
H329 H 0.56623 0.56464 0.88221 0.0
H330 H 0.49702 0.43776 0.86885 0.0
H331 H 0.46728 0.43439 0.90726 0.0
H332 H 0.58541 0.52685 0.12151 0.0
H333 H 0.56167 0.5282 0.16156 0.0
H334 H 0.51301 0.59771 0.13551 0.0
H335 H 0.53556 0.59516 0.09522 0.0
C336 C 0.21648 0.38478 0.42182 0.0
Eu337 Eu 0.19307 0.3708 0.37545 0.0
C338 C 0.1996 0.36813 0.4446 0.0
C339 C 0.20777 0.39371 0.46561 0.0
C340 C 0.19158 0.37885 0.48735 0.0
C341 C 0.16682 0.33805 0.48851 0.0
C342 C 0.15843 0.31243 0.46735 0.0
C343 C 0.17456 0.32736 0.44554 0.0
C344 C 0.17605 0.41732 0.34916 0.0
C345 C 0.0996 0.30439 0.36917 0.0
C346 C 0.12554 0.32267 0.27897 0.0
Eu347 Eu 0.15193 0.33446 0.32476 0.0
C348 C 0.14011 0.33884 0.25558 0.0
C349 C 0.17334 0.34001 0.24693 0.0
C350 C 0.18647 0.35539 0.22467 0.0
C351 C 0.16643 0.36953 0.21053 0.0
C352 C 0.1333 0.36847 0.21928 0.0
C353 C 0.12028 0.35325 0.24156 0.0
C354 C 0.17133 0.28875 0.35029 0.0
C355 C 0.24665 0.39699 0.33122 0.0
O356 O 0.2236 0.36274 0.40663 0.0
O357 O 0.20111 0.40307 0.41072 0.0
O358 O 0.20738 0.43036 0.36372 0.0
O359 O 0.15385 0.38067 0.35026 0.0
O360 O 0.13286 0.32182 0.38314 0.0
O361 O 0.09859 0.30922 0.34561 0.0
O362 O 0.12176 0.34612 0.295 0.0
O363 O 0.13953 0.30228 0.28896 0.0
O364 O 0.13979 0.2748 0.33571 0.0
O365 O 0.1921 0.32557 0.34949 0.0
O366 O 0.2137 0.37963 0.31685 0.0
O367 O 0.24716 0.39471 0.35516 0.0
H368 H 0.22673 0.42527 0.46519 0.0
H369 H 0.19846 0.39932 0.5033 0.0
H370 H 0.14013 0.2808 0.46776 0.0
H371 H 0.16763 0.30705 0.42949 0.0
H372 H 0.18916 0.32901 0.25733 0.0
H373 H 0.21247 0.35648 0.21862 0.0
H374 H 0.11713 0.37896 0.20872 0.0
H375 H 0.09455 0.35257 0.24783 0.0
C376 C 0.66581 0.8563 0.41818 0.0
Eu377 Eu 0.67005 0.83963 0.37225 0.0
C378 C 0.68469 0.85687 0.44202 0.0
C379 C 0.66506 0.853 0.46311 0.0
C380 C 0.68245 0.85357 0.48597 0.0
C381 C 0.71988 0.85815 0.48813 0.0
C382 C 0.73919 0.86122 0.46687 0.0
C383 C 0.72175 0.8606 0.44398 0.0
C384 C 0.62075 0.77081 0.34573 0.0
C385 C 0.73528 0.81223 0.36689 0.0
C386 C 0.7026 0.81527 0.27696 0.0
Eu387 Eu 0.69596 0.8306 0.32259 0.0
C388 C 0.68471 0.81191 0.25221 0.0
C389 C 0.70888 0.83305 0.23425 0.0
C390 C 0.69344 0.82917 0.21027 0.0
C391 C 0.65351 0.8037 0.20371 0.0
C392 C 0.62902 0.78339 0.22185 0.0
C393 C 0.6445 0.78741 0.24595 0.0
C394 C 0.74364 0.90041 0.34921 0.0
C395 C 0.62978 0.85635 0.32693 0.0
O396 O 0.68745 0.88285 0.4037 0.0
O397 O 0.6435 0.82147 0.40655 0.0
O398 O 0.60965 0.79011 0.3599 0.0
O399 O 0.65753 0.78737 0.34721 0.0
O400 O 0.72006 0.82832 0.38106 0.0
O401 O 0.72678 0.80521 0.3431 0.0
O402 O 0.68257 0.78789 0.29144 0.0
O403 O 0.72163 0.85069 0.28832 0.0
O404 O 0.756 0.88148 0.33581 0.0
O405 O 0.70694 0.88254 0.3472 0.0
O406 O 0.64449 0.83885 0.31352 0.0
O407 O 0.63947 0.86517 0.35073 0.0
H408 H 0.63634 0.84982 0.46192 0.0
H409 H 0.66698 0.85132 0.50206 0.0
H410 H 0.76779 0.86413 0.46795 0.0
H411 H 0.73726 0.86324 0.42788 0.0
H412 H 0.73992 0.8523 0.23873 0.0
H413 H 0.71281 0.84588 0.19677 0.0
H414 H 0.5981 0.7637 0.21727 0.0
H415 H 0.62514 0.77102 0.25953 0.0
C416 C 0.15013 0.8329 0.27317 0.0
Eu417 Eu 0.17487 0.85571 0.31906 0.0
C418 C 0.1684 0.83385 0.25033 0.0
C419 C 0.1558 0.84421 0.22918 0.0
C420 C 0.1734 0.84639 0.20747 0.0
C421 C 0.20405 0.83837 0.20655 0.0
C422 C 0.21664 0.82793 0.22776 0.0
C423 C 0.19907 0.82584 0.24951 0.0
C424 C 0.19478 0.92673 0.34153 0.0
C425 C 0.26945 0.89071 0.32529 0.0
C426 C 0.24577 0.90104 0.41507 0.0
Eu427 Eu 0.21762 0.87408 0.36994 0.0
C428 C 0.2323 0.89864 0.43971 0.0
C429 C 0.20005 0.86423 0.44646 0.0
C430 C 0.18759 0.86312 0.46996 0.0
C431 C 0.20729 0.89637 0.48701 0.0
C432 C 0.23968 0.93062 0.48019 0.0
C433 C 0.25197 0.93176 0.45672 0.0
C434 C 0.19603 0.802 0.3478 0.0
C435 C 0.12241 0.83681 0.36394 0.0
O436 O 0.15044 0.80929 0.28907 0.0
O437 O 0.15816 0.86725 0.2834 0.0
O438 O 0.16242 0.90483 0.32803 0.0
O439 O 0.21585 0.91108 0.34166 0.0
O440 O 0.23616 0.86944 0.31155 0.0
O441 O 0.27007 0.90164 0.34848 0.0
O442 O 0.23562 0.91971 0.40003 0.0
O443 O 0.24336 0.86914 0.40451 0.0
O444 O 0.22816 0.82309 0.36172 0.0
O445 O 0.17608 0.81878 0.34752 0.0
O446 O 0.15549 0.8556 0.37817 0.0
O447 O 0.12155 0.8295 0.34008 0.0
H448 H 0.13224 0.85055 0.22945 0.0
H449 H 0.16253 0.85363 0.19125 0.0
H450 H 0.24016 0.82153 0.22752 0.0
H451 H 0.20948 0.81801 0.26566 0.0
H452 H 0.18464 0.83827 0.43361 0.0
H453 H 0.16289 0.83622 0.47491 0.0
H454 H 0.25522 0.95671 0.49295 0.0
H455 H 0.27683 0.95861 0.4518 0.0
C456 C 0.88106 0.72214 0.75255 0.0
Eu457 Eu 0.85661 0.70663 0.70622 0.0
C458 C 0.86589 0.70333 0.77509 0.0
C459 C 0.87898 0.72582 0.79774 0.0
C460 C 0.86358 0.70845 0.81916 0.0
C461 C 0.83469 0.66832 0.81825 0.0
C462 C 0.82135 0.64608 0.79541 0.0
C463 C 0.83706 0.66337 0.77408 0.0
C464 C 0.83751 0.7519 0.67994 0.0
C465 C 0.76405 0.63728 0.70006 0.0
C466 C 0.79015 0.65539 0.6099 0.0
Eu467 Eu 0.81537 0.66903 0.65596 0.0
C468 C 0.80539 0.67419 0.58742 0.0
C469 C 0.79455 0.65078 0.56519 0.0
C470 C 0.80963 0.66781 0.5437 0.0
C471 C 0.83607 0.70857 0.54413 0.0
C472 C 0.8466 0.73209 0.56643 0.0
C473 C 0.83152 0.715 0.58795 0.0
C474 C 0.83656 0.62475 0.68176 0.0
C475 C 0.90911 0.73376 0.66171 0.0
O476 O 0.89114 0.70311 0.73699 0.0
O477 O 0.86146 0.7366 0.74183 0.0
O478 O 0.8693 0.76567 0.69416 0.0
O479 O 0.81616 0.71514 0.68114 0.0
O480 O 0.79759 0.65508 0.71376 0.0
O481 O 0.76204 0.64295 0.67672 0.0
O482 O 0.78168 0.67522 0.62591 0.0
O483 O 0.80821 0.63888 0.62 0.0
O484 O 0.80476 0.61001 0.66737 0.0
O485 O 0.85662 0.66156 0.68066 0.0
O486 O 0.87568 0.71704 0.64794 0.0
O487 O 0.9103 0.73052 0.68552 0.0
H488 H 0.90107 0.75681 0.79885 0.0
H489 H 0.87459 0.72632 0.83648 0.0
H490 H 0.79854 0.61539 0.79402 0.0
H491 H 0.82667 0.64566 0.75676 0.0
H492 H 0.77439 0.61926 0.56445 0.0
H493 H 0.80016 0.64914 0.52668 0.0
H494 H 0.86687 0.76357 0.56725 0.0
H495 H 0.84045 0.73358 0.605 0.0
C496 C 0.32862 0.18742 0.75107 0.0
Eu497 Eu 0.33387 0.17215 0.70515 0.0
C498 C 0.34552 0.18518 0.77502 0.0
C499 C 0.32085 0.16793 0.79358 0.0
C500 C 0.33604 0.16591 0.81657 0.0
C501 C 0.37629 0.18123 0.82151 0.0
C502 C 0.40094 0.19802 0.80275 0.0
C503 C 0.38568 0.19977 0.77966 0.0
C504 C 0.28669 0.10254 0.67892 0.0
C505 C 0.40183 0.14859 0.70032 0.0
C506 C 0.36758 0.14892 0.6102 0.0
Eu507 Eu 0.36066 0.16423 0.65576 0.0
C508 C 0.34932 0.14552 0.58555 0.0
C509 C 0.37287 0.16789 0.5677 0.0
C510 C 0.35698 0.16416 0.54386 0.0
C511 C 0.31725 0.13761 0.53734 0.0
C512 C 0.29339 0.11593 0.55536 0.0
C513 C 0.30929 0.11981 0.57931 0.0
C514 C 0.40528 0.23544 0.68169 0.0
C515 C 0.29229 0.18688 0.65978 0.0
O516 O 0.35191 0.2142 0.73727 0.0
O517 O 0.30487 0.15366 0.73866 0.0
O518 O 0.27446 0.12102 0.69284 0.0
O519 O 0.32355 0.1203 0.68049 0.0
O520 O 0.38571 0.16389 0.7143 0.0
O521 O 0.39323 0.14092 0.67656 0.0
O522 O 0.34774 0.12155 0.62471 0.0
O523 O 0.3866 0.18433 0.62156 0.0
O524 O 0.41939 0.21765 0.66881 0.0
O525 O 0.36863 0.21554 0.67971 0.0
O526 O 0.30759 0.16985 0.64651 0.0
O527 O 0.3023 0.19647 0.68351 0.0
H528 H 0.28977 0.15625 0.79034 0.0
H529 H 0.31629 0.15266 0.83061 0.0
H530 H 0.43216 0.21087 0.8061 0.0
H531 H 0.40535 0.21301 0.76558 0.0
H532 H 0.40375 0.18805 0.57216 0.0
H533 H 0.37584 0.18188 0.53045 0.0
H534 H 0.26264 0.09535 0.55079 0.0
H535 H 0.29037 0.10242 0.59279 0.0
C536 C 0.81419 0.17151 0.60893 0.0
Eu537 Eu 0.84003 0.19271 0.65487 0.0
C538 C 0.83169 0.17095 0.58595 0.0
C539 C 0.81811 0.17939 0.56439 0.0
C540 C 0.83552 0.18084 0.54265 0.0
C541 C 0.86712 0.17418 0.54212 0.0
C542 C 0.8805 0.16543 0.56376 0.0
C543 C 0.86298 0.1639 0.58548 0.0
C544 C 0.86095 0.26389 0.67778 0.0
C545 C 0.93399 0.22437 0.65947 0.0
C546 C 0.91255 0.23426 0.75021 0.0
Eu547 Eu 0.88524 0.21092 0.70464 0.0
C548 C 0.89708 0.23192 0.77444 0.0
C549 C 0.90045 0.20766 0.79115 0.0
C550 C 0.88781 0.2065 0.81454 0.0
C551 C 0.87195 0.22996 0.82186 0.0
C552 C 0.86766 0.25351 0.80498 0.0
C553 C 0.88016 0.25457 0.78151 0.0
C554 C 0.86267 0.1389 0.68195 0.0
C555 C 0.79047 0.17585 0.70075 0.0
O556 O 0.81226 0.14671 0.62463 0.0
O557 O 0.82525 0.20656 0.61942 0.0
O558 O 0.82794 0.2417 0.66497 0.0
O559 O 0.8822 0.24844 0.6771 0.0
O560 O 0.89983 0.20286 0.64672 0.0
O561 O 0.93683 0.23775 0.68242 0.0
O562 O 0.90802 0.25657 0.73504 0.0
O563 O 0.90702 0.20125 0.73926 0.0
O564 O 0.89568 0.16031 0.69493 0.0
O565 O 0.84248 0.15543 0.68266 0.0
O566 O 0.82456 0.19603 0.71375 0.0
O567 O 0.78787 0.16637 0.677 0.0
H568 H 0.79402 0.18495 0.56437 0.0
H569 H 0.82387 0.18662 0.52616 0.0
H570 H 0.9047 0.16005 0.5639 0.0
H571 H 0.87392 0.15735 0.60191 0.0
H572 H 0.91332 0.18987 0.78622 0.0
H573 H 0.89076 0.18747 0.82701 0.0
H574 H 0.85557 0.27192 0.81014 0.0
H575 H 0.87707 0.27358 0.7691 0.0
C576 C 0.34397 0.92045 0.07031 0.0
C577 C 0.32798 0.87956 0.06426 0.0
C578 C 0.37759 0.94852 0.06014 0.0
C579 C 0.39575 0.93672 0.0431 0.0
H580 H 0.33022 0.93096 0.0828 0.0
H581 H 0.38912 0.97962 0.06537 0.0
S582 S 0.36842 0.83415 0.02252 0.0
N583 N 0.33583 0.82924 0.04163 0.0
N584 N 0.39703 0.88215 0.02136 0.0
C585 C 0.38048 0.89629 0.03695 0.0
C586 C 0.34707 0.86767 0.04779 0.0
C587 C 0.14595 0.48228 0.08046 0.0
C588 C 0.16003 0.46081 0.06749 0.0
C589 C 0.1172 0.48871 0.0697 0.0
C590 C 0.10131 0.47402 0.04545 0.0
H591 H 0.15727 0.49424 0.09917 0.0
H592 H 0.10747 0.50545 0.08057 0.0
S593 S 0.12758 0.41485 1.00382 0.0
N594 N 0.15546 0.42406 0.02934 0.0
N595 N 0.10176 0.43648 1.00884 0.0
C596 C 0.11533 0.45262 0.03219 0.0
C597 C 0.14462 0.44601 0.04325 0.0
C598 C 0.58115 0.68606 0.04826 0.0
C599 C 0.55292 0.6974 0.05061 0.0
C600 C 0.57226 0.65089 0.03462 0.0
C601 C 0.53477 0.62573 0.02299 0.0
H602 H 0.61046 0.7048 0.05678 0.0
H603 H 0.59497 0.64352 0.03303 0.0
S604 S 0.4497 0.64053 0.02528 0.0
N605 N 0.48554 0.67971 0.04136 0.0
N606 N 0.46872 0.61376 0.01576 0.0
C607 C 0.50613 0.63644 0.02559 0.0
C608 C 0.51523 0.67223 0.03939 0.0
C609 C 0.89284 0.35964 0.96405 0.0
C610 C 0.87834 0.32321 0.97434 0.0
C611 C 0.91885 0.3953 0.97775 0.0
C612 C 0.93151 0.39569 1.00206 0.0
H613 H 0.88342 0.36066 0.94541 0.0
H614 H 0.92855 0.42277 0.96943 0.0
S615 S 0.90381 0.30902 0.03739 0.0
N616 N 0.87975 0.29002 0.01025 0.0
N617 N 0.92848 0.35736 0.03596 0.0
C618 C 0.91767 0.35978 0.01258 0.0
C619 C 0.89112 0.32342 0.9987 0.0
C620 C 0.70857 0.59254 0.98071 0.0
C621 C 0.70749 0.57833 0.95648 0.0
C622 C 0.67428 0.58479 0.99134 0.0
C623 C 0.63744 0.56237 0.9782 0.0
H624 H 0.7362 0.6099 0.99156 0.0
H625 H 0.67678 0.59631 0.01009 0.0
S626 S 0.61883 0.5169 0.91427 0.0
N627 N 0.66661 0.53978 0.91984 0.0
N628 N 0.60231 0.52545 0.93947 0.0
C629 C 0.63607 0.54803 0.95385 0.0
C630 C 0.671 0.55595 0.94309 0.0
C631 C 0.51601 0.16679 0.98021 0.0
C632 C 0.47878 0.1535 0.96855 0.0
C633 C 0.52384 0.14201 0.99384 0.0
C634 C 0.49481 0.10286 0.99638 0.0
H635 H 0.53929 0.19682 0.97899 0.0
H636 H 0.55293 0.15389 1.00265 0.0
S637 S 0.3926 0.05326 0.96924 0.0
N638 N 0.41258 0.09831 0.96017 0.0
N639 N 0.42745 0.0516 0.98579 0.0
C640 C 0.45767 0.08874 0.98437 0.0
C641 C 0.44963 0.11407 0.97042 0.0
C642 C 0.6827 0.14108 0.98727 0.0
C643 C 0.68364 0.13962 0.96166 0.0
C644 C 0.64856 0.11597 0.99824 0.0
C645 C 0.61405 0.08863 0.98401 0.0
H646 H 0.70837 0.1619 0.99898 0.0
H647 H 0.6491 0.11853 0.01799 0.0
S648 S 0.60209 0.0721 0.91607 0.0
N649 N 0.64766 0.10788 0.92243 0.0
N650 N 0.5838 0.0608 0.94274 0.0
C651 C 0.61499 0.08655 0.95834 0.0
C652 C 0.64967 0.112 0.94727 0.0
C653 C 0.88576 0.55465 0.98952 0.0
C654 C 0.88822 0.56401 0.96509 0.0
C655 C 0.90851 0.53992 0.99975 0.0
C656 C 0.9337 0.53318 0.98571 0.0
H657 H 0.86718 0.55996 1.00101 0.0
H658 H 0.90654 0.53405 0.01883 0.0
S659 S 0.94802 0.55039 0.92015 0.0
N660 N 0.91631 0.56418 0.92684 0.0
N661 N 0.9581 0.5355 0.94561 0.0
C662 C 0.93513 0.54112 0.96094 0.0
C663 C 0.91266 0.55684 0.95077 0.0
C664 C 0.46427 0.36545 0.97774 0.0
C665 C 0.48752 0.34779 0.9778 0.0
C666 C 0.47807 0.40331 0.98927 0.0
C667 C 0.51591 0.42524 1.00103 0.0
H668 H 0.43493 0.3497 0.96888 0.0
H669 H 0.45882 0.41538 0.98902 0.0
S670 S 0.58927 0.39325 1.00546 0.0
N671 N 0.55073 0.35555 0.99015 0.0
N672 N 0.57687 0.42695 0.01152 0.0
C673 C 0.53972 0.40818 1.00098 0.0
C674 C 0.52551 0.3694 0.98942 0.0
C675 C 0.1567 0.66911 0.03725 0.0
C676 C 0.13912 0.68811 0.04906 0.0
C677 C 0.13435 0.63006 0.02675 0.0
C678 C 0.09365 0.6087 0.02752 0.0
H679 H 0.18796 0.68427 0.03629 0.0
H680 H 0.14914 0.61654 0.01796 0.0
S681 S 0.03359 0.64567 0.05564 0.0
N682 N 0.07875 0.68292 0.06076 0.0
N683 N 0.03663 0.61001 0.04049 0.0
C684 C 0.07573 0.62755 0.03908 0.0
C685 C 0.09853 0.66713 0.04999 0.0
C686 C 0.3528 0.47327 0.04355 0.0
C687 C 0.35308 0.47167 0.06911 0.0
C688 C 0.38611 0.48189 0.03136 0.0
C689 C 0.42092 0.48952 0.04431 0.0
H690 H 0.32687 0.46823 0.03288 0.0
H691 H 0.38483 0.48351 0.01174 0.0
S692 S 0.43572 0.48595 0.1112 0.0
N693 N 0.39038 0.47636 0.10672 0.0
N694 N 0.45272 0.49255 0.084 0.0
C695 C 0.42117 0.48708 0.0698 0.0
C696 C 0.38733 0.47815 0.08212 0.0
C697 C 0.56913 0.9263 0.05656 0.0
C698 C 0.54899 0.8848 0.05314 0.0
C699 C 0.55544 0.94838 0.0446 0.0
C700 C 0.52078 0.9297 0.02908 0.0
H701 H 0.59603 0.9419 0.0683 0.0
H702 H 0.57232 0.98027 0.04742 0.0
S703 S 0.45642 0.82155 0.0145 0.0
N704 N 0.49206 0.82582 0.03342 0.0
N705 N 0.4664 0.86712 0.01111 0.0
C706 C 0.5001 0.88816 0.02575 0.0
C707 C 0.51416 0.86574 0.03776 0.0
C708 C 0.03222 0.23789 0.41458 0.0
C709 C 0.9954 0.21836 0.40136 0.0
C710 C 0.06538 0.26619 0.40421 0.0
C711 C 0.06322 0.2763 0.38014 0.0
H712 H 0.03568 0.23056 0.43293 0.0
H713 H 0.09306 0.27961 0.4151 0.0
S714 S 0.97274 0.23632 0.33863 0.0
N715 N 0.95811 0.21313 0.36359 0.0
N716 N 0.02028 0.26587 0.34395 0.0
C717 C 0.02627 0.25776 0.36697 0.0
C718 C 0.99248 0.22894 0.37759 0.0
C719 C 0.83301 0.82465 0.38748 0.0
C720 C 0.82278 0.79061 0.39978 0.0
C721 C 0.80435 0.83127 0.37664 0.0
C722 C 0.76463 0.80417 0.37786 0.0
H723 H 0.86335 0.84682 0.38676 0.0
H724 H 0.81329 0.85803 0.36759 0.0
S725 S 0.72212 0.70919 0.40592 0.0
N726 N 0.76969 0.72816 0.41086 0.0
N727 N 0.71611 0.74155 0.39105 0.0
C728 C 0.75385 0.76978 0.38955 0.0
C729 C 0.78288 0.76275 0.40038 0.0
C730 C 0.18266 1.00861 0.37142 0.0
C731 C 0.21956 0.03429 0.38361 0.0
C732 C 0.17516 0.97407 0.35773 0.0
C733 C 0.20428 0.96396 0.35565 0.0
H734 H 0.15918 0.01488 0.37285 0.0
H735 H 0.14611 0.9549 0.34895 0.0
S736 S 0.30661 0.02279 0.38255 0.0
N737 N 0.28612 0.04833 0.39176 0.0
N738 N 0.27203 0.98343 0.36586 0.0
C739 C 0.24154 0.98976 0.36732 0.0
C740 C 0.24916 0.02489 0.38136 0.0
C741 C 0.58067 0.67433 0.3057 0.0
C742 C 0.54035 0.66048 0.30315 0.0
C743 C 0.60671 0.71022 0.31934 0.0
C744 C 0.59334 0.73353 0.33083 0.0
H745 H 0.59209 0.65705 0.29734 0.0
H746 H 0.63742 0.71952 0.3211 0.0
S747 S 0.49105 0.71226 0.32768 0.0
N748 N 0.48876 0.67416 0.31183 0.0
N749 N 0.53737 0.7413 0.33747 0.0
C750 C 0.55321 0.7204 0.32792 0.0
C751 C 0.5268 0.68395 0.3141 0.0
C752 C 0.34065 0.89852 0.27886 0.0
C753 C 0.37682 0.91729 0.29281 0.0
C754 C 0.30633 0.89067 0.28943 0.0
C755 C 0.30675 0.90147 0.31437 0.0
H756 H 0.33868 0.88891 0.25974 0.0
H757 H 0.27922 0.87557 0.27791 0.0
S758 S 0.39495 0.95454 0.35828 0.0
N759 N 0.41162 0.94875 0.33238 0.0
N760 N 0.34738 0.93407 0.35238 0.0
C761 C 0.34308 0.9214 0.32833 0.0
C762 C 0.37798 0.92922 0.31754 0.0
C763 C 0.12298 0.45369 0.30796 0.0
C764 C 0.15215 0.49282 0.30541 0.0
C765 C 0.13091 0.42894 0.3218 0.0
C766 C 0.16829 0.44253 0.33338 0.0
H767 H 0.0936 0.44262 0.29991 0.0
H768 H 0.10741 0.39939 0.32393 0.0
S769 S 0.25575 0.54099 0.32952 0.0
N770 N 0.22041 0.54279 0.31369 0.0
N771 N 0.23548 0.49657 0.33948 0.0
C772 C 0.19802 0.48105 0.32999 0.0
C773 C 0.18991 0.50612 0.31604 0.0
C774 C 0.34899 0.47868 0.32083 0.0
C775 C 0.354 0.46768 0.29704 0.0
C776 C 0.31461 0.45517 0.3321 0.0
C777 C 0.28381 0.42018 0.31985 0.0
H778 H 0.37166 0.50563 0.33083 0.0
H779 H 0.31175 0.46498 0.35027 0.0
S780 S 0.28329 0.37736 0.25794 0.0
N781 N 0.32586 0.41861 0.26214 0.0
N782 N 0.2614 0.37492 0.2831 0.0
C783 C 0.28875 0.4087 0.29624 0.0
C784 C 0.32379 0.4323 0.28492 0.0
C785 C 0.55173 0.88509 0.31763 0.0
C786 C 0.5428 0.87866 0.29213 0.0
C787 C 0.58015 0.87824 0.32876 0.0
C788 C 0.60067 0.86469 0.31481 0.0
H789 H 0.5367 0.89544 0.32912 0.0
H790 H 0.58581 0.88334 0.34847 0.0
S791 S 0.5883 0.84424 0.24707 0.0
N792 N 0.55685 0.8586 0.2532 0.0
N793 N 0.61007 0.84585 0.27378 0.0
C794 C 0.59201 0.85846 0.28919 0.0
C795 C 0.56315 0.86542 0.27797 0.0
C796 C 0.13104 0.70198 0.31282 0.0
C797 C 0.1535 0.68353 0.31433 0.0
C798 C 0.14502 0.74023 0.32374 0.0
C799 C 0.18227 0.76175 0.33634 0.0
H800 H 0.10218 0.68656 0.30326 0.0
H801 H 0.12635 0.75292 0.32236 0.0
S802 S 0.25354 0.72763 0.34468 0.0
N803 N 0.21539 0.6901 0.32896 0.0
N804 N 0.24185 0.76221 0.34922 0.0
C805 C 0.2053 0.74389 0.33776 0.0
C806 C 0.1909 0.70472 0.32681 0.0
C807 C 0.7754 0.99817 0.38553 0.0
C808 C 0.81626 0.01807 0.38582 0.0
C809 C 0.75217 0.96009 0.37377 0.0
C810 C 0.76894 0.94023 0.36204 0.0
H811 H 0.76117 0.01233 0.3943 0.0
H812 H 0.72081 0.94627 0.37375 0.0
S813 S 0.87471 0.97825 0.35877 0.0
N814 N 0.87265 0.01441 0.37408 0.0
N815 N 0.82906 0.94271 0.35221 0.0
C816 C 0.80983 0.95946 0.36257 0.0
C817 C 0.8335 0.99842 0.37439 0.0
C818 C 0.01884 0.81144 0.37449 0.0
C819 C 0.01431 0.7979 0.398 0.0
C820 C 0.05365 0.82327 0.3633 0.0
C821 C 0.08533 0.82275 0.37547 0.0
H822 H 0.9953 0.81262 0.36456 0.0
H823 H 0.05603 0.8336 0.34521 0.0
S824 S 0.08774 0.789 0.43704 0.0
N825 N 0.04399 0.78378 0.43277 0.0
N826 N 0.10943 0.80668 0.41204 0.0
C827 C 0.08103 0.80921 0.39894 0.0
C828 C 0.0455 0.79658 0.41011 0.0
C829 C 0.23256 0.25928 0.38921 0.0
C830 C 0.20909 0.21798 0.38831 0.0
C831 C 0.22005 0.28201 0.37699 0.0
C832 C 0.18335 0.26429 0.36369 0.0
H833 H 0.26122 0.27411 0.39903 0.0
H834 H 0.23953 0.31364 0.37772 0.0
S835 S 0.1093 0.15747 0.35747 0.0
N836 N 0.14644 0.16042 0.37416 0.0
N837 N 0.12273 0.20314 0.3515 0.0
C838 C 0.15908 0.22311 0.36326 0.0
C839 C 0.17198 0.19993 0.37551 0.0
C840 C 0.65801 0.5741 0.71343 0.0
C841 C 0.66007 0.55043 0.73113 0.0
C842 C 0.69177 0.60223 0.70337 0.0
C843 C 0.7286 0.60755 0.71073 0.0
H844 H 0.63017 0.57094 0.70745 0.0
H845 H 0.68907 0.62017 0.68993 0.0
S846 S 0.7482 0.54866 0.754 0.0
N847 N 0.70095 0.53173 0.75416 0.0
N848 N 0.76415 0.58368 0.73496 0.0
C849 C 0.73064 0.58306 0.72789 0.0
C850 C 0.6964 0.55471 0.73817 0.0
C851 C 0.45104 0.09966 0.73153 0.0
C852 C 0.49065 0.12945 0.73366 0.0
C853 C 0.42227 0.10593 0.72056 0.0
C854 C 0.4322 0.14219 0.71143 0.0
H855 H 0.44223 0.07128 0.73845 0.0
H856 H 0.39211 0.08242 0.71932 0.0
S857 S 0.53087 0.22988 0.71268 0.0
N858 N 0.53786 0.19676 0.72588 0.0
N859 N 0.48355 0.20821 0.70505 0.0
C860 C 0.47142 0.17209 0.71322 0.0
C861 C 0.50077 0.16578 0.72436 0.0
C862 C 0.84952 0.3464 0.7075 0.0
C863 C 0.88657 0.37232 0.7194 0.0
C864 C 0.84177 0.31155 0.69408 0.0
C865 C 0.87081 0.30131 0.69192 0.0
H866 H 0.82613 0.35283 0.70885 0.0
H867 H 0.81261 0.29234 0.68547 0.0
S868 S 0.97338 0.36045 0.71833 0.0
N869 N 0.95307 0.38621 0.72747 0.0
N870 N 0.93861 0.32085 0.70191 0.0
C871 C 0.90818 0.32724 0.70341 0.0
C872 C 0.91602 0.36267 0.71726 0.0
C873 C 0.24827 1.00469 0.64076 0.0
C874 C 0.20822 0.99148 0.63665 0.0
C875 C 0.27386 0.041 0.65414 0.0
C876 C 0.2602 0.06526 0.6638 0.0
H877 H 0.25976 0.98654 0.63388 0.0
H878 H 0.30433 0.04979 0.65726 0.0
S879 S 0.15889 0.04636 0.65538 0.0
N880 N 0.15688 1.00704 0.64142 0.0
N881 N 0.20462 0.075 0.66653 0.0
C882 C 0.22045 0.05292 0.65909 0.0
C883 C 0.19454 0.01608 0.64554 0.0
C884 C 0.03831 0.27389 0.64178 0.0
C885 C 0.03786 0.24442 0.62587 0.0
C886 C 1.00462 0.26722 0.65284 0.0
C887 C 0.96945 0.23107 0.64803 0.0
H888 H 0.06489 0.30209 0.64577 0.0
H889 H 1.00598 0.29061 0.66497 0.0
S890 S 0.95442 0.14374 0.60898 0.0
N891 N 1.00035 0.17751 0.60668 0.0
N892 N 0.93712 0.16478 0.62737 0.0
C893 C 0.969 0.20132 0.63234 0.0
C894 C 1.00323 0.20805 0.62128 0.0
C895 C 0.85063 0.8414 0.6491 0.0
C896 C 0.81375 0.82859 0.63708 0.0
C897 C 0.85786 0.81606 0.66256 0.0
C898 C 0.82848 0.77687 0.6647 0.0
H899 H 0.87413 0.87143 0.64818 0.0
H900 H 0.88679 0.82749 0.67152 0.0
S901 S 0.72662 0.72893 0.63703 0.0
N902 N 0.7474 0.7741 0.62811 0.0
N903 N 0.76084 0.72651 0.65381 0.0
C904 C 0.79151 0.76345 0.65259 0.0
C905 C 0.7842 0.78928 0.63866 0.0
C906 C 0.01435 0.81019 0.65265 0.0
C907 C 0.01598 0.80571 0.62721 0.0
C908 C 0.97994 0.78639 0.66378 0.0
C909 C 0.94584 0.75741 0.64987 0.0
H910 H 0.03964 0.83239 0.66408 0.0
H911 H 0.97992 0.79128 0.68335 0.0
S912 S 0.93586 0.73242 0.58274 0.0
N913 N 0.98114 0.76908 0.58862 0.0
N914 N 0.9168 0.72444 0.60932 0.0
C915 C 0.94746 0.75224 0.62446 0.0
C916 C 0.98243 0.77634 0.61321 0.0
C917 C 0.21341 0.21434 0.65047 0.0
C918 C 0.20384 0.20697 0.62504 0.0
C919 C 0.24224 0.2081 0.66156 0.0
C920 C 0.26252 0.19422 0.64764 0.0
H921 H 0.19863 0.22502 0.66193 0.0
H922 H 0.24846 0.21401 0.68122 0.0
S923 S 0.24839 0.17123 0.5801 0.0
N924 N 0.21694 0.1856 0.58619 0.0
N925 N 0.27093 0.17391 0.60673 0.0
C926 C 0.25316 0.18696 0.6221 0.0
C927 C 0.22389 0.19332 0.6109 0.0
C928 C 0.79796 0.03952 0.64609 0.0
C929 C 0.82187 0.02263 0.64545 0.0
C930 C 0.81139 0.07713 0.65793 0.0
C931 C 0.84946 0.09949 0.66931 0.0
H932 H 0.76838 0.0233 0.63762 0.0
H933 H 0.79167 0.08862 0.65828 0.0
S934 S 0.92485 0.07009 0.67103 0.0
N935 N 0.88616 0.03195 0.65615 0.0
N936 N 0.9116 0.10284 0.67812 0.0
C937 C 0.87402 0.08334 0.66832 0.0
C938 C 0.8602 0.04485 0.65645 0.0
C939 C 0.49235 0.33574 0.70395 0.0
C940 C 0.47511 0.35558 0.71513 0.0
C941 C 0.46953 0.29671 0.69339 0.0
C942 C 0.42867 0.27627 0.69347 0.0
H943 H 0.52368 0.35022 0.7035 0.0
H944 H 0.48406 0.28254 0.68506 0.0
S945 S 0.36945 0.31552 0.72006 0.0
N946 N 0.41489 0.35202 0.72566 0.0
N947 N 0.37199 0.27924 0.70534 0.0
C948 C 0.41114 0.29592 0.7045 0.0
C949 C 0.43438 0.33543 0.71545 0.0
C950 C 0.68567 0.14533 0.71225 0.0
C951 C 0.6863 0.14617 0.73792 0.0
C952 C 0.7192 0.15413 0.70027 0.0
C953 C 0.75464 0.16437 0.71353 0.0
H954 H 0.65923 0.13807 0.70127 0.0
H955 H 0.71747 0.15364 0.68051 0.0
S956 S 0.7708 0.16874 0.78114 0.0
N957 N 0.72473 0.15653 0.77614 0.0
N958 N 0.78754 0.17308 0.7539 0.0
C959 C 0.75531 0.16459 0.73923 0.0
C960 C 0.72121 0.15547 0.75134 0.0
C961 C 0.89991 0.59743 0.72036 0.0
C962 C 0.8763 0.55631 0.72069 0.0
C963 C 0.88671 0.61946 0.70794 0.0
C964 C 0.84924 0.60118 0.69562 0.0
H965 H 0.92917 0.61261 0.72934 0.0
H966 H 0.90626 0.65094 0.7077 0.0
S967 S 0.7743 0.49494 0.6935 0.0
N968 N 0.81253 0.49858 0.70925 0.0
N969 N 0.78758 0.53997 0.68614 0.0
C970 C 0.82478 0.56028 0.6966 0.0
C971 C 0.83834 0.53782 0.70909 0.0
C972 C 0.44074 0.95019 0.20443 0.0
C973 C 0.46717 0.9646 0.22544 0.0
C974 C 0.45246 0.96519 0.18173 0.0
C975 C 0.49091 0.99541 0.1793 0.0
H976 H 0.41116 0.92632 0.20537 0.0
H977 H 0.43134 0.95288 0.16593 0.0
S978 S 0.57071 0.04428 0.22911 0.0
N979 N 0.53289 0.0119 0.24264 0.0
N980 N 0.55512 0.03948 0.20006 0.0
C981 C 0.51727 0.01067 0.20035 0.0
C982 C 0.50536 0.99541 0.22337 0.0
C983 C 0.12264 0.56201 0.2153 0.0
C984 C 0.10463 0.53149 0.23083 0.0
C985 C 0.10688 0.55832 0.19134 0.0
C986 C 0.07267 0.52382 0.18185 0.0
H987 H 0.14875 0.58942 0.22191 0.0
H988 H 0.12121 0.58298 0.18027 0.0
S989 S 0.01498 0.43465 0.21451 0.0
N990 N 0.05125 0.46511 0.23472 0.0
N991 N 0.02187 0.45797 0.18942 0.0
C992 C 0.05521 0.49237 0.19675 0.0
C993 C 0.07116 0.49623 0.22129 0.0
C994 C 0.54062 0.5805 0.22084 0.0
C995 C 0.50332 0.57388 0.22514 0.0
C996 C 0.5504 0.57645 0.19713 0.0
C997 C 0.52336 0.56583 0.17666 0.0
H998 H 0.56253 0.58896 0.23597 0.0
H999 H 0.57968 0.5824 0.19478 0.0
S1000 S 0.42152 0.54469 0.17798 0.0
N1001 N 0.43909 0.55605 0.20694 0.0
N1002 N 0.4573 0.54789 0.16236 0.0
C1003 C 0.48582 0.55879 0.18069 0.0
C1004 C 0.4758 0.56281 0.20491 0.0
C1005 C 0.96537 0.45579 0.80386 0.0
C1006 C 0.93267 0.45954 0.79781 0.0
C1007 C 0.98088 0.46166 0.82813 0.0
C1008 C 0.96431 0.4715 0.84737 0.0
H1009 H 0.97909 0.44814 0.7897 0.0
H1010 H 1.00561 0.45766 0.8319 0.0
S1011 S 0.87905 0.48596 0.84134 0.0
N1012 N 0.88427 0.47394 0.81309 0.0
N1013 N 0.91425 0.48617 0.85868 0.0
C1014 C 0.93199 0.476 0.84158 0.0
C1015 C 0.91606 0.46986 0.81683 0.0
C1016 C 0.56494 0.5283 0.80865 0.0
C1017 C 0.57775 0.50198 0.80175 0.0
C1018 C 0.55221 0.52899 0.83199 0.0
C1019 C 0.55186 0.50335 0.84914 0.0
H1020 H 0.56322 0.54723 0.79558 0.0
H1021 H 0.54107 0.54857 0.83626 0.0
S1022 S 0.58761 0.43279 0.84079 0.0
N1023 N 0.59261 0.45229 0.81434 0.0
N1024 N 0.56937 0.45394 0.85831 0.0
C1025 C 0.56658 0.47842 0.84277 0.0
C1026 C 0.57935 0.47765 0.81904 0.0
C1027 C 0.55555 0.09702 0.82632 0.0
C1028 C 0.52911 0.08012 0.80537 0.0
C1029 C 0.54565 0.08116 0.84897 0.0
C1030 C 0.50917 0.0476 0.85131 0.0
H1031 H 0.58373 0.12314 0.82531 0.0
H1032 H 0.56672 0.09512 0.86472 0.0
S1033 S 0.43 0.99201 0.80183 0.0
N1034 N 0.46537 0.02752 0.78827 0.0
N1035 N 0.44654 0.99821 0.8308 0.0
C1036 C 0.4827 0.03027 0.83043 0.0
C1037 C 0.49271 0.0464 0.80747 0.0
C1038 C 0.16552 0.3203 0.55581 0.0
C1039 C 0.12673 0.29087 0.55797 0.0
C1040 C 0.17786 0.33573 0.53342 0.0
C1041 C 0.15194 0.32236 0.5122 0.0
H1042 H 0.18675 0.33116 0.57155 0.0
H1043 H 0.20827 0.35764 0.53263 0.0
S1044 S 0.04667 0.24711 0.50822 0.0
N1045 N 0.06206 0.24963 0.53708 0.0
N1046 N 0.08509 0.27929 0.495 0.0
C1047 C 0.11276 0.29364 0.51418 0.0
C1048 C 0.10016 0.27788 0.53707 0.0
C1049 C 0.73528 0.83777 0.55351 0.0
C1050 C 0.77195 0.87036 0.56161 0.0
C1051 C 0.71898 0.83343 0.52951 0.0
C1052 C 0.73903 0.86127 0.51271 0.0
H1053 H 0.71846 0.81633 0.56608 0.0
H1054 H 0.6902 0.80846 0.52416 0.0
S1055 S 0.83711 0.95045 0.5246 0.0
N1056 N 0.82877 0.9297 0.5507 0.0
N1057 N 0.79814 0.92176 0.50572 0.0
C1058 C 0.77637 0.89314 0.52038 0.0
C1059 C 0.79281 0.89765 0.54479 0.0
C1060 C 0.21112 0.91058 0.55608 0.0
C1061 C 0.17309 0.90192 0.56021 0.0
C1062 C 0.22161 0.90774 0.53241 0.0
C1063 C 0.19443 0.89583 0.51195 0.0
H1064 H 0.23316 0.92018 0.57126 0.0
H1065 H 0.25139 0.91532 0.53007 0.0
S1066 S 0.09116 0.86985 0.51261 0.0
N1067 N 0.10815 0.88099 0.54167 0.0
N1068 N 0.12784 0.87501 0.49721 0.0
C1069 C 0.15606 0.88604 0.51578 0.0
C1070 C 0.14538 0.88921 0.5399 0.0
C1071 C 0.58971 0.79548 0.14736 0.0
C1072 C 0.60667 0.78587 0.12826 0.0
C1073 C 0.60487 0.80106 0.17177 0.0
C1074 C 0.63774 0.79761 0.17785 0.0
H1075 H 0.56412 0.79801 0.14347 0.0
H1076 H 0.59094 0.80836 0.18595 0.0
S1077 S 0.693 0.77327 0.13456 0.0
N1078 N 0.65842 0.77382 0.11703 0.0
N1079 N 0.68646 0.78356 0.16285 0.0
C1080 C 0.65504 0.78821 0.1589 0.0
C1081 C 0.63961 0.7825 0.13412 0.0
C1082 C 0.23475 0.80275 0.15104 0.0
C1083 C 0.2455 0.83357 0.13568 0.0
C1084 C 0.22297 0.80529 0.17436 0.0
C1085 C 0.22116 0.8386 0.1831 0.0
H1086 H 0.23451 0.77601 0.14471 0.0
H1087 H 0.21367 0.78029 0.18521 0.0
S1088 S 0.24919 0.92862 0.15086 0.0
N1089 N 0.25568 0.89933 0.13139 0.0
N1090 N 0.23383 0.90427 0.17536 0.0
C1091 C 0.23339 0.87032 0.16836 0.0
C1092 C 0.2456 0.86782 0.14464 0.0
C1093 C 0.19254 0.43591 0.15841 0.0
C1094 C 0.20105 0.4155 0.1402 0.0
C1095 C 0.1822 0.42124 0.18123 0.0
C1096 C 0.17979 0.38548 0.1867 0.0
H1097 H 0.19361 0.46334 0.1549 0.0
H1098 H 0.17581 0.43794 0.19467 0.0
S1099 S 0.19822 0.32025 0.14496 0.0
N1100 N 0.20616 0.35769 0.12897 0.0
N1101 N 0.18629 0.32974 0.17181 0.0
C1102 C 0.18872 0.36502 0.16873 0.0
C1103 C 0.19944 0.38011 0.1455 0.0
C1104 C 0.79551 0.65311 0.88111 0.0
C1105 C 0.79334 0.61752 0.88665 0.0
C1106 C 0.80825 0.669 0.8588 0.0
C1107 C 0.81906 0.64975 0.84114 0.0
H1108 H 0.78864 0.66951 0.89447 0.0
H1109 H 0.81004 0.6968 0.85544 0.0
S1110 S 0.81631 0.55443 0.84629 0.0
N1111 N 0.80073 0.56224 0.87214 0.0
N1112 N 0.82567 0.59251 0.83058 0.0
C1113 C 0.81581 0.61347 0.84619 0.0
C1114 C 0.80274 0.59729 0.86884 0.0
C1115 C 0.39675 0.20023 0.8905 0.0
C1116 C 0.42636 0.19121 0.89541 0.0
C1117 C 0.38026 0.19598 0.86668 0.0
C1118 C 0.39258 0.18245 0.8467 0.0
H1119 H 0.38664 0.21133 0.90519 0.0
H1120 H 0.35844 0.20453 0.86383 0.0
S1121 S 0.46724 0.15205 0.84981 0.0
N1122 N 0.46633 0.16661 0.8784 0.0
N1123 N 0.43447 0.15755 0.83359 0.0
C1124 C 0.42122 0.17198 0.8514 0.0
C1125 C 0.43818 0.17644 0.87575 0.0
C1126 C 0.81517 0.22981 0.87574 0.0
C1127 C 0.84168 0.23755 0.89603 0.0
C1128 C 0.82492 0.22691 0.85179 0.0
C1129 C 0.86134 0.23118 0.84733 0.0
H1130 H 0.78714 0.22711 0.87836 0.0
H1131 H 0.80391 0.22151 0.83665 0.0
S1132 S 0.94035 0.25018 0.89431 0.0
N1133 N 0.90519 0.2479 0.91018 0.0
N1134 N 0.92374 0.24301 0.86528 0.0
C1135 C 0.88771 0.23802 0.86752 0.0
C1136 C 0.87783 0.24111 0.89183 0.0
C1137 C 0.25123 0.12803 0.4819 0.0
C1138 C 0.26859 0.12001 0.46238 0.0
C1139 C 0.26707 0.13366 0.50613 0.0
C1140 C 0.301 0.13182 0.51163 0.0
H1141 H 0.2248 0.12921 0.47845 0.0
H1142 H 0.25276 0.13965 0.52065 0.0
S1143 S 0.3578 0.11216 0.46708 0.0
N1144 N 0.32198 0.11139 0.45012 0.0
N1145 N 0.35124 0.1211 0.49562 0.0
C1146 C 0.31877 0.12411 0.49225 0.0
C1147 C 0.30268 0.11839 0.46765 0.0
C1148 C 0.90286 0.14014 0.48833 0.0
C1149 C 0.91157 0.1695 0.47207 0.0
C1150 C 0.88982 0.1426 0.51125 0.0
C1151 C 0.88473 0.17442 0.51879 0.0
H1152 H 0.90539 0.11457 0.48307 0.0
H1153 H 0.88232 0.11865 0.52279 0.0
S1154 S 0.90645 0.26064 0.48391 0.0
N1155 N 0.91609 0.23243 0.46564 0.0
N1156 N 0.89226 0.23745 0.50893 0.0
C1157 C 0.89486 0.2048 0.50314 0.0
C1158 C 0.90822 0.20232 0.47978 0.0
C1159 C 0.85914 0.77468 0.49207 0.0
C1160 C 0.87236 0.75733 0.47477 0.0
C1161 C 0.84885 0.75965 0.51483 0.0
C1162 C 0.85125 0.7266 0.52111 0.0
H1163 H 0.85594 0.7996 0.48777 0.0
H1164 H 0.83756 0.77312 0.52722 0.0
S1165 S 0.88707 0.67232 0.48324 0.0
N1166 N 0.88904 0.70643 0.46602 0.0
N1167 N 0.8707 0.67889 0.50908 0.0
C1168 C 0.86603 0.71004 0.50446 0.0
C1169 C 0.87644 0.72528 0.48125 0.0
loop_
_geom_bond_atom_site_label_1
_geom_bond_atom_site_label_2
_geom_bond_distance
_geom_bond_site_symmetry_2
_ccdc_geom_bond_type
H0 C5 0.930 . S
H1 C8 0.930 . S
H2 C10 0.930 . S
H3 C4 1.016 . S
C4 H3 1.016 . S
C4 N11 1.286 . S
C5 H0 0.930 . S
C5 C6 1.397 . S
C5 C7 1.361 . S
C6 C5 1.397 . S
C6 C10 1.390 . S
C7 C5 1.361 . S
C7 C8 1.393 . S
C7 N11 1.413 . S
C8 H1 0.930 . S
C8 C7 1.393 . S
C8 C9 1.399 . S
C9 C8 1.399 . S
C9 C10 1.381 . S
C10 H2 0.930 . S
C10 C6 1.390 . S
C10 C9 1.381 . S
N11 C4 1.286 . S
N11 C7 1.413 . S
H12 C17 0.930 . S
H13 C20 0.930 . S
H14 C22 0.930 . S
H15 C16 1.016 . S
C16 H15 1.016 . S
C16 N23 1.286 . S
C17 H12 0.930 . S
C17 C18 1.397 . S
C17 C19 1.361 . S
C18 C17 1.397 . S
C18 C22 1.390 . S
C19 C17 1.361 . S
C19 C20 1.393 . S
C19 N23 1.413 . S
C20 H13 0.930 . S
C20 C19 1.393 . S
C20 C21 1.399 . S
C21 C20 1.399 . S
C21 C22 1.381 . S
C22 H14 0.930 . S
C22 C18 1.390 . S
C22 C21 1.381 . S
N23 C16 1.286 . S
N23 C19 1.413 . S
H24 C29 0.930 . S
H25 C32 0.930 . S
H26 C34 0.930 . S
H27 C28 1.016 . S
C28 H27 1.016 . S
C28 N35 1.286 . S
C29 H24 0.930 . S
C29 C30 1.397 . S
C29 C31 1.361 . S
C30 C29 1.397 . S
C30 C34 1.390 . S
C31 C29 1.361 . S
C31 C32 1.393 . S
C31 N35 1.413 . S
C32 H25 0.930 . S
C32 C31 1.393 . S
C32 C33 1.399 . S
C33 C32 1.399 . S
C33 C34 1.381 . S
C34 H26 0.930 . S
C34 C30 1.390 . S
C34 C33 1.381 . S
N35 C28 1.286 . S
N35 C31 1.413 . S
H36 C41 0.930 . S
H37 C44 0.930 . S
H38 C46 0.930 . S
H39 C40 1.016 . S
C40 H39 1.016 . S
C40 N47 1.286 . S
C41 H36 0.930 . S
C41 C42 1.397 . S
C41 C43 1.361 . S
C42 C41 1.397 . S
C42 C46 1.390 . S
C43 C41 1.361 . S
C43 C44 1.393 . S
C43 N47 1.413 . S
C44 H37 0.930 . S
C44 C43 1.393 . S
C44 C45 1.399 . S
C45 C44 1.399 . S
C45 C46 1.381 . S
C46 H38 0.930 . S
C46 C42 1.390 . S
C46 C45 1.381 . S
N47 C40 1.286 . S
N47 C43 1.413 . S
H48 C53 0.930 . S
H49 C56 0.930 . S
H50 C58 0.930 . S
H51 C52 1.016 . S
C52 H51 1.016 . S
C52 N59 1.286 . S
C53 H48 0.930 . S
C53 C54 1.397 . S
C53 C55 1.361 . S
C54 C53 1.397 . S
C54 C58 1.390 . S
C55 C53 1.361 . S
C55 C56 1.393 . S
C55 N59 1.413 . S
C56 H49 0.930 . S
C56 C55 1.393 . S
C56 C57 1.399 . S
C57 C56 1.399 . S
C57 C58 1.381 . S
C58 H50 0.930 . S
C58 C54 1.390 . S
C58 C57 1.381 . S
N59 C52 1.286 . S
N59 C55 1.413 . S
H60 C65 0.930 . S
H61 C68 0.930 . S
H62 C70 0.930 . S
H63 C64 1.016 . S
C64 H63 1.016 . S
C64 N71 1.286 . S
C65 H60 0.930 . S
C65 C66 1.397 . S
C65 C67 1.361 . S
C66 C65 1.397 . S
C66 C70 1.390 . S
C67 C65 1.361 . S
C67 C68 1.393 . S
C67 N71 1.413 . S
C68 H61 0.930 . S
C68 C67 1.393 . S
C68 C69 1.399 . S
C69 C68 1.399 . S
C69 C70 1.381 . S
C70 H62 0.930 . S
C70 C66 1.390 . S
C70 C69 1.381 . S
N71 C64 1.286 . S
N71 C67 1.413 . S
H72 C77 0.930 . S
H73 C80 0.930 . S
H74 C82 0.930 . S
H75 C76 1.016 . S
C76 H75 1.016 . S
C76 N83 1.286 . S
C77 H72 0.930 . S
C77 C78 1.397 . S
C77 C79 1.361 . S
C78 C77 1.397 . S
C78 C82 1.390 . S
C79 C77 1.361 . S
C79 C80 1.393 . S
C79 N83 1.413 . S
C80 H73 0.930 . S
C80 C79 1.393 . S
C80 C81 1.399 . S
C81 C80 1.399 . S
C81 C82 1.381 . S
C82 H74 0.930 . S
C82 C78 1.390 . S
C82 C81 1.381 . S
N83 C76 1.286 . S
N83 C79 1.413 . S
H84 C89 0.930 . S
H85 C92 0.930 . S
H86 C94 0.930 . S
H87 C88 1.016 . S
C88 H87 1.016 . S
C88 N95 1.286 . S
C89 H84 0.930 . S
C89 C90 1.397 . S
C89 C91 1.361 . S
C90 C89 1.397 . S
C90 C94 1.390 . S
C91 C89 1.361 . S
C91 C92 1.393 . S
C91 N95 1.413 . S
C92 H85 0.930 . S
C92 C91 1.393 . S
C92 C93 1.399 . S
C93 C92 1.399 . S
C93 C94 1.381 . S
C94 H86 0.930 . S
C94 C90 1.390 . S
C94 C93 1.381 . S
N95 C88 1.286 . S
N95 C91 1.413 . S
H96 C101 0.930 . S
H97 C104 0.930 . S
H98 C106 0.930 . S
H99 C100 1.016 . S
C100 H99 1.016 . S
C100 N107 1.286 . S
C101 H96 0.930 . S
C101 C102 1.397 . S
C101 C103 1.361 . S
C102 C101 1.397 . S
C102 C106 1.390 . S
C103 C101 1.361 . S
C103 C104 1.393 . S
C103 N107 1.413 . S
C104 H97 0.930 . S
C104 C103 1.393 . S
C104 C105 1.399 . S
C105 C104 1.399 . S
C105 C106 1.381 . S
C106 H98 0.930 . S
C106 C102 1.390 . S
C106 C105 1.381 . S
N107 C100 1.286 . S
N107 C103 1.413 . S
H108 C113 0.930 . S
H109 C116 0.930 . S
H110 C118 0.930 . S
H111 C112 1.016 . S
C112 H111 1.016 . S
C112 N119 1.286 . S
C113 H108 0.930 . S
C113 C114 1.397 . S
C113 C115 1.361 . S
C114 C113 1.397 . S
C114 C118 1.390 . S
C115 C113 1.361 . S
C115 C116 1.393 . S
C115 N119 1.413 . S
C116 H109 0.930 . S
C116 C115 1.393 . S
C116 C117 1.399 . S
C117 C116 1.399 . S
C117 C118 1.381 . S
C118 H110 0.930 . S
C118 C114 1.390 . S
C118 C117 1.381 . S
N119 C112 1.286 . S
N119 C115 1.413 . S
H120 C125 0.930 1_554 S
H121 C128 0.930 . S
H122 C130 0.930 . S
H123 C124 1.016 . S
C124 H123 1.016 . S
C124 N131 1.286 . S
C125 H120 0.930 1_556 S
C125 C126 1.397 . S
C125 C127 1.361 . S
C126 C125 1.397 . S
C126 C130 1.390 . S
C127 C125 1.361 . S
C127 C128 1.393 . S
C127 N131 1.413 . S
C128 H121 0.930 . S
C128 C127 1.393 . S
C128 C129 1.399 . S
C129 C128 1.399 . S
C129 C130 1.381 . S
C130 H122 0.930 . S
C130 C126 1.390 . S
C130 C129 1.381 . S
N131 C124 1.286 . S
N131 C127 1.413 . S
H132 C137 0.930 . S
H133 C140 0.930 . S
H134 C142 0.930 . S
H135 C136 1.016 . S
C136 H135 1.016 . S
C136 N143 1.286 . S
C137 H132 0.930 . S
C137 C138 1.397 . S
C137 C139 1.361 . S
C138 C137 1.397 . S
C138 C142 1.390 . S
C139 C137 1.361 . S
C139 C140 1.393 . S
C139 N143 1.413 . S
C140 H133 0.930 . S
C140 C139 1.393 . S
C140 C141 1.399 . S
C141 C140 1.399 . S
C141 C142 1.381 . S
C142 H134 0.930 . S
C142 C138 1.390 . S
C142 C141 1.381 . S
N143 C136 1.286 . S
N143 C139 1.413 . S
H144 C149 0.930 . S
H145 C152 0.930 . S
H146 C154 0.930 . S
H147 C148 1.016 . S
C148 H147 1.016 . S
C148 N155 1.286 . S
C149 H144 0.930 . S
C149 C150 1.397 . S
C149 C151 1.361 . S
C150 C149 1.397 . S
C150 C154 1.390 . S
C151 C149 1.361 . S
C151 C152 1.393 . S
C151 N155 1.413 . S
C152 H145 0.930 . S
C152 C151 1.393 . S
C152 C153 1.399 . S
C153 C152 1.399 . S
C153 C154 1.381 . S
C154 H146 0.930 . S
C154 C150 1.390 . S
C154 C153 1.381 . S
N155 C148 1.286 . S
N155 C151 1.413 . S
H156 C161 0.930 . S
H157 C164 0.930 . S
H158 C166 0.930 . S
H159 C160 1.016 . S
C160 H159 1.016 . S
C160 N167 1.286 . S
C161 H156 0.930 . S
C161 C162 1.397 . S
C161 C163 1.361 . S
C162 C161 1.397 . S
C162 C166 1.390 . S
C163 C161 1.361 . S
C163 C164 1.393 . S
C163 N167 1.413 . S
C164 H157 0.930 . S
C164 C163 1.393 . S
C164 C165 1.399 . S
C165 C164 1.399 . S
C165 C166 1.381 . S
C166 H158 0.930 . S
C166 C162 1.390 . S
C166 C165 1.381 . S
N167 C160 1.286 . S
N167 C163 1.413 . S
H168 C173 0.930 . S
H169 C176 0.930 . S
H170 C178 0.930 . S
H171 C172 1.016 . S
C172 H171 1.016 . S
C172 N179 1.286 . S
C173 H168 0.930 . S
C173 C174 1.397 . S
C173 C175 1.361 . S
C174 C173 1.397 . S
C174 C178 1.390 . S
C175 C173 1.361 . S
C175 C176 1.393 . S
C175 N179 1.413 . S
C176 H169 0.930 . S
C176 C175 1.393 . S
C176 C177 1.399 . S
C177 C176 1.399 . S
C177 C178 1.381 . S
C178 H170 0.930 . S
C178 C174 1.390 . S
C178 C177 1.381 . S
N179 C172 1.286 . S
N179 C175 1.413 . S
H180 C185 0.930 . S
H181 C188 0.930 . S
H182 C190 0.930 . S
H183 C184 1.016 . S
C184 H183 1.016 . S
C184 N191 1.286 . S
C185 H180 0.930 . S
C185 C186 1.397 . S
C185 C187 1.361 . S
C186 C185 1.397 . S
C186 C190 1.390 . S
C187 C185 1.361 . S
C187 C188 1.393 . S
C187 N191 1.413 . S
C188 H181 0.930 . S
C188 C187 1.393 . S
C188 C189 1.399 . S
C189 C188 1.399 . S
C189 C190 1.381 . S
C190 H182 0.930 . S
C190 C186 1.390 . S
C190 C189 1.381 . S
N191 C184 1.286 . S
N191 C187 1.413 . S
H192 C197 0.930 . S
H193 C200 0.930 . S
H194 C202 0.930 . S
H195 C196 1.016 . S
C196 H195 1.016 . S
C196 N203 1.286 . S
C197 H192 0.930 . S
C197 C198 1.397 . S
C197 C199 1.361 . S
C198 C197 1.397 . S
C198 C202 1.390 . S
C199 C197 1.361 . S
C199 C200 1.393 . S
C199 N203 1.413 . S
C200 H193 0.930 . S
C200 C199 1.393 . S
C200 C201 1.399 . S
C201 C200 1.399 . S
C201 C202 1.381 . S
C202 H194 0.930 . S
C202 C198 1.390 . S
C202 C201 1.381 . S
N203 C196 1.286 . S
N203 C199 1.413 . S
H204 C209 0.930 . S
H205 C212 0.930 . S
H206 C214 0.930 . S
H207 C208 1.016 . S
C208 H207 1.016 . S
C208 N215 1.286 . S
C209 H204 0.930 . S
C209 C210 1.397 . S
C209 C211 1.361 . S
C210 C209 1.397 . S
C210 C214 1.390 . S
C211 C209 1.361 . S
C211 C212 1.393 . S
C211 N215 1.413 . S
C212 H205 0.930 . S
C212 C211 1.393 . S
C212 C213 1.399 . S
C213 C212 1.399 . S
C213 C214 1.381 . S
C214 H206 0.930 . S
C214 C210 1.390 . S
C214 C213 1.381 . S
N215 C208 1.286 . S
N215 C211 1.413 . S
C216 Eu217 2.835 . S
C216 C218 1.500 1_545 S
C216 O236 1.257 1_545 S
C216 O237 1.260 . S
Eu217 C216 2.835 . S
Eu217 O236 2.473 1_545 S
Eu217 O237 2.480 . S
Eu217 O238 2.430 . S
Eu217 O239 2.670 1_554 S
Eu217 O240 2.394 1_545 S
Eu217 O245 2.355 1_545 S
Eu217 O247 2.374 . S
C218 C216 1.500 1_565 S
C218 C219 1.377 1_565 S
C218 C223 1.377 . S
C219 C218 1.377 1_545 S
C219 C220 1.395 . S
C219 H248 0.931 . S
C220 C219 1.395 . S
C220 C221 1.383 1_545 S
C220 H249 0.931 . S
C221 C220 1.383 1_565 S
C221 C222 1.394 . S
C222 C221 1.394 . S
C222 C223 1.378 . S
C222 H250 0.931 . S
C223 C218 1.377 . S
C223 C222 1.378 . S
C223 H251 0.931 . S
C224 O238 1.259 . S
C224 O239 1.270 1_554 S
C225 O240 1.251 . S
C225 O241 1.251 1_554 S
C226 Eu227 2.835 1_545 S
C226 C228 1.500 . S
C226 O242 1.257 . S
C226 O243 1.260 1_545 S
Eu227 C226 2.835 1_565 S
Eu227 O239 2.355 1_565 S
Eu227 O241 2.374 . S
Eu227 O242 2.473 1_565 S
Eu227 O243 2.480 . S
Eu227 O244 2.430 . S
Eu227 O245 2.670 1_556 S
Eu227 O246 2.394 1_565 S
C228 C226 1.500 . S
C228 C229 1.377 . S
C228 C233 1.377 . S
C229 C228 1.377 . S
C229 C230 1.395 . S
C229 H252 0.931 1_545 S
C230 C229 1.395 . S
C230 C231 1.383 . S
C230 H253 0.931 1_545 S
C231 C230 1.383 . S
C231 C232 1.394 . S
C232 C231 1.394 . S
C232 C233 1.378 . S
C232 H254 0.931 . S
C233 C228 1.377 . S
C233 C232 1.378 . S
C233 H255 0.931 . S
C234 O244 1.259 1_554 S
C234 O245 1.270 . S
C235 O246 1.251 . S
C235 O247 1.251 1_556 S
O236 C216 1.257 1_565 S
O236 Eu217 2.473 1_565 S
O237 C216 1.260 . S
O237 Eu217 2.480 . S
O238 Eu217 2.430 . S
O238 C224 1.259 . S
O239 Eu217 2.670 1_556 S
O239 C224 1.270 1_556 S
O239 Eu227 2.355 1_545 S
O240 Eu217 2.394 1_565 S
O240 C225 1.251 . S
O241 C225 1.251 1_556 S
O241 Eu227 2.374 . S
O242 C226 1.257 . S
O242 Eu227 2.473 1_545 S
O243 C226 1.260 1_565 S
O243 Eu227 2.480 . S
O244 Eu227 2.430 . S
O244 C234 1.259 1_556 S
O245 Eu217 2.355 1_565 S
O245 Eu227 2.670 1_554 S
O245 C234 1.270 . S
O246 Eu227 2.394 1_545 S
O246 C235 1.251 . S
O247 Eu217 2.374 . S
O247 C235 1.251 1_554 S
H248 C219 0.931 . S
H249 C220 0.931 . S
H250 C222 0.931 . S
H251 C223 0.931 . S
H252 C229 0.931 1_565 S
H253 C230 0.931 1_565 S
H254 C232 0.931 . S
H255 C233 0.931 . S
C256 Eu257 2.835 1_455 S
C256 C258 1.500 . S
C256 O276 1.257 . S
C256 O277 1.260 1_455 S
Eu257 C256 2.835 1_655 S
Eu257 O276 2.473 1_655 S
Eu257 O277 2.480 . S
Eu257 O278 2.430 . S
Eu257 O279 2.670 1_554 S
Eu257 O280 2.394 1_655 S
Eu257 O285 2.355 1_655 S
Eu257 O287 2.374 . S
C258 C256 1.500 . S
C258 C259 1.377 . S
C258 C263 1.377 . S
C259 C258 1.377 . S
C259 C260 1.395 . S
C259 H288 0.931 1_455 S
C260 C259 1.395 . S
C260 C261 1.383 . S
C260 H289 0.925 1_455 S
C261 C260 1.383 . S
C261 C262 1.394 . S
C262 C261 1.394 . S
C262 C263 1.378 . S
C262 H290 0.931 . S
C263 C258 1.377 . S
C263 C262 1.378 . S
C263 H291 0.931 . S
C264 O278 1.259 1_556 S
C264 O279 1.270 . S
C265 O280 1.251 . S
C265 O281 1.236 1_554 S
C266 Eu267 2.835 1_655 S
C266 C268 1.500 . S
C266 O282 1.257 . S
C266 O283 1.260 1_655 S
Eu267 C266 2.835 1_455 S
Eu267 O279 2.355 1_455 S
Eu267 O281 2.384 . S
Eu267 O282 2.473 1_455 S
Eu267 O283 2.480 . S
Eu267 O284 2.430 . S
Eu267 O285 2.670 1_556 S
Eu267 O286 2.394 1_455 S
C268 C266 1.500 . S
C268 C269 1.377 1_655 S
C268 C273 1.377 . S
C269 C268 1.377 1_455 S
C269 C270 1.395 1_455 S
C269 H292 0.931 . S
C270 C269 1.395 1_655 S
C270 C271 1.383 . S
C270 H293 0.931 1_655 S
C271 C270 1.383 . S
C271 C272 1.394 . S
C272 C271 1.394 . S
C272 C273 1.378 . S
C272 H294 0.931 . S
C273 C268 1.377 . S
C273 C272 1.378 . S
C273 H295 0.931 . S
C274 O284 1.259 1_554 S
C274 O285 1.270 . S
C275 O286 1.251 . S
C275 O287 1.251 1_556 S
O276 C256 1.257 . S
O276 Eu257 2.473 1_455 S
O277 C256 1.260 1_655 S
O277 Eu257 2.480 . S
O278 Eu257 2.430 . S
O278 C264 1.259 1_554 S
O279 Eu257 2.670 1_556 S
O279 C264 1.270 . S
O279 Eu267 2.355 1_655 S
O280 Eu257 2.394 1_455 S
O280 C265 1.251 . S
O281 C265 1.236 1_556 S
O281 Eu267 2.384 . S
O282 C266 1.257 . S
O282 Eu267 2.473 1_655 S
O283 C266 1.260 1_455 S
O283 Eu267 2.480 . S
O284 Eu267 2.430 . S
O284 C274 1.259 1_556 S
O285 Eu257 2.355 1_455 S
O285 Eu267 2.670 1_554 S
O285 C274 1.270 . S
O286 Eu267 2.394 1_655 S
O286 C275 1.251 . S
O287 Eu257 2.374 . S
O287 C275 1.251 1_554 S
H288 C259 0.931 1_655 S
H289 C260 0.925 1_655 S
H290 C262 0.931 . S
H291 C263 0.931 . S
H292 C269 0.931 . S
H293 C270 0.931 1_455 S
H294 C272 0.931 . S
H295 C273 0.931 . S
C296 Eu297 2.835 . S
C296 C298 1.500 . S
C296 O316 1.257 . S
C296 O317 1.260 . S
Eu297 C296 2.835 . S
Eu297 O316 2.473 . S
Eu297 O317 2.480 . S
Eu297 O318 2.430 . S
Eu297 O319 2.670 1_556 S
Eu297 O320 2.394 . S
Eu297 O325 2.355 . S
Eu297 O327 2.374 1_556 S
C298 C296 1.500 . S
C298 C299 1.377 . S
C298 C303 1.377 . S
C299 C298 1.377 . S
C299 C300 1.395 . S
C299 H328 0.931 . S
C300 C299 1.395 . S
C300 C301 1.383 . S
C300 H329 0.931 . S
C301 C300 1.383 . S
C301 C302 1.394 . S
C302 C301 1.394 . S
C302 C303 1.378 . S
C302 H330 0.931 . S
C303 C298 1.377 . S
C303 C302 1.378 . S
C303 H331 0.931 . S
C304 O318 1.259 1_554 S
C304 O319 1.270 . S
C305 O320 1.251 . S
C305 O321 1.251 1_556 S
C306 Eu307 2.835 . S
C306 C308 1.500 . S
C306 O322 1.257 . S
C306 O323 1.260 . S
Eu307 C306 2.835 . S
Eu307 O319 2.355 . S
Eu307 O321 2.374 . S
Eu307 O322 2.473 . S
Eu307 O323 2.480 . S
Eu307 O324 2.430 . S
Eu307 O325 2.670 1_554 S
Eu307 O326 2.394 . S
C308 C306 1.500 . S
C308 C309 1.377 . S
C308 C313 1.377 . S
C309 C308 1.377 . S
C309 C310 1.395 . S
C309 H332 0.931 . S
C310 C309 1.395 . S
C310 C311 1.383 . S
C310 H333 0.931 . S
C311 C310 1.383 . S
C311 C312 1.394 . S
C312 C311 1.394 . S
C312 C313 1.378 . S
C312 H334 0.931 . S
C313 C308 1.377 . S
C313 C312 1.378 . S
C313 H335 0.931 . S
C314 O324 1.259 . S
C314 O325 1.270 1_554 S
C315 O326 1.251 . S
C315 O327 1.251 . S
O316 C296 1.257 . S
O316 Eu297 2.473 . S
O317 C296 1.260 . S
O317 Eu297 2.480 . S
O318 Eu297 2.430 . S
O318 C304 1.259 1_556 S
O319 Eu297 2.670 1_554 S
O319 C304 1.270 . S
O319 Eu307 2.355 . S
O320 Eu297 2.394 . S
O320 C305 1.251 . S
O321 C305 1.251 1_554 S
O321 Eu307 2.374 . S
O322 C306 1.257 . S
O322 Eu307 2.473 . S
O323 C306 1.260 . S
O323 Eu307 2.480 . S
O324 Eu307 2.430 . S
O324 C314 1.259 . S
O325 Eu297 2.355 . S
O325 Eu307 2.670 1_556 S
O325 C314 1.270 1_556 S
O326 Eu307 2.394 . S
O326 C315 1.251 . S
O327 Eu297 2.374 1_554 S
O327 C315 1.251 . S
H328 C299 0.931 . S
H329 C300 0.931 . S
H330 C302 0.931 . S
H331 C303 0.931 . S
H332 C309 0.931 . S
H333 C310 0.931 . S
H334 C312 0.931 . S
H335 C313 0.931 . S
C336 Eu337 2.835 . S
C336 C338 1.500 . S
C336 O356 1.257 . S
C336 O357 1.260 . S
Eu337 C336 2.835 . S
Eu337 O356 2.473 . S
Eu337 O357 2.480 . S
Eu337 O358 2.430 . S
Eu337 O359 2.670 . S
Eu337 O360 2.394 . S
Eu337 O365 2.355 . S
Eu337 O367 2.374 . S
C338 C336 1.500 . S
C338 C339 1.377 . S
C338 C343 1.377 . S
C339 C338 1.377 . S
C339 C340 1.395 . S
C339 H368 0.931 . S
C340 C339 1.395 . S
C340 C341 1.383 . S
C340 H369 0.931 . S
C341 C340 1.383 . S
C341 C342 1.394 . S
C342 C341 1.394 . S
C342 C343 1.378 . S
C342 H370 0.931 . S
C343 C338 1.377 . S
C343 C342 1.378 . S
C343 H371 0.931 . S
C344 O358 1.259 . S
C344 O359 1.270 . S
C345 O360 1.251 . S
C345 O361 1.251 . S
C346 Eu347 2.835 . S
C346 C348 1.500 . S
C346 O362 1.257 . S
C346 O363 1.260 . S
Eu347 C346 2.835 . S
Eu347 O359 2.355 . S
Eu347 O361 2.374 . S
Eu347 O362 2.473 . S
Eu347 O363 2.480 . S
Eu347 O364 2.430 . S
Eu347 O365 2.670 . S
Eu347 O366 2.394 . S
C348 C346 1.500 . S
C348 C349 1.377 . S
C348 C353 1.377 . S
C349 C348 1.377 . S
C349 C350 1.395 . S
C349 H372 0.931 . S
C350 C349 1.395 . S
C350 C351 1.383 . S
C350 H373 0.931 . S
C351 C350 1.383 . S
C351 C352 1.394 . S
C352 C351 1.394 . S
C352 C353 1.378 . S
C352 H374 0.931 . S
C353 C348 1.377 . S
C353 C352 1.378 . S
C353 H375 0.931 . S
C354 O364 1.259 . S
C354 O365 1.270 . S
C355 O366 1.251 . S
C355 O367 1.251 . S
O356 C336 1.257 . S
O356 Eu337 2.473 . S
O357 C336 1.260 . S
O357 Eu337 2.480 . S
O358 Eu337 2.430 . S
O358 C344 1.259 . S
O359 Eu337 2.670 . S
O359 C344 1.270 . S
O359 Eu347 2.355 . S
O360 Eu337 2.394 . S
O360 C345 1.251 . S
O361 C345 1.251 . S
O361 Eu347 2.374 . S
O362 C346 1.257 . S
O362 Eu347 2.473 . S
O363 C346 1.260 . S
O363 Eu347 2.480 . S
O364 Eu347 2.430 . S
O364 C354 1.259 . S
O365 Eu337 2.355 . S
O365 Eu347 2.670 . S
O365 C354 1.270 . S
O366 Eu347 2.394 . S
O366 C355 1.251 . S
O367 Eu337 2.374 . S
O367 C355 1.251 . S
H368 C339 0.931 . S
H369 C340 0.931 . S
H370 C342 0.931 . S
H371 C343 0.931 . S
H372 C349 0.931 . S
H373 C350 0.931 . S
H374 C352 0.931 . S
H375 C353 0.931 . S
C376 Eu377 2.835 . S
C376 C378 1.500 . S
C376 O396 1.257 . S
C376 O397 1.260 . S
Eu377 C376 2.835 . S
Eu377 O396 2.473 . S
Eu377 O397 2.480 . S
Eu377 O398 2.430 . S
Eu377 O399 2.670 . S
Eu377 O400 2.394 . S
Eu377 O405 2.355 . S
Eu377 O407 2.374 . S
C378 C376 1.500 . S
C378 C379 1.377 . S
C378 C383 1.377 . S
C379 C378 1.377 . S
C379 C380 1.395 . S
C379 H408 0.931 . S
C380 C379 1.395 . S
C380 C381 1.383 . S
C380 H409 0.931 . S
C381 C380 1.383 . S
C381 C382 1.394 . S
C382 C381 1.394 . S
C382 C383 1.378 . S
C382 H410 0.931 . S
C383 C378 1.377 . S
C383 C382 1.378 . S
C383 H411 0.931 . S
C384 O398 1.259 . S
C384 O399 1.270 . S
C385 O400 1.251 . S
C385 O401 1.251 . S
C386 Eu387 2.835 . S
C386 C388 1.500 . S
C386 O402 1.257 . S
C386 O403 1.260 . S
Eu387 C386 2.835 . S
Eu387 O399 2.355 . S
Eu387 O401 2.374 . S
Eu387 O402 2.473 . S
Eu387 O403 2.480 . S
Eu387 O404 2.430 . S
Eu387 O405 2.670 . S
Eu387 O406 2.394 . S
C388 C386 1.500 . S
C388 C389 1.377 . S
C388 C393 1.377 . S
C389 C388 1.377 . S
C389 C390 1.395 . S
C389 H412 0.931 . S
C390 C389 1.395 . S
C390 C391 1.383 . S
C390 H413 0.931 . S
C391 C390 1.383 . S
C391 C392 1.394 . S
C392 C391 1.394 . S
C392 C393 1.378 . S
C392 H414 0.931 . S
C393 C388 1.377 . S
C393 C392 1.378 . S
C393 H415 0.931 . S
C394 O404 1.259 . S
C394 O405 1.270 . S
C395 O406 1.251 . S
C395 O407 1.251 . S
O396 C376 1.257 . S
O396 Eu377 2.473 . S
O397 C376 1.260 . S
O397 Eu377 2.480 . S
O398 Eu377 2.430 . S
O398 C384 1.259 . S
O399 Eu377 2.670 . S
O399 C384 1.270 . S
O399 Eu387 2.355 . S
O400 Eu377 2.394 . S
O400 C385 1.251 . S
O401 C385 1.251 . S
O401 Eu387 2.374 . S
O402 C386 1.257 . S
O402 Eu387 2.473 . S
O403 C386 1.260 . S
O403 Eu387 2.480 . S
O404 Eu387 2.430 . S
O404 C394 1.259 . S
O405 Eu377 2.355 . S
O405 Eu387 2.670 . S
O405 C394 1.270 . S
O406 Eu387 2.394 . S
O406 C395 1.251 . S
O407 Eu377 2.374 . S
O407 C395 1.251 . S
H408 C379 0.931 . S
H409 C380 0.931 . S
H410 C382 0.931 . S
H411 C383 0.931 . S
H412 C389 0.931 . S
H413 C390 0.931 . S
H414 C392 0.931 . S
H415 C393 0.931 . S
C416 Eu417 2.835 . S
C416 C418 1.500 . S
C416 O436 1.257 . S
C416 O437 1.260 . S
Eu417 C416 2.835 . S
Eu417 O436 2.473 . S
Eu417 O437 2.480 . S
Eu417 O438 2.430 . S
Eu417 O439 2.670 . S
Eu417 O440 2.394 . S
Eu417 O445 2.355 . S
Eu417 O447 2.374 . S
C418 C416 1.500 . S
C418 C419 1.377 . S
C418 C423 1.377 . S
C419 C418 1.377 . S
C419 C420 1.395 . S
C419 H448 0.931 . S
C420 C419 1.395 . S
C420 C421 1.383 . S
C420 H449 0.931 . S
C421 C420 1.383 . S
C421 C422 1.394 . S
C422 C421 1.394 . S
C422 C423 1.378 . S
C422 H450 0.931 . S
C423 C418 1.377 . S
C423 C422 1.378 . S
C423 H451 0.931 . S
C424 O438 1.259 . S
C424 O439 1.270 . S
C425 O440 1.251 . S
C425 O441 1.251 . S
C426 Eu427 2.835 . S
C426 C428 1.500 . S
C426 O442 1.257 . S
C426 O443 1.260 . S
Eu427 C426 2.835 . S
Eu427 O439 2.355 . S
Eu427 O441 2.374 . S
Eu427 O442 2.473 . S
Eu427 O443 2.480 . S
Eu427 O444 2.430 . S
Eu427 O445 2.670 . S
Eu427 O446 2.394 . S
C428 C426 1.500 . S
C428 C429 1.377 . S
C428 C433 1.377 . S
C429 C428 1.377 . S
C429 C430 1.395 . S
C429 H452 0.931 . S
C430 C429 1.395 . S
C430 C431 1.383 . S
C430 H453 0.931 . S
C431 C430 1.383 . S
C431 C432 1.394 . S
C432 C431 1.394 . S
C432 C433 1.378 . S
C432 H454 0.931 . S
C433 C428 1.377 . S
C433 C432 1.378 . S
C433 H455 0.931 . S
C434 O444 1.259 . S
C434 O445 1.270 . S
C435 O446 1.251 . S
C435 O447 1.251 . S
O436 C416 1.257 . S
O436 Eu417 2.473 . S
O437 C416 1.260 . S
O437 Eu417 2.480 . S
O438 Eu417 2.430 . S
O438 C424 1.259 . S
O439 Eu417 2.670 . S
O439 C424 1.270 . S
O439 Eu427 2.355 . S
O440 Eu417 2.394 . S
O440 C425 1.251 . S
O441 C425 1.251 . S
O441 Eu427 2.374 . S
O442 C426 1.257 . S
O442 Eu427 2.473 . S
O443 C426 1.260 . S
O443 Eu427 2.480 . S
O444 Eu427 2.430 . S
O444 C434 1.259 . S
O445 Eu417 2.355 . S
O445 Eu427 2.670 . S
O445 C434 1.270 . S
O446 Eu427 2.394 . S
O446 C435 1.251 . S
O447 Eu417 2.374 . S
O447 C435 1.251 . S
H448 C419 0.931 . S
H449 C420 0.931 . S
H450 C422 0.931 . S
H451 C423 0.931 . S
H452 C429 0.931 . S
H453 C430 0.931 . S
H454 C432 0.931 . S
H455 C433 0.931 . S
C456 Eu457 2.835 . S
C456 C458 1.500 . S
C456 O476 1.257 . S
C456 O477 1.260 . S
Eu457 C456 2.835 . S
Eu457 O476 2.473 . S
Eu457 O477 2.480 . S
Eu457 O478 2.430 . S
Eu457 O479 2.670 . S
Eu457 O480 2.394 . S
Eu457 O485 2.355 . S
Eu457 O487 2.374 . S
C458 C456 1.500 . S
C458 C459 1.377 . S
C458 C463 1.377 . S
C459 C458 1.377 . S
C459 C460 1.395 . S
C459 H488 0.931 . S
C460 C459 1.395 . S
C460 C461 1.383 . S
C460 H489 0.931 . S
C461 C460 1.383 . S
C461 C462 1.394 . S
C462 C461 1.394 . S
C462 C463 1.378 . S
C462 H490 0.931 . S
C463 C458 1.377 . S
C463 C462 1.378 . S
C463 H491 0.931 . S
C464 O478 1.259 . S
C464 O479 1.270 . S
C465 O480 1.251 . S
C465 O481 1.251 . S
C466 Eu467 2.835 . S
C466 C468 1.500 . S
C466 O482 1.257 . S
C466 O483 1.260 . S
Eu467 C466 2.835 . S
Eu467 O479 2.355 . S
Eu467 O481 2.374 . S
Eu467 O482 2.473 . S
Eu467 O483 2.480 . S
Eu467 O484 2.430 . S
Eu467 O485 2.670 . S
Eu467 O486 2.394 . S
C468 C466 1.500 . S
C468 C469 1.377 . S
C468 C473 1.377 . S
C469 C468 1.377 . S
C469 C470 1.395 . S
C469 H492 0.931 . S
C470 C469 1.395 . S
C470 C471 1.383 . S
C470 H493 0.931 . S
C471 C470 1.383 . S
C471 C472 1.394 . S
C472 C471 1.394 . S
C472 C473 1.378 . S
C472 H494 0.931 . S
C473 C468 1.377 . S
C473 C472 1.378 . S
C473 H495 0.931 . S
C474 O484 1.259 . S
C474 O485 1.270 . S
C475 O486 1.251 . S
C475 O487 1.251 . S
O476 C456 1.257 . S
O476 Eu457 2.473 . S
O477 C456 1.260 . S
O477 Eu457 2.480 . S
O478 Eu457 2.430 . S
O478 C464 1.259 . S
O479 Eu457 2.670 . S
O479 C464 1.270 . S
O479 Eu467 2.355 . S
O480 Eu457 2.394 . S
O480 C465 1.251 . S
O481 C465 1.251 . S
O481 Eu467 2.374 . S
O482 C466 1.257 . S
O482 Eu467 2.473 . S
O483 C466 1.260 . S
O483 Eu467 2.480 . S
O484 Eu467 2.430 . S
O484 C474 1.259 . S
O485 Eu457 2.355 . S
O485 Eu467 2.670 . S
O485 C474 1.270 . S
O486 Eu467 2.394 . S
O486 C475 1.251 . S
O487 Eu457 2.374 . S
O487 C475 1.251 . S
H488 C459 0.931 . S
H489 C460 0.931 . S
H490 C462 0.931 . S
H491 C463 0.931 . S
H492 C469 0.931 . S
H493 C470 0.931 . S
H494 C472 0.931 . S
H495 C473 0.931 . S
C496 Eu497 2.835 . S
C496 C498 1.500 . S
C496 O516 1.257 . S
C496 O517 1.260 . S
Eu497 C496 2.835 . S
Eu497 O516 2.473 . S
Eu497 O517 2.480 . S
Eu497 O518 2.430 . S
Eu497 O519 2.670 . S
Eu497 O520 2.394 . S
Eu497 O525 2.355 . S
Eu497 O527 2.374 . S
C498 C496 1.500 . S
C498 C499 1.377 . S
C498 C503 1.377 . S
C499 C498 1.377 . S
C499 C500 1.395 . S
C499 H528 0.931 . S
C500 C499 1.395 . S
C500 C501 1.383 . S
C500 H529 0.931 . S
C501 C500 1.383 . S
C501 C502 1.394 . S
C502 C501 1.394 . S
C502 C503 1.378 . S
C502 H530 0.931 . S
C503 C498 1.377 . S
C503 C502 1.378 . S
C503 H531 0.931 . S
C504 O518 1.259 . S
C504 O519 1.270 . S
C505 O520 1.251 . S
C505 O521 1.251 . S
C506 Eu507 2.835 . S
C506 C508 1.500 . S
C506 O522 1.257 . S
C506 O523 1.260 . S
Eu507 C506 2.835 . S
Eu507 O519 2.355 . S
Eu507 O521 2.374 . S
Eu507 O522 2.473 . S
Eu507 O523 2.480 . S
Eu507 O524 2.430 . S
Eu507 O525 2.670 . S
Eu507 O526 2.394 . S
C508 C506 1.500 . S
C508 C509 1.377 . S
C508 C513 1.377 . S
C509 C508 1.377 . S
C509 C510 1.395 . S
C509 H532 0.931 . S
C510 C509 1.395 . S
C510 C511 1.383 . S
C510 H533 0.931 . S
C511 C510 1.383 . S
C511 C512 1.394 . S
C512 C511 1.394 . S
C512 C513 1.378 . S
C512 H534 0.931 . S
C513 C508 1.377 . S
C513 C512 1.378 . S
C513 H535 0.931 . S
C514 O524 1.259 . S
C514 O525 1.270 . S
C515 O526 1.251 . S
C515 O527 1.251 . S
O516 C496 1.257 . S
O516 Eu497 2.473 . S
O517 C496 1.260 . S
O517 Eu497 2.480 . S
O518 Eu497 2.430 . S
O518 C504 1.259 . S
O519 Eu497 2.670 . S
O519 C504 1.270 . S
O519 Eu507 2.355 . S
O520 Eu497 2.394 . S
O520 C505 1.251 . S
O521 C505 1.251 . S
O521 Eu507 2.374 . S
O522 C506 1.257 . S
O522 Eu507 2.473 . S
O523 C506 1.260 . S
O523 Eu507 2.480 . S
O524 Eu507 2.430 . S
O524 C514 1.259 . S
O525 Eu497 2.355 . S
O525 Eu507 2.670 . S
O525 C514 1.270 . S
O526 Eu507 2.394 . S
O526 C515 1.251 . S
O527 Eu497 2.374 . S
O527 C515 1.251 . S
H528 C499 0.931 . S
H529 C500 0.931 . S
H530 C502 0.931 . S
H531 C503 0.931 . S
H532 C509 0.931 . S
H533 C510 0.931 . S
H534 C512 0.931 . S
H535 C513 0.931 . S
C536 Eu537 2.835 . S
C536 C538 1.500 . S
C536 O556 1.257 . S
C536 O557 1.260 . S
Eu537 C536 2.835 . S
Eu537 O556 2.473 . S
Eu537 O557 2.480 . S
Eu537 O558 2.430 . S
Eu537 O559 2.670 . S
Eu537 O560 2.394 . S
Eu537 O565 2.355 . S
Eu537 O567 2.374 . S
C538 C536 1.500 . S
C538 C539 1.377 . S
C538 C543 1.377 . S
C539 C538 1.377 . S
C539 C540 1.395 . S
C539 H568 0.931 . S
C540 C539 1.395 . S
C540 C541 1.383 . S
C540 H569 0.931 . S
C541 C540 1.383 . S
C541 C542 1.394 . S
C542 C541 1.394 . S
C542 C543 1.378 . S
C542 H570 0.931 . S
C543 C538 1.377 . S
C543 C542 1.378 . S
C543 H571 0.931 . S
C544 O558 1.259 . S
C544 O559 1.270 . S
C545 O560 1.251 . S
C545 O561 1.251 . S
C546 Eu547 2.835 . S
C546 C548 1.500 . S
C546 O562 1.257 . S
C546 O563 1.260 . S
Eu547 C546 2.835 . S
Eu547 O559 2.355 . S
Eu547 O561 2.374 . S
Eu547 O562 2.473 . S
Eu547 O563 2.480 . S
Eu547 O564 2.430 . S
Eu547 O565 2.670 . S
Eu547 O566 2.394 . S
C548 C546 1.500 . S
C548 C549 1.377 . S
C548 C553 1.377 . S
C549 C548 1.377 . S
C549 C550 1.395 . S
C549 H572 0.931 . S
C550 C549 1.395 . S
C550 C551 1.383 . S
C550 H573 0.931 . S
C551 C550 1.383 . S
C551 C552 1.394 . S
C552 C551 1.394 . S
C552 C553 1.378 . S
C552 H574 0.931 . S
C553 C548 1.377 . S
C553 C552 1.378 . S
C553 H575 0.931 . S
C554 O564 1.259 . S
C554 O565 1.270 . S
C555 O566 1.251 . S
C555 O567 1.251 . S
O556 C536 1.257 . S
O556 Eu537 2.473 . S
O557 C536 1.260 . S
O557 Eu537 2.480 . S
O558 Eu537 2.430 . S
O558 C544 1.259 . S
O559 Eu537 2.670 . S
O559 C544 1.270 . S
O559 Eu547 2.355 . S
O560 Eu537 2.394 . S
O560 C545 1.251 . S
O561 C545 1.251 . S
O561 Eu547 2.374 . S
O562 C546 1.257 . S
O562 Eu547 2.473 . S
O563 C546 1.260 . S
O563 Eu547 2.480 . S
O564 Eu547 2.430 . S
O564 C554 1.259 . S
O565 Eu537 2.355 . S
O565 Eu547 2.670 . S
O565 C554 1.270 . S
O566 Eu547 2.394 . S
O566 C555 1.251 . S
O567 Eu537 2.374 . S
O567 C555 1.251 . S
H568 C539 0.931 . S
H569 C540 0.931 . S
H570 C542 0.931 . S
H571 C543 0.931 . S
H572 C549 0.931 . S
H573 C550 0.931 . S
H574 C552 0.931 . S
H575 C553 0.931 . S
C576 C577 1.369 . S
C576 C578 1.419 . S
C576 H580 0.930 . S
C577 C576 1.369 . S
C577 C586 1.429 . S
C578 C576 1.419 . S
C578 C579 1.363 . S
C578 H581 0.929 . S
C579 C578 1.363 . S
C579 C585 1.428 . S
H580 C576 0.930 . S
H581 C578 0.929 . S
S582 N583 1.613 . S
S582 N584 1.610 . S
N583 S582 1.613 . S
N583 C586 1.350 1_556 S
N584 S582 1.610 . S
N584 C585 1.351 1_556 S
C585 C579 1.428 . S
C585 N584 1.351 1_554 S
C585 C586 1.434 . S
C586 C577 1.429 . S
C586 N583 1.350 1_554 S
C586 C585 1.434 . S
C587 C588 1.369 . S
C587 C589 1.419 . S
C587 H591 0.930 . S
C588 C587 1.369 . S
C588 C597 1.429 . S
C589 C587 1.419 . S
C589 C590 1.363 . S
C589 H592 0.929 . S
C590 C589 1.363 . S
C590 C596 1.428 . S
H591 C587 0.930 . S
H592 C589 0.929 . S
S593 N594 1.613 1_556 S
S593 N595 1.610 . S
N594 S593 1.613 1_554 S
N594 C597 1.350 . S
N595 S593 1.610 . S
N595 C596 1.351 1_556 S
C596 C590 1.428 . S
C596 N595 1.351 1_554 S
C596 C597 1.434 . S
C597 C588 1.429 . S
C597 N594 1.350 . S
C597 C596 1.434 . S
C598 C599 1.369 . S
C598 C600 1.419 . S
C598 H602 0.930 . S
C599 C598 1.369 . S
C599 C608 1.429 . S
C600 C598 1.419 . S
C600 C601 1.363 . S
C600 H603 0.929 . S
C601 C600 1.363 . S
C601 C607 1.451 . S
H602 C598 0.930 . S
H603 C600 0.929 . S
S604 N605 1.613 . S
S604 N606 1.610 . S
N605 S604 1.613 . S
N605 C608 1.350 1_556 S
N606 S604 1.610 . S
N606 C607 1.326 1_556 S
C607 C601 1.451 . S
C607 N606 1.326 1_554 S
C607 C608 1.436 . S
C608 C599 1.429 . S
C608 N605 1.350 1_554 S
C608 C607 1.436 . S
C609 C610 1.369 . S
C609 C611 1.419 . S
C609 H613 0.930 . S
C610 C609 1.369 . S
C610 C619 1.464 . S
C611 C609 1.419 . S
C611 C612 1.363 . S
C611 H614 0.929 . S
C612 C611 1.363 . S
C612 C618 1.428 1_556 S
H613 C609 0.930 . S
H614 C611 0.929 . S
S615 N616 1.613 . S
S615 N617 1.610 . S
N616 S615 1.613 . S
N616 C619 1.317 1_554 S
N617 S615 1.610 . S
N617 C618 1.351 . S
C618 C612 1.428 1_554 S
C618 N617 1.351 . S
C618 C619 1.430 1_554 S
C619 C610 1.464 . S
C619 N616 1.317 1_556 S
C619 C618 1.430 1_556 S
C620 C621 1.369 . S
C620 C622 1.419 . S
C620 H624 0.930 . S
C621 C620 1.369 . S
C621 C630 1.429 . S
C622 C620 1.419 . S
C622 C623 1.363 . S
C622 H625 0.929 . S
C623 C622 1.363 . S
C623 C629 1.428 . S
H624 C620 0.930 . S
H625 C622 0.929 . S
S626 N627 1.613 . S
S626 N628 1.610 . S
N627 S626 1.613 . S
N627 C630 1.350 . S
N628 S626 1.610 . S
N628 C629 1.351 . S
C629 C623 1.428 . S
C629 N628 1.351 . S
C629 C630 1.434 . S
C630 C621 1.429 . S
C630 N627 1.350 . S
C630 C629 1.434 . S
C631 C632 1.369 . S
C631 C633 1.419 . S
C631 H635 0.930 . S
C632 C631 1.369 . S
C632 C641 1.429 . S
C633 C631 1.419 . S
C633 C634 1.363 . S
C633 H636 0.929 . S
C634 C633 1.363 . S
C634 C640 1.428 1_556 S
H635 C631 0.930 . S
H636 C633 0.929 . S
S637 N638 1.613 . S
S637 N639 1.610 . S
N638 S637 1.613 . S
N638 C641 1.350 1_554 S
N639 S637 1.610 . S
N639 C640 1.351 . S
C640 C634 1.428 1_554 S
C640 N639 1.351 . S
C640 C641 1.434 1_554 S
C641 C632 1.429 . S
C641 N638 1.350 1_556 S
C641 C640 1.434 1_556 S
C642 C643 1.369 . S
C642 C644 1.409 1_556 S
C642 H646 0.930 1_556 S
C643 C642 1.369 . S
C643 C652 1.429 . S
C644 C642 1.409 1_554 S
C644 C645 1.339 1_554 S
C644 H647 0.965 . S
C645 C644 1.339 1_556 S
C645 C651 1.428 . S
H646 C642 0.930 1_554 S
H647 C644 0.965 . S
S648 N649 1.613 . S
S648 N650 1.610 . S
N649 S648 1.613 . S
N649 C652 1.350 . S
N650 S648 1.610 . S
N650 C651 1.351 . S
C651 C645 1.428 . S
C651 N650 1.351 . S
C651 C652 1.434 . S
C652 C643 1.429 . S
C652 N649 1.350 . S
C652 C651 1.434 . S
C653 C654 1.369 . S
C653 C655 1.419 . S
C653 H657 0.930 . S
C654 C653 1.369 . S
C654 C663 1.429 . S
C655 C653 1.419 . S
C655 C656 1.363 . S
C655 H658 0.929 . S
C656 C655 1.363 . S
C656 C662 1.428 . S
H657 C653 0.930 . S
H658 C655 0.929 . S
S659 N660 1.613 . S
S659 N661 1.610 . S
N660 S659 1.613 . S
N660 C663 1.350 . S
N661 S659 1.610 . S
N661 C662 1.351 . S
C662 C656 1.428 . S
C662 N661 1.351 . S
C662 C663 1.434 . S
C663 C654 1.429 . S
C663 N660 1.350 . S
C663 C662 1.434 . S
C664 C665 1.369 . S
C664 C666 1.419 . S
C664 H668 0.930 . S
C665 C664 1.369 . S
C665 C674 1.429 . S
C666 C664 1.419 . S
C666 C667 1.363 . S
C666 H669 0.929 . S
C667 C666 1.363 . S
C667 C673 1.428 . S
H668 C664 0.930 . S
H669 C666 0.929 . S
S670 N671 1.613 . S
S670 N672 1.610 . S
N671 S670 1.613 . S
N671 C674 1.350 . S
N672 S670 1.610 . S
N672 C673 1.351 . S
C673 C667 1.428 . S
C673 N672 1.351 . S
C673 C674 1.434 . S
C674 C665 1.429 . S
C674 N671 1.350 . S
C674 C673 1.434 . S
C675 C676 1.369 . S
C675 C677 1.419 . S
C675 H679 0.930 . S
C676 C675 1.369 . S
C676 C685 1.429 . S
C677 C675 1.419 . S
C677 C678 1.363 . S
C677 H680 0.929 . S
C678 C677 1.363 . S
C678 C684 1.428 . S
H679 C675 0.930 . S
H680 C677 0.929 . S
S681 N682 1.613 . S
S681 N683 1.610 . S
N682 S681 1.613 . S
N682 C685 1.350 . S
N683 S681 1.610 . S
N683 C684 1.351 . S
C684 C678 1.428 . S
C684 N683 1.351 . S
C684 C685 1.434 . S
C685 C676 1.429 . S
C685 N682 1.350 . S
C685 C684 1.434 . S
C686 C687 1.369 . S
C686 C688 1.419 . S
C686 H690 0.930 . S
C687 C686 1.369 . S
C687 C696 1.429 . S
C688 C686 1.419 . S
C688 C689 1.363 . S
C688 H691 0.929 . S
C689 C688 1.363 . S
C689 C695 1.428 . S
H690 C686 0.930 . S
H691 C688 0.929 . S
S692 N693 1.613 . S
S692 N694 1.610 . S
N693 S692 1.613 . S
N693 C696 1.350 . S
N694 S692 1.610 . S
N694 C695 1.351 . S
C695 C689 1.428 . S
C695 N694 1.351 . S
C695 C696 1.434 . S
C696 C687 1.429 . S
C696 N693 1.350 . S
C696 C695 1.434 . S
C697 C698 1.369 . S
C697 C699 1.419 . S
C697 H701 0.930 . S
C698 C697 1.369 . S
C698 C707 1.429 . S
C699 C697 1.419 . S
C699 C700 1.363 . S
C699 H702 0.929 . S
C700 C699 1.363 . S
C700 C706 1.428 . S
H701 C697 0.930 . S
H702 C699 0.929 . S
S703 N704 1.613 . S
S703 N705 1.610 . S
N704 S703 1.613 . S
N704 C707 1.350 . S
N705 S703 1.610 . S
N705 C706 1.351 . S
C706 C700 1.428 . S
C706 N705 1.351 . S
C706 C707 1.434 . S
C707 C698 1.429 . S
C707 N704 1.350 . S
C707 C706 1.434 . S
C708 C709 1.369 . S
C708 C710 1.419 1_655 S
C708 H712 0.930 . S
C709 C708 1.369 . S
C709 C718 1.429 . S
C710 C708 1.419 1_455 S
C710 C711 1.363 . S
C710 H713 0.929 . S
C711 C710 1.363 . S
C711 C717 1.428 1_455 S
H712 C708 0.930 . S
H713 C710 0.929 . S
S714 N715 1.613 . S
S714 N716 1.610 . S
N715 S714 1.613 . S
N715 C718 1.350 . S
N716 S714 1.610 . S
N716 C717 1.351 . S
C717 C711 1.428 1_655 S
C717 N716 1.351 . S
C717 C718 1.434 . S
C718 C709 1.429 . S
C718 N715 1.350 . S
C718 C717 1.434 . S
C719 C720 1.369 . S
C719 C721 1.419 . S
C719 H723 0.930 . S
C720 C719 1.369 . S
C720 C729 1.429 . S
C721 C719 1.419 . S
C721 C722 1.363 . S
C721 H724 0.929 . S
C722 C721 1.363 . S
C722 C728 1.428 . S
H723 C719 0.930 . S
H724 C721 0.929 . S
S725 N726 1.613 . S
S725 N727 1.610 . S
N726 S725 1.613 . S
N726 C729 1.350 . S
N727 S725 1.610 . S
N727 C728 1.351 . S
C728 C722 1.428 . S
C728 N727 1.351 . S
C728 C729 1.434 . S
C729 C720 1.429 . S
C729 N726 1.350 . S
C729 C728 1.434 . S
C730 C731 1.369 . S
C730 C732 1.419 . S
C730 H734 0.930 . S
C731 C730 1.369 . S
C731 C740 1.429 . S
C732 C730 1.419 . S
C732 C733 1.363 1_545 S
C732 H735 0.929 1_545 S
C733 C732 1.363 1_565 S
C733 C739 1.428 1_565 S
H734 C730 0.930 . S
H735 C732 0.929 1_565 S
S736 N737 1.613 . S
S736 N738 1.610 . S
N737 S736 1.613 . S
N737 C740 1.350 . S
N738 S736 1.610 . S
N738 C739 1.351 . S
C739 C733 1.428 1_545 S
C739 N738 1.351 . S
C739 C740 1.434 . S
C740 C731 1.429 . S
C740 N737 1.350 . S
C740 C739 1.434 . S
C741 C742 1.369 . S
C741 C743 1.419 . S
C741 H745 0.930 . S
C742 C741 1.369 . S
C742 C751 1.429 . S
C743 C741 1.419 . S
C743 C744 1.363 . S
C743 H746 0.929 . S
C744 C743 1.363 . S
C744 C750 1.428 . S
H745 C741 0.930 . S
H746 C743 0.929 . S
S747 N748 1.613 . S
S747 N749 1.610 . S
N748 S747 1.613 . S
N748 C751 1.350 . S
N749 S747 1.610 . S
N749 C750 1.351 . S
C750 C744 1.428 . S
C750 N749 1.351 . S
C750 C751 1.434 . S
C751 C742 1.429 . S
C751 N748 1.350 . S
C751 C750 1.434 . S
C752 C753 1.369 . S
C752 C754 1.419 . S
C752 H756 0.930 . S
C753 C752 1.369 . S
C753 C762 1.429 . S
C754 C752 1.419 . S
C754 C755 1.363 . S
C754 H757 0.929 . S
C755 C754 1.363 . S
C755 C761 1.428 . S
H756 C752 0.930 . S
H757 C754 0.929 . S
S758 N759 1.613 1_545 S
S758 N760 1.610 1_545 S
N759 S758 1.613 1_565 S
N759 C762 1.350 . S
N760 S758 1.610 1_565 S
N760 C761 1.351 . S
C761 C755 1.428 . S
C761 N760 1.351 . S
C761 C762 1.434 . S
C762 C753 1.429 . S
C762 N759 1.350 . S
C762 C761 1.434 . S
C763 C764 1.369 . S
C763 C765 1.419 . S
C763 H767 0.930 . S
C764 C763 1.369 . S
C764 C773 1.429 . S
C765 C763 1.419 . S
C765 C766 1.363 . S
C765 H768 0.929 . S
C766 C765 1.363 . S
C766 C772 1.428 . S
H767 C763 0.930 . S
H768 C765 0.929 . S
S769 N770 1.613 . S
S769 N771 1.610 . S
N770 S769 1.613 . S
N770 C773 1.350 . S
N771 S769 1.610 . S
N771 C772 1.351 . S
C772 C766 1.428 . S
C772 N771 1.351 . S
C772 C773 1.434 . S
C773 C764 1.429 . S
C773 N770 1.350 . S
C773 C772 1.434 . S
C774 C775 1.369 . S
C774 C776 1.419 . S
C774 H778 0.930 . S
C775 C774 1.369 . S
C775 C784 1.429 . S
C776 C774 1.419 . S
C776 C777 1.363 . S
C776 H779 0.929 . S
C777 C776 1.363 . S
C777 C783 1.428 . S
H778 C774 0.930 . S
H779 C776 0.929 . S
S780 N781 1.613 . S
S780 N782 1.610 . S
N781 S780 1.613 . S
N781 C784 1.350 . S
N782 S780 1.610 . S
N782 C783 1.351 . S
C783 C777 1.428 . S
C783 N782 1.351 . S
C783 C784 1.434 . S
C784 C775 1.429 . S
C784 N781 1.350 . S
C784 C783 1.434 . S
C785 C786 1.369 . S
C785 C787 1.419 . S
C785 H789 0.930 . S
C786 C785 1.369 . S
C786 C795 1.429 . S
C787 C785 1.419 . S
C787 C788 1.363 . S
C787 H790 0.929 . S
C788 C787 1.363 . S
C788 C794 1.428 . S
H789 C785 0.930 . S
H790 C787 0.929 . S
S791 N792 1.613 . S
S791 N793 1.610 . S
N792 S791 1.613 . S
N792 C795 1.350 . S
N793 S791 1.610 . S
N793 C794 1.351 . S
C794 C788 1.428 . S
C794 N793 1.351 . S
C794 C795 1.434 . S
C795 C786 1.429 . S
C795 N792 1.350 . S
C795 C794 1.434 . S
C796 C797 1.369 . S
C796 C798 1.419 . S
C796 H800 0.930 . S
C797 C796 1.369 . S
C797 C806 1.429 . S
C798 C796 1.419 . S
C798 C799 1.363 . S
C798 H801 0.929 . S
C799 C798 1.363 . S
C799 C805 1.428 . S
H800 C796 0.930 . S
H801 C798 0.929 . S
S802 N803 1.613 . S
S802 N804 1.610 . S
N803 S802 1.613 . S
N803 C806 1.350 . S
N804 S802 1.610 . S
N804 C805 1.351 . S
C805 C799 1.428 . S
C805 N804 1.351 . S
C805 C806 1.434 . S
C806 C797 1.429 . S
C806 N803 1.350 . S
C806 C805 1.434 . S
C807 C808 1.369 1_565 S
C807 C809 1.419 . S
C807 H811 0.930 . S
C808 C807 1.369 1_545 S
C808 C817 1.429 1_545 S
C809 C807 1.419 . S
C809 C810 1.363 . S
C809 H812 0.929 . S
C810 C809 1.363 . S
C810 C816 1.428 . S
H811 C807 0.930 . S
H812 C809 0.929 . S
S813 N814 1.613 . S
S813 N815 1.610 . S
N814 S813 1.613 . S
N814 C817 1.350 . S
N815 S813 1.610 . S
N815 C816 1.351 . S
C816 C810 1.428 . S
C816 N815 1.351 . S
C816 C817 1.434 . S
C817 C808 1.429 1_565 S
C817 N814 1.350 . S
C817 C816 1.434 . S
C818 C819 1.369 . S
C818 C820 1.419 . S
C818 H822 0.930 . S
C819 C818 1.369 . S
C819 C828 1.429 . S
C820 C818 1.419 . S
C820 C821 1.363 . S
C820 H823 0.929 . S
C821 C820 1.363 . S
C821 C827 1.428 . S
H822 C818 0.930 . S
H823 C820 0.929 . S
S824 N825 1.613 . S
S824 N826 1.610 . S
N825 S824 1.613 . S
N825 C828 1.350 . S
N826 S824 1.610 . S
N826 C827 1.351 . S
C827 C821 1.428 . S
C827 N826 1.351 . S
C827 C828 1.434 . S
C828 C819 1.429 . S
C828 N825 1.350 . S
C828 C827 1.434 . S
C829 C830 1.369 . S
C829 C831 1.419 . S
C829 H833 0.930 . S
C830 C829 1.369 . S
C830 C839 1.429 . S
C831 C829 1.419 . S
C831 C832 1.363 . S
C831 H834 0.929 . S
C832 C831 1.363 . S
C832 C838 1.428 . S
H833 C829 0.930 . S
H834 C831 0.929 . S
S835 N836 1.613 . S
S835 N837 1.610 . S
N836 S835 1.613 . S
N836 C839 1.350 . S
N837 S835 1.610 . S
N837 C838 1.351 . S
C838 C832 1.428 . S
C838 N837 1.351 . S
C838 C839 1.434 . S
C839 C830 1.429 . S
C839 N836 1.350 . S
C839 C838 1.434 . S
C840 C841 1.369 . S
C840 C842 1.419 . S
C840 H844 0.930 . S
C841 C840 1.369 . S
C841 C850 1.429 . S
C842 C840 1.419 . S
C842 C843 1.363 . S
C842 H845 0.929 . S
C843 C842 1.363 . S
C843 C849 1.428 . S
H844 C840 0.930 . S
H845 C842 0.929 . S
S846 N847 1.613 . S
S846 N848 1.610 . S
N847 S846 1.613 . S
N847 C850 1.350 . S
N848 S846 1.610 . S
N848 C849 1.351 . S
C849 C843 1.428 . S
C849 N848 1.351 . S
C849 C850 1.434 . S
C850 C841 1.429 . S
C850 N847 1.350 . S
C850 C849 1.434 . S
C851 C852 1.369 . S
C851 C853 1.419 . S
C851 H855 0.930 . S
C852 C851 1.369 . S
C852 C861 1.429 . S
C853 C851 1.419 . S
C853 C854 1.363 . S
C853 H856 0.929 . S
C854 C853 1.363 . S
C854 C860 1.428 . S
H855 C851 0.930 . S
H856 C853 0.929 . S
S857 N858 1.613 . S
S857 N859 1.610 . S
N858 S857 1.613 . S
N858 C861 1.350 . S
N859 S857 1.610 . S
N859 C860 1.351 . S
C860 C854 1.428 . S
C860 N859 1.351 . S
C860 C861 1.434 . S
C861 C852 1.429 . S
C861 N858 1.350 . S
C861 C860 1.434 . S
C862 C863 1.369 . S
C862 C864 1.419 . S
C862 H866 0.930 . S
C863 C862 1.369 . S
C863 C872 1.429 . S
C864 C862 1.419 . S
C864 C865 1.363 . S
C864 H867 0.929 . S
C865 C864 1.363 . S
C865 C871 1.428 . S
H866 C862 0.930 . S
H867 C864 0.929 . S
S868 N869 1.613 1_455 S
S868 N870 1.610 1_455 S
N869 S868 1.613 1_655 S
N869 C872 1.350 . S
N870 S868 1.610 1_655 S
N870 C871 1.351 . S
C871 C865 1.428 . S
C871 N870 1.351 . S
C871 C872 1.434 . S
C872 C863 1.429 . S
C872 N869 1.350 . S
C872 C871 1.434 . S
C873 C874 1.369 . S
C873 C875 1.419 . S
C873 H877 0.930 . S
C874 C873 1.369 . S
C874 C883 1.429 . S
C875 C873 1.419 . S
C875 C876 1.363 1_565 S
C875 H878 0.924 . S
C876 C875 1.363 1_545 S
C876 C882 1.428 . S
H877 C873 0.930 . S
H878 C875 0.924 . S
S879 N880 1.613 1_545 S
S879 N881 1.610 . S
N880 S879 1.613 1_565 S
N880 C883 1.350 . S
N881 S879 1.610 . S
N881 C882 1.351 . S
C882 C876 1.428 . S
C882 N881 1.351 . S
C882 C883 1.434 1_545 S
C883 C874 1.429 . S
C883 N880 1.350 . S
C883 C882 1.434 1_565 S
C884 C885 1.369 . S
C884 C886 1.419 1_455 S
C884 H888 0.930 . S
C885 C884 1.369 . S
C885 C894 1.429 . S
C886 C884 1.419 1_655 S
C886 C887 1.363 . S
C886 H889 0.929 . S
C887 C886 1.363 . S
C887 C893 1.428 . S
H888 C884 0.930 . S
H889 C886 0.929 . S
S890 N891 1.613 . S
S890 N892 1.610 1_455 S
N891 S890 1.613 . S
N891 C894 1.350 . S
N892 S890 1.610 1_655 S
N892 C893 1.351 . S
C893 C887 1.428 . S
C893 N892 1.351 . S
C893 C894 1.434 1_655 S
C894 C885 1.429 . S
C894 N891 1.350 . S
C894 C893 1.434 1_455 S
C895 C896 1.369 . S
C895 C897 1.419 . S
C895 H899 0.930 . S
C896 C895 1.369 . S
C896 C905 1.429 . S
C897 C895 1.419 . S
C897 C898 1.363 . S
C897 H900 0.929 . S
C898 C897 1.363 . S
C898 C904 1.428 . S
H899 C895 0.930 . S
H900 C897 0.929 . S
S901 N902 1.613 . S
S901 N903 1.610 . S
N902 S901 1.613 . S
N902 C905 1.350 . S
N903 S901 1.610 . S
N903 C904 1.351 . S
C904 C898 1.428 . S
C904 N903 1.351 . S
C904 C905 1.434 . S
C905 C896 1.429 . S
C905 N902 1.350 . S
C905 C904 1.434 . S
C906 C907 1.389 . S
C906 C908 1.419 . S
C906 H910 0.930 . S
C907 C906 1.389 . S
C907 C916 1.432 . S
C908 C906 1.419 . S
C908 C909 1.363 . S
C908 H911 0.929 . S
C909 C908 1.363 . S
C909 C915 1.428 . S
H910 C906 0.930 . S
H911 C908 0.929 . S
S912 N913 1.613 . S
S912 N914 1.610 . S
N913 S912 1.613 . S
N913 C916 1.350 . S
N914 S912 1.610 . S
N914 C915 1.351 . S
C915 C909 1.428 . S
C915 N914 1.351 . S
C915 C916 1.434 . S
C916 C907 1.432 . S
C916 N913 1.350 . S
C916 C915 1.434 . S
C917 C918 1.369 . S
C917 C919 1.419 . S
C917 H921 0.930 . S
C918 C917 1.369 . S
C918 C927 1.429 . S
C919 C917 1.419 . S
C919 C920 1.363 . S
C919 H922 0.929 . S
C920 C919 1.363 . S
C920 C926 1.428 . S
H921 C917 0.930 . S
H922 C919 0.929 . S
S923 N924 1.613 . S
S923 N925 1.610 . S
N924 S923 1.613 . S
N924 C927 1.350 . S
N925 S923 1.610 . S
N925 C926 1.351 . S
C926 C920 1.428 . S
C926 N925 1.351 . S
C926 C927 1.434 . S
C927 C918 1.429 . S
C927 N924 1.350 . S
C927 C926 1.434 . S
C928 C929 1.369 . S
C928 C930 1.419 . S
C928 H932 0.930 . S
C929 C928 1.369 . S
C929 C938 1.429 . S
C930 C928 1.419 . S
C930 C931 1.363 . S
C930 H933 0.929 . S
C931 C930 1.363 . S
C931 C937 1.428 . S
H932 C928 0.930 . S
H933 C930 0.929 . S
S934 N935 1.613 . S
S934 N936 1.610 . S
N935 S934 1.613 . S
N935 C938 1.350 . S
N936 S934 1.610 . S
N936 C937 1.351 . S
C937 C931 1.428 . S
C937 N936 1.351 . S
C937 C938 1.434 . S
C938 C929 1.429 . S
C938 N935 1.350 . S
C938 C937 1.434 . S
C939 C940 1.369 . S
C939 C941 1.419 . S
C939 H943 0.930 . S
C940 C939 1.369 . S
C940 C949 1.429 . S
C941 C939 1.419 . S
C941 C942 1.363 . S
C941 H944 0.929 . S
C942 C941 1.363 . S
C942 C948 1.428 . S
H943 C939 0.930 . S
H944 C941 0.929 . S
S945 N946 1.613 . S
S945 N947 1.610 . S
N946 S945 1.613 . S
N946 C949 1.350 . S
N947 S945 1.610 . S
N947 C948 1.351 . S
C948 C942 1.428 . S
C948 N947 1.351 . S
C948 C949 1.434 . S
C949 C940 1.429 . S
C949 N946 1.350 . S
C949 C948 1.434 . S
C950 C951 1.369 . S
C950 C952 1.419 . S
C950 H954 0.930 . S
C951 C950 1.369 . S
C951 C960 1.429 . S
C952 C950 1.419 . S
C952 C953 1.363 . S
C952 H955 0.929 . S
C953 C952 1.363 . S
C953 C959 1.428 . S
H954 C950 0.930 . S
H955 C952 0.929 . S
S956 N957 1.613 . S
S956 N958 1.610 . S
N957 S956 1.613 . S
N957 C960 1.350 . S
N958 S956 1.610 . S
N958 C959 1.351 . S
C959 C953 1.428 . S
C959 N958 1.351 . S
C959 C960 1.434 . S
C960 C951 1.429 . S
C960 N957 1.350 . S
C960 C959 1.434 . S
C961 C962 1.369 . S
C961 C963 1.419 . S
C961 H965 0.930 . S
C962 C961 1.369 . S
C962 C971 1.429 . S
C963 C961 1.419 . S
C963 C964 1.363 . S
C963 H966 0.929 . S
C964 C963 1.363 . S
C964 C970 1.428 . S
H965 C961 0.930 . S
H966 C963 0.929 . S
S967 N968 1.613 . S
S967 N969 1.610 . S
N968 S967 1.613 . S
N968 C971 1.350 . S
N969 S967 1.610 . S
N969 C970 1.351 . S
C970 C964 1.428 . S
C970 N969 1.351 . S
C970 C971 1.434 . S
C971 C962 1.429 . S
C971 N968 1.350 . S
C971 C970 1.434 . S
C972 C973 1.369 . S
C972 C974 1.419 . S
C972 H976 0.930 . S
C973 C972 1.369 . S
C973 C982 1.429 . S
C974 C972 1.419 . S
C974 C975 1.363 . S
C974 H977 0.929 . S
C975 C974 1.363 . S
C975 C981 1.428 . S
H976 C972 0.930 . S
H977 C974 0.929 . S
S978 N979 1.613 1_545 S
S978 N980 1.610 1_545 S
N979 S978 1.613 1_565 S
N979 C982 1.350 . S
N980 S978 1.610 1_565 S
N980 C981 1.351 . S
C981 C975 1.428 . S
C981 N980 1.351 . S
C981 C982 1.434 . S
C982 C973 1.429 . S
C982 N979 1.350 . S
C982 C981 1.434 . S
C983 C984 1.369 . S
C983 C985 1.419 . S
C983 H987 0.930 . S
C984 C983 1.369 . S
C984 C993 1.429 . S
C985 C983 1.419 . S
C985 C986 1.363 . S
C985 H988 0.929 . S
C986 C985 1.363 . S
C986 C992 1.428 . S
H987 C983 0.930 . S
H988 C985 0.929 . S
S989 N990 1.613 . S
S989 N991 1.610 . S
N990 S989 1.613 . S
N990 C993 1.350 1_655 S
N991 S989 1.610 . S
N991 C992 1.351 1_655 S
C992 C986 1.428 . S
C992 N991 1.351 1_455 S
C992 C993 1.434 . S
C993 C984 1.429 . S
C993 N990 1.350 1_455 S
C993 C992 1.434 . S
C994 C995 1.369 . S
C994 C996 1.419 . S
C994 H998 0.930 . S
C995 C994 1.369 . S
C995 C1004 1.429 . S
C996 C994 1.419 . S
C996 C997 1.363 . S
C996 H999 0.929 . S
C997 C996 1.363 . S
C997 C1003 1.428 . S
H998 C994 0.930 . S
H999 C996 0.929 . S
S1000 N1001 1.613 . S
S1000 N1002 1.610 . S
N1001 S1000 1.613 . S
N1001 C1004 1.350 . S
N1002 S1000 1.610 . S
N1002 C1003 1.351 . S
C1003 C997 1.428 . S
C1003 N1002 1.351 . S
C1003 C1004 1.434 . S
C1004 C995 1.429 . S
C1004 N1001 1.350 . S
C1004 C1003 1.434 . S
C1005 C1006 1.369 . S
C1005 C1007 1.419 . S
C1005 H1009 0.930 . S
C1006 C1005 1.369 . S
C1006 C1015 1.429 . S
C1007 C1005 1.419 . S
C1007 C1008 1.363 . S
C1007 H1010 0.929 . S
C1008 C1007 1.363 . S
C1008 C1014 1.428 . S
H1009 C1005 0.930 . S
H1010 C1007 0.929 . S
S1011 N1012 1.613 . S
S1011 N1013 1.610 . S
N1012 S1011 1.613 . S
N1012 C1015 1.350 . S
N1013 S1011 1.610 . S
N1013 C1014 1.351 . S
C1014 C1008 1.428 . S
C1014 N1013 1.351 . S
C1014 C1015 1.434 . S
C1015 C1006 1.429 . S
C1015 N1012 1.350 . S
C1015 C1014 1.434 . S
C1016 C1017 1.369 . S
C1016 C1018 1.419 . S
C1016 H1020 0.930 . S
C1017 C1016 1.369 . S
C1017 C1026 1.429 . S
C1018 C1016 1.419 . S
C1018 C1019 1.363 . S
C1018 H1021 0.929 . S
C1019 C1018 1.363 . S
C1019 C1025 1.428 . S
H1020 C1016 0.930 . S
H1021 C1018 0.929 . S
S1022 N1023 1.613 . S
S1022 N1024 1.610 . S
N1023 S1022 1.613 . S
N1023 C1026 1.350 . S
N1024 S1022 1.610 . S
N1024 C1025 1.351 . S
C1025 C1019 1.428 . S
C1025 N1024 1.351 . S
C1025 C1026 1.434 . S
C1026 C1017 1.429 . S
C1026 N1023 1.350 . S
C1026 C1025 1.434 . S
C1027 C1028 1.369 . S
C1027 C1029 1.419 . S
C1027 H1031 0.930 . S
C1028 C1027 1.369 . S
C1028 C1037 1.429 . S
C1029 C1027 1.419 . S
C1029 C1030 1.363 . S
C1029 H1032 0.929 . S
C1030 C1029 1.363 . S
C1030 C1036 1.428 . S
H1031 C1027 0.930 . S
H1032 C1029 0.929 . S
S1033 N1034 1.613 1_565 S
S1033 N1035 1.610 1_565 S
N1034 S1033 1.613 1_545 S
N1034 C1037 1.350 . S
N1035 S1033 1.610 1_545 S
N1035 C1036 1.351 . S
C1036 C1030 1.428 . S
C1036 N1035 1.351 . S
C1036 C1037 1.434 . S
C1037 C1028 1.429 . S
C1037 N1034 1.350 . S
C1037 C1036 1.434 . S
C1038 C1039 1.369 . S
C1038 C1040 1.419 . S
C1038 H1042 0.930 . S
C1039 C1038 1.369 . S
C1039 C1048 1.429 . S
C1040 C1038 1.419 . S
C1040 C1041 1.363 . S
C1040 H1043 0.929 . S
C1041 C1040 1.363 . S
C1041 C1047 1.428 . S
H1042 C1038 0.930 . S
H1043 C1040 0.929 . S
S1044 N1045 1.613 . S
S1044 N1046 1.610 . S
N1045 S1044 1.613 . S
N1045 C1048 1.350 . S
N1046 S1044 1.610 . S
N1046 C1047 1.351 . S
C1047 C1041 1.428 . S
C1047 N1046 1.351 . S
C1047 C1048 1.434 . S
C1048 C1039 1.429 . S
C1048 N1045 1.350 . S
C1048 C1047 1.434 . S
C1049 C1050 1.369 . S
C1049 C1051 1.419 . S
C1049 H1053 0.930 . S
C1050 C1049 1.369 . S
C1050 C1059 1.429 . S
C1051 C1049 1.419 . S
C1051 C1052 1.363 . S
C1051 H1054 0.929 . S
C1052 C1051 1.363 . S
C1052 C1058 1.428 . S
H1053 C1049 0.930 . S
H1054 C1051 0.929 . S
S1055 N1056 1.613 . S
S1055 N1057 1.610 . S
N1056 S1055 1.613 . S
N1056 C1059 1.350 . S
N1057 S1055 1.610 . S
N1057 C1058 1.351 . S
C1058 C1052 1.428 . S
C1058 N1057 1.351 . S
C1058 C1059 1.434 . S
C1059 C1050 1.429 . S
C1059 N1056 1.350 . S
C1059 C1058 1.434 . S
C1060 C1061 1.369 . S
C1060 C1062 1.419 . S
C1060 H1064 0.930 . S
C1061 C1060 1.369 . S
C1061 C1070 1.429 . S
C1062 C1060 1.419 . S
C1062 C1063 1.363 . S
C1062 H1065 0.929 . S
C1063 C1062 1.363 . S
C1063 C1069 1.428 . S
H1064 C1060 0.930 . S
H1065 C1062 0.929 . S
S1066 N1067 1.613 . S
S1066 N1068 1.610 . S
N1067 S1066 1.613 . S
N1067 C1070 1.350 . S
N1068 S1066 1.610 . S
N1068 C1069 1.351 . S
C1069 C1063 1.428 . S
C1069 N1068 1.351 . S
C1069 C1070 1.434 . S
C1070 C1061 1.429 . S
C1070 N1067 1.350 . S
C1070 C1069 1.434 . S
C1071 C1072 1.369 . S
C1071 C1073 1.419 . S
C1071 H1075 0.930 . S
C1072 C1071 1.369 . S
C1072 C1081 1.429 . S
C1073 C1071 1.419 . S
C1073 C1074 1.363 . S
C1073 H1076 0.929 . S
C1074 C1073 1.363 . S
C1074 C1080 1.428 . S
H1075 C1071 0.930 . S
H1076 C1073 0.929 . S
S1077 N1078 1.613 . S
S1077 N1079 1.610 . S
N1078 S1077 1.613 . S
N1078 C1081 1.350 . S
N1079 S1077 1.610 . S
N1079 C1080 1.351 . S
C1080 C1074 1.428 . S
C1080 N1079 1.351 . S
C1080 C1081 1.434 . S
C1081 C1072 1.429 . S
C1081 N1078 1.350 . S
C1081 C1080 1.434 . S
C1082 C1083 1.369 . S
C1082 C1084 1.419 . S
C1082 H1086 0.930 . S
C1083 C1082 1.369 . S
C1083 C1092 1.429 . S
C1084 C1082 1.419 . S
C1084 C1085 1.363 . S
C1084 H1087 0.929 . S
C1085 C1084 1.363 . S
C1085 C1091 1.428 . S
H1086 C1082 0.930 . S
H1087 C1084 0.929 . S
S1088 N1089 1.613 . S
S1088 N1090 1.610 . S
N1089 S1088 1.613 . S
N1089 C1092 1.350 . S
N1090 S1088 1.610 . S
N1090 C1091 1.351 . S
C1091 C1085 1.428 . S
C1091 N1090 1.351 . S
C1091 C1092 1.434 . S
C1092 C1083 1.429 . S
C1092 N1089 1.350 . S
C1092 C1091 1.434 . S
C1093 C1094 1.369 . S
C1093 C1095 1.419 . S
C1093 H1097 0.930 . S
C1094 C1093 1.369 . S
C1094 C1103 1.429 . S
C1095 C1093 1.419 . S
C1095 C1096 1.363 . S
C1095 H1098 0.929 . S
C1096 C1095 1.363 . S
C1096 C1102 1.428 . S
H1097 C1093 0.930 . S
H1098 C1095 0.929 . S
S1099 N1100 1.613 . S
S1099 N1101 1.610 . S
N1100 S1099 1.613 . S
N1100 C1103 1.350 . S
N1101 S1099 1.610 . S
N1101 C1102 1.351 . S
C1102 C1096 1.428 . S
C1102 N1101 1.351 . S
C1102 C1103 1.434 . S
C1103 C1094 1.429 . S
C1103 N1100 1.350 . S
C1103 C1102 1.434 . S
C1104 C1105 1.369 . S
C1104 C1106 1.419 . S
C1104 H1108 0.930 . S
C1105 C1104 1.369 . S
C1105 C1114 1.429 . S
C1106 C1104 1.419 . S
C1106 C1107 1.363 . S
C1106 H1109 0.929 . S
C1107 C1106 1.363 . S
C1107 C1113 1.428 . S
H1108 C1104 0.930 . S
H1109 C1106 0.929 . S
S1110 N1111 1.613 . S
S1110 N1112 1.610 . S
N1111 S1110 1.613 . S
N1111 C1114 1.350 . S
N1112 S1110 1.610 . S
N1112 C1113 1.351 . S
C1113 C1107 1.428 . S
C1113 N1112 1.351 . S
C1113 C1114 1.434 . S
C1114 C1105 1.429 . S
C1114 N1111 1.350 . S
C1114 C1113 1.434 . S
C1115 C1116 1.369 . S
C1115 C1117 1.419 . S
C1115 H1119 0.930 . S
C1116 C1115 1.369 . S
C1116 C1125 1.429 . S
C1117 C1115 1.419 . S
C1117 C1118 1.363 . S
C1117 H1120 0.929 . S
C1118 C1117 1.363 . S
C1118 C1124 1.428 . S
H1119 C1115 0.930 . S
H1120 C1117 0.929 . S
S1121 N1122 1.613 . S
S1121 N1123 1.610 . S
N1122 S1121 1.613 . S
N1122 C1125 1.350 . S
N1123 S1121 1.610 . S
N1123 C1124 1.351 . S
C1124 C1118 1.428 . S
C1124 N1123 1.351 . S
C1124 C1125 1.434 . S
C1125 C1116 1.429 . S
C1125 N1122 1.350 . S
C1125 C1124 1.434 . S
C1126 C1127 1.369 . S
C1126 C1128 1.419 . S
C1126 H1130 0.930 . S
C1127 C1126 1.369 . S
C1127 C1136 1.429 . S
C1128 C1126 1.419 . S
C1128 C1129 1.363 . S
C1128 H1131 0.929 . S
C1129 C1128 1.363 . S
C1129 C1135 1.428 . S
H1130 C1126 0.930 . S
H1131 C1128 0.929 . S
S1132 N1133 1.613 . S
S1132 N1134 1.610 . S
N1133 S1132 1.613 . S
N1133 C1136 1.350 . S
N1134 S1132 1.610 . S
N1134 C1135 1.351 . S
C1135 C1129 1.428 . S
C1135 N1134 1.351 . S
C1135 C1136 1.434 . S
C1136 C1127 1.429 . S
C1136 N1133 1.350 . S
C1136 C1135 1.434 . S
C1137 C1138 1.369 . S
C1137 C1139 1.419 . S
C1137 H1141 0.930 . S
C1138 C1137 1.369 . S
C1138 C1147 1.429 . S
C1139 C1137 1.419 . S
C1139 C1140 1.363 . S
C1139 H1142 0.929 . S
C1140 C1139 1.363 . S
C1140 C1146 1.428 . S
H1141 C1137 0.930 . S
H1142 C1139 0.929 . S
S1143 N1144 1.613 . S
S1143 N1145 1.610 . S
N1144 S1143 1.613 . S
N1144 C1147 1.350 . S
N1145 S1143 1.610 . S
N1145 C1146 1.351 . S
C1146 C1140 1.428 . S
C1146 N1145 1.351 . S
C1146 C1147 1.434 . S
C1147 C1138 1.429 . S
C1147 N1144 1.350 . S
C1147 C1146 1.434 . S
C1148 C1149 1.369 . S
C1148 C1150 1.419 . S
C1148 H1152 0.930 . S
C1149 C1148 1.369 . S
C1149 C1158 1.429 . S
C1150 C1148 1.419 . S
C1150 C1151 1.363 . S
C1150 H1153 0.929 . S
C1151 C1150 1.363 . S
C1151 C1157 1.428 . S
H1152 C1148 0.930 . S
H1153 C1150 0.929 . S
S1154 N1155 1.613 . S
S1154 N1156 1.610 . S
N1155 S1154 1.613 . S
N1155 C1158 1.350 . S
N1156 S1154 1.610 . S
N1156 C1157 1.351 . S
C1157 C1151 1.428 . S
C1157 N1156 1.351 . S
C1157 C1158 1.434 . S
C1158 C1149 1.429 . S
C1158 N1155 1.350 . S
C1158 C1157 1.434 . S
C1159 C1160 1.369 . S
C1159 C1161 1.419 . S
C1159 H1163 0.930 . S
C1160 C1159 1.369 . S
C1160 C1169 1.429 . S
C1161 C1159 1.419 . S
C1161 C1162 1.363 . S
C1161 H1164 0.929 . S
C1162 C1161 1.363 . S
C1162 C1168 1.428 . S
H1163 C1159 0.930 . S
H1164 C1161 0.929 . S
S1165 N1166 1.613 . S
S1165 N1167 1.610 . S
N1166 S1165 1.613 . S
N1166 C1169 1.350 . S
N1167 S1165 1.610 . S
N1167 C1168 1.351 . S
C1168 C1162 1.428 . S
C1168 N1167 1.351 . S
C1168 C1169 1.434 . S
C1169 C1160 1.429 . S
C1169 N1166 1.350 . S
C1169 C1168 1.434 . S
C577 C162 1.647 . S
C579 C225 1.642 . S
C588 C174 1.740 . S
C590 C265 1.732 . S
C599 C150 1.589 . S
C601 C304 1.551 . S
C610 C138 1.498 . S
C612 C264 1.448 . S
C623 C305 1.517 . S
C621 C114 1.519 . S
C632 C126 1.409 . S
C634 C224 1.386 1_556 S
C645 C235 1.619 . S
C643 C136 1.634 . S
C656 C275 1.604 . S
C654 C112 1.616 . S
C665 C124 1.625 . S
C667 C314 1.664 1_556 S
C676 C160 1.508 . S
C678 C274 1.531 . S
C687 C172 1.478 . S
C689 C315 1.457 . S
C700 C234 1.534 . S
C698 C148 1.492 . S
C711 C345 1.640 . S
C709 C18 1.649 . S
C720 C30 1.738 . S
C722 C385 1.733 . S
C731 C6 1.589 . S
C733 C424 1.557 . S
C742 C210 1.497 . S
C744 C384 1.447 . S
C753 C186 1.519 . S
C755 C425 1.516 . S
C764 C198 1.404 . S
C766 C344 1.387 . S
C775 C208 1.637 . S
C777 C355 1.616 . S
C786 C184 1.616 . S
C788 C395 1.607 . S
C799 C434 1.664 . S
C797 C196 1.630 . S
C808 C16 1.514 . S
C810 C394 1.526 . S
C821 C435 1.453 . S
C819 C28 1.481 1_455 S
C830 C4 1.493 . S
C832 C354 1.534 . S
C843 C465 1.642 . S
C841 C90 1.646 . S
C852 C102 1.740 . S
C854 C505 1.733 . S
C865 C544 1.556 . S
C863 C78 1.590 . S
C876 C504 1.452 . S
C874 C66 1.493 . S
C887 C545 1.517 . S
C885 C42 1.519 . S
C896 C54 1.405 . S
C898 C464 1.390 . S
C907 C64 1.620 1_655 S
C909 C475 1.615 . S
C918 C40 1.613 . S
C920 C515 1.607 . S
C931 C554 1.665 . S
C929 C52 1.625 1_545 S
C940 C88 1.510 . S
C942 C514 1.531 . S
C951 C100 1.478 . S
C953 C555 1.459 . S
C962 C76 1.492 . S
C964 C474 1.535 . S
C973 C189 1.609 . S
C975 C221 1.587 . S
C986 C261 1.898 . S
C984 C201 1.908 . S
C995 C213 1.562 . S
C997 C311 1.576 . S
C1006 C81 1.725 . S
C1008 C271 1.734 . S
C1017 C93 1.686 . S
C1019 C301 1.682 . S
C1030 C231 1.384 . S
C1028 C105 1.374 . S
C1039 C45 1.606 . S
C1041 C341 1.591 . S
C1050 C57 1.911 . S
C1052 C381 1.895 . S
C1061 C69 1.564 . S
C1063 C431 1.574 . S
C1072 C153 1.725 . S
C1074 C391 1.733 . S
C1085 C421 1.685 . S
C1083 C165 1.683 . S
C1094 C177 1.376 . S
C1096 C351 1.384 . S
C1105 C117 1.611 . S
C1107 C461 1.586 . S
C1116 C129 1.908 . S
C1118 C501 1.898 . S
C1129 C551 1.577 . S
C1127 C141 1.559 . S
C1138 C9 1.722 . S
C1140 C511 1.735 . S
C1149 C21 1.684 . S
C1151 C541 1.684 . S
C1160 C33 1.377 . S
C1162 C471 1.384 . S
