# Generated by pormake.
# Topology pto, (3,4)-cn, num edge types: 1
# Building blocks:
#     Node 0, Type 0, BuildingBlock: WUSLED_clean_sbu_0, # of connection points: 3
#     Node 1, Type 0, BuildingBlock: WUSLED_clean_sbu_0, # of connection points: 3
#     Node 2, Type 0, BuildingBlock: WUSLED_clean_sbu_0, # of connection points: 3
#     Node 3, Type 0, BuildingBlock: WUSLED_clean_sbu_0, # of connection points: 3
#     Node 4, Type 0, BuildingBlock: WUSLED_clean_sbu_0, # of connection points: 3
#     Node 5, Type 0, BuildingBlock: WUSLED_clean_sbu_0, # of connection points: 3
#     Node 6, Type 0, BuildingBlock: WUSLED_clean_sbu_0, # of connection points: 3
#     Node 7, Type 0, BuildingBlock: WUSLED_clean_sbu_0, # of connection points: 3
#     Node 8, Type 1, BuildingBlock: MIFKUJ_clean_linker_1, # of connection points: 4
#     Node 9, Type 1, BuildingBlock: MIFKUJ_clean_linker_1, # of connection points: 4
#     Node 10, Type 1, BuildingBlock: MIFKUJ_clean_linker_1, # of connection points: 4
#     Node 11, Type 1, BuildingBlock: MIFKUJ_clean_linker_1, # of connection points: 4
#     Node 12, Type 1, BuildingBlock: MIFKUJ_clean_linker_1, # of connection points: 4
#     Node 13, Type 1, BuildingBlock: MIFKUJ_clean_linker_1, # of connection points: 4
#     Edge 14, Type (0, 1), BuildingBlock: KIFKEQ_clean_linker_1, # of connection points: 2
#     Edge 15, Type (0, 1), BuildingBlock: KIFKEQ_clean_linker_1, # of connection points: 2
#     Edge 16, Type (0, 1), BuildingBlock: KIFKEQ_clean_linker_1, # of connection points: 2
#     Edge 17, Type (0, 1), BuildingBlock: KIFKEQ_clean_linker_1, # of connection points: 2
#     Edge 18, Type (0, 1), BuildingBlock: KIFKEQ_clean_linker_1, # of connection points: 2
#     Edge 19, Type (0, 1), BuildingBlock: KIFKEQ_clean_linker_1, # of connection points: 2
#     Edge 20, Type (0, 1), BuildingBlock: KIFKEQ_clean_linker_1, # of connection points: 2
#     Edge 21, Type (0, 1), BuildingBlock: KIFKEQ_clean_linker_1, # of connection points: 2
#     Edge 22, Type (0, 1), BuildingBlock: KIFKEQ_clean_linker_1, # of connection points: 2
#     Edge 23, Type (0, 1), BuildingBlock: KIFKEQ_clean_linker_1, # of connection points: 2
#     Edge 24, Type (0, 1), BuildingBlock: KIFKEQ_clean_linker_1, # of connection points: 2
#     Edge 25, Type (0, 1), BuildingBlock: KIFKEQ_clean_linker_1, # of connection points: 2
#     Edge 26, Type (0, 1), BuildingBlock: KIFKEQ_clean_linker_1, # of connection points: 2
#     Edge 27, Type (0, 1), BuildingBlock: KIFKEQ_clean_linker_1, # of connection points: 2
#     Edge 28, Type (0, 1), BuildingBlock: KIFKEQ_clean_linker_1, # of connection points: 2
#     Edge 29, Type (0, 1), BuildingBlock: KIFKEQ_clean_linker_1, # of connection points: 2
#     Edge 30, Type (0, 1), BuildingBlock: KIFKEQ_clean_linker_1, # of connection points: 2
#     Edge 31, Type (0, 1), BuildingBlock: KIFKEQ_clean_linker_1, # of connection points: 2
#     Edge 32, Type (0, 1), BuildingBlock: KIFKEQ_clean_linker_1, # of connection points: 2
#     Edge 33, Type (0, 1), BuildingBlock: KIFKEQ_clean_linker_1, # of connection points: 2
#     Edge 34, Type (0, 1), BuildingBlock: KIFKEQ_clean_linker_1, # of connection points: 2
#     Edge 35, Type (0, 1), BuildingBlock: KIFKEQ_clean_linker_1, # of connection points: 2
#     Edge 36, Type (0, 1), BuildingBlock: KIFKEQ_clean_linker_1, # of connection points: 2
#     Edge 37, Type (0, 1), BuildingBlock: KIFKEQ_clean_linker_1, # of connection points: 2
# Relax obj value: 0.001
# Max RMSD: 0.013
# Mean RMSD: 0.005
data_MOF--net-pto--node1-WUSLED_clean_sbu_0--node2-MIFKUJ_clean_linker_1--edge1-KIFKEQ_clean_linker_1
_symmetry_space_group_name_H-M    P1
_symmetry_Int_Tables_number       1
_symmetry_cell_setting            triclinic
loop_
_symmetry_equiv_pos_as_xyz
'x, y, z'
_cell_length_a     49.836965
_cell_length_b     73.506651
_cell_length_c     61.894414
_cell_angle_alpha  89.524416
_cell_angle_beta   90.676608
_cell_angle_gamma 90.591935
loop_
_atom_site_label
_atom_site_type_symbol
_atom_site_fract_x
_atom_site_fract_y
_atom_site_fract_z
_atom_type_partial_charge
C0 C 0.23624 0.23264 0.34942 0.0
C1 C 0.24805 0.21708 0.34081 0.0
C2 C 0.24012 0.20041 0.37441 0.0
C3 C 0.24992 0.2011 0.35316 0.0
C4 C 0.22855 0.21615 0.38299 0.0
C5 C 0.22662 0.23209 0.37059 0.0
U6 U 0.25642 0.26229 0.30139 0.0
O7 O 0.23175 0.27888 0.2792 0.0
O8 O 0.26331 0.29183 0.29898 0.0
C9 C 0.24314 0.29421 0.2854 0.0
C10 C 0.23386 0.24949 0.33656 0.0
C11 C 0.22468 0.30906 0.29035 0.0
C12 C 0.19795 0.32628 0.31551 0.0
C13 C 0.21516 0.31179 0.31133 0.0
C14 C 0.19937 0.33521 0.27777 0.0
C15 C 0.18985 0.33816 0.29875 0.0
C16 C 0.2166 0.32082 0.27365 0.0
C17 C 0.30903 0.24533 0.2622 0.0
C18 C 0.33163 0.26469 0.23591 0.0
C19 C 0.33424 0.23191 0.23313 0.0
C20 C 0.31835 0.22997 0.25149 0.0
C21 C 0.34124 0.24929 0.22516 0.0
C22 C 0.31559 0.26272 0.25422 0.0
C23 C 0.29249 0.24295 0.28159 0.0
O24 O 0.25509 0.26025 0.33688 0.0
O25 O 0.22327 0.24759 0.31714 0.0
O26 O 0.26658 0.24109 0.278 0.0
O27 O 0.29828 0.25385 0.29776 0.0
H28 H 0.25568 0.21728 0.32448 0.0
H29 H 0.25866 0.18922 0.34593 0.0
H30 H 0.22122 0.21623 0.39938 0.0
H31 H 0.2176 0.24401 0.37754 0.0
H32 H 0.19078 0.32807 0.3318 0.0
H33 H 0.22107 0.30277 0.32443 0.0
H34 H 0.19387 0.34423 0.26456 0.0
H35 H 0.22379 0.31893 0.25737 0.0
H36 H 0.33681 0.27828 0.2304 0.0
H37 H 0.34082 0.21975 0.22507 0.0
H38 H 0.3133 0.21643 0.25733 0.0
H39 H 0.30847 0.27478 0.26222 0.0
C40 C 0.23757 0.80118 0.67339 0.0
C41 C 0.24332 0.81795 0.68322 0.0
C42 C 0.24127 0.83337 0.64818 0.0
C43 C 0.24502 0.83389 0.67076 0.0
C44 C 0.23591 0.81645 0.63842 0.0
C45 C 0.23402 0.80055 0.65092 0.0
U46 U 0.25824 0.77166 0.7216 0.0
O47 O 0.23385 0.75496 0.74379 0.0
O48 O 0.26482 0.74219 0.72422 0.0
C49 C 0.24508 0.73972 0.73788 0.0
C50 C 0.23524 0.78428 0.68628 0.0
C51 C 0.22664 0.72442 0.73338 0.0
C52 C 0.19956 0.70601 0.70879 0.0
C53 C 0.2162 0.72118 0.71259 0.0
C54 C 0.20329 0.69749 0.7466 0.0
C55 C 0.19314 0.69388 0.72574 0.0
C56 C 0.21988 0.71258 0.75034 0.0
C57 C 0.31185 0.78863 0.76095 0.0
C58 C 0.32518 0.77049 0.7922 0.0
C59 C 0.34651 0.79974 0.78552 0.0
C60 C 0.33056 0.80205 0.76697 0.0
C61 C 0.34401 0.78394 0.79838 0.0
C62 C 0.30925 0.77282 0.77363 0.0
C63 C 0.29521 0.79123 0.74143 0.0
O64 O 0.25625 0.77363 0.68606 0.0
O65 O 0.22491 0.78597 0.70561 0.0
O66 O 0.26939 0.79303 0.74481 0.0
O67 O 0.30043 0.78027 0.72539 0.0
H68 H 0.24631 0.81877 0.70055 0.0
H69 H 0.24884 0.84665 0.67891 0.0
H70 H 0.2334 0.81543 0.62107 0.0
H71 H 0.22978 0.78773 0.64301 0.0
H72 H 0.19222 0.70358 0.69253 0.0
H73 H 0.22117 0.73023 0.69928 0.0
H74 H 0.19834 0.68866 0.7601 0.0
H75 H 0.22763 0.71494 0.76652 0.0
H76 H 0.32295 0.75808 0.80157 0.0
H77 H 0.36052 0.81047 0.78995 0.0
H78 H 0.33277 0.81436 0.75737 0.0
H79 H 0.29492 0.76228 0.76914 0.0
C80 C 0.72737 0.78967 0.2652 0.0
C81 C 0.72069 0.77216 0.25785 0.0
C82 C 0.69435 0.78515 0.22817 0.0
C83 C 0.70425 0.76992 0.23956 0.0
C84 C 0.7014 0.80266 0.23554 0.0
C85 C 0.7177 0.80487 0.25389 0.0
U86 U 0.78202 0.7734 0.30421 0.0
O87 O 0.81546 0.78862 0.31937 0.0
O88 O 0.78512 0.77522 0.33959 0.0
C89 C 0.8059 0.78638 0.33891 0.0
C90 C 0.74458 0.79232 0.28444 0.0
C91 C 0.80369 0.80309 0.35169 0.0
C92 C 0.77832 0.82915 0.36368 0.0
C93 C 0.78003 0.8133 0.35141 0.0
C94 C 0.82403 0.82492 0.37634 0.0
C95 C 0.80032 0.83515 0.37628 0.0
C96 C 0.82565 0.80902 0.36419 0.0
C97 C 0.81425 0.72685 0.29345 0.0
C98 C 0.83651 0.7062 0.31866 0.0
C99 C 0.84255 0.70278 0.28014 0.0
C100 C 0.82595 0.71768 0.27625 0.0
C101 C 0.84771 0.69665 0.30137 0.0
C102 C 0.81994 0.72118 0.31473 0.0
C103 C 0.79544 0.74172 0.28856 0.0
O104 O 0.73979 0.78138 0.30089 0.0
O105 O 0.77029 0.79453 0.2806 0.0
O106 O 0.8063 0.75716 0.2821 0.0
O107 O 0.77563 0.74384 0.30213 0.0
H108 H 0.7281 0.76023 0.26631 0.0
H109 H 0.69903 0.75625 0.23453 0.0
H110 H 0.6946 0.8147 0.22698 0.0
H111 H 0.72284 0.81848 0.25922 0.0
H112 H 0.7599 0.83684 0.36307 0.0
H113 H 0.76291 0.80903 0.34168 0.0
H114 H 0.84123 0.82906 0.38604 0.0
H115 H 0.84409 0.80133 0.36457 0.0
H116 H 0.8399 0.70178 0.33519 0.0
H117 H 0.85125 0.69601 0.26646 0.0
H118 H 0.82194 0.7219 0.25971 0.0
H119 H 0.8112 0.72811 0.32829 0.0
C120 C 0.76417 0.2132 0.69936 0.0
C121 C 0.77066 0.21768 0.67793 0.0
C122 C 0.77194 0.18551 0.66876 0.0
C123 C 0.77439 0.20395 0.66274 0.0
C124 C 0.76585 0.18113 0.69034 0.0
C125 C 0.76195 0.19485 0.70545 0.0
U126 U 0.77729 0.26023 0.72402 0.0
O127 O 0.74884 0.27981 0.73725 0.0
O128 O 0.78024 0.26817 0.75815 0.0
C129 C 0.75871 0.27833 0.75695 0.0
C130 C 0.75927 0.22734 0.71556 0.0
C131 C 0.73888 0.27541 0.77406 0.0
C132 C 0.7094 0.2557 0.79501 0.0
C133 C 0.7282 0.25807 0.77854 0.0
C134 C 0.71166 0.288 0.80243 0.0
C135 C 0.70089 0.27067 0.80713 0.0
C136 C 0.73047 0.29033 0.78606 0.0
C137 C 0.82833 0.29325 0.70002 0.0
C138 C 0.84678 0.31923 0.71946 0.0
C139 C 0.85075 0.31777 0.68055 0.0
C140 C 0.83718 0.30102 0.68059 0.0
C141 C 0.85585 0.32707 0.7 0.0
C142 C 0.83304 0.30253 0.71945 0.0
C143 C 0.81405 0.2756 0.69975 0.0
O144 O 0.77914 0.23057 0.72919 0.0
O145 O 0.74754 0.24222 0.70845 0.0
O146 O 0.78826 0.27635 0.69521 0.0
O147 O 0.8197 0.26446 0.71587 0.0
H148 H 0.77271 0.23178 0.67291 0.0
H149 H 0.77936 0.20775 0.64631 0.0
H150 H 0.76352 0.16708 0.69545 0.0
H151 H 0.75696 0.19112 0.72191 0.0
H152 H 0.70131 0.24221 0.79809 0.0
H153 H 0.73439 0.2464 0.76932 0.0
H154 H 0.70587 0.29976 0.81164 0.0
H155 H 0.73855 0.30381 0.78281 0.0
H156 H 0.8506 0.32584 0.73477 0.0
H157 H 0.85698 0.32352 0.66522 0.0
H158 H 0.83352 0.29413 0.66541 0.0
H159 H 0.82622 0.29683 0.73465 0.0
C160 C 0.8041 0.72038 0.73268 0.0
C161 C 0.82963 0.72317 0.72378 0.0
C162 C 0.8374 0.69045 0.72418 0.0
C163 C 0.84615 0.70833 0.7196 0.0
C164 C 0.81145 0.68777 0.73244 0.0
C165 C 0.79504 0.70258 0.73668 0.0
U166 U 0.77546 0.76855 0.7249 0.0
O167 O 0.73439 0.77813 0.72988 0.0
O168 O 0.76754 0.78918 0.74959 0.0
C169 C 0.74143 0.78815 0.74656 0.0
C170 C 0.78699 0.73568 0.73883 0.0
C171 C 0.72546 0.7855 0.76626 0.0
C172 C 0.69893 0.76632 0.79027 0.0
C173 C 0.71432 0.76844 0.77164 0.0
C174 C 0.70617 0.79814 0.79866 0.0
C175 C 0.69467 0.78116 0.80398 0.0
C176 C 0.72135 0.80029 0.77994 0.0
C177 C 0.79566 0.79894 0.67746 0.0
C178 C 0.78241 0.83061 0.67461 0.0
C179 C 0.80323 0.81595 0.64425 0.0
C180 C 0.80513 0.79981 0.65626 0.0
C181 C 0.79185 0.83156 0.65327 0.0
C182 C 0.78421 0.81442 0.68657 0.0
C183 C 0.7975 0.78176 0.68971 0.0
O184 O 0.7995 0.75044 0.74563 0.0
O185 O 0.76651 0.73912 0.72591 0.0
O186 O 0.77564 0.7716 0.6895 0.0
O187 O 0.80885 0.78287 0.70895 0.0
H188 H 0.83702 0.73681 0.72048 0.0
H189 H 0.86607 0.71091 0.71339 0.0
H190 H 0.80382 0.67419 0.73574 0.0
H191 H 0.77534 0.70014 0.74342 0.0
H192 H 0.6906 0.75303 0.79408 0.0
H193 H 0.71748 0.75677 0.76144 0.0
H194 H 0.70305 0.80986 0.80879 0.0
H195 H 0.72982 0.81354 0.77609 0.0
H196 H 0.77326 0.84231 0.68194 0.0
H197 H 0.81099 0.81627 0.62798 0.0
H198 H 0.81401 0.78798 0.64898 0.0
H199 H 0.77659 0.81394 0.7029 0.0
C200 C 0.72407 0.24179 0.26536 0.0
C201 C 0.72253 0.25884 0.25508 0.0
C202 C 0.69236 0.24623 0.22766 0.0
C203 C 0.70673 0.26106 0.23642 0.0
C204 C 0.69399 0.22918 0.23809 0.0
C205 C 0.7097 0.227 0.25678 0.0
U206 U 0.77824 0.2586 0.30437 0.0
O207 O 0.78112 0.25666 0.33978 0.0
O208 O 0.81167 0.24387 0.31985 0.0
C209 C 0.80197 0.24585 0.33933 0.0
C210 C 0.74091 0.23918 0.28477 0.0
C211 C 0.79979 0.22902 0.35226 0.0
C212 C 0.77467 0.20228 0.3641 0.0
C213 C 0.77628 0.21832 0.35182 0.0
C214 C 0.82015 0.20733 0.37715 0.0
C215 C 0.79662 0.19658 0.37687 0.0
C216 C 0.82167 0.22341 0.36498 0.0
C217 C 0.81052 0.30557 0.29308 0.0
C218 C 0.83358 0.32574 0.31832 0.0
C219 C 0.83823 0.33051 0.27977 0.0
C220 C 0.82155 0.31548 0.27586 0.0
C221 C 0.84414 0.33601 0.30103 0.0
C222 C 0.81693 0.31062 0.31437 0.0
C223 C 0.79172 0.2905 0.28826 0.0
O224 O 0.76666 0.23732 0.28116 0.0
O225 O 0.73597 0.25011 0.30092 0.0
O226 O 0.77184 0.28806 0.3018 0.0
O227 O 0.8026 0.27523 0.28206 0.0
H228 H 0.73368 0.2704 0.26143 0.0
H229 H 0.70616 0.27431 0.22864 0.0
H230 H 0.68293 0.21754 0.23191 0.0
H231 H 0.71067 0.21375 0.26452 0.0
H232 H 0.75639 0.1942 0.36334 0.0
H233 H 0.75924 0.22234 0.34192 0.0
H234 H 0.83729 0.20341 0.38698 0.0
H235 H 0.83999 0.23148 0.36548 0.0
H236 H 0.83756 0.32965 0.33488 0.0
H237 H 0.84644 0.33785 0.26608 0.0
H238 H 0.81698 0.31172 0.25931 0.0
H239 H 0.80871 0.3031 0.32793 0.0
C240 C 0.23317 0.2301 0.67437 0.0
C241 C 0.2568 0.21985 0.67467 0.0
C242 C 0.23632 0.19785 0.65009 0.0
C243 C 0.25841 0.20391 0.66255 0.0
C244 C 0.21264 0.20811 0.65 0.0
C245 C 0.21112 0.2241 0.662 0.0
U246 U 0.25497 0.25958 0.72188 0.0
O247 O 0.26226 0.28905 0.72402 0.0
O248 O 0.23111 0.27614 0.74392 0.0
C249 C 0.24265 0.29143 0.73771 0.0
C250 C 0.23111 0.2469 0.68703 0.0
C251 C 0.22456 0.3067 0.73305 0.0
C252 C 0.19863 0.32556 0.70816 0.0
C253 C 0.21481 0.31036 0.7121 0.0
C254 C 0.2014 0.33326 0.74611 0.0
C255 C 0.19199 0.33731 0.72512 0.0
C256 C 0.21754 0.31814 0.75 0.0
C257 C 0.30859 0.24265 0.76126 0.0
C258 C 0.33061 0.26226 0.78763 0.0
C259 C 0.33455 0.22952 0.79084 0.0
C260 C 0.31862 0.2274 0.77226 0.0
C261 C 0.34084 0.24698 0.79874 0.0
C262 C 0.31455 0.2601 0.76911 0.0
C263 C 0.29163 0.24012 0.74187 0.0
O264 O 0.22123 0.24482 0.7065 0.0
O265 O 0.25214 0.25785 0.68649 0.0
O266 O 0.29693 0.25101 0.72547 0.0
O267 O 0.26583 0.23824 0.74549 0.0
H268 H 0.27398 0.22415 0.68431 0.0
H269 H 0.2768 0.1962 0.66318 0.0
H270 H 0.19538 0.2039 0.64042 0.0
H271 H 0.19271 0.23181 0.66161 0.0
H272 H 0.19185 0.32833 0.69179 0.0
H273 H 0.21998 0.30164 0.69879 0.0
H274 H 0.19625 0.34177 0.75962 0.0
H275 H 0.22475 0.31546 0.76629 0.0
H276 H 0.33526 0.2759 0.79307 0.0
H277 H 0.34163 0.21745 0.79916 0.0
H278 H 0.31402 0.21382 0.76653 0.0
H279 H 0.30685 0.27206 0.76089 0.0
C280 C 0.20643 0.73737 0.32754 0.0
C281 C 0.20593 0.72705 0.30856 0.0
C282 C 0.1792 0.70353 0.32641 0.0
C283 C 0.19234 0.71031 0.30797 0.0
C284 C 0.17994 0.71391 0.34542 0.0
C285 C 0.19342 0.73069 0.34595 0.0
U286 U 0.25662 0.77094 0.30375 0.0
O287 O 0.25534 0.80067 0.29998 0.0
O288 O 0.28731 0.7882 0.31964 0.0
C289 C 0.27557 0.80334 0.31347 0.0
C290 C 0.22076 0.75495 0.32836 0.0
C291 C 0.27167 0.81699 0.3305 0.0
C292 C 0.24289 0.83571 0.35254 0.0
C293 C 0.24593 0.8221 0.33708 0.0
C294 C 0.2912 0.83892 0.35551 0.0
C295 C 0.2655 0.84433 0.36185 0.0
C296 C 0.29422 0.82544 0.33994 0.0
C297 C 0.2921 0.7574 0.25166 0.0
C298 C 0.32574 0.77623 0.23388 0.0
C299 C 0.31162 0.7476 0.21802 0.0
C300 C 0.29402 0.74463 0.23511 0.0
C301 C 0.32765 0.76346 0.21714 0.0
C302 C 0.30805 0.77323 0.251 0.0
C303 C 0.27327 0.75392 0.26934 0.0
O304 O 0.24672 0.75394 0.33206 0.0
O305 O 0.21453 0.76659 0.3129 0.0
O306 O 0.25185 0.76419 0.26935 0.0
O307 O 0.28416 0.75178 0.28862 0.0
H308 H 0.21609 0.73193 0.29422 0.0
H309 H 0.19243 0.70255 0.29317 0.0
H310 H 0.1698 0.70916 0.35982 0.0
H311 H 0.19366 0.73847 0.36074 0.0
H312 H 0.22284 0.83944 0.35726 0.0
H313 H 0.22816 0.81571 0.33018 0.0
H314 H 0.309 0.84543 0.36219 0.0
H315 H 0.31425 0.82175 0.33507 0.0
H316 H 0.33762 0.78864 0.23359 0.0
H317 H 0.31288 0.73736 0.20561 0.0
H318 H 0.2819 0.73231 0.23543 0.0
H319 H 0.30673 0.78326 0.26367 0.0
H320 H 0.96463 0.49082 0.29411 0.0
H321 H 0.93765 0.46294 0.2925 0.0
H322 H 0.97876 0.44246 0.34938 0.0
H323 H 1.00563 0.47051 0.35103 0.0
H324 H 0.96816 0.51653 0.32258 0.0
H325 H 0.02883 0.47462 0.29245 0.0
H326 H 0.05417 0.44654 0.28946 0.0
H327 H 0.09671 0.45924 0.34879 0.0
H328 H 0.0705 0.48706 0.35208 0.0
H329 H 0.0688 0.54511 0.35495 0.0
H330 H 0.09425 0.57374 0.35483 0.0
H331 H 0.05764 0.58825 0.29349 0.0
H332 H 0.03203 0.55973 0.29392 0.0
H333 H 0.06764 0.51661 0.3261 0.0
H334 H 1.00569 0.56183 0.35208 0.0
H335 H 0.97949 0.58984 0.35034 0.0
H336 H 0.94009 0.57079 0.29211 0.0
H337 H 0.9664 0.54298 0.29382 0.0
C338 C 0.9873 0.48276 0.32261 0.0
C339 C 0.96776 0.48038 0.30632 0.0
C340 C 0.95231 0.46445 0.30544 0.0
C341 C 0.95602 0.4505 0.32084 0.0
C342 C 0.97563 0.45286 0.33714 0.0
C343 C 0.991 0.46889 0.3381 0.0
C344 C 1.00347 0.49988 0.32342 0.0
C345 C 0.98993 0.51654 0.32314 0.0
C346 C 0.03188 0.49989 0.32444 0.0
C347 C 0.04749 0.48285 0.32264 0.0
C348 C 0.04339 0.47126 0.30496 0.0
C349 C 0.05812 0.45529 0.30315 0.0
C350 C 0.07752 0.45061 0.31888 0.0
C351 C 0.08169 0.46229 0.33654 0.0
C352 C 0.06689 0.47828 0.33835 0.0
C353 C 0.04828 0.55038 0.32459 0.0
C354 C 0.06636 0.55445 0.34146 0.0
C355 C 0.08096 0.5708 0.34131 0.0
C356 C 0.07793 0.58337 0.32419 0.0
C357 C 0.06012 0.57907 0.30712 0.0
C358 C 0.04551 0.56273 0.3073 0.0
C359 C 0.03228 0.53323 0.32508 0.0
C360 C 0.04587 0.51657 0.3257 0.0
C361 C 1.00389 0.53322 0.32381 0.0
C362 C 0.98817 0.55032 0.32299 0.0
C363 C 0.99159 0.56377 0.33883 0.0
C364 C 0.9766 0.57977 0.33783 0.0
C365 C 0.95765 0.58251 0.32113 0.0
C366 C 0.95423 0.56899 0.30537 0.0
C367 C 0.96931 0.55309 0.3063 0.0
H368 H 0.06738 0.54488 0.67388 0.0
H369 H 0.09412 0.57288 0.67695 0.0
H370 H 0.05426 0.58531 0.7366 0.0
H371 H 0.02829 0.55705 0.73378 0.0
H372 H 0.0658 0.51549 0.70107 0.0
H373 H 1.00175 0.56047 0.67478 0.0
H374 H 0.97597 0.58855 0.67765 0.0
H375 H 0.93901 0.56765 0.7357 0.0
H376 H 0.96521 0.53988 0.73302 0.0
H377 H 0.96255 0.4867 0.72894 0.0
H378 H 0.93739 0.45795 0.72848 0.0
H379 H 0.9813 0.44125 0.67239 0.0
H380 H 1.0061 0.47013 0.67268 0.0
H381 H 0.96629 0.51413 0.70247 0.0
H382 H 0.0281 0.4719 0.73238 0.0
H383 H 0.05436 0.44409 0.73506 0.0
H384 H 0.09637 0.45937 0.67688 0.0
H385 H 0.06938 0.48697 0.67394 0.0
C386 C 0.04564 0.54893 0.70348 0.0
C387 C 0.06442 0.55366 0.6876 0.0
C388 C 0.07953 0.56974 0.68929 0.0
C389 C 0.0763 0.58138 0.707 0.0
C390 C 0.05744 0.57659 0.72286 0.0
C391 C 0.04237 0.56052 0.72116 0.0
C392 C 0.03001 0.53166 0.70187 0.0
C393 C 0.04402 0.51519 0.70095 0.0
C394 C 1.00162 0.53125 0.70259 0.0
C395 C 0.98558 0.54813 0.70379 0.0
C396 C 0.98818 0.562 0.68818 0.0
C397 C 0.9733 0.57797 0.68974 0.0
C398 C 0.95555 0.58037 0.70697 0.0
C399 C 0.9528 0.56636 0.72243 0.0
C400 C 0.96758 0.5504 0.72081 0.0
C401 C 0.98647 0.48054 0.701 0.0
C402 C 0.96663 0.47692 0.71644 0.0
C403 C 0.95225 0.46048 0.71616 0.0
C404 C 0.95746 0.4473 0.70046 0.0
C405 C 0.97713 0.45102 0.68488 0.0
C406 C 0.99132 0.46752 0.68505 0.0
C407 C 1.00205 0.49792 0.70161 0.0
C408 C 0.98806 0.5144 0.70235 0.0
C409 C 0.03048 0.49833 0.70127 0.0
C410 C 0.04656 0.48144 0.70283 0.0
C411 C 0.04277 0.46918 0.72007 0.0
C412 C 0.05798 0.45335 0.72169 0.0
C413 C 0.07749 0.44949 0.70619 0.0
C414 C 0.08128 0.46181 0.68894 0.0
C415 C 0.06604 0.47767 0.68734 0.0
H416 H 0.21216 0.98938 0.55264 0.0
H417 H 0.21157 0.96125 0.57383 0.0
H418 H 0.28434 0.94433 0.54276 0.0
H419 H 0.28559 0.97297 0.52252 0.0
H420 H 0.24561 0.01683 0.55178 0.0
H421 H 0.21571 0.97252 0.49987 0.0
H422 H 0.21751 0.94479 0.47846 0.0
H423 H 0.29039 0.96445 0.44866 0.0
H424 H 0.28915 0.99169 0.47086 0.0
H425 H 0.28842 0.04708 0.4726 0.0
H426 H 0.28776 0.07544 0.45167 0.0
H427 H 0.21107 0.08855 0.47915 0.0
H428 H 0.21208 0.06031 0.5002 0.0
H429 H 0.2543 0.01821 0.47204 0.0
H430 H 0.28517 0.06165 0.52487 0.0
H431 H 0.28336 0.08963 0.54595 0.0
H432 H 0.20772 0.07193 0.57276 0.0
H433 H 0.20942 0.04414 0.55134 0.0
C434 C 0.24873 0.98326 0.53576 0.0
C435 C 0.22808 0.97966 0.55048 0.0
C436 C 0.22762 0.96344 0.56244 0.0
C437 C 0.2478 0.95038 0.55994 0.0
C438 C 0.2686 0.9541 0.5453 0.0
C439 C 0.26916 0.97041 0.53347 0.0
C440 C 0.24902 1.00058 0.52311 0.0
C441 C 0.24717 0.01708 0.53431 0.0
C442 C 0.25169 1.00099 0.50032 0.0
C443 C 0.2525 0.98412 0.48722 0.0
C444 C 0.23227 0.97074 0.48893 0.0
C445 C 0.23317 0.95496 0.47648 0.0
C446 C 0.25414 0.9523 0.46183 0.0
C447 C 0.2742 0.96584 0.46002 0.0
C448 C 0.27338 0.98154 0.47256 0.0
C449 C 0.25045 0.05165 0.48815 0.0
C450 C 0.27148 0.05609 0.47411 0.0
C451 C 0.27101 0.07228 0.46208 0.0
C452 C 0.24938 0.08434 0.46372 0.0
C453 C 0.22827 0.07978 0.47775 0.0
C454 C 0.22878 0.0636 0.48978 0.0
C455 C 0.25086 0.03433 0.50072 0.0
C456 C 0.2528 0.01787 0.48951 0.0
C457 C 0.24822 0.03393 0.52346 0.0
C458 C 0.2473 0.05087 0.53638 0.0
C459 C 0.26812 0.06386 0.53519 0.0
C460 C 0.26716 0.07977 0.54738 0.0
C461 C 0.24537 0.08303 0.56101 0.0
C462 C 0.22462 0.06994 0.56223 0.0
C463 C 0.22566 0.05399 0.55012 0.0
H464 H 0.46785 0.79984 0.9809 0.0
H465 H 0.44128 0.80053 0.9475 0.0
H466 H 0.47631 0.7497 0.92831 0.0
H467 H 0.50298 0.74915 0.96176 0.0
H468 H 0.46776 0.77616 0.01352 0.0
H469 H 0.53124 0.7974 0.96167 0.0
H470 H 0.55821 0.79741 0.92895 0.0
H471 H 0.59632 0.74783 0.95041 0.0
H472 H 0.56897 0.74771 0.98301 0.0
H473 H 0.56852 0.74827 0.04833 0.0
H474 H 0.59534 0.749 0.08171 0.0
H475 H 0.5565 0.79874 0.09996 0.0
H476 H 0.53003 0.7981 0.06649 0.0
H477 H 0.56685 0.77078 0.01518 0.0
H478 H 0.50172 0.74938 0.06679 0.0
H479 H 0.47352 0.74951 0.09884 0.0
H480 H 0.43949 0.80065 0.07788 0.0
H481 H 0.46748 0.80027 0.04573 0.0
C482 C 0.48756 0.77452 0.97379 0.0
C483 C 0.46977 0.78882 0.96952 0.0
C484 C 0.45452 0.78916 0.95044 0.0
C485 C 0.45661 0.77515 0.93523 0.0
C486 C 0.47447 0.76083 0.93953 0.0
C487 C 0.48971 0.76048 0.95867 0.0
C488 C 0.50334 0.77417 0.99432 0.0
C489 C 0.48947 0.7752 0.01388 0.0
C490 C 0.53163 0.77248 0.99477 0.0
C491 C 0.54777 0.77241 0.97471 0.0
C492 C 0.54508 0.78637 0.95921 0.0
C493 C 0.56055 0.78638 0.94051 0.0
C494 C 0.57934 0.77259 0.93707 0.0
C495 C 0.58217 0.75872 0.95268 0.0
C496 C 0.56652 0.75862 0.9713 0.0
C497 C 0.54698 0.773 0.05498 0.0
C498 C 0.56578 0.75934 0.05952 0.0
C499 C 0.58113 0.75978 0.07857 0.0
C500 C 0.57797 0.77389 0.09351 0.0
C501 C 0.5591 0.78753 0.08896 0.0
C502 C 0.54392 0.78716 0.06983 0.0
C503 C 0.53126 0.77275 0.0344 0.0
C504 C 0.54513 0.77164 0.01482 0.0
C505 C 0.50297 0.77443 0.0339 0.0
C506 C 0.48679 0.77485 0.05389 0.0
C507 C 0.48839 0.76071 0.06923 0.0
C508 C 0.47229 0.76084 0.08759 0.0
C509 C 0.45418 0.77508 0.09095 0.0
C510 C 0.4529 0.78933 0.07565 0.0
C511 C 0.46895 0.78917 0.0573 0.0
H512 H 0.74642 0.98534 0.55492 0.0
H513 H 0.74642 0.95707 0.57606 0.0
H514 H 0.82362 0.94357 0.54979 0.0
H515 H 0.82332 0.97173 0.52857 0.0
H516 H 0.78019 0.01415 0.55569 0.0
H517 H 0.75111 0.9705 0.50276 0.0
H518 H 0.75297 0.94257 0.48158 0.0
H519 H 0.82932 0.95992 0.45577 0.0
H520 H 0.8276 0.98763 0.47733 0.0
H521 H 0.82697 0.04336 0.47772 0.0
H522 H 0.82815 0.07141 0.4563 0.0
H523 H 0.75061 0.08598 0.48111 0.0
H524 H 0.74982 0.05801 0.50275 0.0
H525 H 0.79218 0.01506 0.47624 0.0
H526 H 0.82146 0.05858 0.52927 0.0
H527 H 0.8202 0.08621 0.55101 0.0
H528 H 0.74373 0.06905 0.57679 0.0
H529 H 0.74482 0.04168 0.55464 0.0
C530 C 0.78471 0.98057 0.53997 0.0
C531 C 0.76333 0.97628 0.55373 0.0
C532 C 0.76342 0.96014 0.56587 0.0
C533 C 0.78499 0.948 0.5646 0.0
C534 C 0.80646 0.95242 0.55088 0.0
C535 C 0.80634 0.96855 0.53875 0.0
C536 C 0.78472 0.99781 0.52725 0.0
C537 C 0.78239 0.01435 0.53827 0.0
C538 C 0.78825 0.99808 0.50458 0.0
C539 C 0.78934 0.98109 0.49178 0.0
C540 C 0.76835 0.96821 0.49267 0.0
C541 C 0.76932 0.95233 0.48042 0.0
C542 C 0.79131 0.94901 0.46701 0.0
C543 C 0.81227 0.96196 0.46613 0.0
C544 C 0.81122 0.97787 0.47832 0.0
C545 C 0.78843 0.04864 0.49198 0.0
C546 C 0.81024 0.05261 0.47854 0.0
C547 C 0.81081 0.06863 0.46622 0.0
C548 C 0.78945 0.08098 0.46692 0.0
C549 C 0.7676 0.07694 0.48041 0.0
C550 C 0.76708 0.06093 0.49278 0.0
C551 C 0.78772 0.03141 0.50468 0.0
C552 C 0.78991 0.01487 0.49365 0.0
C553 C 0.78406 0.03115 0.52733 0.0
C554 C 0.78311 0.04813 0.54016 0.0
C555 C 0.80427 0.06088 0.53941 0.0
C556 C 0.80365 0.07659 0.552 0.0
C557 C 0.78185 0.07985 0.56563 0.0
C558 C 0.76064 0.06708 0.56626 0.0
C559 C 0.76133 0.05135 0.55374 0.0
H560 H 0.46305 0.28366 0.9802 0.0
H561 H 0.4361 0.28256 0.94689 0.0
H562 H 0.47766 0.23408 0.92784 0.0
H563 H 0.50427 0.2351 0.96122 0.0
H564 H 0.46687 0.26118 0.01325 0.0
H565 H 0.52841 0.28461 0.96091 0.0
H566 H 0.55471 0.28554 0.92783 0.0
H567 H 0.59535 0.2365 0.94806 0.0
H568 H 0.56831 0.23531 0.98074 0.0
H569 H 0.56702 0.23334 0.04539 0.0
H570 H 0.59427 0.2322 0.07839 0.0
H571 H 0.55922 0.28255 0.09928 0.0
H572 H 0.53174 0.28347 0.06624 0.0
H573 H 0.56622 0.25813 0.01337 0.0
H574 H 0.50434 0.23493 0.06593 0.0
H575 H 0.47804 0.23435 0.09902 0.0
H576 H 0.4384 0.28369 0.07867 0.0
H577 H 0.46502 0.28435 0.0457 0.0
C578 C 0.48595 0.25961 0.97312 0.0
C579 C 0.46631 0.27277 0.96887 0.0
C580 C 0.4509 0.27212 0.94985 0.0
C581 C 0.45485 0.25828 0.93468 0.0
C582 C 0.47446 0.24508 0.93902 0.0
C583 C 0.4897 0.24566 0.9581 0.0
C584 C 0.50211 0.26021 0.99347 0.0
C585 C 0.48862 0.26083 0.01327 0.0
C586 C 0.53049 0.25933 0.99352 0.0
C587 C 0.5462 0.2598 0.97325 0.0
C588 C 0.54274 0.27393 0.95809 0.0
C589 C 0.55799 0.27455 0.93928 0.0
C590 C 0.57718 0.2611 0.93528 0.0
C591 C 0.58052 0.24694 0.95047 0.0
C592 C 0.56525 0.24633 0.96927 0.0
C593 C 0.54721 0.25842 0.05339 0.0
C594 C 0.56524 0.24415 0.05706 0.0
C595 C 0.58089 0.24357 0.07592 0.0
C596 C 0.57902 0.25732 0.09148 0.0
C597 C 0.56092 0.27162 0.08777 0.0
C598 C 0.54523 0.27219 0.06888 0.0
C599 C 0.53098 0.25897 0.03312 0.0
C600 C 0.54446 0.25858 0.01333 0.0
C601 C 0.50262 0.26012 0.03311 0.0
C602 C 0.48695 0.25982 0.05342 0.0
C603 C 0.49029 0.24578 0.06872 0.0
C604 C 0.47521 0.24545 0.08763 0.0
C605 C 0.45618 0.259 0.09149 0.0
C606 C 0.45273 0.27297 0.07608 0.0
C607 C 0.46797 0.27338 0.05725 0.0
H608 H 0.14744 0.34992 0.27414 0.0
H609 H 0.19158 0.3617 0.33292 0.0
H610 H 0.11978 0.37658 0.27967 0.0
H611 H 0.16391 0.38846 0.33845 0.0
H612 H 0.09235 0.42618 0.35053 0.0
H613 H 0.11849 0.3985 0.34656 0.0
H614 H 0.12523 0.40936 0.27813 0.0
H615 H 0.09925 0.43695 0.28209 0.0
C616 C 0.1513 0.35824 0.28822 0.0
C617 C 0.17188 0.35375 0.30299 0.0
C618 C 0.13546 0.37354 0.29138 0.0
C619 C 0.13977 0.38478 0.3094 0.0
C620 C 0.15987 0.38002 0.3245 0.0
C621 C 0.17574 0.36467 0.32134 0.0
C622 C 0.09959 0.42272 0.33467 0.0
C623 C 0.09358 0.43377 0.31662 0.0
C624 C 0.11456 0.40685 0.3324 0.0
C625 C 0.12385 0.40164 0.31201 0.0
C626 C 0.11795 0.41275 0.294 0.0
C627 C 0.10303 0.4286 0.29628 0.0
H628 H 0.14783 0.69057 0.70025 0.0
H629 H 0.2004 0.65967 0.7423 0.0
H630 H 0.11946 0.66357 0.69516 0.0
H631 H 0.17212 0.63283 0.73729 0.0
H632 H 0.10017 0.59475 0.74366 0.0
H633 H 0.12778 0.62207 0.74749 0.0
H634 H 0.11894 0.63308 0.67913 0.0
H635 H 0.09044 0.60601 0.67542 0.0
C636 C 0.15348 0.67799 0.70824 0.0
C637 C 0.17627 0.67735 0.72184 0.0
C638 C 0.13722 0.66252 0.70533 0.0
C639 C 0.14338 0.64607 0.71597 0.0
C640 C 0.16645 0.64537 0.72922 0.0
C641 C 0.18268 0.66078 0.7321 0.0
C642 C 0.10382 0.6031 0.72948 0.0
C643 C 0.09303 0.59818 0.70924 0.0
C644 C 0.11994 0.61866 0.73163 0.0
C645 C 0.12572 0.62972 0.7136 0.0
C646 C 0.11474 0.62493 0.69337 0.0
C647 C 0.09864 0.60931 0.69121 0.0
H648 H 0.84652 0.66507 0.27836 0.0
H649 H 0.88551 0.69041 0.33327 0.0
H650 H 0.87328 0.63799 0.28405 0.0
H651 H 0.91158 0.66284 0.33957 0.0
H652 H 0.97428 0.61776 0.32768 0.0
H653 H 0.94774 0.6454 0.32393 0.0
H654 H 0.87751 0.61279 0.3087 0.0
H655 H 0.90405 0.58529 0.31223 0.0
C656 C 0.86087 0.6649 0.29164 0.0
C657 C 0.86395 0.68001 0.30527 0.0
C658 C 0.87597 0.64923 0.29509 0.0
C659 C 0.89452 0.64816 0.31234 0.0
C660 C 0.89763 0.66325 0.32603 0.0
C661 C 0.88248 0.67898 0.32255 0.0
C662 C 0.9531 0.61651 0.32375 0.0
C663 C 0.94133 0.59934 0.32005 0.0
C664 C 0.93788 0.63235 0.32163 0.0
C665 C 0.91052 0.63135 0.31582 0.0
C666 C 0.89864 0.61412 0.31272 0.0
C667 C 0.91385 0.59833 0.31476 0.0
H668 H 0.84677 0.35703 0.72503 0.0
H669 H 0.89859 0.33742 0.675 0.0
H670 H 0.87161 0.38569 0.7256 0.0
H671 H 0.92237 0.36647 0.67465 0.0
H672 H 0.97757 0.41318 0.69525 0.0
H673 H 0.95316 0.38427 0.69536 0.0
H674 H 0.87895 0.41282 0.70518 0.0
H675 H 0.90355 0.44166 0.70553 0.0
C676 C 0.86345 0.3588 0.71414 0.0
C677 C 0.87066 0.34482 0.7 0.0
C678 C 0.87749 0.37538 0.71425 0.0
C679 C 0.89903 0.37847 0.70014 0.0
C680 C 0.90615 0.36453 0.68594 0.0
C681 C 0.89221 0.34791 0.68592 0.0
C682 C 0.95602 0.41326 0.69731 0.0
C683 C 0.94249 0.4297 0.70037 0.0
C684 C 0.94198 0.39669 0.69733 0.0
C685 C 0.91401 0.39615 0.70025 0.0
C686 C 0.90051 0.41264 0.70326 0.0
C687 C 0.91459 0.4292 0.7034 0.0
H688 H 0.20263 0.18613 0.40204 0.0
H689 H 0.28137 0.17593 0.37656 0.0
H690 H 0.2054 0.15837 0.42368 0.0
H691 H 0.28395 0.14802 0.39805 0.0
H692 H 0.2647 0.08962 0.42168 0.0
H693 H 0.26294 0.1176 0.40029 0.0
H694 H 0.2304 0.14589 0.45479 0.0
H695 H 0.23241 0.11797 0.47628 0.0
C696 C 0.22065 0.17807 0.40118 0.0
C697 C 0.2418 0.18335 0.38755 0.0
C698 C 0.22221 0.16213 0.41358 0.0
C699 C 0.24491 0.15098 0.41263 0.0
C700 C 0.26603 0.15618 0.39895 0.0
C701 C 0.26452 0.17218 0.3866 0.0
C702 C 0.25747 0.10185 0.42921 0.0
C703 C 0.24866 0.1015 0.45072 0.0
C704 C 0.25644 0.11789 0.41692 0.0
C705 C 0.24647 0.13398 0.42581 0.0
C706 C 0.23779 0.13367 0.44734 0.0
C707 C 0.23892 0.11764 0.45965 0.0
H708 H 0.39732 0.79233 0.80403 0.0
H709 H 0.32872 0.77029 0.83773 0.0
H710 H 0.42436 0.78965 0.83696 0.0
H711 H 0.35603 0.76696 0.87044 0.0
H712 H 0.40387 0.7846 0.93061 0.0
H713 H 0.3771 0.78619 0.89749 0.0
H714 H 0.44469 0.76733 0.86111 0.0
H715 H 0.47183 0.76641 0.89419 0.0
C716 C 0.38801 0.78689 0.81846 0.0
C717 C 0.3608 0.78161 0.81824 0.0
C718 C 0.40361 0.78515 0.83728 0.0
C719 C 0.39237 0.77811 0.85637 0.0
C720 C 0.36524 0.77263 0.85609 0.0
C721 C 0.34966 0.77435 0.83726 0.0
C722 C 0.41311 0.78093 0.91553 0.0
C723 C 0.44006 0.77547 0.91505 0.0
C724 C 0.39764 0.78162 0.89656 0.0
C725 C 0.40872 0.77688 0.87662 0.0
C726 C 0.43561 0.77126 0.87616 0.0
C727 C 0.45108 0.77054 0.89516 0.0
H728 H 0.75884 0.84613 0.40152 0.0
H729 H 0.83795 0.86228 0.38054 0.0
H730 H 0.75647 0.87343 0.42354 0.0
H731 H 0.8355 0.8897 0.40226 0.0
H732 H 0.83424 0.92682 0.46087 0.0
H733 H 0.83612 0.89942 0.43907 0.0
H734 H 0.75262 0.90589 0.4213 0.0
H735 H 0.75071 0.93316 0.44338 0.0
C736 C 0.77561 0.85561 0.40144 0.0
C737 C 0.79861 0.852 0.38933 0.0
C738 C 0.77426 0.87129 0.41404 0.0
C739 C 0.79583 0.88379 0.41476 0.0
C740 C 0.81872 0.88023 0.40245 0.0
C741 C 0.82012 0.86452 0.38995 0.0
C742 C 0.81633 0.92244 0.45221 0.0
C743 C 0.79234 0.93219 0.45385 0.0
C744 C 0.81741 0.90674 0.43966 0.0
C745 C 0.79455 0.90042 0.42833 0.0
C746 C 0.77051 0.91017 0.43005 0.0
C747 C 0.76941 0.92583 0.44269 0.0
H748 H 0.69853 0.24357 0.83777 0.0
H749 H 0.65851 0.29249 0.81648 0.0
H750 H 0.66767 0.24081 0.86799 0.0
H751 H 0.62765 0.28972 0.84659 0.0
H752 H 0.60064 0.29128 0.91714 0.0
H753 H 0.6292 0.29295 0.88554 0.0
H754 H 0.62094 0.23485 0.87736 0.0
H755 H 0.59227 0.23318 0.90904 0.0
C756 C 0.68292 0.25359 0.83937 0.0
C757 C 0.68112 0.26832 0.8248 0.0
C758 C 0.66522 0.25202 0.85669 0.0
C759 C 0.64528 0.26512 0.85982 0.0
C760 C 0.64309 0.27959 0.84492 0.0
C761 C 0.66078 0.28117 0.82764 0.0
C762 C 0.60461 0.27888 0.90846 0.0
C763 C 0.59411 0.2621 0.91564 0.0
C764 C 0.62101 0.27984 0.89032 0.0
C765 C 0.62735 0.26404 0.87887 0.0
C766 C 0.61676 0.24725 0.88597 0.0
C767 C 0.60032 0.24629 0.90413 0.0
H768 H 0.21039 0.84273 0.61286 0.0
H769 H 0.27529 0.86273 0.65335 0.0
H770 H 0.21281 0.87035 0.59107 0.0
H771 H 0.27657 0.89085 0.63237 0.0
H772 H 0.29017 0.93178 0.57799 0.0
H773 H 0.28899 0.90333 0.59836 0.0
H774 H 0.20254 0.9017 0.59213 0.0
H775 H 0.20386 0.92952 0.57065 0.0
C776 C 0.22523 0.85298 0.61712 0.0
C777 C 0.24267 0.8504 0.6349 0.0
C778 C 0.22635 0.86899 0.60478 0.0
C779 C 0.24481 0.88295 0.60995 0.0
C780 C 0.26229 0.88036 0.62771 0.0
C781 C 0.2613 0.86429 0.63997 0.0
C782 C 0.27092 0.92523 0.58068 0.0
C783 C 0.24712 0.93302 0.5726 0.0
C784 C 0.27021 0.90901 0.59265 0.0
C785 C 0.24566 0.90016 0.597 0.0
C786 C 0.22186 0.90795 0.58891 0.0
C787 C 0.22259 0.9241 0.57682 0.0
H788 H 0.69814 0.7597 0.19613 0.0
H789 H 0.65066 0.80536 0.21601 0.0
H790 H 0.66936 0.75598 0.16437 0.0
H791 H 0.62288 0.80229 0.18366 0.0
H792 H 0.5618 0.78152 0.13451 0.0
H793 H 0.58935 0.78343 0.16725 0.0
H794 H 0.65956 0.7702 0.1304 0.0
H795 H 0.63185 0.76797 0.0978 0.0
C796 C 0.68154 0.76893 0.19378 0.0
C797 C 0.67679 0.78284 0.20869 0.0
C798 C 0.66523 0.76694 0.17538 0.0
C799 C 0.64379 0.77886 0.17136 0.0
C800 C 0.63898 0.79271 0.18632 0.0
C801 C 0.65519 0.79464 0.20476 0.0
C802 C 0.58313 0.77906 0.13342 0.0
C803 C 0.59465 0.77462 0.11356 0.0
C804 C 0.59896 0.7802 0.15218 0.0
C805 C 0.62675 0.77704 0.15151 0.0
C806 C 0.63819 0.77244 0.13164 0.0
C807 C 0.62232 0.77119 0.11291 0.0
H808 H 0.79908 0.15353 0.67363 0.0
H809 H 0.75193 0.18426 0.6274 0.0
H810 H 0.80219 0.12869 0.64789 0.0
H811 H 0.75559 0.15958 0.60144 0.0
H812 H 0.7395 0.10223 0.57341 0.0
H813 H 0.73828 0.12826 0.59758 0.0
H814 H 0.82222 0.12093 0.61309 0.0
H815 H 0.82326 0.09459 0.58936 0.0
C816 C 0.78946 0.155 0.65794 0.0
C817 C 0.77516 0.17084 0.6526 0.0
C818 C 0.79146 0.14084 0.64311 0.0
C819 C 0.7791 0.14213 0.62262 0.0
C820 C 0.76512 0.15808 0.61717 0.0
C821 C 0.76326 0.1723 0.63196 0.0
C822 C 0.75767 0.10614 0.58203 0.0
C823 C 0.78145 0.09628 0.57951 0.0
C824 C 0.75705 0.12118 0.5957 0.0
C825 C 0.78015 0.12667 0.60729 0.0
C826 C 0.80401 0.11695 0.60456 0.0
C827 C 0.80468 0.10197 0.59079 0.0
H828 H 0.33707 0.2743 0.19209 0.0
H829 H 0.38469 0.22887 0.21424 0.0
H830 H 0.36545 0.27756 0.1605 0.0
H831 H 0.4121 0.23149 0.1821 0.0
H832 H 0.47273 0.25176 0.13295 0.0
H833 H 0.44549 0.25017 0.1654 0.0
H834 H 0.37488 0.26285 0.12718 0.0
H835 H 0.40227 0.26475 0.09486 0.0
C836 C 0.35361 0.26502 0.19027 0.0
C837 C 0.35852 0.25131 0.20577 0.0
C838 C 0.3697 0.26675 0.17198 0.0
C839 C 0.39108 0.25477 0.16866 0.0
C840 C 0.39605 0.24111 0.18421 0.0
C841 C 0.38004 0.23944 0.20253 0.0
C842 C 0.45137 0.25415 0.1315 0.0
C843 C 0.43966 0.25836 0.11134 0.0
C844 C 0.43572 0.2532 0.15009 0.0
C845 C 0.40792 0.25632 0.14896 0.0
C846 C 0.39627 0.26066 0.12877 0.0
C847 C 0.41196 0.26171 0.1102 0.0
H848 H 0.84359 0.66079 0.75065 0.0
H849 H 0.87232 0.68437 0.69097 0.0
H850 H 0.87252 0.63478 0.74581 0.0
H851 H 0.90231 0.6586 0.6866 0.0
H852 H 0.92907 0.59924 0.67495 0.0
H853 H 0.90138 0.62624 0.67869 0.0
H854 H 0.91918 0.62699 0.74717 0.0
H855 H 0.94657 0.59998 0.74344 0.0
C856 C 0.85603 0.66042 0.73644 0.0
C857 C 0.85546 0.67467 0.72114 0.0
C858 C 0.87294 0.6456 0.73382 0.0
C859 C 0.88989 0.64461 0.71587 0.0
C860 C 0.88937 0.65885 0.70053 0.0
C861 C 0.87238 0.67372 0.70315 0.0
C862 C 0.92727 0.6053 0.69075 0.0
C863 C 0.93983 0.59737 0.70893 0.0
C864 C 0.91143 0.62079 0.6929 0.0
C865 C 0.90784 0.62872 0.71326 0.0
C866 C 0.921 0.62102 0.73132 0.0
C867 C 0.93674 0.60554 0.72918 0.0
H868 H 0.88307 0.34167 0.33221 0.0
H869 H 0.84226 0.36832 0.27893 0.0
H870 H 0.90955 0.36932 0.33859 0.0
H871 H 0.86942 0.39551 0.28466 0.0
H872 H 0.90208 0.44761 0.3132 0.0
H873 H 0.87499 0.42 0.30973 0.0
H874 H 0.94525 0.3875 0.32249 0.0
H875 H 0.97233 0.41522 0.3262 0.0
C876 C 0.87972 0.35341 0.32187 0.0
C877 C 0.86057 0.35273 0.30501 0.0
C878 C 0.89511 0.36919 0.32539 0.0
C879 C 0.89162 0.38467 0.31216 0.0
C880 C 0.87242 0.38396 0.29535 0.0
C881 C 0.85708 0.36824 0.29186 0.0
C882 C 0.91177 0.43457 0.3152 0.0
C883 C 0.9394 0.43361 0.3198 0.0
C884 C 0.89624 0.41873 0.31319 0.0
C885 C 0.90797 0.4015 0.31563 0.0
C886 C 0.93551 0.40053 0.32073 0.0
C887 C 0.95104 0.41642 0.32283 0.0
H888 H 0.14759 0.34111 0.69872 0.0
H889 H 0.1996 0.37115 0.74224 0.0
H890 H 0.12003 0.36815 0.69346 0.0
H891 H 0.1721 0.39802 0.73706 0.0
H892 H 0.10028 0.43533 0.74294 0.0
H893 H 0.12753 0.40817 0.74669 0.0
H894 H 0.12072 0.39915 0.67796 0.0
H895 H 0.09261 0.4261 0.6743 0.0
C896 C 0.1533 0.35351 0.707 0.0
C897 C 0.17567 0.35389 0.72107 0.0
C898 C 0.1375 0.369 0.70399 0.0
C899 C 0.14371 0.38521 0.715 0.0
C900 C 0.1664 0.38566 0.72869 0.0
C901 C 0.18217 0.37023 0.73167 0.0
C902 C 0.10433 0.42747 0.72864 0.0
C903 C 0.09421 0.43289 0.70832 0.0
C904 C 0.12024 0.412 0.73075 0.0
C905 C 0.12644 0.40152 0.7126 0.0
C906 C 0.11617 0.40685 0.69228 0.0
C907 C 0.1003 0.42239 0.69015 0.0
H908 H 0.1462 0.69033 0.29439 0.0
H909 H 0.17945 0.67648 0.35708 0.0
H910 H 0.12236 0.66116 0.29345 0.0
H911 H 0.15506 0.64752 0.35639 0.0
H912 H 0.13022 0.58953 0.33669 0.0
H913 H 0.15485 0.61838 0.33706 0.0
H914 H 0.08481 0.64583 0.31189 0.0
H915 H 0.06006 0.61705 0.31173 0.0
C916 C 0.14849 0.68103 0.30794 0.0
C917 C 0.16472 0.68573 0.32581 0.0
C918 C 0.13461 0.6644 0.3075 0.0
C919 C 0.13676 0.65202 0.32487 0.0
C920 C 0.15315 0.65667 0.34267 0.0
C921 C 0.16691 0.67335 0.34316 0.0
C922 C 0.11997 0.60174 0.33142 0.0
C923 C 0.09312 0.60094 0.32419 0.0
C924 C 0.13412 0.61827 0.33161 0.0
C925 C 0.12181 0.6344 0.3245 0.0
C926 C 0.09501 0.6336 0.31717 0.0
C927 C 0.08083 0.61709 0.31706 0.0
H928 H 0.77686 0.83558 0.61084 0.0
H929 H 0.80243 0.86636 0.66667 0.0
H930 H 0.77443 0.86359 0.58958 0.0
H931 H 0.80027 0.89438 0.64538 0.0
H932 H 0.76892 0.9429 0.60648 0.0
H933 H 0.76933 0.91485 0.62776 0.0
H934 H 0.80323 0.88643 0.57386 0.0
H935 H 0.80167 0.91426 0.55229 0.0
C936 C 0.78216 0.84833 0.61853 0.0
C937 C 0.78991 0.84872 0.64044 0.0
C938 C 0.7808 0.86439 0.60634 0.0
C939 C 0.78724 0.88128 0.61572 0.0
C940 C 0.79479 0.88168 0.63769 0.0
C941 C 0.79606 0.8656 0.64991 0.0
C942 C 0.77614 0.93061 0.59907 0.0
C943 C 0.78524 0.93086 0.57764 0.0
C944 C 0.77669 0.91456 0.61138 0.0
C945 C 0.78636 0.89835 0.60257 0.0
C946 C 0.79537 0.89859 0.58111 0.0
C947 C 0.79479 0.91463 0.56881 0.0
H948 H 0.65869 0.27418 0.21671 0.0
H949 H 0.68894 0.22326 0.1932 0.0
H950 H 0.63182 0.27769 0.18367 0.0
H951 H 0.66157 0.22651 0.16053 0.0
H952 H 0.63179 0.24768 0.0952 0.0
H953 H 0.65924 0.24555 0.12793 0.0
H954 H 0.59241 0.26361 0.16571 0.0
H955 H 0.56479 0.26562 0.13294 0.0
C956 C 0.65966 0.26377 0.20447 0.0
C957 C 0.67594 0.24843 0.20759 0.0
C958 C 0.64406 0.26569 0.18565 0.0
C959 C 0.64455 0.25238 0.16947 0.0
C960 C 0.66094 0.2371 0.17257 0.0
C961 C 0.6764 0.23514 0.19141 0.0
C962 C 0.62285 0.25107 0.11049 0.0
C963 C 0.596 0.2567 0.11143 0.0
C964 C 0.63861 0.24986 0.12926 0.0
C965 C 0.62798 0.25431 0.14945 0.0
C966 C 0.60129 0.26027 0.15037 0.0
C967 C 0.58547 0.26143 0.13159 0.0
H968 H 0.19869 0.17066 0.64631 0.0
H969 H 0.27762 0.18669 0.62477 0.0
H970 H 0.20112 0.14299 0.62503 0.0
H971 H 0.27994 0.15917 0.60316 0.0
H972 H 0.28603 0.09932 0.58413 0.0
H973 H 0.28405 0.12682 0.60581 0.0
H974 H 0.20028 0.13267 0.58854 0.0
H975 H 0.20224 0.10502 0.56718 0.0
C976 C 0.21647 0.16834 0.63686 0.0
C977 C 0.23794 0.18089 0.63721 0.0
C978 C 0.21786 0.15249 0.62461 0.0
C979 C 0.24069 0.14882 0.61227 0.0
C980 C 0.2622 0.16137 0.61269 0.0
C981 C 0.26087 0.17718 0.62506 0.0
C982 C 0.26725 0.10656 0.58486 0.0
C983 C 0.24428 0.09996 0.57397 0.0
C984 C 0.26611 0.12235 0.59727 0.0
C985 C 0.24199 0.13201 0.599 0.0
C986 C 0.21907 0.12544 0.58795 0.0
C987 C 0.22019 0.10959 0.57564 0.0
H988 H 0.37922 0.77692 0.21835 0.0
H989 H 0.31806 0.75695 0.17429 0.0
H990 H 0.40989 0.78113 0.18818 0.0
H991 H 0.34894 0.76047 0.14436 0.0
H992 H 0.40125 0.78457 0.09211 0.0
H993 H 0.37116 0.78339 0.12278 0.0
H994 H 0.43547 0.76286 0.16324 0.0
H995 H 0.46595 0.76481 0.13272 0.0
C996 C 0.37227 0.77352 0.20223 0.0
C997 C 0.3462 0.76655 0.19876 0.0
C998 C 0.38995 0.77573 0.18497 0.0
C999 C 0.38192 0.7711 0.16383 0.0
C1000 C 0.35573 0.76437 0.16037 0.0
C1001 C 0.33811 0.76214 0.17759 0.0
C1002 C 0.40913 0.78008 0.10761 0.0
C1003 C 0.43606 0.77478 0.10991 0.0
C1004 C 0.39176 0.77919 0.12516 0.0
C1005 C 0.40083 0.77292 0.14547 0.0
C1006 C 0.42786 0.7679 0.14788 0.0
C1007 C 0.44526 0.7688 0.13031 0.0
H1008 H 0.8347 0.17024 0.38123 0.0
H1009 H 0.75506 0.18422 0.40177 0.0
H1010 H 0.83261 0.14243 0.40298 0.0
H1011 H 0.75272 0.15617 0.42317 0.0
H1012 H 0.77275 0.11511 0.47797 0.0
H1013 H 0.77383 0.14282 0.45599 0.0
H1014 H 0.80846 0.11298 0.40357 0.0
H1015 H 0.80708 0.08524 0.42537 0.0
C1016 C 0.81676 0.16738 0.39042 0.0
C1017 C 0.79507 0.17946 0.38982 0.0
C1018 C 0.81545 0.15136 0.40271 0.0
C1019 C 0.79249 0.14708 0.4148 0.0
C1020 C 0.77079 0.15915 0.41419 0.0
C1021 C 0.77202 0.17513 0.40177 0.0
C1022 C 0.78032 0.1144 0.46167 0.0
C1023 C 0.7899 0.09791 0.4535 0.0
C1024 C 0.78095 0.13029 0.44908 0.0
C1025 C 0.7913 0.13011 0.42805 0.0
C1026 C 0.80076 0.11364 0.41983 0.0
C1027 C 0.80001 0.09774 0.43237 0.0
H1028 H 0.38507 0.22734 0.8109 0.0
H1029 H 0.33542 0.27169 0.8314 0.0
H1030 H 0.41219 0.23032 0.84362 0.0
H1031 H 0.36349 0.27535 0.86358 0.0
H1032 H 0.4007 0.26301 0.93018 0.0
H1033 H 0.37345 0.26069 0.89732 0.0
H1034 H 0.44469 0.24963 0.8607 0.0
H1035 H 0.47179 0.25164 0.89366 0.0
C1036 C 0.37992 0.23774 0.82237 0.0
C1037 C 0.35793 0.24921 0.81849 0.0
C1038 C 0.39574 0.23963 0.84103 0.0
C1039 C 0.39011 0.25311 0.85628 0.0
C1040 C 0.36825 0.26468 0.85233 0.0
C1041 C 0.35234 0.26273 0.83371 0.0
C1042 C 0.41054 0.26024 0.91506 0.0
C1043 C 0.43838 0.25745 0.91453 0.0
C1044 C 0.39493 0.25894 0.8962 0.0
C1045 C 0.40682 0.25493 0.8763 0.0
C1046 C 0.43475 0.25239 0.87577 0.0
C1047 C 0.45032 0.25358 0.89465 0.0
H1048 H 0.2932 0.84952 0.39977 0.0
H1049 H 0.2309 0.87294 0.35963 0.0
H1050 H 0.28951 0.8747 0.42493 0.0
H1051 H 0.22752 0.89834 0.38449 0.0
H1052 H 0.2121 0.93421 0.44219 0.0
H1053 H 0.21376 0.90727 0.4196 0.0
H1054 H 0.30004 0.90628 0.42722 0.0
H1055 H 0.29822 0.93255 0.45075 0.0
C1056 C 0.27879 0.8601 0.39629 0.0
C1057 C 0.26239 0.85925 0.37768 0.0
C1058 C 0.2767 0.87458 0.41067 0.0
C1059 C 0.25831 0.88866 0.40673 0.0
C1060 C 0.24163 0.88764 0.38826 0.0
C1061 C 0.24359 0.87308 0.37396 0.0
C1062 C 0.23139 0.92808 0.43934 0.0
C1063 C 0.25503 0.93563 0.4483 0.0
C1064 C 0.23238 0.91274 0.42613 0.0
C1065 C 0.25704 0.90459 0.42146 0.0
C1066 C 0.28064 0.91203 0.43063 0.0
C1067 C 0.27964 0.9273 0.44391 0.0
H1068 H 0.64637 0.76349 0.80789 0.0
H1069 H 0.7055 0.79401 0.84453 0.0
H1070 H 0.61867 0.76053 0.84008 0.0
H1071 H 0.67761 0.7913 0.87661 0.0
H1072 H 0.63324 0.76648 0.93453 0.0
H1073 H 0.66126 0.76762 0.90241 0.0
H1074 H 0.5918 0.78092 0.86324 0.0
H1075 H 0.56369 0.77946 0.89531 0.0
C1076 C 0.65351 0.76947 0.82285 0.0
C1077 C 0.6781 0.77901 0.82367 0.0
C1078 C 0.63754 0.76792 0.84122 0.0
C1079 C 0.64593 0.77571 0.86087 0.0
C1080 C 0.6707 0.78503 0.86176 0.0
C1081 C 0.68654 0.78672 0.84334 0.0
C1082 C 0.62392 0.76947 0.91903 0.0
C1083 C 0.59626 0.7729 0.91745 0.0
C1084 C 0.64 0.77029 0.90067 0.0
C1085 C 0.62875 0.7744 0.8803 0.0
C1086 C 0.60102 0.77758 0.87868 0.0
C1087 C 0.58498 0.77691 0.89706 0.0
loop_
_geom_bond_atom_site_label_1
_geom_bond_atom_site_label_2
_geom_bond_distance
_geom_bond_site_symmetry_2
_ccdc_geom_bond_type
C0 C1 1.264 . S
C0 C5 1.479 . S
C0 C10 1.465 . S
C1 C0 1.264 . S
C1 C3 1.339 . S
C1 H28 0.931 . S
C2 C3 1.395 . S
C2 C4 1.320 . S
C3 C1 1.339 . S
C3 C2 1.395 . S
C3 H29 0.929 . S
C4 C2 1.320 . S
C4 C5 1.405 . S
C4 H30 0.930 . S
C5 C0 1.479 . S
C5 C4 1.405 . S
C5 H31 0.931 . S
U6 O7 2.454 . S
U6 O8 2.458 . S
U6 C9 2.984 . S
U6 C10 2.847 . S
U6 C23 2.882 . S
U6 O24 2.441 . S
U6 O25 2.420 . S
U6 O26 2.455 . S
U6 O27 2.449 . S
O7 U6 2.454 . S
O7 C9 1.353 . S
O8 U6 2.458 . S
O8 C9 1.286 . S
C9 U6 2.984 . S
C9 O7 1.353 . S
C9 O8 1.286 . S
C9 C11 1.363 . S
C10 C0 1.465 . S
C10 U6 2.847 . S
C10 O24 1.249 . S
C10 O25 1.202 . S
C11 C9 1.363 . S
C11 C13 1.408 . S
C11 C16 1.342 . S
C12 C13 1.310 . S
C12 C15 1.461 . S
C12 H32 0.932 . S
C13 C11 1.408 . S
C13 C12 1.310 . S
C13 H33 0.930 . S
C14 C15 1.474 . S
C14 C16 1.285 . S
C14 H34 0.929 . S
C15 C12 1.461 . S
C15 C14 1.474 . S
C16 C11 1.342 . S
C16 C14 1.285 . S
C16 H35 0.930 . S
C17 C20 1.424 . S
C17 C22 1.245 . S
C17 C23 1.428 . S
C18 C21 1.260 . S
C18 C22 1.477 . S
C18 H36 0.932 . S
C19 C20 1.384 . S
C19 C21 1.479 . S
C19 H37 0.929 . S
C20 C17 1.424 . S
C20 C19 1.384 . S
C20 H38 0.928 . S
C21 C18 1.260 . S
C21 C19 1.479 . S
C22 C17 1.245 . S
C22 C18 1.477 . S
C22 H39 0.932 . S
C23 U6 2.882 . S
C23 C17 1.428 . S
C23 O26 1.301 . S
C23 O27 1.282 . S
O24 U6 2.441 . S
O24 C10 1.249 . S
O25 U6 2.420 . S
O25 C10 1.202 . S
O26 U6 2.455 . S
O26 C23 1.301 . S
O27 U6 2.449 . S
O27 C23 1.282 . S
H28 C1 0.931 . S
H29 C3 0.929 . S
H30 C4 0.930 . S
H31 C5 0.931 . S
H32 C12 0.932 . S
H33 C13 0.930 . S
H34 C14 0.929 . S
H35 C16 0.930 . S
H36 C18 0.932 . S
H37 C19 0.929 . S
H38 C20 0.928 . S
H39 C22 0.932 . S
C40 C41 1.264 . S
C40 C45 1.479 . S
C40 C50 1.465 . S
C41 C40 1.264 . S
C41 C43 1.339 . S
C41 H68 0.931 . S
C42 C43 1.395 . S
C42 C44 1.320 . S
C43 C41 1.339 . S
C43 C42 1.395 . S
C43 H69 0.929 . S
C44 C42 1.320 . S
C44 C45 1.405 . S
C44 H70 0.930 . S
C45 C40 1.479 . S
C45 C44 1.405 . S
C45 H71 0.931 . S
U46 O47 2.454 . S
U46 O48 2.458 . S
U46 C49 2.984 . S
U46 C50 2.847 . S
U46 C63 2.882 . S
U46 O64 2.441 . S
U46 O65 2.420 . S
U46 O66 2.455 . S
U46 O67 2.449 . S
O47 U46 2.454 . S
O47 C49 1.353 . S
O48 U46 2.458 . S
O48 C49 1.286 . S
C49 U46 2.984 . S
C49 O47 1.353 . S
C49 O48 1.286 . S
C49 C51 1.363 . S
C50 C40 1.465 . S
C50 U46 2.847 . S
C50 O64 1.249 . S
C50 O65 1.202 . S
C51 C49 1.363 . S
C51 C53 1.408 . S
C51 C56 1.342 . S
C52 C53 1.310 . S
C52 C55 1.461 . S
C52 H72 0.932 . S
C53 C51 1.408 . S
C53 C52 1.310 . S
C53 H73 0.930 . S
C54 C55 1.474 . S
C54 C56 1.285 . S
C54 H74 0.929 . S
C55 C52 1.461 . S
C55 C54 1.474 . S
C56 C51 1.342 . S
C56 C54 1.285 . S
C56 H75 0.930 . S
C57 C60 1.424 . S
C57 C62 1.245 . S
C57 C63 1.428 . S
C58 C61 1.260 . S
C58 C62 1.477 . S
C58 H76 0.932 . S
C59 C60 1.384 . S
C59 C61 1.479 . S
C59 H77 0.929 . S
C60 C57 1.424 . S
C60 C59 1.384 . S
C60 H78 0.928 . S
C61 C58 1.260 . S
C61 C59 1.479 . S
C62 C57 1.245 . S
C62 C58 1.477 . S
C62 H79 0.932 . S
C63 U46 2.882 . S
C63 C57 1.428 . S
C63 O66 1.301 . S
C63 O67 1.282 . S
O64 U46 2.441 . S
O64 C50 1.249 . S
O65 U46 2.420 . S
O65 C50 1.202 . S
O66 U46 2.455 . S
O66 C63 1.301 . S
O67 U46 2.449 . S
O67 C63 1.282 . S
H68 C41 0.931 . S
H69 C43 0.929 . S
H70 C44 0.930 . S
H71 C45 0.931 . S
H72 C52 0.932 . S
H73 C53 0.930 . S
H74 C54 0.929 . S
H75 C56 0.930 . S
H76 C58 0.932 . S
H77 C59 0.929 . S
H78 C60 0.928 . S
H79 C62 0.932 . S
C80 C81 1.264 . S
C80 C85 1.479 . S
C80 C90 1.465 . S
C81 C80 1.264 . S
C81 C83 1.339 . S
C81 H108 0.931 . S
C82 C83 1.395 . S
C82 C84 1.320 . S
C83 C81 1.339 . S
C83 C82 1.395 . S
C83 H109 0.929 . S
C84 C82 1.320 . S
C84 C85 1.405 . S
C84 H110 0.930 . S
C85 C80 1.479 . S
C85 C84 1.405 . S
C85 H111 0.931 . S
U86 O87 2.454 . S
U86 O88 2.458 . S
U86 C89 2.984 . S
U86 C90 2.847 . S
U86 C103 2.882 . S
U86 O104 2.441 . S
U86 O105 2.420 . S
U86 O106 2.455 . S
U86 O107 2.449 . S
O87 U86 2.454 . S
O87 C89 1.353 . S
O88 U86 2.458 . S
O88 C89 1.286 . S
C89 U86 2.984 . S
C89 O87 1.353 . S
C89 O88 1.286 . S
C89 C91 1.363 . S
C90 C80 1.465 . S
C90 U86 2.847 . S
C90 O104 1.249 . S
C90 O105 1.202 . S
C91 C89 1.363 . S
C91 C93 1.408 . S
C91 C96 1.342 . S
C92 C93 1.310 . S
C92 C95 1.461 . S
C92 H112 0.932 . S
C93 C91 1.408 . S
C93 C92 1.310 . S
C93 H113 0.930 . S
C94 C95 1.474 . S
C94 C96 1.285 . S
C94 H114 0.929 . S
C95 C92 1.461 . S
C95 C94 1.474 . S
C96 C91 1.342 . S
C96 C94 1.285 . S
C96 H115 0.930 . S
C97 C100 1.424 . S
C97 C102 1.245 . S
C97 C103 1.428 . S
C98 C101 1.260 . S
C98 C102 1.477 . S
C98 H116 0.932 . S
C99 C100 1.384 . S
C99 C101 1.479 . S
C99 H117 0.929 . S
C100 C97 1.424 . S
C100 C99 1.384 . S
C100 H118 0.928 . S
C101 C98 1.260 . S
C101 C99 1.479 . S
C102 C97 1.245 . S
C102 C98 1.477 . S
C102 H119 0.932 . S
C103 U86 2.882 . S
C103 C97 1.428 . S
C103 O106 1.301 . S
C103 O107 1.282 . S
O104 U86 2.441 . S
O104 C90 1.249 . S
O105 U86 2.420 . S
O105 C90 1.202 . S
O106 U86 2.455 . S
O106 C103 1.301 . S
O107 U86 2.449 . S
O107 C103 1.282 . S
H108 C81 0.931 . S
H109 C83 0.929 . S
H110 C84 0.930 . S
H111 C85 0.931 . S
H112 C92 0.932 . S
H113 C93 0.930 . S
H114 C94 0.929 . S
H115 C96 0.930 . S
H116 C98 0.932 . S
H117 C99 0.929 . S
H118 C100 0.928 . S
H119 C102 0.932 . S
C120 C121 1.264 . S
C120 C125 1.479 . S
C120 C130 1.465 . S
C121 C120 1.264 . S
C121 C123 1.339 . S
C121 H148 0.931 . S
C122 C123 1.395 . S
C122 C124 1.320 . S
C123 C121 1.339 . S
C123 C122 1.395 . S
C123 H149 0.929 . S
C124 C122 1.320 . S
C124 C125 1.405 . S
C124 H150 0.930 . S
C125 C120 1.479 . S
C125 C124 1.405 . S
C125 H151 0.931 . S
U126 O127 2.454 . S
U126 O128 2.458 . S
U126 C129 2.984 . S
U126 C130 2.847 . S
U126 C143 2.882 . S
U126 O144 2.441 . S
U126 O145 2.420 . S
U126 O146 2.455 . S
U126 O147 2.449 . S
O127 U126 2.454 . S
O127 C129 1.353 . S
O128 U126 2.458 . S
O128 C129 1.286 . S
C129 U126 2.984 . S
C129 O127 1.353 . S
C129 O128 1.286 . S
C129 C131 1.363 . S
C130 C120 1.465 . S
C130 U126 2.847 . S
C130 O144 1.249 . S
C130 O145 1.202 . S
C131 C129 1.363 . S
C131 C133 1.408 . S
C131 C136 1.342 . S
C132 C133 1.310 . S
C132 C135 1.461 . S
C132 H152 0.932 . S
C133 C131 1.408 . S
C133 C132 1.310 . S
C133 H153 0.930 . S
C134 C135 1.474 . S
C134 C136 1.285 . S
C134 H154 0.929 . S
C135 C132 1.461 . S
C135 C134 1.474 . S
C136 C131 1.342 . S
C136 C134 1.285 . S
C136 H155 0.930 . S
C137 C140 1.424 . S
C137 C142 1.245 . S
C137 C143 1.428 . S
C138 C141 1.260 . S
C138 C142 1.477 . S
C138 H156 0.932 . S
C139 C140 1.384 . S
C139 C141 1.479 . S
C139 H157 0.929 . S
C140 C137 1.424 . S
C140 C139 1.384 . S
C140 H158 0.928 . S
C141 C138 1.260 . S
C141 C139 1.479 . S
C142 C137 1.245 . S
C142 C138 1.477 . S
C142 H159 0.932 . S
C143 U126 2.882 . S
C143 C137 1.428 . S
C143 O146 1.301 . S
C143 O147 1.282 . S
O144 U126 2.441 . S
O144 C130 1.249 . S
O145 U126 2.420 . S
O145 C130 1.202 . S
O146 U126 2.455 . S
O146 C143 1.301 . S
O147 U126 2.449 . S
O147 C143 1.282 . S
H148 C121 0.931 . S
H149 C123 0.929 . S
H150 C124 0.930 . S
H151 C125 0.931 . S
H152 C132 0.932 . S
H153 C133 0.930 . S
H154 C134 0.929 . S
H155 C136 0.930 . S
H156 C138 0.932 . S
H157 C139 0.929 . S
H158 C140 0.928 . S
H159 C142 0.932 . S
C160 C161 1.264 . S
C160 C165 1.479 . S
C160 C170 1.465 . S
C161 C160 1.264 . S
C161 C163 1.339 . S
C161 H188 0.931 . S
C162 C163 1.395 . S
C162 C164 1.320 . S
C163 C161 1.339 . S
C163 C162 1.395 . S
C163 H189 0.929 . S
C164 C162 1.320 . S
C164 C165 1.405 . S
C164 H190 0.930 . S
C165 C160 1.479 . S
C165 C164 1.405 . S
C165 H191 0.931 . S
U166 O167 2.454 . S
U166 O168 2.458 . S
U166 C169 2.984 . S
U166 C170 2.847 . S
U166 C183 2.882 . S
U166 O184 2.441 . S
U166 O185 2.420 . S
U166 O186 2.455 . S
U166 O187 2.449 . S
O167 U166 2.454 . S
O167 C169 1.353 . S
O168 U166 2.458 . S
O168 C169 1.286 . S
C169 U166 2.984 . S
C169 O167 1.353 . S
C169 O168 1.286 . S
C169 C171 1.363 . S
C170 C160 1.465 . S
C170 U166 2.847 . S
C170 O184 1.249 . S
C170 O185 1.202 . S
C171 C169 1.363 . S
C171 C173 1.408 . S
C171 C176 1.342 . S
C172 C173 1.310 . S
C172 C175 1.461 . S
C172 H192 0.932 . S
C173 C171 1.408 . S
C173 C172 1.310 . S
C173 H193 0.930 . S
C174 C175 1.474 . S
C174 C176 1.285 . S
C174 H194 0.929 . S
C175 C172 1.461 . S
C175 C174 1.474 . S
C176 C171 1.342 . S
C176 C174 1.285 . S
C176 H195 0.930 . S
C177 C180 1.424 . S
C177 C182 1.245 . S
C177 C183 1.428 . S
C178 C181 1.260 . S
C178 C182 1.477 . S
C178 H196 0.932 . S
C179 C180 1.384 . S
C179 C181 1.479 . S
C179 H197 0.929 . S
C180 C177 1.424 . S
C180 C179 1.384 . S
C180 H198 0.928 . S
C181 C178 1.260 . S
C181 C179 1.479 . S
C182 C177 1.245 . S
C182 C178 1.477 . S
C182 H199 0.932 . S
C183 U166 2.882 . S
C183 C177 1.428 . S
C183 O186 1.301 . S
C183 O187 1.282 . S
O184 U166 2.441 . S
O184 C170 1.249 . S
O185 U166 2.420 . S
O185 C170 1.202 . S
O186 U166 2.455 . S
O186 C183 1.301 . S
O187 U166 2.449 . S
O187 C183 1.282 . S
H188 C161 0.931 . S
H189 C163 0.929 . S
H190 C164 0.930 . S
H191 C165 0.931 . S
H192 C172 0.932 . S
H193 C173 0.930 . S
H194 C174 0.929 . S
H195 C176 0.930 . S
H196 C178 0.932 . S
H197 C179 0.929 . S
H198 C180 0.928 . S
H199 C182 0.932 . S
C200 C201 1.264 . S
C200 C205 1.479 . S
C200 C210 1.465 . S
C201 C200 1.264 . S
C201 C203 1.339 . S
C201 H228 0.931 . S
C202 C203 1.395 . S
C202 C204 1.320 . S
C203 C201 1.339 . S
C203 C202 1.395 . S
C203 H229 0.929 . S
C204 C202 1.320 . S
C204 C205 1.405 . S
C204 H230 0.930 . S
C205 C200 1.479 . S
C205 C204 1.405 . S
C205 H231 0.931 . S
U206 O207 2.454 . S
U206 O208 2.458 . S
U206 C209 2.984 . S
U206 C210 2.847 . S
U206 C223 2.882 . S
U206 O224 2.441 . S
U206 O225 2.420 . S
U206 O226 2.455 . S
U206 O227 2.449 . S
O207 U206 2.454 . S
O207 C209 1.353 . S
O208 U206 2.458 . S
O208 C209 1.286 . S
C209 U206 2.984 . S
C209 O207 1.353 . S
C209 O208 1.286 . S
C209 C211 1.363 . S
C210 C200 1.465 . S
C210 U206 2.847 . S
C210 O224 1.249 . S
C210 O225 1.202 . S
C211 C209 1.363 . S
C211 C213 1.408 . S
C211 C216 1.342 . S
C212 C213 1.310 . S
C212 C215 1.461 . S
C212 H232 0.932 . S
C213 C211 1.408 . S
C213 C212 1.310 . S
C213 H233 0.930 . S
C214 C215 1.474 . S
C214 C216 1.285 . S
C214 H234 0.929 . S
C215 C212 1.461 . S
C215 C214 1.474 . S
C216 C211 1.342 . S
C216 C214 1.285 . S
C216 H235 0.930 . S
C217 C220 1.424 . S
C217 C222 1.245 . S
C217 C223 1.428 . S
C218 C221 1.260 . S
C218 C222 1.477 . S
C218 H236 0.932 . S
C219 C220 1.384 . S
C219 C221 1.479 . S
C219 H237 0.929 . S
C220 C217 1.424 . S
C220 C219 1.384 . S
C220 H238 0.928 . S
C221 C218 1.260 . S
C221 C219 1.479 . S
C222 C217 1.245 . S
C222 C218 1.477 . S
C222 H239 0.932 . S
C223 U206 2.882 . S
C223 C217 1.428 . S
C223 O226 1.301 . S
C223 O227 1.282 . S
O224 U206 2.441 . S
O224 C210 1.249 . S
O225 U206 2.420 . S
O225 C210 1.202 . S
O226 U206 2.455 . S
O226 C223 1.301 . S
O227 U206 2.449 . S
O227 C223 1.282 . S
H228 C201 0.931 . S
H229 C203 0.929 . S
H230 C204 0.930 . S
H231 C205 0.931 . S
H232 C212 0.932 . S
H233 C213 0.930 . S
H234 C214 0.929 . S
H235 C216 0.930 . S
H236 C218 0.932 . S
H237 C219 0.929 . S
H238 C220 0.928 . S
H239 C222 0.932 . S
C240 C241 1.264 . S
C240 C245 1.479 . S
C240 C250 1.465 . S
C241 C240 1.264 . S
C241 C243 1.339 . S
C241 H268 0.931 . S
C242 C243 1.395 . S
C242 C244 1.320 . S
C243 C241 1.339 . S
C243 C242 1.395 . S
C243 H269 0.929 . S
C244 C242 1.320 . S
C244 C245 1.405 . S
C244 H270 0.930 . S
C245 C240 1.479 . S
C245 C244 1.405 . S
C245 H271 0.931 . S
U246 O247 2.454 . S
U246 O248 2.458 . S
U246 C249 2.984 . S
U246 C250 2.847 . S
U246 C263 2.882 . S
U246 O264 2.441 . S
U246 O265 2.420 . S
U246 O266 2.455 . S
U246 O267 2.449 . S
O247 U246 2.454 . S
O247 C249 1.353 . S
O248 U246 2.458 . S
O248 C249 1.286 . S
C249 U246 2.984 . S
C249 O247 1.353 . S
C249 O248 1.286 . S
C249 C251 1.363 . S
C250 C240 1.465 . S
C250 U246 2.847 . S
C250 O264 1.249 . S
C250 O265 1.202 . S
C251 C249 1.363 . S
C251 C253 1.408 . S
C251 C256 1.342 . S
C252 C253 1.310 . S
C252 C255 1.461 . S
C252 H272 0.932 . S
C253 C251 1.408 . S
C253 C252 1.310 . S
C253 H273 0.930 . S
C254 C255 1.474 . S
C254 C256 1.285 . S
C254 H274 0.929 . S
C255 C252 1.461 . S
C255 C254 1.474 . S
C256 C251 1.342 . S
C256 C254 1.285 . S
C256 H275 0.930 . S
C257 C260 1.424 . S
C257 C262 1.245 . S
C257 C263 1.428 . S
C258 C261 1.260 . S
C258 C262 1.477 . S
C258 H276 0.932 . S
C259 C260 1.384 . S
C259 C261 1.479 . S
C259 H277 0.929 . S
C260 C257 1.424 . S
C260 C259 1.384 . S
C260 H278 0.928 . S
C261 C258 1.260 . S
C261 C259 1.479 . S
C262 C257 1.245 . S
C262 C258 1.477 . S
C262 H279 0.932 . S
C263 U246 2.882 . S
C263 C257 1.428 . S
C263 O266 1.301 . S
C263 O267 1.282 . S
O264 U246 2.441 . S
O264 C250 1.249 . S
O265 U246 2.420 . S
O265 C250 1.202 . S
O266 U246 2.455 . S
O266 C263 1.301 . S
O267 U246 2.449 . S
O267 C263 1.282 . S
H268 C241 0.931 . S
H269 C243 0.929 . S
H270 C244 0.930 . S
H271 C245 0.931 . S
H272 C252 0.932 . S
H273 C253 0.930 . S
H274 C254 0.929 . S
H275 C256 0.930 . S
H276 C258 0.932 . S
H277 C259 0.929 . S
H278 C260 0.928 . S
H279 C262 0.932 . S
C280 C281 1.264 . S
C280 C285 1.479 . S
C280 C290 1.465 . S
C281 C280 1.264 . S
C281 C283 1.339 . S
C281 H308 0.931 . S
C282 C283 1.395 . S
C282 C284 1.320 . S
C283 C281 1.339 . S
C283 C282 1.395 . S
C283 H309 0.929 . S
C284 C282 1.320 . S
C284 C285 1.405 . S
C284 H310 0.930 . S
C285 C280 1.479 . S
C285 C284 1.405 . S
C285 H311 0.931 . S
U286 O287 2.454 . S
U286 O288 2.458 . S
U286 C289 2.984 . S
U286 C290 2.847 . S
U286 C303 2.882 . S
U286 O304 2.441 . S
U286 O305 2.420 . S
U286 O306 2.455 . S
U286 O307 2.449 . S
O287 U286 2.454 . S
O287 C289 1.353 . S
O288 U286 2.458 . S
O288 C289 1.286 . S
C289 U286 2.984 . S
C289 O287 1.353 . S
C289 O288 1.286 . S
C289 C291 1.363 . S
C290 C280 1.465 . S
C290 U286 2.847 . S
C290 O304 1.249 . S
C290 O305 1.202 . S
C291 C289 1.363 . S
C291 C293 1.408 . S
C291 C296 1.342 . S
C292 C293 1.310 . S
C292 C295 1.461 . S
C292 H312 0.932 . S
C293 C291 1.408 . S
C293 C292 1.310 . S
C293 H313 0.930 . S
C294 C295 1.474 . S
C294 C296 1.285 . S
C294 H314 0.929 . S
C295 C292 1.461 . S
C295 C294 1.474 . S
C296 C291 1.342 . S
C296 C294 1.285 . S
C296 H315 0.930 . S
C297 C300 1.424 . S
C297 C302 1.245 . S
C297 C303 1.428 . S
C298 C301 1.260 . S
C298 C302 1.477 . S
C298 H316 0.932 . S
C299 C300 1.384 . S
C299 C301 1.479 . S
C299 H317 0.929 . S
C300 C297 1.424 . S
C300 C299 1.384 . S
C300 H318 0.928 . S
C301 C298 1.260 . S
C301 C299 1.479 . S
C302 C297 1.245 . S
C302 C298 1.477 . S
C302 H319 0.932 . S
C303 U286 2.882 . S
C303 C297 1.428 . S
C303 O306 1.301 . S
C303 O307 1.282 . S
O304 U286 2.441 . S
O304 C290 1.249 . S
O305 U286 2.420 . S
O305 C290 1.202 . S
O306 U286 2.455 . S
O306 C303 1.301 . S
O307 U286 2.449 . S
O307 C303 1.282 . S
H308 C281 0.931 . S
H309 C283 0.929 . S
H310 C284 0.930 . S
H311 C285 0.931 . S
H312 C292 0.932 . S
H313 C293 0.930 . S
H314 C294 0.929 . S
H315 C296 0.930 . S
H316 C298 0.932 . S
H317 C299 0.929 . S
H318 C300 0.928 . S
H319 C302 0.932 . S
H320 C339 0.949 . S
H321 C340 0.950 . S
H322 C342 0.950 . S
H323 C343 0.950 . S
H324 C345 0.950 . S
H325 C348 0.950 . S
H326 C349 0.950 . S
H327 C351 0.951 . S
H328 C352 0.949 . S
H329 C354 0.949 . S
H330 C355 0.950 . S
H331 C357 0.950 . S
H332 C358 0.950 . S
H333 C360 0.950 . S
H334 C363 0.950 . S
H335 C364 0.950 . S
H336 C366 0.951 . S
H337 C367 0.949 . S
C338 C339 1.376 . S
C338 C343 1.386 . S
C338 C344 1.483 . S
C339 H320 0.949 . S
C339 C338 1.376 . S
C339 C340 1.397 . S
C340 H321 0.950 . S
C340 C339 1.397 . S
C340 C341 1.391 . S
C341 C340 1.391 . S
C341 C342 1.405 . S
C342 H322 0.950 . S
C342 C341 1.405 . S
C342 C343 1.367 . S
C343 H323 0.950 . S
C343 C338 1.386 . S
C343 C342 1.367 . S
C344 C338 1.483 . S
C344 C345 1.382 . S
C344 C346 1.403 1_655 S
C345 H324 0.950 . S
C345 C344 1.382 . S
C345 C361 1.411 . S
C346 C344 1.403 1_455 S
C346 C347 1.489 . S
C346 C360 1.411 . S
C347 C346 1.489 . S
C347 C348 1.383 . S
C347 C352 1.382 . S
C348 H325 0.950 . S
C348 C347 1.383 . S
C348 C349 1.395 . S
C349 H326 0.950 . S
C349 C348 1.395 . S
C349 C350 1.288 . S
C350 C349 1.288 . S
C350 C351 1.392 . S
C351 H327 0.951 . S
C351 C350 1.392 . S
C351 C352 1.392 . S
C352 H328 0.949 . S
C352 C347 1.382 . S
C352 C351 1.392 . S
C353 C354 1.376 . S
C353 C358 1.386 . S
C353 C359 1.483 . S
C354 H329 0.949 . S
C354 C353 1.376 . S
C354 C355 1.397 . S
C355 H330 0.950 . S
C355 C354 1.397 . S
C355 C356 1.391 . S
C356 C355 1.391 . S
C356 C357 1.405 . S
C357 H331 0.950 . S
C357 C356 1.405 . S
C357 C358 1.367 . S
C358 H332 0.950 . S
C358 C353 1.386 . S
C358 C357 1.367 . S
C359 C353 1.483 . S
C359 C360 1.382 . S
C359 C361 1.403 1_455 S
C360 H333 0.950 . S
C360 C346 1.411 . S
C360 C359 1.382 . S
C361 C345 1.411 . S
C361 C359 1.403 1_655 S
C361 C362 1.489 . S
C362 C361 1.489 . S
C362 C363 1.383 . S
C362 C367 1.382 . S
C363 H334 0.950 . S
C363 C362 1.383 . S
C363 C364 1.395 . S
C364 H335 0.950 . S
C364 C363 1.395 . S
C364 C365 1.288 . S
C365 C364 1.288 . S
C365 C366 1.392 . S
C366 H336 0.951 . S
C366 C365 1.392 . S
C366 C367 1.392 . S
C367 H337 0.949 . S
C367 C362 1.382 . S
C367 C366 1.392 . S
H368 C387 0.949 . S
H369 C388 0.950 . S
H370 C390 0.950 . S
H371 C391 0.950 . S
H372 C393 0.950 . S
H373 C396 0.950 . S
H374 C397 0.950 . S
H375 C399 0.951 . S
H376 C400 0.949 . S
H377 C402 0.949 . S
H378 C403 0.950 . S
H379 C405 0.950 . S
H380 C406 0.950 . S
H381 C408 0.950 . S
H382 C411 0.950 . S
H383 C412 0.950 . S
H384 C414 0.951 . S
H385 C415 0.949 . S
C386 C387 1.376 . S
C386 C391 1.386 . S
C386 C392 1.483 . S
C387 H368 0.949 . S
C387 C386 1.376 . S
C387 C388 1.397 . S
C388 H369 0.950 . S
C388 C387 1.397 . S
C388 C389 1.391 . S
C389 C388 1.391 . S
C389 C390 1.405 . S
C390 H370 0.950 . S
C390 C389 1.405 . S
C390 C391 1.367 . S
C391 H371 0.950 . S
C391 C386 1.386 . S
C391 C390 1.367 . S
C392 C386 1.483 . S
C392 C393 1.382 . S
C392 C394 1.403 1_455 S
C393 H372 0.950 . S
C393 C392 1.382 . S
C393 C409 1.411 . S
C394 C392 1.403 1_655 S
C394 C395 1.489 . S
C394 C408 1.411 . S
C395 C394 1.489 . S
C395 C396 1.383 . S
C395 C400 1.382 . S
C396 H373 0.950 . S
C396 C395 1.383 . S
C396 C397 1.395 . S
C397 H374 0.950 . S
C397 C396 1.395 . S
C397 C398 1.288 . S
C398 C397 1.288 . S
C398 C399 1.392 . S
C399 H375 0.951 . S
C399 C398 1.392 . S
C399 C400 1.392 . S
C400 H376 0.949 . S
C400 C395 1.382 . S
C400 C399 1.392 . S
C401 C402 1.376 . S
C401 C406 1.386 . S
C401 C407 1.483 . S
C402 H377 0.949 . S
C402 C401 1.376 . S
C402 C403 1.397 . S
C403 H378 0.950 . S
C403 C402 1.397 . S
C403 C404 1.391 . S
C404 C403 1.391 . S
C404 C405 1.405 . S
C405 H379 0.950 . S
C405 C404 1.405 . S
C405 C406 1.367 . S
C406 H380 0.950 . S
C406 C401 1.386 . S
C406 C405 1.367 . S
C407 C401 1.483 . S
C407 C408 1.382 . S
C407 C409 1.403 1_655 S
C408 H381 0.950 . S
C408 C394 1.411 . S
C408 C407 1.382 . S
C409 C393 1.411 . S
C409 C407 1.403 1_455 S
C409 C410 1.489 . S
C410 C409 1.489 . S
C410 C411 1.383 . S
C410 C415 1.382 . S
C411 H382 0.950 . S
C411 C410 1.383 . S
C411 C412 1.395 . S
C412 H383 0.950 . S
C412 C411 1.395 . S
C412 C413 1.288 . S
C413 C412 1.288 . S
C413 C414 1.392 . S
C414 H384 0.951 . S
C414 C413 1.392 . S
C414 C415 1.392 . S
C415 H385 0.949 . S
C415 C410 1.382 . S
C415 C414 1.392 . S
H416 C435 0.949 . S
H417 C436 0.950 . S
H418 C438 0.950 . S
H419 C439 0.950 . S
H420 C441 0.950 . S
H421 C444 0.950 . S
H422 C445 0.950 . S
H423 C447 0.951 . S
H424 C448 0.949 . S
H425 C450 0.949 . S
H426 C451 0.950 . S
H427 C453 0.950 . S
H428 C454 0.950 . S
H429 C456 0.950 . S
H430 C459 0.950 . S
H431 C460 0.950 . S
H432 C462 0.951 . S
H433 C463 0.949 . S
C434 C435 1.376 . S
C434 C439 1.386 . S
C434 C440 1.483 . S
C435 H416 0.949 . S
C435 C434 1.376 . S
C435 C436 1.397 . S
C436 H417 0.950 . S
C436 C435 1.397 . S
C436 C437 1.391 . S
C437 C436 1.391 . S
C437 C438 1.405 . S
C438 H418 0.950 . S
C438 C437 1.405 . S
C438 C439 1.367 . S
C439 H419 0.950 . S
C439 C434 1.386 . S
C439 C438 1.367 . S
C440 C434 1.483 . S
C440 C441 1.382 1_565 S
C440 C442 1.403 . S
C441 H420 0.950 . S
C441 C440 1.382 1_545 S
C441 C457 1.411 . S
C442 C440 1.403 . S
C442 C443 1.489 . S
C442 C456 1.411 1_565 S
C443 C442 1.489 . S
C443 C444 1.383 . S
C443 C448 1.382 . S
C444 H421 0.950 . S
C444 C443 1.383 . S
C444 C445 1.395 . S
C445 H422 0.950 . S
C445 C444 1.395 . S
C445 C446 1.288 . S
C446 C445 1.288 . S
C446 C447 1.392 . S
C447 H423 0.951 . S
C447 C446 1.392 . S
C447 C448 1.392 . S
C448 H424 0.949 . S
C448 C443 1.382 . S
C448 C447 1.392 . S
C449 C450 1.376 . S
C449 C454 1.386 . S
C449 C455 1.483 . S
C450 H425 0.949 . S
C450 C449 1.376 . S
C450 C451 1.397 . S
C451 H426 0.950 . S
C451 C450 1.397 . S
C451 C452 1.391 . S
C452 C451 1.391 . S
C452 C453 1.405 . S
C453 H427 0.950 . S
C453 C452 1.405 . S
C453 C454 1.367 . S
C454 H428 0.950 . S
C454 C449 1.386 . S
C454 C453 1.367 . S
C455 C449 1.483 . S
C455 C456 1.382 . S
C455 C457 1.403 . S
C456 H429 0.950 . S
C456 C442 1.411 1_545 S
C456 C455 1.382 . S
C457 C441 1.411 . S
C457 C455 1.403 . S
C457 C458 1.489 . S
C458 C457 1.489 . S
C458 C459 1.383 . S
C458 C463 1.382 . S
C459 H430 0.950 . S
C459 C458 1.383 . S
C459 C460 1.395 . S
C460 H431 0.950 . S
C460 C459 1.395 . S
C460 C461 1.288 . S
C461 C460 1.288 . S
C461 C462 1.392 . S
C462 H432 0.951 . S
C462 C461 1.392 . S
C462 C463 1.392 . S
C463 H433 0.949 . S
C463 C458 1.382 . S
C463 C462 1.392 . S
H464 C483 0.949 . S
H465 C484 0.950 . S
H466 C486 0.950 . S
H467 C487 0.950 . S
H468 C489 0.950 . S
H469 C492 0.950 . S
H470 C493 0.950 . S
H471 C495 0.951 . S
H472 C496 0.949 . S
H473 C498 0.949 . S
H474 C499 0.950 . S
H475 C501 0.950 . S
H476 C502 0.950 . S
H477 C504 0.950 . S
H478 C507 0.950 . S
H479 C508 0.950 . S
H480 C510 0.951 . S
H481 C511 0.949 . S
C482 C483 1.376 . S
C482 C487 1.386 . S
C482 C488 1.483 . S
C483 H464 0.949 . S
C483 C482 1.376 . S
C483 C484 1.397 . S
C484 H465 0.950 . S
C484 C483 1.397 . S
C484 C485 1.391 . S
C485 C484 1.391 . S
C485 C486 1.405 . S
C486 H466 0.950 . S
C486 C485 1.405 . S
C486 C487 1.367 . S
C487 H467 0.950 . S
C487 C482 1.386 . S
C487 C486 1.367 . S
C488 C482 1.483 . S
C488 C489 1.382 1_556 S
C488 C490 1.403 . S
C489 H468 0.950 . S
C489 C488 1.382 1_554 S
C489 C505 1.411 . S
C490 C488 1.403 . S
C490 C491 1.489 . S
C490 C504 1.411 1_556 S
C491 C490 1.489 . S
C491 C492 1.383 . S
C491 C496 1.382 . S
C492 H469 0.950 . S
C492 C491 1.383 . S
C492 C493 1.395 . S
C493 H470 0.950 . S
C493 C492 1.395 . S
C493 C494 1.288 . S
C494 C493 1.288 . S
C494 C495 1.392 . S
C495 H471 0.951 . S
C495 C494 1.392 . S
C495 C496 1.392 . S
C496 H472 0.949 . S
C496 C491 1.382 . S
C496 C495 1.392 . S
C497 C498 1.376 . S
C497 C502 1.386 . S
C497 C503 1.483 . S
C498 H473 0.949 . S
C498 C497 1.376 . S
C498 C499 1.397 . S
C499 H474 0.950 . S
C499 C498 1.397 . S
C499 C500 1.391 . S
C500 C499 1.391 . S
C500 C501 1.405 . S
C501 H475 0.950 . S
C501 C500 1.405 . S
C501 C502 1.367 . S
C502 H476 0.950 . S
C502 C497 1.386 . S
C502 C501 1.367 . S
C503 C497 1.483 . S
C503 C504 1.382 . S
C503 C505 1.403 . S
C504 H477 0.950 . S
C504 C490 1.411 1_554 S
C504 C503 1.382 . S
C505 C489 1.411 . S
C505 C503 1.403 . S
C505 C506 1.489 . S
C506 C505 1.489 . S
C506 C507 1.383 . S
C506 C511 1.382 . S
C507 H478 0.950 . S
C507 C506 1.383 . S
C507 C508 1.395 . S
C508 H479 0.950 . S
C508 C507 1.395 . S
C508 C509 1.288 . S
C509 C508 1.288 . S
C509 C510 1.392 . S
C510 H480 0.951 . S
C510 C509 1.392 . S
C510 C511 1.392 . S
C511 H481 0.949 . S
C511 C506 1.382 . S
C511 C510 1.392 . S
H512 C531 0.949 . S
H513 C532 0.950 . S
H514 C534 0.950 . S
H515 C535 0.950 . S
H516 C537 0.952 . S
H517 C540 0.950 . S
H518 C541 0.950 . S
H519 C543 0.951 . S
H520 C544 0.949 . S
H521 C546 0.949 . S
H522 C547 0.950 . S
H523 C549 0.950 . S
H524 C550 0.950 . S
H525 C552 0.950 . S
H526 C555 0.950 . S
H527 C556 0.950 . S
H528 C558 0.951 . S
H529 C559 0.949 . S
C530 C531 1.376 . S
C530 C535 1.386 . S
C530 C536 1.483 . S
C531 H512 0.949 . S
C531 C530 1.376 . S
C531 C532 1.397 . S
C532 H513 0.950 . S
C532 C531 1.397 . S
C532 C533 1.391 . S
C533 C532 1.391 . S
C533 C534 1.405 . S
C534 H514 0.950 . S
C534 C533 1.405 . S
C534 C535 1.367 . S
C535 H515 0.950 . S
C535 C530 1.386 . S
C535 C534 1.367 . S
C536 C530 1.483 . S
C536 C537 1.382 1_565 S
C536 C538 1.403 . S
C537 H516 0.952 . S
C537 C536 1.382 1_545 S
C537 C553 1.411 . S
C538 C536 1.403 . S
C538 C539 1.489 . S
C538 C552 1.411 1_565 S
C539 C538 1.489 . S
C539 C540 1.383 . S
C539 C544 1.382 . S
C540 H517 0.950 . S
C540 C539 1.383 . S
C540 C541 1.395 . S
C541 H518 0.950 . S
C541 C540 1.395 . S
C541 C542 1.288 . S
C542 C541 1.288 . S
C542 C543 1.392 . S
C543 H519 0.951 . S
C543 C542 1.392 . S
C543 C544 1.392 . S
C544 H520 0.949 . S
C544 C539 1.382 . S
C544 C543 1.392 . S
C545 C546 1.376 . S
C545 C550 1.386 . S
C545 C551 1.483 . S
C546 H521 0.949 . S
C546 C545 1.376 . S
C546 C547 1.397 . S
C547 H522 0.950 . S
C547 C546 1.397 . S
C547 C548 1.391 . S
C548 C547 1.391 . S
C548 C549 1.405 . S
C549 H523 0.950 . S
C549 C548 1.405 . S
C549 C550 1.367 . S
C550 H524 0.950 . S
C550 C545 1.386 . S
C550 C549 1.367 . S
C551 C545 1.483 . S
C551 C552 1.382 . S
C551 C553 1.403 . S
C552 H525 0.950 . S
C552 C538 1.411 1_545 S
C552 C551 1.382 . S
C553 C537 1.411 . S
C553 C551 1.403 . S
C553 C554 1.489 . S
C554 C553 1.489 . S
C554 C555 1.383 . S
C554 C559 1.382 . S
C555 H526 0.950 . S
C555 C554 1.383 . S
C555 C556 1.395 . S
C556 H527 0.950 . S
C556 C555 1.395 . S
C556 C557 1.288 . S
C557 C556 1.288 . S
C557 C558 1.392 . S
C558 H528 0.951 . S
C558 C557 1.392 . S
C558 C559 1.392 . S
C559 H529 0.949 . S
C559 C554 1.382 . S
C559 C558 1.392 . S
H560 C579 0.949 . S
H561 C580 0.950 . S
H562 C582 0.950 . S
H563 C583 0.950 . S
H564 C585 0.950 . S
H565 C588 0.950 . S
H566 C589 0.950 . S
H567 C591 0.951 . S
H568 C592 0.949 . S
H569 C594 0.949 . S
H570 C595 0.950 . S
H571 C597 0.950 . S
H572 C598 0.950 . S
H573 C600 0.950 . S
H574 C603 0.950 . S
H575 C604 0.950 . S
H576 C606 0.951 . S
H577 C607 0.949 . S
C578 C579 1.376 . S
C578 C583 1.386 . S
C578 C584 1.483 . S
C579 H560 0.949 . S
C579 C578 1.376 . S
C579 C580 1.397 . S
C580 H561 0.950 . S
C580 C579 1.397 . S
C580 C581 1.391 . S
C581 C580 1.391 . S
C581 C582 1.405 . S
C582 H562 0.950 . S
C582 C581 1.405 . S
C582 C583 1.367 . S
C583 H563 0.950 . S
C583 C578 1.386 . S
C583 C582 1.367 . S
C584 C578 1.483 . S
C584 C585 1.382 1_556 S
C584 C586 1.403 . S
C585 H564 0.950 . S
C585 C584 1.382 1_554 S
C585 C601 1.411 . S
C586 C584 1.403 . S
C586 C587 1.489 . S
C586 C600 1.411 1_556 S
C587 C586 1.489 . S
C587 C588 1.383 . S
C587 C592 1.382 . S
C588 H565 0.950 . S
C588 C587 1.383 . S
C588 C589 1.395 . S
C589 H566 0.950 . S
C589 C588 1.395 . S
C589 C590 1.288 . S
C590 C589 1.288 . S
C590 C591 1.392 . S
C591 H567 0.951 . S
C591 C590 1.392 . S
C591 C592 1.392 . S
C592 H568 0.949 . S
C592 C587 1.382 . S
C592 C591 1.392 . S
C593 C594 1.376 . S
C593 C598 1.386 . S
C593 C599 1.483 . S
C594 H569 0.949 . S
C594 C593 1.376 . S
C594 C595 1.397 . S
C595 H570 0.950 . S
C595 C594 1.397 . S
C595 C596 1.391 . S
C596 C595 1.391 . S
C596 C597 1.405 . S
C597 H571 0.950 . S
C597 C596 1.405 . S
C597 C598 1.367 . S
C598 H572 0.950 . S
C598 C593 1.386 . S
C598 C597 1.367 . S
C599 C593 1.483 . S
C599 C600 1.382 . S
C599 C601 1.403 . S
C600 H573 0.950 . S
C600 C586 1.411 1_554 S
C600 C599 1.382 . S
C601 C585 1.411 . S
C601 C599 1.403 . S
C601 C602 1.489 . S
C602 C601 1.489 . S
C602 C603 1.383 . S
C602 C607 1.382 . S
C603 H574 0.950 . S
C603 C602 1.383 . S
C603 C604 1.395 . S
C604 H575 0.950 . S
C604 C603 1.395 . S
C604 C605 1.288 . S
C605 C604 1.288 . S
C605 C606 1.392 . S
C606 H576 0.951 . S
C606 C605 1.392 . S
C606 C607 1.392 . S
C607 H577 0.949 . S
C607 C602 1.382 . S
C607 C606 1.392 . S
H608 C616 0.950 . S
H609 C621 0.950 . S
H610 C618 0.950 . S
H611 C620 0.950 . S
H612 C622 0.950 . S
H613 C624 0.950 . S
H614 C626 0.950 . S
H615 C627 0.950 . S
C616 H608 0.950 . S
C616 C617 1.386 . S
C616 C618 1.391 . S
C617 C616 1.386 . S
C617 C621 1.393 . S
C618 H610 0.950 . S
C618 C616 1.391 . S
C618 C619 1.400 . S
C619 C618 1.400 . S
C619 C620 1.398 . S
C619 C625 1.491 . S
C620 H611 0.950 . S
C620 C619 1.398 . S
C620 C621 1.391 . S
C621 H609 0.950 . S
C621 C617 1.393 . S
C621 C620 1.391 . S
C622 H612 0.950 . S
C622 C623 1.386 . S
C622 C624 1.391 . S
C623 C622 1.386 . S
C623 C627 1.393 . S
C624 H613 0.950 . S
C624 C622 1.391 . S
C624 C625 1.400 . S
C625 C619 1.491 . S
C625 C624 1.400 . S
C625 C626 1.398 . S
C626 H614 0.950 . S
C626 C625 1.398 . S
C626 C627 1.391 . S
C627 H615 0.950 . S
C627 C623 1.393 . S
C627 C626 1.391 . S
H628 C636 0.950 . S
H629 C641 0.950 . S
H630 C638 0.950 . S
H631 C640 0.950 . S
H632 C642 0.950 . S
H633 C644 0.950 . S
H634 C646 0.950 . S
H635 C647 0.950 . S
C636 H628 0.950 . S
C636 C637 1.386 . S
C636 C638 1.391 . S
C637 C636 1.386 . S
C637 C641 1.393 . S
C638 H630 0.950 . S
C638 C636 1.391 . S
C638 C639 1.400 . S
C639 C638 1.400 . S
C639 C640 1.398 . S
C639 C645 1.491 . S
C640 H631 0.950 . S
C640 C639 1.398 . S
C640 C641 1.391 . S
C641 H629 0.950 . S
C641 C637 1.393 . S
C641 C640 1.391 . S
C642 H632 0.950 . S
C642 C643 1.386 . S
C642 C644 1.391 . S
C643 C642 1.386 . S
C643 C647 1.393 . S
C644 H633 0.950 . S
C644 C642 1.391 . S
C644 C645 1.400 . S
C645 C639 1.491 . S
C645 C644 1.400 . S
C645 C646 1.398 . S
C646 H634 0.950 . S
C646 C645 1.398 . S
C646 C647 1.391 . S
C647 H635 0.950 . S
C647 C643 1.393 . S
C647 C646 1.391 . S
H648 C656 0.950 . S
H649 C661 0.950 . S
H650 C658 0.950 . S
H651 C660 0.950 . S
H652 C662 0.950 . S
H653 C664 0.950 . S
H654 C666 0.950 . S
H655 C667 0.950 . S
C656 H648 0.950 . S
C656 C657 1.386 . S
C656 C658 1.391 . S
C657 C656 1.386 . S
C657 C661 1.393 . S
C658 H650 0.950 . S
C658 C656 1.391 . S
C658 C659 1.400 . S
C659 C658 1.400 . S
C659 C660 1.398 . S
C659 C665 1.491 . S
C660 H651 0.950 . S
C660 C659 1.398 . S
C660 C661 1.391 . S
C661 H649 0.950 . S
C661 C657 1.393 . S
C661 C660 1.391 . S
C662 H652 0.950 . S
C662 C663 1.386 . S
C662 C664 1.391 . S
C663 C662 1.386 . S
C663 C667 1.393 . S
C664 H653 0.950 . S
C664 C662 1.391 . S
C664 C665 1.400 . S
C665 C659 1.491 . S
C665 C664 1.400 . S
C665 C666 1.398 . S
C666 H654 0.950 . S
C666 C665 1.398 . S
C666 C667 1.391 . S
C667 H655 0.950 . S
C667 C663 1.393 . S
C667 C666 1.391 . S
H668 C676 0.950 . S
H669 C681 0.950 . S
H670 C678 0.950 . S
H671 C680 0.950 . S
H672 C682 0.950 . S
H673 C684 0.950 . S
H674 C686 0.950 . S
H675 C687 0.950 . S
C676 H668 0.950 . S
C676 C677 1.386 . S
C676 C678 1.391 . S
C677 C676 1.386 . S
C677 C681 1.393 . S
C678 H670 0.950 . S
C678 C676 1.391 . S
C678 C679 1.400 . S
C679 C678 1.400 . S
C679 C680 1.398 . S
C679 C685 1.491 . S
C680 H671 0.950 . S
C680 C679 1.398 . S
C680 C681 1.391 . S
C681 H669 0.950 . S
C681 C677 1.393 . S
C681 C680 1.391 . S
C682 H672 0.950 . S
C682 C683 1.386 . S
C682 C684 1.391 . S
C683 C682 1.386 . S
C683 C687 1.393 . S
C684 H673 0.950 . S
C684 C682 1.391 . S
C684 C685 1.400 . S
C685 C679 1.491 . S
C685 C684 1.400 . S
C685 C686 1.398 . S
C686 H674 0.950 . S
C686 C685 1.398 . S
C686 C687 1.391 . S
C687 H675 0.950 . S
C687 C683 1.393 . S
C687 C686 1.391 . S
H688 C696 0.950 . S
H689 C701 0.950 . S
H690 C698 0.950 . S
H691 C700 0.950 . S
H692 C702 0.950 . S
H693 C704 0.950 . S
H694 C706 0.950 . S
H695 C707 0.950 . S
C696 H688 0.950 . S
C696 C697 1.386 . S
C696 C698 1.391 . S
C697 C696 1.386 . S
C697 C701 1.393 . S
C698 H690 0.950 . S
C698 C696 1.391 . S
C698 C699 1.400 . S
C699 C698 1.400 . S
C699 C700 1.398 . S
C699 C705 1.491 . S
C700 H691 0.950 . S
C700 C699 1.398 . S
C700 C701 1.391 . S
C701 H689 0.950 . S
C701 C697 1.393 . S
C701 C700 1.391 . S
C702 H692 0.950 . S
C702 C703 1.386 . S
C702 C704 1.391 . S
C703 C702 1.386 . S
C703 C707 1.393 . S
C704 H693 0.950 . S
C704 C702 1.391 . S
C704 C705 1.400 . S
C705 C699 1.491 . S
C705 C704 1.400 . S
C705 C706 1.398 . S
C706 H694 0.950 . S
C706 C705 1.398 . S
C706 C707 1.391 . S
C707 H695 0.950 . S
C707 C703 1.393 . S
C707 C706 1.391 . S
H708 C716 0.950 . S
H709 C721 0.950 . S
H710 C718 0.950 . S
H711 C720 0.950 . S
H712 C722 0.950 . S
H713 C724 0.950 . S
H714 C726 0.950 . S
H715 C727 0.950 . S
C716 H708 0.950 . S
C716 C717 1.386 . S
C716 C718 1.391 . S
C717 C716 1.386 . S
C717 C721 1.393 . S
C718 H710 0.950 . S
C718 C716 1.391 . S
C718 C719 1.400 . S
C719 C718 1.400 . S
C719 C720 1.398 . S
C719 C725 1.491 . S
C720 H711 0.950 . S
C720 C719 1.398 . S
C720 C721 1.391 . S
C721 H709 0.950 . S
C721 C717 1.393 . S
C721 C720 1.391 . S
C722 H712 0.950 . S
C722 C723 1.386 . S
C722 C724 1.391 . S
C723 C722 1.386 . S
C723 C727 1.393 . S
C724 H713 0.950 . S
C724 C722 1.391 . S
C724 C725 1.400 . S
C725 C719 1.491 . S
C725 C724 1.400 . S
C725 C726 1.398 . S
C726 H714 0.950 . S
C726 C725 1.398 . S
C726 C727 1.391 . S
C727 H715 0.950 . S
C727 C723 1.393 . S
C727 C726 1.391 . S
H728 C736 0.950 . S
H729 C741 0.950 . S
H730 C738 0.950 . S
H731 C740 0.950 . S
H732 C742 0.950 . S
H733 C744 0.950 . S
H734 C746 0.950 . S
H735 C747 0.950 . S
C736 H728 0.950 . S
C736 C737 1.386 . S
C736 C738 1.391 . S
C737 C736 1.386 . S
C737 C741 1.393 . S
C738 H730 0.950 . S
C738 C736 1.391 . S
C738 C739 1.400 . S
C739 C738 1.400 . S
C739 C740 1.398 . S
C739 C745 1.491 . S
C740 H731 0.950 . S
C740 C739 1.398 . S
C740 C741 1.391 . S
C741 H729 0.950 . S
C741 C737 1.393 . S
C741 C740 1.391 . S
C742 H732 0.950 . S
C742 C743 1.386 . S
C742 C744 1.391 . S
C743 C742 1.386 . S
C743 C747 1.393 . S
C744 H733 0.950 . S
C744 C742 1.391 . S
C744 C745 1.400 . S
C745 C739 1.491 . S
C745 C744 1.400 . S
C745 C746 1.398 . S
C746 H734 0.950 . S
C746 C745 1.398 . S
C746 C747 1.391 . S
C747 H735 0.950 . S
C747 C743 1.393 . S
C747 C746 1.391 . S
H748 C756 0.950 . S
H749 C761 0.950 . S
H750 C758 0.950 . S
H751 C760 0.950 . S
H752 C762 0.950 . S
H753 C764 0.950 . S
H754 C766 0.950 . S
H755 C767 0.950 . S
C756 H748 0.950 . S
C756 C757 1.386 . S
C756 C758 1.391 . S
C757 C756 1.386 . S
C757 C761 1.393 . S
C758 H750 0.950 . S
C758 C756 1.391 . S
C758 C759 1.400 . S
C759 C758 1.400 . S
C759 C760 1.398 . S
C759 C765 1.491 . S
C760 H751 0.950 . S
C760 C759 1.398 . S
C760 C761 1.391 . S
C761 H749 0.950 . S
C761 C757 1.393 . S
C761 C760 1.391 . S
C762 H752 0.950 . S
C762 C763 1.386 . S
C762 C764 1.391 . S
C763 C762 1.386 . S
C763 C767 1.393 . S
C764 H753 0.950 . S
C764 C762 1.391 . S
C764 C765 1.400 . S
C765 C759 1.491 . S
C765 C764 1.400 . S
C765 C766 1.398 . S
C766 H754 0.950 . S
C766 C765 1.398 . S
C766 C767 1.391 . S
C767 H755 0.950 . S
C767 C763 1.393 . S
C767 C766 1.391 . S
H768 C776 0.950 . S
H769 C781 0.950 . S
H770 C778 0.950 . S
H771 C780 0.950 . S
H772 C782 0.950 . S
H773 C784 0.950 . S
H774 C786 0.950 . S
H775 C787 0.950 . S
C776 H768 0.950 . S
C776 C777 1.386 . S
C776 C778 1.391 . S
C777 C776 1.386 . S
C777 C781 1.393 . S
C778 H770 0.950 . S
C778 C776 1.391 . S
C778 C779 1.400 . S
C779 C778 1.400 . S
C779 C780 1.398 . S
C779 C785 1.491 . S
C780 H771 0.950 . S
C780 C779 1.398 . S
C780 C781 1.391 . S
C781 H769 0.950 . S
C781 C777 1.393 . S
C781 C780 1.391 . S
C782 H772 0.950 . S
C782 C783 1.386 . S
C782 C784 1.391 . S
C783 C782 1.386 . S
C783 C787 1.393 . S
C784 H773 0.950 . S
C784 C782 1.391 . S
C784 C785 1.400 . S
C785 C779 1.491 . S
C785 C784 1.400 . S
C785 C786 1.398 . S
C786 H774 0.950 . S
C786 C785 1.398 . S
C786 C787 1.391 . S
C787 H775 0.950 . S
C787 C783 1.393 . S
C787 C786 1.391 . S
H788 C796 0.950 . S
H789 C801 0.950 . S
H790 C798 0.950 . S
H791 C800 0.950 . S
H792 C802 0.950 . S
H793 C804 0.950 . S
H794 C806 0.950 . S
H795 C807 0.950 . S
C796 H788 0.950 . S
C796 C797 1.386 . S
C796 C798 1.391 . S
C797 C796 1.386 . S
C797 C801 1.393 . S
C798 H790 0.950 . S
C798 C796 1.391 . S
C798 C799 1.400 . S
C799 C798 1.400 . S
C799 C800 1.398 . S
C799 C805 1.491 . S
C800 H791 0.950 . S
C800 C799 1.398 . S
C800 C801 1.391 . S
C801 H789 0.950 . S
C801 C797 1.393 . S
C801 C800 1.391 . S
C802 H792 0.950 . S
C802 C803 1.386 . S
C802 C804 1.391 . S
C803 C802 1.386 . S
C803 C807 1.393 . S
C804 H793 0.950 . S
C804 C802 1.391 . S
C804 C805 1.400 . S
C805 C799 1.491 . S
C805 C804 1.400 . S
C805 C806 1.398 . S
C806 H794 0.950 . S
C806 C805 1.398 . S
C806 C807 1.391 . S
C807 H795 0.950 . S
C807 C803 1.393 . S
C807 C806 1.391 . S
H808 C816 0.950 . S
H809 C821 0.950 . S
H810 C818 0.950 . S
H811 C820 0.950 . S
H812 C822 0.950 . S
H813 C824 0.950 . S
H814 C826 0.950 . S
H815 C827 0.950 . S
C816 H808 0.950 . S
C816 C817 1.386 . S
C816 C818 1.391 . S
C817 C816 1.386 . S
C817 C821 1.393 . S
C818 H810 0.950 . S
C818 C816 1.391 . S
C818 C819 1.400 . S
C819 C818 1.400 . S
C819 C820 1.398 . S
C819 C825 1.491 . S
C820 H811 0.950 . S
C820 C819 1.398 . S
C820 C821 1.391 . S
C821 H809 0.950 . S
C821 C817 1.393 . S
C821 C820 1.391 . S
C822 H812 0.950 . S
C822 C823 1.386 . S
C822 C824 1.391 . S
C823 C822 1.386 . S
C823 C827 1.393 . S
C824 H813 0.950 . S
C824 C822 1.391 . S
C824 C825 1.400 . S
C825 C819 1.491 . S
C825 C824 1.400 . S
C825 C826 1.398 . S
C826 H814 0.950 . S
C826 C825 1.398 . S
C826 C827 1.391 . S
C827 H815 0.950 . S
C827 C823 1.393 . S
C827 C826 1.391 . S
H828 C836 0.950 . S
H829 C841 0.950 . S
H830 C838 0.950 . S
H831 C840 0.950 . S
H832 C842 0.950 . S
H833 C844 0.950 . S
H834 C846 0.950 . S
H835 C847 0.950 . S
C836 H828 0.950 . S
C836 C837 1.386 . S
C836 C838 1.391 . S
C837 C836 1.386 . S
C837 C841 1.393 . S
C838 H830 0.950 . S
C838 C836 1.391 . S
C838 C839 1.400 . S
C839 C838 1.400 . S
C839 C840 1.398 . S
C839 C845 1.491 . S
C840 H831 0.950 . S
C840 C839 1.398 . S
C840 C841 1.391 . S
C841 H829 0.950 . S
C841 C837 1.393 . S
C841 C840 1.391 . S
C842 H832 0.950 . S
C842 C843 1.386 . S
C842 C844 1.391 . S
C843 C842 1.386 . S
C843 C847 1.393 . S
C844 H833 0.950 . S
C844 C842 1.391 . S
C844 C845 1.400 . S
C845 C839 1.491 . S
C845 C844 1.400 . S
C845 C846 1.398 . S
C846 H834 0.950 . S
C846 C845 1.398 . S
C846 C847 1.391 . S
C847 H835 0.950 . S
C847 C843 1.393 . S
C847 C846 1.391 . S
H848 C856 0.950 . S
H849 C861 0.950 . S
H850 C858 0.950 . S
H851 C860 0.950 . S
H852 C862 0.950 . S
H853 C864 0.950 . S
H854 C866 0.950 . S
H855 C867 0.950 . S
C856 H848 0.950 . S
C856 C857 1.386 . S
C856 C858 1.391 . S
C857 C856 1.386 . S
C857 C861 1.393 . S
C858 H850 0.950 . S
C858 C856 1.391 . S
C858 C859 1.400 . S
C859 C858 1.400 . S
C859 C860 1.398 . S
C859 C865 1.491 . S
C860 H851 0.950 . S
C860 C859 1.398 . S
C860 C861 1.391 . S
C861 H849 0.950 . S
C861 C857 1.393 . S
C861 C860 1.391 . S
C862 H852 0.950 . S
C862 C863 1.386 . S
C862 C864 1.391 . S
C863 C862 1.386 . S
C863 C867 1.393 . S
C864 H853 0.950 . S
C864 C862 1.391 . S
C864 C865 1.400 . S
C865 C859 1.491 . S
C865 C864 1.400 . S
C865 C866 1.398 . S
C866 H854 0.950 . S
C866 C865 1.398 . S
C866 C867 1.391 . S
C867 H855 0.950 . S
C867 C863 1.393 . S
C867 C866 1.391 . S
H868 C876 0.950 . S
H869 C881 0.950 . S
H870 C878 0.950 . S
H871 C880 0.950 . S
H872 C882 0.950 . S
H873 C884 0.950 . S
H874 C886 0.950 . S
H875 C887 0.950 . S
C876 H868 0.950 . S
C876 C877 1.386 . S
C876 C878 1.391 . S
C877 C876 1.386 . S
C877 C881 1.393 . S
C878 H870 0.950 . S
C878 C876 1.391 . S
C878 C879 1.400 . S
C879 C878 1.400 . S
C879 C880 1.398 . S
C879 C885 1.491 . S
C880 H871 0.950 . S
C880 C879 1.398 . S
C880 C881 1.391 . S
C881 H869 0.950 . S
C881 C877 1.393 . S
C881 C880 1.391 . S
C882 H872 0.950 . S
C882 C883 1.386 . S
C882 C884 1.391 . S
C883 C882 1.386 . S
C883 C887 1.393 . S
C884 H873 0.950 . S
C884 C882 1.391 . S
C884 C885 1.400 . S
C885 C879 1.491 . S
C885 C884 1.400 . S
C885 C886 1.398 . S
C886 H874 0.950 . S
C886 C885 1.398 . S
C886 C887 1.391 . S
C887 H875 0.950 . S
C887 C883 1.393 . S
C887 C886 1.391 . S
H888 C896 0.950 . S
H889 C901 0.950 . S
H890 C898 0.950 . S
H891 C900 0.950 . S
H892 C902 0.950 . S
H893 C904 0.950 . S
H894 C906 0.950 . S
H895 C907 0.950 . S
C896 H888 0.950 . S
C896 C897 1.386 . S
C896 C898 1.391 . S
C897 C896 1.386 . S
C897 C901 1.393 . S
C898 H890 0.950 . S
C898 C896 1.391 . S
C898 C899 1.400 . S
C899 C898 1.400 . S
C899 C900 1.398 . S
C899 C905 1.491 . S
C900 H891 0.950 . S
C900 C899 1.398 . S
C900 C901 1.391 . S
C901 H889 0.950 . S
C901 C897 1.393 . S
C901 C900 1.391 . S
C902 H892 0.950 . S
C902 C903 1.386 . S
C902 C904 1.391 . S
C903 C902 1.386 . S
C903 C907 1.393 . S
C904 H893 0.950 . S
C904 C902 1.391 . S
C904 C905 1.400 . S
C905 C899 1.491 . S
C905 C904 1.400 . S
C905 C906 1.398 . S
C906 H894 0.950 . S
C906 C905 1.398 . S
C906 C907 1.391 . S
C907 H895 0.950 . S
C907 C903 1.393 . S
C907 C906 1.391 . S
H908 C916 0.950 . S
H909 C921 0.950 . S
H910 C918 0.950 . S
H911 C920 0.950 . S
H912 C922 0.950 . S
H913 C924 0.950 . S
H914 C926 0.950 . S
H915 C927 0.950 . S
C916 H908 0.950 . S
C916 C917 1.386 . S
C916 C918 1.391 . S
C917 C916 1.386 . S
C917 C921 1.393 . S
C918 H910 0.950 . S
C918 C916 1.391 . S
C918 C919 1.400 . S
C919 C918 1.400 . S
C919 C920 1.398 . S
C919 C925 1.491 . S
C920 H911 0.950 . S
C920 C919 1.398 . S
C920 C921 1.391 . S
C921 H909 0.950 . S
C921 C917 1.393 . S
C921 C920 1.391 . S
C922 H912 0.950 . S
C922 C923 1.386 . S
C922 C924 1.391 . S
C923 C922 1.386 . S
C923 C927 1.393 . S
C924 H913 0.950 . S
C924 C922 1.391 . S
C924 C925 1.400 . S
C925 C919 1.491 . S
C925 C924 1.400 . S
C925 C926 1.398 . S
C926 H914 0.950 . S
C926 C925 1.398 . S
C926 C927 1.391 . S
C927 H915 0.950 . S
C927 C923 1.393 . S
C927 C926 1.391 . S
H928 C936 0.950 . S
H929 C941 0.950 . S
H930 C938 0.950 . S
H931 C940 0.950 . S
H932 C942 0.950 . S
H933 C944 0.950 . S
H934 C946 0.950 . S
H935 C947 0.950 . S
C936 H928 0.950 . S
C936 C937 1.386 . S
C936 C938 1.391 . S
C937 C936 1.386 . S
C937 C941 1.393 . S
C938 H930 0.950 . S
C938 C936 1.391 . S
C938 C939 1.400 . S
C939 C938 1.400 . S
C939 C940 1.398 . S
C939 C945 1.491 . S
C940 H931 0.950 . S
C940 C939 1.398 . S
C940 C941 1.391 . S
C941 H929 0.950 . S
C941 C937 1.393 . S
C941 C940 1.391 . S
C942 H932 0.950 . S
C942 C943 1.386 . S
C942 C944 1.391 . S
C943 C942 1.386 . S
C943 C947 1.393 . S
C944 H933 0.950 . S
C944 C942 1.391 . S
C944 C945 1.400 . S
C945 C939 1.491 . S
C945 C944 1.400 . S
C945 C946 1.398 . S
C946 H934 0.950 . S
C946 C945 1.398 . S
C946 C947 1.391 . S
C947 H935 0.950 . S
C947 C943 1.393 . S
C947 C946 1.391 . S
H948 C956 0.950 . S
H949 C961 0.950 . S
H950 C958 0.950 . S
H951 C960 0.950 . S
H952 C962 0.950 . S
H953 C964 0.950 . S
H954 C966 0.950 . S
H955 C967 0.950 . S
C956 H948 0.950 . S
C956 C957 1.386 . S
C956 C958 1.391 . S
C957 C956 1.386 . S
C957 C961 1.393 . S
C958 H950 0.950 . S
C958 C956 1.391 . S
C958 C959 1.400 . S
C959 C958 1.400 . S
C959 C960 1.398 . S
C959 C965 1.491 . S
C960 H951 0.950 . S
C960 C959 1.398 . S
C960 C961 1.391 . S
C961 H949 0.950 . S
C961 C957 1.393 . S
C961 C960 1.391 . S
C962 H952 0.950 . S
C962 C963 1.386 . S
C962 C964 1.391 . S
C963 C962 1.386 . S
C963 C967 1.393 . S
C964 H953 0.950 . S
C964 C962 1.391 . S
C964 C965 1.400 . S
C965 C959 1.491 . S
C965 C964 1.400 . S
C965 C966 1.398 . S
C966 H954 0.950 . S
C966 C965 1.398 . S
C966 C967 1.391 . S
C967 H955 0.950 . S
C967 C963 1.393 . S
C967 C966 1.391 . S
H968 C976 0.950 . S
H969 C981 0.950 . S
H970 C978 0.950 . S
H971 C980 0.950 . S
H972 C982 0.950 . S
H973 C984 0.950 . S
H974 C986 0.950 . S
H975 C987 0.950 . S
C976 H968 0.950 . S
C976 C977 1.386 . S
C976 C978 1.391 . S
C977 C976 1.386 . S
C977 C981 1.393 . S
C978 H970 0.950 . S
C978 C976 1.391 . S
C978 C979 1.400 . S
C979 C978 1.400 . S
C979 C980 1.398 . S
C979 C985 1.491 . S
C980 H971 0.950 . S
C980 C979 1.398 . S
C980 C981 1.391 . S
C981 H969 0.950 . S
C981 C977 1.393 . S
C981 C980 1.391 . S
C982 H972 0.950 . S
C982 C983 1.386 . S
C982 C984 1.391 . S
C983 C982 1.386 . S
C983 C987 1.393 . S
C984 H973 0.950 . S
C984 C982 1.391 . S
C984 C985 1.400 . S
C985 C979 1.491 . S
C985 C984 1.400 . S
C985 C986 1.398 . S
C986 H974 0.950 . S
C986 C985 1.398 . S
C986 C987 1.391 . S
C987 H975 0.950 . S
C987 C983 1.393 . S
C987 C986 1.391 . S
H988 C996 0.950 . S
H989 C1001 0.950 . S
H990 C998 0.950 . S
H991 C1000 0.950 . S
H992 C1002 0.950 . S
H993 C1004 0.950 . S
H994 C1006 0.950 . S
H995 C1007 0.950 . S
C996 H988 0.950 . S
C996 C997 1.386 . S
C996 C998 1.391 . S
C997 C996 1.386 . S
C997 C1001 1.393 . S
C998 H990 0.950 . S
C998 C996 1.391 . S
C998 C999 1.400 . S
C999 C998 1.400 . S
C999 C1000 1.398 . S
C999 C1005 1.491 . S
C1000 H991 0.950 . S
C1000 C999 1.398 . S
C1000 C1001 1.391 . S
C1001 H989 0.950 . S
C1001 C997 1.393 . S
C1001 C1000 1.391 . S
C1002 H992 0.950 . S
C1002 C1003 1.386 . S
C1002 C1004 1.391 . S
C1003 C1002 1.386 . S
C1003 C1007 1.393 . S
C1004 H993 0.950 . S
C1004 C1002 1.391 . S
C1004 C1005 1.400 . S
C1005 C999 1.491 . S
C1005 C1004 1.400 . S
C1005 C1006 1.398 . S
C1006 H994 0.950 . S
C1006 C1005 1.398 . S
C1006 C1007 1.391 . S
C1007 H995 0.950 . S
C1007 C1003 1.393 . S
C1007 C1006 1.391 . S
H1008 C1016 0.950 . S
H1009 C1021 0.950 . S
H1010 C1018 0.950 . S
H1011 C1020 0.950 . S
H1012 C1022 0.950 . S
H1013 C1024 0.950 . S
H1014 C1026 0.950 . S
H1015 C1027 0.950 . S
C1016 H1008 0.950 . S
C1016 C1017 1.386 . S
C1016 C1018 1.391 . S
C1017 C1016 1.386 . S
C1017 C1021 1.393 . S
C1018 H1010 0.950 . S
C1018 C1016 1.391 . S
C1018 C1019 1.400 . S
C1019 C1018 1.400 . S
C1019 C1020 1.398 . S
C1019 C1025 1.491 . S
C1020 H1011 0.950 . S
C1020 C1019 1.398 . S
C1020 C1021 1.391 . S
C1021 H1009 0.950 . S
C1021 C1017 1.393 . S
C1021 C1020 1.391 . S
C1022 H1012 0.950 . S
C1022 C1023 1.386 . S
C1022 C1024 1.391 . S
C1023 C1022 1.386 . S
C1023 C1027 1.393 . S
C1024 H1013 0.950 . S
C1024 C1022 1.391 . S
C1024 C1025 1.400 . S
C1025 C1019 1.491 . S
C1025 C1024 1.400 . S
C1025 C1026 1.398 . S
C1026 H1014 0.950 . S
C1026 C1025 1.398 . S
C1026 C1027 1.391 . S
C1027 H1015 0.950 . S
C1027 C1023 1.393 . S
C1027 C1026 1.391 . S
H1028 C1036 0.950 . S
H1029 C1041 0.950 . S
H1030 C1038 0.950 . S
H1031 C1040 0.950 . S
H1032 C1042 0.950 . S
H1033 C1044 0.950 . S
H1034 C1046 0.950 . S
H1035 C1047 0.950 . S
C1036 H1028 0.950 . S
C1036 C1037 1.386 . S
C1036 C1038 1.391 . S
C1037 C1036 1.386 . S
C1037 C1041 1.393 . S
C1038 H1030 0.950 . S
C1038 C1036 1.391 . S
C1038 C1039 1.400 . S
C1039 C1038 1.400 . S
C1039 C1040 1.398 . S
C1039 C1045 1.491 . S
C1040 H1031 0.950 . S
C1040 C1039 1.398 . S
C1040 C1041 1.391 . S
C1041 H1029 0.950 . S
C1041 C1037 1.393 . S
C1041 C1040 1.391 . S
C1042 H1032 0.950 . S
C1042 C1043 1.386 . S
C1042 C1044 1.391 . S
C1043 C1042 1.386 . S
C1043 C1047 1.393 . S
C1044 H1033 0.950 . S
C1044 C1042 1.391 . S
C1044 C1045 1.400 . S
C1045 C1039 1.491 . S
C1045 C1044 1.400 . S
C1045 C1046 1.398 . S
C1046 H1034 0.950 . S
C1046 C1045 1.398 . S
C1046 C1047 1.391 . S
C1047 H1035 0.950 . S
C1047 C1043 1.393 . S
C1047 C1046 1.391 . S
H1048 C1056 0.950 . S
H1049 C1061 0.950 . S
H1050 C1058 0.950 . S
H1051 C1060 0.950 . S
H1052 C1062 0.950 . S
H1053 C1064 0.950 . S
H1054 C1066 0.950 . S
H1055 C1067 0.950 . S
C1056 H1048 0.950 . S
C1056 C1057 1.386 . S
C1056 C1058 1.391 . S
C1057 C1056 1.386 . S
C1057 C1061 1.393 . S
C1058 H1050 0.950 . S
C1058 C1056 1.391 . S
C1058 C1059 1.400 . S
C1059 C1058 1.400 . S
C1059 C1060 1.398 . S
C1059 C1065 1.491 . S
C1060 H1051 0.950 . S
C1060 C1059 1.398 . S
C1060 C1061 1.391 . S
C1061 H1049 0.950 . S
C1061 C1057 1.393 . S
C1061 C1060 1.391 . S
C1062 H1052 0.950 . S
C1062 C1063 1.386 . S
C1062 C1064 1.391 . S
C1063 C1062 1.386 . S
C1063 C1067 1.393 . S
C1064 H1053 0.950 . S
C1064 C1062 1.391 . S
C1064 C1065 1.400 . S
C1065 C1059 1.491 . S
C1065 C1064 1.400 . S
C1065 C1066 1.398 . S
C1066 H1054 0.950 . S
C1066 C1065 1.398 . S
C1066 C1067 1.391 . S
C1067 H1055 0.950 . S
C1067 C1063 1.393 . S
C1067 C1066 1.391 . S
H1068 C1076 0.950 . S
H1069 C1081 0.950 . S
H1070 C1078 0.950 . S
H1071 C1080 0.950 . S
H1072 C1082 0.950 . S
H1073 C1084 0.950 . S
H1074 C1086 0.950 . S
H1075 C1087 0.950 . S
C1076 H1068 0.950 . S
C1076 C1077 1.386 . S
C1076 C1078 1.391 . S
C1077 C1076 1.386 . S
C1077 C1081 1.393 . S
C1078 H1070 0.950 . S
C1078 C1076 1.391 . S
C1078 C1079 1.400 . S
C1079 C1078 1.400 . S
C1079 C1080 1.398 . S
C1079 C1085 1.491 . S
C1080 H1071 0.950 . S
C1080 C1079 1.398 . S
C1080 C1081 1.391 . S
C1081 H1069 0.950 . S
C1081 C1077 1.393 . S
C1081 C1080 1.391 . S
C1082 H1072 0.950 . S
C1082 C1083 1.386 . S
C1082 C1084 1.391 . S
C1083 C1082 1.386 . S
C1083 C1087 1.393 . S
C1084 H1073 0.950 . S
C1084 C1082 1.391 . S
C1084 C1085 1.400 . S
C1085 C1079 1.491 . S
C1085 C1084 1.400 . S
C1085 C1086 1.398 . S
C1086 H1074 0.950 . S
C1086 C1085 1.398 . S
C1086 C1087 1.391 . S
C1087 H1075 0.950 . S
C1087 C1083 1.393 . S
C1087 C1086 1.391 . S
C623 C350 1.576 . S
C617 C15 1.575 . S
C643 C389 1.591 . S
C637 C55 1.600 . S
C663 C365 1.603 . S
C657 C101 1.596 . S
C683 C404 1.641 . S
C677 C141 1.647 . S
C703 C452 1.542 . S
C697 C2 1.520 . S
C723 C485 1.536 . S
C717 C61 1.511 . S
C737 C95 1.671 . S
C743 C542 1.678 . S
C763 C590 1.535 . S
C757 C135 1.533 . S
C783 C437 1.547 . S
C777 C42 1.517 . S
C797 C82 1.533 . S
C803 C500 1.553 . S
C823 C557 1.643 . S
C817 C122 1.678 . S
C843 C605 1.540 . S
C837 C21 1.527 . S
C857 C162 1.638 . S
C863 C398 1.621 . S
C883 C341 1.611 . S
C877 C221 1.615 . S
C897 C255 1.601 . S
C903 C413 1.600 . S
C917 C282 1.561 . S
C923 C356 1.576 . S
C943 C533 1.671 . S
C937 C181 1.694 . S
C963 C596 1.547 . S
C957 C202 1.548 . S
C983 C461 1.562 . S
C977 C242 1.551 . S
C997 C301 1.521 . S
C1003 C509 1.545 . S
C1023 C548 1.668 . S
C1017 C215 1.676 . S
C1043 C581 1.540 . S
C1037 C261 1.538 . S
C1063 C446 1.527 . S
C1057 C295 1.549 . S
C1077 C175 1.539 . S
C1083 C494 1.533 . S
