# Generated by pormake.
# Topology pyr, (3,6)-cn, num edge types: 1
# Building blocks:
#     Node 0, Type 0, BuildingBlock: MIDCAF_clean_linker_0, # of connection points: 3
#     Node 1, Type 0, BuildingBlock: MIDCAF_clean_linker_0, # of connection points: 3
#     Node 2, Type 0, BuildingBlock: MIDCAF_clean_linker_0, # of connection points: 3
#     Node 3, Type 0, BuildingBlock: MIDCAF_clean_linker_0, # of connection points: 3
#     Node 4, Type 0, BuildingBlock: MIDCAF_clean_linker_0, # of connection points: 3
#     Node 5, Type 0, BuildingBlock: MIDCAF_clean_linker_0, # of connection points: 3
#     Node 6, Type 0, BuildingBlock: MIDCAF_clean_linker_0, # of connection points: 3
#     Node 7, Type 0, BuildingBlock: MIDCAF_clean_linker_0, # of connection points: 3
#     Node 8, Type 1, BuildingBlock: BETDIP_clean_sbu_0, # of connection points: 6
#     Node 9, Type 1, BuildingBlock: BETDIP_clean_sbu_0, # of connection points: 6
#     Node 10, Type 1, BuildingBlock: BETDIP_clean_sbu_0, # of connection points: 6
#     Node 11, Type 1, BuildingBlock: BETDIP_clean_sbu_0, # of connection points: 6
#     Edge 12, Type (0, 1), BuildingBlock: ZUJKAS_clean_linker_0, # of connection points: 2
#     Edge 13, Type (0, 1), BuildingBlock: ZUJKAS_clean_linker_0, # of connection points: 2
#     Edge 14, Type (0, 1), BuildingBlock: ZUJKAS_clean_linker_0, # of connection points: 2
#     Edge 15, Type (0, 1), BuildingBlock: ZUJKAS_clean_linker_0, # of connection points: 2
#     Edge 16, Type (0, 1), BuildingBlock: ZUJKAS_clean_linker_0, # of connection points: 2
#     Edge 17, Type (0, 1), BuildingBlock: ZUJKAS_clean_linker_0, # of connection points: 2
#     Edge 18, Type (0, 1), BuildingBlock: ZUJKAS_clean_linker_0, # of connection points: 2
#     Edge 19, Type (0, 1), BuildingBlock: ZUJKAS_clean_linker_0, # of connection points: 2
#     Edge 20, Type (0, 1), BuildingBlock: ZUJKAS_clean_linker_0, # of connection points: 2
#     Edge 21, Type (0, 1), BuildingBlock: ZUJKAS_clean_linker_0, # of connection points: 2
#     Edge 22, Type (0, 1), BuildingBlock: ZUJKAS_clean_linker_0, # of connection points: 2
#     Edge 23, Type (0, 1), BuildingBlock: ZUJKAS_clean_linker_0, # of connection points: 2
#     Edge 24, Type (0, 1), BuildingBlock: ZUJKAS_clean_linker_0, # of connection points: 2
#     Edge 25, Type (0, 1), BuildingBlock: ZUJKAS_clean_linker_0, # of connection points: 2
#     Edge 26, Type (0, 1), BuildingBlock: ZUJKAS_clean_linker_0, # of connection points: 2
#     Edge 27, Type (0, 1), BuildingBlock: ZUJKAS_clean_linker_0, # of connection points: 2
#     Edge 28, Type (0, 1), BuildingBlock: ZUJKAS_clean_linker_0, # of connection points: 2
#     Edge 29, Type (0, 1), BuildingBlock: ZUJKAS_clean_linker_0, # of connection points: 2
#     Edge 30, Type (0, 1), BuildingBlock: ZUJKAS_clean_linker_0, # of connection points: 2
#     Edge 31, Type (0, 1), BuildingBlock: ZUJKAS_clean_linker_0, # of connection points: 2
#     Edge 32, Type (0, 1), BuildingBlock: ZUJKAS_clean_linker_0, # of connection points: 2
#     Edge 33, Type (0, 1), BuildingBlock: ZUJKAS_clean_linker_0, # of connection points: 2
#     Edge 34, Type (0, 1), BuildingBlock: ZUJKAS_clean_linker_0, # of connection points: 2
#     Edge 35, Type (0, 1), BuildingBlock: ZUJKAS_clean_linker_0, # of connection points: 2
# Relax obj value: 0.099
# Max RMSD: 0.183
# Mean RMSD: 0.083
data_MOF--net-pyr--node1-BETDIP_clean_sbu_0--node2-MIDCAF_clean_linker_0--edge1-ZUJKAS_clean_linker_0
_symmetry_space_group_name_H-M    P1
_symmetry_Int_Tables_number       1
_symmetry_cell_setting            triclinic
loop_
_symmetry_equiv_pos_as_xyz
'x, y, z'
_cell_length_a     54.421687
_cell_length_b     58.56758
_cell_length_c     57.516947
_cell_angle_alpha  89.021532
_cell_angle_beta   92.86863
_cell_angle_gamma 101.6952
loop_
_atom_site_label
_atom_site_type_symbol
_atom_site_fract_x
_atom_site_fract_y
_atom_site_fract_z
_atom_type_partial_charge
C0 C 0.26318 0.23619 0.286 0.0
C1 C 0.26941 0.2159 0.29593 0.0
C2 C 0.28993 0.20778 0.28772 0.0
C3 C 0.30359 0.21938 0.26959 0.0
H4 H 0.36942 0.22467 0.23482 0.0
H5 H 0.40095 0.20565 0.21964 0.0
H6 H 0.39146 0.23748 0.15234 0.0
H7 H 0.36031 0.25706 0.16768 0.0
H8 H 0.31921 0.29012 0.16109 0.0
H9 H 0.29807 0.31673 0.13821 0.0
H10 H 0.25816 0.32845 0.1985 0.0
H11 H 0.27923 0.30224 0.22132 0.0
H12 H 0.27109 0.26305 0.26023 0.0
H13 H 0.24734 0.24277 0.29186 0.0
H14 H 0.29537 0.19236 0.29526 0.0
H15 H 0.31905 0.21239 0.26347 0.0
N16 N 0.33005 0.2428 0.23085 0.0
N17 N 0.33174 0.26844 0.19889 0.0
N18 N 0.3011 0.26729 0.22641 0.0
C19 C 0.34111 0.25175 0.21111 0.0
C20 C 0.31182 0.27643 0.20659 0.0
C21 C 0.31003 0.25044 0.23862 0.0
C22 C 0.36208 0.24218 0.20239 0.0
C23 C 0.37419 0.22782 0.21683 0.0
C24 C 0.39224 0.21684 0.20812 0.0
C25 C 0.39851 0.2198 0.1847 0.0
C26 C 0.38723 0.23498 0.17052 0.0
C27 C 0.36925 0.24611 0.17929 0.0
C28 C 0.30082 0.29394 0.19302 0.0
C29 C 0.30617 0.29862 0.16953 0.0
C30 C 0.29398 0.31374 0.15638 0.0
C31 C 0.27649 0.32469 0.16656 0.0
C32 C 0.27178 0.32054 0.19021 0.0
C33 C 0.28374 0.30532 0.20325 0.0
C34 C 0.29692 0.23931 0.25915 0.0
C35 C 0.27675 0.24774 0.26778 0.0
C36 C 0.1247 0.81383 0.70358 0.0
C37 C 0.1216 0.81456 0.6792 0.0
C38 C 0.13295 0.79996 0.66592 0.0
C39 C 0.14786 0.78562 0.67679 0.0
H40 H 0.19857 0.74083 0.66468 0.0
H41 H 0.22199 0.71635 0.64459 0.0
H42 H 0.24045 0.68575 0.71045 0.0
H43 H 0.2179 0.71072 0.73049 0.0
H44 H 0.2359 0.75444 0.76917 0.0
H45 H 0.25812 0.77179 0.80434 0.0
H46 H 0.20311 0.81494 0.81027 0.0
H47 H 0.18114 0.79804 0.7748 0.0
H48 H 0.14193 0.79993 0.73321 0.0
H49 H 0.11576 0.82445 0.71435 0.0
H50 H 0.13108 0.80021 0.64709 0.0
H51 H 0.15697 0.77512 0.66605 0.0
N52 N 0.1786 0.75616 0.70115 0.0
N53 N 0.20412 0.75063 0.73405 0.0
N54 N 0.17824 0.7779 0.73498 0.0
C55 C 0.19568 0.74493 0.71186 0.0
C56 C 0.19554 0.76712 0.74573 0.0
C57 C 0.16956 0.77251 0.71278 0.0
C58 C 0.20669 0.72795 0.6992 0.0
C59 C 0.20736 0.72864 0.6748 0.0
C60 C 0.22073 0.71454 0.66328 0.0
C61 C 0.23346 0.69932 0.67593 0.0
C62 C 0.23147 0.69772 0.70021 0.0
C63 C 0.2184 0.71196 0.7117 0.0
C64 C 0.2069 0.77507 0.7689 0.0
C65 C 0.22829 0.76739 0.7781 0.0
C66 C 0.24102 0.77727 0.79837 0.0
C67 C 0.23258 0.79497 0.80993 0.0
C68 C 0.2104 0.8017 0.80147 0.0
C69 C 0.19773 0.79189 0.78118 0.0
C70 C 0.1518 0.7857 0.70114 0.0
C71 C 0.13965 0.79965 0.7144 0.0
C72 C 0.63194 0.27408 0.8862 0.0
C73 C 0.60691 0.26369 0.88007 0.0
C74 C 0.59319 0.27547 0.86423 0.0
C75 C 0.60428 0.29718 0.85481 0.0
H76 H 0.59611 0.34951 0.80271 0.0
H77 H 0.57956 0.36846 0.76893 0.0
H78 H 0.64911 0.41943 0.7679 0.0
H79 H 0.66518 0.40113 0.80183 0.0
H80 H 0.69527 0.41111 0.85352 0.0
H81 H 0.73298 0.43187 0.87483 0.0
H82 H 0.74249 0.36749 0.90827 0.0
H83 H 0.7049 0.3467 0.88714 0.0
H84 H 0.66218 0.30319 0.88242 0.0
H85 H 0.64296 0.26566 0.89856 0.0
H86 H 0.5739 0.26785 0.85905 0.0
H87 H 0.59318 0.30587 0.84279 0.0
N88 N 0.63091 0.34126 0.83378 0.0
N89 N 0.6636 0.37428 0.83742 0.0
N90 N 0.6625 0.343 0.86343 0.0
C91 C 0.64225 0.3628 0.82603 0.0
C92 C 0.67382 0.36453 0.85613 0.0
C93 C 0.64107 0.33122 0.8525 0.0
C94 C 0.63194 0.37382 0.80519 0.0
C95 C 0.60783 0.36478 0.79528 0.0
C96 C 0.59839 0.37561 0.7758 0.0
C97 C 0.61288 0.39565 0.76566 0.0
C98 C 0.63709 0.40441 0.77545 0.0
C99 C 0.64642 0.39375 0.79494 0.0
C100 C 0.697 0.37721 0.86861 0.0
C101 C 0.70544 0.40135 0.86535 0.0
C102 C 0.72695 0.41329 0.87764 0.0
C103 C 0.74068 0.4013 0.89319 0.0
C104 C 0.73242 0.37716 0.89625 0.0
C105 C 0.71077 0.36528 0.88422 0.0
C106 C 0.62923 0.30771 0.8613 0.0
C107 C 0.6429 0.29577 0.87702 0.0
C108 C 0.78463 0.66724 0.39808 0.0
C109 C 0.77256 0.64466 0.39121 0.0
C110 C 0.78181 0.6346 0.37226 0.0
C111 C 0.80273 0.64674 0.36069 0.0
H112 H 0.8545 0.64037 0.31135 0.0
H113 H 0.86978 0.62313 0.27818 0.0
H114 H 0.91876 0.68892 0.26341 0.0
H115 H 0.90331 0.70638 0.29668 0.0
H116 H 0.91702 0.74259 0.34885 0.0
H117 H 0.93559 0.77998 0.36724 0.0
H118 H 0.86411 0.78216 0.3957 0.0
H119 H 0.84609 0.74484 0.37823 0.0
H120 H 0.81403 0.6967 0.39252 0.0
H121 H 0.77783 0.67578 0.41228 0.0
H122 H 0.77312 0.61717 0.36657 0.0
H123 H 0.80941 0.63838 0.3463 0.0
N124 N 0.84699 0.67323 0.3377 0.0
N125 N 0.87844 0.70725 0.33489 0.0
N126 N 0.84828 0.70421 0.36317 0.0
C127 C 0.86753 0.68543 0.32704 0.0
C128 C 0.86878 0.71676 0.35301 0.0
C129 C 0.83725 0.6825 0.35581 0.0
C130 C 0.87759 0.67488 0.30688 0.0
C131 C 0.86856 0.65127 0.30113 0.0
C132 C 0.87747 0.64127 0.2821 0.0
C133 C 0.89559 0.65455 0.26801 0.0
C134 C 0.90464 0.67817 0.27369 0.0
C135 C 0.89588 0.68817 0.29291 0.0
C136 C 0.88011 0.74047 0.36221 0.0
C137 C 0.9053 0.75116 0.35895 0.0
C138 C 0.91592 0.77268 0.36948 0.0
C139 C 0.90154 0.78414 0.38338 0.0
C140 C 0.87612 0.77372 0.38582 0.0
C141 C 0.86567 0.75225 0.37557 0.0
C142 C 0.81487 0.6693 0.36772 0.0
C143 C 0.80541 0.67935 0.38655 0.0
C144 C 0.62363 0.83071 0.85593 0.0
C145 C 0.61411 0.82516 0.87804 0.0
C146 C 0.62231 0.80742 0.89118 0.0
C147 C 0.64038 0.79618 0.88283 0.0
H148 H 0.68648 0.74969 0.90286 0.0
H149 H 0.7092 0.72806 0.93029 0.0
H150 H 0.77009 0.73587 0.88362 0.0
H151 H 0.74772 0.75731 0.85631 0.0
H152 H 0.73898 0.77369 0.80515 0.0
H153 H 0.76055 0.78832 0.77027 0.0
H154 H 0.71196 0.83782 0.75977 0.0
H155 H 0.69045 0.82344 0.79493 0.0
H156 H 0.64907 0.82467 0.83071 0.0
H157 H 0.61793 0.84444 0.84545 0.0
H158 H 0.61503 0.80247 0.90813 0.0
H159 H 0.64663 0.78297 0.89369 0.0
N160 N 0.68227 0.77783 0.86764 0.0
N161 N 0.71189 0.77571 0.84 0.0
N162 N 0.68136 0.79815 0.83217 0.0
C163 C 0.70246 0.76955 0.86112 0.0
C164 C 0.70146 0.7899 0.82538 0.0
C165 C 0.67156 0.7921 0.85323 0.0
C166 C 0.71528 0.75535 0.87739 0.0
C167 C 0.70467 0.74672 0.89841 0.0
C168 C 0.71761 0.73429 0.9141 0.0
C169 C 0.7415 0.73055 0.90917 0.0
C170 C 0.75188 0.73884 0.88804 0.0
C171 C 0.73892 0.751 0.87231 0.0
C172 C 0.71306 0.79749 0.80301 0.0
C173 C 0.7327 0.78759 0.79537 0.0
C174 C 0.745 0.79586 0.77525 0.0
C175 C 0.73802 0.81428 0.76232 0.0
C176 C 0.71795 0.82378 0.76955 0.0
C177 C 0.70553 0.81543 0.78964 0.0
C178 C 0.65065 0.80237 0.86111 0.0
C179 C 0.64166 0.81943 0.84754 0.0
C180 C 0.78876 0.24693 0.26016 0.0
C181 C 0.76834 0.25625 0.25125 0.0
C182 C 0.7615 0.27456 0.2632 0.0
C183 C 0.77423 0.28281 0.28405 0.0
H184 H 0.77585 0.33018 0.33508 0.0
H185 H 0.75528 0.35478 0.35759 0.0
H186 H 0.79496 0.33731 0.42018 0.0
H187 H 0.81532 0.31208 0.39766 0.0
H188 H 0.85242 0.27626 0.3939 0.0
H189 H 0.87876 0.25156 0.41269 0.0
H190 H 0.87698 0.21384 0.34854 0.0
H191 H 0.85126 0.23869 0.32961 0.0
H192 H 0.81663 0.24705 0.28768 0.0
H193 H 0.79434 0.23264 0.25149 0.0
H194 H 0.74605 0.2823 0.25659 0.0
H195 H 0.76806 0.29659 0.29304 0.0
N196 N 0.79803 0.29647 0.329 0.0
N197 N 0.82415 0.28999 0.36108 0.0
N198 N 0.82275 0.26829 0.32696 0.0
C199 C 0.80718 0.30177 0.35109 0.0
C200 C 0.83214 0.27329 0.34903 0.0
C201 C 0.80572 0.27981 0.31679 0.0
C202 C 0.79707 0.31887 0.36456 0.0
C203 C 0.78046 0.33168 0.3536 0.0
C204 C 0.76878 0.34601 0.3665 0.0
C205 C 0.7734 0.34797 0.39071 0.0
C206 C 0.79078 0.33594 0.40159 0.0
C207 C 0.80254 0.32158 0.38864 0.0
C208 C 0.84956 0.25945 0.36023 0.0
C209 C 0.85784 0.26286 0.38372 0.0
C210 C 0.87282 0.2486 0.39455 0.0
C211 C 0.8799 0.23067 0.38215 0.0
C212 C 0.87216 0.22767 0.35854 0.0
C213 C 0.85721 0.24187 0.34772 0.0
C214 C 0.79402 0.27284 0.29347 0.0
C215 C 0.80145 0.25512 0.28103 0.0
C216 C 0.28366 0.63599 0.19189 0.0
C217 C 0.27327 0.64595 0.17229 0.0
C218 C 0.28485 0.66847 0.16513 0.0
C219 C 0.30629 0.68071 0.1772 0.0
H220 H 0.35148 0.74487 0.18219 0.0
H221 H 0.37111 0.78203 0.1655 0.0
H222 H 0.43929 0.78066 0.20674 0.0
H223 H 0.41962 0.74305 0.22355 0.0
H224 H 0.40878 0.70599 0.27148 0.0
H225 H 0.42494 0.68774 0.306 0.0
H226 H 0.37217 0.62357 0.29061 0.0
H227 H 0.35625 0.64148 0.25624 0.0
H228 H 0.31266 0.63994 0.21892 0.0
H229 H 0.27538 0.61858 0.19774 0.0
H230 H 0.27713 0.67683 0.15034 0.0
H231 H 0.31458 0.69803 0.17113 0.0
N232 N 0.35095 0.70531 0.20203 0.0
N233 N 0.38196 0.70771 0.23229 0.0
N234 N 0.34974 0.67436 0.22845 0.0
C235 C 0.37204 0.71742 0.21322 0.0
C236 C 0.3708 0.68613 0.24005 0.0
C237 C 0.33968 0.68379 0.20944 0.0
C238 C 0.38397 0.74081 0.20421 0.0
C239 C 0.37064 0.75242 0.18786 0.0
C240 C 0.38184 0.77389 0.17836 0.0
C241 C 0.40676 0.78436 0.18478 0.0
C242 C 0.4201 0.77295 0.20131 0.0
C243 C 0.40878 0.75148 0.21104 0.0
C244 C 0.38118 0.67527 0.26096 0.0
C245 C 0.40069 0.68796 0.2754 0.0
C246 C 0.40986 0.67755 0.29528 0.0
C247 C 0.39991 0.65416 0.30105 0.0
C248 C 0.38052 0.6415 0.28654 0.0
C249 C 0.37127 0.6519 0.26684 0.0
C250 C 0.31676 0.67075 0.19677 0.0
C251 C 0.30514 0.64823 0.20398 0.0
C252 C 0.13193 0.28257 0.68049 0.0
C253 C 0.10823 0.27027 0.68676 0.0
C254 C 0.09545 0.28026 0.70337 0.0
C255 C 0.10618 0.30198 0.71341 0.0
H256 H 0.11075 0.34555 0.77585 0.0
H257 H 0.09621 0.36173 0.81021 0.0
H258 H 0.13908 0.42979 0.7927 0.0
H259 H 0.15433 0.41345 0.7591 0.0
H260 H 0.20803 0.41004 0.72987 0.0
H261 H 0.24449 0.43131 0.70968 0.0
H262 H 0.22238 0.38727 0.64973 0.0
H263 H 0.18627 0.36604 0.66971 0.0
H264 H 0.16072 0.31309 0.68472 0.0
H265 H 0.14221 0.27567 0.66756 0.0
H266 H 0.07722 0.2712 0.70874 0.0
H267 H 0.09581 0.30918 0.72605 0.0
N268 N 0.13244 0.34666 0.73546 0.0
N269 N 0.16345 0.38099 0.73277 0.0
N270 N 0.16114 0.35107 0.70579 0.0
C271 C 0.14345 0.36826 0.74377 0.0
C272 C 0.17238 0.37252 0.71373 0.0
C273 C 0.14129 0.33793 0.71641 0.0
C274 C 0.13387 0.37808 0.7646 0.0
C275 C 0.1171 0.36397 0.77934 0.0
C276 C 0.10861 0.37335 0.79907 0.0
C277 C 0.11643 0.3972 0.80457 0.0
C278 C 0.13297 0.41129 0.78959 0.0
C279 C 0.14165 0.40189 0.77007 0.0
C280 C 0.19416 0.38625 0.70149 0.0
C281 C 0.21088 0.40498 0.71234 0.0
C282 C 0.23185 0.41709 0.70083 0.0
C283 C 0.23632 0.41103 0.67806 0.0
C284 C 0.21938 0.39257 0.66714 0.0
C285 C 0.19871 0.38028 0.67871 0.0
C286 C 0.1298 0.31437 0.70684 0.0
C287 C 0.14249 0.30425 0.69029 0.0
Tb288 Tb 0.97323 1.01898 0.5434 0.0
Tb289 Tb 0.02922 0.03581 0.53056 0.0
C290 C 0.9302 0.9977 0.55324 0.0
C291 C 0.91759 0.97527 0.56303 0.0
C292 C 0.92835 0.96497 0.58216 0.0
C293 C 0.91422 0.94598 0.59377 0.0
C294 C 0.88913 0.93692 0.58639 0.0
C295 C 0.8791 0.94631 0.56625 0.0
C296 C 0.89319 0.96537 0.55475 0.0
C297 C 0.99788 0.05858 0.56206 0.0
C298 C 0.01609 0.99496 0.56641 0.0
C299 C 0.07266 0.06004 0.52865 0.0
C300 C 0.08837 0.0709 0.50992 0.0
C301 C 0.11078 0.08673 0.5154 0.0
C302 C 0.12556 0.09772 0.49768 0.0
C303 C 0.11815 0.09299 0.47418 0.0
C304 C 0.09569 0.07695 0.46879 0.0
C305 C 0.08086 0.06605 0.48654 0.0
C306 C 0.00573 1.00064 0.50337 0.0
C307 C 0.98521 0.05504 0.50286 0.0
O308 O 0.9389 0.9975 0.53239 0.0
O309 O 0.94545 1.01167 0.56761 0.0
O310 O 0.00669 0.0406 0.5588 0.0
O311 O 0.97423 0.05425 0.55581 0.0
O312 O 0.99194 0.99294 0.56024 0.0
O313 O 0.03348 1.01272 0.55969 0.0
O314 O 0.05274 0.06883 0.53181 0.0
O315 O 0.06784 0.03716 0.52923 0.0
O316 O 0.99766 1.01082 0.51943 0.0
O317 O 0.02887 1.01131 0.50129 0.0
O318 O 0.0094 0.05837 0.50942 0.0
O319 O 0.96799 0.03829 0.51167 0.0
H320 H 0.94722 0.97229 0.58883 0.0
H321 H 0.92252 0.93931 0.60928 0.0
H322 H 0.86003 0.93944 0.55983 0.0
H323 H 0.88461 0.97302 0.53995 0.0
H324 H 0.11677 0.09067 0.53339 0.0
H325 H 0.14289 0.1098 0.50236 0.0
H326 H 0.08935 0.07318 0.45086 0.0
H327 H 0.06345 0.05398 0.48205 0.0
Tb328 Tb 0.53506 0.02976 0.03454 0.0
Tb329 Tb 0.47929 1.01559 1.02649 0.0
C330 C 0.58003 0.05099 0.03973 0.0
C331 C 0.59424 0.0713 0.0525 0.0
C332 C 0.58324 0.09015 0.05785 0.0
C333 C 0.59694 0.1088 0.07094 0.0
C334 C 0.62188 0.10889 0.07874 0.0
C335 C 0.63284 0.09005 0.07305 0.0
C336 C 0.61911 0.07144 0.06008 0.0
C337 C 0.51381 0.99152 0.05646 0.0
C338 C 0.49845 0.05314 0.06372 0.0
C339 C 0.43445 0.99391 1.02197 0.0
C340 C 0.41947 0.97588 1.00674 0.0
C341 C 0.42923 0.95708 0.99896 0.0
C342 C 0.41463 0.94044 0.98412 0.0
C343 C 0.39006 0.94237 0.97684 0.0
C344 C 0.38036 0.96114 0.98488 0.0
C345 C 0.39495 0.97773 0.99967 0.0
C346 C 0.5004 0.05389 1.00454 0.0
C347 C 0.51591 0.99267 0.99648 0.0
O348 O 0.56473 0.05514 1.02262 0.0
O349 O 0.57005 0.03322 0.05257 0.0
O350 O 0.50516 1.00982 0.05373 0.0
O351 O 0.53575 0.99465 0.04778 0.0
O352 O 0.52089 0.05532 0.05501 0.0
O353 O 0.47975 0.03587 0.05758 0.0
O354 O 0.45131 0.98745 0.03623 0.0
O355 O 0.44283 1.01404 1.01205 0.0
O356 O 0.50913 0.03564 1.00735 0.0
O357 O 0.47828 0.05053 1.01289 0.0
O358 O 0.49309 0.99124 1.00418 0.0
O359 O 0.53518 1.00877 1.00402 0.0
H360 H 0.56407 0.0904 0.05201 0.0
H361 H 0.58806 0.12314 0.0749 0.0
H362 H 0.65185 0.08941 0.07912 0.0
H363 H 0.62784 0.05696 0.05619 0.0
H364 H 0.44811 0.9553 1.00429 0.0
H365 H 0.42271 0.9263 0.97807 0.0
H366 H 0.36138 0.96292 0.9799 0.0
H367 H 0.38709 0.99208 1.00558 0.0
Tb368 Tb 0.50569 0.54963 0.544 0.0
Tb369 Tb 0.50454 0.50209 0.52504 0.0
C370 C 0.4937 0.58756 0.55321 0.0
C371 C 0.47141 0.59384 0.56275 0.0
C372 C 0.46306 0.61355 0.554 0.0
C373 C 0.44112 0.6191 0.56183 0.0
C374 C 0.42719 0.60503 0.57861 0.0
C375 C 0.43569 0.58534 0.58746 0.0
C376 C 0.45758 0.57972 0.57951 0.0
C377 C 0.52906 0.52298 0.57069 0.0
C378 C 0.45879 0.50753 0.55318 0.0
C379 C 0.51569 0.46395 0.51507 0.0
C380 C 0.53784 0.457 0.50595 0.0
C381 C 0.56223 0.4693 0.51189 0.0
C382 C 0.58307 0.46241 0.50315 0.0
C383 C 0.5799 0.44308 0.48833 0.0
C384 C 0.55541 0.43091 0.48231 0.0
C385 C 0.53458 0.43783 0.49106 0.0
C386 C 0.48114 0.52898 0.49864 0.0
C387 C 0.55167 0.54414 0.51627 0.0
O388 O 0.49 0.57796 0.53262 0.0
O389 O 0.50744 0.57703 0.5674 0.0
O390 O 0.50876 0.51667 0.55889 0.0
O391 O 0.53626 0.54545 0.56894 0.0
O392 O 0.46767 0.53036 0.55201 0.0
O393 O 0.47155 0.49244 0.54554 0.0
O394 O 0.51864 0.47281 0.536 0.0
O395 O 0.50329 0.47551 0.50066 0.0
O396 O 0.5016 0.53502 0.51021 0.0
O397 O 0.47355 0.50657 0.50062 0.0
O398 O 0.54265 0.52131 0.51731 0.0
O399 O 0.53893 0.55927 0.52386 0.0
H400 H 0.47341 0.62454 0.54095 0.0
H401 H 0.43515 0.63452 0.5549 0.0
H402 H 0.42519 0.57406 0.60021 0.0
H403 H 0.4635 0.56422 0.58628 0.0
H404 H 0.56522 0.4842 0.52333 0.0
H405 H 0.60165 0.47232 0.50786 0.0
H406 H 0.55235 0.41578 0.47117 0.0
H407 H 0.5159 0.42813 0.4863 0.0
Tb408 Tb 1.00161 0.54409 1.02045 0.0
Tb409 Tb 0.00702 0.50441 0.05279 0.0
C410 C 0.98434 0.57335 0.99549 0.0
C411 C 0.96417 0.58645 0.9968 0.0
C412 C 0.94558 0.58053 1.01315 0.0
C413 C 0.92569 0.59234 1.01323 0.0
C414 C 0.92402 0.61017 0.99687 0.0
C415 C 0.94299 0.61621 0.98078 0.0
C416 C 0.96289 0.60446 0.9808 0.0
C417 C 0.04635 0.54753 0.04126 0.0
C418 C 0.9827 0.54321 0.07283 0.0
C419 C 0.02343 0.4744 0.07739 0.0
C420 C 0.04372 0.4614 0.0763 0.0
C421 C 0.06472 0.46963 0.06304 0.0
C422 C 0.08473 0.45792 0.06367 0.0
C423 C 0.08398 0.43776 0.07751 0.0
C424 C 0.06252 0.42927 0.09019 0.0
C425 C 0.04259 0.44101 0.08958 0.0
C426 C 0.96237 0.50121 1.03168 0.0
C427 C 0.02673 0.5057 1.00073 0.0
O428 O 0.97697 0.55076 0.99333 0.0
O429 O 0.00342 0.57903 1.01049 0.0
O430 O 0.02553 0.53984 0.05002 0.0
O431 O 0.0425 0.55535 1.02043 0.0
O432 O 0.98131 0.55114 0.05111 0.0
O433 O 0.99409 0.52577 0.07817 0.0
O434 O 0.03059 0.49691 0.08042 0.0
O435 O 0.00489 0.46916 0.06177 0.0
O436 O 0.98333 0.50863 1.02315 0.0
O437 O 0.96599 0.49363 0.05263 0.0
O438 O 0.02806 0.49776 1.02246 0.0
O439 O 0.01509 0.52293 0.99527 0.0
H440 H 0.9462 0.56654 1.02557 0.0
H441 H 0.91156 0.58742 1.02598 0.0
H442 H 0.94208 0.62955 0.96767 0.0
H443 H 0.97701 0.60913 0.96797 0.0
H444 H 0.06588 0.48536 0.05262 0.0
H445 H 0.10089 0.46476 0.05356 0.0
H446 H 0.06149 0.41401 0.10129 0.0
H447 H 0.02653 0.43447 0.09995 0.0
H448 H 0.25252 0.16881 0.29933 0.0
H449 H 0.22619 0.14735 0.329 0.0
H450 H 0.22537 0.21191 0.36364 0.0
H451 H 0.25157 0.23351 0.33395 0.0
H452 H 0.23503 0.14465 0.37625 0.0
H453 H 0.15102 0.18281 0.35615 0.0
H454 H 0.17673 0.186 0.33693 0.0
H455 H 0.17912 0.20429 0.36209 0.0
C456 C 0.24685 0.17842 0.31335 0.0
C457 C 0.25403 0.20286 0.31428 0.0
C458 C 0.23172 0.16615 0.33021 0.0
C459 C 0.22346 0.17808 0.34826 0.0
C460 C 0.231 0.20242 0.34951 0.0
H461 H 0.14022 0.13912 0.47139 0.0
H462 H 0.16599 0.15895 0.44049 0.0
C463 C 0.24602 0.21473 0.33259 0.0
C464 C 0.20739 0.16499 0.36607 0.0
H465 H 0.15097 0.16035 0.39108 0.0
C466 C 0.21658 0.14795 0.3794 0.0
C467 C 0.18328 0.16928 0.37004 0.0
C468 C 0.17181 0.18642 0.3554 0.0
C469 C 0.20255 0.13551 0.39703 0.0
C470 C 0.17868 0.14013 0.40125 0.0
C471 C 0.16937 0.15698 0.3878 0.0
C472 C 0.16322 0.12793 0.41985 0.0
C473 C 0.21356 0.1179 0.41139 0.0
C474 C 0.15301 0.10399 0.41829 0.0
C475 C 0.13831 0.0926 0.43591 0.0
C476 C 0.13364 0.10501 0.45538 0.0
C477 C 0.1438 0.12904 0.45677 0.0
C478 C 0.15837 0.14041 0.4391 0.0
H479 H 0.23398 0.11962 0.40895 0.0
H480 H 0.21066 0.11985 0.43017 0.0
H481 H 0.20392 0.10006 0.40613 0.0
H482 H 0.15633 0.09414 0.40339 0.0
H483 H 0.13085 0.07405 0.43443 0.0
H484 H 0.2426 0.84177 0.81797 0.0
H485 H 0.26916 0.86295 0.84922 0.0
H486 H 0.28425 0.79827 0.87751 0.0
H487 H 0.25736 0.77676 0.8463 0.0
H488 H 0.26473 0.85771 0.89818 0.0
H489 H 0.35481 0.83934 0.86905 0.0
H490 H 0.32659 0.83503 0.8504 0.0
H491 H 0.32989 0.81452 0.87331 0.0
C492 C 0.25123 0.83195 0.83101 0.0
C493 C 0.2478 0.80755 0.82968 0.0
C494 C 0.26654 0.84412 0.84876 0.0
C495 C 0.27886 0.83219 0.86546 0.0
C496 C 0.27522 0.8078 0.86451 0.0
H497 H 0.38518 0.89481 0.97774 0.0
H498 H 0.3581 0.86632 0.952 0.0
C499 C 0.25985 0.79557 0.8467 0.0
C500 C 0.29547 0.84555 0.88379 0.0
H501 H 0.35697 0.86274 0.90229 0.0
C502 C 0.28487 0.85869 0.89921 0.0
C503 C 0.32171 0.84666 0.88509 0.0
C504 C 0.33408 0.8333 0.86852 0.0
C505 C 0.29989 0.87331 0.91567 0.0
C506 C 0.32622 0.87509 0.91642 0.0
C507 C 0.33677 0.86134 0.90157 0.0
C508 C 0.34315 0.89217 0.93157 0.0
C509 C 0.28747 0.88685 0.93203 0.0
C510 C 0.34411 0.91609 0.92817 0.0
C511 C 0.35958 0.93235 0.94269 0.0
C512 C 0.37449 0.925 0.96085 0.0
C513 C 0.37401 0.90102 0.96382 0.0
C514 C 0.35849 0.88473 0.94924 0.0
H515 H 0.26732 0.87878 0.9337 0.0
H516 H 0.29706 0.88802 0.9496 0.0
H517 H 0.28859 0.90482 0.92513 0.0
H518 H 0.33285 0.92219 0.91425 0.0
H519 H 0.35994 0.95071 0.93961 0.0
H520 H 0.62008 0.44263 0.75626 0.0
H521 H 0.60577 0.46198 0.72172 0.0
H522 H 0.56829 0.39548 0.6939 0.0
H523 H 0.58326 0.37572 0.72807 0.0
H524 H 0.61468 0.44972 0.67111 0.0
H525 H 0.51476 0.44068 0.69362 0.0
H526 H 0.53959 0.4403 0.71561 0.0
H527 H 0.52914 0.41561 0.69705 0.0
C528 C 0.60903 0.43199 0.74274 0.0
C529 C 0.60302 0.4075 0.74501 0.0
C530 C 0.60074 0.44315 0.72306 0.0
C531 C 0.58595 0.43017 0.70531 0.0
C532 C 0.57956 0.40581 0.70752 0.0
H533 H 0.51034 0.47734 0.58144 0.0
H534 H 0.5252 0.45379 0.61259 0.0
C535 C 0.58802 0.39457 0.72716 0.0
C536 C 0.57761 0.44223 0.68435 0.0
H537 H 0.52661 0.45963 0.65834 0.0
C538 C 0.59542 0.45186 0.66822 0.0
C539 C 0.55246 0.4448 0.6806 0.0
C540 C 0.53276 0.43494 0.69761 0.0
C541 C 0.58873 0.464 0.64836 0.0
C542 C 0.56368 0.46724 0.64491 0.0
C543 C 0.54581 0.45726 0.66095 0.0
C544 C 0.55566 0.48123 0.62509 0.0
C545 C 0.6085 0.47284 0.63108 0.0
C546 C 0.56776 0.50455 0.62165 0.0
C547 C 0.55952 0.51793 0.60359 0.0
C548 C 0.53877 0.50839 0.58882 0.0
C549 C 0.52662 0.48509 0.5923 0.0
C550 C 0.535 0.47165 0.61022 0.0
H551 H 0.62368 0.46266 0.63213 0.0
H552 H 0.60028 0.47199 0.61298 0.0
H553 H 0.6172 0.49126 0.63506 0.0
H554 H 0.58327 0.5126 0.63323 0.0
H555 H 0.56909 0.5359 0.60149 0.0
H556 H 0.90487 0.67327 0.22424 0.0
H557 H 0.91834 0.65484 0.19047 0.0
H558 H 0.92112 0.59308 0.23153 0.0
H559 H 0.90735 0.61123 0.26517 0.0
H560 H 0.95976 0.63889 0.18214 0.0
H561 H 0.87901 0.56436 0.17644 0.0
H562 H 0.87953 0.58903 0.19492 0.0
H563 H 0.8953 0.56605 0.20442 0.0
C564 C 0.90843 0.65579 0.22613 0.0
C565 C 0.90473 0.64371 0.24748 0.0
C566 C 0.91606 0.6452 0.20673 0.0
C567 C 0.92023 0.62226 0.20812 0.0
C568 C 0.91726 0.61045 0.22961 0.0
H569 H 0.97774 0.52927 0.11846 0.0
H570 H 0.96224 0.54895 0.15016 0.0
C571 C 0.90945 0.62093 0.24894 0.0
C572 C 0.92811 0.61087 0.18731 0.0
H573 H 0.91385 0.56173 0.15373 0.0
C574 C 0.94955 0.62212 0.17583 0.0
C575 C 0.91484 0.58897 0.17884 0.0
C576 C 0.89075 0.57651 0.18914 0.0
C577 C 0.95841 0.61184 0.15676 0.0
C578 C 0.94544 0.58975 0.14867 0.0
C579 C 0.92389 0.5786 0.15994 0.0
C580 C 0.95431 0.57766 0.12894 0.0
C581 C 0.98202 0.62442 0.14577 0.0
C582 C 0.95464 0.58694 0.10622 0.0
C583 C 0.96336 0.5756 0.0879 0.0
C584 C 0.97207 0.55472 0.0919 0.0
C585 C 0.97131 0.54532 0.11464 0.0
C586 C 0.96241 0.55656 0.13286 0.0
H587 H 0.99252 0.6389 0.1568 0.0
H588 H 0.99458 0.61216 0.14255 0.0
H589 H 0.97696 0.63186 0.12874 0.0
H590 H 0.94813 0.60299 0.10262 0.0
H591 H 0.96358 0.58339 0.07068 0.0
H592 H 0.43515 0.23358 0.15322 0.0
H593 H 0.4596 0.20895 0.13427 0.0
H594 H 0.42408 0.14978 0.17461 0.0
H595 H 0.39941 0.174 0.19333 0.0
H596 H 0.47757 0.15393 0.17016 0.0
H597 H 0.42417 0.15972 0.08575 0.0
H598 H 0.43931 0.18681 0.09909 0.0
H599 H 0.41367 0.16832 0.11292 0.0
C600 C 0.43261 0.21534 0.15809 0.0
C601 C 0.41523 0.20574 0.17471 0.0
C602 C 0.44665 0.20134 0.14733 0.0
C603 C 0.44346 0.17755 0.15296 0.0
C604 C 0.42689 0.16815 0.17014 0.0
H605 H 0.4543 0.05492 0.08334 0.0
H606 H 0.44462 0.08653 0.1059 0.0
C607 C 0.41286 0.18207 0.18087 0.0
C608 C 0.45581 0.16186 0.1399 0.0
H609 H 0.45336 0.13521 0.0873 0.0
C610 C 0.47263 0.15005 0.15195 0.0
C611 C 0.44903 0.15673 0.11622 0.0
C612 C 0.43044 0.16838 0.10267 0.0
C613 C 0.4824 0.13279 0.14101 0.0
C614 C 0.47512 0.12733 0.11753 0.0
C615 C 0.45891 0.13959 0.10532 0.0
C616 C 0.48218 0.10754 0.1058 0.0
C617 C 0.49952 0.11975 0.1548 0.0
C618 C 0.50667 0.10882 0.09861 0.0
C619 C 0.51232 0.09072 0.08561 0.0
C620 C 0.49352 0.07116 0.07959 0.0
C621 C 0.46924 0.06971 0.08757 0.0
C622 C 0.46363 0.08777 0.10046 0.0
H623 H 0.50162 0.12471 0.17346 0.0
H624 H 0.49213 0.10067 0.15351 0.0
H625 H 0.51838 0.12349 0.14739 0.0
H626 H 0.52117 0.12407 0.10246 0.0
H627 H 0.53121 0.09237 0.07978 0.0
H628 H 0.12317 0.8597 0.69139 0.0
H629 H 0.1007 0.8876 0.67266 0.0
H630 H 0.06642 0.83592 0.62203 0.0
H631 H 0.08868 0.80762 0.64092 0.0
H632 H 0.08751 0.87921 0.60265 0.0
H633 H 0.02586 0.88972 0.67386 0.0
H634 H 0.05841 0.89355 0.68317 0.0
H635 H 0.04182 0.86559 0.67277 0.0
C636 C 0.1105 0.85406 0.67654 0.0
C637 C 0.10754 0.83132 0.6678 0.0
C638 C 0.09766 0.87006 0.66585 0.0
C639 C 0.08153 0.86368 0.64624 0.0
C640 C 0.07865 0.8411 0.63728 0.0
H641 H 0.9869 0.95418 0.58176 0.0
H642 H 1.00121 0.92125 0.60095 0.0
C643 C 0.09148 0.82501 0.64801 0.0
C644 C 0.06883 0.88111 0.63448 0.0
H645 H 0.03028 0.91902 0.6439 0.0
C646 C 0.07477 0.88773 0.61156 0.0
C647 C 0.05199 0.892 0.64606 0.0
C648 C 0.04392 0.88471 0.67025 0.0
C649 C 0.06513 0.90567 0.60024 0.0
C650 C 0.04943 0.91743 0.61229 0.0
C651 C 0.0426 0.91015 0.63484 0.0
C652 C 0.04056 0.93779 0.60194 0.0
C653 C 0.07196 0.91199 0.57551 0.0
C654 C 0.05791 0.9582 0.59682 0.0
C655 C 0.04985 0.97707 0.58598 0.0
C656 C 0.02422 0.9759 0.58008 0.0
C657 C 0.00677 0.95569 0.58603 0.0
C658 C 0.01489 0.93683 0.59695 0.0
H659 H 0.07856 0.89767 0.56684 0.0
H660 H 0.05568 0.91615 0.56509 0.0
H661 H 0.08737 0.92764 0.57558 0.0
H662 H 0.07777 0.95942 0.60097 0.0
H663 H 0.06382 0.99236 0.58179 0.0
H664 H 0.74648 0.44213 0.91719 0.0
H665 H 0.78339 0.46164 0.94056 0.0
H666 H 0.82322 0.40843 0.92211 0.0
H667 H 0.78617 0.3886 0.89923 0.0
H668 H 0.82859 0.4164 0.96736 0.0
H669 H 0.84818 0.50126 0.92077 0.0
H670 H 0.81691 0.49402 0.93097 0.0
H671 H 0.82631 0.47626 0.90917 0.0
C672 C 0.76324 0.43478 0.9179 0.0
C673 C 0.76346 0.41385 0.90637 0.0
C674 C 0.78437 0.446 0.93119 0.0
C675 C 0.80628 0.43674 0.93283 0.0
C676 C 0.80657 0.41595 0.92111 0.0
H677 H 0.95546 0.50274 0.98445 0.0
H678 H 0.91678 0.48808 0.96117 0.0
C679 C 0.78538 0.4046 0.90807 0.0
C680 C 0.82853 0.44796 0.94761 0.0
H681 H 0.87107 0.49894 0.95679 0.0
C682 C 0.8379 0.43444 0.965 0.0
C683 C 0.84087 0.47144 0.9444 0.0
C684 C 0.83273 0.48653 0.92517 0.0
C685 C 0.8592 0.44367 0.97921 0.0
C686 C 0.87107 0.46736 0.97651 0.0
C687 C 0.86176 0.48089 0.95909 0.0
C688 C 0.8939 0.47802 0.99082 0.0
C689 C 0.8692 0.42767 0.99646 0.0
C690 C 0.89377 0.47795 1.01525 0.0
C691 C 0.91594 0.48609 1.0286 0.0
C692 C 0.9385 0.49483 1.01773 0.0
C693 C 0.93833 0.49607 0.9933 0.0
C694 C 0.91624 0.4877 0.97997 0.0
H695 H 0.86236 0.40903 0.9919 0.0
H696 H 0.89006 0.43136 0.9974 0.0
H697 H 0.86267 0.43035 1.01399 0.0
H698 H 0.87662 0.47119 1.02402 0.0
H699 H 0.91553 0.48518 0.0474 0.0
H700 H 0.72902 0.61697 0.37296 0.0
H701 H 0.69218 0.59768 0.39377 0.0
H702 H 0.72867 0.62461 0.45873 0.0
H703 H 0.76581 0.64328 0.43822 0.0
H704 H 0.70458 0.57846 0.46236 0.0
H705 H 0.64082 0.63124 0.41982 0.0
H706 H 0.65613 0.61597 0.4 0.0
H707 H 0.67448 0.63874 0.41782 0.0
C708 C 0.72935 0.61859 0.3917 0.0
C709 C 0.75039 0.63192 0.40383 0.0
C710 C 0.70812 0.60774 0.40356 0.0
C711 C 0.70741 0.61003 0.4278 0.0
C712 C 0.72864 0.62273 0.44002 0.0
H713 H 0.57689 0.58943 0.51208 0.0
H714 H 0.61489 0.60424 0.49111 0.0
C715 C 0.74983 0.63357 0.42821 0.0
C716 C 0.68455 0.59946 0.44052 0.0
H717 H 0.62244 0.60087 0.44495 0.0
C718 C 0.68659 0.58332 0.45852 0.0
C719 C 0.66113 0.60601 0.43575 0.0
C720 C 0.65794 0.62409 0.41746 0.0
C721 C 0.66593 0.57352 0.47178 0.0
C722 C 0.6424 0.57976 0.46673 0.0
C723 C 0.64039 0.59594 0.44876 0.0
C724 C 0.61979 0.57032 0.48027 0.0
C725 C 0.66969 0.55706 0.4915 0.0
C726 C 0.60976 0.54625 0.48126 0.0
C727 C 0.58802 0.53768 0.49339 0.0
C728 C 0.57567 0.55299 0.50465 0.0
C729 C 0.58586 0.57707 0.5037 0.0
C730 C 0.6076 0.58561 0.49164 0.0
H731 H 0.68986 0.55886 0.49696 0.0
H732 H 0.65922 0.56016 0.50683 0.0
H733 H 0.66257 0.53885 0.48571 0.0
H734 H 0.61844 0.5341 0.47224 0.0
H735 H 0.58063 0.51907 0.49349 0.0
H736 H 0.25364 0.31561 0.12332 0.0
H737 H 0.22446 0.3368 0.10297 0.0
H738 H 0.23674 0.38755 0.15799 0.0
H739 H 0.26596 0.36651 0.17838 0.0
H740 H 0.18655 0.36645 0.14915 0.0
H741 H 0.232 0.3995 0.06741 0.0
H742 H 0.23069 0.36908 0.07353 0.0
H743 H 0.24932 0.39065 0.09244 0.0
C744 C 0.25067 0.33165 0.13074 0.0
C745 C 0.26195 0.33933 0.15252 0.0
C746 C 0.234 0.34374 0.11908 0.0
C747 C 0.22856 0.3638 0.12893 0.0
C748 C 0.24072 0.3721 0.15011 0.0
H749 H 0.13359 0.45888 0.08267 0.0
H750 H 0.16923 0.44027 0.0924 0.0
C751 C 0.2573 0.36002 0.16177 0.0
C752 C 0.20815 0.37463 0.11866 0.0
H753 H 0.18939 0.40274 0.07048 0.0
C754 C 0.1872 0.37443 0.13197 0.0
C755 C 0.20913 0.38505 0.09627 0.0
C756 C 0.23157 0.38632 0.0816 0.0
C757 C 0.16711 0.38429 0.12349 0.0
C758 C 0.16783 0.39434 0.10095 0.0
C759 C 0.18885 0.39476 0.08765 0.0
C760 C 0.14711 0.40516 0.09149 0.0
C761 C 0.14541 0.38422 0.13888 0.0
C762 C 0.12311 0.39146 0.08697 0.0
C763 C 0.10273 0.402 0.08135 0.0
C764 C 0.10604 0.42643 0.08011 0.0
C765 C 0.13043 0.44002 0.08332 0.0
C766 C 0.1508 0.42944 0.08894 0.0
H767 H 0.15009 0.38013 0.1573 0.0
H768 H 0.1397 0.40139 0.13817 0.0
H769 H 0.12907 0.37082 0.13262 0.0
H770 H 0.12 0.37265 0.08859 0.0
H771 H 0.08426 0.39105 0.07857 0.0
H772 H 0.56018 0.25103 0.89782 0.0
H773 H 0.54258 0.21474 0.91817 0.0
H774 H 0.60956 0.18862 0.90674 0.0
H775 H 0.62733 0.22488 0.88662 0.0
H776 H 0.53175 0.16916 0.90468 0.0
H777 H 0.60501 0.18091 0.97648 0.0
H778 H 0.60155 0.20396 0.95614 0.0
H779 H 0.61749 0.18139 0.94815 0.0
C780 C 0.57106 0.23747 0.89945 0.0
C781 C 0.59527 0.24096 0.89079 0.0
C782 C 0.56103 0.21677 0.91119 0.0
C783 C 0.57498 0.19913 0.9145 0.0
C784 C 0.59873 0.20222 0.90506 0.0
H785 H 0.54343 0.06112 0.98022 0.0
H786 H 0.56182 0.09619 0.95813 0.0
C787 C 0.60883 0.22294 0.89347 0.0
C788 C 0.56465 0.17753 0.92776 0.0
H789 H 0.57649 0.14438 0.97497 0.0
C790 C 0.5415 0.16381 0.92009 0.0
C791 C 0.57736 0.1705 0.94791 0.0
C792 C 0.6016 0.18506 0.95782 0.0
C793 C 0.5309 0.14317 0.93182 0.0
C794 C 0.54365 0.13614 0.95189 0.0
C795 C 0.56683 0.14975 0.95951 0.0
C796 C 0.53283 0.11506 0.96556 0.0
C797 C 0.50627 0.12884 0.92251 0.0
C798 C 0.51072 0.1142 0.97737 0.0
C799 C 0.50037 0.09435 0.99015 0.0
C800 C 0.51196 0.07496 0.9914 0.0
C801 C 0.53424 0.07589 0.97975 0.0
C802 C 0.54468 0.09585 0.96706 0.0
H803 H 0.50179 0.13363 0.90424 0.0
H804 H 0.50661 0.10995 0.92331 0.0
H805 H 0.49095 0.13186 0.93336 0.0
H806 H 0.50148 0.12895 0.97675 0.0
H807 H 0.48325 0.09418 0.99903 0.0
H808 H 0.89112 0.79841 0.42651 0.0
H809 H 0.90744 0.83551 0.44571 0.0
H810 H 0.95522 0.85763 0.38858 0.0
H811 H 0.93785 0.82098 0.36851 0.0
H812 H 0.95275 0.85544 0.46192 0.0
H813 H 0.92341 0.91315 0.39324 0.0
H814 H 0.91269 0.88193 0.39278 0.0
H815 H 0.94325 0.89495 0.38281 0.0
C816 C 0.90474 0.81126 0.4177 0.0
C817 C 0.91274 0.80662 0.39562 0.0
C818 C 0.91428 0.8325 0.42889 0.0
C819 C 0.93222 0.84976 0.41848 0.0
C820 C 0.94088 0.84497 0.39678 0.0
H821 H 0.01982 0.98412 0.46342 0.0
H822 H 1.00112 0.94779 0.4432 0.0
C823 C 0.93117 0.82375 0.38544 0.0
C824 C 0.94207 0.87246 0.43063 0.0
H825 H 0.95059 0.93176 0.42405 0.0
C826 C 0.95209 0.87209 0.45364 0.0
C827 C 0.94121 0.89434 0.42 0.0
C828 C 0.92933 0.89619 0.39595 0.0
C829 C 0.96166 0.8928 0.46602 0.0
C830 C 0.96108 0.91462 0.45526 0.0
C831 C 0.95105 0.91505 0.43231 0.0
C832 C 0.97158 0.93717 0.46727 0.0
C833 C 0.97287 0.89121 0.49038 0.0
C834 C 0.96097 0.94361 0.48737 0.0
C835 C 0.97156 0.96453 0.49888 0.0
C836 C 0.99295 0.9794 0.49051 0.0
C837 C 0.00328 0.97307 0.47024 0.0
C838 C 0.99261 0.9523 0.45866 0.0
H839 H 0.97654 0.87355 0.4944 0.0
H840 H 0.99075 0.90417 0.49285 0.0
H841 H 0.95961 0.89513 0.50306 0.0
H842 H 0.9446 0.93235 0.49425 0.0
H843 H 0.96348 0.96871 0.51467 0.0
H844 H 0.27925 0.69172 0.69197 0.0
H845 H 0.30745 0.67161 0.6725 0.0
H846 H 0.25474 0.65833 0.6135 0.0
H847 H 0.22576 0.67786 0.63318 0.0
H848 H 0.29018 0.62 0.64753 0.0
H849 H 0.33078 0.69838 0.59513 0.0
H850 H 0.31867 0.7014 0.62334 0.0
H851 H 0.29744 0.69092 0.59929 0.0
C852 C 0.2733 0.68413 0.67507 0.0
C853 C 0.2501 0.68631 0.66421 0.0
C854 C 0.28955 0.67277 0.66393 0.0
C855 C 0.28308 0.66355 0.64167 0.0
C856 C 0.25995 0.66541 0.63074 0.0
H857 H 0.38895 0.61809 0.55249 0.0
H858 H 0.35152 0.62972 0.56637 0.0
C859 C 0.24354 0.67669 0.64194 0.0
C860 C 0.30118 0.6528 0.6297 0.0
H861 H 0.34983 0.66592 0.59348 0.0
C862 C 0.30308 0.62986 0.63549 0.0
C863 C 0.31777 0.66577 0.61399 0.0
C864 C 0.31627 0.69052 0.60744 0.0
C865 C 0.32162 0.61963 0.6262 0.0
C866 C 0.33904 0.63299 0.61128 0.0
C867 C 0.33653 0.65572 0.60496 0.0
C868 C 0.36071 0.62426 0.60282 0.0
C869 C 0.32231 0.59464 0.63245 0.0
C870 C 0.37833 0.61738 0.6187 0.0
C871 C 0.39964 0.61064 0.61081 0.0
C872 C 0.40394 0.61104 0.5869 0.0
C873 C 0.38623 0.61783 0.57103 0.0
C874 C 0.36481 0.62437 0.57892 0.0
H875 H 0.30353 0.58483 0.63724 0.0
H876 H 0.32875 0.58555 0.61784 0.0
H877 H 0.3355 0.59428 0.64774 0.0
H878 H 0.37596 0.61781 0.63726 0.0
H879 H 0.41316 0.60581 0.62345 0.0
H880 H 0.75488 0.79086 0.72755 0.0
H881 H 0.78122 0.80762 0.69566 0.0
H882 H 0.78001 0.87681 0.71936 0.0
H883 H 0.75413 0.86027 0.75147 0.0
H884 H 0.77154 0.84014 0.65969 0.0
H885 H 0.8558 0.87498 0.71654 0.0
H886 H 0.82994 0.85307 0.72629 0.0
H887 H 0.82749 0.88321 0.72502 0.0
C888 C 0.76029 0.80965 0.72598 0.0
C889 C 0.75252 0.82425 0.74207 0.0
C890 C 0.77522 0.81916 0.70773 0.0
C891 C 0.78281 0.84341 0.70541 0.0
C892 C 0.77461 0.85804 0.72108 0.0
H893 H 0.8404 0.9357 0.59649 0.0
H894 H 0.81483 0.90966 0.62338 0.0
C895 C 0.75962 0.84856 0.73926 0.0
C896 C 0.79935 0.85355 0.68665 0.0
H897 H 0.85635 0.88833 0.67717 0.0
C898 C 0.79019 0.85049 0.66344 0.0
C899 C 0.82379 0.86669 0.69164 0.0
C900 C 0.835 0.86955 0.7162 0.0
C901 C 0.80447 0.86114 0.64509 0.0
C902 C 0.82838 0.87533 0.65019 0.0
C903 C 0.83795 0.87753 0.67333 0.0
C904 C 0.84309 0.88932 0.63204 0.0
C905 C 0.7938 0.85729 0.62043 0.0
C906 C 0.86756 0.88658 0.62804 0.0
C907 C 0.88228 0.90143 0.61253 0.0
C908 C 0.87284 0.91941 0.60091 0.0
C909 C 0.84811 0.92174 0.60467 0.0
C910 C 0.83343 0.90687 0.6201 0.0
H911 H 0.77925 0.84099 0.61893 0.0
H912 H 0.78484 0.87206 0.61497 0.0
H913 H 0.80878 0.85639 0.60826 0.0
H914 H 0.87539 0.87319 0.63722 0.0
H915 H 0.90116 0.89905 0.6099 0.0
H916 H 0.78542 0.24257 0.2108 0.0
H917 H 0.76036 0.22176 0.17827 0.0
H918 H 0.6924 0.2251 0.21238 0.0
H919 H 0.71725 0.24584 0.24491 0.0
H920 H 0.72846 0.17907 0.18253 0.0
H921 H 0.67599 0.24435 0.14586 0.0
H922 H 0.70347 0.25217 0.16524 0.0
H923 H 0.67345 0.2399 0.17668 0.0
C924 C 0.76512 0.23906 0.21124 0.0
C925 C 0.75331 0.24585 0.23041 0.0
C926 C 0.75085 0.22728 0.19262 0.0
C927 C 0.72453 0.22216 0.19278 0.0
C928 C 0.71266 0.22938 0.21162 0.0
H929 H 0.60547 0.13031 0.11518 0.0
H930 H 0.63056 0.1593 0.14163 0.0
C931 C 0.7269 0.24121 0.23022 0.0
C932 C 0.70961 0.20738 0.17436 0.0
H933 H 0.66168 0.20505 0.13323 0.0
C934 C 0.71405 0.18483 0.17157 0.0
C935 C 0.69068 0.21491 0.16027 0.0
C936 C 0.68572 0.23923 0.16197 0.0
C937 C 0.69972 0.1694 0.15537 0.0
C938 C 0.68073 0.17687 0.14134 0.0
C939 C 0.6763 0.19944 0.14403 0.0
C940 C 0.66512 0.16123 0.12401 0.0
C941 C 0.70456 0.14499 0.15385 0.0
C942 C 0.67615 0.15332 0.10501 0.0
C943 C 0.66191 0.13686 0.08987 0.0
C944 C 0.63633 0.12807 0.09342 0.0
C945 C 0.62507 0.13685 0.11189 0.0
C946 C 0.63938 0.15333 0.12706 0.0
H947 H 0.71572 0.1404 0.16929 0.0
H948 H 0.68661 0.132 0.15225 0.0
H949 H 0.71524 0.14367 0.13816 0.0
H950 H 0.69592 0.15957 0.10217 0.0
H951 H 0.67099 0.13077 0.07554 0.0
H952 H 0.41005 0.6103 0.30489 0.0
H953 H 0.42361 0.5909 0.3398 0.0
H954 H 0.42541 0.65287 0.37975 0.0
H955 H 0.41138 0.67233 0.34491 0.0
H956 H 0.46768 0.60442 0.36906 0.0
H957 H 0.38059 0.60035 0.41688 0.0
H958 H 0.38194 0.60611 0.38597 0.0
H959 H 0.39508 0.62872 0.40635 0.0
C960 C 0.41317 0.61979 0.32113 0.0
C961 C 0.40943 0.64284 0.32212 0.0
C962 C 0.42105 0.6087 0.34105 0.0
C963 C 0.42518 0.6203 0.36246 0.0
C964 C 0.42196 0.64346 0.36349 0.0
H965 H 0.50245 0.57331 0.48559 0.0
H966 H 0.48868 0.59637 0.45339 0.0
C967 C 0.41419 0.65463 0.3435 0.0
C968 C 0.43302 0.60809 0.38359 0.0
H969 H 0.41394 0.58677 0.43689 0.0
C970 C 0.45598 0.60064 0.38393 0.0
C971 C 0.41759 0.60292 0.40286 0.0
C972 C 0.39232 0.60974 0.40307 0.0
C973 C 0.46399 0.58827 0.40304 0.0
C974 C 0.44873 0.58338 0.42245 0.0
C975 C 0.42569 0.59071 0.42208 0.0
C976 C 0.45614 0.5701 0.44299 0.0
C977 C 0.48847 0.58005 0.4021 0.0
C978 C 0.44198 0.54797 0.44833 0.0
C979 C 0.44977 0.53478 0.46679 0.0
C980 C 0.47175 0.54358 0.48034 0.0
C981 C 0.48543 0.56606 0.47546 0.0
C982 C 0.47768 0.5792 0.45697 0.0
H983 H 0.49519 0.58075 0.38412 0.0
H984 H 0.50303 0.59143 0.41322 0.0
H985 H 0.48649 0.56191 0.40881 0.0
H986 H 0.42524 0.54066 0.43784 0.0
H987 H 0.43883 0.51754 0.4702 0.0
H988 H 0.07037 0.38498 0.82472 0.0
H989 H 0.05604 0.40185 0.85879 0.0
H990 H 0.12696 0.45036 0.86604 0.0
H991 H 0.14209 0.43261 0.83299 0.0
H992 H 0.11291 0.43515 0.90737 0.0
H993 H 0.03111 0.46109 0.86112 0.0
H994 H 0.02989 0.43034 0.85961 0.0
H995 H 0.05466 0.4504 0.84598 0.0
C996 C 0.08314 0.39903 0.83365 0.0
C997 C 0.10745 0.40742 0.82568 0.0
C998 C 0.07469 0.40898 0.85303 0.0
C999 C 0.09009 0.42788 0.86482 0.0
C1000 C 0.1145 0.43599 0.85723 0.0
H1001 H 0.03536 0.52183 0.95628 0.0
H1002 H 0.05165 0.50299 0.92456 0.0
C1003 C 0.12306 0.42591 0.83802 0.0
C1004 C 0.081 0.43911 0.88513 0.0
H1005 H 0.03362 0.46464 0.90227 0.0
C1006 C 0.09559 0.44165 0.90619 0.0
C1007 C 0.05859 0.44802 0.88371 0.0
C1008 C 0.04279 0.44757 0.86133 0.0
C1009 C 0.08841 0.45258 0.92571 0.0
C1010 C 0.06553 0.46071 0.92454 0.0
C1011 C 0.05102 0.45828 0.90344 0.0
C1012 C 0.05659 0.47248 0.94458 0.0
C1013 C 0.10593 0.45593 0.94711 0.0
C1014 C 0.05385 0.46182 0.9667 0.0
C1015 C 0.04485 0.47281 0.98511 0.0
C1016 C 0.03783 0.49454 0.98174 0.0
C1017 C 0.04052 0.50512 0.9596 0.0
C1018 C 0.04981 0.49429 0.94134 0.0
H1019 H 0.12551 0.45549 0.94283 0.0
H1020 H 0.10591 0.47276 0.9557 0.0
H1021 H 0.09974 0.44157 0.95966 0.0
H1022 H 0.0582 0.44474 0.96968 0.0
H1023 H 0.0428 0.46398 1.00181 0.0
H1024 H 0.61558 0.84122 0.92243 0.0
H1025 H 0.59012 0.86651 0.93814 0.0
H1026 H 0.54925 0.86648 0.87194 0.0
H1027 H 0.57464 0.84087 0.85602 0.0
H1028 H 0.5669 0.9105 0.88894 0.0
H1029 H 0.51774 0.85429 0.95739 0.0
H1030 H 0.55097 0.85547 0.95966 0.0
H1031 H 0.53291 0.84284 0.93427 0.0
C1032 C 0.60076 0.84606 0.91134 0.0
C1033 C 0.59707 0.83892 0.88799 0.0
C1034 C 0.58619 0.86053 0.92037 0.0
C1035 C 0.56751 0.86806 0.90633 0.0
C1036 C 0.56347 0.86072 0.8831 0.0
H1037 H 0.48176 0.95602 0.97725 0.0
H1038 H 0.49021 0.9258 0.95169 0.0
C1039 C 0.57807 0.8462 0.87402 0.0
C1040 C 0.55388 0.88517 0.91552 0.0
H1041 H 0.52197 0.89586 0.96237 0.0
C1042 C 0.55664 0.90717 0.90475 0.0
C1043 C 0.5401 0.88069 0.93588 0.0
C1044 C 0.53501 0.85694 0.94732 0.0
C1045 C 0.54748 0.9253 0.91471 0.0
C1046 C 0.53567 0.92138 0.93617 0.0
C1047 C 0.53134 0.89894 0.94607 0.0
C1048 C 0.52983 0.94071 0.94974 0.0
C1049 C 0.55107 0.94862 0.90243 0.0
C1050 C 0.54928 0.95909 0.95709 0.0
C1051 C 0.54456 0.97631 0.9717 0.0
C1052 C 0.52028 0.97542 0.97944 0.0
C1053 C 0.50068 0.95723 0.97167 0.0
C1054 C 0.50545 0.93995 0.95704 0.0
H1055 H 0.55226 0.94667 0.88336 0.0
H1056 H 0.5355 0.95767 0.90557 0.0
H1057 H 0.56895 0.95977 0.90903 0.0
H1058 H 0.56836 0.95973 0.95214 0.0
H1059 H 0.56014 0.98999 0.97737 0.0
H1060 H 0.87375 0.21113 0.42555 0.0
H1061 H 0.89561 0.18245 0.44388 0.0
H1062 H 0.93997 0.18411 0.3836 0.0
H1063 H 0.91842 0.21307 0.3652 0.0
H1064 H 0.91741 0.13888 0.39815 0.0
H1065 H 0.96804 0.19134 0.4717 0.0
H1066 H 0.935 0.19131 0.46929 0.0
H1067 H 0.95487 0.20433 0.44656 0.0
C1068 C 0.88852 0.20578 0.41637 0.0
C1069 C 0.89437 0.21444 0.39392 0.0
C1070 C 0.90096 0.18935 0.42686 0.0
C1071 C 0.91957 0.18136 0.41518 0.0
C1072 C 0.92568 0.1901 0.3929 0.0
H1073 H 0.01402 0.09364 0.48317 0.0
H1074 H 0.99951 0.12373 0.45942 0.0
C1075 C 0.91327 0.20657 0.3824 0.0
C1076 C 0.93174 0.16301 0.42579 0.0
H1077 H 0.96599 0.15028 0.47382 0.0
C1078 C 0.92824 0.14141 0.41458 0.0
C1079 C 0.94609 0.16648 0.44707 0.0
C1080 C 0.95147 0.18968 0.45929 0.0
C1081 C 0.93801 0.12287 0.42454 0.0
C1082 C 0.95134 0.12602 0.44636 0.0
C1083 C 0.95558 0.14787 0.45716 0.0
C1084 C 0.96032 0.10668 0.45877 0.0
C1085 C 0.93395 0.1001 0.41164 0.0
C1086 C 0.94309 0.08702 0.46608 0.0
C1087 C 0.95127 0.06976 0.47967 0.0
C1088 C 0.97687 0.07192 0.48632 0.0
C1089 C 0.99417 0.09136 0.47838 0.0
C1090 C 0.98594 0.10862 0.46483 0.0
H1091 H 0.92978 0.10249 0.39275 0.0
H1092 H 0.95069 0.09199 0.41383 0.0
H1093 H 0.9177 0.08786 0.41873 0.0
H1094 H 0.92317 0.08539 0.46194 0.0
H1095 H 0.93741 0.05509 0.48551 0.0
H1096 H 0.26363 0.64348 0.12508 0.0
H1097 H 0.22527 0.62376 0.10397 0.0
H1098 H 0.1931 0.59878 0.16891 0.0
H1099 H 0.23109 0.61905 0.19024 0.0
H1100 H 0.20138 0.5762 0.10338 0.0
H1101 H 0.14024 0.63185 0.13782 0.0
H1102 H 0.17409 0.63963 0.14046 0.0
H1103 H 0.15724 0.6181 0.15961 0.0
C1104 C 0.24832 0.63397 0.13491 0.0
C1105 C 0.25037 0.63305 0.15938 0.0
C1106 C 0.22649 0.62255 0.1228 0.0
C1107 C 0.2062 0.61008 0.13488 0.0
C1108 C 0.20838 0.60862 0.15926 0.0
H1109 H 0.05476 0.54191 0.08797 0.0
H1110 H 0.09416 0.55457 0.11092 0.0
C1111 C 0.23022 0.62003 0.1714 0.0
C1112 C 0.18271 0.59887 0.12192 0.0
H1113 H 0.12041 0.60027 0.11412 0.0
C1114 C 0.18366 0.58143 0.10572 0.0
C1115 C 0.15961 0.60572 0.12503 0.0
C1116 C 0.15764 0.62498 0.14151 0.0
C1117 C 0.16208 0.57055 0.09264 0.0
C1118 C 0.13906 0.5776 0.09557 0.0
C1119 C 0.13807 0.59485 0.11196 0.0
C1120 C 0.11588 0.56793 0.08135 0.0
C1121 C 0.16402 0.55142 0.07602 0.0
C1122 C 0.11504 0.57109 0.05708 0.0
C1123 C 0.09257 0.56377 0.04393 0.0
C1124 C 0.07053 0.5533 0.05484 0.0
C1125 C 0.07151 0.54972 0.07906 0.0
C1126 C 0.09397 0.55704 0.0922 0.0
H1127 H 0.1807 0.54369 0.0805 0.0
H1128 H 0.14693 0.53735 0.07597 0.0
H1129 H 0.16595 0.55877 0.05814 0.0
H1130 H 0.13157 0.57987 0.04839 0.0
H1131 H 0.0923 0.56683 1.0253 0.0
H1132 H 0.2381 0.42722 0.63312 0.0
H1133 H 0.27509 0.44536 0.61204 0.0
H1134 H 0.32235 0.44062 0.67366 0.0
H1135 H 0.28524 0.42299 0.69502 0.0
H1136 H 0.33747 0.48137 0.65198 0.0
H1137 H 0.32431 0.41101 0.58673 0.0
H1138 H 0.29764 0.42458 0.5873 0.0
H1139 H 0.30626 0.40862 0.61241 0.0
C1140 C 0.25638 0.43004 0.64218 0.0
C1141 C 0.25872 0.42345 0.66571 0.0
C1142 C 0.27757 0.44031 0.63006 0.0
C1143 C 0.3017 0.44384 0.64101 0.0
C1144 C 0.30401 0.43797 0.66473 0.0
H1145 H 0.44062 0.46308 0.56834 0.0
H1146 H 0.40299 0.4488 0.58988 0.0
C1147 C 0.28276 0.42793 0.67696 0.0
C1148 C 0.32449 0.45343 0.62772 0.0
H1149 H 0.35524 0.44483 0.57921 0.0
C1150 C 0.34138 0.47333 0.6361 0.0
C1151 C 0.32994 0.4428 0.60715 0.0
C1152 C 0.31373 0.42044 0.59798 0.0
C1153 C 0.36332 0.48297 0.62445 0.0
C1154 C 0.36825 0.47283 0.6034 0.0
C1155 C 0.35143 0.45283 0.59515 0.0
C1156 C 0.39121 0.48195 0.59014 0.0
C1157 C 0.38132 0.50349 0.63526 0.0
C1158 C 0.39716 0.50534 0.58267 0.0
C1159 C 0.41894 0.51366 0.5705 0.0
C1160 C 0.43503 0.49866 0.56511 0.0
C1161 C 0.42867 0.47514 0.57207 0.0
C1162 C 0.4071 0.46693 0.58446 0.0
H1163 H 0.37874 0.50465 0.65421 0.0
H1164 H 0.40114 0.50237 0.63274 0.0
H1165 H 0.37779 0.51983 0.62694 0.0
H1166 H 0.38492 0.5172 0.58615 0.0
H1167 H 0.42311 0.53183 0.56525 0.0
H1168 H 0.72502 0.68919 0.9318 0.0
H1169 H 0.75051 0.66684 0.95589 0.0
H1170 H 0.81581 0.72147 0.94756 0.0
H1171 H 0.79053 0.74385 0.9238 0.0
H1172 H 0.79204 0.65207 0.93853 0.0
H1173 H 0.82057 0.70577 1.01726 0.0
H1174 H 0.79392 0.70882 0.99828 0.0
H1175 H 0.82524 0.72242 0.99079 0.0
C1176 C 0.74469 0.6966 0.9356 0.0
C1177 C 0.75588 0.71815 0.92585 0.0
C1178 C 0.7592 0.68384 0.9493 0.0
C1179 C 0.78495 0.69266 0.95375 0.0
C1180 C 0.79588 0.71456 0.94474 0.0
H1181 H 0.92376 0.65633 0.98879 0.0
H1182 H 0.88724 0.67424 0.98181 0.0
C1183 C 0.78149 0.7272 0.93095 0.0
C1184 C 0.80123 0.67804 0.96529 0.0
H1185 H 0.84706 0.67901 1.0082 0.0
C1186 C 0.80369 0.6576 0.95408 0.0
C1187 C 0.81642 0.68543 0.9855 0.0
C1188 C 0.81376 0.7067 0.9988 0.0
C1189 C 0.82215 0.64519 0.9616 0.0
C1190 C 0.83815 0.65318 0.98122 0.0
C1191 C 0.8348 0.67296 0.99315 0.0
C1192 C 0.85997 0.64261 0.9881 0.0
C1193 C 0.82539 0.62453 0.94757 0.0
C1194 C 0.85676 0.61904 0.99464 0.0
C1195 C 0.87761 0.60864 0.99828 0.0
C1196 C 0.90205 0.62172 0.99567 0.0
C1197 C 0.90519 0.64565 0.99044 0.0
C1198 C 0.88435 0.65597 0.98667 0.0
H1199 H 0.81498 0.62362 0.93038 0.0
H1200 H 0.84555 0.62524 0.94463 0.0
H1201 H 0.81814 0.60822 0.95728 0.0
H1202 H 0.8381 0.60853 0.99626 0.0
H1203 H 0.87449 0.59016 1.0022 0.0
H1204 H 0.38671 0.82315 0.17624 0.0
H1205 H 0.40516 0.85868 0.15512 0.0
H1206 H 0.47238 0.83191 0.14702 0.0
H1207 H 0.45394 0.79617 0.16789 0.0
H1208 H 0.45253 0.89155 0.16489 0.0
H1209 H 0.44836 0.84754 0.07948 0.0
H1210 H 0.43022 0.83461 0.10355 0.0
H1211 H 0.46317 0.83446 0.10341 0.0
C1212 C 0.40542 0.82481 0.16995 0.0
C1213 C 0.41879 0.80674 0.17362 0.0
C1214 C 0.41597 0.84516 0.15798 0.0
C1215 C 0.43999 0.84779 0.14923 0.0
C1216 C 0.45368 0.8301 0.15337 0.0
H1217 H 0.53113 0.95136 0.06291 0.0
H1218 H 0.51306 0.91709 0.08594 0.0
C1219 C 0.44321 0.80978 0.16549 0.0
C1220 C 0.45055 0.86892 0.1355 0.0
H1221 H 0.46844 0.88725 0.08106 0.0
C1222 C 0.45598 0.89067 0.14655 0.0
C1223 C 0.455 0.86769 0.11158 0.0
C1224 C 0.44874 0.84488 0.09866 0.0
C1225 C 0.46628 0.91118 0.13444 0.0
C1226 C 0.47065 0.90999 0.11045 0.0
C1227 C 0.46509 0.8882 0.09941 0.0
C1228 C 0.48145 0.93101 0.09653 0.0
C1229 C 0.47302 0.9338 0.14766 0.0
C1230 C 0.46957 0.95021 0.09452 0.0
C1231 C 0.48002 0.96993 0.08151 0.0
C1232 C 0.50233 0.97067 0.06996 0.0
C1233 C 0.51394 0.95132 0.07166 0.0
C1234 C 0.5036 0.9317 0.08478 0.0
H1235 H 0.47521 0.93075 0.1667 0.0
H1236 H 0.49074 0.94474 0.14169 0.0
H1237 H 0.45777 0.94369 0.14467 0.0
H1238 H 0.45216 0.94992 0.10294 0.0
H1239 H 0.47071 0.98462 0.08058 0.0
H1240 H 0.05948 0.25439 0.67033 0.0
H1241 H 0.04202 0.21791 0.64972 0.0
H1242 H 0.11415 0.19816 0.6565 0.0
H1243 H 0.13161 0.23431 0.67737 0.0
H1244 H 0.05908 0.20285 0.60735 0.0
H1245 H 0.0655 0.13956 0.6793 0.0
H1246 H 0.06718 0.1702 0.68437 0.0
H1247 H 0.094 0.16033 0.67446 0.0
C1248 C 0.07153 0.24212 0.66779 0.0
C1249 C 0.09698 0.24737 0.67556 0.0
C1250 C 0.06156 0.22132 0.65585 0.0
C1251 C 0.07668 0.20513 0.6517 0.0
C1252 C 0.10198 0.21016 0.65973 0.0
H1253 H 0.04625 0.06917 0.58131 0.0
H1254 H 0.06666 0.10503 0.60197 0.0
C1255 C 0.112 0.23099 0.67151 0.0
C1256 C 0.06631 0.18347 0.63817 0.0
H1257 H 0.05388 0.12387 0.64176 0.0
C1258 C 0.05786 0.18558 0.61491 0.0
C1259 C 0.06499 0.16089 0.64789 0.0
C1260 C 0.0732 0.15748 0.67293 0.0
C1261 C 0.04832 0.16584 0.6011 0.0
C1262 C 0.0465 0.14322 0.61094 0.0
C1263 C 0.05524 0.14112 0.63414 0.0
C1264 C 0.03459 0.12165 0.59779 0.0
C1265 C 0.04074 0.16946 0.57592 0.0
C1266 C 0.00973 0.11885 0.58869 0.0
C1267 C 0.99819 0.09853 0.5768 0.0
C1268 C 0.01107 0.08032 0.57391 0.0
C1269 C 0.03591 0.08297 0.5831 0.0
C1270 C 0.04754 0.10342 0.59498 0.0
H1271 H 0.05066 0.1866 0.56923 0.0
H1272 H 0.04474 0.15551 0.56474 0.0
H1273 H 0.02028 0.1692 0.57436 0.0
H1274 H 0.99903 0.13226 0.59109 0.0
H1275 H 0.97896 0.09699 0.57011 0.0
H1276 H 0.7605 0.38997 0.38016 0.0
H1277 H 0.73086 0.40825 0.39997 0.0
H1278 H 0.72328 0.3541 0.45243 0.0
H1279 H 0.75216 0.33522 0.43226 0.0
H1280 H 0.6782 0.35979 0.43293 0.0
H1281 H 0.73547 0.4455 0.45967 0.0
H1282 H 0.73724 0.4394 0.42939 0.0
H1283 H 0.7493 0.42156 0.45111 0.0
C1284 C 0.75272 0.38208 0.39605 0.0
C1285 C 0.7586 0.36107 0.40456 0.0
C1286 C 0.736 0.3927 0.4075 0.0
C1287 C 0.72506 0.38266 0.4278 0.0
C1288 C 0.73165 0.3622 0.43686 0.0
H1289 H 0.62387 0.44005 0.51229 0.0
H1290 H 0.65963 0.42583 0.49804 0.0
C1291 C 0.74831 0.35154 0.4254 0.0
C1292 C 0.70486 0.3921 0.43819 0.0
H1293 H 0.69084 0.44129 0.46059 0.0
C1294 C 0.68102 0.37755 0.43917 0.0
C1295 C 0.70864 0.41522 0.44645 0.0
C1296 C 0.73411 0.43127 0.44684 0.0
C1297 C 0.66069 0.38563 0.4477 0.0
C1298 C 0.6642 0.40903 0.45505 0.0
C1299 C 0.68817 0.42344 0.45466 0.0
C1300 C 0.64313 0.41875 0.46325 0.0
C1301 C 0.63566 0.369 0.4489 0.0
C1302 C 0.62229 0.41993 0.44824 0.0
C1303 C 0.60188 0.42807 0.4563 0.0
C1304 C 0.60202 0.43535 0.47948 0.0
C1305 C 0.62327 0.43475 0.49429 0.0
C1306 C 0.64366 0.42656 0.48622 0.0
H1307 H 0.6377 0.35052 0.44839 0.0
H1308 H 0.62622 0.37172 0.465 0.0
H1309 H 0.62333 0.37214 0.43373 0.0
H1310 H 0.62177 0.41443 0.43031 0.0
H1311 H 0.58601 0.42875 0.44435 0.0
loop_
_geom_bond_atom_site_label_1
_geom_bond_atom_site_label_2
_geom_bond_distance
_geom_bond_site_symmetry_2
_ccdc_geom_bond_type
C0 C1 1.384 . S
C0 H13 0.947 . S
C0 C35 1.382 . S
C1 C0 1.384 . S
C1 C2 1.378 . S
C2 C1 1.378 . S
C2 C3 1.378 . S
C2 H14 0.952 . S
C3 C2 1.378 . S
C3 H15 0.950 . S
C3 C34 1.383 . S
H4 C23 0.947 . S
H5 C24 0.946 . S
H6 C26 0.953 . S
H7 C27 0.945 . S
H8 C29 0.952 . S
H9 C30 0.949 . S
H10 C32 0.950 . S
H11 C33 0.948 . S
H12 C35 0.951 . S
H13 C0 0.947 . S
H14 C2 0.952 . S
H15 C3 0.950 . S
N16 C19 1.382 . S
N16 C21 1.363 . S
N17 C19 1.371 . S
N17 C20 1.372 . S
N18 C20 1.361 . S
N18 C21 1.377 . S
C19 N16 1.382 . S
C19 N17 1.371 . S
C19 C22 1.480 . S
C20 N17 1.372 . S
C20 N18 1.361 . S
C20 C28 1.457 . S
C21 N16 1.363 . S
C21 N18 1.377 . S
C21 C34 1.479 . S
C22 C19 1.480 . S
C22 C23 1.383 . S
C22 C27 1.385 . S
C23 H4 0.947 . S
C23 C22 1.383 . S
C23 C24 1.388 . S
C24 H5 0.946 . S
C24 C23 1.388 . S
C24 C25 1.384 . S
C25 C24 1.384 . S
C25 C26 1.377 . S
C26 H6 0.953 . S
C26 C25 1.377 . S
C26 C27 1.369 . S
C27 H7 0.945 . S
C27 C22 1.385 . S
C27 C26 1.369 . S
C28 C20 1.457 . S
C28 C29 1.372 . S
C28 C33 1.364 . S
C29 H8 0.952 . S
C29 C28 1.372 . S
C29 C30 1.389 . S
C30 H9 0.949 . S
C30 C29 1.389 . S
C30 C31 1.387 . S
C31 C30 1.387 . S
C31 C32 1.372 . S
C32 H10 0.950 . S
C32 C31 1.372 . S
C32 C33 1.379 . S
C33 H11 0.948 . S
C33 C28 1.364 . S
C33 C32 1.379 . S
C34 C3 1.383 . S
C34 C21 1.479 . S
C34 C35 1.398 . S
C35 C0 1.382 . S
C35 H12 0.951 . S
C35 C34 1.398 . S
C36 C37 1.384 . S
C36 H49 0.947 . S
C36 C71 1.382 . S
C37 C36 1.384 . S
C37 C38 1.378 . S
C38 C37 1.378 . S
C38 C39 1.378 . S
C38 H50 0.952 . S
C39 C38 1.378 . S
C39 H51 0.950 . S
C39 C70 1.383 . S
H40 C59 0.947 . S
H41 C60 0.946 . S
H42 C62 0.953 . S
H43 C63 0.945 . S
H44 C65 0.952 . S
H45 C66 0.949 . S
H46 C68 0.950 . S
H47 C69 0.948 . S
H48 C71 0.951 . S
H49 C36 0.947 . S
H50 C38 0.952 . S
H51 C39 0.950 . S
N52 C55 1.382 . S
N52 C57 1.363 . S
N53 C55 1.371 . S
N53 C56 1.372 . S
N54 C56 1.361 . S
N54 C57 1.377 . S
C55 N52 1.382 . S
C55 N53 1.371 . S
C55 C58 1.480 . S
C56 N53 1.372 . S
C56 N54 1.361 . S
C56 C64 1.457 . S
C57 N52 1.363 . S
C57 N54 1.377 . S
C57 C70 1.479 . S
C58 C55 1.480 . S
C58 C59 1.383 . S
C58 C63 1.385 . S
C59 H40 0.947 . S
C59 C58 1.383 . S
C59 C60 1.388 . S
C60 H41 0.946 . S
C60 C59 1.388 . S
C60 C61 1.384 . S
C61 C60 1.384 . S
C61 C62 1.377 . S
C62 H42 0.953 . S
C62 C61 1.377 . S
C62 C63 1.369 . S
C63 H43 0.945 . S
C63 C58 1.385 . S
C63 C62 1.369 . S
C64 C56 1.457 . S
C64 C65 1.372 . S
C64 C69 1.364 . S
C65 H44 0.952 . S
C65 C64 1.372 . S
C65 C66 1.389 . S
C66 H45 0.949 . S
C66 C65 1.389 . S
C66 C67 1.387 . S
C67 C66 1.387 . S
C67 C68 1.372 . S
C68 H46 0.950 . S
C68 C67 1.372 . S
C68 C69 1.379 . S
C69 H47 0.948 . S
C69 C64 1.364 . S
C69 C68 1.379 . S
C70 C39 1.383 . S
C70 C57 1.479 . S
C70 C71 1.398 . S
C71 C36 1.382 . S
C71 H48 0.951 . S
C71 C70 1.398 . S
C72 C73 1.384 . S
C72 H85 0.947 . S
C72 C107 1.382 . S
C73 C72 1.384 . S
C73 C74 1.378 . S
C74 C73 1.378 . S
C74 C75 1.378 . S
C74 H86 0.952 . S
C75 C74 1.378 . S
C75 H87 0.950 . S
C75 C106 1.383 . S
H76 C95 0.947 . S
H77 C96 0.946 . S
H78 C98 0.953 . S
H79 C99 0.945 . S
H80 C101 0.952 . S
H81 C102 0.949 . S
H82 C104 0.950 . S
H83 C105 0.948 . S
H84 C107 0.951 . S
H85 C72 0.947 . S
H86 C74 0.952 . S
H87 C75 0.950 . S
N88 C91 1.382 . S
N88 C93 1.363 . S
N89 C91 1.371 . S
N89 C92 1.372 . S
N90 C92 1.361 . S
N90 C93 1.377 . S
C91 N88 1.382 . S
C91 N89 1.371 . S
C91 C94 1.480 . S
C92 N89 1.372 . S
C92 N90 1.361 . S
C92 C100 1.457 . S
C93 N88 1.363 . S
C93 N90 1.377 . S
C93 C106 1.479 . S
C94 C91 1.480 . S
C94 C95 1.383 . S
C94 C99 1.385 . S
C95 H76 0.947 . S
C95 C94 1.383 . S
C95 C96 1.388 . S
C96 H77 0.946 . S
C96 C95 1.388 . S
C96 C97 1.384 . S
C97 C96 1.384 . S
C97 C98 1.377 . S
C98 H78 0.953 . S
C98 C97 1.377 . S
C98 C99 1.369 . S
C99 H79 0.945 . S
C99 C94 1.385 . S
C99 C98 1.369 . S
C100 C92 1.457 . S
C100 C101 1.372 . S
C100 C105 1.364 . S
C101 H80 0.952 . S
C101 C100 1.372 . S
C101 C102 1.389 . S
C102 H81 0.949 . S
C102 C101 1.389 . S
C102 C103 1.387 . S
C103 C102 1.387 . S
C103 C104 1.372 . S
C104 H82 0.950 . S
C104 C103 1.372 . S
C104 C105 1.379 . S
C105 H83 0.948 . S
C105 C100 1.364 . S
C105 C104 1.379 . S
C106 C75 1.383 . S
C106 C93 1.479 . S
C106 C107 1.398 . S
C107 C72 1.382 . S
C107 H84 0.951 . S
C107 C106 1.398 . S
C108 C109 1.384 . S
C108 H121 0.947 . S
C108 C143 1.382 . S
C109 C108 1.384 . S
C109 C110 1.378 . S
C110 C109 1.378 . S
C110 C111 1.378 . S
C110 H122 0.952 . S
C111 C110 1.378 . S
C111 H123 0.950 . S
C111 C142 1.383 . S
H112 C131 0.947 . S
H113 C132 0.946 . S
H114 C134 0.953 . S
H115 C135 0.945 . S
H116 C137 0.952 . S
H117 C138 0.949 . S
H118 C140 0.950 . S
H119 C141 0.948 . S
H120 C143 0.951 . S
H121 C108 0.947 . S
H122 C110 0.952 . S
H123 C111 0.950 . S
N124 C127 1.382 . S
N124 C129 1.363 . S
N125 C127 1.371 . S
N125 C128 1.372 . S
N126 C128 1.361 . S
N126 C129 1.377 . S
C127 N124 1.382 . S
C127 N125 1.371 . S
C127 C130 1.480 . S
C128 N125 1.372 . S
C128 N126 1.361 . S
C128 C136 1.457 . S
C129 N124 1.363 . S
C129 N126 1.377 . S
C129 C142 1.479 . S
C130 C127 1.480 . S
C130 C131 1.383 . S
C130 C135 1.385 . S
C131 H112 0.947 . S
C131 C130 1.383 . S
C131 C132 1.388 . S
C132 H113 0.946 . S
C132 C131 1.388 . S
C132 C133 1.384 . S
C133 C132 1.384 . S
C133 C134 1.377 . S
C134 H114 0.953 . S
C134 C133 1.377 . S
C134 C135 1.369 . S
C135 H115 0.945 . S
C135 C130 1.385 . S
C135 C134 1.369 . S
C136 C128 1.457 . S
C136 C137 1.372 . S
C136 C141 1.364 . S
C137 H116 0.952 . S
C137 C136 1.372 . S
C137 C138 1.389 . S
C138 H117 0.949 . S
C138 C137 1.389 . S
C138 C139 1.387 . S
C139 C138 1.387 . S
C139 C140 1.372 . S
C140 H118 0.950 . S
C140 C139 1.372 . S
C140 C141 1.379 . S
C141 H119 0.948 . S
C141 C136 1.364 . S
C141 C140 1.379 . S
C142 C111 1.383 . S
C142 C129 1.479 . S
C142 C143 1.398 . S
C143 C108 1.382 . S
C143 H120 0.951 . S
C143 C142 1.398 . S
C144 C145 1.384 . S
C144 H157 0.947 . S
C144 C179 1.382 . S
C145 C144 1.384 . S
C145 C146 1.378 . S
C146 C145 1.378 . S
C146 C147 1.378 . S
C146 H158 0.952 . S
C147 C146 1.378 . S
C147 H159 0.950 . S
C147 C178 1.383 . S
H148 C167 0.947 . S
H149 C168 0.946 . S
H150 C170 0.953 . S
H151 C171 0.945 . S
H152 C173 0.952 . S
H153 C174 0.949 . S
H154 C176 0.950 . S
H155 C177 0.948 . S
H156 C179 0.951 . S
H157 C144 0.947 . S
H158 C146 0.952 . S
H159 C147 0.950 . S
N160 C163 1.382 . S
N160 C165 1.363 . S
N161 C163 1.371 . S
N161 C164 1.372 . S
N162 C164 1.361 . S
N162 C165 1.377 . S
C163 N160 1.382 . S
C163 N161 1.371 . S
C163 C166 1.480 . S
C164 N161 1.372 . S
C164 N162 1.361 . S
C164 C172 1.457 . S
C165 N160 1.363 . S
C165 N162 1.377 . S
C165 C178 1.479 . S
C166 C163 1.480 . S
C166 C167 1.383 . S
C166 C171 1.385 . S
C167 H148 0.947 . S
C167 C166 1.383 . S
C167 C168 1.388 . S
C168 H149 0.946 . S
C168 C167 1.388 . S
C168 C169 1.384 . S
C169 C168 1.384 . S
C169 C170 1.377 . S
C170 H150 0.953 . S
C170 C169 1.377 . S
C170 C171 1.369 . S
C171 H151 0.945 . S
C171 C166 1.385 . S
C171 C170 1.369 . S
C172 C164 1.457 . S
C172 C173 1.372 . S
C172 C177 1.364 . S
C173 H152 0.952 . S
C173 C172 1.372 . S
C173 C174 1.389 . S
C174 H153 0.949 . S
C174 C173 1.389 . S
C174 C175 1.387 . S
C175 C174 1.387 . S
C175 C176 1.372 . S
C176 H154 0.950 . S
C176 C175 1.372 . S
C176 C177 1.379 . S
C177 H155 0.948 . S
C177 C172 1.364 . S
C177 C176 1.379 . S
C178 C147 1.383 . S
C178 C165 1.479 . S
C178 C179 1.398 . S
C179 C144 1.382 . S
C179 H156 0.951 . S
C179 C178 1.398 . S
C180 C181 1.384 . S
C180 H193 0.947 . S
C180 C215 1.382 . S
C181 C180 1.384 . S
C181 C182 1.378 . S
C182 C181 1.378 . S
C182 C183 1.378 . S
C182 H194 0.952 . S
C183 C182 1.378 . S
C183 H195 0.950 . S
C183 C214 1.383 . S
H184 C203 0.947 . S
H185 C204 0.946 . S
H186 C206 0.953 . S
H187 C207 0.945 . S
H188 C209 0.952 . S
H189 C210 0.949 . S
H190 C212 0.950 . S
H191 C213 0.948 . S
H192 C215 0.951 . S
H193 C180 0.947 . S
H194 C182 0.952 . S
H195 C183 0.950 . S
N196 C199 1.382 . S
N196 C201 1.363 . S
N197 C199 1.371 . S
N197 C200 1.372 . S
N198 C200 1.361 . S
N198 C201 1.377 . S
C199 N196 1.382 . S
C199 N197 1.371 . S
C199 C202 1.480 . S
C200 N197 1.372 . S
C200 N198 1.361 . S
C200 C208 1.457 . S
C201 N196 1.363 . S
C201 N198 1.377 . S
C201 C214 1.479 . S
C202 C199 1.480 . S
C202 C203 1.383 . S
C202 C207 1.385 . S
C203 H184 0.947 . S
C203 C202 1.383 . S
C203 C204 1.388 . S
C204 H185 0.946 . S
C204 C203 1.388 . S
C204 C205 1.384 . S
C205 C204 1.384 . S
C205 C206 1.377 . S
C206 H186 0.953 . S
C206 C205 1.377 . S
C206 C207 1.369 . S
C207 H187 0.945 . S
C207 C202 1.385 . S
C207 C206 1.369 . S
C208 C200 1.457 . S
C208 C209 1.372 . S
C208 C213 1.364 . S
C209 H188 0.952 . S
C209 C208 1.372 . S
C209 C210 1.389 . S
C210 H189 0.949 . S
C210 C209 1.389 . S
C210 C211 1.387 . S
C211 C210 1.387 . S
C211 C212 1.372 . S
C212 H190 0.950 . S
C212 C211 1.372 . S
C212 C213 1.379 . S
C213 H191 0.948 . S
C213 C208 1.364 . S
C213 C212 1.379 . S
C214 C183 1.383 . S
C214 C201 1.479 . S
C214 C215 1.398 . S
C215 C180 1.382 . S
C215 H192 0.951 . S
C215 C214 1.398 . S
C216 C217 1.384 . S
C216 H229 0.947 . S
C216 C251 1.382 . S
C217 C216 1.384 . S
C217 C218 1.378 . S
C218 C217 1.378 . S
C218 C219 1.378 . S
C218 H230 0.952 . S
C219 C218 1.378 . S
C219 H231 0.950 . S
C219 C250 1.383 . S
H220 C239 0.947 . S
H221 C240 0.946 . S
H222 C242 0.953 . S
H223 C243 0.945 . S
H224 C245 0.952 . S
H225 C246 0.949 . S
H226 C248 0.950 . S
H227 C249 0.948 . S
H228 C251 0.951 . S
H229 C216 0.947 . S
H230 C218 0.952 . S
H231 C219 0.950 . S
N232 C235 1.382 . S
N232 C237 1.363 . S
N233 C235 1.371 . S
N233 C236 1.372 . S
N234 C236 1.361 . S
N234 C237 1.377 . S
C235 N232 1.382 . S
C235 N233 1.371 . S
C235 C238 1.480 . S
C236 N233 1.372 . S
C236 N234 1.361 . S
C236 C244 1.457 . S
C237 N232 1.363 . S
C237 N234 1.377 . S
C237 C250 1.479 . S
C238 C235 1.480 . S
C238 C239 1.383 . S
C238 C243 1.385 . S
C239 H220 0.947 . S
C239 C238 1.383 . S
C239 C240 1.388 . S
C240 H221 0.946 . S
C240 C239 1.388 . S
C240 C241 1.384 . S
C241 C240 1.384 . S
C241 C242 1.377 . S
C242 H222 0.953 . S
C242 C241 1.377 . S
C242 C243 1.369 . S
C243 H223 0.945 . S
C243 C238 1.385 . S
C243 C242 1.369 . S
C244 C236 1.457 . S
C244 C245 1.372 . S
C244 C249 1.364 . S
C245 H224 0.952 . S
C245 C244 1.372 . S
C245 C246 1.389 . S
C246 H225 0.949 . S
C246 C245 1.389 . S
C246 C247 1.387 . S
C247 C246 1.387 . S
C247 C248 1.372 . S
C248 H226 0.950 . S
C248 C247 1.372 . S
C248 C249 1.379 . S
C249 H227 0.948 . S
C249 C244 1.364 . S
C249 C248 1.379 . S
C250 C219 1.383 . S
C250 C237 1.479 . S
C250 C251 1.398 . S
C251 C216 1.382 . S
C251 H228 0.951 . S
C251 C250 1.398 . S
C252 C253 1.384 . S
C252 H265 0.947 . S
C252 C287 1.382 . S
C253 C252 1.384 . S
C253 C254 1.378 . S
C254 C253 1.378 . S
C254 C255 1.378 . S
C254 H266 0.952 . S
C255 C254 1.378 . S
C255 H267 0.950 . S
C255 C286 1.383 . S
H256 C275 0.947 . S
H257 C276 0.946 . S
H258 C278 0.953 . S
H259 C279 0.945 . S
H260 C281 0.952 . S
H261 C282 0.949 . S
H262 C284 0.950 . S
H263 C285 0.948 . S
H264 C287 0.951 . S
H265 C252 0.947 . S
H266 C254 0.952 . S
H267 C255 0.950 . S
N268 C271 1.382 . S
N268 C273 1.363 . S
N269 C271 1.371 . S
N269 C272 1.372 . S
N270 C272 1.361 . S
N270 C273 1.377 . S
C271 N268 1.382 . S
C271 N269 1.371 . S
C271 C274 1.480 . S
C272 N269 1.372 . S
C272 N270 1.361 . S
C272 C280 1.457 . S
C273 N268 1.363 . S
C273 N270 1.377 . S
C273 C286 1.479 . S
C274 C271 1.480 . S
C274 C275 1.383 . S
C274 C279 1.385 . S
C275 H256 0.947 . S
C275 C274 1.383 . S
C275 C276 1.388 . S
C276 H257 0.946 . S
C276 C275 1.388 . S
C276 C277 1.384 . S
C277 C276 1.384 . S
C277 C278 1.377 . S
C278 H258 0.953 . S
C278 C277 1.377 . S
C278 C279 1.369 . S
C279 H259 0.945 . S
C279 C274 1.385 . S
C279 C278 1.369 . S
C280 C272 1.457 . S
C280 C281 1.372 . S
C280 C285 1.364 . S
C281 H260 0.952 . S
C281 C280 1.372 . S
C281 C282 1.389 . S
C282 H261 0.949 . S
C282 C281 1.389 . S
C282 C283 1.387 . S
C283 C282 1.387 . S
C283 C284 1.372 . S
C284 H262 0.950 . S
C284 C283 1.372 . S
C284 C285 1.379 . S
C285 H263 0.948 . S
C285 C280 1.364 . S
C285 C284 1.379 . S
C286 C255 1.383 . S
C286 C273 1.479 . S
C286 C287 1.398 . S
C287 C252 1.382 . S
C287 H264 0.951 . S
C287 C286 1.398 . S
Tb288 C290 2.822 . S
Tb288 O308 2.504 . S
Tb288 O309 2.444 . S
Tb288 O310 2.650 1_665 S
Tb288 O311 2.394 1_565 S
Tb288 O312 2.390 1_655 S
Tb288 O316 2.339 . S
Tb288 O319 2.328 1_565 S
Tb289 C299 2.809 . S
Tb289 O310 2.325 . S
Tb289 O313 2.341 1_545 S
Tb289 O314 2.484 . S
Tb289 O315 2.440 . S
Tb289 O316 2.658 1_445 S
Tb289 O317 2.409 1_545 S
Tb289 O318 2.378 1_455 S
C290 Tb288 2.822 . S
C290 C291 1.514 . S
C290 O308 1.248 . S
C290 O309 1.266 . S
C291 C290 1.514 . S
C291 C292 1.359 . S
C291 C296 1.348 . S
C292 C291 1.359 . S
C292 C293 1.380 . S
C292 H320 0.929 . S
C293 C292 1.380 . S
C293 C294 1.347 . S
C293 H321 0.931 . S
C294 C293 1.347 . S
C294 C295 1.369 . S
C295 C294 1.369 . S
C295 C296 1.408 . S
C295 H322 0.930 . S
C296 C291 1.348 . S
C296 C295 1.408 . S
C296 H323 0.930 . S
C297 O310 1.281 . S
C297 O311 1.254 1_455 S
C298 O312 1.236 . S
C298 O313 1.266 . S
C299 Tb289 2.809 . S
C299 C300 1.514 . S
C299 O314 1.248 . S
C299 O315 1.266 . S
C300 C299 1.514 . S
C300 C301 1.359 . S
C300 C305 1.348 . S
C301 C300 1.359 . S
C301 C302 1.380 . S
C301 H324 0.929 . S
C302 C301 1.380 . S
C302 C303 1.347 . S
C302 H325 0.931 . S
C303 C302 1.347 . S
C303 C304 1.369 . S
C304 C303 1.369 . S
C304 C305 1.408 . S
C304 H326 0.930 . S
C305 C300 1.348 . S
C305 C304 1.408 . S
C305 H327 0.930 . S
C306 O316 1.281 . S
C306 O317 1.254 1_655 S
C307 O318 1.236 . S
C307 O319 1.266 . S
O308 Tb288 2.504 . S
O308 C290 1.248 . S
O309 Tb288 2.444 . S
O309 C290 1.266 . S
O310 Tb288 2.650 1_445 S
O310 Tb289 2.325 . S
O310 C297 1.281 . S
O311 Tb288 2.394 1_545 S
O311 C297 1.254 1_655 S
O312 Tb288 2.390 1_455 S
O312 C298 1.236 . S
O313 Tb289 2.341 1_565 S
O313 C298 1.266 . S
O314 Tb289 2.484 . S
O314 C299 1.248 . S
O315 Tb289 2.440 . S
O315 C299 1.266 . S
O316 Tb288 2.339 . S
O316 Tb289 2.658 1_665 S
O316 C306 1.281 . S
O317 Tb289 2.409 1_565 S
O317 C306 1.254 1_455 S
O318 Tb289 2.378 1_655 S
O318 C307 1.236 . S
O319 Tb288 2.328 1_545 S
O319 C307 1.266 . S
H320 C292 0.929 . S
H321 C293 0.931 . S
H322 C295 0.930 . S
H323 C296 0.930 . S
H324 C301 0.929 . S
H325 C302 0.931 . S
H326 C304 0.930 . S
H327 C305 0.930 . S
Tb328 C330 2.809 . S
Tb328 O348 2.484 . S
Tb328 O349 2.440 . S
Tb328 O350 2.658 1_545 S
Tb328 O351 2.409 1_545 S
Tb328 O352 2.378 . S
Tb328 O356 2.325 1_554 S
Tb328 O359 2.341 1_544 S
Tb329 C339 2.809 . S
Tb329 O350 2.325 1_556 S
Tb329 O353 2.341 1_566 S
Tb329 O354 2.484 . S
Tb329 O355 2.440 . S
Tb329 O356 2.658 1_565 S
Tb329 O357 2.409 1_565 S
Tb329 O358 2.378 . S
C330 Tb328 2.809 . S
C330 C331 1.514 . S
C330 O348 1.248 . S
C330 O349 1.266 . S
C331 C330 1.514 . S
C331 C332 1.359 . S
C331 C336 1.348 . S
C332 C331 1.359 . S
C332 C333 1.380 . S
C332 H360 0.929 . S
C333 C332 1.380 . S
C333 C334 1.347 . S
C333 H361 0.931 . S
C334 C333 1.347 . S
C334 C335 1.369 . S
C335 C334 1.369 . S
C335 C336 1.408 . S
C335 H362 0.930 . S
C336 C331 1.348 . S
C336 C335 1.408 . S
C336 H363 0.930 . S
C337 O350 1.281 . S
C337 O351 1.254 . S
C338 O352 1.236 . S
C338 O353 1.266 . S
C339 Tb329 2.809 . S
C339 C340 1.514 . S
C339 O354 1.248 . S
C339 O355 1.266 . S
C340 C339 1.514 . S
C340 C341 1.359 . S
C340 C345 1.348 . S
C341 C340 1.359 . S
C341 C342 1.380 . S
C341 H364 0.929 . S
C342 C341 1.380 . S
C342 C343 1.347 . S
C342 H365 0.931 . S
C343 C342 1.347 . S
C343 C344 1.369 . S
C344 C343 1.369 . S
C344 C345 1.408 . S
C344 H366 0.930 . S
C345 C340 1.348 . S
C345 C344 1.408 . S
C345 H367 0.930 . S
C346 O356 1.281 . S
C346 O357 1.254 . S
C347 O358 1.236 . S
C347 O359 1.266 . S
O348 Tb328 2.484 . S
O348 C330 1.248 . S
O349 Tb328 2.440 . S
O349 C330 1.266 . S
O350 Tb328 2.658 1_565 S
O350 Tb329 2.325 1_554 S
O350 C337 1.281 . S
O351 Tb328 2.409 1_565 S
O351 C337 1.254 . S
O352 Tb328 2.378 . S
O352 C338 1.236 . S
O353 Tb329 2.341 1_544 S
O353 C338 1.266 . S
O354 Tb329 2.484 . S
O354 C339 1.248 . S
O355 Tb329 2.440 . S
O355 C339 1.266 . S
O356 Tb328 2.325 1_556 S
O356 Tb329 2.658 1_545 S
O356 C346 1.281 . S
O357 Tb329 2.409 1_545 S
O357 C346 1.254 . S
O358 Tb329 2.378 . S
O358 C347 1.236 . S
O359 Tb328 2.341 1_566 S
O359 C347 1.266 . S
H360 C332 0.929 . S
H361 C333 0.931 . S
H362 C335 0.930 . S
H363 C336 0.930 . S
H364 C341 0.929 . S
H365 C342 0.931 . S
H366 C344 0.930 . S
H367 C345 0.930 . S
Tb368 C370 2.809 . S
Tb368 O388 2.484 . S
Tb368 O389 2.440 . S
Tb368 O390 2.658 . S
Tb368 O391 2.409 . S
Tb368 O392 2.378 . S
Tb368 O396 2.325 . S
Tb368 O399 2.341 . S
Tb369 C379 2.809 . S
Tb369 O390 2.325 . S
Tb369 O393 2.341 . S
Tb369 O394 2.484 . S
Tb369 O395 2.440 . S
Tb369 O396 2.658 . S
Tb369 O397 2.409 . S
Tb369 O398 2.378 . S
C370 Tb368 2.809 . S
C370 C371 1.514 . S
C370 O388 1.248 . S
C370 O389 1.266 . S
C371 C370 1.514 . S
C371 C372 1.359 . S
C371 C376 1.348 . S
C372 C371 1.359 . S
C372 C373 1.380 . S
C372 H400 0.929 . S
C373 C372 1.380 . S
C373 C374 1.347 . S
C373 H401 0.931 . S
C374 C373 1.347 . S
C374 C375 1.369 . S
C375 C374 1.369 . S
C375 C376 1.408 . S
C375 H402 0.930 . S
C376 C371 1.348 . S
C376 C375 1.408 . S
C376 H403 0.930 . S
C377 O390 1.281 . S
C377 O391 1.254 . S
C378 O392 1.236 . S
C378 O393 1.266 . S
C379 Tb369 2.809 . S
C379 C380 1.514 . S
C379 O394 1.248 . S
C379 O395 1.266 . S
C380 C379 1.514 . S
C380 C381 1.359 . S
C380 C385 1.348 . S
C381 C380 1.359 . S
C381 C382 1.380 . S
C381 H404 0.929 . S
C382 C381 1.380 . S
C382 C383 1.347 . S
C382 H405 0.931 . S
C383 C382 1.347 . S
C383 C384 1.369 . S
C384 C383 1.369 . S
C384 C385 1.408 . S
C384 H406 0.930 . S
C385 C380 1.348 . S
C385 C384 1.408 . S
C385 H407 0.930 . S
C386 O396 1.281 . S
C386 O397 1.254 . S
C387 O398 1.236 . S
C387 O399 1.266 . S
O388 Tb368 2.484 . S
O388 C370 1.248 . S
O389 Tb368 2.440 . S
O389 C370 1.266 . S
O390 Tb368 2.658 . S
O390 Tb369 2.325 . S
O390 C377 1.281 . S
O391 Tb368 2.409 . S
O391 C377 1.254 . S
O392 Tb368 2.378 . S
O392 C378 1.236 . S
O393 Tb369 2.341 . S
O393 C378 1.266 . S
O394 Tb369 2.484 . S
O394 C379 1.248 . S
O395 Tb369 2.440 . S
O395 C379 1.266 . S
O396 Tb368 2.325 . S
O396 Tb369 2.658 . S
O396 C386 1.281 . S
O397 Tb369 2.409 . S
O397 C386 1.254 . S
O398 Tb369 2.378 . S
O398 C387 1.236 . S
O399 Tb368 2.341 . S
O399 C387 1.266 . S
H400 C372 0.929 . S
H401 C373 0.931 . S
H402 C375 0.930 . S
H403 C376 0.930 . S
H404 C381 0.929 . S
H405 C382 0.931 . S
H406 C384 0.930 . S
H407 C385 0.930 . S
Tb408 C410 2.780 1_455 S
Tb408 O428 2.446 1_455 S
Tb408 O429 2.427 1_455 S
Tb408 O430 2.682 1_556 S
Tb408 O431 2.436 1_556 S
Tb408 O432 2.361 1_456 S
Tb408 O436 2.308 1_455 S
Tb408 O439 2.369 . S
Tb409 C419 2.809 . S
Tb409 O430 2.325 . S
Tb409 O433 2.341 1_455 S
Tb409 O434 2.484 . S
Tb409 O435 2.440 . S
Tb409 O436 2.658 1_454 S
Tb409 O437 2.409 1_455 S
Tb409 O438 2.378 1_554 S
C410 Tb408 2.780 1_655 S
C410 C411 1.514 . S
C410 O428 1.248 . S
C410 O429 1.266 . S
C411 C410 1.514 . S
C411 C412 1.359 . S
C411 C416 1.348 . S
C412 C411 1.359 . S
C412 C413 1.380 . S
C412 H440 0.929 . S
C413 C412 1.380 . S
C413 C414 1.347 . S
C413 H441 0.931 . S
C414 C413 1.347 . S
C414 C415 1.369 . S
C415 C414 1.369 . S
C415 C416 1.408 . S
C415 H442 0.930 . S
C416 C411 1.348 . S
C416 C415 1.408 . S
C416 H443 0.930 . S
C417 O430 1.281 . S
C417 O431 1.254 . S
C418 O432 1.236 . S
C418 O433 1.266 . S
C419 Tb409 2.809 . S
C419 C420 1.514 . S
C419 O434 1.248 . S
C419 O435 1.266 . S
C420 C419 1.514 . S
C420 C421 1.359 . S
C420 C425 1.348 . S
C421 C420 1.359 . S
C421 C422 1.380 . S
C421 H444 0.929 . S
C422 C421 1.380 . S
C422 C423 1.347 . S
C422 H445 0.931 . S
C423 C422 1.347 . S
C423 C424 1.369 . S
C424 C423 1.369 . S
C424 C425 1.408 . S
C424 H446 0.930 . S
C425 C420 1.348 . S
C425 C424 1.408 . S
C425 H447 0.930 . S
C426 O436 1.281 . S
C426 O437 1.254 1_556 S
C427 O438 1.236 . S
C427 O439 1.266 . S
O428 Tb408 2.446 1_655 S
O428 C410 1.248 . S
O429 Tb408 2.427 1_655 S
O429 C410 1.266 . S
O430 Tb408 2.682 1_554 S
O430 Tb409 2.325 . S
O430 C417 1.281 . S
O431 Tb408 2.436 1_554 S
O431 C417 1.254 . S
O432 Tb408 2.361 1_654 S
O432 C418 1.236 . S
O433 Tb409 2.341 1_655 S
O433 C418 1.266 . S
O434 Tb409 2.484 . S
O434 C419 1.248 . S
O435 Tb409 2.440 . S
O435 C419 1.266 . S
O436 Tb408 2.308 1_655 S
O436 Tb409 2.658 1_656 S
O436 C426 1.281 . S
O437 Tb409 2.409 1_655 S
O437 C426 1.254 1_554 S
O438 Tb409 2.378 1_556 S
O438 C427 1.236 . S
O439 Tb408 2.369 . S
O439 C427 1.266 . S
H440 C412 0.929 . S
H441 C413 0.931 . S
H442 C415 0.930 . S
H443 C416 0.930 . S
H444 C421 0.929 . S
H445 C422 0.931 . S
H446 C424 0.930 . S
H447 C425 0.930 . S
H448 C456 0.929 . S
H449 C458 0.930 . S
H450 C460 0.930 . S
H451 C463 0.929 . S
H452 C466 0.930 . S
H453 C468 0.960 . S
H454 C468 0.960 . S
H455 C468 0.960 . S
C456 H448 0.929 . S
C456 C457 1.377 . S
C456 C458 1.384 . S
C457 C456 1.377 . S
C457 C463 1.390 . S
C458 H449 0.930 . S
C458 C456 1.384 . S
C458 C459 1.372 . S
C459 C458 1.372 . S
C459 C460 1.400 . S
C459 C464 1.490 . S
C460 H450 0.930 . S
C460 C459 1.400 . S
C460 C463 1.386 . S
H461 C477 0.930 . S
H462 C478 0.931 . S
C463 H451 0.929 . S
C463 C457 1.390 . S
C463 C460 1.386 . S
C464 C459 1.490 . S
C464 C466 1.395 . S
C464 C467 1.403 . S
H465 C471 0.930 . S
C466 H452 0.930 . S
C466 C464 1.395 . S
C466 C469 1.403 . S
C467 C464 1.403 . S
C467 C468 1.524 . S
C467 C471 1.400 . S
C468 H453 0.960 . S
C468 H454 0.960 . S
C468 H455 0.960 . S
C468 C467 1.524 . S
C469 C466 1.403 . S
C469 C470 1.392 . S
C469 C473 1.495 . S
C470 C469 1.392 . S
C470 C471 1.385 . S
C470 C472 1.478 . S
C471 H465 0.930 . S
C471 C467 1.400 . S
C471 C470 1.385 . S
C472 C470 1.478 . S
C472 C474 1.381 . S
C472 C478 1.383 . S
C473 C469 1.495 . S
C473 H479 0.959 . S
C473 H480 0.961 . S
C473 H481 0.960 . S
C474 C472 1.381 . S
C474 C475 1.394 . S
C474 H482 0.930 . S
C475 C474 1.394 . S
C475 C476 1.383 . S
C475 H483 0.929 . S
C476 C475 1.383 . S
C476 C477 1.377 . S
C477 H461 0.930 . S
C477 C476 1.377 . S
C477 C478 1.379 . S
C478 H462 0.931 . S
C478 C472 1.383 . S
C478 C477 1.379 . S
H479 C473 0.959 . S
H480 C473 0.961 . S
H481 C473 0.960 . S
H482 C474 0.930 . S
H483 C475 0.929 . S
H484 C492 0.929 . S
H485 C494 0.930 . S
H486 C496 0.930 . S
H487 C499 0.929 . S
H488 C502 0.930 . S
H489 C504 0.960 . S
H490 C504 0.960 . S
H491 C504 0.960 . S
C492 H484 0.929 . S
C492 C493 1.377 . S
C492 C494 1.384 . S
C493 C492 1.377 . S
C493 C499 1.390 . S
C494 H485 0.930 . S
C494 C492 1.384 . S
C494 C495 1.372 . S
C495 C494 1.372 . S
C495 C496 1.400 . S
C495 C500 1.490 . S
C496 H486 0.930 . S
C496 C495 1.400 . S
C496 C499 1.386 . S
H497 C513 0.930 . S
H498 C514 0.931 . S
C499 H487 0.929 . S
C499 C493 1.390 . S
C499 C496 1.386 . S
C500 C495 1.490 . S
C500 C502 1.395 . S
C500 C503 1.403 . S
H501 C507 0.930 . S
C502 H488 0.930 . S
C502 C500 1.395 . S
C502 C505 1.403 . S
C503 C500 1.403 . S
C503 C504 1.524 . S
C503 C507 1.400 . S
C504 H489 0.960 . S
C504 H490 0.960 . S
C504 H491 0.960 . S
C504 C503 1.524 . S
C505 C502 1.403 . S
C505 C506 1.392 . S
C505 C509 1.495 . S
C506 C505 1.392 . S
C506 C507 1.385 . S
C506 C508 1.478 . S
C507 H501 0.930 . S
C507 C503 1.400 . S
C507 C506 1.385 . S
C508 C506 1.478 . S
C508 C510 1.381 . S
C508 C514 1.383 . S
C509 C505 1.495 . S
C509 H515 0.959 . S
C509 H516 0.961 . S
C509 H517 0.960 . S
C510 C508 1.381 . S
C510 C511 1.394 . S
C510 H518 0.930 . S
C511 C510 1.394 . S
C511 C512 1.383 . S
C511 H519 0.929 . S
C512 C511 1.383 . S
C512 C513 1.377 . S
C513 H497 0.930 . S
C513 C512 1.377 . S
C513 C514 1.379 . S
C514 H498 0.931 . S
C514 C508 1.383 . S
C514 C513 1.379 . S
H515 C509 0.959 . S
H516 C509 0.961 . S
H517 C509 0.960 . S
H518 C510 0.930 . S
H519 C511 0.929 . S
H520 C528 0.929 . S
H521 C530 0.930 . S
H522 C532 0.930 . S
H523 C535 0.929 . S
H524 C538 0.930 . S
H525 C540 0.960 . S
H526 C540 0.960 . S
H527 C540 0.960 . S
C528 H520 0.929 . S
C528 C529 1.377 . S
C528 C530 1.384 . S
C529 C528 1.377 . S
C529 C535 1.390 . S
C530 H521 0.930 . S
C530 C528 1.384 . S
C530 C531 1.372 . S
C531 C530 1.372 . S
C531 C532 1.400 . S
C531 C536 1.490 . S
C532 H522 0.930 . S
C532 C531 1.400 . S
C532 C535 1.386 . S
H533 C549 0.930 . S
H534 C550 0.931 . S
C535 H523 0.929 . S
C535 C529 1.390 . S
C535 C532 1.386 . S
C536 C531 1.490 . S
C536 C538 1.395 . S
C536 C539 1.403 . S
H537 C543 0.930 . S
C538 H524 0.930 . S
C538 C536 1.395 . S
C538 C541 1.403 . S
C539 C536 1.403 . S
C539 C540 1.524 . S
C539 C543 1.400 . S
C540 H525 0.960 . S
C540 H526 0.960 . S
C540 H527 0.960 . S
C540 C539 1.524 . S
C541 C538 1.403 . S
C541 C542 1.392 . S
C541 C545 1.495 . S
C542 C541 1.392 . S
C542 C543 1.385 . S
C542 C544 1.478 . S
C543 H537 0.930 . S
C543 C539 1.400 . S
C543 C542 1.385 . S
C544 C542 1.478 . S
C544 C546 1.381 . S
C544 C550 1.383 . S
C545 C541 1.495 . S
C545 H551 0.959 . S
C545 H552 0.961 . S
C545 H553 0.960 . S
C546 C544 1.381 . S
C546 C547 1.394 . S
C546 H554 0.930 . S
C547 C546 1.394 . S
C547 C548 1.383 . S
C547 H555 0.929 . S
C548 C547 1.383 . S
C548 C549 1.377 . S
C549 H533 0.930 . S
C549 C548 1.377 . S
C549 C550 1.379 . S
C550 H534 0.931 . S
C550 C544 1.383 . S
C550 C549 1.379 . S
H551 C545 0.959 . S
H552 C545 0.961 . S
H553 C545 0.960 . S
H554 C546 0.930 . S
H555 C547 0.929 . S
H556 C564 0.929 . S
H557 C566 0.930 . S
H558 C568 0.930 . S
H559 C571 0.929 . S
H560 C574 0.930 . S
H561 C576 0.960 . S
H562 C576 0.960 . S
H563 C576 0.960 . S
C564 H556 0.929 . S
C564 C565 1.377 . S
C564 C566 1.384 . S
C565 C564 1.377 . S
C565 C571 1.390 . S
C566 H557 0.930 . S
C566 C564 1.384 . S
C566 C567 1.372 . S
C567 C566 1.372 . S
C567 C568 1.400 . S
C567 C572 1.490 . S
C568 H558 0.930 . S
C568 C567 1.400 . S
C568 C571 1.386 . S
H569 C585 0.930 . S
H570 C586 0.931 . S
C571 H559 0.929 . S
C571 C565 1.390 . S
C571 C568 1.386 . S
C572 C567 1.490 . S
C572 C574 1.395 . S
C572 C575 1.403 . S
H573 C579 0.930 . S
C574 H560 0.930 . S
C574 C572 1.395 . S
C574 C577 1.403 . S
C575 C572 1.403 . S
C575 C576 1.524 . S
C575 C579 1.400 . S
C576 H561 0.960 . S
C576 H562 0.960 . S
C576 H563 0.960 . S
C576 C575 1.524 . S
C577 C574 1.403 . S
C577 C578 1.392 . S
C577 C581 1.495 . S
C578 C577 1.392 . S
C578 C579 1.385 . S
C578 C580 1.478 . S
C579 H573 0.930 . S
C579 C575 1.400 . S
C579 C578 1.385 . S
C580 C578 1.478 . S
C580 C582 1.381 . S
C580 C586 1.383 . S
C581 C577 1.495 . S
C581 H587 0.959 . S
C581 H588 0.961 . S
C581 H589 0.960 . S
C582 C580 1.381 . S
C582 C583 1.394 . S
C582 H590 0.930 . S
C583 C582 1.394 . S
C583 C584 1.383 . S
C583 H591 0.929 . S
C584 C583 1.383 . S
C584 C585 1.377 . S
C585 H569 0.930 . S
C585 C584 1.377 . S
C585 C586 1.379 . S
C586 H570 0.931 . S
C586 C580 1.383 . S
C586 C585 1.379 . S
H587 C581 0.959 . S
H588 C581 0.961 . S
H589 C581 0.960 . S
H590 C582 0.930 . S
H591 C583 0.929 . S
H592 C600 0.929 . S
H593 C602 0.930 . S
H594 C604 0.930 . S
H595 C607 0.929 . S
H596 C610 0.930 . S
H597 C612 0.960 . S
H598 C612 0.960 . S
H599 C612 0.960 . S
C600 H592 0.929 . S
C600 C601 1.377 . S
C600 C602 1.384 . S
C601 C600 1.377 . S
C601 C607 1.390 . S
C602 H593 0.930 . S
C602 C600 1.384 . S
C602 C603 1.372 . S
C603 C602 1.372 . S
C603 C604 1.400 . S
C603 C608 1.490 . S
C604 H594 0.930 . S
C604 C603 1.400 . S
C604 C607 1.386 . S
H605 C621 0.930 . S
H606 C622 0.931 . S
C607 H595 0.929 . S
C607 C601 1.390 . S
C607 C604 1.386 . S
C608 C603 1.490 . S
C608 C610 1.395 . S
C608 C611 1.403 . S
H609 C615 0.930 . S
C610 H596 0.930 . S
C610 C608 1.395 . S
C610 C613 1.403 . S
C611 C608 1.403 . S
C611 C612 1.524 . S
C611 C615 1.400 . S
C612 H597 0.960 . S
C612 H598 0.960 . S
C612 H599 0.960 . S
C612 C611 1.524 . S
C613 C610 1.403 . S
C613 C614 1.392 . S
C613 C617 1.495 . S
C614 C613 1.392 . S
C614 C615 1.385 . S
C614 C616 1.478 . S
C615 H609 0.930 . S
C615 C611 1.400 . S
C615 C614 1.385 . S
C616 C614 1.478 . S
C616 C618 1.381 . S
C616 C622 1.383 . S
C617 C613 1.495 . S
C617 H623 0.959 . S
C617 H624 0.961 . S
C617 H625 0.960 . S
C618 C616 1.381 . S
C618 C619 1.394 . S
C618 H626 0.930 . S
C619 C618 1.394 . S
C619 C620 1.383 . S
C619 H627 0.929 . S
C620 C619 1.383 . S
C620 C621 1.377 . S
C621 H605 0.930 . S
C621 C620 1.377 . S
C621 C622 1.379 . S
C622 H606 0.931 . S
C622 C616 1.383 . S
C622 C621 1.379 . S
H623 C617 0.959 . S
H624 C617 0.961 . S
H625 C617 0.960 . S
H626 C618 0.930 . S
H627 C619 0.929 . S
H628 C636 0.929 . S
H629 C638 0.930 . S
H630 C640 0.930 . S
H631 C643 0.929 . S
H632 C646 0.930 . S
H633 C648 0.960 . S
H634 C648 0.960 . S
H635 C648 0.960 . S
C636 H628 0.929 . S
C636 C637 1.377 . S
C636 C638 1.384 . S
C637 C636 1.377 . S
C637 C643 1.390 . S
C638 H629 0.930 . S
C638 C636 1.384 . S
C638 C639 1.372 . S
C639 C638 1.372 . S
C639 C640 1.400 . S
C639 C644 1.490 . S
C640 H630 0.930 . S
C640 C639 1.400 . S
C640 C643 1.386 . S
H641 C657 0.930 . S
H642 C658 0.931 . S
C643 H631 0.929 . S
C643 C637 1.390 . S
C643 C640 1.386 . S
C644 C639 1.490 . S
C644 C646 1.395 . S
C644 C647 1.403 . S
H645 C651 0.930 . S
C646 H632 0.930 . S
C646 C644 1.395 . S
C646 C649 1.403 . S
C647 C644 1.403 . S
C647 C648 1.524 . S
C647 C651 1.400 . S
C648 H633 0.960 . S
C648 H634 0.960 . S
C648 H635 0.960 . S
C648 C647 1.524 . S
C649 C646 1.403 . S
C649 C650 1.392 . S
C649 C653 1.495 . S
C650 C649 1.392 . S
C650 C651 1.385 . S
C650 C652 1.478 . S
C651 H645 0.930 . S
C651 C647 1.400 . S
C651 C650 1.385 . S
C652 C650 1.478 . S
C652 C654 1.381 . S
C652 C658 1.383 . S
C653 C649 1.495 . S
C653 H659 0.959 . S
C653 H660 0.961 . S
C653 H661 0.960 . S
C654 C652 1.381 . S
C654 C655 1.394 . S
C654 H662 0.930 . S
C655 C654 1.394 . S
C655 C656 1.383 . S
C655 H663 0.929 . S
C656 C655 1.383 . S
C656 C657 1.377 . S
C657 H641 0.930 . S
C657 C656 1.377 . S
C657 C658 1.379 . S
C658 H642 0.931 . S
C658 C652 1.383 . S
C658 C657 1.379 . S
H659 C653 0.959 . S
H660 C653 0.961 . S
H661 C653 0.960 . S
H662 C654 0.930 . S
H663 C655 0.929 . S
H664 C672 0.929 . S
H665 C674 0.930 . S
H666 C676 0.930 . S
H667 C679 0.929 . S
H668 C682 0.930 . S
H669 C684 0.960 . S
H670 C684 0.960 . S
H671 C684 0.960 . S
C672 H664 0.929 . S
C672 C673 1.377 . S
C672 C674 1.384 . S
C673 C672 1.377 . S
C673 C679 1.390 . S
C674 H665 0.930 . S
C674 C672 1.384 . S
C674 C675 1.372 . S
C675 C674 1.372 . S
C675 C676 1.400 . S
C675 C680 1.490 . S
C676 H666 0.930 . S
C676 C675 1.400 . S
C676 C679 1.386 . S
H677 C693 0.930 . S
H678 C694 0.931 . S
C679 H667 0.929 . S
C679 C673 1.390 . S
C679 C676 1.386 . S
C680 C675 1.490 . S
C680 C682 1.395 . S
C680 C683 1.403 . S
H681 C687 0.930 . S
C682 H668 0.930 . S
C682 C680 1.395 . S
C682 C685 1.403 . S
C683 C680 1.403 . S
C683 C684 1.524 . S
C683 C687 1.400 . S
C684 H669 0.960 . S
C684 H670 0.960 . S
C684 H671 0.960 . S
C684 C683 1.524 . S
C685 C682 1.403 . S
C685 C686 1.392 . S
C685 C689 1.495 . S
C686 C685 1.392 . S
C686 C687 1.385 . S
C686 C688 1.478 . S
C687 H681 0.930 . S
C687 C683 1.400 . S
C687 C686 1.385 . S
C688 C686 1.478 . S
C688 C690 1.381 . S
C688 C694 1.383 . S
C689 C685 1.495 . S
C689 H695 0.959 . S
C689 H696 0.961 . S
C689 H697 0.960 . S
C690 C688 1.381 . S
C690 C691 1.394 . S
C690 H698 0.930 . S
C691 C690 1.394 . S
C691 C692 1.383 . S
C691 H699 0.929 . S
C692 C691 1.383 . S
C692 C693 1.377 . S
C693 H677 0.930 . S
C693 C692 1.377 . S
C693 C694 1.379 . S
C694 H678 0.931 . S
C694 C688 1.383 . S
C694 C693 1.379 . S
H695 C689 0.959 . S
H696 C689 0.961 . S
H697 C689 0.960 . S
H698 C690 0.930 . S
H699 C691 0.929 . S
H700 C708 0.929 . S
H701 C710 0.930 . S
H702 C712 0.930 . S
H703 C715 0.929 . S
H704 C718 0.930 . S
H705 C720 0.960 . S
H706 C720 0.960 . S
H707 C720 0.960 . S
C708 H700 0.929 . S
C708 C709 1.377 . S
C708 C710 1.384 . S
C709 C708 1.377 . S
C709 C715 1.390 . S
C710 H701 0.930 . S
C710 C708 1.384 . S
C710 C711 1.372 . S
C711 C710 1.372 . S
C711 C712 1.400 . S
C711 C716 1.490 . S
C712 H702 0.930 . S
C712 C711 1.400 . S
C712 C715 1.386 . S
H713 C729 0.930 . S
H714 C730 0.931 . S
C715 H703 0.929 . S
C715 C709 1.390 . S
C715 C712 1.386 . S
C716 C711 1.490 . S
C716 C718 1.395 . S
C716 C719 1.403 . S
H717 C723 0.930 . S
C718 H704 0.930 . S
C718 C716 1.395 . S
C718 C721 1.403 . S
C719 C716 1.403 . S
C719 C720 1.524 . S
C719 C723 1.400 . S
C720 H705 0.960 . S
C720 H706 0.960 . S
C720 H707 0.960 . S
C720 C719 1.524 . S
C721 C718 1.403 . S
C721 C722 1.392 . S
C721 C725 1.495 . S
C722 C721 1.392 . S
C722 C723 1.385 . S
C722 C724 1.478 . S
C723 H717 0.930 . S
C723 C719 1.400 . S
C723 C722 1.385 . S
C724 C722 1.478 . S
C724 C726 1.381 . S
C724 C730 1.383 . S
C725 C721 1.495 . S
C725 H731 0.959 . S
C725 H732 0.961 . S
C725 H733 0.960 . S
C726 C724 1.381 . S
C726 C727 1.394 . S
C726 H734 0.930 . S
C727 C726 1.394 . S
C727 C728 1.383 . S
C727 H735 0.929 . S
C728 C727 1.383 . S
C728 C729 1.377 . S
C729 H713 0.930 . S
C729 C728 1.377 . S
C729 C730 1.379 . S
C730 H714 0.931 . S
C730 C724 1.383 . S
C730 C729 1.379 . S
H731 C725 0.959 . S
H732 C725 0.961 . S
H733 C725 0.960 . S
H734 C726 0.930 . S
H735 C727 0.929 . S
H736 C744 0.929 . S
H737 C746 0.930 . S
H738 C748 0.930 . S
H739 C751 0.929 . S
H740 C754 0.930 . S
H741 C756 0.960 . S
H742 C756 0.960 . S
H743 C756 0.960 . S
C744 H736 0.929 . S
C744 C745 1.377 . S
C744 C746 1.384 . S
C745 C744 1.377 . S
C745 C751 1.390 . S
C746 H737 0.930 . S
C746 C744 1.384 . S
C746 C747 1.372 . S
C747 C746 1.372 . S
C747 C748 1.400 . S
C747 C752 1.490 . S
C748 H738 0.930 . S
C748 C747 1.400 . S
C748 C751 1.386 . S
H749 C765 0.930 . S
H750 C766 0.931 . S
C751 H739 0.929 . S
C751 C745 1.390 . S
C751 C748 1.386 . S
C752 C747 1.490 . S
C752 C754 1.395 . S
C752 C755 1.403 . S
H753 C759 0.930 . S
C754 H740 0.930 . S
C754 C752 1.395 . S
C754 C757 1.403 . S
C755 C752 1.403 . S
C755 C756 1.524 . S
C755 C759 1.400 . S
C756 H741 0.960 . S
C756 H742 0.960 . S
C756 H743 0.960 . S
C756 C755 1.524 . S
C757 C754 1.403 . S
C757 C758 1.392 . S
C757 C761 1.495 . S
C758 C757 1.392 . S
C758 C759 1.385 . S
C758 C760 1.478 . S
C759 H753 0.930 . S
C759 C755 1.400 . S
C759 C758 1.385 . S
C760 C758 1.478 . S
C760 C762 1.381 . S
C760 C766 1.383 . S
C761 C757 1.495 . S
C761 H767 0.959 . S
C761 H768 0.961 . S
C761 H769 0.960 . S
C762 C760 1.381 . S
C762 C763 1.394 . S
C762 H770 0.930 . S
C763 C762 1.394 . S
C763 C764 1.383 . S
C763 H771 0.929 . S
C764 C763 1.383 . S
C764 C765 1.377 . S
C765 H749 0.930 . S
C765 C764 1.377 . S
C765 C766 1.379 . S
C766 H750 0.931 . S
C766 C760 1.383 . S
C766 C765 1.379 . S
H767 C761 0.959 . S
H768 C761 0.961 . S
H769 C761 0.960 . S
H770 C762 0.930 . S
H771 C763 0.929 . S
H772 C780 0.929 . S
H773 C782 0.930 . S
H774 C784 0.930 . S
H775 C787 0.929 . S
H776 C790 0.930 . S
H777 C792 0.960 . S
H778 C792 0.960 . S
H779 C792 0.960 . S
C780 H772 0.929 . S
C780 C781 1.377 . S
C780 C782 1.384 . S
C781 C780 1.377 . S
C781 C787 1.390 . S
C782 H773 0.930 . S
C782 C780 1.384 . S
C782 C783 1.372 . S
C783 C782 1.372 . S
C783 C784 1.400 . S
C783 C788 1.490 . S
C784 H774 0.930 . S
C784 C783 1.400 . S
C784 C787 1.386 . S
H785 C801 0.930 . S
H786 C802 0.931 . S
C787 H775 0.929 . S
C787 C781 1.390 . S
C787 C784 1.386 . S
C788 C783 1.490 . S
C788 C790 1.395 . S
C788 C791 1.403 . S
H789 C795 0.930 . S
C790 H776 0.930 . S
C790 C788 1.395 . S
C790 C793 1.403 . S
C791 C788 1.403 . S
C791 C792 1.524 . S
C791 C795 1.400 . S
C792 H777 0.960 . S
C792 H778 0.960 . S
C792 H779 0.960 . S
C792 C791 1.524 . S
C793 C790 1.403 . S
C793 C794 1.392 . S
C793 C797 1.495 . S
C794 C793 1.392 . S
C794 C795 1.385 . S
C794 C796 1.478 . S
C795 H789 0.930 . S
C795 C791 1.400 . S
C795 C794 1.385 . S
C796 C794 1.478 . S
C796 C798 1.381 . S
C796 C802 1.383 . S
C797 C793 1.495 . S
C797 H803 0.959 . S
C797 H804 0.961 . S
C797 H805 0.960 . S
C798 C796 1.381 . S
C798 C799 1.394 . S
C798 H806 0.930 . S
C799 C798 1.394 . S
C799 C800 1.383 . S
C799 H807 0.929 . S
C800 C799 1.383 . S
C800 C801 1.377 . S
C801 H785 0.930 . S
C801 C800 1.377 . S
C801 C802 1.379 . S
C802 H786 0.931 . S
C802 C796 1.383 . S
C802 C801 1.379 . S
H803 C797 0.959 . S
H804 C797 0.961 . S
H805 C797 0.960 . S
H806 C798 0.930 . S
H807 C799 0.929 . S
H808 C816 0.929 . S
H809 C818 0.930 . S
H810 C820 0.930 . S
H811 C823 0.929 . S
H812 C826 0.930 . S
H813 C828 0.960 . S
H814 C828 0.960 . S
H815 C828 0.960 . S
C816 H808 0.929 . S
C816 C817 1.377 . S
C816 C818 1.384 . S
C817 C816 1.377 . S
C817 C823 1.390 . S
C818 H809 0.930 . S
C818 C816 1.384 . S
C818 C819 1.372 . S
C819 C818 1.372 . S
C819 C820 1.400 . S
C819 C824 1.490 . S
C820 H810 0.930 . S
C820 C819 1.400 . S
C820 C823 1.386 . S
H821 C837 0.930 . S
H822 C838 0.931 . S
C823 H811 0.929 . S
C823 C817 1.390 . S
C823 C820 1.386 . S
C824 C819 1.490 . S
C824 C826 1.395 . S
C824 C827 1.403 . S
H825 C831 0.930 . S
C826 H812 0.930 . S
C826 C824 1.395 . S
C826 C829 1.403 . S
C827 C824 1.403 . S
C827 C828 1.524 . S
C827 C831 1.400 . S
C828 H813 0.960 . S
C828 H814 0.960 . S
C828 H815 0.960 . S
C828 C827 1.524 . S
C829 C826 1.403 . S
C829 C830 1.392 . S
C829 C833 1.495 . S
C830 C829 1.392 . S
C830 C831 1.385 . S
C830 C832 1.478 . S
C831 H825 0.930 . S
C831 C827 1.400 . S
C831 C830 1.385 . S
C832 C830 1.478 . S
C832 C834 1.381 . S
C832 C838 1.383 . S
C833 C829 1.495 . S
C833 H839 0.959 . S
C833 H840 0.961 . S
C833 H841 0.960 . S
C834 C832 1.381 . S
C834 C835 1.394 . S
C834 H842 0.930 . S
C835 C834 1.394 . S
C835 C836 1.383 . S
C835 H843 0.929 . S
C836 C835 1.383 . S
C836 C837 1.377 . S
C837 H821 0.930 . S
C837 C836 1.377 . S
C837 C838 1.379 . S
C838 H822 0.931 . S
C838 C832 1.383 . S
C838 C837 1.379 . S
H839 C833 0.959 . S
H840 C833 0.961 . S
H841 C833 0.960 . S
H842 C834 0.930 . S
H843 C835 0.929 . S
H844 C852 0.929 . S
H845 C854 0.930 . S
H846 C856 0.930 . S
H847 C859 0.929 . S
H848 C862 0.930 . S
H849 C864 0.960 . S
H850 C864 0.960 . S
H851 C864 0.960 . S
C852 H844 0.929 . S
C852 C853 1.377 . S
C852 C854 1.384 . S
C853 C852 1.377 . S
C853 C859 1.390 . S
C854 H845 0.930 . S
C854 C852 1.384 . S
C854 C855 1.372 . S
C855 C854 1.372 . S
C855 C856 1.400 . S
C855 C860 1.490 . S
C856 H846 0.930 . S
C856 C855 1.400 . S
C856 C859 1.386 . S
H857 C873 0.930 . S
H858 C874 0.931 . S
C859 H847 0.929 . S
C859 C853 1.390 . S
C859 C856 1.386 . S
C860 C855 1.490 . S
C860 C862 1.395 . S
C860 C863 1.403 . S
H861 C867 0.930 . S
C862 H848 0.930 . S
C862 C860 1.395 . S
C862 C865 1.403 . S
C863 C860 1.403 . S
C863 C864 1.524 . S
C863 C867 1.400 . S
C864 H849 0.960 . S
C864 H850 0.960 . S
C864 H851 0.960 . S
C864 C863 1.524 . S
C865 C862 1.403 . S
C865 C866 1.392 . S
C865 C869 1.495 . S
C866 C865 1.392 . S
C866 C867 1.385 . S
C866 C868 1.478 . S
C867 H861 0.930 . S
C867 C863 1.400 . S
C867 C866 1.385 . S
C868 C866 1.478 . S
C868 C870 1.381 . S
C868 C874 1.383 . S
C869 C865 1.495 . S
C869 H875 0.959 . S
C869 H876 0.961 . S
C869 H877 0.960 . S
C870 C868 1.381 . S
C870 C871 1.394 . S
C870 H878 0.930 . S
C871 C870 1.394 . S
C871 C872 1.383 . S
C871 H879 0.929 . S
C872 C871 1.383 . S
C872 C873 1.377 . S
C873 H857 0.930 . S
C873 C872 1.377 . S
C873 C874 1.379 . S
C874 H858 0.931 . S
C874 C868 1.383 . S
C874 C873 1.379 . S
H875 C869 0.959 . S
H876 C869 0.961 . S
H877 C869 0.960 . S
H878 C870 0.930 . S
H879 C871 0.929 . S
H880 C888 0.929 . S
H881 C890 0.930 . S
H882 C892 0.930 . S
H883 C895 0.929 . S
H884 C898 0.930 . S
H885 C900 0.960 . S
H886 C900 0.960 . S
H887 C900 0.960 . S
C888 H880 0.929 . S
C888 C889 1.377 . S
C888 C890 1.384 . S
C889 C888 1.377 . S
C889 C895 1.390 . S
C890 H881 0.930 . S
C890 C888 1.384 . S
C890 C891 1.372 . S
C891 C890 1.372 . S
C891 C892 1.400 . S
C891 C896 1.490 . S
C892 H882 0.930 . S
C892 C891 1.400 . S
C892 C895 1.386 . S
H893 C909 0.930 . S
H894 C910 0.931 . S
C895 H883 0.929 . S
C895 C889 1.390 . S
C895 C892 1.386 . S
C896 C891 1.490 . S
C896 C898 1.395 . S
C896 C899 1.403 . S
H897 C903 0.930 . S
C898 H884 0.930 . S
C898 C896 1.395 . S
C898 C901 1.403 . S
C899 C896 1.403 . S
C899 C900 1.524 . S
C899 C903 1.400 . S
C900 H885 0.960 . S
C900 H886 0.960 . S
C900 H887 0.960 . S
C900 C899 1.524 . S
C901 C898 1.403 . S
C901 C902 1.392 . S
C901 C905 1.495 . S
C902 C901 1.392 . S
C902 C903 1.385 . S
C902 C904 1.478 . S
C903 H897 0.930 . S
C903 C899 1.400 . S
C903 C902 1.385 . S
C904 C902 1.478 . S
C904 C906 1.381 . S
C904 C910 1.383 . S
C905 C901 1.495 . S
C905 H911 0.959 . S
C905 H912 0.961 . S
C905 H913 0.960 . S
C906 C904 1.381 . S
C906 C907 1.394 . S
C906 H914 0.930 . S
C907 C906 1.394 . S
C907 C908 1.383 . S
C907 H915 0.929 . S
C908 C907 1.383 . S
C908 C909 1.377 . S
C909 H893 0.930 . S
C909 C908 1.377 . S
C909 C910 1.379 . S
C910 H894 0.931 . S
C910 C904 1.383 . S
C910 C909 1.379 . S
H911 C905 0.959 . S
H912 C905 0.961 . S
H913 C905 0.960 . S
H914 C906 0.930 . S
H915 C907 0.929 . S
H916 C924 0.929 . S
H917 C926 0.930 . S
H918 C928 0.930 . S
H919 C931 0.929 . S
H920 C934 0.930 . S
H921 C936 0.960 . S
H922 C936 0.960 . S
H923 C936 0.960 . S
C924 H916 0.929 . S
C924 C925 1.377 . S
C924 C926 1.384 . S
C925 C924 1.377 . S
C925 C931 1.390 . S
C926 H917 0.930 . S
C926 C924 1.384 . S
C926 C927 1.372 . S
C927 C926 1.372 . S
C927 C928 1.400 . S
C927 C932 1.490 . S
C928 H918 0.930 . S
C928 C927 1.400 . S
C928 C931 1.386 . S
H929 C945 0.930 . S
H930 C946 0.931 . S
C931 H919 0.929 . S
C931 C925 1.390 . S
C931 C928 1.386 . S
C932 C927 1.490 . S
C932 C934 1.395 . S
C932 C935 1.403 . S
H933 C939 0.930 . S
C934 H920 0.930 . S
C934 C932 1.395 . S
C934 C937 1.403 . S
C935 C932 1.403 . S
C935 C936 1.524 . S
C935 C939 1.400 . S
C936 H921 0.960 . S
C936 H922 0.960 . S
C936 H923 0.960 . S
C936 C935 1.524 . S
C937 C934 1.403 . S
C937 C938 1.392 . S
C937 C941 1.495 . S
C938 C937 1.392 . S
C938 C939 1.385 . S
C938 C940 1.478 . S
C939 H933 0.930 . S
C939 C935 1.400 . S
C939 C938 1.385 . S
C940 C938 1.478 . S
C940 C942 1.381 . S
C940 C946 1.383 . S
C941 C937 1.495 . S
C941 H947 0.959 . S
C941 H948 0.961 . S
C941 H949 0.960 . S
C942 C940 1.381 . S
C942 C943 1.394 . S
C942 H950 0.930 . S
C943 C942 1.394 . S
C943 C944 1.383 . S
C943 H951 0.929 . S
C944 C943 1.383 . S
C944 C945 1.377 . S
C945 H929 0.930 . S
C945 C944 1.377 . S
C945 C946 1.379 . S
C946 H930 0.931 . S
C946 C940 1.383 . S
C946 C945 1.379 . S
H947 C941 0.959 . S
H948 C941 0.961 . S
H949 C941 0.960 . S
H950 C942 0.930 . S
H951 C943 0.929 . S
H952 C960 0.929 . S
H953 C962 0.930 . S
H954 C964 0.930 . S
H955 C967 0.929 . S
H956 C970 0.930 . S
H957 C972 0.960 . S
H958 C972 0.960 . S
H959 C972 0.960 . S
C960 H952 0.929 . S
C960 C961 1.377 . S
C960 C962 1.384 . S
C961 C960 1.377 . S
C961 C967 1.390 . S
C962 H953 0.930 . S
C962 C960 1.384 . S
C962 C963 1.372 . S
C963 C962 1.372 . S
C963 C964 1.400 . S
C963 C968 1.490 . S
C964 H954 0.930 . S
C964 C963 1.400 . S
C964 C967 1.386 . S
H965 C981 0.930 . S
H966 C982 0.931 . S
C967 H955 0.929 . S
C967 C961 1.390 . S
C967 C964 1.386 . S
C968 C963 1.490 . S
C968 C970 1.395 . S
C968 C971 1.403 . S
H969 C975 0.930 . S
C970 H956 0.930 . S
C970 C968 1.395 . S
C970 C973 1.403 . S
C971 C968 1.403 . S
C971 C972 1.524 . S
C971 C975 1.400 . S
C972 H957 0.960 . S
C972 H958 0.960 . S
C972 H959 0.960 . S
C972 C971 1.524 . S
C973 C970 1.403 . S
C973 C974 1.392 . S
C973 C977 1.495 . S
C974 C973 1.392 . S
C974 C975 1.385 . S
C974 C976 1.478 . S
C975 H969 0.930 . S
C975 C971 1.400 . S
C975 C974 1.385 . S
C976 C974 1.478 . S
C976 C978 1.381 . S
C976 C982 1.383 . S
C977 C973 1.495 . S
C977 H983 0.959 . S
C977 H984 0.961 . S
C977 H985 0.960 . S
C978 C976 1.381 . S
C978 C979 1.394 . S
C978 H986 0.930 . S
C979 C978 1.394 . S
C979 C980 1.383 . S
C979 H987 0.929 . S
C980 C979 1.383 . S
C980 C981 1.377 . S
C981 H965 0.930 . S
C981 C980 1.377 . S
C981 C982 1.379 . S
C982 H966 0.931 . S
C982 C976 1.383 . S
C982 C981 1.379 . S
H983 C977 0.959 . S
H984 C977 0.961 . S
H985 C977 0.960 . S
H986 C978 0.930 . S
H987 C979 0.929 . S
H988 C996 0.929 . S
H989 C998 0.930 . S
H990 C1000 0.930 . S
H991 C1003 0.929 . S
H992 C1006 0.930 . S
H993 C1008 0.960 . S
H994 C1008 0.960 . S
H995 C1008 0.960 . S
C996 H988 0.929 . S
C996 C997 1.377 . S
C996 C998 1.384 . S
C997 C996 1.377 . S
C997 C1003 1.390 . S
C998 H989 0.930 . S
C998 C996 1.384 . S
C998 C999 1.372 . S
C999 C998 1.372 . S
C999 C1000 1.400 . S
C999 C1004 1.490 . S
C1000 H990 0.930 . S
C1000 C999 1.400 . S
C1000 C1003 1.386 . S
H1001 C1017 0.930 . S
H1002 C1018 0.931 . S
C1003 H991 0.929 . S
C1003 C997 1.390 . S
C1003 C1000 1.386 . S
C1004 C999 1.490 . S
C1004 C1006 1.395 . S
C1004 C1007 1.403 . S
H1005 C1011 0.930 . S
C1006 H992 0.930 . S
C1006 C1004 1.395 . S
C1006 C1009 1.403 . S
C1007 C1004 1.403 . S
C1007 C1008 1.524 . S
C1007 C1011 1.400 . S
C1008 H993 0.960 . S
C1008 H994 0.960 . S
C1008 H995 0.960 . S
C1008 C1007 1.524 . S
C1009 C1006 1.403 . S
C1009 C1010 1.392 . S
C1009 C1013 1.495 . S
C1010 C1009 1.392 . S
C1010 C1011 1.385 . S
C1010 C1012 1.478 . S
C1011 H1005 0.930 . S
C1011 C1007 1.400 . S
C1011 C1010 1.385 . S
C1012 C1010 1.478 . S
C1012 C1014 1.381 . S
C1012 C1018 1.383 . S
C1013 C1009 1.495 . S
C1013 H1019 0.959 . S
C1013 H1020 0.961 . S
C1013 H1021 0.960 . S
C1014 C1012 1.381 . S
C1014 C1015 1.394 . S
C1014 H1022 0.930 . S
C1015 C1014 1.394 . S
C1015 C1016 1.383 . S
C1015 H1023 0.929 . S
C1016 C1015 1.383 . S
C1016 C1017 1.377 . S
C1017 H1001 0.930 . S
C1017 C1016 1.377 . S
C1017 C1018 1.379 . S
C1018 H1002 0.931 . S
C1018 C1012 1.383 . S
C1018 C1017 1.379 . S
H1019 C1013 0.959 . S
H1020 C1013 0.961 . S
H1021 C1013 0.960 . S
H1022 C1014 0.930 . S
H1023 C1015 0.929 . S
H1024 C1032 0.929 . S
H1025 C1034 0.930 . S
H1026 C1036 0.930 . S
H1027 C1039 0.929 . S
H1028 C1042 0.930 . S
H1029 C1044 0.960 . S
H1030 C1044 0.960 . S
H1031 C1044 0.960 . S
C1032 H1024 0.929 . S
C1032 C1033 1.377 . S
C1032 C1034 1.384 . S
C1033 C1032 1.377 . S
C1033 C1039 1.390 . S
C1034 H1025 0.930 . S
C1034 C1032 1.384 . S
C1034 C1035 1.372 . S
C1035 C1034 1.372 . S
C1035 C1036 1.400 . S
C1035 C1040 1.490 . S
C1036 H1026 0.930 . S
C1036 C1035 1.400 . S
C1036 C1039 1.386 . S
H1037 C1053 0.930 . S
H1038 C1054 0.931 . S
C1039 H1027 0.929 . S
C1039 C1033 1.390 . S
C1039 C1036 1.386 . S
C1040 C1035 1.490 . S
C1040 C1042 1.395 . S
C1040 C1043 1.403 . S
H1041 C1047 0.930 . S
C1042 H1028 0.930 . S
C1042 C1040 1.395 . S
C1042 C1045 1.403 . S
C1043 C1040 1.403 . S
C1043 C1044 1.524 . S
C1043 C1047 1.400 . S
C1044 H1029 0.960 . S
C1044 H1030 0.960 . S
C1044 H1031 0.960 . S
C1044 C1043 1.524 . S
C1045 C1042 1.403 . S
C1045 C1046 1.392 . S
C1045 C1049 1.495 . S
C1046 C1045 1.392 . S
C1046 C1047 1.385 . S
C1046 C1048 1.478 . S
C1047 H1041 0.930 . S
C1047 C1043 1.400 . S
C1047 C1046 1.385 . S
C1048 C1046 1.478 . S
C1048 C1050 1.381 . S
C1048 C1054 1.383 . S
C1049 C1045 1.495 . S
C1049 H1055 0.959 . S
C1049 H1056 0.961 . S
C1049 H1057 0.960 . S
C1050 C1048 1.381 . S
C1050 C1051 1.394 . S
C1050 H1058 0.930 . S
C1051 C1050 1.394 . S
C1051 C1052 1.383 . S
C1051 H1059 0.929 . S
C1052 C1051 1.383 . S
C1052 C1053 1.377 . S
C1053 H1037 0.930 . S
C1053 C1052 1.377 . S
C1053 C1054 1.379 . S
C1054 H1038 0.931 . S
C1054 C1048 1.383 . S
C1054 C1053 1.379 . S
H1055 C1049 0.959 . S
H1056 C1049 0.961 . S
H1057 C1049 0.960 . S
H1058 C1050 0.930 . S
H1059 C1051 0.929 . S
H1060 C1068 0.929 . S
H1061 C1070 0.930 . S
H1062 C1072 0.930 . S
H1063 C1075 0.929 . S
H1064 C1078 0.930 . S
H1065 C1080 0.960 . S
H1066 C1080 0.960 . S
H1067 C1080 0.960 . S
C1068 H1060 0.929 . S
C1068 C1069 1.377 . S
C1068 C1070 1.384 . S
C1069 C1068 1.377 . S
C1069 C1075 1.390 . S
C1070 H1061 0.930 . S
C1070 C1068 1.384 . S
C1070 C1071 1.372 . S
C1071 C1070 1.372 . S
C1071 C1072 1.400 . S
C1071 C1076 1.490 . S
C1072 H1062 0.930 . S
C1072 C1071 1.400 . S
C1072 C1075 1.386 . S
H1073 C1089 0.931 . S
H1074 C1090 0.931 . S
C1075 H1063 0.929 . S
C1075 C1069 1.390 . S
C1075 C1072 1.386 . S
C1076 C1071 1.490 . S
C1076 C1078 1.395 . S
C1076 C1079 1.403 . S
H1077 C1083 0.930 . S
C1078 H1064 0.930 . S
C1078 C1076 1.395 . S
C1078 C1081 1.403 . S
C1079 C1076 1.403 . S
C1079 C1080 1.524 . S
C1079 C1083 1.400 . S
C1080 H1065 0.960 . S
C1080 H1066 0.960 . S
C1080 H1067 0.960 . S
C1080 C1079 1.524 . S
C1081 C1078 1.403 . S
C1081 C1082 1.392 . S
C1081 C1085 1.495 . S
C1082 C1081 1.392 . S
C1082 C1083 1.385 . S
C1082 C1084 1.478 . S
C1083 H1077 0.930 . S
C1083 C1079 1.400 . S
C1083 C1082 1.385 . S
C1084 C1082 1.478 . S
C1084 C1086 1.381 . S
C1084 C1090 1.383 . S
C1085 C1081 1.495 . S
C1085 H1091 0.959 . S
C1085 H1092 0.961 . S
C1085 H1093 0.960 . S
C1086 C1084 1.381 . S
C1086 C1087 1.394 . S
C1086 H1094 0.930 . S
C1087 C1086 1.394 . S
C1087 C1088 1.383 . S
C1087 H1095 0.929 . S
C1088 C1087 1.383 . S
C1088 C1089 1.377 . S
C1089 H1073 0.931 . S
C1089 C1088 1.377 . S
C1089 C1090 1.379 . S
C1090 H1074 0.931 . S
C1090 C1084 1.383 . S
C1090 C1089 1.379 . S
H1091 C1085 0.959 . S
H1092 C1085 0.961 . S
H1093 C1085 0.960 . S
H1094 C1086 0.930 . S
H1095 C1087 0.929 . S
H1096 C1104 0.929 . S
H1097 C1106 0.930 . S
H1098 C1108 0.930 . S
H1099 C1111 0.929 . S
H1100 C1114 0.930 . S
H1101 C1116 0.960 . S
H1102 C1116 0.960 . S
H1103 C1116 0.960 . S
C1104 H1096 0.929 . S
C1104 C1105 1.377 . S
C1104 C1106 1.384 . S
C1105 C1104 1.377 . S
C1105 C1111 1.390 . S
C1106 H1097 0.930 . S
C1106 C1104 1.384 . S
C1106 C1107 1.372 . S
C1107 C1106 1.372 . S
C1107 C1108 1.400 . S
C1107 C1112 1.490 . S
C1108 H1098 0.930 . S
C1108 C1107 1.400 . S
C1108 C1111 1.386 . S
H1109 C1125 0.930 . S
H1110 C1126 0.931 . S
C1111 H1099 0.929 . S
C1111 C1105 1.390 . S
C1111 C1108 1.386 . S
C1112 C1107 1.490 . S
C1112 C1114 1.395 . S
C1112 C1115 1.403 . S
H1113 C1119 0.930 . S
C1114 H1100 0.930 . S
C1114 C1112 1.395 . S
C1114 C1117 1.403 . S
C1115 C1112 1.403 . S
C1115 C1116 1.524 . S
C1115 C1119 1.400 . S
C1116 H1101 0.960 . S
C1116 H1102 0.960 . S
C1116 H1103 0.960 . S
C1116 C1115 1.524 . S
C1117 C1114 1.403 . S
C1117 C1118 1.392 . S
C1117 C1121 1.495 . S
C1118 C1117 1.392 . S
C1118 C1119 1.385 . S
C1118 C1120 1.478 . S
C1119 H1113 0.930 . S
C1119 C1115 1.400 . S
C1119 C1118 1.385 . S
C1120 C1118 1.478 . S
C1120 C1122 1.381 . S
C1120 C1126 1.383 . S
C1121 C1117 1.495 . S
C1121 H1127 0.959 . S
C1121 H1128 0.961 . S
C1121 H1129 0.960 . S
C1122 C1120 1.381 . S
C1122 C1123 1.394 . S
C1122 H1130 0.930 . S
C1123 C1122 1.394 . S
C1123 C1124 1.383 . S
C1123 H1131 0.929 . S
C1124 C1123 1.383 . S
C1124 C1125 1.377 . S
C1125 H1109 0.930 . S
C1125 C1124 1.377 . S
C1125 C1126 1.379 . S
C1126 H1110 0.931 . S
C1126 C1120 1.383 . S
C1126 C1125 1.379 . S
H1127 C1121 0.959 . S
H1128 C1121 0.961 . S
H1129 C1121 0.960 . S
H1130 C1122 0.930 . S
H1131 C1123 0.929 . S
H1132 C1140 0.929 . S
H1133 C1142 0.930 . S
H1134 C1144 0.930 . S
H1135 C1147 0.929 . S
H1136 C1150 0.930 . S
H1137 C1152 0.960 . S
H1138 C1152 0.960 . S
H1139 C1152 0.960 . S
C1140 H1132 0.929 . S
C1140 C1141 1.377 . S
C1140 C1142 1.384 . S
C1141 C1140 1.377 . S
C1141 C1147 1.390 . S
C1142 H1133 0.930 . S
C1142 C1140 1.384 . S
C1142 C1143 1.372 . S
C1143 C1142 1.372 . S
C1143 C1144 1.400 . S
C1143 C1148 1.490 . S
C1144 H1134 0.930 . S
C1144 C1143 1.400 . S
C1144 C1147 1.386 . S
H1145 C1161 0.930 . S
H1146 C1162 0.931 . S
C1147 H1135 0.929 . S
C1147 C1141 1.390 . S
C1147 C1144 1.386 . S
C1148 C1143 1.490 . S
C1148 C1150 1.395 . S
C1148 C1151 1.403 . S
H1149 C1155 0.930 . S
C1150 H1136 0.930 . S
C1150 C1148 1.395 . S
C1150 C1153 1.403 . S
C1151 C1148 1.403 . S
C1151 C1152 1.524 . S
C1151 C1155 1.400 . S
C1152 H1137 0.960 . S
C1152 H1138 0.960 . S
C1152 H1139 0.960 . S
C1152 C1151 1.524 . S
C1153 C1150 1.403 . S
C1153 C1154 1.392 . S
C1153 C1157 1.495 . S
C1154 C1153 1.392 . S
C1154 C1155 1.385 . S
C1154 C1156 1.478 . S
C1155 H1149 0.930 . S
C1155 C1151 1.400 . S
C1155 C1154 1.385 . S
C1156 C1154 1.478 . S
C1156 C1158 1.381 . S
C1156 C1162 1.383 . S
C1157 C1153 1.495 . S
C1157 H1163 0.959 . S
C1157 H1164 0.961 . S
C1157 H1165 0.960 . S
C1158 C1156 1.381 . S
C1158 C1159 1.394 . S
C1158 H1166 0.930 . S
C1159 C1158 1.394 . S
C1159 C1160 1.383 . S
C1159 H1167 0.929 . S
C1160 C1159 1.383 . S
C1160 C1161 1.377 . S
C1161 H1145 0.930 . S
C1161 C1160 1.377 . S
C1161 C1162 1.379 . S
C1162 H1146 0.931 . S
C1162 C1156 1.383 . S
C1162 C1161 1.379 . S
H1163 C1157 0.959 . S
H1164 C1157 0.961 . S
H1165 C1157 0.960 . S
H1166 C1158 0.930 . S
H1167 C1159 0.929 . S
H1168 C1176 0.929 . S
H1169 C1178 0.930 . S
H1170 C1180 0.930 . S
H1171 C1183 0.929 . S
H1172 C1186 0.930 . S
H1173 C1188 0.960 . S
H1174 C1188 0.960 . S
H1175 C1188 0.960 . S
C1176 H1168 0.929 . S
C1176 C1177 1.377 . S
C1176 C1178 1.384 . S
C1177 C1176 1.377 . S
C1177 C1183 1.390 . S
C1178 H1169 0.930 . S
C1178 C1176 1.384 . S
C1178 C1179 1.372 . S
C1179 C1178 1.372 . S
C1179 C1180 1.400 . S
C1179 C1184 1.490 . S
C1180 H1170 0.930 . S
C1180 C1179 1.400 . S
C1180 C1183 1.386 . S
H1181 C1197 0.930 . S
H1182 C1198 0.931 . S
C1183 H1171 0.929 . S
C1183 C1177 1.390 . S
C1183 C1180 1.386 . S
C1184 C1179 1.490 . S
C1184 C1186 1.395 . S
C1184 C1187 1.403 . S
H1185 C1191 0.930 . S
C1186 H1172 0.930 . S
C1186 C1184 1.395 . S
C1186 C1189 1.403 . S
C1187 C1184 1.403 . S
C1187 C1188 1.524 . S
C1187 C1191 1.400 . S
C1188 H1173 0.960 . S
C1188 H1174 0.960 . S
C1188 H1175 0.960 . S
C1188 C1187 1.524 . S
C1189 C1186 1.403 . S
C1189 C1190 1.392 . S
C1189 C1193 1.495 . S
C1190 C1189 1.392 . S
C1190 C1191 1.385 . S
C1190 C1192 1.478 . S
C1191 H1185 0.930 . S
C1191 C1187 1.400 . S
C1191 C1190 1.385 . S
C1192 C1190 1.478 . S
C1192 C1194 1.381 . S
C1192 C1198 1.383 . S
C1193 C1189 1.495 . S
C1193 H1199 0.959 . S
C1193 H1200 0.961 . S
C1193 H1201 0.960 . S
C1194 C1192 1.381 . S
C1194 C1195 1.394 . S
C1194 H1202 0.930 . S
C1195 C1194 1.394 . S
C1195 C1196 1.383 . S
C1195 H1203 0.929 . S
C1196 C1195 1.383 . S
C1196 C1197 1.377 . S
C1197 H1181 0.930 . S
C1197 C1196 1.377 . S
C1197 C1198 1.379 . S
C1198 H1182 0.931 . S
C1198 C1192 1.383 . S
C1198 C1197 1.379 . S
H1199 C1193 0.959 . S
H1200 C1193 0.961 . S
H1201 C1193 0.960 . S
H1202 C1194 0.930 . S
H1203 C1195 0.929 . S
H1204 C1212 0.929 . S
H1205 C1214 0.930 . S
H1206 C1216 0.930 . S
H1207 C1219 0.929 . S
H1208 C1222 0.930 . S
H1209 C1224 0.960 . S
H1210 C1224 0.960 . S
H1211 C1224 0.960 . S
C1212 H1204 0.929 . S
C1212 C1213 1.377 . S
C1212 C1214 1.384 . S
C1213 C1212 1.377 . S
C1213 C1219 1.390 . S
C1214 H1205 0.930 . S
C1214 C1212 1.384 . S
C1214 C1215 1.372 . S
C1215 C1214 1.372 . S
C1215 C1216 1.400 . S
C1215 C1220 1.490 . S
C1216 H1206 0.930 . S
C1216 C1215 1.400 . S
C1216 C1219 1.386 . S
H1217 C1233 0.930 . S
H1218 C1234 0.931 . S
C1219 H1207 0.929 . S
C1219 C1213 1.390 . S
C1219 C1216 1.386 . S
C1220 C1215 1.490 . S
C1220 C1222 1.395 . S
C1220 C1223 1.403 . S
H1221 C1227 0.930 . S
C1222 H1208 0.930 . S
C1222 C1220 1.395 . S
C1222 C1225 1.403 . S
C1223 C1220 1.403 . S
C1223 C1224 1.524 . S
C1223 C1227 1.400 . S
C1224 H1209 0.960 . S
C1224 H1210 0.960 . S
C1224 H1211 0.960 . S
C1224 C1223 1.524 . S
C1225 C1222 1.403 . S
C1225 C1226 1.392 . S
C1225 C1229 1.495 . S
C1226 C1225 1.392 . S
C1226 C1227 1.385 . S
C1226 C1228 1.478 . S
C1227 H1221 0.930 . S
C1227 C1223 1.400 . S
C1227 C1226 1.385 . S
C1228 C1226 1.478 . S
C1228 C1230 1.381 . S
C1228 C1234 1.383 . S
C1229 C1225 1.495 . S
C1229 H1235 0.959 . S
C1229 H1236 0.961 . S
C1229 H1237 0.960 . S
C1230 C1228 1.381 . S
C1230 C1231 1.394 . S
C1230 H1238 0.930 . S
C1231 C1230 1.394 . S
C1231 C1232 1.383 . S
C1231 H1239 0.929 . S
C1232 C1231 1.383 . S
C1232 C1233 1.377 . S
C1233 H1217 0.930 . S
C1233 C1232 1.377 . S
C1233 C1234 1.379 . S
C1234 H1218 0.931 . S
C1234 C1228 1.383 . S
C1234 C1233 1.379 . S
H1235 C1229 0.959 . S
H1236 C1229 0.961 . S
H1237 C1229 0.960 . S
H1238 C1230 0.930 . S
H1239 C1231 0.929 . S
H1240 C1248 0.929 . S
H1241 C1250 0.930 . S
H1242 C1252 0.930 . S
H1243 C1255 0.929 . S
H1244 C1258 0.930 . S
H1245 C1260 0.960 . S
H1246 C1260 0.960 . S
H1247 C1260 0.960 . S
C1248 H1240 0.929 . S
C1248 C1249 1.377 . S
C1248 C1250 1.384 . S
C1249 C1248 1.377 . S
C1249 C1255 1.390 . S
C1250 H1241 0.930 . S
C1250 C1248 1.384 . S
C1250 C1251 1.372 . S
C1251 C1250 1.372 . S
C1251 C1252 1.400 . S
C1251 C1256 1.490 . S
C1252 H1242 0.930 . S
C1252 C1251 1.400 . S
C1252 C1255 1.386 . S
H1253 C1269 0.930 . S
H1254 C1270 0.931 . S
C1255 H1243 0.929 . S
C1255 C1249 1.390 . S
C1255 C1252 1.386 . S
C1256 C1251 1.490 . S
C1256 C1258 1.395 . S
C1256 C1259 1.403 . S
H1257 C1263 0.930 . S
C1258 H1244 0.930 . S
C1258 C1256 1.395 . S
C1258 C1261 1.403 . S
C1259 C1256 1.403 . S
C1259 C1260 1.524 . S
C1259 C1263 1.400 . S
C1260 H1245 0.960 . S
C1260 H1246 0.960 . S
C1260 H1247 0.960 . S
C1260 C1259 1.524 . S
C1261 C1258 1.403 . S
C1261 C1262 1.392 . S
C1261 C1265 1.495 . S
C1262 C1261 1.392 . S
C1262 C1263 1.385 . S
C1262 C1264 1.478 . S
C1263 H1257 0.930 . S
C1263 C1259 1.400 . S
C1263 C1262 1.385 . S
C1264 C1262 1.478 . S
C1264 C1266 1.381 . S
C1264 C1270 1.383 . S
C1265 C1261 1.495 . S
C1265 H1271 0.959 . S
C1265 H1272 0.961 . S
C1265 H1273 0.960 . S
C1266 C1264 1.381 . S
C1266 C1267 1.394 . S
C1266 H1274 0.930 . S
C1267 C1266 1.394 . S
C1267 C1268 1.383 . S
C1267 H1275 0.929 . S
C1268 C1267 1.383 . S
C1268 C1269 1.377 . S
C1269 H1253 0.930 . S
C1269 C1268 1.377 . S
C1269 C1270 1.379 . S
C1270 H1254 0.931 . S
C1270 C1264 1.383 . S
C1270 C1269 1.379 . S
H1271 C1265 0.959 . S
H1272 C1265 0.961 . S
H1273 C1265 0.960 . S
H1274 C1266 0.930 . S
H1275 C1267 0.929 . S
H1276 C1284 0.929 . S
H1277 C1286 0.930 . S
H1278 C1288 0.930 . S
H1279 C1291 0.929 . S
H1280 C1294 0.930 . S
H1281 C1296 0.960 . S
H1282 C1296 0.960 . S
H1283 C1296 0.960 . S
C1284 H1276 0.929 . S
C1284 C1285 1.377 . S
C1284 C1286 1.384 . S
C1285 C1284 1.377 . S
C1285 C1291 1.390 . S
C1286 H1277 0.930 . S
C1286 C1284 1.384 . S
C1286 C1287 1.372 . S
C1287 C1286 1.372 . S
C1287 C1288 1.400 . S
C1287 C1292 1.490 . S
C1288 H1278 0.930 . S
C1288 C1287 1.400 . S
C1288 C1291 1.386 . S
H1289 C1305 0.930 . S
H1290 C1306 0.931 . S
C1291 H1279 0.929 . S
C1291 C1285 1.390 . S
C1291 C1288 1.386 . S
C1292 C1287 1.490 . S
C1292 C1294 1.395 . S
C1292 C1295 1.403 . S
H1293 C1299 0.930 . S
C1294 H1280 0.930 . S
C1294 C1292 1.395 . S
C1294 C1297 1.403 . S
C1295 C1292 1.403 . S
C1295 C1296 1.524 . S
C1295 C1299 1.400 . S
C1296 H1281 0.960 . S
C1296 H1282 0.960 . S
C1296 H1283 0.960 . S
C1296 C1295 1.524 . S
C1297 C1294 1.403 . S
C1297 C1298 1.392 . S
C1297 C1301 1.495 . S
C1298 C1297 1.392 . S
C1298 C1299 1.385 . S
C1298 C1300 1.478 . S
C1299 H1293 0.930 . S
C1299 C1295 1.400 . S
C1299 C1298 1.385 . S
C1300 C1298 1.478 . S
C1300 C1302 1.381 . S
C1300 C1306 1.383 . S
C1301 C1297 1.495 . S
C1301 H1307 0.959 . S
C1301 H1308 0.961 . S
C1301 H1309 0.960 . S
C1302 C1300 1.381 . S
C1302 C1303 1.394 . S
C1302 H1310 0.930 . S
C1303 C1302 1.394 . S
C1303 C1304 1.383 . S
C1303 H1311 0.929 . S
C1304 C1303 1.383 . S
C1304 C1305 1.377 . S
C1305 H1289 0.930 . S
C1305 C1304 1.377 . S
C1305 C1306 1.379 . S
C1306 H1290 0.931 . S
C1306 C1300 1.383 . S
C1306 C1305 1.379 . S
H1307 C1301 0.959 . S
H1308 C1301 0.961 . S
H1309 C1301 0.960 . S
H1310 C1302 0.930 . S
H1311 C1303 0.929 . S
C457 C1 1.320 . S
C476 C303 1.293 . S
C493 C67 1.253 . S
C512 C343 1.241 . S
C548 C377 2.133 . S
C529 C97 2.163 . S
C565 C133 2.647 . S
C584 C418 2.594 . S
C620 C338 1.426 . S
C601 C25 1.417 . S
C656 C298 2.172 . S
C637 C37 2.132 . S
C692 C426 1.432 . S
C673 C103 1.463 . S
C728 C387 1.765 . S
C709 C109 1.804 . S
C745 C31 1.203 . S
C764 C423 1.200 . S
C800 C346 1.886 . S
C781 C73 1.960 . S
C817 C139 2.473 . S
C836 C306 2.410 . S
C853 C61 1.550 . S
C872 C374 1.581 . S
C908 C294 1.294 . S
C889 C175 1.296 . S
C925 C181 1.238 . S
C944 C334 1.242 . S
C961 C247 2.170 . S
C980 C386 2.150 . S
C997 C277 2.630 . S
C1016 C427 2.600 . S
C1033 C145 1.375 . S
C1052 C347 1.394 . S
C1088 C307 2.179 . S
C1069 C211 2.136 . S
C1124 C417 1.444 . S
C1105 C217 1.432 . S
C1160 C378 1.794 . S
C1141 C283 1.808 . S
C1177 C169 1.166 . S
C1196 C414 1.173 . S
C1232 C337 1.900 . S
C1213 C241 1.957 . S
C1268 C297 2.402 . S
C1249 C253 2.474 . S
C1285 C205 1.572 . S
C1304 C383 1.587 . S
