# Generated by pormake.
# Topology ana-f, (3,3)-cn, num edge types: 1
# Building blocks:
#     Node 0, Type 0, BuildingBlock: WUSLED_clean_sbu_0, # of connection points: 3
#     Node 1, Type 0, BuildingBlock: WUSLED_clean_sbu_0, # of connection points: 3
#     Node 2, Type 0, BuildingBlock: WUSLED_clean_sbu_0, # of connection points: 3
#     Node 3, Type 0, BuildingBlock: WUSLED_clean_sbu_0, # of connection points: 3
#     Node 4, Type 0, BuildingBlock: WUSLED_clean_sbu_0, # of connection points: 3
#     Node 5, Type 0, BuildingBlock: WUSLED_clean_sbu_0, # of connection points: 3
#     Node 6, Type 0, BuildingBlock: WUSLED_clean_sbu_0, # of connection points: 3
#     Node 7, Type 0, BuildingBlock: WUSLED_clean_sbu_0, # of connection points: 3
#     Node 8, Type 0, BuildingBlock: WUSLED_clean_sbu_0, # of connection points: 3
#     Node 9, Type 0, BuildingBlock: WUSLED_clean_sbu_0, # of connection points: 3
#     Node 10, Type 0, BuildingBlock: WUSLED_clean_sbu_0, # of connection points: 3
#     Node 11, Type 0, BuildingBlock: WUSLED_clean_sbu_0, # of connection points: 3
#     Node 12, Type 0, BuildingBlock: WUSLED_clean_sbu_0, # of connection points: 3
#     Node 13, Type 0, BuildingBlock: WUSLED_clean_sbu_0, # of connection points: 3
#     Node 14, Type 0, BuildingBlock: WUSLED_clean_sbu_0, # of connection points: 3
#     Node 15, Type 0, BuildingBlock: WUSLED_clean_sbu_0, # of connection points: 3
#     Node 16, Type 0, BuildingBlock: WUSLED_clean_sbu_0, # of connection points: 3
#     Node 17, Type 0, BuildingBlock: WUSLED_clean_sbu_0, # of connection points: 3
#     Node 18, Type 0, BuildingBlock: WUSLED_clean_sbu_0, # of connection points: 3
#     Node 19, Type 0, BuildingBlock: WUSLED_clean_sbu_0, # of connection points: 3
#     Node 20, Type 0, BuildingBlock: WUSLED_clean_sbu_0, # of connection points: 3
#     Node 21, Type 0, BuildingBlock: WUSLED_clean_sbu_0, # of connection points: 3
#     Node 22, Type 0, BuildingBlock: WUSLED_clean_sbu_0, # of connection points: 3
#     Node 23, Type 0, BuildingBlock: WUSLED_clean_sbu_0, # of connection points: 3
#     Node 24, Type 0, BuildingBlock: WUSLED_clean_sbu_0, # of connection points: 3
#     Node 25, Type 0, BuildingBlock: WUSLED_clean_sbu_0, # of connection points: 3
#     Node 26, Type 0, BuildingBlock: WUSLED_clean_sbu_0, # of connection points: 3
#     Node 27, Type 0, BuildingBlock: WUSLED_clean_sbu_0, # of connection points: 3
#     Node 28, Type 0, BuildingBlock: WUSLED_clean_sbu_0, # of connection points: 3
#     Node 29, Type 0, BuildingBlock: WUSLED_clean_sbu_0, # of connection points: 3
#     Node 30, Type 0, BuildingBlock: WUSLED_clean_sbu_0, # of connection points: 3
#     Node 31, Type 0, BuildingBlock: WUSLED_clean_sbu_0, # of connection points: 3
#     Node 32, Type 0, BuildingBlock: WUSLED_clean_sbu_0, # of connection points: 3
#     Node 33, Type 0, BuildingBlock: WUSLED_clean_sbu_0, # of connection points: 3
#     Node 34, Type 0, BuildingBlock: WUSLED_clean_sbu_0, # of connection points: 3
#     Node 35, Type 0, BuildingBlock: WUSLED_clean_sbu_0, # of connection points: 3
#     Node 36, Type 0, BuildingBlock: WUSLED_clean_sbu_0, # of connection points: 3
#     Node 37, Type 0, BuildingBlock: WUSLED_clean_sbu_0, # of connection points: 3
#     Node 38, Type 0, BuildingBlock: WUSLED_clean_sbu_0, # of connection points: 3
#     Node 39, Type 0, BuildingBlock: WUSLED_clean_sbu_0, # of connection points: 3
#     Node 40, Type 0, BuildingBlock: WUSLED_clean_sbu_0, # of connection points: 3
#     Node 41, Type 0, BuildingBlock: WUSLED_clean_sbu_0, # of connection points: 3
#     Node 42, Type 0, BuildingBlock: WUSLED_clean_sbu_0, # of connection points: 3
#     Node 43, Type 0, BuildingBlock: WUSLED_clean_sbu_0, # of connection points: 3
#     Node 44, Type 0, BuildingBlock: WUSLED_clean_sbu_0, # of connection points: 3
#     Node 45, Type 0, BuildingBlock: WUSLED_clean_sbu_0, # of connection points: 3
#     Node 46, Type 0, BuildingBlock: WUSLED_clean_sbu_0, # of connection points: 3
#     Node 47, Type 0, BuildingBlock: WUSLED_clean_sbu_0, # of connection points: 3
#     Node 48, Type 0, BuildingBlock: WUSLED_clean_sbu_0, # of connection points: 3
#     Node 49, Type 0, BuildingBlock: WUSLED_clean_sbu_0, # of connection points: 3
#     Node 50, Type 0, BuildingBlock: WUSLED_clean_sbu_0, # of connection points: 3
#     Node 51, Type 0, BuildingBlock: WUSLED_clean_sbu_0, # of connection points: 3
#     Node 52, Type 0, BuildingBlock: WUSLED_clean_sbu_0, # of connection points: 3
#     Node 53, Type 0, BuildingBlock: WUSLED_clean_sbu_0, # of connection points: 3
#     Node 54, Type 0, BuildingBlock: WUSLED_clean_sbu_0, # of connection points: 3
#     Node 55, Type 0, BuildingBlock: WUSLED_clean_sbu_0, # of connection points: 3
#     Node 56, Type 0, BuildingBlock: WUSLED_clean_sbu_0, # of connection points: 3
#     Node 57, Type 0, BuildingBlock: WUSLED_clean_sbu_0, # of connection points: 3
#     Node 58, Type 0, BuildingBlock: WUSLED_clean_sbu_0, # of connection points: 3
#     Node 59, Type 0, BuildingBlock: WUSLED_clean_sbu_0, # of connection points: 3
#     Node 60, Type 0, BuildingBlock: WUSLED_clean_sbu_0, # of connection points: 3
#     Node 61, Type 0, BuildingBlock: WUSLED_clean_sbu_0, # of connection points: 3
#     Node 62, Type 0, BuildingBlock: WUSLED_clean_sbu_0, # of connection points: 3
#     Node 63, Type 0, BuildingBlock: WUSLED_clean_sbu_0, # of connection points: 3
#     Node 64, Type 0, BuildingBlock: WUSLED_clean_sbu_0, # of connection points: 3
#     Node 65, Type 0, BuildingBlock: WUSLED_clean_sbu_0, # of connection points: 3
#     Node 66, Type 0, BuildingBlock: WUSLED_clean_sbu_0, # of connection points: 3
#     Node 67, Type 0, BuildingBlock: WUSLED_clean_sbu_0, # of connection points: 3
#     Node 68, Type 0, BuildingBlock: WUSLED_clean_sbu_0, # of connection points: 3
#     Node 69, Type 0, BuildingBlock: WUSLED_clean_sbu_0, # of connection points: 3
#     Node 70, Type 0, BuildingBlock: WUSLED_clean_sbu_0, # of connection points: 3
#     Node 71, Type 0, BuildingBlock: WUSLED_clean_sbu_0, # of connection points: 3
#     Node 72, Type 0, BuildingBlock: WUSLED_clean_sbu_0, # of connection points: 3
#     Node 73, Type 0, BuildingBlock: WUSLED_clean_sbu_0, # of connection points: 3
#     Node 74, Type 0, BuildingBlock: WUSLED_clean_sbu_0, # of connection points: 3
#     Node 75, Type 0, BuildingBlock: WUSLED_clean_sbu_0, # of connection points: 3
#     Node 76, Type 0, BuildingBlock: WUSLED_clean_sbu_0, # of connection points: 3
#     Node 77, Type 0, BuildingBlock: WUSLED_clean_sbu_0, # of connection points: 3
#     Node 78, Type 0, BuildingBlock: WUSLED_clean_sbu_0, # of connection points: 3
#     Node 79, Type 0, BuildingBlock: WUSLED_clean_sbu_0, # of connection points: 3
#     Node 80, Type 0, BuildingBlock: WUSLED_clean_sbu_0, # of connection points: 3
#     Node 81, Type 0, BuildingBlock: WUSLED_clean_sbu_0, # of connection points: 3
#     Node 82, Type 0, BuildingBlock: WUSLED_clean_sbu_0, # of connection points: 3
#     Node 83, Type 0, BuildingBlock: WUSLED_clean_sbu_0, # of connection points: 3
#     Node 84, Type 0, BuildingBlock: WUSLED_clean_sbu_0, # of connection points: 3
#     Node 85, Type 0, BuildingBlock: WUSLED_clean_sbu_0, # of connection points: 3
#     Node 86, Type 0, BuildingBlock: WUSLED_clean_sbu_0, # of connection points: 3
#     Node 87, Type 0, BuildingBlock: WUSLED_clean_sbu_0, # of connection points: 3
#     Node 88, Type 0, BuildingBlock: WUSLED_clean_sbu_0, # of connection points: 3
#     Node 89, Type 0, BuildingBlock: WUSLED_clean_sbu_0, # of connection points: 3
#     Node 90, Type 0, BuildingBlock: WUSLED_clean_sbu_0, # of connection points: 3
#     Node 91, Type 0, BuildingBlock: WUSLED_clean_sbu_0, # of connection points: 3
#     Node 92, Type 0, BuildingBlock: WUSLED_clean_sbu_0, # of connection points: 3
#     Node 93, Type 0, BuildingBlock: WUSLED_clean_sbu_0, # of connection points: 3
#     Node 94, Type 0, BuildingBlock: WUSLED_clean_sbu_0, # of connection points: 3
#     Node 95, Type 0, BuildingBlock: WUSLED_clean_sbu_0, # of connection points: 3
#     Node 96, Type 1, BuildingBlock: BELTOD_clean_linker_0, # of connection points: 3
#     Node 97, Type 1, BuildingBlock: BELTOD_clean_linker_0, # of connection points: 3
#     Node 98, Type 1, BuildingBlock: BELTOD_clean_linker_0, # of connection points: 3
#     Node 99, Type 1, BuildingBlock: BELTOD_clean_linker_0, # of connection points: 3
#     Node 100, Type 1, BuildingBlock: BELTOD_clean_linker_0, # of connection points: 3
#     Node 101, Type 1, BuildingBlock: BELTOD_clean_linker_0, # of connection points: 3
#     Node 102, Type 1, BuildingBlock: BELTOD_clean_linker_0, # of connection points: 3
#     Node 103, Type 1, BuildingBlock: BELTOD_clean_linker_0, # of connection points: 3
#     Node 104, Type 1, BuildingBlock: BELTOD_clean_linker_0, # of connection points: 3
#     Node 105, Type 1, BuildingBlock: BELTOD_clean_linker_0, # of connection points: 3
#     Node 106, Type 1, BuildingBlock: BELTOD_clean_linker_0, # of connection points: 3
#     Node 107, Type 1, BuildingBlock: BELTOD_clean_linker_0, # of connection points: 3
#     Node 108, Type 1, BuildingBlock: BELTOD_clean_linker_0, # of connection points: 3
#     Node 109, Type 1, BuildingBlock: BELTOD_clean_linker_0, # of connection points: 3
#     Node 110, Type 1, BuildingBlock: BELTOD_clean_linker_0, # of connection points: 3
#     Node 111, Type 1, BuildingBlock: BELTOD_clean_linker_0, # of connection points: 3
#     Node 112, Type 1, BuildingBlock: BELTOD_clean_linker_0, # of connection points: 3
#     Node 113, Type 1, BuildingBlock: BELTOD_clean_linker_0, # of connection points: 3
#     Node 114, Type 1, BuildingBlock: BELTOD_clean_linker_0, # of connection points: 3
#     Node 115, Type 1, BuildingBlock: BELTOD_clean_linker_0, # of connection points: 3
#     Node 116, Type 1, BuildingBlock: BELTOD_clean_linker_0, # of connection points: 3
#     Node 117, Type 1, BuildingBlock: BELTOD_clean_linker_0, # of connection points: 3
#     Node 118, Type 1, BuildingBlock: BELTOD_clean_linker_0, # of connection points: 3
#     Node 119, Type 1, BuildingBlock: BELTOD_clean_linker_0, # of connection points: 3
#     Node 120, Type 1, BuildingBlock: BELTOD_clean_linker_0, # of connection points: 3
#     Node 121, Type 1, BuildingBlock: BELTOD_clean_linker_0, # of connection points: 3
#     Node 122, Type 1, BuildingBlock: BELTOD_clean_linker_0, # of connection points: 3
#     Node 123, Type 1, BuildingBlock: BELTOD_clean_linker_0, # of connection points: 3
#     Node 124, Type 1, BuildingBlock: BELTOD_clean_linker_0, # of connection points: 3
#     Node 125, Type 1, BuildingBlock: BELTOD_clean_linker_0, # of connection points: 3
#     Node 126, Type 1, BuildingBlock: BELTOD_clean_linker_0, # of connection points: 3
#     Node 127, Type 1, BuildingBlock: BELTOD_clean_linker_0, # of connection points: 3
#     Node 128, Type 1, BuildingBlock: BELTOD_clean_linker_0, # of connection points: 3
#     Node 129, Type 1, BuildingBlock: BELTOD_clean_linker_0, # of connection points: 3
#     Node 130, Type 1, BuildingBlock: BELTOD_clean_linker_0, # of connection points: 3
#     Node 131, Type 1, BuildingBlock: BELTOD_clean_linker_0, # of connection points: 3
#     Node 132, Type 1, BuildingBlock: BELTOD_clean_linker_0, # of connection points: 3
#     Node 133, Type 1, BuildingBlock: BELTOD_clean_linker_0, # of connection points: 3
#     Node 134, Type 1, BuildingBlock: BELTOD_clean_linker_0, # of connection points: 3
#     Node 135, Type 1, BuildingBlock: BELTOD_clean_linker_0, # of connection points: 3
#     Node 136, Type 1, BuildingBlock: BELTOD_clean_linker_0, # of connection points: 3
#     Node 137, Type 1, BuildingBlock: BELTOD_clean_linker_0, # of connection points: 3
#     Node 138, Type 1, BuildingBlock: BELTOD_clean_linker_0, # of connection points: 3
#     Node 139, Type 1, BuildingBlock: BELTOD_clean_linker_0, # of connection points: 3
#     Node 140, Type 1, BuildingBlock: BELTOD_clean_linker_0, # of connection points: 3
#     Node 141, Type 1, BuildingBlock: BELTOD_clean_linker_0, # of connection points: 3
#     Node 142, Type 1, BuildingBlock: BELTOD_clean_linker_0, # of connection points: 3
#     Node 143, Type 1, BuildingBlock: BELTOD_clean_linker_0, # of connection points: 3
#     Node 144, Type 1, BuildingBlock: BELTOD_clean_linker_0, # of connection points: 3
#     Node 145, Type 1, BuildingBlock: BELTOD_clean_linker_0, # of connection points: 3
#     Node 146, Type 1, BuildingBlock: BELTOD_clean_linker_0, # of connection points: 3
#     Node 147, Type 1, BuildingBlock: BELTOD_clean_linker_0, # of connection points: 3
#     Node 148, Type 1, BuildingBlock: BELTOD_clean_linker_0, # of connection points: 3
#     Node 149, Type 1, BuildingBlock: BELTOD_clean_linker_0, # of connection points: 3
#     Node 150, Type 1, BuildingBlock: BELTOD_clean_linker_0, # of connection points: 3
#     Node 151, Type 1, BuildingBlock: BELTOD_clean_linker_0, # of connection points: 3
#     Node 152, Type 1, BuildingBlock: BELTOD_clean_linker_0, # of connection points: 3
#     Node 153, Type 1, BuildingBlock: BELTOD_clean_linker_0, # of connection points: 3
#     Node 154, Type 1, BuildingBlock: BELTOD_clean_linker_0, # of connection points: 3
#     Node 155, Type 1, BuildingBlock: BELTOD_clean_linker_0, # of connection points: 3
#     Node 156, Type 1, BuildingBlock: BELTOD_clean_linker_0, # of connection points: 3
#     Node 157, Type 1, BuildingBlock: BELTOD_clean_linker_0, # of connection points: 3
#     Node 158, Type 1, BuildingBlock: BELTOD_clean_linker_0, # of connection points: 3
#     Node 159, Type 1, BuildingBlock: BELTOD_clean_linker_0, # of connection points: 3
#     Node 160, Type 1, BuildingBlock: BELTOD_clean_linker_0, # of connection points: 3
#     Node 161, Type 1, BuildingBlock: BELTOD_clean_linker_0, # of connection points: 3
#     Node 162, Type 1, BuildingBlock: BELTOD_clean_linker_0, # of connection points: 3
#     Node 163, Type 1, BuildingBlock: BELTOD_clean_linker_0, # of connection points: 3
#     Node 164, Type 1, BuildingBlock: BELTOD_clean_linker_0, # of connection points: 3
#     Node 165, Type 1, BuildingBlock: BELTOD_clean_linker_0, # of connection points: 3
#     Node 166, Type 1, BuildingBlock: BELTOD_clean_linker_0, # of connection points: 3
#     Node 167, Type 1, BuildingBlock: BELTOD_clean_linker_0, # of connection points: 3
#     Node 168, Type 1, BuildingBlock: BELTOD_clean_linker_0, # of connection points: 3
#     Node 169, Type 1, BuildingBlock: BELTOD_clean_linker_0, # of connection points: 3
#     Node 170, Type 1, BuildingBlock: BELTOD_clean_linker_0, # of connection points: 3
#     Node 171, Type 1, BuildingBlock: BELTOD_clean_linker_0, # of connection points: 3
#     Node 172, Type 1, BuildingBlock: BELTOD_clean_linker_0, # of connection points: 3
#     Node 173, Type 1, BuildingBlock: BELTOD_clean_linker_0, # of connection points: 3
#     Node 174, Type 1, BuildingBlock: BELTOD_clean_linker_0, # of connection points: 3
#     Node 175, Type 1, BuildingBlock: BELTOD_clean_linker_0, # of connection points: 3
#     Node 176, Type 1, BuildingBlock: BELTOD_clean_linker_0, # of connection points: 3
#     Node 177, Type 1, BuildingBlock: BELTOD_clean_linker_0, # of connection points: 3
#     Node 178, Type 1, BuildingBlock: BELTOD_clean_linker_0, # of connection points: 3
#     Node 179, Type 1, BuildingBlock: BELTOD_clean_linker_0, # of connection points: 3
#     Node 180, Type 1, BuildingBlock: BELTOD_clean_linker_0, # of connection points: 3
#     Node 181, Type 1, BuildingBlock: BELTOD_clean_linker_0, # of connection points: 3
#     Node 182, Type 1, BuildingBlock: BELTOD_clean_linker_0, # of connection points: 3
#     Node 183, Type 1, BuildingBlock: BELTOD_clean_linker_0, # of connection points: 3
#     Node 184, Type 1, BuildingBlock: BELTOD_clean_linker_0, # of connection points: 3
#     Node 185, Type 1, BuildingBlock: BELTOD_clean_linker_0, # of connection points: 3
#     Node 186, Type 1, BuildingBlock: BELTOD_clean_linker_0, # of connection points: 3
#     Node 187, Type 1, BuildingBlock: BELTOD_clean_linker_0, # of connection points: 3
#     Node 188, Type 1, BuildingBlock: BELTOD_clean_linker_0, # of connection points: 3
#     Node 189, Type 1, BuildingBlock: BELTOD_clean_linker_0, # of connection points: 3
#     Node 190, Type 1, BuildingBlock: BELTOD_clean_linker_0, # of connection points: 3
#     Node 191, Type 1, BuildingBlock: BELTOD_clean_linker_0, # of connection points: 3
#     Edge 192, Type (0, 1), BuildingBlock: AJUNOK_clean_linker_0, # of connection points: 2
#     Edge 193, Type (0, 1), BuildingBlock: AJUNOK_clean_linker_0, # of connection points: 2
#     Edge 194, Type (0, 1), BuildingBlock: AJUNOK_clean_linker_0, # of connection points: 2
#     Edge 195, Type (0, 1), BuildingBlock: AJUNOK_clean_linker_0, # of connection points: 2
#     Edge 196, Type (0, 1), BuildingBlock: AJUNOK_clean_linker_0, # of connection points: 2
#     Edge 197, Type (0, 1), BuildingBlock: AJUNOK_clean_linker_0, # of connection points: 2
#     Edge 198, Type (0, 1), BuildingBlock: AJUNOK_clean_linker_0, # of connection points: 2
#     Edge 199, Type (0, 1), BuildingBlock: AJUNOK_clean_linker_0, # of connection points: 2
#     Edge 200, Type (0, 1), BuildingBlock: AJUNOK_clean_linker_0, # of connection points: 2
#     Edge 201, Type (0, 1), BuildingBlock: AJUNOK_clean_linker_0, # of connection points: 2
#     Edge 202, Type (0, 1), BuildingBlock: AJUNOK_clean_linker_0, # of connection points: 2
#     Edge 203, Type (0, 1), BuildingBlock: AJUNOK_clean_linker_0, # of connection points: 2
#     Edge 204, Type (0, 1), BuildingBlock: AJUNOK_clean_linker_0, # of connection points: 2
#     Edge 205, Type (0, 1), BuildingBlock: AJUNOK_clean_linker_0, # of connection points: 2
#     Edge 206, Type (0, 1), BuildingBlock: AJUNOK_clean_linker_0, # of connection points: 2
#     Edge 207, Type (0, 1), BuildingBlock: AJUNOK_clean_linker_0, # of connection points: 2
#     Edge 208, Type (0, 1), BuildingBlock: AJUNOK_clean_linker_0, # of connection points: 2
#     Edge 209, Type (0, 1), BuildingBlock: AJUNOK_clean_linker_0, # of connection points: 2
#     Edge 210, Type (0, 1), BuildingBlock: AJUNOK_clean_linker_0, # of connection points: 2
#     Edge 211, Type (0, 1), BuildingBlock: AJUNOK_clean_linker_0, # of connection points: 2
#     Edge 212, Type (0, 1), BuildingBlock: AJUNOK_clean_linker_0, # of connection points: 2
#     Edge 213, Type (0, 1), BuildingBlock: AJUNOK_clean_linker_0, # of connection points: 2
#     Edge 214, Type (0, 1), BuildingBlock: AJUNOK_clean_linker_0, # of connection points: 2
#     Edge 215, Type (0, 1), BuildingBlock: AJUNOK_clean_linker_0, # of connection points: 2
#     Edge 216, Type (0, 1), BuildingBlock: AJUNOK_clean_linker_0, # of connection points: 2
#     Edge 217, Type (0, 1), BuildingBlock: AJUNOK_clean_linker_0, # of connection points: 2
#     Edge 218, Type (0, 1), BuildingBlock: AJUNOK_clean_linker_0, # of connection points: 2
#     Edge 219, Type (0, 1), BuildingBlock: AJUNOK_clean_linker_0, # of connection points: 2
#     Edge 220, Type (0, 1), BuildingBlock: AJUNOK_clean_linker_0, # of connection points: 2
#     Edge 221, Type (0, 1), BuildingBlock: AJUNOK_clean_linker_0, # of connection points: 2
#     Edge 222, Type (0, 1), BuildingBlock: AJUNOK_clean_linker_0, # of connection points: 2
#     Edge 223, Type (0, 1), BuildingBlock: AJUNOK_clean_linker_0, # of connection points: 2
#     Edge 224, Type (0, 1), BuildingBlock: AJUNOK_clean_linker_0, # of connection points: 2
#     Edge 225, Type (0, 1), BuildingBlock: AJUNOK_clean_linker_0, # of connection points: 2
#     Edge 226, Type (0, 1), BuildingBlock: AJUNOK_clean_linker_0, # of connection points: 2
#     Edge 227, Type (0, 1), BuildingBlock: AJUNOK_clean_linker_0, # of connection points: 2
#     Edge 228, Type (0, 1), BuildingBlock: AJUNOK_clean_linker_0, # of connection points: 2
#     Edge 229, Type (0, 1), BuildingBlock: AJUNOK_clean_linker_0, # of connection points: 2
#     Edge 230, Type (0, 1), BuildingBlock: AJUNOK_clean_linker_0, # of connection points: 2
#     Edge 231, Type (0, 1), BuildingBlock: AJUNOK_clean_linker_0, # of connection points: 2
#     Edge 232, Type (0, 1), BuildingBlock: AJUNOK_clean_linker_0, # of connection points: 2
#     Edge 233, Type (0, 1), BuildingBlock: AJUNOK_clean_linker_0, # of connection points: 2
#     Edge 234, Type (0, 1), BuildingBlock: AJUNOK_clean_linker_0, # of connection points: 2
#     Edge 235, Type (0, 1), BuildingBlock: AJUNOK_clean_linker_0, # of connection points: 2
#     Edge 236, Type (0, 1), BuildingBlock: AJUNOK_clean_linker_0, # of connection points: 2
#     Edge 237, Type (0, 1), BuildingBlock: AJUNOK_clean_linker_0, # of connection points: 2
#     Edge 238, Type (0, 1), BuildingBlock: AJUNOK_clean_linker_0, # of connection points: 2
#     Edge 239, Type (0, 1), BuildingBlock: AJUNOK_clean_linker_0, # of connection points: 2
#     Edge 240, Type (0, 1), BuildingBlock: AJUNOK_clean_linker_0, # of connection points: 2
#     Edge 241, Type (0, 1), BuildingBlock: AJUNOK_clean_linker_0, # of connection points: 2
#     Edge 242, Type (0, 1), BuildingBlock: AJUNOK_clean_linker_0, # of connection points: 2
#     Edge 243, Type (0, 1), BuildingBlock: AJUNOK_clean_linker_0, # of connection points: 2
#     Edge 244, Type (0, 1), BuildingBlock: AJUNOK_clean_linker_0, # of connection points: 2
#     Edge 245, Type (0, 1), BuildingBlock: AJUNOK_clean_linker_0, # of connection points: 2
#     Edge 246, Type (0, 1), BuildingBlock: AJUNOK_clean_linker_0, # of connection points: 2
#     Edge 247, Type (0, 1), BuildingBlock: AJUNOK_clean_linker_0, # of connection points: 2
#     Edge 248, Type (0, 1), BuildingBlock: AJUNOK_clean_linker_0, # of connection points: 2
#     Edge 249, Type (0, 1), BuildingBlock: AJUNOK_clean_linker_0, # of connection points: 2
#     Edge 250, Type (0, 1), BuildingBlock: AJUNOK_clean_linker_0, # of connection points: 2
#     Edge 251, Type (0, 1), BuildingBlock: AJUNOK_clean_linker_0, # of connection points: 2
#     Edge 252, Type (0, 1), BuildingBlock: AJUNOK_clean_linker_0, # of connection points: 2
#     Edge 253, Type (0, 1), BuildingBlock: AJUNOK_clean_linker_0, # of connection points: 2
#     Edge 254, Type (0, 1), BuildingBlock: AJUNOK_clean_linker_0, # of connection points: 2
#     Edge 255, Type (0, 1), BuildingBlock: AJUNOK_clean_linker_0, # of connection points: 2
#     Edge 256, Type (0, 1), BuildingBlock: AJUNOK_clean_linker_0, # of connection points: 2
#     Edge 257, Type (0, 1), BuildingBlock: AJUNOK_clean_linker_0, # of connection points: 2
#     Edge 258, Type (0, 1), BuildingBlock: AJUNOK_clean_linker_0, # of connection points: 2
#     Edge 259, Type (0, 1), BuildingBlock: AJUNOK_clean_linker_0, # of connection points: 2
#     Edge 260, Type (0, 1), BuildingBlock: AJUNOK_clean_linker_0, # of connection points: 2
#     Edge 261, Type (0, 1), BuildingBlock: AJUNOK_clean_linker_0, # of connection points: 2
#     Edge 262, Type (0, 1), BuildingBlock: AJUNOK_clean_linker_0, # of connection points: 2
#     Edge 263, Type (0, 1), BuildingBlock: AJUNOK_clean_linker_0, # of connection points: 2
#     Edge 264, Type (0, 1), BuildingBlock: AJUNOK_clean_linker_0, # of connection points: 2
#     Edge 265, Type (0, 1), BuildingBlock: AJUNOK_clean_linker_0, # of connection points: 2
#     Edge 266, Type (0, 1), BuildingBlock: AJUNOK_clean_linker_0, # of connection points: 2
#     Edge 267, Type (0, 1), BuildingBlock: AJUNOK_clean_linker_0, # of connection points: 2
#     Edge 268, Type (0, 1), BuildingBlock: AJUNOK_clean_linker_0, # of connection points: 2
#     Edge 269, Type (0, 1), BuildingBlock: AJUNOK_clean_linker_0, # of connection points: 2
#     Edge 270, Type (0, 1), BuildingBlock: AJUNOK_clean_linker_0, # of connection points: 2
#     Edge 271, Type (0, 1), BuildingBlock: AJUNOK_clean_linker_0, # of connection points: 2
#     Edge 272, Type (0, 1), BuildingBlock: AJUNOK_clean_linker_0, # of connection points: 2
#     Edge 273, Type (0, 1), BuildingBlock: AJUNOK_clean_linker_0, # of connection points: 2
#     Edge 274, Type (0, 1), BuildingBlock: AJUNOK_clean_linker_0, # of connection points: 2
#     Edge 275, Type (0, 1), BuildingBlock: AJUNOK_clean_linker_0, # of connection points: 2
#     Edge 276, Type (0, 1), BuildingBlock: AJUNOK_clean_linker_0, # of connection points: 2
#     Edge 277, Type (0, 1), BuildingBlock: AJUNOK_clean_linker_0, # of connection points: 2
#     Edge 278, Type (0, 1), BuildingBlock: AJUNOK_clean_linker_0, # of connection points: 2
#     Edge 279, Type (0, 1), BuildingBlock: AJUNOK_clean_linker_0, # of connection points: 2
#     Edge 280, Type (0, 1), BuildingBlock: AJUNOK_clean_linker_0, # of connection points: 2
#     Edge 281, Type (0, 1), BuildingBlock: AJUNOK_clean_linker_0, # of connection points: 2
#     Edge 282, Type (0, 1), BuildingBlock: AJUNOK_clean_linker_0, # of connection points: 2
#     Edge 283, Type (0, 1), BuildingBlock: AJUNOK_clean_linker_0, # of connection points: 2
#     Edge 284, Type (0, 1), BuildingBlock: AJUNOK_clean_linker_0, # of connection points: 2
#     Edge 285, Type (0, 1), BuildingBlock: AJUNOK_clean_linker_0, # of connection points: 2
#     Edge 286, Type (0, 1), BuildingBlock: AJUNOK_clean_linker_0, # of connection points: 2
#     Edge 287, Type (0, 1), BuildingBlock: AJUNOK_clean_linker_0, # of connection points: 2
#     Edge 288, Type (0, 1), BuildingBlock: AJUNOK_clean_linker_0, # of connection points: 2
#     Edge 289, Type (0, 1), BuildingBlock: AJUNOK_clean_linker_0, # of connection points: 2
#     Edge 290, Type (0, 1), BuildingBlock: AJUNOK_clean_linker_0, # of connection points: 2
#     Edge 291, Type (0, 1), BuildingBlock: AJUNOK_clean_linker_0, # of connection points: 2
#     Edge 292, Type (0, 1), BuildingBlock: AJUNOK_clean_linker_0, # of connection points: 2
#     Edge 293, Type (0, 1), BuildingBlock: AJUNOK_clean_linker_0, # of connection points: 2
#     Edge 294, Type (0, 1), BuildingBlock: AJUNOK_clean_linker_0, # of connection points: 2
#     Edge 295, Type (0, 1), BuildingBlock: AJUNOK_clean_linker_0, # of connection points: 2
#     Edge 296, Type (0, 1), BuildingBlock: AJUNOK_clean_linker_0, # of connection points: 2
#     Edge 297, Type (0, 1), BuildingBlock: AJUNOK_clean_linker_0, # of connection points: 2
#     Edge 298, Type (0, 1), BuildingBlock: AJUNOK_clean_linker_0, # of connection points: 2
#     Edge 299, Type (0, 1), BuildingBlock: AJUNOK_clean_linker_0, # of connection points: 2
#     Edge 300, Type (0, 1), BuildingBlock: AJUNOK_clean_linker_0, # of connection points: 2
#     Edge 301, Type (0, 1), BuildingBlock: AJUNOK_clean_linker_0, # of connection points: 2
#     Edge 302, Type (0, 1), BuildingBlock: AJUNOK_clean_linker_0, # of connection points: 2
#     Edge 303, Type (0, 1), BuildingBlock: AJUNOK_clean_linker_0, # of connection points: 2
#     Edge 304, Type (0, 1), BuildingBlock: AJUNOK_clean_linker_0, # of connection points: 2
#     Edge 305, Type (0, 1), BuildingBlock: AJUNOK_clean_linker_0, # of connection points: 2
#     Edge 306, Type (0, 1), BuildingBlock: AJUNOK_clean_linker_0, # of connection points: 2
#     Edge 307, Type (0, 1), BuildingBlock: AJUNOK_clean_linker_0, # of connection points: 2
#     Edge 308, Type (0, 1), BuildingBlock: AJUNOK_clean_linker_0, # of connection points: 2
#     Edge 309, Type (0, 1), BuildingBlock: AJUNOK_clean_linker_0, # of connection points: 2
#     Edge 310, Type (0, 1), BuildingBlock: AJUNOK_clean_linker_0, # of connection points: 2
#     Edge 311, Type (0, 1), BuildingBlock: AJUNOK_clean_linker_0, # of connection points: 2
#     Edge 312, Type (0, 1), BuildingBlock: AJUNOK_clean_linker_0, # of connection points: 2
#     Edge 313, Type (0, 1), BuildingBlock: AJUNOK_clean_linker_0, # of connection points: 2
#     Edge 314, Type (0, 1), BuildingBlock: AJUNOK_clean_linker_0, # of connection points: 2
#     Edge 315, Type (0, 1), BuildingBlock: AJUNOK_clean_linker_0, # of connection points: 2
#     Edge 316, Type (0, 1), BuildingBlock: AJUNOK_clean_linker_0, # of connection points: 2
#     Edge 317, Type (0, 1), BuildingBlock: AJUNOK_clean_linker_0, # of connection points: 2
#     Edge 318, Type (0, 1), BuildingBlock: AJUNOK_clean_linker_0, # of connection points: 2
#     Edge 319, Type (0, 1), BuildingBlock: AJUNOK_clean_linker_0, # of connection points: 2
#     Edge 320, Type (0, 1), BuildingBlock: AJUNOK_clean_linker_0, # of connection points: 2
#     Edge 321, Type (0, 1), BuildingBlock: AJUNOK_clean_linker_0, # of connection points: 2
#     Edge 322, Type (0, 1), BuildingBlock: AJUNOK_clean_linker_0, # of connection points: 2
#     Edge 323, Type (0, 1), BuildingBlock: AJUNOK_clean_linker_0, # of connection points: 2
#     Edge 324, Type (0, 1), BuildingBlock: AJUNOK_clean_linker_0, # of connection points: 2
#     Edge 325, Type (0, 1), BuildingBlock: AJUNOK_clean_linker_0, # of connection points: 2
#     Edge 326, Type (0, 1), BuildingBlock: AJUNOK_clean_linker_0, # of connection points: 2
#     Edge 327, Type (0, 1), BuildingBlock: AJUNOK_clean_linker_0, # of connection points: 2
#     Edge 328, Type (0, 1), BuildingBlock: AJUNOK_clean_linker_0, # of connection points: 2
#     Edge 329, Type (0, 1), BuildingBlock: AJUNOK_clean_linker_0, # of connection points: 2
#     Edge 330, Type (0, 1), BuildingBlock: AJUNOK_clean_linker_0, # of connection points: 2
#     Edge 331, Type (0, 1), BuildingBlock: AJUNOK_clean_linker_0, # of connection points: 2
#     Edge 332, Type (0, 1), BuildingBlock: AJUNOK_clean_linker_0, # of connection points: 2
#     Edge 333, Type (0, 1), BuildingBlock: AJUNOK_clean_linker_0, # of connection points: 2
#     Edge 334, Type (0, 1), BuildingBlock: AJUNOK_clean_linker_0, # of connection points: 2
#     Edge 335, Type (0, 1), BuildingBlock: AJUNOK_clean_linker_0, # of connection points: 2
#     Edge 336, Type (0, 1), BuildingBlock: AJUNOK_clean_linker_0, # of connection points: 2
#     Edge 337, Type (0, 1), BuildingBlock: AJUNOK_clean_linker_0, # of connection points: 2
#     Edge 338, Type (0, 1), BuildingBlock: AJUNOK_clean_linker_0, # of connection points: 2
#     Edge 339, Type (0, 1), BuildingBlock: AJUNOK_clean_linker_0, # of connection points: 2
#     Edge 340, Type (0, 1), BuildingBlock: AJUNOK_clean_linker_0, # of connection points: 2
#     Edge 341, Type (0, 1), BuildingBlock: AJUNOK_clean_linker_0, # of connection points: 2
#     Edge 342, Type (0, 1), BuildingBlock: AJUNOK_clean_linker_0, # of connection points: 2
#     Edge 343, Type (0, 1), BuildingBlock: AJUNOK_clean_linker_0, # of connection points: 2
#     Edge 344, Type (0, 1), BuildingBlock: AJUNOK_clean_linker_0, # of connection points: 2
#     Edge 345, Type (0, 1), BuildingBlock: AJUNOK_clean_linker_0, # of connection points: 2
#     Edge 346, Type (0, 1), BuildingBlock: AJUNOK_clean_linker_0, # of connection points: 2
#     Edge 347, Type (0, 1), BuildingBlock: AJUNOK_clean_linker_0, # of connection points: 2
#     Edge 348, Type (0, 1), BuildingBlock: AJUNOK_clean_linker_0, # of connection points: 2
#     Edge 349, Type (0, 1), BuildingBlock: AJUNOK_clean_linker_0, # of connection points: 2
#     Edge 350, Type (0, 1), BuildingBlock: AJUNOK_clean_linker_0, # of connection points: 2
#     Edge 351, Type (0, 1), BuildingBlock: AJUNOK_clean_linker_0, # of connection points: 2
#     Edge 352, Type (0, 1), BuildingBlock: AJUNOK_clean_linker_0, # of connection points: 2
#     Edge 353, Type (0, 1), BuildingBlock: AJUNOK_clean_linker_0, # of connection points: 2
#     Edge 354, Type (0, 1), BuildingBlock: AJUNOK_clean_linker_0, # of connection points: 2
#     Edge 355, Type (0, 1), BuildingBlock: AJUNOK_clean_linker_0, # of connection points: 2
#     Edge 356, Type (0, 1), BuildingBlock: AJUNOK_clean_linker_0, # of connection points: 2
#     Edge 357, Type (0, 1), BuildingBlock: AJUNOK_clean_linker_0, # of connection points: 2
#     Edge 358, Type (0, 1), BuildingBlock: AJUNOK_clean_linker_0, # of connection points: 2
#     Edge 359, Type (0, 1), BuildingBlock: AJUNOK_clean_linker_0, # of connection points: 2
#     Edge 360, Type (0, 1), BuildingBlock: AJUNOK_clean_linker_0, # of connection points: 2
#     Edge 361, Type (0, 1), BuildingBlock: AJUNOK_clean_linker_0, # of connection points: 2
#     Edge 362, Type (0, 1), BuildingBlock: AJUNOK_clean_linker_0, # of connection points: 2
#     Edge 363, Type (0, 1), BuildingBlock: AJUNOK_clean_linker_0, # of connection points: 2
#     Edge 364, Type (0, 1), BuildingBlock: AJUNOK_clean_linker_0, # of connection points: 2
#     Edge 365, Type (0, 1), BuildingBlock: AJUNOK_clean_linker_0, # of connection points: 2
#     Edge 366, Type (0, 1), BuildingBlock: AJUNOK_clean_linker_0, # of connection points: 2
#     Edge 367, Type (0, 1), BuildingBlock: AJUNOK_clean_linker_0, # of connection points: 2
#     Edge 368, Type (0, 1), BuildingBlock: AJUNOK_clean_linker_0, # of connection points: 2
#     Edge 369, Type (0, 1), BuildingBlock: AJUNOK_clean_linker_0, # of connection points: 2
#     Edge 370, Type (0, 1), BuildingBlock: AJUNOK_clean_linker_0, # of connection points: 2
#     Edge 371, Type (0, 1), BuildingBlock: AJUNOK_clean_linker_0, # of connection points: 2
#     Edge 372, Type (0, 1), BuildingBlock: AJUNOK_clean_linker_0, # of connection points: 2
#     Edge 373, Type (0, 1), BuildingBlock: AJUNOK_clean_linker_0, # of connection points: 2
#     Edge 374, Type (0, 1), BuildingBlock: AJUNOK_clean_linker_0, # of connection points: 2
#     Edge 375, Type (0, 1), BuildingBlock: AJUNOK_clean_linker_0, # of connection points: 2
#     Edge 376, Type (0, 1), BuildingBlock: AJUNOK_clean_linker_0, # of connection points: 2
#     Edge 377, Type (0, 1), BuildingBlock: AJUNOK_clean_linker_0, # of connection points: 2
#     Edge 378, Type (0, 1), BuildingBlock: AJUNOK_clean_linker_0, # of connection points: 2
#     Edge 379, Type (0, 1), BuildingBlock: AJUNOK_clean_linker_0, # of connection points: 2
#     Edge 380, Type (0, 1), BuildingBlock: AJUNOK_clean_linker_0, # of connection points: 2
#     Edge 381, Type (0, 1), BuildingBlock: AJUNOK_clean_linker_0, # of connection points: 2
#     Edge 382, Type (0, 1), BuildingBlock: AJUNOK_clean_linker_0, # of connection points: 2
#     Edge 383, Type (0, 1), BuildingBlock: AJUNOK_clean_linker_0, # of connection points: 2
#     Edge 384, Type (0, 1), BuildingBlock: AJUNOK_clean_linker_0, # of connection points: 2
#     Edge 385, Type (0, 1), BuildingBlock: AJUNOK_clean_linker_0, # of connection points: 2
#     Edge 386, Type (0, 1), BuildingBlock: AJUNOK_clean_linker_0, # of connection points: 2
#     Edge 387, Type (0, 1), BuildingBlock: AJUNOK_clean_linker_0, # of connection points: 2
#     Edge 388, Type (0, 1), BuildingBlock: AJUNOK_clean_linker_0, # of connection points: 2
#     Edge 389, Type (0, 1), BuildingBlock: AJUNOK_clean_linker_0, # of connection points: 2
#     Edge 390, Type (0, 1), BuildingBlock: AJUNOK_clean_linker_0, # of connection points: 2
#     Edge 391, Type (0, 1), BuildingBlock: AJUNOK_clean_linker_0, # of connection points: 2
#     Edge 392, Type (0, 1), BuildingBlock: AJUNOK_clean_linker_0, # of connection points: 2
#     Edge 393, Type (0, 1), BuildingBlock: AJUNOK_clean_linker_0, # of connection points: 2
#     Edge 394, Type (0, 1), BuildingBlock: AJUNOK_clean_linker_0, # of connection points: 2
#     Edge 395, Type (0, 1), BuildingBlock: AJUNOK_clean_linker_0, # of connection points: 2
#     Edge 396, Type (0, 1), BuildingBlock: AJUNOK_clean_linker_0, # of connection points: 2
#     Edge 397, Type (0, 1), BuildingBlock: AJUNOK_clean_linker_0, # of connection points: 2
#     Edge 398, Type (0, 1), BuildingBlock: AJUNOK_clean_linker_0, # of connection points: 2
#     Edge 399, Type (0, 1), BuildingBlock: AJUNOK_clean_linker_0, # of connection points: 2
#     Edge 400, Type (0, 1), BuildingBlock: AJUNOK_clean_linker_0, # of connection points: 2
#     Edge 401, Type (0, 1), BuildingBlock: AJUNOK_clean_linker_0, # of connection points: 2
#     Edge 402, Type (0, 1), BuildingBlock: AJUNOK_clean_linker_0, # of connection points: 2
#     Edge 403, Type (0, 1), BuildingBlock: AJUNOK_clean_linker_0, # of connection points: 2
#     Edge 404, Type (0, 1), BuildingBlock: AJUNOK_clean_linker_0, # of connection points: 2
#     Edge 405, Type (0, 1), BuildingBlock: AJUNOK_clean_linker_0, # of connection points: 2
#     Edge 406, Type (0, 1), BuildingBlock: AJUNOK_clean_linker_0, # of connection points: 2
#     Edge 407, Type (0, 1), BuildingBlock: AJUNOK_clean_linker_0, # of connection points: 2
#     Edge 408, Type (0, 1), BuildingBlock: AJUNOK_clean_linker_0, # of connection points: 2
#     Edge 409, Type (0, 1), BuildingBlock: AJUNOK_clean_linker_0, # of connection points: 2
#     Edge 410, Type (0, 1), BuildingBlock: AJUNOK_clean_linker_0, # of connection points: 2
#     Edge 411, Type (0, 1), BuildingBlock: AJUNOK_clean_linker_0, # of connection points: 2
#     Edge 412, Type (0, 1), BuildingBlock: AJUNOK_clean_linker_0, # of connection points: 2
#     Edge 413, Type (0, 1), BuildingBlock: AJUNOK_clean_linker_0, # of connection points: 2
#     Edge 414, Type (0, 1), BuildingBlock: AJUNOK_clean_linker_0, # of connection points: 2
#     Edge 415, Type (0, 1), BuildingBlock: AJUNOK_clean_linker_0, # of connection points: 2
#     Edge 416, Type (0, 1), BuildingBlock: AJUNOK_clean_linker_0, # of connection points: 2
#     Edge 417, Type (0, 1), BuildingBlock: AJUNOK_clean_linker_0, # of connection points: 2
#     Edge 418, Type (0, 1), BuildingBlock: AJUNOK_clean_linker_0, # of connection points: 2
#     Edge 419, Type (0, 1), BuildingBlock: AJUNOK_clean_linker_0, # of connection points: 2
#     Edge 420, Type (0, 1), BuildingBlock: AJUNOK_clean_linker_0, # of connection points: 2
#     Edge 421, Type (0, 1), BuildingBlock: AJUNOK_clean_linker_0, # of connection points: 2
#     Edge 422, Type (0, 1), BuildingBlock: AJUNOK_clean_linker_0, # of connection points: 2
#     Edge 423, Type (0, 1), BuildingBlock: AJUNOK_clean_linker_0, # of connection points: 2
#     Edge 424, Type (0, 1), BuildingBlock: AJUNOK_clean_linker_0, # of connection points: 2
#     Edge 425, Type (0, 1), BuildingBlock: AJUNOK_clean_linker_0, # of connection points: 2
#     Edge 426, Type (0, 1), BuildingBlock: AJUNOK_clean_linker_0, # of connection points: 2
#     Edge 427, Type (0, 1), BuildingBlock: AJUNOK_clean_linker_0, # of connection points: 2
#     Edge 428, Type (0, 1), BuildingBlock: AJUNOK_clean_linker_0, # of connection points: 2
#     Edge 429, Type (0, 1), BuildingBlock: AJUNOK_clean_linker_0, # of connection points: 2
#     Edge 430, Type (0, 1), BuildingBlock: AJUNOK_clean_linker_0, # of connection points: 2
#     Edge 431, Type (0, 1), BuildingBlock: AJUNOK_clean_linker_0, # of connection points: 2
#     Edge 432, Type (0, 1), BuildingBlock: AJUNOK_clean_linker_0, # of connection points: 2
#     Edge 433, Type (0, 1), BuildingBlock: AJUNOK_clean_linker_0, # of connection points: 2
#     Edge 434, Type (0, 1), BuildingBlock: AJUNOK_clean_linker_0, # of connection points: 2
#     Edge 435, Type (0, 1), BuildingBlock: AJUNOK_clean_linker_0, # of connection points: 2
#     Edge 436, Type (0, 1), BuildingBlock: AJUNOK_clean_linker_0, # of connection points: 2
#     Edge 437, Type (0, 1), BuildingBlock: AJUNOK_clean_linker_0, # of connection points: 2
#     Edge 438, Type (0, 1), BuildingBlock: AJUNOK_clean_linker_0, # of connection points: 2
#     Edge 439, Type (0, 1), BuildingBlock: AJUNOK_clean_linker_0, # of connection points: 2
#     Edge 440, Type (0, 1), BuildingBlock: AJUNOK_clean_linker_0, # of connection points: 2
#     Edge 441, Type (0, 1), BuildingBlock: AJUNOK_clean_linker_0, # of connection points: 2
#     Edge 442, Type (0, 1), BuildingBlock: AJUNOK_clean_linker_0, # of connection points: 2
#     Edge 443, Type (0, 1), BuildingBlock: AJUNOK_clean_linker_0, # of connection points: 2
#     Edge 444, Type (0, 1), BuildingBlock: AJUNOK_clean_linker_0, # of connection points: 2
#     Edge 445, Type (0, 1), BuildingBlock: AJUNOK_clean_linker_0, # of connection points: 2
#     Edge 446, Type (0, 1), BuildingBlock: AJUNOK_clean_linker_0, # of connection points: 2
#     Edge 447, Type (0, 1), BuildingBlock: AJUNOK_clean_linker_0, # of connection points: 2
#     Edge 448, Type (0, 1), BuildingBlock: AJUNOK_clean_linker_0, # of connection points: 2
#     Edge 449, Type (0, 1), BuildingBlock: AJUNOK_clean_linker_0, # of connection points: 2
#     Edge 450, Type (0, 1), BuildingBlock: AJUNOK_clean_linker_0, # of connection points: 2
#     Edge 451, Type (0, 1), BuildingBlock: AJUNOK_clean_linker_0, # of connection points: 2
#     Edge 452, Type (0, 1), BuildingBlock: AJUNOK_clean_linker_0, # of connection points: 2
#     Edge 453, Type (0, 1), BuildingBlock: AJUNOK_clean_linker_0, # of connection points: 2
#     Edge 454, Type (0, 1), BuildingBlock: AJUNOK_clean_linker_0, # of connection points: 2
#     Edge 455, Type (0, 1), BuildingBlock: AJUNOK_clean_linker_0, # of connection points: 2
#     Edge 456, Type (0, 1), BuildingBlock: AJUNOK_clean_linker_0, # of connection points: 2
#     Edge 457, Type (0, 1), BuildingBlock: AJUNOK_clean_linker_0, # of connection points: 2
#     Edge 458, Type (0, 1), BuildingBlock: AJUNOK_clean_linker_0, # of connection points: 2
#     Edge 459, Type (0, 1), BuildingBlock: AJUNOK_clean_linker_0, # of connection points: 2
#     Edge 460, Type (0, 1), BuildingBlock: AJUNOK_clean_linker_0, # of connection points: 2
#     Edge 461, Type (0, 1), BuildingBlock: AJUNOK_clean_linker_0, # of connection points: 2
#     Edge 462, Type (0, 1), BuildingBlock: AJUNOK_clean_linker_0, # of connection points: 2
#     Edge 463, Type (0, 1), BuildingBlock: AJUNOK_clean_linker_0, # of connection points: 2
#     Edge 464, Type (0, 1), BuildingBlock: AJUNOK_clean_linker_0, # of connection points: 2
#     Edge 465, Type (0, 1), BuildingBlock: AJUNOK_clean_linker_0, # of connection points: 2
#     Edge 466, Type (0, 1), BuildingBlock: AJUNOK_clean_linker_0, # of connection points: 2
#     Edge 467, Type (0, 1), BuildingBlock: AJUNOK_clean_linker_0, # of connection points: 2
#     Edge 468, Type (0, 1), BuildingBlock: AJUNOK_clean_linker_0, # of connection points: 2
#     Edge 469, Type (0, 1), BuildingBlock: AJUNOK_clean_linker_0, # of connection points: 2
#     Edge 470, Type (0, 1), BuildingBlock: AJUNOK_clean_linker_0, # of connection points: 2
#     Edge 471, Type (0, 1), BuildingBlock: AJUNOK_clean_linker_0, # of connection points: 2
#     Edge 472, Type (0, 1), BuildingBlock: AJUNOK_clean_linker_0, # of connection points: 2
#     Edge 473, Type (0, 1), BuildingBlock: AJUNOK_clean_linker_0, # of connection points: 2
#     Edge 474, Type (0, 1), BuildingBlock: AJUNOK_clean_linker_0, # of connection points: 2
#     Edge 475, Type (0, 1), BuildingBlock: AJUNOK_clean_linker_0, # of connection points: 2
#     Edge 476, Type (0, 1), BuildingBlock: AJUNOK_clean_linker_0, # of connection points: 2
#     Edge 477, Type (0, 1), BuildingBlock: AJUNOK_clean_linker_0, # of connection points: 2
#     Edge 478, Type (0, 1), BuildingBlock: AJUNOK_clean_linker_0, # of connection points: 2
#     Edge 479, Type (0, 1), BuildingBlock: AJUNOK_clean_linker_0, # of connection points: 2
# Relax obj value: 0.108
# Max RMSD: 0.094
# Mean RMSD: 0.089
data_MOF--net-ana-f--node1-WUSLED_clean_sbu_0--node2-BELTOD_clean_linker_0--edge1-AJUNOK_clean_linker_0
_symmetry_space_group_name_H-M    P1
_symmetry_Int_Tables_number       1
_symmetry_cell_setting            triclinic
loop_
_symmetry_equiv_pos_as_xyz
'x, y, z'
_cell_length_a     158.97124
_cell_length_b     158.99287
_cell_length_c     158.97849
_cell_angle_alpha  90.002898
_cell_angle_beta   89.98363
_cell_angle_gamma 89.999887
loop_
_atom_site_label
_atom_site_type_symbol
_atom_site_fract_x
_atom_site_fract_y
_atom_site_fract_z
_atom_type_partial_charge
C0 C 0.06196 0.14035 0.43772 0.0
C1 C 0.06994 0.14412 0.43728 0.0
C2 C 0.07641 0.13129 0.44266 0.0
C3 C 0.07711 0.13962 0.43974 0.0
C4 C 0.0684 0.12756 0.44302 0.0
C5 C 0.06126 0.13206 0.44061 0.0
U6 U 0.05067 0.15781 0.42548 0.0
O7 O 0.03963 0.15699 0.41726 0.0
O8 O 0.03909 0.16481 0.42864 0.0
C9 C 0.03496 0.16173 0.42217 0.0
C10 C 0.05432 0.14477 0.43493 0.0
C11 C 0.02636 0.15865 0.42372 0.0
C12 C 0.01642 0.1472 0.42585 0.0
C13 C 0.02472 0.15021 0.42579 0.0
C14 C 0.01136 0.16112 0.42227 0.0
C15 C 0.0097 0.15257 0.42378 0.0
C16 C 0.01962 0.16411 0.42222 0.0
C17 C 0.06482 0.17347 0.41294 0.0
C18 C 0.06434 0.17946 0.39886 0.0
C19 C 0.07448 0.18463 0.40898 0.0
C20 C 0.07133 0.17905 0.41499 0.0
C21 C 0.0712 0.1847 0.40078 0.0
C22 C 0.06114 0.17391 0.4049 0.0
C23 C 0.06302 0.16648 0.41878 0.0
O24 O 0.05313 0.15237 0.43797 0.0
O25 O 0.05267 0.1442 0.42685 0.0
O26 O 0.05994 0.15957 0.41545 0.0
O27 O 0.05968 0.16838 0.42611 0.0
H28 H 0.07061 0.15051 0.43499 0.0
H29 H 0.0832 0.14266 0.43938 0.0
H30 H 0.06766 0.12109 0.44501 0.0
H31 H 0.05516 0.12902 0.4409 0.0
H32 H 0.0153 0.14059 0.42707 0.0
H33 H 0.02985 0.14589 0.427 0.0
H34 H 0.00629 0.16543 0.42083 0.0
H35 H 0.02076 0.17065 0.42065 0.0
H36 H 0.06171 0.17941 0.39257 0.0
H37 H 0.07987 0.18848 0.4106 0.0
H38 H 0.07431 0.17877 0.42111 0.0
H39 H 0.0561 0.16967 0.40315 0.0
C40 C 0.14161 0.82665 0.65532 0.0
C41 C 0.13796 0.83448 0.65344 0.0
C42 C 0.14509 0.8408 0.66539 0.0
C43 C 0.13965 0.84149 0.65847 0.0
C44 C 0.14913 0.83311 0.66696 0.0
C45 C 0.14739 0.82607 0.66196 0.0
U46 U 0.12816 0.81635 0.63863 0.0
O47 O 0.12978 0.80496 0.63088 0.0
O48 O 0.11906 0.80597 0.63958 0.0
C49 C 0.12307 0.8013 0.63407 0.0
C50 C 0.13867 0.81895 0.65108 0.0
C51 C 0.12358 0.79223 0.63595 0.0
C52 C 0.12994 0.77994 0.64254 0.0
C53 C 0.12985 0.78867 0.64106 0.0
C54 C 0.1175 0.77837 0.63389 0.0
C55 C 0.12381 0.7747 0.63887 0.0
C56 C 0.11741 0.78701 0.63244 0.0
C57 C 0.11599 0.83292 0.62505 0.0
C58 C 0.10592 0.83102 0.61369 0.0
C59 C 0.10792 0.84478 0.61993 0.0
C60 C 0.11395 0.84146 0.62533 0.0
C61 C 0.10382 0.83963 0.61404 0.0
C62 C 0.11199 0.82767 0.61916 0.0
C63 C 0.12203 0.82981 0.6313 0.0
O64 O 0.13064 0.81734 0.65217 0.0
O65 O 0.14116 0.81788 0.64326 0.0
O66 O 0.12873 0.82584 0.62854 0.0
O67 O 0.1188 0.82648 0.63813 0.0
H68 H 0.13345 0.83504 0.64836 0.0
H69 H 0.13638 0.84735 0.65725 0.0
H70 H 0.15323 0.83242 0.67236 0.0
H71 H 0.15023 0.82008 0.66353 0.0
H72 H 0.13484 0.77728 0.64645 0.0
H73 H 0.13464 0.79262 0.64388 0.0
H74 H 0.11257 0.77454 0.63116 0.0
H75 H 0.11247 0.78965 0.62855 0.0
H76 H 0.10279 0.8269 0.60925 0.0
H77 H 0.10626 0.85136 0.62059 0.0
H78 H 0.11691 0.84558 0.62989 0.0
H79 H 0.11347 0.82103 0.6189 0.0
C80 C 0.442 0.86342 0.93803 0.0
C81 C 0.43414 0.8607 0.93505 0.0
C82 C 0.42721 0.87201 0.94274 0.0
C83 C 0.4268 0.86497 0.93739 0.0
C84 C 0.43509 0.87464 0.94575 0.0
C85 C 0.44242 0.87037 0.94342 0.0
U86 U 0.45366 0.84641 0.92574 0.0
O87 O 0.46464 0.84744 0.91743 0.0
O88 O 0.46532 0.83951 0.92873 0.0
C89 C 0.46938 0.84267 0.92224 0.0
C90 C 0.44984 0.85934 0.93528 0.0
C91 C 0.47795 0.84579 0.92377 0.0
C92 C 0.48772 0.85679 0.92798 0.0
C93 C 0.47948 0.85366 0.92747 0.0
C94 C 0.49292 0.84412 0.9213 0.0
C95 C 0.49453 0.85208 0.92479 0.0
C96 C 0.48473 0.841 0.92083 0.0
C97 C 0.4395 0.83063 0.91337 0.0
C98 C 0.4406 0.82422 0.89951 0.0
C99 C 0.42943 0.82002 0.90899 0.0
C100 C 0.43254 0.82551 0.91509 0.0
C101 C 0.43323 0.81956 0.90102 0.0
C102 C 0.44372 0.82973 0.90564 0.0
C103 C 0.44133 0.83761 0.91919 0.0
O104 O 0.45123 0.85176 0.93829 0.0
O105 O 0.45147 0.85997 0.9272 0.0
O106 O 0.44431 0.84454 0.9158 0.0
O107 O 0.4448 0.83573 0.92646 0.0
H108 H 0.43371 0.85537 0.93083 0.0
H109 H 0.42082 0.86288 0.93487 0.0
H110 H 0.43558 0.88002 0.94991 0.0
H111 H 0.44843 0.87256 0.94576 0.0
H112 H 0.48876 0.86295 0.9307 0.0
H113 H 0.47431 0.85746 0.92976 0.0
H114 H 0.49796 0.84043 0.91858 0.0
H115 H 0.48365 0.83495 0.91789 0.0
H116 H 0.44374 0.82385 0.89348 0.0
H117 H 0.42372 0.81654 0.91033 0.0
H118 H 0.42918 0.82613 0.92099 0.0
H119 H 0.44915 0.83358 0.90419 0.0
C120 C 0.36364 0.17793 0.15681 0.0
C121 C 0.36329 0.16986 0.15321 0.0
C122 C 0.35933 0.16384 0.16678 0.0
C123 C 0.36113 0.16287 0.15816 0.0
C124 C 0.35965 0.17196 0.17029 0.0
C125 C 0.36173 0.17892 0.16534 0.0
U126 U 0.37633 0.18787 0.13898 0.0
O127 O 0.37388 0.19896 0.13099 0.0
O128 O 0.38493 0.19867 0.13928 0.0
C129 C 0.38047 0.20305 0.13388 0.0
C130 C 0.36652 0.18534 0.15201 0.0
C131 C 0.37938 0.21206 0.13577 0.0
C132 C 0.37615 0.22365 0.14526 0.0
C133 C 0.37637 0.21498 0.14356 0.0
C134 C 0.38183 0.2265 0.13141 0.0
C135 C 0.3789 0.22951 0.1392 0.0
C136 C 0.38201 0.21789 0.12972 0.0
C137 C 0.38838 0.17173 0.12491 0.0
C138 C 0.39898 0.1743 0.11418 0.0
C139 C 0.39607 0.16008 0.11881 0.0
C140 C 0.38992 0.1631 0.12426 0.0
C141 C 0.40082 0.16563 0.11382 0.0
C142 C 0.39283 0.17735 0.11975 0.0
C143 C 0.38256 0.17453 0.13151 0.0
O144 O 0.37459 0.18696 0.15266 0.0
O145 O 0.36364 0.18615 0.1443 0.0
O146 O 0.37552 0.17814 0.12912 0.0
O147 O 0.38603 0.1781 0.1381 0.0
H148 H 0.36484 0.16894 0.14664 0.0
H149 H 0.36098 0.15671 0.15527 0.0
H150 H 0.35861 0.17294 0.17695 0.0
H151 H 0.36208 0.18507 0.16826 0.0
H152 H 0.37389 0.22578 0.15132 0.0
H153 H 0.37436 0.21057 0.14834 0.0
H154 H 0.38424 0.23078 0.1267 0.0
H155 H 0.38445 0.21575 0.12372 0.0
H156 H 0.40238 0.17873 0.11028 0.0
H157 H 0.39736 0.15339 0.11881 0.0
H158 H 0.38655 0.15869 0.12822 0.0
H159 H 0.39169 0.18406 0.12017 0.0
C160 C 0.06193 0.86314 0.06558 0.0
C161 C 0.06975 0.86099 0.06909 0.0
C162 C 0.07653 0.87215 0.06106 0.0
C163 C 0.07701 0.86545 0.06682 0.0
C164 C 0.06872 0.87411 0.0574 0.0
C165 C 0.06149 0.86964 0.05966 0.0
U166 U 0.0503 0.84612 0.07794 0.0
O167 O 0.03939 0.84722 0.08632 0.0
O168 O 0.03856 0.83931 0.07502 0.0
C169 C 0.03456 0.84254 0.0815 0.0
C170 C 0.05413 0.85899 0.06834 0.0
C171 C 0.02608 0.8459 0.07994 0.0
C172 C 0.01668 0.85752 0.0767 0.0
C173 C 0.02482 0.85414 0.07701 0.0
C174 C 0.01099 0.84432 0.08177 0.0
C175 C 0.00974 0.85267 0.07921 0.0
C176 C 0.01911 0.84098 0.08217 0.0
C177 C 0.06437 0.83042 0.09051 0.0
C178 C 0.06464 0.8251 0.10486 0.0
C179 C 0.07383 0.81904 0.09432 0.0
C180 C 0.07045 0.82444 0.08827 0.0
C181 C 0.07122 0.81959 0.10274 0.0
C182 C 0.06122 0.83047 0.09879 0.0
C183 C 0.06258 0.83732 0.08457 0.0
O184 O 0.05278 0.8514 0.06536 0.0
O185 O 0.05247 0.85967 0.0764 0.0
O186 O 0.0597 0.84435 0.08783 0.0
O187 O 0.05908 0.83536 0.07733 0.0
H188 H 0.07021 0.85597 0.07368 0.0
H189 H 0.08295 0.8638 0.06971 0.0
H190 H 0.06821 0.87912 0.05282 0.0
H191 H 0.05552 0.87135 0.05687 0.0
H192 H 0.01583 0.86399 0.07472 0.0
H193 H 0.03013 0.85803 0.07527 0.0
H194 H 0.00572 0.84051 0.08381 0.0
H195 H 0.01997 0.83463 0.08449 0.0
H196 H 0.06245 0.82555 0.1113 0.0
H197 H 0.07891 0.81487 0.09254 0.0
H198 H 0.07299 0.8243 0.08195 0.0
H199 H 0.05649 0.83499 0.10068 0.0
C200 C 0.36311 0.82614 0.34797 0.0
C201 C 0.36389 0.83428 0.35131 0.0
C202 C 0.35896 0.84033 0.33808 0.0
C203 C 0.3618 0.84131 0.34641 0.0
C204 C 0.3581 0.83213 0.33485 0.0
C205 C 0.36011 0.82512 0.33976 0.0
U206 U 0.3758 0.81618 0.3657 0.0
O207 O 0.37352 0.80488 0.37343 0.0
O208 O 0.38474 0.80564 0.36538 0.0
C209 C 0.38033 0.80107 0.37067 0.0
C210 C 0.36603 0.81868 0.35263 0.0
C211 C 0.37976 0.79202 0.36877 0.0
C212 C 0.37408 0.77997 0.3612 0.0
C213 C 0.37399 0.78864 0.36299 0.0
C214 C 0.3856 0.77809 0.37098 0.0
C215 C 0.37998 0.77464 0.36512 0.0
C216 C 0.38548 0.78667 0.37279 0.0
C217 C 0.38779 0.83208 0.37993 0.0
C218 C 0.39914 0.82917 0.38975 0.0
C219 C 0.39542 0.84356 0.38643 0.0
C220 C 0.38902 0.8407 0.38118 0.0
C221 C 0.40072 0.83785 0.39062 0.0
C222 C 0.39276 0.82629 0.38437 0.0
C223 C 0.38187 0.8295 0.37333 0.0
O224 O 0.37414 0.81718 0.35202 0.0
O225 O 0.36312 0.81775 0.36032 0.0
O226 O 0.37489 0.82575 0.37571 0.0
O227 O 0.38529 0.82614 0.36661 0.0
H228 H 0.36629 0.8352 0.35762 0.0
H229 H 0.36256 0.84753 0.34909 0.0
H230 H 0.35621 0.8311 0.32838 0.0
H231 H 0.35958 0.8189 0.33703 0.0
H232 H 0.36971 0.77747 0.3566 0.0
H233 H 0.36954 0.79269 0.3598 0.0
H234 H 0.39017 0.77414 0.37414 0.0
H235 H 0.38997 0.78916 0.37727 0.0
H236 H 0.40296 0.8246 0.39305 0.0
H237 H 0.39647 0.85028 0.38685 0.0
H238 H 0.38525 0.84525 0.37778 0.0
H239 H 0.39187 0.81959 0.38348 0.0
C240 C 0.44215 0.14108 0.56635 0.0
C241 C 0.43423 0.14485 0.56738 0.0
C242 C 0.42741 0.13226 0.56186 0.0
C243 C 0.42692 0.14049 0.5651 0.0
C244 C 0.43538 0.12861 0.5607 0.0
C245 C 0.44267 0.13298 0.56294 0.0
U246 U 0.45368 0.1583 0.57857 0.0
O247 O 0.46464 0.1574 0.58689 0.0
O248 O 0.46537 0.16514 0.57548 0.0
C249 C 0.46943 0.16199 0.58196 0.0
C250 C 0.44991 0.14531 0.5691 0.0
C251 C 0.47789 0.15858 0.58037 0.0
C252 C 0.48724 0.14669 0.57813 0.0
C253 C 0.47911 0.15008 0.57827 0.0
C254 C 0.49303 0.16035 0.5816 0.0
C255 C 0.49424 0.15176 0.58 0.0
C256 C 0.48491 0.16373 0.58181 0.0
C257 C 0.43952 0.17403 0.59103 0.0
C258 C 0.43998 0.18005 0.6051 0.0
C259 C 0.4298 0.18513 0.59497 0.0
C260 C 0.43298 0.17957 0.58897 0.0
C261 C 0.4331 0.18525 0.60317 0.0
C262 C 0.44321 0.1745 0.59906 0.0
C263 C 0.44136 0.16706 0.58519 0.0
O264 O 0.45122 0.15289 0.56606 0.0
O265 O 0.45155 0.14471 0.57717 0.0
O266 O 0.44436 0.16012 0.58854 0.0
O267 O 0.44478 0.16896 0.5779 0.0
H268 H 0.43371 0.15112 0.57 0.0
H269 H 0.42088 0.14356 0.56588 0.0
H270 H 0.43597 0.12228 0.55825 0.0
H271 H 0.44873 0.12997 0.56213 0.0
H272 H 0.48805 0.14005 0.57682 0.0
H273 H 0.47378 0.14601 0.57711 0.0
H274 H 0.49833 0.16437 0.5831 0.0
H275 H 0.48408 0.17029 0.58346 0.0
H276 H 0.44262 0.18003 0.61138 0.0
H277 H 0.42439 0.18895 0.59335 0.0
H278 H 0.42999 0.17925 0.58285 0.0
H279 H 0.44827 0.17029 0.60081 0.0
C280 C 0.14089 0.17414 0.84752 0.0
C281 C 0.1421 0.16622 0.85124 0.0
C282 C 0.14584 0.16036 0.83755 0.0
C283 C 0.14456 0.15935 0.84626 0.0
C284 C 0.14455 0.16831 0.83393 0.0
C285 C 0.14215 0.17512 0.83887 0.0
U286 U 0.12941 0.18718 0.86497 0.0
O287 O 0.13393 0.19917 0.87024 0.0
O288 O 0.12234 0.1989 0.86235 0.0
C289 C 0.12774 0.20338 0.8667 0.0
C290 C 0.13832 0.18164 0.85225 0.0
C291 C 0.12734 0.21261 0.86721 0.0
C292 C 0.13258 0.22633 0.86306 0.0
C293 C 0.13374 0.21764 0.86384 0.0
C294 C 0.11883 0.2251 0.86951 0.0
C295 C 0.12511 0.2302 0.86589 0.0
C296 C 0.11991 0.21639 0.87006 0.0
C297 C 0.11585 0.17386 0.88141 0.0
C298 C 0.10283 0.17568 0.88923 0.0
C299 C 0.11014 0.16233 0.88965 0.0
C300 C 0.11644 0.16564 0.88452 0.0
C301 C 0.10314 0.16723 0.89194 0.0
C302 C 0.1091 0.17895 0.88393 0.0
C303 C 0.12163 0.1762 0.87456 0.0
O304 O 0.13036 0.18374 0.85163 0.0
O305 O 0.14147 0.18274 0.85982 0.0
O306 O 0.1291 0.17924 0.87641 0.0
O307 O 0.11834 0.17937 0.86767 0.0
H308 H 0.14112 0.16535 0.85793 0.0
H309 H 0.14543 0.15326 0.84919 0.0
H310 H 0.14517 0.16925 0.82722 0.0
H311 H 0.14119 0.18117 0.8359 0.0
H312 H 0.1374 0.22993 0.85988 0.0
H313 H 0.13943 0.21481 0.86138 0.0
H314 H 0.11301 0.22781 0.87178 0.0
H315 H 0.11485 0.21256 0.87254 0.0
H316 H 0.09755 0.17965 0.89091 0.0
H317 H 0.11051 0.15574 0.89131 0.0
H318 H 0.12154 0.16157 0.88254 0.0
H319 H 0.10849 0.1853 0.88154 0.0
C320 C 0.4379 0.06172 0.14089 0.0
C321 C 0.43524 0.06972 0.14352 0.0
C322 C 0.44279 0.07617 0.13183 0.0
C323 C 0.43769 0.0769 0.13903 0.0
C324 C 0.44564 0.06816 0.1294 0.0
C325 C 0.4432 0.061 0.13388 0.0
U326 U 0.42538 0.05044 0.15808 0.0
O327 O 0.41655 0.03986 0.15705 0.0
O328 O 0.428 0.03853 0.16468 0.0
C329 C 0.42128 0.03483 0.16158 0.0
C330 C 0.43489 0.05402 0.14506 0.0
C331 C 0.42221 0.02619 0.15832 0.0
C332 C 0.43002 0.01499 0.15135 0.0
C333 C 0.42956 0.0233 0.15434 0.0
C334 C 0.41582 0.01248 0.15626 0.0
C335 C 0.42311 0.0095 0.15223 0.0
C336 C 0.4154 0.02069 0.15928 0.0
C337 C 0.41367 0.065 0.17407 0.0
C338 C 0.40014 0.06379 0.18115 0.0
C339 C 0.40938 0.07549 0.1843 0.0
C340 C 0.41534 0.0723 0.17871 0.0
C341 C 0.40159 0.07143 0.18537 0.0
C342 C 0.40614 0.0606 0.17551 0.0
C343 C 0.41936 0.06293 0.16705 0.0
O344 O 0.43795 0.0525 0.15259 0.0
O345 O 0.42675 0.05271 0.14453 0.0
O346 O 0.41579 0.06012 0.16015 0.0
O347 O 0.42649 0.05915 0.16886 0.0
H348 H 0.43114 0.07039 0.14892 0.0
H349 H 0.43543 0.083 0.14105 0.0
H350 H 0.44974 0.06742 0.12401 0.0
H351 H 0.44534 0.05488 0.13179 0.0
H352 H 0.43579 0.01286 0.14843 0.0
H353 H 0.43492 0.02744 0.15355 0.0
H354 H 0.41035 0.00849 0.15697 0.0
H355 H 0.40968 0.02279 0.16234 0.0
H356 H 0.39427 0.06044 0.18198 0.0
H357 H 0.41067 0.08141 0.1874 0.0
H358 H 0.42109 0.0758 0.17766 0.0
H359 H 0.40473 0.05492 0.17201 0.0
C360 C 0.17686 0.15487 0.3626 0.0
C361 C 0.16931 0.15345 0.36697 0.0
C362 C 0.16261 0.16492 0.35936 0.0
C363 C 0.16226 0.15846 0.36538 0.0
C364 C 0.17002 0.16598 0.35464 0.0
C365 C 0.1771 0.161 0.35627 0.0
U366 U 0.18777 0.13782 0.37517 0.0
O367 O 0.19921 0.13028 0.3729 0.0
O368 O 0.19844 0.13862 0.3839 0.0
C369 C 0.20306 0.13332 0.37956 0.0
C370 C 0.18467 0.15061 0.36521 0.0
C371 C 0.21204 0.13543 0.37871 0.0
C372 C 0.22348 0.145 0.37521 0.0
C373 C 0.21486 0.14304 0.37521 0.0
C374 C 0.22647 0.13175 0.3821 0.0
C375 C 0.22937 0.13941 0.37879 0.0
C376 C 0.21792 0.12979 0.38204 0.0
C377 C 0.17269 0.12313 0.38754 0.0
C378 C 0.17527 0.11583 0.4007 0.0
C379 C 0.16174 0.11454 0.39381 0.0
C380 C 0.1646 0.11965 0.38727 0.0
C381 C 0.16695 0.11279 0.40073 0.0
C382 C 0.17812 0.12098 0.39415 0.0
C383 C 0.17479 0.12981 0.3815 0.0
O384 O 0.18647 0.15141 0.37324 0.0
O385 O 0.18576 0.14291 0.3624 0.0
O386 O 0.17848 0.12752 0.37447 0.0
O387 O 0.17794 0.13671 0.38477 0.0
H388 H 0.16899 0.14872 0.37187 0.0
H389 H 0.15662 0.15751 0.3691 0.0
H390 H 0.1705 0.17099 0.35004 0.0
H391 H 0.18287 0.16219 0.35286 0.0
H392 H 0.22551 0.15087 0.37244 0.0
H393 H 0.2104 0.14748 0.3726 0.0
H394 H 0.23079 0.12733 0.38497 0.0
H395 H 0.21586 0.12391 0.3848 0.0
H396 H 0.17942 0.11457 0.40595 0.0
H397 H 0.15525 0.11248 0.39372 0.0
H398 H 0.16031 0.1213 0.38224 0.0
H399 H 0.1844 0.12361 0.39446 0.0
C400 C 0.06685 0.94196 0.64057 0.0
C401 C 0.0707 0.93422 0.64238 0.0
C402 C 0.06188 0.92727 0.63194 0.0
C403 C 0.06825 0.92694 0.63808 0.0
C404 C 0.05799 0.93502 0.63024 0.0
C405 C 0.06044 0.9423 0.63453 0.0
U406 U 0.07908 0.95341 0.65774 0.0
O407 O 0.08751 0.96432 0.65694 0.0
O408 O 0.07611 0.96502 0.66472 0.0
C409 C 0.08267 0.96905 0.6617 0.0
C410 C 0.06965 0.94978 0.64467 0.0
C411 C 0.08126 0.97767 0.65865 0.0
C412 C 0.07595 0.98764 0.64832 0.0
C413 C 0.07652 0.97938 0.65139 0.0
C414 C 0.0847 0.9925 0.65981 0.0
C415 C 0.0801 0.99428 0.65247 0.0
C416 C 0.08524 0.98429 0.66287 0.0
C417 C 0.09079 0.93858 0.67356 0.0
C418 C 0.10397 0.93982 0.68123 0.0
C419 C 0.0949 0.9278 0.68354 0.0
C420 C 0.08912 0.93105 0.6778 0.0
C421 C 0.10246 0.93206 0.68521 0.0
C422 C 0.09816 0.94308 0.67545 0.0
C423 C 0.08526 0.94084 0.66647 0.0
O424 O 0.06655 0.95121 0.65221 0.0
O425 O 0.07776 0.95133 0.64415 0.0
O426 O 0.08893 0.94396 0.65975 0.0
O427 O 0.07801 0.94439 0.66825 0.0
H428 H 0.07568 0.93385 0.64702 0.0
H429 H 0.07146 0.92109 0.63944 0.0
H430 H 0.05303 0.93545 0.62558 0.0
H431 H 0.0574 0.94821 0.63306 0.0
H432 H 0.07237 0.98883 0.64265 0.0
H433 H 0.07342 0.97433 0.64803 0.0
H434 H 0.08816 0.9974 0.66303 0.0
H435 H 0.08899 0.98307 0.66843 0.0
H436 H 0.10977 0.94321 0.68239 0.0
H437 H 0.09364 0.92171 0.68632 0.0
H438 H 0.08353 0.92744 0.67635 0.0
H439 H 0.09958 0.9489 0.67221 0.0
C440 C 0.32722 0.84869 0.86286 0.0
C441 C 0.33397 0.84782 0.8685 0.0
C442 C 0.34107 0.83829 0.85881 0.0
C443 C 0.34079 0.84264 0.86651 0.0
C444 C 0.3346 0.8397 0.85292 0.0
C445 C 0.32771 0.84479 0.85496 0.0
U446 U 0.31615 0.86593 0.8752 0.0
O447 O 0.30476 0.87348 0.87266 0.0
O448 O 0.30532 0.8652 0.88374 0.0
C449 C 0.3008 0.87051 0.87929 0.0
C450 C 0.31944 0.8531 0.86537 0.0
C451 C 0.29178 0.86856 0.87845 0.0
C452 C 0.28016 0.85877 0.87642 0.0
C453 C 0.2888 0.86061 0.87596 0.0
C454 C 0.27747 0.87284 0.88162 0.0
C455 C 0.27447 0.86481 0.87949 0.0
C456 C 0.28603 0.87468 0.88109 0.0
C457 C 0.33111 0.88063 0.8879 0.0
C458 C 0.33171 0.88559 0.90235 0.0
C459 C 0.34099 0.8916 0.89188 0.0
C460 C 0.33737 0.88646 0.88573 0.0
C461 C 0.3385 0.89089 0.90033 0.0
C462 C 0.32804 0.88051 0.89618 0.0
C463 C 0.32897 0.87395 0.88183 0.0
O464 O 0.3174 0.85233 0.87335 0.0
O465 O 0.31844 0.86079 0.86248 0.0
O466 O 0.32548 0.87623 0.87469 0.0
O467 O 0.32579 0.86699 0.88497 0.0
H468 H 0.33381 0.85087 0.87459 0.0
H469 H 0.34566 0.84173 0.8712 0.0
H470 H 0.33475 0.83671 0.84681 0.0
H471 H 0.32263 0.84548 0.85047 0.0
H472 H 0.27798 0.85254 0.87475 0.0
H473 H 0.29316 0.85578 0.87393 0.0
H474 H 0.2732 0.87762 0.88392 0.0
H475 H 0.2882 0.88083 0.88306 0.0
H476 H 0.32963 0.88493 0.9088 0.0
H477 H 0.34605 0.8958 0.89009 0.0
H478 H 0.33982 0.88669 0.87937 0.0
H479 H 0.32316 0.87612 0.89803 0.0
C480 C 0.43852 0.94197 0.3633 0.0
C481 C 0.43672 0.93399 0.35997 0.0
C482 C 0.44328 0.92735 0.37213 0.0
C483 C 0.43912 0.92672 0.36434 0.0
C484 C 0.44509 0.93535 0.3754 0.0
C485 C 0.44275 0.94259 0.371 0.0
U486 U 0.42601 0.95364 0.34632 0.0
O487 O 0.41789 0.96472 0.3475 0.0
O488 O 0.4291 0.96531 0.33943 0.0
C489 C 0.42277 0.96945 0.34279 0.0
C490 C 0.43573 0.94972 0.35908 0.0
C491 C 0.4245 0.97798 0.34601 0.0
C492 C 0.42521 0.98798 0.35759 0.0
C493 C 0.42506 0.97966 0.35468 0.0
C494 C 0.42486 0.99299 0.34321 0.0
C495 C 0.4248 0.99473 0.35188 0.0
C496 C 0.42468 0.9847 0.34031 0.0
C497 C 0.41293 0.93971 0.3308 0.0
C498 C 0.39846 0.93924 0.3258 0.0
C499 C 0.40904 0.93045 0.31926 0.0
C500 C 0.41514 0.93379 0.32464 0.0
C501 C 0.4006 0.93292 0.32002 0.0
C502 C 0.40459 0.94267 0.33111 0.0
C503 C 0.41899 0.94147 0.33763 0.0
O504 O 0.4386 0.95097 0.35143 0.0
O505 O 0.42768 0.95143 0.35986 0.0
O506 O 0.41588 0.94445 0.34469 0.0
O507 O 0.42628 0.9448 0.33557 0.0
H508 H 0.43339 0.9334 0.35405 0.0
H509 H 0.43756 0.92062 0.36173 0.0
H510 H 0.44832 0.93599 0.38136 0.0
H511 H 0.44416 0.9487 0.37368 0.0
H512 H 0.42521 0.98913 0.3643 0.0
H513 H 0.42498 0.97456 0.3592 0.0
H514 H 0.42477 0.99807 0.33866 0.0
H515 H 0.42431 0.98354 0.33361 0.0
H516 H 0.39197 0.9412 0.3265 0.0
H517 H 0.41081 0.92549 0.31493 0.0
H518 H 0.4215 0.93134 0.32433 0.0
H519 H 0.40269 0.94724 0.33579 0.0
C520 C 0.32647 0.1562 0.64121 0.0
C521 C 0.33439 0.1524 0.64228 0.0
C522 C 0.34067 0.16608 0.64536 0.0
C523 C 0.34142 0.1573 0.64441 0.0
C524 C 0.33268 0.16977 0.64446 0.0
C525 C 0.32568 0.16488 0.64243 0.0
U526 U 0.31642 0.13829 0.62869 0.0
O527 O 0.30506 0.13066 0.631 0.0
O528 O 0.30584 0.13871 0.6198 0.0
C529 C 0.30124 0.13346 0.62422 0.0
C530 C 0.31906 0.15143 0.63832 0.0
C531 C 0.29222 0.13546 0.62491 0.0
C532 C 0.28053 0.14434 0.62927 0.0
C533 C 0.28919 0.14253 0.62926 0.0
C534 C 0.27795 0.13204 0.62067 0.0
C535 C 0.27482 0.13915 0.62488 0.0
C536 C 0.28654 0.13022 0.6207 0.0
C537 C 0.33165 0.12356 0.61666 0.0
C538 C 0.32896 0.11619 0.60356 0.0
C539 C 0.34266 0.11523 0.61015 0.0
C540 C 0.33981 0.12025 0.61677 0.0
C541 C 0.33738 0.11347 0.60329 0.0
C542 C 0.32612 0.12125 0.61019 0.0
C543 C 0.32955 0.1303 0.62264 0.0
O544 O 0.31755 0.15197 0.63022 0.0
O545 O 0.31809 0.14377 0.64131 0.0
O546 O 0.32582 0.1281 0.62969 0.0
O547 O 0.32639 0.13715 0.61926 0.0
H548 H 0.33516 0.1457 0.64134 0.0
H549 H 0.34744 0.15422 0.64524 0.0
H550 H 0.33186 0.17651 0.64504 0.0
H551 H 0.31964 0.16793 0.64158 0.0
H552 H 0.27832 0.14977 0.63273 0.0
H553 H 0.2935 0.14664 0.63255 0.0
H554 H 0.27378 0.12796 0.61716 0.0
H555 H 0.28876 0.12476 0.61728 0.0
H556 H 0.3247 0.11477 0.59843 0.0
H557 H 0.34918 0.11324 0.61011 0.0
H558 H 0.34416 0.12198 0.62173 0.0
H559 H 0.31976 0.12371 0.61002 0.0
C560 C 0.06568 0.06158 0.86339 0.0
C561 C 0.06981 0.0692 0.86169 0.0
C562 C 0.06133 0.0763 0.87233 0.0
C563 C 0.06763 0.0765 0.86611 0.0
C564 C 0.05703 0.06871 0.87378 0.0
C565 C 0.0592 0.06141 0.86936 0.0
U566 U 0.07803 0.05008 0.84641 0.0
O567 O 0.08632 0.03909 0.84721 0.0
O568 O 0.07506 0.03857 0.83922 0.0
C569 C 0.08151 0.03445 0.84235 0.0
C570 C 0.06832 0.05371 0.85927 0.0
C571 C 0.08 0.02581 0.84533 0.0
C572 C 0.07695 0.01585 0.85656 0.0
C573 C 0.07697 0.02412 0.85346 0.0
C574 C 0.08255 0.0109 0.84327 0.0
C575 C 0.08003 0.00922 0.85157 0.0
C576 C 0.08253 0.01912 0.84019 0.0
C577 C 0.09025 0.06587 0.83165 0.0
C578 C 0.10054 0.06397 0.82045 0.0
C579 C 0.09664 0.07798 0.82501 0.0
C580 C 0.09112 0.07457 0.83086 0.0
C581 C 0.10142 0.07276 0.81973 0.0
C582 C 0.09496 0.06052 0.82641 0.0
C583 C 0.0846 0.06285 0.8383 0.0
O584 O 0.0654 0.05247 0.85163 0.0
O585 O 0.07635 0.05189 0.86 0.0
O586 O 0.08811 0.0594 0.84492 0.0
O587 O 0.07748 0.05929 0.83605 0.0
H588 H 0.07478 0.06947 0.85704 0.0
H589 H 0.07089 0.0823 0.86465 0.0
H590 H 0.05213 0.06835 0.87851 0.0
H591 H 0.05593 0.05559 0.87072 0.0
H592 H 0.07497 0.0147 0.86297 0.0
H593 H 0.07499 0.02922 0.85753 0.0
H594 H 0.08484 0.00588 0.83927 0.0
H595 H 0.08487 0.0203 0.83389 0.0
H596 H 0.10411 0.0598 0.81642 0.0
H597 H 0.09727 0.08476 0.82472 0.0
H598 H 0.08759 0.07879 0.8349 0.0
H599 H 0.09437 0.05376 0.82696 0.0
C600 C 0.17438 0.84929 0.14234 0.0
C601 C 0.1664 0.8519 0.13964 0.0
C602 C 0.1601 0.83957 0.14629 0.0
C603 C 0.15929 0.84708 0.14164 0.0
C604 C 0.16813 0.83718 0.14914 0.0
C605 C 0.17516 0.84203 0.14723 0.0
U606 U 0.18792 0.86566 0.13014 0.0
O607 O 0.20012 0.87071 0.13438 0.0
O608 O 0.19948 0.86254 0.12301 0.0
C609 C 0.20416 0.86681 0.12829 0.0
C610 C 0.18213 0.85344 0.13959 0.0
C611 C 0.21337 0.86728 0.12758 0.0
C612 C 0.22717 0.86336 0.13283 0.0
C613 C 0.21852 0.86433 0.13412 0.0
C614 C 0.22571 0.86874 0.11865 0.0
C615 C 0.23082 0.86545 0.12506 0.0
C616 C 0.21703 0.86955 0.11988 0.0
C617 C 0.17476 0.88215 0.11641 0.0
C618 C 0.17444 0.88764 0.10212 0.0
C619 C 0.16366 0.89175 0.11207 0.0
C620 C 0.16759 0.88694 0.11828 0.0
C621 C 0.16686 0.89191 0.10384 0.0
C622 C 0.17835 0.88277 0.10835 0.0
C623 C 0.1771 0.87541 0.12235 0.0
O624 O 0.18404 0.85251 0.13161 0.0
O625 O 0.18361 0.86104 0.14247 0.0
O626 O 0.18034 0.87736 0.12971 0.0
O627 O 0.17994 0.86831 0.11921 0.0
H628 H 0.1657 0.85749 0.1358 0.0
H629 H 0.15319 0.84909 0.13936 0.0
H630 H 0.16908 0.83131 0.15246 0.0
H631 H 0.18131 0.83989 0.14927 0.0
H632 H 0.23101 0.86082 0.13786 0.0
H633 H 0.2158 0.86241 0.14006 0.0
H634 H 0.22839 0.87036 0.11259 0.0
H635 H 0.21312 0.87171 0.11473 0.0
H636 H 0.17699 0.88753 0.0958 0.0
H637 H 0.15786 0.89499 0.11358 0.0
H638 H 0.16466 0.88649 0.12443 0.0
H639 H 0.18383 0.87907 0.10672 0.0
C640 C 0.14066 0.438 0.06153 0.0
C641 C 0.14354 0.43554 0.06951 0.0
C642 C 0.13166 0.44266 0.07609 0.0
C643 C 0.13908 0.43789 0.07674 0.0
C644 C 0.12896 0.4453 0.06809 0.0
C645 C 0.13342 0.44297 0.06088 0.0
U646 U 0.15772 0.42532 0.0504 0.0
O647 O 0.15688 0.41693 0.03948 0.0
O648 O 0.16493 0.42813 0.03888 0.0
C649 C 0.16173 0.4217 0.03478 0.0
C650 C 0.14487 0.43512 0.0538 0.0
C651 C 0.15859 0.42331 0.02622 0.0
C652 C 0.14799 0.42868 0.01658 0.0
C653 C 0.15131 0.42808 0.02474 0.0
C654 C 0.15934 0.41997 0.01134 0.0
C655 C 0.15185 0.42442 0.00982 0.0
C656 C 0.16267 0.41943 0.01945 0.0
C657 C 0.17252 0.41335 0.06635 0.0
C658 C 0.18276 0.40206 0.06474 0.0
C659 C 0.17984 0.40785 0.07853 0.0
C660 C 0.17408 0.41341 0.075 0.0
C661 C 0.18427 0.40213 0.07346 0.0
C662 C 0.17692 0.40768 0.06117 0.0
C663 C 0.16583 0.41893 0.06327 0.0
O664 O 0.15252 0.43799 0.05255 0.0
O665 O 0.14413 0.42704 0.05223 0.0
O666 O 0.15923 0.41534 0.05983 0.0
O667 O 0.16805 0.42602 0.05965 0.0
H668 H 0.14913 0.43169 0.07012 0.0
H669 H 0.14131 0.43579 0.08283 0.0
H670 H 0.12338 0.44914 0.06741 0.0
H671 H 0.13114 0.44495 0.05477 0.0
H672 H 0.14234 0.43234 0.01559 0.0
H673 H 0.14809 0.43116 0.0299 0.0
H674 H 0.16246 0.4166 0.00631 0.0
H675 H 0.16829 0.41572 0.02048 0.0
H676 H 0.18605 0.39765 0.06071 0.0
H677 H 0.18068 0.4079 0.08529 0.0
H678 H 0.17066 0.41765 0.0791 0.0
H679 H 0.17573 0.4075 0.05447 0.0
C680 C 0.64003 0.06608 0.94289 0.0
C681 C 0.64321 0.06796 0.93486 0.0
C682 C 0.63116 0.06103 0.92836 0.0
C683 C 0.6388 0.06545 0.92765 0.0
C684 C 0.62804 0.05918 0.93642 0.0
C685 C 0.63245 0.06166 0.94361 0.0
U686 U 0.65727 0.0786 0.95404 0.0
O687 O 0.65649 0.08687 0.96506 0.0
O688 O 0.6645 0.07563 0.96551 0.0
C689 C 0.66133 0.08203 0.96969 0.0
C690 C 0.64433 0.06894 0.95058 0.0
C691 C 0.65822 0.08032 0.97825 0.0
C692 C 0.64705 0.0763 0.98791 0.0
C693 C 0.65021 0.07688 0.97969 0.0
C694 C 0.65997 0.0823 0.9933 0.0
C695 C 0.65185 0.07914 0.9948 0.0
C696 C 0.66312 0.08285 0.98511 0.0
C697 C 0.6721 0.09069 0.9382 0.0
C698 C 0.68307 0.10122 0.94006 0.0
C699 C 0.67873 0.09705 0.92606 0.0
C700 C 0.67297 0.09144 0.92949 0.0
C701 C 0.68383 0.10205 0.93126 0.0
C702 C 0.67721 0.09556 0.94352 0.0
C703 C 0.66542 0.08508 0.94124 0.0
O704 O 0.65196 0.06601 0.95179 0.0
O705 O 0.64366 0.07701 0.95219 0.0
O706 O 0.65882 0.08865 0.94469 0.0
O707 O 0.66762 0.07796 0.94482 0.0
H708 H 0.64905 0.07141 0.93418 0.0
H709 H 0.64136 0.06697 0.92152 0.0
H710 H 0.62208 0.05597 0.93719 0.0
H711 H 0.62987 0.06023 0.94975 0.0
H712 H 0.64077 0.07382 0.98887 0.0
H713 H 0.64632 0.0749 0.97446 0.0
H714 H 0.66376 0.08474 0.9984 0.0
H715 H 0.66929 0.08558 0.98411 0.0
H716 H 0.68698 0.10492 0.94422 0.0
H717 H 0.67904 0.09761 0.91927 0.0
H718 H 0.66904 0.08778 0.92529 0.0
H719 H 0.67659 0.09506 0.95029 0.0
C720 C 0.15662 0.36305 0.17783 0.0
C721 C 0.15315 0.36318 0.16971 0.0
C722 C 0.16658 0.35868 0.16376 0.0
C723 C 0.15808 0.36099 0.16272 0.0
C724 C 0.16995 0.35851 0.17194 0.0
C725 C 0.16501 0.36062 0.17889 0.0
U726 U 0.13871 0.37564 0.18772 0.0
O727 O 0.13085 0.37319 0.1989 0.0
O728 O 0.13894 0.38439 0.1984 0.0
C729 C 0.13362 0.37991 0.20286 0.0
C730 C 0.15186 0.36598 0.18523 0.0
C731 C 0.1355 0.37908 0.21191 0.0
C732 C 0.14489 0.37597 0.22361 0.0
C733 C 0.14311 0.37576 0.21494 0.0
C734 C 0.13142 0.3826 0.22619 0.0
C735 C 0.13911 0.37955 0.2293 0.0
C736 C 0.12964 0.38235 0.21761 0.0
C737 C 0.12426 0.38746 0.17187 0.0
C738 C 0.11526 0.39954 0.17444 0.0
C739 C 0.11672 0.39398 0.16033 0.0
C740 C 0.12206 0.38771 0.16335 0.0
C741 C 0.11337 0.40008 0.16579 0.0
C742 C 0.12069 0.39328 0.17746 0.0
C743 C 0.13101 0.38169 0.17441 0.0
O744 O 0.15241 0.37409 0.18672 0.0
O745 O 0.14419 0.36301 0.18612 0.0
O746 O 0.12879 0.37461 0.17807 0.0
O747 O 0.13764 0.38522 0.17785 0.0
H748 H 0.14669 0.36514 0.16875 0.0
H749 H 0.1553 0.36121 0.15651 0.0
H750 H 0.17653 0.35707 0.17298 0.0
H751 H 0.16783 0.3606 0.18509 0.0
H752 H 0.1509 0.37365 0.22582 0.0
H753 H 0.14773 0.37325 0.21062 0.0
H754 H 0.12682 0.38534 0.23042 0.0
H755 H 0.12374 0.38496 0.21539 0.0
H756 H 0.11278 0.40415 0.1788 0.0
H757 H 0.11566 0.39432 0.15361 0.0
H758 H 0.12483 0.38332 0.15894 0.0
H759 H 0.12235 0.39319 0.18407 0.0
C760 C 0.86329 0.93808 0.44225 0.0
C761 C 0.86032 0.93541 0.43438 0.0
C762 C 0.87207 0.94242 0.42744 0.0
C763 C 0.86465 0.9376 0.42703 0.0
C764 C 0.87488 0.94524 0.43533 0.0
C765 C 0.87054 0.94308 0.44267 0.0
U766 U 0.84618 0.92601 0.45405 0.0
O767 O 0.84714 0.91777 0.46507 0.0
O768 O 0.83938 0.92918 0.46573 0.0
C769 C 0.84249 0.92269 0.46981 0.0
C770 C 0.85917 0.93542 0.4501 0.0
C771 C 0.8458 0.92428 0.4783 0.0
C772 C 0.85701 0.92869 0.48771 0.0
C773 C 0.85358 0.92824 0.47959 0.0
C774 C 0.84478 0.9215 0.49327 0.0
C775 C 0.85275 0.92509 0.4946 0.0
C776 C 0.84135 0.9211 0.4852 0.0
C777 C 0.83025 0.91363 0.43994 0.0
C778 C 0.82479 0.89935 0.43887 0.0
C779 C 0.81872 0.91048 0.43045 0.0
C780 C 0.82419 0.91628 0.43412 0.0
C781 C 0.81923 0.9019 0.43249 0.0
C782 C 0.83027 0.90517 0.44258 0.0
C783 C 0.83729 0.91938 0.44183 0.0
O784 O 0.85162 0.9385 0.45147 0.0
O785 O 0.85975 0.92736 0.4518 0.0
O786 O 0.84422 0.91598 0.44481 0.0
O787 O 0.83548 0.92671 0.44521 0.0
H788 H 0.8547 0.93157 0.43394 0.0
H789 H 0.86219 0.93552 0.42102 0.0
H790 H 0.88057 0.94896 0.43586 0.0
H791 H 0.87292 0.94518 0.44869 0.0
H792 H 0.86306 0.9317 0.48856 0.0
H793 H 0.85709 0.93076 0.47432 0.0
H794 H 0.84134 0.91866 0.49842 0.0
H795 H 0.83534 0.91802 0.4843 0.0
H796 H 0.82538 0.89276 0.44052 0.0
H797 H 0.81444 0.91263 0.4256 0.0
H798 H 0.82406 0.92274 0.43197 0.0
H799 H 0.83489 0.90295 0.44707 0.0
C800 C 0.85035 0.14332 0.1735 0.0
C801 C 0.85047 0.13826 0.16627 0.0
C802 C 0.83993 0.14729 0.15974 0.0
C803 C 0.84527 0.14022 0.15943 0.0
C804 C 0.84031 0.15262 0.16678 0.0
C805 C 0.84547 0.15064 0.17359 0.0
U806 U 0.86569 0.13052 0.18762 0.0
O807 O 0.87077 0.13424 0.20003 0.0
O808 O 0.86179 0.12352 0.19897 0.0
C809 C 0.8665 0.12826 0.20383 0.0
C810 C 0.85409 0.14049 0.18146 0.0
C811 C 0.86633 0.12745 0.21303 0.0
C812 C 0.85994 0.13026 0.22662 0.0
C813 C 0.86038 0.13172 0.21794 0.0
C814 C 0.87155 0.12044 0.22556 0.0
C815 C 0.86543 0.1245 0.23051 0.0
C816 C 0.87195 0.12188 0.2169 0.0
C817 C 0.88217 0.11642 0.17478 0.0
C818 C 0.88733 0.10201 0.17439 0.0
C819 C 0.89214 0.11206 0.16401 0.0
C820 C 0.8873 0.11831 0.16785 0.0
C821 C 0.89199 0.10377 0.16706 0.0
C822 C 0.88244 0.10829 0.17822 0.0
C823 C 0.87554 0.12253 0.17703 0.0
O824 O 0.85277 0.13257 0.18339 0.0
O825 O 0.86172 0.14311 0.18328 0.0
O826 O 0.87762 0.12978 0.18042 0.0
O827 O 0.86825 0.11959 0.1796 0.0
H828 H 0.85417 0.13254 0.1661 0.0
H829 H 0.84502 0.1359 0.15418 0.0
H830 H 0.8363 0.15812 0.16718 0.0
H831 H 0.84527 0.15459 0.17915 0.0
H832 H 0.85514 0.13344 0.23025 0.0
H833 H 0.85596 0.13603 0.21506 0.0
H834 H 0.87601 0.11612 0.22837 0.0
H835 H 0.87658 0.11855 0.21317 0.0
H836 H 0.88698 0.09566 0.17682 0.0
H837 H 0.89567 0.11361 0.15839 0.0
H838 H 0.88713 0.12452 0.16504 0.0
H839 H 0.87848 0.10664 0.18351 0.0
C840 C 0.36308 0.56564 0.56226 0.0
C841 C 0.36146 0.56977 0.56989 0.0
C842 C 0.37212 0.56125 0.5769 0.0
C843 C 0.36592 0.56758 0.57716 0.0
C844 C 0.37351 0.55696 0.56929 0.0
C845 C 0.36904 0.55915 0.56204 0.0
U846 U 0.34609 0.5779 0.55053 0.0
O847 O 0.34713 0.58615 0.53952 0.0
O848 O 0.33917 0.57487 0.53887 0.0
C849 C 0.34236 0.58133 0.5348 0.0
C850 C 0.35895 0.56829 0.55441 0.0
C851 C 0.34547 0.5798 0.52621 0.0
C852 C 0.35685 0.57697 0.51638 0.0
C853 C 0.35375 0.57715 0.52464 0.0
C854 C 0.34331 0.58169 0.51122 0.0
C855 C 0.35171 0.57944 0.5096 0.0
C856 C 0.34023 0.58185 0.51944 0.0
C857 C 0.33048 0.59062 0.56464 0.0
C858 C 0.32499 0.6049 0.56465 0.0
C859 C 0.31928 0.59456 0.57426 0.0
C860 C 0.32467 0.58848 0.57093 0.0
C861 C 0.31964 0.60291 0.5714 0.0
C862 C 0.33037 0.5988 0.56128 0.0
C863 C 0.33738 0.58468 0.56281 0.0
O864 O 0.35134 0.56532 0.55311 0.0
O865 O 0.35964 0.57633 0.55263 0.0
O866 O 0.34437 0.58792 0.55982 0.0
O867 O 0.3354 0.5774 0.55941 0.0
H868 H 0.35682 0.57476 0.5702 0.0
H869 H 0.36452 0.57083 0.58298 0.0
H870 H 0.37821 0.55205 0.56889 0.0
H871 H 0.37035 0.55588 0.5562 0.0
H872 H 0.36338 0.57531 0.51534 0.0
H873 H 0.3579 0.57556 0.52981 0.0
H874 H 0.3392 0.58356 0.50612 0.0
H875 H 0.33383 0.58391 0.52053 0.0
H876 H 0.3253 0.61128 0.56228 0.0
H877 H 0.31524 0.59286 0.57949 0.0
H878 H 0.32468 0.58223 0.57364 0.0
H879 H 0.33476 0.60061 0.55639 0.0
C880 C 0.15416 0.64331 0.3308 0.0
C881 C 0.15398 0.63826 0.33804 0.0
C882 C 0.16479 0.64703 0.34445 0.0
C883 C 0.15928 0.64011 0.34482 0.0
C884 C 0.16448 0.65237 0.33742 0.0
C885 C 0.15921 0.65051 0.33066 0.0
U886 U 0.13884 0.63047 0.31672 0.0
O887 O 0.13359 0.63415 0.30437 0.0
O888 O 0.1428 0.62362 0.30533 0.0
C889 C 0.13794 0.62825 0.30051 0.0
C890 C 0.15037 0.64053 0.32285 0.0
C891 C 0.1382 0.62755 0.29131 0.0
C892 C 0.14495 0.63007 0.27786 0.0
C893 C 0.14459 0.63134 0.28656 0.0
C894 C 0.13248 0.62133 0.27857 0.0
C895 C 0.13896 0.62499 0.27379 0.0
C896 C 0.13212 0.62262 0.28727 0.0
C897 C 0.12263 0.61607 0.32941 0.0
C898 C 0.11603 0.60243 0.32742 0.0
C899 C 0.11409 0.60994 0.34052 0.0
C900 C 0.11892 0.61658 0.33739 0.0
C901 C 0.11278 0.60267 0.33567 0.0
C902 C 0.12097 0.60906 0.32432 0.0
C903 C 0.12918 0.6223 0.32736 0.0
O904 O 0.15176 0.63264 0.32085 0.0
O905 O 0.14269 0.64307 0.32114 0.0
O906 O 0.12698 0.62952 0.32398 0.0
O907 O 0.13647 0.61946 0.32471 0.0
H908 H 0.15016 0.63262 0.33823 0.0
H909 H 0.15947 0.63578 0.35008 0.0
H910 H 0.16862 0.65777 0.33698 0.0
H911 H 0.15946 0.65444 0.32509 0.0
H912 H 0.14997 0.633 0.2743 0.0
H913 H 0.14935 0.63517 0.28958 0.0
H914 H 0.12784 0.6173 0.27564 0.0
H915 H 0.12718 0.61961 0.29089 0.0
H916 H 0.11511 0.59692 0.32352 0.0
H917 H 0.11192 0.61029 0.34697 0.0
H918 H 0.12022 0.62189 0.34146 0.0
H919 H 0.12382 0.60852 0.31815 0.0
C920 C 0.34854 0.36288 0.82702 0.0
C921 C 0.34747 0.36847 0.83378 0.0
C922 C 0.33823 0.35846 0.84084 0.0
C923 C 0.34233 0.36631 0.84058 0.0
C924 C 0.33984 0.35264 0.83435 0.0
C925 C 0.34488 0.35487 0.82747 0.0
U926 U 0.36569 0.37558 0.81626 0.0
O927 O 0.37346 0.37325 0.80497 0.0
O928 O 0.36503 0.38421 0.80551 0.0
C929 C 0.37045 0.37987 0.80102 0.0
C930 C 0.35296 0.36553 0.81928 0.0
C931 C 0.36856 0.37901 0.79198 0.0
C932 C 0.35911 0.37595 0.78031 0.0
C933 C 0.36094 0.37569 0.78897 0.0
C934 C 0.37253 0.38266 0.7777 0.0
C935 C 0.36484 0.3796 0.77462 0.0
C936 C 0.37437 0.38235 0.78627 0.0
C937 C 0.3798 0.38803 0.83204 0.0
C938 C 0.38948 0.39954 0.82927 0.0
C939 C 0.38637 0.39544 0.84361 0.0
C940 C 0.38114 0.38907 0.84066 0.0
C941 C 0.39044 0.40092 0.83798 0.0
C942 C 0.38411 0.39318 0.82631 0.0
C943 C 0.37328 0.38204 0.82942 0.0
O944 O 0.3521 0.37352 0.81731 0.0
O945 O 0.3607 0.36276 0.81831 0.0
O946 O 0.37577 0.37505 0.82578 0.0
O947 O 0.36653 0.38533 0.82599 0.0
H948 H 0.35033 0.37465 0.83365 0.0
H949 H 0.34127 0.37095 0.84545 0.0
H950 H 0.33707 0.34643 0.83449 0.0
H951 H 0.34574 0.35041 0.82239 0.0
H952 H 0.3531 0.37362 0.77812 0.0
H953 H 0.35635 0.37313 0.7933 0.0
H954 H 0.37709 0.38545 0.77346 0.0
H955 H 0.38026 0.38497 0.78848 0.0
H956 H 0.3927 0.40348 0.82475 0.0
H957 H 0.38687 0.39633 0.85035 0.0
H958 H 0.37784 0.38515 0.84517 0.0
H959 H 0.38316 0.39243 0.8196 0.0
C960 C 0.94142 0.86212 0.56453 0.0
C961 C 0.93353 0.85883 0.56675 0.0
C962 C 0.9266 0.87108 0.56066 0.0
C963 C 0.92617 0.86326 0.56478 0.0
C964 C 0.93452 0.87418 0.55821 0.0
C965 C 0.94186 0.86973 0.56014 0.0
U966 U 0.95255 0.84512 0.57703 0.0
O967 O 0.96408 0.83788 0.57441 0.0
O968 O 0.96333 0.84591 0.58563 0.0
C969 C 0.96805 0.84097 0.58098 0.0
C970 C 0.94924 0.85799 0.56725 0.0
C971 C 0.97678 0.84381 0.57974 0.0
C972 C 0.98732 0.853 0.57346 0.0
C973 C 0.97898 0.85008 0.57391 0.0
C974 C 0.99126 0.84329 0.58452 0.0
C975 C 0.99353 0.8497 0.57887 0.0
C976 C 0.983 0.84039 0.58494 0.0
C977 C 0.93676 0.8304 0.58906 0.0
C978 C 0.93894 0.82051 0.60052 0.0
C979 C 0.92488 0.82315 0.59526 0.0
C980 C 0.92813 0.82875 0.58937 0.0
C981 C 0.93022 0.81897 0.60092 0.0
C982 C 0.94221 0.8262 0.5946 0.0
C983 C 0.93958 0.83707 0.58333 0.0
O984 O 0.95088 0.85872 0.57532 0.0
O985 O 0.9505 0.85034 0.56436 0.0
O986 O 0.94329 0.83481 0.57629 0.0
O987 O 0.94294 0.84375 0.58685 0.0
H988 H 0.93307 0.85293 0.57014 0.0
H989 H 0.92016 0.8606 0.56658 0.0
H990 H 0.93507 0.88019 0.55506 0.0
H991 H 0.9479 0.87236 0.5584 0.0
H992 H 0.98889 0.85786 0.56896 0.0
H993 H 0.97425 0.8528 0.56983 0.0
H994 H 0.99584 0.84068 0.58883 0.0
H995 H 0.98141 0.83558 0.5895 0.0
H996 H 0.94319 0.81741 0.60485 0.0
H997 H 0.91812 0.82235 0.59558 0.0
H998 H 0.92383 0.83203 0.58522 0.0
H999 H 0.9489 0.82747 0.59449 0.0
C1000 C 0.86523 0.17609 0.34599 0.0
C1001 C 0.8654 0.16805 0.34965 0.0
C1002 C 0.86085 0.1618 0.33638 0.0
C1003 C 0.8632 0.16096 0.34488 0.0
C1004 C 0.86069 0.16989 0.3328 0.0
C1005 C 0.86281 0.17695 0.33758 0.0
U1006 U 0.87786 0.18643 0.36359 0.0
O1007 O 0.88619 0.19743 0.36317 0.0
O1008 O 0.87517 0.1975 0.37153 0.0
C1009 C 0.88165 0.20172 0.36859 0.0
C1010 C 0.86804 0.18361 0.35063 0.0
C1011 C 0.88043 0.21074 0.3668 0.0
C1012 C 0.8784 0.22253 0.3572 0.0
C1013 C 0.87841 0.21382 0.35875 0.0
C1014 C 0.88219 0.22508 0.37173 0.0
C1015 C 0.88049 0.22821 0.36365 0.0
C1016 C 0.88213 0.21645 0.37328 0.0
C1017 C 0.89032 0.17107 0.37803 0.0
C1018 C 0.90345 0.1731 0.3856 0.0
C1019 C 0.89574 0.16005 0.3871 0.0
C1020 C 0.88951 0.16311 0.38172 0.0
C1021 C 0.90291 0.1649 0.38888 0.0
C1022 C 0.8972 0.17616 0.38018 0.0
C1023 C 0.88443 0.17337 0.37128 0.0
O1024 O 0.86519 0.18448 0.35834 0.0
O1025 O 0.8761 0.18531 0.34992 0.0
O1026 O 0.88776 0.17689 0.36458 0.0
O1027 O 0.87722 0.17675 0.37353 0.0
H1028 H 0.86734 0.16724 0.35613 0.0
H1029 H 0.86342 0.15481 0.34781 0.0
H1030 H 0.85919 0.17076 0.32622 0.0
H1031 H 0.86276 0.18309 0.33462 0.0
H1032 H 0.87709 0.2248 0.35091 0.0
H1033 H 0.8771 0.2095 0.35364 0.0
H1034 H 0.88377 0.22933 0.37682 0.0
H1035 H 0.88372 0.21421 0.37952 0.0
H1036 H 0.90882 0.17705 0.38701 0.0
H1037 H 0.89514 0.1537 0.38951 0.0
H1038 H 0.88425 0.15909 0.38013 0.0
H1039 H 0.89792 0.18236 0.37743 0.0
C1040 C 0.56258 0.14265 0.06448 0.0
C1041 C 0.57057 0.14501 0.06743 0.0
C1042 C 0.57683 0.13295 0.06037 0.0
C1043 C 0.57767 0.1402 0.06536 0.0
C1044 C 0.56888 0.13086 0.05712 0.0
C1045 C 0.56182 0.13567 0.05917 0.0
U1046 U 0.55151 0.15982 0.07709 0.0
O1047 O 0.53978 0.16679 0.07456 0.0
O1048 O 0.54084 0.15884 0.08581 0.0
C1049 C 0.53597 0.16366 0.08121 0.0
C1050 C 0.5549 0.14692 0.06739 0.0
C1051 C 0.52728 0.16068 0.08009 0.0
C1052 C 0.51696 0.15057 0.075 0.0
C1053 C 0.52528 0.15356 0.07526 0.0
C1054 C 0.51264 0.16189 0.08423 0.0
C1055 C 0.51057 0.15469 0.07953 0.0
C1056 C 0.52089 0.16485 0.08448 0.0
C1057 C 0.56654 0.17522 0.089 0.0
C1058 C 0.56513 0.18245 0.10242 0.0
C1059 C 0.57775 0.18423 0.09405 0.0
C1060 C 0.57439 0.17903 0.08785 0.0
C1061 C 0.57328 0.18576 0.1015 0.0
C1062 C 0.56178 0.17716 0.0962 0.0
C1063 C 0.56421 0.16838 0.08323 0.0
O1064 O 0.55342 0.14626 0.07549 0.0
O1065 O 0.55358 0.15453 0.06444 0.0
O1066 O 0.56045 0.17042 0.07616 0.0
O1067 O 0.56121 0.16151 0.08672 0.0
H1068 H 0.57126 0.1504 0.07155 0.0
H1069 H 0.58373 0.14194 0.06794 0.0
H1070 H 0.5681 0.12537 0.05316 0.0
H1071 H 0.55571 0.13377 0.05682 0.0
H1072 H 0.51555 0.14499 0.07136 0.0
H1073 H 0.53016 0.15023 0.07186 0.0
H1074 H 0.50793 0.16508 0.08798 0.0
H1075 H 0.52233 0.1703 0.08832 0.0
H1076 H 0.56161 0.18351 0.10815 0.0
H1077 H 0.58404 0.18673 0.09322 0.0
H1078 H 0.57817 0.17758 0.08236 0.0
H1079 H 0.5557 0.17425 0.09721 0.0
C1080 C 0.63954 0.82863 0.84651 0.0
C1081 C 0.6356 0.83639 0.8481 0.0
C1082 C 0.64335 0.84277 0.83658 0.0
C1083 C 0.63749 0.84341 0.84314 0.0
C1084 C 0.64753 0.83512 0.83521 0.0
C1085 C 0.64563 0.82809 0.84015 0.0
U1086 U 0.62689 0.81811 0.86379 0.0
O1087 O 0.6184 0.80724 0.8633 0.0
O1088 O 0.62942 0.80696 0.87165 0.0
C1089 C 0.62284 0.80288 0.86873 0.0
C1090 C 0.63685 0.82097 0.85095 0.0
C1091 C 0.62386 0.79386 0.86691 0.0
C1092 C 0.62798 0.78215 0.85791 0.0
C1093 C 0.62792 0.79083 0.85966 0.0
C1094 C 0.62005 0.77958 0.87068 0.0
C1095 C 0.62389 0.77648 0.86336 0.0
C1096 C 0.62007 0.78816 0.87244 0.0
C1097 C 0.61437 0.83344 0.87816 0.0
C1098 C 0.6015 0.83098 0.88604 0.0
C1099 C 0.60858 0.84444 0.887 0.0
C1100 C 0.61484 0.84154 0.88158 0.0
C1101 C 0.60171 0.8393 0.8891 0.0
C1102 C 0.60778 0.82808 0.88058 0.0
C1103 C 0.62033 0.83119 0.87146 0.0
O1104 O 0.63964 0.82007 0.85868 0.0
O1105 O 0.62882 0.81918 0.85017 0.0
O1106 O 0.61705 0.82773 0.8647 0.0
O1107 O 0.62748 0.82774 0.87377 0.0
H1108 H 0.63087 0.83693 0.85298 0.0
H1109 H 0.63418 0.84927 0.84423 0.0
H1110 H 0.65203 0.83451 0.83013 0.0
H1111 H 0.64871 0.82215 0.83883 0.0
H1112 H 0.63096 0.77989 0.85222 0.0
H1113 H 0.63086 0.79515 0.85529 0.0
H1114 H 0.61693 0.77534 0.87501 0.0
H1115 H 0.6169 0.79038 0.87806 0.0
H1116 H 0.59637 0.82682 0.8877 0.0
H1117 H 0.60891 0.85088 0.88921 0.0
H1118 H 0.61988 0.84576 0.87977 0.0
H1119 H 0.60734 0.82178 0.87802 0.0
C1120 C 0.94144 0.14204 0.93928 0.0
C1121 C 0.93353 0.1459 0.93844 0.0
C1122 C 0.92666 0.13316 0.94353 0.0
C1123 C 0.9262 0.14151 0.94061 0.0
C1124 C 0.93463 0.12943 0.94453 0.0
C1125 C 0.94193 0.13384 0.94242 0.0
U1126 U 0.95254 0.15908 0.92663 0.0
O1127 O 0.96411 0.16625 0.92929 0.0
O1128 O 0.96335 0.15821 0.91807 0.0
C1129 C 0.96808 0.16313 0.92273 0.0
C1130 C 0.94919 0.14625 0.93646 0.0
C1131 C 0.97684 0.16031 0.92394 0.0
C1132 C 0.98763 0.1518 0.93076 0.0
C1133 C 0.97925 0.15463 0.93028 0.0
C1134 C 0.99116 0.16038 0.91867 0.0
C1135 C 0.99366 0.15459 0.92487 0.0
C1136 C 0.98287 0.1632 0.91823 0.0
C1137 C 0.93653 0.17366 0.91451 0.0
C1138 C 0.93839 0.18411 0.90347 0.0
C1139 C 0.92438 0.18031 0.90812 0.0
C1140 C 0.92782 0.17471 0.91391 0.0
C1141 C 0.9296 0.1851 0.90284 0.0
C1142 C 0.94185 0.17841 0.90929 0.0
C1143 C 0.93959 0.16709 0.92024 0.0
O1144 O 0.95081 0.14548 0.92839 0.0
O1145 O 0.95044 0.15392 0.93931 0.0
O1146 O 0.9433 0.16943 0.92725 0.0
O1147 O 0.94298 0.16041 0.91675 0.0
H1148 H 0.93303 0.15224 0.936 0.0
H1149 H 0.92018 0.14463 0.93995 0.0
H1150 H 0.9352 0.12301 0.94671 0.0
H1151 H 0.94797 0.13075 0.94306 0.0
H1152 H 0.98937 0.14743 0.93568 0.0
H1153 H 0.97467 0.15232 0.93476 0.0
H1154 H 0.99557 0.16257 0.91397 0.0
H1155 H 0.98113 0.16754 0.91327 0.0
H1156 H 0.94255 0.18767 0.89943 0.0
H1157 H 0.9176 0.18068 0.90761 0.0
H1158 H 0.92361 0.17101 0.9178 0.0
H1159 H 0.94861 0.17762 0.90962 0.0
C1160 C 0.64084 0.17242 0.65703 0.0
C1161 C 0.63713 0.1646 0.65526 0.0
C1162 C 0.64432 0.1585 0.66732 0.0
C1163 C 0.63892 0.15763 0.66037 0.0
C1164 C 0.64835 0.16621 0.66874 0.0
C1165 C 0.64663 0.17311 0.66362 0.0
U1166 U 0.62784 0.18611 0.64147 0.0
O1167 O 0.62121 0.19766 0.6453 0.0
O1168 O 0.63153 0.19833 0.63583 0.0
C1169 C 0.62585 0.20234 0.64031 0.0
C1170 C 0.63797 0.18023 0.65307 0.0
C1171 C 0.62505 0.21154 0.64032 0.0
C1172 C 0.62633 0.2251 0.64726 0.0
C1173 C 0.62713 0.21633 0.64744 0.0
C1174 C 0.62131 0.22436 0.63289 0.0
C1175 C 0.62332 0.22918 0.64003 0.0
C1176 C 0.62223 0.21561 0.63303 0.0
C1177 C 0.61373 0.17283 0.62538 0.0
C1178 C 0.60077 0.17471 0.61746 0.0
C1179 C 0.60805 0.16134 0.61708 0.0
C1180 C 0.61429 0.1646 0.6223 0.0
C1181 C 0.6011 0.16626 0.61475 0.0
C1182 C 0.60702 0.17796 0.62282 0.0
C1183 C 0.61977 0.17529 0.63196 0.0
O1184 O 0.64047 0.18181 0.64535 0.0
O1185 O 0.63005 0.18213 0.65443 0.0
O1186 O 0.61678 0.17817 0.63911 0.0
O1187 O 0.62702 0.17861 0.62976 0.0
H1188 H 0.63258 0.16399 0.65023 0.0
H1189 H 0.63573 0.15172 0.65921 0.0
H1190 H 0.65255 0.16699 0.67405 0.0
H1191 H 0.64949 0.17912 0.6651 0.0
H1192 H 0.62792 0.22868 0.65283 0.0
H1193 H 0.62939 0.2133 0.6531 0.0
H1194 H 0.61907 0.22735 0.62719 0.0
H1195 H 0.62066 0.21199 0.62747 0.0
H1196 H 0.59562 0.17875 0.61561 0.0
H1197 H 0.6085 0.1548 0.6152 0.0
H1198 H 0.6194 0.16053 0.62425 0.0
H1199 H 0.60648 0.18434 0.62513 0.0
C1200 C 0.56295 0.86142 0.43939 0.0
C1201 C 0.57105 0.85827 0.43774 0.0
C1202 C 0.57727 0.87101 0.44358 0.0
C1203 C 0.57817 0.86304 0.43984 0.0
C1204 C 0.56915 0.87399 0.4454 0.0
C1205 C 0.56207 0.86924 0.44333 0.0
U1206 U 0.55199 0.844 0.42692 0.0
O1207 O 0.54032 0.83701 0.42973 0.0
O1208 O 0.5412 0.84482 0.41838 0.0
C1209 C 0.53635 0.84019 0.42321 0.0
C1210 C 0.55535 0.85699 0.43653 0.0
C1211 C 0.52785 0.84358 0.4247 0.0
C1212 C 0.51846 0.85539 0.4273 0.0
C1213 C 0.52659 0.85197 0.42718 0.0
C1214 C 0.51276 0.84196 0.42292 0.0
C1215 C 0.51148 0.85049 0.4249 0.0
C1216 C 0.52086 0.83856 0.4228 0.0
C1217 C 0.56745 0.82893 0.41487 0.0
C1218 C 0.56556 0.82038 0.40231 0.0
C1219 C 0.57926 0.82133 0.40892 0.0
C1220 C 0.57591 0.82652 0.41514 0.0
C1221 C 0.57418 0.81839 0.40236 0.0
C1222 C 0.5622 0.82568 0.40853 0.0
C1223 C 0.56477 0.83566 0.42062 0.0
O1224 O 0.5538 0.8576 0.42844 0.0
O1225 O 0.55419 0.84936 0.43951 0.0
O1226 O 0.56107 0.8335 0.42769 0.0
O1227 O 0.56154 0.8424 0.4171 0.0
H1228 H 0.57184 0.85226 0.43463 0.0
H1229 H 0.58435 0.86063 0.43827 0.0
H1230 H 0.56827 0.88009 0.44832 0.0
H1231 H 0.55587 0.87176 0.44463 0.0
H1232 H 0.51765 0.86193 0.42904 0.0
H1233 H 0.53191 0.85595 0.42872 0.0
H1234 H 0.50753 0.83803 0.42102 0.0
H1235 H 0.52171 0.83208 0.42088 0.0
H1236 H 0.56156 0.81821 0.39724 0.0
H1237 H 0.58592 0.81989 0.40904 0.0
H1238 H 0.58006 0.82901 0.41994 0.0
H1239 H 0.55565 0.82753 0.4082 0.0
C1240 C 0.86567 0.82872 0.15786 0.0
C1241 C 0.87088 0.83585 0.15773 0.0
C1242 C 0.86151 0.84308 0.16747 0.0
C1243 C 0.86886 0.84293 0.16253 0.0
C1244 C 0.85613 0.83604 0.16729 0.0
C1245 C 0.8582 0.82893 0.16254 0.0
U1246 U 0.87814 0.81777 0.14077 0.0
O1247 O 0.88632 0.80664 0.14133 0.0
O1248 O 0.87546 0.80676 0.13276 0.0
C1249 C 0.88184 0.80245 0.13578 0.0
C1250 C 0.86819 0.82091 0.15354 0.0
C1251 C 0.88048 0.79342 0.13743 0.0
C1252 C 0.87744 0.78155 0.14664 0.0
C1253 C 0.87799 0.79028 0.14532 0.0
C1254 C 0.88181 0.77913 0.13225 0.0
C1255 C 0.87933 0.77588 0.1401 0.0
C1256 C 0.88232 0.78778 0.13093 0.0
C1257 C 0.89072 0.83307 0.12634 0.0
C1258 C 0.90387 0.83112 0.11878 0.0
C1259 C 0.89588 0.84398 0.11699 0.0
C1260 C 0.88978 0.84096 0.12252 0.0
C1261 C 0.90307 0.83917 0.11523 0.0
C1262 C 0.89769 0.82805 0.12427 0.0
C1263 C 0.88485 0.83077 0.13311 0.0
O1264 O 0.86539 0.81996 0.14581 0.0
O1265 O 0.87617 0.81888 0.15437 0.0
O1266 O 0.88816 0.8272 0.13979 0.0
O1267 O 0.87763 0.82745 0.13083 0.0
H1268 H 0.87667 0.83583 0.15413 0.0
H1269 H 0.87325 0.84814 0.16266 0.0
H1270 H 0.85039 0.83598 0.17097 0.0
H1271 H 0.85408 0.82351 0.16268 0.0
H1272 H 0.87556 0.77922 0.15277 0.0
H1273 H 0.87661 0.79455 0.15044 0.0
H1274 H 0.88356 0.77497 0.12715 0.0
H1275 H 0.88436 0.79007 0.12485 0.0
H1276 H 0.90938 0.82732 0.1175 0.0
H1277 H 0.8952 0.85025 0.11441 0.0
H1278 H 0.88447 0.84494 0.1241 0.0
H1279 H 0.89853 0.82193 0.12715 0.0
C1280 C 0.56373 0.9412 0.86151 0.0
C1281 C 0.5673 0.93333 0.85962 0.0
C1282 C 0.55958 0.92696 0.87121 0.0
C1283 C 0.56521 0.92625 0.86443 0.0
C1284 C 0.55574 0.93476 0.87281 0.0
C1285 C 0.55781 0.94182 0.868 0.0
U1286 U 0.57636 0.95229 0.84443 0.0
O1287 O 0.5737 0.96393 0.83734 0.0
O1288 O 0.58493 0.96305 0.84534 0.0
C1289 C 0.58028 0.96784 0.84048 0.0
C1290 C 0.56656 0.9489 0.85725 0.0
C1291 C 0.57906 0.97652 0.84345 0.0
C1292 C 0.57548 0.98663 0.85441 0.0
C1293 C 0.57526 0.97838 0.85123 0.0
C1294 C 0.58291 0.99119 0.84191 0.0
C1295 C 0.57956 0.99304 0.84987 0.0
C1296 C 0.58265 0.98302 0.83874 0.0
C1297 C 0.58871 0.93728 0.8294 0.0
C1298 C 0.60125 0.93988 0.82104 0.0
C1299 C 0.59481 0.92607 0.82107 0.0
C1300 C 0.58855 0.929 0.82646 0.0
C1301 C 0.60137 0.93139 0.81846 0.0
C1302 C 0.59499 0.94279 0.82654 0.0
C1303 C 0.58282 0.93955 0.83614 0.0
O1304 O 0.57462 0.95052 0.858 0.0
O1305 O 0.56368 0.95011 0.84959 0.0
O1306 O 0.57572 0.94319 0.83395 0.0
O1307 O 0.58618 0.94272 0.84299 0.0
H1308 H 0.57189 0.93274 0.85461 0.0
H1309 H 0.56826 0.9203 0.86308 0.0
H1310 H 0.55128 0.93544 0.87791 0.0
H1311 H 0.55498 0.94783 0.86952 0.0
H1312 H 0.5729 0.98789 0.86059 0.0
H1313 H 0.57249 0.97341 0.85498 0.0
H1314 H 0.58606 0.99603 0.83828 0.0
H1315 H 0.58561 0.98171 0.83274 0.0
H1316 H 0.60608 0.94421 0.81896 0.0
H1317 H 0.59471 0.9195 0.81928 0.0
H1318 H 0.58377 0.92466 0.82863 0.0
H1319 H 0.5952 0.94924 0.82874 0.0
C1320 C 0.82851 0.84629 0.63926 0.0
C1321 C 0.83658 0.84983 0.63865 0.0
C1322 C 0.84283 0.83671 0.64355 0.0
C1323 C 0.84369 0.84508 0.64081 0.0
C1324 C 0.83471 0.83324 0.64418 0.0
C1325 C 0.82763 0.83801 0.64209 0.0
U1326 U 0.81842 0.86377 0.62644 0.0
O1327 O 0.80749 0.86341 0.61801 0.0
O1328 O 0.80748 0.87193 0.62891 0.0
C1329 C 0.80325 0.86894 0.62246 0.0
C1330 C 0.82099 0.85089 0.63641 0.0
C1331 C 0.79425 0.86719 0.62377 0.0
C1332 C 0.78256 0.85805 0.62762 0.0
C1333 C 0.79127 0.85955 0.62706 0.0
C1334 C 0.77987 0.87182 0.62169 0.0
C1335 C 0.77677 0.86417 0.62486 0.0
C1336 C 0.78849 0.87331 0.62117 0.0
C1337 C 0.83443 0.87769 0.61412 0.0
C1338 C 0.83188 0.88721 0.60242 0.0
C1339 C 0.84613 0.88461 0.60719 0.0
C1340 C 0.84307 0.87929 0.61345 0.0
C1341 C 0.84058 0.88847 0.60153 0.0
C1342 C 0.8288 0.8818 0.60868 0.0
C1343 C 0.83174 0.87111 0.62 0.0
O1344 O 0.82015 0.85864 0.63919 0.0
O1345 O 0.81931 0.85011 0.62836 0.0
O1346 O 0.82808 0.86452 0.61662 0.0
O1347 O 0.82825 0.87354 0.62709 0.0
H1348 H 0.83739 0.85621 0.63638 0.0
H1349 H 0.84985 0.84792 0.64024 0.0
H1350 H 0.83382 0.82674 0.64599 0.0
H1351 H 0.82146 0.83513 0.64248 0.0
H1352 H 0.78038 0.85215 0.63022 0.0
H1353 H 0.79564 0.85474 0.62911 0.0
H1354 H 0.77561 0.87663 0.61941 0.0
H1355 H 0.79067 0.87922 0.61857 0.0
H1356 H 0.82752 0.89011 0.59805 0.0
H1357 H 0.85286 0.88548 0.60657 0.0
H1358 H 0.8475 0.87615 0.61757 0.0
H1359 H 0.8221 0.8806 0.6091 0.0
C1360 C 0.93891 0.06258 0.36254 0.0
C1361 C 0.9381 0.07059 0.35892 0.0
C1362 C 0.94356 0.07703 0.37173 0.0
C1363 C 0.94041 0.07777 0.36349 0.0
C1364 C 0.94436 0.06897 0.37528 0.0
C1365 C 0.94209 0.06182 0.37071 0.0
U1366 U 0.92672 0.05163 0.34496 0.0
O1367 O 0.92971 0.04011 0.33782 0.0
O1368 O 0.91828 0.04073 0.34555 0.0
C1369 C 0.92317 0.03604 0.34082 0.0
C1370 C 0.93611 0.05495 0.35812 0.0
C1371 C 0.92466 0.02744 0.34394 0.0
C1372 C 0.92818 0.01766 0.35517 0.0
C1373 C 0.92784 0.0259 0.35203 0.0
C1374 C 0.92243 0.01246 0.34205 0.0
C1375 C 0.92535 0.01086 0.35025 0.0
C1376 C 0.92212 0.02066 0.33893 0.0
C1377 C 0.91488 0.06665 0.32952 0.0
C1378 C 0.90218 0.06458 0.32126 0.0
C1379 C 0.90978 0.07776 0.32041 0.0
C1380 C 0.91575 0.07468 0.32604 0.0
C1381 C 0.90285 0.07281 0.31804 0.0
C1382 C 0.90816 0.06151 0.32698 0.0
C1383 C 0.9205 0.06436 0.3365 0.0
O1384 O 0.928 0.05341 0.3586 0.0
O1385 O 0.93921 0.05375 0.35055 0.0
O1386 O 0.92772 0.06082 0.33459 0.0
O1387 O 0.91688 0.06112 0.34319 0.0
H1388 H 0.93558 0.0713 0.35263 0.0
H1389 H 0.93971 0.0839 0.3606 0.0
H1390 H 0.94652 0.06818 0.38169 0.0
H1391 H 0.94266 0.05569 0.37364 0.0
H1392 H 0.93045 0.01662 0.36151 0.0
H1393 H 0.92982 0.03108 0.356 0.0
H1394 H 0.92001 0.00741 0.33817 0.0
H1395 H 0.91958 0.02174 0.3327 0.0
H1396 H 0.8969 0.06063 0.31955 0.0
H1397 H 0.91037 0.08421 0.31829 0.0
H1398 H 0.92083 0.07877 0.32802 0.0
H1399 H 0.90736 0.05529 0.32963 0.0
C1400 C 0.67524 0.15784 0.13944 0.0
C1401 C 0.6679 0.15762 0.13453 0.0
C1402 C 0.66124 0.16788 0.14377 0.0
C1403 C 0.66098 0.16262 0.13666 0.0
C1404 C 0.66843 0.16768 0.14894 0.0
C1405 C 0.67539 0.16275 0.14675 0.0
U1406 U 0.68578 0.14057 0.12676 0.0
O1407 O 0.69659 0.14109 0.11815 0.0
O1408 O 0.69696 0.13274 0.12918 0.0
C1409 C 0.70096 0.13562 0.12252 0.0
C1410 C 0.68292 0.15341 0.13671 0.0
C1411 C 0.71005 0.13721 0.1233 0.0
C1412 C 0.72227 0.14431 0.12924 0.0
C1413 C 0.7135 0.14314 0.12889 0.0
C1414 C 0.72407 0.13374 0.11841 0.0
C1415 C 0.72765 0.13959 0.124 0.0
C1416 C 0.7154 0.13257 0.11809 0.0
C1417 C 0.67049 0.12614 0.11432 0.0
C1418 C 0.67261 0.11886 0.10104 0.0
C1419 C 0.65967 0.11686 0.10885 0.0
C1420 C 0.66264 0.12222 0.11513 0.0
C1421 C 0.6645 0.11534 0.1016 0.0
C1422 C 0.67559 0.12424 0.10735 0.0
C1423 C 0.67269 0.13285 0.1203 0.0
O1424 O 0.68387 0.14569 0.13953 0.0
O1425 O 0.68473 0.15419 0.12868 0.0
O1426 O 0.67606 0.13965 0.11703 0.0
O1427 O 0.6762 0.13054 0.12742 0.0
H1428 H 0.66762 0.1538 0.1289 0.0
H1429 H 0.65555 0.1626 0.13255 0.0
H1430 H 0.66874 0.17143 0.15462 0.0
H1431 H 0.68096 0.16292 0.15067 0.0
H1432 H 0.72484 0.14879 0.13368 0.0
H1433 H 0.70944 0.14679 0.13296 0.0
H1434 H 0.728 0.13008 0.11422 0.0
H1435 H 0.71286 0.128 0.11372 0.0
H1436 H 0.67653 0.11766 0.0956 0.0
H1437 H 0.6534 0.11427 0.10944 0.0
H1438 H 0.65862 0.12362 0.12046 0.0
H1439 H 0.6817 0.12717 0.10663 0.0
C1440 C 0.56465 0.06287 0.64208 0.0
C1441 C 0.56561 0.07095 0.64553 0.0
C1442 C 0.56039 0.07721 0.63254 0.0
C1443 C 0.56346 0.07808 0.6408 0.0
C1444 C 0.55928 0.0691 0.62922 0.0
C1445 C 0.56138 0.062 0.63395 0.0
U1446 U 0.57715 0.05198 0.65952 0.0
O1447 O 0.57432 0.04036 0.6666 0.0
O1448 O 0.58565 0.04115 0.65875 0.0
C1449 C 0.58082 0.03635 0.66343 0.0
C1450 C 0.5675 0.05529 0.64655 0.0
C1451 C 0.57928 0.02784 0.66008 0.0
C1452 C 0.57657 0.01842 0.64832 0.0
C1453 C 0.5767 0.02656 0.65173 0.0
C1454 C 0.58116 0.01275 0.66169 0.0
C1455 C 0.57908 0.01146 0.65319 0.0
C1456 C 0.58127 0.02087 0.66508 0.0
C1457 C 0.58932 0.06739 0.67447 0.0
C1458 C 0.60058 0.06474 0.68447 0.0
C1459 C 0.59602 0.07901 0.6817 0.0
C1460 C 0.59 0.076 0.6761 0.0
C1461 C 0.6015 0.07346 0.68586 0.0
C1462 C 0.59456 0.06172 0.67875 0.0
C1463 C 0.58354 0.06479 0.66774 0.0
O1464 O 0.57558 0.05371 0.64591 0.0
O1465 O 0.56455 0.05418 0.6542 0.0
O1466 O 0.57645 0.06114 0.66993 0.0
O1467 O 0.58703 0.06149 0.66102 0.0
H1468 H 0.56819 0.07175 0.65179 0.0
H1469 H 0.56447 0.08427 0.64347 0.0
H1470 H 0.5569 0.06825 0.62289 0.0
H1471 H 0.56062 0.05582 0.63118 0.0
H1472 H 0.57476 0.01761 0.6418 0.0
H1473 H 0.57509 0.03186 0.64777 0.0
H1474 H 0.58314 0.00754 0.6656 0.0
H1475 H 0.58328 0.02173 0.67154 0.0
H1476 H 0.60456 0.06027 0.68772 0.0
H1477 H 0.59658 0.08575 0.68252 0.0
H1478 H 0.58603 0.08047 0.67281 0.0
H1479 H 0.59411 0.05503 0.67755 0.0
C1480 C 0.67611 0.84601 0.36488 0.0
C1481 C 0.66798 0.84878 0.36698 0.0
C1482 C 0.66199 0.83595 0.36112 0.0
C1483 C 0.66096 0.84379 0.36508 0.0
C1484 C 0.67012 0.83335 0.3588 0.0
C1485 C 0.6771 0.83835 0.36064 0.0
U1486 U 0.68638 0.86347 0.37764 0.0
O1487 O 0.69742 0.86299 0.38594 0.0
O1488 O 0.69737 0.87156 0.37508 0.0
C1489 C 0.70166 0.86849 0.38145 0.0
C1490 C 0.68364 0.85062 0.36766 0.0
C1491 C 0.71066 0.86669 0.38 0.0
C1492 C 0.72244 0.85713 0.37771 0.0
C1493 C 0.71373 0.85857 0.37829 0.0
C1494 C 0.72501 0.87189 0.38046 0.0
C1495 C 0.72818 0.8638 0.3788 0.0
C1496 C 0.71637 0.87331 0.38101 0.0
C1497 C 0.67056 0.87761 0.39003 0.0
C1498 C 0.67256 0.88584 0.40276 0.0
C1499 C 0.65896 0.88564 0.39586 0.0
C1500 C 0.66219 0.88037 0.38964 0.0
C1501 C 0.66406 0.88825 0.40256 0.0
C1502 C 0.67581 0.88054 0.3965 0.0
C1503 C 0.67319 0.87096 0.38418 0.0
O1504 O 0.68443 0.85837 0.3649 0.0
O1505 O 0.68538 0.84984 0.3757 0.0
O1506 O 0.67682 0.86434 0.38755 0.0
O1507 O 0.67662 0.87332 0.37704 0.0
H1508 H 0.66709 0.85466 0.37031 0.0
H1509 H 0.65477 0.84589 0.36703 0.0
H1510 H 0.67108 0.82735 0.35572 0.0
H1511 H 0.68333 0.83611 0.359 0.0
H1512 H 0.7247 0.85083 0.37646 0.0
H1513 H 0.70942 0.85335 0.37754 0.0
H1514 H 0.72924 0.87712 0.38157 0.0
H1515 H 0.71415 0.8796 0.38245 0.0
H1516 H 0.67654 0.88774 0.40795 0.0
H1517 H 0.65237 0.88736 0.39568 0.0
H1518 H 0.65804 0.87813 0.38472 0.0
H1519 H 0.68228 0.87844 0.39692 0.0
C1520 C 0.93915 0.94093 0.14229 0.0
C1521 C 0.93919 0.93307 0.14635 0.0
C1522 C 0.94341 0.92623 0.13327 0.0
C1523 C 0.94135 0.92578 0.14188 0.0
C1524 C 0.94347 0.93414 0.12932 0.0
C1525 C 0.94137 0.9414 0.13379 0.0
U1526 U 0.92678 0.95213 0.15957 0.0
O1527 O 0.92968 0.96369 0.16671 0.0
O1528 O 0.9184 0.96306 0.15877 0.0
C1529 C 0.92319 0.96776 0.16359 0.0
C1530 C 0.93643 0.94865 0.14664 0.0
C1531 C 0.92465 0.9764 0.16055 0.0
C1532 C 0.92824 0.98628 0.14939 0.0
C1533 C 0.92821 0.97805 0.15261 0.0
C1534 C 0.92154 0.99128 0.16213 0.0
C1535 C 0.92471 0.9929 0.15406 0.0
C1536 C 0.92154 0.9831 0.16535 0.0
C1537 C 0.91448 0.93649 0.17432 0.0
C1538 C 0.90373 0.93884 0.18497 0.0
C1539 C 0.90751 0.92464 0.18094 0.0
C1540 C 0.91343 0.92781 0.17532 0.0
C1541 C 0.9025 0.93009 0.18577 0.0
C1542 C 0.90966 0.94203 0.17923 0.0
C1543 C 0.92025 0.9393 0.16768 0.0
O1544 O 0.92838 0.95037 0.14595 0.0
O1545 O 0.93937 0.94983 0.15428 0.0
O1546 O 0.92734 0.94292 0.16995 0.0
O1547 O 0.91679 0.94271 0.161 0.0
H1548 H 0.93746 0.93257 0.15292 0.0
H1549 H 0.9414 0.91981 0.14515 0.0
H1550 H 0.94496 0.9347 0.12269 0.0
H1551 H 0.94133 0.9474 0.13055 0.0
H1552 H 0.93062 0.9874 0.1431 0.0
H1553 H 0.9306 0.97294 0.14879 0.0
H1554 H 0.91871 0.99628 0.16578 0.0
H1555 H 0.91873 0.98195 0.17145 0.0
H1556 H 0.90009 0.94321 0.18872 0.0
H1557 H 0.90669 0.91789 0.1813 0.0
H1558 H 0.91706 0.92344 0.17154 0.0
H1559 H 0.91039 0.94877 0.17853 0.0
C1560 C 0.82831 0.15817 0.86538 0.0
C1561 C 0.83642 0.15468 0.86592 0.0
C1562 C 0.84254 0.16788 0.86102 0.0
C1563 C 0.84348 0.1595 0.86374 0.0
C1564 C 0.83438 0.17128 0.86046 0.0
C1565 C 0.82736 0.16646 0.86258 0.0
U1566 U 0.81799 0.14051 0.87795 0.0
O1567 O 0.80692 0.14088 0.88619 0.0
O1568 O 0.80698 0.13253 0.87517 0.0
C1569 C 0.80265 0.13553 0.88155 0.0
C1570 C 0.82081 0.15351 0.86818 0.0
C1571 C 0.79371 0.1375 0.88004 0.0
C1572 C 0.78211 0.14738 0.87836 0.0
C1573 C 0.79079 0.14577 0.87884 0.0
C1574 C 0.77928 0.13251 0.88003 0.0
C1575 C 0.77625 0.14077 0.87909 0.0
C1576 C 0.7879 0.13091 0.88049 0.0
C1577 C 0.83343 0.12602 0.89029 0.0
C1578 C 0.83095 0.11747 0.90272 0.0
C1579 C 0.84468 0.11753 0.89611 0.0
C1580 C 0.84171 0.12304 0.88998 0.0
C1581 C 0.83941 0.11486 0.90269 0.0
C1582 C 0.82798 0.12306 0.89657 0.0
C1583 C 0.83106 0.13282 0.88449 0.0
O1584 O 0.81998 0.1458 0.8653 0.0
O1585 O 0.81911 0.15418 0.87623 0.0
O1586 O 0.82746 0.13943 0.88791 0.0
O1587 O 0.82771 0.13062 0.87726 0.0
H1588 H 0.83729 0.1483 0.86815 0.0
H1589 H 0.84967 0.15671 0.86425 0.0
H1590 H 0.83343 0.17778 0.85866 0.0
H1591 H 0.82116 0.16928 0.86223 0.0
H1592 H 0.77999 0.15379 0.87747 0.0
H1593 H 0.79518 0.15096 0.87846 0.0
H1594 H 0.77496 0.12728 0.88069 0.0
H1595 H 0.79001 0.12451 0.88146 0.0
H1596 H 0.82669 0.11537 0.9076 0.0
H1597 H 0.85124 0.11568 0.89592 0.0
H1598 H 0.84601 0.12528 0.88518 0.0
H1599 H 0.82154 0.12527 0.89688 0.0
C1600 C 0.862 0.56447 0.94121 0.0
C1601 C 0.85958 0.5676 0.93331 0.0
C1602 C 0.87122 0.56015 0.92669 0.0
C1603 C 0.86416 0.56545 0.92609 0.0
C1604 C 0.87343 0.55683 0.93458 0.0
C1605 C 0.86886 0.55897 0.94178 0.0
U1606 U 0.84514 0.57731 0.95226 0.0
O1607 O 0.83779 0.57478 0.96376 0.0
O1608 O 0.84606 0.58583 0.96309 0.0
C1609 C 0.84101 0.58126 0.96777 0.0
C1610 C 0.85785 0.56732 0.94897 0.0
C1611 C 0.84382 0.57987 0.97649 0.0
C1612 C 0.85401 0.57486 0.98677 0.0
C1613 C 0.85112 0.57528 0.97843 0.0
C1614 C 0.8422 0.58339 0.99126 0.0
C1615 C 0.84961 0.57899 0.99326 0.0
C1616 C 0.83934 0.5838 0.98297 0.0
C1617 C 0.83055 0.5895 0.9365 0.0
C1618 C 0.82033 0.60064 0.93882 0.0
C1619 C 0.82354 0.59601 0.92465 0.0
C1620 C 0.82918 0.59013 0.92784 0.0
C1621 C 0.81903 0.60134 0.93008 0.0
C1622 C 0.82607 0.59473 0.94203 0.0
C1623 C 0.83717 0.58371 0.9393 0.0
O1624 O 0.8587 0.57537 0.9506 0.0
O1625 O 0.85015 0.56455 0.9502 0.0
O1626 O 0.83483 0.5767 0.943 0.0
O1627 O 0.84389 0.58715 0.94267 0.0
H1628 H 0.85432 0.57189 0.93277 0.0
H1629 H 0.86239 0.5682 0.92012 0.0
H1630 H 0.87881 0.55269 0.93521 0.0
H1631 H 0.87081 0.5565 0.94782 0.0
H1632 H 0.85974 0.57145 0.98813 0.0
H1633 H 0.85468 0.57223 0.97349 0.0
H1634 H 0.83879 0.58681 0.99606 0.0
H1635 H 0.83375 0.58744 0.98158 0.0
H1636 H 0.81699 0.60471 0.94314 0.0
H1637 H 0.82293 0.59658 0.91789 0.0
H1638 H 0.83267 0.58622 0.92349 0.0
H1639 H 0.82712 0.59436 0.94875 0.0
C1640 C 0.36174 0.93998 0.0626 0.0
C1641 C 0.35909 0.93742 0.07064 0.0
C1642 C 0.37141 0.94406 0.07687 0.0
C1643 C 0.36388 0.9395 0.07775 0.0
C1644 C 0.37381 0.94689 0.06885 0.0
C1645 C 0.36902 0.94485 0.06178 0.0
U1646 U 0.34475 0.92703 0.05169 0.0
O1647 O 0.33737 0.92966 0.04022 0.0
O1648 O 0.34568 0.91864 0.04077 0.0
C1649 C 0.34072 0.92331 0.0361 0.0
C1650 C 0.35741 0.9371 0.05495 0.0
C1651 C 0.34378 0.92502 0.02751 0.0
C1652 C 0.3551 0.92838 0.01776 0.0
C1653 C 0.35198 0.92795 0.026 0.0
C1654 C 0.34174 0.92332 0.01246 0.0
C1655 C 0.35006 0.92592 0.01091 0.0
C1656 C 0.33865 0.92289 0.02068 0.0
C1657 C 0.33044 0.91454 0.06755 0.0
C1658 C 0.32003 0.90353 0.06541 0.0
C1659 C 0.32381 0.90786 0.07953 0.0
C1660 C 0.3294 0.91373 0.07625 0.0
C1661 C 0.31904 0.90269 0.07418 0.0
C1662 C 0.32571 0.90944 0.0621 0.0
C1663 C 0.33695 0.92039 0.06463 0.0
O1664 O 0.35831 0.92907 0.05327 0.0
O1665 O 0.34966 0.9398 0.05389 0.0
O1666 O 0.33449 0.92741 0.06101 0.0
O1667 O 0.34366 0.91704 0.06116 0.0
H1668 H 0.35348 0.93363 0.07138 0.0
H1669 H 0.36191 0.93725 0.08387 0.0
H1670 H 0.37953 0.95051 0.06803 0.0
H1671 H 0.37114 0.94688 0.05563 0.0
H1672 H 0.36152 0.93042 0.01675 0.0
H1673 H 0.35606 0.92961 0.0312 0.0
H1674 H 0.33775 0.9212 0.00737 0.0
H1675 H 0.33233 0.92056 0.02173 0.0
H1676 H 0.31648 0.89957 0.06115 0.0
H1677 H 0.32343 0.90718 0.0863 0.0
H1678 H 0.33308 0.91754 0.08054 0.0
H1679 H 0.32651 0.90994 0.05535 0.0
C1680 C 0.84692 0.63911 0.82915 0.0
C1681 C 0.84751 0.63411 0.83641 0.0
C1682 C 0.83685 0.64265 0.84327 0.0
C1683 C 0.84247 0.63584 0.8434 0.0
C1684 C 0.83662 0.64794 0.83621 0.0
C1685 C 0.84161 0.64615 0.82917 0.0
U1686 U 0.86404 0.62662 0.81832 0.0
O1687 O 0.86347 0.61833 0.80731 0.0
O1688 O 0.87195 0.62928 0.80721 0.0
C1689 C 0.86888 0.62286 0.80299 0.0
C1690 C 0.8513 0.63662 0.82138 0.0
C1691 C 0.86695 0.62418 0.79402 0.0
C1692 C 0.85707 0.62556 0.78237 0.0
C1693 C 0.85873 0.62562 0.79106 0.0
C1694 C 0.87182 0.6229 0.77962 0.0
C1695 C 0.8636 0.62397 0.77661 0.0
C1696 C 0.87348 0.62303 0.78823 0.0
C1697 C 0.87845 0.61391 0.83349 0.0
C1698 C 0.88572 0.60058 0.83163 0.0
C1699 C 0.88819 0.60893 0.84414 0.0
C1700 C 0.88265 0.61504 0.84115 0.0
C1701 C 0.88967 0.60156 0.8395 0.0
C1702 C 0.88017 0.60673 0.82863 0.0
C1703 C 0.87171 0.61985 0.83128 0.0
O1704 O 0.85904 0.63938 0.82053 0.0
O1705 O 0.85044 0.62865 0.81936 0.0
O1706 O 0.86496 0.61662 0.82777 0.0
O1707 O 0.87401 0.62706 0.82797 0.0
H1708 H 0.85163 0.62868 0.83655 0.0
H1709 H 0.84276 0.63171 0.84881 0.0
H1710 H 0.8323 0.6532 0.83598 0.0
H1711 H 0.84109 0.65009 0.82363 0.0
H1712 H 0.85067 0.62637 0.78018 0.0
H1713 H 0.85359 0.62649 0.79544 0.0
H1714 H 0.87696 0.62171 0.77529 0.0
H1715 H 0.87984 0.62188 0.79038 0.0
H1716 H 0.88676 0.59496 0.82793 0.0
H1717 H 0.89098 0.60979 0.8503 0.0
H1718 H 0.88136 0.62051 0.84501 0.0
H1719 H 0.87699 0.60573 0.82269 0.0
C1720 C 0.14233 0.06433 0.56318 0.0
C1721 C 0.14558 0.0658 0.57126 0.0
C1722 C 0.13276 0.06019 0.57752 0.0
C1723 C 0.14083 0.06372 0.5784 0.0
C1724 C 0.12966 0.05855 0.56941 0.0
C1725 C 0.13441 0.06059 0.56231 0.0
U1726 U 0.15972 0.0768 0.55218 0.0
O1727 O 0.16678 0.07397 0.54055 0.0
O1728 O 0.1589 0.08529 0.54134 0.0
C1729 C 0.16372 0.08056 0.53659 0.0
C1730 C 0.14676 0.06716 0.55556 0.0
C1731 C 0.16078 0.07933 0.52789 0.0
C1732 C 0.14994 0.07563 0.5177 0.0
C1733 C 0.15305 0.07547 0.52598 0.0
C1734 C 0.1624 0.08315 0.51321 0.0
C1735 C 0.15449 0.07971 0.5113 0.0
C1736 C 0.16551 0.08294 0.5214 0.0
C1737 C 0.1749 0.08908 0.56718 0.0
C1738 C 0.18326 0.10166 0.56478 0.0
C1739 C 0.18344 0.09487 0.57841 0.0
C1740 C 0.17799 0.0887 0.57541 0.0
C1741 C 0.18598 0.10156 0.57322 0.0
C1742 C 0.1777 0.09549 0.56179 0.0
C1743 C 0.16808 0.08326 0.56488 0.0
O1744 O 0.14612 0.07524 0.55397 0.0
O1745 O 0.1544 0.06421 0.55442 0.0
O1746 O 0.17018 0.07611 0.56129 0.0
O1747 O 0.16129 0.08669 0.56166 0.0
H1748 H 0.15167 0.06876 0.57204 0.0
H1749 H 0.14332 0.06515 0.58458 0.0
H1750 H 0.12349 0.05579 0.56855 0.0
H1751 H 0.1318 0.05943 0.55612 0.0
H1752 H 0.14379 0.07299 0.5164 0.0
H1753 H 0.14929 0.07267 0.53093 0.0
H1754 H 0.16605 0.0863 0.50839 0.0
H1755 H 0.17148 0.08595 0.52275 0.0
H1756 H 0.18529 0.10659 0.56053 0.0
H1757 H 0.18534 0.0946 0.58495 0.0
H1758 H 0.17586 0.08381 0.57967 0.0
H1759 H 0.17539 0.09587 0.55539 0.0
C1760 C 0.15732 0.86457 0.82851 0.0
C1761 C 0.15656 0.86966 0.83569 0.0
C1762 C 0.16741 0.8615 0.84276 0.0
C1763 C 0.16159 0.86815 0.84275 0.0
C1764 C 0.16777 0.85609 0.83578 0.0
C1765 C 0.16278 0.85765 0.82868 0.0
U1766 U 0.14068 0.87745 0.81755 0.0
O1767 O 0.14149 0.8856 0.80644 0.0
O1768 O 0.1325 0.87509 0.80658 0.0
C1769 C 0.13577 0.88135 0.80226 0.0
C1770 C 0.15298 0.8669 0.82066 0.0
C1771 C 0.13744 0.87998 0.79324 0.0
C1772 C 0.14671 0.87652 0.78151 0.0
C1773 C 0.14504 0.87661 0.79021 0.0
C1774 C 0.13315 0.88296 0.77889 0.0
C1775 C 0.14084 0.8799 0.77582 0.0
C1776 C 0.13147 0.88297 0.7875 0.0
C1777 C 0.12798 0.89109 0.83392 0.0
C1778 C 0.11473 0.89876 0.83367 0.0
C1779 C 0.12446 0.90068 0.84524 0.0
C1780 C 0.13 0.89501 0.84153 0.0
C1781 C 0.11671 0.90252 0.84143 0.0
C1782 C 0.12033 0.89302 0.82994 0.0
C1783 C 0.13396 0.88478 0.83073 0.0
O1784 O 0.14508 0.86451 0.82 0.0
O1785 O 0.15418 0.87473 0.81831 0.0
O1786 O 0.1407 0.88765 0.82691 0.0
O1787 O 0.13092 0.87786 0.82739 0.0
H1788 H 0.15232 0.875 0.83572 0.0
H1789 H 0.16113 0.87235 0.8481 0.0
H1790 H 0.17222 0.85093 0.83565 0.0
H1791 H 0.16343 0.85364 0.82321 0.0
H1792 H 0.15269 0.87414 0.77927 0.0
H1793 H 0.14975 0.87431 0.79456 0.0
H1794 H 0.12852 0.88555 0.77461 0.0
H1795 H 0.12558 0.88562 0.7897 0.0
H1796 H 0.10881 0.90014 0.83059 0.0
H1797 H 0.12625 0.90363 0.85111 0.0
H1798 H 0.13588 0.89361 0.84469 0.0
H1799 H 0.11866 0.89004 0.82404 0.0
C1800 C 0.64325 0.4396 0.44089 0.0
C1801 C 0.64492 0.43542 0.43328 0.0
C1802 C 0.63392 0.44348 0.42637 0.0
C1803 C 0.64023 0.43731 0.42608 0.0
C1804 C 0.63254 0.44792 0.43387 0.0
C1805 C 0.63716 0.44596 0.4411 0.0
U1806 U 0.66008 0.42706 0.45232 0.0
O1807 O 0.66709 0.42966 0.46401 0.0
O1808 O 0.659 0.4185 0.4631 0.0
C1809 C 0.66385 0.42313 0.46792 0.0
C1810 C 0.64733 0.43691 0.44876 0.0
C1811 C 0.66077 0.42446 0.47656 0.0
C1812 C 0.6506 0.42997 0.48661 0.0
C1813 C 0.65378 0.42955 0.47836 0.0
C1814 C 0.66152 0.42041 0.49126 0.0
C1815 C 0.65436 0.42527 0.49311 0.0
C1816 C 0.66467 0.42002 0.48308 0.0
C1817 C 0.67509 0.41478 0.43706 0.0
C1818 C 0.68365 0.4023 0.43935 0.0
C1819 C 0.68289 0.40861 0.42549 0.0
C1820 C 0.67761 0.41487 0.42862 0.0
C1821 C 0.6858 0.4022 0.43077 0.0
C1822 C 0.67827 0.40857 0.44249 0.0
C1823 C 0.66839 0.42064 0.43958 0.0
O1824 O 0.64653 0.42887 0.45048 0.0
O1825 O 0.65498 0.43976 0.45006 0.0
O1826 O 0.67062 0.42768 0.4433 0.0
O1827 O 0.66156 0.41724 0.44275 0.0
H1828 H 0.64962 0.43049 0.433 0.0
H1829 H 0.64136 0.43381 0.42034 0.0
H1830 H 0.62764 0.45264 0.43423 0.0
H1831 H 0.63578 0.44923 0.44692 0.0
H1832 H 0.64516 0.43387 0.48786 0.0
H1833 H 0.65068 0.43303 0.47339 0.0
H1834 H 0.66451 0.41665 0.49608 0.0
H1835 H 0.67005 0.41604 0.4818 0.0
H1836 H 0.68581 0.39734 0.44349 0.0
H1837 H 0.68445 0.4086 0.41885 0.0
H1838 H 0.67517 0.41958 0.42434 0.0
H1839 H 0.67634 0.40837 0.44902 0.0
C1840 C 0.84607 0.36505 0.67619 0.0
C1841 C 0.84917 0.36691 0.66813 0.0
C1842 C 0.83657 0.36087 0.66176 0.0
C1843 C 0.84446 0.36481 0.66097 0.0
C1844 C 0.83359 0.35894 0.66987 0.0
C1845 C 0.83831 0.36097 0.677 0.0
U1846 U 0.86307 0.37823 0.68654 0.0
O1847 O 0.86246 0.38654 0.69757 0.0
O1848 O 0.87135 0.37594 0.69743 0.0
C1849 C 0.86822 0.38229 0.70171 0.0
C1850 C 0.8505 0.36788 0.68382 0.0
C1851 C 0.86676 0.381 0.71079 0.0
C1852 C 0.85826 0.37665 0.7228 0.0
C1853 C 0.85943 0.37725 0.71404 0.0
C1854 C 0.87167 0.38351 0.72502 0.0
C1855 C 0.86441 0.37974 0.72838 0.0
C1856 C 0.87284 0.38408 0.71635 0.0
C1857 C 0.87636 0.39085 0.66994 0.0
C1858 C 0.88861 0.39991 0.67135 0.0
C1859 C 0.88138 0.39883 0.65797 0.0
C1860 C 0.87569 0.3932 0.66149 0.0
C1861 C 0.88796 0.4022 0.66281 0.0
C1862 C 0.88285 0.39422 0.6749 0.0
C1863 C 0.87006 0.38492 0.67316 0.0
O1864 O 0.85833 0.36534 0.68465 0.0
O1865 O 0.84948 0.37588 0.68564 0.0
O1866 O 0.86348 0.38818 0.67695 0.0
O1867 O 0.87278 0.37794 0.67666 0.0
H1868 H 0.85513 0.37013 0.66738 0.0
H1869 H 0.84694 0.36639 0.65482 0.0
H1870 H 0.82744 0.35615 0.67075 0.0
H1871 H 0.83577 0.35959 0.68317 0.0
H1872 H 0.85258 0.37374 0.72521 0.0
H1873 H 0.85463 0.37489 0.70983 0.0
H1874 H 0.87642 0.38617 0.72912 0.0
H1875 H 0.87848 0.38709 0.71397 0.0
H1876 H 0.89359 0.40247 0.67522 0.0
H1877 H 0.88052 0.40067 0.65147 0.0
H1878 H 0.87068 0.3907 0.65759 0.0
H1879 H 0.88343 0.39249 0.68146 0.0
C1880 C 0.65789 0.63974 0.17564 0.0
C1881 C 0.65555 0.63702 0.16756 0.0
C1882 C 0.66809 0.64352 0.16166 0.0
C1883 C 0.66061 0.63894 0.16059 0.0
C1884 C 0.67019 0.64654 0.16969 0.0
C1885 C 0.66512 0.64467 0.17662 0.0
U1886 U 0.64058 0.62677 0.18589 0.0
O1887 O 0.64123 0.61813 0.19667 0.0
O1888 O 0.63275 0.62905 0.1971 0.0
C1889 C 0.63574 0.62245 0.20109 0.0
C1890 C 0.65336 0.63685 0.18317 0.0
C1891 C 0.63745 0.62333 0.21015 0.0
C1892 C 0.64493 0.62919 0.22219 0.0
C1893 C 0.64366 0.62871 0.21343 0.0
C1894 C 0.6339 0.6189 0.22431 0.0
C1895 C 0.64001 0.6243 0.22771 0.0
C1896 C 0.63264 0.61844 0.21566 0.0
C1897 C 0.6262 0.61433 0.17055 0.0
C1898 C 0.61924 0.60084 0.17242 0.0
C1899 C 0.61678 0.60899 0.15978 0.0
C1900 C 0.62209 0.61529 0.16281 0.0
C1901 C 0.61553 0.60159 0.16442 0.0
C1902 C 0.62454 0.60718 0.17548 0.0
C1903 C 0.63287 0.62035 0.17278 0.0
O1904 O 0.6456 0.63957 0.18408 0.0
O1905 O 0.65419 0.62879 0.18479 0.0
O1906 O 0.63971 0.61711 0.1761 0.0
O1907 O 0.63052 0.62743 0.17634 0.0
H1908 H 0.65 0.63316 0.16669 0.0
H1909 H 0.65891 0.63651 0.15446 0.0
H1910 H 0.67592 0.6501 0.17064 0.0
H1911 H 0.66702 0.64681 0.18281 0.0
H1912 H 0.64964 0.63346 0.22464 0.0
H1913 H 0.64745 0.63254 0.20926 0.0
H1914 H 0.63007 0.61499 0.22837 0.0
H1915 H 0.62786 0.61421 0.21324 0.0
H1916 H 0.61828 0.59523 0.17616 0.0
H1917 H 0.61403 0.6097 0.15359 0.0
H1918 H 0.62331 0.62076 0.15892 0.0
H1919 H 0.62762 0.60633 0.1815 0.0
C1920 C 0.56256 0.64083 0.93779 0.0
C1921 C 0.56989 0.64156 0.9329 0.0
C1922 C 0.57729 0.63206 0.94239 0.0
C1923 C 0.57718 0.63718 0.93517 0.0
C1924 C 0.56998 0.63148 0.94733 0.0
C1925 C 0.56269 0.63584 0.94505 0.0
U1926 U 0.55058 0.65775 0.92566 0.0
O1927 O 0.53949 0.65669 0.91754 0.0
O1928 O 0.53893 0.6646 0.92885 0.0
C1929 C 0.53479 0.66139 0.92245 0.0
C1930 C 0.55465 0.6449 0.9352 0.0
C1931 C 0.52629 0.65813 0.92417 0.0
C1932 C 0.51671 0.64651 0.92685 0.0
C1933 C 0.52492 0.64971 0.92645 0.0
C1934 C 0.5112 0.6602 0.92305 0.0
C1935 C 0.50977 0.65169 0.925 0.0
C1936 C 0.51938 0.66338 0.92266 0.0
C1937 C 0.56441 0.67351 0.91292 0.0
C1938 C 0.5636 0.67951 0.89886 0.0
C1939 C 0.57393 0.68471 0.90878 0.0
C1940 C 0.57093 0.67912 0.91484 0.0
C1941 C 0.57046 0.68478 0.90065 0.0
C1942 C 0.56055 0.67393 0.90496 0.0
C1943 C 0.56274 0.66655 0.91881 0.0
O1944 O 0.5533 0.65249 0.93821 0.0
O1945 O 0.55277 0.64421 0.92718 0.0
O1946 O 0.55975 0.65957 0.91554 0.0
O1947 O 0.55942 0.66846 0.92614 0.0
H1948 H 0.56992 0.64539 0.92726 0.0
H1949 H 0.58267 0.63765 0.93116 0.0
H1950 H 0.56991 0.62764 0.95295 0.0
H1951 H 0.5571 0.63522 0.9489 0.0
H1952 H 0.5158 0.63994 0.9284 0.0
H1953 H 0.53019 0.64555 0.92763 0.0
H1954 H 0.50603 0.66431 0.9214 0.0
H1955 H 0.52033 0.66988 0.92083 0.0
H1956 H 0.56083 0.67945 0.89263 0.0
H1957 H 0.57932 0.68859 0.91028 0.0
H1958 H 0.57404 0.67884 0.9209 0.0
H1959 H 0.5555 0.66967 0.90332 0.0
C1960 C 0.64251 0.33001 0.15421 0.0
C1961 C 0.63682 0.3367 0.15513 0.0
C1962 C 0.64653 0.34371 0.16467 0.0
C1963 C 0.63881 0.34349 0.16035 0.0
C1964 C 0.65248 0.33736 0.16312 0.0
C1965 C 0.65045 0.33053 0.15798 0.0
U1966 U 0.63022 0.31626 0.13835 0.0
O1967 O 0.63414 0.304 0.13307 0.0
O1968 O 0.62296 0.30485 0.14149 0.0
C1969 C 0.62811 0.30006 0.13717 0.0
C1970 C 0.63995 0.322 0.15037 0.0
C1971 C 0.62691 0.29091 0.13651 0.0
C1972 C 0.63231 0.27684 0.13903 0.0
C1973 C 0.63366 0.28549 0.13822 0.0
C1974 C 0.61751 0.27885 0.13598 0.0
C1975 C 0.62422 0.27346 0.13797 0.0
C1976 C 0.61883 0.28754 0.13536 0.0
C1977 C 0.61637 0.32972 0.12237 0.0
C1978 C 0.6025 0.32847 0.11606 0.0
C1979 C 0.6106 0.34123 0.11414 0.0
C1980 C 0.61718 0.33774 0.11879 0.0
C1981 C 0.60312 0.33673 0.11297 0.0
C1982 C 0.60911 0.32496 0.12074 0.0
C1983 C 0.62245 0.32737 0.12894 0.0
O1984 O 0.63205 0.31986 0.15151 0.0
O1985 O 0.64272 0.3204 0.14275 0.0
O1986 O 0.62966 0.32394 0.12675 0.0
O1987 O 0.61941 0.32452 0.13608 0.0
H1988 H 0.63066 0.33645 0.15222 0.0
H1989 H 0.6341 0.3483 0.16139 0.0
H1990 H 0.65858 0.33749 0.16615 0.0
H1991 H 0.65495 0.32545 0.15728 0.0
H1992 H 0.63756 0.27279 0.1406 0.0
H1993 H 0.6399 0.28799 0.1393 0.0
H1994 H 0.61121 0.27637 0.1352 0.0
H1995 H 0.61351 0.29164 0.13417 0.0
H1996 H 0.59671 0.32496 0.11533 0.0
H1997 H 0.61112 0.34767 0.11197 0.0
H1998 H 0.62268 0.34156 0.12009 0.0
H1999 H 0.60833 0.31879 0.12352 0.0
C2000 C 0.94221 0.36349 0.43774 0.0
C2001 C 0.93439 0.36096 0.43452 0.0
C2002 C 0.92744 0.37225 0.44225 0.0
C2003 C 0.92706 0.36528 0.43679 0.0
C2004 C 0.93528 0.37458 0.44562 0.0
C2005 C 0.94259 0.37024 0.44338 0.0
U2006 U 0.95386 0.34635 0.42562 0.0
O2007 O 0.96487 0.3472 0.41736 0.0
O2008 O 0.96549 0.33946 0.42879 0.0
C2009 C 0.96961 0.34261 0.42234 0.0
C2010 C 0.95005 0.35938 0.43503 0.0
C2011 C 0.97809 0.34597 0.42401 0.0
C2012 C 0.98757 0.35776 0.42626 0.0
C2013 C 0.97939 0.35451 0.42588 0.0
C2014 C 0.99322 0.34392 0.42334 0.0
C2015 C 0.99457 0.35253 0.42483 0.0
C2016 C 0.98505 0.34068 0.42294 0.0
C2017 C 0.93909 0.33061 0.41364 0.0
C2018 C 0.94064 0.32268 0.40064 0.0
C2019 C 0.92806 0.3211 0.40909 0.0
C2020 C 0.93129 0.32675 0.41497 0.0
C2021 C 0.93257 0.31917 0.40174 0.0
C2022 C 0.94387 0.3284 0.40654 0.0
C2023 C 0.94139 0.33763 0.41922 0.0
O2024 O 0.95143 0.35183 0.43812 0.0
O2025 O 0.9517 0.35993 0.42695 0.0
O2026 O 0.94458 0.34435 0.41561 0.0
O2027 O 0.94487 0.33579 0.42649 0.0
H2028 H 0.93398 0.3557 0.4302 0.0
H2029 H 0.9211 0.36315 0.43428 0.0
H2030 H 0.93579 0.3799 0.44985 0.0
H2031 H 0.94858 0.37226 0.44593 0.0
H2032 H 0.98843 0.36442 0.42746 0.0
H2033 H 0.97409 0.35871 0.42674 0.0
H2034 H 0.99845 0.33975 0.42205 0.0
H2035 H 0.98417 0.33409 0.42145 0.0
H2036 H 0.94433 0.32119 0.39511 0.0
H2037 H 0.92181 0.31859 0.41011 0.0
H2038 H 0.92749 0.32842 0.42037 0.0
H2039 H 0.94992 0.33131 0.40541 0.0
C2040 C 0.86217 0.67342 0.65415 0.0
C2041 C 0.86779 0.6667 0.65533 0.0
C2042 C 0.85793 0.6601 0.66501 0.0
C2043 C 0.86567 0.66008 0.66073 0.0
C2044 C 0.85206 0.66646 0.66323 0.0
C2045 C 0.8542 0.67309 0.65787 0.0
U2046 U 0.87424 0.68768 0.63828 0.0
O2047 O 0.86999 0.69997 0.63347 0.0
O2048 O 0.88127 0.69919 0.64176 0.0
C2049 C 0.87609 0.70394 0.63741 0.0
C2050 C 0.86484 0.68137 0.65026 0.0
C2051 C 0.87661 0.71317 0.63741 0.0
C2052 C 0.87189 0.72677 0.6425 0.0
C2053 C 0.87067 0.71809 0.64167 0.0
C2054 C 0.8848 0.72573 0.63449 0.0
C2055 C 0.87896 0.73073 0.63889 0.0
C2056 C 0.88367 0.71704 0.63383 0.0
C2057 C 0.88807 0.67492 0.62147 0.0
C2058 C 0.90238 0.67443 0.61604 0.0
C2059 C 0.89216 0.66412 0.61143 0.0
C2060 C 0.88603 0.668 0.61639 0.0
C2061 C 0.90048 0.6671 0.61143 0.0
C2062 C 0.89623 0.6783 0.62104 0.0
C2063 C 0.88214 0.67718 0.62826 0.0
O2064 O 0.87276 0.68346 0.65129 0.0
O2065 O 0.8619 0.68313 0.64273 0.0
O2066 O 0.87476 0.68042 0.62638 0.0
O2067 O 0.88526 0.67988 0.63543 0.0
H2068 H 0.87399 0.66682 0.65248 0.0
H2069 H 0.87031 0.65525 0.66197 0.0
H2070 H 0.84597 0.66652 0.66627 0.0
H2071 H 0.84977 0.6782 0.65701 0.0
H2072 H 0.86744 0.7303 0.64625 0.0
H2073 H 0.86527 0.71518 0.64465 0.0
H2074 H 0.89032 0.72853 0.63162 0.0
H2075 H 0.88838 0.71329 0.63063 0.0
H2076 H 0.90876 0.6768 0.6163 0.0
H2077 H 0.8905 0.65852 0.60793 0.0
H2078 H 0.87982 0.66523 0.6167 0.0
H2079 H 0.89799 0.68359 0.62496 0.0
C2080 C 0.5619 0.36347 0.56558 0.0
C2081 C 0.56969 0.36119 0.56904 0.0
C2082 C 0.57659 0.37244 0.56122 0.0
C2083 C 0.57698 0.36561 0.56685 0.0
C2084 C 0.56879 0.37452 0.55759 0.0
C2085 C 0.56152 0.37008 0.55976 0.0
U2086 U 0.55033 0.34633 0.57772 0.0
O2087 O 0.53938 0.34718 0.58605 0.0
O2088 O 0.5387 0.33937 0.57467 0.0
C2089 C 0.53465 0.34247 0.58118 0.0
C2090 C 0.55407 0.35931 0.56824 0.0
C2091 C 0.52605 0.34557 0.57971 0.0
C2092 C 0.51605 0.35706 0.57828 0.0
C2093 C 0.52436 0.35412 0.57825 0.0
C2094 C 0.51105 0.34288 0.58071 0.0
C2095 C 0.50934 0.3515 0.57982 0.0
C2096 C 0.51933 0.33995 0.58069 0.0
C2097 C 0.56449 0.33064 0.59011 0.0
C2098 C 0.5633 0.32423 0.60396 0.0
C2099 C 0.57451 0.32002 0.59454 0.0
C2100 C 0.57145 0.32551 0.58842 0.0
C2101 C 0.57067 0.31957 0.60249 0.0
C2102 C 0.56023 0.32975 0.59781 0.0
C2103 C 0.5627 0.33761 0.58429 0.0
O2104 O 0.55277 0.35174 0.56519 0.0
O2105 O 0.55237 0.35991 0.5763 0.0
O2106 O 0.55969 0.34453 0.58766 0.0
O2107 O 0.55927 0.33572 0.577 0.0
H2108 H 0.57011 0.35605 0.57351 0.0
H2109 H 0.58293 0.36369 0.56957 0.0
H2110 H 0.56828 0.37973 0.55323 0.0
H2111 H 0.55556 0.37191 0.55702 0.0
H2112 H 0.51489 0.36374 0.57754 0.0
H2113 H 0.52947 0.35856 0.57745 0.0
H2114 H 0.50599 0.33842 0.58171 0.0
H2115 H 0.52051 0.33333 0.58178 0.0
H2116 H 0.56013 0.32388 0.60998 0.0
H2117 H 0.58022 0.31654 0.59323 0.0
H2118 H 0.57484 0.32612 0.58253 0.0
H2119 H 0.5548 0.33361 0.59924 0.0
C2120 C 0.8626 0.32659 0.84839 0.0
C2121 C 0.86443 0.33462 0.85158 0.0
C2122 C 0.85924 0.34108 0.83865 0.0
C2123 C 0.86269 0.34181 0.84679 0.0
C2124 C 0.8571 0.33302 0.83567 0.0
C2125 C 0.85876 0.32586 0.8405 0.0
U2126 U 0.87564 0.31615 0.86542 0.0
O2127 O 0.87338 0.30505 0.87347 0.0
O2128 O 0.88412 0.30529 0.86475 0.0
C2129 C 0.87979 0.30091 0.87027 0.0
C2130 C 0.86533 0.31893 0.85283 0.0
C2131 C 0.87858 0.2919 0.86838 0.0
C2132 C 0.87753 0.28022 0.85849 0.0
C2133 C 0.87725 0.2889 0.86016 0.0
C2134 C 0.8801 0.27749 0.87325 0.0
C2135 C 0.87924 0.27447 0.865 0.0
C2136 C 0.87977 0.28611 0.87492 0.0
C2137 C 0.88837 0.33268 0.87868 0.0
C2138 C 0.89808 0.33107 0.89039 0.0
C2139 C 0.89674 0.34452 0.88335 0.0
C2140 C 0.89073 0.34112 0.87798 0.0
C2141 C 0.90048 0.33957 0.88964 0.0
C2142 C 0.89202 0.32763 0.88494 0.0
C2143 C 0.88231 0.32949 0.87248 0.0
O2144 O 0.87332 0.31707 0.85183 0.0
O2145 O 0.86276 0.3181 0.86065 0.0
O2146 O 0.87542 0.32589 0.87528 0.0
O2147 O 0.8855 0.32582 0.8658 0.0
H2148 H 0.8674 0.33531 0.85768 0.0
H2149 H 0.86419 0.34792 0.84939 0.0
H2150 H 0.85449 0.3322 0.82944 0.0
H2151 H 0.85734 0.31971 0.83793 0.0
H2152 H 0.87684 0.27803 0.85207 0.0
H2153 H 0.87632 0.29326 0.85501 0.0
H2154 H 0.88133 0.27319 0.87839 0.0
H2155 H 0.88082 0.28828 0.88129 0.0
H2156 H 0.90093 0.32709 0.89513 0.0
H2157 H 0.89864 0.35099 0.88239 0.0
H2158 H 0.88803 0.34507 0.87312 0.0
H2159 H 0.89029 0.32107 0.88553 0.0
C2160 C 0.9418 0.64128 0.06635 0.0
C2161 C 0.93435 0.64187 0.07106 0.0
C2162 C 0.92741 0.63205 0.06154 0.0
C2163 C 0.92722 0.63728 0.06868 0.0
C2164 C 0.9348 0.63174 0.05668 0.0
C2165 C 0.94193 0.63629 0.05908 0.0
U2166 U 0.95338 0.65843 0.07861 0.0
O2167 O 0.96435 0.65752 0.08691 0.0
O2168 O 0.96505 0.6653 0.07551 0.0
C2169 C 0.96912 0.66213 0.08198 0.0
C2170 C 0.94958 0.64549 0.06909 0.0
C2171 C 0.97757 0.65873 0.08034 0.0
C2172 C 0.98687 0.64691 0.07755 0.0
C2173 C 0.97876 0.65034 0.07783 0.0
C2174 C 0.99269 0.66032 0.08185 0.0
C2175 C 0.9939 0.6518 0.07984 0.0
C2176 C 0.9846 0.66374 0.08211 0.0
C2177 C 0.93913 0.67416 0.091 0.0
C2178 C 0.93999 0.68058 0.10487 0.0
C2179 C 0.92911 0.68492 0.09513 0.0
C2180 C 0.93226 0.67934 0.08912 0.0
C2181 C 0.93281 0.68544 0.10314 0.0
C2182 C 0.94316 0.67499 0.09883 0.0
C2183 C 0.94103 0.66718 0.0852 0.0
O2184 O 0.95089 0.65307 0.06606 0.0
O2185 O 0.95129 0.64487 0.07716 0.0
O2186 O 0.94406 0.66027 0.08859 0.0
O2187 O 0.94446 0.66907 0.07792 0.0
H2188 H 0.9341 0.64573 0.07667 0.0
H2189 H 0.92161 0.63767 0.07254 0.0
H2190 H 0.93507 0.62797 0.05101 0.0
H2191 H 0.9476 0.63582 0.05533 0.0
H2192 H 0.98763 0.64038 0.07577 0.0
H2193 H 0.97341 0.64638 0.07638 0.0
H2194 H 0.99797 0.66425 0.08362 0.0
H2195 H 0.9838 0.67023 0.08404 0.0
H2196 H 0.94295 0.68086 0.111 0.0
H2197 H 0.92346 0.68843 0.09367 0.0
H2198 H 0.92901 0.67873 0.08316 0.0
H2199 H 0.94848 0.67105 0.10043 0.0
C2200 C 0.64132 0.67703 0.34886 0.0
C2201 C 0.63629 0.66976 0.34864 0.0
C2202 C 0.6454 0.66362 0.33793 0.0
C2203 C 0.6383 0.66312 0.3432 0.0
C2204 C 0.65076 0.67063 0.33868 0.0
C2205 C 0.64869 0.67729 0.34405 0.0
U2206 U 0.62892 0.68767 0.36648 0.0
O2207 O 0.6314 0.69916 0.37387 0.0
O2208 O 0.62014 0.69832 0.36589 0.0
C2209 C 0.62461 0.70296 0.37107 0.0
C2210 C 0.63857 0.68462 0.35344 0.0
C2211 C 0.62519 0.71199 0.36905 0.0
C2212 C 0.62922 0.72374 0.36007 0.0
C2213 C 0.62958 0.71511 0.36204 0.0
C2214 C 0.62026 0.7261 0.37216 0.0
C2215 C 0.62438 0.72925 0.36502 0.0
C2216 C 0.62066 0.71757 0.37414 0.0
C2217 C 0.61669 0.67267 0.38148 0.0
C2218 C 0.60246 0.67288 0.38709 0.0
C2219 C 0.61244 0.66252 0.39209 0.0
C2220 C 0.61861 0.66594 0.38684 0.0
C2221 C 0.6042 0.66573 0.39203 0.0
C2222 C 0.60867 0.67635 0.3819 0.0
C2223 C 0.62265 0.67478 0.37469 0.0
O2224 O 0.63051 0.68635 0.35285 0.0
O2225 O 0.64157 0.68565 0.36109 0.0
O2226 O 0.62977 0.67841 0.37683 0.0
O2227 O 0.61936 0.67785 0.36776 0.0
H2228 H 0.6306 0.66937 0.35238 0.0
H2229 H 0.63406 0.65781 0.34281 0.0
H2230 H 0.65642 0.67109 0.33492 0.0
H2231 H 0.6527 0.6828 0.3442 0.0
H2232 H 0.63246 0.72604 0.35453 0.0
H2233 H 0.6331 0.71088 0.35802 0.0
H2234 H 0.61657 0.73023 0.37614 0.0
H2235 H 0.61724 0.71528 0.37958 0.0
H2236 H 0.59616 0.67543 0.38675 0.0
H2237 H 0.614 0.65706 0.39586 0.0
H2238 H 0.62476 0.663 0.38661 0.0
H2239 H 0.60702 0.68155 0.37782 0.0
C2240 C 0.93822 0.56187 0.64086 0.0
C2241 C 0.93358 0.56933 0.64176 0.0
C2242 C 0.94288 0.57644 0.63186 0.0
C2243 C 0.9359 0.57657 0.6373 0.0
C2244 C 0.94767 0.56904 0.63122 0.0
C2245 C 0.94534 0.56182 0.63566 0.0
U2246 U 0.92609 0.54997 0.65787 0.0
O2247 O 0.9179 0.53894 0.6569 0.0
O2248 O 0.92931 0.5383 0.66468 0.0
C2249 C 0.92286 0.5342 0.66151 0.0
C2250 C 0.93555 0.55401 0.64496 0.0
C2251 C 0.92446 0.52567 0.65826 0.0
C2252 C 0.92513 0.51573 0.64665 0.0
C2253 C 0.9251 0.52404 0.6496 0.0
C2254 C 0.92446 0.51064 0.66099 0.0
C2255 C 0.92449 0.50897 0.65231 0.0
C2256 C 0.92441 0.51892 0.66393 0.0
C2257 C 0.91364 0.56393 0.67384 0.0
C2258 C 0.89937 0.56496 0.67932 0.0
C2259 C 0.91055 0.57323 0.68554 0.0
C2260 C 0.91632 0.56963 0.68001 0.0
C2261 C 0.90196 0.57123 0.68499 0.0
C2262 C 0.90517 0.56133 0.67378 0.0
C2263 C 0.91939 0.56213 0.66678 0.0
O2264 O 0.93861 0.55262 0.65251 0.0
O2265 O 0.9275 0.55223 0.64433 0.0
O2266 O 0.91601 0.55915 0.65985 0.0
O2267 O 0.92675 0.55879 0.66858 0.0
H2268 H 0.92808 0.56952 0.64578 0.0
H2269 H 0.93211 0.5822 0.63794 0.0
H2270 H 0.9532 0.56882 0.62725 0.0
H2271 H 0.94904 0.55614 0.63495 0.0
H2272 H 0.92521 0.51462 0.63993 0.0
H2273 H 0.9252 0.52916 0.64511 0.0
H2274 H 0.92418 0.50554 0.6655 0.0
H2275 H 0.92396 0.52005 0.67064 0.0
H2276 H 0.89277 0.56336 0.67872 0.0
H2277 H 0.91271 0.57801 0.68989 0.0
H2278 H 0.9228 0.57175 0.68017 0.0
H2279 H 0.90292 0.55693 0.66909 0.0
C2280 C 0.67345 0.65382 0.86122 0.0
C2281 C 0.66664 0.65443 0.86683 0.0
C2282 C 0.66003 0.66479 0.85771 0.0
C2283 C 0.65997 0.65989 0.86508 0.0
C2284 C 0.66645 0.66353 0.85177 0.0
C2285 C 0.67314 0.65812 0.85355 0.0
U2286 U 0.6877 0.63852 0.87377 0.0
O2287 O 0.70008 0.63333 0.87008 0.0
O2288 O 0.69907 0.64249 0.88066 0.0
C2289 C 0.70391 0.63768 0.87599 0.0
C2290 C 0.68149 0.65007 0.8638 0.0
C2291 C 0.71311 0.63793 0.87675 0.0
C2292 C 0.72658 0.64472 0.87442 0.0
C2293 C 0.71789 0.64433 0.87303 0.0
C2294 C 0.72577 0.63223 0.88312 0.0
C2295 C 0.7306 0.63876 0.87959 0.0
C2296 C 0.7171 0.63185 0.88171 0.0
C2297 C 0.67469 0.6224 0.88805 0.0
C2298 C 0.67661 0.61545 0.90153 0.0
C2299 C 0.66323 0.61441 0.8943 0.0
C2300 C 0.66646 0.61923 0.88771 0.0
C2301 C 0.6682 0.61269 0.90137 0.0
C2302 C 0.67986 0.62026 0.89488 0.0
C2303 C 0.677 0.62889 0.88187 0.0
O2304 O 0.68365 0.65145 0.87165 0.0
O2305 O 0.6832 0.64242 0.86119 0.0
O2306 O 0.68044 0.62665 0.87469 0.0
O2307 O 0.6797 0.63615 0.88476 0.0
H2308 H 0.66676 0.65114 0.87279 0.0
H2309 H 0.65508 0.66071 0.86975 0.0
H2310 H 0.66654 0.66705 0.84594 0.0
H2311 H 0.67832 0.65771 0.84915 0.0
H2312 H 0.73012 0.64984 0.87166 0.0
H2313 H 0.71491 0.6491 0.86919 0.0
H2314 H 0.72869 0.62744 0.88699 0.0
H2315 H 0.71346 0.62687 0.88463 0.0
H2316 H 0.6805 0.61424 0.90699 0.0
H2317 H 0.65669 0.61251 0.89412 0.0
H2318 H 0.66233 0.62092 0.88254 0.0
H2319 H 0.68621 0.62269 0.89529 0.0
C2320 C 0.56511 0.44245 0.14058 0.0
C2321 C 0.56873 0.4347 0.14278 0.0
C2322 C 0.56086 0.42773 0.1316 0.0
C2323 C 0.5666 0.42739 0.13835 0.0
C2324 C 0.55709 0.43548 0.12961 0.0
C2325 C 0.55921 0.44277 0.13405 0.0
U2326 U 0.57729 0.45416 0.15761 0.0
O2327 O 0.58562 0.46509 0.15662 0.0
O2328 O 0.57429 0.46584 0.1645 0.0
C2329 C 0.58077 0.46987 0.16132 0.0
C2330 C 0.56774 0.4503 0.14471 0.0
C2331 C 0.57929 0.47845 0.15816 0.0
C2332 C 0.57843 0.48846 0.14661 0.0
C2333 C 0.5784 0.48014 0.14953 0.0
C2334 C 0.57969 0.49346 0.16095 0.0
C2335 C 0.57938 0.49518 0.15228 0.0
C2336 C 0.57968 0.48517 0.16385 0.0
C2337 C 0.59004 0.44027 0.17319 0.0
C2338 C 0.60428 0.44108 0.17872 0.0
C2339 C 0.59459 0.43062 0.18412 0.0
C2340 C 0.58831 0.4337 0.17881 0.0
C2341 C 0.60273 0.43405 0.18385 0.0
C2342 C 0.59797 0.44419 0.17344 0.0
C2343 C 0.58403 0.44189 0.16634 0.0
O2344 O 0.56473 0.4516 0.15231 0.0
O2345 O 0.57578 0.45207 0.14405 0.0
O2346 O 0.58723 0.44479 0.15929 0.0
O2347 O 0.57677 0.44532 0.16833 0.0
H2348 H 0.57327 0.43433 0.14785 0.0
H2349 H 0.56944 0.42148 0.1402 0.0
H2350 H 0.55265 0.43595 0.12446 0.0
H2351 H 0.55636 0.4487 0.13228 0.0
H2352 H 0.57814 0.48961 0.1399 0.0
H2353 H 0.57805 0.47504 0.14502 0.0
H2354 H 0.58021 0.49853 0.16547 0.0
H2355 H 0.58032 0.48399 0.17053 0.0
H2356 H 0.61049 0.44388 0.17849 0.0
H2357 H 0.59325 0.42518 0.18799 0.0
H2358 H 0.58225 0.43058 0.17871 0.0
H2359 H 0.59945 0.44931 0.1692 0.0
C2360 C 0.82716 0.34894 0.36255 0.0
C2361 C 0.83481 0.3505 0.3667 0.0
C2362 C 0.84127 0.33871 0.3594 0.0
C2363 C 0.8418 0.34538 0.36516 0.0
C2364 C 0.8338 0.3375 0.35486 0.0
C2365 C 0.82677 0.34258 0.35646 0.0
U2366 U 0.81645 0.36603 0.37524 0.0
O2367 O 0.80511 0.37371 0.37304 0.0
O2368 O 0.80576 0.36525 0.38396 0.0
C2369 C 0.80122 0.37067 0.37968 0.0
C2370 C 0.81941 0.35328 0.36519 0.0
C2371 C 0.79221 0.36875 0.37885 0.0
C2372 C 0.78054 0.35955 0.37516 0.0
C2373 C 0.78921 0.36128 0.37519 0.0
C2374 C 0.7779 0.37271 0.38237 0.0
C2375 C 0.7748 0.36527 0.37875 0.0
C2376 C 0.78649 0.37444 0.38237 0.0
C2377 C 0.83163 0.38057 0.38778 0.0
C2378 C 0.83212 0.38557 0.40222 0.0
C2379 C 0.84162 0.3914 0.39184 0.0
C2380 C 0.838 0.38629 0.38567 0.0
C2381 C 0.83902 0.39076 0.40027 0.0
C2382 C 0.82844 0.38053 0.39603 0.0
C2383 C 0.82942 0.37392 0.38169 0.0
O2384 O 0.81761 0.35244 0.37321 0.0
O2385 O 0.81841 0.36102 0.36244 0.0
O2386 O 0.82583 0.37627 0.37462 0.0
O2387 O 0.82628 0.36695 0.38483 0.0
H2388 H 0.83523 0.35539 0.37143 0.0
H2389 H 0.8475 0.34638 0.36876 0.0
H2390 H 0.83324 0.33233 0.35046 0.0
H2391 H 0.82092 0.34128 0.35321 0.0
H2392 H 0.77833 0.35374 0.37237 0.0
H2393 H 0.79356 0.35678 0.37251 0.0
H2394 H 0.7737 0.37712 0.38543 0.0
H2395 H 0.7887 0.38017 0.38532 0.0
H2396 H 0.82995 0.38496 0.40865 0.0
H2397 H 0.84676 0.39551 0.3901 0.0
H2398 H 0.84052 0.38647 0.37934 0.0
H2399 H 0.82347 0.37622 0.39782 0.0
C2400 C 0.93786 0.44178 0.8634 0.0
C2401 C 0.93467 0.43392 0.86096 0.0
C2402 C 0.94272 0.4271 0.8721 0.0
C2403 C 0.93707 0.42663 0.86529 0.0
C2404 C 0.94594 0.43499 0.87444 0.0
C2405 C 0.94354 0.44226 0.87012 0.0
U2406 U 0.92556 0.45337 0.84631 0.0
O2407 O 0.91736 0.46442 0.84724 0.0
O2408 O 0.92867 0.46496 0.83932 0.0
C2409 C 0.92222 0.46909 0.84246 0.0
C2410 C 0.9351 0.44958 0.85924 0.0
C2411 C 0.92382 0.47768 0.84552 0.0
C2412 C 0.92684 0.48757 0.8568 0.0
C2413 C 0.92657 0.47929 0.85376 0.0
C2414 C 0.922 0.49268 0.84329 0.0
C2415 C 0.92435 0.49433 0.85165 0.0
C2416 C 0.92174 0.48444 0.84026 0.0
C2417 C 0.91313 0.43914 0.83058 0.0
C2418 C 0.89926 0.43992 0.82416 0.0
C2419 C 0.90913 0.42921 0.81969 0.0
C2420 C 0.91509 0.43235 0.82531 0.0
C2421 C 0.90107 0.43282 0.81921 0.0
C2422 C 0.90526 0.44309 0.82979 0.0
C2423 C 0.91891 0.44103 0.83759 0.0
O2424 O 0.93811 0.45091 0.85165 0.0
O2425 O 0.92703 0.45124 0.85988 0.0
O2426 O 0.91552 0.44411 0.84447 0.0
O2427 O 0.92623 0.4444 0.83571 0.0
H2428 H 0.93023 0.43344 0.85581 0.0
H2429 H 0.93437 0.42066 0.86343 0.0
H2430 H 0.95033 0.43553 0.87962 0.0
H2431 H 0.94606 0.44828 0.87208 0.0
H2432 H 0.92859 0.48864 0.8633 0.0
H2433 H 0.92818 0.47414 0.85792 0.0
H2434 H 0.92011 0.49776 0.83916 0.0
H2435 H 0.9196 0.48332 0.83389 0.0
H2436 H 0.89309 0.44281 0.82391 0.0
H2437 H 0.91066 0.42362 0.81611 0.0
H2438 H 0.92109 0.42916 0.82589 0.0
H2439 H 0.90359 0.44834 0.83379 0.0
C2440 C 0.827 0.6552 0.14128 0.0
C2441 C 0.83462 0.65347 0.13715 0.0
C2442 C 0.84131 0.66523 0.14432 0.0
C2443 C 0.84172 0.65844 0.13866 0.0
C2444 C 0.83385 0.66657 0.14886 0.0
C2445 C 0.82673 0.66161 0.14733 0.0
U2446 U 0.81609 0.63818 0.12872 0.0
O2447 O 0.80469 0.63057 0.13097 0.0
O2448 O 0.8054 0.63898 0.12001 0.0
C2449 C 0.80084 0.63359 0.1243 0.0
C2450 C 0.81918 0.65095 0.1387 0.0
C2451 C 0.7918 0.63547 0.12507 0.0
C2452 C 0.78003 0.64459 0.12868 0.0
C2453 C 0.78872 0.64293 0.12867 0.0
C2454 C 0.77753 0.63138 0.12151 0.0
C2455 C 0.77434 0.6388 0.1251 0.0
C2456 C 0.78614 0.62973 0.12155 0.0
C2457 C 0.83138 0.62354 0.11635 0.0
C2458 C 0.83163 0.61822 0.10202 0.0
C2459 C 0.84189 0.61328 0.11213 0.0
C2460 C 0.83818 0.61828 0.11833 0.0
C2461 C 0.83892 0.61355 0.10381 0.0
C2462 C 0.82788 0.62318 0.10825 0.0
C2463 C 0.82906 0.6302 0.12236 0.0
O2464 O 0.81736 0.65177 0.13068 0.0
O2465 O 0.81809 0.64324 0.1415 0.0
O2466 O 0.82542 0.62789 0.12942 0.0
O2467 O 0.82592 0.63713 0.11914 0.0
H2468 H 0.83496 0.64851 0.13248 0.0
H2469 H 0.84743 0.65721 0.13514 0.0
H2470 H 0.83337 0.67178 0.15324 0.0
H2471 H 0.82092 0.66303 0.15058 0.0
H2472 H 0.77775 0.65038 0.13145 0.0
H2473 H 0.79301 0.64748 0.13136 0.0
H2474 H 0.77338 0.62692 0.11846 0.0
H2475 H 0.7884 0.624 0.11863 0.0
H2476 H 0.82919 0.61853 0.09567 0.0
H2477 H 0.84739 0.60958 0.11373 0.0
H2478 H 0.84096 0.61843 0.12455 0.0
H2479 H 0.82259 0.62714 0.10657 0.0
C2480 C 0.56608 0.56161 0.36403 0.0
C2481 C 0.56703 0.5696 0.36038 0.0
C2482 C 0.56115 0.57616 0.37296 0.0
C2483 C 0.56458 0.57682 0.36482 0.0
C2484 C 0.56028 0.56813 0.37657 0.0
C2485 C 0.56269 0.56094 0.37213 0.0
U2486 U 0.5783 0.55002 0.34674 0.0
O2487 O 0.58636 0.53888 0.34766 0.0
O2488 O 0.57501 0.53843 0.3398 0.0
C2489 C 0.58139 0.53424 0.34297 0.0
C2490 C 0.56881 0.55391 0.35969 0.0
C2491 C 0.57969 0.52568 0.34612 0.0
C2492 C 0.57871 0.51567 0.35765 0.0
C2493 C 0.57881 0.52399 0.35475 0.0
C2494 C 0.57978 0.51067 0.34329 0.0
C2495 C 0.57952 0.50894 0.35196 0.0
C2496 C 0.5799 0.51897 0.34041 0.0
C2497 C 0.59118 0.56395 0.33106 0.0
C2498 C 0.60561 0.56609 0.32634 0.0
C2499 C 0.5941 0.57261 0.31881 0.0
C2500 C 0.58835 0.56885 0.32428 0.0
C2501 C 0.6028 0.57167 0.3201 0.0
C2502 C 0.59985 0.56226 0.33179 0.0
C2503 C 0.58528 0.56217 0.33802 0.0
O2504 O 0.56581 0.55271 0.35207 0.0
O2505 O 0.57686 0.55216 0.36033 0.0
O2506 O 0.5885 0.55911 0.34499 0.0
O2507 O 0.57789 0.55895 0.33611 0.0
H2508 H 0.5697 0.57025 0.35415 0.0
H2509 H 0.56533 0.58292 0.36187 0.0
H2510 H 0.55791 0.56741 0.38291 0.0
H2511 H 0.562 0.55484 0.37508 0.0
H2512 H 0.57846 0.51451 0.36436 0.0
H2513 H 0.57859 0.52909 0.35926 0.0
H2514 H 0.58019 0.50561 0.33876 0.0
H2515 H 0.58053 0.52015 0.33372 0.0
H2516 H 0.61228 0.56522 0.32743 0.0
H2517 H 0.59176 0.57674 0.31392 0.0
H2518 H 0.58172 0.57025 0.32357 0.0
H2519 H 0.60224 0.55847 0.33692 0.0
C2520 C 0.67765 0.3484 0.64144 0.0
C2521 C 0.66968 0.35219 0.64205 0.0
C2522 C 0.66334 0.3386 0.64537 0.0
C2523 C 0.6626 0.34734 0.64408 0.0
C2524 C 0.67138 0.33493 0.64495 0.0
C2525 C 0.67844 0.33978 0.64303 0.0
U2526 U 0.68786 0.36609 0.6288 0.0
O2527 O 0.69914 0.37383 0.63123 0.0
O2528 O 0.69859 0.36558 0.62014 0.0
C2529 C 0.70314 0.37083 0.62463 0.0
C2530 C 0.68512 0.3531 0.6386 0.0
C2531 C 0.71213 0.36873 0.62566 0.0
C2532 C 0.7237 0.35868 0.62577 0.0
C2533 C 0.71504 0.36039 0.62612 0.0
C2534 C 0.72659 0.37361 0.62487 0.0
C2535 C 0.72953 0.36528 0.62488 0.0
C2536 C 0.71798 0.37531 0.62525 0.0
C2537 C 0.67261 0.38059 0.61643 0.0
C2538 C 0.67482 0.38743 0.60295 0.0
C2539 C 0.66159 0.38922 0.6103 0.0
C2540 C 0.66461 0.38426 0.6169 0.0
C2541 C 0.66653 0.39053 0.6031 0.0
C2542 C 0.67784 0.38247 0.60956 0.0
C2543 C 0.67477 0.37393 0.62247 0.0
O2544 O 0.68674 0.35243 0.63052 0.0
O2545 O 0.68603 0.3608 0.64148 0.0
O2546 O 0.67838 0.37624 0.62955 0.0
O2547 O 0.67804 0.36708 0.6192 0.0
H2548 H 0.66892 0.35885 0.64082 0.0
H2549 H 0.65654 0.35042 0.64455 0.0
H2550 H 0.6722 0.32822 0.64581 0.0
H2551 H 0.68452 0.33673 0.64254 0.0
H2552 H 0.72582 0.35221 0.62581 0.0
H2553 H 0.71063 0.35521 0.62644 0.0
H2554 H 0.73095 0.37881 0.62431 0.0
H2555 H 0.71587 0.38178 0.62489 0.0
H2556 H 0.67879 0.38845 0.5975 0.0
H2557 H 0.65518 0.39151 0.61057 0.0
H2558 H 0.66048 0.38287 0.62215 0.0
H2559 H 0.68406 0.37972 0.6091 0.0
C2560 C 0.64072 0.93828 0.56173 0.0
C2561 C 0.64294 0.9348 0.56954 0.0
C2562 C 0.63185 0.94289 0.57639 0.0
C2563 C 0.63855 0.93711 0.57683 0.0
C2564 C 0.62984 0.94652 0.56859 0.0
C2565 C 0.63423 0.94422 0.56132 0.0
U2566 U 0.65763 0.92588 0.54994 0.0
O2567 O 0.65647 0.91764 0.53893 0.0
O2568 O 0.66448 0.92888 0.53825 0.0
C2569 C 0.66127 0.92243 0.53419 0.0
C2570 C 0.64481 0.93551 0.55389 0.0
C2571 C 0.65815 0.92399 0.52563 0.0
C2572 C 0.64717 0.92831 0.51589 0.0
C2573 C 0.65033 0.9278 0.52412 0.0
C2574 C 0.65971 0.9214 0.51067 0.0
C2575 C 0.6518 0.92501 0.50909 0.0
C2576 C 0.66286 0.92093 0.51885 0.0
C2577 C 0.67351 0.91326 0.56384 0.0
C2578 C 0.67832 0.89891 0.56622 0.0
C2579 C 0.68611 0.9106 0.57206 0.0
C2580 C 0.68048 0.91623 0.56836 0.0
C2581 C 0.68479 0.90189 0.57143 0.0
C2582 C 0.67271 0.90455 0.56245 0.0
C2583 C 0.6665 0.91912 0.56209 0.0
O2584 O 0.65241 0.93847 0.5525 0.0
O2585 O 0.6441 0.92745 0.55222 0.0
O2586 O 0.65948 0.91585 0.55919 0.0
O2587 O 0.66836 0.92645 0.55873 0.0
H2588 H 0.64795 0.93021 0.56997 0.0
H2589 H 0.64024 0.93424 0.58277 0.0
H2590 H 0.62485 0.95113 0.56809 0.0
H2591 H 0.63247 0.94699 0.55535 0.0
H2592 H 0.64106 0.93113 0.51486 0.0
H2593 H 0.64658 0.93017 0.5293 0.0
H2594 H 0.66334 0.91859 0.50563 0.0
H2595 H 0.66887 0.9179 0.51992 0.0
H2596 H 0.67719 0.89222 0.5656 0.0
H2597 H 0.69117 0.91307 0.57591 0.0
H2598 H 0.68126 0.9229 0.56953 0.0
H2599 H 0.66742 0.90204 0.55896 0.0
C2600 C 0.14101 0.56607 0.44208 0.0
C2601 C 0.14512 0.56638 0.43426 0.0
C2602 C 0.13233 0.56161 0.42724 0.0
C2603 C 0.14083 0.56411 0.42691 0.0
C2604 C 0.12832 0.5612 0.43511 0.0
C2605 C 0.13262 0.56342 0.44245 0.0
U2606 U 0.15806 0.57837 0.4538 0.0
O2607 O 0.15702 0.58652 0.46486 0.0
O2608 O 0.16497 0.57523 0.46544 0.0
C2609 C 0.16171 0.58161 0.46958 0.0
C2610 C 0.1452 0.56878 0.44988 0.0
C2611 C 0.15851 0.57993 0.47813 0.0
C2612 C 0.14695 0.57927 0.48815 0.0
C2613 C 0.14985 0.57936 0.47982 0.0
C2614 C 0.16134 0.57972 0.49314 0.0
C2615 C 0.15267 0.57976 0.49489 0.0
C2616 C 0.16422 0.57984 0.48484 0.0
C2617 C 0.17364 0.59123 0.43981 0.0
C2618 C 0.17937 0.60542 0.44034 0.0
C2619 C 0.18478 0.5954 0.43022 0.0
C2620 C 0.17928 0.58929 0.43332 0.0
C2621 C 0.18468 0.60359 0.43352 0.0
C2622 C 0.17392 0.59927 0.44351 0.0
C2623 C 0.16674 0.58527 0.44157 0.0
O2624 O 0.15282 0.56582 0.45118 0.0
O2625 O 0.14449 0.57682 0.45163 0.0
O2626 O 0.15976 0.58848 0.4446 0.0
O2627 O 0.16874 0.57796 0.4449 0.0
H2628 H 0.15161 0.56842 0.43385 0.0
H2629 H 0.14416 0.56431 0.42097 0.0
H2630 H 0.12178 0.55934 0.43557 0.0
H2631 H 0.12934 0.56317 0.44842 0.0
H2632 H 0.14024 0.57925 0.48931 0.0
H2633 H 0.14532 0.57937 0.47474 0.0
H2634 H 0.16589 0.57987 0.4982 0.0
H2635 H 0.17092 0.58023 0.48366 0.0
H2636 H 0.17919 0.6117 0.44297 0.0
H2637 H 0.18871 0.59387 0.42487 0.0
H2638 H 0.17911 0.58317 0.43032 0.0
H2639 H 0.16963 0.60093 0.44854 0.0
C2640 C 0.65442 0.86139 0.67329 0.0
C2641 C 0.65575 0.86714 0.66672 0.0
C2642 C 0.66512 0.85717 0.65982 0.0
C2643 C 0.66107 0.86504 0.66003 0.0
C2644 C 0.66316 0.8512 0.66603 0.0
C2645 C 0.65789 0.85332 0.67273 0.0
U2646 U 0.63902 0.87388 0.68755 0.0
O2647 O 0.63375 0.86995 0.69979 0.0
O2648 O 0.64272 0.88071 0.69907 0.0
C2649 C 0.63791 0.8759 0.70376 0.0
C2650 C 0.65065 0.86399 0.68132 0.0
C2651 C 0.63795 0.87647 0.71298 0.0
C2652 C 0.64388 0.87286 0.72657 0.0
C2653 C 0.64325 0.87143 0.7179 0.0
C2654 C 0.63366 0.88413 0.7255 0.0
C2655 C 0.6392 0.87931 0.73041 0.0
C2656 C 0.6331 0.88275 0.71683 0.0
C2657 C 0.62311 0.8883 0.67439 0.0
C2658 C 0.61504 0.90109 0.67665 0.0
C2659 C 0.61582 0.89495 0.66273 0.0
C2660 C 0.6207 0.8884 0.66592 0.0
C2661 C 0.61313 0.90154 0.66798 0.0
C2662 C 0.6201 0.89457 0.67982 0.0
C2663 C 0.62957 0.88215 0.67684 0.0
O2664 O 0.65201 0.87183 0.68356 0.0
O2665 O 0.64299 0.86137 0.68299 0.0
O2666 O 0.62728 0.87492 0.68014 0.0
O2667 O 0.63676 0.88503 0.67971 0.0
H2668 H 0.6531 0.87341 0.667 0.0
H2669 H 0.66244 0.86977 0.65532 0.0
H2670 H 0.666 0.84501 0.66591 0.0
H2671 H 0.65691 0.84879 0.67773 0.0
H2672 H 0.64814 0.86904 0.73027 0.0
H2673 H 0.64708 0.86658 0.71503 0.0
H2674 H 0.63002 0.88915 0.72832 0.0
H2675 H 0.62904 0.88673 0.71308 0.0
H2676 H 0.61285 0.90591 0.68093 0.0
H2677 H 0.61457 0.89506 0.65604 0.0
H2678 H 0.623 0.88363 0.66162 0.0
H2679 H 0.62187 0.89458 0.68639 0.0
C2680 C 0.36397 0.43779 0.9428 0.0
C2681 C 0.36031 0.43677 0.93483 0.0
C2682 C 0.3728 0.44278 0.92821 0.0
C2683 C 0.36469 0.43925 0.92758 0.0
C2684 C 0.37641 0.44375 0.93622 0.0
C2685 C 0.37202 0.4413 0.94344 0.0
U2686 U 0.34668 0.42539 0.954 0.0
O2687 O 0.3474 0.41714 0.96504 0.0
O2688 O 0.33947 0.42844 0.96548 0.0
C2689 C 0.34261 0.42204 0.96967 0.0
C2690 C 0.35967 0.43497 0.95051 0.0
C2691 C 0.34577 0.42377 0.97821 0.0
C2692 C 0.35715 0.4272 0.98784 0.0
C2693 C 0.35399 0.42667 0.97962 0.0
C2694 C 0.34382 0.42225 0.99329 0.0
C2695 C 0.35215 0.42485 0.99476 0.0
C2696 C 0.34067 0.42174 0.9851 0.0
C2697 C 0.33178 0.41334 0.93819 0.0
C2698 C 0.32098 0.40264 0.94002 0.0
C2699 C 0.32498 0.40719 0.92604 0.0
C2700 C 0.33074 0.41279 0.92948 0.0
C2701 C 0.32006 0.402 0.93122 0.0
C2702 C 0.32684 0.40829 0.9435 0.0
C2703 C 0.3385 0.41892 0.94122 0.0
O2704 O 0.35205 0.43795 0.95172 0.0
O2705 O 0.3603 0.4269 0.95214 0.0
O2706 O 0.34507 0.41532 0.94469 0.0
O2707 O 0.33634 0.42607 0.94477 0.0
H2708 H 0.35411 0.43401 0.9342 0.0
H2709 H 0.36175 0.43842 0.9215 0.0
H2710 H 0.38271 0.44623 0.93691 0.0
H2711 H 0.37498 0.44205 0.94953 0.0
H2712 H 0.36358 0.42925 0.98877 0.0
H2713 H 0.35803 0.42827 0.97437 0.0
H2714 H 0.33985 0.4202 0.99844 0.0
H2715 H 0.33433 0.41944 0.98413 0.0
H2716 H 0.31721 0.39878 0.94418 0.0
H2717 H 0.32454 0.40677 0.91925 0.0
H2718 H 0.33455 0.41658 0.92529 0.0
H2719 H 0.32759 0.40864 0.95026 0.0
C2720 C 0.34872 0.64157 0.67766 0.0
C2721 C 0.35096 0.63886 0.66954 0.0
C2722 C 0.33813 0.64497 0.66388 0.0
C2723 C 0.34569 0.64057 0.66268 0.0
C2724 C 0.33613 0.64802 0.67192 0.0
C2725 C 0.3414 0.64635 0.67875 0.0
U2726 U 0.36616 0.62862 0.68778 0.0
O2727 O 0.37404 0.63092 0.69899 0.0
O2728 O 0.3656 0.61998 0.69854 0.0
C2729 C 0.37098 0.62437 0.70302 0.0
C2730 C 0.35335 0.63869 0.68514 0.0
C2731 C 0.36899 0.62541 0.71203 0.0
C2732 C 0.35901 0.62662 0.72361 0.0
C2733 C 0.36079 0.62697 0.71495 0.0
C2734 C 0.37365 0.62348 0.72645 0.0
C2735 C 0.3654 0.62462 0.7294 0.0
C2736 C 0.37542 0.62388 0.71786 0.0
C2737 C 0.38027 0.61631 0.67192 0.0
C2738 C 0.38895 0.60395 0.6743 0.0
C2739 C 0.38776 0.60987 0.66031 0.0
C2740 C 0.38255 0.61619 0.66343 0.0
C2741 C 0.39093 0.60358 0.66566 0.0
C2742 C 0.38362 0.61026 0.67741 0.0
C2743 C 0.37369 0.62224 0.67454 0.0
O2744 O 0.35254 0.63064 0.68679 0.0
O2745 O 0.36112 0.64141 0.68596 0.0
O2746 O 0.37613 0.62927 0.67815 0.0
O2747 O 0.36697 0.61891 0.67802 0.0
H2748 H 0.35657 0.6351 0.66859 0.0
H2749 H 0.34726 0.63805 0.65654 0.0
H2750 H 0.33027 0.65133 0.67299 0.0
H2751 H 0.33955 0.64845 0.68497 0.0
H2752 H 0.35261 0.62753 0.72575 0.0
H2753 H 0.35572 0.62814 0.71055 0.0
H2754 H 0.37869 0.62203 0.73079 0.0
H2755 H 0.38178 0.62265 0.71574 0.0
H2756 H 0.39129 0.59921 0.67859 0.0
H2757 H 0.38888 0.60966 0.65359 0.0
H2758 H 0.37994 0.62076 0.65909 0.0
H2759 H 0.38189 0.61025 0.684 0.0
C2760 C 0.86374 0.06635 0.06189 0.0
C2761 C 0.86081 0.06908 0.06976 0.0
C2762 C 0.87246 0.06191 0.07671 0.0
C2763 C 0.86511 0.06684 0.07711 0.0
C2764 C 0.8752 0.059 0.06882 0.0
C2765 C 0.87088 0.06121 0.06148 0.0
U2766 U 0.84668 0.07868 0.05048 0.0
O2767 O 0.84754 0.0872 0.03964 0.0
O2768 O 0.83967 0.07587 0.03885 0.0
C2769 C 0.84272 0.08246 0.03488 0.0
C2770 C 0.85966 0.06912 0.05406 0.0
C2771 C 0.8457 0.08114 0.02622 0.0
C2772 C 0.8556 0.0754 0.01606 0.0
C2773 C 0.85257 0.07592 0.02434 0.0
C2774 C 0.84483 0.08518 0.01152 0.0
C2775 C 0.85178 0.08008 0.00958 0.0
C2776 C 0.84182 0.08568 0.01975 0.0
C2777 C 0.83107 0.09064 0.06523 0.0
C2778 C 0.82379 0.10403 0.06388 0.0
C2779 C 0.82104 0.09503 0.07586 0.0
C2780 C 0.82666 0.08909 0.0727 0.0
C2781 C 0.81967 0.10264 0.07158 0.0
C2782 C 0.82944 0.09805 0.0607 0.0
C2783 C 0.83805 0.08496 0.06308 0.0
O2784 O 0.85209 0.06611 0.05265 0.0
O2785 O 0.86027 0.07721 0.05249 0.0
O2786 O 0.84486 0.08849 0.05999 0.0
O2787 O 0.83615 0.07775 0.0595 0.0
H2788 H 0.85527 0.07302 0.0702 0.0
H2789 H 0.86268 0.06898 0.08311 0.0
H2790 H 0.88082 0.05518 0.0683 0.0
H2791 H 0.87322 0.05904 0.05546 0.0
H2792 H 0.86099 0.07145 0.01473 0.0
H2793 H 0.85567 0.07239 0.02928 0.0
H2794 H 0.84189 0.08902 0.00673 0.0
H2795 H 0.83656 0.0898 0.02111 0.0
H2796 H 0.82285 0.10986 0.06047 0.0
H2797 H 0.81813 0.09386 0.08191 0.0
H2798 H 0.82791 0.08346 0.07633 0.0
H2799 H 0.8328 0.09938 0.05492 0.0
C2800 C 0.65571 0.14155 0.82736 0.0
C2801 C 0.656 0.13629 0.83445 0.0
C2802 C 0.66654 0.14536 0.84092 0.0
C2803 C 0.66139 0.13816 0.84116 0.0
C2804 C 0.66571 0.15094 0.83409 0.0
C2805 C 0.6604 0.149 0.82734 0.0
U2806 U 0.63807 0.12937 0.81665 0.0
O2807 O 0.63045 0.13201 0.80533 0.0
O2808 O 0.63853 0.12079 0.80586 0.0
C2809 C 0.63332 0.12535 0.80134 0.0
C2810 C 0.65112 0.13899 0.8197 0.0
C2811 C 0.63536 0.12625 0.79234 0.0
C2812 C 0.64541 0.12693 0.78079 0.0
C2813 C 0.64362 0.1275 0.78943 0.0
C2814 C 0.63069 0.12421 0.77795 0.0
C2815 C 0.63898 0.12501 0.77502 0.0
C2816 C 0.62891 0.12483 0.78652 0.0
C2817 C 0.62333 0.11705 0.83177 0.0
C2818 C 0.61648 0.10353 0.82977 0.0
C2819 C 0.61468 0.11112 0.84286 0.0
C2820 C 0.61965 0.11766 0.83976 0.0
C2821 C 0.61331 0.1039 0.838 0.0
C2822 C 0.62145 0.1101 0.82664 0.0
C2823 C 0.63007 0.123 0.82961 0.0
O2824 O 0.65171 0.13097 0.8178 0.0
O2825 O 0.64347 0.142 0.81878 0.0
O2826 O 0.62787 0.13013 0.82606 0.0
O2827 O 0.63689 0.11966 0.82635 0.0
H2828 H 0.65235 0.13054 0.83465 0.0
H2829 H 0.66184 0.13374 0.84632 0.0
H2830 H 0.66934 0.15669 0.83384 0.0
H2831 H 0.66018 0.1532 0.82197 0.0
H2832 H 0.65185 0.12757 0.77866 0.0
H2833 H 0.64871 0.12858 0.79383 0.0
H2834 H 0.62562 0.12281 0.77362 0.0
H2835 H 0.6225 0.12383 0.78864 0.0
H2836 H 0.61559 0.09793 0.82599 0.0
H2837 H 0.61241 0.11143 0.84929 0.0
H2838 H 0.62109 0.12294 0.84383 0.0
H2839 H 0.62425 0.10951 0.82046 0.0
C2840 C 0.84859 0.86239 0.32715 0.0
C2841 C 0.84886 0.86724 0.33453 0.0
C2842 C 0.83838 0.85815 0.34109 0.0
C2843 C 0.84376 0.86518 0.34141 0.0
C2844 C 0.8385 0.85306 0.33384 0.0
C2845 C 0.84354 0.85518 0.32694 0.0
U2846 U 0.86565 0.87535 0.31658 0.0
O2847 O 0.87339 0.87319 0.30526 0.0
O2848 O 0.86494 0.88412 0.30593 0.0
C2849 C 0.87036 0.87985 0.30139 0.0
C2850 C 0.85298 0.86517 0.31946 0.0
C2851 C 0.86846 0.87912 0.29234 0.0
C2852 C 0.85995 0.87429 0.28054 0.0
C2853 C 0.86187 0.87413 0.28918 0.0
C2854 C 0.87122 0.88428 0.27824 0.0
C2855 C 0.86452 0.87952 0.27505 0.0
C2856 C 0.87317 0.88407 0.28679 0.0
C2857 C 0.87947 0.88781 0.33271 0.0
C2858 C 0.89045 0.89818 0.33032 0.0
C2859 C 0.88492 0.89598 0.34435 0.0
C2860 C 0.87959 0.88976 0.34128 0.0
C2861 C 0.89034 0.90038 0.33892 0.0
C2862 C 0.885 0.89196 0.32722 0.0
C2863 C 0.8731 0.88177 0.32985 0.0
O2864 O 0.85207 0.87318 0.31765 0.0
O2865 O 0.86075 0.86249 0.31848 0.0
O2866 O 0.87572 0.87488 0.3261 0.0
O2867 O 0.86632 0.88502 0.32642 0.0
H2868 H 0.85274 0.87284 0.33484 0.0
H2869 H 0.84371 0.86937 0.34677 0.0
H2870 H 0.83448 0.84758 0.33341 0.0
H2871 H 0.84326 0.85134 0.32132 0.0
H2872 H 0.85474 0.87058 0.27819 0.0
H2873 H 0.85814 0.87028 0.29339 0.0
H2874 H 0.87486 0.88832 0.27413 0.0
H2875 H 0.87826 0.88796 0.28911 0.0
H2876 H 0.89465 0.90134 0.32599 0.0
H2877 H 0.88456 0.89756 0.35097 0.0
H2878 H 0.87534 0.88664 0.3456 0.0
H2879 H 0.88499 0.8905 0.32056 0.0
C2880 C 0.44153 0.36253 0.0654 0.0
C2881 C 0.43359 0.35865 0.06512 0.0
C2882 C 0.42718 0.37185 0.06063 0.0
C2883 C 0.42647 0.36328 0.06274 0.0
C2884 C 0.43516 0.37567 0.06096 0.0
C2885 C 0.44225 0.37104 0.06329 0.0
U2886 U 0.4523 0.34497 0.07784 0.0
O2887 O 0.46372 0.33764 0.07493 0.0
O2888 O 0.46325 0.34557 0.08623 0.0
C2889 C 0.46786 0.34069 0.08141 0.0
C2890 C 0.4491 0.358 0.06823 0.0
C2891 C 0.47651 0.34365 0.07988 0.0
C2892 C 0.48651 0.35388 0.0744 0.0
C2893 C 0.47826 0.35076 0.07493 0.0
C2894 C 0.49131 0.34268 0.08353 0.0
C2895 C 0.4931 0.34997 0.07887 0.0
C2896 C 0.48311 0.33956 0.08403 0.0
C2897 C 0.43639 0.33033 0.08993 0.0
C2898 C 0.43841 0.31993 0.10098 0.0
C2899 C 0.42435 0.32341 0.09624 0.0
C2900 C 0.4277 0.32907 0.09046 0.0
C2901 C 0.42964 0.31875 0.10157 0.0
C2902 C 0.44178 0.3257 0.09518 0.0
C2903 C 0.43934 0.33701 0.08427 0.0
O2904 O 0.45074 0.35862 0.0763 0.0
O2905 O 0.45016 0.35035 0.06526 0.0
O2906 O 0.44291 0.33477 0.07715 0.0
O2907 O 0.44286 0.34358 0.08782 0.0
H2908 H 0.43289 0.35209 0.06682 0.0
H2909 H 0.4204 0.36018 0.06257 0.0
H2910 H 0.4359 0.3823 0.05962 0.0
H2911 H 0.4483 0.37416 0.06357 0.0
H2912 H 0.48771 0.35942 0.07062 0.0
H2913 H 0.47323 0.35399 0.07166 0.0
H2914 H 0.49619 0.33955 0.08711 0.0
H2915 H 0.48188 0.33409 0.0879 0.0
H2916 H 0.44263 0.31647 0.10506 0.0
H2917 H 0.41758 0.32291 0.09671 0.0
H2918 H 0.42344 0.33268 0.08654 0.0
H2919 H 0.44852 0.32666 0.09491 0.0
C2920 C 0.36503 0.6759 0.84661 0.0
C2921 C 0.37033 0.66883 0.84686 0.0
C2922 C 0.36146 0.66165 0.83668 0.0
C2923 C 0.3686 0.6618 0.84189 0.0
C2924 C 0.35591 0.66853 0.83679 0.0
C2925 C 0.35771 0.67562 0.8417 0.0
U2926 U 0.37771 0.68669 0.86353 0.0
O2927 O 0.38601 0.69772 0.86297 0.0
O2928 O 0.37525 0.69767 0.87167 0.0
C2929 C 0.38165 0.70192 0.86859 0.0
C2930 C 0.36743 0.68371 0.85099 0.0
C2931 C 0.38043 0.71095 0.86692 0.0
C2932 C 0.37571 0.7227 0.85826 0.0
C2933 C 0.37597 0.714 0.85991 0.0
C2934 C 0.38425 0.72526 0.87062 0.0
C2935 C 0.38 0.72837 0.86354 0.0
C2936 C 0.38443 0.71666 0.8723 0.0
C2937 C 0.39072 0.67021 0.87665 0.0
C2938 C 0.39993 0.67162 0.88879 0.0
C2939 C 0.39889 0.65829 0.88147 0.0
C2940 C 0.39314 0.66179 0.87588 0.0
C2941 C 0.40229 0.66311 0.88804 0.0
C2942 C 0.39414 0.67516 0.88312 0.0
C2943 C 0.38466 0.67341 0.87045 0.0
O2944 O 0.36484 0.68445 0.85882 0.0
O2945 O 0.37532 0.68595 0.84997 0.0
O2946 O 0.3878 0.67724 0.86384 0.0
O2947 O 0.37769 0.67684 0.87328 0.0
H2948 H 0.37598 0.66888 0.85068 0.0
H2949 H 0.37294 0.65654 0.84195 0.0
H2950 H 0.35041 0.66858 0.83278 0.0
H2951 H 0.35353 0.681 0.84145 0.0
H2952 H 0.37241 0.72496 0.85274 0.0
H2953 H 0.37288 0.70967 0.85565 0.0
H2954 H 0.38754 0.7295 0.87482 0.0
H2955 H 0.3879 0.71443 0.87772 0.0
H2956 H 0.40253 0.67548 0.89376 0.0
H2957 H 0.40077 0.65181 0.88054 0.0
H2958 H 0.39061 0.6579 0.87088 0.0
H2959 H 0.39235 0.6817 0.88377 0.0
C2960 C 0.06311 0.64314 0.56427 0.0
C2961 C 0.07121 0.64601 0.56634 0.0
C2962 C 0.07729 0.63321 0.56051 0.0
C2963 C 0.07828 0.64109 0.56442 0.0
C2964 C 0.0692 0.63055 0.55819 0.0
C2965 C 0.06217 0.63547 0.56006 0.0
U2966 U 0.05185 0.66059 0.57656 0.0
O2967 O 0.04033 0.66768 0.57331 0.0
O2968 O 0.0407 0.65976 0.58462 0.0
C2969 C 0.03607 0.66442 0.57961 0.0
C2970 C 0.0555 0.64768 0.56694 0.0
C2971 C 0.02754 0.66119 0.57777 0.0
C2972 C 0.0174 0.64969 0.57762 0.0
C2973 C 0.02575 0.65252 0.57773 0.0
C2974 C 0.01255 0.6641 0.57691 0.0
C2975 C 0.01069 0.65547 0.57749 0.0
C2976 C 0.02088 0.66692 0.57707 0.0
C2977 C 0.06706 0.67545 0.58932 0.0
C2978 C 0.06535 0.68349 0.60225 0.0
C2979 C 0.07882 0.68325 0.59512 0.0
C2980 C 0.07542 0.67818 0.58883 0.0
C2981 C 0.0739 0.68577 0.60199 0.0
C2982 C 0.06195 0.6783 0.59596 0.0
C2983 C 0.06442 0.66879 0.58346 0.0
O2984 O 0.05366 0.647 0.57497 0.0
O2985 O 0.05454 0.65535 0.56401 0.0
O2986 O 0.06104 0.67102 0.57625 0.0
O2987 O 0.06097 0.66207 0.5868 0.0
H2988 H 0.07204 0.65192 0.56962 0.0
H2989 H 0.08446 0.64326 0.56627 0.0
H2990 H 0.06829 0.62455 0.55508 0.0
H2991 H 0.05597 0.63317 0.55842 0.0
H2992 H 0.01621 0.64301 0.57821 0.0
H2993 H 0.03079 0.64796 0.57825 0.0
H2994 H 0.00753 0.66871 0.57674 0.0
H2995 H 0.0221 0.67363 0.57707 0.0
H2996 H 0.06147 0.68533 0.60754 0.0
H2997 H 0.08542 0.68493 0.59479 0.0
H2998 H 0.07947 0.67601 0.58379 0.0
H2999 H 0.05548 0.67621 0.59647 0.0
C3000 C 0.13917 0.32815 0.34598 0.0
C3001 C 0.13698 0.33627 0.3487 0.0
C3002 C 0.14302 0.34225 0.33597 0.0
C3003 C 0.13894 0.34329 0.34374 0.0
C3004 C 0.14543 0.33415 0.33341 0.0
C3005 C 0.14355 0.32716 0.3384 0.0
U3006 U 0.12648 0.31783 0.36349 0.0
O3007 O 0.11808 0.30687 0.36309 0.0
O3008 O 0.12911 0.30675 0.37143 0.0
C3009 C 0.12258 0.30258 0.36854 0.0
C3010 C 0.13637 0.32061 0.35056 0.0
C3011 C 0.12367 0.29354 0.36679 0.0
C3012 C 0.12734 0.28175 0.35768 0.0
C3013 C 0.12724 0.29046 0.3593 0.0
C3014 C 0.12047 0.27923 0.37104 0.0
C3015 C 0.12379 0.27609 0.36349 0.0
C3016 C 0.12044 0.28784 0.37268 0.0
C3017 C 0.1142 0.33354 0.37783 0.0
C3018 C 0.10158 0.33152 0.38625 0.0
C3019 C 0.10886 0.3449 0.3865 0.0
C3020 C 0.11486 0.34175 0.38093 0.0
C3021 C 0.10209 0.33987 0.38914 0.0
C3022 C 0.10761 0.32836 0.38063 0.0
C3023 C 0.11999 0.33099 0.37108 0.0
O3024 O 0.13919 0.31975 0.35829 0.0
O3025 O 0.12832 0.31891 0.34984 0.0
O3026 O 0.11658 0.32739 0.36447 0.0
O3027 O 0.12717 0.32757 0.37336 0.0
H3028 H 0.13354 0.33714 0.35452 0.0
H3029 H 0.13695 0.34948 0.34578 0.0
H3030 H 0.14858 0.33322 0.32744 0.0
H3031 H 0.14528 0.32095 0.3362 0.0
H3032 H 0.12991 0.27948 0.35179 0.0
H3033 H 0.12974 0.29477 0.35466 0.0
H3034 H 0.11777 0.275 0.37566 0.0
H3035 H 0.11766 0.29009 0.37848 0.0
H3036 H 0.09642 0.32751 0.38818 0.0
H3037 H 0.10932 0.35143 0.38841 0.0
H3038 H 0.11985 0.34586 0.37878 0.0
H3039 H 0.10698 0.322 0.37827 0.0
C3040 C 0.4411 0.64238 0.4395 0.0
C3041 C 0.43315 0.64612 0.43855 0.0
C3042 C 0.42639 0.63327 0.44352 0.0
C3043 C 0.42585 0.64162 0.4406 0.0
C3044 C 0.43439 0.62967 0.44464 0.0
C3045 C 0.44166 0.63418 0.44265 0.0
U3046 U 0.4524 0.65972 0.42732 0.0
O3047 O 0.46409 0.66663 0.43019 0.0
O3048 O 0.46323 0.65888 0.41878 0.0
C3049 C 0.46802 0.66363 0.42354 0.0
C3050 C 0.44884 0.64668 0.43679 0.0
C3051 C 0.47675 0.66071 0.42466 0.0
C3052 C 0.48747 0.65194 0.43122 0.0
C3053 C 0.47911 0.65482 0.43081 0.0
C3054 C 0.4911 0.66091 0.41946 0.0
C3055 C 0.49354 0.6549 0.42546 0.0
C3056 C 0.48282 0.66377 0.41907 0.0
C3057 C 0.43745 0.67508 0.41514 0.0
C3058 C 0.439 0.6823 0.40172 0.0
C3059 C 0.42618 0.6839 0.40982 0.0
C3060 C 0.42949 0.67874 0.4161 0.0
C3061 C 0.43081 0.68552 0.40249 0.0
C3062 C 0.44232 0.67709 0.40803 0.0
C3063 C 0.43977 0.66825 0.42096 0.0
O3064 O 0.45047 0.64611 0.42872 0.0
O3065 O 0.45011 0.65426 0.43985 0.0
O3066 O 0.4434 0.6703 0.4281 0.0
O3067 O 0.44289 0.66143 0.41751 0.0
H3068 H 0.43259 0.65246 0.43611 0.0
H3069 H 0.4198 0.64464 0.43984 0.0
H3070 H 0.43503 0.62324 0.44682 0.0
H3071 H 0.44774 0.63118 0.44339 0.0
H3072 H 0.48918 0.64737 0.43598 0.0
H3073 H 0.4745 0.65238 0.4352 0.0
H3074 H 0.49556 0.66325 0.41487 0.0
H3075 H 0.48111 0.66829 0.41426 0.0
H3076 H 0.44261 0.68341 0.39606 0.0
H3077 H 0.41981 0.68625 0.41046 0.0
H3078 H 0.42561 0.67721 0.42149 0.0
H3079 H 0.44846 0.67428 0.40715 0.0
C3080 C 0.13955 0.67525 0.15756 0.0
C3081 C 0.13462 0.66794 0.15704 0.0
C3082 C 0.1437 0.66091 0.16719 0.0
C3083 C 0.13664 0.66086 0.16185 0.0
C3084 C 0.1488 0.66815 0.16743 0.0
C3085 C 0.14672 0.67526 0.16267 0.0
U3086 U 0.12636 0.68597 0.14092 0.0
O3087 O 0.11822 0.69709 0.14166 0.0
O3088 O 0.12871 0.69688 0.13264 0.0
C3089 C 0.12253 0.70126 0.13597 0.0
C3090 C 0.13694 0.68301 0.15322 0.0
C3091 C 0.12407 0.71026 0.13767 0.0
C3092 C 0.12507 0.72219 0.14727 0.0
C3093 C 0.12506 0.71346 0.14587 0.0
C3094 C 0.12346 0.72455 0.1323 0.0
C3095 C 0.12403 0.72777 0.1405 0.0
C3096 C 0.12351 0.71589 0.13091 0.0
C3097 C 0.11294 0.66969 0.12804 0.0
C3098 C 0.10488 0.6706 0.11506 0.0
C3099 C 0.10368 0.65829 0.12397 0.0
C3100 C 0.10938 0.6618 0.12961 0.0
C3101 C 0.10145 0.66258 0.11658 0.0
C3102 C 0.11065 0.67414 0.12075 0.0
C3103 C 0.11917 0.67276 0.13413 0.0
O3104 O 0.13933 0.68374 0.14533 0.0
O3105 O 0.12905 0.68516 0.15443 0.0
O3106 O 0.11622 0.67657 0.14084 0.0
O3107 O 0.12613 0.67612 0.13119 0.0
H3108 H 0.12904 0.66781 0.15312 0.0
H3109 H 0.13246 0.65549 0.16164 0.0
H3110 H 0.1543 0.66837 0.17143 0.0
H3111 H 0.15061 0.68084 0.16313 0.0
H3112 H 0.12549 0.72456 0.15364 0.0
H3113 H 0.12548 0.70923 0.15119 0.0
H3114 H 0.12265 0.72876 0.127 0.0
H3115 H 0.12271 0.71356 0.12455 0.0
H3116 H 0.1032 0.67405 0.10943 0.0
H3117 H 0.10097 0.65221 0.12542 0.0
H3118 H 0.11105 0.6583 0.13521 0.0
H3119 H 0.11334 0.68026 0.11945 0.0
C3120 C 0.06296 0.3616 0.93983 0.0
C3121 C 0.07072 0.3593 0.93631 0.0
C3122 C 0.0776 0.37089 0.94361 0.0
C3123 C 0.07799 0.36388 0.93821 0.0
C3124 C 0.06988 0.37291 0.94742 0.0
C3125 C 0.06262 0.36831 0.94553 0.0
U3126 U 0.05169 0.34469 0.92731 0.0
O3127 O 0.04013 0.33749 0.92996 0.0
O3128 O 0.04086 0.34561 0.9188 0.0
C3129 C 0.03614 0.34067 0.92344 0.0
C3130 C 0.05512 0.35747 0.93717 0.0
C3131 C 0.02746 0.3436 0.92481 0.0
C3132 C 0.01726 0.35354 0.93044 0.0
C3133 C 0.02554 0.35048 0.93001 0.0
C3134 C 0.01279 0.34273 0.92068 0.0
C3135 C 0.01082 0.34978 0.92564 0.0
C3136 C 0.02101 0.33969 0.92027 0.0
C3137 C 0.06719 0.32995 0.915 0.0
C3138 C 0.06458 0.31993 0.90375 0.0
C3139 C 0.07885 0.32286 0.90822 0.0
C3140 C 0.07581 0.32843 0.91426 0.0
C3141 C 0.07331 0.31864 0.90279 0.0
C3142 C 0.06153 0.32561 0.90979 0.0
C3143 C 0.06455 0.3366 0.92084 0.0
O3144 O 0.05338 0.35827 0.92913 0.0
O3145 O 0.0539 0.3498 0.94001 0.0
O3146 O 0.06088 0.33431 0.92789 0.0
O3147 O 0.06124 0.34336 0.91743 0.0
H3148 H 0.07111 0.35409 0.93193 0.0
H3149 H 0.08389 0.36201 0.93536 0.0
H3150 H 0.06937 0.37827 0.9516 0.0
H3151 H 0.05668 0.37016 0.94832 0.0
H3152 H 0.01592 0.3589 0.93442 0.0
H3153 H 0.03046 0.35358 0.93356 0.0
H3154 H 0.00802 0.33974 0.91684 0.0
H3155 H 0.02238 0.33439 0.9162 0.0
H3156 H 0.06013 0.31664 0.89978 0.0
H3157 H 0.08559 0.32211 0.90762 0.0
H3158 H 0.08026 0.33176 0.91821 0.0
H3159 H 0.05483 0.32672 0.9103 0.0
C3160 C 0.36509 0.32867 0.65772 0.0
C3161 C 0.36964 0.33618 0.65674 0.0
C3162 C 0.36117 0.34283 0.66758 0.0
C3163 C 0.36773 0.3432 0.66169 0.0
C3164 C 0.35635 0.33547 0.66826 0.0
C3165 C 0.35831 0.32842 0.66337 0.0
U3166 U 0.37777 0.31785 0.64064 0.0
O3167 O 0.38604 0.30681 0.64126 0.0
O3168 O 0.37516 0.30674 0.63272 0.0
C3169 C 0.38156 0.3025 0.63581 0.0
C3170 C 0.36774 0.32093 0.65337 0.0
C3171 C 0.38027 0.29348 0.63761 0.0
C3172 C 0.37923 0.2816 0.64727 0.0
C3173 C 0.3792 0.29033 0.64582 0.0
C3174 C 0.38112 0.27917 0.63235 0.0
C3175 C 0.3804 0.27596 0.64055 0.0
C3176 C 0.38103 0.28782 0.63091 0.0
C3177 C 0.39025 0.33334 0.6262 0.0
C3178 C 0.40326 0.33157 0.61836 0.0
C3179 C 0.39526 0.34447 0.61704 0.0
C3180 C 0.38923 0.34129 0.62257 0.0
C3181 C 0.40242 0.3397 0.61497 0.0
C3182 C 0.39721 0.32839 0.62394 0.0
C3183 C 0.38441 0.33088 0.63295 0.0
O3184 O 0.36499 0.31997 0.64563 0.0
O3185 O 0.37574 0.31904 0.65423 0.0
O3186 O 0.38775 0.32733 0.63962 0.0
O3187 O 0.37723 0.32749 0.63067 0.0
H3188 H 0.37488 0.33651 0.65238 0.0
H3189 H 0.37153 0.34883 0.66111 0.0
H3190 H 0.3513 0.33507 0.67283 0.0
H3191 H 0.35473 0.32268 0.6642 0.0
H3192 H 0.37869 0.27928 0.65365 0.0
H3193 H 0.37864 0.29459 0.6511 0.0
H3194 H 0.38198 0.27496 0.62706 0.0
H3195 H 0.38188 0.29011 0.62454 0.0
H3196 H 0.40871 0.32776 0.61687 0.0
H3197 H 0.39451 0.35083 0.61472 0.0
H3198 H 0.38394 0.34523 0.6243 0.0
H3199 H 0.39811 0.32223 0.6267 0.0
C3200 C 0.06507 0.44113 0.36153 0.0
C3201 C 0.06625 0.43318 0.35788 0.0
C3202 C 0.06084 0.42645 0.37057 0.0
C3203 C 0.0641 0.42589 0.36235 0.0
C3204 C 0.05951 0.43445 0.37409 0.0
C3205 C 0.0616 0.44172 0.36961 0.0
U3206 U 0.07742 0.45239 0.3443 0.0
O3207 O 0.07452 0.464 0.33726 0.0
O3208 O 0.08582 0.4633 0.34517 0.0
C3209 C 0.08098 0.46806 0.34045 0.0
C3210 C 0.06783 0.44886 0.35727 0.0
C3211 C 0.07939 0.4766 0.3437 0.0
C3212 C 0.07625 0.4862 0.35521 0.0
C3213 C 0.07662 0.478 0.35198 0.0
C3214 C 0.08106 0.49167 0.34183 0.0
C3215 C 0.07861 0.49312 0.35021 0.0
C3216 C 0.08142 0.4835 0.33862 0.0
C3217 C 0.08951 0.43695 0.32919 0.0
C3218 C 0.102 0.4388 0.32052 0.0
C3219 C 0.09542 0.42509 0.32163 0.0
C3220 C 0.08924 0.42846 0.32684 0.0
C3221 C 0.10196 0.43016 0.31859 0.0
C3222 C 0.09581 0.44218 0.32585 0.0
C3223 C 0.0838 0.43966 0.33594 0.0
O3224 O 0.0759 0.45049 0.3579 0.0
O3225 O 0.06485 0.45012 0.34965 0.0
O3226 O 0.07669 0.4433 0.33381 0.0
O3227 O 0.08733 0.44294 0.34264 0.0
H3228 H 0.06893 0.43261 0.35164 0.0
H3229 H 0.06503 0.41982 0.35939 0.0
H3230 H 0.05706 0.43511 0.38041 0.0
H3231 H 0.06068 0.4478 0.37253 0.0
H3232 H 0.07432 0.48712 0.36168 0.0
H3233 H 0.07503 0.47274 0.35601 0.0
H3234 H 0.08311 0.49682 0.33787 0.0
H3235 H 0.08363 0.48254 0.33224 0.0
H3236 H 0.10705 0.44279 0.31827 0.0
H3237 H 0.0953 0.41842 0.32024 0.0
H3238 H 0.08447 0.42432 0.3294 0.0
H3239 H 0.09615 0.44875 0.32765 0.0
C3240 C 0.32835 0.34622 0.13927 0.0
C3241 C 0.33553 0.34619 0.13412 0.0
C3242 C 0.3424 0.33619 0.14348 0.0
C3243 C 0.34248 0.3412 0.13619 0.0
C3244 C 0.33539 0.33665 0.14888 0.0
C3245 C 0.32841 0.34157 0.14675 0.0
U3246 U 0.31765 0.36316 0.12632 0.0
O3247 O 0.30655 0.36253 0.11813 0.0
O3248 O 0.30668 0.37131 0.12882 0.0
C3249 C 0.30235 0.36814 0.12252 0.0
C3250 C 0.32063 0.35065 0.13665 0.0
C3251 C 0.29336 0.36634 0.12398 0.0
C3252 C 0.28184 0.35694 0.12772 0.0
C3253 C 0.29051 0.35868 0.12737 0.0
C3254 C 0.27888 0.37052 0.1215 0.0
C3255 C 0.27599 0.36281 0.12464 0.0
C3256 C 0.28748 0.37228 0.12119 0.0
C3257 C 0.3341 0.37636 0.11332 0.0
C3258 C 0.33281 0.38872 0.10438 0.0
C3259 C 0.346 0.3811 0.10506 0.0
C3260 C 0.34246 0.37546 0.11073 0.0
C3261 C 0.34127 0.38784 0.10187 0.0
C3262 C 0.32924 0.383 0.11011 0.0
C3263 C 0.33089 0.37014 0.11935 0.0
O3264 O 0.31987 0.35848 0.1392 0.0
O3265 O 0.31853 0.34961 0.12872 0.0
O3266 O 0.32707 0.36353 0.1162 0.0
O3267 O 0.32747 0.37294 0.12634 0.0
H3268 H 0.33565 0.34981 0.12834 0.0
H3269 H 0.34777 0.34102 0.1319 0.0
H3270 H 0.33524 0.3331 0.15469 0.0
H3271 H 0.32297 0.3416 0.15086 0.0
H3272 H 0.27972 0.35093 0.13013 0.0
H3273 H 0.29497 0.35399 0.12951 0.0
H3274 H 0.27447 0.37512 0.11907 0.0
H3275 H 0.28955 0.37819 0.11852 0.0
H3276 H 0.32901 0.39383 0.10195 0.0
H3277 H 0.35244 0.3801 0.10306 0.0
H3278 H 0.34629 0.37034 0.1131 0.0
H3279 H 0.32274 0.38376 0.11203 0.0
C3280 C 0.43866 0.56297 0.86206 0.0
C3281 C 0.43897 0.57078 0.85794 0.0
C3282 C 0.44317 0.57764 0.87101 0.0
C3283 C 0.44126 0.57806 0.86237 0.0
C3284 C 0.44296 0.56977 0.87504 0.0
C3285 C 0.44074 0.56252 0.87061 0.0
U3286 U 0.42627 0.55183 0.84474 0.0
O3287 O 0.42914 0.54027 0.83761 0.0
O3288 O 0.41784 0.54093 0.84553 0.0
C3289 C 0.42261 0.53623 0.84069 0.0
C3290 C 0.43584 0.55528 0.85774 0.0
C3291 C 0.42403 0.52756 0.84365 0.0
C3292 C 0.42837 0.5175 0.85436 0.0
C3293 C 0.42802 0.5258 0.85134 0.0
C3294 C 0.42098 0.5127 0.84194 0.0
C3295 C 0.42475 0.51087 0.84972 0.0
C3296 C 0.42065 0.52094 0.83894 0.0
C3297 C 0.41433 0.56713 0.82949 0.0
C3298 C 0.40197 0.56515 0.82069 0.0
C3299 C 0.40907 0.57863 0.82095 0.0
C3300 C 0.41496 0.57541 0.82658 0.0
C3301 C 0.40245 0.57358 0.81797 0.0
C3302 C 0.40787 0.56195 0.82643 0.0
C3303 C 0.41996 0.56459 0.83637 0.0
O3304 O 0.42775 0.55369 0.85837 0.0
O3305 O 0.43884 0.55399 0.85014 0.0
O3306 O 0.42713 0.56101 0.83435 0.0
O3307 O 0.41637 0.56129 0.84305 0.0
H3308 H 0.43737 0.57127 0.85133 0.0
H3309 H 0.44153 0.58399 0.85904 0.0
H3310 H 0.44432 0.56923 0.88169 0.0
H3311 H 0.44049 0.55656 0.8739 0.0
H3312 H 0.4313 0.51629 0.86038 0.0
H3313 H 0.43064 0.53085 0.85509 0.0
H3314 H 0.41793 0.5078 0.83831 0.0
H3315 H 0.41747 0.52219 0.83304 0.0
H3316 H 0.39692 0.56111 0.81853 0.0
H3317 H 0.40949 0.58521 0.81926 0.0
H3318 H 0.41983 0.57954 0.82897 0.0
H3319 H 0.40724 0.55554 0.82866 0.0
C3320 C 0.1754 0.6576 0.63895 0.0
C3321 C 0.16827 0.65731 0.63374 0.0
C3322 C 0.16114 0.66745 0.64271 0.0
C3323 C 0.16123 0.66224 0.63558 0.0
C3324 C 0.1681 0.66739 0.64816 0.0
C3325 C 0.1752 0.66252 0.64627 0.0
U3326 U 0.18629 0.64036 0.62665 0.0
O3327 O 0.19726 0.64079 0.61826 0.0
O3328 O 0.19743 0.63252 0.62935 0.0
C3329 C 0.20158 0.63539 0.62278 0.0
C3330 C 0.18321 0.65324 0.63649 0.0
C3331 C 0.21061 0.63717 0.62382 0.0
C3332 C 0.22235 0.64641 0.62728 0.0
C3333 C 0.21367 0.64469 0.62734 0.0
C3334 C 0.2249 0.63309 0.62034 0.0
C3335 C 0.228 0.64069 0.62359 0.0
C3336 C 0.21631 0.63135 0.62048 0.0
C3337 C 0.1707 0.62598 0.61426 0.0
C3338 C 0.17259 0.61787 0.60143 0.0
C3339 C 0.15941 0.61712 0.60906 0.0
C3340 C 0.16259 0.62264 0.61509 0.0
C3341 C 0.16432 0.61476 0.60209 0.0
C3342 C 0.17577 0.62345 0.60748 0.0
C3343 C 0.17321 0.63272 0.62008 0.0
O3344 O 0.18414 0.64554 0.63936 0.0
O3345 O 0.18524 0.65399 0.62851 0.0
O3346 O 0.17679 0.63936 0.6167 0.0
O3347 O 0.17661 0.63043 0.62726 0.0
H3348 H 0.16826 0.65348 0.6281 0.0
H3349 H 0.15591 0.66214 0.63132 0.0
H3350 H 0.16821 0.67141 0.65367 0.0
H3351 H 0.18063 0.6628 0.65037 0.0
H3352 H 0.22462 0.65231 0.62983 0.0
H3353 H 0.20935 0.64928 0.62993 0.0
H3354 H 0.22915 0.62856 0.61752 0.0
H3355 H 0.21408 0.62553 0.61771 0.0
H3356 H 0.17651 0.61616 0.59613 0.0
H3357 H 0.15296 0.61503 0.60965 0.0
H3358 H 0.15856 0.6246 0.62023 0.0
H3359 H 0.18205 0.62599 0.60672 0.0
C3360 C 0.06469 0.56311 0.14202 0.0
C3361 C 0.0645 0.57093 0.14613 0.0
C3362 C 0.06055 0.57785 0.13302 0.0
C3363 C 0.0624 0.57824 0.14167 0.0
C3364 C 0.06066 0.56997 0.12899 0.0
C3365 C 0.06271 0.56269 0.13345 0.0
U3366 U 0.07658 0.55167 0.15949 0.0
O3367 O 0.07348 0.54003 0.16641 0.0
O3368 O 0.08496 0.54075 0.15874 0.0
C3369 C 0.08008 0.53602 0.16344 0.0
C3370 C 0.06729 0.55536 0.14636 0.0
C3371 C 0.0788 0.52736 0.16043 0.0
C3372 C 0.0764 0.51726 0.14916 0.0
C3373 C 0.07614 0.52556 0.15219 0.0
C3374 C 0.08153 0.51252 0.1627 0.0
C3375 C 0.07937 0.51072 0.15432 0.0
C3376 C 0.08124 0.52075 0.16572 0.0
C3377 C 0.08879 0.56626 0.17508 0.0
C3378 C 0.10269 0.56555 0.18147 0.0
C3379 C 0.09324 0.57699 0.18497 0.0
C3380 C 0.08709 0.57352 0.17977 0.0
C3381 C 0.10119 0.57321 0.1856 0.0
C3382 C 0.09652 0.56209 0.17621 0.0
C3383 C 0.08303 0.56415 0.16814 0.0
O3384 O 0.07536 0.55363 0.14586 0.0
O3385 O 0.06414 0.55409 0.15391 0.0
O3386 O 0.07577 0.56067 0.17006 0.0
O3387 O 0.08649 0.56105 0.16131 0.0
H3388 H 0.06605 0.57139 0.15275 0.0
H3389 H 0.06222 0.58419 0.14499 0.0
H3390 H 0.05935 0.56945 0.12233 0.0
H3391 H 0.06287 0.55672 0.13016 0.0
H3392 H 0.07477 0.51605 0.14266 0.0
H3393 H 0.07425 0.5306 0.14801 0.0
H3394 H 0.08379 0.50759 0.16683 0.0
H3395 H 0.08332 0.52202 0.17208 0.0
H3396 H 0.1088 0.56257 0.18185 0.0
H3397 H 0.09197 0.5829 0.18812 0.0
H3398 H 0.08119 0.57685 0.17897 0.0
H3399 H 0.09797 0.55646 0.17264 0.0
C3400 C 0.17576 0.34606 0.86525 0.0
C3401 C 0.1678 0.34981 0.86608 0.0
C3402 C 0.16106 0.33674 0.8617 0.0
C3403 C 0.16051 0.34521 0.86423 0.0
C3404 C 0.16907 0.33313 0.86064 0.0
C3405 C 0.17634 0.33775 0.8624 0.0
U3406 U 0.18637 0.36324 0.87795 0.0
O3407 O 0.19744 0.36275 0.88618 0.0
O3408 O 0.19736 0.37133 0.87533 0.0
C3409 C 0.20167 0.36824 0.88168 0.0
C3410 C 0.18346 0.35048 0.86791 0.0
C3411 C 0.21067 0.36645 0.88027 0.0
C3412 C 0.22247 0.35677 0.87862 0.0
C3413 C 0.21375 0.35829 0.87871 0.0
C3414 C 0.22503 0.37153 0.88138 0.0
C3415 C 0.22816 0.36336 0.88018 0.0
C3416 C 0.21639 0.37305 0.8814 0.0
C3417 C 0.16997 0.37692 0.89044 0.0
C3418 C 0.17177 0.38851 0.90028 0.0
C3419 C 0.15793 0.38261 0.89785 0.0
C3420 C 0.16134 0.37695 0.89211 0.0
C3421 C 0.16306 0.38851 0.90197 0.0
C3422 C 0.17522 0.38274 0.89453 0.0
C3423 C 0.17311 0.37048 0.88462 0.0
O3424 O 0.18436 0.35824 0.86519 0.0
O3425 O 0.18534 0.34961 0.87591 0.0
O3426 O 0.1769 0.36396 0.88799 0.0
O3427 O 0.17657 0.37304 0.87756 0.0
H3428 H 0.16722 0.35623 0.86829 0.0
H3429 H 0.15446 0.34827 0.86488 0.0
H3430 H 0.16973 0.32663 0.85874 0.0
H3431 H 0.18243 0.33475 0.86175 0.0
H3432 H 0.22474 0.35041 0.8777 0.0
H3433 H 0.20944 0.35309 0.87784 0.0
H3434 H 0.22929 0.37672 0.88255 0.0
H3435 H 0.21416 0.37937 0.88263 0.0
H3436 H 0.17588 0.39294 0.90341 0.0
H3437 H 0.15127 0.3822 0.89921 0.0
H3438 H 0.15722 0.37244 0.88908 0.0
H3439 H 0.18193 0.38276 0.89334 0.0
C3440 C 0.43935 0.44116 0.64234 0.0
C3441 C 0.43839 0.43308 0.64579 0.0
C3442 C 0.44358 0.42687 0.63279 0.0
C3443 C 0.44055 0.42596 0.64105 0.0
C3444 C 0.44469 0.43497 0.62947 0.0
C3445 C 0.44262 0.44205 0.63422 0.0
U3446 U 0.4268 0.45212 0.65975 0.0
O3447 O 0.42965 0.46375 0.66679 0.0
O3448 O 0.41836 0.463 0.65888 0.0
C3449 C 0.42315 0.46777 0.66362 0.0
C3450 C 0.43646 0.44874 0.6468 0.0
C3451 C 0.42467 0.47632 0.66038 0.0
C3452 C 0.42891 0.48591 0.64923 0.0
C3453 C 0.42855 0.47775 0.65257 0.0
C3454 C 0.42183 0.49127 0.66161 0.0
C3455 C 0.42534 0.49273 0.65362 0.0
C3456 C 0.4215 0.48315 0.66494 0.0
C3457 C 0.41462 0.43722 0.67509 0.0
C3458 C 0.40165 0.43916 0.68299 0.0
C3459 C 0.40957 0.42623 0.68439 0.0
C3460 C 0.4156 0.4293 0.67881 0.0
C3461 C 0.40246 0.43105 0.68647 0.0
C3462 C 0.40769 0.44222 0.67732 0.0
C3463 C 0.42037 0.43947 0.66819 0.0
O3464 O 0.42837 0.45028 0.64615 0.0
O3465 O 0.4394 0.44989 0.65444 0.0
O3466 O 0.42756 0.44302 0.67022 0.0
O3467 O 0.41691 0.44266 0.6614 0.0
H3468 H 0.4358 0.43228 0.65205 0.0
H3469 H 0.43958 0.41976 0.6437 0.0
H3470 H 0.44703 0.43581 0.62312 0.0
H3471 H 0.44337 0.44824 0.63146 0.0
H3472 H 0.43181 0.48686 0.64314 0.0
H3473 H 0.43106 0.47254 0.64897 0.0
H3474 H 0.41897 0.49635 0.66513 0.0
H3475 H 0.41847 0.48216 0.67097 0.0
H3476 H 0.39624 0.44303 0.68446 0.0
H3477 H 0.41029 0.41986 0.68672 0.0
H3478 H 0.42084 0.4253 0.67708 0.0
H3479 H 0.40679 0.44835 0.67446 0.0
C3480 C 0.32837 0.65785 0.36456 0.0
C3481 C 0.33643 0.65564 0.36744 0.0
C3482 C 0.34228 0.66824 0.36098 0.0
C3483 C 0.34336 0.66079 0.36562 0.0
C3484 C 0.33428 0.67018 0.35778 0.0
C3485 C 0.32738 0.66503 0.35957 0.0
U3486 U 0.31822 0.64062 0.37768 0.0
O3487 O 0.30722 0.64116 0.38601 0.0
O3488 O 0.30727 0.63241 0.3753 0.0
C3489 C 0.303 0.63555 0.38166 0.0
C3490 C 0.32085 0.6532 0.36733 0.0
C3491 C 0.29401 0.63736 0.38029 0.0
C3492 C 0.28249 0.64675 0.37648 0.0
C3493 C 0.29115 0.64495 0.37673 0.0
C3494 C 0.27955 0.63335 0.38312 0.0
C3495 C 0.27667 0.641 0.37982 0.0
C3496 C 0.28814 0.63154 0.38332 0.0
C3497 C 0.33448 0.6275 0.39078 0.0
C3498 C 0.3328 0.61509 0.39958 0.0
C3499 C 0.34589 0.62289 0.39975 0.0
C3500 C 0.34265 0.62848 0.39385 0.0
C3501 C 0.34104 0.61613 0.40271 0.0
C3502 C 0.32952 0.62077 0.39365 0.0
C3503 C 0.33151 0.63372 0.38462 0.0
O3504 O 0.32026 0.64534 0.3648 0.0
O3505 O 0.31894 0.6542 0.3753 0.0
O3506 O 0.32774 0.6404 0.38769 0.0
O3507 O 0.3281 0.6309 0.37764 0.0
H3508 H 0.33731 0.65011 0.37133 0.0
H3509 H 0.34947 0.65916 0.36816 0.0
H3510 H 0.33331 0.67583 0.35409 0.0
H3511 H 0.32121 0.66682 0.3573 0.0
H3512 H 0.28037 0.6527 0.37395 0.0
H3513 H 0.29561 0.64955 0.3744 0.0
H3514 H 0.27516 0.62885 0.38575 0.0
H3515 H 0.29022 0.62568 0.38611 0.0
H3516 H 0.32895 0.60986 0.40164 0.0
H3517 H 0.35221 0.62395 0.40209 0.0
H3518 H 0.34656 0.63364 0.39171 0.0
H3519 H 0.32318 0.61992 0.39132 0.0
C3520 C 0.36208 0.06499 0.4411 0.0
C3521 C 0.35825 0.06573 0.43318 0.0
C3522 C 0.37112 0.06085 0.42639 0.0
C3523 C 0.36272 0.06362 0.42588 0.0
C3524 C 0.37482 0.05996 0.43437 0.0
C3525 C 0.37034 0.06201 0.44165 0.0
U3526 U 0.34481 0.07736 0.45217 0.0
O3527 O 0.33759 0.07446 0.46368 0.0
O3528 O 0.3455 0.08578 0.46308 0.0
C3529 C 0.34068 0.08097 0.46776 0.0
C3530 C 0.35777 0.06772 0.44882 0.0
C3531 C 0.34371 0.07952 0.47639 0.0
C3532 C 0.35495 0.07622 0.48628 0.0
C3533 C 0.35173 0.07615 0.47805 0.0
C3534 C 0.34204 0.08261 0.49125 0.0
C3535 C 0.35021 0.0797 0.49288 0.0
C3536 C 0.33882 0.08249 0.48308 0.0
C3537 C 0.33006 0.08949 0.43641 0.0
C3538 C 0.32013 0.10095 0.43847 0.0
C3539 C 0.32279 0.09556 0.42447 0.0
C3540 C 0.32841 0.08972 0.42778 0.0
C3541 C 0.31856 0.10125 0.42974 0.0
C3542 C 0.32586 0.0951 0.4418 0.0
C3543 C 0.33676 0.08381 0.43928 0.0
O3544 O 0.35844 0.07578 0.4505 0.0
O3545 O 0.35014 0.06477 0.44999 0.0
O3546 O 0.33453 0.07669 0.44287 0.0
O3547 O 0.34338 0.08733 0.44273 0.0
H3548 H 0.35186 0.06803 0.43263 0.0
H3549 H 0.35962 0.0642 0.41984 0.0
H3550 H 0.38129 0.0579 0.43498 0.0
H3551 H 0.37341 0.06143 0.44771 0.0
H3552 H 0.3613 0.07401 0.4874 0.0
H3553 H 0.35561 0.07385 0.47295 0.0
H3554 H 0.3383 0.08535 0.49625 0.0
H3555 H 0.33264 0.08514 0.48193 0.0
H3556 H 0.317 0.10531 0.44268 0.0
H3557 H 0.32199 0.09579 0.41771 0.0
H3558 H 0.3317 0.08553 0.42352 0.0
H3559 H 0.32713 0.09506 0.44849 0.0
C3560 C 0.86146 0.43965 0.56274 0.0
C3561 C 0.85824 0.43799 0.57081 0.0
C3562 C 0.87109 0.44341 0.57711 0.0
C3563 C 0.86302 0.43992 0.57797 0.0
C3564 C 0.87414 0.44532 0.56904 0.0
C3565 C 0.86935 0.44347 0.56193 0.0
U3566 U 0.84449 0.4267 0.55175 0.0
O3567 O 0.83717 0.4294 0.54025 0.0
O3568 O 0.8455 0.4184 0.54078 0.0
C3569 C 0.84059 0.42311 0.5361 0.0
C3570 C 0.85709 0.43682 0.5551 0.0
C3571 C 0.84379 0.42494 0.52758 0.0
C3572 C 0.85537 0.42795 0.51802 0.0
C3573 C 0.85215 0.42748 0.52622 0.0
C3574 C 0.84182 0.42377 0.51247 0.0
C3575 C 0.85029 0.42593 0.51106 0.0
C3576 C 0.83861 0.4233 0.52064 0.0
C3577 C 0.83035 0.41403 0.56775 0.0
C3578 C 0.81958 0.4033 0.56592 0.0
C3579 C 0.82413 0.40727 0.57991 0.0
C3580 C 0.82971 0.41306 0.57647 0.0
C3581 C 0.81896 0.40235 0.57471 0.0
C3582 C 0.82525 0.40914 0.56244 0.0
C3583 C 0.83676 0.41991 0.56465 0.0
O3584 O 0.85805 0.42881 0.55333 0.0
O3585 O 0.84932 0.43948 0.55409 0.0
O3586 O 0.83421 0.42691 0.56106 0.0
O3587 O 0.84347 0.41662 0.56113 0.0
H3588 H 0.85217 0.43498 0.57155 0.0
H3589 H 0.86059 0.43835 0.58414 0.0
H3590 H 0.88034 0.44804 0.56825 0.0
H3591 H 0.87193 0.44477 0.55575 0.0
H3592 H 0.86191 0.42964 0.51713 0.0
H3593 H 0.85626 0.42879 0.5315 0.0
H3594 H 0.83778 0.422 0.50728 0.0
H3595 H 0.83217 0.42128 0.52157 0.0
H3596 H 0.81572 0.39953 0.56177 0.0
H3597 H 0.82403 0.40651 0.58668 0.0
H3598 H 0.83368 0.41671 0.58065 0.0
H3599 H 0.82573 0.40977 0.55567 0.0
C3600 C 0.34626 0.13903 0.32844 0.0
C3601 C 0.34628 0.13393 0.33566 0.0
C3602 C 0.3361 0.1432 0.34241 0.0
C3603 C 0.34122 0.13599 0.34257 0.0
C3604 C 0.33651 0.14855 0.33536 0.0
C3605 C 0.3415 0.14644 0.32842 0.0
U3606 U 0.36365 0.12659 0.31776 0.0
O3607 O 0.36322 0.11821 0.30679 0.0
O3608 O 0.37151 0.12928 0.30663 0.0
C3609 C 0.36863 0.12274 0.30247 0.0
C3610 C 0.35075 0.13642 0.32075 0.0
C3611 C 0.36681 0.12384 0.29345 0.0
C3612 C 0.35784 0.12812 0.28176 0.0
C3613 C 0.35955 0.12793 0.29045 0.0
C3614 C 0.37062 0.12027 0.2791 0.0
C3615 C 0.36331 0.12414 0.27606 0.0
C3616 C 0.37236 0.12015 0.28769 0.0
C3617 C 0.37802 0.11407 0.3332 0.0
C3618 C 0.38528 0.10074 0.33139 0.0
C3619 C 0.38707 0.1087 0.34427 0.0
C3620 C 0.38176 0.11495 0.34114 0.0
C3621 C 0.38867 0.10144 0.33953 0.0
C3622 C 0.38001 0.10705 0.32822 0.0
C3623 C 0.37132 0.12 0.33083 0.0
O3624 O 0.35845 0.1393 0.31987 0.0
O3625 O 0.35002 0.12841 0.31882 0.0
O3626 O 0.3646 0.1167 0.32732 0.0
O3627 O 0.37363 0.12717 0.32741 0.0
H3628 H 0.34999 0.12822 0.33585 0.0
H3629 H 0.34108 0.13174 0.34789 0.0
H3630 H 0.33288 0.1543 0.33514 0.0
H3631 H 0.34149 0.1505 0.32295 0.0
H3632 H 0.35215 0.13113 0.27953 0.0
H3633 H 0.35517 0.13079 0.29481 0.0
H3634 H 0.37494 0.1172 0.27481 0.0
H3635 H 0.37798 0.11697 0.28988 0.0
H3636 H 0.38646 0.09518 0.32764 0.0
H3637 H 0.38956 0.10933 0.35059 0.0
H3638 H 0.38025 0.1203 0.34509 0.0
H3639 H 0.37719 0.10625 0.32207 0.0
C3640 C 0.642 0.56515 0.06265 0.0
C3641 C 0.64575 0.56532 0.07066 0.0
C3642 C 0.63263 0.56054 0.077 0.0
C3643 C 0.64109 0.56302 0.07778 0.0
C3644 C 0.62894 0.5604 0.06896 0.0
C3645 C 0.6336 0.56265 0.06187 0.0
U3646 U 0.65971 0.57725 0.05164 0.0
O3647 O 0.6667 0.57416 0.04004 0.0
O3648 O 0.65907 0.58564 0.04072 0.0
C3649 C 0.66365 0.58067 0.03596 0.0
C3650 C 0.64654 0.56791 0.05507 0.0
C3651 C 0.66026 0.5791 0.02749 0.0
C3652 C 0.64845 0.57637 0.01814 0.0
C3653 C 0.65188 0.57656 0.02626 0.0
C3654 C 0.66188 0.5807 0.01237 0.0
C3655 C 0.65339 0.57859 0.01115 0.0
C3656 C 0.66527 0.58098 0.02048 0.0
C3657 C 0.6751 0.5894 0.06648 0.0
C3658 C 0.68313 0.60222 0.06418 0.0
C3659 C 0.68392 0.59502 0.07758 0.0
C3660 C 0.6785 0.58882 0.07457 0.0
C3661 C 0.6861 0.60194 0.07254 0.0
C3662 C 0.67761 0.59602 0.06119 0.0
C3663 C 0.6682 0.58365 0.06427 0.0
O3664 O 0.64606 0.57599 0.05346 0.0
O3665 O 0.65412 0.56479 0.05395 0.0
O3666 O 0.67017 0.57643 0.06075 0.0
O3667 O 0.66144 0.58716 0.06106 0.0
H3668 H 0.65223 0.56731 0.07139 0.0
H3669 H 0.64408 0.56321 0.0839 0.0
H3670 H 0.62238 0.55876 0.06816 0.0
H3671 H 0.63058 0.56258 0.05576 0.0
H3672 H 0.64188 0.57474 0.01733 0.0
H3673 H 0.64791 0.57508 0.0316 0.0
H3674 H 0.66577 0.58254 0.00709 0.0
H3675 H 0.67173 0.583 0.02131 0.0
H3676 H 0.68489 0.60733 0.06004 0.0
H3677 H 0.68604 0.5946 0.08404 0.0
H3678 H 0.67661 0.58377 0.07875 0.0
H3679 H 0.67506 0.59656 0.05489 0.0
C3680 C 0.65632 0.36371 0.33278 0.0
C3681 C 0.65644 0.36933 0.33959 0.0
C3682 C 0.66625 0.36022 0.34695 0.0
C3683 C 0.66142 0.36761 0.34662 0.0
C3684 C 0.66568 0.35436 0.34038 0.0
C3685 C 0.66075 0.35611 0.33333 0.0
U3686 U 0.64128 0.3761 0.31829 0.0
O3687 O 0.64518 0.38256 0.30668 0.0
O3688 O 0.63582 0.37211 0.30612 0.0
C3689 C 0.64024 0.37781 0.30206 0.0
C3690 C 0.65277 0.36615 0.32463 0.0
C3691 C 0.64036 0.37834 0.29287 0.0
C3692 C 0.64702 0.37595 0.27934 0.0
C3693 C 0.64709 0.37518 0.28811 0.0
C3694 C 0.63356 0.38308 0.28007 0.0
C3695 C 0.64027 0.37991 0.27523 0.0
C3696 C 0.6336 0.38224 0.2888 0.0
C3697 C 0.62507 0.39032 0.33146 0.0
C3698 C 0.61759 0.40362 0.3303 0.0
C3699 C 0.61632 0.39526 0.34297 0.0
C3700 C 0.62157 0.38918 0.33947 0.0
C3701 C 0.61432 0.40261 0.33849 0.0
C3702 C 0.62297 0.39753 0.32682 0.0
C3703 C 0.63166 0.38436 0.32886 0.0
O3704 O 0.64511 0.36357 0.32291 0.0
O3705 O 0.65421 0.37396 0.32238 0.0
O3706 O 0.6388 0.38735 0.32594 0.0
O3707 O 0.62952 0.37703 0.32569 0.0
H3708 H 0.65305 0.37524 0.33928 0.0
H3709 H 0.66176 0.37219 0.35165 0.0
H3710 H 0.66942 0.34867 0.34046 0.0
H3711 H 0.66077 0.35174 0.3281 0.0
H3712 H 0.65222 0.3734 0.27576 0.0
H3713 H 0.65236 0.37213 0.29116 0.0
H3714 H 0.62834 0.38632 0.27712 0.0
H3715 H 0.62839 0.38474 0.29242 0.0
H3716 H 0.61617 0.40922 0.32669 0.0
H3717 H 0.61418 0.39437 0.34938 0.0
H3718 H 0.62323 0.38373 0.34321 0.0
H3719 H 0.62567 0.39857 0.32065 0.0
C3720 C 0.14241 0.93896 0.94138 0.0
C3721 C 0.14603 0.93771 0.93341 0.0
C3722 C 0.13328 0.943 0.9267 0.0
C3723 C 0.14151 0.93977 0.92612 0.0
C3724 C 0.12982 0.94443 0.93471 0.0
C3725 C 0.13434 0.94243 0.94197 0.0
U3726 U 0.15961 0.92651 0.95256 0.0
O3727 O 0.16681 0.92938 0.96408 0.0
O3728 O 0.15876 0.91817 0.96352 0.0
C3729 C 0.16363 0.92294 0.96819 0.0
C3730 C 0.14671 0.93622 0.9491 0.0
C3731 C 0.16057 0.92454 0.9768 0.0
C3732 C 0.14946 0.92835 0.98663 0.0
C3733 C 0.15257 0.92793 0.97837 0.0
C3734 C 0.16246 0.92231 0.9918 0.0
C3735 C 0.15434 0.92542 0.99343 0.0
C3736 C 0.16554 0.9219 0.98358 0.0
C3737 C 0.17446 0.91423 0.93706 0.0
C3738 C 0.18444 0.90289 0.93951 0.0
C3739 C 0.18165 0.90768 0.92532 0.0
C3740 C 0.17609 0.91368 0.92844 0.0
C3741 C 0.18581 0.9021 0.93077 0.0
C3742 C 0.17874 0.90889 0.94264 0.0
C3743 C 0.16776 0.91999 0.93975 0.0
O3744 O 0.146 0.92817 0.9508 0.0
O3745 O 0.15436 0.93913 0.95028 0.0
O3746 O 0.16998 0.92711 0.94334 0.0
O3747 O 0.16107 0.91653 0.94314 0.0
H3748 H 0.15227 0.93503 0.93283 0.0
H3749 H 0.14444 0.93878 0.92005 0.0
H3750 H 0.12349 0.94686 0.93538 0.0
H3751 H 0.13145 0.9434 0.94806 0.0
H3752 H 0.14318 0.93077 0.98769 0.0
H3753 H 0.14862 0.92999 0.97321 0.0
H3754 H 0.1663 0.91982 0.99684 0.0
H3755 H 0.1717 0.9192 0.98248 0.0
H3756 H 0.18769 0.89884 0.94391 0.0
H3757 H 0.18246 0.90722 0.91857 0.0
H3758 H 0.17281 0.91773 0.92404 0.0
H3759 H 0.17756 0.90924 0.94934 0.0
C3760 C 0.3465 0.86541 0.17551 0.0
C3761 C 0.34547 0.87108 0.16881 0.0
C3762 C 0.3368 0.86091 0.1613 0.0
C3763 C 0.34063 0.86887 0.16181 0.0
C3764 C 0.33827 0.85507 0.1678 0.0
C3765 C 0.34303 0.85733 0.17486 0.0
U3766 U 0.36372 0.8778 0.18645 0.0
O3767 O 0.36325 0.8862 0.19741 0.0
O3768 O 0.37151 0.87511 0.19762 0.0
C3769 C 0.36865 0.88169 0.20174 0.0
C3770 C 0.35087 0.86797 0.18331 0.0
C3771 C 0.36685 0.88068 0.21078 0.0
C3772 C 0.35806 0.87628 0.22255 0.0
C3773 C 0.35976 0.87638 0.21386 0.0
C3774 C 0.37053 0.88466 0.22506 0.0
C3775 C 0.36337 0.88056 0.2282 0.0
C3776 C 0.37225 0.88469 0.21646 0.0
C3777 C 0.37815 0.89013 0.1708 0.0
C3778 C 0.3864 0.90287 0.17268 0.0
C3779 C 0.38687 0.89537 0.15943 0.0
C3780 C 0.38134 0.88936 0.16264 0.0
C3781 C 0.38937 0.90226 0.16436 0.0
C3782 C 0.38082 0.89684 0.17589 0.0
C3783 C 0.37141 0.88434 0.17337 0.0
O3784 O 0.35855 0.86509 0.18431 0.0
O3785 O 0.3501 0.87595 0.18533 0.0
O3786 O 0.36478 0.88774 0.17693 0.0
O3787 O 0.37369 0.87717 0.17681 0.0
H3788 H 0.34819 0.87732 0.16909 0.0
H3789 H 0.33965 0.87351 0.15692 0.0
H3790 H 0.33566 0.84879 0.16749 0.0
H3791 H 0.34386 0.85281 0.1799 0.0
H3792 H 0.35248 0.87309 0.22483 0.0
H3793 H 0.35549 0.87327 0.20956 0.0
H3794 H 0.37478 0.88793 0.22927 0.0
H3795 H 0.37775 0.88804 0.21421 0.0
H3796 H 0.38823 0.90812 0.17662 0.0
H3797 H 0.38885 0.89481 0.15293 0.0
H3798 H 0.37928 0.88427 0.15859 0.0
H3799 H 0.37839 0.89755 0.18222 0.0
C3800 C 0.15779 0.13971 0.6757 0.0
C3801 C 0.15515 0.13752 0.66756 0.0
C3802 C 0.16797 0.14353 0.6617 0.0
C3803 C 0.16019 0.13946 0.66059 0.0
C3804 C 0.17043 0.14594 0.66984 0.0
C3805 C 0.16537 0.14405 0.67677 0.0
U3806 U 0.14073 0.12631 0.68583 0.0
O3807 O 0.14142 0.11806 0.69687 0.0
O3808 O 0.13245 0.12859 0.69676 0.0
C3809 C 0.13581 0.12241 0.70111 0.0
C3810 C 0.15315 0.13685 0.68319 0.0
C3811 C 0.13773 0.12408 0.71004 0.0
C3812 C 0.14762 0.12561 0.72165 0.0
C3813 C 0.14601 0.12516 0.71298 0.0
C3814 C 0.13271 0.12424 0.72447 0.0
C3815 C 0.14099 0.12498 0.72749 0.0
C3816 C 0.13112 0.12379 0.71585 0.0
C3817 C 0.12777 0.11296 0.66965 0.0
C3818 C 0.11477 0.10494 0.67079 0.0
C3819 C 0.12374 0.10331 0.65857 0.0
C3820 C 0.12935 0.10914 0.66188 0.0
C3821 C 0.11637 0.10115 0.66293 0.0
C3822 C 0.12046 0.11083 0.67414 0.0
C3823 C 0.1339 0.11922 0.67259 0.0
O3824 O 0.14525 0.13925 0.68377 0.0
O3825 O 0.15427 0.12889 0.68509 0.0
O3826 O 0.14064 0.11627 0.67633 0.0
O3827 O 0.131 0.12619 0.67597 0.0
H3828 H 0.14933 0.13408 0.66662 0.0
H3829 H 0.15821 0.13743 0.65439 0.0
H3830 H 0.17638 0.1491 0.67086 0.0
H3831 H 0.16752 0.14575 0.68302 0.0
H3832 H 0.15405 0.12635 0.72379 0.0
H3833 H 0.15123 0.12543 0.70861 0.0
H3834 H 0.12747 0.12368 0.72878 0.0
H3835 H 0.1247 0.12292 0.71372 0.0
H3836 H 0.10909 0.10347 0.67425 0.0
H3837 H 0.12521 0.10043 0.65257 0.0
H3838 H 0.13496 0.11071 0.65833 0.0
H3839 H 0.11912 0.11374 0.68016 0.0
P3840 P 0.11964 0.21151 0.36889 0.0
H3841 H 0.13769 0.21163 0.36685 0.0
H3842 H 0.14755 0.20046 0.36309 0.0
H3843 H 0.12694 0.18505 0.35454 0.0
H3844 H 0.11702 0.1963 0.35826 0.0
H3845 H 0.11178 0.22611 0.37618 0.0
H3846 H 0.11274 0.24108 0.37331 0.0
H3847 H 0.12786 0.23594 0.35132 0.0
H3848 H 0.12692 0.22079 0.35432 0.0
H3849 H 0.11532 0.19509 0.37531 0.0
H3850 H 0.10183 0.21728 0.36739 0.0
O3851 O 0.12404 0.21215 0.37839 0.0
H3852 H 0.10238 0.18923 0.38102 0.0
H3853 H 0.08886 0.21151 0.37345 0.0
C3854 C 0.12662 0.20475 0.363 0.0
C3855 C 0.13529 0.20599 0.36388 0.0
C3856 C 0.14092 0.19959 0.36177 0.0
C3857 C 0.13797 0.19189 0.35864 0.0
C3858 C 0.12935 0.19095 0.35694 0.0
C3859 C 0.12369 0.19738 0.3591 0.0
C3860 C 0.11912 0.2223 0.36538 0.0
C3861 C 0.11512 0.22816 0.3706 0.0
C3862 C 0.1157 0.23675 0.36897 0.0
C3863 C 0.1204 0.23974 0.3621 0.0
C3864 C 0.12428 0.23385 0.35673 0.0
C3865 C 0.12366 0.22518 0.35837 0.0
C3866 C 0.10959 0.20662 0.37089 0.0
C3867 C 0.10953 0.19861 0.37458 0.0
C3868 C 0.10213 0.19527 0.37788 0.0
C3869 C 0.09465 0.19995 0.37774 0.0
C3870 C 0.09458 0.20782 0.3737 0.0
C3871 C 0.102 0.21111 0.37024 0.0
P3872 P 0.04906 0.87015 0.60426 0.0
H3873 H 0.0382 0.88135 0.61367 0.0
H3874 H 0.04065 0.89532 0.6196 0.0
H3875 H 0.06332 0.89762 0.60485 0.0
H3876 H 0.06072 0.88369 0.59873 0.0
H3877 H 0.03894 0.85511 0.60409 0.0
H3878 H 0.02669 0.85079 0.59613 0.0
H3879 H 0.02906 0.87286 0.58043 0.0
H3880 H 0.04123 0.87743 0.58888 0.0
H3881 H 0.06546 0.87375 0.61127 0.0
H3882 H 0.05499 0.85625 0.59337 0.0
O3883 O 0.04655 0.86615 0.61363 0.0
H3884 H 0.07881 0.86636 0.61079 0.0
H3885 H 0.06843 0.84859 0.59311 0.0
C3886 C 0.0494 0.88137 0.60596 0.0
C3887 C 0.04357 0.88495 0.61151 0.0
C3888 C 0.04502 0.89289 0.61497 0.0
C3889 C 0.05232 0.8974 0.61289 0.0
C3890 C 0.0577 0.89421 0.60664 0.0
C3891 C 0.05621 0.88625 0.60314 0.0
C3892 C 0.04087 0.86669 0.59721 0.0
C3893 C 0.03686 0.85905 0.59893 0.0
C3894 C 0.02987 0.85653 0.59429 0.0
C3895 C 0.02678 0.86151 0.58768 0.0
C3896 C 0.03112 0.86897 0.58562 0.0
C3897 C 0.03812 0.87156 0.59038 0.0
C3898 C 0.0593 0.86579 0.6021 0.0
C3899 C 0.06613 0.86854 0.60694 0.0
C3900 C 0.07376 0.86426 0.60672 0.0
C3901 C 0.07468 0.85699 0.60181 0.0
C3902 C 0.06789 0.85425 0.59685 0.0
C3903 C 0.06024 0.85866 0.59697 0.0
P3904 P 0.38499 0.79263 0.86958 0.0
H3905 H 0.36684 0.79313 0.86927 0.0
H3906 H 0.35687 0.80382 0.86483 0.0
H3907 H 0.37705 0.81796 0.85337 0.0
H3908 H 0.38711 0.80718 0.85799 0.0
H3909 H 0.39326 0.77773 0.87593 0.0
H3910 H 0.39205 0.76285 0.87263 0.0
H3911 H 0.37503 0.76867 0.85231 0.0
H3912 H 0.37648 0.78375 0.85549 0.0
H3913 H 0.3896 0.80941 0.8748 0.0
H3914 H 0.40274 0.78656 0.86829 0.0
O3915 O 0.3811 0.79185 0.87929 0.0
H3916 H 0.40263 0.81537 0.88022 0.0
H3917 H 0.41571 0.79236 0.87426 0.0
C3918 C 0.37773 0.7994 0.86408 0.0
C3919 C 0.36911 0.79841 0.86561 0.0
C3920 C 0.3634 0.80453 0.86301 0.0
C3921 C 0.36615 0.81175 0.8587 0.0
C3922 C 0.37475 0.81249 0.85671 0.0
C3923 C 0.38049 0.80632 0.85932 0.0
C3924 C 0.3852 0.78191 0.8658 0.0
C3925 C 0.38953 0.77588 0.87054 0.0
C3926 C 0.38876 0.76734 0.8687 0.0
C3927 C 0.38345 0.76459 0.86222 0.0
C3928 C 0.37915 0.77062 0.85737 0.0
C3929 C 0.38004 0.77924 0.85914 0.0
C3930 C 0.39513 0.79754 0.87109 0.0
C3931 C 0.39533 0.80576 0.87428 0.0
C3932 C 0.40277 0.80915 0.87743 0.0
C3933 C 0.41015 0.80431 0.87765 0.0
C3934 C 0.41008 0.7962 0.87415 0.0
C3935 C 0.40264 0.79288 0.87078 0.0
P3936 P 0.45501 0.13378 0.10469 0.0
H3937 H 0.46605 0.12207 0.11323 0.0
H3938 H 0.46369 0.10793 0.11877 0.0
H3939 H 0.43998 0.10679 0.10555 0.0
H3940 H 0.44261 0.12074 0.09967 0.0
H3941 H 0.46424 0.14934 0.10389 0.0
H3942 H 0.47656 0.15388 0.09611 0.0
H3943 H 0.47653 0.13049 0.08228 0.0
H3944 H 0.46416 0.12582 0.09041 0.0
H3945 H 0.43844 0.13093 0.11171 0.0
H3946 H 0.44956 0.14756 0.09336 0.0
O3947 O 0.45752 0.13759 0.11413 0.0
H3948 H 0.42536 0.13883 0.11101 0.0
H3949 H 0.43647 0.15575 0.09294 0.0
C3950 C 0.45443 0.12254 0.1062 0.0
C3951 C 0.46048 0.11867 0.1113 0.0
C3952 C 0.45908 0.11062 0.11454 0.0
C3953 C 0.45159 0.10629 0.11273 0.0
C3954 C 0.44585 0.10991 0.10704 0.0
C3955 C 0.44732 0.11794 0.10372 0.0
C3956 C 0.46333 0.13722 0.09779 0.0
C3957 C 0.46679 0.1452 0.09912 0.0
C3958 C 0.47381 0.14784 0.09458 0.0
C3959 C 0.47747 0.1426 0.08848 0.0
C3960 C 0.47383 0.13467 0.08694 0.0
C3961 C 0.46676 0.132 0.09155 0.0
C3962 C 0.44493 0.13846 0.1024 0.0
C3963 C 0.43798 0.13608 0.10728 0.0
C3964 C 0.43051 0.14064 0.10693 0.0
C3965 C 0.42992 0.14786 0.10189 0.0
C3966 C 0.43678 0.15016 0.09683 0.0
C3967 C 0.44425 0.14547 0.09706 0.0
P3968 P 0.12017 0.7923 0.13484 0.0
H3969 H 0.13722 0.79251 0.14142 0.0
H3970 H 0.14584 0.8043 0.14636 0.0
H3971 H 0.12369 0.81985 0.14796 0.0
H3972 H 0.11502 0.80799 0.14344 0.0
H3973 H 0.11302 0.77801 0.12644 0.0
H3974 H 0.11356 0.76298 0.12902 0.0
H3975 H 0.12604 0.76745 0.15274 0.0
H3976 H 0.12567 0.78268 0.14995 0.0
H3977 H 0.11691 0.80737 0.12536 0.0
H3978 H 0.10211 0.78741 0.13629 0.0
O3979 O 0.12631 0.7919 0.12634 0.0
H3980 H 0.10422 0.81361 0.11944 0.0
H3981 H 0.08931 0.79358 0.1301 0.0
C3982 C 0.1255 0.79937 0.14193 0.0
C3983 C 0.13415 0.79831 0.14325 0.0
C3984 C 0.13907 0.80505 0.14602 0.0
C3985 C 0.13539 0.81294 0.14744 0.0
C3986 C 0.12663 0.81379 0.14689 0.0
C3987 C 0.12169 0.807 0.14428 0.0
C3988 C 0.11912 0.78149 0.13808 0.0
C3989 C 0.11566 0.7758 0.13232 0.0
C3990 C 0.11596 0.76718 0.13382 0.0
C3991 C 0.11969 0.76399 0.14118 0.0
C3992 C 0.12308 0.76971 0.14704 0.0
C3993 C 0.12281 0.77841 0.14549 0.0
C3994 C 0.11047 0.79691 0.1312 0.0
C3995 C 0.11091 0.80436 0.12653 0.0
C3996 C 0.10366 0.80794 0.12319 0.0
C3997 C 0.09581 0.80409 0.12438 0.0
C3998 C 0.09532 0.79666 0.12913 0.0
C3999 C 0.10261 0.79313 0.13263 0.0
P4000 P 0.4553 0.86994 0.40007 0.0
H4001 H 0.46698 0.88267 0.39414 0.0
H4002 H 0.46479 0.89676 0.38839 0.0
H4003 H 0.43869 0.89569 0.39583 0.0
H4004 H 0.44105 0.88186 0.40206 0.0
H4005 H 0.46234 0.85382 0.40473 0.0
H4006 H 0.4751 0.8499 0.4123 0.0
H4007 H 0.4788 0.87583 0.41946 0.0
H4008 H 0.46599 0.87974 0.41181 0.0
H4009 H 0.44032 0.87017 0.3899 0.0
H4010 H 0.44834 0.85806 0.41283 0.0
O4011 O 0.45897 0.86622 0.39097 0.0
H4012 H 0.42727 0.8621 0.39016 0.0
H4013 H 0.43532 0.84964 0.41286 0.0
C4014 C 0.45415 0.88111 0.39836 0.0
C4015 C 0.46085 0.88557 0.39475 0.0
C4016 C 0.45955 0.89357 0.39134 0.0
C4017 C 0.45149 0.89719 0.39136 0.0
C4018 C 0.44496 0.89302 0.39562 0.0
C4019 C 0.4463 0.88507 0.39915 0.0
C4020 C 0.46319 0.86706 0.4077 0.0
C4021 C 0.46574 0.85863 0.40815 0.0
C4022 C 0.47305 0.85639 0.41247 0.0
C4023 C 0.47801 0.86257 0.41637 0.0
C4024 C 0.47516 0.87095 0.41639 0.0
C4025 C 0.46781 0.87319 0.41206 0.0
C4026 C 0.44527 0.86482 0.40139 0.0
C4027 C 0.4392 0.86591 0.39509 0.0
C4028 C 0.43176 0.86129 0.39522 0.0
C4029 C 0.43033 0.85534 0.40155 0.0
C4030 C 0.43631 0.85428 0.40797 0.0
C4031 C 0.44373 0.85907 0.40793 0.0
P4032 P 0.38411 0.21103 0.63534 0.0
H4033 H 0.36658 0.21153 0.64029 0.0
H4034 H 0.35712 0.2003 0.6448 0.0
H4035 H 0.37845 0.18411 0.64926 0.0
H4036 H 0.38792 0.19543 0.64492 0.0
H4037 H 0.3891 0.22554 0.62585 0.0
H4038 H 0.3884 0.24058 0.62836 0.0
H4039 H 0.37956 0.23596 0.65366 0.0
H4040 H 0.37997 0.22071 0.65091 0.0
H4041 H 0.38879 0.19493 0.62839 0.0
H4042 H 0.40166 0.21752 0.63616 0.0
O4043 O 0.37892 0.21094 0.62622 0.0
H4044 H 0.40186 0.18941 0.62262 0.0
H4045 H 0.4148 0.21206 0.63013 0.0
C4046 C 0.37795 0.20429 0.64209 0.0
C4047 C 0.36926 0.20569 0.64257 0.0
C4048 C 0.36385 0.19924 0.64511 0.0
C4049 C 0.36704 0.19126 0.64716 0.0
C4050 C 0.37581 0.19014 0.64752 0.0
C4051 C 0.38123 0.19664 0.64505 0.0
C4052 C 0.38459 0.22201 0.63817 0.0
C4053 C 0.38707 0.22774 0.63197 0.0
C4054 C 0.38669 0.23637 0.63344 0.0
C4055 C 0.38387 0.23953 0.6412 0.0
C4056 C 0.3816 0.23376 0.64755 0.0
C4057 C 0.38192 0.22504 0.64603 0.0
C4058 C 0.39424 0.20659 0.6328 0.0
C4059 C 0.39448 0.19862 0.62906 0.0
C4060 C 0.40195 0.19547 0.62574 0.0
C4061 C 0.40932 0.20032 0.62591 0.0
C4062 C 0.40918 0.20822 0.62989 0.0
C4063 C 0.40168 0.21133 0.63335 0.0
P4064 P 0.04941 0.1343 0.8995 0.0
H4065 H 0.04093 0.12428 0.88687 0.0
H4066 H 0.04356 0.11028 0.88133 0.0
H4067 H 0.06097 0.10553 0.90166 0.0
H4068 H 0.05853 0.11982 0.907 0.0
H4069 H 0.03644 0.14689 0.89716 0.0
H4070 H 0.02433 0.15121 0.90528 0.0
H4071 H 0.03078 0.13333 0.92468 0.0
H4072 H 0.04307 0.1288 0.91627 0.0
H4073 H 0.06677 0.12954 0.89581 0.0
H4074 H 0.05388 0.14909 0.90952 0.0
O4075 O 0.04792 0.13888 0.89017 0.0
H4076 H 0.0798 0.1376 0.89652 0.0
H4077 H 0.06692 0.15732 0.90993 0.0
C4078 C 0.04972 0.12319 0.8972 0.0
C4079 C 0.04525 0.12021 0.89022 0.0
C4080 C 0.04674 0.11216 0.88706 0.0
C4081 C 0.05267 0.10685 0.89089 0.0
C4082 C 0.0566 0.10958 0.89836 0.0
C4083 C 0.05513 0.1177 0.9015 0.0
C4084 C 0.04063 0.13742 0.90603 0.0
C4085 C 0.03532 0.14383 0.90314 0.0
C4086 C 0.02839 0.14637 0.90784 0.0
C4087 C 0.02659 0.14263 0.91563 0.0
C4088 C 0.03197 0.13627 0.91865 0.0
C4089 C 0.03899 0.1337 0.91388 0.0
C4090 C 0.05936 0.13855 0.90287 0.0
C4091 C 0.06681 0.13534 0.89937 0.0
C4092 C 0.07426 0.13999 0.8997 0.0
C4093 C 0.07433 0.14803 0.90332 0.0
C4094 C 0.06701 0.15108 0.9072 0.0
C4095 C 0.05958 0.14635 0.907 0.0
P4096 P 0.36914 0.11973 0.21176 0.0
H4097 H 0.36488 0.13748 0.21201 0.0
H4098 H 0.36038 0.14709 0.2009 0.0
H4099 H 0.35638 0.12605 0.18425 0.0
H4100 H 0.36045 0.11638 0.19553 0.0
H4101 H 0.37555 0.11116 0.22648 0.0
H4102 H 0.37233 0.11211 0.24142 0.0
H4103 H 0.35204 0.12929 0.23605 0.0
H4104 H 0.35503 0.12802 0.22092 0.0
H4105 H 0.37718 0.11535 0.1961 0.0
H4106 H 0.36708 0.10186 0.21739 0.0
O4107 O 0.37837 0.12464 0.21252 0.0
H4108 H 0.38292 0.10226 0.1905 0.0
H4109 H 0.37342 0.0888 0.21203 0.0
C4110 C 0.36308 0.1262 0.20463 0.0
C4111 C 0.36268 0.13488 0.2061 0.0
C4112 C 0.36015 0.14038 0.19973 0.0
C4113 C 0.3581 0.1373 0.19171 0.0
C4114 C 0.35797 0.12857 0.19038 0.0
C4115 C 0.36032 0.12305 0.19684 0.0
C4116 C 0.36537 0.11928 0.2225 0.0
C4117 C 0.37017 0.11486 0.22843 0.0
C4118 C 0.36838 0.11547 0.237 0.0
C4119 C 0.36189 0.12071 0.23988 0.0
C4120 C 0.35705 0.12516 0.23397 0.0
C4121 C 0.35874 0.1244 0.22532 0.0
C4122 C 0.37172 0.10964 0.20718 0.0
C4123 C 0.37606 0.10956 0.1995 0.0
C4124 C 0.37937 0.1021 0.19632 0.0
C4125 C 0.3786 0.09459 0.20087 0.0
C4126 C 0.37405 0.09455 0.20843 0.0
C4127 C 0.3705 0.10203 0.21151 0.0
P4128 P 0.13382 0.10372 0.45534 0.0
H4129 H 0.12123 0.11066 0.46658 0.0
H4130 H 0.10731 0.11654 0.46391 0.0
H4131 H 0.10789 0.10641 0.43871 0.0
H4132 H 0.12189 0.10062 0.4414 0.0
H4133 H 0.15018 0.09941 0.46178 0.0
H4134 H 0.15461 0.09226 0.47462 0.0
H4135 H 0.12907 0.08435 0.47914 0.0
H4136 H 0.12456 0.09167 0.46624 0.0
H4137 H 0.13395 0.11478 0.44108 0.0
H4138 H 0.14489 0.09076 0.44743 0.0
O4139 O 0.13737 0.11283 0.45915 0.0
H4140 H 0.14217 0.11514 0.42813 0.0
H4141 H 0.15324 0.09117 0.43435 0.0
C4142 C 0.12264 0.10527 0.45418 0.0
C4143 C 0.11825 0.10947 0.46057 0.0
C4144 C 0.11028 0.11283 0.45903 0.0
C4145 C 0.10651 0.11199 0.45107 0.0
C4146 C 0.11068 0.10725 0.44487 0.0
C4147 C 0.11867 0.10388 0.44643 0.0
C4148 C 0.13706 0.09604 0.46303 0.0
C4149 C 0.14556 0.09588 0.46534 0.0
C4150 C 0.14809 0.09182 0.47269 0.0
C4151 C 0.14218 0.08778 0.47784 0.0
C4152 C 0.13374 0.08737 0.47521 0.0
C4153 C 0.13118 0.09154 0.46785 0.0
C4154 C 0.13884 0.10278 0.44523 0.0
C4155 C 0.13801 0.1095 0.4396 0.0
C4156 C 0.14271 0.10972 0.43222 0.0
C4157 C 0.14833 0.10321 0.43032 0.0
C4158 C 0.1489 0.09624 0.43572 0.0
C4159 C 0.14416 0.09603 0.44318 0.0
P4160 P 0.13583 0.8845 0.71142 0.0
H4161 H 0.14014 0.86686 0.71252 0.0
H4162 H 0.14383 0.85666 0.70167 0.0
H4163 H 0.14778 0.87683 0.68397 0.0
H4164 H 0.1445 0.8871 0.69499 0.0
H4165 H 0.12861 0.89255 0.72598 0.0
H4166 H 0.13149 0.8917 0.74097 0.0
H4167 H 0.15308 0.87601 0.73601 0.0
H4168 H 0.15026 0.87705 0.72081 0.0
H4169 H 0.12824 0.88884 0.6955 0.0
H4170 H 0.13757 0.90232 0.71714 0.0
O4171 O 0.12651 0.87974 0.71208 0.0
H4172 H 0.12216 0.90181 0.69002 0.0
H4173 H 0.13092 0.91524 0.71187 0.0
C4174 C 0.14188 0.87774 0.70457 0.0
C4175 C 0.14216 0.86914 0.70643 0.0
C4176 C 0.14418 0.8633 0.70019 0.0
C4177 C 0.14583 0.86596 0.69193 0.0
C4178 C 0.14644 0.87462 0.69027 0.0
C4179 C 0.14452 0.88049 0.69658 0.0
C4180 C 0.13933 0.88507 0.72222 0.0
C4181 C 0.13415 0.88917 0.72805 0.0
C4182 C 0.13578 0.88865 0.73665 0.0
C4183 C 0.14257 0.88387 0.73967 0.0
C4184 C 0.14783 0.87977 0.73384 0.0
C4185 C 0.14625 0.88041 0.72516 0.0
C4186 C 0.13341 0.89456 0.70672 0.0
C4187 C 0.12919 0.89462 0.69897 0.0
C4188 C 0.12568 0.90202 0.69585 0.0
C4189 C 0.1261 0.90946 0.70054 0.0
C4190 C 0.13058 0.90955 0.70815 0.0
C4191 C 0.13432 0.90215 0.71117 0.0
P4192 P 0.37003 0.89976 0.95613 0.0
H4193 H 0.38254 0.89245 0.96726 0.0
H4194 H 0.39645 0.88647 0.96448 0.0
H4195 H 0.39587 0.8967 0.93936 0.0
H4196 H 0.38197 0.90275 0.94216 0.0
H4197 H 0.35383 0.90573 0.96168 0.0
H4198 H 0.34956 0.91375 0.97397 0.0
H4199 H 0.37556 0.91993 0.97895 0.0
H4200 H 0.37981 0.9115 0.96676 0.0
H4201 H 0.36838 0.88722 0.94331 0.0
H4202 H 0.36092 0.9131 0.94655 0.0
O4203 O 0.36628 0.89105 0.96061 0.0
H4204 H 0.36147 0.88684 0.92967 0.0
H4205 H 0.35394 0.91277 0.93268 0.0
C4206 C 0.38116 0.89793 0.95489 0.0
C4207 C 0.38549 0.89361 0.96122 0.0
C4208 C 0.3934 0.89012 0.95962 0.0
C4209 C 0.39711 0.89095 0.95164 0.0
C4210 C 0.3931 0.89592 0.94553 0.0
C4211 C 0.38516 0.89939 0.94714 0.0
C4212 C 0.36712 0.90808 0.96324 0.0
C4213 C 0.35859 0.90907 0.96523 0.0
C4214 C 0.35615 0.91371 0.97227 0.0
C4215 C 0.3622 0.91756 0.97745 0.0
C4216 C 0.37074 0.91701 0.97512 0.0
C4217 C 0.37318 0.91226 0.9681 0.0
C4218 C 0.3651 0.90015 0.94595 0.0
C4219 C 0.36528 0.89285 0.94104 0.0
C4220 C 0.3614 0.89267 0.93321 0.0
C4221 C 0.35728 0.89982 0.93007 0.0
C4222 C 0.35711 0.90719 0.93497 0.0
C4223 C 0.36108 0.90738 0.94287 0.0
P4224 P 0.36885 0.88377 0.29255 0.0
H4225 H 0.36315 0.86638 0.2923 0.0
H4226 H 0.35868 0.85698 0.30361 0.0
H4227 H 0.35743 0.87802 0.32067 0.0
H4228 H 0.36149 0.88751 0.30926 0.0
H4229 H 0.37459 0.89359 0.27837 0.0
H4230 H 0.37164 0.89287 0.2634 0.0
H4231 H 0.35157 0.87519 0.26817 0.0
H4232 H 0.35459 0.87595 0.28328 0.0
H4233 H 0.37992 0.88684 0.30651 0.0
H4234 H 0.36537 0.90198 0.28932 0.0
O4235 O 0.37762 0.87817 0.2912 0.0
H4236 H 0.38578 0.89951 0.31281 0.0
H4237 H 0.37142 0.91481 0.29558 0.0
C4238 C 0.36266 0.87767 0.29988 0.0
C4239 C 0.36151 0.86906 0.29835 0.0
C4240 C 0.35901 0.86367 0.30483 0.0
C4241 C 0.35776 0.86679 0.313 0.0
C4242 C 0.35837 0.87548 0.31442 0.0
C4243 C 0.3607 0.8809 0.30787 0.0
C4244 C 0.36473 0.88495 0.28202 0.0
C4245 C 0.36935 0.88978 0.27627 0.0
C4246 C 0.36769 0.88931 0.26766 0.0
C4247 C 0.36143 0.88389 0.26455 0.0
C4248 C 0.35654 0.87931 0.27035 0.0
C4249 C 0.3582 0.87981 0.27901 0.0
C4250 C 0.37234 0.89345 0.29735 0.0
C4251 C 0.37797 0.89291 0.3041 0.0
C4252 C 0.38129 0.90016 0.30773 0.0
C4253 C 0.37911 0.90813 0.30464 0.0
C4254 C 0.37328 0.90872 0.298 0.0
C4255 C 0.36983 0.9014 0.29443 0.0
P4256 P 0.37046 0.10376 0.54884 0.0
H4257 H 0.38244 0.11247 0.53811 0.0
H4258 H 0.39625 0.11857 0.54108 0.0
H4259 H 0.3968 0.1056 0.56494 0.0
H4260 H 0.38296 0.09954 0.56195 0.0
H4261 H 0.35424 0.09847 0.54259 0.0
H4262 H 0.35006 0.09122 0.52971 0.0
H4263 H 0.37601 0.08536 0.52451 0.0
H4264 H 0.38024 0.09263 0.53751 0.0
H4265 H 0.37167 0.11389 0.56376 0.0
H4266 H 0.35847 0.09136 0.55634 0.0
O4267 O 0.36647 0.11272 0.54514 0.0
H4268 H 0.36353 0.11442 0.57674 0.0
H4269 H 0.3501 0.09205 0.56936 0.0
C4270 C 0.38159 0.10571 0.54988 0.0
C4271 C 0.38563 0.11077 0.54389 0.0
C4272 C 0.39351 0.11427 0.5456 0.0
C4273 C 0.39748 0.11277 0.55335 0.0
C4274 C 0.39376 0.10707 0.55902 0.0
C4275 C 0.38589 0.10354 0.55728 0.0
C4276 C 0.36754 0.09599 0.5411 0.0
C4277 C 0.35902 0.0953 0.53892 0.0
C4278 C 0.35663 0.09118 0.53154 0.0
C4279 C 0.36272 0.08769 0.52621 0.0
C4280 C 0.37121 0.08789 0.52863 0.0
C4281 C 0.37362 0.09205 0.53605 0.0
C4282 C 0.36569 0.1026 0.55906 0.0
C4283 C 0.36718 0.10893 0.56502 0.0
C4284 C 0.36252 0.10924 0.57242 0.0
C4285 C 0.35623 0.10328 0.57399 0.0
C4286 C 0.35499 0.09667 0.56827 0.0
C4287 C 0.35973 0.09632 0.56082 0.0
P4288 P 0.13596 0.11851 0.79163 0.0
H4289 H 0.14077 0.13607 0.79178 0.0
H4290 H 0.14559 0.14514 0.80318 0.0
H4291 H 0.14985 0.12334 0.81878 0.0
H4292 H 0.14528 0.11423 0.80723 0.0
H4293 H 0.1281 0.11179 0.77676 0.0
H4294 H 0.13084 0.1137 0.76177 0.0
H4295 H 0.15391 0.12673 0.76756 0.0
H4296 H 0.15116 0.1248 0.7827 0.0
H4297 H 0.12826 0.1146 0.80751 0.0
H4298 H 0.13633 0.10068 0.78563 0.0
O4299 O 0.12704 0.124 0.79113 0.0
H4300 H 0.12131 0.10208 0.81296 0.0
H4301 H 0.12904 0.0881 0.79104 0.0
C4302 C 0.14254 0.12449 0.79867 0.0
C4303 C 0.14309 0.1332 0.79751 0.0
C4304 C 0.14582 0.13839 0.80404 0.0
C4305 C 0.14802 0.13493 0.81187 0.0
C4306 C 0.14814 0.12615 0.81281 0.0
C4307 C 0.14552 0.12095 0.8062 0.0
C4308 C 0.13948 0.11802 0.78086 0.0
C4309 C 0.1339 0.11481 0.77484 0.0
C4310 C 0.13542 0.11597 0.76628 0.0
C4311 C 0.14255 0.12037 0.76357 0.0
C4312 C 0.14838 0.12327 0.76955 0.0
C4313 C 0.14682 0.12214 0.77817 0.0
C4314 C 0.13283 0.1086 0.79617 0.0
C4315 C 0.12874 0.10879 0.80398 0.0
C4316 C 0.12474 0.10165 0.80708 0.0
C4317 C 0.12464 0.0942 0.80238 0.0
C4318 C 0.1291 0.09381 0.79477 0.0
C4319 C 0.13321 0.10099 0.79167 0.0
P4320 P 0.13402 0.89947 0.04829 0.0
H4321 H 0.12176 0.89155 0.03734 0.0
H4322 H 0.10775 0.88578 0.04008 0.0
H4323 H 0.10777 0.89738 0.06462 0.0
H4324 H 0.12185 0.9031 0.06188 0.0
H4325 H 0.1503 0.90487 0.04245 0.0
H4326 H 0.15466 0.91277 0.03013 0.0
H4327 H 0.12884 0.91995 0.0256 0.0
H4328 H 0.12446 0.91154 0.03778 0.0
H4329 H 0.13677 0.88678 0.06082 0.0
H4330 H 0.14191 0.91328 0.05824 0.0
O4331 O 0.13778 0.89069 0.04393 0.0
H4332 H 0.14402 0.88658 0.07427 0.0
H4333 H 0.14906 0.91319 0.072 0.0
C4334 C 0.12288 0.89767 0.04943 0.0
C4335 C 0.11867 0.89304 0.04322 0.0
C4336 C 0.1107 0.8897 0.04481 0.0
C4337 C 0.10675 0.89107 0.05259 0.0
C4338 C 0.11069 0.89626 0.05856 0.0
C4339 C 0.11872 0.89953 0.05699 0.0
C4340 C 0.13707 0.90767 0.04109 0.0
C4341 C 0.1456 0.90838 0.03898 0.0
C4342 C 0.1481 0.91297 0.03192 0.0
C4343 C 0.14212 0.9171 0.02687 0.0
C4344 C 0.1336 0.91682 0.02932 0.0
C4345 C 0.13109 0.91208 0.03634 0.0
C4346 C 0.13895 0.89999 0.05847 0.0
C4347 C 0.13944 0.89259 0.06319 0.0
C4348 C 0.14354 0.89249 0.07092 0.0
C4349 C 0.14718 0.89985 0.07419 0.0
C4350 C 0.14646 0.90738 0.06957 0.0
C4351 C 0.14235 0.90745 0.06175 0.0
P4352 P 0.21177 0.36819 0.11995 0.0
H4353 H 0.21195 0.36391 0.1377 0.0
H4354 H 0.20076 0.35945 0.14725 0.0
H4355 H 0.18429 0.35534 0.1261 0.0
H4356 H 0.19565 0.35936 0.11649 0.0
H4357 H 0.22645 0.37463 0.11132 0.0
H4358 H 0.24142 0.37151 0.11235 0.0
H4359 H 0.23607 0.35119 0.1295 0.0
H4360 H 0.22092 0.35406 0.12813 0.0
H4361 H 0.19605 0.37628 0.11602 0.0
H4362 H 0.21715 0.36661 0.10193 0.0
O4363 O 0.2126 0.37733 0.12502 0.0
H4364 H 0.19053 0.38282 0.1033 0.0
H4365 H 0.2118 0.37364 0.08922 0.0
C4366 C 0.20465 0.36206 0.12637 0.0
C4367 C 0.20607 0.36169 0.13507 0.0
C4368 C 0.19966 0.35919 0.14053 0.0
C4369 C 0.19166 0.35714 0.13739 0.0
C4370 C 0.1904 0.35694 0.12866 0.0
C4371 C 0.1969 0.35925 0.12317 0.0
C4372 C 0.22248 0.36441 0.11939 0.0
C4373 C 0.22841 0.36925 0.11501 0.0
C4374 C 0.23699 0.36753 0.11567 0.0
C4375 C 0.23988 0.36108 0.12096 0.0
C4376 C 0.23398 0.35617 0.12534 0.0
C4377 C 0.22533 0.35779 0.12452 0.0
C4378 C 0.20705 0.37099 0.10999 0.0
C4379 C 0.1994 0.37538 0.11016 0.0
C4380 C 0.19625 0.37913 0.1029 0.0
C4381 C 0.20076 0.37871 0.09535 0.0
C4382 C 0.2082 0.37397 0.095 0.0
C4383 C 0.21129 0.37004 0.10228 0.0
P4384 P 0.7122 0.13477 0.88537 0.0
H4385 H 0.71119 0.13323 0.86733 0.0
H4386 H 0.70057 0.1373 0.85716 0.0
H4387 H 0.68768 0.1517 0.87627 0.0
H4388 H 0.69832 0.14729 0.88662 0.0
H4389 H 0.72733 0.1278 0.89254 0.0
H4390 H 0.74222 0.13097 0.89067 0.0
H4391 H 0.73582 0.15287 0.87604 0.0
H4392 H 0.72073 0.14972 0.87798 0.0
H4393 H 0.69511 0.13075 0.89013 0.0
H4394 H 0.71861 0.13529 0.90295 0.0
O4395 O 0.71307 0.1249 0.88194 0.0
H4396 H 0.68937 0.12447 0.90287 0.0
H4397 H 0.7129 0.12864 0.91565 0.0
C4398 C 0.7055 0.13986 0.87775 0.0
C4399 C 0.70619 0.13741 0.86932 0.0
C4400 C 0.70012 0.13981 0.86347 0.0
C4401 C 0.6933 0.1449 0.86586 0.0
C4402 C 0.69285 0.14775 0.87424 0.0
C4403 C 0.69895 0.14529 0.88014 0.0
C4404 C 0.7229 0.13858 0.88552 0.0
C4405 C 0.72907 0.13345 0.88917 0.0
C4406 C 0.73758 0.13522 0.88805 0.0
C4407 C 0.74011 0.14214 0.88322 0.0
C4408 C 0.73397 0.14753 0.87984 0.0
C4409 C 0.72538 0.14574 0.88097 0.0
C4410 C 0.70728 0.13358 0.89554 0.0
C4411 C 0.69893 0.13078 0.89577 0.0
C4412 C 0.69566 0.12712 0.90304 0.0
C4413 C 0.70072 0.1261 0.91018 0.0
C4414 C 0.70888 0.12945 0.91022 0.0
C4415 C 0.71213 0.13322 0.90293 0.0
P4416 P 0.10402 0.4547 0.13367 0.0
H4417 H 0.11189 0.46591 0.1216 0.0
H4418 H 0.11766 0.46345 0.10754 0.0
H4419 H 0.10644 0.43872 0.10732 0.0
H4420 H 0.10044 0.44132 0.12122 0.0
H4421 H 0.09921 0.46082 0.15003 0.0
H4422 H 0.09197 0.47353 0.1546 0.0
H4423 H 0.08549 0.47916 0.12886 0.0
H4424 H 0.09275 0.46628 0.12426 0.0
H4425 H 0.11401 0.43963 0.13283 0.0
H4426 H 0.0912 0.44743 0.14533 0.0
O4427 O 0.11313 0.45816 0.13757 0.0
H4428 H 0.11394 0.42652 0.14083 0.0
H4429 H 0.09132 0.43432 0.15359 0.0
C4430 C 0.10582 0.45377 0.1225 0.0
C4431 C 0.11045 0.46006 0.11841 0.0
C4432 C 0.11382 0.45862 0.11042 0.0
C4433 C 0.11259 0.45086 0.10636 0.0
C4434 C 0.10744 0.44479 0.11024 0.0
C4435 C 0.10403 0.44627 0.11822 0.0
C4436 C 0.09646 0.46254 0.13682 0.0
C4437 C 0.09596 0.46459 0.14538 0.0
C4438 C 0.09187 0.47189 0.14799 0.0
C4439 C 0.08821 0.47733 0.14209 0.0
C4440 C 0.0882 0.47502 0.13355 0.0
C4441 C 0.09235 0.46767 0.13092 0.0
C4442 C 0.10262 0.44451 0.13846 0.0
C4443 C 0.10889 0.43845 0.13716 0.0
C4444 C 0.10887 0.43098 0.14174 0.0
C4445 C 0.10263 0.42949 0.14778 0.0
C4446 C 0.09616 0.43538 0.14891 0.0
C4447 C 0.09612 0.44286 0.14422 0.0
P4448 P 0.79254 0.86841 0.38508 0.0
H4449 H 0.7939 0.86991 0.36704 0.0
H4450 H 0.80473 0.86569 0.35715 0.0
H4451 H 0.81645 0.85048 0.37638 0.0
H4452 H 0.80557 0.85497 0.38642 0.0
H4453 H 0.77759 0.87659 0.39129 0.0
H4454 H 0.76263 0.87395 0.38937 0.0
H4455 H 0.76827 0.85069 0.37661 0.0
H4456 H 0.78346 0.85332 0.37863 0.0
H4457 H 0.81003 0.87021 0.39011 0.0
H4458 H 0.78582 0.87022 0.40239 0.0
O4459 O 0.79215 0.87828 0.38151 0.0
H4460 H 0.81636 0.87635 0.40251 0.0
H4461 H 0.79205 0.87714 0.41458 0.0
C4462 C 0.79906 0.86297 0.37753 0.0
C4463 C 0.7987 0.86555 0.36912 0.0
C4464 C 0.80492 0.86311 0.36345 0.0
C4465 C 0.81161 0.85792 0.36601 0.0
C4466 C 0.81154 0.85471 0.37427 0.0
C4467 C 0.80527 0.85719 0.37999 0.0
C4468 C 0.78167 0.86512 0.38521 0.0
C4469 C 0.77566 0.87077 0.38832 0.0
C4470 C 0.76711 0.8693 0.38717 0.0
C4471 C 0.76434 0.86215 0.38283 0.0
C4472 C 0.77029 0.85623 0.38003 0.0
C4473 C 0.77894 0.85772 0.38119 0.0
C4474 C 0.79742 0.86958 0.39527 0.0
C4475 C 0.8061 0.87116 0.39558 0.0
C4476 C 0.80971 0.87485 0.40266 0.0
C4477 C 0.80469 0.87738 0.40947 0.0
C4478 C 0.79611 0.87521 0.40947 0.0
C4479 C 0.79252 0.8713 0.40243 0.0
P4480 P 0.90003 0.04832 0.13433 0.0
H4481 H 0.88942 0.0387 0.12293 0.0
H4482 H 0.88363 0.04188 0.10909 0.0
H4483 H 0.89981 0.06366 0.10739 0.0
H4484 H 0.90529 0.06063 0.12147 0.0
H4485 H 0.90815 0.04362 0.15002 0.0
H4486 H 0.91574 0.03083 0.15402 0.0
H4487 H 0.91707 0.02345 0.12798 0.0
H4488 H 0.90955 0.0363 0.12395 0.0
H4489 H 0.88771 0.06132 0.13612 0.0
H4490 H 0.91377 0.05797 0.14285 0.0
O4491 O 0.89153 0.04394 0.13866 0.0
H4492 H 0.88746 0.07477 0.14334 0.0
H4493 H 0.91363 0.07172 0.15002 0.0
C4494 C 0.89764 0.04953 0.12331 0.0
C4495 C 0.89179 0.04411 0.11955 0.0
C4496 C 0.8885 0.04593 0.11161 0.0
C4497 C 0.89106 0.05318 0.10723 0.0
C4498 C 0.89746 0.05821 0.11073 0.0
C4499 C 0.90069 0.05642 0.11873 0.0
C4500 C 0.90841 0.04103 0.13667 0.0
C4501 C 0.91047 0.0395 0.14512 0.0
C4502 C 0.91477 0.03217 0.14741 0.0
C4503 C 0.91703 0.02623 0.14129 0.0
C4504 C 0.91549 0.02802 0.13278 0.0
C4505 C 0.91121 0.03538 0.13048 0.0
C4506 C 0.9007 0.05859 0.13908 0.0
C4507 C 0.89342 0.06353 0.13911 0.0
C4508 C 0.8933 0.07127 0.1432 0.0
C4509 C 0.9005 0.0743 0.14733 0.0
C4510 C 0.90793 0.06947 0.14705 0.0
C4511 C 0.90803 0.06165 0.14292 0.0
P4512 P 0.29223 0.63516 0.62005 0.0
H4513 H 0.29088 0.64155 0.63713 0.0
H4514 H 0.30159 0.64568 0.64726 0.0
H4515 H 0.32035 0.64525 0.62763 0.0
H4516 H 0.30945 0.64199 0.61733 0.0
H4517 H 0.27797 0.62859 0.61097 0.0
H4518 H 0.26298 0.6316 0.61148 0.0
H4519 H 0.26772 0.65277 0.6278 0.0
H4520 H 0.28288 0.64986 0.62708 0.0
H4521 H 0.30701 0.62519 0.61685 0.0
H4522 H 0.28816 0.63773 0.60188 0.0
O4523 O 0.29102 0.62626 0.62547 0.0
H4524 H 0.31325 0.61929 0.60414 0.0
H4525 H 0.29422 0.63142 0.58908 0.0
C4526 C 0.29931 0.64136 0.62645 0.0
C4527 C 0.2972 0.64277 0.63489 0.0
C4528 C 0.30338 0.64495 0.64072 0.0
C4529 C 0.31188 0.64539 0.63831 0.0
C4530 C 0.31388 0.64482 0.62972 0.0
C4531 C 0.30762 0.64289 0.62382 0.0
C4532 C 0.28161 0.63906 0.61885 0.0
C4533 C 0.27586 0.63409 0.6144 0.0
C4534 C 0.26726 0.63579 0.61473 0.0
C4535 C 0.26417 0.64246 0.61963 0.0
C4536 C 0.26993 0.64759 0.62396 0.0
C4537 C 0.27861 0.64594 0.62353 0.0
C4538 C 0.29712 0.63189 0.61034 0.0
C4539 C 0.30426 0.62675 0.61081 0.0
C4540 C 0.30783 0.62338 0.60356 0.0
C4541 C 0.30421 0.62493 0.59567 0.0
C4542 C 0.2971 0.63016 0.59512 0.0
C4543 C 0.29364 0.63374 0.60242 0.0
P4544 P 0.10425 0.54851 0.37006 0.0
H4545 H 0.11177 0.53758 0.38266 0.0
H4546 H 0.1178 0.54059 0.3965 0.0
H4547 H 0.10698 0.56548 0.39576 0.0
H4548 H 0.101 0.56247 0.38191 0.0
H4549 H 0.09894 0.54219 0.35391 0.0
H4550 H 0.09108 0.52974 0.34977 0.0
H4551 H 0.08454 0.52522 0.37575 0.0
H4552 H 0.0927 0.53765 0.3799 0.0
H4553 H 0.11546 0.56266 0.36957 0.0
H4554 H 0.09116 0.5565 0.35918 0.0
O4555 O 0.11318 0.54446 0.36632 0.0
H4556 H 0.11582 0.57553 0.36121 0.0
H4557 H 0.09156 0.56948 0.35069 0.0
C4558 C 0.10607 0.54984 0.38118 0.0
C4559 C 0.11051 0.54361 0.38557 0.0
C4560 C 0.11398 0.54535 0.39347 0.0
C4561 C 0.11307 0.55336 0.39709 0.0
C4562 C 0.10799 0.55934 0.393 0.0
C4563 C 0.1045 0.55759 0.38511 0.0
C4564 C 0.09631 0.54093 0.36719 0.0
C4565 C 0.09556 0.5387 0.3587 0.0
C4566 C 0.09103 0.53157 0.35633 0.0
C4567 C 0.08708 0.5265 0.36242 0.0
C4568 C 0.0875 0.52899 0.37092 0.0
C4569 C 0.09211 0.53613 0.37329 0.0
C4570 C 0.10333 0.55859 0.36494 0.0
C4571 C 0.11013 0.56415 0.36559 0.0
C4572 C 0.11035 0.57149 0.36082 0.0
C4573 C 0.10376 0.57341 0.3553 0.0
C4574 C 0.0967 0.5681 0.35494 0.0
C4575 C 0.0965 0.56068 0.35975 0.0
P4576 P 0.39948 0.4552 0.87027 0.0
H4577 H 0.39111 0.46616 0.88222 0.0
H4578 H 0.38551 0.46361 0.89629 0.0
H4579 H 0.39847 0.43976 0.89711 0.0
H4580 H 0.40414 0.44238 0.88303 0.0
H4581 H 0.40175 0.46344 0.85429 0.0
H4582 H 0.40956 0.47581 0.84987 0.0
H4583 H 0.42078 0.47759 0.87455 0.0
H4584 H 0.41268 0.46517 0.87904 0.0
H4585 H 0.39169 0.43891 0.8726 0.0
H4586 H 0.41106 0.44945 0.85676 0.0
O4587 O 0.39015 0.45808 0.86645 0.0
H4588 H 0.39219 0.42586 0.86457 0.0
H4589 H 0.4112 0.43646 0.8484 0.0
C4590 C 0.39789 0.4544 0.88149 0.0
C4591 C 0.39296 0.46049 0.88552 0.0
C4592 C 0.38976 0.45903 0.89358 0.0
C4593 C 0.39148 0.45144 0.89777 0.0
C4594 C 0.39694 0.44561 0.89397 0.0
C4595 C 0.40021 0.44713 0.88593 0.0
C4596 C 0.40663 0.46338 0.86698 0.0
C4597 C 0.40602 0.46637 0.85872 0.0
C4598 C 0.41056 0.47343 0.85617 0.0
C4599 C 0.41589 0.47764 0.86182 0.0
C4600 C 0.41673 0.47447 0.87006 0.0
C4601 C 0.41214 0.46736 0.87262 0.0
C4602 C 0.40148 0.44512 0.86546 0.0
C4603 C 0.39626 0.43833 0.86759 0.0
C4604 C 0.3965 0.43089 0.86296 0.0
C4605 C 0.40178 0.43019 0.85594 0.0
C4606 C 0.40716 0.43688 0.85386 0.0
C4607 C 0.40705 0.44429 0.85864 0.0
P4608 P 0.89295 0.7944 0.64831 0.0
H4609 H 0.88461 0.80445 0.66132 0.0
H4610 H 0.8735 0.81502 0.66079 0.0
H4611 H 0.87082 0.81076 0.63407 0.0
H4612 H 0.88238 0.80066 0.63456 0.0
H4613 H 0.89707 0.77904 0.65753 0.0
H4614 H 0.89334 0.76429 0.65551 0.0
H4615 H 0.87837 0.7711 0.63389 0.0
H4616 H 0.88188 0.78587 0.63613 0.0
H4617 H 0.90111 0.81029 0.64479 0.0
H4618 H 0.90145 0.78517 0.63454 0.0
O4619 O 0.89776 0.79538 0.65759 0.0
H4620 H 0.91091 0.81489 0.63387 0.0
H4621 H 0.91142 0.78968 0.62374 0.0
C4622 C 0.88424 0.80166 0.648 0.0
C4623 C 0.88161 0.80576 0.65535 0.0
C4624 C 0.87518 0.81176 0.65505 0.0
C4625 C 0.87113 0.81365 0.64741 0.0
C4626 C 0.8738 0.80949 0.64006 0.0
C4627 C 0.88033 0.80361 0.64035 0.0
C4628 C 0.88962 0.78361 0.64709 0.0
C4629 C 0.89285 0.7774 0.65245 0.0
C4630 C 0.89077 0.76894 0.65125 0.0
C4631 C 0.88547 0.76651 0.6446 0.0
C4632 C 0.88226 0.77277 0.63922 0.0
C4633 C 0.8843 0.78124 0.64047 0.0
C4634 C 0.90042 0.79745 0.64037 0.0
C4635 C 0.90332 0.80576 0.6402 0.0
C4636 C 0.90897 0.80836 0.63401 0.0
C4637 C 0.91185 0.80268 0.62788 0.0
C4638 C 0.90915 0.79426 0.62825 0.0
C4639 C 0.90347 0.79167 0.63445 0.0
P4640 P 0.95 0.12697 0.41356 0.0
H4641 H 0.95283 0.10887 0.41479 0.0
H4642 H 0.95198 0.09745 0.40452 0.0
H4643 H 0.94697 0.11551 0.38486 0.0
H4644 H 0.94773 0.12693 0.39521 0.0
H4645 H 0.95689 0.137 0.42725 0.0
H4646 H 0.97085 0.14304 0.42987 0.0
H4647 H 0.97961 0.13282 0.40628 0.0
H4648 H 0.96565 0.12694 0.40362 0.0
H4649 H 0.93215 0.12536 0.41055 0.0
H4650 H 0.95061 0.14522 0.40981 0.0
O4651 O 0.94685 0.12278 0.42264 0.0
H4652 H 0.92137 0.13513 0.40561 0.0
H4653 H 0.93977 0.15512 0.40515 0.0
C4654 C 0.95021 0.11872 0.40578 0.0
C4655 C 0.95161 0.11038 0.40826 0.0
C4656 C 0.95118 0.10387 0.40238 0.0
C4657 C 0.94944 0.1056 0.39388 0.0
C4658 C 0.94827 0.114 0.39137 0.0
C4659 C 0.94872 0.12051 0.39727 0.0
C4660 C 0.96024 0.13151 0.41526 0.0
C4661 C 0.96182 0.13608 0.42264 0.0
C4662 C 0.9698 0.13949 0.42415 0.0
C4663 C 0.9763 0.13845 0.41826 0.0
C4664 C 0.97468 0.13384 0.41087 0.0
C4665 C 0.96671 0.13045 0.40936 0.0
C4666 C 0.94217 0.13455 0.4105 0.0
C4667 C 0.93385 0.13186 0.40941 0.0
C4668 C 0.92769 0.13746 0.40664 0.0
C4669 C 0.92973 0.14589 0.40491 0.0
C4670 C 0.93804 0.14863 0.40626 0.0
C4671 C 0.94423 0.14299 0.40898 0.0
P4672 P 0.61119 0.21007 0.14868 0.0
H4673 H 0.62428 0.20571 0.1608 0.0
H4674 H 0.63599 0.19564 0.16041 0.0
H4675 H 0.62935 0.18894 0.13496 0.0
H4676 H 0.61779 0.1991 0.13529 0.0
H4677 H 0.6068 0.22565 0.15737 0.0
H4678 H 0.61027 0.2404 0.15477 0.0
H4679 H 0.6256 0.23308 0.1336 0.0
H4680 H 0.62213 0.21824 0.13624 0.0
H4681 H 0.60213 0.19441 0.14688 0.0
H4682 H 0.60289 0.21838 0.13417 0.0
O4683 O 0.60704 0.20918 0.15827 0.0
H4684 H 0.59228 0.18912 0.13631 0.0
H4685 H 0.59306 0.21307 0.12356 0.0
C4686 C 0.6201 0.20308 0.14812 0.0
C4687 C 0.62537 0.2021 0.15512 0.0
C4688 C 0.63203 0.19636 0.15491 0.0
C4689 C 0.63349 0.19148 0.14768 0.0
C4690 C 0.62827 0.19255 0.14064 0.0
C4691 C 0.62168 0.19837 0.14082 0.0
C4692 C 0.61428 0.22085 0.14705 0.0
C4693 C 0.61099 0.22718 0.15222 0.0
C4694 C 0.61296 0.23562 0.15074 0.0
C4695 C 0.61816 0.23787 0.14397 0.0
C4696 C 0.62151 0.2315 0.13881 0.0
C4697 C 0.61958 0.22305 0.14035 0.0
C4698 C 0.60329 0.20675 0.14128 0.0
C4699 C 0.60009 0.19856 0.14187 0.0
C4700 C 0.59448 0.19555 0.13584 0.0
C4701 C 0.59191 0.2007 0.12915 0.0
C4702 C 0.59487 0.20902 0.12873 0.0
C4703 C 0.60054 0.21202 0.13475 0.0
P4704 P 0.55423 0.87692 0.91318 0.0
H4705 H 0.54672 0.89359 0.91319 0.0
H4706 H 0.54711 0.90524 0.90314 0.0
H4707 H 0.56098 0.88968 0.8857 0.0
H4708 H 0.56012 0.87794 0.89554 0.0
H4709 H 0.54772 0.86813 0.92785 0.0
H4710 H 0.53384 0.86254 0.93143 0.0
H4711 H 0.52467 0.86976 0.9069 0.0
H4712 H 0.53853 0.87554 0.90344 0.0
H4713 H 0.57206 0.87859 0.91008 0.0
H4714 H 0.55382 0.85852 0.91019 0.0
O4715 O 0.55752 0.88159 0.92198 0.0
H4716 H 0.58289 0.8688 0.90537 0.0
H4717 H 0.56475 0.84856 0.90588 0.0
C4718 C 0.55357 0.88497 0.90522 0.0
C4719 C 0.54975 0.89267 0.90716 0.0
C4720 C 0.55007 0.89934 0.90144 0.0
C4721 C 0.55432 0.89847 0.89373 0.0
C4722 C 0.55772 0.89059 0.89161 0.0
C4723 C 0.55729 0.88387 0.89729 0.0
C4724 C 0.54412 0.87231 0.91542 0.0
C4725 C 0.54272 0.86848 0.92323 0.0
C4726 C 0.5348 0.86524 0.92525 0.0
C4727 C 0.52816 0.86566 0.91943 0.0
C4728 C 0.52964 0.8694 0.91154 0.0
C4729 C 0.53757 0.87267 0.90954 0.0
C4730 C 0.56213 0.8693 0.91039 0.0
C4731 C 0.57042 0.87204 0.90919 0.0
C4732 C 0.57662 0.86642 0.90655 0.0
C4733 C 0.57468 0.85791 0.90516 0.0
C4734 C 0.56641 0.85511 0.9067 0.0
C4735 C 0.56016 0.86079 0.90923 0.0
P4736 P 0.8922 0.21066 0.85589 0.0
H4737 H 0.88397 0.20038 0.84301 0.0
H4738 H 0.87294 0.18974 0.84366 0.0
H4739 H 0.86994 0.19455 0.87025 0.0
H4740 H 0.88134 0.20488 0.86962 0.0
H4741 H 0.90059 0.22594 0.85062 0.0
H4742 H 0.89728 0.24087 0.85211 0.0
H4743 H 0.8742 0.23452 0.86491 0.0
H4744 H 0.87747 0.21951 0.86328 0.0
H4745 H 0.90131 0.19512 0.85854 0.0
H4746 H 0.89946 0.21928 0.87074 0.0
O4747 O 0.89701 0.20948 0.84664 0.0
H4748 H 0.91101 0.19031 0.86945 0.0
H4749 H 0.90942 0.21462 0.8815 0.0
C4750 C 0.88342 0.20349 0.85625 0.0
C4751 C 0.8809 0.19919 0.84897 0.0
C4752 C 0.87454 0.19314 0.84934 0.0
C4753 C 0.87045 0.19136 0.85699 0.0
C4754 C 0.87297 0.19573 0.86427 0.0
C4755 C 0.87942 0.20171 0.8639 0.0
C4756 C 0.88927 0.2216 0.85679 0.0
C4757 C 0.89477 0.22774 0.85369 0.0
C4758 C 0.8929 0.23627 0.85458 0.0
C4759 C 0.88552 0.23886 0.8587 0.0
C4760 C 0.87992 0.2327 0.86168 0.0
C4761 C 0.8818 0.22412 0.86078 0.0
C4762 C 0.89962 0.20752 0.86386 0.0
C4763 C 0.90306 0.19941 0.86354 0.0
C4764 C 0.90865 0.1967 0.86974 0.0
C4765 C 0.91093 0.20205 0.8764 0.0
C4766 C 0.90765 0.21027 0.87657 0.0
C4767 C 0.90199 0.21297 0.87038 0.0
P4768 P 0.55429 0.12737 0.59082 0.0
H4769 H 0.55154 0.1093 0.58928 0.0
H4770 H 0.55225 0.09775 0.59939 0.0
H4771 H 0.55668 0.11559 0.61941 0.0
H4772 H 0.55567 0.12714 0.60928 0.0
H4773 H 0.54446 0.12971 0.57543 0.0
H4774 H 0.5304 0.13532 0.57275 0.0
H4775 H 0.52754 0.1407 0.59921 0.0
H4776 H 0.54161 0.13493 0.60189 0.0
H4777 H 0.57142 0.12546 0.59666 0.0
H4778 H 0.55432 0.14598 0.59193 0.0
O4779 O 0.55787 0.1232 0.58188 0.0
H4780 H 0.58217 0.13542 0.60128 0.0
H4781 H 0.56514 0.15602 0.59641 0.0
C4782 C 0.55369 0.11905 0.59851 0.0
C4783 C 0.55254 0.11073 0.59586 0.0
C4784 C 0.55299 0.10413 0.60165 0.0
C4785 C 0.55456 0.10573 0.61021 0.0
C4786 C 0.55534 0.11413 0.61289 0.0
C4787 C 0.55484 0.12074 0.60709 0.0
C4788 C 0.54404 0.13182 0.58888 0.0
C4789 C 0.54082 0.13208 0.58067 0.0
C4790 C 0.53279 0.13532 0.57913 0.0
C4791 C 0.52784 0.13835 0.58578 0.0
C4792 C 0.53116 0.13825 0.59399 0.0
C4793 C 0.5392 0.13499 0.59552 0.0
C4794 C 0.56201 0.13496 0.59415 0.0
C4795 C 0.56998 0.13212 0.59663 0.0
C4796 C 0.57614 0.13782 0.5992 0.0
C4797 C 0.57447 0.14649 0.59928 0.0
C4798 C 0.56654 0.14935 0.59657 0.0
C4799 C 0.56036 0.14362 0.594 0.0
P4800 P 0.61239 0.7932 0.35583 0.0
H4801 H 0.62161 0.80299 0.34323 0.0
H4802 H 0.63294 0.81334 0.34429 0.0
H4803 H 0.63384 0.80957 0.37116 0.0
H4804 H 0.62241 0.79927 0.3701 0.0
H4805 H 0.60746 0.77831 0.34639 0.0
H4806 H 0.61089 0.76344 0.34763 0.0
H4807 H 0.62696 0.76888 0.36882 0.0
H4808 H 0.62375 0.78392 0.36734 0.0
H4809 H 0.6 0.80652 0.35561 0.0
H4810 H 0.60782 0.78711 0.37286 0.0
O4811 O 0.60808 0.79449 0.34634 0.0
H4812 H 0.58997 0.81177 0.366 0.0
H4813 H 0.59788 0.79244 0.38337 0.0
C4814 C 0.62118 0.80033 0.35659 0.0
C4815 C 0.62423 0.80436 0.34936 0.0
C4816 C 0.63066 0.81034 0.34997 0.0
C4817 C 0.6342 0.81231 0.35782 0.0
C4818 C 0.63122 0.80815 0.36503 0.0
C4819 C 0.62472 0.80224 0.36443 0.0
C4820 C 0.61536 0.78227 0.35676 0.0
C4821 C 0.61179 0.77636 0.35126 0.0
C4822 C 0.6137 0.76782 0.35202 0.0
C4823 C 0.61909 0.76496 0.35841 0.0
C4824 C 0.62281 0.7709 0.36382 0.0
C4825 C 0.62094 0.77949 0.363 0.0
C4826 C 0.60456 0.79635 0.3634 0.0
C4827 C 0.59947 0.8033 0.36159 0.0
C4828 C 0.59376 0.80631 0.36754 0.0
C4829 C 0.59308 0.80247 0.37546 0.0
C4830 C 0.59813 0.79542 0.37724 0.0
C4831 C 0.60386 0.7924 0.37126 0.0
P4832 P 0.94986 0.87715 0.09049 0.0
H4833 H 0.95147 0.8954 0.08974 0.0
H4834 H 0.95052 0.90639 0.10042 0.0
H4835 H 0.94852 0.88741 0.11976 0.0
H4836 H 0.94924 0.8764 0.10897 0.0
H4837 H 0.95905 0.8744 0.07481 0.0
H4838 H 0.97306 0.86899 0.07168 0.0
H4839 H 0.97721 0.86458 0.09817 0.0
H4840 H 0.96325 0.87036 0.1013 0.0
H4841 H 0.9317 0.87755 0.09041 0.0
H4842 H 0.95103 0.85988 0.09744 0.0
O4843 O 0.94634 0.88171 0.08172 0.0
H4844 H 0.92093 0.86781 0.09532 0.0
H4845 H 0.94024 0.84996 0.10218 0.0
C4846 C 0.95028 0.8851 0.09855 0.0
C4847 C 0.95087 0.89359 0.09628 0.0
C4848 C 0.95036 0.89987 0.1024 0.0
C4849 C 0.94932 0.89777 0.11092 0.0
C4850 C 0.94912 0.88923 0.11322 0.0
C4851 C 0.9496 0.88293 0.10708 0.0
C4852 C 0.96011 0.87282 0.0883 0.0
C4853 C 0.96295 0.87228 0.07996 0.0
C4854 C 0.97095 0.8691 0.07816 0.0
C4855 C 0.97622 0.86627 0.08467 0.0
C4856 C 0.97331 0.86676 0.09302 0.0
C4857 C 0.96533 0.87003 0.09482 0.0
C4858 C 0.94215 0.8694 0.09343 0.0
C4859 C 0.93361 0.87148 0.09284 0.0
C4860 C 0.92745 0.86587 0.09559 0.0
C4861 C 0.92972 0.85803 0.09898 0.0
C4862 C 0.9383 0.85594 0.09955 0.0
C4863 C 0.94448 0.86159 0.09682 0.0
P4864 P 0.6478 0.89263 0.79415 0.0
H4865 H 0.66064 0.88131 0.80093 0.0
H4866 H 0.66 0.86961 0.81093 0.0
H4867 H 0.63305 0.87263 0.81263 0.0
H4868 H 0.63371 0.88414 0.80245 0.0
H4869 H 0.65251 0.90128 0.77882 0.0
H4870 H 0.65048 0.89818 0.76392 0.0
H4871 H 0.63804 0.87494 0.77046 0.0
H4872 H 0.63991 0.8782 0.78544 0.0
H4873 H 0.64419 0.89994 0.81045 0.0
H4874 H 0.63471 0.9024 0.78514 0.0
O4875 O 0.65728 0.89698 0.79525 0.0
H4876 H 0.6338 0.91009 0.81535 0.0
H4877 H 0.62456 0.91288 0.78994 0.0
C4878 C 0.64723 0.88365 0.80104 0.0
C4879 C 0.65459 0.87943 0.80345 0.0
C4880 C 0.65423 0.87281 0.80923 0.0
C4881 C 0.64649 0.87029 0.8127 0.0
C4882 C 0.63911 0.87442 0.81009 0.0
C4883 C 0.63948 0.88101 0.80428 0.0
C4884 C 0.6465 0.8899 0.78323 0.0
C4885 C 0.64942 0.89548 0.77705 0.0
C4886 C 0.64828 0.89368 0.76854 0.0
C4887 C 0.64422 0.88624 0.76602 0.0
C4888 C 0.6412 0.8807 0.77223 0.0
C4889 C 0.64231 0.88253 0.78078 0.0
C4890 C 0.64019 0.90035 0.79746 0.0
C4891 C 0.63994 0.90275 0.80593 0.0
C4892 C 0.63407 0.90866 0.8087 0.0
C4893 C 0.62845 0.91243 0.803 0.0
C4894 C 0.62881 0.91009 0.79448 0.0
C4895 C 0.63463 0.9041 0.79173 0.0
P4896 P 0.87727 0.91373 0.55446 0.0
H4897 H 0.89491 0.91377 0.54949 0.0
H4898 H 0.90609 0.90321 0.55049 0.0
H4899 H 0.88809 0.8851 0.55976 0.0
H4900 H 0.87698 0.89567 0.55884 0.0
H4901 H 0.8684 0.92817 0.54761 0.0
H4902 H 0.863 0.93149 0.53356 0.0
H4903 H 0.87079 0.90696 0.52487 0.0
H4904 H 0.87632 0.90375 0.53888 0.0
H4905 H 0.87562 0.9171 0.57238 0.0
H4906 H 0.86158 0.90408 0.55318 0.0
O4907 O 0.88193 0.92256 0.55769 0.0
H4908 H 0.86576 0.91207 0.58306 0.0
H4909 H 0.8517 0.89897 0.56389 0.0
C4910 C 0.88516 0.90558 0.55427 0.0
C4911 C 0.89337 0.90752 0.55169 0.0
C4912 C 0.89973 0.90147 0.55223 0.0
C4913 C 0.89798 0.89338 0.55534 0.0
C4914 C 0.88966 0.89135 0.55753 0.0
C4915 C 0.8833 0.89739 0.55697 0.0
C4916 C 0.8729 0.91579 0.54423 0.0
C4917 C 0.86896 0.92353 0.54266 0.0
C4918 C 0.86587 0.92541 0.53465 0.0
C4919 C 0.86664 0.91956 0.52807 0.0
C4920 C 0.87034 0.91169 0.52975 0.0
C4921 C 0.87345 0.90982 0.53777 0.0
C4922 C 0.86923 0.91109 0.56198 0.0
C4923 C 0.87029 0.91334 0.57043 0.0
C4924 C 0.86464 0.91049 0.57653 0.0
C4925 C 0.85792 0.90522 0.57427 0.0
C4926 C 0.8568 0.90308 0.56577 0.0
C4927 C 0.86241 0.90601 0.55965 0.0
P4928 P 0.85601 0.11149 0.29434 0.0
H4929 H 0.84292 0.1203 0.30389 0.0
H4930 H 0.84343 0.13149 0.31436 0.0
H4931 H 0.8703 0.13358 0.31074 0.0
H4932 H 0.86979 0.122 0.30064 0.0
H4933 H 0.84823 0.10532 0.27896 0.0
H4934 H 0.8504 0.10846 0.2641 0.0
H4935 H 0.86916 0.12695 0.27075 0.0
H4936 H 0.86679 0.12393 0.28567 0.0
H4937 H 0.86135 0.10553 0.31075 0.0
H4938 H 0.86772 0.10064 0.28483 0.0
O4939 O 0.84672 0.10674 0.29542 0.0
H4940 H 0.872 0.09546 0.3153 0.0
H4941 H 0.87818 0.09031 0.28933 0.0
C4942 C 0.85631 0.12037 0.3014 0.0
C4943 C 0.84892 0.12319 0.3053 0.0
C4944 C 0.84921 0.12966 0.31126 0.0
C4945 C 0.85689 0.13354 0.31332 0.0
C4946 C 0.86428 0.13071 0.30934 0.0
C4947 C 0.86399 0.12417 0.30347 0.0
C4948 C 0.85725 0.11447 0.28346 0.0
C4949 C 0.85274 0.11013 0.27725 0.0
C4950 C 0.85406 0.11185 0.26874 0.0
C4951 C 0.86006 0.11785 0.26625 0.0
C4952 C 0.86449 0.1223 0.27249 0.0
C4953 C 0.86314 0.12057 0.28102 0.0
C4954 C 0.86392 0.10403 0.29748 0.0
C4955 C 0.86506 0.10231 0.30604 0.0
C4956 C 0.87109 0.09648 0.30862 0.0
C4957 C 0.87603 0.09217 0.30268 0.0
C4958 C 0.87465 0.09369 0.29407 0.0
C4959 C 0.86864 0.09959 0.29149 0.0
P4960 P 0.6267 0.09083 0.05441 0.0
H4961 H 0.60956 0.09051 0.04803 0.0
H4962 H 0.59796 0.1006 0.04874 0.0
H4963 H 0.61445 0.11871 0.06049 0.0
H4964 H 0.62611 0.10873 0.05943 0.0
H4965 H 0.63506 0.07597 0.04779 0.0
H4966 H 0.64071 0.07238 0.03394 0.0
H4967 H 0.63437 0.09724 0.025 0.0
H4968 H 0.6285 0.10069 0.03883 0.0
H4969 H 0.62541 0.09286 0.07243 0.0
H4970 H 0.64476 0.09531 0.05357 0.0
O4971 O 0.62209 0.08204 0.05779 0.0
H4972 H 0.63519 0.0978 0.08319 0.0
H4973 H 0.65472 0.09993 0.06439 0.0
C4974 C 0.61864 0.09879 0.05384 0.0
C4975 C 0.6107 0.09669 0.05066 0.0
C4976 C 0.60406 0.10243 0.05115 0.0
C4977 C 0.60523 0.11037 0.0549 0.0
C4978 C 0.61333 0.11263 0.05763 0.0
C4979 C 0.61999 0.1069 0.05707 0.0
C4980 C 0.63128 0.08855 0.0443 0.0
C4981 C 0.6349 0.08065 0.04285 0.0
C4982 C 0.63819 0.07862 0.03494 0.0
C4983 C 0.63804 0.08454 0.02837 0.0
C4984 C 0.63451 0.09252 0.02991 0.0
C4985 C 0.63119 0.09452 0.03782 0.0
C4986 C 0.63436 0.09373 0.06222 0.0
C4987 C 0.63182 0.09434 0.07064 0.0
C4988 C 0.63743 0.09712 0.07679 0.0
C4989 C 0.64571 0.09933 0.07464 0.0
C4990 C 0.64832 0.09845 0.06621 0.0
C4991 C 0.64266 0.09574 0.06004 0.0
P4992 P 0.64851 0.11049 0.71167 0.0
H4993 H 0.66135 0.11935 0.70182 0.0
H4994 H 0.66046 0.13051 0.69122 0.0
H4995 H 0.6336 0.13184 0.69491 0.0
H4996 H 0.63448 0.1206 0.70544 0.0
H4997 H 0.6538 0.10248 0.72715 0.0
H4998 H 0.65225 0.10614 0.74199 0.0
H4999 H 0.63904 0.12882 0.73506 0.0
H5000 H 0.64074 0.12521 0.72015 0.0
H5001 H 0.64635 0.10118 0.69622 0.0
H5002 H 0.63339 0.10337 0.71995 0.0
O5003 O 0.65787 0.10588 0.7106 0.0
H5004 H 0.6356 0.09149 0.69118 0.0
H5005 H 0.62273 0.09336 0.71505 0.0
C5006 C 0.64797 0.11919 0.70444 0.0
C5007 C 0.65527 0.12206 0.70039 0.0
C5008 C 0.65477 0.12839 0.6943 0.0
C5009 C 0.64697 0.13201 0.69229 0.0
C5010 C 0.63969 0.12918 0.69642 0.0
C5011 C 0.64019 0.12279 0.70243 0.0
C5012 C 0.64743 0.11358 0.72253 0.0
C5013 C 0.65062 0.10828 0.7288 0.0
C5014 C 0.6497 0.11035 0.73729 0.0
C5015 C 0.64546 0.11773 0.73968 0.0
C5016 C 0.64236 0.12311 0.73338 0.0
C5017 C 0.6433 0.12103 0.72486 0.0
C5018 C 0.64071 0.10293 0.70847 0.0
C5019 C 0.64126 0.09943 0.70041 0.0
C5020 C 0.63515 0.09381 0.69757 0.0
C5021 C 0.62839 0.09149 0.70279 0.0
C5022 C 0.62788 0.09499 0.7109 0.0
C5023 C 0.63398 0.10069 0.71372 0.0
P5024 P 0.62675 0.91358 0.44946 0.0
H5025 H 0.60899 0.91429 0.45383 0.0
H5026 H 0.59762 0.90395 0.45314 0.0
H5027 H 0.61539 0.88501 0.44516 0.0
H5028 H 0.62676 0.89531 0.4461 0.0
H5029 H 0.63573 0.92809 0.45595 0.0
H5030 H 0.64136 0.93163 0.46982 0.0
H5031 H 0.63357 0.90731 0.4791 0.0
H5032 H 0.62772 0.90392 0.46526 0.0
H5033 H 0.628 0.91612 0.43138 0.0
H5034 H 0.64256 0.90412 0.45087 0.0
O5035 O 0.62226 0.92243 0.44606 0.0
H5036 H 0.63777 0.91079 0.42074 0.0
H5037 H 0.65237 0.89876 0.44021 0.0
C5038 C 0.61868 0.90562 0.44988 0.0
C5039 C 0.61045 0.90789 0.45203 0.0
C5040 C 0.60396 0.90198 0.4516 0.0
C5041 C 0.60559 0.89367 0.44907 0.0
C5042 C 0.61393 0.89132 0.44725 0.0
C5043 C 0.62043 0.89724 0.4477 0.0
C5044 C 0.63124 0.91579 0.45961 0.0
C5045 C 0.63525 0.92352 0.46098 0.0
C5046 C 0.63852 0.92551 0.46889 0.0
C5047 C 0.63797 0.91973 0.47555 0.0
C5048 C 0.63403 0.91193 0.47411 0.0
C5049 C 0.63072 0.90996 0.4662 0.0
C5050 C 0.63464 0.91061 0.44191 0.0
C5051 C 0.63341 0.91249 0.43339 0.0
C5052 C 0.63898 0.90946 0.42731 0.0
C5053 C 0.6458 0.90437 0.42967 0.0
C5054 C 0.64713 0.90265 0.43824 0.0
C5055 C 0.64157 0.90573 0.44433 0.0
P5056 P 0.85638 0.89183 0.21112 0.0
H5057 H 0.84491 0.87817 0.20693 0.0
H5058 H 0.84541 0.86695 0.19633 0.0
H5059 H 0.87027 0.87505 0.189 0.0
H5060 H 0.86979 0.88616 0.19961 0.0
H5061 H 0.84537 0.89467 0.22555 0.0
H5062 H 0.84634 0.89096 0.24037 0.0
H5063 H 0.86995 0.87837 0.2357 0.0
H5064 H 0.86875 0.88182 0.22066 0.0
H5065 H 0.85777 0.90248 0.19646 0.0
H5066 H 0.8717 0.89866 0.21941 0.0
O5067 O 0.84688 0.89601 0.20955 0.0
H5068 H 0.8683 0.91255 0.19169 0.0
H5069 H 0.88217 0.90895 0.21477 0.0
C5070 C 0.85727 0.88305 0.20401 0.0
C5071 C 0.85049 0.87748 0.20308 0.0
C5072 C 0.85076 0.87111 0.19702 0.0
C5073 C 0.85781 0.87025 0.19175 0.0
C5074 C 0.86468 0.8757 0.19285 0.0
C5075 C 0.86443 0.88202 0.19896 0.0
C5076 C 0.85703 0.88858 0.22199 0.0
C5077 C 0.85074 0.89105 0.22766 0.0
C5078 C 0.85133 0.88897 0.23617 0.0
C5079 C 0.85831 0.88452 0.23926 0.0
C5080 C 0.86449 0.88181 0.23351 0.0
C5081 C 0.86384 0.88381 0.22494 0.0
C5082 C 0.8639 0.89985 0.2083 0.0
C5083 C 0.86301 0.90395 0.20056 0.0
C5084 C 0.869 0.90978 0.19787 0.0
C5085 C 0.87601 0.91169 0.20292 0.0
C5086 C 0.87683 0.90764 0.21075 0.0
C5087 C 0.87083 0.90175 0.21342 0.0
P5088 P 0.8772 0.09084 0.95006 0.0
H5089 H 0.89536 0.09004 0.95278 0.0
H5090 H 0.9065 0.10061 0.95183 0.0
H5091 H 0.88783 0.1199 0.9477 0.0
H5092 H 0.87669 0.10926 0.94855 0.0
H5093 H 0.86729 0.07678 0.95627 0.0
H5094 H 0.86142 0.07334 0.97011 0.0
H5095 H 0.87105 0.09673 0.97996 0.0
H5096 H 0.87693 0.10014 0.96612 0.0
H5097 H 0.87921 0.09582 0.9327 0.0
H5098 H 0.85858 0.09227 0.94997 0.0
O5099 O 0.88171 0.08197 0.94674 0.0
H5100 H 0.86938 0.10037 0.92183 0.0
H5101 H 0.84866 0.09652 0.93899 0.0
C5102 C 0.88523 0.09884 0.95055 0.0
C5103 C 0.89365 0.09655 0.95172 0.0
C5104 C 0.90001 0.1026 0.95121 0.0
C5105 C 0.89804 0.11105 0.94954 0.0
C5106 C 0.88954 0.1134 0.94879 0.0
C5107 C 0.88318 0.10734 0.94933 0.0
C5108 C 0.87257 0.08869 0.96018 0.0
C5109 C 0.86811 0.08118 0.9614 0.0
C5110 C 0.86473 0.07923 0.96929 0.0
C5111 C 0.86578 0.08478 0.97609 0.0
C5112 C 0.87022 0.09232 0.97483 0.0
C5113 C 0.87355 0.09429 0.96692 0.0
C5114 C 0.86965 0.09382 0.94217 0.0
C5115 C 0.87255 0.09597 0.93413 0.0
C5116 C 0.86692 0.0985 0.9279 0.0
C5117 C 0.85825 0.09887 0.92957 0.0
C5118 C 0.85532 0.09646 0.93757 0.0
C5119 C 0.86099 0.09399 0.94384 0.0
P5120 P 0.79421 0.64847 0.89289 0.0
H5121 H 0.79921 0.66017 0.87961 0.0
H5122 H 0.80912 0.65902 0.86783 0.0
H5123 H 0.81481 0.63352 0.87527 0.0
H5124 H 0.80464 0.63455 0.88666 0.0
H5125 H 0.77876 0.65562 0.89954 0.0
H5126 H 0.76391 0.65333 0.89631 0.0
H5127 H 0.7709 0.63588 0.87669 0.0
H5128 H 0.78581 0.63837 0.87984 0.0
H5129 H 0.80956 0.64601 0.90243 0.0
H5130 H 0.78515 0.63428 0.90084 0.0
O5131 O 0.79549 0.65805 0.89696 0.0
H5132 H 0.81419 0.63509 0.91221 0.0
H5133 H 0.78959 0.6236 0.91091 0.0
C5134 C 0.80123 0.64748 0.88404 0.0
C5135 C 0.80255 0.65432 0.87864 0.0
C5136 C 0.80825 0.65367 0.87195 0.0
C5137 C 0.81269 0.64615 0.87056 0.0
C5138 C 0.81134 0.63933 0.87603 0.0
C5139 C 0.80558 0.63994 0.88262 0.0
C5140 C 0.78337 0.64727 0.88984 0.0
C5141 C 0.7771 0.65139 0.89447 0.0
C5142 C 0.76862 0.64999 0.89268 0.0
C5143 C 0.76624 0.64432 0.88633 0.0
C5144 C 0.77255 0.6403 0.88161 0.0
C5145 C 0.78106 0.64172 0.88339 0.0
C5146 C 0.79706 0.64093 0.90085 0.0
C5147 C 0.80516 0.64116 0.90429 0.0
C5148 C 0.80777 0.63494 0.90992 0.0
C5149 C 0.8023 0.62839 0.91224 0.0
C5150 C 0.79404 0.62841 0.90907 0.0
C5151 C 0.79146 0.63458 0.90335 0.0
P5152 P 0.29427 0.85559 0.11154 0.0
H5153 H 0.29974 0.84304 0.12378 0.0
H5154 H 0.31002 0.8434 0.13528 0.0
H5155 H 0.31466 0.86968 0.13022 0.0
H5156 H 0.30441 0.86928 0.11875 0.0
H5157 H 0.2788 0.84764 0.10578 0.0
H5158 H 0.26399 0.84977 0.10929 0.0
H5159 H 0.27101 0.86862 0.12752 0.0
H5160 H 0.28591 0.86648 0.12395 0.0
H5161 H 0.30967 0.85821 0.10213 0.0
H5162 H 0.28528 0.86998 0.10387 0.0
O5163 O 0.2954 0.84616 0.10708 0.0
H5164 H 0.31425 0.86912 0.09232 0.0
H5165 H 0.28971 0.88071 0.09383 0.0
C5166 C 0.30138 0.8561 0.12036 0.0
C5167 C 0.30295 0.84888 0.12518 0.0
C5168 C 0.3088 0.8491 0.13175 0.0
C5169 C 0.31315 0.85657 0.13362 0.0
C5170 C 0.31147 0.86382 0.12884 0.0
C5171 C 0.30559 0.8636 0.12231 0.0
C5172 C 0.28346 0.85677 0.11474 0.0
C5173 C 0.27719 0.85213 0.11064 0.0
C5174 C 0.26872 0.85334 0.11265 0.0
C5175 C 0.26637 0.85928 0.11876 0.0
C5176 C 0.27267 0.86398 0.12282 0.0
C5177 C 0.28116 0.86273 0.12082 0.0
C5178 C 0.29719 0.86333 0.10381 0.0
C5179 C 0.30527 0.8631 0.10032 0.0
C5180 C 0.30786 0.8693 0.09467 0.0
C5181 C 0.30239 0.87585 0.09238 0.0
C5182 C 0.29415 0.87587 0.09563 0.0
C5183 C 0.29159 0.8697 0.10135 0.0
P5184 P 0.91356 0.55403 0.87703 0.0
H5185 H 0.91318 0.54707 0.89395 0.0
H5186 H 0.90283 0.54775 0.90532 0.0
H5187 H 0.88585 0.56128 0.88897 0.0
H5188 H 0.89603 0.56022 0.87755 0.0
H5189 H 0.92758 0.54743 0.86728 0.0
H5190 H 0.9306 0.53356 0.86127 0.0
H5191 H 0.90679 0.52442 0.87064 0.0
H5192 H 0.90372 0.53833 0.87644 0.0
H5193 H 0.91264 0.57212 0.87836 0.0
H5194 H 0.90865 0.55348 0.85908 0.0
O5195 O 0.92242 0.55697 0.8818 0.0
H5196 H 0.90805 0.58314 0.86873 0.0
H5197 H 0.90437 0.56455 0.84925 0.0
C5198 C 0.90544 0.55369 0.88495 0.0
C5199 C 0.90717 0.55006 0.89278 0.0
C5200 C 0.90127 0.5505 0.89928 0.0
C5201 C 0.89351 0.55458 0.89806 0.0
C5202 C 0.89169 0.55796 0.89009 0.0
C5203 C 0.89757 0.55744 0.88357 0.0
C5204 C 0.91547 0.54388 0.87237 0.0
C5205 C 0.92301 0.54242 0.86804 0.0
C5206 C 0.92477 0.53448 0.86468 0.0
C5207 C 0.91899 0.52785 0.8656 0.0
C5208 C 0.91137 0.52939 0.86983 0.0
C5209 C 0.90961 0.53734 0.87317 0.0
C5210 C 0.91108 0.56201 0.8694 0.0
C5211 C 0.91098 0.57044 0.87197 0.0
C5212 C 0.90842 0.57674 0.86643 0.0
C5213 C 0.90599 0.57475 0.85816 0.0
C5214 C 0.90623 0.56629 0.85557 0.0
C5215 C 0.90871 0.55996 0.86117 0.0
P5216 P 0.21089 0.14768 0.61216 0.0
H5217 H 0.20116 0.16067 0.62097 0.0
H5218 H 0.19079 0.16001 0.63235 0.0
H5219 H 0.19444 0.13317 0.63408 0.0
H5220 H 0.20475 0.13383 0.62262 0.0
H5221 H 0.22641 0.15322 0.60429 0.0
H5222 H 0.24124 0.15177 0.60799 0.0
H5223 H 0.23427 0.13812 0.63042 0.0
H5224 H 0.21942 0.13941 0.62656 0.0
H5225 H 0.19447 0.14366 0.60543 0.0
H5226 H 0.21989 0.13478 0.60211 0.0
O5227 O 0.20987 0.15704 0.60754 0.0
H5228 H 0.18947 0.13333 0.59528 0.0
H5229 H 0.21495 0.12457 0.59165 0.0
C5230 C 0.20376 0.1473 0.62099 0.0
C5231 C 0.19976 0.15464 0.6238 0.0
C5232 C 0.19378 0.15426 0.63025 0.0
C5233 C 0.19178 0.14653 0.63403 0.0
C5234 C 0.19589 0.13921 0.63127 0.0
C5235 C 0.20179 0.13958 0.62477 0.0
C5236 C 0.22178 0.14654 0.61519 0.0
C5237 C 0.22806 0.14997 0.61004 0.0
C5238 C 0.23654 0.14921 0.61221 0.0
C5239 C 0.23894 0.14499 0.61961 0.0
C5240 C 0.23263 0.14145 0.62471 0.0
C5241 C 0.22412 0.1422 0.62251 0.0
C5242 C 0.20752 0.13992 0.60461 0.0
C5243 C 0.19899 0.13951 0.60247 0.0
C5244 C 0.19616 0.13368 0.59656 0.0
C5245 C 0.20184 0.12823 0.59253 0.0
C5246 C 0.21042 0.1287 0.59464 0.0
C5247 C 0.21325 0.13453 0.60062 0.0
P5248 P 0.09044 0.94972 0.87749 0.0
H5249 H 0.08986 0.9526 0.89562 0.0
H5250 H 0.10045 0.9515 0.90674 0.0
H5251 H 0.11942 0.946 0.88811 0.0
H5252 H 0.10882 0.94703 0.87703 0.0
H5253 H 0.07863 0.95582 0.86493 0.0
H5254 H 0.07589 0.96981 0.85897 0.0
H5255 H 0.09604 0.98005 0.87402 0.0
H5256 H 0.09879 0.96611 0.87987 0.0
H5257 H 0.08491 0.93233 0.87563 0.0
H5258 H 0.10141 0.94947 0.86262 0.0
O5259 O 0.08133 0.94719 0.88205 0.0
H5260 H 0.08929 0.92095 0.86632 0.0
H5261 H 0.10625 0.93795 0.85358 0.0
C5262 C 0.09848 0.94967 0.88551 0.0
C5263 C 0.09629 0.95116 0.89392 0.0
C5264 C 0.10236 0.95058 0.90027 0.0
C5265 C 0.11073 0.94852 0.8983 0.0
C5266 C 0.11298 0.9474 0.88982 0.0
C5267 C 0.10691 0.94801 0.88348 0.0
C5268 C 0.08899 0.9599 0.87274 0.0
C5269 C 0.0825 0.96107 0.86688 0.0
C5270 C 0.0809 0.96906 0.86354 0.0
C5271 C 0.0858 0.97599 0.86598 0.0
C5272 C 0.09225 0.97479 0.87191 0.0
C5273 C 0.09384 0.96681 0.87526 0.0
C5274 C 0.09282 0.94175 0.86979 0.0
C5275 C 0.08943 0.93366 0.87071 0.0
C5276 C 0.09203 0.92712 0.86545 0.0
C5277 C 0.09828 0.92849 0.85934 0.0
C5278 C 0.10141 0.93669 0.85821 0.0
C5279 C 0.09868 0.94327 0.86339 0.0
P5280 P 0.71181 0.35537 0.39384 0.0
H5281 H 0.70625 0.34325 0.38118 0.0
H5282 H 0.69562 0.34394 0.37004 0.0
H5283 H 0.69009 0.36962 0.37705 0.0
H5284 H 0.70093 0.36902 0.38782 0.0
H5285 H 0.72786 0.35221 0.40186 0.0
H5286 H 0.74245 0.35408 0.39733 0.0
H5287 H 0.73375 0.36343 0.37335 0.0
H5288 H 0.71918 0.36178 0.37802 0.0
H5289 H 0.69949 0.35469 0.40727 0.0
H5290 H 0.71729 0.37267 0.39753 0.0
O5291 O 0.71117 0.34576 0.398 0.0
H5292 H 0.69405 0.36527 0.41701 0.0
H5293 H 0.71175 0.38337 0.40716 0.0
C5294 C 0.70428 0.35602 0.38542 0.0
C5295 C 0.70275 0.34902 0.38029 0.0
C5296 C 0.69661 0.3494 0.37399 0.0
C5297 C 0.6919 0.35678 0.37277 0.0
C5298 C 0.69361 0.36383 0.37783 0.0
C5299 C 0.69979 0.36348 0.38404 0.0
C5300 C 0.72246 0.35686 0.39029 0.0
C5301 C 0.72911 0.35468 0.39563 0.0
C5302 C 0.73744 0.3557 0.39302 0.0
C5303 C 0.73927 0.35895 0.385 0.0
C5304 C 0.73256 0.36106 0.37962 0.0
C5305 C 0.72422 0.36007 0.38227 0.0
C5306 C 0.70892 0.36284 0.40184 0.0
C5307 C 0.70236 0.36086 0.40737 0.0
C5308 C 0.69921 0.36693 0.41289 0.0
C5309 C 0.70253 0.37512 0.41291 0.0
C5310 C 0.70922 0.37705 0.40744 0.0
C5311 C 0.71237 0.37096 0.40192 0.0
P5312 P 0.91375 0.44952 0.62654 0.0
H5313 H 0.91509 0.45125 0.60835 0.0
H5314 H 0.90488 0.45017 0.59695 0.0
H5315 H 0.88488 0.44722 0.61509 0.0
H5316 H 0.8951 0.44851 0.6265 0.0
H5317 H 0.92854 0.45715 0.6341 0.0
H5318 H 0.93123 0.47096 0.64034 0.0
H5319 H 0.9054 0.47799 0.63575 0.0
H5320 H 0.90272 0.46412 0.62957 0.0
H5321 H 0.92063 0.43288 0.6302 0.0
H5322 H 0.90121 0.449 0.64014 0.0
O5323 O 0.92284 0.44668 0.62211 0.0
H5324 H 0.91642 0.42177 0.63984 0.0
H5325 H 0.89641 0.43759 0.64927 0.0
C5326 C 0.90593 0.44972 0.6183 0.0
C5327 C 0.90851 0.4504 0.60991 0.0
C5328 C 0.90267 0.44974 0.60338 0.0
C5329 C 0.89411 0.44837 0.60513 0.0
C5330 C 0.89145 0.44819 0.61356 0.0
C5331 C 0.89732 0.44887 0.6201 0.0
C5332 C 0.91546 0.45965 0.63129 0.0
C5333 C 0.92345 0.46166 0.63443 0.0
C5334 C 0.925 0.46955 0.63797 0.0
C5335 C 0.91853 0.47553 0.63855 0.0
C5336 C 0.91048 0.47346 0.63548 0.0
C5337 C 0.90895 0.46556 0.63191 0.0
C5338 C 0.91113 0.44173 0.63434 0.0
C5339 C 0.91542 0.43402 0.63443 0.0
C5340 C 0.91292 0.42761 0.63988 0.0
C5341 C 0.90588 0.42866 0.64514 0.0
C5342 C 0.90184 0.43654 0.64529 0.0
C5343 C 0.90451 0.44304 0.64 0.0
P5344 P 0.59037 0.55468 0.12663 0.0
H5345 H 0.58911 0.55251 0.10846 0.0
H5346 H 0.59947 0.55322 0.09713 0.0
H5347 H 0.61927 0.55653 0.11542 0.0
H5348 H 0.60881 0.55599 0.12677 0.0
H5349 H 0.57551 0.54722 0.13435 0.0
H5350 H 0.57273 0.5334 0.14059 0.0
H5351 H 0.59831 0.52595 0.13531 0.0
H5352 H 0.60109 0.5398 0.12918 0.0
H5353 H 0.59124 0.57283 0.12588 0.0
H5354 H 0.59668 0.55347 0.14408 0.0
O5355 O 0.58137 0.55801 0.12238 0.0
H5356 H 0.59648 0.58351 0.13559 0.0
H5357 H 0.60165 0.56416 0.15398 0.0
C5358 C 0.59818 0.5543 0.11843 0.0
C5359 C 0.59569 0.55332 0.11004 0.0
C5360 C 0.60162 0.55366 0.10357 0.0
C5361 C 0.6102 0.55487 0.10539 0.0
C5362 C 0.61271 0.55563 0.11384 0.0
C5363 C 0.60675 0.5553 0.12031 0.0
C5364 C 0.58848 0.54449 0.13121 0.0
C5365 C 0.58052 0.5426 0.13452 0.0
C5366 C 0.57892 0.53471 0.13807 0.0
C5367 C 0.58531 0.52863 0.13847 0.0
C5368 C 0.5933 0.53057 0.13519 0.0
C5369 C 0.59488 0.53846 0.13164 0.0
C5370 C 0.59353 0.56239 0.13428 0.0
C5371 C 0.59344 0.5709 0.13203 0.0
C5372 C 0.59641 0.577 0.1376 0.0
C5373 C 0.59955 0.57468 0.14553 0.0
C5374 C 0.59943 0.56613 0.14785 0.0
C5375 C 0.59651 0.56002 0.14222 0.0
P5376 P 0.61851 0.71246 0.86989 0.0
H5377 H 0.63651 0.71044 0.87152 0.0
H5378 H 0.64609 0.69942 0.86703 0.0
H5379 H 0.62635 0.68828 0.85204 0.0
H5380 H 0.61662 0.69931 0.85683 0.0
H5381 H 0.61015 0.72735 0.87597 0.0
H5382 H 0.61143 0.74218 0.87257 0.0
H5383 H 0.62822 0.73609 0.85209 0.0
H5384 H 0.62689 0.72107 0.85557 0.0
H5385 H 0.61414 0.69559 0.87492 0.0
H5386 H 0.60073 0.71818 0.86808 0.0
O5387 O 0.62213 0.71342 0.87969 0.0
H5388 H 0.60116 0.68945 0.88022 0.0
H5389 H 0.58771 0.71209 0.87364 0.0
C5390 C 0.62584 0.70563 0.86461 0.0
C5391 C 0.63427 0.70575 0.86712 0.0
C5392 C 0.63977 0.69946 0.86449 0.0
C5393 C 0.63699 0.693 0.85913 0.0
C5394 C 0.62864 0.69317 0.8562 0.0
C5395 C 0.62311 0.69948 0.85889 0.0
C5396 C 0.61823 0.72307 0.8659 0.0
C5397 C 0.61389 0.72914 0.87056 0.0
C5398 C 0.61467 0.73765 0.86864 0.0
C5399 C 0.61994 0.74033 0.86207 0.0
C5400 C 0.62418 0.73422 0.85725 0.0
C5401 C 0.62333 0.72564 0.85916 0.0
C5402 C 0.60846 0.70736 0.87113 0.0
C5403 C 0.60836 0.69914 0.87431 0.0
C5404 C 0.60093 0.69564 0.87737 0.0
C5405 C 0.59346 0.70035 0.87745 0.0
C5406 C 0.59342 0.70838 0.87376 0.0
C5407 C 0.60087 0.71186 0.87059 0.0
P5408 P 0.54887 0.37007 0.10402 0.0
H5409 H 0.53977 0.38032 0.1161 0.0
H5410 H 0.54245 0.39429 0.12177 0.0
H5411 H 0.56108 0.39855 0.10245 0.0
H5412 H 0.55851 0.38435 0.09692 0.0
H5413 H 0.53987 0.35444 0.10221 0.0
H5414 H 0.52746 0.35035 0.09435 0.0
H5415 H 0.52765 0.37434 0.08156 0.0
H5416 H 0.53999 0.37858 0.08989 0.0
H5417 H 0.56555 0.37507 0.10966 0.0
H5418 H 0.55485 0.35539 0.09432 0.0
O5419 O 0.54631 0.36551 0.11312 0.0
H5420 H 0.57876 0.36745 0.1103 0.0
H5421 H 0.56811 0.34754 0.09528 0.0
C5422 C 0.54912 0.3812 0.10624 0.0
C5423 C 0.54434 0.38429 0.11298 0.0
C5424 C 0.54587 0.3923 0.11622 0.0
C5425 C 0.55216 0.39743 0.11273 0.0
C5426 C 0.5564 0.39462 0.10547 0.0
C5427 C 0.55486 0.38657 0.10222 0.0
C5428 C 0.54077 0.36686 0.09675 0.0
C5429 C 0.5373 0.35882 0.09766 0.0
C5430 C 0.53021 0.35645 0.09309 0.0
C5431 C 0.52643 0.36205 0.08738 0.0
C5432 C 0.53025 0.36995 0.08607 0.0
C5433 C 0.53736 0.37236 0.09075 0.0
C5434 C 0.5592 0.36593 0.10177 0.0
C5435 C 0.56612 0.3693 0.10609 0.0
C5436 C 0.57367 0.36488 0.10657 0.0
C5437 C 0.57439 0.35686 0.10294 0.0
C5438 C 0.5677 0.35373 0.0981 0.0
C5439 C 0.56013 0.35822 0.09755 0.0
P5440 P 0.88484 0.29295 0.36883 0.0
H5441 H 0.86724 0.29167 0.36449 0.0
H5442 H 0.85702 0.3025 0.36073 0.0
H5443 H 0.87721 0.32 0.35605 0.0
H5444 H 0.88748 0.30904 0.35954 0.0
H5445 H 0.89086 0.27834 0.37758 0.0
H5446 H 0.88997 0.26333 0.37493 0.0
H5447 H 0.87864 0.26825 0.35072 0.0
H5448 H 0.87939 0.28346 0.35356 0.0
H5449 H 0.88967 0.30926 0.3753 0.0
H5450 H 0.90235 0.28639 0.36801 0.0
O5451 O 0.88008 0.29279 0.37818 0.0
H5452 H 0.90276 0.31465 0.38122 0.0
H5453 H 0.91538 0.29163 0.37447 0.0
C5454 C 0.87812 0.29957 0.36249 0.0
C5455 C 0.86951 0.29771 0.3623 0.0
C5456 C 0.86367 0.30392 0.36021 0.0
C5457 C 0.86635 0.31211 0.3583 0.0
C5458 C 0.875 0.31373 0.35756 0.0
C5459 C 0.88086 0.30747 0.35961 0.0
C5460 C 0.88525 0.28203 0.36577 0.0
C5461 C 0.88829 0.27622 0.37164 0.0
C5462 C 0.88778 0.26761 0.3701 0.0
C5463 C 0.88419 0.26455 0.36262 0.0
C5464 C 0.88131 0.27039 0.3566 0.0
C5465 C 0.88183 0.27909 0.35817 0.0
C5466 C 0.89501 0.29748 0.37105 0.0
C5467 C 0.89532 0.3055 0.37471 0.0
C5468 C 0.90278 0.30856 0.37815 0.0
C5469 C 0.91002 0.30355 0.37824 0.0
C5470 C 0.90985 0.29561 0.37438 0.0
C5471 C 0.9024 0.29263 0.37072 0.0
P5472 P 0.95569 0.63386 0.60507 0.0
H5473 H 0.96683 0.62135 0.61224 0.0
H5474 H 0.96408 0.60726 0.61786 0.0
H5475 H 0.93932 0.60765 0.60681 0.0
H5476 H 0.94202 0.62179 0.60124 0.0
H5477 H 0.97292 0.63765 0.60925 0.0
H5478 H 0.98491 0.64263 0.60138 0.0
H5479 H 0.97065 0.64114 0.57835 0.0
H5480 H 0.95842 0.63584 0.58637 0.0
H5481 H 0.94175 0.6351 0.61624 0.0
H5482 H 0.94709 0.64335 0.59095 0.0
O5483 O 0.95837 0.63721 0.61466 0.0
H5484 H 0.92849 0.64249 0.61597 0.0
H5485 H 0.93335 0.65039 0.59041 0.0
C5486 C 0.95463 0.62265 0.60637 0.0
C5487 C 0.96091 0.61831 0.61078 0.0
C5488 C 0.95932 0.6103 0.61404 0.0
C5489 C 0.95148 0.60647 0.6128 0.0
C5490 C 0.94542 0.61052 0.60782 0.0
C5491 C 0.94698 0.61858 0.60462 0.0
C5492 C 0.96454 0.6368 0.59851 0.0
C5493 C 0.97223 0.63842 0.60252 0.0
C5494 C 0.97915 0.64126 0.59801 0.0
C5495 C 0.97866 0.64249 0.5893 0.0
C5496 C 0.97115 0.64036 0.5851 0.0
C5497 C 0.96413 0.63745 0.58969 0.0
C5498 C 0.94551 0.63873 0.60367 0.0
C5499 C 0.94001 0.63842 0.61055 0.0
C5500 C 0.93234 0.6426 0.61036 0.0
C5501 C 0.92982 0.6471 0.60319 0.0
C5502 C 0.93518 0.64714 0.59611 0.0
C5503 C 0.94301 0.64302 0.59637 0.0
P5504 P 0.61961 0.29428 0.63437 0.0
H5505 H 0.63713 0.29349 0.63937 0.0
H5506 H 0.64667 0.30453 0.6442 0.0
H5507 H 0.62549 0.32082 0.64889 0.0
H5508 H 0.61592 0.30967 0.64434 0.0
H5509 H 0.61382 0.2802 0.62467 0.0
H5510 H 0.6143 0.26505 0.62669 0.0
H5511 H 0.62524 0.26863 0.65129 0.0
H5512 H 0.62482 0.28399 0.64916 0.0
H5513 H 0.61456 0.31059 0.62815 0.0
H5514 H 0.60219 0.28747 0.63519 0.0
O5515 O 0.62467 0.29475 0.62519 0.0
H5516 H 0.60132 0.31604 0.62269 0.0
H5517 H 0.58897 0.29278 0.62924 0.0
C5518 C 0.62582 0.30078 0.64131 0.0
C5519 C 0.63449 0.29929 0.64179 0.0
C5520 C 0.63995 0.30563 0.64451 0.0
C5521 C 0.63681 0.31358 0.64672 0.0
C5522 C 0.62807 0.31479 0.64706 0.0
C5523 C 0.6226 0.30839 0.64445 0.0
C5524 C 0.6192 0.28322 0.63679 0.0
C5525 C 0.61619 0.27775 0.63057 0.0
C5526 C 0.61643 0.26908 0.63175 0.0
C5527 C 0.61968 0.26564 0.6392 0.0
C5528 C 0.62266 0.27112 0.6455 0.0
C5529 C 0.6224 0.27988 0.64431 0.0
C5530 C 0.60938 0.29866 0.63217 0.0
C5531 C 0.60895 0.30677 0.62874 0.0
C5532 C 0.60139 0.30987 0.62559 0.0
C5533 C 0.59414 0.30483 0.62561 0.0
C5534 C 0.59448 0.29679 0.62923 0.0
C5535 C 0.60204 0.29375 0.63259 0.0
P5536 P 0.95542 0.37 0.89998 0.0
H5537 H 0.96664 0.38163 0.89152 0.0
H5538 H 0.96423 0.3956 0.88556 0.0
H5539 H 0.94036 0.39696 0.89843 0.0
H5540 H 0.94294 0.38309 0.90463 0.0
H5541 H 0.96436 0.35434 0.90169 0.0
H5542 H 0.97666 0.35014 0.90968 0.0
H5543 H 0.97611 0.37386 0.92298 0.0
H5544 H 0.96393 0.37823 0.91448 0.0
H5545 H 0.93962 0.37274 0.8915 0.0
H5546 H 0.94882 0.35676 0.91141 0.0
O5547 O 0.95849 0.36607 0.89074 0.0
H5548 H 0.92619 0.36544 0.89175 0.0
H5549 H 0.93531 0.34917 0.91146 0.0
C5550 C 0.95487 0.38121 0.89831 0.0
C5551 C 0.961 0.38503 0.89326 0.0
C5552 C 0.95957 0.39296 0.88977 0.0
C5553 C 0.95197 0.39721 0.89129 0.0
C5554 C 0.94622 0.39377 0.89706 0.0
C5555 C 0.94769 0.38583 0.9006 0.0
C5556 C 0.96333 0.36664 0.90738 0.0
C5557 C 0.96683 0.35863 0.90638 0.0
C5558 C 0.97385 0.3562 0.91102 0.0
C5559 C 0.97751 0.3617 0.9169 0.0
C5560 C 0.97363 0.36956 0.91832 0.0
C5561 C 0.96661 0.37203 0.91355 0.0
C5562 C 0.94515 0.3655 0.90162 0.0
C5563 C 0.93866 0.36784 0.89613 0.0
C5564 C 0.93099 0.36364 0.89625 0.0
C5565 C 0.92969 0.35684 0.90172 0.0
C5566 C 0.93615 0.35448 0.90727 0.0
C5567 C 0.94384 0.35882 0.90725 0.0
P5568 P 0.88487 0.71144 0.13606 0.0
H5569 H 0.86691 0.712 0.13878 0.0
H5570 H 0.85687 0.70087 0.14217 0.0
H5571 H 0.8773 0.68448 0.14918 0.0
H5572 H 0.88739 0.69572 0.14595 0.0
H5573 H 0.89262 0.72604 0.12864 0.0
H5574 H 0.89092 0.74109 0.13102 0.0
H5575 H 0.87565 0.73602 0.15285 0.0
H5576 H 0.87745 0.72079 0.15052 0.0
H5577 H 0.88936 0.69512 0.12948 0.0
H5578 H 0.90258 0.71744 0.13749 0.0
O5579 O 0.88042 0.71199 0.12657 0.0
H5580 H 0.90234 0.68952 0.12357 0.0
H5581 H 0.91554 0.71199 0.13109 0.0
C5582 C 0.8779 0.70466 0.14195 0.0
C5583 C 0.86924 0.70615 0.14139 0.0
C5584 C 0.8635 0.69978 0.14328 0.0
C5585 C 0.86635 0.69182 0.14581 0.0
C5586 C 0.87498 0.69058 0.14723 0.0
C5587 C 0.88074 0.697 0.14535 0.0
C5588 C 0.88529 0.72226 0.13947 0.0
C5589 C 0.88916 0.72812 0.13413 0.0
C5590 C 0.88814 0.73672 0.13545 0.0
C5591 C 0.88315 0.73967 0.14209 0.0
C5592 C 0.87958 0.73386 0.14772 0.0
C5593 C 0.88062 0.72518 0.14639 0.0
C5594 C 0.89497 0.70668 0.13399 0.0
C5595 C 0.8951 0.69872 0.1302 0.0
C5596 C 0.90251 0.69553 0.12678 0.0
C5597 C 0.90989 0.70035 0.12685 0.0
C5598 C 0.9099 0.70818 0.13096 0.0
C5599 C 0.90248 0.71129 0.13459 0.0
P5600 P 0.54836 0.634 0.3993 0.0
H5601 H 0.53706 0.62133 0.39265 0.0
H5602 H 0.53976 0.60732 0.38704 0.0
H5603 H 0.56473 0.60787 0.39774 0.0
H5604 H 0.56206 0.62202 0.40313 0.0
H5605 H 0.5383 0.64903 0.39945 0.0
H5606 H 0.52628 0.65353 0.40763 0.0
H5607 H 0.52939 0.63208 0.42406 0.0
H5608 H 0.54128 0.62728 0.41534 0.0
H5609 H 0.56217 0.63491 0.38779 0.0
H5610 H 0.55698 0.6436 0.41295 0.0
O5611 O 0.54489 0.63716 0.38991 0.0
H5612 H 0.57566 0.64204 0.38798 0.0
H5613 H 0.57081 0.65063 0.41332 0.0
C5614 C 0.54935 0.62276 0.39826 0.0
C5615 C 0.54301 0.61833 0.39404 0.0
C5616 C 0.54457 0.61029 0.39083 0.0
C5617 C 0.55249 0.60647 0.3919 0.0
C5618 C 0.55861 0.61068 0.39671 0.0
C5619 C 0.55705 0.61875 0.39987 0.0
C5620 C 0.54057 0.63773 0.40667 0.0
C5621 C 0.53645 0.64528 0.40483 0.0
C5622 C 0.52958 0.6479 0.40959 0.0
C5623 C 0.52674 0.64313 0.41648 0.0
C5624 C 0.53124 0.6358 0.41867 0.0
C5625 C 0.5381 0.63308 0.41375 0.0
C5626 C 0.55855 0.63883 0.40029 0.0
C5627 C 0.56399 0.63832 0.3934 0.0
C5628 C 0.57175 0.64235 0.39355 0.0
C5629 C 0.57431 0.64694 0.40065 0.0
C5630 C 0.56895 0.64726 0.4077 0.0
C5631 C 0.56108 0.64321 0.40752 0.0
P5632 P 0.8691 0.61874 0.71214 0.0
H5633 H 0.86987 0.6368 0.71074 0.0
H5634 H 0.86517 0.64641 0.69985 0.0
H5635 H 0.85058 0.6265 0.68849 0.0
H5636 H 0.8554 0.61679 0.69953 0.0
H5637 H 0.87822 0.61385 0.72696 0.0
H5638 H 0.87537 0.61488 0.7419 0.0
H5639 H 0.85045 0.62434 0.73656 0.0
H5640 H 0.85348 0.62344 0.72137 0.0
H5641 H 0.87036 0.6135 0.69465 0.0
H5642 H 0.87156 0.60164 0.71904 0.0
O5643 O 0.87887 0.62257 0.71216 0.0
H5644 H 0.87622 0.60102 0.68824 0.0
H5645 H 0.87817 0.58933 0.71267 0.0
C5646 C 0.86318 0.62604 0.70581 0.0
C5647 C 0.86547 0.63453 0.70607 0.0
C5648 C 0.86273 0.64005 0.69984 0.0
C5649 C 0.85752 0.6372 0.69329 0.0
C5650 C 0.85465 0.62883 0.69343 0.0
C5651 C 0.85737 0.62331 0.69975 0.0
C5652 C 0.86607 0.61853 0.72306 0.0
C5653 C 0.87209 0.61604 0.72897 0.0
C5654 C 0.87044 0.61663 0.73753 0.0
C5655 C 0.86269 0.61971 0.74045 0.0
C5656 C 0.85653 0.62205 0.73451 0.0
C5657 C 0.85822 0.62145 0.72585 0.0
C5658 C 0.87028 0.60852 0.70734 0.0
C5659 C 0.87148 0.60809 0.69862 0.0
C5660 C 0.87501 0.60097 0.69495 0.0
C5661 C 0.87776 0.59424 0.69996 0.0
C5662 C 0.87602 0.59438 0.70862 0.0
C5663 C 0.87228 0.60147 0.71228 0.0
P5664 P 0.63411 0.6037 0.95539 0.0
H5665 H 0.6228 0.61342 0.9659 0.0
H5666 H 0.60892 0.61947 0.96317 0.0
H5667 H 0.60697 0.60483 0.94042 0.0
H5668 H 0.62095 0.59877 0.94314 0.0
H5669 H 0.65018 0.59902 0.96251 0.0
H5670 H 0.65402 0.5912 0.97518 0.0
H5671 H 0.62806 0.58423 0.97878 0.0
H5672 H 0.62421 0.59196 0.96594 0.0
H5673 H 0.63193 0.6129 0.93995 0.0
H5674 H 0.6468 0.5918 0.94835 0.0
O5675 O 0.63837 0.61264 0.95885 0.0
H5676 H 0.6401 0.61354 0.927 0.0
H5677 H 0.65514 0.59256 0.93533 0.0
C5678 C 0.62298 0.60581 0.95462 0.0
C5679 C 0.61932 0.61134 0.96043 0.0
C5680 C 0.61141 0.61481 0.95886 0.0
C5681 C 0.60699 0.6127 0.95153 0.0
C5682 C 0.61031 0.60656 0.9461 0.0
C5683 C 0.61827 0.60311 0.94766 0.0
C5684 C 0.63693 0.596 0.96321 0.0
C5685 C 0.64535 0.59554 0.96582 0.0
C5686 C 0.64754 0.5911 0.97307 0.0
C5687 C 0.64133 0.58711 0.9779 0.0
C5688 C 0.63294 0.58724 0.97511 0.0
C5689 C 0.63076 0.59162 0.96777 0.0
C5690 C 0.63868 0.60226 0.94511 0.0
C5691 C 0.63677 0.60822 0.9389 0.0
C5692 C 0.64148 0.60863 0.93153 0.0
C5693 C 0.64825 0.60314 0.93023 0.0
C5694 C 0.6499 0.59683 0.9362 0.0
C5695 C 0.64515 0.59642 0.94364 0.0
P5696 P 0.63433 0.38598 0.21093 0.0
H5697 H 0.63471 0.36785 0.21018 0.0
H5698 H 0.63959 0.35815 0.19944 0.0
H5699 H 0.65185 0.37863 0.18644 0.0
H5700 H 0.64664 0.38844 0.19717 0.0
H5701 H 0.62793 0.3953 0.22511 0.0
H5702 H 0.63028 0.39406 0.24019 0.0
H5703 H 0.65032 0.37633 0.23568 0.0
H5704 H 0.6481 0.37775 0.22042 0.0
H5705 H 0.62778 0.38967 0.1945 0.0
H5706 H 0.63666 0.40397 0.21579 0.0
O5707 O 0.62477 0.38173 0.21175 0.0
H5708 H 0.62224 0.40247 0.18818 0.0
H5709 H 0.63081 0.41682 0.20957 0.0
C5710 C 0.64022 0.37886 0.20441 0.0
C5711 C 0.63864 0.37024 0.20515 0.0
C5712 C 0.6415 0.36468 0.19902 0.0
C5713 C 0.64616 0.36761 0.1921 0.0
C5714 C 0.64824 0.3762 0.19168 0.0
C5715 C 0.64531 0.3818 0.19783 0.0
C5716 C 0.63796 0.38678 0.22161 0.0
C5717 C 0.63309 0.39143 0.2273 0.0
C5718 C 0.63435 0.39063 0.23592 0.0
C5719 C 0.6404 0.38504 0.23904 0.0
C5720 C 0.64563 0.38071 0.23338 0.0
C5721 C 0.64437 0.38154 0.22468 0.0
C5722 C 0.63257 0.39583 0.20564 0.0
C5723 C 0.62874 0.3956 0.19772 0.0
C5724 C 0.62557 0.40292 0.19411 0.0
C5725 C 0.62611 0.41061 0.1984 0.0
C5726 C 0.63031 0.41094 0.20616 0.0
C5727 C 0.63362 0.40359 0.20973 0.0
P5728 P 0.86978 0.39923 0.45652 0.0
H5729 H 0.88098 0.38793 0.46559 0.0
H5730 H 0.89482 0.38231 0.46222 0.0
H5731 H 0.89699 0.40004 0.44173 0.0
H5732 H 0.88287 0.40535 0.4449 0.0
H5733 H 0.85382 0.40627 0.4616 0.0
H5734 H 0.84976 0.41447 0.47385 0.0
H5735 H 0.87597 0.41896 0.47949 0.0
H5736 H 0.87998 0.41035 0.46736 0.0
H5737 H 0.8686 0.38687 0.44351 0.0
H5738 H 0.86094 0.41268 0.44681 0.0
O5739 O 0.86544 0.39077 0.46096 0.0
H5740 H 0.86192 0.38655 0.42976 0.0
H5741 H 0.85423 0.41242 0.43281 0.0
C5742 C 0.88083 0.39694 0.4554 0.0
C5743 C 0.88446 0.39069 0.46043 0.0
C5744 C 0.89241 0.38748 0.4585 0.0
C5745 C 0.89693 0.39054 0.45155 0.0
C5746 C 0.89355 0.39731 0.44693 0.0
C5747 C 0.88553 0.40045 0.44882 0.0
C5748 C 0.86719 0.40777 0.4635 0.0
C5749 C 0.8587 0.40929 0.46528 0.0
C5750 C 0.85638 0.41403 0.4723 0.0
C5751 C 0.86254 0.41744 0.47767 0.0
C5752 C 0.87107 0.41639 0.47552 0.0
C5753 C 0.87338 0.41154 0.46853 0.0
C5754 C 0.86522 0.39976 0.44618 0.0
C5755 C 0.86555 0.39251 0.44121 0.0
C5756 C 0.86178 0.39236 0.43332 0.0
C5757 C 0.85767 0.3995 0.43017 0.0
C5758 C 0.85739 0.40684 0.43511 0.0
C5759 C 0.86122 0.40699 0.44308 0.0
P5760 P 0.86822 0.3847 0.79299 0.0
H5761 H 0.86424 0.36688 0.79284 0.0
H5762 H 0.86027 0.3573 0.80422 0.0
H5763 H 0.85556 0.37849 0.82046 0.0
H5764 H 0.85912 0.38811 0.80896 0.0
H5765 H 0.87515 0.39322 0.77856 0.0
H5766 H 0.87295 0.39165 0.76349 0.0
H5767 H 0.85214 0.37491 0.76817 0.0
H5768 H 0.85422 0.37666 0.78344 0.0
H5769 H 0.87612 0.38891 0.80876 0.0
H5770 H 0.86625 0.40258 0.78747 0.0
O5771 O 0.87746 0.37977 0.79239 0.0
H5772 H 0.88198 0.4019 0.81441 0.0
H5773 H 0.87265 0.41557 0.79293 0.0
C5774 C 0.86208 0.37822 0.80003 0.0
C5775 C 0.86197 0.3695 0.7987 0.0
C5776 C 0.85975 0.36402 0.80522 0.0
C5777 C 0.85769 0.3672 0.81319 0.0
C5778 C 0.85713 0.37593 0.81434 0.0
C5779 C 0.8592 0.38141 0.80776 0.0
C5780 C 0.86475 0.38522 0.78218 0.0
C5781 C 0.86988 0.38949 0.77641 0.0
C5782 C 0.86869 0.38851 0.76778 0.0
C5783 C 0.86243 0.38311 0.76469 0.0
C5784 C 0.85698 0.37914 0.77042 0.0
C5785 C 0.85817 0.38015 0.77913 0.0
C5786 C 0.87077 0.39473 0.79767 0.0
C5787 C 0.87506 0.39473 0.80537 0.0
C5788 C 0.87843 0.40215 0.8086 0.0
C5789 C 0.87778 0.40968 0.80407 0.0
C5790 C 0.87322 0.4098 0.7965 0.0
C5791 C 0.86962 0.40237 0.79338 0.0
P5792 P 0.87041 0.60527 0.04771 0.0
H5793 H 0.88431 0.60943 0.03657 0.0
H5794 H 0.89843 0.61491 0.0396 0.0
H5795 H 0.89505 0.60915 0.06587 0.0
H5796 H 0.88101 0.6036 0.06288 0.0
H5797 H 0.85415 0.60206 0.04057 0.0
H5798 H 0.84956 0.59395 0.0285 0.0
H5799 H 0.87426 0.58276 0.02659 0.0
H5800 H 0.87897 0.59137 0.03854 0.0
H5801 H 0.86615 0.61855 0.05922 0.0
H5802 H 0.8629 0.59164 0.05809 0.0
O5803 O 0.86772 0.61431 0.04312 0.0
H5804 H 0.85922 0.6189 0.07284 0.0
H5805 H 0.85592 0.59196 0.07198 0.0
C5806 C 0.88158 0.60612 0.04948 0.0
C5807 C 0.88672 0.60904 0.04293 0.0
C5808 C 0.89475 0.61222 0.04466 0.0
C5809 C 0.89771 0.61248 0.05296 0.0
C5810 C 0.89284 0.60899 0.05942 0.0
C5811 C 0.88483 0.6058 0.05769 0.0
C5812 C 0.86688 0.5973 0.04048 0.0
C5813 C 0.85853 0.59768 0.03772 0.0
C5814 C 0.85588 0.59296 0.03082 0.0
C5815 C 0.8615 0.58758 0.0266 0.0
C5816 C 0.86978 0.58685 0.02968 0.0
C5817 C 0.87247 0.59171 0.03656 0.0
C5818 C 0.86488 0.6051 0.05758 0.0
C5819 C 0.86388 0.61271 0.06189 0.0
C5820 C 0.86 0.61289 0.06972 0.0
C5821 C 0.85713 0.60545 0.07349 0.0
C5822 C 0.85809 0.59778 0.06918 0.0
C5823 C 0.86205 0.59759 0.06128 0.0
P5824 P 0.63548 0.61895 0.29246 0.0
H5825 H 0.63265 0.63684 0.29385 0.0
H5826 H 0.63663 0.64715 0.30437 0.0
H5827 H 0.65337 0.62909 0.31585 0.0
H5828 H 0.6492 0.61862 0.30522 0.0
H5829 H 0.62848 0.61086 0.27778 0.0
H5830 H 0.63091 0.61241 0.26283 0.0
H5831 H 0.6514 0.62951 0.26786 0.0
H5832 H 0.64927 0.62746 0.28306 0.0
H5833 H 0.63402 0.6145 0.31014 0.0
H5834 H 0.63463 0.60117 0.28649 0.0
O5835 O 0.62544 0.62198 0.29188 0.0
H5836 H 0.62802 0.60227 0.3169 0.0
H5837 H 0.62766 0.5892 0.29313 0.0
C5838 C 0.64049 0.62691 0.29884 0.0
C5839 C 0.63732 0.63512 0.29849 0.0
C5840 C 0.63965 0.64104 0.30451 0.0
C5841 C 0.64534 0.63895 0.31095 0.0
C5842 C 0.64894 0.63086 0.31099 0.0
C5843 C 0.6466 0.6249 0.30489 0.0
C5844 C 0.63886 0.61879 0.2816 0.0
C5845 C 0.63379 0.6146 0.27574 0.0
C5846 C 0.63507 0.61564 0.26715 0.0
C5847 C 0.64129 0.62114 0.26413 0.0
C5848 C 0.64661 0.62515 0.26998 0.0
C5849 C 0.64539 0.62398 0.27867 0.0
C5850 C 0.63478 0.6089 0.29773 0.0
C5851 C 0.63319 0.60888 0.30641 0.0
C5852 C 0.62956 0.6019 0.31027 0.0
C5853 C 0.62703 0.59494 0.30546 0.0
C5854 C 0.62942 0.59455 0.29697 0.0
C5855 C 0.63334 0.60147 0.29315 0.0
P5856 P 0.63418 0.39988 0.54873 0.0
H5857 H 0.62364 0.38822 0.53944 0.0
H5858 H 0.60969 0.38256 0.54226 0.0
H5859 H 0.60602 0.4013 0.56159 0.0
H5860 H 0.6202 0.40678 0.5589 0.0
H5861 H 0.64975 0.40153 0.53962 0.0
H5862 H 0.65388 0.40945 0.52726 0.0
H5863 H 0.63006 0.42258 0.52771 0.0
H5864 H 0.62577 0.41417 0.53999 0.0
H5865 H 0.63 0.39333 0.56522 0.0
H5866 H 0.64818 0.41054 0.55473 0.0
O5867 O 0.63863 0.39073 0.54614 0.0
H5868 H 0.63783 0.39303 0.57838 0.0
H5869 H 0.65615 0.41006 0.56796 0.0
C5870 C 0.62304 0.39777 0.54911 0.0
C5871 C 0.6198 0.39122 0.54419 0.0
C5872 C 0.6118 0.38798 0.54581 0.0
C5873 C 0.60684 0.3913 0.55233 0.0
C5874 C 0.60981 0.39841 0.55673 0.0
C5875 C 0.61786 0.40162 0.55512 0.0
C5876 C 0.6374 0.40714 0.54062 0.0
C5877 C 0.64542 0.40615 0.53711 0.0
C5878 C 0.6478 0.41076 0.53005 0.0
C5879 C 0.64227 0.41659 0.52637 0.0
C5880 C 0.6344 0.41797 0.53024 0.0
C5881 C 0.63196 0.41324 0.53731 0.0
C5882 C 0.63836 0.40213 0.55902 0.0
C5883 C 0.63543 0.39737 0.56586 0.0
C5884 C 0.63993 0.39716 0.57338 0.0
C5885 C 0.6475 0.4016 0.57416 0.0
C5886 C 0.65023 0.40672 0.56751 0.0
C5887 C 0.64568 0.40699 0.55997 0.0
P5888 P 0.71233 0.86811 0.61851 0.0
H5889 H 0.71118 0.8682 0.63663 0.0
H5890 H 0.7002 0.86353 0.64618 0.0
H5891 H 0.68808 0.85022 0.62583 0.0
H5892 H 0.6992 0.85499 0.6162 0.0
H5893 H 0.72708 0.8763 0.61191 0.0
H5894 H 0.74206 0.87395 0.61385 0.0
H5895 H 0.7368 0.851 0.62735 0.0
H5896 H 0.72161 0.85329 0.62519 0.0
H5897 H 0.69485 0.87063 0.61397 0.0
H5898 H 0.71872 0.87006 0.60102 0.0
O5899 O 0.71262 0.87775 0.62265 0.0
H5900 H 0.68838 0.87713 0.60182 0.0
H5901 H 0.71232 0.87734 0.58905 0.0
C5902 C 0.70589 0.86213 0.62568 0.0
C5903 C 0.70632 0.86407 0.63425 0.0
C5904 C 0.70004 0.86135 0.63973 0.0
C5905 C 0.69326 0.85653 0.63674 0.0
C5906 C 0.69321 0.85399 0.62827 0.0
C5907 C 0.69957 0.85668 0.62278 0.0
C5908 C 0.72321 0.8649 0.61824 0.0
C5909 C 0.7291 0.87058 0.615 0.0
C5910 C 0.73768 0.8693 0.61622 0.0
C5911 C 0.74057 0.86234 0.62081 0.0
C5912 C 0.73471 0.85639 0.62374 0.0
C5913 C 0.72605 0.85769 0.62249 0.0
C5914 C 0.7073 0.86974 0.60846 0.0
C5915 C 0.69867 0.87156 0.60841 0.0
C5916 C 0.69498 0.87545 0.60149 0.0
C5917 C 0.69991 0.87797 0.59463 0.0
C5918 C 0.70839 0.87552 0.59431 0.0
C5919 C 0.71206 0.87139 0.6012 0.0
P5920 P 0.2129 0.63457 0.38551 0.0
H5921 H 0.20998 0.63249 0.36764 0.0
H5922 H 0.1987 0.63711 0.35844 0.0
H5923 H 0.1891 0.65314 0.3782 0.0
H5924 H 0.2003 0.64811 0.38759 0.0
H5925 H 0.22759 0.62998 0.39526 0.0
H5926 H 0.24241 0.63353 0.39403 0.0
H5927 H 0.23659 0.6512 0.37428 0.0
H5928 H 0.22157 0.64782 0.37575 0.0
H5929 H 0.19639 0.6282 0.38927 0.0
H5930 H 0.21767 0.63709 0.40359 0.0
O5931 O 0.21425 0.6249 0.38168 0.0
H5932 H 0.18999 0.62278 0.40207 0.0
H5933 H 0.21136 0.63135 0.41644 0.0
C5934 C 0.20587 0.63982 0.37834 0.0
C5935 C 0.20552 0.63707 0.36999 0.0
C5936 C 0.19907 0.63976 0.36471 0.0
C5937 C 0.19288 0.64537 0.36763 0.0
C5938 C 0.19361 0.64862 0.37584 0.0
C5939 C 0.20007 0.64584 0.38117 0.0
C5940 C 0.22337 0.63892 0.38591 0.0
C5941 C 0.22939 0.63496 0.39099 0.0
C5942 C 0.23791 0.63693 0.3902 0.0
C5943 C 0.24065 0.64275 0.38415 0.0
C5944 C 0.23463 0.64677 0.37906 0.0
C5945 C 0.22605 0.64489 0.37996 0.0
C5946 C 0.20758 0.63293 0.39541 0.0
C5947 C 0.19962 0.62916 0.3952 0.0
C5948 C 0.19596 0.62604 0.40252 0.0
C5949 C 0.20025 0.62652 0.41022 0.0
C5950 C 0.208 0.63077 0.41055 0.0
C5951 C 0.21162 0.63402 0.40319 0.0
P5952 P 0.6043 0.95521 0.63411 0.0
H5953 H 0.61407 0.9657 0.62281 0.0
H5954 H 0.61984 0.9632 0.60877 0.0
H5955 H 0.60551 0.94021 0.607 0.0
H5956 H 0.59959 0.94284 0.62099 0.0
H5957 H 0.59966 0.96258 0.65009 0.0
H5958 H 0.59196 0.97529 0.65384 0.0
H5959 H 0.58503 0.97876 0.62781 0.0
H5960 H 0.59284 0.96597 0.62406 0.0
H5961 H 0.61263 0.93918 0.63203 0.0
H5962 H 0.5922 0.94899 0.64698 0.0
O5963 O 0.6133 0.95839 0.63848 0.0
H5964 H 0.6125 0.92626 0.64033 0.0
H5965 H 0.59237 0.93615 0.65555 0.0
C5966 C 0.60654 0.95438 0.62301 0.0
C5967 C 0.61201 0.96022 0.61932 0.0
C5968 C 0.61535 0.95876 0.61133 0.0
C5969 C 0.61322 0.95146 0.60684 0.0
C5970 C 0.60724 0.94591 0.61029 0.0
C5971 C 0.60388 0.9474 0.6183 0.0
C5972 C 0.59679 0.96329 0.63681 0.0
C5973 C 0.59627 0.96592 0.64521 0.0
C5974 C 0.59187 0.97321 0.64735 0.0
C5975 C 0.58797 0.97809 0.64111 0.0
C5976 C 0.58809 0.97519 0.63274 0.0
C5977 C 0.59249 0.96785 0.6306 0.0
C5978 C 0.60236 0.94505 0.63878 0.0
C5979 C 0.60792 0.93846 0.6369 0.0
C5980 C 0.60788 0.93109 0.64166 0.0
C5981 C 0.6024 0.93026 0.6485 0.0
C5982 C 0.59659 0.93667 0.65022 0.0
C5983 C 0.59653 0.94402 0.64534 0.0
P5984 P 0.29291 0.36886 0.88469 0.0
H5985 H 0.2927 0.36713 0.86667 0.0
H5986 H 0.30338 0.3627 0.85669 0.0
H5987 H 0.31843 0.35289 0.87708 0.0
H5988 H 0.30769 0.35758 0.88714 0.0
H5989 H 0.27818 0.37788 0.89001 0.0
H5990 H 0.2632 0.37515 0.88907 0.0
H5991 H 0.26829 0.35047 0.87888 0.0
H5992 H 0.2835 0.35341 0.87963 0.0
H5993 H 0.30972 0.37354 0.88988 0.0
H5994 H 0.28591 0.36879 0.90203 0.0
O5995 O 0.29285 0.37845 0.88044 0.0
H5996 H 0.31504 0.37988 0.90278 0.0
H5997 H 0.29119 0.3755 0.91489 0.0
C5998 C 0.29942 0.36279 0.87764 0.0
C5999 C 0.29816 0.36378 0.86899 0.0
C6000 C 0.30429 0.36119 0.86327 0.0
C6001 C 0.31178 0.3574 0.86606 0.0
C6002 C 0.31276 0.35585 0.87473 0.0
C6003 C 0.3066 0.35849 0.88048 0.0
C6004 C 0.28196 0.36586 0.88492 0.0
C6005 C 0.27611 0.37183 0.88765 0.0
C6006 C 0.26752 0.37025 0.88713 0.0
C6007 C 0.26451 0.3626 0.88387 0.0
C6008 C 0.27039 0.35648 0.8813 0.0
C6009 C 0.27908 0.35811 0.88181 0.0
C6010 C 0.29745 0.37054 0.89496 0.0
C6011 C 0.30575 0.37349 0.89541 0.0
C6012 C 0.30878 0.37719 0.90277 0.0
C6013 C 0.30352 0.37812 0.90978 0.0
C6014 C 0.29537 0.37473 0.90956 0.0
C6015 C 0.29237 0.37092 0.9022 0.0
P6016 P 0.39974 0.54873 0.63464 0.0
H6017 H 0.38665 0.54061 0.62478 0.0
H6018 H 0.381 0.5434 0.61085 0.0
H6019 H 0.40155 0.56051 0.60596 0.0
H6020 H 0.40701 0.55791 0.62017 0.0
H6021 H 0.40303 0.54025 0.65034 0.0
H6022 H 0.41098 0.52775 0.65403 0.0
H6023 H 0.42078 0.52651 0.6287 0.0
H6024 H 0.4125 0.53903 0.62496 0.0
H6025 H 0.39409 0.56556 0.63016 0.0
H6026 H 0.41032 0.55437 0.64883 0.0
O6027 O 0.39084 0.54616 0.63957 0.0
H6028 H 0.3945 0.57886 0.63777 0.0
H6029 H 0.41037 0.56764 0.65666 0.0
C6030 C 0.39712 0.54922 0.6236 0.0
C6031 C 0.39001 0.5449 0.6207 0.0
C6032 C 0.38678 0.54648 0.61269 0.0
C6033 C 0.39067 0.55236 0.60736 0.0
C6034 C 0.39823 0.55617 0.61002 0.0
C6035 C 0.40142 0.5546 0.61809 0.0
C6036 C 0.4071 0.54054 0.63737 0.0
C6037 C 0.40699 0.53739 0.6456 0.0
C6038 C 0.41159 0.53024 0.64771 0.0
C6039 C 0.41644 0.52603 0.64164 0.0
C6040 C 0.41695 0.52948 0.63348 0.0
C6041 C 0.41228 0.53668 0.63135 0.0
C6042 C 0.40234 0.55896 0.63877 0.0
C6043 C 0.39804 0.56602 0.63568 0.0
C6044 C 0.39821 0.57363 0.64007 0.0
C6045 C 0.40251 0.57423 0.64774 0.0
C6046 C 0.40709 0.5673 0.6507 0.0
C6047 C 0.40706 0.55972 0.64621 0.0
P6048 P 0.79229 0.13534 0.11825 0.0
H6049 H 0.79461 0.1339 0.13623 0.0
H6050 H 0.80582 0.13846 0.14553 0.0
H6051 H 0.81621 0.15372 0.12557 0.0
H6052 H 0.80508 0.14873 0.1161 0.0
H6053 H 0.77778 0.12961 0.10891 0.0
H6054 H 0.7628 0.13197 0.11051 0.0
H6055 H 0.7677 0.15021 0.13001 0.0
H6056 H 0.7829 0.1482 0.12798 0.0
H6057 H 0.80908 0.12997 0.11404 0.0
H6058 H 0.78681 0.13728 0.10033 0.0
O6059 O 0.79155 0.12559 0.12205 0.0
H6060 H 0.81508 0.12412 0.1012 0.0
H6061 H 0.79264 0.13086 0.08756 0.0
C6062 C 0.79911 0.14083 0.12544 0.0
C6063 C 0.79921 0.13832 0.13387 0.0
C6064 C 0.80564 0.14097 0.13921 0.0
C6065 C 0.81205 0.14631 0.13626 0.0
C6066 C 0.81154 0.14939 0.12796 0.0
C6067 C 0.80511 0.14664 0.12258 0.0
C6068 C 0.78153 0.13898 0.11804 0.0
C6069 C 0.77571 0.13449 0.11319 0.0
C6070 C 0.76711 0.1357 0.11425 0.0
C6071 C 0.76405 0.14124 0.12042 0.0
C6072 C 0.76986 0.14599 0.12512 0.0
C6073 C 0.77855 0.14485 0.12395 0.0
C6074 C 0.79742 0.13394 0.10823 0.0
C6075 C 0.80557 0.13055 0.10823 0.0
C6076 C 0.80899 0.12717 0.1009 0.0
C6077 C 0.80426 0.12699 0.09347 0.0
C6078 C 0.79636 0.13091 0.09327 0.0
C6079 C 0.793 0.13449 0.1006 0.0
P6080 P 0.60382 0.0491 0.87069 0.0
H6081 H 0.61385 0.03855 0.8817 0.0
H6082 H 0.61959 0.04093 0.89572 0.0
H6083 H 0.60389 0.06292 0.89843 0.0
H6084 H 0.59811 0.06048 0.88432 0.0
H6085 H 0.60078 0.04171 0.85443 0.0
H6086 H 0.59358 0.02893 0.85002 0.0
H6087 H 0.58387 0.02562 0.87513 0.0
H6088 H 0.59115 0.03858 0.8796 0.0
H6089 H 0.61101 0.06531 0.87481 0.0
H6090 H 0.59353 0.05557 0.85647 0.0
O6091 O 0.61299 0.04618 0.86651 0.0
H6092 H 0.61164 0.07852 0.86727 0.0
H6093 H 0.59466 0.0687 0.8485 0.0
C6094 C 0.60571 0.04945 0.88189 0.0
C6095 C 0.61145 0.04376 0.88539 0.0
C6096 C 0.61473 0.04512 0.89343 0.0
C6097 C 0.61225 0.05217 0.89814 0.0
C6098 C 0.60599 0.0575 0.89488 0.0
C6099 C 0.60265 0.05608 0.88685 0.0
C6100 C 0.59649 0.04112 0.86733 0.0
C6101 C 0.59687 0.03843 0.85895 0.0
C6102 C 0.59279 0.0311 0.85643 0.0
C6103 C 0.58821 0.0263 0.86224 0.0
C6104 C 0.58732 0.02927 0.87053 0.0
C6105 C 0.59147 0.03665 0.87308 0.0
C6106 C 0.60207 0.05945 0.86636 0.0
C6107 C 0.60704 0.06609 0.86934 0.0
C6108 C 0.60752 0.07363 0.86493 0.0
C6109 C 0.60328 0.07462 0.85725 0.0
C6110 C 0.59793 0.06815 0.85445 0.0
C6111 C 0.59733 0.06061 0.85899 0.0
P6112 P 0.89969 0.95512 0.36984 0.0
H6113 H 0.88875 0.96485 0.38079 0.0
H6114 H 0.88298 0.962 0.39473 0.0
H6115 H 0.90007 0.94106 0.39747 0.0
H6116 H 0.90575 0.9439 0.38341 0.0
H6117 H 0.90327 0.96289 0.35385 0.0
H6118 H 0.91121 0.97531 0.34979 0.0
H6119 H 0.92004 0.97806 0.37533 0.0
H6120 H 0.9119 0.96554 0.37942 0.0
H6121 H 0.89259 0.93868 0.37315 0.0
H6122 H 0.91115 0.94915 0.35632 0.0
O6123 O 0.89062 0.95793 0.36538 0.0
H6124 H 0.89312 0.92543 0.36553 0.0
H6125 H 0.91143 0.9359 0.34844 0.0
C6126 C 0.8975 0.95445 0.38097 0.0
C6127 C 0.89137 0.95974 0.38444 0.0
C6128 C 0.88807 0.9581 0.39242 0.0
C6129 C 0.89088 0.95114 0.39709 0.0
C6130 C 0.89758 0.9463 0.3939 0.0
C6131 C 0.9009 0.94797 0.38591 0.0
C6132 C 0.90704 0.96325 0.36692 0.0
C6133 C 0.9071 0.96601 0.35855 0.0
C6134 C 0.91169 0.97311 0.35622 0.0
C6135 C 0.91636 0.97762 0.36221 0.0
C6136 C 0.91653 0.97468 0.37057 0.0
C6137 C 0.91191 0.96752 0.37291 0.0
C6138 C 0.90195 0.9449 0.36545 0.0
C6139 C 0.89701 0.93806 0.368 0.0
C6140 C 0.89728 0.93048 0.36361 0.0
C6141 C 0.90231 0.92966 0.3564 0.0
C6142 C 0.90749 0.9364 0.35398 0.0
C6143 C 0.90733 0.94397 0.3585 0.0
P6144 P 0.39195 0.29326 0.1482 0.0
H6145 H 0.37886 0.29773 0.16027 0.0
H6146 H 0.36735 0.30803 0.15997 0.0
H6147 H 0.37438 0.31507 0.13471 0.0
H6148 H 0.38576 0.30472 0.13498 0.0
H6149 H 0.40077 0.27756 0.15112 0.0
H6150 H 0.39686 0.26278 0.14947 0.0
H6151 H 0.37198 0.27033 0.14155 0.0
H6152 H 0.37607 0.28511 0.14288 0.0
H6153 H 0.4018 0.30846 0.14611 0.0
H6154 H 0.39931 0.28462 0.13341 0.0
O6155 O 0.39634 0.29428 0.15766 0.0
H6156 H 0.41159 0.31324 0.13528 0.0
H6157 H 0.4095 0.28915 0.12285 0.0
C6158 C 0.38322 0.30052 0.1477 0.0
C6159 C 0.3779 0.30147 0.15466 0.0
C6160 C 0.37134 0.30734 0.15449 0.0
C6161 C 0.37002 0.31236 0.14733 0.0
C6162 C 0.37533 0.31135 0.14034 0.0
C6163 C 0.38182 0.30541 0.14049 0.0
C6164 C 0.38874 0.28243 0.1471 0.0
C6165 C 0.39448 0.27602 0.14901 0.0
C6166 C 0.39221 0.26758 0.14812 0.0
C6167 C 0.38413 0.26535 0.14529 0.0
C6168 C 0.37832 0.27181 0.14354 0.0
C6169 C 0.38063 0.28028 0.14436 0.0
C6170 C 0.39978 0.29622 0.14055 0.0
C6171 C 0.40347 0.3042 0.14105 0.0
C6172 C 0.40911 0.30691 0.13488 0.0
C6173 C 0.41124 0.30163 0.12811 0.0
C6174 C 0.40781 0.29347 0.12783 0.0
C6175 C 0.40204 0.29083 0.13394 0.0
P6176 P 0.44994 0.62698 0.91355 0.0
H6177 H 0.45084 0.60867 0.91446 0.0
H6178 H 0.44989 0.59761 0.90388 0.0
H6179 H 0.44918 0.61639 0.88428 0.0
H6180 H 0.44998 0.62746 0.89489 0.0
H6181 H 0.45749 0.63359 0.92882 0.0
H6182 H 0.4714 0.63917 0.93209 0.0
H6183 H 0.4785 0.63666 0.90598 0.0
H6184 H 0.46461 0.63076 0.9028 0.0
H6185 H 0.43328 0.63056 0.92045 0.0
H6186 H 0.44941 0.64077 0.90117 0.0
O6187 O 0.44693 0.62231 0.92246 0.0
H6188 H 0.42213 0.64016 0.91629 0.0
H6189 H 0.43794 0.64983 0.89639 0.0
C6190 C 0.45027 0.61894 0.90552 0.0
C6191 C 0.4505 0.61045 0.90789 0.0
C6192 C 0.45 0.60411 0.90183 0.0
C6193 C 0.44931 0.60613 0.89325 0.0
C6194 C 0.44948 0.61464 0.89085 0.0
C6195 C 0.44997 0.62099 0.89694 0.0
C6196 C 0.46006 0.63164 0.91559 0.0
C6197 C 0.46203 0.63424 0.92379 0.0
C6198 C 0.46997 0.63751 0.92564 0.0
C6199 C 0.47605 0.63842 0.91928 0.0
C6200 C 0.47397 0.63597 0.91103 0.0
C6201 C 0.46603 0.63263 0.90919 0.0
C6202 C 0.44214 0.63481 0.91101 0.0
C6203 C 0.43442 0.63483 0.91527 0.0
C6204 C 0.42798 0.64026 0.9128 0.0
C6205 C 0.429 0.64556 0.90579 0.0
C6206 C 0.4369 0.6458 0.90178 0.0
C6207 C 0.44344 0.64054 0.90444 0.0
P6208 P 0.11209 0.71089 0.64851 0.0
H6209 H 0.12556 0.70617 0.66011 0.0
H6210 H 0.13705 0.69594 0.6592 0.0
H6211 H 0.12903 0.68932 0.63408 0.0
H6212 H 0.11789 0.69981 0.63488 0.0
H6213 H 0.10615 0.72655 0.65594 0.0
H6214 H 0.10999 0.7413 0.65386 0.0
H6215 H 0.1289 0.73379 0.63586 0.0
H6216 H 0.12491 0.71901 0.63787 0.0
H6217 H 0.10095 0.69651 0.64828 0.0
H6218 H 0.10563 0.71815 0.6326 0.0
O6219 O 0.10819 0.7099 0.6582 0.0
H6220 H 0.09096 0.69112 0.6379 0.0
H6221 H 0.09563 0.71274 0.62217 0.0
C6222 C 0.12081 0.70369 0.64761 0.0
C6223 C 0.12631 0.70253 0.6544 0.0
C6224 C 0.13281 0.69659 0.65391 0.0
C6225 C 0.13387 0.69168 0.64662 0.0
C6226 C 0.1284 0.69299 0.63979 0.0
C6227 C 0.12199 0.69898 0.64025 0.0
C6228 C 0.1153 0.72169 0.64711 0.0
C6229 C 0.11116 0.72807 0.65158 0.0
C6230 C 0.11339 0.73649 0.65042 0.0
C6231 C 0.11973 0.73872 0.64467 0.0
C6232 C 0.12391 0.73229 0.64024 0.0
C6233 C 0.12168 0.72384 0.64142 0.0
C6234 C 0.10395 0.70777 0.64126 0.0
C6235 C 0.0997 0.70018 0.64268 0.0
C6236 C 0.09402 0.69709 0.63674 0.0
C6237 C 0.09248 0.70154 0.62926 0.0
C6238 C 0.09658 0.70927 0.62795 0.0
C6239 C 0.10232 0.71234 0.63389 0.0
P6240 P 0.05436 0.37724 0.41311 0.0
H6241 H 0.05087 0.39526 0.41372 0.0
H6242 H 0.05179 0.40638 0.40312 0.0
H6243 H 0.05705 0.38776 0.38406 0.0
H6244 H 0.05619 0.37665 0.39472 0.0
H6245 H 0.04637 0.37202 0.42879 0.0
H6246 H 0.03247 0.36638 0.43209 0.0
H6247 H 0.02636 0.36611 0.40561 0.0
H6248 H 0.04025 0.37199 0.40237 0.0
H6249 H 0.07176 0.37956 0.40856 0.0
H6250 H 0.05465 0.35867 0.41114 0.0
O6251 O 0.05773 0.38196 0.42186 0.0
H6252 H 0.08287 0.36999 0.40406 0.0
H6253 H 0.06588 0.34896 0.40682 0.0
C6254 C 0.05364 0.38516 0.40504 0.0
C6255 C 0.05214 0.39356 0.40725 0.0
C6256 C 0.05264 0.3999 0.40119 0.0
C6257 C 0.05465 0.39795 0.3928 0.0
C6258 C 0.05569 0.38947 0.39052 0.0
C6259 C 0.05515 0.38312 0.39659 0.0
C6260 C 0.04429 0.37253 0.41534 0.0
C6261 C 0.04205 0.37074 0.42368 0.0
C6262 C 0.03412 0.36744 0.42556 0.0
C6263 C 0.02832 0.36575 0.41911 0.0
C6264 C 0.03067 0.36741 0.41073 0.0
C6265 C 0.0386 0.37074 0.40886 0.0
C6266 C 0.06239 0.36983 0.41015 0.0
C6267 C 0.07043 0.37288 0.40825 0.0
C6268 C 0.07681 0.36739 0.40576 0.0
C6269 C 0.07529 0.3587 0.40523 0.0
C6270 C 0.06722 0.35563 0.4072 0.0
C6271 C 0.06081 0.36117 0.40967 0.0
P6272 P 0.39215 0.7107 0.3562 0.0
H6273 H 0.38305 0.70081 0.34358 0.0
H6274 H 0.37154 0.69062 0.3446 0.0
H6275 H 0.37044 0.69457 0.37142 0.0
H6276 H 0.38209 0.70463 0.37043 0.0
H6277 H 0.39571 0.72564 0.34617 0.0
H6278 H 0.3919 0.74041 0.34755 0.0
H6279 H 0.37816 0.73473 0.37029 0.0
H6280 H 0.38174 0.71983 0.36869 0.0
H6281 H 0.40465 0.6975 0.35558 0.0
H6282 H 0.39683 0.71645 0.37335 0.0
O6283 O 0.3964 0.70958 0.34666 0.0
H6284 H 0.4147 0.69201 0.36581 0.0
H6285 H 0.40674 0.7108 0.38372 0.0
C6286 C 0.38338 0.70355 0.35693 0.0
C6287 C 0.38035 0.69951 0.34969 0.0
C6288 C 0.3738 0.69365 0.35026 0.0
C6289 C 0.37011 0.69186 0.35807 0.0
C6290 C 0.37314 0.69592 0.36531 0.0
C6291 C 0.37976 0.70169 0.36475 0.0
C6292 C 0.389 0.72158 0.35731 0.0
C6293 C 0.39179 0.72751 0.35141 0.0
C6294 C 0.38963 0.73599 0.35222 0.0
C6295 C 0.38468 0.73876 0.359 0.0
C6296 C 0.38182 0.73279 0.36489 0.0
C6297 C 0.38394 0.72427 0.36402 0.0
C6298 C 0.40004 0.70743 0.36366 0.0
C6299 C 0.40515 0.70054 0.36166 0.0
C6300 C 0.41085 0.69735 0.36753 0.0
C6301 C 0.41142 0.7009 0.37561 0.0
C6302 C 0.40645 0.70796 0.37754 0.0
C6303 C 0.40076 0.71118 0.37162 0.0
P6304 P 0.05391 0.6271 0.09034 0.0
H6305 H 0.05287 0.60879 0.0895 0.0
H6306 H 0.05389 0.59776 0.10012 0.0
H6307 H 0.05514 0.61663 0.11961 0.0
H6308 H 0.05432 0.62767 0.10894 0.0
H6309 H 0.04573 0.63347 0.07524 0.0
H6310 H 0.03167 0.63906 0.07249 0.0
H6311 H 0.02582 0.6372 0.09895 0.0
H6312 H 0.03983 0.63138 0.10164 0.0
H6313 H 0.07101 0.62961 0.08419 0.0
H6314 H 0.05436 0.64143 0.10205 0.0
O6315 O 0.0567 0.62246 0.08134 0.0
H6316 H 0.08237 0.63892 0.08852 0.0
H6317 H 0.06592 0.65039 0.10688 0.0
C6318 C 0.0537 0.61908 0.09838 0.0
C6319 C 0.05336 0.61058 0.09605 0.0
C6320 C 0.05389 0.60427 0.10214 0.0
C6321 C 0.05473 0.60633 0.1107 0.0
C6322 C 0.05472 0.61485 0.11305 0.0
C6323 C 0.0542 0.62117 0.10694 0.0
C6324 C 0.04375 0.63183 0.08862 0.0
C6325 C 0.04141 0.63423 0.08046 0.0
C6326 C 0.03339 0.63747 0.07888 0.0
C6327 C 0.02758 0.6384 0.08547 0.0
C6328 C 0.03008 0.63631 0.09371 0.0
C6329 C 0.0381 0.63304 0.09527 0.0
C6330 C 0.06184 0.63479 0.09283 0.0
C6331 C 0.06978 0.63423 0.08903 0.0
C6332 C 0.07632 0.6395 0.09159 0.0
C6333 C 0.07513 0.64524 0.09821 0.0
C6334 C 0.06705 0.64603 0.10176 0.0
C6335 C 0.06045 0.64087 0.09906 0.0
P6336 P 0.11138 0.29392 0.85625 0.0
H6337 H 0.11995 0.30435 0.84367 0.0
H6338 H 0.13094 0.31504 0.84472 0.0
H6339 H 0.13308 0.31006 0.87136 0.0
H6340 H 0.12166 0.29987 0.87036 0.0
H6341 H 0.10802 0.27868 0.84653 0.0
H6342 H 0.11173 0.26393 0.84855 0.0
H6343 H 0.12511 0.27049 0.87127 0.0
H6344 H 0.12169 0.28526 0.86901 0.0
H6345 H 0.10207 0.30935 0.85859 0.0
H6346 H 0.10353 0.28514 0.87074 0.0
O6347 O 0.10694 0.29492 0.8468 0.0
H6348 H 0.09193 0.31405 0.86912 0.0
H6349 H 0.09326 0.28975 0.88121 0.0
C6350 C 0.12002 0.30125 0.85693 0.0
C6351 C 0.12276 0.30557 0.84974 0.0
C6352 C 0.12907 0.31168 0.85035 0.0
C6353 C 0.13281 0.31353 0.85815 0.0
C6354 C 0.13017 0.30901 0.8653 0.0
C6355 C 0.12376 0.30302 0.86471 0.0
C6356 C 0.11471 0.28313 0.85753 0.0
C6357 C 0.1119 0.27698 0.85186 0.0
C6358 C 0.11397 0.26852 0.85306 0.0
C6359 C 0.11882 0.26601 0.86001 0.0
C6360 C 0.1216 0.27221 0.8657 0.0
C6361 C 0.1196 0.28068 0.86444 0.0
C6362 C 0.10359 0.29693 0.8639 0.0
C6363 C 0.10012 0.30501 0.86347 0.0
C6364 C 0.09425 0.30765 0.86944 0.0
C6365 C 0.09168 0.30222 0.87593 0.0
C6366 C 0.09511 0.29407 0.87628 0.0
C6367 C 0.101 0.29143 0.87029 0.0
P6368 P 0.44984 0.37725 0.59052 0.0
H6369 H 0.45104 0.39551 0.58895 0.0
H6370 H 0.45015 0.40692 0.5992 0.0
H6371 H 0.44836 0.38871 0.61929 0.0
H6372 H 0.44942 0.3773 0.60898 0.0
H6373 H 0.45688 0.36815 0.57628 0.0
H6374 H 0.47074 0.36195 0.57357 0.0
H6375 H 0.47898 0.36982 0.59822 0.0
H6376 H 0.46511 0.37588 0.60094 0.0
H6377 H 0.4322 0.3794 0.59422 0.0
H6378 H 0.44997 0.35891 0.59389 0.0
O6379 O 0.44668 0.38137 0.5814 0.0
H6380 H 0.42116 0.36983 0.59893 0.0
H6381 H 0.43885 0.34921 0.59842 0.0
C6382 C 0.45021 0.38557 0.5982 0.0
C6383 C 0.45056 0.39397 0.59556 0.0
C6384 C 0.45002 0.40048 0.60143 0.0
C6385 C 0.44917 0.39872 0.61005 0.0
C6386 C 0.44913 0.39028 0.61271 0.0
C6387 C 0.44967 0.38376 0.60682 0.0
C6388 C 0.45999 0.37252 0.58878 0.0
C6389 C 0.46167 0.36852 0.5811 0.0
C6390 C 0.46959 0.36502 0.57954 0.0
C6391 C 0.47591 0.36537 0.58569 0.0
C6392 C 0.47418 0.36934 0.59341 0.0
C6393 C 0.46626 0.37285 0.59496 0.0
C6394 C 0.44188 0.36987 0.59371 0.0
C6395 C 0.43369 0.37281 0.59507 0.0
C6396 C 0.42737 0.36731 0.59767 0.0
C6397 C 0.42911 0.35873 0.5989 0.0
C6398 C 0.43734 0.35578 0.5975 0.0
C6399 C 0.44369 0.36132 0.5949 0.0
P6400 P 0.14829 0.39185 0.29324 0.0
H6401 H 0.16099 0.38163 0.30182 0.0
H6402 H 0.16001 0.37024 0.31214 0.0
H6403 H 0.13291 0.37134 0.31071 0.0
H6404 H 0.13392 0.38273 0.30037 0.0
H6405 H 0.15417 0.39978 0.27793 0.0
H6406 H 0.15274 0.39635 0.26303 0.0
H6407 H 0.13804 0.37445 0.2695 0.0
H6408 H 0.13967 0.37782 0.28448 0.0
H6409 H 0.14867 0.40436 0.30649 0.0
H6410 H 0.13128 0.39638 0.28728 0.0
O6411 O 0.15785 0.39605 0.29434 0.0
H6412 H 0.13831 0.41442 0.31176 0.0
H6413 H 0.1208 0.40638 0.29263 0.0
C6414 C 0.14752 0.38306 0.30036 0.0
C6415 C 0.15483 0.37943 0.30372 0.0
C6416 C 0.15427 0.37297 0.30967 0.0
C6417 C 0.14638 0.36999 0.31231 0.0
C6418 C 0.13907 0.37353 0.3088 0.0
C6419 C 0.13964 0.38002 0.30289 0.0
C6420 C 0.14713 0.38901 0.28232 0.0
C6421 C 0.15071 0.39419 0.27616 0.0
C6422 C 0.14987 0.39223 0.26764 0.0
C6423 C 0.14536 0.38508 0.26508 0.0
C6424 C 0.14173 0.37989 0.27128 0.0
C6425 C 0.14259 0.38186 0.27984 0.0
C6426 C 0.1408 0.39973 0.29641 0.0
C6427 C 0.14267 0.40487 0.30332 0.0
C6428 C 0.13674 0.4106 0.30634 0.0
C6429 C 0.12878 0.41125 0.30256 0.0
C6430 C 0.12694 0.40616 0.29555 0.0
C6431 C 0.13291 0.40041 0.29252 0.0
P6432 P 0.3774 0.41399 0.05453 0.0
H6433 H 0.39566 0.41532 0.05341 0.0
H6434 H 0.40698 0.405 0.05413 0.0
H6435 H 0.3887 0.38497 0.0554 0.0
H6436 H 0.37735 0.39533 0.0548 0.0
H6437 H 0.36953 0.42884 0.04738 0.0
H6438 H 0.36383 0.43207 0.0335 0.0
H6439 H 0.36875 0.40654 0.02561 0.0
H6440 H 0.37475 0.40344 0.03946 0.0
H6441 H 0.3739 0.4206 0.07132 0.0
H6442 H 0.36375 0.40148 0.05498 0.0
O6443 O 0.38186 0.42302 0.05751 0.0
H6444 H 0.36434 0.41625 0.08245 0.0
H6445 H 0.35468 0.39655 0.0664 0.0
C6446 C 0.38562 0.40615 0.05419 0.0
C6447 C 0.39405 0.40871 0.05379 0.0
C6448 C 0.40054 0.4028 0.05413 0.0
C6449 C 0.39873 0.39417 0.05477 0.0
C6450 C 0.39028 0.39158 0.05496 0.0
C6451 C 0.38378 0.39752 0.05461 0.0
C6452 C 0.37265 0.41594 0.04442 0.0
C6453 C 0.36937 0.42393 0.04267 0.0
C6454 C 0.36604 0.42575 0.03474 0.0
C6455 C 0.36577 0.41955 0.02845 0.0
C6456 C 0.36893 0.41148 0.0303 0.0
C6457 C 0.37232 0.40968 0.03823 0.0
C6458 C 0.36964 0.41127 0.06235 0.0
C6459 C 0.36964 0.41543 0.07012 0.0
C6460 C 0.36423 0.41285 0.07655 0.0
C6461 C 0.35893 0.40586 0.07544 0.0
C6462 C 0.3587 0.40194 0.0675 0.0
C6463 C 0.36395 0.40469 0.06098 0.0
P6464 P 0.35619 0.61245 0.79333 0.0
H6465 H 0.34438 0.62571 0.7981 0.0
H6466 H 0.34521 0.63731 0.8082 0.0
H6467 H 0.37076 0.63015 0.81414 0.0
H6468 H 0.37007 0.61902 0.80366 0.0
H6469 H 0.35026 0.60421 0.77817 0.0
H6470 H 0.35177 0.60732 0.76319 0.0
H6471 H 0.36584 0.62973 0.76924 0.0
H6472 H 0.36425 0.62661 0.78431 0.0
H6473 H 0.35962 0.60449 0.80936 0.0
H6474 H 0.36915 0.60275 0.78402 0.0
O6475 O 0.34664 0.60834 0.79479 0.0
H6476 H 0.37021 0.59446 0.81408 0.0
H6477 H 0.37941 0.59227 0.78858 0.0
C6478 C 0.3571 0.62141 0.80023 0.0
C6479 C 0.35017 0.6267 0.80155 0.0
C6480 C 0.35061 0.63325 0.80742 0.0
C6481 C 0.35799 0.63456 0.81216 0.0
C6482 C 0.36498 0.62934 0.81063 0.0
C6483 C 0.36457 0.62292 0.80466 0.0
C6484 C 0.35708 0.61521 0.78235 0.0
C6485 C 0.3536 0.60984 0.77629 0.0
C6486 C 0.35451 0.61159 0.76773 0.0
C6487 C 0.35897 0.61873 0.76505 0.0
C6488 C 0.36233 0.62421 0.77114 0.0
C6489 C 0.36145 0.62242 0.77974 0.0
C6490 C 0.3637 0.60451 0.79639 0.0
C6491 C 0.36395 0.60187 0.80479 0.0
C6492 C 0.36997 0.59607 0.80747 0.0
C6493 C 0.37579 0.59265 0.80175 0.0
C6494 C 0.37523 0.59499 0.79322 0.0
C6495 C 0.36929 0.60094 0.79058 0.0
P6496 P 0.12691 0.59086 0.55434 0.0
H6497 H 0.1091 0.58979 0.55013 0.0
H6498 H 0.09757 0.59992 0.55102 0.0
H6499 H 0.11515 0.6193 0.55834 0.0
H6500 H 0.12672 0.60918 0.55715 0.0
H6501 H 0.13404 0.57578 0.54673 0.0
H6502 H 0.14033 0.57294 0.53295 0.0
H6503 H 0.13668 0.59894 0.52601 0.0
H6504 H 0.13048 0.60176 0.53984 0.0
H6505 H 0.12462 0.59485 0.5719 0.0
H6506 H 0.14539 0.59346 0.5545 0.0
O6507 O 0.12248 0.58189 0.55751 0.0
H6508 H 0.13417 0.59938 0.58302 0.0
H6509 H 0.15507 0.59779 0.56572 0.0
C6510 C 0.11872 0.59868 0.55377 0.0
C6511 C 0.11049 0.59624 0.55184 0.0
C6512 C 0.1039 0.60202 0.55243 0.0
C6513 C 0.10542 0.61035 0.555 0.0
C6514 C 0.11377 0.61291 0.55641 0.0
C6515 C 0.12038 0.60712 0.55577 0.0
C6516 C 0.13171 0.58896 0.54425 0.0
C6517 C 0.13459 0.58087 0.54224 0.0
C6518 C 0.13817 0.57924 0.53436 0.0
C6519 C 0.13903 0.58572 0.52842 0.0
C6520 C 0.1362 0.59385 0.53051 0.0
C6521 C 0.13262 0.59546 0.53838 0.0
C6522 C 0.13429 0.59386 0.56239 0.0
C6523 C 0.13127 0.59543 0.57051 0.0
C6524 C 0.13675 0.59793 0.57688 0.0
C6525 C 0.1454 0.59881 0.57528 0.0
C6526 C 0.14843 0.59715 0.56713 0.0
C6527 C 0.14291 0.59467 0.56072 0.0
P6528 P 0.14797 0.61148 0.21011 0.0
H6529 H 0.15985 0.62492 0.20613 0.0
H6530 H 0.1596 0.6364 0.19578 0.0
H6531 H 0.13464 0.62894 0.18819 0.0
H6532 H 0.13481 0.61763 0.19861 0.0
H6533 H 0.15186 0.60283 0.22565 0.0
H6534 H 0.14946 0.60616 0.24046 0.0
H6535 H 0.138 0.62973 0.23327 0.0
H6536 H 0.14024 0.62623 0.2184 0.0
H6537 H 0.14684 0.60177 0.19476 0.0
H6538 H 0.13287 0.60384 0.21795 0.0
O6539 O 0.15759 0.60739 0.20933 0.0
H6540 H 0.13627 0.59201 0.18927 0.0
H6541 H 0.12235 0.59398 0.21248 0.0
C6542 C 0.14742 0.62034 0.20305 0.0
C6543 C 0.15431 0.62579 0.20227 0.0
C6544 C 0.15417 0.63232 0.19636 0.0
C6545 C 0.14716 0.63343 0.19111 0.0
C6546 C 0.14019 0.62809 0.19205 0.0
C6547 C 0.14028 0.62165 0.19803 0.0
C6548 C 0.14631 0.61432 0.22095 0.0
C6549 C 0.14885 0.60872 0.22726 0.0
C6550 C 0.14748 0.61064 0.23572 0.0
C6551 C 0.1435 0.61818 0.23803 0.0
C6552 C 0.14095 0.6238 0.23168 0.0
C6553 C 0.1423 0.62185 0.22318 0.0
C6554 C 0.14064 0.60353 0.20674 0.0
C6555 C 0.14158 0.60001 0.19872 0.0
C6556 C 0.13556 0.59446 0.19559 0.0
C6557 C 0.12852 0.59229 0.20047 0.0
C6558 C 0.12776 0.59553 0.20865 0.0
C6559 C 0.13376 0.60118 0.21175 0.0
P6560 P 0.12704 0.41347 0.94996 0.0
H6561 H 0.1095 0.41365 0.95535 0.0
H6562 H 0.0981 0.40328 0.95437 0.0
H6563 H 0.11546 0.38519 0.94402 0.0
H6564 H 0.12679 0.39543 0.94501 0.0
H6565 H 0.13772 0.42688 0.95626 0.0
H6566 H 0.14317 0.43028 0.97027 0.0
H6567 H 0.13208 0.40748 0.98002 0.0
H6568 H 0.1265 0.40421 0.96605 0.0
H6569 H 0.13105 0.42098 0.93363 0.0
H6570 H 0.14063 0.40098 0.94922 0.0
O6571 O 0.1223 0.42241 0.94718 0.0
H6572 H 0.14073 0.41702 0.92247 0.0
H6573 H 0.1497 0.39634 0.93771 0.0
C6574 C 0.119 0.40542 0.95012 0.0
C6575 C 0.11088 0.40743 0.95294 0.0
C6576 C 0.10439 0.40151 0.95242 0.0
C6577 C 0.10593 0.39349 0.94905 0.0
C6578 C 0.11412 0.39137 0.94655 0.0
C6579 C 0.12062 0.39727 0.94713 0.0
C6580 C 0.13165 0.41534 0.96014 0.0
C6581 C 0.13648 0.42261 0.96142 0.0
C6582 C 0.13959 0.42455 0.96942 0.0
C6583 C 0.13791 0.41924 0.97629 0.0
C6584 C 0.13327 0.41182 0.97491 0.0
C6585 C 0.13015 0.4099 0.9669 0.0
C6586 C 0.135 0.41117 0.94221 0.0
C6587 C 0.13521 0.41569 0.93464 0.0
C6588 C 0.14066 0.41331 0.92818 0.0
C6589 C 0.14577 0.40612 0.92901 0.0
C6590 C 0.14585 0.40188 0.93679 0.0
C6591 C 0.14061 0.40448 0.94337 0.0
P6592 P 0.35599 0.39209 0.71071 0.0
H6593 H 0.34334 0.3805 0.704 0.0
H6594 H 0.34413 0.3689 0.69391 0.0
H6595 H 0.371 0.37258 0.69193 0.0
H6596 H 0.3702 0.38383 0.70234 0.0
H6597 H 0.34936 0.39965 0.72597 0.0
H6598 H 0.3507 0.3962 0.74089 0.0
H6599 H 0.36634 0.37492 0.73454 0.0
H6600 H 0.36488 0.37836 0.71955 0.0
H6601 H 0.3609 0.39839 0.69431 0.0
H6602 H 0.36771 0.40309 0.72014 0.0
O6603 O 0.34655 0.39647 0.70932 0.0
H6604 H 0.37148 0.40843 0.68963 0.0
H6605 H 0.378 0.41356 0.71552 0.0
C6606 C 0.35669 0.38311 0.70381 0.0
C6607 C 0.3494 0.37877 0.70142 0.0
C6608 C 0.34985 0.37221 0.69556 0.0
C6609 C 0.35761 0.36992 0.69195 0.0
C6610 C 0.36492 0.37417 0.69457 0.0
C6611 C 0.36447 0.38064 0.7005 0.0
C6612 C 0.35692 0.3892 0.72165 0.0
C6613 C 0.353 0.39418 0.72777 0.0
C6614 C 0.35379 0.39222 0.7363 0.0
C6615 C 0.35854 0.38523 0.73889 0.0
C6616 C 0.36248 0.38023 0.73273 0.0
C6617 C 0.3617 0.38222 0.72417 0.0
C6618 C 0.36369 0.39979 0.70755 0.0
C6619 C 0.36468 0.4016 0.69898 0.0
C6620 C 0.37067 0.40743 0.69632 0.0
C6621 C 0.37571 0.41172 0.70219 0.0
C6622 C 0.37443 0.41017 0.71082 0.0
C6623 C 0.3685 0.40422 0.71347 0.0
P6624 P 0.37725 0.59034 0.45 0.0
H6625 H 0.3954 0.58978 0.45267 0.0
H6626 H 0.40647 0.6004 0.45164 0.0
H6627 H 0.38771 0.61947 0.44695 0.0
H6628 H 0.37667 0.60882 0.44787 0.0
H6629 H 0.36745 0.57643 0.45661 0.0
H6630 H 0.36143 0.57342 0.47047 0.0
H6631 H 0.37084 0.59721 0.47962 0.0
H6632 H 0.37671 0.60024 0.4657 0.0
H6633 H 0.3748 0.58476 0.43269 0.0
H6634 H 0.36259 0.60157 0.45011 0.0
O6635 O 0.38189 0.58138 0.44714 0.0
H6636 H 0.3651 0.58906 0.42163 0.0
H6637 H 0.35321 0.60637 0.43892 0.0
C6638 C 0.38521 0.59844 0.45014 0.0
C6639 C 0.39365 0.59624 0.45144 0.0
C6640 C 0.39998 0.60233 0.45089 0.0
C6641 C 0.39797 0.61074 0.44906 0.0
C6642 C 0.38947 0.613 0.44815 0.0
C6643 C 0.38314 0.6069 0.44871 0.0
C6644 C 0.37259 0.58851 0.46016 0.0
C6645 C 0.36821 0.58099 0.46161 0.0
C6646 C 0.36485 0.57924 0.46955 0.0
C6647 C 0.36579 0.58502 0.47617 0.0
C6648 C 0.37004 0.59263 0.47463 0.0
C6649 C 0.3734 0.59437 0.46669 0.0
C6650 C 0.36937 0.5928 0.44224 0.0
C6651 C 0.36996 0.58931 0.43417 0.0
C6652 C 0.36443 0.59182 0.42782 0.0
C6653 C 0.35831 0.59803 0.42937 0.0
C6654 C 0.35765 0.60139 0.43754 0.0
C6655 C 0.36308 0.59874 0.44394 0.0
P6656 P 0.29319 0.14787 0.39193 0.0
H6657 H 0.29758 0.15994 0.37881 0.0
H6658 H 0.30783 0.15961 0.36725 0.0
H6659 H 0.31473 0.13427 0.37413 0.0
H6660 H 0.3044 0.13454 0.38553 0.0
H6661 H 0.27766 0.1522 0.40047 0.0
H6662 H 0.26283 0.15082 0.39673 0.0
H6663 H 0.2699 0.14 0.37283 0.0
H6664 H 0.28477 0.14115 0.37676 0.0
H6665 H 0.30871 0.14539 0.40115 0.0
H6666 H 0.28433 0.13355 0.39994 0.0
O6667 O 0.29437 0.15734 0.39629 0.0
H6668 H 0.31351 0.1346 0.41096 0.0
H6669 H 0.28892 0.12302 0.41015 0.0
C6670 C 0.3003 0.14732 0.3831 0.0
C6671 C 0.30127 0.1543 0.3778 0.0
C6672 C 0.30712 0.15411 0.37122 0.0
C6673 C 0.3121 0.14693 0.36987 0.0
C6674 C 0.31104 0.13992 0.37512 0.0
C6675 C 0.30512 0.14007 0.38162 0.0
C6676 C 0.28231 0.14688 0.38886 0.0
C6677 C 0.27602 0.14959 0.3944 0.0
C6678 C 0.26753 0.14887 0.39221 0.0
C6679 C 0.26516 0.14548 0.38439 0.0
C6680 C 0.27151 0.14269 0.37888 0.0
C6681 C 0.28002 0.14336 0.3811 0.0
C6682 C 0.29621 0.14023 0.39974 0.0
C6683 C 0.30435 0.14053 0.40309 0.0
C6684 C 0.30707 0.13438 0.40875 0.0
C6685 C 0.30165 0.12786 0.41126 0.0
C6686 C 0.29335 0.1278 0.40816 0.0
C6687 C 0.29068 0.13389 0.40238 0.0
P6688 P 0.79334 0.35577 0.61236 0.0
H6689 H 0.80511 0.3434 0.61928 0.0
H6690 H 0.81589 0.3442 0.63011 0.0
H6691 H 0.80851 0.3698 0.6355 0.0
H6692 H 0.79812 0.36913 0.62416 0.0
H6693 H 0.77805 0.35131 0.60358 0.0
H6694 H 0.7631 0.35304 0.60676 0.0
H6695 H 0.76944 0.36431 0.63061 0.0
H6696 H 0.78445 0.3625 0.62745 0.0
H6697 H 0.80867 0.35809 0.60281 0.0
H6698 H 0.78484 0.37081 0.60539 0.0
O6699 O 0.79439 0.34649 0.60759 0.0
H6700 H 0.81344 0.36893 0.59301 0.0
H6701 H 0.78944 0.38149 0.59532 0.0
C6702 C 0.80065 0.35614 0.62104 0.0
C6703 C 0.80574 0.34917 0.62283 0.0
C6704 C 0.81189 0.34961 0.62911 0.0
C6705 C 0.81297 0.357 0.63385 0.0
C6706 C 0.80786 0.364 0.63199 0.0
C6707 C 0.80183 0.3636 0.62559 0.0
C6708 C 0.78239 0.35674 0.61527 0.0
C6709 C 0.77625 0.35408 0.60953 0.0
C6710 C 0.76771 0.3551 0.61134 0.0
C6711 C 0.76514 0.35884 0.61891 0.0
C6712 C 0.77128 0.36137 0.62474 0.0
C6713 C 0.77986 0.36037 0.62291 0.0
C6714 C 0.79644 0.36367 0.60487 0.0
C6715 C 0.80444 0.36319 0.6012 0.0
C6716 C 0.80713 0.36935 0.59555 0.0
C6717 C 0.80186 0.37613 0.59345 0.0
C6718 C 0.79373 0.37646 0.59695 0.0
C6719 C 0.79107 0.37031 0.60267 0.0
P6720 P 0.41377 0.05441 0.37715 0.0
H6721 H 0.41448 0.0518 0.39531 0.0
H6722 H 0.40386 0.05279 0.4064 0.0
H6723 H 0.38469 0.05706 0.38765 0.0
H6724 H 0.39537 0.05621 0.37657 0.0
H6725 H 0.4289 0.04668 0.37024 0.0
H6726 H 0.43176 0.03282 0.36411 0.0
H6727 H 0.40578 0.02588 0.36792 0.0
H6728 H 0.40294 0.03976 0.37395 0.0
H6729 H 0.41441 0.07262 0.37727 0.0
H6730 H 0.40631 0.05316 0.36021 0.0
O6731 O 0.42267 0.0577 0.38165 0.0
H6732 H 0.40911 0.08335 0.36763 0.0
H6733 H 0.40124 0.06388 0.35038 0.0
C6734 C 0.40574 0.0541 0.38514 0.0
C6735 C 0.40799 0.05291 0.39358 0.0
C6736 C 0.40191 0.05345 0.39991 0.0
C6737 C 0.39347 0.05515 0.3979 0.0
C6738 C 0.39118 0.05595 0.3894 0.0
C6739 C 0.39727 0.05542 0.38306 0.0
C6740 C 0.41573 0.0442 0.37263 0.0
C6741 C 0.42382 0.04216 0.36977 0.0
C6742 C 0.42546 0.03425 0.36629 0.0
C6743 C 0.41899 0.02829 0.3655 0.0
C6744 C 0.41087 0.03039 0.36834 0.0
C6745 C 0.40924 0.0383 0.37184 0.0
C6746 C 0.41083 0.06212 0.36941 0.0
C6747 C 0.41164 0.07067 0.37136 0.0
C6748 C 0.40863 0.0768 0.36583 0.0
C6749 C 0.40468 0.07447 0.35828 0.0
C6750 C 0.4041 0.06587 0.35623 0.0
C6751 C 0.40708 0.05974 0.3618 0.0
P6752 P 0.71063 0.64798 0.11186 0.0
H6753 H 0.70169 0.66088 0.12162 0.0
H6754 H 0.69152 0.66001 0.1332 0.0
H6755 H 0.69359 0.63294 0.13291 0.0
H6756 H 0.70377 0.63384 0.12138 0.0
H6757 H 0.72639 0.65184 0.10343 0.0
H6758 H 0.74116 0.65008 0.10735 0.0
H6759 H 0.73349 0.63989 0.13134 0.0
H6760 H 0.71876 0.64135 0.12725 0.0
H6761 H 0.69414 0.64369 0.10543 0.0
H6762 H 0.71969 0.63558 0.1012 0.0
O6763 O 0.70971 0.65744 0.10743 0.0
H6764 H 0.68914 0.63338 0.09528 0.0
H6765 H 0.71474 0.62548 0.09068 0.0
C6766 C 0.70349 0.64742 0.12066 0.0
C6767 C 0.69998 0.65476 0.12407 0.0
C6768 C 0.69413 0.65427 0.13064 0.0
C6769 C 0.69181 0.64642 0.13396 0.0
C6770 C 0.69536 0.63908 0.13053 0.0
C6771 C 0.70116 0.63958 0.12395 0.0
C6772 C 0.72146 0.64669 0.11501 0.0
C6773 C 0.7279 0.6492 0.10952 0.0
C6774 C 0.73634 0.64824 0.1118 0.0
C6775 C 0.73853 0.64475 0.11963 0.0
C6776 C 0.73204 0.64239 0.12518 0.0
C6777 C 0.72359 0.64328 0.12286 0.0
C6778 C 0.70727 0.64035 0.10417 0.0
C6779 C 0.69869 0.63974 0.10226 0.0
C6780 C 0.69585 0.63391 0.09634 0.0
C6781 C 0.70156 0.62871 0.09204 0.0
C6782 C 0.71019 0.62941 0.09389 0.0
C6783 C 0.71302 0.6352 0.0999 0.0
P6784 P 0.59078 0.44946 0.37758 0.0
H6785 H 0.58919 0.44884 0.3959 0.0
H6786 H 0.59957 0.44771 0.4072 0.0
H6787 H 0.61964 0.44984 0.38907 0.0
H6788 H 0.60922 0.45076 0.37768 0.0
H6789 H 0.57586 0.45685 0.36992 0.0
H6790 H 0.57296 0.47065 0.36371 0.0
H6791 H 0.59853 0.47824 0.3688 0.0
H6792 H 0.60143 0.46443 0.3749 0.0
H6793 H 0.59548 0.43202 0.37957 0.0
H6794 H 0.59336 0.44971 0.35912 0.0
O6795 O 0.58171 0.44605 0.38162 0.0
H6796 H 0.60003 0.42113 0.36974 0.0
H6797 H 0.59779 0.43875 0.34919 0.0
C6798 C 0.59844 0.44985 0.38594 0.0
C6799 C 0.59581 0.44914 0.39433 0.0
C6800 C 0.60173 0.44848 0.40079 0.0
C6801 C 0.61037 0.44864 0.39896 0.0
C6802 C 0.61301 0.44972 0.39061 0.0
C6803 C 0.60707 0.45026 0.38412 0.0
C6804 C 0.58884 0.45963 0.37296 0.0
C6805 C 0.58084 0.46149 0.36971 0.0
C6806 C 0.57918 0.46937 0.36618 0.0
C6807 C 0.58552 0.47549 0.36573 0.0
C6808 C 0.59355 0.47359 0.36895 0.0
C6809 C 0.5952 0.46571 0.37249 0.0
C6810 C 0.59413 0.44167 0.37008 0.0
C6811 C 0.59595 0.43354 0.37295 0.0
C6812 C 0.59847 0.4273 0.36731 0.0
C6813 C 0.59915 0.42906 0.35867 0.0
C6814 C 0.59731 0.43723 0.35581 0.0
C6815 C 0.59478 0.44349 0.36148 0.0
P6816 P 0.21059 0.85601 0.89206 0.0
H6817 H 0.2065 0.84501 0.87794 0.0
H6818 H 0.19639 0.84616 0.86633 0.0
H6819 H 0.18889 0.87063 0.87548 0.0
H6820 H 0.19924 0.86964 0.8867 0.0
H6821 H 0.22565 0.8487 0.89933 0.0
H6822 H 0.24062 0.84996 0.89607 0.0
H6823 H 0.23473 0.86668 0.8755 0.0
H6824 H 0.21966 0.86523 0.8787 0.0
H6825 H 0.19565 0.85758 0.90233 0.0
H6826 H 0.21913 0.87083 0.89947 0.0
O6827 O 0.20901 0.84639 0.89593 0.0
H6828 H 0.19091 0.86805 0.91246 0.0
H6829 H 0.2146 0.88116 0.90996 0.0
C6830 C 0.20363 0.85722 0.88318 0.0
C6831 C 0.20275 0.85066 0.87735 0.0
C6832 C 0.19692 0.8513 0.87078 0.0
C6833 C 0.19189 0.85852 0.86992 0.0
C6834 C 0.19281 0.86507 0.87581 0.0
C6835 C 0.1987 0.86447 0.8823 0.0
C6836 C 0.22155 0.8568 0.88921 0.0
C6837 C 0.22756 0.85257 0.89406 0.0
C6838 C 0.23612 0.85334 0.89223 0.0
C6839 C 0.23885 0.85849 0.88558 0.0
C6840 C 0.2328 0.86264 0.88063 0.0
C6841 C 0.2242 0.86184 0.88247 0.0
C6842 C 0.20776 0.86338 0.9002 0.0
C6843 C 0.19987 0.86264 0.90406 0.0
C6844 C 0.19721 0.8686 0.90993 0.0
C6845 C 0.20244 0.87537 0.91218 0.0
C6846 C 0.21042 0.87601 0.90839 0.0
C6847 C 0.21304 0.87008 0.90241 0.0
P6848 P 0.41337 0.94985 0.12679 0.0
H6849 H 0.41412 0.95551 0.1094 0.0
H6850 H 0.40405 0.95487 0.0978 0.0
H6851 H 0.38513 0.94524 0.11476 0.0
H6852 H 0.39513 0.94626 0.12642 0.0
H6853 H 0.42911 0.95893 0.1297 0.0
H6854 H 0.43228 0.97273 0.13577 0.0
H6855 H 0.40586 0.97668 0.14053 0.0
H6856 H 0.40267 0.96287 0.13433 0.0
H6857 H 0.40901 0.93239 0.12452 0.0
H6858 H 0.41104 0.94968 0.14532 0.0
O6859 O 0.42211 0.94638 0.12214 0.0
H6860 H 0.40445 0.92131 0.13411 0.0
H6861 H 0.40666 0.9385 0.15503 0.0
C6862 C 0.40545 0.95073 0.11872 0.0
C6863 C 0.40777 0.95337 0.11064 0.0
C6864 C 0.40203 0.95291 0.104 0.0
C6865 C 0.39387 0.94974 0.10531 0.0
C6866 C 0.39139 0.94764 0.11354 0.0
C6867 C 0.39712 0.94818 0.1202 0.0
C6868 C 0.41563 0.95992 0.1315 0.0
C6869 C 0.42398 0.96276 0.13201 0.0
C6870 C 0.4258 0.97064 0.13546 0.0
C6871 C 0.41931 0.97576 0.13856 0.0
C6872 C 0.41097 0.97283 0.13818 0.0
C6873 C 0.40914 0.96498 0.13464 0.0
C6874 C 0.41031 0.94186 0.1342 0.0
C6875 C 0.40855 0.93377 0.13118 0.0
C6876 C 0.40603 0.92742 0.13668 0.0
C6877 C 0.40533 0.929 0.14535 0.0
C6878 C 0.40717 0.93711 0.14838 0.0
C6879 C 0.40966 0.9435 0.14284 0.0
P6880 P 0.09011 0.05396 0.62696 0.0
H6881 H 0.08939 0.05013 0.60907 0.0
H6882 H 0.09975 0.05097 0.59775 0.0
H6883 H 0.11879 0.05818 0.61574 0.0
H6884 H 0.10845 0.05711 0.62707 0.0
H6885 H 0.07658 0.04773 0.63748 0.0
H6886 H 0.0733 0.03386 0.64328 0.0
H6887 H 0.09643 0.02411 0.63286 0.0
H6888 H 0.09955 0.03796 0.62688 0.0
H6889 H 0.08531 0.07156 0.62858 0.0
H6890 H 0.10082 0.05384 0.64201 0.0
O6891 O 0.08111 0.05678 0.62237 0.0
H6892 H 0.08973 0.08275 0.63809 0.0
H6893 H 0.10563 0.06512 0.65133 0.0
C6894 C 0.09809 0.05371 0.61889 0.0
C6895 C 0.09581 0.05181 0.6106 0.0
C6896 C 0.10174 0.05231 0.60413 0.0
C6897 C 0.11009 0.05467 0.60584 0.0
C6898 C 0.11244 0.05624 0.61422 0.0
C6899 C 0.1065 0.05571 0.62071 0.0
C6900 C 0.08829 0.04386 0.63174 0.0
C6901 C 0.08096 0.04261 0.63649 0.0
C6902 C 0.07912 0.03469 0.63984 0.0
C6903 C 0.08463 0.0279 0.63858 0.0
C6904 C 0.09203 0.02921 0.63388 0.0
C6905 C 0.09385 0.03714 0.63051 0.0
C6906 C 0.09265 0.06185 0.63467 0.0
C6907 C 0.08958 0.07005 0.63367 0.0
C6908 C 0.09215 0.07646 0.63909 0.0
C6909 C 0.09798 0.07483 0.64553 0.0
C6910 C 0.10095 0.06655 0.6466 0.0
C6911 C 0.09827 0.06011 0.64123 0.0
C6912 C 0.99711 0.14427 0.42866 0.0
C6913 C 1.00109 0.14917 0.42246 0.0
C6914 C 0.98902 0.14093 0.42735 0.0
C6915 C 0.98471 0.14226 0.41972 0.0
H6916 H 1.00026 0.14304 0.43458 0.0
H6917 H 0.98619 0.13716 0.43226 0.0
S6918 S 0.99238 0.15466 0.40152 0.0
N6919 N 1.00011 0.15515 0.40843 0.0
N6920 N 0.98494 0.14897 0.40601 0.0
C6921 C 0.98862 0.14718 0.41351 0.0
C6922 C 0.99679 0.15061 0.41487 0.0
C6923 C 0.12386 0.76207 0.64842 0.0
C6924 C 0.12378 0.76543 0.64023 0.0
C6925 C 0.12275 0.75341 0.64981 0.0
C6926 C 0.12162 0.74776 0.64307 0.0
H6927 H 0.12446 0.76621 0.6538 0.0
H6928 H 0.12265 0.75112 0.65623 0.0
S6929 S 0.12146 0.75334 0.62042 0.0
N6930 N 0.12297 0.76238 0.62528 0.0
N6931 N 0.12075 0.74617 0.62789 0.0
C6932 C 0.12183 0.75102 0.63485 0.0
C6933 C 0.12294 0.75982 0.63344 0.0
C6934 C 0.50435 0.86388 0.92119 0.0
C6935 C 0.50315 0.85572 0.9244 0.0
C6936 C 0.51245 0.86709 0.91977 0.0
C6937 C 0.51968 0.86229 0.92153 0.0
H6938 H 0.49899 0.86772 0.91947 0.0
H6939 H 0.51305 0.87336 0.91717 0.0
S6940 S 0.51999 0.8408 0.93062 0.0
N6941 N 0.5099 0.84313 0.92986 0.0
N6942 N 0.5251 0.84907 0.92698 0.0
C6943 C 0.51857 0.85423 0.92502 0.0
C6944 C 0.51033 0.85097 0.92648 0.0
C6945 C 0.3829 0.2416 0.14859 0.0
C6946 C 0.37924 0.23871 0.14106 0.0
C6947 C 0.38424 0.25022 0.15001 0.0
C6948 C 0.38194 0.25631 0.14398 0.0
H6949 H 0.38505 0.23716 0.15328 0.0
H6950 H 0.38723 0.25213 0.15582 0.0
S6951 S 0.37154 0.25205 0.12353 0.0
N6952 N 0.37276 0.24267 0.1278 0.0
N6953 N 0.37553 0.2588 0.13033 0.0
C6954 C 0.378 0.25351 0.13657 0.0
C6955 C 0.3766 0.24474 0.13515 0.0
C6956 C 0.99981 0.86259 0.08618 0.0
C6957 C 1.00129 0.85649 0.07996 0.0
C6958 C 0.9917 0.86574 0.08761 0.0
C6959 C 0.98478 0.86297 0.08282 0.0
H6960 H 0.00493 0.86477 0.09011 0.0
H6961 H 0.99084 0.87039 0.09251 0.0
S6962 S 0.9855 0.84724 0.06557 0.0
N6963 N 0.99534 0.84791 0.06886 0.0
N6964 N 0.98006 0.85384 0.07147 0.0
C6965 C 0.98625 0.85699 0.07644 0.0
C6966 C 0.99451 0.85373 0.07505 0.0
C6967 C 0.3886 0.76228 0.3607 0.0
C6968 C 0.3807 0.76557 0.36295 0.0
C6969 C 0.38976 0.75366 0.35931 0.0
C6970 C 0.38306 0.74793 0.36016 0.0
H6971 H 0.39399 0.76642 0.36011 0.0
H6972 H 0.39601 0.75145 0.35777 0.0
S6973 S 0.36102 0.75336 0.36557 0.0
N6974 N 0.36601 0.76247 0.36574 0.0
N6975 N 0.36814 0.74622 0.36304 0.0
C6976 C 0.37508 0.75115 0.36224 0.0
C6977 C 0.3739 0.75997 0.36362 0.0
C6978 C 0.5096 0.15079 0.57642 0.0
C6979 C 0.50269 0.14797 0.58116 0.0
C6980 C 0.51771 0.14754 0.57783 0.0
C6981 C 0.51918 0.14151 0.58416 0.0
H6982 H 0.50874 0.15555 0.57162 0.0
H6983 H 0.52288 0.14991 0.57408 0.0
S6984 S 0.50312 0.13207 0.59817 0.0
N6985 N 0.49779 0.13878 0.5923 0.0
N6986 N 0.51298 0.13271 0.59499 0.0
C6987 C 0.51229 0.13862 0.58887 0.0
C6988 C 0.50405 0.14184 0.58735 0.0
C6989 C 0.11571 0.24234 0.86201 0.0
C6990 C 0.12366 0.23941 0.86463 0.0
C6991 C 0.11423 0.25091 0.86051 0.0
C6992 C 0.12064 0.25693 0.86149 0.0
H6993 H 0.11059 0.23797 0.86098 0.0
H6994 H 0.10797 0.25282 0.85862 0.0
S6995 S 0.14262 0.25264 0.86804 0.0
N6996 N 0.138 0.24336 0.86829 0.0
N6997 N 0.13533 0.25934 0.86493 0.0
C6998 C 0.12864 0.25411 0.86401 0.0
C6999 C 0.13012 0.2454 0.86568 0.0
C7000 C 0.41965 0.99417 0.15371 0.0
C7001 C 0.42323 1.00071 0.14891 0.0
C7002 C 0.41858 0.98608 0.15038 0.0
C7003 C 0.42117 0.98415 0.14217 0.0
H7004 H 0.41747 0.99535 0.16006 0.0
H7005 H 0.41559 0.98131 0.15423 0.0
S7006 S 0.43126 0.99876 0.12707 0.0
N7007 N 0.42957 0.00456 0.13552 0.0
N7008 N 0.42779 0.98925 0.12939 0.0
C7009 C 0.42511 0.99047 0.13741 0.0
C7010 C 0.4261 0.99877 0.14076 0.0
C7011 C 0.24459 0.13529 0.3776 0.0
C7012 C 0.23852 0.1415 0.37938 0.0
C7013 C 0.25319 0.13673 0.37899 0.0
C7014 C 0.25609 0.14443 0.38221 0.0
H7015 H 0.24267 0.12919 0.37526 0.0
H7016 H 0.25755 0.13164 0.37778 0.0
S7017 S 0.24291 0.16302 0.38729 0.0
N7018 N 0.2361 0.15581 0.38422 0.0
N7019 N 0.25228 0.15859 0.38653 0.0
C7020 C 0.25014 0.15082 0.38369 0.0
C7021 C 0.24137 0.14935 0.38232 0.0
C7022 C 0.08232 0.00413 0.64035 0.0
C7023 C 0.08024 0.00293 0.64887 0.0
C7024 C 0.08356 0.01222 0.63704 0.0
C7025 C 0.08273 0.01943 0.64211 0.0
H7026 H 0.08331 0.99876 0.63627 0.0
H7027 H 0.0853 0.01282 0.63048 0.0
S7028 S 0.07669 0.01975 0.66465 0.0
N7029 N 0.0768 0.00967 0.66215 0.0
N7030 N 0.07932 0.02485 0.656 0.0
C7031 C 0.08033 0.01834 0.65056 0.0
C7032 C 0.07906 0.0101 0.65392 0.0
C7033 C 0.26013 0.86023 0.87454 0.0
C7034 C 0.26551 0.86271 0.88111 0.0
C7035 C 0.2515 0.85887 0.876 0.0
C7036 C 0.248 0.85982 0.88409 0.0
H7037 H 0.26257 0.85953 0.86822 0.0
H7038 H 0.24753 0.85705 0.87076 0.0
S7039 S 0.25954 0.86598 0.90341 0.0
N7040 N 0.26681 0.86585 0.89599 0.0
N7041 N 0.25066 0.86334 0.89872 0.0
C7042 C 0.25338 0.86215 0.89071 0.0
C7043 C 0.26211 0.86359 0.88921 0.0
C7044 C 0.42874 0.00679 0.36136 0.0
C7045 C 0.42358 0.00348 0.35497 0.0
C7046 C 0.42736 0.0149 0.36461 0.0
C7047 C 0.42068 0.01993 0.36168 0.0
H7048 H 0.43387 0.00308 0.36388 0.0
H7049 H 0.43141 0.01717 0.36959 0.0
S7050 S 0.40551 0.01429 0.34491 0.0
N7051 N 0.41161 0.00594 0.34579 0.0
N7052 N 0.4091 0.02116 0.35182 0.0
C7053 C 0.41558 0.01674 0.35522 0.0
C7054 C 0.41701 0.00854 0.35188 0.0
C7055 C 0.25971 0.13455 0.62534 0.0
C7056 C 0.26564 0.14108 0.62443 0.0
C7057 C 0.25109 0.13593 0.62403 0.0
C7058 C 0.24802 0.14391 0.62174 0.0
H7059 H 0.26176 0.12826 0.62693 0.0
H7060 H 0.24684 0.13063 0.62454 0.0
S7061 S 0.26076 0.1633 0.61921 0.0
N7062 N 0.26772 0.15594 0.62146 0.0
N7063 N 0.25151 0.15858 0.61926 0.0
C7064 C 0.25382 0.15058 0.62115 0.0
C7065 C 0.26261 0.14916 0.62246 0.0
C7066 C 0.07484 0.99612 0.85884 0.0
C7067 C 0.08146 1.00074 0.85522 0.0
C7068 C 0.07623 0.98805 0.86222 0.0
C7069 C 0.08432 0.98443 0.86223 0.0
H7070 H 0.06854 0.99872 0.85898 0.0
H7071 H 0.07097 0.98468 0.86494 0.0
S7072 S 0.10373 0.99402 0.85358 0.0
N7073 N 0.09637 1.00114 0.85192 0.0
N7074 N 0.09897 0.98605 0.85823 0.0
C7075 C 0.09096 0.98902 0.85865 0.0
C7076 C 0.08954 0.99715 0.85516 0.0
C7077 C 0.24538 0.87044 0.12164 0.0
C7078 C 0.23987 0.8638 0.12355 0.0
C7079 C 0.25399 0.86895 0.12028 0.0
C7080 C 0.25733 0.86076 0.12065 0.0
H7081 H 0.24303 0.87682 0.12124 0.0
H7082 H 0.25802 0.87423 0.11878 0.0
S7083 S 0.24548 0.84126 0.12547 0.0
N7084 N 0.23832 0.84878 0.12581 0.0
N7085 N 0.25446 0.84596 0.12319 0.0
C7086 C 0.25186 0.85408 0.12257 0.0
C7087 C 0.24314 0.85561 0.12404 0.0
C7088 C 0.15293 0.42496 0.99404 0.0
C7089 C 0.14792 0.42408 1.0013 0.0
C7090 C 0.1496 0.42364 0.98597 0.0
C7091 C 0.14113 0.42134 0.98483 0.0
H7092 H 0.15954 0.42652 0.99461 0.0
H7093 H 0.15377 0.42414 0.9806 0.0
S7094 S 0.12514 0.41897 1.00165 0.0
N7095 N 0.13391 0.4212 0.00673 0.0
N7096 N 0.12763 0.41896 0.99157 0.0
C7097 C 0.13596 0.42081 0.99199 0.0
C7098 C 0.13935 0.42214 1.00021 0.0
C7099 C 0.6401 0.08308 0.00456 0.0
C7100 C 0.64815 0.07957 0.00341 0.0
C7101 C 0.63684 0.08451 0.01264 0.0
C7102 C 0.64147 0.08245 0.0199 0.0
H7103 H 0.6364 0.08504 0.99919 0.0
H7104 H 0.63067 0.08733 0.01319 0.0
S7105 S 0.66257 0.07248 0.02033 0.0
N7106 N 0.66041 0.0735 0.01022 0.0
N7107 N 0.65438 0.07637 0.02539 0.0
C7108 C 0.64939 0.07865 0.01884 0.0
C7109 C 0.65271 0.07719 0.01061 0.0
C7110 C 0.14007 0.38869 0.24205 0.0
C7111 C 0.14115 0.38072 0.23836 0.0
C7112 C 0.14152 0.39001 0.25063 0.0
C7113 C 0.14406 0.38341 0.25594 0.0
H7114 H 0.13806 0.39398 0.23825 0.0
H7115 H 0.14048 0.39625 0.25316 0.0
S7116 S 0.14805 0.36137 0.24939 0.0
N7117 N 0.14508 0.36614 0.24064 0.0
N7118 N 0.14788 0.36863 0.25682 0.0
C7119 C 0.14528 0.37541 0.25233 0.0
C7120 C 0.14384 0.37408 0.24354 0.0
C7121 C 0.852 0.92627 0.51035 0.0
C7122 C 0.85673 0.92451 0.50307 0.0
C7123 C 0.85532 0.92488 0.51842 0.0
C7124 C 0.86347 0.9216 0.5195 0.0
H7125 H 0.84563 0.92862 0.50982 0.0
H7126 H 0.85138 0.92613 0.52383 0.0
S7127 S 0.87864 0.91648 0.50254 0.0
N7128 N 0.87011 0.91961 0.49752 0.0
N7129 N 0.8764 0.91722 0.51265 0.0
C7130 C 0.86837 0.92011 0.51229 0.0
C7131 C 0.86499 0.92152 0.50409 0.0
C7132 C 0.86335 0.12926 0.24544 0.0
C7133 C 0.86454 0.12265 0.23966 0.0
C7134 C 0.862 0.12767 0.25403 0.0
C7135 C 0.86175 0.11941 0.25717 0.0
H7136 H 0.86344 0.13573 0.24332 0.0
H7137 H 0.86101 0.13296 0.2582 0.0
S7138 S 0.86461 0.09986 0.24474 0.0
N7139 N 0.86535 0.1075 0.23774 0.0
N7140 N 0.86306 0.10454 0.25388 0.0
C7141 C 0.86303 0.11274 0.25149 0.0
C7142 C 0.8644 0.11435 0.24275 0.0
C7143 C 0.35391 0.5881 0.49667 0.0
C7144 C 0.35522 0.58049 0.501 0.0
C7145 C 0.35733 0.58947 0.48867 0.0
C7146 C 0.36215 0.58327 0.48462 0.0
H7147 H 0.35032 0.59312 0.49957 0.0
H7148 H 0.35615 0.59545 0.48561 0.0
S7149 S 0.36727 0.56215 0.49313 0.0
N7150 N 0.36152 0.56658 0.50056 0.0
N7151 N 0.36803 0.56917 0.48552 0.0
C7152 C 0.36344 0.57558 0.48882 0.0
C7153 C 0.35998 0.5742 0.49701 0.0
C7154 C 0.14764 0.62061 0.26144 0.0
C7155 C 0.13983 0.62325 0.26465 0.0
C7156 C 0.14877 0.61906 0.25284 0.0
C7157 C 0.14214 0.62012 0.24708 0.0
H7158 H 0.15293 0.61968 0.26563 0.0
H7159 H 0.15491 0.61705 0.25068 0.0
S7160 S 0.12046 0.62706 0.25223 0.0
N7161 N 0.12538 0.627 0.26138 0.0
N7162 N 0.12746 0.62398 0.2452 0.0
C7163 C 0.1343 0.62281 0.25019 0.0
C7164 C 0.13314 0.62435 0.25897 0.0
C7165 C 0.36367 0.38883 0.76195 0.0
C7166 C 0.36274 0.38081 0.76558 0.0
C7167 C 0.3622 0.39019 0.75337 0.0
C7168 C 0.35979 0.38356 0.74803 0.0
H7169 H 0.3656 0.39413 0.76579 0.0
H7170 H 0.36312 0.39646 0.75088 0.0
S7171 S 0.3562 0.36142 0.75443 0.0
N7172 N 0.35907 0.36618 0.76321 0.0
N7173 N 0.35626 0.36872 0.74704 0.0
C7174 C 0.35872 0.37553 0.75158 0.0
C7175 C 0.36017 0.37416 0.76036 0.0
C7176 C 0.00912 0.84757 0.5797 0.0
C7177 C 0.00226 0.85313 0.57915 0.0
C7178 C 0.01719 0.85044 0.58178 0.0
C7179 C 0.01874 0.859 0.58349 0.0
H7180 H 0.00818 0.84087 0.57887 0.0
H7181 H 0.02217 0.84585 0.58245 0.0
S7182 S 0.00312 0.87628 0.58188 0.0
N7183 N 0.99771 0.8677 0.57962 0.0
N7184 N 0.01285 0.87312 0.58366 0.0
C7185 C 0.01207 0.86472 0.58231 0.0
C7186 C 0.00384 0.86178 0.58013 0.0
C7187 C 0.88918 0.24125 0.36413 0.0
C7188 C 0.88152 0.23736 0.36205 0.0
C7189 C 0.89011 0.25 0.36379 0.0
C7190 C 0.88338 0.25527 0.36145 0.0
H7191 H 0.89445 0.2375 0.36626 0.0
H7192 H 0.89609 0.25268 0.36563 0.0
S7193 S 0.86211 0.24813 0.35498 0.0
N7194 N 0.86722 0.23933 0.35711 0.0
N7195 N 0.86886 0.25585 0.35665 0.0
C7196 C 0.87578 0.25143 0.35898 0.0
C7197 C 0.87487 0.24246 0.35925 0.0
C7198 C 0.50054 0.14278 0.08223 0.0
C7199 C 0.50187 0.15124 0.08001 0.0
C7200 C 0.49249 0.13983 0.08439 0.0
C7201 C 0.48548 0.14524 0.08439 0.0
H7202 H 0.50584 0.13853 0.08284 0.0
H7203 H 0.49186 0.13342 0.08661 0.0
S7204 S 0.48533 0.16746 0.07727 0.0
N7205 N 0.49531 0.16463 0.07667 0.0
N7206 N 0.4802 0.1591 0.08066 0.0
C7207 C 0.48662 0.15351 0.08145 0.0
C7208 C 0.4948 0.15651 0.07928 0.0
C7209 C 0.61514 0.76365 0.86127 0.0
C7210 C 0.62316 0.76738 0.86142 0.0
C7211 C 0.61418 0.75491 0.86089 0.0
C7212 C 0.62119 0.74952 0.86073 0.0
H7213 H 0.60956 0.76753 0.86174 0.0
H7214 H 0.60787 0.75234 0.86107 0.0
S7215 S 0.64356 0.75618 0.86051 0.0
N7216 N 0.63824 0.7651 0.86087 0.0
N7217 N 0.63646 0.7486 0.86031 0.0
C7218 C 0.62925 0.75318 0.86043 0.0
C7219 C 0.63023 0.76213 0.86075 0.0
C7220 C 0.00915 0.15695 0.92317 0.0
C7221 C 0.00248 0.15133 0.92471 0.0
C7222 C 0.01716 0.15404 0.92094 0.0
C7223 C 0.01888 0.14539 0.9202 0.0
H7224 H 0.00805 0.16367 0.92322 0.0
H7225 H 0.02194 0.15862 0.91932 0.0
S7226 S 0.00403 0.12805 0.92493 0.0
N7227 N 0.99843 0.13667 0.92636 0.0
N7228 N 0.01355 0.13122 0.92223 0.0
C7229 C 0.01252 0.13969 0.92252 0.0
C7230 C 0.00431 0.14266 0.92477 0.0
C7231 C 0.62886 0.24377 0.64244 0.0
C7232 C 0.6222 0.23846 0.64002 0.0
C7233 C 0.62793 0.25255 0.64245 0.0
C7234 C 0.62028 0.25634 0.64009 0.0
H7235 H 0.63489 0.24111 0.64417 0.0
H7236 H 0.63331 0.25641 0.64408 0.0
S7237 S 0.60061 0.24516 0.63437 0.0
N7238 N 0.60752 0.23757 0.63592 0.0
N7239 N 0.60571 0.25405 0.63607 0.0
C7240 C 0.61349 0.25107 0.638 0.0
C7241 C 0.61446 0.24214 0.63792 0.0
C7242 C 0.49575 0.85022 0.42669 0.0
C7243 C 0.50301 0.85432 0.4237 0.0
C7244 C 0.48766 0.85315 0.42465 0.0
C7245 C 0.48653 0.8603 0.41956 0.0
H7246 H 0.49632 0.84458 0.43047 0.0
H7247 H 0.48226 0.84967 0.4269 0.0
S7248 S 0.50346 0.87321 0.41 0.0
N7249 N 0.5085 0.86589 0.41535 0.0
N7250 N 0.49336 0.87139 0.41156 0.0
C7251 C 0.49373 0.86459 0.41673 0.0
C7252 C 0.50195 0.86161 0.41879 0.0
C7253 C 0.88327 0.76282 0.14822 0.0
C7254 C 0.87909 0.76659 0.14136 0.0
C7255 C 0.88422 0.75402 0.14873 0.0
C7256 C 0.88102 0.74874 0.1424 0.0
H7257 H 0.8862 0.7667 0.15299 0.0
H7258 H 0.88781 0.75136 0.15387 0.0
S7259 S 0.86848 0.75531 0.1239 0.0
N7260 N 0.87085 0.76421 0.12871 0.0
N7261 N 0.8728 0.74778 0.1296 0.0
C7262 C 0.87641 0.75239 0.13582 0.0
C7263 C 0.87539 0.76128 0.13532 0.0
C7264 C 0.5898 0.00399 0.85426 0.0
C7265 C 0.58138 1.00134 0.85371 0.0
C7266 C 0.59188 0.01198 0.85726 0.0
C7267 C 0.58563 0.01767 0.85985 0.0
H7268 H 0.59483 0.99986 0.85225 0.0
H7269 H 0.59845 0.01378 0.85745 0.0
S7270 S 0.56266 0.01384 0.85976 0.0
N7271 N 0.56673 0.00499 0.85611 0.0
N7272 N 0.57069 0.02012 0.8618 0.0
C7273 C 0.57719 0.01507 0.85956 0.0
C7274 C 0.57505 0.00688 0.85648 0.0
C7275 C 0.76221 0.86934 0.62779 0.0
C7276 C 0.76749 0.86278 0.62508 0.0
C7277 C 0.75348 0.86892 0.62674 0.0
C7278 C 0.74964 0.86189 0.62301 0.0
H7279 H 0.76487 0.87501 0.63048 0.0
H7280 H 0.74972 0.87428 0.62865 0.0
S7281 S 0.76046 0.84265 0.61557 0.0
N7282 N 0.76814 0.84875 0.619 0.0
N7283 N 0.75165 0.84793 0.61719 0.0
C7284 C 0.75474 0.85504 0.62077 0.0
C7285 C 0.76369 0.85548 0.62178 0.0
C7286 C 0.92066 1.00111 0.36174 0.0
C7287 C 0.92457 0.00225 0.35388 0.0
C7288 C 0.91851 0.99305 0.36466 0.0
C7289 C 0.92019 0.98583 0.35983 0.0
H7290 H 0.91878 0.0065 0.36546 0.0
H7291 H 0.91505 0.99254 0.37051 0.0
S7292 S 0.9318 0.98528 0.3396 0.0
N7293 N 0.9311 0.99538 0.34188 0.0
N7294 N 0.92707 0.98026 0.34736 0.0
C7295 C 0.92467 0.98684 0.35226 0.0
C7296 C 0.92686 0.99504 0.34929 0.0
C7297 C 0.74197 0.13312 0.12422 0.0
C7298 C 0.73699 0.14043 0.12427 0.0
C7299 C 0.7507 0.13352 0.12327 0.0
C7300 C 0.75489 0.14126 0.12236 0.0
H7301 H 0.73906 0.12697 0.12472 0.0
H7302 H 0.7542 0.12767 0.12311 0.0
S7303 S 0.74491 0.16232 0.12271 0.0
N7304 N 0.73697 0.15572 0.1238 0.0
N7305 N 0.75347 0.15646 0.12209 0.0
C7306 C 0.75008 0.14866 0.12285 0.0
C7307 C 0.74112 0.14826 0.12379 0.0
C7308 C 0.57747 0.99571 0.65348 0.0
C7309 C 0.58031 0.00301 0.64933 0.0
C7310 C 0.57959 0.98765 0.65054 0.0
C7311 C 0.58463 0.98657 0.64333 0.0
H7312 H 0.57376 0.99625 0.65916 0.0
H7313 H 0.57745 0.98223 0.65406 0.0
S7314 S 0.59375 0.0036 0.63026 0.0
N7315 N 0.58842 0.00858 0.63764 0.0
N7316 N 0.59238 0.99348 0.63213 0.0
C7317 C 0.58729 0.9938 0.63899 0.0
C7318 C 0.58514 1.002 0.64198 0.0
C7319 C 0.74121 0.85607 0.38354 0.0
C7320 C 0.73746 0.86242 0.37861 0.0
C7321 C 0.75001 0.85562 0.38452 0.0
C7322 C 0.75531 0.86151 0.3806 0.0
H7323 H 0.73731 0.8517 0.38702 0.0
H7324 H 0.75264 0.85094 0.38871 0.0
S7325 S 0.74879 0.87847 0.36602 0.0
N7326 N 0.73987 0.87402 0.36895 0.0
N7327 N 0.75631 0.87327 0.37094 0.0
C7328 C 0.75168 0.86752 0.37525 0.0
C7329 C 0.74278 0.86795 0.37421 0.0
C7330 C 0.92932 0.0075 0.14989 0.0
C7331 C 0.9231 1.0012 0.15015 0.0
C7332 C 0.92744 0.01562 0.14686 0.0
C7333 C 0.91933 0.01759 0.14391 0.0
H7334 H 0.93558 0.00619 0.15224 0.0
H7335 H 0.9323 0.0204 0.14691 0.0
S7336 S 0.90096 0.00329 0.14327 0.0
N7337 N 0.90861 0.99748 0.14722 0.0
N7338 N 0.90512 0.01263 0.14143 0.0
C7339 C 0.91316 0.01129 0.14403 0.0
C7340 C 0.91504 0.00312 0.14716 0.0
C7341 C 0.76162 0.13691 0.87465 0.0
C7342 C 0.76699 0.1423 0.8792 0.0
C7343 C 0.75287 0.13726 0.87564 0.0
C7344 C 0.74913 0.14306 0.88115 0.0
H7345 H 0.76423 0.13218 0.87049 0.0
H7346 H 0.74901 0.13274 0.87231 0.0
S7347 S 0.76018 0.15886 0.89418 0.0
N7348 N 0.76781 0.15386 0.8892 0.0
N7349 N 0.7513 0.15456 0.89091 0.0
C7350 C 0.75433 0.14876 0.88542 0.0
C7351 C 0.76327 0.14839 0.88446 0.0
C7352 C 0.86137 0.58208 0.00332 0.0
C7353 C 0.85303 0.57945 1.00197 0.0
C7354 C 0.86426 0.58416 0.01141 0.0
C7355 C 0.85892 0.58364 0.01847 0.0
H7356 H 0.86554 0.58307 0.99802 0.0
H7357 H 0.87054 0.58671 0.01202 0.0
S7358 S 0.83711 0.57532 0.01851 0.0
N7359 N 0.83988 0.57523 0.0085 0.0
N7360 N 0.84533 0.57896 0.0237 0.0
C7361 C 0.85081 0.58029 0.01728 0.0
C7362 C 0.84786 0.57824 0.00904 0.0
C7363 C 0.36134 0.92088 1.00112 0.0
C7364 C 0.35367 0.92514 0.00229 0.0
C7365 C 0.36428 0.91887 0.99305 0.0
C7366 C 0.35969 0.92108 0.98579 0.0
H7367 H 0.36488 0.91865 0.0065 0.0
H7368 H 0.36996 0.91515 0.99253 0.0
S7369 S 0.34003 0.93366 0.9854 0.0
N7370 N 0.34209 0.93244 0.9955 0.0
N7371 N 0.34766 0.92878 0.98032 0.0
C7372 C 0.35232 0.92587 0.98687 0.0
C7373 C 0.3493 0.92787 0.9951 0.0
C7374 C 0.86437 0.6151 0.76376 0.0
C7375 C 0.86193 0.62271 0.76752 0.0
C7376 C 0.86404 0.61403 0.75503 0.0
C7377 C 0.86137 0.62056 0.74969 0.0
H7378 H 0.86679 0.61 0.76758 0.0
H7379 H 0.86619 0.60811 0.75242 0.0
S7380 S 0.85382 0.64156 0.75652 0.0
N7381 N 0.85624 0.6367 0.76538 0.0
N7382 N 0.8558 0.63479 0.74889 0.0
C7383 C 0.85851 0.62807 0.75341 0.0
C7384 C 0.85876 0.62913 0.76236 0.0
C7385 C 0.15028 0.08976 0.50008 0.0
C7386 C 0.15073 0.0814 0.50292 0.0
C7387 C 0.14731 0.0917 0.49203 0.0
C7388 C 0.14466 0.08536 0.48649 0.0
H7389 H 0.15231 0.09487 0.50411 0.0
H7390 H 0.14718 0.09823 0.49008 0.0
S7391 S 0.14456 0.06247 0.49079 0.0
N7392 N 0.14823 0.0667 0.49955 0.0
N7393 N 0.14259 0.07039 0.48434 0.0
C7394 C 0.14489 0.07698 0.48926 0.0
C7395 C 0.14794 0.07498 0.4975 0.0
C7396 C 0.14343 0.87385 0.76142 0.0
C7397 C 0.14278 0.88088 0.76675 0.0
C7398 C 0.14389 0.87484 0.75262 0.0
C7399 C 0.14371 0.88289 0.74891 0.0
H7400 H 0.14316 0.86756 0.76403 0.0
H7401 H 0.14392 0.86927 0.74869 0.0
S7402 S 0.14337 0.90324 0.76027 0.0
N7403 N 0.14289 0.89609 0.76778 0.0
N7404 N 0.14383 0.89797 0.75133 0.0
C7405 C 0.14362 0.88993 0.75424 0.0
C7406 C 0.14313 0.88892 0.76314 0.0
C7407 C 0.65597 0.42524 0.50881 0.0
C7408 C 0.65067 0.42484 0.50173 0.0
C7409 C 0.65303 0.4232 0.51686 0.0
C7410 C 0.64466 0.42059 0.5182 0.0
H7411 H 0.66256 0.42682 0.50806 0.0
H7412 H 0.65745 0.42331 0.52204 0.0
S7413 S 0.628 0.41933 0.50188 0.0
N7414 N 0.63646 0.42237 0.49669 0.0
N7415 N 0.63094 0.41841 0.5118 0.0
C7416 C 0.63914 0.42074 0.51127 0.0
C7417 C 0.64214 0.42288 0.50305 0.0
C7418 C 0.85597 0.38232 0.7416 0.0
C7419 C 0.86335 0.37931 0.73769 0.0
C7420 C 0.85547 0.38318 0.75042 0.0
C7421 C 0.86234 0.38106 0.75558 0.0
H7422 H 0.85072 0.38442 0.73781 0.0
H7423 H 0.84985 0.38587 0.75318 0.0
S7424 S 0.88247 0.3716 0.74862 0.0
N7425 N 0.8772 0.3732 0.73982 0.0
N7426 N 0.8763 0.37494 0.75627 0.0
C7427 C 0.8695 0.37756 0.75179 0.0
C7428 C 0.86999 0.37664 0.74288 0.0
C7429 C 0.63362 0.62557 0.24199 0.0
C7430 C 0.6409 0.62478 0.23703 0.0
C7431 C 0.63393 0.62476 0.25074 0.0
C7432 C 0.64154 0.62309 0.25496 0.0
H7433 H 0.62756 0.62659 0.23905 0.0
H7434 H 0.6281 0.62524 0.25423 0.0
S7435 S 0.66253 0.62117 0.24498 0.0
N7436 N 0.65606 0.62281 0.23701 0.0
N7437 N 0.65664 0.62126 0.25355 0.0
C7438 C 0.64896 0.62276 0.25015 0.0
C7439 C 0.64864 0.62361 0.24117 0.0
C7440 C 0.49987 0.6407 0.9196 0.0
C7441 C 0.50116 0.64808 0.9243 0.0
C7442 C 0.49175 0.63759 0.91809 0.0
C7443 C 0.48459 0.64173 0.92125 0.0
H7444 H 0.50516 0.63742 0.91683 0.0
H7445 H 0.49108 0.63192 0.91438 0.0
S7446 S 0.48456 0.66104 0.93436 0.0
N7447 N 0.49461 0.6592 0.93251 0.0
N7448 N 0.47934 0.65349 0.92951 0.0
C7449 C 0.4858 0.649 0.92615 0.0
C7450 C 0.49407 0.65216 0.9277 0.0
C7451 C 0.62448 0.26071 0.14718 0.0
C7452 C 0.62276 0.26436 0.13931 0.0
C7453 C 0.62299 0.25213 0.14865 0.0
C7454 C 0.6199 0.24688 0.14223 0.0
H7455 H 0.62686 0.26455 0.15228 0.0
H7456 H 0.62431 0.24958 0.15482 0.0
S7457 S 0.61457 0.25338 0.12049 0.0
N7458 N 0.61788 0.26211 0.12504 0.0
N7459 N 0.6152 0.24595 0.12772 0.0
C7460 C 0.61827 0.25044 0.13431 0.0
C7461 C 0.61966 0.25919 0.13287 0.0
C7462 C 0.00453 0.36315 0.41884 0.0
C7463 C 0.00317 0.35615 0.42408 0.0
C7464 C 0.01266 0.36624 0.41734 0.0
C7465 C 0.01976 0.36249 0.42107 0.0
H7466 H 0.9993 0.36612 0.41566 0.0
H7467 H 0.01339 0.3716 0.4132 0.0
S7468 S 0.01957 0.3443 0.4357 0.0
N7469 N 0.00957 0.34581 0.43334 0.0
N7470 N 0.02486 0.35154 0.43045 0.0
C7471 C 0.01847 0.35563 0.42651 0.0
C7472 C 0.01019 0.35246 0.42802 0.0
C7473 C 0.88859 0.7429 0.64199 0.0
C7474 C 0.88046 0.73993 0.64009 0.0
C7475 C 0.89013 0.75146 0.64346 0.0
C7476 C 0.88361 0.75744 0.64312 0.0
H7477 H 0.89381 0.73856 0.6425 0.0
H7478 H 0.89652 0.75342 0.64481 0.0
S7479 S 0.86117 0.75303 0.63849 0.0
N7480 N 0.86582 0.74378 0.63777 0.0
N7481 N 0.86866 0.75977 0.64098 0.0
C7482 C 0.87545 0.75458 0.64127 0.0
C7483 C 0.87389 0.74587 0.63967 0.0
C7484 C 0.49692 0.36024 0.57536 0.0
C7485 C 0.50068 0.35475 0.58119 0.0
C7486 C 0.48884 0.36353 0.57676 0.0
C7487 C 0.4843 0.36155 0.5841 0.0
H7488 H 0.50026 0.362 0.56968 0.0
H7489 H 0.48619 0.3678 0.57215 0.0
S7490 S 0.4913 0.3474 0.60125 0.0
N7491 N 0.49923 0.34747 0.59455 0.0
N7492 N 0.48404 0.35357 0.59712 0.0
C7493 C 0.48796 0.35601 0.58992 0.0
C7494 C 0.49614 0.35263 0.58848 0.0
C7495 C 0.87477 0.26035 0.85931 0.0
C7496 C 0.88088 0.26545 0.86319 0.0
C7497 C 0.87625 0.25172 0.85794 0.0
C7498 C 0.88394 0.24796 0.86024 0.0
H7499 H 0.86878 0.26301 0.85747 0.0
H7500 H 0.87138 0.24798 0.85498 0.0
S7501 S 0.902 0.25867 0.87038 0.0
N7502 N 0.89492 0.26616 0.86914 0.0
N7503 N 0.89768 0.25003 0.86657 0.0
C7504 C 0.8901 0.25304 0.86402 0.0
C7505 C 0.88857 0.26176 0.86549 0.0
C7506 C 0.00954 0.65196 0.07742 0.0
C7507 C 0.00238 0.64795 0.08077 0.0
C7508 C 0.01765 0.64876 0.07882 0.0
C7509 C 0.01892 0.6415 0.08373 0.0
H7510 H 0.00886 0.65765 0.07373 0.0
H7511 H 0.02298 0.65212 0.07622 0.0
S7512 S 0.0023 0.6285 0.09365 0.0
N7513 N 0.99712 0.63625 0.08908 0.0
N7514 N 0.01233 0.63017 0.09157 0.0
C7515 C 0.01182 0.63734 0.08695 0.0
C7516 C 0.00357 0.64058 0.08551 0.0
C7517 C 0.62994 0.74382 0.36215 0.0
C7518 C 0.62312 0.7382 0.36264 0.0
C7519 C 0.62863 0.75247 0.36075 0.0
C7520 C 0.62047 0.75576 0.35968 0.0
H7521 H 0.6363 0.74155 0.36309 0.0
H7522 H 0.63404 0.75661 0.36052 0.0
S7523 S 0.60057 0.74356 0.36013 0.0
N7524 N 0.60799 0.73646 0.36168 0.0
N7525 N 0.6055 0.75264 0.35914 0.0
C7526 C 0.61364 0.75014 0.35999 0.0
C7527 C 0.61497 0.74139 0.36144 0.0
C7528 C 0.92843 0.49689 0.64288 0.0
C7529 C 0.92318 0.50027 0.64915 0.0
C7530 C 0.927 0.48882 0.63958 0.0
C7531 C 0.92017 0.4839 0.64236 0.0
H7532 H 0.93368 0.50053 0.6405 0.0
H7533 H 0.93114 0.48649 0.63471 0.0
S7534 S 0.90469 0.48975 0.65877 0.0
N7535 N 0.91094 0.498 0.65805 0.0
N7536 N 0.90833 0.48283 0.65193 0.0
C7537 C 0.91496 0.48715 0.64869 0.0
C7538 C 0.91644 0.49533 0.65207 0.0
C7539 C 0.74544 0.64136 0.87486 0.0
C7540 C 0.73974 0.63961 0.88142 0.0
C7541 C 0.754 0.64276 0.87648 0.0
C7542 C 0.7572 0.64253 0.88472 0.0
H7543 H 0.74325 0.64169 0.86842 0.0
H7544 H 0.75812 0.64421 0.87125 0.0
S7545 S 0.74499 0.63806 0.9041 0.0
N7546 N 0.73795 0.6377 0.89648 0.0
N7547 N 0.75406 0.64013 0.89949 0.0
C7548 C 0.7516 0.64066 0.89132 0.0
C7549 C 0.74289 0.63923 0.88968 0.0
C7550 C 0.57527 0.50736 0.14305 0.0
C7551 C 0.58069 0.50389 0.14912 0.0
C7552 C 0.57669 0.51544 0.13976 0.0
C7553 C 0.58365 0.52027 0.14232 0.0
H7554 H 0.5699 0.5038 0.14083 0.0
H7555 H 0.57241 0.51784 0.13503 0.0
S7556 S 0.59961 0.51414 0.15816 0.0
N7557 N 0.59325 0.50596 0.15761 0.0
N7558 N 0.59582 0.52114 0.1515 0.0
C7559 C 0.58904 0.51692 0.14846 0.0
C7560 C 0.58758 0.50874 0.15184 0.0
C7561 C 0.76285 0.35558 0.38235 0.0
C7562 C 0.76563 0.36337 0.37922 0.0
C7563 C 0.75429 0.3541 0.38396 0.0
C7564 C 0.74818 0.36034 0.38246 0.0
H7565 H 0.76735 0.35071 0.38391 0.0
H7566 H 0.75246 0.34808 0.38656 0.0
S7567 S 0.75214 0.38157 0.37362 0.0
N7568 N 0.76153 0.37716 0.37405 0.0
N7569 N 0.74551 0.37449 0.37731 0.0
C7570 C 0.75085 0.36803 0.379 0.0
C7571 C 0.75955 0.36952 0.37734 0.0
C7572 C 0.91577 0.50731 0.85385 0.0
C7573 C 0.92338 0.50296 0.85512 0.0
C7574 C 0.91446 0.51534 0.85722 0.0
C7575 C 0.92071 0.5194 0.86196 0.0
H7576 H 0.9107 0.50441 0.85033 0.0
H7577 H 0.90848 0.51841 0.85606 0.0
S7578 S 0.94186 0.51084 0.86695 0.0
N7579 N 0.93734 0.50339 0.86129 0.0
N7580 N 0.93486 0.51849 0.86772 0.0
C7581 C 0.92841 0.51518 0.86321 0.0
C7582 C 0.92973 0.50696 0.85979 0.0
C7583 C 0.76218 0.64833 0.12164 0.0
C7584 C 0.76513 0.64056 0.1247 0.0
C7585 C 0.75357 0.64971 0.12021 0.0
C7586 C 0.74755 0.6434 0.12182 0.0
H7587 H 0.76659 0.65327 0.12005 0.0
H7588 H 0.75161 0.65574 0.11771 0.0
S7589 S 0.75197 0.62216 0.13042 0.0
N7590 N 0.76129 0.62669 0.12985 0.0
N7591 N 0.74519 0.62917 0.1269 0.0
C7592 C 0.7504 0.63571 0.12514 0.0
C7593 C 0.75916 0.63432 0.12663 0.0
C7594 C 0.57543 0.49675 0.3612 0.0
C7595 C 0.58081 0.50022 0.35509 0.0
C7596 C 0.57686 0.48867 0.36449 0.0
C7597 C 0.58381 0.48383 0.36187 0.0
H7598 H 0.57008 0.50032 0.36347 0.0
H7599 H 0.57262 0.48627 0.36925 0.0
S7600 S 0.59966 0.48996 0.34591 0.0
N7601 N 0.5933 0.49814 0.34651 0.0
N7602 N 0.59591 0.48296 0.3526 0.0
C7603 C 0.58915 0.48718 0.35569 0.0
C7604 C 0.58767 0.49536 0.35232 0.0
C7605 C 0.74336 0.3587 0.62899 0.0
C7606 C 0.73859 0.36355 0.62332 0.0
C7607 C 0.752 0.35728 0.62762 0.0
C7608 C 0.75608 0.3605 0.62045 0.0
H7609 H 0.74043 0.35611 0.63457 0.0
H7610 H 0.75548 0.35355 0.63214 0.0
S7611 S 0.74635 0.37338 0.60365 0.0
N7612 N 0.73857 0.37144 0.61024 0.0
N7613 N 0.75471 0.36871 0.60766 0.0
C7614 C 0.75135 0.36527 0.61473 0.0
C7615 C 0.74263 0.3668 0.61616 0.0
C7616 C 0.6399 0.92155 0.49934 0.0
C7617 C 0.64812 0.92462 0.50048 0.0
C7618 C 0.63663 0.92014 0.49127 0.0
C7619 C 0.64143 0.92178 0.48401 0.0
H7620 H 0.63606 0.91992 0.50473 0.0
H7621 H 0.63031 0.91765 0.49072 0.0
S7622 S 0.66308 0.93049 0.48355 0.0
N7623 N 0.66078 0.92982 0.49366 0.0
N7624 N 0.65472 0.92696 0.4785 0.0
C7625 C 0.64955 0.92513 0.48506 0.0
C7626 C 0.65287 0.92659 0.49328 0.0
C7627 C 0.1432 0.57586 0.50697 0.0
C7628 C 0.14958 0.58102 0.50364 0.0
C7629 C 0.13994 0.57729 0.51507 0.0
C7630 C 0.14286 0.584 0.52006 0.0
H7631 H 0.14069 0.57071 0.50329 0.0
H7632 H 0.13496 0.57323 0.51736 0.0
S7633 S 0.15961 0.59917 0.51435 0.0
N7634 N 0.15874 0.59302 0.50603 0.0
N7635 N 0.15271 0.5956 0.52124 0.0
C7636 C 0.14932 0.58909 0.51686 0.0
C7637 C 0.15266 0.58763 0.50866 0.0
C7638 C 0.63379 0.88065 0.74518 0.0
C7639 C 0.64049 0.88122 0.73944 0.0
C7640 C 0.63507 0.88213 0.75381 0.0
C7641 C 0.64305 0.88437 0.75693 0.0
H7642 H 0.62756 0.87894 0.74301 0.0
H7643 H 0.62975 0.88164 0.75803 0.0
S7644 S 0.6626 0.88665 0.74439 0.0
N7645 N 0.65533 0.88415 0.73741 0.0
N7646 N 0.65775 0.88692 0.75358 0.0
C7647 C 0.64977 0.88496 0.75121 0.0
C7648 C 0.64848 0.88339 0.74248 0.0
C7649 C 0.36358 0.42027 0.00461 0.0
C7650 C 0.35581 0.42432 0.00338 0.0
C7651 C 0.36679 0.41887 0.01271 0.0
C7652 C 0.36237 0.42147 0.01993 0.0
H7653 H 0.36711 0.41791 0.99928 0.0
H7654 H 0.37276 0.41565 0.01332 0.0
S7655 S 0.34199 0.43288 0.02014 0.0
N7656 N 0.34402 0.4314 0.01006 0.0
N7657 N 0.34992 0.42858 0.02528 0.0
C7658 C 0.3547 0.42576 0.01878 0.0
C7659 C 0.35145 0.42721 0.01052 0.0
C7660 C 0.35986 0.62932 0.7435 0.0
C7661 C 0.36347 0.62304 0.73841 0.0
C7662 C 0.35846 0.62794 0.75214 0.0
C7663 C 0.36048 0.62019 0.75593 0.0
H7664 H 0.35827 0.63538 0.74082 0.0
H7665 H 0.35574 0.63295 0.75588 0.0
S7666 S 0.36983 0.60168 0.74525 0.0
N7667 N 0.36885 0.60877 0.73773 0.0
N7668 N 0.36622 0.60618 0.75388 0.0
C7669 C 0.36397 0.61385 0.75085 0.0
C7670 C 0.36546 0.61528 0.74212 0.0
C7671 C 0.86399 0.08191 0.99977 0.0
C7672 C 0.85538 0.08024 1.00094 0.0
C7673 C 0.86734 0.08321 0.9917 0.0
C7674 C 0.86222 0.08278 0.9845 0.0
H7675 H 0.86812 0.08256 0.00515 0.0
H7676 H 0.87397 0.08467 0.9911 0.0
S7677 S 0.83942 0.07791 0.98408 0.0
N7678 N 0.84192 0.07768 0.99416 0.0
N7679 N 0.8482 0.08016 0.97901 0.0
C7680 C 0.85368 0.08077 0.98555 0.0
C7681 C 0.85026 0.0795 0.99376 0.0
C7682 C 0.64466 0.12912 0.7608 0.0
C7683 C 0.6409 0.12309 0.76609 0.0
C7684 C 0.64607 0.1274 0.75223 0.0
C7685 C 0.64392 0.11954 0.74872 0.0
H7686 H 0.64636 0.13523 0.76328 0.0
H7687 H 0.64892 0.13221 0.74833 0.0
S7688 S 0.63412 0.10164 0.76 0.0
N7689 N 0.63522 0.10897 0.76726 0.0
N7690 N 0.63786 0.10575 0.75123 0.0
C7691 C 0.64027 0.11347 0.754 0.0
C7692 C 0.63877 0.11524 0.76265 0.0
C7693 C 0.86296 0.87388 0.26033 0.0
C7694 C 0.86212 0.88054 0.26608 0.0
C7695 C 0.86165 0.87516 0.25166 0.0
C7696 C 0.85935 0.88312 0.24848 0.0
H7697 H 0.86489 0.86772 0.26251 0.0
H7698 H 0.86248 0.8699 0.24741 0.0
S7699 S 0.85613 0.9025 0.2611 0.0
N7700 N 0.85865 0.89525 0.26809 0.0
N7701 N 0.85624 0.8977 0.25189 0.0
C7702 C 0.85832 0.88975 0.25425 0.0
C7703 C 0.85969 0.88845 0.26302 0.0
C7704 C 0.50882 0.34841 0.07871 0.0
C7705 C 0.50172 0.35367 0.07929 0.0
C7706 C 0.51689 0.35135 0.08072 0.0
C7707 C 0.51822 0.35968 0.08345 0.0
H7708 H 0.50808 0.34185 0.07701 0.0
H7709 H 0.52208 0.34695 0.08047 0.0
S7710 S 0.50185 0.37623 0.08524 0.0
N7711 N 0.49666 0.36781 0.08211 0.0
N7712 N 0.51179 0.37333 0.08597 0.0
C7713 C 0.51127 0.36517 0.08349 0.0
C7714 C 0.50303 0.36217 0.0814 0.0
C7715 C 0.38844 0.74132 0.86092 0.0
C7716 C 0.3805 0.73751 0.86166 0.0
C7717 C 0.38929 0.75008 0.86056 0.0
C7718 C 0.38222 0.75539 0.86096 0.0
H7719 H 0.39408 0.7375 0.86093 0.0
H7720 H 0.39556 0.75274 0.8603 0.0
S7721 S 0.35999 0.74851 0.86257 0.0
N7722 N 0.3654 0.73964 0.86241 0.0
N7723 N 0.36697 0.75617 0.86181 0.0
C7724 C 0.3742 0.75165 0.86129 0.0
C7725 C 0.37335 0.74269 0.86163 0.0
C7726 C 0.99726 0.65684 0.58554 0.0
C7727 C 1.0019 0.65265 0.57927 0.0
C7728 C 0.9895 0.65375 0.58832 0.0
C7729 C 0.98602 0.64634 0.58497 0.0
H7730 H 0.99983 0.66232 0.58866 0.0
H7731 H 0.98635 0.65702 0.59341 0.0
S7732 S 0.99506 0.63358 0.5677 0.0
N7733 N 1.00202 0.64115 0.56919 0.0
N7734 N 0.98742 0.63528 0.57454 0.0
C7735 C 0.99031 0.64236 0.57835 0.0
C7736 C 0.99827 0.6455 0.57551 0.0
C7737 C 0.11515 0.26303 0.36238 0.0
C7738 C 0.12306 0.26693 0.36171 0.0
C7739 C 0.11432 0.25427 0.36197 0.0
C7740 C 0.12137 0.24901 0.36095 0.0
H7741 H 0.10957 0.26678 0.36347 0.0
H7742 H 0.10811 0.25157 0.36274 0.0
S7743 S 0.14346 0.25614 0.35846 0.0
N7744 N 0.13804 0.26494 0.35953 0.0
N7745 N 0.13653 0.24842 0.35891 0.0
C7746 C 0.12929 0.25285 0.35988 0.0
C7747 C 0.13012 0.26182 0.36023 0.0
C7748 C 0.50908 0.6572 0.42424 0.0
C7749 C 0.50231 0.65158 0.42523 0.0
C7750 C 0.51714 0.65433 0.42212 0.0
C7751 C 0.51879 0.64572 0.42081 0.0
H7752 H 0.50804 0.66392 0.42472 0.0
H7753 H 0.52203 0.65896 0.42109 0.0
S7754 S 0.50349 0.62833 0.42381 0.0
N7755 N 0.498 0.63694 0.42572 0.0
N7756 N 0.51312 0.63153 0.42159 0.0
C7757 C 0.51225 0.63998 0.42248 0.0
C7758 C 0.50402 0.64292 0.42471 0.0
C7759 C 0.1293 0.74222 0.14424 0.0
C7760 C 0.12266 0.73688 0.14189 0.0
C7761 C 0.1282 0.75101 0.14444 0.0
C7762 C 0.12042 0.75471 0.14233 0.0
H7763 H 0.13546 0.73961 0.14556 0.0
H7764 H 0.13359 0.75494 0.14586 0.0
S7765 S 0.1008 0.74325 0.137 0.0
N7766 N 0.10791 0.73578 0.1382 0.0
N7767 N 0.10575 0.7522 0.13881 0.0
C7768 C 0.11363 0.74934 0.1405 0.0
C7769 C 0.11478 0.74046 0.14022 0.0
C7770 C 0.99514 0.34803 0.92547 0.0
C7771 C 0.00217 0.35339 0.9252 0.0
C7772 C 0.98707 0.35093 0.92341 0.0
C7773 C 0.98568 0.35932 0.92091 0.0
H7774 H 0.99593 0.34143 0.92697 0.0
H7775 H 0.98193 0.34646 0.92343 0.0
S7776 S 1.00188 0.37612 0.91997 0.0
N7777 N 0.00712 0.36767 0.92295 0.0
N7778 N 0.99199 0.37312 0.91894 0.0
C7779 C 0.99257 0.36489 0.92117 0.0
C7780 C 1.0008 0.36193 0.92334 0.0
C7781 C 0.38877 0.26281 0.63886 0.0
C7782 C 0.3815 0.26678 0.64194 0.0
C7783 C 0.38966 0.25405 0.63913 0.0
C7784 C 0.38326 0.24885 0.64236 0.0
H7785 H 0.39376 0.26651 0.63605 0.0
H7786 H 0.39535 0.25132 0.63655 0.0
S7787 S 0.3631 0.25623 0.65157 0.0
N7788 N 0.36797 0.26497 0.64875 0.0
N7789 N 0.36949 0.24843 0.64904 0.0
C7790 C 0.37608 0.25278 0.64579 0.0
C7791 C 0.37524 0.26176 0.64561 0.0
C7792 C 0.08372 0.50285 0.36154 0.0
C7793 C 0.07939 0.50171 0.3539 0.0
C7794 C 0.08575 0.51091 0.3645 0.0
C7795 C 0.08352 0.51818 0.35996 0.0
H7796 H 0.08598 0.49745 0.36503 0.0
H7797 H 0.08951 0.51142 0.37016 0.0
S7798 S 0.07076 0.51869 0.34042 0.0
N7799 N 0.07197 0.50857 0.34243 0.0
N7800 N 0.07573 0.52372 0.34802 0.0
C7801 C 0.07866 0.51714 0.35262 0.0
C7802 C 0.07662 0.50893 0.34959 0.0
C7803 C 0.26156 0.36188 0.13101 0.0
C7804 C 0.26691 0.36083 0.12404 0.0
C7805 C 0.25276 0.36142 0.13009 0.0
C7806 C 0.24907 0.35996 0.12217 0.0
H7807 H 0.26418 0.36344 0.1371 0.0
H7808 H 0.24882 0.36265 0.13551 0.0
S7809 S 0.26041 0.35597 0.10222 0.0
N7810 N 0.26795 0.35765 0.10916 0.0
N7811 N 0.25146 0.35681 0.10743 0.0
C7812 C 0.25439 0.35851 0.11528 0.0
C7813 C 0.2633 0.35894 0.11622 0.0
C7814 C 0.42106 0.50099 0.86149 0.0
C7815 C 0.42413 0.50221 0.85327 0.0
C7816 C 0.41893 0.49293 0.86443 0.0
C7817 C 0.4198 0.48578 0.85927 0.0
H7818 H 0.4198 0.50634 0.8655 0.0
H7819 H 0.41609 0.49238 0.8706 0.0
S7820 S 0.4292 0.48539 0.83791 0.0
N7821 N 0.4291 0.49544 0.84049 0.0
N7822 N 0.42514 0.48033 0.84603 0.0
C7823 C 0.42351 0.48685 0.8513 0.0
C7824 C 0.42566 0.49504 0.84831 0.0
C7825 C 0.24241 0.64321 0.62964 0.0
C7826 C 0.23708 0.64264 0.62261 0.0
C7827 C 0.2512 0.64366 0.62865 0.0
C7828 C 0.25492 0.64356 0.6206 0.0
H7829 H 0.2398 0.64288 0.63593 0.0
H7830 H 0.25513 0.64363 0.63422 0.0
S7831 S 0.24356 0.64345 0.60024 0.0
N7832 N 0.23604 0.6429 0.60739 0.0
N7833 N 0.25249 0.64384 0.60552 0.0
C7834 C 0.24958 0.64354 0.61355 0.0
C7835 C 0.24069 0.64306 0.61456 0.0
C7836 C 0.08939 0.49889 0.15208 0.0
C7837 C 0.0813 0.50226 0.15084 0.0
C7838 C 0.0915 0.49089 0.14914 0.0
C7839 C 0.08564 0.48589 0.14481 0.0
H7840 H 0.09415 0.5025 0.15535 0.0
H7841 H 0.09782 0.48859 0.15025 0.0
S7842 S 0.06358 0.49165 0.14003 0.0
N7843 N 0.06735 0.49994 0.14505 0.0
N7844 N 0.07138 0.48481 0.13945 0.0
C7845 C 0.07756 0.48917 0.14341 0.0
C7846 C 0.07538 0.49738 0.14644 0.0
C7847 C 0.24121 0.36429 0.8888 0.0
C7848 C 0.23732 0.36182 0.88126 0.0
C7849 C 0.24996 0.36399 0.88974 0.0
C7850 C 0.25523 0.36134 0.88313 0.0
H7851 H 0.23745 0.36667 0.89397 0.0
H7852 H 0.25264 0.36613 0.89562 0.0
S7853 S 0.24807 0.35378 0.86223 0.0
N7854 N 0.23928 0.35616 0.86723 0.0
N7855 N 0.2558 0.3558 0.86887 0.0
C7856 C 0.25138 0.35848 0.87567 0.0
C7857 C 0.24241 0.35869 0.87476 0.0
C7858 C 0.42621 0.50848 0.65462 0.0
C7859 C 0.42459 0.50126 0.64976 0.0
C7860 C 0.4241 0.51654 0.65169 0.0
C7861 C 0.42025 0.51772 0.6438 0.0
H7862 H 0.42886 0.50788 0.66086 0.0
H7863 H 0.4252 0.52186 0.6558 0.0
S7864 S 0.41516 0.50092 0.62841 0.0
N7865 N 0.41935 0.49586 0.63645 0.0
N7866 N 0.41535 0.51097 0.63099 0.0
C7867 C 0.41905 0.5106 0.63868 0.0
C7868 C 0.42122 0.50238 0.64165 0.0
C7869 C 0.26216 0.64199 0.3737 0.0
C7870 C 0.26762 0.64306 0.38056 0.0
C7871 C 0.25338 0.64245 0.37477 0.0
C7872 C 0.24982 0.64393 0.38276 0.0
H7873 H 0.26467 0.64039 0.36757 0.0
H7874 H 0.24935 0.64116 0.36943 0.0
S7875 S 0.26155 0.64815 0.40246 0.0
N7876 N 0.26895 0.64637 0.39538 0.0
N7877 N 0.25251 0.64729 0.39742 0.0
C7878 C 0.25528 0.64549 0.38954 0.0
C7879 C 0.26416 0.64503 0.38843 0.0
C7880 C 0.35594 0.07509 0.50695 0.0
C7881 C 0.3541 0.08152 0.50115 0.0
C7882 C 0.35899 0.07703 0.51506 0.0
C7883 C 0.36029 0.08543 0.51751 0.0
H7884 H 0.35481 0.06858 0.50529 0.0
H7885 H 0.36013 0.07197 0.51948 0.0
S7886 S 0.35698 0.10439 0.50442 0.0
N7887 N 0.3542 0.0965 0.49828 0.0
N7888 N 0.35991 0.10011 0.51342 0.0
C7889 C 0.35871 0.09183 0.51167 0.0
C7890 C 0.35561 0.08988 0.5035 0.0
C7891 C 0.8614 0.42038 0.50137 0.0
C7892 C 0.85399 0.42508 0.50249 0.0
C7893 C 0.86437 0.41834 0.49331 0.0
C7894 C 0.86007 0.42096 0.48602 0.0
H7895 H 0.8647 0.41784 0.50676 0.0
H7896 H 0.86982 0.41429 0.49283 0.0
S7897 S 0.8412 0.4347 0.48552 0.0
N7898 N 0.84299 0.43318 0.49564 0.0
N7899 N 0.84862 0.42946 0.48048 0.0
C7900 C 0.85297 0.42616 0.48706 0.0
C7901 C 0.84992 0.42819 0.49527 0.0
C7902 C 0.36195 0.1306 0.26168 0.0
C7903 C 0.36136 0.12353 0.26695 0.0
C7904 C 0.36159 0.12975 0.25286 0.0
C7905 C 0.36064 0.12179 0.24908 0.0
H7906 H 0.36313 0.13675 0.26436 0.0
H7907 H 0.36251 0.13527 0.24898 0.0
S7908 S 0.35767 0.10154 0.26022 0.0
N7909 N 0.35897 0.10849 0.26783 0.0
N7910 N 0.35826 0.10688 0.25133 0.0
C7911 C 0.35954 0.11478 0.25434 0.0
C7912 C 0.35991 0.11565 0.26325 0.0
C7913 C 0.64322 0.58577 1.0016 0.0
C7914 C 0.64954 0.57968 0.00273 0.0
C7915 C 0.64027 0.58781 0.99354 0.0
C7916 C 0.64353 0.58383 0.98634 0.0
H7917 H 0.64082 0.58925 0.00695 0.0
H7918 H 0.63569 0.59282 0.99289 0.0
S7919 S 0.65936 0.56676 0.98602 0.0
N7920 N 0.65842 0.56919 0.99609 0.0
N7921 N 0.65287 0.57305 0.98091 0.0
C7922 C 0.64956 0.57747 0.98743 0.0
C7923 C 0.65256 0.57539 0.99563 0.0
C7924 C 0.64763 0.38364 0.26175 0.0
C7925 C 0.64032 0.38084 0.26593 0.0
C7926 C 0.64776 0.38477 0.25299 0.0
C7927 C 0.64056 0.38318 0.24815 0.0
H7928 H 0.65324 0.38516 0.26531 0.0
H7929 H 0.65343 0.38711 0.25003 0.0
S7930 S 0.62024 0.37469 0.25578 0.0
N7931 N 0.626 0.37572 0.26436 0.0
N7932 N 0.62621 0.37797 0.24795 0.0
C7933 C 0.63333 0.38009 0.25218 0.0
C7934 C 0.63321 0.3789 0.26106 0.0
C7935 C 0.14283 0.92091 0.00324 0.0
C7936 C 0.15072 0.92474 1.00205 0.0
C7937 C 0.13988 0.9189 0.01132 0.0
C7938 C 0.14467 0.92069 0.01856 0.0
H7939 H 0.13912 0.91899 0.99786 0.0
H7940 H 0.13401 0.91548 0.01183 0.0
S7941 S 0.16499 0.9322 0.01893 0.0
N7942 N 0.16276 0.93127 0.00883 0.0
N7943 N 0.15716 0.92765 0.02402 0.0
C7944 C 0.15228 0.92511 0.01748 0.0
C7945 C 0.15531 0.92709 0.00924 0.0
C7946 C 0.36125 0.88909 0.24122 0.0
C7947 C 0.3615 0.88114 0.23735 0.0
C7948 C 0.36073 0.8899 0.24999 0.0
C7949 C 0.3605 0.8828 0.25527 0.0
H7950 H 0.36171 0.89474 0.23745 0.0
H7951 H 0.36078 0.89617 0.25266 0.0
S7952 S 0.36068 0.86054 0.24821 0.0
N7953 N 0.3611 0.86602 0.23939 0.0
N7954 N 0.36028 0.86751 0.2559 0.0
C7955 C 0.36038 0.8748 0.25145 0.0
C7956 C 0.36085 0.87398 0.24248 0.0
C7957 C 0.13738 0.12937 0.7422 0.0
C7958 C 0.14254 0.12468 0.73673 0.0
C7959 C 0.13777 0.12824 0.75094 0.0
C7960 C 0.14337 0.12244 0.75454 0.0
H7961 H 0.13281 0.13375 0.73969 0.0
H7962 H 0.13344 0.13172 0.75489 0.0
S7963 S 0.15847 0.10888 0.74318 0.0
N7964 N 0.15363 0.11418 0.73567 0.0
N7965 N 0.15441 0.11222 0.75214 0.0
C7966 C 0.14883 0.118 0.74924 0.0
C7967 C 0.14842 0.1191 0.74032 0.0
C7968 C 0.0911 0.12632 0.43969 0.0
C7969 C 0.08404 0.12638 0.44502 0.0
C7970 C 0.09826 0.12154 0.44163 0.0
C7971 C 0.09866 0.11665 0.449 0.0
H7972 H 0.09107 0.12992 0.43391 0.0
H7973 H 0.10357 0.12178 0.43737 0.0
S7974 S 0.08192 0.11472 0.46513 0.0
N7975 N 0.07797 0.12125 0.45809 0.0
N7976 N 0.09135 0.11212 0.46163 0.0
C7977 C 0.09165 0.11666 0.4544 0.0
C7978 C 0.08437 0.12154 0.45243 0.0
C7979 C 0.15217 0.85295 0.67273 0.0
C7980 C 0.14527 0.84749 0.67185 0.0
C7981 C 0.15232 0.85907 0.67915 0.0
C7982 C 0.14566 0.85974 0.68495 0.0
H7983 H 0.15746 0.85247 0.66846 0.0
H7984 H 0.15774 0.86317 0.67968 0.0
S7985 S 0.12604 0.84712 0.68496 0.0
N7986 N 0.13156 0.84332 0.67703 0.0
N7987 N 0.13183 0.8547 0.68906 0.0
C7988 C 0.1387 0.85438 0.68399 0.0
C7989 C 0.13851 0.84827 0.67745 0.0
C7990 C 0.41919 0.88554 0.94413 0.0
C7991 C 0.41948 0.87673 0.94508 0.0
C7992 C 0.41193 0.89013 0.94624 0.0
C7993 C 0.40478 0.88608 0.94949 0.0
H7994 H 0.42457 0.8889 0.94165 0.0
H7995 H 0.41194 0.89689 0.94537 0.0
S7996 S 0.4023 0.86318 0.95315 0.0
N7997 N 0.41197 0.86418 0.94948 0.0
N7998 N 0.39836 0.87278 0.95341 0.0
C7999 C 0.405 0.8773 0.95047 0.0
C8000 C 0.41234 0.87263 0.94826 0.0
C8001 C 0.36314 0.14932 0.17175 0.0
C8002 C 0.35785 0.1564 0.17232 0.0
C8003 C 0.36279 0.14286 0.17777 0.0
C8004 C 0.35718 0.14327 0.1846 0.0
H8005 H 0.36792 0.14897 0.16691 0.0
H8006 H 0.36729 0.13775 0.17735 0.0
S8007 S 0.34094 0.15958 0.1881 0.0
N8008 N 0.34596 0.16274 0.17958 0.0
N8009 N 0.34553 0.15073 0.19101 0.0
C8010 C 0.35149 0.15 0.18493 0.0
C8011 C 0.35176 0.15652 0.17876 0.0
C8012 C 0.09154 0.87303 0.05633 0.0
C8013 C 0.08414 0.87712 0.05892 0.0
C8014 C 0.09878 0.87761 0.05419 0.0
C8015 C 0.09892 0.88645 0.0547 0.0
H8016 H 0.09171 0.86623 0.05586 0.0
H8017 H 0.10434 0.87421 0.05223 0.0
S8018 S 0.08128 0.90015 0.0613 0.0
N8019 N 0.07744 0.89052 0.06197 0.0
N8020 N 0.09108 0.89911 0.05802 0.0
C8021 C 0.0916 0.89061 0.05735 0.0
C8022 C 0.0842 0.88596 0.05942 0.0
C8023 C 0.36368 0.85429 0.33239 0.0
C8024 C 0.35769 0.84776 0.33248 0.0
C8025 C 0.36335 0.86072 0.32635 0.0
C8026 C 0.35706 0.86083 0.32014 0.0
H8027 H 0.36893 0.85422 0.33673 0.0
H8028 H 0.36832 0.86539 0.32627 0.0
S8029 S 0.3391 0.84612 0.31844 0.0
N8030 N 0.34461 0.84253 0.32649 0.0
N8031 N 0.34421 0.85447 0.31497 0.0
C8032 C 0.35077 0.85466 0.32044 0.0
C8033 C 0.35103 0.84817 0.32665 0.0
C8034 C 0.41911 0.12297 0.55212 0.0
C8035 C 0.41968 0.12739 0.55979 0.0
C8036 C 0.41195 0.11821 0.5501 0.0
C8037 C 0.40514 0.11759 0.55571 0.0
H8038 H 0.42421 0.12327 0.54761 0.0
H8039 H 0.41177 0.11495 0.54412 0.0
S8040 S 0.40346 0.12796 0.57655 0.0
N8041 N 0.41281 0.13076 0.57302 0.0
N8042 N 0.39932 0.12197 0.56915 0.0
C8043 C 0.40562 0.12198 0.56338 0.0
C8044 C 0.41289 0.12684 0.56542 0.0
C8045 C 0.14302 0.14571 0.83248 0.0
C8046 C 0.14784 0.15311 0.832 0.0
C8047 C 0.14358 0.13951 0.82622 0.0
C8048 C 0.14895 0.14054 0.81926 0.0
H8049 H 0.13839 0.14494 0.83742 0.0
H8050 H 0.13937 0.13416 0.82655 0.0
S8051 S 0.16404 0.15795 0.81591 0.0
N8052 N 0.15909 0.16047 0.82469 0.0
N8053 N 0.15995 0.14891 0.81282 0.0
C8054 C 0.15426 0.14758 0.81904 0.0
C8055 C 0.15376 0.15383 0.82545 0.0
C8056 C 0.44833 0.09091 0.13079 0.0
C8057 C 0.44506 0.08373 0.1268 0.0
C8058 C 0.45053 0.09809 0.12616 0.0
C8059 C 0.44948 0.09842 0.11736 0.0
H8060 H 0.44925 0.09096 0.13754 0.0
H8061 H 0.45294 0.1035 0.12954 0.0
S8062 S 0.44103 0.08132 0.10394 0.0
N8063 N 0.44073 0.07743 0.11357 0.0
N8064 N 0.44498 0.09088 0.10486 0.0
C8065 C 0.4462 0.09129 0.11331 0.0
C8066 C 0.44398 0.08396 0.11802 0.0
C8067 C 0.15323 0.17536 0.36631 0.0
C8068 C 0.15576 0.17126 0.35889 0.0
C8069 C 0.14737 0.18191 0.36611 0.0
C8070 C 0.14372 0.18457 0.35851 0.0
H8071 H 0.15601 0.17368 0.3723 0.0
H8072 H 0.14574 0.18502 0.37196 0.0
S8073 S 0.14771 0.17552 0.33743 0.0
N8074 N 0.15388 0.17006 0.34377 0.0
N8075 N 0.14269 0.18236 0.34345 0.0
C8076 C 0.14593 0.18035 0.35108 0.0
C8077 C 0.15202 0.17372 0.35126 0.0
C8078 C 0.05888 0.91979 0.61834 0.0
C8079 C 0.05938 0.9196 0.62719 0.0
C8080 C 0.05663 0.9126 0.61372 0.0
C8081 C 0.05468 0.905 0.61779 0.0
H8082 H 0.06034 0.92552 0.61496 0.0
H8083 H 0.05635 0.913 0.60692 0.0
S8084 S 0.0551 0.90115 0.6408 0.0
N8085 N 0.05773 0.91115 0.63982 0.0
N8086 N 0.05358 0.89765 0.63115 0.0
C8087 C 0.05517 0.90473 0.62662 0.0
C8088 C 0.05751 0.91201 0.63131 0.0
C8089 C 0.35611 0.8334 0.85976 0.0
C8090 C 0.34774 0.83184 0.85732 0.0
C8091 C 0.3622 0.827 0.85967 0.0
C8092 C 0.36015 0.81877 0.85713 0.0
H8093 H 0.35792 0.83956 0.86204 0.0
H8094 H 0.36843 0.82841 0.86204 0.0
S8095 S 0.33945 0.81157 0.84917 0.0
N8096 N 0.33792 0.82151 0.85172 0.0
N8097 N 0.34944 0.80964 0.85121 0.0
C8098 C 0.35197 0.81726 0.85413 0.0
C8099 C 0.34576 0.82375 0.85429 0.0
C8100 C 0.44294 0.91877 0.38535 0.0
C8101 C 0.44559 0.9197 0.37696 0.0
C8102 C 0.44492 0.91153 0.39 0.0
C8103 C 0.44973 0.90499 0.38646 0.0
H8104 H 0.43919 0.92364 0.38831 0.0
H8105 H 0.44269 0.91106 0.39642 0.0
S8106 S 0.45827 0.90444 0.36473 0.0
N8107 N 0.45335 0.91357 0.36533 0.0
N8108 N 0.45701 0.89992 0.37399 0.0
C8109 C 0.45247 0.90589 0.37808 0.0
C8110 C 0.4504 0.91324 0.37335 0.0
C8111 C 0.34757 0.17846 0.65239 0.0
C8112 C 0.34815 0.17159 0.64681 0.0
C8113 C 0.35393 0.18456 0.65285 0.0
C8114 C 0.36119 0.18399 0.64782 0.0
H8115 H 0.34202 0.17929 0.65625 0.0
H8116 H 0.35304 0.18992 0.65696 0.0
S8117 S 0.36606 0.16707 0.63251 0.0
N8118 N 0.35678 0.16446 0.63638 0.0
N8119 N 0.36878 0.17583 0.63738 0.0
C8120 C 0.36208 0.17693 0.64257 0.0
C8121 C 0.35556 0.17075 0.64204 0.0
C8122 C 0.05084 0.08632 0.87862 0.0
C8123 C 0.05927 0.08394 0.87736 0.0
C8124 C 0.04876 0.09358 0.8832 0.0
C8125 C 0.05502 0.09876 0.88673 0.0
H8126 H 0.04579 0.08262 0.87592 0.0
H8127 H 0.04217 0.09518 0.88392 0.0
S8128 S 0.07806 0.09516 0.88547 0.0
N8129 N 0.07392 0.08715 0.88033 0.0
N8130 N 0.07004 0.10094 0.88864 0.0
C8131 C 0.06348 0.09638 0.88561 0.0
C8132 C 0.06559 0.08896 0.88099 0.0
C8133 C 0.14768 0.83194 0.14036 0.0
C8134 C 0.15288 0.83369 0.14731 0.0
C8135 C 0.14172 0.82546 0.14065 0.0
C8136 C 0.14079 0.82046 0.14787 0.0
H8137 H 0.1485 0.83529 0.13449 0.0
H8138 H 0.13808 0.82409 0.13505 0.0
S8139 S 0.15191 0.82311 0.16812 0.0
N8140 N 0.15592 0.83048 0.16198 0.0
N8141 N 0.14492 0.81805 0.16233 0.0
C8142 C 0.1456 0.82236 0.15499 0.0
C8143 C 0.15159 0.82904 0.15476 0.0
C8144 C 0.13057 0.4484 0.09075 0.0
C8145 C 0.12665 0.44477 0.0837 0.0
C8146 C 0.12594 0.45047 0.09798 0.0
C8147 C 0.11723 0.4489 0.09847 0.0
H8148 H 0.13726 0.44972 0.09065 0.0
H8149 H 0.12925 0.45318 0.10328 0.0
S8150 S 0.10404 0.43936 0.08178 0.0
N8151 N 0.1136 0.43956 0.07771 0.0
N8152 N 0.10489 0.44353 0.09125 0.0
C8153 C 0.11325 0.44525 0.09148 0.0
C8154 C 0.11796 0.44318 0.0841 0.0
C8155 C 0.62481 0.06454 0.91433 0.0
C8156 C 0.62631 0.0586 0.92072 0.0
C8157 C 0.62009 0.06246 0.90716 0.0
C8158 C 0.61672 0.05434 0.90608 0.0
H8159 H 0.62725 0.07087 0.9149 0.0
H8160 H 0.6192 0.06721 0.90236 0.0
S8161 S 0.6189 0.03647 0.92089 0.0
N8162 N 0.62414 0.04421 0.92541 0.0
N8163 N 0.61516 0.04036 0.91202 0.0
C8164 C 0.61817 0.04835 0.91241 0.0
C8165 C 0.62296 0.05046 0.91971 0.0
C8166 C 0.17191 0.36275 0.14944 0.0
C8167 C 0.17215 0.35719 0.15634 0.0
C8168 C 0.17796 0.36232 0.14302 0.0
C8169 C 0.18449 0.35637 0.14329 0.0
H8170 H 0.16731 0.36776 0.14921 0.0
H8171 H 0.1778 0.36699 0.13806 0.0
S8172 S 0.18711 0.33948 0.15908 0.0
N8173 N 0.17879 0.34477 0.16234 0.0
N8174 N 0.19032 0.34422 0.15042 0.0
C8175 C 0.18451 0.35046 0.14983 0.0
C8176 C 0.1783 0.35081 0.15631 0.0
C8177 C 0.87984 0.95273 0.4183 0.0
C8178 C 0.87696 0.94447 0.4197 0.0
C8179 C 0.88445 0.95481 0.41106 0.0
C8180 C 0.88643 0.9487 0.40497 0.0
H8181 H 0.87842 0.95766 0.42278 0.0
H8182 H 0.88647 0.96126 0.41023 0.0
S8183 S 0.88047 0.92615 0.40569 0.0
N8184 N 0.8766 0.93012 0.41447 0.0
N8185 N 0.88507 0.93406 0.40078 0.0
C8186 C 0.88364 0.94041 0.40632 0.0
C8187 C 0.87894 0.9383 0.41369 0.0
C8188 C 0.82485 0.14973 0.15609 0.0
C8189 C 0.83317 0.14842 0.15337 0.0
C8190 C 0.81812 0.14959 0.15041 0.0
C8191 C 0.81941 0.14807 0.14179 0.0
H8192 H 0.82345 0.15046 0.16271 0.0
H8193 H 0.81182 0.15037 0.15287 0.0
S8194 S 0.84014 0.14533 0.13135 0.0
N8195 N 0.84245 0.14651 0.1414 0.0
N8196 N 0.82978 0.14591 0.13072 0.0
C8197 C 0.82776 0.14725 0.13891 0.0
C8198 C 0.83463 0.14746 0.14471 0.0
C8199 C 0.37836 0.55069 0.58686 0.0
C8200 C 0.37716 0.55914 0.58451 0.0
C8201 C 0.38292 0.54855 0.59411 0.0
C8202 C 0.38651 0.55477 0.5993 0.0
H8203 H 0.37561 0.54567 0.58315 0.0
H8204 H 0.38359 0.54196 0.59569 0.0
S8205 S 0.38548 0.57782 0.59574 0.0
N8206 N 0.38028 0.57374 0.58773 0.0
N8207 N 0.38859 0.56976 0.6015 0.0
C8208 C 0.38548 0.56324 0.59693 0.0
C8209 C 0.38086 0.56541 0.58953 0.0
C8210 C 0.17998 0.649 0.34791 0.0
C8211 C 0.17165 0.64798 0.35073 0.0
C8212 C 0.18676 0.64868 0.35351 0.0
C8213 C 0.18551 0.64728 0.36216 0.0
H8214 H 0.18132 0.64964 0.34126 0.0
H8215 H 0.19306 0.64923 0.35098 0.0
S8216 S 0.16484 0.64526 0.37285 0.0
N8217 N 0.16245 0.64644 0.36282 0.0
N8218 N 0.17521 0.64553 0.37336 0.0
C8219 C 0.17718 0.64674 0.36513 0.0
C8220 C 0.17025 0.64712 0.35941 0.0
C8221 C 0.33335 0.35929 0.8559 0.0
C8222 C 0.33186 0.35674 0.84754 0.0
C8223 C 0.32698 0.35897 0.86201 0.0
C8224 C 0.31885 0.35605 0.86003 0.0
H8225 H 0.33941 0.36185 0.85767 0.0
H8226 H 0.32831 0.36147 0.86821 0.0
S8227 S 0.31195 0.34759 0.83942 0.0
N8228 N 0.32175 0.35059 0.83782 0.0
N8229 N 0.30997 0.34961 0.84941 0.0
C8230 C 0.31746 0.35292 0.85188 0.0
C8231 C 0.3239 0.35333 0.84562 0.0
C8232 C 0.91763 0.88029 0.55146 0.0
C8233 C 0.91892 0.87625 0.55924 0.0
C8234 C 0.91077 0.88569 0.55018 0.0
C8235 C 0.90491 0.88724 0.55663 0.0
H8236 H 0.922 0.87931 0.54632 0.0
H8237 H 0.91007 0.88872 0.54412 0.0
S8238 S 0.90559 0.87856 0.57827 0.0
N8239 N 0.91386 0.8744 0.57355 0.0
N8240 N 0.90094 0.88447 0.57112 0.0
C8241 C 0.90606 0.88319 0.5644 0.0
C8242 C 0.91306 0.87771 0.56571 0.0
C8243 C 0.86467 0.14736 0.33127 0.0
C8244 C 0.85915 0.15427 0.33107 0.0
C8245 C 0.86377 0.14061 0.32566 0.0
C8246 C 0.8573 0.14049 0.31961 0.0
H8247 H 0.86993 0.14729 0.3356 0.0
H8248 H 0.86825 0.13549 0.32601 0.0
S8249 S 0.84071 0.15671 0.31697 0.0
N8250 N 0.84655 0.16023 0.3248 0.0
N8251 N 0.84504 0.14774 0.31403 0.0
C8252 C 0.85154 0.14721 0.31955 0.0
C8253 C 0.85243 0.15405 0.32531 0.0
C8254 C 0.59172 0.1302 0.05575 0.0
C8255 C 0.58407 0.1272 0.05903 0.0
C8256 C 0.59854 0.12473 0.05438 0.0
C8257 C 0.59796 0.1161 0.05631 0.0
H8258 H 0.59239 0.13678 0.05411 0.0
H8259 H 0.60428 0.12726 0.05172 0.0
S8260 S 0.5796 0.10541 0.066 0.0
N8261 N 0.57651 0.11524 0.06474 0.0
N8262 N 0.58931 0.10502 0.06233 0.0
C8263 C 0.5904 0.11311 0.05981 0.0
C8264 C 0.58347 0.11865 0.06114 0.0
C8265 C 0.63906 0.85037 0.82363 0.0
C8266 C 0.64443 0.84978 0.8306 0.0
C8267 C 0.63983 0.85699 0.81786 0.0
C8268 C 0.646 0.86326 0.81886 0.0
H8269 H 0.63423 0.84567 0.82264 0.0
H8270 H 0.63558 0.85715 0.81254 0.0
S8271 S 0.66146 0.86457 0.8363 0.0
N8272 N 0.65605 0.85594 0.83832 0.0
N8273 N 0.65747 0.8685 0.82755 0.0
C8274 C 0.65142 0.86271 0.82585 0.0
C8275 C 0.65063 0.85594 0.83171 0.0
C8276 C 0.91849 0.12309 0.95255 0.0
C8277 C 0.91893 0.12816 0.9453 0.0
C8278 C 0.91162 0.11774 0.95399 0.0
C8279 C 0.9049 0.11728 0.94826 0.0
H8280 H 0.92354 0.12317 0.95711 0.0
H8281 H 0.91161 0.11386 0.95959 0.0
S8282 S 0.90304 0.12909 0.92823 0.0
N8283 N 0.91206 0.13228 0.93228 0.0
N8284 N 0.89913 0.12229 0.93503 0.0
C8285 C 0.90517 0.12243 0.94107 0.0
C8286 C 0.91218 0.12785 0.93959 0.0
C8287 C 0.64857 0.14391 0.6716 0.0
C8288 C 0.64504 0.15175 0.67366 0.0
C8289 C 0.64933 0.13756 0.67771 0.0
C8290 C 0.64643 0.13882 0.68598 0.0
H8291 H 0.65081 0.14273 0.66528 0.0
H8292 H 0.65209 0.13159 0.67592 0.0
S8293 S 0.63674 0.15824 0.69445 0.0
N8294 N 0.63869 0.16044 0.68449 0.0
N8295 N 0.64003 0.1485 0.6959 0.0
C8296 C 0.64289 0.14663 0.68807 0.0
C8297 C 0.64222 0.1531 0.68192 0.0
C8298 C 0.5845 0.88487 0.44211 0.0
C8299 C 0.58466 0.87653 0.44506 0.0
C8300 C 0.59129 0.89032 0.44344 0.0
C8301 C 0.59851 0.88767 0.44782 0.0
H8302 H 0.57911 0.88719 0.43864 0.0
H8303 H 0.59091 0.89664 0.44093 0.0
S8304 S 0.60188 0.86659 0.45722 0.0
N8305 N 0.59252 0.86594 0.45276 0.0
N8306 N 0.60529 0.87622 0.45536 0.0
C8307 C 0.59875 0.87936 0.45084 0.0
C8308 C 0.59182 0.87378 0.44944 0.0
C8309 C 0.85745 0.84859 0.18168 0.0
C8310 C 0.85983 0.85022 0.1733 0.0
C8311 C 0.85658 0.85513 0.18755 0.0
C8312 C 0.85812 0.86353 0.18528 0.0
H8313 H 0.85653 0.84219 0.18383 0.0
H8314 H 0.85497 0.85356 0.19398 0.0
S8315 S 0.8633 0.87131 0.16392 0.0
N8316 N 0.8628 0.86099 0.16285 0.0
N8317 N 0.86132 0.87324 0.17393 0.0
C8318 C 0.86015 0.86529 0.17686 0.0
C8319 C 0.86097 0.85865 0.17086 0.0
C8320 C 0.55569 0.91187 0.87385 0.0
C8321 C 0.55814 0.91977 0.87698 0.0
C8322 C 0.55438 0.90503 0.8793 0.0
C8323 C 0.55553 0.90583 0.88805 0.0
H8324 H 0.55471 0.91099 0.86717 0.0
H8325 H 0.55239 0.89908 0.87663 0.0
S8326 S 0.5628 0.92501 0.89921 0.0
N8327 N 0.56217 0.92789 0.88926 0.0
N8328 N 0.55988 0.91505 0.89946 0.0
C8329 C 0.55815 0.91368 0.8912 0.0
C8330 C 0.55942 0.92063 0.88568 0.0
C8331 C 0.85709 0.83133 0.63942 0.0
C8332 C 0.85037 0.83138 0.64518 0.0
C8333 C 0.86385 0.82574 0.64031 0.0
C8334 C 0.86418 0.81993 0.647 0.0
H8335 H 0.857 0.83546 0.634 0.0
H8336 H 0.86882 0.82591 0.63565 0.0
S8337 S 0.8485 0.81799 0.66421 0.0
N8338 N 0.84482 0.82562 0.65821 0.0
N8339 N 0.85731 0.81485 0.65969 0.0
C8340 C 0.85764 0.82012 0.65297 0.0
C8341 C 0.85079 0.82588 0.6521 0.0
C8342 C 0.93987 0.09137 0.37721 0.0
C8343 C 0.94559 0.08462 0.37682 0.0
C8344 C 0.94128 0.09825 0.38256 0.0
C8345 C 0.94845 0.09862 0.38774 0.0
H8346 H 0.93411 0.09121 0.37357 0.0
H8347 H 0.93657 0.10316 0.38286 0.0
S8348 S 0.96589 0.08315 0.38824 0.0
N8349 N 0.9591 0.07917 0.38146 0.0
N8350 N 0.96169 0.09205 0.39157 0.0
C8351 C 0.95437 0.09209 0.38716 0.0
C8352 C 0.95296 0.08511 0.38169 0.0
C8353 C 0.64579 0.17124 0.14456 0.0
C8354 C 0.65421 0.17386 0.14547 0.0
C8355 C 0.6391 0.17694 0.14543 0.0
C8356 C 0.64057 0.18544 0.14735 0.0
H8357 H 0.64435 0.16475 0.14306 0.0
H8358 H 0.63273 0.17469 0.14455 0.0
S8359 S 0.66133 0.1956 0.15019 0.0
N8360 N 0.66357 0.18566 0.14821 0.0
N8361 N 0.65097 0.19625 0.1501 0.0
C8362 C 0.6489 0.18812 0.14845 0.0
C8363 C 0.65572 0.18236 0.14746 0.0
C8364 C 0.56251 0.08501 0.61908 0.0
C8365 C 0.55885 0.08466 0.62712 0.0
C8366 C 0.56109 0.09185 0.61371 0.0
C8367 C 0.55591 0.0986 0.61613 0.0
H8368 H 0.56658 0.07999 0.61694 0.0
H8369 H 0.56417 0.09187 0.60763 0.0
S8370 S 0.54449 0.10051 0.6364 0.0
N8371 N 0.54966 0.09153 0.6372 0.0
N8372 N 0.54688 0.10437 0.62705 0.0
C8373 C 0.55218 0.09832 0.62416 0.0
C8374 C 0.55368 0.09136 0.62966 0.0
C8375 C 0.65535 0.82189 0.36331 0.0
C8376 C 0.65479 0.8301 0.36007 0.0
C8377 C 0.64865 0.81622 0.36259 0.0
C8378 C 0.64116 0.8185 0.35848 0.0
H8379 H 0.66099 0.81986 0.36655 0.0
H8380 H 0.64936 0.80996 0.36519 0.0
S8381 S 0.63653 0.83921 0.3488 0.0
N8382 N 0.64616 0.84023 0.35256 0.0
N8383 N 0.63355 0.82953 0.35112 0.0
C8384 C 0.64052 0.82667 0.35514 0.0
C8385 C 0.64733 0.83249 0.35597 0.0
C8386 C 0.95204 0.91848 0.12257 0.0
C8387 C 0.94526 0.91852 0.12827 0.0
C8388 C 0.95346 0.91165 0.11718 0.0
C8389 C 0.94817 0.90456 0.11727 0.0
H8390 H 0.95624 0.92384 0.12219 0.0
H8391 H 0.95869 0.91197 0.11282 0.0
S8392 S 0.92949 0.90153 0.13093 0.0
N8393 N 0.93319 0.91084 0.13366 0.0
N8394 N 0.93588 0.89798 0.12355 0.0
C8395 C 0.94149 0.90442 0.12307 0.0
C8396 C 0.94003 0.91139 0.12856 0.0
C8397 C 0.85673 0.17346 0.86509 0.0
C8398 C 0.85001 0.17328 0.85933 0.0
C8399 C 0.86339 0.17918 0.86417 0.0
C8400 C 0.8636 0.18496 0.85746 0.0
H8401 H 0.85672 0.16935 0.87052 0.0
H8402 H 0.86836 0.17914 0.86882 0.0
S8403 S 0.84789 0.18656 0.84026 0.0
N8404 N 0.84434 0.1789 0.8463 0.0
N8405 N 0.85665 0.18987 0.84474 0.0
C8406 C 0.85707 0.18464 0.85149 0.0
C8407 C 0.85033 0.17877 0.85239 0.0
C8408 C 0.88542 0.55972 0.91996 0.0
C8409 C 0.87668 0.55854 0.91927 0.0
C8410 C 0.89077 0.55838 0.9131 0.0
C8411 C 0.88762 0.55576 0.90525 0.0
H8412 H 0.88814 0.56185 0.92583 0.0
H8413 H 0.89743 0.55956 0.91391 0.0
S8414 S 0.86527 0.55121 0.90031 0.0
N8415 N 0.86512 0.55429 0.91023 0.0
N8416 N 0.87521 0.55165 0.89732 0.0
C8417 C 0.87889 0.55445 0.9045 0.0
C8418 C 0.87343 0.55587 0.9115 0.0
C8419 C 0.37418 0.94927 0.09157 0.0
C8420 C 0.37708 0.94539 0.08416 0.0
C8421 C 0.37963 0.95068 0.09839 0.0
C8422 C 0.38814 0.94822 0.09806 0.0
H8423 H 0.36771 0.95133 0.09203 0.0
H8424 H 0.37719 0.95382 0.10393 0.0
S8425 S 0.39846 0.93685 0.08047 0.0
N8426 N 0.38877 0.93853 0.07714 0.0
N8427 N 0.39894 0.94103 0.08996 0.0
C8428 C 0.391 0.9441 0.09077 0.0
C8429 C 0.38549 0.94272 0.08384 0.0
C8430 C 0.83044 0.65091 0.85512 0.0
C8431 C 0.83062 0.64364 0.85011 0.0
C8432 C 0.82458 0.65175 0.86169 0.0
C8433 C 0.81866 0.64536 0.8634 0.0
H8434 H 0.83494 0.65591 0.85403 0.0
H8435 H 0.82478 0.65735 0.86555 0.0
S8436 S 0.81599 0.62556 0.85134 0.0
N8437 N 0.82411 0.63024 0.84686 0.0
N8438 N 0.81295 0.63187 0.85899 0.0
C8439 C 0.81864 0.6382 0.8582 0.0
C8440 C 0.82465 0.63732 0.85161 0.0
C8441 C 0.119 0.06192 0.5849 0.0
C8442 C 0.12725 0.05875 0.58494 0.0
C8443 C 0.11355 0.06058 0.59168 0.0
C8444 C 0.11611 0.05599 0.59879 0.0
H8445 H 0.11674 0.06555 0.57958 0.0
H8446 H 0.10729 0.06325 0.59138 0.0
S8447 S 0.13697 0.046 0.60186 0.0
N8448 N 0.13769 0.05064 0.59259 0.0
N8449 N 0.1274 0.04804 0.60536 0.0
C8450 C 0.12435 0.05277 0.59893 0.0
C8451 C 0.12993 0.05416 0.59201 0.0
C8452 C 0.17444 0.85323 0.85428 0.0
C8453 C 0.17362 0.86074 0.84968 0.0
C8454 C 0.18037 0.85253 0.86081 0.0
C8455 C 0.18573 0.85928 0.8629 0.0
H8456 H 0.17041 0.84792 0.85288 0.0
H8457 H 0.18068 0.8467 0.86431 0.0
S8458 S 0.18662 0.87993 0.85206 0.0
N8459 N 0.17895 0.87483 0.84728 0.0
N8460 N 0.1902 0.87347 0.85934 0.0
C8461 C 0.18508 0.86673 0.85816 0.0
C8462 C 0.17901 0.86746 0.8516 0.0
C8463 C 0.62824 0.45216 0.41448 0.0
C8464 C 0.62818 0.44466 0.41916 0.0
C8465 C 0.62257 0.45338 0.4078 0.0
C8466 C 0.61657 0.4472 0.40575 0.0
H8467 H 0.63268 0.4571 0.41601 0.0
H8468 H 0.62276 0.45924 0.40433 0.0
S8469 S 0.61396 0.42648 0.41609 0.0
N8470 N 0.62179 0.43096 0.42123 0.0
N8471 N 0.61104 0.4333 0.40882 0.0
C8472 C 0.6165 0.43968 0.41038 0.0
C8473 C 0.62234 0.4384 0.41706 0.0
C8474 C 0.8301 0.36572 0.64819 0.0
C8475 C 0.83117 0.35934 0.65423 0.0
C8476 C 0.82437 0.36482 0.64154 0.0
C8477 C 0.81943 0.35752 0.64065 0.0
H8478 H 0.83351 0.37159 0.64874 0.0
H8479 H 0.82374 0.36995 0.6371 0.0
S8480 S 0.82038 0.33865 0.6544 0.0
N8481 N 0.82735 0.34517 0.65849 0.0
N8482 N 0.81629 0.34362 0.64625 0.0
C8483 C 0.82065 0.35097 0.6465 0.0
C8484 C 0.82656 0.35186 0.65322 0.0
C8485 C 0.67204 0.64883 0.1473 0.0
C8486 C 0.67416 0.64439 0.15465 0.0
C8487 C 0.67784 0.64962 0.14066 0.0
C8488 C 0.68585 0.64585 0.14111 0.0
H8489 H 0.66591 0.65174 0.14671 0.0
H8490 H 0.676 0.65307 0.13508 0.0
S8491 S 0.69433 0.63359 0.15902 0.0
N8492 N 0.68474 0.63624 0.16202 0.0
N8493 N 0.69558 0.63766 0.14955 0.0
C8494 C 0.68799 0.64142 0.14844 0.0
C8495 C 0.68215 0.64071 0.1552 0.0
C8496 C 0.58434 0.61855 0.9466 0.0
C8497 C 0.58494 0.6272 0.94469 0.0
C8498 C 0.5915 0.61382 0.94871 0.0
C8499 C 0.59947 0.6176 0.94912 0.0
H8500 H 0.5783 0.61541 0.94635 0.0
H8501 H 0.5908 0.60719 0.95011 0.0
S8502 S 0.60448 0.63994 0.9448 0.0
N8503 N 0.5942 0.63929 0.94342 0.0
N8504 N 0.60761 0.63039 0.94741 0.0
C8505 C 0.60016 0.6262 0.94725 0.0
C8506 C 0.59291 0.631 0.94503 0.0
C8507 C 0.64574 0.35852 0.17006 0.0
C8508 C 0.64791 0.35005 0.1714 0.0
C8509 C 0.64574 0.36433 0.1767 0.0
C8510 C 0.6479 0.36187 0.18493 0.0
H8511 H 0.64373 0.36061 0.1639 0.0
H8512 H 0.64357 0.37066 0.17546 0.0
S8513 S 0.65491 0.34066 0.19161 0.0
N8514 N 0.65277 0.33963 0.1815 0.0
N8515 N 0.6531 0.35063 0.19387 0.0
C8516 C 0.6506 0.35356 0.18623 0.0
C8517 C 0.65054 0.34763 0.1795 0.0
C8518 C 0.91811 0.37938 0.45283 0.0
C8519 C 0.91973 0.37712 0.44442 0.0
C8520 C 0.91085 0.38388 0.45504 0.0
C8521 C 0.9049 0.38632 0.44895 0.0
H8522 H 0.92243 0.37755 0.45777 0.0
H8523 H 0.90987 0.38543 0.4616 0.0
S8524 S 0.9063 0.38213 0.42601 0.0
N8525 N 0.91496 0.37795 0.42993 0.0
N8526 N 0.90115 0.38609 0.43411 0.0
C8527 C 0.90649 0.38417 0.4405 0.0
C8528 C 0.91392 0.37963 0.43824 0.0
C8529 C 0.8582 0.64546 0.67093 0.0
C8530 C 0.85643 0.65406 0.67199 0.0
C8531 C 0.85795 0.63989 0.67777 0.0
C8532 C 0.85598 0.64274 0.68593 0.0
H8533 H 0.86006 0.64307 0.66482 0.0
H8534 H 0.85977 0.6334 0.67676 0.0
S8535 S 0.8502 0.66451 0.69192 0.0
N8536 N 0.85222 0.66507 0.68175 0.0
N8537 N 0.85155 0.65455 0.69453 0.0
C8538 C 0.85376 0.65122 0.68697 0.0
C8539 C 0.85402 0.65689 0.68002 0.0
C8540 C 0.58606 0.37949 0.55072 0.0
C8541 C 0.58423 0.37744 0.55914 0.0
C8542 C 0.59325 0.38414 0.5486 0.0
C8543 C 0.5989 0.38697 0.5548 0.0
H8544 H 0.58196 0.37737 0.54571 0.0
H8545 H 0.59442 0.3855 0.54202 0.0
S8546 S 0.5969 0.38343 0.5778 0.0
N8547 N 0.58851 0.37885 0.57374 0.0
N8548 N 0.60217 0.38732 0.56974 0.0
C8549 C 0.5971 0.38503 0.56325 0.0
C8550 C 0.58976 0.38032 0.56542 0.0
C8551 C 0.85128 0.34941 0.82776 0.0
C8552 C 0.85841 0.34852 0.83298 0.0
C8553 C 0.85088 0.3557 0.82156 0.0
C8554 C 0.85751 0.36142 0.82047 0.0
H8555 H 0.84607 0.34506 0.82831 0.0
H8556 H 0.84544 0.35597 0.81746 0.0
S8557 S 0.87749 0.36199 0.83241 0.0
N8558 N 0.87226 0.35402 0.83652 0.0
N8559 N 0.87129 0.36598 0.8251 0.0
C8560 C 0.86451 0.36084 0.82581 0.0
C8561 C 0.865 0.35437 0.83203 0.0
C8562 C 0.91187 0.63057 0.05918 0.0
C8563 C 0.91993 0.62691 0.05923 0.0
C8564 C 0.90472 0.62584 0.0571 0.0
C8565 C 0.90538 0.61728 0.05501 0.0
H8566 H 0.91109 0.63717 0.06069 0.0
H8567 H 0.89863 0.62889 0.05712 0.0
S8568 S 0.92484 0.60457 0.05454 0.0
N8569 N 0.92804 0.61407 0.05727 0.0
N8570 N 0.91455 0.60525 0.05326 0.0
C8571 C 0.91333 0.61351 0.05506 0.0
C8572 C 0.92063 0.61831 0.05718 0.0
C8573 C 0.64565 0.6486 0.33284 0.0
C8574 C 0.64669 0.65724 0.33117 0.0
C8575 C 0.64577 0.64261 0.32632 0.0
C8576 C 0.64688 0.64506 0.31788 0.0
H8577 H 0.64449 0.64646 0.3392 0.0
H8578 H 0.64454 0.63609 0.32786 0.0
S8579 S 0.6506 0.66675 0.31019 0.0
N8580 N 0.6493 0.66783 0.32043 0.0
N8581 N 0.6498 0.65658 0.3083 0.0
C8582 C 0.64839 0.6536 0.31619 0.0
C8583 C 0.64823 0.65968 0.32279 0.0
C8584 C 0.94573 0.59192 0.63077 0.0
C8585 C 0.94512 0.58401 0.62684 0.0
C8586 C 0.94786 0.59914 0.62617 0.0
C8587 C 0.94933 0.59872 0.61746 0.0
H8588 H 0.94465 0.59252 0.63747 0.0
H8589 H 0.94831 0.60511 0.62942 0.0
S8590 S 0.9483 0.57969 0.60413 0.0
N8591 N 0.94603 0.57627 0.61368 0.0
N8592 N 0.94996 0.58991 0.60505 0.0
C8593 C 0.94867 0.59092 0.61343 0.0
C8594 C 0.9466 0.58355 0.61812 0.0
C8595 C 0.64537 0.67066 0.85841 0.0
C8596 C 0.65398 0.67186 0.85676 0.0
C8597 C 0.63979 0.67749 0.85865 0.0
C8598 C 0.64263 0.68577 0.8573 0.0
H8599 H 0.64299 0.66442 0.85977 0.0
H8600 H 0.63329 0.67632 0.86032 0.0
S8601 S 0.66443 0.69222 0.85213 0.0
N8602 N 0.665 0.68194 0.85341 0.0
N8603 N 0.65446 0.69469 0.85359 0.0
C8604 C 0.65113 0.68699 0.85523 0.0
C8605 C 0.65682 0.68006 0.85502 0.0
C8606 C 0.55041 0.41812 0.12469 0.0
C8607 C 0.55883 0.42008 0.12659 0.0
C8608 C 0.54832 0.41091 0.12004 0.0
C8609 C 0.55457 0.4054 0.11706 0.0
H8610 H 0.54536 0.42212 0.12693 0.0
H8611 H 0.54174 0.40963 0.11881 0.0
S8612 S 0.57759 0.40778 0.12017 0.0
N8613 N 0.57348 0.41606 0.1249 0.0
N8614 N 0.56956 0.4024 0.11638 0.0
C8615 C 0.56302 0.40734 0.11884 0.0
C8616 C 0.56515 0.41468 0.12356 0.0
C8617 C 0.8527 0.33076 0.35178 0.0
C8618 C 0.84797 0.33225 0.35913 0.0
C8619 C 0.85882 0.32435 0.35153 0.0
C8620 C 0.86019 0.31912 0.35854 0.0
H8621 H 0.85165 0.33457 0.34624 0.0
H8622 H 0.86235 0.32335 0.34579 0.0
S8623 S 0.84954 0.32058 0.37923 0.0
N8624 N 0.8452 0.32811 0.37355 0.0
N8625 N 0.85654 0.31605 0.37305 0.0
C8626 C 0.85555 0.32063 0.3659 0.0
C8627 C 0.84946 0.32719 0.36619 0.0
C8628 C 0.94468 0.41935 0.88573 0.0
C8629 C 0.94515 0.41943 0.87688 0.0
C8630 C 0.94688 0.41216 0.89037 0.0
C8631 C 0.94976 0.40484 0.88634 0.0
H8632 H 0.9425 0.42486 0.88909 0.0
H8633 H 0.9464 0.41236 0.89717 0.0
S8634 S 0.95207 0.40176 0.86332 0.0
N8635 N 0.94871 0.41154 0.86429 0.0
N8636 N 0.95275 0.39803 0.87298 0.0
C8637 C 0.95024 0.40483 0.8775 0.0
C8638 C 0.94795 0.41212 0.87278 0.0
C8639 C 0.85181 0.67394 0.15243 0.0
C8640 C 0.84823 0.6715 0.14469 0.0
C8641 C 0.85793 0.68035 0.15281 0.0
C8642 C 0.86048 0.6846 0.14549 0.0
H8643 H 0.84982 0.67093 0.15821 0.0
H8644 H 0.86049 0.68215 0.15886 0.0
S8645 S 0.85311 0.68055 0.12376 0.0
N8646 N 0.8478 0.6738 0.12959 0.0
N8647 N 0.85919 0.6858 0.13034 0.0
C8648 C 0.85705 0.68212 0.13775 0.0
C8649 C 0.85094 0.67558 0.13734 0.0
C8650 C 0.56424 0.59075 0.37817 0.0
C8651 C 0.55874 0.58383 0.3778 0.0
C8652 C 0.56223 0.59795 0.38286 0.0
C8653 C 0.55462 0.59854 0.38737 0.0
H8654 H 0.5702 0.59058 0.37487 0.0
H8655 H 0.56662 0.60316 0.38283 0.0
S8656 S 0.53801 0.58219 0.3884 0.0
N8657 N 0.54527 0.5781 0.38221 0.0
N8658 N 0.54161 0.59151 0.39123 0.0
C8659 C 0.54907 0.59166 0.38706 0.0
C8660 C 0.55111 0.58434 0.38225 0.0
C8661 C 0.65614 0.32639 0.6524 0.0
C8662 C 0.65581 0.33312 0.64663 0.0
C8663 C 0.64975 0.32031 0.65274 0.0
C8664 C 0.6427 0.3208 0.64743 0.0
H8665 H 0.66152 0.32565 0.6565 0.0
H8666 H 0.65044 0.31504 0.65701 0.0
S8667 S 0.63855 0.33726 0.63145 0.0
N8668 N 0.64767 0.33995 0.63562 0.0
N8669 N 0.63558 0.32868 0.63647 0.0
C8670 C 0.64206 0.32771 0.64196 0.0
C8671 C 0.64862 0.33384 0.64152 0.0
C8672 C 0.63112 0.94751 0.59146 0.0
C8673 C 0.62694 0.94508 0.58405 0.0
C8674 C 0.62661 0.94965 0.59874 0.0
C8675 C 0.61776 0.94936 0.59893 0.0
H8676 H 0.63792 0.94783 0.59161 0.0
H8677 H 0.6301 0.95144 0.60431 0.0
S8678 S 0.60385 0.94326 0.58124 0.0
N8679 N 0.61346 0.94237 0.57739 0.0
N8680 N 0.605 0.94645 0.59106 0.0
C8681 C 0.61351 0.94689 0.59158 0.0
C8682 C 0.6181 0.94477 0.58415 0.0
C8683 C 0.12251 0.55229 0.41908 0.0
C8684 C 0.12756 0.55957 0.41944 0.0
C8685 C 0.11782 0.55033 0.41186 0.0
C8686 C 0.1179 0.55562 0.40477 0.0
H8687 H 0.12225 0.54803 0.42439 0.0
H8688 H 0.11404 0.54466 0.41185 0.0
S8689 S 0.13013 0.57536 0.40246 0.0
N8690 N 0.13232 0.57208 0.41207 0.0
N8691 N 0.12363 0.56831 0.39847 0.0
C8692 C 0.12294 0.56289 0.40504 0.0
C8693 C 0.12774 0.56487 0.41237 0.0
C8694 C 0.67099 0.85777 0.64517 0.0
C8695 C 0.672 0.85562 0.6537 0.0
C8696 C 0.67779 0.85748 0.63955 0.0
C8697 C 0.68587 0.85509 0.64228 0.0
H8698 H 0.66495 0.85995 0.64289 0.0
H8699 H 0.67681 0.85959 0.63315 0.0
S8700 S 0.69173 0.84823 0.66377 0.0
N8701 N 0.68165 0.85062 0.66447 0.0
N8702 N 0.69434 0.84987 0.65385 0.0
C8703 C 0.68686 0.85249 0.65066 0.0
C8704 C 0.67996 0.85281 0.65638 0.0
C8705 C 0.37812 0.43955 0.91369 0.0
C8706 C 0.37758 0.44517 0.92051 0.0
C8707 C 0.38277 0.44156 0.90646 0.0
C8708 C 0.38702 0.4493 0.90573 0.0
H8709 H 0.375 0.4335 0.91397 0.0
H8710 H 0.38292 0.43708 0.90133 0.0
S8711 S 0.38753 0.46625 0.92173 0.0
N8712 N 0.3816 0.45887 0.926 0.0
N8713 N 0.39043 0.46258 0.91246 0.0
C8714 C 0.38652 0.45498 0.91248 0.0
C8715 C 0.38181 0.45293 0.91986 0.0
C8716 C 0.33216 0.65049 0.65026 0.0
C8717 C 0.33162 0.64508 0.65724 0.0
C8718 C 0.32575 0.65064 0.64414 0.0
C8719 C 0.31864 0.64537 0.64482 0.0
H8720 H 0.33749 0.65468 0.6496 0.0
H8721 H 0.32632 0.65495 0.6389 0.0
S8722 S 0.31495 0.62942 0.66149 0.0
N8723 N 0.32383 0.63403 0.66423 0.0
N8724 N 0.31197 0.63406 0.6527 0.0
C8725 C 0.31825 0.63976 0.65167 0.0
C8726 C 0.3247 0.63968 0.65788 0.0
C8727 C 0.88021 0.05161 0.08589 0.0
C8728 C 0.87734 0.05987 0.08446 0.0
C8729 C 0.88477 0.04954 0.09316 0.0
C8730 C 0.88668 0.05564 0.0993 0.0
H8731 H 0.87881 0.04667 0.08141 0.0
H8732 H 0.8868 0.04309 0.09398 0.0
S8733 S 0.88075 0.07821 0.09847 0.0
N8734 N 0.87699 0.07424 0.08965 0.0
N8735 N 0.88526 0.07029 0.10345 0.0
C8736 C 0.8839 0.06393 0.0979 0.0
C8737 C 0.87929 0.06605 0.09048 0.0
C8738 C 0.6715 0.14504 0.85598 0.0
C8739 C 0.67321 0.14658 0.84742 0.0
C8740 C 0.67795 0.14503 0.86203 0.0
C8741 C 0.68637 0.14653 0.85974 0.0
H8742 H 0.66515 0.14359 0.858 0.0
H8743 H 0.67638 0.14339 0.86845 0.0
S8744 S 0.69412 0.15172 0.83836 0.0
N8745 N 0.68394 0.15011 0.8371 0.0
N8746 N 0.69594 0.15045 0.84849 0.0
C8747 C 0.68808 0.14858 0.85131 0.0
C8748 C 0.68155 0.14852 0.84515 0.0
C8749 C 0.82357 0.8551 0.34553 0.0
C8750 C 0.83196 0.85673 0.34781 0.0
C8751 C 0.81713 0.85494 0.35154 0.0
C8752 C 0.81877 0.85646 0.36011 0.0
H8753 H 0.82185 0.85434 0.33898 0.0
H8754 H 0.81074 0.85392 0.3494 0.0
S8755 S 0.83984 0.85998 0.36953 0.0
N8756 N 0.84172 0.85893 0.35937 0.0
N8757 N 0.82956 0.85899 0.37065 0.0
C8758 C 0.8272 0.85761 0.36256 0.0
C8759 C 0.8338 0.8577 0.35642 0.0
C8760 C 0.41238 0.37657 0.06355 0.0
C8761 C 0.41963 0.37695 0.05847 0.0
C8762 C 0.40553 0.38196 0.06214 0.0
C8763 C 0.40567 0.38795 0.05562 0.0
H8764 H 0.41212 0.3723 0.06885 0.0
H8765 H 0.40021 0.38166 0.0664 0.0
S8766 S 0.42258 0.39062 0.03979 0.0
N8767 N 0.42612 0.38317 0.0461 0.0
N8768 N 0.41328 0.39333 0.04351 0.0
C8769 C 0.4127 0.38811 0.05026 0.0
C8770 C 0.41965 0.38261 0.05167 0.0
C8771 C 0.36682 0.65276 0.82493 0.0
C8772 C 0.36031 0.65468 0.83059 0.0
C8773 C 0.36596 0.64633 0.81898 0.0
C8774 C 0.35857 0.64146 0.81849 0.0
H8775 H 0.37261 0.65636 0.82502 0.0
H8776 H 0.37111 0.64524 0.81466 0.0
S8777 S 0.33988 0.64362 0.83236 0.0
N8778 N 0.34634 0.6511 0.83556 0.0
N8779 N 0.34476 0.63878 0.82456 0.0
C8780 C 0.35203 0.64325 0.82421 0.0
C8781 C 0.35289 0.64991 0.83021 0.0
C8782 C 0.09171 0.63005 0.55479 0.0
C8783 C 0.08456 0.62748 0.55933 0.0
C8784 C 0.09846 0.6245 0.55341 0.0
C8785 C 0.09829 0.61622 0.55655 0.0
H8786 H 0.09201 0.63634 0.55217 0.0
H8787 H 0.10378 0.62667 0.54975 0.0
S8788 S 0.08145 0.60686 0.56973 0.0
N8789 N 0.07799 0.61639 0.5675 0.0
N8790 N 0.09068 0.60603 0.56505 0.0
C8791 C 0.09128 0.61371 0.56133 0.0
C8792 C 0.08443 0.61932 0.56268 0.0
C8793 C 0.13996 0.34928 0.3223 0.0
C8794 C 0.14407 0.34943 0.33013 0.0
C8795 C 0.14072 0.35597 0.31662 0.0
C8796 C 0.14572 0.36302 0.3185 0.0
H8797 H 0.13606 0.34396 0.32059 0.0
H8798 H 0.13743 0.35558 0.31067 0.0
S8799 S 0.15784 0.36642 0.33815 0.0
N8800 N 0.1533 0.35717 0.3395 0.0
N8801 N 0.15485 0.36975 0.32877 0.0
C8802 C 0.14992 0.36322 0.32629 0.0
C8803 C 0.14905 0.35644 0.33213 0.0
C8804 C 0.41822 0.62304 0.45238 0.0
C8805 C 0.41871 0.62814 0.44515 0.0
C8806 C 0.41142 0.61758 0.4537 0.0
C8807 C 0.40479 0.61703 0.44786 0.0
H8808 H 0.4232 0.6232 0.45703 0.0
H8809 H 0.41137 0.61371 0.45931 0.0
S8810 S 0.40309 0.62885 0.42782 0.0
N8811 N 0.41199 0.63217 0.43202 0.0
N8812 N 0.39917 0.62198 0.43455 0.0
C8813 C 0.40511 0.6222 0.44069 0.0
C8814 C 0.41206 0.62773 0.43933 0.0
C8815 C 0.14724 0.65527 0.1815 0.0
C8816 C 0.14536 0.65372 0.17298 0.0
C8817 C 0.14808 0.64865 0.18728 0.0
C8818 C 0.14699 0.64026 0.18477 0.0
H8819 H 0.14779 0.66165 0.18381 0.0
H8820 H 0.14931 0.65014 0.19382 0.0
S8821 S 0.14315 0.6327 0.16307 0.0
N8822 N 0.14333 0.64305 0.1622 0.0
N8823 N 0.14469 0.63066 0.17313 0.0
C8824 C 0.14543 0.63858 0.17624 0.0
C8825 C 0.14467 0.6453 0.17033 0.0
C8826 C 0.08716 0.37923 0.95309 0.0
C8827 C 0.08509 0.37636 0.94496 0.0
C8828 C 0.09394 0.38475 0.9544 0.0
C8829 C 0.09891 0.38753 0.94765 0.0
H8830 H 0.08352 0.3772 0.95847 0.0
H8831 H 0.09531 0.38683 0.96074 0.0
S8832 S 0.09585 0.38241 0.92513 0.0
N8833 N 0.08835 0.37715 0.93002 0.0
N8834 N 0.10118 0.38732 0.93257 0.0
C8835 C 0.09693 0.38473 0.93952 0.0
C8836 C 0.09 0.37919 0.93816 0.0
C8837 C 0.36567 0.35062 0.68035 0.0
C8838 C 0.35999 0.34976 0.67365 0.0
C8839 C 0.36477 0.35709 0.68626 0.0
C8840 C 0.3582 0.363 0.68565 0.0
H8841 H 0.37081 0.3462 0.68105 0.0
H8842 H 0.36924 0.35741 0.69139 0.0
S8843 S 0.34192 0.36363 0.66891 0.0
N8844 N 0.34769 0.3553 0.66657 0.0
N8845 N 0.34609 0.36769 0.67752 0.0
C8846 C 0.3525 0.36222 0.6789 0.0
C8847 C 0.35339 0.35555 0.67293 0.0
C8848 C 0.05165 0.41821 0.38045 0.0
C8849 C 0.05909 0.41878 0.37566 0.0
C8850 C 0.05017 0.41138 0.38583 0.0
C8851 C 0.05604 0.4048 0.3866 0.0
H8852 H 0.04697 0.42314 0.3801 0.0
H8853 H 0.0444 0.41126 0.38946 0.0
S8854 S 0.07662 0.40337 0.37572 0.0
N8855 N 0.07248 0.41222 0.37223 0.0
N8856 N 0.06963 0.39935 0.38226 0.0
C8857 C 0.06344 0.40522 0.38177 0.0
C8858 C 0.06497 0.4122 0.37633 0.0
C8859 C 0.35784 0.33267 0.14391 0.0
C8860 C 0.34942 0.33019 0.14516 0.0
C8861 C 0.36449 0.32692 0.14477 0.0
C8862 C 0.36298 0.31849 0.147 0.0
H8863 H 0.35931 0.33909 0.14217 0.0
H8864 H 0.37086 0.32906 0.14365 0.0
S8865 S 0.34218 0.30869 0.15073 0.0
N8866 N 0.34001 0.3186 0.14853 0.0
N8867 N 0.35253 0.30791 0.15035 0.0
C8868 C 0.35465 0.31595 0.14841 0.0
C8869 C 0.34787 0.32177 0.14745 0.0
C8870 C 0.45178 0.58526 0.88184 0.0
C8871 C 0.44513 0.58534 0.87599 0.0
C8872 C 0.45325 0.59209 0.88721 0.0
C8873 C 0.44815 0.59932 0.88693 0.0
H8874 H 0.45582 0.5798 0.88235 0.0
H8875 H 0.45836 0.59168 0.89169 0.0
S8876 S 0.42989 0.60274 0.87282 0.0
N8877 N 0.4334 0.5933 0.87026 0.0
N8878 N 0.4362 0.60617 0.88032 0.0
C8879 C 0.44161 0.59959 0.88098 0.0
C8880 C 0.4401 0.59261 0.87552 0.0
C8881 C 0.15204 0.67909 0.63749 0.0
C8882 C 0.15414 0.67348 0.64398 0.0
C8883 C 0.14556 0.68497 0.63845 0.0
C8884 C 0.14082 0.68542 0.64593 0.0
H8885 H 0.15554 0.67902 0.63164 0.0
H8886 H 0.1443 0.68925 0.63331 0.0
S8887 S 0.14348 0.67168 0.66463 0.0
N8888 N 0.15087 0.66852 0.65804 0.0
N8889 N 0.13848 0.67941 0.65982 0.0
C8890 C 0.1428 0.67976 0.65246 0.0
C8891 C 0.1495 0.67383 0.65149 0.0
C8892 C 0.05203 0.58554 0.1222 0.0
C8893 C 0.0587 0.58556 0.12803 0.0
C8894 C 0.05065 0.59238 0.1168 0.0
C8895 C 0.05584 0.59953 0.11704 0.0
H8896 H 0.04791 0.58014 0.12171 0.0
H8897 H 0.04551 0.59201 0.11234 0.0
S8898 S 0.07417 0.60276 0.13111 0.0
N8899 N 0.07054 0.59338 0.13372 0.0
N8900 N 0.0679 0.60624 0.12361 0.0
C8901 C 0.06239 0.59974 0.12298 0.0
C8902 C 0.06382 0.59276 0.12847 0.0
C8903 C 0.15285 0.32587 0.85365 0.0
C8904 C 0.15338 0.33147 0.8605 0.0
C8905 C 0.14609 0.32025 0.85282 0.0
C8906 C 0.13956 0.32001 0.8588 0.0
H8907 H 0.15778 0.32572 0.84895 0.0
H8908 H 0.14613 0.31589 0.84759 0.0
S8909 S 0.13753 0.33384 0.8775 0.0
N8910 N 0.14656 0.33662 0.87319 0.0
N8911 N 0.13368 0.32638 0.8714 0.0
C8912 C 0.13982 0.32583 0.86547 0.0
C8913 C 0.14674 0.33149 0.86636 0.0
C8914 C 0.4406 0.41881 0.6197 0.0
C8915 C 0.445 0.41946 0.62733 0.0
C8916 C 0.44196 0.41206 0.61422 0.0
C8917 C 0.44782 0.40571 0.61613 0.0
H8918 H 0.43604 0.42357 0.61796 0.0
H8919 H 0.43834 0.41179 0.60845 0.0
S8920 S 0.46124 0.40473 0.63519 0.0
N8921 N 0.45554 0.41332 0.6365 0.0
N8922 N 0.45824 0.40065 0.62611 0.0
C8923 C 0.45227 0.40628 0.62376 0.0
C8924 C 0.45082 0.41315 0.62938 0.0
C8925 C 0.35708 0.67181 0.35663 0.0
C8926 C 0.34931 0.67432 0.36006 0.0
C8927 C 0.36377 0.67755 0.35585 0.0
C8928 C 0.36295 0.68591 0.35866 0.0
H8929 H 0.35796 0.66541 0.35449 0.0
H8930 H 0.36966 0.67541 0.35318 0.0
S8931 S 0.34397 0.69554 0.36811 0.0
N8932 N 0.34122 0.6857 0.36626 0.0
N8933 N 0.35379 0.69641 0.36486 0.0
C8934 C 0.35524 0.68846 0.36209 0.0
C8935 C 0.34842 0.68268 0.36277 0.0
C8936 C 0.38137 0.05199 0.41829 0.0
C8937 C 0.37618 0.05916 0.41869 0.0
C8938 C 0.38677 0.05063 0.41145 0.0
C8939 C 0.38719 0.05636 0.40473 0.0
H8940 H 0.38131 0.04742 0.42334 0.0
H8941 H 0.39071 0.04507 0.41146 0.0
S8942 S 0.3751 0.07622 0.40281 0.0
N8943 N 0.37192 0.07212 0.4118 0.0
N8944 N 0.38203 0.06953 0.39893 0.0
C8945 C 0.38194 0.06348 0.40497 0.0
C8946 C 0.37645 0.06488 0.41195 0.0
C8947 C 0.87473 0.44994 0.59105 0.0
C8948 C 0.87671 0.44437 0.58447 0.0
C8949 C 0.88034 0.45117 0.59779 0.0
C8950 C 0.88806 0.44684 0.59816 0.0
H8951 H 0.86892 0.45349 0.59088 0.0
H8952 H 0.87869 0.45565 0.60264 0.0
S8953 S 0.89555 0.43077 0.58298 0.0
N8954 N 0.88652 0.43403 0.57905 0.0
N8955 N 0.89695 0.43618 0.59173 0.0
C8956 C 0.88991 0.44102 0.59175 0.0
C8957 C 0.88426 0.43983 0.58491 0.0
C8958 C 0.3325 0.14369 0.35782 0.0
C8959 C 0.33004 0.14484 0.34938 0.0
C8960 C 0.3267 0.14453 0.36443 0.0
C8961 C 0.31825 0.14663 0.36287 0.0
H8962 H 0.33893 0.14205 0.35932 0.0
H8963 H 0.32883 0.14348 0.37082 0.0
S8964 S 0.3085 0.15008 0.342 0.0
N8965 N 0.31845 0.14798 0.33989 0.0
N8966 N 0.30767 0.14977 0.35235 0.0
C8967 C 0.31574 0.14795 0.35451 0.0
C8968 C 0.3216 0.14701 0.34777 0.0
C8969 C 0.6275 0.5639 0.09156 0.0
C8970 C 0.62747 0.55849 0.08454 0.0
C8971 C 0.62208 0.56254 0.09839 0.0
C8972 C 0.61642 0.55574 0.09846 0.0
H8973 H 0.63153 0.5694 0.09163 0.0
H8974 H 0.62211 0.56703 0.10352 0.0
S8975 S 0.61471 0.5391 0.08221 0.0
N8976 N 0.62191 0.5456 0.0785 0.0
N8977 N 0.6117 0.54308 0.09132 0.0
C8978 C 0.61659 0.55008 0.09167 0.0
C8979 C 0.62212 0.55145 0.08473 0.0
C8980 C 0.67865 0.36543 0.35492 0.0
C8981 C 0.67261 0.35912 0.35364 0.0
C8982 C 0.68491 0.36454 0.36102 0.0
C8983 C 0.68534 0.35733 0.36614 0.0
H8984 H 0.67861 0.37106 0.35108 0.0
H8985 H 0.6895 0.36953 0.36169 0.0
S8986 S 0.67072 0.33913 0.36544 0.0
N8987 N 0.6673 0.34547 0.35796 0.0
N8988 N 0.67896 0.34385 0.36965 0.0
C8989 C 0.6793 0.35096 0.36492 0.0
C8990 C 0.67296 0.35185 0.35862 0.0
C8991 C 0.12324 0.95196 0.9184 0.0
C8992 C 0.12811 0.94459 0.91904 0.0
C8993 C 0.11777 0.95327 0.9116 0.0
C8994 C 0.11699 0.94728 0.90514 0.0
H8995 H 0.1236 0.95674 0.92325 0.0
H8996 H 0.11409 0.959 0.91142 0.0
S8997 S 0.12809 0.92681 0.90391 0.0
N8998 N 0.13162 0.93114 0.91266 0.0
N8999 N 0.12143 0.93366 0.89985 0.0
C9000 C 0.1219 0.93995 0.90562 0.0
C9001 C 0.12744 0.93859 0.91256 0.0
C9002 C 0.33308 0.86139 0.14593 0.0
C9003 C 0.33099 0.85895 0.1542 0.0
C9004 C 0.32735 0.86042 0.13929 0.0
C9005 C 0.31934 0.85691 0.14062 0.0
H9006 H 0.33915 0.86418 0.1446 0.0
H9007 H 0.32919 0.8625 0.13306 0.0
S9008 S 0.31073 0.84951 0.16098 0.0
N9009 N 0.32027 0.85289 0.16328 0.0
N9010 N 0.30962 0.85093 0.15076 0.0
C9011 C 0.31725 0.85423 0.14877 0.0
C9012 C 0.32305 0.85528 0.15556 0.0
C9013 C 0.18214 0.1415 0.65527 0.0
C9014 C 0.17389 0.14461 0.65456 0.0
C9015 C 0.18786 0.14216 0.6486 0.0
C9016 C 0.18559 0.14607 0.641 0.0
H9017 H 0.18416 0.13839 0.66098 0.0
H9018 H 0.19414 0.13963 0.64941 0.0
S9019 S 0.16481 0.1554 0.63601 0.0
N9020 N 0.16375 0.15183 0.64571 0.0
N9021 N 0.17455 0.15314 0.63315 0.0
C9022 C 0.17739 0.14931 0.64024 0.0
C9023 C 0.17152 0.14854 0.64701 0.0
C9024 C 0.0787 0.18488 0.38699 0.0
C9025 C 0.07572 0.18932 0.39404 0.0
C9026 C 0.08444 0.18856 0.38139 0.0
C9027 C 0.0873 0.19685 0.38257 0.0
H9028 H 0.07702 0.17834 0.38609 0.0
H9029 H 0.08694 0.18477 0.37631 0.0
S9030 S 0.08062 0.21145 0.39948 0.0
N9031 N 0.07545 0.20266 0.40147 0.0
N9032 N 0.08621 0.2096 0.39092 0.0
C9033 C 0.08392 0.20154 0.38926 0.0
C9034 C 0.07815 0.19776 0.39501 0.0
C9035 C 0.08893 0.83932 0.60886 0.0
C9036 C 0.09687 0.84323 0.60892 0.0
C9037 C 0.0818 0.84356 0.60583 0.0
C9038 C 0.08239 0.85185 0.60279 0.0
H9039 H 0.08809 0.8332 0.61173 0.0
H9040 H 0.0757 0.84058 0.60646 0.0
S9041 S 0.10196 0.86416 0.59995 0.0
N9042 N 0.1051 0.8553 0.60437 0.0
N9043 N 0.09167 0.86331 0.59886 0.0
C9044 C 0.09039 0.85551 0.60211 0.0
C9045 C 0.09764 0.85119 0.60512 0.0
C9046 C 0.42558 0.80688 0.89553 0.0
C9047 C 0.42884 0.815 0.89413 0.0
C9048 C 0.42003 0.80314 0.88978 0.0
C9049 C 0.41747 0.80743 0.88249 0.0
H9050 H 0.42705 0.80356 0.9013 0.0
H9051 H 0.4173 0.79709 0.89132 0.0
S9052 S 0.42474 0.82841 0.87548 0.0
N9053 N 0.42955 0.82691 0.88455 0.0
N9054 N 0.4191 0.81985 0.8738 0.0
C9055 C 0.42105 0.81531 0.88076 0.0
C9056 C 0.42675 0.81909 0.88657 0.0
C9057 C 0.40728 0.15441 0.1048 0.0
C9058 C 0.40806 0.16223 0.10892 0.0
C9059 C 0.41437 0.15003 0.10193 0.0
C9060 C 0.42248 0.15338 0.10288 0.0
H9061 H 0.40119 0.15142 0.10422 0.0
H9062 H 0.41354 0.14378 0.09933 0.0
S9063 S 0.42796 0.17397 0.11228 0.0
N9064 N 0.41763 0.17339 0.11318 0.0
N9065 N 0.43089 0.16524 0.10749 0.0
C9066 C 0.42331 0.16147 0.10631 0.0
C9067 C 0.41611 0.16589 0.10937 0.0
C9068 C 0.07807 0.80668 0.10873 0.0
C9069 C 0.07621 0.81531 0.10936 0.0
C9070 C 0.08399 0.8029 0.11408 0.0
C9071 C 0.08834 0.80767 0.12013 0.0
H9072 H 0.07516 0.80292 0.10385 0.0
H9073 H 0.08554 0.79633 0.11314 0.0
S9074 S 0.08538 0.83032 0.12468 0.0
N9075 N 0.07886 0.82838 0.11684 0.0
N9076 N 0.08999 0.82127 0.12685 0.0
C9077 C 0.08623 0.81618 0.12109 0.0
C9078 C 0.08017 0.82001 0.11572 0.0
C9079 C 0.40767 0.84862 0.39987 0.0
C9080 C 0.40826 0.84113 0.39514 0.0
C9081 C 0.41489 0.85293 0.40255 0.0
C9082 C 0.42294 0.84979 0.40079 0.0
H9083 H 0.40159 0.85143 0.40111 0.0
H9084 H 0.41418 0.85897 0.40563 0.0
S9085 S 0.42808 0.83018 0.38939 0.0
N9086 N 0.4177 0.83058 0.38929 0.0
N9087 N 0.4312 0.83857 0.39465 0.0
C9088 C 0.42365 0.84204 0.39666 0.0
C9089 C 0.41633 0.83771 0.39379 0.0
C9090 C 0.42555 0.18542 0.61692 0.0
C9091 C 0.42855 0.18987 0.60988 0.0
C9092 C 0.41973 0.18906 0.62245 0.0
C9093 C 0.41679 0.19731 0.62121 0.0
H9094 H 0.42728 0.1789 0.61785 0.0
H9095 H 0.41721 0.18526 0.62752 0.0
S9096 S 0.42353 0.21193 0.60434 0.0
N9097 N 0.4288 0.20319 0.60242 0.0
N9098 N 0.41786 0.21006 0.61284 0.0
C9099 C 0.42021 0.20202 0.61455 0.0
C9100 C 0.42607 0.19828 0.60887 0.0
C9101 C 0.08757 0.16492 0.89316 0.0
C9102 C 0.09574 0.16319 0.89612 0.0
C9103 C 0.08061 0.16028 0.89593 0.0
C9104 C 0.08154 0.15367 0.90171 0.0
H9105 H 0.08656 0.16959 0.88831 0.0
H9106 H 0.0745 0.16159 0.8932 0.0
S9107 S 0.10122 0.14726 0.91233 0.0
N9108 N 0.10411 0.155 0.90603 0.0
N9109 N 0.09101 0.14603 0.91087 0.0
C9110 C 0.08954 0.1521 0.90504 0.0
C9111 C 0.09664 0.15692 0.90235 0.0
C9112 C 0.39673 0.07961 0.19797 0.0
C9113 C 0.39484 0.07575 0.19022 0.0
C9114 C 0.39107 0.0852 0.20179 0.0
C9115 C 0.38335 0.08715 0.19798 0.0
H9116 H 0.40281 0.07862 0.2009 0.0
H9117 H 0.39298 0.08844 0.20748 0.0
S9118 S 0.37497 0.07819 0.17822 0.0
N9119 N 0.38434 0.07382 0.17926 0.0
N9120 N 0.37376 0.08436 0.18649 0.0
C9121 C 0.38114 0.08296 0.19055 0.0
C9122 C 0.38686 0.07723 0.18667 0.0
C9123 C 0.16446 0.11326 0.4162 0.0
C9124 C 0.16328 0.10907 0.40849 0.0
C9125 C 0.15992 0.11095 0.42337 0.0
C9126 C 0.15409 0.10432 0.42313 0.0
H9127 H 0.16854 0.1187 0.41659 0.0
H9128 H 0.16069 0.11462 0.42906 0.0
S9129 S 0.14934 0.09071 0.40486 0.0
N9130 N 0.15638 0.09748 0.40128 0.0
N9131 N 0.1478 0.09317 0.41485 0.0
C9132 C 0.15319 0.09975 0.41565 0.0
C9133 C 0.15779 0.10212 0.4083 0.0
C9134 C 0.11719 0.92671 0.68684 0.0
C9135 C 0.10909 0.92782 0.69027 0.0
C9136 C 0.12298 0.92116 0.69053 0.0
C9137 C 0.12092 0.91669 0.69787 0.0
H9138 H 0.11885 0.92968 0.68093 0.0
H9139 H 0.12893 0.92003 0.68741 0.0
S9140 S 0.10103 0.91811 0.70988 0.0
N9141 N 0.09966 0.92456 0.70186 0.0
N9142 N 0.11059 0.91418 0.7088 0.0
C9143 C 0.11311 0.91819 0.70168 0.0
C9144 C 0.10719 0.92375 0.69789 0.0
C9145 C 0.33965 0.89864 0.91408 0.0
C9146 C 0.3436 0.89471 0.90719 0.0
C9147 C 0.34424 0.9009 0.92129 0.0
C9148 C 0.35291 0.89925 0.92185 0.0
H9149 H 0.33292 0.89966 0.91404 0.0
H9150 H 0.3409 0.90349 0.92663 0.0
S9151 S 0.36637 0.88988 0.90529 0.0
N9152 N 0.35682 0.88979 0.90123 0.0
N9153 N 0.36541 0.89424 0.91466 0.0
C9154 C 0.35701 0.89584 0.91481 0.0
C9155 C 0.35237 0.89353 0.90751 0.0
C9156 C 0.38884 0.92267 0.32077 0.0
C9157 C 0.39399 0.92789 0.31584 0.0
C9158 C 0.38362 0.91663 0.31706 0.0
C9159 C 0.38329 0.91565 0.30826 0.0
H9160 H 0.38921 0.92294 0.32757 0.0
H9161 H 0.38007 0.91245 0.3211 0.0
S9162 S 0.39488 0.92844 0.29259 0.0
N9163 N 0.39801 0.93218 0.30176 0.0
N9164 N 0.38807 0.92088 0.29472 0.0
C9165 C 0.388 0.92121 0.30325 0.0
C9166 C 0.39341 0.92729 0.30706 0.0
C9167 C 0.34648 0.10291 0.59574 0.0
C9168 C 0.34105 0.10993 0.59545 0.0
C9169 C 0.35104 0.10037 0.5886 0.0
C9170 C 0.35035 0.10481 0.581 0.0
H9171 H 0.34741 0.09955 0.60159 0.0
H9172 H 0.35542 0.09518 0.58913 0.0
S9173 S 0.33698 0.1234 0.57684 0.0
N9174 N 0.3352 0.12111 0.58681 0.0
N9175 N 0.34371 0.11626 0.57345 0.0
C9176 C 0.34474 0.11159 0.58054 0.0
C9177 C 0.3401 0.11417 0.58775 0.0
C9178 C 0.10453 0.08376 0.80901 0.0
C9179 C 0.10732 0.07678 0.81368 0.0
C9180 C 0.1102 0.08901 0.80482 0.0
C9181 C 0.11888 0.08743 0.80506 0.0
H9182 H 0.09793 0.08546 0.80897 0.0
H9183 H 0.10783 0.09462 0.80176 0.0
S9184 S 0.12939 0.06943 0.81538 0.0
N9185 N 0.11932 0.06812 0.81759 0.0
N9186 N 0.13 0.07801 0.80955 0.0
C9187 C 0.12174 0.08013 0.80909 0.0
C9188 C 0.11594 0.07477 0.81343 0.0
C9189 C 0.1532 0.89274 0.09613 0.0
C9190 C 0.16164 0.89532 0.09686 0.0
C9191 C 0.14842 0.89472 0.08901 0.0
C9192 C 0.15187 0.89934 0.08229 0.0
H9193 H 0.15038 0.88879 0.10092 0.0
H9194 H 0.14206 0.89231 0.08862 0.0
S9195 S 0.17329 0.90856 0.08162 0.0
N9196 N 0.17295 0.90352 0.0907 0.0
N9197 N 0.16401 0.90712 0.07719 0.0
C9198 C 0.16012 0.90243 0.08317 0.0
C9199 C 0.165 0.90041 0.09046 0.0
C9200 C 0.1888 0.38731 0.07662 0.0
C9201 C 0.19004 0.39604 0.07758 0.0
C9202 C 0.1928 0.38153 0.08201 0.0
C9203 C 0.19822 0.38433 0.08841 0.0
H9204 H 0.18425 0.38498 0.07211 0.0
H9205 H 0.19127 0.37491 0.08151 0.0
S9206 S 0.20447 0.40633 0.09272 0.0
N9207 N 0.19781 0.40704 0.08479 0.0
N9208 N 0.20524 0.3962 0.09489 0.0
C9209 C 0.19999 0.39294 0.08899 0.0
C9210 C 0.19593 0.3988 0.08356 0.0
C9211 C 0.6943 0.10563 0.92012 0.0
C9212 C 0.68965 0.10818 0.92722 0.0
C9213 C 0.69833 0.1115 0.91496 0.0
C9214 C 0.69795 0.12014 0.91674 0.0
H9215 H 0.69448 0.09907 0.91829 0.0
H9216 H 0.70142 0.10931 0.90929 0.0
S9217 S 0.68764 0.13006 0.93507 0.0
N9218 N 0.68561 0.11993 0.93616 0.0
N9219 N 0.69336 0.13096 0.92643 0.0
C9220 C 0.69391 0.12276 0.92411 0.0
C9221 C 0.68974 0.11677 0.92939 0.0
C9222 C 0.11149 0.41567 0.16481 0.0
C9223 C 0.10899 0.40756 0.16225 0.0
C9224 C 0.10884 0.42284 0.16043 0.0
C9225 C 0.10358 0.42217 0.15338 0.0
H9226 H 0.11598 0.41646 0.16987 0.0
H9227 H 0.11133 0.42892 0.16227 0.0
S9228 S 0.09423 0.40267 0.14483 0.0
N9229 N 0.10007 0.39945 0.1528 0.0
N9230 N 0.09531 0.413 0.14446 0.0
C9231 C 0.10057 0.41422 0.15108 0.0
C9232 C 0.10322 0.4069 0.15555 0.0
C9233 C 0.81621 0.89628 0.41824 0.0
C9234 C 0.81508 0.89561 0.42697 0.0
C9235 C 0.81282 0.89034 0.41274 0.0
C9236 C 0.80817 0.88342 0.41571 0.0
H9237 H 0.81987 0.90138 0.4156 0.0
H9238 H 0.81382 0.89124 0.40605 0.0
S9239 S 0.80321 0.87887 0.43804 0.0
N9240 N 0.80884 0.88761 0.4384 0.0
N9241 N 0.80247 0.87631 0.42799 0.0
C9242 C 0.80689 0.8827 0.42443 0.0
C9243 C 0.81038 0.88879 0.43008 0.0
C9244 C 0.89348 0.09629 0.15332 0.0
C9245 C 0.89556 0.09682 0.1619 0.0
C9246 C 0.8956 0.08922 0.14853 0.0
C9247 C 0.8999 0.08235 0.15211 0.0
H9248 H 0.88979 0.1012 0.15036 0.0
H9249 H 0.89357 0.08898 0.14203 0.0
S9250 S 0.90784 0.08115 0.17401 0.0
N9251 N 0.903 0.09033 0.17354 0.0
N9252 N 0.90687 0.0769 0.16458 0.0
C9253 C 0.90252 0.08304 0.16053 0.0
C9254 C 0.90034 0.09028 0.16543 0.0
C9255 C 0.30674 0.60888 0.5783 0.0
C9256 C 0.31533 0.6096 0.57628 0.0
C9257 C 0.30296 0.61435 0.58412 0.0
C9258 C 0.30769 0.6206 0.58821 0.0
H9259 H 0.30301 0.60386 0.5756 0.0
H9260 H 0.29643 0.61335 0.58582 0.0
S9261 S 0.33022 0.62539 0.58481 0.0
N9262 N 0.32831 0.61736 0.57851 0.0
N9263 N 0.32121 0.62753 0.58951 0.0
C9264 C 0.31616 0.62162 0.58596 0.0
C9265 C 0.31998 0.61615 0.57998 0.0
C9266 C 0.11359 0.5873 0.33877 0.0
C9267 C 0.10926 0.59496 0.33968 0.0
C9268 C 0.11144 0.58024 0.34356 0.0
C9269 C 0.10484 0.58053 0.34942 0.0
H9270 H 0.11902 0.58686 0.33467 0.0
H9271 H 0.1152 0.57459 0.34293 0.0
S9272 S 0.09091 0.59869 0.35365 0.0
N9273 N 0.09754 0.60216 0.34644 0.0
N9274 N 0.09358 0.58882 0.35551 0.0
C9275 C 0.10013 0.58796 0.3501 0.0
C9276 C 0.10234 0.59519 0.34523 0.0
C9277 C 0.39977 0.40763 0.84883 0.0
C9278 C 0.39498 0.40839 0.84139 0.0
C9279 C 0.4025 0.41475 0.85326 0.0
C9280 C 0.40074 0.42287 0.85031 0.0
H9281 H 0.40105 0.40149 0.85148 0.0
H9282 H 0.40566 0.4139 0.85924 0.0
S9283 S 0.38914 0.42843 0.83092 0.0
N9284 N 0.38902 0.41805 0.83111 0.0
N9285 N 0.3945 0.43137 0.83931 0.0
C9286 C 0.39654 0.42375 0.84261 0.0
C9287 C 0.3936 0.41653 0.83816 0.0
C9288 C 0.92867 0.81494 0.61609 0.0
C9289 C 0.92648 0.81361 0.60762 0.0
C9290 C 0.92414 0.81108 0.62261 0.0
C9291 C 0.91729 0.80573 0.62091 0.0
H9292 H 0.93361 0.81933 0.61771 0.0
H9293 H 0.92586 0.8125 0.62905 0.0
S9294 S 0.90963 0.79951 0.59977 0.0
N9295 N 0.91757 0.80592 0.59786 0.0
N9296 N 0.90889 0.79891 0.61011 0.0
C9297 C 0.91535 0.80399 0.61246 0.0
C9298 C 0.91998 0.80788 0.60583 0.0
C9299 C 0.90857 0.15631 0.40086 0.0
C9300 C 0.91005 0.16102 0.39352 0.0
C9301 C 0.91504 0.15169 0.4047 0.0
C9302 C 0.92323 0.1516 0.40134 0.0
H9303 H 0.90232 0.15604 0.40356 0.0
H9304 H 0.91357 0.14804 0.41026 0.0
S9305 S 0.93035 0.1628 0.38215 0.0
N9306 N 0.92032 0.16531 0.38304 0.0
N9307 N 0.93245 0.15663 0.39023 0.0
C9308 C 0.92484 0.15646 0.39413 0.0
C9309 C 0.91826 0.16117 0.39023 0.0
C9310 C 0.58512 0.18606 0.11167 0.0
C9311 C 0.57768 0.18975 0.10866 0.0
C9312 C 0.58959 0.18962 0.11834 0.0
C9313 C 0.58683 0.19707 0.12223 0.0
H9314 H 0.5875 0.18034 0.10884 0.0
H9315 H 0.59533 0.18658 0.1204 0.0
S9316 S 0.56767 0.20917 0.11675 0.0
N9317 N 0.56765 0.20118 0.11009 0.0
N9318 N 0.57615 0.20799 0.12266 0.0
C9319 C 0.57939 0.20084 0.1193 0.0
C9320 C 0.57477 0.19713 0.11253 0.0
C9321 C 0.59602 0.84796 0.901 0.0
C9322 C 0.59453 0.84294 0.89386 0.0
C9323 C 0.5895 0.85247 0.90485 0.0
C9324 C 0.58122 0.85217 0.90171 0.0
H9325 H 0.60233 0.84857 0.9035 0.0
H9326 H 0.59099 0.85639 0.91022 0.0
S9327 S 0.57399 0.8399 0.88322 0.0
N9328 N 0.58414 0.83781 0.8839 0.0
N9329 N 0.5719 0.84633 0.8911 0.0
C9330 C 0.5796 0.84695 0.89475 0.0
C9331 C 0.58624 0.84233 0.89085 0.0
C9332 C 0.92813 0.18994 0.88787 0.0
C9333 C 0.9257 0.19062 0.89635 0.0
C9334 C 0.92354 0.19395 0.88148 0.0
C9335 C 0.91636 0.19881 0.88332 0.0
H9336 H 0.93337 0.18594 0.88612 0.0
H9337 H 0.92549 0.19304 0.87501 0.0
S9338 S 0.9079 0.20325 0.90462 0.0
N9339 N 0.91615 0.19718 0.90632 0.0
N9340 N 0.90735 0.20444 0.89432 0.0
C9341 C 0.91414 0.19988 0.89181 0.0
C9342 C 0.91884 0.19585 0.89831 0.0
C9343 C 0.59574 0.15656 0.60347 0.0
C9344 C 0.59403 0.16226 0.61004 0.0
C9345 C 0.58935 0.15172 0.5998 0.0
C9346 C 0.58095 0.15242 0.6025 0.0
H9347 H 0.60213 0.15566 0.60128 0.0
H9348 H 0.59101 0.14726 0.59493 0.0
S9349 S 0.57302 0.16649 0.61932 0.0
N9350 N 0.58322 0.16839 0.61897 0.0
N9351 N 0.57121 0.15939 0.61198 0.0
C9352 C 0.57908 0.15832 0.60881 0.0
C9353 C 0.5856 0.16322 0.61259 0.0
C9354 C 0.58377 0.81886 0.39006 0.0
C9355 C 0.57823 0.8142 0.39512 0.0
C9356 C 0.58838 0.81502 0.38363 0.0
C9357 C 0.5877 0.80634 0.38205 0.0
H9358 H 0.58465 0.82553 0.3912 0.0
H9359 H 0.5927 0.81885 0.38001 0.0
S9360 S 0.57376 0.79143 0.39335 0.0
N9361 N 0.57206 0.80055 0.39803 0.0
N9362 N 0.58078 0.79325 0.38589 0.0
C9363 C 0.58205 0.80163 0.38698 0.0
C9364 C 0.57729 0.80558 0.39351 0.0
C9365 C 0.91788 0.84421 0.11446 0.0
C9366 C 0.91009 0.843 0.11048 0.0
C9367 C 0.9243 0.84884 0.11057 0.0
C9368 C 0.92317 0.85237 0.10253 0.0
H9369 H 0.91889 0.84188 0.12079 0.0
H9370 H 0.93005 0.84994 0.11404 0.0
S9371 S 0.90426 0.84998 0.08905 0.0
N9372 N 0.90178 0.84507 0.09786 0.0
N9373 N 0.91393 0.85356 0.09039 0.0
C9374 C 0.91553 0.85081 0.09832 0.0
C9375 C 0.90897 0.84619 0.10234 0.0
C9376 C 0.60693 0.92187 0.80718 0.0
C9377 C 0.60852 0.92776 0.8136 0.0
C9378 C 0.61345 0.91722 0.80351 0.0
C9379 C 0.62185 0.9183 0.80608 0.0
H9380 H 0.60054 0.92061 0.80517 0.0
H9381 H 0.61184 0.91246 0.79891 0.0
S9382 S 0.62956 0.93371 0.8218 0.0
N9383 N 0.61924 0.93487 0.8219 0.0
N9384 N 0.63152 0.92641 0.81469 0.0
C9385 C 0.6236 0.92458 0.81206 0.0
C9386 C 0.61694 0.92926 0.81587 0.0
C9387 C 0.84796 0.88836 0.58779 0.0
C9388 C 0.84408 0.89299 0.59424 0.0
C9389 C 0.85214 0.89241 0.58118 0.0
C9390 C 0.85269 0.90123 0.58087 0.0
H9391 H 0.8479 0.88155 0.58797 0.0
H9392 H 0.85523 0.8886 0.57646 0.0
S9393 S 0.84331 0.91617 0.59611 0.0
N9394 N 0.84077 0.9068 0.59982 0.0
N9395 N 0.84875 0.91447 0.58741 0.0
C9396 C 0.8487 0.90593 0.5872 0.0
C9397 C 0.84435 0.9018 0.59389 0.0
C9398 C 0.88756 0.0759 0.31584 0.0
C9399 C 0.89593 0.07664 0.31303 0.0
C9400 C 0.8811 0.08066 0.31219 0.0
C9401 C 0.88273 0.08633 0.3056 0.0
H9402 H 0.88605 0.07196 0.32119 0.0
H9403 H 0.8748 0.08007 0.31473 0.0
S9404 S 0.90339 0.08985 0.29531 0.0
N9405 N 0.90533 0.08279 0.30267 0.0
N9406 N 0.89325 0.09197 0.29602 0.0
C9407 C 0.89098 0.08677 0.30242 0.0
C9408 C 0.89755 0.08188 0.30609 0.0
C9409 C 0.65633 0.10319 0.09573 0.0
C9410 C 0.6607 0.11076 0.0944 0.0
C9411 C 0.65178 0.09934 0.08923 0.0
C9412 C 0.65138 0.10295 0.08114 0.0
H9413 H 0.65629 0.1003 0.1019 0.0
H9414 H 0.6484 0.09358 0.09058 0.0
S9415 S 0.66159 0.12284 0.07447 0.0
N9416 N 0.66434 0.12174 0.08441 0.0
N9417 N 0.65574 0.11457 0.07222 0.0
C9418 C 0.65589 0.11042 0.07969 0.0
C9419 C 0.66055 0.11431 0.0863 0.0
C9420 C 0.60664 0.08389 0.69653 0.0
C9421 C 0.60834 0.077 0.69122 0.0
C9422 C 0.61312 0.08829 0.70056 0.0
C9423 C 0.62159 0.08596 0.69949 0.0
H9424 H 0.60024 0.08609 0.69736 0.0
H9425 H 0.6115 0.0938 0.70422 0.0
S9426 S 0.62938 0.06773 0.68718 0.0
N9427 N 0.61912 0.06768 0.68564 0.0
N9428 N 0.63126 0.07573 0.69353 0.0
C9429 C 0.62334 0.07875 0.69466 0.0
C9430 C 0.61674 0.07431 0.69048 0.0
C9431 C 0.6593 0.90122 0.41014 0.0
C9432 C 0.66013 0.89244 0.40984 0.0
C9433 C 0.6548 0.90511 0.41669 0.0
C9434 C 0.65105 0.9003 0.42312 0.0
H9435 H 0.662 0.90508 0.40521 0.0
H9436 H 0.65418 0.91189 0.41669 0.0
S9437 S 0.65114 0.87705 0.42481 0.0
N9438 N 0.65672 0.87905 0.41628 0.0
N9439 N 0.64826 0.8863 0.42856 0.0
C9440 C 0.6519 0.89151 0.42285 0.0
C9441 C 0.65644 0.88759 0.4162 0.0
C9442 C 0.89761 0.91917 0.19605 0.0
C9443 C 0.89585 0.92642 0.19128 0.0
C9444 C 0.89122 0.91468 0.20013 0.0
C9445 C 0.88278 0.91728 0.19965 0.0
H9446 H 0.90398 0.91675 0.19639 0.0
H9447 H 0.89287 0.90891 0.20335 0.0
S9448 S 0.8749 0.93646 0.18895 0.0
N9449 N 0.88508 0.93637 0.18689 0.0
N9450 N 0.87311 0.92811 0.19485 0.0
C9451 C 0.88099 0.92483 0.19539 0.0
C9452 C 0.8875 0.92937 0.19116 0.0
C9453 C 0.84866 0.10329 0.90813 0.0
C9454 C 0.84307 0.10996 0.90978 0.0
C9455 C 0.85325 0.09947 0.91462 0.0
C9456 C 0.85243 0.10215 0.92301 0.0
H9457 H 0.84968 0.10116 0.90174 0.0
H9458 H 0.85764 0.09451 0.91301 0.0
S9459 S 0.83848 0.11919 0.93071 0.0
N9460 N 0.83682 0.11892 0.92047 0.0
N9461 N 0.84542 0.11172 0.93265 0.0
C9462 C 0.8466 0.10856 0.9248 0.0
C9463 C 0.84193 0.11246 0.91819 0.0
C9464 C 0.81451 0.61641 0.92897 0.0
C9465 C 0.81355 0.60799 0.92644 0.0
C9466 C 0.81054 0.62296 0.92458 0.0
C9467 C 0.80546 0.62133 0.91751 0.0
H9468 H 0.81869 0.618 0.93411 0.0
H9469 H 0.81167 0.62937 0.92659 0.0
S9470 S 0.80025 0.60027 0.9089 0.0
N9471 N 0.80648 0.5983 0.91697 0.0
N9472 N 0.79932 0.61059 0.9085 0.0
C9473 C 0.8041 0.6129 0.9152 0.0
C9474 C 0.80808 0.60624 0.91971 0.0
C9475 C 0.31434 0.88768 0.07535 0.0
C9476 C 0.31355 0.89611 0.07792 0.0
C9477 C 0.3104 0.88118 0.07984 0.0
C9478 C 0.30551 0.88287 0.08704 0.0
H9479 H 0.31838 0.88605 0.07011 0.0
H9480 H 0.3114 0.87475 0.07781 0.0
S9481 S 0.30079 0.90398 0.09579 0.0
N9482 N 0.30685 0.90587 0.08758 0.0
N9483 N 0.29971 0.89366 0.09619 0.0
C9484 C 0.30431 0.89131 0.08938 0.0
C9485 C 0.30827 0.89792 0.08478 0.0
C9486 C 0.8911 0.58645 0.8436 0.0
C9487 C 0.89458 0.59458 0.84329 0.0
C9488 C 0.89502 0.57999 0.84814 0.0
C9489 C 0.90257 0.5814 0.85254 0.0
H9490 H 0.8851 0.58516 0.84065 0.0
H9491 H 0.89189 0.57395 0.84853 0.0
S9492 S 0.91488 0.60123 0.85263 0.0
N9493 N 0.90643 0.60347 0.84702 0.0
N9494 N 0.91386 0.5913 0.85549 0.0
C9495 C 0.90635 0.58938 0.85188 0.0
C9496 C 0.90234 0.59597 0.84728 0.0
C9497 C 0.19744 0.1069 0.58271 0.0
C9498 C 0.19092 0.10862 0.57695 0.0
C9499 C 0.20123 0.11332 0.58742 0.0
C9500 C 0.19867 0.12174 0.58655 0.0
H9501 H 0.19945 0.10048 0.5838 0.0
H9502 H 0.20592 0.11161 0.59206 0.0
S9503 S 0.18268 0.1298 0.5716 0.0
N9504 N 0.18254 0.11952 0.57023 0.0
N9505 N 0.18993 0.1316 0.57881 0.0
C9506 C 0.19257 0.12363 0.58043 0.0
C9507 C 0.18866 0.11708 0.57568 0.0
C9508 C 0.10802 0.91571 0.84152 0.0
C9509 C 0.11088 0.90845 0.84569 0.0
C9510 C 0.10368 0.92205 0.8459 0.0
C9511 C 0.102 0.92132 0.85458 0.0
H9512 H 0.10949 0.91667 0.83494 0.0
H9513 H 0.10179 0.92764 0.84251 0.0
S9514 S 0.10757 0.90313 0.86814 0.0
N9515 N 0.11115 0.90055 0.85875 0.0
N9516 N 0.10326 0.91251 0.86704 0.0
C9517 C 0.10451 0.91389 0.8587 0.0
C9518 C 0.10888 0.90745 0.85423 0.0
C9519 C 0.68563 0.38923 0.4221 0.0
C9520 C 0.69022 0.39496 0.427 0.0
C9521 C 0.68966 0.38273 0.41775 0.0
C9522 C 0.69846 0.38177 0.41806 0.0
H9523 H 0.67887 0.38989 0.42151 0.0
H9524 H 0.68588 0.37857 0.4139 0.0
S9525 S 0.71326 0.39503 0.43027 0.0
N9526 N 0.70393 0.39922 0.43214 0.0
N9527 N 0.71159 0.38696 0.42394 0.0
C9528 C 0.70311 0.3874 0.42306 0.0
C9529 C 0.69897 0.394 0.42755 0.0
C9530 C 0.89512 0.41626 0.66262 0.0
C9531 C 0.89378 0.40836 0.65888 0.0
C9532 C 0.89935 0.42269 0.65828 0.0
C9533 C 0.9024 0.42146 0.65005 0.0
H9534 H 0.89252 0.41763 0.66877 0.0
H9535 H 0.90004 0.42875 0.66132 0.0
S9536 S 0.90124 0.40154 0.63786 0.0
N9537 N 0.89659 0.39935 0.64688 0.0
N9538 N 0.90415 0.41148 0.63855 0.0
C9539 C 0.90146 0.41342 0.64643 0.0
C9540 C 0.89725 0.40687 0.65089 0.0
C9541 C 0.60314 0.59549 0.15681 0.0
C9542 C 0.6111 0.59439 0.1605 0.0
C9543 C 0.5993 0.58899 0.15224 0.0
C9544 C 0.60332 0.58117 0.15112 0.0
H9545 H 0.59992 0.60148 0.15735 0.0
H9546 H 0.59319 0.59014 0.14945 0.0
S9547 S 0.6244 0.57529 0.15922 0.0
N9548 N 0.62292 0.58497 0.16265 0.0
N9549 N 0.61581 0.57282 0.15394 0.0
C9550 C 0.61124 0.57998 0.15488 0.0
C9551 C 0.6151 0.58657 0.15958 0.0
C9552 C 0.57774 0.68508 0.88675 0.0
C9553 C 0.5748 0.68947 0.89385 0.0
C9554 C 0.58337 0.68884 0.8811 0.0
C9555 C 0.58616 0.69715 0.88229 0.0
H9556 H 0.57612 0.67853 0.88585 0.0
H9557 H 0.58586 0.6851 0.87598 0.0
S9558 S 0.57952 0.71161 0.89935 0.0
N9559 N 0.57445 0.70276 0.90135 0.0
N9560 N 0.58504 0.70986 0.89072 0.0
C9561 C 0.5828 0.70178 0.88904 0.0
C9562 C 0.57713 0.69793 0.89483 0.0
C9563 C 0.59385 0.34287 0.10169 0.0
C9564 C 0.59552 0.3413 0.11023 0.0
C9565 C 0.58688 0.34778 0.09927 0.0
C9566 C 0.58154 0.35138 0.10535 0.0
H9567 H 0.59799 0.34036 0.09689 0.0
H9568 H 0.58577 0.34893 0.09264 0.0
S9569 S 0.58324 0.34893 0.12848 0.0
N9570 N 0.59128 0.34355 0.1247 0.0
N9571 N 0.57827 0.35277 0.12021 0.0
C9572 C 0.58315 0.34974 0.11388 0.0
C9573 C 0.59013 0.34471 0.11631 0.0
C9574 C 0.92373 0.30691 0.39725 0.0
C9575 C 0.9284 0.31412 0.39505 0.0
C9576 C 0.91827 0.30306 0.39149 0.0
C9577 C 0.91727 0.3063 0.38334 0.0
H9578 H 0.924 0.30446 0.4036 0.0
H9579 H 0.91442 0.29785 0.39359 0.0
S9580 S 0.92859 0.3244 0.37409 0.0
N9581 N 0.93211 0.32387 0.38385 0.0
N9582 N 0.92181 0.3166 0.37307 0.0
C9583 C 0.92226 0.31313 0.38087 0.0
C9584 C 0.92786 0.31703 0.3867 0.0
C9585 C 0.90771 0.65324 0.6097 0.0
C9586 C 0.90735 0.66187 0.60776 0.0
C9587 C 0.91475 0.64838 0.60759 0.0
C9588 C 0.92178 0.65194 0.60354 0.0
H9589 H 0.90272 0.65029 0.61328 0.0
H9590 H 0.91482 0.64184 0.60951 0.0
S9591 S 0.92335 0.67392 0.59584 0.0
N9592 N 0.91408 0.6735 0.60052 0.0
N9593 N 0.92748 0.66444 0.59681 0.0
C9594 C 0.92123 0.66041 0.601 0.0
C9595 C 0.914 0.66536 0.6031 0.0
C9596 C 0.57836 0.30696 0.60803 0.0
C9597 C 0.57505 0.31506 0.6094 0.0
C9598 C 0.58403 0.30334 0.61373 0.0
C9599 C 0.58665 0.30773 0.62094 0.0
H9600 H 0.57687 0.30358 0.6023 0.0
H9601 H 0.58683 0.29731 0.61219 0.0
S9602 S 0.57922 0.32867 0.6279 0.0
N9603 N 0.57431 0.32704 0.61889 0.0
N9604 N 0.58497 0.32019 0.62958 0.0
C9605 C 0.58298 0.31556 0.62267 0.0
C9606 C 0.57716 0.31923 0.61691 0.0
C9607 C 0.9152 0.33914 0.89531 0.0
C9608 C 0.90737 0.34324 0.89479 0.0
C9609 C 0.92235 0.34337 0.89831 0.0
C9610 C 0.92189 0.35183 0.90085 0.0
H9611 H 0.91594 0.33285 0.8928 0.0
H9612 H 0.92838 0.3402 0.89803 0.0
S9613 S 0.90261 0.36479 0.90237 0.0
N9614 N 0.89935 0.35576 0.89839 0.0
N9615 N 0.91284 0.36374 0.90382 0.0
C9616 C 0.91399 0.35572 0.90108 0.0
C9617 C 0.90671 0.35142 0.89811 0.0
C9618 C 0.92631 0.68595 0.11745 0.0
C9619 C 0.92844 0.69014 0.10994 0.0
C9620 C 0.92071 0.68955 0.12323 0.0
C9621 C 0.91715 0.69751 0.12177 0.0
H9622 H 0.92855 0.67962 0.11861 0.0
H9623 H 0.91882 0.68592 0.12868 0.0
S9624 S 0.9214 0.71143 0.10358 0.0
N9625 N 0.92712 0.70296 0.10174 0.0
N9626 N 0.9166 0.70973 0.11264 0.0
C9627 C 0.91966 0.70199 0.11459 0.0
C9628 C 0.9253 0.6983 0.10866 0.0
C9629 C 0.59672 0.65216 0.39456 0.0
C9630 C 0.59721 0.66088 0.39595 0.0
C9631 C 0.58951 0.64759 0.39671 0.0
C9632 C 0.58245 0.65156 0.40029 0.0
H9633 H 0.60173 0.64888 0.39131 0.0
H9634 H 0.58932 0.64096 0.39518 0.0
S9635 S 0.58107 0.67401 0.40648 0.0
N9636 N 0.59049 0.6731 0.4022 0.0
N9637 N 0.57677 0.66456 0.40599 0.0
C9638 C 0.58309 0.66015 0.4023 0.0
C9639 C 0.59049 0.6648 0.40016 0.0
C9640 C 0.89634 0.58547 0.68799 0.0
C9641 C 0.89571 0.57674 0.68918 0.0
C9642 C 0.89048 0.59097 0.69149 0.0
C9643 C 0.88369 0.58801 0.69632 0.0
H9644 H 0.90138 0.58809 0.68421 0.0
H9645 H 0.89134 0.59765 0.69045 0.0
S9646 S 0.87924 0.5657 0.70143 0.0
N9647 N 0.88784 0.56532 0.69561 0.0
N9648 N 0.8767 0.57575 0.70221 0.0
C9649 C 0.88299 0.57929 0.69764 0.0
C9650 C 0.88899 0.57364 0.69402 0.0
C9651 C 0.66309 0.61495 0.91592 0.0
C9652 C 0.6641 0.60947 0.90908 0.0
C9653 C 0.65813 0.6127 0.92283 0.0
C9654 C 0.65411 0.60483 0.92321 0.0
H9655 H 0.66584 0.62118 0.91576 0.0
H9656 H 0.65729 0.61722 0.92786 0.0
S9657 S 0.65518 0.58804 0.90711 0.0
N9658 N 0.66093 0.59575 0.90316 0.0
N9659 N 0.65176 0.5914 0.91634 0.0
C9660 C 0.65534 0.59915 0.91657 0.0
C9661 C 0.66028 0.60151 0.90944 0.0
C9662 C 0.60916 0.42716 0.19648 0.0
C9663 C 0.60973 0.42948 0.18796 0.0
C9664 C 0.61495 0.42153 0.20004 0.0
C9665 C 0.6214 0.41794 0.19515 0.0
H9666 H 0.604 0.42943 0.20031 0.0
H9667 H 0.61405 0.41955 0.2065 0.0
S9668 S 0.62594 0.42242 0.17275 0.0
N9669 N 0.61755 0.42815 0.17489 0.0
N9670 N 0.62839 0.41756 0.18159 0.0
C9671 C 0.62229 0.42056 0.18677 0.0
C9672 C 0.61646 0.42634 0.18317 0.0
C9673 C 0.84017 0.39852 0.41401 0.0
C9674 C 0.84411 0.3945 0.40717 0.0
C9675 C 0.84473 0.40075 0.42125 0.0
C9676 C 0.85336 0.39895 0.4219 0.0
H9677 H 0.83345 0.39966 0.4139 0.0
H9678 H 0.84137 0.40341 0.42654 0.0
S9679 S 0.86682 0.38929 0.4055 0.0
N9680 N 0.8573 0.38933 0.40136 0.0
N9681 N 0.86584 0.39371 0.41484 0.0
C9682 C 0.85747 0.39545 0.41491 0.0
C9683 C 0.85285 0.39317 0.40758 0.0
C9684 C 0.88685 0.42614 0.81861 0.0
C9685 C 0.89433 0.42842 0.81445 0.0
C9686 C 0.88115 0.42048 0.81495 0.0
C9687 C 0.88267 0.41704 0.80696 0.0
H9688 H 0.88566 0.42828 0.82497 0.0
H9689 H 0.87575 0.41845 0.81857 0.0
S9690 S 0.90077 0.42173 0.79306 0.0
N9691 N 0.90254 0.42738 0.8016 0.0
N9692 N 0.89178 0.41678 0.79472 0.0
C9693 C 0.8898 0.41972 0.80249 0.0
C9694 C 0.89565 0.4254 0.80625 0.0
C9695 C 0.84023 0.60541 0.0903 0.0
C9696 C 0.84404 0.61007 0.0968 0.0
C9697 C 0.8447 0.60333 0.08296 0.0
C9698 C 0.85308 0.60594 0.08186 0.0
H9699 H 0.83367 0.60364 0.09076 0.0
H9700 H 0.84144 0.60011 0.07792 0.0
S9701 S 0.86612 0.61764 0.09722 0.0
N9702 N 0.85685 0.61678 0.10181 0.0
N9703 N 0.86522 0.61275 0.0881 0.0
C9704 C 0.85708 0.61015 0.0885 0.0
C9705 C 0.85257 0.61225 0.09595 0.0
C9706 C 0.61611 0.57453 0.31192 0.0
C9707 C 0.60881 0.5775 0.31596 0.0
C9708 C 0.62199 0.58015 0.3084 0.0
C9709 C 0.62082 0.58891 0.30898 0.0
H9710 H 0.61728 0.56783 0.31148 0.0
H9711 H 0.62755 0.57765 0.30536 0.0
S9712 S 0.60268 0.59983 0.31883 0.0
N9713 N 0.60078 0.58975 0.32034 0.0
N9714 N 0.61163 0.60023 0.31359 0.0
C9715 C 0.61348 0.59191 0.31291 0.0
C9716 C 0.60754 0.58623 0.31644 0.0
C9717 C 0.65802 0.40158 0.59559 0.0
C9718 C 0.66259 0.39399 0.59539 0.0
C9719 C 0.65341 0.40431 0.58855 0.0
C9720 C 0.65319 0.39948 0.58116 0.0
H9721 H 0.65787 0.40532 0.60128 0.0
H9722 H 0.64977 0.41006 0.58897 0.0
S9723 S 0.66383 0.37911 0.57746 0.0
N9724 N 0.66648 0.3817 0.58716 0.0
N9725 N 0.65785 0.38685 0.574 0.0
C9726 C 0.65783 0.39199 0.58083 0.0
C9727 C 0.66253 0.38924 0.58793 0.0
C9728 C 0.69304 0.88861 0.57425 0.0
C9729 C 0.68921 0.89604 0.57721 0.0
C9730 C 0.6967 0.88281 0.57985 0.0
C9731 C 0.69648 0.8842 0.58859 0.0
H9732 H 0.69315 0.88727 0.56757 0.0
H9733 H 0.69952 0.87713 0.57737 0.0
S9734 S 0.68736 0.9027 0.5995 0.0
N9735 N 0.68549 0.90442 0.58945 0.0
N9736 N 0.69248 0.89368 0.59989 0.0
C9737 C 0.69282 0.89167 0.59158 0.0
C9738 C 0.68914 0.89753 0.58592 0.0
C9739 C 0.18464 0.61707 0.42553 0.0
C9740 C 0.18923 0.61038 0.42905 0.0
C9741 C 0.1884 0.62265 0.41983 0.0
C9742 C 0.19691 0.6218 0.41754 0.0
H9743 H 0.17797 0.61768 0.42678 0.0
H9744 H 0.18454 0.62743 0.4169 0.0
S9745 S 0.21184 0.60588 0.42575 0.0
N9746 N 0.20284 0.60362 0.43041 0.0
N9747 N 0.20996 0.61415 0.41975 0.0
C9748 C 0.2017 0.61548 0.42146 0.0
C9749 C 0.19783 0.60974 0.42719 0.0
C9750 C 0.60342 0.9082 0.65738 0.0
C9751 C 0.60913 0.90911 0.66412 0.0
C9752 C 0.60084 0.91515 0.65257 0.0
C9753 C 0.60373 0.92326 0.65445 0.0
H9754 H 0.60118 0.90202 0.65558 0.0
H9755 H 0.59682 0.91413 0.64716 0.0
S9756 S 0.61834 0.92927 0.67152 0.0
N9757 N 0.61739 0.91897 0.67244 0.0
N9758 N 0.61221 0.93199 0.66359 0.0
C9759 C 0.60903 0.92436 0.66139 0.0
C9760 C 0.61179 0.91731 0.66621 0.0
C9761 C 0.30939 0.39847 0.92026 0.0
C9762 C 0.31428 0.39585 0.92716 0.0
C9763 C 0.30542 0.39263 0.915 0.0
C9764 C 0.30612 0.38397 0.9165 0.0
H9765 H 0.30899 0.40507 0.91864 0.0
H9766 H 0.30215 0.3949 0.90947 0.0
S9767 S 0.31716 0.37381 0.93427 0.0
N9768 N 0.31889 0.38397 0.93564 0.0
N9769 N 0.31128 0.373 0.92574 0.0
C9770 C 0.31041 0.38125 0.92369 0.0
C9771 C 0.3145 0.3872 0.92907 0.0
C9772 C 0.39293 0.58799 0.66452 0.0
C9773 C 0.39533 0.59615 0.66201 0.0
C9774 C 0.39577 0.58086 0.66018 0.0
C9775 C 0.40105 0.58164 0.65315 0.0
H9776 H 0.38842 0.5871 0.66955 0.0
H9777 H 0.39342 0.57474 0.66203 0.0
S9778 S 0.41025 0.6013 0.6448 0.0
N9779 N 0.40427 0.60441 0.65271 0.0
N9780 N 0.40927 0.59097 0.64434 0.0
C9781 C 0.4039 0.58965 0.65086 0.0
C9782 C 0.40113 0.59691 0.65535 0.0
C9783 C 0.8184 0.1174 0.07691 0.0
C9784 C 0.81474 0.10942 0.07572 0.0
C9785 C 0.8147 0.12335 0.08228 0.0
C9786 C 0.80714 0.12158 0.08648 0.0
H9787 H 0.82445 0.11885 0.07412 0.0
H9788 H 0.81796 0.12922 0.08346 0.0
S9789 S 0.79461 0.10201 0.08487 0.0
N9790 N 0.8028 0.10035 0.07869 0.0
N9791 N 0.79583 0.11157 0.08873 0.0
C9792 C 0.80315 0.11386 0.08494 0.0
C9793 C 0.80695 0.10777 0.07957 0.0
C9794 C 0.61639 0.09094 0.84593 0.0
C9795 C 0.61037 0.09618 0.84219 0.0
C9796 C 0.61397 0.08393 0.85063 0.0
C9797 C 0.60543 0.0819 0.85181 0.0
H9798 H 0.62303 0.09237 0.84533 0.0
H9799 H 0.61886 0.08009 0.85341 0.0
S9800 S 0.58726 0.09359 0.84303 0.0
N9801 N 0.59557 0.0989 0.83972 0.0
N9802 N 0.59094 0.08562 0.84861 0.0
C9803 C 0.59934 0.087 0.84791 0.0
C9804 C 0.60183 0.09419 0.84311 0.0
C9805 C 0.89899 0.90694 0.35035 0.0
C9806 C 0.89526 0.90759 0.34233 0.0
C9807 C 0.90187 0.91406 0.35465 0.0
C9808 C 0.90128 0.9221 0.35105 0.0
H9809 H 0.89927 0.90092 0.35353 0.0
H9810 H 0.90419 0.91334 0.36102 0.0
S9811 S 0.89297 0.92721 0.32989 0.0
N9812 N 0.89177 0.91693 0.33072 0.0
N9813 N 0.89742 0.93028 0.33875 0.0
C9814 C 0.89823 0.92279 0.34278 0.0
C9815 C 0.89519 0.91554 0.33843 0.0
C9816 C 0.42829 0.3139 0.11654 0.0
C9817 C 0.42583 0.31319 0.10807 0.0
C9818 C 0.42377 0.30984 0.12296 0.0
C9819 C 0.41662 0.30491 0.12115 0.0
H9820 H 0.43348 0.31795 0.11828 0.0
H9821 H 0.42575 0.31076 0.12941 0.0
S9822 S 0.40814 0.30037 0.09988 0.0
N9823 N 0.41633 0.3065 0.09814 0.0
N9824 N 0.40762 0.2992 0.11018 0.0
C9825 C 0.41437 0.30381 0.11266 0.0
C9826 C 0.41902 0.30787 0.10614 0.0
C9827 C 0.41642 0.66298 0.8951 0.0
C9828 C 0.40854 0.65918 0.89379 0.0
C9829 C 0.42291 0.65867 0.89929 0.0
C9830 C 0.42175 0.65041 0.90231 0.0
H9831 H 0.41772 0.66915 0.89254 0.0
H9832 H 0.42893 0.66177 0.89998 0.0
S9833 S 0.40194 0.63806 0.90115 0.0
N9834 N 0.39965 0.64708 0.89656 0.0
N9835 N 0.41189 0.63882 0.90401 0.0
C9836 C 0.41375 0.64673 0.90137 0.0
C9837 C 0.40714 0.65115 0.89721 0.0
C9838 C 0.0846 0.68561 0.61338 0.0
C9839 C 0.07807 0.68988 0.60923 0.0
C9840 C 0.08908 0.68939 0.61993 0.0
C9841 C 0.08727 0.69765 0.62255 0.0
H9842 H 0.08631 0.67929 0.61148 0.0
H9843 H 0.09415 0.68589 0.62285 0.0
S9844 S 0.07059 0.71144 0.61387 0.0
N9845 N 0.06983 0.70269 0.6083 0.0
N9846 N 0.07834 0.70991 0.62063 0.0
C9847 C 0.08069 0.70197 0.61852 0.0
C9848 C 0.07604 0.69805 0.61188 0.0
C9849 C 0.08678 0.34274 0.39167 0.0
C9850 C 0.09521 0.34367 0.39423 0.0
C9851 C 0.0803 0.34731 0.39554 0.0
C9852 C 0.08201 0.353 0.4021 0.0
H9853 H 0.08523 0.33878 0.38635 0.0
H9854 H 0.07398 0.34672 0.39308 0.0
S9855 S 0.10277 0.35661 0.41211 0.0
N9856 N 0.10474 0.34989 0.40444 0.0
N9857 N 0.09257 0.3585 0.41169 0.0
C9858 C 0.09032 0.35357 0.40508 0.0
C9859 C 0.09691 0.34891 0.40115 0.0
C9860 C 0.42711 0.69802 0.39356 0.0
C9861 C 0.42649 0.68936 0.39522 0.0
C9862 C 0.42229 0.70174 0.38712 0.0
C9863 C 0.41677 0.69689 0.38215 0.0
H9864 H 0.43118 0.70194 0.39735 0.0
H9865 H 0.42286 0.70844 0.38606 0.0
S9866 S 0.41291 0.67397 0.38426 0.0
N9867 N 0.42002 0.67608 0.39152 0.0
N9868 N 0.41093 0.683 0.37952 0.0
C9869 C 0.41621 0.68821 0.38376 0.0
C9870 C 0.42108 0.68447 0.39028 0.0
C9871 C 0.08796 0.66274 0.1084 0.0
C9872 C 0.09542 0.65858 0.11069 0.0
C9873 C 0.08153 0.65849 0.10408 0.0
C9874 C 0.08237 0.64994 0.10185 0.0
H9875 H 0.08691 0.66919 0.11032 0.0
H9876 H 0.07579 0.66185 0.10265 0.0
S9877 S 0.10108 0.63652 0.10575 0.0
N9878 N 0.10362 0.64574 0.10978 0.0
N9879 N 0.0915 0.63765 0.10194 0.0
C9880 C 0.08999 0.64587 0.10376 0.0
C9881 C 0.09652 0.65021 0.10811 0.0
C9882 C 0.08377 0.30803 0.89765 0.0
C9883 C 0.07687 0.31332 0.89595 0.0
C9884 C 0.08826 0.30412 0.89116 0.0
C9885 C 0.08602 0.30532 0.88269 0.0
H9886 H 0.08592 0.30714 0.90406 0.0
H9887 H 0.09378 0.30048 0.89278 0.0
S9888 S 0.06779 0.31758 0.87487 0.0
N9889 N 0.0676 0.31895 0.88516 0.0
N9890 N 0.07587 0.31133 0.87298 0.0
C9891 C 0.0788 0.31011 0.88092 0.0
C9892 C 0.07425 0.31414 0.88753 0.0
C9893 C 0.41764 0.34324 0.613 0.0
C9894 C 0.40932 0.3436 0.61 0.0
C9895 C 0.42409 0.34787 0.60915 0.0
C9896 C 0.42245 0.35304 0.60216 0.0
H9897 H 0.41912 0.33968 0.61862 0.0
H9898 H 0.43031 0.3477 0.61191 0.0
S9899 S 0.40203 0.35511 0.59106 0.0
N9900 N 0.40001 0.34877 0.59904 0.0
N9901 N 0.41212 0.35748 0.5918 0.0
C9902 C 0.41427 0.35307 0.5988 0.0
C9903 C 0.40771 0.34835 0.60272 0.0
C9904 C 0.11425 0.42057 0.31901 0.0
C9905 C 0.10917 0.42609 0.31436 0.0
C9906 C 0.12068 0.41597 0.31515 0.0
C9907 C 0.12221 0.41663 0.30646 0.0
H9908 H 0.11315 0.41971 0.32568 0.0
H9909 H 0.12433 0.41166 0.31897 0.0
S9910 S 0.11081 0.4305 0.29157 0.0
N9911 N 0.10618 0.43222 0.30072 0.0
N9912 N 0.11828 0.42351 0.29337 0.0
C9913 C 0.11724 0.42226 0.30175 0.0
C9914 C 0.11073 0.42702 0.30573 0.0
C9915 C 0.34143 0.39515 0.08787 0.0
C9916 C 0.34523 0.39366 0.09572 0.0
C9917 C 0.34577 0.39939 0.08145 0.0
C9918 C 0.35406 0.4023 0.08263 0.0
H9919 H 0.33522 0.39268 0.08656 0.0
H9920 H 0.34267 0.40021 0.07543 0.0
S9921 S 0.36645 0.40067 0.10238 0.0
N9922 N 0.35739 0.39613 0.10461 0.0
N9923 N 0.36569 0.40373 0.09249 0.0
C9924 C 0.35775 0.4012 0.09061 0.0
C9925 C 0.3533 0.39696 0.09715 0.0
C9926 C 0.38719 0.57616 0.81485 0.0
C9927 C 0.39569 0.57742 0.81273 0.0
C9928 C 0.38077 0.58081 0.81098 0.0
C9929 C 0.38258 0.58696 0.80486 0.0
H9930 H 0.38549 0.57183 0.81984 0.0
H9931 H 0.37434 0.57975 0.81299 0.0
S9932 S 0.40375 0.592 0.79638 0.0
N9933 N 0.40549 0.58458 0.80343 0.0
N9934 N 0.3935 0.59364 0.79648 0.0
C9935 C 0.39101 0.58796 0.80236 0.0
C9936 C 0.39754 0.58314 0.80623 0.0
C9937 C 0.16114 0.61256 0.58682 0.0
C9938 C 0.16047 0.60976 0.59519 0.0
C9939 C 0.15654 0.60873 0.58034 0.0
C9940 C 0.15108 0.60197 0.58199 0.0
H9941 H 0.16493 0.61803 0.58531 0.0
H9942 H 0.15695 0.61136 0.57406 0.0
S9943 S 0.14815 0.59138 0.60257 0.0
N9944 N 0.15471 0.59918 0.60459 0.0
N9945 N 0.14605 0.59199 0.59242 0.0
C9946 C 0.15075 0.59879 0.59024 0.0
C9947 C 0.15544 0.60267 0.59683 0.0
C9948 C 0.11243 0.57498 0.19659 0.0
C9949 C 0.10821 0.57797 0.18942 0.0
C9950 C 0.119 0.57967 0.20025 0.0
C9951 C 0.12161 0.58735 0.19669 0.0
H9952 H 0.11059 0.56908 0.19944 0.0
H9953 H 0.12209 0.57725 0.20581 0.0
S9954 S 0.11262 0.59772 0.17787 0.0
N9955 N 0.10711 0.58898 0.1789 0.0
N9956 N 0.11946 0.5977 0.18568 0.0
C9957 C 0.11747 0.59031 0.1895 0.0
C9958 C 0.11076 0.58563 0.18587 0.0
C9959 C 0.16288 0.39497 0.91639 0.0
C9960 C 0.15926 0.39422 0.90835 0.0
C9961 C 0.15865 0.39915 0.92292 0.0
C9962 C 0.15062 0.40271 0.9217 0.0
H9963 H 0.16884 0.39196 0.91776 0.0
H9964 H 0.16163 0.3994 0.92904 0.0
S9965 S 0.13887 0.40325 0.90148 0.0
N9966 N 0.14767 0.39822 0.89924 0.0
N9967 N 0.13947 0.40557 0.91158 0.0
C9968 C 0.14714 0.40235 0.91355 0.0
C9969 C 0.15152 0.39823 0.90688 0.0
C9970 C 0.38719 0.42775 0.68862 0.0
C9971 C 0.39554 0.42722 0.6915 0.0
C9972 C 0.38075 0.42303 0.69238 0.0
C9973 C 0.38239 0.41756 0.69915 0.0
H9974 H 0.38567 0.43151 0.68315 0.0
H9975 H 0.37447 0.4235 0.68978 0.0
S9976 S 0.40302 0.41465 0.70969 0.0
N9977 N 0.40493 0.42152 0.70214 0.0
N9978 N 0.39293 0.41236 0.70895 0.0
C9979 C 0.39063 0.41733 0.70239 0.0
C9980 C 0.39717 0.4222 0.69862 0.0
C9981 C 0.35313 0.60768 0.40816 0.0
C9982 C 0.34475 0.61037 0.4091 0.0
C9983 C 0.35733 0.60342 0.41461 0.0
C9984 C 0.35331 0.60158 0.42228 0.0
H9985 H 0.3566 0.60914 0.40247 0.0
H9986 H 0.36391 0.60191 0.41369 0.0
S9987 S 0.33104 0.60621 0.42751 0.0
N9988 N 0.33236 0.6103 0.41806 0.0
N9989 N 0.34015 0.60193 0.43007 0.0
C9990 C 0.34476 0.60374 0.4231 0.0
C9991 C 0.3405 0.60818 0.41654 0.0
C9992 C 0.31418 0.11634 0.42812 0.0
C9993 C 0.31308 0.10783 0.42594 0.0
C9994 C 0.31016 0.12276 0.42358 0.0
C9995 C 0.30489 0.12094 0.41669 0.0
H9996 H 0.3185 0.11808 0.43309 0.0
H9997 H 0.31139 0.12923 0.42534 0.0
S9998 S 0.29927 0.09961 0.40903 0.0
N9999 N 0.30567 0.09789 0.41702 0.0
N10000 N 0.29844 0.10993 0.40826 0.0
C10001 C 0.30341 0.11243 0.41474 0.0
C10002 C 0.30743 0.1059 0.41941 0.0
C10003 C 0.81375 0.38751 0.57604 0.0
C10004 C 0.81336 0.39596 0.57862 0.0
C10005 C 0.80971 0.38115 0.58066 0.0
C10006 C 0.8051 0.38302 0.588 0.0
H10007 H 0.81756 0.38574 0.57067 0.0
H10008 H 0.8104 0.3747 0.5786 0.0
S10009 S 0.80148 0.4043 0.59689 0.0
N10010 N 0.80736 0.40596 0.58849 0.0
N10011 N 0.80001 0.39403 0.59732 0.0
C10012 C 0.8043 0.39151 0.59037 0.0
C10013 C 0.80838 0.39796 0.58565 0.0
C10014 C 0.40129 0.09506 0.3465 0.0
C10015 C 0.39302 0.09425 0.34351 0.0
C10016 C 0.40513 0.08853 0.35104 0.0
C10017 C 0.40079 0.08101 0.35283 0.0
H10018 H 0.40476 0.10083 0.34542 0.0
H10019 H 0.41151 0.08942 0.35326 0.0
S10020 S 0.37876 0.07614 0.34685 0.0
N10021 N 0.38052 0.08553 0.34281 0.0
N10022 N 0.38761 0.07336 0.35152 0.0
C10023 C 0.3925 0.08016 0.34984 0.0
C10024 C 0.38865 0.08676 0.34515 0.0
C10025 C 0.69763 0.60745 0.08184 0.0
C10026 C 0.69086 0.60907 0.07634 0.0
C10027 C 0.70132 0.6139 0.08659 0.0
C10028 C 0.69842 0.62224 0.08603 0.0
H10029 H 0.69991 0.60109 0.08268 0.0
H10030 H 0.70623 0.61226 0.09102 0.0
S10031 S 0.68158 0.63003 0.07189 0.0
N10032 N 0.6818 0.61979 0.07024 0.0
N10033 N 0.68901 0.63193 0.07888 0.0
C10034 C 0.69203 0.62404 0.08018 0.0
C10035 C 0.68821 0.61747 0.0754 0.0
C10036 C 0.61249 0.41782 0.34233 0.0
C10037 C 0.60954 0.40948 0.34273 0.0
C10038 C 0.60887 0.4242 0.34725 0.0
C10039 C 0.60218 0.42247 0.35278 0.0
H10040 H 0.61791 0.41937 0.33851 0.0
H10041 H 0.61158 0.43044 0.347 0.0
S10042 S 0.59125 0.40201 0.35519 0.0
N10043 N 0.59884 0.40009 0.34836 0.0
N10044 N 0.59214 0.41205 0.35768 0.0
C10045 C 0.59887 0.41428 0.3529 0.0
C10046 C 0.60251 0.4078 0.34785 0.0
C10047 C 0.19637 0.89705 0.92019 0.0
C10048 C 0.19113 0.89528 0.92711 0.0
C10049 C 0.20032 0.89061 0.91565 0.0
C10050 C 0.19926 0.88211 0.91788 0.0
H10051 H 0.19721 0.90346 0.91805 0.0
H10052 H 0.20391 0.8923 0.91011 0.0
S10053 S 0.18717 0.87414 0.93618 0.0
N10054 N 0.18565 0.8844 0.93637 0.0
N10055 N 0.19342 0.87234 0.92809 0.0
C10056 C 0.19452 0.88028 0.92514 0.0
C10057 C 0.19041 0.88685 0.92971 0.0
C10058 C 0.39171 0.91754 0.16127 0.0
C10059 C 0.3944 0.90914 0.1605 0.0
C10060 C 0.39554 0.924 0.15665 0.0
C10061 C 0.40219 0.9223 0.15106 0.0
H10062 H 0.38633 0.91908 0.16516 0.0
H10063 H 0.393 0.9303 0.15714 0.0
S10064 S 0.41249 0.90162 0.14783 0.0
N10065 N 0.40478 0.89965 0.1545 0.0
N10066 N 0.41197 0.91179 0.1458 0.0
C10067 C 0.40528 0.91402 0.15063 0.0
C10068 C 0.40139 0.90745 0.15534 0.0
C10069 C 0.10853 0.09564 0.65049 0.0
C10070 C 0.11053 0.09494 0.65909 0.0
C10071 C 0.10419 0.08926 0.64627 0.0
C10072 C 0.10161 0.08191 0.65047 0.0
H10073 H 0.11059 0.10106 0.64692 0.0
H10074 H 0.10318 0.08995 0.63957 0.0
S10075 S 0.10432 0.07745 0.67321 0.0
N10076 N 0.10902 0.08661 0.67181 0.0
N10077 N 0.10058 0.0747 0.66392 0.0
C10078 C 0.10311 0.08135 0.65918 0.0
C10079 C 0.1076 0.08785 0.66348 0.0
loop_
_geom_bond_atom_site_label_1
_geom_bond_atom_site_label_2
_geom_bond_distance
_geom_bond_site_symmetry_2
_ccdc_geom_bond_type
C0 C1 1.264 . S
C0 C5 1.479 . S
C0 C10 1.465 . S
C1 C0 1.264 . S
C1 C3 1.339 . S
C1 H28 0.931 . S
C2 C3 1.395 . S
C2 C4 1.320 . S
C3 C1 1.339 . S
C3 C2 1.395 . S
C3 H29 0.929 . S
C4 C2 1.320 . S
C4 C5 1.405 . S
C4 H30 0.930 . S
C5 C0 1.479 . S
C5 C4 1.405 . S
C5 H31 0.931 . S
U6 O7 2.454 . S
U6 O8 2.458 . S
U6 C9 2.984 . S
U6 C10 2.847 . S
U6 C23 2.882 . S
U6 O24 2.441 . S
U6 O25 2.420 . S
U6 O26 2.455 . S
U6 O27 2.449 . S
O7 U6 2.454 . S
O7 C9 1.353 . S
O8 U6 2.458 . S
O8 C9 1.286 . S
C9 U6 2.984 . S
C9 O7 1.353 . S
C9 O8 1.286 . S
C9 C11 1.363 . S
C10 C0 1.465 . S
C10 U6 2.847 . S
C10 O24 1.249 . S
C10 O25 1.202 . S
C11 C9 1.363 . S
C11 C13 1.408 . S
C11 C16 1.342 . S
C12 C13 1.310 . S
C12 C15 1.461 . S
C12 H32 0.932 . S
C13 C11 1.408 . S
C13 C12 1.310 . S
C13 H33 0.930 . S
C14 C15 1.474 . S
C14 C16 1.285 . S
C14 H34 0.929 . S
C15 C12 1.461 . S
C15 C14 1.474 . S
C16 C11 1.342 . S
C16 C14 1.285 . S
C16 H35 0.930 . S
C17 C20 1.424 . S
C17 C22 1.245 . S
C17 C23 1.428 . S
C18 C21 1.260 . S
C18 C22 1.477 . S
C18 H36 0.932 . S
C19 C20 1.384 . S
C19 C21 1.479 . S
C19 H37 0.929 . S
C20 C17 1.424 . S
C20 C19 1.384 . S
C20 H38 0.928 . S
C21 C18 1.260 . S
C21 C19 1.479 . S
C22 C17 1.245 . S
C22 C18 1.477 . S
C22 H39 0.932 . S
C23 U6 2.882 . S
C23 C17 1.428 . S
C23 O26 1.301 . S
C23 O27 1.282 . S
O24 U6 2.441 . S
O24 C10 1.249 . S
O25 U6 2.420 . S
O25 C10 1.202 . S
O26 U6 2.455 . S
O26 C23 1.301 . S
O27 U6 2.449 . S
O27 C23 1.282 . S
H28 C1 0.931 . S
H29 C3 0.929 . S
H30 C4 0.930 . S
H31 C5 0.931 . S
H32 C12 0.932 . S
H33 C13 0.930 . S
H34 C14 0.929 . S
H35 C16 0.930 . S
H36 C18 0.932 . S
H37 C19 0.929 . S
H38 C20 0.928 . S
H39 C22 0.932 . S
C40 C41 1.264 . S
C40 C45 1.479 . S
C40 C50 1.465 . S
C41 C40 1.264 . S
C41 C43 1.339 . S
C41 H68 0.931 . S
C42 C43 1.395 . S
C42 C44 1.320 . S
C43 C41 1.339 . S
C43 C42 1.395 . S
C43 H69 0.929 . S
C44 C42 1.320 . S
C44 C45 1.405 . S
C44 H70 0.930 . S
C45 C40 1.479 . S
C45 C44 1.405 . S
C45 H71 0.931 . S
U46 O47 2.454 . S
U46 O48 2.458 . S
U46 C49 2.984 . S
U46 C50 2.847 . S
U46 C63 2.882 . S
U46 O64 2.441 . S
U46 O65 2.420 . S
U46 O66 2.455 . S
U46 O67 2.449 . S
O47 U46 2.454 . S
O47 C49 1.353 . S
O48 U46 2.458 . S
O48 C49 1.286 . S
C49 U46 2.984 . S
C49 O47 1.353 . S
C49 O48 1.286 . S
C49 C51 1.363 . S
C50 C40 1.465 . S
C50 U46 2.847 . S
C50 O64 1.249 . S
C50 O65 1.202 . S
C51 C49 1.363 . S
C51 C53 1.408 . S
C51 C56 1.342 . S
C52 C53 1.310 . S
C52 C55 1.461 . S
C52 H72 0.932 . S
C53 C51 1.408 . S
C53 C52 1.310 . S
C53 H73 0.930 . S
C54 C55 1.474 . S
C54 C56 1.285 . S
C54 H74 0.929 . S
C55 C52 1.461 . S
C55 C54 1.474 . S
C56 C51 1.342 . S
C56 C54 1.285 . S
C56 H75 0.930 . S
C57 C60 1.424 . S
C57 C62 1.245 . S
C57 C63 1.428 . S
C58 C61 1.260 . S
C58 C62 1.477 . S
C58 H76 0.932 . S
C59 C60 1.384 . S
C59 C61 1.479 . S
C59 H77 0.929 . S
C60 C57 1.424 . S
C60 C59 1.384 . S
C60 H78 0.928 . S
C61 C58 1.260 . S
C61 C59 1.479 . S
C62 C57 1.245 . S
C62 C58 1.477 . S
C62 H79 0.932 . S
C63 U46 2.882 . S
C63 C57 1.428 . S
C63 O66 1.301 . S
C63 O67 1.282 . S
O64 U46 2.441 . S
O64 C50 1.249 . S
O65 U46 2.420 . S
O65 C50 1.202 . S
O66 U46 2.455 . S
O66 C63 1.301 . S
O67 U46 2.449 . S
O67 C63 1.282 . S
H68 C41 0.931 . S
H69 C43 0.929 . S
H70 C44 0.930 . S
H71 C45 0.931 . S
H72 C52 0.932 . S
H73 C53 0.930 . S
H74 C54 0.929 . S
H75 C56 0.930 . S
H76 C58 0.932 . S
H77 C59 0.929 . S
H78 C60 0.928 . S
H79 C62 0.932 . S
C80 C81 1.264 . S
C80 C85 1.479 . S
C80 C90 1.465 . S
C81 C80 1.264 . S
C81 C83 1.339 . S
C81 H108 0.931 . S
C82 C83 1.395 . S
C82 C84 1.320 . S
C83 C81 1.339 . S
C83 C82 1.395 . S
C83 H109 0.929 . S
C84 C82 1.320 . S
C84 C85 1.405 . S
C84 H110 0.930 . S
C85 C80 1.479 . S
C85 C84 1.405 . S
C85 H111 0.931 . S
U86 O87 2.454 . S
U86 O88 2.458 . S
U86 C89 2.984 . S
U86 C90 2.847 . S
U86 C103 2.882 . S
U86 O104 2.441 . S
U86 O105 2.420 . S
U86 O106 2.455 . S
U86 O107 2.449 . S
O87 U86 2.454 . S
O87 C89 1.353 . S
O88 U86 2.458 . S
O88 C89 1.286 . S
C89 U86 2.984 . S
C89 O87 1.353 . S
C89 O88 1.286 . S
C89 C91 1.363 . S
C90 C80 1.465 . S
C90 U86 2.847 . S
C90 O104 1.249 . S
C90 O105 1.202 . S
C91 C89 1.363 . S
C91 C93 1.408 . S
C91 C96 1.342 . S
C92 C93 1.310 . S
C92 C95 1.461 . S
C92 H112 0.932 . S
C93 C91 1.408 . S
C93 C92 1.310 . S
C93 H113 0.930 . S
C94 C95 1.474 . S
C94 C96 1.285 . S
C94 H114 0.929 . S
C95 C92 1.461 . S
C95 C94 1.474 . S
C96 C91 1.342 . S
C96 C94 1.285 . S
C96 H115 0.930 . S
C97 C100 1.424 . S
C97 C102 1.245 . S
C97 C103 1.428 . S
C98 C101 1.260 . S
C98 C102 1.477 . S
C98 H116 0.932 . S
C99 C100 1.384 . S
C99 C101 1.479 . S
C99 H117 0.929 . S
C100 C97 1.424 . S
C100 C99 1.384 . S
C100 H118 0.928 . S
C101 C98 1.260 . S
C101 C99 1.479 . S
C102 C97 1.245 . S
C102 C98 1.477 . S
C102 H119 0.932 . S
C103 U86 2.882 . S
C103 C97 1.428 . S
C103 O106 1.301 . S
C103 O107 1.282 . S
O104 U86 2.441 . S
O104 C90 1.249 . S
O105 U86 2.420 . S
O105 C90 1.202 . S
O106 U86 2.455 . S
O106 C103 1.301 . S
O107 U86 2.449 . S
O107 C103 1.282 . S
H108 C81 0.931 . S
H109 C83 0.929 . S
H110 C84 0.930 . S
H111 C85 0.931 . S
H112 C92 0.932 . S
H113 C93 0.930 . S
H114 C94 0.929 . S
H115 C96 0.930 . S
H116 C98 0.932 . S
H117 C99 0.929 . S
H118 C100 0.928 . S
H119 C102 0.932 . S
C120 C121 1.264 . S
C120 C125 1.479 . S
C120 C130 1.465 . S
C121 C120 1.264 . S
C121 C123 1.339 . S
C121 H148 0.931 . S
C122 C123 1.395 . S
C122 C124 1.320 . S
C123 C121 1.339 . S
C123 C122 1.395 . S
C123 H149 0.929 . S
C124 C122 1.320 . S
C124 C125 1.405 . S
C124 H150 0.930 . S
C125 C120 1.479 . S
C125 C124 1.405 . S
C125 H151 0.931 . S
U126 O127 2.454 . S
U126 O128 2.458 . S
U126 C129 2.984 . S
U126 C130 2.847 . S
U126 C143 2.882 . S
U126 O144 2.441 . S
U126 O145 2.420 . S
U126 O146 2.455 . S
U126 O147 2.449 . S
O127 U126 2.454 . S
O127 C129 1.353 . S
O128 U126 2.458 . S
O128 C129 1.286 . S
C129 U126 2.984 . S
C129 O127 1.353 . S
C129 O128 1.286 . S
C129 C131 1.363 . S
C130 C120 1.465 . S
C130 U126 2.847 . S
C130 O144 1.249 . S
C130 O145 1.202 . S
C131 C129 1.363 . S
C131 C133 1.408 . S
C131 C136 1.342 . S
C132 C133 1.310 . S
C132 C135 1.461 . S
C132 H152 0.932 . S
C133 C131 1.408 . S
C133 C132 1.310 . S
C133 H153 0.930 . S
C134 C135 1.474 . S
C134 C136 1.285 . S
C134 H154 0.929 . S
C135 C132 1.461 . S
C135 C134 1.474 . S
C136 C131 1.342 . S
C136 C134 1.285 . S
C136 H155 0.930 . S
C137 C140 1.424 . S
C137 C142 1.245 . S
C137 C143 1.428 . S
C138 C141 1.260 . S
C138 C142 1.477 . S
C138 H156 0.932 . S
C139 C140 1.384 . S
C139 C141 1.479 . S
C139 H157 0.929 . S
C140 C137 1.424 . S
C140 C139 1.384 . S
C140 H158 0.928 . S
C141 C138 1.260 . S
C141 C139 1.479 . S
C142 C137 1.245 . S
C142 C138 1.477 . S
C142 H159 0.932 . S
C143 U126 2.882 . S
C143 C137 1.428 . S
C143 O146 1.301 . S
C143 O147 1.282 . S
O144 U126 2.441 . S
O144 C130 1.249 . S
O145 U126 2.420 . S
O145 C130 1.202 . S
O146 U126 2.455 . S
O146 C143 1.301 . S
O147 U126 2.449 . S
O147 C143 1.282 . S
H148 C121 0.931 . S
H149 C123 0.929 . S
H150 C124 0.930 . S
H151 C125 0.931 . S
H152 C132 0.932 . S
H153 C133 0.930 . S
H154 C134 0.929 . S
H155 C136 0.930 . S
H156 C138 0.932 . S
H157 C139 0.929 . S
H158 C140 0.928 . S
H159 C142 0.932 . S
C160 C161 1.264 . S
C160 C165 1.479 . S
C160 C170 1.465 . S
C161 C160 1.264 . S
C161 C163 1.339 . S
C161 H188 0.931 . S
C162 C163 1.395 . S
C162 C164 1.320 . S
C163 C161 1.339 . S
C163 C162 1.395 . S
C163 H189 0.929 . S
C164 C162 1.320 . S
C164 C165 1.405 . S
C164 H190 0.930 . S
C165 C160 1.479 . S
C165 C164 1.405 . S
C165 H191 0.931 . S
U166 O167 2.454 . S
U166 O168 2.458 . S
U166 C169 2.984 . S
U166 C170 2.847 . S
U166 C183 2.882 . S
U166 O184 2.441 . S
U166 O185 2.420 . S
U166 O186 2.455 . S
U166 O187 2.449 . S
O167 U166 2.454 . S
O167 C169 1.353 . S
O168 U166 2.458 . S
O168 C169 1.286 . S
C169 U166 2.984 . S
C169 O167 1.353 . S
C169 O168 1.286 . S
C169 C171 1.363 . S
C170 C160 1.465 . S
C170 U166 2.847 . S
C170 O184 1.249 . S
C170 O185 1.202 . S
C171 C169 1.363 . S
C171 C173 1.408 . S
C171 C176 1.342 . S
C172 C173 1.310 . S
C172 C175 1.461 . S
C172 H192 0.932 . S
C173 C171 1.408 . S
C173 C172 1.310 . S
C173 H193 0.930 . S
C174 C175 1.474 . S
C174 C176 1.285 . S
C174 H194 0.929 . S
C175 C172 1.461 . S
C175 C174 1.474 . S
C176 C171 1.342 . S
C176 C174 1.285 . S
C176 H195 0.930 . S
C177 C180 1.424 . S
C177 C182 1.245 . S
C177 C183 1.428 . S
C178 C181 1.260 . S
C178 C182 1.477 . S
C178 H196 0.932 . S
C179 C180 1.384 . S
C179 C181 1.479 . S
C179 H197 0.929 . S
C180 C177 1.424 . S
C180 C179 1.384 . S
C180 H198 0.928 . S
C181 C178 1.260 . S
C181 C179 1.479 . S
C182 C177 1.245 . S
C182 C178 1.477 . S
C182 H199 0.932 . S
C183 U166 2.882 . S
C183 C177 1.428 . S
C183 O186 1.301 . S
C183 O187 1.282 . S
O184 U166 2.441 . S
O184 C170 1.249 . S
O185 U166 2.420 . S
O185 C170 1.202 . S
O186 U166 2.455 . S
O186 C183 1.301 . S
O187 U166 2.449 . S
O187 C183 1.282 . S
H188 C161 0.931 . S
H189 C163 0.929 . S
H190 C164 0.930 . S
H191 C165 0.931 . S
H192 C172 0.932 . S
H193 C173 0.930 . S
H194 C174 0.929 . S
H195 C176 0.930 . S
H196 C178 0.932 . S
H197 C179 0.929 . S
H198 C180 0.928 . S
H199 C182 0.932 . S
C200 C201 1.264 . S
C200 C205 1.479 . S
C200 C210 1.465 . S
C201 C200 1.264 . S
C201 C203 1.339 . S
C201 H228 0.931 . S
C202 C203 1.395 . S
C202 C204 1.320 . S
C203 C201 1.339 . S
C203 C202 1.395 . S
C203 H229 0.929 . S
C204 C202 1.320 . S
C204 C205 1.405 . S
C204 H230 0.930 . S
C205 C200 1.479 . S
C205 C204 1.405 . S
C205 H231 0.931 . S
U206 O207 2.454 . S
U206 O208 2.458 . S
U206 C209 2.984 . S
U206 C210 2.847 . S
U206 C223 2.882 . S
U206 O224 2.441 . S
U206 O225 2.420 . S
U206 O226 2.455 . S
U206 O227 2.449 . S
O207 U206 2.454 . S
O207 C209 1.353 . S
O208 U206 2.458 . S
O208 C209 1.286 . S
C209 U206 2.984 . S
C209 O207 1.353 . S
C209 O208 1.286 . S
C209 C211 1.363 . S
C210 C200 1.465 . S
C210 U206 2.847 . S
C210 O224 1.249 . S
C210 O225 1.202 . S
C211 C209 1.363 . S
C211 C213 1.408 . S
C211 C216 1.342 . S
C212 C213 1.310 . S
C212 C215 1.461 . S
C212 H232 0.932 . S
C213 C211 1.408 . S
C213 C212 1.310 . S
C213 H233 0.930 . S
C214 C215 1.474 . S
C214 C216 1.285 . S
C214 H234 0.929 . S
C215 C212 1.461 . S
C215 C214 1.474 . S
C216 C211 1.342 . S
C216 C214 1.285 . S
C216 H235 0.930 . S
C217 C220 1.424 . S
C217 C222 1.245 . S
C217 C223 1.428 . S
C218 C221 1.260 . S
C218 C222 1.477 . S
C218 H236 0.932 . S
C219 C220 1.384 . S
C219 C221 1.479 . S
C219 H237 0.929 . S
C220 C217 1.424 . S
C220 C219 1.384 . S
C220 H238 0.928 . S
C221 C218 1.260 . S
C221 C219 1.479 . S
C222 C217 1.245 . S
C222 C218 1.477 . S
C222 H239 0.932 . S
C223 U206 2.882 . S
C223 C217 1.428 . S
C223 O226 1.301 . S
C223 O227 1.282 . S
O224 U206 2.441 . S
O224 C210 1.249 . S
O225 U206 2.420 . S
O225 C210 1.202 . S
O226 U206 2.455 . S
O226 C223 1.301 . S
O227 U206 2.449 . S
O227 C223 1.282 . S
H228 C201 0.931 . S
H229 C203 0.929 . S
H230 C204 0.930 . S
H231 C205 0.931 . S
H232 C212 0.932 . S
H233 C213 0.930 . S
H234 C214 0.929 . S
H235 C216 0.930 . S
H236 C218 0.932 . S
H237 C219 0.929 . S
H238 C220 0.928 . S
H239 C222 0.932 . S
C240 C241 1.264 . S
C240 C245 1.479 . S
C240 C250 1.465 . S
C241 C240 1.264 . S
C241 C243 1.339 . S
C241 H268 0.931 . S
C242 C243 1.395 . S
C242 C244 1.320 . S
C243 C241 1.339 . S
C243 C242 1.395 . S
C243 H269 0.929 . S
C244 C242 1.320 . S
C244 C245 1.405 . S
C244 H270 0.930 . S
C245 C240 1.479 . S
C245 C244 1.405 . S
C245 H271 0.931 . S
U246 O247 2.454 . S
U246 O248 2.458 . S
U246 C249 2.984 . S
U246 C250 2.847 . S
U246 C263 2.882 . S
U246 O264 2.441 . S
U246 O265 2.420 . S
U246 O266 2.455 . S
U246 O267 2.449 . S
O247 U246 2.454 . S
O247 C249 1.353 . S
O248 U246 2.458 . S
O248 C249 1.286 . S
C249 U246 2.984 . S
C249 O247 1.353 . S
C249 O248 1.286 . S
C249 C251 1.363 . S
C250 C240 1.465 . S
C250 U246 2.847 . S
C250 O264 1.249 . S
C250 O265 1.202 . S
C251 C249 1.363 . S
C251 C253 1.408 . S
C251 C256 1.342 . S
C252 C253 1.310 . S
C252 C255 1.461 . S
C252 H272 0.932 . S
C253 C251 1.408 . S
C253 C252 1.310 . S
C253 H273 0.930 . S
C254 C255 1.474 . S
C254 C256 1.285 . S
C254 H274 0.929 . S
C255 C252 1.461 . S
C255 C254 1.474 . S
C256 C251 1.342 . S
C256 C254 1.285 . S
C256 H275 0.930 . S
C257 C260 1.424 . S
C257 C262 1.245 . S
C257 C263 1.428 . S
C258 C261 1.260 . S
C258 C262 1.477 . S
C258 H276 0.932 . S
C259 C260 1.384 . S
C259 C261 1.479 . S
C259 H277 0.929 . S
C260 C257 1.424 . S
C260 C259 1.384 . S
C260 H278 0.928 . S
C261 C258 1.260 . S
C261 C259 1.479 . S
C262 C257 1.245 . S
C262 C258 1.477 . S
C262 H279 0.932 . S
C263 U246 2.882 . S
C263 C257 1.428 . S
C263 O266 1.301 . S
C263 O267 1.282 . S
O264 U246 2.441 . S
O264 C250 1.249 . S
O265 U246 2.420 . S
O265 C250 1.202 . S
O266 U246 2.455 . S
O266 C263 1.301 . S
O267 U246 2.449 . S
O267 C263 1.282 . S
H268 C241 0.931 . S
H269 C243 0.929 . S
H270 C244 0.930 . S
H271 C245 0.931 . S
H272 C252 0.932 . S
H273 C253 0.930 . S
H274 C254 0.929 . S
H275 C256 0.930 . S
H276 C258 0.932 . S
H277 C259 0.929 . S
H278 C260 0.928 . S
H279 C262 0.932 . S
C280 C281 1.264 . S
C280 C285 1.479 . S
C280 C290 1.465 . S
C281 C280 1.264 . S
C281 C283 1.339 . S
C281 H308 0.931 . S
C282 C283 1.395 . S
C282 C284 1.320 . S
C283 C281 1.339 . S
C283 C282 1.395 . S
C283 H309 0.929 . S
C284 C282 1.320 . S
C284 C285 1.405 . S
C284 H310 0.930 . S
C285 C280 1.479 . S
C285 C284 1.405 . S
C285 H311 0.931 . S
U286 O287 2.454 . S
U286 O288 2.458 . S
U286 C289 2.984 . S
U286 C290 2.847 . S
U286 C303 2.882 . S
U286 O304 2.441 . S
U286 O305 2.420 . S
U286 O306 2.455 . S
U286 O307 2.449 . S
O287 U286 2.454 . S
O287 C289 1.353 . S
O288 U286 2.458 . S
O288 C289 1.286 . S
C289 U286 2.984 . S
C289 O287 1.353 . S
C289 O288 1.286 . S
C289 C291 1.363 . S
C290 C280 1.465 . S
C290 U286 2.847 . S
C290 O304 1.249 . S
C290 O305 1.202 . S
C291 C289 1.363 . S
C291 C293 1.408 . S
C291 C296 1.342 . S
C292 C293 1.310 . S
C292 C295 1.461 . S
C292 H312 0.932 . S
C293 C291 1.408 . S
C293 C292 1.310 . S
C293 H313 0.930 . S
C294 C295 1.474 . S
C294 C296 1.285 . S
C294 H314 0.929 . S
C295 C292 1.461 . S
C295 C294 1.474 . S
C296 C291 1.342 . S
C296 C294 1.285 . S
C296 H315 0.930 . S
C297 C300 1.424 . S
C297 C302 1.245 . S
C297 C303 1.428 . S
C298 C301 1.260 . S
C298 C302 1.477 . S
C298 H316 0.932 . S
C299 C300 1.384 . S
C299 C301 1.479 . S
C299 H317 0.929 . S
C300 C297 1.424 . S
C300 C299 1.384 . S
C300 H318 0.928 . S
C301 C298 1.260 . S
C301 C299 1.479 . S
C302 C297 1.245 . S
C302 C298 1.477 . S
C302 H319 0.932 . S
C303 U286 2.882 . S
C303 C297 1.428 . S
C303 O306 1.301 . S
C303 O307 1.282 . S
O304 U286 2.441 . S
O304 C290 1.249 . S
O305 U286 2.420 . S
O305 C290 1.202 . S
O306 U286 2.455 . S
O306 C303 1.301 . S
O307 U286 2.449 . S
O307 C303 1.282 . S
H308 C281 0.931 . S
H309 C283 0.929 . S
H310 C284 0.930 . S
H311 C285 0.931 . S
H312 C292 0.932 . S
H313 C293 0.930 . S
H314 C294 0.929 . S
H315 C296 0.930 . S
H316 C298 0.932 . S
H317 C299 0.929 . S
H318 C300 0.928 . S
H319 C302 0.932 . S
C320 C321 1.264 . S
C320 C325 1.479 . S
C320 C330 1.465 . S
C321 C320 1.264 . S
C321 C323 1.339 . S
C321 H348 0.931 . S
C322 C323 1.395 . S
C322 C324 1.320 . S
C323 C321 1.339 . S
C323 C322 1.395 . S
C323 H349 0.929 . S
C324 C322 1.320 . S
C324 C325 1.405 . S
C324 H350 0.930 . S
C325 C320 1.479 . S
C325 C324 1.405 . S
C325 H351 0.931 . S
U326 O327 2.454 . S
U326 O328 2.458 . S
U326 C329 2.984 . S
U326 C330 2.847 . S
U326 C343 2.882 . S
U326 O344 2.441 . S
U326 O345 2.420 . S
U326 O346 2.455 . S
U326 O347 2.449 . S
O327 U326 2.454 . S
O327 C329 1.353 . S
O328 U326 2.458 . S
O328 C329 1.286 . S
C329 U326 2.984 . S
C329 O327 1.353 . S
C329 O328 1.286 . S
C329 C331 1.363 . S
C330 C320 1.465 . S
C330 U326 2.847 . S
C330 O344 1.249 . S
C330 O345 1.202 . S
C331 C329 1.363 . S
C331 C333 1.408 . S
C331 C336 1.342 . S
C332 C333 1.310 . S
C332 C335 1.461 . S
C332 H352 0.932 . S
C333 C331 1.408 . S
C333 C332 1.310 . S
C333 H353 0.930 . S
C334 C335 1.474 . S
C334 C336 1.285 . S
C334 H354 0.929 . S
C335 C332 1.461 . S
C335 C334 1.474 . S
C336 C331 1.342 . S
C336 C334 1.285 . S
C336 H355 0.930 . S
C337 C340 1.424 . S
C337 C342 1.245 . S
C337 C343 1.428 . S
C338 C341 1.260 . S
C338 C342 1.477 . S
C338 H356 0.932 . S
C339 C340 1.384 . S
C339 C341 1.479 . S
C339 H357 0.929 . S
C340 C337 1.424 . S
C340 C339 1.384 . S
C340 H358 0.928 . S
C341 C338 1.260 . S
C341 C339 1.479 . S
C342 C337 1.245 . S
C342 C338 1.477 . S
C342 H359 0.932 . S
C343 U326 2.882 . S
C343 C337 1.428 . S
C343 O346 1.301 . S
C343 O347 1.282 . S
O344 U326 2.441 . S
O344 C330 1.249 . S
O345 U326 2.420 . S
O345 C330 1.202 . S
O346 U326 2.455 . S
O346 C343 1.301 . S
O347 U326 2.449 . S
O347 C343 1.282 . S
H348 C321 0.931 . S
H349 C323 0.929 . S
H350 C324 0.930 . S
H351 C325 0.931 . S
H352 C332 0.932 . S
H353 C333 0.930 . S
H354 C334 0.929 . S
H355 C336 0.930 . S
H356 C338 0.932 . S
H357 C339 0.929 . S
H358 C340 0.928 . S
H359 C342 0.932 . S
C360 C361 1.264 . S
C360 C365 1.479 . S
C360 C370 1.465 . S
C361 C360 1.264 . S
C361 C363 1.339 . S
C361 H388 0.931 . S
C362 C363 1.395 . S
C362 C364 1.320 . S
C363 C361 1.339 . S
C363 C362 1.395 . S
C363 H389 0.929 . S
C364 C362 1.320 . S
C364 C365 1.405 . S
C364 H390 0.930 . S
C365 C360 1.479 . S
C365 C364 1.405 . S
C365 H391 0.931 . S
U366 O367 2.454 . S
U366 O368 2.458 . S
U366 C369 2.984 . S
U366 C370 2.847 . S
U366 C383 2.882 . S
U366 O384 2.441 . S
U366 O385 2.420 . S
U366 O386 2.455 . S
U366 O387 2.449 . S
O367 U366 2.454 . S
O367 C369 1.353 . S
O368 U366 2.458 . S
O368 C369 1.286 . S
C369 U366 2.984 . S
C369 O367 1.353 . S
C369 O368 1.286 . S
C369 C371 1.363 . S
C370 C360 1.465 . S
C370 U366 2.847 . S
C370 O384 1.249 . S
C370 O385 1.202 . S
C371 C369 1.363 . S
C371 C373 1.408 . S
C371 C376 1.342 . S
C372 C373 1.310 . S
C372 C375 1.461 . S
C372 H392 0.932 . S
C373 C371 1.408 . S
C373 C372 1.310 . S
C373 H393 0.930 . S
C374 C375 1.474 . S
C374 C376 1.285 . S
C374 H394 0.929 . S
C375 C372 1.461 . S
C375 C374 1.474 . S
C376 C371 1.342 . S
C376 C374 1.285 . S
C376 H395 0.930 . S
C377 C380 1.424 . S
C377 C382 1.245 . S
C377 C383 1.428 . S
C378 C381 1.260 . S
C378 C382 1.477 . S
C378 H396 0.932 . S
C379 C380 1.384 . S
C379 C381 1.479 . S
C379 H397 0.929 . S
C380 C377 1.424 . S
C380 C379 1.384 . S
C380 H398 0.928 . S
C381 C378 1.260 . S
C381 C379 1.479 . S
C382 C377 1.245 . S
C382 C378 1.477 . S
C382 H399 0.932 . S
C383 U366 2.882 . S
C383 C377 1.428 . S
C383 O386 1.301 . S
C383 O387 1.282 . S
O384 U366 2.441 . S
O384 C370 1.249 . S
O385 U366 2.420 . S
O385 C370 1.202 . S
O386 U366 2.455 . S
O386 C383 1.301 . S
O387 U366 2.449 . S
O387 C383 1.282 . S
H388 C361 0.931 . S
H389 C363 0.929 . S
H390 C364 0.930 . S
H391 C365 0.931 . S
H392 C372 0.932 . S
H393 C373 0.930 . S
H394 C374 0.929 . S
H395 C376 0.930 . S
H396 C378 0.932 . S
H397 C379 0.929 . S
H398 C380 0.928 . S
H399 C382 0.932 . S
C400 C401 1.264 . S
C400 C405 1.479 . S
C400 C410 1.465 . S
C401 C400 1.264 . S
C401 C403 1.339 . S
C401 H428 0.931 . S
C402 C403 1.395 . S
C402 C404 1.320 . S
C403 C401 1.339 . S
C403 C402 1.395 . S
C403 H429 0.929 . S
C404 C402 1.320 . S
C404 C405 1.405 . S
C404 H430 0.930 . S
C405 C400 1.479 . S
C405 C404 1.405 . S
C405 H431 0.931 . S
U406 O407 2.454 . S
U406 O408 2.458 . S
U406 C409 2.984 . S
U406 C410 2.847 . S
U406 C423 2.882 . S
U406 O424 2.441 . S
U406 O425 2.420 . S
U406 O426 2.455 . S
U406 O427 2.449 . S
O407 U406 2.454 . S
O407 C409 1.353 . S
O408 U406 2.458 . S
O408 C409 1.286 . S
C409 U406 2.984 . S
C409 O407 1.353 . S
C409 O408 1.286 . S
C409 C411 1.363 . S
C410 C400 1.465 . S
C410 U406 2.847 . S
C410 O424 1.249 . S
C410 O425 1.202 . S
C411 C409 1.363 . S
C411 C413 1.408 . S
C411 C416 1.342 . S
C412 C413 1.310 . S
C412 C415 1.461 . S
C412 H432 0.932 . S
C413 C411 1.408 . S
C413 C412 1.310 . S
C413 H433 0.930 . S
C414 C415 1.474 . S
C414 C416 1.285 . S
C414 H434 0.929 . S
C415 C412 1.461 . S
C415 C414 1.474 . S
C416 C411 1.342 . S
C416 C414 1.285 . S
C416 H435 0.930 . S
C417 C420 1.424 . S
C417 C422 1.245 . S
C417 C423 1.428 . S
C418 C421 1.260 . S
C418 C422 1.477 . S
C418 H436 0.932 . S
C419 C420 1.384 . S
C419 C421 1.479 . S
C419 H437 0.929 . S
C420 C417 1.424 . S
C420 C419 1.384 . S
C420 H438 0.928 . S
C421 C418 1.260 . S
C421 C419 1.479 . S
C422 C417 1.245 . S
C422 C418 1.477 . S
C422 H439 0.932 . S
C423 U406 2.882 . S
C423 C417 1.428 . S
C423 O426 1.301 . S
C423 O427 1.282 . S
O424 U406 2.441 . S
O424 C410 1.249 . S
O425 U406 2.420 . S
O425 C410 1.202 . S
O426 U406 2.455 . S
O426 C423 1.301 . S
O427 U406 2.449 . S
O427 C423 1.282 . S
H428 C401 0.931 . S
H429 C403 0.929 . S
H430 C404 0.930 . S
H431 C405 0.931 . S
H432 C412 0.932 . S
H433 C413 0.930 . S
H434 C414 0.929 . S
H435 C416 0.930 . S
H436 C418 0.932 . S
H437 C419 0.929 . S
H438 C420 0.928 . S
H439 C422 0.932 . S
C440 C441 1.264 . S
C440 C445 1.479 . S
C440 C450 1.465 . S
C441 C440 1.264 . S
C441 C443 1.339 . S
C441 H468 0.931 . S
C442 C443 1.395 . S
C442 C444 1.320 . S
C443 C441 1.339 . S
C443 C442 1.395 . S
C443 H469 0.929 . S
C444 C442 1.320 . S
C444 C445 1.405 . S
C444 H470 0.930 . S
C445 C440 1.479 . S
C445 C444 1.405 . S
C445 H471 0.931 . S
U446 O447 2.454 . S
U446 O448 2.458 . S
U446 C449 2.984 . S
U446 C450 2.847 . S
U446 C463 2.882 . S
U446 O464 2.441 . S
U446 O465 2.420 . S
U446 O466 2.455 . S
U446 O467 2.449 . S
O447 U446 2.454 . S
O447 C449 1.353 . S
O448 U446 2.458 . S
O448 C449 1.286 . S
C449 U446 2.984 . S
C449 O447 1.353 . S
C449 O448 1.286 . S
C449 C451 1.363 . S
C450 C440 1.465 . S
C450 U446 2.847 . S
C450 O464 1.249 . S
C450 O465 1.202 . S
C451 C449 1.363 . S
C451 C453 1.408 . S
C451 C456 1.342 . S
C452 C453 1.310 . S
C452 C455 1.461 . S
C452 H472 0.932 . S
C453 C451 1.408 . S
C453 C452 1.310 . S
C453 H473 0.930 . S
C454 C455 1.474 . S
C454 C456 1.285 . S
C454 H474 0.929 . S
C455 C452 1.461 . S
C455 C454 1.474 . S
C456 C451 1.342 . S
C456 C454 1.285 . S
C456 H475 0.930 . S
C457 C460 1.424 . S
C457 C462 1.245 . S
C457 C463 1.428 . S
C458 C461 1.260 . S
C458 C462 1.477 . S
C458 H476 0.932 . S
C459 C460 1.384 . S
C459 C461 1.479 . S
C459 H477 0.929 . S
C460 C457 1.424 . S
C460 C459 1.384 . S
C460 H478 0.928 . S
C461 C458 1.260 . S
C461 C459 1.479 . S
C462 C457 1.245 . S
C462 C458 1.477 . S
C462 H479 0.932 . S
C463 U446 2.882 . S
C463 C457 1.428 . S
C463 O466 1.301 . S
C463 O467 1.282 . S
O464 U446 2.441 . S
O464 C450 1.249 . S
O465 U446 2.420 . S
O465 C450 1.202 . S
O466 U446 2.455 . S
O466 C463 1.301 . S
O467 U446 2.449 . S
O467 C463 1.282 . S
H468 C441 0.931 . S
H469 C443 0.929 . S
H470 C444 0.930 . S
H471 C445 0.931 . S
H472 C452 0.932 . S
H473 C453 0.930 . S
H474 C454 0.929 . S
H475 C456 0.930 . S
H476 C458 0.932 . S
H477 C459 0.929 . S
H478 C460 0.928 . S
H479 C462 0.932 . S
C480 C481 1.264 . S
C480 C485 1.479 . S
C480 C490 1.465 . S
C481 C480 1.264 . S
C481 C483 1.339 . S
C481 H508 0.931 . S
C482 C483 1.395 . S
C482 C484 1.320 . S
C483 C481 1.339 . S
C483 C482 1.395 . S
C483 H509 0.929 . S
C484 C482 1.320 . S
C484 C485 1.405 . S
C484 H510 0.930 . S
C485 C480 1.479 . S
C485 C484 1.405 . S
C485 H511 0.931 . S
U486 O487 2.454 . S
U486 O488 2.458 . S
U486 C489 2.984 . S
U486 C490 2.847 . S
U486 C503 2.882 . S
U486 O504 2.441 . S
U486 O505 2.420 . S
U486 O506 2.455 . S
U486 O507 2.449 . S
O487 U486 2.454 . S
O487 C489 1.353 . S
O488 U486 2.458 . S
O488 C489 1.286 . S
C489 U486 2.984 . S
C489 O487 1.353 . S
C489 O488 1.286 . S
C489 C491 1.363 . S
C490 C480 1.465 . S
C490 U486 2.847 . S
C490 O504 1.249 . S
C490 O505 1.202 . S
C491 C489 1.363 . S
C491 C493 1.408 . S
C491 C496 1.342 . S
C492 C493 1.310 . S
C492 C495 1.461 . S
C492 H512 0.932 . S
C493 C491 1.408 . S
C493 C492 1.310 . S
C493 H513 0.930 . S
C494 C495 1.474 . S
C494 C496 1.285 . S
C494 H514 0.929 . S
C495 C492 1.461 . S
C495 C494 1.474 . S
C496 C491 1.342 . S
C496 C494 1.285 . S
C496 H515 0.930 . S
C497 C500 1.424 . S
C497 C502 1.245 . S
C497 C503 1.428 . S
C498 C501 1.260 . S
C498 C502 1.477 . S
C498 H516 0.932 . S
C499 C500 1.384 . S
C499 C501 1.479 . S
C499 H517 0.929 . S
C500 C497 1.424 . S
C500 C499 1.384 . S
C500 H518 0.928 . S
C501 C498 1.260 . S
C501 C499 1.479 . S
C502 C497 1.245 . S
C502 C498 1.477 . S
C502 H519 0.932 . S
C503 U486 2.882 . S
C503 C497 1.428 . S
C503 O506 1.301 . S
C503 O507 1.282 . S
O504 U486 2.441 . S
O504 C490 1.249 . S
O505 U486 2.420 . S
O505 C490 1.202 . S
O506 U486 2.455 . S
O506 C503 1.301 . S
O507 U486 2.449 . S
O507 C503 1.282 . S
H508 C481 0.931 . S
H509 C483 0.929 . S
H510 C484 0.930 . S
H511 C485 0.931 . S
H512 C492 0.932 . S
H513 C493 0.930 . S
H514 C494 0.929 . S
H515 C496 0.930 . S
H516 C498 0.932 . S
H517 C499 0.929 . S
H518 C500 0.928 . S
H519 C502 0.932 . S
C520 C521 1.264 . S
C520 C525 1.479 . S
C520 C530 1.465 . S
C521 C520 1.264 . S
C521 C523 1.339 . S
C521 H548 0.931 . S
C522 C523 1.395 . S
C522 C524 1.320 . S
C523 C521 1.339 . S
C523 C522 1.395 . S
C523 H549 0.929 . S
C524 C522 1.320 . S
C524 C525 1.405 . S
C524 H550 0.930 . S
C525 C520 1.479 . S
C525 C524 1.405 . S
C525 H551 0.931 . S
U526 O527 2.454 . S
U526 O528 2.458 . S
U526 C529 2.984 . S
U526 C530 2.847 . S
U526 C543 2.882 . S
U526 O544 2.441 . S
U526 O545 2.420 . S
U526 O546 2.455 . S
U526 O547 2.449 . S
O527 U526 2.454 . S
O527 C529 1.353 . S
O528 U526 2.458 . S
O528 C529 1.286 . S
C529 U526 2.984 . S
C529 O527 1.353 . S
C529 O528 1.286 . S
C529 C531 1.363 . S
C530 C520 1.465 . S
C530 U526 2.847 . S
C530 O544 1.249 . S
C530 O545 1.202 . S
C531 C529 1.363 . S
C531 C533 1.408 . S
C531 C536 1.342 . S
C532 C533 1.310 . S
C532 C535 1.461 . S
C532 H552 0.932 . S
C533 C531 1.408 . S
C533 C532 1.310 . S
C533 H553 0.930 . S
C534 C535 1.474 . S
C534 C536 1.285 . S
C534 H554 0.929 . S
C535 C532 1.461 . S
C535 C534 1.474 . S
C536 C531 1.342 . S
C536 C534 1.285 . S
C536 H555 0.930 . S
C537 C540 1.424 . S
C537 C542 1.245 . S
C537 C543 1.428 . S
C538 C541 1.260 . S
C538 C542 1.477 . S
C538 H556 0.932 . S
C539 C540 1.384 . S
C539 C541 1.479 . S
C539 H557 0.929 . S
C540 C537 1.424 . S
C540 C539 1.384 . S
C540 H558 0.928 . S
C541 C538 1.260 . S
C541 C539 1.479 . S
C542 C537 1.245 . S
C542 C538 1.477 . S
C542 H559 0.932 . S
C543 U526 2.882 . S
C543 C537 1.428 . S
C543 O546 1.301 . S
C543 O547 1.282 . S
O544 U526 2.441 . S
O544 C530 1.249 . S
O545 U526 2.420 . S
O545 C530 1.202 . S
O546 U526 2.455 . S
O546 C543 1.301 . S
O547 U526 2.449 . S
O547 C543 1.282 . S
H548 C521 0.931 . S
H549 C523 0.929 . S
H550 C524 0.930 . S
H551 C525 0.931 . S
H552 C532 0.932 . S
H553 C533 0.930 . S
H554 C534 0.929 . S
H555 C536 0.930 . S
H556 C538 0.932 . S
H557 C539 0.929 . S
H558 C540 0.928 . S
H559 C542 0.932 . S
C560 C561 1.264 . S
C560 C565 1.479 . S
C560 C570 1.465 . S
C561 C560 1.264 . S
C561 C563 1.339 . S
C561 H588 0.931 . S
C562 C563 1.395 . S
C562 C564 1.320 . S
C563 C561 1.339 . S
C563 C562 1.395 . S
C563 H589 0.929 . S
C564 C562 1.320 . S
C564 C565 1.405 . S
C564 H590 0.930 . S
C565 C560 1.479 . S
C565 C564 1.405 . S
C565 H591 0.931 . S
U566 O567 2.454 . S
U566 O568 2.458 . S
U566 C569 2.984 . S
U566 C570 2.847 . S
U566 C583 2.882 . S
U566 O584 2.441 . S
U566 O585 2.420 . S
U566 O586 2.455 . S
U566 O587 2.449 . S
O567 U566 2.454 . S
O567 C569 1.353 . S
O568 U566 2.458 . S
O568 C569 1.286 . S
C569 U566 2.984 . S
C569 O567 1.353 . S
C569 O568 1.286 . S
C569 C571 1.363 . S
C570 C560 1.465 . S
C570 U566 2.847 . S
C570 O584 1.249 . S
C570 O585 1.202 . S
C571 C569 1.363 . S
C571 C573 1.408 . S
C571 C576 1.342 . S
C572 C573 1.310 . S
C572 C575 1.461 . S
C572 H592 0.932 . S
C573 C571 1.408 . S
C573 C572 1.310 . S
C573 H593 0.930 . S
C574 C575 1.474 . S
C574 C576 1.285 . S
C574 H594 0.929 . S
C575 C572 1.461 . S
C575 C574 1.474 . S
C576 C571 1.342 . S
C576 C574 1.285 . S
C576 H595 0.930 . S
C577 C580 1.424 . S
C577 C582 1.245 . S
C577 C583 1.428 . S
C578 C581 1.260 . S
C578 C582 1.477 . S
C578 H596 0.932 . S
C579 C580 1.384 . S
C579 C581 1.479 . S
C579 H597 0.929 . S
C580 C577 1.424 . S
C580 C579 1.384 . S
C580 H598 0.928 . S
C581 C578 1.260 . S
C581 C579 1.479 . S
C582 C577 1.245 . S
C582 C578 1.477 . S
C582 H599 0.932 . S
C583 U566 2.882 . S
C583 C577 1.428 . S
C583 O586 1.301 . S
C583 O587 1.282 . S
O584 U566 2.441 . S
O584 C570 1.249 . S
O585 U566 2.420 . S
O585 C570 1.202 . S
O586 U566 2.455 . S
O586 C583 1.301 . S
O587 U566 2.449 . S
O587 C583 1.282 . S
H588 C561 0.931 . S
H589 C563 0.929 . S
H590 C564 0.930 . S
H591 C565 0.931 . S
H592 C572 0.932 . S
H593 C573 0.930 . S
H594 C574 0.929 . S
H595 C576 0.930 . S
H596 C578 0.932 . S
H597 C579 0.929 . S
H598 C580 0.928 . S
H599 C582 0.932 . S
C600 C601 1.264 . S
C600 C605 1.479 . S
C600 C610 1.465 . S
C601 C600 1.264 . S
C601 C603 1.339 . S
C601 H628 0.931 . S
C602 C603 1.395 . S
C602 C604 1.320 . S
C603 C601 1.339 . S
C603 C602 1.395 . S
C603 H629 0.929 . S
C604 C602 1.320 . S
C604 C605 1.405 . S
C604 H630 0.930 . S
C605 C600 1.479 . S
C605 C604 1.405 . S
C605 H631 0.931 . S
U606 O607 2.454 . S
U606 O608 2.458 . S
U606 C609 2.984 . S
U606 C610 2.847 . S
U606 C623 2.882 . S
U606 O624 2.441 . S
U606 O625 2.420 . S
U606 O626 2.455 . S
U606 O627 2.449 . S
O607 U606 2.454 . S
O607 C609 1.353 . S
O608 U606 2.458 . S
O608 C609 1.286 . S
C609 U606 2.984 . S
C609 O607 1.353 . S
C609 O608 1.286 . S
C609 C611 1.363 . S
C610 C600 1.465 . S
C610 U606 2.847 . S
C610 O624 1.249 . S
C610 O625 1.202 . S
C611 C609 1.363 . S
C611 C613 1.408 . S
C611 C616 1.342 . S
C612 C613 1.310 . S
C612 C615 1.461 . S
C612 H632 0.932 . S
C613 C611 1.408 . S
C613 C612 1.310 . S
C613 H633 0.930 . S
C614 C615 1.474 . S
C614 C616 1.285 . S
C614 H634 0.929 . S
C615 C612 1.461 . S
C615 C614 1.474 . S
C616 C611 1.342 . S
C616 C614 1.285 . S
C616 H635 0.930 . S
C617 C620 1.424 . S
C617 C622 1.245 . S
C617 C623 1.428 . S
C618 C621 1.260 . S
C618 C622 1.477 . S
C618 H636 0.932 . S
C619 C620 1.384 . S
C619 C621 1.479 . S
C619 H637 0.929 . S
C620 C617 1.424 . S
C620 C619 1.384 . S
C620 H638 0.928 . S
C621 C618 1.260 . S
C621 C619 1.479 . S
C622 C617 1.245 . S
C622 C618 1.477 . S
C622 H639 0.932 . S
C623 U606 2.882 . S
C623 C617 1.428 . S
C623 O626 1.301 . S
C623 O627 1.282 . S
O624 U606 2.441 . S
O624 C610 1.249 . S
O625 U606 2.420 . S
O625 C610 1.202 . S
O626 U606 2.455 . S
O626 C623 1.301 . S
O627 U606 2.449 . S
O627 C623 1.282 . S
H628 C601 0.931 . S
H629 C603 0.929 . S
H630 C604 0.930 . S
H631 C605 0.931 . S
H632 C612 0.932 . S
H633 C613 0.930 . S
H634 C614 0.929 . S
H635 C616 0.930 . S
H636 C618 0.932 . S
H637 C619 0.929 . S
H638 C620 0.928 . S
H639 C622 0.932 . S
C640 C641 1.264 . S
C640 C645 1.479 . S
C640 C650 1.465 . S
C641 C640 1.264 . S
C641 C643 1.339 . S
C641 H668 0.931 . S
C642 C643 1.395 . S
C642 C644 1.320 . S
C643 C641 1.339 . S
C643 C642 1.395 . S
C643 H669 0.929 . S
C644 C642 1.320 . S
C644 C645 1.405 . S
C644 H670 0.930 . S
C645 C640 1.479 . S
C645 C644 1.405 . S
C645 H671 0.931 . S
U646 O647 2.454 . S
U646 O648 2.458 . S
U646 C649 2.984 . S
U646 C650 2.847 . S
U646 C663 2.882 . S
U646 O664 2.441 . S
U646 O665 2.420 . S
U646 O666 2.455 . S
U646 O667 2.449 . S
O647 U646 2.454 . S
O647 C649 1.353 . S
O648 U646 2.458 . S
O648 C649 1.286 . S
C649 U646 2.984 . S
C649 O647 1.353 . S
C649 O648 1.286 . S
C649 C651 1.363 . S
C650 C640 1.465 . S
C650 U646 2.847 . S
C650 O664 1.249 . S
C650 O665 1.202 . S
C651 C649 1.363 . S
C651 C653 1.408 . S
C651 C656 1.342 . S
C652 C653 1.310 . S
C652 C655 1.461 . S
C652 H672 0.932 . S
C653 C651 1.408 . S
C653 C652 1.310 . S
C653 H673 0.930 . S
C654 C655 1.474 . S
C654 C656 1.285 . S
C654 H674 0.929 . S
C655 C652 1.461 . S
C655 C654 1.474 . S
C656 C651 1.342 . S
C656 C654 1.285 . S
C656 H675 0.930 . S
C657 C660 1.424 . S
C657 C662 1.245 . S
C657 C663 1.428 . S
C658 C661 1.260 . S
C658 C662 1.477 . S
C658 H676 0.932 . S
C659 C660 1.384 . S
C659 C661 1.479 . S
C659 H677 0.929 . S
C660 C657 1.424 . S
C660 C659 1.384 . S
C660 H678 0.928 . S
C661 C658 1.260 . S
C661 C659 1.479 . S
C662 C657 1.245 . S
C662 C658 1.477 . S
C662 H679 0.932 . S
C663 U646 2.882 . S
C663 C657 1.428 . S
C663 O666 1.301 . S
C663 O667 1.282 . S
O664 U646 2.441 . S
O664 C650 1.249 . S
O665 U646 2.420 . S
O665 C650 1.202 . S
O666 U646 2.455 . S
O666 C663 1.301 . S
O667 U646 2.449 . S
O667 C663 1.282 . S
H668 C641 0.931 . S
H669 C643 0.929 . S
H670 C644 0.930 . S
H671 C645 0.931 . S
H672 C652 0.932 . S
H673 C653 0.930 . S
H674 C654 0.929 . S
H675 C656 0.930 . S
H676 C658 0.932 . S
H677 C659 0.929 . S
H678 C660 0.928 . S
H679 C662 0.932 . S
C680 C681 1.264 . S
C680 C685 1.479 . S
C680 C690 1.465 . S
C681 C680 1.264 . S
C681 C683 1.339 . S
C681 H708 0.931 . S
C682 C683 1.395 . S
C682 C684 1.320 . S
C683 C681 1.339 . S
C683 C682 1.395 . S
C683 H709 0.929 . S
C684 C682 1.320 . S
C684 C685 1.405 . S
C684 H710 0.930 . S
C685 C680 1.479 . S
C685 C684 1.405 . S
C685 H711 0.931 . S
U686 O687 2.454 . S
U686 O688 2.458 . S
U686 C689 2.984 . S
U686 C690 2.847 . S
U686 C703 2.882 . S
U686 O704 2.441 . S
U686 O705 2.420 . S
U686 O706 2.455 . S
U686 O707 2.449 . S
O687 U686 2.454 . S
O687 C689 1.353 . S
O688 U686 2.458 . S
O688 C689 1.286 . S
C689 U686 2.984 . S
C689 O687 1.353 . S
C689 O688 1.286 . S
C689 C691 1.363 . S
C690 C680 1.465 . S
C690 U686 2.847 . S
C690 O704 1.249 . S
C690 O705 1.202 . S
C691 C689 1.363 . S
C691 C693 1.408 . S
C691 C696 1.342 . S
C692 C693 1.310 . S
C692 C695 1.461 . S
C692 H712 0.932 . S
C693 C691 1.408 . S
C693 C692 1.310 . S
C693 H713 0.930 . S
C694 C695 1.474 . S
C694 C696 1.285 . S
C694 H714 0.929 . S
C695 C692 1.461 . S
C695 C694 1.474 . S
C696 C691 1.342 . S
C696 C694 1.285 . S
C696 H715 0.930 . S
C697 C700 1.424 . S
C697 C702 1.245 . S
C697 C703 1.428 . S
C698 C701 1.260 . S
C698 C702 1.477 . S
C698 H716 0.932 . S
C699 C700 1.384 . S
C699 C701 1.479 . S
C699 H717 0.929 . S
C700 C697 1.424 . S
C700 C699 1.384 . S
C700 H718 0.928 . S
C701 C698 1.260 . S
C701 C699 1.479 . S
C702 C697 1.245 . S
C702 C698 1.477 . S
C702 H719 0.932 . S
C703 U686 2.882 . S
C703 C697 1.428 . S
C703 O706 1.301 . S
C703 O707 1.282 . S
O704 U686 2.441 . S
O704 C690 1.249 . S
O705 U686 2.420 . S
O705 C690 1.202 . S
O706 U686 2.455 . S
O706 C703 1.301 . S
O707 U686 2.449 . S
O707 C703 1.282 . S
H708 C681 0.931 . S
H709 C683 0.929 . S
H710 C684 0.930 . S
H711 C685 0.931 . S
H712 C692 0.932 . S
H713 C693 0.930 . S
H714 C694 0.929 . S
H715 C696 0.930 . S
H716 C698 0.932 . S
H717 C699 0.929 . S
H718 C700 0.928 . S
H719 C702 0.932 . S
C720 C721 1.264 . S
C720 C725 1.479 . S
C720 C730 1.465 . S
C721 C720 1.264 . S
C721 C723 1.339 . S
C721 H748 0.931 . S
C722 C723 1.395 . S
C722 C724 1.320 . S
C723 C721 1.339 . S
C723 C722 1.395 . S
C723 H749 0.929 . S
C724 C722 1.320 . S
C724 C725 1.405 . S
C724 H750 0.930 . S
C725 C720 1.479 . S
C725 C724 1.405 . S
C725 H751 0.931 . S
U726 O727 2.454 . S
U726 O728 2.458 . S
U726 C729 2.984 . S
U726 C730 2.847 . S
U726 C743 2.882 . S
U726 O744 2.441 . S
U726 O745 2.420 . S
U726 O746 2.455 . S
U726 O747 2.449 . S
O727 U726 2.454 . S
O727 C729 1.353 . S
O728 U726 2.458 . S
O728 C729 1.286 . S
C729 U726 2.984 . S
C729 O727 1.353 . S
C729 O728 1.286 . S
C729 C731 1.363 . S
C730 C720 1.465 . S
C730 U726 2.847 . S
C730 O744 1.249 . S
C730 O745 1.202 . S
C731 C729 1.363 . S
C731 C733 1.408 . S
C731 C736 1.342 . S
C732 C733 1.310 . S
C732 C735 1.461 . S
C732 H752 0.932 . S
C733 C731 1.408 . S
C733 C732 1.310 . S
C733 H753 0.930 . S
C734 C735 1.474 . S
C734 C736 1.285 . S
C734 H754 0.929 . S
C735 C732 1.461 . S
C735 C734 1.474 . S
C736 C731 1.342 . S
C736 C734 1.285 . S
C736 H755 0.930 . S
C737 C740 1.424 . S
C737 C742 1.245 . S
C737 C743 1.428 . S
C738 C741 1.260 . S
C738 C742 1.477 . S
C738 H756 0.932 . S
C739 C740 1.384 . S
C739 C741 1.479 . S
C739 H757 0.929 . S
C740 C737 1.424 . S
C740 C739 1.384 . S
C740 H758 0.928 . S
C741 C738 1.260 . S
C741 C739 1.479 . S
C742 C737 1.245 . S
C742 C738 1.477 . S
C742 H759 0.932 . S
C743 U726 2.882 . S
C743 C737 1.428 . S
C743 O746 1.301 . S
C743 O747 1.282 . S
O744 U726 2.441 . S
O744 C730 1.249 . S
O745 U726 2.420 . S
O745 C730 1.202 . S
O746 U726 2.455 . S
O746 C743 1.301 . S
O747 U726 2.449 . S
O747 C743 1.282 . S
H748 C721 0.931 . S
H749 C723 0.929 . S
H750 C724 0.930 . S
H751 C725 0.931 . S
H752 C732 0.932 . S
H753 C733 0.930 . S
H754 C734 0.929 . S
H755 C736 0.930 . S
H756 C738 0.932 . S
H757 C739 0.929 . S
H758 C740 0.928 . S
H759 C742 0.932 . S
C760 C761 1.264 . S
C760 C765 1.479 . S
C760 C770 1.465 . S
C761 C760 1.264 . S
C761 C763 1.339 . S
C761 H788 0.931 . S
C762 C763 1.395 . S
C762 C764 1.320 . S
C763 C761 1.339 . S
C763 C762 1.395 . S
C763 H789 0.929 . S
C764 C762 1.320 . S
C764 C765 1.405 . S
C764 H790 0.930 . S
C765 C760 1.479 . S
C765 C764 1.405 . S
C765 H791 0.931 . S
U766 O767 2.454 . S
U766 O768 2.458 . S
U766 C769 2.984 . S
U766 C770 2.847 . S
U766 C783 2.882 . S
U766 O784 2.441 . S
U766 O785 2.420 . S
U766 O786 2.455 . S
U766 O787 2.449 . S
O767 U766 2.454 . S
O767 C769 1.353 . S
O768 U766 2.458 . S
O768 C769 1.286 . S
C769 U766 2.984 . S
C769 O767 1.353 . S
C769 O768 1.286 . S
C769 C771 1.363 . S
C770 C760 1.465 . S
C770 U766 2.847 . S
C770 O784 1.249 . S
C770 O785 1.202 . S
C771 C769 1.363 . S
C771 C773 1.408 . S
C771 C776 1.342 . S
C772 C773 1.310 . S
C772 C775 1.461 . S
C772 H792 0.932 . S
C773 C771 1.408 . S
C773 C772 1.310 . S
C773 H793 0.930 . S
C774 C775 1.474 . S
C774 C776 1.285 . S
C774 H794 0.929 . S
C775 C772 1.461 . S
C775 C774 1.474 . S
C776 C771 1.342 . S
C776 C774 1.285 . S
C776 H795 0.930 . S
C777 C780 1.424 . S
C777 C782 1.245 . S
C777 C783 1.428 . S
C778 C781 1.260 . S
C778 C782 1.477 . S
C778 H796 0.932 . S
C779 C780 1.384 . S
C779 C781 1.479 . S
C779 H797 0.929 . S
C780 C777 1.424 . S
C780 C779 1.384 . S
C780 H798 0.928 . S
C781 C778 1.260 . S
C781 C779 1.479 . S
C782 C777 1.245 . S
C782 C778 1.477 . S
C782 H799 0.932 . S
C783 U766 2.882 . S
C783 C777 1.428 . S
C783 O786 1.301 . S
C783 O787 1.282 . S
O784 U766 2.441 . S
O784 C770 1.249 . S
O785 U766 2.420 . S
O785 C770 1.202 . S
O786 U766 2.455 . S
O786 C783 1.301 . S
O787 U766 2.449 . S
O787 C783 1.282 . S
H788 C761 0.931 . S
H789 C763 0.929 . S
H790 C764 0.930 . S
H791 C765 0.931 . S
H792 C772 0.932 . S
H793 C773 0.930 . S
H794 C774 0.929 . S
H795 C776 0.930 . S
H796 C778 0.932 . S
H797 C779 0.929 . S
H798 C780 0.928 . S
H799 C782 0.932 . S
C800 C801 1.264 . S
C800 C805 1.479 . S
C800 C810 1.465 . S
C801 C800 1.264 . S
C801 C803 1.339 . S
C801 H828 0.931 . S
C802 C803 1.395 . S
C802 C804 1.320 . S
C803 C801 1.339 . S
C803 C802 1.395 . S
C803 H829 0.929 . S
C804 C802 1.320 . S
C804 C805 1.405 . S
C804 H830 0.930 . S
C805 C800 1.479 . S
C805 C804 1.405 . S
C805 H831 0.931 . S
U806 O807 2.454 . S
U806 O808 2.458 . S
U806 C809 2.984 . S
U806 C810 2.847 . S
U806 C823 2.882 . S
U806 O824 2.441 . S
U806 O825 2.420 . S
U806 O826 2.455 . S
U806 O827 2.449 . S
O807 U806 2.454 . S
O807 C809 1.353 . S
O808 U806 2.458 . S
O808 C809 1.286 . S
C809 U806 2.984 . S
C809 O807 1.353 . S
C809 O808 1.286 . S
C809 C811 1.363 . S
C810 C800 1.465 . S
C810 U806 2.847 . S
C810 O824 1.249 . S
C810 O825 1.202 . S
C811 C809 1.363 . S
C811 C813 1.408 . S
C811 C816 1.342 . S
C812 C813 1.310 . S
C812 C815 1.461 . S
C812 H832 0.932 . S
C813 C811 1.408 . S
C813 C812 1.310 . S
C813 H833 0.930 . S
C814 C815 1.474 . S
C814 C816 1.285 . S
C814 H834 0.929 . S
C815 C812 1.461 . S
C815 C814 1.474 . S
C816 C811 1.342 . S
C816 C814 1.285 . S
C816 H835 0.930 . S
C817 C820 1.424 . S
C817 C822 1.245 . S
C817 C823 1.428 . S
C818 C821 1.260 . S
C818 C822 1.477 . S
C818 H836 0.932 . S
C819 C820 1.384 . S
C819 C821 1.479 . S
C819 H837 0.929 . S
C820 C817 1.424 . S
C820 C819 1.384 . S
C820 H838 0.928 . S
C821 C818 1.260 . S
C821 C819 1.479 . S
C822 C817 1.245 . S
C822 C818 1.477 . S
C822 H839 0.932 . S
C823 U806 2.882 . S
C823 C817 1.428 . S
C823 O826 1.301 . S
C823 O827 1.282 . S
O824 U806 2.441 . S
O824 C810 1.249 . S
O825 U806 2.420 . S
O825 C810 1.202 . S
O826 U806 2.455 . S
O826 C823 1.301 . S
O827 U806 2.449 . S
O827 C823 1.282 . S
H828 C801 0.931 . S
H829 C803 0.929 . S
H830 C804 0.930 . S
H831 C805 0.931 . S
H832 C812 0.932 . S
H833 C813 0.930 . S
H834 C814 0.929 . S
H835 C816 0.930 . S
H836 C818 0.932 . S
H837 C819 0.929 . S
H838 C820 0.928 . S
H839 C822 0.932 . S
C840 C841 1.264 . S
C840 C845 1.479 . S
C840 C850 1.465 . S
C841 C840 1.264 . S
C841 C843 1.339 . S
C841 H868 0.931 . S
C842 C843 1.395 . S
C842 C844 1.320 . S
C843 C841 1.339 . S
C843 C842 1.395 . S
C843 H869 0.929 . S
C844 C842 1.320 . S
C844 C845 1.405 . S
C844 H870 0.930 . S
C845 C840 1.479 . S
C845 C844 1.405 . S
C845 H871 0.931 . S
U846 O847 2.454 . S
U846 O848 2.458 . S
U846 C849 2.984 . S
U846 C850 2.847 . S
U846 C863 2.882 . S
U846 O864 2.441 . S
U846 O865 2.420 . S
U846 O866 2.455 . S
U846 O867 2.449 . S
O847 U846 2.454 . S
O847 C849 1.353 . S
O848 U846 2.458 . S
O848 C849 1.286 . S
C849 U846 2.984 . S
C849 O847 1.353 . S
C849 O848 1.286 . S
C849 C851 1.363 . S
C850 C840 1.465 . S
C850 U846 2.847 . S
C850 O864 1.249 . S
C850 O865 1.202 . S
C851 C849 1.363 . S
C851 C853 1.408 . S
C851 C856 1.342 . S
C852 C853 1.310 . S
C852 C855 1.461 . S
C852 H872 0.932 . S
C853 C851 1.408 . S
C853 C852 1.310 . S
C853 H873 0.930 . S
C854 C855 1.474 . S
C854 C856 1.285 . S
C854 H874 0.929 . S
C855 C852 1.461 . S
C855 C854 1.474 . S
C856 C851 1.342 . S
C856 C854 1.285 . S
C856 H875 0.930 . S
C857 C860 1.424 . S
C857 C862 1.245 . S
C857 C863 1.428 . S
C858 C861 1.260 . S
C858 C862 1.477 . S
C858 H876 0.932 . S
C859 C860 1.384 . S
C859 C861 1.479 . S
C859 H877 0.929 . S
C860 C857 1.424 . S
C860 C859 1.384 . S
C860 H878 0.928 . S
C861 C858 1.260 . S
C861 C859 1.479 . S
C862 C857 1.245 . S
C862 C858 1.477 . S
C862 H879 0.932 . S
C863 U846 2.882 . S
C863 C857 1.428 . S
C863 O866 1.301 . S
C863 O867 1.282 . S
O864 U846 2.441 . S
O864 C850 1.249 . S
O865 U846 2.420 . S
O865 C850 1.202 . S
O866 U846 2.455 . S
O866 C863 1.301 . S
O867 U846 2.449 . S
O867 C863 1.282 . S
H868 C841 0.931 . S
H869 C843 0.929 . S
H870 C844 0.930 . S
H871 C845 0.931 . S
H872 C852 0.932 . S
H873 C853 0.930 . S
H874 C854 0.929 . S
H875 C856 0.930 . S
H876 C858 0.932 . S
H877 C859 0.929 . S
H878 C860 0.928 . S
H879 C862 0.932 . S
C880 C881 1.264 . S
C880 C885 1.479 . S
C880 C890 1.465 . S
C881 C880 1.264 . S
C881 C883 1.339 . S
C881 H908 0.931 . S
C882 C883 1.395 . S
C882 C884 1.320 . S
C883 C881 1.339 . S
C883 C882 1.395 . S
C883 H909 0.929 . S
C884 C882 1.320 . S
C884 C885 1.405 . S
C884 H910 0.930 . S
C885 C880 1.479 . S
C885 C884 1.405 . S
C885 H911 0.931 . S
U886 O887 2.454 . S
U886 O888 2.458 . S
U886 C889 2.984 . S
U886 C890 2.847 . S
U886 C903 2.882 . S
U886 O904 2.441 . S
U886 O905 2.420 . S
U886 O906 2.455 . S
U886 O907 2.449 . S
O887 U886 2.454 . S
O887 C889 1.353 . S
O888 U886 2.458 . S
O888 C889 1.286 . S
C889 U886 2.984 . S
C889 O887 1.353 . S
C889 O888 1.286 . S
C889 C891 1.363 . S
C890 C880 1.465 . S
C890 U886 2.847 . S
C890 O904 1.249 . S
C890 O905 1.202 . S
C891 C889 1.363 . S
C891 C893 1.408 . S
C891 C896 1.342 . S
C892 C893 1.310 . S
C892 C895 1.461 . S
C892 H912 0.932 . S
C893 C891 1.408 . S
C893 C892 1.310 . S
C893 H913 0.930 . S
C894 C895 1.474 . S
C894 C896 1.285 . S
C894 H914 0.929 . S
C895 C892 1.461 . S
C895 C894 1.474 . S
C896 C891 1.342 . S
C896 C894 1.285 . S
C896 H915 0.930 . S
C897 C900 1.424 . S
C897 C902 1.245 . S
C897 C903 1.428 . S
C898 C901 1.260 . S
C898 C902 1.477 . S
C898 H916 0.932 . S
C899 C900 1.384 . S
C899 C901 1.479 . S
C899 H917 0.929 . S
C900 C897 1.424 . S
C900 C899 1.384 . S
C900 H918 0.928 . S
C901 C898 1.260 . S
C901 C899 1.479 . S
C902 C897 1.245 . S
C902 C898 1.477 . S
C902 H919 0.932 . S
C903 U886 2.882 . S
C903 C897 1.428 . S
C903 O906 1.301 . S
C903 O907 1.282 . S
O904 U886 2.441 . S
O904 C890 1.249 . S
O905 U886 2.420 . S
O905 C890 1.202 . S
O906 U886 2.455 . S
O906 C903 1.301 . S
O907 U886 2.449 . S
O907 C903 1.282 . S
H908 C881 0.931 . S
H909 C883 0.929 . S
H910 C884 0.930 . S
H911 C885 0.931 . S
H912 C892 0.932 . S
H913 C893 0.930 . S
H914 C894 0.929 . S
H915 C896 0.930 . S
H916 C898 0.932 . S
H917 C899 0.929 . S
H918 C900 0.928 . S
H919 C902 0.932 . S
C920 C921 1.264 . S
C920 C925 1.479 . S
C920 C930 1.465 . S
C921 C920 1.264 . S
C921 C923 1.339 . S
C921 H948 0.931 . S
C922 C923 1.395 . S
C922 C924 1.320 . S
C923 C921 1.339 . S
C923 C922 1.395 . S
C923 H949 0.929 . S
C924 C922 1.320 . S
C924 C925 1.405 . S
C924 H950 0.930 . S
C925 C920 1.479 . S
C925 C924 1.405 . S
C925 H951 0.931 . S
U926 O927 2.454 . S
U926 O928 2.458 . S
U926 C929 2.984 . S
U926 C930 2.847 . S
U926 C943 2.882 . S
U926 O944 2.441 . S
U926 O945 2.420 . S
U926 O946 2.455 . S
U926 O947 2.449 . S
O927 U926 2.454 . S
O927 C929 1.353 . S
O928 U926 2.458 . S
O928 C929 1.286 . S
C929 U926 2.984 . S
C929 O927 1.353 . S
C929 O928 1.286 . S
C929 C931 1.363 . S
C930 C920 1.465 . S
C930 U926 2.847 . S
C930 O944 1.249 . S
C930 O945 1.202 . S
C931 C929 1.363 . S
C931 C933 1.408 . S
C931 C936 1.342 . S
C932 C933 1.310 . S
C932 C935 1.461 . S
C932 H952 0.932 . S
C933 C931 1.408 . S
C933 C932 1.310 . S
C933 H953 0.930 . S
C934 C935 1.474 . S
C934 C936 1.285 . S
C934 H954 0.929 . S
C935 C932 1.461 . S
C935 C934 1.474 . S
C936 C931 1.342 . S
C936 C934 1.285 . S
C936 H955 0.930 . S
C937 C940 1.424 . S
C937 C942 1.245 . S
C937 C943 1.428 . S
C938 C941 1.260 . S
C938 C942 1.477 . S
C938 H956 0.932 . S
C939 C940 1.384 . S
C939 C941 1.479 . S
C939 H957 0.929 . S
C940 C937 1.424 . S
C940 C939 1.384 . S
C940 H958 0.928 . S
C941 C938 1.260 . S
C941 C939 1.479 . S
C942 C937 1.245 . S
C942 C938 1.477 . S
C942 H959 0.932 . S
C943 U926 2.882 . S
C943 C937 1.428 . S
C943 O946 1.301 . S
C943 O947 1.282 . S
O944 U926 2.441 . S
O944 C930 1.249 . S
O945 U926 2.420 . S
O945 C930 1.202 . S
O946 U926 2.455 . S
O946 C943 1.301 . S
O947 U926 2.449 . S
O947 C943 1.282 . S
H948 C921 0.931 . S
H949 C923 0.929 . S
H950 C924 0.930 . S
H951 C925 0.931 . S
H952 C932 0.932 . S
H953 C933 0.930 . S
H954 C934 0.929 . S
H955 C936 0.930 . S
H956 C938 0.932 . S
H957 C939 0.929 . S
H958 C940 0.928 . S
H959 C942 0.932 . S
C960 C961 1.264 . S
C960 C965 1.479 . S
C960 C970 1.465 . S
C961 C960 1.264 . S
C961 C963 1.339 . S
C961 H988 0.931 . S
C962 C963 1.395 . S
C962 C964 1.320 . S
C963 C961 1.339 . S
C963 C962 1.395 . S
C963 H989 0.929 . S
C964 C962 1.320 . S
C964 C965 1.405 . S
C964 H990 0.930 . S
C965 C960 1.479 . S
C965 C964 1.405 . S
C965 H991 0.931 . S
U966 O967 2.454 . S
U966 O968 2.458 . S
U966 C969 2.984 . S
U966 C970 2.847 . S
U966 C983 2.882 . S
U966 O984 2.441 . S
U966 O985 2.420 . S
U966 O986 2.455 . S
U966 O987 2.449 . S
O967 U966 2.454 . S
O967 C969 1.353 . S
O968 U966 2.458 . S
O968 C969 1.286 . S
C969 U966 2.984 . S
C969 O967 1.353 . S
C969 O968 1.286 . S
C969 C971 1.363 . S
C970 C960 1.465 . S
C970 U966 2.847 . S
C970 O984 1.249 . S
C970 O985 1.202 . S
C971 C969 1.363 . S
C971 C973 1.408 . S
C971 C976 1.342 . S
C972 C973 1.310 . S
C972 C975 1.461 . S
C972 H992 0.932 . S
C973 C971 1.408 . S
C973 C972 1.310 . S
C973 H993 0.930 . S
C974 C975 1.474 . S
C974 C976 1.285 . S
C974 H994 0.929 . S
C975 C972 1.461 . S
C975 C974 1.474 . S
C976 C971 1.342 . S
C976 C974 1.285 . S
C976 H995 0.930 . S
C977 C980 1.424 . S
C977 C982 1.245 . S
C977 C983 1.428 . S
C978 C981 1.260 . S
C978 C982 1.477 . S
C978 H996 0.932 . S
C979 C980 1.384 . S
C979 C981 1.479 . S
C979 H997 0.929 . S
C980 C977 1.424 . S
C980 C979 1.384 . S
C980 H998 0.928 . S
C981 C978 1.260 . S
C981 C979 1.479 . S
C982 C977 1.245 . S
C982 C978 1.477 . S
C982 H999 0.932 . S
C983 U966 2.882 . S
C983 C977 1.428 . S
C983 O986 1.301 . S
C983 O987 1.282 . S
O984 U966 2.441 . S
O984 C970 1.249 . S
O985 U966 2.420 . S
O985 C970 1.202 . S
O986 U966 2.455 . S
O986 C983 1.301 . S
O987 U966 2.449 . S
O987 C983 1.282 . S
H988 C961 0.931 . S
H989 C963 0.929 . S
H990 C964 0.930 . S
H991 C965 0.931 . S
H992 C972 0.932 . S
H993 C973 0.930 . S
H994 C974 0.929 . S
H995 C976 0.930 . S
H996 C978 0.932 . S
H997 C979 0.929 . S
H998 C980 0.928 . S
H999 C982 0.932 . S
C1000 C1001 1.264 . S
C1000 C1005 1.479 . S
C1000 C1010 1.465 . S
C1001 C1000 1.264 . S
C1001 C1003 1.339 . S
C1001 H1028 0.931 . S
C1002 C1003 1.395 . S
C1002 C1004 1.320 . S
C1003 C1001 1.339 . S
C1003 C1002 1.395 . S
C1003 H1029 0.929 . S
C1004 C1002 1.320 . S
C1004 C1005 1.405 . S
C1004 H1030 0.930 . S
C1005 C1000 1.479 . S
C1005 C1004 1.405 . S
C1005 H1031 0.931 . S
U1006 O1007 2.454 . S
U1006 O1008 2.458 . S
U1006 C1009 2.984 . S
U1006 C1010 2.847 . S
U1006 C1023 2.882 . S
U1006 O1024 2.441 . S
U1006 O1025 2.420 . S
U1006 O1026 2.455 . S
U1006 O1027 2.449 . S
O1007 U1006 2.454 . S
O1007 C1009 1.353 . S
O1008 U1006 2.458 . S
O1008 C1009 1.286 . S
C1009 U1006 2.984 . S
C1009 O1007 1.353 . S
C1009 O1008 1.286 . S
C1009 C1011 1.363 . S
C1010 C1000 1.465 . S
C1010 U1006 2.847 . S
C1010 O1024 1.249 . S
C1010 O1025 1.202 . S
C1011 C1009 1.363 . S
C1011 C1013 1.408 . S
C1011 C1016 1.342 . S
C1012 C1013 1.310 . S
C1012 C1015 1.461 . S
C1012 H1032 0.932 . S
C1013 C1011 1.408 . S
C1013 C1012 1.310 . S
C1013 H1033 0.930 . S
C1014 C1015 1.474 . S
C1014 C1016 1.285 . S
C1014 H1034 0.929 . S
C1015 C1012 1.461 . S
C1015 C1014 1.474 . S
C1016 C1011 1.342 . S
C1016 C1014 1.285 . S
C1016 H1035 0.930 . S
C1017 C1020 1.424 . S
C1017 C1022 1.245 . S
C1017 C1023 1.428 . S
C1018 C1021 1.260 . S
C1018 C1022 1.477 . S
C1018 H1036 0.932 . S
C1019 C1020 1.384 . S
C1019 C1021 1.479 . S
C1019 H1037 0.929 . S
C1020 C1017 1.424 . S
C1020 C1019 1.384 . S
C1020 H1038 0.928 . S
C1021 C1018 1.260 . S
C1021 C1019 1.479 . S
C1022 C1017 1.245 . S
C1022 C1018 1.477 . S
C1022 H1039 0.932 . S
C1023 U1006 2.882 . S
C1023 C1017 1.428 . S
C1023 O1026 1.301 . S
C1023 O1027 1.282 . S
O1024 U1006 2.441 . S
O1024 C1010 1.249 . S
O1025 U1006 2.420 . S
O1025 C1010 1.202 . S
O1026 U1006 2.455 . S
O1026 C1023 1.301 . S
O1027 U1006 2.449 . S
O1027 C1023 1.282 . S
H1028 C1001 0.931 . S
H1029 C1003 0.929 . S
H1030 C1004 0.930 . S
H1031 C1005 0.931 . S
H1032 C1012 0.932 . S
H1033 C1013 0.930 . S
H1034 C1014 0.929 . S
H1035 C1016 0.930 . S
H1036 C1018 0.932 . S
H1037 C1019 0.929 . S
H1038 C1020 0.928 . S
H1039 C1022 0.932 . S
C1040 C1041 1.264 . S
C1040 C1045 1.479 . S
C1040 C1050 1.465 . S
C1041 C1040 1.264 . S
C1041 C1043 1.339 . S
C1041 H1068 0.931 . S
C1042 C1043 1.395 . S
C1042 C1044 1.320 . S
C1043 C1041 1.339 . S
C1043 C1042 1.395 . S
C1043 H1069 0.929 . S
C1044 C1042 1.320 . S
C1044 C1045 1.405 . S
C1044 H1070 0.930 . S
C1045 C1040 1.479 . S
C1045 C1044 1.405 . S
C1045 H1071 0.931 . S
U1046 O1047 2.454 . S
U1046 O1048 2.458 . S
U1046 C1049 2.984 . S
U1046 C1050 2.847 . S
U1046 C1063 2.882 . S
U1046 O1064 2.441 . S
U1046 O1065 2.420 . S
U1046 O1066 2.455 . S
U1046 O1067 2.449 . S
O1047 U1046 2.454 . S
O1047 C1049 1.353 . S
O1048 U1046 2.458 . S
O1048 C1049 1.286 . S
C1049 U1046 2.984 . S
C1049 O1047 1.353 . S
C1049 O1048 1.286 . S
C1049 C1051 1.363 . S
C1050 C1040 1.465 . S
C1050 U1046 2.847 . S
C1050 O1064 1.249 . S
C1050 O1065 1.202 . S
C1051 C1049 1.363 . S
C1051 C1053 1.408 . S
C1051 C1056 1.342 . S
C1052 C1053 1.310 . S
C1052 C1055 1.461 . S
C1052 H1072 0.932 . S
C1053 C1051 1.408 . S
C1053 C1052 1.310 . S
C1053 H1073 0.930 . S
C1054 C1055 1.474 . S
C1054 C1056 1.285 . S
C1054 H1074 0.929 . S
C1055 C1052 1.461 . S
C1055 C1054 1.474 . S
C1056 C1051 1.342 . S
C1056 C1054 1.285 . S
C1056 H1075 0.930 . S
C1057 C1060 1.424 . S
C1057 C1062 1.245 . S
C1057 C1063 1.428 . S
C1058 C1061 1.260 . S
C1058 C1062 1.477 . S
C1058 H1076 0.932 . S
C1059 C1060 1.384 . S
C1059 C1061 1.479 . S
C1059 H1077 0.929 . S
C1060 C1057 1.424 . S
C1060 C1059 1.384 . S
C1060 H1078 0.928 . S
C1061 C1058 1.260 . S
C1061 C1059 1.479 . S
C1062 C1057 1.245 . S
C1062 C1058 1.477 . S
C1062 H1079 0.932 . S
C1063 U1046 2.882 . S
C1063 C1057 1.428 . S
C1063 O1066 1.301 . S
C1063 O1067 1.282 . S
O1064 U1046 2.441 . S
O1064 C1050 1.249 . S
O1065 U1046 2.420 . S
O1065 C1050 1.202 . S
O1066 U1046 2.455 . S
O1066 C1063 1.301 . S
O1067 U1046 2.449 . S
O1067 C1063 1.282 . S
H1068 C1041 0.931 . S
H1069 C1043 0.929 . S
H1070 C1044 0.930 . S
H1071 C1045 0.931 . S
H1072 C1052 0.932 . S
H1073 C1053 0.930 . S
H1074 C1054 0.929 . S
H1075 C1056 0.930 . S
H1076 C1058 0.932 . S
H1077 C1059 0.929 . S
H1078 C1060 0.928 . S
H1079 C1062 0.932 . S
C1080 C1081 1.264 . S
C1080 C1085 1.479 . S
C1080 C1090 1.465 . S
C1081 C1080 1.264 . S
C1081 C1083 1.339 . S
C1081 H1108 0.931 . S
C1082 C1083 1.395 . S
C1082 C1084 1.320 . S
C1083 C1081 1.339 . S
C1083 C1082 1.395 . S
C1083 H1109 0.929 . S
C1084 C1082 1.320 . S
C1084 C1085 1.405 . S
C1084 H1110 0.930 . S
C1085 C1080 1.479 . S
C1085 C1084 1.405 . S
C1085 H1111 0.931 . S
U1086 O1087 2.454 . S
U1086 O1088 2.458 . S
U1086 C1089 2.984 . S
U1086 C1090 2.847 . S
U1086 C1103 2.882 . S
U1086 O1104 2.441 . S
U1086 O1105 2.420 . S
U1086 O1106 2.455 . S
U1086 O1107 2.449 . S
O1087 U1086 2.454 . S
O1087 C1089 1.353 . S
O1088 U1086 2.458 . S
O1088 C1089 1.286 . S
C1089 U1086 2.984 . S
C1089 O1087 1.353 . S
C1089 O1088 1.286 . S
C1089 C1091 1.363 . S
C1090 C1080 1.465 . S
C1090 U1086 2.847 . S
C1090 O1104 1.249 . S
C1090 O1105 1.202 . S
C1091 C1089 1.363 . S
C1091 C1093 1.408 . S
C1091 C1096 1.342 . S
C1092 C1093 1.310 . S
C1092 C1095 1.461 . S
C1092 H1112 0.932 . S
C1093 C1091 1.408 . S
C1093 C1092 1.310 . S
C1093 H1113 0.930 . S
C1094 C1095 1.474 . S
C1094 C1096 1.285 . S
C1094 H1114 0.929 . S
C1095 C1092 1.461 . S
C1095 C1094 1.474 . S
C1096 C1091 1.342 . S
C1096 C1094 1.285 . S
C1096 H1115 0.930 . S
C1097 C1100 1.424 . S
C1097 C1102 1.245 . S
C1097 C1103 1.428 . S
C1098 C1101 1.260 . S
C1098 C1102 1.477 . S
C1098 H1116 0.932 . S
C1099 C1100 1.384 . S
C1099 C1101 1.479 . S
C1099 H1117 0.929 . S
C1100 C1097 1.424 . S
C1100 C1099 1.384 . S
C1100 H1118 0.928 . S
C1101 C1098 1.260 . S
C1101 C1099 1.479 . S
C1102 C1097 1.245 . S
C1102 C1098 1.477 . S
C1102 H1119 0.932 . S
C1103 U1086 2.882 . S
C1103 C1097 1.428 . S
C1103 O1106 1.301 . S
C1103 O1107 1.282 . S
O1104 U1086 2.441 . S
O1104 C1090 1.249 . S
O1105 U1086 2.420 . S
O1105 C1090 1.202 . S
O1106 U1086 2.455 . S
O1106 C1103 1.301 . S
O1107 U1086 2.449 . S
O1107 C1103 1.282 . S
H1108 C1081 0.931 . S
H1109 C1083 0.929 . S
H1110 C1084 0.930 . S
H1111 C1085 0.931 . S
H1112 C1092 0.932 . S
H1113 C1093 0.930 . S
H1114 C1094 0.929 . S
H1115 C1096 0.930 . S
H1116 C1098 0.932 . S
H1117 C1099 0.929 . S
H1118 C1100 0.928 . S
H1119 C1102 0.932 . S
C1120 C1121 1.264 . S
C1120 C1125 1.479 . S
C1120 C1130 1.465 . S
C1121 C1120 1.264 . S
C1121 C1123 1.339 . S
C1121 H1148 0.931 . S
C1122 C1123 1.395 . S
C1122 C1124 1.320 . S
C1123 C1121 1.339 . S
C1123 C1122 1.395 . S
C1123 H1149 0.929 . S
C1124 C1122 1.320 . S
C1124 C1125 1.405 . S
C1124 H1150 0.930 . S
C1125 C1120 1.479 . S
C1125 C1124 1.405 . S
C1125 H1151 0.931 . S
U1126 O1127 2.454 . S
U1126 O1128 2.458 . S
U1126 C1129 2.984 . S
U1126 C1130 2.847 . S
U1126 C1143 2.882 . S
U1126 O1144 2.441 . S
U1126 O1145 2.420 . S
U1126 O1146 2.455 . S
U1126 O1147 2.449 . S
O1127 U1126 2.454 . S
O1127 C1129 1.353 . S
O1128 U1126 2.458 . S
O1128 C1129 1.286 . S
C1129 U1126 2.984 . S
C1129 O1127 1.353 . S
C1129 O1128 1.286 . S
C1129 C1131 1.363 . S
C1130 C1120 1.465 . S
C1130 U1126 2.847 . S
C1130 O1144 1.249 . S
C1130 O1145 1.202 . S
C1131 C1129 1.363 . S
C1131 C1133 1.408 . S
C1131 C1136 1.342 . S
C1132 C1133 1.310 . S
C1132 C1135 1.461 . S
C1132 H1152 0.932 . S
C1133 C1131 1.408 . S
C1133 C1132 1.310 . S
C1133 H1153 0.930 . S
C1134 C1135 1.474 . S
C1134 C1136 1.285 . S
C1134 H1154 0.929 . S
C1135 C1132 1.461 . S
C1135 C1134 1.474 . S
C1136 C1131 1.342 . S
C1136 C1134 1.285 . S
C1136 H1155 0.930 . S
C1137 C1140 1.424 . S
C1137 C1142 1.245 . S
C1137 C1143 1.428 . S
C1138 C1141 1.260 . S
C1138 C1142 1.477 . S
C1138 H1156 0.932 . S
C1139 C1140 1.384 . S
C1139 C1141 1.479 . S
C1139 H1157 0.929 . S
C1140 C1137 1.424 . S
C1140 C1139 1.384 . S
C1140 H1158 0.928 . S
C1141 C1138 1.260 . S
C1141 C1139 1.479 . S
C1142 C1137 1.245 . S
C1142 C1138 1.477 . S
C1142 H1159 0.932 . S
C1143 U1126 2.882 . S
C1143 C1137 1.428 . S
C1143 O1146 1.301 . S
C1143 O1147 1.282 . S
O1144 U1126 2.441 . S
O1144 C1130 1.249 . S
O1145 U1126 2.420 . S
O1145 C1130 1.202 . S
O1146 U1126 2.455 . S
O1146 C1143 1.301 . S
O1147 U1126 2.449 . S
O1147 C1143 1.282 . S
H1148 C1121 0.931 . S
H1149 C1123 0.929 . S
H1150 C1124 0.930 . S
H1151 C1125 0.931 . S
H1152 C1132 0.932 . S
H1153 C1133 0.930 . S
H1154 C1134 0.929 . S
H1155 C1136 0.930 . S
H1156 C1138 0.932 . S
H1157 C1139 0.929 . S
H1158 C1140 0.928 . S
H1159 C1142 0.932 . S
C1160 C1161 1.264 . S
C1160 C1165 1.479 . S
C1160 C1170 1.465 . S
C1161 C1160 1.264 . S
C1161 C1163 1.339 . S
C1161 H1188 0.931 . S
C1162 C1163 1.395 . S
C1162 C1164 1.320 . S
C1163 C1161 1.339 . S
C1163 C1162 1.395 . S
C1163 H1189 0.929 . S
C1164 C1162 1.320 . S
C1164 C1165 1.405 . S
C1164 H1190 0.930 . S
C1165 C1160 1.479 . S
C1165 C1164 1.405 . S
C1165 H1191 0.931 . S
U1166 O1167 2.454 . S
U1166 O1168 2.458 . S
U1166 C1169 2.984 . S
U1166 C1170 2.847 . S
U1166 C1183 2.882 . S
U1166 O1184 2.441 . S
U1166 O1185 2.420 . S
U1166 O1186 2.455 . S
U1166 O1187 2.449 . S
O1167 U1166 2.454 . S
O1167 C1169 1.353 . S
O1168 U1166 2.458 . S
O1168 C1169 1.286 . S
C1169 U1166 2.984 . S
C1169 O1167 1.353 . S
C1169 O1168 1.286 . S
C1169 C1171 1.363 . S
C1170 C1160 1.465 . S
C1170 U1166 2.847 . S
C1170 O1184 1.249 . S
C1170 O1185 1.202 . S
C1171 C1169 1.363 . S
C1171 C1173 1.408 . S
C1171 C1176 1.342 . S
C1172 C1173 1.310 . S
C1172 C1175 1.461 . S
C1172 H1192 0.932 . S
C1173 C1171 1.408 . S
C1173 C1172 1.310 . S
C1173 H1193 0.930 . S
C1174 C1175 1.474 . S
C1174 C1176 1.285 . S
C1174 H1194 0.929 . S
C1175 C1172 1.461 . S
C1175 C1174 1.474 . S
C1176 C1171 1.342 . S
C1176 C1174 1.285 . S
C1176 H1195 0.930 . S
C1177 C1180 1.424 . S
C1177 C1182 1.245 . S
C1177 C1183 1.428 . S
C1178 C1181 1.260 . S
C1178 C1182 1.477 . S
C1178 H1196 0.932 . S
C1179 C1180 1.384 . S
C1179 C1181 1.479 . S
C1179 H1197 0.929 . S
C1180 C1177 1.424 . S
C1180 C1179 1.384 . S
C1180 H1198 0.928 . S
C1181 C1178 1.260 . S
C1181 C1179 1.479 . S
C1182 C1177 1.245 . S
C1182 C1178 1.477 . S
C1182 H1199 0.932 . S
C1183 U1166 2.882 . S
C1183 C1177 1.428 . S
C1183 O1186 1.301 . S
C1183 O1187 1.282 . S
O1184 U1166 2.441 . S
O1184 C1170 1.249 . S
O1185 U1166 2.420 . S
O1185 C1170 1.202 . S
O1186 U1166 2.455 . S
O1186 C1183 1.301 . S
O1187 U1166 2.449 . S
O1187 C1183 1.282 . S
H1188 C1161 0.931 . S
H1189 C1163 0.929 . S
H1190 C1164 0.930 . S
H1191 C1165 0.931 . S
H1192 C1172 0.932 . S
H1193 C1173 0.930 . S
H1194 C1174 0.929 . S
H1195 C1176 0.930 . S
H1196 C1178 0.932 . S
H1197 C1179 0.929 . S
H1198 C1180 0.928 . S
H1199 C1182 0.932 . S
C1200 C1201 1.264 . S
C1200 C1205 1.479 . S
C1200 C1210 1.465 . S
C1201 C1200 1.264 . S
C1201 C1203 1.339 . S
C1201 H1228 0.931 . S
C1202 C1203 1.395 . S
C1202 C1204 1.320 . S
C1203 C1201 1.339 . S
C1203 C1202 1.395 . S
C1203 H1229 0.929 . S
C1204 C1202 1.320 . S
C1204 C1205 1.405 . S
C1204 H1230 0.930 . S
C1205 C1200 1.479 . S
C1205 C1204 1.405 . S
C1205 H1231 0.931 . S
U1206 O1207 2.454 . S
U1206 O1208 2.458 . S
U1206 C1209 2.984 . S
U1206 C1210 2.847 . S
U1206 C1223 2.882 . S
U1206 O1224 2.441 . S
U1206 O1225 2.420 . S
U1206 O1226 2.455 . S
U1206 O1227 2.449 . S
O1207 U1206 2.454 . S
O1207 C1209 1.353 . S
O1208 U1206 2.458 . S
O1208 C1209 1.286 . S
C1209 U1206 2.984 . S
C1209 O1207 1.353 . S
C1209 O1208 1.286 . S
C1209 C1211 1.363 . S
C1210 C1200 1.465 . S
C1210 U1206 2.847 . S
C1210 O1224 1.249 . S
C1210 O1225 1.202 . S
C1211 C1209 1.363 . S
C1211 C1213 1.408 . S
C1211 C1216 1.342 . S
C1212 C1213 1.310 . S
C1212 C1215 1.461 . S
C1212 H1232 0.932 . S
C1213 C1211 1.408 . S
C1213 C1212 1.310 . S
C1213 H1233 0.930 . S
C1214 C1215 1.474 . S
C1214 C1216 1.285 . S
C1214 H1234 0.929 . S
C1215 C1212 1.461 . S
C1215 C1214 1.474 . S
C1216 C1211 1.342 . S
C1216 C1214 1.285 . S
C1216 H1235 0.930 . S
C1217 C1220 1.424 . S
C1217 C1222 1.245 . S
C1217 C1223 1.428 . S
C1218 C1221 1.260 . S
C1218 C1222 1.477 . S
C1218 H1236 0.932 . S
C1219 C1220 1.384 . S
C1219 C1221 1.479 . S
C1219 H1237 0.929 . S
C1220 C1217 1.424 . S
C1220 C1219 1.384 . S
C1220 H1238 0.928 . S
C1221 C1218 1.260 . S
C1221 C1219 1.479 . S
C1222 C1217 1.245 . S
C1222 C1218 1.477 . S
C1222 H1239 0.932 . S
C1223 U1206 2.882 . S
C1223 C1217 1.428 . S
C1223 O1226 1.301 . S
C1223 O1227 1.282 . S
O1224 U1206 2.441 . S
O1224 C1210 1.249 . S
O1225 U1206 2.420 . S
O1225 C1210 1.202 . S
O1226 U1206 2.455 . S
O1226 C1223 1.301 . S
O1227 U1206 2.449 . S
O1227 C1223 1.282 . S
H1228 C1201 0.931 . S
H1229 C1203 0.929 . S
H1230 C1204 0.930 . S
H1231 C1205 0.931 . S
H1232 C1212 0.932 . S
H1233 C1213 0.930 . S
H1234 C1214 0.929 . S
H1235 C1216 0.930 . S
H1236 C1218 0.932 . S
H1237 C1219 0.929 . S
H1238 C1220 0.928 . S
H1239 C1222 0.932 . S
C1240 C1241 1.264 . S
C1240 C1245 1.479 . S
C1240 C1250 1.465 . S
C1241 C1240 1.264 . S
C1241 C1243 1.339 . S
C1241 H1268 0.931 . S
C1242 C1243 1.395 . S
C1242 C1244 1.320 . S
C1243 C1241 1.339 . S
C1243 C1242 1.395 . S
C1243 H1269 0.929 . S
C1244 C1242 1.320 . S
C1244 C1245 1.405 . S
C1244 H1270 0.930 . S
C1245 C1240 1.479 . S
C1245 C1244 1.405 . S
C1245 H1271 0.931 . S
U1246 O1247 2.454 . S
U1246 O1248 2.458 . S
U1246 C1249 2.984 . S
U1246 C1250 2.847 . S
U1246 C1263 2.882 . S
U1246 O1264 2.441 . S
U1246 O1265 2.420 . S
U1246 O1266 2.455 . S
U1246 O1267 2.449 . S
O1247 U1246 2.454 . S
O1247 C1249 1.353 . S
O1248 U1246 2.458 . S
O1248 C1249 1.286 . S
C1249 U1246 2.984 . S
C1249 O1247 1.353 . S
C1249 O1248 1.286 . S
C1249 C1251 1.363 . S
C1250 C1240 1.465 . S
C1250 U1246 2.847 . S
C1250 O1264 1.249 . S
C1250 O1265 1.202 . S
C1251 C1249 1.363 . S
C1251 C1253 1.408 . S
C1251 C1256 1.342 . S
C1252 C1253 1.310 . S
C1252 C1255 1.461 . S
C1252 H1272 0.932 . S
C1253 C1251 1.408 . S
C1253 C1252 1.310 . S
C1253 H1273 0.930 . S
C1254 C1255 1.474 . S
C1254 C1256 1.285 . S
C1254 H1274 0.929 . S
C1255 C1252 1.461 . S
C1255 C1254 1.474 . S
C1256 C1251 1.342 . S
C1256 C1254 1.285 . S
C1256 H1275 0.930 . S
C1257 C1260 1.424 . S
C1257 C1262 1.245 . S
C1257 C1263 1.428 . S
C1258 C1261 1.260 . S
C1258 C1262 1.477 . S
C1258 H1276 0.932 . S
C1259 C1260 1.384 . S
C1259 C1261 1.479 . S
C1259 H1277 0.929 . S
C1260 C1257 1.424 . S
C1260 C1259 1.384 . S
C1260 H1278 0.928 . S
C1261 C1258 1.260 . S
C1261 C1259 1.479 . S
C1262 C1257 1.245 . S
C1262 C1258 1.477 . S
C1262 H1279 0.932 . S
C1263 U1246 2.882 . S
C1263 C1257 1.428 . S
C1263 O1266 1.301 . S
C1263 O1267 1.282 . S
O1264 U1246 2.441 . S
O1264 C1250 1.249 . S
O1265 U1246 2.420 . S
O1265 C1250 1.202 . S
O1266 U1246 2.455 . S
O1266 C1263 1.301 . S
O1267 U1246 2.449 . S
O1267 C1263 1.282 . S
H1268 C1241 0.931 . S
H1269 C1243 0.929 . S
H1270 C1244 0.930 . S
H1271 C1245 0.931 . S
H1272 C1252 0.932 . S
H1273 C1253 0.930 . S
H1274 C1254 0.929 . S
H1275 C1256 0.930 . S
H1276 C1258 0.932 . S
H1277 C1259 0.929 . S
H1278 C1260 0.928 . S
H1279 C1262 0.932 . S
C1280 C1281 1.264 . S
C1280 C1285 1.479 . S
C1280 C1290 1.465 . S
C1281 C1280 1.264 . S
C1281 C1283 1.339 . S
C1281 H1308 0.931 . S
C1282 C1283 1.395 . S
C1282 C1284 1.320 . S
C1283 C1281 1.339 . S
C1283 C1282 1.395 . S
C1283 H1309 0.929 . S
C1284 C1282 1.320 . S
C1284 C1285 1.405 . S
C1284 H1310 0.930 . S
C1285 C1280 1.479 . S
C1285 C1284 1.405 . S
C1285 H1311 0.931 . S
U1286 O1287 2.454 . S
U1286 O1288 2.458 . S
U1286 C1289 2.984 . S
U1286 C1290 2.847 . S
U1286 C1303 2.882 . S
U1286 O1304 2.441 . S
U1286 O1305 2.420 . S
U1286 O1306 2.455 . S
U1286 O1307 2.449 . S
O1287 U1286 2.454 . S
O1287 C1289 1.353 . S
O1288 U1286 2.458 . S
O1288 C1289 1.286 . S
C1289 U1286 2.984 . S
C1289 O1287 1.353 . S
C1289 O1288 1.286 . S
C1289 C1291 1.363 . S
C1290 C1280 1.465 . S
C1290 U1286 2.847 . S
C1290 O1304 1.249 . S
C1290 O1305 1.202 . S
C1291 C1289 1.363 . S
C1291 C1293 1.408 . S
C1291 C1296 1.342 . S
C1292 C1293 1.310 . S
C1292 C1295 1.461 . S
C1292 H1312 0.932 . S
C1293 C1291 1.408 . S
C1293 C1292 1.310 . S
C1293 H1313 0.930 . S
C1294 C1295 1.474 . S
C1294 C1296 1.285 . S
C1294 H1314 0.929 . S
C1295 C1292 1.461 . S
C1295 C1294 1.474 . S
C1296 C1291 1.342 . S
C1296 C1294 1.285 . S
C1296 H1315 0.930 . S
C1297 C1300 1.424 . S
C1297 C1302 1.245 . S
C1297 C1303 1.428 . S
C1298 C1301 1.260 . S
C1298 C1302 1.477 . S
C1298 H1316 0.932 . S
C1299 C1300 1.384 . S
C1299 C1301 1.479 . S
C1299 H1317 0.929 . S
C1300 C1297 1.424 . S
C1300 C1299 1.384 . S
C1300 H1318 0.928 . S
C1301 C1298 1.260 . S
C1301 C1299 1.479 . S
C1302 C1297 1.245 . S
C1302 C1298 1.477 . S
C1302 H1319 0.932 . S
C1303 U1286 2.882 . S
C1303 C1297 1.428 . S
C1303 O1306 1.301 . S
C1303 O1307 1.282 . S
O1304 U1286 2.441 . S
O1304 C1290 1.249 . S
O1305 U1286 2.420 . S
O1305 C1290 1.202 . S
O1306 U1286 2.455 . S
O1306 C1303 1.301 . S
O1307 U1286 2.449 . S
O1307 C1303 1.282 . S
H1308 C1281 0.931 . S
H1309 C1283 0.929 . S
H1310 C1284 0.930 . S
H1311 C1285 0.931 . S
H1312 C1292 0.932 . S
H1313 C1293 0.930 . S
H1314 C1294 0.929 . S
H1315 C1296 0.930 . S
H1316 C1298 0.932 . S
H1317 C1299 0.929 . S
H1318 C1300 0.928 . S
H1319 C1302 0.932 . S
C1320 C1321 1.264 . S
C1320 C1325 1.479 . S
C1320 C1330 1.465 . S
C1321 C1320 1.264 . S
C1321 C1323 1.339 . S
C1321 H1348 0.931 . S
C1322 C1323 1.395 . S
C1322 C1324 1.320 . S
C1323 C1321 1.339 . S
C1323 C1322 1.395 . S
C1323 H1349 0.929 . S
C1324 C1322 1.320 . S
C1324 C1325 1.405 . S
C1324 H1350 0.930 . S
C1325 C1320 1.479 . S
C1325 C1324 1.405 . S
C1325 H1351 0.931 . S
U1326 O1327 2.454 . S
U1326 O1328 2.458 . S
U1326 C1329 2.984 . S
U1326 C1330 2.847 . S
U1326 C1343 2.882 . S
U1326 O1344 2.441 . S
U1326 O1345 2.420 . S
U1326 O1346 2.455 . S
U1326 O1347 2.449 . S
O1327 U1326 2.454 . S
O1327 C1329 1.353 . S
O1328 U1326 2.458 . S
O1328 C1329 1.286 . S
C1329 U1326 2.984 . S
C1329 O1327 1.353 . S
C1329 O1328 1.286 . S
C1329 C1331 1.363 . S
C1330 C1320 1.465 . S
C1330 U1326 2.847 . S
C1330 O1344 1.249 . S
C1330 O1345 1.202 . S
C1331 C1329 1.363 . S
C1331 C1333 1.408 . S
C1331 C1336 1.342 . S
C1332 C1333 1.310 . S
C1332 C1335 1.461 . S
C1332 H1352 0.932 . S
C1333 C1331 1.408 . S
C1333 C1332 1.310 . S
C1333 H1353 0.930 . S
C1334 C1335 1.474 . S
C1334 C1336 1.285 . S
C1334 H1354 0.929 . S
C1335 C1332 1.461 . S
C1335 C1334 1.474 . S
C1336 C1331 1.342 . S
C1336 C1334 1.285 . S
C1336 H1355 0.930 . S
C1337 C1340 1.424 . S
C1337 C1342 1.245 . S
C1337 C1343 1.428 . S
C1338 C1341 1.260 . S
C1338 C1342 1.477 . S
C1338 H1356 0.932 . S
C1339 C1340 1.384 . S
C1339 C1341 1.479 . S
C1339 H1357 0.929 . S
C1340 C1337 1.424 . S
C1340 C1339 1.384 . S
C1340 H1358 0.928 . S
C1341 C1338 1.260 . S
C1341 C1339 1.479 . S
C1342 C1337 1.245 . S
C1342 C1338 1.477 . S
C1342 H1359 0.932 . S
C1343 U1326 2.882 . S
C1343 C1337 1.428 . S
C1343 O1346 1.301 . S
C1343 O1347 1.282 . S
O1344 U1326 2.441 . S
O1344 C1330 1.249 . S
O1345 U1326 2.420 . S
O1345 C1330 1.202 . S
O1346 U1326 2.455 . S
O1346 C1343 1.301 . S
O1347 U1326 2.449 . S
O1347 C1343 1.282 . S
H1348 C1321 0.931 . S
H1349 C1323 0.929 . S
H1350 C1324 0.930 . S
H1351 C1325 0.931 . S
H1352 C1332 0.932 . S
H1353 C1333 0.930 . S
H1354 C1334 0.929 . S
H1355 C1336 0.930 . S
H1356 C1338 0.932 . S
H1357 C1339 0.929 . S
H1358 C1340 0.928 . S
H1359 C1342 0.932 . S
C1360 C1361 1.264 . S
C1360 C1365 1.479 . S
C1360 C1370 1.465 . S
C1361 C1360 1.264 . S
C1361 C1363 1.339 . S
C1361 H1388 0.931 . S
C1362 C1363 1.395 . S
C1362 C1364 1.320 . S
C1363 C1361 1.339 . S
C1363 C1362 1.395 . S
C1363 H1389 0.929 . S
C1364 C1362 1.320 . S
C1364 C1365 1.405 . S
C1364 H1390 0.930 . S
C1365 C1360 1.479 . S
C1365 C1364 1.405 . S
C1365 H1391 0.931 . S
U1366 O1367 2.454 . S
U1366 O1368 2.458 . S
U1366 C1369 2.984 . S
U1366 C1370 2.847 . S
U1366 C1383 2.882 . S
U1366 O1384 2.441 . S
U1366 O1385 2.420 . S
U1366 O1386 2.455 . S
U1366 O1387 2.449 . S
O1367 U1366 2.454 . S
O1367 C1369 1.353 . S
O1368 U1366 2.458 . S
O1368 C1369 1.286 . S
C1369 U1366 2.984 . S
C1369 O1367 1.353 . S
C1369 O1368 1.286 . S
C1369 C1371 1.363 . S
C1370 C1360 1.465 . S
C1370 U1366 2.847 . S
C1370 O1384 1.249 . S
C1370 O1385 1.202 . S
C1371 C1369 1.363 . S
C1371 C1373 1.408 . S
C1371 C1376 1.342 . S
C1372 C1373 1.310 . S
C1372 C1375 1.461 . S
C1372 H1392 0.932 . S
C1373 C1371 1.408 . S
C1373 C1372 1.310 . S
C1373 H1393 0.930 . S
C1374 C1375 1.474 . S
C1374 C1376 1.285 . S
C1374 H1394 0.929 . S
C1375 C1372 1.461 . S
C1375 C1374 1.474 . S
C1376 C1371 1.342 . S
C1376 C1374 1.285 . S
C1376 H1395 0.930 . S
C1377 C1380 1.424 . S
C1377 C1382 1.245 . S
C1377 C1383 1.428 . S
C1378 C1381 1.260 . S
C1378 C1382 1.477 . S
C1378 H1396 0.932 . S
C1379 C1380 1.384 . S
C1379 C1381 1.479 . S
C1379 H1397 0.929 . S
C1380 C1377 1.424 . S
C1380 C1379 1.384 . S
C1380 H1398 0.928 . S
C1381 C1378 1.260 . S
C1381 C1379 1.479 . S
C1382 C1377 1.245 . S
C1382 C1378 1.477 . S
C1382 H1399 0.932 . S
C1383 U1366 2.882 . S
C1383 C1377 1.428 . S
C1383 O1386 1.301 . S
C1383 O1387 1.282 . S
O1384 U1366 2.441 . S
O1384 C1370 1.249 . S
O1385 U1366 2.420 . S
O1385 C1370 1.202 . S
O1386 U1366 2.455 . S
O1386 C1383 1.301 . S
O1387 U1366 2.449 . S
O1387 C1383 1.282 . S
H1388 C1361 0.931 . S
H1389 C1363 0.929 . S
H1390 C1364 0.930 . S
H1391 C1365 0.931 . S
H1392 C1372 0.932 . S
H1393 C1373 0.930 . S
H1394 C1374 0.929 . S
H1395 C1376 0.930 . S
H1396 C1378 0.932 . S
H1397 C1379 0.929 . S
H1398 C1380 0.928 . S
H1399 C1382 0.932 . S
C1400 C1401 1.264 . S
C1400 C1405 1.479 . S
C1400 C1410 1.465 . S
C1401 C1400 1.264 . S
C1401 C1403 1.339 . S
C1401 H1428 0.931 . S
C1402 C1403 1.395 . S
C1402 C1404 1.320 . S
C1403 C1401 1.339 . S
C1403 C1402 1.395 . S
C1403 H1429 0.929 . S
C1404 C1402 1.320 . S
C1404 C1405 1.405 . S
C1404 H1430 0.930 . S
C1405 C1400 1.479 . S
C1405 C1404 1.405 . S
C1405 H1431 0.931 . S
U1406 O1407 2.454 . S
U1406 O1408 2.458 . S
U1406 C1409 2.984 . S
U1406 C1410 2.847 . S
U1406 C1423 2.882 . S
U1406 O1424 2.441 . S
U1406 O1425 2.420 . S
U1406 O1426 2.455 . S
U1406 O1427 2.449 . S
O1407 U1406 2.454 . S
O1407 C1409 1.353 . S
O1408 U1406 2.458 . S
O1408 C1409 1.286 . S
C1409 U1406 2.984 . S
C1409 O1407 1.353 . S
C1409 O1408 1.286 . S
C1409 C1411 1.363 . S
C1410 C1400 1.465 . S
C1410 U1406 2.847 . S
C1410 O1424 1.249 . S
C1410 O1425 1.202 . S
C1411 C1409 1.363 . S
C1411 C1413 1.408 . S
C1411 C1416 1.342 . S
C1412 C1413 1.310 . S
C1412 C1415 1.461 . S
C1412 H1432 0.932 . S
C1413 C1411 1.408 . S
C1413 C1412 1.310 . S
C1413 H1433 0.930 . S
C1414 C1415 1.474 . S
C1414 C1416 1.285 . S
C1414 H1434 0.929 . S
C1415 C1412 1.461 . S
C1415 C1414 1.474 . S
C1416 C1411 1.342 . S
C1416 C1414 1.285 . S
C1416 H1435 0.930 . S
C1417 C1420 1.424 . S
C1417 C1422 1.245 . S
C1417 C1423 1.428 . S
C1418 C1421 1.260 . S
C1418 C1422 1.477 . S
C1418 H1436 0.932 . S
C1419 C1420 1.384 . S
C1419 C1421 1.479 . S
C1419 H1437 0.929 . S
C1420 C1417 1.424 . S
C1420 C1419 1.384 . S
C1420 H1438 0.928 . S
C1421 C1418 1.260 . S
C1421 C1419 1.479 . S
C1422 C1417 1.245 . S
C1422 C1418 1.477 . S
C1422 H1439 0.932 . S
C1423 U1406 2.882 . S
C1423 C1417 1.428 . S
C1423 O1426 1.301 . S
C1423 O1427 1.282 . S
O1424 U1406 2.441 . S
O1424 C1410 1.249 . S
O1425 U1406 2.420 . S
O1425 C1410 1.202 . S
O1426 U1406 2.455 . S
O1426 C1423 1.301 . S
O1427 U1406 2.449 . S
O1427 C1423 1.282 . S
H1428 C1401 0.931 . S
H1429 C1403 0.929 . S
H1430 C1404 0.930 . S
H1431 C1405 0.931 . S
H1432 C1412 0.932 . S
H1433 C1413 0.930 . S
H1434 C1414 0.929 . S
H1435 C1416 0.930 . S
H1436 C1418 0.932 . S
H1437 C1419 0.929 . S
H1438 C1420 0.928 . S
H1439 C1422 0.932 . S
C1440 C1441 1.264 . S
C1440 C1445 1.479 . S
C1440 C1450 1.465 . S
C1441 C1440 1.264 . S
C1441 C1443 1.339 . S
C1441 H1468 0.931 . S
C1442 C1443 1.395 . S
C1442 C1444 1.320 . S
C1443 C1441 1.339 . S
C1443 C1442 1.395 . S
C1443 H1469 0.929 . S
C1444 C1442 1.320 . S
C1444 C1445 1.405 . S
C1444 H1470 0.930 . S
C1445 C1440 1.479 . S
C1445 C1444 1.405 . S
C1445 H1471 0.931 . S
U1446 O1447 2.454 . S
U1446 O1448 2.458 . S
U1446 C1449 2.984 . S
U1446 C1450 2.847 . S
U1446 C1463 2.882 . S
U1446 O1464 2.441 . S
U1446 O1465 2.420 . S
U1446 O1466 2.455 . S
U1446 O1467 2.449 . S
O1447 U1446 2.454 . S
O1447 C1449 1.353 . S
O1448 U1446 2.458 . S
O1448 C1449 1.286 . S
C1449 U1446 2.984 . S
C1449 O1447 1.353 . S
C1449 O1448 1.286 . S
C1449 C1451 1.363 . S
C1450 C1440 1.465 . S
C1450 U1446 2.847 . S
C1450 O1464 1.249 . S
C1450 O1465 1.202 . S
C1451 C1449 1.363 . S
C1451 C1453 1.408 . S
C1451 C1456 1.342 . S
C1452 C1453 1.310 . S
C1452 C1455 1.461 . S
C1452 H1472 0.932 . S
C1453 C1451 1.408 . S
C1453 C1452 1.310 . S
C1453 H1473 0.930 . S
C1454 C1455 1.474 . S
C1454 C1456 1.285 . S
C1454 H1474 0.929 . S
C1455 C1452 1.461 . S
C1455 C1454 1.474 . S
C1456 C1451 1.342 . S
C1456 C1454 1.285 . S
C1456 H1475 0.930 . S
C1457 C1460 1.424 . S
C1457 C1462 1.245 . S
C1457 C1463 1.428 . S
C1458 C1461 1.260 . S
C1458 C1462 1.477 . S
C1458 H1476 0.932 . S
C1459 C1460 1.384 . S
C1459 C1461 1.479 . S
C1459 H1477 0.929 . S
C1460 C1457 1.424 . S
C1460 C1459 1.384 . S
C1460 H1478 0.928 . S
C1461 C1458 1.260 . S
C1461 C1459 1.479 . S
C1462 C1457 1.245 . S
C1462 C1458 1.477 . S
C1462 H1479 0.932 . S
C1463 U1446 2.882 . S
C1463 C1457 1.428 . S
C1463 O1466 1.301 . S
C1463 O1467 1.282 . S
O1464 U1446 2.441 . S
O1464 C1450 1.249 . S
O1465 U1446 2.420 . S
O1465 C1450 1.202 . S
O1466 U1446 2.455 . S
O1466 C1463 1.301 . S
O1467 U1446 2.449 . S
O1467 C1463 1.282 . S
H1468 C1441 0.931 . S
H1469 C1443 0.929 . S
H1470 C1444 0.930 . S
H1471 C1445 0.931 . S
H1472 C1452 0.932 . S
H1473 C1453 0.930 . S
H1474 C1454 0.929 . S
H1475 C1456 0.930 . S
H1476 C1458 0.932 . S
H1477 C1459 0.929 . S
H1478 C1460 0.928 . S
H1479 C1462 0.932 . S
C1480 C1481 1.264 . S
C1480 C1485 1.479 . S
C1480 C1490 1.465 . S
C1481 C1480 1.264 . S
C1481 C1483 1.339 . S
C1481 H1508 0.931 . S
C1482 C1483 1.395 . S
C1482 C1484 1.320 . S
C1483 C1481 1.339 . S
C1483 C1482 1.395 . S
C1483 H1509 0.929 . S
C1484 C1482 1.320 . S
C1484 C1485 1.405 . S
C1484 H1510 0.930 . S
C1485 C1480 1.479 . S
C1485 C1484 1.405 . S
C1485 H1511 0.931 . S
U1486 O1487 2.454 . S
U1486 O1488 2.458 . S
U1486 C1489 2.984 . S
U1486 C1490 2.847 . S
U1486 C1503 2.882 . S
U1486 O1504 2.441 . S
U1486 O1505 2.420 . S
U1486 O1506 2.455 . S
U1486 O1507 2.449 . S
O1487 U1486 2.454 . S
O1487 C1489 1.353 . S
O1488 U1486 2.458 . S
O1488 C1489 1.286 . S
C1489 U1486 2.984 . S
C1489 O1487 1.353 . S
C1489 O1488 1.286 . S
C1489 C1491 1.363 . S
C1490 C1480 1.465 . S
C1490 U1486 2.847 . S
C1490 O1504 1.249 . S
C1490 O1505 1.202 . S
C1491 C1489 1.363 . S
C1491 C1493 1.408 . S
C1491 C1496 1.342 . S
C1492 C1493 1.310 . S
C1492 C1495 1.461 . S
C1492 H1512 0.932 . S
C1493 C1491 1.408 . S
C1493 C1492 1.310 . S
C1493 H1513 0.930 . S
C1494 C1495 1.474 . S
C1494 C1496 1.285 . S
C1494 H1514 0.929 . S
C1495 C1492 1.461 . S
C1495 C1494 1.474 . S
C1496 C1491 1.342 . S
C1496 C1494 1.285 . S
C1496 H1515 0.930 . S
C1497 C1500 1.424 . S
C1497 C1502 1.245 . S
C1497 C1503 1.428 . S
C1498 C1501 1.260 . S
C1498 C1502 1.477 . S
C1498 H1516 0.932 . S
C1499 C1500 1.384 . S
C1499 C1501 1.479 . S
C1499 H1517 0.929 . S
C1500 C1497 1.424 . S
C1500 C1499 1.384 . S
C1500 H1518 0.928 . S
C1501 C1498 1.260 . S
C1501 C1499 1.479 . S
C1502 C1497 1.245 . S
C1502 C1498 1.477 . S
C1502 H1519 0.932 . S
C1503 U1486 2.882 . S
C1503 C1497 1.428 . S
C1503 O1506 1.301 . S
C1503 O1507 1.282 . S
O1504 U1486 2.441 . S
O1504 C1490 1.249 . S
O1505 U1486 2.420 . S
O1505 C1490 1.202 . S
O1506 U1486 2.455 . S
O1506 C1503 1.301 . S
O1507 U1486 2.449 . S
O1507 C1503 1.282 . S
H1508 C1481 0.931 . S
H1509 C1483 0.929 . S
H1510 C1484 0.930 . S
H1511 C1485 0.931 . S
H1512 C1492 0.932 . S
H1513 C1493 0.930 . S
H1514 C1494 0.929 . S
H1515 C1496 0.930 . S
H1516 C1498 0.932 . S
H1517 C1499 0.929 . S
H1518 C1500 0.928 . S
H1519 C1502 0.932 . S
C1520 C1521 1.264 . S
C1520 C1525 1.479 . S
C1520 C1530 1.465 . S
C1521 C1520 1.264 . S
C1521 C1523 1.339 . S
C1521 H1548 0.931 . S
C1522 C1523 1.395 . S
C1522 C1524 1.320 . S
C1523 C1521 1.339 . S
C1523 C1522 1.395 . S
C1523 H1549 0.929 . S
C1524 C1522 1.320 . S
C1524 C1525 1.405 . S
C1524 H1550 0.930 . S
C1525 C1520 1.479 . S
C1525 C1524 1.405 . S
C1525 H1551 0.931 . S
U1526 O1527 2.454 . S
U1526 O1528 2.458 . S
U1526 C1529 2.984 . S
U1526 C1530 2.847 . S
U1526 C1543 2.882 . S
U1526 O1544 2.441 . S
U1526 O1545 2.420 . S
U1526 O1546 2.455 . S
U1526 O1547 2.449 . S
O1527 U1526 2.454 . S
O1527 C1529 1.353 . S
O1528 U1526 2.458 . S
O1528 C1529 1.286 . S
C1529 U1526 2.984 . S
C1529 O1527 1.353 . S
C1529 O1528 1.286 . S
C1529 C1531 1.363 . S
C1530 C1520 1.465 . S
C1530 U1526 2.847 . S
C1530 O1544 1.249 . S
C1530 O1545 1.202 . S
C1531 C1529 1.363 . S
C1531 C1533 1.408 . S
C1531 C1536 1.342 . S
C1532 C1533 1.310 . S
C1532 C1535 1.461 . S
C1532 H1552 0.932 . S
C1533 C1531 1.408 . S
C1533 C1532 1.310 . S
C1533 H1553 0.930 . S
C1534 C1535 1.474 . S
C1534 C1536 1.285 . S
C1534 H1554 0.929 . S
C1535 C1532 1.461 . S
C1535 C1534 1.474 . S
C1536 C1531 1.342 . S
C1536 C1534 1.285 . S
C1536 H1555 0.930 . S
C1537 C1540 1.424 . S
C1537 C1542 1.245 . S
C1537 C1543 1.428 . S
C1538 C1541 1.260 . S
C1538 C1542 1.477 . S
C1538 H1556 0.932 . S
C1539 C1540 1.384 . S
C1539 C1541 1.479 . S
C1539 H1557 0.929 . S
C1540 C1537 1.424 . S
C1540 C1539 1.384 . S
C1540 H1558 0.928 . S
C1541 C1538 1.260 . S
C1541 C1539 1.479 . S
C1542 C1537 1.245 . S
C1542 C1538 1.477 . S
C1542 H1559 0.932 . S
C1543 U1526 2.882 . S
C1543 C1537 1.428 . S
C1543 O1546 1.301 . S
C1543 O1547 1.282 . S
O1544 U1526 2.441 . S
O1544 C1530 1.249 . S
O1545 U1526 2.420 . S
O1545 C1530 1.202 . S
O1546 U1526 2.455 . S
O1546 C1543 1.301 . S
O1547 U1526 2.449 . S
O1547 C1543 1.282 . S
H1548 C1521 0.931 . S
H1549 C1523 0.929 . S
H1550 C1524 0.930 . S
H1551 C1525 0.931 . S
H1552 C1532 0.932 . S
H1553 C1533 0.930 . S
H1554 C1534 0.929 . S
H1555 C1536 0.930 . S
H1556 C1538 0.932 . S
H1557 C1539 0.929 . S
H1558 C1540 0.928 . S
H1559 C1542 0.932 . S
C1560 C1561 1.264 . S
C1560 C1565 1.479 . S
C1560 C1570 1.465 . S
C1561 C1560 1.264 . S
C1561 C1563 1.339 . S
C1561 H1588 0.931 . S
C1562 C1563 1.395 . S
C1562 C1564 1.320 . S
C1563 C1561 1.339 . S
C1563 C1562 1.395 . S
C1563 H1589 0.929 . S
C1564 C1562 1.320 . S
C1564 C1565 1.405 . S
C1564 H1590 0.930 . S
C1565 C1560 1.479 . S
C1565 C1564 1.405 . S
C1565 H1591 0.931 . S
U1566 O1567 2.454 . S
U1566 O1568 2.458 . S
U1566 C1569 2.984 . S
U1566 C1570 2.847 . S
U1566 C1583 2.882 . S
U1566 O1584 2.441 . S
U1566 O1585 2.420 . S
U1566 O1586 2.455 . S
U1566 O1587 2.449 . S
O1567 U1566 2.454 . S
O1567 C1569 1.353 . S
O1568 U1566 2.458 . S
O1568 C1569 1.286 . S
C1569 U1566 2.984 . S
C1569 O1567 1.353 . S
C1569 O1568 1.286 . S
C1569 C1571 1.363 . S
C1570 C1560 1.465 . S
C1570 U1566 2.847 . S
C1570 O1584 1.249 . S
C1570 O1585 1.202 . S
C1571 C1569 1.363 . S
C1571 C1573 1.408 . S
C1571 C1576 1.342 . S
C1572 C1573 1.310 . S
C1572 C1575 1.461 . S
C1572 H1592 0.932 . S
C1573 C1571 1.408 . S
C1573 C1572 1.310 . S
C1573 H1593 0.930 . S
C1574 C1575 1.474 . S
C1574 C1576 1.285 . S
C1574 H1594 0.929 . S
C1575 C1572 1.461 . S
C1575 C1574 1.474 . S
C1576 C1571 1.342 . S
C1576 C1574 1.285 . S
C1576 H1595 0.930 . S
C1577 C1580 1.424 . S
C1577 C1582 1.245 . S
C1577 C1583 1.428 . S
C1578 C1581 1.260 . S
C1578 C1582 1.477 . S
C1578 H1596 0.932 . S
C1579 C1580 1.384 . S
C1579 C1581 1.479 . S
C1579 H1597 0.929 . S
C1580 C1577 1.424 . S
C1580 C1579 1.384 . S
C1580 H1598 0.928 . S
C1581 C1578 1.260 . S
C1581 C1579 1.479 . S
C1582 C1577 1.245 . S
C1582 C1578 1.477 . S
C1582 H1599 0.932 . S
C1583 U1566 2.882 . S
C1583 C1577 1.428 . S
C1583 O1586 1.301 . S
C1583 O1587 1.282 . S
O1584 U1566 2.441 . S
O1584 C1570 1.249 . S
O1585 U1566 2.420 . S
O1585 C1570 1.202 . S
O1586 U1566 2.455 . S
O1586 C1583 1.301 . S
O1587 U1566 2.449 . S
O1587 C1583 1.282 . S
H1588 C1561 0.931 . S
H1589 C1563 0.929 . S
H1590 C1564 0.930 . S
H1591 C1565 0.931 . S
H1592 C1572 0.932 . S
H1593 C1573 0.930 . S
H1594 C1574 0.929 . S
H1595 C1576 0.930 . S
H1596 C1578 0.932 . S
H1597 C1579 0.929 . S
H1598 C1580 0.928 . S
H1599 C1582 0.932 . S
C1600 C1601 1.264 . S
C1600 C1605 1.479 . S
C1600 C1610 1.465 . S
C1601 C1600 1.264 . S
C1601 C1603 1.339 . S
C1601 H1628 0.931 . S
C1602 C1603 1.395 . S
C1602 C1604 1.320 . S
C1603 C1601 1.339 . S
C1603 C1602 1.395 . S
C1603 H1629 0.929 . S
C1604 C1602 1.320 . S
C1604 C1605 1.405 . S
C1604 H1630 0.930 . S
C1605 C1600 1.479 . S
C1605 C1604 1.405 . S
C1605 H1631 0.931 . S
U1606 O1607 2.454 . S
U1606 O1608 2.458 . S
U1606 C1609 2.984 . S
U1606 C1610 2.847 . S
U1606 C1623 2.882 . S
U1606 O1624 2.441 . S
U1606 O1625 2.420 . S
U1606 O1626 2.455 . S
U1606 O1627 2.449 . S
O1607 U1606 2.454 . S
O1607 C1609 1.353 . S
O1608 U1606 2.458 . S
O1608 C1609 1.286 . S
C1609 U1606 2.984 . S
C1609 O1607 1.353 . S
C1609 O1608 1.286 . S
C1609 C1611 1.363 . S
C1610 C1600 1.465 . S
C1610 U1606 2.847 . S
C1610 O1624 1.249 . S
C1610 O1625 1.202 . S
C1611 C1609 1.363 . S
C1611 C1613 1.408 . S
C1611 C1616 1.342 . S
C1612 C1613 1.310 . S
C1612 C1615 1.461 . S
C1612 H1632 0.932 . S
C1613 C1611 1.408 . S
C1613 C1612 1.310 . S
C1613 H1633 0.930 . S
C1614 C1615 1.474 . S
C1614 C1616 1.285 . S
C1614 H1634 0.929 . S
C1615 C1612 1.461 . S
C1615 C1614 1.474 . S
C1616 C1611 1.342 . S
C1616 C1614 1.285 . S
C1616 H1635 0.930 . S
C1617 C1620 1.424 . S
C1617 C1622 1.245 . S
C1617 C1623 1.428 . S
C1618 C1621 1.260 . S
C1618 C1622 1.477 . S
C1618 H1636 0.932 . S
C1619 C1620 1.384 . S
C1619 C1621 1.479 . S
C1619 H1637 0.929 . S
C1620 C1617 1.424 . S
C1620 C1619 1.384 . S
C1620 H1638 0.928 . S
C1621 C1618 1.260 . S
C1621 C1619 1.479 . S
C1622 C1617 1.245 . S
C1622 C1618 1.477 . S
C1622 H1639 0.932 . S
C1623 U1606 2.882 . S
C1623 C1617 1.428 . S
C1623 O1626 1.301 . S
C1623 O1627 1.282 . S
O1624 U1606 2.441 . S
O1624 C1610 1.249 . S
O1625 U1606 2.420 . S
O1625 C1610 1.202 . S
O1626 U1606 2.455 . S
O1626 C1623 1.301 . S
O1627 U1606 2.449 . S
O1627 C1623 1.282 . S
H1628 C1601 0.931 . S
H1629 C1603 0.929 . S
H1630 C1604 0.930 . S
H1631 C1605 0.931 . S
H1632 C1612 0.932 . S
H1633 C1613 0.930 . S
H1634 C1614 0.929 . S
H1635 C1616 0.930 . S
H1636 C1618 0.932 . S
H1637 C1619 0.929 . S
H1638 C1620 0.928 . S
H1639 C1622 0.932 . S
C1640 C1641 1.264 . S
C1640 C1645 1.479 . S
C1640 C1650 1.465 . S
C1641 C1640 1.264 . S
C1641 C1643 1.339 . S
C1641 H1668 0.931 . S
C1642 C1643 1.395 . S
C1642 C1644 1.320 . S
C1643 C1641 1.339 . S
C1643 C1642 1.395 . S
C1643 H1669 0.929 . S
C1644 C1642 1.320 . S
C1644 C1645 1.405 . S
C1644 H1670 0.930 . S
C1645 C1640 1.479 . S
C1645 C1644 1.405 . S
C1645 H1671 0.931 . S
U1646 O1647 2.454 . S
U1646 O1648 2.458 . S
U1646 C1649 2.984 . S
U1646 C1650 2.847 . S
U1646 C1663 2.882 . S
U1646 O1664 2.441 . S
U1646 O1665 2.420 . S
U1646 O1666 2.455 . S
U1646 O1667 2.449 . S
O1647 U1646 2.454 . S
O1647 C1649 1.353 . S
O1648 U1646 2.458 . S
O1648 C1649 1.286 . S
C1649 U1646 2.984 . S
C1649 O1647 1.353 . S
C1649 O1648 1.286 . S
C1649 C1651 1.363 . S
C1650 C1640 1.465 . S
C1650 U1646 2.847 . S
C1650 O1664 1.249 . S
C1650 O1665 1.202 . S
C1651 C1649 1.363 . S
C1651 C1653 1.408 . S
C1651 C1656 1.342 . S
C1652 C1653 1.310 . S
C1652 C1655 1.461 . S
C1652 H1672 0.932 . S
C1653 C1651 1.408 . S
C1653 C1652 1.310 . S
C1653 H1673 0.930 . S
C1654 C1655 1.474 . S
C1654 C1656 1.285 . S
C1654 H1674 0.929 . S
C1655 C1652 1.461 . S
C1655 C1654 1.474 . S
C1656 C1651 1.342 . S
C1656 C1654 1.285 . S
C1656 H1675 0.930 . S
C1657 C1660 1.424 . S
C1657 C1662 1.245 . S
C1657 C1663 1.428 . S
C1658 C1661 1.260 . S
C1658 C1662 1.477 . S
C1658 H1676 0.932 . S
C1659 C1660 1.384 . S
C1659 C1661 1.479 . S
C1659 H1677 0.929 . S
C1660 C1657 1.424 . S
C1660 C1659 1.384 . S
C1660 H1678 0.928 . S
C1661 C1658 1.260 . S
C1661 C1659 1.479 . S
C1662 C1657 1.245 . S
C1662 C1658 1.477 . S
C1662 H1679 0.932 . S
C1663 U1646 2.882 . S
C1663 C1657 1.428 . S
C1663 O1666 1.301 . S
C1663 O1667 1.282 . S
O1664 U1646 2.441 . S
O1664 C1650 1.249 . S
O1665 U1646 2.420 . S
O1665 C1650 1.202 . S
O1666 U1646 2.455 . S
O1666 C1663 1.301 . S
O1667 U1646 2.449 . S
O1667 C1663 1.282 . S
H1668 C1641 0.931 . S
H1669 C1643 0.929 . S
H1670 C1644 0.930 . S
H1671 C1645 0.931 . S
H1672 C1652 0.932 . S
H1673 C1653 0.930 . S
H1674 C1654 0.929 . S
H1675 C1656 0.930 . S
H1676 C1658 0.932 . S
H1677 C1659 0.929 . S
H1678 C1660 0.928 . S
H1679 C1662 0.932 . S
C1680 C1681 1.264 . S
C1680 C1685 1.479 . S
C1680 C1690 1.465 . S
C1681 C1680 1.264 . S
C1681 C1683 1.339 . S
C1681 H1708 0.931 . S
C1682 C1683 1.395 . S
C1682 C1684 1.320 . S
C1683 C1681 1.339 . S
C1683 C1682 1.395 . S
C1683 H1709 0.929 . S
C1684 C1682 1.320 . S
C1684 C1685 1.405 . S
C1684 H1710 0.930 . S
C1685 C1680 1.479 . S
C1685 C1684 1.405 . S
C1685 H1711 0.931 . S
U1686 O1687 2.454 . S
U1686 O1688 2.458 . S
U1686 C1689 2.984 . S
U1686 C1690 2.847 . S
U1686 C1703 2.882 . S
U1686 O1704 2.441 . S
U1686 O1705 2.420 . S
U1686 O1706 2.455 . S
U1686 O1707 2.449 . S
O1687 U1686 2.454 . S
O1687 C1689 1.353 . S
O1688 U1686 2.458 . S
O1688 C1689 1.286 . S
C1689 U1686 2.984 . S
C1689 O1687 1.353 . S
C1689 O1688 1.286 . S
C1689 C1691 1.363 . S
C1690 C1680 1.465 . S
C1690 U1686 2.847 . S
C1690 O1704 1.249 . S
C1690 O1705 1.202 . S
C1691 C1689 1.363 . S
C1691 C1693 1.408 . S
C1691 C1696 1.342 . S
C1692 C1693 1.310 . S
C1692 C1695 1.461 . S
C1692 H1712 0.932 . S
C1693 C1691 1.408 . S
C1693 C1692 1.310 . S
C1693 H1713 0.930 . S
C1694 C1695 1.474 . S
C1694 C1696 1.285 . S
C1694 H1714 0.929 . S
C1695 C1692 1.461 . S
C1695 C1694 1.474 . S
C1696 C1691 1.342 . S
C1696 C1694 1.285 . S
C1696 H1715 0.930 . S
C1697 C1700 1.424 . S
C1697 C1702 1.245 . S
C1697 C1703 1.428 . S
C1698 C1701 1.260 . S
C1698 C1702 1.477 . S
C1698 H1716 0.932 . S
C1699 C1700 1.384 . S
C1699 C1701 1.479 . S
C1699 H1717 0.929 . S
C1700 C1697 1.424 . S
C1700 C1699 1.384 . S
C1700 H1718 0.928 . S
C1701 C1698 1.260 . S
C1701 C1699 1.479 . S
C1702 C1697 1.245 . S
C1702 C1698 1.477 . S
C1702 H1719 0.932 . S
C1703 U1686 2.882 . S
C1703 C1697 1.428 . S
C1703 O1706 1.301 . S
C1703 O1707 1.282 . S
O1704 U1686 2.441 . S
O1704 C1690 1.249 . S
O1705 U1686 2.420 . S
O1705 C1690 1.202 . S
O1706 U1686 2.455 . S
O1706 C1703 1.301 . S
O1707 U1686 2.449 . S
O1707 C1703 1.282 . S
H1708 C1681 0.931 . S
H1709 C1683 0.929 . S
H1710 C1684 0.930 . S
H1711 C1685 0.931 . S
H1712 C1692 0.932 . S
H1713 C1693 0.930 . S
H1714 C1694 0.929 . S
H1715 C1696 0.930 . S
H1716 C1698 0.932 . S
H1717 C1699 0.929 . S
H1718 C1700 0.928 . S
H1719 C1702 0.932 . S
C1720 C1721 1.264 . S
C1720 C1725 1.479 . S
C1720 C1730 1.465 . S
C1721 C1720 1.264 . S
C1721 C1723 1.339 . S
C1721 H1748 0.931 . S
C1722 C1723 1.395 . S
C1722 C1724 1.320 . S
C1723 C1721 1.339 . S
C1723 C1722 1.395 . S
C1723 H1749 0.929 . S
C1724 C1722 1.320 . S
C1724 C1725 1.405 . S
C1724 H1750 0.930 . S
C1725 C1720 1.479 . S
C1725 C1724 1.405 . S
C1725 H1751 0.931 . S
U1726 O1727 2.454 . S
U1726 O1728 2.458 . S
U1726 C1729 2.984 . S
U1726 C1730 2.847 . S
U1726 C1743 2.882 . S
U1726 O1744 2.441 . S
U1726 O1745 2.420 . S
U1726 O1746 2.455 . S
U1726 O1747 2.449 . S
O1727 U1726 2.454 . S
O1727 C1729 1.353 . S
O1728 U1726 2.458 . S
O1728 C1729 1.286 . S
C1729 U1726 2.984 . S
C1729 O1727 1.353 . S
C1729 O1728 1.286 . S
C1729 C1731 1.363 . S
C1730 C1720 1.465 . S
C1730 U1726 2.847 . S
C1730 O1744 1.249 . S
C1730 O1745 1.202 . S
C1731 C1729 1.363 . S
C1731 C1733 1.408 . S
C1731 C1736 1.342 . S
C1732 C1733 1.310 . S
C1732 C1735 1.461 . S
C1732 H1752 0.932 . S
C1733 C1731 1.408 . S
C1733 C1732 1.310 . S
C1733 H1753 0.930 . S
C1734 C1735 1.474 . S
C1734 C1736 1.285 . S
C1734 H1754 0.929 . S
C1735 C1732 1.461 . S
C1735 C1734 1.474 . S
C1736 C1731 1.342 . S
C1736 C1734 1.285 . S
C1736 H1755 0.930 . S
C1737 C1740 1.424 . S
C1737 C1742 1.245 . S
C1737 C1743 1.428 . S
C1738 C1741 1.260 . S
C1738 C1742 1.477 . S
C1738 H1756 0.932 . S
C1739 C1740 1.384 . S
C1739 C1741 1.479 . S
C1739 H1757 0.929 . S
C1740 C1737 1.424 . S
C1740 C1739 1.384 . S
C1740 H1758 0.928 . S
C1741 C1738 1.260 . S
C1741 C1739 1.479 . S
C1742 C1737 1.245 . S
C1742 C1738 1.477 . S
C1742 H1759 0.932 . S
C1743 U1726 2.882 . S
C1743 C1737 1.428 . S
C1743 O1746 1.301 . S
C1743 O1747 1.282 . S
O1744 U1726 2.441 . S
O1744 C1730 1.249 . S
O1745 U1726 2.420 . S
O1745 C1730 1.202 . S
O1746 U1726 2.455 . S
O1746 C1743 1.301 . S
O1747 U1726 2.449 . S
O1747 C1743 1.282 . S
H1748 C1721 0.931 . S
H1749 C1723 0.929 . S
H1750 C1724 0.930 . S
H1751 C1725 0.931 . S
H1752 C1732 0.932 . S
H1753 C1733 0.930 . S
H1754 C1734 0.929 . S
H1755 C1736 0.930 . S
H1756 C1738 0.932 . S
H1757 C1739 0.929 . S
H1758 C1740 0.928 . S
H1759 C1742 0.932 . S
C1760 C1761 1.264 . S
C1760 C1765 1.479 . S
C1760 C1770 1.465 . S
C1761 C1760 1.264 . S
C1761 C1763 1.339 . S
C1761 H1788 0.931 . S
C1762 C1763 1.395 . S
C1762 C1764 1.320 . S
C1763 C1761 1.339 . S
C1763 C1762 1.395 . S
C1763 H1789 0.929 . S
C1764 C1762 1.320 . S
C1764 C1765 1.405 . S
C1764 H1790 0.930 . S
C1765 C1760 1.479 . S
C1765 C1764 1.405 . S
C1765 H1791 0.931 . S
U1766 O1767 2.454 . S
U1766 O1768 2.458 . S
U1766 C1769 2.984 . S
U1766 C1770 2.847 . S
U1766 C1783 2.882 . S
U1766 O1784 2.441 . S
U1766 O1785 2.420 . S
U1766 O1786 2.455 . S
U1766 O1787 2.449 . S
O1767 U1766 2.454 . S
O1767 C1769 1.353 . S
O1768 U1766 2.458 . S
O1768 C1769 1.286 . S
C1769 U1766 2.984 . S
C1769 O1767 1.353 . S
C1769 O1768 1.286 . S
C1769 C1771 1.363 . S
C1770 C1760 1.465 . S
C1770 U1766 2.847 . S
C1770 O1784 1.249 . S
C1770 O1785 1.202 . S
C1771 C1769 1.363 . S
C1771 C1773 1.408 . S
C1771 C1776 1.342 . S
C1772 C1773 1.310 . S
C1772 C1775 1.461 . S
C1772 H1792 0.932 . S
C1773 C1771 1.408 . S
C1773 C1772 1.310 . S
C1773 H1793 0.930 . S
C1774 C1775 1.474 . S
C1774 C1776 1.285 . S
C1774 H1794 0.929 . S
C1775 C1772 1.461 . S
C1775 C1774 1.474 . S
C1776 C1771 1.342 . S
C1776 C1774 1.285 . S
C1776 H1795 0.930 . S
C1777 C1780 1.424 . S
C1777 C1782 1.245 . S
C1777 C1783 1.428 . S
C1778 C1781 1.260 . S
C1778 C1782 1.477 . S
C1778 H1796 0.932 . S
C1779 C1780 1.384 . S
C1779 C1781 1.479 . S
C1779 H1797 0.929 . S
C1780 C1777 1.424 . S
C1780 C1779 1.384 . S
C1780 H1798 0.928 . S
C1781 C1778 1.260 . S
C1781 C1779 1.479 . S
C1782 C1777 1.245 . S
C1782 C1778 1.477 . S
C1782 H1799 0.932 . S
C1783 U1766 2.882 . S
C1783 C1777 1.428 . S
C1783 O1786 1.301 . S
C1783 O1787 1.282 . S
O1784 U1766 2.441 . S
O1784 C1770 1.249 . S
O1785 U1766 2.420 . S
O1785 C1770 1.202 . S
O1786 U1766 2.455 . S
O1786 C1783 1.301 . S
O1787 U1766 2.449 . S
O1787 C1783 1.282 . S
H1788 C1761 0.931 . S
H1789 C1763 0.929 . S
H1790 C1764 0.930 . S
H1791 C1765 0.931 . S
H1792 C1772 0.932 . S
H1793 C1773 0.930 . S
H1794 C1774 0.929 . S
H1795 C1776 0.930 . S
H1796 C1778 0.932 . S
H1797 C1779 0.929 . S
H1798 C1780 0.928 . S
H1799 C1782 0.932 . S
C1800 C1801 1.264 . S
C1800 C1805 1.479 . S
C1800 C1810 1.465 . S
C1801 C1800 1.264 . S
C1801 C1803 1.339 . S
C1801 H1828 0.931 . S
C1802 C1803 1.395 . S
C1802 C1804 1.320 . S
C1803 C1801 1.339 . S
C1803 C1802 1.395 . S
C1803 H1829 0.929 . S
C1804 C1802 1.320 . S
C1804 C1805 1.405 . S
C1804 H1830 0.930 . S
C1805 C1800 1.479 . S
C1805 C1804 1.405 . S
C1805 H1831 0.931 . S
U1806 O1807 2.454 . S
U1806 O1808 2.458 . S
U1806 C1809 2.984 . S
U1806 C1810 2.847 . S
U1806 C1823 2.882 . S
U1806 O1824 2.441 . S
U1806 O1825 2.420 . S
U1806 O1826 2.455 . S
U1806 O1827 2.449 . S
O1807 U1806 2.454 . S
O1807 C1809 1.353 . S
O1808 U1806 2.458 . S
O1808 C1809 1.286 . S
C1809 U1806 2.984 . S
C1809 O1807 1.353 . S
C1809 O1808 1.286 . S
C1809 C1811 1.363 . S
C1810 C1800 1.465 . S
C1810 U1806 2.847 . S
C1810 O1824 1.249 . S
C1810 O1825 1.202 . S
C1811 C1809 1.363 . S
C1811 C1813 1.408 . S
C1811 C1816 1.342 . S
C1812 C1813 1.310 . S
C1812 C1815 1.461 . S
C1812 H1832 0.932 . S
C1813 C1811 1.408 . S
C1813 C1812 1.310 . S
C1813 H1833 0.930 . S
C1814 C1815 1.474 . S
C1814 C1816 1.285 . S
C1814 H1834 0.929 . S
C1815 C1812 1.461 . S
C1815 C1814 1.474 . S
C1816 C1811 1.342 . S
C1816 C1814 1.285 . S
C1816 H1835 0.930 . S
C1817 C1820 1.424 . S
C1817 C1822 1.245 . S
C1817 C1823 1.428 . S
C1818 C1821 1.260 . S
C1818 C1822 1.477 . S
C1818 H1836 0.932 . S
C1819 C1820 1.384 . S
C1819 C1821 1.479 . S
C1819 H1837 0.929 . S
C1820 C1817 1.424 . S
C1820 C1819 1.384 . S
C1820 H1838 0.928 . S
C1821 C1818 1.260 . S
C1821 C1819 1.479 . S
C1822 C1817 1.245 . S
C1822 C1818 1.477 . S
C1822 H1839 0.932 . S
C1823 U1806 2.882 . S
C1823 C1817 1.428 . S
C1823 O1826 1.301 . S
C1823 O1827 1.282 . S
O1824 U1806 2.441 . S
O1824 C1810 1.249 . S
O1825 U1806 2.420 . S
O1825 C1810 1.202 . S
O1826 U1806 2.455 . S
O1826 C1823 1.301 . S
O1827 U1806 2.449 . S
O1827 C1823 1.282 . S
H1828 C1801 0.931 . S
H1829 C1803 0.929 . S
H1830 C1804 0.930 . S
H1831 C1805 0.931 . S
H1832 C1812 0.932 . S
H1833 C1813 0.930 . S
H1834 C1814 0.929 . S
H1835 C1816 0.930 . S
H1836 C1818 0.932 . S
H1837 C1819 0.929 . S
H1838 C1820 0.928 . S
H1839 C1822 0.932 . S
C1840 C1841 1.264 . S
C1840 C1845 1.479 . S
C1840 C1850 1.465 . S
C1841 C1840 1.264 . S
C1841 C1843 1.339 . S
C1841 H1868 0.931 . S
C1842 C1843 1.395 . S
C1842 C1844 1.320 . S
C1843 C1841 1.339 . S
C1843 C1842 1.395 . S
C1843 H1869 0.929 . S
C1844 C1842 1.320 . S
C1844 C1845 1.405 . S
C1844 H1870 0.930 . S
C1845 C1840 1.479 . S
C1845 C1844 1.405 . S
C1845 H1871 0.931 . S
U1846 O1847 2.454 . S
U1846 O1848 2.458 . S
U1846 C1849 2.984 . S
U1846 C1850 2.847 . S
U1846 C1863 2.882 . S
U1846 O1864 2.441 . S
U1846 O1865 2.420 . S
U1846 O1866 2.455 . S
U1846 O1867 2.449 . S
O1847 U1846 2.454 . S
O1847 C1849 1.353 . S
O1848 U1846 2.458 . S
O1848 C1849 1.286 . S
C1849 U1846 2.984 . S
C1849 O1847 1.353 . S
C1849 O1848 1.286 . S
C1849 C1851 1.363 . S
C1850 C1840 1.465 . S
C1850 U1846 2.847 . S
C1850 O1864 1.249 . S
C1850 O1865 1.202 . S
C1851 C1849 1.363 . S
C1851 C1853 1.408 . S
C1851 C1856 1.342 . S
C1852 C1853 1.310 . S
C1852 C1855 1.461 . S
C1852 H1872 0.932 . S
C1853 C1851 1.408 . S
C1853 C1852 1.310 . S
C1853 H1873 0.930 . S
C1854 C1855 1.474 . S
C1854 C1856 1.285 . S
C1854 H1874 0.929 . S
C1855 C1852 1.461 . S
C1855 C1854 1.474 . S
C1856 C1851 1.342 . S
C1856 C1854 1.285 . S
C1856 H1875 0.930 . S
C1857 C1860 1.424 . S
C1857 C1862 1.245 . S
C1857 C1863 1.428 . S
C1858 C1861 1.260 . S
C1858 C1862 1.477 . S
C1858 H1876 0.932 . S
C1859 C1860 1.384 . S
C1859 C1861 1.479 . S
C1859 H1877 0.929 . S
C1860 C1857 1.424 . S
C1860 C1859 1.384 . S
C1860 H1878 0.928 . S
C1861 C1858 1.260 . S
C1861 C1859 1.479 . S
C1862 C1857 1.245 . S
C1862 C1858 1.477 . S
C1862 H1879 0.932 . S
C1863 U1846 2.882 . S
C1863 C1857 1.428 . S
C1863 O1866 1.301 . S
C1863 O1867 1.282 . S
O1864 U1846 2.441 . S
O1864 C1850 1.249 . S
O1865 U1846 2.420 . S
O1865 C1850 1.202 . S
O1866 U1846 2.455 . S
O1866 C1863 1.301 . S
O1867 U1846 2.449 . S
O1867 C1863 1.282 . S
H1868 C1841 0.931 . S
H1869 C1843 0.929 . S
H1870 C1844 0.930 . S
H1871 C1845 0.931 . S
H1872 C1852 0.932 . S
H1873 C1853 0.930 . S
H1874 C1854 0.929 . S
H1875 C1856 0.930 . S
H1876 C1858 0.932 . S
H1877 C1859 0.929 . S
H1878 C1860 0.928 . S
H1879 C1862 0.932 . S
C1880 C1881 1.264 . S
C1880 C1885 1.479 . S
C1880 C1890 1.465 . S
C1881 C1880 1.264 . S
C1881 C1883 1.339 . S
C1881 H1908 0.931 . S
C1882 C1883 1.395 . S
C1882 C1884 1.320 . S
C1883 C1881 1.339 . S
C1883 C1882 1.395 . S
C1883 H1909 0.929 . S
C1884 C1882 1.320 . S
C1884 C1885 1.405 . S
C1884 H1910 0.930 . S
C1885 C1880 1.479 . S
C1885 C1884 1.405 . S
C1885 H1911 0.931 . S
U1886 O1887 2.454 . S
U1886 O1888 2.458 . S
U1886 C1889 2.984 . S
U1886 C1890 2.847 . S
U1886 C1903 2.882 . S
U1886 O1904 2.441 . S
U1886 O1905 2.420 . S
U1886 O1906 2.455 . S
U1886 O1907 2.449 . S
O1887 U1886 2.454 . S
O1887 C1889 1.353 . S
O1888 U1886 2.458 . S
O1888 C1889 1.286 . S
C1889 U1886 2.984 . S
C1889 O1887 1.353 . S
C1889 O1888 1.286 . S
C1889 C1891 1.363 . S
C1890 C1880 1.465 . S
C1890 U1886 2.847 . S
C1890 O1904 1.249 . S
C1890 O1905 1.202 . S
C1891 C1889 1.363 . S
C1891 C1893 1.408 . S
C1891 C1896 1.342 . S
C1892 C1893 1.310 . S
C1892 C1895 1.461 . S
C1892 H1912 0.932 . S
C1893 C1891 1.408 . S
C1893 C1892 1.310 . S
C1893 H1913 0.930 . S
C1894 C1895 1.474 . S
C1894 C1896 1.285 . S
C1894 H1914 0.929 . S
C1895 C1892 1.461 . S
C1895 C1894 1.474 . S
C1896 C1891 1.342 . S
C1896 C1894 1.285 . S
C1896 H1915 0.930 . S
C1897 C1900 1.424 . S
C1897 C1902 1.245 . S
C1897 C1903 1.428 . S
C1898 C1901 1.260 . S
C1898 C1902 1.477 . S
C1898 H1916 0.932 . S
C1899 C1900 1.384 . S
C1899 C1901 1.479 . S
C1899 H1917 0.929 . S
C1900 C1897 1.424 . S
C1900 C1899 1.384 . S
C1900 H1918 0.928 . S
C1901 C1898 1.260 . S
C1901 C1899 1.479 . S
C1902 C1897 1.245 . S
C1902 C1898 1.477 . S
C1902 H1919 0.932 . S
C1903 U1886 2.882 . S
C1903 C1897 1.428 . S
C1903 O1906 1.301 . S
C1903 O1907 1.282 . S
O1904 U1886 2.441 . S
O1904 C1890 1.249 . S
O1905 U1886 2.420 . S
O1905 C1890 1.202 . S
O1906 U1886 2.455 . S
O1906 C1903 1.301 . S
O1907 U1886 2.449 . S
O1907 C1903 1.282 . S
H1908 C1881 0.931 . S
H1909 C1883 0.929 . S
H1910 C1884 0.930 . S
H1911 C1885 0.931 . S
H1912 C1892 0.932 . S
H1913 C1893 0.930 . S
H1914 C1894 0.929 . S
H1915 C1896 0.930 . S
H1916 C1898 0.932 . S
H1917 C1899 0.929 . S
H1918 C1900 0.928 . S
H1919 C1902 0.932 . S
C1920 C1921 1.264 . S
C1920 C1925 1.479 . S
C1920 C1930 1.465 . S
C1921 C1920 1.264 . S
C1921 C1923 1.339 . S
C1921 H1948 0.931 . S
C1922 C1923 1.395 . S
C1922 C1924 1.320 . S
C1923 C1921 1.339 . S
C1923 C1922 1.395 . S
C1923 H1949 0.929 . S
C1924 C1922 1.320 . S
C1924 C1925 1.405 . S
C1924 H1950 0.930 . S
C1925 C1920 1.479 . S
C1925 C1924 1.405 . S
C1925 H1951 0.931 . S
U1926 O1927 2.454 . S
U1926 O1928 2.458 . S
U1926 C1929 2.984 . S
U1926 C1930 2.847 . S
U1926 C1943 2.882 . S
U1926 O1944 2.441 . S
U1926 O1945 2.420 . S
U1926 O1946 2.455 . S
U1926 O1947 2.449 . S
O1927 U1926 2.454 . S
O1927 C1929 1.353 . S
O1928 U1926 2.458 . S
O1928 C1929 1.286 . S
C1929 U1926 2.984 . S
C1929 O1927 1.353 . S
C1929 O1928 1.286 . S
C1929 C1931 1.363 . S
C1930 C1920 1.465 . S
C1930 U1926 2.847 . S
C1930 O1944 1.249 . S
C1930 O1945 1.202 . S
C1931 C1929 1.363 . S
C1931 C1933 1.408 . S
C1931 C1936 1.342 . S
C1932 C1933 1.310 . S
C1932 C1935 1.461 . S
C1932 H1952 0.932 . S
C1933 C1931 1.408 . S
C1933 C1932 1.310 . S
C1933 H1953 0.930 . S
C1934 C1935 1.474 . S
C1934 C1936 1.285 . S
C1934 H1954 0.929 . S
C1935 C1932 1.461 . S
C1935 C1934 1.474 . S
C1936 C1931 1.342 . S
C1936 C1934 1.285 . S
C1936 H1955 0.930 . S
C1937 C1940 1.424 . S
C1937 C1942 1.245 . S
C1937 C1943 1.428 . S
C1938 C1941 1.260 . S
C1938 C1942 1.477 . S
C1938 H1956 0.932 . S
C1939 C1940 1.384 . S
C1939 C1941 1.479 . S
C1939 H1957 0.929 . S
C1940 C1937 1.424 . S
C1940 C1939 1.384 . S
C1940 H1958 0.928 . S
C1941 C1938 1.260 . S
C1941 C1939 1.479 . S
C1942 C1937 1.245 . S
C1942 C1938 1.477 . S
C1942 H1959 0.932 . S
C1943 U1926 2.882 . S
C1943 C1937 1.428 . S
C1943 O1946 1.301 . S
C1943 O1947 1.282 . S
O1944 U1926 2.441 . S
O1944 C1930 1.249 . S
O1945 U1926 2.420 . S
O1945 C1930 1.202 . S
O1946 U1926 2.455 . S
O1946 C1943 1.301 . S
O1947 U1926 2.449 . S
O1947 C1943 1.282 . S
H1948 C1921 0.931 . S
H1949 C1923 0.929 . S
H1950 C1924 0.930 . S
H1951 C1925 0.931 . S
H1952 C1932 0.932 . S
H1953 C1933 0.930 . S
H1954 C1934 0.929 . S
H1955 C1936 0.930 . S
H1956 C1938 0.932 . S
H1957 C1939 0.929 . S
H1958 C1940 0.928 . S
H1959 C1942 0.932 . S
C1960 C1961 1.264 . S
C1960 C1965 1.479 . S
C1960 C1970 1.465 . S
C1961 C1960 1.264 . S
C1961 C1963 1.339 . S
C1961 H1988 0.931 . S
C1962 C1963 1.395 . S
C1962 C1964 1.320 . S
C1963 C1961 1.339 . S
C1963 C1962 1.395 . S
C1963 H1989 0.929 . S
C1964 C1962 1.320 . S
C1964 C1965 1.405 . S
C1964 H1990 0.930 . S
C1965 C1960 1.479 . S
C1965 C1964 1.405 . S
C1965 H1991 0.931 . S
U1966 O1967 2.454 . S
U1966 O1968 2.458 . S
U1966 C1969 2.984 . S
U1966 C1970 2.847 . S
U1966 C1983 2.882 . S
U1966 O1984 2.441 . S
U1966 O1985 2.420 . S
U1966 O1986 2.455 . S
U1966 O1987 2.449 . S
O1967 U1966 2.454 . S
O1967 C1969 1.353 . S
O1968 U1966 2.458 . S
O1968 C1969 1.286 . S
C1969 U1966 2.984 . S
C1969 O1967 1.353 . S
C1969 O1968 1.286 . S
C1969 C1971 1.363 . S
C1970 C1960 1.465 . S
C1970 U1966 2.847 . S
C1970 O1984 1.249 . S
C1970 O1985 1.202 . S
C1971 C1969 1.363 . S
C1971 C1973 1.408 . S
C1971 C1976 1.342 . S
C1972 C1973 1.310 . S
C1972 C1975 1.461 . S
C1972 H1992 0.932 . S
C1973 C1971 1.408 . S
C1973 C1972 1.310 . S
C1973 H1993 0.930 . S
C1974 C1975 1.474 . S
C1974 C1976 1.285 . S
C1974 H1994 0.929 . S
C1975 C1972 1.461 . S
C1975 C1974 1.474 . S
C1976 C1971 1.342 . S
C1976 C1974 1.285 . S
C1976 H1995 0.930 . S
C1977 C1980 1.424 . S
C1977 C1982 1.245 . S
C1977 C1983 1.428 . S
C1978 C1981 1.260 . S
C1978 C1982 1.477 . S
C1978 H1996 0.932 . S
C1979 C1980 1.384 . S
C1979 C1981 1.479 . S
C1979 H1997 0.929 . S
C1980 C1977 1.424 . S
C1980 C1979 1.384 . S
C1980 H1998 0.928 . S
C1981 C1978 1.260 . S
C1981 C1979 1.479 . S
C1982 C1977 1.245 . S
C1982 C1978 1.477 . S
C1982 H1999 0.932 . S
C1983 U1966 2.882 . S
C1983 C1977 1.428 . S
C1983 O1986 1.301 . S
C1983 O1987 1.282 . S
O1984 U1966 2.441 . S
O1984 C1970 1.249 . S
O1985 U1966 2.420 . S
O1985 C1970 1.202 . S
O1986 U1966 2.455 . S
O1986 C1983 1.301 . S
O1987 U1966 2.449 . S
O1987 C1983 1.282 . S
H1988 C1961 0.931 . S
H1989 C1963 0.929 . S
H1990 C1964 0.930 . S
H1991 C1965 0.931 . S
H1992 C1972 0.932 . S
H1993 C1973 0.930 . S
H1994 C1974 0.929 . S
H1995 C1976 0.930 . S
H1996 C1978 0.932 . S
H1997 C1979 0.929 . S
H1998 C1980 0.928 . S
H1999 C1982 0.932 . S
C2000 C2001 1.264 . S
C2000 C2005 1.479 . S
C2000 C2010 1.465 . S
C2001 C2000 1.264 . S
C2001 C2003 1.339 . S
C2001 H2028 0.931 . S
C2002 C2003 1.395 . S
C2002 C2004 1.320 . S
C2003 C2001 1.339 . S
C2003 C2002 1.395 . S
C2003 H2029 0.929 . S
C2004 C2002 1.320 . S
C2004 C2005 1.405 . S
C2004 H2030 0.930 . S
C2005 C2000 1.479 . S
C2005 C2004 1.405 . S
C2005 H2031 0.931 . S
U2006 O2007 2.454 . S
U2006 O2008 2.458 . S
U2006 C2009 2.984 . S
U2006 C2010 2.847 . S
U2006 C2023 2.882 . S
U2006 O2024 2.441 . S
U2006 O2025 2.420 . S
U2006 O2026 2.455 . S
U2006 O2027 2.449 . S
O2007 U2006 2.454 . S
O2007 C2009 1.353 . S
O2008 U2006 2.458 . S
O2008 C2009 1.286 . S
C2009 U2006 2.984 . S
C2009 O2007 1.353 . S
C2009 O2008 1.286 . S
C2009 C2011 1.363 . S
C2010 C2000 1.465 . S
C2010 U2006 2.847 . S
C2010 O2024 1.249 . S
C2010 O2025 1.202 . S
C2011 C2009 1.363 . S
C2011 C2013 1.408 . S
C2011 C2016 1.342 . S
C2012 C2013 1.310 . S
C2012 C2015 1.461 . S
C2012 H2032 0.932 . S
C2013 C2011 1.408 . S
C2013 C2012 1.310 . S
C2013 H2033 0.930 . S
C2014 C2015 1.474 . S
C2014 C2016 1.285 . S
C2014 H2034 0.929 . S
C2015 C2012 1.461 . S
C2015 C2014 1.474 . S
C2016 C2011 1.342 . S
C2016 C2014 1.285 . S
C2016 H2035 0.930 . S
C2017 C2020 1.424 . S
C2017 C2022 1.245 . S
C2017 C2023 1.428 . S
C2018 C2021 1.260 . S
C2018 C2022 1.477 . S
C2018 H2036 0.932 . S
C2019 C2020 1.384 . S
C2019 C2021 1.479 . S
C2019 H2037 0.929 . S
C2020 C2017 1.424 . S
C2020 C2019 1.384 . S
C2020 H2038 0.928 . S
C2021 C2018 1.260 . S
C2021 C2019 1.479 . S
C2022 C2017 1.245 . S
C2022 C2018 1.477 . S
C2022 H2039 0.932 . S
C2023 U2006 2.882 . S
C2023 C2017 1.428 . S
C2023 O2026 1.301 . S
C2023 O2027 1.282 . S
O2024 U2006 2.441 . S
O2024 C2010 1.249 . S
O2025 U2006 2.420 . S
O2025 C2010 1.202 . S
O2026 U2006 2.455 . S
O2026 C2023 1.301 . S
O2027 U2006 2.449 . S
O2027 C2023 1.282 . S
H2028 C2001 0.931 . S
H2029 C2003 0.929 . S
H2030 C2004 0.930 . S
H2031 C2005 0.931 . S
H2032 C2012 0.932 . S
H2033 C2013 0.930 . S
H2034 C2014 0.929 . S
H2035 C2016 0.930 . S
H2036 C2018 0.932 . S
H2037 C2019 0.929 . S
H2038 C2020 0.928 . S
H2039 C2022 0.932 . S
C2040 C2041 1.264 . S
C2040 C2045 1.479 . S
C2040 C2050 1.465 . S
C2041 C2040 1.264 . S
C2041 C2043 1.339 . S
C2041 H2068 0.931 . S
C2042 C2043 1.395 . S
C2042 C2044 1.320 . S
C2043 C2041 1.339 . S
C2043 C2042 1.395 . S
C2043 H2069 0.929 . S
C2044 C2042 1.320 . S
C2044 C2045 1.405 . S
C2044 H2070 0.930 . S
C2045 C2040 1.479 . S
C2045 C2044 1.405 . S
C2045 H2071 0.931 . S
U2046 O2047 2.454 . S
U2046 O2048 2.458 . S
U2046 C2049 2.984 . S
U2046 C2050 2.847 . S
U2046 C2063 2.882 . S
U2046 O2064 2.441 . S
U2046 O2065 2.420 . S
U2046 O2066 2.455 . S
U2046 O2067 2.449 . S
O2047 U2046 2.454 . S
O2047 C2049 1.353 . S
O2048 U2046 2.458 . S
O2048 C2049 1.286 . S
C2049 U2046 2.984 . S
C2049 O2047 1.353 . S
C2049 O2048 1.286 . S
C2049 C2051 1.363 . S
C2050 C2040 1.465 . S
C2050 U2046 2.847 . S
C2050 O2064 1.249 . S
C2050 O2065 1.202 . S
C2051 C2049 1.363 . S
C2051 C2053 1.408 . S
C2051 C2056 1.342 . S
C2052 C2053 1.310 . S
C2052 C2055 1.461 . S
C2052 H2072 0.932 . S
C2053 C2051 1.408 . S
C2053 C2052 1.310 . S
C2053 H2073 0.930 . S
C2054 C2055 1.474 . S
C2054 C2056 1.285 . S
C2054 H2074 0.929 . S
C2055 C2052 1.461 . S
C2055 C2054 1.474 . S
C2056 C2051 1.342 . S
C2056 C2054 1.285 . S
C2056 H2075 0.930 . S
C2057 C2060 1.424 . S
C2057 C2062 1.245 . S
C2057 C2063 1.428 . S
C2058 C2061 1.260 . S
C2058 C2062 1.477 . S
C2058 H2076 0.932 . S
C2059 C2060 1.384 . S
C2059 C2061 1.479 . S
C2059 H2077 0.929 . S
C2060 C2057 1.424 . S
C2060 C2059 1.384 . S
C2060 H2078 0.928 . S
C2061 C2058 1.260 . S
C2061 C2059 1.479 . S
C2062 C2057 1.245 . S
C2062 C2058 1.477 . S
C2062 H2079 0.932 . S
C2063 U2046 2.882 . S
C2063 C2057 1.428 . S
C2063 O2066 1.301 . S
C2063 O2067 1.282 . S
O2064 U2046 2.441 . S
O2064 C2050 1.249 . S
O2065 U2046 2.420 . S
O2065 C2050 1.202 . S
O2066 U2046 2.455 . S
O2066 C2063 1.301 . S
O2067 U2046 2.449 . S
O2067 C2063 1.282 . S
H2068 C2041 0.931 . S
H2069 C2043 0.929 . S
H2070 C2044 0.930 . S
H2071 C2045 0.931 . S
H2072 C2052 0.932 . S
H2073 C2053 0.930 . S
H2074 C2054 0.929 . S
H2075 C2056 0.930 . S
H2076 C2058 0.932 . S
H2077 C2059 0.929 . S
H2078 C2060 0.928 . S
H2079 C2062 0.932 . S
C2080 C2081 1.264 . S
C2080 C2085 1.479 . S
C2080 C2090 1.465 . S
C2081 C2080 1.264 . S
C2081 C2083 1.339 . S
C2081 H2108 0.931 . S
C2082 C2083 1.395 . S
C2082 C2084 1.320 . S
C2083 C2081 1.339 . S
C2083 C2082 1.395 . S
C2083 H2109 0.929 . S
C2084 C2082 1.320 . S
C2084 C2085 1.405 . S
C2084 H2110 0.930 . S
C2085 C2080 1.479 . S
C2085 C2084 1.405 . S
C2085 H2111 0.931 . S
U2086 O2087 2.454 . S
U2086 O2088 2.458 . S
U2086 C2089 2.984 . S
U2086 C2090 2.847 . S
U2086 C2103 2.882 . S
U2086 O2104 2.441 . S
U2086 O2105 2.420 . S
U2086 O2106 2.455 . S
U2086 O2107 2.449 . S
O2087 U2086 2.454 . S
O2087 C2089 1.353 . S
O2088 U2086 2.458 . S
O2088 C2089 1.286 . S
C2089 U2086 2.984 . S
C2089 O2087 1.353 . S
C2089 O2088 1.286 . S
C2089 C2091 1.363 . S
C2090 C2080 1.465 . S
C2090 U2086 2.847 . S
C2090 O2104 1.249 . S
C2090 O2105 1.202 . S
C2091 C2089 1.363 . S
C2091 C2093 1.408 . S
C2091 C2096 1.342 . S
C2092 C2093 1.310 . S
C2092 C2095 1.461 . S
C2092 H2112 0.932 . S
C2093 C2091 1.408 . S
C2093 C2092 1.310 . S
C2093 H2113 0.930 . S
C2094 C2095 1.474 . S
C2094 C2096 1.285 . S
C2094 H2114 0.929 . S
C2095 C2092 1.461 . S
C2095 C2094 1.474 . S
C2096 C2091 1.342 . S
C2096 C2094 1.285 . S
C2096 H2115 0.930 . S
C2097 C2100 1.424 . S
C2097 C2102 1.245 . S
C2097 C2103 1.428 . S
C2098 C2101 1.260 . S
C2098 C2102 1.477 . S
C2098 H2116 0.932 . S
C2099 C2100 1.384 . S
C2099 C2101 1.479 . S
C2099 H2117 0.929 . S
C2100 C2097 1.424 . S
C2100 C2099 1.384 . S
C2100 H2118 0.928 . S
C2101 C2098 1.260 . S
C2101 C2099 1.479 . S
C2102 C2097 1.245 . S
C2102 C2098 1.477 . S
C2102 H2119 0.932 . S
C2103 U2086 2.882 . S
C2103 C2097 1.428 . S
C2103 O2106 1.301 . S
C2103 O2107 1.282 . S
O2104 U2086 2.441 . S
O2104 C2090 1.249 . S
O2105 U2086 2.420 . S
O2105 C2090 1.202 . S
O2106 U2086 2.455 . S
O2106 C2103 1.301 . S
O2107 U2086 2.449 . S
O2107 C2103 1.282 . S
H2108 C2081 0.931 . S
H2109 C2083 0.929 . S
H2110 C2084 0.930 . S
H2111 C2085 0.931 . S
H2112 C2092 0.932 . S
H2113 C2093 0.930 . S
H2114 C2094 0.929 . S
H2115 C2096 0.930 . S
H2116 C2098 0.932 . S
H2117 C2099 0.929 . S
H2118 C2100 0.928 . S
H2119 C2102 0.932 . S
C2120 C2121 1.264 . S
C2120 C2125 1.479 . S
C2120 C2130 1.465 . S
C2121 C2120 1.264 . S
C2121 C2123 1.339 . S
C2121 H2148 0.931 . S
C2122 C2123 1.395 . S
C2122 C2124 1.320 . S
C2123 C2121 1.339 . S
C2123 C2122 1.395 . S
C2123 H2149 0.929 . S
C2124 C2122 1.320 . S
C2124 C2125 1.405 . S
C2124 H2150 0.930 . S
C2125 C2120 1.479 . S
C2125 C2124 1.405 . S
C2125 H2151 0.931 . S
U2126 O2127 2.454 . S
U2126 O2128 2.458 . S
U2126 C2129 2.984 . S
U2126 C2130 2.847 . S
U2126 C2143 2.882 . S
U2126 O2144 2.441 . S
U2126 O2145 2.420 . S
U2126 O2146 2.455 . S
U2126 O2147 2.449 . S
O2127 U2126 2.454 . S
O2127 C2129 1.353 . S
O2128 U2126 2.458 . S
O2128 C2129 1.286 . S
C2129 U2126 2.984 . S
C2129 O2127 1.353 . S
C2129 O2128 1.286 . S
C2129 C2131 1.363 . S
C2130 C2120 1.465 . S
C2130 U2126 2.847 . S
C2130 O2144 1.249 . S
C2130 O2145 1.202 . S
C2131 C2129 1.363 . S
C2131 C2133 1.408 . S
C2131 C2136 1.342 . S
C2132 C2133 1.310 . S
C2132 C2135 1.461 . S
C2132 H2152 0.932 . S
C2133 C2131 1.408 . S
C2133 C2132 1.310 . S
C2133 H2153 0.930 . S
C2134 C2135 1.474 . S
C2134 C2136 1.285 . S
C2134 H2154 0.929 . S
C2135 C2132 1.461 . S
C2135 C2134 1.474 . S
C2136 C2131 1.342 . S
C2136 C2134 1.285 . S
C2136 H2155 0.930 . S
C2137 C2140 1.424 . S
C2137 C2142 1.245 . S
C2137 C2143 1.428 . S
C2138 C2141 1.260 . S
C2138 C2142 1.477 . S
C2138 H2156 0.932 . S
C2139 C2140 1.384 . S
C2139 C2141 1.479 . S
C2139 H2157 0.929 . S
C2140 C2137 1.424 . S
C2140 C2139 1.384 . S
C2140 H2158 0.928 . S
C2141 C2138 1.260 . S
C2141 C2139 1.479 . S
C2142 C2137 1.245 . S
C2142 C2138 1.477 . S
C2142 H2159 0.932 . S
C2143 U2126 2.882 . S
C2143 C2137 1.428 . S
C2143 O2146 1.301 . S
C2143 O2147 1.282 . S
O2144 U2126 2.441 . S
O2144 C2130 1.249 . S
O2145 U2126 2.420 . S
O2145 C2130 1.202 . S
O2146 U2126 2.455 . S
O2146 C2143 1.301 . S
O2147 U2126 2.449 . S
O2147 C2143 1.282 . S
H2148 C2121 0.931 . S
H2149 C2123 0.929 . S
H2150 C2124 0.930 . S
H2151 C2125 0.931 . S
H2152 C2132 0.932 . S
H2153 C2133 0.930 . S
H2154 C2134 0.929 . S
H2155 C2136 0.930 . S
H2156 C2138 0.932 . S
H2157 C2139 0.929 . S
H2158 C2140 0.928 . S
H2159 C2142 0.932 . S
C2160 C2161 1.264 . S
C2160 C2165 1.479 . S
C2160 C2170 1.465 . S
C2161 C2160 1.264 . S
C2161 C2163 1.339 . S
C2161 H2188 0.931 . S
C2162 C2163 1.395 . S
C2162 C2164 1.320 . S
C2163 C2161 1.339 . S
C2163 C2162 1.395 . S
C2163 H2189 0.929 . S
C2164 C2162 1.320 . S
C2164 C2165 1.405 . S
C2164 H2190 0.930 . S
C2165 C2160 1.479 . S
C2165 C2164 1.405 . S
C2165 H2191 0.931 . S
U2166 O2167 2.454 . S
U2166 O2168 2.458 . S
U2166 C2169 2.984 . S
U2166 C2170 2.847 . S
U2166 C2183 2.882 . S
U2166 O2184 2.441 . S
U2166 O2185 2.420 . S
U2166 O2186 2.455 . S
U2166 O2187 2.449 . S
O2167 U2166 2.454 . S
O2167 C2169 1.353 . S
O2168 U2166 2.458 . S
O2168 C2169 1.286 . S
C2169 U2166 2.984 . S
C2169 O2167 1.353 . S
C2169 O2168 1.286 . S
C2169 C2171 1.363 . S
C2170 C2160 1.465 . S
C2170 U2166 2.847 . S
C2170 O2184 1.249 . S
C2170 O2185 1.202 . S
C2171 C2169 1.363 . S
C2171 C2173 1.408 . S
C2171 C2176 1.342 . S
C2172 C2173 1.310 . S
C2172 C2175 1.461 . S
C2172 H2192 0.932 . S
C2173 C2171 1.408 . S
C2173 C2172 1.310 . S
C2173 H2193 0.930 . S
C2174 C2175 1.474 . S
C2174 C2176 1.285 . S
C2174 H2194 0.929 . S
C2175 C2172 1.461 . S
C2175 C2174 1.474 . S
C2176 C2171 1.342 . S
C2176 C2174 1.285 . S
C2176 H2195 0.930 . S
C2177 C2180 1.424 . S
C2177 C2182 1.245 . S
C2177 C2183 1.428 . S
C2178 C2181 1.260 . S
C2178 C2182 1.477 . S
C2178 H2196 0.932 . S
C2179 C2180 1.384 . S
C2179 C2181 1.479 . S
C2179 H2197 0.929 . S
C2180 C2177 1.424 . S
C2180 C2179 1.384 . S
C2180 H2198 0.928 . S
C2181 C2178 1.260 . S
C2181 C2179 1.479 . S
C2182 C2177 1.245 . S
C2182 C2178 1.477 . S
C2182 H2199 0.932 . S
C2183 U2166 2.882 . S
C2183 C2177 1.428 . S
C2183 O2186 1.301 . S
C2183 O2187 1.282 . S
O2184 U2166 2.441 . S
O2184 C2170 1.249 . S
O2185 U2166 2.420 . S
O2185 C2170 1.202 . S
O2186 U2166 2.455 . S
O2186 C2183 1.301 . S
O2187 U2166 2.449 . S
O2187 C2183 1.282 . S
H2188 C2161 0.931 . S
H2189 C2163 0.929 . S
H2190 C2164 0.930 . S
H2191 C2165 0.931 . S
H2192 C2172 0.932 . S
H2193 C2173 0.930 . S
H2194 C2174 0.929 . S
H2195 C2176 0.930 . S
H2196 C2178 0.932 . S
H2197 C2179 0.929 . S
H2198 C2180 0.928 . S
H2199 C2182 0.932 . S
C2200 C2201 1.264 . S
C2200 C2205 1.479 . S
C2200 C2210 1.465 . S
C2201 C2200 1.264 . S
C2201 C2203 1.339 . S
C2201 H2228 0.931 . S
C2202 C2203 1.395 . S
C2202 C2204 1.320 . S
C2203 C2201 1.339 . S
C2203 C2202 1.395 . S
C2203 H2229 0.929 . S
C2204 C2202 1.320 . S
C2204 C2205 1.405 . S
C2204 H2230 0.930 . S
C2205 C2200 1.479 . S
C2205 C2204 1.405 . S
C2205 H2231 0.931 . S
U2206 O2207 2.454 . S
U2206 O2208 2.458 . S
U2206 C2209 2.984 . S
U2206 C2210 2.847 . S
U2206 C2223 2.882 . S
U2206 O2224 2.441 . S
U2206 O2225 2.420 . S
U2206 O2226 2.455 . S
U2206 O2227 2.449 . S
O2207 U2206 2.454 . S
O2207 C2209 1.353 . S
O2208 U2206 2.458 . S
O2208 C2209 1.286 . S
C2209 U2206 2.984 . S
C2209 O2207 1.353 . S
C2209 O2208 1.286 . S
C2209 C2211 1.363 . S
C2210 C2200 1.465 . S
C2210 U2206 2.847 . S
C2210 O2224 1.249 . S
C2210 O2225 1.202 . S
C2211 C2209 1.363 . S
C2211 C2213 1.408 . S
C2211 C2216 1.342 . S
C2212 C2213 1.310 . S
C2212 C2215 1.461 . S
C2212 H2232 0.932 . S
C2213 C2211 1.408 . S
C2213 C2212 1.310 . S
C2213 H2233 0.930 . S
C2214 C2215 1.474 . S
C2214 C2216 1.285 . S
C2214 H2234 0.929 . S
C2215 C2212 1.461 . S
C2215 C2214 1.474 . S
C2216 C2211 1.342 . S
C2216 C2214 1.285 . S
C2216 H2235 0.930 . S
C2217 C2220 1.424 . S
C2217 C2222 1.245 . S
C2217 C2223 1.428 . S
C2218 C2221 1.260 . S
C2218 C2222 1.477 . S
C2218 H2236 0.932 . S
C2219 C2220 1.384 . S
C2219 C2221 1.479 . S
C2219 H2237 0.929 . S
C2220 C2217 1.424 . S
C2220 C2219 1.384 . S
C2220 H2238 0.928 . S
C2221 C2218 1.260 . S
C2221 C2219 1.479 . S
C2222 C2217 1.245 . S
C2222 C2218 1.477 . S
C2222 H2239 0.932 . S
C2223 U2206 2.882 . S
C2223 C2217 1.428 . S
C2223 O2226 1.301 . S
C2223 O2227 1.282 . S
O2224 U2206 2.441 . S
O2224 C2210 1.249 . S
O2225 U2206 2.420 . S
O2225 C2210 1.202 . S
O2226 U2206 2.455 . S
O2226 C2223 1.301 . S
O2227 U2206 2.449 . S
O2227 C2223 1.282 . S
H2228 C2201 0.931 . S
H2229 C2203 0.929 . S
H2230 C2204 0.930 . S
H2231 C2205 0.931 . S
H2232 C2212 0.932 . S
H2233 C2213 0.930 . S
H2234 C2214 0.929 . S
H2235 C2216 0.930 . S
H2236 C2218 0.932 . S
H2237 C2219 0.929 . S
H2238 C2220 0.928 . S
H2239 C2222 0.932 . S
C2240 C2241 1.264 . S
C2240 C2245 1.479 . S
C2240 C2250 1.465 . S
C2241 C2240 1.264 . S
C2241 C2243 1.339 . S
C2241 H2268 0.931 . S
C2242 C2243 1.395 . S
C2242 C2244 1.320 . S
C2243 C2241 1.339 . S
C2243 C2242 1.395 . S
C2243 H2269 0.929 . S
C2244 C2242 1.320 . S
C2244 C2245 1.405 . S
C2244 H2270 0.930 . S
C2245 C2240 1.479 . S
C2245 C2244 1.405 . S
C2245 H2271 0.931 . S
U2246 O2247 2.454 . S
U2246 O2248 2.458 . S
U2246 C2249 2.984 . S
U2246 C2250 2.847 . S
U2246 C2263 2.882 . S
U2246 O2264 2.441 . S
U2246 O2265 2.420 . S
U2246 O2266 2.455 . S
U2246 O2267 2.449 . S
O2247 U2246 2.454 . S
O2247 C2249 1.353 . S
O2248 U2246 2.458 . S
O2248 C2249 1.286 . S
C2249 U2246 2.984 . S
C2249 O2247 1.353 . S
C2249 O2248 1.286 . S
C2249 C2251 1.363 . S
C2250 C2240 1.465 . S
C2250 U2246 2.847 . S
C2250 O2264 1.249 . S
C2250 O2265 1.202 . S
C2251 C2249 1.363 . S
C2251 C2253 1.408 . S
C2251 C2256 1.342 . S
C2252 C2253 1.310 . S
C2252 C2255 1.461 . S
C2252 H2272 0.932 . S
C2253 C2251 1.408 . S
C2253 C2252 1.310 . S
C2253 H2273 0.930 . S
C2254 C2255 1.474 . S
C2254 C2256 1.285 . S
C2254 H2274 0.929 . S
C2255 C2252 1.461 . S
C2255 C2254 1.474 . S
C2256 C2251 1.342 . S
C2256 C2254 1.285 . S
C2256 H2275 0.930 . S
C2257 C2260 1.424 . S
C2257 C2262 1.245 . S
C2257 C2263 1.428 . S
C2258 C2261 1.260 . S
C2258 C2262 1.477 . S
C2258 H2276 0.932 . S
C2259 C2260 1.384 . S
C2259 C2261 1.479 . S
C2259 H2277 0.929 . S
C2260 C2257 1.424 . S
C2260 C2259 1.384 . S
C2260 H2278 0.928 . S
C2261 C2258 1.260 . S
C2261 C2259 1.479 . S
C2262 C2257 1.245 . S
C2262 C2258 1.477 . S
C2262 H2279 0.932 . S
C2263 U2246 2.882 . S
C2263 C2257 1.428 . S
C2263 O2266 1.301 . S
C2263 O2267 1.282 . S
O2264 U2246 2.441 . S
O2264 C2250 1.249 . S
O2265 U2246 2.420 . S
O2265 C2250 1.202 . S
O2266 U2246 2.455 . S
O2266 C2263 1.301 . S
O2267 U2246 2.449 . S
O2267 C2263 1.282 . S
H2268 C2241 0.931 . S
H2269 C2243 0.929 . S
H2270 C2244 0.930 . S
H2271 C2245 0.931 . S
H2272 C2252 0.932 . S
H2273 C2253 0.930 . S
H2274 C2254 0.929 . S
H2275 C2256 0.930 . S
H2276 C2258 0.932 . S
H2277 C2259 0.929 . S
H2278 C2260 0.928 . S
H2279 C2262 0.932 . S
C2280 C2281 1.264 . S
C2280 C2285 1.479 . S
C2280 C2290 1.465 . S
C2281 C2280 1.264 . S
C2281 C2283 1.339 . S
C2281 H2308 0.931 . S
C2282 C2283 1.395 . S
C2282 C2284 1.320 . S
C2283 C2281 1.339 . S
C2283 C2282 1.395 . S
C2283 H2309 0.929 . S
C2284 C2282 1.320 . S
C2284 C2285 1.405 . S
C2284 H2310 0.930 . S
C2285 C2280 1.479 . S
C2285 C2284 1.405 . S
C2285 H2311 0.931 . S
U2286 O2287 2.454 . S
U2286 O2288 2.458 . S
U2286 C2289 2.984 . S
U2286 C2290 2.847 . S
U2286 C2303 2.882 . S
U2286 O2304 2.441 . S
U2286 O2305 2.420 . S
U2286 O2306 2.455 . S
U2286 O2307 2.449 . S
O2287 U2286 2.454 . S
O2287 C2289 1.353 . S
O2288 U2286 2.458 . S
O2288 C2289 1.286 . S
C2289 U2286 2.984 . S
C2289 O2287 1.353 . S
C2289 O2288 1.286 . S
C2289 C2291 1.363 . S
C2290 C2280 1.465 . S
C2290 U2286 2.847 . S
C2290 O2304 1.249 . S
C2290 O2305 1.202 . S
C2291 C2289 1.363 . S
C2291 C2293 1.408 . S
C2291 C2296 1.342 . S
C2292 C2293 1.310 . S
C2292 C2295 1.461 . S
C2292 H2312 0.932 . S
C2293 C2291 1.408 . S
C2293 C2292 1.310 . S
C2293 H2313 0.930 . S
C2294 C2295 1.474 . S
C2294 C2296 1.285 . S
C2294 H2314 0.929 . S
C2295 C2292 1.461 . S
C2295 C2294 1.474 . S
C2296 C2291 1.342 . S
C2296 C2294 1.285 . S
C2296 H2315 0.930 . S
C2297 C2300 1.424 . S
C2297 C2302 1.245 . S
C2297 C2303 1.428 . S
C2298 C2301 1.260 . S
C2298 C2302 1.477 . S
C2298 H2316 0.932 . S
C2299 C2300 1.384 . S
C2299 C2301 1.479 . S
C2299 H2317 0.929 . S
C2300 C2297 1.424 . S
C2300 C2299 1.384 . S
C2300 H2318 0.928 . S
C2301 C2298 1.260 . S
C2301 C2299 1.479 . S
C2302 C2297 1.245 . S
C2302 C2298 1.477 . S
C2302 H2319 0.932 . S
C2303 U2286 2.882 . S
C2303 C2297 1.428 . S
C2303 O2306 1.301 . S
C2303 O2307 1.282 . S
O2304 U2286 2.441 . S
O2304 C2290 1.249 . S
O2305 U2286 2.420 . S
O2305 C2290 1.202 . S
O2306 U2286 2.455 . S
O2306 C2303 1.301 . S
O2307 U2286 2.449 . S
O2307 C2303 1.282 . S
H2308 C2281 0.931 . S
H2309 C2283 0.929 . S
H2310 C2284 0.930 . S
H2311 C2285 0.931 . S
H2312 C2292 0.932 . S
H2313 C2293 0.930 . S
H2314 C2294 0.929 . S
H2315 C2296 0.930 . S
H2316 C2298 0.932 . S
H2317 C2299 0.929 . S
H2318 C2300 0.928 . S
H2319 C2302 0.932 . S
C2320 C2321 1.264 . S
C2320 C2325 1.479 . S
C2320 C2330 1.465 . S
C2321 C2320 1.264 . S
C2321 C2323 1.339 . S
C2321 H2348 0.931 . S
C2322 C2323 1.395 . S
C2322 C2324 1.320 . S
C2323 C2321 1.339 . S
C2323 C2322 1.395 . S
C2323 H2349 0.929 . S
C2324 C2322 1.320 . S
C2324 C2325 1.405 . S
C2324 H2350 0.930 . S
C2325 C2320 1.479 . S
C2325 C2324 1.405 . S
C2325 H2351 0.931 . S
U2326 O2327 2.454 . S
U2326 O2328 2.458 . S
U2326 C2329 2.984 . S
U2326 C2330 2.847 . S
U2326 C2343 2.882 . S
U2326 O2344 2.441 . S
U2326 O2345 2.420 . S
U2326 O2346 2.455 . S
U2326 O2347 2.449 . S
O2327 U2326 2.454 . S
O2327 C2329 1.353 . S
O2328 U2326 2.458 . S
O2328 C2329 1.286 . S
C2329 U2326 2.984 . S
C2329 O2327 1.353 . S
C2329 O2328 1.286 . S
C2329 C2331 1.363 . S
C2330 C2320 1.465 . S
C2330 U2326 2.847 . S
C2330 O2344 1.249 . S
C2330 O2345 1.202 . S
C2331 C2329 1.363 . S
C2331 C2333 1.408 . S
C2331 C2336 1.342 . S
C2332 C2333 1.310 . S
C2332 C2335 1.461 . S
C2332 H2352 0.932 . S
C2333 C2331 1.408 . S
C2333 C2332 1.310 . S
C2333 H2353 0.930 . S
C2334 C2335 1.474 . S
C2334 C2336 1.285 . S
C2334 H2354 0.929 . S
C2335 C2332 1.461 . S
C2335 C2334 1.474 . S
C2336 C2331 1.342 . S
C2336 C2334 1.285 . S
C2336 H2355 0.930 . S
C2337 C2340 1.424 . S
C2337 C2342 1.245 . S
C2337 C2343 1.428 . S
C2338 C2341 1.260 . S
C2338 C2342 1.477 . S
C2338 H2356 0.932 . S
C2339 C2340 1.384 . S
C2339 C2341 1.479 . S
C2339 H2357 0.929 . S
C2340 C2337 1.424 . S
C2340 C2339 1.384 . S
C2340 H2358 0.928 . S
C2341 C2338 1.260 . S
C2341 C2339 1.479 . S
C2342 C2337 1.245 . S
C2342 C2338 1.477 . S
C2342 H2359 0.932 . S
C2343 U2326 2.882 . S
C2343 C2337 1.428 . S
C2343 O2346 1.301 . S
C2343 O2347 1.282 . S
O2344 U2326 2.441 . S
O2344 C2330 1.249 . S
O2345 U2326 2.420 . S
O2345 C2330 1.202 . S
O2346 U2326 2.455 . S
O2346 C2343 1.301 . S
O2347 U2326 2.449 . S
O2347 C2343 1.282 . S
H2348 C2321 0.931 . S
H2349 C2323 0.929 . S
H2350 C2324 0.930 . S
H2351 C2325 0.931 . S
H2352 C2332 0.932 . S
H2353 C2333 0.930 . S
H2354 C2334 0.929 . S
H2355 C2336 0.930 . S
H2356 C2338 0.932 . S
H2357 C2339 0.929 . S
H2358 C2340 0.928 . S
H2359 C2342 0.932 . S
C2360 C2361 1.264 . S
C2360 C2365 1.479 . S
C2360 C2370 1.465 . S
C2361 C2360 1.264 . S
C2361 C2363 1.339 . S
C2361 H2388 0.931 . S
C2362 C2363 1.395 . S
C2362 C2364 1.320 . S
C2363 C2361 1.339 . S
C2363 C2362 1.395 . S
C2363 H2389 0.929 . S
C2364 C2362 1.320 . S
C2364 C2365 1.405 . S
C2364 H2390 0.930 . S
C2365 C2360 1.479 . S
C2365 C2364 1.405 . S
C2365 H2391 0.931 . S
U2366 O2367 2.454 . S
U2366 O2368 2.458 . S
U2366 C2369 2.984 . S
U2366 C2370 2.847 . S
U2366 C2383 2.882 . S
U2366 O2384 2.441 . S
U2366 O2385 2.420 . S
U2366 O2386 2.455 . S
U2366 O2387 2.449 . S
O2367 U2366 2.454 . S
O2367 C2369 1.353 . S
O2368 U2366 2.458 . S
O2368 C2369 1.286 . S
C2369 U2366 2.984 . S
C2369 O2367 1.353 . S
C2369 O2368 1.286 . S
C2369 C2371 1.363 . S
C2370 C2360 1.465 . S
C2370 U2366 2.847 . S
C2370 O2384 1.249 . S
C2370 O2385 1.202 . S
C2371 C2369 1.363 . S
C2371 C2373 1.408 . S
C2371 C2376 1.342 . S
C2372 C2373 1.310 . S
C2372 C2375 1.461 . S
C2372 H2392 0.932 . S
C2373 C2371 1.408 . S
C2373 C2372 1.310 . S
C2373 H2393 0.930 . S
C2374 C2375 1.474 . S
C2374 C2376 1.285 . S
C2374 H2394 0.929 . S
C2375 C2372 1.461 . S
C2375 C2374 1.474 . S
C2376 C2371 1.342 . S
C2376 C2374 1.285 . S
C2376 H2395 0.930 . S
C2377 C2380 1.424 . S
C2377 C2382 1.245 . S
C2377 C2383 1.428 . S
C2378 C2381 1.260 . S
C2378 C2382 1.477 . S
C2378 H2396 0.932 . S
C2379 C2380 1.384 . S
C2379 C2381 1.479 . S
C2379 H2397 0.929 . S
C2380 C2377 1.424 . S
C2380 C2379 1.384 . S
C2380 H2398 0.928 . S
C2381 C2378 1.260 . S
C2381 C2379 1.479 . S
C2382 C2377 1.245 . S
C2382 C2378 1.477 . S
C2382 H2399 0.932 . S
C2383 U2366 2.882 . S
C2383 C2377 1.428 . S
C2383 O2386 1.301 . S
C2383 O2387 1.282 . S
O2384 U2366 2.441 . S
O2384 C2370 1.249 . S
O2385 U2366 2.420 . S
O2385 C2370 1.202 . S
O2386 U2366 2.455 . S
O2386 C2383 1.301 . S
O2387 U2366 2.449 . S
O2387 C2383 1.282 . S
H2388 C2361 0.931 . S
H2389 C2363 0.929 . S
H2390 C2364 0.930 . S
H2391 C2365 0.931 . S
H2392 C2372 0.932 . S
H2393 C2373 0.930 . S
H2394 C2374 0.929 . S
H2395 C2376 0.930 . S
H2396 C2378 0.932 . S
H2397 C2379 0.929 . S
H2398 C2380 0.928 . S
H2399 C2382 0.932 . S
C2400 C2401 1.264 . S
C2400 C2405 1.479 . S
C2400 C2410 1.465 . S
C2401 C2400 1.264 . S
C2401 C2403 1.339 . S
C2401 H2428 0.931 . S
C2402 C2403 1.395 . S
C2402 C2404 1.320 . S
C2403 C2401 1.339 . S
C2403 C2402 1.395 . S
C2403 H2429 0.929 . S
C2404 C2402 1.320 . S
C2404 C2405 1.405 . S
C2404 H2430 0.930 . S
C2405 C2400 1.479 . S
C2405 C2404 1.405 . S
C2405 H2431 0.931 . S
U2406 O2407 2.454 . S
U2406 O2408 2.458 . S
U2406 C2409 2.984 . S
U2406 C2410 2.847 . S
U2406 C2423 2.882 . S
U2406 O2424 2.441 . S
U2406 O2425 2.420 . S
U2406 O2426 2.455 . S
U2406 O2427 2.449 . S
O2407 U2406 2.454 . S
O2407 C2409 1.353 . S
O2408 U2406 2.458 . S
O2408 C2409 1.286 . S
C2409 U2406 2.984 . S
C2409 O2407 1.353 . S
C2409 O2408 1.286 . S
C2409 C2411 1.363 . S
C2410 C2400 1.465 . S
C2410 U2406 2.847 . S
C2410 O2424 1.249 . S
C2410 O2425 1.202 . S
C2411 C2409 1.363 . S
C2411 C2413 1.408 . S
C2411 C2416 1.342 . S
C2412 C2413 1.310 . S
C2412 C2415 1.461 . S
C2412 H2432 0.932 . S
C2413 C2411 1.408 . S
C2413 C2412 1.310 . S
C2413 H2433 0.930 . S
C2414 C2415 1.474 . S
C2414 C2416 1.285 . S
C2414 H2434 0.929 . S
C2415 C2412 1.461 . S
C2415 C2414 1.474 . S
C2416 C2411 1.342 . S
C2416 C2414 1.285 . S
C2416 H2435 0.930 . S
C2417 C2420 1.424 . S
C2417 C2422 1.245 . S
C2417 C2423 1.428 . S
C2418 C2421 1.260 . S
C2418 C2422 1.477 . S
C2418 H2436 0.932 . S
C2419 C2420 1.384 . S
C2419 C2421 1.479 . S
C2419 H2437 0.929 . S
C2420 C2417 1.424 . S
C2420 C2419 1.384 . S
C2420 H2438 0.928 . S
C2421 C2418 1.260 . S
C2421 C2419 1.479 . S
C2422 C2417 1.245 . S
C2422 C2418 1.477 . S
C2422 H2439 0.932 . S
C2423 U2406 2.882 . S
C2423 C2417 1.428 . S
C2423 O2426 1.301 . S
C2423 O2427 1.282 . S
O2424 U2406 2.441 . S
O2424 C2410 1.249 . S
O2425 U2406 2.420 . S
O2425 C2410 1.202 . S
O2426 U2406 2.455 . S
O2426 C2423 1.301 . S
O2427 U2406 2.449 . S
O2427 C2423 1.282 . S
H2428 C2401 0.931 . S
H2429 C2403 0.929 . S
H2430 C2404 0.930 . S
H2431 C2405 0.931 . S
H2432 C2412 0.932 . S
H2433 C2413 0.930 . S
H2434 C2414 0.929 . S
H2435 C2416 0.930 . S
H2436 C2418 0.932 . S
H2437 C2419 0.929 . S
H2438 C2420 0.928 . S
H2439 C2422 0.932 . S
C2440 C2441 1.264 . S
C2440 C2445 1.479 . S
C2440 C2450 1.465 . S
C2441 C2440 1.264 . S
C2441 C2443 1.339 . S
C2441 H2468 0.931 . S
C2442 C2443 1.395 . S
C2442 C2444 1.320 . S
C2443 C2441 1.339 . S
C2443 C2442 1.395 . S
C2443 H2469 0.929 . S
C2444 C2442 1.320 . S
C2444 C2445 1.405 . S
C2444 H2470 0.930 . S
C2445 C2440 1.479 . S
C2445 C2444 1.405 . S
C2445 H2471 0.931 . S
U2446 O2447 2.454 . S
U2446 O2448 2.458 . S
U2446 C2449 2.984 . S
U2446 C2450 2.847 . S
U2446 C2463 2.882 . S
U2446 O2464 2.441 . S
U2446 O2465 2.420 . S
U2446 O2466 2.455 . S
U2446 O2467 2.449 . S
O2447 U2446 2.454 . S
O2447 C2449 1.353 . S
O2448 U2446 2.458 . S
O2448 C2449 1.286 . S
C2449 U2446 2.984 . S
C2449 O2447 1.353 . S
C2449 O2448 1.286 . S
C2449 C2451 1.363 . S
C2450 C2440 1.465 . S
C2450 U2446 2.847 . S
C2450 O2464 1.249 . S
C2450 O2465 1.202 . S
C2451 C2449 1.363 . S
C2451 C2453 1.408 . S
C2451 C2456 1.342 . S
C2452 C2453 1.310 . S
C2452 C2455 1.461 . S
C2452 H2472 0.932 . S
C2453 C2451 1.408 . S
C2453 C2452 1.310 . S
C2453 H2473 0.930 . S
C2454 C2455 1.474 . S
C2454 C2456 1.285 . S
C2454 H2474 0.929 . S
C2455 C2452 1.461 . S
C2455 C2454 1.474 . S
C2456 C2451 1.342 . S
C2456 C2454 1.285 . S
C2456 H2475 0.930 . S
C2457 C2460 1.424 . S
C2457 C2462 1.245 . S
C2457 C2463 1.428 . S
C2458 C2461 1.260 . S
C2458 C2462 1.477 . S
C2458 H2476 0.932 . S
C2459 C2460 1.384 . S
C2459 C2461 1.479 . S
C2459 H2477 0.929 . S
C2460 C2457 1.424 . S
C2460 C2459 1.384 . S
C2460 H2478 0.928 . S
C2461 C2458 1.260 . S
C2461 C2459 1.479 . S
C2462 C2457 1.245 . S
C2462 C2458 1.477 . S
C2462 H2479 0.932 . S
C2463 U2446 2.882 . S
C2463 C2457 1.428 . S
C2463 O2466 1.301 . S
C2463 O2467 1.282 . S
O2464 U2446 2.441 . S
O2464 C2450 1.249 . S
O2465 U2446 2.420 . S
O2465 C2450 1.202 . S
O2466 U2446 2.455 . S
O2466 C2463 1.301 . S
O2467 U2446 2.449 . S
O2467 C2463 1.282 . S
H2468 C2441 0.931 . S
H2469 C2443 0.929 . S
H2470 C2444 0.930 . S
H2471 C2445 0.931 . S
H2472 C2452 0.932 . S
H2473 C2453 0.930 . S
H2474 C2454 0.929 . S
H2475 C2456 0.930 . S
H2476 C2458 0.932 . S
H2477 C2459 0.929 . S
H2478 C2460 0.928 . S
H2479 C2462 0.932 . S
C2480 C2481 1.264 . S
C2480 C2485 1.479 . S
C2480 C2490 1.465 . S
C2481 C2480 1.264 . S
C2481 C2483 1.339 . S
C2481 H2508 0.931 . S
C2482 C2483 1.395 . S
C2482 C2484 1.320 . S
C2483 C2481 1.339 . S
C2483 C2482 1.395 . S
C2483 H2509 0.929 . S
C2484 C2482 1.320 . S
C2484 C2485 1.405 . S
C2484 H2510 0.930 . S
C2485 C2480 1.479 . S
C2485 C2484 1.405 . S
C2485 H2511 0.931 . S
U2486 O2487 2.454 . S
U2486 O2488 2.458 . S
U2486 C2489 2.984 . S
U2486 C2490 2.847 . S
U2486 C2503 2.882 . S
U2486 O2504 2.441 . S
U2486 O2505 2.420 . S
U2486 O2506 2.455 . S
U2486 O2507 2.449 . S
O2487 U2486 2.454 . S
O2487 C2489 1.353 . S
O2488 U2486 2.458 . S
O2488 C2489 1.286 . S
C2489 U2486 2.984 . S
C2489 O2487 1.353 . S
C2489 O2488 1.286 . S
C2489 C2491 1.363 . S
C2490 C2480 1.465 . S
C2490 U2486 2.847 . S
C2490 O2504 1.249 . S
C2490 O2505 1.202 . S
C2491 C2489 1.363 . S
C2491 C2493 1.408 . S
C2491 C2496 1.342 . S
C2492 C2493 1.310 . S
C2492 C2495 1.461 . S
C2492 H2512 0.932 . S
C2493 C2491 1.408 . S
C2493 C2492 1.310 . S
C2493 H2513 0.930 . S
C2494 C2495 1.474 . S
C2494 C2496 1.285 . S
C2494 H2514 0.929 . S
C2495 C2492 1.461 . S
C2495 C2494 1.474 . S
C2496 C2491 1.342 . S
C2496 C2494 1.285 . S
C2496 H2515 0.930 . S
C2497 C2500 1.424 . S
C2497 C2502 1.245 . S
C2497 C2503 1.428 . S
C2498 C2501 1.260 . S
C2498 C2502 1.477 . S
C2498 H2516 0.932 . S
C2499 C2500 1.384 . S
C2499 C2501 1.479 . S
C2499 H2517 0.929 . S
C2500 C2497 1.424 . S
C2500 C2499 1.384 . S
C2500 H2518 0.928 . S
C2501 C2498 1.260 . S
C2501 C2499 1.479 . S
C2502 C2497 1.245 . S
C2502 C2498 1.477 . S
C2502 H2519 0.932 . S
C2503 U2486 2.882 . S
C2503 C2497 1.428 . S
C2503 O2506 1.301 . S
C2503 O2507 1.282 . S
O2504 U2486 2.441 . S
O2504 C2490 1.249 . S
O2505 U2486 2.420 . S
O2505 C2490 1.202 . S
O2506 U2486 2.455 . S
O2506 C2503 1.301 . S
O2507 U2486 2.449 . S
O2507 C2503 1.282 . S
H2508 C2481 0.931 . S
H2509 C2483 0.929 . S
H2510 C2484 0.930 . S
H2511 C2485 0.931 . S
H2512 C2492 0.932 . S
H2513 C2493 0.930 . S
H2514 C2494 0.929 . S
H2515 C2496 0.930 . S
H2516 C2498 0.932 . S
H2517 C2499 0.929 . S
H2518 C2500 0.928 . S
H2519 C2502 0.932 . S
C2520 C2521 1.264 . S
C2520 C2525 1.479 . S
C2520 C2530 1.465 . S
C2521 C2520 1.264 . S
C2521 C2523 1.339 . S
C2521 H2548 0.931 . S
C2522 C2523 1.395 . S
C2522 C2524 1.320 . S
C2523 C2521 1.339 . S
C2523 C2522 1.395 . S
C2523 H2549 0.929 . S
C2524 C2522 1.320 . S
C2524 C2525 1.405 . S
C2524 H2550 0.930 . S
C2525 C2520 1.479 . S
C2525 C2524 1.405 . S
C2525 H2551 0.931 . S
U2526 O2527 2.454 . S
U2526 O2528 2.458 . S
U2526 C2529 2.984 . S
U2526 C2530 2.847 . S
U2526 C2543 2.882 . S
U2526 O2544 2.441 . S
U2526 O2545 2.420 . S
U2526 O2546 2.455 . S
U2526 O2547 2.449 . S
O2527 U2526 2.454 . S
O2527 C2529 1.353 . S
O2528 U2526 2.458 . S
O2528 C2529 1.286 . S
C2529 U2526 2.984 . S
C2529 O2527 1.353 . S
C2529 O2528 1.286 . S
C2529 C2531 1.363 . S
C2530 C2520 1.465 . S
C2530 U2526 2.847 . S
C2530 O2544 1.249 . S
C2530 O2545 1.202 . S
C2531 C2529 1.363 . S
C2531 C2533 1.408 . S
C2531 C2536 1.342 . S
C2532 C2533 1.310 . S
C2532 C2535 1.461 . S
C2532 H2552 0.932 . S
C2533 C2531 1.408 . S
C2533 C2532 1.310 . S
C2533 H2553 0.930 . S
C2534 C2535 1.474 . S
C2534 C2536 1.285 . S
C2534 H2554 0.929 . S
C2535 C2532 1.461 . S
C2535 C2534 1.474 . S
C2536 C2531 1.342 . S
C2536 C2534 1.285 . S
C2536 H2555 0.930 . S
C2537 C2540 1.424 . S
C2537 C2542 1.245 . S
C2537 C2543 1.428 . S
C2538 C2541 1.260 . S
C2538 C2542 1.477 . S
C2538 H2556 0.932 . S
C2539 C2540 1.384 . S
C2539 C2541 1.479 . S
C2539 H2557 0.929 . S
C2540 C2537 1.424 . S
C2540 C2539 1.384 . S
C2540 H2558 0.928 . S
C2541 C2538 1.260 . S
C2541 C2539 1.479 . S
C2542 C2537 1.245 . S
C2542 C2538 1.477 . S
C2542 H2559 0.932 . S
C2543 U2526 2.882 . S
C2543 C2537 1.428 . S
C2543 O2546 1.301 . S
C2543 O2547 1.282 . S
O2544 U2526 2.441 . S
O2544 C2530 1.249 . S
O2545 U2526 2.420 . S
O2545 C2530 1.202 . S
O2546 U2526 2.455 . S
O2546 C2543 1.301 . S
O2547 U2526 2.449 . S
O2547 C2543 1.282 . S
H2548 C2521 0.931 . S
H2549 C2523 0.929 . S
H2550 C2524 0.930 . S
H2551 C2525 0.931 . S
H2552 C2532 0.932 . S
H2553 C2533 0.930 . S
H2554 C2534 0.929 . S
H2555 C2536 0.930 . S
H2556 C2538 0.932 . S
H2557 C2539 0.929 . S
H2558 C2540 0.928 . S
H2559 C2542 0.932 . S
C2560 C2561 1.264 . S
C2560 C2565 1.479 . S
C2560 C2570 1.465 . S
C2561 C2560 1.264 . S
C2561 C2563 1.339 . S
C2561 H2588 0.931 . S
C2562 C2563 1.395 . S
C2562 C2564 1.320 . S
C2563 C2561 1.339 . S
C2563 C2562 1.395 . S
C2563 H2589 0.929 . S
C2564 C2562 1.320 . S
C2564 C2565 1.405 . S
C2564 H2590 0.930 . S
C2565 C2560 1.479 . S
C2565 C2564 1.405 . S
C2565 H2591 0.931 . S
U2566 O2567 2.454 . S
U2566 O2568 2.458 . S
U2566 C2569 2.984 . S
U2566 C2570 2.847 . S
U2566 C2583 2.882 . S
U2566 O2584 2.441 . S
U2566 O2585 2.420 . S
U2566 O2586 2.455 . S
U2566 O2587 2.449 . S
O2567 U2566 2.454 . S
O2567 C2569 1.353 . S
O2568 U2566 2.458 . S
O2568 C2569 1.286 . S
C2569 U2566 2.984 . S
C2569 O2567 1.353 . S
C2569 O2568 1.286 . S
C2569 C2571 1.363 . S
C2570 C2560 1.465 . S
C2570 U2566 2.847 . S
C2570 O2584 1.249 . S
C2570 O2585 1.202 . S
C2571 C2569 1.363 . S
C2571 C2573 1.408 . S
C2571 C2576 1.342 . S
C2572 C2573 1.310 . S
C2572 C2575 1.461 . S
C2572 H2592 0.932 . S
C2573 C2571 1.408 . S
C2573 C2572 1.310 . S
C2573 H2593 0.930 . S
C2574 C2575 1.474 . S
C2574 C2576 1.285 . S
C2574 H2594 0.929 . S
C2575 C2572 1.461 . S
C2575 C2574 1.474 . S
C2576 C2571 1.342 . S
C2576 C2574 1.285 . S
C2576 H2595 0.930 . S
C2577 C2580 1.424 . S
C2577 C2582 1.245 . S
C2577 C2583 1.428 . S
C2578 C2581 1.260 . S
C2578 C2582 1.477 . S
C2578 H2596 0.932 . S
C2579 C2580 1.384 . S
C2579 C2581 1.479 . S
C2579 H2597 0.929 . S
C2580 C2577 1.424 . S
C2580 C2579 1.384 . S
C2580 H2598 0.928 . S
C2581 C2578 1.260 . S
C2581 C2579 1.479 . S
C2582 C2577 1.245 . S
C2582 C2578 1.477 . S
C2582 H2599 0.932 . S
C2583 U2566 2.882 . S
C2583 C2577 1.428 . S
C2583 O2586 1.301 . S
C2583 O2587 1.282 . S
O2584 U2566 2.441 . S
O2584 C2570 1.249 . S
O2585 U2566 2.420 . S
O2585 C2570 1.202 . S
O2586 U2566 2.455 . S
O2586 C2583 1.301 . S
O2587 U2566 2.449 . S
O2587 C2583 1.282 . S
H2588 C2561 0.931 . S
H2589 C2563 0.929 . S
H2590 C2564 0.930 . S
H2591 C2565 0.931 . S
H2592 C2572 0.932 . S
H2593 C2573 0.930 . S
H2594 C2574 0.929 . S
H2595 C2576 0.930 . S
H2596 C2578 0.932 . S
H2597 C2579 0.929 . S
H2598 C2580 0.928 . S
H2599 C2582 0.932 . S
C2600 C2601 1.264 . S
C2600 C2605 1.479 . S
C2600 C2610 1.465 . S
C2601 C2600 1.264 . S
C2601 C2603 1.339 . S
C2601 H2628 0.931 . S
C2602 C2603 1.395 . S
C2602 C2604 1.320 . S
C2603 C2601 1.339 . S
C2603 C2602 1.395 . S
C2603 H2629 0.929 . S
C2604 C2602 1.320 . S
C2604 C2605 1.405 . S
C2604 H2630 0.930 . S
C2605 C2600 1.479 . S
C2605 C2604 1.405 . S
C2605 H2631 0.931 . S
U2606 O2607 2.454 . S
U2606 O2608 2.458 . S
U2606 C2609 2.984 . S
U2606 C2610 2.847 . S
U2606 C2623 2.882 . S
U2606 O2624 2.441 . S
U2606 O2625 2.420 . S
U2606 O2626 2.455 . S
U2606 O2627 2.449 . S
O2607 U2606 2.454 . S
O2607 C2609 1.353 . S
O2608 U2606 2.458 . S
O2608 C2609 1.286 . S
C2609 U2606 2.984 . S
C2609 O2607 1.353 . S
C2609 O2608 1.286 . S
C2609 C2611 1.363 . S
C2610 C2600 1.465 . S
C2610 U2606 2.847 . S
C2610 O2624 1.249 . S
C2610 O2625 1.202 . S
C2611 C2609 1.363 . S
C2611 C2613 1.408 . S
C2611 C2616 1.342 . S
C2612 C2613 1.310 . S
C2612 C2615 1.461 . S
C2612 H2632 0.932 . S
C2613 C2611 1.408 . S
C2613 C2612 1.310 . S
C2613 H2633 0.930 . S
C2614 C2615 1.474 . S
C2614 C2616 1.285 . S
C2614 H2634 0.929 . S
C2615 C2612 1.461 . S
C2615 C2614 1.474 . S
C2616 C2611 1.342 . S
C2616 C2614 1.285 . S
C2616 H2635 0.930 . S
C2617 C2620 1.424 . S
C2617 C2622 1.245 . S
C2617 C2623 1.428 . S
C2618 C2621 1.260 . S
C2618 C2622 1.477 . S
C2618 H2636 0.932 . S
C2619 C2620 1.384 . S
C2619 C2621 1.479 . S
C2619 H2637 0.929 . S
C2620 C2617 1.424 . S
C2620 C2619 1.384 . S
C2620 H2638 0.928 . S
C2621 C2618 1.260 . S
C2621 C2619 1.479 . S
C2622 C2617 1.245 . S
C2622 C2618 1.477 . S
C2622 H2639 0.932 . S
C2623 U2606 2.882 . S
C2623 C2617 1.428 . S
C2623 O2626 1.301 . S
C2623 O2627 1.282 . S
O2624 U2606 2.441 . S
O2624 C2610 1.249 . S
O2625 U2606 2.420 . S
O2625 C2610 1.202 . S
O2626 U2606 2.455 . S
O2626 C2623 1.301 . S
O2627 U2606 2.449 . S
O2627 C2623 1.282 . S
H2628 C2601 0.931 . S
H2629 C2603 0.929 . S
H2630 C2604 0.930 . S
H2631 C2605 0.931 . S
H2632 C2612 0.932 . S
H2633 C2613 0.930 . S
H2634 C2614 0.929 . S
H2635 C2616 0.930 . S
H2636 C2618 0.932 . S
H2637 C2619 0.929 . S
H2638 C2620 0.928 . S
H2639 C2622 0.932 . S
C2640 C2641 1.264 . S
C2640 C2645 1.479 . S
C2640 C2650 1.465 . S
C2641 C2640 1.264 . S
C2641 C2643 1.339 . S
C2641 H2668 0.931 . S
C2642 C2643 1.395 . S
C2642 C2644 1.320 . S
C2643 C2641 1.339 . S
C2643 C2642 1.395 . S
C2643 H2669 0.929 . S
C2644 C2642 1.320 . S
C2644 C2645 1.405 . S
C2644 H2670 0.930 . S
C2645 C2640 1.479 . S
C2645 C2644 1.405 . S
C2645 H2671 0.931 . S
U2646 O2647 2.454 . S
U2646 O2648 2.458 . S
U2646 C2649 2.984 . S
U2646 C2650 2.847 . S
U2646 C2663 2.882 . S
U2646 O2664 2.441 . S
U2646 O2665 2.420 . S
U2646 O2666 2.455 . S
U2646 O2667 2.449 . S
O2647 U2646 2.454 . S
O2647 C2649 1.353 . S
O2648 U2646 2.458 . S
O2648 C2649 1.286 . S
C2649 U2646 2.984 . S
C2649 O2647 1.353 . S
C2649 O2648 1.286 . S
C2649 C2651 1.363 . S
C2650 C2640 1.465 . S
C2650 U2646 2.847 . S
C2650 O2664 1.249 . S
C2650 O2665 1.202 . S
C2651 C2649 1.363 . S
C2651 C2653 1.408 . S
C2651 C2656 1.342 . S
C2652 C2653 1.310 . S
C2652 C2655 1.461 . S
C2652 H2672 0.932 . S
C2653 C2651 1.408 . S
C2653 C2652 1.310 . S
C2653 H2673 0.930 . S
C2654 C2655 1.474 . S
C2654 C2656 1.285 . S
C2654 H2674 0.929 . S
C2655 C2652 1.461 . S
C2655 C2654 1.474 . S
C2656 C2651 1.342 . S
C2656 C2654 1.285 . S
C2656 H2675 0.930 . S
C2657 C2660 1.424 . S
C2657 C2662 1.245 . S
C2657 C2663 1.428 . S
C2658 C2661 1.260 . S
C2658 C2662 1.477 . S
C2658 H2676 0.932 . S
C2659 C2660 1.384 . S
C2659 C2661 1.479 . S
C2659 H2677 0.929 . S
C2660 C2657 1.424 . S
C2660 C2659 1.384 . S
C2660 H2678 0.928 . S
C2661 C2658 1.260 . S
C2661 C2659 1.479 . S
C2662 C2657 1.245 . S
C2662 C2658 1.477 . S
C2662 H2679 0.932 . S
C2663 U2646 2.882 . S
C2663 C2657 1.428 . S
C2663 O2666 1.301 . S
C2663 O2667 1.282 . S
O2664 U2646 2.441 . S
O2664 C2650 1.249 . S
O2665 U2646 2.420 . S
O2665 C2650 1.202 . S
O2666 U2646 2.455 . S
O2666 C2663 1.301 . S
O2667 U2646 2.449 . S
O2667 C2663 1.282 . S
H2668 C2641 0.931 . S
H2669 C2643 0.929 . S
H2670 C2644 0.930 . S
H2671 C2645 0.931 . S
H2672 C2652 0.932 . S
H2673 C2653 0.930 . S
H2674 C2654 0.929 . S
H2675 C2656 0.930 . S
H2676 C2658 0.932 . S
H2677 C2659 0.929 . S
H2678 C2660 0.928 . S
H2679 C2662 0.932 . S
C2680 C2681 1.264 . S
C2680 C2685 1.479 . S
C2680 C2690 1.465 . S
C2681 C2680 1.264 . S
C2681 C2683 1.339 . S
C2681 H2708 0.931 . S
C2682 C2683 1.395 . S
C2682 C2684 1.320 . S
C2683 C2681 1.339 . S
C2683 C2682 1.395 . S
C2683 H2709 0.929 . S
C2684 C2682 1.320 . S
C2684 C2685 1.405 . S
C2684 H2710 0.930 . S
C2685 C2680 1.479 . S
C2685 C2684 1.405 . S
C2685 H2711 0.931 . S
U2686 O2687 2.454 . S
U2686 O2688 2.458 . S
U2686 C2689 2.984 . S
U2686 C2690 2.847 . S
U2686 C2703 2.882 . S
U2686 O2704 2.441 . S
U2686 O2705 2.420 . S
U2686 O2706 2.455 . S
U2686 O2707 2.449 . S
O2687 U2686 2.454 . S
O2687 C2689 1.353 . S
O2688 U2686 2.458 . S
O2688 C2689 1.286 . S
C2689 U2686 2.984 . S
C2689 O2687 1.353 . S
C2689 O2688 1.286 . S
C2689 C2691 1.363 . S
C2690 C2680 1.465 . S
C2690 U2686 2.847 . S
C2690 O2704 1.249 . S
C2690 O2705 1.202 . S
C2691 C2689 1.363 . S
C2691 C2693 1.408 . S
C2691 C2696 1.342 . S
C2692 C2693 1.310 . S
C2692 C2695 1.461 . S
C2692 H2712 0.932 . S
C2693 C2691 1.408 . S
C2693 C2692 1.310 . S
C2693 H2713 0.930 . S
C2694 C2695 1.474 . S
C2694 C2696 1.285 . S
C2694 H2714 0.929 . S
C2695 C2692 1.461 . S
C2695 C2694 1.474 . S
C2696 C2691 1.342 . S
C2696 C2694 1.285 . S
C2696 H2715 0.930 . S
C2697 C2700 1.424 . S
C2697 C2702 1.245 . S
C2697 C2703 1.428 . S
C2698 C2701 1.260 . S
C2698 C2702 1.477 . S
C2698 H2716 0.932 . S
C2699 C2700 1.384 . S
C2699 C2701 1.479 . S
C2699 H2717 0.929 . S
C2700 C2697 1.424 . S
C2700 C2699 1.384 . S
C2700 H2718 0.928 . S
C2701 C2698 1.260 . S
C2701 C2699 1.479 . S
C2702 C2697 1.245 . S
C2702 C2698 1.477 . S
C2702 H2719 0.932 . S
C2703 U2686 2.882 . S
C2703 C2697 1.428 . S
C2703 O2706 1.301 . S
C2703 O2707 1.282 . S
O2704 U2686 2.441 . S
O2704 C2690 1.249 . S
O2705 U2686 2.420 . S
O2705 C2690 1.202 . S
O2706 U2686 2.455 . S
O2706 C2703 1.301 . S
O2707 U2686 2.449 . S
O2707 C2703 1.282 . S
H2708 C2681 0.931 . S
H2709 C2683 0.929 . S
H2710 C2684 0.930 . S
H2711 C2685 0.931 . S
H2712 C2692 0.932 . S
H2713 C2693 0.930 . S
H2714 C2694 0.929 . S
H2715 C2696 0.930 . S
H2716 C2698 0.932 . S
H2717 C2699 0.929 . S
H2718 C2700 0.928 . S
H2719 C2702 0.932 . S
C2720 C2721 1.264 . S
C2720 C2725 1.479 . S
C2720 C2730 1.465 . S
C2721 C2720 1.264 . S
C2721 C2723 1.339 . S
C2721 H2748 0.931 . S
C2722 C2723 1.395 . S
C2722 C2724 1.320 . S
C2723 C2721 1.339 . S
C2723 C2722 1.395 . S
C2723 H2749 0.929 . S
C2724 C2722 1.320 . S
C2724 C2725 1.405 . S
C2724 H2750 0.930 . S
C2725 C2720 1.479 . S
C2725 C2724 1.405 . S
C2725 H2751 0.931 . S
U2726 O2727 2.454 . S
U2726 O2728 2.458 . S
U2726 C2729 2.984 . S
U2726 C2730 2.847 . S
U2726 C2743 2.882 . S
U2726 O2744 2.441 . S
U2726 O2745 2.420 . S
U2726 O2746 2.455 . S
U2726 O2747 2.449 . S
O2727 U2726 2.454 . S
O2727 C2729 1.353 . S
O2728 U2726 2.458 . S
O2728 C2729 1.286 . S
C2729 U2726 2.984 . S
C2729 O2727 1.353 . S
C2729 O2728 1.286 . S
C2729 C2731 1.363 . S
C2730 C2720 1.465 . S
C2730 U2726 2.847 . S
C2730 O2744 1.249 . S
C2730 O2745 1.202 . S
C2731 C2729 1.363 . S
C2731 C2733 1.408 . S
C2731 C2736 1.342 . S
C2732 C2733 1.310 . S
C2732 C2735 1.461 . S
C2732 H2752 0.932 . S
C2733 C2731 1.408 . S
C2733 C2732 1.310 . S
C2733 H2753 0.930 . S
C2734 C2735 1.474 . S
C2734 C2736 1.285 . S
C2734 H2754 0.929 . S
C2735 C2732 1.461 . S
C2735 C2734 1.474 . S
C2736 C2731 1.342 . S
C2736 C2734 1.285 . S
C2736 H2755 0.930 . S
C2737 C2740 1.424 . S
C2737 C2742 1.245 . S
C2737 C2743 1.428 . S
C2738 C2741 1.260 . S
C2738 C2742 1.477 . S
C2738 H2756 0.932 . S
C2739 C2740 1.384 . S
C2739 C2741 1.479 . S
C2739 H2757 0.929 . S
C2740 C2737 1.424 . S
C2740 C2739 1.384 . S
C2740 H2758 0.928 . S
C2741 C2738 1.260 . S
C2741 C2739 1.479 . S
C2742 C2737 1.245 . S
C2742 C2738 1.477 . S
C2742 H2759 0.932 . S
C2743 U2726 2.882 . S
C2743 C2737 1.428 . S
C2743 O2746 1.301 . S
C2743 O2747 1.282 . S
O2744 U2726 2.441 . S
O2744 C2730 1.249 . S
O2745 U2726 2.420 . S
O2745 C2730 1.202 . S
O2746 U2726 2.455 . S
O2746 C2743 1.301 . S
O2747 U2726 2.449 . S
O2747 C2743 1.282 . S
H2748 C2721 0.931 . S
H2749 C2723 0.929 . S
H2750 C2724 0.930 . S
H2751 C2725 0.931 . S
H2752 C2732 0.932 . S
H2753 C2733 0.930 . S
H2754 C2734 0.929 . S
H2755 C2736 0.930 . S
H2756 C2738 0.932 . S
H2757 C2739 0.929 . S
H2758 C2740 0.928 . S
H2759 C2742 0.932 . S
C2760 C2761 1.264 . S
C2760 C2765 1.479 . S
C2760 C2770 1.465 . S
C2761 C2760 1.264 . S
C2761 C2763 1.339 . S
C2761 H2788 0.931 . S
C2762 C2763 1.395 . S
C2762 C2764 1.320 . S
C2763 C2761 1.339 . S
C2763 C2762 1.395 . S
C2763 H2789 0.929 . S
C2764 C2762 1.320 . S
C2764 C2765 1.405 . S
C2764 H2790 0.930 . S
C2765 C2760 1.479 . S
C2765 C2764 1.405 . S
C2765 H2791 0.931 . S
U2766 O2767 2.454 . S
U2766 O2768 2.458 . S
U2766 C2769 2.984 . S
U2766 C2770 2.847 . S
U2766 C2783 2.882 . S
U2766 O2784 2.441 . S
U2766 O2785 2.420 . S
U2766 O2786 2.455 . S
U2766 O2787 2.449 . S
O2767 U2766 2.454 . S
O2767 C2769 1.353 . S
O2768 U2766 2.458 . S
O2768 C2769 1.286 . S
C2769 U2766 2.984 . S
C2769 O2767 1.353 . S
C2769 O2768 1.286 . S
C2769 C2771 1.363 . S
C2770 C2760 1.465 . S
C2770 U2766 2.847 . S
C2770 O2784 1.249 . S
C2770 O2785 1.202 . S
C2771 C2769 1.363 . S
C2771 C2773 1.408 . S
C2771 C2776 1.342 . S
C2772 C2773 1.310 . S
C2772 C2775 1.461 . S
C2772 H2792 0.932 . S
C2773 C2771 1.408 . S
C2773 C2772 1.310 . S
C2773 H2793 0.930 . S
C2774 C2775 1.474 . S
C2774 C2776 1.285 . S
C2774 H2794 0.929 . S
C2775 C2772 1.461 . S
C2775 C2774 1.474 . S
C2776 C2771 1.342 . S
C2776 C2774 1.285 . S
C2776 H2795 0.930 . S
C2777 C2780 1.424 . S
C2777 C2782 1.245 . S
C2777 C2783 1.428 . S
C2778 C2781 1.260 . S
C2778 C2782 1.477 . S
C2778 H2796 0.932 . S
C2779 C2780 1.384 . S
C2779 C2781 1.479 . S
C2779 H2797 0.929 . S
C2780 C2777 1.424 . S
C2780 C2779 1.384 . S
C2780 H2798 0.928 . S
C2781 C2778 1.260 . S
C2781 C2779 1.479 . S
C2782 C2777 1.245 . S
C2782 C2778 1.477 . S
C2782 H2799 0.932 . S
C2783 U2766 2.882 . S
C2783 C2777 1.428 . S
C2783 O2786 1.301 . S
C2783 O2787 1.282 . S
O2784 U2766 2.441 . S
O2784 C2770 1.249 . S
O2785 U2766 2.420 . S
O2785 C2770 1.202 . S
O2786 U2766 2.455 . S
O2786 C2783 1.301 . S
O2787 U2766 2.449 . S
O2787 C2783 1.282 . S
H2788 C2761 0.931 . S
H2789 C2763 0.929 . S
H2790 C2764 0.930 . S
H2791 C2765 0.931 . S
H2792 C2772 0.932 . S
H2793 C2773 0.930 . S
H2794 C2774 0.929 . S
H2795 C2776 0.930 . S
H2796 C2778 0.932 . S
H2797 C2779 0.929 . S
H2798 C2780 0.928 . S
H2799 C2782 0.932 . S
C2800 C2801 1.264 . S
C2800 C2805 1.479 . S
C2800 C2810 1.465 . S
C2801 C2800 1.264 . S
C2801 C2803 1.339 . S
C2801 H2828 0.931 . S
C2802 C2803 1.395 . S
C2802 C2804 1.320 . S
C2803 C2801 1.339 . S
C2803 C2802 1.395 . S
C2803 H2829 0.929 . S
C2804 C2802 1.320 . S
C2804 C2805 1.405 . S
C2804 H2830 0.930 . S
C2805 C2800 1.479 . S
C2805 C2804 1.405 . S
C2805 H2831 0.931 . S
U2806 O2807 2.454 . S
U2806 O2808 2.458 . S
U2806 C2809 2.984 . S
U2806 C2810 2.847 . S
U2806 C2823 2.882 . S
U2806 O2824 2.441 . S
U2806 O2825 2.420 . S
U2806 O2826 2.455 . S
U2806 O2827 2.449 . S
O2807 U2806 2.454 . S
O2807 C2809 1.353 . S
O2808 U2806 2.458 . S
O2808 C2809 1.286 . S
C2809 U2806 2.984 . S
C2809 O2807 1.353 . S
C2809 O2808 1.286 . S
C2809 C2811 1.363 . S
C2810 C2800 1.465 . S
C2810 U2806 2.847 . S
C2810 O2824 1.249 . S
C2810 O2825 1.202 . S
C2811 C2809 1.363 . S
C2811 C2813 1.408 . S
C2811 C2816 1.342 . S
C2812 C2813 1.310 . S
C2812 C2815 1.461 . S
C2812 H2832 0.932 . S
C2813 C2811 1.408 . S
C2813 C2812 1.310 . S
C2813 H2833 0.930 . S
C2814 C2815 1.474 . S
C2814 C2816 1.285 . S
C2814 H2834 0.929 . S
C2815 C2812 1.461 . S
C2815 C2814 1.474 . S
C2816 C2811 1.342 . S
C2816 C2814 1.285 . S
C2816 H2835 0.930 . S
C2817 C2820 1.424 . S
C2817 C2822 1.245 . S
C2817 C2823 1.428 . S
C2818 C2821 1.260 . S
C2818 C2822 1.477 . S
C2818 H2836 0.932 . S
C2819 C2820 1.384 . S
C2819 C2821 1.479 . S
C2819 H2837 0.929 . S
C2820 C2817 1.424 . S
C2820 C2819 1.384 . S
C2820 H2838 0.928 . S
C2821 C2818 1.260 . S
C2821 C2819 1.479 . S
C2822 C2817 1.245 . S
C2822 C2818 1.477 . S
C2822 H2839 0.932 . S
C2823 U2806 2.882 . S
C2823 C2817 1.428 . S
C2823 O2826 1.301 . S
C2823 O2827 1.282 . S
O2824 U2806 2.441 . S
O2824 C2810 1.249 . S
O2825 U2806 2.420 . S
O2825 C2810 1.202 . S
O2826 U2806 2.455 . S
O2826 C2823 1.301 . S
O2827 U2806 2.449 . S
O2827 C2823 1.282 . S
H2828 C2801 0.931 . S
H2829 C2803 0.929 . S
H2830 C2804 0.930 . S
H2831 C2805 0.931 . S
H2832 C2812 0.932 . S
H2833 C2813 0.930 . S
H2834 C2814 0.929 . S
H2835 C2816 0.930 . S
H2836 C2818 0.932 . S
H2837 C2819 0.929 . S
H2838 C2820 0.928 . S
H2839 C2822 0.932 . S
C2840 C2841 1.264 . S
C2840 C2845 1.479 . S
C2840 C2850 1.465 . S
C2841 C2840 1.264 . S
C2841 C2843 1.339 . S
C2841 H2868 0.931 . S
C2842 C2843 1.395 . S
C2842 C2844 1.320 . S
C2843 C2841 1.339 . S
C2843 C2842 1.395 . S
C2843 H2869 0.929 . S
C2844 C2842 1.320 . S
C2844 C2845 1.405 . S
C2844 H2870 0.930 . S
C2845 C2840 1.479 . S
C2845 C2844 1.405 . S
C2845 H2871 0.931 . S
U2846 O2847 2.454 . S
U2846 O2848 2.458 . S
U2846 C2849 2.984 . S
U2846 C2850 2.847 . S
U2846 C2863 2.882 . S
U2846 O2864 2.441 . S
U2846 O2865 2.420 . S
U2846 O2866 2.455 . S
U2846 O2867 2.449 . S
O2847 U2846 2.454 . S
O2847 C2849 1.353 . S
O2848 U2846 2.458 . S
O2848 C2849 1.286 . S
C2849 U2846 2.984 . S
C2849 O2847 1.353 . S
C2849 O2848 1.286 . S
C2849 C2851 1.363 . S
C2850 C2840 1.465 . S
C2850 U2846 2.847 . S
C2850 O2864 1.249 . S
C2850 O2865 1.202 . S
C2851 C2849 1.363 . S
C2851 C2853 1.408 . S
C2851 C2856 1.342 . S
C2852 C2853 1.310 . S
C2852 C2855 1.461 . S
C2852 H2872 0.932 . S
C2853 C2851 1.408 . S
C2853 C2852 1.310 . S
C2853 H2873 0.930 . S
C2854 C2855 1.474 . S
C2854 C2856 1.285 . S
C2854 H2874 0.929 . S
C2855 C2852 1.461 . S
C2855 C2854 1.474 . S
C2856 C2851 1.342 . S
C2856 C2854 1.285 . S
C2856 H2875 0.930 . S
C2857 C2860 1.424 . S
C2857 C2862 1.245 . S
C2857 C2863 1.428 . S
C2858 C2861 1.260 . S
C2858 C2862 1.477 . S
C2858 H2876 0.932 . S
C2859 C2860 1.384 . S
C2859 C2861 1.479 . S
C2859 H2877 0.929 . S
C2860 C2857 1.424 . S
C2860 C2859 1.384 . S
C2860 H2878 0.928 . S
C2861 C2858 1.260 . S
C2861 C2859 1.479 . S
C2862 C2857 1.245 . S
C2862 C2858 1.477 . S
C2862 H2879 0.932 . S
C2863 U2846 2.882 . S
C2863 C2857 1.428 . S
C2863 O2866 1.301 . S
C2863 O2867 1.282 . S
O2864 U2846 2.441 . S
O2864 C2850 1.249 . S
O2865 U2846 2.420 . S
O2865 C2850 1.202 . S
O2866 U2846 2.455 . S
O2866 C2863 1.301 . S
O2867 U2846 2.449 . S
O2867 C2863 1.282 . S
H2868 C2841 0.931 . S
H2869 C2843 0.929 . S
H2870 C2844 0.930 . S
H2871 C2845 0.931 . S
H2872 C2852 0.932 . S
H2873 C2853 0.930 . S
H2874 C2854 0.929 . S
H2875 C2856 0.930 . S
H2876 C2858 0.932 . S
H2877 C2859 0.929 . S
H2878 C2860 0.928 . S
H2879 C2862 0.932 . S
C2880 C2881 1.264 . S
C2880 C2885 1.479 . S
C2880 C2890 1.465 . S
C2881 C2880 1.264 . S
C2881 C2883 1.339 . S
C2881 H2908 0.931 . S
C2882 C2883 1.395 . S
C2882 C2884 1.320 . S
C2883 C2881 1.339 . S
C2883 C2882 1.395 . S
C2883 H2909 0.929 . S
C2884 C2882 1.320 . S
C2884 C2885 1.405 . S
C2884 H2910 0.930 . S
C2885 C2880 1.479 . S
C2885 C2884 1.405 . S
C2885 H2911 0.931 . S
U2886 O2887 2.454 . S
U2886 O2888 2.458 . S
U2886 C2889 2.984 . S
U2886 C2890 2.847 . S
U2886 C2903 2.882 . S
U2886 O2904 2.441 . S
U2886 O2905 2.420 . S
U2886 O2906 2.455 . S
U2886 O2907 2.449 . S
O2887 U2886 2.454 . S
O2887 C2889 1.353 . S
O2888 U2886 2.458 . S
O2888 C2889 1.286 . S
C2889 U2886 2.984 . S
C2889 O2887 1.353 . S
C2889 O2888 1.286 . S
C2889 C2891 1.363 . S
C2890 C2880 1.465 . S
C2890 U2886 2.847 . S
C2890 O2904 1.249 . S
C2890 O2905 1.202 . S
C2891 C2889 1.363 . S
C2891 C2893 1.408 . S
C2891 C2896 1.342 . S
C2892 C2893 1.310 . S
C2892 C2895 1.461 . S
C2892 H2912 0.932 . S
C2893 C2891 1.408 . S
C2893 C2892 1.310 . S
C2893 H2913 0.930 . S
C2894 C2895 1.474 . S
C2894 C2896 1.285 . S
C2894 H2914 0.929 . S
C2895 C2892 1.461 . S
C2895 C2894 1.474 . S
C2896 C2891 1.342 . S
C2896 C2894 1.285 . S
C2896 H2915 0.930 . S
C2897 C2900 1.424 . S
C2897 C2902 1.245 . S
C2897 C2903 1.428 . S
C2898 C2901 1.260 . S
C2898 C2902 1.477 . S
C2898 H2916 0.932 . S
C2899 C2900 1.384 . S
C2899 C2901 1.479 . S
C2899 H2917 0.929 . S
C2900 C2897 1.424 . S
C2900 C2899 1.384 . S
C2900 H2918 0.928 . S
C2901 C2898 1.260 . S
C2901 C2899 1.479 . S
C2902 C2897 1.245 . S
C2902 C2898 1.477 . S
C2902 H2919 0.932 . S
C2903 U2886 2.882 . S
C2903 C2897 1.428 . S
C2903 O2906 1.301 . S
C2903 O2907 1.282 . S
O2904 U2886 2.441 . S
O2904 C2890 1.249 . S
O2905 U2886 2.420 . S
O2905 C2890 1.202 . S
O2906 U2886 2.455 . S
O2906 C2903 1.301 . S
O2907 U2886 2.449 . S
O2907 C2903 1.282 . S
H2908 C2881 0.931 . S
H2909 C2883 0.929 . S
H2910 C2884 0.930 . S
H2911 C2885 0.931 . S
H2912 C2892 0.932 . S
H2913 C2893 0.930 . S
H2914 C2894 0.929 . S
H2915 C2896 0.930 . S
H2916 C2898 0.932 . S
H2917 C2899 0.929 . S
H2918 C2900 0.928 . S
H2919 C2902 0.932 . S
C2920 C2921 1.264 . S
C2920 C2925 1.479 . S
C2920 C2930 1.465 . S
C2921 C2920 1.264 . S
C2921 C2923 1.339 . S
C2921 H2948 0.931 . S
C2922 C2923 1.395 . S
C2922 C2924 1.320 . S
C2923 C2921 1.339 . S
C2923 C2922 1.395 . S
C2923 H2949 0.929 . S
C2924 C2922 1.320 . S
C2924 C2925 1.405 . S
C2924 H2950 0.930 . S
C2925 C2920 1.479 . S
C2925 C2924 1.405 . S
C2925 H2951 0.931 . S
U2926 O2927 2.454 . S
U2926 O2928 2.458 . S
U2926 C2929 2.984 . S
U2926 C2930 2.847 . S
U2926 C2943 2.882 . S
U2926 O2944 2.441 . S
U2926 O2945 2.420 . S
U2926 O2946 2.455 . S
U2926 O2947 2.449 . S
O2927 U2926 2.454 . S
O2927 C2929 1.353 . S
O2928 U2926 2.458 . S
O2928 C2929 1.286 . S
C2929 U2926 2.984 . S
C2929 O2927 1.353 . S
C2929 O2928 1.286 . S
C2929 C2931 1.363 . S
C2930 C2920 1.465 . S
C2930 U2926 2.847 . S
C2930 O2944 1.249 . S
C2930 O2945 1.202 . S
C2931 C2929 1.363 . S
C2931 C2933 1.408 . S
C2931 C2936 1.342 . S
C2932 C2933 1.310 . S
C2932 C2935 1.461 . S
C2932 H2952 0.932 . S
C2933 C2931 1.408 . S
C2933 C2932 1.310 . S
C2933 H2953 0.930 . S
C2934 C2935 1.474 . S
C2934 C2936 1.285 . S
C2934 H2954 0.929 . S
C2935 C2932 1.461 . S
C2935 C2934 1.474 . S
C2936 C2931 1.342 . S
C2936 C2934 1.285 . S
C2936 H2955 0.930 . S
C2937 C2940 1.424 . S
C2937 C2942 1.245 . S
C2937 C2943 1.428 . S
C2938 C2941 1.260 . S
C2938 C2942 1.477 . S
C2938 H2956 0.932 . S
C2939 C2940 1.384 . S
C2939 C2941 1.479 . S
C2939 H2957 0.929 . S
C2940 C2937 1.424 . S
C2940 C2939 1.384 . S
C2940 H2958 0.928 . S
C2941 C2938 1.260 . S
C2941 C2939 1.479 . S
C2942 C2937 1.245 . S
C2942 C2938 1.477 . S
C2942 H2959 0.932 . S
C2943 U2926 2.882 . S
C2943 C2937 1.428 . S
C2943 O2946 1.301 . S
C2943 O2947 1.282 . S
O2944 U2926 2.441 . S
O2944 C2930 1.249 . S
O2945 U2926 2.420 . S
O2945 C2930 1.202 . S
O2946 U2926 2.455 . S
O2946 C2943 1.301 . S
O2947 U2926 2.449 . S
O2947 C2943 1.282 . S
H2948 C2921 0.931 . S
H2949 C2923 0.929 . S
H2950 C2924 0.930 . S
H2951 C2925 0.931 . S
H2952 C2932 0.932 . S
H2953 C2933 0.930 . S
H2954 C2934 0.929 . S
H2955 C2936 0.930 . S
H2956 C2938 0.932 . S
H2957 C2939 0.929 . S
H2958 C2940 0.928 . S
H2959 C2942 0.932 . S
C2960 C2961 1.264 . S
C2960 C2965 1.479 . S
C2960 C2970 1.465 . S
C2961 C2960 1.264 . S
C2961 C2963 1.339 . S
C2961 H2988 0.931 . S
C2962 C2963 1.395 . S
C2962 C2964 1.320 . S
C2963 C2961 1.339 . S
C2963 C2962 1.395 . S
C2963 H2989 0.929 . S
C2964 C2962 1.320 . S
C2964 C2965 1.405 . S
C2964 H2990 0.930 . S
C2965 C2960 1.479 . S
C2965 C2964 1.405 . S
C2965 H2991 0.931 . S
U2966 O2967 2.454 . S
U2966 O2968 2.458 . S
U2966 C2969 2.984 . S
U2966 C2970 2.847 . S
U2966 C2983 2.882 . S
U2966 O2984 2.441 . S
U2966 O2985 2.420 . S
U2966 O2986 2.455 . S
U2966 O2987 2.449 . S
O2967 U2966 2.454 . S
O2967 C2969 1.353 . S
O2968 U2966 2.458 . S
O2968 C2969 1.286 . S
C2969 U2966 2.984 . S
C2969 O2967 1.353 . S
C2969 O2968 1.286 . S
C2969 C2971 1.363 . S
C2970 C2960 1.465 . S
C2970 U2966 2.847 . S
C2970 O2984 1.249 . S
C2970 O2985 1.202 . S
C2971 C2969 1.363 . S
C2971 C2973 1.408 . S
C2971 C2976 1.342 . S
C2972 C2973 1.310 . S
C2972 C2975 1.461 . S
C2972 H2992 0.932 . S
C2973 C2971 1.408 . S
C2973 C2972 1.310 . S
C2973 H2993 0.930 . S
C2974 C2975 1.474 . S
C2974 C2976 1.285 . S
C2974 H2994 0.929 . S
C2975 C2972 1.461 . S
C2975 C2974 1.474 . S
C2976 C2971 1.342 . S
C2976 C2974 1.285 . S
C2976 H2995 0.930 . S
C2977 C2980 1.424 . S
C2977 C2982 1.245 . S
C2977 C2983 1.428 . S
C2978 C2981 1.260 . S
C2978 C2982 1.477 . S
C2978 H2996 0.932 . S
C2979 C2980 1.384 . S
C2979 C2981 1.479 . S
C2979 H2997 0.929 . S
C2980 C2977 1.424 . S
C2980 C2979 1.384 . S
C2980 H2998 0.928 . S
C2981 C2978 1.260 . S
C2981 C2979 1.479 . S
C2982 C2977 1.245 . S
C2982 C2978 1.477 . S
C2982 H2999 0.932 . S
C2983 U2966 2.882 . S
C2983 C2977 1.428 . S
C2983 O2986 1.301 . S
C2983 O2987 1.282 . S
O2984 U2966 2.441 . S
O2984 C2970 1.249 . S
O2985 U2966 2.420 . S
O2985 C2970 1.202 . S
O2986 U2966 2.455 . S
O2986 C2983 1.301 . S
O2987 U2966 2.449 . S
O2987 C2983 1.282 . S
H2988 C2961 0.931 . S
H2989 C2963 0.929 . S
H2990 C2964 0.930 . S
H2991 C2965 0.931 . S
H2992 C2972 0.932 . S
H2993 C2973 0.930 . S
H2994 C2974 0.929 . S
H2995 C2976 0.930 . S
H2996 C2978 0.932 . S
H2997 C2979 0.929 . S
H2998 C2980 0.928 . S
H2999 C2982 0.932 . S
C3000 C3001 1.264 . S
C3000 C3005 1.479 . S
C3000 C3010 1.465 . S
C3001 C3000 1.264 . S
C3001 C3003 1.339 . S
C3001 H3028 0.931 . S
C3002 C3003 1.395 . S
C3002 C3004 1.320 . S
C3003 C3001 1.339 . S
C3003 C3002 1.395 . S
C3003 H3029 0.929 . S
C3004 C3002 1.320 . S
C3004 C3005 1.405 . S
C3004 H3030 0.930 . S
C3005 C3000 1.479 . S
C3005 C3004 1.405 . S
C3005 H3031 0.931 . S
U3006 O3007 2.454 . S
U3006 O3008 2.458 . S
U3006 C3009 2.984 . S
U3006 C3010 2.847 . S
U3006 C3023 2.882 . S
U3006 O3024 2.441 . S
U3006 O3025 2.420 . S
U3006 O3026 2.455 . S
U3006 O3027 2.449 . S
O3007 U3006 2.454 . S
O3007 C3009 1.353 . S
O3008 U3006 2.458 . S
O3008 C3009 1.286 . S
C3009 U3006 2.984 . S
C3009 O3007 1.353 . S
C3009 O3008 1.286 . S
C3009 C3011 1.363 . S
C3010 C3000 1.465 . S
C3010 U3006 2.847 . S
C3010 O3024 1.249 . S
C3010 O3025 1.202 . S
C3011 C3009 1.363 . S
C3011 C3013 1.408 . S
C3011 C3016 1.342 . S
C3012 C3013 1.310 . S
C3012 C3015 1.461 . S
C3012 H3032 0.932 . S
C3013 C3011 1.408 . S
C3013 C3012 1.310 . S
C3013 H3033 0.930 . S
C3014 C3015 1.474 . S
C3014 C3016 1.285 . S
C3014 H3034 0.929 . S
C3015 C3012 1.461 . S
C3015 C3014 1.474 . S
C3016 C3011 1.342 . S
C3016 C3014 1.285 . S
C3016 H3035 0.930 . S
C3017 C3020 1.424 . S
C3017 C3022 1.245 . S
C3017 C3023 1.428 . S
C3018 C3021 1.260 . S
C3018 C3022 1.477 . S
C3018 H3036 0.932 . S
C3019 C3020 1.384 . S
C3019 C3021 1.479 . S
C3019 H3037 0.929 . S
C3020 C3017 1.424 . S
C3020 C3019 1.384 . S
C3020 H3038 0.928 . S
C3021 C3018 1.260 . S
C3021 C3019 1.479 . S
C3022 C3017 1.245 . S
C3022 C3018 1.477 . S
C3022 H3039 0.932 . S
C3023 U3006 2.882 . S
C3023 C3017 1.428 . S
C3023 O3026 1.301 . S
C3023 O3027 1.282 . S
O3024 U3006 2.441 . S
O3024 C3010 1.249 . S
O3025 U3006 2.420 . S
O3025 C3010 1.202 . S
O3026 U3006 2.455 . S
O3026 C3023 1.301 . S
O3027 U3006 2.449 . S
O3027 C3023 1.282 . S
H3028 C3001 0.931 . S
H3029 C3003 0.929 . S
H3030 C3004 0.930 . S
H3031 C3005 0.931 . S
H3032 C3012 0.932 . S
H3033 C3013 0.930 . S
H3034 C3014 0.929 . S
H3035 C3016 0.930 . S
H3036 C3018 0.932 . S
H3037 C3019 0.929 . S
H3038 C3020 0.928 . S
H3039 C3022 0.932 . S
C3040 C3041 1.264 . S
C3040 C3045 1.479 . S
C3040 C3050 1.465 . S
C3041 C3040 1.264 . S
C3041 C3043 1.339 . S
C3041 H3068 0.931 . S
C3042 C3043 1.395 . S
C3042 C3044 1.320 . S
C3043 C3041 1.339 . S
C3043 C3042 1.395 . S
C3043 H3069 0.929 . S
C3044 C3042 1.320 . S
C3044 C3045 1.405 . S
C3044 H3070 0.930 . S
C3045 C3040 1.479 . S
C3045 C3044 1.405 . S
C3045 H3071 0.931 . S
U3046 O3047 2.454 . S
U3046 O3048 2.458 . S
U3046 C3049 2.984 . S
U3046 C3050 2.847 . S
U3046 C3063 2.882 . S
U3046 O3064 2.441 . S
U3046 O3065 2.420 . S
U3046 O3066 2.455 . S
U3046 O3067 2.449 . S
O3047 U3046 2.454 . S
O3047 C3049 1.353 . S
O3048 U3046 2.458 . S
O3048 C3049 1.286 . S
C3049 U3046 2.984 . S
C3049 O3047 1.353 . S
C3049 O3048 1.286 . S
C3049 C3051 1.363 . S
C3050 C3040 1.465 . S
C3050 U3046 2.847 . S
C3050 O3064 1.249 . S
C3050 O3065 1.202 . S
C3051 C3049 1.363 . S
C3051 C3053 1.408 . S
C3051 C3056 1.342 . S
C3052 C3053 1.310 . S
C3052 C3055 1.461 . S
C3052 H3072 0.932 . S
C3053 C3051 1.408 . S
C3053 C3052 1.310 . S
C3053 H3073 0.930 . S
C3054 C3055 1.474 . S
C3054 C3056 1.285 . S
C3054 H3074 0.929 . S
C3055 C3052 1.461 . S
C3055 C3054 1.474 . S
C3056 C3051 1.342 . S
C3056 C3054 1.285 . S
C3056 H3075 0.930 . S
C3057 C3060 1.424 . S
C3057 C3062 1.245 . S
C3057 C3063 1.428 . S
C3058 C3061 1.260 . S
C3058 C3062 1.477 . S
C3058 H3076 0.932 . S
C3059 C3060 1.384 . S
C3059 C3061 1.479 . S
C3059 H3077 0.929 . S
C3060 C3057 1.424 . S
C3060 C3059 1.384 . S
C3060 H3078 0.928 . S
C3061 C3058 1.260 . S
C3061 C3059 1.479 . S
C3062 C3057 1.245 . S
C3062 C3058 1.477 . S
C3062 H3079 0.932 . S
C3063 U3046 2.882 . S
C3063 C3057 1.428 . S
C3063 O3066 1.301 . S
C3063 O3067 1.282 . S
O3064 U3046 2.441 . S
O3064 C3050 1.249 . S
O3065 U3046 2.420 . S
O3065 C3050 1.202 . S
O3066 U3046 2.455 . S
O3066 C3063 1.301 . S
O3067 U3046 2.449 . S
O3067 C3063 1.282 . S
H3068 C3041 0.931 . S
H3069 C3043 0.929 . S
H3070 C3044 0.930 . S
H3071 C3045 0.931 . S
H3072 C3052 0.932 . S
H3073 C3053 0.930 . S
H3074 C3054 0.929 . S
H3075 C3056 0.930 . S
H3076 C3058 0.932 . S
H3077 C3059 0.929 . S
H3078 C3060 0.928 . S
H3079 C3062 0.932 . S
C3080 C3081 1.264 . S
C3080 C3085 1.479 . S
C3080 C3090 1.465 . S
C3081 C3080 1.264 . S
C3081 C3083 1.339 . S
C3081 H3108 0.931 . S
C3082 C3083 1.395 . S
C3082 C3084 1.320 . S
C3083 C3081 1.339 . S
C3083 C3082 1.395 . S
C3083 H3109 0.929 . S
C3084 C3082 1.320 . S
C3084 C3085 1.405 . S
C3084 H3110 0.930 . S
C3085 C3080 1.479 . S
C3085 C3084 1.405 . S
C3085 H3111 0.931 . S
U3086 O3087 2.454 . S
U3086 O3088 2.458 . S
U3086 C3089 2.984 . S
U3086 C3090 2.847 . S
U3086 C3103 2.882 . S
U3086 O3104 2.441 . S
U3086 O3105 2.420 . S
U3086 O3106 2.455 . S
U3086 O3107 2.449 . S
O3087 U3086 2.454 . S
O3087 C3089 1.353 . S
O3088 U3086 2.458 . S
O3088 C3089 1.286 . S
C3089 U3086 2.984 . S
C3089 O3087 1.353 . S
C3089 O3088 1.286 . S
C3089 C3091 1.363 . S
C3090 C3080 1.465 . S
C3090 U3086 2.847 . S
C3090 O3104 1.249 . S
C3090 O3105 1.202 . S
C3091 C3089 1.363 . S
C3091 C3093 1.408 . S
C3091 C3096 1.342 . S
C3092 C3093 1.310 . S
C3092 C3095 1.461 . S
C3092 H3112 0.932 . S
C3093 C3091 1.408 . S
C3093 C3092 1.310 . S
C3093 H3113 0.930 . S
C3094 C3095 1.474 . S
C3094 C3096 1.285 . S
C3094 H3114 0.929 . S
C3095 C3092 1.461 . S
C3095 C3094 1.474 . S
C3096 C3091 1.342 . S
C3096 C3094 1.285 . S
C3096 H3115 0.930 . S
C3097 C3100 1.424 . S
C3097 C3102 1.245 . S
C3097 C3103 1.428 . S
C3098 C3101 1.260 . S
C3098 C3102 1.477 . S
C3098 H3116 0.932 . S
C3099 C3100 1.384 . S
C3099 C3101 1.479 . S
C3099 H3117 0.929 . S
C3100 C3097 1.424 . S
C3100 C3099 1.384 . S
C3100 H3118 0.928 . S
C3101 C3098 1.260 . S
C3101 C3099 1.479 . S
C3102 C3097 1.245 . S
C3102 C3098 1.477 . S
C3102 H3119 0.932 . S
C3103 U3086 2.882 . S
C3103 C3097 1.428 . S
C3103 O3106 1.301 . S
C3103 O3107 1.282 . S
O3104 U3086 2.441 . S
O3104 C3090 1.249 . S
O3105 U3086 2.420 . S
O3105 C3090 1.202 . S
O3106 U3086 2.455 . S
O3106 C3103 1.301 . S
O3107 U3086 2.449 . S
O3107 C3103 1.282 . S
H3108 C3081 0.931 . S
H3109 C3083 0.929 . S
H3110 C3084 0.930 . S
H3111 C3085 0.931 . S
H3112 C3092 0.932 . S
H3113 C3093 0.930 . S
H3114 C3094 0.929 . S
H3115 C3096 0.930 . S
H3116 C3098 0.932 . S
H3117 C3099 0.929 . S
H3118 C3100 0.928 . S
H3119 C3102 0.932 . S
C3120 C3121 1.264 . S
C3120 C3125 1.479 . S
C3120 C3130 1.465 . S
C3121 C3120 1.264 . S
C3121 C3123 1.339 . S
C3121 H3148 0.931 . S
C3122 C3123 1.395 . S
C3122 C3124 1.320 . S
C3123 C3121 1.339 . S
C3123 C3122 1.395 . S
C3123 H3149 0.929 . S
C3124 C3122 1.320 . S
C3124 C3125 1.405 . S
C3124 H3150 0.930 . S
C3125 C3120 1.479 . S
C3125 C3124 1.405 . S
C3125 H3151 0.931 . S
U3126 O3127 2.454 . S
U3126 O3128 2.458 . S
U3126 C3129 2.984 . S
U3126 C3130 2.847 . S
U3126 C3143 2.882 . S
U3126 O3144 2.441 . S
U3126 O3145 2.420 . S
U3126 O3146 2.455 . S
U3126 O3147 2.449 . S
O3127 U3126 2.454 . S
O3127 C3129 1.353 . S
O3128 U3126 2.458 . S
O3128 C3129 1.286 . S
C3129 U3126 2.984 . S
C3129 O3127 1.353 . S
C3129 O3128 1.286 . S
C3129 C3131 1.363 . S
C3130 C3120 1.465 . S
C3130 U3126 2.847 . S
C3130 O3144 1.249 . S
C3130 O3145 1.202 . S
C3131 C3129 1.363 . S
C3131 C3133 1.408 . S
C3131 C3136 1.342 . S
C3132 C3133 1.310 . S
C3132 C3135 1.461 . S
C3132 H3152 0.932 . S
C3133 C3131 1.408 . S
C3133 C3132 1.310 . S
C3133 H3153 0.930 . S
C3134 C3135 1.474 . S
C3134 C3136 1.285 . S
C3134 H3154 0.929 . S
C3135 C3132 1.461 . S
C3135 C3134 1.474 . S
C3136 C3131 1.342 . S
C3136 C3134 1.285 . S
C3136 H3155 0.930 . S
C3137 C3140 1.424 . S
C3137 C3142 1.245 . S
C3137 C3143 1.428 . S
C3138 C3141 1.260 . S
C3138 C3142 1.477 . S
C3138 H3156 0.932 . S
C3139 C3140 1.384 . S
C3139 C3141 1.479 . S
C3139 H3157 0.929 . S
C3140 C3137 1.424 . S
C3140 C3139 1.384 . S
C3140 H3158 0.928 . S
C3141 C3138 1.260 . S
C3141 C3139 1.479 . S
C3142 C3137 1.245 . S
C3142 C3138 1.477 . S
C3142 H3159 0.932 . S
C3143 U3126 2.882 . S
C3143 C3137 1.428 . S
C3143 O3146 1.301 . S
C3143 O3147 1.282 . S
O3144 U3126 2.441 . S
O3144 C3130 1.249 . S
O3145 U3126 2.420 . S
O3145 C3130 1.202 . S
O3146 U3126 2.455 . S
O3146 C3143 1.301 . S
O3147 U3126 2.449 . S
O3147 C3143 1.282 . S
H3148 C3121 0.931 . S
H3149 C3123 0.929 . S
H3150 C3124 0.930 . S
H3151 C3125 0.931 . S
H3152 C3132 0.932 . S
H3153 C3133 0.930 . S
H3154 C3134 0.929 . S
H3155 C3136 0.930 . S
H3156 C3138 0.932 . S
H3157 C3139 0.929 . S
H3158 C3140 0.928 . S
H3159 C3142 0.932 . S
C3160 C3161 1.264 . S
C3160 C3165 1.479 . S
C3160 C3170 1.465 . S
C3161 C3160 1.264 . S
C3161 C3163 1.339 . S
C3161 H3188 0.931 . S
C3162 C3163 1.395 . S
C3162 C3164 1.320 . S
C3163 C3161 1.339 . S
C3163 C3162 1.395 . S
C3163 H3189 0.929 . S
C3164 C3162 1.320 . S
C3164 C3165 1.405 . S
C3164 H3190 0.930 . S
C3165 C3160 1.479 . S
C3165 C3164 1.405 . S
C3165 H3191 0.931 . S
U3166 O3167 2.454 . S
U3166 O3168 2.458 . S
U3166 C3169 2.984 . S
U3166 C3170 2.847 . S
U3166 C3183 2.882 . S
U3166 O3184 2.441 . S
U3166 O3185 2.420 . S
U3166 O3186 2.455 . S
U3166 O3187 2.449 . S
O3167 U3166 2.454 . S
O3167 C3169 1.353 . S
O3168 U3166 2.458 . S
O3168 C3169 1.286 . S
C3169 U3166 2.984 . S
C3169 O3167 1.353 . S
C3169 O3168 1.286 . S
C3169 C3171 1.363 . S
C3170 C3160 1.465 . S
C3170 U3166 2.847 . S
C3170 O3184 1.249 . S
C3170 O3185 1.202 . S
C3171 C3169 1.363 . S
C3171 C3173 1.408 . S
C3171 C3176 1.342 . S
C3172 C3173 1.310 . S
C3172 C3175 1.461 . S
C3172 H3192 0.932 . S
C3173 C3171 1.408 . S
C3173 C3172 1.310 . S
C3173 H3193 0.930 . S
C3174 C3175 1.474 . S
C3174 C3176 1.285 . S
C3174 H3194 0.929 . S
C3175 C3172 1.461 . S
C3175 C3174 1.474 . S
C3176 C3171 1.342 . S
C3176 C3174 1.285 . S
C3176 H3195 0.930 . S
C3177 C3180 1.424 . S
C3177 C3182 1.245 . S
C3177 C3183 1.428 . S
C3178 C3181 1.260 . S
C3178 C3182 1.477 . S
C3178 H3196 0.932 . S
C3179 C3180 1.384 . S
C3179 C3181 1.479 . S
C3179 H3197 0.929 . S
C3180 C3177 1.424 . S
C3180 C3179 1.384 . S
C3180 H3198 0.928 . S
C3181 C3178 1.260 . S
C3181 C3179 1.479 . S
C3182 C3177 1.245 . S
C3182 C3178 1.477 . S
C3182 H3199 0.932 . S
C3183 U3166 2.882 . S
C3183 C3177 1.428 . S
C3183 O3186 1.301 . S
C3183 O3187 1.282 . S
O3184 U3166 2.441 . S
O3184 C3170 1.249 . S
O3185 U3166 2.420 . S
O3185 C3170 1.202 . S
O3186 U3166 2.455 . S
O3186 C3183 1.301 . S
O3187 U3166 2.449 . S
O3187 C3183 1.282 . S
H3188 C3161 0.931 . S
H3189 C3163 0.929 . S
H3190 C3164 0.930 . S
H3191 C3165 0.931 . S
H3192 C3172 0.932 . S
H3193 C3173 0.930 . S
H3194 C3174 0.929 . S
H3195 C3176 0.930 . S
H3196 C3178 0.932 . S
H3197 C3179 0.929 . S
H3198 C3180 0.928 . S
H3199 C3182 0.932 . S
C3200 C3201 1.264 . S
C3200 C3205 1.479 . S
C3200 C3210 1.465 . S
C3201 C3200 1.264 . S
C3201 C3203 1.339 . S
C3201 H3228 0.931 . S
C3202 C3203 1.395 . S
C3202 C3204 1.320 . S
C3203 C3201 1.339 . S
C3203 C3202 1.395 . S
C3203 H3229 0.929 . S
C3204 C3202 1.320 . S
C3204 C3205 1.405 . S
C3204 H3230 0.930 . S
C3205 C3200 1.479 . S
C3205 C3204 1.405 . S
C3205 H3231 0.931 . S
U3206 O3207 2.454 . S
U3206 O3208 2.458 . S
U3206 C3209 2.984 . S
U3206 C3210 2.847 . S
U3206 C3223 2.882 . S
U3206 O3224 2.441 . S
U3206 O3225 2.420 . S
U3206 O3226 2.455 . S
U3206 O3227 2.449 . S
O3207 U3206 2.454 . S
O3207 C3209 1.353 . S
O3208 U3206 2.458 . S
O3208 C3209 1.286 . S
C3209 U3206 2.984 . S
C3209 O3207 1.353 . S
C3209 O3208 1.286 . S
C3209 C3211 1.363 . S
C3210 C3200 1.465 . S
C3210 U3206 2.847 . S
C3210 O3224 1.249 . S
C3210 O3225 1.202 . S
C3211 C3209 1.363 . S
C3211 C3213 1.408 . S
C3211 C3216 1.342 . S
C3212 C3213 1.310 . S
C3212 C3215 1.461 . S
C3212 H3232 0.932 . S
C3213 C3211 1.408 . S
C3213 C3212 1.310 . S
C3213 H3233 0.930 . S
C3214 C3215 1.474 . S
C3214 C3216 1.285 . S
C3214 H3234 0.929 . S
C3215 C3212 1.461 . S
C3215 C3214 1.474 . S
C3216 C3211 1.342 . S
C3216 C3214 1.285 . S
C3216 H3235 0.930 . S
C3217 C3220 1.424 . S
C3217 C3222 1.245 . S
C3217 C3223 1.428 . S
C3218 C3221 1.260 . S
C3218 C3222 1.477 . S
C3218 H3236 0.932 . S
C3219 C3220 1.384 . S
C3219 C3221 1.479 . S
C3219 H3237 0.929 . S
C3220 C3217 1.424 . S
C3220 C3219 1.384 . S
C3220 H3238 0.928 . S
C3221 C3218 1.260 . S
C3221 C3219 1.479 . S
C3222 C3217 1.245 . S
C3222 C3218 1.477 . S
C3222 H3239 0.932 . S
C3223 U3206 2.882 . S
C3223 C3217 1.428 . S
C3223 O3226 1.301 . S
C3223 O3227 1.282 . S
O3224 U3206 2.441 . S
O3224 C3210 1.249 . S
O3225 U3206 2.420 . S
O3225 C3210 1.202 . S
O3226 U3206 2.455 . S
O3226 C3223 1.301 . S
O3227 U3206 2.449 . S
O3227 C3223 1.282 . S
H3228 C3201 0.931 . S
H3229 C3203 0.929 . S
H3230 C3204 0.930 . S
H3231 C3205 0.931 . S
H3232 C3212 0.932 . S
H3233 C3213 0.930 . S
H3234 C3214 0.929 . S
H3235 C3216 0.930 . S
H3236 C3218 0.932 . S
H3237 C3219 0.929 . S
H3238 C3220 0.928 . S
H3239 C3222 0.932 . S
C3240 C3241 1.264 . S
C3240 C3245 1.479 . S
C3240 C3250 1.465 . S
C3241 C3240 1.264 . S
C3241 C3243 1.339 . S
C3241 H3268 0.931 . S
C3242 C3243 1.395 . S
C3242 C3244 1.320 . S
C3243 C3241 1.339 . S
C3243 C3242 1.395 . S
C3243 H3269 0.929 . S
C3244 C3242 1.320 . S
C3244 C3245 1.405 . S
C3244 H3270 0.930 . S
C3245 C3240 1.479 . S
C3245 C3244 1.405 . S
C3245 H3271 0.931 . S
U3246 O3247 2.454 . S
U3246 O3248 2.458 . S
U3246 C3249 2.984 . S
U3246 C3250 2.847 . S
U3246 C3263 2.882 . S
U3246 O3264 2.441 . S
U3246 O3265 2.420 . S
U3246 O3266 2.455 . S
U3246 O3267 2.449 . S
O3247 U3246 2.454 . S
O3247 C3249 1.353 . S
O3248 U3246 2.458 . S
O3248 C3249 1.286 . S
C3249 U3246 2.984 . S
C3249 O3247 1.353 . S
C3249 O3248 1.286 . S
C3249 C3251 1.363 . S
C3250 C3240 1.465 . S
C3250 U3246 2.847 . S
C3250 O3264 1.249 . S
C3250 O3265 1.202 . S
C3251 C3249 1.363 . S
C3251 C3253 1.408 . S
C3251 C3256 1.342 . S
C3252 C3253 1.310 . S
C3252 C3255 1.461 . S
C3252 H3272 0.932 . S
C3253 C3251 1.408 . S
C3253 C3252 1.310 . S
C3253 H3273 0.930 . S
C3254 C3255 1.474 . S
C3254 C3256 1.285 . S
C3254 H3274 0.929 . S
C3255 C3252 1.461 . S
C3255 C3254 1.474 . S
C3256 C3251 1.342 . S
C3256 C3254 1.285 . S
C3256 H3275 0.930 . S
C3257 C3260 1.424 . S
C3257 C3262 1.245 . S
C3257 C3263 1.428 . S
C3258 C3261 1.260 . S
C3258 C3262 1.477 . S
C3258 H3276 0.932 . S
C3259 C3260 1.384 . S
C3259 C3261 1.479 . S
C3259 H3277 0.929 . S
C3260 C3257 1.424 . S
C3260 C3259 1.384 . S
C3260 H3278 0.928 . S
C3261 C3258 1.260 . S
C3261 C3259 1.479 . S
C3262 C3257 1.245 . S
C3262 C3258 1.477 . S
C3262 H3279 0.932 . S
C3263 U3246 2.882 . S
C3263 C3257 1.428 . S
C3263 O3266 1.301 . S
C3263 O3267 1.282 . S
O3264 U3246 2.441 . S
O3264 C3250 1.249 . S
O3265 U3246 2.420 . S
O3265 C3250 1.202 . S
O3266 U3246 2.455 . S
O3266 C3263 1.301 . S
O3267 U3246 2.449 . S
O3267 C3263 1.282 . S
H3268 C3241 0.931 . S
H3269 C3243 0.929 . S
H3270 C3244 0.930 . S
H3271 C3245 0.931 . S
H3272 C3252 0.932 . S
H3273 C3253 0.930 . S
H3274 C3254 0.929 . S
H3275 C3256 0.930 . S
H3276 C3258 0.932 . S
H3277 C3259 0.929 . S
H3278 C3260 0.928 . S
H3279 C3262 0.932 . S
C3280 C3281 1.264 . S
C3280 C3285 1.479 . S
C3280 C3290 1.465 . S
C3281 C3280 1.264 . S
C3281 C3283 1.339 . S
C3281 H3308 0.931 . S
C3282 C3283 1.395 . S
C3282 C3284 1.320 . S
C3283 C3281 1.339 . S
C3283 C3282 1.395 . S
C3283 H3309 0.929 . S
C3284 C3282 1.320 . S
C3284 C3285 1.405 . S
C3284 H3310 0.930 . S
C3285 C3280 1.479 . S
C3285 C3284 1.405 . S
C3285 H3311 0.931 . S
U3286 O3287 2.454 . S
U3286 O3288 2.458 . S
U3286 C3289 2.984 . S
U3286 C3290 2.847 . S
U3286 C3303 2.882 . S
U3286 O3304 2.441 . S
U3286 O3305 2.420 . S
U3286 O3306 2.455 . S
U3286 O3307 2.449 . S
O3287 U3286 2.454 . S
O3287 C3289 1.353 . S
O3288 U3286 2.458 . S
O3288 C3289 1.286 . S
C3289 U3286 2.984 . S
C3289 O3287 1.353 . S
C3289 O3288 1.286 . S
C3289 C3291 1.363 . S
C3290 C3280 1.465 . S
C3290 U3286 2.847 . S
C3290 O3304 1.249 . S
C3290 O3305 1.202 . S
C3291 C3289 1.363 . S
C3291 C3293 1.408 . S
C3291 C3296 1.342 . S
C3292 C3293 1.310 . S
C3292 C3295 1.461 . S
C3292 H3312 0.932 . S
C3293 C3291 1.408 . S
C3293 C3292 1.310 . S
C3293 H3313 0.930 . S
C3294 C3295 1.474 . S
C3294 C3296 1.285 . S
C3294 H3314 0.929 . S
C3295 C3292 1.461 . S
C3295 C3294 1.474 . S
C3296 C3291 1.342 . S
C3296 C3294 1.285 . S
C3296 H3315 0.930 . S
C3297 C3300 1.424 . S
C3297 C3302 1.245 . S
C3297 C3303 1.428 . S
C3298 C3301 1.260 . S
C3298 C3302 1.477 . S
C3298 H3316 0.932 . S
C3299 C3300 1.384 . S
C3299 C3301 1.479 . S
C3299 H3317 0.929 . S
C3300 C3297 1.424 . S
C3300 C3299 1.384 . S
C3300 H3318 0.928 . S
C3301 C3298 1.260 . S
C3301 C3299 1.479 . S
C3302 C3297 1.245 . S
C3302 C3298 1.477 . S
C3302 H3319 0.932 . S
C3303 U3286 2.882 . S
C3303 C3297 1.428 . S
C3303 O3306 1.301 . S
C3303 O3307 1.282 . S
O3304 U3286 2.441 . S
O3304 C3290 1.249 . S
O3305 U3286 2.420 . S
O3305 C3290 1.202 . S
O3306 U3286 2.455 . S
O3306 C3303 1.301 . S
O3307 U3286 2.449 . S
O3307 C3303 1.282 . S
H3308 C3281 0.931 . S
H3309 C3283 0.929 . S
H3310 C3284 0.930 . S
H3311 C3285 0.931 . S
H3312 C3292 0.932 . S
H3313 C3293 0.930 . S
H3314 C3294 0.929 . S
H3315 C3296 0.930 . S
H3316 C3298 0.932 . S
H3317 C3299 0.929 . S
H3318 C3300 0.928 . S
H3319 C3302 0.932 . S
C3320 C3321 1.264 . S
C3320 C3325 1.479 . S
C3320 C3330 1.465 . S
C3321 C3320 1.264 . S
C3321 C3323 1.339 . S
C3321 H3348 0.931 . S
C3322 C3323 1.395 . S
C3322 C3324 1.320 . S
C3323 C3321 1.339 . S
C3323 C3322 1.395 . S
C3323 H3349 0.929 . S
C3324 C3322 1.320 . S
C3324 C3325 1.405 . S
C3324 H3350 0.930 . S
C3325 C3320 1.479 . S
C3325 C3324 1.405 . S
C3325 H3351 0.931 . S
U3326 O3327 2.454 . S
U3326 O3328 2.458 . S
U3326 C3329 2.984 . S
U3326 C3330 2.847 . S
U3326 C3343 2.882 . S
U3326 O3344 2.441 . S
U3326 O3345 2.420 . S
U3326 O3346 2.455 . S
U3326 O3347 2.449 . S
O3327 U3326 2.454 . S
O3327 C3329 1.353 . S
O3328 U3326 2.458 . S
O3328 C3329 1.286 . S
C3329 U3326 2.984 . S
C3329 O3327 1.353 . S
C3329 O3328 1.286 . S
C3329 C3331 1.363 . S
C3330 C3320 1.465 . S
C3330 U3326 2.847 . S
C3330 O3344 1.249 . S
C3330 O3345 1.202 . S
C3331 C3329 1.363 . S
C3331 C3333 1.408 . S
C3331 C3336 1.342 . S
C3332 C3333 1.310 . S
C3332 C3335 1.461 . S
C3332 H3352 0.932 . S
C3333 C3331 1.408 . S
C3333 C3332 1.310 . S
C3333 H3353 0.930 . S
C3334 C3335 1.474 . S
C3334 C3336 1.285 . S
C3334 H3354 0.929 . S
C3335 C3332 1.461 . S
C3335 C3334 1.474 . S
C3336 C3331 1.342 . S
C3336 C3334 1.285 . S
C3336 H3355 0.930 . S
C3337 C3340 1.424 . S
C3337 C3342 1.245 . S
C3337 C3343 1.428 . S
C3338 C3341 1.260 . S
C3338 C3342 1.477 . S
C3338 H3356 0.932 . S
C3339 C3340 1.384 . S
C3339 C3341 1.479 . S
C3339 H3357 0.929 . S
C3340 C3337 1.424 . S
C3340 C3339 1.384 . S
C3340 H3358 0.928 . S
C3341 C3338 1.260 . S
C3341 C3339 1.479 . S
C3342 C3337 1.245 . S
C3342 C3338 1.477 . S
C3342 H3359 0.932 . S
C3343 U3326 2.882 . S
C3343 C3337 1.428 . S
C3343 O3346 1.301 . S
C3343 O3347 1.282 . S
O3344 U3326 2.441 . S
O3344 C3330 1.249 . S
O3345 U3326 2.420 . S
O3345 C3330 1.202 . S
O3346 U3326 2.455 . S
O3346 C3343 1.301 . S
O3347 U3326 2.449 . S
O3347 C3343 1.282 . S
H3348 C3321 0.931 . S
H3349 C3323 0.929 . S
H3350 C3324 0.930 . S
H3351 C3325 0.931 . S
H3352 C3332 0.932 . S
H3353 C3333 0.930 . S
H3354 C3334 0.929 . S
H3355 C3336 0.930 . S
H3356 C3338 0.932 . S
H3357 C3339 0.929 . S
H3358 C3340 0.928 . S
H3359 C3342 0.932 . S
C3360 C3361 1.264 . S
C3360 C3365 1.479 . S
C3360 C3370 1.465 . S
C3361 C3360 1.264 . S
C3361 C3363 1.339 . S
C3361 H3388 0.931 . S
C3362 C3363 1.395 . S
C3362 C3364 1.320 . S
C3363 C3361 1.339 . S
C3363 C3362 1.395 . S
C3363 H3389 0.929 . S
C3364 C3362 1.320 . S
C3364 C3365 1.405 . S
C3364 H3390 0.930 . S
C3365 C3360 1.479 . S
C3365 C3364 1.405 . S
C3365 H3391 0.931 . S
U3366 O3367 2.454 . S
U3366 O3368 2.458 . S
U3366 C3369 2.984 . S
U3366 C3370 2.847 . S
U3366 C3383 2.882 . S
U3366 O3384 2.441 . S
U3366 O3385 2.420 . S
U3366 O3386 2.455 . S
U3366 O3387 2.449 . S
O3367 U3366 2.454 . S
O3367 C3369 1.353 . S
O3368 U3366 2.458 . S
O3368 C3369 1.286 . S
C3369 U3366 2.984 . S
C3369 O3367 1.353 . S
C3369 O3368 1.286 . S
C3369 C3371 1.363 . S
C3370 C3360 1.465 . S
C3370 U3366 2.847 . S
C3370 O3384 1.249 . S
C3370 O3385 1.202 . S
C3371 C3369 1.363 . S
C3371 C3373 1.408 . S
C3371 C3376 1.342 . S
C3372 C3373 1.310 . S
C3372 C3375 1.461 . S
C3372 H3392 0.932 . S
C3373 C3371 1.408 . S
C3373 C3372 1.310 . S
C3373 H3393 0.930 . S
C3374 C3375 1.474 . S
C3374 C3376 1.285 . S
C3374 H3394 0.929 . S
C3375 C3372 1.461 . S
C3375 C3374 1.474 . S
C3376 C3371 1.342 . S
C3376 C3374 1.285 . S
C3376 H3395 0.930 . S
C3377 C3380 1.424 . S
C3377 C3382 1.245 . S
C3377 C3383 1.428 . S
C3378 C3381 1.260 . S
C3378 C3382 1.477 . S
C3378 H3396 0.932 . S
C3379 C3380 1.384 . S
C3379 C3381 1.479 . S
C3379 H3397 0.929 . S
C3380 C3377 1.424 . S
C3380 C3379 1.384 . S
C3380 H3398 0.928 . S
C3381 C3378 1.260 . S
C3381 C3379 1.479 . S
C3382 C3377 1.245 . S
C3382 C3378 1.477 . S
C3382 H3399 0.932 . S
C3383 U3366 2.882 . S
C3383 C3377 1.428 . S
C3383 O3386 1.301 . S
C3383 O3387 1.282 . S
O3384 U3366 2.441 . S
O3384 C3370 1.249 . S
O3385 U3366 2.420 . S
O3385 C3370 1.202 . S
O3386 U3366 2.455 . S
O3386 C3383 1.301 . S
O3387 U3366 2.449 . S
O3387 C3383 1.282 . S
H3388 C3361 0.931 . S
H3389 C3363 0.929 . S
H3390 C3364 0.930 . S
H3391 C3365 0.931 . S
H3392 C3372 0.932 . S
H3393 C3373 0.930 . S
H3394 C3374 0.929 . S
H3395 C3376 0.930 . S
H3396 C3378 0.932 . S
H3397 C3379 0.929 . S
H3398 C3380 0.928 . S
H3399 C3382 0.932 . S
C3400 C3401 1.264 . S
C3400 C3405 1.479 . S
C3400 C3410 1.465 . S
C3401 C3400 1.264 . S
C3401 C3403 1.339 . S
C3401 H3428 0.931 . S
C3402 C3403 1.395 . S
C3402 C3404 1.320 . S
C3403 C3401 1.339 . S
C3403 C3402 1.395 . S
C3403 H3429 0.929 . S
C3404 C3402 1.320 . S
C3404 C3405 1.405 . S
C3404 H3430 0.930 . S
C3405 C3400 1.479 . S
C3405 C3404 1.405 . S
C3405 H3431 0.931 . S
U3406 O3407 2.454 . S
U3406 O3408 2.458 . S
U3406 C3409 2.984 . S
U3406 C3410 2.847 . S
U3406 C3423 2.882 . S
U3406 O3424 2.441 . S
U3406 O3425 2.420 . S
U3406 O3426 2.455 . S
U3406 O3427 2.449 . S
O3407 U3406 2.454 . S
O3407 C3409 1.353 . S
O3408 U3406 2.458 . S
O3408 C3409 1.286 . S
C3409 U3406 2.984 . S
C3409 O3407 1.353 . S
C3409 O3408 1.286 . S
C3409 C3411 1.363 . S
C3410 C3400 1.465 . S
C3410 U3406 2.847 . S
C3410 O3424 1.249 . S
C3410 O3425 1.202 . S
C3411 C3409 1.363 . S
C3411 C3413 1.408 . S
C3411 C3416 1.342 . S
C3412 C3413 1.310 . S
C3412 C3415 1.461 . S
C3412 H3432 0.932 . S
C3413 C3411 1.408 . S
C3413 C3412 1.310 . S
C3413 H3433 0.930 . S
C3414 C3415 1.474 . S
C3414 C3416 1.285 . S
C3414 H3434 0.929 . S
C3415 C3412 1.461 . S
C3415 C3414 1.474 . S
C3416 C3411 1.342 . S
C3416 C3414 1.285 . S
C3416 H3435 0.930 . S
C3417 C3420 1.424 . S
C3417 C3422 1.245 . S
C3417 C3423 1.428 . S
C3418 C3421 1.260 . S
C3418 C3422 1.477 . S
C3418 H3436 0.932 . S
C3419 C3420 1.384 . S
C3419 C3421 1.479 . S
C3419 H3437 0.929 . S
C3420 C3417 1.424 . S
C3420 C3419 1.384 . S
C3420 H3438 0.928 . S
C3421 C3418 1.260 . S
C3421 C3419 1.479 . S
C3422 C3417 1.245 . S
C3422 C3418 1.477 . S
C3422 H3439 0.932 . S
C3423 U3406 2.882 . S
C3423 C3417 1.428 . S
C3423 O3426 1.301 . S
C3423 O3427 1.282 . S
O3424 U3406 2.441 . S
O3424 C3410 1.249 . S
O3425 U3406 2.420 . S
O3425 C3410 1.202 . S
O3426 U3406 2.455 . S
O3426 C3423 1.301 . S
O3427 U3406 2.449 . S
O3427 C3423 1.282 . S
H3428 C3401 0.931 . S
H3429 C3403 0.929 . S
H3430 C3404 0.930 . S
H3431 C3405 0.931 . S
H3432 C3412 0.932 . S
H3433 C3413 0.930 . S
H3434 C3414 0.929 . S
H3435 C3416 0.930 . S
H3436 C3418 0.932 . S
H3437 C3419 0.929 . S
H3438 C3420 0.928 . S
H3439 C3422 0.932 . S
C3440 C3441 1.264 . S
C3440 C3445 1.479 . S
C3440 C3450 1.465 . S
C3441 C3440 1.264 . S
C3441 C3443 1.339 . S
C3441 H3468 0.931 . S
C3442 C3443 1.395 . S
C3442 C3444 1.320 . S
C3443 C3441 1.339 . S
C3443 C3442 1.395 . S
C3443 H3469 0.929 . S
C3444 C3442 1.320 . S
C3444 C3445 1.405 . S
C3444 H3470 0.930 . S
C3445 C3440 1.479 . S
C3445 C3444 1.405 . S
C3445 H3471 0.931 . S
U3446 O3447 2.454 . S
U3446 O3448 2.458 . S
U3446 C3449 2.984 . S
U3446 C3450 2.847 . S
U3446 C3463 2.882 . S
U3446 O3464 2.441 . S
U3446 O3465 2.420 . S
U3446 O3466 2.455 . S
U3446 O3467 2.449 . S
O3447 U3446 2.454 . S
O3447 C3449 1.353 . S
O3448 U3446 2.458 . S
O3448 C3449 1.286 . S
C3449 U3446 2.984 . S
C3449 O3447 1.353 . S
C3449 O3448 1.286 . S
C3449 C3451 1.363 . S
C3450 C3440 1.465 . S
C3450 U3446 2.847 . S
C3450 O3464 1.249 . S
C3450 O3465 1.202 . S
C3451 C3449 1.363 . S
C3451 C3453 1.408 . S
C3451 C3456 1.342 . S
C3452 C3453 1.310 . S
C3452 C3455 1.461 . S
C3452 H3472 0.932 . S
C3453 C3451 1.408 . S
C3453 C3452 1.310 . S
C3453 H3473 0.930 . S
C3454 C3455 1.474 . S
C3454 C3456 1.285 . S
C3454 H3474 0.929 . S
C3455 C3452 1.461 . S
C3455 C3454 1.474 . S
C3456 C3451 1.342 . S
C3456 C3454 1.285 . S
C3456 H3475 0.930 . S
C3457 C3460 1.424 . S
C3457 C3462 1.245 . S
C3457 C3463 1.428 . S
C3458 C3461 1.260 . S
C3458 C3462 1.477 . S
C3458 H3476 0.932 . S
C3459 C3460 1.384 . S
C3459 C3461 1.479 . S
C3459 H3477 0.929 . S
C3460 C3457 1.424 . S
C3460 C3459 1.384 . S
C3460 H3478 0.928 . S
C3461 C3458 1.260 . S
C3461 C3459 1.479 . S
C3462 C3457 1.245 . S
C3462 C3458 1.477 . S
C3462 H3479 0.932 . S
C3463 U3446 2.882 . S
C3463 C3457 1.428 . S
C3463 O3466 1.301 . S
C3463 O3467 1.282 . S
O3464 U3446 2.441 . S
O3464 C3450 1.249 . S
O3465 U3446 2.420 . S
O3465 C3450 1.202 . S
O3466 U3446 2.455 . S
O3466 C3463 1.301 . S
O3467 U3446 2.449 . S
O3467 C3463 1.282 . S
H3468 C3441 0.931 . S
H3469 C3443 0.929 . S
H3470 C3444 0.930 . S
H3471 C3445 0.931 . S
H3472 C3452 0.932 . S
H3473 C3453 0.930 . S
H3474 C3454 0.929 . S
H3475 C3456 0.930 . S
H3476 C3458 0.932 . S
H3477 C3459 0.929 . S
H3478 C3460 0.928 . S
H3479 C3462 0.932 . S
C3480 C3481 1.264 . S
C3480 C3485 1.479 . S
C3480 C3490 1.465 . S
C3481 C3480 1.264 . S
C3481 C3483 1.339 . S
C3481 H3508 0.931 . S
C3482 C3483 1.395 . S
C3482 C3484 1.320 . S
C3483 C3481 1.339 . S
C3483 C3482 1.395 . S
C3483 H3509 0.929 . S
C3484 C3482 1.320 . S
C3484 C3485 1.405 . S
C3484 H3510 0.930 . S
C3485 C3480 1.479 . S
C3485 C3484 1.405 . S
C3485 H3511 0.931 . S
U3486 O3487 2.454 . S
U3486 O3488 2.458 . S
U3486 C3489 2.984 . S
U3486 C3490 2.847 . S
U3486 C3503 2.882 . S
U3486 O3504 2.441 . S
U3486 O3505 2.420 . S
U3486 O3506 2.455 . S
U3486 O3507 2.449 . S
O3487 U3486 2.454 . S
O3487 C3489 1.353 . S
O3488 U3486 2.458 . S
O3488 C3489 1.286 . S
C3489 U3486 2.984 . S
C3489 O3487 1.353 . S
C3489 O3488 1.286 . S
C3489 C3491 1.363 . S
C3490 C3480 1.465 . S
C3490 U3486 2.847 . S
C3490 O3504 1.249 . S
C3490 O3505 1.202 . S
C3491 C3489 1.363 . S
C3491 C3493 1.408 . S
C3491 C3496 1.342 . S
C3492 C3493 1.310 . S
C3492 C3495 1.461 . S
C3492 H3512 0.932 . S
C3493 C3491 1.408 . S
C3493 C3492 1.310 . S
C3493 H3513 0.930 . S
C3494 C3495 1.474 . S
C3494 C3496 1.285 . S
C3494 H3514 0.929 . S
C3495 C3492 1.461 . S
C3495 C3494 1.474 . S
C3496 C3491 1.342 . S
C3496 C3494 1.285 . S
C3496 H3515 0.930 . S
C3497 C3500 1.424 . S
C3497 C3502 1.245 . S
C3497 C3503 1.428 . S
C3498 C3501 1.260 . S
C3498 C3502 1.477 . S
C3498 H3516 0.932 . S
C3499 C3500 1.384 . S
C3499 C3501 1.479 . S
C3499 H3517 0.929 . S
C3500 C3497 1.424 . S
C3500 C3499 1.384 . S
C3500 H3518 0.928 . S
C3501 C3498 1.260 . S
C3501 C3499 1.479 . S
C3502 C3497 1.245 . S
C3502 C3498 1.477 . S
C3502 H3519 0.932 . S
C3503 U3486 2.882 . S
C3503 C3497 1.428 . S
C3503 O3506 1.301 . S
C3503 O3507 1.282 . S
O3504 U3486 2.441 . S
O3504 C3490 1.249 . S
O3505 U3486 2.420 . S
O3505 C3490 1.202 . S
O3506 U3486 2.455 . S
O3506 C3503 1.301 . S
O3507 U3486 2.449 . S
O3507 C3503 1.282 . S
H3508 C3481 0.931 . S
H3509 C3483 0.929 . S
H3510 C3484 0.930 . S
H3511 C3485 0.931 . S
H3512 C3492 0.932 . S
H3513 C3493 0.930 . S
H3514 C3494 0.929 . S
H3515 C3496 0.930 . S
H3516 C3498 0.932 . S
H3517 C3499 0.929 . S
H3518 C3500 0.928 . S
H3519 C3502 0.932 . S
C3520 C3521 1.264 . S
C3520 C3525 1.479 . S
C3520 C3530 1.465 . S
C3521 C3520 1.264 . S
C3521 C3523 1.339 . S
C3521 H3548 0.931 . S
C3522 C3523 1.395 . S
C3522 C3524 1.320 . S
C3523 C3521 1.339 . S
C3523 C3522 1.395 . S
C3523 H3549 0.929 . S
C3524 C3522 1.320 . S
C3524 C3525 1.405 . S
C3524 H3550 0.930 . S
C3525 C3520 1.479 . S
C3525 C3524 1.405 . S
C3525 H3551 0.931 . S
U3526 O3527 2.454 . S
U3526 O3528 2.458 . S
U3526 C3529 2.984 . S
U3526 C3530 2.847 . S
U3526 C3543 2.882 . S
U3526 O3544 2.441 . S
U3526 O3545 2.420 . S
U3526 O3546 2.455 . S
U3526 O3547 2.449 . S
O3527 U3526 2.454 . S
O3527 C3529 1.353 . S
O3528 U3526 2.458 . S
O3528 C3529 1.286 . S
C3529 U3526 2.984 . S
C3529 O3527 1.353 . S
C3529 O3528 1.286 . S
C3529 C3531 1.363 . S
C3530 C3520 1.465 . S
C3530 U3526 2.847 . S
C3530 O3544 1.249 . S
C3530 O3545 1.202 . S
C3531 C3529 1.363 . S
C3531 C3533 1.408 . S
C3531 C3536 1.342 . S
C3532 C3533 1.310 . S
C3532 C3535 1.461 . S
C3532 H3552 0.932 . S
C3533 C3531 1.408 . S
C3533 C3532 1.310 . S
C3533 H3553 0.930 . S
C3534 C3535 1.474 . S
C3534 C3536 1.285 . S
C3534 H3554 0.929 . S
C3535 C3532 1.461 . S
C3535 C3534 1.474 . S
C3536 C3531 1.342 . S
C3536 C3534 1.285 . S
C3536 H3555 0.930 . S
C3537 C3540 1.424 . S
C3537 C3542 1.245 . S
C3537 C3543 1.428 . S
C3538 C3541 1.260 . S
C3538 C3542 1.477 . S
C3538 H3556 0.932 . S
C3539 C3540 1.384 . S
C3539 C3541 1.479 . S
C3539 H3557 0.929 . S
C3540 C3537 1.424 . S
C3540 C3539 1.384 . S
C3540 H3558 0.928 . S
C3541 C3538 1.260 . S
C3541 C3539 1.479 . S
C3542 C3537 1.245 . S
C3542 C3538 1.477 . S
C3542 H3559 0.932 . S
C3543 U3526 2.882 . S
C3543 C3537 1.428 . S
C3543 O3546 1.301 . S
C3543 O3547 1.282 . S
O3544 U3526 2.441 . S
O3544 C3530 1.249 . S
O3545 U3526 2.420 . S
O3545 C3530 1.202 . S
O3546 U3526 2.455 . S
O3546 C3543 1.301 . S
O3547 U3526 2.449 . S
O3547 C3543 1.282 . S
H3548 C3521 0.931 . S
H3549 C3523 0.929 . S
H3550 C3524 0.930 . S
H3551 C3525 0.931 . S
H3552 C3532 0.932 . S
H3553 C3533 0.930 . S
H3554 C3534 0.929 . S
H3555 C3536 0.930 . S
H3556 C3538 0.932 . S
H3557 C3539 0.929 . S
H3558 C3540 0.928 . S
H3559 C3542 0.932 . S
C3560 C3561 1.264 . S
C3560 C3565 1.479 . S
C3560 C3570 1.465 . S
C3561 C3560 1.264 . S
C3561 C3563 1.339 . S
C3561 H3588 0.931 . S
C3562 C3563 1.395 . S
C3562 C3564 1.320 . S
C3563 C3561 1.339 . S
C3563 C3562 1.395 . S
C3563 H3589 0.929 . S
C3564 C3562 1.320 . S
C3564 C3565 1.405 . S
C3564 H3590 0.930 . S
C3565 C3560 1.479 . S
C3565 C3564 1.405 . S
C3565 H3591 0.931 . S
U3566 O3567 2.454 . S
U3566 O3568 2.458 . S
U3566 C3569 2.984 . S
U3566 C3570 2.847 . S
U3566 C3583 2.882 . S
U3566 O3584 2.441 . S
U3566 O3585 2.420 . S
U3566 O3586 2.455 . S
U3566 O3587 2.449 . S
O3567 U3566 2.454 . S
O3567 C3569 1.353 . S
O3568 U3566 2.458 . S
O3568 C3569 1.286 . S
C3569 U3566 2.984 . S
C3569 O3567 1.353 . S
C3569 O3568 1.286 . S
C3569 C3571 1.363 . S
C3570 C3560 1.465 . S
C3570 U3566 2.847 . S
C3570 O3584 1.249 . S
C3570 O3585 1.202 . S
C3571 C3569 1.363 . S
C3571 C3573 1.408 . S
C3571 C3576 1.342 . S
C3572 C3573 1.310 . S
C3572 C3575 1.461 . S
C3572 H3592 0.932 . S
C3573 C3571 1.408 . S
C3573 C3572 1.310 . S
C3573 H3593 0.930 . S
C3574 C3575 1.474 . S
C3574 C3576 1.285 . S
C3574 H3594 0.929 . S
C3575 C3572 1.461 . S
C3575 C3574 1.474 . S
C3576 C3571 1.342 . S
C3576 C3574 1.285 . S
C3576 H3595 0.930 . S
C3577 C3580 1.424 . S
C3577 C3582 1.245 . S
C3577 C3583 1.428 . S
C3578 C3581 1.260 . S
C3578 C3582 1.477 . S
C3578 H3596 0.932 . S
C3579 C3580 1.384 . S
C3579 C3581 1.479 . S
C3579 H3597 0.929 . S
C3580 C3577 1.424 . S
C3580 C3579 1.384 . S
C3580 H3598 0.928 . S
C3581 C3578 1.260 . S
C3581 C3579 1.479 . S
C3582 C3577 1.245 . S
C3582 C3578 1.477 . S
C3582 H3599 0.932 . S
C3583 U3566 2.882 . S
C3583 C3577 1.428 . S
C3583 O3586 1.301 . S
C3583 O3587 1.282 . S
O3584 U3566 2.441 . S
O3584 C3570 1.249 . S
O3585 U3566 2.420 . S
O3585 C3570 1.202 . S
O3586 U3566 2.455 . S
O3586 C3583 1.301 . S
O3587 U3566 2.449 . S
O3587 C3583 1.282 . S
H3588 C3561 0.931 . S
H3589 C3563 0.929 . S
H3590 C3564 0.930 . S
H3591 C3565 0.931 . S
H3592 C3572 0.932 . S
H3593 C3573 0.930 . S
H3594 C3574 0.929 . S
H3595 C3576 0.930 . S
H3596 C3578 0.932 . S
H3597 C3579 0.929 . S
H3598 C3580 0.928 . S
H3599 C3582 0.932 . S
C3600 C3601 1.264 . S
C3600 C3605 1.479 . S
C3600 C3610 1.465 . S
C3601 C3600 1.264 . S
C3601 C3603 1.339 . S
C3601 H3628 0.931 . S
C3602 C3603 1.395 . S
C3602 C3604 1.320 . S
C3603 C3601 1.339 . S
C3603 C3602 1.395 . S
C3603 H3629 0.929 . S
C3604 C3602 1.320 . S
C3604 C3605 1.405 . S
C3604 H3630 0.930 . S
C3605 C3600 1.479 . S
C3605 C3604 1.405 . S
C3605 H3631 0.931 . S
U3606 O3607 2.454 . S
U3606 O3608 2.458 . S
U3606 C3609 2.984 . S
U3606 C3610 2.847 . S
U3606 C3623 2.882 . S
U3606 O3624 2.441 . S
U3606 O3625 2.420 . S
U3606 O3626 2.455 . S
U3606 O3627 2.449 . S
O3607 U3606 2.454 . S
O3607 C3609 1.353 . S
O3608 U3606 2.458 . S
O3608 C3609 1.286 . S
C3609 U3606 2.984 . S
C3609 O3607 1.353 . S
C3609 O3608 1.286 . S
C3609 C3611 1.363 . S
C3610 C3600 1.465 . S
C3610 U3606 2.847 . S
C3610 O3624 1.249 . S
C3610 O3625 1.202 . S
C3611 C3609 1.363 . S
C3611 C3613 1.408 . S
C3611 C3616 1.342 . S
C3612 C3613 1.310 . S
C3612 C3615 1.461 . S
C3612 H3632 0.932 . S
C3613 C3611 1.408 . S
C3613 C3612 1.310 . S
C3613 H3633 0.930 . S
C3614 C3615 1.474 . S
C3614 C3616 1.285 . S
C3614 H3634 0.929 . S
C3615 C3612 1.461 . S
C3615 C3614 1.474 . S
C3616 C3611 1.342 . S
C3616 C3614 1.285 . S
C3616 H3635 0.930 . S
C3617 C3620 1.424 . S
C3617 C3622 1.245 . S
C3617 C3623 1.428 . S
C3618 C3621 1.260 . S
C3618 C3622 1.477 . S
C3618 H3636 0.932 . S
C3619 C3620 1.384 . S
C3619 C3621 1.479 . S
C3619 H3637 0.929 . S
C3620 C3617 1.424 . S
C3620 C3619 1.384 . S
C3620 H3638 0.928 . S
C3621 C3618 1.260 . S
C3621 C3619 1.479 . S
C3622 C3617 1.245 . S
C3622 C3618 1.477 . S
C3622 H3639 0.932 . S
C3623 U3606 2.882 . S
C3623 C3617 1.428 . S
C3623 O3626 1.301 . S
C3623 O3627 1.282 . S
O3624 U3606 2.441 . S
O3624 C3610 1.249 . S
O3625 U3606 2.420 . S
O3625 C3610 1.202 . S
O3626 U3606 2.455 . S
O3626 C3623 1.301 . S
O3627 U3606 2.449 . S
O3627 C3623 1.282 . S
H3628 C3601 0.931 . S
H3629 C3603 0.929 . S
H3630 C3604 0.930 . S
H3631 C3605 0.931 . S
H3632 C3612 0.932 . S
H3633 C3613 0.930 . S
H3634 C3614 0.929 . S
H3635 C3616 0.930 . S
H3636 C3618 0.932 . S
H3637 C3619 0.929 . S
H3638 C3620 0.928 . S
H3639 C3622 0.932 . S
C3640 C3641 1.264 . S
C3640 C3645 1.479 . S
C3640 C3650 1.465 . S
C3641 C3640 1.264 . S
C3641 C3643 1.339 . S
C3641 H3668 0.931 . S
C3642 C3643 1.395 . S
C3642 C3644 1.320 . S
C3643 C3641 1.339 . S
C3643 C3642 1.395 . S
C3643 H3669 0.929 . S
C3644 C3642 1.320 . S
C3644 C3645 1.405 . S
C3644 H3670 0.930 . S
C3645 C3640 1.479 . S
C3645 C3644 1.405 . S
C3645 H3671 0.931 . S
U3646 O3647 2.454 . S
U3646 O3648 2.458 . S
U3646 C3649 2.984 . S
U3646 C3650 2.847 . S
U3646 C3663 2.882 . S
U3646 O3664 2.441 . S
U3646 O3665 2.420 . S
U3646 O3666 2.455 . S
U3646 O3667 2.449 . S
O3647 U3646 2.454 . S
O3647 C3649 1.353 . S
O3648 U3646 2.458 . S
O3648 C3649 1.286 . S
C3649 U3646 2.984 . S
C3649 O3647 1.353 . S
C3649 O3648 1.286 . S
C3649 C3651 1.363 . S
C3650 C3640 1.465 . S
C3650 U3646 2.847 . S
C3650 O3664 1.249 . S
C3650 O3665 1.202 . S
C3651 C3649 1.363 . S
C3651 C3653 1.408 . S
C3651 C3656 1.342 . S
C3652 C3653 1.310 . S
C3652 C3655 1.461 . S
C3652 H3672 0.932 . S
C3653 C3651 1.408 . S
C3653 C3652 1.310 . S
C3653 H3673 0.930 . S
C3654 C3655 1.474 . S
C3654 C3656 1.285 . S
C3654 H3674 0.929 . S
C3655 C3652 1.461 . S
C3655 C3654 1.474 . S
C3656 C3651 1.342 . S
C3656 C3654 1.285 . S
C3656 H3675 0.930 . S
C3657 C3660 1.424 . S
C3657 C3662 1.245 . S
C3657 C3663 1.428 . S
C3658 C3661 1.260 . S
C3658 C3662 1.477 . S
C3658 H3676 0.932 . S
C3659 C3660 1.384 . S
C3659 C3661 1.479 . S
C3659 H3677 0.929 . S
C3660 C3657 1.424 . S
C3660 C3659 1.384 . S
C3660 H3678 0.928 . S
C3661 C3658 1.260 . S
C3661 C3659 1.479 . S
C3662 C3657 1.245 . S
C3662 C3658 1.477 . S
C3662 H3679 0.932 . S
C3663 U3646 2.882 . S
C3663 C3657 1.428 . S
C3663 O3666 1.301 . S
C3663 O3667 1.282 . S
O3664 U3646 2.441 . S
O3664 C3650 1.249 . S
O3665 U3646 2.420 . S
O3665 C3650 1.202 . S
O3666 U3646 2.455 . S
O3666 C3663 1.301 . S
O3667 U3646 2.449 . S
O3667 C3663 1.282 . S
H3668 C3641 0.931 . S
H3669 C3643 0.929 . S
H3670 C3644 0.930 . S
H3671 C3645 0.931 . S
H3672 C3652 0.932 . S
H3673 C3653 0.930 . S
H3674 C3654 0.929 . S
H3675 C3656 0.930 . S
H3676 C3658 0.932 . S
H3677 C3659 0.929 . S
H3678 C3660 0.928 . S
H3679 C3662 0.932 . S
C3680 C3681 1.264 . S
C3680 C3685 1.479 . S
C3680 C3690 1.465 . S
C3681 C3680 1.264 . S
C3681 C3683 1.339 . S
C3681 H3708 0.931 . S
C3682 C3683 1.395 . S
C3682 C3684 1.320 . S
C3683 C3681 1.339 . S
C3683 C3682 1.395 . S
C3683 H3709 0.929 . S
C3684 C3682 1.320 . S
C3684 C3685 1.405 . S
C3684 H3710 0.930 . S
C3685 C3680 1.479 . S
C3685 C3684 1.405 . S
C3685 H3711 0.931 . S
U3686 O3687 2.454 . S
U3686 O3688 2.458 . S
U3686 C3689 2.984 . S
U3686 C3690 2.847 . S
U3686 C3703 2.882 . S
U3686 O3704 2.441 . S
U3686 O3705 2.420 . S
U3686 O3706 2.455 . S
U3686 O3707 2.449 . S
O3687 U3686 2.454 . S
O3687 C3689 1.353 . S
O3688 U3686 2.458 . S
O3688 C3689 1.286 . S
C3689 U3686 2.984 . S
C3689 O3687 1.353 . S
C3689 O3688 1.286 . S
C3689 C3691 1.363 . S
C3690 C3680 1.465 . S
C3690 U3686 2.847 . S
C3690 O3704 1.249 . S
C3690 O3705 1.202 . S
C3691 C3689 1.363 . S
C3691 C3693 1.408 . S
C3691 C3696 1.342 . S
C3692 C3693 1.310 . S
C3692 C3695 1.461 . S
C3692 H3712 0.932 . S
C3693 C3691 1.408 . S
C3693 C3692 1.310 . S
C3693 H3713 0.930 . S
C3694 C3695 1.474 . S
C3694 C3696 1.285 . S
C3694 H3714 0.929 . S
C3695 C3692 1.461 . S
C3695 C3694 1.474 . S
C3696 C3691 1.342 . S
C3696 C3694 1.285 . S
C3696 H3715 0.930 . S
C3697 C3700 1.424 . S
C3697 C3702 1.245 . S
C3697 C3703 1.428 . S
C3698 C3701 1.260 . S
C3698 C3702 1.477 . S
C3698 H3716 0.932 . S
C3699 C3700 1.384 . S
C3699 C3701 1.479 . S
C3699 H3717 0.929 . S
C3700 C3697 1.424 . S
C3700 C3699 1.384 . S
C3700 H3718 0.928 . S
C3701 C3698 1.260 . S
C3701 C3699 1.479 . S
C3702 C3697 1.245 . S
C3702 C3698 1.477 . S
C3702 H3719 0.932 . S
C3703 U3686 2.882 . S
C3703 C3697 1.428 . S
C3703 O3706 1.301 . S
C3703 O3707 1.282 . S
O3704 U3686 2.441 . S
O3704 C3690 1.249 . S
O3705 U3686 2.420 . S
O3705 C3690 1.202 . S
O3706 U3686 2.455 . S
O3706 C3703 1.301 . S
O3707 U3686 2.449 . S
O3707 C3703 1.282 . S
H3708 C3681 0.931 . S
H3709 C3683 0.929 . S
H3710 C3684 0.930 . S
H3711 C3685 0.931 . S
H3712 C3692 0.932 . S
H3713 C3693 0.930 . S
H3714 C3694 0.929 . S
H3715 C3696 0.930 . S
H3716 C3698 0.932 . S
H3717 C3699 0.929 . S
H3718 C3700 0.928 . S
H3719 C3702 0.932 . S
C3720 C3721 1.264 . S
C3720 C3725 1.479 . S
C3720 C3730 1.465 . S
C3721 C3720 1.264 . S
C3721 C3723 1.339 . S
C3721 H3748 0.931 . S
C3722 C3723 1.395 . S
C3722 C3724 1.320 . S
C3723 C3721 1.339 . S
C3723 C3722 1.395 . S
C3723 H3749 0.929 . S
C3724 C3722 1.320 . S
C3724 C3725 1.405 . S
C3724 H3750 0.930 . S
C3725 C3720 1.479 . S
C3725 C3724 1.405 . S
C3725 H3751 0.931 . S
U3726 O3727 2.454 . S
U3726 O3728 2.458 . S
U3726 C3729 2.984 . S
U3726 C3730 2.847 . S
U3726 C3743 2.882 . S
U3726 O3744 2.441 . S
U3726 O3745 2.420 . S
U3726 O3746 2.455 . S
U3726 O3747 2.449 . S
O3727 U3726 2.454 . S
O3727 C3729 1.353 . S
O3728 U3726 2.458 . S
O3728 C3729 1.286 . S
C3729 U3726 2.984 . S
C3729 O3727 1.353 . S
C3729 O3728 1.286 . S
C3729 C3731 1.363 . S
C3730 C3720 1.465 . S
C3730 U3726 2.847 . S
C3730 O3744 1.249 . S
C3730 O3745 1.202 . S
C3731 C3729 1.363 . S
C3731 C3733 1.408 . S
C3731 C3736 1.342 . S
C3732 C3733 1.310 . S
C3732 C3735 1.461 . S
C3732 H3752 0.932 . S
C3733 C3731 1.408 . S
C3733 C3732 1.310 . S
C3733 H3753 0.930 . S
C3734 C3735 1.474 . S
C3734 C3736 1.285 . S
C3734 H3754 0.929 . S
C3735 C3732 1.461 . S
C3735 C3734 1.474 . S
C3736 C3731 1.342 . S
C3736 C3734 1.285 . S
C3736 H3755 0.930 . S
C3737 C3740 1.424 . S
C3737 C3742 1.245 . S
C3737 C3743 1.428 . S
C3738 C3741 1.260 . S
C3738 C3742 1.477 . S
C3738 H3756 0.932 . S
C3739 C3740 1.384 . S
C3739 C3741 1.479 . S
C3739 H3757 0.929 . S
C3740 C3737 1.424 . S
C3740 C3739 1.384 . S
C3740 H3758 0.928 . S
C3741 C3738 1.260 . S
C3741 C3739 1.479 . S
C3742 C3737 1.245 . S
C3742 C3738 1.477 . S
C3742 H3759 0.932 . S
C3743 U3726 2.882 . S
C3743 C3737 1.428 . S
C3743 O3746 1.301 . S
C3743 O3747 1.282 . S
O3744 U3726 2.441 . S
O3744 C3730 1.249 . S
O3745 U3726 2.420 . S
O3745 C3730 1.202 . S
O3746 U3726 2.455 . S
O3746 C3743 1.301 . S
O3747 U3726 2.449 . S
O3747 C3743 1.282 . S
H3748 C3721 0.931 . S
H3749 C3723 0.929 . S
H3750 C3724 0.930 . S
H3751 C3725 0.931 . S
H3752 C3732 0.932 . S
H3753 C3733 0.930 . S
H3754 C3734 0.929 . S
H3755 C3736 0.930 . S
H3756 C3738 0.932 . S
H3757 C3739 0.929 . S
H3758 C3740 0.928 . S
H3759 C3742 0.932 . S
C3760 C3761 1.264 . S
C3760 C3765 1.479 . S
C3760 C3770 1.465 . S
C3761 C3760 1.264 . S
C3761 C3763 1.339 . S
C3761 H3788 0.931 . S
C3762 C3763 1.395 . S
C3762 C3764 1.320 . S
C3763 C3761 1.339 . S
C3763 C3762 1.395 . S
C3763 H3789 0.929 . S
C3764 C3762 1.320 . S
C3764 C3765 1.405 . S
C3764 H3790 0.930 . S
C3765 C3760 1.479 . S
C3765 C3764 1.405 . S
C3765 H3791 0.931 . S
U3766 O3767 2.454 . S
U3766 O3768 2.458 . S
U3766 C3769 2.984 . S
U3766 C3770 2.847 . S
U3766 C3783 2.882 . S
U3766 O3784 2.441 . S
U3766 O3785 2.420 . S
U3766 O3786 2.455 . S
U3766 O3787 2.449 . S
O3767 U3766 2.454 . S
O3767 C3769 1.353 . S
O3768 U3766 2.458 . S
O3768 C3769 1.286 . S
C3769 U3766 2.984 . S
C3769 O3767 1.353 . S
C3769 O3768 1.286 . S
C3769 C3771 1.363 . S
C3770 C3760 1.465 . S
C3770 U3766 2.847 . S
C3770 O3784 1.249 . S
C3770 O3785 1.202 . S
C3771 C3769 1.363 . S
C3771 C3773 1.408 . S
C3771 C3776 1.342 . S
C3772 C3773 1.310 . S
C3772 C3775 1.461 . S
C3772 H3792 0.932 . S
C3773 C3771 1.408 . S
C3773 C3772 1.310 . S
C3773 H3793 0.930 . S
C3774 C3775 1.474 . S
C3774 C3776 1.285 . S
C3774 H3794 0.929 . S
C3775 C3772 1.461 . S
C3775 C3774 1.474 . S
C3776 C3771 1.342 . S
C3776 C3774 1.285 . S
C3776 H3795 0.930 . S
C3777 C3780 1.424 . S
C3777 C3782 1.245 . S
C3777 C3783 1.428 . S
C3778 C3781 1.260 . S
C3778 C3782 1.477 . S
C3778 H3796 0.932 . S
C3779 C3780 1.384 . S
C3779 C3781 1.479 . S
C3779 H3797 0.929 . S
C3780 C3777 1.424 . S
C3780 C3779 1.384 . S
C3780 H3798 0.928 . S
C3781 C3778 1.260 . S
C3781 C3779 1.479 . S
C3782 C3777 1.245 . S
C3782 C3778 1.477 . S
C3782 H3799 0.932 . S
C3783 U3766 2.882 . S
C3783 C3777 1.428 . S
C3783 O3786 1.301 . S
C3783 O3787 1.282 . S
O3784 U3766 2.441 . S
O3784 C3770 1.249 . S
O3785 U3766 2.420 . S
O3785 C3770 1.202 . S
O3786 U3766 2.455 . S
O3786 C3783 1.301 . S
O3787 U3766 2.449 . S
O3787 C3783 1.282 . S
H3788 C3761 0.931 . S
H3789 C3763 0.929 . S
H3790 C3764 0.930 . S
H3791 C3765 0.931 . S
H3792 C3772 0.932 . S
H3793 C3773 0.930 . S
H3794 C3774 0.929 . S
H3795 C3776 0.930 . S
H3796 C3778 0.932 . S
H3797 C3779 0.929 . S
H3798 C3780 0.928 . S
H3799 C3782 0.932 . S
C3800 C3801 1.264 . S
C3800 C3805 1.479 . S
C3800 C3810 1.465 . S
C3801 C3800 1.264 . S
C3801 C3803 1.339 . S
C3801 H3828 0.931 . S
C3802 C3803 1.395 . S
C3802 C3804 1.320 . S
C3803 C3801 1.339 . S
C3803 C3802 1.395 . S
C3803 H3829 0.929 . S
C3804 C3802 1.320 . S
C3804 C3805 1.405 . S
C3804 H3830 0.930 . S
C3805 C3800 1.479 . S
C3805 C3804 1.405 . S
C3805 H3831 0.931 . S
U3806 O3807 2.454 . S
U3806 O3808 2.458 . S
U3806 C3809 2.984 . S
U3806 C3810 2.847 . S
U3806 C3823 2.882 . S
U3806 O3824 2.441 . S
U3806 O3825 2.420 . S
U3806 O3826 2.455 . S
U3806 O3827 2.449 . S
O3807 U3806 2.454 . S
O3807 C3809 1.353 . S
O3808 U3806 2.458 . S
O3808 C3809 1.286 . S
C3809 U3806 2.984 . S
C3809 O3807 1.353 . S
C3809 O3808 1.286 . S
C3809 C3811 1.363 . S
C3810 C3800 1.465 . S
C3810 U3806 2.847 . S
C3810 O3824 1.249 . S
C3810 O3825 1.202 . S
C3811 C3809 1.363 . S
C3811 C3813 1.408 . S
C3811 C3816 1.342 . S
C3812 C3813 1.310 . S
C3812 C3815 1.461 . S
C3812 H3832 0.932 . S
C3813 C3811 1.408 . S
C3813 C3812 1.310 . S
C3813 H3833 0.930 . S
C3814 C3815 1.474 . S
C3814 C3816 1.285 . S
C3814 H3834 0.929 . S
C3815 C3812 1.461 . S
C3815 C3814 1.474 . S
C3816 C3811 1.342 . S
C3816 C3814 1.285 . S
C3816 H3835 0.930 . S
C3817 C3820 1.424 . S
C3817 C3822 1.245 . S
C3817 C3823 1.428 . S
C3818 C3821 1.260 . S
C3818 C3822 1.477 . S
C3818 H3836 0.932 . S
C3819 C3820 1.384 . S
C3819 C3821 1.479 . S
C3819 H3837 0.929 . S
C3820 C3817 1.424 . S
C3820 C3819 1.384 . S
C3820 H3838 0.928 . S
C3821 C3818 1.260 . S
C3821 C3819 1.479 . S
C3822 C3817 1.245 . S
C3822 C3818 1.477 . S
C3822 H3839 0.932 . S
C3823 U3806 2.882 . S
C3823 C3817 1.428 . S
C3823 O3826 1.301 . S
C3823 O3827 1.282 . S
O3824 U3806 2.441 . S
O3824 C3810 1.249 . S
O3825 U3806 2.420 . S
O3825 C3810 1.202 . S
O3826 U3806 2.455 . S
O3826 C3823 1.301 . S
O3827 U3806 2.449 . S
O3827 C3823 1.282 . S
H3828 C3801 0.931 . S
H3829 C3803 0.929 . S
H3830 C3804 0.930 . S
H3831 C3805 0.931 . S
H3832 C3812 0.932 . S
H3833 C3813 0.930 . S
H3834 C3814 0.929 . S
H3835 C3816 0.930 . S
H3836 C3818 0.932 . S
H3837 C3819 0.929 . S
H3838 C3820 0.928 . S
H3839 C3822 0.932 . S
P3840 O3851 1.490 . S
P3840 C3854 1.812 . S
P3840 C3860 1.803 . S
P3840 C3866 1.819 . S
H3841 C3855 0.941 . S
H3842 C3856 0.939 . S
H3843 C3858 0.940 . S
H3844 C3859 0.940 . S
H3845 C3861 0.939 . S
H3846 C3862 0.942 . S
H3847 C3864 0.940 . S
H3848 C3865 0.939 . S
H3849 C3867 0.941 . S
H3850 C3871 0.939 . S
O3851 P3840 1.490 . S
H3852 C3868 0.939 . S
H3853 C3870 0.940 . S
C3854 P3840 1.812 . S
C3854 C3855 1.389 . S
C3854 C3859 1.391 . S
C3855 H3841 0.941 . S
C3855 C3854 1.389 . S
C3855 C3856 1.397 . S
C3856 H3842 0.939 . S
C3856 C3855 1.397 . S
C3856 C3857 1.378 . S
C3857 C3856 1.378 . S
C3857 C3858 1.378 . S
C3858 H3843 0.940 . S
C3858 C3857 1.378 . S
C3858 C3859 1.396 . S
C3859 H3844 0.940 . S
C3859 C3854 1.391 . S
C3859 C3858 1.396 . S
C3860 P3840 1.803 . S
C3860 C3861 1.378 . S
C3860 C3865 1.400 . S
C3861 H3845 0.939 . S
C3861 C3860 1.378 . S
C3861 C3862 1.361 . S
C3862 H3846 0.942 . S
C3862 C3861 1.361 . S
C3862 C3863 1.369 . S
C3863 C3862 1.369 . S
C3863 C3864 1.404 . S
C3864 H3847 0.940 . S
C3864 C3863 1.404 . S
C3864 C3865 1.389 . S
C3865 H3848 0.939 . S
C3865 C3860 1.400 . S
C3865 C3864 1.389 . S
C3866 P3840 1.819 . S
C3866 C3867 1.391 . S
C3866 C3871 1.391 . S
C3867 H3849 0.941 . S
C3867 C3866 1.391 . S
C3867 C3868 1.396 . S
C3868 H3852 0.939 . S
C3868 C3867 1.396 . S
C3868 C3869 1.397 . S
C3869 C3868 1.397 . S
C3869 C3870 1.385 . S
C3870 H3853 0.940 . S
C3870 C3869 1.385 . S
C3870 C3871 1.388 . S
C3871 H3850 0.939 . S
C3871 C3866 1.391 . S
C3871 C3870 1.388 . S
P3872 O3883 1.490 . S
P3872 C3886 1.812 . S
P3872 C3892 1.803 . S
P3872 C3898 1.819 . S
H3873 C3887 0.941 . S
H3874 C3888 0.939 . S
H3875 C3890 0.940 . S
H3876 C3891 0.940 . S
H3877 C3893 0.939 . S
H3878 C3894 0.942 . S
H3879 C3896 0.940 . S
H3880 C3897 0.939 . S
H3881 C3899 0.941 . S
H3882 C3903 0.939 . S
O3883 P3872 1.490 . S
H3884 C3900 0.939 . S
H3885 C3902 0.940 . S
C3886 P3872 1.812 . S
C3886 C3887 1.389 . S
C3886 C3891 1.391 . S
C3887 H3873 0.941 . S
C3887 C3886 1.389 . S
C3887 C3888 1.397 . S
C3888 H3874 0.939 . S
C3888 C3887 1.397 . S
C3888 C3889 1.378 . S
C3889 C3888 1.378 . S
C3889 C3890 1.378 . S
C3890 H3875 0.940 . S
C3890 C3889 1.378 . S
C3890 C3891 1.396 . S
C3891 H3876 0.940 . S
C3891 C3886 1.391 . S
C3891 C3890 1.396 . S
C3892 P3872 1.803 . S
C3892 C3893 1.378 . S
C3892 C3897 1.400 . S
C3893 H3877 0.939 . S
C3893 C3892 1.378 . S
C3893 C3894 1.361 . S
C3894 H3878 0.942 . S
C3894 C3893 1.361 . S
C3894 C3895 1.369 . S
C3895 C3894 1.369 . S
C3895 C3896 1.404 . S
C3896 H3879 0.940 . S
C3896 C3895 1.404 . S
C3896 C3897 1.389 . S
C3897 H3880 0.939 . S
C3897 C3892 1.400 . S
C3897 C3896 1.389 . S
C3898 P3872 1.819 . S
C3898 C3899 1.391 . S
C3898 C3903 1.391 . S
C3899 H3881 0.941 . S
C3899 C3898 1.391 . S
C3899 C3900 1.396 . S
C3900 H3884 0.939 . S
C3900 C3899 1.396 . S
C3900 C3901 1.397 . S
C3901 C3900 1.397 . S
C3901 C3902 1.385 . S
C3902 H3885 0.940 . S
C3902 C3901 1.385 . S
C3902 C3903 1.388 . S
C3903 H3882 0.939 . S
C3903 C3898 1.391 . S
C3903 C3902 1.388 . S
P3904 O3915 1.490 . S
P3904 C3918 1.812 . S
P3904 C3924 1.803 . S
P3904 C3930 1.819 . S
H3905 C3919 0.941 . S
H3906 C3920 0.939 . S
H3907 C3922 0.940 . S
H3908 C3923 0.940 . S
H3909 C3925 0.939 . S
H3910 C3926 0.942 . S
H3911 C3928 0.940 . S
H3912 C3929 0.939 . S
H3913 C3931 0.941 . S
H3914 C3935 0.939 . S
O3915 P3904 1.490 . S
H3916 C3932 0.939 . S
H3917 C3934 0.940 . S
C3918 P3904 1.812 . S
C3918 C3919 1.389 . S
C3918 C3923 1.391 . S
C3919 H3905 0.941 . S
C3919 C3918 1.389 . S
C3919 C3920 1.397 . S
C3920 H3906 0.939 . S
C3920 C3919 1.397 . S
C3920 C3921 1.378 . S
C3921 C3920 1.378 . S
C3921 C3922 1.378 . S
C3922 H3907 0.940 . S
C3922 C3921 1.378 . S
C3922 C3923 1.396 . S
C3923 H3908 0.940 . S
C3923 C3918 1.391 . S
C3923 C3922 1.396 . S
C3924 P3904 1.803 . S
C3924 C3925 1.378 . S
C3924 C3929 1.400 . S
C3925 H3909 0.939 . S
C3925 C3924 1.378 . S
C3925 C3926 1.361 . S
C3926 H3910 0.942 . S
C3926 C3925 1.361 . S
C3926 C3927 1.369 . S
C3927 C3926 1.369 . S
C3927 C3928 1.404 . S
C3928 H3911 0.940 . S
C3928 C3927 1.404 . S
C3928 C3929 1.389 . S
C3929 H3912 0.939 . S
C3929 C3924 1.400 . S
C3929 C3928 1.389 . S
C3930 P3904 1.819 . S
C3930 C3931 1.391 . S
C3930 C3935 1.391 . S
C3931 H3913 0.941 . S
C3931 C3930 1.391 . S
C3931 C3932 1.396 . S
C3932 H3916 0.939 . S
C3932 C3931 1.396 . S
C3932 C3933 1.397 . S
C3933 C3932 1.397 . S
C3933 C3934 1.385 . S
C3934 H3917 0.940 . S
C3934 C3933 1.385 . S
C3934 C3935 1.388 . S
C3935 H3914 0.939 . S
C3935 C3930 1.391 . S
C3935 C3934 1.388 . S
P3936 O3947 1.490 . S
P3936 C3950 1.812 . S
P3936 C3956 1.803 . S
P3936 C3962 1.819 . S
H3937 C3951 0.941 . S
H3938 C3952 0.939 . S
H3939 C3954 0.940 . S
H3940 C3955 0.940 . S
H3941 C3957 0.939 . S
H3942 C3958 0.942 . S
H3943 C3960 0.940 . S
H3944 C3961 0.939 . S
H3945 C3963 0.941 . S
H3946 C3967 0.939 . S
O3947 P3936 1.490 . S
H3948 C3964 0.939 . S
H3949 C3966 0.940 . S
C3950 P3936 1.812 . S
C3950 C3951 1.389 . S
C3950 C3955 1.391 . S
C3951 H3937 0.941 . S
C3951 C3950 1.389 . S
C3951 C3952 1.397 . S
C3952 H3938 0.939 . S
C3952 C3951 1.397 . S
C3952 C3953 1.378 . S
C3953 C3952 1.378 . S
C3953 C3954 1.378 . S
C3954 H3939 0.940 . S
C3954 C3953 1.378 . S
C3954 C3955 1.396 . S
C3955 H3940 0.940 . S
C3955 C3950 1.391 . S
C3955 C3954 1.396 . S
C3956 P3936 1.803 . S
C3956 C3957 1.378 . S
C3956 C3961 1.400 . S
C3957 H3941 0.939 . S
C3957 C3956 1.378 . S
C3957 C3958 1.361 . S
C3958 H3942 0.942 . S
C3958 C3957 1.361 . S
C3958 C3959 1.369 . S
C3959 C3958 1.369 . S
C3959 C3960 1.404 . S
C3960 H3943 0.940 . S
C3960 C3959 1.404 . S
C3960 C3961 1.389 . S
C3961 H3944 0.939 . S
C3961 C3956 1.400 . S
C3961 C3960 1.389 . S
C3962 P3936 1.819 . S
C3962 C3963 1.391 . S
C3962 C3967 1.391 . S
C3963 H3945 0.941 . S
C3963 C3962 1.391 . S
C3963 C3964 1.396 . S
C3964 H3948 0.939 . S
C3964 C3963 1.396 . S
C3964 C3965 1.397 . S
C3965 C3964 1.397 . S
C3965 C3966 1.385 . S
C3966 H3949 0.940 . S
C3966 C3965 1.385 . S
C3966 C3967 1.388 . S
C3967 H3946 0.939 . S
C3967 C3962 1.391 . S
C3967 C3966 1.388 . S
P3968 O3979 1.490 . S
P3968 C3982 1.812 . S
P3968 C3988 1.803 . S
P3968 C3994 1.819 . S
H3969 C3983 0.941 . S
H3970 C3984 0.939 . S
H3971 C3986 0.940 . S
H3972 C3987 0.940 . S
H3973 C3989 0.939 . S
H3974 C3990 0.942 . S
H3975 C3992 0.940 . S
H3976 C3993 0.939 . S
H3977 C3995 0.941 . S
H3978 C3999 0.939 . S
O3979 P3968 1.490 . S
H3980 C3996 0.939 . S
H3981 C3998 0.940 . S
C3982 P3968 1.812 . S
C3982 C3983 1.389 . S
C3982 C3987 1.391 . S
C3983 H3969 0.941 . S
C3983 C3982 1.389 . S
C3983 C3984 1.397 . S
C3984 H3970 0.939 . S
C3984 C3983 1.397 . S
C3984 C3985 1.378 . S
C3985 C3984 1.378 . S
C3985 C3986 1.378 . S
C3986 H3971 0.940 . S
C3986 C3985 1.378 . S
C3986 C3987 1.396 . S
C3987 H3972 0.940 . S
C3987 C3982 1.391 . S
C3987 C3986 1.396 . S
C3988 P3968 1.803 . S
C3988 C3989 1.378 . S
C3988 C3993 1.400 . S
C3989 H3973 0.939 . S
C3989 C3988 1.378 . S
C3989 C3990 1.361 . S
C3990 H3974 0.942 . S
C3990 C3989 1.361 . S
C3990 C3991 1.369 . S
C3991 C3990 1.369 . S
C3991 C3992 1.404 . S
C3992 H3975 0.940 . S
C3992 C3991 1.404 . S
C3992 C3993 1.389 . S
C3993 H3976 0.939 . S
C3993 C3988 1.400 . S
C3993 C3992 1.389 . S
C3994 P3968 1.819 . S
C3994 C3995 1.391 . S
C3994 C3999 1.391 . S
C3995 H3977 0.941 . S
C3995 C3994 1.391 . S
C3995 C3996 1.396 . S
C3996 H3980 0.939 . S
C3996 C3995 1.396 . S
C3996 C3997 1.397 . S
C3997 C3996 1.397 . S
C3997 C3998 1.385 . S
C3998 H3981 0.940 . S
C3998 C3997 1.385 . S
C3998 C3999 1.388 . S
C3999 H3978 0.939 . S
C3999 C3994 1.391 . S
C3999 C3998 1.388 . S
P4000 O4011 1.490 . S
P4000 C4014 1.812 . S
P4000 C4020 1.803 . S
P4000 C4026 1.819 . S
H4001 C4015 0.941 . S
H4002 C4016 0.939 . S
H4003 C4018 0.940 . S
H4004 C4019 0.940 . S
H4005 C4021 0.939 . S
H4006 C4022 0.942 . S
H4007 C4024 0.940 . S
H4008 C4025 0.939 . S
H4009 C4027 0.941 . S
H4010 C4031 0.939 . S
O4011 P4000 1.490 . S
H4012 C4028 0.939 . S
H4013 C4030 0.940 . S
C4014 P4000 1.812 . S
C4014 C4015 1.389 . S
C4014 C4019 1.391 . S
C4015 H4001 0.941 . S
C4015 C4014 1.389 . S
C4015 C4016 1.397 . S
C4016 H4002 0.939 . S
C4016 C4015 1.397 . S
C4016 C4017 1.378 . S
C4017 C4016 1.378 . S
C4017 C4018 1.378 . S
C4018 H4003 0.940 . S
C4018 C4017 1.378 . S
C4018 C4019 1.396 . S
C4019 H4004 0.940 . S
C4019 C4014 1.391 . S
C4019 C4018 1.396 . S
C4020 P4000 1.803 . S
C4020 C4021 1.378 . S
C4020 C4025 1.400 . S
C4021 H4005 0.939 . S
C4021 C4020 1.378 . S
C4021 C4022 1.361 . S
C4022 H4006 0.942 . S
C4022 C4021 1.361 . S
C4022 C4023 1.369 . S
C4023 C4022 1.369 . S
C4023 C4024 1.404 . S
C4024 H4007 0.940 . S
C4024 C4023 1.404 . S
C4024 C4025 1.389 . S
C4025 H4008 0.939 . S
C4025 C4020 1.400 . S
C4025 C4024 1.389 . S
C4026 P4000 1.819 . S
C4026 C4027 1.391 . S
C4026 C4031 1.391 . S
C4027 H4009 0.941 . S
C4027 C4026 1.391 . S
C4027 C4028 1.396 . S
C4028 H4012 0.939 . S
C4028 C4027 1.396 . S
C4028 C4029 1.397 . S
C4029 C4028 1.397 . S
C4029 C4030 1.385 . S
C4030 H4013 0.940 . S
C4030 C4029 1.385 . S
C4030 C4031 1.388 . S
C4031 H4010 0.939 . S
C4031 C4026 1.391 . S
C4031 C4030 1.388 . S
P4032 O4043 1.490 . S
P4032 C4046 1.812 . S
P4032 C4052 1.803 . S
P4032 C4058 1.819 . S
H4033 C4047 0.941 . S
H4034 C4048 0.939 . S
H4035 C4050 0.940 . S
H4036 C4051 0.940 . S
H4037 C4053 0.939 . S
H4038 C4054 0.942 . S
H4039 C4056 0.940 . S
H4040 C4057 0.939 . S
H4041 C4059 0.941 . S
H4042 C4063 0.939 . S
O4043 P4032 1.490 . S
H4044 C4060 0.939 . S
H4045 C4062 0.940 . S
C4046 P4032 1.812 . S
C4046 C4047 1.389 . S
C4046 C4051 1.391 . S
C4047 H4033 0.941 . S
C4047 C4046 1.389 . S
C4047 C4048 1.397 . S
C4048 H4034 0.939 . S
C4048 C4047 1.397 . S
C4048 C4049 1.378 . S
C4049 C4048 1.378 . S
C4049 C4050 1.378 . S
C4050 H4035 0.940 . S
C4050 C4049 1.378 . S
C4050 C4051 1.396 . S
C4051 H4036 0.940 . S
C4051 C4046 1.391 . S
C4051 C4050 1.396 . S
C4052 P4032 1.803 . S
C4052 C4053 1.378 . S
C4052 C4057 1.400 . S
C4053 H4037 0.939 . S
C4053 C4052 1.378 . S
C4053 C4054 1.361 . S
C4054 H4038 0.942 . S
C4054 C4053 1.361 . S
C4054 C4055 1.369 . S
C4055 C4054 1.369 . S
C4055 C4056 1.404 . S
C4056 H4039 0.940 . S
C4056 C4055 1.404 . S
C4056 C4057 1.389 . S
C4057 H4040 0.939 . S
C4057 C4052 1.400 . S
C4057 C4056 1.389 . S
C4058 P4032 1.819 . S
C4058 C4059 1.391 . S
C4058 C4063 1.391 . S
C4059 H4041 0.941 . S
C4059 C4058 1.391 . S
C4059 C4060 1.396 . S
C4060 H4044 0.939 . S
C4060 C4059 1.396 . S
C4060 C4061 1.397 . S
C4061 C4060 1.397 . S
C4061 C4062 1.385 . S
C4062 H4045 0.940 . S
C4062 C4061 1.385 . S
C4062 C4063 1.388 . S
C4063 H4042 0.939 . S
C4063 C4058 1.391 . S
C4063 C4062 1.388 . S
P4064 O4075 1.490 . S
P4064 C4078 1.812 . S
P4064 C4084 1.803 . S
P4064 C4090 1.819 . S
H4065 C4079 0.941 . S
H4066 C4080 0.939 . S
H4067 C4082 0.940 . S
H4068 C4083 0.940 . S
H4069 C4085 0.939 . S
H4070 C4086 0.942 . S
H4071 C4088 0.940 . S
H4072 C4089 0.939 . S
H4073 C4091 0.941 . S
H4074 C4095 0.939 . S
O4075 P4064 1.490 . S
H4076 C4092 0.939 . S
H4077 C4094 0.940 . S
C4078 P4064 1.812 . S
C4078 C4079 1.389 . S
C4078 C4083 1.391 . S
C4079 H4065 0.941 . S
C4079 C4078 1.389 . S
C4079 C4080 1.397 . S
C4080 H4066 0.939 . S
C4080 C4079 1.397 . S
C4080 C4081 1.378 . S
C4081 C4080 1.378 . S
C4081 C4082 1.378 . S
C4082 H4067 0.940 . S
C4082 C4081 1.378 . S
C4082 C4083 1.396 . S
C4083 H4068 0.940 . S
C4083 C4078 1.391 . S
C4083 C4082 1.396 . S
C4084 P4064 1.803 . S
C4084 C4085 1.378 . S
C4084 C4089 1.400 . S
C4085 H4069 0.939 . S
C4085 C4084 1.378 . S
C4085 C4086 1.361 . S
C4086 H4070 0.942 . S
C4086 C4085 1.361 . S
C4086 C4087 1.369 . S
C4087 C4086 1.369 . S
C4087 C4088 1.404 . S
C4088 H4071 0.940 . S
C4088 C4087 1.404 . S
C4088 C4089 1.389 . S
C4089 H4072 0.939 . S
C4089 C4084 1.400 . S
C4089 C4088 1.389 . S
C4090 P4064 1.819 . S
C4090 C4091 1.391 . S
C4090 C4095 1.391 . S
C4091 H4073 0.941 . S
C4091 C4090 1.391 . S
C4091 C4092 1.396 . S
C4092 H4076 0.939 . S
C4092 C4091 1.396 . S
C4092 C4093 1.397 . S
C4093 C4092 1.397 . S
C4093 C4094 1.385 . S
C4094 H4077 0.940 . S
C4094 C4093 1.385 . S
C4094 C4095 1.388 . S
C4095 H4074 0.939 . S
C4095 C4090 1.391 . S
C4095 C4094 1.388 . S
P4096 O4107 1.490 . S
P4096 C4110 1.812 . S
P4096 C4116 1.803 . S
P4096 C4122 1.819 . S
H4097 C4111 0.941 . S
H4098 C4112 0.939 . S
H4099 C4114 0.940 . S
H4100 C4115 0.940 . S
H4101 C4117 0.939 . S
H4102 C4118 0.942 . S
H4103 C4120 0.940 . S
H4104 C4121 0.939 . S
H4105 C4123 0.941 . S
H4106 C4127 0.939 . S
O4107 P4096 1.490 . S
H4108 C4124 0.939 . S
H4109 C4126 0.940 . S
C4110 P4096 1.812 . S
C4110 C4111 1.389 . S
C4110 C4115 1.391 . S
C4111 H4097 0.941 . S
C4111 C4110 1.389 . S
C4111 C4112 1.397 . S
C4112 H4098 0.939 . S
C4112 C4111 1.397 . S
C4112 C4113 1.378 . S
C4113 C4112 1.378 . S
C4113 C4114 1.378 . S
C4114 H4099 0.940 . S
C4114 C4113 1.378 . S
C4114 C4115 1.396 . S
C4115 H4100 0.940 . S
C4115 C4110 1.391 . S
C4115 C4114 1.396 . S
C4116 P4096 1.803 . S
C4116 C4117 1.378 . S
C4116 C4121 1.400 . S
C4117 H4101 0.939 . S
C4117 C4116 1.378 . S
C4117 C4118 1.361 . S
C4118 H4102 0.942 . S
C4118 C4117 1.361 . S
C4118 C4119 1.369 . S
C4119 C4118 1.369 . S
C4119 C4120 1.404 . S
C4120 H4103 0.940 . S
C4120 C4119 1.404 . S
C4120 C4121 1.389 . S
C4121 H4104 0.939 . S
C4121 C4116 1.400 . S
C4121 C4120 1.389 . S
C4122 P4096 1.819 . S
C4122 C4123 1.391 . S
C4122 C4127 1.391 . S
C4123 H4105 0.941 . S
C4123 C4122 1.391 . S
C4123 C4124 1.396 . S
C4124 H4108 0.939 . S
C4124 C4123 1.396 . S
C4124 C4125 1.397 . S
C4125 C4124 1.397 . S
C4125 C4126 1.385 . S
C4126 H4109 0.940 . S
C4126 C4125 1.385 . S
C4126 C4127 1.388 . S
C4127 H4106 0.939 . S
C4127 C4122 1.391 . S
C4127 C4126 1.388 . S
P4128 O4139 1.490 . S
P4128 C4142 1.812 . S
P4128 C4148 1.803 . S
P4128 C4154 1.819 . S
H4129 C4143 0.941 . S
H4130 C4144 0.939 . S
H4131 C4146 0.940 . S
H4132 C4147 0.940 . S
H4133 C4149 0.939 . S
H4134 C4150 0.942 . S
H4135 C4152 0.940 . S
H4136 C4153 0.939 . S
H4137 C4155 0.941 . S
H4138 C4159 0.939 . S
O4139 P4128 1.490 . S
H4140 C4156 0.939 . S
H4141 C4158 0.940 . S
C4142 P4128 1.812 . S
C4142 C4143 1.389 . S
C4142 C4147 1.391 . S
C4143 H4129 0.941 . S
C4143 C4142 1.389 . S
C4143 C4144 1.397 . S
C4144 H4130 0.939 . S
C4144 C4143 1.397 . S
C4144 C4145 1.378 . S
C4145 C4144 1.378 . S
C4145 C4146 1.378 . S
C4146 H4131 0.940 . S
C4146 C4145 1.378 . S
C4146 C4147 1.396 . S
C4147 H4132 0.940 . S
C4147 C4142 1.391 . S
C4147 C4146 1.396 . S
C4148 P4128 1.803 . S
C4148 C4149 1.378 . S
C4148 C4153 1.400 . S
C4149 H4133 0.939 . S
C4149 C4148 1.378 . S
C4149 C4150 1.361 . S
C4150 H4134 0.942 . S
C4150 C4149 1.361 . S
C4150 C4151 1.369 . S
C4151 C4150 1.369 . S
C4151 C4152 1.404 . S
C4152 H4135 0.940 . S
C4152 C4151 1.404 . S
C4152 C4153 1.389 . S
C4153 H4136 0.939 . S
C4153 C4148 1.400 . S
C4153 C4152 1.389 . S
C4154 P4128 1.819 . S
C4154 C4155 1.391 . S
C4154 C4159 1.391 . S
C4155 H4137 0.941 . S
C4155 C4154 1.391 . S
C4155 C4156 1.396 . S
C4156 H4140 0.939 . S
C4156 C4155 1.396 . S
C4156 C4157 1.397 . S
C4157 C4156 1.397 . S
C4157 C4158 1.385 . S
C4158 H4141 0.940 . S
C4158 C4157 1.385 . S
C4158 C4159 1.388 . S
C4159 H4138 0.939 . S
C4159 C4154 1.391 . S
C4159 C4158 1.388 . S
P4160 O4171 1.490 . S
P4160 C4174 1.812 . S
P4160 C4180 1.803 . S
P4160 C4186 1.819 . S
H4161 C4175 0.941 . S
H4162 C4176 0.939 . S
H4163 C4178 0.940 . S
H4164 C4179 0.940 . S
H4165 C4181 0.939 . S
H4166 C4182 0.942 . S
H4167 C4184 0.940 . S
H4168 C4185 0.939 . S
H4169 C4187 0.941 . S
H4170 C4191 0.939 . S
O4171 P4160 1.490 . S
H4172 C4188 0.939 . S
H4173 C4190 0.940 . S
C4174 P4160 1.812 . S
C4174 C4175 1.389 . S
C4174 C4179 1.391 . S
C4175 H4161 0.941 . S
C4175 C4174 1.389 . S
C4175 C4176 1.397 . S
C4176 H4162 0.939 . S
C4176 C4175 1.397 . S
C4176 C4177 1.378 . S
C4177 C4176 1.378 . S
C4177 C4178 1.378 . S
C4178 H4163 0.940 . S
C4178 C4177 1.378 . S
C4178 C4179 1.396 . S
C4179 H4164 0.940 . S
C4179 C4174 1.391 . S
C4179 C4178 1.396 . S
C4180 P4160 1.803 . S
C4180 C4181 1.378 . S
C4180 C4185 1.400 . S
C4181 H4165 0.939 . S
C4181 C4180 1.378 . S
C4181 C4182 1.361 . S
C4182 H4166 0.942 . S
C4182 C4181 1.361 . S
C4182 C4183 1.369 . S
C4183 C4182 1.369 . S
C4183 C4184 1.404 . S
C4184 H4167 0.940 . S
C4184 C4183 1.404 . S
C4184 C4185 1.389 . S
C4185 H4168 0.939 . S
C4185 C4180 1.400 . S
C4185 C4184 1.389 . S
C4186 P4160 1.819 . S
C4186 C4187 1.391 . S
C4186 C4191 1.391 . S
C4187 H4169 0.941 . S
C4187 C4186 1.391 . S
C4187 C4188 1.396 . S
C4188 H4172 0.939 . S
C4188 C4187 1.396 . S
C4188 C4189 1.397 . S
C4189 C4188 1.397 . S
C4189 C4190 1.385 . S
C4190 H4173 0.940 . S
C4190 C4189 1.385 . S
C4190 C4191 1.388 . S
C4191 H4170 0.939 . S
C4191 C4186 1.391 . S
C4191 C4190 1.388 . S
P4192 O4203 1.490 . S
P4192 C4206 1.812 . S
P4192 C4212 1.803 . S
P4192 C4218 1.819 . S
H4193 C4207 0.941 . S
H4194 C4208 0.939 . S
H4195 C4210 0.940 . S
H4196 C4211 0.940 . S
H4197 C4213 0.939 . S
H4198 C4214 0.942 . S
H4199 C4216 0.940 . S
H4200 C4217 0.939 . S
H4201 C4219 0.941 . S
H4202 C4223 0.939 . S
O4203 P4192 1.490 . S
H4204 C4220 0.939 . S
H4205 C4222 0.940 . S
C4206 P4192 1.812 . S
C4206 C4207 1.389 . S
C4206 C4211 1.391 . S
C4207 H4193 0.941 . S
C4207 C4206 1.389 . S
C4207 C4208 1.397 . S
C4208 H4194 0.939 . S
C4208 C4207 1.397 . S
C4208 C4209 1.378 . S
C4209 C4208 1.378 . S
C4209 C4210 1.378 . S
C4210 H4195 0.940 . S
C4210 C4209 1.378 . S
C4210 C4211 1.396 . S
C4211 H4196 0.940 . S
C4211 C4206 1.391 . S
C4211 C4210 1.396 . S
C4212 P4192 1.803 . S
C4212 C4213 1.378 . S
C4212 C4217 1.400 . S
C4213 H4197 0.939 . S
C4213 C4212 1.378 . S
C4213 C4214 1.361 . S
C4214 H4198 0.942 . S
C4214 C4213 1.361 . S
C4214 C4215 1.369 . S
C4215 C4214 1.369 . S
C4215 C4216 1.404 . S
C4216 H4199 0.940 . S
C4216 C4215 1.404 . S
C4216 C4217 1.389 . S
C4217 H4200 0.939 . S
C4217 C4212 1.400 . S
C4217 C4216 1.389 . S
C4218 P4192 1.819 . S
C4218 C4219 1.391 . S
C4218 C4223 1.391 . S
C4219 H4201 0.941 . S
C4219 C4218 1.391 . S
C4219 C4220 1.396 . S
C4220 H4204 0.939 . S
C4220 C4219 1.396 . S
C4220 C4221 1.397 . S
C4221 C4220 1.397 . S
C4221 C4222 1.385 . S
C4222 H4205 0.940 . S
C4222 C4221 1.385 . S
C4222 C4223 1.388 . S
C4223 H4202 0.939 . S
C4223 C4218 1.391 . S
C4223 C4222 1.388 . S
P4224 O4235 1.490 . S
P4224 C4238 1.812 . S
P4224 C4244 1.803 . S
P4224 C4250 1.819 . S
H4225 C4239 0.941 . S
H4226 C4240 0.939 . S
H4227 C4242 0.940 . S
H4228 C4243 0.940 . S
H4229 C4245 0.939 . S
H4230 C4246 0.942 . S
H4231 C4248 0.940 . S
H4232 C4249 0.939 . S
H4233 C4251 0.941 . S
H4234 C4255 0.939 . S
O4235 P4224 1.490 . S
H4236 C4252 0.939 . S
H4237 C4254 0.940 . S
C4238 P4224 1.812 . S
C4238 C4239 1.389 . S
C4238 C4243 1.391 . S
C4239 H4225 0.941 . S
C4239 C4238 1.389 . S
C4239 C4240 1.397 . S
C4240 H4226 0.939 . S
C4240 C4239 1.397 . S
C4240 C4241 1.378 . S
C4241 C4240 1.378 . S
C4241 C4242 1.378 . S
C4242 H4227 0.940 . S
C4242 C4241 1.378 . S
C4242 C4243 1.396 . S
C4243 H4228 0.940 . S
C4243 C4238 1.391 . S
C4243 C4242 1.396 . S
C4244 P4224 1.803 . S
C4244 C4245 1.378 . S
C4244 C4249 1.400 . S
C4245 H4229 0.939 . S
C4245 C4244 1.378 . S
C4245 C4246 1.361 . S
C4246 H4230 0.942 . S
C4246 C4245 1.361 . S
C4246 C4247 1.369 . S
C4247 C4246 1.369 . S
C4247 C4248 1.404 . S
C4248 H4231 0.940 . S
C4248 C4247 1.404 . S
C4248 C4249 1.389 . S
C4249 H4232 0.939 . S
C4249 C4244 1.400 . S
C4249 C4248 1.389 . S
C4250 P4224 1.819 . S
C4250 C4251 1.391 . S
C4250 C4255 1.391 . S
C4251 H4233 0.941 . S
C4251 C4250 1.391 . S
C4251 C4252 1.396 . S
C4252 H4236 0.939 . S
C4252 C4251 1.396 . S
C4252 C4253 1.397 . S
C4253 C4252 1.397 . S
C4253 C4254 1.385 . S
C4254 H4237 0.940 . S
C4254 C4253 1.385 . S
C4254 C4255 1.388 . S
C4255 H4234 0.939 . S
C4255 C4250 1.391 . S
C4255 C4254 1.388 . S
P4256 O4267 1.490 . S
P4256 C4270 1.812 . S
P4256 C4276 1.803 . S
P4256 C4282 1.819 . S
H4257 C4271 0.941 . S
H4258 C4272 0.939 . S
H4259 C4274 0.940 . S
H4260 C4275 0.940 . S
H4261 C4277 0.939 . S
H4262 C4278 0.942 . S
H4263 C4280 0.940 . S
H4264 C4281 0.939 . S
H4265 C4283 0.941 . S
H4266 C4287 0.939 . S
O4267 P4256 1.490 . S
H4268 C4284 0.939 . S
H4269 C4286 0.940 . S
C4270 P4256 1.812 . S
C4270 C4271 1.389 . S
C4270 C4275 1.391 . S
C4271 H4257 0.941 . S
C4271 C4270 1.389 . S
C4271 C4272 1.397 . S
C4272 H4258 0.939 . S
C4272 C4271 1.397 . S
C4272 C4273 1.378 . S
C4273 C4272 1.378 . S
C4273 C4274 1.378 . S
C4274 H4259 0.940 . S
C4274 C4273 1.378 . S
C4274 C4275 1.396 . S
C4275 H4260 0.940 . S
C4275 C4270 1.391 . S
C4275 C4274 1.396 . S
C4276 P4256 1.803 . S
C4276 C4277 1.378 . S
C4276 C4281 1.400 . S
C4277 H4261 0.939 . S
C4277 C4276 1.378 . S
C4277 C4278 1.361 . S
C4278 H4262 0.942 . S
C4278 C4277 1.361 . S
C4278 C4279 1.369 . S
C4279 C4278 1.369 . S
C4279 C4280 1.404 . S
C4280 H4263 0.940 . S
C4280 C4279 1.404 . S
C4280 C4281 1.389 . S
C4281 H4264 0.939 . S
C4281 C4276 1.400 . S
C4281 C4280 1.389 . S
C4282 P4256 1.819 . S
C4282 C4283 1.391 . S
C4282 C4287 1.391 . S
C4283 H4265 0.941 . S
C4283 C4282 1.391 . S
C4283 C4284 1.396 . S
C4284 H4268 0.939 . S
C4284 C4283 1.396 . S
C4284 C4285 1.397 . S
C4285 C4284 1.397 . S
C4285 C4286 1.385 . S
C4286 H4269 0.940 . S
C4286 C4285 1.385 . S
C4286 C4287 1.388 . S
C4287 H4266 0.939 . S
C4287 C4282 1.391 . S
C4287 C4286 1.388 . S
P4288 O4299 1.490 . S
P4288 C4302 1.812 . S
P4288 C4308 1.803 . S
P4288 C4314 1.819 . S
H4289 C4303 0.941 . S
H4290 C4304 0.939 . S
H4291 C4306 0.940 . S
H4292 C4307 0.940 . S
H4293 C4309 0.939 . S
H4294 C4310 0.942 . S
H4295 C4312 0.940 . S
H4296 C4313 0.939 . S
H4297 C4315 0.941 . S
H4298 C4319 0.939 . S
O4299 P4288 1.490 . S
H4300 C4316 0.939 . S
H4301 C4318 0.940 . S
C4302 P4288 1.812 . S
C4302 C4303 1.389 . S
C4302 C4307 1.391 . S
C4303 H4289 0.941 . S
C4303 C4302 1.389 . S
C4303 C4304 1.397 . S
C4304 H4290 0.939 . S
C4304 C4303 1.397 . S
C4304 C4305 1.378 . S
C4305 C4304 1.378 . S
C4305 C4306 1.378 . S
C4306 H4291 0.940 . S
C4306 C4305 1.378 . S
C4306 C4307 1.396 . S
C4307 H4292 0.940 . S
C4307 C4302 1.391 . S
C4307 C4306 1.396 . S
C4308 P4288 1.803 . S
C4308 C4309 1.378 . S
C4308 C4313 1.400 . S
C4309 H4293 0.939 . S
C4309 C4308 1.378 . S
C4309 C4310 1.361 . S
C4310 H4294 0.942 . S
C4310 C4309 1.361 . S
C4310 C4311 1.369 . S
C4311 C4310 1.369 . S
C4311 C4312 1.404 . S
C4312 H4295 0.940 . S
C4312 C4311 1.404 . S
C4312 C4313 1.389 . S
C4313 H4296 0.939 . S
C4313 C4308 1.400 . S
C4313 C4312 1.389 . S
C4314 P4288 1.819 . S
C4314 C4315 1.391 . S
C4314 C4319 1.391 . S
C4315 H4297 0.941 . S
C4315 C4314 1.391 . S
C4315 C4316 1.396 . S
C4316 H4300 0.939 . S
C4316 C4315 1.396 . S
C4316 C4317 1.397 . S
C4317 C4316 1.397 . S
C4317 C4318 1.385 . S
C4318 H4301 0.940 . S
C4318 C4317 1.385 . S
C4318 C4319 1.388 . S
C4319 H4298 0.939 . S
C4319 C4314 1.391 . S
C4319 C4318 1.388 . S
P4320 O4331 1.490 . S
P4320 C4334 1.812 . S
P4320 C4340 1.803 . S
P4320 C4346 1.819 . S
H4321 C4335 0.941 . S
H4322 C4336 0.939 . S
H4323 C4338 0.940 . S
H4324 C4339 0.940 . S
H4325 C4341 0.939 . S
H4326 C4342 0.942 . S
H4327 C4344 0.940 . S
H4328 C4345 0.939 . S
H4329 C4347 0.941 . S
H4330 C4351 0.939 . S
O4331 P4320 1.490 . S
H4332 C4348 0.939 . S
H4333 C4350 0.940 . S
C4334 P4320 1.812 . S
C4334 C4335 1.389 . S
C4334 C4339 1.391 . S
C4335 H4321 0.941 . S
C4335 C4334 1.389 . S
C4335 C4336 1.397 . S
C4336 H4322 0.939 . S
C4336 C4335 1.397 . S
C4336 C4337 1.378 . S
C4337 C4336 1.378 . S
C4337 C4338 1.378 . S
C4338 H4323 0.940 . S
C4338 C4337 1.378 . S
C4338 C4339 1.396 . S
C4339 H4324 0.940 . S
C4339 C4334 1.391 . S
C4339 C4338 1.396 . S
C4340 P4320 1.803 . S
C4340 C4341 1.378 . S
C4340 C4345 1.400 . S
C4341 H4325 0.939 . S
C4341 C4340 1.378 . S
C4341 C4342 1.361 . S
C4342 H4326 0.942 . S
C4342 C4341 1.361 . S
C4342 C4343 1.369 . S
C4343 C4342 1.369 . S
C4343 C4344 1.404 . S
C4344 H4327 0.940 . S
C4344 C4343 1.404 . S
C4344 C4345 1.389 . S
C4345 H4328 0.939 . S
C4345 C4340 1.400 . S
C4345 C4344 1.389 . S
C4346 P4320 1.819 . S
C4346 C4347 1.391 . S
C4346 C4351 1.391 . S
C4347 H4329 0.941 . S
C4347 C4346 1.391 . S
C4347 C4348 1.396 . S
C4348 H4332 0.939 . S
C4348 C4347 1.396 . S
C4348 C4349 1.397 . S
C4349 C4348 1.397 . S
C4349 C4350 1.385 . S
C4350 H4333 0.940 . S
C4350 C4349 1.385 . S
C4350 C4351 1.388 . S
C4351 H4330 0.939 . S
C4351 C4346 1.391 . S
C4351 C4350 1.388 . S
P4352 O4363 1.490 . S
P4352 C4366 1.812 . S
P4352 C4372 1.803 . S
P4352 C4378 1.819 . S
H4353 C4367 0.941 . S
H4354 C4368 0.939 . S
H4355 C4370 0.940 . S
H4356 C4371 0.940 . S
H4357 C4373 0.939 . S
H4358 C4374 0.942 . S
H4359 C4376 0.940 . S
H4360 C4377 0.939 . S
H4361 C4379 0.941 . S
H4362 C4383 0.939 . S
O4363 P4352 1.490 . S
H4364 C4380 0.939 . S
H4365 C4382 0.940 . S
C4366 P4352 1.812 . S
C4366 C4367 1.389 . S
C4366 C4371 1.391 . S
C4367 H4353 0.941 . S
C4367 C4366 1.389 . S
C4367 C4368 1.397 . S
C4368 H4354 0.939 . S
C4368 C4367 1.397 . S
C4368 C4369 1.378 . S
C4369 C4368 1.378 . S
C4369 C4370 1.378 . S
C4370 H4355 0.940 . S
C4370 C4369 1.378 . S
C4370 C4371 1.396 . S
C4371 H4356 0.940 . S
C4371 C4366 1.391 . S
C4371 C4370 1.396 . S
C4372 P4352 1.803 . S
C4372 C4373 1.378 . S
C4372 C4377 1.400 . S
C4373 H4357 0.939 . S
C4373 C4372 1.378 . S
C4373 C4374 1.361 . S
C4374 H4358 0.942 . S
C4374 C4373 1.361 . S
C4374 C4375 1.369 . S
C4375 C4374 1.369 . S
C4375 C4376 1.404 . S
C4376 H4359 0.940 . S
C4376 C4375 1.404 . S
C4376 C4377 1.389 . S
C4377 H4360 0.939 . S
C4377 C4372 1.400 . S
C4377 C4376 1.389 . S
C4378 P4352 1.819 . S
C4378 C4379 1.391 . S
C4378 C4383 1.391 . S
C4379 H4361 0.941 . S
C4379 C4378 1.391 . S
C4379 C4380 1.396 . S
C4380 H4364 0.939 . S
C4380 C4379 1.396 . S
C4380 C4381 1.397 . S
C4381 C4380 1.397 . S
C4381 C4382 1.385 . S
C4382 H4365 0.940 . S
C4382 C4381 1.385 . S
C4382 C4383 1.388 . S
C4383 H4362 0.939 . S
C4383 C4378 1.391 . S
C4383 C4382 1.388 . S
P4384 O4395 1.490 . S
P4384 C4398 1.812 . S
P4384 C4404 1.803 . S
P4384 C4410 1.819 . S
H4385 C4399 0.941 . S
H4386 C4400 0.939 . S
H4387 C4402 0.940 . S
H4388 C4403 0.940 . S
H4389 C4405 0.939 . S
H4390 C4406 0.942 . S
H4391 C4408 0.940 . S
H4392 C4409 0.939 . S
H4393 C4411 0.941 . S
H4394 C4415 0.939 . S
O4395 P4384 1.490 . S
H4396 C4412 0.939 . S
H4397 C4414 0.940 . S
C4398 P4384 1.812 . S
C4398 C4399 1.389 . S
C4398 C4403 1.391 . S
C4399 H4385 0.941 . S
C4399 C4398 1.389 . S
C4399 C4400 1.397 . S
C4400 H4386 0.939 . S
C4400 C4399 1.397 . S
C4400 C4401 1.378 . S
C4401 C4400 1.378 . S
C4401 C4402 1.378 . S
C4402 H4387 0.940 . S
C4402 C4401 1.378 . S
C4402 C4403 1.396 . S
C4403 H4388 0.940 . S
C4403 C4398 1.391 . S
C4403 C4402 1.396 . S
C4404 P4384 1.803 . S
C4404 C4405 1.378 . S
C4404 C4409 1.400 . S
C4405 H4389 0.939 . S
C4405 C4404 1.378 . S
C4405 C4406 1.361 . S
C4406 H4390 0.942 . S
C4406 C4405 1.361 . S
C4406 C4407 1.369 . S
C4407 C4406 1.369 . S
C4407 C4408 1.404 . S
C4408 H4391 0.940 . S
C4408 C4407 1.404 . S
C4408 C4409 1.389 . S
C4409 H4392 0.939 . S
C4409 C4404 1.400 . S
C4409 C4408 1.389 . S
C4410 P4384 1.819 . S
C4410 C4411 1.391 . S
C4410 C4415 1.391 . S
C4411 H4393 0.941 . S
C4411 C4410 1.391 . S
C4411 C4412 1.396 . S
C4412 H4396 0.939 . S
C4412 C4411 1.396 . S
C4412 C4413 1.397 . S
C4413 C4412 1.397 . S
C4413 C4414 1.385 . S
C4414 H4397 0.940 . S
C4414 C4413 1.385 . S
C4414 C4415 1.388 . S
C4415 H4394 0.939 . S
C4415 C4410 1.391 . S
C4415 C4414 1.388 . S
P4416 O4427 1.490 . S
P4416 C4430 1.812 . S
P4416 C4436 1.803 . S
P4416 C4442 1.819 . S
H4417 C4431 0.941 . S
H4418 C4432 0.939 . S
H4419 C4434 0.940 . S
H4420 C4435 0.940 . S
H4421 C4437 0.939 . S
H4422 C4438 0.942 . S
H4423 C4440 0.940 . S
H4424 C4441 0.939 . S
H4425 C4443 0.941 . S
H4426 C4447 0.939 . S
O4427 P4416 1.490 . S
H4428 C4444 0.939 . S
H4429 C4446 0.940 . S
C4430 P4416 1.812 . S
C4430 C4431 1.389 . S
C4430 C4435 1.391 . S
C4431 H4417 0.941 . S
C4431 C4430 1.389 . S
C4431 C4432 1.397 . S
C4432 H4418 0.939 . S
C4432 C4431 1.397 . S
C4432 C4433 1.378 . S
C4433 C4432 1.378 . S
C4433 C4434 1.378 . S
C4434 H4419 0.940 . S
C4434 C4433 1.378 . S
C4434 C4435 1.396 . S
C4435 H4420 0.940 . S
C4435 C4430 1.391 . S
C4435 C4434 1.396 . S
C4436 P4416 1.803 . S
C4436 C4437 1.378 . S
C4436 C4441 1.400 . S
C4437 H4421 0.939 . S
C4437 C4436 1.378 . S
C4437 C4438 1.361 . S
C4438 H4422 0.942 . S
C4438 C4437 1.361 . S
C4438 C4439 1.369 . S
C4439 C4438 1.369 . S
C4439 C4440 1.404 . S
C4440 H4423 0.940 . S
C4440 C4439 1.404 . S
C4440 C4441 1.389 . S
C4441 H4424 0.939 . S
C4441 C4436 1.400 . S
C4441 C4440 1.389 . S
C4442 P4416 1.819 . S
C4442 C4443 1.391 . S
C4442 C4447 1.391 . S
C4443 H4425 0.941 . S
C4443 C4442 1.391 . S
C4443 C4444 1.396 . S
C4444 H4428 0.939 . S
C4444 C4443 1.396 . S
C4444 C4445 1.397 . S
C4445 C4444 1.397 . S
C4445 C4446 1.385 . S
C4446 H4429 0.940 . S
C4446 C4445 1.385 . S
C4446 C4447 1.388 . S
C4447 H4426 0.939 . S
C4447 C4442 1.391 . S
C4447 C4446 1.388 . S
P4448 O4459 1.490 . S
P4448 C4462 1.812 . S
P4448 C4468 1.803 . S
P4448 C4474 1.819 . S
H4449 C4463 0.941 . S
H4450 C4464 0.939 . S
H4451 C4466 0.940 . S
H4452 C4467 0.940 . S
H4453 C4469 0.939 . S
H4454 C4470 0.942 . S
H4455 C4472 0.940 . S
H4456 C4473 0.939 . S
H4457 C4475 0.941 . S
H4458 C4479 0.939 . S
O4459 P4448 1.490 . S
H4460 C4476 0.939 . S
H4461 C4478 0.940 . S
C4462 P4448 1.812 . S
C4462 C4463 1.389 . S
C4462 C4467 1.391 . S
C4463 H4449 0.941 . S
C4463 C4462 1.389 . S
C4463 C4464 1.397 . S
C4464 H4450 0.939 . S
C4464 C4463 1.397 . S
C4464 C4465 1.378 . S
C4465 C4464 1.378 . S
C4465 C4466 1.378 . S
C4466 H4451 0.940 . S
C4466 C4465 1.378 . S
C4466 C4467 1.396 . S
C4467 H4452 0.940 . S
C4467 C4462 1.391 . S
C4467 C4466 1.396 . S
C4468 P4448 1.803 . S
C4468 C4469 1.378 . S
C4468 C4473 1.400 . S
C4469 H4453 0.939 . S
C4469 C4468 1.378 . S
C4469 C4470 1.361 . S
C4470 H4454 0.942 . S
C4470 C4469 1.361 . S
C4470 C4471 1.369 . S
C4471 C4470 1.369 . S
C4471 C4472 1.404 . S
C4472 H4455 0.940 . S
C4472 C4471 1.404 . S
C4472 C4473 1.389 . S
C4473 H4456 0.939 . S
C4473 C4468 1.400 . S
C4473 C4472 1.389 . S
C4474 P4448 1.819 . S
C4474 C4475 1.391 . S
C4474 C4479 1.391 . S
C4475 H4457 0.941 . S
C4475 C4474 1.391 . S
C4475 C4476 1.396 . S
C4476 H4460 0.939 . S
C4476 C4475 1.396 . S
C4476 C4477 1.397 . S
C4477 C4476 1.397 . S
C4477 C4478 1.385 . S
C4478 H4461 0.940 . S
C4478 C4477 1.385 . S
C4478 C4479 1.388 . S
C4479 H4458 0.939 . S
C4479 C4474 1.391 . S
C4479 C4478 1.388 . S
P4480 O4491 1.490 . S
P4480 C4494 1.812 . S
P4480 C4500 1.803 . S
P4480 C4506 1.819 . S
H4481 C4495 0.941 . S
H4482 C4496 0.939 . S
H4483 C4498 0.940 . S
H4484 C4499 0.940 . S
H4485 C4501 0.939 . S
H4486 C4502 0.942 . S
H4487 C4504 0.940 . S
H4488 C4505 0.939 . S
H4489 C4507 0.941 . S
H4490 C4511 0.939 . S
O4491 P4480 1.490 . S
H4492 C4508 0.939 . S
H4493 C4510 0.940 . S
C4494 P4480 1.812 . S
C4494 C4495 1.389 . S
C4494 C4499 1.391 . S
C4495 H4481 0.941 . S
C4495 C4494 1.389 . S
C4495 C4496 1.397 . S
C4496 H4482 0.939 . S
C4496 C4495 1.397 . S
C4496 C4497 1.378 . S
C4497 C4496 1.378 . S
C4497 C4498 1.378 . S
C4498 H4483 0.940 . S
C4498 C4497 1.378 . S
C4498 C4499 1.396 . S
C4499 H4484 0.940 . S
C4499 C4494 1.391 . S
C4499 C4498 1.396 . S
C4500 P4480 1.803 . S
C4500 C4501 1.378 . S
C4500 C4505 1.400 . S
C4501 H4485 0.939 . S
C4501 C4500 1.378 . S
C4501 C4502 1.361 . S
C4502 H4486 0.942 . S
C4502 C4501 1.361 . S
C4502 C4503 1.369 . S
C4503 C4502 1.369 . S
C4503 C4504 1.404 . S
C4504 H4487 0.940 . S
C4504 C4503 1.404 . S
C4504 C4505 1.389 . S
C4505 H4488 0.939 . S
C4505 C4500 1.400 . S
C4505 C4504 1.389 . S
C4506 P4480 1.819 . S
C4506 C4507 1.391 . S
C4506 C4511 1.391 . S
C4507 H4489 0.941 . S
C4507 C4506 1.391 . S
C4507 C4508 1.396 . S
C4508 H4492 0.939 . S
C4508 C4507 1.396 . S
C4508 C4509 1.397 . S
C4509 C4508 1.397 . S
C4509 C4510 1.385 . S
C4510 H4493 0.940 . S
C4510 C4509 1.385 . S
C4510 C4511 1.388 . S
C4511 H4490 0.939 . S
C4511 C4506 1.391 . S
C4511 C4510 1.388 . S
P4512 O4523 1.490 . S
P4512 C4526 1.812 . S
P4512 C4532 1.803 . S
P4512 C4538 1.819 . S
H4513 C4527 0.941 . S
H4514 C4528 0.939 . S
H4515 C4530 0.940 . S
H4516 C4531 0.940 . S
H4517 C4533 0.939 . S
H4518 C4534 0.942 . S
H4519 C4536 0.940 . S
H4520 C4537 0.939 . S
H4521 C4539 0.941 . S
H4522 C4543 0.939 . S
O4523 P4512 1.490 . S
H4524 C4540 0.939 . S
H4525 C4542 0.940 . S
C4526 P4512 1.812 . S
C4526 C4527 1.389 . S
C4526 C4531 1.391 . S
C4527 H4513 0.941 . S
C4527 C4526 1.389 . S
C4527 C4528 1.397 . S
C4528 H4514 0.939 . S
C4528 C4527 1.397 . S
C4528 C4529 1.378 . S
C4529 C4528 1.378 . S
C4529 C4530 1.378 . S
C4530 H4515 0.940 . S
C4530 C4529 1.378 . S
C4530 C4531 1.396 . S
C4531 H4516 0.940 . S
C4531 C4526 1.391 . S
C4531 C4530 1.396 . S
C4532 P4512 1.803 . S
C4532 C4533 1.378 . S
C4532 C4537 1.400 . S
C4533 H4517 0.939 . S
C4533 C4532 1.378 . S
C4533 C4534 1.361 . S
C4534 H4518 0.942 . S
C4534 C4533 1.361 . S
C4534 C4535 1.369 . S
C4535 C4534 1.369 . S
C4535 C4536 1.404 . S
C4536 H4519 0.940 . S
C4536 C4535 1.404 . S
C4536 C4537 1.389 . S
C4537 H4520 0.939 . S
C4537 C4532 1.400 . S
C4537 C4536 1.389 . S
C4538 P4512 1.819 . S
C4538 C4539 1.391 . S
C4538 C4543 1.391 . S
C4539 H4521 0.941 . S
C4539 C4538 1.391 . S
C4539 C4540 1.396 . S
C4540 H4524 0.939 . S
C4540 C4539 1.396 . S
C4540 C4541 1.397 . S
C4541 C4540 1.397 . S
C4541 C4542 1.385 . S
C4542 H4525 0.940 . S
C4542 C4541 1.385 . S
C4542 C4543 1.388 . S
C4543 H4522 0.939 . S
C4543 C4538 1.391 . S
C4543 C4542 1.388 . S
P4544 O4555 1.490 . S
P4544 C4558 1.812 . S
P4544 C4564 1.803 . S
P4544 C4570 1.819 . S
H4545 C4559 0.941 . S
H4546 C4560 0.939 . S
H4547 C4562 0.940 . S
H4548 C4563 0.940 . S
H4549 C4565 0.939 . S
H4550 C4566 0.942 . S
H4551 C4568 0.940 . S
H4552 C4569 0.939 . S
H4553 C4571 0.941 . S
H4554 C4575 0.939 . S
O4555 P4544 1.490 . S
H4556 C4572 0.939 . S
H4557 C4574 0.940 . S
C4558 P4544 1.812 . S
C4558 C4559 1.389 . S
C4558 C4563 1.391 . S
C4559 H4545 0.941 . S
C4559 C4558 1.389 . S
C4559 C4560 1.397 . S
C4560 H4546 0.939 . S
C4560 C4559 1.397 . S
C4560 C4561 1.378 . S
C4561 C4560 1.378 . S
C4561 C4562 1.378 . S
C4562 H4547 0.940 . S
C4562 C4561 1.378 . S
C4562 C4563 1.396 . S
C4563 H4548 0.940 . S
C4563 C4558 1.391 . S
C4563 C4562 1.396 . S
C4564 P4544 1.803 . S
C4564 C4565 1.378 . S
C4564 C4569 1.400 . S
C4565 H4549 0.939 . S
C4565 C4564 1.378 . S
C4565 C4566 1.361 . S
C4566 H4550 0.942 . S
C4566 C4565 1.361 . S
C4566 C4567 1.369 . S
C4567 C4566 1.369 . S
C4567 C4568 1.404 . S
C4568 H4551 0.940 . S
C4568 C4567 1.404 . S
C4568 C4569 1.389 . S
C4569 H4552 0.939 . S
C4569 C4564 1.400 . S
C4569 C4568 1.389 . S
C4570 P4544 1.819 . S
C4570 C4571 1.391 . S
C4570 C4575 1.391 . S
C4571 H4553 0.941 . S
C4571 C4570 1.391 . S
C4571 C4572 1.396 . S
C4572 H4556 0.939 . S
C4572 C4571 1.396 . S
C4572 C4573 1.397 . S
C4573 C4572 1.397 . S
C4573 C4574 1.385 . S
C4574 H4557 0.940 . S
C4574 C4573 1.385 . S
C4574 C4575 1.388 . S
C4575 H4554 0.939 . S
C4575 C4570 1.391 . S
C4575 C4574 1.388 . S
P4576 O4587 1.490 . S
P4576 C4590 1.812 . S
P4576 C4596 1.803 . S
P4576 C4602 1.819 . S
H4577 C4591 0.941 . S
H4578 C4592 0.939 . S
H4579 C4594 0.940 . S
H4580 C4595 0.940 . S
H4581 C4597 0.939 . S
H4582 C4598 0.942 . S
H4583 C4600 0.940 . S
H4584 C4601 0.939 . S
H4585 C4603 0.941 . S
H4586 C4607 0.939 . S
O4587 P4576 1.490 . S
H4588 C4604 0.939 . S
H4589 C4606 0.940 . S
C4590 P4576 1.812 . S
C4590 C4591 1.389 . S
C4590 C4595 1.391 . S
C4591 H4577 0.941 . S
C4591 C4590 1.389 . S
C4591 C4592 1.397 . S
C4592 H4578 0.939 . S
C4592 C4591 1.397 . S
C4592 C4593 1.378 . S
C4593 C4592 1.378 . S
C4593 C4594 1.378 . S
C4594 H4579 0.940 . S
C4594 C4593 1.378 . S
C4594 C4595 1.396 . S
C4595 H4580 0.940 . S
C4595 C4590 1.391 . S
C4595 C4594 1.396 . S
C4596 P4576 1.803 . S
C4596 C4597 1.378 . S
C4596 C4601 1.400 . S
C4597 H4581 0.939 . S
C4597 C4596 1.378 . S
C4597 C4598 1.361 . S
C4598 H4582 0.942 . S
C4598 C4597 1.361 . S
C4598 C4599 1.369 . S
C4599 C4598 1.369 . S
C4599 C4600 1.404 . S
C4600 H4583 0.940 . S
C4600 C4599 1.404 . S
C4600 C4601 1.389 . S
C4601 H4584 0.939 . S
C4601 C4596 1.400 . S
C4601 C4600 1.389 . S
C4602 P4576 1.819 . S
C4602 C4603 1.391 . S
C4602 C4607 1.391 . S
C4603 H4585 0.941 . S
C4603 C4602 1.391 . S
C4603 C4604 1.396 . S
C4604 H4588 0.939 . S
C4604 C4603 1.396 . S
C4604 C4605 1.397 . S
C4605 C4604 1.397 . S
C4605 C4606 1.385 . S
C4606 H4589 0.940 . S
C4606 C4605 1.385 . S
C4606 C4607 1.388 . S
C4607 H4586 0.939 . S
C4607 C4602 1.391 . S
C4607 C4606 1.388 . S
P4608 O4619 1.490 . S
P4608 C4622 1.812 . S
P4608 C4628 1.803 . S
P4608 C4634 1.819 . S
H4609 C4623 0.941 . S
H4610 C4624 0.939 . S
H4611 C4626 0.940 . S
H4612 C4627 0.940 . S
H4613 C4629 0.939 . S
H4614 C4630 0.942 . S
H4615 C4632 0.940 . S
H4616 C4633 0.939 . S
H4617 C4635 0.941 . S
H4618 C4639 0.939 . S
O4619 P4608 1.490 . S
H4620 C4636 0.939 . S
H4621 C4638 0.940 . S
C4622 P4608 1.812 . S
C4622 C4623 1.389 . S
C4622 C4627 1.391 . S
C4623 H4609 0.941 . S
C4623 C4622 1.389 . S
C4623 C4624 1.397 . S
C4624 H4610 0.939 . S
C4624 C4623 1.397 . S
C4624 C4625 1.378 . S
C4625 C4624 1.378 . S
C4625 C4626 1.378 . S
C4626 H4611 0.940 . S
C4626 C4625 1.378 . S
C4626 C4627 1.396 . S
C4627 H4612 0.940 . S
C4627 C4622 1.391 . S
C4627 C4626 1.396 . S
C4628 P4608 1.803 . S
C4628 C4629 1.378 . S
C4628 C4633 1.400 . S
C4629 H4613 0.939 . S
C4629 C4628 1.378 . S
C4629 C4630 1.361 . S
C4630 H4614 0.942 . S
C4630 C4629 1.361 . S
C4630 C4631 1.369 . S
C4631 C4630 1.369 . S
C4631 C4632 1.404 . S
C4632 H4615 0.940 . S
C4632 C4631 1.404 . S
C4632 C4633 1.389 . S
C4633 H4616 0.939 . S
C4633 C4628 1.400 . S
C4633 C4632 1.389 . S
C4634 P4608 1.819 . S
C4634 C4635 1.391 . S
C4634 C4639 1.391 . S
C4635 H4617 0.941 . S
C4635 C4634 1.391 . S
C4635 C4636 1.396 . S
C4636 H4620 0.939 . S
C4636 C4635 1.396 . S
C4636 C4637 1.397 . S
C4637 C4636 1.397 . S
C4637 C4638 1.385 . S
C4638 H4621 0.940 . S
C4638 C4637 1.385 . S
C4638 C4639 1.388 . S
C4639 H4618 0.939 . S
C4639 C4634 1.391 . S
C4639 C4638 1.388 . S
P4640 O4651 1.490 . S
P4640 C4654 1.812 . S
P4640 C4660 1.803 . S
P4640 C4666 1.819 . S
H4641 C4655 0.941 . S
H4642 C4656 0.939 . S
H4643 C4658 0.940 . S
H4644 C4659 0.940 . S
H4645 C4661 0.939 . S
H4646 C4662 0.942 . S
H4647 C4664 0.940 . S
H4648 C4665 0.939 . S
H4649 C4667 0.941 . S
H4650 C4671 0.939 . S
O4651 P4640 1.490 . S
H4652 C4668 0.939 . S
H4653 C4670 0.940 . S
C4654 P4640 1.812 . S
C4654 C4655 1.389 . S
C4654 C4659 1.391 . S
C4655 H4641 0.941 . S
C4655 C4654 1.389 . S
C4655 C4656 1.397 . S
C4656 H4642 0.939 . S
C4656 C4655 1.397 . S
C4656 C4657 1.378 . S
C4657 C4656 1.378 . S
C4657 C4658 1.378 . S
C4658 H4643 0.940 . S
C4658 C4657 1.378 . S
C4658 C4659 1.396 . S
C4659 H4644 0.940 . S
C4659 C4654 1.391 . S
C4659 C4658 1.396 . S
C4660 P4640 1.803 . S
C4660 C4661 1.378 . S
C4660 C4665 1.400 . S
C4661 H4645 0.939 . S
C4661 C4660 1.378 . S
C4661 C4662 1.361 . S
C4662 H4646 0.942 . S
C4662 C4661 1.361 . S
C4662 C4663 1.369 . S
C4663 C4662 1.369 . S
C4663 C4664 1.404 . S
C4664 H4647 0.940 . S
C4664 C4663 1.404 . S
C4664 C4665 1.389 . S
C4665 H4648 0.939 . S
C4665 C4660 1.400 . S
C4665 C4664 1.389 . S
C4666 P4640 1.819 . S
C4666 C4667 1.391 . S
C4666 C4671 1.391 . S
C4667 H4649 0.941 . S
C4667 C4666 1.391 . S
C4667 C4668 1.396 . S
C4668 H4652 0.939 . S
C4668 C4667 1.396 . S
C4668 C4669 1.397 . S
C4669 C4668 1.397 . S
C4669 C4670 1.385 . S
C4670 H4653 0.940 . S
C4670 C4669 1.385 . S
C4670 C4671 1.388 . S
C4671 H4650 0.939 . S
C4671 C4666 1.391 . S
C4671 C4670 1.388 . S
P4672 O4683 1.490 . S
P4672 C4686 1.812 . S
P4672 C4692 1.803 . S
P4672 C4698 1.819 . S
H4673 C4687 0.941 . S
H4674 C4688 0.939 . S
H4675 C4690 0.940 . S
H4676 C4691 0.940 . S
H4677 C4693 0.939 . S
H4678 C4694 0.942 . S
H4679 C4696 0.940 . S
H4680 C4697 0.939 . S
H4681 C4699 0.941 . S
H4682 C4703 0.939 . S
O4683 P4672 1.490 . S
H4684 C4700 0.939 . S
H4685 C4702 0.940 . S
C4686 P4672 1.812 . S
C4686 C4687 1.389 . S
C4686 C4691 1.391 . S
C4687 H4673 0.941 . S
C4687 C4686 1.389 . S
C4687 C4688 1.397 . S
C4688 H4674 0.939 . S
C4688 C4687 1.397 . S
C4688 C4689 1.378 . S
C4689 C4688 1.378 . S
C4689 C4690 1.378 . S
C4690 H4675 0.940 . S
C4690 C4689 1.378 . S
C4690 C4691 1.396 . S
C4691 H4676 0.940 . S
C4691 C4686 1.391 . S
C4691 C4690 1.396 . S
C4692 P4672 1.803 . S
C4692 C4693 1.378 . S
C4692 C4697 1.400 . S
C4693 H4677 0.939 . S
C4693 C4692 1.378 . S
C4693 C4694 1.361 . S
C4694 H4678 0.942 . S
C4694 C4693 1.361 . S
C4694 C4695 1.369 . S
C4695 C4694 1.369 . S
C4695 C4696 1.404 . S
C4696 H4679 0.940 . S
C4696 C4695 1.404 . S
C4696 C4697 1.389 . S
C4697 H4680 0.939 . S
C4697 C4692 1.400 . S
C4697 C4696 1.389 . S
C4698 P4672 1.819 . S
C4698 C4699 1.391 . S
C4698 C4703 1.391 . S
C4699 H4681 0.941 . S
C4699 C4698 1.391 . S
C4699 C4700 1.396 . S
C4700 H4684 0.939 . S
C4700 C4699 1.396 . S
C4700 C4701 1.397 . S
C4701 C4700 1.397 . S
C4701 C4702 1.385 . S
C4702 H4685 0.940 . S
C4702 C4701 1.385 . S
C4702 C4703 1.388 . S
C4703 H4682 0.939 . S
C4703 C4698 1.391 . S
C4703 C4702 1.388 . S
P4704 O4715 1.490 . S
P4704 C4718 1.812 . S
P4704 C4724 1.803 . S
P4704 C4730 1.819 . S
H4705 C4719 0.941 . S
H4706 C4720 0.939 . S
H4707 C4722 0.940 . S
H4708 C4723 0.940 . S
H4709 C4725 0.939 . S
H4710 C4726 0.942 . S
H4711 C4728 0.940 . S
H4712 C4729 0.939 . S
H4713 C4731 0.941 . S
H4714 C4735 0.939 . S
O4715 P4704 1.490 . S
H4716 C4732 0.939 . S
H4717 C4734 0.940 . S
C4718 P4704 1.812 . S
C4718 C4719 1.389 . S
C4718 C4723 1.391 . S
C4719 H4705 0.941 . S
C4719 C4718 1.389 . S
C4719 C4720 1.397 . S
C4720 H4706 0.939 . S
C4720 C4719 1.397 . S
C4720 C4721 1.378 . S
C4721 C4720 1.378 . S
C4721 C4722 1.378 . S
C4722 H4707 0.940 . S
C4722 C4721 1.378 . S
C4722 C4723 1.396 . S
C4723 H4708 0.940 . S
C4723 C4718 1.391 . S
C4723 C4722 1.396 . S
C4724 P4704 1.803 . S
C4724 C4725 1.378 . S
C4724 C4729 1.400 . S
C4725 H4709 0.939 . S
C4725 C4724 1.378 . S
C4725 C4726 1.361 . S
C4726 H4710 0.942 . S
C4726 C4725 1.361 . S
C4726 C4727 1.369 . S
C4727 C4726 1.369 . S
C4727 C4728 1.404 . S
C4728 H4711 0.940 . S
C4728 C4727 1.404 . S
C4728 C4729 1.389 . S
C4729 H4712 0.939 . S
C4729 C4724 1.400 . S
C4729 C4728 1.389 . S
C4730 P4704 1.819 . S
C4730 C4731 1.391 . S
C4730 C4735 1.391 . S
C4731 H4713 0.941 . S
C4731 C4730 1.391 . S
C4731 C4732 1.396 . S
C4732 H4716 0.939 . S
C4732 C4731 1.396 . S
C4732 C4733 1.397 . S
C4733 C4732 1.397 . S
C4733 C4734 1.385 . S
C4734 H4717 0.940 . S
C4734 C4733 1.385 . S
C4734 C4735 1.388 . S
C4735 H4714 0.939 . S
C4735 C4730 1.391 . S
C4735 C4734 1.388 . S
P4736 O4747 1.490 . S
P4736 C4750 1.812 . S
P4736 C4756 1.803 . S
P4736 C4762 1.819 . S
H4737 C4751 0.941 . S
H4738 C4752 0.939 . S
H4739 C4754 0.940 . S
H4740 C4755 0.940 . S
H4741 C4757 0.939 . S
H4742 C4758 0.942 . S
H4743 C4760 0.940 . S
H4744 C4761 0.939 . S
H4745 C4763 0.941 . S
H4746 C4767 0.939 . S
O4747 P4736 1.490 . S
H4748 C4764 0.939 . S
H4749 C4766 0.940 . S
C4750 P4736 1.812 . S
C4750 C4751 1.389 . S
C4750 C4755 1.391 . S
C4751 H4737 0.941 . S
C4751 C4750 1.389 . S
C4751 C4752 1.397 . S
C4752 H4738 0.939 . S
C4752 C4751 1.397 . S
C4752 C4753 1.378 . S
C4753 C4752 1.378 . S
C4753 C4754 1.378 . S
C4754 H4739 0.940 . S
C4754 C4753 1.378 . S
C4754 C4755 1.396 . S
C4755 H4740 0.940 . S
C4755 C4750 1.391 . S
C4755 C4754 1.396 . S
C4756 P4736 1.803 . S
C4756 C4757 1.378 . S
C4756 C4761 1.400 . S
C4757 H4741 0.939 . S
C4757 C4756 1.378 . S
C4757 C4758 1.361 . S
C4758 H4742 0.942 . S
C4758 C4757 1.361 . S
C4758 C4759 1.369 . S
C4759 C4758 1.369 . S
C4759 C4760 1.404 . S
C4760 H4743 0.940 . S
C4760 C4759 1.404 . S
C4760 C4761 1.389 . S
C4761 H4744 0.939 . S
C4761 C4756 1.400 . S
C4761 C4760 1.389 . S
C4762 P4736 1.819 . S
C4762 C4763 1.391 . S
C4762 C4767 1.391 . S
C4763 H4745 0.941 . S
C4763 C4762 1.391 . S
C4763 C4764 1.396 . S
C4764 H4748 0.939 . S
C4764 C4763 1.396 . S
C4764 C4765 1.397 . S
C4765 C4764 1.397 . S
C4765 C4766 1.385 . S
C4766 H4749 0.940 . S
C4766 C4765 1.385 . S
C4766 C4767 1.388 . S
C4767 H4746 0.939 . S
C4767 C4762 1.391 . S
C4767 C4766 1.388 . S
P4768 O4779 1.490 . S
P4768 C4782 1.812 . S
P4768 C4788 1.803 . S
P4768 C4794 1.819 . S
H4769 C4783 0.941 . S
H4770 C4784 0.939 . S
H4771 C4786 0.940 . S
H4772 C4787 0.940 . S
H4773 C4789 0.939 . S
H4774 C4790 0.942 . S
H4775 C4792 0.940 . S
H4776 C4793 0.939 . S
H4777 C4795 0.941 . S
H4778 C4799 0.939 . S
O4779 P4768 1.490 . S
H4780 C4796 0.939 . S
H4781 C4798 0.940 . S
C4782 P4768 1.812 . S
C4782 C4783 1.389 . S
C4782 C4787 1.391 . S
C4783 H4769 0.941 . S
C4783 C4782 1.389 . S
C4783 C4784 1.397 . S
C4784 H4770 0.939 . S
C4784 C4783 1.397 . S
C4784 C4785 1.378 . S
C4785 C4784 1.378 . S
C4785 C4786 1.378 . S
C4786 H4771 0.940 . S
C4786 C4785 1.378 . S
C4786 C4787 1.396 . S
C4787 H4772 0.940 . S
C4787 C4782 1.391 . S
C4787 C4786 1.396 . S
C4788 P4768 1.803 . S
C4788 C4789 1.378 . S
C4788 C4793 1.400 . S
C4789 H4773 0.939 . S
C4789 C4788 1.378 . S
C4789 C4790 1.361 . S
C4790 H4774 0.942 . S
C4790 C4789 1.361 . S
C4790 C4791 1.369 . S
C4791 C4790 1.369 . S
C4791 C4792 1.404 . S
C4792 H4775 0.940 . S
C4792 C4791 1.404 . S
C4792 C4793 1.389 . S
C4793 H4776 0.939 . S
C4793 C4788 1.400 . S
C4793 C4792 1.389 . S
C4794 P4768 1.819 . S
C4794 C4795 1.391 . S
C4794 C4799 1.391 . S
C4795 H4777 0.941 . S
C4795 C4794 1.391 . S
C4795 C4796 1.396 . S
C4796 H4780 0.939 . S
C4796 C4795 1.396 . S
C4796 C4797 1.397 . S
C4797 C4796 1.397 . S
C4797 C4798 1.385 . S
C4798 H4781 0.940 . S
C4798 C4797 1.385 . S
C4798 C4799 1.388 . S
C4799 H4778 0.939 . S
C4799 C4794 1.391 . S
C4799 C4798 1.388 . S
P4800 O4811 1.490 . S
P4800 C4814 1.812 . S
P4800 C4820 1.803 . S
P4800 C4826 1.819 . S
H4801 C4815 0.941 . S
H4802 C4816 0.939 . S
H4803 C4818 0.940 . S
H4804 C4819 0.940 . S
H4805 C4821 0.939 . S
H4806 C4822 0.942 . S
H4807 C4824 0.940 . S
H4808 C4825 0.939 . S
H4809 C4827 0.941 . S
H4810 C4831 0.939 . S
O4811 P4800 1.490 . S
H4812 C4828 0.939 . S
H4813 C4830 0.940 . S
C4814 P4800 1.812 . S
C4814 C4815 1.389 . S
C4814 C4819 1.391 . S
C4815 H4801 0.941 . S
C4815 C4814 1.389 . S
C4815 C4816 1.397 . S
C4816 H4802 0.939 . S
C4816 C4815 1.397 . S
C4816 C4817 1.378 . S
C4817 C4816 1.378 . S
C4817 C4818 1.378 . S
C4818 H4803 0.940 . S
C4818 C4817 1.378 . S
C4818 C4819 1.396 . S
C4819 H4804 0.940 . S
C4819 C4814 1.391 . S
C4819 C4818 1.396 . S
C4820 P4800 1.803 . S
C4820 C4821 1.378 . S
C4820 C4825 1.400 . S
C4821 H4805 0.939 . S
C4821 C4820 1.378 . S
C4821 C4822 1.361 . S
C4822 H4806 0.942 . S
C4822 C4821 1.361 . S
C4822 C4823 1.369 . S
C4823 C4822 1.369 . S
C4823 C4824 1.404 . S
C4824 H4807 0.940 . S
C4824 C4823 1.404 . S
C4824 C4825 1.389 . S
C4825 H4808 0.939 . S
C4825 C4820 1.400 . S
C4825 C4824 1.389 . S
C4826 P4800 1.819 . S
C4826 C4827 1.391 . S
C4826 C4831 1.391 . S
C4827 H4809 0.941 . S
C4827 C4826 1.391 . S
C4827 C4828 1.396 . S
C4828 H4812 0.939 . S
C4828 C4827 1.396 . S
C4828 C4829 1.397 . S
C4829 C4828 1.397 . S
C4829 C4830 1.385 . S
C4830 H4813 0.940 . S
C4830 C4829 1.385 . S
C4830 C4831 1.388 . S
C4831 H4810 0.939 . S
C4831 C4826 1.391 . S
C4831 C4830 1.388 . S
P4832 O4843 1.490 . S
P4832 C4846 1.812 . S
P4832 C4852 1.803 . S
P4832 C4858 1.819 . S
H4833 C4847 0.941 . S
H4834 C4848 0.939 . S
H4835 C4850 0.940 . S
H4836 C4851 0.940 . S
H4837 C4853 0.939 . S
H4838 C4854 0.942 . S
H4839 C4856 0.940 . S
H4840 C4857 0.939 . S
H4841 C4859 0.941 . S
H4842 C4863 0.939 . S
O4843 P4832 1.490 . S
H4844 C4860 0.939 . S
H4845 C4862 0.940 . S
C4846 P4832 1.812 . S
C4846 C4847 1.389 . S
C4846 C4851 1.391 . S
C4847 H4833 0.941 . S
C4847 C4846 1.389 . S
C4847 C4848 1.397 . S
C4848 H4834 0.939 . S
C4848 C4847 1.397 . S
C4848 C4849 1.378 . S
C4849 C4848 1.378 . S
C4849 C4850 1.378 . S
C4850 H4835 0.940 . S
C4850 C4849 1.378 . S
C4850 C4851 1.396 . S
C4851 H4836 0.940 . S
C4851 C4846 1.391 . S
C4851 C4850 1.396 . S
C4852 P4832 1.803 . S
C4852 C4853 1.378 . S
C4852 C4857 1.400 . S
C4853 H4837 0.939 . S
C4853 C4852 1.378 . S
C4853 C4854 1.361 . S
C4854 H4838 0.942 . S
C4854 C4853 1.361 . S
C4854 C4855 1.369 . S
C4855 C4854 1.369 . S
C4855 C4856 1.404 . S
C4856 H4839 0.940 . S
C4856 C4855 1.404 . S
C4856 C4857 1.389 . S
C4857 H4840 0.939 . S
C4857 C4852 1.400 . S
C4857 C4856 1.389 . S
C4858 P4832 1.819 . S
C4858 C4859 1.391 . S
C4858 C4863 1.391 . S
C4859 H4841 0.941 . S
C4859 C4858 1.391 . S
C4859 C4860 1.396 . S
C4860 H4844 0.939 . S
C4860 C4859 1.396 . S
C4860 C4861 1.397 . S
C4861 C4860 1.397 . S
C4861 C4862 1.385 . S
C4862 H4845 0.940 . S
C4862 C4861 1.385 . S
C4862 C4863 1.388 . S
C4863 H4842 0.939 . S
C4863 C4858 1.391 . S
C4863 C4862 1.388 . S
P4864 O4875 1.490 . S
P4864 C4878 1.812 . S
P4864 C4884 1.803 . S
P4864 C4890 1.819 . S
H4865 C4879 0.941 . S
H4866 C4880 0.939 . S
H4867 C4882 0.940 . S
H4868 C4883 0.940 . S
H4869 C4885 0.939 . S
H4870 C4886 0.942 . S
H4871 C4888 0.940 . S
H4872 C4889 0.939 . S
H4873 C4891 0.941 . S
H4874 C4895 0.939 . S
O4875 P4864 1.490 . S
H4876 C4892 0.939 . S
H4877 C4894 0.940 . S
C4878 P4864 1.812 . S
C4878 C4879 1.389 . S
C4878 C4883 1.391 . S
C4879 H4865 0.941 . S
C4879 C4878 1.389 . S
C4879 C4880 1.397 . S
C4880 H4866 0.939 . S
C4880 C4879 1.397 . S
C4880 C4881 1.378 . S
C4881 C4880 1.378 . S
C4881 C4882 1.378 . S
C4882 H4867 0.940 . S
C4882 C4881 1.378 . S
C4882 C4883 1.396 . S
C4883 H4868 0.940 . S
C4883 C4878 1.391 . S
C4883 C4882 1.396 . S
C4884 P4864 1.803 . S
C4884 C4885 1.378 . S
C4884 C4889 1.400 . S
C4885 H4869 0.939 . S
C4885 C4884 1.378 . S
C4885 C4886 1.361 . S
C4886 H4870 0.942 . S
C4886 C4885 1.361 . S
C4886 C4887 1.369 . S
C4887 C4886 1.369 . S
C4887 C4888 1.404 . S
C4888 H4871 0.940 . S
C4888 C4887 1.404 . S
C4888 C4889 1.389 . S
C4889 H4872 0.939 . S
C4889 C4884 1.400 . S
C4889 C4888 1.389 . S
C4890 P4864 1.819 . S
C4890 C4891 1.391 . S
C4890 C4895 1.391 . S
C4891 H4873 0.941 . S
C4891 C4890 1.391 . S
C4891 C4892 1.396 . S
C4892 H4876 0.939 . S
C4892 C4891 1.396 . S
C4892 C4893 1.397 . S
C4893 C4892 1.397 . S
C4893 C4894 1.385 . S
C4894 H4877 0.940 . S
C4894 C4893 1.385 . S
C4894 C4895 1.388 . S
C4895 H4874 0.939 . S
C4895 C4890 1.391 . S
C4895 C4894 1.388 . S
P4896 O4907 1.490 . S
P4896 C4910 1.812 . S
P4896 C4916 1.803 . S
P4896 C4922 1.819 . S
H4897 C4911 0.941 . S
H4898 C4912 0.939 . S
H4899 C4914 0.940 . S
H4900 C4915 0.940 . S
H4901 C4917 0.939 . S
H4902 C4918 0.942 . S
H4903 C4920 0.940 . S
H4904 C4921 0.939 . S
H4905 C4923 0.941 . S
H4906 C4927 0.939 . S
O4907 P4896 1.490 . S
H4908 C4924 0.939 . S
H4909 C4926 0.940 . S
C4910 P4896 1.812 . S
C4910 C4911 1.389 . S
C4910 C4915 1.391 . S
C4911 H4897 0.941 . S
C4911 C4910 1.389 . S
C4911 C4912 1.397 . S
C4912 H4898 0.939 . S
C4912 C4911 1.397 . S
C4912 C4913 1.378 . S
C4913 C4912 1.378 . S
C4913 C4914 1.378 . S
C4914 H4899 0.940 . S
C4914 C4913 1.378 . S
C4914 C4915 1.396 . S
C4915 H4900 0.940 . S
C4915 C4910 1.391 . S
C4915 C4914 1.396 . S
C4916 P4896 1.803 . S
C4916 C4917 1.378 . S
C4916 C4921 1.400 . S
C4917 H4901 0.939 . S
C4917 C4916 1.378 . S
C4917 C4918 1.361 . S
C4918 H4902 0.942 . S
C4918 C4917 1.361 . S
C4918 C4919 1.369 . S
C4919 C4918 1.369 . S
C4919 C4920 1.404 . S
C4920 H4903 0.940 . S
C4920 C4919 1.404 . S
C4920 C4921 1.389 . S
C4921 H4904 0.939 . S
C4921 C4916 1.400 . S
C4921 C4920 1.389 . S
C4922 P4896 1.819 . S
C4922 C4923 1.391 . S
C4922 C4927 1.391 . S
C4923 H4905 0.941 . S
C4923 C4922 1.391 . S
C4923 C4924 1.396 . S
C4924 H4908 0.939 . S
C4924 C4923 1.396 . S
C4924 C4925 1.397 . S
C4925 C4924 1.397 . S
C4925 C4926 1.385 . S
C4926 H4909 0.940 . S
C4926 C4925 1.385 . S
C4926 C4927 1.388 . S
C4927 H4906 0.939 . S
C4927 C4922 1.391 . S
C4927 C4926 1.388 . S
P4928 O4939 1.490 . S
P4928 C4942 1.812 . S
P4928 C4948 1.803 . S
P4928 C4954 1.819 . S
H4929 C4943 0.941 . S
H4930 C4944 0.939 . S
H4931 C4946 0.940 . S
H4932 C4947 0.940 . S
H4933 C4949 0.939 . S
H4934 C4950 0.942 . S
H4935 C4952 0.940 . S
H4936 C4953 0.939 . S
H4937 C4955 0.941 . S
H4938 C4959 0.939 . S
O4939 P4928 1.490 . S
H4940 C4956 0.939 . S
H4941 C4958 0.940 . S
C4942 P4928 1.812 . S
C4942 C4943 1.389 . S
C4942 C4947 1.391 . S
C4943 H4929 0.941 . S
C4943 C4942 1.389 . S
C4943 C4944 1.397 . S
C4944 H4930 0.939 . S
C4944 C4943 1.397 . S
C4944 C4945 1.378 . S
C4945 C4944 1.378 . S
C4945 C4946 1.378 . S
C4946 H4931 0.940 . S
C4946 C4945 1.378 . S
C4946 C4947 1.396 . S
C4947 H4932 0.940 . S
C4947 C4942 1.391 . S
C4947 C4946 1.396 . S
C4948 P4928 1.803 . S
C4948 C4949 1.378 . S
C4948 C4953 1.400 . S
C4949 H4933 0.939 . S
C4949 C4948 1.378 . S
C4949 C4950 1.361 . S
C4950 H4934 0.942 . S
C4950 C4949 1.361 . S
C4950 C4951 1.369 . S
C4951 C4950 1.369 . S
C4951 C4952 1.404 . S
C4952 H4935 0.940 . S
C4952 C4951 1.404 . S
C4952 C4953 1.389 . S
C4953 H4936 0.939 . S
C4953 C4948 1.400 . S
C4953 C4952 1.389 . S
C4954 P4928 1.819 . S
C4954 C4955 1.391 . S
C4954 C4959 1.391 . S
C4955 H4937 0.941 . S
C4955 C4954 1.391 . S
C4955 C4956 1.396 . S
C4956 H4940 0.939 . S
C4956 C4955 1.396 . S
C4956 C4957 1.397 . S
C4957 C4956 1.397 . S
C4957 C4958 1.385 . S
C4958 H4941 0.940 . S
C4958 C4957 1.385 . S
C4958 C4959 1.388 . S
C4959 H4938 0.939 . S
C4959 C4954 1.391 . S
C4959 C4958 1.388 . S
P4960 O4971 1.490 . S
P4960 C4974 1.812 . S
P4960 C4980 1.803 . S
P4960 C4986 1.819 . S
H4961 C4975 0.941 . S
H4962 C4976 0.939 . S
H4963 C4978 0.940 . S
H4964 C4979 0.940 . S
H4965 C4981 0.939 . S
H4966 C4982 0.942 . S
H4967 C4984 0.940 . S
H4968 C4985 0.939 . S
H4969 C4987 0.941 . S
H4970 C4991 0.939 . S
O4971 P4960 1.490 . S
H4972 C4988 0.939 . S
H4973 C4990 0.940 . S
C4974 P4960 1.812 . S
C4974 C4975 1.389 . S
C4974 C4979 1.391 . S
C4975 H4961 0.941 . S
C4975 C4974 1.389 . S
C4975 C4976 1.397 . S
C4976 H4962 0.939 . S
C4976 C4975 1.397 . S
C4976 C4977 1.378 . S
C4977 C4976 1.378 . S
C4977 C4978 1.378 . S
C4978 H4963 0.940 . S
C4978 C4977 1.378 . S
C4978 C4979 1.396 . S
C4979 H4964 0.940 . S
C4979 C4974 1.391 . S
C4979 C4978 1.396 . S
C4980 P4960 1.803 . S
C4980 C4981 1.378 . S
C4980 C4985 1.400 . S
C4981 H4965 0.939 . S
C4981 C4980 1.378 . S
C4981 C4982 1.361 . S
C4982 H4966 0.942 . S
C4982 C4981 1.361 . S
C4982 C4983 1.369 . S
C4983 C4982 1.369 . S
C4983 C4984 1.404 . S
C4984 H4967 0.940 . S
C4984 C4983 1.404 . S
C4984 C4985 1.389 . S
C4985 H4968 0.939 . S
C4985 C4980 1.400 . S
C4985 C4984 1.389 . S
C4986 P4960 1.819 . S
C4986 C4987 1.391 . S
C4986 C4991 1.391 . S
C4987 H4969 0.941 . S
C4987 C4986 1.391 . S
C4987 C4988 1.396 . S
C4988 H4972 0.939 . S
C4988 C4987 1.396 . S
C4988 C4989 1.397 . S
C4989 C4988 1.397 . S
C4989 C4990 1.385 . S
C4990 H4973 0.940 . S
C4990 C4989 1.385 . S
C4990 C4991 1.388 . S
C4991 H4970 0.939 . S
C4991 C4986 1.391 . S
C4991 C4990 1.388 . S
P4992 O5003 1.490 . S
P4992 C5006 1.812 . S
P4992 C5012 1.803 . S
P4992 C5018 1.819 . S
H4993 C5007 0.941 . S
H4994 C5008 0.939 . S
H4995 C5010 0.940 . S
H4996 C5011 0.940 . S
H4997 C5013 0.939 . S
H4998 C5014 0.942 . S
H4999 C5016 0.940 . S
H5000 C5017 0.939 . S
H5001 C5019 0.941 . S
H5002 C5023 0.939 . S
O5003 P4992 1.490 . S
H5004 C5020 0.939 . S
H5005 C5022 0.940 . S
C5006 P4992 1.812 . S
C5006 C5007 1.389 . S
C5006 C5011 1.391 . S
C5007 H4993 0.941 . S
C5007 C5006 1.389 . S
C5007 C5008 1.397 . S
C5008 H4994 0.939 . S
C5008 C5007 1.397 . S
C5008 C5009 1.378 . S
C5009 C5008 1.378 . S
C5009 C5010 1.378 . S
C5010 H4995 0.940 . S
C5010 C5009 1.378 . S
C5010 C5011 1.396 . S
C5011 H4996 0.940 . S
C5011 C5006 1.391 . S
C5011 C5010 1.396 . S
C5012 P4992 1.803 . S
C5012 C5013 1.378 . S
C5012 C5017 1.400 . S
C5013 H4997 0.939 . S
C5013 C5012 1.378 . S
C5013 C5014 1.361 . S
C5014 H4998 0.942 . S
C5014 C5013 1.361 . S
C5014 C5015 1.369 . S
C5015 C5014 1.369 . S
C5015 C5016 1.404 . S
C5016 H4999 0.940 . S
C5016 C5015 1.404 . S
C5016 C5017 1.389 . S
C5017 H5000 0.939 . S
C5017 C5012 1.400 . S
C5017 C5016 1.389 . S
C5018 P4992 1.819 . S
C5018 C5019 1.391 . S
C5018 C5023 1.391 . S
C5019 H5001 0.941 . S
C5019 C5018 1.391 . S
C5019 C5020 1.396 . S
C5020 H5004 0.939 . S
C5020 C5019 1.396 . S
C5020 C5021 1.397 . S
C5021 C5020 1.397 . S
C5021 C5022 1.385 . S
C5022 H5005 0.940 . S
C5022 C5021 1.385 . S
C5022 C5023 1.388 . S
C5023 H5002 0.939 . S
C5023 C5018 1.391 . S
C5023 C5022 1.388 . S
P5024 O5035 1.490 . S
P5024 C5038 1.812 . S
P5024 C5044 1.803 . S
P5024 C5050 1.819 . S
H5025 C5039 0.941 . S
H5026 C5040 0.939 . S
H5027 C5042 0.940 . S
H5028 C5043 0.940 . S
H5029 C5045 0.939 . S
H5030 C5046 0.942 . S
H5031 C5048 0.940 . S
H5032 C5049 0.939 . S
H5033 C5051 0.941 . S
H5034 C5055 0.939 . S
O5035 P5024 1.490 . S
H5036 C5052 0.939 . S
H5037 C5054 0.940 . S
C5038 P5024 1.812 . S
C5038 C5039 1.389 . S
C5038 C5043 1.391 . S
C5039 H5025 0.941 . S
C5039 C5038 1.389 . S
C5039 C5040 1.397 . S
C5040 H5026 0.939 . S
C5040 C5039 1.397 . S
C5040 C5041 1.378 . S
C5041 C5040 1.378 . S
C5041 C5042 1.378 . S
C5042 H5027 0.940 . S
C5042 C5041 1.378 . S
C5042 C5043 1.396 . S
C5043 H5028 0.940 . S
C5043 C5038 1.391 . S
C5043 C5042 1.396 . S
C5044 P5024 1.803 . S
C5044 C5045 1.378 . S
C5044 C5049 1.400 . S
C5045 H5029 0.939 . S
C5045 C5044 1.378 . S
C5045 C5046 1.361 . S
C5046 H5030 0.942 . S
C5046 C5045 1.361 . S
C5046 C5047 1.369 . S
C5047 C5046 1.369 . S
C5047 C5048 1.404 . S
C5048 H5031 0.940 . S
C5048 C5047 1.404 . S
C5048 C5049 1.389 . S
C5049 H5032 0.939 . S
C5049 C5044 1.400 . S
C5049 C5048 1.389 . S
C5050 P5024 1.819 . S
C5050 C5051 1.391 . S
C5050 C5055 1.391 . S
C5051 H5033 0.941 . S
C5051 C5050 1.391 . S
C5051 C5052 1.396 . S
C5052 H5036 0.939 . S
C5052 C5051 1.396 . S
C5052 C5053 1.397 . S
C5053 C5052 1.397 . S
C5053 C5054 1.385 . S
C5054 H5037 0.940 . S
C5054 C5053 1.385 . S
C5054 C5055 1.388 . S
C5055 H5034 0.939 . S
C5055 C5050 1.391 . S
C5055 C5054 1.388 . S
P5056 O5067 1.490 . S
P5056 C5070 1.812 . S
P5056 C5076 1.803 . S
P5056 C5082 1.819 . S
H5057 C5071 0.941 . S
H5058 C5072 0.939 . S
H5059 C5074 0.940 . S
H5060 C5075 0.940 . S
H5061 C5077 0.939 . S
H5062 C5078 0.942 . S
H5063 C5080 0.940 . S
H5064 C5081 0.939 . S
H5065 C5083 0.941 . S
H5066 C5087 0.939 . S
O5067 P5056 1.490 . S
H5068 C5084 0.939 . S
H5069 C5086 0.940 . S
C5070 P5056 1.812 . S
C5070 C5071 1.389 . S
C5070 C5075 1.391 . S
C5071 H5057 0.941 . S
C5071 C5070 1.389 . S
C5071 C5072 1.397 . S
C5072 H5058 0.939 . S
C5072 C5071 1.397 . S
C5072 C5073 1.378 . S
C5073 C5072 1.378 . S
C5073 C5074 1.378 . S
C5074 H5059 0.940 . S
C5074 C5073 1.378 . S
C5074 C5075 1.396 . S
C5075 H5060 0.940 . S
C5075 C5070 1.391 . S
C5075 C5074 1.396 . S
C5076 P5056 1.803 . S
C5076 C5077 1.378 . S
C5076 C5081 1.400 . S
C5077 H5061 0.939 . S
C5077 C5076 1.378 . S
C5077 C5078 1.361 . S
C5078 H5062 0.942 . S
C5078 C5077 1.361 . S
C5078 C5079 1.369 . S
C5079 C5078 1.369 . S
C5079 C5080 1.404 . S
C5080 H5063 0.940 . S
C5080 C5079 1.404 . S
C5080 C5081 1.389 . S
C5081 H5064 0.939 . S
C5081 C5076 1.400 . S
C5081 C5080 1.389 . S
C5082 P5056 1.819 . S
C5082 C5083 1.391 . S
C5082 C5087 1.391 . S
C5083 H5065 0.941 . S
C5083 C5082 1.391 . S
C5083 C5084 1.396 . S
C5084 H5068 0.939 . S
C5084 C5083 1.396 . S
C5084 C5085 1.397 . S
C5085 C5084 1.397 . S
C5085 C5086 1.385 . S
C5086 H5069 0.940 . S
C5086 C5085 1.385 . S
C5086 C5087 1.388 . S
C5087 H5066 0.939 . S
C5087 C5082 1.391 . S
C5087 C5086 1.388 . S
P5088 O5099 1.490 . S
P5088 C5102 1.812 . S
P5088 C5108 1.803 . S
P5088 C5114 1.819 . S
H5089 C5103 0.941 . S
H5090 C5104 0.939 . S
H5091 C5106 0.940 . S
H5092 C5107 0.940 . S
H5093 C5109 0.939 . S
H5094 C5110 0.942 . S
H5095 C5112 0.940 . S
H5096 C5113 0.939 . S
H5097 C5115 0.941 . S
H5098 C5119 0.939 . S
O5099 P5088 1.490 . S
H5100 C5116 0.939 . S
H5101 C5118 0.940 . S
C5102 P5088 1.812 . S
C5102 C5103 1.389 . S
C5102 C5107 1.391 . S
C5103 H5089 0.941 . S
C5103 C5102 1.389 . S
C5103 C5104 1.397 . S
C5104 H5090 0.939 . S
C5104 C5103 1.397 . S
C5104 C5105 1.378 . S
C5105 C5104 1.378 . S
C5105 C5106 1.378 . S
C5106 H5091 0.940 . S
C5106 C5105 1.378 . S
C5106 C5107 1.396 . S
C5107 H5092 0.940 . S
C5107 C5102 1.391 . S
C5107 C5106 1.396 . S
C5108 P5088 1.803 . S
C5108 C5109 1.378 . S
C5108 C5113 1.400 . S
C5109 H5093 0.939 . S
C5109 C5108 1.378 . S
C5109 C5110 1.361 . S
C5110 H5094 0.942 . S
C5110 C5109 1.361 . S
C5110 C5111 1.369 . S
C5111 C5110 1.369 . S
C5111 C5112 1.404 . S
C5112 H5095 0.940 . S
C5112 C5111 1.404 . S
C5112 C5113 1.389 . S
C5113 H5096 0.939 . S
C5113 C5108 1.400 . S
C5113 C5112 1.389 . S
C5114 P5088 1.819 . S
C5114 C5115 1.391 . S
C5114 C5119 1.391 . S
C5115 H5097 0.941 . S
C5115 C5114 1.391 . S
C5115 C5116 1.396 . S
C5116 H5100 0.939 . S
C5116 C5115 1.396 . S
C5116 C5117 1.397 . S
C5117 C5116 1.397 . S
C5117 C5118 1.385 . S
C5118 H5101 0.940 . S
C5118 C5117 1.385 . S
C5118 C5119 1.388 . S
C5119 H5098 0.939 . S
C5119 C5114 1.391 . S
C5119 C5118 1.388 . S
P5120 O5131 1.490 . S
P5120 C5134 1.812 . S
P5120 C5140 1.803 . S
P5120 C5146 1.819 . S
H5121 C5135 0.941 . S
H5122 C5136 0.939 . S
H5123 C5138 0.940 . S
H5124 C5139 0.940 . S
H5125 C5141 0.939 . S
H5126 C5142 0.942 . S
H5127 C5144 0.940 . S
H5128 C5145 0.939 . S
H5129 C5147 0.941 . S
H5130 C5151 0.939 . S
O5131 P5120 1.490 . S
H5132 C5148 0.939 . S
H5133 C5150 0.940 . S
C5134 P5120 1.812 . S
C5134 C5135 1.389 . S
C5134 C5139 1.391 . S
C5135 H5121 0.941 . S
C5135 C5134 1.389 . S
C5135 C5136 1.397 . S
C5136 H5122 0.939 . S
C5136 C5135 1.397 . S
C5136 C5137 1.378 . S
C5137 C5136 1.378 . S
C5137 C5138 1.378 . S
C5138 H5123 0.940 . S
C5138 C5137 1.378 . S
C5138 C5139 1.396 . S
C5139 H5124 0.940 . S
C5139 C5134 1.391 . S
C5139 C5138 1.396 . S
C5140 P5120 1.803 . S
C5140 C5141 1.378 . S
C5140 C5145 1.400 . S
C5141 H5125 0.939 . S
C5141 C5140 1.378 . S
C5141 C5142 1.361 . S
C5142 H5126 0.942 . S
C5142 C5141 1.361 . S
C5142 C5143 1.369 . S
C5143 C5142 1.369 . S
C5143 C5144 1.404 . S
C5144 H5127 0.940 . S
C5144 C5143 1.404 . S
C5144 C5145 1.389 . S
C5145 H5128 0.939 . S
C5145 C5140 1.400 . S
C5145 C5144 1.389 . S
C5146 P5120 1.819 . S
C5146 C5147 1.391 . S
C5146 C5151 1.391 . S
C5147 H5129 0.941 . S
C5147 C5146 1.391 . S
C5147 C5148 1.396 . S
C5148 H5132 0.939 . S
C5148 C5147 1.396 . S
C5148 C5149 1.397 . S
C5149 C5148 1.397 . S
C5149 C5150 1.385 . S
C5150 H5133 0.940 . S
C5150 C5149 1.385 . S
C5150 C5151 1.388 . S
C5151 H5130 0.939 . S
C5151 C5146 1.391 . S
C5151 C5150 1.388 . S
P5152 O5163 1.490 . S
P5152 C5166 1.812 . S
P5152 C5172 1.803 . S
P5152 C5178 1.819 . S
H5153 C5167 0.941 . S
H5154 C5168 0.939 . S
H5155 C5170 0.940 . S
H5156 C5171 0.940 . S
H5157 C5173 0.939 . S
H5158 C5174 0.942 . S
H5159 C5176 0.940 . S
H5160 C5177 0.939 . S
H5161 C5179 0.941 . S
H5162 C5183 0.939 . S
O5163 P5152 1.490 . S
H5164 C5180 0.939 . S
H5165 C5182 0.940 . S
C5166 P5152 1.812 . S
C5166 C5167 1.389 . S
C5166 C5171 1.391 . S
C5167 H5153 0.941 . S
C5167 C5166 1.389 . S
C5167 C5168 1.397 . S
C5168 H5154 0.939 . S
C5168 C5167 1.397 . S
C5168 C5169 1.378 . S
C5169 C5168 1.378 . S
C5169 C5170 1.378 . S
C5170 H5155 0.940 . S
C5170 C5169 1.378 . S
C5170 C5171 1.396 . S
C5171 H5156 0.940 . S
C5171 C5166 1.391 . S
C5171 C5170 1.396 . S
C5172 P5152 1.803 . S
C5172 C5173 1.378 . S
C5172 C5177 1.400 . S
C5173 H5157 0.939 . S
C5173 C5172 1.378 . S
C5173 C5174 1.361 . S
C5174 H5158 0.942 . S
C5174 C5173 1.361 . S
C5174 C5175 1.369 . S
C5175 C5174 1.369 . S
C5175 C5176 1.404 . S
C5176 H5159 0.940 . S
C5176 C5175 1.404 . S
C5176 C5177 1.389 . S
C5177 H5160 0.939 . S
C5177 C5172 1.400 . S
C5177 C5176 1.389 . S
C5178 P5152 1.819 . S
C5178 C5179 1.391 . S
C5178 C5183 1.391 . S
C5179 H5161 0.941 . S
C5179 C5178 1.391 . S
C5179 C5180 1.396 . S
C5180 H5164 0.939 . S
C5180 C5179 1.396 . S
C5180 C5181 1.397 . S
C5181 C5180 1.397 . S
C5181 C5182 1.385 . S
C5182 H5165 0.940 . S
C5182 C5181 1.385 . S
C5182 C5183 1.388 . S
C5183 H5162 0.939 . S
C5183 C5178 1.391 . S
C5183 C5182 1.388 . S
P5184 O5195 1.490 . S
P5184 C5198 1.812 . S
P5184 C5204 1.803 . S
P5184 C5210 1.819 . S
H5185 C5199 0.941 . S
H5186 C5200 0.939 . S
H5187 C5202 0.940 . S
H5188 C5203 0.940 . S
H5189 C5205 0.939 . S
H5190 C5206 0.942 . S
H5191 C5208 0.940 . S
H5192 C5209 0.939 . S
H5193 C5211 0.941 . S
H5194 C5215 0.939 . S
O5195 P5184 1.490 . S
H5196 C5212 0.939 . S
H5197 C5214 0.940 . S
C5198 P5184 1.812 . S
C5198 C5199 1.389 . S
C5198 C5203 1.391 . S
C5199 H5185 0.941 . S
C5199 C5198 1.389 . S
C5199 C5200 1.397 . S
C5200 H5186 0.939 . S
C5200 C5199 1.397 . S
C5200 C5201 1.378 . S
C5201 C5200 1.378 . S
C5201 C5202 1.378 . S
C5202 H5187 0.940 . S
C5202 C5201 1.378 . S
C5202 C5203 1.396 . S
C5203 H5188 0.940 . S
C5203 C5198 1.391 . S
C5203 C5202 1.396 . S
C5204 P5184 1.803 . S
C5204 C5205 1.378 . S
C5204 C5209 1.400 . S
C5205 H5189 0.939 . S
C5205 C5204 1.378 . S
C5205 C5206 1.361 . S
C5206 H5190 0.942 . S
C5206 C5205 1.361 . S
C5206 C5207 1.369 . S
C5207 C5206 1.369 . S
C5207 C5208 1.404 . S
C5208 H5191 0.940 . S
C5208 C5207 1.404 . S
C5208 C5209 1.389 . S
C5209 H5192 0.939 . S
C5209 C5204 1.400 . S
C5209 C5208 1.389 . S
C5210 P5184 1.819 . S
C5210 C5211 1.391 . S
C5210 C5215 1.391 . S
C5211 H5193 0.941 . S
C5211 C5210 1.391 . S
C5211 C5212 1.396 . S
C5212 H5196 0.939 . S
C5212 C5211 1.396 . S
C5212 C5213 1.397 . S
C5213 C5212 1.397 . S
C5213 C5214 1.385 . S
C5214 H5197 0.940 . S
C5214 C5213 1.385 . S
C5214 C5215 1.388 . S
C5215 H5194 0.939 . S
C5215 C5210 1.391 . S
C5215 C5214 1.388 . S
P5216 O5227 1.490 . S
P5216 C5230 1.812 . S
P5216 C5236 1.803 . S
P5216 C5242 1.819 . S
H5217 C5231 0.941 . S
H5218 C5232 0.939 . S
H5219 C5234 0.940 . S
H5220 C5235 0.940 . S
H5221 C5237 0.939 . S
H5222 C5238 0.942 . S
H5223 C5240 0.940 . S
H5224 C5241 0.939 . S
H5225 C5243 0.941 . S
H5226 C5247 0.939 . S
O5227 P5216 1.490 . S
H5228 C5244 0.939 . S
H5229 C5246 0.940 . S
C5230 P5216 1.812 . S
C5230 C5231 1.389 . S
C5230 C5235 1.391 . S
C5231 H5217 0.941 . S
C5231 C5230 1.389 . S
C5231 C5232 1.397 . S
C5232 H5218 0.939 . S
C5232 C5231 1.397 . S
C5232 C5233 1.378 . S
C5233 C5232 1.378 . S
C5233 C5234 1.378 . S
C5234 H5219 0.940 . S
C5234 C5233 1.378 . S
C5234 C5235 1.396 . S
C5235 H5220 0.940 . S
C5235 C5230 1.391 . S
C5235 C5234 1.396 . S
C5236 P5216 1.803 . S
C5236 C5237 1.378 . S
C5236 C5241 1.400 . S
C5237 H5221 0.939 . S
C5237 C5236 1.378 . S
C5237 C5238 1.361 . S
C5238 H5222 0.942 . S
C5238 C5237 1.361 . S
C5238 C5239 1.369 . S
C5239 C5238 1.369 . S
C5239 C5240 1.404 . S
C5240 H5223 0.940 . S
C5240 C5239 1.404 . S
C5240 C5241 1.389 . S
C5241 H5224 0.939 . S
C5241 C5236 1.400 . S
C5241 C5240 1.389 . S
C5242 P5216 1.819 . S
C5242 C5243 1.391 . S
C5242 C5247 1.391 . S
C5243 H5225 0.941 . S
C5243 C5242 1.391 . S
C5243 C5244 1.396 . S
C5244 H5228 0.939 . S
C5244 C5243 1.396 . S
C5244 C5245 1.397 . S
C5245 C5244 1.397 . S
C5245 C5246 1.385 . S
C5246 H5229 0.940 . S
C5246 C5245 1.385 . S
C5246 C5247 1.388 . S
C5247 H5226 0.939 . S
C5247 C5242 1.391 . S
C5247 C5246 1.388 . S
P5248 O5259 1.490 . S
P5248 C5262 1.812 . S
P5248 C5268 1.803 . S
P5248 C5274 1.819 . S
H5249 C5263 0.941 . S
H5250 C5264 0.939 . S
H5251 C5266 0.940 . S
H5252 C5267 0.940 . S
H5253 C5269 0.939 . S
H5254 C5270 0.942 . S
H5255 C5272 0.940 . S
H5256 C5273 0.939 . S
H5257 C5275 0.941 . S
H5258 C5279 0.939 . S
O5259 P5248 1.490 . S
H5260 C5276 0.939 . S
H5261 C5278 0.940 . S
C5262 P5248 1.812 . S
C5262 C5263 1.389 . S
C5262 C5267 1.391 . S
C5263 H5249 0.941 . S
C5263 C5262 1.389 . S
C5263 C5264 1.397 . S
C5264 H5250 0.939 . S
C5264 C5263 1.397 . S
C5264 C5265 1.378 . S
C5265 C5264 1.378 . S
C5265 C5266 1.378 . S
C5266 H5251 0.940 . S
C5266 C5265 1.378 . S
C5266 C5267 1.396 . S
C5267 H5252 0.940 . S
C5267 C5262 1.391 . S
C5267 C5266 1.396 . S
C5268 P5248 1.803 . S
C5268 C5269 1.378 . S
C5268 C5273 1.400 . S
C5269 H5253 0.939 . S
C5269 C5268 1.378 . S
C5269 C5270 1.361 . S
C5270 H5254 0.942 . S
C5270 C5269 1.361 . S
C5270 C5271 1.369 . S
C5271 C5270 1.369 . S
C5271 C5272 1.404 . S
C5272 H5255 0.940 . S
C5272 C5271 1.404 . S
C5272 C5273 1.389 . S
C5273 H5256 0.939 . S
C5273 C5268 1.400 . S
C5273 C5272 1.389 . S
C5274 P5248 1.819 . S
C5274 C5275 1.391 . S
C5274 C5279 1.391 . S
C5275 H5257 0.941 . S
C5275 C5274 1.391 . S
C5275 C5276 1.396 . S
C5276 H5260 0.939 . S
C5276 C5275 1.396 . S
C5276 C5277 1.397 . S
C5277 C5276 1.397 . S
C5277 C5278 1.385 . S
C5278 H5261 0.940 . S
C5278 C5277 1.385 . S
C5278 C5279 1.388 . S
C5279 H5258 0.939 . S
C5279 C5274 1.391 . S
C5279 C5278 1.388 . S
P5280 O5291 1.490 . S
P5280 C5294 1.812 . S
P5280 C5300 1.803 . S
P5280 C5306 1.819 . S
H5281 C5295 0.941 . S
H5282 C5296 0.939 . S
H5283 C5298 0.940 . S
H5284 C5299 0.940 . S
H5285 C5301 0.939 . S
H5286 C5302 0.942 . S
H5287 C5304 0.940 . S
H5288 C5305 0.939 . S
H5289 C5307 0.941 . S
H5290 C5311 0.939 . S
O5291 P5280 1.490 . S
H5292 C5308 0.939 . S
H5293 C5310 0.940 . S
C5294 P5280 1.812 . S
C5294 C5295 1.389 . S
C5294 C5299 1.391 . S
C5295 H5281 0.941 . S
C5295 C5294 1.389 . S
C5295 C5296 1.397 . S
C5296 H5282 0.939 . S
C5296 C5295 1.397 . S
C5296 C5297 1.378 . S
C5297 C5296 1.378 . S
C5297 C5298 1.378 . S
C5298 H5283 0.940 . S
C5298 C5297 1.378 . S
C5298 C5299 1.396 . S
C5299 H5284 0.940 . S
C5299 C5294 1.391 . S
C5299 C5298 1.396 . S
C5300 P5280 1.803 . S
C5300 C5301 1.378 . S
C5300 C5305 1.400 . S
C5301 H5285 0.939 . S
C5301 C5300 1.378 . S
C5301 C5302 1.361 . S
C5302 H5286 0.942 . S
C5302 C5301 1.361 . S
C5302 C5303 1.369 . S
C5303 C5302 1.369 . S
C5303 C5304 1.404 . S
C5304 H5287 0.940 . S
C5304 C5303 1.404 . S
C5304 C5305 1.389 . S
C5305 H5288 0.939 . S
C5305 C5300 1.400 . S
C5305 C5304 1.389 . S
C5306 P5280 1.819 . S
C5306 C5307 1.391 . S
C5306 C5311 1.391 . S
C5307 H5289 0.941 . S
C5307 C5306 1.391 . S
C5307 C5308 1.396 . S
C5308 H5292 0.939 . S
C5308 C5307 1.396 . S
C5308 C5309 1.397 . S
C5309 C5308 1.397 . S
C5309 C5310 1.385 . S
C5310 H5293 0.940 . S
C5310 C5309 1.385 . S
C5310 C5311 1.388 . S
C5311 H5290 0.939 . S
C5311 C5306 1.391 . S
C5311 C5310 1.388 . S
P5312 O5323 1.490 . S
P5312 C5326 1.812 . S
P5312 C5332 1.803 . S
P5312 C5338 1.819 . S
H5313 C5327 0.941 . S
H5314 C5328 0.939 . S
H5315 C5330 0.940 . S
H5316 C5331 0.940 . S
H5317 C5333 0.939 . S
H5318 C5334 0.942 . S
H5319 C5336 0.940 . S
H5320 C5337 0.939 . S
H5321 C5339 0.941 . S
H5322 C5343 0.939 . S
O5323 P5312 1.490 . S
H5324 C5340 0.939 . S
H5325 C5342 0.940 . S
C5326 P5312 1.812 . S
C5326 C5327 1.389 . S
C5326 C5331 1.391 . S
C5327 H5313 0.941 . S
C5327 C5326 1.389 . S
C5327 C5328 1.397 . S
C5328 H5314 0.939 . S
C5328 C5327 1.397 . S
C5328 C5329 1.378 . S
C5329 C5328 1.378 . S
C5329 C5330 1.378 . S
C5330 H5315 0.940 . S
C5330 C5329 1.378 . S
C5330 C5331 1.396 . S
C5331 H5316 0.940 . S
C5331 C5326 1.391 . S
C5331 C5330 1.396 . S
C5332 P5312 1.803 . S
C5332 C5333 1.378 . S
C5332 C5337 1.400 . S
C5333 H5317 0.939 . S
C5333 C5332 1.378 . S
C5333 C5334 1.361 . S
C5334 H5318 0.942 . S
C5334 C5333 1.361 . S
C5334 C5335 1.369 . S
C5335 C5334 1.369 . S
C5335 C5336 1.404 . S
C5336 H5319 0.940 . S
C5336 C5335 1.404 . S
C5336 C5337 1.389 . S
C5337 H5320 0.939 . S
C5337 C5332 1.400 . S
C5337 C5336 1.389 . S
C5338 P5312 1.819 . S
C5338 C5339 1.391 . S
C5338 C5343 1.391 . S
C5339 H5321 0.941 . S
C5339 C5338 1.391 . S
C5339 C5340 1.396 . S
C5340 H5324 0.939 . S
C5340 C5339 1.396 . S
C5340 C5341 1.397 . S
C5341 C5340 1.397 . S
C5341 C5342 1.385 . S
C5342 H5325 0.940 . S
C5342 C5341 1.385 . S
C5342 C5343 1.388 . S
C5343 H5322 0.939 . S
C5343 C5338 1.391 . S
C5343 C5342 1.388 . S
P5344 O5355 1.490 . S
P5344 C5358 1.812 . S
P5344 C5364 1.803 . S
P5344 C5370 1.819 . S
H5345 C5359 0.941 . S
H5346 C5360 0.939 . S
H5347 C5362 0.940 . S
H5348 C5363 0.940 . S
H5349 C5365 0.939 . S
H5350 C5366 0.942 . S
H5351 C5368 0.940 . S
H5352 C5369 0.939 . S
H5353 C5371 0.941 . S
H5354 C5375 0.939 . S
O5355 P5344 1.490 . S
H5356 C5372 0.939 . S
H5357 C5374 0.940 . S
C5358 P5344 1.812 . S
C5358 C5359 1.389 . S
C5358 C5363 1.391 . S
C5359 H5345 0.941 . S
C5359 C5358 1.389 . S
C5359 C5360 1.397 . S
C5360 H5346 0.939 . S
C5360 C5359 1.397 . S
C5360 C5361 1.378 . S
C5361 C5360 1.378 . S
C5361 C5362 1.378 . S
C5362 H5347 0.940 . S
C5362 C5361 1.378 . S
C5362 C5363 1.396 . S
C5363 H5348 0.940 . S
C5363 C5358 1.391 . S
C5363 C5362 1.396 . S
C5364 P5344 1.803 . S
C5364 C5365 1.378 . S
C5364 C5369 1.400 . S
C5365 H5349 0.939 . S
C5365 C5364 1.378 . S
C5365 C5366 1.361 . S
C5366 H5350 0.942 . S
C5366 C5365 1.361 . S
C5366 C5367 1.369 . S
C5367 C5366 1.369 . S
C5367 C5368 1.404 . S
C5368 H5351 0.940 . S
C5368 C5367 1.404 . S
C5368 C5369 1.389 . S
C5369 H5352 0.939 . S
C5369 C5364 1.400 . S
C5369 C5368 1.389 . S
C5370 P5344 1.819 . S
C5370 C5371 1.391 . S
C5370 C5375 1.391 . S
C5371 H5353 0.941 . S
C5371 C5370 1.391 . S
C5371 C5372 1.396 . S
C5372 H5356 0.939 . S
C5372 C5371 1.396 . S
C5372 C5373 1.397 . S
C5373 C5372 1.397 . S
C5373 C5374 1.385 . S
C5374 H5357 0.940 . S
C5374 C5373 1.385 . S
C5374 C5375 1.388 . S
C5375 H5354 0.939 . S
C5375 C5370 1.391 . S
C5375 C5374 1.388 . S
P5376 O5387 1.490 . S
P5376 C5390 1.812 . S
P5376 C5396 1.803 . S
P5376 C5402 1.819 . S
H5377 C5391 0.941 . S
H5378 C5392 0.939 . S
H5379 C5394 0.940 . S
H5380 C5395 0.940 . S
H5381 C5397 0.939 . S
H5382 C5398 0.942 . S
H5383 C5400 0.940 . S
H5384 C5401 0.939 . S
H5385 C5403 0.941 . S
H5386 C5407 0.939 . S
O5387 P5376 1.490 . S
H5388 C5404 0.939 . S
H5389 C5406 0.940 . S
C5390 P5376 1.812 . S
C5390 C5391 1.389 . S
C5390 C5395 1.391 . S
C5391 H5377 0.941 . S
C5391 C5390 1.389 . S
C5391 C5392 1.397 . S
C5392 H5378 0.939 . S
C5392 C5391 1.397 . S
C5392 C5393 1.378 . S
C5393 C5392 1.378 . S
C5393 C5394 1.378 . S
C5394 H5379 0.940 . S
C5394 C5393 1.378 . S
C5394 C5395 1.396 . S
C5395 H5380 0.940 . S
C5395 C5390 1.391 . S
C5395 C5394 1.396 . S
C5396 P5376 1.803 . S
C5396 C5397 1.378 . S
C5396 C5401 1.400 . S
C5397 H5381 0.939 . S
C5397 C5396 1.378 . S
C5397 C5398 1.361 . S
C5398 H5382 0.942 . S
C5398 C5397 1.361 . S
C5398 C5399 1.369 . S
C5399 C5398 1.369 . S
C5399 C5400 1.404 . S
C5400 H5383 0.940 . S
C5400 C5399 1.404 . S
C5400 C5401 1.389 . S
C5401 H5384 0.939 . S
C5401 C5396 1.400 . S
C5401 C5400 1.389 . S
C5402 P5376 1.819 . S
C5402 C5403 1.391 . S
C5402 C5407 1.391 . S
C5403 H5385 0.941 . S
C5403 C5402 1.391 . S
C5403 C5404 1.396 . S
C5404 H5388 0.939 . S
C5404 C5403 1.396 . S
C5404 C5405 1.397 . S
C5405 C5404 1.397 . S
C5405 C5406 1.385 . S
C5406 H5389 0.940 . S
C5406 C5405 1.385 . S
C5406 C5407 1.388 . S
C5407 H5386 0.939 . S
C5407 C5402 1.391 . S
C5407 C5406 1.388 . S
P5408 O5419 1.490 . S
P5408 C5422 1.812 . S
P5408 C5428 1.803 . S
P5408 C5434 1.819 . S
H5409 C5423 0.941 . S
H5410 C5424 0.939 . S
H5411 C5426 0.940 . S
H5412 C5427 0.940 . S
H5413 C5429 0.939 . S
H5414 C5430 0.942 . S
H5415 C5432 0.940 . S
H5416 C5433 0.939 . S
H5417 C5435 0.941 . S
H5418 C5439 0.939 . S
O5419 P5408 1.490 . S
H5420 C5436 0.939 . S
H5421 C5438 0.940 . S
C5422 P5408 1.812 . S
C5422 C5423 1.389 . S
C5422 C5427 1.391 . S
C5423 H5409 0.941 . S
C5423 C5422 1.389 . S
C5423 C5424 1.397 . S
C5424 H5410 0.939 . S
C5424 C5423 1.397 . S
C5424 C5425 1.378 . S
C5425 C5424 1.378 . S
C5425 C5426 1.378 . S
C5426 H5411 0.940 . S
C5426 C5425 1.378 . S
C5426 C5427 1.396 . S
C5427 H5412 0.940 . S
C5427 C5422 1.391 . S
C5427 C5426 1.396 . S
C5428 P5408 1.803 . S
C5428 C5429 1.378 . S
C5428 C5433 1.400 . S
C5429 H5413 0.939 . S
C5429 C5428 1.378 . S
C5429 C5430 1.361 . S
C5430 H5414 0.942 . S
C5430 C5429 1.361 . S
C5430 C5431 1.369 . S
C5431 C5430 1.369 . S
C5431 C5432 1.404 . S
C5432 H5415 0.940 . S
C5432 C5431 1.404 . S
C5432 C5433 1.389 . S
C5433 H5416 0.939 . S
C5433 C5428 1.400 . S
C5433 C5432 1.389 . S
C5434 P5408 1.819 . S
C5434 C5435 1.391 . S
C5434 C5439 1.391 . S
C5435 H5417 0.941 . S
C5435 C5434 1.391 . S
C5435 C5436 1.396 . S
C5436 H5420 0.939 . S
C5436 C5435 1.396 . S
C5436 C5437 1.397 . S
C5437 C5436 1.397 . S
C5437 C5438 1.385 . S
C5438 H5421 0.940 . S
C5438 C5437 1.385 . S
C5438 C5439 1.388 . S
C5439 H5418 0.939 . S
C5439 C5434 1.391 . S
C5439 C5438 1.388 . S
P5440 O5451 1.490 . S
P5440 C5454 1.812 . S
P5440 C5460 1.803 . S
P5440 C5466 1.819 . S
H5441 C5455 0.941 . S
H5442 C5456 0.939 . S
H5443 C5458 0.940 . S
H5444 C5459 0.940 . S
H5445 C5461 0.939 . S
H5446 C5462 0.942 . S
H5447 C5464 0.940 . S
H5448 C5465 0.939 . S
H5449 C5467 0.941 . S
H5450 C5471 0.939 . S
O5451 P5440 1.490 . S
H5452 C5468 0.939 . S
H5453 C5470 0.940 . S
C5454 P5440 1.812 . S
C5454 C5455 1.389 . S
C5454 C5459 1.391 . S
C5455 H5441 0.941 . S
C5455 C5454 1.389 . S
C5455 C5456 1.397 . S
C5456 H5442 0.939 . S
C5456 C5455 1.397 . S
C5456 C5457 1.378 . S
C5457 C5456 1.378 . S
C5457 C5458 1.378 . S
C5458 H5443 0.940 . S
C5458 C5457 1.378 . S
C5458 C5459 1.396 . S
C5459 H5444 0.940 . S
C5459 C5454 1.391 . S
C5459 C5458 1.396 . S
C5460 P5440 1.803 . S
C5460 C5461 1.378 . S
C5460 C5465 1.400 . S
C5461 H5445 0.939 . S
C5461 C5460 1.378 . S
C5461 C5462 1.361 . S
C5462 H5446 0.942 . S
C5462 C5461 1.361 . S
C5462 C5463 1.369 . S
C5463 C5462 1.369 . S
C5463 C5464 1.404 . S
C5464 H5447 0.940 . S
C5464 C5463 1.404 . S
C5464 C5465 1.389 . S
C5465 H5448 0.939 . S
C5465 C5460 1.400 . S
C5465 C5464 1.389 . S
C5466 P5440 1.819 . S
C5466 C5467 1.391 . S
C5466 C5471 1.391 . S
C5467 H5449 0.941 . S
C5467 C5466 1.391 . S
C5467 C5468 1.396 . S
C5468 H5452 0.939 . S
C5468 C5467 1.396 . S
C5468 C5469 1.397 . S
C5469 C5468 1.397 . S
C5469 C5470 1.385 . S
C5470 H5453 0.940 . S
C5470 C5469 1.385 . S
C5470 C5471 1.388 . S
C5471 H5450 0.939 . S
C5471 C5466 1.391 . S
C5471 C5470 1.388 . S
P5472 O5483 1.490 . S
P5472 C5486 1.812 . S
P5472 C5492 1.803 . S
P5472 C5498 1.819 . S
H5473 C5487 0.941 . S
H5474 C5488 0.939 . S
H5475 C5490 0.940 . S
H5476 C5491 0.940 . S
H5477 C5493 0.939 . S
H5478 C5494 0.942 . S
H5479 C5496 0.940 . S
H5480 C5497 0.939 . S
H5481 C5499 0.941 . S
H5482 C5503 0.939 . S
O5483 P5472 1.490 . S
H5484 C5500 0.939 . S
H5485 C5502 0.940 . S
C5486 P5472 1.812 . S
C5486 C5487 1.389 . S
C5486 C5491 1.391 . S
C5487 H5473 0.941 . S
C5487 C5486 1.389 . S
C5487 C5488 1.397 . S
C5488 H5474 0.939 . S
C5488 C5487 1.397 . S
C5488 C5489 1.378 . S
C5489 C5488 1.378 . S
C5489 C5490 1.378 . S
C5490 H5475 0.940 . S
C5490 C5489 1.378 . S
C5490 C5491 1.396 . S
C5491 H5476 0.940 . S
C5491 C5486 1.391 . S
C5491 C5490 1.396 . S
C5492 P5472 1.803 . S
C5492 C5493 1.378 . S
C5492 C5497 1.400 . S
C5493 H5477 0.939 . S
C5493 C5492 1.378 . S
C5493 C5494 1.361 . S
C5494 H5478 0.942 . S
C5494 C5493 1.361 . S
C5494 C5495 1.369 . S
C5495 C5494 1.369 . S
C5495 C5496 1.404 . S
C5496 H5479 0.940 . S
C5496 C5495 1.404 . S
C5496 C5497 1.389 . S
C5497 H5480 0.939 . S
C5497 C5492 1.400 . S
C5497 C5496 1.389 . S
C5498 P5472 1.819 . S
C5498 C5499 1.391 . S
C5498 C5503 1.391 . S
C5499 H5481 0.941 . S
C5499 C5498 1.391 . S
C5499 C5500 1.396 . S
C5500 H5484 0.939 . S
C5500 C5499 1.396 . S
C5500 C5501 1.397 . S
C5501 C5500 1.397 . S
C5501 C5502 1.385 . S
C5502 H5485 0.940 . S
C5502 C5501 1.385 . S
C5502 C5503 1.388 . S
C5503 H5482 0.939 . S
C5503 C5498 1.391 . S
C5503 C5502 1.388 . S
P5504 O5515 1.490 . S
P5504 C5518 1.812 . S
P5504 C5524 1.803 . S
P5504 C5530 1.819 . S
H5505 C5519 0.941 . S
H5506 C5520 0.939 . S
H5507 C5522 0.940 . S
H5508 C5523 0.940 . S
H5509 C5525 0.939 . S
H5510 C5526 0.942 . S
H5511 C5528 0.940 . S
H5512 C5529 0.939 . S
H5513 C5531 0.941 . S
H5514 C5535 0.939 . S
O5515 P5504 1.490 . S
H5516 C5532 0.939 . S
H5517 C5534 0.940 . S
C5518 P5504 1.812 . S
C5518 C5519 1.389 . S
C5518 C5523 1.391 . S
C5519 H5505 0.941 . S
C5519 C5518 1.389 . S
C5519 C5520 1.397 . S
C5520 H5506 0.939 . S
C5520 C5519 1.397 . S
C5520 C5521 1.378 . S
C5521 C5520 1.378 . S
C5521 C5522 1.378 . S
C5522 H5507 0.940 . S
C5522 C5521 1.378 . S
C5522 C5523 1.396 . S
C5523 H5508 0.940 . S
C5523 C5518 1.391 . S
C5523 C5522 1.396 . S
C5524 P5504 1.803 . S
C5524 C5525 1.378 . S
C5524 C5529 1.400 . S
C5525 H5509 0.939 . S
C5525 C5524 1.378 . S
C5525 C5526 1.361 . S
C5526 H5510 0.942 . S
C5526 C5525 1.361 . S
C5526 C5527 1.369 . S
C5527 C5526 1.369 . S
C5527 C5528 1.404 . S
C5528 H5511 0.940 . S
C5528 C5527 1.404 . S
C5528 C5529 1.389 . S
C5529 H5512 0.939 . S
C5529 C5524 1.400 . S
C5529 C5528 1.389 . S
C5530 P5504 1.819 . S
C5530 C5531 1.391 . S
C5530 C5535 1.391 . S
C5531 H5513 0.941 . S
C5531 C5530 1.391 . S
C5531 C5532 1.396 . S
C5532 H5516 0.939 . S
C5532 C5531 1.396 . S
C5532 C5533 1.397 . S
C5533 C5532 1.397 . S
C5533 C5534 1.385 . S
C5534 H5517 0.940 . S
C5534 C5533 1.385 . S
C5534 C5535 1.388 . S
C5535 H5514 0.939 . S
C5535 C5530 1.391 . S
C5535 C5534 1.388 . S
P5536 O5547 1.490 . S
P5536 C5550 1.812 . S
P5536 C5556 1.803 . S
P5536 C5562 1.819 . S
H5537 C5551 0.941 . S
H5538 C5552 0.939 . S
H5539 C5554 0.940 . S
H5540 C5555 0.940 . S
H5541 C5557 0.939 . S
H5542 C5558 0.942 . S
H5543 C5560 0.940 . S
H5544 C5561 0.939 . S
H5545 C5563 0.941 . S
H5546 C5567 0.939 . S
O5547 P5536 1.490 . S
H5548 C5564 0.939 . S
H5549 C5566 0.940 . S
C5550 P5536 1.812 . S
C5550 C5551 1.389 . S
C5550 C5555 1.391 . S
C5551 H5537 0.941 . S
C5551 C5550 1.389 . S
C5551 C5552 1.397 . S
C5552 H5538 0.939 . S
C5552 C5551 1.397 . S
C5552 C5553 1.378 . S
C5553 C5552 1.378 . S
C5553 C5554 1.378 . S
C5554 H5539 0.940 . S
C5554 C5553 1.378 . S
C5554 C5555 1.396 . S
C5555 H5540 0.940 . S
C5555 C5550 1.391 . S
C5555 C5554 1.396 . S
C5556 P5536 1.803 . S
C5556 C5557 1.378 . S
C5556 C5561 1.400 . S
C5557 H5541 0.939 . S
C5557 C5556 1.378 . S
C5557 C5558 1.361 . S
C5558 H5542 0.942 . S
C5558 C5557 1.361 . S
C5558 C5559 1.369 . S
C5559 C5558 1.369 . S
C5559 C5560 1.404 . S
C5560 H5543 0.940 . S
C5560 C5559 1.404 . S
C5560 C5561 1.389 . S
C5561 H5544 0.939 . S
C5561 C5556 1.400 . S
C5561 C5560 1.389 . S
C5562 P5536 1.819 . S
C5562 C5563 1.391 . S
C5562 C5567 1.391 . S
C5563 H5545 0.941 . S
C5563 C5562 1.391 . S
C5563 C5564 1.396 . S
C5564 H5548 0.939 . S
C5564 C5563 1.396 . S
C5564 C5565 1.397 . S
C5565 C5564 1.397 . S
C5565 C5566 1.385 . S
C5566 H5549 0.940 . S
C5566 C5565 1.385 . S
C5566 C5567 1.388 . S
C5567 H5546 0.939 . S
C5567 C5562 1.391 . S
C5567 C5566 1.388 . S
P5568 O5579 1.490 . S
P5568 C5582 1.812 . S
P5568 C5588 1.803 . S
P5568 C5594 1.819 . S
H5569 C5583 0.941 . S
H5570 C5584 0.939 . S
H5571 C5586 0.940 . S
H5572 C5587 0.940 . S
H5573 C5589 0.939 . S
H5574 C5590 0.942 . S
H5575 C5592 0.940 . S
H5576 C5593 0.939 . S
H5577 C5595 0.941 . S
H5578 C5599 0.939 . S
O5579 P5568 1.490 . S
H5580 C5596 0.939 . S
H5581 C5598 0.940 . S
C5582 P5568 1.812 . S
C5582 C5583 1.389 . S
C5582 C5587 1.391 . S
C5583 H5569 0.941 . S
C5583 C5582 1.389 . S
C5583 C5584 1.397 . S
C5584 H5570 0.939 . S
C5584 C5583 1.397 . S
C5584 C5585 1.378 . S
C5585 C5584 1.378 . S
C5585 C5586 1.378 . S
C5586 H5571 0.940 . S
C5586 C5585 1.378 . S
C5586 C5587 1.396 . S
C5587 H5572 0.940 . S
C5587 C5582 1.391 . S
C5587 C5586 1.396 . S
C5588 P5568 1.803 . S
C5588 C5589 1.378 . S
C5588 C5593 1.400 . S
C5589 H5573 0.939 . S
C5589 C5588 1.378 . S
C5589 C5590 1.361 . S
C5590 H5574 0.942 . S
C5590 C5589 1.361 . S
C5590 C5591 1.369 . S
C5591 C5590 1.369 . S
C5591 C5592 1.404 . S
C5592 H5575 0.940 . S
C5592 C5591 1.404 . S
C5592 C5593 1.389 . S
C5593 H5576 0.939 . S
C5593 C5588 1.400 . S
C5593 C5592 1.389 . S
C5594 P5568 1.819 . S
C5594 C5595 1.391 . S
C5594 C5599 1.391 . S
C5595 H5577 0.941 . S
C5595 C5594 1.391 . S
C5595 C5596 1.396 . S
C5596 H5580 0.939 . S
C5596 C5595 1.396 . S
C5596 C5597 1.397 . S
C5597 C5596 1.397 . S
C5597 C5598 1.385 . S
C5598 H5581 0.940 . S
C5598 C5597 1.385 . S
C5598 C5599 1.388 . S
C5599 H5578 0.939 . S
C5599 C5594 1.391 . S
C5599 C5598 1.388 . S
P5600 O5611 1.490 . S
P5600 C5614 1.812 . S
P5600 C5620 1.803 . S
P5600 C5626 1.819 . S
H5601 C5615 0.941 . S
H5602 C5616 0.939 . S
H5603 C5618 0.940 . S
H5604 C5619 0.940 . S
H5605 C5621 0.939 . S
H5606 C5622 0.942 . S
H5607 C5624 0.940 . S
H5608 C5625 0.939 . S
H5609 C5627 0.941 . S
H5610 C5631 0.939 . S
O5611 P5600 1.490 . S
H5612 C5628 0.939 . S
H5613 C5630 0.940 . S
C5614 P5600 1.812 . S
C5614 C5615 1.389 . S
C5614 C5619 1.391 . S
C5615 H5601 0.941 . S
C5615 C5614 1.389 . S
C5615 C5616 1.397 . S
C5616 H5602 0.939 . S
C5616 C5615 1.397 . S
C5616 C5617 1.378 . S
C5617 C5616 1.378 . S
C5617 C5618 1.378 . S
C5618 H5603 0.940 . S
C5618 C5617 1.378 . S
C5618 C5619 1.396 . S
C5619 H5604 0.940 . S
C5619 C5614 1.391 . S
C5619 C5618 1.396 . S
C5620 P5600 1.803 . S
C5620 C5621 1.378 . S
C5620 C5625 1.400 . S
C5621 H5605 0.939 . S
C5621 C5620 1.378 . S
C5621 C5622 1.361 . S
C5622 H5606 0.942 . S
C5622 C5621 1.361 . S
C5622 C5623 1.369 . S
C5623 C5622 1.369 . S
C5623 C5624 1.404 . S
C5624 H5607 0.940 . S
C5624 C5623 1.404 . S
C5624 C5625 1.389 . S
C5625 H5608 0.939 . S
C5625 C5620 1.400 . S
C5625 C5624 1.389 . S
C5626 P5600 1.819 . S
C5626 C5627 1.391 . S
C5626 C5631 1.391 . S
C5627 H5609 0.941 . S
C5627 C5626 1.391 . S
C5627 C5628 1.396 . S
C5628 H5612 0.939 . S
C5628 C5627 1.396 . S
C5628 C5629 1.397 . S
C5629 C5628 1.397 . S
C5629 C5630 1.385 . S
C5630 H5613 0.940 . S
C5630 C5629 1.385 . S
C5630 C5631 1.388 . S
C5631 H5610 0.939 . S
C5631 C5626 1.391 . S
C5631 C5630 1.388 . S
P5632 O5643 1.490 . S
P5632 C5646 1.812 . S
P5632 C5652 1.803 . S
P5632 C5658 1.819 . S
H5633 C5647 0.941 . S
H5634 C5648 0.939 . S
H5635 C5650 0.940 . S
H5636 C5651 0.940 . S
H5637 C5653 0.939 . S
H5638 C5654 0.942 . S
H5639 C5656 0.940 . S
H5640 C5657 0.939 . S
H5641 C5659 0.941 . S
H5642 C5663 0.939 . S
O5643 P5632 1.490 . S
H5644 C5660 0.939 . S
H5645 C5662 0.940 . S
C5646 P5632 1.812 . S
C5646 C5647 1.389 . S
C5646 C5651 1.391 . S
C5647 H5633 0.941 . S
C5647 C5646 1.389 . S
C5647 C5648 1.397 . S
C5648 H5634 0.939 . S
C5648 C5647 1.397 . S
C5648 C5649 1.378 . S
C5649 C5648 1.378 . S
C5649 C5650 1.378 . S
C5650 H5635 0.940 . S
C5650 C5649 1.378 . S
C5650 C5651 1.396 . S
C5651 H5636 0.940 . S
C5651 C5646 1.391 . S
C5651 C5650 1.396 . S
C5652 P5632 1.803 . S
C5652 C5653 1.378 . S
C5652 C5657 1.400 . S
C5653 H5637 0.939 . S
C5653 C5652 1.378 . S
C5653 C5654 1.361 . S
C5654 H5638 0.942 . S
C5654 C5653 1.361 . S
C5654 C5655 1.369 . S
C5655 C5654 1.369 . S
C5655 C5656 1.404 . S
C5656 H5639 0.940 . S
C5656 C5655 1.404 . S
C5656 C5657 1.389 . S
C5657 H5640 0.939 . S
C5657 C5652 1.400 . S
C5657 C5656 1.389 . S
C5658 P5632 1.819 . S
C5658 C5659 1.391 . S
C5658 C5663 1.391 . S
C5659 H5641 0.941 . S
C5659 C5658 1.391 . S
C5659 C5660 1.396 . S
C5660 H5644 0.939 . S
C5660 C5659 1.396 . S
C5660 C5661 1.397 . S
C5661 C5660 1.397 . S
C5661 C5662 1.385 . S
C5662 H5645 0.940 . S
C5662 C5661 1.385 . S
C5662 C5663 1.388 . S
C5663 H5642 0.939 . S
C5663 C5658 1.391 . S
C5663 C5662 1.388 . S
P5664 O5675 1.490 . S
P5664 C5678 1.812 . S
P5664 C5684 1.803 . S
P5664 C5690 1.819 . S
H5665 C5679 0.941 . S
H5666 C5680 0.939 . S
H5667 C5682 0.940 . S
H5668 C5683 0.940 . S
H5669 C5685 0.939 . S
H5670 C5686 0.942 . S
H5671 C5688 0.940 . S
H5672 C5689 0.939 . S
H5673 C5691 0.941 . S
H5674 C5695 0.939 . S
O5675 P5664 1.490 . S
H5676 C5692 0.939 . S
H5677 C5694 0.940 . S
C5678 P5664 1.812 . S
C5678 C5679 1.389 . S
C5678 C5683 1.391 . S
C5679 H5665 0.941 . S
C5679 C5678 1.389 . S
C5679 C5680 1.397 . S
C5680 H5666 0.939 . S
C5680 C5679 1.397 . S
C5680 C5681 1.378 . S
C5681 C5680 1.378 . S
C5681 C5682 1.378 . S
C5682 H5667 0.940 . S
C5682 C5681 1.378 . S
C5682 C5683 1.396 . S
C5683 H5668 0.940 . S
C5683 C5678 1.391 . S
C5683 C5682 1.396 . S
C5684 P5664 1.803 . S
C5684 C5685 1.378 . S
C5684 C5689 1.400 . S
C5685 H5669 0.939 . S
C5685 C5684 1.378 . S
C5685 C5686 1.361 . S
C5686 H5670 0.942 . S
C5686 C5685 1.361 . S
C5686 C5687 1.369 . S
C5687 C5686 1.369 . S
C5687 C5688 1.404 . S
C5688 H5671 0.940 . S
C5688 C5687 1.404 . S
C5688 C5689 1.389 . S
C5689 H5672 0.939 . S
C5689 C5684 1.400 . S
C5689 C5688 1.389 . S
C5690 P5664 1.819 . S
C5690 C5691 1.391 . S
C5690 C5695 1.391 . S
C5691 H5673 0.941 . S
C5691 C5690 1.391 . S
C5691 C5692 1.396 . S
C5692 H5676 0.939 . S
C5692 C5691 1.396 . S
C5692 C5693 1.397 . S
C5693 C5692 1.397 . S
C5693 C5694 1.385 . S
C5694 H5677 0.940 . S
C5694 C5693 1.385 . S
C5694 C5695 1.388 . S
C5695 H5674 0.939 . S
C5695 C5690 1.391 . S
C5695 C5694 1.388 . S
P5696 O5707 1.490 . S
P5696 C5710 1.812 . S
P5696 C5716 1.803 . S
P5696 C5722 1.819 . S
H5697 C5711 0.941 . S
H5698 C5712 0.939 . S
H5699 C5714 0.940 . S
H5700 C5715 0.940 . S
H5701 C5717 0.939 . S
H5702 C5718 0.942 . S
H5703 C5720 0.940 . S
H5704 C5721 0.939 . S
H5705 C5723 0.941 . S
H5706 C5727 0.939 . S
O5707 P5696 1.490 . S
H5708 C5724 0.939 . S
H5709 C5726 0.940 . S
C5710 P5696 1.812 . S
C5710 C5711 1.389 . S
C5710 C5715 1.391 . S
C5711 H5697 0.941 . S
C5711 C5710 1.389 . S
C5711 C5712 1.397 . S
C5712 H5698 0.939 . S
C5712 C5711 1.397 . S
C5712 C5713 1.378 . S
C5713 C5712 1.378 . S
C5713 C5714 1.378 . S
C5714 H5699 0.940 . S
C5714 C5713 1.378 . S
C5714 C5715 1.396 . S
C5715 H5700 0.940 . S
C5715 C5710 1.391 . S
C5715 C5714 1.396 . S
C5716 P5696 1.803 . S
C5716 C5717 1.378 . S
C5716 C5721 1.400 . S
C5717 H5701 0.939 . S
C5717 C5716 1.378 . S
C5717 C5718 1.361 . S
C5718 H5702 0.942 . S
C5718 C5717 1.361 . S
C5718 C5719 1.369 . S
C5719 C5718 1.369 . S
C5719 C5720 1.404 . S
C5720 H5703 0.940 . S
C5720 C5719 1.404 . S
C5720 C5721 1.389 . S
C5721 H5704 0.939 . S
C5721 C5716 1.400 . S
C5721 C5720 1.389 . S
C5722 P5696 1.819 . S
C5722 C5723 1.391 . S
C5722 C5727 1.391 . S
C5723 H5705 0.941 . S
C5723 C5722 1.391 . S
C5723 C5724 1.396 . S
C5724 H5708 0.939 . S
C5724 C5723 1.396 . S
C5724 C5725 1.397 . S
C5725 C5724 1.397 . S
C5725 C5726 1.385 . S
C5726 H5709 0.940 . S
C5726 C5725 1.385 . S
C5726 C5727 1.388 . S
C5727 H5706 0.939 . S
C5727 C5722 1.391 . S
C5727 C5726 1.388 . S
P5728 O5739 1.490 . S
P5728 C5742 1.812 . S
P5728 C5748 1.803 . S
P5728 C5754 1.819 . S
H5729 C5743 0.941 . S
H5730 C5744 0.939 . S
H5731 C5746 0.940 . S
H5732 C5747 0.940 . S
H5733 C5749 0.939 . S
H5734 C5750 0.942 . S
H5735 C5752 0.940 . S
H5736 C5753 0.939 . S
H5737 C5755 0.941 . S
H5738 C5759 0.939 . S
O5739 P5728 1.490 . S
H5740 C5756 0.939 . S
H5741 C5758 0.940 . S
C5742 P5728 1.812 . S
C5742 C5743 1.389 . S
C5742 C5747 1.391 . S
C5743 H5729 0.941 . S
C5743 C5742 1.389 . S
C5743 C5744 1.397 . S
C5744 H5730 0.939 . S
C5744 C5743 1.397 . S
C5744 C5745 1.378 . S
C5745 C5744 1.378 . S
C5745 C5746 1.378 . S
C5746 H5731 0.940 . S
C5746 C5745 1.378 . S
C5746 C5747 1.396 . S
C5747 H5732 0.940 . S
C5747 C5742 1.391 . S
C5747 C5746 1.396 . S
C5748 P5728 1.803 . S
C5748 C5749 1.378 . S
C5748 C5753 1.400 . S
C5749 H5733 0.939 . S
C5749 C5748 1.378 . S
C5749 C5750 1.361 . S
C5750 H5734 0.942 . S
C5750 C5749 1.361 . S
C5750 C5751 1.369 . S
C5751 C5750 1.369 . S
C5751 C5752 1.404 . S
C5752 H5735 0.940 . S
C5752 C5751 1.404 . S
C5752 C5753 1.389 . S
C5753 H5736 0.939 . S
C5753 C5748 1.400 . S
C5753 C5752 1.389 . S
C5754 P5728 1.819 . S
C5754 C5755 1.391 . S
C5754 C5759 1.391 . S
C5755 H5737 0.941 . S
C5755 C5754 1.391 . S
C5755 C5756 1.396 . S
C5756 H5740 0.939 . S
C5756 C5755 1.396 . S
C5756 C5757 1.397 . S
C5757 C5756 1.397 . S
C5757 C5758 1.385 . S
C5758 H5741 0.940 . S
C5758 C5757 1.385 . S
C5758 C5759 1.388 . S
C5759 H5738 0.939 . S
C5759 C5754 1.391 . S
C5759 C5758 1.388 . S
P5760 O5771 1.490 . S
P5760 C5774 1.812 . S
P5760 C5780 1.803 . S
P5760 C5786 1.819 . S
H5761 C5775 0.941 . S
H5762 C5776 0.939 . S
H5763 C5778 0.940 . S
H5764 C5779 0.940 . S
H5765 C5781 0.939 . S
H5766 C5782 0.942 . S
H5767 C5784 0.940 . S
H5768 C5785 0.939 . S
H5769 C5787 0.941 . S
H5770 C5791 0.939 . S
O5771 P5760 1.490 . S
H5772 C5788 0.939 . S
H5773 C5790 0.940 . S
C5774 P5760 1.812 . S
C5774 C5775 1.389 . S
C5774 C5779 1.391 . S
C5775 H5761 0.941 . S
C5775 C5774 1.389 . S
C5775 C5776 1.397 . S
C5776 H5762 0.939 . S
C5776 C5775 1.397 . S
C5776 C5777 1.378 . S
C5777 C5776 1.378 . S
C5777 C5778 1.378 . S
C5778 H5763 0.940 . S
C5778 C5777 1.378 . S
C5778 C5779 1.396 . S
C5779 H5764 0.940 . S
C5779 C5774 1.391 . S
C5779 C5778 1.396 . S
C5780 P5760 1.803 . S
C5780 C5781 1.378 . S
C5780 C5785 1.400 . S
C5781 H5765 0.939 . S
C5781 C5780 1.378 . S
C5781 C5782 1.361 . S
C5782 H5766 0.942 . S
C5782 C5781 1.361 . S
C5782 C5783 1.369 . S
C5783 C5782 1.369 . S
C5783 C5784 1.404 . S
C5784 H5767 0.940 . S
C5784 C5783 1.404 . S
C5784 C5785 1.389 . S
C5785 H5768 0.939 . S
C5785 C5780 1.400 . S
C5785 C5784 1.389 . S
C5786 P5760 1.819 . S
C5786 C5787 1.391 . S
C5786 C5791 1.391 . S
C5787 H5769 0.941 . S
C5787 C5786 1.391 . S
C5787 C5788 1.396 . S
C5788 H5772 0.939 . S
C5788 C5787 1.396 . S
C5788 C5789 1.397 . S
C5789 C5788 1.397 . S
C5789 C5790 1.385 . S
C5790 H5773 0.940 . S
C5790 C5789 1.385 . S
C5790 C5791 1.388 . S
C5791 H5770 0.939 . S
C5791 C5786 1.391 . S
C5791 C5790 1.388 . S
P5792 O5803 1.490 . S
P5792 C5806 1.812 . S
P5792 C5812 1.803 . S
P5792 C5818 1.819 . S
H5793 C5807 0.941 . S
H5794 C5808 0.939 . S
H5795 C5810 0.940 . S
H5796 C5811 0.940 . S
H5797 C5813 0.939 . S
H5798 C5814 0.942 . S
H5799 C5816 0.940 . S
H5800 C5817 0.939 . S
H5801 C5819 0.941 . S
H5802 C5823 0.939 . S
O5803 P5792 1.490 . S
H5804 C5820 0.939 . S
H5805 C5822 0.940 . S
C5806 P5792 1.812 . S
C5806 C5807 1.389 . S
C5806 C5811 1.391 . S
C5807 H5793 0.941 . S
C5807 C5806 1.389 . S
C5807 C5808 1.397 . S
C5808 H5794 0.939 . S
C5808 C5807 1.397 . S
C5808 C5809 1.378 . S
C5809 C5808 1.378 . S
C5809 C5810 1.378 . S
C5810 H5795 0.940 . S
C5810 C5809 1.378 . S
C5810 C5811 1.396 . S
C5811 H5796 0.940 . S
C5811 C5806 1.391 . S
C5811 C5810 1.396 . S
C5812 P5792 1.803 . S
C5812 C5813 1.378 . S
C5812 C5817 1.400 . S
C5813 H5797 0.939 . S
C5813 C5812 1.378 . S
C5813 C5814 1.361 . S
C5814 H5798 0.942 . S
C5814 C5813 1.361 . S
C5814 C5815 1.369 . S
C5815 C5814 1.369 . S
C5815 C5816 1.404 . S
C5816 H5799 0.940 . S
C5816 C5815 1.404 . S
C5816 C5817 1.389 . S
C5817 H5800 0.939 . S
C5817 C5812 1.400 . S
C5817 C5816 1.389 . S
C5818 P5792 1.819 . S
C5818 C5819 1.391 . S
C5818 C5823 1.391 . S
C5819 H5801 0.941 . S
C5819 C5818 1.391 . S
C5819 C5820 1.396 . S
C5820 H5804 0.939 . S
C5820 C5819 1.396 . S
C5820 C5821 1.397 . S
C5821 C5820 1.397 . S
C5821 C5822 1.385 . S
C5822 H5805 0.940 . S
C5822 C5821 1.385 . S
C5822 C5823 1.388 . S
C5823 H5802 0.939 . S
C5823 C5818 1.391 . S
C5823 C5822 1.388 . S
P5824 O5835 1.490 . S
P5824 C5838 1.812 . S
P5824 C5844 1.803 . S
P5824 C5850 1.819 . S
H5825 C5839 0.941 . S
H5826 C5840 0.939 . S
H5827 C5842 0.940 . S
H5828 C5843 0.940 . S
H5829 C5845 0.939 . S
H5830 C5846 0.942 . S
H5831 C5848 0.940 . S
H5832 C5849 0.939 . S
H5833 C5851 0.941 . S
H5834 C5855 0.939 . S
O5835 P5824 1.490 . S
H5836 C5852 0.939 . S
H5837 C5854 0.940 . S
C5838 P5824 1.812 . S
C5838 C5839 1.389 . S
C5838 C5843 1.391 . S
C5839 H5825 0.941 . S
C5839 C5838 1.389 . S
C5839 C5840 1.397 . S
C5840 H5826 0.939 . S
C5840 C5839 1.397 . S
C5840 C5841 1.378 . S
C5841 C5840 1.378 . S
C5841 C5842 1.378 . S
C5842 H5827 0.940 . S
C5842 C5841 1.378 . S
C5842 C5843 1.396 . S
C5843 H5828 0.940 . S
C5843 C5838 1.391 . S
C5843 C5842 1.396 . S
C5844 P5824 1.803 . S
C5844 C5845 1.378 . S
C5844 C5849 1.400 . S
C5845 H5829 0.939 . S
C5845 C5844 1.378 . S
C5845 C5846 1.361 . S
C5846 H5830 0.942 . S
C5846 C5845 1.361 . S
C5846 C5847 1.369 . S
C5847 C5846 1.369 . S
C5847 C5848 1.404 . S
C5848 H5831 0.940 . S
C5848 C5847 1.404 . S
C5848 C5849 1.389 . S
C5849 H5832 0.939 . S
C5849 C5844 1.400 . S
C5849 C5848 1.389 . S
C5850 P5824 1.819 . S
C5850 C5851 1.391 . S
C5850 C5855 1.391 . S
C5851 H5833 0.941 . S
C5851 C5850 1.391 . S
C5851 C5852 1.396 . S
C5852 H5836 0.939 . S
C5852 C5851 1.396 . S
C5852 C5853 1.397 . S
C5853 C5852 1.397 . S
C5853 C5854 1.385 . S
C5854 H5837 0.940 . S
C5854 C5853 1.385 . S
C5854 C5855 1.388 . S
C5855 H5834 0.939 . S
C5855 C5850 1.391 . S
C5855 C5854 1.388 . S
P5856 O5867 1.490 . S
P5856 C5870 1.812 . S
P5856 C5876 1.803 . S
P5856 C5882 1.819 . S
H5857 C5871 0.941 . S
H5858 C5872 0.939 . S
H5859 C5874 0.940 . S
H5860 C5875 0.940 . S
H5861 C5877 0.939 . S
H5862 C5878 0.942 . S
H5863 C5880 0.940 . S
H5864 C5881 0.939 . S
H5865 C5883 0.941 . S
H5866 C5887 0.939 . S
O5867 P5856 1.490 . S
H5868 C5884 0.939 . S
H5869 C5886 0.940 . S
C5870 P5856 1.812 . S
C5870 C5871 1.389 . S
C5870 C5875 1.391 . S
C5871 H5857 0.941 . S
C5871 C5870 1.389 . S
C5871 C5872 1.397 . S
C5872 H5858 0.939 . S
C5872 C5871 1.397 . S
C5872 C5873 1.378 . S
C5873 C5872 1.378 . S
C5873 C5874 1.378 . S
C5874 H5859 0.940 . S
C5874 C5873 1.378 . S
C5874 C5875 1.396 . S
C5875 H5860 0.940 . S
C5875 C5870 1.391 . S
C5875 C5874 1.396 . S
C5876 P5856 1.803 . S
C5876 C5877 1.378 . S
C5876 C5881 1.400 . S
C5877 H5861 0.939 . S
C5877 C5876 1.378 . S
C5877 C5878 1.361 . S
C5878 H5862 0.942 . S
C5878 C5877 1.361 . S
C5878 C5879 1.369 . S
C5879 C5878 1.369 . S
C5879 C5880 1.404 . S
C5880 H5863 0.940 . S
C5880 C5879 1.404 . S
C5880 C5881 1.389 . S
C5881 H5864 0.939 . S
C5881 C5876 1.400 . S
C5881 C5880 1.389 . S
C5882 P5856 1.819 . S
C5882 C5883 1.391 . S
C5882 C5887 1.391 . S
C5883 H5865 0.941 . S
C5883 C5882 1.391 . S
C5883 C5884 1.396 . S
C5884 H5868 0.939 . S
C5884 C5883 1.396 . S
C5884 C5885 1.397 . S
C5885 C5884 1.397 . S
C5885 C5886 1.385 . S
C5886 H5869 0.940 . S
C5886 C5885 1.385 . S
C5886 C5887 1.388 . S
C5887 H5866 0.939 . S
C5887 C5882 1.391 . S
C5887 C5886 1.388 . S
P5888 O5899 1.490 . S
P5888 C5902 1.812 . S
P5888 C5908 1.803 . S
P5888 C5914 1.819 . S
H5889 C5903 0.941 . S
H5890 C5904 0.939 . S
H5891 C5906 0.940 . S
H5892 C5907 0.940 . S
H5893 C5909 0.939 . S
H5894 C5910 0.942 . S
H5895 C5912 0.940 . S
H5896 C5913 0.939 . S
H5897 C5915 0.941 . S
H5898 C5919 0.939 . S
O5899 P5888 1.490 . S
H5900 C5916 0.939 . S
H5901 C5918 0.940 . S
C5902 P5888 1.812 . S
C5902 C5903 1.389 . S
C5902 C5907 1.391 . S
C5903 H5889 0.941 . S
C5903 C5902 1.389 . S
C5903 C5904 1.397 . S
C5904 H5890 0.939 . S
C5904 C5903 1.397 . S
C5904 C5905 1.378 . S
C5905 C5904 1.378 . S
C5905 C5906 1.378 . S
C5906 H5891 0.940 . S
C5906 C5905 1.378 . S
C5906 C5907 1.396 . S
C5907 H5892 0.940 . S
C5907 C5902 1.391 . S
C5907 C5906 1.396 . S
C5908 P5888 1.803 . S
C5908 C5909 1.378 . S
C5908 C5913 1.400 . S
C5909 H5893 0.939 . S
C5909 C5908 1.378 . S
C5909 C5910 1.361 . S
C5910 H5894 0.942 . S
C5910 C5909 1.361 . S
C5910 C5911 1.369 . S
C5911 C5910 1.369 . S
C5911 C5912 1.404 . S
C5912 H5895 0.940 . S
C5912 C5911 1.404 . S
C5912 C5913 1.389 . S
C5913 H5896 0.939 . S
C5913 C5908 1.400 . S
C5913 C5912 1.389 . S
C5914 P5888 1.819 . S
C5914 C5915 1.391 . S
C5914 C5919 1.391 . S
C5915 H5897 0.941 . S
C5915 C5914 1.391 . S
C5915 C5916 1.396 . S
C5916 H5900 0.939 . S
C5916 C5915 1.396 . S
C5916 C5917 1.397 . S
C5917 C5916 1.397 . S
C5917 C5918 1.385 . S
C5918 H5901 0.940 . S
C5918 C5917 1.385 . S
C5918 C5919 1.388 . S
C5919 H5898 0.939 . S
C5919 C5914 1.391 . S
C5919 C5918 1.388 . S
P5920 O5931 1.490 . S
P5920 C5934 1.812 . S
P5920 C5940 1.803 . S
P5920 C5946 1.819 . S
H5921 C5935 0.941 . S
H5922 C5936 0.939 . S
H5923 C5938 0.940 . S
H5924 C5939 0.940 . S
H5925 C5941 0.939 . S
H5926 C5942 0.942 . S
H5927 C5944 0.940 . S
H5928 C5945 0.939 . S
H5929 C5947 0.941 . S
H5930 C5951 0.939 . S
O5931 P5920 1.490 . S
H5932 C5948 0.939 . S
H5933 C5950 0.940 . S
C5934 P5920 1.812 . S
C5934 C5935 1.389 . S
C5934 C5939 1.391 . S
C5935 H5921 0.941 . S
C5935 C5934 1.389 . S
C5935 C5936 1.397 . S
C5936 H5922 0.939 . S
C5936 C5935 1.397 . S
C5936 C5937 1.378 . S
C5937 C5936 1.378 . S
C5937 C5938 1.378 . S
C5938 H5923 0.940 . S
C5938 C5937 1.378 . S
C5938 C5939 1.396 . S
C5939 H5924 0.940 . S
C5939 C5934 1.391 . S
C5939 C5938 1.396 . S
C5940 P5920 1.803 . S
C5940 C5941 1.378 . S
C5940 C5945 1.400 . S
C5941 H5925 0.939 . S
C5941 C5940 1.378 . S
C5941 C5942 1.361 . S
C5942 H5926 0.942 . S
C5942 C5941 1.361 . S
C5942 C5943 1.369 . S
C5943 C5942 1.369 . S
C5943 C5944 1.404 . S
C5944 H5927 0.940 . S
C5944 C5943 1.404 . S
C5944 C5945 1.389 . S
C5945 H5928 0.939 . S
C5945 C5940 1.400 . S
C5945 C5944 1.389 . S
C5946 P5920 1.819 . S
C5946 C5947 1.391 . S
C5946 C5951 1.391 . S
C5947 H5929 0.941 . S
C5947 C5946 1.391 . S
C5947 C5948 1.396 . S
C5948 H5932 0.939 . S
C5948 C5947 1.396 . S
C5948 C5949 1.397 . S
C5949 C5948 1.397 . S
C5949 C5950 1.385 . S
C5950 H5933 0.940 . S
C5950 C5949 1.385 . S
C5950 C5951 1.388 . S
C5951 H5930 0.939 . S
C5951 C5946 1.391 . S
C5951 C5950 1.388 . S
P5952 O5963 1.490 . S
P5952 C5966 1.812 . S
P5952 C5972 1.803 . S
P5952 C5978 1.819 . S
H5953 C5967 0.941 . S
H5954 C5968 0.939 . S
H5955 C5970 0.940 . S
H5956 C5971 0.940 . S
H5957 C5973 0.939 . S
H5958 C5974 0.942 . S
H5959 C5976 0.940 . S
H5960 C5977 0.939 . S
H5961 C5979 0.941 . S
H5962 C5983 0.939 . S
O5963 P5952 1.490 . S
H5964 C5980 0.939 . S
H5965 C5982 0.940 . S
C5966 P5952 1.812 . S
C5966 C5967 1.389 . S
C5966 C5971 1.391 . S
C5967 H5953 0.941 . S
C5967 C5966 1.389 . S
C5967 C5968 1.397 . S
C5968 H5954 0.939 . S
C5968 C5967 1.397 . S
C5968 C5969 1.378 . S
C5969 C5968 1.378 . S
C5969 C5970 1.378 . S
C5970 H5955 0.940 . S
C5970 C5969 1.378 . S
C5970 C5971 1.396 . S
C5971 H5956 0.940 . S
C5971 C5966 1.391 . S
C5971 C5970 1.396 . S
C5972 P5952 1.803 . S
C5972 C5973 1.378 . S
C5972 C5977 1.400 . S
C5973 H5957 0.939 . S
C5973 C5972 1.378 . S
C5973 C5974 1.361 . S
C5974 H5958 0.942 . S
C5974 C5973 1.361 . S
C5974 C5975 1.369 . S
C5975 C5974 1.369 . S
C5975 C5976 1.404 . S
C5976 H5959 0.940 . S
C5976 C5975 1.404 . S
C5976 C5977 1.389 . S
C5977 H5960 0.939 . S
C5977 C5972 1.400 . S
C5977 C5976 1.389 . S
C5978 P5952 1.819 . S
C5978 C5979 1.391 . S
C5978 C5983 1.391 . S
C5979 H5961 0.941 . S
C5979 C5978 1.391 . S
C5979 C5980 1.396 . S
C5980 H5964 0.939 . S
C5980 C5979 1.396 . S
C5980 C5981 1.397 . S
C5981 C5980 1.397 . S
C5981 C5982 1.385 . S
C5982 H5965 0.940 . S
C5982 C5981 1.385 . S
C5982 C5983 1.388 . S
C5983 H5962 0.939 . S
C5983 C5978 1.391 . S
C5983 C5982 1.388 . S
P5984 O5995 1.490 . S
P5984 C5998 1.812 . S
P5984 C6004 1.803 . S
P5984 C6010 1.819 . S
H5985 C5999 0.941 . S
H5986 C6000 0.939 . S
H5987 C6002 0.940 . S
H5988 C6003 0.940 . S
H5989 C6005 0.939 . S
H5990 C6006 0.942 . S
H5991 C6008 0.940 . S
H5992 C6009 0.939 . S
H5993 C6011 0.941 . S
H5994 C6015 0.939 . S
O5995 P5984 1.490 . S
H5996 C6012 0.939 . S
H5997 C6014 0.940 . S
C5998 P5984 1.812 . S
C5998 C5999 1.389 . S
C5998 C6003 1.391 . S
C5999 H5985 0.941 . S
C5999 C5998 1.389 . S
C5999 C6000 1.397 . S
C6000 H5986 0.939 . S
C6000 C5999 1.397 . S
C6000 C6001 1.378 . S
C6001 C6000 1.378 . S
C6001 C6002 1.378 . S
C6002 H5987 0.940 . S
C6002 C6001 1.378 . S
C6002 C6003 1.396 . S
C6003 H5988 0.940 . S
C6003 C5998 1.391 . S
C6003 C6002 1.396 . S
C6004 P5984 1.803 . S
C6004 C6005 1.378 . S
C6004 C6009 1.400 . S
C6005 H5989 0.939 . S
C6005 C6004 1.378 . S
C6005 C6006 1.361 . S
C6006 H5990 0.942 . S
C6006 C6005 1.361 . S
C6006 C6007 1.369 . S
C6007 C6006 1.369 . S
C6007 C6008 1.404 . S
C6008 H5991 0.940 . S
C6008 C6007 1.404 . S
C6008 C6009 1.389 . S
C6009 H5992 0.939 . S
C6009 C6004 1.400 . S
C6009 C6008 1.389 . S
C6010 P5984 1.819 . S
C6010 C6011 1.391 . S
C6010 C6015 1.391 . S
C6011 H5993 0.941 . S
C6011 C6010 1.391 . S
C6011 C6012 1.396 . S
C6012 H5996 0.939 . S
C6012 C6011 1.396 . S
C6012 C6013 1.397 . S
C6013 C6012 1.397 . S
C6013 C6014 1.385 . S
C6014 H5997 0.940 . S
C6014 C6013 1.385 . S
C6014 C6015 1.388 . S
C6015 H5994 0.939 . S
C6015 C6010 1.391 . S
C6015 C6014 1.388 . S
P6016 O6027 1.490 . S
P6016 C6030 1.812 . S
P6016 C6036 1.803 . S
P6016 C6042 1.819 . S
H6017 C6031 0.941 . S
H6018 C6032 0.939 . S
H6019 C6034 0.940 . S
H6020 C6035 0.940 . S
H6021 C6037 0.939 . S
H6022 C6038 0.942 . S
H6023 C6040 0.940 . S
H6024 C6041 0.939 . S
H6025 C6043 0.941 . S
H6026 C6047 0.939 . S
O6027 P6016 1.490 . S
H6028 C6044 0.939 . S
H6029 C6046 0.940 . S
C6030 P6016 1.812 . S
C6030 C6031 1.389 . S
C6030 C6035 1.391 . S
C6031 H6017 0.941 . S
C6031 C6030 1.389 . S
C6031 C6032 1.397 . S
C6032 H6018 0.939 . S
C6032 C6031 1.397 . S
C6032 C6033 1.378 . S
C6033 C6032 1.378 . S
C6033 C6034 1.378 . S
C6034 H6019 0.940 . S
C6034 C6033 1.378 . S
C6034 C6035 1.396 . S
C6035 H6020 0.940 . S
C6035 C6030 1.391 . S
C6035 C6034 1.396 . S
C6036 P6016 1.803 . S
C6036 C6037 1.378 . S
C6036 C6041 1.400 . S
C6037 H6021 0.939 . S
C6037 C6036 1.378 . S
C6037 C6038 1.361 . S
C6038 H6022 0.942 . S
C6038 C6037 1.361 . S
C6038 C6039 1.369 . S
C6039 C6038 1.369 . S
C6039 C6040 1.404 . S
C6040 H6023 0.940 . S
C6040 C6039 1.404 . S
C6040 C6041 1.389 . S
C6041 H6024 0.939 . S
C6041 C6036 1.400 . S
C6041 C6040 1.389 . S
C6042 P6016 1.819 . S
C6042 C6043 1.391 . S
C6042 C6047 1.391 . S
C6043 H6025 0.941 . S
C6043 C6042 1.391 . S
C6043 C6044 1.396 . S
C6044 H6028 0.939 . S
C6044 C6043 1.396 . S
C6044 C6045 1.397 . S
C6045 C6044 1.397 . S
C6045 C6046 1.385 . S
C6046 H6029 0.940 . S
C6046 C6045 1.385 . S
C6046 C6047 1.388 . S
C6047 H6026 0.939 . S
C6047 C6042 1.391 . S
C6047 C6046 1.388 . S
P6048 O6059 1.490 . S
P6048 C6062 1.812 . S
P6048 C6068 1.803 . S
P6048 C6074 1.819 . S
H6049 C6063 0.941 . S
H6050 C6064 0.939 . S
H6051 C6066 0.940 . S
H6052 C6067 0.940 . S
H6053 C6069 0.939 . S
H6054 C6070 0.942 . S
H6055 C6072 0.940 . S
H6056 C6073 0.939 . S
H6057 C6075 0.941 . S
H6058 C6079 0.939 . S
O6059 P6048 1.490 . S
H6060 C6076 0.939 . S
H6061 C6078 0.940 . S
C6062 P6048 1.812 . S
C6062 C6063 1.389 . S
C6062 C6067 1.391 . S
C6063 H6049 0.941 . S
C6063 C6062 1.389 . S
C6063 C6064 1.397 . S
C6064 H6050 0.939 . S
C6064 C6063 1.397 . S
C6064 C6065 1.378 . S
C6065 C6064 1.378 . S
C6065 C6066 1.378 . S
C6066 H6051 0.940 . S
C6066 C6065 1.378 . S
C6066 C6067 1.396 . S
C6067 H6052 0.940 . S
C6067 C6062 1.391 . S
C6067 C6066 1.396 . S
C6068 P6048 1.803 . S
C6068 C6069 1.378 . S
C6068 C6073 1.400 . S
C6069 H6053 0.939 . S
C6069 C6068 1.378 . S
C6069 C6070 1.361 . S
C6070 H6054 0.942 . S
C6070 C6069 1.361 . S
C6070 C6071 1.369 . S
C6071 C6070 1.369 . S
C6071 C6072 1.404 . S
C6072 H6055 0.940 . S
C6072 C6071 1.404 . S
C6072 C6073 1.389 . S
C6073 H6056 0.939 . S
C6073 C6068 1.400 . S
C6073 C6072 1.389 . S
C6074 P6048 1.819 . S
C6074 C6075 1.391 . S
C6074 C6079 1.391 . S
C6075 H6057 0.941 . S
C6075 C6074 1.391 . S
C6075 C6076 1.396 . S
C6076 H6060 0.939 . S
C6076 C6075 1.396 . S
C6076 C6077 1.397 . S
C6077 C6076 1.397 . S
C6077 C6078 1.385 . S
C6078 H6061 0.940 . S
C6078 C6077 1.385 . S
C6078 C6079 1.388 . S
C6079 H6058 0.939 . S
C6079 C6074 1.391 . S
C6079 C6078 1.388 . S
P6080 O6091 1.490 . S
P6080 C6094 1.812 . S
P6080 C6100 1.803 . S
P6080 C6106 1.819 . S
H6081 C6095 0.941 . S
H6082 C6096 0.939 . S
H6083 C6098 0.940 . S
H6084 C6099 0.940 . S
H6085 C6101 0.939 . S
H6086 C6102 0.942 . S
H6087 C6104 0.940 . S
H6088 C6105 0.939 . S
H6089 C6107 0.941 . S
H6090 C6111 0.939 . S
O6091 P6080 1.490 . S
H6092 C6108 0.939 . S
H6093 C6110 0.940 . S
C6094 P6080 1.812 . S
C6094 C6095 1.389 . S
C6094 C6099 1.391 . S
C6095 H6081 0.941 . S
C6095 C6094 1.389 . S
C6095 C6096 1.397 . S
C6096 H6082 0.939 . S
C6096 C6095 1.397 . S
C6096 C6097 1.378 . S
C6097 C6096 1.378 . S
C6097 C6098 1.378 . S
C6098 H6083 0.940 . S
C6098 C6097 1.378 . S
C6098 C6099 1.396 . S
C6099 H6084 0.940 . S
C6099 C6094 1.391 . S
C6099 C6098 1.396 . S
C6100 P6080 1.803 . S
C6100 C6101 1.378 . S
C6100 C6105 1.400 . S
C6101 H6085 0.939 . S
C6101 C6100 1.378 . S
C6101 C6102 1.361 . S
C6102 H6086 0.942 . S
C6102 C6101 1.361 . S
C6102 C6103 1.369 . S
C6103 C6102 1.369 . S
C6103 C6104 1.404 . S
C6104 H6087 0.940 . S
C6104 C6103 1.404 . S
C6104 C6105 1.389 . S
C6105 H6088 0.939 . S
C6105 C6100 1.400 . S
C6105 C6104 1.389 . S
C6106 P6080 1.819 . S
C6106 C6107 1.391 . S
C6106 C6111 1.391 . S
C6107 H6089 0.941 . S
C6107 C6106 1.391 . S
C6107 C6108 1.396 . S
C6108 H6092 0.939 . S
C6108 C6107 1.396 . S
C6108 C6109 1.397 . S
C6109 C6108 1.397 . S
C6109 C6110 1.385 . S
C6110 H6093 0.940 . S
C6110 C6109 1.385 . S
C6110 C6111 1.388 . S
C6111 H6090 0.939 . S
C6111 C6106 1.391 . S
C6111 C6110 1.388 . S
P6112 O6123 1.490 . S
P6112 C6126 1.812 . S
P6112 C6132 1.803 . S
P6112 C6138 1.819 . S
H6113 C6127 0.941 . S
H6114 C6128 0.939 . S
H6115 C6130 0.940 . S
H6116 C6131 0.940 . S
H6117 C6133 0.939 . S
H6118 C6134 0.942 . S
H6119 C6136 0.940 . S
H6120 C6137 0.939 . S
H6121 C6139 0.941 . S
H6122 C6143 0.939 . S
O6123 P6112 1.490 . S
H6124 C6140 0.939 . S
H6125 C6142 0.940 . S
C6126 P6112 1.812 . S
C6126 C6127 1.389 . S
C6126 C6131 1.391 . S
C6127 H6113 0.941 . S
C6127 C6126 1.389 . S
C6127 C6128 1.397 . S
C6128 H6114 0.939 . S
C6128 C6127 1.397 . S
C6128 C6129 1.378 . S
C6129 C6128 1.378 . S
C6129 C6130 1.378 . S
C6130 H6115 0.940 . S
C6130 C6129 1.378 . S
C6130 C6131 1.396 . S
C6131 H6116 0.940 . S
C6131 C6126 1.391 . S
C6131 C6130 1.396 . S
C6132 P6112 1.803 . S
C6132 C6133 1.378 . S
C6132 C6137 1.400 . S
C6133 H6117 0.939 . S
C6133 C6132 1.378 . S
C6133 C6134 1.361 . S
C6134 H6118 0.942 . S
C6134 C6133 1.361 . S
C6134 C6135 1.369 . S
C6135 C6134 1.369 . S
C6135 C6136 1.404 . S
C6136 H6119 0.940 . S
C6136 C6135 1.404 . S
C6136 C6137 1.389 . S
C6137 H6120 0.939 . S
C6137 C6132 1.400 . S
C6137 C6136 1.389 . S
C6138 P6112 1.819 . S
C6138 C6139 1.391 . S
C6138 C6143 1.391 . S
C6139 H6121 0.941 . S
C6139 C6138 1.391 . S
C6139 C6140 1.396 . S
C6140 H6124 0.939 . S
C6140 C6139 1.396 . S
C6140 C6141 1.397 . S
C6141 C6140 1.397 . S
C6141 C6142 1.385 . S
C6142 H6125 0.940 . S
C6142 C6141 1.385 . S
C6142 C6143 1.388 . S
C6143 H6122 0.939 . S
C6143 C6138 1.391 . S
C6143 C6142 1.388 . S
P6144 O6155 1.490 . S
P6144 C6158 1.812 . S
P6144 C6164 1.803 . S
P6144 C6170 1.819 . S
H6145 C6159 0.941 . S
H6146 C6160 0.939 . S
H6147 C6162 0.940 . S
H6148 C6163 0.940 . S
H6149 C6165 0.939 . S
H6150 C6166 0.942 . S
H6151 C6168 0.940 . S
H6152 C6169 0.939 . S
H6153 C6171 0.941 . S
H6154 C6175 0.939 . S
O6155 P6144 1.490 . S
H6156 C6172 0.939 . S
H6157 C6174 0.940 . S
C6158 P6144 1.812 . S
C6158 C6159 1.389 . S
C6158 C6163 1.391 . S
C6159 H6145 0.941 . S
C6159 C6158 1.389 . S
C6159 C6160 1.397 . S
C6160 H6146 0.939 . S
C6160 C6159 1.397 . S
C6160 C6161 1.378 . S
C6161 C6160 1.378 . S
C6161 C6162 1.378 . S
C6162 H6147 0.940 . S
C6162 C6161 1.378 . S
C6162 C6163 1.396 . S
C6163 H6148 0.940 . S
C6163 C6158 1.391 . S
C6163 C6162 1.396 . S
C6164 P6144 1.803 . S
C6164 C6165 1.378 . S
C6164 C6169 1.400 . S
C6165 H6149 0.939 . S
C6165 C6164 1.378 . S
C6165 C6166 1.361 . S
C6166 H6150 0.942 . S
C6166 C6165 1.361 . S
C6166 C6167 1.369 . S
C6167 C6166 1.369 . S
C6167 C6168 1.404 . S
C6168 H6151 0.940 . S
C6168 C6167 1.404 . S
C6168 C6169 1.389 . S
C6169 H6152 0.939 . S
C6169 C6164 1.400 . S
C6169 C6168 1.389 . S
C6170 P6144 1.819 . S
C6170 C6171 1.391 . S
C6170 C6175 1.391 . S
C6171 H6153 0.941 . S
C6171 C6170 1.391 . S
C6171 C6172 1.396 . S
C6172 H6156 0.939 . S
C6172 C6171 1.396 . S
C6172 C6173 1.397 . S
C6173 C6172 1.397 . S
C6173 C6174 1.385 . S
C6174 H6157 0.940 . S
C6174 C6173 1.385 . S
C6174 C6175 1.388 . S
C6175 H6154 0.939 . S
C6175 C6170 1.391 . S
C6175 C6174 1.388 . S
P6176 O6187 1.490 . S
P6176 C6190 1.812 . S
P6176 C6196 1.803 . S
P6176 C6202 1.819 . S
H6177 C6191 0.941 . S
H6178 C6192 0.939 . S
H6179 C6194 0.940 . S
H6180 C6195 0.940 . S
H6181 C6197 0.939 . S
H6182 C6198 0.942 . S
H6183 C6200 0.940 . S
H6184 C6201 0.939 . S
H6185 C6203 0.941 . S
H6186 C6207 0.939 . S
O6187 P6176 1.490 . S
H6188 C6204 0.939 . S
H6189 C6206 0.940 . S
C6190 P6176 1.812 . S
C6190 C6191 1.389 . S
C6190 C6195 1.391 . S
C6191 H6177 0.941 . S
C6191 C6190 1.389 . S
C6191 C6192 1.397 . S
C6192 H6178 0.939 . S
C6192 C6191 1.397 . S
C6192 C6193 1.378 . S
C6193 C6192 1.378 . S
C6193 C6194 1.378 . S
C6194 H6179 0.940 . S
C6194 C6193 1.378 . S
C6194 C6195 1.396 . S
C6195 H6180 0.940 . S
C6195 C6190 1.391 . S
C6195 C6194 1.396 . S
C6196 P6176 1.803 . S
C6196 C6197 1.378 . S
C6196 C6201 1.400 . S
C6197 H6181 0.939 . S
C6197 C6196 1.378 . S
C6197 C6198 1.361 . S
C6198 H6182 0.942 . S
C6198 C6197 1.361 . S
C6198 C6199 1.369 . S
C6199 C6198 1.369 . S
C6199 C6200 1.404 . S
C6200 H6183 0.940 . S
C6200 C6199 1.404 . S
C6200 C6201 1.389 . S
C6201 H6184 0.939 . S
C6201 C6196 1.400 . S
C6201 C6200 1.389 . S
C6202 P6176 1.819 . S
C6202 C6203 1.391 . S
C6202 C6207 1.391 . S
C6203 H6185 0.941 . S
C6203 C6202 1.391 . S
C6203 C6204 1.396 . S
C6204 H6188 0.939 . S
C6204 C6203 1.396 . S
C6204 C6205 1.397 . S
C6205 C6204 1.397 . S
C6205 C6206 1.385 . S
C6206 H6189 0.940 . S
C6206 C6205 1.385 . S
C6206 C6207 1.388 . S
C6207 H6186 0.939 . S
C6207 C6202 1.391 . S
C6207 C6206 1.388 . S
P6208 O6219 1.490 . S
P6208 C6222 1.812 . S
P6208 C6228 1.803 . S
P6208 C6234 1.819 . S
H6209 C6223 0.941 . S
H6210 C6224 0.939 . S
H6211 C6226 0.940 . S
H6212 C6227 0.940 . S
H6213 C6229 0.939 . S
H6214 C6230 0.942 . S
H6215 C6232 0.940 . S
H6216 C6233 0.939 . S
H6217 C6235 0.941 . S
H6218 C6239 0.939 . S
O6219 P6208 1.490 . S
H6220 C6236 0.939 . S
H6221 C6238 0.940 . S
C6222 P6208 1.812 . S
C6222 C6223 1.389 . S
C6222 C6227 1.391 . S
C6223 H6209 0.941 . S
C6223 C6222 1.389 . S
C6223 C6224 1.397 . S
C6224 H6210 0.939 . S
C6224 C6223 1.397 . S
C6224 C6225 1.378 . S
C6225 C6224 1.378 . S
C6225 C6226 1.378 . S
C6226 H6211 0.940 . S
C6226 C6225 1.378 . S
C6226 C6227 1.396 . S
C6227 H6212 0.940 . S
C6227 C6222 1.391 . S
C6227 C6226 1.396 . S
C6228 P6208 1.803 . S
C6228 C6229 1.378 . S
C6228 C6233 1.400 . S
C6229 H6213 0.939 . S
C6229 C6228 1.378 . S
C6229 C6230 1.361 . S
C6230 H6214 0.942 . S
C6230 C6229 1.361 . S
C6230 C6231 1.369 . S
C6231 C6230 1.369 . S
C6231 C6232 1.404 . S
C6232 H6215 0.940 . S
C6232 C6231 1.404 . S
C6232 C6233 1.389 . S
C6233 H6216 0.939 . S
C6233 C6228 1.400 . S
C6233 C6232 1.389 . S
C6234 P6208 1.819 . S
C6234 C6235 1.391 . S
C6234 C6239 1.391 . S
C6235 H6217 0.941 . S
C6235 C6234 1.391 . S
C6235 C6236 1.396 . S
C6236 H6220 0.939 . S
C6236 C6235 1.396 . S
C6236 C6237 1.397 . S
C6237 C6236 1.397 . S
C6237 C6238 1.385 . S
C6238 H6221 0.940 . S
C6238 C6237 1.385 . S
C6238 C6239 1.388 . S
C6239 H6218 0.939 . S
C6239 C6234 1.391 . S
C6239 C6238 1.388 . S
P6240 O6251 1.490 . S
P6240 C6254 1.812 . S
P6240 C6260 1.803 . S
P6240 C6266 1.819 . S
H6241 C6255 0.941 . S
H6242 C6256 0.939 . S
H6243 C6258 0.940 . S
H6244 C6259 0.940 . S
H6245 C6261 0.939 . S
H6246 C6262 0.942 . S
H6247 C6264 0.940 . S
H6248 C6265 0.939 . S
H6249 C6267 0.941 . S
H6250 C6271 0.939 . S
O6251 P6240 1.490 . S
H6252 C6268 0.939 . S
H6253 C6270 0.940 . S
C6254 P6240 1.812 . S
C6254 C6255 1.389 . S
C6254 C6259 1.391 . S
C6255 H6241 0.941 . S
C6255 C6254 1.389 . S
C6255 C6256 1.397 . S
C6256 H6242 0.939 . S
C6256 C6255 1.397 . S
C6256 C6257 1.378 . S
C6257 C6256 1.378 . S
C6257 C6258 1.378 . S
C6258 H6243 0.940 . S
C6258 C6257 1.378 . S
C6258 C6259 1.396 . S
C6259 H6244 0.940 . S
C6259 C6254 1.391 . S
C6259 C6258 1.396 . S
C6260 P6240 1.803 . S
C6260 C6261 1.378 . S
C6260 C6265 1.400 . S
C6261 H6245 0.939 . S
C6261 C6260 1.378 . S
C6261 C6262 1.361 . S
C6262 H6246 0.942 . S
C6262 C6261 1.361 . S
C6262 C6263 1.369 . S
C6263 C6262 1.369 . S
C6263 C6264 1.404 . S
C6264 H6247 0.940 . S
C6264 C6263 1.404 . S
C6264 C6265 1.389 . S
C6265 H6248 0.939 . S
C6265 C6260 1.400 . S
C6265 C6264 1.389 . S
C6266 P6240 1.819 . S
C6266 C6267 1.391 . S
C6266 C6271 1.391 . S
C6267 H6249 0.941 . S
C6267 C6266 1.391 . S
C6267 C6268 1.396 . S
C6268 H6252 0.939 . S
C6268 C6267 1.396 . S
C6268 C6269 1.397 . S
C6269 C6268 1.397 . S
C6269 C6270 1.385 . S
C6270 H6253 0.940 . S
C6270 C6269 1.385 . S
C6270 C6271 1.388 . S
C6271 H6250 0.939 . S
C6271 C6266 1.391 . S
C6271 C6270 1.388 . S
P6272 O6283 1.490 . S
P6272 C6286 1.812 . S
P6272 C6292 1.803 . S
P6272 C6298 1.819 . S
H6273 C6287 0.941 . S
H6274 C6288 0.939 . S
H6275 C6290 0.940 . S
H6276 C6291 0.940 . S
H6277 C6293 0.939 . S
H6278 C6294 0.942 . S
H6279 C6296 0.940 . S
H6280 C6297 0.939 . S
H6281 C6299 0.941 . S
H6282 C6303 0.939 . S
O6283 P6272 1.490 . S
H6284 C6300 0.939 . S
H6285 C6302 0.940 . S
C6286 P6272 1.812 . S
C6286 C6287 1.389 . S
C6286 C6291 1.391 . S
C6287 H6273 0.941 . S
C6287 C6286 1.389 . S
C6287 C6288 1.397 . S
C6288 H6274 0.939 . S
C6288 C6287 1.397 . S
C6288 C6289 1.378 . S
C6289 C6288 1.378 . S
C6289 C6290 1.378 . S
C6290 H6275 0.940 . S
C6290 C6289 1.378 . S
C6290 C6291 1.396 . S
C6291 H6276 0.940 . S
C6291 C6286 1.391 . S
C6291 C6290 1.396 . S
C6292 P6272 1.803 . S
C6292 C6293 1.378 . S
C6292 C6297 1.400 . S
C6293 H6277 0.939 . S
C6293 C6292 1.378 . S
C6293 C6294 1.361 . S
C6294 H6278 0.942 . S
C6294 C6293 1.361 . S
C6294 C6295 1.369 . S
C6295 C6294 1.369 . S
C6295 C6296 1.404 . S
C6296 H6279 0.940 . S
C6296 C6295 1.404 . S
C6296 C6297 1.389 . S
C6297 H6280 0.939 . S
C6297 C6292 1.400 . S
C6297 C6296 1.389 . S
C6298 P6272 1.819 . S
C6298 C6299 1.391 . S
C6298 C6303 1.391 . S
C6299 H6281 0.941 . S
C6299 C6298 1.391 . S
C6299 C6300 1.396 . S
C6300 H6284 0.939 . S
C6300 C6299 1.396 . S
C6300 C6301 1.397 . S
C6301 C6300 1.397 . S
C6301 C6302 1.385 . S
C6302 H6285 0.940 . S
C6302 C6301 1.385 . S
C6302 C6303 1.388 . S
C6303 H6282 0.939 . S
C6303 C6298 1.391 . S
C6303 C6302 1.388 . S
P6304 O6315 1.490 . S
P6304 C6318 1.812 . S
P6304 C6324 1.803 . S
P6304 C6330 1.819 . S
H6305 C6319 0.941 . S
H6306 C6320 0.939 . S
H6307 C6322 0.940 . S
H6308 C6323 0.940 . S
H6309 C6325 0.939 . S
H6310 C6326 0.942 . S
H6311 C6328 0.940 . S
H6312 C6329 0.939 . S
H6313 C6331 0.941 . S
H6314 C6335 0.939 . S
O6315 P6304 1.490 . S
H6316 C6332 0.939 . S
H6317 C6334 0.940 . S
C6318 P6304 1.812 . S
C6318 C6319 1.389 . S
C6318 C6323 1.391 . S
C6319 H6305 0.941 . S
C6319 C6318 1.389 . S
C6319 C6320 1.397 . S
C6320 H6306 0.939 . S
C6320 C6319 1.397 . S
C6320 C6321 1.378 . S
C6321 C6320 1.378 . S
C6321 C6322 1.378 . S
C6322 H6307 0.940 . S
C6322 C6321 1.378 . S
C6322 C6323 1.396 . S
C6323 H6308 0.940 . S
C6323 C6318 1.391 . S
C6323 C6322 1.396 . S
C6324 P6304 1.803 . S
C6324 C6325 1.378 . S
C6324 C6329 1.400 . S
C6325 H6309 0.939 . S
C6325 C6324 1.378 . S
C6325 C6326 1.361 . S
C6326 H6310 0.942 . S
C6326 C6325 1.361 . S
C6326 C6327 1.369 . S
C6327 C6326 1.369 . S
C6327 C6328 1.404 . S
C6328 H6311 0.940 . S
C6328 C6327 1.404 . S
C6328 C6329 1.389 . S
C6329 H6312 0.939 . S
C6329 C6324 1.400 . S
C6329 C6328 1.389 . S
C6330 P6304 1.819 . S
C6330 C6331 1.391 . S
C6330 C6335 1.391 . S
C6331 H6313 0.941 . S
C6331 C6330 1.391 . S
C6331 C6332 1.396 . S
C6332 H6316 0.939 . S
C6332 C6331 1.396 . S
C6332 C6333 1.397 . S
C6333 C6332 1.397 . S
C6333 C6334 1.385 . S
C6334 H6317 0.940 . S
C6334 C6333 1.385 . S
C6334 C6335 1.388 . S
C6335 H6314 0.939 . S
C6335 C6330 1.391 . S
C6335 C6334 1.388 . S
P6336 O6347 1.490 . S
P6336 C6350 1.812 . S
P6336 C6356 1.803 . S
P6336 C6362 1.819 . S
H6337 C6351 0.941 . S
H6338 C6352 0.939 . S
H6339 C6354 0.940 . S
H6340 C6355 0.940 . S
H6341 C6357 0.939 . S
H6342 C6358 0.942 . S
H6343 C6360 0.940 . S
H6344 C6361 0.939 . S
H6345 C6363 0.941 . S
H6346 C6367 0.939 . S
O6347 P6336 1.490 . S
H6348 C6364 0.939 . S
H6349 C6366 0.940 . S
C6350 P6336 1.812 . S
C6350 C6351 1.389 . S
C6350 C6355 1.391 . S
C6351 H6337 0.941 . S
C6351 C6350 1.389 . S
C6351 C6352 1.397 . S
C6352 H6338 0.939 . S
C6352 C6351 1.397 . S
C6352 C6353 1.378 . S
C6353 C6352 1.378 . S
C6353 C6354 1.378 . S
C6354 H6339 0.940 . S
C6354 C6353 1.378 . S
C6354 C6355 1.396 . S
C6355 H6340 0.940 . S
C6355 C6350 1.391 . S
C6355 C6354 1.396 . S
C6356 P6336 1.803 . S
C6356 C6357 1.378 . S
C6356 C6361 1.400 . S
C6357 H6341 0.939 . S
C6357 C6356 1.378 . S
C6357 C6358 1.361 . S
C6358 H6342 0.942 . S
C6358 C6357 1.361 . S
C6358 C6359 1.369 . S
C6359 C6358 1.369 . S
C6359 C6360 1.404 . S
C6360 H6343 0.940 . S
C6360 C6359 1.404 . S
C6360 C6361 1.389 . S
C6361 H6344 0.939 . S
C6361 C6356 1.400 . S
C6361 C6360 1.389 . S
C6362 P6336 1.819 . S
C6362 C6363 1.391 . S
C6362 C6367 1.391 . S
C6363 H6345 0.941 . S
C6363 C6362 1.391 . S
C6363 C6364 1.396 . S
C6364 H6348 0.939 . S
C6364 C6363 1.396 . S
C6364 C6365 1.397 . S
C6365 C6364 1.397 . S
C6365 C6366 1.385 . S
C6366 H6349 0.940 . S
C6366 C6365 1.385 . S
C6366 C6367 1.388 . S
C6367 H6346 0.939 . S
C6367 C6362 1.391 . S
C6367 C6366 1.388 . S
P6368 O6379 1.490 . S
P6368 C6382 1.812 . S
P6368 C6388 1.803 . S
P6368 C6394 1.819 . S
H6369 C6383 0.941 . S
H6370 C6384 0.939 . S
H6371 C6386 0.940 . S
H6372 C6387 0.940 . S
H6373 C6389 0.939 . S
H6374 C6390 0.942 . S
H6375 C6392 0.940 . S
H6376 C6393 0.939 . S
H6377 C6395 0.941 . S
H6378 C6399 0.939 . S
O6379 P6368 1.490 . S
H6380 C6396 0.939 . S
H6381 C6398 0.940 . S
C6382 P6368 1.812 . S
C6382 C6383 1.389 . S
C6382 C6387 1.391 . S
C6383 H6369 0.941 . S
C6383 C6382 1.389 . S
C6383 C6384 1.397 . S
C6384 H6370 0.939 . S
C6384 C6383 1.397 . S
C6384 C6385 1.378 . S
C6385 C6384 1.378 . S
C6385 C6386 1.378 . S
C6386 H6371 0.940 . S
C6386 C6385 1.378 . S
C6386 C6387 1.396 . S
C6387 H6372 0.940 . S
C6387 C6382 1.391 . S
C6387 C6386 1.396 . S
C6388 P6368 1.803 . S
C6388 C6389 1.378 . S
C6388 C6393 1.400 . S
C6389 H6373 0.939 . S
C6389 C6388 1.378 . S
C6389 C6390 1.361 . S
C6390 H6374 0.942 . S
C6390 C6389 1.361 . S
C6390 C6391 1.369 . S
C6391 C6390 1.369 . S
C6391 C6392 1.404 . S
C6392 H6375 0.940 . S
C6392 C6391 1.404 . S
C6392 C6393 1.389 . S
C6393 H6376 0.939 . S
C6393 C6388 1.400 . S
C6393 C6392 1.389 . S
C6394 P6368 1.819 . S
C6394 C6395 1.391 . S
C6394 C6399 1.391 . S
C6395 H6377 0.941 . S
C6395 C6394 1.391 . S
C6395 C6396 1.396 . S
C6396 H6380 0.939 . S
C6396 C6395 1.396 . S
C6396 C6397 1.397 . S
C6397 C6396 1.397 . S
C6397 C6398 1.385 . S
C6398 H6381 0.940 . S
C6398 C6397 1.385 . S
C6398 C6399 1.388 . S
C6399 H6378 0.939 . S
C6399 C6394 1.391 . S
C6399 C6398 1.388 . S
P6400 O6411 1.490 . S
P6400 C6414 1.812 . S
P6400 C6420 1.803 . S
P6400 C6426 1.819 . S
H6401 C6415 0.941 . S
H6402 C6416 0.939 . S
H6403 C6418 0.940 . S
H6404 C6419 0.940 . S
H6405 C6421 0.939 . S
H6406 C6422 0.942 . S
H6407 C6424 0.940 . S
H6408 C6425 0.939 . S
H6409 C6427 0.941 . S
H6410 C6431 0.939 . S
O6411 P6400 1.490 . S
H6412 C6428 0.939 . S
H6413 C6430 0.940 . S
C6414 P6400 1.812 . S
C6414 C6415 1.389 . S
C6414 C6419 1.391 . S
C6415 H6401 0.941 . S
C6415 C6414 1.389 . S
C6415 C6416 1.397 . S
C6416 H6402 0.939 . S
C6416 C6415 1.397 . S
C6416 C6417 1.378 . S
C6417 C6416 1.378 . S
C6417 C6418 1.378 . S
C6418 H6403 0.940 . S
C6418 C6417 1.378 . S
C6418 C6419 1.396 . S
C6419 H6404 0.940 . S
C6419 C6414 1.391 . S
C6419 C6418 1.396 . S
C6420 P6400 1.803 . S
C6420 C6421 1.378 . S
C6420 C6425 1.400 . S
C6421 H6405 0.939 . S
C6421 C6420 1.378 . S
C6421 C6422 1.361 . S
C6422 H6406 0.942 . S
C6422 C6421 1.361 . S
C6422 C6423 1.369 . S
C6423 C6422 1.369 . S
C6423 C6424 1.404 . S
C6424 H6407 0.940 . S
C6424 C6423 1.404 . S
C6424 C6425 1.389 . S
C6425 H6408 0.939 . S
C6425 C6420 1.400 . S
C6425 C6424 1.389 . S
C6426 P6400 1.819 . S
C6426 C6427 1.391 . S
C6426 C6431 1.391 . S
C6427 H6409 0.941 . S
C6427 C6426 1.391 . S
C6427 C6428 1.396 . S
C6428 H6412 0.939 . S
C6428 C6427 1.396 . S
C6428 C6429 1.397 . S
C6429 C6428 1.397 . S
C6429 C6430 1.385 . S
C6430 H6413 0.940 . S
C6430 C6429 1.385 . S
C6430 C6431 1.388 . S
C6431 H6410 0.939 . S
C6431 C6426 1.391 . S
C6431 C6430 1.388 . S
P6432 O6443 1.490 . S
P6432 C6446 1.812 . S
P6432 C6452 1.803 . S
P6432 C6458 1.819 . S
H6433 C6447 0.941 . S
H6434 C6448 0.939 . S
H6435 C6450 0.940 . S
H6436 C6451 0.940 . S
H6437 C6453 0.939 . S
H6438 C6454 0.942 . S
H6439 C6456 0.940 . S
H6440 C6457 0.939 . S
H6441 C6459 0.941 . S
H6442 C6463 0.939 . S
O6443 P6432 1.490 . S
H6444 C6460 0.939 . S
H6445 C6462 0.940 . S
C6446 P6432 1.812 . S
C6446 C6447 1.389 . S
C6446 C6451 1.391 . S
C6447 H6433 0.941 . S
C6447 C6446 1.389 . S
C6447 C6448 1.397 . S
C6448 H6434 0.939 . S
C6448 C6447 1.397 . S
C6448 C6449 1.378 . S
C6449 C6448 1.378 . S
C6449 C6450 1.378 . S
C6450 H6435 0.940 . S
C6450 C6449 1.378 . S
C6450 C6451 1.396 . S
C6451 H6436 0.940 . S
C6451 C6446 1.391 . S
C6451 C6450 1.396 . S
C6452 P6432 1.803 . S
C6452 C6453 1.378 . S
C6452 C6457 1.400 . S
C6453 H6437 0.939 . S
C6453 C6452 1.378 . S
C6453 C6454 1.361 . S
C6454 H6438 0.942 . S
C6454 C6453 1.361 . S
C6454 C6455 1.369 . S
C6455 C6454 1.369 . S
C6455 C6456 1.404 . S
C6456 H6439 0.940 . S
C6456 C6455 1.404 . S
C6456 C6457 1.389 . S
C6457 H6440 0.939 . S
C6457 C6452 1.400 . S
C6457 C6456 1.389 . S
C6458 P6432 1.819 . S
C6458 C6459 1.391 . S
C6458 C6463 1.391 . S
C6459 H6441 0.941 . S
C6459 C6458 1.391 . S
C6459 C6460 1.396 . S
C6460 H6444 0.939 . S
C6460 C6459 1.396 . S
C6460 C6461 1.397 . S
C6461 C6460 1.397 . S
C6461 C6462 1.385 . S
C6462 H6445 0.940 . S
C6462 C6461 1.385 . S
C6462 C6463 1.388 . S
C6463 H6442 0.939 . S
C6463 C6458 1.391 . S
C6463 C6462 1.388 . S
P6464 O6475 1.490 . S
P6464 C6478 1.812 . S
P6464 C6484 1.803 . S
P6464 C6490 1.819 . S
H6465 C6479 0.941 . S
H6466 C6480 0.939 . S
H6467 C6482 0.940 . S
H6468 C6483 0.940 . S
H6469 C6485 0.939 . S
H6470 C6486 0.942 . S
H6471 C6488 0.940 . S
H6472 C6489 0.939 . S
H6473 C6491 0.941 . S
H6474 C6495 0.939 . S
O6475 P6464 1.490 . S
H6476 C6492 0.939 . S
H6477 C6494 0.940 . S
C6478 P6464 1.812 . S
C6478 C6479 1.389 . S
C6478 C6483 1.391 . S
C6479 H6465 0.941 . S
C6479 C6478 1.389 . S
C6479 C6480 1.397 . S
C6480 H6466 0.939 . S
C6480 C6479 1.397 . S
C6480 C6481 1.378 . S
C6481 C6480 1.378 . S
C6481 C6482 1.378 . S
C6482 H6467 0.940 . S
C6482 C6481 1.378 . S
C6482 C6483 1.396 . S
C6483 H6468 0.940 . S
C6483 C6478 1.391 . S
C6483 C6482 1.396 . S
C6484 P6464 1.803 . S
C6484 C6485 1.378 . S
C6484 C6489 1.400 . S
C6485 H6469 0.939 . S
C6485 C6484 1.378 . S
C6485 C6486 1.361 . S
C6486 H6470 0.942 . S
C6486 C6485 1.361 . S
C6486 C6487 1.369 . S
C6487 C6486 1.369 . S
C6487 C6488 1.404 . S
C6488 H6471 0.940 . S
C6488 C6487 1.404 . S
C6488 C6489 1.389 . S
C6489 H6472 0.939 . S
C6489 C6484 1.400 . S
C6489 C6488 1.389 . S
C6490 P6464 1.819 . S
C6490 C6491 1.391 . S
C6490 C6495 1.391 . S
C6491 H6473 0.941 . S
C6491 C6490 1.391 . S
C6491 C6492 1.396 . S
C6492 H6476 0.939 . S
C6492 C6491 1.396 . S
C6492 C6493 1.397 . S
C6493 C6492 1.397 . S
C6493 C6494 1.385 . S
C6494 H6477 0.940 . S
C6494 C6493 1.385 . S
C6494 C6495 1.388 . S
C6495 H6474 0.939 . S
C6495 C6490 1.391 . S
C6495 C6494 1.388 . S
P6496 O6507 1.490 . S
P6496 C6510 1.812 . S
P6496 C6516 1.803 . S
P6496 C6522 1.819 . S
H6497 C6511 0.941 . S
H6498 C6512 0.939 . S
H6499 C6514 0.940 . S
H6500 C6515 0.940 . S
H6501 C6517 0.939 . S
H6502 C6518 0.942 . S
H6503 C6520 0.940 . S
H6504 C6521 0.939 . S
H6505 C6523 0.941 . S
H6506 C6527 0.939 . S
O6507 P6496 1.490 . S
H6508 C6524 0.939 . S
H6509 C6526 0.940 . S
C6510 P6496 1.812 . S
C6510 C6511 1.389 . S
C6510 C6515 1.391 . S
C6511 H6497 0.941 . S
C6511 C6510 1.389 . S
C6511 C6512 1.397 . S
C6512 H6498 0.939 . S
C6512 C6511 1.397 . S
C6512 C6513 1.378 . S
C6513 C6512 1.378 . S
C6513 C6514 1.378 . S
C6514 H6499 0.940 . S
C6514 C6513 1.378 . S
C6514 C6515 1.396 . S
C6515 H6500 0.940 . S
C6515 C6510 1.391 . S
C6515 C6514 1.396 . S
C6516 P6496 1.803 . S
C6516 C6517 1.378 . S
C6516 C6521 1.400 . S
C6517 H6501 0.939 . S
C6517 C6516 1.378 . S
C6517 C6518 1.361 . S
C6518 H6502 0.942 . S
C6518 C6517 1.361 . S
C6518 C6519 1.369 . S
C6519 C6518 1.369 . S
C6519 C6520 1.404 . S
C6520 H6503 0.940 . S
C6520 C6519 1.404 . S
C6520 C6521 1.389 . S
C6521 H6504 0.939 . S
C6521 C6516 1.400 . S
C6521 C6520 1.389 . S
C6522 P6496 1.819 . S
C6522 C6523 1.391 . S
C6522 C6527 1.391 . S
C6523 H6505 0.941 . S
C6523 C6522 1.391 . S
C6523 C6524 1.396 . S
C6524 H6508 0.939 . S
C6524 C6523 1.396 . S
C6524 C6525 1.397 . S
C6525 C6524 1.397 . S
C6525 C6526 1.385 . S
C6526 H6509 0.940 . S
C6526 C6525 1.385 . S
C6526 C6527 1.388 . S
C6527 H6506 0.939 . S
C6527 C6522 1.391 . S
C6527 C6526 1.388 . S
P6528 O6539 1.490 . S
P6528 C6542 1.812 . S
P6528 C6548 1.803 . S
P6528 C6554 1.819 . S
H6529 C6543 0.941 . S
H6530 C6544 0.939 . S
H6531 C6546 0.940 . S
H6532 C6547 0.940 . S
H6533 C6549 0.939 . S
H6534 C6550 0.942 . S
H6535 C6552 0.940 . S
H6536 C6553 0.939 . S
H6537 C6555 0.941 . S
H6538 C6559 0.939 . S
O6539 P6528 1.490 . S
H6540 C6556 0.939 . S
H6541 C6558 0.940 . S
C6542 P6528 1.812 . S
C6542 C6543 1.389 . S
C6542 C6547 1.391 . S
C6543 H6529 0.941 . S
C6543 C6542 1.389 . S
C6543 C6544 1.397 . S
C6544 H6530 0.939 . S
C6544 C6543 1.397 . S
C6544 C6545 1.378 . S
C6545 C6544 1.378 . S
C6545 C6546 1.378 . S
C6546 H6531 0.940 . S
C6546 C6545 1.378 . S
C6546 C6547 1.396 . S
C6547 H6532 0.940 . S
C6547 C6542 1.391 . S
C6547 C6546 1.396 . S
C6548 P6528 1.803 . S
C6548 C6549 1.378 . S
C6548 C6553 1.400 . S
C6549 H6533 0.939 . S
C6549 C6548 1.378 . S
C6549 C6550 1.361 . S
C6550 H6534 0.942 . S
C6550 C6549 1.361 . S
C6550 C6551 1.369 . S
C6551 C6550 1.369 . S
C6551 C6552 1.404 . S
C6552 H6535 0.940 . S
C6552 C6551 1.404 . S
C6552 C6553 1.389 . S
C6553 H6536 0.939 . S
C6553 C6548 1.400 . S
C6553 C6552 1.389 . S
C6554 P6528 1.819 . S
C6554 C6555 1.391 . S
C6554 C6559 1.391 . S
C6555 H6537 0.941 . S
C6555 C6554 1.391 . S
C6555 C6556 1.396 . S
C6556 H6540 0.939 . S
C6556 C6555 1.396 . S
C6556 C6557 1.397 . S
C6557 C6556 1.397 . S
C6557 C6558 1.385 . S
C6558 H6541 0.940 . S
C6558 C6557 1.385 . S
C6558 C6559 1.388 . S
C6559 H6538 0.939 . S
C6559 C6554 1.391 . S
C6559 C6558 1.388 . S
P6560 O6571 1.490 . S
P6560 C6574 1.812 . S
P6560 C6580 1.803 . S
P6560 C6586 1.819 . S
H6561 C6575 0.941 . S
H6562 C6576 0.939 . S
H6563 C6578 0.940 . S
H6564 C6579 0.940 . S
H6565 C6581 0.939 . S
H6566 C6582 0.942 . S
H6567 C6584 0.940 . S
H6568 C6585 0.939 . S
H6569 C6587 0.941 . S
H6570 C6591 0.939 . S
O6571 P6560 1.490 . S
H6572 C6588 0.939 . S
H6573 C6590 0.940 . S
C6574 P6560 1.812 . S
C6574 C6575 1.389 . S
C6574 C6579 1.391 . S
C6575 H6561 0.941 . S
C6575 C6574 1.389 . S
C6575 C6576 1.397 . S
C6576 H6562 0.939 . S
C6576 C6575 1.397 . S
C6576 C6577 1.378 . S
C6577 C6576 1.378 . S
C6577 C6578 1.378 . S
C6578 H6563 0.940 . S
C6578 C6577 1.378 . S
C6578 C6579 1.396 . S
C6579 H6564 0.940 . S
C6579 C6574 1.391 . S
C6579 C6578 1.396 . S
C6580 P6560 1.803 . S
C6580 C6581 1.378 . S
C6580 C6585 1.400 . S
C6581 H6565 0.939 . S
C6581 C6580 1.378 . S
C6581 C6582 1.361 . S
C6582 H6566 0.942 . S
C6582 C6581 1.361 . S
C6582 C6583 1.369 . S
C6583 C6582 1.369 . S
C6583 C6584 1.404 . S
C6584 H6567 0.940 . S
C6584 C6583 1.404 . S
C6584 C6585 1.389 . S
C6585 H6568 0.939 . S
C6585 C6580 1.400 . S
C6585 C6584 1.389 . S
C6586 P6560 1.819 . S
C6586 C6587 1.391 . S
C6586 C6591 1.391 . S
C6587 H6569 0.941 . S
C6587 C6586 1.391 . S
C6587 C6588 1.396 . S
C6588 H6572 0.939 . S
C6588 C6587 1.396 . S
C6588 C6589 1.397 . S
C6589 C6588 1.397 . S
C6589 C6590 1.385 . S
C6590 H6573 0.940 . S
C6590 C6589 1.385 . S
C6590 C6591 1.388 . S
C6591 H6570 0.939 . S
C6591 C6586 1.391 . S
C6591 C6590 1.388 . S
P6592 O6603 1.490 . S
P6592 C6606 1.812 . S
P6592 C6612 1.803 . S
P6592 C6618 1.819 . S
H6593 C6607 0.941 . S
H6594 C6608 0.939 . S
H6595 C6610 0.940 . S
H6596 C6611 0.940 . S
H6597 C6613 0.939 . S
H6598 C6614 0.942 . S
H6599 C6616 0.940 . S
H6600 C6617 0.939 . S
H6601 C6619 0.941 . S
H6602 C6623 0.939 . S
O6603 P6592 1.490 . S
H6604 C6620 0.939 . S
H6605 C6622 0.940 . S
C6606 P6592 1.812 . S
C6606 C6607 1.389 . S
C6606 C6611 1.391 . S
C6607 H6593 0.941 . S
C6607 C6606 1.389 . S
C6607 C6608 1.397 . S
C6608 H6594 0.939 . S
C6608 C6607 1.397 . S
C6608 C6609 1.378 . S
C6609 C6608 1.378 . S
C6609 C6610 1.378 . S
C6610 H6595 0.940 . S
C6610 C6609 1.378 . S
C6610 C6611 1.396 . S
C6611 H6596 0.940 . S
C6611 C6606 1.391 . S
C6611 C6610 1.396 . S
C6612 P6592 1.803 . S
C6612 C6613 1.378 . S
C6612 C6617 1.400 . S
C6613 H6597 0.939 . S
C6613 C6612 1.378 . S
C6613 C6614 1.361 . S
C6614 H6598 0.942 . S
C6614 C6613 1.361 . S
C6614 C6615 1.369 . S
C6615 C6614 1.369 . S
C6615 C6616 1.404 . S
C6616 H6599 0.940 . S
C6616 C6615 1.404 . S
C6616 C6617 1.389 . S
C6617 H6600 0.939 . S
C6617 C6612 1.400 . S
C6617 C6616 1.389 . S
C6618 P6592 1.819 . S
C6618 C6619 1.391 . S
C6618 C6623 1.391 . S
C6619 H6601 0.941 . S
C6619 C6618 1.391 . S
C6619 C6620 1.396 . S
C6620 H6604 0.939 . S
C6620 C6619 1.396 . S
C6620 C6621 1.397 . S
C6621 C6620 1.397 . S
C6621 C6622 1.385 . S
C6622 H6605 0.940 . S
C6622 C6621 1.385 . S
C6622 C6623 1.388 . S
C6623 H6602 0.939 . S
C6623 C6618 1.391 . S
C6623 C6622 1.388 . S
P6624 O6635 1.490 . S
P6624 C6638 1.812 . S
P6624 C6644 1.803 . S
P6624 C6650 1.819 . S
H6625 C6639 0.941 . S
H6626 C6640 0.939 . S
H6627 C6642 0.940 . S
H6628 C6643 0.940 . S
H6629 C6645 0.939 . S
H6630 C6646 0.942 . S
H6631 C6648 0.940 . S
H6632 C6649 0.939 . S
H6633 C6651 0.941 . S
H6634 C6655 0.939 . S
O6635 P6624 1.490 . S
H6636 C6652 0.939 . S
H6637 C6654 0.940 . S
C6638 P6624 1.812 . S
C6638 C6639 1.389 . S
C6638 C6643 1.391 . S
C6639 H6625 0.941 . S
C6639 C6638 1.389 . S
C6639 C6640 1.397 . S
C6640 H6626 0.939 . S
C6640 C6639 1.397 . S
C6640 C6641 1.378 . S
C6641 C6640 1.378 . S
C6641 C6642 1.378 . S
C6642 H6627 0.940 . S
C6642 C6641 1.378 . S
C6642 C6643 1.396 . S
C6643 H6628 0.940 . S
C6643 C6638 1.391 . S
C6643 C6642 1.396 . S
C6644 P6624 1.803 . S
C6644 C6645 1.378 . S
C6644 C6649 1.400 . S
C6645 H6629 0.939 . S
C6645 C6644 1.378 . S
C6645 C6646 1.361 . S
C6646 H6630 0.942 . S
C6646 C6645 1.361 . S
C6646 C6647 1.369 . S
C6647 C6646 1.369 . S
C6647 C6648 1.404 . S
C6648 H6631 0.940 . S
C6648 C6647 1.404 . S
C6648 C6649 1.389 . S
C6649 H6632 0.939 . S
C6649 C6644 1.400 . S
C6649 C6648 1.389 . S
C6650 P6624 1.819 . S
C6650 C6651 1.391 . S
C6650 C6655 1.391 . S
C6651 H6633 0.941 . S
C6651 C6650 1.391 . S
C6651 C6652 1.396 . S
C6652 H6636 0.939 . S
C6652 C6651 1.396 . S
C6652 C6653 1.397 . S
C6653 C6652 1.397 . S
C6653 C6654 1.385 . S
C6654 H6637 0.940 . S
C6654 C6653 1.385 . S
C6654 C6655 1.388 . S
C6655 H6634 0.939 . S
C6655 C6650 1.391 . S
C6655 C6654 1.388 . S
P6656 O6667 1.490 . S
P6656 C6670 1.812 . S
P6656 C6676 1.803 . S
P6656 C6682 1.819 . S
H6657 C6671 0.941 . S
H6658 C6672 0.939 . S
H6659 C6674 0.940 . S
H6660 C6675 0.940 . S
H6661 C6677 0.939 . S
H6662 C6678 0.942 . S
H6663 C6680 0.940 . S
H6664 C6681 0.939 . S
H6665 C6683 0.941 . S
H6666 C6687 0.939 . S
O6667 P6656 1.490 . S
H6668 C6684 0.939 . S
H6669 C6686 0.940 . S
C6670 P6656 1.812 . S
C6670 C6671 1.389 . S
C6670 C6675 1.391 . S
C6671 H6657 0.941 . S
C6671 C6670 1.389 . S
C6671 C6672 1.397 . S
C6672 H6658 0.939 . S
C6672 C6671 1.397 . S
C6672 C6673 1.378 . S
C6673 C6672 1.378 . S
C6673 C6674 1.378 . S
C6674 H6659 0.940 . S
C6674 C6673 1.378 . S
C6674 C6675 1.396 . S
C6675 H6660 0.940 . S
C6675 C6670 1.391 . S
C6675 C6674 1.396 . S
C6676 P6656 1.803 . S
C6676 C6677 1.378 . S
C6676 C6681 1.400 . S
C6677 H6661 0.939 . S
C6677 C6676 1.378 . S
C6677 C6678 1.361 . S
C6678 H6662 0.942 . S
C6678 C6677 1.361 . S
C6678 C6679 1.369 . S
C6679 C6678 1.369 . S
C6679 C6680 1.404 . S
C6680 H6663 0.940 . S
C6680 C6679 1.404 . S
C6680 C6681 1.389 . S
C6681 H6664 0.939 . S
C6681 C6676 1.400 . S
C6681 C6680 1.389 . S
C6682 P6656 1.819 . S
C6682 C6683 1.391 . S
C6682 C6687 1.391 . S
C6683 H6665 0.941 . S
C6683 C6682 1.391 . S
C6683 C6684 1.396 . S
C6684 H6668 0.939 . S
C6684 C6683 1.396 . S
C6684 C6685 1.397 . S
C6685 C6684 1.397 . S
C6685 C6686 1.385 . S
C6686 H6669 0.940 . S
C6686 C6685 1.385 . S
C6686 C6687 1.388 . S
C6687 H6666 0.939 . S
C6687 C6682 1.391 . S
C6687 C6686 1.388 . S
P6688 O6699 1.490 . S
P6688 C6702 1.812 . S
P6688 C6708 1.803 . S
P6688 C6714 1.819 . S
H6689 C6703 0.941 . S
H6690 C6704 0.939 . S
H6691 C6706 0.940 . S
H6692 C6707 0.940 . S
H6693 C6709 0.939 . S
H6694 C6710 0.942 . S
H6695 C6712 0.940 . S
H6696 C6713 0.939 . S
H6697 C6715 0.941 . S
H6698 C6719 0.939 . S
O6699 P6688 1.490 . S
H6700 C6716 0.939 . S
H6701 C6718 0.940 . S
C6702 P6688 1.812 . S
C6702 C6703 1.389 . S
C6702 C6707 1.391 . S
C6703 H6689 0.941 . S
C6703 C6702 1.389 . S
C6703 C6704 1.397 . S
C6704 H6690 0.939 . S
C6704 C6703 1.397 . S
C6704 C6705 1.378 . S
C6705 C6704 1.378 . S
C6705 C6706 1.378 . S
C6706 H6691 0.940 . S
C6706 C6705 1.378 . S
C6706 C6707 1.396 . S
C6707 H6692 0.940 . S
C6707 C6702 1.391 . S
C6707 C6706 1.396 . S
C6708 P6688 1.803 . S
C6708 C6709 1.378 . S
C6708 C6713 1.400 . S
C6709 H6693 0.939 . S
C6709 C6708 1.378 . S
C6709 C6710 1.361 . S
C6710 H6694 0.942 . S
C6710 C6709 1.361 . S
C6710 C6711 1.369 . S
C6711 C6710 1.369 . S
C6711 C6712 1.404 . S
C6712 H6695 0.940 . S
C6712 C6711 1.404 . S
C6712 C6713 1.389 . S
C6713 H6696 0.939 . S
C6713 C6708 1.400 . S
C6713 C6712 1.389 . S
C6714 P6688 1.819 . S
C6714 C6715 1.391 . S
C6714 C6719 1.391 . S
C6715 H6697 0.941 . S
C6715 C6714 1.391 . S
C6715 C6716 1.396 . S
C6716 H6700 0.939 . S
C6716 C6715 1.396 . S
C6716 C6717 1.397 . S
C6717 C6716 1.397 . S
C6717 C6718 1.385 . S
C6718 H6701 0.940 . S
C6718 C6717 1.385 . S
C6718 C6719 1.388 . S
C6719 H6698 0.939 . S
C6719 C6714 1.391 . S
C6719 C6718 1.388 . S
P6720 O6731 1.490 . S
P6720 C6734 1.812 . S
P6720 C6740 1.803 . S
P6720 C6746 1.819 . S
H6721 C6735 0.941 . S
H6722 C6736 0.939 . S
H6723 C6738 0.940 . S
H6724 C6739 0.940 . S
H6725 C6741 0.939 . S
H6726 C6742 0.942 . S
H6727 C6744 0.940 . S
H6728 C6745 0.939 . S
H6729 C6747 0.941 . S
H6730 C6751 0.939 . S
O6731 P6720 1.490 . S
H6732 C6748 0.939 . S
H6733 C6750 0.940 . S
C6734 P6720 1.812 . S
C6734 C6735 1.389 . S
C6734 C6739 1.391 . S
C6735 H6721 0.941 . S
C6735 C6734 1.389 . S
C6735 C6736 1.397 . S
C6736 H6722 0.939 . S
C6736 C6735 1.397 . S
C6736 C6737 1.378 . S
C6737 C6736 1.378 . S
C6737 C6738 1.378 . S
C6738 H6723 0.940 . S
C6738 C6737 1.378 . S
C6738 C6739 1.396 . S
C6739 H6724 0.940 . S
C6739 C6734 1.391 . S
C6739 C6738 1.396 . S
C6740 P6720 1.803 . S
C6740 C6741 1.378 . S
C6740 C6745 1.400 . S
C6741 H6725 0.939 . S
C6741 C6740 1.378 . S
C6741 C6742 1.361 . S
C6742 H6726 0.942 . S
C6742 C6741 1.361 . S
C6742 C6743 1.369 . S
C6743 C6742 1.369 . S
C6743 C6744 1.404 . S
C6744 H6727 0.940 . S
C6744 C6743 1.404 . S
C6744 C6745 1.389 . S
C6745 H6728 0.939 . S
C6745 C6740 1.400 . S
C6745 C6744 1.389 . S
C6746 P6720 1.819 . S
C6746 C6747 1.391 . S
C6746 C6751 1.391 . S
C6747 H6729 0.941 . S
C6747 C6746 1.391 . S
C6747 C6748 1.396 . S
C6748 H6732 0.939 . S
C6748 C6747 1.396 . S
C6748 C6749 1.397 . S
C6749 C6748 1.397 . S
C6749 C6750 1.385 . S
C6750 H6733 0.940 . S
C6750 C6749 1.385 . S
C6750 C6751 1.388 . S
C6751 H6730 0.939 . S
C6751 C6746 1.391 . S
C6751 C6750 1.388 . S
P6752 O6763 1.490 . S
P6752 C6766 1.812 . S
P6752 C6772 1.803 . S
P6752 C6778 1.819 . S
H6753 C6767 0.941 . S
H6754 C6768 0.939 . S
H6755 C6770 0.940 . S
H6756 C6771 0.940 . S
H6757 C6773 0.939 . S
H6758 C6774 0.942 . S
H6759 C6776 0.940 . S
H6760 C6777 0.939 . S
H6761 C6779 0.941 . S
H6762 C6783 0.939 . S
O6763 P6752 1.490 . S
H6764 C6780 0.939 . S
H6765 C6782 0.940 . S
C6766 P6752 1.812 . S
C6766 C6767 1.389 . S
C6766 C6771 1.391 . S
C6767 H6753 0.941 . S
C6767 C6766 1.389 . S
C6767 C6768 1.397 . S
C6768 H6754 0.939 . S
C6768 C6767 1.397 . S
C6768 C6769 1.378 . S
C6769 C6768 1.378 . S
C6769 C6770 1.378 . S
C6770 H6755 0.940 . S
C6770 C6769 1.378 . S
C6770 C6771 1.396 . S
C6771 H6756 0.940 . S
C6771 C6766 1.391 . S
C6771 C6770 1.396 . S
C6772 P6752 1.803 . S
C6772 C6773 1.378 . S
C6772 C6777 1.400 . S
C6773 H6757 0.939 . S
C6773 C6772 1.378 . S
C6773 C6774 1.361 . S
C6774 H6758 0.942 . S
C6774 C6773 1.361 . S
C6774 C6775 1.369 . S
C6775 C6774 1.369 . S
C6775 C6776 1.404 . S
C6776 H6759 0.940 . S
C6776 C6775 1.404 . S
C6776 C6777 1.389 . S
C6777 H6760 0.939 . S
C6777 C6772 1.400 . S
C6777 C6776 1.389 . S
C6778 P6752 1.819 . S
C6778 C6779 1.391 . S
C6778 C6783 1.391 . S
C6779 H6761 0.941 . S
C6779 C6778 1.391 . S
C6779 C6780 1.396 . S
C6780 H6764 0.939 . S
C6780 C6779 1.396 . S
C6780 C6781 1.397 . S
C6781 C6780 1.397 . S
C6781 C6782 1.385 . S
C6782 H6765 0.940 . S
C6782 C6781 1.385 . S
C6782 C6783 1.388 . S
C6783 H6762 0.939 . S
C6783 C6778 1.391 . S
C6783 C6782 1.388 . S
P6784 O6795 1.490 . S
P6784 C6798 1.812 . S
P6784 C6804 1.803 . S
P6784 C6810 1.819 . S
H6785 C6799 0.941 . S
H6786 C6800 0.939 . S
H6787 C6802 0.940 . S
H6788 C6803 0.940 . S
H6789 C6805 0.939 . S
H6790 C6806 0.942 . S
H6791 C6808 0.940 . S
H6792 C6809 0.939 . S
H6793 C6811 0.941 . S
H6794 C6815 0.939 . S
O6795 P6784 1.490 . S
H6796 C6812 0.939 . S
H6797 C6814 0.940 . S
C6798 P6784 1.812 . S
C6798 C6799 1.389 . S
C6798 C6803 1.391 . S
C6799 H6785 0.941 . S
C6799 C6798 1.389 . S
C6799 C6800 1.397 . S
C6800 H6786 0.939 . S
C6800 C6799 1.397 . S
C6800 C6801 1.378 . S
C6801 C6800 1.378 . S
C6801 C6802 1.378 . S
C6802 H6787 0.940 . S
C6802 C6801 1.378 . S
C6802 C6803 1.396 . S
C6803 H6788 0.940 . S
C6803 C6798 1.391 . S
C6803 C6802 1.396 . S
C6804 P6784 1.803 . S
C6804 C6805 1.378 . S
C6804 C6809 1.400 . S
C6805 H6789 0.939 . S
C6805 C6804 1.378 . S
C6805 C6806 1.361 . S
C6806 H6790 0.942 . S
C6806 C6805 1.361 . S
C6806 C6807 1.369 . S
C6807 C6806 1.369 . S
C6807 C6808 1.404 . S
C6808 H6791 0.940 . S
C6808 C6807 1.404 . S
C6808 C6809 1.389 . S
C6809 H6792 0.939 . S
C6809 C6804 1.400 . S
C6809 C6808 1.389 . S
C6810 P6784 1.819 . S
C6810 C6811 1.391 . S
C6810 C6815 1.391 . S
C6811 H6793 0.941 . S
C6811 C6810 1.391 . S
C6811 C6812 1.396 . S
C6812 H6796 0.939 . S
C6812 C6811 1.396 . S
C6812 C6813 1.397 . S
C6813 C6812 1.397 . S
C6813 C6814 1.385 . S
C6814 H6797 0.940 . S
C6814 C6813 1.385 . S
C6814 C6815 1.388 . S
C6815 H6794 0.939 . S
C6815 C6810 1.391 . S
C6815 C6814 1.388 . S
P6816 O6827 1.490 . S
P6816 C6830 1.812 . S
P6816 C6836 1.803 . S
P6816 C6842 1.819 . S
H6817 C6831 0.941 . S
H6818 C6832 0.939 . S
H6819 C6834 0.940 . S
H6820 C6835 0.940 . S
H6821 C6837 0.939 . S
H6822 C6838 0.942 . S
H6823 C6840 0.940 . S
H6824 C6841 0.939 . S
H6825 C6843 0.941 . S
H6826 C6847 0.939 . S
O6827 P6816 1.490 . S
H6828 C6844 0.939 . S
H6829 C6846 0.940 . S
C6830 P6816 1.812 . S
C6830 C6831 1.389 . S
C6830 C6835 1.391 . S
C6831 H6817 0.941 . S
C6831 C6830 1.389 . S
C6831 C6832 1.397 . S
C6832 H6818 0.939 . S
C6832 C6831 1.397 . S
C6832 C6833 1.378 . S
C6833 C6832 1.378 . S
C6833 C6834 1.378 . S
C6834 H6819 0.940 . S
C6834 C6833 1.378 . S
C6834 C6835 1.396 . S
C6835 H6820 0.940 . S
C6835 C6830 1.391 . S
C6835 C6834 1.396 . S
C6836 P6816 1.803 . S
C6836 C6837 1.378 . S
C6836 C6841 1.400 . S
C6837 H6821 0.939 . S
C6837 C6836 1.378 . S
C6837 C6838 1.361 . S
C6838 H6822 0.942 . S
C6838 C6837 1.361 . S
C6838 C6839 1.369 . S
C6839 C6838 1.369 . S
C6839 C6840 1.404 . S
C6840 H6823 0.940 . S
C6840 C6839 1.404 . S
C6840 C6841 1.389 . S
C6841 H6824 0.939 . S
C6841 C6836 1.400 . S
C6841 C6840 1.389 . S
C6842 P6816 1.819 . S
C6842 C6843 1.391 . S
C6842 C6847 1.391 . S
C6843 H6825 0.941 . S
C6843 C6842 1.391 . S
C6843 C6844 1.396 . S
C6844 H6828 0.939 . S
C6844 C6843 1.396 . S
C6844 C6845 1.397 . S
C6845 C6844 1.397 . S
C6845 C6846 1.385 . S
C6846 H6829 0.940 . S
C6846 C6845 1.385 . S
C6846 C6847 1.388 . S
C6847 H6826 0.939 . S
C6847 C6842 1.391 . S
C6847 C6846 1.388 . S
P6848 O6859 1.490 . S
P6848 C6862 1.812 . S
P6848 C6868 1.803 . S
P6848 C6874 1.819 . S
H6849 C6863 0.941 . S
H6850 C6864 0.939 . S
H6851 C6866 0.940 . S
H6852 C6867 0.940 . S
H6853 C6869 0.939 . S
H6854 C6870 0.942 . S
H6855 C6872 0.940 . S
H6856 C6873 0.939 . S
H6857 C6875 0.941 . S
H6858 C6879 0.939 . S
O6859 P6848 1.490 . S
H6860 C6876 0.939 . S
H6861 C6878 0.940 . S
C6862 P6848 1.812 . S
C6862 C6863 1.389 . S
C6862 C6867 1.391 . S
C6863 H6849 0.941 . S
C6863 C6862 1.389 . S
C6863 C6864 1.397 . S
C6864 H6850 0.939 . S
C6864 C6863 1.397 . S
C6864 C6865 1.378 . S
C6865 C6864 1.378 . S
C6865 C6866 1.378 . S
C6866 H6851 0.940 . S
C6866 C6865 1.378 . S
C6866 C6867 1.396 . S
C6867 H6852 0.940 . S
C6867 C6862 1.391 . S
C6867 C6866 1.396 . S
C6868 P6848 1.803 . S
C6868 C6869 1.378 . S
C6868 C6873 1.400 . S
C6869 H6853 0.939 . S
C6869 C6868 1.378 . S
C6869 C6870 1.361 . S
C6870 H6854 0.942 . S
C6870 C6869 1.361 . S
C6870 C6871 1.369 . S
C6871 C6870 1.369 . S
C6871 C6872 1.404 . S
C6872 H6855 0.940 . S
C6872 C6871 1.404 . S
C6872 C6873 1.389 . S
C6873 H6856 0.939 . S
C6873 C6868 1.400 . S
C6873 C6872 1.389 . S
C6874 P6848 1.819 . S
C6874 C6875 1.391 . S
C6874 C6879 1.391 . S
C6875 H6857 0.941 . S
C6875 C6874 1.391 . S
C6875 C6876 1.396 . S
C6876 H6860 0.939 . S
C6876 C6875 1.396 . S
C6876 C6877 1.397 . S
C6877 C6876 1.397 . S
C6877 C6878 1.385 . S
C6878 H6861 0.940 . S
C6878 C6877 1.385 . S
C6878 C6879 1.388 . S
C6879 H6858 0.939 . S
C6879 C6874 1.391 . S
C6879 C6878 1.388 . S
P6880 O6891 1.490 . S
P6880 C6894 1.812 . S
P6880 C6900 1.803 . S
P6880 C6906 1.819 . S
H6881 C6895 0.941 . S
H6882 C6896 0.939 . S
H6883 C6898 0.940 . S
H6884 C6899 0.940 . S
H6885 C6901 0.939 . S
H6886 C6902 0.942 . S
H6887 C6904 0.940 . S
H6888 C6905 0.939 . S
H6889 C6907 0.941 . S
H6890 C6911 0.939 . S
O6891 P6880 1.490 . S
H6892 C6908 0.939 . S
H6893 C6910 0.940 . S
C6894 P6880 1.812 . S
C6894 C6895 1.389 . S
C6894 C6899 1.391 . S
C6895 H6881 0.941 . S
C6895 C6894 1.389 . S
C6895 C6896 1.397 . S
C6896 H6882 0.939 . S
C6896 C6895 1.397 . S
C6896 C6897 1.378 . S
C6897 C6896 1.378 . S
C6897 C6898 1.378 . S
C6898 H6883 0.940 . S
C6898 C6897 1.378 . S
C6898 C6899 1.396 . S
C6899 H6884 0.940 . S
C6899 C6894 1.391 . S
C6899 C6898 1.396 . S
C6900 P6880 1.803 . S
C6900 C6901 1.378 . S
C6900 C6905 1.400 . S
C6901 H6885 0.939 . S
C6901 C6900 1.378 . S
C6901 C6902 1.361 . S
C6902 H6886 0.942 . S
C6902 C6901 1.361 . S
C6902 C6903 1.369 . S
C6903 C6902 1.369 . S
C6903 C6904 1.404 . S
C6904 H6887 0.940 . S
C6904 C6903 1.404 . S
C6904 C6905 1.389 . S
C6905 H6888 0.939 . S
C6905 C6900 1.400 . S
C6905 C6904 1.389 . S
C6906 P6880 1.819 . S
C6906 C6907 1.391 . S
C6906 C6911 1.391 . S
C6907 H6889 0.941 . S
C6907 C6906 1.391 . S
C6907 C6908 1.396 . S
C6908 H6892 0.939 . S
C6908 C6907 1.396 . S
C6908 C6909 1.397 . S
C6909 C6908 1.397 . S
C6909 C6910 1.385 . S
C6910 H6893 0.940 . S
C6910 C6909 1.385 . S
C6910 C6911 1.388 . S
C6911 H6890 0.939 . S
C6911 C6906 1.391 . S
C6911 C6910 1.388 . S
C6912 C6913 1.369 . S
C6912 C6914 1.419 . S
C6912 H6916 0.930 . S
C6913 C6912 1.369 . S
C6913 C6922 1.429 . S
C6914 C6912 1.419 . S
C6914 C6915 1.363 . S
C6914 H6917 0.929 . S
C6915 C6914 1.363 . S
C6915 C6921 1.428 . S
H6916 C6912 0.930 . S
H6917 C6914 0.929 . S
S6918 N6919 1.613 . S
S6918 N6920 1.610 . S
N6919 S6918 1.613 . S
N6919 C6922 1.350 . S
N6920 S6918 1.610 . S
N6920 C6921 1.351 . S
C6921 C6915 1.428 . S
C6921 N6920 1.351 . S
C6921 C6922 1.434 . S
C6922 C6913 1.429 . S
C6922 N6919 1.350 . S
C6922 C6921 1.434 . S
C6923 C6924 1.369 . S
C6923 C6925 1.419 . S
C6923 H6927 0.930 . S
C6924 C6923 1.369 . S
C6924 C6933 1.429 . S
C6925 C6923 1.419 . S
C6925 C6926 1.363 . S
C6925 H6928 0.929 . S
C6926 C6925 1.363 . S
C6926 C6932 1.428 . S
H6927 C6923 0.930 . S
H6928 C6925 0.929 . S
S6929 N6930 1.613 . S
S6929 N6931 1.610 . S
N6930 S6929 1.613 . S
N6930 C6933 1.350 . S
N6931 S6929 1.610 . S
N6931 C6932 1.351 . S
C6932 C6926 1.428 . S
C6932 N6931 1.351 . S
C6932 C6933 1.434 . S
C6933 C6924 1.429 . S
C6933 N6930 1.350 . S
C6933 C6932 1.434 . S
C6934 C6935 1.369 . S
C6934 C6936 1.419 . S
C6934 H6938 0.930 . S
C6935 C6934 1.369 . S
C6935 C6944 1.429 . S
C6936 C6934 1.419 . S
C6936 C6937 1.363 . S
C6936 H6939 0.929 . S
C6937 C6936 1.363 . S
C6937 C6943 1.428 . S
H6938 C6934 0.930 . S
H6939 C6936 0.929 . S
S6940 N6941 1.613 . S
S6940 N6942 1.610 . S
N6941 S6940 1.613 . S
N6941 C6944 1.350 . S
N6942 S6940 1.610 . S
N6942 C6943 1.351 . S
C6943 C6937 1.428 . S
C6943 N6942 1.351 . S
C6943 C6944 1.434 . S
C6944 C6935 1.429 . S
C6944 N6941 1.350 . S
C6944 C6943 1.434 . S
C6945 C6946 1.369 . S
C6945 C6947 1.419 . S
C6945 H6949 0.930 . S
C6946 C6945 1.369 . S
C6946 C6955 1.429 . S
C6947 C6945 1.419 . S
C6947 C6948 1.363 . S
C6947 H6950 0.929 . S
C6948 C6947 1.363 . S
C6948 C6954 1.428 . S
H6949 C6945 0.930 . S
H6950 C6947 0.929 . S
S6951 N6952 1.613 . S
S6951 N6953 1.610 . S
N6952 S6951 1.613 . S
N6952 C6955 1.350 . S
N6953 S6951 1.610 . S
N6953 C6954 1.351 . S
C6954 C6948 1.428 . S
C6954 N6953 1.351 . S
C6954 C6955 1.434 . S
C6955 C6946 1.429 . S
C6955 N6952 1.350 . S
C6955 C6954 1.434 . S
C6956 C6957 1.369 . S
C6956 C6958 1.419 . S
C6956 H6960 0.930 . S
C6957 C6956 1.369 . S
C6957 C6966 1.429 . S
C6958 C6956 1.419 . S
C6958 C6959 1.363 . S
C6958 H6961 0.929 . S
C6959 C6958 1.363 . S
C6959 C6965 1.428 . S
H6960 C6956 0.930 . S
H6961 C6958 0.929 . S
S6962 N6963 1.613 . S
S6962 N6964 1.610 . S
N6963 S6962 1.613 . S
N6963 C6966 1.350 . S
N6964 S6962 1.610 . S
N6964 C6965 1.351 . S
C6965 C6959 1.428 . S
C6965 N6964 1.351 . S
C6965 C6966 1.434 . S
C6966 C6957 1.429 . S
C6966 N6963 1.350 . S
C6966 C6965 1.434 . S
C6967 C6968 1.369 . S
C6967 C6969 1.419 . S
C6967 H6971 0.930 . S
C6968 C6967 1.369 . S
C6968 C6977 1.429 . S
C6969 C6967 1.419 . S
C6969 C6970 1.363 . S
C6969 H6972 0.929 . S
C6970 C6969 1.363 . S
C6970 C6976 1.428 . S
H6971 C6967 0.930 . S
H6972 C6969 0.929 . S
S6973 N6974 1.613 . S
S6973 N6975 1.610 . S
N6974 S6973 1.613 . S
N6974 C6977 1.350 . S
N6975 S6973 1.610 . S
N6975 C6976 1.351 . S
C6976 C6970 1.428 . S
C6976 N6975 1.351 . S
C6976 C6977 1.434 . S
C6977 C6968 1.429 . S
C6977 N6974 1.350 . S
C6977 C6976 1.434 . S
C6978 C6979 1.369 . S
C6978 C6980 1.419 . S
C6978 H6982 0.930 . S
C6979 C6978 1.369 . S
C6979 C6988 1.429 . S
C6980 C6978 1.419 . S
C6980 C6981 1.363 . S
C6980 H6983 0.929 . S
C6981 C6980 1.363 . S
C6981 C6987 1.428 . S
H6982 C6978 0.930 . S
H6983 C6980 0.929 . S
S6984 N6985 1.613 . S
S6984 N6986 1.610 . S
N6985 S6984 1.613 . S
N6985 C6988 1.350 . S
N6986 S6984 1.610 . S
N6986 C6987 1.351 . S
C6987 C6981 1.428 . S
C6987 N6986 1.351 . S
C6987 C6988 1.434 . S
C6988 C6979 1.429 . S
C6988 N6985 1.350 . S
C6988 C6987 1.434 . S
C6989 C6990 1.369 . S
C6989 C6991 1.419 . S
C6989 H6993 0.930 . S
C6990 C6989 1.369 . S
C6990 C6999 1.429 . S
C6991 C6989 1.419 . S
C6991 C6992 1.363 . S
C6991 H6994 0.929 . S
C6992 C6991 1.363 . S
C6992 C6998 1.428 . S
H6993 C6989 0.930 . S
H6994 C6991 0.929 . S
S6995 N6996 1.613 . S
S6995 N6997 1.610 . S
N6996 S6995 1.613 . S
N6996 C6999 1.350 . S
N6997 S6995 1.610 . S
N6997 C6998 1.351 . S
C6998 C6992 1.428 . S
C6998 N6997 1.351 . S
C6998 C6999 1.434 . S
C6999 C6990 1.429 . S
C6999 N6996 1.350 . S
C6999 C6998 1.434 . S
C7000 C7001 1.369 . S
C7000 C7002 1.419 . S
C7000 H7004 0.930 . S
C7001 C7000 1.369 . S
C7001 C7010 1.429 . S
C7002 C7000 1.419 . S
C7002 C7003 1.363 . S
C7002 H7005 0.929 . S
C7003 C7002 1.363 . S
C7003 C7009 1.428 . S
H7004 C7000 0.930 . S
H7005 C7002 0.929 . S
S7006 N7007 1.613 1_565 S
S7006 N7008 1.610 . S
N7007 S7006 1.613 1_545 S
N7007 C7010 1.350 1_545 S
N7008 S7006 1.610 . S
N7008 C7009 1.351 . S
C7009 C7003 1.428 . S
C7009 N7008 1.351 . S
C7009 C7010 1.434 . S
C7010 C7001 1.429 . S
C7010 N7007 1.350 1_565 S
C7010 C7009 1.434 . S
C7011 C7012 1.369 . S
C7011 C7013 1.419 . S
C7011 H7015 0.930 . S
C7012 C7011 1.369 . S
C7012 C7021 1.429 . S
C7013 C7011 1.419 . S
C7013 C7014 1.363 . S
C7013 H7016 0.929 . S
C7014 C7013 1.363 . S
C7014 C7020 1.428 . S
H7015 C7011 0.930 . S
H7016 C7013 0.929 . S
S7017 N7018 1.613 . S
S7017 N7019 1.610 . S
N7018 S7017 1.613 . S
N7018 C7021 1.350 . S
N7019 S7017 1.610 . S
N7019 C7020 1.351 . S
C7020 C7014 1.428 . S
C7020 N7019 1.351 . S
C7020 C7021 1.434 . S
C7021 C7012 1.429 . S
C7021 N7018 1.350 . S
C7021 C7020 1.434 . S
C7022 C7023 1.369 . S
C7022 C7024 1.419 . S
C7022 H7026 0.868 1_545 S
C7023 C7022 1.369 . S
C7023 C7032 1.429 . S
C7024 C7022 1.419 . S
C7024 C7025 1.363 . S
C7024 H7027 0.929 . S
C7025 C7024 1.363 . S
C7025 C7031 1.428 . S
H7026 C7022 0.868 1_565 S
H7027 C7024 0.929 . S
S7028 N7029 1.613 . S
S7028 N7030 1.610 . S
N7029 S7028 1.613 . S
N7029 C7032 1.350 . S
N7030 S7028 1.610 . S
N7030 C7031 1.351 . S
C7031 C7025 1.428 . S
C7031 N7030 1.351 . S
C7031 C7032 1.434 . S
C7032 C7023 1.429 . S
C7032 N7029 1.350 . S
C7032 C7031 1.434 . S
C7033 C7034 1.369 . S
C7033 C7035 1.419 . S
C7033 H7037 0.930 . S
C7034 C7033 1.369 . S
C7034 C7043 1.429 . S
C7035 C7033 1.419 . S
C7035 C7036 1.363 . S
C7035 H7038 0.929 . S
C7036 C7035 1.363 . S
C7036 C7042 1.428 . S
H7037 C7033 0.930 . S
H7038 C7035 0.929 . S
S7039 N7040 1.613 . S
S7039 N7041 1.610 . S
N7040 S7039 1.613 . S
N7040 C7043 1.350 . S
N7041 S7039 1.610 . S
N7041 C7042 1.351 . S
C7042 C7036 1.428 . S
C7042 N7041 1.351 . S
C7042 C7043 1.434 . S
C7043 C7034 1.429 . S
C7043 N7040 1.350 . S
C7043 C7042 1.434 . S
C7044 C7045 1.369 . S
C7044 C7046 1.419 . S
C7044 H7048 0.930 . S
C7045 C7044 1.369 . S
C7045 C7054 1.429 . S
C7046 C7044 1.419 . S
C7046 C7047 1.363 . S
C7046 H7049 0.929 . S
C7047 C7046 1.363 . S
C7047 C7053 1.428 . S
H7048 C7044 0.930 . S
H7049 C7046 0.929 . S
S7050 N7051 1.613 . S
S7050 N7052 1.610 . S
N7051 S7050 1.613 . S
N7051 C7054 1.350 . S
N7052 S7050 1.610 . S
N7052 C7053 1.351 . S
C7053 C7047 1.428 . S
C7053 N7052 1.351 . S
C7053 C7054 1.434 . S
C7054 C7045 1.429 . S
C7054 N7051 1.350 . S
C7054 C7053 1.434 . S
C7055 C7056 1.369 . S
C7055 C7057 1.419 . S
C7055 H7059 0.930 . S
C7056 C7055 1.369 . S
C7056 C7065 1.429 . S
C7057 C7055 1.419 . S
C7057 C7058 1.363 . S
C7057 H7060 0.929 . S
C7058 C7057 1.363 . S
C7058 C7064 1.428 . S
H7059 C7055 0.930 . S
H7060 C7057 0.929 . S
S7061 N7062 1.613 . S
S7061 N7063 1.610 . S
N7062 S7061 1.613 . S
N7062 C7065 1.350 . S
N7063 S7061 1.610 . S
N7063 C7064 1.351 . S
C7064 C7058 1.428 . S
C7064 N7063 1.351 . S
C7064 C7065 1.434 . S
C7065 C7056 1.429 . S
C7065 N7062 1.350 . S
C7065 C7064 1.434 . S
C7066 C7067 1.369 . S
C7066 C7068 1.419 . S
C7066 H7070 0.930 . S
C7067 C7066 1.369 . S
C7067 C7076 1.429 . S
C7068 C7066 1.419 . S
C7068 C7069 1.363 . S
C7068 H7071 0.929 . S
C7069 C7068 1.363 . S
C7069 C7075 1.428 . S
H7070 C7066 0.930 . S
H7071 C7068 0.929 . S
S7072 N7073 1.613 . S
S7072 N7074 1.610 . S
N7073 S7072 1.613 . S
N7073 C7076 1.350 . S
N7074 S7072 1.610 . S
N7074 C7075 1.351 . S
C7075 C7069 1.428 . S
C7075 N7074 1.351 . S
C7075 C7076 1.434 . S
C7076 C7067 1.429 . S
C7076 N7073 1.350 . S
C7076 C7075 1.434 . S
C7077 C7078 1.369 . S
C7077 C7079 1.419 . S
C7077 H7081 0.930 . S
C7078 C7077 1.369 . S
C7078 C7087 1.429 . S
C7079 C7077 1.419 . S
C7079 C7080 1.363 . S
C7079 H7082 0.929 . S
C7080 C7079 1.363 . S
C7080 C7086 1.428 . S
H7081 C7077 0.930 . S
H7082 C7079 0.929 . S
S7083 N7084 1.613 . S
S7083 N7085 1.610 . S
N7084 S7083 1.613 . S
N7084 C7087 1.350 . S
N7085 S7083 1.610 . S
N7085 C7086 1.351 . S
C7086 C7080 1.428 . S
C7086 N7085 1.351 . S
C7086 C7087 1.434 . S
C7087 C7078 1.429 . S
C7087 N7084 1.350 . S
C7087 C7086 1.434 . S
C7088 C7089 1.369 . S
C7088 C7090 1.419 . S
C7088 H7092 0.930 . S
C7089 C7088 1.369 . S
C7089 C7098 1.429 . S
C7090 C7088 1.419 . S
C7090 C7091 1.363 . S
C7090 H7093 0.929 . S
C7091 C7090 1.363 . S
C7091 C7097 1.428 . S
H7092 C7088 0.930 . S
H7093 C7090 0.929 . S
S7094 N7095 1.613 . S
S7094 N7096 1.610 1_554 S
N7095 S7094 1.613 . S
N7095 C7098 1.350 1_554 S
N7096 S7094 1.610 1_556 S
N7096 C7097 1.351 . S
C7097 C7091 1.428 . S
C7097 N7096 1.351 . S
C7097 C7098 1.434 . S
C7098 C7089 1.429 . S
C7098 N7095 1.350 1_556 S
C7098 C7097 1.434 . S
C7099 C7100 1.369 . S
C7099 C7101 1.419 . S
C7099 H7103 0.930 1_554 S
C7100 C7099 1.369 . S
C7100 C7109 1.429 . S
C7101 C7099 1.419 . S
C7101 C7102 1.363 . S
C7101 H7104 0.929 . S
C7102 C7101 1.363 . S
C7102 C7108 1.428 . S
H7103 C7099 0.930 1_556 S
H7104 C7101 0.929 . S
S7105 N7106 1.613 . S
S7105 N7107 1.610 . S
N7106 S7105 1.613 . S
N7106 C7109 1.350 . S
N7107 S7105 1.610 . S
N7107 C7108 1.351 . S
C7108 C7102 1.428 . S
C7108 N7107 1.351 . S
C7108 C7109 1.434 . S
C7109 C7100 1.429 . S
C7109 N7106 1.350 . S
C7109 C7108 1.434 . S
C7110 C7111 1.369 . S
C7110 C7112 1.419 . S
C7110 H7114 0.930 . S
C7111 C7110 1.369 . S
C7111 C7120 1.429 . S
C7112 C7110 1.419 . S
C7112 C7113 1.363 . S
C7112 H7115 0.929 . S
C7113 C7112 1.363 . S
C7113 C7119 1.428 . S
H7114 C7110 0.930 . S
H7115 C7112 0.929 . S
S7116 N7117 1.613 . S
S7116 N7118 1.610 . S
N7117 S7116 1.613 . S
N7117 C7120 1.350 . S
N7118 S7116 1.610 . S
N7118 C7119 1.351 . S
C7119 C7113 1.428 . S
C7119 N7118 1.351 . S
C7119 C7120 1.434 . S
C7120 C7111 1.429 . S
C7120 N7117 1.350 . S
C7120 C7119 1.434 . S
C7121 C7122 1.369 . S
C7121 C7123 1.419 . S
C7121 H7125 0.930 . S
C7122 C7121 1.369 . S
C7122 C7131 1.429 . S
C7123 C7121 1.419 . S
C7123 C7124 1.363 . S
C7123 H7126 0.929 . S
C7124 C7123 1.363 . S
C7124 C7130 1.428 . S
H7125 C7121 0.930 . S
H7126 C7123 0.929 . S
S7127 N7128 1.613 . S
S7127 N7129 1.610 . S
N7128 S7127 1.613 . S
N7128 C7131 1.350 . S
N7129 S7127 1.610 . S
N7129 C7130 1.351 . S
C7130 C7124 1.428 . S
C7130 N7129 1.351 . S
C7130 C7131 1.434 . S
C7131 C7122 1.429 . S
C7131 N7128 1.350 . S
C7131 C7130 1.434 . S
C7132 C7133 1.369 . S
C7132 C7134 1.419 . S
C7132 H7136 0.930 . S
C7133 C7132 1.369 . S
C7133 C7142 1.429 . S
C7134 C7132 1.419 . S
C7134 C7135 1.363 . S
C7134 H7137 0.929 . S
C7135 C7134 1.363 . S
C7135 C7141 1.428 . S
H7136 C7132 0.930 . S
H7137 C7134 0.929 . S
S7138 N7139 1.613 . S
S7138 N7140 1.610 . S
N7139 S7138 1.613 . S
N7139 C7142 1.350 . S
N7140 S7138 1.610 . S
N7140 C7141 1.351 . S
C7141 C7135 1.428 . S
C7141 N7140 1.351 . S
C7141 C7142 1.434 . S
C7142 C7133 1.429 . S
C7142 N7139 1.350 . S
C7142 C7141 1.434 . S
C7143 C7144 1.369 . S
C7143 C7145 1.419 . S
C7143 H7147 0.930 . S
C7144 C7143 1.369 . S
C7144 C7153 1.429 . S
C7145 C7143 1.419 . S
C7145 C7146 1.363 . S
C7145 H7148 0.929 . S
C7146 C7145 1.363 . S
C7146 C7152 1.428 . S
H7147 C7143 0.930 . S
H7148 C7145 0.929 . S
S7149 N7150 1.613 . S
S7149 N7151 1.610 . S
N7150 S7149 1.613 . S
N7150 C7153 1.350 . S
N7151 S7149 1.610 . S
N7151 C7152 1.351 . S
C7152 C7146 1.428 . S
C7152 N7151 1.351 . S
C7152 C7153 1.434 . S
C7153 C7144 1.429 . S
C7153 N7150 1.350 . S
C7153 C7152 1.434 . S
C7154 C7155 1.369 . S
C7154 C7156 1.419 . S
C7154 H7158 0.930 . S
C7155 C7154 1.369 . S
C7155 C7164 1.429 . S
C7156 C7154 1.419 . S
C7156 C7157 1.363 . S
C7156 H7159 0.929 . S
C7157 C7156 1.363 . S
C7157 C7163 1.428 . S
H7158 C7154 0.930 . S
H7159 C7156 0.929 . S
S7160 N7161 1.613 . S
S7160 N7162 1.610 . S
N7161 S7160 1.613 . S
N7161 C7164 1.350 . S
N7162 S7160 1.610 . S
N7162 C7163 1.351 . S
C7163 C7157 1.428 . S
C7163 N7162 1.351 . S
C7163 C7164 1.434 . S
C7164 C7155 1.429 . S
C7164 N7161 1.350 . S
C7164 C7163 1.434 . S
C7165 C7166 1.369 . S
C7165 C7167 1.419 . S
C7165 H7169 0.930 . S
C7166 C7165 1.369 . S
C7166 C7175 1.429 . S
C7167 C7165 1.419 . S
C7167 C7168 1.363 . S
C7167 H7170 0.929 . S
C7168 C7167 1.363 . S
C7168 C7174 1.428 . S
H7169 C7165 0.930 . S
H7170 C7167 0.929 . S
S7171 N7172 1.613 . S
S7171 N7173 1.610 . S
N7172 S7171 1.613 . S
N7172 C7175 1.350 . S
N7173 S7171 1.610 . S
N7173 C7174 1.351 . S
C7174 C7168 1.428 . S
C7174 N7173 1.351 . S
C7174 C7175 1.434 . S
C7175 C7166 1.429 . S
C7175 N7172 1.350 . S
C7175 C7174 1.434 . S
C7176 C7177 1.369 . S
C7176 C7178 1.419 . S
C7176 H7180 0.930 . S
C7177 C7176 1.369 . S
C7177 C7186 1.429 . S
C7178 C7176 1.419 . S
C7178 C7179 1.363 . S
C7178 H7181 0.929 . S
C7179 C7178 1.363 . S
C7179 C7185 1.428 . S
H7180 C7176 0.930 . S
H7181 C7178 0.929 . S
S7182 N7183 1.590 1_455 S
S7182 N7184 1.610 . S
N7183 S7182 1.590 1_655 S
N7183 C7186 1.289 1_655 S
N7184 S7182 1.610 . S
N7184 C7185 1.351 . S
C7185 C7179 1.428 . S
C7185 N7184 1.351 . S
C7185 C7186 1.434 . S
C7186 C7177 1.429 . S
C7186 N7183 1.289 1_455 S
C7186 C7185 1.434 . S
C7187 C7188 1.369 . S
C7187 C7189 1.419 . S
C7187 H7191 0.930 . S
C7188 C7187 1.369 . S
C7188 C7197 1.429 . S
C7189 C7187 1.419 . S
C7189 C7190 1.363 . S
C7189 H7192 0.929 . S
C7190 C7189 1.363 . S
C7190 C7196 1.428 . S
H7191 C7187 0.930 . S
H7192 C7189 0.929 . S
S7193 N7194 1.613 . S
S7193 N7195 1.610 . S
N7194 S7193 1.613 . S
N7194 C7197 1.350 . S
N7195 S7193 1.610 . S
N7195 C7196 1.351 . S
C7196 C7190 1.428 . S
C7196 N7195 1.351 . S
C7196 C7197 1.434 . S
C7197 C7188 1.429 . S
C7197 N7194 1.350 . S
C7197 C7196 1.434 . S
C7198 C7199 1.369 . S
C7198 C7200 1.419 . S
C7198 H7202 0.930 . S
C7199 C7198 1.369 . S
C7199 C7208 1.429 . S
C7200 C7198 1.419 . S
C7200 C7201 1.363 . S
C7200 H7203 0.929 . S
C7201 C7200 1.363 . S
C7201 C7207 1.428 . S
H7202 C7198 0.930 . S
H7203 C7200 0.929 . S
S7204 N7205 1.613 . S
S7204 N7206 1.610 . S
N7205 S7204 1.613 . S
N7205 C7208 1.350 . S
N7206 S7204 1.610 . S
N7206 C7207 1.351 . S
C7207 C7201 1.428 . S
C7207 N7206 1.351 . S
C7207 C7208 1.434 . S
C7208 C7199 1.429 . S
C7208 N7205 1.350 . S
C7208 C7207 1.434 . S
C7209 C7210 1.369 . S
C7209 C7211 1.419 . S
C7209 H7213 0.930 . S
C7210 C7209 1.369 . S
C7210 C7219 1.429 . S
C7211 C7209 1.419 . S
C7211 C7212 1.363 . S
C7211 H7214 0.929 . S
C7212 C7211 1.363 . S
C7212 C7218 1.428 . S
H7213 C7209 0.930 . S
H7214 C7211 0.929 . S
S7215 N7216 1.613 . S
S7215 N7217 1.610 . S
N7216 S7215 1.613 . S
N7216 C7219 1.350 . S
N7217 S7215 1.610 . S
N7217 C7218 1.351 . S
C7218 C7212 1.428 . S
C7218 N7217 1.351 . S
C7218 C7219 1.434 . S
C7219 C7210 1.429 . S
C7219 N7216 1.350 . S
C7219 C7218 1.434 . S
C7220 C7221 1.369 . S
C7220 C7222 1.419 . S
C7220 H7224 0.930 . S
C7221 C7220 1.369 . S
C7221 C7230 1.429 . S
C7222 C7220 1.419 . S
C7222 C7223 1.363 . S
C7222 H7225 0.929 . S
C7223 C7222 1.363 . S
C7223 C7229 1.428 . S
H7224 C7220 0.930 . S
H7225 C7222 0.929 . S
S7226 N7227 1.613 . S
S7226 N7228 1.610 . S
N7227 S7226 1.613 . S
N7227 C7230 1.350 . S
N7228 S7226 1.610 . S
N7228 C7229 1.351 . S
C7229 C7223 1.428 . S
C7229 N7228 1.351 . S
C7229 C7230 1.434 . S
C7230 C7221 1.429 . S
C7230 N7227 1.350 . S
C7230 C7229 1.434 . S
C7231 C7232 1.369 . S
C7231 C7233 1.419 . S
C7231 H7235 0.930 . S
C7232 C7231 1.369 . S
C7232 C7241 1.429 . S
C7233 C7231 1.419 . S
C7233 C7234 1.363 . S
C7233 H7236 0.929 . S
C7234 C7233 1.363 . S
C7234 C7240 1.428 . S
H7235 C7231 0.930 . S
H7236 C7233 0.929 . S
S7237 N7238 1.613 . S
S7237 N7239 1.610 . S
N7238 S7237 1.613 . S
N7238 C7241 1.350 . S
N7239 S7237 1.610 . S
N7239 C7240 1.351 . S
C7240 C7234 1.428 . S
C7240 N7239 1.351 . S
C7240 C7241 1.434 . S
C7241 C7232 1.429 . S
C7241 N7238 1.350 . S
C7241 C7240 1.434 . S
C7242 C7243 1.369 . S
C7242 C7244 1.419 . S
C7242 H7246 0.930 . S
C7243 C7242 1.369 . S
C7243 C7252 1.429 . S
C7244 C7242 1.419 . S
C7244 C7245 1.363 . S
C7244 H7247 0.929 . S
C7245 C7244 1.363 . S
C7245 C7251 1.428 . S
H7246 C7242 0.930 . S
H7247 C7244 0.929 . S
S7248 N7249 1.613 . S
S7248 N7250 1.610 . S
N7249 S7248 1.613 . S
N7249 C7252 1.350 . S
N7250 S7248 1.610 . S
N7250 C7251 1.351 . S
C7251 C7245 1.428 . S
C7251 N7250 1.351 . S
C7251 C7252 1.434 . S
C7252 C7243 1.429 . S
C7252 N7249 1.350 . S
C7252 C7251 1.434 . S
C7253 C7254 1.369 . S
C7253 C7255 1.419 . S
C7253 H7257 0.930 . S
C7254 C7253 1.369 . S
C7254 C7263 1.429 . S
C7255 C7253 1.419 . S
C7255 C7256 1.363 . S
C7255 H7258 0.929 . S
C7256 C7255 1.363 . S
C7256 C7262 1.428 . S
H7257 C7253 0.930 . S
H7258 C7255 0.929 . S
S7259 N7260 1.613 . S
S7259 N7261 1.610 . S
N7260 S7259 1.613 . S
N7260 C7263 1.350 . S
N7261 S7259 1.610 . S
N7261 C7262 1.351 . S
C7262 C7256 1.428 . S
C7262 N7261 1.351 . S
C7262 C7263 1.434 . S
C7263 C7254 1.429 . S
C7263 N7260 1.350 . S
C7263 C7262 1.434 . S
C7264 C7265 1.369 . S
C7264 C7266 1.419 . S
C7264 H7268 0.930 . S
C7265 C7264 1.369 . S
C7265 C7274 1.429 . S
C7266 C7264 1.419 . S
C7266 C7267 1.363 . S
C7266 H7269 0.929 . S
C7267 C7266 1.363 . S
C7267 C7273 1.428 . S
H7268 C7264 0.930 . S
H7269 C7266 0.929 . S
S7270 N7271 1.613 . S
S7270 N7272 1.610 . S
N7271 S7270 1.613 . S
N7271 C7274 1.350 . S
N7272 S7270 1.610 . S
N7272 C7273 1.351 . S
C7273 C7267 1.428 . S
C7273 N7272 1.351 . S
C7273 C7274 1.434 . S
C7274 C7265 1.429 . S
C7274 N7271 1.350 . S
C7274 C7273 1.434 . S
C7275 C7276 1.369 . S
C7275 C7277 1.419 . S
C7275 H7279 0.930 . S
C7276 C7275 1.369 . S
C7276 C7285 1.429 . S
C7277 C7275 1.419 . S
C7277 C7278 1.363 . S
C7277 H7280 0.929 . S
C7278 C7277 1.363 . S
C7278 C7284 1.428 . S
H7279 C7275 0.930 . S
H7280 C7277 0.929 . S
S7281 N7282 1.613 . S
S7281 N7283 1.610 . S
N7282 S7281 1.613 . S
N7282 C7285 1.350 . S
N7283 S7281 1.610 . S
N7283 C7284 1.351 . S
C7284 C7278 1.428 . S
C7284 N7283 1.351 . S
C7284 C7285 1.434 . S
C7285 C7276 1.429 . S
C7285 N7282 1.350 . S
C7285 C7284 1.434 . S
C7286 C7287 1.369 . S
C7286 C7288 1.419 . S
C7286 H7290 0.930 1_565 S
C7287 C7286 1.369 . S
C7287 C7296 1.429 . S
C7288 C7286 1.419 . S
C7288 C7289 1.363 . S
C7288 H7291 0.929 . S
C7289 C7288 1.363 . S
C7289 C7295 1.428 . S
H7290 C7286 0.930 1_545 S
H7291 C7288 0.929 . S
S7292 N7293 1.613 . S
S7292 N7294 1.610 . S
N7293 S7292 1.613 . S
N7293 C7296 1.350 . S
N7294 S7292 1.610 . S
N7294 C7295 1.351 . S
C7295 C7289 1.428 . S
C7295 N7294 1.351 . S
C7295 C7296 1.434 . S
C7296 C7287 1.429 . S
C7296 N7293 1.350 . S
C7296 C7295 1.434 . S
C7297 C7298 1.369 . S
C7297 C7299 1.419 . S
C7297 H7301 0.930 . S
C7298 C7297 1.369 . S
C7298 C7307 1.429 . S
C7299 C7297 1.419 . S
C7299 C7300 1.363 . S
C7299 H7302 0.929 . S
C7300 C7299 1.363 . S
C7300 C7306 1.428 . S
H7301 C7297 0.930 . S
H7302 C7299 0.929 . S
S7303 N7304 1.613 . S
S7303 N7305 1.610 . S
N7304 S7303 1.613 . S
N7304 C7307 1.350 . S
N7305 S7303 1.610 . S
N7305 C7306 1.351 . S
C7306 C7300 1.428 . S
C7306 N7305 1.351 . S
C7306 C7307 1.434 . S
C7307 C7298 1.429 . S
C7307 N7304 1.350 . S
C7307 C7306 1.434 . S
C7308 C7309 1.369 . S
C7308 C7310 1.419 . S
C7308 H7312 0.930 . S
C7309 C7308 1.369 . S
C7309 C7318 1.429 . S
C7310 C7308 1.419 . S
C7310 C7311 1.363 . S
C7310 H7313 0.929 . S
C7311 C7310 1.363 . S
C7311 C7317 1.428 . S
H7312 C7308 0.930 . S
H7313 C7310 0.929 . S
S7314 N7315 1.610 1_565 S
S7314 N7316 1.623 . S
N7315 S7314 1.610 1_545 S
N7315 C7318 1.350 1_545 S
N7316 S7314 1.623 . S
N7316 C7317 1.351 . S
C7317 C7311 1.428 . S
C7317 N7316 1.351 . S
C7317 C7318 1.434 . S
C7318 C7309 1.429 . S
C7318 N7315 1.350 1_565 S
C7318 C7317 1.434 . S
C7319 C7320 1.369 . S
C7319 C7321 1.419 . S
C7319 H7323 0.930 . S
C7320 C7319 1.369 . S
C7320 C7329 1.429 . S
C7321 C7319 1.419 . S
C7321 C7322 1.363 . S
C7321 H7324 0.929 . S
C7322 C7321 1.363 . S
C7322 C7328 1.428 . S
H7323 C7319 0.930 . S
H7324 C7321 0.929 . S
S7325 N7326 1.613 . S
S7325 N7327 1.610 . S
N7326 S7325 1.613 . S
N7326 C7329 1.350 . S
N7327 S7325 1.610 . S
N7327 C7328 1.351 . S
C7328 C7322 1.428 . S
C7328 N7327 1.351 . S
C7328 C7329 1.434 . S
C7329 C7320 1.429 . S
C7329 N7326 1.350 . S
C7329 C7328 1.434 . S
C7330 C7331 1.369 . S
C7330 C7332 1.419 . S
C7330 H7334 0.930 . S
C7331 C7330 1.369 . S
C7331 C7340 1.429 . S
C7332 C7330 1.419 . S
C7332 C7333 1.363 . S
C7332 H7335 0.929 . S
C7333 C7332 1.363 . S
C7333 C7339 1.428 . S
H7334 C7330 0.930 . S
H7335 C7332 0.929 . S
S7336 N7337 1.613 . S
S7336 N7338 1.610 . S
N7337 S7336 1.613 . S
N7337 C7340 1.350 . S
N7338 S7336 1.610 . S
N7338 C7339 1.351 . S
C7339 C7333 1.428 . S
C7339 N7338 1.351 . S
C7339 C7340 1.434 . S
C7340 C7331 1.429 . S
C7340 N7337 1.350 . S
C7340 C7339 1.434 . S
C7341 C7342 1.369 . S
C7341 C7343 1.419 . S
C7341 H7345 0.930 . S
C7342 C7341 1.369 . S
C7342 C7351 1.429 . S
C7343 C7341 1.419 . S
C7343 C7344 1.363 . S
C7343 H7346 0.929 . S
C7344 C7343 1.363 . S
C7344 C7350 1.428 . S
H7345 C7341 0.930 . S
H7346 C7343 0.929 . S
S7347 N7348 1.613 . S
S7347 N7349 1.610 . S
N7348 S7347 1.613 . S
N7348 C7351 1.350 . S
N7349 S7347 1.610 . S
N7349 C7350 1.351 . S
C7350 C7344 1.428 . S
C7350 N7349 1.351 . S
C7350 C7351 1.434 . S
C7351 C7342 1.429 . S
C7351 N7348 1.350 . S
C7351 C7350 1.434 . S
C7352 C7353 1.369 . S
C7352 C7354 1.419 . S
C7352 H7356 0.960 . S
C7353 C7352 1.369 . S
C7353 C7362 1.429 . S
C7354 C7352 1.419 . S
C7354 C7355 1.363 . S
C7354 H7357 0.929 . S
C7355 C7354 1.363 . S
C7355 C7361 1.428 . S
H7356 C7352 0.960 . S
H7357 C7354 0.929 . S
S7358 N7359 1.613 . S
S7358 N7360 1.610 . S
N7359 S7358 1.613 . S
N7359 C7362 1.350 . S
N7360 S7358 1.610 . S
N7360 C7361 1.351 . S
C7361 C7355 1.428 . S
C7361 N7360 1.351 . S
C7361 C7362 1.434 . S
C7362 C7353 1.429 . S
C7362 N7359 1.350 . S
C7362 C7361 1.434 . S
C7363 C7364 1.369 . S
C7363 C7365 1.419 . S
C7363 H7367 0.930 1_556 S
C7364 C7363 1.369 . S
C7364 C7373 1.429 . S
C7365 C7363 1.419 . S
C7365 C7366 1.363 . S
C7365 H7368 0.929 . S
C7366 C7365 1.363 . S
C7366 C7372 1.428 . S
H7367 C7363 0.930 1_554 S
H7368 C7365 0.929 . S
S7369 N7370 1.613 . S
S7369 N7371 1.610 . S
N7370 S7369 1.613 . S
N7370 C7373 1.350 . S
N7371 S7369 1.610 . S
N7371 C7372 1.351 . S
C7372 C7366 1.428 . S
C7372 N7371 1.351 . S
C7372 C7373 1.434 . S
C7373 C7364 1.429 . S
C7373 N7370 1.350 . S
C7373 C7372 1.434 . S
C7374 C7375 1.369 . S
C7374 C7376 1.419 . S
C7374 H7378 0.930 . S
C7375 C7374 1.369 . S
C7375 C7384 1.429 . S
C7376 C7374 1.419 . S
C7376 C7377 1.363 . S
C7376 H7379 0.929 . S
C7377 C7376 1.363 . S
C7377 C7383 1.428 . S
H7378 C7374 0.930 . S
H7379 C7376 0.929 . S
S7380 N7381 1.613 . S
S7380 N7382 1.610 . S
N7381 S7380 1.613 . S
N7381 C7384 1.350 . S
N7382 S7380 1.610 . S
N7382 C7383 1.351 . S
C7383 C7377 1.428 . S
C7383 N7382 1.351 . S
C7383 C7384 1.434 . S
C7384 C7375 1.429 . S
C7384 N7381 1.350 . S
C7384 C7383 1.434 . S
C7385 C7386 1.369 . S
C7385 C7387 1.419 . S
C7385 H7389 0.930 . S
C7386 C7385 1.369 . S
C7386 C7395 1.429 . S
C7387 C7385 1.419 . S
C7387 C7388 1.363 . S
C7387 H7390 0.929 . S
C7388 C7387 1.363 . S
C7388 C7394 1.428 . S
H7389 C7385 0.930 . S
H7390 C7387 0.929 . S
S7391 N7392 1.613 . S
S7391 N7393 1.610 . S
N7392 S7391 1.613 . S
N7392 C7395 1.350 . S
N7393 S7391 1.610 . S
N7393 C7394 1.351 . S
C7394 C7388 1.428 . S
C7394 N7393 1.351 . S
C7394 C7395 1.434 . S
C7395 C7386 1.429 . S
C7395 N7392 1.350 . S
C7395 C7394 1.434 . S
C7396 C7397 1.369 . S
C7396 C7398 1.419 . S
C7396 H7400 0.930 . S
C7397 C7396 1.369 . S
C7397 C7406 1.429 . S
C7398 C7396 1.419 . S
C7398 C7399 1.363 . S
C7398 H7401 0.929 . S
C7399 C7398 1.363 . S
C7399 C7405 1.428 . S
H7400 C7396 0.930 . S
H7401 C7398 0.929 . S
S7402 N7403 1.613 . S
S7402 N7404 1.610 . S
N7403 S7402 1.613 . S
N7403 C7406 1.350 . S
N7404 S7402 1.610 . S
N7404 C7405 1.351 . S
C7405 C7399 1.428 . S
C7405 N7404 1.351 . S
C7405 C7406 1.434 . S
C7406 C7397 1.429 . S
C7406 N7403 1.350 . S
C7406 C7405 1.434 . S
C7407 C7408 1.369 . S
C7407 C7409 1.419 . S
C7407 H7411 0.930 . S
C7408 C7407 1.369 . S
C7408 C7417 1.429 . S
C7409 C7407 1.419 . S
C7409 C7410 1.363 . S
C7409 H7412 0.929 . S
C7410 C7409 1.363 . S
C7410 C7416 1.428 . S
H7411 C7407 0.930 . S
H7412 C7409 0.929 . S
S7413 N7414 1.613 . S
S7413 N7415 1.610 . S
N7414 S7413 1.613 . S
N7414 C7417 1.350 . S
N7415 S7413 1.610 . S
N7415 C7416 1.351 . S
C7416 C7410 1.428 . S
C7416 N7415 1.351 . S
C7416 C7417 1.434 . S
C7417 C7408 1.429 . S
C7417 N7414 1.350 . S
C7417 C7416 1.434 . S
C7418 C7419 1.369 . S
C7418 C7420 1.419 . S
C7418 H7422 0.930 . S
C7419 C7418 1.369 . S
C7419 C7428 1.429 . S
C7420 C7418 1.419 . S
C7420 C7421 1.363 . S
C7420 H7423 0.929 . S
C7421 C7420 1.363 . S
C7421 C7427 1.428 . S
H7422 C7418 0.930 . S
H7423 C7420 0.929 . S
S7424 N7425 1.613 . S
S7424 N7426 1.610 . S
N7425 S7424 1.613 . S
N7425 C7428 1.350 . S
N7426 S7424 1.610 . S
N7426 C7427 1.351 . S
C7427 C7421 1.428 . S
C7427 N7426 1.351 . S
C7427 C7428 1.434 . S
C7428 C7419 1.429 . S
C7428 N7425 1.350 . S
C7428 C7427 1.434 . S
C7429 C7430 1.369 . S
C7429 C7431 1.419 . S
C7429 H7433 0.930 . S
C7430 C7429 1.369 . S
C7430 C7439 1.429 . S
C7431 C7429 1.419 . S
C7431 C7432 1.363 . S
C7431 H7434 0.929 . S
C7432 C7431 1.363 . S
C7432 C7438 1.428 . S
H7433 C7429 0.930 . S
H7434 C7431 0.929 . S
S7435 N7436 1.613 . S
S7435 N7437 1.610 . S
N7436 S7435 1.613 . S
N7436 C7439 1.350 . S
N7437 S7435 1.610 . S
N7437 C7438 1.351 . S
C7438 C7432 1.428 . S
C7438 N7437 1.351 . S
C7438 C7439 1.434 . S
C7439 C7430 1.429 . S
C7439 N7436 1.350 . S
C7439 C7438 1.434 . S
C7440 C7441 1.369 . S
C7440 C7442 1.419 . S
C7440 H7444 0.930 . S
C7441 C7440 1.369 . S
C7441 C7450 1.429 . S
C7442 C7440 1.419 . S
C7442 C7443 1.363 . S
C7442 H7445 0.929 . S
C7443 C7442 1.363 . S
C7443 C7449 1.428 . S
H7444 C7440 0.930 . S
H7445 C7442 0.929 . S
S7446 N7447 1.613 . S
S7446 N7448 1.610 . S
N7447 S7446 1.613 . S
N7447 C7450 1.350 . S
N7448 S7446 1.610 . S
N7448 C7449 1.351 . S
C7449 C7443 1.428 . S
C7449 N7448 1.351 . S
C7449 C7450 1.434 . S
C7450 C7441 1.429 . S
C7450 N7447 1.350 . S
C7450 C7449 1.434 . S
C7451 C7452 1.369 . S
C7451 C7453 1.419 . S
C7451 H7455 0.930 . S
C7452 C7451 1.369 . S
C7452 C7461 1.429 . S
C7453 C7451 1.419 . S
C7453 C7454 1.363 . S
C7453 H7456 0.929 . S
C7454 C7453 1.363 . S
C7454 C7460 1.428 . S
H7455 C7451 0.930 . S
H7456 C7453 0.929 . S
S7457 N7458 1.613 . S
S7457 N7459 1.610 . S
N7458 S7457 1.613 . S
N7458 C7461 1.350 . S
N7459 S7457 1.610 . S
N7459 C7460 1.351 . S
C7460 C7454 1.428 . S
C7460 N7459 1.351 . S
C7460 C7461 1.434 . S
C7461 C7452 1.429 . S
C7461 N7458 1.350 . S
C7461 C7460 1.434 . S
C7462 C7463 1.369 . S
C7462 C7464 1.419 . S
C7462 H7466 0.969 . S
C7463 C7462 1.369 . S
C7463 C7472 1.429 . S
C7464 C7462 1.419 . S
C7464 C7465 1.363 . S
C7464 H7467 0.929 . S
C7465 C7464 1.363 . S
C7465 C7471 1.428 . S
H7466 C7462 0.969 . S
H7467 C7464 0.929 . S
S7468 N7469 1.613 . S
S7468 N7470 1.610 . S
N7469 S7468 1.613 . S
N7469 C7472 1.350 . S
N7470 S7468 1.610 . S
N7470 C7471 1.351 . S
C7471 C7465 1.428 . S
C7471 N7470 1.351 . S
C7471 C7472 1.434 . S
C7472 C7463 1.429 . S
C7472 N7469 1.350 . S
C7472 C7471 1.434 . S
C7473 C7474 1.369 . S
C7473 C7475 1.419 . S
C7473 H7477 0.930 . S
C7474 C7473 1.369 . S
C7474 C7483 1.429 . S
C7475 C7473 1.419 . S
C7475 C7476 1.363 . S
C7475 H7478 0.929 . S
C7476 C7475 1.363 . S
C7476 C7482 1.428 . S
H7477 C7473 0.930 . S
H7478 C7475 0.929 . S
S7479 N7480 1.613 . S
S7479 N7481 1.610 . S
N7480 S7479 1.613 . S
N7480 C7483 1.350 . S
N7481 S7479 1.610 . S
N7481 C7482 1.351 . S
C7482 C7476 1.428 . S
C7482 N7481 1.351 . S
C7482 C7483 1.434 . S
C7483 C7474 1.429 . S
C7483 N7480 1.350 . S
C7483 C7482 1.434 . S
C7484 C7485 1.369 . S
C7484 C7486 1.419 . S
C7484 H7488 0.930 . S
C7485 C7484 1.369 . S
C7485 C7494 1.429 . S
C7486 C7484 1.419 . S
C7486 C7487 1.363 . S
C7486 H7489 0.929 . S
C7487 C7486 1.363 . S
C7487 C7493 1.428 . S
H7488 C7484 0.930 . S
H7489 C7486 0.929 . S
S7490 N7491 1.613 . S
S7490 N7492 1.610 . S
N7491 S7490 1.613 . S
N7491 C7494 1.350 . S
N7492 S7490 1.610 . S
N7492 C7493 1.351 . S
C7493 C7487 1.428 . S
C7493 N7492 1.351 . S
C7493 C7494 1.434 . S
C7494 C7485 1.429 . S
C7494 N7491 1.350 . S
C7494 C7493 1.434 . S
C7495 C7496 1.369 . S
C7495 C7497 1.419 . S
C7495 H7499 0.930 . S
C7496 C7495 1.369 . S
C7496 C7505 1.429 . S
C7497 C7495 1.419 . S
C7497 C7498 1.363 . S
C7497 H7500 0.929 . S
C7498 C7497 1.363 . S
C7498 C7504 1.428 . S
H7499 C7495 0.930 . S
H7500 C7497 0.929 . S
S7501 N7502 1.613 . S
S7501 N7503 1.610 . S
N7502 S7501 1.613 . S
N7502 C7505 1.350 . S
N7503 S7501 1.610 . S
N7503 C7504 1.351 . S
C7504 C7498 1.428 . S
C7504 N7503 1.351 . S
C7504 C7505 1.434 . S
C7505 C7496 1.429 . S
C7505 N7502 1.350 . S
C7505 C7504 1.434 . S
C7506 C7507 1.369 . S
C7506 C7508 1.419 . S
C7506 H7510 0.930 . S
C7507 C7506 1.369 . S
C7507 C7516 1.429 . S
C7508 C7506 1.419 . S
C7508 C7509 1.363 . S
C7508 H7511 0.929 . S
C7509 C7508 1.363 . S
C7509 C7515 1.428 . S
H7510 C7506 0.930 . S
H7511 C7508 0.929 . S
S7512 N7513 1.607 1_455 S
S7512 N7514 1.638 . S
N7513 S7512 1.607 1_655 S
N7513 C7516 1.350 1_655 S
N7514 S7512 1.638 . S
N7514 C7515 1.351 . S
C7515 C7509 1.428 . S
C7515 N7514 1.351 . S
C7515 C7516 1.434 . S
C7516 C7507 1.429 . S
C7516 N7513 1.350 1_455 S
C7516 C7515 1.434 . S
C7517 C7518 1.369 . S
C7517 C7519 1.419 . S
C7517 H7521 0.930 . S
C7518 C7517 1.369 . S
C7518 C7527 1.429 . S
C7519 C7517 1.419 . S
C7519 C7520 1.363 . S
C7519 H7522 0.929 . S
C7520 C7519 1.363 . S
C7520 C7526 1.428 . S
H7521 C7517 0.930 . S
H7522 C7519 0.929 . S
S7523 N7524 1.613 . S
S7523 N7525 1.610 . S
N7524 S7523 1.613 . S
N7524 C7527 1.350 . S
N7525 S7523 1.610 . S
N7525 C7526 1.351 . S
C7526 C7520 1.428 . S
C7526 N7525 1.351 . S
C7526 C7527 1.434 . S
C7527 C7518 1.429 . S
C7527 N7524 1.350 . S
C7527 C7526 1.434 . S
C7528 C7529 1.369 . S
C7528 C7530 1.419 . S
C7528 H7532 0.930 . S
C7529 C7528 1.369 . S
C7529 C7538 1.429 . S
C7530 C7528 1.419 . S
C7530 C7531 1.363 . S
C7530 H7533 0.929 . S
C7531 C7530 1.363 . S
C7531 C7537 1.428 . S
H7532 C7528 0.930 . S
H7533 C7530 0.929 . S
S7534 N7535 1.613 . S
S7534 N7536 1.610 . S
N7535 S7534 1.613 . S
N7535 C7538 1.350 . S
N7536 S7534 1.610 . S
N7536 C7537 1.351 . S
C7537 C7531 1.428 . S
C7537 N7536 1.351 . S
C7537 C7538 1.434 . S
C7538 C7529 1.429 . S
C7538 N7535 1.350 . S
C7538 C7537 1.434 . S
C7539 C7540 1.369 . S
C7539 C7541 1.419 . S
C7539 H7543 0.930 . S
C7540 C7539 1.369 . S
C7540 C7549 1.429 . S
C7541 C7539 1.419 . S
C7541 C7542 1.363 . S
C7541 H7544 0.929 . S
C7542 C7541 1.363 . S
C7542 C7548 1.428 . S
H7543 C7539 0.930 . S
H7544 C7541 0.929 . S
S7545 N7546 1.613 . S
S7545 N7547 1.610 . S
N7546 S7545 1.613 . S
N7546 C7549 1.350 . S
N7547 S7545 1.610 . S
N7547 C7548 1.351 . S
C7548 C7542 1.428 . S
C7548 N7547 1.351 . S
C7548 C7549 1.434 . S
C7549 C7540 1.429 . S
C7549 N7546 1.350 . S
C7549 C7548 1.434 . S
C7550 C7551 1.369 . S
C7550 C7552 1.419 . S
C7550 H7554 0.930 . S
C7551 C7550 1.369 . S
C7551 C7560 1.429 . S
C7552 C7550 1.419 . S
C7552 C7553 1.363 . S
C7552 H7555 0.929 . S
C7553 C7552 1.363 . S
C7553 C7559 1.428 . S
H7554 C7550 0.930 . S
H7555 C7552 0.929 . S
S7556 N7557 1.613 . S
S7556 N7558 1.610 . S
N7557 S7556 1.613 . S
N7557 C7560 1.350 . S
N7558 S7556 1.610 . S
N7558 C7559 1.351 . S
C7559 C7553 1.428 . S
C7559 N7558 1.351 . S
C7559 C7560 1.434 . S
C7560 C7551 1.429 . S
C7560 N7557 1.350 . S
C7560 C7559 1.434 . S
C7561 C7562 1.369 . S
C7561 C7563 1.419 . S
C7561 H7565 0.930 . S
C7562 C7561 1.369 . S
C7562 C7571 1.429 . S
C7563 C7561 1.419 . S
C7563 C7564 1.363 . S
C7563 H7566 0.929 . S
C7564 C7563 1.363 . S
C7564 C7570 1.428 . S
H7565 C7561 0.930 . S
H7566 C7563 0.929 . S
S7567 N7568 1.613 . S
S7567 N7569 1.610 . S
N7568 S7567 1.613 . S
N7568 C7571 1.350 . S
N7569 S7567 1.610 . S
N7569 C7570 1.351 . S
C7570 C7564 1.428 . S
C7570 N7569 1.351 . S
C7570 C7571 1.434 . S
C7571 C7562 1.429 . S
C7571 N7568 1.350 . S
C7571 C7570 1.434 . S
C7572 C7573 1.369 . S
C7572 C7574 1.419 . S
C7572 H7576 0.930 . S
C7573 C7572 1.369 . S
C7573 C7582 1.429 . S
C7574 C7572 1.419 . S
C7574 C7575 1.363 . S
C7574 H7577 0.929 . S
C7575 C7574 1.363 . S
C7575 C7581 1.428 . S
H7576 C7572 0.930 . S
H7577 C7574 0.929 . S
S7578 N7579 1.613 . S
S7578 N7580 1.610 . S
N7579 S7578 1.613 . S
N7579 C7582 1.350 . S
N7580 S7578 1.610 . S
N7580 C7581 1.351 . S
C7581 C7575 1.428 . S
C7581 N7580 1.351 . S
C7581 C7582 1.434 . S
C7582 C7573 1.429 . S
C7582 N7579 1.350 . S
C7582 C7581 1.434 . S
C7583 C7584 1.369 . S
C7583 C7585 1.419 . S
C7583 H7587 0.930 . S
C7584 C7583 1.369 . S
C7584 C7593 1.429 . S
C7585 C7583 1.419 . S
C7585 C7586 1.363 . S
C7585 H7588 0.929 . S
C7586 C7585 1.363 . S
C7586 C7592 1.428 . S
H7587 C7583 0.930 . S
H7588 C7585 0.929 . S
S7589 N7590 1.613 . S
S7589 N7591 1.610 . S
N7590 S7589 1.613 . S
N7590 C7593 1.350 . S
N7591 S7589 1.610 . S
N7591 C7592 1.351 . S
C7592 C7586 1.428 . S
C7592 N7591 1.351 . S
C7592 C7593 1.434 . S
C7593 C7584 1.429 . S
C7593 N7590 1.350 . S
C7593 C7592 1.434 . S
C7594 C7595 1.369 . S
C7594 C7596 1.419 . S
C7594 H7598 0.930 . S
C7595 C7594 1.369 . S
C7595 C7604 1.429 . S
C7596 C7594 1.419 . S
C7596 C7597 1.363 . S
C7596 H7599 0.929 . S
C7597 C7596 1.363 . S
C7597 C7603 1.428 . S
H7598 C7594 0.930 . S
H7599 C7596 0.929 . S
S7600 N7601 1.613 . S
S7600 N7602 1.610 . S
N7601 S7600 1.613 . S
N7601 C7604 1.350 . S
N7602 S7600 1.610 . S
N7602 C7603 1.351 . S
C7603 C7597 1.428 . S
C7603 N7602 1.351 . S
C7603 C7604 1.434 . S
C7604 C7595 1.429 . S
C7604 N7601 1.350 . S
C7604 C7603 1.434 . S
C7605 C7606 1.369 . S
C7605 C7607 1.419 . S
C7605 H7609 0.930 . S
C7606 C7605 1.369 . S
C7606 C7615 1.429 . S
C7607 C7605 1.419 . S
C7607 C7608 1.363 . S
C7607 H7610 0.929 . S
C7608 C7607 1.363 . S
C7608 C7614 1.428 . S
H7609 C7605 0.930 . S
H7610 C7607 0.929 . S
S7611 N7612 1.613 . S
S7611 N7613 1.610 . S
N7612 S7611 1.613 . S
N7612 C7615 1.350 . S
N7613 S7611 1.610 . S
N7613 C7614 1.351 . S
C7614 C7608 1.428 . S
C7614 N7613 1.351 . S
C7614 C7615 1.434 . S
C7615 C7606 1.429 . S
C7615 N7612 1.350 . S
C7615 C7614 1.434 . S
C7616 C7617 1.369 . S
C7616 C7618 1.419 . S
C7616 H7620 0.930 . S
C7617 C7616 1.369 . S
C7617 C7626 1.429 . S
C7618 C7616 1.419 . S
C7618 C7619 1.363 . S
C7618 H7621 0.929 . S
C7619 C7618 1.363 . S
C7619 C7625 1.428 . S
H7620 C7616 0.930 . S
H7621 C7618 0.929 . S
S7622 N7623 1.613 . S
S7622 N7624 1.610 . S
N7623 S7622 1.613 . S
N7623 C7626 1.350 . S
N7624 S7622 1.610 . S
N7624 C7625 1.351 . S
C7625 C7619 1.428 . S
C7625 N7624 1.351 . S
C7625 C7626 1.434 . S
C7626 C7617 1.429 . S
C7626 N7623 1.350 . S
C7626 C7625 1.434 . S
C7627 C7628 1.369 . S
C7627 C7629 1.419 . S
C7627 H7631 0.930 . S
C7628 C7627 1.369 . S
C7628 C7637 1.429 . S
C7629 C7627 1.419 . S
C7629 C7630 1.363 . S
C7629 H7632 0.929 . S
C7630 C7629 1.363 . S
C7630 C7636 1.428 . S
H7631 C7627 0.930 . S
H7632 C7629 0.929 . S
S7633 N7634 1.613 . S
S7633 N7635 1.610 . S
N7634 S7633 1.613 . S
N7634 C7637 1.350 . S
N7635 S7633 1.610 . S
N7635 C7636 1.351 . S
C7636 C7630 1.428 . S
C7636 N7635 1.351 . S
C7636 C7637 1.434 . S
C7637 C7628 1.429 . S
C7637 N7634 1.350 . S
C7637 C7636 1.434 . S
C7638 C7639 1.369 . S
C7638 C7640 1.419 . S
C7638 H7642 0.930 . S
C7639 C7638 1.369 . S
C7639 C7648 1.429 . S
C7640 C7638 1.419 . S
C7640 C7641 1.363 . S
C7640 H7643 0.929 . S
C7641 C7640 1.363 . S
C7641 C7647 1.428 . S
H7642 C7638 0.930 . S
H7643 C7640 0.929 . S
S7644 N7645 1.613 . S
S7644 N7646 1.610 . S
N7645 S7644 1.613 . S
N7645 C7648 1.350 . S
N7646 S7644 1.610 . S
N7646 C7647 1.351 . S
C7647 C7641 1.428 . S
C7647 N7646 1.351 . S
C7647 C7648 1.434 . S
C7648 C7639 1.429 . S
C7648 N7645 1.350 . S
C7648 C7647 1.434 . S
C7649 C7650 1.369 . S
C7649 C7651 1.419 . S
C7649 H7653 0.930 1_554 S
C7650 C7649 1.369 . S
C7650 C7659 1.429 . S
C7651 C7649 1.419 . S
C7651 C7652 1.363 . S
C7651 H7654 0.929 . S
C7652 C7651 1.363 . S
C7652 C7658 1.428 . S
H7653 C7649 0.930 1_556 S
H7654 C7651 0.929 . S
S7655 N7656 1.613 . S
S7655 N7657 1.610 . S
N7656 S7655 1.613 . S
N7656 C7659 1.350 . S
N7657 S7655 1.610 . S
N7657 C7658 1.351 . S
C7658 C7652 1.428 . S
C7658 N7657 1.351 . S
C7658 C7659 1.434 . S
C7659 C7650 1.429 . S
C7659 N7656 1.350 . S
C7659 C7658 1.434 . S
C7660 C7661 1.369 . S
C7660 C7662 1.419 . S
C7660 H7664 0.930 . S
C7661 C7660 1.369 . S
C7661 C7670 1.429 . S
C7662 C7660 1.419 . S
C7662 C7663 1.363 . S
C7662 H7665 0.929 . S
C7663 C7662 1.363 . S
C7663 C7669 1.428 . S
H7664 C7660 0.930 . S
H7665 C7662 0.929 . S
S7666 N7667 1.613 . S
S7666 N7668 1.610 . S
N7667 S7666 1.613 . S
N7667 C7670 1.350 . S
N7668 S7666 1.610 . S
N7668 C7669 1.351 . S
C7669 C7663 1.428 . S
C7669 N7668 1.351 . S
C7669 C7670 1.434 . S
C7670 C7661 1.429 . S
C7670 N7667 1.350 . S
C7670 C7669 1.434 . S
C7671 C7672 1.369 . S
C7671 C7673 1.419 . S
C7671 H7675 0.938 1_556 S
C7672 C7671 1.369 . S
C7672 C7681 1.429 . S
C7673 C7671 1.419 . S
C7673 C7674 1.363 . S
C7673 H7676 0.929 . S
C7674 C7673 1.363 . S
C7674 C7680 1.428 . S
H7675 C7671 0.938 1_554 S
H7676 C7673 0.929 . S
S7677 N7678 1.613 . S
S7677 N7679 1.610 . S
N7678 S7677 1.613 . S
N7678 C7681 1.350 . S
N7679 S7677 1.610 . S
N7679 C7680 1.351 . S
C7680 C7674 1.428 . S
C7680 N7679 1.351 . S
C7680 C7681 1.434 . S
C7681 C7672 1.429 . S
C7681 N7678 1.350 . S
C7681 C7680 1.434 . S
C7682 C7683 1.369 . S
C7682 C7684 1.419 . S
C7682 H7686 0.930 . S
C7683 C7682 1.369 . S
C7683 C7692 1.429 . S
C7684 C7682 1.419 . S
C7684 C7685 1.363 . S
C7684 H7687 0.929 . S
C7685 C7684 1.363 . S
C7685 C7691 1.428 . S
H7686 C7682 0.930 . S
H7687 C7684 0.929 . S
S7688 N7689 1.613 . S
S7688 N7690 1.610 . S
N7689 S7688 1.613 . S
N7689 C7692 1.350 . S
N7690 S7688 1.610 . S
N7690 C7691 1.351 . S
C7691 C7685 1.428 . S
C7691 N7690 1.351 . S
C7691 C7692 1.434 . S
C7692 C7683 1.429 . S
C7692 N7689 1.350 . S
C7692 C7691 1.434 . S
C7693 C7694 1.369 . S
C7693 C7695 1.419 . S
C7693 H7697 0.930 . S
C7694 C7693 1.369 . S
C7694 C7703 1.429 . S
C7695 C7693 1.419 . S
C7695 C7696 1.363 . S
C7695 H7698 0.929 . S
C7696 C7695 1.363 . S
C7696 C7702 1.428 . S
H7697 C7693 0.930 . S
H7698 C7695 0.929 . S
S7699 N7700 1.613 . S
S7699 N7701 1.610 . S
N7700 S7699 1.613 . S
N7700 C7703 1.350 . S
N7701 S7699 1.610 . S
N7701 C7702 1.351 . S
C7702 C7696 1.428 . S
C7702 N7701 1.351 . S
C7702 C7703 1.434 . S
C7703 C7694 1.429 . S
C7703 N7700 1.350 . S
C7703 C7702 1.434 . S
C7704 C7705 1.369 . S
C7704 C7706 1.419 . S
C7704 H7708 0.930 . S
C7705 C7704 1.369 . S
C7705 C7714 1.429 . S
C7706 C7704 1.419 . S
C7706 C7707 1.363 . S
C7706 H7709 0.929 . S
C7707 C7706 1.363 . S
C7707 C7713 1.428 . S
H7708 C7704 0.930 . S
H7709 C7706 0.929 . S
S7710 N7711 1.613 . S
S7710 N7712 1.610 . S
N7711 S7710 1.613 . S
N7711 C7714 1.350 . S
N7712 S7710 1.610 . S
N7712 C7713 1.351 . S
C7713 C7707 1.428 . S
C7713 N7712 1.351 . S
C7713 C7714 1.434 . S
C7714 C7705 1.429 . S
C7714 N7711 1.350 . S
C7714 C7713 1.434 . S
C7715 C7716 1.369 . S
C7715 C7717 1.419 . S
C7715 H7719 0.930 . S
C7716 C7715 1.369 . S
C7716 C7725 1.429 . S
C7717 C7715 1.419 . S
C7717 C7718 1.363 . S
C7717 H7720 0.929 . S
C7718 C7717 1.363 . S
C7718 C7724 1.428 . S
H7719 C7715 0.930 . S
H7720 C7717 0.929 . S
S7721 N7722 1.613 . S
S7721 N7723 1.610 . S
N7722 S7721 1.613 . S
N7722 C7725 1.350 . S
N7723 S7721 1.610 . S
N7723 C7724 1.351 . S
C7724 C7718 1.428 . S
C7724 N7723 1.351 . S
C7724 C7725 1.434 . S
C7725 C7716 1.429 . S
C7725 N7722 1.350 . S
C7725 C7724 1.434 . S
C7726 C7727 1.369 . S
C7726 C7728 1.419 . S
C7726 H7730 0.930 . S
C7727 C7726 1.369 . S
C7727 C7736 1.429 . S
C7728 C7726 1.419 . S
C7728 C7729 1.363 . S
C7728 H7731 0.929 . S
C7729 C7728 1.363 . S
C7729 C7735 1.428 . S
H7730 C7726 0.930 . S
H7731 C7728 0.929 . S
S7732 N7733 1.613 . S
S7732 N7734 1.610 . S
N7733 S7732 1.613 . S
N7733 C7736 1.350 . S
N7734 S7732 1.610 . S
N7734 C7735 1.351 . S
C7735 C7729 1.428 . S
C7735 N7734 1.351 . S
C7735 C7736 1.434 . S
C7736 C7727 1.429 . S
C7736 N7733 1.350 . S
C7736 C7735 1.434 . S
C7737 C7738 1.369 . S
C7737 C7739 1.419 . S
C7737 H7741 0.930 . S
C7738 C7737 1.369 . S
C7738 C7747 1.429 . S
C7739 C7737 1.419 . S
C7739 C7740 1.363 . S
C7739 H7742 0.929 . S
C7740 C7739 1.363 . S
C7740 C7746 1.428 . S
H7741 C7737 0.930 . S
H7742 C7739 0.929 . S
S7743 N7744 1.613 . S
S7743 N7745 1.610 . S
N7744 S7743 1.613 . S
N7744 C7747 1.350 . S
N7745 S7743 1.610 . S
N7745 C7746 1.351 . S
C7746 C7740 1.428 . S
C7746 N7745 1.351 . S
C7746 C7747 1.434 . S
C7747 C7738 1.429 . S
C7747 N7744 1.350 . S
C7747 C7746 1.434 . S
C7748 C7749 1.369 . S
C7748 C7750 1.419 . S
C7748 H7752 0.930 . S
C7749 C7748 1.369 . S
C7749 C7758 1.429 . S
C7750 C7748 1.419 . S
C7750 C7751 1.363 . S
C7750 H7753 0.929 . S
C7751 C7750 1.363 . S
C7751 C7757 1.428 . S
H7752 C7748 0.930 . S
H7753 C7750 0.929 . S
S7754 N7755 1.613 . S
S7754 N7756 1.610 . S
N7755 S7754 1.613 . S
N7755 C7758 1.350 . S
N7756 S7754 1.610 . S
N7756 C7757 1.351 . S
C7757 C7751 1.428 . S
C7757 N7756 1.351 . S
C7757 C7758 1.434 . S
C7758 C7749 1.429 . S
C7758 N7755 1.350 . S
C7758 C7757 1.434 . S
C7759 C7760 1.369 . S
C7759 C7761 1.419 . S
C7759 H7763 0.930 . S
C7760 C7759 1.369 . S
C7760 C7769 1.429 . S
C7761 C7759 1.419 . S
C7761 C7762 1.363 . S
C7761 H7764 0.929 . S
C7762 C7761 1.363 . S
C7762 C7768 1.428 . S
H7763 C7759 0.930 . S
H7764 C7761 0.929 . S
S7765 N7766 1.613 . S
S7765 N7767 1.610 . S
N7766 S7765 1.613 . S
N7766 C7769 1.350 . S
N7767 S7765 1.610 . S
N7767 C7768 1.351 . S
C7768 C7762 1.428 . S
C7768 N7767 1.351 . S
C7768 C7769 1.434 . S
C7769 C7760 1.429 . S
C7769 N7766 1.350 . S
C7769 C7768 1.434 . S
C7770 C7771 1.369 . S
C7770 C7772 1.419 . S
C7770 H7774 0.930 . S
C7771 C7770 1.369 . S
C7771 C7780 1.429 . S
C7772 C7770 1.419 . S
C7772 C7773 1.363 . S
C7772 H7775 0.929 . S
C7773 C7772 1.363 . S
C7773 C7779 1.428 . S
H7774 C7770 0.930 . S
H7775 C7772 0.929 . S
S7776 N7777 1.625 . S
S7776 N7778 1.562 1_455 S
N7777 S7776 1.625 . S
N7777 C7780 1.350 1_455 S
N7778 S7776 1.562 1_655 S
N7778 C7779 1.351 . S
C7779 C7773 1.428 . S
C7779 N7778 1.351 . S
C7779 C7780 1.434 . S
C7780 C7771 1.429 . S
C7780 N7777 1.350 1_655 S
C7780 C7779 1.434 . S
C7781 C7782 1.369 . S
C7781 C7783 1.419 . S
C7781 H7785 0.930 . S
C7782 C7781 1.369 . S
C7782 C7791 1.429 . S
C7783 C7781 1.419 . S
C7783 C7784 1.363 . S
C7783 H7786 0.929 . S
C7784 C7783 1.363 . S
C7784 C7790 1.428 . S
H7785 C7781 0.930 . S
H7786 C7783 0.929 . S
S7787 N7788 1.613 . S
S7787 N7789 1.610 . S
N7788 S7787 1.613 . S
N7788 C7791 1.350 . S
N7789 S7787 1.610 . S
N7789 C7790 1.351 . S
C7790 C7784 1.428 . S
C7790 N7789 1.351 . S
C7790 C7791 1.434 . S
C7791 C7782 1.429 . S
C7791 N7788 1.350 . S
C7791 C7790 1.434 . S
C7792 C7793 1.369 . S
C7792 C7794 1.419 . S
C7792 H7796 0.930 . S
C7793 C7792 1.369 . S
C7793 C7802 1.429 . S
C7794 C7792 1.419 . S
C7794 C7795 1.363 . S
C7794 H7797 0.929 . S
C7795 C7794 1.363 . S
C7795 C7801 1.428 . S
H7796 C7792 0.930 . S
H7797 C7794 0.929 . S
S7798 N7799 1.613 . S
S7798 N7800 1.610 . S
N7799 S7798 1.613 . S
N7799 C7802 1.350 . S
N7800 S7798 1.610 . S
N7800 C7801 1.351 . S
C7801 C7795 1.428 . S
C7801 N7800 1.351 . S
C7801 C7802 1.434 . S
C7802 C7793 1.429 . S
C7802 N7799 1.350 . S
C7802 C7801 1.434 . S
C7803 C7804 1.369 . S
C7803 C7805 1.419 . S
C7803 H7807 0.930 . S
C7804 C7803 1.369 . S
C7804 C7813 1.429 . S
C7805 C7803 1.419 . S
C7805 C7806 1.363 . S
C7805 H7808 0.929 . S
C7806 C7805 1.363 . S
C7806 C7812 1.428 . S
H7807 C7803 0.930 . S
H7808 C7805 0.929 . S
S7809 N7810 1.613 . S
S7809 N7811 1.610 . S
N7810 S7809 1.613 . S
N7810 C7813 1.350 . S
N7811 S7809 1.610 . S
N7811 C7812 1.351 . S
C7812 C7806 1.428 . S
C7812 N7811 1.351 . S
C7812 C7813 1.434 . S
C7813 C7804 1.429 . S
C7813 N7810 1.350 . S
C7813 C7812 1.434 . S
C7814 C7815 1.369 . S
C7814 C7816 1.419 . S
C7814 H7818 0.930 . S
C7815 C7814 1.369 . S
C7815 C7824 1.429 . S
C7816 C7814 1.419 . S
C7816 C7817 1.363 . S
C7816 H7819 0.929 . S
C7817 C7816 1.363 . S
C7817 C7823 1.428 . S
H7818 C7814 0.930 . S
H7819 C7816 0.929 . S
S7820 N7821 1.613 . S
S7820 N7822 1.610 . S
N7821 S7820 1.613 . S
N7821 C7824 1.350 . S
N7822 S7820 1.610 . S
N7822 C7823 1.351 . S
C7823 C7817 1.428 . S
C7823 N7822 1.351 . S
C7823 C7824 1.434 . S
C7824 C7815 1.429 . S
C7824 N7821 1.350 . S
C7824 C7823 1.434 . S
C7825 C7826 1.369 . S
C7825 C7827 1.419 . S
C7825 H7829 0.930 . S
C7826 C7825 1.369 . S
C7826 C7835 1.429 . S
C7827 C7825 1.419 . S
C7827 C7828 1.363 . S
C7827 H7830 0.929 . S
C7828 C7827 1.363 . S
C7828 C7834 1.428 . S
H7829 C7825 0.930 . S
H7830 C7827 0.929 . S
S7831 N7832 1.613 . S
S7831 N7833 1.610 . S
N7832 S7831 1.613 . S
N7832 C7835 1.350 . S
N7833 S7831 1.610 . S
N7833 C7834 1.351 . S
C7834 C7828 1.428 . S
C7834 N7833 1.351 . S
C7834 C7835 1.434 . S
C7835 C7826 1.429 . S
C7835 N7832 1.350 . S
C7835 C7834 1.434 . S
C7836 C7837 1.369 . S
C7836 C7838 1.419 . S
C7836 H7840 0.930 . S
C7837 C7836 1.369 . S
C7837 C7846 1.429 . S
C7838 C7836 1.419 . S
C7838 C7839 1.363 . S
C7838 H7841 0.929 . S
C7839 C7838 1.363 . S
C7839 C7845 1.428 . S
H7840 C7836 0.930 . S
H7841 C7838 0.929 . S
S7842 N7843 1.613 . S
S7842 N7844 1.610 . S
N7843 S7842 1.613 . S
N7843 C7846 1.350 . S
N7844 S7842 1.610 . S
N7844 C7845 1.351 . S
C7845 C7839 1.428 . S
C7845 N7844 1.351 . S
C7845 C7846 1.434 . S
C7846 C7837 1.429 . S
C7846 N7843 1.350 . S
C7846 C7845 1.434 . S
C7847 C7848 1.369 . S
C7847 C7849 1.419 . S
C7847 H7851 0.930 . S
C7848 C7847 1.369 . S
C7848 C7857 1.429 . S
C7849 C7847 1.419 . S
C7849 C7850 1.363 . S
C7849 H7852 0.929 . S
C7850 C7849 1.363 . S
C7850 C7856 1.428 . S
H7851 C7847 0.930 . S
H7852 C7849 0.929 . S
S7853 N7854 1.613 . S
S7853 N7855 1.610 . S
N7854 S7853 1.613 . S
N7854 C7857 1.350 . S
N7855 S7853 1.610 . S
N7855 C7856 1.351 . S
C7856 C7850 1.428 . S
C7856 N7855 1.351 . S
C7856 C7857 1.434 . S
C7857 C7848 1.429 . S
C7857 N7854 1.350 . S
C7857 C7856 1.434 . S
C7858 C7859 1.369 . S
C7858 C7860 1.419 . S
C7858 H7862 0.930 . S
C7859 C7858 1.369 . S
C7859 C7868 1.429 . S
C7860 C7858 1.419 . S
C7860 C7861 1.363 . S
C7860 H7863 0.929 . S
C7861 C7860 1.363 . S
C7861 C7867 1.428 . S
H7862 C7858 0.930 . S
H7863 C7860 0.929 . S
S7864 N7865 1.613 . S
S7864 N7866 1.610 . S
N7865 S7864 1.613 . S
N7865 C7868 1.350 . S
N7866 S7864 1.610 . S
N7866 C7867 1.351 . S
C7867 C7861 1.428 . S
C7867 N7866 1.351 . S
C7867 C7868 1.434 . S
C7868 C7859 1.429 . S
C7868 N7865 1.350 . S
C7868 C7867 1.434 . S
C7869 C7870 1.369 . S
C7869 C7871 1.419 . S
C7869 H7873 0.930 . S
C7870 C7869 1.369 . S
C7870 C7879 1.429 . S
C7871 C7869 1.419 . S
C7871 C7872 1.363 . S
C7871 H7874 0.929 . S
C7872 C7871 1.363 . S
C7872 C7878 1.428 . S
H7873 C7869 0.930 . S
H7874 C7871 0.929 . S
S7875 N7876 1.613 . S
S7875 N7877 1.610 . S
N7876 S7875 1.613 . S
N7876 C7879 1.350 . S
N7877 S7875 1.610 . S
N7877 C7878 1.351 . S
C7878 C7872 1.428 . S
C7878 N7877 1.351 . S
C7878 C7879 1.434 . S
C7879 C7870 1.429 . S
C7879 N7876 1.350 . S
C7879 C7878 1.434 . S
C7880 C7881 1.369 . S
C7880 C7882 1.419 . S
C7880 H7884 0.930 . S
C7881 C7880 1.369 . S
C7881 C7890 1.429 . S
C7882 C7880 1.419 . S
C7882 C7883 1.363 . S
C7882 H7885 0.929 . S
C7883 C7882 1.363 . S
C7883 C7889 1.428 . S
H7884 C7880 0.930 . S
H7885 C7882 0.929 . S
S7886 N7887 1.613 . S
S7886 N7888 1.610 . S
N7887 S7886 1.613 . S
N7887 C7890 1.350 . S
N7888 S7886 1.610 . S
N7888 C7889 1.351 . S
C7889 C7883 1.428 . S
C7889 N7888 1.351 . S
C7889 C7890 1.434 . S
C7890 C7881 1.429 . S
C7890 N7887 1.350 . S
C7890 C7889 1.434 . S
C7891 C7892 1.369 . S
C7891 C7893 1.419 . S
C7891 H7895 0.930 . S
C7892 C7891 1.369 . S
C7892 C7901 1.429 . S
C7893 C7891 1.419 . S
C7893 C7894 1.363 . S
C7893 H7896 0.929 . S
C7894 C7893 1.363 . S
C7894 C7900 1.428 . S
H7895 C7891 0.930 . S
H7896 C7893 0.929 . S
S7897 N7898 1.613 . S
S7897 N7899 1.610 . S
N7898 S7897 1.613 . S
N7898 C7901 1.350 . S
N7899 S7897 1.610 . S
N7899 C7900 1.351 . S
C7900 C7894 1.428 . S
C7900 N7899 1.351 . S
C7900 C7901 1.434 . S
C7901 C7892 1.429 . S
C7901 N7898 1.350 . S
C7901 C7900 1.434 . S
C7902 C7903 1.369 . S
C7902 C7904 1.419 . S
C7902 H7906 0.930 . S
C7903 C7902 1.369 . S
C7903 C7912 1.429 . S
C7904 C7902 1.419 . S
C7904 C7905 1.363 . S
C7904 H7907 0.929 . S
C7905 C7904 1.363 . S
C7905 C7911 1.428 . S
H7906 C7902 0.930 . S
H7907 C7904 0.929 . S
S7908 N7909 1.613 . S
S7908 N7910 1.610 . S
N7909 S7908 1.613 . S
N7909 C7912 1.350 . S
N7910 S7908 1.610 . S
N7910 C7911 1.351 . S
C7911 C7905 1.428 . S
C7911 N7910 1.351 . S
C7911 C7912 1.434 . S
C7912 C7903 1.429 . S
C7912 N7909 1.350 . S
C7912 C7911 1.434 . S
C7913 C7914 1.369 . S
C7913 C7915 1.419 . S
C7913 H7917 1.018 . S
C7914 C7913 1.369 . S
C7914 C7923 1.429 . S
C7915 C7913 1.419 . S
C7915 C7916 1.363 . S
C7915 H7918 0.929 . S
C7916 C7915 1.363 . S
C7916 C7922 1.428 . S
H7917 C7913 1.018 . S
H7918 C7915 0.929 . S
S7919 N7920 1.613 . S
S7919 N7921 1.610 . S
N7920 S7919 1.613 . S
N7920 C7923 1.350 . S
N7921 S7919 1.610 . S
N7921 C7922 1.351 . S
C7922 C7916 1.428 . S
C7922 N7921 1.351 . S
C7922 C7923 1.434 . S
C7923 C7914 1.429 . S
C7923 N7920 1.350 . S
C7923 C7922 1.434 . S
C7924 C7925 1.369 . S
C7924 C7926 1.419 . S
C7924 H7928 0.930 . S
C7925 C7924 1.369 . S
C7925 C7934 1.429 . S
C7926 C7924 1.419 . S
C7926 C7927 1.363 . S
C7926 H7929 0.929 . S
C7927 C7926 1.363 . S
C7927 C7933 1.428 . S
H7928 C7924 0.930 . S
H7929 C7926 0.929 . S
S7930 N7931 1.613 . S
S7930 N7932 1.610 . S
N7931 S7930 1.613 . S
N7931 C7934 1.350 . S
N7932 S7930 1.610 . S
N7932 C7933 1.351 . S
C7933 C7927 1.428 . S
C7933 N7932 1.351 . S
C7933 C7934 1.434 . S
C7934 C7925 1.429 . S
C7934 N7931 1.350 . S
C7934 C7933 1.434 . S
C7935 C7936 1.369 . S
C7935 C7937 1.419 . S
C7935 H7939 0.930 1_554 S
C7936 C7935 1.369 . S
C7936 C7945 1.429 . S
C7937 C7935 1.419 . S
C7937 C7938 1.363 . S
C7937 H7940 0.929 . S
C7938 C7937 1.363 . S
C7938 C7944 1.428 . S
H7939 C7935 0.930 1_556 S
H7940 C7937 0.929 . S
S7941 N7942 1.613 . S
S7941 N7943 1.610 . S
N7942 S7941 1.613 . S
N7942 C7945 1.350 . S
N7943 S7941 1.610 . S
N7943 C7944 1.351 . S
C7944 C7938 1.428 . S
C7944 N7943 1.351 . S
C7944 C7945 1.434 . S
C7945 C7936 1.429 . S
C7945 N7942 1.350 . S
C7945 C7944 1.434 . S
C7946 C7947 1.369 . S
C7946 C7948 1.419 . S
C7946 H7950 0.930 . S
C7947 C7946 1.369 . S
C7947 C7956 1.429 . S
C7948 C7946 1.419 . S
C7948 C7949 1.363 . S
C7948 H7951 0.929 . S
C7949 C7948 1.363 . S
C7949 C7955 1.428 . S
H7950 C7946 0.930 . S
H7951 C7948 0.929 . S
S7952 N7953 1.613 . S
S7952 N7954 1.610 . S
N7953 S7952 1.613 . S
N7953 C7956 1.350 . S
N7954 S7952 1.610 . S
N7954 C7955 1.351 . S
C7955 C7949 1.428 . S
C7955 N7954 1.351 . S
C7955 C7956 1.434 . S
C7956 C7947 1.429 . S
C7956 N7953 1.350 . S
C7956 C7955 1.434 . S
C7957 C7958 1.369 . S
C7957 C7959 1.419 . S
C7957 H7961 0.930 . S
C7958 C7957 1.369 . S
C7958 C7967 1.429 . S
C7959 C7957 1.419 . S
C7959 C7960 1.363 . S
C7959 H7962 0.929 . S
C7960 C7959 1.363 . S
C7960 C7966 1.428 . S
H7961 C7957 0.930 . S
H7962 C7959 0.929 . S
S7963 N7964 1.613 . S
S7963 N7965 1.610 . S
N7964 S7963 1.613 . S
N7964 C7967 1.350 . S
N7965 S7963 1.610 . S
N7965 C7966 1.351 . S
C7966 C7960 1.428 . S
C7966 N7965 1.351 . S
C7966 C7967 1.434 . S
C7967 C7958 1.429 . S
C7967 N7964 1.350 . S
C7967 C7966 1.434 . S
C7968 C7969 1.369 . S
C7968 C7970 1.419 . S
C7968 H7972 0.930 . S
C7969 C7968 1.369 . S
C7969 C7978 1.429 . S
C7970 C7968 1.419 . S
C7970 C7971 1.363 . S
C7970 H7973 0.929 . S
C7971 C7970 1.363 . S
C7971 C7977 1.428 . S
H7972 C7968 0.930 . S
H7973 C7970 0.929 . S
S7974 N7975 1.613 . S
S7974 N7976 1.610 . S
N7975 S7974 1.613 . S
N7975 C7978 1.350 . S
N7976 S7974 1.610 . S
N7976 C7977 1.351 . S
C7977 C7971 1.428 . S
C7977 N7976 1.351 . S
C7977 C7978 1.434 . S
C7978 C7969 1.429 . S
C7978 N7975 1.350 . S
C7978 C7977 1.434 . S
C7979 C7980 1.369 . S
C7979 C7981 1.419 . S
C7979 H7983 0.930 . S
C7980 C7979 1.369 . S
C7980 C7989 1.429 . S
C7981 C7979 1.419 . S
C7981 C7982 1.363 . S
C7981 H7984 0.929 . S
C7982 C7981 1.363 . S
C7982 C7988 1.428 . S
H7983 C7979 0.930 . S
H7984 C7981 0.929 . S
S7985 N7986 1.613 . S
S7985 N7987 1.610 . S
N7986 S7985 1.613 . S
N7986 C7989 1.350 . S
N7987 S7985 1.610 . S
N7987 C7988 1.351 . S
C7988 C7982 1.428 . S
C7988 N7987 1.351 . S
C7988 C7989 1.434 . S
C7989 C7980 1.429 . S
C7989 N7986 1.350 . S
C7989 C7988 1.434 . S
C7990 C7991 1.369 . S
C7990 C7992 1.419 . S
C7990 H7994 0.930 . S
C7991 C7990 1.369 . S
C7991 C8000 1.429 . S
C7992 C7990 1.419 . S
C7992 C7993 1.363 . S
C7992 H7995 0.929 . S
C7993 C7992 1.363 . S
C7993 C7999 1.428 . S
H7994 C7990 0.930 . S
H7995 C7992 0.929 . S
S7996 N7997 1.613 . S
S7996 N7998 1.610 . S
N7997 S7996 1.613 . S
N7997 C8000 1.350 . S
N7998 S7996 1.610 . S
N7998 C7999 1.351 . S
C7999 C7993 1.428 . S
C7999 N7998 1.351 . S
C7999 C8000 1.434 . S
C8000 C7991 1.429 . S
C8000 N7997 1.350 . S
C8000 C7999 1.434 . S
C8001 C8002 1.369 . S
C8001 C8003 1.419 . S
C8001 H8005 0.930 . S
C8002 C8001 1.369 . S
C8002 C8011 1.429 . S
C8003 C8001 1.419 . S
C8003 C8004 1.363 . S
C8003 H8006 0.929 . S
C8004 C8003 1.363 . S
C8004 C8010 1.428 . S
H8005 C8001 0.930 . S
H8006 C8003 0.929 . S
S8007 N8008 1.613 . S
S8007 N8009 1.610 . S
N8008 S8007 1.613 . S
N8008 C8011 1.350 . S
N8009 S8007 1.610 . S
N8009 C8010 1.351 . S
C8010 C8004 1.428 . S
C8010 N8009 1.351 . S
C8010 C8011 1.434 . S
C8011 C8002 1.429 . S
C8011 N8008 1.350 . S
C8011 C8010 1.434 . S
C8012 C8013 1.369 . S
C8012 C8014 1.419 . S
C8012 H8016 0.930 . S
C8013 C8012 1.369 . S
C8013 C8022 1.429 . S
C8014 C8012 1.419 . S
C8014 C8015 1.363 . S
C8014 H8017 0.929 . S
C8015 C8014 1.363 . S
C8015 C8021 1.428 . S
H8016 C8012 0.930 . S
H8017 C8014 0.929 . S
S8018 N8019 1.613 . S
S8018 N8020 1.610 . S
N8019 S8018 1.613 . S
N8019 C8022 1.350 . S
N8020 S8018 1.610 . S
N8020 C8021 1.351 . S
C8021 C8015 1.428 . S
C8021 N8020 1.351 . S
C8021 C8022 1.434 . S
C8022 C8013 1.429 . S
C8022 N8019 1.350 . S
C8022 C8021 1.434 . S
C8023 C8024 1.369 . S
C8023 C8025 1.419 . S
C8023 H8027 0.930 . S
C8024 C8023 1.369 . S
C8024 C8033 1.429 . S
C8025 C8023 1.419 . S
C8025 C8026 1.363 . S
C8025 H8028 0.929 . S
C8026 C8025 1.363 . S
C8026 C8032 1.428 . S
H8027 C8023 0.930 . S
H8028 C8025 0.929 . S
S8029 N8030 1.613 . S
S8029 N8031 1.610 . S
N8030 S8029 1.613 . S
N8030 C8033 1.350 . S
N8031 S8029 1.610 . S
N8031 C8032 1.351 . S
C8032 C8026 1.428 . S
C8032 N8031 1.351 . S
C8032 C8033 1.434 . S
C8033 C8024 1.429 . S
C8033 N8030 1.350 . S
C8033 C8032 1.434 . S
C8034 C8035 1.369 . S
C8034 C8036 1.419 . S
C8034 H8038 0.930 . S
C8035 C8034 1.369 . S
C8035 C8044 1.429 . S
C8036 C8034 1.419 . S
C8036 C8037 1.363 . S
C8036 H8039 0.929 . S
C8037 C8036 1.363 . S
C8037 C8043 1.428 . S
H8038 C8034 0.930 . S
H8039 C8036 0.929 . S
S8040 N8041 1.613 . S
S8040 N8042 1.610 . S
N8041 S8040 1.613 . S
N8041 C8044 1.350 . S
N8042 S8040 1.610 . S
N8042 C8043 1.351 . S
C8043 C8037 1.428 . S
C8043 N8042 1.351 . S
C8043 C8044 1.434 . S
C8044 C8035 1.429 . S
C8044 N8041 1.350 . S
C8044 C8043 1.434 . S
C8045 C8046 1.369 . S
C8045 C8047 1.419 . S
C8045 H8049 0.930 . S
C8046 C8045 1.369 . S
C8046 C8055 1.429 . S
C8047 C8045 1.419 . S
C8047 C8048 1.363 . S
C8047 H8050 0.929 . S
C8048 C8047 1.363 . S
C8048 C8054 1.428 . S
H8049 C8045 0.930 . S
H8050 C8047 0.929 . S
S8051 N8052 1.613 . S
S8051 N8053 1.610 . S
N8052 S8051 1.613 . S
N8052 C8055 1.350 . S
N8053 S8051 1.610 . S
N8053 C8054 1.351 . S
C8054 C8048 1.428 . S
C8054 N8053 1.351 . S
C8054 C8055 1.434 . S
C8055 C8046 1.429 . S
C8055 N8052 1.350 . S
C8055 C8054 1.434 . S
C8056 C8057 1.369 . S
C8056 C8058 1.419 . S
C8056 H8060 0.930 . S
C8057 C8056 1.369 . S
C8057 C8066 1.429 . S
C8058 C8056 1.419 . S
C8058 C8059 1.363 . S
C8058 H8061 0.929 . S
C8059 C8058 1.363 . S
C8059 C8065 1.428 . S
H8060 C8056 0.930 . S
H8061 C8058 0.929 . S
S8062 N8063 1.613 . S
S8062 N8064 1.610 . S
N8063 S8062 1.613 . S
N8063 C8066 1.350 . S
N8064 S8062 1.610 . S
N8064 C8065 1.351 . S
C8065 C8059 1.428 . S
C8065 N8064 1.351 . S
C8065 C8066 1.434 . S
C8066 C8057 1.429 . S
C8066 N8063 1.350 . S
C8066 C8065 1.434 . S
C8067 C8068 1.369 . S
C8067 C8069 1.419 . S
C8067 H8071 0.930 . S
C8068 C8067 1.369 . S
C8068 C8077 1.429 . S
C8069 C8067 1.419 . S
C8069 C8070 1.363 . S
C8069 H8072 0.929 . S
C8070 C8069 1.363 . S
C8070 C8076 1.428 . S
H8071 C8067 0.930 . S
H8072 C8069 0.929 . S
S8073 N8074 1.613 . S
S8073 N8075 1.610 . S
N8074 S8073 1.613 . S
N8074 C8077 1.350 . S
N8075 S8073 1.610 . S
N8075 C8076 1.351 . S
C8076 C8070 1.428 . S
C8076 N8075 1.351 . S
C8076 C8077 1.434 . S
C8077 C8068 1.429 . S
C8077 N8074 1.350 . S
C8077 C8076 1.434 . S
C8078 C8079 1.369 . S
C8078 C8080 1.419 . S
C8078 H8082 0.930 . S
C8079 C8078 1.369 . S
C8079 C8088 1.429 . S
C8080 C8078 1.419 . S
C8080 C8081 1.363 . S
C8080 H8083 0.929 . S
C8081 C8080 1.363 . S
C8081 C8087 1.428 . S
H8082 C8078 0.930 . S
H8083 C8080 0.929 . S
S8084 N8085 1.613 . S
S8084 N8086 1.610 . S
N8085 S8084 1.613 . S
N8085 C8088 1.350 . S
N8086 S8084 1.610 . S
N8086 C8087 1.351 . S
C8087 C8081 1.428 . S
C8087 N8086 1.351 . S
C8087 C8088 1.434 . S
C8088 C8079 1.429 . S
C8088 N8085 1.350 . S
C8088 C8087 1.434 . S
C8089 C8090 1.369 . S
C8089 C8091 1.419 . S
C8089 H8093 0.930 . S
C8090 C8089 1.369 . S
C8090 C8099 1.429 . S
C8091 C8089 1.419 . S
C8091 C8092 1.363 . S
C8091 H8094 0.929 . S
C8092 C8091 1.363 . S
C8092 C8098 1.428 . S
H8093 C8089 0.930 . S
H8094 C8091 0.929 . S
S8095 N8096 1.613 . S
S8095 N8097 1.610 . S
N8096 S8095 1.613 . S
N8096 C8099 1.350 . S
N8097 S8095 1.610 . S
N8097 C8098 1.351 . S
C8098 C8092 1.428 . S
C8098 N8097 1.351 . S
C8098 C8099 1.434 . S
C8099 C8090 1.429 . S
C8099 N8096 1.350 . S
C8099 C8098 1.434 . S
C8100 C8101 1.369 . S
C8100 C8102 1.419 . S
C8100 H8104 0.930 . S
C8101 C8100 1.369 . S
C8101 C8110 1.429 . S
C8102 C8100 1.419 . S
C8102 C8103 1.363 . S
C8102 H8105 0.929 . S
C8103 C8102 1.363 . S
C8103 C8109 1.428 . S
H8104 C8100 0.930 . S
H8105 C8102 0.929 . S
S8106 N8107 1.613 . S
S8106 N8108 1.610 . S
N8107 S8106 1.613 . S
N8107 C8110 1.350 . S
N8108 S8106 1.610 . S
N8108 C8109 1.351 . S
C8109 C8103 1.428 . S
C8109 N8108 1.351 . S
C8109 C8110 1.434 . S
C8110 C8101 1.429 . S
C8110 N8107 1.350 . S
C8110 C8109 1.434 . S
C8111 C8112 1.369 . S
C8111 C8113 1.419 . S
C8111 H8115 0.930 . S
C8112 C8111 1.369 . S
C8112 C8121 1.429 . S
C8113 C8111 1.419 . S
C8113 C8114 1.363 . S
C8113 H8116 0.929 . S
C8114 C8113 1.363 . S
C8114 C8120 1.428 . S
H8115 C8111 0.930 . S
H8116 C8113 0.929 . S
S8117 N8118 1.613 . S
S8117 N8119 1.610 . S
N8118 S8117 1.613 . S
N8118 C8121 1.350 . S
N8119 S8117 1.610 . S
N8119 C8120 1.351 . S
C8120 C8114 1.428 . S
C8120 N8119 1.351 . S
C8120 C8121 1.434 . S
C8121 C8112 1.429 . S
C8121 N8118 1.350 . S
C8121 C8120 1.434 . S
C8122 C8123 1.369 . S
C8122 C8124 1.419 . S
C8122 H8126 0.930 . S
C8123 C8122 1.369 . S
C8123 C8132 1.429 . S
C8124 C8122 1.419 . S
C8124 C8125 1.363 . S
C8124 H8127 0.929 . S
C8125 C8124 1.363 . S
C8125 C8131 1.428 . S
H8126 C8122 0.930 . S
H8127 C8124 0.929 . S
S8128 N8129 1.613 . S
S8128 N8130 1.610 . S
N8129 S8128 1.613 . S
N8129 C8132 1.350 . S
N8130 S8128 1.610 . S
N8130 C8131 1.351 . S
C8131 C8125 1.428 . S
C8131 N8130 1.351 . S
C8131 C8132 1.434 . S
C8132 C8123 1.429 . S
C8132 N8129 1.350 . S
C8132 C8131 1.434 . S
C8133 C8134 1.369 . S
C8133 C8135 1.419 . S
C8133 H8137 0.930 . S
C8134 C8133 1.369 . S
C8134 C8143 1.429 . S
C8135 C8133 1.419 . S
C8135 C8136 1.363 . S
C8135 H8138 0.929 . S
C8136 C8135 1.363 . S
C8136 C8142 1.428 . S
H8137 C8133 0.930 . S
H8138 C8135 0.929 . S
S8139 N8140 1.613 . S
S8139 N8141 1.610 . S
N8140 S8139 1.613 . S
N8140 C8143 1.350 . S
N8141 S8139 1.610 . S
N8141 C8142 1.351 . S
C8142 C8136 1.428 . S
C8142 N8141 1.351 . S
C8142 C8143 1.434 . S
C8143 C8134 1.429 . S
C8143 N8140 1.350 . S
C8143 C8142 1.434 . S
C8144 C8145 1.369 . S
C8144 C8146 1.419 . S
C8144 H8148 0.930 . S
C8145 C8144 1.369 . S
C8145 C8154 1.429 . S
C8146 C8144 1.419 . S
C8146 C8147 1.363 . S
C8146 H8149 0.929 . S
C8147 C8146 1.363 . S
C8147 C8153 1.428 . S
H8148 C8144 0.930 . S
H8149 C8146 0.929 . S
S8150 N8151 1.613 . S
S8150 N8152 1.610 . S
N8151 S8150 1.613 . S
N8151 C8154 1.350 . S
N8152 S8150 1.610 . S
N8152 C8153 1.351 . S
C8153 C8147 1.428 . S
C8153 N8152 1.351 . S
C8153 C8154 1.434 . S
C8154 C8145 1.429 . S
C8154 N8151 1.350 . S
C8154 C8153 1.434 . S
C8155 C8156 1.369 . S
C8155 C8157 1.419 . S
C8155 H8159 0.930 . S
C8156 C8155 1.369 . S
C8156 C8165 1.429 . S
C8157 C8155 1.419 . S
C8157 C8158 1.363 . S
C8157 H8160 0.929 . S
C8158 C8157 1.363 . S
C8158 C8164 1.428 . S
H8159 C8155 0.930 . S
H8160 C8157 0.929 . S
S8161 N8162 1.613 . S
S8161 N8163 1.610 . S
N8162 S8161 1.613 . S
N8162 C8165 1.350 . S
N8163 S8161 1.610 . S
N8163 C8164 1.351 . S
C8164 C8158 1.428 . S
C8164 N8163 1.351 . S
C8164 C8165 1.434 . S
C8165 C8156 1.429 . S
C8165 N8162 1.350 . S
C8165 C8164 1.434 . S
C8166 C8167 1.369 . S
C8166 C8168 1.419 . S
C8166 H8170 0.930 . S
C8167 C8166 1.369 . S
C8167 C8176 1.429 . S
C8168 C8166 1.419 . S
C8168 C8169 1.363 . S
C8168 H8171 0.929 . S
C8169 C8168 1.363 . S
C8169 C8175 1.428 . S
H8170 C8166 0.930 . S
H8171 C8168 0.929 . S
S8172 N8173 1.613 . S
S8172 N8174 1.610 . S
N8173 S8172 1.613 . S
N8173 C8176 1.350 . S
N8174 S8172 1.610 . S
N8174 C8175 1.351 . S
C8175 C8169 1.428 . S
C8175 N8174 1.351 . S
C8175 C8176 1.434 . S
C8176 C8167 1.429 . S
C8176 N8173 1.350 . S
C8176 C8175 1.434 . S
C8177 C8178 1.369 . S
C8177 C8179 1.419 . S
C8177 H8181 0.930 . S
C8178 C8177 1.369 . S
C8178 C8187 1.429 . S
C8179 C8177 1.419 . S
C8179 C8180 1.363 . S
C8179 H8182 0.929 . S
C8180 C8179 1.363 . S
C8180 C8186 1.428 . S
H8181 C8177 0.930 . S
H8182 C8179 0.929 . S
S8183 N8184 1.613 . S
S8183 N8185 1.610 . S
N8184 S8183 1.613 . S
N8184 C8187 1.350 . S
N8185 S8183 1.610 . S
N8185 C8186 1.351 . S
C8186 C8180 1.428 . S
C8186 N8185 1.351 . S
C8186 C8187 1.434 . S
C8187 C8178 1.429 . S
C8187 N8184 1.350 . S
C8187 C8186 1.434 . S
C8188 C8189 1.369 . S
C8188 C8190 1.419 . S
C8188 H8192 0.930 . S
C8189 C8188 1.369 . S
C8189 C8198 1.429 . S
C8190 C8188 1.419 . S
C8190 C8191 1.363 . S
C8190 H8193 0.929 . S
C8191 C8190 1.363 . S
C8191 C8197 1.428 . S
H8192 C8188 0.930 . S
H8193 C8190 0.929 . S
S8194 N8195 1.613 . S
S8194 N8196 1.610 . S
N8195 S8194 1.613 . S
N8195 C8198 1.350 . S
N8196 S8194 1.610 . S
N8196 C8197 1.351 . S
C8197 C8191 1.428 . S
C8197 N8196 1.351 . S
C8197 C8198 1.434 . S
C8198 C8189 1.429 . S
C8198 N8195 1.350 . S
C8198 C8197 1.434 . S
C8199 C8200 1.369 . S
C8199 C8201 1.419 . S
C8199 H8203 0.930 . S
C8200 C8199 1.369 . S
C8200 C8209 1.429 . S
C8201 C8199 1.419 . S
C8201 C8202 1.363 . S
C8201 H8204 0.929 . S
C8202 C8201 1.363 . S
C8202 C8208 1.428 . S
H8203 C8199 0.930 . S
H8204 C8201 0.929 . S
S8205 N8206 1.613 . S
S8205 N8207 1.610 . S
N8206 S8205 1.613 . S
N8206 C8209 1.350 . S
N8207 S8205 1.610 . S
N8207 C8208 1.351 . S
C8208 C8202 1.428 . S
C8208 N8207 1.351 . S
C8208 C8209 1.434 . S
C8209 C8200 1.429 . S
C8209 N8206 1.350 . S
C8209 C8208 1.434 . S
C8210 C8211 1.369 . S
C8210 C8212 1.419 . S
C8210 H8214 0.930 . S
C8211 C8210 1.369 . S
C8211 C8220 1.429 . S
C8212 C8210 1.419 . S
C8212 C8213 1.363 . S
C8212 H8215 0.929 . S
C8213 C8212 1.363 . S
C8213 C8219 1.428 . S
H8214 C8210 0.930 . S
H8215 C8212 0.929 . S
S8216 N8217 1.613 . S
S8216 N8218 1.610 . S
N8217 S8216 1.613 . S
N8217 C8220 1.350 . S
N8218 S8216 1.610 . S
N8218 C8219 1.351 . S
C8219 C8213 1.428 . S
C8219 N8218 1.351 . S
C8219 C8220 1.434 . S
C8220 C8211 1.429 . S
C8220 N8217 1.350 . S
C8220 C8219 1.434 . S
C8221 C8222 1.369 . S
C8221 C8223 1.419 . S
C8221 H8225 0.930 . S
C8222 C8221 1.369 . S
C8222 C8231 1.429 . S
C8223 C8221 1.419 . S
C8223 C8224 1.363 . S
C8223 H8226 0.929 . S
C8224 C8223 1.363 . S
C8224 C8230 1.428 . S
H8225 C8221 0.930 . S
H8226 C8223 0.929 . S
S8227 N8228 1.613 . S
S8227 N8229 1.610 . S
N8228 S8227 1.613 . S
N8228 C8231 1.350 . S
N8229 S8227 1.610 . S
N8229 C8230 1.351 . S
C8230 C8224 1.428 . S
C8230 N8229 1.351 . S
C8230 C8231 1.434 . S
C8231 C8222 1.429 . S
C8231 N8228 1.350 . S
C8231 C8230 1.434 . S
C8232 C8233 1.369 . S
C8232 C8234 1.419 . S
C8232 H8236 0.930 . S
C8233 C8232 1.369 . S
C8233 C8242 1.429 . S
C8234 C8232 1.419 . S
C8234 C8235 1.363 . S
C8234 H8237 0.929 . S
C8235 C8234 1.363 . S
C8235 C8241 1.428 . S
H8236 C8232 0.930 . S
H8237 C8234 0.929 . S
S8238 N8239 1.613 . S
S8238 N8240 1.610 . S
N8239 S8238 1.613 . S
N8239 C8242 1.350 . S
N8240 S8238 1.610 . S
N8240 C8241 1.351 . S
C8241 C8235 1.428 . S
C8241 N8240 1.351 . S
C8241 C8242 1.434 . S
C8242 C8233 1.429 . S
C8242 N8239 1.350 . S
C8242 C8241 1.434 . S
C8243 C8244 1.369 . S
C8243 C8245 1.419 . S
C8243 H8247 0.930 . S
C8244 C8243 1.369 . S
C8244 C8253 1.429 . S
C8245 C8243 1.419 . S
C8245 C8246 1.363 . S
C8245 H8248 0.929 . S
C8246 C8245 1.363 . S
C8246 C8252 1.428 . S
H8247 C8243 0.930 . S
H8248 C8245 0.929 . S
S8249 N8250 1.613 . S
S8249 N8251 1.610 . S
N8250 S8249 1.613 . S
N8250 C8253 1.350 . S
N8251 S8249 1.610 . S
N8251 C8252 1.351 . S
C8252 C8246 1.428 . S
C8252 N8251 1.351 . S
C8252 C8253 1.434 . S
C8253 C8244 1.429 . S
C8253 N8250 1.350 . S
C8253 C8252 1.434 . S
C8254 C8255 1.369 . S
C8254 C8256 1.419 . S
C8254 H8258 0.930 . S
C8255 C8254 1.369 . S
C8255 C8264 1.429 . S
C8256 C8254 1.419 . S
C8256 C8257 1.363 . S
C8256 H8259 0.929 . S
C8257 C8256 1.363 . S
C8257 C8263 1.428 . S
H8258 C8254 0.930 . S
H8259 C8256 0.929 . S
S8260 N8261 1.613 . S
S8260 N8262 1.610 . S
N8261 S8260 1.613 . S
N8261 C8264 1.350 . S
N8262 S8260 1.610 . S
N8262 C8263 1.351 . S
C8263 C8257 1.428 . S
C8263 N8262 1.351 . S
C8263 C8264 1.434 . S
C8264 C8255 1.429 . S
C8264 N8261 1.350 . S
C8264 C8263 1.434 . S
C8265 C8266 1.369 . S
C8265 C8267 1.419 . S
C8265 H8269 0.930 . S
C8266 C8265 1.369 . S
C8266 C8275 1.429 . S
C8267 C8265 1.419 . S
C8267 C8268 1.363 . S
C8267 H8270 0.929 . S
C8268 C8267 1.363 . S
C8268 C8274 1.428 . S
H8269 C8265 0.930 . S
H8270 C8267 0.929 . S
S8271 N8272 1.613 . S
S8271 N8273 1.610 . S
N8272 S8271 1.613 . S
N8272 C8275 1.350 . S
N8273 S8271 1.610 . S
N8273 C8274 1.351 . S
C8274 C8268 1.428 . S
C8274 N8273 1.351 . S
C8274 C8275 1.434 . S
C8275 C8266 1.429 . S
C8275 N8272 1.350 . S
C8275 C8274 1.434 . S
C8276 C8277 1.369 . S
C8276 C8278 1.419 . S
C8276 H8280 0.930 . S
C8277 C8276 1.369 . S
C8277 C8286 1.429 . S
C8278 C8276 1.419 . S
C8278 C8279 1.363 . S
C8278 H8281 0.929 . S
C8279 C8278 1.363 . S
C8279 C8285 1.428 . S
H8280 C8276 0.930 . S
H8281 C8278 0.929 . S
S8282 N8283 1.613 . S
S8282 N8284 1.610 . S
N8283 S8282 1.613 . S
N8283 C8286 1.350 . S
N8284 S8282 1.610 . S
N8284 C8285 1.351 . S
C8285 C8279 1.428 . S
C8285 N8284 1.351 . S
C8285 C8286 1.434 . S
C8286 C8277 1.429 . S
C8286 N8283 1.350 . S
C8286 C8285 1.434 . S
C8287 C8288 1.369 . S
C8287 C8289 1.419 . S
C8287 H8291 0.930 . S
C8288 C8287 1.369 . S
C8288 C8297 1.429 . S
C8289 C8287 1.419 . S
C8289 C8290 1.363 . S
C8289 H8292 0.929 . S
C8290 C8289 1.363 . S
C8290 C8296 1.428 . S
H8291 C8287 0.930 . S
H8292 C8289 0.929 . S
S8293 N8294 1.613 . S
S8293 N8295 1.610 . S
N8294 S8293 1.613 . S
N8294 C8297 1.350 . S
N8295 S8293 1.610 . S
N8295 C8296 1.351 . S
C8296 C8290 1.428 . S
C8296 N8295 1.351 . S
C8296 C8297 1.434 . S
C8297 C8288 1.429 . S
C8297 N8294 1.350 . S
C8297 C8296 1.434 . S
C8298 C8299 1.369 . S
C8298 C8300 1.419 . S
C8298 H8302 0.930 . S
C8299 C8298 1.369 . S
C8299 C8308 1.429 . S
C8300 C8298 1.419 . S
C8300 C8301 1.363 . S
C8300 H8303 0.929 . S
C8301 C8300 1.363 . S
C8301 C8307 1.428 . S
H8302 C8298 0.930 . S
H8303 C8300 0.929 . S
S8304 N8305 1.613 . S
S8304 N8306 1.610 . S
N8305 S8304 1.613 . S
N8305 C8308 1.350 . S
N8306 S8304 1.610 . S
N8306 C8307 1.351 . S
C8307 C8301 1.428 . S
C8307 N8306 1.351 . S
C8307 C8308 1.434 . S
C8308 C8299 1.429 . S
C8308 N8305 1.350 . S
C8308 C8307 1.434 . S
C8309 C8310 1.369 . S
C8309 C8311 1.419 . S
C8309 H8313 0.930 . S
C8310 C8309 1.369 . S
C8310 C8319 1.429 . S
C8311 C8309 1.419 . S
C8311 C8312 1.363 . S
C8311 H8314 0.929 . S
C8312 C8311 1.363 . S
C8312 C8318 1.428 . S
H8313 C8309 0.930 . S
H8314 C8311 0.929 . S
S8315 N8316 1.613 . S
S8315 N8317 1.610 . S
N8316 S8315 1.613 . S
N8316 C8319 1.350 . S
N8317 S8315 1.610 . S
N8317 C8318 1.351 . S
C8318 C8312 1.428 . S
C8318 N8317 1.351 . S
C8318 C8319 1.434 . S
C8319 C8310 1.429 . S
C8319 N8316 1.350 . S
C8319 C8318 1.434 . S
C8320 C8321 1.369 . S
C8320 C8322 1.419 . S
C8320 H8324 0.930 . S
C8321 C8320 1.369 . S
C8321 C8330 1.429 . S
C8322 C8320 1.419 . S
C8322 C8323 1.363 . S
C8322 H8325 0.929 . S
C8323 C8322 1.363 . S
C8323 C8329 1.428 . S
H8324 C8320 0.930 . S
H8325 C8322 0.929 . S
S8326 N8327 1.613 . S
S8326 N8328 1.610 . S
N8327 S8326 1.613 . S
N8327 C8330 1.350 . S
N8328 S8326 1.610 . S
N8328 C8329 1.351 . S
C8329 C8323 1.428 . S
C8329 N8328 1.351 . S
C8329 C8330 1.434 . S
C8330 C8321 1.429 . S
C8330 N8327 1.350 . S
C8330 C8329 1.434 . S
C8331 C8332 1.369 . S
C8331 C8333 1.419 . S
C8331 H8335 0.930 . S
C8332 C8331 1.369 . S
C8332 C8341 1.429 . S
C8333 C8331 1.419 . S
C8333 C8334 1.363 . S
C8333 H8336 0.929 . S
C8334 C8333 1.363 . S
C8334 C8340 1.428 . S
H8335 C8331 0.930 . S
H8336 C8333 0.929 . S
S8337 N8338 1.613 . S
S8337 N8339 1.610 . S
N8338 S8337 1.613 . S
N8338 C8341 1.350 . S
N8339 S8337 1.610 . S
N8339 C8340 1.351 . S
C8340 C8334 1.428 . S
C8340 N8339 1.351 . S
C8340 C8341 1.434 . S
C8341 C8332 1.429 . S
C8341 N8338 1.350 . S
C8341 C8340 1.434 . S
C8342 C8343 1.369 . S
C8342 C8344 1.419 . S
C8342 H8346 0.930 . S
C8343 C8342 1.369 . S
C8343 C8352 1.429 . S
C8344 C8342 1.419 . S
C8344 C8345 1.363 . S
C8344 H8347 0.929 . S
C8345 C8344 1.363 . S
C8345 C8351 1.428 . S
H8346 C8342 0.930 . S
H8347 C8344 0.929 . S
S8348 N8349 1.613 . S
S8348 N8350 1.610 . S
N8349 S8348 1.613 . S
N8349 C8352 1.350 . S
N8350 S8348 1.610 . S
N8350 C8351 1.351 . S
C8351 C8345 1.428 . S
C8351 N8350 1.351 . S
C8351 C8352 1.434 . S
C8352 C8343 1.429 . S
C8352 N8349 1.350 . S
C8352 C8351 1.434 . S
C8353 C8354 1.369 . S
C8353 C8355 1.419 . S
C8353 H8357 0.930 . S
C8354 C8353 1.369 . S
C8354 C8363 1.429 . S
C8355 C8353 1.419 . S
C8355 C8356 1.363 . S
C8355 H8358 0.929 . S
C8356 C8355 1.363 . S
C8356 C8362 1.428 . S
H8357 C8353 0.930 . S
H8358 C8355 0.929 . S
S8359 N8360 1.613 . S
S8359 N8361 1.610 . S
N8360 S8359 1.613 . S
N8360 C8363 1.350 . S
N8361 S8359 1.610 . S
N8361 C8362 1.351 . S
C8362 C8356 1.428 . S
C8362 N8361 1.351 . S
C8362 C8363 1.434 . S
C8363 C8354 1.429 . S
C8363 N8360 1.350 . S
C8363 C8362 1.434 . S
C8364 C8365 1.369 . S
C8364 C8366 1.419 . S
C8364 H8368 0.930 . S
C8365 C8364 1.369 . S
C8365 C8374 1.429 . S
C8366 C8364 1.419 . S
C8366 C8367 1.363 . S
C8366 H8369 0.929 . S
C8367 C8366 1.363 . S
C8367 C8373 1.428 . S
H8368 C8364 0.930 . S
H8369 C8366 0.929 . S
S8370 N8371 1.613 . S
S8370 N8372 1.610 . S
N8371 S8370 1.613 . S
N8371 C8374 1.350 . S
N8372 S8370 1.610 . S
N8372 C8373 1.351 . S
C8373 C8367 1.428 . S
C8373 N8372 1.351 . S
C8373 C8374 1.434 . S
C8374 C8365 1.429 . S
C8374 N8371 1.350 . S
C8374 C8373 1.434 . S
C8375 C8376 1.369 . S
C8375 C8377 1.419 . S
C8375 H8379 0.930 . S
C8376 C8375 1.369 . S
C8376 C8385 1.429 . S
C8377 C8375 1.419 . S
C8377 C8378 1.363 . S
C8377 H8380 0.929 . S
C8378 C8377 1.363 . S
C8378 C8384 1.428 . S
H8379 C8375 0.930 . S
H8380 C8377 0.929 . S
S8381 N8382 1.613 . S
S8381 N8383 1.610 . S
N8382 S8381 1.613 . S
N8382 C8385 1.350 . S
N8383 S8381 1.610 . S
N8383 C8384 1.351 . S
C8384 C8378 1.428 . S
C8384 N8383 1.351 . S
C8384 C8385 1.434 . S
C8385 C8376 1.429 . S
C8385 N8382 1.350 . S
C8385 C8384 1.434 . S
C8386 C8387 1.369 . S
C8386 C8388 1.419 . S
C8386 H8390 0.930 . S
C8387 C8386 1.369 . S
C8387 C8396 1.429 . S
C8388 C8386 1.419 . S
C8388 C8389 1.363 . S
C8388 H8391 0.929 . S
C8389 C8388 1.363 . S
C8389 C8395 1.428 . S
H8390 C8386 0.930 . S
H8391 C8388 0.929 . S
S8392 N8393 1.613 . S
S8392 N8394 1.610 . S
N8393 S8392 1.613 . S
N8393 C8396 1.350 . S
N8394 S8392 1.610 . S
N8394 C8395 1.351 . S
C8395 C8389 1.428 . S
C8395 N8394 1.351 . S
C8395 C8396 1.434 . S
C8396 C8387 1.429 . S
C8396 N8393 1.350 . S
C8396 C8395 1.434 . S
C8397 C8398 1.369 . S
C8397 C8399 1.419 . S
C8397 H8401 0.930 . S
C8398 C8397 1.369 . S
C8398 C8407 1.429 . S
C8399 C8397 1.419 . S
C8399 C8400 1.363 . S
C8399 H8402 0.929 . S
C8400 C8399 1.363 . S
C8400 C8406 1.428 . S
H8401 C8397 0.930 . S
H8402 C8399 0.929 . S
S8403 N8404 1.613 . S
S8403 N8405 1.610 . S
N8404 S8403 1.613 . S
N8404 C8407 1.350 . S
N8405 S8403 1.610 . S
N8405 C8406 1.351 . S
C8406 C8400 1.428 . S
C8406 N8405 1.351 . S
C8406 C8407 1.434 . S
C8407 C8398 1.429 . S
C8407 N8404 1.350 . S
C8407 C8406 1.434 . S
C8408 C8409 1.369 . S
C8408 C8410 1.419 . S
C8408 H8412 0.930 . S
C8409 C8408 1.369 . S
C8409 C8418 1.429 . S
C8410 C8408 1.419 . S
C8410 C8411 1.363 . S
C8410 H8413 0.929 . S
C8411 C8410 1.363 . S
C8411 C8417 1.428 . S
H8412 C8408 0.930 . S
H8413 C8410 0.929 . S
S8414 N8415 1.613 . S
S8414 N8416 1.610 . S
N8415 S8414 1.613 . S
N8415 C8418 1.350 . S
N8416 S8414 1.610 . S
N8416 C8417 1.351 . S
C8417 C8411 1.428 . S
C8417 N8416 1.351 . S
C8417 C8418 1.434 . S
C8418 C8409 1.429 . S
C8418 N8415 1.350 . S
C8418 C8417 1.434 . S
C8419 C8420 1.369 . S
C8419 C8421 1.419 . S
C8419 H8423 0.930 . S
C8420 C8419 1.369 . S
C8420 C8429 1.429 . S
C8421 C8419 1.419 . S
C8421 C8422 1.363 . S
C8421 H8424 0.929 . S
C8422 C8421 1.363 . S
C8422 C8428 1.428 . S
H8423 C8419 0.930 . S
H8424 C8421 0.929 . S
S8425 N8426 1.613 . S
S8425 N8427 1.610 . S
N8426 S8425 1.613 . S
N8426 C8429 1.350 . S
N8427 S8425 1.610 . S
N8427 C8428 1.351 . S
C8428 C8422 1.428 . S
C8428 N8427 1.351 . S
C8428 C8429 1.434 . S
C8429 C8420 1.429 . S
C8429 N8426 1.350 . S
C8429 C8428 1.434 . S
C8430 C8431 1.369 . S
C8430 C8432 1.419 . S
C8430 H8434 0.930 . S
C8431 C8430 1.369 . S
C8431 C8440 1.429 . S
C8432 C8430 1.419 . S
C8432 C8433 1.363 . S
C8432 H8435 0.929 . S
C8433 C8432 1.363 . S
C8433 C8439 1.428 . S
H8434 C8430 0.930 . S
H8435 C8432 0.929 . S
S8436 N8437 1.613 . S
S8436 N8438 1.610 . S
N8437 S8436 1.613 . S
N8437 C8440 1.350 . S
N8438 S8436 1.610 . S
N8438 C8439 1.351 . S
C8439 C8433 1.428 . S
C8439 N8438 1.351 . S
C8439 C8440 1.434 . S
C8440 C8431 1.429 . S
C8440 N8437 1.350 . S
C8440 C8439 1.434 . S
C8441 C8442 1.369 . S
C8441 C8443 1.419 . S
C8441 H8445 0.930 . S
C8442 C8441 1.369 . S
C8442 C8451 1.429 . S
C8443 C8441 1.419 . S
C8443 C8444 1.363 . S
C8443 H8446 0.929 . S
C8444 C8443 1.363 . S
C8444 C8450 1.428 . S
H8445 C8441 0.930 . S
H8446 C8443 0.929 . S
S8447 N8448 1.613 . S
S8447 N8449 1.610 . S
N8448 S8447 1.613 . S
N8448 C8451 1.350 . S
N8449 S8447 1.610 . S
N8449 C8450 1.351 . S
C8450 C8444 1.428 . S
C8450 N8449 1.351 . S
C8450 C8451 1.434 . S
C8451 C8442 1.429 . S
C8451 N8448 1.350 . S
C8451 C8450 1.434 . S
C8452 C8453 1.369 . S
C8452 C8454 1.419 . S
C8452 H8456 0.930 . S
C8453 C8452 1.369 . S
C8453 C8462 1.429 . S
C8454 C8452 1.419 . S
C8454 C8455 1.363 . S
C8454 H8457 0.929 . S
C8455 C8454 1.363 . S
C8455 C8461 1.428 . S
H8456 C8452 0.930 . S
H8457 C8454 0.929 . S
S8458 N8459 1.613 . S
S8458 N8460 1.610 . S
N8459 S8458 1.613 . S
N8459 C8462 1.350 . S
N8460 S8458 1.610 . S
N8460 C8461 1.351 . S
C8461 C8455 1.428 . S
C8461 N8460 1.351 . S
C8461 C8462 1.434 . S
C8462 C8453 1.429 . S
C8462 N8459 1.350 . S
C8462 C8461 1.434 . S
C8463 C8464 1.369 . S
C8463 C8465 1.419 . S
C8463 H8467 0.930 . S
C8464 C8463 1.369 . S
C8464 C8473 1.429 . S
C8465 C8463 1.419 . S
C8465 C8466 1.363 . S
C8465 H8468 0.929 . S
C8466 C8465 1.363 . S
C8466 C8472 1.428 . S
H8467 C8463 0.930 . S
H8468 C8465 0.929 . S
S8469 N8470 1.613 . S
S8469 N8471 1.610 . S
N8470 S8469 1.613 . S
N8470 C8473 1.350 . S
N8471 S8469 1.610 . S
N8471 C8472 1.351 . S
C8472 C8466 1.428 . S
C8472 N8471 1.351 . S
C8472 C8473 1.434 . S
C8473 C8464 1.429 . S
C8473 N8470 1.350 . S
C8473 C8472 1.434 . S
C8474 C8475 1.369 . S
C8474 C8476 1.419 . S
C8474 H8478 0.930 . S
C8475 C8474 1.369 . S
C8475 C8484 1.429 . S
C8476 C8474 1.419 . S
C8476 C8477 1.363 . S
C8476 H8479 0.929 . S
C8477 C8476 1.363 . S
C8477 C8483 1.428 . S
H8478 C8474 0.930 . S
H8479 C8476 0.929 . S
S8480 N8481 1.613 . S
S8480 N8482 1.610 . S
N8481 S8480 1.613 . S
N8481 C8484 1.350 . S
N8482 S8480 1.610 . S
N8482 C8483 1.351 . S
C8483 C8477 1.428 . S
C8483 N8482 1.351 . S
C8483 C8484 1.434 . S
C8484 C8475 1.429 . S
C8484 N8481 1.350 . S
C8484 C8483 1.434 . S
C8485 C8486 1.369 . S
C8485 C8487 1.419 . S
C8485 H8489 0.930 . S
C8486 C8485 1.369 . S
C8486 C8495 1.429 . S
C8487 C8485 1.419 . S
C8487 C8488 1.363 . S
C8487 H8490 0.929 . S
C8488 C8487 1.363 . S
C8488 C8494 1.428 . S
H8489 C8485 0.930 . S
H8490 C8487 0.929 . S
S8491 N8492 1.613 . S
S8491 N8493 1.610 . S
N8492 S8491 1.613 . S
N8492 C8495 1.350 . S
N8493 S8491 1.610 . S
N8493 C8494 1.351 . S
C8494 C8488 1.428 . S
C8494 N8493 1.351 . S
C8494 C8495 1.434 . S
C8495 C8486 1.429 . S
C8495 N8492 1.350 . S
C8495 C8494 1.434 . S
C8496 C8497 1.369 . S
C8496 C8498 1.419 . S
C8496 H8500 0.930 . S
C8497 C8496 1.369 . S
C8497 C8506 1.429 . S
C8498 C8496 1.419 . S
C8498 C8499 1.363 . S
C8498 H8501 0.929 . S
C8499 C8498 1.363 . S
C8499 C8505 1.428 . S
H8500 C8496 0.930 . S
H8501 C8498 0.929 . S
S8502 N8503 1.613 . S
S8502 N8504 1.610 . S
N8503 S8502 1.613 . S
N8503 C8506 1.350 . S
N8504 S8502 1.610 . S
N8504 C8505 1.351 . S
C8505 C8499 1.428 . S
C8505 N8504 1.351 . S
C8505 C8506 1.434 . S
C8506 C8497 1.429 . S
C8506 N8503 1.350 . S
C8506 C8505 1.434 . S
C8507 C8508 1.369 . S
C8507 C8509 1.419 . S
C8507 H8511 0.930 . S
C8508 C8507 1.369 . S
C8508 C8517 1.429 . S
C8509 C8507 1.419 . S
C8509 C8510 1.363 . S
C8509 H8512 0.929 . S
C8510 C8509 1.363 . S
C8510 C8516 1.428 . S
H8511 C8507 0.930 . S
H8512 C8509 0.929 . S
S8513 N8514 1.613 . S
S8513 N8515 1.610 . S
N8514 S8513 1.613 . S
N8514 C8517 1.350 . S
N8515 S8513 1.610 . S
N8515 C8516 1.351 . S
C8516 C8510 1.428 . S
C8516 N8515 1.351 . S
C8516 C8517 1.434 . S
C8517 C8508 1.429 . S
C8517 N8514 1.350 . S
C8517 C8516 1.434 . S
C8518 C8519 1.369 . S
C8518 C8520 1.419 . S
C8518 H8522 0.930 . S
C8519 C8518 1.369 . S
C8519 C8528 1.429 . S
C8520 C8518 1.419 . S
C8520 C8521 1.363 . S
C8520 H8523 0.929 . S
C8521 C8520 1.363 . S
C8521 C8527 1.428 . S
H8522 C8518 0.930 . S
H8523 C8520 0.929 . S
S8524 N8525 1.613 . S
S8524 N8526 1.610 . S
N8525 S8524 1.613 . S
N8525 C8528 1.350 . S
N8526 S8524 1.610 . S
N8526 C8527 1.351 . S
C8527 C8521 1.428 . S
C8527 N8526 1.351 . S
C8527 C8528 1.434 . S
C8528 C8519 1.429 . S
C8528 N8525 1.350 . S
C8528 C8527 1.434 . S
C8529 C8530 1.369 . S
C8529 C8531 1.419 . S
C8529 H8533 0.930 . S
C8530 C8529 1.369 . S
C8530 C8539 1.429 . S
C8531 C8529 1.419 . S
C8531 C8532 1.363 . S
C8531 H8534 0.929 . S
C8532 C8531 1.363 . S
C8532 C8538 1.428 . S
H8533 C8529 0.930 . S
H8534 C8531 0.929 . S
S8535 N8536 1.613 . S
S8535 N8537 1.610 . S
N8536 S8535 1.613 . S
N8536 C8539 1.350 . S
N8537 S8535 1.610 . S
N8537 C8538 1.351 . S
C8538 C8532 1.428 . S
C8538 N8537 1.351 . S
C8538 C8539 1.434 . S
C8539 C8530 1.429 . S
C8539 N8536 1.350 . S
C8539 C8538 1.434 . S
C8540 C8541 1.369 . S
C8540 C8542 1.419 . S
C8540 H8544 0.930 . S
C8541 C8540 1.369 . S
C8541 C8550 1.429 . S
C8542 C8540 1.419 . S
C8542 C8543 1.363 . S
C8542 H8545 0.929 . S
C8543 C8542 1.363 . S
C8543 C8549 1.428 . S
H8544 C8540 0.930 . S
H8545 C8542 0.929 . S
S8546 N8547 1.613 . S
S8546 N8548 1.610 . S
N8547 S8546 1.613 . S
N8547 C8550 1.350 . S
N8548 S8546 1.610 . S
N8548 C8549 1.351 . S
C8549 C8543 1.428 . S
C8549 N8548 1.351 . S
C8549 C8550 1.434 . S
C8550 C8541 1.429 . S
C8550 N8547 1.350 . S
C8550 C8549 1.434 . S
C8551 C8552 1.369 . S
C8551 C8553 1.419 . S
C8551 H8555 0.930 . S
C8552 C8551 1.369 . S
C8552 C8561 1.429 . S
C8553 C8551 1.419 . S
C8553 C8554 1.363 . S
C8553 H8556 0.929 . S
C8554 C8553 1.363 . S
C8554 C8560 1.428 . S
H8555 C8551 0.930 . S
H8556 C8553 0.929 . S
S8557 N8558 1.613 . S
S8557 N8559 1.610 . S
N8558 S8557 1.613 . S
N8558 C8561 1.350 . S
N8559 S8557 1.610 . S
N8559 C8560 1.351 . S
C8560 C8554 1.428 . S
C8560 N8559 1.351 . S
C8560 C8561 1.434 . S
C8561 C8552 1.429 . S
C8561 N8558 1.350 . S
C8561 C8560 1.434 . S
C8562 C8563 1.369 . S
C8562 C8564 1.419 . S
C8562 H8566 0.930 . S
C8563 C8562 1.369 . S
C8563 C8572 1.429 . S
C8564 C8562 1.419 . S
C8564 C8565 1.363 . S
C8564 H8567 0.929 . S
C8565 C8564 1.363 . S
C8565 C8571 1.428 . S
H8566 C8562 0.930 . S
H8567 C8564 0.929 . S
S8568 N8569 1.613 . S
S8568 N8570 1.610 . S
N8569 S8568 1.613 . S
N8569 C8572 1.350 . S
N8570 S8568 1.610 . S
N8570 C8571 1.351 . S
C8571 C8565 1.428 . S
C8571 N8570 1.351 . S
C8571 C8572 1.434 . S
C8572 C8563 1.429 . S
C8572 N8569 1.350 . S
C8572 C8571 1.434 . S
C8573 C8574 1.369 . S
C8573 C8575 1.419 . S
C8573 H8577 0.930 . S
C8574 C8573 1.369 . S
C8574 C8583 1.429 . S
C8575 C8573 1.419 . S
C8575 C8576 1.363 . S
C8575 H8578 0.929 . S
C8576 C8575 1.363 . S
C8576 C8582 1.428 . S
H8577 C8573 0.930 . S
H8578 C8575 0.929 . S
S8579 N8580 1.613 . S
S8579 N8581 1.610 . S
N8580 S8579 1.613 . S
N8580 C8583 1.350 . S
N8581 S8579 1.610 . S
N8581 C8582 1.351 . S
C8582 C8576 1.428 . S
C8582 N8581 1.351 . S
C8582 C8583 1.434 . S
C8583 C8574 1.429 . S
C8583 N8580 1.350 . S
C8583 C8582 1.434 . S
C8584 C8585 1.369 . S
C8584 C8586 1.419 . S
C8584 H8588 0.930 . S
C8585 C8584 1.369 . S
C8585 C8594 1.429 . S
C8586 C8584 1.419 . S
C8586 C8587 1.363 . S
C8586 H8589 0.929 . S
C8587 C8586 1.363 . S
C8587 C8593 1.428 . S
H8588 C8584 0.930 . S
H8589 C8586 0.929 . S
S8590 N8591 1.613 . S
S8590 N8592 1.610 . S
N8591 S8590 1.613 . S
N8591 C8594 1.350 . S
N8592 S8590 1.610 . S
N8592 C8593 1.351 . S
C8593 C8587 1.428 . S
C8593 N8592 1.351 . S
C8593 C8594 1.434 . S
C8594 C8585 1.429 . S
C8594 N8591 1.350 . S
C8594 C8593 1.434 . S
C8595 C8596 1.369 . S
C8595 C8597 1.419 . S
C8595 H8599 0.930 . S
C8596 C8595 1.369 . S
C8596 C8605 1.429 . S
C8597 C8595 1.419 . S
C8597 C8598 1.363 . S
C8597 H8600 0.929 . S
C8598 C8597 1.363 . S
C8598 C8604 1.428 . S
H8599 C8595 0.930 . S
H8600 C8597 0.929 . S
S8601 N8602 1.613 . S
S8601 N8603 1.610 . S
N8602 S8601 1.613 . S
N8602 C8605 1.350 . S
N8603 S8601 1.610 . S
N8603 C8604 1.351 . S
C8604 C8598 1.428 . S
C8604 N8603 1.351 . S
C8604 C8605 1.434 . S
C8605 C8596 1.429 . S
C8605 N8602 1.350 . S
C8605 C8604 1.434 . S
C8606 C8607 1.369 . S
C8606 C8608 1.419 . S
C8606 H8610 0.930 . S
C8607 C8606 1.369 . S
C8607 C8616 1.429 . S
C8608 C8606 1.419 . S
C8608 C8609 1.363 . S
C8608 H8611 0.929 . S
C8609 C8608 1.363 . S
C8609 C8615 1.428 . S
H8610 C8606 0.930 . S
H8611 C8608 0.929 . S
S8612 N8613 1.613 . S
S8612 N8614 1.610 . S
N8613 S8612 1.613 . S
N8613 C8616 1.350 . S
N8614 S8612 1.610 . S
N8614 C8615 1.351 . S
C8615 C8609 1.428 . S
C8615 N8614 1.351 . S
C8615 C8616 1.434 . S
C8616 C8607 1.429 . S
C8616 N8613 1.350 . S
C8616 C8615 1.434 . S
C8617 C8618 1.369 . S
C8617 C8619 1.419 . S
C8617 H8621 0.930 . S
C8618 C8617 1.369 . S
C8618 C8627 1.429 . S
C8619 C8617 1.419 . S
C8619 C8620 1.363 . S
C8619 H8622 0.929 . S
C8620 C8619 1.363 . S
C8620 C8626 1.428 . S
H8621 C8617 0.930 . S
H8622 C8619 0.929 . S
S8623 N8624 1.613 . S
S8623 N8625 1.610 . S
N8624 S8623 1.613 . S
N8624 C8627 1.350 . S
N8625 S8623 1.610 . S
N8625 C8626 1.351 . S
C8626 C8620 1.428 . S
C8626 N8625 1.351 . S
C8626 C8627 1.434 . S
C8627 C8618 1.429 . S
C8627 N8624 1.350 . S
C8627 C8626 1.434 . S
C8628 C8629 1.369 . S
C8628 C8630 1.419 . S
C8628 H8632 0.930 . S
C8629 C8628 1.369 . S
C8629 C8638 1.429 . S
C8630 C8628 1.419 . S
C8630 C8631 1.363 . S
C8630 H8633 0.929 . S
C8631 C8630 1.363 . S
C8631 C8637 1.428 . S
H8632 C8628 0.930 . S
H8633 C8630 0.929 . S
S8634 N8635 1.613 . S
S8634 N8636 1.610 . S
N8635 S8634 1.613 . S
N8635 C8638 1.350 . S
N8636 S8634 1.610 . S
N8636 C8637 1.351 . S
C8637 C8631 1.428 . S
C8637 N8636 1.351 . S
C8637 C8638 1.434 . S
C8638 C8629 1.429 . S
C8638 N8635 1.350 . S
C8638 C8637 1.434 . S
C8639 C8640 1.369 . S
C8639 C8641 1.419 . S
C8639 H8643 0.930 . S
C8640 C8639 1.369 . S
C8640 C8649 1.429 . S
C8641 C8639 1.419 . S
C8641 C8642 1.363 . S
C8641 H8644 0.929 . S
C8642 C8641 1.363 . S
C8642 C8648 1.428 . S
H8643 C8639 0.930 . S
H8644 C8641 0.929 . S
S8645 N8646 1.613 . S
S8645 N8647 1.610 . S
N8646 S8645 1.613 . S
N8646 C8649 1.350 . S
N8647 S8645 1.610 . S
N8647 C8648 1.351 . S
C8648 C8642 1.428 . S
C8648 N8647 1.351 . S
C8648 C8649 1.434 . S
C8649 C8640 1.429 . S
C8649 N8646 1.350 . S
C8649 C8648 1.434 . S
C8650 C8651 1.369 . S
C8650 C8652 1.419 . S
C8650 H8654 0.930 . S
C8651 C8650 1.369 . S
C8651 C8660 1.429 . S
C8652 C8650 1.419 . S
C8652 C8653 1.363 . S
C8652 H8655 0.929 . S
C8653 C8652 1.363 . S
C8653 C8659 1.428 . S
H8654 C8650 0.930 . S
H8655 C8652 0.929 . S
S8656 N8657 1.613 . S
S8656 N8658 1.610 . S
N8657 S8656 1.613 . S
N8657 C8660 1.350 . S
N8658 S8656 1.610 . S
N8658 C8659 1.351 . S
C8659 C8653 1.428 . S
C8659 N8658 1.351 . S
C8659 C8660 1.434 . S
C8660 C8651 1.429 . S
C8660 N8657 1.350 . S
C8660 C8659 1.434 . S
C8661 C8662 1.369 . S
C8661 C8663 1.419 . S
C8661 H8665 0.930 . S
C8662 C8661 1.369 . S
C8662 C8671 1.429 . S
C8663 C8661 1.419 . S
C8663 C8664 1.363 . S
C8663 H8666 0.929 . S
C8664 C8663 1.363 . S
C8664 C8670 1.428 . S
H8665 C8661 0.930 . S
H8666 C8663 0.929 . S
S8667 N8668 1.613 . S
S8667 N8669 1.610 . S
N8668 S8667 1.613 . S
N8668 C8671 1.350 . S
N8669 S8667 1.610 . S
N8669 C8670 1.351 . S
C8670 C8664 1.428 . S
C8670 N8669 1.351 . S
C8670 C8671 1.434 . S
C8671 C8662 1.429 . S
C8671 N8668 1.350 . S
C8671 C8670 1.434 . S
C8672 C8673 1.369 . S
C8672 C8674 1.419 . S
C8672 H8676 0.930 . S
C8673 C8672 1.369 . S
C8673 C8682 1.429 . S
C8674 C8672 1.419 . S
C8674 C8675 1.363 . S
C8674 H8677 0.929 . S
C8675 C8674 1.363 . S
C8675 C8681 1.428 . S
H8676 C8672 0.930 . S
H8677 C8674 0.929 . S
S8678 N8679 1.613 . S
S8678 N8680 1.610 . S
N8679 S8678 1.613 . S
N8679 C8682 1.350 . S
N8680 S8678 1.610 . S
N8680 C8681 1.351 . S
C8681 C8675 1.428 . S
C8681 N8680 1.351 . S
C8681 C8682 1.434 . S
C8682 C8673 1.429 . S
C8682 N8679 1.350 . S
C8682 C8681 1.434 . S
C8683 C8684 1.369 . S
C8683 C8685 1.419 . S
C8683 H8687 0.930 . S
C8684 C8683 1.369 . S
C8684 C8693 1.429 . S
C8685 C8683 1.419 . S
C8685 C8686 1.363 . S
C8685 H8688 0.929 . S
C8686 C8685 1.363 . S
C8686 C8692 1.428 . S
H8687 C8683 0.930 . S
H8688 C8685 0.929 . S
S8689 N8690 1.613 . S
S8689 N8691 1.610 . S
N8690 S8689 1.613 . S
N8690 C8693 1.350 . S
N8691 S8689 1.610 . S
N8691 C8692 1.351 . S
C8692 C8686 1.428 . S
C8692 N8691 1.351 . S
C8692 C8693 1.434 . S
C8693 C8684 1.429 . S
C8693 N8690 1.350 . S
C8693 C8692 1.434 . S
C8694 C8695 1.369 . S
C8694 C8696 1.419 . S
C8694 H8698 0.930 . S
C8695 C8694 1.369 . S
C8695 C8704 1.429 . S
C8696 C8694 1.419 . S
C8696 C8697 1.363 . S
C8696 H8699 0.929 . S
C8697 C8696 1.363 . S
C8697 C8703 1.428 . S
H8698 C8694 0.930 . S
H8699 C8696 0.929 . S
S8700 N8701 1.613 . S
S8700 N8702 1.610 . S
N8701 S8700 1.613 . S
N8701 C8704 1.350 . S
N8702 S8700 1.610 . S
N8702 C8703 1.351 . S
C8703 C8697 1.428 . S
C8703 N8702 1.351 . S
C8703 C8704 1.434 . S
C8704 C8695 1.429 . S
C8704 N8701 1.350 . S
C8704 C8703 1.434 . S
C8705 C8706 1.369 . S
C8705 C8707 1.419 . S
C8705 H8709 0.930 . S
C8706 C8705 1.369 . S
C8706 C8715 1.429 . S
C8707 C8705 1.419 . S
C8707 C8708 1.363 . S
C8707 H8710 0.929 . S
C8708 C8707 1.363 . S
C8708 C8714 1.428 . S
H8709 C8705 0.930 . S
H8710 C8707 0.929 . S
S8711 N8712 1.613 . S
S8711 N8713 1.610 . S
N8712 S8711 1.613 . S
N8712 C8715 1.350 . S
N8713 S8711 1.610 . S
N8713 C8714 1.351 . S
C8714 C8708 1.428 . S
C8714 N8713 1.351 . S
C8714 C8715 1.434 . S
C8715 C8706 1.429 . S
C8715 N8712 1.350 . S
C8715 C8714 1.434 . S
C8716 C8717 1.369 . S
C8716 C8718 1.419 . S
C8716 H8720 0.930 . S
C8717 C8716 1.369 . S
C8717 C8726 1.429 . S
C8718 C8716 1.419 . S
C8718 C8719 1.363 . S
C8718 H8721 0.929 . S
C8719 C8718 1.363 . S
C8719 C8725 1.428 . S
H8720 C8716 0.930 . S
H8721 C8718 0.929 . S
S8722 N8723 1.613 . S
S8722 N8724 1.610 . S
N8723 S8722 1.613 . S
N8723 C8726 1.350 . S
N8724 S8722 1.610 . S
N8724 C8725 1.351 . S
C8725 C8719 1.428 . S
C8725 N8724 1.351 . S
C8725 C8726 1.434 . S
C8726 C8717 1.429 . S
C8726 N8723 1.350 . S
C8726 C8725 1.434 . S
C8727 C8728 1.369 . S
C8727 C8729 1.419 . S
C8727 H8731 0.930 . S
C8728 C8727 1.369 . S
C8728 C8737 1.429 . S
C8729 C8727 1.419 . S
C8729 C8730 1.363 . S
C8729 H8732 0.929 . S
C8730 C8729 1.363 . S
C8730 C8736 1.428 . S
H8731 C8727 0.930 . S
H8732 C8729 0.929 . S
S8733 N8734 1.613 . S
S8733 N8735 1.610 . S
N8734 S8733 1.613 . S
N8734 C8737 1.350 . S
N8735 S8733 1.610 . S
N8735 C8736 1.351 . S
C8736 C8730 1.428 . S
C8736 N8735 1.351 . S
C8736 C8737 1.434 . S
C8737 C8728 1.429 . S
C8737 N8734 1.350 . S
C8737 C8736 1.434 . S
C8738 C8739 1.369 . S
C8738 C8740 1.419 . S
C8738 H8742 0.930 . S
C8739 C8738 1.369 . S
C8739 C8748 1.429 . S
C8740 C8738 1.419 . S
C8740 C8741 1.363 . S
C8740 H8743 0.929 . S
C8741 C8740 1.363 . S
C8741 C8747 1.428 . S
H8742 C8738 0.930 . S
H8743 C8740 0.929 . S
S8744 N8745 1.613 . S
S8744 N8746 1.610 . S
N8745 S8744 1.613 . S
N8745 C8748 1.350 . S
N8746 S8744 1.610 . S
N8746 C8747 1.351 . S
C8747 C8741 1.428 . S
C8747 N8746 1.351 . S
C8747 C8748 1.434 . S
C8748 C8739 1.429 . S
C8748 N8745 1.350 . S
C8748 C8747 1.434 . S
C8749 C8750 1.369 . S
C8749 C8751 1.419 . S
C8749 H8753 0.930 . S
C8750 C8749 1.369 . S
C8750 C8759 1.429 . S
C8751 C8749 1.419 . S
C8751 C8752 1.363 . S
C8751 H8754 0.929 . S
C8752 C8751 1.363 . S
C8752 C8758 1.428 . S
H8753 C8749 0.930 . S
H8754 C8751 0.929 . S
S8755 N8756 1.613 . S
S8755 N8757 1.610 . S
N8756 S8755 1.613 . S
N8756 C8759 1.350 . S
N8757 S8755 1.610 . S
N8757 C8758 1.351 . S
C8758 C8752 1.428 . S
C8758 N8757 1.351 . S
C8758 C8759 1.434 . S
C8759 C8750 1.429 . S
C8759 N8756 1.350 . S
C8759 C8758 1.434 . S
C8760 C8761 1.369 . S
C8760 C8762 1.419 . S
C8760 H8764 0.930 . S
C8761 C8760 1.369 . S
C8761 C8770 1.429 . S
C8762 C8760 1.419 . S
C8762 C8763 1.363 . S
C8762 H8765 0.929 . S
C8763 C8762 1.363 . S
C8763 C8769 1.428 . S
H8764 C8760 0.930 . S
H8765 C8762 0.929 . S
S8766 N8767 1.613 . S
S8766 N8768 1.610 . S
N8767 S8766 1.613 . S
N8767 C8770 1.350 . S
N8768 S8766 1.610 . S
N8768 C8769 1.351 . S
C8769 C8763 1.428 . S
C8769 N8768 1.351 . S
C8769 C8770 1.434 . S
C8770 C8761 1.429 . S
C8770 N8767 1.350 . S
C8770 C8769 1.434 . S
C8771 C8772 1.369 . S
C8771 C8773 1.419 . S
C8771 H8775 0.930 . S
C8772 C8771 1.369 . S
C8772 C8781 1.429 . S
C8773 C8771 1.419 . S
C8773 C8774 1.363 . S
C8773 H8776 0.929 . S
C8774 C8773 1.363 . S
C8774 C8780 1.428 . S
H8775 C8771 0.930 . S
H8776 C8773 0.929 . S
S8777 N8778 1.613 . S
S8777 N8779 1.610 . S
N8778 S8777 1.613 . S
N8778 C8781 1.350 . S
N8779 S8777 1.610 . S
N8779 C8780 1.351 . S
C8780 C8774 1.428 . S
C8780 N8779 1.351 . S
C8780 C8781 1.434 . S
C8781 C8772 1.429 . S
C8781 N8778 1.350 . S
C8781 C8780 1.434 . S
C8782 C8783 1.369 . S
C8782 C8784 1.419 . S
C8782 H8786 0.930 . S
C8783 C8782 1.369 . S
C8783 C8792 1.429 . S
C8784 C8782 1.419 . S
C8784 C8785 1.363 . S
C8784 H8787 0.929 . S
C8785 C8784 1.363 . S
C8785 C8791 1.428 . S
H8786 C8782 0.930 . S
H8787 C8784 0.929 . S
S8788 N8789 1.613 . S
S8788 N8790 1.610 . S
N8789 S8788 1.613 . S
N8789 C8792 1.350 . S
N8790 S8788 1.610 . S
N8790 C8791 1.351 . S
C8791 C8785 1.428 . S
C8791 N8790 1.351 . S
C8791 C8792 1.434 . S
C8792 C8783 1.429 . S
C8792 N8789 1.350 . S
C8792 C8791 1.434 . S
C8793 C8794 1.369 . S
C8793 C8795 1.419 . S
C8793 H8797 0.930 . S
C8794 C8793 1.369 . S
C8794 C8803 1.429 . S
C8795 C8793 1.419 . S
C8795 C8796 1.363 . S
C8795 H8798 0.929 . S
C8796 C8795 1.363 . S
C8796 C8802 1.428 . S
H8797 C8793 0.930 . S
H8798 C8795 0.929 . S
S8799 N8800 1.613 . S
S8799 N8801 1.610 . S
N8800 S8799 1.613 . S
N8800 C8803 1.350 . S
N8801 S8799 1.610 . S
N8801 C8802 1.351 . S
C8802 C8796 1.428 . S
C8802 N8801 1.351 . S
C8802 C8803 1.434 . S
C8803 C8794 1.429 . S
C8803 N8800 1.350 . S
C8803 C8802 1.434 . S
C8804 C8805 1.369 . S
C8804 C8806 1.419 . S
C8804 H8808 0.930 . S
C8805 C8804 1.369 . S
C8805 C8814 1.429 . S
C8806 C8804 1.419 . S
C8806 C8807 1.363 . S
C8806 H8809 0.929 . S
C8807 C8806 1.363 . S
C8807 C8813 1.428 . S
H8808 C8804 0.930 . S
H8809 C8806 0.929 . S
S8810 N8811 1.613 . S
S8810 N8812 1.610 . S
N8811 S8810 1.613 . S
N8811 C8814 1.350 . S
N8812 S8810 1.610 . S
N8812 C8813 1.351 . S
C8813 C8807 1.428 . S
C8813 N8812 1.351 . S
C8813 C8814 1.434 . S
C8814 C8805 1.429 . S
C8814 N8811 1.350 . S
C8814 C8813 1.434 . S
C8815 C8816 1.369 . S
C8815 C8817 1.419 . S
C8815 H8819 0.930 . S
C8816 C8815 1.369 . S
C8816 C8825 1.429 . S
C8817 C8815 1.419 . S
C8817 C8818 1.363 . S
C8817 H8820 0.929 . S
C8818 C8817 1.363 . S
C8818 C8824 1.428 . S
H8819 C8815 0.930 . S
H8820 C8817 0.929 . S
S8821 N8822 1.613 . S
S8821 N8823 1.610 . S
N8822 S8821 1.613 . S
N8822 C8825 1.350 . S
N8823 S8821 1.610 . S
N8823 C8824 1.351 . S
C8824 C8818 1.428 . S
C8824 N8823 1.351 . S
C8824 C8825 1.434 . S
C8825 C8816 1.429 . S
C8825 N8822 1.350 . S
C8825 C8824 1.434 . S
C8826 C8827 1.369 . S
C8826 C8828 1.419 . S
C8826 H8830 0.930 . S
C8827 C8826 1.369 . S
C8827 C8836 1.429 . S
C8828 C8826 1.419 . S
C8828 C8829 1.363 . S
C8828 H8831 0.929 . S
C8829 C8828 1.363 . S
C8829 C8835 1.428 . S
H8830 C8826 0.930 . S
H8831 C8828 0.929 . S
S8832 N8833 1.613 . S
S8832 N8834 1.610 . S
N8833 S8832 1.613 . S
N8833 C8836 1.350 . S
N8834 S8832 1.610 . S
N8834 C8835 1.351 . S
C8835 C8829 1.428 . S
C8835 N8834 1.351 . S
C8835 C8836 1.434 . S
C8836 C8827 1.429 . S
C8836 N8833 1.350 . S
C8836 C8835 1.434 . S
C8837 C8838 1.369 . S
C8837 C8839 1.419 . S
C8837 H8841 0.930 . S
C8838 C8837 1.369 . S
C8838 C8847 1.429 . S
C8839 C8837 1.419 . S
C8839 C8840 1.363 . S
C8839 H8842 0.929 . S
C8840 C8839 1.363 . S
C8840 C8846 1.428 . S
H8841 C8837 0.930 . S
H8842 C8839 0.929 . S
S8843 N8844 1.613 . S
S8843 N8845 1.610 . S
N8844 S8843 1.613 . S
N8844 C8847 1.350 . S
N8845 S8843 1.610 . S
N8845 C8846 1.351 . S
C8846 C8840 1.428 . S
C8846 N8845 1.351 . S
C8846 C8847 1.434 . S
C8847 C8838 1.429 . S
C8847 N8844 1.350 . S
C8847 C8846 1.434 . S
C8848 C8849 1.369 . S
C8848 C8850 1.419 . S
C8848 H8852 0.930 . S
C8849 C8848 1.369 . S
C8849 C8858 1.429 . S
C8850 C8848 1.419 . S
C8850 C8851 1.363 . S
C8850 H8853 0.929 . S
C8851 C8850 1.363 . S
C8851 C8857 1.428 . S
H8852 C8848 0.930 . S
H8853 C8850 0.929 . S
S8854 N8855 1.613 . S
S8854 N8856 1.610 . S
N8855 S8854 1.613 . S
N8855 C8858 1.350 . S
N8856 S8854 1.610 . S
N8856 C8857 1.351 . S
C8857 C8851 1.428 . S
C8857 N8856 1.351 . S
C8857 C8858 1.434 . S
C8858 C8849 1.429 . S
C8858 N8855 1.350 . S
C8858 C8857 1.434 . S
C8859 C8860 1.369 . S
C8859 C8861 1.419 . S
C8859 H8863 0.930 . S
C8860 C8859 1.369 . S
C8860 C8869 1.429 . S
C8861 C8859 1.419 . S
C8861 C8862 1.363 . S
C8861 H8864 0.929 . S
C8862 C8861 1.363 . S
C8862 C8868 1.428 . S
H8863 C8859 0.930 . S
H8864 C8861 0.929 . S
S8865 N8866 1.613 . S
S8865 N8867 1.610 . S
N8866 S8865 1.613 . S
N8866 C8869 1.350 . S
N8867 S8865 1.610 . S
N8867 C8868 1.351 . S
C8868 C8862 1.428 . S
C8868 N8867 1.351 . S
C8868 C8869 1.434 . S
C8869 C8860 1.429 . S
C8869 N8866 1.350 . S
C8869 C8868 1.434 . S
C8870 C8871 1.369 . S
C8870 C8872 1.419 . S
C8870 H8874 0.930 . S
C8871 C8870 1.369 . S
C8871 C8880 1.429 . S
C8872 C8870 1.419 . S
C8872 C8873 1.363 . S
C8872 H8875 0.929 . S
C8873 C8872 1.363 . S
C8873 C8879 1.428 . S
H8874 C8870 0.930 . S
H8875 C8872 0.929 . S
S8876 N8877 1.613 . S
S8876 N8878 1.610 . S
N8877 S8876 1.613 . S
N8877 C8880 1.350 . S
N8878 S8876 1.610 . S
N8878 C8879 1.351 . S
C8879 C8873 1.428 . S
C8879 N8878 1.351 . S
C8879 C8880 1.434 . S
C8880 C8871 1.429 . S
C8880 N8877 1.350 . S
C8880 C8879 1.434 . S
C8881 C8882 1.369 . S
C8881 C8883 1.419 . S
C8881 H8885 0.930 . S
C8882 C8881 1.369 . S
C8882 C8891 1.429 . S
C8883 C8881 1.419 . S
C8883 C8884 1.363 . S
C8883 H8886 0.929 . S
C8884 C8883 1.363 . S
C8884 C8890 1.428 . S
H8885 C8881 0.930 . S
H8886 C8883 0.929 . S
S8887 N8888 1.613 . S
S8887 N8889 1.610 . S
N8888 S8887 1.613 . S
N8888 C8891 1.350 . S
N8889 S8887 1.610 . S
N8889 C8890 1.351 . S
C8890 C8884 1.428 . S
C8890 N8889 1.351 . S
C8890 C8891 1.434 . S
C8891 C8882 1.429 . S
C8891 N8888 1.350 . S
C8891 C8890 1.434 . S
C8892 C8893 1.369 . S
C8892 C8894 1.419 . S
C8892 H8896 0.930 . S
C8893 C8892 1.369 . S
C8893 C8902 1.429 . S
C8894 C8892 1.419 . S
C8894 C8895 1.363 . S
C8894 H8897 0.929 . S
C8895 C8894 1.363 . S
C8895 C8901 1.428 . S
H8896 C8892 0.930 . S
H8897 C8894 0.929 . S
S8898 N8899 1.613 . S
S8898 N8900 1.610 . S
N8899 S8898 1.613 . S
N8899 C8902 1.350 . S
N8900 S8898 1.610 . S
N8900 C8901 1.351 . S
C8901 C8895 1.428 . S
C8901 N8900 1.351 . S
C8901 C8902 1.434 . S
C8902 C8893 1.429 . S
C8902 N8899 1.350 . S
C8902 C8901 1.434 . S
C8903 C8904 1.369 . S
C8903 C8905 1.419 . S
C8903 H8907 0.930 . S
C8904 C8903 1.369 . S
C8904 C8913 1.429 . S
C8905 C8903 1.419 . S
C8905 C8906 1.363 . S
C8905 H8908 0.929 . S
C8906 C8905 1.363 . S
C8906 C8912 1.428 . S
H8907 C8903 0.930 . S
H8908 C8905 0.929 . S
S8909 N8910 1.613 . S
S8909 N8911 1.610 . S
N8910 S8909 1.613 . S
N8910 C8913 1.350 . S
N8911 S8909 1.610 . S
N8911 C8912 1.351 . S
C8912 C8906 1.428 . S
C8912 N8911 1.351 . S
C8912 C8913 1.434 . S
C8913 C8904 1.429 . S
C8913 N8910 1.350 . S
C8913 C8912 1.434 . S
C8914 C8915 1.369 . S
C8914 C8916 1.419 . S
C8914 H8918 0.930 . S
C8915 C8914 1.369 . S
C8915 C8924 1.429 . S
C8916 C8914 1.419 . S
C8916 C8917 1.363 . S
C8916 H8919 0.929 . S
C8917 C8916 1.363 . S
C8917 C8923 1.428 . S
H8918 C8914 0.930 . S
H8919 C8916 0.929 . S
S8920 N8921 1.613 . S
S8920 N8922 1.610 . S
N8921 S8920 1.613 . S
N8921 C8924 1.350 . S
N8922 S8920 1.610 . S
N8922 C8923 1.351 . S
C8923 C8917 1.428 . S
C8923 N8922 1.351 . S
C8923 C8924 1.434 . S
C8924 C8915 1.429 . S
C8924 N8921 1.350 . S
C8924 C8923 1.434 . S
C8925 C8926 1.369 . S
C8925 C8927 1.419 . S
C8925 H8929 0.930 . S
C8926 C8925 1.369 . S
C8926 C8935 1.429 . S
C8927 C8925 1.419 . S
C8927 C8928 1.363 . S
C8927 H8930 0.929 . S
C8928 C8927 1.363 . S
C8928 C8934 1.428 . S
H8929 C8925 0.930 . S
H8930 C8927 0.929 . S
S8931 N8932 1.613 . S
S8931 N8933 1.610 . S
N8932 S8931 1.613 . S
N8932 C8935 1.350 . S
N8933 S8931 1.610 . S
N8933 C8934 1.351 . S
C8934 C8928 1.428 . S
C8934 N8933 1.351 . S
C8934 C8935 1.434 . S
C8935 C8926 1.429 . S
C8935 N8932 1.350 . S
C8935 C8934 1.434 . S
C8936 C8937 1.369 . S
C8936 C8938 1.419 . S
C8936 H8940 0.930 . S
C8937 C8936 1.369 . S
C8937 C8946 1.429 . S
C8938 C8936 1.419 . S
C8938 C8939 1.363 . S
C8938 H8941 0.929 . S
C8939 C8938 1.363 . S
C8939 C8945 1.428 . S
H8940 C8936 0.930 . S
H8941 C8938 0.929 . S
S8942 N8943 1.613 . S
S8942 N8944 1.610 . S
N8943 S8942 1.613 . S
N8943 C8946 1.350 . S
N8944 S8942 1.610 . S
N8944 C8945 1.351 . S
C8945 C8939 1.428 . S
C8945 N8944 1.351 . S
C8945 C8946 1.434 . S
C8946 C8937 1.429 . S
C8946 N8943 1.350 . S
C8946 C8945 1.434 . S
C8947 C8948 1.369 . S
C8947 C8949 1.419 . S
C8947 H8951 0.930 . S
C8948 C8947 1.369 . S
C8948 C8957 1.429 . S
C8949 C8947 1.419 . S
C8949 C8950 1.363 . S
C8949 H8952 0.929 . S
C8950 C8949 1.363 . S
C8950 C8956 1.428 . S
H8951 C8947 0.930 . S
H8952 C8949 0.929 . S
S8953 N8954 1.613 . S
S8953 N8955 1.610 . S
N8954 S8953 1.613 . S
N8954 C8957 1.350 . S
N8955 S8953 1.610 . S
N8955 C8956 1.351 . S
C8956 C8950 1.428 . S
C8956 N8955 1.351 . S
C8956 C8957 1.434 . S
C8957 C8948 1.429 . S
C8957 N8954 1.350 . S
C8957 C8956 1.434 . S
C8958 C8959 1.369 . S
C8958 C8960 1.419 . S
C8958 H8962 0.930 . S
C8959 C8958 1.369 . S
C8959 C8968 1.429 . S
C8960 C8958 1.419 . S
C8960 C8961 1.363 . S
C8960 H8963 0.929 . S
C8961 C8960 1.363 . S
C8961 C8967 1.428 . S
H8962 C8958 0.930 . S
H8963 C8960 0.929 . S
S8964 N8965 1.613 . S
S8964 N8966 1.610 . S
N8965 S8964 1.613 . S
N8965 C8968 1.350 . S
N8966 S8964 1.610 . S
N8966 C8967 1.351 . S
C8967 C8961 1.428 . S
C8967 N8966 1.351 . S
C8967 C8968 1.434 . S
C8968 C8959 1.429 . S
C8968 N8965 1.350 . S
C8968 C8967 1.434 . S
C8969 C8970 1.369 . S
C8969 C8971 1.419 . S
C8969 H8973 0.930 . S
C8970 C8969 1.369 . S
C8970 C8979 1.429 . S
C8971 C8969 1.419 . S
C8971 C8972 1.363 . S
C8971 H8974 0.929 . S
C8972 C8971 1.363 . S
C8972 C8978 1.428 . S
H8973 C8969 0.930 . S
H8974 C8971 0.929 . S
S8975 N8976 1.613 . S
S8975 N8977 1.610 . S
N8976 S8975 1.613 . S
N8976 C8979 1.350 . S
N8977 S8975 1.610 . S
N8977 C8978 1.351 . S
C8978 C8972 1.428 . S
C8978 N8977 1.351 . S
C8978 C8979 1.434 . S
C8979 C8970 1.429 . S
C8979 N8976 1.350 . S
C8979 C8978 1.434 . S
C8980 C8981 1.369 . S
C8980 C8982 1.419 . S
C8980 H8984 0.930 . S
C8981 C8980 1.369 . S
C8981 C8990 1.429 . S
C8982 C8980 1.419 . S
C8982 C8983 1.363 . S
C8982 H8985 0.929 . S
C8983 C8982 1.363 . S
C8983 C8989 1.428 . S
H8984 C8980 0.930 . S
H8985 C8982 0.929 . S
S8986 N8987 1.613 . S
S8986 N8988 1.610 . S
N8987 S8986 1.613 . S
N8987 C8990 1.350 . S
N8988 S8986 1.610 . S
N8988 C8989 1.351 . S
C8989 C8983 1.428 . S
C8989 N8988 1.351 . S
C8989 C8990 1.434 . S
C8990 C8981 1.429 . S
C8990 N8987 1.350 . S
C8990 C8989 1.434 . S
C8991 C8992 1.369 . S
C8991 C8993 1.419 . S
C8991 H8995 0.930 . S
C8992 C8991 1.369 . S
C8992 C9001 1.429 . S
C8993 C8991 1.419 . S
C8993 C8994 1.363 . S
C8993 H8996 0.929 . S
C8994 C8993 1.363 . S
C8994 C9000 1.428 . S
H8995 C8991 0.930 . S
H8996 C8993 0.929 . S
S8997 N8998 1.613 . S
S8997 N8999 1.610 . S
N8998 S8997 1.613 . S
N8998 C9001 1.350 . S
N8999 S8997 1.610 . S
N8999 C9000 1.351 . S
C9000 C8994 1.428 . S
C9000 N8999 1.351 . S
C9000 C9001 1.434 . S
C9001 C8992 1.429 . S
C9001 N8998 1.350 . S
C9001 C9000 1.434 . S
C9002 C9003 1.369 . S
C9002 C9004 1.419 . S
C9002 H9006 0.930 . S
C9003 C9002 1.369 . S
C9003 C9012 1.429 . S
C9004 C9002 1.419 . S
C9004 C9005 1.363 . S
C9004 H9007 0.929 . S
C9005 C9004 1.363 . S
C9005 C9011 1.428 . S
H9006 C9002 0.930 . S
H9007 C9004 0.929 . S
S9008 N9009 1.613 . S
S9008 N9010 1.610 . S
N9009 S9008 1.613 . S
N9009 C9012 1.350 . S
N9010 S9008 1.610 . S
N9010 C9011 1.351 . S
C9011 C9005 1.428 . S
C9011 N9010 1.351 . S
C9011 C9012 1.434 . S
C9012 C9003 1.429 . S
C9012 N9009 1.350 . S
C9012 C9011 1.434 . S
C9013 C9014 1.369 . S
C9013 C9015 1.419 . S
C9013 H9017 0.930 . S
C9014 C9013 1.369 . S
C9014 C9023 1.429 . S
C9015 C9013 1.419 . S
C9015 C9016 1.363 . S
C9015 H9018 0.929 . S
C9016 C9015 1.363 . S
C9016 C9022 1.428 . S
H9017 C9013 0.930 . S
H9018 C9015 0.929 . S
S9019 N9020 1.613 . S
S9019 N9021 1.610 . S
N9020 S9019 1.613 . S
N9020 C9023 1.350 . S
N9021 S9019 1.610 . S
N9021 C9022 1.351 . S
C9022 C9016 1.428 . S
C9022 N9021 1.351 . S
C9022 C9023 1.434 . S
C9023 C9014 1.429 . S
C9023 N9020 1.350 . S
C9023 C9022 1.434 . S
C9024 C9025 1.369 . S
C9024 C9026 1.419 . S
C9024 H9028 0.930 . S
C9025 C9024 1.369 . S
C9025 C9034 1.429 . S
C9026 C9024 1.419 . S
C9026 C9027 1.363 . S
C9026 H9029 0.929 . S
C9027 C9026 1.363 . S
C9027 C9033 1.428 . S
H9028 C9024 0.930 . S
H9029 C9026 0.929 . S
S9030 N9031 1.613 . S
S9030 N9032 1.610 . S
N9031 S9030 1.613 . S
N9031 C9034 1.350 . S
N9032 S9030 1.610 . S
N9032 C9033 1.351 . S
C9033 C9027 1.428 . S
C9033 N9032 1.351 . S
C9033 C9034 1.434 . S
C9034 C9025 1.429 . S
C9034 N9031 1.350 . S
C9034 C9033 1.434 . S
C9035 C9036 1.369 . S
C9035 C9037 1.419 . S
C9035 H9039 0.930 . S
C9036 C9035 1.369 . S
C9036 C9045 1.429 . S
C9037 C9035 1.419 . S
C9037 C9038 1.363 . S
C9037 H9040 0.929 . S
C9038 C9037 1.363 . S
C9038 C9044 1.428 . S
H9039 C9035 0.930 . S
H9040 C9037 0.929 . S
S9041 N9042 1.613 . S
S9041 N9043 1.610 . S
N9042 S9041 1.613 . S
N9042 C9045 1.350 . S
N9043 S9041 1.610 . S
N9043 C9044 1.351 . S
C9044 C9038 1.428 . S
C9044 N9043 1.351 . S
C9044 C9045 1.434 . S
C9045 C9036 1.429 . S
C9045 N9042 1.350 . S
C9045 C9044 1.434 . S
C9046 C9047 1.369 . S
C9046 C9048 1.419 . S
C9046 H9050 0.930 . S
C9047 C9046 1.369 . S
C9047 C9056 1.429 . S
C9048 C9046 1.419 . S
C9048 C9049 1.363 . S
C9048 H9051 0.929 . S
C9049 C9048 1.363 . S
C9049 C9055 1.428 . S
H9050 C9046 0.930 . S
H9051 C9048 0.929 . S
S9052 N9053 1.613 . S
S9052 N9054 1.610 . S
N9053 S9052 1.613 . S
N9053 C9056 1.350 . S
N9054 S9052 1.610 . S
N9054 C9055 1.351 . S
C9055 C9049 1.428 . S
C9055 N9054 1.351 . S
C9055 C9056 1.434 . S
C9056 C9047 1.429 . S
C9056 N9053 1.350 . S
C9056 C9055 1.434 . S
C9057 C9058 1.369 . S
C9057 C9059 1.419 . S
C9057 H9061 0.930 . S
C9058 C9057 1.369 . S
C9058 C9067 1.429 . S
C9059 C9057 1.419 . S
C9059 C9060 1.363 . S
C9059 H9062 0.929 . S
C9060 C9059 1.363 . S
C9060 C9066 1.428 . S
H9061 C9057 0.930 . S
H9062 C9059 0.929 . S
S9063 N9064 1.613 . S
S9063 N9065 1.610 . S
N9064 S9063 1.613 . S
N9064 C9067 1.350 . S
N9065 S9063 1.610 . S
N9065 C9066 1.351 . S
C9066 C9060 1.428 . S
C9066 N9065 1.351 . S
C9066 C9067 1.434 . S
C9067 C9058 1.429 . S
C9067 N9064 1.350 . S
C9067 C9066 1.434 . S
C9068 C9069 1.369 . S
C9068 C9070 1.419 . S
C9068 H9072 0.930 . S
C9069 C9068 1.369 . S
C9069 C9078 1.429 . S
C9070 C9068 1.419 . S
C9070 C9071 1.363 . S
C9070 H9073 0.929 . S
C9071 C9070 1.363 . S
C9071 C9077 1.428 . S
H9072 C9068 0.930 . S
H9073 C9070 0.929 . S
S9074 N9075 1.613 . S
S9074 N9076 1.610 . S
N9075 S9074 1.613 . S
N9075 C9078 1.350 . S
N9076 S9074 1.610 . S
N9076 C9077 1.351 . S
C9077 C9071 1.428 . S
C9077 N9076 1.351 . S
C9077 C9078 1.434 . S
C9078 C9069 1.429 . S
C9078 N9075 1.350 . S
C9078 C9077 1.434 . S
C9079 C9080 1.369 . S
C9079 C9081 1.419 . S
C9079 H9083 0.930 . S
C9080 C9079 1.369 . S
C9080 C9089 1.429 . S
C9081 C9079 1.419 . S
C9081 C9082 1.363 . S
C9081 H9084 0.929 . S
C9082 C9081 1.363 . S
C9082 C9088 1.428 . S
H9083 C9079 0.930 . S
H9084 C9081 0.929 . S
S9085 N9086 1.613 . S
S9085 N9087 1.610 . S
N9086 S9085 1.613 . S
N9086 C9089 1.350 . S
N9087 S9085 1.610 . S
N9087 C9088 1.351 . S
C9088 C9082 1.428 . S
C9088 N9087 1.351 . S
C9088 C9089 1.434 . S
C9089 C9080 1.429 . S
C9089 N9086 1.350 . S
C9089 C9088 1.434 . S
C9090 C9091 1.369 . S
C9090 C9092 1.419 . S
C9090 H9094 0.930 . S
C9091 C9090 1.369 . S
C9091 C9100 1.429 . S
C9092 C9090 1.419 . S
C9092 C9093 1.363 . S
C9092 H9095 0.929 . S
C9093 C9092 1.363 . S
C9093 C9099 1.428 . S
H9094 C9090 0.930 . S
H9095 C9092 0.929 . S
S9096 N9097 1.613 . S
S9096 N9098 1.610 . S
N9097 S9096 1.613 . S
N9097 C9100 1.350 . S
N9098 S9096 1.610 . S
N9098 C9099 1.351 . S
C9099 C9093 1.428 . S
C9099 N9098 1.351 . S
C9099 C9100 1.434 . S
C9100 C9091 1.429 . S
C9100 N9097 1.350 . S
C9100 C9099 1.434 . S
C9101 C9102 1.369 . S
C9101 C9103 1.419 . S
C9101 H9105 0.930 . S
C9102 C9101 1.369 . S
C9102 C9111 1.429 . S
C9103 C9101 1.419 . S
C9103 C9104 1.363 . S
C9103 H9106 0.929 . S
C9104 C9103 1.363 . S
C9104 C9110 1.428 . S
H9105 C9101 0.930 . S
H9106 C9103 0.929 . S
S9107 N9108 1.613 . S
S9107 N9109 1.610 . S
N9108 S9107 1.613 . S
N9108 C9111 1.350 . S
N9109 S9107 1.610 . S
N9109 C9110 1.351 . S
C9110 C9104 1.428 . S
C9110 N9109 1.351 . S
C9110 C9111 1.434 . S
C9111 C9102 1.429 . S
C9111 N9108 1.350 . S
C9111 C9110 1.434 . S
C9112 C9113 1.369 . S
C9112 C9114 1.419 . S
C9112 H9116 0.930 . S
C9113 C9112 1.369 . S
C9113 C9122 1.429 . S
C9114 C9112 1.419 . S
C9114 C9115 1.363 . S
C9114 H9117 0.929 . S
C9115 C9114 1.363 . S
C9115 C9121 1.428 . S
H9116 C9112 0.930 . S
H9117 C9114 0.929 . S
S9118 N9119 1.613 . S
S9118 N9120 1.610 . S
N9119 S9118 1.613 . S
N9119 C9122 1.350 . S
N9120 S9118 1.610 . S
N9120 C9121 1.351 . S
C9121 C9115 1.428 . S
C9121 N9120 1.351 . S
C9121 C9122 1.434 . S
C9122 C9113 1.429 . S
C9122 N9119 1.350 . S
C9122 C9121 1.434 . S
C9123 C9124 1.369 . S
C9123 C9125 1.419 . S
C9123 H9127 0.930 . S
C9124 C9123 1.369 . S
C9124 C9133 1.429 . S
C9125 C9123 1.419 . S
C9125 C9126 1.363 . S
C9125 H9128 0.929 . S
C9126 C9125 1.363 . S
C9126 C9132 1.428 . S
H9127 C9123 0.930 . S
H9128 C9125 0.929 . S
S9129 N9130 1.613 . S
S9129 N9131 1.610 . S
N9130 S9129 1.613 . S
N9130 C9133 1.350 . S
N9131 S9129 1.610 . S
N9131 C9132 1.351 . S
C9132 C9126 1.428 . S
C9132 N9131 1.351 . S
C9132 C9133 1.434 . S
C9133 C9124 1.429 . S
C9133 N9130 1.350 . S
C9133 C9132 1.434 . S
C9134 C9135 1.369 . S
C9134 C9136 1.419 . S
C9134 H9138 0.930 . S
C9135 C9134 1.369 . S
C9135 C9144 1.429 . S
C9136 C9134 1.419 . S
C9136 C9137 1.363 . S
C9136 H9139 0.929 . S
C9137 C9136 1.363 . S
C9137 C9143 1.428 . S
H9138 C9134 0.930 . S
H9139 C9136 0.929 . S
S9140 N9141 1.613 . S
S9140 N9142 1.610 . S
N9141 S9140 1.613 . S
N9141 C9144 1.350 . S
N9142 S9140 1.610 . S
N9142 C9143 1.351 . S
C9143 C9137 1.428 . S
C9143 N9142 1.351 . S
C9143 C9144 1.434 . S
C9144 C9135 1.429 . S
C9144 N9141 1.350 . S
C9144 C9143 1.434 . S
C9145 C9146 1.369 . S
C9145 C9147 1.419 . S
C9145 H9149 0.930 . S
C9146 C9145 1.369 . S
C9146 C9155 1.429 . S
C9147 C9145 1.419 . S
C9147 C9148 1.363 . S
C9147 H9150 0.929 . S
C9148 C9147 1.363 . S
C9148 C9154 1.428 . S
H9149 C9145 0.930 . S
H9150 C9147 0.929 . S
S9151 N9152 1.613 . S
S9151 N9153 1.610 . S
N9152 S9151 1.613 . S
N9152 C9155 1.350 . S
N9153 S9151 1.610 . S
N9153 C9154 1.351 . S
C9154 C9148 1.428 . S
C9154 N9153 1.351 . S
C9154 C9155 1.434 . S
C9155 C9146 1.429 . S
C9155 N9152 1.350 . S
C9155 C9154 1.434 . S
C9156 C9157 1.369 . S
C9156 C9158 1.419 . S
C9156 H9160 0.930 . S
C9157 C9156 1.369 . S
C9157 C9166 1.429 . S
C9158 C9156 1.419 . S
C9158 C9159 1.363 . S
C9158 H9161 0.929 . S
C9159 C9158 1.363 . S
C9159 C9165 1.428 . S
H9160 C9156 0.930 . S
H9161 C9158 0.929 . S
S9162 N9163 1.613 . S
S9162 N9164 1.610 . S
N9163 S9162 1.613 . S
N9163 C9166 1.350 . S
N9164 S9162 1.610 . S
N9164 C9165 1.351 . S
C9165 C9159 1.428 . S
C9165 N9164 1.351 . S
C9165 C9166 1.434 . S
C9166 C9157 1.429 . S
C9166 N9163 1.350 . S
C9166 C9165 1.434 . S
C9167 C9168 1.369 . S
C9167 C9169 1.419 . S
C9167 H9171 0.930 . S
C9168 C9167 1.369 . S
C9168 C9177 1.429 . S
C9169 C9167 1.419 . S
C9169 C9170 1.363 . S
C9169 H9172 0.929 . S
C9170 C9169 1.363 . S
C9170 C9176 1.428 . S
H9171 C9167 0.930 . S
H9172 C9169 0.929 . S
S9173 N9174 1.613 . S
S9173 N9175 1.610 . S
N9174 S9173 1.613 . S
N9174 C9177 1.350 . S
N9175 S9173 1.610 . S
N9175 C9176 1.351 . S
C9176 C9170 1.428 . S
C9176 N9175 1.351 . S
C9176 C9177 1.434 . S
C9177 C9168 1.429 . S
C9177 N9174 1.350 . S
C9177 C9176 1.434 . S
C9178 C9179 1.369 . S
C9178 C9180 1.419 . S
C9178 H9182 0.930 . S
C9179 C9178 1.369 . S
C9179 C9188 1.429 . S
C9180 C9178 1.419 . S
C9180 C9181 1.363 . S
C9180 H9183 0.929 . S
C9181 C9180 1.363 . S
C9181 C9187 1.428 . S
H9182 C9178 0.930 . S
H9183 C9180 0.929 . S
S9184 N9185 1.613 . S
S9184 N9186 1.610 . S
N9185 S9184 1.613 . S
N9185 C9188 1.350 . S
N9186 S9184 1.610 . S
N9186 C9187 1.351 . S
C9187 C9181 1.428 . S
C9187 N9186 1.351 . S
C9187 C9188 1.434 . S
C9188 C9179 1.429 . S
C9188 N9185 1.350 . S
C9188 C9187 1.434 . S
C9189 C9190 1.369 . S
C9189 C9191 1.419 . S
C9189 H9193 0.930 . S
C9190 C9189 1.369 . S
C9190 C9199 1.429 . S
C9191 C9189 1.419 . S
C9191 C9192 1.363 . S
C9191 H9194 0.929 . S
C9192 C9191 1.363 . S
C9192 C9198 1.428 . S
H9193 C9189 0.930 . S
H9194 C9191 0.929 . S
S9195 N9196 1.613 . S
S9195 N9197 1.610 . S
N9196 S9195 1.613 . S
N9196 C9199 1.350 . S
N9197 S9195 1.610 . S
N9197 C9198 1.351 . S
C9198 C9192 1.428 . S
C9198 N9197 1.351 . S
C9198 C9199 1.434 . S
C9199 C9190 1.429 . S
C9199 N9196 1.350 . S
C9199 C9198 1.434 . S
C9200 C9201 1.369 . S
C9200 C9202 1.419 . S
C9200 H9204 0.930 . S
C9201 C9200 1.369 . S
C9201 C9210 1.429 . S
C9202 C9200 1.419 . S
C9202 C9203 1.363 . S
C9202 H9205 0.929 . S
C9203 C9202 1.363 . S
C9203 C9209 1.428 . S
H9204 C9200 0.930 . S
H9205 C9202 0.929 . S
S9206 N9207 1.613 . S
S9206 N9208 1.610 . S
N9207 S9206 1.613 . S
N9207 C9210 1.350 . S
N9208 S9206 1.610 . S
N9208 C9209 1.351 . S
C9209 C9203 1.428 . S
C9209 N9208 1.351 . S
C9209 C9210 1.434 . S
C9210 C9201 1.429 . S
C9210 N9207 1.350 . S
C9210 C9209 1.434 . S
C9211 C9212 1.369 . S
C9211 C9213 1.419 . S
C9211 H9215 0.930 . S
C9212 C9211 1.369 . S
C9212 C9221 1.429 . S
C9213 C9211 1.419 . S
C9213 C9214 1.363 . S
C9213 H9216 0.929 . S
C9214 C9213 1.363 . S
C9214 C9220 1.428 . S
H9215 C9211 0.930 . S
H9216 C9213 0.929 . S
S9217 N9218 1.613 . S
S9217 N9219 1.610 . S
N9218 S9217 1.613 . S
N9218 C9221 1.350 . S
N9219 S9217 1.610 . S
N9219 C9220 1.351 . S
C9220 C9214 1.428 . S
C9220 N9219 1.351 . S
C9220 C9221 1.434 . S
C9221 C9212 1.429 . S
C9221 N9218 1.350 . S
C9221 C9220 1.434 . S
C9222 C9223 1.369 . S
C9222 C9224 1.419 . S
C9222 H9226 0.930 . S
C9223 C9222 1.369 . S
C9223 C9232 1.429 . S
C9224 C9222 1.419 . S
C9224 C9225 1.363 . S
C9224 H9227 0.929 . S
C9225 C9224 1.363 . S
C9225 C9231 1.428 . S
H9226 C9222 0.930 . S
H9227 C9224 0.929 . S
S9228 N9229 1.613 . S
S9228 N9230 1.610 . S
N9229 S9228 1.613 . S
N9229 C9232 1.350 . S
N9230 S9228 1.610 . S
N9230 C9231 1.351 . S
C9231 C9225 1.428 . S
C9231 N9230 1.351 . S
C9231 C9232 1.434 . S
C9232 C9223 1.429 . S
C9232 N9229 1.350 . S
C9232 C9231 1.434 . S
C9233 C9234 1.369 . S
C9233 C9235 1.419 . S
C9233 H9237 0.930 . S
C9234 C9233 1.369 . S
C9234 C9243 1.429 . S
C9235 C9233 1.419 . S
C9235 C9236 1.363 . S
C9235 H9238 0.929 . S
C9236 C9235 1.363 . S
C9236 C9242 1.428 . S
H9237 C9233 0.930 . S
H9238 C9235 0.929 . S
S9239 N9240 1.613 . S
S9239 N9241 1.610 . S
N9240 S9239 1.613 . S
N9240 C9243 1.350 . S
N9241 S9239 1.610 . S
N9241 C9242 1.351 . S
C9242 C9236 1.428 . S
C9242 N9241 1.351 . S
C9242 C9243 1.434 . S
C9243 C9234 1.429 . S
C9243 N9240 1.350 . S
C9243 C9242 1.434 . S
C9244 C9245 1.369 . S
C9244 C9246 1.419 . S
C9244 H9248 0.930 . S
C9245 C9244 1.369 . S
C9245 C9254 1.429 . S
C9246 C9244 1.419 . S
C9246 C9247 1.363 . S
C9246 H9249 0.929 . S
C9247 C9246 1.363 . S
C9247 C9253 1.428 . S
H9248 C9244 0.930 . S
H9249 C9246 0.929 . S
S9250 N9251 1.613 . S
S9250 N9252 1.610 . S
N9251 S9250 1.613 . S
N9251 C9254 1.350 . S
N9252 S9250 1.610 . S
N9252 C9253 1.351 . S
C9253 C9247 1.428 . S
C9253 N9252 1.351 . S
C9253 C9254 1.434 . S
C9254 C9245 1.429 . S
C9254 N9251 1.350 . S
C9254 C9253 1.434 . S
C9255 C9256 1.369 . S
C9255 C9257 1.419 . S
C9255 H9259 0.930 . S
C9256 C9255 1.369 . S
C9256 C9265 1.429 . S
C9257 C9255 1.419 . S
C9257 C9258 1.363 . S
C9257 H9260 0.929 . S
C9258 C9257 1.363 . S
C9258 C9264 1.428 . S
H9259 C9255 0.930 . S
H9260 C9257 0.929 . S
S9261 N9262 1.613 . S
S9261 N9263 1.610 . S
N9262 S9261 1.613 . S
N9262 C9265 1.350 . S
N9263 S9261 1.610 . S
N9263 C9264 1.351 . S
C9264 C9258 1.428 . S
C9264 N9263 1.351 . S
C9264 C9265 1.434 . S
C9265 C9256 1.429 . S
C9265 N9262 1.350 . S
C9265 C9264 1.434 . S
C9266 C9267 1.369 . S
C9266 C9268 1.419 . S
C9266 H9270 0.930 . S
C9267 C9266 1.369 . S
C9267 C9276 1.429 . S
C9268 C9266 1.419 . S
C9268 C9269 1.363 . S
C9268 H9271 0.929 . S
C9269 C9268 1.363 . S
C9269 C9275 1.428 . S
H9270 C9266 0.930 . S
H9271 C9268 0.929 . S
S9272 N9273 1.613 . S
S9272 N9274 1.610 . S
N9273 S9272 1.613 . S
N9273 C9276 1.350 . S
N9274 S9272 1.610 . S
N9274 C9275 1.351 . S
C9275 C9269 1.428 . S
C9275 N9274 1.351 . S
C9275 C9276 1.434 . S
C9276 C9267 1.429 . S
C9276 N9273 1.350 . S
C9276 C9275 1.434 . S
C9277 C9278 1.369 . S
C9277 C9279 1.419 . S
C9277 H9281 0.930 . S
C9278 C9277 1.369 . S
C9278 C9287 1.429 . S
C9279 C9277 1.419 . S
C9279 C9280 1.363 . S
C9279 H9282 0.929 . S
C9280 C9279 1.363 . S
C9280 C9286 1.428 . S
H9281 C9277 0.930 . S
H9282 C9279 0.929 . S
S9283 N9284 1.613 . S
S9283 N9285 1.610 . S
N9284 S9283 1.613 . S
N9284 C9287 1.350 . S
N9285 S9283 1.610 . S
N9285 C9286 1.351 . S
C9286 C9280 1.428 . S
C9286 N9285 1.351 . S
C9286 C9287 1.434 . S
C9287 C9278 1.429 . S
C9287 N9284 1.350 . S
C9287 C9286 1.434 . S
C9288 C9289 1.369 . S
C9288 C9290 1.419 . S
C9288 H9292 0.930 . S
C9289 C9288 1.369 . S
C9289 C9298 1.429 . S
C9290 C9288 1.419 . S
C9290 C9291 1.363 . S
C9290 H9293 0.929 . S
C9291 C9290 1.363 . S
C9291 C9297 1.428 . S
H9292 C9288 0.930 . S
H9293 C9290 0.929 . S
S9294 N9295 1.613 . S
S9294 N9296 1.610 . S
N9295 S9294 1.613 . S
N9295 C9298 1.350 . S
N9296 S9294 1.610 . S
N9296 C9297 1.351 . S
C9297 C9291 1.428 . S
C9297 N9296 1.351 . S
C9297 C9298 1.434 . S
C9298 C9289 1.429 . S
C9298 N9295 1.350 . S
C9298 C9297 1.434 . S
C9299 C9300 1.369 . S
C9299 C9301 1.419 . S
C9299 H9303 0.930 . S
C9300 C9299 1.369 . S
C9300 C9309 1.429 . S
C9301 C9299 1.419 . S
C9301 C9302 1.363 . S
C9301 H9304 0.929 . S
C9302 C9301 1.363 . S
C9302 C9308 1.428 . S
H9303 C9299 0.930 . S
H9304 C9301 0.929 . S
S9305 N9306 1.613 . S
S9305 N9307 1.610 . S
N9306 S9305 1.613 . S
N9306 C9309 1.350 . S
N9307 S9305 1.610 . S
N9307 C9308 1.351 . S
C9308 C9302 1.428 . S
C9308 N9307 1.351 . S
C9308 C9309 1.434 . S
C9309 C9300 1.429 . S
C9309 N9306 1.350 . S
C9309 C9308 1.434 . S
C9310 C9311 1.369 . S
C9310 C9312 1.419 . S
C9310 H9314 0.930 . S
C9311 C9310 1.369 . S
C9311 C9320 1.429 . S
C9312 C9310 1.419 . S
C9312 C9313 1.363 . S
C9312 H9315 0.929 . S
C9313 C9312 1.363 . S
C9313 C9319 1.428 . S
H9314 C9310 0.930 . S
H9315 C9312 0.929 . S
S9316 N9317 1.613 . S
S9316 N9318 1.610 . S
N9317 S9316 1.613 . S
N9317 C9320 1.350 . S
N9318 S9316 1.610 . S
N9318 C9319 1.351 . S
C9319 C9313 1.428 . S
C9319 N9318 1.351 . S
C9319 C9320 1.434 . S
C9320 C9311 1.429 . S
C9320 N9317 1.350 . S
C9320 C9319 1.434 . S
C9321 C9322 1.369 . S
C9321 C9323 1.419 . S
C9321 H9325 0.930 . S
C9322 C9321 1.369 . S
C9322 C9331 1.429 . S
C9323 C9321 1.419 . S
C9323 C9324 1.363 . S
C9323 H9326 0.929 . S
C9324 C9323 1.363 . S
C9324 C9330 1.428 . S
H9325 C9321 0.930 . S
H9326 C9323 0.929 . S
S9327 N9328 1.613 . S
S9327 N9329 1.610 . S
N9328 S9327 1.613 . S
N9328 C9331 1.350 . S
N9329 S9327 1.610 . S
N9329 C9330 1.351 . S
C9330 C9324 1.428 . S
C9330 N9329 1.351 . S
C9330 C9331 1.434 . S
C9331 C9322 1.429 . S
C9331 N9328 1.350 . S
C9331 C9330 1.434 . S
C9332 C9333 1.369 . S
C9332 C9334 1.419 . S
C9332 H9336 0.930 . S
C9333 C9332 1.369 . S
C9333 C9342 1.429 . S
C9334 C9332 1.419 . S
C9334 C9335 1.363 . S
C9334 H9337 0.929 . S
C9335 C9334 1.363 . S
C9335 C9341 1.428 . S
H9336 C9332 0.930 . S
H9337 C9334 0.929 . S
S9338 N9339 1.613 . S
S9338 N9340 1.610 . S
N9339 S9338 1.613 . S
N9339 C9342 1.350 . S
N9340 S9338 1.610 . S
N9340 C9341 1.351 . S
C9341 C9335 1.428 . S
C9341 N9340 1.351 . S
C9341 C9342 1.434 . S
C9342 C9333 1.429 . S
C9342 N9339 1.350 . S
C9342 C9341 1.434 . S
C9343 C9344 1.369 . S
C9343 C9345 1.419 . S
C9343 H9347 0.930 . S
C9344 C9343 1.369 . S
C9344 C9353 1.429 . S
C9345 C9343 1.419 . S
C9345 C9346 1.363 . S
C9345 H9348 0.929 . S
C9346 C9345 1.363 . S
C9346 C9352 1.428 . S
H9347 C9343 0.930 . S
H9348 C9345 0.929 . S
S9349 N9350 1.613 . S
S9349 N9351 1.610 . S
N9350 S9349 1.613 . S
N9350 C9353 1.350 . S
N9351 S9349 1.610 . S
N9351 C9352 1.351 . S
C9352 C9346 1.428 . S
C9352 N9351 1.351 . S
C9352 C9353 1.434 . S
C9353 C9344 1.429 . S
C9353 N9350 1.350 . S
C9353 C9352 1.434 . S
C9354 C9355 1.369 . S
C9354 C9356 1.419 . S
C9354 H9358 0.930 . S
C9355 C9354 1.369 . S
C9355 C9364 1.429 . S
C9356 C9354 1.419 . S
C9356 C9357 1.363 . S
C9356 H9359 0.929 . S
C9357 C9356 1.363 . S
C9357 C9363 1.428 . S
H9358 C9354 0.930 . S
H9359 C9356 0.929 . S
S9360 N9361 1.613 . S
S9360 N9362 1.610 . S
N9361 S9360 1.613 . S
N9361 C9364 1.350 . S
N9362 S9360 1.610 . S
N9362 C9363 1.351 . S
C9363 C9357 1.428 . S
C9363 N9362 1.351 . S
C9363 C9364 1.434 . S
C9364 C9355 1.429 . S
C9364 N9361 1.350 . S
C9364 C9363 1.434 . S
C9365 C9366 1.369 . S
C9365 C9367 1.419 . S
C9365 H9369 0.930 . S
C9366 C9365 1.369 . S
C9366 C9375 1.429 . S
C9367 C9365 1.419 . S
C9367 C9368 1.363 . S
C9367 H9370 0.929 . S
C9368 C9367 1.363 . S
C9368 C9374 1.428 . S
H9369 C9365 0.930 . S
H9370 C9367 0.929 . S
S9371 N9372 1.613 . S
S9371 N9373 1.610 . S
N9372 S9371 1.613 . S
N9372 C9375 1.350 . S
N9373 S9371 1.610 . S
N9373 C9374 1.351 . S
C9374 C9368 1.428 . S
C9374 N9373 1.351 . S
C9374 C9375 1.434 . S
C9375 C9366 1.429 . S
C9375 N9372 1.350 . S
C9375 C9374 1.434 . S
C9376 C9377 1.369 . S
C9376 C9378 1.419 . S
C9376 H9380 0.930 . S
C9377 C9376 1.369 . S
C9377 C9386 1.429 . S
C9378 C9376 1.419 . S
C9378 C9379 1.363 . S
C9378 H9381 0.929 . S
C9379 C9378 1.363 . S
C9379 C9385 1.428 . S
H9380 C9376 0.930 . S
H9381 C9378 0.929 . S
S9382 N9383 1.613 . S
S9382 N9384 1.610 . S
N9383 S9382 1.613 . S
N9383 C9386 1.350 . S
N9384 S9382 1.610 . S
N9384 C9385 1.351 . S
C9385 C9379 1.428 . S
C9385 N9384 1.351 . S
C9385 C9386 1.434 . S
C9386 C9377 1.429 . S
C9386 N9383 1.350 . S
C9386 C9385 1.434 . S
C9387 C9388 1.369 . S
C9387 C9389 1.419 . S
C9387 H9391 0.930 . S
C9388 C9387 1.369 . S
C9388 C9397 1.429 . S
C9389 C9387 1.419 . S
C9389 C9390 1.363 . S
C9389 H9392 0.929 . S
C9390 C9389 1.363 . S
C9390 C9396 1.428 . S
H9391 C9387 0.930 . S
H9392 C9389 0.929 . S
S9393 N9394 1.613 . S
S9393 N9395 1.610 . S
N9394 S9393 1.613 . S
N9394 C9397 1.350 . S
N9395 S9393 1.610 . S
N9395 C9396 1.351 . S
C9396 C9390 1.428 . S
C9396 N9395 1.351 . S
C9396 C9397 1.434 . S
C9397 C9388 1.429 . S
C9397 N9394 1.350 . S
C9397 C9396 1.434 . S
C9398 C9399 1.369 . S
C9398 C9400 1.419 . S
C9398 H9402 0.930 . S
C9399 C9398 1.369 . S
C9399 C9408 1.429 . S
C9400 C9398 1.419 . S
C9400 C9401 1.363 . S
C9400 H9403 0.929 . S
C9401 C9400 1.363 . S
C9401 C9407 1.428 . S
H9402 C9398 0.930 . S
H9403 C9400 0.929 . S
S9404 N9405 1.613 . S
S9404 N9406 1.610 . S
N9405 S9404 1.613 . S
N9405 C9408 1.350 . S
N9406 S9404 1.610 . S
N9406 C9407 1.351 . S
C9407 C9401 1.428 . S
C9407 N9406 1.351 . S
C9407 C9408 1.434 . S
C9408 C9399 1.429 . S
C9408 N9405 1.350 . S
C9408 C9407 1.434 . S
C9409 C9410 1.369 . S
C9409 C9411 1.419 . S
C9409 H9413 0.930 . S
C9410 C9409 1.369 . S
C9410 C9419 1.429 . S
C9411 C9409 1.419 . S
C9411 C9412 1.363 . S
C9411 H9414 0.929 . S
C9412 C9411 1.363 . S
C9412 C9418 1.428 . S
H9413 C9409 0.930 . S
H9414 C9411 0.929 . S
S9415 N9416 1.613 . S
S9415 N9417 1.610 . S
N9416 S9415 1.613 . S
N9416 C9419 1.350 . S
N9417 S9415 1.610 . S
N9417 C9418 1.351 . S
C9418 C9412 1.428 . S
C9418 N9417 1.351 . S
C9418 C9419 1.434 . S
C9419 C9410 1.429 . S
C9419 N9416 1.350 . S
C9419 C9418 1.434 . S
C9420 C9421 1.369 . S
C9420 C9422 1.419 . S
C9420 H9424 0.930 . S
C9421 C9420 1.369 . S
C9421 C9430 1.429 . S
C9422 C9420 1.419 . S
C9422 C9423 1.363 . S
C9422 H9425 0.929 . S
C9423 C9422 1.363 . S
C9423 C9429 1.428 . S
H9424 C9420 0.930 . S
H9425 C9422 0.929 . S
S9426 N9427 1.613 . S
S9426 N9428 1.610 . S
N9427 S9426 1.613 . S
N9427 C9430 1.350 . S
N9428 S9426 1.610 . S
N9428 C9429 1.351 . S
C9429 C9423 1.428 . S
C9429 N9428 1.351 . S
C9429 C9430 1.434 . S
C9430 C9421 1.429 . S
C9430 N9427 1.350 . S
C9430 C9429 1.434 . S
C9431 C9432 1.369 . S
C9431 C9433 1.419 . S
C9431 H9435 0.930 . S
C9432 C9431 1.369 . S
C9432 C9441 1.429 . S
C9433 C9431 1.419 . S
C9433 C9434 1.363 . S
C9433 H9436 0.929 . S
C9434 C9433 1.363 . S
C9434 C9440 1.428 . S
H9435 C9431 0.930 . S
H9436 C9433 0.929 . S
S9437 N9438 1.613 . S
S9437 N9439 1.610 . S
N9438 S9437 1.613 . S
N9438 C9441 1.350 . S
N9439 S9437 1.610 . S
N9439 C9440 1.351 . S
C9440 C9434 1.428 . S
C9440 N9439 1.351 . S
C9440 C9441 1.434 . S
C9441 C9432 1.429 . S
C9441 N9438 1.350 . S
C9441 C9440 1.434 . S
C9442 C9443 1.369 . S
C9442 C9444 1.419 . S
C9442 H9446 0.930 . S
C9443 C9442 1.369 . S
C9443 C9452 1.429 . S
C9444 C9442 1.419 . S
C9444 C9445 1.363 . S
C9444 H9447 0.929 . S
C9445 C9444 1.363 . S
C9445 C9451 1.428 . S
H9446 C9442 0.930 . S
H9447 C9444 0.929 . S
S9448 N9449 1.613 . S
S9448 N9450 1.610 . S
N9449 S9448 1.613 . S
N9449 C9452 1.350 . S
N9450 S9448 1.610 . S
N9450 C9451 1.351 . S
C9451 C9445 1.428 . S
C9451 N9450 1.351 . S
C9451 C9452 1.434 . S
C9452 C9443 1.429 . S
C9452 N9449 1.350 . S
C9452 C9451 1.434 . S
C9453 C9454 1.369 . S
C9453 C9455 1.419 . S
C9453 H9457 0.930 . S
C9454 C9453 1.369 . S
C9454 C9463 1.429 . S
C9455 C9453 1.419 . S
C9455 C9456 1.363 . S
C9455 H9458 0.929 . S
C9456 C9455 1.363 . S
C9456 C9462 1.428 . S
H9457 C9453 0.930 . S
H9458 C9455 0.929 . S
S9459 N9460 1.613 . S
S9459 N9461 1.610 . S
N9460 S9459 1.613 . S
N9460 C9463 1.350 . S
N9461 S9459 1.610 . S
N9461 C9462 1.351 . S
C9462 C9456 1.428 . S
C9462 N9461 1.351 . S
C9462 C9463 1.434 . S
C9463 C9454 1.429 . S
C9463 N9460 1.350 . S
C9463 C9462 1.434 . S
C9464 C9465 1.369 . S
C9464 C9466 1.419 . S
C9464 H9468 0.930 . S
C9465 C9464 1.369 . S
C9465 C9474 1.429 . S
C9466 C9464 1.419 . S
C9466 C9467 1.363 . S
C9466 H9469 0.929 . S
C9467 C9466 1.363 . S
C9467 C9473 1.428 . S
H9468 C9464 0.930 . S
H9469 C9466 0.929 . S
S9470 N9471 1.613 . S
S9470 N9472 1.610 . S
N9471 S9470 1.613 . S
N9471 C9474 1.350 . S
N9472 S9470 1.610 . S
N9472 C9473 1.351 . S
C9473 C9467 1.428 . S
C9473 N9472 1.351 . S
C9473 C9474 1.434 . S
C9474 C9465 1.429 . S
C9474 N9471 1.350 . S
C9474 C9473 1.434 . S
C9475 C9476 1.369 . S
C9475 C9477 1.419 . S
C9475 H9479 0.930 . S
C9476 C9475 1.369 . S
C9476 C9485 1.429 . S
C9477 C9475 1.419 . S
C9477 C9478 1.363 . S
C9477 H9480 0.929 . S
C9478 C9477 1.363 . S
C9478 C9484 1.428 . S
H9479 C9475 0.930 . S
H9480 C9477 0.929 . S
S9481 N9482 1.613 . S
S9481 N9483 1.610 . S
N9482 S9481 1.613 . S
N9482 C9485 1.350 . S
N9483 S9481 1.610 . S
N9483 C9484 1.351 . S
C9484 C9478 1.428 . S
C9484 N9483 1.351 . S
C9484 C9485 1.434 . S
C9485 C9476 1.429 . S
C9485 N9482 1.350 . S
C9485 C9484 1.434 . S
C9486 C9487 1.369 . S
C9486 C9488 1.419 . S
C9486 H9490 0.930 . S
C9487 C9486 1.369 . S
C9487 C9496 1.429 . S
C9488 C9486 1.419 . S
C9488 C9489 1.363 . S
C9488 H9491 0.929 . S
C9489 C9488 1.363 . S
C9489 C9495 1.428 . S
H9490 C9486 0.930 . S
H9491 C9488 0.929 . S
S9492 N9493 1.613 . S
S9492 N9494 1.610 . S
N9493 S9492 1.613 . S
N9493 C9496 1.350 . S
N9494 S9492 1.610 . S
N9494 C9495 1.351 . S
C9495 C9489 1.428 . S
C9495 N9494 1.351 . S
C9495 C9496 1.434 . S
C9496 C9487 1.429 . S
C9496 N9493 1.350 . S
C9496 C9495 1.434 . S
C9497 C9498 1.369 . S
C9497 C9499 1.419 . S
C9497 H9501 0.930 . S
C9498 C9497 1.369 . S
C9498 C9507 1.429 . S
C9499 C9497 1.419 . S
C9499 C9500 1.363 . S
C9499 H9502 0.929 . S
C9500 C9499 1.363 . S
C9500 C9506 1.428 . S
H9501 C9497 0.930 . S
H9502 C9499 0.929 . S
S9503 N9504 1.613 . S
S9503 N9505 1.610 . S
N9504 S9503 1.613 . S
N9504 C9507 1.350 . S
N9505 S9503 1.610 . S
N9505 C9506 1.351 . S
C9506 C9500 1.428 . S
C9506 N9505 1.351 . S
C9506 C9507 1.434 . S
C9507 C9498 1.429 . S
C9507 N9504 1.350 . S
C9507 C9506 1.434 . S
C9508 C9509 1.369 . S
C9508 C9510 1.419 . S
C9508 H9512 0.930 . S
C9509 C9508 1.369 . S
C9509 C9518 1.429 . S
C9510 C9508 1.419 . S
C9510 C9511 1.363 . S
C9510 H9513 0.929 . S
C9511 C9510 1.363 . S
C9511 C9517 1.428 . S
H9512 C9508 0.930 . S
H9513 C9510 0.929 . S
S9514 N9515 1.613 . S
S9514 N9516 1.610 . S
N9515 S9514 1.613 . S
N9515 C9518 1.350 . S
N9516 S9514 1.610 . S
N9516 C9517 1.351 . S
C9517 C9511 1.428 . S
C9517 N9516 1.351 . S
C9517 C9518 1.434 . S
C9518 C9509 1.429 . S
C9518 N9515 1.350 . S
C9518 C9517 1.434 . S
C9519 C9520 1.369 . S
C9519 C9521 1.419 . S
C9519 H9523 0.930 . S
C9520 C9519 1.369 . S
C9520 C9529 1.429 . S
C9521 C9519 1.419 . S
C9521 C9522 1.363 . S
C9521 H9524 0.929 . S
C9522 C9521 1.363 . S
C9522 C9528 1.428 . S
H9523 C9519 0.930 . S
H9524 C9521 0.929 . S
S9525 N9526 1.613 . S
S9525 N9527 1.610 . S
N9526 S9525 1.613 . S
N9526 C9529 1.350 . S
N9527 S9525 1.610 . S
N9527 C9528 1.351 . S
C9528 C9522 1.428 . S
C9528 N9527 1.351 . S
C9528 C9529 1.434 . S
C9529 C9520 1.429 . S
C9529 N9526 1.350 . S
C9529 C9528 1.434 . S
C9530 C9531 1.369 . S
C9530 C9532 1.419 . S
C9530 H9534 0.930 . S
C9531 C9530 1.369 . S
C9531 C9540 1.429 . S
C9532 C9530 1.419 . S
C9532 C9533 1.363 . S
C9532 H9535 0.929 . S
C9533 C9532 1.363 . S
C9533 C9539 1.428 . S
H9534 C9530 0.930 . S
H9535 C9532 0.929 . S
S9536 N9537 1.613 . S
S9536 N9538 1.610 . S
N9537 S9536 1.613 . S
N9537 C9540 1.350 . S
N9538 S9536 1.610 . S
N9538 C9539 1.351 . S
C9539 C9533 1.428 . S
C9539 N9538 1.351 . S
C9539 C9540 1.434 . S
C9540 C9531 1.429 . S
C9540 N9537 1.350 . S
C9540 C9539 1.434 . S
C9541 C9542 1.369 . S
C9541 C9543 1.419 . S
C9541 H9545 0.930 . S
C9542 C9541 1.369 . S
C9542 C9551 1.429 . S
C9543 C9541 1.419 . S
C9543 C9544 1.363 . S
C9543 H9546 0.929 . S
C9544 C9543 1.363 . S
C9544 C9550 1.428 . S
H9545 C9541 0.930 . S
H9546 C9543 0.929 . S
S9547 N9548 1.613 . S
S9547 N9549 1.610 . S
N9548 S9547 1.613 . S
N9548 C9551 1.350 . S
N9549 S9547 1.610 . S
N9549 C9550 1.351 . S
C9550 C9544 1.428 . S
C9550 N9549 1.351 . S
C9550 C9551 1.434 . S
C9551 C9542 1.429 . S
C9551 N9548 1.350 . S
C9551 C9550 1.434 . S
C9552 C9553 1.369 . S
C9552 C9554 1.419 . S
C9552 H9556 0.930 . S
C9553 C9552 1.369 . S
C9553 C9562 1.429 . S
C9554 C9552 1.419 . S
C9554 C9555 1.363 . S
C9554 H9557 0.929 . S
C9555 C9554 1.363 . S
C9555 C9561 1.428 . S
H9556 C9552 0.930 . S
H9557 C9554 0.929 . S
S9558 N9559 1.613 . S
S9558 N9560 1.610 . S
N9559 S9558 1.613 . S
N9559 C9562 1.350 . S
N9560 S9558 1.610 . S
N9560 C9561 1.351 . S
C9561 C9555 1.428 . S
C9561 N9560 1.351 . S
C9561 C9562 1.434 . S
C9562 C9553 1.429 . S
C9562 N9559 1.350 . S
C9562 C9561 1.434 . S
C9563 C9564 1.369 . S
C9563 C9565 1.419 . S
C9563 H9567 0.930 . S
C9564 C9563 1.369 . S
C9564 C9573 1.429 . S
C9565 C9563 1.419 . S
C9565 C9566 1.363 . S
C9565 H9568 0.929 . S
C9566 C9565 1.363 . S
C9566 C9572 1.428 . S
H9567 C9563 0.930 . S
H9568 C9565 0.929 . S
S9569 N9570 1.613 . S
S9569 N9571 1.610 . S
N9570 S9569 1.613 . S
N9570 C9573 1.350 . S
N9571 S9569 1.610 . S
N9571 C9572 1.351 . S
C9572 C9566 1.428 . S
C9572 N9571 1.351 . S
C9572 C9573 1.434 . S
C9573 C9564 1.429 . S
C9573 N9570 1.350 . S
C9573 C9572 1.434 . S
C9574 C9575 1.369 . S
C9574 C9576 1.419 . S
C9574 H9578 0.930 . S
C9575 C9574 1.369 . S
C9575 C9584 1.429 . S
C9576 C9574 1.419 . S
C9576 C9577 1.363 . S
C9576 H9579 0.929 . S
C9577 C9576 1.363 . S
C9577 C9583 1.428 . S
H9578 C9574 0.930 . S
H9579 C9576 0.929 . S
S9580 N9581 1.613 . S
S9580 N9582 1.610 . S
N9581 S9580 1.613 . S
N9581 C9584 1.350 . S
N9582 S9580 1.610 . S
N9582 C9583 1.351 . S
C9583 C9577 1.428 . S
C9583 N9582 1.351 . S
C9583 C9584 1.434 . S
C9584 C9575 1.429 . S
C9584 N9581 1.350 . S
C9584 C9583 1.434 . S
C9585 C9586 1.369 . S
C9585 C9587 1.419 . S
C9585 H9589 0.930 . S
C9586 C9585 1.369 . S
C9586 C9595 1.429 . S
C9587 C9585 1.419 . S
C9587 C9588 1.363 . S
C9587 H9590 0.929 . S
C9588 C9587 1.363 . S
C9588 C9594 1.428 . S
H9589 C9585 0.930 . S
H9590 C9587 0.929 . S
S9591 N9592 1.613 . S
S9591 N9593 1.610 . S
N9592 S9591 1.613 . S
N9592 C9595 1.350 . S
N9593 S9591 1.610 . S
N9593 C9594 1.351 . S
C9594 C9588 1.428 . S
C9594 N9593 1.351 . S
C9594 C9595 1.434 . S
C9595 C9586 1.429 . S
C9595 N9592 1.350 . S
C9595 C9594 1.434 . S
C9596 C9597 1.369 . S
C9596 C9598 1.419 . S
C9596 H9600 0.930 . S
C9597 C9596 1.369 . S
C9597 C9606 1.429 . S
C9598 C9596 1.419 . S
C9598 C9599 1.363 . S
C9598 H9601 0.929 . S
C9599 C9598 1.363 . S
C9599 C9605 1.428 . S
H9600 C9596 0.930 . S
H9601 C9598 0.929 . S
S9602 N9603 1.613 . S
S9602 N9604 1.610 . S
N9603 S9602 1.613 . S
N9603 C9606 1.350 . S
N9604 S9602 1.610 . S
N9604 C9605 1.351 . S
C9605 C9599 1.428 . S
C9605 N9604 1.351 . S
C9605 C9606 1.434 . S
C9606 C9597 1.429 . S
C9606 N9603 1.350 . S
C9606 C9605 1.434 . S
C9607 C9608 1.369 . S
C9607 C9609 1.419 . S
C9607 H9611 0.930 . S
C9608 C9607 1.369 . S
C9608 C9617 1.429 . S
C9609 C9607 1.419 . S
C9609 C9610 1.363 . S
C9609 H9612 0.929 . S
C9610 C9609 1.363 . S
C9610 C9616 1.428 . S
H9611 C9607 0.930 . S
H9612 C9609 0.929 . S
S9613 N9614 1.613 . S
S9613 N9615 1.610 . S
N9614 S9613 1.613 . S
N9614 C9617 1.350 . S
N9615 S9613 1.610 . S
N9615 C9616 1.351 . S
C9616 C9610 1.428 . S
C9616 N9615 1.351 . S
C9616 C9617 1.434 . S
C9617 C9608 1.429 . S
C9617 N9614 1.350 . S
C9617 C9616 1.434 . S
C9618 C9619 1.369 . S
C9618 C9620 1.419 . S
C9618 H9622 0.930 . S
C9619 C9618 1.369 . S
C9619 C9628 1.429 . S
C9620 C9618 1.419 . S
C9620 C9621 1.363 . S
C9620 H9623 0.929 . S
C9621 C9620 1.363 . S
C9621 C9627 1.428 . S
H9622 C9618 0.930 . S
H9623 C9620 0.929 . S
S9624 N9625 1.613 . S
S9624 N9626 1.610 . S
N9625 S9624 1.613 . S
N9625 C9628 1.350 . S
N9626 S9624 1.610 . S
N9626 C9627 1.351 . S
C9627 C9621 1.428 . S
C9627 N9626 1.351 . S
C9627 C9628 1.434 . S
C9628 C9619 1.429 . S
C9628 N9625 1.350 . S
C9628 C9627 1.434 . S
C9629 C9630 1.369 . S
C9629 C9631 1.419 . S
C9629 H9633 0.930 . S
C9630 C9629 1.369 . S
C9630 C9639 1.429 . S
C9631 C9629 1.419 . S
C9631 C9632 1.363 . S
C9631 H9634 0.929 . S
C9632 C9631 1.363 . S
C9632 C9638 1.428 . S
H9633 C9629 0.930 . S
H9634 C9631 0.929 . S
S9635 N9636 1.613 . S
S9635 N9637 1.610 . S
N9636 S9635 1.613 . S
N9636 C9639 1.350 . S
N9637 S9635 1.610 . S
N9637 C9638 1.351 . S
C9638 C9632 1.428 . S
C9638 N9637 1.351 . S
C9638 C9639 1.434 . S
C9639 C9630 1.429 . S
C9639 N9636 1.350 . S
C9639 C9638 1.434 . S
C9640 C9641 1.369 . S
C9640 C9642 1.419 . S
C9640 H9644 0.930 . S
C9641 C9640 1.369 . S
C9641 C9650 1.429 . S
C9642 C9640 1.419 . S
C9642 C9643 1.363 . S
C9642 H9645 0.929 . S
C9643 C9642 1.363 . S
C9643 C9649 1.428 . S
H9644 C9640 0.930 . S
H9645 C9642 0.929 . S
S9646 N9647 1.613 . S
S9646 N9648 1.610 . S
N9647 S9646 1.613 . S
N9647 C9650 1.350 . S
N9648 S9646 1.610 . S
N9648 C9649 1.351 . S
C9649 C9643 1.428 . S
C9649 N9648 1.351 . S
C9649 C9650 1.434 . S
C9650 C9641 1.429 . S
C9650 N9647 1.350 . S
C9650 C9649 1.434 . S
C9651 C9652 1.369 . S
C9651 C9653 1.419 . S
C9651 H9655 0.930 . S
C9652 C9651 1.369 . S
C9652 C9661 1.429 . S
C9653 C9651 1.419 . S
C9653 C9654 1.363 . S
C9653 H9656 0.929 . S
C9654 C9653 1.363 . S
C9654 C9660 1.428 . S
H9655 C9651 0.930 . S
H9656 C9653 0.929 . S
S9657 N9658 1.613 . S
S9657 N9659 1.610 . S
N9658 S9657 1.613 . S
N9658 C9661 1.350 . S
N9659 S9657 1.610 . S
N9659 C9660 1.351 . S
C9660 C9654 1.428 . S
C9660 N9659 1.351 . S
C9660 C9661 1.434 . S
C9661 C9652 1.429 . S
C9661 N9658 1.350 . S
C9661 C9660 1.434 . S
C9662 C9663 1.369 . S
C9662 C9664 1.419 . S
C9662 H9666 0.930 . S
C9663 C9662 1.369 . S
C9663 C9672 1.429 . S
C9664 C9662 1.419 . S
C9664 C9665 1.363 . S
C9664 H9667 0.929 . S
C9665 C9664 1.363 . S
C9665 C9671 1.428 . S
H9666 C9662 0.930 . S
H9667 C9664 0.929 . S
S9668 N9669 1.613 . S
S9668 N9670 1.610 . S
N9669 S9668 1.613 . S
N9669 C9672 1.350 . S
N9670 S9668 1.610 . S
N9670 C9671 1.351 . S
C9671 C9665 1.428 . S
C9671 N9670 1.351 . S
C9671 C9672 1.434 . S
C9672 C9663 1.429 . S
C9672 N9669 1.350 . S
C9672 C9671 1.434 . S
C9673 C9674 1.369 . S
C9673 C9675 1.419 . S
C9673 H9677 0.930 . S
C9674 C9673 1.369 . S
C9674 C9683 1.429 . S
C9675 C9673 1.419 . S
C9675 C9676 1.363 . S
C9675 H9678 0.929 . S
C9676 C9675 1.363 . S
C9676 C9682 1.428 . S
H9677 C9673 0.930 . S
H9678 C9675 0.929 . S
S9679 N9680 1.613 . S
S9679 N9681 1.610 . S
N9680 S9679 1.613 . S
N9680 C9683 1.350 . S
N9681 S9679 1.610 . S
N9681 C9682 1.351 . S
C9682 C9676 1.428 . S
C9682 N9681 1.351 . S
C9682 C9683 1.434 . S
C9683 C9674 1.429 . S
C9683 N9680 1.350 . S
C9683 C9682 1.434 . S
C9684 C9685 1.369 . S
C9684 C9686 1.419 . S
C9684 H9688 0.930 . S
C9685 C9684 1.369 . S
C9685 C9694 1.429 . S
C9686 C9684 1.419 . S
C9686 C9687 1.363 . S
C9686 H9689 0.929 . S
C9687 C9686 1.363 . S
C9687 C9693 1.428 . S
H9688 C9684 0.930 . S
H9689 C9686 0.929 . S
S9690 N9691 1.613 . S
S9690 N9692 1.610 . S
N9691 S9690 1.613 . S
N9691 C9694 1.350 . S
N9692 S9690 1.610 . S
N9692 C9693 1.351 . S
C9693 C9687 1.428 . S
C9693 N9692 1.351 . S
C9693 C9694 1.434 . S
C9694 C9685 1.429 . S
C9694 N9691 1.350 . S
C9694 C9693 1.434 . S
C9695 C9696 1.369 . S
C9695 C9697 1.419 . S
C9695 H9699 0.930 . S
C9696 C9695 1.369 . S
C9696 C9705 1.429 . S
C9697 C9695 1.419 . S
C9697 C9698 1.363 . S
C9697 H9700 0.929 . S
C9698 C9697 1.363 . S
C9698 C9704 1.428 . S
H9699 C9695 0.930 . S
H9700 C9697 0.929 . S
S9701 N9702 1.613 . S
S9701 N9703 1.610 . S
N9702 S9701 1.613 . S
N9702 C9705 1.350 . S
N9703 S9701 1.610 . S
N9703 C9704 1.351 . S
C9704 C9698 1.428 . S
C9704 N9703 1.351 . S
C9704 C9705 1.434 . S
C9705 C9696 1.429 . S
C9705 N9702 1.350 . S
C9705 C9704 1.434 . S
C9706 C9707 1.369 . S
C9706 C9708 1.419 . S
C9706 H9710 0.930 . S
C9707 C9706 1.369 . S
C9707 C9716 1.429 . S
C9708 C9706 1.419 . S
C9708 C9709 1.363 . S
C9708 H9711 0.929 . S
C9709 C9708 1.363 . S
C9709 C9715 1.428 . S
H9710 C9706 0.930 . S
H9711 C9708 0.929 . S
S9712 N9713 1.613 . S
S9712 N9714 1.610 . S
N9713 S9712 1.613 . S
N9713 C9716 1.350 . S
N9714 S9712 1.610 . S
N9714 C9715 1.351 . S
C9715 C9709 1.428 . S
C9715 N9714 1.351 . S
C9715 C9716 1.434 . S
C9716 C9707 1.429 . S
C9716 N9713 1.350 . S
C9716 C9715 1.434 . S
C9717 C9718 1.369 . S
C9717 C9719 1.419 . S
C9717 H9721 0.930 . S
C9718 C9717 1.369 . S
C9718 C9727 1.429 . S
C9719 C9717 1.419 . S
C9719 C9720 1.363 . S
C9719 H9722 0.929 . S
C9720 C9719 1.363 . S
C9720 C9726 1.428 . S
H9721 C9717 0.930 . S
H9722 C9719 0.929 . S
S9723 N9724 1.613 . S
S9723 N9725 1.610 . S
N9724 S9723 1.613 . S
N9724 C9727 1.350 . S
N9725 S9723 1.610 . S
N9725 C9726 1.351 . S
C9726 C9720 1.428 . S
C9726 N9725 1.351 . S
C9726 C9727 1.434 . S
C9727 C9718 1.429 . S
C9727 N9724 1.350 . S
C9727 C9726 1.434 . S
C9728 C9729 1.369 . S
C9728 C9730 1.419 . S
C9728 H9732 0.930 . S
C9729 C9728 1.369 . S
C9729 C9738 1.429 . S
C9730 C9728 1.419 . S
C9730 C9731 1.363 . S
C9730 H9733 0.929 . S
C9731 C9730 1.363 . S
C9731 C9737 1.428 . S
H9732 C9728 0.930 . S
H9733 C9730 0.929 . S
S9734 N9735 1.613 . S
S9734 N9736 1.610 . S
N9735 S9734 1.613 . S
N9735 C9738 1.350 . S
N9736 S9734 1.610 . S
N9736 C9737 1.351 . S
C9737 C9731 1.428 . S
C9737 N9736 1.351 . S
C9737 C9738 1.434 . S
C9738 C9729 1.429 . S
C9738 N9735 1.350 . S
C9738 C9737 1.434 . S
C9739 C9740 1.369 . S
C9739 C9741 1.419 . S
C9739 H9743 0.930 . S
C9740 C9739 1.369 . S
C9740 C9749 1.429 . S
C9741 C9739 1.419 . S
C9741 C9742 1.363 . S
C9741 H9744 0.929 . S
C9742 C9741 1.363 . S
C9742 C9748 1.428 . S
H9743 C9739 0.930 . S
H9744 C9741 0.929 . S
S9745 N9746 1.613 . S
S9745 N9747 1.610 . S
N9746 S9745 1.613 . S
N9746 C9749 1.350 . S
N9747 S9745 1.610 . S
N9747 C9748 1.351 . S
C9748 C9742 1.428 . S
C9748 N9747 1.351 . S
C9748 C9749 1.434 . S
C9749 C9740 1.429 . S
C9749 N9746 1.350 . S
C9749 C9748 1.434 . S
C9750 C9751 1.369 . S
C9750 C9752 1.419 . S
C9750 H9754 0.930 . S
C9751 C9750 1.369 . S
C9751 C9760 1.429 . S
C9752 C9750 1.419 . S
C9752 C9753 1.363 . S
C9752 H9755 0.929 . S
C9753 C9752 1.363 . S
C9753 C9759 1.428 . S
H9754 C9750 0.930 . S
H9755 C9752 0.929 . S
S9756 N9757 1.613 . S
S9756 N9758 1.610 . S
N9757 S9756 1.613 . S
N9757 C9760 1.350 . S
N9758 S9756 1.610 . S
N9758 C9759 1.351 . S
C9759 C9753 1.428 . S
C9759 N9758 1.351 . S
C9759 C9760 1.434 . S
C9760 C9751 1.429 . S
C9760 N9757 1.350 . S
C9760 C9759 1.434 . S
C9761 C9762 1.369 . S
C9761 C9763 1.419 . S
C9761 H9765 0.930 . S
C9762 C9761 1.369 . S
C9762 C9771 1.429 . S
C9763 C9761 1.419 . S
C9763 C9764 1.363 . S
C9763 H9766 0.929 . S
C9764 C9763 1.363 . S
C9764 C9770 1.428 . S
H9765 C9761 0.930 . S
H9766 C9763 0.929 . S
S9767 N9768 1.613 . S
S9767 N9769 1.610 . S
N9768 S9767 1.613 . S
N9768 C9771 1.350 . S
N9769 S9767 1.610 . S
N9769 C9770 1.351 . S
C9770 C9764 1.428 . S
C9770 N9769 1.351 . S
C9770 C9771 1.434 . S
C9771 C9762 1.429 . S
C9771 N9768 1.350 . S
C9771 C9770 1.434 . S
C9772 C9773 1.369 . S
C9772 C9774 1.419 . S
C9772 H9776 0.930 . S
C9773 C9772 1.369 . S
C9773 C9782 1.429 . S
C9774 C9772 1.419 . S
C9774 C9775 1.363 . S
C9774 H9777 0.929 . S
C9775 C9774 1.363 . S
C9775 C9781 1.428 . S
H9776 C9772 0.930 . S
H9777 C9774 0.929 . S
S9778 N9779 1.613 . S
S9778 N9780 1.610 . S
N9779 S9778 1.613 . S
N9779 C9782 1.350 . S
N9780 S9778 1.610 . S
N9780 C9781 1.351 . S
C9781 C9775 1.428 . S
C9781 N9780 1.351 . S
C9781 C9782 1.434 . S
C9782 C9773 1.429 . S
C9782 N9779 1.350 . S
C9782 C9781 1.434 . S
C9783 C9784 1.369 . S
C9783 C9785 1.419 . S
C9783 H9787 0.930 . S
C9784 C9783 1.369 . S
C9784 C9793 1.429 . S
C9785 C9783 1.419 . S
C9785 C9786 1.363 . S
C9785 H9788 0.929 . S
C9786 C9785 1.363 . S
C9786 C9792 1.428 . S
H9787 C9783 0.930 . S
H9788 C9785 0.929 . S
S9789 N9790 1.613 . S
S9789 N9791 1.610 . S
N9790 S9789 1.613 . S
N9790 C9793 1.350 . S
N9791 S9789 1.610 . S
N9791 C9792 1.351 . S
C9792 C9786 1.428 . S
C9792 N9791 1.351 . S
C9792 C9793 1.434 . S
C9793 C9784 1.429 . S
C9793 N9790 1.350 . S
C9793 C9792 1.434 . S
C9794 C9795 1.369 . S
C9794 C9796 1.419 . S
C9794 H9798 0.930 . S
C9795 C9794 1.369 . S
C9795 C9804 1.429 . S
C9796 C9794 1.419 . S
C9796 C9797 1.363 . S
C9796 H9799 0.929 . S
C9797 C9796 1.363 . S
C9797 C9803 1.428 . S
H9798 C9794 0.930 . S
H9799 C9796 0.929 . S
S9800 N9801 1.613 . S
S9800 N9802 1.610 . S
N9801 S9800 1.613 . S
N9801 C9804 1.350 . S
N9802 S9800 1.610 . S
N9802 C9803 1.351 . S
C9803 C9797 1.428 . S
C9803 N9802 1.351 . S
C9803 C9804 1.434 . S
C9804 C9795 1.429 . S
C9804 N9801 1.350 . S
C9804 C9803 1.434 . S
C9805 C9806 1.369 . S
C9805 C9807 1.419 . S
C9805 H9809 0.930 . S
C9806 C9805 1.369 . S
C9806 C9815 1.429 . S
C9807 C9805 1.419 . S
C9807 C9808 1.363 . S
C9807 H9810 0.929 . S
C9808 C9807 1.363 . S
C9808 C9814 1.428 . S
H9809 C9805 0.930 . S
H9810 C9807 0.929 . S
S9811 N9812 1.613 . S
S9811 N9813 1.610 . S
N9812 S9811 1.613 . S
N9812 C9815 1.350 . S
N9813 S9811 1.610 . S
N9813 C9814 1.351 . S
C9814 C9808 1.428 . S
C9814 N9813 1.351 . S
C9814 C9815 1.434 . S
C9815 C9806 1.429 . S
C9815 N9812 1.350 . S
C9815 C9814 1.434 . S
C9816 C9817 1.369 . S
C9816 C9818 1.419 . S
C9816 H9820 0.930 . S
C9817 C9816 1.369 . S
C9817 C9826 1.429 . S
C9818 C9816 1.419 . S
C9818 C9819 1.363 . S
C9818 H9821 0.929 . S
C9819 C9818 1.363 . S
C9819 C9825 1.428 . S
H9820 C9816 0.930 . S
H9821 C9818 0.929 . S
S9822 N9823 1.613 . S
S9822 N9824 1.610 . S
N9823 S9822 1.613 . S
N9823 C9826 1.350 . S
N9824 S9822 1.610 . S
N9824 C9825 1.351 . S
C9825 C9819 1.428 . S
C9825 N9824 1.351 . S
C9825 C9826 1.434 . S
C9826 C9817 1.429 . S
C9826 N9823 1.350 . S
C9826 C9825 1.434 . S
C9827 C9828 1.369 . S
C9827 C9829 1.419 . S
C9827 H9831 0.930 . S
C9828 C9827 1.369 . S
C9828 C9837 1.429 . S
C9829 C9827 1.419 . S
C9829 C9830 1.363 . S
C9829 H9832 0.929 . S
C9830 C9829 1.363 . S
C9830 C9836 1.428 . S
H9831 C9827 0.930 . S
H9832 C9829 0.929 . S
S9833 N9834 1.613 . S
S9833 N9835 1.610 . S
N9834 S9833 1.613 . S
N9834 C9837 1.350 . S
N9835 S9833 1.610 . S
N9835 C9836 1.351 . S
C9836 C9830 1.428 . S
C9836 N9835 1.351 . S
C9836 C9837 1.434 . S
C9837 C9828 1.429 . S
C9837 N9834 1.350 . S
C9837 C9836 1.434 . S
C9838 C9839 1.369 . S
C9838 C9840 1.419 . S
C9838 H9842 0.930 . S
C9839 C9838 1.369 . S
C9839 C9848 1.429 . S
C9840 C9838 1.419 . S
C9840 C9841 1.363 . S
C9840 H9843 0.929 . S
C9841 C9840 1.363 . S
C9841 C9847 1.428 . S
H9842 C9838 0.930 . S
H9843 C9840 0.929 . S
S9844 N9845 1.613 . S
S9844 N9846 1.610 . S
N9845 S9844 1.613 . S
N9845 C9848 1.350 . S
N9846 S9844 1.610 . S
N9846 C9847 1.351 . S
C9847 C9841 1.428 . S
C9847 N9846 1.351 . S
C9847 C9848 1.434 . S
C9848 C9839 1.429 . S
C9848 N9845 1.350 . S
C9848 C9847 1.434 . S
C9849 C9850 1.369 . S
C9849 C9851 1.419 . S
C9849 H9853 0.930 . S
C9850 C9849 1.369 . S
C9850 C9859 1.429 . S
C9851 C9849 1.419 . S
C9851 C9852 1.363 . S
C9851 H9854 0.929 . S
C9852 C9851 1.363 . S
C9852 C9858 1.428 . S
H9853 C9849 0.930 . S
H9854 C9851 0.929 . S
S9855 N9856 1.613 . S
S9855 N9857 1.610 . S
N9856 S9855 1.613 . S
N9856 C9859 1.350 . S
N9857 S9855 1.610 . S
N9857 C9858 1.351 . S
C9858 C9852 1.428 . S
C9858 N9857 1.351 . S
C9858 C9859 1.434 . S
C9859 C9850 1.429 . S
C9859 N9856 1.350 . S
C9859 C9858 1.434 . S
C9860 C9861 1.369 . S
C9860 C9862 1.419 . S
C9860 H9864 0.930 . S
C9861 C9860 1.369 . S
C9861 C9870 1.429 . S
C9862 C9860 1.419 . S
C9862 C9863 1.363 . S
C9862 H9865 0.929 . S
C9863 C9862 1.363 . S
C9863 C9869 1.428 . S
H9864 C9860 0.930 . S
H9865 C9862 0.929 . S
S9866 N9867 1.613 . S
S9866 N9868 1.610 . S
N9867 S9866 1.613 . S
N9867 C9870 1.350 . S
N9868 S9866 1.610 . S
N9868 C9869 1.351 . S
C9869 C9863 1.428 . S
C9869 N9868 1.351 . S
C9869 C9870 1.434 . S
C9870 C9861 1.429 . S
C9870 N9867 1.350 . S
C9870 C9869 1.434 . S
C9871 C9872 1.369 . S
C9871 C9873 1.419 . S
C9871 H9875 0.930 . S
C9872 C9871 1.369 . S
C9872 C9881 1.429 . S
C9873 C9871 1.419 . S
C9873 C9874 1.363 . S
C9873 H9876 0.929 . S
C9874 C9873 1.363 . S
C9874 C9880 1.428 . S
H9875 C9871 0.930 . S
H9876 C9873 0.929 . S
S9877 N9878 1.613 . S
S9877 N9879 1.610 . S
N9878 S9877 1.613 . S
N9878 C9881 1.350 . S
N9879 S9877 1.610 . S
N9879 C9880 1.351 . S
C9880 C9874 1.428 . S
C9880 N9879 1.351 . S
C9880 C9881 1.434 . S
C9881 C9872 1.429 . S
C9881 N9878 1.350 . S
C9881 C9880 1.434 . S
C9882 C9883 1.369 . S
C9882 C9884 1.419 . S
C9882 H9886 0.930 . S
C9883 C9882 1.369 . S
C9883 C9892 1.429 . S
C9884 C9882 1.419 . S
C9884 C9885 1.363 . S
C9884 H9887 0.929 . S
C9885 C9884 1.363 . S
C9885 C9891 1.428 . S
H9886 C9882 0.930 . S
H9887 C9884 0.929 . S
S9888 N9889 1.613 . S
S9888 N9890 1.610 . S
N9889 S9888 1.613 . S
N9889 C9892 1.350 . S
N9890 S9888 1.610 . S
N9890 C9891 1.351 . S
C9891 C9885 1.428 . S
C9891 N9890 1.351 . S
C9891 C9892 1.434 . S
C9892 C9883 1.429 . S
C9892 N9889 1.350 . S
C9892 C9891 1.434 . S
C9893 C9894 1.369 . S
C9893 C9895 1.419 . S
C9893 H9897 0.930 . S
C9894 C9893 1.369 . S
C9894 C9903 1.429 . S
C9895 C9893 1.419 . S
C9895 C9896 1.363 . S
C9895 H9898 0.929 . S
C9896 C9895 1.363 . S
C9896 C9902 1.428 . S
H9897 C9893 0.930 . S
H9898 C9895 0.929 . S
S9899 N9900 1.613 . S
S9899 N9901 1.610 . S
N9900 S9899 1.613 . S
N9900 C9903 1.350 . S
N9901 S9899 1.610 . S
N9901 C9902 1.351 . S
C9902 C9896 1.428 . S
C9902 N9901 1.351 . S
C9902 C9903 1.434 . S
C9903 C9894 1.429 . S
C9903 N9900 1.350 . S
C9903 C9902 1.434 . S
C9904 C9905 1.369 . S
C9904 C9906 1.419 . S
C9904 H9908 0.930 . S
C9905 C9904 1.369 . S
C9905 C9914 1.429 . S
C9906 C9904 1.419 . S
C9906 C9907 1.363 . S
C9906 H9909 0.929 . S
C9907 C9906 1.363 . S
C9907 C9913 1.428 . S
H9908 C9904 0.930 . S
H9909 C9906 0.929 . S
S9910 N9911 1.613 . S
S9910 N9912 1.610 . S
N9911 S9910 1.613 . S
N9911 C9914 1.350 . S
N9912 S9910 1.610 . S
N9912 C9913 1.351 . S
C9913 C9907 1.428 . S
C9913 N9912 1.351 . S
C9913 C9914 1.434 . S
C9914 C9905 1.429 . S
C9914 N9911 1.350 . S
C9914 C9913 1.434 . S
C9915 C9916 1.369 . S
C9915 C9917 1.419 . S
C9915 H9919 0.930 . S
C9916 C9915 1.369 . S
C9916 C9925 1.429 . S
C9917 C9915 1.419 . S
C9917 C9918 1.363 . S
C9917 H9920 0.929 . S
C9918 C9917 1.363 . S
C9918 C9924 1.428 . S
H9919 C9915 0.930 . S
H9920 C9917 0.929 . S
S9921 N9922 1.613 . S
S9921 N9923 1.610 . S
N9922 S9921 1.613 . S
N9922 C9925 1.350 . S
N9923 S9921 1.610 . S
N9923 C9924 1.351 . S
C9924 C9918 1.428 . S
C9924 N9923 1.351 . S
C9924 C9925 1.434 . S
C9925 C9916 1.429 . S
C9925 N9922 1.350 . S
C9925 C9924 1.434 . S
C9926 C9927 1.369 . S
C9926 C9928 1.419 . S
C9926 H9930 0.930 . S
C9927 C9926 1.369 . S
C9927 C9936 1.429 . S
C9928 C9926 1.419 . S
C9928 C9929 1.363 . S
C9928 H9931 0.929 . S
C9929 C9928 1.363 . S
C9929 C9935 1.428 . S
H9930 C9926 0.930 . S
H9931 C9928 0.929 . S
S9932 N9933 1.613 . S
S9932 N9934 1.610 . S
N9933 S9932 1.613 . S
N9933 C9936 1.350 . S
N9934 S9932 1.610 . S
N9934 C9935 1.351 . S
C9935 C9929 1.428 . S
C9935 N9934 1.351 . S
C9935 C9936 1.434 . S
C9936 C9927 1.429 . S
C9936 N9933 1.350 . S
C9936 C9935 1.434 . S
C9937 C9938 1.369 . S
C9937 C9939 1.419 . S
C9937 H9941 0.930 . S
C9938 C9937 1.369 . S
C9938 C9947 1.429 . S
C9939 C9937 1.419 . S
C9939 C9940 1.363 . S
C9939 H9942 0.929 . S
C9940 C9939 1.363 . S
C9940 C9946 1.428 . S
H9941 C9937 0.930 . S
H9942 C9939 0.929 . S
S9943 N9944 1.613 . S
S9943 N9945 1.610 . S
N9944 S9943 1.613 . S
N9944 C9947 1.350 . S
N9945 S9943 1.610 . S
N9945 C9946 1.351 . S
C9946 C9940 1.428 . S
C9946 N9945 1.351 . S
C9946 C9947 1.434 . S
C9947 C9938 1.429 . S
C9947 N9944 1.350 . S
C9947 C9946 1.434 . S
C9948 C9949 1.369 . S
C9948 C9950 1.419 . S
C9948 H9952 0.930 . S
C9949 C9948 1.369 . S
C9949 C9958 1.429 . S
C9950 C9948 1.419 . S
C9950 C9951 1.363 . S
C9950 H9953 0.929 . S
C9951 C9950 1.363 . S
C9951 C9957 1.428 . S
H9952 C9948 0.930 . S
H9953 C9950 0.929 . S
S9954 N9955 1.613 . S
S9954 N9956 1.610 . S
N9955 S9954 1.613 . S
N9955 C9958 1.350 . S
N9956 S9954 1.610 . S
N9956 C9957 1.351 . S
C9957 C9951 1.428 . S
C9957 N9956 1.351 . S
C9957 C9958 1.434 . S
C9958 C9949 1.429 . S
C9958 N9955 1.350 . S
C9958 C9957 1.434 . S
C9959 C9960 1.369 . S
C9959 C9961 1.419 . S
C9959 H9963 0.930 . S
C9960 C9959 1.369 . S
C9960 C9969 1.429 . S
C9961 C9959 1.419 . S
C9961 C9962 1.363 . S
C9961 H9964 0.929 . S
C9962 C9961 1.363 . S
C9962 C9968 1.428 . S
H9963 C9959 0.930 . S
H9964 C9961 0.929 . S
S9965 N9966 1.613 . S
S9965 N9967 1.610 . S
N9966 S9965 1.613 . S
N9966 C9969 1.350 . S
N9967 S9965 1.610 . S
N9967 C9968 1.351 . S
C9968 C9962 1.428 . S
C9968 N9967 1.351 . S
C9968 C9969 1.434 . S
C9969 C9960 1.429 . S
C9969 N9966 1.350 . S
C9969 C9968 1.434 . S
C9970 C9971 1.369 . S
C9970 C9972 1.419 . S
C9970 H9974 0.930 . S
C9971 C9970 1.369 . S
C9971 C9980 1.429 . S
C9972 C9970 1.419 . S
C9972 C9973 1.363 . S
C9972 H9975 0.929 . S
C9973 C9972 1.363 . S
C9973 C9979 1.428 . S
H9974 C9970 0.930 . S
H9975 C9972 0.929 . S
S9976 N9977 1.613 . S
S9976 N9978 1.610 . S
N9977 S9976 1.613 . S
N9977 C9980 1.350 . S
N9978 S9976 1.610 . S
N9978 C9979 1.351 . S
C9979 C9973 1.428 . S
C9979 N9978 1.351 . S
C9979 C9980 1.434 . S
C9980 C9971 1.429 . S
C9980 N9977 1.350 . S
C9980 C9979 1.434 . S
C9981 C9982 1.369 . S
C9981 C9983 1.419 . S
C9981 H9985 0.930 . S
C9982 C9981 1.369 . S
C9982 C9991 1.429 . S
C9983 C9981 1.419 . S
C9983 C9984 1.363 . S
C9983 H9986 0.929 . S
C9984 C9983 1.363 . S
C9984 C9990 1.428 . S
H9985 C9981 0.930 . S
H9986 C9983 0.929 . S
S9987 N9988 1.613 . S
S9987 N9989 1.610 . S
N9988 S9987 1.613 . S
N9988 C9991 1.350 . S
N9989 S9987 1.610 . S
N9989 C9990 1.351 . S
C9990 C9984 1.428 . S
C9990 N9989 1.351 . S
C9990 C9991 1.434 . S
C9991 C9982 1.429 . S
C9991 N9988 1.350 . S
C9991 C9990 1.434 . S
C9992 C9993 1.369 . S
C9992 C9994 1.419 . S
C9992 H9996 0.930 . S
C9993 C9992 1.369 . S
C9993 C10002 1.429 . S
C9994 C9992 1.419 . S
C9994 C9995 1.363 . S
C9994 H9997 0.929 . S
C9995 C9994 1.363 . S
C9995 C10001 1.428 . S
H9996 C9992 0.930 . S
H9997 C9994 0.929 . S
S9998 N9999 1.613 . S
S9998 N10000 1.610 . S
N9999 S9998 1.613 . S
N9999 C10002 1.350 . S
N10000 S9998 1.610 . S
N10000 C10001 1.351 . S
C10001 C9995 1.428 . S
C10001 N10000 1.351 . S
C10001 C10002 1.434 . S
C10002 C9993 1.429 . S
C10002 N9999 1.350 . S
C10002 C10001 1.434 . S
C10003 C10004 1.369 . S
C10003 C10005 1.419 . S
C10003 H10007 0.930 . S
C10004 C10003 1.369 . S
C10004 C10013 1.429 . S
C10005 C10003 1.419 . S
C10005 C10006 1.363 . S
C10005 H10008 0.929 . S
C10006 C10005 1.363 . S
C10006 C10012 1.428 . S
H10007 C10003 0.930 . S
H10008 C10005 0.929 . S
S10009 N10010 1.613 . S
S10009 N10011 1.610 . S
N10010 S10009 1.613 . S
N10010 C10013 1.350 . S
N10011 S10009 1.610 . S
N10011 C10012 1.351 . S
C10012 C10006 1.428 . S
C10012 N10011 1.351 . S
C10012 C10013 1.434 . S
C10013 C10004 1.429 . S
C10013 N10010 1.350 . S
C10013 C10012 1.434 . S
C10014 C10015 1.369 . S
C10014 C10016 1.419 . S
C10014 H10018 0.930 . S
C10015 C10014 1.369 . S
C10015 C10024 1.429 . S
C10016 C10014 1.419 . S
C10016 C10017 1.363 . S
C10016 H10019 0.929 . S
C10017 C10016 1.363 . S
C10017 C10023 1.428 . S
H10018 C10014 0.930 . S
H10019 C10016 0.929 . S
S10020 N10021 1.613 . S
S10020 N10022 1.610 . S
N10021 S10020 1.613 . S
N10021 C10024 1.350 . S
N10022 S10020 1.610 . S
N10022 C10023 1.351 . S
C10023 C10017 1.428 . S
C10023 N10022 1.351 . S
C10023 C10024 1.434 . S
C10024 C10015 1.429 . S
C10024 N10021 1.350 . S
C10024 C10023 1.434 . S
C10025 C10026 1.369 . S
C10025 C10027 1.419 . S
C10025 H10029 0.930 . S
C10026 C10025 1.369 . S
C10026 C10035 1.429 . S
C10027 C10025 1.419 . S
C10027 C10028 1.363 . S
C10027 H10030 0.929 . S
C10028 C10027 1.363 . S
C10028 C10034 1.428 . S
H10029 C10025 0.930 . S
H10030 C10027 0.929 . S
S10031 N10032 1.613 . S
S10031 N10033 1.610 . S
N10032 S10031 1.613 . S
N10032 C10035 1.350 . S
N10033 S10031 1.610 . S
N10033 C10034 1.351 . S
C10034 C10028 1.428 . S
C10034 N10033 1.351 . S
C10034 C10035 1.434 . S
C10035 C10026 1.429 . S
C10035 N10032 1.350 . S
C10035 C10034 1.434 . S
C10036 C10037 1.369 . S
C10036 C10038 1.419 . S
C10036 H10040 0.930 . S
C10037 C10036 1.369 . S
C10037 C10046 1.429 . S
C10038 C10036 1.419 . S
C10038 C10039 1.363 . S
C10038 H10041 0.929 . S
C10039 C10038 1.363 . S
C10039 C10045 1.428 . S
H10040 C10036 0.930 . S
H10041 C10038 0.929 . S
S10042 N10043 1.613 . S
S10042 N10044 1.610 . S
N10043 S10042 1.613 . S
N10043 C10046 1.350 . S
N10044 S10042 1.610 . S
N10044 C10045 1.351 . S
C10045 C10039 1.428 . S
C10045 N10044 1.351 . S
C10045 C10046 1.434 . S
C10046 C10037 1.429 . S
C10046 N10043 1.350 . S
C10046 C10045 1.434 . S
C10047 C10048 1.369 . S
C10047 C10049 1.419 . S
C10047 H10051 0.930 . S
C10048 C10047 1.369 . S
C10048 C10057 1.429 . S
C10049 C10047 1.419 . S
C10049 C10050 1.363 . S
C10049 H10052 0.929 . S
C10050 C10049 1.363 . S
C10050 C10056 1.428 . S
H10051 C10047 0.930 . S
H10052 C10049 0.929 . S
S10053 N10054 1.613 . S
S10053 N10055 1.610 . S
N10054 S10053 1.613 . S
N10054 C10057 1.350 . S
N10055 S10053 1.610 . S
N10055 C10056 1.351 . S
C10056 C10050 1.428 . S
C10056 N10055 1.351 . S
C10056 C10057 1.434 . S
C10057 C10048 1.429 . S
C10057 N10054 1.350 . S
C10057 C10056 1.434 . S
C10058 C10059 1.369 . S
C10058 C10060 1.419 . S
C10058 H10062 0.930 . S
C10059 C10058 1.369 . S
C10059 C10068 1.429 . S
C10060 C10058 1.419 . S
C10060 C10061 1.363 . S
C10060 H10063 0.929 . S
C10061 C10060 1.363 . S
C10061 C10067 1.428 . S
H10062 C10058 0.930 . S
H10063 C10060 0.929 . S
S10064 N10065 1.613 . S
S10064 N10066 1.610 . S
N10065 S10064 1.613 . S
N10065 C10068 1.350 . S
N10066 S10064 1.610 . S
N10066 C10067 1.351 . S
C10067 C10061 1.428 . S
C10067 N10066 1.351 . S
C10067 C10068 1.434 . S
C10068 C10059 1.429 . S
C10068 N10065 1.350 . S
C10068 C10067 1.434 . S
C10069 C10070 1.369 . S
C10069 C10071 1.419 . S
C10069 H10073 0.930 . S
C10070 C10069 1.369 . S
C10070 C10079 1.429 . S
C10071 C10069 1.419 . S
C10071 C10072 1.363 . S
C10071 H10074 0.929 . S
C10072 C10071 1.363 . S
C10072 C10078 1.428 . S
H10073 C10069 0.930 . S
H10074 C10071 0.929 . S
S10075 N10076 1.613 . S
S10075 N10077 1.610 . S
N10076 S10075 1.613 . S
N10076 C10079 1.350 . S
N10077 S10075 1.610 . S
N10077 C10078 1.351 . S
C10078 C10072 1.428 . S
C10078 N10077 1.351 . S
C10078 C10079 1.434 . S
C10079 C10070 1.429 . S
C10079 N10076 1.350 . S
C10079 C10078 1.434 . S
C6915 C4663 1.920 . S
C6913 C15 1.839 1_655 S
C6926 C6231 2.221 . S
C6924 C55 2.126 . S
C6937 C4727 1.918 . S
C6935 C95 1.843 . S
C6948 C6167 2.219 . S
C6946 C135 2.130 . S
C6959 C4855 1.919 . S
C6957 C175 1.840 1_655 S
C6968 C215 2.131 . S
C6970 C6295 2.219 . S
C6981 C4791 1.920 . S
C6979 C255 1.837 . S
C6992 C6359 2.219 . S
C6990 C295 2.131 . S
C7003 C6871 1.921 . S
C7001 C335 1.835 1_565 S
C7012 C375 2.123 . S
C7014 C6679 2.223 . S
C7025 C6903 1.918 . S
C7023 C415 1.843 1_545 S
C7034 C455 2.123 . S
C7036 C6839 2.223 . S
C7047 C6743 1.919 . S
C7045 C495 1.842 1_545 S
C7058 C5239 2.223 . S
C7056 C535 2.124 . S
C7069 C5271 1.920 . S
C7067 C575 1.838 1_565 S
C7078 C615 2.125 . S
C7080 C5175 2.222 . S
C7089 C655 1.834 1_556 S
C7091 C6583 1.921 . S
C7102 C4983 1.918 . S
C7100 C695 1.843 1_554 S
C7113 C6423 2.219 . S
C7111 C735 2.130 . S
C7124 C4919 1.921 . S
C7122 C775 1.834 . S
C7133 C815 2.123 . S
C7135 C4951 2.223 . S
C7146 C6647 1.920 . S
C7144 C855 1.837 . S
C7157 C6551 2.219 . S
C7155 C895 2.130 . S
C7166 C935 2.130 . S
C7168 C6615 2.219 . S
C7177 C975 1.848 1_455 S
C7179 C3895 1.818 . S
C7188 C1015 2.108 . S
C7190 C5463 1.904 . S
C7201 C3959 1.811 . S
C7199 C1055 1.851 . S
C7210 C1095 2.111 . S
C7212 C5399 1.900 . S
C7223 C4087 1.818 . S
C7221 C1135 1.849 1_455 S
C7232 C1175 2.109 . S
C7234 C5527 1.900 . S
C7245 C4023 1.814 . S
C7243 C1215 1.845 . S
C7256 C5591 1.897 . S
C7254 C1255 2.113 . S
C7265 C1295 1.853 1_545 S
C7267 C6103 1.817 . S
C7278 C5911 1.907 . S
C7276 C1335 2.104 . S
C7287 C1375 1.853 1_565 S
C7289 C6135 1.813 . S
C7300 C6071 1.906 . S
C7298 C1415 2.105 . S
C7311 C5975 1.814 . S
C7309 C1455 1.846 1_565 S
C7320 C1495 2.113 . S
C7322 C4471 1.897 . S
C7331 C1535 1.846 1_545 S
C7333 C4503 1.812 . S
C7344 C4407 1.906 . S
C7342 C1575 2.104 . S
C7353 C1615 1.851 1_554 S
C7355 C5815 1.811 . S
C7366 C4215 1.813 . S
C7364 C1655 1.854 1_556 S
C7375 C1695 2.107 . S
C7377 C5655 1.904 . S
C7388 C4151 1.816 . S
C7386 C1735 1.852 . S
C7397 C1775 2.105 . S
C7399 C4183 1.904 . S
C7410 C5879 1.818 . S
C7408 C1815 1.847 . S
C7421 C5783 1.896 . S
C7419 C1855 2.113 . S
C7432 C5847 1.906 . S
C7430 C1895 2.105 . S
C7441 C1935 1.842 . S
C7443 C6199 1.918 . S
C7454 C4695 2.221 . S
C7452 C1975 2.125 . S
C7465 C6263 1.919 . S
C7463 C2015 1.842 1_455 S
C7476 C4631 2.218 . S
C7474 C2055 2.131 . S
C7485 C2095 1.840 . S
C7487 C6391 1.919 . S
C7498 C4759 2.222 . S
C7496 C2135 2.124 . S
C7509 C6327 1.921 . S
C7507 C2175 1.836 1_455 S
C7520 C4823 2.224 . S
C7518 C2215 2.122 . S
C7529 C2255 1.841 . S
C7531 C5335 1.918 . S
C7542 C5143 2.223 . S
C7540 C2295 2.123 . S
C7553 C5367 1.919 . S
C7551 C2335 1.841 . S
C7562 C2375 2.130 . S
C7564 C5303 2.219 . S
C7573 C2415 1.837 . S
C7575 C5207 1.920 . S
C7584 C2455 2.130 . S
C7586 C6775 2.219 . S
C7595 C2495 1.841 . S
C7597 C6807 1.919 . S
C7608 C6711 2.222 . S
C7606 C2535 2.125 . S
C7617 C2575 1.843 . S
C7619 C5047 1.918 . S
C7630 C6519 1.919 . S
C7628 C2615 1.842 . S
C7641 C4887 2.223 . S
C7639 C2655 2.122 . S
C7652 C6455 1.919 . S
C7650 C2695 1.843 1_554 S
C7661 C2735 2.124 . S
C7663 C6487 2.222 . S
C7672 C2775 1.843 1_556 S
C7674 C5111 1.918 . S
C7685 C5015 2.222 . S
C7683 C2815 2.124 . S
C7694 C2855 2.122 . S
C7696 C5079 2.224 . S
C7705 C2895 1.846 . S
C7707 C5431 1.817 . S
C7718 C3927 1.898 . S
C7716 C2935 2.112 . S
C7729 C5495 1.818 . S
C7727 C2975 1.851 1_655 S
C7738 C3015 2.111 . S
C7740 C3863 1.900 . S
C7751 C5623 1.818 . S
C7749 C3055 1.849 . S
C7762 C3991 1.899 . S
C7760 C3095 2.110 . S
C7771 C3135 1.847 1_655 S
C7773 C5559 1.818 . S
C7782 C3175 2.106 . S
C7784 C4055 1.906 . S
C7795 C4567 1.813 . S
C7793 C3215 1.853 . S
C7804 C3255 2.104 . S
C7806 C4375 1.905 . S
C7817 C4599 1.812 . S
C7815 C3295 1.852 . S
C7828 C4535 1.904 . S
C7826 C3335 2.105 . S
C7837 C3375 1.851 . S
C7839 C4439 1.817 . S
C7848 C3415 2.107 . S
C7850 C6007 1.905 . S
C7861 C6039 1.816 . S
C7859 C3455 1.846 . S
C7870 C3495 2.105 . S
C7872 C5943 1.905 . S
C7883 C4279 1.812 . S
C7881 C3535 1.846 . S
C7894 C5751 1.814 . S
C7892 C3575 1.854 . S
C7903 C3615 2.104 . S
C7905 C4119 1.905 . S
C7914 C3655 1.854 1_556 S
C7916 C5687 1.816 . S
C7925 C3695 2.113 . S
C7927 C5719 1.897 . S
C7936 C3735 1.853 1_554 S
C7938 C4343 1.812 . S
C7947 C3775 2.112 . S
C7949 C4247 1.899 . S
C7960 C4311 1.906 . S
C7958 C3815 2.104 . S
C7971 C4145 1.940 . S
C7969 C2 1.956 . S
C7982 C4177 1.876 . S
C7980 C42 1.938 . S
C7991 C82 1.956 . S
C7993 C4209 1.936 . S
C8002 C122 1.941 . S
C8004 C4113 1.879 . S
C8013 C162 1.953 . S
C8015 C4337 1.943 . S
C8026 C4241 1.880 . S
C8024 C202 1.941 . S
C8037 C4273 1.940 . S
C8035 C242 1.951 . S
C8046 C282 1.941 . S
C8048 C4305 1.879 . S
C8057 C322 1.951 . S
C8059 C3953 1.944 . S
C8068 C362 1.941 . S
C8070 C3857 1.881 . S
C8079 C402 1.955 . S
C8081 C3889 1.937 . S
C8092 C3921 1.878 . S
C8090 C442 1.940 . S
C8101 C482 1.959 . S
C8103 C4017 1.935 . S
C8112 C522 1.938 . S
C8114 C4049 1.879 . S
C8123 C562 1.949 . S
C8125 C4081 1.944 . S
C8134 C602 1.942 . S
C8136 C3985 1.881 . S
C8147 C4433 1.944 . S
C8145 C642 1.950 . S
C8156 C682 1.959 . S
C8158 C6097 1.938 . S
C8169 C4369 1.879 . S
C8167 C722 1.941 . S
C8180 C6129 1.942 . S
C8178 C762 1.949 . S
C8189 C802 1.940 . S
C8191 C6065 1.882 . S
C8200 C842 1.949 . S
C8202 C6033 1.944 . S
C8213 C5937 1.881 . S
C8211 C882 1.940 . S
C8224 C6001 1.878 . S
C8222 C922 1.940 . S
C8235 C4913 2.175 . S
C8233 C962 2.130 . S
C8246 C4945 1.950 . S
C8244 C1002 1.866 . S
C8257 C4977 2.176 . S
C8255 C1042 2.128 . S
C8266 C1082 1.866 . S
C8268 C4881 1.950 . S
C8277 C1122 2.131 . S
C8279 C5105 2.174 . S
C8290 C5009 1.950 . S
C8288 C1162 1.861 . S
C8299 C1202 2.135 . S
C8301 C5041 2.172 . S
C8312 C5073 1.950 . S
C8310 C1242 1.861 . S
C8321 C1282 2.128 . S
C8323 C4721 2.175 . S
C8334 C4625 1.950 . S
C8332 C1322 1.867 . S
C8343 C1362 2.132 . S
C8345 C4657 2.175 . S
C8356 C4689 1.950 . S
C8354 C1402 1.864 . S
C8367 C4785 2.172 . S
C8365 C1442 2.135 . S
C8376 C1482 1.864 . S
C8378 C4817 1.949 . S
C8389 C4849 2.173 . S
C8387 C1522 2.132 . S
C8400 C4753 1.950 . S
C8398 C1562 1.867 . S
C8411 C5201 2.172 . S
C8409 C1602 2.134 . S
C8422 C6865 2.176 . S
C8420 C1642 2.128 . S
C8433 C5137 1.951 . S
C8431 C1682 1.860 . S
C8442 C1722 2.135 . S
C8444 C6897 2.172 . S
C8453 C1762 1.860 . S
C8455 C6833 1.951 . S
C8466 C6801 2.176 . S
C8464 C1802 2.129 . S
C8477 C6705 1.949 . S
C8475 C1842 1.867 . S
C8488 C6769 1.950 . S
C8486 C1882 1.861 . S
C8497 C1922 1.952 . S
C8499 C5681 1.938 . S
C8510 C5713 1.877 . S
C8508 C1962 1.939 . S
C8519 C2002 1.949 . S
C8521 C5745 1.944 . S
C8532 C5649 1.876 . S
C8530 C2042 1.939 . S
C8541 C2082 1.949 . S
C8543 C5873 1.944 . S
C8552 C2122 1.938 . S
C8554 C5777 1.877 . S
C8563 C2162 1.955 . S
C8565 C5809 1.942 . S
C8574 C2202 1.939 . S
C8576 C5841 1.876 . S
C8585 C2242 1.955 . S
C8587 C5489 1.942 . S
C8598 C5393 1.876 . S
C8596 C2282 1.939 . S
C8609 C5425 1.944 . S
C8607 C2322 1.948 . S
C8618 C2362 1.938 . S
C8620 C5457 1.876 . S
C8629 C2402 1.956 . S
C8631 C5553 1.936 . S
C8640 C2442 1.938 . S
C8642 C5585 1.876 . S
C8651 C2482 1.958 . S
C8653 C5617 1.939 . S
C8662 C2522 1.938 . S
C8664 C5521 1.878 . S
C8675 C5969 1.943 . S
C8673 C2562 1.953 . S
C8686 C4561 1.939 . S
C8684 C2602 1.952 . S
C8697 C5905 1.877 . S
C8695 C2642 1.940 . S
C8708 C4593 1.940 . S
C8706 C2682 1.958 . S
C8719 C4529 1.876 . S
C8717 C2722 1.938 . S
C8730 C4497 1.943 . S
C8728 C2762 1.948 . S
C8739 C2802 1.939 . S
C8741 C4401 1.876 . S
C8752 C4465 1.880 . S
C8750 C2842 1.939 . S
C8761 C2882 2.130 . S
C8763 C6449 2.175 . S
C8772 C2922 1.867 . S
C8774 C6481 1.949 . S
C8785 C6513 2.176 . S
C8783 C2962 2.128 . S
C8794 C3002 1.865 . S
C8796 C6417 1.949 . S
C8807 C6641 2.174 . S
C8805 C3042 2.131 . S
C8816 C3082 1.862 . S
C8818 C6545 1.950 . S
C8827 C3122 2.129 . S
C8829 C6577 2.176 . S
C8840 C6609 1.949 . S
C8838 C3162 1.866 . S
C8851 C6257 2.174 . S
C8849 C3202 2.131 . S
C8862 C6161 1.950 . S
C8860 C3242 1.864 . S
C8873 C6193 2.173 . S
C8871 C3282 2.132 . S
C8884 C6225 1.949 . S
C8882 C3322 1.867 . S
C8893 C3362 2.132 . S
C8895 C6321 2.173 . S
C8906 C6353 1.951 . S
C8904 C3402 1.859 . S
C8915 C3442 2.135 . S
C8917 C6385 2.172 . S
C8926 C3482 1.862 . S
C8928 C6289 1.950 . S
C8937 C3522 2.131 . S
C8939 C6737 2.174 . S
C8948 C3562 2.128 . S
C8950 C5329 2.176 . S
C8959 C3602 1.864 . S
C8961 C6673 1.950 . S
C8972 C5361 2.175 . S
C8970 C3642 2.130 . S
C8981 C3682 1.866 . S
C8983 C5297 1.949 . S
C8992 C3722 2.131 . S
C8994 C5265 2.174 . S
C9003 C3762 1.866 . S
C9005 C5169 1.950 . S
C9016 C5233 1.950 . S
C9014 C3802 1.865 . S
C9025 C21 2.072 . S
C9027 C3869 2.035 . S
C9036 C61 1.809 . S
C9038 C3901 1.759 . S
C9047 C101 2.062 . S
C9049 C3933 2.039 . S
C9060 C3965 1.758 . S
C9058 C141 1.812 . S
C9071 C3997 2.035 . S
C9069 C181 2.066 . S
C9080 C221 1.811 . S
C9082 C4029 1.758 . S
C9091 C261 2.073 . S
C9093 C4061 2.036 . S
C9102 C301 1.811 . S
C9104 C4093 1.762 . S
C9115 C4125 2.041 . S
C9113 C341 2.062 . S
C9126 C4157 1.762 . S
C9124 C381 1.811 . S
C9135 C421 2.073 . S
C9137 C4189 2.033 . S
C9148 C4221 1.757 . S
C9146 C461 1.809 . S
C9157 C501 2.068 . S
C9159 C4253 2.040 . S
C9168 C541 1.810 . S
C9170 C4285 1.756 . S
C9179 C581 2.066 . S
C9181 C4317 2.041 . S
C9190 C621 1.813 . S
C9192 C4349 1.762 . S
C9201 C661 2.069 . S
C9203 C4381 2.033 . S
C9212 C701 2.067 . S
C9214 C4413 2.041 . S
C9225 C4445 1.761 . S
C9223 C741 1.810 . S
C9236 C4477 2.040 . S
C9234 C781 2.067 . S
C9247 C4509 1.762 . S
C9245 C821 1.813 . S
C9258 C4541 2.037 . S
C9256 C861 2.064 . S
C9267 C901 1.811 . S
C9269 C4573 1.762 . S
C9280 C4605 1.757 . S
C9278 C941 1.811 . S
C9289 C981 2.263 . S
C9291 C4637 2.315 . S
C9300 C1021 1.715 . S
C9302 C4669 1.814 . S
C9311 C1061 2.267 . S
C9313 C4701 2.314 . S
C9324 C4733 1.814 . S
C9322 C1101 1.715 . S
C9333 C1141 2.263 . S
C9335 C4765 2.316 . S
C9346 C4797 1.814 . S
C9344 C1181 1.715 . S
C9355 C1221 2.267 . S
C9357 C4829 2.314 . S
C9366 C1261 1.725 . S
C9368 C4861 1.812 . S
C9379 C4893 2.317 . S
C9377 C1301 2.262 . S
C9388 C1341 1.724 . S
C9390 C4925 1.812 . S
C9401 C4957 2.315 . S
C9399 C1381 2.266 . S
C9410 C1421 1.715 . S
C9412 C4989 1.814 . S
C9423 C5021 2.317 . S
C9421 C1461 2.264 . S
C9434 C5053 1.813 . S
C9432 C1501 1.716 . S
C9445 C5085 2.316 . S
C9443 C1541 2.265 . S
C9454 C1581 1.716 . S
C9456 C5117 1.814 . S
C9465 C1621 2.263 . S
C9467 C5149 2.315 . S
C9476 C1661 2.263 . S
C9478 C5181 2.316 . S
C9487 C1701 1.725 . S
C9489 C5213 1.811 . S
C9498 C1741 2.262 . S
C9500 C5245 2.317 . S
C9509 C1781 1.721 . S
C9511 C5277 1.812 . S
C9522 C5309 2.314 . S
C9520 C1821 2.267 . S
C9531 C1861 1.723 . S
C9533 C5341 1.811 . S
C9544 C5373 1.813 . S
C9542 C1901 1.715 . S
C9553 C1941 2.072 . S
C9555 C5405 2.036 . S
C9566 C5437 1.756 . S
C9564 C1981 1.809 . S
C9577 C5469 2.041 . S
C9575 C2021 2.062 . S
C9588 C5501 1.762 . S
C9586 C2061 1.813 . S
C9597 C2101 2.062 . S
C9599 C5533 2.040 . S
C9608 C2141 1.809 . S
C9610 C5565 1.758 . S
C9621 C5597 2.034 . S
C9619 C2181 2.073 . S
C9632 C5629 1.761 . S
C9630 C2221 1.813 . S
C9641 C2261 2.067 . S
C9643 C5661 2.040 . S
C9652 C2301 1.812 . S
C9654 C5693 1.762 . S
C9663 C2341 2.064 . S
C9665 C5725 2.037 . S
C9674 C2381 1.809 . S
C9676 C5757 1.757 . S
C9685 C2421 2.073 . S
C9687 C5789 2.034 . S
C9698 C5821 1.757 . S
C9696 C2461 1.809 . S
C9709 C5853 2.034 . S
C9707 C2501 2.067 . S
C9720 C5885 1.756 . S
C9718 C2541 1.809 . S
C9731 C5917 2.034 . S
C9729 C2581 2.068 . S
C9740 C2621 2.072 . S
C9742 C5949 2.037 . S
C9751 C2661 1.810 . S
C9753 C5981 1.757 . S
C9764 C6013 2.042 . S
C9762 C2701 2.065 . S
C9773 C2741 1.810 . S
C9775 C6045 1.761 . S
C9786 C6077 2.033 . S
C9784 C2781 2.073 . S
C9797 C6109 1.762 . S
C9795 C2821 1.813 . S
C9808 C6141 1.759 . S
C9806 C2861 1.812 . S
C9817 C2901 2.262 . S
C9819 C6173 2.315 . S
C9828 C2941 1.723 . S
C9830 C6205 1.811 . S
C9839 C2981 2.267 . S
C9841 C6237 2.314 . S
C9850 C3021 1.724 . S
C9852 C6269 1.811 . S
C9863 C6301 2.318 . S
C9861 C3061 2.261 . S
C9874 C6333 1.811 . S
C9872 C3101 1.722 . S
C9885 C6365 2.317 . S
C9883 C3141 2.265 . S
C9894 C3181 1.725 . S
C9896 C6397 1.811 . S
C9905 C3221 2.266 . S
C9907 C6429 2.314 . S
C9918 C6461 1.811 . S
C9916 C3261 1.723 . S
C9929 C6493 2.315 . S
C9927 C3301 2.265 . S
C9940 C6525 1.811 . S
C9938 C3341 1.724 . S
C9951 C6557 2.316 . S
C9949 C3381 2.261 . S
C9962 C6589 1.811 . S
C9960 C3421 1.724 . S
C9973 C6621 2.314 . S
C9971 C3461 2.266 . S
C9984 C6653 1.814 . S
C9982 C3501 1.717 . S
C9995 C6685 2.315 . S
C9993 C3541 2.263 . S
C10006 C6717 2.316 . S
C10004 C3581 2.262 . S
C10017 C6749 1.813 . S
C10015 C3621 1.716 . S
C10026 C3661 2.261 . S
C10028 C6781 2.318 . S
C10039 C6813 1.811 . S
C10037 C3701 1.724 . S
C10048 C3741 2.264 . S
C10050 C6845 2.317 . S
C10061 C6877 1.811 . S
C10059 C3781 1.724 . S
C10072 C6909 1.814 . S
C10070 C3821 1.718 . S
