# Generated by pormake.
# Topology pyr, (3,6)-cn, num edge types: 1
# Building blocks:
#     Node 0, Type 0, BuildingBlock: QEWDON_clean_linker_0, # of connection points: 3
#     Node 1, Type 0, BuildingBlock: QEWDON_clean_linker_0, # of connection points: 3
#     Node 2, Type 0, BuildingBlock: QEWDON_clean_linker_0, # of connection points: 3
#     Node 3, Type 0, BuildingBlock: QEWDON_clean_linker_0, # of connection points: 3
#     Node 4, Type 0, BuildingBlock: QEWDON_clean_linker_0, # of connection points: 3
#     Node 5, Type 0, BuildingBlock: QEWDON_clean_linker_0, # of connection points: 3
#     Node 6, Type 0, BuildingBlock: QEWDON_clean_linker_0, # of connection points: 3
#     Node 7, Type 0, BuildingBlock: QEWDON_clean_linker_0, # of connection points: 3
#     Node 8, Type 1, BuildingBlock: PAMTOO_clean_sbu_0, # of connection points: 6
#     Node 9, Type 1, BuildingBlock: PAMTOO_clean_sbu_0, # of connection points: 6
#     Node 10, Type 1, BuildingBlock: PAMTOO_clean_sbu_0, # of connection points: 6
#     Node 11, Type 1, BuildingBlock: PAMTOO_clean_sbu_0, # of connection points: 6
#     Edge 12, Type (0, 1), BuildingBlock: TEMPAE_clean_linker_10, # of connection points: 2
#     Edge 13, Type (0, 1), BuildingBlock: TEMPAE_clean_linker_10, # of connection points: 2
#     Edge 14, Type (0, 1), BuildingBlock: TEMPAE_clean_linker_10, # of connection points: 2
#     Edge 15, Type (0, 1), BuildingBlock: TEMPAE_clean_linker_10, # of connection points: 2
#     Edge 16, Type (0, 1), BuildingBlock: TEMPAE_clean_linker_10, # of connection points: 2
#     Edge 17, Type (0, 1), BuildingBlock: TEMPAE_clean_linker_10, # of connection points: 2
#     Edge 18, Type (0, 1), BuildingBlock: TEMPAE_clean_linker_10, # of connection points: 2
#     Edge 19, Type (0, 1), BuildingBlock: TEMPAE_clean_linker_10, # of connection points: 2
#     Edge 20, Type (0, 1), BuildingBlock: TEMPAE_clean_linker_10, # of connection points: 2
#     Edge 21, Type (0, 1), BuildingBlock: TEMPAE_clean_linker_10, # of connection points: 2
#     Edge 22, Type (0, 1), BuildingBlock: TEMPAE_clean_linker_10, # of connection points: 2
#     Edge 23, Type (0, 1), BuildingBlock: TEMPAE_clean_linker_10, # of connection points: 2
#     Edge 24, Type (0, 1), BuildingBlock: TEMPAE_clean_linker_10, # of connection points: 2
#     Edge 25, Type (0, 1), BuildingBlock: TEMPAE_clean_linker_10, # of connection points: 2
#     Edge 26, Type (0, 1), BuildingBlock: TEMPAE_clean_linker_10, # of connection points: 2
#     Edge 27, Type (0, 1), BuildingBlock: TEMPAE_clean_linker_10, # of connection points: 2
#     Edge 28, Type (0, 1), BuildingBlock: TEMPAE_clean_linker_10, # of connection points: 2
#     Edge 29, Type (0, 1), BuildingBlock: TEMPAE_clean_linker_10, # of connection points: 2
#     Edge 30, Type (0, 1), BuildingBlock: TEMPAE_clean_linker_10, # of connection points: 2
#     Edge 31, Type (0, 1), BuildingBlock: TEMPAE_clean_linker_10, # of connection points: 2
#     Edge 32, Type (0, 1), BuildingBlock: TEMPAE_clean_linker_10, # of connection points: 2
#     Edge 33, Type (0, 1), BuildingBlock: TEMPAE_clean_linker_10, # of connection points: 2
#     Edge 34, Type (0, 1), BuildingBlock: TEMPAE_clean_linker_10, # of connection points: 2
#     Edge 35, Type (0, 1), BuildingBlock: TEMPAE_clean_linker_10, # of connection points: 2
# Relax obj value: 0.145
# Max RMSD: 0.247
# Mean RMSD: 0.179
data_MOF--net-pyr--node1-PAMTOO_clean_sbu_0--node2-QEWDON_clean_linker_0--edge1-TEMPAE_clean_linker_10
_symmetry_space_group_name_H-M    P1
_symmetry_Int_Tables_number       1
_symmetry_cell_setting            triclinic
loop_
_symmetry_equiv_pos_as_xyz
'x, y, z'
_cell_length_a     37.578819
_cell_length_b     40.374402
_cell_length_c     43.108231
_cell_angle_alpha  90.317455
_cell_angle_beta   90.504873
_cell_angle_gamma 113.2398
loop_
_atom_site_label
_atom_site_type_symbol
_atom_site_fract_x
_atom_site_fract_y
_atom_site_fract_z
_atom_type_partial_charge
H0 H 0.40387 0.32392 0.17887 0.0
C1 C 0.38963 0.31639 0.20103 0.0
C2 C 0.38795 0.28476 0.21557 0.0
C3 C 0.37138 0.33743 0.21411 0.0
H4 H 0.36639 0.25 0.25473 0.0
C5 C 0.3681 0.2746 0.24365 0.0
C6 C 0.34999 0.29551 0.2573 0.0
C7 C 0.35181 0.32694 0.2423 0.0
C8 C 0.37177 0.36981 0.19782 0.0
H9 H 0.3384 0.34359 0.2527 0.0
C10 C 0.33723 0.37512 0.19364 0.0
C11 C 0.33707 0.40528 0.17752 0.0
C12 C 0.40638 0.3951 0.18582 0.0
H13 H 0.43338 0.39168 0.18885 0.0
C14 C 0.40651 0.42527 0.17009 0.0
H15 H 0.31028 0.35512 0.20209 0.0
C16 C 0.37215 0.43039 0.16592 0.0
H17 H 0.3731 0.45414 0.1538 0.0
H18 H 0.43336 0.44477 0.16109 0.0
H19 H 0.17216 0.82435 0.75884 0.0
C20 C 0.19284 0.8148 0.74893 0.0
C21 C 0.22618 0.81827 0.7659 0.0
C22 C 0.18573 0.79825 0.71948 0.0
H23 H 0.27923 0.80969 0.76561 0.0
C24 C 0.25303 0.80628 0.75278 0.0
C25 C 0.24691 0.79076 0.723 0.0
C26 C 0.21273 0.78607 0.70672 0.0
C27 C 0.15055 0.79433 0.70162 0.0
H28 H 0.20783 0.77429 0.6836 0.0
C29 C 0.14227 0.82466 0.69522 0.0
C30 C 0.10979 0.8213 0.67694 0.0
C31 C 0.1258 0.76039 0.69007 0.0
H32 H 0.13172 0.73671 0.69477 0.0
C33 C 0.09304 0.75674 0.67256 0.0
H34 H 0.16201 0.851 0.70343 0.0
C35 C 0.08505 0.78694 0.66595 0.0
H36 H 0.05949 0.78339 0.65225 0.0
H37 H 0.0739 0.73045 0.6639 0.0
H38 H 0.69849 0.48354 0.87841 0.0
C39 C 0.68818 0.45511 0.88378 0.0
C40 C 0.71082 0.44253 0.90282 0.0
C41 C 0.65097 0.43136 0.8737 0.0
H42 H 0.71327 0.39709 0.92714 0.0
C43 C 0.69636 0.40614 0.91139 0.0
C44 C 0.65923 0.38212 0.90196 0.0
C45 C 0.63703 0.39491 0.88277 0.0
C46 C 0.6234 0.4451 0.85905 0.0
H47 H 0.60804 0.37675 0.87582 0.0
C48 C 0.63021 0.46331 0.83023 0.0
C49 C 0.60195 0.47455 0.81718 0.0
C50 C 0.58865 0.43882 0.87457 0.0
H51 H 0.58283 0.42525 0.89673 0.0
C52 C 0.56095 0.4497 0.86187 0.0
H53 H 0.65693 0.46835 0.81807 0.0
C54 C 0.56732 0.4671 0.83346 0.0
H55 H 0.54453 0.47423 0.82396 0.0
H56 H 0.53417 0.44432 0.87401 0.0
H57 H 0.90794 0.78083 0.35124 0.0
C58 C 0.88637 0.7616 0.36584 0.0
C59 C 0.8835 0.77024 0.39732 0.0
C60 C 0.85986 0.72899 0.35269 0.0
H61 H 0.84982 0.75306 0.43884 0.0
C62 C 0.85373 0.74569 0.41529 0.0
C63 C 0.82671 0.71334 0.40259 0.0
C64 C 0.83037 0.70508 0.37134 0.0
C65 C 0.85629 0.72356 0.31842 0.0
H66 H 0.80903 0.68075 0.36094 0.0
C67 C 0.88078 0.71174 0.30063 0.0
C68 C 0.87397 0.70507 0.26819 0.0
C69 C 0.82553 0.72876 0.30363 0.0
H70 H 0.80639 0.73765 0.31677 0.0
C71 C 0.81858 0.72204 0.27204 0.0
H72 H 0.90458 0.70769 0.31192 0.0
C73 C 0.8422 0.71007 0.25457 0.0
H74 H 0.83501 0.70415 0.23022 0.0
H75 H 0.7944 0.72573 0.26105 0.0
H76 H 0.73195 0.7977 0.958 0.0
C77 C 0.73971 0.81404 0.93731 0.0
C78 C 0.77367 0.81806 0.92148 0.0
C79 C 0.71569 0.83099 0.92661 0.0
H80 H 0.80972 0.84291 0.88249 0.0
C81 C 0.78322 0.83903 0.8946 0.0
C82 C 0.75954 0.85598 0.88355 0.0
C83 C 0.72604 0.85227 0.89982 0.0
C84 C 0.67946 0.82591 0.94311 0.0
H85 H 0.70743 0.86497 0.89106 0.0
C86 C 0.66968 0.85549 0.94944 0.0
C87 C 0.63557 0.85078 0.96545 0.0
C88 C 0.65452 0.79139 0.95273 0.0
H89 H 0.6611 0.76808 0.94783 0.0
C90 C 0.62049 0.78651 0.96835 0.0
H91 H 0.6892 0.8823 0.9427 0.0
C92 C 0.61102 0.81595 0.97473 0.0
H93 H 0.58429 0.8114 0.9867 0.0
H94 H 0.60133 0.75979 0.9755 0.0
H95 H 0.89506 0.29872 0.46819 0.0
C96 C 0.87131 0.28452 0.45241 0.0
C97 C 0.87311 0.25616 0.43429 0.0
C98 C 0.83901 0.29402 0.45076 0.0
H99 H 0.84467 0.21758 0.39785 0.0
C100 C 0.84379 0.23937 0.41217 0.0
C101 C 0.81275 0.24998 0.40855 0.0
C102 C 0.80997 0.27654 0.4283 0.0
C103 C 0.83452 0.32026 0.47364 0.0
H104 H 0.78435 0.28243 0.42645 0.0
C105 C 0.81051 0.33891 0.46701 0.0
C106 C 0.80291 0.36034 0.48973 0.0
C107 C 0.85223 0.32515 0.5033 0.0
H108 H 0.86969 0.3106 0.51027 0.0
C109 C 0.84651 0.34803 0.52523 0.0
H110 H 0.79707 0.33663 0.44437 0.0
C111 C 0.82181 0.36532 0.51867 0.0
H112 H 0.81626 0.38137 0.53672 0.0
H113 H 0.86022 0.35135 0.54788 0.0
H114 H 0.44335 0.80086 0.24528 0.0
C115 C 0.41391 0.78363 0.2386 0.0
C116 C 0.39259 0.79732 0.21932 0.0
C117 C 0.39806 0.74742 0.24836 0.0
H118 H 0.33931 0.7844 0.19378 0.0
C119 C 0.35511 0.77435 0.20974 0.0
C120 C 0.33924 0.7378 0.2181 0.0
C121 C 0.36078 0.72457 0.23777 0.0
C122 C 0.42365 0.73221 0.26402 0.0
H123 H 0.34934 0.69623 0.24364 0.0
C124 C 0.41918 0.72092 0.2954 0.0
C125 C 0.44602 0.70854 0.30933 0.0
C126 C 0.45411 0.72995 0.24677 0.0
H127 H 0.45799 0.7383 0.22275 0.0
C128 C 0.47977 0.71687 0.26012 0.0
H129 H 0.39597 0.72287 0.30901 0.0
C130 C 0.47589 0.70637 0.29104 0.0
H131 H 0.4964 0.69634 0.3007 0.0
H132 H 0.503 0.71507 0.24647 0.0
H133 H 0.2165 0.44696 0.76044 0.0
C134 C 0.19883 0.4223 0.74825 0.0
C135 C 0.20903 0.41593 0.71805 0.0
C136 C 0.16782 0.39548 0.76363 0.0
H137 H 0.19648 0.37765 0.68033 0.0
C138 C 0.18789 0.38285 0.70321 0.0
C139 C 0.15674 0.35595 0.71787 0.0
C140 C 0.14653 0.36263 0.74788 0.0
C141 C 0.16282 0.398 0.79781 0.0
H142 H 0.12354 0.34134 0.75981 0.0
C143 C 0.1532 0.42516 0.81207 0.0
C144 C 0.14912 0.42567 0.84479 0.0
C145 C 0.16839 0.37208 0.81663 0.0
H146 H 0.17604 0.35121 0.80644 0.0
C147 C 0.16475 0.3729 0.84871 0.0
H148 H 0.14862 0.44528 0.79797 0.0
C149 C 0.15523 0.39942 0.86268 0.0
H150 H 0.15226 0.39929 0.88767 0.0
H151 H 0.16928 0.35279 0.86283 0.0
Dy152 Dy 0.06665 0.07894 0.54009 0.0
Dy153 Dy 0.98023 0.04927 0.57194 0.0
C154 C 0.0464 0.12295 0.59326 0.0
O155 O 0.07311 0.0528 0.58411 0.0
O156 O 0.00942 0.01584 0.59209 0.0
O157 O 0.12727 0.11531 0.54117 0.0
O158 O 0.10487 0.07469 0.50493 0.0
O159 O 0.97313 0.01904 0.52704 0.0
O160 O 0.03481 0.02161 0.52429 0.0
O161 O 0.97878 0.08875 0.53678 0.0
O162 O 0.03259 0.09754 0.50706 0.0
O163 O 0.9267 1.00542 0.58397 0.0
O164 O 0.93559 0.06059 0.59518 0.0
C165 C 0.04654 0.02468 0.59721 0.0
O166 O 0.0605 0.12501 0.56527 0.0
O167 O 0.02133 0.09205 0.60354 0.0
C168 C 0.15365 0.13025 0.49105 0.0
C169 C 0.19304 0.17727 0.44329 0.0
C170 C 0.21303 0.17469 0.47026 0.0
C171 C 0.19346 0.15116 0.49391 0.0
C172 C 0.13329 0.13419 0.46479 0.0
C173 C 0.15291 0.1573 0.44099 0.0
C174 C 0.13408 0.10324 0.51472 0.0
C175 C 0.99801 1.00643 0.51635 0.0
C176 C 1.00018 0.10163 0.51228 0.0
C177 C 0.89615 0.01464 0.62875 0.0
C178 C 0.86239 0.98956 0.68674 0.0
C179 C 0.84513 0.97122 0.65917 0.0
C180 C 0.8618 0.98373 0.6305 0.0
C181 C 0.91355 0.03321 0.65613 0.0
C182 C 0.89671 0.02084 0.68487 0.0
C183 C 0.91322 0.02656 0.59814 0.0
H184 H 0.24403 0.1897 0.47244 0.0
H185 H 0.20959 0.14857 0.51406 0.0
H186 H 0.10242 0.11869 0.46225 0.0
H187 H 0.13688 0.15912 0.42051 0.0
H188 H 0.81917 0.94666 0.65974 0.0
H189 H 0.84804 0.96898 0.60962 0.0
H190 H 0.94018 0.05714 0.65536 0.0
H191 H 0.91056 0.0358 0.70562 0.0
Dy192 Dy 0.48623 0.07727 0.04076 0.0
Dy193 Dy 0.56613 0.10735 0.08332 0.0
C194 C 0.49551 0.03208 0.101 0.0
O195 O 0.48672 0.12317 0.07001 0.0
O196 O 0.52198 0.1175 0.11149 0.0
O197 O 0.4236 0.05721 0.03771 0.0
O198 O 0.45837 0.07025 0.99608 0.0
O199 O 0.56861 0.15233 0.05219 0.0
O200 O 0.53095 0.11928 1.01223 0.0
O201 O 0.57699 0.0797 0.04143 0.0
O202 O 0.51503 0.04007 0.03039 0.0
O203 O 0.61223 0.153 0.10429 0.0
O204 O 0.61462 0.10021 0.10504 0.0
C205 C 0.497 0.12914 0.09933 0.0
O206 O 0.47398 0.03552 0.07791 0.0
O207 O 0.53071 0.05596 0.10707 0.0
C208 C 0.39652 0.02384 0.99188 0.0
C209 C 0.34867 0.96701 0.95338 0.0
C210 C 0.38448 0.96792 0.96419 0.0
C211 C 0.40821 0.9961 0.9834 0.0
C212 C 0.35995 0.02196 0.98261 0.0
C213 C 0.33608 0.99367 0.96357 0.0
C214 C 0.42355 0.05661 1.00743 0.0
C215 C 0.55692 0.14964 0.0232 0.0
C216 C 0.55254 0.04937 0.02896 0.0
C217 C 0.64487 0.14065 0.14641 0.0
C218 C 0.67331 0.15679 0.2077 0.0
C219 C 0.69503 0.17657 0.18266 0.0
C220 C 0.68096 0.16848 0.15235 0.0
C221 C 0.62272 0.1209 0.17118 0.0
C222 C 0.63691 0.12889 0.20166 0.0
C223 C 0.63074 0.13377 0.11425 0.0
H224 H 0.39465 0.94747 0.95694 0.0
H225 H 0.43634 0.99707 0.9905 0.0
H226 H 0.35058 0.04324 0.98895 0.0
H227 H 0.30879 0.99378 0.95541 0.0
H228 H 0.72276 0.19873 0.18651 0.0
H229 H 0.69819 0.18422 0.13348 0.0
H230 H 0.59457 0.09945 0.16696 0.0
H231 H 0.61959 0.11305 0.22042 0.0
Dy232 Dy 0.5047 0.54107 0.54371 0.0
Dy233 Dy 0.52613 0.61909 0.57744 0.0
C234 C 0.54953 0.55989 0.60939 0.0
O235 O 0.44786 0.53775 0.5623 0.0
O236 O 0.47283 0.58053 0.60056 0.0
O237 O 0.48339 0.48291 0.54473 0.0
O238 O 0.50436 0.5112 0.50191 0.0
O239 O 0.48331 0.61669 0.53986 0.0
O240 O 0.49469 0.5767 0.50798 0.0
O241 O 0.57196 0.62794 0.54192 0.0
O242 O 0.56889 0.57035 0.53912 0.0
O243 O 0.54245 0.67663 0.57508 0.0
O244 O 0.53421 0.65045 0.61966 0.0
C245 C 0.44404 0.55259 0.58864 0.0
O246 O 0.52206 0.53557 0.59272 0.0
O247 O 0.56222 0.59424 0.60232 0.0
C248 C 0.52194 0.46311 0.5128 0.0
C249 C 0.58028 0.43716 0.50238 0.0
C250 C 0.57937 0.45476 0.53039 0.0
C251 C 0.55063 0.46781 0.53547 0.0
C252 C 0.52229 0.445 0.48503 0.0
C253 C 0.55132 0.43216 0.47981 0.0
C254 C 0.49478 0.48085 0.51655 0.0
C255 C 0.48207 0.60242 0.51219 0.0
C256 C 0.58681 0.60488 0.53336 0.0
C257 C 0.51167 0.69647 0.61409 0.0
C258 C 0.45642 0.72186 0.63556 0.0
C259 C 0.45047 0.70285 0.6073 0.0
C260 C 0.47774 0.69006 0.59674 0.0
C261 C 0.51819 0.71619 0.64191 0.0
C262 C 0.49074 0.72877 0.65261 0.0
C263 C 0.53833 0.67973 0.60483 0.0
H264 H 0.60165 0.45949 0.54798 0.0
H265 H 0.5515 0.48248 0.55679 0.0
H266 H 0.50074 0.44165 0.46709 0.0
H267 H 0.55129 0.41854 0.45808 0.0
H268 H 0.42408 0.69674 0.59389 0.0
H269 H 0.4718 0.67436 0.57544 0.0
H270 H 0.54404 0.72108 0.65572 0.0
H271 H 0.49615 0.7436 0.67437 0.0
Dy272 Dy 0.04073 0.61628 0.04105 0.0
Dy273 Dy 0.01589 0.5389 0.07563 0.0
C274 C 0.99507 0.60063 0.1055 0.0
O275 O 0.09648 0.6177 0.06111 0.0
O276 O 0.06924 0.57741 0.09988 0.0
O277 O 0.06234 0.67446 0.04315 0.0
O278 O 0.04479 0.6466 0.99916 0.0
O279 O 0.05831 0.53881 0.03917 0.0
O280 O 0.05122 0.57988 1.00608 0.0
O281 O 0.96988 0.52965 0.03938 0.0
O282 O 0.97665 0.58818 0.03338 0.0
O283 O 1.001 0.48141 0.07437 0.0
O284 O 1.00465 0.50879 0.11822 0.0
C285 C 0.09914 0.60376 0.08809 0.0
O286 O 0.02386 0.62363 0.08968 0.0
O287 O 0.98078 0.5661 0.09835 0.0
C288 C 0.02717 0.69499 1.00835 0.0
C289 C 0.97168 0.72308 0.99281 0.0
C290 C 0.9654 0.69908 0.01765 0.0
C291 C 0.99281 0.68505 0.02525 0.0
C292 C 0.03406 0.71951 0.98403 0.0
C293 C 0.00655 0.73353 0.97633 0.0
C294 C 0.0536 0.67691 1.01416 0.0
C295 C 0.06173 0.55301 1.0114 0.0
C296 C 0.95711 0.55345 0.02875 0.0
C297 C 0.03091 0.46425 0.11647 0.0
C298 C 0.09126 0.44369 0.13581 0.0
C299 C 0.07238 0.43175 0.1071 0.0
C300 C 0.04248 0.44187 0.09755 0.0
C301 C 0.04833 0.47442 0.14595 0.0
C302 C 0.07825 0.46436 0.15546 0.0
C303 C 1.00357 0.47954 0.10447 0.0
H304 H 0.93912 0.69087 0.03106 0.0
H305 H 0.98679 0.66579 0.04392 0.0
H306 H 0.06019 0.72703 0.97048 0.0
H307 H 0.01203 0.75162 0.95684 0.0
H308 H 0.08184 0.41592 0.09137 0.0
H309 H 0.02948 0.4333 0.07481 0.0
H310 H 0.03981 0.49125 0.16132 0.0
H311 H 0.09176 0.47339 0.17796 0.0
C312 C 0.34211 0.26756 0.30997 0.0
C313 C 0.32822 0.28366 0.28666 0.0
C314 C 0.32017 0.25295 0.33638 0.0
C315 C 0.28381 0.25524 0.33998 0.0
C316 C 0.27049 0.27312 0.31741 0.0
C317 C 0.29266 0.2868 0.29086 0.0
C318 C 0.3352 0.23376 0.35979 0.0
C319 C 0.23216 0.27662 0.32074 0.0
C320 C 0.21009 0.18172 0.38742 0.0
C321 C 0.21446 0.19838 0.4166 0.0
C322 C 0.23207 0.20018 0.36218 0.0
C323 C 0.25857 0.23641 0.36612 0.0
C324 C 0.26218 0.25378 0.39531 0.0
C325 C 0.24037 0.23435 0.42039 0.0
C326 C 0.22789 0.1805 0.33158 0.0
C327 C 0.28948 0.29262 0.40015 0.0
H328 H 0.36996 0.26579 0.30734 0.0
H329 H 0.28145 0.29887 0.27291 0.0
H330 H 0.33596 0.24527 0.38331 0.0
H331 H 0.31538 0.20487 0.36058 0.0
H332 H 0.36471 0.23558 0.35418 0.0
H333 H 0.2281 0.29487 0.30314 0.0
H334 H 0.20816 0.24971 0.3181 0.0
H335 H 0.22988 0.28702 0.3442 0.0
H336 H 0.19034 0.15375 0.38463 0.0
H337 H 0.24351 0.24723 0.44297 0.0
H338 H 0.25592 0.17921 0.32538 0.0
H339 H 0.22022 0.19532 0.31285 0.0
H340 H 0.20538 0.15259 0.33222 0.0
H341 H 0.31981 0.29536 0.39726 0.0
H342 H 0.2867 0.30293 0.42356 0.0
H343 H 0.28383 0.30983 0.38242 0.0
C344 C 0.23602 0.8709 0.80055 0.0
C345 C 0.23452 0.83592 0.79677 0.0
C346 C 0.2503 0.89028 0.82821 0.0
C347 C 0.26282 0.87396 0.85265 0.0
C348 C 0.25872 0.83771 0.84967 0.0
C349 C 0.2449 0.8192 0.82161 0.0
C350 C 0.25454 0.92899 0.83041 0.0
C351 C 0.27111 0.81918 0.87537 0.0
C352 C 0.34582 0.9361 0.90274 0.0
C353 C 0.32654 0.94083 0.92898 0.0
C354 C 0.32534 0.91411 0.87793 0.0
C355 C 0.28457 0.89611 0.87953 0.0
C356 C 0.26496 0.89999 0.90631 0.0
C357 C 0.2862 0.92259 0.93069 0.0
C358 C 0.34731 0.91093 0.84965 0.0
C359 C 0.2216 0.88071 0.90898 0.0
H360 H 0.22818 0.88385 0.78123 0.0
H361 H 0.24335 0.79196 0.81868 0.0
H362 H 0.24255 0.93395 0.85254 0.0
H363 H 0.28573 0.94707 0.8302 0.0
H364 H 0.23976 0.93641 0.81086 0.0
H365 H 0.26104 0.78969 0.87113 0.0
H366 H 0.30318 0.83076 0.87731 0.0
H367 H 0.25974 0.82368 0.89797 0.0
H368 H 0.37691 0.95065 0.90112 0.0
H369 H 0.2713 0.92614 0.95105 0.0
H370 H 0.33693 0.92088 0.82895 0.0
H371 H 0.34192 0.88226 0.84516 0.0
H372 H 0.37903 0.92648 0.85224 0.0
H373 H 0.20703 0.89038 0.8908 0.0
H374 H 0.21103 0.88503 0.93202 0.0
H375 H 0.21282 0.85134 0.90508 0.0
C376 C 0.59263 0.52029 0.78237 0.0
C377 C 0.60641 0.49284 0.78636 0.0
C378 C 0.58825 0.53273 0.75278 0.0
C379 C 0.59908 0.51837 0.72618 0.0
C380 C 0.61623 0.49296 0.73015 0.0
C381 C 0.61939 0.48026 0.76014 0.0
C382 C 0.56951 0.55953 0.74996 0.0
C383 C 0.62939 0.47778 0.70258 0.0
C384 C 0.54081 0.51624 0.65269 0.0
C385 C 0.56412 0.5483 0.63793 0.0
C386 C 0.55234 0.50583 0.68086 0.0
C387 C 0.5887 0.5274 0.69447 0.0
C388 C 0.61319 0.55899 0.67897 0.0
C389 C 0.60037 0.56937 0.65119 0.0
C390 C 0.52476 0.47242 0.69675 0.0
C391 C 0.65262 0.58222 0.69204 0.0
H392 H 0.58345 0.53097 0.80248 0.0
H393 H 0.63014 0.45916 0.7628 0.0
H394 H 0.58771 0.58292 0.73595 0.0
H395 H 0.54115 0.54663 0.73776 0.0
H396 H 0.56462 0.56956 0.77292 0.0
H397 H 0.64785 0.46329 0.70965 0.0
H398 H 0.60376 0.4586 0.68976 0.0
H399 H 0.64583 0.49959 0.68635 0.0
H400 H 0.51267 0.49983 0.64279 0.0
H401 H 0.61877 0.594 0.63985 0.0
H402 H 0.51643 0.47991 0.71955 0.0
H403 H 0.5391 0.45358 0.70123 0.0
H404 H 0.498 0.45805 0.6828 0.0
H405 H 0.64939 0.5959 0.71356 0.0
H406 H 0.67008 0.60311 0.67541 0.0
H407 H 0.66877 0.56533 0.69831 0.0
C408 C 0.90539 0.70409 0.21699 0.0
C409 C 0.89828 0.69209 0.24781 0.0
C410 C 0.92226 0.68844 0.19554 0.0
C411 C 0.93395 0.66073 0.20511 0.0
C412 C 0.92926 0.64999 0.23665 0.0
C413 C 0.9112 0.66551 0.25754 0.0
C414 C 0.92629 0.7008 0.16225 0.0
C415 C 0.94244 0.62142 0.24816 0.0
C416 C 0.94063 0.59763 0.14074 0.0
C417 C 0.97965 0.61421 0.13231 0.0
C418 C 0.92557 0.61191 0.16485 0.0
C419 C 0.95032 0.64291 0.18169 0.0
C420 C 0.99014 0.65869 0.17414 0.0
C421 C 1.00412 0.64457 0.14931 0.0
C422 C 0.88279 0.59468 0.17145 0.0
C423 C 0.01794 0.691 0.19191 0.0
H424 H 0.89674 0.72535 0.20925 0.0
H425 H 0.90598 0.65589 0.28116 0.0
H426 H 0.9571 0.71116 0.15535 0.0
H427 H 0.91003 0.67765 0.14669 0.0
H428 H 0.91533 0.72231 0.1584 0.0
H429 H 0.94054 0.6187 0.27379 0.0
H430 H 0.92424 0.59504 0.23744 0.0
H431 H 0.97279 0.62783 0.2412 0.0
H432 H 0.92152 0.57424 0.1277 0.0
H433 H 0.03445 0.65728 0.14326 0.0
H434 H 0.86936 0.61418 0.16656 0.0
H435 H 0.87808 0.58756 0.19631 0.0
H436 H 0.86767 0.56998 0.15721 0.0
H437 H 0.01128 0.71488 0.18695 0.0
H438 H 0.04857 0.69743 0.18571 0.0
H439 H 0.01465 0.68616 0.21724 0.0
C440 C 0.38566 0.22401 0.20007 0.0
C441 C 0.40568 0.26162 0.20089 0.0
C442 C 0.40142 0.20183 0.18549 0.0
C443 C 0.43795 0.21764 0.17114 0.0
C444 C 0.45863 0.2555 0.17233 0.0
C445 C 0.44226 0.27704 0.18723 0.0
C446 C 0.37845 0.16156 0.18467 0.0
C447 C 0.49764 0.27332 0.15723 0.0
C448 C 0.4914 0.15813 0.14974 0.0
C449 C 0.48169 0.15127 0.11817 0.0
C450 C 0.47736 0.17968 0.16738 0.0
C451 C 0.45323 0.19477 0.15305 0.0
C452 C 0.44332 0.18789 0.12125 0.0
C453 C 0.45758 0.1662 0.10425 0.0
C454 C 0.48832 0.18631 0.20131 0.0
C455 C 0.41772 0.20356 0.1051 0.0
H456 H 0.35714 0.21191 0.21018 0.0
H457 H 0.4581 0.30603 0.18815 0.0
H458 H 0.36995 0.15243 0.16038 0.0
H459 H 0.39647 0.14737 0.19335 0.0
H460 H 0.35182 0.15334 0.1988 0.0
H461 H 0.51085 0.30288 0.16159 0.0
H462 H 0.51777 0.26139 0.16596 0.0
H463 H 0.49452 0.26846 0.1318 0.0
H464 H 0.50998 0.1467 0.16069 0.0
H465 H 0.44992 0.16116 0.07987 0.0
H466 H 0.46184 0.17658 0.21563 0.0
H467 H 0.50355 0.21566 0.20589 0.0
H468 H 0.50733 0.17262 0.20897 0.0
H469 H 0.38917 0.19433 0.11659 0.0
H470 H 0.41292 0.19576 0.08017 0.0
H471 H 0.43095 0.23341 0.10688 0.0
C472 C 0.10673 0.88081 0.69028 0.0
C473 C 0.10246 0.85366 0.66833 0.0
C474 C 0.09964 0.91135 0.68219 0.0
C475 C 0.08803 0.91474 0.65145 0.0
C476 C 0.08409 0.8876 0.62915 0.0
C477 C 0.09139 0.85746 0.63785 0.0
C478 C 0.10408 0.93974 0.70657 0.0
C479 C 0.0719 0.89026 0.59607 0.0
C480 C 0.03057 0.97036 0.63056 0.0
C481 C 0.05855 0.99991 0.6157 0.0
C482 C 0.04027 0.94341 0.64394 0.0
C483 C 0.07889 0.94604 0.64243 0.0
C484 C 0.10777 0.97692 0.62927 0.0
C485 C 0.09726 1.00354 0.61607 0.0
C486 C 0.00866 0.91104 0.65798 0.0
C487 C 0.14933 0.9808 0.62742 0.0
H488 H 0.11502 0.8779 0.71393 0.0
H489 H 0.08877 0.83694 0.62062 0.0
H490 H 0.12452 0.96651 0.69858 0.0
H491 H 0.0758 0.94167 0.71035 0.0
H492 H 0.1148 0.93379 0.72909 0.0
H493 H 0.07077 0.86711 0.58146 0.0
H494 H 0.04284 0.89133 0.59567 0.0
H495 H 0.09238 0.91551 0.58551 0.0
H496 H 1.00064 0.96746 0.63073 0.0
H497 H 0.11916 0.02633 0.60479 0.0
H498 H 0.01783 0.90516 0.6811 0.0
H499 H 1.00298 0.88701 0.64298 0.0
H500 H 0.98118 0.91496 0.6605 0.0
H501 H 0.15951 0.97504 0.65019 0.0
H502 H 0.16901 0.00821 0.62007 0.0
H503 H 0.15145 0.96092 0.61044 0.0
C504 C 0.78318 0.47099 0.90539 0.0
C505 C 0.74747 0.46742 0.91758 0.0
C506 C 0.81781 0.48856 0.92242 0.0
C507 C 0.81651 0.50222 0.9526 0.0
C508 C 0.7805 0.49986 0.96441 0.0
C509 C 0.74644 0.48251 0.94672 0.0
C510 C 0.85553 0.49084 0.90875 0.0
C511 C 0.77758 0.51366 0.99649 0.0
C512 C 0.89545 0.50417 1.00969 0.0
C513 C 0.92026 0.54081 1.0104 0.0
C514 C 0.86146 0.49149 0.99137 0.0
C515 C 0.85209 0.5159 0.97284 0.0
C516 C 0.87681 0.553 0.97364 0.0
C517 C 0.91042 0.56503 0.99251 0.0
C518 C 0.83566 0.45182 0.9917 0.0
C519 C 0.86815 0.57991 0.95412 0.0
H520 H 0.78382 0.45874 0.88306 0.0
H521 H 0.71865 0.47909 0.95634 0.0
H522 H 0.8778 0.51874 0.91089 0.0
H523 H 0.86639 0.47305 0.9218 0.0
H524 H 0.8523 0.48257 0.88392 0.0
H525 H 0.74821 0.51284 1.00112 0.0
H526 H 0.78439 0.49696 1.01405 0.0
H527 H 0.799 0.54177 0.99966 0.0
H528 H 0.90259 0.48522 0.02348 0.0
H529 H 0.92943 0.59338 0.99271 0.0
H530 H 0.83385 0.44006 0.96813 0.0
H531 H 0.80585 0.44804 0.99833 0.0
H532 H 0.84631 0.43655 1.0081 0.0
H533 H 0.86825 0.57296 0.92919 0.0
H534 H 0.88955 0.60796 0.95805 0.0
H535 H 0.83883 0.57878 0.95931 0.0
C536 C 0.75494 0.67802 0.40814 0.0
C537 C 0.79236 0.69078 0.42123 0.0
C538 C 0.72192 0.66106 0.42641 0.0
C539 C 0.72626 0.65675 0.45865 0.0
C540 C 0.76397 0.66807 0.47173 0.0
C541 C 0.79648 0.68488 0.4529 0.0
C542 C 0.68231 0.64933 0.41145 0.0
C543 C 0.77 0.66387 0.50591 0.0
C544 C 0.64362 0.65499 0.51012 0.0
C545 C 0.62373 0.61803 0.51576 0.0
C546 C 0.67719 0.66783 0.492 0.0
C547 C 0.69144 0.6432 0.47901 0.0
C548 C 0.67194 0.6059 0.48502 0.0
C549 C 0.63839 0.59377 0.50332 0.0
C550 C 0.69711 0.70784 0.48635 0.0
C551 C 0.68612 0.57873 0.47167 0.0
H552 H 0.75128 0.68281 0.38384 0.0
H553 H 0.82525 0.69422 0.46318 0.0
H554 H 0.66421 0.62103 0.41754 0.0
H555 H 0.6675 0.66634 0.42036 0.0
H556 H 0.6838 0.65155 0.38578 0.0
H557 H 0.80098 0.67113 0.512 0.0
H558 H 0.75935 0.68146 0.5195 0.0
H559 H 0.75309 0.63571 0.51311 0.0
H560 H 0.63272 0.67404 0.51958 0.0
H561 H 0.62329 0.56515 0.50742 0.0
H562 H 0.69693 0.71322 0.46115 0.0
H563 H 0.72783 0.71777 0.49406 0.0
H564 H 0.68297 0.72353 0.4987 0.0
H565 H 0.68508 0.57935 0.44596 0.0
H566 H 0.66854 0.55084 0.47935 0.0
H567 H 0.71675 0.58576 0.47862 0.0
C568 C 0.29212 0.42161 0.14349 0.0
C569 C 0.30027 0.41017 0.17237 0.0
C570 C 0.25753 0.42632 0.13822 0.0
C571 C 0.23032 0.41933 0.16238 0.0
C572 C 0.23822 0.40758 0.19154 0.0
C573 C 0.27312 0.4032 0.1962 0.0
C574 C 0.25011 0.43883 0.10678 0.0
C575 C 0.20992 0.39991 0.21786 0.0
C576 C 0.15899 0.46443 0.15672 0.0
C577 C 0.12598 0.43659 0.14434 0.0
C578 C 0.19292 0.45899 0.16319 0.0
C579 C 0.19387 0.42485 0.15717 0.0
C580 C 0.16044 0.39643 0.14522 0.0
C581 C 0.12689 0.40266 0.13888 0.0
C582 C 0.22803 0.49005 0.17577 0.0
C583 C 0.16031 0.35961 0.13865 0.0
H584 H 0.31265 0.42649 0.12482 0.0
H585 H 0.2794 0.39474 0.21868 0.0
H586 H 0.22299 0.41871 0.09647 0.0
H587 H 0.24614 0.46452 0.10925 0.0
H588 H 0.27417 0.44301 0.09044 0.0
H589 H 0.21999 0.39015 0.23887 0.0
H590 H 0.20551 0.42471 0.22407 0.0
H591 H 0.18134 0.37931 0.21053 0.0
H592 H 0.15869 0.49088 0.16052 0.0
H593 H 0.10134 0.38097 0.12959 0.0
H594 H 0.25208 0.49695 0.15901 0.0
H595 H 0.23814 0.48223 0.19772 0.0
H596 H 0.22209 0.5145 0.18022 0.0
H597 H 0.18205 0.36167 0.1207 0.0
H598 H 0.13154 0.34005 0.13044 0.0
H599 H 0.16867 0.34887 0.15987 0.0
C600 C 0.60505 0.33157 0.92768 0.0
C601 C 0.64238 0.34501 0.91512 0.0
C602 C 0.59034 0.29846 0.94331 0.0
C603 C 0.61336 0.27802 0.94639 0.0
C604 C 0.65048 0.29078 0.93273 0.0
C605 C 0.66459 0.32413 0.91742 0.0
C606 C 0.55076 0.2861 0.95771 0.0
C607 C 0.67583 0.26973 0.93512 0.0
C608 C 0.59502 0.21593 0.01602 0.0
C609 C 0.57221 0.18207 1.00308 0.0
C610 C 0.60865 0.24716 0.99781 0.0
C611 C 0.59966 0.24466 0.96568 0.0
C612 C 0.57715 0.21052 0.95232 0.0
C613 C 0.56354 0.1797 0.97117 0.0
C614 C 0.63229 0.28298 1.01313 0.0
C615 C 0.56723 0.20661 0.91813 0.0
H616 H 0.58787 0.3477 0.92646 0.0
H617 H 0.69333 0.33416 0.90758 0.0
H618 H 0.5326 0.25816 0.95011 0.0
H619 H 0.55365 0.28587 0.98334 0.0
H620 H 0.53549 0.30381 0.95157 0.0
H621 H 0.70254 0.28179 0.92118 0.0
H622 H 0.68434 0.2688 0.95971 0.0
H623 H 0.65961 0.24149 0.92721 0.0
H624 H 0.60185 0.21823 0.04062 0.0
H625 H 0.54606 0.15373 0.96087 0.0
H626 H 0.61747 0.30171 1.01012 0.0
H627 H 0.66094 0.29544 1.0019 0.0
H628 H 0.63696 0.28036 0.03832 0.0
H629 H 0.54993 0.22254 0.91218 0.0
H630 H 0.55051 0.1781 0.91108 0.0
H631 H 0.59412 0.21749 0.90433 0.0
C632 C 0.92113 0.80851 0.44227 0.0
C633 C 0.90822 0.80618 0.41131 0.0
C634 C 0.93831 0.84188 0.45784 0.0
C635 C 0.94336 0.87409 0.44207 0.0
C636 C 0.93258 0.87217 0.41028 0.0
C637 C 0.91503 0.83829 0.39532 0.0
C638 C 0.94933 0.84246 0.49168 0.0
C639 C 0.93794 0.90581 0.39241 0.0
C640 C 0.9443 0.95274 0.49221 0.0
C641 C 0.98408 0.9736 0.496 0.0
C642 C 0.93076 0.92075 0.47436 0.0
C643 C 0.95754 0.9093 0.4595 0.0
C644 C 0.99771 0.93068 0.4626 0.0
C645 C 0.01048 0.96237 0.48091 0.0
C646 C 0.88771 0.89869 0.47201 0.0
C647 C 0.02727 0.9198 0.44693 0.0
H648 H 0.91659 0.78395 0.45474 0.0
H649 H 0.90494 0.83694 0.37154 0.0
H650 H 0.9799 0.8612 0.49556 0.0
H651 H 0.93108 0.85247 0.50588 0.0
H652 H 0.94561 0.81535 0.50013 0.0
H653 H 0.93207 0.90025 0.3672 0.0
H654 H 0.918 0.91771 0.40141 0.0
H655 H 0.9679 0.92627 0.39564 0.0
H656 H 0.92358 0.96099 0.50377 0.0
H657 H 0.04127 0.97829 0.48348 0.0
H658 H 0.88083 0.87169 0.48215 0.0
H659 H 0.87834 0.89451 0.44731 0.0
H660 H 0.87061 0.91168 0.48423 0.0
H661 H 0.02606 0.89399 0.45664 0.0
H662 H 0.05722 0.94043 0.44994 0.0
H663 H 0.02057 0.91528 0.42175 0.0
C664 C 0.26741 0.74735 0.69406 0.0
C665 C 0.27712 0.78093 0.70866 0.0
C666 C 0.29619 0.73756 0.68134 0.0
C667 C 0.33543 0.7621 0.68308 0.0
C668 C 0.34526 0.79631 0.69725 0.0
C669 C 0.31598 0.80527 0.70993 0.0
C670 C 0.28471 0.70075 0.66655 0.0
C671 C 0.38674 0.82333 0.69928 0.0
C672 C 0.4145 0.72613 0.67876 0.0
C673 C 0.42604 0.73297 0.64781 0.0
C674 C 0.38481 0.73522 0.69046 0.0
C675 C 0.36643 0.75176 0.67076 0.0
C676 C 0.37812 0.75894 0.63953 0.0
C677 C 0.40772 0.74932 0.62838 0.0
C678 C 0.37295 0.72695 0.72385 0.0
C679 C 0.35946 0.77691 0.61796 0.0
H680 H 0.2374 0.72846 0.6932 0.0
H681 H 0.32347 0.83149 0.72077 0.0
H682 H 0.29502 0.70342 0.6423 0.0
H683 H 0.29868 0.68518 0.67927 0.0
H684 H 0.25286 0.68516 0.66645 0.0
H685 H 0.38934 0.84918 0.71022 0.0
H686 H 0.40434 0.81203 0.71302 0.0
H687 H 0.39935 0.82898 0.67575 0.0
H688 H 0.42823 0.713 0.6937 0.0
H689 H 0.41681 0.75485 0.6045 0.0
H690 H 0.34173 0.70915 0.72495 0.0
H691 H 0.37708 0.7522 0.73656 0.0
H692 H 0.38982 0.71357 0.73598 0.0
H693 H 0.32786 0.76062 0.61616 0.0
H694 H 0.37183 0.7805 0.5943 0.0
H695 H 0.36332 0.80373 0.62744 0.0
C696 C 0.7791 0.86193 0.82817 0.0
C697 C 0.77004 0.87712 0.85468 0.0
C698 C 0.79199 0.88217 0.80123 0.0
C699 C 0.79634 0.91862 0.80092 0.0
C700 C 0.78629 0.93388 0.82739 0.0
C701 C 0.77297 0.91279 0.85398 0.0
C702 C 0.80182 0.86473 0.77332 0.0
C703 C 0.79089 0.97274 0.82797 0.0
C704 C 0.8694 0.97486 0.7423 0.0
C705 C 0.84538 0.97503 0.71726 0.0
C706 C 0.85371 0.95818 0.77031 0.0
C707 C 0.81301 0.94089 0.77323 0.0
C708 C 0.78855 0.9422 0.74855 0.0
C709 C 0.80503 0.95943 0.72092 0.0
C710 C 0.88074 0.95761 0.79623 0.0
C711 C 0.74502 0.92398 0.75078 0.0
H712 H 0.77639 0.83418 0.82867 0.0
H713 H 0.76615 0.92454 0.8746 0.0
H714 H 0.78573 0.86772 0.75255 0.0
H715 H 0.83317 0.87842 0.76835 0.0
H716 H 0.79485 0.8356 0.77682 0.0
H717 H 0.77948 0.97982 0.84958 0.0
H718 H 0.82201 0.99063 0.8261 0.0
H719 H 0.77568 0.97834 0.80779 0.0
H720 H 0.90057 0.9865 0.73964 0.0
H721 H 0.78625 0.9601 0.70193 0.0
H722 H 0.87882 0.9297 0.79937 0.0
H723 H 0.87217 0.96626 0.81842 0.0
H724 H 0.91136 0.97538 0.79152 0.0
H725 H 0.73622 0.89434 0.75181 0.0
H726 H 0.73006 0.93014 0.73066 0.0
H727 H 0.73496 0.9324 0.77238 0.0
C728 C 0.76735 0.19623 0.37888 0.0
C729 C 0.78382 0.23369 0.38346 0.0
C730 C 0.74431 0.18093 0.3526 0.0
C731 C 0.73815 0.20374 0.33025 0.0
C732 C 0.75296 0.24144 0.33567 0.0
C733 C 0.77547 0.25596 0.36235 0.0
C734 C 0.72838 0.14057 0.34793 0.0
C735 C 0.7473 0.2667 0.31228 0.0
C736 C 0.72833 0.17481 0.24586 0.0
C737 C 0.68885 0.16584 0.23985 0.0
C738 C 0.74446 0.18654 0.27533 0.0
C739 C 0.72044 0.18885 0.29963 0.0
C740 C 0.68026 0.17842 0.29416 0.0
C741 C 0.66493 0.16718 0.26424 0.0
C742 C 0.78749 0.19741 0.28021 0.0
C743 C 0.65372 0.18009 0.31965 0.0
H744 H 0.7734 0.17898 0.39546 0.0
H745 H 0.78837 0.28494 0.36583 0.0
H746 H 0.69743 0.13019 0.34077 0.0
H747 H 0.74437 0.13382 0.32908 0.0
H748 H 0.73109 0.1264 0.36927 0.0
H749 H 0.75736 0.29478 0.32132 0.0
H750 H 0.76373 0.26677 0.29099 0.0
H751 H 0.71632 0.25741 0.30548 0.0
H752 H 0.74682 0.17306 0.22731 0.0
H753 H 0.63444 0.1605 0.25975 0.0
H754 H 0.79283 0.18152 0.29926 0.0
H755 H 0.80118 0.22625 0.28719 0.0
H756 H 0.80197 0.19341 0.25901 0.0
H757 H 0.65767 0.16585 0.3405 0.0
H758 H 0.62276 0.16796 0.31238 0.0
H759 H 0.66114 0.20858 0.32652 0.0
C760 C 0.47895 0.71064 0.36057 0.0
C761 C 0.4446 0.69806 0.34274 0.0
C762 C 0.48094 0.69625 0.38985 0.0
C763 C 0.44766 0.66857 0.40208 0.0
C764 C 0.41213 0.65746 0.3852 0.0
C765 C 0.41101 0.6723 0.35571 0.0
C766 C 0.51945 0.70921 0.40679 0.0
C767 C 0.37579 0.62846 0.39747 0.0
C768 C 0.47065 0.60367 0.45468 0.0
C769 C 0.46896 0.61715 0.48452 0.0
C770 C 0.46224 0.61923 0.42793 0.0
C771 C 0.45151 0.64905 0.43075 0.0
C772 C 0.4481 0.66187 0.46083 0.0
C773 C 0.457 0.64593 0.4873 0.0
C774 C 0.46653 0.60463 0.39648 0.0
C775 C 0.43637 0.69328 0.46506 0.0
H776 H 0.50494 0.73089 0.35093 0.0
H777 H 0.38439 0.66233 0.34214 0.0
H778 H 0.51624 0.71662 0.4311 0.0
H779 H 0.53002 0.68715 0.40756 0.0
H780 H 0.54177 0.73287 0.39546 0.0
H781 H 0.34962 0.62653 0.3841 0.0
H782 H 0.37834 0.60204 0.39604 0.0
H783 H 0.37183 0.63364 0.42224 0.0
H784 H 0.4797 0.58145 0.45203 0.0
H785 H 0.45543 0.65661 0.51013 0.0
H786 H 0.49051 0.62542 0.38382 0.0
H787 H 0.43972 0.59817 0.38242 0.0
H788 H 0.47275 0.57998 0.39818 0.0
H789 H 0.45985 0.7183 0.45684 0.0
H790 H 0.43051 0.69729 0.48971 0.0
H791 H 0.41011 0.68919 0.45094 0.0
C792 C 0.16522 0.47913 0.88007 0.0
C793 C 0.13772 0.45226 0.86162 0.0
C794 C 0.15394 0.49837 0.90266 0.0
C795 C 0.11405 0.49015 0.90745 0.0
C796 C 0.08626 0.4641 0.88786 0.0
C797 C 0.09843 0.4455 0.86524 0.0
C798 C 0.1847 0.52608 0.92259 0.0
C799 C 0.04349 0.45426 0.89205 0.0
C800 C 0.08293 0.5059 0.98879 0.0
C801 C 0.07658 0.53771 0.98513 0.0
C802 C 0.09506 0.49029 0.96381 0.0
C803 C 0.10137 0.50684 0.93426 0.0
C804 C 0.09551 0.53919 0.93051 0.0
C805 C 0.08311 0.5541 0.95583 0.0
C806 C 0.10073 0.45573 0.96901 0.0
C807 C 0.10216 0.55801 0.89964 0.0
H808 H 0.19555 0.48382 0.87786 0.0
H809 H 0.07703 0.42407 0.85165 0.0
H810 H 0.17995 0.5515 0.92353 0.0
H811 H 0.18289 0.51603 0.94666 0.0
H812 H 0.21433 0.53212 0.91389 0.0
H813 H 0.02579 0.43594 0.87336 0.0
H814 H 0.03441 0.44069 0.91467 0.0
H815 H 0.03714 0.47886 0.89247 0.0
H816 H 0.07788 0.49279 1.01115 0.0
H817 H 0.07839 0.57865 0.95255 0.0
H818 H 0.13095 0.45974 0.96358 0.0
H819 H 0.0814 0.43434 0.95314 0.0
H820 H 0.0946 0.44614 0.99326 0.0
H821 H 0.13229 0.56455 0.89204 0.0
H822 H 0.09708 0.58331 0.90056 0.0
H823 H 0.08258 0.53986 0.88176 0.0
C824 C 0.61184 0.88545 1.0023 0.0
C825 C 0.62575 0.88213 0.97286 0.0
C826 C 0.60163 0.91441 1.00958 0.0
C827 C 0.60541 0.94076 0.98688 0.0
C828 C 0.61989 0.93786 0.95723 0.0
C829 C 0.62993 0.90857 0.95057 0.0
C830 C 0.58645 0.91662 0.04153 0.0
C831 C 0.62418 0.96537 0.93241 0.0
C832 C 0.54163 0.99245 0.99974 0.0
C833 C 0.56732 0.02386 1.01471 0.0
C834 C 0.55408 0.96586 0.98936 0.0
C835 C 0.59313 0.9707 0.99414 0.0
C836 C 0.61961 1.00302 1.00798 0.0
C837 C 0.6064 0.02927 0.01806 0.0
C838 C 0.52499 0.93188 0.97451 0.0
C839 C 0.66151 0.00915 1.01342 0.0
H840 H 0.60915 0.86542 0.01978 0.0
H841 H 0.64034 0.90597 0.92769 0.0
H842 H 0.60462 0.94266 0.05283 0.0
H843 H 0.55657 0.9156 0.03966 0.0
H844 H 0.58606 0.89435 0.05674 0.0
H845 H 0.63723 0.95998 0.91095 0.0
H846 H 0.59539 0.96537 0.92646 0.0
H847 H 0.64254 0.99279 0.94113 0.0
H848 H 0.51142 0.98811 0.99683 0.0
H849 H 0.62647 0.05343 0.02958 0.0
H850 H 0.52035 0.90863 0.98991 0.0
H851 H 0.53614 0.92626 0.95221 0.0
H852 H 0.4966 0.93359 0.9701 0.0
H853 H 0.66334 0.98972 0.03082 0.0
H854 H 0.67908 0.03691 0.02196 0.0
H855 H 0.67442 1.00433 0.99171 0.0
C856 C 0.91714 0.22627 0.41665 0.0
C857 C 0.9031 0.24142 0.4406 0.0
C858 C 0.93901 0.20583 0.42325 0.0
C859 C 0.94773 0.20113 0.45448 0.0
C860 C 0.93692 0.21924 0.47848 0.0
C861 C 0.91437 0.23877 0.47131 0.0
C862 C 0.9501 0.18701 0.39702 0.0
C863 C 0.94643 0.21562 0.51209 0.0
C864 C 0.94872 0.11434 0.4852 0.0
C865 C 0.98816 0.124 0.49134 0.0
C866 C 0.93556 0.13833 0.47064 0.0
C867 C 0.9625 0.1732 0.46285 0.0
C868 C 1.00268 0.18223 0.46714 0.0
C869 C 0.01513 0.15723 0.48114 0.0
C870 C 0.89252 0.12724 0.46574 0.0
C871 C 0.03228 0.21918 0.45942 0.0
H872 H 0.90962 0.22902 0.39275 0.0
H873 H 0.9036 0.24999 0.49013 0.0
H874 H 0.98018 0.18894 0.40013 0.0
H875 H 0.93069 0.15798 0.39694 0.0
H876 H 0.94749 0.19835 0.3741 0.0
H877 H 0.941 0.23539 0.52731 0.0
H878 H 0.92832 0.18809 0.52017 0.0
H879 H 0.9772 0.21946 0.51481 0.0
H880 H 0.92797 0.08844 0.49291 0.0
H881 H 0.04568 0.16473 0.48613 0.0
H882 H 0.88633 0.13411 0.44197 0.0
H883 H 0.88172 0.14216 0.48232 0.0
H884 H 0.87608 0.0979 0.46928 0.0
H885 H 0.02505 0.22878 0.43713 0.0
H886 H 0.06192 0.21949 0.45802 0.0
H887 H 0.03234 0.23856 0.4778 0.0
C888 C 0.3 0.68222 0.18708 0.0
C889 C 0.30217 0.71332 0.20311 0.0
C890 C 0.26731 0.66199 0.16873 0.0
C891 C 0.23584 0.6729 0.16658 0.0
C892 C 0.23724 0.70338 0.18385 0.0
C893 C 0.27041 0.72329 0.20169 0.0
C894 C 0.26714 0.62981 0.15063 0.0
C895 C 0.20412 0.71562 0.18276 0.0
C896 C 0.16817 0.64816 0.09586 0.0
C897 C 0.13542 0.61971 0.1071 0.0
C898 C 0.20142 0.66497 0.11465 0.0
C899 C 0.20197 0.65332 0.14557 0.0
C900 C 0.16939 0.62405 0.15678 0.0
C901 C 0.13669 0.60757 0.13744 0.0
C902 C 0.23571 0.69579 0.10163 0.0
C903 C 0.16855 0.61083 0.18958 0.0
H904 H 0.32466 0.67466 0.1877 0.0
H905 H 0.27189 0.74723 0.21412 0.0
H906 H 0.24058 0.60567 0.15559 0.0
H907 H 0.26687 0.63506 0.12541 0.0
H908 H 0.29281 0.62363 0.1561 0.0
H909 H 0.2087 0.7385 0.19892 0.0
H910 H 0.20066 0.72412 0.15888 0.0
H911 H 0.17662 0.693 0.18875 0.0
H912 H 0.16767 0.65773 0.07248 0.0
H913 H 0.11168 0.5856 0.14649 0.0
H914 H 0.26238 0.69052 0.10449 0.0
H915 H 0.24031 0.72097 0.11463 0.0
H916 H 0.23173 0.70021 0.07665 0.0
H917 H 0.19409 0.60423 0.19415 0.0
H918 H 0.1419 0.58658 0.19426 0.0
H919 H 0.17014 0.63246 0.2062 0.0
C920 C 0.27834 0.43504 0.70378 0.0
C921 C 0.24432 0.44142 0.70267 0.0
C922 C 0.31043 0.45501 0.68553 0.0
C923 C 0.3084 0.48191 0.66543 0.0
C924 C 0.27431 0.48905 0.66486 0.0
C925 C 0.24261 0.46861 0.68344 0.0
C926 C 0.3461 0.44652 0.68708 0.0
C927 C 0.27087 0.51745 0.64387 0.0
C928 C 0.4046 0.55058 0.636 0.0
C929 C 0.40768 0.53608 0.60688 0.0
C930 C 0.37212 0.53383 0.65487 0.0
C931 C 0.34162 0.50173 0.64451 0.0
C932 C 0.34392 0.48756 0.61475 0.0
C933 C 0.37686 0.50481 0.59636 0.0
C934 C 0.37103 0.54992 0.68638 0.0
C935 C 0.31199 0.45354 0.60266 0.0
H936 H 0.27934 0.41356 0.71829 0.0
H937 H 0.216 0.47305 0.68219 0.0
H938 H 0.35085 0.43637 0.66418 0.0
H939 H 0.37202 0.47134 0.6925 0.0
H940 H 0.34374 0.42596 0.70486 0.0
H941 H 0.24342 0.52116 0.6474 0.0
H942 H 0.29555 0.54364 0.64798 0.0
H943 H 0.2721 0.50972 0.61929 0.0
H944 H 0.42805 0.57474 0.6445 0.0
H945 H 0.37875 0.49333 0.57396 0.0
H946 H 0.37165 0.531 0.70475 0.0
H947 H 0.34371 0.55403 0.68899 0.0
H948 H 0.39584 0.57613 0.69029 0.0
H949 H 0.3098 0.43052 0.61757 0.0
H950 H 0.31697 0.44712 0.5784 0.0
H951 H 0.28374 0.4562 0.60361 0.0
C952 C 0.81666 0.78493 0.91213 0.0
C953 C 0.79971 0.801 0.93304 0.0
C954 C 0.84359 0.77115 0.92227 0.0
C955 C 0.85358 0.77317 0.95415 0.0
C956 C 0.83569 0.7883 0.97554 0.0
C957 C 0.80902 0.80214 0.96472 0.0
C958 C 0.86201 0.75514 0.89875 0.0
C959 C 0.84543 0.79067 1.00976 0.0
C960 C 0.90221 0.71242 0.98275 0.0
C961 C 0.94137 0.73617 0.98354 0.0
C962 C 0.87324 0.72419 0.97364 0.0
C963 C 0.88371 0.76051 0.96489 0.0
C964 C 0.92313 0.78465 0.9657 0.0
C965 C 0.95148 0.77221 0.97508 0.0
C966 C 0.83151 0.69766 0.97306 0.0
C967 C 0.93539 0.82358 0.95642 0.0
H968 H 0.80906 0.78338 0.88769 0.0
H969 H 0.79632 0.81481 0.98096 0.0
H970 H 0.89375 0.77105 0.89846 0.0
H971 H 0.85735 0.72721 0.90528 0.0
H972 H 0.85022 0.75464 0.87495 0.0
H973 H 0.82745 0.80143 0.02354 0.0
H974 H 0.84118 0.76365 0.01867 0.0
H975 H 0.87638 0.80846 1.01353 0.0
H976 H 0.89422 0.68438 0.98875 0.0
H977 H 0.98161 0.79078 0.97598 0.0
H978 H 0.81963 0.69478 0.94908 0.0
H979 H 0.8138 0.7078 0.98775 0.0
H980 H 0.82812 0.6706 0.98141 0.0
H981 H 0.92652 0.82504 0.93202 0.0
H982 H 0.96719 0.83894 0.95862 0.0
H983 H 0.92068 0.83689 0.97108 0.0
C984 C 0.44497 0.84498 0.18957 0.0
C985 C 0.41037 0.8343 0.2062 0.0
C986 C 0.4595 0.87791 0.17358 0.0
C987 C 0.43941 0.90116 0.17473 0.0
C988 C 0.40528 0.89109 0.19256 0.0
C989 C 0.39093 0.85763 0.20772 0.0
C990 C 0.49553 0.88714 0.15442 0.0
C991 C 0.3834 0.9153 0.19507 0.0
C992 C 0.49441 0.99909 0.15058 0.0
C993 C 0.48003 0.99908 0.1204 0.0
C994 C 0.48096 0.9677 0.16873 0.0
C995 C 0.45313 0.93517 0.1562 0.0
C996 C 0.43859 0.93502 0.1257 0.0
C997 C 0.45185 0.96699 0.10836 0.0
C998 C 0.49659 0.96935 0.20134 0.0
C999 C 0.40951 0.90086 0.11112 0.0
H1000 H 0.45977 0.8268 0.18795 0.0
H1001 H 0.36418 0.84946 0.22055 0.0
H1002 H 0.48841 0.88891 0.12961 0.0
H1003 H 0.51755 0.91387 0.16149 0.0
H1004 H 0.50845 0.8668 0.15669 0.0
H1005 H 0.35925 0.90498 0.2118 0.0
H1006 H 0.40329 0.94282 0.20248 0.0
H1007 H 0.37129 0.91767 0.17203 0.0
H1008 H 0.51605 0.02377 0.16016 0.0
H1009 H 0.44086 0.96658 0.08496 0.0
H1010 H 0.5119 0.95093 0.20343 0.0
H1011 H 0.47236 0.96013 0.21801 0.0
H1012 H 0.51697 0.99698 0.20812 0.0
H1013 H 0.4216 0.87983 0.11064 0.0
H1014 H 0.40143 0.90507 0.08706 0.0
H1015 H 0.38287 0.89033 0.12522 0.0
C1016 C 0.09776 0.30515 0.69606 0.0
C1017 C 0.13762 0.31989 0.70264 0.0
C1018 C 0.08038 0.27236 0.67942 0.0
C1019 C 0.10326 0.25345 0.66976 0.0
C1020 C 0.14328 0.26771 0.67745 0.0
C1021 C 0.15998 0.30084 0.69344 0.0
C1022 C 0.03784 0.25859 0.67123 0.0
C1023 C 0.16872 0.24828 0.66827 0.0
C1024 C 0.05582 0.15401 0.64546 0.0
C1025 C 0.05897 0.15611 0.61304 0.0
C1026 C 0.06956 0.18539 0.66423 0.0
C1027 C 0.0861 0.2198 0.65027 0.0
C1028 C 0.08813 0.22202 0.61749 0.0
C1029 C 0.07499 0.19027 0.59937 0.0
C1030 C 0.06744 0.18167 0.69905 0.0
C1031 C 0.10476 0.25802 0.60149 0.0
H1032 H 0.08046 0.31992 0.70301 0.0
H1033 H 0.19077 0.31203 0.69873 0.0
H1034 H 0.03412 0.25812 0.64564 0.0
H1035 H 0.02267 0.23053 0.67936 0.0
H1036 H 0.02371 0.27554 0.68151 0.0
H1037 H 0.19857 0.26154 0.67794 0.0
H1038 H 0.156 0.22001 0.6764 0.0
H1039 H 0.17046 0.2474 0.64262 0.0
H1040 H 0.04359 0.12776 0.65624 0.0
H1041 H 0.07717 0.19226 0.57433 0.0
H1042 H 0.05202 0.19764 0.70895 0.0
H1043 H 0.09714 0.19258 0.70917 0.0
H1044 H 0.05243 0.15318 0.70632 0.0
H1045 H 0.09012 0.27551 0.60962 0.0
H1046 H 0.10169 0.25528 0.57584 0.0
H1047 H 0.13596 0.27195 0.60748 0.0
C1048 C 0.73625 0.35165 0.47213 0.0
C1049 C 0.77233 0.37439 0.48459 0.0
C1050 C 0.705 0.36234 0.4714 0.0
C1051 C 0.70998 0.3966 0.48339 0.0
C1052 C 0.74691 0.42049 0.49433 0.0
C1053 C 0.77764 0.40905 0.49488 0.0
C1054 C 0.66608 0.33609 0.45956 0.0
C1055 C 0.75345 0.45742 0.50698 0.0
C1056 C 0.63241 0.43318 0.46862 0.0
C1057 C 0.61217 0.42514 0.49663 0.0
C1058 C 0.66424 0.42387 0.46379 0.0
C1059 C 0.67582 0.40597 0.48748 0.0
C1060 C 0.65498 0.3972 0.51555 0.0
C1061 C 0.62347 0.40697 0.51979 0.0
C1062 C 0.6859 0.43379 0.43364 0.0
C1063 C 0.66622 0.37782 0.54127 0.0
H1064 H 0.73182 0.32467 0.46445 0.0
H1065 H 0.80562 0.42687 0.50416 0.0
H1066 H 0.64584 0.32657 0.47925 0.0
H1067 H 0.6534 0.34946 0.44299 0.0
H1068 H 0.66802 0.31226 0.4479 0.0
H1069 H 0.78461 0.47409 0.51148 0.0
H1070 H 0.74192 0.47191 0.49055 0.0
H1071 H 0.7376 0.45464 0.52906 0.0
H1072 H 0.62399 0.44761 0.45081 0.0
H1073 H 0.60761 0.40041 0.54133 0.0
H1074 H 0.68702 0.40944 0.42242 0.0
H1075 H 0.71623 0.45275 0.43828 0.0
H1076 H 0.67239 0.44659 0.41716 0.0
H1077 H 0.6659 0.35182 0.53248 0.0
H1078 H 0.64649 0.37233 0.56138 0.0
H1079 H 0.69615 0.39424 0.54945 0.0
loop_
_geom_bond_atom_site_label_1
_geom_bond_atom_site_label_2
_geom_bond_distance
_geom_bond_site_symmetry_2
_ccdc_geom_bond_type
H0 C1 0.949 . S
C1 H0 0.949 . S
C1 C2 1.395 . S
C1 C3 1.391 . S
C2 C1 1.395 . S
C2 C5 1.390 . S
C3 C1 1.391 . S
C3 C7 1.387 . S
C3 C8 1.491 . S
H4 C5 0.950 . S
C5 C2 1.390 . S
C5 H4 0.950 . S
C5 C6 1.378 . S
C6 C5 1.378 . S
C6 C7 1.409 . S
C7 C3 1.387 . S
C7 C6 1.409 . S
C7 H9 0.951 . S
C8 C3 1.491 . S
C8 C10 1.382 . S
C8 C12 1.404 . S
H9 C7 0.951 . S
C10 C8 1.382 . S
C10 C11 1.390 . S
C10 H15 0.949 . S
C11 C10 1.390 . S
C11 C16 1.399 . S
C12 C8 1.404 . S
C12 H13 0.950 . S
C12 C14 1.375 . S
H13 C12 0.950 . S
C14 C12 1.375 . S
C14 C16 1.382 . S
C14 H18 0.950 . S
H15 C10 0.949 . S
C16 C11 1.399 . S
C16 C14 1.382 . S
C16 H17 0.952 . S
H17 C16 0.952 . S
H18 C14 0.950 . S
H19 C20 0.949 . S
C20 H19 0.949 . S
C20 C21 1.395 . S
C20 C22 1.391 . S
C21 C20 1.395 . S
C21 C24 1.390 . S
C22 C20 1.391 . S
C22 C26 1.387 . S
C22 C27 1.491 . S
H23 C24 0.950 . S
C24 C21 1.390 . S
C24 H23 0.950 . S
C24 C25 1.378 . S
C25 C24 1.378 . S
C25 C26 1.409 . S
C26 C22 1.387 . S
C26 C25 1.409 . S
C26 H28 0.951 . S
C27 C22 1.491 . S
C27 C29 1.382 . S
C27 C31 1.404 . S
H28 C26 0.951 . S
C29 C27 1.382 . S
C29 C30 1.390 . S
C29 H34 0.949 . S
C30 C29 1.390 . S
C30 C35 1.399 . S
C31 C27 1.404 . S
C31 H32 0.950 . S
C31 C33 1.375 . S
H32 C31 0.950 . S
C33 C31 1.375 . S
C33 C35 1.382 . S
C33 H37 0.950 . S
H34 C29 0.949 . S
C35 C30 1.399 . S
C35 C33 1.382 . S
C35 H36 0.952 . S
H36 C35 0.952 . S
H37 C33 0.950 . S
H38 C39 0.949 . S
C39 H38 0.949 . S
C39 C40 1.395 . S
C39 C41 1.391 . S
C40 C39 1.395 . S
C40 C43 1.390 . S
C41 C39 1.391 . S
C41 C45 1.387 . S
C41 C46 1.491 . S
H42 C43 0.950 . S
C43 C40 1.390 . S
C43 H42 0.950 . S
C43 C44 1.378 . S
C44 C43 1.378 . S
C44 C45 1.409 . S
C45 C41 1.387 . S
C45 C44 1.409 . S
C45 H47 0.951 . S
C46 C41 1.491 . S
C46 C48 1.382 . S
C46 C50 1.404 . S
H47 C45 0.951 . S
C48 C46 1.382 . S
C48 C49 1.390 . S
C48 H53 0.949 . S
C49 C48 1.390 . S
C49 C54 1.399 . S
C50 C46 1.404 . S
C50 H51 0.950 . S
C50 C52 1.375 . S
H51 C50 0.950 . S
C52 C50 1.375 . S
C52 C54 1.382 . S
C52 H56 0.950 . S
H53 C48 0.949 . S
C54 C49 1.399 . S
C54 C52 1.382 . S
C54 H55 0.952 . S
H55 C54 0.952 . S
H56 C52 0.950 . S
H57 C58 0.949 . S
C58 H57 0.949 . S
C58 C59 1.395 . S
C58 C60 1.391 . S
C59 C58 1.395 . S
C59 C62 1.390 . S
C60 C58 1.391 . S
C60 C64 1.387 . S
C60 C65 1.491 . S
H61 C62 0.950 . S
C62 C59 1.390 . S
C62 H61 0.950 . S
C62 C63 1.378 . S
C63 C62 1.378 . S
C63 C64 1.409 . S
C64 C60 1.387 . S
C64 C63 1.409 . S
C64 H66 0.951 . S
C65 C60 1.491 . S
C65 C67 1.382 . S
C65 C69 1.404 . S
H66 C64 0.951 . S
C67 C65 1.382 . S
C67 C68 1.390 . S
C67 H72 0.949 . S
C68 C67 1.390 . S
C68 C73 1.399 . S
C69 C65 1.404 . S
C69 H70 0.950 . S
C69 C71 1.375 . S
H70 C69 0.950 . S
C71 C69 1.375 . S
C71 C73 1.382 . S
C71 H75 0.950 . S
H72 C67 0.949 . S
C73 C68 1.399 . S
C73 C71 1.382 . S
C73 H74 0.952 . S
H74 C73 0.952 . S
H75 C71 0.950 . S
H76 C77 0.949 . S
C77 H76 0.949 . S
C77 C78 1.395 . S
C77 C79 1.391 . S
C78 C77 1.395 . S
C78 C81 1.390 . S
C79 C77 1.391 . S
C79 C83 1.387 . S
C79 C84 1.491 . S
H80 C81 0.950 . S
C81 C78 1.390 . S
C81 H80 0.950 . S
C81 C82 1.378 . S
C82 C81 1.378 . S
C82 C83 1.409 . S
C83 C79 1.387 . S
C83 C82 1.409 . S
C83 H85 0.951 . S
C84 C79 1.491 . S
C84 C86 1.382 . S
C84 C88 1.404 . S
H85 C83 0.951 . S
C86 C84 1.382 . S
C86 C87 1.390 . S
C86 H91 0.949 . S
C87 C86 1.390 . S
C87 C92 1.399 . S
C88 C84 1.404 . S
C88 H89 0.950 . S
C88 C90 1.375 . S
H89 C88 0.950 . S
C90 C88 1.375 . S
C90 C92 1.382 . S
C90 H94 0.950 . S
H91 C86 0.949 . S
C92 C87 1.399 . S
C92 C90 1.382 . S
C92 H93 0.952 . S
H93 C92 0.952 . S
H94 C90 0.950 . S
H95 C96 0.949 . S
C96 H95 0.949 . S
C96 C97 1.395 . S
C96 C98 1.391 . S
C97 C96 1.395 . S
C97 C100 1.390 . S
C98 C96 1.391 . S
C98 C102 1.387 . S
C98 C103 1.491 . S
H99 C100 0.950 . S
C100 C97 1.390 . S
C100 H99 0.950 . S
C100 C101 1.378 . S
C101 C100 1.378 . S
C101 C102 1.409 . S
C102 C98 1.387 . S
C102 C101 1.409 . S
C102 H104 0.951 . S
C103 C98 1.491 . S
C103 C105 1.382 . S
C103 C107 1.404 . S
H104 C102 0.951 . S
C105 C103 1.382 . S
C105 C106 1.390 . S
C105 H110 0.949 . S
C106 C105 1.390 . S
C106 C111 1.399 . S
C107 C103 1.404 . S
C107 H108 0.950 . S
C107 C109 1.375 . S
H108 C107 0.950 . S
C109 C107 1.375 . S
C109 C111 1.382 . S
C109 H113 0.950 . S
H110 C105 0.949 . S
C111 C106 1.399 . S
C111 C109 1.382 . S
C111 H112 0.952 . S
H112 C111 0.952 . S
H113 C109 0.950 . S
H114 C115 0.949 . S
C115 H114 0.949 . S
C115 C116 1.395 . S
C115 C117 1.391 . S
C116 C115 1.395 . S
C116 C119 1.390 . S
C117 C115 1.391 . S
C117 C121 1.387 . S
C117 C122 1.491 . S
H118 C119 0.950 . S
C119 C116 1.390 . S
C119 H118 0.950 . S
C119 C120 1.378 . S
C120 C119 1.378 . S
C120 C121 1.409 . S
C121 C117 1.387 . S
C121 C120 1.409 . S
C121 H123 0.951 . S
C122 C117 1.491 . S
C122 C124 1.382 . S
C122 C126 1.404 . S
H123 C121 0.951 . S
C124 C122 1.382 . S
C124 C125 1.390 . S
C124 H129 0.949 . S
C125 C124 1.390 . S
C125 C130 1.399 . S
C126 C122 1.404 . S
C126 H127 0.950 . S
C126 C128 1.375 . S
H127 C126 0.950 . S
C128 C126 1.375 . S
C128 C130 1.382 . S
C128 H132 0.950 . S
H129 C124 0.949 . S
C130 C125 1.399 . S
C130 C128 1.382 . S
C130 H131 0.952 . S
H131 C130 0.952 . S
H132 C128 0.950 . S
H133 C134 0.949 . S
C134 H133 0.949 . S
C134 C135 1.395 . S
C134 C136 1.391 . S
C135 C134 1.395 . S
C135 C138 1.390 . S
C136 C134 1.391 . S
C136 C140 1.387 . S
C136 C141 1.491 . S
H137 C138 0.950 . S
C138 C135 1.390 . S
C138 H137 0.950 . S
C138 C139 1.378 . S
C139 C138 1.378 . S
C139 C140 1.409 . S
C140 C136 1.387 . S
C140 C139 1.409 . S
C140 H142 0.951 . S
C141 C136 1.491 . S
C141 C143 1.382 . S
C141 C145 1.404 . S
H142 C140 0.951 . S
C143 C141 1.382 . S
C143 C144 1.390 . S
C143 H148 0.949 . S
C144 C143 1.390 . S
C144 C149 1.399 . S
C145 C141 1.404 . S
C145 H146 0.950 . S
C145 C147 1.375 . S
H146 C145 0.950 . S
C147 C145 1.375 . S
C147 C149 1.382 . S
C147 H151 0.950 . S
H148 C143 0.949 . S
C149 C144 1.399 . S
C149 C147 1.382 . S
C149 H150 0.952 . S
H150 C149 0.952 . S
H151 C147 0.950 . S
Dy152 O155 2.307 . S
Dy152 O157 2.395 . S
Dy152 O158 2.379 . S
Dy152 O160 2.339 1_545 S
Dy152 O162 2.298 . S
Dy152 O166 2.275 . S
Dy152 C174 2.738 . S
Dy153 O156 2.298 1_655 S
Dy153 O159 2.275 . S
Dy153 O161 2.307 . S
Dy153 O163 2.395 1_545 S
Dy153 O164 2.379 . S
Dy153 O167 2.339 1_655 S
Dy153 C183 2.738 1_545 S
C154 O166 1.254 . S
C154 O167 1.257 . S
O155 Dy152 2.307 . S
O155 C165 1.266 1_545 S
O156 Dy153 2.298 1_455 S
O156 C165 1.236 1_545 S
O157 Dy152 2.395 . S
O157 C174 1.255 . S
O158 Dy152 2.379 . S
O158 C174 1.249 . S
O159 Dy153 2.275 . S
O159 C175 1.254 1_545 S
O160 Dy152 2.339 1_565 S
O160 C175 1.257 1_455 S
O161 Dy153 2.307 . S
O161 C176 1.266 . S
O162 Dy152 2.298 . S
O162 C176 1.236 1_455 S
O163 Dy153 2.395 1_565 S
O163 C183 1.255 . S
O164 Dy153 2.379 . S
O164 C183 1.249 1_545 S
C165 O155 1.266 1_565 S
C165 O156 1.236 1_565 S
O166 Dy152 2.275 . S
O166 C154 1.254 . S
O167 Dy153 2.339 1_455 S
O167 C154 1.257 . S
C168 C171 1.344 . S
C168 C172 1.328 . S
C168 C174 1.516 . S
C169 C170 1.304 . S
C169 C173 1.323 . S
C170 C169 1.304 . S
C170 C171 1.371 . S
C170 H184 0.930 . S
C171 C168 1.344 . S
C171 C170 1.371 . S
C171 H185 0.931 . S
C172 C168 1.328 . S
C172 C173 1.433 . S
C172 H186 0.931 . S
C173 C169 1.323 . S
C173 C172 1.433 . S
C173 H187 0.933 . S
C174 Dy152 2.738 . S
C174 O157 1.255 . S
C174 O158 1.249 . S
C174 C168 1.516 . S
C175 O159 1.254 1_565 S
C175 O160 1.257 1_655 S
C176 O161 1.266 . S
C176 O162 1.236 1_655 S
C177 C180 1.344 . S
C177 C181 1.328 . S
C177 C183 1.516 . S
C178 C179 1.304 . S
C178 C182 1.323 . S
C179 C178 1.304 . S
C179 C180 1.371 . S
C179 H188 0.930 . S
C180 C177 1.344 . S
C180 C179 1.371 . S
C180 H189 0.931 . S
C181 C177 1.328 . S
C181 C182 1.433 . S
C181 H190 0.931 . S
C182 C178 1.323 . S
C182 C181 1.433 . S
C182 H191 0.933 . S
C183 Dy153 2.738 1_565 S
C183 O163 1.255 . S
C183 O164 1.249 1_565 S
C183 C177 1.516 . S
H184 C170 0.930 . S
H185 C171 0.931 . S
H186 C172 0.931 . S
H187 C173 0.933 . S
H188 C179 0.930 . S
H189 C180 0.931 . S
H190 C181 0.931 . S
H191 C182 0.933 . S
Dy192 O195 2.307 . S
Dy192 O197 2.395 1_545 S
Dy192 O198 2.379 1_554 S
Dy192 O200 2.339 . S
Dy192 O202 2.298 . S
Dy192 O206 2.275 1_545 S
Dy192 C214 2.738 1_545 S
Dy193 O196 2.298 . S
Dy193 O199 2.275 . S
Dy193 O201 2.307 . S
Dy193 O203 2.395 . S
Dy193 O204 2.379 . S
Dy193 O207 2.339 1_545 S
Dy193 C223 2.738 . S
C194 O206 1.254 . S
C194 O207 1.257 . S
O195 Dy192 2.307 . S
O195 C205 1.266 . S
O196 Dy193 2.298 . S
O196 C205 1.236 . S
O197 Dy192 2.395 1_565 S
O197 C214 1.255 . S
O198 Dy192 2.379 1_556 S
O198 C214 1.249 1_546 S
O199 Dy193 2.275 . S
O199 C215 1.254 . S
O200 Dy192 2.339 . S
O200 C215 1.257 . S
O201 Dy193 2.307 . S
O201 C216 1.266 1_545 S
O202 Dy192 2.298 . S
O202 C216 1.236 1_545 S
O203 Dy193 2.395 . S
O203 C223 1.255 . S
O204 Dy193 2.379 . S
O204 C223 1.249 . S
C205 O195 1.266 . S
C205 O196 1.236 . S
O206 Dy192 2.275 1_565 S
O206 C194 1.254 . S
O207 Dy193 2.339 1_565 S
O207 C194 1.257 . S
C208 C211 1.344 . S
C208 C212 1.328 . S
C208 C214 1.516 1_556 S
C209 C210 1.304 . S
C209 C213 1.323 . S
C210 C209 1.304 . S
C210 C211 1.371 . S
C210 H224 0.930 . S
C211 C208 1.344 . S
C211 C210 1.371 . S
C211 H225 0.931 . S
C212 C208 1.328 . S
C212 C213 1.433 . S
C212 H226 0.931 . S
C213 C209 1.323 . S
C213 C212 1.433 . S
C213 H227 0.933 . S
C214 Dy192 2.738 1_565 S
C214 O197 1.255 . S
C214 O198 1.249 1_564 S
C214 C208 1.516 1_554 S
C215 O199 1.254 . S
C215 O200 1.257 . S
C216 O201 1.266 1_565 S
C216 O202 1.236 1_565 S
C217 C220 1.344 . S
C217 C221 1.328 . S
C217 C223 1.516 . S
C218 C219 1.304 . S
C218 C222 1.323 . S
C219 C218 1.304 . S
C219 C220 1.371 . S
C219 H228 0.930 . S
C220 C217 1.344 . S
C220 C219 1.371 . S
C220 H229 0.931 . S
C221 C217 1.328 . S
C221 C222 1.433 . S
C221 H230 0.931 . S
C222 C218 1.323 . S
C222 C221 1.433 . S
C222 H231 0.933 . S
C223 Dy193 2.738 . S
C223 O203 1.255 . S
C223 O204 1.249 . S
C223 C217 1.516 . S
H224 C210 0.930 . S
H225 C211 0.931 . S
H226 C212 0.931 . S
H227 C213 0.933 . S
H228 C219 0.930 . S
H229 C220 0.931 . S
H230 C221 0.931 . S
H231 C222 0.933 . S
Dy232 O235 2.307 . S
Dy232 O237 2.395 . S
Dy232 O238 2.379 . S
Dy232 O240 2.339 . S
Dy232 O242 2.298 . S
Dy232 O246 2.275 . S
Dy232 C254 2.738 . S
Dy233 O236 2.298 . S
Dy233 O239 2.275 . S
Dy233 O241 2.307 . S
Dy233 O243 2.395 . S
Dy233 O244 2.379 . S
Dy233 O247 2.339 . S
Dy233 C263 2.738 . S
C234 O246 1.254 . S
C234 O247 1.257 . S
O235 Dy232 2.307 . S
O235 C245 1.266 . S
O236 Dy233 2.298 . S
O236 C245 1.236 . S
O237 Dy232 2.395 . S
O237 C254 1.255 . S
O238 Dy232 2.379 . S
O238 C254 1.249 . S
O239 Dy233 2.275 . S
O239 C255 1.254 . S
O240 Dy232 2.339 . S
O240 C255 1.257 . S
O241 Dy233 2.307 . S
O241 C256 1.266 . S
O242 Dy232 2.298 . S
O242 C256 1.236 . S
O243 Dy233 2.395 . S
O243 C263 1.255 . S
O244 Dy233 2.379 . S
O244 C263 1.249 . S
C245 O235 1.266 . S
C245 O236 1.236 . S
O246 Dy232 2.275 . S
O246 C234 1.254 . S
O247 Dy233 2.339 . S
O247 C234 1.257 . S
C248 C251 1.344 . S
C248 C252 1.328 . S
C248 C254 1.516 . S
C249 C250 1.304 . S
C249 C253 1.323 . S
C250 C249 1.304 . S
C250 C251 1.371 . S
C250 H264 0.930 . S
C251 C248 1.344 . S
C251 C250 1.371 . S
C251 H265 0.931 . S
C252 C248 1.328 . S
C252 C253 1.433 . S
C252 H266 0.931 . S
C253 C249 1.323 . S
C253 C252 1.433 . S
C253 H267 0.933 . S
C254 Dy232 2.738 . S
C254 O237 1.255 . S
C254 O238 1.249 . S
C254 C248 1.516 . S
C255 O239 1.254 . S
C255 O240 1.257 . S
C256 O241 1.266 . S
C256 O242 1.236 . S
C257 C260 1.344 . S
C257 C261 1.328 . S
C257 C263 1.516 . S
C258 C259 1.304 . S
C258 C262 1.323 . S
C259 C258 1.304 . S
C259 C260 1.371 . S
C259 H268 0.930 . S
C260 C257 1.344 . S
C260 C259 1.371 . S
C260 H269 0.931 . S
C261 C257 1.328 . S
C261 C262 1.433 . S
C261 H270 0.931 . S
C262 C258 1.323 . S
C262 C261 1.433 . S
C262 H271 0.933 . S
C263 Dy233 2.738 . S
C263 O243 1.255 . S
C263 O244 1.249 . S
C263 C257 1.516 . S
H264 C250 0.930 . S
H265 C251 0.931 . S
H266 C252 0.931 . S
H267 C253 0.933 . S
H268 C259 0.930 . S
H269 C260 0.931 . S
H270 C261 0.931 . S
H271 C262 0.933 . S
Dy272 O275 2.307 1_556 S
Dy272 O277 2.408 . S
Dy272 O278 2.379 . S
Dy272 O280 2.339 . S
Dy272 O282 2.298 1_455 S
Dy272 O286 2.275 1_556 S
Dy272 C294 2.738 . S
Dy273 O276 2.298 . S
Dy273 O279 2.275 1_554 S
Dy273 O281 2.307 1_455 S
Dy273 O283 2.395 . S
Dy273 O284 2.379 . S
Dy273 O287 2.339 . S
Dy273 C303 2.738 . S
C274 O286 1.254 . S
C274 O287 1.257 . S
O275 Dy272 2.307 1_554 S
O275 C285 1.266 . S
O276 Dy273 2.298 . S
O276 C285 1.236 . S
O277 Dy272 2.408 . S
O277 C294 1.256 . S
O278 Dy272 2.379 . S
O278 C294 1.249 . S
O279 Dy273 2.275 1_556 S
O279 C295 1.254 . S
O280 Dy272 2.339 . S
O280 C295 1.257 . S
O281 Dy273 2.307 1_655 S
O281 C296 1.266 1_554 S
O282 Dy272 2.298 1_655 S
O282 C296 1.236 . S
O283 Dy273 2.395 . S
O283 C303 1.255 . S
O284 Dy273 2.379 . S
O284 C303 1.249 . S
C285 O275 1.266 . S
C285 O276 1.236 . S
O286 Dy272 2.275 1_554 S
O286 C274 1.254 . S
O287 Dy273 2.339 . S
O287 C274 1.257 . S
C288 C291 1.344 . S
C288 C292 1.328 . S
C288 C294 1.516 1_655 S
C289 C290 1.304 . S
C289 C293 1.323 . S
C290 C289 1.304 . S
C290 C291 1.371 . S
C290 H304 0.930 . S
C291 C288 1.344 . S
C291 C290 1.371 . S
C291 H305 0.931 . S
C292 C288 1.328 . S
C292 C293 1.433 . S
C292 H306 0.931 1_655 S
C293 C289 1.323 . S
C293 C292 1.433 . S
C293 H307 0.933 . S
C294 Dy272 2.738 . S
C294 O277 1.256 . S
C294 O278 1.249 . S
C294 C288 1.516 1_455 S
C295 O279 1.254 . S
C295 O280 1.257 . S
C296 O281 1.266 1_556 S
C296 O282 1.236 . S
C297 C300 1.344 . S
C297 C301 1.328 . S
C297 C303 1.516 . S
C298 C299 1.304 . S
C298 C302 1.323 . S
C299 C298 1.304 . S
C299 C300 1.371 . S
C299 H308 0.930 . S
C300 C297 1.344 . S
C300 C299 1.371 . S
C300 H309 0.931 . S
C301 C297 1.328 . S
C301 C302 1.433 . S
C301 H310 0.931 . S
C302 C298 1.323 . S
C302 C301 1.433 . S
C302 H311 0.933 . S
C303 Dy273 2.738 . S
C303 O283 1.255 . S
C303 O284 1.249 . S
C303 C297 1.516 . S
H304 C290 0.930 . S
H305 C291 0.931 . S
H306 C292 0.931 1_455 S
H307 C293 0.933 . S
H308 C299 0.930 . S
H309 C300 0.931 . S
H310 C301 0.931 . S
H311 C302 0.933 . S
C312 C313 1.391 . S
C312 C314 1.394 . S
C312 H328 0.931 . S
C313 C312 1.391 . S
C313 C317 1.376 . S
C314 C312 1.394 . S
C314 C315 1.369 . S
C314 C318 1.531 . S
C315 C314 1.369 . S
C315 C316 1.410 . S
C315 C323 1.503 . S
C316 C315 1.410 . S
C316 C317 1.392 . S
C316 C319 1.511 . S
C317 C313 1.376 . S
C317 C316 1.392 . S
C317 H329 0.929 . S
C318 C314 1.531 . S
C318 H330 0.960 . S
C318 H331 0.962 . S
C318 H332 0.960 . S
C319 C316 1.511 . S
C319 H333 0.961 . S
C319 H334 0.961 . S
C319 H335 0.961 . S
C320 C321 1.370 . S
C320 C322 1.363 . S
C320 H336 0.931 . S
C321 C320 1.370 . S
C321 C325 1.408 . S
C322 C320 1.363 . S
C322 C323 1.370 . S
C322 C326 1.524 . S
C323 C315 1.503 . S
C323 C322 1.370 . S
C323 C324 1.403 . S
C324 C323 1.403 . S
C324 C325 1.404 . S
C324 C327 1.539 . S
C325 C321 1.408 . S
C325 C324 1.404 . S
C325 H337 0.930 . S
C326 C322 1.524 . S
C326 H338 0.956 . S
C326 H339 0.961 . S
C326 H340 0.961 . S
C327 C324 1.539 . S
C327 H341 0.958 . S
C327 H342 0.961 . S
C327 H343 0.960 . S
H328 C312 0.931 . S
H329 C317 0.929 . S
H330 C318 0.960 . S
H331 C318 0.962 . S
H332 C318 0.960 . S
H333 C319 0.961 . S
H334 C319 0.961 . S
H335 C319 0.961 . S
H336 C320 0.931 . S
H337 C325 0.930 . S
H338 C326 0.956 . S
H339 C326 0.961 . S
H340 C326 0.961 . S
H341 C327 0.958 . S
H342 C327 0.961 . S
H343 C327 0.960 . S
C344 C345 1.391 . S
C344 C346 1.394 . S
C344 H360 0.931 . S
C345 C344 1.391 . S
C345 C349 1.376 . S
C346 C344 1.394 . S
C346 C347 1.369 . S
C346 C350 1.531 . S
C347 C346 1.369 . S
C347 C348 1.410 . S
C347 C355 1.503 . S
C348 C347 1.410 . S
C348 C349 1.392 . S
C348 C351 1.511 . S
C349 C345 1.376 . S
C349 C348 1.392 . S
C349 H361 0.929 . S
C350 C346 1.531 . S
C350 H362 0.960 . S
C350 H363 0.962 . S
C350 H364 0.960 . S
C351 C348 1.511 . S
C351 H365 0.961 . S
C351 H366 0.961 . S
C351 H367 0.961 . S
C352 C353 1.370 . S
C352 C354 1.363 . S
C352 H368 0.931 . S
C353 C352 1.370 . S
C353 C357 1.408 . S
C354 C352 1.363 . S
C354 C355 1.370 . S
C354 C358 1.524 . S
C355 C347 1.503 . S
C355 C354 1.370 . S
C355 C356 1.403 . S
C356 C355 1.403 . S
C356 C357 1.404 . S
C356 C359 1.539 . S
C357 C353 1.408 . S
C357 C356 1.404 . S
C357 H369 0.930 . S
C358 C354 1.524 . S
C358 H370 0.956 . S
C358 H371 0.961 . S
C358 H372 0.961 . S
C359 C356 1.539 . S
C359 H373 0.958 . S
C359 H374 0.961 . S
C359 H375 0.960 . S
H360 C344 0.931 . S
H361 C349 0.929 . S
H362 C350 0.960 . S
H363 C350 0.962 . S
H364 C350 0.960 . S
H365 C351 0.961 . S
H366 C351 0.961 . S
H367 C351 0.961 . S
H368 C352 0.931 . S
H369 C357 0.930 . S
H370 C358 0.956 . S
H371 C358 0.961 . S
H372 C358 0.961 . S
H373 C359 0.958 . S
H374 C359 0.961 . S
H375 C359 0.960 . S
C376 C377 1.391 . S
C376 C378 1.394 . S
C376 H392 0.931 . S
C377 C376 1.391 . S
C377 C381 1.376 . S
C378 C376 1.394 . S
C378 C379 1.369 . S
C378 C382 1.531 . S
C379 C378 1.369 . S
C379 C380 1.410 . S
C379 C387 1.503 . S
C380 C379 1.410 . S
C380 C381 1.392 . S
C380 C383 1.511 . S
C381 C377 1.376 . S
C381 C380 1.392 . S
C381 H393 0.929 . S
C382 C378 1.531 . S
C382 H394 0.960 . S
C382 H395 0.962 . S
C382 H396 0.960 . S
C383 C380 1.511 . S
C383 H397 0.961 . S
C383 H398 0.961 . S
C383 H399 0.961 . S
C384 C385 1.370 . S
C384 C386 1.363 . S
C384 H400 0.931 . S
C385 C384 1.370 . S
C385 C389 1.408 . S
C386 C384 1.363 . S
C386 C387 1.370 . S
C386 C390 1.524 . S
C387 C379 1.503 . S
C387 C386 1.370 . S
C387 C388 1.403 . S
C388 C387 1.403 . S
C388 C389 1.404 . S
C388 C391 1.539 . S
C389 C385 1.408 . S
C389 C388 1.404 . S
C389 H401 0.930 . S
C390 C386 1.524 . S
C390 H402 0.956 . S
C390 H403 0.961 . S
C390 H404 0.961 . S
C391 C388 1.539 . S
C391 H405 0.958 . S
C391 H406 0.961 . S
C391 H407 0.960 . S
H392 C376 0.931 . S
H393 C381 0.929 . S
H394 C382 0.960 . S
H395 C382 0.962 . S
H396 C382 0.960 . S
H397 C383 0.961 . S
H398 C383 0.961 . S
H399 C383 0.961 . S
H400 C384 0.931 . S
H401 C389 0.930 . S
H402 C390 0.956 . S
H403 C390 0.961 . S
H404 C390 0.961 . S
H405 C391 0.958 . S
H406 C391 0.961 . S
H407 C391 0.960 . S
C408 C409 1.391 . S
C408 C410 1.394 . S
C408 H424 0.931 . S
C409 C408 1.391 . S
C409 C413 1.376 . S
C410 C408 1.394 . S
C410 C411 1.369 . S
C410 C414 1.531 . S
C411 C410 1.369 . S
C411 C412 1.410 . S
C411 C419 1.503 . S
C412 C411 1.410 . S
C412 C413 1.392 . S
C412 C415 1.511 . S
C413 C409 1.376 . S
C413 C412 1.392 . S
C413 H425 0.929 . S
C414 C410 1.531 . S
C414 H426 0.960 . S
C414 H427 0.962 . S
C414 H428 0.960 . S
C415 C412 1.511 . S
C415 H429 0.961 . S
C415 H430 0.961 . S
C415 H431 0.961 1_655 S
C416 C417 1.370 . S
C416 C418 1.363 . S
C416 H432 0.931 . S
C417 C416 1.370 . S
C417 C421 1.408 1_655 S
C418 C416 1.363 . S
C418 C419 1.370 . S
C418 C422 1.524 . S
C419 C411 1.503 . S
C419 C418 1.370 . S
C419 C420 1.403 . S
C420 C419 1.403 . S
C420 C421 1.404 1_655 S
C420 C423 1.539 1_655 S
C421 C417 1.408 1_455 S
C421 C420 1.404 1_455 S
C421 H433 0.930 . S
C422 C418 1.524 . S
C422 H434 0.956 . S
C422 H435 0.961 . S
C422 H436 0.961 . S
C423 C420 1.539 1_455 S
C423 H437 0.958 . S
C423 H438 0.961 . S
C423 H439 0.960 . S
H424 C408 0.931 . S
H425 C413 0.929 . S
H426 C414 0.960 . S
H427 C414 0.962 . S
H428 C414 0.960 . S
H429 C415 0.961 . S
H430 C415 0.961 . S
H431 C415 0.961 1_455 S
H432 C416 0.931 . S
H433 C421 0.930 . S
H434 C422 0.956 . S
H435 C422 0.961 . S
H436 C422 0.961 . S
H437 C423 0.958 . S
H438 C423 0.961 . S
H439 C423 0.960 . S
C440 C441 1.391 . S
C440 C442 1.394 . S
C440 H456 0.931 . S
C441 C440 1.391 . S
C441 C445 1.376 . S
C442 C440 1.394 . S
C442 C443 1.369 . S
C442 C446 1.531 . S
C443 C442 1.369 . S
C443 C444 1.410 . S
C443 C451 1.503 . S
C444 C443 1.410 . S
C444 C445 1.392 . S
C444 C447 1.511 . S
C445 C441 1.376 . S
C445 C444 1.392 . S
C445 H457 0.929 . S
C446 C442 1.531 . S
C446 H458 0.960 . S
C446 H459 0.962 . S
C446 H460 0.960 . S
C447 C444 1.511 . S
C447 H461 0.961 . S
C447 H462 0.961 . S
C447 H463 0.961 . S
C448 C449 1.370 . S
C448 C450 1.363 . S
C448 H464 0.931 . S
C449 C448 1.370 . S
C449 C453 1.408 . S
C450 C448 1.363 . S
C450 C451 1.370 . S
C450 C454 1.524 . S
C451 C443 1.503 . S
C451 C450 1.370 . S
C451 C452 1.403 . S
C452 C451 1.403 . S
C452 C453 1.404 . S
C452 C455 1.539 . S
C453 C449 1.408 . S
C453 C452 1.404 . S
C453 H465 0.930 . S
C454 C450 1.524 . S
C454 H466 0.956 . S
C454 H467 0.961 . S
C454 H468 0.961 . S
C455 C452 1.539 . S
C455 H469 0.958 . S
C455 H470 0.961 . S
C455 H471 0.960 . S
H456 C440 0.931 . S
H457 C445 0.929 . S
H458 C446 0.960 . S
H459 C446 0.962 . S
H460 C446 0.960 . S
H461 C447 0.961 . S
H462 C447 0.961 . S
H463 C447 0.961 . S
H464 C448 0.931 . S
H465 C453 0.930 . S
H466 C454 0.956 . S
H467 C454 0.961 . S
H468 C454 0.961 . S
H469 C455 0.958 . S
H470 C455 0.961 . S
H471 C455 0.960 . S
C472 C473 1.391 . S
C472 C474 1.394 . S
C472 H488 0.931 . S
C473 C472 1.391 . S
C473 C477 1.376 . S
C474 C472 1.394 . S
C474 C475 1.369 . S
C474 C478 1.531 . S
C475 C474 1.369 . S
C475 C476 1.410 . S
C475 C483 1.503 . S
C476 C475 1.410 . S
C476 C477 1.392 . S
C476 C479 1.511 . S
C477 C473 1.376 . S
C477 C476 1.392 . S
C477 H489 0.929 . S
C478 C474 1.531 . S
C478 H490 0.960 . S
C478 H491 0.962 . S
C478 H492 0.960 . S
C479 C476 1.511 . S
C479 H493 0.961 . S
C479 H494 0.961 . S
C479 H495 0.961 . S
C480 C481 1.370 . S
C480 C482 1.363 . S
C480 H496 0.931 1_455 S
C481 C480 1.370 . S
C481 C485 1.408 . S
C482 C480 1.363 . S
C482 C483 1.370 . S
C482 C486 1.524 1_455 S
C483 C475 1.503 . S
C483 C482 1.370 . S
C483 C484 1.403 . S
C484 C483 1.403 . S
C484 C485 1.404 . S
C484 C487 1.539 . S
C485 C481 1.408 . S
C485 C484 1.404 . S
C485 H497 0.930 1_565 S
C486 C482 1.524 1_655 S
C486 H498 0.956 . S
C486 H499 0.961 . S
C486 H500 0.961 . S
C487 C484 1.539 . S
C487 H501 0.958 . S
C487 H502 0.961 . S
C487 H503 0.960 . S
H488 C472 0.931 . S
H489 C477 0.929 . S
H490 C478 0.960 . S
H491 C478 0.962 . S
H492 C478 0.960 . S
H493 C479 0.961 . S
H494 C479 0.961 . S
H495 C479 0.961 . S
H496 C480 0.931 1_655 S
H497 C485 0.930 1_545 S
H498 C486 0.956 . S
H499 C486 0.961 . S
H500 C486 0.961 . S
H501 C487 0.958 . S
H502 C487 0.961 . S
H503 C487 0.960 . S
C504 C505 1.391 . S
C504 C506 1.394 . S
C504 H520 0.931 . S
C505 C504 1.391 . S
C505 C509 1.376 . S
C506 C504 1.394 . S
C506 C507 1.369 . S
C506 C510 1.531 . S
C507 C506 1.369 . S
C507 C508 1.410 . S
C507 C515 1.503 . S
C508 C507 1.410 . S
C508 C509 1.392 . S
C508 C511 1.511 . S
C509 C505 1.376 . S
C509 C508 1.392 . S
C509 H521 0.929 . S
C510 C506 1.531 . S
C510 H522 0.960 . S
C510 H523 0.962 . S
C510 H524 0.960 . S
C511 C508 1.511 . S
C511 H525 0.961 . S
C511 H526 0.961 . S
C511 H527 0.961 . S
C512 C513 1.370 . S
C512 C514 1.363 . S
C512 H528 0.931 1_556 S
C513 C512 1.370 . S
C513 C517 1.408 . S
C514 C512 1.363 . S
C514 C515 1.370 . S
C514 C518 1.524 1_556 S
C515 C507 1.503 . S
C515 C514 1.370 . S
C515 C516 1.403 . S
C516 C515 1.403 . S
C516 C517 1.404 . S
C516 C519 1.539 . S
C517 C513 1.408 . S
C517 C516 1.404 . S
C517 H529 0.930 . S
C518 C514 1.524 1_554 S
C518 H530 0.956 1_554 S
C518 H531 0.961 1_554 S
C518 H532 0.961 . S
C519 C516 1.539 . S
C519 H533 0.958 . S
C519 H534 0.961 . S
C519 H535 0.960 . S
H520 C504 0.931 . S
H521 C509 0.929 . S
H522 C510 0.960 . S
H523 C510 0.962 . S
H524 C510 0.960 . S
H525 C511 0.961 . S
H526 C511 0.961 . S
H527 C511 0.961 . S
H528 C512 0.931 1_554 S
H529 C517 0.930 . S
H530 C518 0.956 1_556 S
H531 C518 0.961 1_556 S
H532 C518 0.961 . S
H533 C519 0.958 . S
H534 C519 0.961 . S
H535 C519 0.960 . S
C536 C537 1.391 . S
C536 C538 1.394 . S
C536 H552 0.931 . S
C537 C536 1.391 . S
C537 C541 1.376 . S
C538 C536 1.394 . S
C538 C539 1.369 . S
C538 C542 1.531 . S
C539 C538 1.369 . S
C539 C540 1.410 . S
C539 C547 1.503 . S
C540 C539 1.410 . S
C540 C541 1.392 . S
C540 C543 1.511 . S
C541 C537 1.376 . S
C541 C540 1.392 . S
C541 H553 0.929 . S
C542 C538 1.531 . S
C542 H554 0.960 . S
C542 H555 0.962 . S
C542 H556 0.960 . S
C543 C540 1.511 . S
C543 H557 0.961 . S
C543 H558 0.961 . S
C543 H559 0.961 . S
C544 C545 1.370 . S
C544 C546 1.363 . S
C544 H560 0.931 . S
C545 C544 1.370 . S
C545 C549 1.408 . S
C546 C544 1.363 . S
C546 C547 1.370 . S
C546 C550 1.524 . S
C547 C539 1.503 . S
C547 C546 1.370 . S
C547 C548 1.403 . S
C548 C547 1.403 . S
C548 C549 1.404 . S
C548 C551 1.539 . S
C549 C545 1.408 . S
C549 C548 1.404 . S
C549 H561 0.930 . S
C550 C546 1.524 . S
C550 H562 0.956 . S
C550 H563 0.961 . S
C550 H564 0.961 . S
C551 C548 1.539 . S
C551 H565 0.958 . S
C551 H566 0.961 . S
C551 H567 0.960 . S
H552 C536 0.931 . S
H553 C541 0.929 . S
H554 C542 0.960 . S
H555 C542 0.962 . S
H556 C542 0.960 . S
H557 C543 0.961 . S
H558 C543 0.961 . S
H559 C543 0.961 . S
H560 C544 0.931 . S
H561 C549 0.930 . S
H562 C550 0.956 . S
H563 C550 0.961 . S
H564 C550 0.961 . S
H565 C551 0.958 . S
H566 C551 0.961 . S
H567 C551 0.960 . S
C568 C569 1.391 . S
C568 C570 1.394 . S
C568 H584 0.931 . S
C569 C568 1.391 . S
C569 C573 1.376 . S
C570 C568 1.394 . S
C570 C571 1.369 . S
C570 C574 1.531 . S
C571 C570 1.369 . S
C571 C572 1.410 . S
C571 C579 1.503 . S
C572 C571 1.410 . S
C572 C573 1.392 . S
C572 C575 1.511 . S
C573 C569 1.376 . S
C573 C572 1.392 . S
C573 H585 0.929 . S
C574 C570 1.531 . S
C574 H586 0.960 . S
C574 H587 0.962 . S
C574 H588 0.960 . S
C575 C572 1.511 . S
C575 H589 0.961 . S
C575 H590 0.961 . S
C575 H591 0.961 . S
C576 C577 1.370 . S
C576 C578 1.363 . S
C576 H592 0.931 . S
C577 C576 1.370 . S
C577 C581 1.408 . S
C578 C576 1.363 . S
C578 C579 1.370 . S
C578 C582 1.524 . S
C579 C571 1.503 . S
C579 C578 1.370 . S
C579 C580 1.403 . S
C580 C579 1.403 . S
C580 C581 1.404 . S
C580 C583 1.539 . S
C581 C577 1.408 . S
C581 C580 1.404 . S
C581 H593 0.930 . S
C582 C578 1.524 . S
C582 H594 0.956 . S
C582 H595 0.961 . S
C582 H596 0.961 . S
C583 C580 1.539 . S
C583 H597 0.958 . S
C583 H598 0.961 . S
C583 H599 0.960 . S
H584 C568 0.931 . S
H585 C573 0.929 . S
H586 C574 0.960 . S
H587 C574 0.962 . S
H588 C574 0.960 . S
H589 C575 0.961 . S
H590 C575 0.961 . S
H591 C575 0.961 . S
H592 C576 0.931 . S
H593 C581 0.930 . S
H594 C582 0.956 . S
H595 C582 0.961 . S
H596 C582 0.961 . S
H597 C583 0.958 . S
H598 C583 0.961 . S
H599 C583 0.960 . S
C600 C601 1.391 . S
C600 C602 1.394 . S
C600 H616 0.931 . S
C601 C600 1.391 . S
C601 C605 1.376 . S
C602 C600 1.394 . S
C602 C603 1.369 . S
C602 C606 1.531 . S
C603 C602 1.369 . S
C603 C604 1.410 . S
C603 C611 1.503 . S
C604 C603 1.410 . S
C604 C605 1.392 . S
C604 C607 1.511 . S
C605 C601 1.376 . S
C605 C604 1.392 . S
C605 H617 0.929 . S
C606 C602 1.531 . S
C606 H618 0.960 . S
C606 H619 0.962 . S
C606 H620 0.960 . S
C607 C604 1.511 . S
C607 H621 0.961 . S
C607 H622 0.961 . S
C607 H623 0.961 . S
C608 C609 1.370 . S
C608 C610 1.363 . S
C608 H624 0.931 . S
C609 C608 1.370 . S
C609 C613 1.408 1_554 S
C610 C608 1.363 . S
C610 C611 1.370 1_554 S
C610 C614 1.524 . S
C611 C603 1.503 . S
C611 C610 1.370 1_556 S
C611 C612 1.403 . S
C612 C611 1.403 . S
C612 C613 1.404 . S
C612 C615 1.539 . S
C613 C609 1.408 1_556 S
C613 C612 1.404 . S
C613 H625 0.930 . S
C614 C610 1.524 . S
C614 H626 0.956 . S
C614 H627 0.961 . S
C614 H628 0.961 . S
C615 C612 1.539 . S
C615 H629 0.958 . S
C615 H630 0.961 . S
C615 H631 0.960 . S
H616 C600 0.931 . S
H617 C605 0.929 . S
H618 C606 0.960 . S
H619 C606 0.962 . S
H620 C606 0.960 . S
H621 C607 0.961 . S
H622 C607 0.961 . S
H623 C607 0.961 . S
H624 C608 0.931 . S
H625 C613 0.930 . S
H626 C614 0.956 . S
H627 C614 0.961 . S
H628 C614 0.961 . S
H629 C615 0.958 . S
H630 C615 0.961 . S
H631 C615 0.960 . S
C632 C633 1.391 . S
C632 C634 1.394 . S
C632 H648 0.931 . S
C633 C632 1.391 . S
C633 C637 1.376 . S
C634 C632 1.394 . S
C634 C635 1.369 . S
C634 C638 1.531 . S
C635 C634 1.369 . S
C635 C636 1.410 . S
C635 C643 1.503 . S
C636 C635 1.410 . S
C636 C637 1.392 . S
C636 C639 1.511 . S
C637 C633 1.376 . S
C637 C636 1.392 . S
C637 H649 0.929 . S
C638 C634 1.531 . S
C638 H650 0.960 . S
C638 H651 0.962 . S
C638 H652 0.960 . S
C639 C636 1.511 . S
C639 H653 0.961 . S
C639 H654 0.961 . S
C639 H655 0.961 . S
C640 C641 1.370 . S
C640 C642 1.363 . S
C640 H656 0.931 . S
C641 C640 1.370 . S
C641 C645 1.408 . S
C642 C640 1.363 . S
C642 C643 1.370 . S
C642 C646 1.524 . S
C643 C635 1.503 . S
C643 C642 1.370 . S
C643 C644 1.403 . S
C644 C643 1.403 . S
C644 C645 1.404 . S
C644 C647 1.539 . S
C645 C641 1.408 . S
C645 C644 1.404 . S
C645 H657 0.930 1_655 S
C646 C642 1.524 . S
C646 H658 0.956 . S
C646 H659 0.961 . S
C646 H660 0.961 . S
C647 C644 1.539 . S
C647 H661 0.958 . S
C647 H662 0.961 1_655 S
C647 H663 0.960 . S
H648 C632 0.931 . S
H649 C637 0.929 . S
H650 C638 0.960 . S
H651 C638 0.962 . S
H652 C638 0.960 . S
H653 C639 0.961 . S
H654 C639 0.961 . S
H655 C639 0.961 . S
H656 C640 0.931 . S
H657 C645 0.930 1_455 S
H658 C646 0.956 . S
H659 C646 0.961 . S
H660 C646 0.961 . S
H661 C647 0.958 . S
H662 C647 0.961 1_455 S
H663 C647 0.960 . S
C664 C665 1.391 . S
C664 C666 1.394 . S
C664 H680 0.931 . S
C665 C664 1.391 . S
C665 C669 1.376 . S
C666 C664 1.394 . S
C666 C667 1.369 . S
C666 C670 1.531 . S
C667 C666 1.369 . S
C667 C668 1.410 . S
C667 C675 1.503 . S
C668 C667 1.410 . S
C668 C669 1.392 . S
C668 C671 1.511 . S
C669 C665 1.376 . S
C669 C668 1.392 . S
C669 H681 0.929 . S
C670 C666 1.531 . S
C670 H682 0.960 . S
C670 H683 0.962 . S
C670 H684 0.960 . S
C671 C668 1.511 . S
C671 H685 0.961 . S
C671 H686 0.961 . S
C671 H687 0.961 . S
C672 C673 1.370 . S
C672 C674 1.363 . S
C672 H688 0.931 . S
C673 C672 1.370 . S
C673 C677 1.408 . S
C674 C672 1.363 . S
C674 C675 1.370 . S
C674 C678 1.524 . S
C675 C667 1.503 . S
C675 C674 1.370 . S
C675 C676 1.403 . S
C676 C675 1.403 . S
C676 C677 1.404 . S
C676 C679 1.539 . S
C677 C673 1.408 . S
C677 C676 1.404 . S
C677 H689 0.930 . S
C678 C674 1.524 . S
C678 H690 0.956 . S
C678 H691 0.961 . S
C678 H692 0.961 . S
C679 C676 1.539 . S
C679 H693 0.958 . S
C679 H694 0.961 . S
C679 H695 0.960 . S
H680 C664 0.931 . S
H681 C669 0.929 . S
H682 C670 0.960 . S
H683 C670 0.962 . S
H684 C670 0.960 . S
H685 C671 0.961 . S
H686 C671 0.961 . S
H687 C671 0.961 . S
H688 C672 0.931 . S
H689 C677 0.930 . S
H690 C678 0.956 . S
H691 C678 0.961 . S
H692 C678 0.961 . S
H693 C679 0.958 . S
H694 C679 0.961 . S
H695 C679 0.960 . S
C696 C697 1.391 . S
C696 C698 1.394 . S
C696 H712 0.931 . S
C697 C696 1.391 . S
C697 C701 1.376 . S
C698 C696 1.394 . S
C698 C699 1.369 . S
C698 C702 1.531 . S
C699 C698 1.369 . S
C699 C700 1.410 . S
C699 C707 1.503 . S
C700 C699 1.410 . S
C700 C701 1.392 . S
C700 C703 1.511 . S
C701 C697 1.376 . S
C701 C700 1.392 . S
C701 H713 0.929 . S
C702 C698 1.531 . S
C702 H714 0.960 . S
C702 H715 0.962 . S
C702 H716 0.960 . S
C703 C700 1.511 . S
C703 H717 0.961 . S
C703 H718 0.961 . S
C703 H719 0.961 . S
C704 C705 1.370 . S
C704 C706 1.363 . S
C704 H720 0.931 . S
C705 C704 1.370 . S
C705 C709 1.408 . S
C706 C704 1.363 . S
C706 C707 1.370 . S
C706 C710 1.524 . S
C707 C699 1.503 . S
C707 C706 1.370 . S
C707 C708 1.403 . S
C708 C707 1.403 . S
C708 C709 1.404 . S
C708 C711 1.539 . S
C709 C705 1.408 . S
C709 C708 1.404 . S
C709 H721 0.930 . S
C710 C706 1.524 . S
C710 H722 0.956 . S
C710 H723 0.961 . S
C710 H724 0.961 . S
C711 C708 1.539 . S
C711 H725 0.958 . S
C711 H726 0.961 . S
C711 H727 0.960 . S
H712 C696 0.931 . S
H713 C701 0.929 . S
H714 C702 0.960 . S
H715 C702 0.962 . S
H716 C702 0.960 . S
H717 C703 0.961 . S
H718 C703 0.961 . S
H719 C703 0.961 . S
H720 C704 0.931 . S
H721 C709 0.930 . S
H722 C710 0.956 . S
H723 C710 0.961 . S
H724 C710 0.961 . S
H725 C711 0.958 . S
H726 C711 0.961 . S
H727 C711 0.960 . S
C728 C729 1.391 . S
C728 C730 1.394 . S
C728 H744 0.931 . S
C729 C728 1.391 . S
C729 C733 1.376 . S
C730 C728 1.394 . S
C730 C731 1.369 . S
C730 C734 1.531 . S
C731 C730 1.369 . S
C731 C732 1.410 . S
C731 C739 1.503 . S
C732 C731 1.410 . S
C732 C733 1.392 . S
C732 C735 1.511 . S
C733 C729 1.376 . S
C733 C732 1.392 . S
C733 H745 0.929 . S
C734 C730 1.531 . S
C734 H746 0.960 . S
C734 H747 0.962 . S
C734 H748 0.960 . S
C735 C732 1.511 . S
C735 H749 0.961 . S
C735 H750 0.961 . S
C735 H751 0.961 . S
C736 C737 1.370 . S
C736 C738 1.363 . S
C736 H752 0.931 . S
C737 C736 1.370 . S
C737 C741 1.408 . S
C738 C736 1.363 . S
C738 C739 1.370 . S
C738 C742 1.524 . S
C739 C731 1.503 . S
C739 C738 1.370 . S
C739 C740 1.403 . S
C740 C739 1.403 . S
C740 C741 1.404 . S
C740 C743 1.539 . S
C741 C737 1.408 . S
C741 C740 1.404 . S
C741 H753 0.930 . S
C742 C738 1.524 . S
C742 H754 0.956 . S
C742 H755 0.961 . S
C742 H756 0.961 . S
C743 C740 1.539 . S
C743 H757 0.958 . S
C743 H758 0.961 . S
C743 H759 0.960 . S
H744 C728 0.931 . S
H745 C733 0.929 . S
H746 C734 0.960 . S
H747 C734 0.962 . S
H748 C734 0.960 . S
H749 C735 0.961 . S
H750 C735 0.961 . S
H751 C735 0.961 . S
H752 C736 0.931 . S
H753 C741 0.930 . S
H754 C742 0.956 . S
H755 C742 0.961 . S
H756 C742 0.961 . S
H757 C743 0.958 . S
H758 C743 0.961 . S
H759 C743 0.960 . S
C760 C761 1.391 . S
C760 C762 1.394 . S
C760 H776 0.931 . S
C761 C760 1.391 . S
C761 C765 1.376 . S
C762 C760 1.394 . S
C762 C763 1.369 . S
C762 C766 1.531 . S
C763 C762 1.369 . S
C763 C764 1.410 . S
C763 C771 1.503 . S
C764 C763 1.410 . S
C764 C765 1.392 . S
C764 C767 1.511 . S
C765 C761 1.376 . S
C765 C764 1.392 . S
C765 H777 0.929 . S
C766 C762 1.531 . S
C766 H778 0.960 . S
C766 H779 0.962 . S
C766 H780 0.960 . S
C767 C764 1.511 . S
C767 H781 0.961 . S
C767 H782 0.961 . S
C767 H783 0.961 . S
C768 C769 1.370 . S
C768 C770 1.363 . S
C768 H784 0.931 . S
C769 C768 1.370 . S
C769 C773 1.408 . S
C770 C768 1.363 . S
C770 C771 1.370 . S
C770 C774 1.524 . S
C771 C763 1.503 . S
C771 C770 1.370 . S
C771 C772 1.403 . S
C772 C771 1.403 . S
C772 C773 1.404 . S
C772 C775 1.539 . S
C773 C769 1.408 . S
C773 C772 1.404 . S
C773 H785 0.930 . S
C774 C770 1.524 . S
C774 H786 0.956 . S
C774 H787 0.961 . S
C774 H788 0.961 . S
C775 C772 1.539 . S
C775 H789 0.958 . S
C775 H790 0.961 . S
C775 H791 0.960 . S
H776 C760 0.931 . S
H777 C765 0.929 . S
H778 C766 0.960 . S
H779 C766 0.962 . S
H780 C766 0.960 . S
H781 C767 0.961 . S
H782 C767 0.961 . S
H783 C767 0.961 . S
H784 C768 0.931 . S
H785 C773 0.930 . S
H786 C774 0.956 . S
H787 C774 0.961 . S
H788 C774 0.961 . S
H789 C775 0.958 . S
H790 C775 0.961 . S
H791 C775 0.960 . S
C792 C793 1.391 . S
C792 C794 1.394 . S
C792 H808 0.931 . S
C793 C792 1.391 . S
C793 C797 1.376 . S
C794 C792 1.394 . S
C794 C795 1.369 . S
C794 C798 1.531 . S
C795 C794 1.369 . S
C795 C796 1.410 . S
C795 C803 1.503 . S
C796 C795 1.410 . S
C796 C797 1.392 . S
C796 C799 1.511 . S
C797 C793 1.376 . S
C797 C796 1.392 . S
C797 H809 0.929 . S
C798 C794 1.531 . S
C798 H810 0.960 . S
C798 H811 0.962 . S
C798 H812 0.960 . S
C799 C796 1.511 . S
C799 H813 0.961 . S
C799 H814 0.961 . S
C799 H815 0.961 . S
C800 C801 1.370 . S
C800 C802 1.363 . S
C800 H816 0.931 . S
C801 C800 1.370 . S
C801 C805 1.408 . S
C802 C800 1.363 . S
C802 C803 1.370 . S
C802 C806 1.524 . S
C803 C795 1.503 . S
C803 C802 1.370 . S
C803 C804 1.403 . S
C804 C803 1.403 . S
C804 C805 1.404 . S
C804 C807 1.539 . S
C805 C801 1.408 . S
C805 C804 1.404 . S
C805 H817 0.930 . S
C806 C802 1.524 . S
C806 H818 0.956 . S
C806 H819 0.961 . S
C806 H820 0.961 . S
C807 C804 1.539 . S
C807 H821 0.958 . S
C807 H822 0.961 . S
C807 H823 0.960 . S
H808 C792 0.931 . S
H809 C797 0.929 . S
H810 C798 0.960 . S
H811 C798 0.962 . S
H812 C798 0.960 . S
H813 C799 0.961 . S
H814 C799 0.961 . S
H815 C799 0.961 . S
H816 C800 0.931 . S
H817 C805 0.930 . S
H818 C806 0.956 . S
H819 C806 0.961 . S
H820 C806 0.961 . S
H821 C807 0.958 . S
H822 C807 0.961 . S
H823 C807 0.960 . S
C824 C825 1.391 . S
C824 C826 1.394 . S
C824 H840 0.931 . S
C825 C824 1.391 . S
C825 C829 1.376 . S
C826 C824 1.394 . S
C826 C827 1.369 . S
C826 C830 1.529 1_556 S
C827 C826 1.369 . S
C827 C828 1.410 . S
C827 C835 1.503 . S
C828 C827 1.410 . S
C828 C829 1.392 . S
C828 C831 1.511 . S
C829 C825 1.376 . S
C829 C828 1.392 . S
C829 H841 0.929 . S
C830 C826 1.529 1_554 S
C830 H842 0.960 . S
C830 H843 0.963 . S
C830 H844 0.960 1_554 S
C831 C828 1.511 . S
C831 H845 0.961 . S
C831 H846 0.961 . S
C831 H847 0.961 . S
C832 C833 1.370 . S
C832 C834 1.363 . S
C832 H848 0.931 . S
C833 C832 1.370 . S
C833 C837 1.408 1_554 S
C834 C832 1.363 . S
C834 C835 1.370 1_554 S
C834 C838 1.524 . S
C835 C827 1.503 . S
C835 C834 1.370 1_556 S
C835 C836 1.403 . S
C836 C835 1.403 . S
C836 C837 1.404 . S
C836 C839 1.539 . S
C837 C833 1.408 1_556 S
C837 C836 1.404 . S
C837 H849 0.923 1_565 S
C838 C834 1.524 . S
C838 H850 0.956 . S
C838 H851 0.961 1_554 S
C838 H852 0.961 . S
C839 C836 1.539 . S
C839 H853 0.958 . S
C839 H854 0.961 . S
C839 H855 0.960 . S
H840 C824 0.931 . S
H841 C829 0.929 . S
H842 C830 0.960 . S
H843 C830 0.963 . S
H844 C830 0.960 1_556 S
H845 C831 0.961 . S
H846 C831 0.961 . S
H847 C831 0.961 . S
H848 C832 0.931 . S
H849 C837 0.923 1_545 S
H850 C838 0.956 . S
H851 C838 0.961 1_556 S
H852 C838 0.961 . S
H853 C839 0.958 . S
H854 C839 0.961 . S
H855 C839 0.960 . S
C856 C857 1.391 . S
C856 C858 1.394 . S
C856 H872 0.931 . S
C857 C856 1.391 . S
C857 C861 1.376 . S
C858 C856 1.394 . S
C858 C859 1.369 . S
C858 C862 1.531 . S
C859 C858 1.369 . S
C859 C860 1.410 . S
C859 C867 1.503 . S
C860 C859 1.410 . S
C860 C861 1.392 . S
C860 C863 1.511 . S
C861 C857 1.376 . S
C861 C860 1.392 . S
C861 H873 0.929 . S
C862 C858 1.531 . S
C862 H874 0.960 . S
C862 H875 0.962 . S
C862 H876 0.960 . S
C863 C860 1.511 . S
C863 H877 0.961 . S
C863 H878 0.961 . S
C863 H879 0.961 . S
C864 C865 1.370 . S
C864 C866 1.363 . S
C864 H880 0.931 . S
C865 C864 1.370 . S
C865 C869 1.408 1_655 S
C866 C864 1.363 . S
C866 C867 1.370 . S
C866 C870 1.524 . S
C867 C859 1.503 . S
C867 C866 1.370 . S
C867 C868 1.403 . S
C868 C867 1.403 . S
C868 C869 1.404 1_655 S
C868 C871 1.539 1_655 S
C869 C865 1.408 1_455 S
C869 C868 1.404 1_455 S
C869 H881 0.930 . S
C870 C866 1.524 . S
C870 H882 0.956 . S
C870 H883 0.961 . S
C870 H884 0.961 . S
C871 C868 1.539 1_455 S
C871 H885 0.958 . S
C871 H886 0.961 . S
C871 H887 0.960 . S
H872 C856 0.931 . S
H873 C861 0.929 . S
H874 C862 0.960 . S
H875 C862 0.962 . S
H876 C862 0.960 . S
H877 C863 0.961 . S
H878 C863 0.961 . S
H879 C863 0.961 . S
H880 C864 0.931 . S
H881 C869 0.930 . S
H882 C870 0.956 . S
H883 C870 0.961 . S
H884 C870 0.961 . S
H885 C871 0.958 . S
H886 C871 0.961 . S
H887 C871 0.960 . S
C888 C889 1.391 . S
C888 C890 1.394 . S
C888 H904 0.931 . S
C889 C888 1.391 . S
C889 C893 1.376 . S
C890 C888 1.394 . S
C890 C891 1.369 . S
C890 C894 1.531 . S
C891 C890 1.369 . S
C891 C892 1.410 . S
C891 C899 1.503 . S
C892 C891 1.410 . S
C892 C893 1.392 . S
C892 C895 1.511 . S
C893 C889 1.376 . S
C893 C892 1.392 . S
C893 H905 0.929 . S
C894 C890 1.531 . S
C894 H906 0.960 . S
C894 H907 0.962 . S
C894 H908 0.960 . S
C895 C892 1.511 . S
C895 H909 0.961 . S
C895 H910 0.961 . S
C895 H911 0.961 . S
C896 C897 1.370 . S
C896 C898 1.363 . S
C896 H912 0.931 . S
C897 C896 1.370 . S
C897 C901 1.408 . S
C898 C896 1.363 . S
C898 C899 1.370 . S
C898 C902 1.524 . S
C899 C891 1.503 . S
C899 C898 1.370 . S
C899 C900 1.403 . S
C900 C899 1.403 . S
C900 C901 1.404 . S
C900 C903 1.539 . S
C901 C897 1.408 . S
C901 C900 1.404 . S
C901 H913 0.930 . S
C902 C898 1.524 . S
C902 H914 0.956 . S
C902 H915 0.961 . S
C902 H916 0.961 . S
C903 C900 1.539 . S
C903 H917 0.958 . S
C903 H918 0.961 . S
C903 H919 0.960 . S
H904 C888 0.931 . S
H905 C893 0.929 . S
H906 C894 0.960 . S
H907 C894 0.962 . S
H908 C894 0.960 . S
H909 C895 0.961 . S
H910 C895 0.961 . S
H911 C895 0.961 . S
H912 C896 0.931 . S
H913 C901 0.930 . S
H914 C902 0.956 . S
H915 C902 0.961 . S
H916 C902 0.961 . S
H917 C903 0.958 . S
H918 C903 0.961 . S
H919 C903 0.960 . S
C920 C921 1.391 . S
C920 C922 1.394 . S
C920 H936 0.931 . S
C921 C920 1.391 . S
C921 C925 1.376 . S
C922 C920 1.394 . S
C922 C923 1.369 . S
C922 C926 1.531 . S
C923 C922 1.369 . S
C923 C924 1.410 . S
C923 C931 1.503 . S
C924 C923 1.410 . S
C924 C925 1.392 . S
C924 C927 1.511 . S
C925 C921 1.376 . S
C925 C924 1.392 . S
C925 H937 0.929 . S
C926 C922 1.531 . S
C926 H938 0.960 . S
C926 H939 0.962 . S
C926 H940 0.960 . S
C927 C924 1.511 . S
C927 H941 0.961 . S
C927 H942 0.961 . S
C927 H943 0.961 . S
C928 C929 1.370 . S
C928 C930 1.363 . S
C928 H944 0.931 . S
C929 C928 1.370 . S
C929 C933 1.408 . S
C930 C928 1.363 . S
C930 C931 1.370 . S
C930 C934 1.524 . S
C931 C923 1.503 . S
C931 C930 1.370 . S
C931 C932 1.403 . S
C932 C931 1.403 . S
C932 C933 1.404 . S
C932 C935 1.539 . S
C933 C929 1.408 . S
C933 C932 1.404 . S
C933 H945 0.930 . S
C934 C930 1.524 . S
C934 H946 0.956 . S
C934 H947 0.961 . S
C934 H948 0.961 . S
C935 C932 1.539 . S
C935 H949 0.958 . S
C935 H950 0.961 . S
C935 H951 0.960 . S
H936 C920 0.931 . S
H937 C925 0.929 . S
H938 C926 0.960 . S
H939 C926 0.962 . S
H940 C926 0.960 . S
H941 C927 0.961 . S
H942 C927 0.961 . S
H943 C927 0.961 . S
H944 C928 0.931 . S
H945 C933 0.930 . S
H946 C934 0.956 . S
H947 C934 0.961 . S
H948 C934 0.961 . S
H949 C935 0.958 . S
H950 C935 0.961 . S
H951 C935 0.960 . S
C952 C953 1.391 . S
C952 C954 1.394 . S
C952 H968 0.931 . S
C953 C952 1.391 . S
C953 C957 1.376 . S
C954 C952 1.394 . S
C954 C955 1.369 . S
C954 C958 1.531 . S
C955 C954 1.369 . S
C955 C956 1.410 . S
C955 C963 1.503 . S
C956 C955 1.410 . S
C956 C957 1.392 . S
C956 C959 1.511 . S
C957 C953 1.376 . S
C957 C956 1.392 . S
C957 H969 0.929 . S
C958 C954 1.531 . S
C958 H970 0.960 . S
C958 H971 0.962 . S
C958 H972 0.960 . S
C959 C956 1.511 . S
C959 H973 0.961 . S
C959 H974 0.961 . S
C959 H975 0.961 . S
C960 C961 1.370 . S
C960 C962 1.363 . S
C960 H976 0.931 . S
C961 C960 1.370 . S
C961 C965 1.408 . S
C962 C960 1.363 . S
C962 C963 1.370 . S
C962 C966 1.524 . S
C963 C955 1.503 . S
C963 C962 1.370 . S
C963 C964 1.403 . S
C964 C963 1.403 . S
C964 C965 1.404 . S
C964 C967 1.539 . S
C965 C961 1.408 . S
C965 C964 1.404 . S
C965 H977 0.930 . S
C966 C962 1.524 . S
C966 H978 0.956 . S
C966 H979 0.961 . S
C966 H980 0.961 . S
C967 C964 1.539 . S
C967 H981 0.958 . S
C967 H982 0.961 . S
C967 H983 0.960 . S
H968 C952 0.931 . S
H969 C957 0.929 . S
H970 C958 0.960 . S
H971 C958 0.962 . S
H972 C958 0.960 . S
H973 C959 0.961 . S
H974 C959 0.961 . S
H975 C959 0.961 . S
H976 C960 0.931 . S
H977 C965 0.930 . S
H978 C966 0.956 . S
H979 C966 0.961 . S
H980 C966 0.961 . S
H981 C967 0.958 . S
H982 C967 0.961 . S
H983 C967 0.960 . S
C984 C985 1.391 . S
C984 C986 1.394 . S
C984 H1000 0.931 . S
C985 C984 1.391 . S
C985 C989 1.376 . S
C986 C984 1.394 . S
C986 C987 1.369 . S
C986 C990 1.531 . S
C987 C986 1.369 . S
C987 C988 1.410 . S
C987 C995 1.503 . S
C988 C987 1.410 . S
C988 C989 1.392 . S
C988 C991 1.511 . S
C989 C985 1.376 . S
C989 C988 1.392 . S
C989 H1001 0.929 . S
C990 C986 1.531 . S
C990 H1002 0.960 . S
C990 H1003 0.962 . S
C990 H1004 0.960 . S
C991 C988 1.511 . S
C991 H1005 0.961 . S
C991 H1006 0.961 . S
C991 H1007 0.961 . S
C992 C993 1.370 . S
C992 C994 1.363 . S
C992 H1008 0.931 . S
C993 C992 1.370 . S
C993 C997 1.408 . S
C994 C992 1.363 . S
C994 C995 1.370 . S
C994 C998 1.524 . S
C995 C987 1.503 . S
C995 C994 1.370 . S
C995 C996 1.403 . S
C996 C995 1.403 . S
C996 C997 1.404 . S
C996 C999 1.539 . S
C997 C993 1.408 . S
C997 C996 1.404 . S
C997 H1009 0.930 . S
C998 C994 1.524 . S
C998 H1010 0.956 . S
C998 H1011 0.961 . S
C998 H1012 0.961 . S
C999 C996 1.539 . S
C999 H1013 0.958 . S
C999 H1014 0.961 . S
C999 H1015 0.960 . S
H1000 C984 0.931 . S
H1001 C989 0.929 . S
H1002 C990 0.960 . S
H1003 C990 0.962 . S
H1004 C990 0.960 . S
H1005 C991 0.961 . S
H1006 C991 0.961 . S
H1007 C991 0.961 . S
H1008 C992 0.931 . S
H1009 C997 0.930 . S
H1010 C998 0.956 . S
H1011 C998 0.961 . S
H1012 C998 0.961 . S
H1013 C999 0.958 . S
H1014 C999 0.961 . S
H1015 C999 0.960 . S
C1016 C1017 1.391 . S
C1016 C1018 1.394 . S
C1016 H1032 0.931 . S
C1017 C1016 1.391 . S
C1017 C1021 1.376 . S
C1018 C1016 1.394 . S
C1018 C1019 1.369 . S
C1018 C1022 1.531 . S
C1019 C1018 1.369 . S
C1019 C1020 1.410 . S
C1019 C1027 1.503 . S
C1020 C1019 1.410 . S
C1020 C1021 1.392 . S
C1020 C1023 1.511 . S
C1021 C1017 1.376 . S
C1021 C1020 1.392 . S
C1021 H1033 0.929 . S
C1022 C1018 1.531 . S
C1022 H1034 0.960 . S
C1022 H1035 0.962 . S
C1022 H1036 0.960 . S
C1023 C1020 1.511 . S
C1023 H1037 0.961 . S
C1023 H1038 0.961 . S
C1023 H1039 0.961 . S
C1024 C1025 1.370 . S
C1024 C1026 1.363 . S
C1024 H1040 0.931 . S
C1025 C1024 1.370 . S
C1025 C1029 1.408 . S
C1026 C1024 1.363 . S
C1026 C1027 1.370 . S
C1026 C1030 1.524 . S
C1027 C1019 1.503 . S
C1027 C1026 1.370 . S
C1027 C1028 1.403 . S
C1028 C1027 1.403 . S
C1028 C1029 1.404 . S
C1028 C1031 1.539 . S
C1029 C1025 1.408 . S
C1029 C1028 1.404 . S
C1029 H1041 0.930 . S
C1030 C1026 1.524 . S
C1030 H1042 0.956 . S
C1030 H1043 0.961 . S
C1030 H1044 0.961 . S
C1031 C1028 1.539 . S
C1031 H1045 0.958 . S
C1031 H1046 0.961 . S
C1031 H1047 0.960 . S
H1032 C1016 0.931 . S
H1033 C1021 0.929 . S
H1034 C1022 0.960 . S
H1035 C1022 0.962 . S
H1036 C1022 0.960 . S
H1037 C1023 0.961 . S
H1038 C1023 0.961 . S
H1039 C1023 0.961 . S
H1040 C1024 0.931 . S
H1041 C1029 0.930 . S
H1042 C1030 0.956 . S
H1043 C1030 0.961 . S
H1044 C1030 0.961 . S
H1045 C1031 0.958 . S
H1046 C1031 0.961 . S
H1047 C1031 0.960 . S
C1048 C1049 1.391 . S
C1048 C1050 1.394 . S
C1048 H1064 0.931 . S
C1049 C1048 1.391 . S
C1049 C1053 1.376 . S
C1050 C1048 1.394 . S
C1050 C1051 1.369 . S
C1050 C1054 1.531 . S
C1051 C1050 1.369 . S
C1051 C1052 1.410 . S
C1051 C1059 1.503 . S
C1052 C1051 1.410 . S
C1052 C1053 1.392 . S
C1052 C1055 1.511 . S
C1053 C1049 1.376 . S
C1053 C1052 1.392 . S
C1053 H1065 0.929 . S
C1054 C1050 1.531 . S
C1054 H1066 0.960 . S
C1054 H1067 0.962 . S
C1054 H1068 0.960 . S
C1055 C1052 1.511 . S
C1055 H1069 0.961 . S
C1055 H1070 0.961 . S
C1055 H1071 0.961 . S
C1056 C1057 1.370 . S
C1056 C1058 1.363 . S
C1056 H1072 0.931 . S
C1057 C1056 1.370 . S
C1057 C1061 1.408 . S
C1058 C1056 1.363 . S
C1058 C1059 1.370 . S
C1058 C1062 1.524 . S
C1059 C1051 1.503 . S
C1059 C1058 1.370 . S
C1059 C1060 1.403 . S
C1060 C1059 1.403 . S
C1060 C1061 1.404 . S
C1060 C1063 1.539 . S
C1061 C1057 1.408 . S
C1061 C1060 1.404 . S
C1061 H1073 0.930 . S
C1062 C1058 1.524 . S
C1062 H1074 0.956 . S
C1062 H1075 0.961 . S
C1062 H1076 0.961 . S
C1063 C1060 1.539 . S
C1063 H1077 0.958 . S
C1063 H1078 0.961 . S
C1063 H1079 0.960 . S
H1064 C1048 0.931 . S
H1065 C1053 0.929 . S
H1066 C1054 0.960 . S
H1067 C1054 0.962 . S
H1068 C1054 0.960 . S
H1069 C1055 0.961 . S
H1070 C1055 0.961 . S
H1071 C1055 0.961 . S
H1072 C1056 0.931 . S
H1073 C1061 0.930 . S
H1074 C1062 0.956 . S
H1075 C1062 0.961 . S
H1076 C1062 0.961 . S
H1077 C1063 0.958 . S
H1078 C1063 0.961 . S
H1079 C1063 0.960 . S
C313 C6 1.163 . S
C321 C169 1.213 . S
C345 C21 1.469 . S
C353 C209 1.498 . S
C385 C234 1.839 . S
C377 C49 1.810 . S
C409 C68 2.160 . S
C417 C274 2.215 1_655 S
C449 C205 2.516 . S
C441 C2 2.425 . S
C481 C165 1.453 . S
C473 C30 1.406 . S
C513 C296 1.591 . S
C505 C40 1.604 . S
C545 C256 1.516 . S
C537 C63 1.594 . S
C569 C11 1.202 . S
C577 C298 1.256 . S
C609 C215 2.428 . S
C601 C44 2.472 . S
C633 C59 1.734 . S
C641 C175 1.712 . S
C665 C25 1.809 . S
C673 C258 1.824 . S
C705 C178 1.425 . S
C697 C82 1.425 . S
C729 C101 1.137 . S
C737 C218 1.208 . S
C761 C125 2.185 . S
C769 C255 2.221 . S
C793 C144 1.884 . S
C801 C295 1.905 . S
C825 C87 1.388 . S
C833 C216 1.508 . S
C865 C176 2.462 . S
C857 C97 2.391 . S
C897 C285 1.478 . S
C889 C120 1.552 . S
C929 C245 1.625 . S
C921 C135 1.615 . S
C953 C78 1.806 . S
C961 C289 1.903 . S
C993 C194 1.701 . S
C985 C116 1.682 . S
C1025 C154 2.410 . S
C1017 C139 2.450 . S
C1049 C106 0.971 . S
C1057 C249 1.258 . S
