# Generated by pormake.
# Topology apo, (3,6)-cn, num edge types: 1
# Building blocks:
#     Node 0, Type 0, BuildingBlock: QEWDON_clean_linker_0, # of connection points: 3
#     Node 1, Type 0, BuildingBlock: QEWDON_clean_linker_0, # of connection points: 3
#     Node 2, Type 0, BuildingBlock: QEWDON_clean_linker_0, # of connection points: 3
#     Node 3, Type 0, BuildingBlock: QEWDON_clean_linker_0, # of connection points: 3
#     Node 4, Type 0, BuildingBlock: QEWDON_clean_linker_0, # of connection points: 3
#     Node 5, Type 0, BuildingBlock: QEWDON_clean_linker_0, # of connection points: 3
#     Node 6, Type 0, BuildingBlock: QEWDON_clean_linker_0, # of connection points: 3
#     Node 7, Type 0, BuildingBlock: QEWDON_clean_linker_0, # of connection points: 3
#     Node 8, Type 1, BuildingBlock: KUMJIN_clean_sbu_1, # of connection points: 6
#     Node 9, Type 1, BuildingBlock: KUMJIN_clean_sbu_1, # of connection points: 6
#     Node 10, Type 1, BuildingBlock: KUMJIN_clean_sbu_1, # of connection points: 6
#     Node 11, Type 1, BuildingBlock: KUMJIN_clean_sbu_1, # of connection points: 6
#     Edge 12, Type (0, 1), BuildingBlock: CIFDUS_clean_linker_0, # of connection points: 2
#     Edge 13, Type (0, 1), BuildingBlock: CIFDUS_clean_linker_0, # of connection points: 2
#     Edge 14, Type (0, 1), BuildingBlock: CIFDUS_clean_linker_0, # of connection points: 2
#     Edge 15, Type (0, 1), BuildingBlock: CIFDUS_clean_linker_0, # of connection points: 2
#     Edge 16, Type (0, 1), BuildingBlock: CIFDUS_clean_linker_0, # of connection points: 2
#     Edge 17, Type (0, 1), BuildingBlock: CIFDUS_clean_linker_0, # of connection points: 2
#     Edge 18, Type (0, 1), BuildingBlock: CIFDUS_clean_linker_0, # of connection points: 2
#     Edge 19, Type (0, 1), BuildingBlock: CIFDUS_clean_linker_0, # of connection points: 2
#     Edge 20, Type (0, 1), BuildingBlock: CIFDUS_clean_linker_0, # of connection points: 2
#     Edge 21, Type (0, 1), BuildingBlock: CIFDUS_clean_linker_0, # of connection points: 2
#     Edge 22, Type (0, 1), BuildingBlock: CIFDUS_clean_linker_0, # of connection points: 2
#     Edge 23, Type (0, 1), BuildingBlock: CIFDUS_clean_linker_0, # of connection points: 2
#     Edge 24, Type (0, 1), BuildingBlock: CIFDUS_clean_linker_0, # of connection points: 2
#     Edge 25, Type (0, 1), BuildingBlock: CIFDUS_clean_linker_0, # of connection points: 2
#     Edge 26, Type (0, 1), BuildingBlock: CIFDUS_clean_linker_0, # of connection points: 2
#     Edge 27, Type (0, 1), BuildingBlock: CIFDUS_clean_linker_0, # of connection points: 2
#     Edge 28, Type (0, 1), BuildingBlock: CIFDUS_clean_linker_0, # of connection points: 2
#     Edge 29, Type (0, 1), BuildingBlock: CIFDUS_clean_linker_0, # of connection points: 2
#     Edge 30, Type (0, 1), BuildingBlock: CIFDUS_clean_linker_0, # of connection points: 2
#     Edge 31, Type (0, 1), BuildingBlock: CIFDUS_clean_linker_0, # of connection points: 2
#     Edge 32, Type (0, 1), BuildingBlock: CIFDUS_clean_linker_0, # of connection points: 2
#     Edge 33, Type (0, 1), BuildingBlock: CIFDUS_clean_linker_0, # of connection points: 2
#     Edge 34, Type (0, 1), BuildingBlock: CIFDUS_clean_linker_0, # of connection points: 2
#     Edge 35, Type (0, 1), BuildingBlock: CIFDUS_clean_linker_0, # of connection points: 2
# Relax obj value: 0.075
# Max RMSD: 0.265
# Mean RMSD: 0.211
data_MOF--net-apo--node1-KUMJIN_clean_sbu_1--node2-QEWDON_clean_linker_0--edge1-CIFDUS_clean_linker_0
_symmetry_space_group_name_H-M    P1
_symmetry_Int_Tables_number       1
_symmetry_cell_setting            triclinic
loop_
_symmetry_equiv_pos_as_xyz
'x, y, z'
_cell_length_a     26.462934
_cell_length_b     36.957084
_cell_length_c     46.476679
_cell_angle_alpha  89.8302
_cell_angle_beta   89.987923
_cell_angle_gamma 91.684712
loop_
_atom_site_label
_atom_site_type_symbol
_atom_site_fract_x
_atom_site_fract_y
_atom_site_fract_z
_atom_type_partial_charge
H0 H 0.29236 0.43401 0.37553 0.0
C1 C 0.30614 0.43206 0.39742 0.0
C2 C 0.34919 0.4526 0.40599 0.0
C3 C 0.27741 0.41213 0.41781 0.0
H4 H 0.39883 0.46541 0.44156 0.0
C5 C 0.36485 0.45068 0.43486 0.0
C6 C 0.3347 0.43325 0.45586 0.0
C7 C 0.29153 0.41323 0.44703 0.0
C8 C 0.22689 0.39713 0.40982 0.0
H9 H 0.26682 0.40067 0.46302 0.0
C10 C 0.22071 0.36619 0.39228 0.0
C11 C 0.17168 0.3527 0.38521 0.0
C12 C 0.18412 0.41475 0.41982 0.0
H13 H 0.18818 0.43865 0.43318 0.0
C14 C 0.13585 0.40216 0.41234 0.0
H15 H 0.25378 0.35234 0.38487 0.0
C16 C 0.12957 0.37156 0.39514 0.0
H17 H 0.09146 0.36286 0.38942 0.0
H18 H 0.10309 0.41624 0.41986 0.0
H19 H 0.2505 0.11275 0.87392 0.0
C20 C 0.23901 0.11356 0.8963 0.0
C21 C 0.19335 0.09622 0.90498 0.0
C22 C 0.27103 0.13046 0.91661 0.0
H23 H 0.14445 0.08325 0.94094 0.0
C24 C 0.17951 0.09667 0.93431 0.0
C25 C 0.21146 0.11309 0.95514 0.0
C26 C 0.25699 0.12998 0.9458 0.0
C27 C 0.32262 0.14392 0.90852 0.0
H28 H 0.28318 0.14151 0.96143 0.0
C29 C 0.33127 0.17169 0.88789 0.0
C30 C 0.38124 0.18395 0.8815 0.0
C31 C 0.3641 0.12868 0.92242 0.0
H32 H 0.35845 0.10726 0.93817 0.0
C33 C 0.41318 0.14071 0.91619 0.0
H34 H 0.29954 0.18365 0.87706 0.0
C35 C 0.42175 0.16811 0.89604 0.0
H36 H 0.46039 0.17729 0.89207 0.0
H37 H 0.44477 0.12884 0.92717 0.0
H38 H 0.77876 0.14297 0.6672 0.0
C39 C 0.79484 0.14454 0.64576 0.0
C40 C 0.83839 0.12528 0.63922 0.0
C41 C 0.76922 0.16306 0.62405 0.0
H42 H 0.89116 0.11164 0.60581 0.0
C43 C 0.85733 0.12619 0.61086 0.0
C44 C 0.83236 0.14495 0.58891 0.0
C45 C 0.78817 0.16327 0.59583 0.0
C46 C 0.7186 0.17732 0.62969 0.0
H47 H 0.76694 0.17637 0.57901 0.0
C48 C 0.71198 0.20765 0.64742 0.0
C49 C 0.66321 0.22075 0.65193 0.0
C50 C 0.67625 0.16018 0.61687 0.0
H51 H 0.68067 0.13677 0.60321 0.0
C52 C 0.6279 0.17289 0.62173 0.0
H53 H 0.74448 0.22129 0.65717 0.0
C54 C 0.62134 0.20306 0.63913 0.0
H55 H 0.5836 0.2129 0.64239 0.0
H56 H 0.59546 0.15946 0.61183 0.0
H57 H 0.74645 0.41736 0.16902 0.0
C58 C 0.73084 0.4133 0.14768 0.0
C59 C 0.6851 0.42932 0.13994 0.0
C60 C 0.75867 0.39421 0.12733 0.0
H61 H 0.63141 0.43651 0.10535 0.0
C62 C 0.66669 0.42461 0.11163 0.0
C63 C 0.69446 0.40581 0.09098 0.0
C64 C 0.74041 0.39073 0.09911 0.0
C65 C 0.80915 0.38059 0.13459 0.0
H66 H 0.76224 0.37619 0.08339 0.0
C67 C 0.8155 0.35487 0.15665 0.0
C68 C 0.86353 0.34086 0.16187 0.0
C69 C 0.85133 0.39272 0.11849 0.0
H70 H 0.84725 0.41259 0.10151 0.0
C71 C 0.89906 0.37938 0.12414 0.0
H72 H 0.78311 0.34489 0.16891 0.0
C73 C 0.90515 0.35341 0.14558 0.0
H74 H 0.94232 0.34277 0.14929 0.0
H75 H 0.93133 0.38887 0.11162 0.0
H76 H 0.70157 0.63653 0.65436 0.0
C77 C 0.69477 0.6287 0.63223 0.0
C78 C 0.67524 0.59355 0.62594 0.0
C79 C 0.7034 0.65423 0.60993 0.0
H80 H 0.64626 0.5586 0.59214 0.0
C81 C 0.6637 0.58472 0.59715 0.0
C82 C 0.67235 0.60957 0.57471 0.0
C83 C 0.69382 0.64367 0.58119 0.0
C84 C 0.71511 0.69334 0.6161 0.0
H85 H 0.69995 0.66299 0.56385 0.0
C86 C 0.7523 0.70536 0.63624 0.0
C87 C 0.76202 0.74298 0.64049 0.0
C88 C 0.68757 0.71938 0.60105 0.0
H89 H 0.65775 0.71135 0.58623 0.0
C90 C 0.69776 0.75612 0.60475 0.0
H91 H 0.77331 0.68577 0.64838 0.0
C92 C 0.73485 0.76783 0.62396 0.0
H93 H 0.74229 0.79671 0.62582 0.0
H94 H 0.67674 0.77569 0.59261 0.0
H95 H 0.85453 0.89468 0.16846 0.0
C96 C 0.85159 0.90016 0.14562 0.0
C97 C 0.8594 0.93559 0.13498 0.0
C98 C 0.84115 0.87119 0.12693 0.0
H99 H 0.86199 0.96829 0.09622 0.0
C100 C 0.85476 0.94152 0.10513 0.0
C101 C 0.84337 0.91279 0.0862 0.0
C102 C 0.83709 0.87753 0.09726 0.0
C103 C 0.84132 0.8339 0.13826 0.0
H104 H 0.82964 0.85501 0.08282 0.0
C105 C 0.7961 0.81451 0.14473 0.0
C106 C 0.79775 0.77926 0.1564 0.0
C107 C 0.88795 0.81815 0.14359 0.0
H108 H 0.92301 0.83288 0.13889 0.0
C109 C 0.88978 0.78342 0.15517 0.0
H110 H 0.76008 0.82674 0.14062 0.0
C111 C 0.84514 0.76412 0.1616 0.0
H112 H 0.84777 0.73741 0.17106 0.0
H113 H 0.92593 0.77149 0.15935 0.0
H114 H 0.1813 0.87447 0.3653 0.0
C115 C 0.173 0.88109 0.38746 0.0
C116 C 0.15551 0.91581 0.39459 0.0
C117 C 0.17852 0.85446 0.40885 0.0
H118 H 0.1292 0.9493 0.42966 0.0
C119 C 0.14436 0.92346 0.42372 0.0
C120 C 0.15014 0.89707 0.44515 0.0
C121 C 0.16809 0.86324 0.43755 0.0
C122 C 0.19227 0.81654 0.40214 0.0
H123 H 0.17353 0.84328 0.45434 0.0
C124 C 0.23322 0.80832 0.38398 0.0
C125 C 0.25021 0.77225 0.38182 0.0
C126 C 0.16595 0.78813 0.41633 0.0
H127 H 0.13329 0.79332 0.4296 0.0
C128 C 0.18246 0.75296 0.41471 0.0
H129 H 0.25206 0.83018 0.37234 0.0
C130 C 0.22483 0.74523 0.39847 0.0
H131 H 0.23759 0.7178 0.39969 0.0
H132 H 0.16302 0.73163 0.42675 0.0
H133 H 0.33452 0.66509 0.8589 0.0
C134 C 0.33745 0.66414 0.88213 0.0
C135 C 0.34972 0.63174 0.89621 0.0
C136 C 0.32993 0.6959 0.89789 0.0
H137 H 0.36693 0.608 0.93741 0.0
C138 C 0.35441 0.63199 0.92642 0.0
C139 C 0.34547 0.66326 0.94262 0.0
C140 C 0.3332 0.69522 0.92801 0.0
C141 C 0.32642 0.73097 0.88283 0.0
H142 H 0.32715 0.71988 0.93992 0.0
C143 C 0.27957 0.7467 0.87713 0.0
C144 C 0.27812 0.78125 0.86422 0.0
C145 C 0.37139 0.74955 0.87512 0.0
H146 H 0.40769 0.73781 0.87941 0.0
C147 C 0.37 0.78357 0.86219 0.0
H148 H 0.24472 0.7325 0.88315 0.0
C149 C 0.32376 0.79944 0.85689 0.0
H150 H 0.32358 0.82588 0.84675 0.0
H151 H 0.40489 0.79778 0.85638 0.0
Eu152 Eu 0.07993 0.13326 0.23889 0.0
C153 C 0.87432 0.07838 0.27805 0.0
N154 N 0.89236 0.11319 0.2799 0.0
C155 C 0.81754 0.13392 0.25661 0.0
C156 C 0.82819 0.06992 0.26406 0.0
C157 C 0.86322 0.14098 0.27093 0.0
C158 C 0.8004 0.09821 0.25266 0.0
C159 C 0.88236 1.01509 0.29109 0.0
C160 C 0.90086 0.05121 0.29139 0.0
C161 C 0.83755 1.00638 0.27615 0.0
C162 C 0.81057 0.03372 0.26263 0.0
Eu163 Eu 0.97267 0.12154 0.30233 0.0
N164 N 0.94494 0.06028 0.30494 0.0
C165 C 0.90926 0.98892 0.30607 0.0
C166 C 0.96981 0.03541 0.32095 0.0
C167 C 0.95279 0.99923 0.3214 0.0
H168 H 0.87448 0.16876 0.27508 0.0
H169 H 0.97324 0.97935 0.33352 0.0
H170 H 0.18127 0.10208 0.27295 0.0
H171 H 0.05137 0.26493 0.18799 0.0
H172 H 1.00325 0.04357 0.33288 0.0
H173 H 0.89626 0.96085 0.30636 0.0
H174 H 0.03073 0.20135 0.19978 0.0
H175 H 0.79525 0.15608 0.24896 0.0
H176 H 0.82299 0.97869 0.27535 0.0
H177 H 0.7755 0.0267 0.25169 0.0
H178 H 0.26618 0.12426 0.28783 0.0
H179 H 0.76479 0.09285 0.24174 0.0
H180 H 0.13273 0.29281 0.2039 0.0
N181 N 0.16099 0.15231 0.25453 0.0
C182 C 0.17613 0.18662 0.24737 0.0
C183 C 0.24109 0.14215 0.27665 0.0
C184 C 0.22436 0.20037 0.25536 0.0
C185 C 0.19281 0.12976 0.26844 0.0
C186 C 0.25687 0.17766 0.27023 0.0
N187 N 0.09645 0.19422 0.22519 0.0
C188 C 0.06475 0.21365 0.2084 0.0
C189 C 0.157 0.2443 0.22548 0.0
C190 C 0.14264 0.20834 0.23272 0.0
C191 C 0.12312 0.26508 0.20986 0.0
C192 C 0.07705 0.24952 0.20099 0.0
H193 H 0.29424 0.18722 0.27672 0.0
H194 H 0.27522 0.2474 0.25461 0.0
H195 H 0.21634 0.28582 0.2284 0.0
O196 O 0.09558 0.1369 0.19288 0.0
O197 O 0.09396 0.1646 0.28087 0.0
O198 O 0.01309 0.1757 0.29576 0.0
O199 O 0.12163 0.09096 0.21681 0.0
O200 O 0.99976 0.15104 0.22935 0.0
O201 O 0.9645 0.17016 0.27218 0.0
O202 O 0.98514 0.1188 0.34902 0.0
O203 O 0.99196 0.07531 0.27235 0.0
O204 O 1.00417 0.10555 0.2303 0.0
O205 O 0.91649 0.14066 0.3327 0.0
O206 O 0.05437 0.10922 0.3125 0.0
O207 O 0.08871 0.08618 0.27066 0.0
C208 C 0.06208 0.18208 0.29716 0.0
C209 C 0.168 0.1096 0.17468 0.0
C210 C 0.20892 0.11772 0.12769 0.0
C211 C 0.25618 0.1186 0.14149 0.0
C212 C 0.21566 0.11036 0.18792 0.0
C213 C 0.25944 0.11466 0.17134 0.0
C214 C 0.16485 0.11283 0.14444 0.0
C215 C 0.96884 0.17157 0.24388 0.0
C216 C 0.12107 0.10744 0.19191 0.0
C217 C 0.23843 0.2363 0.24852 0.0
C218 C 0.20482 0.25821 0.23367 0.0
C219 C 0.98778 0.07696 0.24438 0.0
C220 C 0.91066 0.10803 0.37631 0.0
C221 C 0.88645 0.09245 0.42576 0.0
C222 C 0.85463 0.06445 0.41507 0.0
C223 C 0.87767 0.0804 0.36632 0.0
C224 C 0.91454 0.11433 0.40617 0.0
C225 C 0.85019 0.05864 0.38558 0.0
C226 C 0.08349 0.08647 0.29901 0.0
C227 C 0.94051 0.13019 0.35552 0.0
H228 H 0.29064 0.12237 0.12911 0.0
H229 H 0.21909 0.10802 0.21104 0.0
H230 H 0.29608 0.11537 0.18171 0.0
H231 H 0.12815 0.11271 0.13406 0.0
H232 H 0.83225 0.04749 0.42958 0.0
H233 H 0.87267 0.07582 0.34359 0.0
H234 H 0.93944 0.13587 0.41409 0.0
H235 H 0.825 0.03736 0.37759 0.0
Eu236 Eu 0.44843 0.4136 0.74448 0.0
C237 C 0.6606 0.45534 0.78633 0.0
N238 N 0.63565 0.42313 0.79083 0.0
C239 C 0.70816 0.39147 0.77455 0.0
C240 C 0.70967 0.45685 0.77446 0.0
C241 C 0.65975 0.39139 0.78663 0.0
C242 C 0.73289 0.42434 0.76794 0.0
C243 C 0.66372 0.52063 0.79221 0.0
C244 C 0.63815 0.48684 0.79515 0.0
C245 C 0.71162 0.52242 0.77918 0.0
C246 C 0.73454 0.49059 0.77031 0.0
Eu247 Eu 0.55168 0.42634 0.80849 0.0
N248 N 0.59137 0.48434 0.8071 0.0
C249 C 0.64065 0.55148 0.80289 0.0
C250 C 0.56991 0.51387 0.81909 0.0
C251 C 0.59388 0.548 0.81678 0.0
H252 H 0.64201 0.36583 0.79274 0.0
H253 H 0.57622 0.57156 0.82562 0.0
H254 H 0.34342 0.43935 0.77738 0.0
H255 H 0.48599 0.28409 0.69276 0.0
H256 H 0.53371 0.51105 0.82976 0.0
H257 H 0.65907 0.57796 0.80103 0.0
H258 H 0.49625 0.34985 0.70064 0.0
H259 H 0.72657 0.36619 0.77064 0.0
H260 H 0.73168 0.54817 0.77641 0.0
H261 H 0.77202 0.4923 0.76093 0.0
H262 H 0.2647 0.41131 0.7976 0.0
H263 H 0.77055 0.42433 0.75879 0.0
H264 H 0.41684 0.24947 0.71718 0.0
N265 N 0.37157 0.38932 0.76302 0.0
C266 C 0.36242 0.35331 0.75918 0.0
C267 C 0.29204 0.39468 0.78702 0.0
C268 C 0.31858 0.33612 0.77057 0.0
C269 C 0.33636 0.41047 0.77556 0.0
C270 C 0.28345 0.35726 0.78488 0.0
N271 N 0.43762 0.35172 0.73185 0.0
C272 C 0.46757 0.33475 0.7125 0.0
C273 C 0.38846 0.29645 0.73898 0.0
C274 C 0.39703 0.33381 0.74364 0.0
C275 C 0.42201 0.27819 0.72126 0.0
C276 C 0.46114 0.29761 0.7075 0.0
H277 H 0.24925 0.34507 0.79394 0.0
H278 H 0.27797 0.28477 0.77604 0.0
H279 H 0.33916 0.25001 0.74835 0.0
O280 O 0.41781 0.40834 0.70031 0.0
O281 O 0.43261 0.3942 0.79047 0.0
O282 O 0.50805 0.37276 0.80534 0.0
O283 O 0.40945 0.45829 0.72469 0.0
O284 O 0.52776 0.39299 0.73636 0.0
O285 O 0.55467 0.37508 0.78137 0.0
O286 O 0.5301 0.43411 0.85335 0.0
O287 O 0.54249 0.47003 0.77404 0.0
O288 O 0.52545 0.43835 0.73281 0.0
O289 O 0.602 0.41136 0.84376 0.0
O290 O 0.47384 0.44924 0.81588 0.0
O291 O 0.44365 0.46521 0.77086 0.0
C292 C 0.4587 0.36946 0.80357 0.0
C293 C 0.37189 0.45738 0.67709 0.0
C294 C 0.34672 0.46029 0.62648 0.0
C295 C 0.31813 0.49077 0.63281 0.0
C296 C 0.34324 0.48799 0.68267 0.0
C297 C 0.31638 0.5044 0.66068 0.0
C298 C 0.3731 0.44328 0.64891 0.0
C299 C 0.55471 0.37209 0.75311 0.0
C300 C 0.40014 0.4408 0.70093 0.0
C301 C 0.31108 0.29861 0.7671 0.0
C302 C 0.346 0.2788 0.75139 0.0
C303 C 0.54754 0.46581 0.74617 0.0
C304 C 0.56082 0.39191 0.88645 0.0
C305 C 0.56492 0.37344 0.93696 0.0
C306 C 0.5384 0.34111 0.92992 0.0
C307 C 0.53474 0.35937 0.87993 0.0
C308 C 0.57623 0.39876 0.91495 0.0
C309 C 0.52364 0.33414 0.90158 0.0
C310 C 0.44806 0.47045 0.79882 0.0
C311 C 0.57013 0.41938 0.8639 0.0
H312 H 0.29685 0.50406 0.61612 0.0
H313 H 0.34132 0.49922 0.70414 0.0
H314 H 0.29424 0.52787 0.66525 0.0
H315 H 0.39546 0.41989 0.64431 0.0
H316 H 0.52959 0.321 0.94631 0.0
H317 H 0.52266 0.35356 0.85818 0.0
H318 H 0.59598 0.42404 0.92006 0.0
H319 H 0.50338 0.30913 0.89638 0.0
Eu320 Eu 0.05313 0.90961 0.73275 0.0
C321 C 0.83187 0.90634 0.78483 0.0
N322 N 0.86371 0.93563 0.7816 0.0
C323 C 0.79507 0.97159 0.76584 0.0
C324 C 0.78005 0.90857 0.77818 0.0
C325 C 0.84615 0.9681 0.77263 0.0
C326 C 0.76188 0.94169 0.76856 0.0
C327 C 0.81939 0.84277 0.79701 0.0
C328 C 0.85146 0.87374 0.79408 0.0
C329 C 0.76779 0.84494 0.79039 0.0
C330 C 0.74819 0.87773 0.78102 0.0
Eu331 Eu 0.94873 0.9274 0.79429 0.0
N332 N 0.90191 0.87216 0.7997 0.0
C333 C 0.8401 0.81051 0.80661 0.0
C334 C 0.92165 0.84122 0.81044 0.0
C335 C 0.89132 0.80985 0.81362 0.0
H336 H 0.8713 0.99156 0.77125 0.0
H337 H 0.90736 0.78528 0.82185 0.0
H338 H 0.12942 0.84446 0.75474 0.0
H339 H 0.09549 0.05256 0.70878 0.0
H340 H 0.96031 0.84057 0.81737 0.0
H341 H 0.81671 0.78615 0.80915 0.0
H342 H 0.0423 0.99712 0.71142 0.0
H343 H 0.78128 0.99739 0.75869 0.0
H344 H 0.74268 0.82139 0.79247 0.0
H345 H 0.70831 0.87892 0.77594 0.0
H346 H 0.21833 0.83843 0.77008 0.0
H347 H 0.72232 0.94448 0.76323 0.0
H348 H 0.18533 0.05133 0.72322 0.0
N349 N 0.13712 0.90089 0.74705 0.0
C350 C 0.16894 0.93043 0.74525 0.0
C351 C 0.20485 0.86449 0.76332 0.0
C352 C 0.22023 0.92809 0.75305 0.0
C353 C 0.1544 0.86804 0.75516 0.0
C354 C 0.23788 0.89467 0.76239 0.0
N355 N 0.09976 0.9651 0.72947 0.0
C356 C 0.08059 0.99632 0.71895 0.0
C357 C 0.18201 0.99438 0.73437 0.0
C358 C 0.14987 0.96333 0.73607 0.0
C359 C 0.16185 0.0269 0.72487 0.0
C360 C 0.11107 0.02776 0.71687 0.0
H361 H 0.27699 0.89181 0.76867 0.0
H362 H 0.29162 0.95779 0.75742 0.0
H363 H 0.25825 1.0157 0.74101 0.0
O364 O 0.05184 0.91847 0.6861 0.0
O365 O 0.07892 0.93715 0.77484 0.0
O366 O 0.01063 0.96984 0.78756 0.0
O367 O 0.09094 0.8729 0.7035 0.0
O368 O 0.98508 0.94228 0.72091 0.0
O369 O 0.95968 0.97296 0.76154 0.0
O370 O 0.95168 0.92061 0.84123 0.0
O371 O 0.92202 0.89942 0.75322 0.0
O372 O 0.98833 0.86726 0.73492 0.0
O373 O 0.91526 0.96674 0.82295 0.0
O374 O 0.01728 0.89365 0.80539 0.0
O375 O 0.03507 0.86356 0.76339 0.0
C376 C 0.05877 0.96334 0.78974 0.0
C377 C 0.12598 0.90138 0.66173 0.0
C378 C 0.15983 0.91922 0.61445 0.0
C379 C 0.20874 0.92045 0.62636 0.0
C380 C 0.17544 0.90211 0.67274 0.0
C381 C 0.21634 0.91191 0.65523 0.0
C382 C 0.1184 0.90976 0.63243 0.0
C383 C 0.96057 0.96847 0.7334 0.0
C384 C 0.08228 0.89227 0.68064 0.0
C385 C 0.25213 0.95907 0.75147 0.0
C386 C 0.2331 0.99207 0.74214 0.0
C387 C 0.93955 0.87297 0.73751 0.0
C388 C 0.88005 0.94218 0.86598 0.0
C389 C 0.84697 0.93016 0.91442 0.0
C390 C 0.79757 0.93249 0.90359 0.0
C391 C 0.83019 0.94472 0.85588 0.0
C392 C 0.88823 0.93463 0.89534 0.0
C393 C 0.78937 0.93962 0.87453 0.0
C394 C 0.0388 0.86715 0.79141 0.0
C395 C 0.92349 0.94821 0.84625 0.0
H396 H 0.24148 0.92696 0.61314 0.0
H397 H 0.18279 0.89482 0.6948 0.0
H398 H 0.25425 0.91242 0.66401 0.0
H399 H 0.0804 0.90897 0.62371 0.0
H400 H 0.76515 0.92864 0.91762 0.0
H401 H 0.8225 0.95103 0.83364 0.0
H402 H 0.92654 0.93311 0.90341 0.0
H403 H 0.75116 0.94149 0.86646 0.0
Eu404 Eu 0.452 0.64217 0.23141 0.0
C405 C 0.66824 0.68229 0.26731 0.0
N406 N 0.65038 0.6477 0.26443 0.0
C407 C 0.72215 0.63296 0.23584 0.0
C408 C 0.71338 0.69396 0.25358 0.0
C409 C 0.67705 0.6227 0.24972 0.0
C410 C 0.7402 0.66882 0.23757 0.0
C411 C 0.65861 0.74221 0.28722 0.0
C412 C 0.64086 0.70609 0.28379 0.0
C413 C 0.7028 0.75426 0.27291 0.0
C414 C 0.73012 0.7302 0.25614 0.0
Eu415 Eu 0.57305 0.63266 0.28711 0.0
N416 N 0.59795 0.69369 0.29719 0.0
C417 C 0.63202 0.76494 0.30543 0.0
C418 C 0.57436 0.71501 0.31673 0.0
C419 C 0.59028 0.75107 0.32064 0.0
H420 H 0.66283 0.59504 0.2483 0.0
H421 H 0.57074 0.76801 0.33571 0.0
H422 H 0.39232 0.71817 0.24768 0.0
H423 H 0.36396 0.50881 0.21306 0.0
H424 H 0.54383 0.70437 0.3299 0.0
H425 H 0.6444 0.79284 0.30864 0.0
H426 H 0.42869 0.55829 0.20734 0.0
H427 H 0.74282 0.61329 0.2237 0.0
H428 H 0.71658 0.78202 0.27504 0.0
H429 H 0.76432 0.73982 0.24541 0.0
H430 H 0.31199 0.73634 0.26987 0.0
H431 H 0.77492 0.67679 0.22659 0.0
H432 H 0.28865 0.5182 0.24344 0.0
N433 N 0.37568 0.66179 0.25201 0.0
C434 C 0.34026 0.63585 0.25874 0.0
C435 C 0.3196 0.70795 0.26707 0.0
C436 C 0.29375 0.64491 0.27123 0.0
C437 C 0.36513 0.69757 0.2547 0.0
C438 C 0.28414 0.68147 0.27592 0.0
N439 N 0.39118 0.59407 0.23534 0.0
C440 C 0.39576 0.56233 0.22062 0.0
C441 C 0.31031 0.5736 0.25385 0.0
C442 C 0.34835 0.60073 0.25018 0.0
C443 C 0.31701 0.53976 0.24115 0.0
C444 C 0.35935 0.5344 0.22386 0.0
H445 H 0.24887 0.68957 0.28544 0.0
H446 H 0.22174 0.62377 0.28719 0.0
H447 H 0.23628 0.5612 0.27193 0.0
O448 O 0.45798 0.63267 0.18481 0.0
O449 O 0.4567 0.59143 0.25983 0.0
O450 O 0.49559 0.61245 0.30084 0.0
O451 O 0.40949 0.67364 0.20041 0.0
O452 O 0.51665 0.60765 0.21647 0.0
O453 O 0.56228 0.58534 0.25571 0.0
O454 O 0.61177 0.63382 0.32884 0.0
O455 O 0.58124 0.65199 0.24096 0.0
O456 O 0.51281 0.68694 0.23329 0.0
O457 O 0.60725 0.58425 0.30463 0.0
O458 O 0.50099 0.65696 0.30393 0.0
O459 O 0.47213 0.68636 0.26407 0.0
C460 C 0.46724 0.58833 0.28736 0.0
C461 C 0.38084 0.64088 0.16009 0.0
C462 C 0.34398 0.62771 0.11284 0.0
C463 C 0.29979 0.61437 0.12657 0.0
C464 C 0.33603 0.62769 0.17309 0.0
C465 C 0.29598 0.61439 0.15644 0.0
C466 C 0.38462 0.64105 0.12985 0.0
C467 C 0.54745 0.5843 0.22842 0.0
C468 C 0.42278 0.65504 0.17819 0.0
C469 C 0.25736 0.61744 0.27715 0.0
C470 C 0.26565 0.5818 0.26848 0.0
C471 C 0.56114 0.68101 0.23023 0.0
C472 C 0.60252 0.57946 0.3557 0.0
C473 C 0.60661 0.57141 0.40822 0.0
C474 C 0.57195 0.54188 0.4057 0.0
C475 C 0.56727 0.55034 0.35415 0.0
C476 C 0.62186 0.58999 0.38284 0.0
C477 C 0.55229 0.53173 0.37897 0.0
C478 C 0.47196 0.68113 0.29204 0.0
C479 C 0.61878 0.59916 0.32924 0.0
H480 H 0.26765 0.60449 0.11414 0.0
H481 H 0.33159 0.62811 0.19616 0.0
H482 H 0.26161 0.60438 0.16674 0.0
H483 H 0.41903 0.6513 0.11966 0.0
H484 H 0.56025 0.52616 0.42435 0.0
H485 H 0.55125 0.5418 0.33373 0.0
H486 H 0.64813 0.61297 0.38409 0.0
H487 H 0.52541 0.50915 0.37749 0.0
H488 H 0.17065 0.9893 0.39739 0.0
H489 H 0.11813 0.90465 0.33995 0.0
H490 H 0.09751 0.94978 0.30375 0.0
H491 H 0.08762 1.01389 0.28971 0.0
H492 H 0.13246 0.09798 0.34927 0.0
H493 H 0.16254 0.05273 0.38319 0.0
C494 C 0.15453 0.98059 0.37702 0.0
C495 C 0.14602 0.94339 0.37166 0.0
C496 C 0.1413 1.00678 0.35654 0.0
C497 C 0.12596 0.9329 0.34475 0.0
C498 C 0.1137 0.95879 0.32401 0.0
C499 C 0.10512 1.02218 0.30984 0.0
C500 C 0.10845 0.05915 0.31692 0.0
C501 C 0.12055 0.99585 0.32978 0.0
C502 C 0.12984 0.06964 0.34336 0.0
C503 C 0.1468 0.04378 0.3628 0.0
H504 H 0.39293 0.62526 0.8426 0.0
H505 H 0.32893 0.56133 0.91241 0.0
H506 H 0.35384 0.50615 0.88865 0.0
H507 H 0.3972 0.47572 0.84902 0.0
H508 H 0.45284 0.5386 0.77689 0.0
H509 H 0.42658 0.59438 0.80022 0.0
C510 C 0.38327 0.59936 0.85245 0.0
C511 C 0.35999 0.59793 0.87977 0.0
C512 C 0.39621 0.56738 0.83819 0.0
C513 C 0.3484 0.56371 0.89198 0.0
C514 C 0.36221 0.53194 0.87826 0.0
C515 C 0.40297 0.50167 0.83836 0.0
C516 C 0.42696 0.50327 0.81143 0.0
C517 C 0.38685 0.53345 0.85161 0.0
C518 C 0.43402 0.53685 0.79758 0.0
C519 C 0.4193 0.5687 0.81098 0.0
H520 H 0.63121 0.60408 0.67892 0.0
H521 H 0.69128 0.52098 0.62472 0.0
H522 H 0.6579 0.47435 0.65724 0.0
H523 H 0.6056 0.45658 0.69896 0.0
H524 H 0.5494 0.53884 0.755 0.0
H525 H 0.58787 0.58617 0.72434 0.0
C526 C 0.63804 0.57585 0.67455 0.0
C527 C 0.66286 0.56621 0.64894 0.0
C528 C 0.61893 0.54887 0.69358 0.0
C529 C 0.67121 0.52931 0.6438 0.0
C530 C 0.6522 0.50251 0.66243 0.0
C531 C 0.60201 0.4849 0.70446 0.0
C532 C 0.57412 0.49427 0.72891 0.0
C533 C 0.62477 0.51189 0.68694 0.0
C534 C 0.57059 0.53098 0.7362 0.0
C535 C 0.59249 0.55805 0.71862 0.0
H536 H 0.91805 0.93236 0.18363 0.0
H537 H 0.83649 1.00766 0.131 0.0
H538 H 0.86942 0.05779 0.15998 0.0
H539 H 0.92413 0.08073 0.19916 0.0
H540 H 0.99827 1.00518 0.25461 0.0
H541 H 0.96383 0.95446 0.22619 0.0
C542 C 0.90621 0.95951 0.17874 0.0
C543 C 0.87528 0.9659 0.15461 0.0
C544 C 0.924 0.98826 0.19605 0.0
C545 C 0.86142 1.0017 0.14874 0.0
C546 C 0.87989 0.0305 0.16549 0.0
C547 C 0.93262 0.05309 0.20493 0.0
C548 C 0.96433 0.04649 0.22846 0.0
C549 C 0.91189 0.02416 0.18887 0.0
C550 C 0.9742 1.01072 0.23635 0.0
C551 C 0.9546 0.98181 0.22011 0.0
H552 H 0.8635 0.0557 0.63188 0.0
H553 H 0.86181 0.13986 0.6958 0.0
H554 H 0.89757 0.09861 0.73143 0.0
H555 H 0.9316 0.03839 0.74385 0.0
H556 H 0.93091 0.95522 0.67872 0.0
H557 H 0.89415 0.99626 0.64431 0.0
C558 C 0.87149 0.06519 0.65352 0.0
C559 C 0.86078 0.10093 0.66104 0.0
C560 C 0.89157 0.04139 0.67377 0.0
C561 C 0.86996 0.11247 0.68944 0.0
C562 C 0.89041 0.0889 0.70979 0.0
C563 C 0.92291 0.02925 0.72222 0.0
C564 C 0.93447 0.99379 0.71393 0.0
C565 C 0.90156 0.05322 0.70219 0.0
C566 C 0.9231 0.98243 0.68572 0.0
C567 C 0.90194 1.00588 0.66592 0.0
H568 H 0.63927 0.49261 0.12811 0.0
H569 H 0.67294 0.42084 0.19852 0.0
H570 H 0.63468 0.46258 0.23235 0.0
H571 H 0.59173 0.52009 0.24196 0.0
H572 H 0.55547 0.58939 0.17031 0.0
H573 H 0.5937 0.54764 0.13712 0.0
C574 C 0.63742 0.48554 0.15075 0.0
C575 C 0.65894 0.45341 0.16058 0.0
C576 C 0.61482 0.50936 0.17001 0.0
C577 C 0.65722 0.44551 0.19025 0.0
C578 C 0.63512 0.46933 0.20965 0.0
C579 C 0.59221 0.52598 0.21909 0.0
C580 C 0.57056 0.55787 0.20876 0.0
C581 C 0.61399 0.50149 0.1998 0.0
C582 C 0.57133 0.56498 0.17899 0.0
C583 C 0.59339 0.54113 0.15988 0.0
H584 H 0.36691 0.44955 0.34735 0.0
H585 H 0.38284 0.52037 0.4209 0.0
H586 H 0.42138 0.5671 0.39099 0.0
H587 H 0.44942 0.58905 0.34437 0.0
H588 H 0.43178 0.52139 0.26948 0.0
H589 H 0.39359 0.47294 0.29925 0.0
C590 C 0.37864 0.47522 0.3568 0.0
C591 C 0.373 0.48068 0.38666 0.0
C592 C 0.39979 0.50293 0.33917 0.0
C593 C 0.3883 0.51443 0.39834 0.0
C594 C 0.40982 0.54161 0.38115 0.0
C595 C 0.43722 0.56374 0.33444 0.0
C596 C 0.44293 0.55899 0.30468 0.0
C597 C 0.41573 0.53619 0.35163 0.0
C598 C 0.42678 0.52601 0.29225 0.0
C599 C 0.40541 0.49819 0.30934 0.0
H600 H 0.22313 0.04412 0.86786 0.0
H601 H 0.09207 0.10149 0.89505 0.0
H602 H 0.0392 0.06643 0.86127 0.0
H603 H 0.03001 1.01874 0.82452 0.0
H604 H 0.16027 0.95817 0.80037 0.0
H605 H 0.2135 0.9953 0.83198 0.0
C606 C 0.18306 0.04914 0.86616 0.0
C607 C 0.1616 0.0756 0.88377 0.0
C608 C 0.15273 0.02831 0.84712 0.0
C609 C 0.10945 0.08131 0.88174 0.0
C610 C 0.07925 0.06127 0.86241 0.0
C611 C 0.07009 1.0137 0.82603 0.0
C612 C 0.0911 0.98605 0.80934 0.0
C613 C 0.10041 0.03456 0.84507 0.0
C614 C 0.14304 0.97973 0.81214 0.0
C615 C 0.17359 1.00085 0.8305 0.0
H616 H 0.23207 0.16331 0.99724 0.0
H617 H 0.16543 0.05642 0.98491 0.0
H618 H 0.15415 0.04979 0.03677 0.0
H619 H 0.16963 0.07231 0.0864 0.0
H620 H 0.24358 0.17663 0.09818 0.0
H621 H 0.24644 0.18594 0.04608 0.0
C622 C 0.21535 0.13838 1.00575 0.0
C623 C 0.19999 0.11039 0.98678 0.0
C624 C 0.21066 0.13412 0.03577 0.0
C625 C 0.17711 0.07877 0.9986 0.0
C626 C 0.17109 0.07474 0.02844 0.0
C627 C 0.18579 0.0972 0.07745 0.0
C628 C 0.20635 0.1238 0.09606 0.0
C629 C 0.18854 0.10196 0.0473 0.0
C630 C 0.22767 0.15578 0.08426 0.0
C631 C 0.22931 0.16109 0.05448 0.0
H632 H 0.32891 0.38782 0.50316 0.0
H633 H 0.35833 0.4992 0.47834 0.0
H634 H 0.36874 0.51627 0.52834 0.0
H635 H 0.36518 0.501 0.57923 0.0
H636 H 0.33383 0.39088 0.6059 0.0
H637 H 0.32913 0.37186 0.55533 0.0
C638 C 0.33783 0.41573 0.50876 0.0
C639 C 0.34344 0.442 0.48682 0.0
C640 C 0.34335 0.42569 0.53794 0.0
C641 C 0.35498 0.47814 0.49454 0.0
C642 C 0.36054 0.4881 0.52323 0.0
C643 C 0.3574 0.47279 0.57398 0.0
C644 C 0.34928 0.44747 0.59622 0.0
C645 C 0.35428 0.46226 0.54508 0.0
C646 C 0.3403 0.41089 0.58913 0.0
C647 C 0.33727 0.40009 0.56022 0.0
H648 H 0.59993 0.38755 0.0713 0.0
H649 H 0.74997 0.4184 0.04234 0.0
H650 H 0.72286 0.41267 0.99228 0.0
H651 H 0.65709 0.39713 0.95655 0.0
H652 H 0.50753 0.36497 0.98544 0.0
H653 H 0.53365 0.37316 0.03551 0.0
C654 C 0.62652 0.39331 0.05401 0.0
C655 C 0.67695 0.40321 0.06058 0.0
C656 C 0.61076 0.38966 0.0252 0.0
C657 C 0.7111 0.41025 0.0379 0.0
C658 C 0.69558 0.40714 1.00925 0.0
C659 C 0.63012 0.39232 0.97382 0.0
C660 C 0.58048 0.38042 0.96727 0.0
C661 C 0.6456 0.39662 1.00261 0.0
C662 C 0.54611 0.37383 0.98991 0.0
C663 C 0.56098 0.37858 0.01855 0.0
H664 H 0.86647 0.08596 0.56054 0.0
H665 H 0.83569 0.19895 0.54822 0.0
H666 H 0.85465 0.19372 0.49694 0.0
H667 H 0.87324 0.15561 0.45474 0.0
H668 H 0.90261 0.04258 0.46757 0.0
H669 H 0.89224 0.04947 0.51947 0.0
C670 C 0.86499 0.1097 0.54683 0.0
C671 C 0.84938 0.14277 0.55833 0.0
C672 C 0.87564 0.10645 0.51732 0.0
C673 C 0.84688 0.17302 0.53995 0.0
C674 C 0.85791 0.17009 0.5106 0.0
C675 C 0.87844 0.13275 0.46902 0.0
C676 C 0.88845 0.09861 0.45735 0.0
C677 C 0.87137 0.13675 0.4989 0.0
C678 C 0.89454 0.06908 0.47605 0.0
C679 C 0.88849 0.07298 0.50572 0.0
H680 H 0.89154 0.87932 0.04213 0.0
H681 H 0.78587 0.96291 0.0602 0.0
H682 H 0.77869 0.97619 1.00884 0.0
H683 H 0.80189 0.9639 0.95884 0.0
H684 H 0.90911 0.8816 0.94014 0.0
H685 H 0.91695 0.86826 0.99164 0.0
C686 C 0.86677 0.90026 0.0347 0.0
C687 C 0.83898 0.91997 0.05485 0.0
C688 C 0.86345 0.90815 1.0051 0.0
C689 C 0.80764 0.94745 0.04507 0.0
C690 C 0.80352 0.95503 1.01574 0.0
C691 C 0.8269 0.94298 0.96605 0.0
C692 C 0.8546 0.92358 0.9457 0.0
C693 C 0.83119 0.93556 0.99558 0.0
C694 C 0.88759 0.89703 0.95538 0.0
C695 C 0.8918 0.88925 0.9848 0.0
H696 H 0.72258 0.61756 0.52321 0.0
H697 H 0.57902 0.58362 0.55982 0.0
H698 H 0.54572 0.57057 0.51192 0.0
H699 H 0.55672 0.56895 0.45984 0.0
H700 H 0.70166 0.59862 0.42257 0.0
H701 H 0.73426 0.61429 0.47024 0.0
C702 C 0.68404 0.60731 0.52061 0.0
C703 C 0.6535 0.60128 0.54513 0.0
C704 C 0.66511 0.59945 0.49284 0.0
C705 C 0.60362 0.58795 0.54141 0.0
C706 C 0.5844 0.58069 0.51398 0.0
C707 C 0.59575 0.57829 0.46198 0.0
C708 C 0.62651 0.58229 0.4373 0.0
C709 C 0.61482 0.58619 0.48956 0.0
C710 C 0.67656 0.59561 0.44087 0.0
C711 C 0.69551 0.6043 0.46827 0.0
H712 H 0.31755 0.6083 0.97901 0.0
H713 H 0.38467 0.71621 0.97858 0.0
H714 H 0.39206 0.71436 0.03095 0.0
H715 H 0.37794 0.68231 0.07722 0.0
H716 H 0.31455 0.57339 0.07659 0.0
H717 H 0.30867 0.57514 0.02428 0.0
C718 C 0.33456 0.63129 0.99021 0.0
C719 C 0.35032 0.66238 0.97465 0.0
C720 C 0.33968 0.6298 0.02025 0.0
C721 C 0.37126 0.69212 0.98986 0.0
C722 C 0.376 0.69097 0.01986 0.0
C723 C 0.36363 0.65878 0.06556 0.0
C724 C 0.3463 0.62788 0.08085 0.0
C725 C 0.36021 0.65997 0.03532 0.0
C726 C 0.32743 0.59772 0.06541 0.0
C727 C 0.32409 0.59867 0.03548 0.0
H728 H 0.18641 0.94962 0.48148 0.0
H729 H 0.08376 0.85712 0.47731 0.0
H730 H 0.07268 0.8584 0.52947 0.0
H731 H 0.10092 0.88068 0.57668 0.0
H732 H 0.20532 0.97229 0.58136 0.0
H733 H 0.20681 0.97664 0.5289 0.0
C734 C 0.16066 0.93042 0.49201 0.0
C735 C 0.13615 0.90321 0.47567 0.0
C736 C 0.15542 0.93078 0.52221 0.0
C737 C 0.10321 0.8782 0.48953 0.0
C738 C 0.09702 0.87883 0.51936 0.0
C739 C 0.12298 0.90217 0.56627 0.0
C740 C 0.15346 0.92578 0.58299 0.0
C741 C 0.12422 0.90423 0.53603 0.0
C742 C 0.18219 0.9533 0.56902 0.0
C743 C 0.18302 0.95587 0.53899 0.0
H744 H 0.09919 0.29996 0.39296 0.0
H745 H 0.22514 0.3297 0.33796 0.0
H746 H 0.2051 0.27769 0.30696 0.0
H747 H 0.14723 0.22652 0.29356 0.0
H748 H 0.01804 0.20084 0.34718 0.0
H749 H 0.04334 0.24894 0.38032 0.0
C750 C 0.12219 0.29537 0.37409 0.0
C751 C 0.16321 0.31921 0.36767 0.0
C752 C 0.10952 0.26624 0.35593 0.0
C753 C 0.19345 0.31187 0.34358 0.0
C754 C 0.18174 0.28226 0.32568 0.0
C755 C 0.125 0.23118 0.31258 0.0
C756 C 0.08065 0.21012 0.31769 0.0
C757 C 0.13924 0.25962 0.33135 0.0
C758 C 0.05203 0.21684 0.34249 0.0
C759 C 0.06653 0.24431 0.36154 0.0
H760 H 0.33821 0.2506 0.87652 0.0
H761 H 0.45174 0.18378 0.83907 0.0
H762 H 0.48459 0.23504 0.81099 0.0
H763 H 0.48678 0.30014 0.80059 0.0
H764 H 0.37222 0.36747 0.83577 0.0
H765 H 0.33379 0.31499 0.86095 0.0
C766 C 0.36932 0.24711 0.8617 0.0
C767 C 0.39303 0.21348 0.86034 0.0
C768 C 0.38838 0.27698 0.84554 0.0
C769 C 0.43338 0.20949 0.84097 0.0
C770 C 0.45231 0.23882 0.82491 0.0
C771 C 0.4533 0.3032 0.81372 0.0
C772 C 0.43282 0.33756 0.81683 0.0
C773 C 0.43121 0.27292 0.82773 0.0
C774 C 0.38878 0.3412 0.8333 0.0
C775 C 0.36688 0.31121 0.84768 0.0
H776 H 0.6401 0.22502 0.70847 0.0
H777 H 0.66511 0.28963 0.63229 0.0
H778 H 0.63669 0.34349 0.65759 0.0
H779 H 0.59764 0.37073 0.70014 0.0
H780 H 0.57268 0.30608 0.77647 0.0
H781 H 0.60859 0.25382 0.75267 0.0
C782 C 0.64033 0.25115 0.69777 0.0
C783 C 0.65494 0.25376 0.66879 0.0
C784 C 0.62347 0.28179 0.71239 0.0
C785 C 0.65451 0.28739 0.65476 0.0
C786 C 0.63796 0.31802 0.66915 0.0
C787 C 0.60058 0.34525 0.71159 0.0
C788 C 0.58194 0.34204 0.73983 0.0
C789 C 0.62125 0.31535 0.69775 0.0
C790 C 0.58658 0.30913 0.75466 0.0
C791 C 0.60695 0.27921 0.74103 0.0
H792 H 0.87181 0.27034 0.15007 0.0
H793 H 0.87435 0.34636 0.22003 0.0
H794 H 0.90242 0.29902 0.25314 0.0
H795 H 0.93541 0.23756 0.26052 0.0
H796 H 0.93399 0.16261 0.18952 0.0
H797 H 0.8957 0.20757 0.15857 0.0
C798 C 0.87743 0.27615 0.17274 0.0
C799 C 0.87092 0.31142 0.18282 0.0
C800 C 0.89422 0.24905 0.19134 0.0
C801 C 0.87875 0.31912 0.21205 0.0
C802 C 0.89509 0.29216 0.23085 0.0
C803 C 0.92569 0.23093 0.23845 0.0
C804 C 0.93814 0.19704 0.22718 0.0
C805 C 0.90426 0.25723 0.22056 0.0
C806 C 0.92542 0.18872 0.19855 0.0
C807 C 0.90356 0.21441 0.18082 0.0
H808 H 0.75033 0.79927 0.6766 0.0
H809 H 0.85923 0.7207 0.65191 0.0
H810 H 0.92422 0.75278 0.68081 0.0
H811 H 0.95149 0.80685 0.71016 0.0
H812 H 0.84143 0.88792 0.72792 0.0
H813 H 0.77632 0.85163 0.70458 0.0
C814 C 0.78831 0.78903 0.67741 0.0
C815 C 0.79989 0.75786 0.66166 0.0
C816 C 0.82568 0.80845 0.6928 0.0
C817 C 0.84904 0.74455 0.66382 0.0
C818 C 0.88639 0.76319 0.68009 0.0
C819 C 0.91327 0.8165 0.70889 0.0
C820 C 0.90152 0.84989 0.72171 0.0
C821 C 0.8755 0.79581 0.69412 0.0
C822 C 0.85169 0.86194 0.71946 0.0
C823 C 0.81419 0.84129 0.70574 0.0
H824 H 0.71274 0.80198 0.18404 0.0
H825 H 0.77771 0.70817 0.1451 0.0
H826 H 0.70729 0.67021 0.16241 0.0
H827 H 0.63178 0.66244 0.19221 0.0
H828 H 0.56517 0.75504 0.23147 0.0
H829 H 0.63094 0.79492 0.20995 0.0
C830 C 0.71085 0.7734 0.17883 0.0
C831 C 0.75089 0.75787 0.16364 0.0
C832 C 0.66999 0.75154 0.18891 0.0
C833 C 0.74797 0.7207 0.15722 0.0
C834 C 0.70759 0.69896 0.16698 0.0
C835 C 0.63116 0.69149 0.19554 0.0
C836 C 0.59404 0.70594 0.21334 0.0
C837 C 0.66912 0.71391 0.1834 0.0
C838 C 0.59327 0.7435 0.21755 0.0
C839 C 0.6311 0.76617 0.20547 0.0
H840 H 0.27277 0.70515 0.36015 0.0
H841 H 0.32935 0.81635 0.36004 0.0
H842 H 0.40067 0.79867 0.33081 0.0
H843 H 0.44957 0.75064 0.30647 0.0
H844 H 0.39991 0.63923 0.31689 0.0
H845 H 0.32557 0.65784 0.34321 0.0
C846 C 0.30115 0.72587 0.35521 0.0
C847 C 0.2946 0.76228 0.36329 0.0
C848 C 0.34445 0.71524 0.34055 0.0
C849 C 0.33163 0.78817 0.3542 0.0
C850 C 0.37331 0.77802 0.33767 0.0
C851 C 0.42237 0.73065 0.31469 0.0
C852 C 0.42944 0.69369 0.3094 0.0
C853 C 0.38033 0.74153 0.33087 0.0
C854 C 0.39502 0.6678 0.32068 0.0
C855 C 0.35241 0.67845 0.33561 0.0
H856 H 0.19915 0.7552 0.83214 0.0
H857 H 0.25004 0.84773 0.88159 0.0
H858 H 0.17665 0.88131 0.86591 0.0
H859 H 0.10272 0.88645 0.83441 0.0
H860 H 0.05445 0.79557 0.78234 0.0
H861 H 0.12141 0.75908 0.8029 0.0
C862 C 0.1934 0.78241 0.83992 0.0
C863 C 0.22974 0.799 0.85801 0.0
C864 C 0.15175 0.80191 0.83016 0.0
C865 C 0.22248 0.8345 0.86761 0.0
C866 C 0.18063 0.8537 0.85862 0.0
C867 C 0.10617 0.85838 0.82812 0.0
C868 C 0.0738 0.84361 0.80699 0.0
C869 C 0.14564 0.838 0.83938 0.0
C870 C 0.07909 0.80742 0.79861 0.0
C871 C 0.11746 0.78665 0.81026 0.0
loop_
_geom_bond_atom_site_label_1
_geom_bond_atom_site_label_2
_geom_bond_distance
_geom_bond_site_symmetry_2
_ccdc_geom_bond_type
H0 C1 0.949 . S
C1 H0 0.949 . S
C1 C2 1.395 . S
C1 C3 1.391 . S
C2 C1 1.395 . S
C2 C5 1.390 . S
C3 C1 1.391 . S
C3 C7 1.387 . S
C3 C8 1.491 . S
H4 C5 0.950 . S
C5 C2 1.390 . S
C5 H4 0.950 . S
C5 C6 1.378 . S
C6 C5 1.378 . S
C6 C7 1.409 . S
C7 C3 1.387 . S
C7 C6 1.409 . S
C7 H9 0.951 . S
C8 C3 1.491 . S
C8 C10 1.382 . S
C8 C12 1.404 . S
H9 C7 0.951 . S
C10 C8 1.382 . S
C10 C11 1.390 . S
C10 H15 0.949 . S
C11 C10 1.390 . S
C11 C16 1.399 . S
C12 C8 1.404 . S
C12 H13 0.950 . S
C12 C14 1.375 . S
H13 C12 0.950 . S
C14 C12 1.375 . S
C14 C16 1.382 . S
C14 H18 0.950 . S
H15 C10 0.949 . S
C16 C11 1.399 . S
C16 C14 1.382 . S
C16 H17 0.952 . S
H17 C16 0.952 . S
H18 C14 0.950 . S
H19 C20 0.949 . S
C20 H19 0.949 . S
C20 C21 1.395 . S
C20 C22 1.391 . S
C21 C20 1.395 . S
C21 C24 1.390 . S
C22 C20 1.391 . S
C22 C26 1.387 . S
C22 C27 1.491 . S
H23 C24 0.950 . S
C24 C21 1.390 . S
C24 H23 0.950 . S
C24 C25 1.378 . S
C25 C24 1.378 . S
C25 C26 1.409 . S
C26 C22 1.387 . S
C26 C25 1.409 . S
C26 H28 0.951 . S
C27 C22 1.491 . S
C27 C29 1.382 . S
C27 C31 1.404 . S
H28 C26 0.951 . S
C29 C27 1.382 . S
C29 C30 1.390 . S
C29 H34 0.949 . S
C30 C29 1.390 . S
C30 C35 1.399 . S
C31 C27 1.404 . S
C31 H32 0.950 . S
C31 C33 1.375 . S
H32 C31 0.950 . S
C33 C31 1.375 . S
C33 C35 1.382 . S
C33 H37 0.950 . S
H34 C29 0.949 . S
C35 C30 1.399 . S
C35 C33 1.382 . S
C35 H36 0.952 . S
H36 C35 0.952 . S
H37 C33 0.950 . S
H38 C39 0.949 . S
C39 H38 0.949 . S
C39 C40 1.395 . S
C39 C41 1.391 . S
C40 C39 1.395 . S
C40 C43 1.390 . S
C41 C39 1.391 . S
C41 C45 1.387 . S
C41 C46 1.491 . S
H42 C43 0.950 . S
C43 C40 1.390 . S
C43 H42 0.950 . S
C43 C44 1.378 . S
C44 C43 1.378 . S
C44 C45 1.409 . S
C45 C41 1.387 . S
C45 C44 1.409 . S
C45 H47 0.951 . S
C46 C41 1.491 . S
C46 C48 1.382 . S
C46 C50 1.404 . S
H47 C45 0.951 . S
C48 C46 1.382 . S
C48 C49 1.390 . S
C48 H53 0.949 . S
C49 C48 1.390 . S
C49 C54 1.399 . S
C50 C46 1.404 . S
C50 H51 0.950 . S
C50 C52 1.375 . S
H51 C50 0.950 . S
C52 C50 1.375 . S
C52 C54 1.382 . S
C52 H56 0.950 . S
H53 C48 0.949 . S
C54 C49 1.399 . S
C54 C52 1.382 . S
C54 H55 0.952 . S
H55 C54 0.952 . S
H56 C52 0.950 . S
H57 C58 0.949 . S
C58 H57 0.949 . S
C58 C59 1.395 . S
C58 C60 1.391 . S
C59 C58 1.395 . S
C59 C62 1.390 . S
C60 C58 1.391 . S
C60 C64 1.387 . S
C60 C65 1.491 . S
H61 C62 0.950 . S
C62 C59 1.390 . S
C62 H61 0.950 . S
C62 C63 1.378 . S
C63 C62 1.378 . S
C63 C64 1.409 . S
C64 C60 1.387 . S
C64 C63 1.409 . S
C64 H66 0.951 . S
C65 C60 1.491 . S
C65 C67 1.382 . S
C65 C69 1.404 . S
H66 C64 0.951 . S
C67 C65 1.382 . S
C67 C68 1.390 . S
C67 H72 0.949 . S
C68 C67 1.390 . S
C68 C73 1.399 . S
C69 C65 1.404 . S
C69 H70 0.950 . S
C69 C71 1.375 . S
H70 C69 0.950 . S
C71 C69 1.375 . S
C71 C73 1.382 . S
C71 H75 0.950 . S
H72 C67 0.949 . S
C73 C68 1.399 . S
C73 C71 1.382 . S
C73 H74 0.952 . S
H74 C73 0.952 . S
H75 C71 0.950 . S
H76 C77 0.949 . S
C77 H76 0.949 . S
C77 C78 1.395 . S
C77 C79 1.391 . S
C78 C77 1.395 . S
C78 C81 1.390 . S
C79 C77 1.391 . S
C79 C83 1.387 . S
C79 C84 1.491 . S
H80 C81 0.950 . S
C81 C78 1.390 . S
C81 H80 0.950 . S
C81 C82 1.378 . S
C82 C81 1.378 . S
C82 C83 1.409 . S
C83 C79 1.387 . S
C83 C82 1.409 . S
C83 H85 0.951 . S
C84 C79 1.491 . S
C84 C86 1.382 . S
C84 C88 1.404 . S
H85 C83 0.951 . S
C86 C84 1.382 . S
C86 C87 1.390 . S
C86 H91 0.949 . S
C87 C86 1.390 . S
C87 C92 1.399 . S
C88 C84 1.404 . S
C88 H89 0.950 . S
C88 C90 1.375 . S
H89 C88 0.950 . S
C90 C88 1.375 . S
C90 C92 1.382 . S
C90 H94 0.950 . S
H91 C86 0.949 . S
C92 C87 1.399 . S
C92 C90 1.382 . S
C92 H93 0.952 . S
H93 C92 0.952 . S
H94 C90 0.950 . S
H95 C96 0.949 . S
C96 H95 0.949 . S
C96 C97 1.395 . S
C96 C98 1.391 . S
C97 C96 1.395 . S
C97 C100 1.390 . S
C98 C96 1.391 . S
C98 C102 1.387 . S
C98 C103 1.491 . S
H99 C100 0.950 . S
C100 C97 1.390 . S
C100 H99 0.950 . S
C100 C101 1.378 . S
C101 C100 1.378 . S
C101 C102 1.409 . S
C102 C98 1.387 . S
C102 C101 1.409 . S
C102 H104 0.951 . S
C103 C98 1.491 . S
C103 C105 1.382 . S
C103 C107 1.404 . S
H104 C102 0.951 . S
C105 C103 1.382 . S
C105 C106 1.390 . S
C105 H110 0.949 . S
C106 C105 1.390 . S
C106 C111 1.399 . S
C107 C103 1.404 . S
C107 H108 0.950 . S
C107 C109 1.375 . S
H108 C107 0.950 . S
C109 C107 1.375 . S
C109 C111 1.382 . S
C109 H113 0.950 . S
H110 C105 0.949 . S
C111 C106 1.399 . S
C111 C109 1.382 . S
C111 H112 0.952 . S
H112 C111 0.952 . S
H113 C109 0.950 . S
H114 C115 0.949 . S
C115 H114 0.949 . S
C115 C116 1.395 . S
C115 C117 1.391 . S
C116 C115 1.395 . S
C116 C119 1.390 . S
C117 C115 1.391 . S
C117 C121 1.387 . S
C117 C122 1.491 . S
H118 C119 0.950 . S
C119 C116 1.390 . S
C119 H118 0.950 . S
C119 C120 1.378 . S
C120 C119 1.378 . S
C120 C121 1.409 . S
C121 C117 1.387 . S
C121 C120 1.409 . S
C121 H123 0.951 . S
C122 C117 1.491 . S
C122 C124 1.382 . S
C122 C126 1.404 . S
H123 C121 0.951 . S
C124 C122 1.382 . S
C124 C125 1.390 . S
C124 H129 0.949 . S
C125 C124 1.390 . S
C125 C130 1.399 . S
C126 C122 1.404 . S
C126 H127 0.950 . S
C126 C128 1.375 . S
H127 C126 0.950 . S
C128 C126 1.375 . S
C128 C130 1.382 . S
C128 H132 0.950 . S
H129 C124 0.949 . S
C130 C125 1.399 . S
C130 C128 1.382 . S
C130 H131 0.952 . S
H131 C130 0.952 . S
H132 C128 0.950 . S
H133 C134 0.949 . S
C134 H133 0.949 . S
C134 C135 1.395 . S
C134 C136 1.391 . S
C135 C134 1.395 . S
C135 C138 1.390 . S
C136 C134 1.391 . S
C136 C140 1.387 . S
C136 C141 1.491 . S
H137 C138 0.950 . S
C138 C135 1.390 . S
C138 H137 0.950 . S
C138 C139 1.378 . S
C139 C138 1.378 . S
C139 C140 1.409 . S
C140 C136 1.387 . S
C140 C139 1.409 . S
C140 H142 0.951 . S
C141 C136 1.491 . S
C141 C143 1.382 . S
C141 C145 1.404 . S
H142 C140 0.951 . S
C143 C141 1.382 . S
C143 C144 1.390 . S
C143 H148 0.949 . S
C144 C143 1.390 . S
C144 C149 1.399 . S
C145 C141 1.404 . S
C145 H146 0.950 . S
C145 C147 1.375 . S
H146 C145 0.950 . S
C147 C145 1.375 . S
C147 C149 1.382 . S
C147 H151 0.950 . S
H148 C143 0.949 . S
C149 C144 1.399 . S
C149 C147 1.382 . S
C149 H150 0.952 . S
H150 C149 0.952 . S
H151 C147 0.950 . S
Eu152 N181 2.600 . S
Eu152 N187 2.562 . S
Eu152 O196 2.462 . S
Eu152 O197 2.373 . S
Eu152 O199 2.432 . S
Eu152 O200 2.291 1_455 S
Eu152 O204 2.335 1_455 S
Eu152 O207 2.372 . S
Eu152 C216 2.787 . S
C153 N154 1.365 . S
C153 C156 1.405 . S
C153 C160 1.448 . S
N154 C153 1.365 . S
N154 C157 1.319 . S
N154 Eu163 2.600 . S
C155 C157 1.397 . S
C155 C158 1.367 . S
C155 H175 0.931 . S
C156 C153 1.405 . S
C156 C158 1.403 . S
C156 C162 1.439 . S
C157 N154 1.319 . S
C157 C155 1.397 . S
C157 H168 0.930 . S
C158 C155 1.367 . S
C158 C156 1.403 . S
C158 H179 0.929 . S
C159 C160 1.430 1_565 S
C159 C161 1.387 . S
C159 C165 1.404 . S
C160 C153 1.448 . S
C160 C159 1.430 1_545 S
C160 N164 1.351 . S
C161 C159 1.387 . S
C161 C162 1.374 1_565 S
C161 H176 0.931 . S
C162 C156 1.439 . S
C162 C161 1.374 1_545 S
C162 H177 0.931 . S
Eu163 N154 2.600 . S
Eu163 N164 2.562 . S
Eu163 O198 2.335 1_655 S
Eu163 O201 2.372 . S
Eu163 O202 2.462 . S
Eu163 O203 2.373 . S
Eu163 O205 2.432 . S
Eu163 O206 2.291 1_655 S
Eu163 C227 2.787 . S
N164 C160 1.351 . S
N164 Eu163 2.562 . S
N164 C166 1.325 1_545 S
C165 C159 1.404 . S
C165 C167 1.366 . S
C165 H173 0.930 . S
C166 N164 1.325 1_565 S
C166 C167 1.416 . S
C166 H172 0.929 . S
C167 C165 1.366 . S
C167 C166 1.416 . S
C167 H169 0.930 . S
H168 C157 0.930 . S
H169 C167 0.930 . S
H170 C185 0.930 . S
H171 C192 0.930 . S
H172 C166 0.929 . S
H173 C165 0.930 . S
H174 C188 0.929 . S
H175 C155 0.931 . S
H176 C161 0.931 . S
H177 C162 0.931 . S
H178 C183 0.931 . S
H179 C158 0.929 . S
H180 C191 0.930 . S
N181 Eu152 2.600 . S
N181 C182 1.365 . S
N181 C185 1.319 . S
C182 N181 1.365 . S
C182 C184 1.405 . S
C182 C190 1.448 . S
C183 H178 0.931 . S
C183 C185 1.397 . S
C183 C186 1.367 . S
C184 C182 1.405 . S
C184 C186 1.403 . S
C184 C217 1.439 . S
C185 H170 0.930 . S
C185 N181 1.319 . S
C185 C183 1.397 . S
C186 C183 1.367 . S
C186 C184 1.403 . S
C186 H193 0.929 . S
N187 Eu152 2.562 . S
N187 C188 1.325 . S
N187 C190 1.351 . S
C188 H174 0.929 . S
C188 N187 1.325 . S
C188 C192 1.416 . S
C189 C190 1.430 . S
C189 C191 1.404 . S
C189 C218 1.387 . S
C190 C182 1.448 . S
C190 N187 1.351 . S
C190 C189 1.430 . S
C191 H180 0.930 . S
C191 C189 1.404 . S
C191 C192 1.366 . S
C192 H171 0.930 . S
C192 C188 1.416 . S
C192 C191 1.366 . S
H193 C186 0.929 . S
H194 C217 0.931 . S
H195 C218 0.931 . S
O196 Eu152 2.462 . S
O196 C216 1.252 . S
O197 Eu152 2.373 . S
O197 C208 1.249 . S
O198 Eu163 2.335 1_455 S
O198 C208 1.264 . S
O199 Eu152 2.432 . S
O199 C216 1.268 . S
O200 Eu152 2.291 1_655 S
O200 C215 1.255 . S
O201 Eu163 2.372 . S
O201 C215 1.257 . S
O202 Eu163 2.462 . S
O202 C227 1.252 . S
O203 Eu163 2.373 . S
O203 C219 1.249 . S
O204 Eu152 2.335 1_655 S
O204 C219 1.264 . S
O205 Eu163 2.432 . S
O205 C227 1.268 . S
O206 Eu163 2.291 1_455 S
O206 C226 1.255 . S
O207 Eu152 2.372 . S
O207 C226 1.257 . S
C208 O197 1.249 . S
C208 O198 1.264 . S
C209 C212 1.382 . S
C209 C214 1.390 . S
C209 C216 1.506 . S
C210 C211 1.398 . S
C210 C214 1.392 . S
C211 C210 1.398 . S
C211 C213 1.372 . S
C211 H228 0.931 . S
C212 C209 1.382 . S
C212 C213 1.390 . S
C212 H229 0.931 . S
C213 C211 1.372 . S
C213 C212 1.390 . S
C213 H230 0.929 . S
C214 C209 1.390 . S
C214 C210 1.392 . S
C214 H231 0.930 . S
C215 O200 1.255 . S
C215 O201 1.257 . S
C216 Eu152 2.787 . S
C216 O196 1.252 . S
C216 O199 1.268 . S
C216 C209 1.506 . S
C217 C184 1.439 . S
C217 H194 0.931 . S
C217 C218 1.374 . S
C218 C189 1.387 . S
C218 H195 0.931 . S
C218 C217 1.374 . S
C219 O203 1.249 . S
C219 O204 1.264 . S
C220 C223 1.382 . S
C220 C224 1.390 . S
C220 C227 1.506 . S
C221 C222 1.398 . S
C221 C224 1.392 . S
C222 C221 1.398 . S
C222 C225 1.372 . S
C222 H232 0.931 . S
C223 C220 1.382 . S
C223 C225 1.390 . S
C223 H233 0.931 . S
C224 C220 1.390 . S
C224 C221 1.392 . S
C224 H234 0.930 . S
C225 C222 1.372 . S
C225 C223 1.390 . S
C225 H235 0.929 . S
C226 O206 1.255 . S
C226 O207 1.257 . S
C227 Eu163 2.787 . S
C227 O202 1.252 . S
C227 O205 1.268 . S
C227 C220 1.506 . S
H228 C211 0.931 . S
H229 C212 0.931 . S
H230 C213 0.929 . S
H231 C214 0.930 . S
H232 C222 0.931 . S
H233 C223 0.931 . S
H234 C224 0.930 . S
H235 C225 0.929 . S
Eu236 N265 2.600 . S
Eu236 N271 2.562 . S
Eu236 O280 2.462 . S
Eu236 O281 2.373 . S
Eu236 O283 2.432 . S
Eu236 O284 2.291 . S
Eu236 O288 2.335 . S
Eu236 O291 2.372 . S
Eu236 C300 2.787 . S
C237 N238 1.365 . S
C237 C240 1.405 . S
C237 C244 1.448 . S
N238 C237 1.365 . S
N238 C241 1.319 . S
N238 Eu247 2.600 . S
C239 C241 1.397 . S
C239 C242 1.367 . S
C239 H259 0.931 . S
C240 C237 1.405 . S
C240 C242 1.403 . S
C240 C246 1.439 . S
C241 N238 1.319 . S
C241 C239 1.397 . S
C241 H252 0.930 . S
C242 C239 1.367 . S
C242 C240 1.403 . S
C242 H263 0.929 . S
C243 C244 1.430 . S
C243 C245 1.387 . S
C243 C249 1.404 . S
C244 C237 1.448 . S
C244 C243 1.430 . S
C244 N248 1.351 . S
C245 C243 1.387 . S
C245 C246 1.374 . S
C245 H260 0.931 . S
C246 C240 1.439 . S
C246 C245 1.374 . S
C246 H261 0.931 . S
Eu247 N238 2.600 . S
Eu247 N248 2.562 . S
Eu247 O282 2.335 . S
Eu247 O285 2.372 . S
Eu247 O286 2.462 . S
Eu247 O287 2.373 . S
Eu247 O289 2.432 . S
Eu247 O290 2.291 . S
Eu247 C311 2.787 . S
N248 C244 1.351 . S
N248 Eu247 2.562 . S
N248 C250 1.325 . S
C249 C243 1.404 . S
C249 C251 1.366 . S
C249 H257 0.930 . S
C250 N248 1.325 . S
C250 C251 1.416 . S
C250 H256 0.929 . S
C251 C249 1.366 . S
C251 C250 1.416 . S
C251 H253 0.930 . S
H252 C241 0.930 . S
H253 C251 0.930 . S
H254 C269 0.930 . S
H255 C276 0.930 . S
H256 C250 0.929 . S
H257 C249 0.930 . S
H258 C272 0.929 . S
H259 C239 0.931 . S
H260 C245 0.931 . S
H261 C246 0.931 . S
H262 C267 0.931 . S
H263 C242 0.929 . S
H264 C275 0.930 . S
N265 Eu236 2.600 . S
N265 C266 1.365 . S
N265 C269 1.319 . S
C266 N265 1.365 . S
C266 C268 1.405 . S
C266 C274 1.448 . S
C267 H262 0.931 . S
C267 C269 1.397 . S
C267 C270 1.367 . S
C268 C266 1.405 . S
C268 C270 1.403 . S
C268 C301 1.439 . S
C269 H254 0.930 . S
C269 N265 1.319 . S
C269 C267 1.397 . S
C270 C267 1.367 . S
C270 C268 1.403 . S
C270 H277 0.929 . S
N271 Eu236 2.562 . S
N271 C272 1.325 . S
N271 C274 1.351 . S
C272 H258 0.929 . S
C272 N271 1.325 . S
C272 C276 1.416 . S
C273 C274 1.430 . S
C273 C275 1.404 . S
C273 C302 1.387 . S
C274 C266 1.448 . S
C274 N271 1.351 . S
C274 C273 1.430 . S
C275 H264 0.930 . S
C275 C273 1.404 . S
C275 C276 1.366 . S
C276 H255 0.930 . S
C276 C272 1.416 . S
C276 C275 1.366 . S
H277 C270 0.929 . S
H278 C301 0.931 . S
H279 C302 0.931 . S
O280 Eu236 2.462 . S
O280 C300 1.252 . S
O281 Eu236 2.373 . S
O281 C292 1.249 . S
O282 Eu247 2.335 . S
O282 C292 1.264 . S
O283 Eu236 2.432 . S
O283 C300 1.268 . S
O284 Eu236 2.291 . S
O284 C299 1.255 . S
O285 Eu247 2.372 . S
O285 C299 1.257 . S
O286 Eu247 2.462 . S
O286 C311 1.252 . S
O287 Eu247 2.373 . S
O287 C303 1.249 . S
O288 Eu236 2.335 . S
O288 C303 1.264 . S
O289 Eu247 2.432 . S
O289 C311 1.268 . S
O290 Eu247 2.291 . S
O290 C310 1.255 . S
O291 Eu236 2.372 . S
O291 C310 1.257 . S
C292 O281 1.249 . S
C292 O282 1.264 . S
C293 C296 1.382 . S
C293 C298 1.390 . S
C293 C300 1.506 . S
C294 C295 1.398 . S
C294 C298 1.392 . S
C295 C294 1.398 . S
C295 C297 1.372 . S
C295 H312 0.931 . S
C296 C293 1.382 . S
C296 C297 1.390 . S
C296 H313 0.931 . S
C297 C295 1.372 . S
C297 C296 1.390 . S
C297 H314 0.929 . S
C298 C293 1.390 . S
C298 C294 1.392 . S
C298 H315 0.930 . S
C299 O284 1.255 . S
C299 O285 1.257 . S
C300 Eu236 2.787 . S
C300 O280 1.252 . S
C300 O283 1.268 . S
C300 C293 1.506 . S
C301 C268 1.439 . S
C301 H278 0.931 . S
C301 C302 1.374 . S
C302 C273 1.387 . S
C302 H279 0.931 . S
C302 C301 1.374 . S
C303 O287 1.249 . S
C303 O288 1.264 . S
C304 C307 1.382 . S
C304 C308 1.390 . S
C304 C311 1.506 . S
C305 C306 1.398 . S
C305 C308 1.392 . S
C306 C305 1.398 . S
C306 C309 1.372 . S
C306 H316 0.931 . S
C307 C304 1.382 . S
C307 C309 1.390 . S
C307 H317 0.931 . S
C308 C304 1.390 . S
C308 C305 1.392 . S
C308 H318 0.930 . S
C309 C306 1.372 . S
C309 C307 1.390 . S
C309 H319 0.929 . S
C310 O290 1.255 . S
C310 O291 1.257 . S
C311 Eu247 2.787 . S
C311 O286 1.252 . S
C311 O289 1.268 . S
C311 C304 1.506 . S
H312 C295 0.931 . S
H313 C296 0.931 . S
H314 C297 0.929 . S
H315 C298 0.930 . S
H316 C306 0.931 . S
H317 C307 0.931 . S
H318 C308 0.930 . S
H319 C309 0.929 . S
Eu320 N349 2.600 . S
Eu320 N355 2.562 . S
Eu320 O364 2.462 . S
Eu320 O365 2.373 . S
Eu320 O367 2.432 . S
Eu320 O368 2.298 . S
Eu320 O372 2.350 . S
Eu320 O375 2.372 . S
Eu320 C384 2.787 . S
C321 N322 1.365 . S
C321 C324 1.405 . S
C321 C328 1.448 . S
N322 C321 1.365 . S
N322 C325 1.319 . S
N322 Eu331 2.600 . S
C323 C325 1.397 . S
C323 C326 1.367 . S
C323 H343 0.931 . S
C324 C321 1.405 . S
C324 C326 1.403 . S
C324 C330 1.439 . S
C325 N322 1.319 . S
C325 C323 1.397 . S
C325 H336 0.930 . S
C326 C323 1.367 . S
C326 C324 1.403 . S
C326 H347 0.929 . S
C327 C328 1.430 . S
C327 C329 1.387 . S
C327 C333 1.404 . S
C328 C321 1.448 . S
C328 C327 1.430 . S
C328 N332 1.351 . S
C329 C327 1.387 . S
C329 C330 1.374 . S
C329 H344 0.931 . S
C330 C324 1.439 . S
C330 C329 1.374 . S
C330 H345 0.931 . S
Eu331 N322 2.600 . S
Eu331 N332 2.562 . S
Eu331 O366 2.335 1_655 S
Eu331 O369 2.372 . S
Eu331 O370 2.462 . S
Eu331 O371 2.373 . S
Eu331 O373 2.432 . S
Eu331 O374 2.291 1_655 S
Eu331 C395 2.787 . S
N332 C328 1.351 . S
N332 Eu331 2.562 . S
N332 C334 1.325 . S
C333 C327 1.404 . S
C333 C335 1.366 . S
C333 H341 0.930 . S
C334 N332 1.325 . S
C334 C335 1.416 . S
C334 H340 0.929 . S
C335 C333 1.366 . S
C335 C334 1.416 . S
C335 H337 0.930 . S
H336 C325 0.930 . S
H337 C335 0.930 . S
H338 C353 0.930 . S
H339 C360 0.930 . S
H340 C334 0.929 . S
H341 C333 0.930 . S
H342 C356 0.929 . S
H343 C323 0.931 . S
H344 C329 0.931 . S
H345 C330 0.931 . S
H346 C351 0.931 . S
H347 C326 0.929 . S
H348 C359 0.930 . S
N349 Eu320 2.600 . S
N349 C350 1.365 . S
N349 C353 1.319 . S
C350 N349 1.365 . S
C350 C352 1.405 . S
C350 C358 1.448 . S
C351 H346 0.931 . S
C351 C353 1.397 . S
C351 C354 1.367 . S
C352 C350 1.405 . S
C352 C354 1.403 . S
C352 C385 1.439 . S
C353 H338 0.930 . S
C353 N349 1.319 . S
C353 C351 1.397 . S
C354 C351 1.367 . S
C354 C352 1.403 . S
C354 H361 0.929 . S
N355 Eu320 2.562 . S
N355 C356 1.325 1_565 S
N355 C358 1.351 . S
C356 H342 0.929 . S
C356 N355 1.325 1_545 S
C356 C360 1.416 . S
C357 C358 1.430 1_545 S
C357 C359 1.404 . S
C357 C386 1.387 . S
C358 C350 1.448 . S
C358 N355 1.351 . S
C358 C357 1.430 1_565 S
C359 H348 0.930 . S
C359 C357 1.404 . S
C359 C360 1.366 . S
C360 H339 0.930 . S
C360 C356 1.416 . S
C360 C359 1.366 . S
H361 C354 0.929 . S
H362 C385 0.931 . S
H363 C386 0.931 . S
O364 Eu320 2.462 . S
O364 C384 1.252 . S
O365 Eu320 2.373 . S
O365 C376 1.249 . S
O366 Eu331 2.335 1_455 S
O366 C376 1.264 . S
O367 Eu320 2.432 . S
O367 C384 1.268 . S
O368 Eu320 2.298 . S
O368 C383 1.247 1_455 S
O369 Eu331 2.372 . S
O369 C383 1.257 . S
O370 Eu331 2.462 . S
O370 C395 1.252 . S
O371 Eu331 2.373 . S
O371 C387 1.249 . S
O372 Eu320 2.350 . S
O372 C387 1.246 1_455 S
O373 Eu331 2.432 . S
O373 C395 1.268 . S
O374 Eu331 2.291 1_455 S
O374 C394 1.255 . S
O375 Eu320 2.372 . S
O375 C394 1.257 . S
C376 O365 1.249 . S
C376 O366 1.264 . S
C377 C380 1.382 . S
C377 C382 1.390 . S
C377 C384 1.506 . S
C378 C379 1.398 . S
C378 C382 1.392 . S
C379 C378 1.398 . S
C379 C381 1.372 . S
C379 H396 0.931 . S
C380 C377 1.382 . S
C380 C381 1.390 . S
C380 H397 0.931 . S
C381 C379 1.372 . S
C381 C380 1.390 . S
C381 H398 0.929 . S
C382 C377 1.390 . S
C382 C378 1.392 . S
C382 H399 0.930 . S
C383 O368 1.247 1_655 S
C383 O369 1.257 . S
C384 Eu320 2.787 . S
C384 O364 1.252 . S
C384 O367 1.268 . S
C384 C377 1.506 . S
C385 C352 1.439 . S
C385 H362 0.931 . S
C385 C386 1.374 1_565 S
C386 C357 1.387 . S
C386 H363 0.931 . S
C386 C385 1.374 1_545 S
C387 O371 1.249 . S
C387 O372 1.246 1_655 S
C388 C391 1.382 . S
C388 C392 1.390 . S
C388 C395 1.506 . S
C389 C390 1.398 . S
C389 C392 1.392 . S
C390 C389 1.398 . S
C390 C393 1.372 . S
C390 H400 0.931 . S
C391 C388 1.382 . S
C391 C393 1.390 . S
C391 H401 0.931 . S
C392 C388 1.390 . S
C392 C389 1.392 . S
C392 H402 0.930 . S
C393 C390 1.372 . S
C393 C391 1.390 . S
C393 H403 0.929 . S
C394 O374 1.255 . S
C394 O375 1.257 . S
C395 Eu331 2.787 . S
C395 O370 1.252 . S
C395 O373 1.268 . S
C395 C388 1.506 . S
H396 C379 0.931 . S
H397 C380 0.931 . S
H398 C381 0.929 . S
H399 C382 0.930 . S
H400 C390 0.931 . S
H401 C391 0.931 . S
H402 C392 0.930 . S
H403 C393 0.929 . S
Eu404 N433 2.600 . S
Eu404 N439 2.562 . S
Eu404 O448 2.462 . S
Eu404 O449 2.373 . S
Eu404 O451 2.432 . S
Eu404 O452 2.291 . S
Eu404 O456 2.335 . S
Eu404 O459 2.372 . S
Eu404 C468 2.787 . S
C405 N406 1.365 . S
C405 C408 1.405 . S
C405 C412 1.448 . S
N406 C405 1.365 . S
N406 C409 1.319 . S
N406 Eu415 2.600 . S
C407 C409 1.397 . S
C407 C410 1.367 . S
C407 H427 0.931 . S
C408 C405 1.405 . S
C408 C410 1.403 . S
C408 C414 1.439 . S
C409 N406 1.319 . S
C409 C407 1.397 . S
C409 H420 0.930 . S
C410 C407 1.367 . S
C410 C408 1.403 . S
C410 H431 0.929 . S
C411 C412 1.430 . S
C411 C413 1.387 . S
C411 C417 1.404 . S
C412 C405 1.448 . S
C412 C411 1.430 . S
C412 N416 1.351 . S
C413 C411 1.387 . S
C413 C414 1.374 . S
C413 H428 0.931 . S
C414 C408 1.439 . S
C414 C413 1.374 . S
C414 H429 0.931 . S
Eu415 N406 2.600 . S
Eu415 N416 2.562 . S
Eu415 O450 2.335 . S
Eu415 O453 2.372 . S
Eu415 O454 2.462 . S
Eu415 O455 2.373 . S
Eu415 O457 2.432 . S
Eu415 O458 2.291 . S
Eu415 C479 2.787 . S
N416 C412 1.351 . S
N416 Eu415 2.562 . S
N416 C418 1.325 . S
C417 C411 1.404 . S
C417 C419 1.366 . S
C417 H425 0.930 . S
C418 N416 1.325 . S
C418 C419 1.416 . S
C418 H424 0.929 . S
C419 C417 1.366 . S
C419 C418 1.416 . S
C419 H421 0.930 . S
H420 C409 0.930 . S
H421 C419 0.930 . S
H422 C437 0.930 . S
H423 C444 0.930 . S
H424 C418 0.929 . S
H425 C417 0.930 . S
H426 C440 0.929 . S
H427 C407 0.931 . S
H428 C413 0.931 . S
H429 C414 0.931 . S
H430 C435 0.931 . S
H431 C410 0.929 . S
H432 C443 0.930 . S
N433 Eu404 2.600 . S
N433 C434 1.365 . S
N433 C437 1.319 . S
C434 N433 1.365 . S
C434 C436 1.405 . S
C434 C442 1.448 . S
C435 H430 0.931 . S
C435 C437 1.397 . S
C435 C438 1.367 . S
C436 C434 1.405 . S
C436 C438 1.403 . S
C436 C469 1.439 . S
C437 H422 0.930 . S
C437 N433 1.319 . S
C437 C435 1.397 . S
C438 C435 1.367 . S
C438 C436 1.403 . S
C438 H445 0.929 . S
N439 Eu404 2.562 . S
N439 C440 1.325 . S
N439 C442 1.351 . S
C440 H426 0.929 . S
C440 N439 1.325 . S
C440 C444 1.416 . S
C441 C442 1.430 . S
C441 C443 1.404 . S
C441 C470 1.387 . S
C442 C434 1.448 . S
C442 N439 1.351 . S
C442 C441 1.430 . S
C443 H432 0.930 . S
C443 C441 1.404 . S
C443 C444 1.366 . S
C444 H423 0.930 . S
C444 C440 1.416 . S
C444 C443 1.366 . S
H445 C438 0.929 . S
H446 C469 0.931 . S
H447 C470 0.931 . S
O448 Eu404 2.462 . S
O448 C468 1.252 . S
O449 Eu404 2.373 . S
O449 C460 1.249 . S
O450 Eu415 2.335 . S
O450 C460 1.264 . S
O451 Eu404 2.432 . S
O451 C468 1.268 . S
O452 Eu404 2.291 . S
O452 C467 1.255 . S
O453 Eu415 2.372 . S
O453 C467 1.257 . S
O454 Eu415 2.462 . S
O454 C479 1.252 . S
O455 Eu415 2.373 . S
O455 C471 1.249 . S
O456 Eu404 2.335 . S
O456 C471 1.264 . S
O457 Eu415 2.432 . S
O457 C479 1.268 . S
O458 Eu415 2.291 . S
O458 C478 1.255 . S
O459 Eu404 2.372 . S
O459 C478 1.257 . S
C460 O449 1.249 . S
C460 O450 1.264 . S
C461 C464 1.382 . S
C461 C466 1.390 . S
C461 C468 1.506 . S
C462 C463 1.398 . S
C462 C466 1.392 . S
C463 C462 1.398 . S
C463 C465 1.372 . S
C463 H480 0.931 . S
C464 C461 1.382 . S
C464 C465 1.390 . S
C464 H481 0.931 . S
C465 C463 1.372 . S
C465 C464 1.390 . S
C465 H482 0.929 . S
C466 C461 1.390 . S
C466 C462 1.392 . S
C466 H483 0.930 . S
C467 O452 1.255 . S
C467 O453 1.257 . S
C468 Eu404 2.787 . S
C468 O448 1.252 . S
C468 O451 1.268 . S
C468 C461 1.506 . S
C469 C436 1.439 . S
C469 H446 0.931 . S
C469 C470 1.374 . S
C470 C441 1.387 . S
C470 H447 0.931 . S
C470 C469 1.374 . S
C471 O455 1.249 . S
C471 O456 1.264 . S
C472 C475 1.382 . S
C472 C476 1.390 . S
C472 C479 1.506 . S
C473 C474 1.398 . S
C473 C476 1.392 . S
C474 C473 1.398 . S
C474 C477 1.372 . S
C474 H484 0.931 . S
C475 C472 1.382 . S
C475 C477 1.390 . S
C475 H485 0.931 . S
C476 C472 1.390 . S
C476 C473 1.392 . S
C476 H486 0.930 . S
C477 C474 1.372 . S
C477 C475 1.390 . S
C477 H487 0.929 . S
C478 O458 1.255 . S
C478 O459 1.257 . S
C479 Eu415 2.787 . S
C479 O454 1.252 . S
C479 O457 1.268 . S
C479 C472 1.506 . S
H480 C463 0.931 . S
H481 C464 0.931 . S
H482 C465 0.929 . S
H483 C466 0.930 . S
H484 C474 0.931 . S
H485 C475 0.931 . S
H486 C476 0.930 . S
H487 C477 0.929 . S
H488 C494 0.930 . S
H489 C497 0.930 . S
H490 C498 0.930 . S
H491 C499 0.930 . S
H492 C502 0.930 . S
H493 C503 0.930 1_545 S
C494 H488 0.930 . S
C494 C495 1.355 . S
C494 C496 1.415 . S
C495 C494 1.355 . S
C495 C497 1.419 . S
C496 C494 1.415 . S
C496 C501 1.425 . S
C496 C503 1.409 . S
C497 H489 0.930 . S
C497 C495 1.419 . S
C497 C498 1.362 . S
C498 H490 0.930 . S
C498 C497 1.362 . S
C498 C501 1.409 . S
C499 H491 0.930 . S
C499 C500 1.355 1_565 S
C499 C501 1.415 . S
C500 C499 1.355 1_545 S
C500 C502 1.419 . S
C501 C496 1.425 . S
C501 C498 1.409 . S
C501 C499 1.415 . S
C502 H492 0.930 . S
C502 C500 1.419 . S
C502 C503 1.362 1_545 S
C503 H493 0.930 1_565 S
C503 C496 1.409 . S
C503 C502 1.362 1_565 S
H504 C510 0.930 . S
H505 C513 0.930 . S
H506 C514 0.930 . S
H507 C515 0.930 . S
H508 C518 0.930 . S
H509 C519 0.930 . S
C510 H504 0.930 . S
C510 C511 1.355 . S
C510 C512 1.415 . S
C511 C510 1.355 . S
C511 C513 1.419 . S
C512 C510 1.415 . S
C512 C517 1.425 . S
C512 C519 1.409 . S
C513 H505 0.930 . S
C513 C511 1.419 . S
C513 C514 1.362 . S
C514 H506 0.930 . S
C514 C513 1.362 . S
C514 C517 1.409 . S
C515 H507 0.930 . S
C515 C516 1.355 . S
C515 C517 1.415 . S
C516 C515 1.355 . S
C516 C518 1.419 . S
C517 C512 1.425 . S
C517 C514 1.409 . S
C517 C515 1.415 . S
C518 H508 0.930 . S
C518 C516 1.419 . S
C518 C519 1.362 . S
C519 H509 0.930 . S
C519 C512 1.409 . S
C519 C518 1.362 . S
H520 C526 0.930 . S
H521 C529 0.930 . S
H522 C530 0.930 . S
H523 C531 0.930 . S
H524 C534 0.930 . S
H525 C535 0.930 . S
C526 H520 0.930 . S
C526 C527 1.355 . S
C526 C528 1.415 . S
C527 C526 1.355 . S
C527 C529 1.419 . S
C528 C526 1.415 . S
C528 C533 1.425 . S
C528 C535 1.409 . S
C529 H521 0.930 . S
C529 C527 1.419 . S
C529 C530 1.362 . S
C530 H522 0.930 . S
C530 C529 1.362 . S
C530 C533 1.409 . S
C531 H523 0.930 . S
C531 C532 1.355 . S
C531 C533 1.415 . S
C532 C531 1.355 . S
C532 C534 1.419 . S
C533 C528 1.425 . S
C533 C530 1.409 . S
C533 C531 1.415 . S
C534 H524 0.930 . S
C534 C532 1.419 . S
C534 C535 1.362 . S
C535 H525 0.930 . S
C535 C528 1.409 . S
C535 C534 1.362 . S
H536 C542 0.930 . S
H537 C545 0.930 . S
H538 C546 0.930 . S
H539 C547 0.930 1_545 S
H540 C550 0.930 . S
H541 C551 0.930 . S
C542 H536 0.930 . S
C542 C543 1.355 . S
C542 C544 1.415 . S
C543 C542 1.355 . S
C543 C545 1.419 . S
C544 C542 1.415 . S
C544 C549 1.425 . S
C544 C551 1.409 . S
C545 H537 0.930 . S
C545 C543 1.419 . S
C545 C546 1.362 . S
C546 H538 0.930 . S
C546 C545 1.362 . S
C546 C549 1.409 . S
C547 H539 0.930 1_565 S
C547 C548 1.355 . S
C547 C549 1.415 . S
C548 C547 1.355 . S
C548 C550 1.419 . S
C549 C544 1.425 . S
C549 C546 1.409 . S
C549 C547 1.415 . S
C550 H540 0.930 . S
C550 C548 1.419 . S
C550 C551 1.362 . S
C551 H541 0.930 . S
C551 C544 1.409 . S
C551 C550 1.362 . S
H552 C558 0.930 . S
H553 C561 0.930 . S
H554 C562 0.930 . S
H555 C563 0.930 . S
H556 C566 0.930 . S
H557 C567 0.942 . S
C558 H552 0.930 . S
C558 C559 1.355 . S
C558 C560 1.415 . S
C559 C558 1.355 . S
C559 C561 1.419 . S
C560 C558 1.415 . S
C560 C565 1.425 . S
C560 C567 1.383 1_545 S
C561 H553 0.930 . S
C561 C559 1.419 . S
C561 C562 1.362 . S
C562 H554 0.930 . S
C562 C561 1.362 . S
C562 C565 1.409 . S
C563 H555 0.930 . S
C563 C564 1.355 1_545 S
C563 C565 1.415 . S
C564 C563 1.355 1_565 S
C564 C566 1.419 . S
C565 C560 1.425 . S
C565 C562 1.409 . S
C565 C563 1.415 . S
C566 H556 0.930 . S
C566 C564 1.419 . S
C566 C567 1.377 . S
C567 H557 0.942 . S
C567 C560 1.383 1_565 S
C567 C566 1.377 . S
H568 C574 0.930 . S
H569 C577 0.930 . S
H570 C578 0.930 . S
H571 C579 0.930 . S
H572 C582 0.930 . S
H573 C583 0.930 . S
C574 H568 0.930 . S
C574 C575 1.355 . S
C574 C576 1.415 . S
C575 C574 1.355 . S
C575 C577 1.419 . S
C576 C574 1.415 . S
C576 C581 1.425 . S
C576 C583 1.409 . S
C577 H569 0.930 . S
C577 C575 1.419 . S
C577 C578 1.362 . S
C578 H570 0.930 . S
C578 C577 1.362 . S
C578 C581 1.409 . S
C579 H571 0.930 . S
C579 C580 1.355 . S
C579 C581 1.415 . S
C580 C579 1.355 . S
C580 C582 1.419 . S
C581 C576 1.425 . S
C581 C578 1.409 . S
C581 C579 1.415 . S
C582 H572 0.930 . S
C582 C580 1.419 . S
C582 C583 1.362 . S
C583 H573 0.930 . S
C583 C576 1.409 . S
C583 C582 1.362 . S
H584 C590 0.930 . S
H585 C593 0.930 . S
H586 C594 0.930 . S
H587 C595 0.930 . S
H588 C598 0.930 . S
H589 C599 0.930 . S
C590 H584 0.930 . S
C590 C591 1.355 . S
C590 C592 1.415 . S
C591 C590 1.355 . S
C591 C593 1.419 . S
C592 C590 1.415 . S
C592 C597 1.425 . S
C592 C599 1.409 . S
C593 H585 0.930 . S
C593 C591 1.419 . S
C593 C594 1.362 . S
C594 H586 0.930 . S
C594 C593 1.362 . S
C594 C597 1.409 . S
C595 H587 0.930 . S
C595 C596 1.355 . S
C595 C597 1.415 . S
C596 C595 1.355 . S
C596 C598 1.419 . S
C597 C592 1.425 . S
C597 C594 1.409 . S
C597 C595 1.415 . S
C598 H588 0.930 . S
C598 C596 1.419 . S
C598 C599 1.362 . S
C599 H589 0.930 . S
C599 C592 1.409 . S
C599 C598 1.362 . S
H600 C606 0.930 . S
H601 C609 0.930 . S
H602 C610 0.930 . S
H603 C611 0.930 . S
H604 C614 0.930 . S
H605 C615 0.930 . S
C606 H600 0.930 . S
C606 C607 1.355 . S
C606 C608 1.415 . S
C607 C606 1.355 . S
C607 C609 1.419 . S
C608 C606 1.415 . S
C608 C613 1.425 . S
C608 C615 1.409 1_545 S
C609 H601 0.930 . S
C609 C607 1.419 . S
C609 C610 1.362 . S
C610 H602 0.930 . S
C610 C609 1.362 . S
C610 C613 1.409 . S
C611 H603 0.930 . S
C611 C612 1.355 1_545 S
C611 C613 1.415 . S
C612 C611 1.355 1_565 S
C612 C614 1.419 . S
C613 C608 1.425 . S
C613 C610 1.409 . S
C613 C611 1.415 . S
C614 H604 0.930 . S
C614 C612 1.419 . S
C614 C615 1.362 . S
C615 H605 0.930 . S
C615 C608 1.409 1_565 S
C615 C614 1.362 . S
H616 C622 0.930 . S
H617 C625 0.930 . S
H618 C626 0.938 . S
H619 C627 0.930 . S
H620 C630 0.930 . S
H621 C631 0.930 . S
C622 H616 0.930 . S
C622 C623 1.355 . S
C622 C624 1.415 1_556 S
C623 C622 1.355 . S
C623 C625 1.419 . S
C624 C622 1.415 1_554 S
C624 C629 1.425 . S
C624 C631 1.409 . S
C625 H617 0.930 . S
C625 C623 1.419 . S
C625 C626 1.337 1_556 S
C626 H618 0.938 . S
C626 C625 1.337 1_554 S
C626 C629 1.427 . S
C627 H619 0.930 . S
C627 C628 1.355 . S
C627 C629 1.415 . S
C628 C627 1.355 . S
C628 C630 1.419 . S
C629 C624 1.425 . S
C629 C626 1.427 . S
C629 C627 1.415 . S
C630 H620 0.930 . S
C630 C628 1.419 . S
C630 C631 1.362 . S
C631 H621 0.930 . S
C631 C624 1.409 . S
C631 C630 1.362 . S
H632 C638 0.930 . S
H633 C641 0.930 . S
H634 C642 0.930 . S
H635 C643 0.930 . S
H636 C646 0.930 . S
H637 C647 0.930 . S
C638 H632 0.930 . S
C638 C639 1.355 . S
C638 C640 1.415 . S
C639 C638 1.355 . S
C639 C641 1.419 . S
C640 C638 1.415 . S
C640 C645 1.425 . S
C640 C647 1.409 . S
C641 H633 0.930 . S
C641 C639 1.419 . S
C641 C642 1.362 . S
C642 H634 0.930 . S
C642 C641 1.362 . S
C642 C645 1.409 . S
C643 H635 0.930 . S
C643 C644 1.355 . S
C643 C645 1.415 . S
C644 C643 1.355 . S
C644 C646 1.419 . S
C645 C640 1.425 . S
C645 C642 1.409 . S
C645 C643 1.415 . S
C646 H636 0.930 . S
C646 C644 1.419 . S
C646 C647 1.362 . S
C647 H637 0.930 . S
C647 C640 1.409 . S
C647 C646 1.362 . S
H648 C654 0.930 . S
H649 C657 0.930 . S
H650 C658 0.930 . S
H651 C659 0.930 . S
H652 C662 0.930 . S
H653 C663 0.930 . S
C654 H648 0.930 . S
C654 C655 1.355 . S
C654 C656 1.415 1_554 S
C655 C654 1.355 . S
C655 C657 1.419 . S
C656 C654 1.415 1_556 S
C656 C661 1.425 . S
C656 C663 1.409 . S
C657 H649 0.930 . S
C657 C655 1.419 . S
C657 C658 1.362 1_554 S
C658 H650 0.930 . S
C658 C657 1.362 1_556 S
C658 C661 1.409 . S
C659 H651 0.930 . S
C659 C660 1.355 . S
C659 C661 1.415 . S
C660 C659 1.355 . S
C660 C662 1.419 . S
C661 C656 1.425 . S
C661 C658 1.409 . S
C661 C659 1.415 . S
C662 H652 0.930 . S
C662 C660 1.419 . S
C662 C663 1.362 . S
C663 H653 0.930 . S
C663 C656 1.409 . S
C663 C662 1.362 . S
H664 C670 0.930 . S
H665 C673 0.930 . S
H666 C674 0.930 . S
H667 C675 0.930 . S
H668 C678 0.930 . S
H669 C679 0.930 . S
C670 H664 0.930 . S
C670 C671 1.355 . S
C670 C672 1.415 . S
C671 C670 1.355 . S
C671 C673 1.419 . S
C672 C670 1.415 . S
C672 C677 1.425 . S
C672 C679 1.409 . S
C673 H665 0.930 . S
C673 C671 1.419 . S
C673 C674 1.362 . S
C674 H666 0.930 . S
C674 C673 1.362 . S
C674 C677 1.409 . S
C675 H667 0.930 . S
C675 C676 1.355 . S
C675 C677 1.415 . S
C676 C675 1.355 . S
C676 C678 1.419 . S
C677 C672 1.425 . S
C677 C674 1.409 . S
C677 C675 1.415 . S
C678 H668 0.930 . S
C678 C676 1.419 . S
C678 C679 1.362 . S
C679 H669 0.930 . S
C679 C672 1.409 . S
C679 C678 1.362 . S
H680 C686 0.930 . S
H681 C689 0.930 . S
H682 C690 0.928 1_556 S
H683 C691 0.930 . S
H684 C694 0.930 . S
H685 C695 0.930 . S
C686 H680 0.930 . S
C686 C687 1.355 . S
C686 C688 1.415 1_554 S
C687 C686 1.355 . S
C687 C689 1.419 . S
C688 C686 1.415 1_556 S
C688 C693 1.425 . S
C688 C695 1.409 . S
C689 H681 0.930 . S
C689 C687 1.419 . S
C689 C690 1.362 . S
C690 H682 0.928 1_554 S
C690 C689 1.362 . S
C690 C693 1.409 1_554 S
C691 H683 0.930 . S
C691 C692 1.355 . S
C691 C693 1.415 . S
C692 C691 1.355 . S
C692 C694 1.419 . S
C693 C688 1.425 . S
C693 C690 1.409 1_556 S
C693 C691 1.415 . S
C694 H684 0.930 . S
C694 C692 1.419 . S
C694 C695 1.362 . S
C695 H685 0.930 . S
C695 C688 1.409 . S
C695 C694 1.362 . S
H696 C702 0.930 . S
H697 C705 0.930 . S
H698 C706 0.930 . S
H699 C707 0.930 . S
H700 C710 0.930 . S
H701 C711 0.930 . S
C702 H696 0.930 . S
C702 C703 1.355 . S
C702 C704 1.415 . S
C703 C702 1.355 . S
C703 C705 1.419 . S
C704 C702 1.415 . S
C704 C709 1.425 . S
C704 C711 1.409 . S
C705 H697 0.930 . S
C705 C703 1.419 . S
C705 C706 1.362 . S
C706 H698 0.930 . S
C706 C705 1.362 . S
C706 C709 1.409 . S
C707 H699 0.930 . S
C707 C708 1.355 . S
C707 C709 1.415 . S
C708 C707 1.355 . S
C708 C710 1.419 . S
C709 C704 1.425 . S
C709 C706 1.409 . S
C709 C707 1.415 . S
C710 H700 0.930 . S
C710 C708 1.419 . S
C710 C711 1.362 . S
C711 H701 0.930 . S
C711 C704 1.409 . S
C711 C710 1.362 . S
H712 C718 0.930 . S
H713 C721 0.930 . S
H714 C722 0.930 . S
H715 C723 0.930 . S
H716 C726 0.930 . S
H717 C727 0.930 . S
C718 H712 0.930 . S
C718 C719 1.355 . S
C718 C720 1.415 1_556 S
C719 C718 1.355 . S
C719 C721 1.419 . S
C720 C718 1.415 1_554 S
C720 C725 1.425 . S
C720 C727 1.409 . S
C721 H713 0.930 . S
C721 C719 1.419 . S
C721 C722 1.362 1_556 S
C722 H714 0.930 . S
C722 C721 1.362 1_554 S
C722 C725 1.409 . S
C723 H715 0.930 . S
C723 C724 1.355 . S
C723 C725 1.415 . S
C724 C723 1.355 . S
C724 C726 1.419 . S
C725 C720 1.425 . S
C725 C722 1.409 . S
C725 C723 1.415 . S
C726 H716 0.930 . S
C726 C724 1.419 . S
C726 C727 1.362 . S
C727 H717 0.930 . S
C727 C720 1.409 . S
C727 C726 1.362 . S
H728 C734 0.930 . S
H729 C737 0.930 . S
H730 C738 0.930 . S
H731 C739 0.930 . S
H732 C742 0.930 . S
H733 C743 0.930 . S
C734 H728 0.930 . S
C734 C735 1.355 . S
C734 C736 1.415 . S
C735 C734 1.355 . S
C735 C737 1.419 . S
C736 C734 1.415 . S
C736 C741 1.425 . S
C736 C743 1.409 . S
C737 H729 0.930 . S
C737 C735 1.419 . S
C737 C738 1.362 . S
C738 H730 0.930 . S
C738 C737 1.362 . S
C738 C741 1.409 . S
C739 H731 0.930 . S
C739 C740 1.355 . S
C739 C741 1.415 . S
C740 C739 1.355 . S
C740 C742 1.419 . S
C741 C736 1.425 . S
C741 C738 1.409 . S
C741 C739 1.415 . S
C742 H732 0.930 . S
C742 C740 1.419 . S
C742 C743 1.362 . S
C743 H733 0.930 . S
C743 C736 1.409 . S
C743 C742 1.362 . S
H744 C750 0.930 . S
H745 C753 0.930 . S
H746 C754 0.930 . S
H747 C755 0.930 . S
H748 C758 0.930 . S
H749 C759 0.930 . S
C750 H744 0.930 . S
C750 C751 1.355 . S
C750 C752 1.415 . S
C751 C750 1.355 . S
C751 C753 1.419 . S
C752 C750 1.415 . S
C752 C757 1.425 . S
C752 C759 1.409 . S
C753 H745 0.930 . S
C753 C751 1.419 . S
C753 C754 1.362 . S
C754 H746 0.930 . S
C754 C753 1.362 . S
C754 C757 1.409 . S
C755 H747 0.930 . S
C755 C756 1.355 . S
C755 C757 1.415 . S
C756 C755 1.355 . S
C756 C758 1.419 . S
C757 C752 1.425 . S
C757 C754 1.409 . S
C757 C755 1.415 . S
C758 H748 0.930 . S
C758 C756 1.419 . S
C758 C759 1.362 . S
C759 H749 0.930 . S
C759 C752 1.409 . S
C759 C758 1.362 . S
H760 C766 0.930 . S
H761 C769 0.930 . S
H762 C770 0.930 . S
H763 C771 0.930 . S
H764 C774 0.930 . S
H765 C775 0.930 . S
C766 H760 0.930 . S
C766 C767 1.355 . S
C766 C768 1.415 . S
C767 C766 1.355 . S
C767 C769 1.419 . S
C768 C766 1.415 . S
C768 C773 1.425 . S
C768 C775 1.409 . S
C769 H761 0.930 . S
C769 C767 1.419 . S
C769 C770 1.362 . S
C770 H762 0.930 . S
C770 C769 1.362 . S
C770 C773 1.409 . S
C771 H763 0.930 . S
C771 C772 1.355 . S
C771 C773 1.415 . S
C772 C771 1.355 . S
C772 C774 1.419 . S
C773 C768 1.425 . S
C773 C770 1.409 . S
C773 C771 1.415 . S
C774 H764 0.930 . S
C774 C772 1.419 . S
C774 C775 1.362 . S
C775 H765 0.930 . S
C775 C768 1.409 . S
C775 C774 1.362 . S
H776 C782 0.930 . S
H777 C785 0.930 . S
H778 C786 0.930 . S
H779 C787 0.930 . S
H780 C790 0.930 . S
H781 C791 0.930 . S
C782 H776 0.930 . S
C782 C783 1.355 . S
C782 C784 1.415 . S
C783 C782 1.355 . S
C783 C785 1.419 . S
C784 C782 1.415 . S
C784 C789 1.425 . S
C784 C791 1.409 . S
C785 H777 0.930 . S
C785 C783 1.419 . S
C785 C786 1.362 . S
C786 H778 0.930 . S
C786 C785 1.362 . S
C786 C789 1.409 . S
C787 H779 0.930 . S
C787 C788 1.355 . S
C787 C789 1.415 . S
C788 C787 1.355 . S
C788 C790 1.419 . S
C789 C784 1.425 . S
C789 C786 1.409 . S
C789 C787 1.415 . S
C790 H780 0.930 . S
C790 C788 1.419 . S
C790 C791 1.362 . S
C791 H781 0.930 . S
C791 C784 1.409 . S
C791 C790 1.362 . S
H792 C798 0.930 . S
H793 C801 0.930 . S
H794 C802 0.930 . S
H795 C803 0.930 . S
H796 C806 0.930 . S
H797 C807 0.930 . S
C798 H792 0.930 . S
C798 C799 1.355 . S
C798 C800 1.415 . S
C799 C798 1.355 . S
C799 C801 1.419 . S
C800 C798 1.415 . S
C800 C805 1.425 . S
C800 C807 1.409 . S
C801 H793 0.930 . S
C801 C799 1.419 . S
C801 C802 1.362 . S
C802 H794 0.930 . S
C802 C801 1.362 . S
C802 C805 1.409 . S
C803 H795 0.930 . S
C803 C804 1.355 . S
C803 C805 1.415 . S
C804 C803 1.355 . S
C804 C806 1.419 . S
C805 C800 1.425 . S
C805 C802 1.409 . S
C805 C803 1.415 . S
C806 H796 0.930 . S
C806 C804 1.419 . S
C806 C807 1.362 . S
C807 H797 0.930 . S
C807 C800 1.409 . S
C807 C806 1.362 . S
H808 C814 0.930 . S
H809 C817 0.930 . S
H810 C818 0.930 . S
H811 C819 0.930 . S
H812 C822 0.930 . S
H813 C823 0.930 . S
C814 H808 0.930 . S
C814 C815 1.355 . S
C814 C816 1.415 . S
C815 C814 1.355 . S
C815 C817 1.419 . S
C816 C814 1.415 . S
C816 C821 1.425 . S
C816 C823 1.409 . S
C817 H809 0.930 . S
C817 C815 1.419 . S
C817 C818 1.362 . S
C818 H810 0.930 . S
C818 C817 1.362 . S
C818 C821 1.409 . S
C819 H811 0.930 . S
C819 C820 1.355 . S
C819 C821 1.415 . S
C820 C819 1.355 . S
C820 C822 1.419 . S
C821 C816 1.425 . S
C821 C818 1.409 . S
C821 C819 1.415 . S
C822 H812 0.930 . S
C822 C820 1.419 . S
C822 C823 1.362 . S
C823 H813 0.930 . S
C823 C816 1.409 . S
C823 C822 1.362 . S
H824 C830 0.930 . S
H825 C833 0.930 . S
H826 C834 0.930 . S
H827 C835 0.930 . S
H828 C838 0.930 . S
H829 C839 0.930 . S
C830 H824 0.930 . S
C830 C831 1.355 . S
C830 C832 1.415 . S
C831 C830 1.355 . S
C831 C833 1.419 . S
C832 C830 1.415 . S
C832 C837 1.425 . S
C832 C839 1.409 . S
C833 H825 0.930 . S
C833 C831 1.419 . S
C833 C834 1.362 . S
C834 H826 0.930 . S
C834 C833 1.362 . S
C834 C837 1.409 . S
C835 H827 0.930 . S
C835 C836 1.355 . S
C835 C837 1.415 . S
C836 C835 1.355 . S
C836 C838 1.419 . S
C837 C832 1.425 . S
C837 C834 1.409 . S
C837 C835 1.415 . S
C838 H828 0.930 . S
C838 C836 1.419 . S
C838 C839 1.362 . S
C839 H829 0.930 . S
C839 C832 1.409 . S
C839 C838 1.362 . S
H840 C846 0.930 . S
H841 C849 0.930 . S
H842 C850 0.930 . S
H843 C851 0.930 . S
H844 C854 0.930 . S
H845 C855 0.930 . S
C846 H840 0.930 . S
C846 C847 1.355 . S
C846 C848 1.415 . S
C847 C846 1.355 . S
C847 C849 1.419 . S
C848 C846 1.415 . S
C848 C853 1.425 . S
C848 C855 1.409 . S
C849 H841 0.930 . S
C849 C847 1.419 . S
C849 C850 1.362 . S
C850 H842 0.930 . S
C850 C849 1.362 . S
C850 C853 1.409 . S
C851 H843 0.930 . S
C851 C852 1.355 . S
C851 C853 1.415 . S
C852 C851 1.355 . S
C852 C854 1.419 . S
C853 C848 1.425 . S
C853 C850 1.409 . S
C853 C851 1.415 . S
C854 H844 0.930 . S
C854 C852 1.419 . S
C854 C855 1.362 . S
C855 H845 0.930 . S
C855 C848 1.409 . S
C855 C854 1.362 . S
H856 C862 0.930 . S
H857 C865 0.930 . S
H858 C866 0.930 . S
H859 C867 0.930 . S
H860 C870 0.930 . S
H861 C871 0.930 . S
C862 H856 0.930 . S
C862 C863 1.355 . S
C862 C864 1.415 . S
C863 C862 1.355 . S
C863 C865 1.419 . S
C864 C862 1.415 . S
C864 C869 1.425 . S
C864 C871 1.409 . S
C865 H857 0.930 . S
C865 C863 1.419 . S
C865 C866 1.362 . S
C866 H858 0.930 . S
C866 C865 1.362 . S
C866 C869 1.409 . S
C867 H859 0.930 . S
C867 C868 1.355 . S
C867 C869 1.415 . S
C868 C867 1.355 . S
C868 C870 1.419 . S
C869 C864 1.425 . S
C869 C866 1.409 . S
C869 C867 1.415 . S
C870 H860 0.930 . S
C870 C868 1.419 . S
C870 C871 1.362 . S
C871 H861 0.930 . S
C871 C864 1.409 . S
C871 C870 1.362 . S
C495 C116 1.809 . S
C500 C226 1.813 . S
C516 C310 1.811 . S
C511 C135 1.817 . S
C532 C303 1.814 . S
C527 C78 1.802 . S
C543 C97 1.794 . S
C548 C219 1.811 1_565 S
C564 C383 1.815 . S
C559 C40 1.815 . S
C580 C467 1.809 . S
C575 C59 1.817 . S
C591 C2 1.788 . S
C596 C460 1.802 . S
C607 C21 1.803 . S
C612 C376 1.783 . S
C628 C210 1.603 . S
C623 C25 1.728 . S
C644 C294 1.570 . S
C639 C6 1.719 . S
C660 C305 1.492 . S
C655 C63 1.732 . S
C676 C221 1.455 . S
C671 C44 1.723 . S
C692 C389 1.573 . S
C687 C101 1.718 . S
C703 C82 1.717 . S
C708 C473 1.507 . S
C724 C462 1.513 . S
C719 C139 1.731 . S
C735 C120 1.732 . S
C740 C378 1.514 . S
C756 C208 1.513 . S
C751 C11 1.475 . S
C772 C292 1.502 . S
C767 C30 1.424 . S
C783 C49 1.392 . S
C788 C299 1.448 . S
C804 C215 1.471 . S
C799 C68 1.398 . S
C820 C387 1.505 . S
C815 C87 1.387 . S
C831 C106 1.331 . S
C836 C471 1.514 . S
C847 C125 1.386 . S
C852 C478 1.455 . S
C863 C144 1.331 . S
C868 C394 1.454 . S
