# Generated by pormake.
# Topology apo, (3,6)-cn, num edge types: 1
# Building blocks:
#     Node 0, Type 0, BuildingBlock: VETTIZ_charged_linker_0, # of connection points: 3
#     Node 1, Type 0, BuildingBlock: VETTIZ_charged_linker_0, # of connection points: 3
#     Node 2, Type 0, BuildingBlock: VETTIZ_charged_linker_0, # of connection points: 3
#     Node 3, Type 0, BuildingBlock: VETTIZ_charged_linker_0, # of connection points: 3
#     Node 4, Type 0, BuildingBlock: VETTIZ_charged_linker_0, # of connection points: 3
#     Node 5, Type 0, BuildingBlock: VETTIZ_charged_linker_0, # of connection points: 3
#     Node 6, Type 0, BuildingBlock: VETTIZ_charged_linker_0, # of connection points: 3
#     Node 7, Type 0, BuildingBlock: VETTIZ_charged_linker_0, # of connection points: 3
#     Node 8, Type 1, BuildingBlock: KUMJIN_clean_sbu_1, # of connection points: 6
#     Node 9, Type 1, BuildingBlock: KUMJIN_clean_sbu_1, # of connection points: 6
#     Node 10, Type 1, BuildingBlock: KUMJIN_clean_sbu_1, # of connection points: 6
#     Node 11, Type 1, BuildingBlock: KUMJIN_clean_sbu_1, # of connection points: 6
#     Edge 12, Type (0, 1), BuildingBlock: MIFKUJ_clean_linker_0, # of connection points: 2
#     Edge 13, Type (0, 1), BuildingBlock: MIFKUJ_clean_linker_0, # of connection points: 2
#     Edge 14, Type (0, 1), BuildingBlock: MIFKUJ_clean_linker_0, # of connection points: 2
#     Edge 15, Type (0, 1), BuildingBlock: MIFKUJ_clean_linker_0, # of connection points: 2
#     Edge 16, Type (0, 1), BuildingBlock: MIFKUJ_clean_linker_0, # of connection points: 2
#     Edge 17, Type (0, 1), BuildingBlock: MIFKUJ_clean_linker_0, # of connection points: 2
#     Edge 18, Type (0, 1), BuildingBlock: MIFKUJ_clean_linker_0, # of connection points: 2
#     Edge 19, Type (0, 1), BuildingBlock: MIFKUJ_clean_linker_0, # of connection points: 2
#     Edge 20, Type (0, 1), BuildingBlock: MIFKUJ_clean_linker_0, # of connection points: 2
#     Edge 21, Type (0, 1), BuildingBlock: MIFKUJ_clean_linker_0, # of connection points: 2
#     Edge 22, Type (0, 1), BuildingBlock: MIFKUJ_clean_linker_0, # of connection points: 2
#     Edge 23, Type (0, 1), BuildingBlock: MIFKUJ_clean_linker_0, # of connection points: 2
#     Edge 24, Type (0, 1), BuildingBlock: MIFKUJ_clean_linker_0, # of connection points: 2
#     Edge 25, Type (0, 1), BuildingBlock: MIFKUJ_clean_linker_0, # of connection points: 2
#     Edge 26, Type (0, 1), BuildingBlock: MIFKUJ_clean_linker_0, # of connection points: 2
#     Edge 27, Type (0, 1), BuildingBlock: MIFKUJ_clean_linker_0, # of connection points: 2
#     Edge 28, Type (0, 1), BuildingBlock: MIFKUJ_clean_linker_0, # of connection points: 2
#     Edge 29, Type (0, 1), BuildingBlock: MIFKUJ_clean_linker_0, # of connection points: 2
#     Edge 30, Type (0, 1), BuildingBlock: MIFKUJ_clean_linker_0, # of connection points: 2
#     Edge 31, Type (0, 1), BuildingBlock: MIFKUJ_clean_linker_0, # of connection points: 2
#     Edge 32, Type (0, 1), BuildingBlock: MIFKUJ_clean_linker_0, # of connection points: 2
#     Edge 33, Type (0, 1), BuildingBlock: MIFKUJ_clean_linker_0, # of connection points: 2
#     Edge 34, Type (0, 1), BuildingBlock: MIFKUJ_clean_linker_0, # of connection points: 2
#     Edge 35, Type (0, 1), BuildingBlock: MIFKUJ_clean_linker_0, # of connection points: 2
# Relax obj value: 0.011
# Max RMSD: 0.085
# Mean RMSD: 0.069
data_MOF--net-apo--node1-KUMJIN_clean_sbu_1--node2-VETTIZ_charged_linker_0--edge1-MIFKUJ_clean_linker_0
_symmetry_space_group_name_H-M    P1
_symmetry_Int_Tables_number       1
_symmetry_cell_setting            triclinic
loop_
_symmetry_equiv_pos_as_xyz
'x, y, z'
_cell_length_a     35.790886
_cell_length_b     65.270438
_cell_length_c     77.813993
_cell_angle_alpha  89.900289
_cell_angle_beta   89.978481
_cell_angle_gamma 90.225847
loop_
_atom_site_label
_atom_site_type_symbol
_atom_site_fract_x
_atom_site_fract_y
_atom_site_fract_z
_atom_type_partial_charge
C0 C 0.28997 0.36904 0.47512 0.0
C1 C 0.30833 0.38421 0.48499 0.0
C2 C 0.31688 0.40315 0.47708 0.0
C3 C 0.29266 0.39104 0.44993 0.0
C4 C 0.28202 0.3729 0.45771 0.0
C5 C 0.26248 0.35872 0.44526 0.0
H6 H 0.19523 0.34376 0.36457 0.0
C7 C 0.28212 0.39009 0.43165 0.0
C8 C 0.26393 0.37127 0.42877 0.0
H9 H 0.19394 0.30047 0.40693 0.0
H10 H 0.22411 0.32543 0.42497 0.0
H11 H 0.1786 0.38387 0.38389 0.0
H12 H 0.28156 0.35415 0.37081 0.0
H13 H 0.28922 0.38042 0.36769 0.0
H14 H 0.25373 0.36749 0.35526 0.0
H15 H 0.19746 0.3844 0.36253 0.0
H16 H 0.20995 0.40351 0.37827 0.0
C17 C 0.22191 0.35552 0.45157 0.0
C18 C 0.28532 0.33872 0.44385 0.0
C19 C 0.32089 0.44786 0.39133 0.0
C20 C 0.31393 0.45146 0.37382 0.0
C21 C 0.29199 0.43748 0.36447 0.0
C22 C 0.27759 0.41987 0.37235 0.0
C23 C 0.28489 0.41629 0.38984 0.0
C24 C 0.30574 0.43031 0.3991 0.0
C25 C 0.3088 0.42444 0.41775 0.0
C26 C 0.28798 0.40407 0.4179 0.0
C27 C 0.2741 0.39946 0.40154 0.0
C28 C 0.28837 0.44097 0.42853 0.0
C29 C 0.35076 0.42189 0.42213 0.0
C30 C 0.20178 0.33915 0.37757 0.0
C31 C 0.19168 0.3197 0.384 0.0
C32 C 0.2003 0.31528 0.4014 0.0
C33 C 0.21845 0.32976 0.41192 0.0
C34 C 0.22912 0.3488 0.40499 0.0
C35 C 0.22111 0.35302 0.38799 0.0
C36 C 0.23698 0.37318 0.38219 0.0
C37 C 0.25462 0.38082 0.39866 0.0
C38 C 0.24987 0.36662 0.41209 0.0
C39 C 0.2043 0.38703 0.37627 0.0
C40 C 0.26676 0.36879 0.36817 0.0
H41 H 0.31787 0.42105 0.45448 0.0
H42 H 0.28276 0.3543 0.4806 0.0
H43 H 0.31581 0.34197 0.44469 0.0
H44 H 0.28155 0.33094 0.43139 0.0
H45 H 0.27803 0.3279 0.45438 0.0
H46 H 0.20942 0.37038 0.45549 0.0
H47 H 0.22105 0.34509 0.46286 0.0
H48 H 0.2033 0.34934 0.44153 0.0
H49 H 0.33735 0.45859 0.3988 0.0
H50 H 0.28654 0.44004 0.35094 0.0
H51 H 0.26137 0.40973 0.36447 0.0
H52 H 0.26625 0.44876 0.42092 0.0
H53 H 0.30808 0.45297 0.43309 0.0
H54 H 0.27326 0.43439 0.43967 0.0
H55 H 0.36557 0.4138 0.41157 0.0
H56 H 0.35565 0.41253 0.43373 0.0
H57 H 0.3645 0.43703 0.4239 0.0
H58 H 0.32946 0.41554 0.48431 0.0
C59 C 0.30963 0.40651 0.45968 0.0
C60 C 0.30445 0.16182 0.87649 0.0
C61 C 0.31794 0.18005 0.88374 0.0
C62 C 0.31351 0.18347 0.90147 0.0
C63 C 0.28122 0.15084 0.90441 0.0
C64 C 0.28652 0.14741 0.88704 0.0
C65 C 0.27085 0.12713 0.88138 0.0
H66 H 0.16988 0.04189 0.89875 0.0
C67 C 0.26048 0.13305 0.91153 0.0
C68 C 0.25448 0.11911 0.89808 0.0
H69 H 0.22256 0.05989 0.85092 0.0
H70 H 0.2479 0.08985 0.86436 0.0
H71 H 0.24366 0.05316 0.92197 0.0
H72 H 0.14256 0.08602 0.91051 0.0
H73 H 0.1522 0.08929 0.93249 0.0
H74 H 0.14338 0.06394 0.92429 0.0
H75 H 0.19966 0.04649 0.93157 0.0
H76 H 0.22997 0.06568 0.94087 0.0
C77 C 0.30373 0.11367 0.87506 0.0
C78 C 0.24026 0.13126 0.86772 0.0
C79 C 0.22051 0.1324 0.97428 0.0
C80 C 0.20116 0.11795 0.98433 0.0
C81 C 0.1895 0.09938 0.97682 0.0
C82 C 0.19638 0.09536 0.95944 0.0
C83 C 0.21555 0.10996 0.94948 0.0
C84 C 0.22774 0.12799 0.95697 0.0
C85 C 0.24871 0.14139 0.94448 0.0
C86 C 0.24635 0.12864 0.9282 0.0
C87 C 0.22677 0.11025 0.93121 0.0
C88 C 0.28947 0.14353 0.95092 0.0
C89 C 0.22752 0.16194 0.94279 0.0
C90 C 0.18719 0.05218 0.89122 0.0
C91 C 0.19332 0.04865 0.87356 0.0
C92 C 0.21625 0.06247 0.86436 0.0
C93 C 0.2313 0.07986 0.87224 0.0
C94 C 0.22388 0.08357 0.88965 0.0
C95 C 0.20285 0.06966 0.89897 0.0
C96 C 0.19924 0.07593 0.91754 0.0
C97 C 0.2206 0.09617 0.91757 0.0
C98 C 0.23475 0.10054 0.90116 0.0
C99 C 0.21882 0.05948 0.9287 0.0
C100 C 0.15722 0.07886 0.92159 0.0
H101 H 0.2921 0.17256 0.92524 0.0
H102 H 0.30774 0.15888 0.86287 0.0
H103 H 0.22428 0.14534 0.8709 0.0
H104 H 0.21897 0.11901 0.86702 0.0
H105 H 0.25274 0.13347 0.85477 0.0
H106 H 0.32996 0.11738 0.8821 0.0
H107 H 0.30918 0.11607 0.86115 0.0
H108 H 0.29919 0.09716 0.87753 0.0
H109 H 0.23003 0.14671 0.97983 0.0
H110 H 0.1743 0.08812 0.98435 0.0
H111 H 0.18624 0.08109 0.95443 0.0
H112 H 0.29938 0.12889 0.95664 0.0
H113 H 0.29181 0.15557 0.96094 0.0
H114 H 0.3095 0.14692 0.9405 0.0
H115 H 0.19678 0.15936 0.94307 0.0
H116 H 0.23291 0.16985 0.93049 0.0
H117 H 0.23467 0.17244 0.95352 0.0
H118 H 0.32377 0.19752 0.9072 0.0
C119 C 0.29508 0.16899 0.91185 0.0
C120 C 0.79328 0.13217 0.53139 0.0
C121 C 0.81368 0.11769 0.52183 0.0
C122 C 0.82433 0.09919 0.52976 0.0
C123 C 0.79732 0.11026 0.55658 0.0
C124 C 0.78543 0.12812 0.54876 0.0
C125 C 0.7649 0.14182 0.56114 0.0
H126 H 0.70598 0.15914 0.64271 0.0
C127 C 0.78643 0.11093 0.5748 0.0
C128 C 0.76727 0.12935 0.57763 0.0
H129 H 0.69111 0.1982 0.59837 0.0
H130 H 0.72256 0.17334 0.58045 0.0
H131 H 0.68543 0.11723 0.62368 0.0
H132 H 0.78933 0.14749 0.63509 0.0
H133 H 0.79698 0.12124 0.63834 0.0
H134 H 0.76253 0.13429 0.65119 0.0
H135 H 0.70499 0.11779 0.64491 0.0
H136 H 0.71691 0.09798 0.62973 0.0
C137 C 0.7241 0.14398 0.55481 0.0
C138 C 0.78648 0.16236 0.5625 0.0
C139 C 0.82541 0.05312 0.61471 0.0
C140 C 0.81983 0.04977 0.63232 0.0
C141 C 0.79929 0.06393 0.64203 0.0
C142 C 0.78464 0.08152 0.63429 0.0
C143 C 0.79064 0.08491 0.61665 0.0
C144 C 0.81046 0.07076 0.60714 0.0
C145 C 0.8137 0.07685 0.58857 0.0
C146 C 0.79294 0.09711 0.58856 0.0
C147 C 0.77964 0.10172 0.60503 0.0
C148 C 0.79332 0.06039 0.57763 0.0
C149 C 0.85577 0.07964 0.58433 0.0
C150 C 0.7096 0.16236 0.62914 0.0
C151 C 0.69634 0.18064 0.62192 0.0
C152 C 0.70097 0.18413 0.60416 0.0
C153 C 0.71937 0.16973 0.59383 0.0
C154 C 0.73306 0.15164 0.60134 0.0
C155 C 0.72774 0.14818 0.6187 0.0
C156 C 0.74387 0.12821 0.6246 0.0
C157 C 0.76005 0.12021 0.60795 0.0
C158 C 0.75376 0.13395 0.59435 0.0
C159 C 0.71138 0.11452 0.63122 0.0
C160 C 0.77463 0.13285 0.6381 0.0
H161 H 0.82588 0.0812 0.55227 0.0
H162 H 0.78459 0.14651 0.52565 0.0
H163 H 0.81717 0.15974 0.56217 0.0
H164 H 0.78137 0.17044 0.57472 0.0
H165 H 0.77938 0.17273 0.55166 0.0
H166 H 0.71365 0.12923 0.54948 0.0
H167 H 0.72196 0.15574 0.54453 0.0
H168 H 0.70441 0.14779 0.56523 0.0
H169 H 0.8412 0.04232 0.60706 0.0
H170 H 0.79494 0.06144 0.65566 0.0
H171 H 0.76945 0.09184 0.64238 0.0
H172 H 0.76951 0.05348 0.58482 0.0
H173 H 0.8125 0.04777 0.57403 0.0
H174 H 0.78045 0.06677 0.56587 0.0
H175 H 0.87103 0.08635 0.59545 0.0
H176 H 0.86096 0.09042 0.57364 0.0
H177 H 0.86901 0.06472 0.58128 0.0
H178 H 0.83913 0.08755 0.52259 0.0
C179 C 0.81641 0.09545 0.54702 0.0
C180 C 0.80032 0.33619 0.12949 0.0
C181 C 0.8131 0.3178 0.12235 0.0
C182 C 0.80749 0.31397 0.10475 0.0
C183 C 0.77579 0.34661 0.10168 0.0
C184 C 0.78173 0.35031 0.11898 0.0
C185 C 0.76546 0.37038 0.12465 0.0
H186 H 0.66578 0.45551 0.10624 0.0
C187 C 0.75474 0.36418 0.09454 0.0
C188 C 0.74867 0.37812 0.10799 0.0
H189 H 0.71552 0.43829 0.15466 0.0
H190 H 0.7403 0.40746 0.1419 0.0
H191 H 0.738 0.44427 0.08417 0.0
H192 H 0.63652 0.41139 0.09517 0.0
H193 H 0.64678 0.40705 0.07341 0.0
H194 H 0.63842 0.43282 0.08072 0.0
H195 H 0.6948 0.45004 0.07359 0.0
H196 H 0.7266 0.43102 0.06531 0.0
C197 C 0.79788 0.3843 0.13092 0.0
C198 C 0.73508 0.36589 0.13837 0.0
C199 C 0.71593 0.36548 0.03149 0.0
C200 C 0.69697 0.38017 0.02161 0.0
C201 C 0.68521 0.39851 0.02928 0.0
C202 C 0.69167 0.40216 0.04671 0.0
C203 C 0.71054 0.38739 0.05654 0.0
C204 C 0.72283 0.36953 0.04891 0.0
C205 C 0.74338 0.35597 0.06142 0.0
C206 C 0.74079 0.36853 0.07781 0.0
C207 C 0.72131 0.38683 0.07481 0.0
C208 C 0.78425 0.35391 0.05515 0.0
C209 C 0.72197 0.33539 0.06288 0.0
C210 C 0.68197 0.44499 0.11401 0.0
C211 C 0.68873 0.44905 0.13141 0.0
C212 C 0.71024 0.43532 0.14118 0.0
C213 C 0.72451 0.41747 0.13375 0.0
C214 C 0.71756 0.41348 0.1163 0.0
C215 C 0.69699 0.42726 0.10669 0.0
C216 C 0.69381 0.42095 0.0882 0.0
C217 C 0.71487 0.40079 0.08842 0.0
C218 C 0.72864 0.39649 0.10489 0.0
C219 C 0.71401 0.43739 0.07711 0.0
C220 C 0.65179 0.41799 0.08398 0.0
H221 H 0.78535 0.32452 0.08104 0.0
H222 H 0.80416 0.33934 0.14305 0.0
H223 H 0.7197 0.3515 0.13533 0.0
H224 H 0.71328 0.37779 0.13896 0.0
H225 H 0.74765 0.36406 0.15133 0.0
H226 H 0.82383 0.38142 0.12343 0.0
H227 H 0.80431 0.38146 0.14468 0.0
H228 H 0.79224 0.40078 0.12902 0.0
H229 H 0.72528 0.35127 0.02576 0.0
H230 H 0.67035 0.40988 0.02179 0.0
H231 H 0.68144 0.41629 0.05184 0.0
H232 H 0.79472 0.36875 0.04995 0.0
H233 H 0.78649 0.34231 0.04478 0.0
H234 H 0.80384 0.34992 0.06557 0.0
H235 H 0.69126 0.33791 0.06232 0.0
H236 H 0.72674 0.3275 0.07524 0.0
H237 H 0.72952 0.32492 0.05221 0.0
H238 H 0.81713 0.29977 0.09912 0.0
C239 C 0.78898 0.32831 0.09435 0.0
C240 C 0.70754 0.56116 0.63022 0.0
C241 C 0.68523 0.54488 0.62412 0.0
C242 C 0.67498 0.54472 0.6066 0.0
C243 C 0.70814 0.57668 0.60183 0.0
C244 C 0.71829 0.57688 0.61894 0.0
C245 C 0.74024 0.5958 0.62357 0.0
H246 H 0.8145 0.68749 0.60053 0.0
C247 C 0.7229 0.59556 0.59373 0.0
C248 C 0.74161 0.60687 0.60641 0.0
H249 H 0.81364 0.65868 0.65053 0.0
H250 H 0.78225 0.62909 0.63887 0.0
H251 H 0.83221 0.64434 0.57788 0.0
H252 H 0.7314 0.67652 0.59147 0.0
H253 H 0.72582 0.66732 0.57045 0.0
H254 H 0.76222 0.68577 0.57497 0.0
H255 H 0.82114 0.66938 0.56978 0.0
H256 H 0.80367 0.64657 0.55953 0.0
C257 C 0.77962 0.58905 0.62955 0.0
C258 C 0.71759 0.6079 0.63716 0.0
C259 C 0.69995 0.60825 0.53028 0.0
C260 C 0.70714 0.62497 0.51928 0.0
C261 C 0.72629 0.64216 0.52604 0.0
C262 C 0.73803 0.64264 0.54323 0.0
C263 C 0.73003 0.62594 0.55403 0.0
C264 C 0.711 0.60922 0.54751 0.0
C265 C 0.70264 0.59344 0.56107 0.0
C266 C 0.72075 0.60317 0.57668 0.0
C267 C 0.73692 0.6222 0.57251 0.0
C268 C 0.72206 0.57319 0.55591 0.0
C269 C 0.65957 0.59181 0.56302 0.0
C270 C 0.80784 0.67462 0.60881 0.0
C271 C 0.81646 0.67524 0.62644 0.0
C272 C 0.80706 0.65844 0.63694 0.0
C273 C 0.78875 0.64132 0.63014 0.0
C274 C 0.77918 0.64105 0.61264 0.0
C275 C 0.78893 0.65741 0.60221 0.0
C276 C 0.77523 0.65451 0.58404 0.0
C277 C 0.75583 0.63376 0.58536 0.0
C278 C 0.75831 0.62602 0.60217 0.0
C279 C 0.80967 0.65377 0.57204 0.0
C280 C 0.74739 0.67194 0.57983 0.0
H281 H 0.67759 0.55933 0.58232 0.0
H282 H 0.71642 0.56179 0.6435 0.0
H283 H 0.68701 0.60614 0.63499 0.0
H284 H 0.72252 0.6246 0.63654 0.0
H285 H 0.7237 0.60238 0.65037 0.0
H286 H 0.78937 0.57556 0.62209 0.0
H287 H 0.77951 0.58469 0.64335 0.0
H288 H 0.80123 0.60091 0.62739 0.0
H289 H 0.68576 0.59464 0.52573 0.0
H290 H 0.73155 0.65558 0.51821 0.0
H291 H 0.75234 0.65616 0.54752 0.0
H292 H 0.74995 0.57631 0.55013 0.0
H293 H 0.70522 0.56464 0.5463 0.0
H294 H 0.72767 0.56304 0.56697 0.0
H295 H 0.64587 0.60673 0.56023 0.0
H296 H 0.6507 0.58805 0.57626 0.0
H297 H 0.64769 0.5803 0.55404 0.0
H298 H 0.65726 0.53271 0.60151 0.0
C299 C 0.68647 0.5604 0.59545 0.0
C300 C 0.70253 0.83843 0.12713 0.0
C301 C 0.68672 0.82048 0.12009 0.0
C302 C 0.68816 0.81813 0.10198 0.0
C303 C 0.72189 0.85033 0.09884 0.0
C304 C 0.71902 0.85312 0.11638 0.0
C305 C 0.73552 0.87314 0.12212 0.0
H306 H 0.83009 0.96016 0.10416 0.0
C307 C 0.74232 0.86824 0.09159 0.0
C308 C 0.75004 0.88164 0.10526 0.0
H309 H 0.78981 0.93824 0.15342 0.0
H310 H 0.76287 0.90884 0.13989 0.0
H311 H 0.8611 0.91656 0.09303 0.0
H312 H 0.75868 0.9479 0.08163 0.0
H313 H 0.77291 0.93585 0.06255 0.0
H314 H 0.80257 0.95508 0.07218 0.0
H315 H 0.85893 0.93735 0.07797 0.0
H316 H 0.85085 0.91117 0.0715 0.0
C317 C 0.76753 0.8686 0.13501 0.0
C318 C 0.70341 0.88645 0.12941 0.0
C319 C 0.78295 0.87 0.02866 0.0
C320 C 0.80527 0.88392 0.01935 0.0
C321 C 0.81726 0.90215 0.02724 0.0
C322 C 0.80791 0.90638 0.0443 0.0
C323 C 0.7869 0.89203 0.05375 0.0
C324 C 0.7744 0.87427 0.04592 0.0
C325 C 0.75295 0.86073 0.05823 0.0
C326 C 0.75548 0.87309 0.07477 0.0
C327 C 0.77537 0.89144 0.07195 0.0
C328 C 0.77357 0.84002 0.05968 0.0
C329 C 0.71225 0.85889 0.05172 0.0
C330 C 0.81563 0.94902 0.11208 0.0
C331 C 0.81185 0.95189 0.12995 0.0
C332 C 0.79246 0.93691 0.13961 0.0
C333 C 0.77704 0.91961 0.13173 0.0
C334 C 0.78138 0.91687 0.11396 0.0
C335 C 0.80044 0.9314 0.10444 0.0
C336 C 0.80361 0.92539 0.08583 0.0
C337 C 0.78249 0.9051 0.08576 0.0
C338 C 0.76976 0.90021 0.10229 0.0
C339 C 0.84569 0.92257 0.08168 0.0
C340 C 0.78371 0.94189 0.07484 0.0
H341 H 0.70644 0.82985 0.07785 0.0
H342 H 0.70299 0.84111 0.14083 0.0
H343 H 0.67716 0.884 0.12201 0.0
H344 H 0.70897 0.90306 0.12837 0.0
H345 H 0.69753 0.88253 0.14304 0.0
H346 H 0.78094 0.85362 0.13223 0.0
H347 H 0.75697 0.86802 0.14842 0.0
H348 H 0.79066 0.87984 0.13423 0.0
H349 H 0.77353 0.85584 0.02282 0.0
H350 H 0.83422 0.91308 0.02017 0.0
H351 H 0.81798 0.92053 0.04955 0.0
H352 H 0.8042 0.84255 0.06098 0.0
H353 H 0.76879 0.83052 0.04805 0.0
H354 H 0.76522 0.83104 0.07106 0.0
H355 H 0.70265 0.87364 0.0461 0.0
H356 H 0.69219 0.85547 0.06213 0.0
H357 H 0.7098 0.84696 0.04161 0.0
H358 H 0.67541 0.80504 0.09578 0.0
C359 C 0.7059 0.83276 0.09142 0.0
C360 C 0.19986 0.93551 0.37264 0.0
C361 C 0.18131 0.95281 0.37928 0.0
C362 C 0.17549 0.95389 0.39724 0.0
C363 C 0.20427 0.92072 0.40119 0.0
C364 C 0.21163 0.91999 0.38381 0.0
C365 C 0.23369 0.90132 0.37894 0.0
H366 H 0.31072 0.81048 0.40073 0.0
C367 C 0.2194 0.90192 0.40911 0.0
C368 C 0.23698 0.89058 0.3962 0.0
H369 H 0.30944 0.84094 0.35131 0.0
H370 H 0.27707 0.86946 0.3635 0.0
H371 H 0.3307 0.85251 0.42298 0.0
H372 H 0.22565 0.82259 0.41178 0.0
H373 H 0.22684 0.82932 0.43368 0.0
H374 H 0.26029 0.81127 0.42549 0.0
H375 H 0.31797 0.82841 0.43253 0.0
H376 H 0.30311 0.85241 0.44168 0.0
C377 C 0.27234 0.90861 0.37218 0.0
C378 C 0.21033 0.8887 0.36591 0.0
C379 C 0.19524 0.88814 0.47224 0.0
C380 C 0.20538 0.87225 0.48352 0.0
C381 C 0.22725 0.85598 0.47706 0.0
C382 C 0.23819 0.85543 0.45973 0.0
C383 C 0.22756 0.87139 0.44866 0.0
C384 C 0.20677 0.88748 0.45506 0.0
C385 C 0.19907 0.90354 0.44172 0.0
C386 C 0.2178 0.89422 0.42613 0.0
C387 C 0.23448 0.87534 0.43018 0.0
C388 C 0.2185 0.92373 0.4474 0.0
C389 C 0.15616 0.90518 0.43944 0.0
C390 C 0.30376 0.82345 0.39266 0.0
C391 C 0.31213 0.8233 0.37494 0.0
C392 C 0.30265 0.84047 0.36488 0.0
C393 C 0.28395 0.85712 0.37201 0.0
C394 C 0.27458 0.85684 0.3895 0.0
C395 C 0.28484 0.84039 0.39965 0.0
C396 C 0.27246 0.84321 0.41807 0.0
C397 C 0.25293 0.86391 0.41711 0.0
C398 C 0.25425 0.87165 0.40027 0.0
C399 C 0.30771 0.84406 0.42955 0.0
C400 C 0.24501 0.82567 0.42267 0.0
H401 H 0.1803 0.93958 0.42154 0.0
H402 H 0.20493 0.93377 0.35902 0.0
H403 H 0.17999 0.88962 0.36894 0.0
H404 H 0.21672 0.87217 0.36621 0.0
H405 H 0.21432 0.8945 0.3526 0.0
H406 H 0.28118 0.92316 0.37845 0.0
H407 H 0.27165 0.91139 0.3581 0.0
H408 H 0.29506 0.89775 0.3752 0.0
H409 H 0.17815 0.90078 0.47653 0.0
H410 H 0.23622 0.84368 0.48542 0.0
H411 H 0.25459 0.84261 0.45562 0.0
H412 H 0.24352 0.92062 0.45546 0.0
H413 H 0.19933 0.93346 0.45505 0.0
H414 H 0.22948 0.93271 0.43642 0.0
H415 H 0.14294 0.88972 0.43973 0.0
H416 H 0.14789 0.91188 0.427 0.0
H417 H 0.14352 0.91438 0.44992 0.0
H418 H 0.16277 0.96717 0.40308 0.0
C419 C 0.18631 0.93789 0.40812 0.0
C420 C 0.20234 0.66088 0.8755 0.0
C421 C 0.19141 0.6798 0.8823 0.0
C422 C 0.19792 0.68397 0.8998 0.0
C423 C 0.22684 0.65063 0.90335 0.0
C424 C 0.2203 0.64669 0.88615 0.0
C425 C 0.23589 0.62644 0.88059 0.0
H426 H 0.34107 0.54337 0.89772 0.0
C427 C 0.24723 0.63289 0.91062 0.0
C428 C 0.25253 0.6187 0.8973 0.0
H429 H 0.28603 0.55988 0.85016 0.0
H430 H 0.25837 0.58899 0.86379 0.0
H431 H 0.36558 0.58732 0.90944 0.0
H432 H 0.26586 0.55294 0.92122 0.0
H433 H 0.27939 0.56561 0.9401 0.0
H434 H 0.31024 0.54692 0.93063 0.0
H435 H 0.36573 0.56535 0.92336 0.0
H436 H 0.35608 0.59063 0.93142 0.0
C437 C 0.26639 0.63069 0.86685 0.0
C438 C 0.20308 0.61275 0.87436 0.0
C439 C 0.28832 0.63284 0.97336 0.0
C440 C 0.30874 0.61873 0.98321 0.0
C441 C 0.32047 0.60026 0.97572 0.0
C442 C 0.31255 0.59595 0.95848 0.0
C443 C 0.29266 0.61028 0.9486 0.0
C444 C 0.28045 0.62826 0.9561 0.0
C445 C 0.25986 0.64166 0.9435 0.0
C446 C 0.26165 0.62872 0.9273 0.0
C447 C 0.28115 0.61041 0.93037 0.0
C448 C 0.28183 0.66204 0.94158 0.0
C449 C 0.21924 0.64423 0.94994 0.0
C450 C 0.32277 0.55313 0.89028 0.0
C451 C 0.31678 0.54954 0.87263 0.0
C452 C 0.2924 0.56262 0.86356 0.0
C453 C 0.27602 0.57951 0.87156 0.0
C454 C 0.28368 0.58346 0.88891 0.0
C455 C 0.30579 0.57008 0.89814 0.0
C456 C 0.30936 0.5764 0.91668 0.0
C457 C 0.28716 0.59625 0.91678 0.0
C458 C 0.27241 0.60029 0.90043 0.0
C459 C 0.3513 0.58003 0.92061 0.0
C460 C 0.29057 0.55962 0.92787 0.0
H461 H 0.21926 0.6734 0.92366 0.0
H462 H 0.19803 0.65747 0.86201 0.0
H463 H 0.17661 0.61667 0.88108 0.0
H464 H 0.20742 0.59633 0.87727 0.0
H465 H 0.19821 0.61464 0.86035 0.0
H466 H 0.28281 0.64465 0.87016 0.0
H467 H 0.25374 0.63321 0.85399 0.0
H468 H 0.28732 0.61839 0.86587 0.0
H469 H 0.2791 0.64717 0.97892 0.0
H470 H 0.33626 0.58928 0.9832 0.0
H471 H 0.32269 0.58173 0.95346 0.0
H472 H 0.31245 0.65938 0.9425 0.0
H473 H 0.27407 0.67306 0.95183 0.0
H474 H 0.27788 0.66937 0.92892 0.0
H475 H 0.20825 0.62949 0.95513 0.0
H476 H 0.19966 0.64859 0.93963 0.0
H477 H 0.21773 0.6558 0.96037 0.0
H478 H 0.18959 0.69853 0.90522 0.0
C479 C 0.21522 0.6694 0.91042 0.0
Eu480 Eu 0.04474 0.13787 0.23558 0.0
C481 C 0.87314 0.12396 0.25906 0.0
N482 N 0.89389 0.14144 0.25789 0.0
C483 C 0.84141 0.15975 0.24669 0.0
C484 C 0.83548 0.12375 0.25373 0.0
C485 C 0.87853 0.15931 0.25222 0.0
C486 C 0.81984 0.14188 0.24736 0.0
C487 C 0.86847 0.08785 0.26674 0.0
C488 C 0.88965 0.10608 0.26546 0.0
C489 C 0.83091 0.08774 0.26153 0.0
C490 C 0.81455 0.10557 0.25498 0.0
Eu491 Eu 0.95426 0.13879 0.26933 0.0
N492 N 0.92673 0.10618 0.26952 0.0
C493 C 0.88599 0.07009 0.27278 0.0
C494 C 0.94374 0.08906 0.2757 0.0
C495 C 0.92373 0.07073 0.2773 0.0
H496 H 0.89446 0.17337 0.25238 0.0
H497 H 0.93733 0.05714 0.28221 0.0
H498 H 0.10553 0.10213 0.24973 0.0
H499 H 0.07522 0.21598 0.2153 0.0
H500 H 0.97235 0.08958 0.27984 0.0
H501 H 0.87065 0.05582 0.27396 0.0
H502 H 0.03901 0.18353 0.2171 0.0
H503 H 0.82931 0.17393 0.24213 0.0
H504 H 0.81434 0.07384 0.26233 0.0
H505 H 0.7856 0.10515 0.25091 0.0
H506 H 0.16786 0.10055 0.26317 0.0
H507 H 0.79101 0.14232 0.24314 0.0
H508 H 0.13735 0.2184 0.22921 0.0
N509 N 0.10642 0.13434 0.24654 0.0
C510 C 0.12792 0.15155 0.24681 0.0
C511 C 0.15676 0.11508 0.25888 0.0
C512 C 0.1643 0.15137 0.25379 0.0
C513 C 0.12102 0.11606 0.25164 0.0
C514 C 0.17829 0.1329 0.26024 0.0
N515 N 0.07904 0.16865 0.23261 0.0
C516 C 0.06555 0.18484 0.22355 0.0
C517 C 0.13592 0.18716 0.23862 0.0
C518 C 0.11402 0.16919 0.23936 0.0
C519 C 0.12139 0.2043 0.23013 0.0
C520 C 0.08627 0.20302 0.22232 0.0
H521 H 0.20606 0.13209 0.26574 0.0
H522 H 0.21365 0.16965 0.25914 0.0
H523 H 0.18878 0.20102 0.24582 0.0
O524 O 0.04184 0.1419 0.20736 0.0
O525 O 0.04982 0.16132 0.25729 0.0
O526 O 0.99751 0.16254 0.27544 0.0
O527 O 0.07345 0.1171 0.21852 0.0
O528 O 0.99007 0.15368 0.2287 0.0
O529 O 0.96222 0.1674 0.25296 0.0
O530 O 0.94694 0.1306 0.29658 0.0
O531 O 0.94689 0.12283 0.24347 0.0
O532 O 0.00576 0.11105 0.2389 0.0
O533 O 0.9146 0.15514 0.2853 0.0
O534 O 0.0085 0.12436 0.27844 0.0
O535 O 0.03945 0.11163 0.25457 0.0
C536 C 0.03111 0.1684 0.27064 0.0
C537 C 0.09265 0.12788 0.19089 0.0
C538 C 0.109 0.12746 0.16039 0.0
C539 C 0.14627 0.12344 0.16489 0.0
C540 C 0.13028 0.12396 0.19497 0.0
C541 C 0.15679 0.12173 0.18202 0.0
C542 C 0.08214 0.12993 0.17346 0.0
C543 C 0.97271 0.16863 0.23673 0.0
C544 C 0.06379 0.1264 0.20443 0.0
C545 C 0.18578 0.16944 0.2537 0.0
C546 C 0.17164 0.1873 0.2461 0.0
C547 C 0.97045 0.11146 0.23479 0.0
C548 C 0.9218 0.1558 0.31573 0.0
C549 C 0.91404 0.1551 0.34693 0.0
C550 C 0.90937 0.17643 0.34682 0.0
C551 C 0.91736 0.17721 0.31601 0.0
C552 C 0.92053 0.14477 0.33136 0.0
C553 C 0.91121 0.18739 0.33147 0.0
C554 C 0.03249 0.11182 0.27119 0.0
C555 C 0.92185 0.14469 0.29918 0.0
H556 H 0.16724 0.12117 0.15502 0.0
H557 H 0.13911 0.12188 0.20817 0.0
H558 H 0.18545 0.11817 0.18525 0.0
H559 H 0.05306 0.13223 0.17009 0.0
H560 H 0.90328 0.18455 0.35863 0.0
H561 H 0.91738 0.18606 0.30423 0.0
H562 H 0.9225 0.1282 0.3313 0.0
H563 H 0.90684 0.20379 0.33151 0.0
Eu564 Eu 0.46068 0.36085 0.73582 0.0
C565 C 0.63011 0.37695 0.7595 0.0
N566 N 0.61041 0.35911 0.75904 0.0
C567 C 0.66513 0.34115 0.74958 0.0
C568 C 0.66803 0.37761 0.75446 0.0
C569 C 0.62807 0.3412 0.75521 0.0
C570 C 0.68506 0.35953 0.74891 0.0
C571 C 0.63404 0.41248 0.7685 0.0
C572 C 0.61342 0.39419 0.76651 0.0
C573 C 0.67148 0.41325 0.76321 0.0
C574 C 0.68839 0.39591 0.75612 0.0
Eu575 Eu 0.54852 0.36033 0.76988 0.0
N576 N 0.57765 0.39275 0.7723 0.0
C577 C 0.61693 0.42922 0.77646 0.0
C578 C 0.5617 0.40856 0.78109 0.0
C579 C 0.58069 0.42719 0.78291 0.0
H580 H 0.61438 0.32683 0.75761 0.0
H581 H 0.56763 0.43985 0.78953 0.0
H582 H 0.40165 0.39656 0.75074 0.0
H583 H 0.43726 0.27926 0.7232 0.0
H584 H 0.53428 0.40677 0.78664 0.0
H585 H 0.63185 0.44356 0.77814 0.0
H586 H 0.47398 0.31101 0.72471 0.0
H587 H 0.67869 0.32685 0.74641 0.0
H588 H 0.68791 0.42701 0.76512 0.0
H589 H 0.71762 0.39661 0.75252 0.0
H590 H 0.33679 0.39859 0.7609 0.0
H591 H 0.71412 0.3594 0.745 0.0
H592 H 0.37127 0.27909 0.73242 0.0
N593 N 0.39996 0.36432 0.74698 0.0
C594 C 0.37837 0.34712 0.74666 0.0
C595 C 0.34829 0.38396 0.7573 0.0
C596 C 0.34084 0.34767 0.75222 0.0
C597 C 0.38529 0.3827 0.75172 0.0
C598 C 0.32605 0.36636 0.75775 0.0
N599 N 0.43002 0.32869 0.73539 0.0
C600 C 0.44569 0.31116 0.72922 0.0
C601 C 0.37163 0.31094 0.74 0.0
C602 C 0.39367 0.3289 0.7406 0.0
C603 C 0.38757 0.293 0.73355 0.0
C604 C 0.42478 0.29308 0.72825 0.0
H605 H 0.29731 0.36745 0.76202 0.0
H606 H 0.29025 0.32989 0.75606 0.0
H607 H 0.31718 0.29775 0.74536 0.0
O608 O 0.44196 0.35405 0.70947 0.0
O609 O 0.45294 0.3444 0.76152 0.0
O610 O 0.5119 0.33228 0.7666 0.0
O611 O 0.43684 0.38512 0.71991 0.0
O612 O 0.51021 0.34256 0.72706 0.0
O613 O 0.55028 0.33452 0.74984 0.0
O614 O 0.54031 0.36126 0.79843 0.0
O615 O 0.54305 0.38741 0.75166 0.0
O616 O 0.51869 0.37154 0.7281 0.0
O617 O 0.58812 0.34602 0.78677 0.0
O618 O 0.4923 0.37336 0.77764 0.0
O619 O 0.46846 0.38852 0.75317 0.0
C620 C 0.47582 0.33183 0.76951 0.0
C621 C 0.41467 0.38002 0.69059 0.0
C622 C 0.40574 0.37796 0.65946 0.0
C623 C 0.38229 0.39511 0.6603 0.0
C624 C 0.39107 0.39714 0.69099 0.0
C625 C 0.3749 0.40454 0.67595 0.0
C626 C 0.42172 0.37019 0.6747 0.0
C627 C 0.53768 0.33199 0.73394 0.0
C628 C 0.43155 0.37289 0.70686 0.0
C629 C 0.31909 0.32973 0.75181 0.0
C630 C 0.33441 0.31143 0.74569 0.0
C631 C 0.53707 0.38678 0.73506 0.0
C632 C 0.58582 0.34365 0.8174 0.0
C633 C 0.59632 0.34695 0.84823 0.0
C634 C 0.61872 0.32937 0.84783 0.0
C635 C 0.60842 0.32605 0.81739 0.0
C636 C 0.57975 0.3542 0.83296 0.0
C637 C 0.62473 0.31901 0.8325 0.0
C638 C 0.47347 0.38804 0.76995 0.0
C639 C 0.5712 0.35113 0.80082 0.0
H640 H 0.36947 0.40116 0.64875 0.0
H641 H 0.38489 0.40477 0.703 0.0
H642 H 0.3566 0.41769 0.67642 0.0
H643 H 0.43982 0.35693 0.67415 0.0
H644 H 0.632 0.32379 0.85945 0.0
H645 H 0.61381 0.31773 0.80562 0.0
H646 H 0.56297 0.36799 0.83316 0.0
H647 H 0.64232 0.30557 0.83231 0.0
Eu648 Eu 0.04929 0.85951 0.73534 0.0
C649 C 0.87833 0.84773 0.75653 0.0
N650 N 0.89985 0.86498 0.75617 0.0
C651 C 0.84895 0.88417 0.74439 0.0
C652 C 0.84111 0.84809 0.75061 0.0
C653 C 0.88557 0.88316 0.75057 0.0
C654 C 0.82667 0.86655 0.74434 0.0
C655 C 0.87126 0.8118 0.76426 0.0
C656 C 0.8934 0.82966 0.76311 0.0
C657 C 0.8343 0.8121 0.75822 0.0
C658 C 0.81933 0.83016 0.75136 0.0
Eu659 Eu 0.96019 0.86142 0.76791 0.0
N660 N 0.92955 0.82962 0.76856 0.0
C661 C 0.88672 0.79427 0.7718 0.0
C662 C 0.9438 0.81313 0.77696 0.0
C663 C 0.92297 0.79505 0.77842 0.0
H664 H 0.90196 0.89704 0.75125 0.0
H665 H 0.93456 0.7819 0.78499 0.0
H666 H 0.10986 0.82532 0.75182 0.0
H667 H 0.07059 0.93957 0.71798 0.0
H668 H 0.97045 0.81428 0.78322 0.0
H669 H 0.87051 0.78029 0.77306 0.0
H670 H 0.03714 0.90642 0.71923 0.0
H671 H 0.83776 0.8986 0.7399 0.0
H672 H 0.81692 0.7985 0.75896 0.0
H673 H 0.79067 0.83016 0.74688 0.0
H674 H 0.17405 0.82493 0.76331 0.0
H675 H 0.79819 0.86745 0.73969 0.0
H676 H 0.13374 0.94266 0.7307 0.0
N677 N 0.11002 0.85741 0.747 0.0
C678 C 0.13031 0.87507 0.74688 0.0
C679 C 0.16199 0.83916 0.75886 0.0
C680 C 0.16744 0.87543 0.75294 0.0
C681 C 0.12542 0.83949 0.75256 0.0
C682 C 0.18305 0.85721 0.75913 0.0
N683 N 0.07839 0.89192 0.73435 0.0
C684 C 0.06338 0.9081 0.72579 0.0
C685 C 0.13495 0.91114 0.73943 0.0
C686 C 0.1141 0.89279 0.74033 0.0
C687 C 0.11856 0.92831 0.73175 0.0
C688 C 0.08283 0.92668 0.72465 0.0
H689 H 0.21149 0.85686 0.76388 0.0
H690 H 0.21658 0.89433 0.7569 0.0
H691 H 0.18818 0.92557 0.7451 0.0
O692 O 0.04976 0.86398 0.70685 0.0
O693 O 0.05691 0.87583 0.76106 0.0
O694 O 0.99889 0.88885 0.76823 0.0
O695 O 0.08779 0.84265 0.7195 0.0
O696 O 0.99537 0.87514 0.72693 0.0
O697 O 0.96919 0.88954 0.7513 0.0
O698 O 0.9627 0.85729 0.79608 0.0
O699 O 0.95283 0.84371 0.74266 0.0
O700 O 0.0115 0.83194 0.73601 0.0
O701 O 0.91812 0.87484 0.78446 0.0
O702 O 0.01277 0.84484 0.77683 0.0
O703 O 0.04167 0.83175 0.75252 0.0
C704 C 0.03541 0.88846 0.76968 0.0
C705 C 0.0955 0.84521 0.68875 0.0
C706 C 0.10443 0.84736 0.65754 0.0
C707 C 0.13418 0.83346 0.65899 0.0
C708 C 0.12513 0.83113 0.68954 0.0
C709 C 0.14429 0.82541 0.67481 0.0
C710 C 0.08522 0.85355 0.67257 0.0
C711 C 0.97545 0.88933 0.73463 0.0
C712 C 0.07726 0.85107 0.70516 0.0
C713 C 0.18797 0.89379 0.75238 0.0
C714 C 0.17176 0.9116 0.74567 0.0
C715 C 0.97528 0.83186 0.73369 0.0
C716 C 0.92707 0.87966 0.81449 0.0
C717 C 0.91512 0.88031 0.84542 0.0
C718 C 0.90497 0.90098 0.84407 0.0
C719 C 0.91699 0.90043 0.81352 0.0
C720 C 0.92642 0.86964 0.8306 0.0
C721 C 0.90605 0.91097 0.82825 0.0
C722 C 0.03577 0.83204 0.76921 0.0
C723 C 0.932 0.86754 0.79864 0.0
H724 H 0.1498 0.82876 0.64774 0.0
H725 H 0.13394 0.82452 0.70165 0.0
H726 H 0.16718 0.81466 0.67566 0.0
H727 H 0.06251 0.86442 0.67166 0.0
H728 H 0.89534 0.90927 0.85528 0.0
H729 H 0.91633 0.90836 0.80129 0.0
H730 H 0.93283 0.85345 0.83146 0.0
H731 H 0.89744 0.92681 0.82733 0.0
Eu732 Eu 0.4561 0.63831 0.2342 0.0
C733 C 0.63005 0.65367 0.25715 0.0
N734 N 0.60944 0.63614 0.25773 0.0
C735 C 0.66284 0.61669 0.24864 0.0
C736 C 0.66763 0.65341 0.25158 0.0
C737 C 0.62601 0.61764 0.2545 0.0
C738 C 0.68359 0.63469 0.2469 0.0
C739 C 0.63615 0.68979 0.26408 0.0
C740 C 0.61457 0.67167 0.26338 0.0
C741 C 0.67292 0.68977 0.25778 0.0
C742 C 0.68861 0.67163 0.25154 0.0
Eu743 Eu 0.547 0.63964 0.26785 0.0
N744 N 0.57912 0.67123 0.26965 0.0
C745 C 0.62058 0.70723 0.27164 0.0
C746 C 0.5646 0.68783 0.27792 0.0
C747 C 0.58482 0.70617 0.27879 0.0
H748 H 0.61076 0.60347 0.2564 0.0
H749 H 0.5729 0.71942 0.28504 0.0
H750 H 0.39602 0.67373 0.24874 0.0
H751 H 0.42292 0.55983 0.21378 0.0
H752 H 0.53714 0.68693 0.28356 0.0
H753 H 0.63631 0.72141 0.27245 0.0
H754 H 0.45792 0.59226 0.2136 0.0
H755 H 0.67534 0.60203 0.24569 0.0
H756 H 0.68982 0.70357 0.25813 0.0
H757 H 0.71739 0.67171 0.24721 0.0
H758 H 0.3341 0.67527 0.26259 0.0
H759 H 0.71232 0.63388 0.24257 0.0
H760 H 0.36379 0.55703 0.23006 0.0
N761 N 0.3954 0.64146 0.24598 0.0
C762 C 0.37434 0.62411 0.24673 0.0
C763 C 0.34531 0.66071 0.25844 0.0
C764 C 0.33832 0.62427 0.25412 0.0
C765 C 0.38078 0.65977 0.25094 0.0
C766 C 0.32421 0.64281 0.2603 0.0
N767 N 0.42213 0.60704 0.23155 0.0
C768 C 0.4336 0.59094 0.22169 0.0
C769 C 0.36633 0.5883 0.23927 0.0
C770 C 0.38821 0.60635 0.2394 0.0
C771 C 0.37976 0.57116 0.23049 0.0
C772 C 0.41319 0.57264 0.22135 0.0
H773 H 0.29664 0.64359 0.26602 0.0
H774 H 0.28963 0.60589 0.26045 0.0
H775 H 0.3142 0.57437 0.24746 0.0
O776 O 0.44469 0.63241 0.20689 0.0
O777 O 0.44907 0.62316 0.2603 0.0
O778 O 0.50868 0.61175 0.26598 0.0
O779 O 0.43145 0.66224 0.21801 0.0
O780 O 0.49893 0.61365 0.22943 0.0
O781 O 0.55424 0.61865 0.24493 0.0
O782 O 0.54707 0.64465 0.29635 0.0
O783 O 0.53946 0.66673 0.24988 0.0
O784 O 0.51461 0.64938 0.22722 0.0
O785 O 0.57896 0.62011 0.28442 0.0
O786 O 0.48999 0.65124 0.27551 0.0
O787 O 0.4629 0.66632 0.25181 0.0
C788 C 0.47233 0.611 0.26852 0.0
C789 C 0.41683 0.65755 0.18752 0.0
C790 C 0.40709 0.65289 0.1566 0.0
C791 C 0.38749 0.67145 0.15616 0.0
C792 C 0.39729 0.67613 0.1866 0.0
C793 C 0.38259 0.68293 0.17104 0.0
C794 C 0.42159 0.64579 0.17238 0.0
C795 C 0.53389 0.60939 0.23318 0.0
C796 C 0.43105 0.65058 0.20441 0.0
C797 C 0.31721 0.6061 0.2547 0.0
C798 C 0.33121 0.58814 0.24732 0.0
C799 C 0.53107 0.66572 0.23351 0.0
C800 C 0.58546 0.62207 0.31504 0.0
C801 C 0.59729 0.62517 0.34579 0.0
C802 C 0.61924 0.60743 0.34513 0.0
C803 C 0.60772 0.60431 0.31483 0.0
C804 C 0.58007 0.63256 0.33072 0.0
C805 C 0.62438 0.59708 0.32977 0.0
C806 C 0.47146 0.66637 0.26838 0.0
C807 C 0.57025 0.6295 0.29849 0.0
H808 H 0.37576 0.67702 0.1442 0.0
H809 H 0.39297 0.68536 0.19797 0.0
H810 H 0.36738 0.69721 0.17051 0.0
H811 H 0.43632 0.63132 0.17283 0.0
H812 H 0.63268 0.60165 0.3566 0.0
H813 H 0.61268 0.59595 0.30304 0.0
H814 H 0.56337 0.64637 0.33115 0.0
H815 H 0.64157 0.58349 0.3294 0.0
H816 H 0.12179 0.9789 0.38425 0.0
H817 H 0.10054 0.00626 0.36588 0.0
H818 H 0.18428 0.99073 0.32825 0.0
H819 H 0.2095 0.96508 0.34766 0.0
H820 H 0.17863 0.02926 0.32859 0.0
H821 H 0.0856 0.97602 0.32526 0.0
H822 H 0.04065 0.95075 0.33681 0.0
H823 H 0.97917 0.99901 0.36122 0.0
H824 H 0.02393 0.02453 0.34995 0.0
H825 H 0.06997 0.07738 0.26066 0.0
H826 H 0.09943 0.05143 0.27865 0.0
H827 H 0.05631 0.08095 0.32395 0.0
H828 H 0.02971 0.10819 0.3062 0.0
H829 H 0.04236 0.03501 0.31794 0.0
H830 H 0.13626 0.08801 0.32074 0.0
H831 H 0.18105 0.11294 0.30871 0.0
H832 H 0.24104 0.06421 0.28422 0.0
H833 H 0.19593 0.03899 0.29574 0.0
C834 C 0.13669 0.98148 0.37235 0.0
C835 C 0.16765 0.96945 0.36765 0.0
C836 C 0.1237 0.99695 0.36157 0.0
C837 C 0.13988 0.00016 0.34537 0.0
C838 C 0.17096 0.98842 0.34061 0.0
C839 C 0.18498 0.97342 0.35169 0.0
C840 C 0.12442 0.01589 0.33354 0.0
C841 C 0.14889 0.03025 0.32605 0.0
C842 C 0.08552 0.01746 0.33034 0.0
C843 C 0.05822 0.00215 0.33684 0.0
C844 C 0.06255 0.98122 0.33313 0.0
C845 C 0.0371 0.96686 0.33963 0.0
C846 C 0.00711 0.97327 0.34976 0.0
C847 C 0.0024 0.99406 0.35336 0.0
C848 C 0.02774 0.00848 0.3469 0.0
C849 C 0.06814 0.07897 0.27446 0.0
C850 C 0.04908 0.09552 0.282 0.0
C851 C 0.08444 0.06388 0.28469 0.0
C852 C 0.08051 0.06459 0.30256 0.0
C853 C 0.06006 0.08045 0.31014 0.0
C854 C 0.04489 0.09595 0.29997 0.0
C855 C 0.0965 0.04826 0.31332 0.0
C856 C 0.0721 0.03379 0.32045 0.0
C857 C 0.13538 0.04647 0.31599 0.0
C858 C 0.1623 0.06163 0.30888 0.0
C859 C 0.1586 0.08262 0.31256 0.0
C860 C 0.18415 0.09681 0.30588 0.0
C861 C 0.21381 0.09017 0.29567 0.0
C862 C 0.21798 0.06933 0.2921 0.0
C863 C 0.19239 0.05509 0.29868 0.0
H864 H 0.2336 0.10117 0.29054 0.0
H865 H 0.98748 0.96212 0.35481 0.0
H866 H 0.33361 0.51062 0.88425 0.0
H867 H 0.36315 0.48285 0.86801 0.0
H868 H 0.37279 0.52247 0.82384 0.0
H869 H 0.34498 0.5504 0.84001 0.0
H870 H 0.33809 0.48484 0.81695 0.0
H871 H 0.44746 0.51166 0.84476 0.0
H872 H 0.48643 0.52208 0.86936 0.0
H873 H 0.48373 0.46052 0.8889 0.0
H874 H 0.44411 0.44981 0.86455 0.0
H875 H 0.44829 0.42586 0.75999 0.0
H876 H 0.42245 0.45273 0.7783 0.0
H877 H 0.43494 0.41359 0.82267 0.0
H878 H 0.46146 0.38691 0.80453 0.0
H879 H 0.4576 0.45019 0.83051 0.0
H880 H 0.34227 0.42436 0.80566 0.0
H881 H 0.29778 0.41422 0.78297 0.0
H882 H 0.31115 0.47294 0.75869 0.0
H883 H 0.35477 0.48363 0.78159 0.0
C884 C 0.34259 0.51354 0.87118 0.0
C885 C 0.33632 0.53271 0.86338 0.0
C886 C 0.35936 0.49763 0.86192 0.0
C887 C 0.36996 0.50063 0.84471 0.0
C888 C 0.36452 0.51982 0.83706 0.0
C889 C 0.34827 0.53572 0.84632 0.0
C890 C 0.38495 0.48362 0.83424 0.0
C891 C 0.36443 0.4774 0.81982 0.0
C892 C 0.41876 0.47357 0.83826 0.0
C893 C 0.44236 0.48 0.85296 0.0
C894 C 0.45477 0.50039 0.85441 0.0
C895 C 0.47706 0.50634 0.86829 0.0
C896 C 0.48743 0.49199 0.88073 0.0
C897 C 0.47558 0.47164 0.87928 0.0
C898 C 0.4532 0.46562 0.86545 0.0
C899 C 0.44517 0.42292 0.77362 0.0
C900 C 0.45662 0.40419 0.78078 0.0
C901 C 0.43026 0.43826 0.78408 0.0
C902 C 0.42612 0.43509 0.80187 0.0
C903 C 0.43772 0.41642 0.80901 0.0
C904 C 0.45284 0.40115 0.79859 0.0
C905 C 0.41073 0.45141 0.81311 0.0
C906 C 0.43116 0.45754 0.82768 0.0
C907 C 0.37666 0.46134 0.80934 0.0
C908 C 0.35201 0.45467 0.79517 0.0
C909 C 0.3359 0.43502 0.7954 0.0
C910 C 0.31067 0.42924 0.78258 0.0
C911 C 0.30195 0.44284 0.76929 0.0
C912 C 0.31806 0.46237 0.76893 0.0
C913 C 0.34279 0.46836 0.78189 0.0
H914 H 0.28256 0.43828 0.75932 0.0
H915 H 0.50474 0.49662 0.89145 0.0
H916 H 0.67458 0.50392 0.61723 0.0
H917 H 0.64853 0.4777 0.63622 0.0
H918 H 0.64049 0.52193 0.67711 0.0
H919 H 0.66486 0.54853 0.65806 0.0
H920 H 0.67175 0.48449 0.68716 0.0
H921 H 0.56446 0.50933 0.65718 0.0
H922 H 0.52829 0.51864 0.63139 0.0
H923 H 0.53211 0.45627 0.61403 0.0
H924 H 0.56893 0.44665 0.63958 0.0
H925 H 0.56228 0.42475 0.74456 0.0
H926 H 0.58813 0.4516 0.72616 0.0
H927 H 0.57407 0.41253 0.68191 0.0
H928 H 0.54723 0.38584 0.70024 0.0
H929 H 0.55342 0.4483 0.67341 0.0
H930 H 0.66497 0.42379 0.70098 0.0
H931 H 0.712 0.41541 0.723 0.0
H932 H 0.70427 0.47635 0.7434 0.0
H933 H 0.65749 0.48515 0.72134 0.0
C934 C 0.66684 0.50823 0.63018 0.0
C935 C 0.67161 0.5285 0.63599 0.0
C936 C 0.65212 0.49315 0.64104 0.0
C937 C 0.64218 0.49795 0.65799 0.0
C938 C 0.64791 0.51794 0.66404 0.0
C939 C 0.66216 0.5331 0.65313 0.0
C940 C 0.62598 0.48208 0.66946 0.0
C941 C 0.64555 0.47677 0.68435 0.0
C942 C 0.5924 0.47168 0.66545 0.0
C943 C 0.56975 0.47731 0.65021 0.0
C944 C 0.55784 0.49763 0.64779 0.0
C945 C 0.5372 0.50296 0.63323 0.0
C946 C 0.52798 0.48806 0.62106 0.0
C947 C 0.53931 0.46779 0.62346 0.0
C948 C 0.56005 0.46239 0.63799 0.0
C949 C 0.56503 0.42179 0.73095 0.0
C950 C 0.55304 0.40306 0.72391 0.0
C951 C 0.57999 0.43716 0.72041 0.0
C952 C 0.58381 0.43404 0.70262 0.0
C953 C 0.57157 0.41537 0.69558 0.0
C954 C 0.55624 0.40008 0.70609 0.0
C955 C 0.59939 0.45043 0.69128 0.0
C956 C 0.57958 0.45596 0.67636 0.0
C957 C 0.633 0.46099 0.69519 0.0
C958 C 0.65757 0.45505 0.70963 0.0
C959 C 0.67287 0.43528 0.71034 0.0
C960 C 0.69973 0.43053 0.72273 0.0
C961 C 0.71128 0.44538 0.73453 0.0
C962 C 0.69546 0.4649 0.73419 0.0
C963 C 0.66885 0.46979 0.72174 0.0
H964 H 0.73243 0.44173 0.74397 0.0
H965 H 0.512 0.49222 0.60978 0.0
H966 H 0.87745 0.97227 0.12221 0.0
H967 H 0.90573 0.0009 0.13764 0.0
H968 H 0.81433 8e-05 0.17384 0.0
H969 H 0.78422 0.97294 0.15762 0.0
H970 H 0.83007 0.03664 0.16797 0.0
H971 H 0.90543 0.9779 0.18103 0.0
H972 H 0.94572 0.94828 0.17472 0.0
H973 H 0.02651 0.98813 0.15106 0.0
H974 H 0.98641 0.01796 0.15697 0.0
H975 H 0.90506 0.09027 0.23672 0.0
H976 H 0.882 0.0636 0.21821 0.0
H977 H 0.9777 0.07191 0.18511 0.0
H978 H 0.00308 0.09734 0.20527 0.0
H979 H 0.96208 0.03329 0.18708 0.0
H980 H 0.88323 0.09275 0.17682 0.0
H981 H 0.84128 0.12073 0.18571 0.0
H982 H 0.76496 0.07694 0.20754 0.0
H983 H 0.80657 0.04873 0.19893 0.0
C984 C 0.86291 0.97844 0.13323 0.0
C985 C 0.82864 0.97 0.13874 0.0
C986 C 0.87952 0.99462 0.14225 0.0
C987 C 0.86273 0.00236 0.1572 0.0
C988 C 0.82811 0.99432 0.16244 0.0
C989 C 0.81111 0.97853 0.15324 0.0
C990 C 0.88071 0.01892 0.16745 0.0
C991 C 0.85888 0.03578 0.17224 0.0
C992 C 0.91854 0.01808 0.17281 0.0
C993 C 0.94268 0.00014 0.16925 0.0
C994 C 0.93163 0.98033 0.17435 0.0
C995 C 0.95446 0.96351 0.17086 0.0
C996 C 0.98859 0.96632 0.16244 0.0
C997 C 1.00002 0.98597 0.15754 0.0
C998 C 0.97725 0.00284 0.16095 0.0
C999 C 0.92146 0.0864 0.22575 0.0
C1000 C 0.95585 0.09598 0.22264 0.0
C1001 C 0.90793 0.07123 0.21487 0.0
C1002 C 0.92729 0.06617 0.19983 0.0
C1003 C 0.96196 0.07565 0.19656 0.0
C1004 C 0.97637 0.09025 0.20802 0.0
C1005 C 0.91124 0.05083 0.18775 0.0
C1006 C 0.93343 0.03423 0.18262 0.0
C1007 C 0.87341 0.05163 0.18238 0.0
C1008 C 0.84807 0.06864 0.18723 0.0
C1009 C 0.85753 0.0891 0.18353 0.0
C1010 C 0.83381 0.105 0.18854 0.0
C1011 C 0.80049 0.10061 0.19719 0.0
C1012 C 0.79075 0.08032 0.20082 0.0
C1013 C 0.81433 0.06437 0.19584 0.0
H1014 H 0.78221 0.11294 0.20107 0.0
H1015 H 0.00624 0.95328 0.15976 0.0
H1016 H 0.78693 0.01294 0.63819 0.0
H1017 H 0.81304 0.98395 0.65433 0.0
H1018 H 0.9151 0.01819 0.66222 0.0
H1019 H 0.8892 0.04687 0.64569 0.0
H1020 H 0.93086 0.97985 0.65528 0.0
H1021 H 0.84659 0.01433 0.69323 0.0
H1022 H 0.78681 0.02884 0.70306 0.0
H1023 H 0.73551 0.96936 0.70031 0.0
H1024 H 0.79484 0.95455 0.69016 0.0
H1025 H 0.99291 0.92981 0.73326 0.0
H1026 H 0.96729 0.95547 0.71339 0.0
H1027 H 0.89038 0.91034 0.69349 0.0
H1028 H 0.91817 0.88422 0.71237 0.0
H1029 H 0.86148 0.95247 0.70559 0.0
H1030 H 0.94877 0.91827 0.66852 0.0
H1031 H 0.0096 0.9048 0.65903 0.0
H1032 H 0.05686 0.9653 0.66119 0.0
H1033 H 0.99649 0.97908 0.67107 0.0
C1034 C 0.81506 0.01404 0.64326 0.0
C1035 C 0.83627 0.03189 0.64084 0.0
C1036 C 0.82986 0.99762 0.65253 0.0
C1037 C 0.86582 0.99903 0.65971 0.0
C1038 C 0.88731 0.01677 0.65682 0.0
C1039 C 0.8726 0.0331 0.64745 0.0
C1040 C 0.88084 0.98228 0.67054 0.0
C1041 C 0.91584 0.97401 0.66638 0.0
C1042 C 0.86092 0.97442 0.68486 0.0
C1043 C 0.82507 0.98337 0.69074 0.0
C1044 C 0.82247 0.00438 0.69454 0.0
C1045 C 0.78867 0.01266 0.7002 0.0
C1046 C 0.75735 4e-05 0.70226 0.0
C1047 C 0.75976 0.97912 0.69867 0.0
C1048 C 0.79347 0.97078 0.69296 0.0
C1049 C 0.97083 0.92539 0.72449 0.0
C1050 C 0.95786 0.9051 0.72396 0.0
C1051 C 0.95627 0.93998 0.7132 0.0
C1052 C 0.9274 0.93463 0.70187 0.0
C1053 C 0.9131 0.91459 0.70198 0.0
C1054 C 0.92881 0.89978 0.71273 0.0
C1055 C 0.91136 0.95021 0.69031 0.0
C1056 C 0.87628 0.95828 0.69441 0.0
C1057 C 0.93141 0.95805 0.67608 0.0
C1058 C 0.96819 0.94965 0.67083 0.0
C1059 C 0.97228 0.92865 0.6673 0.0
C1060 C 0.00666 0.92097 0.66176 0.0
C1061 C 0.03712 0.93417 0.65957 0.0
C1062 C 0.03328 0.95508 0.66295 0.0
C1063 C 0.99899 0.96282 0.66853 0.0
H1064 H 0.06364 0.92821 0.65519 0.0
H1065 H 0.73124 0.00647 0.70669 0.0
H1066 H 0.61552 0.45829 0.13573 0.0
H1067 H 0.58956 0.48704 0.15198 0.0
H1068 H 0.70115 0.51001 0.16112 0.0
H1069 H 0.727 0.48066 0.1456 0.0
H1070 H 0.66496 0.50961 0.18957 0.0
H1071 H 0.63591 0.53394 0.13275 0.0
H1072 H 0.60933 0.53247 0.10353 0.0
H1073 H 0.49959 0.52358 0.12465 0.0
H1074 H 0.52557 0.52473 0.15398 0.0
H1075 H 0.60395 0.60892 0.21958 0.0
H1076 H 0.63159 0.58191 0.20173 0.0
H1077 H 0.53031 0.54629 0.20632 0.0
H1078 H 0.50393 0.57237 0.22525 0.0
H1079 H 0.56116 0.55442 0.17061 0.0
H1080 H 0.59016 0.52874 0.2269 0.0
H1081 H 0.61556 0.53114 0.25625 0.0
H1082 H 0.72504 0.54292 0.23581 0.0
H1083 H 0.70005 0.54104 0.20629 0.0
C1084 C 0.63429 0.46968 0.14107 0.0
C1085 C 0.67309 0.46742 0.13956 0.0
C1086 C 0.61953 0.48614 0.15024 0.0
C1087 C 0.64339 0.50083 0.15763 0.0
C1088 C 0.68221 0.49885 0.15558 0.0
C1089 C 0.69696 0.48218 0.14672 0.0
C1090 C 0.62818 0.51738 0.16858 0.0
C1091 C 0.64275 0.51963 0.18524 0.0
C1092 C 0.59838 0.53009 0.16319 0.0
C1093 C 0.58276 0.52923 0.14555 0.0
C1094 C 0.60616 0.53149 0.13115 0.0
C1095 C 0.59119 0.53076 0.11457 0.0
C1096 C 0.55281 0.52789 0.11223 0.0
C1097 C 0.52931 0.52578 0.12647 0.0
C1098 C 0.54414 0.52649 0.14308 0.0
C1099 C 0.58796 0.59515 0.21701 0.0
C1100 C 0.55148 0.59287 0.22336 0.0
C1101 C 0.60355 0.5799 0.20673 0.0
C1102 C 0.5826 0.56239 0.20257 0.0
C1103 C 0.54649 0.55993 0.20918 0.0
C1104 C 0.53129 0.57492 0.21976 0.0
C1105 C 0.59831 0.54657 0.19128 0.0
C1106 C 0.58367 0.54445 0.1747 0.0
C1107 C 0.62799 0.53399 0.1967 0.0
C1108 C 0.64313 0.53507 0.2144 0.0
C1109 C 0.61955 0.53212 0.22866 0.0
C1110 C 0.63389 0.53333 0.24533 0.0
C1111 C 0.67187 0.53727 0.2479 0.0
C1112 C 0.6956 0.53994 0.2338 0.0
C1113 C 0.68136 0.53881 0.2171 0.0
H1114 H 0.68294 0.53818 0.26082 0.0
H1115 H 0.54127 0.52734 0.09939 0.0
H1116 H 0.27654 0.48178 0.35731 0.0
H1117 H 0.30334 0.51005 0.34054 0.0
H1118 H 0.41431 0.48879 0.35288 0.0
H1119 H 0.38735 0.46121 0.37038 0.0
H1120 H 0.41463 0.52754 0.35378 0.0
H1121 H 0.36891 0.47893 0.31324 0.0
H1122 H 0.32201 0.45623 0.2999 0.0
H1123 H 0.25411 0.50828 0.28747 0.0
H1124 H 0.30034 0.53129 0.301 0.0
H1125 H 0.50992 0.58116 0.28636 0.0
H1126 H 0.4835 0.55496 0.30534 0.0
H1127 H 0.37317 0.57933 0.2968 0.0
H1128 H 0.39922 0.60543 0.27785 0.0
H1129 H 0.37232 0.53893 0.29387 0.0
H1130 H 0.42544 0.58697 0.33593 0.0
H1131 H 0.4746 0.60614 0.35147 0.0
H1132 H 0.53471 0.55029 0.36022 0.0
H1133 H 0.48636 0.53089 0.34461 0.0
C1134 C 0.30664 0.48338 0.35654 0.0
C1135 C 0.33002 0.46943 0.36501 0.0
C1136 C 0.32194 0.49937 0.34686 0.0
C1137 C 0.36087 0.50127 0.34507 0.0
C1138 C 0.38421 0.48762 0.354 0.0
C1139 C 0.36888 0.47191 0.36399 0.0
C1140 C 0.37739 0.51737 0.33384 0.0
C1141 C 0.4057 0.52984 0.34059 0.0
C1142 C 0.36549 0.52056 0.31669 0.0
C1143 C 0.33794 0.50682 0.30826 0.0
C1144 C 0.34388 0.48553 0.30774 0.0
C1145 C 0.31742 0.4726 0.30015 0.0
C1146 C 0.28506 0.4808 0.29287 0.0
C1147 C 0.27917 0.50195 0.29313 0.0
C1148 C 0.3055 0.51494 0.30075 0.0
C1149 C 0.48003 0.58099 0.28854 0.0
C1150 C 0.45668 0.59532 0.28038 0.0
C1151 C 0.46499 0.56606 0.29951 0.0
C1152 C 0.42634 0.56526 0.30266 0.0
C1153 C 0.40306 0.57961 0.29459 0.0
C1154 C 0.41805 0.59452 0.28366 0.0
C1155 C 0.40978 0.5491 0.31383 0.0
C1156 C 0.3813 0.53662 0.30705 0.0
C1157 C 0.42233 0.54545 0.33081 0.0
C1158 C 0.4525 0.55754 0.33897 0.0
C1159 C 0.44945 0.57886 0.34094 0.0
C1160 C 0.4771 0.58974 0.34982 0.0
C1161 C 0.50771 0.57937 0.35678 0.0
C1162 C 0.511 0.55824 0.35478 0.0
C1163 C 0.48356 0.54733 0.34593 0.0
H1164 H 0.52896 0.58751 0.36382 0.0
H1165 H 0.2646 0.47077 0.28701 0.0
H1166 H 0.16422 0.04859 0.84114 0.0
H1167 H 0.13801 0.02002 0.82523 0.0
H1168 H 0.15243 0.98064 0.86929 0.0
H1169 H 0.18121 0.00912 0.88512 0.0
H1170 H 0.17287 0.96133 0.84038 0.0
H1171 H 0.06447 0.99914 0.85782 0.0
H1172 H 0.02709 0.03049 0.86157 0.0
H1173 H 0.0265 0.04005 0.80696 0.0
H1174 H 0.06416 0.00886 0.80289 0.0
H1175 H 0.05953 0.88309 0.80227 0.0
H1176 H 0.08564 0.90925 0.82155 0.0
H1177 H 0.07709 0.95423 0.78098 0.0
H1178 H 0.04991 0.92814 0.76196 0.0
H1179 H 0.05151 0.96935 0.81035 0.0
H1180 H 0.16117 0.93273 0.7927 0.0
H1181 H 0.20075 0.90233 0.78851 0.0
H1182 H 0.20043 0.89097 0.84285 0.0
H1183 H 0.16048 0.92121 0.84739 0.0
C1184 C 0.16238 0.03383 0.84747 0.0
C1185 C 0.17527 0.03118 0.86441 0.0
C1186 C 0.1468 0.01752 0.83839 0.0
C1187 C 0.14264 0.99822 0.84612 0.0
C1188 C 0.1552 0.99543 0.86307 0.0
C1189 C 0.17131 0.01178 0.87216 0.0
C1190 C 0.1256 0.98106 0.83624 0.0
C1191 C 0.14599 0.96291 0.83409 0.0
C1192 C 0.09091 0.98328 0.8277 0.0
C1193 C 0.06724 0.0017 0.83006 0.0
C1194 C 0.05641 0.00795 0.84661 0.0
C1195 C 0.03518 0.02569 0.8488 0.0
C1196 C 0.02446 0.03726 0.83452 0.0
C1197 C 0.03479 0.03106 0.81801 0.0
C1198 C 0.05598 0.01332 0.81576 0.0
C1199 C 0.0636 0.89857 0.79754 0.0
C1200 C 0.05317 0.90377 0.78075 0.0
C1201 C 0.07853 0.91346 0.80849 0.0
C1202 C 0.08366 0.93369 0.80268 0.0
C1203 C 0.07334 0.93876 0.78576 0.0
C1204 C 0.05807 0.9239 0.77489 0.0
C1205 C 0.09899 0.94971 0.81429 0.0
C1206 C 0.07821 0.96766 0.81678 0.0
C1207 C 0.13335 0.94728 0.82308 0.0
C1208 C 0.1575 0.92914 0.82037 0.0
C1209 C 0.16928 0.92367 0.80375 0.0
C1210 C 0.19181 0.90647 0.80131 0.0
C1211 C 0.20297 0.89468 0.81538 0.0
C1212 C 0.19171 0.9001 0.83195 0.0
C1213 C 0.16916 0.91728 0.83447 0.0
H1214 H 0.22043 0.88138 0.81345 0.0
H1215 H 0.00812 0.05103 0.83624 0.0
H1216 H 0.16407 0.1509 0.99724 0.0
H1217 H 0.14109 0.15534 0.02671 0.0
H1218 H 0.19509 0.09902 0.04164 0.0
H1219 H 0.21699 0.0943 0.01211 0.0
H1220 H 0.12418 0.09885 0.05085 0.0
H1221 H 0.22658 0.14745 0.05533 0.0
H1222 H 0.26216 0.17773 0.04552 0.0
H1223 H 0.16527 0.21543 0.0524 0.0
H1224 H 0.12902 0.18532 0.06212 0.0
H1225 H 0.11525 0.09496 0.1398 0.0
H1226 H 0.12472 0.09589 0.1093 0.0
H1227 H 0.08752 0.15884 0.10781 0.0
H1228 H 0.08402 0.15862 0.13938 0.0
H1229 H 0.14121 0.15844 0.08948 0.0
H1230 H 0.03871 0.10876 0.08622 0.0
H1231 H 0.00524 0.07766 0.09596 0.0
H1232 H 0.1028 0.04141 0.08613 0.0
H1233 H 0.13664 0.0722 0.07621 0.0
C1234 C 0.17153 0.13972 0.00694 0.0
C1235 C 0.19199 0.12219 0.00248 0.0
C1236 C 0.15849 0.14227 0.02376 0.0
C1237 C 0.16634 0.1275 0.0364 0.0
C1238 C 0.18843 0.11052 0.03207 0.0
C1239 C 0.20096 0.10783 0.01525 0.0
C1240 C 0.14913 0.12865 0.05374 0.0
C1241 C 0.12798 0.11185 0.05937 0.0
C1242 C 0.15286 0.14591 0.06456 0.0
C1243 C 0.17503 0.16412 0.05932 0.0
C1244 C 0.21285 0.16219 0.05471 0.0
C1245 C 0.23313 0.17932 0.04917 0.0
C1246 C 0.21596 0.19849 0.0483 0.0
C1247 C 0.17853 0.20058 0.05308 0.0
C1248 C 0.15812 0.1835 0.05864 0.0
C1249 C 0.10808 0.10885 0.13291 0.0
C1250 C 0.09924 0.12671 0.14193 0.0
C1251 C 0.11277 0.10931 0.11519 0.0
C1252 C 0.10584 0.12725 0.10568 0.0
C1253 C 0.09319 0.14471 0.11463 0.0
C1254 C 0.09043 0.14454 0.13267 0.0
C1255 C 0.11648 0.12827 0.08702 0.0
C1256 C 0.13641 0.14555 0.08099 0.0
C1257 C 0.11146 0.11141 0.07568 0.0
C1258 C 0.09012 0.09277 0.08051 0.0
C1259 C 0.05286 0.09412 0.08604 0.0
C1260 C 0.03387 0.07655 0.0916 0.0
C1261 C 0.0519 0.05759 0.09169 0.0
C1262 C 0.0888 0.05608 0.08599 0.0
C1263 C 0.10779 0.07355 0.08028 0.0
H1264 H 0.03727 0.04405 0.09618 0.0
H1265 H 0.23166 0.21172 0.04394 0.0
H1266 H 0.27374 0.36015 0.50977 0.0
H1267 H 0.29487 0.35354 0.5391 0.0
H1268 H 0.38866 0.39425 0.53121 0.0
H1269 H 0.37018 0.39921 0.50165 0.0
H1270 H 0.41287 0.36413 0.54679 0.0
H1271 H 0.30512 0.40604 0.55534 0.0
H1272 H 0.23911 0.41652 0.55361 0.0
H1273 H 0.20598 0.36206 0.58073 0.0
H1274 H 0.27174 0.35106 0.58236 0.0
H1275 H 0.45071 0.39237 0.63414 0.0
H1276 H 0.44082 0.38679 0.60342 0.0
H1277 H 0.36185 0.33862 0.61506 0.0
H1278 H 0.37149 0.34447 0.64586 0.0
H1279 H 0.32988 0.36886 0.59755 0.0
H1280 H 0.44417 0.32992 0.58992 0.0
H1281 H 0.51186 0.32298 0.59118 0.0
H1282 H 0.53424 0.37823 0.56289 0.0
H1283 H 0.46679 0.38555 0.56156 0.0
C1284 C 0.29918 0.36747 0.51416 0.0
C1285 C 0.31994 0.38038 0.50317 0.0
C1286 C 0.31092 0.36393 0.5311 0.0
C1287 C 0.34318 0.3736 0.53756 0.0
C1288 C 0.3637 0.38655 0.52664 0.0
C1289 C 0.35259 0.38967 0.50968 0.0
C1290 C 0.35667 0.36991 0.55544 0.0
C1291 C 0.39468 0.36538 0.55789 0.0
C1292 C 0.33301 0.37112 0.57 0.0
C1293 C 0.29336 0.37757 0.56875 0.0
C1294 C 0.28374 0.39617 0.56076 0.0
C1295 C 0.24636 0.40223 0.55983 0.0
C1296 C 0.21836 0.38992 0.56699 0.0
C1297 C 0.22768 0.37154 0.57513 0.0
C1298 C 0.265 0.36538 0.57605 0.0
C1299 C 0.43275 0.37987 0.6301 0.0
C1300 C 0.41194 0.36879 0.64231 0.0
C1301 C 0.42698 0.37671 0.61251 0.0
C1302 C 0.40029 0.36238 0.60686 0.0
C1303 C 0.38247 0.34981 0.61909 0.0
C1304 C 0.38827 0.35298 0.6367 0.0
C1305 C 0.38608 0.36322 0.58887 0.0
C1306 C 0.3479 0.36735 0.58641 0.0
C1307 C 0.40982 0.36237 0.57435 0.0
C1308 C 0.45044 0.35835 0.57578 0.0
C1309 C 0.46356 0.34069 0.58415 0.0
C1310 C 0.50189 0.33666 0.58481 0.0
C1311 C 0.52734 0.35018 0.57716 0.0
C1312 C 0.51453 0.36777 0.56883 0.0
C1313 C 0.47626 0.37185 0.56809 0.0
H1314 H 0.55697 0.34699 0.57765 0.0
H1315 H 0.18945 0.39465 0.56629 0.0
H1316 H 0.7251 0.39995 0.99375 0.0
H1317 H 0.70469 0.39645 0.96381 0.0
H1318 H 0.62563 0.34972 0.97922 0.0
H1319 H 0.64757 0.35255 0.00897 0.0
H1320 H 0.65533 0.33935 0.95058 0.0
H1321 H 0.60148 0.40243 0.97135 0.0
H1322 H 0.60255 0.43709 0.98394 0.0
H1323 H 0.67281 0.45828 0.94279 0.0
H1324 H 0.67251 0.42369 0.93006 0.0
H1325 H 0.55269 0.33569 0.87502 0.0
H1326 H 0.56445 0.34435 0.90514 0.0
H1327 H 0.64723 0.38875 0.88924 0.0
H1328 H 0.63462 0.38043 0.85908 0.0
H1329 H 0.615 0.40091 0.91812 0.0
H1330 H 0.66968 0.3383 0.89759 0.0
H1331 H 0.67151 0.30351 0.88533 0.0
H1332 H 0.60213 0.28123 0.92639 0.0
H1333 H 0.59937 0.31597 0.93875 0.0
C1334 C 0.70381 0.38873 0.99058 0.0
C1335 C 0.68788 0.37643 0.00346 0.0
C1336 C 0.69182 0.3869 0.97357 0.0
C1337 C 0.66289 0.37321 0.9693 0.0
C1338 C 0.64784 0.36047 0.98218 0.0
C1339 C 0.66038 0.36201 0.99912 0.0
C1340 C 0.64816 0.37206 0.95147 0.0
C1341 C 0.64589 0.35279 0.94361 0.0
C1342 C 0.63691 0.38966 0.94214 0.0
C1343 C 0.63718 0.41044 0.94983 0.0
C1344 C 0.61735 0.41445 0.96505 0.0
C1345 C 0.61779 0.43409 0.9722 0.0
C1346 C 0.63778 0.44987 0.96419 0.0
C1347 C 0.65735 0.44605 0.94899 0.0
C1348 C 0.65703 0.42644 0.9418 0.0
C1349 C 0.57201 0.348 0.87799 0.0
C1350 C 0.59263 0.35751 0.86485 0.0
C1351 C 0.57917 0.35272 0.89518 0.0
C1352 C 0.60762 0.3667 0.89945 0.0
C1353 C 0.62543 0.37776 0.88625 0.0
C1354 C 0.61801 0.37316 0.86903 0.0
C1355 C 0.62158 0.36816 0.91738 0.0
C1356 C 0.62402 0.38747 0.92519 0.0
C1357 C 0.63312 0.35058 0.92669 0.0
C1358 C 0.63392 0.3298 0.91897 0.0
C1359 C 0.65445 0.32604 0.90389 0.0
C1360 C 0.65572 0.30631 0.89695 0.0
C1361 C 0.63686 0.29018 0.90504 0.0
C1362 C 0.61664 0.29375 0.9201 0.0
C1363 C 0.61519 0.31345 0.92707 0.0
H1364 H 0.638 0.27491 0.89968 0.0
H1365 H 0.63805 0.46506 0.96973 0.0
H1366 H 0.77242 0.13447 0.4955 0.0
H1367 H 0.79148 0.13837 0.46534 0.0
H1368 H 0.89953 0.11307 0.47755 0.0
H1369 H 0.88144 0.11014 0.50757 0.0
H1370 H 0.90781 0.14383 0.45712 0.0
H1371 H 0.82473 0.0843 0.4581 0.0
H1372 H 0.76485 0.06616 0.46256 0.0
H1373 H 0.71036 0.10771 0.42792 0.0
H1374 H 0.76977 0.12621 0.42342 0.0
H1375 H 0.96452 0.13793 0.36933 0.0
H1376 H 0.95155 0.12701 0.39904 0.0
H1377 H 0.83427 0.13957 0.39097 0.0
H1378 H 0.84708 0.14861 0.36132 0.0
H1379 H 0.83446 0.1117 0.41037 0.0
H1380 H 0.91339 0.17376 0.41085 0.0
H1381 H 0.97079 0.19457 0.40789 0.0
H1382 H 0.02988 0.15263 0.44051 0.0
H1383 H 0.97309 0.1314 0.44341 0.0
C1384 C 0.80037 0.13002 0.49173 0.0
C1385 C 0.82523 0.12167 0.50383 0.0
C1386 C 0.81108 0.13201 0.47449 0.0
C1387 C 0.84666 0.12553 0.4691 0.0
C1388 C 0.87182 0.11796 0.48133 0.0
C1389 C 0.86132 0.11614 0.49848 0.0
C1390 C 0.85834 0.12665 0.45082 0.0
C1391 C 0.8919 0.13673 0.44683 0.0
C1392 C 0.83738 0.11762 0.43743 0.0
C1393 C 0.80161 0.10671 0.44053 0.0
C1394 C 0.7999 0.08966 0.45156 0.0
C1395 C 0.76605 0.0793 0.45407 0.0
C1396 C 0.73381 0.0858 0.44555 0.0
C1397 C 0.73532 0.10269 0.43453 0.0
C1398 C 0.76906 0.11311 0.43199 0.0
C1399 C 0.93593 0.13757 0.37388 0.0
C1400 C 0.90669 0.14407 0.36317 0.0
C1401 C 0.92854 0.13177 0.39096 0.0
C1402 C 0.892 0.13312 0.39765 0.0
C1403 C 0.86277 0.1384 0.38641 0.0
C1404 C 0.87001 0.14361 0.36938 0.0
C1405 C 0.88328 0.12991 0.41627 0.0
C1406 C 0.85045 0.11905 0.42048 0.0
C1407 C 0.90456 0.1387 0.42983 0.0
C1408 C 0.93918 0.1508 0.42706 0.0
C1409 C 0.93879 0.16881 0.41715 0.0
C1410 C 0.9712 0.18071 0.41553 0.0
C1411 C 0.00401 0.17487 0.42393 0.0
C1412 C 0.00454 0.15708 0.43393 0.0
C1413 C 0.9723 0.14508 0.43551 0.0
H1414 H 0.02897 0.18418 0.42276 0.0
H1415 H 0.70767 0.07772 0.44747 0.0
H1416 H 0.87654 0.87894 0.00863 0.0
H1417 H 0.89876 0.87297 0.97932 0.0
H1418 H 0.78491 0.8736 0.961 0.0
H1419 H 0.76264 0.87877 0.99058 0.0
H1420 H 0.82261 0.84401 0.94582 0.0
H1421 H 0.84519 0.91571 0.95613 0.0
H1422 H 0.87029 0.94533 0.9721 0.0
H1423 H 0.98176 0.92247 0.96574 0.0
H1424 H 0.95728 0.89258 0.94989 0.0
H1425 H 0.85037 0.86567 0.85802 0.0
H1426 H 0.83546 0.86049 0.88816 0.0
H1427 H 0.95224 0.86714 0.90117 0.0
H1428 H 0.96652 0.87391 0.87081 0.0
H1429 H 0.9169 0.89075 0.92013 0.0
H1430 H 0.89298 0.81885 0.90873 0.0
H1431 H 0.86594 0.78994 0.89245 0.0
H1432 H 0.75573 0.81396 0.90034 0.0
H1433 H 0.78211 0.84295 0.91668 0.0
C1434 C 0.85635 0.87765 0.99832 0.0
C1435 C 0.81797 0.87927 1.00174 0.0
C1436 C 0.86902 0.87439 0.98158 0.0
C1437 C 0.84358 0.87318 0.96788 0.0
C1438 C 0.80508 0.87447 0.97136 0.0
C1439 C 0.79235 0.8774 0.98819 0.0
C1440 C 0.85719 0.87058 0.94995 0.0
C1441 C 0.84306 0.8543 0.94014 0.0
C1442 C 0.88457 0.88369 0.94265 0.0
C1443 C 0.89937 0.90181 0.95196 0.0
C1444 C 0.87504 0.91694 0.95822 0.0
C1445 C 0.88915 0.93379 0.96724 0.0
C1446 C 0.92758 0.93575 0.96997 0.0
C1447 C 0.95199 0.92092 0.96363 0.0
C1448 C 0.93802 0.90404 0.95461 0.0
C1449 C 0.87298 0.86523 0.86726 0.0
C1450 C 0.90952 0.87005 0.86216 0.0
C1451 C 0.86453 0.86213 0.88459 0.0
C1452 C 0.89266 0.86317 0.89718 0.0
C1453 C 0.92989 0.86627 0.89181 0.0
C1454 C 0.93821 0.86987 0.87444 0.0
C1455 C 0.88245 0.86402 0.91581 0.0
C1456 C 0.89703 0.88012 0.92581 0.0
C1457 C 0.85541 0.85077 0.92327 0.0
C1458 C 0.83953 0.83306 0.91385 0.0
C1459 C 0.86299 0.81794 0.90697 0.0
C1460 C 0.84778 0.80154 0.89776 0.0
C1461 C 0.80915 0.80013 0.89534 0.0
C1462 C 0.78563 0.81504 0.90225 0.0
C1463 C 0.80067 0.83139 0.91156 0.0
H1464 H 0.79745 0.78748 0.88813 0.0
H1465 H 0.93845 0.94879 0.97698 0.0
H1466 H 0.7388 0.64372 0.49097 0.0
H1467 H 0.71342 0.64605 0.46198 0.0
H1468 H 0.62113 0.6072 0.47658 0.0
H1469 H 0.64446 0.6059 0.50595 0.0
H1470 H 0.65635 0.59749 0.44382 0.0
H1471 H 0.60163 0.65319 0.47446 0.0
H1472 H 0.60022 0.68397 0.49275 0.0
H1473 H 0.66834 0.71636 0.45619 0.0
H1474 H 0.67073 0.68562 0.43782 0.0
H1475 H 0.54437 0.61901 0.37028 0.0
H1476 H 0.559 0.61938 0.40108 0.0
H1477 H 0.65833 0.65481 0.39053 0.0
H1478 H 0.64537 0.65269 0.35965 0.0
H1479 H 0.61587 0.66536 0.42192 0.0
H1480 H 0.67148 0.60903 0.39151 0.0
H1481 H 0.67545 0.57764 0.3741 0.0
H1482 H 0.60664 0.54562 0.41057 0.0
H1483 H 0.60168 0.57695 0.42809 0.0
C1484 C 0.71278 0.63589 0.48822 0.0
C1485 C 0.69357 0.62488 0.5011 0.0
C1486 C 0.69856 0.63708 0.47154 0.0
C1487 C 0.66526 0.62696 0.46724 0.0
C1488 C 0.64688 0.61514 0.4797 0.0
C1489 C 0.66057 0.61431 0.49651 0.0
C1490 C 0.64902 0.62936 0.44987 0.0
C1491 C 0.64686 0.61223 0.43909 0.0
C1492 C 0.63735 0.64868 0.4437 0.0
C1493 C 0.63674 0.66703 0.45488 0.0
C1494 C 0.61674 0.66679 0.47043 0.0
C1495 C 0.61566 0.68424 0.48079 0.0
C1496 C 0.63427 0.70209 0.47566 0.0
C1497 C 0.65402 0.70251 0.46017 0.0
C1498 C 0.65525 0.68507 0.44978 0.0
C1499 C 0.56884 0.62716 0.37462 0.0
C1500 C 0.59428 0.63524 0.36267 0.0
C1501 C 0.57722 0.62737 0.39216 0.0
C1502 C 0.61037 0.63655 0.39793 0.0
C1503 C 0.63291 0.64735 0.38623 0.0
C1504 C 0.62515 0.64648 0.36864 0.0
C1505 C 0.62326 0.63352 0.4158 0.0
C1506 C 0.62492 0.65056 0.42668 0.0
C1507 C 0.63442 0.61405 0.42203 0.0
C1508 C 0.63547 0.59555 0.41094 0.0
C1509 C 0.65646 0.59547 0.39565 0.0
C1510 C 0.6591 0.57762 0.3858 0.0
C1511 C 0.64106 0.5597 0.39114 0.0
C1512 C 0.62037 0.55956 0.40637 0.0
C1513 C 0.61761 0.57737 0.41626 0.0
H1514 H 0.6433 0.54589 0.38354 0.0
H1515 H 0.63329 0.71562 0.48367 0.0
H1516 H 0.27168 0.60747 0.01221 0.0
H1517 H 0.29291 0.6115 0.04203 0.0
H1518 H 0.39134 0.64347 0.0241 0.0
H1519 H 0.37008 0.63923 0.99429 0.0
H1520 H 0.40994 0.61499 0.04696 0.0
H1521 H 0.32059 0.66873 0.04435 0.0
H1522 H 0.25979 0.68519 0.03906 0.0
H1523 H 0.20827 0.6461 0.07673 0.0
H1524 H 0.26864 0.62915 0.08204 0.0
H1525 H 0.45545 0.6595 0.13018 0.0
H1526 H 0.44494 0.6495 0.10017 0.0
H1527 H 0.35175 0.61189 0.11599 0.0
H1528 H 0.36255 0.62172 0.14598 0.0
H1529 H 0.33234 0.64337 0.09393 0.0
H1530 H 0.42416 0.58996 0.09638 0.0
H1531 H 0.48571 0.57391 0.10072 0.0
H1532 H 0.5341 0.61421 0.06307 0.0
H1533 H 0.47296 0.63068 0.05865 0.0
C1534 C 0.29751 0.61563 0.01475 0.0
C1535 C 0.31919 0.62323 1.00114 0.0
C1536 C 0.30965 0.61795 0.03174 0.0
C1537 C 0.34369 0.6279 0.03535 0.0
C1538 C 0.36504 0.63575 0.02166 0.0
C1539 C 0.35283 0.63346 0.00469 0.0
C1540 C 0.35768 0.62935 0.05333 0.0
C1541 C 0.3932 0.62147 0.05721 0.0
C1542 C 0.3356 0.63747 0.06676 0.0
C1543 C 0.29911 0.64749 0.06345 0.0
C1544 C 0.29623 0.66348 0.05137 0.0
C1545 C 0.26185 0.67293 0.0484 0.0
C1546 C 0.23016 0.66665 0.05751 0.0
C1547 C 0.23281 0.65092 0.06965 0.0
C1548 C 0.26712 0.64138 0.07265 0.0
C1549 C 0.43396 0.64828 0.1273 0.0
C1550 C 0.40997 0.64122 0.14036 0.0
C1551 C 0.42784 0.64265 0.11014 0.0
C1552 C 0.39734 0.63007 0.10579 0.0
C1553 C 0.37543 0.62161 0.11904 0.0
C1554 C 0.38179 0.62707 0.13619 0.0
C1555 C 0.38436 0.62869 0.08765 0.0
C1556 C 0.34906 0.6368 0.08371 0.0
C1557 C 0.40689 0.62104 0.07417 0.0
C1558 C 0.44403 0.61177 0.07737 0.0
C1559 C 0.44803 0.59563 0.08922 0.0
C1560 C 0.48283 0.58638 0.09164 0.0
C1561 C 0.51382 0.59309 0.08223 0.0
C1562 C 0.5101 0.60907 0.07039 0.0
C1563 C 0.47537 0.61836 0.06792 0.0
H1564 H 0.54069 0.58586 0.08408 0.0
H1565 H 0.20358 0.67401 0.05521 0.0
H1566 H 0.19542 0.90551 0.50489 0.0
H1567 H 0.16973 0.90571 0.53393 0.0
H1568 H 0.16232 0.83974 0.53309 0.0
H1569 H 0.18533 0.83945 0.50368 0.0
H1570 H 0.10078 0.85462 0.54493 0.0
H1571 H 0.23128 0.86779 0.55564 0.0
H1572 H 0.29065 0.88675 0.55266 0.0
H1573 H 0.23934 0.94062 0.57351 0.0
H1574 H 0.17943 0.92207 0.57635 0.0
H1575 H 0.08678 0.82366 0.6305 0.0
H1576 H 0.09635 0.83218 0.60068 0.0
H1577 H 0.10934 0.89603 0.61407 0.0
H1578 H 0.10389 0.88682 0.64465 0.0
H1579 H 0.16198 0.88778 0.59483 0.0
H1580 H 0.03054 0.87168 0.58556 0.0
H1581 H 0.9733 0.85064 0.58812 0.0
H1582 H 0.02943 0.79989 0.56454 0.0
H1583 H 0.08688 0.82058 0.56187 0.0
C1584 C 0.18799 0.89101 0.51077 0.0
C1585 C 0.19241 0.87244 0.50177 0.0
C1586 C 0.17376 0.89117 0.52753 0.0
C1587 C 0.16431 0.87274 0.53581 0.0
C1588 C 0.16936 0.85419 0.527 0.0
C1589 C 0.18304 0.85403 0.51019 0.0
C1590 C 0.14777 0.87256 0.55338 0.0
C1591 C 0.11426 0.86179 0.55588 0.0
C1592 C 0.16461 0.88251 0.56758 0.0
C1593 C 0.20073 0.8936 0.56601 0.0
C1594 C 0.23255 0.88373 0.55946 0.0
C1595 C 0.26632 0.8944 0.55781 0.0
C1596 C 0.26873 0.9149 0.56284 0.0
C1597 C 0.2374 0.92475 0.56958 0.0
C1598 C 0.20354 0.91417 0.57121 0.0
C1599 C 0.09043 0.83964 0.62707 0.0
C1600 C 0.09492 0.85451 0.63993 0.0
C1601 C 0.09552 0.84463 0.60982 0.0
C1602 C 0.10306 0.8649 0.60473 0.0
C1603 C 0.1037 0.88023 0.61751 0.0
C1604 C 0.09994 0.87506 0.635 0.0
C1605 C 0.11509 0.86931 0.58661 0.0
C1606 C 0.14785 0.88095 0.58391 0.0
C1607 C 0.09778 0.85995 0.57217 0.0
C1608 C 0.06295 0.84769 0.57356 0.0
C1609 C 0.03062 0.85603 0.58095 0.0
C1610 C 0.99815 0.84416 0.5824 0.0
C1611 C 0.99773 0.82394 0.57651 0.0
C1612 C 0.02973 0.81556 0.56907 0.0
C1613 C 0.06218 0.82738 0.56751 0.0
H1614 H 0.97262 0.81476 0.5777 0.0
H1615 H 0.29489 0.92313 0.56156 0.0
H1616 H 0.146 0.28666 0.39275 0.0
H1617 H 0.11927 0.26083 0.37375 0.0
H1618 H 0.16603 0.29185 0.32983 0.0
H1619 H 0.19598 0.31654 0.34847 0.0
H1620 H 0.08704 0.28005 0.3269 0.0
H1621 H 0.20842 0.25327 0.34064 0.0
H1622 H 0.25917 0.24213 0.35986 0.0
H1623 H 0.18689 0.19659 0.3821 0.0
H1624 H 0.13543 0.20774 0.3632 0.0
H1625 H 0.07126 0.20274 0.26147 0.0
H1626 H 0.09717 0.2289 0.28096 0.0
H1627 H 0.05669 0.19452 0.32459 0.0
H1628 H 0.03045 0.16872 0.30527 0.0
H1629 H 0.13112 0.20807 0.32816 0.0
H1630 H 0.01004 0.2341 0.31446 0.0
H1631 H 0.95831 0.24542 0.29586 0.0
H1632 H 0.02867 0.29213 0.27403 0.0
H1633 H 0.08103 0.28089 0.29235 0.0
C1634 C 0.15145 0.28796 0.37913 0.0
C1635 C 0.17353 0.30409 0.37244 0.0
C1636 C 0.1356 0.27321 0.36824 0.0
C1637 C 0.14057 0.27451 0.3504 0.0
C1638 C 0.16161 0.29069 0.34358 0.0
C1639 C 0.17844 0.30504 0.35442 0.0
C1640 C 0.12482 0.2587 0.33876 0.0
C1641 C 0.09692 0.26436 0.32703 0.0
C1642 C 0.13722 0.23816 0.33921 0.0
C1643 C 0.16793 0.23154 0.35069 0.0
C1644 C 0.20319 0.24106 0.34979 0.0
C1645 C 0.23212 0.23471 0.36059 0.0
C1646 C 0.22622 0.21871 0.37225 0.0
C1647 C 0.19138 0.20902 0.3731 0.0
C1648 C 0.16232 0.21535 0.36235 0.0
C1649 C 0.06838 0.20073 0.27521 0.0
C1650 C 0.04907 0.18373 0.28189 0.0
C1651 C 0.08283 0.21571 0.28632 0.0
C1652 C 0.07867 0.21366 0.30422 0.0
C1653 C 0.06018 0.19641 0.31085 0.0
C1654 C 0.04517 0.18173 0.29979 0.0
C1655 C 0.09351 0.22943 0.31617 0.0
C1656 C 0.12119 0.22375 0.32801 0.0
C1657 C 0.08078 0.24992 0.31586 0.0
C1658 C 0.04961 0.25647 0.3046 0.0
C1659 C 0.01464 0.24662 0.30554 0.0
C1660 C 0.98516 0.25306 0.29509 0.0
C1661 C 0.99024 0.26944 0.28372 0.0
C1662 C 0.0248 0.27942 0.28281 0.0
C1663 C 0.05439 0.27302 0.29322 0.0
H1664 H 0.96736 0.27443 0.27566 0.0
H1665 H 0.24868 0.21379 0.38058 0.0
H1666 H 0.39197 0.18896 0.88033 0.0
H1667 H 0.42063 0.21453 0.86117 0.0
H1668 H 0.31101 0.23229 0.84353 0.0
H1669 H 0.28276 0.20612 0.86213 0.0
H1670 H 0.35452 0.22991 0.81752 0.0
H1671 H 0.3659 0.26111 0.873 0.0
H1672 H 0.38477 0.26319 0.90342 0.0
H1673 H 0.50001 0.25751 0.88886 0.0
H1674 H 0.48176 0.25501 0.85837 0.0
H1675 H 0.40221 0.32399 0.77717 0.0
H1676 H 0.37704 0.29808 0.79665 0.0
H1677 H 0.48887 0.27888 0.80932 0.0
H1678 H 0.51436 0.30474 0.78973 0.0
H1679 H 0.44646 0.28152 0.83776 0.0
H1680 H 0.43353 0.25082 0.78197 0.0
H1681 H 0.41307 0.24716 0.75187 0.0
H1682 H 0.29847 0.25242 0.76756 0.0
H1683 H 0.31826 0.25642 0.79772 0.0
C1684 C 0.37421 0.19843 0.87236 0.0
C1685 C 0.33531 0.1958 0.87267 0.0
C1686 C 0.39049 0.21309 0.86149 0.0
C1687 C 0.36801 0.22564 0.85105 0.0
C1688 C 0.32902 0.22287 0.85143 0.0
C1689 C 0.31285 0.20801 0.86208 0.0
C1690 C 0.38485 0.24134 0.8394 0.0
C1691 C 0.37418 0.24138 0.82205 0.0
C1692 C 0.41137 0.25601 0.84511 0.0
C1693 C 0.42242 0.25765 0.86342 0.0
C1694 C 0.39524 0.26014 0.8763 0.0
C1695 C 0.40583 0.26141 0.89355 0.0
C1696 C 0.44356 0.26043 0.89807 0.0
C1697 C 0.47079 0.25822 0.88534 0.0
C1698 C 0.46034 0.25688 0.86807 0.0
C1699 C 0.42153 0.31417 0.78392 0.0
C1700 C 0.46035 0.31626 0.78157 0.0
C1701 C 0.40705 0.29932 0.79511 0.0
C1702 C 0.43101 0.28628 0.80428 0.0
C1703 C 0.46979 0.28866 0.80231 0.0
C1704 C 0.48431 0.30342 0.79102 0.0
C1705 C 0.41562 0.27022 0.81597 0.0
C1706 C 0.42669 0.27007 0.83329 0.0
C1707 C 0.38915 0.25554 0.81029 0.0
C1708 C 0.3774 0.25405 0.79208 0.0
C1709 C 0.404 0.25144 0.77897 0.0
C1710 C 0.39251 0.24921 0.76191 0.0
C1711 C 0.35448 0.24942 0.75783 0.0
C1712 C 0.32789 0.25216 0.77076 0.0
C1713 C 0.33923 0.25441 0.78783 0.0
H1714 H 0.34559 0.24746 0.74465 0.0
H1715 H 0.4517 0.26142 0.91144 0.0
H1716 H 0.63169 0.20184 0.61628 0.0
H1717 H 0.60245 0.22699 0.63537 0.0
H1718 H 0.69247 0.21944 0.6717 0.0
H1719 H 0.72146 0.19424 0.65283 0.0
H1720 H 0.62621 0.21947 0.68761 0.0
H1721 H 0.6883 0.26087 0.64415 0.0
H1722 H 0.70125 0.2727 0.61461 0.0
H1723 H 0.58588 0.28889 0.60821 0.0
H1724 H 0.57218 0.27688 0.63764 0.0
H1725 H 0.592 0.30327 0.74169 0.0
H1726 H 0.62063 0.27897 0.7223 0.0
H1727 H 0.54231 0.29624 0.68266 0.0
H1728 H 0.51862 0.32316 0.70083 0.0
H1729 H 0.60117 0.29043 0.66804 0.0
H1730 H 0.53718 0.24967 0.711 0.0
H1731 H 0.52318 0.23904 0.74077 0.0
H1732 H 0.63764 0.2215 0.74801 0.0
H1733 H 0.65238 0.23224 0.71835 0.0
C1734 C 0.64527 0.20569 0.62829 0.0
C1735 C 0.6788 0.19615 0.6331 0.0
C1736 C 0.62858 0.22 0.63917 0.0
C1737 C 0.6455 0.22516 0.65487 0.0
C1738 C 0.6789 0.21559 0.65967 0.0
C1739 C 0.69541 0.20123 0.64889 0.0
C1740 C 0.62876 0.24062 0.66636 0.0
C1741 C 0.62083 0.23504 0.68339 0.0
C1742 C 0.62094 0.26073 0.66071 0.0
C1743 C 0.62917 0.26777 0.643 0.0
C1744 C 0.66565 0.26678 0.63638 0.0
C1745 C 0.67313 0.27355 0.61967 0.0
C1746 C 0.64438 0.28148 0.60952 0.0
C1747 C 0.6081 0.2827 0.61607 0.0
C1748 C 0.60047 0.27592 0.63276 0.0
C1749 C 0.58216 0.30273 0.72864 0.0
C1750 C 0.55403 0.31594 0.7228 0.0
C1751 C 0.59763 0.28817 0.71766 0.0
C1752 C 0.58314 0.28533 0.70105 0.0
C1753 C 0.55431 0.29812 0.69535 0.0
C1754 C 0.54052 0.31348 0.70591 0.0
C1755 C 0.59811 0.26935 0.6894 0.0
C1756 C 0.60589 0.27482 0.67231 0.0
C1757 C 0.60513 0.24903 0.69493 0.0
C1758 C 0.59589 0.24183 0.7125 0.0
C1759 C 0.55933 0.24353 0.71895 0.0
C1760 C 0.55128 0.23752 0.73581 0.0
C1761 C 0.57951 0.22961 0.74628 0.0
C1762 C 0.6158 0.22761 0.73988 0.0
C1763 C 0.624 0.23361 0.72305 0.0
H1764 H 0.57325 0.22503 0.75934 0.0
H1765 H 0.65025 0.28674 0.5966 0.0
H1766 H 0.88617 0.31505 0.1318 0.0
H1767 H 0.91441 0.28948 0.15104 0.0
H1768 H 0.80681 0.26024 0.15714 0.0
H1769 H 0.77877 0.28588 0.13803 0.0
H1770 H 0.84014 0.26456 0.1874 0.0
H1771 H 0.87525 0.23982 0.13191 0.0
H1772 H 0.90322 0.2416 0.103 0.0
H1773 H 0.01102 0.25331 0.12518 0.0
H1774 H 0.98356 0.25202 0.15424 0.0
H1775 H 0.90844 0.16587 0.21831 0.0
H1776 H 0.88141 0.19191 0.19915 0.0
H1777 H 0.97369 0.23242 0.21025 0.0
H1778 H 0.99852 0.20731 0.23082 0.0
H1779 H 0.94936 0.22212 0.1713 0.0
H1780 H 0.91269 0.24808 0.22677 0.0
H1781 H 0.88415 0.24566 0.2555 0.0
H1782 H 0.77798 0.23136 0.23268 0.0
H1783 H 0.80627 0.23303 0.20379 0.0
C1784 C 0.86881 0.30304 0.13722 0.0
C1785 C 0.83051 0.3022 0.13346 0.0
C1786 C 0.88487 0.28843 0.14814 0.0
C1787 C 0.86281 0.27278 0.15542 0.0
C1788 C 0.82441 0.2721 0.15166 0.0
C1789 C 0.80843 0.28666 0.14073 0.0
C1790 C 0.87938 0.25739 0.16731 0.0
C1791 C 0.86376 0.25515 0.18376 0.0
C1792 C 0.91067 0.24531 0.16273 0.0
C1793 C 0.92724 0.24608 0.14526 0.0
C1794 C 0.90485 0.24299 0.13063 0.0
C1795 C 0.92062 0.24388 0.11421 0.0
C1796 C 0.95885 0.24763 0.11225 0.0
C1797 C 0.9814 0.25046 0.12671 0.0
C1798 C 0.96574 0.24966 0.14316 0.0
C1799 C 0.92242 0.18053 0.21692 0.0
C1800 C 0.95551 0.18466 0.22599 0.0
C1801 C 0.90724 0.19526 0.20586 0.0
C1802 C 0.92577 0.21399 0.2032 0.0
C1803 C 0.95908 0.21802 0.21211 0.0
C1804 C 0.97329 0.20367 0.22377 0.0
C1805 C 0.91008 0.22946 0.19127 0.0
C1806 C 0.92578 0.23162 0.17484 0.0
C1807 C 0.87882 0.24143 0.1958 0.0
C1808 C 0.8618 0.24023 0.21314 0.0
C1809 C 0.88345 0.244 0.22788 0.0
C1810 C 0.86728 0.24284 0.2442 0.0
C1811 C 0.82931 0.23823 0.24593 0.0
C1812 C 0.80744 0.23481 0.23133 0.0
C1813 C 0.82355 0.23581 0.21498 0.0
H1814 H 0.8168 0.23741 0.25857 0.0
H1815 H 0.97102 0.2483 0.09952 0.0
H1816 H 0.78425 0.70005 0.64981 0.0
H1817 H 0.81328 0.72812 0.66584 0.0
H1818 H 0.91592 0.71937 0.63772 0.0
H1819 H 0.88654 0.69113 0.62155 0.0
H1820 H 0.92714 0.72174 0.67273 0.0
H1821 H 0.86377 0.76161 0.62992 0.0
H1822 H 0.80978 0.77201 0.61231 0.0
H1823 H 0.74898 0.78786 0.65795 0.0
H1824 H 0.80251 0.77736 0.67584 0.0
H1825 H 0.01302 0.80903 0.71009 0.0
H1826 H 0.9879 0.78377 0.69017 0.0
H1827 H 0.87701 0.7943 0.71001 0.0
H1828 H 0.90168 0.82061 0.72911 0.0
H1829 H 0.87287 0.79132 0.67743 0.0
H1830 H 0.93358 0.75067 0.72054 0.0
H1831 H 0.98545 0.73894 0.73889 0.0
H1832 H 0.04907 0.72309 0.69408 0.0
H1833 H 0.9978 0.73503 0.67545 0.0
C1834 C 0.81282 0.70437 0.64689 0.0
C1835 C 0.83318 0.69363 0.63443 0.0
C1836 C 0.82937 0.72041 0.65601 0.0
C1837 C 0.8667 0.72597 0.6529 0.0
C1838 C 0.88703 0.71539 0.64026 0.0
C1839 C 0.87025 0.69941 0.63098 0.0
C1840 C 0.88464 0.7422 0.66347 0.0
C1841 C 0.91578 0.7371 0.67353 0.0
C1842 C 0.86909 0.76202 0.66492 0.0
C1843 C 0.83704 0.76857 0.6542 0.0
C1844 C 0.8388 0.7672 0.63619 0.0
C1845 C 0.80831 0.77314 0.62616 0.0
C1846 C 0.77594 0.78055 0.634 0.0
C1847 C 0.77407 0.78211 0.65189 0.0
C1848 C 0.8045 0.77621 0.66198 0.0
C1849 C 0.98326 0.80595 0.7103 0.0
C1850 C 0.95948 0.81657 0.72158 0.0
C1851 C 0.96895 0.79136 0.69892 0.0
C1852 C 0.93063 0.78665 0.69883 0.0
C1853 C 0.90674 0.79748 0.70989 0.0
C1854 C 0.92095 0.81243 0.721 0.0
C1855 C 0.91528 0.77087 0.68693 0.0
C1856 C 0.88455 0.77604 0.6766 0.0
C1857 C 0.93103 0.75103 0.6854 0.0
C1858 C 0.96199 0.74396 0.6966 0.0
C1859 C 0.95876 0.74486 0.7146 0.0
C1860 C 0.98804 0.73814 0.72505 0.0
C1861 C 0.02058 0.73032 0.71766 0.0
C1862 C 0.02388 0.72918 0.69979 0.0
C1863 C 0.99472 0.73592 0.68928 0.0
H1864 H 0.04319 0.72511 0.72577 0.0
H1865 H 0.75234 0.78511 0.62622 0.0
H1866 H 0.65624 0.82491 0.15282 0.0
H1867 H 0.63257 0.79847 0.17191 0.0
H1868 H 0.64991 0.75301 0.13274 0.0
H1869 H 0.67711 0.77883 0.11392 0.0
H1870 H 0.57684 0.75246 0.14912 0.0
H1871 H 0.70719 0.75242 0.16286 0.0
H1872 H 0.76761 0.76744 0.17145 0.0
H1873 H 0.72009 0.78673 0.21941 0.0
H1874 H 0.6591 0.77215 0.21096 0.0
H1875 H 0.54089 0.66331 0.19866 0.0
H1876 H 0.56753 0.68917 0.17949 0.0
H1877 H 0.5808 0.73044 0.22236 0.0
H1878 H 0.55565 0.70425 0.24168 0.0
H1879 H 0.63909 0.73351 0.20379 0.0
H1880 H 0.50805 0.73394 0.19001 0.0
H1881 H 0.44701 0.72007 0.18081 0.0
H1882 H 0.49492 0.70092 0.1329 0.0
H1883 H 0.55635 0.71436 0.14189 0.0
C1884 C 0.65622 0.80932 0.14818 0.0
C1885 C 0.66948 0.80437 0.13158 0.0
C1886 C 0.64207 0.79418 0.15919 0.0
C1887 C 0.63967 0.77376 0.15379 0.0
C1888 C 0.65157 0.76871 0.13717 0.0
C1889 C 0.66681 0.78371 0.12631 0.0
C1890 C 0.62432 0.75771 0.16544 0.0
C1891 C 0.59062 0.7481 0.16099 0.0
C1892 C 0.64188 0.75245 0.18111 0.0
C1893 C 0.67841 0.76143 0.18617 0.0
C1894 C 0.70946 0.7601 0.17514 0.0
C1895 C 0.74385 0.76848 0.18 0.0
C1896 C 0.74766 0.7781 0.19594 0.0
C1897 C 0.71707 0.77932 0.20705 0.0
C1898 C 0.68258 0.771 0.20223 0.0
C1899 C 0.54937 0.67791 0.20401 0.0
C1900 C 0.54609 0.68169 0.22172 0.0
C1901 C 0.56445 0.69279 0.19299 0.0
C1902 C 0.57564 0.71204 0.19933 0.0
C1903 C 0.57241 0.71579 0.21706 0.0
C1904 C 0.55793 0.70078 0.22812 0.0
C1905 C 0.5912 0.72813 0.18757 0.0
C1906 C 0.62504 0.73783 0.19199 0.0
C1907 C 0.57362 0.73357 0.17188 0.0
C1908 C 0.53686 0.72504 0.16668 0.0
C1909 C 0.50565 0.72659 0.17758 0.0
C1910 C 0.47098 0.71883 0.17239 0.0
C1911 C 0.46714 0.70967 0.15627 0.0
C1912 C 0.49797 0.70806 0.14537 0.0
C1913 C 0.53269 0.71574 0.1505 0.0
H1914 H 0.44026 0.70396 0.15214 0.0
H1915 H 0.77433 0.78454 0.1997 0.0
H1916 H 0.37293 0.80033 0.38503 0.0
H1917 H 0.40263 0.77231 0.36893 0.0
H1918 H 0.3192 0.77826 0.32922 0.0
H1919 H 0.28916 0.80546 0.34535 0.0
H1920 H 0.3299 0.74002 0.33522 0.0
H1921 H 0.40972 0.79862 0.32605 0.0
H1922 H 0.45249 0.82692 0.33358 0.0
H1923 H 0.52914 0.78407 0.356 0.0
H1924 H 0.48651 0.75553 0.34885 0.0
H1925 H 0.4272 0.69992 0.26051 0.0
H1926 H 0.39974 0.72437 0.28073 0.0
H1927 H 0.45894 0.69573 0.32247 0.0
H1928 H 0.48373 0.6702 0.30283 0.0
H1929 H 0.46296 0.74305 0.31758 0.0
H1930 H 0.38172 0.68435 0.32489 0.0
H1931 H 0.33854 0.65696 0.31574 0.0
H1932 H 0.26371 0.70186 0.29493 0.0
H1933 H 0.30687 0.72952 0.30363 0.0
C1934 C 0.36078 0.7954 0.37298 0.0
C1935 C 0.32896 0.80522 0.36635 0.0
C1936 C 0.37796 0.77956 0.3637 0.0
C1937 C 0.36349 0.77334 0.3477 0.0
C1938 C 0.33105 0.78277 0.34146 0.0
C1939 C 0.314 0.79844 0.35066 0.0
C1940 C 0.38145 0.75704 0.33723 0.0
C1941 C 0.35896 0.74084 0.33129 0.0
C1942 C 0.4196 0.75776 0.33233 0.0
C1943 C 0.44462 0.77497 0.33716 0.0
C1944 C 0.43544 0.79526 0.33281 0.0
C1945 C 0.45972 0.81133 0.33695 0.0
C1946 C 0.49344 0.8073 0.34533 0.0
C1947 C 0.50294 0.78718 0.34957 0.0
C1948 C 0.47872 0.77105 0.34549 0.0
C1949 C 0.43351 0.69838 0.27402 0.0
C1950 C 0.45663 0.68251 0.28001 0.0
C1951 C 0.4182 0.71256 0.28554 0.0
C1952 C 0.42706 0.71165 0.3031 0.0
C1953 C 0.45148 0.69652 0.30899 0.0
C1954 C 0.46559 0.68193 0.29766 0.0
C1955 C 0.41106 0.72656 0.31535 0.0
C1956 C 0.43398 0.74232 0.32164 0.0
C1957 C 0.3732 0.72564 0.3204 0.0
C1958 C 0.34787 0.70898 0.31464 0.0
C1959 C 0.35641 0.68837 0.31808 0.0
C1960 C 0.33184 0.6728 0.31304 0.0
C1961 C 0.29849 0.67766 0.30468 0.0
C1962 C 0.28963 0.69811 0.30134 0.0
C1963 C 0.31416 0.71373 0.3063 0.0
H1964 H 0.27943 0.66558 0.30085 0.0
H1965 H 0.51226 0.81976 0.34846 0.0
H1966 H 0.12558 0.67749 0.86488 0.0
H1967 H 0.09858 0.70333 0.84566 0.0
H1968 H 0.1944 0.74243 0.85419 0.0
H1969 H 0.22023 0.71703 0.87409 0.0
H1970 H 0.13519 0.76445 0.855 0.0
H1971 H 0.17905 0.7119 0.81565 0.0
H1972 H 0.1825 0.67724 0.80313 0.0
H1973 H 0.06412 0.67768 0.79417 0.0
H1974 H 0.05993 0.71225 0.80678 0.0
H1975 H 0.09735 0.83639 0.78916 0.0
H1976 H 0.12594 0.81046 0.80767 0.0
H1977 H 0.03927 0.76744 0.79324 0.0
H1978 H 0.01514 0.79223 0.77264 0.0
H1979 H 0.09394 0.74722 0.79598 0.0
H1980 H 0.04778 0.79901 0.83532 0.0
H1981 H 0.04254 0.83359 0.84788 0.0
H1982 H 0.16061 0.83452 0.85766 0.0
H1983 H 0.16658 0.80005 0.84504 0.0
C1984 C 0.14063 0.69168 0.86265 0.0
C1985 C 0.17477 0.69544 0.87095 0.0
C1986 C 0.12543 0.70635 0.85157 0.0
C1987 C 0.14473 0.72475 0.8482 0.0
C1988 C 0.17891 0.72842 0.85657 0.0
C1989 C 0.19367 0.71395 0.86793 0.0
C1990 C 0.12918 0.74041 0.83628 0.0
C1991 C 0.12644 0.76074 0.84202 0.0
C1992 C 0.11667 0.73553 0.81952 0.0
C1993 C 0.11916 0.71457 0.8123 0.0
C1994 C 0.15373 0.70452 0.81115 0.0
C1995 C 0.15581 0.68491 0.804 0.0
C1996 C 0.12354 0.67525 0.7979 0.0
C1997 C 0.08909 0.68517 0.79892 0.0
C1998 C 0.08686 0.70477 0.80605 0.0
C1999 C 0.08495 0.82124 0.78986 0.0
C2000 C 0.05362 0.81633 0.77989 0.0
C2001 C 0.10078 0.80652 0.8007 0.0
C2002 C 0.08402 0.78707 0.80257 0.0
C2003 C 0.05285 0.78225 0.79228 0.0
C2004 C 0.03858 0.79653 0.78067 0.0
C2005 C 0.09932 0.77143 0.8147 0.0
C2006 C 0.1022 0.75106 0.809 0.0
C2007 C 0.11134 0.77624 0.83161 0.0
C2008 C 0.10764 0.79701 0.83912 0.0
C2009 C 0.07263 0.80664 0.84007 0.0
C2010 C 0.06954 0.82621 0.84722 0.0
C2011 C 0.10123 0.83625 0.85354 0.0
C2012 C 0.13608 0.82674 0.85276 0.0
C2013 C 0.13933 0.80718 0.84563 0.0
H2014 H 0.09877 0.85139 0.85907 0.0
H2015 H 0.12523 0.6601 0.79233 0.0
loop_
_geom_bond_atom_site_label_1
_geom_bond_atom_site_label_2
_geom_bond_distance
_geom_bond_site_symmetry_2
_ccdc_geom_bond_type
C0 C1 1.391 . S
C0 C4 1.391 . S
C0 H42 0.948 . S
C1 C0 1.391 . S
C1 C2 1.391 . S
C2 C1 1.391 . S
C2 H58 0.947 . S
C2 C59 1.392 . S
C3 C4 1.391 . S
C3 C7 1.397 . S
C3 C59 1.419 . S
C4 C0 1.391 . S
C4 C3 1.391 . S
C4 C5 1.399 . S
C5 C4 1.399 . S
C5 C8 1.396 . S
C5 C17 1.453 . S
C5 C18 1.684 . S
H6 C30 0.948 . S
C7 C3 1.397 . S
C7 C8 1.394 . S
C7 C26 1.723 . S
C8 C5 1.396 . S
C8 C7 1.394 . S
C8 C38 1.723 . S
H9 C32 0.947 . S
H10 C33 0.948 . S
H11 C39 0.982 . S
H12 C40 0.979 . S
H13 C40 0.980 . S
H14 C40 0.983 . S
H15 C39 0.979 . S
H16 C39 0.977 . S
C17 C5 1.453 . S
C17 H46 0.982 . S
C17 H47 0.979 . S
C17 H48 0.977 . S
C18 C5 1.684 . S
C18 H43 0.979 . S
C18 H44 0.980 . S
C18 H45 0.983 . S
C19 C20 1.391 . S
C19 C24 1.391 . S
C19 H49 0.948 . S
C20 C19 1.391 . S
C20 C21 1.391 . S
C21 C20 1.391 . S
C21 C22 1.392 . S
C21 H50 0.947 . S
C22 C21 1.392 . S
C22 C23 1.419 . S
C22 H51 0.948 . S
C23 C22 1.419 . S
C23 C24 1.391 . S
C23 C27 1.397 . S
C24 C19 1.391 . S
C24 C23 1.391 . S
C24 C25 1.399 . S
C25 C24 1.399 . S
C25 C26 1.396 . S
C25 C28 1.453 . S
C25 C29 1.684 . S
C26 C7 1.723 . S
C26 C25 1.396 . S
C26 C27 1.394 . S
C27 C23 1.397 . S
C27 C26 1.394 . S
C27 C37 1.723 . S
C28 C25 1.453 . S
C28 H52 0.982 . S
C28 H53 0.979 . S
C28 H54 0.977 . S
C29 C25 1.684 . S
C29 H55 0.979 . S
C29 H56 0.980 . S
C29 H57 0.983 . S
C30 H6 0.948 . S
C30 C31 1.391 . S
C30 C35 1.391 . S
C31 C30 1.391 . S
C31 C32 1.391 . S
C32 H9 0.947 . S
C32 C31 1.391 . S
C32 C33 1.392 . S
C33 H10 0.948 . S
C33 C32 1.392 . S
C33 C34 1.419 . S
C34 C33 1.419 . S
C34 C35 1.391 . S
C34 C38 1.397 . S
C35 C30 1.391 . S
C35 C34 1.391 . S
C35 C36 1.399 . S
C36 C35 1.399 . S
C36 C37 1.396 . S
C36 C39 1.453 . S
C36 C40 1.684 . S
C37 C27 1.723 . S
C37 C36 1.396 . S
C37 C38 1.394 . S
C38 C8 1.723 . S
C38 C34 1.397 . S
C38 C37 1.394 . S
C39 H11 0.982 . S
C39 H15 0.979 . S
C39 H16 0.977 . S
C39 C36 1.453 . S
C40 H12 0.979 . S
C40 H13 0.980 . S
C40 H14 0.983 . S
C40 C36 1.684 . S
H41 C59 0.948 . S
H42 C0 0.948 . S
H43 C18 0.979 . S
H44 C18 0.980 . S
H45 C18 0.983 . S
H46 C17 0.982 . S
H47 C17 0.979 . S
H48 C17 0.977 . S
H49 C19 0.948 . S
H50 C21 0.947 . S
H51 C22 0.948 . S
H52 C28 0.982 . S
H53 C28 0.979 . S
H54 C28 0.977 . S
H55 C29 0.979 . S
H56 C29 0.980 . S
H57 C29 0.983 . S
H58 C2 0.947 . S
C59 C2 1.392 . S
C59 C3 1.419 . S
C59 H41 0.948 . S
C60 C61 1.391 . S
C60 C64 1.391 . S
C60 H102 0.948 . S
C61 C60 1.391 . S
C61 C62 1.391 . S
C62 C61 1.391 . S
C62 H118 0.947 . S
C62 C119 1.392 . S
C63 C64 1.391 . S
C63 C67 1.397 . S
C63 C119 1.419 . S
C64 C60 1.391 . S
C64 C63 1.391 . S
C64 C65 1.399 . S
C65 C64 1.399 . S
C65 C68 1.396 . S
C65 C77 1.453 . S
C65 C78 1.684 . S
H66 C90 0.948 . S
C67 C63 1.397 . S
C67 C68 1.394 . S
C67 C86 1.723 . S
C68 C65 1.396 . S
C68 C67 1.394 . S
C68 C98 1.723 . S
H69 C92 0.947 . S
H70 C93 0.948 . S
H71 C99 0.982 . S
H72 C100 0.979 . S
H73 C100 0.980 . S
H74 C100 0.983 . S
H75 C99 0.979 . S
H76 C99 0.977 . S
C77 C65 1.453 . S
C77 H106 0.982 . S
C77 H107 0.979 . S
C77 H108 0.977 . S
C78 C65 1.684 . S
C78 H103 0.979 . S
C78 H104 0.980 . S
C78 H105 0.983 . S
C79 C80 1.391 . S
C79 C84 1.391 . S
C79 H109 0.948 . S
C80 C79 1.391 . S
C80 C81 1.391 . S
C81 C80 1.391 . S
C81 C82 1.392 . S
C81 H110 0.947 . S
C82 C81 1.392 . S
C82 C83 1.419 . S
C82 H111 0.948 . S
C83 C82 1.419 . S
C83 C84 1.391 . S
C83 C87 1.397 . S
C84 C79 1.391 . S
C84 C83 1.391 . S
C84 C85 1.399 . S
C85 C84 1.399 . S
C85 C86 1.396 . S
C85 C88 1.453 . S
C85 C89 1.684 . S
C86 C67 1.723 . S
C86 C85 1.396 . S
C86 C87 1.394 . S
C87 C83 1.397 . S
C87 C86 1.394 . S
C87 C97 1.723 . S
C88 C85 1.453 . S
C88 H112 0.982 . S
C88 H113 0.979 . S
C88 H114 0.977 . S
C89 C85 1.684 . S
C89 H115 0.979 . S
C89 H116 0.980 . S
C89 H117 0.983 . S
C90 H66 0.948 . S
C90 C91 1.391 . S
C90 C95 1.391 . S
C91 C90 1.391 . S
C91 C92 1.391 . S
C92 H69 0.947 . S
C92 C91 1.391 . S
C92 C93 1.392 . S
C93 H70 0.948 . S
C93 C92 1.392 . S
C93 C94 1.419 . S
C94 C93 1.419 . S
C94 C95 1.391 . S
C94 C98 1.397 . S
C95 C90 1.391 . S
C95 C94 1.391 . S
C95 C96 1.399 . S
C96 C95 1.399 . S
C96 C97 1.396 . S
C96 C99 1.453 . S
C96 C100 1.684 . S
C97 C87 1.723 . S
C97 C96 1.396 . S
C97 C98 1.394 . S
C98 C68 1.723 . S
C98 C94 1.397 . S
C98 C97 1.394 . S
C99 H71 0.982 . S
C99 H75 0.979 . S
C99 H76 0.977 . S
C99 C96 1.453 . S
C100 H72 0.979 . S
C100 H73 0.980 . S
C100 H74 0.983 . S
C100 C96 1.684 . S
H101 C119 0.948 . S
H102 C60 0.948 . S
H103 C78 0.979 . S
H104 C78 0.980 . S
H105 C78 0.983 . S
H106 C77 0.982 . S
H107 C77 0.979 . S
H108 C77 0.977 . S
H109 C79 0.948 . S
H110 C81 0.947 . S
H111 C82 0.948 . S
H112 C88 0.982 . S
H113 C88 0.979 . S
H114 C88 0.977 . S
H115 C89 0.979 . S
H116 C89 0.980 . S
H117 C89 0.983 . S
H118 C62 0.947 . S
C119 C62 1.392 . S
C119 C63 1.419 . S
C119 H101 0.948 . S
C120 C121 1.391 . S
C120 C124 1.391 . S
C120 H162 0.948 . S
C121 C120 1.391 . S
C121 C122 1.391 . S
C122 C121 1.391 . S
C122 H178 0.947 . S
C122 C179 1.392 . S
C123 C124 1.391 . S
C123 C127 1.397 . S
C123 C179 1.419 . S
C124 C120 1.391 . S
C124 C123 1.391 . S
C124 C125 1.399 . S
C125 C124 1.399 . S
C125 C128 1.396 . S
C125 C137 1.453 . S
C125 C138 1.684 . S
H126 C150 0.948 . S
C127 C123 1.397 . S
C127 C128 1.394 . S
C127 C146 1.723 . S
C128 C125 1.396 . S
C128 C127 1.394 . S
C128 C158 1.723 . S
H129 C152 0.947 . S
H130 C153 0.948 . S
H131 C159 0.982 . S
H132 C160 0.979 . S
H133 C160 0.980 . S
H134 C160 0.983 . S
H135 C159 0.979 . S
H136 C159 0.977 . S
C137 C125 1.453 . S
C137 H166 0.982 . S
C137 H167 0.979 . S
C137 H168 0.977 . S
C138 C125 1.684 . S
C138 H163 0.979 . S
C138 H164 0.980 . S
C138 H165 0.983 . S
C139 C140 1.391 . S
C139 C144 1.391 . S
C139 H169 0.948 . S
C140 C139 1.391 . S
C140 C141 1.391 . S
C141 C140 1.391 . S
C141 C142 1.392 . S
C141 H170 0.947 . S
C142 C141 1.392 . S
C142 C143 1.419 . S
C142 H171 0.948 . S
C143 C142 1.419 . S
C143 C144 1.391 . S
C143 C147 1.397 . S
C144 C139 1.391 . S
C144 C143 1.391 . S
C144 C145 1.399 . S
C145 C144 1.399 . S
C145 C146 1.396 . S
C145 C148 1.453 . S
C145 C149 1.684 . S
C146 C127 1.723 . S
C146 C145 1.396 . S
C146 C147 1.394 . S
C147 C143 1.397 . S
C147 C146 1.394 . S
C147 C157 1.723 . S
C148 C145 1.453 . S
C148 H172 0.982 . S
C148 H173 0.979 . S
C148 H174 0.977 . S
C149 C145 1.684 . S
C149 H175 0.979 . S
C149 H176 0.980 . S
C149 H177 0.983 . S
C150 H126 0.948 . S
C150 C151 1.391 . S
C150 C155 1.391 . S
C151 C150 1.391 . S
C151 C152 1.391 . S
C152 H129 0.947 . S
C152 C151 1.391 . S
C152 C153 1.392 . S
C153 H130 0.948 . S
C153 C152 1.392 . S
C153 C154 1.419 . S
C154 C153 1.419 . S
C154 C155 1.391 . S
C154 C158 1.397 . S
C155 C150 1.391 . S
C155 C154 1.391 . S
C155 C156 1.399 . S
C156 C155 1.399 . S
C156 C157 1.396 . S
C156 C159 1.453 . S
C156 C160 1.684 . S
C157 C147 1.723 . S
C157 C156 1.396 . S
C157 C158 1.394 . S
C158 C128 1.723 . S
C158 C154 1.397 . S
C158 C157 1.394 . S
C159 H131 0.982 . S
C159 H135 0.979 . S
C159 H136 0.977 . S
C159 C156 1.453 . S
C160 H132 0.979 . S
C160 H133 0.980 . S
C160 H134 0.983 . S
C160 C156 1.684 . S
H161 C179 0.948 . S
H162 C120 0.948 . S
H163 C138 0.979 . S
H164 C138 0.980 . S
H165 C138 0.983 . S
H166 C137 0.982 . S
H167 C137 0.979 . S
H168 C137 0.977 . S
H169 C139 0.948 . S
H170 C141 0.947 . S
H171 C142 0.948 . S
H172 C148 0.982 . S
H173 C148 0.979 . S
H174 C148 0.977 . S
H175 C149 0.979 . S
H176 C149 0.980 . S
H177 C149 0.983 . S
H178 C122 0.947 . S
C179 C122 1.392 . S
C179 C123 1.419 . S
C179 H161 0.948 . S
C180 C181 1.391 . S
C180 C184 1.391 . S
C180 H222 0.948 . S
C181 C180 1.391 . S
C181 C182 1.391 . S
C182 C181 1.391 . S
C182 H238 0.947 . S
C182 C239 1.392 . S
C183 C184 1.391 . S
C183 C187 1.397 . S
C183 C239 1.419 . S
C184 C180 1.391 . S
C184 C183 1.391 . S
C184 C185 1.399 . S
C185 C184 1.399 . S
C185 C188 1.396 . S
C185 C197 1.453 . S
C185 C198 1.684 . S
H186 C210 0.948 . S
C187 C183 1.397 . S
C187 C188 1.394 . S
C187 C206 1.723 . S
C188 C185 1.396 . S
C188 C187 1.394 . S
C188 C218 1.723 . S
H189 C212 0.947 . S
H190 C213 0.948 . S
H191 C219 0.982 . S
H192 C220 0.979 . S
H193 C220 0.980 . S
H194 C220 0.983 . S
H195 C219 0.979 . S
H196 C219 0.977 . S
C197 C185 1.453 . S
C197 H226 0.982 . S
C197 H227 0.979 . S
C197 H228 0.977 . S
C198 C185 1.684 . S
C198 H223 0.979 . S
C198 H224 0.980 . S
C198 H225 0.983 . S
C199 C200 1.391 . S
C199 C204 1.391 . S
C199 H229 0.948 . S
C200 C199 1.391 . S
C200 C201 1.391 . S
C201 C200 1.391 . S
C201 C202 1.392 . S
C201 H230 0.947 . S
C202 C201 1.392 . S
C202 C203 1.419 . S
C202 H231 0.948 . S
C203 C202 1.419 . S
C203 C204 1.391 . S
C203 C207 1.397 . S
C204 C199 1.391 . S
C204 C203 1.391 . S
C204 C205 1.399 . S
C205 C204 1.399 . S
C205 C206 1.396 . S
C205 C208 1.453 . S
C205 C209 1.684 . S
C206 C187 1.723 . S
C206 C205 1.396 . S
C206 C207 1.394 . S
C207 C203 1.397 . S
C207 C206 1.394 . S
C207 C217 1.723 . S
C208 C205 1.453 . S
C208 H232 0.982 . S
C208 H233 0.979 . S
C208 H234 0.977 . S
C209 C205 1.684 . S
C209 H235 0.979 . S
C209 H236 0.980 . S
C209 H237 0.983 . S
C210 H186 0.948 . S
C210 C211 1.391 . S
C210 C215 1.391 . S
C211 C210 1.391 . S
C211 C212 1.391 . S
C212 H189 0.947 . S
C212 C211 1.391 . S
C212 C213 1.392 . S
C213 H190 0.948 . S
C213 C212 1.392 . S
C213 C214 1.419 . S
C214 C213 1.419 . S
C214 C215 1.391 . S
C214 C218 1.397 . S
C215 C210 1.391 . S
C215 C214 1.391 . S
C215 C216 1.399 . S
C216 C215 1.399 . S
C216 C217 1.396 . S
C216 C219 1.453 . S
C216 C220 1.684 . S
C217 C207 1.723 . S
C217 C216 1.396 . S
C217 C218 1.394 . S
C218 C188 1.723 . S
C218 C214 1.397 . S
C218 C217 1.394 . S
C219 H191 0.982 . S
C219 H195 0.979 . S
C219 H196 0.977 . S
C219 C216 1.453 . S
C220 H192 0.979 . S
C220 H193 0.980 . S
C220 H194 0.983 . S
C220 C216 1.684 . S
H221 C239 0.948 . S
H222 C180 0.948 . S
H223 C198 0.979 . S
H224 C198 0.980 . S
H225 C198 0.983 . S
H226 C197 0.982 . S
H227 C197 0.979 . S
H228 C197 0.977 . S
H229 C199 0.948 . S
H230 C201 0.947 . S
H231 C202 0.948 . S
H232 C208 0.982 . S
H233 C208 0.979 . S
H234 C208 0.977 . S
H235 C209 0.979 . S
H236 C209 0.980 . S
H237 C209 0.983 . S
H238 C182 0.947 . S
C239 C182 1.392 . S
C239 C183 1.419 . S
C239 H221 0.948 . S
C240 C241 1.391 . S
C240 C244 1.391 . S
C240 H282 0.948 . S
C241 C240 1.391 . S
C241 C242 1.391 . S
C242 C241 1.391 . S
C242 H298 0.947 . S
C242 C299 1.392 . S
C243 C244 1.391 . S
C243 C247 1.397 . S
C243 C299 1.419 . S
C244 C240 1.391 . S
C244 C243 1.391 . S
C244 C245 1.399 . S
C245 C244 1.399 . S
C245 C248 1.396 . S
C245 C257 1.453 . S
C245 C258 1.684 . S
H246 C270 0.948 . S
C247 C243 1.397 . S
C247 C248 1.394 . S
C247 C266 1.723 . S
C248 C245 1.396 . S
C248 C247 1.394 . S
C248 C278 1.723 . S
H249 C272 0.947 . S
H250 C273 0.948 . S
H251 C279 0.982 . S
H252 C280 0.979 . S
H253 C280 0.980 . S
H254 C280 0.983 . S
H255 C279 0.979 . S
H256 C279 0.977 . S
C257 C245 1.453 . S
C257 H286 0.982 . S
C257 H287 0.979 . S
C257 H288 0.977 . S
C258 C245 1.684 . S
C258 H283 0.979 . S
C258 H284 0.980 . S
C258 H285 0.983 . S
C259 C260 1.391 . S
C259 C264 1.391 . S
C259 H289 0.948 . S
C260 C259 1.391 . S
C260 C261 1.391 . S
C261 C260 1.391 . S
C261 C262 1.392 . S
C261 H290 0.947 . S
C262 C261 1.392 . S
C262 C263 1.419 . S
C262 H291 0.948 . S
C263 C262 1.419 . S
C263 C264 1.391 . S
C263 C267 1.397 . S
C264 C259 1.391 . S
C264 C263 1.391 . S
C264 C265 1.399 . S
C265 C264 1.399 . S
C265 C266 1.396 . S
C265 C268 1.453 . S
C265 C269 1.684 . S
C266 C247 1.723 . S
C266 C265 1.396 . S
C266 C267 1.394 . S
C267 C263 1.397 . S
C267 C266 1.394 . S
C267 C277 1.723 . S
C268 C265 1.453 . S
C268 H292 0.982 . S
C268 H293 0.979 . S
C268 H294 0.977 . S
C269 C265 1.684 . S
C269 H295 0.979 . S
C269 H296 0.980 . S
C269 H297 0.983 . S
C270 H246 0.948 . S
C270 C271 1.391 . S
C270 C275 1.391 . S
C271 C270 1.391 . S
C271 C272 1.391 . S
C272 H249 0.947 . S
C272 C271 1.391 . S
C272 C273 1.392 . S
C273 H250 0.948 . S
C273 C272 1.392 . S
C273 C274 1.419 . S
C274 C273 1.419 . S
C274 C275 1.391 . S
C274 C278 1.397 . S
C275 C270 1.391 . S
C275 C274 1.391 . S
C275 C276 1.399 . S
C276 C275 1.399 . S
C276 C277 1.396 . S
C276 C279 1.453 . S
C276 C280 1.684 . S
C277 C267 1.723 . S
C277 C276 1.396 . S
C277 C278 1.394 . S
C278 C248 1.723 . S
C278 C274 1.397 . S
C278 C277 1.394 . S
C279 H251 0.982 . S
C279 H255 0.979 . S
C279 H256 0.977 . S
C279 C276 1.453 . S
C280 H252 0.979 . S
C280 H253 0.980 . S
C280 H254 0.983 . S
C280 C276 1.684 . S
H281 C299 0.948 . S
H282 C240 0.948 . S
H283 C258 0.979 . S
H284 C258 0.980 . S
H285 C258 0.983 . S
H286 C257 0.982 . S
H287 C257 0.979 . S
H288 C257 0.977 . S
H289 C259 0.948 . S
H290 C261 0.947 . S
H291 C262 0.948 . S
H292 C268 0.982 . S
H293 C268 0.979 . S
H294 C268 0.977 . S
H295 C269 0.979 . S
H296 C269 0.980 . S
H297 C269 0.983 . S
H298 C242 0.947 . S
C299 C242 1.392 . S
C299 C243 1.419 . S
C299 H281 0.948 . S
C300 C301 1.391 . S
C300 C304 1.391 . S
C300 H342 0.948 . S
C301 C300 1.391 . S
C301 C302 1.391 . S
C302 C301 1.391 . S
C302 H358 0.947 . S
C302 C359 1.392 . S
C303 C304 1.391 . S
C303 C307 1.397 . S
C303 C359 1.419 . S
C304 C300 1.391 . S
C304 C303 1.391 . S
C304 C305 1.399 . S
C305 C304 1.399 . S
C305 C308 1.396 . S
C305 C317 1.453 . S
C305 C318 1.684 . S
H306 C330 0.948 . S
C307 C303 1.397 . S
C307 C308 1.394 . S
C307 C326 1.723 . S
C308 C305 1.396 . S
C308 C307 1.394 . S
C308 C338 1.723 . S
H309 C332 0.947 . S
H310 C333 0.948 . S
H311 C339 0.982 . S
H312 C340 0.979 . S
H313 C340 0.980 . S
H314 C340 0.983 . S
H315 C339 0.979 . S
H316 C339 0.977 . S
C317 C305 1.453 . S
C317 H346 0.982 . S
C317 H347 0.979 . S
C317 H348 0.977 . S
C318 C305 1.684 . S
C318 H343 0.979 . S
C318 H344 0.980 . S
C318 H345 0.983 . S
C319 C320 1.391 . S
C319 C324 1.391 . S
C319 H349 0.948 . S
C320 C319 1.391 . S
C320 C321 1.391 . S
C321 C320 1.391 . S
C321 C322 1.392 . S
C321 H350 0.947 . S
C322 C321 1.392 . S
C322 C323 1.419 . S
C322 H351 0.948 . S
C323 C322 1.419 . S
C323 C324 1.391 . S
C323 C327 1.397 . S
C324 C319 1.391 . S
C324 C323 1.391 . S
C324 C325 1.399 . S
C325 C324 1.399 . S
C325 C326 1.396 . S
C325 C328 1.453 . S
C325 C329 1.684 . S
C326 C307 1.723 . S
C326 C325 1.396 . S
C326 C327 1.394 . S
C327 C323 1.397 . S
C327 C326 1.394 . S
C327 C337 1.723 . S
C328 C325 1.453 . S
C328 H352 0.982 . S
C328 H353 0.979 . S
C328 H354 0.977 . S
C329 C325 1.684 . S
C329 H355 0.979 . S
C329 H356 0.980 . S
C329 H357 0.983 . S
C330 H306 0.948 . S
C330 C331 1.391 . S
C330 C335 1.391 . S
C331 C330 1.391 . S
C331 C332 1.391 . S
C332 H309 0.947 . S
C332 C331 1.391 . S
C332 C333 1.392 . S
C333 H310 0.948 . S
C333 C332 1.392 . S
C333 C334 1.419 . S
C334 C333 1.419 . S
C334 C335 1.391 . S
C334 C338 1.397 . S
C335 C330 1.391 . S
C335 C334 1.391 . S
C335 C336 1.399 . S
C336 C335 1.399 . S
C336 C337 1.396 . S
C336 C339 1.453 . S
C336 C340 1.684 . S
C337 C327 1.723 . S
C337 C336 1.396 . S
C337 C338 1.394 . S
C338 C308 1.723 . S
C338 C334 1.397 . S
C338 C337 1.394 . S
C339 H311 0.982 . S
C339 H315 0.979 . S
C339 H316 0.977 . S
C339 C336 1.453 . S
C340 H312 0.979 . S
C340 H313 0.980 . S
C340 H314 0.983 . S
C340 C336 1.684 . S
H341 C359 0.948 . S
H342 C300 0.948 . S
H343 C318 0.979 . S
H344 C318 0.980 . S
H345 C318 0.983 . S
H346 C317 0.982 . S
H347 C317 0.979 . S
H348 C317 0.977 . S
H349 C319 0.948 . S
H350 C321 0.947 . S
H351 C322 0.948 . S
H352 C328 0.982 . S
H353 C328 0.979 . S
H354 C328 0.977 . S
H355 C329 0.979 . S
H356 C329 0.980 . S
H357 C329 0.983 . S
H358 C302 0.947 . S
C359 C302 1.392 . S
C359 C303 1.419 . S
C359 H341 0.948 . S
C360 C361 1.391 . S
C360 C364 1.391 . S
C360 H402 0.948 . S
C361 C360 1.391 . S
C361 C362 1.391 . S
C362 C361 1.391 . S
C362 H418 0.947 . S
C362 C419 1.392 . S
C363 C364 1.391 . S
C363 C367 1.397 . S
C363 C419 1.419 . S
C364 C360 1.391 . S
C364 C363 1.391 . S
C364 C365 1.399 . S
C365 C364 1.399 . S
C365 C368 1.396 . S
C365 C377 1.453 . S
C365 C378 1.684 . S
H366 C390 0.948 . S
C367 C363 1.397 . S
C367 C368 1.394 . S
C367 C386 1.723 . S
C368 C365 1.396 . S
C368 C367 1.394 . S
C368 C398 1.723 . S
H369 C392 0.947 . S
H370 C393 0.948 . S
H371 C399 0.982 . S
H372 C400 0.979 . S
H373 C400 0.980 . S
H374 C400 0.983 . S
H375 C399 0.979 . S
H376 C399 0.977 . S
C377 C365 1.453 . S
C377 H406 0.982 . S
C377 H407 0.979 . S
C377 H408 0.977 . S
C378 C365 1.684 . S
C378 H403 0.979 . S
C378 H404 0.980 . S
C378 H405 0.983 . S
C379 C380 1.391 . S
C379 C384 1.391 . S
C379 H409 0.948 . S
C380 C379 1.391 . S
C380 C381 1.391 . S
C381 C380 1.391 . S
C381 C382 1.392 . S
C381 H410 0.947 . S
C382 C381 1.392 . S
C382 C383 1.419 . S
C382 H411 0.948 . S
C383 C382 1.419 . S
C383 C384 1.391 . S
C383 C387 1.397 . S
C384 C379 1.391 . S
C384 C383 1.391 . S
C384 C385 1.399 . S
C385 C384 1.399 . S
C385 C386 1.396 . S
C385 C388 1.453 . S
C385 C389 1.684 . S
C386 C367 1.723 . S
C386 C385 1.396 . S
C386 C387 1.394 . S
C387 C383 1.397 . S
C387 C386 1.394 . S
C387 C397 1.723 . S
C388 C385 1.453 . S
C388 H412 0.982 . S
C388 H413 0.979 . S
C388 H414 0.977 . S
C389 C385 1.684 . S
C389 H415 0.979 . S
C389 H416 0.980 . S
C389 H417 0.983 . S
C390 H366 0.948 . S
C390 C391 1.391 . S
C390 C395 1.391 . S
C391 C390 1.391 . S
C391 C392 1.391 . S
C392 H369 0.947 . S
C392 C391 1.391 . S
C392 C393 1.392 . S
C393 H370 0.948 . S
C393 C392 1.392 . S
C393 C394 1.419 . S
C394 C393 1.419 . S
C394 C395 1.391 . S
C394 C398 1.397 . S
C395 C390 1.391 . S
C395 C394 1.391 . S
C395 C396 1.399 . S
C396 C395 1.399 . S
C396 C397 1.396 . S
C396 C399 1.453 . S
C396 C400 1.684 . S
C397 C387 1.723 . S
C397 C396 1.396 . S
C397 C398 1.394 . S
C398 C368 1.723 . S
C398 C394 1.397 . S
C398 C397 1.394 . S
C399 H371 0.982 . S
C399 H375 0.979 . S
C399 H376 0.977 . S
C399 C396 1.453 . S
C400 H372 0.979 . S
C400 H373 0.980 . S
C400 H374 0.983 . S
C400 C396 1.684 . S
H401 C419 0.948 . S
H402 C360 0.948 . S
H403 C378 0.979 . S
H404 C378 0.980 . S
H405 C378 0.983 . S
H406 C377 0.982 . S
H407 C377 0.979 . S
H408 C377 0.977 . S
H409 C379 0.948 . S
H410 C381 0.947 . S
H411 C382 0.948 . S
H412 C388 0.982 . S
H413 C388 0.979 . S
H414 C388 0.977 . S
H415 C389 0.979 . S
H416 C389 0.980 . S
H417 C389 0.983 . S
H418 C362 0.947 . S
C419 C362 1.392 . S
C419 C363 1.419 . S
C419 H401 0.948 . S
C420 C421 1.391 . S
C420 C424 1.391 . S
C420 H462 0.948 . S
C421 C420 1.391 . S
C421 C422 1.391 . S
C422 C421 1.391 . S
C422 H478 0.947 . S
C422 C479 1.392 . S
C423 C424 1.391 . S
C423 C427 1.397 . S
C423 C479 1.419 . S
C424 C420 1.391 . S
C424 C423 1.391 . S
C424 C425 1.399 . S
C425 C424 1.399 . S
C425 C428 1.396 . S
C425 C437 1.453 . S
C425 C438 1.684 . S
H426 C450 0.948 . S
C427 C423 1.397 . S
C427 C428 1.394 . S
C427 C446 1.723 . S
C428 C425 1.396 . S
C428 C427 1.394 . S
C428 C458 1.723 . S
H429 C452 0.947 . S
H430 C453 0.948 . S
H431 C459 0.982 . S
H432 C460 0.979 . S
H433 C460 0.980 . S
H434 C460 0.983 . S
H435 C459 0.979 . S
H436 C459 0.977 . S
C437 C425 1.453 . S
C437 H466 0.982 . S
C437 H467 0.979 . S
C437 H468 0.977 . S
C438 C425 1.684 . S
C438 H463 0.979 . S
C438 H464 0.980 . S
C438 H465 0.983 . S
C439 C440 1.391 . S
C439 C444 1.391 . S
C439 H469 0.948 . S
C440 C439 1.391 . S
C440 C441 1.391 . S
C441 C440 1.391 . S
C441 C442 1.392 . S
C441 H470 0.947 . S
C442 C441 1.392 . S
C442 C443 1.419 . S
C442 H471 0.948 . S
C443 C442 1.419 . S
C443 C444 1.391 . S
C443 C447 1.397 . S
C444 C439 1.391 . S
C444 C443 1.391 . S
C444 C445 1.399 . S
C445 C444 1.399 . S
C445 C446 1.396 . S
C445 C448 1.453 . S
C445 C449 1.684 . S
C446 C427 1.723 . S
C446 C445 1.396 . S
C446 C447 1.394 . S
C447 C443 1.397 . S
C447 C446 1.394 . S
C447 C457 1.723 . S
C448 C445 1.453 . S
C448 H472 0.982 . S
C448 H473 0.979 . S
C448 H474 0.977 . S
C449 C445 1.684 . S
C449 H475 0.979 . S
C449 H476 0.980 . S
C449 H477 0.983 . S
C450 H426 0.948 . S
C450 C451 1.391 . S
C450 C455 1.391 . S
C451 C450 1.391 . S
C451 C452 1.391 . S
C452 H429 0.947 . S
C452 C451 1.391 . S
C452 C453 1.392 . S
C453 H430 0.948 . S
C453 C452 1.392 . S
C453 C454 1.419 . S
C454 C453 1.419 . S
C454 C455 1.391 . S
C454 C458 1.397 . S
C455 C450 1.391 . S
C455 C454 1.391 . S
C455 C456 1.399 . S
C456 C455 1.399 . S
C456 C457 1.396 . S
C456 C459 1.453 . S
C456 C460 1.684 . S
C457 C447 1.723 . S
C457 C456 1.396 . S
C457 C458 1.394 . S
C458 C428 1.723 . S
C458 C454 1.397 . S
C458 C457 1.394 . S
C459 H431 0.982 . S
C459 H435 0.979 . S
C459 H436 0.977 . S
C459 C456 1.453 . S
C460 H432 0.979 . S
C460 H433 0.980 . S
C460 H434 0.983 . S
C460 C456 1.684 . S
H461 C479 0.948 . S
H462 C420 0.948 . S
H463 C438 0.979 . S
H464 C438 0.980 . S
H465 C438 0.983 . S
H466 C437 0.982 . S
H467 C437 0.979 . S
H468 C437 0.977 . S
H469 C439 0.948 . S
H470 C441 0.947 . S
H471 C442 0.948 . S
H472 C448 0.982 . S
H473 C448 0.979 . S
H474 C448 0.977 . S
H475 C449 0.979 . S
H476 C449 0.980 . S
H477 C449 0.983 . S
H478 C422 0.947 . S
C479 C422 1.392 . S
C479 C423 1.419 . S
C479 H461 0.948 . S
Eu480 N509 2.600 . S
Eu480 N515 2.562 . S
Eu480 O524 2.462 . S
Eu480 O525 2.373 . S
Eu480 O527 2.432 . S
Eu480 O528 2.291 . S
Eu480 O532 2.335 . S
Eu480 O535 2.372 . S
Eu480 C544 2.787 . S
C481 N482 1.365 . S
C481 C484 1.405 . S
C481 C488 1.448 . S
N482 C481 1.365 . S
N482 C485 1.319 . S
N482 Eu491 2.600 . S
C483 C485 1.397 . S
C483 C486 1.367 . S
C483 H503 0.931 . S
C484 C481 1.405 . S
C484 C486 1.403 . S
C484 C490 1.439 . S
C485 N482 1.319 . S
C485 C483 1.397 . S
C485 H496 0.930 . S
C486 C483 1.367 . S
C486 C484 1.403 . S
C486 H507 0.929 . S
C487 C488 1.430 . S
C487 C489 1.387 . S
C487 C493 1.404 . S
C488 C481 1.448 . S
C488 C487 1.430 . S
C488 N492 1.351 . S
C489 C487 1.387 . S
C489 C490 1.374 . S
C489 H504 0.931 . S
C490 C484 1.439 . S
C490 C489 1.374 . S
C490 H505 0.931 . S
Eu491 N482 2.600 . S
Eu491 N492 2.562 . S
Eu491 O526 2.335 1_655 S
Eu491 O529 2.372 . S
Eu491 O530 2.462 . S
Eu491 O531 2.373 . S
Eu491 O533 2.432 . S
Eu491 O534 2.291 1_655 S
Eu491 C555 2.787 . S
N492 C488 1.351 . S
N492 Eu491 2.562 . S
N492 C494 1.325 . S
C493 C487 1.404 . S
C493 C495 1.366 . S
C493 H501 0.930 . S
C494 N492 1.325 . S
C494 C495 1.416 . S
C494 H500 0.929 . S
C495 C493 1.366 . S
C495 C494 1.416 . S
C495 H497 0.930 . S
H496 C485 0.930 . S
H497 C495 0.930 . S
H498 C513 0.930 . S
H499 C520 0.930 . S
H500 C494 0.929 . S
H501 C493 0.930 . S
H502 C516 0.929 . S
H503 C483 0.931 . S
H504 C489 0.931 . S
H505 C490 0.931 . S
H506 C511 0.931 . S
H507 C486 0.929 . S
H508 C519 0.930 . S
N509 Eu480 2.600 . S
N509 C510 1.365 . S
N509 C513 1.319 . S
C510 N509 1.365 . S
C510 C512 1.405 . S
C510 C518 1.448 . S
C511 H506 0.931 . S
C511 C513 1.397 . S
C511 C514 1.367 . S
C512 C510 1.405 . S
C512 C514 1.403 . S
C512 C545 1.439 . S
C513 H498 0.930 . S
C513 N509 1.319 . S
C513 C511 1.397 . S
C514 C511 1.367 . S
C514 C512 1.403 . S
C514 H521 0.929 . S
N515 Eu480 2.562 . S
N515 C516 1.325 . S
N515 C518 1.351 . S
C516 H502 0.929 . S
C516 N515 1.325 . S
C516 C520 1.416 . S
C517 C518 1.430 . S
C517 C519 1.404 . S
C517 C546 1.387 . S
C518 C510 1.448 . S
C518 N515 1.351 . S
C518 C517 1.430 . S
C519 H508 0.930 . S
C519 C517 1.404 . S
C519 C520 1.366 . S
C520 H499 0.930 . S
C520 C516 1.416 . S
C520 C519 1.366 . S
H521 C514 0.929 . S
H522 C545 0.931 . S
H523 C546 0.931 . S
O524 Eu480 2.462 . S
O524 C544 1.252 . S
O525 Eu480 2.373 . S
O525 C536 1.249 . S
O526 Eu491 2.335 1_455 S
O526 C536 1.264 . S
O527 Eu480 2.432 . S
O527 C544 1.268 . S
O528 Eu480 2.291 . S
O528 C543 1.255 1_455 S
O529 Eu491 2.372 . S
O529 C543 1.257 . S
O530 Eu491 2.462 . S
O530 C555 1.252 . S
O531 Eu491 2.373 . S
O531 C547 1.249 . S
O532 Eu480 2.335 . S
O532 C547 1.264 1_455 S
O533 Eu491 2.432 . S
O533 C555 1.268 . S
O534 Eu491 2.291 1_455 S
O534 C554 1.255 . S
O535 Eu480 2.372 . S
O535 C554 1.257 . S
C536 O525 1.249 . S
C536 O526 1.264 . S
C537 C540 1.382 . S
C537 C542 1.390 . S
C537 C544 1.506 . S
C538 C539 1.398 . S
C538 C542 1.392 . S
C539 C538 1.398 . S
C539 C541 1.372 . S
C539 H556 0.931 . S
C540 C537 1.382 . S
C540 C541 1.390 . S
C540 H557 0.931 . S
C541 C539 1.372 . S
C541 C540 1.390 . S
C541 H558 0.929 . S
C542 C537 1.390 . S
C542 C538 1.392 . S
C542 H559 0.930 . S
C543 O528 1.255 1_655 S
C543 O529 1.257 . S
C544 Eu480 2.787 . S
C544 O524 1.252 . S
C544 O527 1.268 . S
C544 C537 1.506 . S
C545 C512 1.439 . S
C545 H522 0.931 . S
C545 C546 1.374 . S
C546 C517 1.387 . S
C546 H523 0.931 . S
C546 C545 1.374 . S
C547 O531 1.249 . S
C547 O532 1.264 1_655 S
C548 C551 1.382 . S
C548 C552 1.390 . S
C548 C555 1.506 . S
C549 C550 1.398 . S
C549 C552 1.392 . S
C550 C549 1.398 . S
C550 C553 1.372 . S
C550 H560 0.931 . S
C551 C548 1.382 . S
C551 C553 1.390 . S
C551 H561 0.931 . S
C552 C548 1.390 . S
C552 C549 1.392 . S
C552 H562 0.930 . S
C553 C550 1.372 . S
C553 C551 1.390 . S
C553 H563 0.929 . S
C554 O534 1.255 . S
C554 O535 1.257 . S
C555 Eu491 2.787 . S
C555 O530 1.252 . S
C555 O533 1.268 . S
C555 C548 1.506 . S
H556 C539 0.931 . S
H557 C540 0.931 . S
H558 C541 0.929 . S
H559 C542 0.930 . S
H560 C550 0.931 . S
H561 C551 0.931 . S
H562 C552 0.930 . S
H563 C553 0.929 . S
Eu564 N593 2.600 . S
Eu564 N599 2.562 . S
Eu564 O608 2.462 . S
Eu564 O609 2.373 . S
Eu564 O611 2.432 . S
Eu564 O612 2.291 . S
Eu564 O616 2.335 . S
Eu564 O619 2.372 . S
Eu564 C628 2.787 . S
C565 N566 1.365 . S
C565 C568 1.405 . S
C565 C572 1.448 . S
N566 C565 1.365 . S
N566 C569 1.319 . S
N566 Eu575 2.600 . S
C567 C569 1.397 . S
C567 C570 1.367 . S
C567 H587 0.931 . S
C568 C565 1.405 . S
C568 C570 1.403 . S
C568 C574 1.439 . S
C569 N566 1.319 . S
C569 C567 1.397 . S
C569 H580 0.930 . S
C570 C567 1.367 . S
C570 C568 1.403 . S
C570 H591 0.929 . S
C571 C572 1.430 . S
C571 C573 1.387 . S
C571 C577 1.404 . S
C572 C565 1.448 . S
C572 C571 1.430 . S
C572 N576 1.351 . S
C573 C571 1.387 . S
C573 C574 1.374 . S
C573 H588 0.931 . S
C574 C568 1.439 . S
C574 C573 1.374 . S
C574 H589 0.931 . S
Eu575 N566 2.600 . S
Eu575 N576 2.562 . S
Eu575 O610 2.335 . S
Eu575 O613 2.372 . S
Eu575 O614 2.462 . S
Eu575 O615 2.373 . S
Eu575 O617 2.432 . S
Eu575 O618 2.291 . S
Eu575 C639 2.787 . S
N576 C572 1.351 . S
N576 Eu575 2.562 . S
N576 C578 1.325 . S
C577 C571 1.404 . S
C577 C579 1.366 . S
C577 H585 0.930 . S
C578 N576 1.325 . S
C578 C579 1.416 . S
C578 H584 0.929 . S
C579 C577 1.366 . S
C579 C578 1.416 . S
C579 H581 0.930 . S
H580 C569 0.930 . S
H581 C579 0.930 . S
H582 C597 0.930 . S
H583 C604 0.930 . S
H584 C578 0.929 . S
H585 C577 0.930 . S
H586 C600 0.929 . S
H587 C567 0.931 . S
H588 C573 0.931 . S
H589 C574 0.931 . S
H590 C595 0.931 . S
H591 C570 0.929 . S
H592 C603 0.930 . S
N593 Eu564 2.600 . S
N593 C594 1.365 . S
N593 C597 1.319 . S
C594 N593 1.365 . S
C594 C596 1.405 . S
C594 C602 1.448 . S
C595 H590 0.931 . S
C595 C597 1.397 . S
C595 C598 1.367 . S
C596 C594 1.405 . S
C596 C598 1.403 . S
C596 C629 1.439 . S
C597 H582 0.930 . S
C597 N593 1.319 . S
C597 C595 1.397 . S
C598 C595 1.367 . S
C598 C596 1.403 . S
C598 H605 0.929 . S
N599 Eu564 2.562 . S
N599 C600 1.325 . S
N599 C602 1.351 . S
C600 H586 0.929 . S
C600 N599 1.325 . S
C600 C604 1.416 . S
C601 C602 1.430 . S
C601 C603 1.404 . S
C601 C630 1.387 . S
C602 C594 1.448 . S
C602 N599 1.351 . S
C602 C601 1.430 . S
C603 H592 0.930 . S
C603 C601 1.404 . S
C603 C604 1.366 . S
C604 H583 0.930 . S
C604 C600 1.416 . S
C604 C603 1.366 . S
H605 C598 0.929 . S
H606 C629 0.931 . S
H607 C630 0.931 . S
O608 Eu564 2.462 . S
O608 C628 1.252 . S
O609 Eu564 2.373 . S
O609 C620 1.249 . S
O610 Eu575 2.335 . S
O610 C620 1.264 . S
O611 Eu564 2.432 . S
O611 C628 1.268 . S
O612 Eu564 2.291 . S
O612 C627 1.255 . S
O613 Eu575 2.372 . S
O613 C627 1.257 . S
O614 Eu575 2.462 . S
O614 C639 1.252 . S
O615 Eu575 2.373 . S
O615 C631 1.249 . S
O616 Eu564 2.335 . S
O616 C631 1.264 . S
O617 Eu575 2.432 . S
O617 C639 1.268 . S
O618 Eu575 2.291 . S
O618 C638 1.255 . S
O619 Eu564 2.372 . S
O619 C638 1.257 . S
C620 O609 1.249 . S
C620 O610 1.264 . S
C621 C624 1.382 . S
C621 C626 1.390 . S
C621 C628 1.506 . S
C622 C623 1.398 . S
C622 C626 1.392 . S
C623 C622 1.398 . S
C623 C625 1.372 . S
C623 H640 0.931 . S
C624 C621 1.382 . S
C624 C625 1.390 . S
C624 H641 0.931 . S
C625 C623 1.372 . S
C625 C624 1.390 . S
C625 H642 0.929 . S
C626 C621 1.390 . S
C626 C622 1.392 . S
C626 H643 0.930 . S
C627 O612 1.255 . S
C627 O613 1.257 . S
C628 Eu564 2.787 . S
C628 O608 1.252 . S
C628 O611 1.268 . S
C628 C621 1.506 . S
C629 C596 1.439 . S
C629 H606 0.931 . S
C629 C630 1.374 . S
C630 C601 1.387 . S
C630 H607 0.931 . S
C630 C629 1.374 . S
C631 O615 1.249 . S
C631 O616 1.264 . S
C632 C635 1.382 . S
C632 C636 1.390 . S
C632 C639 1.506 . S
C633 C634 1.398 . S
C633 C636 1.392 . S
C634 C633 1.398 . S
C634 C637 1.372 . S
C634 H644 0.931 . S
C635 C632 1.382 . S
C635 C637 1.390 . S
C635 H645 0.931 . S
C636 C632 1.390 . S
C636 C633 1.392 . S
C636 H646 0.930 . S
C637 C634 1.372 . S
C637 C635 1.390 . S
C637 H647 0.929 . S
C638 O618 1.255 . S
C638 O619 1.257 . S
C639 Eu575 2.787 . S
C639 O614 1.252 . S
C639 O617 1.268 . S
C639 C632 1.506 . S
H640 C623 0.931 . S
H641 C624 0.931 . S
H642 C625 0.929 . S
H643 C626 0.930 . S
H644 C634 0.931 . S
H645 C635 0.931 . S
H646 C636 0.930 . S
H647 C637 0.929 . S
Eu648 N677 2.600 . S
Eu648 N683 2.562 . S
Eu648 O692 2.462 . S
Eu648 O693 2.373 . S
Eu648 O695 2.432 . S
Eu648 O696 2.291 . S
Eu648 O700 2.335 . S
Eu648 O703 2.372 . S
Eu648 C712 2.787 . S
C649 N650 1.365 . S
C649 C652 1.405 . S
C649 C656 1.448 . S
N650 C649 1.365 . S
N650 C653 1.319 . S
N650 Eu659 2.600 . S
C651 C653 1.397 . S
C651 C654 1.367 . S
C651 H671 0.931 . S
C652 C649 1.405 . S
C652 C654 1.403 . S
C652 C658 1.439 . S
C653 N650 1.319 . S
C653 C651 1.397 . S
C653 H664 0.930 . S
C654 C651 1.367 . S
C654 C652 1.403 . S
C654 H675 0.929 . S
C655 C656 1.430 . S
C655 C657 1.387 . S
C655 C661 1.404 . S
C656 C649 1.448 . S
C656 C655 1.430 . S
C656 N660 1.351 . S
C657 C655 1.387 . S
C657 C658 1.374 . S
C657 H672 0.931 . S
C658 C652 1.439 . S
C658 C657 1.374 . S
C658 H673 0.931 . S
Eu659 N650 2.600 . S
Eu659 N660 2.562 . S
Eu659 O694 2.335 1_655 S
Eu659 O697 2.372 . S
Eu659 O698 2.462 . S
Eu659 O699 2.373 . S
Eu659 O701 2.432 . S
Eu659 O702 2.291 1_655 S
Eu659 C723 2.787 . S
N660 C656 1.351 . S
N660 Eu659 2.562 . S
N660 C662 1.325 . S
C661 C655 1.404 . S
C661 C663 1.366 . S
C661 H669 0.930 . S
C662 N660 1.325 . S
C662 C663 1.416 . S
C662 H668 0.929 . S
C663 C661 1.366 . S
C663 C662 1.416 . S
C663 H665 0.930 . S
H664 C653 0.930 . S
H665 C663 0.930 . S
H666 C681 0.930 . S
H667 C688 0.930 . S
H668 C662 0.929 . S
H669 C661 0.930 . S
H670 C684 0.929 . S
H671 C651 0.931 . S
H672 C657 0.931 . S
H673 C658 0.931 . S
H674 C679 0.931 . S
H675 C654 0.929 . S
H676 C687 0.930 . S
N677 Eu648 2.600 . S
N677 C678 1.365 . S
N677 C681 1.319 . S
C678 N677 1.365 . S
C678 C680 1.405 . S
C678 C686 1.448 . S
C679 H674 0.931 . S
C679 C681 1.397 . S
C679 C682 1.367 . S
C680 C678 1.405 . S
C680 C682 1.403 . S
C680 C713 1.439 . S
C681 H666 0.930 . S
C681 N677 1.319 . S
C681 C679 1.397 . S
C682 C679 1.367 . S
C682 C680 1.403 . S
C682 H689 0.929 . S
N683 Eu648 2.562 . S
N683 C684 1.325 . S
N683 C686 1.351 . S
C684 H670 0.929 . S
C684 N683 1.325 . S
C684 C688 1.416 . S
C685 C686 1.430 . S
C685 C687 1.404 . S
C685 C714 1.387 . S
C686 C678 1.448 . S
C686 N683 1.351 . S
C686 C685 1.430 . S
C687 H676 0.930 . S
C687 C685 1.404 . S
C687 C688 1.366 . S
C688 H667 0.930 . S
C688 C684 1.416 . S
C688 C687 1.366 . S
H689 C682 0.929 . S
H690 C713 0.931 . S
H691 C714 0.931 . S
O692 Eu648 2.462 . S
O692 C712 1.252 . S
O693 Eu648 2.373 . S
O693 C704 1.249 . S
O694 Eu659 2.335 1_455 S
O694 C704 1.264 . S
O695 Eu648 2.432 . S
O695 C712 1.268 . S
O696 Eu648 2.291 . S
O696 C711 1.255 1_455 S
O697 Eu659 2.372 . S
O697 C711 1.257 . S
O698 Eu659 2.462 . S
O698 C723 1.252 . S
O699 Eu659 2.373 . S
O699 C715 1.249 . S
O700 Eu648 2.335 . S
O700 C715 1.264 1_455 S
O701 Eu659 2.432 . S
O701 C723 1.268 . S
O702 Eu659 2.291 1_455 S
O702 C722 1.255 . S
O703 Eu648 2.372 . S
O703 C722 1.257 . S
C704 O693 1.249 . S
C704 O694 1.264 . S
C705 C708 1.382 . S
C705 C710 1.390 . S
C705 C712 1.506 . S
C706 C707 1.398 . S
C706 C710 1.392 . S
C707 C706 1.398 . S
C707 C709 1.372 . S
C707 H724 0.931 . S
C708 C705 1.382 . S
C708 C709 1.390 . S
C708 H725 0.931 . S
C709 C707 1.372 . S
C709 C708 1.390 . S
C709 H726 0.929 . S
C710 C705 1.390 . S
C710 C706 1.392 . S
C710 H727 0.930 . S
C711 O696 1.255 1_655 S
C711 O697 1.257 . S
C712 Eu648 2.787 . S
C712 O692 1.252 . S
C712 O695 1.268 . S
C712 C705 1.506 . S
C713 C680 1.439 . S
C713 H690 0.931 . S
C713 C714 1.374 . S
C714 C685 1.387 . S
C714 H691 0.931 . S
C714 C713 1.374 . S
C715 O699 1.249 . S
C715 O700 1.264 1_655 S
C716 C719 1.382 . S
C716 C720 1.390 . S
C716 C723 1.506 . S
C717 C718 1.398 . S
C717 C720 1.392 . S
C718 C717 1.398 . S
C718 C721 1.372 . S
C718 H728 0.931 . S
C719 C716 1.382 . S
C719 C721 1.390 . S
C719 H729 0.931 . S
C720 C716 1.390 . S
C720 C717 1.392 . S
C720 H730 0.930 . S
C721 C718 1.372 . S
C721 C719 1.390 . S
C721 H731 0.929 . S
C722 O702 1.255 . S
C722 O703 1.257 . S
C723 Eu659 2.787 . S
C723 O698 1.252 . S
C723 O701 1.268 . S
C723 C716 1.506 . S
H724 C707 0.931 . S
H725 C708 0.931 . S
H726 C709 0.929 . S
H727 C710 0.930 . S
H728 C718 0.931 . S
H729 C719 0.931 . S
H730 C720 0.930 . S
H731 C721 0.929 . S
Eu732 N761 2.600 . S
Eu732 N767 2.562 . S
Eu732 O776 2.462 . S
Eu732 O777 2.373 . S
Eu732 O779 2.432 . S
Eu732 O780 2.291 . S
Eu732 O784 2.335 . S
Eu732 O787 2.372 . S
Eu732 C796 2.787 . S
C733 N734 1.365 . S
C733 C736 1.405 . S
C733 C740 1.448 . S
N734 C733 1.365 . S
N734 C737 1.319 . S
N734 Eu743 2.600 . S
C735 C737 1.397 . S
C735 C738 1.367 . S
C735 H755 0.931 . S
C736 C733 1.405 . S
C736 C738 1.403 . S
C736 C742 1.439 . S
C737 N734 1.319 . S
C737 C735 1.397 . S
C737 H748 0.930 . S
C738 C735 1.367 . S
C738 C736 1.403 . S
C738 H759 0.929 . S
C739 C740 1.430 . S
C739 C741 1.387 . S
C739 C745 1.404 . S
C740 C733 1.448 . S
C740 C739 1.430 . S
C740 N744 1.351 . S
C741 C739 1.387 . S
C741 C742 1.374 . S
C741 H756 0.931 . S
C742 C736 1.439 . S
C742 C741 1.374 . S
C742 H757 0.931 . S
Eu743 N734 2.600 . S
Eu743 N744 2.562 . S
Eu743 O778 2.335 . S
Eu743 O781 2.372 . S
Eu743 O782 2.462 . S
Eu743 O783 2.373 . S
Eu743 O785 2.432 . S
Eu743 O786 2.291 . S
Eu743 C807 2.787 . S
N744 C740 1.351 . S
N744 Eu743 2.562 . S
N744 C746 1.325 . S
C745 C739 1.404 . S
C745 C747 1.366 . S
C745 H753 0.930 . S
C746 N744 1.325 . S
C746 C747 1.416 . S
C746 H752 0.929 . S
C747 C745 1.366 . S
C747 C746 1.416 . S
C747 H749 0.930 . S
H748 C737 0.930 . S
H749 C747 0.930 . S
H750 C765 0.930 . S
H751 C772 0.930 . S
H752 C746 0.929 . S
H753 C745 0.930 . S
H754 C768 0.929 . S
H755 C735 0.931 . S
H756 C741 0.931 . S
H757 C742 0.931 . S
H758 C763 0.931 . S
H759 C738 0.929 . S
H760 C771 0.930 . S
N761 Eu732 2.600 . S
N761 C762 1.365 . S
N761 C765 1.319 . S
C762 N761 1.365 . S
C762 C764 1.405 . S
C762 C770 1.448 . S
C763 H758 0.931 . S
C763 C765 1.397 . S
C763 C766 1.367 . S
C764 C762 1.405 . S
C764 C766 1.403 . S
C764 C797 1.439 . S
C765 H750 0.930 . S
C765 N761 1.319 . S
C765 C763 1.397 . S
C766 C763 1.367 . S
C766 C764 1.403 . S
C766 H773 0.929 . S
N767 Eu732 2.562 . S
N767 C768 1.325 . S
N767 C770 1.351 . S
C768 H754 0.929 . S
C768 N767 1.325 . S
C768 C772 1.416 . S
C769 C770 1.430 . S
C769 C771 1.404 . S
C769 C798 1.387 . S
C770 C762 1.448 . S
C770 N767 1.351 . S
C770 C769 1.430 . S
C771 H760 0.930 . S
C771 C769 1.404 . S
C771 C772 1.366 . S
C772 H751 0.930 . S
C772 C768 1.416 . S
C772 C771 1.366 . S
H773 C766 0.929 . S
H774 C797 0.931 . S
H775 C798 0.931 . S
O776 Eu732 2.462 . S
O776 C796 1.252 . S
O777 Eu732 2.373 . S
O777 C788 1.249 . S
O778 Eu743 2.335 . S
O778 C788 1.264 . S
O779 Eu732 2.432 . S
O779 C796 1.268 . S
O780 Eu732 2.291 . S
O780 C795 1.255 . S
O781 Eu743 2.372 . S
O781 C795 1.257 . S
O782 Eu743 2.462 . S
O782 C807 1.252 . S
O783 Eu743 2.373 . S
O783 C799 1.249 . S
O784 Eu732 2.335 . S
O784 C799 1.264 . S
O785 Eu743 2.432 . S
O785 C807 1.268 . S
O786 Eu743 2.291 . S
O786 C806 1.255 . S
O787 Eu732 2.372 . S
O787 C806 1.257 . S
C788 O777 1.249 . S
C788 O778 1.264 . S
C789 C792 1.382 . S
C789 C794 1.390 . S
C789 C796 1.506 . S
C790 C791 1.398 . S
C790 C794 1.392 . S
C791 C790 1.398 . S
C791 C793 1.372 . S
C791 H808 0.931 . S
C792 C789 1.382 . S
C792 C793 1.390 . S
C792 H809 0.931 . S
C793 C791 1.372 . S
C793 C792 1.390 . S
C793 H810 0.929 . S
C794 C789 1.390 . S
C794 C790 1.392 . S
C794 H811 0.930 . S
C795 O780 1.255 . S
C795 O781 1.257 . S
C796 Eu732 2.787 . S
C796 O776 1.252 . S
C796 O779 1.268 . S
C796 C789 1.506 . S
C797 C764 1.439 . S
C797 H774 0.931 . S
C797 C798 1.374 . S
C798 C769 1.387 . S
C798 H775 0.931 . S
C798 C797 1.374 . S
C799 O783 1.249 . S
C799 O784 1.264 . S
C800 C803 1.382 . S
C800 C804 1.390 . S
C800 C807 1.506 . S
C801 C802 1.398 . S
C801 C804 1.392 . S
C802 C801 1.398 . S
C802 C805 1.372 . S
C802 H812 0.931 . S
C803 C800 1.382 . S
C803 C805 1.390 . S
C803 H813 0.931 . S
C804 C800 1.390 . S
C804 C801 1.392 . S
C804 H814 0.930 . S
C805 C802 1.372 . S
C805 C803 1.390 . S
C805 H815 0.929 . S
C806 O786 1.255 . S
C806 O787 1.257 . S
C807 Eu743 2.787 . S
C807 O782 1.252 . S
C807 O785 1.268 . S
C807 C800 1.506 . S
H808 C791 0.931 . S
H809 C792 0.931 . S
H810 C793 0.929 . S
H811 C794 0.930 . S
H812 C802 0.931 . S
H813 C803 0.931 . S
H814 C804 0.930 . S
H815 C805 0.929 . S
H816 C834 0.951 . S
H817 C836 0.951 1_545 S
H818 C838 0.950 . S
H819 C839 0.950 . S
H820 C841 0.950 . S
H821 C844 0.950 . S
H822 C845 0.950 . S
H823 C847 0.946 1_645 S
H824 C848 0.950 . S
H825 C849 0.951 . S
H826 C851 0.951 . S
H827 C853 0.950 . S
H828 C854 0.950 . S
H829 C856 0.950 . S
H830 C859 0.950 . S
H831 C860 0.950 . S
H832 C862 0.950 . S
H833 C863 0.950 . S
C834 H816 0.951 . S
C834 C835 1.366 . S
C834 C836 1.388 . S
C835 C834 1.366 . S
C835 C839 1.385 . S
C836 H817 0.951 1_565 S
C836 C834 1.388 . S
C836 C837 1.371 . S
C837 C836 1.371 . S
C837 C838 1.437 . S
C837 C840 1.471 1_565 S
C838 H818 0.950 . S
C838 C837 1.437 . S
C838 C839 1.374 . S
C839 H819 0.950 . S
C839 C835 1.385 . S
C839 C838 1.374 . S
C840 C837 1.471 1_545 S
C840 C841 1.373 . S
C840 C842 1.389 . S
C841 H820 0.950 . S
C841 C840 1.373 . S
C841 C857 1.377 . S
C842 C840 1.389 . S
C842 C843 1.524 . S
C842 C856 1.377 . S
C843 C842 1.524 . S
C843 C844 1.397 1_545 S
C843 C848 1.363 . S
C844 H821 0.950 . S
C844 C843 1.397 1_565 S
C844 C845 1.334 . S
C845 H822 0.950 . S
C845 C844 1.334 . S
C845 C846 1.287 . S
C846 C845 1.287 . S
C846 C847 1.524 . S
C846 H865 0.913 1_455 S
C847 H823 0.946 1_465 S
C847 C846 1.524 . S
C847 C848 1.415 1_565 S
C848 H824 0.950 . S
C848 C843 1.363 . S
C848 C847 1.415 1_545 S
C849 H825 0.951 . S
C849 C850 1.366 . S
C849 C851 1.388 . S
C850 C849 1.366 . S
C850 C854 1.385 . S
C851 H826 0.951 . S
C851 C849 1.388 . S
C851 C852 1.366 . S
C852 C851 1.366 . S
C852 C853 1.414 . S
C852 C855 1.499 . S
C853 H827 0.950 . S
C853 C852 1.414 . S
C853 C854 1.374 . S
C854 H828 0.950 . S
C854 C850 1.385 . S
C854 C853 1.374 . S
C855 C852 1.499 . S
C855 C856 1.373 . S
C855 C857 1.389 . S
C856 H829 0.950 . S
C856 C842 1.377 . S
C856 C855 1.373 . S
C857 C841 1.377 . S
C857 C855 1.389 . S
C857 C858 1.524 . S
C858 C857 1.524 . S
C858 C859 1.397 . S
C858 C863 1.363 . S
C859 H830 0.950 . S
C859 C858 1.397 . S
C859 C860 1.334 . S
C860 H831 0.950 . S
C860 C859 1.334 . S
C860 C861 1.287 . S
C861 C860 1.287 . S
C861 C862 1.524 . S
C861 H864 0.999 . S
C862 H832 0.950 . S
C862 C861 1.524 . S
C862 C863 1.415 . S
C863 H833 0.950 . S
C863 C858 1.363 . S
C863 C862 1.415 . S
H864 C861 0.999 . S
H865 C846 0.913 1_655 S
H866 C884 0.951 . S
H867 C886 0.951 . S
H868 C888 0.950 . S
H869 C889 0.950 . S
H870 C891 0.950 . S
H871 C894 0.950 . S
H872 C895 0.950 . S
H873 C897 0.950 . S
H874 C898 0.950 . S
H875 C899 0.951 . S
H876 C901 0.951 . S
H877 C903 0.950 . S
H878 C904 0.950 . S
H879 C906 0.950 . S
H880 C909 0.950 . S
H881 C910 0.950 . S
H882 C912 0.950 . S
H883 C913 0.950 . S
C884 H866 0.951 . S
C884 C885 1.366 . S
C884 C886 1.388 . S
C885 C884 1.366 . S
C885 C889 1.385 . S
C886 H867 0.951 . S
C886 C884 1.388 . S
C886 C887 1.366 . S
C887 C886 1.366 . S
C887 C888 1.414 . S
C887 C890 1.499 . S
C888 H868 0.950 . S
C888 C887 1.414 . S
C888 C889 1.374 . S
C889 H869 0.950 . S
C889 C885 1.385 . S
C889 C888 1.374 . S
C890 C887 1.499 . S
C890 C891 1.373 . S
C890 C892 1.389 . S
C891 H870 0.950 . S
C891 C890 1.373 . S
C891 C907 1.377 . S
C892 C890 1.389 . S
C892 C893 1.524 . S
C892 C906 1.377 . S
C893 C892 1.524 . S
C893 C894 1.397 . S
C893 C898 1.363 . S
C894 H871 0.950 . S
C894 C893 1.397 . S
C894 C895 1.334 . S
C895 H872 0.950 . S
C895 C894 1.334 . S
C895 C896 1.287 . S
C896 C895 1.287 . S
C896 C897 1.524 . S
C896 H915 0.913 . S
C897 H873 0.950 . S
C897 C896 1.524 . S
C897 C898 1.415 . S
C898 H874 0.950 . S
C898 C893 1.363 . S
C898 C897 1.415 . S
C899 H875 0.951 . S
C899 C900 1.366 . S
C899 C901 1.388 . S
C900 C899 1.366 . S
C900 C904 1.385 . S
C901 H876 0.951 . S
C901 C899 1.388 . S
C901 C902 1.366 . S
C902 C901 1.366 . S
C902 C903 1.414 . S
C902 C905 1.499 . S
C903 H877 0.950 . S
C903 C902 1.414 . S
C903 C904 1.374 . S
C904 H878 0.950 . S
C904 C900 1.385 . S
C904 C903 1.374 . S
C905 C902 1.499 . S
C905 C906 1.373 . S
C905 C907 1.389 . S
C906 H879 0.950 . S
C906 C892 1.377 . S
C906 C905 1.373 . S
C907 C891 1.377 . S
C907 C905 1.389 . S
C907 C908 1.524 . S
C908 C907 1.524 . S
C908 C909 1.397 . S
C908 C913 1.363 . S
C909 H880 0.950 . S
C909 C908 1.397 . S
C909 C910 1.334 . S
C910 H881 0.950 . S
C910 C909 1.334 . S
C910 C911 1.287 . S
C911 C910 1.287 . S
C911 C912 1.524 . S
C911 H914 0.999 . S
C912 H882 0.950 . S
C912 C911 1.524 . S
C912 C913 1.415 . S
C913 H883 0.950 . S
C913 C908 1.363 . S
C913 C912 1.415 . S
H914 C911 0.999 . S
H915 C896 0.913 . S
H916 C934 0.951 . S
H917 C936 0.951 . S
H918 C938 0.950 . S
H919 C939 0.950 . S
H920 C941 0.950 . S
H921 C944 0.950 . S
H922 C945 0.950 . S
H923 C947 0.950 . S
H924 C948 0.950 . S
H925 C949 0.951 . S
H926 C951 0.951 . S
H927 C953 0.950 . S
H928 C954 0.950 . S
H929 C956 0.950 . S
H930 C959 0.950 . S
H931 C960 0.950 . S
H932 C962 0.950 . S
H933 C963 0.950 . S
C934 H916 0.951 . S
C934 C935 1.366 . S
C934 C936 1.388 . S
C935 C934 1.366 . S
C935 C939 1.385 . S
C936 H917 0.951 . S
C936 C934 1.388 . S
C936 C937 1.366 . S
C937 C936 1.366 . S
C937 C938 1.414 . S
C937 C940 1.499 . S
C938 H918 0.950 . S
C938 C937 1.414 . S
C938 C939 1.374 . S
C939 H919 0.950 . S
C939 C935 1.385 . S
C939 C938 1.374 . S
C940 C937 1.499 . S
C940 C941 1.373 . S
C940 C942 1.389 . S
C941 H920 0.950 . S
C941 C940 1.373 . S
C941 C957 1.377 . S
C942 C940 1.389 . S
C942 C943 1.524 . S
C942 C956 1.377 . S
C943 C942 1.524 . S
C943 C944 1.397 . S
C943 C948 1.363 . S
C944 H921 0.950 . S
C944 C943 1.397 . S
C944 C945 1.334 . S
C945 H922 0.950 . S
C945 C944 1.334 . S
C945 C946 1.287 . S
C946 C945 1.287 . S
C946 C947 1.524 . S
C946 H965 0.913 . S
C947 H923 0.950 . S
C947 C946 1.524 . S
C947 C948 1.415 . S
C948 H924 0.950 . S
C948 C943 1.363 . S
C948 C947 1.415 . S
C949 H925 0.951 . S
C949 C950 1.366 . S
C949 C951 1.388 . S
C950 C949 1.366 . S
C950 C954 1.385 . S
C951 H926 0.951 . S
C951 C949 1.388 . S
C951 C952 1.366 . S
C952 C951 1.366 . S
C952 C953 1.414 . S
C952 C955 1.499 . S
C953 H927 0.950 . S
C953 C952 1.414 . S
C953 C954 1.374 . S
C954 H928 0.950 . S
C954 C950 1.385 . S
C954 C953 1.374 . S
C955 C952 1.499 . S
C955 C956 1.373 . S
C955 C957 1.389 . S
C956 H929 0.950 . S
C956 C942 1.377 . S
C956 C955 1.373 . S
C957 C941 1.377 . S
C957 C955 1.389 . S
C957 C958 1.524 . S
C958 C957 1.524 . S
C958 C959 1.397 . S
C958 C963 1.363 . S
C959 H930 0.950 . S
C959 C958 1.397 . S
C959 C960 1.334 . S
C960 H931 0.950 . S
C960 C959 1.334 . S
C960 C961 1.287 . S
C961 C960 1.287 . S
C961 C962 1.524 . S
C961 H964 0.999 . S
C962 H932 0.950 . S
C962 C961 1.524 . S
C962 C963 1.415 . S
C963 H933 0.950 . S
C963 C958 1.363 . S
C963 C962 1.415 . S
H964 C961 0.999 . S
H965 C946 0.913 . S
H966 C984 0.951 . S
H967 C986 0.951 1_545 S
H968 C988 0.950 . S
H969 C989 0.950 . S
H970 C991 0.950 . S
H971 C994 0.950 . S
H972 C995 0.950 . S
H973 C997 0.950 . S
H974 C998 0.950 . S
H975 C999 0.951 . S
H976 C1001 0.951 . S
H977 C1003 0.950 . S
H978 C1004 0.950 . S
H979 C1006 0.950 . S
H980 C1009 0.950 . S
H981 C1010 0.950 . S
H982 C1012 0.950 . S
H983 C1013 0.950 . S
C984 H966 0.951 . S
C984 C985 1.366 . S
C984 C986 1.388 . S
C985 C984 1.366 . S
C985 C989 1.385 . S
C986 H967 0.951 1_565 S
C986 C984 1.388 . S
C986 C987 1.360 1_565 S
C987 C986 1.360 1_545 S
C987 C988 1.402 1_545 S
C987 C990 1.516 . S
C988 H968 0.950 . S
C988 C987 1.402 1_565 S
C988 C989 1.374 . S
C989 H969 0.950 . S
C989 C985 1.385 . S
C989 C988 1.374 . S
C990 C987 1.516 . S
C990 C991 1.373 . S
C990 C992 1.389 . S
C991 H970 0.950 . S
C991 C990 1.373 . S
C991 C1007 1.377 . S
C992 C990 1.389 . S
C992 C993 1.518 1_545 S
C992 C1006 1.377 . S
C993 C992 1.518 1_565 S
C993 C994 1.404 . S
C993 C998 1.361 1_565 S
C994 H971 0.950 . S
C994 C993 1.404 . S
C994 C995 1.334 . S
C995 H972 0.950 . S
C995 C994 1.334 . S
C995 C996 1.287 . S
C996 C995 1.287 . S
C996 C997 1.524 1_655 S
C996 H1015 0.907 1_655 S
C997 H973 0.950 . S
C997 C996 1.524 1_455 S
C997 C998 1.415 1_465 S
C998 H974 0.950 . S
C998 C993 1.361 1_545 S
C998 C997 1.415 1_645 S
C999 H975 0.951 . S
C999 C1000 1.366 . S
C999 C1001 1.388 . S
C1000 C999 1.366 . S
C1000 C1004 1.385 . S
C1001 H976 0.951 . S
C1001 C999 1.388 . S
C1001 C1002 1.366 . S
C1002 C1001 1.366 . S
C1002 C1003 1.414 . S
C1002 C1005 1.499 . S
C1003 H977 0.950 . S
C1003 C1002 1.414 . S
C1003 C1004 1.374 . S
C1004 H978 0.950 . S
C1004 C1000 1.385 . S
C1004 C1003 1.374 . S
C1005 C1002 1.499 . S
C1005 C1006 1.373 . S
C1005 C1007 1.389 . S
C1006 H979 0.950 . S
C1006 C992 1.377 . S
C1006 C1005 1.373 . S
C1007 C991 1.377 . S
C1007 C1005 1.389 . S
C1007 C1008 1.524 . S
C1008 C1007 1.524 . S
C1008 C1009 1.397 . S
C1008 C1013 1.363 . S
C1009 H980 0.950 . S
C1009 C1008 1.397 . S
C1009 C1010 1.334 . S
C1010 H981 0.950 . S
C1010 C1009 1.334 . S
C1010 C1011 1.287 . S
C1011 C1010 1.287 . S
C1011 C1012 1.524 . S
C1011 H1014 0.999 . S
C1012 H982 0.950 . S
C1012 C1011 1.524 . S
C1012 C1013 1.415 . S
C1013 H983 0.950 . S
C1013 C1008 1.363 . S
C1013 C1012 1.415 . S
H1014 C1011 0.999 . S
H1015 C996 0.907 1_455 S
H1016 C1034 0.951 . S
H1017 C1036 0.951 . S
H1018 C1038 0.950 . S
H1019 C1039 0.950 . S
H1020 C1041 0.950 . S
H1021 C1044 0.950 . S
H1022 C1045 0.950 . S
H1023 C1047 0.950 . S
H1024 C1048 0.950 . S
H1025 C1049 0.951 1_455 S
H1026 C1051 0.951 . S
H1027 C1053 0.950 . S
H1028 C1054 0.950 . S
H1029 C1056 0.950 . S
H1030 C1059 0.950 . S
H1031 C1060 0.950 . S
H1032 C1062 0.950 . S
H1033 C1063 0.950 . S
C1034 H1016 0.951 . S
C1034 C1035 1.366 . S
C1034 C1036 1.388 1_545 S
C1035 C1034 1.366 . S
C1035 C1039 1.385 . S
C1036 H1017 0.951 . S
C1036 C1034 1.388 1_565 S
C1036 C1037 1.363 1_565 S
C1037 C1036 1.363 1_545 S
C1037 C1038 1.435 . S
C1037 C1040 1.480 1_545 S
C1038 H1018 0.950 . S
C1038 C1037 1.435 . S
C1038 C1039 1.374 . S
C1039 H1019 0.950 . S
C1039 C1035 1.385 . S
C1039 C1038 1.374 . S
C1040 C1037 1.480 1_565 S
C1040 C1041 1.373 . S
C1040 C1042 1.389 . S
C1041 H1020 0.950 . S
C1041 C1040 1.373 . S
C1041 C1057 1.377 . S
C1042 C1040 1.389 . S
C1042 C1043 1.524 . S
C1042 C1056 1.377 . S
C1043 C1042 1.524 . S
C1043 C1044 1.397 1_565 S
C1043 C1048 1.363 . S
C1044 H1021 0.950 . S
C1044 C1043 1.397 1_545 S
C1044 C1045 1.334 . S
C1045 H1022 0.950 . S
C1045 C1044 1.334 . S
C1045 C1046 1.288 1_545 S
C1046 C1045 1.288 1_565 S
C1046 C1047 1.522 . S
C1046 H1065 0.914 1_565 S
C1047 H1023 0.950 . S
C1047 C1046 1.522 . S
C1047 C1048 1.415 . S
C1048 H1024 0.950 . S
C1048 C1043 1.363 . S
C1048 C1047 1.415 . S
C1049 H1025 0.951 1_655 S
C1049 C1050 1.366 . S
C1049 C1051 1.388 . S
C1050 C1049 1.366 . S
C1050 C1054 1.385 . S
C1051 H1026 0.951 . S
C1051 C1049 1.388 . S
C1051 C1052 1.366 . S
C1052 C1051 1.366 . S
C1052 C1053 1.414 . S
C1052 C1055 1.499 . S
C1053 H1027 0.950 . S
C1053 C1052 1.414 . S
C1053 C1054 1.374 . S
C1054 H1028 0.950 . S
C1054 C1050 1.385 . S
C1054 C1053 1.374 . S
C1055 C1052 1.499 . S
C1055 C1056 1.373 . S
C1055 C1057 1.389 . S
C1056 H1029 0.950 . S
C1056 C1042 1.377 . S
C1056 C1055 1.373 . S
C1057 C1041 1.377 . S
C1057 C1055 1.389 . S
C1057 C1058 1.524 . S
C1058 C1057 1.524 . S
C1058 C1059 1.397 . S
C1058 C1063 1.363 . S
C1059 H1030 0.950 . S
C1059 C1058 1.397 . S
C1059 C1060 1.334 1_655 S
C1060 H1031 0.950 . S
C1060 C1059 1.334 1_455 S
C1060 C1061 1.287 . S
C1061 C1060 1.287 . S
C1061 C1062 1.524 . S
C1061 H1064 0.999 . S
C1062 H1032 0.950 . S
C1062 C1061 1.524 . S
C1062 C1063 1.415 1_455 S
C1063 H1033 0.950 . S
C1063 C1058 1.363 . S
C1063 C1062 1.415 1_655 S
H1064 C1061 0.999 . S
H1065 C1046 0.914 1_545 S
H1066 C1084 0.951 . S
H1067 C1086 0.951 . S
H1068 C1088 0.950 . S
H1069 C1089 0.950 . S
H1070 C1091 0.950 . S
H1071 C1094 0.950 . S
H1072 C1095 0.950 . S
H1073 C1097 0.950 . S
H1074 C1098 0.950 . S
H1075 C1099 0.951 . S
H1076 C1101 0.951 . S
H1077 C1103 0.950 . S
H1078 C1104 0.950 . S
H1079 C1106 0.950 . S
H1080 C1109 0.950 . S
H1081 C1110 0.950 . S
H1082 C1112 0.950 . S
H1083 C1113 0.950 . S
C1084 H1066 0.951 . S
C1084 C1085 1.366 . S
C1084 C1086 1.388 . S
C1085 C1084 1.366 . S
C1085 C1089 1.385 . S
C1086 H1067 0.951 . S
C1086 C1084 1.388 . S
C1086 C1087 1.366 . S
C1087 C1086 1.366 . S
C1087 C1088 1.414 . S
C1087 C1090 1.499 . S
C1088 H1068 0.950 . S
C1088 C1087 1.414 . S
C1088 C1089 1.374 . S
C1089 H1069 0.950 . S
C1089 C1085 1.385 . S
C1089 C1088 1.374 . S
C1090 C1087 1.499 . S
C1090 C1091 1.373 . S
C1090 C1092 1.389 . S
C1091 H1070 0.950 . S
C1091 C1090 1.373 . S
C1091 C1107 1.377 . S
C1092 C1090 1.389 . S
C1092 C1093 1.524 . S
C1092 C1106 1.377 . S
C1093 C1092 1.524 . S
C1093 C1094 1.397 . S
C1093 C1098 1.363 . S
C1094 H1071 0.950 . S
C1094 C1093 1.397 . S
C1094 C1095 1.334 . S
C1095 H1072 0.950 . S
C1095 C1094 1.334 . S
C1095 C1096 1.287 . S
C1096 C1095 1.287 . S
C1096 C1097 1.524 . S
C1096 H1115 0.913 . S
C1097 H1073 0.950 . S
C1097 C1096 1.524 . S
C1097 C1098 1.415 . S
C1098 H1074 0.950 . S
C1098 C1093 1.363 . S
C1098 C1097 1.415 . S
C1099 H1075 0.951 . S
C1099 C1100 1.366 . S
C1099 C1101 1.388 . S
C1100 C1099 1.366 . S
C1100 C1104 1.385 . S
C1101 H1076 0.951 . S
C1101 C1099 1.388 . S
C1101 C1102 1.366 . S
C1102 C1101 1.366 . S
C1102 C1103 1.414 . S
C1102 C1105 1.499 . S
C1103 H1077 0.950 . S
C1103 C1102 1.414 . S
C1103 C1104 1.374 . S
C1104 H1078 0.950 . S
C1104 C1100 1.385 . S
C1104 C1103 1.374 . S
C1105 C1102 1.499 . S
C1105 C1106 1.373 . S
C1105 C1107 1.389 . S
C1106 H1079 0.950 . S
C1106 C1092 1.377 . S
C1106 C1105 1.373 . S
C1107 C1091 1.377 . S
C1107 C1105 1.389 . S
C1107 C1108 1.524 . S
C1108 C1107 1.524 . S
C1108 C1109 1.397 . S
C1108 C1113 1.363 . S
C1109 H1080 0.950 . S
C1109 C1108 1.397 . S
C1109 C1110 1.334 . S
C1110 H1081 0.950 . S
C1110 C1109 1.334 . S
C1110 C1111 1.287 . S
C1111 C1110 1.287 . S
C1111 C1112 1.524 . S
C1111 H1114 0.999 . S
C1112 H1082 0.950 . S
C1112 C1111 1.524 . S
C1112 C1113 1.415 . S
C1113 H1083 0.950 . S
C1113 C1108 1.363 . S
C1113 C1112 1.415 . S
H1114 C1111 0.999 . S
H1115 C1096 0.913 . S
H1116 C1134 0.951 . S
H1117 C1136 0.951 . S
H1118 C1138 0.950 . S
H1119 C1139 0.950 . S
H1120 C1141 0.950 . S
H1121 C1144 0.950 . S
H1122 C1145 0.950 . S
H1123 C1147 0.950 . S
H1124 C1148 0.950 . S
H1125 C1149 0.951 . S
H1126 C1151 0.951 . S
H1127 C1153 0.950 . S
H1128 C1154 0.950 . S
H1129 C1156 0.950 . S
H1130 C1159 0.950 . S
H1131 C1160 0.950 . S
H1132 C1162 0.950 . S
H1133 C1163 0.950 . S
C1134 H1116 0.951 . S
C1134 C1135 1.366 . S
C1134 C1136 1.388 . S
C1135 C1134 1.366 . S
C1135 C1139 1.385 . S
C1136 H1117 0.951 . S
C1136 C1134 1.388 . S
C1136 C1137 1.366 . S
C1137 C1136 1.366 . S
C1137 C1138 1.414 . S
C1137 C1140 1.499 . S
C1138 H1118 0.950 . S
C1138 C1137 1.414 . S
C1138 C1139 1.374 . S
C1139 H1119 0.950 . S
C1139 C1135 1.385 . S
C1139 C1138 1.374 . S
C1140 C1137 1.499 . S
C1140 C1141 1.373 . S
C1140 C1142 1.389 . S
C1141 H1120 0.950 . S
C1141 C1140 1.373 . S
C1141 C1157 1.377 . S
C1142 C1140 1.389 . S
C1142 C1143 1.524 . S
C1142 C1156 1.377 . S
C1143 C1142 1.524 . S
C1143 C1144 1.397 . S
C1143 C1148 1.363 . S
C1144 H1121 0.950 . S
C1144 C1143 1.397 . S
C1144 C1145 1.334 . S
C1145 H1122 0.950 . S
C1145 C1144 1.334 . S
C1145 C1146 1.287 . S
C1146 C1145 1.287 . S
C1146 C1147 1.524 . S
C1146 H1165 0.913 . S
C1147 H1123 0.950 . S
C1147 C1146 1.524 . S
C1147 C1148 1.415 . S
C1148 H1124 0.950 . S
C1148 C1143 1.363 . S
C1148 C1147 1.415 . S
C1149 H1125 0.951 . S
C1149 C1150 1.366 . S
C1149 C1151 1.388 . S
C1150 C1149 1.366 . S
C1150 C1154 1.385 . S
C1151 H1126 0.951 . S
C1151 C1149 1.388 . S
C1151 C1152 1.366 . S
C1152 C1151 1.366 . S
C1152 C1153 1.414 . S
C1152 C1155 1.499 . S
C1153 H1127 0.950 . S
C1153 C1152 1.414 . S
C1153 C1154 1.374 . S
C1154 H1128 0.950 . S
C1154 C1150 1.385 . S
C1154 C1153 1.374 . S
C1155 C1152 1.499 . S
C1155 C1156 1.373 . S
C1155 C1157 1.389 . S
C1156 H1129 0.950 . S
C1156 C1142 1.377 . S
C1156 C1155 1.373 . S
C1157 C1141 1.377 . S
C1157 C1155 1.389 . S
C1157 C1158 1.524 . S
C1158 C1157 1.524 . S
C1158 C1159 1.397 . S
C1158 C1163 1.363 . S
C1159 H1130 0.950 . S
C1159 C1158 1.397 . S
C1159 C1160 1.334 . S
C1160 H1131 0.950 . S
C1160 C1159 1.334 . S
C1160 C1161 1.287 . S
C1161 C1160 1.287 . S
C1161 C1162 1.524 . S
C1161 H1164 0.999 . S
C1162 H1132 0.950 . S
C1162 C1161 1.524 . S
C1162 C1163 1.415 . S
C1163 H1133 0.950 . S
C1163 C1158 1.363 . S
C1163 C1162 1.415 . S
H1164 C1161 0.999 . S
H1165 C1146 0.913 . S
H1166 C1184 0.951 . S
H1167 C1186 0.951 . S
H1168 C1188 0.950 . S
H1169 C1189 0.950 . S
H1170 C1191 0.950 . S
H1171 C1194 0.950 . S
H1172 C1195 0.950 . S
H1173 C1197 0.950 . S
H1174 C1198 0.950 . S
H1175 C1199 0.951 . S
H1176 C1201 0.951 . S
H1177 C1203 0.950 . S
H1178 C1204 0.950 . S
H1179 C1206 0.950 . S
H1180 C1209 0.950 . S
H1181 C1210 0.950 . S
H1182 C1212 0.950 . S
H1183 C1213 0.950 . S
C1184 H1166 0.951 . S
C1184 C1185 1.366 . S
C1184 C1186 1.388 . S
C1185 C1184 1.366 . S
C1185 C1189 1.385 . S
C1186 H1167 0.951 . S
C1186 C1184 1.388 . S
C1186 C1187 1.366 1_545 S
C1187 C1186 1.366 1_565 S
C1187 C1188 1.414 . S
C1187 C1190 1.499 . S
C1188 H1168 0.950 . S
C1188 C1187 1.414 . S
C1188 C1189 1.374 1_565 S
C1189 H1169 0.950 . S
C1189 C1185 1.385 . S
C1189 C1188 1.374 1_545 S
C1190 C1187 1.499 . S
C1190 C1191 1.373 . S
C1190 C1192 1.389 . S
C1191 H1170 0.950 . S
C1191 C1190 1.373 . S
C1191 C1207 1.377 . S
C1192 C1190 1.389 . S
C1192 C1193 1.524 1_565 S
C1192 C1206 1.377 . S
C1193 C1192 1.524 1_545 S
C1193 C1194 1.397 . S
C1193 C1198 1.363 . S
C1194 H1171 0.950 . S
C1194 C1193 1.397 . S
C1194 C1195 1.334 . S
C1195 H1172 0.950 . S
C1195 C1194 1.334 . S
C1195 C1196 1.287 . S
C1196 C1195 1.287 . S
C1196 C1197 1.524 . S
C1196 H1215 0.913 . S
C1197 H1173 0.950 . S
C1197 C1196 1.524 . S
C1197 C1198 1.415 . S
C1198 H1174 0.950 . S
C1198 C1193 1.363 . S
C1198 C1197 1.415 . S
C1199 H1175 0.951 . S
C1199 C1200 1.366 . S
C1199 C1201 1.388 . S
C1200 C1199 1.366 . S
C1200 C1204 1.385 . S
C1201 H1176 0.951 . S
C1201 C1199 1.388 . S
C1201 C1202 1.366 . S
C1202 C1201 1.366 . S
C1202 C1203 1.414 . S
C1202 C1205 1.499 . S
C1203 H1177 0.950 . S
C1203 C1202 1.414 . S
C1203 C1204 1.374 . S
C1204 H1178 0.950 . S
C1204 C1200 1.385 . S
C1204 C1203 1.374 . S
C1205 C1202 1.499 . S
C1205 C1206 1.373 . S
C1205 C1207 1.389 . S
C1206 H1179 0.950 . S
C1206 C1192 1.377 . S
C1206 C1205 1.373 . S
C1207 C1191 1.377 . S
C1207 C1205 1.389 . S
C1207 C1208 1.524 . S
C1208 C1207 1.524 . S
C1208 C1209 1.397 . S
C1208 C1213 1.363 . S
C1209 H1180 0.950 . S
C1209 C1208 1.397 . S
C1209 C1210 1.334 . S
C1210 H1181 0.950 . S
C1210 C1209 1.334 . S
C1210 C1211 1.287 . S
C1211 C1210 1.287 . S
C1211 C1212 1.524 . S
C1211 H1214 0.999 . S
C1212 H1182 0.950 . S
C1212 C1211 1.524 . S
C1212 C1213 1.415 . S
C1213 H1183 0.950 . S
C1213 C1208 1.363 . S
C1213 C1212 1.415 . S
H1214 C1211 0.999 . S
H1215 C1196 0.913 . S
H1216 C1234 0.951 1_556 S
H1217 C1236 0.951 . S
H1218 C1238 0.950 . S
H1219 C1239 0.950 . S
H1220 C1241 0.950 . S
H1221 C1244 0.950 . S
H1222 C1245 0.950 . S
H1223 C1247 0.950 . S
H1224 C1248 0.950 . S
H1225 C1249 0.951 . S
H1226 C1251 0.951 . S
H1227 C1253 0.950 . S
H1228 C1254 0.950 . S
H1229 C1256 0.950 . S
H1230 C1259 0.950 . S
H1231 C1260 0.950 . S
H1232 C1262 0.950 . S
H1233 C1263 0.950 . S
C1234 H1216 0.951 1_554 S
C1234 C1235 1.366 . S
C1234 C1236 1.388 . S
C1235 C1234 1.366 . S
C1235 C1239 1.385 . S
C1236 H1217 0.951 . S
C1236 C1234 1.388 . S
C1236 C1237 1.366 . S
C1237 C1236 1.366 . S
C1237 C1238 1.414 . S
C1237 C1240 1.499 . S
C1238 H1218 0.950 . S
C1238 C1237 1.414 . S
C1238 C1239 1.374 . S
C1239 H1219 0.950 . S
C1239 C1235 1.385 . S
C1239 C1238 1.374 . S
C1240 C1237 1.499 . S
C1240 C1241 1.373 . S
C1240 C1242 1.389 . S
C1241 H1220 0.950 . S
C1241 C1240 1.373 . S
C1241 C1257 1.377 . S
C1242 C1240 1.389 . S
C1242 C1243 1.524 . S
C1242 C1256 1.377 . S
C1243 C1242 1.524 . S
C1243 C1244 1.397 . S
C1243 C1248 1.363 . S
C1244 H1221 0.950 . S
C1244 C1243 1.397 . S
C1244 C1245 1.334 . S
C1245 H1222 0.950 . S
C1245 C1244 1.334 . S
C1245 C1246 1.287 . S
C1246 C1245 1.287 . S
C1246 C1247 1.524 . S
C1246 H1265 0.913 . S
C1247 H1223 0.950 . S
C1247 C1246 1.524 . S
C1247 C1248 1.415 . S
C1248 H1224 0.950 . S
C1248 C1243 1.363 . S
C1248 C1247 1.415 . S
C1249 H1225 0.951 . S
C1249 C1250 1.366 . S
C1249 C1251 1.388 . S
C1250 C1249 1.366 . S
C1250 C1254 1.385 . S
C1251 H1226 0.951 . S
C1251 C1249 1.388 . S
C1251 C1252 1.366 . S
C1252 C1251 1.366 . S
C1252 C1253 1.414 . S
C1252 C1255 1.499 . S
C1253 H1227 0.950 . S
C1253 C1252 1.414 . S
C1253 C1254 1.374 . S
C1254 H1228 0.950 . S
C1254 C1250 1.385 . S
C1254 C1253 1.374 . S
C1255 C1252 1.499 . S
C1255 C1256 1.373 . S
C1255 C1257 1.389 . S
C1256 H1229 0.950 . S
C1256 C1242 1.377 . S
C1256 C1255 1.373 . S
C1257 C1241 1.377 . S
C1257 C1255 1.389 . S
C1257 C1258 1.524 . S
C1258 C1257 1.524 . S
C1258 C1259 1.397 . S
C1258 C1263 1.363 . S
C1259 H1230 0.950 . S
C1259 C1258 1.397 . S
C1259 C1260 1.334 . S
C1260 H1231 0.950 . S
C1260 C1259 1.334 . S
C1260 C1261 1.287 . S
C1261 C1260 1.287 . S
C1261 C1262 1.524 . S
C1261 H1264 0.999 . S
C1262 H1232 0.950 . S
C1262 C1261 1.524 . S
C1262 C1263 1.415 . S
C1263 H1233 0.950 . S
C1263 C1258 1.363 . S
C1263 C1262 1.415 . S
H1264 C1261 0.999 . S
H1265 C1246 0.913 . S
H1266 C1284 0.951 . S
H1267 C1286 0.951 . S
H1268 C1288 0.950 . S
H1269 C1289 0.950 . S
H1270 C1291 0.950 . S
H1271 C1294 0.950 . S
H1272 C1295 0.950 . S
H1273 C1297 0.950 . S
H1274 C1298 0.950 . S
H1275 C1299 0.951 . S
H1276 C1301 0.951 . S
H1277 C1303 0.950 . S
H1278 C1304 0.950 . S
H1279 C1306 0.950 . S
H1280 C1309 0.950 . S
H1281 C1310 0.950 . S
H1282 C1312 0.950 . S
H1283 C1313 0.950 . S
C1284 H1266 0.951 . S
C1284 C1285 1.366 . S
C1284 C1286 1.388 . S
C1285 C1284 1.366 . S
C1285 C1289 1.385 . S
C1286 H1267 0.951 . S
C1286 C1284 1.388 . S
C1286 C1287 1.366 . S
C1287 C1286 1.366 . S
C1287 C1288 1.414 . S
C1287 C1290 1.499 . S
C1288 H1268 0.950 . S
C1288 C1287 1.414 . S
C1288 C1289 1.374 . S
C1289 H1269 0.950 . S
C1289 C1285 1.385 . S
C1289 C1288 1.374 . S
C1290 C1287 1.499 . S
C1290 C1291 1.373 . S
C1290 C1292 1.389 . S
C1291 H1270 0.950 . S
C1291 C1290 1.373 . S
C1291 C1307 1.377 . S
C1292 C1290 1.389 . S
C1292 C1293 1.524 . S
C1292 C1306 1.377 . S
C1293 C1292 1.524 . S
C1293 C1294 1.397 . S
C1293 C1298 1.363 . S
C1294 H1271 0.950 . S
C1294 C1293 1.397 . S
C1294 C1295 1.334 . S
C1295 H1272 0.950 . S
C1295 C1294 1.334 . S
C1295 C1296 1.287 . S
C1296 C1295 1.287 . S
C1296 C1297 1.524 . S
C1296 H1315 0.913 . S
C1297 H1273 0.950 . S
C1297 C1296 1.524 . S
C1297 C1298 1.415 . S
C1298 H1274 0.950 . S
C1298 C1293 1.363 . S
C1298 C1297 1.415 . S
C1299 H1275 0.951 . S
C1299 C1300 1.366 . S
C1299 C1301 1.388 . S
C1300 C1299 1.366 . S
C1300 C1304 1.385 . S
C1301 H1276 0.951 . S
C1301 C1299 1.388 . S
C1301 C1302 1.366 . S
C1302 C1301 1.366 . S
C1302 C1303 1.414 . S
C1302 C1305 1.499 . S
C1303 H1277 0.950 . S
C1303 C1302 1.414 . S
C1303 C1304 1.374 . S
C1304 H1278 0.950 . S
C1304 C1300 1.385 . S
C1304 C1303 1.374 . S
C1305 C1302 1.499 . S
C1305 C1306 1.373 . S
C1305 C1307 1.389 . S
C1306 H1279 0.950 . S
C1306 C1292 1.377 . S
C1306 C1305 1.373 . S
C1307 C1291 1.377 . S
C1307 C1305 1.389 . S
C1307 C1308 1.524 . S
C1308 C1307 1.524 . S
C1308 C1309 1.397 . S
C1308 C1313 1.363 . S
C1309 H1280 0.950 . S
C1309 C1308 1.397 . S
C1309 C1310 1.334 . S
C1310 H1281 0.950 . S
C1310 C1309 1.334 . S
C1310 C1311 1.287 . S
C1311 C1310 1.287 . S
C1311 C1312 1.524 . S
C1311 H1314 0.999 . S
C1312 H1282 0.950 . S
C1312 C1311 1.524 . S
C1312 C1313 1.415 . S
C1313 H1283 0.950 . S
C1313 C1308 1.363 . S
C1313 C1312 1.415 . S
H1314 C1311 0.999 . S
H1315 C1296 0.913 . S
H1316 C1334 0.951 . S
H1317 C1336 0.951 . S
H1318 C1338 0.950 . S
H1319 C1339 0.950 1_554 S
H1320 C1341 0.950 . S
H1321 C1344 0.950 . S
H1322 C1345 0.950 . S
H1323 C1347 0.950 . S
H1324 C1348 0.950 . S
H1325 C1349 0.951 . S
H1326 C1351 0.951 . S
H1327 C1353 0.950 . S
H1328 C1354 0.950 . S
H1329 C1356 0.950 . S
H1330 C1359 0.950 . S
H1331 C1360 0.950 . S
H1332 C1362 0.950 . S
H1333 C1363 0.950 . S
C1334 H1316 0.951 . S
C1334 C1335 1.319 1_556 S
C1334 C1336 1.388 . S
C1335 C1334 1.319 1_554 S
C1335 C1339 1.373 1_554 S
C1336 H1317 0.951 . S
C1336 C1334 1.388 . S
C1336 C1337 1.366 . S
C1337 C1336 1.366 . S
C1337 C1338 1.414 . S
C1337 C1340 1.499 . S
C1338 H1318 0.950 . S
C1338 C1337 1.414 . S
C1338 C1339 1.374 . S
C1339 H1319 0.950 1_556 S
C1339 C1335 1.373 1_556 S
C1339 C1338 1.374 . S
C1340 C1337 1.499 . S
C1340 C1341 1.373 . S
C1340 C1342 1.389 . S
C1341 H1320 0.950 . S
C1341 C1340 1.373 . S
C1341 C1357 1.377 . S
C1342 C1340 1.389 . S
C1342 C1343 1.524 . S
C1342 C1356 1.377 . S
C1343 C1342 1.524 . S
C1343 C1344 1.397 . S
C1343 C1348 1.363 . S
C1344 H1321 0.950 . S
C1344 C1343 1.397 . S
C1344 C1345 1.334 . S
C1345 H1322 0.950 . S
C1345 C1344 1.334 . S
C1345 C1346 1.287 . S
C1346 C1345 1.287 . S
C1346 C1347 1.524 . S
C1346 H1365 0.913 . S
C1347 H1323 0.950 . S
C1347 C1346 1.524 . S
C1347 C1348 1.415 . S
C1348 H1324 0.950 . S
C1348 C1343 1.363 . S
C1348 C1347 1.415 . S
C1349 H1325 0.951 . S
C1349 C1350 1.366 . S
C1349 C1351 1.388 . S
C1350 C1349 1.366 . S
C1350 C1354 1.385 . S
C1351 H1326 0.951 . S
C1351 C1349 1.388 . S
C1351 C1352 1.366 . S
C1352 C1351 1.366 . S
C1352 C1353 1.414 . S
C1352 C1355 1.499 . S
C1353 H1327 0.950 . S
C1353 C1352 1.414 . S
C1353 C1354 1.374 . S
C1354 H1328 0.950 . S
C1354 C1350 1.385 . S
C1354 C1353 1.374 . S
C1355 C1352 1.499 . S
C1355 C1356 1.373 . S
C1355 C1357 1.389 . S
C1356 H1329 0.950 . S
C1356 C1342 1.377 . S
C1356 C1355 1.373 . S
C1357 C1341 1.377 . S
C1357 C1355 1.389 . S
C1357 C1358 1.524 . S
C1358 C1357 1.524 . S
C1358 C1359 1.397 . S
C1358 C1363 1.363 . S
C1359 H1330 0.950 . S
C1359 C1358 1.397 . S
C1359 C1360 1.334 . S
C1360 H1331 0.950 . S
C1360 C1359 1.334 . S
C1360 C1361 1.287 . S
C1361 C1360 1.287 . S
C1361 C1362 1.524 . S
C1361 H1364 0.999 . S
C1362 H1332 0.950 . S
C1362 C1361 1.524 . S
C1362 C1363 1.415 . S
C1363 H1333 0.950 . S
C1363 C1358 1.363 . S
C1363 C1362 1.415 . S
H1364 C1361 0.999 . S
H1365 C1346 0.913 . S
H1366 C1384 0.951 . S
H1367 C1386 0.951 . S
H1368 C1388 0.950 . S
H1369 C1389 0.950 . S
H1370 C1391 0.950 . S
H1371 C1394 0.950 . S
H1372 C1395 0.950 . S
H1373 C1397 0.950 . S
H1374 C1398 0.950 . S
H1375 C1399 0.951 . S
H1376 C1401 0.951 . S
H1377 C1403 0.950 . S
H1378 C1404 0.950 . S
H1379 C1406 0.950 . S
H1380 C1409 0.950 . S
H1381 C1410 0.950 . S
H1382 C1412 0.950 . S
H1383 C1413 0.950 . S
C1384 H1366 0.951 . S
C1384 C1385 1.366 . S
C1384 C1386 1.388 . S
C1385 C1384 1.366 . S
C1385 C1389 1.385 . S
C1386 H1367 0.951 . S
C1386 C1384 1.388 . S
C1386 C1387 1.366 . S
C1387 C1386 1.366 . S
C1387 C1388 1.414 . S
C1387 C1390 1.499 . S
C1388 H1368 0.950 . S
C1388 C1387 1.414 . S
C1388 C1389 1.374 . S
C1389 H1369 0.950 . S
C1389 C1385 1.385 . S
C1389 C1388 1.374 . S
C1390 C1387 1.499 . S
C1390 C1391 1.373 . S
C1390 C1392 1.389 . S
C1391 H1370 0.950 . S
C1391 C1390 1.373 . S
C1391 C1407 1.377 . S
C1392 C1390 1.389 . S
C1392 C1393 1.524 . S
C1392 C1406 1.377 . S
C1393 C1392 1.524 . S
C1393 C1394 1.397 . S
C1393 C1398 1.363 . S
C1394 H1371 0.950 . S
C1394 C1393 1.397 . S
C1394 C1395 1.334 . S
C1395 H1372 0.950 . S
C1395 C1394 1.334 . S
C1395 C1396 1.287 . S
C1396 C1395 1.287 . S
C1396 C1397 1.524 . S
C1396 H1415 0.913 . S
C1397 H1373 0.950 . S
C1397 C1396 1.524 . S
C1397 C1398 1.415 . S
C1398 H1374 0.950 . S
C1398 C1393 1.363 . S
C1398 C1397 1.415 . S
C1399 H1375 0.951 . S
C1399 C1400 1.366 . S
C1399 C1401 1.388 . S
C1400 C1399 1.366 . S
C1400 C1404 1.385 . S
C1401 H1376 0.951 . S
C1401 C1399 1.388 . S
C1401 C1402 1.366 . S
C1402 C1401 1.366 . S
C1402 C1403 1.414 . S
C1402 C1405 1.499 . S
C1403 H1377 0.950 . S
C1403 C1402 1.414 . S
C1403 C1404 1.374 . S
C1404 H1378 0.950 . S
C1404 C1400 1.385 . S
C1404 C1403 1.374 . S
C1405 C1402 1.499 . S
C1405 C1406 1.373 . S
C1405 C1407 1.389 . S
C1406 H1379 0.950 . S
C1406 C1392 1.377 . S
C1406 C1405 1.373 . S
C1407 C1391 1.377 . S
C1407 C1405 1.389 . S
C1407 C1408 1.524 . S
C1408 C1407 1.524 . S
C1408 C1409 1.397 . S
C1408 C1413 1.363 . S
C1409 H1380 0.950 . S
C1409 C1408 1.397 . S
C1409 C1410 1.334 . S
C1410 H1381 0.950 . S
C1410 C1409 1.334 . S
C1410 C1411 1.289 1_655 S
C1411 C1410 1.289 1_455 S
C1411 C1412 1.524 . S
C1411 H1414 0.997 . S
C1412 H1382 0.950 . S
C1412 C1411 1.524 . S
C1412 C1413 1.415 1_455 S
C1413 H1383 0.950 . S
C1413 C1408 1.363 . S
C1413 C1412 1.415 1_655 S
H1414 C1411 0.997 . S
H1415 C1396 0.913 . S
H1416 C1434 0.951 1_554 S
H1417 C1436 0.951 . S
H1418 C1438 0.950 . S
H1419 C1439 0.950 . S
H1420 C1441 0.950 . S
H1421 C1444 0.950 . S
H1422 C1445 0.950 . S
H1423 C1447 0.950 . S
H1424 C1448 0.950 . S
H1425 C1449 0.951 . S
H1426 C1451 0.951 . S
H1427 C1453 0.950 . S
H1428 C1454 0.950 . S
H1429 C1456 0.950 . S
H1430 C1459 0.950 . S
H1431 C1460 0.950 . S
H1432 C1462 0.950 . S
H1433 C1463 0.950 . S
C1434 H1416 0.951 1_556 S
C1434 C1435 1.366 . S
C1434 C1436 1.388 . S
C1435 C1434 1.366 . S
C1435 C1439 1.385 . S
C1436 H1417 0.951 . S
C1436 C1434 1.388 . S
C1436 C1437 1.366 . S
C1437 C1436 1.366 . S
C1437 C1438 1.414 . S
C1437 C1440 1.499 . S
C1438 H1418 0.950 . S
C1438 C1437 1.414 . S
C1438 C1439 1.374 . S
C1439 H1419 0.950 . S
C1439 C1435 1.385 . S
C1439 C1438 1.374 . S
C1440 C1437 1.499 . S
C1440 C1441 1.373 . S
C1440 C1442 1.389 . S
C1441 H1420 0.950 . S
C1441 C1440 1.373 . S
C1441 C1457 1.377 . S
C1442 C1440 1.389 . S
C1442 C1443 1.524 . S
C1442 C1456 1.377 . S
C1443 C1442 1.524 . S
C1443 C1444 1.397 . S
C1443 C1448 1.363 . S
C1444 H1421 0.950 . S
C1444 C1443 1.397 . S
C1444 C1445 1.334 . S
C1445 H1422 0.950 . S
C1445 C1444 1.334 . S
C1445 C1446 1.287 . S
C1446 C1445 1.287 . S
C1446 C1447 1.524 . S
C1446 H1465 0.913 . S
C1447 H1423 0.950 . S
C1447 C1446 1.524 . S
C1447 C1448 1.415 . S
C1448 H1424 0.950 . S
C1448 C1443 1.363 . S
C1448 C1447 1.415 . S
C1449 H1425 0.951 . S
C1449 C1450 1.366 . S
C1449 C1451 1.388 . S
C1450 C1449 1.366 . S
C1450 C1454 1.385 . S
C1451 H1426 0.951 . S
C1451 C1449 1.388 . S
C1451 C1452 1.366 . S
C1452 C1451 1.366 . S
C1452 C1453 1.414 . S
C1452 C1455 1.499 . S
C1453 H1427 0.950 . S
C1453 C1452 1.414 . S
C1453 C1454 1.374 . S
C1454 H1428 0.950 . S
C1454 C1450 1.385 . S
C1454 C1453 1.374 . S
C1455 C1452 1.499 . S
C1455 C1456 1.373 . S
C1455 C1457 1.389 . S
C1456 H1429 0.950 . S
C1456 C1442 1.377 . S
C1456 C1455 1.373 . S
C1457 C1441 1.377 . S
C1457 C1455 1.389 . S
C1457 C1458 1.524 . S
C1458 C1457 1.524 . S
C1458 C1459 1.397 . S
C1458 C1463 1.363 . S
C1459 H1430 0.950 . S
C1459 C1458 1.397 . S
C1459 C1460 1.334 . S
C1460 H1431 0.950 . S
C1460 C1459 1.334 . S
C1460 C1461 1.287 . S
C1461 C1460 1.287 . S
C1461 C1462 1.524 . S
C1461 H1464 0.999 . S
C1462 H1432 0.950 . S
C1462 C1461 1.524 . S
C1462 C1463 1.415 . S
C1463 H1433 0.950 . S
C1463 C1458 1.363 . S
C1463 C1462 1.415 . S
H1464 C1461 0.999 . S
H1465 C1446 0.913 . S
H1466 C1484 0.951 . S
H1467 C1486 0.951 . S
H1468 C1488 0.950 . S
H1469 C1489 0.950 . S
H1470 C1491 0.950 . S
H1471 C1494 0.950 . S
H1472 C1495 0.950 . S
H1473 C1497 0.950 . S
H1474 C1498 0.950 . S
H1475 C1499 0.951 . S
H1476 C1501 0.951 . S
H1477 C1503 0.950 . S
H1478 C1504 0.950 . S
H1479 C1506 0.950 . S
H1480 C1509 0.950 . S
H1481 C1510 0.950 . S
H1482 C1512 0.950 . S
H1483 C1513 0.950 . S
C1484 H1466 0.951 . S
C1484 C1485 1.366 . S
C1484 C1486 1.388 . S
C1485 C1484 1.366 . S
C1485 C1489 1.385 . S
C1486 H1467 0.951 . S
C1486 C1484 1.388 . S
C1486 C1487 1.366 . S
C1487 C1486 1.366 . S
C1487 C1488 1.414 . S
C1487 C1490 1.499 . S
C1488 H1468 0.950 . S
C1488 C1487 1.414 . S
C1488 C1489 1.374 . S
C1489 H1469 0.950 . S
C1489 C1485 1.385 . S
C1489 C1488 1.374 . S
C1490 C1487 1.499 . S
C1490 C1491 1.373 . S
C1490 C1492 1.389 . S
C1491 H1470 0.950 . S
C1491 C1490 1.373 . S
C1491 C1507 1.377 . S
C1492 C1490 1.389 . S
C1492 C1493 1.524 . S
C1492 C1506 1.377 . S
C1493 C1492 1.524 . S
C1493 C1494 1.397 . S
C1493 C1498 1.363 . S
C1494 H1471 0.950 . S
C1494 C1493 1.397 . S
C1494 C1495 1.334 . S
C1495 H1472 0.950 . S
C1495 C1494 1.334 . S
C1495 C1496 1.287 . S
C1496 C1495 1.287 . S
C1496 C1497 1.524 . S
C1496 H1515 0.913 . S
C1497 H1473 0.950 . S
C1497 C1496 1.524 . S
C1497 C1498 1.415 . S
C1498 H1474 0.950 . S
C1498 C1493 1.363 . S
C1498 C1497 1.415 . S
C1499 H1475 0.951 . S
C1499 C1500 1.366 . S
C1499 C1501 1.388 . S
C1500 C1499 1.366 . S
C1500 C1504 1.385 . S
C1501 H1476 0.951 . S
C1501 C1499 1.388 . S
C1501 C1502 1.366 . S
C1502 C1501 1.366 . S
C1502 C1503 1.414 . S
C1502 C1505 1.499 . S
C1503 H1477 0.950 . S
C1503 C1502 1.414 . S
C1503 C1504 1.374 . S
C1504 H1478 0.950 . S
C1504 C1500 1.385 . S
C1504 C1503 1.374 . S
C1505 C1502 1.499 . S
C1505 C1506 1.373 . S
C1505 C1507 1.389 . S
C1506 H1479 0.950 . S
C1506 C1492 1.377 . S
C1506 C1505 1.373 . S
C1507 C1491 1.377 . S
C1507 C1505 1.389 . S
C1507 C1508 1.524 . S
C1508 C1507 1.524 . S
C1508 C1509 1.397 . S
C1508 C1513 1.363 . S
C1509 H1480 0.950 . S
C1509 C1508 1.397 . S
C1509 C1510 1.334 . S
C1510 H1481 0.950 . S
C1510 C1509 1.334 . S
C1510 C1511 1.287 . S
C1511 C1510 1.287 . S
C1511 C1512 1.524 . S
C1511 H1514 0.999 . S
C1512 H1482 0.950 . S
C1512 C1511 1.524 . S
C1512 C1513 1.415 . S
C1513 H1483 0.950 . S
C1513 C1508 1.363 . S
C1513 C1512 1.415 . S
H1514 C1511 0.999 . S
H1515 C1496 0.913 . S
H1516 C1534 0.951 . S
H1517 C1536 0.951 . S
H1518 C1538 0.950 . S
H1519 C1539 0.950 1_556 S
H1520 C1541 0.950 . S
H1521 C1544 0.950 . S
H1522 C1545 0.950 . S
H1523 C1547 0.950 . S
H1524 C1548 0.950 . S
H1525 C1549 0.951 . S
H1526 C1551 0.951 . S
H1527 C1553 0.950 . S
H1528 C1554 0.950 . S
H1529 C1556 0.950 . S
H1530 C1559 0.950 . S
H1531 C1560 0.950 . S
H1532 C1562 0.950 . S
H1533 C1563 0.950 . S
C1534 H1516 0.951 . S
C1534 C1535 1.366 1_554 S
C1534 C1536 1.388 . S
C1535 C1534 1.366 1_556 S
C1535 C1539 1.385 1_556 S
C1536 H1517 0.951 . S
C1536 C1534 1.388 . S
C1536 C1537 1.366 . S
C1537 C1536 1.366 . S
C1537 C1538 1.414 . S
C1537 C1540 1.499 . S
C1538 H1518 0.950 . S
C1538 C1537 1.414 . S
C1538 C1539 1.374 . S
C1539 H1519 0.950 1_554 S
C1539 C1535 1.385 1_554 S
C1539 C1538 1.374 . S
C1540 C1537 1.499 . S
C1540 C1541 1.373 . S
C1540 C1542 1.389 . S
C1541 H1520 0.950 . S
C1541 C1540 1.373 . S
C1541 C1557 1.377 . S
C1542 C1540 1.389 . S
C1542 C1543 1.524 . S
C1542 C1556 1.377 . S
C1543 C1542 1.524 . S
C1543 C1544 1.397 . S
C1543 C1548 1.363 . S
C1544 H1521 0.950 . S
C1544 C1543 1.397 . S
C1544 C1545 1.334 . S
C1545 H1522 0.950 . S
C1545 C1544 1.334 . S
C1545 C1546 1.287 . S
C1546 C1545 1.287 . S
C1546 C1547 1.524 . S
C1546 H1565 0.913 . S
C1547 H1523 0.950 . S
C1547 C1546 1.524 . S
C1547 C1548 1.415 . S
C1548 H1524 0.950 . S
C1548 C1543 1.363 . S
C1548 C1547 1.415 . S
C1549 H1525 0.951 . S
C1549 C1550 1.366 . S
C1549 C1551 1.388 . S
C1550 C1549 1.366 . S
C1550 C1554 1.385 . S
C1551 H1526 0.951 . S
C1551 C1549 1.388 . S
C1551 C1552 1.366 . S
C1552 C1551 1.366 . S
C1552 C1553 1.414 . S
C1552 C1555 1.499 . S
C1553 H1527 0.950 . S
C1553 C1552 1.414 . S
C1553 C1554 1.374 . S
C1554 H1528 0.950 . S
C1554 C1550 1.385 . S
C1554 C1553 1.374 . S
C1555 C1552 1.499 . S
C1555 C1556 1.373 . S
C1555 C1557 1.389 . S
C1556 H1529 0.950 . S
C1556 C1542 1.377 . S
C1556 C1555 1.373 . S
C1557 C1541 1.377 . S
C1557 C1555 1.389 . S
C1557 C1558 1.524 . S
C1558 C1557 1.524 . S
C1558 C1559 1.397 . S
C1558 C1563 1.363 . S
C1559 H1530 0.950 . S
C1559 C1558 1.397 . S
C1559 C1560 1.334 . S
C1560 H1531 0.950 . S
C1560 C1559 1.334 . S
C1560 C1561 1.287 . S
C1561 C1560 1.287 . S
C1561 C1562 1.524 . S
C1561 H1564 0.999 . S
C1562 H1532 0.950 . S
C1562 C1561 1.524 . S
C1562 C1563 1.415 . S
C1563 H1533 0.950 . S
C1563 C1558 1.363 . S
C1563 C1562 1.415 . S
H1564 C1561 0.999 . S
H1565 C1546 0.913 . S
H1566 C1584 0.951 . S
H1567 C1586 0.951 . S
H1568 C1588 0.950 . S
H1569 C1589 0.950 . S
H1570 C1591 0.950 . S
H1571 C1594 0.950 . S
H1572 C1595 0.950 . S
H1573 C1597 0.950 . S
H1574 C1598 0.950 . S
H1575 C1599 0.951 . S
H1576 C1601 0.951 . S
H1577 C1603 0.950 . S
H1578 C1604 0.950 . S
H1579 C1606 0.950 . S
H1580 C1609 0.950 . S
H1581 C1610 0.950 1_655 S
H1582 C1612 0.950 . S
H1583 C1613 0.950 . S
C1584 H1566 0.951 . S
C1584 C1585 1.366 . S
C1584 C1586 1.388 . S
C1585 C1584 1.366 . S
C1585 C1589 1.385 . S
C1586 H1567 0.951 . S
C1586 C1584 1.388 . S
C1586 C1587 1.366 . S
C1587 C1586 1.366 . S
C1587 C1588 1.414 . S
C1587 C1590 1.499 . S
C1588 H1568 0.950 . S
C1588 C1587 1.414 . S
C1588 C1589 1.374 . S
C1589 H1569 0.950 . S
C1589 C1585 1.385 . S
C1589 C1588 1.374 . S
C1590 C1587 1.499 . S
C1590 C1591 1.373 . S
C1590 C1592 1.389 . S
C1591 H1570 0.950 . S
C1591 C1590 1.373 . S
C1591 C1607 1.377 . S
C1592 C1590 1.389 . S
C1592 C1593 1.524 . S
C1592 C1606 1.377 . S
C1593 C1592 1.524 . S
C1593 C1594 1.397 . S
C1593 C1598 1.363 . S
C1594 H1571 0.950 . S
C1594 C1593 1.397 . S
C1594 C1595 1.334 . S
C1595 H1572 0.950 . S
C1595 C1594 1.334 . S
C1595 C1596 1.287 . S
C1596 C1595 1.287 . S
C1596 C1597 1.524 . S
C1596 H1615 0.913 . S
C1597 H1573 0.950 . S
C1597 C1596 1.524 . S
C1597 C1598 1.415 . S
C1598 H1574 0.950 . S
C1598 C1593 1.363 . S
C1598 C1597 1.415 . S
C1599 H1575 0.951 . S
C1599 C1600 1.366 . S
C1599 C1601 1.388 . S
C1600 C1599 1.366 . S
C1600 C1604 1.385 . S
C1601 H1576 0.951 . S
C1601 C1599 1.388 . S
C1601 C1602 1.366 . S
C1602 C1601 1.366 . S
C1602 C1603 1.414 . S
C1602 C1605 1.499 . S
C1603 H1577 0.950 . S
C1603 C1602 1.414 . S
C1603 C1604 1.374 . S
C1604 H1578 0.950 . S
C1604 C1600 1.385 . S
C1604 C1603 1.374 . S
C1605 C1602 1.499 . S
C1605 C1606 1.373 . S
C1605 C1607 1.389 . S
C1606 H1579 0.950 . S
C1606 C1592 1.377 . S
C1606 C1605 1.373 . S
C1607 C1591 1.377 . S
C1607 C1605 1.389 . S
C1607 C1608 1.524 . S
C1608 C1607 1.524 . S
C1608 C1609 1.397 . S
C1608 C1613 1.363 . S
C1609 H1580 0.950 . S
C1609 C1608 1.397 . S
C1609 C1610 1.334 . S
C1610 H1581 0.950 1_455 S
C1610 C1609 1.334 . S
C1610 C1611 1.287 . S
C1611 C1610 1.287 . S
C1611 C1612 1.524 . S
C1611 H1614 0.999 1_455 S
C1612 H1582 0.950 . S
C1612 C1611 1.524 . S
C1612 C1613 1.415 . S
C1613 H1583 0.950 . S
C1613 C1608 1.363 . S
C1613 C1612 1.415 . S
H1614 C1611 0.999 1_655 S
H1615 C1596 0.913 . S
H1616 C1634 0.951 . S
H1617 C1636 0.951 . S
H1618 C1638 0.950 . S
H1619 C1639 0.950 . S
H1620 C1641 0.950 . S
H1621 C1644 0.950 . S
H1622 C1645 0.950 . S
H1623 C1647 0.950 . S
H1624 C1648 0.950 . S
H1625 C1649 0.951 . S
H1626 C1651 0.951 . S
H1627 C1653 0.950 . S
H1628 C1654 0.950 . S
H1629 C1656 0.950 . S
H1630 C1659 0.950 . S
H1631 C1660 0.950 . S
H1632 C1662 0.950 . S
H1633 C1663 0.950 . S
C1634 H1616 0.951 . S
C1634 C1635 1.366 . S
C1634 C1636 1.388 . S
C1635 C1634 1.366 . S
C1635 C1639 1.385 . S
C1636 H1617 0.951 . S
C1636 C1634 1.388 . S
C1636 C1637 1.366 . S
C1637 C1636 1.366 . S
C1637 C1638 1.414 . S
C1637 C1640 1.499 . S
C1638 H1618 0.950 . S
C1638 C1637 1.414 . S
C1638 C1639 1.374 . S
C1639 H1619 0.950 . S
C1639 C1635 1.385 . S
C1639 C1638 1.374 . S
C1640 C1637 1.499 . S
C1640 C1641 1.373 . S
C1640 C1642 1.389 . S
C1641 H1620 0.950 . S
C1641 C1640 1.373 . S
C1641 C1657 1.377 . S
C1642 C1640 1.389 . S
C1642 C1643 1.524 . S
C1642 C1656 1.377 . S
C1643 C1642 1.524 . S
C1643 C1644 1.397 . S
C1643 C1648 1.363 . S
C1644 H1621 0.950 . S
C1644 C1643 1.397 . S
C1644 C1645 1.334 . S
C1645 H1622 0.950 . S
C1645 C1644 1.334 . S
C1645 C1646 1.287 . S
C1646 C1645 1.287 . S
C1646 C1647 1.524 . S
C1646 H1665 0.913 . S
C1647 H1623 0.950 . S
C1647 C1646 1.524 . S
C1647 C1648 1.415 . S
C1648 H1624 0.950 . S
C1648 C1643 1.363 . S
C1648 C1647 1.415 . S
C1649 H1625 0.951 . S
C1649 C1650 1.366 . S
C1649 C1651 1.388 . S
C1650 C1649 1.366 . S
C1650 C1654 1.385 . S
C1651 H1626 0.951 . S
C1651 C1649 1.388 . S
C1651 C1652 1.366 . S
C1652 C1651 1.366 . S
C1652 C1653 1.414 . S
C1652 C1655 1.499 . S
C1653 H1627 0.950 . S
C1653 C1652 1.414 . S
C1653 C1654 1.374 . S
C1654 H1628 0.950 . S
C1654 C1650 1.385 . S
C1654 C1653 1.374 . S
C1655 C1652 1.499 . S
C1655 C1656 1.373 . S
C1655 C1657 1.389 . S
C1656 H1629 0.950 . S
C1656 C1642 1.377 . S
C1656 C1655 1.373 . S
C1657 C1641 1.377 . S
C1657 C1655 1.389 . S
C1657 C1658 1.524 . S
C1658 C1657 1.524 . S
C1658 C1659 1.397 . S
C1658 C1663 1.363 . S
C1659 H1630 0.950 . S
C1659 C1658 1.397 . S
C1659 C1660 1.334 1_455 S
C1660 H1631 0.950 . S
C1660 C1659 1.334 1_655 S
C1660 C1661 1.287 . S
C1661 C1660 1.287 . S
C1661 C1662 1.524 1_655 S
C1661 H1664 0.999 . S
C1662 H1632 0.950 . S
C1662 C1661 1.524 1_455 S
C1662 C1663 1.415 . S
C1663 H1633 0.950 . S
C1663 C1658 1.363 . S
C1663 C1662 1.415 . S
H1664 C1661 0.999 . S
H1665 C1646 0.913 . S
H1666 C1684 0.951 . S
H1667 C1686 0.951 . S
H1668 C1688 0.950 . S
H1669 C1689 0.950 . S
H1670 C1691 0.950 . S
H1671 C1694 0.950 . S
H1672 C1695 0.950 . S
H1673 C1697 0.950 . S
H1674 C1698 0.950 . S
H1675 C1699 0.951 . S
H1676 C1701 0.951 . S
H1677 C1703 0.950 . S
H1678 C1704 0.950 . S
H1679 C1706 0.950 . S
H1680 C1709 0.950 . S
H1681 C1710 0.950 . S
H1682 C1712 0.950 . S
H1683 C1713 0.950 . S
C1684 H1666 0.951 . S
C1684 C1685 1.366 . S
C1684 C1686 1.388 . S
C1685 C1684 1.366 . S
C1685 C1689 1.385 . S
C1686 H1667 0.951 . S
C1686 C1684 1.388 . S
C1686 C1687 1.366 . S
C1687 C1686 1.366 . S
C1687 C1688 1.414 . S
C1687 C1690 1.499 . S
C1688 H1668 0.950 . S
C1688 C1687 1.414 . S
C1688 C1689 1.374 . S
C1689 H1669 0.950 . S
C1689 C1685 1.385 . S
C1689 C1688 1.374 . S
C1690 C1687 1.499 . S
C1690 C1691 1.373 . S
C1690 C1692 1.389 . S
C1691 H1670 0.950 . S
C1691 C1690 1.373 . S
C1691 C1707 1.377 . S
C1692 C1690 1.389 . S
C1692 C1693 1.524 . S
C1692 C1706 1.377 . S
C1693 C1692 1.524 . S
C1693 C1694 1.397 . S
C1693 C1698 1.363 . S
C1694 H1671 0.950 . S
C1694 C1693 1.397 . S
C1694 C1695 1.334 . S
C1695 H1672 0.950 . S
C1695 C1694 1.334 . S
C1695 C1696 1.287 . S
C1696 C1695 1.287 . S
C1696 C1697 1.524 . S
C1696 H1715 0.913 . S
C1697 H1673 0.950 . S
C1697 C1696 1.524 . S
C1697 C1698 1.415 . S
C1698 H1674 0.950 . S
C1698 C1693 1.363 . S
C1698 C1697 1.415 . S
C1699 H1675 0.951 . S
C1699 C1700 1.366 . S
C1699 C1701 1.388 . S
C1700 C1699 1.366 . S
C1700 C1704 1.385 . S
C1701 H1676 0.951 . S
C1701 C1699 1.388 . S
C1701 C1702 1.366 . S
C1702 C1701 1.366 . S
C1702 C1703 1.414 . S
C1702 C1705 1.499 . S
C1703 H1677 0.950 . S
C1703 C1702 1.414 . S
C1703 C1704 1.374 . S
C1704 H1678 0.950 . S
C1704 C1700 1.385 . S
C1704 C1703 1.374 . S
C1705 C1702 1.499 . S
C1705 C1706 1.373 . S
C1705 C1707 1.389 . S
C1706 H1679 0.950 . S
C1706 C1692 1.377 . S
C1706 C1705 1.373 . S
C1707 C1691 1.377 . S
C1707 C1705 1.389 . S
C1707 C1708 1.524 . S
C1708 C1707 1.524 . S
C1708 C1709 1.397 . S
C1708 C1713 1.363 . S
C1709 H1680 0.950 . S
C1709 C1708 1.397 . S
C1709 C1710 1.334 . S
C1710 H1681 0.950 . S
C1710 C1709 1.334 . S
C1710 C1711 1.287 . S
C1711 C1710 1.287 . S
C1711 C1712 1.524 . S
C1711 H1714 0.999 . S
C1712 H1682 0.950 . S
C1712 C1711 1.524 . S
C1712 C1713 1.415 . S
C1713 H1683 0.950 . S
C1713 C1708 1.363 . S
C1713 C1712 1.415 . S
H1714 C1711 0.999 . S
H1715 C1696 0.913 . S
H1716 C1734 0.951 . S
H1717 C1736 0.951 . S
H1718 C1738 0.950 . S
H1719 C1739 0.950 . S
H1720 C1741 0.950 . S
H1721 C1744 0.950 . S
H1722 C1745 0.950 . S
H1723 C1747 0.950 . S
H1724 C1748 0.950 . S
H1725 C1749 0.951 . S
H1726 C1751 0.951 . S
H1727 C1753 0.950 . S
H1728 C1754 0.950 . S
H1729 C1756 0.950 . S
H1730 C1759 0.950 . S
H1731 C1760 0.950 . S
H1732 C1762 0.950 . S
H1733 C1763 0.950 . S
C1734 H1716 0.951 . S
C1734 C1735 1.366 . S
C1734 C1736 1.388 . S
C1735 C1734 1.366 . S
C1735 C1739 1.385 . S
C1736 H1717 0.951 . S
C1736 C1734 1.388 . S
C1736 C1737 1.366 . S
C1737 C1736 1.366 . S
C1737 C1738 1.414 . S
C1737 C1740 1.499 . S
C1738 H1718 0.950 . S
C1738 C1737 1.414 . S
C1738 C1739 1.374 . S
C1739 H1719 0.950 . S
C1739 C1735 1.385 . S
C1739 C1738 1.374 . S
C1740 C1737 1.499 . S
C1740 C1741 1.373 . S
C1740 C1742 1.389 . S
C1741 H1720 0.950 . S
C1741 C1740 1.373 . S
C1741 C1757 1.377 . S
C1742 C1740 1.389 . S
C1742 C1743 1.524 . S
C1742 C1756 1.377 . S
C1743 C1742 1.524 . S
C1743 C1744 1.397 . S
C1743 C1748 1.363 . S
C1744 H1721 0.950 . S
C1744 C1743 1.397 . S
C1744 C1745 1.334 . S
C1745 H1722 0.950 . S
C1745 C1744 1.334 . S
C1745 C1746 1.287 . S
C1746 C1745 1.287 . S
C1746 C1747 1.524 . S
C1746 H1765 0.913 . S
C1747 H1723 0.950 . S
C1747 C1746 1.524 . S
C1747 C1748 1.415 . S
C1748 H1724 0.950 . S
C1748 C1743 1.363 . S
C1748 C1747 1.415 . S
C1749 H1725 0.951 . S
C1749 C1750 1.366 . S
C1749 C1751 1.388 . S
C1750 C1749 1.366 . S
C1750 C1754 1.385 . S
C1751 H1726 0.951 . S
C1751 C1749 1.388 . S
C1751 C1752 1.366 . S
C1752 C1751 1.366 . S
C1752 C1753 1.414 . S
C1752 C1755 1.499 . S
C1753 H1727 0.950 . S
C1753 C1752 1.414 . S
C1753 C1754 1.374 . S
C1754 H1728 0.950 . S
C1754 C1750 1.385 . S
C1754 C1753 1.374 . S
C1755 C1752 1.499 . S
C1755 C1756 1.373 . S
C1755 C1757 1.389 . S
C1756 H1729 0.950 . S
C1756 C1742 1.377 . S
C1756 C1755 1.373 . S
C1757 C1741 1.377 . S
C1757 C1755 1.389 . S
C1757 C1758 1.524 . S
C1758 C1757 1.524 . S
C1758 C1759 1.397 . S
C1758 C1763 1.363 . S
C1759 H1730 0.950 . S
C1759 C1758 1.397 . S
C1759 C1760 1.334 . S
C1760 H1731 0.950 . S
C1760 C1759 1.334 . S
C1760 C1761 1.287 . S
C1761 C1760 1.287 . S
C1761 C1762 1.524 . S
C1761 H1764 0.999 . S
C1762 H1732 0.950 . S
C1762 C1761 1.524 . S
C1762 C1763 1.415 . S
C1763 H1733 0.950 . S
C1763 C1758 1.363 . S
C1763 C1762 1.415 . S
H1764 C1761 0.999 . S
H1765 C1746 0.913 . S
H1766 C1784 0.951 . S
H1767 C1786 0.951 . S
H1768 C1788 0.950 . S
H1769 C1789 0.950 . S
H1770 C1791 0.950 . S
H1771 C1794 0.950 . S
H1772 C1795 0.950 . S
H1773 C1797 0.950 1_455 S
H1774 C1798 0.950 . S
H1775 C1799 0.951 . S
H1776 C1801 0.951 . S
H1777 C1803 0.950 . S
H1778 C1804 0.950 1_455 S
H1779 C1806 0.950 . S
H1780 C1809 0.950 . S
H1781 C1810 0.950 . S
H1782 C1812 0.950 . S
H1783 C1813 0.950 . S
C1784 H1766 0.951 . S
C1784 C1785 1.366 . S
C1784 C1786 1.388 . S
C1785 C1784 1.366 . S
C1785 C1789 1.385 . S
C1786 H1767 0.951 . S
C1786 C1784 1.388 . S
C1786 C1787 1.366 . S
C1787 C1786 1.366 . S
C1787 C1788 1.414 . S
C1787 C1790 1.499 . S
C1788 H1768 0.950 . S
C1788 C1787 1.414 . S
C1788 C1789 1.374 . S
C1789 H1769 0.950 . S
C1789 C1785 1.385 . S
C1789 C1788 1.374 . S
C1790 C1787 1.499 . S
C1790 C1791 1.373 . S
C1790 C1792 1.389 . S
C1791 H1770 0.950 . S
C1791 C1790 1.373 . S
C1791 C1807 1.377 . S
C1792 C1790 1.389 . S
C1792 C1793 1.524 . S
C1792 C1806 1.377 . S
C1793 C1792 1.524 . S
C1793 C1794 1.397 . S
C1793 C1798 1.363 . S
C1794 H1771 0.950 . S
C1794 C1793 1.397 . S
C1794 C1795 1.334 . S
C1795 H1772 0.950 . S
C1795 C1794 1.334 . S
C1795 C1796 1.287 . S
C1796 C1795 1.287 . S
C1796 C1797 1.524 . S
C1796 H1815 0.913 . S
C1797 H1773 0.950 1_655 S
C1797 C1796 1.524 . S
C1797 C1798 1.415 . S
C1798 H1774 0.950 . S
C1798 C1793 1.363 . S
C1798 C1797 1.415 . S
C1799 H1775 0.951 . S
C1799 C1800 1.366 . S
C1799 C1801 1.388 . S
C1800 C1799 1.366 . S
C1800 C1804 1.385 . S
C1801 H1776 0.951 . S
C1801 C1799 1.388 . S
C1801 C1802 1.366 . S
C1802 C1801 1.366 . S
C1802 C1803 1.414 . S
C1802 C1805 1.499 . S
C1803 H1777 0.950 . S
C1803 C1802 1.414 . S
C1803 C1804 1.374 . S
C1804 H1778 0.950 1_655 S
C1804 C1800 1.385 . S
C1804 C1803 1.374 . S
C1805 C1802 1.499 . S
C1805 C1806 1.373 . S
C1805 C1807 1.389 . S
C1806 H1779 0.950 . S
C1806 C1792 1.377 . S
C1806 C1805 1.373 . S
C1807 C1791 1.377 . S
C1807 C1805 1.389 . S
C1807 C1808 1.524 . S
C1808 C1807 1.524 . S
C1808 C1809 1.397 . S
C1808 C1813 1.363 . S
C1809 H1780 0.950 . S
C1809 C1808 1.397 . S
C1809 C1810 1.334 . S
C1810 H1781 0.950 . S
C1810 C1809 1.334 . S
C1810 C1811 1.287 . S
C1811 C1810 1.287 . S
C1811 C1812 1.524 . S
C1811 H1814 0.999 . S
C1812 H1782 0.950 . S
C1812 C1811 1.524 . S
C1812 C1813 1.415 . S
C1813 H1783 0.950 . S
C1813 C1808 1.363 . S
C1813 C1812 1.415 . S
H1814 C1811 0.999 . S
H1815 C1796 0.913 . S
H1816 C1834 0.951 . S
H1817 C1836 0.951 . S
H1818 C1838 0.950 . S
H1819 C1839 0.950 . S
H1820 C1841 0.950 . S
H1821 C1844 0.950 . S
H1822 C1845 0.950 . S
H1823 C1847 0.950 . S
H1824 C1848 0.950 . S
H1825 C1849 0.951 1_455 S
H1826 C1851 0.951 . S
H1827 C1853 0.950 . S
H1828 C1854 0.950 . S
H1829 C1856 0.950 . S
H1830 C1859 0.950 . S
H1831 C1860 0.950 . S
H1832 C1862 0.950 . S
H1833 C1863 0.950 . S
C1834 H1816 0.951 . S
C1834 C1835 1.366 . S
C1834 C1836 1.388 . S
C1835 C1834 1.366 . S
C1835 C1839 1.385 . S
C1836 H1817 0.951 . S
C1836 C1834 1.388 . S
C1836 C1837 1.366 . S
C1837 C1836 1.366 . S
C1837 C1838 1.414 . S
C1837 C1840 1.499 . S
C1838 H1818 0.950 . S
C1838 C1837 1.414 . S
C1838 C1839 1.374 . S
C1839 H1819 0.950 . S
C1839 C1835 1.385 . S
C1839 C1838 1.374 . S
C1840 C1837 1.499 . S
C1840 C1841 1.373 . S
C1840 C1842 1.389 . S
C1841 H1820 0.950 . S
C1841 C1840 1.373 . S
C1841 C1857 1.377 . S
C1842 C1840 1.389 . S
C1842 C1843 1.524 . S
C1842 C1856 1.377 . S
C1843 C1842 1.524 . S
C1843 C1844 1.397 . S
C1843 C1848 1.363 . S
C1844 H1821 0.950 . S
C1844 C1843 1.397 . S
C1844 C1845 1.334 . S
C1845 H1822 0.950 . S
C1845 C1844 1.334 . S
C1845 C1846 1.287 . S
C1846 C1845 1.287 . S
C1846 C1847 1.524 . S
C1846 H1865 0.913 . S
C1847 H1823 0.950 . S
C1847 C1846 1.524 . S
C1847 C1848 1.415 . S
C1848 H1824 0.950 . S
C1848 C1843 1.363 . S
C1848 C1847 1.415 . S
C1849 H1825 0.951 1_655 S
C1849 C1850 1.366 . S
C1849 C1851 1.388 . S
C1850 C1849 1.366 . S
C1850 C1854 1.385 . S
C1851 H1826 0.951 . S
C1851 C1849 1.388 . S
C1851 C1852 1.366 . S
C1852 C1851 1.366 . S
C1852 C1853 1.414 . S
C1852 C1855 1.499 . S
C1853 H1827 0.950 . S
C1853 C1852 1.414 . S
C1853 C1854 1.374 . S
C1854 H1828 0.950 . S
C1854 C1850 1.385 . S
C1854 C1853 1.374 . S
C1855 C1852 1.499 . S
C1855 C1856 1.373 . S
C1855 C1857 1.389 . S
C1856 H1829 0.950 . S
C1856 C1842 1.377 . S
C1856 C1855 1.373 . S
C1857 C1841 1.377 . S
C1857 C1855 1.389 . S
C1857 C1858 1.524 . S
C1858 C1857 1.524 . S
C1858 C1859 1.397 . S
C1858 C1863 1.363 . S
C1859 H1830 0.950 . S
C1859 C1858 1.397 . S
C1859 C1860 1.334 . S
C1860 H1831 0.950 . S
C1860 C1859 1.334 . S
C1860 C1861 1.287 1_655 S
C1861 C1860 1.287 1_455 S
C1861 C1862 1.524 . S
C1861 H1864 0.999 . S
C1862 H1832 0.950 . S
C1862 C1861 1.524 . S
C1862 C1863 1.415 1_455 S
C1863 H1833 0.950 . S
C1863 C1858 1.363 . S
C1863 C1862 1.415 1_655 S
H1864 C1861 0.999 . S
H1865 C1846 0.913 . S
H1866 C1884 0.951 . S
H1867 C1886 0.951 . S
H1868 C1888 0.950 . S
H1869 C1889 0.950 . S
H1870 C1891 0.950 . S
H1871 C1894 0.950 . S
H1872 C1895 0.950 . S
H1873 C1897 0.950 . S
H1874 C1898 0.950 . S
H1875 C1899 0.951 . S
H1876 C1901 0.951 . S
H1877 C1903 0.950 . S
H1878 C1904 0.950 . S
H1879 C1906 0.950 . S
H1880 C1909 0.950 . S
H1881 C1910 0.950 . S
H1882 C1912 0.950 . S
H1883 C1913 0.950 . S
C1884 H1866 0.951 . S
C1884 C1885 1.366 . S
C1884 C1886 1.388 . S
C1885 C1884 1.366 . S
C1885 C1889 1.385 . S
C1886 H1867 0.951 . S
C1886 C1884 1.388 . S
C1886 C1887 1.366 . S
C1887 C1886 1.366 . S
C1887 C1888 1.414 . S
C1887 C1890 1.499 . S
C1888 H1868 0.950 . S
C1888 C1887 1.414 . S
C1888 C1889 1.374 . S
C1889 H1869 0.950 . S
C1889 C1885 1.385 . S
C1889 C1888 1.374 . S
C1890 C1887 1.499 . S
C1890 C1891 1.373 . S
C1890 C1892 1.389 . S
C1891 H1870 0.950 . S
C1891 C1890 1.373 . S
C1891 C1907 1.377 . S
C1892 C1890 1.389 . S
C1892 C1893 1.524 . S
C1892 C1906 1.377 . S
C1893 C1892 1.524 . S
C1893 C1894 1.397 . S
C1893 C1898 1.363 . S
C1894 H1871 0.950 . S
C1894 C1893 1.397 . S
C1894 C1895 1.334 . S
C1895 H1872 0.950 . S
C1895 C1894 1.334 . S
C1895 C1896 1.287 . S
C1896 C1895 1.287 . S
C1896 C1897 1.524 . S
C1896 H1915 0.913 . S
C1897 H1873 0.950 . S
C1897 C1896 1.524 . S
C1897 C1898 1.415 . S
C1898 H1874 0.950 . S
C1898 C1893 1.363 . S
C1898 C1897 1.415 . S
C1899 H1875 0.951 . S
C1899 C1900 1.366 . S
C1899 C1901 1.388 . S
C1900 C1899 1.366 . S
C1900 C1904 1.385 . S
C1901 H1876 0.951 . S
C1901 C1899 1.388 . S
C1901 C1902 1.366 . S
C1902 C1901 1.366 . S
C1902 C1903 1.414 . S
C1902 C1905 1.499 . S
C1903 H1877 0.950 . S
C1903 C1902 1.414 . S
C1903 C1904 1.374 . S
C1904 H1878 0.950 . S
C1904 C1900 1.385 . S
C1904 C1903 1.374 . S
C1905 C1902 1.499 . S
C1905 C1906 1.373 . S
C1905 C1907 1.389 . S
C1906 H1879 0.950 . S
C1906 C1892 1.377 . S
C1906 C1905 1.373 . S
C1907 C1891 1.377 . S
C1907 C1905 1.389 . S
C1907 C1908 1.524 . S
C1908 C1907 1.524 . S
C1908 C1909 1.397 . S
C1908 C1913 1.363 . S
C1909 H1880 0.950 . S
C1909 C1908 1.397 . S
C1909 C1910 1.334 . S
C1910 H1881 0.950 . S
C1910 C1909 1.334 . S
C1910 C1911 1.287 . S
C1911 C1910 1.287 . S
C1911 C1912 1.524 . S
C1911 H1914 0.999 . S
C1912 H1882 0.950 . S
C1912 C1911 1.524 . S
C1912 C1913 1.415 . S
C1913 H1883 0.950 . S
C1913 C1908 1.363 . S
C1913 C1912 1.415 . S
H1914 C1911 0.999 . S
H1915 C1896 0.913 . S
H1916 C1934 0.951 . S
H1917 C1936 0.951 . S
H1918 C1938 0.950 . S
H1919 C1939 0.950 . S
H1920 C1941 0.950 . S
H1921 C1944 0.950 . S
H1922 C1945 0.950 . S
H1923 C1947 0.950 . S
H1924 C1948 0.950 . S
H1925 C1949 0.951 . S
H1926 C1951 0.951 . S
H1927 C1953 0.950 . S
H1928 C1954 0.950 . S
H1929 C1956 0.950 . S
H1930 C1959 0.950 . S
H1931 C1960 0.950 . S
H1932 C1962 0.950 . S
H1933 C1963 0.950 . S
C1934 H1916 0.951 . S
C1934 C1935 1.366 . S
C1934 C1936 1.388 . S
C1935 C1934 1.366 . S
C1935 C1939 1.385 . S
C1936 H1917 0.951 . S
C1936 C1934 1.388 . S
C1936 C1937 1.366 . S
C1937 C1936 1.366 . S
C1937 C1938 1.414 . S
C1937 C1940 1.499 . S
C1938 H1918 0.950 . S
C1938 C1937 1.414 . S
C1938 C1939 1.374 . S
C1939 H1919 0.950 . S
C1939 C1935 1.385 . S
C1939 C1938 1.374 . S
C1940 C1937 1.499 . S
C1940 C1941 1.373 . S
C1940 C1942 1.389 . S
C1941 H1920 0.950 . S
C1941 C1940 1.373 . S
C1941 C1957 1.377 . S
C1942 C1940 1.389 . S
C1942 C1943 1.524 . S
C1942 C1956 1.377 . S
C1943 C1942 1.524 . S
C1943 C1944 1.397 . S
C1943 C1948 1.363 . S
C1944 H1921 0.950 . S
C1944 C1943 1.397 . S
C1944 C1945 1.334 . S
C1945 H1922 0.950 . S
C1945 C1944 1.334 . S
C1945 C1946 1.287 . S
C1946 C1945 1.287 . S
C1946 C1947 1.524 . S
C1946 H1965 0.913 . S
C1947 H1923 0.950 . S
C1947 C1946 1.524 . S
C1947 C1948 1.415 . S
C1948 H1924 0.950 . S
C1948 C1943 1.363 . S
C1948 C1947 1.415 . S
C1949 H1925 0.951 . S
C1949 C1950 1.366 . S
C1949 C1951 1.388 . S
C1950 C1949 1.366 . S
C1950 C1954 1.385 . S
C1951 H1926 0.951 . S
C1951 C1949 1.388 . S
C1951 C1952 1.366 . S
C1952 C1951 1.366 . S
C1952 C1953 1.414 . S
C1952 C1955 1.499 . S
C1953 H1927 0.950 . S
C1953 C1952 1.414 . S
C1953 C1954 1.374 . S
C1954 H1928 0.950 . S
C1954 C1950 1.385 . S
C1954 C1953 1.374 . S
C1955 C1952 1.499 . S
C1955 C1956 1.373 . S
C1955 C1957 1.389 . S
C1956 H1929 0.950 . S
C1956 C1942 1.377 . S
C1956 C1955 1.373 . S
C1957 C1941 1.377 . S
C1957 C1955 1.389 . S
C1957 C1958 1.524 . S
C1958 C1957 1.524 . S
C1958 C1959 1.397 . S
C1958 C1963 1.363 . S
C1959 H1930 0.950 . S
C1959 C1958 1.397 . S
C1959 C1960 1.334 . S
C1960 H1931 0.950 . S
C1960 C1959 1.334 . S
C1960 C1961 1.287 . S
C1961 C1960 1.287 . S
C1961 C1962 1.524 . S
C1961 H1964 0.999 . S
C1962 H1932 0.950 . S
C1962 C1961 1.524 . S
C1962 C1963 1.415 . S
C1963 H1933 0.950 . S
C1963 C1958 1.363 . S
C1963 C1962 1.415 . S
H1964 C1961 0.999 . S
H1965 C1946 0.913 . S
H1966 C1984 0.951 . S
H1967 C1986 0.951 . S
H1968 C1988 0.950 . S
H1969 C1989 0.950 . S
H1970 C1991 0.950 . S
H1971 C1994 0.950 . S
H1972 C1995 0.950 . S
H1973 C1997 0.950 . S
H1974 C1998 0.950 . S
H1975 C1999 0.951 . S
H1976 C2001 0.951 . S
H1977 C2003 0.950 . S
H1978 C2004 0.950 . S
H1979 C2006 0.950 . S
H1980 C2009 0.950 . S
H1981 C2010 0.950 . S
H1982 C2012 0.950 . S
H1983 C2013 0.950 . S
C1984 H1966 0.951 . S
C1984 C1985 1.366 . S
C1984 C1986 1.388 . S
C1985 C1984 1.366 . S
C1985 C1989 1.385 . S
C1986 H1967 0.951 . S
C1986 C1984 1.388 . S
C1986 C1987 1.366 . S
C1987 C1986 1.366 . S
C1987 C1988 1.414 . S
C1987 C1990 1.499 . S
C1988 H1968 0.950 . S
C1988 C1987 1.414 . S
C1988 C1989 1.374 . S
C1989 H1969 0.950 . S
C1989 C1985 1.385 . S
C1989 C1988 1.374 . S
C1990 C1987 1.499 . S
C1990 C1991 1.373 . S
C1990 C1992 1.389 . S
C1991 H1970 0.950 . S
C1991 C1990 1.373 . S
C1991 C2007 1.377 . S
C1992 C1990 1.389 . S
C1992 C1993 1.524 . S
C1992 C2006 1.377 . S
C1993 C1992 1.524 . S
C1993 C1994 1.397 . S
C1993 C1998 1.363 . S
C1994 H1971 0.950 . S
C1994 C1993 1.397 . S
C1994 C1995 1.334 . S
C1995 H1972 0.950 . S
C1995 C1994 1.334 . S
C1995 C1996 1.287 . S
C1996 C1995 1.287 . S
C1996 C1997 1.524 . S
C1996 H2015 0.913 . S
C1997 H1973 0.950 . S
C1997 C1996 1.524 . S
C1997 C1998 1.415 . S
C1998 H1974 0.950 . S
C1998 C1993 1.363 . S
C1998 C1997 1.415 . S
C1999 H1975 0.951 . S
C1999 C2000 1.366 . S
C1999 C2001 1.388 . S
C2000 C1999 1.366 . S
C2000 C2004 1.385 . S
C2001 H1976 0.951 . S
C2001 C1999 1.388 . S
C2001 C2002 1.366 . S
C2002 C2001 1.366 . S
C2002 C2003 1.414 . S
C2002 C2005 1.499 . S
C2003 H1977 0.950 . S
C2003 C2002 1.414 . S
C2003 C2004 1.374 . S
C2004 H1978 0.950 . S
C2004 C2000 1.385 . S
C2004 C2003 1.374 . S
C2005 C2002 1.499 . S
C2005 C2006 1.373 . S
C2005 C2007 1.389 . S
C2006 H1979 0.950 . S
C2006 C1992 1.377 . S
C2006 C2005 1.373 . S
C2007 C1991 1.377 . S
C2007 C2005 1.389 . S
C2007 C2008 1.524 . S
C2008 C2007 1.524 . S
C2008 C2009 1.397 . S
C2008 C2013 1.363 . S
C2009 H1980 0.950 . S
C2009 C2008 1.397 . S
C2009 C2010 1.334 . S
C2010 H1981 0.950 . S
C2010 C2009 1.334 . S
C2010 C2011 1.287 . S
C2011 C2010 1.287 . S
C2011 C2012 1.524 . S
C2011 H2014 0.999 . S
C2012 H1982 0.950 . S
C2012 C2011 1.524 . S
C2012 C2013 1.415 . S
C2013 H1983 0.950 . S
C2013 C2008 1.363 . S
C2013 C2012 1.415 . S
H2014 C2011 0.999 . S
H2015 C1996 0.913 . S
C835 C361 1.437 . S
C850 C554 1.447 . S
C900 C638 1.447 . S
C885 C451 1.445 . S
C950 C631 1.453 . S
C935 C241 1.427 . S
C985 C331 1.435 . S
C1000 C547 1.454 . S
C1050 C711 1.447 . S
C1035 C140 1.428 . S
C1100 C795 1.447 . S
C1085 C211 1.428 . S
C1135 C20 1.417 . S
C1150 C788 1.454 . S
C1185 C91 1.417 . S
C1200 C704 1.454 . S
C1250 C538 1.348 . S
C1235 C80 1.478 1_554 S
C1300 C622 1.346 . S
C1285 C1 1.478 . S
C1350 C633 1.408 . S
C1335 C200 1.564 . S
C1400 C549 1.407 . S
C1385 C121 1.500 . S
C1450 C717 1.347 . S
C1435 C320 1.498 1_556 S
C1485 C260 1.491 . S
C1500 C801 1.348 . S
C1550 C790 1.407 . S
C1535 C440 1.519 . S
C1585 C380 1.513 . S
C1600 C706 1.407 . S
C1650 C536 1.591 . S
C1635 C31 1.570 . S
C1700 C620 1.591 . S
C1685 C61 1.569 . S
C1735 C151 1.561 . S
C1750 C627 1.568 . S
C1800 C543 1.569 . S
C1785 C181 1.561 . S
C1850 C715 1.591 . S
C1835 C271 1.533 . S
C1885 C301 1.590 . S
C1900 C799 1.591 . S
C1935 C391 1.526 . S
C1950 C806 1.568 . S
C1985 C421 1.580 . S
C2000 C722 1.568 . S
