# Generated by pormake.
# Topology ctn, (3,4)-cn, num edge types: 1
# Building blocks:
#     Node 0, Type 0, BuildingBlock: BELTOD_clean_linker_0, # of connection points: 3
#     Node 1, Type 0, BuildingBlock: BELTOD_clean_linker_0, # of connection points: 3
#     Node 2, Type 0, BuildingBlock: BELTOD_clean_linker_0, # of connection points: 3
#     Node 3, Type 0, BuildingBlock: BELTOD_clean_linker_0, # of connection points: 3
#     Node 4, Type 0, BuildingBlock: BELTOD_clean_linker_0, # of connection points: 3
#     Node 5, Type 0, BuildingBlock: BELTOD_clean_linker_0, # of connection points: 3
#     Node 6, Type 0, BuildingBlock: BELTOD_clean_linker_0, # of connection points: 3
#     Node 7, Type 0, BuildingBlock: BELTOD_clean_linker_0, # of connection points: 3
#     Node 8, Type 0, BuildingBlock: BELTOD_clean_linker_0, # of connection points: 3
#     Node 9, Type 0, BuildingBlock: BELTOD_clean_linker_0, # of connection points: 3
#     Node 10, Type 0, BuildingBlock: BELTOD_clean_linker_0, # of connection points: 3
#     Node 11, Type 0, BuildingBlock: BELTOD_clean_linker_0, # of connection points: 3
#     Node 12, Type 0, BuildingBlock: BELTOD_clean_linker_0, # of connection points: 3
#     Node 13, Type 0, BuildingBlock: BELTOD_clean_linker_0, # of connection points: 3
#     Node 14, Type 0, BuildingBlock: BELTOD_clean_linker_0, # of connection points: 3
#     Node 15, Type 0, BuildingBlock: BELTOD_clean_linker_0, # of connection points: 3
#     Node 16, Type 1, BuildingBlock: UXUYUI_clean_sbu_0, # of connection points: 4
#     Node 17, Type 1, BuildingBlock: UXUYUI_clean_sbu_0, # of connection points: 4
#     Node 18, Type 1, BuildingBlock: UXUYUI_clean_sbu_0, # of connection points: 4
#     Node 19, Type 1, BuildingBlock: UXUYUI_clean_sbu_0, # of connection points: 4
#     Node 20, Type 1, BuildingBlock: UXUYUI_clean_sbu_0, # of connection points: 4
#     Node 21, Type 1, BuildingBlock: UXUYUI_clean_sbu_0, # of connection points: 4
#     Node 22, Type 1, BuildingBlock: UXUYUI_clean_sbu_0, # of connection points: 4
#     Node 23, Type 1, BuildingBlock: UXUYUI_clean_sbu_0, # of connection points: 4
#     Node 24, Type 1, BuildingBlock: UXUYUI_clean_sbu_0, # of connection points: 4
#     Node 25, Type 1, BuildingBlock: UXUYUI_clean_sbu_0, # of connection points: 4
#     Node 26, Type 1, BuildingBlock: UXUYUI_clean_sbu_0, # of connection points: 4
#     Node 27, Type 1, BuildingBlock: UXUYUI_clean_sbu_0, # of connection points: 4
#     Edge 28, Type (0, 1), BuildingBlock: ZUJKAS_clean_linker_0, # of connection points: 2
#     Edge 29, Type (0, 1), BuildingBlock: ZUJKAS_clean_linker_0, # of connection points: 2
#     Edge 30, Type (0, 1), BuildingBlock: ZUJKAS_clean_linker_0, # of connection points: 2
#     Edge 31, Type (0, 1), BuildingBlock: ZUJKAS_clean_linker_0, # of connection points: 2
#     Edge 32, Type (0, 1), BuildingBlock: ZUJKAS_clean_linker_0, # of connection points: 2
#     Edge 33, Type (0, 1), BuildingBlock: ZUJKAS_clean_linker_0, # of connection points: 2
#     Edge 34, Type (0, 1), BuildingBlock: ZUJKAS_clean_linker_0, # of connection points: 2
#     Edge 35, Type (0, 1), BuildingBlock: ZUJKAS_clean_linker_0, # of connection points: 2
#     Edge 36, Type (0, 1), BuildingBlock: ZUJKAS_clean_linker_0, # of connection points: 2
#     Edge 37, Type (0, 1), BuildingBlock: ZUJKAS_clean_linker_0, # of connection points: 2
#     Edge 38, Type (0, 1), BuildingBlock: ZUJKAS_clean_linker_0, # of connection points: 2
#     Edge 39, Type (0, 1), BuildingBlock: ZUJKAS_clean_linker_0, # of connection points: 2
#     Edge 40, Type (0, 1), BuildingBlock: ZUJKAS_clean_linker_0, # of connection points: 2
#     Edge 41, Type (0, 1), BuildingBlock: ZUJKAS_clean_linker_0, # of connection points: 2
#     Edge 42, Type (0, 1), BuildingBlock: ZUJKAS_clean_linker_0, # of connection points: 2
#     Edge 43, Type (0, 1), BuildingBlock: ZUJKAS_clean_linker_0, # of connection points: 2
#     Edge 44, Type (0, 1), BuildingBlock: ZUJKAS_clean_linker_0, # of connection points: 2
#     Edge 45, Type (0, 1), BuildingBlock: ZUJKAS_clean_linker_0, # of connection points: 2
#     Edge 46, Type (0, 1), BuildingBlock: ZUJKAS_clean_linker_0, # of connection points: 2
#     Edge 47, Type (0, 1), BuildingBlock: ZUJKAS_clean_linker_0, # of connection points: 2
#     Edge 48, Type (0, 1), BuildingBlock: ZUJKAS_clean_linker_0, # of connection points: 2
#     Edge 49, Type (0, 1), BuildingBlock: ZUJKAS_clean_linker_0, # of connection points: 2
#     Edge 50, Type (0, 1), BuildingBlock: ZUJKAS_clean_linker_0, # of connection points: 2
#     Edge 51, Type (0, 1), BuildingBlock: ZUJKAS_clean_linker_0, # of connection points: 2
#     Edge 52, Type (0, 1), BuildingBlock: ZUJKAS_clean_linker_0, # of connection points: 2
#     Edge 53, Type (0, 1), BuildingBlock: ZUJKAS_clean_linker_0, # of connection points: 2
#     Edge 54, Type (0, 1), BuildingBlock: ZUJKAS_clean_linker_0, # of connection points: 2
#     Edge 55, Type (0, 1), BuildingBlock: ZUJKAS_clean_linker_0, # of connection points: 2
#     Edge 56, Type (0, 1), BuildingBlock: ZUJKAS_clean_linker_0, # of connection points: 2
#     Edge 57, Type (0, 1), BuildingBlock: ZUJKAS_clean_linker_0, # of connection points: 2
#     Edge 58, Type (0, 1), BuildingBlock: ZUJKAS_clean_linker_0, # of connection points: 2
#     Edge 59, Type (0, 1), BuildingBlock: ZUJKAS_clean_linker_0, # of connection points: 2
#     Edge 60, Type (0, 1), BuildingBlock: ZUJKAS_clean_linker_0, # of connection points: 2
#     Edge 61, Type (0, 1), BuildingBlock: ZUJKAS_clean_linker_0, # of connection points: 2
#     Edge 62, Type (0, 1), BuildingBlock: ZUJKAS_clean_linker_0, # of connection points: 2
#     Edge 63, Type (0, 1), BuildingBlock: ZUJKAS_clean_linker_0, # of connection points: 2
#     Edge 64, Type (0, 1), BuildingBlock: ZUJKAS_clean_linker_0, # of connection points: 2
#     Edge 65, Type (0, 1), BuildingBlock: ZUJKAS_clean_linker_0, # of connection points: 2
#     Edge 66, Type (0, 1), BuildingBlock: ZUJKAS_clean_linker_0, # of connection points: 2
#     Edge 67, Type (0, 1), BuildingBlock: ZUJKAS_clean_linker_0, # of connection points: 2
#     Edge 68, Type (0, 1), BuildingBlock: ZUJKAS_clean_linker_0, # of connection points: 2
#     Edge 69, Type (0, 1), BuildingBlock: ZUJKAS_clean_linker_0, # of connection points: 2
#     Edge 70, Type (0, 1), BuildingBlock: ZUJKAS_clean_linker_0, # of connection points: 2
#     Edge 71, Type (0, 1), BuildingBlock: ZUJKAS_clean_linker_0, # of connection points: 2
#     Edge 72, Type (0, 1), BuildingBlock: ZUJKAS_clean_linker_0, # of connection points: 2
#     Edge 73, Type (0, 1), BuildingBlock: ZUJKAS_clean_linker_0, # of connection points: 2
#     Edge 74, Type (0, 1), BuildingBlock: ZUJKAS_clean_linker_0, # of connection points: 2
#     Edge 75, Type (0, 1), BuildingBlock: ZUJKAS_clean_linker_0, # of connection points: 2
# Relax obj value: 0.001
# Max RMSD: 0.018
# Mean RMSD: 0.012
data_MOF--net-ctn--node1-UXUYUI_clean_sbu_0--node2-BELTOD_clean_linker_0--edge1-ZUJKAS_clean_linker_0
_symmetry_space_group_name_H-M    P1
_symmetry_Int_Tables_number       1
_symmetry_cell_setting            triclinic
loop_
_symmetry_equiv_pos_as_xyz
'x, y, z'
_cell_length_a     92.210419
_cell_length_b     92.798087
_cell_length_c     92.05097
_cell_angle_alpha  89.391832
_cell_angle_beta   90.100015
_cell_angle_gamma 90.697498
loop_
_atom_site_label
_atom_site_type_symbol
_atom_site_fract_x
_atom_site_fract_y
_atom_site_fract_z
_atom_type_partial_charge
P0 P 0.05679 0.05398 0.0604 0.0
H1 H 0.05569 0.04305 0.09005 0.0
H2 H 0.03581 0.035 0.10572 0.0
H3 H 0.00578 0.04026 0.06998 0.0
H4 H 0.02578 0.04862 0.05445 0.0
H5 H 0.08706 0.05396 0.05187 0.0
H6 H 0.10309 0.03525 0.04313 0.0
H7 H 0.06731 0.00469 0.04398 0.0
H8 H 0.0514 0.02352 0.0531 0.0
H9 H 0.046 0.08322 0.06044 0.0
H10 H 0.0526 0.04991 0.02892 0.0
O11 O 0.06703 0.0642 0.07128 0.0
H12 H 0.03811 0.09963 0.04118 0.0
H13 H 0.04443 0.06619 0.00955 0.0
C14 C 0.04215 0.0467 0.07121 0.0
C15 C 0.04483 0.0424 0.08558 0.0
C16 C 0.03345 0.03768 0.09449 0.0
C17 C 0.01915 0.03706 0.08915 0.0
C18 C 0.01661 0.04086 0.07452 0.0
C19 C 0.02804 0.04559 0.0656 0.0
C20 C 0.06815 0.04004 0.05341 0.0
C21 C 0.08268 0.04322 0.0502 0.0
C22 C 0.0918 0.03253 0.04506 0.0
C23 C 0.08652 0.01842 0.04287 0.0
C24 C 0.0718 0.01537 0.04577 0.0
C25 C 0.06267 0.02612 0.05094 0.0
C26 C 0.05015 0.06548 0.04606 0.0
C27 C 0.04567 0.07943 0.04935 0.0
C28 C 0.04104 0.08876 0.03833 0.0
C29 C 0.04069 0.08426 0.02378 0.0
C30 C 0.0448 0.07007 0.0206 0.0
C31 C 0.04943 0.06074 0.03167 0.0
P32 P 0.30784 0.69889 0.2011 0.0
H33 H 0.32237 0.71335 0.17688 0.0
H34 H 0.31502 0.73245 0.16006 0.0
H35 H 0.27432 0.73603 0.18285 0.0
H36 H 0.28185 0.71692 0.19978 0.0
H37 H 0.32459 0.68363 0.22288 0.0
H38 H 0.33994 0.6916 0.24296 0.0
H39 H 0.32824 0.73576 0.23392 0.0
H40 H 0.31303 0.72769 0.2137 0.0
H41 H 0.28843 0.6813 0.18378 0.0
H42 H 0.29309 0.69227 0.22897 0.0
O43 O 0.31899 0.68845 0.19173 0.0
H44 H 0.26865 0.66459 0.18994 0.0
H45 H 0.27357 0.67528 0.23528 0.0
C46 C 0.30251 0.71352 0.18934 0.0
C47 C 0.31185 0.71823 0.17825 0.0
C48 C 0.30762 0.72912 0.16862 0.0
C49 C 0.294 0.73561 0.16999 0.0
C50 C 0.28488 0.73124 0.18151 0.0
C51 C 0.28912 0.72027 0.19113 0.0
C52 C 0.31778 0.70506 0.21675 0.0
C53 C 0.32524 0.69502 0.22532 0.0
C54 C 0.33394 0.6996 0.23685 0.0
C55 C 0.33536 0.71434 0.24003 0.0
C56 C 0.32752 0.72435 0.23164 0.0
C57 C 0.31877 0.71974 0.2201 0.0
C58 C 0.29235 0.68786 0.20592 0.0
C59 C 0.28515 0.68013 0.19503 0.0
C60 C 0.27391 0.67051 0.19859 0.0
C61 C 0.26965 0.66843 0.21313 0.0
C62 C 0.27654 0.67666 0.22397 0.0
C63 C 0.28779 0.68631 0.22038 0.0
P64 P 0.98348 0.48579 0.01896 0.0
H65 H 0.98514 0.47654 0.98892 0.0
H66 H 0.98516 0.45285 0.97761 0.0
H67 H 0.97953 0.43266 0.01977 0.0
H68 H 0.97943 0.45648 0.03103 0.0
H69 H 0.97405 0.51549 0.0163 0.0
H70 H 0.95025 0.5267 0.01669 0.0
H71 H 0.93018 0.48502 0.02445 0.0
H72 H 0.95415 0.47384 0.02408 0.0
H73 H 0.01356 0.48848 0.02816 0.0
H74 H 0.97205 0.48081 0.04848 0.0
O75 O 0.99386 0.49632 0.00833 0.0
H76 H 0.02534 0.48803 0.05185 0.0
H77 H 0.98383 0.47984 0.07233 0.0
C78 C 0.98261 0.46824 0.01083 0.0
C79 C 0.98393 0.46702 0.99574 0.0
C80 C 0.98398 0.45347 0.98929 0.0
C81 C 0.98254 0.44087 0.99782 0.0
C82 C 0.98065 0.44216 0.01291 0.0
C83 C 0.98068 0.45576 0.01937 0.0
C84 C 0.96583 0.49381 0.01984 0.0
C85 C 0.96454 0.50874 0.01803 0.0
C86 C 0.95092 0.51514 0.01822 0.0
C87 C 0.93832 0.50672 0.02042 0.0
C88 C 0.93969 0.49179 0.02274 0.0
C89 C 0.95336 0.48538 0.02244 0.0
C90 C 0.99191 0.48498 0.0366 0.0
C91 C 0.00698 0.48666 0.03775 0.0
C92 C 0.01373 0.48625 0.05133 0.0
C93 C 0.00555 0.48392 0.06406 0.0
C94 C 0.99044 0.48191 0.0628 0.0
C95 C 0.98368 0.48241 0.04917 0.0
P96 P 0.69822 0.80513 0.19959 0.0
H97 H 0.7159 0.82612 0.18391 0.0
H98 H 0.73609 0.84174 0.19106 0.0
H99 H 0.73559 0.82236 0.23398 0.0
H100 H 0.71513 0.80693 0.22676 0.0
H101 H 0.68486 0.79181 0.1743 0.0
H102 H 0.69242 0.77254 0.15823 0.0
H103 H 0.73066 0.76606 0.18457 0.0
H104 H 0.72296 0.78544 0.2007 0.0
H105 H 0.67976 0.82101 0.21895 0.0
H106 H 0.69365 0.77708 0.21457 0.0
O107 O 0.68775 0.81586 0.1895 0.0
H108 H 0.66419 0.81389 0.23923 0.0
H109 H 0.67832 0.76986 0.23515 0.0
C110 C 0.71386 0.81561 0.20488 0.0
C111 C 0.72018 0.82521 0.19485 0.0
C112 C 0.73181 0.83405 0.19893 0.0
C113 C 0.73744 0.83337 0.21313 0.0
C114 C 0.73136 0.82333 0.22303 0.0
C115 C 0.71969 0.81447 0.21891 0.0
C116 C 0.70351 0.79023 0.18849 0.0
C117 C 0.69487 0.78626 0.17663 0.0
C118 C 0.69923 0.77527 0.16743 0.0
C119 C 0.71223 0.76792 0.17002 0.0
C120 C 0.72058 0.77154 0.1823 0.0
C121 C 0.71625 0.78264 0.19146 0.0
C122 C 0.68767 0.79955 0.21513 0.0
C123 C 0.67953 0.80983 0.22245 0.0
C124 C 0.67072 0.80574 0.23414 0.0
C125 C 0.66996 0.79127 0.23884 0.0
C126 C 0.67848 0.78105 0.23168 0.0
C127 C 0.6873 0.78517 0.21994 0.0
P128 P 0.05443 0.95125 0.45453 0.0
H129 H 0.0811 0.95118 0.4712 0.0
H130 H 0.09686 0.97038 0.4804 0.0
H131 H 0.06632 0.00212 0.46514 0.0
H132 H 0.05067 0.98284 0.45586 0.0
H133 H 0.05017 0.92012 0.45408 0.0
H134 H 0.04294 0.90247 0.47264 0.0
H135 H 0.03763 0.93677 0.50349 0.0
H136 H 0.04477 0.95444 0.48474 0.0
H137 H 0.05394 0.96659 0.42696 0.0
H138 H 0.02256 0.95068 0.45808 0.0
O139 O 0.06564 0.94268 0.44344 0.0
H140 H 0.03436 0.97469 0.41108 0.0
H141 H 0.00286 0.95888 0.44228 0.0
C142 C 0.06481 0.96557 0.46273 0.0
C143 C 0.07773 0.96227 0.46999 0.0
C144 C 0.08669 0.97326 0.47531 0.0
C145 C 0.08288 0.9878 0.47344 0.0
C146 C 0.06965 0.99104 0.46657 0.0
C147 C 0.06067 0.98001 0.46129 0.0
C148 C 0.04832 0.93853 0.46815 0.0
C149 C 0.04747 0.92385 0.46484 0.0
C150 C 0.04338 0.91376 0.47547 0.0
C151 C 0.03991 0.9182 0.4896 0.0
C152 C 0.04023 0.93301 0.49272 0.0
C153 C 0.04439 0.94311 0.48205 0.0
C154 C 0.03971 0.9579 0.44359 0.0
C155 C 0.04282 0.96493 0.4304 0.0
C156 C 0.03161 0.96964 0.42139 0.0
C157 C 0.01703 0.96741 0.4254 0.0
C158 C 0.01396 0.96061 0.43881 0.0
C159 C 0.02522 0.95595 0.44787 0.0
P160 P 0.23062 0.73232 0.77212 0.0
H161 H 0.24135 0.76068 0.78104 0.0
H162 H 0.24234 0.77273 0.80443 0.0
H163 H 0.2228 0.7352 0.825 0.0
H164 H 0.222 0.7231 0.80146 0.0
H165 H 0.25995 0.72448 0.76388 0.0
H166 H 0.27288 0.7017 0.76404 0.0
H167 H 0.23518 0.6802 0.78229 0.0
H168 H 0.22231 0.70318 0.78224 0.0
H169 H 0.20443 0.74863 0.77831 0.0
H170 H 0.21616 0.7121 0.75244 0.0
O171 O 0.23868 0.74292 0.7597 0.0
H172 H 0.17992 0.74775 0.76821 0.0
H173 H 0.19166 0.71118 0.74227 0.0
C174 C 0.23172 0.74094 0.78954 0.0
C175 C 0.23734 0.75498 0.79057 0.0
C176 C 0.2378 0.76192 0.80395 0.0
C177 C 0.23261 0.75495 0.81658 0.0
C178 C 0.22703 0.74081 0.81551 0.0
C179 C 0.22654 0.73389 0.80207 0.0
C180 C 0.24008 0.71545 0.77277 0.0
C181 C 0.25443 0.71487 0.76788 0.0
C182 C 0.2618 0.70181 0.76792 0.0
C183 C 0.255 0.68909 0.773 0.0
C184 C 0.24073 0.68981 0.77835 0.0
C185 C 0.23335 0.70291 0.77826 0.0
C186 C 0.21203 0.73018 0.76645 0.0
C187 C 0.20166 0.74021 0.7707 0.0
C188 C 0.18768 0.73979 0.76481 0.0
C189 C 0.18384 0.72937 0.75446 0.0
C190 C 0.1942 0.71918 0.7504 0.0
C191 C 0.20822 0.71968 0.75623 0.0
P192 P 0.98032 0.52313 0.48328 0.0
H193 H 0.0092 0.53196 0.47415 0.0
H194 H 0.02135 0.53264 0.45056 0.0
H195 H 0.98166 0.51831 0.42993 0.0
H196 H 0.96952 0.51795 0.45351 0.0
H197 H 0.97707 0.5311 0.51347 0.0
H198 H 0.97605 0.55425 0.52574 0.0
H199 H 0.97825 0.57627 0.48416 0.0
H200 H 0.9795 0.55298 0.47198 0.0
H201 H 0.97224 0.49275 0.48498 0.0
H202 H 0.95046 0.53329 0.47942 0.0
O203 O 0.99139 0.51322 0.49358 0.0
H204 H 0.94897 0.48001 0.48449 0.0
H205 H 0.92703 0.52057 0.47856 0.0
C206 C 0.98854 0.52476 0.4656 0.0
C207 C 0.0031 0.52907 0.46452 0.0
C208 C 0.01005 0.52937 0.45104 0.0
C209 C 0.00252 0.52537 0.43837 0.0
C210 C 0.98775 0.52154 0.43946 0.0
C211 C 0.98081 0.52124 0.45297 0.0
C212 C 0.97865 0.54035 0.49187 0.0
C213 C 0.9773 0.54092 0.507 0.0
C214 C 0.97661 0.55418 0.51399 0.0
C215 C 0.97714 0.56715 0.50594 0.0
C216 C 0.97805 0.5665 0.49069 0.0
C217 C 0.97873 0.55319 0.48371 0.0
C218 C 0.96303 0.51396 0.48256 0.0
C219 C 0.96241 0.49891 0.48364 0.0
C220 C 0.94909 0.49162 0.48322 0.0
C221 C 0.93609 0.49926 0.48152 0.0
C222 C 0.9368 0.51438 0.48012 0.0
C223 C 0.95018 0.52166 0.48057 0.0
P224 P 0.80107 0.80647 0.80542 0.0
H225 H 0.81822 0.82172 0.78367 0.0
H226 H 0.83385 0.81369 0.76404 0.0
H227 H 0.82118 0.76952 0.77319 0.0
H228 H 0.8058 0.77765 0.79301 0.0
H229 H 0.78292 0.82572 0.8217 0.0
H230 H 0.76273 0.84117 0.81496 0.0
H231 H 0.76402 0.82468 0.77123 0.0
H232 H 0.78447 0.80942 0.77806 0.0
H233 H 0.81574 0.79387 0.83043 0.0
H234 H 0.77599 0.78664 0.80675 0.0
O235 O 0.81207 0.81767 0.81443 0.0
H236 H 0.80931 0.77447 0.84732 0.0
H237 H 0.76961 0.76676 0.8234 0.0
C238 C 0.81102 0.8003 0.78991 0.0
C239 C 0.81872 0.81032 0.78135 0.0
C240 C 0.82758 0.8057 0.77006 0.0
C241 C 0.82885 0.79093 0.76708 0.0
C242 C 0.82064 0.78095 0.77535 0.0
C243 C 0.81177 0.7856 0.78666 0.0
C244 C 0.78531 0.81662 0.80034 0.0
C245 C 0.77879 0.82538 0.81069 0.0
C246 C 0.76717 0.83413 0.80683 0.0
C247 C 0.76176 0.83423 0.79252 0.0
C248 C 0.76806 0.82504 0.78228 0.0
C249 C 0.77972 0.81627 0.78618 0.0
C250 C 0.7962 0.79186 0.81754 0.0
C251 C 0.80561 0.78806 0.82886 0.0
C252 C 0.80198 0.77683 0.83843 0.0
C253 C 0.78892 0.76901 0.83676 0.0
C254 C 0.77963 0.77269 0.82516 0.0
C255 C 0.78328 0.78401 0.81561 0.0
P256 P 0.30104 0.30804 0.30378 0.0
H257 H 0.32252 0.32259 0.2856 0.0
H258 H 0.33836 0.31437 0.26623 0.0
H259 H 0.3185 0.27199 0.26907 0.0
H260 H 0.30283 0.2803 0.28865 0.0
H261 H 0.27933 0.32354 0.31987 0.0
H262 H 0.25934 0.33902 0.31247 0.0
H263 H 0.26812 0.32969 0.26745 0.0
H264 H 0.28827 0.3144 0.27496 0.0
H265 H 0.31741 0.29252 0.32572 0.0
H266 H 0.27435 0.29054 0.3075 0.0
O267 O 0.31133 0.31941 0.31337 0.0
H268 H 0.31124 0.27284 0.34247 0.0
H269 H 0.2681 0.27061 0.32411 0.0
C270 C 0.31175 0.30198 0.28875 0.0
C271 C 0.32156 0.31154 0.28202 0.0
C272 C 0.33053 0.30684 0.27086 0.0
C273 C 0.32977 0.29248 0.26614 0.0
C274 C 0.31953 0.28305 0.27261 0.0
C275 C 0.31053 0.28779 0.28377 0.0
C276 C 0.28531 0.31789 0.29798 0.0
C277 C 0.27683 0.32471 0.30841 0.0
C278 C 0.26536 0.3335 0.30416 0.0
C279 C 0.26214 0.33565 0.28935 0.0
C280 C 0.27044 0.32843 0.27893 0.0
C281 C 0.28192 0.31961 0.28322 0.0
C282 C 0.29625 0.29317 0.31561 0.0
C283 C 0.30662 0.28781 0.32532 0.0
C284 C 0.3031 0.27646 0.33481 0.0
C285 C 0.28914 0.27016 0.33468 0.0
C286 C 0.27886 0.27537 0.32465 0.0
C287 C 0.28243 0.28674 0.31513 0.0
P288 P 0.48252 0.98421 0.52077 0.0
H289 H 0.48665 0.97524 0.49084 0.0
H290 H 0.48593 0.95175 0.47911 0.0
H291 H 0.47443 0.93156 0.52008 0.0
H292 H 0.47528 0.95518 0.53177 0.0
H293 H 0.47032 0.00787 0.50369 0.0
H294 H 0.44656 0.01911 0.50339 0.0
H295 H 0.43173 0.98907 0.53651 0.0
H296 H 0.45573 0.97792 0.53684 0.0
H297 H 0.50547 0.96665 0.53332 0.0
H298 H 0.47645 0.99961 0.54781 0.0
O299 O 0.49399 0.99464 0.51125 0.0
H300 H 0.51701 0.96614 0.55725 0.0
H301 H 0.488 0.99926 0.5717 0.0
C302 C 0.48138 0.96687 0.51223 0.0
C303 C 0.484 0.96576 0.4973 0.0
C304 C 0.48346 0.95233 0.49059 0.0
C305 C 0.48021 0.93977 0.49869 0.0
C306 C 0.4772 0.941 0.5136 0.0
C307 C 0.47765 0.95448 0.52029 0.0
C308 C 0.46484 0.99221 0.52045 0.0
C309 C 0.46199 0.0037 0.51091 0.0
C310 C 0.44834 0.01005 0.51067 0.0
C311 C 0.43725 0.005 0.51995 0.0
C312 C 0.4401 0.99332 0.52937 0.0
C313 C 0.45377 0.98691 0.52953 0.0
C314 C 0.4898 0.98283 0.5389 0.0
C315 C 0.50141 0.97359 0.54173 0.0
C316 C 0.50809 0.97342 0.55537 0.0
C317 C 0.50338 0.98262 0.56641 0.0
C318 C 0.49171 0.99185 0.56353 0.0
C319 C 0.48507 0.99204 0.54986 0.0
P320 P 0.2001 0.30168 0.70245 0.0
H321 H 0.21191 0.32724 0.68782 0.0
H322 H 0.23083 0.34465 0.69436 0.0
H323 H 0.23969 0.32016 0.7335 0.0
H324 H 0.22076 0.30265 0.72677 0.0
H325 H 0.18482 0.28081 0.68464 0.0
H326 H 0.19288 0.26119 0.66924 0.0
H327 H 0.23722 0.26964 0.6821 0.0
H328 H 0.22907 0.28928 0.69755 0.0
H329 H 0.18916 0.31824 0.72653 0.0
H330 H 0.18885 0.27368 0.71367 0.0
O331 O 0.18846 0.31064 0.69191 0.0
H332 H 0.17328 0.3122 0.74695 0.0
H333 H 0.17257 0.26764 0.73374 0.0
C334 C 0.21474 0.31385 0.70697 0.0
C335 C 0.21792 0.32561 0.69781 0.0
C336 C 0.22871 0.33558 0.70159 0.0
C337 C 0.23662 0.33389 0.71455 0.0
C338 C 0.2338 0.32174 0.72343 0.0
C339 C 0.22293 0.31179 0.71965 0.0
C340 C 0.20633 0.28655 0.69216 0.0
C341 C 0.19626 0.27836 0.68424 0.0
C342 C 0.20088 0.2671 0.67551 0.0
C343 C 0.21569 0.26388 0.67444 0.0
C344 C 0.22575 0.27196 0.68261 0.0
C345 C 0.22109 0.28316 0.69148 0.0
C346 C 0.19026 0.29643 0.7186 0.0
C347 C 0.18582 0.30712 0.7282 0.0
C348 C 0.17661 0.30367 0.7398 0.0
C349 C 0.17151 0.28945 0.74192 0.0
C350 C 0.17638 0.27867 0.73252 0.0
C351 C 0.18566 0.28214 0.72095 0.0
P352 P 0.8065 0.20026 0.70064 0.0
H353 H 0.82049 0.22685 0.69076 0.0
H354 H 0.8124 0.24668 0.6752 0.0
H355 H 0.76943 0.22761 0.67376 0.0
H356 H 0.77768 0.2077 0.68906 0.0
H357 H 0.82922 0.18511 0.71607 0.0
H358 H 0.84458 0.19131 0.73674 0.0
H359 H 0.82202 0.23159 0.74104 0.0
H360 H 0.80671 0.22531 0.72017 0.0
H361 H 0.79667 0.17283 0.68865 0.0
H362 H 0.78464 0.20064 0.72374 0.0
O363 O 0.8175 0.19201 0.68909 0.0
H364 H 0.77746 0.15589 0.69547 0.0
H365 H 0.76497 0.18384 0.73048 0.0
C366 C 0.79967 0.21589 0.69123 0.0
C367 C 0.80926 0.22709 0.68731 0.0
C368 C 0.8046 0.23845 0.67844 0.0
C369 C 0.79026 0.23874 0.67319 0.0
C370 C 0.78058 0.22764 0.67747 0.0
C371 C 0.78527 0.21629 0.68635 0.0
C372 C 0.81709 0.20489 0.71639 0.0
C373 C 0.82757 0.19527 0.72146 0.0
C374 C 0.83627 0.19879 0.73337 0.0
C375 C 0.83458 0.21198 0.74051 0.0
C376 C 0.82374 0.22144 0.73563 0.0
C377 C 0.81498 0.21787 0.72372 0.0
C378 C 0.7922 0.18788 0.70582 0.0
C379 C 0.78987 0.1753 0.69784 0.0
C380 C 0.77875 0.16567 0.70168 0.0
C381 C 0.76961 0.16849 0.71352 0.0
C382 C 0.77192 0.18123 0.72142 0.0
C383 C 0.78311 0.19086 0.71757 0.0
P384 P 0.55703 0.55473 0.56003 0.0
H385 H 0.54478 0.56828 0.58554 0.0
H386 H 0.52496 0.56161 0.60184 0.0
H387 H 0.51628 0.52361 0.57634 0.0
H388 H 0.53644 0.53027 0.56017 0.0
H389 H 0.58102 0.53988 0.57393 0.0
H390 H 0.59593 0.51964 0.56674 0.0
H391 H 0.56986 0.51449 0.52801 0.0
H392 H 0.55513 0.53502 0.53521 0.0
H393 H 0.52907 0.56785 0.55219 0.0
H394 H 0.57178 0.56418 0.53366 0.0
O395 O 0.56819 0.56567 0.56915 0.0
H396 H 0.52201 0.58385 0.53225 0.0
H397 H 0.56471 0.57997 0.51351 0.0
C398 C 0.54226 0.54961 0.57184 0.0
C399 C 0.53867 0.55847 0.58349 0.0
C400 C 0.52722 0.55471 0.59273 0.0
C401 C 0.51902 0.54205 0.59043 0.0
C402 C 0.52251 0.53331 0.57855 0.0
C403 C 0.534 0.53711 0.56928 0.0
C404 C 0.5672 0.53914 0.55494 0.0
C405 C 0.57851 0.53439 0.56389 0.0
C406 C 0.58695 0.52272 0.55982 0.0
C407 C 0.58415 0.51546 0.54674 0.0
C408 C 0.57246 0.51999 0.53802 0.0
C409 C 0.56401 0.53169 0.54213 0.0
C410 C 0.55092 0.56468 0.54432 0.0
C411 C 0.53685 0.57023 0.54368 0.0
C412 C 0.5328 0.57937 0.53223 0.0
C413 C 0.54281 0.58323 0.5213 0.0
C414 C 0.55679 0.57735 0.52184 0.0
C415 C 0.56081 0.56822 0.53327 0.0
P416 P 0.55488 0.44696 0.95242 0.0
H417 H 0.5843 0.4555 0.94407 0.0
H418 H 0.60002 0.47563 0.95087 0.0
H419 H 0.5664 0.49172 0.97879 0.0
H420 H 0.55064 0.47135 0.97193 0.0
H421 H 0.53143 0.42584 0.95467 0.0
H422 H 0.52331 0.40983 0.97428 0.0
H423 H 0.55415 0.43002 0.00334 0.0
H424 H 0.56261 0.44553 0.98348 0.0
H425 H 0.55391 0.45148 0.92115 0.0
H426 H 0.52557 0.45797 0.95764 0.0
O427 O 0.56473 0.43524 0.94313 0.0
H428 H 0.53522 0.46031 0.90465 0.0
H429 H 0.50675 0.46703 0.94115 0.0
C430 C 0.5664 0.46182 0.9577 0.0
C431 C 0.58029 0.4633 0.9517 0.0
C432 C 0.58925 0.4749 0.95551 0.0
C433 C 0.58446 0.48528 0.96537 0.0
C434 C 0.57045 0.48381 0.97129 0.0
C435 C 0.56144 0.47223 0.96737 0.0
C436 C 0.54737 0.43712 0.96768 0.0
C437 C 0.53623 0.42701 0.96535 0.0
C438 C 0.53157 0.41787 0.97661 0.0
C439 C 0.53804 0.41861 0.99045 0.0
C440 C 0.54902 0.42901 0.9928 0.0
C441 C 0.55374 0.43807 0.98148 0.0
C442 C 0.54097 0.45374 0.94055 0.0
C443 C 0.54363 0.4548 0.9256 0.0
C444 C 0.53297 0.45998 0.91619 0.0
C445 C 0.51946 0.46433 0.92157 0.0
C446 C 0.51696 0.46356 0.93664 0.0
C447 C 0.52769 0.45841 0.94607 0.0
P448 P 0.73115 0.23148 0.27337 0.0
H449 H 0.75252 0.25024 0.28716 0.0
H450 H 0.75338 0.26209 0.31071 0.0
H451 H 0.71276 0.24144 0.32252 0.0
H452 H 0.7121 0.22943 0.29892 0.0
H453 H 0.75481 0.21992 0.25614 0.0
H454 H 0.76665 0.19665 0.2559 0.0
H455 H 0.73812 0.18134 0.2901 0.0
H456 H 0.7265 0.20498 0.2905 0.0
H457 H 0.70793 0.25234 0.27334 0.0
H458 H 0.71405 0.20889 0.25856 0.0
O459 O 0.74004 0.24253 0.26195 0.0
H460 H 0.68378 0.25252 0.26232 0.0
H461 H 0.68996 0.20904 0.24743 0.0
C462 C 0.73209 0.23924 0.29119 0.0
C463 C 0.74381 0.24824 0.29482 0.0
C464 C 0.74426 0.25505 0.30827 0.0
C465 C 0.73303 0.25288 0.31841 0.0
C466 C 0.72159 0.24332 0.31496 0.0
C467 C 0.72115 0.23652 0.30146 0.0
C468 C 0.73982 0.2142 0.2734 0.0
C469 C 0.7511 0.2116 0.26363 0.0
C470 C 0.7578 0.1982 0.26342 0.0
C471 C 0.7533 0.18705 0.27292 0.0
C472 C 0.74196 0.18972 0.28273 0.0
C473 C 0.73527 0.20319 0.28295 0.0
C474 C 0.71269 0.23054 0.26698 0.0
C475 C 0.70397 0.24275 0.26793 0.0
C476 C 0.69023 0.24288 0.26152 0.0
C477 C 0.68498 0.23081 0.25396 0.0
C478 C 0.69362 0.21844 0.25333 0.0
C479 C 0.70742 0.21835 0.25969 0.0
P480 P 0.48149 0.02121 0.98512 0.0
H481 H 0.51146 0.01723 0.97627 0.0
H482 H 0.52365 0.01856 0.95276 0.0
H483 H 0.48334 0.03076 0.9323 0.0
H484 H 0.47117 0.0293 0.95596 0.0
H485 H 0.49993 0.03277 0.00812 0.0
H486 H 0.50086 0.0559 0.02036 0.0
H487 H 0.46552 0.07097 0.99348 0.0
H488 H 0.46503 0.0478 0.98092 0.0
H489 H 0.46863 0.99924 0.96648 0.0
H490 H 0.45455 0.02674 0.00105 0.0
O491 O 0.49058 0.00936 0.99529 0.0
H492 H 0.44476 0.98759 0.96599 0.0
H493 H 0.43051 0.01552 1.0003 0.0
C494 C 0.49035 0.02279 0.96776 0.0
C495 C 0.50524 0.02017 0.96672 0.0
C496 C 0.51222 0.02105 0.95329 0.0
C497 C 0.50445 0.02468 0.94063 0.0
C498 C 0.48957 0.02771 0.94181 0.0
C499 C 0.48262 0.0269 0.9553 0.0
C500 C 0.48218 0.03847 0.99386 0.0
C501 C 0.49235 0.04102 0.00487 0.0
C502 C 0.49282 0.05426 0.01193 0.0
C503 C 0.48311 0.06526 0.00809 0.0
C504 C 0.47319 0.06278 0.9967 0.0
C505 C 0.47281 0.04952 0.98958 0.0
C506 C 0.46326 0.01418 0.98347 0.0
C507 C 0.46027 0.00306 0.97369 0.0
C508 C 0.44659 0.9964 0.97342 0.0
C509 C 0.43565 1.00065 0.98306 0.0
C510 C 0.43869 0.01189 0.99279 0.0
C511 C 0.4524 0.01848 0.99309 0.0
Li512 Li 0.26354 0.8853 0.99957 0.0
Li513 Li 0.25248 0.86704 0.01578 0.0
Li514 Li 0.24849 0.86694 0.98863 0.0
Li515 Li 0.23658 0.885 0.00376 0.0
C516 C 0.28142 0.86327 0.99892 0.0
N517 N 0.3113 0.86239 0.99723 0.0
C518 C 0.28961 0.85977 0.01122 0.0
C519 C 0.28841 0.86617 0.98573 0.0
C520 C 0.30472 0.85941 0.01015 0.0
C521 C 0.30353 0.86573 0.98511 0.0
C522 C 0.25087 0.89353 0.03158 0.0
C523 C 0.23578 0.8976 0.05249 0.0
N524 N 0.24715 0.90421 0.05923 0.0
C525 C 0.26235 0.90051 0.03865 0.0
C526 C 0.23743 0.89219 0.0385 0.0
C527 C 0.26028 0.90577 0.05265 0.0
C528 C 0.28127 0.90631 0.9853 0.0
N529 N 0.28022 0.89751 0.99717 0.0
C530 C 0.30325 0.90585 0.00586 0.0
C531 C 0.29084 0.89721 0.00742 0.0
C532 C 0.3047 0.91504 0.99369 0.0
C533 C 0.29347 0.91519 0.98333 0.0
H534 H 0.2726 0.90648 0.9774 0.0
H535 H 0.28972 0.89015 0.01677 0.0
C536 C 0.25036 0.8412 0.03174 0.0
N537 N 0.2552 0.85506 0.03253 0.0
C538 C 0.25223 0.83173 0.04347 0.0
C539 C 0.26413 0.85094 0.05661 0.0
C540 C 0.26207 0.86003 0.0446 0.0
C541 C 0.25921 0.83656 0.05613 0.0
H542 H 0.24505 0.8375 0.02196 0.0
H543 H 0.26619 0.87095 0.04484 0.0
C544 C 0.24378 0.88935 0.97109 0.0
N545 N 0.23591 0.891 0.94215 0.0
C546 C 0.22962 0.89298 0.96721 0.0
C547 C 0.25398 0.8867 0.96025 0.0
C548 C 0.22584 0.89374 0.95252 0.0
C549 C 0.24977 0.88754 0.94569 0.0
C550 C 0.2214 0.85813 0.00964 0.0
C551 C 0.21138 0.85201 1.00003 0.0
C552 C 0.21833 0.85827 0.0245 0.0
C553 C 0.1983 0.84641 0.00543 0.0
C554 C 0.20514 0.85254 0.02947 0.0
N555 N 0.19547 0.8468 0.01991 0.0
C556 C 0.25682 0.84562 0.96861 0.0
C557 C 0.23358 0.85536 0.96419 0.0
C558 C 0.25546 0.83673 0.95652 0.0
N559 N 0.246 0.85476 0.97214 0.0
C560 C 0.23179 0.84673 0.95196 0.0
C561 C 0.24283 0.83726 0.94796 0.0
H562 H 0.26654 0.84524 0.97518 0.0
H563 H 0.22507 0.8626 0.9673 0.0
C564 C 0.22303 0.91106 0.00951 0.0
N565 N 0.22013 0.89708 0.00617 0.0
C566 C 0.21175 0.9207 0.01164 0.0
C567 C 0.19462 0.90144 0.00672 0.0
C568 C 0.20625 0.89219 0.0046 0.0
C569 C 0.19729 0.91591 0.01031 0.0
H570 H 0.23417 0.91468 0.01062 0.0
H571 H 0.20417 0.88115 0.00162 0.0
O572 O 0.26664 0.86391 0.99981 0.0
O573 O 0.25274 0.88835 0.01785 0.0
O574 O 0.24763 0.88839 0.98541 0.0
O575 O 0.23428 0.86363 0.00451 0.0
H576 H 0.28438 0.85746 0.0215 0.0
H577 H 0.28222 0.86888 0.97611 0.0
H578 H 0.3112 0.85679 0.01959 0.0
H579 H 0.30909 0.86805 0.975 0.0
H580 H 0.22544 0.89661 0.05796 0.0
H581 H 0.27278 0.90181 0.03342 0.0
H582 H 0.22831 0.88719 0.03308 0.0
H583 H 0.2691 0.91111 0.05828 0.0
H584 H 0.31169 0.9052 0.01403 0.0
H585 H 0.29399 0.92225 0.9739 0.0
H586 H 0.24817 0.82077 0.04267 0.0
H587 H 0.26981 0.85504 0.06604 0.0
H588 H 0.2216 0.89509 0.97546 0.0
H589 H 0.26499 0.88389 0.96307 0.0
H590 H 0.2149 0.89647 0.94936 0.0
H591 H 0.25752 0.88541 0.93719 0.0
H592 H 0.21362 0.85165 0.98853 0.0
H593 H 0.22609 0.86257 0.03216 0.0
H594 H 0.19041 0.84173 0.9981 0.0
H595 H 0.20263 0.85261 0.04095 0.0
H596 H 0.26429 0.82968 0.95377 0.0
H597 H 0.22179 0.84735 0.94581 0.0
H598 H 0.2143 0.93173 0.01452 0.0
H599 H 0.18364 0.89737 0.00537 0.0
Li600 Li 0.11438 0.50708 0.26563 0.0
Li601 Li 0.13198 0.49038 0.2552 0.0
Li602 Li 0.13343 0.51631 0.25102 0.0
Li603 Li 0.1137 0.50206 0.2398 0.0
C604 C 0.14623 0.51319 0.27656 0.0
N605 N 0.16842 0.52874 0.28953 0.0
C606 C 0.15945 0.50663 0.2797 0.0
C607 C 0.14421 0.52758 0.28034 0.0
C608 C 0.17056 0.51469 0.28618 0.0
C609 C 0.15557 0.53529 0.28678 0.0
C610 C 0.10584 0.47816 0.26598 0.0
C611 C 0.08998 0.45853 0.27327 0.0
N612 N 0.09675 0.45796 0.28639 0.0
C613 C 0.11263 0.47739 0.27956 0.0
C614 C 0.0944 0.46867 0.26281 0.0
C615 C 0.10788 0.4671 0.28973 0.0
C616 C 0.08785 0.50718 0.28115 0.0
N617 N 0.10228 0.51022 0.28216 0.0
C618 C 0.09964 0.51685 0.30702 0.0
C619 C 0.10828 0.51492 0.29477 0.0
C620 C 0.08469 0.51382 0.30633 0.0
C621 C 0.07879 0.50899 0.29314 0.0
H622 H 0.0834 0.5032 0.27106 0.0
H623 H 0.11979 0.51703 0.29539 0.0
C624 C 0.15805 0.47515 0.25549 0.0
N625 N 0.14348 0.47331 0.25704 0.0
C626 C 0.16733 0.46343 0.25692 0.0
C627 C 0.14641 0.44795 0.26071 0.0
C628 C 0.13754 0.45997 0.25921 0.0
C629 C 0.16155 0.4496 0.25976 0.0
H630 H 0.16247 0.48578 0.25323 0.0
H631 H 0.12593 0.45853 0.25968 0.0
C632 C 0.10096 0.52885 0.25371 0.0
N633 N 0.07711 0.54371 0.26344 0.0
C634 C 0.08713 0.52559 0.24833 0.0
C635 C 0.10267 0.5398 0.26391 0.0
C636 C 0.07521 0.53319 0.25341 0.0
C637 C 0.09048 0.54714 0.26874 0.0
C638 C 0.13794 0.49097 0.22591 0.0
C639 C 0.14922 0.49362 0.21609 0.0
C640 C 0.12966 0.47829 0.22485 0.0
C641 C 0.15201 0.48355 0.2053 0.0
C642 C 0.13279 0.46849 0.21391 0.0
N643 N 0.14381 0.4713 0.20444 0.0
C644 C 0.1611 0.52883 0.24625 0.0
C645 C 0.14191 0.54557 0.24684 0.0
C646 C 0.17123 0.53997 0.24417 0.0
N647 N 0.14678 0.53183 0.24763 0.0
C648 C 0.15166 0.55705 0.24478 0.0
C649 C 0.16656 0.55433 0.24344 0.0
H650 H 0.16465 0.51777 0.24694 0.0
H651 H 0.13044 0.54763 0.24783 0.0
C652 C 0.08927 0.49241 0.2236 0.0
N653 N 0.10215 0.49965 0.22281 0.0
C654 C 0.0808 0.49056 0.21114 0.0
C655 C 0.09914 0.50345 0.19728 0.0
C656 C 0.10717 0.50519 0.21003 0.0
C657 C 0.08575 0.49608 0.19774 0.0
H658 H 0.08554 0.48816 0.23393 0.0
H659 H 0.11745 0.51093 0.20975 0.0
O660 O 0.13529 0.50553 0.26999 0.0
O661 O 0.1101 0.48829 0.2559 0.0
O662 O 0.11272 0.5213 0.24908 0.0
O663 O 0.13517 0.50071 0.23657 0.0
H664 H 0.16111 0.49541 0.27729 0.0
H665 H 0.13403 0.5328 0.27813 0.0
H666 H 0.18086 0.50975 0.2886 0.0
H667 H 0.15419 0.54648 0.28958 0.0
H668 H 0.08116 0.45111 0.27095 0.0
H669 H 0.12148 0.48461 0.28226 0.0
H670 H 0.08901 0.46912 0.25237 0.0
H671 H 0.11304 0.46639 0.30027 0.0
H672 H 0.10464 0.52071 0.31693 0.0
H673 H 0.06737 0.50631 0.29217 0.0
H674 H 0.17892 0.46524 0.25608 0.0
H675 H 0.14144 0.43744 0.26247 0.0
H676 H 0.08557 0.5172 0.24043 0.0
H677 H 0.11326 0.54256 0.26815 0.0
H678 H 0.06444 0.53071 0.2494 0.0
H679 H 0.09164 0.55556 0.27671 0.0
H680 H 0.15575 0.50336 0.21681 0.0
H681 H 0.12093 0.47602 0.23238 0.0
H682 H 0.1607 0.48546 0.19761 0.0
H683 H 0.12648 0.45865 0.21296 0.0
H684 H 0.18262 0.53738 0.24336 0.0
H685 H 0.14755 0.56791 0.24406 0.0
H686 H 0.07058 0.48472 0.21193 0.0
H687 H 0.10327 0.508 0.1872 0.0
Li688 Li 0.73875 0.61728 0.00349 0.0
Li689 Li 0.75043 0.63509 0.01943 0.0
Li690 Li 0.75407 0.63559 0.99222 0.0
Li691 Li 0.7659 0.61709 0.00737 0.0
C692 C 0.72142 0.64024 0.00265 0.0
N693 N 0.69169 0.64313 1.00081 0.0
C694 C 0.71344 0.64393 0.01493 0.0
C695 C 0.71431 0.6382 0.9894 0.0
C696 C 0.69841 0.6453 0.01379 0.0
C697 C 0.69926 0.63965 0.98871 0.0
C698 C 0.75056 0.60877 0.03566 0.0
C699 C 0.76404 0.60422 0.05768 0.0
N700 N 0.75184 0.5987 0.06399 0.0
C701 C 0.73819 0.60287 0.0423 0.0
C702 C 0.76363 0.60931 0.04335 0.0
C703 C 0.73904 0.59791 0.05666 0.0
C704 C 0.72178 0.59575 0.98994 0.0
N705 N 0.72192 0.60531 0.00102 0.0
C706 C 0.69813 0.59767 0.00831 0.0
C707 C 0.71048 0.60632 0.01024 0.0
C708 C 0.69761 0.58774 0.99689 0.0
C709 C 0.70971 0.58683 0.98767 0.0
H710 H 0.73111 0.59495 0.98292 0.0
H711 H 0.71092 0.61387 0.01909 0.0
C712 C 0.75443 0.6603 0.03563 0.0
N713 N 0.74828 0.64692 0.03616 0.0
C714 C 0.75297 0.66968 0.04729 0.0
C715 C 0.73877 0.65138 0.05983 0.0
C716 C 0.74047 0.64238 0.0479 0.0
C717 C 0.74502 0.66527 0.0596 0.0
H718 H 0.76042 0.66373 0.02609 0.0
H719 H 0.73528 0.6319 0.0479 0.0
C720 C 0.75731 0.61304 0.97466 0.0
N721 N 0.76306 0.61087 0.94533 0.0
C722 C 0.77099 0.60874 0.96997 0.0
C723 C 0.74651 0.61606 0.96445 0.0
C724 C 0.77369 0.60775 0.95509 0.0
C725 C 0.74964 0.61495 0.94966 0.0
C726 C 0.7818 0.64307 0.0127 0.0
C727 C 0.79169 0.64923 0.00288 0.0
C728 C 0.78549 0.64201 0.0274 0.0
C729 C 0.80524 0.65392 0.00789 0.0
C730 C 0.79913 0.64684 0.03199 0.0
N731 N 0.80865 0.65263 0.02222 0.0
C732 C 0.74659 0.65812 0.97269 0.0
C733 C 0.76876 0.64672 0.96733 0.0
C734 C 0.74835 0.66748 0.96082 0.0
N735 N 0.75671 0.64798 0.97569 0.0
C736 C 0.7709 0.65576 0.95528 0.0
C737 C 0.76066 0.6664 0.9519 0.0
H738 H 0.73722 0.65906 0.97964 0.0
H739 H 0.77675 0.63871 0.97004 0.0
C740 C 0.78084 0.59186 0.01559 0.0
N741 N 0.78253 0.60514 0.0094 0.0
C742 C 0.79269 0.58271 0.01707 0.0
C743 C 0.80777 0.60099 0.0056 0.0
C744 C 0.79563 0.60976 0.00432 0.0
C745 C 0.80641 0.58723 0.01203 0.0
H746 H 0.77024 0.58832 0.01928 0.0
H747 H 0.79665 0.62017 0.99907 0.0
O748 O 0.73613 0.63872 0.0036 0.0
O749 O 0.7499 0.61368 0.0216 0.0
O750 O 0.75451 0.61422 0.98919 0.0
O751 O 0.76849 0.63842 0.00795 0.0
H752 H 0.71878 0.64563 0.02525 0.0
H753 H 0.72033 0.63547 0.97977 0.0
H754 H 0.69208 0.64807 0.02322 0.0
H755 H 0.69361 0.63801 0.97854 0.0
H756 H 0.77409 0.60461 0.06376 0.0
H757 H 0.72802 0.60222 0.03647 0.0
H758 H 0.7734 0.61344 0.03827 0.0
H759 H 0.72952 0.59342 0.06196 0.0
H760 H 0.68905 0.59886 0.01562 0.0
H761 H 0.70996 0.57914 0.97891 0.0
H762 H 0.75804 0.68025 0.04669 0.0
H763 H 0.73231 0.64765 0.06897 0.0
H764 H 0.77944 0.60627 0.97772 0.0
H765 H 0.73584 0.61927 0.9679 0.0
H766 H 0.78425 0.60451 0.9513 0.0
H767 H 0.74141 0.61734 0.94164 0.0
H768 H 0.78897 0.65029 0.99149 0.0
H769 H 0.77784 0.63767 0.03522 0.0
H770 H 0.81303 0.65861 1.00039 0.0
H771 H 0.80212 0.64605 0.04334 0.0
H772 H 0.7403 0.67567 0.95885 0.0
H773 H 0.78046 0.65436 0.94866 0.0
H774 H 0.79105 0.5721 0.02186 0.0
H775 H 0.81813 0.605 0.00164 0.0
Li776 Li 0.86599 0.01658 0.25833 0.0
Li777 Li 0.88427 0.0016 0.27049 0.0
Li778 Li 0.88468 0.0062 0.24348 0.0
Li779 Li 0.86647 0.98968 0.25416 0.0
C780 C 0.88856 0.03424 0.26317 0.0
N781 N 0.89043 0.06299 0.27051 0.0
C782 C 0.89256 0.03818 0.27724 0.0
C783 C 0.88568 0.04493 0.25278 0.0
C784 C 0.89342 0.05277 0.28075 0.0
C785 C 0.88662 0.0594 0.25672 0.0
C786 C 0.85759 0.9955 0.28546 0.0
C787 C 0.85226 0.97595 0.30218 0.0
N788 N 0.84688 0.98553 0.31179 0.0
C789 C 0.85181 0.00512 0.29543 0.0
C790 C 0.85765 0.98077 0.28879 0.0
C791 C 0.84653 0.99989 0.30872 0.0
C792 C 0.84407 0.03612 0.24996 0.0
N793 N 0.8536 0.03278 0.26073 0.0
C794 C 0.84587 0.05292 0.27462 0.0
C795 C 0.85451 0.04079 0.27298 0.0
C796 C 0.83603 0.05678 0.26359 0.0
C797 C 0.83514 0.0481 0.25118 0.0
H798 H 0.8434 0.02947 0.24041 0.0
H799 H 0.8621 0.03787 0.28144 0.0
C800 C 0.9098 0.99404 0.28513 0.0
N801 N 0.89623 0.99912 0.28731 0.0
C802 C 0.91916 0.99183 0.29686 0.0
C803 C 0.90056 1.00053 0.31289 0.0
C804 C 0.89155 0.00253 0.30083 0.0
C805 C 0.91456 0.99503 0.311 0.0
H806 H 0.91337 0.99169 0.27423 0.0
H807 H 0.88088 0.00693 0.30228 0.0
C808 C 0.86254 0.00698 0.22519 0.0
N809 N 0.86169 0.00937 0.19526 0.0
C810 C 0.8594 0.99489 0.21677 0.0
C811 C 0.86508 0.02032 0.21841 0.0
C812 C 0.85905 0.99632 0.20165 0.0
C813 C 0.86466 0.02129 0.20326 0.0
C814 C 0.89314 0.97428 0.256 0.0
C815 C 0.90046 0.96774 0.24459 0.0
C816 C 0.89144 0.96688 0.2692 0.0
C817 C 0.9057 0.95378 0.24648 0.0
C818 C 0.89685 0.95294 0.27068 0.0
N819 N 0.90378 0.94672 0.25937 0.0
C820 C 0.9059 0.02086 0.22645 0.0
C821 C 0.89697 0.99917 0.21623 0.0
C822 C 0.91509 0.02316 0.21458 0.0
N823 N 0.89706 0.00904 0.22704 0.0
C824 C 0.90594 1.00106 0.20412 0.0
C825 C 0.9152 0.01318 0.2032 0.0
H826 H 0.90587 0.02849 0.23524 0.0
H827 H 0.88995 0.98978 0.21703 0.0
C828 C 0.84107 0.97259 0.25626 0.0
N829 N 0.85486 0.97281 0.25105 0.0
C830 C 0.83204 0.96062 0.25402 0.0
C831 C 0.85152 0.94935 0.241 0.0
C832 C 0.86015 0.96155 0.24345 0.0
C833 C 0.83722 0.94876 0.24627 0.0
H834 H 0.83705 0.98179 0.26206 0.0
H835 H 0.87099 0.96211 0.23909 0.0
O836 O 0.88752 0.02 0.25958 0.0
O837 O 0.86274 1.00047 0.27237 0.0
O838 O 0.86316 0.00575 0.24 0.0
O839 O 0.88795 0.98796 0.2543 0.0
H840 H 0.8949 0.03005 0.28539 0.0
H841 H 0.88262 0.04207 0.24183 0.0
H842 H 0.89643 0.05598 0.29162 0.0
H843 H 0.88432 0.06778 0.24882 0.0
H844 H 0.85229 0.96458 0.30489 0.0
H845 H 0.85148 0.01653 0.29299 0.0
H846 H 0.86164 0.97309 0.28106 0.0
H847 H 0.84214 0.00724 0.31657 0.0
H848 H 0.84709 0.05934 0.2843 0.0
H849 H 0.82755 0.05047 0.24251 0.0
H850 H 0.92995 0.98785 0.29484 0.0
H851 H 0.89655 0.00312 0.32359 0.0
H852 H 0.85735 0.98451 0.22184 0.0
H853 H 0.86745 0.02979 0.22477 0.0
H854 H 0.85671 0.98704 0.19499 0.0
H855 H 0.8667 0.03152 0.19786 0.0
H856 H 0.90204 0.97335 0.23435 0.0
H857 H 0.88621 0.9719 0.27829 0.0
H858 H 0.9113 0.94856 0.2377 0.0
H859 H 0.89559 0.9471 0.28084 0.0
H860 H 0.92194 0.03271 0.21427 0.0
H861 H 0.90581 0.99299 0.19571 0.0
H862 H 0.82102 0.96079 0.25805 0.0
H863 H 0.85604 0.94046 0.23506 0.0
Li864 Li 0.25253 0.13705 0.51809 0.0
Li865 Li 0.23979 0.1192 0.50321 0.0
Li866 Li 0.26698 0.11888 0.50673 0.0
Li867 Li 0.2558 0.13731 0.49099 0.0
C868 C 0.24823 0.11495 0.53572 0.0
N869 N 0.24187 0.11414 0.56504 0.0
C870 C 0.23403 0.11221 0.54038 0.0
C871 C 0.25922 0.11712 0.54597 0.0
C872 C 0.23103 0.11188 0.55525 0.0
C873 C 0.25578 0.11672 0.56074 0.0
C874 C 0.22519 0.14536 0.49656 0.0
C875 C 0.20963 0.1487 0.47573 0.0
N876 N 0.1997 0.15517 0.48432 0.0
C877 C 0.21491 0.15221 0.50515 0.0
C878 C 0.2226 0.14373 0.48171 0.0
C879 C 0.20206 0.15702 0.49877 0.0
C880 C 0.26185 0.15667 0.53991 0.0
N881 N 0.2504 0.14883 0.53484 0.0
C882 C 0.23524 0.15752 0.55379 0.0
C883 C 0.23727 0.14912 0.54148 0.0
C884 C 0.24686 0.16574 0.55934 0.0
C885 C 0.26032 0.16521 0.55222 0.0
H886 H 0.27217 0.15631 0.5344 0.0
H887 H 0.22835 0.14278 0.53723 0.0
C888 C 0.2248 0.09367 0.49646 0.0
N889 N 0.22289 0.10729 0.50134 0.0
C890 C 0.21294 0.08433 0.49485 0.0
C891 C 0.19735 0.10306 0.50366 0.0
C892 C 0.20953 0.11206 0.50507 0.0
C893 C 0.19896 0.089 0.49842 0.0
H894 H 0.23559 0.09006 0.49384 0.0
H895 H 0.20831 0.12278 0.50928 0.0
C896 C 0.28529 0.14135 0.50702 0.0
N897 N 0.31522 0.14323 0.50769 0.0
C898 C 0.29296 0.14587 0.49467 0.0
C899 C 0.29284 0.13794 0.51976 0.0
C900 C 0.30808 0.14673 0.49522 0.0
C901 C 0.30797 0.1389 0.51986 0.0
C902 C 0.25435 0.11059 0.475 0.0
C903 C 0.2665 0.10475 0.46828 0.0
C904 C 0.24101 0.11044 0.46774 0.0
C905 C 0.26518 0.0992 0.45429 0.0
C906 C 0.24013 0.10477 0.45377 0.0
N907 N 0.25214 0.09933 0.44737 0.0
C908 C 0.28359 0.09673 0.51979 0.0
C909 C 0.29447 0.10767 0.49909 0.0
C910 C 0.29541 0.08757 0.52152 0.0
N911 N 0.28336 0.10656 0.50874 0.0
C912 C 0.30651 0.09878 0.50043 0.0
C913 C 0.3071 0.08852 0.51175 0.0
H914 H 0.27454 0.09592 0.52721 0.0
H915 H 0.29402 0.11552 0.49035 0.0
C916 C 0.25328 0.16308 0.47483 0.0
N917 N 0.25835 0.1494 0.4742 0.0
C918 C 0.25498 0.1725 0.463 0.0
C919 C 0.26725 0.15366 0.45013 0.0
C920 C 0.26532 0.14462 0.46221 0.0
C921 C 0.26207 0.16784 0.45041 0.0
H922 H 0.24797 0.16669 0.48458 0.0
H923 H 0.26957 0.13385 0.46207 0.0
O924 O 0.25132 0.11562 0.5212 0.0
O925 O 0.23784 0.14058 0.50267 0.0
O926 O 0.27049 0.14032 0.50664 0.0
O927 O 0.25545 0.11599 0.48876 0.0
H928 H 0.2254 0.11049 0.5326 0.0
H929 H 0.27026 0.11921 0.54255 0.0
H930 H 0.22008 0.10986 0.55901 0.0
H931 H 0.26416 0.11849 0.56879 0.0
H932 H 0.20749 0.14747 0.46425 0.0
H933 H 0.21679 0.15376 0.51662 0.0
H934 H 0.23058 0.13888 0.47481 0.0
H935 H 0.19398 0.16226 0.50531 0.0
H936 H 0.2246 0.15774 0.55874 0.0
H937 H 0.26963 0.17122 0.55618 0.0
H938 H 0.21474 0.0735 0.49104 0.0
H939 H 0.18678 0.10713 0.5065 0.0
H940 H 0.2873 0.14864 0.48475 0.0
H941 H 0.28709 0.13442 0.52941 0.0
H942 H 0.31416 0.15014 0.48572 0.0
H943 H 0.31395 0.13618 0.52961 0.0
H944 H 0.27686 0.10458 0.47376 0.0
H945 H 0.23138 0.11444 0.47288 0.0
H946 H 0.27453 0.09475 0.44894 0.0
H947 H 0.22988 0.10462 0.44803 0.0
H948 H 0.29527 0.07969 0.53028 0.0
H949 H 0.31533 0.10005 0.49275 0.0
H950 H 0.25104 0.18341 0.46383 0.0
H951 H 0.2727 0.14955 0.44065 0.0
Li952 Li 0.38368 0.50247 0.77043 0.0
Li953 Li 0.36534 0.51718 0.7581 0.0
Li954 Li 0.36582 0.49032 0.75432 0.0
Li955 Li 0.38396 0.50671 0.74334 0.0
C956 C 0.35711 0.49561 0.78531 0.0
N957 N 0.34668 0.48413 0.81115 0.0
C958 C 0.3506 0.50451 0.79552 0.0
C959 C 0.35806 0.48083 0.78816 0.0
C960 C 0.34547 0.49852 0.80854 0.0
C961 C 0.3528 0.47524 0.8013 0.0
C962 C 0.3874 0.53497 0.76291 0.0
C963 C 0.385 0.5601 0.75649 0.0
N964 N 0.38811 0.56371 0.77044 0.0
C965 C 0.39067 0.53893 0.77716 0.0
C966 C 0.38464 0.54563 0.75245 0.0
C967 C 0.39095 0.55352 0.78076 0.0
C968 C 0.40979 0.49656 0.78456 0.0
N969 N 0.39584 0.50033 0.78712 0.0
C970 C 0.40033 0.50087 0.81271 0.0
C971 C 0.39102 0.50264 0.80085 0.0
C972 C 0.41478 0.49682 0.81041 0.0
C973 C 0.41947 0.4947 0.79608 0.0
H974 H 0.41337 0.49491 0.77352 0.0
H975 H 0.38001 0.50601 0.80262 0.0
C976 C 0.3446 0.53778 0.74908 0.0
N977 N 0.35303 0.53345 0.7604 0.0
C978 C 0.33592 0.54995 0.75032 0.0
C979 C 0.34454 0.55282 0.77493 0.0
C980 C 0.35306 0.54062 0.77321 0.0
C981 C 0.33586 0.55769 0.76336 0.0
H982 H 0.34463 0.53182 0.73907 0.0
H983 H 0.3599 0.53699 0.78203 0.0
C984 C 0.3928 0.47506 0.75612 0.0
N985 N 0.40419 0.4478 0.7595 0.0
C986 C 0.39958 0.46837 0.74446 0.0
C987 C 0.39207 0.46797 0.76958 0.0
C988 C 0.40518 0.45456 0.74635 0.0
C989 C 0.39782 0.45418 0.77105 0.0
C990 C 0.36184 0.50697 0.72509 0.0
C991 C 0.35829 0.49473 0.71704 0.0
C992 C 0.36483 0.52001 0.7179 0.0
C993 C 0.35797 0.49571 0.70189 0.0
C994 C 0.36442 0.52054 0.70273 0.0
N995 N 0.36103 0.50848 0.69511 0.0
C996 C 0.34026 0.47362 0.75653 0.0
C997 C 0.35932 0.46186 0.74436 0.0
C998 C 0.33107 0.46172 0.75458 0.0
N999 N 0.35411 0.47345 0.75151 0.0
C1000 C 0.35052 0.44971 0.7422 0.0
C1001 C 0.33616 0.44954 0.74731 0.0
H1002 H 0.33635 0.48304 0.76204 0.0
H1003 H 0.3702 0.46212 0.74008 0.0
C1004 C 0.40509 0.52126 0.72614 0.0
N1005 N 0.39631 0.50941 0.72685 0.0
C1006 C 0.41422 0.52351 0.71421 0.0
C1007 C 0.40519 0.50125 0.704 0.0
C1008 C 0.39623 0.49945 0.71612 0.0
C1009 C 0.41436 0.51342 0.70293 0.0
H1010 H 0.40509 0.52893 0.73488 0.0
H1011 H 0.38914 0.49011 0.71695 0.0
O1012 O 0.36216 0.50134 0.77248 0.0
O1013 O 0.38684 0.52073 0.75923 0.0
O1014 O 0.3873 0.48863 0.75443 0.0
O1015 O 0.36242 0.50617 0.73993 0.0
H1016 H 0.34957 0.51593 0.79345 0.0
H1017 H 0.36263 0.47369 0.78025 0.0
H1018 H 0.34051 0.50531 0.81657 0.0
H1019 H 0.3535 0.46382 0.80364 0.0
H1020 H 0.38277 0.56845 0.74854 0.0
H1021 H 0.39286 0.53083 0.78538 0.0
H1022 H 0.3821 0.54275 0.74138 0.0
H1023 H 0.3934 0.55674 0.79176 0.0
H1024 H 0.39633 0.50285 0.82355 0.0
H1025 H 0.43046 0.49143 0.7938 0.0
H1026 H 0.32924 0.55319 0.74119 0.0
H1027 H 0.34497 0.55854 0.78512 0.0
H1028 H 0.40044 0.47374 0.73402 0.0
H1029 H 0.38731 0.47311 0.77886 0.0
H1030 H 0.41036 0.44923 0.73738 0.0
H1031 H 0.3973 0.44857 0.78141 0.0
H1032 H 0.3559 0.48457 0.72242 0.0
H1033 H 0.36759 0.52958 0.72396 0.0
H1034 H 0.35531 0.48631 0.69552 0.0
H1035 H 0.36682 0.53054 0.69702 0.0
H1036 H 0.32012 0.46202 0.75879 0.0
H1037 H 0.3548 0.44067 0.7363 0.0
H1038 H 0.42127 0.53293 0.71395 0.0
H1039 H 0.40483 0.49327 0.6955 0.0
Li1040 Li 0.76329 0.38548 0.5002 0.0
Li1041 Li 0.75118 0.36731 0.51576 0.0
Li1042 Li 0.74674 0.36755 0.48876 0.0
Li1043 Li 0.73632 0.38566 0.50486 0.0
C1044 C 0.7775 0.35881 0.49378 0.0
N1045 N 0.80252 0.34791 0.48182 0.0
C1046 C 0.78755 0.35165 0.50256 0.0
C1047 C 0.78009 0.36021 0.47887 0.0
C1048 C 0.80016 0.34628 0.49633 0.0
C1049 C 0.79281 0.35468 0.47304 0.0
C1050 C 0.75651 0.38933 0.533 0.0
C1051 C 0.75056 0.3868 0.55841 0.0
N1052 N 0.76453 0.39016 0.56191 0.0
C1053 C 0.77078 0.39285 0.53685 0.0
C1054 C 0.74628 0.38638 0.54386 0.0
C1055 C 0.77462 0.39318 0.55153 0.0
C1056 C 0.77854 0.41105 0.49289 0.0
N1057 N 0.78026 0.39723 0.49758 0.0
C1058 C 0.80599 0.40058 0.4986 0.0
C1059 C 0.79363 0.39195 0.5006 0.0
C1060 C 0.80458 0.41485 0.4936 0.0
C1061 C 0.7906 0.42009 0.4908 0.0
H1062 H 0.76776 0.41503 0.49072 0.0
H1063 H 0.79473 0.3811 0.50475 0.0
C1064 C 0.74292 0.34667 0.53732 0.0
N1065 N 0.75399 0.35521 0.53243 0.0
C1066 C 0.74476 0.33795 0.54964 0.0
C1067 C 0.76939 0.34692 0.55161 0.0
C1068 C 0.76708 0.35543 0.53925 0.0
C1069 C 0.75815 0.33801 0.55698 0.0
H1070 H 0.73264 0.34664 0.53166 0.0
H1071 H 0.77573 0.36227 0.5351 0.0
C1072 C 0.74799 0.39432 0.47249 0.0
N1073 N 0.75 0.40542 0.44456 0.0
C1074 C 0.73591 0.40052 0.46583 0.0
C1075 C 0.76117 0.39401 0.46501 0.0
C1076 C 0.73711 0.406 0.45169 0.0
C1077 C 0.76195 0.39962 0.45089 0.0
C1078 C 0.71796 0.36351 0.50587 0.0
C1079 C 0.70972 0.35998 0.49363 0.0
C1080 C 0.711 0.36632 0.519 0.0
C1081 C 0.69461 0.3595 0.49468 0.0
C1082 C 0.69587 0.36576 0.51961 0.0
N1083 N 0.68805 0.36239 0.50754 0.0
C1084 C 0.74884 0.34196 0.47285 0.0
C1085 C 0.7368 0.36064 0.4601 0.0
C1086 C 0.74735 0.33281 0.46097 0.0
N1087 N 0.74376 0.35565 0.47214 0.0
C1088 C 0.7351 0.35187 0.44796 0.0
C1089 C 0.74049 0.33777 0.44826 0.0
H1090 H 0.7542 0.33821 0.48262 0.0
H1091 H 0.73246 0.37138 0.45992 0.0
C1092 C 0.71988 0.40658 0.51944 0.0
N1093 N 0.71999 0.39785 0.50768 0.0
C1094 C 0.70805 0.41543 0.52204 0.0
C1095 C 0.69669 0.40632 0.50026 0.0
C1096 C 0.70875 0.39762 0.4981 0.0
C1097 C 0.69622 0.41537 0.51239 0.0
H1098 H 0.72902 0.40671 0.5268 0.0
H1099 H 0.70907 0.39058 0.48883 0.0
O1100 O 0.7651 0.36413 0.49975 0.0
O1101 O 0.7526 0.3887 0.51868 0.0
O1102 O 0.74698 0.38895 0.48637 0.0
O1103 O 0.73275 0.36422 0.50499 0.0
H1104 H 0.78567 0.35028 0.51408 0.0
H1105 H 0.77227 0.3653 0.47182 0.0
H1106 H 0.80806 0.3408 0.50302 0.0
H1107 H 0.79493 0.35571 0.46152 0.0
H1108 H 0.74279 0.38444 0.56692 0.0
H1109 H 0.77882 0.3952 0.52859 0.0
H1110 H 0.7352 0.38364 0.54107 0.0
H1111 H 0.78564 0.39582 0.55466 0.0
H1112 H 0.81653 0.3962 0.50118 0.0
H1113 H 0.78902 0.431 0.48687 0.0
H1114 H 0.73575 0.33136 0.55345 0.0
H1115 H 0.77995 0.34716 0.55678 0.0
H1116 H 0.72568 0.40105 0.47149 0.0
H1117 H 0.77076 0.3897 0.4701 0.0
H1118 H 0.72781 0.41073 0.44638 0.0
H1119 H 0.77207 0.39941 0.44498 0.0
H1120 H 0.71493 0.35773 0.4834 0.0
H1121 H 0.71721 0.36907 0.52858 0.0
H1122 H 0.68809 0.35685 0.48528 0.0
H1123 H 0.69033 0.36802 0.52967 0.0
H1124 H 0.75176 0.32206 0.46165 0.0
H1125 H 0.72948 0.35604 0.4385 0.0
H1126 H 0.70826 0.4224 0.5314 0.0
H1127 H 0.68776 0.40582 0.49262 0.0
Li1128 Li 0.6326 0.98942 0.75622 0.0
Li1129 Li 0.61492 0.00566 0.76709 0.0
Li1130 Li 0.61477 0.00161 0.74012 0.0
Li1131 Li 0.63357 0.01643 0.75201 0.0
C1132 C 0.60568 0.9739 0.75421 0.0
N1133 N 0.59476 0.94639 0.74993 0.0
C1134 C 0.59825 0.96666 0.76538 0.0
C1135 C 0.60735 0.96721 0.7408 0.0
C1136 C 0.59287 0.95274 0.76303 0.0
C1137 C 0.6018 0.95329 0.73886 0.0
C1138 C 0.63721 0.00605 0.78507 0.0
C1139 C 0.63594 0.01982 0.80709 0.0
N1140 N 0.63816 0.00758 0.81502 0.0
C1141 C 0.6396 0.99363 0.79342 0.0
C1142 C 0.63548 0.01928 0.79194 0.0
C1143 C 0.64001 0.99463 0.80855 0.0
C1144 C 0.65804 0.97317 0.75418 0.0
N1145 N 0.64413 0.97264 0.75905 0.0
C1146 C 0.64742 0.94866 0.76814 0.0
C1147 C 0.63875 0.96075 0.76603 0.0
C1148 C 0.66183 0.94884 0.76316 0.0
C1149 C 0.6671 0.96134 0.75609 0.0
H1150 H 0.66211 0.98285 0.74887 0.0
H1151 H 0.6278 0.96068 0.77013 0.0
C1152 C 0.59535 0.02047 0.78535 0.0
N1153 N 0.60304 0.00817 0.78384 0.0
C1154 C 0.58685 0.02252 0.7977 0.0
C1155 C 0.59421 0.99914 0.80663 0.0
C1156 C 0.60256 0.99755 0.79412 0.0
C1157 C 0.58621 0.01178 0.80858 0.0
H1158 H 0.59583 0.02871 0.77699 0.0
H1159 H 0.60874 0.98786 0.79263 0.0
C1160 C 0.64167 0.99591 0.72506 0.0
N1161 N 0.65303 0.9865 0.6991 0.0
C1162 C 0.64785 0.00577 0.71521 0.0
C1163 C 0.64154 0.98123 0.7218 0.0
C1164 C 0.65345 1.00082 0.70211 0.0
C1165 C 0.64726 0.9767 0.7086 0.0
C1166 C 0.61128 0.03411 0.74751 0.0
C1167 C 0.60665 0.03834 0.73366 0.0
C1168 C 0.61504 0.04459 0.75769 0.0
C1169 C 0.60603 0.05301 0.73016 0.0
C1170 C 0.61429 0.05915 0.75378 0.0
N1171 N 0.60985 0.06302 0.7402 0.0
C1172 C 0.58908 0.99441 0.72497 0.0
C1173 C 0.60792 0.00362 0.70994 0.0
C1174 C 0.57997 0.99273 0.71294 0.0
N1175 N 0.60282 0.99963 0.72325 0.0
C1176 C 0.5992 0.00212 0.69762 0.0
C1177 C 0.58501 0.99656 0.699 0.0
H1178 H 0.58519 0.99155 0.73571 0.0
H1179 H 0.61871 0.00811 0.70887 0.0
C1180 C 0.65648 0.03567 0.75948 0.0
N1181 N 0.64633 0.03262 0.7492 0.0
C1182 C 0.66603 0.04735 0.75758 0.0
C1183 C 0.65444 0.05258 0.73459 0.0
C1184 C 0.6452 0.04075 0.73689 0.0
C1185 C 0.66511 0.056 0.74497 0.0
H1186 H 0.65728 0.02893 0.76909 0.0
H1187 H 0.63711 0.03805 0.72883 0.0
O1188 O 0.61103 0.98754 0.75638 0.0
O1189 O 0.63649 0.00524 0.77027 0.0
O1190 O 0.63621 1.00061 0.73798 0.0
O1191 O 0.61209 0.0198 0.75107 0.0
H1192 H 0.59668 0.97171 0.77578 0.0
H1193 H 0.61266 0.97278 0.7319 0.0
H1194 H 0.58718 0.94699 0.77161 0.0
H1195 H 0.60304 0.94801 0.72852 0.0
H1196 H 0.6345 0.02996 0.81256 0.0
H1197 H 0.64098 0.98331 0.78828 0.0
H1198 H 0.63369 0.02899 0.78564 0.0
H1199 H 0.64176 0.98509 0.81515 0.0
H1200 H 0.64284 0.93926 0.77357 0.0
H1201 H 0.6782 0.96211 0.75231 0.0
H1202 H 0.581 0.03249 0.79879 0.0
H1203 H 0.59389 0.99048 0.8146 0.0
H1204 H 0.64824 0.01714 0.71759 0.0
H1205 H 0.63726 0.97337 0.72944 0.0
H1206 H 0.65816 0.00835 0.69435 0.0
H1207 H 0.64719 0.96537 0.70594 0.0
H1208 H 0.60362 0.03039 0.72567 0.0
H1209 H 0.61863 0.04151 0.76846 0.0
H1210 H 0.60253 0.05644 0.71946 0.0
H1211 H 0.61727 0.06736 0.76152 0.0
H1212 H 0.56904 0.98865 0.71457 0.0
H1213 H 0.60361 0.00514 0.68711 0.0
H1214 H 0.67422 0.0494 0.76577 0.0
H1215 H 0.65316 0.05902 0.7248 0.0
Li1216 Li 0.01507 0.25455 0.87349 0.0
Li1217 Li 0.99997 0.26671 0.8915 0.0
Li1218 Li 0.00436 0.23988 0.89249 0.0
Li1219 Li 0.98808 0.25011 0.87402 0.0
C1220 C 0.03274 0.25994 0.89541 0.0
N1221 N 0.06174 0.26777 0.89582 0.0
C1222 C 0.03685 0.27417 0.89828 0.0
C1223 C 0.04337 0.24965 0.89292 0.0
C1224 C 0.05157 0.27793 0.89841 0.0
C1225 C 0.05798 0.25384 0.89311 0.0
C1226 C 0.99313 0.28064 0.86437 0.0
C1227 C 0.97241 0.29577 0.86017 0.0
N1228 N 0.98105 0.30545 0.85299 0.0
C1229 C 0.00176 0.29066 0.85678 0.0
C1230 C 0.97831 0.28315 0.86595 0.0
C1231 C 0.99547 0.30316 0.85118 0.0
C1232 C 0.03614 0.24615 0.85283 0.0
N1233 N 0.0315 0.25724 0.86108 0.0
C1234 C 0.05034 0.27263 0.85173 0.0
C1235 C 0.03831 0.27032 0.86068 0.0
C1236 C 0.0554 0.26139 0.84305 0.0
C1237 C 0.04815 0.24798 0.84372 0.0
H1238 H 0.03045 0.23592 0.85321 0.0
H1239 H 0.03441 0.27895 0.86737 0.0
C1240 C 0.99296 0.28216 0.91672 0.0
N1241 N 0.99771 0.28368 0.90281 0.0
C1242 C 0.9912 0.29426 0.92543 0.0
C1243 C 0.99947 0.30925 0.90541 0.0
C1244 C 0.0011 0.29687 0.89712 0.0
C1245 C 0.99445 0.30807 0.9198 0.0
H1246 H 0.99057 0.27152 0.92106 0.0
H1247 H 0.00521 0.2978 0.88618 0.0
C1248 C 0.005 0.22154 0.8705 0.0
N1249 N 0.00672 0.19185 0.86977 0.0
C1250 C 0.99281 0.21324 0.86686 0.0
C1251 C 0.01812 0.21475 0.8736 0.0
C1252 C 0.99389 0.19824 0.86658 0.0
C1253 C 0.01875 0.19973 0.87323 0.0
C1254 C 0.97227 0.25126 0.90095 0.0
C1255 C 0.96576 0.23909 0.90736 0.0
C1256 C 0.96475 0.26424 0.90048 0.0
C1257 C 0.95169 0.24002 0.91285 0.0
C1258 C 0.95071 0.26475 0.90611 0.0
N1259 N 0.94451 0.25272 0.91211 0.0
C1260 C 0.01881 0.22381 0.9143 0.0
C1261 C 0.99777 0.21233 0.90488 0.0
C1262 C 0.02143 0.21202 0.92346 0.0
N1263 N 0.00719 0.22371 0.90519 0.0
C1264 C 1.0 0.20029 0.91381 0.0
C1265 C 0.01198 0.20002 0.92326 0.0
H1266 H 0.02609 0.23302 0.91442 0.0
H1267 H 0.98856 0.21255 0.89761 0.0
C1268 C 0.97165 0.25206 0.84834 0.0
N1269 N 0.97129 0.24689 0.8622 0.0
C1270 C 0.95983 0.24996 0.83906 0.0
C1271 C 0.94753 0.23699 0.85842 0.0
C1272 C 0.95959 0.23937 0.86732 0.0
C1273 C 0.94753 0.24232 0.84406 0.0
H1274 H 0.9812 0.25778 0.84445 0.0
H1275 H 0.95967 0.23503 0.87823 0.0
O1276 O 0.01837 0.25611 0.895 0.0
O1277 O 0.99916 0.26834 0.86992 0.0
O1278 O 0.0041 0.23623 0.87101 0.0
O1279 O 0.98609 0.25052 0.89558 0.0
H1280 H 0.02877 0.28225 0.90028 0.0
H1281 H 0.04038 0.23859 0.89072 0.0
H1282 H 0.05491 0.28892 0.90053 0.0
H1283 H 0.06632 0.24602 0.89109 0.0
H1284 H 0.96095 0.29784 0.86134 0.0
H1285 H 0.01321 0.28883 0.85527 0.0
H1286 H 0.97137 0.27535 0.87136 0.0
H1287 H 0.00204 0.31104 0.84537 0.0
H1288 H 0.05568 0.28309 0.85169 0.0
H1289 H 0.05154 0.23908 0.83707 0.0
H1290 H 0.98755 0.29278 0.93653 0.0
H1291 H 0.00201 0.31965 0.90054 0.0
H1292 H 0.98259 0.21831 0.86436 0.0
H1293 H 0.02766 0.22101 0.87642 0.0
H1294 H 0.98452 0.19168 0.86385 0.0
H1295 H 0.0288 0.19433 0.87573 0.0
H1296 H 0.97146 0.229 0.90801 0.0
H1297 H 0.96974 0.2739 0.89602 0.0
H1298 H 0.94649 0.23065 0.91773 0.0
H1299 H 0.94477 0.27473 0.90578 0.0
H1300 H 0.03087 0.21223 0.93046 0.0
H1301 H 0.99234 0.19137 0.91343 0.0
H1302 H 0.96044 0.25402 0.82801 0.0
H1303 H 0.93827 0.2311 0.86277 0.0
Li1304 Li 0.51642 0.7556 0.37337 0.0
Li1305 Li 0.50045 0.76641 0.39152 0.0
Li1306 Li 0.5045 0.73963 0.39173 0.0
Li1307 Li 0.48928 0.75143 0.37332 0.0
C1308 C 0.5326 0.75405 0.39992 0.0
N1309 N 0.56057 0.75067 0.41016 0.0
C1310 C 0.5397 0.76538 0.40701 0.0
C1311 C 0.53967 0.74094 0.39826 0.0
C1312 C 0.55386 0.76349 0.41204 0.0
C1313 C 0.55382 0.73945 0.40346 0.0
C1314 C 0.49988 0.78426 0.36898 0.0
C1315 C 0.48648 0.80634 0.37063 0.0
N1316 N 0.49882 0.81398 0.36762 0.0
C1317 C 0.5124 0.79232 0.3658 0.0
C1318 C 0.48679 0.7913 0.3713 0.0
C1319 C 0.51164 0.80734 0.36519 0.0
C1320 C 0.53206 0.75373 0.34733 0.0
N1321 N 0.53305 0.7584 0.36125 0.0
C1322 C 0.55723 0.76709 0.35707 0.0
C1323 C 0.54527 0.76509 0.3662 0.0
C1324 C 0.55657 0.76232 0.34263 0.0
C1325 C 0.54374 0.75556 0.33781 0.0
H1326 H 0.52214 0.74863 0.34361 0.0
H1327 H 0.54571 0.76903 0.37717 0.0
C1328 C 0.48601 0.78438 0.41156 0.0
N1329 N 0.49814 0.78304 0.40334 0.0
C1330 C 0.48401 0.79667 0.41993 0.0
C1331 C 0.50711 0.8059 0.41136 0.0
C1332 C 0.50865 0.79343 0.40317 0.0
C1333 C 0.49463 0.80768 0.41987 0.0
H1334 H 0.47785 0.77593 0.41159 0.0
H1335 H 0.51821 0.79209 0.39656 0.0
C1336 C 0.50998 0.72457 0.36519 0.0
N1337 N 0.51978 0.69864 0.35468 0.0
C1338 C 0.50016 0.71438 0.35971 0.0
C1339 C 0.52482 0.72166 0.36503 0.0
C1340 C 0.50532 0.70131 0.35453 0.0
C1341 C 0.52955 0.70847 0.35975 0.0
C1342 C 0.47184 0.74698 0.3959 0.0
C1343 C 0.46751 0.73316 0.40039 0.0
C1344 C 0.46136 0.75722 0.39242 0.0
C1345 C 0.45273 0.72974 0.40114 0.0
C1346 C 0.44669 0.75337 0.39328 0.0
N1347 N 0.44271 0.73982 0.39757 0.0
C1348 C 0.5132 0.72466 0.41702 0.0
C1349 C 0.50226 0.70972 0.39929 0.0
C1350 C 0.51559 0.71277 0.4261 0.0
N1351 N 0.50688 0.72292 0.40379 0.0
C1352 C 0.50435 0.69754 0.40806 0.0
C1353 C 0.51123 0.69895 0.42161 0.0
H1354 H 0.51647 0.73531 0.4205 0.0
H1355 H 0.49687 0.70864 0.38894 0.0
C1356 C 0.46912 0.75928 0.3514 0.0
N1357 N 0.47273 0.74873 0.36105 0.0
C1358 C 0.45716 0.7575 0.34221 0.0
C1359 C 0.45287 0.73401 0.35306 0.0
C1360 C 0.4649 0.73625 0.36202 0.0
C1361 C 0.44889 0.74469 0.34292 0.0
H1362 H 0.47561 0.76904 0.35073 0.0
H1363 H 0.46798 0.72802 0.36978 0.0
O1364 O 0.51873 0.75577 0.39489 0.0
O1365 O 0.50047 0.76955 0.36989 0.0
O1366 O 0.50509 0.73747 0.37022 0.0
O1367 O 0.48627 0.75047 0.39495 0.0
H1368 H 0.53436 0.77555 0.40858 0.0
H1369 H 0.53422 0.73191 0.39325 0.0
H1370 H 0.5595 0.7722 0.41746 0.0
H1371 H 0.5594 0.72935 0.40223 0.0
H1372 H 0.47645 0.81193 0.37251 0.0
H1373 H 0.52262 0.78705 0.36395 0.0
H1374 H 0.47699 0.78522 0.37372 0.0
H1375 H 0.52126 0.81372 0.36283 0.0
H1376 H 0.5669 0.77227 0.36133 0.0
H1377 H 0.5426 0.75195 0.32671 0.0
H1378 H 0.47414 0.79763 0.42619 0.0
H1379 H 0.51568 0.81397 0.41114 0.0
H1380 H 0.48867 0.71649 0.35952 0.0
H1381 H 0.53265 0.72954 0.36874 0.0
H1382 H 0.49782 0.6933 0.35038 0.0
H1383 H 0.54101 0.70608 0.35961 0.0
H1384 H 0.47547 0.72513 0.40321 0.0
H1385 H 0.46451 0.76797 0.38894 0.0
H1386 H 0.44923 0.71906 0.40453 0.0
H1387 H 0.43846 0.76115 0.3905 0.0
H1388 H 0.52067 0.7144 0.43658 0.0
H1389 H 0.50082 0.68709 0.40417 0.0
H1390 H 0.45463 0.76593 0.33443 0.0
H1391 H 0.44671 0.72404 0.35412 0.0
Li1392 Li 0.00136 0.76277 0.62145 0.0
Li1393 Li 0.98563 0.75087 0.63953 0.0
Li1394 Li 0.01257 0.74641 0.63974 0.0
Li1395 Li 0.99637 0.73599 0.62125 0.0
C1396 C 0.00776 0.77715 0.64834 0.0
N1397 N 0.01959 0.80227 0.65941 0.0
C1398 C 0.99885 0.78731 0.65484 0.0
C1399 C 0.02272 0.77967 0.64773 0.0
C1400 C 0.00502 0.79998 0.6603 0.0
C1401 C 0.02849 0.79245 0.65332 0.0
C1402 C 0.96856 0.75589 0.61683 0.0
C1403 C 0.94313 0.74979 0.61864 0.0
N1404 N 0.93977 0.76361 0.61502 0.0
C1405 C 0.96487 0.76999 0.61303 0.0
C1406 C 0.95762 0.74566 0.61955 0.0
C1407 C 0.95025 0.77369 0.61221 0.0
C1408 C 0.00902 0.7774 0.59569 0.0
N1409 N 0.00429 0.77949 0.60947 0.0
C1410 C 0.00383 0.80499 0.60548 0.0
C1411 C 0.00152 0.79293 0.61443 0.0
C1412 C 0.00894 0.8032 0.59124 0.0
C1413 C 0.01147 0.78915 0.58636 0.0
H1414 H 0.01089 0.76658 0.59194 0.0
H1415 H 0.99742 0.79432 0.62528 0.0
C1416 C 0.9642 0.74308 0.66049 0.0
N1417 N 0.96901 0.7538 0.65147 0.0
C1418 C 0.95209 0.74517 0.6693 0.0
C1419 C 0.95011 0.76927 0.65936 0.0
C1420 C 0.96226 0.76672 0.65079 0.0
C1421 C 0.94489 0.75844 0.66884 0.0
H1422 H 0.96985 0.73294 0.66094 0.0
H1423 H 0.96631 0.77508 0.64354 0.0
C1424 C 0.02875 0.7479 0.61284 0.0
N1425 N 0.05651 0.75055 0.60174 0.0
C1426 C 0.03522 0.73622 0.60603 0.0
C1427 C 0.03633 0.76099 0.61377 0.0
C1428 C 0.04929 0.73775 0.60056 0.0
C1429 C 0.05036 0.7621 0.60815 0.0
C1430 C 0.99487 0.7179 0.64373 0.0
C1431 C 0.00688 0.70962 0.64754 0.0
C1432 C 0.9816 0.71109 0.64078 0.0
C1433 C 0.00546 0.69462 0.64813 0.0
C1434 C 0.98062 0.69607 0.64146 0.0
N1435 N 0.99248 0.68821 0.64508 0.0
C1436 C 0.02873 0.74799 0.66572 0.0
C1437 C 0.04095 0.73632 0.64661 0.0
C1438 C 0.04064 0.74612 0.67494 0.0
N1439 N 0.02916 0.74325 0.6518 0.0
C1440 C 0.05312 0.7343 0.65541 0.0
C1441 C 0.0531 0.73928 0.66977 0.0
H1442 H 0.01916 0.75334 0.66962 0.0
H1443 H 0.0409 0.73224 0.63568 0.0
C1444 C 0.98215 0.7191 0.59983 0.0
N1445 N 0.99367 0.71965 0.60904 0.0
C1446 C 0.97996 0.70714 0.59094 0.0
C1447 C 0.00159 0.69659 0.60113 0.0
C1448 C 0.00339 0.70876 0.60976 0.0
C1449 C 0.98973 0.69564 0.59157 0.0
H1450 H 0.97464 0.72794 0.59937 0.0
H1451 H 0.01254 0.70953 0.61707 0.0
O1452 O 0.00186 0.76467 0.64299 0.0
O1453 O 0.98282 0.75212 0.6179 0.0
O1454 O 0.01496 0.74655 0.61824 0.0
O1455 O 0.99611 0.73258 0.64288 0.0
H1456 H 0.98728 0.78549 0.65561 0.0
H1457 H 0.02986 0.77177 0.64318 0.0
H1458 H 0.99823 0.80797 0.66526 0.0
H1459 H 0.04005 0.79453 0.65288 0.0
H1460 H 0.93455 0.74202 0.62082 0.0
H1461 H 0.9732 0.77803 0.61085 0.0
H1462 H 0.96029 0.73469 0.62246 0.0
H1463 H 0.94723 0.78459 0.60936 0.0
H1464 H 0.0018 0.81561 0.60974 0.0
H1465 H 0.01513 0.78721 0.57539 0.0
H1466 H 0.94859 0.73658 0.67659 0.0
H1467 H 0.94481 0.77959 0.65849 0.0
H1468 H 0.02949 0.72606 0.60502 0.0
H1469 H 0.03138 0.77028 0.61857 0.0
H1470 H 0.05445 0.72877 0.59535 0.0
H1471 H 0.05634 0.77218 0.60883 0.0
H1472 H 0.01722 0.71471 0.6499 0.0
H1473 H 0.97219 0.71734 0.63787 0.0
H1474 H 0.01468 0.68807 0.65098 0.0
H1475 H 0.97045 0.69065 0.6391 0.0
H1476 H 0.04019 0.75019 0.68591 0.0
H1477 H 0.06239 0.72873 0.65108 0.0
H1478 H 0.97061 0.70682 0.58381 0.0
H1479 H 0.00952 0.68809 0.60182 0.0
Li1480 Li 0.50194 0.26206 0.12152 0.0
Li1481 Li 0.4867 0.2503 0.13998 0.0
Li1482 Li 0.51305 0.24694 0.13971 0.0
Li1483 Li 0.49738 0.23596 0.12125 0.0
C1484 C 0.50912 0.27027 0.1546 0.0
N1485 N 0.52383 0.27944 0.17906 0.0
C1486 C 0.50292 0.26839 0.16835 0.0
C1487 C 0.52279 0.27684 0.15329 0.0
C1488 C 0.51053 0.27312 0.18058 0.0
C1489 C 0.53006 0.28138 0.16579 0.0
C1490 C 0.46915 0.25542 0.11829 0.0
C1491 C 0.44377 0.24946 0.12108 0.0
N1492 N 0.44044 0.26357 0.11899 0.0
C1493 C 0.46549 0.26986 0.11614 0.0
C1494 C 0.45821 0.24512 0.12074 0.0
C1495 C 0.45091 0.27376 0.11652 0.0
C1496 C 0.49957 0.27797 0.09537 0.0
N1497 N 0.50413 0.27877 0.10939 0.0
C1498 C 0.51237 0.30304 0.10565 0.0
C1499 C 0.5103 0.29101 0.11469 0.0
C1500 C 0.5079 0.3025 0.09106 0.0
C1501 C 0.50133 0.28977 0.08597 0.0
H1502 H 0.49466 0.26809 0.09147 0.0
H1503 H 0.51366 0.29143 0.12592 0.0
C1504 C 0.46384 0.24171 0.15923 0.0
N1505 N 0.47016 0.25301 0.15206 0.0
C1506 C 0.45174 0.24386 0.16803 0.0
C1507 C 0.45295 0.26925 0.16197 0.0
C1508 C 0.46502 0.26661 0.15331 0.0
C1509 C 0.44614 0.25779 0.16952 0.0
H1510 H 0.46826 0.23104 0.15822 0.0
H1511 H 0.47034 0.27541 0.14756 0.0
C1512 C 0.52311 0.25148 0.10652 0.0
N1513 N 0.53615 0.2629 0.08188 0.0
C1514 C 0.51946 0.24617 0.09282 0.0
C1515 C 0.53343 0.26258 0.10768 0.0
C1516 C 0.52618 0.25207 0.0805 0.0
C1517 C 0.53987 0.26822 0.0951 0.0
C1518 C 0.49702 0.21761 0.14317 0.0
C1519 C 0.50962 0.2099 0.14614 0.0
C1520 C 0.48409 0.21019 0.14017 0.0
C1521 C 0.5091 0.19485 0.14599 0.0
C1522 C 0.48402 0.19513 0.14009 0.0
N1523 N 0.49642 0.18784 0.14297 0.0
C1524 C 0.52791 0.24049 0.16592 0.0
C1525 C 0.5432 0.24606 0.14592 0.0
C1526 C 0.53992 0.23885 0.17504 0.0
N1527 N 0.52976 0.24415 0.15169 0.0
C1528 C 0.55551 0.24461 0.15465 0.0
C1529 C 0.55396 0.24102 0.16944 0.0
H1530 H 0.51707 0.23897 0.1702 0.0
H1531 H 0.54439 0.24876 0.13455 0.0
C1532 C 0.48295 0.21761 0.10099 0.0
N1533 N 0.49514 0.21952 0.1091 0.0
C1534 C 0.48139 0.20549 0.0922 0.0
C1535 C 0.50501 0.19761 0.10021 0.0
C1536 C 0.50616 0.20994 0.10872 0.0
C1537 C 0.49248 0.19525 0.09182 0.0
H1538 H 0.47444 0.22551 0.10131 0.0
H1539 H 0.51586 0.21188 0.11506 0.0
O1540 O 0.50199 0.26542 0.14252 0.0
O1541 O 0.48338 0.25143 0.11828 0.0
O1542 O 0.51638 0.24609 0.11868 0.0
O1543 O 0.49737 0.23236 0.143 0.0
H1544 H 0.49243 0.2632 0.16961 0.0
H1545 H 0.52788 0.27813 0.14278 0.0
H1546 H 0.50589 0.27169 0.19129 0.0
H1547 H 0.5407 0.28636 0.16495 0.0
H1548 H 0.4352 0.24162 0.12307 0.0
H1549 H 0.47381 0.278 0.11436 0.0
H1550 H 0.46087 0.23392 0.12258 0.0
H1551 H 0.44792 0.2849 0.11494 0.0
H1552 H 0.51731 0.3127 0.11005 0.0
H1553 H 0.49784 0.28886 0.07477 0.0
H1554 H 0.44699 0.23475 0.17382 0.0
H1555 H 0.44894 0.28014 0.16266 0.0
H1556 H 0.51142 0.23767 0.09168 0.0
H1557 H 0.5362 0.26701 0.11816 0.0
H1558 H 0.52342 0.24809 0.06983 0.0
H1559 H 0.54778 0.2769 0.09584 0.0
H1560 H 0.51975 0.21545 0.14837 0.0
H1561 H 0.47427 0.21598 0.13769 0.0
H1562 H 0.51878 0.18874 0.1482 0.0
H1563 H 0.47413 0.18925 0.13767 0.0
H1564 H 0.53823 0.23616 0.18639 0.0
H1565 H 0.56613 0.24616 0.14984 0.0
H1566 H 0.47154 0.20405 0.08593 0.0
H1567 H 0.51391 0.19011 0.10005 0.0
H1568 H 0.22561 0.78294 0.82196 0.0
H1569 H 0.22708 0.79568 0.84504 0.0
H1570 H 0.24142 0.75682 0.86644 0.0
H1571 H 0.2403 0.74404 0.84329 0.0
H1572 H 0.21266 0.78904 0.87179 0.0
H1573 H 0.27271 0.7873 0.87713 0.0
H1574 H 0.26348 0.78381 0.86019 0.0
H1575 H 0.26373 0.77026 0.87425 0.0
C1576 C 0.2292 0.77712 0.83155 0.0
C1577 C 0.23297 0.7625 0.83076 0.0
C1578 C 0.22994 0.7844 0.84474 0.0
C1579 C 0.23454 0.77725 0.8574 0.0
C1580 C 0.23805 0.76259 0.85674 0.0
H1581 H 0.2502 0.80891 0.94506 0.0
H1582 H 0.24767 0.79386 0.92349 0.0
C1583 C 0.23727 0.75528 0.84354 0.0
C1584 C 0.23562 0.7852 0.87125 0.0
H1585 H 0.25981 0.7976 0.89646 0.0
C1586 C 0.22296 0.79091 0.87721 0.0
C1587 C 0.24907 0.78756 0.8783 0.0
C1588 C 0.26307 0.78203 0.87213 0.0
C1589 C 0.22336 0.79889 0.89008 0.0
C1590 C 0.23685 0.8015 0.89699 0.0
C1591 C 0.24949 0.79561 0.89114 0.0
C1592 C 0.23815 0.81059 0.91012 0.0
C1593 C 0.20931 0.80428 0.89626 0.0
C1594 C 0.23382 0.82504 0.90971 0.0
C1595 C 0.23526 0.83365 0.92201 0.0
C1596 C 0.24121 0.82804 0.93493 0.0
C1597 C 0.24569 0.8136 0.93525 0.0
C1598 C 0.24419 0.80497 0.92296 0.0
H1599 H 0.19985 0.79792 0.89227 0.0
H1600 H 0.2094 0.8038 0.90832 0.0
H1601 H 0.2078 0.81566 0.89282 0.0
H1602 H 0.22949 0.82972 0.89981 0.0
H1603 H 0.23196 0.8448 0.92131 0.0
H1604 H 0.99291 0.53405 0.41144 0.0
H1605 H 0.00555 0.53206 0.38813 0.0
H1606 H 0.04224 0.51334 0.41008 0.0
H1607 H 0.0296 0.51493 0.43328 0.0
H1608 H 0.03282 0.54402 0.37971 0.0
H1609 H 0.03282 0.4843 0.3779 0.0
H1610 H 0.02123 0.49416 0.38997 0.0
H1611 H 0.04 0.49153 0.39448 0.0
C1612 C 0.00362 0.5294 0.41127 0.0
C1613 C 0.01023 0.52462 0.42422 0.0
C1614 C 0.01085 0.52834 0.39797 0.0
C1615 C 0.02474 0.52236 0.39736 0.0
C1616 C 0.03143 0.51777 0.41027 0.0
H1617 H 0.09102 0.50618 0.33438 0.0
H1618 H 0.07584 0.50883 0.35591 0.0
C1619 C 0.02425 0.51885 0.42355 0.0
C1620 C 0.0324 0.52107 0.3833 0.0
H1621 H 0.04816 0.49665 0.36097 0.0
C1622 C 0.03606 0.53367 0.37551 0.0
C1623 C 0.03657 0.50754 0.37786 0.0
C1624 C 0.03235 0.49359 0.3854 0.0
C1625 C 0.04427 0.53314 0.36268 0.0
C1626 C 0.04871 0.51962 0.35743 0.0
C1627 C 0.04479 0.50701 0.36506 0.0
C1628 C 0.05786 0.51832 0.34428 0.0
C1629 C 0.04855 0.54706 0.35514 0.0
C1630 C 0.05273 0.52268 0.33058 0.0
C1631 C 0.06142 0.52125 0.31824 0.0
C1632 C 0.07539 0.5154 0.31939 0.0
C1633 C 0.08042 0.51095 0.33314 0.0
C1634 C 0.07173 0.51236 0.34545 0.0
H1635 H 0.04704 0.55653 0.36224 0.0
H1636 H 0.06005 0.54681 0.35161 0.0
H1637 H 0.0417 0.54854 0.34532 0.0
H1638 H 0.04196 0.52709 0.32941 0.0
H1639 H 0.05726 0.52485 0.30783 0.0
H1640 H 0.80684 0.74904 0.84932 0.0
H1641 H 0.80076 0.7312 0.86814 0.0
H1642 H 0.75608 0.74419 0.86669 0.0
H1643 H 0.76209 0.76245 0.84817 0.0
H1644 H 0.78442 0.7402 0.89658 0.0
H1645 H 0.7584 0.69733 0.86314 0.0
H1646 H 0.77194 0.70955 0.85569 0.0
H1647 H 0.7541 0.71593 0.85951 0.0
C1648 C 0.79571 0.74818 0.85301 0.0
C1649 C 0.78498 0.7573 0.84728 0.0
C1650 C 0.79226 0.7379 0.86369 0.0
C1651 C 0.77799 0.73639 0.86872 0.0
C1652 C 0.76714 0.74515 0.86282 0.0
H1653 H 0.7403 0.67735 0.93305 0.0
H1654 H 0.74412 0.69471 0.91321 0.0
C1655 C 0.7706 0.75552 0.85219 0.0
C1656 C 0.77467 0.7262 0.88076 0.0
H1657 H 0.75979 0.69314 0.88839 0.0
C1658 C 0.77902 0.7299 0.89484 0.0
C1659 C 0.7675 0.71291 0.87839 0.0
C1660 C 0.7627 0.70856 0.86338 0.0
C1661 C 0.7764 0.72061 0.9067 0.0
C1662 C 0.76962 0.70706 0.90431 0.0
C1663 C 0.76506 0.70348 0.89021 0.0
C1664 C 0.76734 0.69641 0.91627 0.0
C1665 C 0.78068 0.72555 0.92169 0.0
C1666 C 0.77915 0.69141 0.92446 0.0
C1667 C 0.77699 0.68168 0.93596 0.0
C1668 C 0.76297 0.67653 0.93941 0.0
C1669 C 0.75121 0.68128 0.93092 0.0
C1670 C 0.75338 0.69111 0.91947 0.0
H1671 H 0.78144 0.73749 0.92224 0.0
H1672 H 0.77279 0.72166 0.93 0.0
H1673 H 0.7915 0.7212 0.92447 0.0
H1674 H 0.79007 0.69507 0.92198 0.0
H1675 H 0.7863 0.6784 0.9423 0.0
H1676 H 0.01495 0.99224 0.40923 0.0
H1677 H 0.99649 0.99829 0.39111 0.0
H1678 H 0.97402 0.95824 0.40045 0.0
H1679 H 0.99244 0.9521 0.41856 0.0
H1680 H 0.99019 0.98293 0.3666 0.0
H1681 H 0.94115 0.98723 0.40096 0.0
H1682 H 0.95927 0.98734 0.40842 0.0
H1683 H 0.95063 0.97061 0.40351 0.0
C1684 C 0.00603 0.98476 0.40748 0.0
C1685 C 0.00518 0.97168 0.41533 0.0
C1686 C 0.99546 0.98825 0.39718 0.0
C1687 C 0.98379 0.97879 0.39454 0.0
C1688 C 0.98274 0.96585 0.40253 0.0
H1689 H 0.93256 0.97229 0.31612 0.0
H1690 H 0.94924 0.96885 0.33649 0.0
C1691 C 0.9933 0.96236 0.41288 0.0
C1692 C 0.9733 0.98199 0.38273 0.0
H1693 H 0.93725 0.98606 0.37534 0.0
C1694 C 0.97863 0.98372 0.36853 0.0
C1695 C 0.95824 0.98315 0.38528 0.0
C1696 C 0.95197 0.98213 0.40039 0.0
C1697 C 0.96927 0.98624 0.35676 0.0
C1698 C 0.95416 0.98681 0.35923 0.0
C1699 C 0.94884 0.98546 0.37346 0.0
C1700 C 0.94371 0.98873 0.34711 0.0
C1701 C 0.97568 0.9884 0.34181 0.0
C1702 C 0.93478 1.00085 0.34654 0.0
C1703 C 0.92522 0.00286 0.33489 0.0
C1704 C 0.92438 0.99273 0.32363 0.0
C1705 C 0.93314 0.98044 0.32444 0.0
C1706 C 0.94268 0.97845 0.33608 0.0
H1707 H 0.98735 0.99146 0.34233 0.0
H1708 H 0.97472 0.97818 0.33571 0.0
H1709 H 0.96981 0.99688 0.33564 0.0
H1710 H 0.93539 0.00889 0.35497 0.0
H1711 H 0.91871 0.0125 0.33455 0.0
H1712 H 0.20399 0.23695 0.67066 0.0
H1713 H 0.21077 0.21909 0.65259 0.0
H1714 H 0.24481 0.24753 0.63702 0.0
H1715 H 0.23821 0.26533 0.65518 0.0
H1716 H 0.2098 0.22243 0.62356 0.0
H1717 H 0.26611 0.20992 0.64007 0.0
H1718 H 0.25382 0.21945 0.65169 0.0
H1719 H 0.26327 0.22883 0.63727 0.0
C1720 C 0.21301 0.23933 0.66347 0.0
C1721 C 0.22058 0.25254 0.66435 0.0
C1722 C 0.21689 0.22911 0.65318 0.0
C1723 C 0.22842 0.23187 0.64356 0.0
C1724 C 0.23613 0.24497 0.64456 0.0
H1725 H 0.25817 0.19276 0.56422 0.0
H1726 H 0.25405 0.20823 0.58514 0.0
C1727 C 0.23232 0.25516 0.65492 0.0
C1728 C 0.23164 0.22153 0.63182 0.0
H1729 H 0.25867 0.20185 0.6166 0.0
C1730 C 0.22045 0.21783 0.62214 0.0
C1731 C 0.24556 0.21555 0.62993 0.0
C1732 C 0.25784 0.21852 0.64038 0.0
C1733 C 0.22286 0.20856 0.61046 0.0
C1734 C 0.2368 0.20275 0.60848 0.0
C1735 C 0.248 0.20637 0.61816 0.0
C1736 C 0.23993 0.193 0.59628 0.0
C1737 C 0.21056 0.20529 0.60012 0.0
C1738 C 0.23356 0.17921 0.59578 0.0
C1739 C 0.23599 0.17028 0.58391 0.0
C1740 C 0.24483 0.17498 0.5723 0.0
C1741 C 0.25144 0.18871 0.57302 0.0
C1742 C 0.24905 0.19761 0.58493 0.0
H1743 H 0.20134 0.21274 0.60153 0.0
H1744 H 0.21434 0.20602 0.58869 0.0
H1745 H 0.20654 0.19412 0.60213 0.0
H1746 H 0.22665 0.17539 0.60455 0.0
H1747 H 0.23096 0.15967 0.58387 0.0
H1748 H 0.49887 0.55969 0.60257 0.0
H1749 H 0.48044 0.55332 0.62066 0.0
H1750 H 0.49321 0.50883 0.61895 0.0
H1751 H 0.51205 0.51518 0.60121 0.0
H1752 H 0.45695 0.53408 0.61956 0.0
H1753 H 0.49647 0.51796 0.66222 0.0
H1754 H 0.50181 0.52778 0.64603 0.0
H1755 H 0.49825 0.50872 0.64529 0.0
C1756 C 0.49784 0.54855 0.60611 0.0
C1757 C 0.50707 0.53797 0.60057 0.0
C1758 C 0.48723 0.54492 0.61637 0.0
C1759 C 0.48562 0.53065 0.62133 0.0
C1760 C 0.49445 0.51996 0.61547 0.0
H1761 H 0.43059 0.4931 0.68923 0.0
H1762 H 0.44709 0.49666 0.66867 0.0
C1763 C 0.5051 0.52358 0.60521 0.0
C1764 C 0.47485 0.52708 0.63281 0.0
H1765 H 0.47165 0.51473 0.66776 0.0
C1766 C 0.46015 0.52982 0.6301 0.0
C1767 C 0.47906 0.52154 0.64655 0.0
C1768 C 0.49476 0.51893 0.6503 0.0
C1769 C 0.44953 0.52713 0.64074 0.0
C1770 C 0.45377 0.52177 0.65453 0.0
C1771 C 0.46844 0.51882 0.65717 0.0
C1772 C 0.44325 0.51953 0.66653 0.0
C1773 C 0.43385 0.52992 0.6371 0.0
C1774 C 0.43568 0.53123 0.6722 0.0
C1775 C 0.42621 0.52923 0.68392 0.0
C1776 C 0.42416 0.51549 0.69024 0.0
C1777 C 0.43175 0.50378 0.6845 0.0
C1778 C 0.44125 0.50581 0.6728 0.0
H1779 H 0.43198 0.53019 0.62517 0.0
H1780 H 0.42663 0.52155 0.64203 0.0
H1781 H 0.43074 0.54054 0.64149 0.0
H1782 H 0.43726 0.54197 0.6677 0.0
H1783 H 0.42046 0.53845 0.688 0.0
H1784 H 0.77346 0.23542 0.6489 0.0
H1785 H 0.76723 0.25367 0.63069 0.0
H1786 H 0.79063 0.28586 0.65507 0.0
H1787 H 0.79685 0.26767 0.67345 0.0
H1788 H 0.75244 0.28004 0.63322 0.0
H1789 H 0.80929 0.28826 0.61454 0.0
H1790 H 0.8038 0.27311 0.62579 0.0
H1791 H 0.80642 0.29058 0.63367 0.0
C1792 C 0.77712 0.24642 0.65053 0.0
C1793 C 0.78571 0.25007 0.66262 0.0
C1794 C 0.7736 0.25682 0.64006 0.0
C1795 C 0.77866 0.27106 0.64141 0.0
C1796 C 0.78688 0.27486 0.65366 0.0
H1797 H 0.77271 0.34475 0.58205 0.0
H1798 H 0.7771 0.32913 0.60315 0.0
C1799 C 0.79041 0.26446 0.66415 0.0
C1800 C 0.77549 0.2818 0.62983 0.0
H1801 H 0.79152 0.30299 0.60373 0.0
C1802 C 0.76098 0.28509 0.62678 0.0
C1803 C 0.78666 0.28838 0.62147 0.0
C1804 C 0.80242 0.28485 0.6239 0.0
C1805 C 0.75732 0.29481 0.6156 0.0
C1806 C 0.76847 0.3012 0.60709 0.0
C1807 C 0.783 0.29808 0.61029 0.0
C1808 C 0.76533 0.31081 0.59452 0.0
C1809 C 0.74156 0.29827 0.61311 0.0
C1810 C 0.75736 0.30565 0.58261 0.0
C1811 C 0.75489 0.31452 0.57051 0.0
C1812 C 0.76044 0.32871 0.57003 0.0
C1813 C 0.76842 0.33383 0.58199 0.0
C1814 C 0.77087 0.32495 0.5941 0.0
H1815 H 0.73489 0.29582 0.62289 0.0
H1816 H 0.7402 0.30979 0.61011 0.0
H1817 H 0.73731 0.29162 0.60406 0.0
H1818 H 0.75329 0.29465 0.58255 0.0
H1819 H 0.74894 0.31014 0.56139 0.0
H1820 H 0.53261 0.98239 0.5714 0.0
H1821 H 0.54521 0.9837 0.59473 0.0
H1822 H 0.50413 0.98529 0.61695 0.0
H1823 H 0.49141 0.98404 0.59359 0.0
H1824 H 0.52327 0.00568 0.62666 0.0
H1825 H 0.54981 0.95249 0.62549 0.0
H1826 H 0.55362 0.96325 0.60961 0.0
H1827 H 0.53532 0.95727 0.61321 0.0
C1828 C 0.52624 0.98279 0.58126 0.0
C1829 C 0.511 0.98301 0.58065 0.0
C1830 C 0.53347 0.98353 0.5946 0.0
C1831 C 0.52562 0.98433 0.6076 0.0
C1832 C 0.5104 0.9846 0.60704 0.0
H1833 H 0.56613 0.97436 0.69294 0.0
H1834 H 0.55071 0.97153 0.67148 0.0
C1835 C 0.50316 0.98393 0.5937 0.0
C1836 C 0.53332 0.98549 0.62172 0.0
H1837 H 0.55871 0.96915 0.64311 0.0
C1838 C 0.53093 0.99763 0.63032 0.0
C1839 C 0.54316 0.97488 0.6266 0.0
C1840 C 0.54554 0.96117 0.61832 0.0
C1841 C 0.53843 0.99968 0.64344 0.0
C1842 C 0.54881 0.98945 0.64794 0.0
C1843 C 0.55088 0.97708 0.63957 0.0
C1844 C 0.55781 0.99145 0.66117 0.0
C1845 C 0.53506 0.01273 0.65242 0.0
C1846 C 0.567 0.00353 0.66246 0.0
C1847 C 0.57572 0.00525 0.67477 0.0
C1848 C 0.57555 0.99484 0.686 0.0
C1849 C 0.56637 0.9827 0.68462 0.0
C1850 C 0.55763 0.98101 0.67231 0.0
H1851 H 0.52414 0.01701 0.64984 0.0
H1852 H 0.53558 0.01019 0.66422 0.0
H1853 H 0.54314 0.02138 0.64998 0.0
H1854 H 0.56755 0.01158 0.65387 0.0
H1855 H 0.58254 0.0148 0.67551 0.0
H1856 H 0.84402 0.19477 0.76285 0.0
H1857 H 0.86197 0.20069 0.78151 0.0
H1858 H 0.8656 0.24397 0.76426 0.0
H1859 H 0.8477 0.23811 0.74551 0.0
H1860 H 0.89037 0.20953 0.77615 0.0
H1861 H 0.86129 0.25065 0.80793 0.0
H1862 H 0.85211 0.23869 0.79548 0.0
H1863 H 0.86193 0.2542 0.78872 0.0
C1864 C 0.84858 0.20557 0.76307 0.0
C1865 C 0.84445 0.21596 0.75266 0.0
C1866 C 0.85879 0.20896 0.77378 0.0
C1867 C 0.86501 0.22281 0.77437 0.0
C1868 C 0.86071 0.2333 0.7642 0.0
H1869 H 0.93536 0.26098 0.82436 0.0
H1870 H 0.91532 0.25617 0.80755 0.0
C1871 C 0.85048 0.22993 0.75348 0.0
C1872 C 0.87673 0.22593 0.78499 0.0
H1873 H 0.88632 0.24767 0.81323 0.0
C1874 C 0.88946 0.21781 0.78432 0.0
C1875 C 0.87554 0.2368 0.79556 0.0
C1876 C 0.86194 0.24552 0.7971 0.0
C1877 C 0.90111 0.22039 0.79381 0.0
C1878 C 0.8999 0.23121 0.80443 0.0
C1879 C 0.8872 0.23937 0.80508 0.0
C1880 C 0.91175 0.2342 0.81492 0.0
C1881 C 0.91474 0.21172 0.79215 0.0
C1882 C 0.91623 0.22352 0.8248 0.0
C1883 C 0.92774 0.22619 0.83434 0.0
C1884 C 0.93496 0.23964 0.83425 0.0
C1885 C 0.93021 0.25043 0.82455 0.0
C1886 C 0.91869 0.24774 0.81501 0.0
H1887 H 0.91534 0.2066 0.78131 0.0
H1888 H 0.92456 0.21859 0.79368 0.0
H1889 H 0.91487 0.20303 0.80052 0.0
H1890 H 0.91087 0.21307 0.82507 0.0
H1891 H 0.93117 0.21761 0.84157 0.0
H1892 H 0.46901 0.93242 0.47217 0.0
H1893 H 0.4707 0.90923 0.45991 0.0
H1894 H 0.49336 0.89152 0.49688 0.0
H1895 H 0.49197 0.91477 0.50912 0.0
H1896 H 0.50692 0.88665 0.46982 0.0
H1897 H 0.44859 0.87115 0.46872 0.0
H1898 H 0.45252 0.88896 0.46184 0.0
H1899 H 0.45577 0.88482 0.48067 0.0
C1900 C 0.47433 0.92358 0.4777 0.0
C1901 C 0.48036 0.92544 0.49162 0.0
C1902 C 0.47516 0.9103 0.47074 0.0
C1903 C 0.482 0.89862 0.47756 0.0
C1904 C 0.48794 0.90038 0.49148 0.0
H1905 H 0.48324 0.8099 0.44729 0.0
H1906 H 0.48022 0.83175 0.46158 0.0
C1907 C 0.48706 0.91364 0.49849 0.0
C1908 C 0.48363 0.88479 0.46984 0.0
H1909 H 0.46447 0.85726 0.45424 0.0
C1910 C 0.49765 0.88018 0.46648 0.0
C1911 C 0.47152 0.87631 0.46563 0.0
C1912 C 0.45624 0.88046 0.46949 0.0
C1913 C 0.49988 0.86747 0.4587 0.0
C1914 C 0.48776 0.85925 0.45404 0.0
C1915 C 0.47374 0.86366 0.45772 0.0
C1916 C 0.48942 0.84607 0.44527 0.0
C1917 C 0.5152 0.86288 0.4556 0.0
C1918 C 0.4954 0.84694 0.43128 0.0
C1919 C 0.49704 0.8345 0.42303 0.0
C1920 C 0.49271 0.82094 0.42861 0.0
C1921 C 0.48656 0.82017 0.44259 0.0
C1922 C 0.48488 0.83263 0.45081 0.0
H1923 H 0.52318 0.86832 0.46282 0.0
H1924 H 0.5163 0.85103 0.45695 0.0
H1925 H 0.51797 0.86575 0.4442 0.0
H1926 H 0.49871 0.85726 0.4267 0.0
H1927 H 0.50155 0.83555 0.41221 0.0
H1928 H 0.14818 0.30558 0.74957 0.0
H1929 H 0.12958 0.29986 0.76761 0.0
H1930 H 0.15061 0.25969 0.77755 0.0
H1931 H 0.16964 0.26557 0.75983 0.0
H1932 H 0.11081 0.27635 0.76748 0.0
H1933 H 0.14414 0.27669 0.81785 0.0
H1934 H 0.15053 0.28438 0.80089 0.0
H1935 H 0.15059 0.26519 0.80373 0.0
C1936 C 0.14906 0.29566 0.75579 0.0
C1937 C 0.1605 0.28609 0.75331 0.0
C1938 C 0.13833 0.29236 0.76602 0.0
C1939 C 0.1388 0.27944 0.77405 0.0
C1940 C 0.15018 0.26984 0.77166 0.0
H1941 H 0.07789 0.2431 0.83773 0.0
H1942 H 0.09814 0.24683 0.82084 0.0
C1943 C 0.16096 0.27315 0.76142 0.0
C1944 C 0.12695 0.27583 0.7844 0.0
H1945 H 0.11955 0.26947 0.82028 0.0
C1946 C 0.11272 0.27485 0.77902 0.0
C1947 C 0.12949 0.2738 0.79945 0.0
C1948 C 0.14449 0.27517 0.80589 0.0
C1949 C 0.10095 0.27193 0.78827 0.0
C1950 C 0.10344 0.27017 0.80334 0.0
C1951 C 0.11769 0.27086 0.80871 0.0
C1952 C 0.09132 0.26798 0.81372 0.0
C1953 C 0.08594 0.27064 0.78181 0.0
C1954 C 0.08091 0.27872 0.81546 0.0
C1955 C 0.06932 0.27662 0.82503 0.0
C1956 C 0.06794 0.26373 0.83312 0.0
C1957 C 0.07853 0.25306 0.83151 0.0
C1958 C 0.09015 0.25521 0.82195 0.0
H1959 H 0.08631 0.26852 0.76997 0.0
H1960 H 0.0796 0.26187 0.78723 0.0
H1961 H 0.08012 0.28091 0.7834 0.0
H1962 H 0.08174 0.28875 0.80937 0.0
H1963 H 0.06131 0.285 0.82591 0.0
H1964 H 0.55956 0.60548 0.5108 0.0
H1965 H 0.55301 0.62374 0.49273 0.0
H1966 H 0.51084 0.60376 0.48788 0.0
H1967 H 0.51732 0.58538 0.50599 0.0
H1968 H 0.54453 0.62088 0.46387 0.0
H1969 H 0.50104 0.64562 0.49672 0.0
H1970 H 0.51395 0.63322 0.50442 0.0
H1971 H 0.49896 0.6266 0.49381 0.0
C1972 C 0.54894 0.60485 0.50579 0.0
C1973 C 0.53895 0.59397 0.50986 0.0
C1974 C 0.54519 0.61535 0.49551 0.0
C1975 C 0.53137 0.61524 0.48912 0.0
C1976 C 0.52145 0.60423 0.49291 0.0
H1977 H 0.49283 0.67618 0.42737 0.0
H1978 H 0.49742 0.65509 0.4429 0.0
C1979 C 0.52518 0.59373 0.50324 0.0
C1980 C 0.52744 0.6267 0.47852 0.0
H1981 H 0.50466 0.65502 0.47305 0.0
C1982 C 0.53579 0.62832 0.46585 0.0
C1983 C 0.51601 0.63638 0.48113 0.0
C1984 C 0.50703 0.6355 0.4948 0.0
C1985 C 0.53306 0.6394 0.45575 0.0
C1986 C 0.52182 0.64924 0.4585 0.0
C1987 C 0.51327 0.64744 0.47099 0.0
C1988 C 0.51916 0.66181 0.44884 0.0
C1989 C 0.54219 0.64047 0.44218 0.0
C1990 C 0.52981 0.67262 0.44716 0.0
C1991 C 0.52723 0.68465 0.43832 0.0
C1992 C 0.51393 0.68612 0.43099 0.0
C1993 C 0.50325 0.67527 0.43272 0.0
C1994 C 0.50582 0.66326 0.44164 0.0
H1995 H 0.54759 0.63011 0.43982 0.0
H1996 H 0.53551 0.64363 0.43264 0.0
H1997 H 0.55075 0.64882 0.44369 0.0
H1998 H 0.54009 0.67181 0.45281 0.0
H1999 H 0.53572 0.69274 0.43712 0.0
H2000 H 0.84695 0.76777 0.76868 0.0
H2001 H 0.86554 0.76085 0.75128 0.0
H2002 H 0.85359 0.79625 0.7232 0.0
H2003 H 0.8346 0.80297 0.7403 0.0
H2004 H 0.85897 0.77067 0.7082 0.0
H2005 H 0.90349 0.78391 0.74672 0.0
H2006 H 0.89036 0.77112 0.7536 0.0
H2007 H 0.88501 0.78931 0.74967 0.0
C2008 C 0.84807 0.77394 0.75868 0.0
C2009 C 0.83934 0.786 0.75595 0.0
C2010 C 0.85883 0.77006 0.74883 0.0
C2011 C 0.86113 0.77821 0.7361 0.0
C2012 C 0.85207 0.78989 0.73303 0.0
H2013 H 0.93857 0.78304 0.68358 0.0
H2014 H 0.91777 0.78746 0.69924 0.0
C2015 C 0.84129 0.79377 0.74287 0.0
C2016 C 0.87329 0.77487 0.7262 0.0
H2017 H 0.91023 0.77325 0.72455 0.0
C2018 C 0.87018 0.77121 0.71176 0.0
C2019 C 0.88791 0.77578 0.73083 0.0
C2020 C 0.89196 0.78037 0.74601 0.0
C2021 C 0.88132 0.76833 0.70183 0.0
C2022 C 0.89593 0.76894 0.70656 0.0
C2023 C 0.89902 0.77268 0.72098 0.0
C2024 C 0.90824 0.76622 0.69664 0.0
C2025 C 0.87739 0.76501 0.6863 0.0
C2026 C 0.90985 0.75277 0.69004 0.0
C2027 C 0.92168 0.75024 0.68096 0.0
C2028 C 0.93219 0.76109 0.67838 0.0
C2029 C 0.93057 0.77452 0.68511 0.0
C2030 C 0.91874 0.77704 0.69416 0.0
H2031 H 0.86619 0.76844 0.6836 0.0
H2032 H 0.88504 0.77041 0.67863 0.0
H2033 H 0.878 0.75321 0.68462 0.0
H2034 H 0.90202 0.74418 0.69201 0.0
H2035 H 0.92254 0.73981 0.67588 0.0
H2036 H 0.01817 0.91893 0.50991 0.0
H2037 H 0.0124 0.90071 0.52862 0.0
H2038 H 0.04766 0.87466 0.51366 0.0
H2039 H 0.05364 0.89285 0.49517 0.0
H2040 H 0.00532 0.87074 0.52393 0.0
H2041 H 0.05456 0.87777 0.55798 0.0
H2042 H 0.04876 0.89117 0.5449 0.0
H2043 H 0.05817 0.87544 0.53898 0.0
C2044 C 0.02478 0.90939 0.51072 0.0
C2045 C 0.03636 0.90732 0.50106 0.0
C2046 C 0.02143 0.89897 0.52136 0.0
C2047 C 0.02972 0.88643 0.52262 0.0
C2048 C 0.04127 0.88436 0.513 0.0
H2049 H 0.03136 0.80753 0.57215 0.0
H2050 H 0.03554 0.82811 0.55586 0.0
C2051 C 0.04457 0.8947 0.50234 0.0
C2052 C 0.0261 0.87523 0.53366 0.0
H2053 H 0.04009 0.85681 0.56265 0.0
C2054 C 0.01282 0.86778 0.53251 0.0
C2055 C 0.03595 0.8714 0.54479 0.0
C2056 C 0.05011 0.87944 0.54687 0.0
C2057 C 0.00936 0.85619 0.54188 0.0
C2058 C 0.01934 0.85218 0.55287 0.0
C2059 C 0.03248 0.85987 0.5542 0.0
C2060 C 0.01661 0.83974 0.56278 0.0
C2061 C 0.99532 0.84801 0.53959 0.0
C2062 C 0.00465 0.8395 0.5722 0.0
C2063 C 0.00215 0.82766 0.58144 0.0
C2064 C 0.01162 0.81588 0.58151 0.0
C2065 C 0.02371 0.81628 0.5722 0.0
C2066 C 0.02618 0.8281 0.56296 0.0
H2067 H 0.99063 0.85016 0.52866 0.0
H2068 H 0.99693 0.83622 0.54086 0.0
H2069 H 0.98731 0.85139 0.54782 0.0
H2070 H 0.99728 0.84849 0.57244 0.0
H2071 H 0.99268 0.82768 0.58839 0.0
H2072 H 0.16949 0.7528 0.74386 0.0
H2073 H 0.14632 0.75325 0.73099 0.0
H2074 H 0.14234 0.70708 0.7358 0.0
H2075 H 0.16569 0.70655 0.74856 0.0
H2076 H 0.13657 0.71556 0.70852 0.0
H2077 H 0.1056 0.74937 0.74633 0.0
H2078 H 0.12217 0.75799 0.74063 0.0
H2079 H 0.1228 0.74156 0.75119 0.0
C2080 C 0.16357 0.74277 0.7424 0.0
C2081 C 0.16938 0.72964 0.74731 0.0
C2082 C 0.15029 0.74304 0.73507 0.0
C2083 C 0.14243 0.73024 0.73267 0.0
C2084 C 0.14818 0.71711 0.7376 0.0
H2085 H 0.05383 0.73067 0.69832 0.0
H2086 H 0.07522 0.7275 0.71381 0.0
C2087 C 0.16152 0.71681 0.74485 0.0
C2088 C 0.12864 0.73049 0.72431 0.0
H2089 H 0.09558 0.74662 0.72245 0.0
C2090 C 0.12755 0.72224 0.71165 0.0
C2091 C 0.11676 0.73903 0.7285 0.0
C2092 C 0.11681 0.74736 0.74249 0.0
C2093 C 0.11512 0.72266 0.70282 0.0
C2094 C 0.10361 0.73186 0.70655 0.0
C2095 C 0.10448 0.73973 0.71947 0.0
C2096 C 0.09066 0.73363 0.69711 0.0
C2097 C 0.11443 0.71313 0.68964 0.0
C2098 C 0.0922 0.73834 0.68264 0.0
C2099 C 0.08002 0.7401 0.67377 0.0
C2100 C 0.06602 0.73739 0.67924 0.0
C2101 C 0.06447 0.73292 0.69381 0.0
C2102 C 0.07668 0.73106 0.70265 0.0
H2103 H 0.1217 0.70372 0.69084 0.0
H2104 H 0.10322 0.70911 0.68767 0.0
H2105 H 0.11804 0.7194 0.67995 0.0
H2106 H 0.10284 0.7408 0.67823 0.0
H2107 H 0.08156 0.74381 0.66267 0.0
H2108 H 0.99359 0.59121 0.49966 0.0
H2109 H 0.99488 0.61376 0.51315 0.0
H2110 H 0.96268 0.59738 0.54317 0.0
H2111 H 0.96095 0.57498 0.52947 0.0
H2112 H 0.95826 0.62605 0.53495 0.0
H2113 H 0.01509 0.61715 0.55267 0.0
H2114 H 0.0124 0.61676 0.53335 0.0
H2115 H 0.00406 0.60312 0.54467 0.0
C2116 C 0.98661 0.59247 0.50899 0.0
C2117 C 0.97724 0.58123 0.51354 0.0
C2118 C 0.98749 0.60531 0.51679 0.0
C2119 C 0.97908 0.60713 0.52932 0.0
C2120 C 0.96935 0.59615 0.5336 0.0
H2121 H 0.99323 0.66732 0.5992 0.0
H2122 H 0.99021 0.64614 0.58384 0.0
C2123 C 0.96846 0.58331 0.52581 0.0
C2124 C 0.9806 0.62033 0.53817 0.0
H2125 H 0.00476 0.63952 0.55869 0.0
C2126 C 0.96842 0.62903 0.54013 0.0
C2127 C 0.99382 0.62405 0.54509 0.0
C2128 C 0.00707 0.61473 0.54398 0.0
C2129 C 0.96914 0.64143 0.54875 0.0
C2130 C 0.98245 0.64533 0.55539 0.0
C2131 C 0.9946 0.63657 0.55349 0.0
C2132 C 0.98397 0.65825 0.56466 0.0
C2133 C 0.95556 0.65005 0.55094 0.0
C2134 C 0.98157 0.6721 0.55894 0.0
C2135 C 0.98331 0.68423 0.56769 0.0
C2136 C 0.98762 0.68275 0.5823 0.0
C2137 C 0.99007 0.66885 0.58796 0.0
C2138 C 0.98829 0.65673 0.57922 0.0
H2139 H 0.94564 0.6437 0.54826 0.0
H2140 H 0.95475 0.65377 0.56233 0.0
H2141 H 0.9559 0.65969 0.54371 0.0
H2142 H 0.97856 0.67354 0.54765 0.0
H2143 H 0.98157 0.6948 0.56294 0.0
H2144 H 0.76131 0.84224 0.19755 0.0
H2145 H 0.7792 0.86074 0.2041 0.0
H2146 H 0.75811 0.86605 0.24543 0.0
H2147 H 0.74001 0.84775 0.23889 0.0
H2148 H 0.772 0.88969 0.21106 0.0
H2149 H 0.80164 0.86258 0.25609 0.0
H2150 H 0.79072 0.85277 0.24312 0.0
H2151 H 0.78221 0.86231 0.25761 0.0
C2152 C 0.76049 0.8473 0.20806 0.0
C2153 C 0.74917 0.84354 0.21767 0.0
C2154 C 0.77077 0.85781 0.21181 0.0
C2155 C 0.77005 0.86466 0.22529 0.0
C2156 C 0.75902 0.8607 0.23507 0.0
H2157 H 0.81741 0.93583 0.26461 0.0
H2158 H 0.8011 0.91552 0.25944 0.0
C2159 C 0.74869 0.85021 0.23132 0.0
C2160 C 0.78021 0.87667 0.22866 0.0
H2161 H 0.80699 0.88735 0.252 0.0
C2162 C 0.77971 0.88916 0.21996 0.0
C2163 C 0.79014 0.87598 0.24035 0.0
C2164 C 0.79136 0.86266 0.24979 0.0
C2165 C 0.78875 0.90109 0.22275 0.0
C2166 C 0.79882 0.90036 0.23435 0.0
C2167 C 0.79929 0.88787 0.24309 0.0
C2168 C 0.80895 0.91247 0.23756 0.0
C2169 C 0.78717 0.91448 0.21347 0.0
C2170 C 0.81893 0.91735 0.22706 0.0
C2171 C 0.82813 0.92906 0.22991 0.0
C2172 C 0.82767 0.93605 0.2434 0.0
C2173 C 0.81789 0.93089 0.25402 0.0
C2174 C 0.80864 0.9192 0.25113 0.0
H2175 H 0.77647 0.91477 0.20792 0.0
H2176 H 0.78844 0.92437 0.22006 0.0
H2177 H 0.79569 0.91464 0.20497 0.0
H2178 H 0.81955 0.91214 0.21662 0.0
H2179 H 0.83542 0.93279 0.22143 0.0
H2180 H 0.7622 0.17221 0.24904 0.0
H2181 H 0.77554 0.14964 0.24844 0.0
H2182 H 0.77402 0.14682 0.29518 0.0
H2183 H 0.7609 0.1696 0.29594 0.0
H2184 H 0.80307 0.14482 0.26301 0.0
H2185 H 0.75969 0.10641 0.28088 0.0
H2186 H 0.75578 0.12412 0.27364 0.0
H2187 H 0.76246 0.12213 0.29186 0.0
C2188 C 0.76472 0.16684 0.25922 0.0
C2189 C 0.76054 0.17279 0.27255 0.0
C2190 C 0.77227 0.15389 0.25883 0.0
C2191 C 0.77567 0.14653 0.27175 0.0
C2192 C 0.7713 0.15224 0.28508 0.0
H2193 H 0.82277 0.06705 0.28804 0.0
H2194 H 0.80854 0.08899 0.29033 0.0
C2195 C 0.76378 0.16525 0.28548 0.0
C2196 C 0.7844 0.13325 0.27122 0.0
H2197 H 0.78306 0.09691 0.27739 0.0
C2198 C 0.79871 0.13433 0.26614 0.0
C2199 C 0.7787 0.11963 0.27542 0.0
C2200 C 0.76329 0.11788 0.28068 0.0
C2201 C 0.80753 0.12216 0.26521 0.0
C2202 C 0.80174 0.10845 0.2691 0.0
C2203 C 0.78747 0.1074 0.27436 0.0
C2204 C 0.81029 0.09509 0.26765 0.0
C2205 C 0.82305 0.12415 0.26032 0.0
C2206 C 0.81582 0.0911 0.25409 0.0
C2207 C 0.82412 0.07868 0.25277 0.0
C2208 C 0.82692 0.06985 0.26496 0.0
C2209 C 0.82107 0.07372 0.27847 0.0
C2210 C 0.81283 0.08619 0.27979 0.0
H2211 H 0.82696 0.13539 0.26196 0.0
H2212 H 0.83038 0.11673 0.26627 0.0
H2213 H 0.82379 0.12182 0.24855 0.0
H2214 H 0.81374 0.09762 0.2445 0.0
H2215 H 0.82853 0.07614 0.24222 0.0
H2216 H 0.41961 0.99054 0.96004 0.0
H2217 H 0.39675 0.97684 0.96089 0.0
H2218 H 0.39651 0.9796 0.0076 0.0
H2219 H 0.41946 0.993 0.00692 0.0
H2220 H 0.39175 0.95004 0.97615 0.0
H2221 H 0.35562 0.99332 0.99529 0.0
H2222 H 0.37317 0.99702 0.98729 0.0
H2223 H 0.37185 0.99097 0.00585 0.0
C2224 C 0.41472 0.98821 0.9705 0.0
C2225 C 0.42138 0.99294 0.98341 0.0
C2226 C 0.40162 0.98045 0.97095 0.0
C2227 C 0.39486 0.97738 0.98429 0.0
C2228 C 0.4014 0.98212 0.99717 0.0
H2229 H 0.31962 0.92989 0.01465 0.0
H2230 H 0.34149 0.94476 0.01172 0.0
C2231 C 0.41452 0.98982 0.99675 0.0
C2232 C 0.38129 0.96867 0.98483 0.0
H2233 H 0.34587 0.96951 0.99549 0.0
C2234 C 0.38167 0.9543 0.98025 0.0
C2235 C 0.3682 0.97427 0.99025 0.0
C2236 C 0.36708 0.98978 0.99485 0.0
C2237 C 0.3694 0.94524 0.98135 0.0
C2238 C 0.35631 0.95082 0.98688 0.0
C2239 C 0.35591 0.96525 0.99128 0.0
C2240 C 0.34302 0.94177 0.9885 0.0
C2241 C 0.37071 0.92966 0.97706 0.0
C2242 C 0.33649 0.93528 0.97639 0.0
C2243 C 0.32407 0.92662 0.97805 0.0
C2244 C 0.31783 0.92439 0.99185 0.0
C2245 C 0.32427 0.93114 0.00391 0.0
C2246 C 0.33671 0.93975 0.00224 0.0
H2247 H 0.3822 0.92623 0.97672 0.0
H2248 H 0.3647 0.92247 0.98473 0.0
H2249 H 0.36602 0.92822 0.96605 0.0
H2250 H 0.34101 0.93691 0.96563 0.0
H2251 H 0.31948 0.92152 0.96854 0.0
H2252 H 0.23543 0.33944 0.30173 0.0
H2253 H 0.2175 0.35776 0.29558 0.0
H2254 H 0.24491 0.37352 0.26085 0.0
H2255 H 0.26296 0.35536 0.267 0.0
H2256 H 0.22241 0.38755 0.29596 0.0
H2257 H 0.20513 0.36981 0.24113 0.0
H2258 H 0.21471 0.35819 0.25363 0.0
H2259 H 0.22441 0.37176 0.24336 0.0
C2260 C 0.23763 0.34677 0.29274 0.0
C2261 C 0.25065 0.34592 0.28486 0.0
C2262 C 0.22734 0.35718 0.2892 0.0
C2263 C 0.22979 0.36689 0.27765 0.0
C2264 C 0.24264 0.36593 0.2696 0.0
H2265 H 0.18632 0.44307 0.24481 0.0
H2266 H 0.20272 0.42293 0.24925 0.0
C2267 C 0.25295 0.35553 0.27313 0.0
C2268 C 0.21937 0.37862 0.27467 0.0
H2269 H 0.19729 0.39292 0.24855 0.0
C2270 C 0.21683 0.38867 0.28564 0.0
C2271 C 0.21219 0.3801 0.26116 0.0
C2272 C 0.21412 0.36933 0.24917 0.0
C2273 C 0.2075 0.40032 0.28337 0.0
C2274 C 0.2003 0.4018 0.26987 0.0
C2275 C 0.20282 0.39175 0.25889 0.0
C2276 C 0.19013 0.41376 0.26695 0.0
C2277 C 0.20573 0.41115 0.29534 0.0
C2278 C 0.1775 0.41514 0.27527 0.0
C2279 C 0.16817 0.42668 0.27284 0.0
C2280 C 0.17124 0.43704 0.26196 0.0
C2281 C 0.18375 0.43543 0.25343 0.0
C2282 C 0.19308 0.42387 0.25587 0.0
H2283 H 0.21469 0.41057 0.3034 0.0
H2284 H 0.20531 0.42229 0.29086 0.0
H2285 H 0.1954 0.40889 0.30115 0.0
H2286 H 0.17489 0.40732 0.28372 0.0
H2287 H 0.1587 0.42764 0.27969 0.0
H2288 H 0.09906 0.98939 0.49841 0.0
H2289 H 0.11745 0.00755 0.50463 0.0
H2290 H 0.10842 0.03054 0.46473 0.0
H2291 H 0.09007 0.01245 0.45843 0.0
H2292 H 0.14197 0.01387 0.4891 0.0
H2293 H 0.10867 0.06283 0.49428 0.0
H2294 H 0.10085 0.0449 0.49421 0.0
H2295 H 0.10583 0.0537 0.47741 0.0
C2296 C 0.10092 0.99837 0.49101 0.0
C2297 C 0.09308 0.99947 0.47793 0.0
C2298 C 0.11139 0.00876 0.49461 0.0
C2299 C 0.11419 0.0205 0.48524 0.0
C2300 C 0.10621 0.02177 0.4723 0.0
H2301 H 0.19309 0.07051 0.47615 0.0
H2302 H 0.17246 0.05392 0.47375 0.0
C2303 C 0.09572 0.0114 0.46871 0.0
C2304 C 0.12619 0.03079 0.48843 0.0
H2305 H 0.13432 0.06657 0.4922 0.0
C2306 C 0.14027 0.02538 0.4899 0.0
C2307 C 0.12395 0.04579 0.48964 0.0
C2308 C 0.10899 0.05215 0.48895 0.0
C2309 C 0.15224 0.03459 0.49212 0.0
C2310 C 0.15009 0.04964 0.49262 0.0
C2311 C 0.13596 0.05504 0.49162 0.0
C2312 C 0.16242 0.05994 0.49399 0.0
C2313 C 0.16706 0.0281 0.49397 0.0
C2314 C 0.16341 0.06913 0.50597 0.0
C2315 C 0.17521 0.07864 0.50738 0.0
C2316 C 0.1862 0.07918 0.49679 0.0
C2317 C 0.18499 0.07015 0.48465 0.0
C2318 C 0.17319 0.06067 0.48325 0.0
H2319 H 0.16635 0.01657 0.4973 0.0
H2320 H 0.17293 0.02876 0.48347 0.0
H2321 H 0.17354 0.03404 0.5022 0.0
H2322 H 0.15518 0.06876 0.51435 0.0
H2323 H 0.17587 0.08535 0.51692 0.0
H2324 H 0.7609 0.16 0.74087 0.0
H2325 H 0.74254 0.14171 0.7473 0.0
H2326 H 0.73366 0.13485 0.70191 0.0
H2327 H 0.75165 0.15333 0.69535 0.0
H2328 H 0.71101 0.13974 0.73762 0.0
H2329 H 0.7457 0.09449 0.72016 0.0
H2330 H 0.75303 0.11206 0.72456 0.0
H2331 H 0.744 0.10929 0.70751 0.0
C2332 C 0.75489 0.15478 0.73225 0.0
C2333 C 0.75787 0.15805 0.71758 0.0
C2334 C 0.74446 0.14428 0.73596 0.0
C2335 C 0.73692 0.13684 0.72506 0.0
C2336 C 0.73954 0.14036 0.71045 0.0
H2337 H 0.67776 0.06465 0.71936 0.0
H2338 H 0.69456 0.08478 0.71523 0.0
C2339 C 0.74988 0.15087 0.70674 0.0
C2340 C 0.72655 0.1251 0.72887 0.0
H2341 H 0.72146 0.08873 0.72641 0.0
C2342 C 0.71328 0.12856 0.73528 0.0
C2343 C 0.7296 0.11057 0.72575 0.0
C2344 C 0.74389 0.10628 0.71921 0.0
C2345 C 0.70273 0.11787 0.73827 0.0
C2346 C 0.70574 0.10331 0.73505 0.0
C2347 C 0.71914 0.09988 0.72884 0.0
C2348 C 0.69506 0.09147 0.73768 0.0
C2349 C 0.68831 0.12233 0.74437 0.0
C2350 C 0.68978 0.08847 0.75169 0.0
C2351 C 0.67998 0.07705 0.75407 0.0
C2352 C 0.67538 0.0683 0.74249 0.0
C2353 C 0.68082 0.0713 0.72849 0.0
C2354 C 0.69053 0.08275 0.72612 0.0
H2355 H 0.68632 0.13399 0.74253 0.0
H2356 H 0.67926 0.11606 0.73943 0.0
H2357 H 0.68821 0.12026 0.75626 0.0
H2358 H 0.69335 0.09485 0.76084 0.0
H2359 H 0.67595 0.07514 0.76497 0.0
H2360 H 0.42142 0.0139 0.49642 0.0
H2361 H 0.39855 0.02701 0.49636 0.0
H2362 H 0.39753 0.02506 0.54317 0.0
H2363 H 0.42059 0.0122 0.54334 0.0
H2364 H 0.37095 0.01887 0.50873 0.0
H2365 H 0.39427 0.06862 0.53316 0.0
H2366 H 0.40542 0.05485 0.52535 0.0
H2367 H 0.39748 0.05211 0.54297 0.0
C2368 C 0.41637 0.01632 0.50671 0.0
C2369 C 0.42288 0.01212 0.51989 0.0
C2370 C 0.40326 0.02373 0.50665 0.0
C2371 C 0.39647 0.02717 0.51976 0.0
C2372 C 0.40272 0.02268 0.53294 0.0
H2373 H 0.3207 0.07983 0.53684 0.0
H2374 H 0.34164 0.06403 0.53927 0.0
C2375 C 0.41582 0.01521 0.53301 0.0
C2376 C 0.38295 0.03565 0.51957 0.0
H2377 H 0.36912 0.06833 0.52854 0.0
C2378 C 0.37051 0.02967 0.51308 0.0
C2379 C 0.38244 0.04971 0.5253 0.0
C2380 C 0.39562 0.0568 0.532 0.0
C2381 C 0.35753 0.03739 0.51219 0.0
C2382 C 0.35709 0.05158 0.51766 0.0
C2383 C 0.36948 0.05746 0.52435 0.0
C2384 C 0.34403 0.06069 0.51618 0.0
C2385 C 0.34436 0.0302 0.50557 0.0
C2386 C 0.33849 0.06415 0.50239 0.0
C2387 C 0.32646 0.07307 0.50096 0.0
C2388 C 0.31978 0.07884 0.51331 0.0
C2389 C 0.32542 0.0754 0.52712 0.0
C2390 C 0.33745 0.06645 0.52853 0.0
H2391 H 0.34518 0.01827 0.50596 0.0
H2392 H 0.33428 0.03337 0.51124 0.0
H2393 H 0.34346 0.03355 0.494 0.0
H2394 H 0.34358 0.06008 0.49269 0.0
H2395 H 0.32234 0.07537 0.49017 0.0
H2396 H 0.59444 0.51026 0.5194 0.0
H2397 H 0.61161 0.4918 0.5121 0.0
H2398 H 0.61341 0.47592 0.55626 0.0
H2399 H 0.59586 0.49396 0.56354 0.0
H2400 H 0.6394 0.48906 0.52207 0.0
H2401 H 0.60823 0.43887 0.53377 0.0
H2402 H 0.59981 0.45632 0.53273 0.0
H2403 H 0.60914 0.45077 0.549 0.0
C2404 C 0.59821 0.50263 0.5275 0.0
C2405 C 0.59375 0.5036 0.54206 0.0
C2406 C 0.60811 0.49215 0.52332 0.0
C2407 C 0.61367 0.48237 0.53359 0.0
C2408 C 0.60906 0.48316 0.54808 0.0
H2409 H 0.68265 0.4207 0.53818 0.0
H2410 H 0.66237 0.43687 0.54249 0.0
C2411 C 0.59916 0.49361 0.55226 0.0
C2412 C 0.62504 0.47202 0.5294 0.0
H2413 H 0.63375 0.43634 0.53008 0.0
C2414 C 0.63811 0.47752 0.52366 0.0
C2415 C 0.62334 0.45697 0.53151 0.0
C2416 C 0.60932 0.45035 0.53696 0.0
C2417 C 0.64969 0.46842 0.52041 0.0
C2418 C 0.64808 0.4534 0.52278 0.0
C2419 C 0.63495 0.44787 0.52831 0.0
C2420 C 0.66008 0.44332 0.51997 0.0
C2421 C 0.66371 0.47499 0.51491 0.0
C2422 C 0.66536 0.44145 0.50584 0.0
C2423 C 0.677 0.43227 0.50334 0.0
C2424 C 0.68354 0.42477 0.51494 0.0
C2425 C 0.67801 0.42648 0.52905 0.0
C2426 C 0.66636 0.43563 0.53152 0.0
H2427 H 0.66424 0.48681 0.51664 0.0
H2428 H 0.67316 0.46996 0.52038 0.0
H2429 H 0.66465 0.47303 0.50308 0.0
H2430 H 0.66053 0.44715 0.49675 0.0
H2431 H 0.68104 0.43126 0.49237 0.0
H2432 H 0.72623 0.24281 0.34577 0.0
H2433 H 0.72624 0.25642 0.36849 0.0
H2434 H 0.7402 0.29463 0.34514 0.0
H2435 H 0.73993 0.28126 0.32243 0.0
H2436 H 0.75014 0.2718 0.38139 0.0
H2437 H 0.7043 0.30781 0.36799 0.0
H2438 H 0.70761 0.29135 0.3583 0.0
H2439 H 0.71814 0.30732 0.3543 0.0
C2440 C 0.72916 0.25414 0.34547 0.0
C2441 C 0.73308 0.26095 0.33229 0.0
C2442 C 0.72924 0.26187 0.35845 0.0
C2443 C 0.73304 0.27656 0.35845 0.0
C2444 C 0.73701 0.28336 0.34535 0.0
H2445 H 0.74447 0.34523 0.41969 0.0
H2446 H 0.74236 0.32974 0.39845 0.0
C2447 C 0.73701 0.27565 0.3324 0.0
C2448 C 0.73323 0.2848 0.37216 0.0
H2449 H 0.71862 0.31409 0.38854 0.0
C2450 C 0.74316 0.28096 0.38305 0.0
C2451 C 0.72412 0.29675 0.37425 0.0
C2452 C 0.71284 0.30101 0.36316 0.0
C2453 C 0.7446 0.28909 0.39579 0.0
C2454 C 0.73564 0.30119 0.39777 0.0
C2455 C 0.72551 0.30485 0.38698 0.0
C2456 C 0.73685 0.31046 0.41077 0.0
C2457 C 0.75604 0.28495 0.40675 0.0
C2458 C 0.73427 0.30481 0.42475 0.0
C2459 C 0.73545 0.31365 0.43692 0.0
C2460 C 0.7391 0.32835 0.43534 0.0
C2461 C 0.74149 0.334 0.42129 0.0
C2462 C 0.74035 0.32515 0.40914 0.0
H2463 H 0.76429 0.27775 0.402 0.0
H2464 H 0.76164 0.29465 0.41109 0.0
H2465 H 0.75082 0.27911 0.41597 0.0
H2466 H 0.73122 0.29358 0.42624 0.0
H2467 H 0.73331 0.30902 0.44756 0.0
H2468 H 0.53126 0.03582 0.93387 0.0
H2469 H 0.54404 0.03454 0.91066 0.0
H2470 H 0.50713 0.0128 0.89169 0.0
H2471 H 0.49438 0.01376 0.91497 0.0
H2472 H 0.53384 0.99909 0.88693 0.0
H2473 H 0.53696 0.0573 0.87263 0.0
H2474 H 0.54329 0.05296 0.8906 0.0
H2475 H 0.52451 0.05011 0.88607 0.0
C2476 C 0.52585 0.0308 0.92475 0.0
C2477 C 0.5118 0.02488 0.92627 0.0
C2478 C 0.53311 0.03021 0.91145 0.0
C2479 C 0.52647 0.02372 0.89941 0.0
C2480 C 0.5124 0.01794 0.90083 0.0
H2481 H 0.55925 0.0238 0.81059 0.0
H2482 H 0.54449 0.02671 0.83242 0.0
C2483 C 0.5051 0.01858 0.91411 0.0
C2484 C 0.53452 0.02227 0.88559 0.0
H2485 H 0.55146 0.04158 0.85861 0.0
C2486 C 0.53762 0.00837 0.88068 0.0
C2487 C 0.53932 0.03439 0.8774 0.0
C2488 C 0.53576 0.04955 0.88184 0.0
C2489 C 0.54571 0.00628 0.86799 0.0
C2490 C 0.55095 0.01841 0.86008 0.0
C2491 C 0.54754 0.0323 0.86478 0.0
C2492 C 0.56004 0.01686 0.84694 0.0
C2493 C 0.54849 0.9911 0.86307 0.0
C2494 C 0.57376 0.01056 0.84792 0.0
C2495 C 0.58227 0.00897 0.8355 0.0
C2496 C 0.57724 0.01369 0.82184 0.0
C2497 C 0.56354 0.02018 0.82095 0.0
C2498 C 0.55505 0.02179 0.83339 0.0
H2499 H 0.54087 0.98321 0.86821 0.0
H2500 H 0.54751 0.99029 0.85109 0.0
H2501 H 0.55969 0.98806 0.86618 0.0
H2502 H 0.57793 0.00695 0.85833 0.0
H2503 H 0.59288 0.0042 0.83665 0.0
H2504 H 0.30578 0.24735 0.34332 0.0
H2505 H 0.30024 0.22927 0.36209 0.0
H2506 H 0.25843 0.24839 0.36879 0.0
H2507 H 0.26394 0.26663 0.35014 0.0
H2508 H 0.29395 0.2353 0.39132 0.0
H2509 H 0.24871 0.20514 0.36513 0.0
H2510 H 0.26093 0.21683 0.35503 0.0
H2511 H 0.24657 0.22435 0.36559 0.0
C2512 C 0.29539 0.24771 0.34876 0.0
C2513 C 0.28532 0.25847 0.34525 0.0
C2514 C 0.29222 0.23732 0.35943 0.0
C2515 C 0.27888 0.2374 0.36673 0.0
C2516 C 0.26868 0.24796 0.36309 0.0
H2517 H 0.24313 0.18765 0.43913 0.0
H2518 H 0.24727 0.20458 0.41896 0.0
C2519 C 0.27185 0.25837 0.35241 0.0
C2520 C 0.27605 0.227 0.37876 0.0
H2521 H 0.25358 0.1995 0.38985 0.0
C2522 C 0.28517 0.22742 0.39098 0.0
C2523 C 0.26453 0.21681 0.37831 0.0
C2524 C 0.25467 0.21562 0.36527 0.0
C2525 C 0.28298 0.21804 0.40285 0.0
C2526 C 0.27154 0.20775 0.40237 0.0
C2527 C 0.26236 0.20738 0.39018 0.0
C2528 C 0.26897 0.19728 0.41441 0.0
C2529 C 0.29274 0.21947 0.41595 0.0
C2530 C 0.27971 0.18741 0.41841 0.0
C2531 C 0.27744 0.17782 0.43002 0.0
C2532 C 0.26432 0.17781 0.4378 0.0
C2533 C 0.25345 0.18752 0.43355 0.0
C2534 C 0.25575 0.19713 0.42194 0.0
H2535 H 0.29821 0.2302 0.41626 0.0
H2536 H 0.28655 0.21784 0.42619 0.0
H2537 H 0.30127 0.21116 0.41549 0.0
H2538 H 0.28989 0.18715 0.41257 0.0
H2539 H 0.28609 0.17059 0.43305 0.0
H2540 H 0.49039 0.45775 0.92211 0.0
H2541 H 0.47198 0.46448 0.90412 0.0
H2542 H 0.50416 0.48879 0.88 0.0
H2543 H 0.52259 0.48224 0.89794 0.0
H2544 H 0.46255 0.49216 0.89363 0.0
H2545 H 0.48783 0.45961 0.8504 0.0
H2546 H 0.49244 0.4575 0.86936 0.0
H2547 H 0.49988 0.4723 0.85895 0.0
C2548 C 0.49351 0.4647 0.91309 0.0
C2549 C 0.508 0.46933 0.91137 0.0
C2550 C 0.48298 0.46848 0.9028 0.0
C2551 C 0.48678 0.47691 0.89061 0.0
C2552 C 0.50109 0.48202 0.88917 0.0
H2553 H 0.44325 0.50531 0.81224 0.0
H2554 H 0.4602 0.50102 0.83223 0.0
C2555 C 0.5116 0.47825 0.89942 0.0
C2556 C 0.47591 0.48003 0.87916 0.0
H2557 H 0.46842 0.47458 0.84329 0.0
C2558 C 0.46377 0.48828 0.88263 0.0
C2559 C 0.47755 0.47492 0.86484 0.0
C2560 C 0.49005 0.46548 0.86064 0.0
C2561 C 0.45338 0.49187 0.87204 0.0
C2562 C 0.45507 0.48683 0.85769 0.0
C2563 C 0.46717 0.47849 0.85428 0.0
C2564 C 0.44448 0.49004 0.84598 0.0
C2565 C 0.44088 0.5013 0.87621 0.0
C2566 C 0.43002 0.48526 0.84705 0.0
C2567 C 0.4203 0.48766 0.83561 0.0
C2568 C 0.42491 0.49478 0.82283 0.0
C2569 C 0.43939 0.49964 0.82185 0.0
C2570 C 0.44908 0.49726 0.8333 0.0
H2571 H 0.44316 0.50729 0.88637 0.0
H2572 H 0.43839 0.50919 0.86742 0.0
H2573 H 0.43109 0.49446 0.87806 0.0
H2574 H 0.42633 0.47937 0.85659 0.0
H2575 H 0.40929 0.4836 0.83662 0.0
H2576 H 0.72322 0.74118 0.17617 0.0
H2577 H 0.7308 0.72284 0.15878 0.0
H2578 H 0.71983 0.75131 0.12323 0.0
H2579 H 0.71238 0.76966 0.14045 0.0
H2580 H 0.71258 0.71053 0.13577 0.0
H2581 H 0.76202 0.73816 0.11454 0.0
H2582 H 0.75388 0.74267 0.13172 0.0
H2583 H 0.74613 0.74917 0.11501 0.0
C2584 C 0.72257 0.74356 0.16465 0.0
C2585 C 0.71718 0.75684 0.15967 0.0
C2586 C 0.72685 0.73307 0.15475 0.0
C2587 C 0.72601 0.7358 0.13975 0.0
C2588 C 0.72073 0.74907 0.13477 0.0
H2589 H 0.73888 0.69401 0.05835 0.0
H2590 H 0.7349 0.71032 0.07859 0.0
C2591 C 0.71635 0.75949 0.14462 0.0
C2592 C 0.73009 0.72465 0.12917 0.0
H2593 H 0.75307 0.71822 0.101 0.0
C2594 C 0.72154 0.71208 0.12827 0.0
C2595 C 0.74175 0.72678 0.1194 0.0
C2596 C 0.75158 0.73986 0.12024 0.0
C2597 C 0.72396 0.70184 0.11743 0.0
C2598 C 0.73546 0.70411 0.10745 0.0
C2599 C 0.74424 0.71651 0.10862 0.0
C2600 C 0.73817 0.6941 0.0953 0.0
C2601 C 0.71381 0.68902 0.11638 0.0
C2602 C 0.74152 0.67959 0.09797 0.0
C2603 C 0.74378 0.67022 0.0864 0.0
C2604 C 0.7429 0.67523 0.07195 0.0
C2605 C 0.73979 0.68984 0.06934 0.0
C2606 C 0.73746 0.69916 0.0809 0.0
H2607 H 0.70359 0.69068 0.12249 0.0
H2608 H 0.71104 0.68674 0.10488 0.0
H2609 H 0.71918 0.67938 0.12104 0.0
H2610 H 0.74246 0.67553 0.10899 0.0
H2611 H 0.74638 0.65909 0.08876 0.0
H2612 H 0.01836 0.01614 0.11044 0.0
H2613 H 0.99919 0.0115 0.12824 0.0
H2614 H 0.97298 0.04426 0.10798 0.0
H2615 H 0.99233 0.04938 0.0905 0.0
H2616 H 0.97478 0.04752 0.13715 0.0
H2617 H 0.96037 0.99086 0.12476 0.0
H2618 H 0.97941 0.99347 0.12801 0.0
H2619 H 0.97103 0.00208 0.11258 0.0
C2620 C 0.0085 0.02234 0.10973 0.0
C2621 C 0.00692 0.03316 0.09904 0.0
C2622 C 0.99747 0.01954 0.11981 0.0
C2623 C 0.98456 0.02739 0.11933 0.0
C2624 C 0.98281 0.03799 0.1085 0.0
H2625 H 0.90922 0.00869 0.17439 0.0
H2626 H 0.92549 0.01237 0.15363 0.0
C2627 C 0.99385 0.04083 0.09843 0.0
C2628 C 0.97336 0.02529 0.13075 0.0
H2629 H 0.9519 0.99986 0.14747 0.0
C2630 C 0.96968 0.03712 0.13932 0.0
C2631 C 0.96657 0.01177 0.13347 0.0
C2632 C 0.96942 0.99885 0.12413 0.0
C2633 C 0.95974 0.03572 0.15079 0.0
C2634 C 0.95352 0.02204 0.15397 0.0
C2635 C 0.95683 0.0103 0.14513 0.0
C2636 C 0.9437 0.01969 0.16656 0.0
C2637 C 0.95594 0.04894 0.15934 0.0
C2638 C 0.94862 0.02237 0.18073 0.0
C2639 C 0.93937 0.02027 0.19259 0.0
C2640 C 0.92504 0.01532 0.19055 0.0
C2641 C 0.92022 0.01241 0.17635 0.0
C2642 C 0.92948 0.01455 0.16448 0.0
H2643 H 0.95825 0.059 0.15307 0.0
H2644 H 0.94431 0.04877 0.16247 0.0
H2645 H 0.96256 0.04922 0.16941 0.0
H2646 H 0.95966 0.02599 0.18262 0.0
H2647 H 0.94352 0.02233 0.2034 0.0
H2648 H 0.29684 0.73473 0.14053 0.0
H2649 H 0.28947 0.75286 0.12261 0.0
H2650 H 0.27277 0.77926 0.15685 0.0
H2651 H 0.28031 0.76121 0.17495 0.0
H2652 H 0.2603 0.76412 0.11817 0.0
H2653 H 0.30107 0.80622 0.13308 0.0
H2654 H 0.3031 0.7875 0.1382 0.0
H2655 H 0.29034 0.79848 0.14756 0.0
C2656 C 0.29172 0.74446 0.14428 0.0
C2657 C 0.28927 0.7466 0.15917 0.0
C2658 C 0.28744 0.75475 0.13402 0.0
C2659 C 0.28072 0.76744 0.13843 0.0
C2660 C 0.27809 0.76959 0.15326 0.0
H2661 H 0.25604 0.84202 0.08517 0.0
H2662 H 0.26019 0.82549 0.10565 0.0
C2663 C 0.28231 0.75924 0.16356 0.0
C2664 C 0.27642 0.7783 0.12738 0.0
H2665 H 0.28502 0.81177 0.11398 0.0
C2666 C 0.26564 0.77457 0.11728 0.0
C2667 C 0.28335 0.79194 0.12633 0.0
C2668 C 0.29518 0.79633 0.13678 0.0
C2669 C 0.26168 0.78409 0.10604 0.0
C2670 C 0.26896 0.79755 0.10467 0.0
C2671 C 0.27949 0.80143 0.11501 0.0
C2672 C 0.26623 0.80751 0.09226 0.0
C2673 C 0.24965 0.77966 0.09582 0.0
C2674 C 0.26846 0.80297 0.07795 0.0
C2675 C 0.2661 0.81236 0.06625 0.0
C2676 C 0.26161 0.82657 0.06862 0.0
C2677 C 0.25958 0.83117 0.08298 0.0
C2678 C 0.26189 0.82173 0.09469 0.0
H2679 H 0.24233 0.77146 0.10089 0.0
H2680 H 0.2431 0.78907 0.0924 0.0
H2681 H 0.25444 0.77483 0.08598 0.0
H2682 H 0.27222 0.79218 0.07583 0.0
H2683 H 0.26805 0.80857 0.05535 0.0
H2684 H 0.03196 0.47257 0.07136 0.0
H2685 H 0.04466 0.47418 0.09463 0.0
H2686 H 0.00837 0.49643 0.11296 0.0
H2687 H 0.99571 0.4953 0.08959 0.0
H2688 H 0.05024 0.50255 0.10982 0.0
H2689 H 0.01877 0.46186 0.14207 0.0
H2690 H 0.01962 0.46143 0.12246 0.0
H2691 H 0.00878 0.47465 0.13126 0.0
C2692 C 0.02667 0.47787 0.0803 0.0
C2693 C 0.01282 0.48389 0.07854 0.0
C2694 C 0.03391 0.47868 0.09361 0.0
C2695 C 0.0274 0.48534 0.10549 0.0
C2696 C 0.01349 0.49109 0.10393 0.0
H2697 H 0.05657 0.49993 0.19423 0.0
H2698 H 0.04233 0.49755 0.17187 0.0
C2699 C 0.00625 0.49038 0.09058 0.0
C2700 C 0.03553 0.48693 0.11926 0.0
H2701 H 0.03715 0.47479 0.15435 0.0
C2702 C 0.04742 0.49648 0.11957 0.0
C2703 C 0.03168 0.4791 0.13194 0.0
C2704 C 0.01907 0.4686 0.13202 0.0
C2705 C 0.05556 0.4985 0.1323 0.0
C2706 C 0.05196 0.4904 0.14494 0.0
C2707 C 0.03994 0.48094 0.14465 0.0
C2708 C 0.06056 0.49155 0.15855 0.0
C2709 C 0.06773 0.50953 0.13214 0.0
C2710 C 0.07548 0.4887 0.15856 0.0
C2711 C 0.08364 0.49015 0.17128 0.0
C2712 C 0.07699 0.49424 0.18431 0.0
C2713 C 0.06198 0.4967 0.18437 0.0
C2714 C 0.05384 0.49538 0.1716 0.0
H2715 H 0.06623 0.51769 0.12336 0.0
H2716 H 0.06854 0.51519 0.14268 0.0
H2717 H 0.07814 0.50403 0.13013 0.0
H2718 H 0.08083 0.48532 0.14873 0.0
H2719 H 0.09514 0.48792 0.17096 0.0
H2720 H 0.3542 0.73739 0.23919 0.0
H2721 H 0.37243 0.7441 0.25732 0.0
H2722 H 0.3583 0.70879 0.28484 0.0
H2723 H 0.33974 0.70223 0.26696 0.0
H2724 H 0.36398 0.73479 0.29995 0.0
H2725 H 0.40931 0.7201 0.26347 0.0
H2726 H 0.39684 0.73292 0.25597 0.0
H2727 H 0.39074 0.71484 0.25994 0.0
C2728 C 0.35478 0.7312 0.24921 0.0
C2729 C 0.34558 0.71919 0.25157 0.0
C2730 C 0.36531 0.73497 0.25949 0.0
C2731 C 0.36687 0.72678 0.27229 0.0
C2732 C 0.35733 0.71517 0.27497 0.0
H2733 H 0.44135 0.71995 0.3287 0.0
H2734 H 0.42097 0.71607 0.31214 0.0
C2735 C 0.34681 0.71139 0.2647 0.0
C2736 C 0.37878 0.72997 0.28266 0.0
H2737 H 0.41567 0.73044 0.28597 0.0
C2738 C 0.37529 0.73389 0.29691 0.0
C2739 C 0.39351 0.72858 0.27869 0.0
C2740 C 0.39789 0.72376 0.26373 0.0
C2741 C 0.38617 0.73655 0.30729 0.0
C2742 C 0.4009 0.73539 0.30324 0.0
C2743 C 0.40437 0.73142 0.28901 0.0
C2744 C 0.41292 0.7378 0.31369 0.0
C2745 C 0.38181 0.74022 0.32259 0.0
C2746 C 0.4152 0.75134 0.32001 0.0
C2747 C 0.42681 0.75358 0.32957 0.0
C2748 C 0.43639 0.74232 0.33294 0.0
C2749 C 0.43406 0.72879 0.32654 0.0
C2750 C 0.42247 0.72657 0.31699 0.0
H2751 H 0.37027 0.7374 0.32477 0.0
H2752 H 0.38871 0.73451 0.33064 0.0
H2753 H 0.38327 0.75198 0.32422 0.0
H2754 H 0.4081 0.76022 0.31743 0.0
H2755 H 0.42824 0.7641 0.33438 0.0
H2756 H 0.96525 0.41705 0.00278 0.0
H2757 H 0.96677 0.39343 0.99113 0.0
H2758 H 0.00311 0.40871 0.96564 0.0
H2759 H 0.0018 0.4322 0.97732 0.0
H2760 H 0.96523 0.38794 0.95998 0.0
H2761 H 0.01716 0.37044 0.98471 0.0
H2762 H 0.0063 0.38457 0.9923 0.0
H2763 H 0.01758 0.38821 0.97676 0.0
C2764 C 0.97365 0.41531 0.9948 0.0
C2765 C 0.9834 0.42648 0.99096 0.0
C2766 C 0.97446 0.40186 0.98812 0.0
C2767 C 0.98515 0.3993 0.97766 0.0
C2768 C 0.9949 0.41041 0.97383 0.0
H2769 H 0.01224 0.33191 0.92089 0.0
H2770 H 0.00912 0.35362 0.93526 0.0
C2771 C 0.99404 0.42386 0.98041 0.0
C2772 C 0.98594 0.38518 0.97036 0.0
H2773 H 0.00829 0.3567 0.96486 0.0
C2774 C 0.97455 0.38101 0.96114 0.0
C2775 C 0.99815 0.37623 0.97189 0.0
C2776 C 0.01046 0.37998 0.98204 0.0
C2777 C 0.97529 0.36833 0.95296 0.0
C2778 C 0.98762 0.35947 0.95432 0.0
C2779 C 0.99886 0.36352 0.9638 0.0
C2780 C 0.98932 0.3462 0.94565 0.0
C2781 C 0.96313 0.36487 0.94253 0.0
C2782 C 0.97931 0.33473 0.94682 0.0
C2783 C 0.98096 0.32235 0.93846 0.0
C2784 C 0.99274 0.32114 0.92886 0.0
C2785 C 0.00289 0.33257 0.92794 0.0
C2786 C 0.00119 0.34495 0.93625 0.0
H2787 H 0.95641 0.37446 0.94009 0.0
H2788 H 0.96742 0.36067 0.93216 0.0
H2789 H 0.95596 0.35646 0.94744 0.0
H2790 H 0.97023 0.33534 0.95421 0.0
H2791 H 0.97289 0.31382 0.93939 0.0
H2792 H 0.6642 0.80574 0.26396 0.0
H2793 H 0.64592 0.79973 0.28233 0.0
H2794 H 0.63467 0.76097 0.25928 0.0
H2795 H 0.65272 0.76702 0.24066 0.0
H2796 H 0.61548 0.79567 0.27574 0.0
H2797 H 0.63966 0.74754 0.30238 0.0
H2798 H 0.65029 0.76036 0.29186 0.0
H2799 H 0.63894 0.74738 0.28286 0.0
C2800 C 0.65786 0.79592 0.26279 0.0
C2801 C 0.65989 0.78691 0.25077 0.0
C2802 C 0.64748 0.79247 0.27334 0.0
C2803 C 0.63904 0.77986 0.27221 0.0
C2804 C 0.64126 0.77063 0.26047 0.0
H2805 H 0.56675 0.74405 0.32181 0.0
H2806 H 0.58662 0.7484 0.30469 0.0
C2807 C 0.65161 0.7741 0.24986 0.0
C2808 C 0.62721 0.77693 0.28275 0.0
H2809 H 0.61574 0.75345 0.30925 0.0
C2810 C 0.61555 0.78648 0.28313 0.0
C2811 C 0.62731 0.76487 0.29225 0.0
C2812 C 0.63975 0.75447 0.29246 0.0
C2813 C 0.60385 0.7842 0.29263 0.0
C2814 C 0.604 0.77224 0.3023 0.0
C2815 C 0.61566 0.76264 0.30187 0.0
C2816 C 0.59215 0.76952 0.31291 0.0
C2817 C 0.59126 0.79444 0.29196 0.0
C2818 C 0.5888 0.77985 0.32338 0.0
C2819 C 0.57733 0.77749 0.33304 0.0
C2820 C 0.56905 0.76466 0.33258 0.0
C2821 C 0.5727 0.75417 0.32231 0.0
C2822 C 0.58414 0.75658 0.31259 0.0
H2823 H 0.59087 0.80036 0.28141 0.0
H2824 H 0.58078 0.78863 0.29356 0.0
H2825 H 0.59248 0.80252 0.3007 0.0
H2826 H 0.59503 0.7898 0.32402 0.0
H2827 H 0.57479 0.78587 0.3407 0.0
H2828 H 0.01897 0.10418 0.02396 0.0
H2829 H 0.01367 0.12244 0.00546 0.0
H2830 H 0.04753 0.1058 0.97833 0.0
H2831 H 0.05327 0.08782 0.99702 0.0
H2832 H 0.0494 0.13499 0.98122 0.0
H2833 H 0.99323 0.11905 0.96649 0.0
H2834 H 0.99565 0.12152 0.98565 0.0
H2835 H 0.00513 0.10734 0.97664 0.0
C2836 C 0.02528 0.10437 0.01405 0.0
C2837 C 0.03657 0.09454 0.012 0.0
C2838 C 0.02211 0.11472 0.0034 0.0
C2839 C 0.03006 0.11536 0.99042 0.0
C2840 C 0.04118 0.10542 0.98822 0.0
H2841 H 0.00917 0.17141 0.91655 0.0
H2842 H 0.01379 0.15056 0.93234 0.0
C2843 C 0.04438 0.09508 0.99888 0.0
C2844 C 0.02743 0.12701 0.97959 0.0
H2845 H 0.00116 0.1425 0.95863 0.0
C2846 C 0.03889 0.13656 0.97618 0.0
C2847 C 0.01376 0.12895 0.97289 0.0
C2848 C 0.00127 0.11859 0.97548 0.0
C2849 C 0.03693 0.14823 0.96659 0.0
C2850 C 0.02308 0.15058 0.96045 0.0
C2851 C 0.01173 0.14079 0.96349 0.0
C2852 C 0.02012 0.16323 0.95095 0.0
C2853 C 0.04976 0.15789 0.96305 0.0
C2854 C 0.02192 0.17726 0.95625 0.0
C2855 C 0.01926 0.18919 0.94728 0.0
C2856 C 0.01463 0.18732 0.93284 0.0
C2857 C 0.0126 0.17323 0.92764 0.0
C2858 C 0.0153 0.1613 0.93663 0.0
H2859 H 0.0602 0.15242 0.96526 0.0
H2860 H 0.04956 0.16141 0.95149 0.0
H2861 H 0.04937 0.16763 0.96993 0.0
H2862 H 0.02529 0.179 0.96738 0.0
H2863 H 0.02066 0.19988 0.95171 0.0
H2864 H 0.3389 0.30643 0.24132 0.0
H2865 H 0.35752 0.29879 0.22428 0.0
H2866 H 0.3625 0.25912 0.24848 0.0
H2867 H 0.34423 0.26688 0.26587 0.0
H2868 H 0.38845 0.2728 0.24299 0.0
H2869 H 0.35622 0.26878 0.19229 0.0
H2870 H 0.35451 0.28585 0.2011 0.0
H2871 H 0.34794 0.26972 0.21002 0.0
C2872 C 0.34392 0.29605 0.243 0.0
C2873 C 0.34008 0.28728 0.25498 0.0
C2874 C 0.35444 0.29163 0.23314 0.0
C2875 C 0.36127 0.2783 0.23499 0.0
C2876 C 0.35729 0.2694 0.24679 0.0
H2877 H 0.42146 0.24125 0.17268 0.0
H2878 H 0.40088 0.24545 0.18882 0.0
C2879 C 0.34677 0.27382 0.25666 0.0
C2880 C 0.37326 0.27411 0.22523 0.0
H2881 H 0.38202 0.26885 0.18965 0.0
C2882 C 0.38701 0.27182 0.23134 0.0
C2883 C 0.37134 0.27267 0.21006 0.0
C2884 C 0.35667 0.27424 0.20298 0.0
C2885 C 0.39899 0.26854 0.22264 0.0
C2886 C 0.39722 0.26777 0.2074 0.0
C2887 C 0.38338 0.26962 0.20132 0.0
C2888 C 0.40966 0.26526 0.19759 0.0
C2889 C 0.41343 0.26586 0.22987 0.0
C2890 C 0.42132 0.2751 0.19704 0.0
C2891 C 0.43313 0.27269 0.18792 0.0
C2892 C 0.43347 0.26042 0.17908 0.0
C2893 C 0.42165 0.25068 0.17951 0.0
C2894 C 0.40983 0.25311 0.18864 0.0
H2895 H 0.41212 0.26291 0.24153 0.0
H2896 H 0.41935 0.25712 0.22437 0.0
H2897 H 0.42016 0.27583 0.22923 0.0
H2898 H 0.4213 0.28467 0.20367 0.0
H2899 H 0.44209 0.28034 0.18796 0.0
H2900 H 0.51097 0.4075 0.99685 0.0
H2901 H 0.50477 0.38869 0.01471 0.0
H2902 H 0.54946 0.38699 0.02832 0.0
H2903 H 0.55589 0.40541 0.01025 0.0
H2904 H 0.51829 0.36004 0.01572 0.0
H2905 H 0.52535 0.39087 0.06675 0.0
H2906 H 0.52232 0.39951 0.04934 0.0
H2907 H 0.53986 0.39254 0.05379 0.0
C2908 C 0.51951 0.40313 0.00361 0.0
C2909 C 0.53395 0.40802 0.00207 0.0
C2910 C 0.51591 0.39244 0.01387 0.0
C2911 C 0.52663 0.38658 0.02291 0.0
C2912 C 0.54098 0.39157 0.02161 0.0
H2913 H 0.53215 0.31955 0.08843 0.0
H2914 H 0.53609 0.33999 0.07182 0.0
C2915 C 0.54462 0.40217 0.0113 0.0
C2916 C 0.52302 0.37465 0.03313 0.0
H2917 H 0.52208 0.36558 0.06915 0.0
C2918 C 0.51899 0.36124 0.02742 0.0
C2919 C 0.52407 0.37629 0.04834 0.0
C2920 C 0.52803 0.39059 0.05499 0.0
C2921 C 0.51634 0.34926 0.03651 0.0
C2922 C 0.51738 0.35087 0.05177 0.0
C2923 C 0.52127 0.36436 0.05747 0.0
C2924 C 0.51479 0.33861 0.06198 0.0
C2925 C 0.51296 0.33489 0.02967 0.0
C2926 C 0.50143 0.33118 0.06213 0.0
C2927 C 0.49919 0.31946 0.07156 0.0
C2928 C 0.51018 0.31507 0.08118 0.0
C2929 C 0.52343 0.32274 0.08123 0.0
C2930 C 0.52571 0.33439 0.07172 0.0
H2931 H 0.5165 0.33462 0.01814 0.0
H2932 H 0.51829 0.32597 0.03569 0.0
H2933 H 0.50107 0.33293 0.02991 0.0
H2934 H 0.49271 0.33448 0.05499 0.0
H2935 H 0.48878 0.31392 0.07145 0.0
H2936 H 0.66347 0.21013 0.25288 0.0
H2937 H 0.6407 0.21103 0.23904 0.0
H2938 H 0.65197 0.25368 0.22349 0.0
H2939 H 0.67474 0.25284 0.23711 0.0
H2940 H 0.61775 0.23364 0.2405 0.0
H2941 H 0.64369 0.2287 0.18633 0.0
H2942 H 0.65259 0.22329 0.20299 0.0
H2943 H 0.65151 0.24204 0.19813 0.0
C2944 C 0.6611 0.21968 0.24648 0.0
C2945 C 0.6709 0.23141 0.24609 0.0
C2946 C 0.64808 0.22019 0.23865 0.0
C2947 C 0.64475 0.23236 0.23017 0.0
C2948 C 0.65442 0.24415 0.22989 0.0
H2949 H 0.57784 0.25871 0.17038 0.0
H2950 H 0.5994 0.2562 0.18565 0.0
C2951 C 0.66736 0.24369 0.23778 0.0
C2952 C 0.63123 0.23281 0.22149 0.0
H2953 H 0.61871 0.23425 0.1866 0.0
C2954 C 0.6179 0.23367 0.22871 0.0
C2955 C 0.63154 0.23288 0.20614 0.0
C2956 C 0.64557 0.23157 0.19788 0.0
C2957 C 0.60483 0.23504 0.22096 0.0
C2958 C 0.60513 0.23522 0.20557 0.0
C2959 C 0.61849 0.23415 0.19838 0.0
C2960 C 0.5918 0.23682 0.19666 0.0
C2961 C 0.59091 0.23678 0.22931 0.0
C2962 C 0.58037 0.22672 0.1977 0.0
C2963 C 0.56801 0.22815 0.18899 0.0
C2964 C 0.56692 0.23962 0.17894 0.0
C2965 C 0.57841 0.24968 0.17789 0.0
C2966 C 0.59072 0.24828 0.18666 0.0
H2967 H 0.59297 0.24029 0.24064 0.0
H2968 H 0.58375 0.24476 0.22391 0.0
H2969 H 0.58504 0.22628 0.22979 0.0
H2970 H 0.58111 0.21759 0.20508 0.0
H2971 H 0.55944 0.22011 0.1899 0.0
H2972 H 0.48711 0.06933 0.03725 0.0
H2973 H 0.48832 0.09209 0.05031 0.0
H2974 H 0.4804 0.11542 0.01041 0.0
H2975 H 0.47955 0.09269 0.9971 0.0
H2976 H 0.50828 0.11651 0.04318 0.0
H2977 H 0.44973 0.13035 0.04069 0.0
H2978 H 0.45603 0.11215 0.03841 0.0
H2979 H 0.45832 0.12516 0.02402 0.0
C2980 C 0.48575 0.07928 0.03119 0.0
C2981 C 0.48331 0.07915 0.01608 0.0
C2982 C 0.48634 0.09227 0.0387 0.0
C2983 C 0.48435 0.10539 0.03134 0.0
C2984 C 0.48177 0.10536 0.01631 0.0
H2985 H 0.48263 0.19346 0.0638 0.0
H2986 H 0.48092 0.17194 0.04866 0.0
C2987 C 0.48126 0.09236 0.00874 0.0
C2988 C 0.48543 0.11909 0.03939 0.0
H2989 H 0.46544 0.147 0.05205 0.0
C2990 C 0.49894 0.12321 0.04512 0.0
C2991 C 0.47323 0.12782 0.04177 0.0
C2992 C 0.45845 0.12368 0.036 0.0
C2993 C 0.50059 0.13587 0.05319 0.0
C2994 C 0.48831 0.14443 0.05594 0.0
C2995 C 0.47483 0.14041 0.04999 0.0
C2996 C 0.48918 0.15743 0.06519 0.0
C2997 C 0.51555 0.14007 0.05847 0.0
C2998 C 0.49411 0.15639 0.0796 0.0
C2999 C 0.49516 0.16865 0.08823 0.0
C3000 C 0.49108 0.18219 0.0827 0.0
C3001 C 0.48578 0.18316 0.06839 0.0
C3002 C 0.48485 0.17089 0.05972 0.0
H3003 H 0.52415 0.13506 0.05182 0.0
H3004 H 0.51717 0.15194 0.05819 0.0
H3005 H 0.51692 0.13624 0.06984 0.0
H3006 H 0.49711 0.14605 0.0842 0.0
H3007 H 0.49901 0.16751 0.0993 0.0
H3008 H 0.26387 0.32989 0.72587 0.0
H3009 H 0.28156 0.34852 0.733 0.0
H3010 H 0.25156 0.38156 0.72007 0.0
H3011 H 0.2338 0.36311 0.71316 0.0
H3012 H 0.29347 0.37131 0.7147 0.0
H3013 H 0.26354 0.39241 0.76203 0.0
H3014 H 0.25961 0.37499 0.75429 0.0
H3015 H 0.25296 0.39109 0.74568 0.0
C3016 C 0.26101 0.34113 0.72468 0.0
C3017 C 0.24744 0.34503 0.71894 0.0
C3018 C 0.27113 0.35174 0.72869 0.0
C3019 C 0.26778 0.36639 0.72722 0.0
C3020 C 0.25428 0.3703 0.72148 0.0
H3021 H 0.30765 0.44953 0.73906 0.0
H3022 H 0.29178 0.42873 0.73466 0.0
C3023 C 0.2442 0.35974 0.7174 0.0
C3024 C 0.27849 0.37769 0.73125 0.0
H3025 H 0.28343 0.40663 0.75338 0.0
C3026 C 0.29139 0.37895 0.72326 0.0
C3027 C 0.27569 0.38763 0.74241 0.0
C3028 C 0.26226 0.38644 0.7517 0.0
C3029 C 0.30134 0.39025 0.72575 0.0
C3030 C 0.2984 0.40037 0.73673 0.0
C3031 C 0.28564 0.3989 0.74494 0.0
C3032 C 0.30815 0.41288 0.73956 0.0
C3033 C 0.3146 0.39159 0.71622 0.0
C3034 C 0.32258 0.41088 0.74395 0.0
C3035 C 0.33168 0.42276 0.74648 0.0
C3036 C 0.32648 0.43688 0.7448 0.0
C3037 C 0.31196 0.43882 0.7406 0.0
C3038 C 0.30289 0.42694 0.73803 0.0
H3039 H 0.31345 0.38516 0.70616 0.0
H3040 H 0.31676 0.40301 0.71312 0.0
H3041 H 0.32416 0.38755 0.72229 0.0
H3042 H 0.32677 0.40012 0.74553 0.0
H3043 H 0.34274 0.4209 0.74993 0.0
H3044 H 0.25578 0.66764 0.79377 0.0
H3045 H 0.26924 0.64503 0.79297 0.0
H3046 H 0.28504 0.65638 0.75024 0.0
H3047 H 0.27166 0.67891 0.75095 0.0
H3048 H 0.26764 0.62231 0.77334 0.0
H3049 H 0.32231 0.64783 0.77247 0.0
H3050 H 0.30621 0.65761 0.77713 0.0
H3051 H 0.31055 0.6544 0.75841 0.0
C3052 C 0.26206 0.66527 0.78418 0.0
C3053 C 0.26278 0.67515 0.77249 0.0
C3054 C 0.26979 0.65239 0.78376 0.0
C3055 C 0.27838 0.64916 0.77167 0.0
C3056 C 0.2788 0.65882 0.75984 0.0
H3057 H 0.33206 0.57934 0.74335 0.0
H3058 H 0.31758 0.6011 0.74582 0.0
C3059 C 0.27114 0.6717 0.76027 0.0
C3060 C 0.2868 0.63565 0.77128 0.0
H3061 H 0.32109 0.62278 0.76717 0.0
C3062 C 0.27933 0.62239 0.77212 0.0
C3063 C 0.30207 0.63579 0.76972 0.0
C3064 C 0.31079 0.64967 0.76952 0.0
C3065 C 0.28668 0.60927 0.77097 0.0
C3066 C 0.30191 0.60945 0.76913 0.0
C3067 C 0.3094 0.62269 0.7685 0.0
C3068 C 0.31031 0.59602 0.76763 0.0
C3069 C 0.27807 0.59535 0.77131 0.0
C3070 C 0.31109 0.586 0.77912 0.0
C3071 C 0.31932 0.57352 0.77773 0.0
C3072 C 0.32695 0.57085 0.76482 0.0
C3073 C 0.32615 0.58095 0.75335 0.0
C3074 C 0.31796 0.59344 0.75477 0.0
H3075 H 0.26631 0.59716 0.76952 0.0
H3076 H 0.28202 0.58784 0.76293 0.0
H3077 H 0.27941 0.59007 0.7821 0.0
H3078 H 0.30545 0.5879 0.78922 0.0
H3079 H 0.31964 0.56592 0.78673 0.0
H3080 H 0.91064 0.50719 0.49444 0.0
H3081 H 0.88777 0.49352 0.49558 0.0
H3082 H 0.90658 0.45988 0.47004 0.0
H3083 H 0.92937 0.47356 0.46858 0.0
H3084 H 0.86968 0.48208 0.47187 0.0
H3085 H 0.89214 0.43962 0.50824 0.0
H3086 H 0.90082 0.45703 0.50577 0.0
H3087 H 0.90245 0.4435 0.49208 0.0
C3088 C 0.90986 0.49699 0.48888 0.0
C3089 C 0.9219 0.49142 0.48152 0.0
C3090 C 0.89681 0.48917 0.48961 0.0
C3091 C 0.89559 0.47562 0.48308 0.0
C3092 C 0.90741 0.47021 0.47537 0.0
H3093 H 0.83041 0.40771 0.48121 0.0
H3094 H 0.85208 0.42291 0.47821 0.0
C3095 C 0.92043 0.47803 0.47459 0.0
C3096 C 0.88205 0.46697 0.48455 0.0
H3097 H 0.86842 0.43571 0.49921 0.0
C3098 C 0.86935 0.47197 0.47789 0.0
C3099 C 0.88171 0.45378 0.49239 0.0
C3100 C 0.89496 0.44817 0.50015 0.0
C3101 C 0.85634 0.46394 0.47859 0.0
C3102 C 0.85599 0.45073 0.48644 0.0
C3103 C 0.86871 0.44581 0.49316 0.0
C3104 C 0.8426 0.44178 0.48782 0.0
C3105 C 0.84321 0.46948 0.47059 0.0
C3106 C 0.8301 0.4473 0.49431 0.0
C3107 C 0.81769 0.43863 0.49602 0.0
C3108 C 0.81761 0.42421 0.49144 0.0
C3109 C 0.83017 0.41872 0.48498 0.0
C3110 C 0.84253 0.42741 0.48321 0.0
H3111 H 0.84627 0.47739 0.46195 0.0
H3112 H 0.83696 0.46052 0.46557 0.0
H3113 H 0.83602 0.47498 0.47837 0.0
H3114 H 0.83001 0.45823 0.4983 0.0
H3115 H 0.80827 0.44311 0.50124 0.0
H3116 H 0.73763 0.84142 0.80812 0.0
H3117 H 0.71977 0.85984 0.80215 0.0
H3118 H 0.74142 0.86845 0.76145 0.0
H3119 H 0.75949 0.85022 0.76741 0.0
H3120 H 0.72689 0.8894 0.79665 0.0
H3121 H 0.69809 0.86449 0.74997 0.0
H3122 H 0.70889 0.85415 0.76262 0.0
H3123 H 0.71755 0.86491 0.74873 0.0
C3124 C 0.73859 0.84719 0.79787 0.0
C3125 C 0.75005 0.84436 0.78827 0.0
C3126 C 0.72832 0.85766 0.79445 0.0
C3127 C 0.7292 0.86542 0.78132 0.0
C3128 C 0.74039 0.8624 0.77153 0.0
H3129 H 0.68202 0.93774 0.74461 0.0
H3130 H 0.69837 0.91759 0.74912 0.0
C3131 C 0.7507 0.85195 0.77496 0.0
C3132 C 0.71903 0.87735 0.77835 0.0
H3133 H 0.69253 0.88879 0.75512 0.0
C3134 C 0.71931 0.88925 0.78762 0.0
C3135 C 0.70927 0.87715 0.76648 0.0
C3136 C 0.70829 0.86445 0.75642 0.0
C3137 C 0.71023 0.90107 0.78525 0.0
C3138 C 0.70034 0.90083 0.77348 0.0
C3139 C 0.70009 0.88894 0.76416 0.0
C3140 C 0.69019 0.91284 0.77067 0.0
C3141 C 0.71158 0.91386 0.79518 0.0
C3142 C 0.68 0.91671 0.7812 0.0
C3143 C 0.67076 0.92832 0.77874 0.0
C3144 C 0.6714 0.93622 0.76561 0.0
C3145 C 0.6814 0.93207 0.75494 0.0
C3146 C 0.69067 0.92048 0.75744 0.0
H3147 H 0.72219 0.91409 0.80092 0.0
H3148 H 0.71036 0.92414 0.78903 0.0
H3149 H 0.70291 0.9132 0.80351 0.0
H3150 H 0.67924 0.91079 0.79138 0.0
H3151 H 0.6633 0.93126 0.78725 0.0
H3152 H 0.58964 0.49595 0.99255 0.0
H3153 H 0.60696 0.51501 0.99934 0.0
H3154 H 0.61882 0.5208 0.95434 0.0
H3155 H 0.60142 0.50198 0.94746 0.0
H3156 H 0.63738 0.51441 0.9936 0.0
H3157 H 0.61162 0.56223 0.96831 0.0
H3158 H 0.60179 0.54563 0.97194 0.0
H3159 H 0.61343 0.54719 0.95635 0.0
C3160 C 0.59575 0.50148 0.98408 0.0
C3161 C 0.59418 0.49746 0.96947 0.0
C3162 C 0.60568 0.5123 0.98798 0.0
C3163 C 0.61405 0.51941 0.97732 0.0
C3164 C 0.61231 0.5156 0.96271 0.0
H3165 H 0.68526 0.57957 0.97109 0.0
H3166 H 0.66471 0.56315 0.96741 0.0
C3167 C 0.60246 0.50475 0.95882 0.0
C3168 C 0.62528 0.53016 0.98147 0.0
H3169 H 0.63625 0.56504 0.97581 0.0
C3170 C 0.63708 0.52554 0.98988 0.0
C3171 C 0.62485 0.54462 0.97652 0.0
C3172 C 0.61218 0.55029 0.96789 0.0
C3173 C 0.64876 0.53485 0.99302 0.0
C3174 C 0.64845 0.54928 0.98787 0.0
C3175 C 0.63648 0.55398 0.97973 0.0
C3176 C 0.66071 0.55949 0.99031 0.0
C3177 C 0.66158 0.52897 0.00129 0.0
C3178 C 0.66516 0.56307 0.00442 0.0
C3179 C 0.67706 0.57231 0.00658 0.0
C3180 C 0.68465 0.57827 0.99465 0.0
C3181 C 0.67988 0.57495 0.98053 0.0
C3182 C 0.66804 0.56567 0.97839 0.0
H3183 H 0.66174 0.517 0.00121 0.0
H3184 H 0.67195 0.53313 0.99666 0.0
H3185 H 0.66095 0.53243 0.01277 0.0
H3186 H 0.65948 0.55867 0.01378 0.0
H3187 H 0.68046 0.57453 0.0176 0.0
H3188 H 0.26672 0.64135 0.20207 0.0
H3189 H 0.24864 0.62289 0.20835 0.0
H3190 H 0.22975 0.65137 0.23962 0.0
H3191 H 0.24759 0.67013 0.23308 0.0
H3192 H 0.24375 0.61007 0.23577 0.0
H3193 H 0.19469 0.63804 0.21522 0.0
H3194 H 0.21283 0.64363 0.21017 0.0
H3195 H 0.20577 0.64809 0.2277 0.0
C3196 C 0.25859 0.64381 0.21012 0.0
C3197 C 0.25853 0.65729 0.21698 0.0
C3198 C 0.24833 0.63319 0.21378 0.0
C3199 C 0.23775 0.63581 0.22432 0.0
C3200 C 0.23768 0.6492 0.23128 0.0
H3201 H 0.16703 0.58072 0.25657 0.0
H3202 H 0.18438 0.60057 0.2527 0.0
C3203 C 0.24797 0.65986 0.22764 0.0
C3204 C 0.22707 0.62434 0.22818 0.0
H3205 H 0.19099 0.61562 0.2271 0.0
C3206 C 0.23221 0.61128 0.23389 0.0
C3207 C 0.21202 0.62598 0.22579 0.0
C3208 C 0.20594 0.63963 0.21928 0.0
C3209 C 0.22272 0.59979 0.23726 0.0
C3210 C 0.2077 0.60131 0.23457 0.0
C3211 C 0.20251 0.61447 0.22912 0.0
C3212 C 0.19725 0.58924 0.23697 0.0
C3213 C 0.22884 0.58618 0.2438 0.0
C3214 C 0.19861 0.57636 0.22926 0.0
C3215 C 0.1887 0.56502 0.2314 0.0
C3216 C 0.17714 0.56638 0.24122 0.0
C3217 C 0.17572 0.57937 0.24882 0.0
C3218 C 0.18566 0.5907 0.24668 0.0
H3219 H 0.23958 0.58817 0.24894 0.0
H3220 H 0.22138 0.58145 0.25208 0.0
H3221 H 0.2303 0.57814 0.2351 0.0
H3222 H 0.20727 0.57513 0.22145 0.0
H3223 H 0.18996 0.55529 0.22517 0.0
H3224 H 0.92844 0.52657 1.00083 0.0
H3225 H 0.90492 0.53849 1.0005 0.0
H3226 H 0.89183 0.51423 0.03856 0.0
H3227 H 0.91547 0.5023 0.03906 0.0
H3228 H 0.8758 0.52436 0.99976 0.0
H3229 H 0.88593 0.55816 0.04849 0.0
H3230 H 0.90049 0.55023 0.03833 0.0
H3231 H 0.88945 0.53917 0.05008 0.0
C3232 C 0.92059 0.52382 0.00919 0.0
C3233 C 0.92384 0.51357 0.02004 0.0
C3234 C 0.90714 0.53058 0.00893 0.0
C3235 C 0.89673 0.52733 0.01958 0.0
C3236 C 0.89981 0.51697 0.03033 0.0
H3237 H 0.8137 0.56927 0.03472 0.0
H3238 H 0.83474 0.55352 0.03666 0.0
C3239 C 0.91325 0.51011 0.03054 0.0
C3240 C 0.88268 0.53489 0.01936 0.0
H3241 H 0.86346 0.56078 0.03668 0.0
C3242 C 0.87304 0.53227 0.00786 0.0
C3243 C 0.87912 0.54512 0.03 0.0
C3244 C 0.88928 0.54847 0.04241 0.0
C3245 C 0.85991 0.53972 0.00666 0.0
C3246 C 0.85655 0.55033 0.01702 0.0
C3247 C 0.86606 0.55268 0.02872 0.0
C3248 C 0.84352 0.55949 0.01563 0.0
C3249 C 0.84973 0.53604 0.99435 0.0
C3250 C 0.84154 0.56818 0.00323 0.0
C3251 C 0.82946 0.57707 0.00202 0.0
C3252 C 0.81918 0.57761 0.01328 0.0
C3253 C 0.82127 0.56896 0.02575 0.0
C3254 C 0.83334 0.56003 0.02693 0.0
H3255 H 0.85156 0.52496 0.99034 0.0
H3256 H 0.83823 0.53691 0.99773 0.0
H3257 H 0.85169 0.54365 0.98516 0.0
H3258 H 0.84941 0.5682 0.99452 0.0
H3259 H 0.82815 0.58345 0.9922 0.0
H3260 H 0.10818 0.02063 0.02257 0.0
H3261 H 0.12594 0.00242 0.01617 0.0
H3262 H 0.10528 0.97204 0.04547 0.0
H3263 H 0.08762 0.99027 0.0522 0.0
H3264 H 0.1448 0.98855 0.03697 0.0
H3265 H 0.1102 0.94939 0.00693 0.0
H3266 H 0.10496 0.96785 0.00971 0.0
H3267 H 0.10349 0.95495 0.02431 0.0
C3268 C 0.10739 0.01008 0.02767 0.0
C3269 C 0.0965 0.00695 0.03797 0.0
C3270 C 0.1175 0.99966 0.02392 0.0
C3271 C 0.11685 0.98586 0.03026 0.0
C3272 C 0.10581 0.98256 0.04027 0.0
H3273 H 0.1722 0.9108 0.02548 0.0
H3274 H 0.15262 0.92772 0.03022 0.0
C3275 C 0.09571 0.99299 0.04408 0.0
C3276 C 0.1283 0.97528 0.0271 0.0
H3277 H 0.13439 0.94254 0.01182 0.0
C3278 C 0.14255 0.97851 0.03142 0.0
C3279 C 0.12528 0.96216 0.01998 0.0
C3280 C 0.11018 0.95835 0.01484 0.0
C3281 C 0.15389 0.96888 0.02896 0.0
C3282 C 0.15094 0.95583 0.02163 0.0
C3283 C 0.13664 0.95256 0.01738 0.0
C3284 C 0.16257 0.94545 0.0183 0.0
C3285 C 0.16884 0.97265 0.03456 0.0
C3286 C 0.17451 0.94971 0.00977 0.0
C3287 C 0.18573 0.9401 0.0071 0.0
C3288 C 0.18513 0.92596 0.01274 0.0
C3289 C 0.17294 0.92159 0.02092 0.0
C3290 C 0.16177 0.93125 0.02367 0.0
H3291 H 0.16842 0.98073 0.04336 0.0
H3292 H 0.17445 0.96293 0.03875 0.0
H3293 H 0.1754 0.97735 0.02555 0.0
H3294 H 0.17518 0.9605 0.00519 0.0
H3295 H 0.19483 0.94371 1.00053 0.0
loop_
_geom_bond_atom_site_label_1
_geom_bond_atom_site_label_2
_geom_bond_distance
_geom_bond_site_symmetry_2
_ccdc_geom_bond_type
P0 O11 1.490 . S
P0 C14 1.812 . S
P0 C20 1.803 . S
P0 C26 1.819 . S
H1 C15 0.941 . S
H2 C16 0.939 . S
H3 C18 0.940 1_655 S
H4 C19 0.940 . S
H5 C21 0.939 . S
H6 C22 0.942 . S
H7 C24 0.940 1_565 S
H8 C25 0.939 . S
H9 C27 0.941 . S
H10 C31 0.939 . S
O11 P0 1.490 . S
H12 C28 0.939 . S
H13 C30 0.940 1_556 S
C14 P0 1.812 . S
C14 C15 1.389 . S
C14 C19 1.391 . S
C15 H1 0.941 . S
C15 C14 1.389 . S
C15 C16 1.397 . S
C16 H2 0.939 . S
C16 C15 1.397 . S
C16 C17 1.378 . S
C17 C16 1.378 . S
C17 C18 1.378 . S
C18 H3 0.940 1_455 S
C18 C17 1.378 . S
C18 C19 1.396 . S
C19 H4 0.940 . S
C19 C14 1.391 . S
C19 C18 1.396 . S
C20 P0 1.803 . S
C20 C21 1.378 . S
C20 C25 1.400 . S
C21 H5 0.939 . S
C21 C20 1.378 . S
C21 C22 1.361 . S
C22 H6 0.942 . S
C22 C21 1.361 . S
C22 C23 1.369 . S
C23 C22 1.369 . S
C23 C24 1.404 . S
C24 H7 0.940 1_545 S
C24 C23 1.404 . S
C24 C25 1.389 . S
C25 H8 0.939 . S
C25 C20 1.400 . S
C25 C24 1.389 . S
C26 P0 1.819 . S
C26 C27 1.391 . S
C26 C31 1.391 . S
C27 H9 0.941 . S
C27 C26 1.391 . S
C27 C28 1.396 . S
C28 H12 0.939 . S
C28 C27 1.396 . S
C28 C29 1.397 . S
C29 C28 1.397 . S
C29 C30 1.385 . S
C30 H13 0.940 1_554 S
C30 C29 1.385 . S
C30 C31 1.388 . S
C31 H10 0.939 . S
C31 C26 1.391 . S
C31 C30 1.388 . S
P32 O43 1.490 . S
P32 C46 1.812 . S
P32 C52 1.803 . S
P32 C58 1.819 . S
H33 C47 0.941 . S
H34 C48 0.939 . S
H35 C50 0.940 . S
H36 C51 0.940 . S
H37 C53 0.939 . S
H38 C54 0.942 . S
H39 C56 0.940 . S
H40 C57 0.939 . S
H41 C59 0.941 . S
H42 C63 0.939 . S
O43 P32 1.490 . S
H44 C60 0.939 . S
H45 C62 0.940 . S
C46 P32 1.812 . S
C46 C47 1.389 . S
C46 C51 1.391 . S
C47 H33 0.941 . S
C47 C46 1.389 . S
C47 C48 1.397 . S
C48 H34 0.939 . S
C48 C47 1.397 . S
C48 C49 1.378 . S
C49 C48 1.378 . S
C49 C50 1.378 . S
C50 H35 0.940 . S
C50 C49 1.378 . S
C50 C51 1.396 . S
C51 H36 0.940 . S
C51 C46 1.391 . S
C51 C50 1.396 . S
C52 P32 1.803 . S
C52 C53 1.378 . S
C52 C57 1.400 . S
C53 H37 0.939 . S
C53 C52 1.378 . S
C53 C54 1.361 . S
C54 H38 0.942 . S
C54 C53 1.361 . S
C54 C55 1.369 . S
C55 C54 1.369 . S
C55 C56 1.404 . S
C56 H39 0.940 . S
C56 C55 1.404 . S
C56 C57 1.389 . S
C57 H40 0.939 . S
C57 C52 1.400 . S
C57 C56 1.389 . S
C58 P32 1.819 . S
C58 C59 1.391 . S
C58 C63 1.391 . S
C59 H41 0.941 . S
C59 C58 1.391 . S
C59 C60 1.396 . S
C60 H44 0.939 . S
C60 C59 1.396 . S
C60 C61 1.397 . S
C61 C60 1.397 . S
C61 C62 1.385 . S
C62 H45 0.940 . S
C62 C61 1.385 . S
C62 C63 1.388 . S
C63 H42 0.939 . S
C63 C58 1.391 . S
C63 C62 1.388 . S
P64 O75 1.490 . S
P64 C78 1.812 . S
P64 C84 1.803 . S
P64 C90 1.819 . S
H65 C79 0.941 . S
H66 C80 0.939 . S
H67 C82 0.940 . S
H68 C83 0.940 . S
H69 C85 0.939 . S
H70 C86 0.942 . S
H71 C88 0.940 . S
H72 C89 0.939 . S
H73 C91 0.941 . S
H74 C95 0.939 . S
O75 P64 1.490 . S
H76 C92 0.939 . S
H77 C94 0.940 . S
C78 P64 1.812 . S
C78 C79 1.389 1_554 S
C78 C83 1.391 . S
C79 H65 0.941 . S
C79 C78 1.389 1_556 S
C79 C80 1.397 . S
C80 H66 0.939 . S
C80 C79 1.397 . S
C80 C81 1.378 1_556 S
C81 C80 1.378 1_554 S
C81 C82 1.378 . S
C82 H67 0.940 . S
C82 C81 1.378 . S
C82 C83 1.396 . S
C83 H68 0.940 . S
C83 C78 1.391 . S
C83 C82 1.396 . S
C84 P64 1.803 . S
C84 C85 1.378 . S
C84 C89 1.400 . S
C85 H69 0.939 . S
C85 C84 1.378 . S
C85 C86 1.361 . S
C86 H70 0.942 . S
C86 C85 1.361 . S
C86 C87 1.369 . S
C87 C86 1.369 . S
C87 C88 1.404 . S
C88 H71 0.940 . S
C88 C87 1.404 . S
C88 C89 1.389 . S
C89 H72 0.939 . S
C89 C84 1.400 . S
C89 C88 1.389 . S
C90 P64 1.819 . S
C90 C91 1.391 1_655 S
C90 C95 1.391 . S
C91 H73 0.941 . S
C91 C90 1.391 1_455 S
C91 C92 1.396 . S
C92 H76 0.939 . S
C92 C91 1.396 . S
C92 C93 1.401 1_455 S
C93 C92 1.401 1_655 S
C93 C94 1.379 . S
C94 H77 0.940 . S
C94 C93 1.379 . S
C94 C95 1.388 . S
C95 H74 0.939 . S
C95 C90 1.391 . S
C95 C94 1.388 . S
P96 O107 1.490 . S
P96 C110 1.812 . S
P96 C116 1.803 . S
P96 C122 1.819 . S
H97 C111 0.941 . S
H98 C112 0.939 . S
H99 C114 0.940 . S
H100 C115 0.940 . S
H101 C117 0.939 . S
H102 C118 0.942 . S
H103 C120 0.940 . S
H104 C121 0.939 . S
H105 C123 0.941 . S
H106 C127 0.939 . S
O107 P96 1.490 . S
H108 C124 0.939 . S
H109 C126 0.940 . S
C110 P96 1.812 . S
C110 C111 1.389 . S
C110 C115 1.391 . S
C111 H97 0.941 . S
C111 C110 1.389 . S
C111 C112 1.397 . S
C112 H98 0.939 . S
C112 C111 1.397 . S
C112 C113 1.378 . S
C113 C112 1.378 . S
C113 C114 1.378 . S
C114 H99 0.940 . S
C114 C113 1.378 . S
C114 C115 1.396 . S
C115 H100 0.940 . S
C115 C110 1.391 . S
C115 C114 1.396 . S
C116 P96 1.803 . S
C116 C117 1.378 . S
C116 C121 1.400 . S
C117 H101 0.939 . S
C117 C116 1.378 . S
C117 C118 1.361 . S
C118 H102 0.942 . S
C118 C117 1.361 . S
C118 C119 1.369 . S
C119 C118 1.369 . S
C119 C120 1.404 . S
C120 H103 0.940 . S
C120 C119 1.404 . S
C120 C121 1.389 . S
C121 H104 0.939 . S
C121 C116 1.400 . S
C121 C120 1.389 . S
C122 P96 1.819 . S
C122 C123 1.391 . S
C122 C127 1.391 . S
C123 H105 0.941 . S
C123 C122 1.391 . S
C123 C124 1.396 . S
C124 H108 0.939 . S
C124 C123 1.396 . S
C124 C125 1.397 . S
C125 C124 1.397 . S
C125 C126 1.385 . S
C126 H109 0.940 . S
C126 C125 1.385 . S
C126 C127 1.388 . S
C127 H106 0.939 . S
C127 C122 1.391 . S
C127 C126 1.388 . S
P128 O139 1.490 . S
P128 C142 1.812 . S
P128 C148 1.803 . S
P128 C154 1.819 . S
H129 C143 0.941 . S
H130 C144 0.939 . S
H131 C146 0.940 1_545 S
H132 C147 0.940 . S
H133 C149 0.939 . S
H134 C150 0.942 . S
H135 C152 0.940 . S
H136 C153 0.939 . S
H137 C155 0.941 . S
H138 C159 0.939 . S
O139 P128 1.490 . S
H140 C156 0.939 . S
H141 C158 0.940 1_655 S
C142 P128 1.812 . S
C142 C143 1.389 . S
C142 C147 1.391 . S
C143 H129 0.941 . S
C143 C142 1.389 . S
C143 C144 1.397 . S
C144 H130 0.939 . S
C144 C143 1.397 . S
C144 C145 1.378 . S
C145 C144 1.378 . S
C145 C146 1.378 . S
C146 H131 0.940 1_565 S
C146 C145 1.378 . S
C146 C147 1.396 . S
C147 H132 0.940 . S
C147 C142 1.391 . S
C147 C146 1.396 . S
C148 P128 1.803 . S
C148 C149 1.378 . S
C148 C153 1.400 . S
C149 H133 0.939 . S
C149 C148 1.378 . S
C149 C150 1.361 . S
C150 H134 0.942 . S
C150 C149 1.361 . S
C150 C151 1.369 . S
C151 C150 1.369 . S
C151 C152 1.404 . S
C152 H135 0.940 . S
C152 C151 1.404 . S
C152 C153 1.389 . S
C153 H136 0.939 . S
C153 C148 1.400 . S
C153 C152 1.389 . S
C154 P128 1.819 . S
C154 C155 1.391 . S
C154 C159 1.391 . S
C155 H137 0.941 . S
C155 C154 1.391 . S
C155 C156 1.396 . S
C156 H140 0.939 . S
C156 C155 1.396 . S
C156 C157 1.397 . S
C157 C156 1.397 . S
C157 C158 1.385 . S
C158 H141 0.940 1_455 S
C158 C157 1.385 . S
C158 C159 1.388 . S
C159 H138 0.939 . S
C159 C154 1.391 . S
C159 C158 1.388 . S
P160 O171 1.490 . S
P160 C174 1.812 . S
P160 C180 1.803 . S
P160 C186 1.819 . S
H161 C175 0.941 . S
H162 C176 0.939 . S
H163 C178 0.940 . S
H164 C179 0.940 . S
H165 C181 0.939 . S
H166 C182 0.942 . S
H167 C184 0.940 . S
H168 C185 0.939 . S
H169 C187 0.941 . S
H170 C191 0.939 . S
O171 P160 1.490 . S
H172 C188 0.939 . S
H173 C190 0.940 . S
C174 P160 1.812 . S
C174 C175 1.389 . S
C174 C179 1.391 . S
C175 H161 0.941 . S
C175 C174 1.389 . S
C175 C176 1.397 . S
C176 H162 0.939 . S
C176 C175 1.397 . S
C176 C177 1.378 . S
C177 C176 1.378 . S
C177 C178 1.378 . S
C178 H163 0.940 . S
C178 C177 1.378 . S
C178 C179 1.396 . S
C179 H164 0.940 . S
C179 C174 1.391 . S
C179 C178 1.396 . S
C180 P160 1.803 . S
C180 C181 1.378 . S
C180 C185 1.400 . S
C181 H165 0.939 . S
C181 C180 1.378 . S
C181 C182 1.361 . S
C182 H166 0.942 . S
C182 C181 1.361 . S
C182 C183 1.369 . S
C183 C182 1.369 . S
C183 C184 1.404 . S
C184 H167 0.940 . S
C184 C183 1.404 . S
C184 C185 1.389 . S
C185 H168 0.939 . S
C185 C180 1.400 . S
C185 C184 1.389 . S
C186 P160 1.819 . S
C186 C187 1.391 . S
C186 C191 1.391 . S
C187 H169 0.941 . S
C187 C186 1.391 . S
C187 C188 1.396 . S
C188 H172 0.939 . S
C188 C187 1.396 . S
C188 C189 1.397 . S
C189 C188 1.397 . S
C189 C190 1.385 . S
C190 H173 0.940 . S
C190 C189 1.385 . S
C190 C191 1.388 . S
C191 H170 0.939 . S
C191 C186 1.391 . S
C191 C190 1.388 . S
P192 O203 1.490 . S
P192 C206 1.812 . S
P192 C212 1.803 . S
P192 C218 1.819 . S
H193 C207 0.941 . S
H194 C208 0.939 . S
H195 C210 0.940 . S
H196 C211 0.940 . S
H197 C213 0.939 . S
H198 C214 0.942 . S
H199 C216 0.940 . S
H200 C217 0.939 . S
H201 C219 0.941 . S
H202 C223 0.939 . S
O203 P192 1.490 . S
H204 C220 0.939 . S
H205 C222 0.940 . S
C206 P192 1.812 . S
C206 C207 1.389 1_655 S
C206 C211 1.391 . S
C207 H193 0.941 . S
C207 C206 1.389 1_455 S
C207 C208 1.397 . S
C208 H194 0.939 . S
C208 C207 1.397 . S
C208 C209 1.374 1_455 S
C209 C208 1.374 1_655 S
C209 C210 1.385 . S
C210 H195 0.940 . S
C210 C209 1.385 . S
C210 C211 1.396 . S
C211 H196 0.940 . S
C211 C206 1.391 . S
C211 C210 1.396 . S
C212 P192 1.803 . S
C212 C213 1.378 . S
C212 C217 1.400 . S
C213 H197 0.939 . S
C213 C212 1.378 . S
C213 C214 1.361 . S
C214 H198 0.942 . S
C214 C213 1.361 . S
C214 C215 1.369 . S
C215 C214 1.369 . S
C215 C216 1.404 . S
C216 H199 0.940 . S
C216 C215 1.404 . S
C216 C217 1.389 . S
C217 H200 0.939 . S
C217 C212 1.400 . S
C217 C216 1.389 . S
C218 P192 1.819 . S
C218 C219 1.391 . S
C218 C223 1.391 . S
C219 H201 0.941 . S
C219 C218 1.391 . S
C219 C220 1.396 . S
C220 H204 0.939 . S
C220 C219 1.396 . S
C220 C221 1.397 . S
C221 C220 1.397 . S
C221 C222 1.385 . S
C222 H205 0.940 . S
C222 C221 1.385 . S
C222 C223 1.388 . S
C223 H202 0.939 . S
C223 C218 1.391 . S
C223 C222 1.388 . S
P224 O235 1.490 . S
P224 C238 1.812 . S
P224 C244 1.803 . S
P224 C250 1.819 . S
H225 C239 0.941 . S
H226 C240 0.939 . S
H227 C242 0.940 . S
H228 C243 0.940 . S
H229 C245 0.939 . S
H230 C246 0.942 . S
H231 C248 0.940 . S
H232 C249 0.939 . S
H233 C251 0.941 . S
H234 C255 0.939 . S
O235 P224 1.490 . S
H236 C252 0.939 . S
H237 C254 0.940 . S
C238 P224 1.812 . S
C238 C239 1.389 . S
C238 C243 1.391 . S
C239 H225 0.941 . S
C239 C238 1.389 . S
C239 C240 1.397 . S
C240 H226 0.939 . S
C240 C239 1.397 . S
C240 C241 1.378 . S
C241 C240 1.378 . S
C241 C242 1.378 . S
C242 H227 0.940 . S
C242 C241 1.378 . S
C242 C243 1.396 . S
C243 H228 0.940 . S
C243 C238 1.391 . S
C243 C242 1.396 . S
C244 P224 1.803 . S
C244 C245 1.378 . S
C244 C249 1.400 . S
C245 H229 0.939 . S
C245 C244 1.378 . S
C245 C246 1.361 . S
C246 H230 0.942 . S
C246 C245 1.361 . S
C246 C247 1.369 . S
C247 C246 1.369 . S
C247 C248 1.404 . S
C248 H231 0.940 . S
C248 C247 1.404 . S
C248 C249 1.389 . S
C249 H232 0.939 . S
C249 C244 1.400 . S
C249 C248 1.389 . S
C250 P224 1.819 . S
C250 C251 1.391 . S
C250 C255 1.391 . S
C251 H233 0.941 . S
C251 C250 1.391 . S
C251 C252 1.396 . S
C252 H236 0.939 . S
C252 C251 1.396 . S
C252 C253 1.397 . S
C253 C252 1.397 . S
C253 C254 1.385 . S
C254 H237 0.940 . S
C254 C253 1.385 . S
C254 C255 1.388 . S
C255 H234 0.939 . S
C255 C250 1.391 . S
C255 C254 1.388 . S
P256 O267 1.490 . S
P256 C270 1.812 . S
P256 C276 1.803 . S
P256 C282 1.819 . S
H257 C271 0.941 . S
H258 C272 0.939 . S
H259 C274 0.940 . S
H260 C275 0.940 . S
H261 C277 0.939 . S
H262 C278 0.942 . S
H263 C280 0.940 . S
H264 C281 0.939 . S
H265 C283 0.941 . S
H266 C287 0.939 . S
O267 P256 1.490 . S
H268 C284 0.939 . S
H269 C286 0.940 . S
C270 P256 1.812 . S
C270 C271 1.389 . S
C270 C275 1.391 . S
C271 H257 0.941 . S
C271 C270 1.389 . S
C271 C272 1.397 . S
C272 H258 0.939 . S
C272 C271 1.397 . S
C272 C273 1.378 . S
C273 C272 1.378 . S
C273 C274 1.378 . S
C274 H259 0.940 . S
C274 C273 1.378 . S
C274 C275 1.396 . S
C275 H260 0.940 . S
C275 C270 1.391 . S
C275 C274 1.396 . S
C276 P256 1.803 . S
C276 C277 1.378 . S
C276 C281 1.400 . S
C277 H261 0.939 . S
C277 C276 1.378 . S
C277 C278 1.361 . S
C278 H262 0.942 . S
C278 C277 1.361 . S
C278 C279 1.369 . S
C279 C278 1.369 . S
C279 C280 1.404 . S
C280 H263 0.940 . S
C280 C279 1.404 . S
C280 C281 1.389 . S
C281 H264 0.939 . S
C281 C276 1.400 . S
C281 C280 1.389 . S
C282 P256 1.819 . S
C282 C283 1.391 . S
C282 C287 1.391 . S
C283 H265 0.941 . S
C283 C282 1.391 . S
C283 C284 1.396 . S
C284 H268 0.939 . S
C284 C283 1.396 . S
C284 C285 1.397 . S
C285 C284 1.397 . S
C285 C286 1.385 . S
C286 H269 0.940 . S
C286 C285 1.385 . S
C286 C287 1.388 . S
C287 H266 0.939 . S
C287 C282 1.391 . S
C287 C286 1.388 . S
P288 O299 1.490 . S
P288 C302 1.812 . S
P288 C308 1.803 . S
P288 C314 1.819 . S
H289 C303 0.941 . S
H290 C304 0.939 . S
H291 C306 0.940 . S
H292 C307 0.940 . S
H293 C309 0.939 . S
H294 C310 0.942 . S
H295 C312 0.940 . S
H296 C313 0.939 . S
H297 C315 0.941 . S
H298 C319 0.939 . S
O299 P288 1.490 . S
H300 C316 0.939 . S
H301 C318 0.940 . S
C302 P288 1.812 . S
C302 C303 1.389 . S
C302 C307 1.391 . S
C303 H289 0.941 . S
C303 C302 1.389 . S
C303 C304 1.397 . S
C304 H290 0.939 . S
C304 C303 1.397 . S
C304 C305 1.378 . S
C305 C304 1.378 . S
C305 C306 1.378 . S
C306 H291 0.940 . S
C306 C305 1.378 . S
C306 C307 1.396 . S
C307 H292 0.940 . S
C307 C302 1.391 . S
C307 C306 1.396 . S
C308 P288 1.803 . S
C308 C309 1.378 1_565 S
C308 C313 1.400 . S
C309 H293 0.939 . S
C309 C308 1.378 1_545 S
C309 C310 1.361 . S
C310 H294 0.942 . S
C310 C309 1.361 . S
C310 C311 1.369 . S
C311 C310 1.369 . S
C311 C312 1.404 1_545 S
C312 H295 0.940 . S
C312 C311 1.404 1_565 S
C312 C313 1.389 . S
C313 H296 0.939 . S
C313 C308 1.400 . S
C313 C312 1.389 . S
C314 P288 1.819 . S
C314 C315 1.391 . S
C314 C319 1.391 . S
C315 H297 0.941 . S
C315 C314 1.391 . S
C315 C316 1.396 . S
C316 H300 0.939 . S
C316 C315 1.396 . S
C316 C317 1.397 . S
C317 C316 1.397 . S
C317 C318 1.385 . S
C318 H301 0.940 . S
C318 C317 1.385 . S
C318 C319 1.388 . S
C319 H298 0.939 . S
C319 C314 1.391 . S
C319 C318 1.388 . S
P320 O331 1.490 . S
P320 C334 1.812 . S
P320 C340 1.803 . S
P320 C346 1.819 . S
H321 C335 0.941 . S
H322 C336 0.939 . S
H323 C338 0.940 . S
H324 C339 0.940 . S
H325 C341 0.939 . S
H326 C342 0.942 . S
H327 C344 0.940 . S
H328 C345 0.939 . S
H329 C347 0.941 . S
H330 C351 0.939 . S
O331 P320 1.490 . S
H332 C348 0.939 . S
H333 C350 0.940 . S
C334 P320 1.812 . S
C334 C335 1.389 . S
C334 C339 1.391 . S
C335 H321 0.941 . S
C335 C334 1.389 . S
C335 C336 1.397 . S
C336 H322 0.939 . S
C336 C335 1.397 . S
C336 C337 1.378 . S
C337 C336 1.378 . S
C337 C338 1.378 . S
C338 H323 0.940 . S
C338 C337 1.378 . S
C338 C339 1.396 . S
C339 H324 0.940 . S
C339 C334 1.391 . S
C339 C338 1.396 . S
C340 P320 1.803 . S
C340 C341 1.378 . S
C340 C345 1.400 . S
C341 H325 0.939 . S
C341 C340 1.378 . S
C341 C342 1.361 . S
C342 H326 0.942 . S
C342 C341 1.361 . S
C342 C343 1.369 . S
C343 C342 1.369 . S
C343 C344 1.404 . S
C344 H327 0.940 . S
C344 C343 1.404 . S
C344 C345 1.389 . S
C345 H328 0.939 . S
C345 C340 1.400 . S
C345 C344 1.389 . S
C346 P320 1.819 . S
C346 C347 1.391 . S
C346 C351 1.391 . S
C347 H329 0.941 . S
C347 C346 1.391 . S
C347 C348 1.396 . S
C348 H332 0.939 . S
C348 C347 1.396 . S
C348 C349 1.397 . S
C349 C348 1.397 . S
C349 C350 1.385 . S
C350 H333 0.940 . S
C350 C349 1.385 . S
C350 C351 1.388 . S
C351 H330 0.939 . S
C351 C346 1.391 . S
C351 C350 1.388 . S
P352 O363 1.490 . S
P352 C366 1.812 . S
P352 C372 1.803 . S
P352 C378 1.819 . S
H353 C367 0.941 . S
H354 C368 0.939 . S
H355 C370 0.940 . S
H356 C371 0.940 . S
H357 C373 0.939 . S
H358 C374 0.942 . S
H359 C376 0.940 . S
H360 C377 0.939 . S
H361 C379 0.941 . S
H362 C383 0.939 . S
O363 P352 1.490 . S
H364 C380 0.939 . S
H365 C382 0.940 . S
C366 P352 1.812 . S
C366 C367 1.389 . S
C366 C371 1.391 . S
C367 H353 0.941 . S
C367 C366 1.389 . S
C367 C368 1.397 . S
C368 H354 0.939 . S
C368 C367 1.397 . S
C368 C369 1.378 . S
C369 C368 1.378 . S
C369 C370 1.378 . S
C370 H355 0.940 . S
C370 C369 1.378 . S
C370 C371 1.396 . S
C371 H356 0.940 . S
C371 C366 1.391 . S
C371 C370 1.396 . S
C372 P352 1.803 . S
C372 C373 1.378 . S
C372 C377 1.400 . S
C373 H357 0.939 . S
C373 C372 1.378 . S
C373 C374 1.361 . S
C374 H358 0.942 . S
C374 C373 1.361 . S
C374 C375 1.369 . S
C375 C374 1.369 . S
C375 C376 1.404 . S
C376 H359 0.940 . S
C376 C375 1.404 . S
C376 C377 1.389 . S
C377 H360 0.939 . S
C377 C372 1.400 . S
C377 C376 1.389 . S
C378 P352 1.819 . S
C378 C379 1.391 . S
C378 C383 1.391 . S
C379 H361 0.941 . S
C379 C378 1.391 . S
C379 C380 1.396 . S
C380 H364 0.939 . S
C380 C379 1.396 . S
C380 C381 1.397 . S
C381 C380 1.397 . S
C381 C382 1.385 . S
C382 H365 0.940 . S
C382 C381 1.385 . S
C382 C383 1.388 . S
C383 H362 0.939 . S
C383 C378 1.391 . S
C383 C382 1.388 . S
P384 O395 1.490 . S
P384 C398 1.812 . S
P384 C404 1.803 . S
P384 C410 1.819 . S
H385 C399 0.941 . S
H386 C400 0.939 . S
H387 C402 0.940 . S
H388 C403 0.940 . S
H389 C405 0.939 . S
H390 C406 0.942 . S
H391 C408 0.940 . S
H392 C409 0.939 . S
H393 C411 0.941 . S
H394 C415 0.939 . S
O395 P384 1.490 . S
H396 C412 0.939 . S
H397 C414 0.940 . S
C398 P384 1.812 . S
C398 C399 1.389 . S
C398 C403 1.391 . S
C399 H385 0.941 . S
C399 C398 1.389 . S
C399 C400 1.397 . S
C400 H386 0.939 . S
C400 C399 1.397 . S
C400 C401 1.378 . S
C401 C400 1.378 . S
C401 C402 1.378 . S
C402 H387 0.940 . S
C402 C401 1.378 . S
C402 C403 1.396 . S
C403 H388 0.940 . S
C403 C398 1.391 . S
C403 C402 1.396 . S
C404 P384 1.803 . S
C404 C405 1.378 . S
C404 C409 1.400 . S
C405 H389 0.939 . S
C405 C404 1.378 . S
C405 C406 1.361 . S
C406 H390 0.942 . S
C406 C405 1.361 . S
C406 C407 1.369 . S
C407 C406 1.369 . S
C407 C408 1.404 . S
C408 H391 0.940 . S
C408 C407 1.404 . S
C408 C409 1.389 . S
C409 H392 0.939 . S
C409 C404 1.400 . S
C409 C408 1.389 . S
C410 P384 1.819 . S
C410 C411 1.391 . S
C410 C415 1.391 . S
C411 H393 0.941 . S
C411 C410 1.391 . S
C411 C412 1.396 . S
C412 H396 0.939 . S
C412 C411 1.396 . S
C412 C413 1.397 . S
C413 C412 1.397 . S
C413 C414 1.385 . S
C414 H397 0.940 . S
C414 C413 1.385 . S
C414 C415 1.388 . S
C415 H394 0.939 . S
C415 C410 1.391 . S
C415 C414 1.388 . S
P416 O427 1.490 . S
P416 C430 1.812 . S
P416 C436 1.803 . S
P416 C442 1.819 . S
H417 C431 0.941 . S
H418 C432 0.939 . S
H419 C434 0.940 . S
H420 C435 0.940 . S
H421 C437 0.939 . S
H422 C438 0.942 . S
H423 C440 0.940 . S
H424 C441 0.939 . S
H425 C443 0.941 . S
H426 C447 0.939 . S
O427 P416 1.490 . S
H428 C444 0.939 . S
H429 C446 0.940 . S
C430 P416 1.812 . S
C430 C431 1.389 . S
C430 C435 1.391 . S
C431 H417 0.941 . S
C431 C430 1.389 . S
C431 C432 1.397 . S
C432 H418 0.939 . S
C432 C431 1.397 . S
C432 C433 1.378 . S
C433 C432 1.378 . S
C433 C434 1.378 . S
C434 H419 0.940 . S
C434 C433 1.378 . S
C434 C435 1.396 . S
C435 H420 0.940 . S
C435 C430 1.391 . S
C435 C434 1.396 . S
C436 P416 1.803 . S
C436 C437 1.378 . S
C436 C441 1.400 . S
C437 H421 0.939 . S
C437 C436 1.378 . S
C437 C438 1.361 . S
C438 H422 0.942 . S
C438 C437 1.361 . S
C438 C439 1.369 1_556 S
C439 C438 1.369 1_554 S
C439 C440 1.404 . S
C440 H423 0.940 . S
C440 C439 1.404 . S
C440 C441 1.389 1_554 S
C441 H424 0.939 . S
C441 C436 1.400 . S
C441 C440 1.389 1_556 S
C442 P416 1.819 . S
C442 C443 1.391 . S
C442 C447 1.391 . S
C443 H425 0.941 . S
C443 C442 1.391 . S
C443 C444 1.396 . S
C444 H428 0.939 . S
C444 C443 1.396 . S
C444 C445 1.397 . S
C445 C444 1.397 . S
C445 C446 1.385 . S
C446 H429 0.940 . S
C446 C445 1.385 . S
C446 C447 1.388 . S
C447 H426 0.939 . S
C447 C442 1.391 . S
C447 C446 1.388 . S
P448 O459 1.490 . S
P448 C462 1.812 . S
P448 C468 1.803 . S
P448 C474 1.819 . S
H449 C463 0.941 . S
H450 C464 0.939 . S
H451 C466 0.940 . S
H452 C467 0.940 . S
H453 C469 0.939 . S
H454 C470 0.942 . S
H455 C472 0.940 . S
H456 C473 0.939 . S
H457 C475 0.941 . S
H458 C479 0.939 . S
O459 P448 1.490 . S
H460 C476 0.939 . S
H461 C478 0.940 . S
C462 P448 1.812 . S
C462 C463 1.389 . S
C462 C467 1.391 . S
C463 H449 0.941 . S
C463 C462 1.389 . S
C463 C464 1.397 . S
C464 H450 0.939 . S
C464 C463 1.397 . S
C464 C465 1.378 . S
C465 C464 1.378 . S
C465 C466 1.378 . S
C466 H451 0.940 . S
C466 C465 1.378 . S
C466 C467 1.396 . S
C467 H452 0.940 . S
C467 C462 1.391 . S
C467 C466 1.396 . S
C468 P448 1.803 . S
C468 C469 1.378 . S
C468 C473 1.400 . S
C469 H453 0.939 . S
C469 C468 1.378 . S
C469 C470 1.361 . S
C470 H454 0.942 . S
C470 C469 1.361 . S
C470 C471 1.369 . S
C471 C470 1.369 . S
C471 C472 1.404 . S
C472 H455 0.940 . S
C472 C471 1.404 . S
C472 C473 1.389 . S
C473 H456 0.939 . S
C473 C468 1.400 . S
C473 C472 1.389 . S
C474 P448 1.819 . S
C474 C475 1.391 . S
C474 C479 1.391 . S
C475 H457 0.941 . S
C475 C474 1.391 . S
C475 C476 1.396 . S
C476 H460 0.939 . S
C476 C475 1.396 . S
C476 C477 1.397 . S
C477 C476 1.397 . S
C477 C478 1.385 . S
C478 H461 0.940 . S
C478 C477 1.385 . S
C478 C479 1.388 . S
C479 H458 0.939 . S
C479 C474 1.391 . S
C479 C478 1.388 . S
P480 O491 1.490 . S
P480 C494 1.812 . S
P480 C500 1.803 . S
P480 C506 1.819 . S
H481 C495 0.941 . S
H482 C496 0.939 . S
H483 C498 0.940 . S
H484 C499 0.940 . S
H485 C501 0.939 . S
H486 C502 0.942 . S
H487 C504 0.940 . S
H488 C505 0.939 . S
H489 C507 0.941 1_565 S
H490 C511 0.939 . S
O491 P480 1.490 . S
H492 C508 0.939 . S
H493 C510 0.940 . S
C494 P480 1.812 . S
C494 C495 1.389 . S
C494 C499 1.391 . S
C495 H481 0.941 . S
C495 C494 1.389 . S
C495 C496 1.397 . S
C496 H482 0.939 . S
C496 C495 1.397 . S
C496 C497 1.378 . S
C497 C496 1.378 . S
C497 C498 1.378 . S
C498 H483 0.940 . S
C498 C497 1.378 . S
C498 C499 1.396 . S
C499 H484 0.940 . S
C499 C494 1.391 . S
C499 C498 1.396 . S
C500 P480 1.803 . S
C500 C501 1.378 1_556 S
C500 C505 1.400 . S
C501 H485 0.939 . S
C501 C500 1.378 1_554 S
C501 C502 1.361 . S
C502 H486 0.942 . S
C502 C501 1.361 . S
C502 C503 1.369 . S
C503 C502 1.369 . S
C503 C504 1.404 1_554 S
C504 H487 0.940 . S
C504 C503 1.404 1_556 S
C504 C505 1.389 . S
C505 H488 0.939 . S
C505 C500 1.400 . S
C505 C504 1.389 . S
C506 P480 1.819 . S
C506 C507 1.391 . S
C506 C511 1.391 . S
C507 H489 0.941 1_545 S
C507 C506 1.391 . S
C507 C508 1.396 1_545 S
C508 H492 0.939 . S
C508 C507 1.396 1_565 S
C508 C509 1.397 1_565 S
C509 C508 1.397 1_545 S
C509 C510 1.385 . S
C510 H493 0.940 . S
C510 C509 1.385 . S
C510 C511 1.388 . S
C511 H490 0.939 . S
C511 C506 1.391 . S
C511 C510 1.388 . S
Li512 N529 1.990 . S
Li512 O572 1.956 . S
Li512 O573 1.970 1_556 S
Li512 O574 1.961 . S
Li513 N537 1.990 . S
Li513 O572 1.970 1_554 S
Li513 O573 1.956 . S
Li513 O575 1.961 . S
Li514 N559 1.990 . S
Li514 O572 1.961 . S
Li514 O574 1.956 . S
Li514 O575 1.970 1_556 S
Li515 N565 1.990 . S
Li515 O573 1.961 . S
Li515 O574 1.970 1_554 S
Li515 O575 1.956 . S
C516 C518 1.348 1_556 S
C516 C519 1.356 . S
C516 O572 1.325 . S
N517 C520 1.314 1_556 S
N517 C521 1.279 . S
C518 C516 1.348 1_554 S
C518 C520 1.353 . S
C518 H576 0.929 . S
C519 C516 1.356 . S
C519 C521 1.358 . S
C519 H577 0.930 . S
C520 N517 1.314 1_554 S
C520 C518 1.353 . S
C520 H578 0.930 . S
C521 N517 1.279 . S
C521 C519 1.358 . S
C521 H579 0.930 . S
C522 C525 1.348 . S
C522 C526 1.356 . S
C522 O573 1.325 . S
C523 N524 1.279 . S
C523 C526 1.358 . S
C523 H580 0.930 . S
N524 C523 1.279 . S
N524 C527 1.314 . S
C525 C522 1.348 . S
C525 C527 1.353 . S
C525 H581 0.929 . S
C526 C522 1.356 . S
C526 C523 1.358 . S
C526 H582 0.930 . S
C527 N524 1.314 . S
C527 C525 1.353 . S
C527 H583 0.930 . S
C528 N529 1.314 . S
C528 C533 1.353 . S
C528 H534 0.930 . S
N529 Li512 1.990 . S
N529 C528 1.314 . S
N529 C531 1.279 . S
C530 C531 1.358 . S
C530 C532 1.356 . S
C530 H584 0.930 . S
C531 N529 1.279 . S
C531 C530 1.358 . S
C531 H535 0.930 . S
C532 C530 1.356 . S
C532 C533 1.348 . S
C533 C528 1.353 . S
C533 C532 1.348 . S
C533 H585 0.929 . S
H534 C528 0.930 . S
H535 C531 0.930 . S
C536 N537 1.314 . S
C536 C538 1.353 . S
C536 H542 0.930 . S
N537 Li513 1.990 . S
N537 C536 1.314 . S
N537 C540 1.279 . S
C538 C536 1.353 . S
C538 C541 1.348 . S
C538 H586 0.929 . S
C539 C540 1.358 . S
C539 C541 1.356 . S
C539 H587 0.930 . S
C540 N537 1.279 . S
C540 C539 1.358 . S
C540 H543 0.930 . S
C541 C538 1.348 . S
C541 C539 1.356 . S
H542 C536 0.930 . S
H543 C540 0.930 . S
C544 C546 1.348 . S
C544 C547 1.356 . S
C544 O574 1.325 . S
N545 C548 1.314 . S
N545 C549 1.279 . S
C546 C544 1.348 . S
C546 C548 1.353 . S
C546 H588 0.929 . S
C547 C544 1.356 . S
C547 C549 1.358 . S
C547 H589 0.930 . S
C548 N545 1.314 . S
C548 C546 1.353 . S
C548 H590 0.930 . S
C549 N545 1.279 . S
C549 C547 1.358 . S
C549 H591 0.930 . S
C550 C551 1.348 1_554 S
C550 C552 1.356 . S
C550 O575 1.325 . S
C551 C550 1.348 1_556 S
C551 C553 1.353 . S
C551 H592 0.929 . S
C552 C550 1.356 . S
C552 C554 1.358 . S
C552 H593 0.930 . S
C553 C551 1.353 . S
C553 N555 1.314 1_556 S
C553 H594 0.930 . S
C554 C552 1.358 . S
C554 N555 1.279 . S
C554 H595 0.930 . S
N555 C553 1.314 1_554 S
N555 C554 1.279 . S
C556 C558 1.353 . S
C556 N559 1.314 . S
C556 H562 0.930 . S
C557 N559 1.279 . S
C557 C560 1.358 . S
C557 H563 0.930 . S
C558 C556 1.353 . S
C558 C561 1.348 . S
C558 H596 0.929 . S
N559 Li514 1.990 . S
N559 C556 1.314 . S
N559 C557 1.279 . S
C560 C557 1.358 . S
C560 C561 1.356 . S
C560 H597 0.930 . S
C561 C558 1.348 . S
C561 C560 1.356 . S
H562 C556 0.930 . S
H563 C557 0.930 . S
C564 N565 1.314 . S
C564 C566 1.353 . S
C564 H570 0.930 . S
N565 Li515 1.990 . S
N565 C564 1.314 . S
N565 C568 1.279 . S
C566 C564 1.353 . S
C566 C569 1.348 . S
C566 H598 0.929 . S
C567 C568 1.358 . S
C567 C569 1.356 . S
C567 H599 0.930 . S
C568 N565 1.279 . S
C568 C567 1.358 . S
C568 H571 0.930 . S
C569 C566 1.348 . S
C569 C567 1.356 . S
H570 C564 0.930 . S
H571 C568 0.930 . S
O572 Li512 1.956 . S
O572 Li513 1.970 1_556 S
O572 Li514 1.961 . S
O572 C516 1.325 . S
O573 Li512 1.970 1_554 S
O573 Li513 1.956 . S
O573 Li515 1.961 . S
O573 C522 1.325 . S
O574 Li512 1.961 . S
O574 Li514 1.956 . S
O574 Li515 1.970 1_556 S
O574 C544 1.325 . S
O575 Li513 1.961 . S
O575 Li514 1.970 1_554 S
O575 Li515 1.956 . S
O575 C550 1.325 . S
H576 C518 0.929 . S
H577 C519 0.930 . S
H578 C520 0.930 . S
H579 C521 0.930 . S
H580 C523 0.930 . S
H581 C525 0.929 . S
H582 C526 0.930 . S
H583 C527 0.930 . S
H584 C530 0.930 . S
H585 C533 0.929 . S
H586 C538 0.929 . S
H587 C539 0.930 . S
H588 C546 0.929 . S
H589 C547 0.930 . S
H590 C548 0.930 . S
H591 C549 0.930 . S
H592 C551 0.929 . S
H593 C552 0.930 . S
H594 C553 0.930 . S
H595 C554 0.930 . S
H596 C558 0.929 . S
H597 C560 0.930 . S
H598 C566 0.929 . S
H599 C567 0.930 . S
Li600 N617 1.990 . S
Li600 O660 1.956 . S
Li600 O661 1.970 . S
Li600 O662 1.961 . S
Li601 N625 1.990 . S
Li601 O660 1.970 . S
Li601 O661 1.956 . S
Li601 O663 1.961 . S
Li602 N647 1.990 . S
Li602 O660 1.961 . S
Li602 O662 1.956 . S
Li602 O663 1.970 . S
Li603 N653 1.990 . S
Li603 O661 1.961 . S
Li603 O662 1.970 . S
Li603 O663 1.956 . S
C604 C606 1.348 . S
C604 C607 1.356 . S
C604 O660 1.325 . S
N605 C608 1.314 . S
N605 C609 1.279 . S
C606 C604 1.348 . S
C606 C608 1.353 . S
C606 H664 0.929 . S
C607 C604 1.356 . S
C607 C609 1.358 . S
C607 H665 0.930 . S
C608 N605 1.314 . S
C608 C606 1.353 . S
C608 H666 0.930 . S
C609 N605 1.279 . S
C609 C607 1.358 . S
C609 H667 0.930 . S
C610 C613 1.348 . S
C610 C614 1.356 . S
C610 O661 1.325 . S
C611 N612 1.279 . S
C611 C614 1.358 . S
C611 H668 0.930 . S
N612 C611 1.279 . S
N612 C615 1.314 . S
C613 C610 1.348 . S
C613 C615 1.353 . S
C613 H669 0.929 . S
C614 C610 1.356 . S
C614 C611 1.358 . S
C614 H670 0.930 . S
C615 N612 1.314 . S
C615 C613 1.353 . S
C615 H671 0.930 . S
C616 N617 1.314 . S
C616 C621 1.353 . S
C616 H622 0.930 . S
N617 Li600 1.990 . S
N617 C616 1.314 . S
N617 C619 1.279 . S
C618 C619 1.358 . S
C618 C620 1.356 . S
C618 H672 0.930 . S
C619 N617 1.279 . S
C619 C618 1.358 . S
C619 H623 0.930 . S
C620 C618 1.356 . S
C620 C621 1.348 . S
C621 C616 1.353 . S
C621 C620 1.348 . S
C621 H673 0.929 . S
H622 C616 0.930 . S
H623 C619 0.930 . S
C624 N625 1.314 . S
C624 C626 1.353 . S
C624 H630 0.930 . S
N625 Li601 1.990 . S
N625 C624 1.314 . S
N625 C628 1.279 . S
C626 C624 1.353 . S
C626 C629 1.348 . S
C626 H674 0.929 . S
C627 C628 1.358 . S
C627 C629 1.356 . S
C627 H675 0.930 . S
C628 N625 1.279 . S
C628 C627 1.358 . S
C628 H631 0.930 . S
C629 C626 1.348 . S
C629 C627 1.356 . S
H630 C624 0.930 . S
H631 C628 0.930 . S
C632 C634 1.348 . S
C632 C635 1.356 . S
C632 O662 1.325 . S
N633 C636 1.314 . S
N633 C637 1.279 . S
C634 C632 1.348 . S
C634 C636 1.353 . S
C634 H676 0.929 . S
C635 C632 1.356 . S
C635 C637 1.358 . S
C635 H677 0.930 . S
C636 N633 1.314 . S
C636 C634 1.353 . S
C636 H678 0.930 . S
C637 N633 1.279 . S
C637 C635 1.358 . S
C637 H679 0.930 . S
C638 C639 1.348 . S
C638 C640 1.356 . S
C638 O663 1.325 . S
C639 C638 1.348 . S
C639 C641 1.353 . S
C639 H680 0.929 . S
C640 C638 1.356 . S
C640 C642 1.358 . S
C640 H681 0.930 . S
C641 C639 1.353 . S
C641 N643 1.314 . S
C641 H682 0.930 . S
C642 C640 1.358 . S
C642 N643 1.279 . S
C642 H683 0.930 . S
N643 C641 1.314 . S
N643 C642 1.279 . S
C644 C646 1.353 . S
C644 N647 1.314 . S
C644 H650 0.930 . S
C645 N647 1.279 . S
C645 C648 1.358 . S
C645 H651 0.930 . S
C646 C644 1.353 . S
C646 C649 1.348 . S
C646 H684 0.929 . S
N647 Li602 1.990 . S
N647 C644 1.314 . S
N647 C645 1.279 . S
C648 C645 1.358 . S
C648 C649 1.356 . S
C648 H685 0.930 . S
C649 C646 1.348 . S
C649 C648 1.356 . S
H650 C644 0.930 . S
H651 C645 0.930 . S
C652 N653 1.314 . S
C652 C654 1.353 . S
C652 H658 0.930 . S
N653 Li603 1.990 . S
N653 C652 1.314 . S
N653 C656 1.279 . S
C654 C652 1.353 . S
C654 C657 1.348 . S
C654 H686 0.929 . S
C655 C656 1.358 . S
C655 C657 1.356 . S
C655 H687 0.930 . S
C656 N653 1.279 . S
C656 C655 1.358 . S
C656 H659 0.930 . S
C657 C654 1.348 . S
C657 C655 1.356 . S
H658 C652 0.930 . S
H659 C656 0.930 . S
O660 Li600 1.956 . S
O660 Li601 1.970 . S
O660 Li602 1.961 . S
O660 C604 1.325 . S
O661 Li600 1.970 . S
O661 Li601 1.956 . S
O661 Li603 1.961 . S
O661 C610 1.325 . S
O662 Li600 1.961 . S
O662 Li602 1.956 . S
O662 Li603 1.970 . S
O662 C632 1.325 . S
O663 Li601 1.961 . S
O663 Li602 1.970 . S
O663 Li603 1.956 . S
O663 C638 1.325 . S
H664 C606 0.929 . S
H665 C607 0.930 . S
H666 C608 0.930 . S
H667 C609 0.930 . S
H668 C611 0.930 . S
H669 C613 0.929 . S
H670 C614 0.930 . S
H671 C615 0.930 . S
H672 C618 0.930 . S
H673 C621 0.929 . S
H674 C626 0.929 . S
H675 C627 0.930 . S
H676 C634 0.929 . S
H677 C635 0.930 . S
H678 C636 0.930 . S
H679 C637 0.930 . S
H680 C639 0.929 . S
H681 C640 0.930 . S
H682 C641 0.930 . S
H683 C642 0.930 . S
H684 C646 0.929 . S
H685 C648 0.930 . S
H686 C654 0.929 . S
H687 C655 0.930 . S
Li688 N705 2.003 . S
Li688 O748 1.956 . S
Li688 O749 1.911 1_556 S
Li688 O750 2.006 . S
Li689 N713 1.990 . S
Li689 O748 1.928 1_554 S
Li689 O749 1.956 . S
Li689 O751 1.961 . S
Li690 N735 1.990 . S
Li690 O748 1.994 . S
Li690 O750 1.956 . S
Li690 O751 1.970 1_556 S
Li691 N741 1.990 . S
Li691 O749 1.961 . S
Li691 O750 1.970 1_554 S
Li691 O751 1.956 . S
C692 C694 1.348 1_556 S
C692 C695 1.356 . S
C692 O748 1.333 . S
N693 C696 1.314 1_556 S
N693 C697 1.279 . S
C694 C692 1.348 1_554 S
C694 C696 1.353 . S
C694 H752 0.929 . S
C695 C692 1.356 . S
C695 C697 1.358 . S
C695 H753 0.930 . S
C696 N693 1.314 1_554 S
C696 C694 1.353 . S
C696 H754 0.930 . S
C697 N693 1.279 . S
C697 C695 1.358 . S
C697 H755 0.930 . S
C698 C701 1.348 . S
C698 C702 1.356 . S
C698 O749 1.325 . S
C699 N700 1.279 . S
C699 C702 1.358 . S
C699 H756 0.930 . S
N700 C699 1.279 . S
N700 C703 1.314 . S
C701 C698 1.348 . S
C701 C703 1.353 . S
C701 H757 0.929 . S
C702 C698 1.356 . S
C702 C699 1.358 . S
C702 H758 0.930 . S
C703 N700 1.314 . S
C703 C701 1.353 . S
C703 H759 0.930 . S
C704 N705 1.314 . S
C704 C709 1.353 . S
C704 H710 0.930 . S
N705 Li688 2.003 . S
N705 C704 1.314 . S
N705 C707 1.279 . S
C706 C707 1.358 . S
C706 C708 1.356 . S
C706 H760 0.930 . S
C707 N705 1.279 . S
C707 C706 1.358 . S
C707 H711 0.938 . S
C708 C706 1.356 . S
C708 C709 1.348 . S
C709 C704 1.353 . S
C709 C708 1.348 . S
C709 H761 0.929 . S
H710 C704 0.930 . S
H711 C707 0.938 . S
C712 N713 1.314 . S
C712 C714 1.353 . S
C712 H718 0.930 . S
N713 Li689 1.990 . S
N713 C712 1.314 . S
N713 C716 1.279 . S
C714 C712 1.353 . S
C714 C717 1.348 . S
C714 H762 0.929 . S
C715 C716 1.358 . S
C715 C717 1.356 . S
C715 H763 0.930 . S
C716 N713 1.279 . S
C716 C715 1.358 . S
C716 H719 0.930 . S
C717 C714 1.348 . S
C717 C715 1.356 . S
H718 C712 0.930 . S
H719 C716 0.930 . S
C720 C722 1.348 . S
C720 C723 1.356 . S
C720 O750 1.325 . S
N721 C724 1.314 . S
N721 C725 1.279 . S
C722 C720 1.348 . S
C722 C724 1.353 . S
C722 H764 0.929 . S
C723 C720 1.356 . S
C723 C725 1.358 . S
C723 H765 0.930 . S
C724 N721 1.314 . S
C724 C722 1.353 . S
C724 H766 0.930 . S
C725 N721 1.279 . S
C725 C723 1.358 . S
C725 H767 0.930 . S
C726 C727 1.348 1_554 S
C726 C728 1.356 . S
C726 O751 1.325 . S
C727 C726 1.348 1_556 S
C727 C729 1.353 . S
C727 H768 0.929 . S
C728 C726 1.356 . S
C728 C730 1.358 . S
C728 H769 0.930 . S
C729 C727 1.353 . S
C729 N731 1.314 1_556 S
C729 H770 0.930 . S
C730 C728 1.358 . S
C730 N731 1.279 . S
C730 H771 0.930 . S
N731 C729 1.314 1_554 S
N731 C730 1.279 . S
C732 C734 1.353 . S
C732 N735 1.314 . S
C732 H738 0.930 . S
C733 N735 1.279 . S
C733 C736 1.358 . S
C733 H739 0.930 . S
C734 C732 1.353 . S
C734 C737 1.348 . S
C734 H772 0.929 . S
N735 Li690 1.990 . S
N735 C732 1.314 . S
N735 C733 1.279 . S
C736 C733 1.358 . S
C736 C737 1.356 . S
C736 H773 0.930 . S
C737 C734 1.348 . S
C737 C736 1.356 . S
H738 C732 0.930 . S
H739 C733 0.930 . S
C740 N741 1.314 . S
C740 C742 1.353 . S
C740 H746 0.930 . S
N741 Li691 1.990 . S
N741 C740 1.314 . S
N741 C744 1.279 . S
C742 C740 1.353 . S
C742 C745 1.348 . S
C742 H774 0.929 . S
C743 C744 1.358 . S
C743 C745 1.356 . S
C743 H775 0.930 . S
C744 N741 1.279 . S
C744 C743 1.358 . S
C744 H747 0.930 . S
C745 C742 1.348 . S
C745 C743 1.356 . S
H746 C740 0.930 . S
H747 C744 0.930 . S
O748 Li688 1.956 . S
O748 Li689 1.928 1_556 S
O748 Li690 1.994 . S
O748 C692 1.333 . S
O749 Li688 1.911 1_554 S
O749 Li689 1.956 . S
O749 Li691 1.961 . S
O749 C698 1.325 . S
O750 Li688 2.006 . S
O750 Li690 1.956 . S
O750 Li691 1.970 1_556 S
O750 C720 1.325 . S
O751 Li689 1.961 . S
O751 Li690 1.970 1_554 S
O751 Li691 1.956 . S
O751 C726 1.325 . S
H752 C694 0.929 . S
H753 C695 0.930 . S
H754 C696 0.930 . S
H755 C697 0.930 . S
H756 C699 0.930 . S
H757 C701 0.929 . S
H758 C702 0.930 . S
H759 C703 0.930 . S
H760 C706 0.930 . S
H761 C709 0.929 . S
H762 C714 0.929 . S
H763 C715 0.930 . S
H764 C722 0.929 . S
H765 C723 0.930 . S
H766 C724 0.930 . S
H767 C725 0.930 . S
H768 C727 0.929 . S
H769 C728 0.930 . S
H770 C729 0.930 . S
H771 C730 0.930 . S
H772 C734 0.929 . S
H773 C736 0.930 . S
H774 C742 0.929 . S
H775 C743 0.930 . S
Li776 N793 1.990 . S
Li776 O836 1.956 . S
Li776 O837 1.988 . S
Li776 O838 1.961 . S
Li777 N801 1.989 1_545 S
Li777 O836 1.979 . S
Li777 O837 1.956 . S
Li777 O839 1.955 1_545 S
Li778 N823 1.990 . S
Li778 O836 1.961 . S
Li778 O838 1.956 . S
Li778 O839 1.970 1_545 S
Li779 N829 1.990 . S
Li779 O837 1.947 1_565 S
Li779 O838 1.970 1_565 S
Li779 O839 1.956 . S
C780 C782 1.348 . S
C780 C783 1.356 . S
C780 O836 1.325 . S
N781 C784 1.314 . S
N781 C785 1.279 . S
C782 C780 1.348 . S
C782 C784 1.353 . S
C782 H840 0.929 . S
C783 C780 1.356 . S
C783 C785 1.358 . S
C783 H841 0.930 . S
C784 N781 1.314 . S
C784 C782 1.353 . S
C784 H842 0.930 . S
C785 N781 1.279 . S
C785 C783 1.358 . S
C785 H843 0.930 . S
C786 C789 1.348 1_565 S
C786 C790 1.356 . S
C786 O837 1.322 1_565 S
C787 N788 1.279 . S
C787 C790 1.358 . S
C787 H844 0.930 . S
N788 C787 1.279 . S
N788 C791 1.314 1_565 S
C789 C786 1.348 1_545 S
C789 C791 1.353 . S
C789 H845 0.929 . S
C790 C786 1.356 . S
C790 C787 1.358 . S
C790 H846 0.930 . S
C791 N788 1.314 1_545 S
C791 C789 1.353 . S
C791 H847 0.930 . S
C792 N793 1.314 . S
C792 C797 1.353 . S
C792 H798 0.930 . S
N793 Li776 1.990 . S
N793 C792 1.314 . S
N793 C795 1.279 . S
C794 C795 1.358 . S
C794 C796 1.356 . S
C794 H848 0.930 . S
C795 N793 1.279 . S
C795 C794 1.358 . S
C795 H799 0.930 . S
C796 C794 1.356 . S
C796 C797 1.348 . S
C797 C792 1.353 . S
C797 C796 1.348 . S
C797 H849 0.929 . S
H798 C792 0.930 . S
H799 C795 0.930 . S
C800 N801 1.314 . S
C800 C802 1.353 . S
C800 H806 0.930 . S
N801 Li777 1.989 1_565 S
N801 C800 1.314 . S
N801 C804 1.279 . S
C802 C800 1.353 . S
C802 C805 1.348 . S
C802 H850 0.929 . S
C803 C804 1.358 . S
C803 C805 1.356 . S
C803 H851 0.930 . S
C804 N801 1.279 . S
C804 C803 1.358 . S
C804 H807 0.931 1_565 S
C805 C802 1.348 . S
C805 C803 1.356 . S
H806 C800 0.930 . S
H807 C804 0.931 1_545 S
C808 C810 1.348 1_545 S
C808 C811 1.356 . S
C808 O838 1.325 . S
N809 C812 1.314 1_545 S
N809 C813 1.279 . S
C810 C808 1.348 1_565 S
C810 C812 1.353 . S
C810 H852 0.929 . S
C811 C808 1.356 . S
C811 C813 1.358 . S
C811 H853 0.930 . S
C812 N809 1.314 1_565 S
C812 C810 1.353 . S
C812 H854 0.930 . S
C813 N809 1.279 . S
C813 C811 1.358 . S
C813 H855 0.930 . S
C814 C815 1.348 . S
C814 C816 1.356 . S
C814 O839 1.325 . S
C815 C814 1.348 . S
C815 C817 1.353 . S
C815 H856 0.929 . S
C816 C814 1.356 . S
C816 C818 1.358 . S
C816 H857 0.930 . S
C817 C815 1.353 . S
C817 N819 1.314 . S
C817 H858 0.930 . S
C818 C816 1.358 . S
C818 N819 1.279 . S
C818 H859 0.930 . S
N819 C817 1.314 . S
N819 C818 1.279 . S
C820 C822 1.353 . S
C820 N823 1.314 . S
C820 H826 0.930 . S
C821 N823 1.279 . S
C821 C824 1.358 . S
C821 H827 0.930 . S
C822 C820 1.353 . S
C822 C825 1.348 . S
C822 H860 0.929 . S
N823 Li778 1.990 . S
N823 C820 1.314 . S
N823 C821 1.279 . S
C824 C821 1.358 . S
C824 C825 1.356 . S
C824 H861 0.930 . S
C825 C822 1.348 . S
C825 C824 1.356 . S
H826 C820 0.930 . S
H827 C821 0.930 . S
C828 N829 1.314 . S
C828 C830 1.353 . S
C828 H834 0.930 . S
N829 Li779 1.990 . S
N829 C828 1.314 . S
N829 C832 1.279 . S
C830 C828 1.353 . S
C830 C833 1.348 . S
C830 H862 0.929 . S
C831 C832 1.358 . S
C831 C833 1.356 . S
C831 H863 0.930 . S
C832 N829 1.279 . S
C832 C831 1.358 . S
C832 H835 0.930 . S
C833 C830 1.348 . S
C833 C831 1.356 . S
H834 C828 0.930 . S
H835 C832 0.930 . S
O836 Li776 1.956 . S
O836 Li777 1.979 . S
O836 Li778 1.961 . S
O836 C780 1.325 . S
O837 Li776 1.988 . S
O837 Li777 1.956 . S
O837 Li779 1.947 1_545 S
O837 C786 1.322 1_545 S
O838 Li776 1.961 . S
O838 Li778 1.956 . S
O838 Li779 1.970 1_545 S
O838 C808 1.325 . S
O839 Li777 1.955 1_565 S
O839 Li778 1.970 1_565 S
O839 Li779 1.956 . S
O839 C814 1.325 . S
H840 C782 0.929 . S
H841 C783 0.930 . S
H842 C784 0.930 . S
H843 C785 0.930 . S
H844 C787 0.930 . S
H845 C789 0.929 . S
H846 C790 0.930 . S
H847 C791 0.930 . S
H848 C794 0.930 . S
H849 C797 0.929 . S
H850 C802 0.929 . S
H851 C803 0.930 . S
H852 C810 0.929 . S
H853 C811 0.930 . S
H854 C812 0.930 . S
H855 C813 0.930 . S
H856 C815 0.929 . S
H857 C816 0.930 . S
H858 C817 0.930 . S
H859 C818 0.930 . S
H860 C822 0.929 . S
H861 C824 0.930 . S
H862 C830 0.929 . S
H863 C831 0.930 . S
Li864 N881 1.990 . S
Li864 O924 1.956 . S
Li864 O925 1.970 . S
Li864 O926 1.961 . S
Li865 N889 1.990 . S
Li865 O924 1.970 . S
Li865 O925 1.956 . S
Li865 O927 1.961 . S
Li866 N911 1.990 . S
Li866 O924 1.961 . S
Li866 O926 1.956 . S
Li866 O927 1.970 . S
Li867 N917 1.990 . S
Li867 O925 1.961 . S
Li867 O926 1.970 . S
Li867 O927 1.956 . S
C868 C870 1.348 . S
C868 C871 1.356 . S
C868 O924 1.325 . S
N869 C872 1.314 . S
N869 C873 1.279 . S
C870 C868 1.348 . S
C870 C872 1.353 . S
C870 H928 0.929 . S
C871 C868 1.356 . S
C871 C873 1.358 . S
C871 H929 0.930 . S
C872 N869 1.314 . S
C872 C870 1.353 . S
C872 H930 0.930 . S
C873 N869 1.279 . S
C873 C871 1.358 . S
C873 H931 0.930 . S
C874 C877 1.348 . S
C874 C878 1.356 . S
C874 O925 1.325 . S
C875 N876 1.279 . S
C875 C878 1.358 . S
C875 H932 0.930 . S
N876 C875 1.279 . S
N876 C879 1.314 . S
C877 C874 1.348 . S
C877 C879 1.353 . S
C877 H933 0.929 . S
C878 C874 1.356 . S
C878 C875 1.358 . S
C878 H934 0.930 . S
C879 N876 1.314 . S
C879 C877 1.353 . S
C879 H935 0.930 . S
C880 N881 1.314 . S
C880 C885 1.353 . S
C880 H886 0.930 . S
N881 Li864 1.990 . S
N881 C880 1.314 . S
N881 C883 1.279 . S
C882 C883 1.358 . S
C882 C884 1.356 . S
C882 H936 0.930 . S
C883 N881 1.279 . S
C883 C882 1.358 . S
C883 H887 0.930 . S
C884 C882 1.356 . S
C884 C885 1.348 . S
C885 C880 1.353 . S
C885 C884 1.348 . S
C885 H937 0.929 . S
H886 C880 0.930 . S
H887 C883 0.930 . S
C888 N889 1.314 . S
C888 C890 1.353 . S
C888 H894 0.930 . S
N889 Li865 1.990 . S
N889 C888 1.314 . S
N889 C892 1.279 . S
C890 C888 1.353 . S
C890 C893 1.348 . S
C890 H938 0.929 . S
C891 C892 1.358 . S
C891 C893 1.356 . S
C891 H939 0.930 . S
C892 N889 1.279 . S
C892 C891 1.358 . S
C892 H895 0.930 . S
C893 C890 1.348 . S
C893 C891 1.356 . S
H894 C888 0.930 . S
H895 C892 0.930 . S
C896 C898 1.348 . S
C896 C899 1.356 . S
C896 O926 1.325 . S
N897 C900 1.314 . S
N897 C901 1.279 . S
C898 C896 1.348 . S
C898 C900 1.353 . S
C898 H940 0.929 . S
C899 C896 1.356 . S
C899 C901 1.358 . S
C899 H941 0.930 . S
C900 N897 1.314 . S
C900 C898 1.353 . S
C900 H942 0.930 . S
C901 N897 1.279 . S
C901 C899 1.358 . S
C901 H943 0.930 . S
C902 C903 1.348 . S
C902 C904 1.356 . S
C902 O927 1.325 . S
C903 C902 1.348 . S
C903 C905 1.353 . S
C903 H944 0.929 . S
C904 C902 1.356 . S
C904 C906 1.358 . S
C904 H945 0.930 . S
C905 C903 1.353 . S
C905 N907 1.314 . S
C905 H946 0.930 . S
C906 C904 1.358 . S
C906 N907 1.279 . S
C906 H947 0.930 . S
N907 C905 1.314 . S
N907 C906 1.279 . S
C908 C910 1.353 . S
C908 N911 1.314 . S
C908 H914 0.930 . S
C909 N911 1.279 . S
C909 C912 1.358 . S
C909 H915 0.930 . S
C910 C908 1.353 . S
C910 C913 1.348 . S
C910 H948 0.929 . S
N911 Li866 1.990 . S
N911 C908 1.314 . S
N911 C909 1.279 . S
C912 C909 1.358 . S
C912 C913 1.356 . S
C912 H949 0.930 . S
C913 C910 1.348 . S
C913 C912 1.356 . S
H914 C908 0.930 . S
H915 C909 0.930 . S
C916 N917 1.314 . S
C916 C918 1.353 . S
C916 H922 0.930 . S
N917 Li867 1.990 . S
N917 C916 1.314 . S
N917 C920 1.279 . S
C918 C916 1.353 . S
C918 C921 1.348 . S
C918 H950 0.929 . S
C919 C920 1.358 . S
C919 C921 1.356 . S
C919 H951 0.930 . S
C920 N917 1.279 . S
C920 C919 1.358 . S
C920 H923 0.930 . S
C921 C918 1.348 . S
C921 C919 1.356 . S
H922 C916 0.930 . S
H923 C920 0.930 . S
O924 Li864 1.956 . S
O924 Li865 1.970 . S
O924 Li866 1.961 . S
O924 C868 1.325 . S
O925 Li864 1.970 . S
O925 Li865 1.956 . S
O925 Li867 1.961 . S
O925 C874 1.325 . S
O926 Li864 1.961 . S
O926 Li866 1.956 . S
O926 Li867 1.970 . S
O926 C896 1.325 . S
O927 Li865 1.961 . S
O927 Li866 1.970 . S
O927 Li867 1.956 . S
O927 C902 1.325 . S
H928 C870 0.929 . S
H929 C871 0.930 . S
H930 C872 0.930 . S
H931 C873 0.930 . S
H932 C875 0.930 . S
H933 C877 0.929 . S
H934 C878 0.930 . S
H935 C879 0.930 . S
H936 C882 0.930 . S
H937 C885 0.929 . S
H938 C890 0.929 . S
H939 C891 0.930 . S
H940 C898 0.929 . S
H941 C899 0.930 . S
H942 C900 0.930 . S
H943 C901 0.930 . S
H944 C903 0.929 . S
H945 C904 0.930 . S
H946 C905 0.930 . S
H947 C906 0.930 . S
H948 C910 0.929 . S
H949 C912 0.930 . S
H950 C918 0.929 . S
H951 C919 0.930 . S
Li952 N969 1.990 . S
Li952 O1012 1.956 . S
Li952 O1013 1.970 . S
Li952 O1014 1.961 . S
Li953 N977 1.990 . S
Li953 O1012 1.970 . S
Li953 O1013 1.956 . S
Li953 O1015 1.961 . S
Li954 N999 1.990 . S
Li954 O1012 1.961 . S
Li954 O1014 1.956 . S
Li954 O1015 1.970 . S
Li955 N1005 1.990 . S
Li955 O1013 1.961 . S
Li955 O1014 1.970 . S
Li955 O1015 1.956 . S
C956 C958 1.348 . S
C956 C959 1.356 . S
C956 O1012 1.325 . S
N957 C960 1.314 . S
N957 C961 1.279 . S
C958 C956 1.348 . S
C958 C960 1.353 . S
C958 H1016 0.929 . S
C959 C956 1.356 . S
C959 C961 1.358 . S
C959 H1017 0.930 . S
C960 N957 1.314 . S
C960 C958 1.353 . S
C960 H1018 0.930 . S
C961 N957 1.279 . S
C961 C959 1.358 . S
C961 H1019 0.930 . S
C962 C965 1.348 . S
C962 C966 1.356 . S
C962 O1013 1.325 . S
C963 N964 1.279 . S
C963 C966 1.358 . S
C963 H1020 0.930 . S
N964 C963 1.279 . S
N964 C967 1.314 . S
C965 C962 1.348 . S
C965 C967 1.353 . S
C965 H1021 0.929 . S
C966 C962 1.356 . S
C966 C963 1.358 . S
C966 H1022 0.930 . S
C967 N964 1.314 . S
C967 C965 1.353 . S
C967 H1023 0.930 . S
C968 N969 1.314 . S
C968 C973 1.353 . S
C968 H974 0.930 . S
N969 Li952 1.990 . S
N969 C968 1.314 . S
N969 C971 1.279 . S
C970 C971 1.358 . S
C970 C972 1.356 . S
C970 H1024 0.930 . S
C971 N969 1.279 . S
C971 C970 1.358 . S
C971 H975 0.930 . S
C972 C970 1.356 . S
C972 C973 1.348 . S
C973 C968 1.353 . S
C973 C972 1.348 . S
C973 H1025 0.929 . S
H974 C968 0.930 . S
H975 C971 0.930 . S
C976 N977 1.314 . S
C976 C978 1.353 . S
C976 H982 0.930 . S
N977 Li953 1.990 . S
N977 C976 1.314 . S
N977 C980 1.279 . S
C978 C976 1.353 . S
C978 C981 1.348 . S
C978 H1026 0.929 . S
C979 C980 1.358 . S
C979 C981 1.356 . S
C979 H1027 0.930 . S
C980 N977 1.279 . S
C980 C979 1.358 . S
C980 H983 0.930 . S
C981 C978 1.348 . S
C981 C979 1.356 . S
H982 C976 0.930 . S
H983 C980 0.930 . S
C984 C986 1.348 . S
C984 C987 1.356 . S
C984 O1014 1.325 . S
N985 C988 1.314 . S
N985 C989 1.279 . S
C986 C984 1.348 . S
C986 C988 1.353 . S
C986 H1028 0.929 . S
C987 C984 1.356 . S
C987 C989 1.358 . S
C987 H1029 0.930 . S
C988 N985 1.314 . S
C988 C986 1.353 . S
C988 H1030 0.930 . S
C989 N985 1.279 . S
C989 C987 1.358 . S
C989 H1031 0.930 . S
C990 C991 1.348 . S
C990 C992 1.356 . S
C990 O1015 1.325 . S
C991 C990 1.348 . S
C991 C993 1.353 . S
C991 H1032 0.929 . S
C992 C990 1.356 . S
C992 C994 1.358 . S
C992 H1033 0.930 . S
C993 C991 1.353 . S
C993 N995 1.314 . S
C993 H1034 0.930 . S
C994 C992 1.358 . S
C994 N995 1.279 . S
C994 H1035 0.930 . S
N995 C993 1.314 . S
N995 C994 1.279 . S
C996 C998 1.353 . S
C996 N999 1.314 . S
C996 H1002 0.930 . S
C997 N999 1.279 . S
C997 C1000 1.358 . S
C997 H1003 0.930 . S
C998 C996 1.353 . S
C998 C1001 1.348 . S
C998 H1036 0.929 . S
N999 Li954 1.990 . S
N999 C996 1.314 . S
N999 C997 1.279 . S
C1000 C997 1.358 . S
C1000 C1001 1.356 . S
C1000 H1037 0.930 . S
C1001 C998 1.348 . S
C1001 C1000 1.356 . S
H1002 C996 0.930 . S
H1003 C997 0.930 . S
C1004 N1005 1.314 . S
C1004 C1006 1.353 . S
C1004 H1010 0.930 . S
N1005 Li955 1.990 . S
N1005 C1004 1.314 . S
N1005 C1008 1.279 . S
C1006 C1004 1.353 . S
C1006 C1009 1.348 . S
C1006 H1038 0.929 . S
C1007 C1008 1.358 . S
C1007 C1009 1.356 . S
C1007 H1039 0.930 . S
C1008 N1005 1.279 . S
C1008 C1007 1.358 . S
C1008 H1011 0.930 . S
C1009 C1006 1.348 . S
C1009 C1007 1.356 . S
H1010 C1004 0.930 . S
H1011 C1008 0.930 . S
O1012 Li952 1.956 . S
O1012 Li953 1.970 . S
O1012 Li954 1.961 . S
O1012 C956 1.325 . S
O1013 Li952 1.970 . S
O1013 Li953 1.956 . S
O1013 Li955 1.961 . S
O1013 C962 1.325 . S
O1014 Li952 1.961 . S
O1014 Li954 1.956 . S
O1014 Li955 1.970 . S
O1014 C984 1.325 . S
O1015 Li953 1.961 . S
O1015 Li954 1.970 . S
O1015 Li955 1.956 . S
O1015 C990 1.325 . S
H1016 C958 0.929 . S
H1017 C959 0.930 . S
H1018 C960 0.930 . S
H1019 C961 0.930 . S
H1020 C963 0.930 . S
H1021 C965 0.929 . S
H1022 C966 0.930 . S
H1023 C967 0.930 . S
H1024 C970 0.930 . S
H1025 C973 0.929 . S
H1026 C978 0.929 . S
H1027 C979 0.930 . S
H1028 C986 0.929 . S
H1029 C987 0.930 . S
H1030 C988 0.930 . S
H1031 C989 0.930 . S
H1032 C991 0.929 . S
H1033 C992 0.930 . S
H1034 C993 0.930 . S
H1035 C994 0.930 . S
H1036 C998 0.929 . S
H1037 C1000 0.930 . S
H1038 C1006 0.929 . S
H1039 C1007 0.930 . S
Li1040 N1057 1.990 . S
Li1040 O1100 1.956 . S
Li1040 O1101 1.970 . S
Li1040 O1102 1.961 . S
Li1041 N1065 1.990 . S
Li1041 O1100 1.970 . S
Li1041 O1101 1.956 . S
Li1041 O1103 1.961 . S
Li1042 N1087 1.990 . S
Li1042 O1100 1.961 . S
Li1042 O1102 1.956 . S
Li1042 O1103 1.970 . S
Li1043 N1093 1.990 . S
Li1043 O1101 1.961 . S
Li1043 O1102 1.970 . S
Li1043 O1103 1.956 . S
C1044 C1046 1.348 . S
C1044 C1047 1.356 . S
C1044 O1100 1.325 . S
N1045 C1048 1.314 . S
N1045 C1049 1.279 . S
C1046 C1044 1.348 . S
C1046 C1048 1.353 . S
C1046 H1104 0.929 . S
C1047 C1044 1.356 . S
C1047 C1049 1.358 . S
C1047 H1105 0.930 . S
C1048 N1045 1.314 . S
C1048 C1046 1.353 . S
C1048 H1106 0.930 . S
C1049 N1045 1.279 . S
C1049 C1047 1.358 . S
C1049 H1107 0.930 . S
C1050 C1053 1.348 . S
C1050 C1054 1.356 . S
C1050 O1101 1.325 . S
C1051 N1052 1.279 . S
C1051 C1054 1.358 . S
C1051 H1108 0.930 . S
N1052 C1051 1.279 . S
N1052 C1055 1.314 . S
C1053 C1050 1.348 . S
C1053 C1055 1.353 . S
C1053 H1109 0.929 . S
C1054 C1050 1.356 . S
C1054 C1051 1.358 . S
C1054 H1110 0.930 . S
C1055 N1052 1.314 . S
C1055 C1053 1.353 . S
C1055 H1111 0.930 . S
C1056 N1057 1.314 . S
C1056 C1061 1.353 . S
C1056 H1062 0.930 . S
N1057 Li1040 1.990 . S
N1057 C1056 1.314 . S
N1057 C1059 1.279 . S
C1058 C1059 1.358 . S
C1058 C1060 1.356 . S
C1058 H1112 0.930 . S
C1059 N1057 1.279 . S
C1059 C1058 1.358 . S
C1059 H1063 0.930 . S
C1060 C1058 1.356 . S
C1060 C1061 1.348 . S
C1061 C1056 1.353 . S
C1061 C1060 1.348 . S
C1061 H1113 0.929 . S
H1062 C1056 0.930 . S
H1063 C1059 0.930 . S
C1064 N1065 1.314 . S
C1064 C1066 1.353 . S
C1064 H1070 0.930 . S
N1065 Li1041 1.990 . S
N1065 C1064 1.314 . S
N1065 C1068 1.279 . S
C1066 C1064 1.353 . S
C1066 C1069 1.348 . S
C1066 H1114 0.929 . S
C1067 C1068 1.358 . S
C1067 C1069 1.356 . S
C1067 H1115 0.930 . S
C1068 N1065 1.279 . S
C1068 C1067 1.358 . S
C1068 H1071 0.930 . S
C1069 C1066 1.348 . S
C1069 C1067 1.356 . S
H1070 C1064 0.930 . S
H1071 C1068 0.930 . S
C1072 C1074 1.348 . S
C1072 C1075 1.356 . S
C1072 O1102 1.325 . S
N1073 C1076 1.314 . S
N1073 C1077 1.279 . S
C1074 C1072 1.348 . S
C1074 C1076 1.353 . S
C1074 H1116 0.929 . S
C1075 C1072 1.356 . S
C1075 C1077 1.358 . S
C1075 H1117 0.930 . S
C1076 N1073 1.314 . S
C1076 C1074 1.353 . S
C1076 H1118 0.930 . S
C1077 N1073 1.279 . S
C1077 C1075 1.358 . S
C1077 H1119 0.930 . S
C1078 C1079 1.348 . S
C1078 C1080 1.356 . S
C1078 O1103 1.325 . S
C1079 C1078 1.348 . S
C1079 C1081 1.353 . S
C1079 H1120 0.929 . S
C1080 C1078 1.356 . S
C1080 C1082 1.358 . S
C1080 H1121 0.930 . S
C1081 C1079 1.353 . S
C1081 N1083 1.314 . S
C1081 H1122 0.930 . S
C1082 C1080 1.358 . S
C1082 N1083 1.279 . S
C1082 H1123 0.930 . S
N1083 C1081 1.314 . S
N1083 C1082 1.279 . S
C1084 C1086 1.353 . S
C1084 N1087 1.314 . S
C1084 H1090 0.930 . S
C1085 N1087 1.279 . S
C1085 C1088 1.358 . S
C1085 H1091 0.930 . S
C1086 C1084 1.353 . S
C1086 C1089 1.348 . S
C1086 H1124 0.929 . S
N1087 Li1042 1.990 . S
N1087 C1084 1.314 . S
N1087 C1085 1.279 . S
C1088 C1085 1.358 . S
C1088 C1089 1.356 . S
C1088 H1125 0.930 . S
C1089 C1086 1.348 . S
C1089 C1088 1.356 . S
H1090 C1084 0.930 . S
H1091 C1085 0.930 . S
C1092 N1093 1.314 . S
C1092 C1094 1.353 . S
C1092 H1098 0.930 . S
N1093 Li1043 1.990 . S
N1093 C1092 1.314 . S
N1093 C1096 1.279 . S
C1094 C1092 1.353 . S
C1094 C1097 1.348 . S
C1094 H1126 0.929 . S
C1095 C1096 1.358 . S
C1095 C1097 1.356 . S
C1095 H1127 0.930 . S
C1096 N1093 1.279 . S
C1096 C1095 1.358 . S
C1096 H1099 0.930 . S
C1097 C1094 1.348 . S
C1097 C1095 1.356 . S
H1098 C1092 0.930 . S
H1099 C1096 0.930 . S
O1100 Li1040 1.956 . S
O1100 Li1041 1.970 . S
O1100 Li1042 1.961 . S
O1100 C1044 1.325 . S
O1101 Li1040 1.970 . S
O1101 Li1041 1.956 . S
O1101 Li1043 1.961 . S
O1101 C1050 1.325 . S
O1102 Li1040 1.961 . S
O1102 Li1042 1.956 . S
O1102 Li1043 1.970 . S
O1102 C1072 1.325 . S
O1103 Li1041 1.961 . S
O1103 Li1042 1.970 . S
O1103 Li1043 1.956 . S
O1103 C1078 1.325 . S
H1104 C1046 0.929 . S
H1105 C1047 0.930 . S
H1106 C1048 0.930 . S
H1107 C1049 0.930 . S
H1108 C1051 0.930 . S
H1109 C1053 0.929 . S
H1110 C1054 0.930 . S
H1111 C1055 0.930 . S
H1112 C1058 0.930 . S
H1113 C1061 0.929 . S
H1114 C1066 0.929 . S
H1115 C1067 0.930 . S
H1116 C1074 0.929 . S
H1117 C1075 0.930 . S
H1118 C1076 0.930 . S
H1119 C1077 0.930 . S
H1120 C1079 0.929 . S
H1121 C1080 0.930 . S
H1122 C1081 0.930 . S
H1123 C1082 0.930 . S
H1124 C1086 0.929 . S
H1125 C1088 0.930 . S
H1126 C1094 0.929 . S
H1127 C1095 0.930 . S
Li1128 N1145 1.990 . S
Li1128 O1188 1.956 . S
Li1128 O1189 1.970 1_565 S
Li1128 O1190 1.960 1_565 S
Li1129 N1153 1.990 . S
Li1129 O1188 1.970 1_545 S
Li1129 O1189 1.956 . S
Li1129 O1191 1.961 . S
Li1130 N1175 1.991 . S
Li1130 O1188 1.965 . S
Li1130 O1190 1.956 1_565 S
Li1130 O1191 1.965 1_565 S
Li1131 N1181 1.990 . S
Li1131 O1189 1.961 . S
Li1131 O1190 1.972 . S
Li1131 O1191 1.956 . S
C1132 C1134 1.348 . S
C1132 C1135 1.356 . S
C1132 O1188 1.325 . S
N1133 C1136 1.314 . S
N1133 C1137 1.279 . S
C1134 C1132 1.348 . S
C1134 C1136 1.353 . S
C1134 H1192 0.929 . S
C1135 C1132 1.356 . S
C1135 C1137 1.358 . S
C1135 H1193 0.930 . S
C1136 N1133 1.314 . S
C1136 C1134 1.353 . S
C1136 H1194 0.930 . S
C1137 N1133 1.279 . S
C1137 C1135 1.358 . S
C1137 H1195 0.930 . S
C1138 C1141 1.348 1_545 S
C1138 C1142 1.356 . S
C1138 O1189 1.325 . S
C1139 N1140 1.279 . S
C1139 C1142 1.358 . S
C1139 H1196 0.930 . S
N1140 C1139 1.279 . S
N1140 C1143 1.314 1_545 S
C1141 C1138 1.348 1_565 S
C1141 C1143 1.353 . S
C1141 H1197 0.929 . S
C1142 C1138 1.356 . S
C1142 C1139 1.358 . S
C1142 H1198 0.930 . S
C1143 N1140 1.314 1_565 S
C1143 C1141 1.353 . S
C1143 H1199 0.930 . S
C1144 N1145 1.314 . S
C1144 C1149 1.353 . S
C1144 H1150 0.930 . S
N1145 Li1128 1.990 . S
N1145 C1144 1.314 . S
N1145 C1147 1.279 . S
C1146 C1147 1.358 . S
C1146 C1148 1.356 . S
C1146 H1200 0.930 . S
C1147 N1145 1.279 . S
C1147 C1146 1.358 . S
C1147 H1151 0.930 . S
C1148 C1146 1.356 . S
C1148 C1149 1.348 . S
C1149 C1144 1.353 . S
C1149 C1148 1.348 . S
C1149 H1201 0.929 . S
H1150 C1144 0.930 . S
H1151 C1147 0.930 . S
C1152 N1153 1.314 . S
C1152 C1154 1.353 . S
C1152 H1158 0.930 . S
N1153 Li1129 1.990 . S
N1153 C1152 1.314 . S
N1153 C1156 1.279 . S
C1154 C1152 1.353 . S
C1154 C1157 1.348 . S
C1154 H1202 0.929 . S
C1155 C1156 1.358 . S
C1155 C1157 1.356 . S
C1155 H1203 0.930 . S
C1156 N1153 1.279 . S
C1156 C1155 1.358 . S
C1156 H1159 0.930 . S
C1157 C1154 1.348 . S
C1157 C1155 1.356 . S
H1158 C1152 0.930 . S
H1159 C1156 0.930 . S
C1160 C1162 1.348 1_565 S
C1160 C1163 1.356 . S
C1160 O1190 1.325 1_565 S
N1161 C1164 1.314 1_565 S
N1161 C1165 1.279 . S
C1162 C1160 1.348 1_545 S
C1162 C1164 1.353 . S
C1162 H1204 0.929 . S
C1163 C1160 1.356 . S
C1163 C1165 1.358 . S
C1163 H1205 0.930 . S
C1164 N1161 1.314 1_545 S
C1164 C1162 1.353 . S
C1164 H1206 0.930 . S
C1165 N1161 1.279 . S
C1165 C1163 1.358 . S
C1165 H1207 0.930 . S
C1166 C1167 1.348 . S
C1166 C1168 1.356 . S
C1166 O1191 1.325 . S
C1167 C1166 1.348 . S
C1167 C1169 1.353 . S
C1167 H1208 0.929 . S
C1168 C1166 1.356 . S
C1168 C1170 1.358 . S
C1168 H1209 0.930 . S
C1169 C1167 1.353 . S
C1169 N1171 1.314 . S
C1169 H1210 0.930 . S
C1170 C1168 1.358 . S
C1170 N1171 1.279 . S
C1170 H1211 0.930 . S
N1171 C1169 1.314 . S
N1171 C1170 1.279 . S
C1172 C1174 1.353 . S
C1172 N1175 1.314 . S
C1172 H1178 0.930 . S
C1173 N1175 1.279 . S
C1173 C1176 1.358 . S
C1173 H1179 0.928 1_565 S
C1174 C1172 1.353 . S
C1174 C1177 1.348 . S
C1174 H1212 0.929 . S
N1175 Li1130 1.991 . S
N1175 C1172 1.314 . S
N1175 C1173 1.279 . S
C1176 C1173 1.358 . S
C1176 C1177 1.356 . S
C1176 H1213 0.930 . S
C1177 C1174 1.348 . S
C1177 C1176 1.356 . S
H1178 C1172 0.930 . S
H1179 C1173 0.928 1_545 S
C1180 N1181 1.314 . S
C1180 C1182 1.353 . S
C1180 H1186 0.930 . S
N1181 Li1131 1.990 . S
N1181 C1180 1.314 . S
N1181 C1184 1.279 . S
C1182 C1180 1.353 . S
C1182 C1185 1.348 . S
C1182 H1214 0.929 . S
C1183 C1184 1.358 . S
C1183 C1185 1.356 . S
C1183 H1215 0.930 . S
C1184 N1181 1.279 . S
C1184 C1183 1.358 . S
C1184 H1187 0.930 . S
C1185 C1182 1.348 . S
C1185 C1183 1.356 . S
H1186 C1180 0.930 . S
H1187 C1184 0.930 . S
O1188 Li1128 1.956 . S
O1188 Li1129 1.970 1_565 S
O1188 Li1130 1.965 . S
O1188 C1132 1.325 . S
O1189 Li1128 1.970 1_545 S
O1189 Li1129 1.956 . S
O1189 Li1131 1.961 . S
O1189 C1138 1.325 . S
O1190 Li1128 1.960 1_545 S
O1190 Li1130 1.956 1_545 S
O1190 Li1131 1.972 . S
O1190 C1160 1.325 1_545 S
O1191 Li1129 1.961 . S
O1191 Li1130 1.965 1_545 S
O1191 Li1131 1.956 . S
O1191 C1166 1.325 . S
H1192 C1134 0.929 . S
H1193 C1135 0.930 . S
H1194 C1136 0.930 . S
H1195 C1137 0.930 . S
H1196 C1139 0.930 . S
H1197 C1141 0.929 . S
H1198 C1142 0.930 . S
H1199 C1143 0.930 . S
H1200 C1146 0.930 . S
H1201 C1149 0.929 . S
H1202 C1154 0.929 . S
H1203 C1155 0.930 . S
H1204 C1162 0.929 . S
H1205 C1163 0.930 . S
H1206 C1164 0.930 . S
H1207 C1165 0.930 . S
H1208 C1167 0.929 . S
H1209 C1168 0.930 . S
H1210 C1169 0.930 . S
H1211 C1170 0.930 . S
H1212 C1174 0.929 . S
H1213 C1176 0.930 . S
H1214 C1182 0.929 . S
H1215 C1183 0.930 . S
Li1216 N1233 1.990 . S
Li1216 O1276 1.956 . S
Li1216 O1277 1.970 . S
Li1216 O1278 1.961 . S
Li1217 N1241 1.980 1_455 S
Li1217 O1276 1.970 . S
Li1217 O1277 1.956 . S
Li1217 O1279 1.961 1_455 S
Li1218 N1263 1.990 . S
Li1218 O1276 1.961 . S
Li1218 O1278 1.956 . S
Li1218 O1279 1.970 1_455 S
Li1219 N1269 1.990 . S
Li1219 O1277 1.961 1_655 S
Li1219 O1278 1.970 1_655 S
Li1219 O1279 1.956 . S
C1220 C1222 1.348 . S
C1220 C1223 1.356 . S
C1220 O1276 1.325 . S
N1221 C1224 1.314 . S
N1221 C1225 1.279 . S
C1222 C1220 1.348 . S
C1222 C1224 1.353 . S
C1222 H1280 0.929 . S
C1223 C1220 1.356 . S
C1223 C1225 1.358 . S
C1223 H1281 0.930 . S
C1224 N1221 1.314 . S
C1224 C1222 1.353 . S
C1224 H1282 0.930 . S
C1225 N1221 1.279 . S
C1225 C1223 1.358 . S
C1225 H1283 0.930 . S
C1226 C1229 1.348 . S
C1226 C1230 1.356 1_455 S
C1226 O1277 1.325 . S
C1227 N1228 1.279 . S
C1227 C1230 1.358 . S
C1227 H1284 0.930 . S
N1228 C1227 1.279 . S
N1228 C1231 1.314 1_655 S
C1229 C1226 1.348 . S
C1229 C1231 1.353 . S
C1229 H1285 0.929 . S
C1230 C1226 1.356 1_655 S
C1230 C1227 1.358 . S
C1230 H1286 0.930 . S
C1231 N1228 1.314 1_455 S
C1231 C1229 1.353 . S
C1231 H1287 0.930 . S
C1232 N1233 1.314 . S
C1232 C1237 1.353 . S
C1232 H1238 0.930 . S
N1233 Li1216 1.990 . S
N1233 C1232 1.314 . S
N1233 C1235 1.279 . S
C1234 C1235 1.358 . S
C1234 C1236 1.356 . S
C1234 H1288 0.930 . S
C1235 N1233 1.279 . S
C1235 C1234 1.358 . S
C1235 H1239 0.930 . S
C1236 C1234 1.356 . S
C1236 C1237 1.348 . S
C1237 C1232 1.353 . S
C1237 C1236 1.348 . S
C1237 H1289 0.929 . S
H1238 C1232 0.930 . S
H1239 C1235 0.930 . S
C1240 N1241 1.330 . S
C1240 C1242 1.353 . S
C1240 H1246 0.930 . S
N1241 Li1217 1.980 1_655 S
N1241 C1240 1.330 . S
N1241 C1244 1.274 1_655 S
C1242 C1240 1.353 . S
C1242 C1245 1.348 . S
C1242 H1290 0.929 . S
C1243 C1244 1.352 1_655 S
C1243 C1245 1.366 . S
C1243 H1291 0.927 1_655 S
C1244 N1241 1.274 1_455 S
C1244 C1243 1.352 1_455 S
C1244 H1247 0.943 . S
C1245 C1242 1.348 . S
C1245 C1243 1.366 . S
H1246 C1240 0.930 . S
H1247 C1244 0.943 . S
C1248 C1250 1.348 1_455 S
C1248 C1251 1.356 . S
C1248 O1278 1.325 . S
N1249 C1252 1.360 . S
N1249 C1253 1.279 . S
C1250 C1248 1.348 1_655 S
C1250 C1252 1.344 1_655 S
C1250 H1292 0.929 . S
C1251 C1248 1.356 . S
C1251 C1253 1.358 . S
C1251 H1293 0.930 . S
C1252 N1249 1.360 . S
C1252 C1250 1.344 1_455 S
C1252 H1294 0.890 1_455 S
C1253 N1249 1.279 . S
C1253 C1251 1.358 . S
C1253 H1295 0.930 . S
C1254 C1255 1.348 . S
C1254 C1256 1.356 . S
C1254 O1279 1.325 . S
C1255 C1254 1.348 . S
C1255 C1257 1.353 . S
C1255 H1296 0.929 . S
C1256 C1254 1.356 . S
C1256 C1258 1.358 . S
C1256 H1297 0.930 . S
C1257 C1255 1.353 . S
C1257 N1259 1.314 . S
C1257 H1298 0.930 . S
C1258 C1256 1.358 . S
C1258 N1259 1.279 . S
C1258 H1299 0.930 . S
N1259 C1257 1.314 . S
N1259 C1258 1.279 . S
C1260 C1262 1.353 . S
C1260 N1263 1.314 . S
C1260 H1266 0.930 . S
C1261 N1263 1.279 . S
C1261 C1264 1.358 . S
C1261 H1267 0.930 . S
C1262 C1260 1.353 . S
C1262 C1265 1.348 . S
C1262 H1300 0.929 . S
N1263 Li1218 1.990 . S
N1263 C1260 1.314 . S
N1263 C1261 1.279 . S
C1264 C1261 1.358 . S
C1264 C1265 1.356 . S
C1264 H1301 0.930 . S
C1265 C1262 1.348 . S
C1265 C1264 1.356 . S
H1266 C1260 0.930 . S
H1267 C1261 0.930 . S
C1268 N1269 1.314 . S
C1268 C1270 1.353 . S
C1268 H1274 0.930 . S
N1269 Li1219 1.990 . S
N1269 C1268 1.314 . S
N1269 C1272 1.279 . S
C1270 C1268 1.353 . S
C1270 C1273 1.348 . S
C1270 H1302 0.929 . S
C1271 C1272 1.358 . S
C1271 C1273 1.356 . S
C1271 H1303 0.930 . S
C1272 N1269 1.279 . S
C1272 C1271 1.358 . S
C1272 H1275 0.930 . S
C1273 C1270 1.348 . S
C1273 C1271 1.356 . S
H1274 C1268 0.930 . S
H1275 C1272 0.930 . S
O1276 Li1216 1.956 . S
O1276 Li1217 1.970 . S
O1276 Li1218 1.961 . S
O1276 C1220 1.325 . S
O1277 Li1216 1.970 . S
O1277 Li1217 1.956 . S
O1277 Li1219 1.961 1_455 S
O1277 C1226 1.325 . S
O1278 Li1216 1.961 . S
O1278 Li1218 1.956 . S
O1278 Li1219 1.970 1_455 S
O1278 C1248 1.325 . S
O1279 Li1217 1.961 1_655 S
O1279 Li1218 1.970 1_655 S
O1279 Li1219 1.956 . S
O1279 C1254 1.325 . S
H1280 C1222 0.929 . S
H1281 C1223 0.930 . S
H1282 C1224 0.930 . S
H1283 C1225 0.930 . S
H1284 C1227 0.930 . S
H1285 C1229 0.929 . S
H1286 C1230 0.930 . S
H1287 C1231 0.930 . S
H1288 C1234 0.930 . S
H1289 C1237 0.929 . S
H1290 C1242 0.929 . S
H1291 C1243 0.927 1_455 S
H1292 C1250 0.929 . S
H1293 C1251 0.930 . S
H1294 C1252 0.890 1_655 S
H1295 C1253 0.930 . S
H1296 C1255 0.929 . S
H1297 C1256 0.930 . S
H1298 C1257 0.930 . S
H1299 C1258 0.930 . S
H1300 C1262 0.929 . S
H1301 C1264 0.930 . S
H1302 C1270 0.929 . S
H1303 C1271 0.930 . S
Li1304 N1321 1.990 . S
Li1304 O1364 1.956 . S
Li1304 O1365 1.970 . S
Li1304 O1366 1.961 . S
Li1305 N1329 1.990 . S
Li1305 O1364 1.970 . S
Li1305 O1365 1.956 . S
Li1305 O1367 1.961 . S
Li1306 N1351 1.990 . S
Li1306 O1364 1.961 . S
Li1306 O1366 1.956 . S
Li1306 O1367 1.970 . S
Li1307 N1357 1.990 . S
Li1307 O1365 1.961 . S
Li1307 O1366 1.970 . S
Li1307 O1367 1.956 . S
C1308 C1310 1.348 . S
C1308 C1311 1.356 . S
C1308 O1364 1.325 . S
N1309 C1312 1.314 . S
N1309 C1313 1.279 . S
C1310 C1308 1.348 . S
C1310 C1312 1.353 . S
C1310 H1368 0.929 . S
C1311 C1308 1.356 . S
C1311 C1313 1.358 . S
C1311 H1369 0.930 . S
C1312 N1309 1.314 . S
C1312 C1310 1.353 . S
C1312 H1370 0.930 . S
C1313 N1309 1.279 . S
C1313 C1311 1.358 . S
C1313 H1371 0.930 . S
C1314 C1317 1.348 . S
C1314 C1318 1.356 . S
C1314 O1365 1.325 . S
C1315 N1316 1.279 . S
C1315 C1318 1.358 . S
C1315 H1372 0.930 . S
N1316 C1315 1.279 . S
N1316 C1319 1.314 . S
C1317 C1314 1.348 . S
C1317 C1319 1.353 . S
C1317 H1373 0.929 . S
C1318 C1314 1.356 . S
C1318 C1315 1.358 . S
C1318 H1374 0.930 . S
C1319 N1316 1.314 . S
C1319 C1317 1.353 . S
C1319 H1375 0.930 . S
C1320 N1321 1.314 . S
C1320 C1325 1.353 . S
C1320 H1326 0.930 . S
N1321 Li1304 1.990 . S
N1321 C1320 1.314 . S
N1321 C1323 1.279 . S
C1322 C1323 1.358 . S
C1322 C1324 1.356 . S
C1322 H1376 0.930 . S
C1323 N1321 1.279 . S
C1323 C1322 1.358 . S
C1323 H1327 0.930 . S
C1324 C1322 1.356 . S
C1324 C1325 1.348 . S
C1325 C1320 1.353 . S
C1325 C1324 1.348 . S
C1325 H1377 0.929 . S
H1326 C1320 0.930 . S
H1327 C1323 0.930 . S
C1328 N1329 1.314 . S
C1328 C1330 1.353 . S
C1328 H1334 0.930 . S
N1329 Li1305 1.990 . S
N1329 C1328 1.314 . S
N1329 C1332 1.279 . S
C1330 C1328 1.353 . S
C1330 C1333 1.348 . S
C1330 H1378 0.929 . S
C1331 C1332 1.358 . S
C1331 C1333 1.356 . S
C1331 H1379 0.930 . S
C1332 N1329 1.279 . S
C1332 C1331 1.358 . S
C1332 H1335 0.930 . S
C1333 C1330 1.348 . S
C1333 C1331 1.356 . S
H1334 C1328 0.930 . S
H1335 C1332 0.930 . S
C1336 C1338 1.348 . S
C1336 C1339 1.356 . S
C1336 O1366 1.325 . S
N1337 C1340 1.314 . S
N1337 C1341 1.279 . S
C1338 C1336 1.348 . S
C1338 C1340 1.353 . S
C1338 H1380 0.929 . S
C1339 C1336 1.356 . S
C1339 C1341 1.358 . S
C1339 H1381 0.930 . S
C1340 N1337 1.314 . S
C1340 C1338 1.353 . S
C1340 H1382 0.930 . S
C1341 N1337 1.279 . S
C1341 C1339 1.358 . S
C1341 H1383 0.930 . S
C1342 C1343 1.348 . S
C1342 C1344 1.356 . S
C1342 O1367 1.325 . S
C1343 C1342 1.348 . S
C1343 C1345 1.353 . S
C1343 H1384 0.929 . S
C1344 C1342 1.356 . S
C1344 C1346 1.358 . S
C1344 H1385 0.930 . S
C1345 C1343 1.353 . S
C1345 N1347 1.314 . S
C1345 H1386 0.930 . S
C1346 C1344 1.358 . S
C1346 N1347 1.279 . S
C1346 H1387 0.930 . S
N1347 C1345 1.314 . S
N1347 C1346 1.279 . S
C1348 C1350 1.353 . S
C1348 N1351 1.314 . S
C1348 H1354 0.930 . S
C1349 N1351 1.279 . S
C1349 C1352 1.358 . S
C1349 H1355 0.930 . S
C1350 C1348 1.353 . S
C1350 C1353 1.348 . S
C1350 H1388 0.929 . S
N1351 Li1306 1.990 . S
N1351 C1348 1.314 . S
N1351 C1349 1.279 . S
C1352 C1349 1.358 . S
C1352 C1353 1.356 . S
C1352 H1389 0.930 . S
C1353 C1350 1.348 . S
C1353 C1352 1.356 . S
H1354 C1348 0.930 . S
H1355 C1349 0.930 . S
C1356 N1357 1.314 . S
C1356 C1358 1.353 . S
C1356 H1362 0.930 . S
N1357 Li1307 1.990 . S
N1357 C1356 1.314 . S
N1357 C1360 1.279 . S
C1358 C1356 1.353 . S
C1358 C1361 1.348 . S
C1358 H1390 0.929 . S
C1359 C1360 1.358 . S
C1359 C1361 1.356 . S
C1359 H1391 0.930 . S
C1360 N1357 1.279 . S
C1360 C1359 1.358 . S
C1360 H1363 0.930 . S
C1361 C1358 1.348 . S
C1361 C1359 1.356 . S
H1362 C1356 0.930 . S
H1363 C1360 0.930 . S
O1364 Li1304 1.956 . S
O1364 Li1305 1.970 . S
O1364 Li1306 1.961 . S
O1364 C1308 1.325 . S
O1365 Li1304 1.970 . S
O1365 Li1305 1.956 . S
O1365 Li1307 1.961 . S
O1365 C1314 1.325 . S
O1366 Li1304 1.961 . S
O1366 Li1306 1.956 . S
O1366 Li1307 1.970 . S
O1366 C1336 1.325 . S
O1367 Li1305 1.961 . S
O1367 Li1306 1.970 . S
O1367 Li1307 1.956 . S
O1367 C1342 1.325 . S
H1368 C1310 0.929 . S
H1369 C1311 0.930 . S
H1370 C1312 0.930 . S
H1371 C1313 0.930 . S
H1372 C1315 0.930 . S
H1373 C1317 0.929 . S
H1374 C1318 0.930 . S
H1375 C1319 0.930 . S
H1376 C1322 0.930 . S
H1377 C1325 0.929 . S
H1378 C1330 0.929 . S
H1379 C1331 0.930 . S
H1380 C1338 0.929 . S
H1381 C1339 0.930 . S
H1382 C1340 0.930 . S
H1383 C1341 0.930 . S
H1384 C1343 0.929 . S
H1385 C1344 0.930 . S
H1386 C1345 0.930 . S
H1387 C1346 0.930 . S
H1388 C1350 0.929 . S
H1389 C1352 0.930 . S
H1390 C1358 0.929 . S
H1391 C1359 0.930 . S
Li1392 N1409 1.990 . S
Li1392 O1452 1.956 . S
Li1392 O1453 1.970 1_455 S
Li1392 O1454 1.961 . S
Li1393 N1417 1.990 . S
Li1393 O1452 1.970 1_655 S
Li1393 O1453 1.956 . S
Li1393 O1455 1.961 . S
Li1394 N1439 1.990 . S
Li1394 O1452 1.961 . S
Li1394 O1454 1.956 . S
Li1394 O1455 1.970 1_455 S
Li1395 N1445 1.990 . S
Li1395 O1453 1.961 . S
Li1395 O1454 1.970 1_655 S
Li1395 O1455 1.956 . S
C1396 C1398 1.348 1_455 S
C1396 C1399 1.356 . S
C1396 O1452 1.325 . S
N1397 C1400 1.314 1_455 S
N1397 C1401 1.279 . S
C1398 C1396 1.348 1_655 S
C1398 C1400 1.353 . S
C1398 H1456 0.929 . S
C1399 C1396 1.356 . S
C1399 C1401 1.358 . S
C1399 H1457 0.930 . S
C1400 N1397 1.314 1_655 S
C1400 C1398 1.353 . S
C1400 H1458 0.930 . S
C1401 N1397 1.279 . S
C1401 C1399 1.358 . S
C1401 H1459 0.930 . S
C1402 C1405 1.348 . S
C1402 C1406 1.356 . S
C1402 O1453 1.325 . S
C1403 N1404 1.279 . S
C1403 C1406 1.358 . S
C1403 H1460 0.930 . S
N1404 C1403 1.279 . S
N1404 C1407 1.314 . S
C1405 C1402 1.348 . S
C1405 C1407 1.353 . S
C1405 H1461 0.929 . S
C1406 C1402 1.356 . S
C1406 C1403 1.358 . S
C1406 H1462 0.930 . S
C1407 N1404 1.314 . S
C1407 C1405 1.353 . S
C1407 H1463 0.930 . S
C1408 N1409 1.314 . S
C1408 C1413 1.353 . S
C1408 H1414 0.930 . S
N1409 Li1392 1.990 . S
N1409 C1408 1.314 . S
N1409 C1411 1.279 . S
C1410 C1411 1.358 . S
C1410 C1412 1.356 . S
C1410 H1464 0.930 . S
C1411 N1409 1.279 . S
C1411 C1410 1.358 . S
C1411 H1415 0.930 . S
C1412 C1410 1.356 . S
C1412 C1413 1.348 . S
C1413 C1408 1.353 . S
C1413 C1412 1.348 . S
C1413 H1465 0.929 . S
H1414 C1408 0.930 . S
H1415 C1411 0.930 . S
C1416 N1417 1.314 . S
C1416 C1418 1.353 . S
C1416 H1422 0.930 . S
N1417 Li1393 1.990 . S
N1417 C1416 1.314 . S
N1417 C1420 1.279 . S
C1418 C1416 1.353 . S
C1418 C1421 1.348 . S
C1418 H1466 0.929 . S
C1419 C1420 1.358 . S
C1419 C1421 1.356 . S
C1419 H1467 0.930 . S
C1420 N1417 1.279 . S
C1420 C1419 1.358 . S
C1420 H1423 0.930 . S
C1421 C1418 1.348 . S
C1421 C1419 1.356 . S
H1422 C1416 0.930 . S
H1423 C1420 0.930 . S
C1424 C1426 1.348 . S
C1424 C1427 1.356 . S
C1424 O1454 1.325 . S
N1425 C1428 1.314 . S
N1425 C1429 1.279 . S
C1426 C1424 1.348 . S
C1426 C1428 1.353 . S
C1426 H1468 0.929 . S
C1427 C1424 1.356 . S
C1427 C1429 1.358 . S
C1427 H1469 0.930 . S
C1428 N1425 1.314 . S
C1428 C1426 1.353 . S
C1428 H1470 0.930 . S
C1429 N1425 1.279 . S
C1429 C1427 1.358 . S
C1429 H1471 0.930 . S
C1430 C1431 1.348 1_655 S
C1430 C1432 1.356 . S
C1430 O1455 1.325 . S
C1431 C1430 1.348 1_455 S
C1431 C1433 1.353 . S
C1431 H1472 0.929 . S
C1432 C1430 1.356 . S
C1432 C1434 1.358 . S
C1432 H1473 0.930 . S
C1433 C1431 1.353 . S
C1433 N1435 1.314 1_455 S
C1433 H1474 0.930 . S
C1434 C1432 1.358 . S
C1434 N1435 1.279 . S
C1434 H1475 0.930 . S
N1435 C1433 1.314 1_655 S
N1435 C1434 1.279 . S
C1436 C1438 1.353 . S
C1436 N1439 1.314 . S
C1436 H1442 0.930 . S
C1437 N1439 1.279 . S
C1437 C1440 1.358 . S
C1437 H1443 0.930 . S
C1438 C1436 1.353 . S
C1438 C1441 1.348 . S
C1438 H1476 0.929 . S
N1439 Li1394 1.990 . S
N1439 C1436 1.314 . S
N1439 C1437 1.279 . S
C1440 C1437 1.358 . S
C1440 C1441 1.356 . S
C1440 H1477 0.930 . S
C1441 C1438 1.348 . S
C1441 C1440 1.356 . S
H1442 C1436 0.930 . S
H1443 C1437 0.930 . S
C1444 N1445 1.314 . S
C1444 C1446 1.353 . S
C1444 H1450 0.930 . S
N1445 Li1395 1.990 . S
N1445 C1444 1.314 . S
N1445 C1448 1.279 . S
C1446 C1444 1.353 . S
C1446 C1449 1.348 . S
C1446 H1478 0.929 . S
C1447 C1448 1.358 . S
C1447 C1449 1.356 . S
C1447 H1479 0.930 . S
C1448 N1445 1.279 . S
C1448 C1447 1.358 . S
C1448 H1451 0.930 . S
C1449 C1446 1.348 . S
C1449 C1447 1.356 . S
H1450 C1444 0.930 . S
H1451 C1448 0.930 . S
O1452 Li1392 1.956 . S
O1452 Li1393 1.970 1_455 S
O1452 Li1394 1.961 . S
O1452 C1396 1.325 . S
O1453 Li1392 1.970 1_655 S
O1453 Li1393 1.956 . S
O1453 Li1395 1.961 . S
O1453 C1402 1.325 . S
O1454 Li1392 1.961 . S
O1454 Li1394 1.956 . S
O1454 Li1395 1.970 1_455 S
O1454 C1424 1.325 . S
O1455 Li1393 1.961 . S
O1455 Li1394 1.970 1_655 S
O1455 Li1395 1.956 . S
O1455 C1430 1.325 . S
H1456 C1398 0.929 . S
H1457 C1399 0.930 . S
H1458 C1400 0.930 . S
H1459 C1401 0.930 . S
H1460 C1403 0.930 . S
H1461 C1405 0.929 . S
H1462 C1406 0.930 . S
H1463 C1407 0.930 . S
H1464 C1410 0.930 . S
H1465 C1413 0.929 . S
H1466 C1418 0.929 . S
H1467 C1419 0.930 . S
H1468 C1426 0.929 . S
H1469 C1427 0.930 . S
H1470 C1428 0.930 . S
H1471 C1429 0.930 . S
H1472 C1431 0.929 . S
H1473 C1432 0.930 . S
H1474 C1433 0.930 . S
H1475 C1434 0.930 . S
H1476 C1438 0.929 . S
H1477 C1440 0.930 . S
H1478 C1446 0.929 . S
H1479 C1447 0.930 . S
Li1480 N1497 1.990 . S
Li1480 O1540 1.956 . S
Li1480 O1541 1.970 . S
Li1480 O1542 1.961 . S
Li1481 N1505 1.990 . S
Li1481 O1540 1.970 . S
Li1481 O1541 1.956 . S
Li1481 O1543 1.961 . S
Li1482 N1527 1.990 . S
Li1482 O1540 1.961 . S
Li1482 O1542 1.956 . S
Li1482 O1543 1.970 . S
Li1483 N1533 1.990 . S
Li1483 O1541 1.961 . S
Li1483 O1542 1.970 . S
Li1483 O1543 1.956 . S
C1484 C1486 1.348 . S
C1484 C1487 1.356 . S
C1484 O1540 1.325 . S
N1485 C1488 1.314 . S
N1485 C1489 1.279 . S
C1486 C1484 1.348 . S
C1486 C1488 1.353 . S
C1486 H1544 0.929 . S
C1487 C1484 1.356 . S
C1487 C1489 1.358 . S
C1487 H1545 0.930 . S
C1488 N1485 1.314 . S
C1488 C1486 1.353 . S
C1488 H1546 0.930 . S
C1489 N1485 1.279 . S
C1489 C1487 1.358 . S
C1489 H1547 0.930 . S
C1490 C1493 1.348 . S
C1490 C1494 1.356 . S
C1490 O1541 1.325 . S
C1491 N1492 1.279 . S
C1491 C1494 1.358 . S
C1491 H1548 0.930 . S
N1492 C1491 1.279 . S
N1492 C1495 1.314 . S
C1493 C1490 1.348 . S
C1493 C1495 1.353 . S
C1493 H1549 0.929 . S
C1494 C1490 1.356 . S
C1494 C1491 1.358 . S
C1494 H1550 0.930 . S
C1495 N1492 1.314 . S
C1495 C1493 1.353 . S
C1495 H1551 0.930 . S
C1496 N1497 1.314 . S
C1496 C1501 1.353 . S
C1496 H1502 0.930 . S
N1497 Li1480 1.990 . S
N1497 C1496 1.314 . S
N1497 C1499 1.279 . S
C1498 C1499 1.358 . S
C1498 C1500 1.356 . S
C1498 H1552 0.930 . S
C1499 N1497 1.279 . S
C1499 C1498 1.358 . S
C1499 H1503 0.930 . S
C1500 C1498 1.356 . S
C1500 C1501 1.348 . S
C1501 C1496 1.353 . S
C1501 C1500 1.348 . S
C1501 H1553 0.929 . S
H1502 C1496 0.930 . S
H1503 C1499 0.930 . S
C1504 N1505 1.314 . S
C1504 C1506 1.353 . S
C1504 H1510 0.930 . S
N1505 Li1481 1.990 . S
N1505 C1504 1.314 . S
N1505 C1508 1.279 . S
C1506 C1504 1.353 . S
C1506 C1509 1.348 . S
C1506 H1554 0.929 . S
C1507 C1508 1.358 . S
C1507 C1509 1.356 . S
C1507 H1555 0.930 . S
C1508 N1505 1.279 . S
C1508 C1507 1.358 . S
C1508 H1511 0.930 . S
C1509 C1506 1.348 . S
C1509 C1507 1.356 . S
H1510 C1504 0.930 . S
H1511 C1508 0.930 . S
C1512 C1514 1.348 . S
C1512 C1515 1.356 . S
C1512 O1542 1.325 . S
N1513 C1516 1.314 . S
N1513 C1517 1.279 . S
C1514 C1512 1.348 . S
C1514 C1516 1.353 . S
C1514 H1556 0.929 . S
C1515 C1512 1.356 . S
C1515 C1517 1.358 . S
C1515 H1557 0.930 . S
C1516 N1513 1.314 . S
C1516 C1514 1.353 . S
C1516 H1558 0.930 . S
C1517 N1513 1.279 . S
C1517 C1515 1.358 . S
C1517 H1559 0.930 . S
C1518 C1519 1.348 . S
C1518 C1520 1.356 . S
C1518 O1543 1.325 . S
C1519 C1518 1.348 . S
C1519 C1521 1.353 . S
C1519 H1560 0.929 . S
C1520 C1518 1.356 . S
C1520 C1522 1.358 . S
C1520 H1561 0.930 . S
C1521 C1519 1.353 . S
C1521 N1523 1.314 . S
C1521 H1562 0.930 . S
C1522 C1520 1.358 . S
C1522 N1523 1.279 . S
C1522 H1563 0.930 . S
N1523 C1521 1.314 . S
N1523 C1522 1.279 . S
C1524 C1526 1.353 . S
C1524 N1527 1.314 . S
C1524 H1530 0.930 . S
C1525 N1527 1.279 . S
C1525 C1528 1.358 . S
C1525 H1531 0.930 . S
C1526 C1524 1.353 . S
C1526 C1529 1.348 . S
C1526 H1564 0.929 . S
N1527 Li1482 1.990 . S
N1527 C1524 1.314 . S
N1527 C1525 1.279 . S
C1528 C1525 1.358 . S
C1528 C1529 1.356 . S
C1528 H1565 0.930 . S
C1529 C1526 1.348 . S
C1529 C1528 1.356 . S
H1530 C1524 0.930 . S
H1531 C1525 0.930 . S
C1532 N1533 1.314 . S
C1532 C1534 1.353 . S
C1532 H1538 0.930 . S
N1533 Li1483 1.990 . S
N1533 C1532 1.314 . S
N1533 C1536 1.279 . S
C1534 C1532 1.353 . S
C1534 C1537 1.348 . S
C1534 H1566 0.929 . S
C1535 C1536 1.358 . S
C1535 C1537 1.356 . S
C1535 H1567 0.930 . S
C1536 N1533 1.279 . S
C1536 C1535 1.358 . S
C1536 H1539 0.930 . S
C1537 C1534 1.348 . S
C1537 C1535 1.356 . S
H1538 C1532 0.930 . S
H1539 C1536 0.930 . S
O1540 Li1480 1.956 . S
O1540 Li1481 1.970 . S
O1540 Li1482 1.961 . S
O1540 C1484 1.325 . S
O1541 Li1480 1.970 . S
O1541 Li1481 1.956 . S
O1541 Li1483 1.961 . S
O1541 C1490 1.325 . S
O1542 Li1480 1.961 . S
O1542 Li1482 1.956 . S
O1542 Li1483 1.970 . S
O1542 C1512 1.325 . S
O1543 Li1481 1.961 . S
O1543 Li1482 1.970 . S
O1543 Li1483 1.956 . S
O1543 C1518 1.325 . S
H1544 C1486 0.929 . S
H1545 C1487 0.930 . S
H1546 C1488 0.930 . S
H1547 C1489 0.930 . S
H1548 C1491 0.930 . S
H1549 C1493 0.929 . S
H1550 C1494 0.930 . S
H1551 C1495 0.930 . S
H1552 C1498 0.930 . S
H1553 C1501 0.929 . S
H1554 C1506 0.929 . S
H1555 C1507 0.930 . S
H1556 C1514 0.929 . S
H1557 C1515 0.930 . S
H1558 C1516 0.930 . S
H1559 C1517 0.930 . S
H1560 C1519 0.929 . S
H1561 C1520 0.930 . S
H1562 C1521 0.930 . S
H1563 C1522 0.930 . S
H1564 C1526 0.929 . S
H1565 C1528 0.930 . S
H1566 C1534 0.929 . S
H1567 C1535 0.930 . S
H1568 C1576 0.929 . S
H1569 C1578 0.930 . S
H1570 C1580 0.930 . S
H1571 C1583 0.929 . S
H1572 C1586 0.930 . S
H1573 C1588 0.960 . S
H1574 C1588 0.960 . S
H1575 C1588 0.960 . S
C1576 H1568 0.929 . S
C1576 C1577 1.377 . S
C1576 C1578 1.384 . S
C1577 C1576 1.377 . S
C1577 C1583 1.390 . S
C1578 H1569 0.930 . S
C1578 C1576 1.384 . S
C1578 C1579 1.372 . S
C1579 C1578 1.372 . S
C1579 C1580 1.400 . S
C1579 C1584 1.490 . S
C1580 H1570 0.930 . S
C1580 C1579 1.400 . S
C1580 C1583 1.386 . S
H1581 C1597 0.930 . S
H1582 C1598 0.931 . S
C1583 H1571 0.929 . S
C1583 C1577 1.390 . S
C1583 C1580 1.386 . S
C1584 C1579 1.490 . S
C1584 C1586 1.395 . S
C1584 C1587 1.403 . S
H1585 C1591 0.930 . S
C1586 H1572 0.930 . S
C1586 C1584 1.395 . S
C1586 C1589 1.403 . S
C1587 C1584 1.403 . S
C1587 C1588 1.524 . S
C1587 C1591 1.400 . S
C1588 H1573 0.960 . S
C1588 H1574 0.960 . S
C1588 H1575 0.960 . S
C1588 C1587 1.524 . S
C1589 C1586 1.403 . S
C1589 C1590 1.392 . S
C1589 C1593 1.495 . S
C1590 C1589 1.392 . S
C1590 C1591 1.385 . S
C1590 C1592 1.478 . S
C1591 H1585 0.930 . S
C1591 C1587 1.400 . S
C1591 C1590 1.385 . S
C1592 C1590 1.478 . S
C1592 C1594 1.381 . S
C1592 C1598 1.383 . S
C1593 C1589 1.495 . S
C1593 H1599 0.959 . S
C1593 H1600 0.961 . S
C1593 H1601 0.960 . S
C1594 C1592 1.381 . S
C1594 C1595 1.394 . S
C1594 H1602 0.930 . S
C1595 C1594 1.394 . S
C1595 C1596 1.383 . S
C1595 H1603 0.929 . S
C1596 C1595 1.383 . S
C1596 C1597 1.377 . S
C1597 H1581 0.930 . S
C1597 C1596 1.377 . S
C1597 C1598 1.379 . S
C1598 H1582 0.931 . S
C1598 C1592 1.383 . S
C1598 C1597 1.379 . S
H1599 C1593 0.959 . S
H1600 C1593 0.961 . S
H1601 C1593 0.960 . S
H1602 C1594 0.930 . S
H1603 C1595 0.929 . S
H1604 C1612 0.929 1_655 S
H1605 C1614 0.930 . S
H1606 C1616 0.930 . S
H1607 C1619 0.929 . S
H1608 C1622 0.930 . S
H1609 C1624 0.960 . S
H1610 C1624 0.960 . S
H1611 C1624 0.960 . S
C1612 H1604 0.929 1_455 S
C1612 C1613 1.377 . S
C1612 C1614 1.384 . S
C1613 C1612 1.377 . S
C1613 C1619 1.390 . S
C1614 H1605 0.930 . S
C1614 C1612 1.384 . S
C1614 C1615 1.372 . S
C1615 C1614 1.372 . S
C1615 C1616 1.400 . S
C1615 C1620 1.490 . S
C1616 H1606 0.930 . S
C1616 C1615 1.400 . S
C1616 C1619 1.386 . S
H1617 C1633 0.930 . S
H1618 C1634 0.931 . S
C1619 H1607 0.929 . S
C1619 C1613 1.390 . S
C1619 C1616 1.386 . S
C1620 C1615 1.490 . S
C1620 C1622 1.395 . S
C1620 C1623 1.403 . S
H1621 C1627 0.930 . S
C1622 H1608 0.930 . S
C1622 C1620 1.395 . S
C1622 C1625 1.403 . S
C1623 C1620 1.403 . S
C1623 C1624 1.524 . S
C1623 C1627 1.400 . S
C1624 H1609 0.960 . S
C1624 H1610 0.960 . S
C1624 H1611 0.960 . S
C1624 C1623 1.524 . S
C1625 C1622 1.403 . S
C1625 C1626 1.392 . S
C1625 C1629 1.495 . S
C1626 C1625 1.392 . S
C1626 C1627 1.385 . S
C1626 C1628 1.478 . S
C1627 H1621 0.930 . S
C1627 C1623 1.400 . S
C1627 C1626 1.385 . S
C1628 C1626 1.478 . S
C1628 C1630 1.381 . S
C1628 C1634 1.383 . S
C1629 C1625 1.495 . S
C1629 H1635 0.959 . S
C1629 H1636 0.961 . S
C1629 H1637 0.960 . S
C1630 C1628 1.381 . S
C1630 C1631 1.394 . S
C1630 H1638 0.930 . S
C1631 C1630 1.394 . S
C1631 C1632 1.383 . S
C1631 H1639 0.929 . S
C1632 C1631 1.383 . S
C1632 C1633 1.377 . S
C1633 H1617 0.930 . S
C1633 C1632 1.377 . S
C1633 C1634 1.379 . S
C1634 H1618 0.931 . S
C1634 C1628 1.383 . S
C1634 C1633 1.379 . S
H1635 C1629 0.959 . S
H1636 C1629 0.961 . S
H1637 C1629 0.960 . S
H1638 C1630 0.930 . S
H1639 C1631 0.929 . S
H1640 C1648 0.929 . S
H1641 C1650 0.930 . S
H1642 C1652 0.930 . S
H1643 C1655 0.929 . S
H1644 C1658 0.930 . S
H1645 C1660 0.960 . S
H1646 C1660 0.960 . S
H1647 C1660 0.960 . S
C1648 H1640 0.929 . S
C1648 C1649 1.377 . S
C1648 C1650 1.384 . S
C1649 C1648 1.377 . S
C1649 C1655 1.390 . S
C1650 H1641 0.930 . S
C1650 C1648 1.384 . S
C1650 C1651 1.372 . S
C1651 C1650 1.372 . S
C1651 C1652 1.400 . S
C1651 C1656 1.490 . S
C1652 H1642 0.930 . S
C1652 C1651 1.400 . S
C1652 C1655 1.386 . S
H1653 C1669 0.930 . S
H1654 C1670 0.931 . S
C1655 H1643 0.929 . S
C1655 C1649 1.390 . S
C1655 C1652 1.386 . S
C1656 C1651 1.490 . S
C1656 C1658 1.395 . S
C1656 C1659 1.403 . S
H1657 C1663 0.930 . S
C1658 H1644 0.930 . S
C1658 C1656 1.395 . S
C1658 C1661 1.403 . S
C1659 C1656 1.403 . S
C1659 C1660 1.524 . S
C1659 C1663 1.400 . S
C1660 H1645 0.960 . S
C1660 H1646 0.960 . S
C1660 H1647 0.960 . S
C1660 C1659 1.524 . S
C1661 C1658 1.403 . S
C1661 C1662 1.392 . S
C1661 C1665 1.495 . S
C1662 C1661 1.392 . S
C1662 C1663 1.385 . S
C1662 C1664 1.478 . S
C1663 H1657 0.930 . S
C1663 C1659 1.400 . S
C1663 C1662 1.385 . S
C1664 C1662 1.478 . S
C1664 C1666 1.381 . S
C1664 C1670 1.383 . S
C1665 C1661 1.495 . S
C1665 H1671 0.959 . S
C1665 H1672 0.961 . S
C1665 H1673 0.960 . S
C1666 C1664 1.381 . S
C1666 C1667 1.394 . S
C1666 H1674 0.930 . S
C1667 C1666 1.394 . S
C1667 C1668 1.383 . S
C1667 H1675 0.929 . S
C1668 C1667 1.383 . S
C1668 C1669 1.377 . S
C1669 H1653 0.930 . S
C1669 C1668 1.377 . S
C1669 C1670 1.379 . S
C1670 H1654 0.931 . S
C1670 C1664 1.383 . S
C1670 C1669 1.379 . S
H1671 C1665 0.959 . S
H1672 C1665 0.961 . S
H1673 C1665 0.960 . S
H1674 C1666 0.930 . S
H1675 C1667 0.929 . S
H1676 C1684 0.918 1_545 S
H1677 C1686 0.930 1_545 S
H1678 C1688 0.930 . S
H1679 C1691 0.929 . S
H1680 C1694 0.930 . S
H1681 C1696 0.960 . S
H1682 C1696 0.960 . S
H1683 C1696 0.960 . S
C1684 H1676 0.918 1_565 S
C1684 C1685 1.377 . S
C1684 C1686 1.384 . S
C1685 C1684 1.377 . S
C1685 C1691 1.390 . S
C1686 H1677 0.930 1_565 S
C1686 C1684 1.384 . S
C1686 C1687 1.372 . S
C1687 C1686 1.372 . S
C1687 C1688 1.400 . S
C1687 C1692 1.490 . S
C1688 H1678 0.930 . S
C1688 C1687 1.400 . S
C1688 C1691 1.386 . S
H1689 C1705 0.930 . S
H1690 C1706 0.931 . S
C1691 H1679 0.929 . S
C1691 C1685 1.390 . S
C1691 C1688 1.386 . S
C1692 C1687 1.490 . S
C1692 C1694 1.395 . S
C1692 C1695 1.403 . S
H1693 C1699 0.930 . S
C1694 H1680 0.930 . S
C1694 C1692 1.395 . S
C1694 C1697 1.403 . S
C1695 C1692 1.403 . S
C1695 C1696 1.524 . S
C1695 C1699 1.400 . S
C1696 H1681 0.960 . S
C1696 H1682 0.960 . S
C1696 H1683 0.960 . S
C1696 C1695 1.524 . S
C1697 C1694 1.403 . S
C1697 C1698 1.392 . S
C1697 C1701 1.495 . S
C1698 C1697 1.392 . S
C1698 C1699 1.385 . S
C1698 C1700 1.478 . S
C1699 H1693 0.930 . S
C1699 C1695 1.400 . S
C1699 C1698 1.385 . S
C1700 C1698 1.478 . S
C1700 C1702 1.381 1_565 S
C1700 C1706 1.383 . S
C1701 C1697 1.495 . S
C1701 H1707 0.959 . S
C1701 H1708 0.961 . S
C1701 H1709 0.960 1_565 S
C1702 C1700 1.381 1_545 S
C1702 C1703 1.394 . S
C1702 H1710 0.930 . S
C1703 C1702 1.394 . S
C1703 C1704 1.383 1_545 S
C1703 H1711 0.929 . S
C1704 C1703 1.383 1_565 S
C1704 C1705 1.377 . S
C1705 H1689 0.930 . S
C1705 C1704 1.377 . S
C1705 C1706 1.379 . S
C1706 H1690 0.931 . S
C1706 C1700 1.383 . S
C1706 C1705 1.379 . S
H1707 C1701 0.959 . S
H1708 C1701 0.961 . S
H1709 C1701 0.960 1_545 S
H1710 C1702 0.930 . S
H1711 C1703 0.929 . S
H1712 C1720 0.929 . S
H1713 C1722 0.930 . S
H1714 C1724 0.930 . S
H1715 C1727 0.929 . S
H1716 C1730 0.930 . S
H1717 C1732 0.960 . S
H1718 C1732 0.960 . S
H1719 C1732 0.960 . S
C1720 H1712 0.929 . S
C1720 C1721 1.377 . S
C1720 C1722 1.384 . S
C1721 C1720 1.377 . S
C1721 C1727 1.390 . S
C1722 H1713 0.930 . S
C1722 C1720 1.384 . S
C1722 C1723 1.372 . S
C1723 C1722 1.372 . S
C1723 C1724 1.400 . S
C1723 C1728 1.490 . S
C1724 H1714 0.930 . S
C1724 C1723 1.400 . S
C1724 C1727 1.386 . S
H1725 C1741 0.930 . S
H1726 C1742 0.931 . S
C1727 H1715 0.929 . S
C1727 C1721 1.390 . S
C1727 C1724 1.386 . S
C1728 C1723 1.490 . S
C1728 C1730 1.395 . S
C1728 C1731 1.403 . S
H1729 C1735 0.930 . S
C1730 H1716 0.930 . S
C1730 C1728 1.395 . S
C1730 C1733 1.403 . S
C1731 C1728 1.403 . S
C1731 C1732 1.524 . S
C1731 C1735 1.400 . S
C1732 H1717 0.960 . S
C1732 H1718 0.960 . S
C1732 H1719 0.960 . S
C1732 C1731 1.524 . S
C1733 C1730 1.403 . S
C1733 C1734 1.392 . S
C1733 C1737 1.495 . S
C1734 C1733 1.392 . S
C1734 C1735 1.385 . S
C1734 C1736 1.478 . S
C1735 H1729 0.930 . S
C1735 C1731 1.400 . S
C1735 C1734 1.385 . S
C1736 C1734 1.478 . S
C1736 C1738 1.381 . S
C1736 C1742 1.383 . S
C1737 C1733 1.495 . S
C1737 H1743 0.959 . S
C1737 H1744 0.961 . S
C1737 H1745 0.960 . S
C1738 C1736 1.381 . S
C1738 C1739 1.394 . S
C1738 H1746 0.930 . S
C1739 C1738 1.394 . S
C1739 C1740 1.383 . S
C1739 H1747 0.929 . S
C1740 C1739 1.383 . S
C1740 C1741 1.377 . S
C1741 H1725 0.930 . S
C1741 C1740 1.377 . S
C1741 C1742 1.379 . S
C1742 H1726 0.931 . S
C1742 C1736 1.383 . S
C1742 C1741 1.379 . S
H1743 C1737 0.959 . S
H1744 C1737 0.961 . S
H1745 C1737 0.960 . S
H1746 C1738 0.930 . S
H1747 C1739 0.929 . S
H1748 C1756 0.929 . S
H1749 C1758 0.930 . S
H1750 C1760 0.930 . S
H1751 C1763 0.929 . S
H1752 C1766 0.930 . S
H1753 C1768 0.960 . S
H1754 C1768 0.960 . S
H1755 C1768 0.960 . S
C1756 H1748 0.929 . S
C1756 C1757 1.377 . S
C1756 C1758 1.384 . S
C1757 C1756 1.377 . S
C1757 C1763 1.390 . S
C1758 H1749 0.930 . S
C1758 C1756 1.384 . S
C1758 C1759 1.372 . S
C1759 C1758 1.372 . S
C1759 C1760 1.400 . S
C1759 C1764 1.490 . S
C1760 H1750 0.930 . S
C1760 C1759 1.400 . S
C1760 C1763 1.386 . S
H1761 C1777 0.930 . S
H1762 C1778 0.931 . S
C1763 H1751 0.929 . S
C1763 C1757 1.390 . S
C1763 C1760 1.386 . S
C1764 C1759 1.490 . S
C1764 C1766 1.395 . S
C1764 C1767 1.403 . S
H1765 C1771 0.930 . S
C1766 H1752 0.930 . S
C1766 C1764 1.395 . S
C1766 C1769 1.403 . S
C1767 C1764 1.403 . S
C1767 C1768 1.524 . S
C1767 C1771 1.400 . S
C1768 H1753 0.960 . S
C1768 H1754 0.960 . S
C1768 H1755 0.960 . S
C1768 C1767 1.524 . S
C1769 C1766 1.403 . S
C1769 C1770 1.392 . S
C1769 C1773 1.495 . S
C1770 C1769 1.392 . S
C1770 C1771 1.385 . S
C1770 C1772 1.478 . S
C1771 H1765 0.930 . S
C1771 C1767 1.400 . S
C1771 C1770 1.385 . S
C1772 C1770 1.478 . S
C1772 C1774 1.381 . S
C1772 C1778 1.383 . S
C1773 C1769 1.495 . S
C1773 H1779 0.959 . S
C1773 H1780 0.961 . S
C1773 H1781 0.960 . S
C1774 C1772 1.381 . S
C1774 C1775 1.394 . S
C1774 H1782 0.930 . S
C1775 C1774 1.394 . S
C1775 C1776 1.383 . S
C1775 H1783 0.929 . S
C1776 C1775 1.383 . S
C1776 C1777 1.377 . S
C1777 H1761 0.930 . S
C1777 C1776 1.377 . S
C1777 C1778 1.379 . S
C1778 H1762 0.931 . S
C1778 C1772 1.383 . S
C1778 C1777 1.379 . S
H1779 C1773 0.959 . S
H1780 C1773 0.961 . S
H1781 C1773 0.960 . S
H1782 C1774 0.930 . S
H1783 C1775 0.929 . S
H1784 C1792 0.929 . S
H1785 C1794 0.930 . S
H1786 C1796 0.930 . S
H1787 C1799 0.929 . S
H1788 C1802 0.930 . S
H1789 C1804 0.960 . S
H1790 C1804 0.960 . S
H1791 C1804 0.960 . S
C1792 H1784 0.929 . S
C1792 C1793 1.377 . S
C1792 C1794 1.384 . S
C1793 C1792 1.377 . S
C1793 C1799 1.390 . S
C1794 H1785 0.930 . S
C1794 C1792 1.384 . S
C1794 C1795 1.372 . S
C1795 C1794 1.372 . S
C1795 C1796 1.400 . S
C1795 C1800 1.490 . S
C1796 H1786 0.930 . S
C1796 C1795 1.400 . S
C1796 C1799 1.386 . S
H1797 C1813 0.930 . S
H1798 C1814 0.931 . S
C1799 H1787 0.929 . S
C1799 C1793 1.390 . S
C1799 C1796 1.386 . S
C1800 C1795 1.490 . S
C1800 C1802 1.395 . S
C1800 C1803 1.403 . S
H1801 C1807 0.930 . S
C1802 H1788 0.930 . S
C1802 C1800 1.395 . S
C1802 C1805 1.403 . S
C1803 C1800 1.403 . S
C1803 C1804 1.524 . S
C1803 C1807 1.400 . S
C1804 H1789 0.960 . S
C1804 H1790 0.960 . S
C1804 H1791 0.960 . S
C1804 C1803 1.524 . S
C1805 C1802 1.403 . S
C1805 C1806 1.392 . S
C1805 C1809 1.495 . S
C1806 C1805 1.392 . S
C1806 C1807 1.385 . S
C1806 C1808 1.478 . S
C1807 H1801 0.930 . S
C1807 C1803 1.400 . S
C1807 C1806 1.385 . S
C1808 C1806 1.478 . S
C1808 C1810 1.381 . S
C1808 C1814 1.383 . S
C1809 C1805 1.495 . S
C1809 H1815 0.959 . S
C1809 H1816 0.961 . S
C1809 H1817 0.960 . S
C1810 C1808 1.381 . S
C1810 C1811 1.394 . S
C1810 H1818 0.930 . S
C1811 C1810 1.394 . S
C1811 C1812 1.383 . S
C1811 H1819 0.929 . S
C1812 C1811 1.383 . S
C1812 C1813 1.377 . S
C1813 H1797 0.930 . S
C1813 C1812 1.377 . S
C1813 C1814 1.379 . S
C1814 H1798 0.931 . S
C1814 C1808 1.383 . S
C1814 C1813 1.379 . S
H1815 C1809 0.959 . S
H1816 C1809 0.961 . S
H1817 C1809 0.960 . S
H1818 C1810 0.930 . S
H1819 C1811 0.929 . S
H1820 C1828 0.929 . S
H1821 C1830 0.930 . S
H1822 C1832 0.930 . S
H1823 C1835 0.929 . S
H1824 C1838 0.918 1_545 S
H1825 C1840 0.960 . S
H1826 C1840 0.960 . S
H1827 C1840 0.960 . S
C1828 H1820 0.929 . S
C1828 C1829 1.377 . S
C1828 C1830 1.384 . S
C1829 C1828 1.377 . S
C1829 C1835 1.390 . S
C1830 H1821 0.930 . S
C1830 C1828 1.384 . S
C1830 C1831 1.372 . S
C1831 C1830 1.372 . S
C1831 C1832 1.400 . S
C1831 C1836 1.490 . S
C1832 H1822 0.930 . S
C1832 C1831 1.400 . S
C1832 C1835 1.386 . S
H1833 C1849 0.930 . S
H1834 C1850 0.931 . S
C1835 H1823 0.929 . S
C1835 C1829 1.390 . S
C1835 C1832 1.386 . S
C1836 C1831 1.490 . S
C1836 C1838 1.409 . S
C1836 C1839 1.403 . S
H1837 C1843 0.930 . S
C1838 H1824 0.918 1_565 S
C1838 C1836 1.409 . S
C1838 C1841 1.401 1_565 S
C1839 C1836 1.403 . S
C1839 C1840 1.524 . S
C1839 C1843 1.400 . S
C1840 H1825 0.960 . S
C1840 H1826 0.960 . S
C1840 H1827 0.960 . S
C1840 C1839 1.524 . S
C1841 C1838 1.401 1_545 S
C1841 C1842 1.392 1_545 S
C1841 C1845 1.495 . S
C1842 C1841 1.392 1_565 S
C1842 C1843 1.385 . S
C1842 C1844 1.478 . S
C1843 H1837 0.930 . S
C1843 C1839 1.400 . S
C1843 C1842 1.385 . S
C1844 C1842 1.478 . S
C1844 C1846 1.379 . S
C1844 C1850 1.383 . S
C1845 C1841 1.495 . S
C1845 H1851 0.959 . S
C1845 H1852 0.961 . S
C1845 H1853 0.960 . S
C1846 C1844 1.379 . S
C1846 C1847 1.393 1_565 S
C1846 H1854 0.932 1_565 S
C1847 C1846 1.393 1_545 S
C1847 C1848 1.367 1_545 S
C1847 H1855 0.949 . S
C1848 C1847 1.367 1_565 S
C1848 C1849 1.377 . S
C1849 H1833 0.930 . S
C1849 C1848 1.377 . S
C1849 C1850 1.379 . S
C1850 H1834 0.931 . S
C1850 C1844 1.383 . S
C1850 C1849 1.379 . S
H1851 C1845 0.959 . S
H1852 C1845 0.961 . S
H1853 C1845 0.960 . S
H1854 C1846 0.932 1_545 S
H1855 C1847 0.949 . S
H1856 C1864 0.929 . S
H1857 C1866 0.930 . S
H1858 C1868 0.930 . S
H1859 C1871 0.929 . S
H1860 C1874 0.930 . S
H1861 C1876 0.960 . S
H1862 C1876 0.960 . S
H1863 C1876 0.960 . S
C1864 H1856 0.929 . S
C1864 C1865 1.377 . S
C1864 C1866 1.384 . S
C1865 C1864 1.377 . S
C1865 C1871 1.390 . S
C1866 H1857 0.930 . S
C1866 C1864 1.384 . S
C1866 C1867 1.372 . S
C1867 C1866 1.372 . S
C1867 C1868 1.400 . S
C1867 C1872 1.490 . S
C1868 H1858 0.930 . S
C1868 C1867 1.400 . S
C1868 C1871 1.386 . S
H1869 C1885 0.930 . S
H1870 C1886 0.931 . S
C1871 H1859 0.929 . S
C1871 C1865 1.390 . S
C1871 C1868 1.386 . S
C1872 C1867 1.490 . S
C1872 C1874 1.395 . S
C1872 C1875 1.403 . S
H1873 C1879 0.930 . S
C1874 H1860 0.930 . S
C1874 C1872 1.395 . S
C1874 C1877 1.403 . S
C1875 C1872 1.403 . S
C1875 C1876 1.524 . S
C1875 C1879 1.400 . S
C1876 H1861 0.960 . S
C1876 H1862 0.960 . S
C1876 H1863 0.960 . S
C1876 C1875 1.524 . S
C1877 C1874 1.403 . S
C1877 C1878 1.392 . S
C1877 C1881 1.495 . S
C1878 C1877 1.392 . S
C1878 C1879 1.385 . S
C1878 C1880 1.478 . S
C1879 H1873 0.930 . S
C1879 C1875 1.400 . S
C1879 C1878 1.385 . S
C1880 C1878 1.478 . S
C1880 C1882 1.381 . S
C1880 C1886 1.383 . S
C1881 C1877 1.495 . S
C1881 H1887 0.959 . S
C1881 H1888 0.961 . S
C1881 H1889 0.960 . S
C1882 C1880 1.381 . S
C1882 C1883 1.394 . S
C1882 H1890 0.930 . S
C1883 C1882 1.394 . S
C1883 C1884 1.383 . S
C1883 H1891 0.929 . S
C1884 C1883 1.383 . S
C1884 C1885 1.377 . S
C1885 H1869 0.930 . S
C1885 C1884 1.377 . S
C1885 C1886 1.379 . S
C1886 H1870 0.931 . S
C1886 C1880 1.383 . S
C1886 C1885 1.379 . S
H1887 C1881 0.959 . S
H1888 C1881 0.961 . S
H1889 C1881 0.960 . S
H1890 C1882 0.930 . S
H1891 C1883 0.929 . S
H1892 C1900 0.929 . S
H1893 C1902 0.930 . S
H1894 C1904 0.930 . S
H1895 C1907 0.929 . S
H1896 C1910 0.930 . S
H1897 C1912 0.960 . S
H1898 C1912 0.960 . S
H1899 C1912 0.960 . S
C1900 H1892 0.929 . S
C1900 C1901 1.377 . S
C1900 C1902 1.384 . S
C1901 C1900 1.377 . S
C1901 C1907 1.390 . S
C1902 H1893 0.930 . S
C1902 C1900 1.384 . S
C1902 C1903 1.372 . S
C1903 C1902 1.372 . S
C1903 C1904 1.400 . S
C1903 C1908 1.490 . S
C1904 H1894 0.930 . S
C1904 C1903 1.400 . S
C1904 C1907 1.386 . S
H1905 C1921 0.930 . S
H1906 C1922 0.931 . S
C1907 H1895 0.929 . S
C1907 C1901 1.390 . S
C1907 C1904 1.386 . S
C1908 C1903 1.490 . S
C1908 C1910 1.395 . S
C1908 C1911 1.403 . S
H1909 C1915 0.930 . S
C1910 H1896 0.930 . S
C1910 C1908 1.395 . S
C1910 C1913 1.403 . S
C1911 C1908 1.403 . S
C1911 C1912 1.524 . S
C1911 C1915 1.400 . S
C1912 H1897 0.960 . S
C1912 H1898 0.960 . S
C1912 H1899 0.960 . S
C1912 C1911 1.524 . S
C1913 C1910 1.403 . S
C1913 C1914 1.392 . S
C1913 C1917 1.495 . S
C1914 C1913 1.392 . S
C1914 C1915 1.385 . S
C1914 C1916 1.478 . S
C1915 H1909 0.930 . S
C1915 C1911 1.400 . S
C1915 C1914 1.385 . S
C1916 C1914 1.478 . S
C1916 C1918 1.381 . S
C1916 C1922 1.383 . S
C1917 C1913 1.495 . S
C1917 H1923 0.959 . S
C1917 H1924 0.961 . S
C1917 H1925 0.960 . S
C1918 C1916 1.381 . S
C1918 C1919 1.394 . S
C1918 H1926 0.930 . S
C1919 C1918 1.394 . S
C1919 C1920 1.383 . S
C1919 H1927 0.929 . S
C1920 C1919 1.383 . S
C1920 C1921 1.377 . S
C1921 H1905 0.930 . S
C1921 C1920 1.377 . S
C1921 C1922 1.379 . S
C1922 H1906 0.931 . S
C1922 C1916 1.383 . S
C1922 C1921 1.379 . S
H1923 C1917 0.959 . S
H1924 C1917 0.961 . S
H1925 C1917 0.960 . S
H1926 C1918 0.930 . S
H1927 C1919 0.929 . S
H1928 C1936 0.929 . S
H1929 C1938 0.930 . S
H1930 C1940 0.930 . S
H1931 C1943 0.929 . S
H1932 C1946 0.930 . S
H1933 C1948 0.960 . S
H1934 C1948 0.960 . S
H1935 C1948 0.960 . S
C1936 H1928 0.929 . S
C1936 C1937 1.377 . S
C1936 C1938 1.384 . S
C1937 C1936 1.377 . S
C1937 C1943 1.390 . S
C1938 H1929 0.930 . S
C1938 C1936 1.384 . S
C1938 C1939 1.372 . S
C1939 C1938 1.372 . S
C1939 C1940 1.400 . S
C1939 C1944 1.490 . S
C1940 H1930 0.930 . S
C1940 C1939 1.400 . S
C1940 C1943 1.386 . S
H1941 C1957 0.930 . S
H1942 C1958 0.931 . S
C1943 H1931 0.929 . S
C1943 C1937 1.390 . S
C1943 C1940 1.386 . S
C1944 C1939 1.490 . S
C1944 C1946 1.395 . S
C1944 C1947 1.403 . S
H1945 C1951 0.930 . S
C1946 H1932 0.930 . S
C1946 C1944 1.395 . S
C1946 C1949 1.403 . S
C1947 C1944 1.403 . S
C1947 C1948 1.524 . S
C1947 C1951 1.400 . S
C1948 H1933 0.960 . S
C1948 H1934 0.960 . S
C1948 H1935 0.960 . S
C1948 C1947 1.524 . S
C1949 C1946 1.403 . S
C1949 C1950 1.392 . S
C1949 C1953 1.495 . S
C1950 C1949 1.392 . S
C1950 C1951 1.385 . S
C1950 C1952 1.478 . S
C1951 H1945 0.930 . S
C1951 C1947 1.400 . S
C1951 C1950 1.385 . S
C1952 C1950 1.478 . S
C1952 C1954 1.381 . S
C1952 C1958 1.383 . S
C1953 C1949 1.495 . S
C1953 H1959 0.959 . S
C1953 H1960 0.961 . S
C1953 H1961 0.960 . S
C1954 C1952 1.381 . S
C1954 C1955 1.394 . S
C1954 H1962 0.930 . S
C1955 C1954 1.394 . S
C1955 C1956 1.383 . S
C1955 H1963 0.929 . S
C1956 C1955 1.383 . S
C1956 C1957 1.377 . S
C1957 H1941 0.930 . S
C1957 C1956 1.377 . S
C1957 C1958 1.379 . S
C1958 H1942 0.931 . S
C1958 C1952 1.383 . S
C1958 C1957 1.379 . S
H1959 C1953 0.959 . S
H1960 C1953 0.961 . S
H1961 C1953 0.960 . S
H1962 C1954 0.930 . S
H1963 C1955 0.929 . S
H1964 C1972 0.929 . S
H1965 C1974 0.930 . S
H1966 C1976 0.930 . S
H1967 C1979 0.929 . S
H1968 C1982 0.930 . S
H1969 C1984 0.960 . S
H1970 C1984 0.960 . S
H1971 C1984 0.960 . S
C1972 H1964 0.929 . S
C1972 C1973 1.377 . S
C1972 C1974 1.384 . S
C1973 C1972 1.377 . S
C1973 C1979 1.390 . S
C1974 H1965 0.930 . S
C1974 C1972 1.384 . S
C1974 C1975 1.372 . S
C1975 C1974 1.372 . S
C1975 C1976 1.400 . S
C1975 C1980 1.490 . S
C1976 H1966 0.930 . S
C1976 C1975 1.400 . S
C1976 C1979 1.386 . S
H1977 C1993 0.930 . S
H1978 C1994 0.931 . S
C1979 H1967 0.929 . S
C1979 C1973 1.390 . S
C1979 C1976 1.386 . S
C1980 C1975 1.490 . S
C1980 C1982 1.395 . S
C1980 C1983 1.403 . S
H1981 C1987 0.930 . S
C1982 H1968 0.930 . S
C1982 C1980 1.395 . S
C1982 C1985 1.403 . S
C1983 C1980 1.403 . S
C1983 C1984 1.524 . S
C1983 C1987 1.400 . S
C1984 H1969 0.960 . S
C1984 H1970 0.960 . S
C1984 H1971 0.960 . S
C1984 C1983 1.524 . S
C1985 C1982 1.403 . S
C1985 C1986 1.392 . S
C1985 C1989 1.495 . S
C1986 C1985 1.392 . S
C1986 C1987 1.385 . S
C1986 C1988 1.478 . S
C1987 H1981 0.930 . S
C1987 C1983 1.400 . S
C1987 C1986 1.385 . S
C1988 C1986 1.478 . S
C1988 C1990 1.381 . S
C1988 C1994 1.383 . S
C1989 C1985 1.495 . S
C1989 H1995 0.959 . S
C1989 H1996 0.961 . S
C1989 H1997 0.960 . S
C1990 C1988 1.381 . S
C1990 C1991 1.394 . S
C1990 H1998 0.930 . S
C1991 C1990 1.394 . S
C1991 C1992 1.383 . S
C1991 H1999 0.929 . S
C1992 C1991 1.383 . S
C1992 C1993 1.377 . S
C1993 H1977 0.930 . S
C1993 C1992 1.377 . S
C1993 C1994 1.379 . S
C1994 H1978 0.931 . S
C1994 C1988 1.383 . S
C1994 C1993 1.379 . S
H1995 C1989 0.959 . S
H1996 C1989 0.961 . S
H1997 C1989 0.960 . S
H1998 C1990 0.930 . S
H1999 C1991 0.929 . S
H2000 C2008 0.929 . S
H2001 C2010 0.930 . S
H2002 C2012 0.930 . S
H2003 C2015 0.929 . S
H2004 C2018 0.930 . S
H2005 C2020 0.960 . S
H2006 C2020 0.960 . S
H2007 C2020 0.960 . S
C2008 H2000 0.929 . S
C2008 C2009 1.377 . S
C2008 C2010 1.384 . S
C2009 C2008 1.377 . S
C2009 C2015 1.390 . S
C2010 H2001 0.930 . S
C2010 C2008 1.384 . S
C2010 C2011 1.372 . S
C2011 C2010 1.372 . S
C2011 C2012 1.400 . S
C2011 C2016 1.490 . S
C2012 H2002 0.930 . S
C2012 C2011 1.400 . S
C2012 C2015 1.386 . S
H2013 C2029 0.930 . S
H2014 C2030 0.931 . S
C2015 H2003 0.929 . S
C2015 C2009 1.390 . S
C2015 C2012 1.386 . S
C2016 C2011 1.490 . S
C2016 C2018 1.395 . S
C2016 C2019 1.403 . S
H2017 C2023 0.930 . S
C2018 H2004 0.930 . S
C2018 C2016 1.395 . S
C2018 C2021 1.403 . S
C2019 C2016 1.403 . S
C2019 C2020 1.524 . S
C2019 C2023 1.400 . S
C2020 H2005 0.960 . S
C2020 H2006 0.960 . S
C2020 H2007 0.960 . S
C2020 C2019 1.524 . S
C2021 C2018 1.403 . S
C2021 C2022 1.392 . S
C2021 C2025 1.495 . S
C2022 C2021 1.392 . S
C2022 C2023 1.385 . S
C2022 C2024 1.478 . S
C2023 H2017 0.930 . S
C2023 C2019 1.400 . S
C2023 C2022 1.385 . S
C2024 C2022 1.478 . S
C2024 C2026 1.381 . S
C2024 C2030 1.383 . S
C2025 C2021 1.495 . S
C2025 H2031 0.959 . S
C2025 H2032 0.961 . S
C2025 H2033 0.960 . S
C2026 C2024 1.381 . S
C2026 C2027 1.394 . S
C2026 H2034 0.930 . S
C2027 C2026 1.394 . S
C2027 C2028 1.383 . S
C2027 H2035 0.929 . S
C2028 C2027 1.383 . S
C2028 C2029 1.377 . S
C2029 H2013 0.930 . S
C2029 C2028 1.377 . S
C2029 C2030 1.379 . S
C2030 H2014 0.931 . S
C2030 C2024 1.383 . S
C2030 C2029 1.379 . S
H2031 C2025 0.959 . S
H2032 C2025 0.961 . S
H2033 C2025 0.960 . S
H2034 C2026 0.930 . S
H2035 C2027 0.929 . S
H2036 C2044 0.929 . S
H2037 C2046 0.874 1_655 S
H2038 C2048 0.930 . S
H2039 C2051 0.929 . S
H2040 C2054 0.930 . S
H2041 C2056 0.960 . S
H2042 C2056 0.960 . S
H2043 C2056 0.960 . S
C2044 H2036 0.929 . S
C2044 C2045 1.377 . S
C2044 C2046 1.384 . S
C2045 C2044 1.377 . S
C2045 C2051 1.390 . S
C2046 H2037 0.874 1_455 S
C2046 C2044 1.384 . S
C2046 C2047 1.372 . S
C2047 C2046 1.372 . S
C2047 C2048 1.400 . S
C2047 C2052 1.490 . S
C2048 H2038 0.930 . S
C2048 C2047 1.400 . S
C2048 C2051 1.386 . S
H2049 C2065 0.930 . S
H2050 C2066 0.931 . S
C2051 H2039 0.929 . S
C2051 C2045 1.390 . S
C2051 C2048 1.386 . S
C2052 C2047 1.490 . S
C2052 C2054 1.395 . S
C2052 C2055 1.403 . S
H2053 C2059 0.930 . S
C2054 H2040 0.930 . S
C2054 C2052 1.395 . S
C2054 C2057 1.403 . S
C2055 C2052 1.403 . S
C2055 C2056 1.524 . S
C2055 C2059 1.400 . S
C2056 H2041 0.960 . S
C2056 H2042 0.960 . S
C2056 H2043 0.960 . S
C2056 C2055 1.524 . S
C2057 C2054 1.403 . S
C2057 C2058 1.392 . S
C2057 C2061 1.495 1_455 S
C2058 C2057 1.392 . S
C2058 C2059 1.385 . S
C2058 C2060 1.478 . S
C2059 H2053 0.930 . S
C2059 C2055 1.400 . S
C2059 C2058 1.385 . S
C2060 C2058 1.478 . S
C2060 C2062 1.374 1_455 S
C2060 C2066 1.383 . S
C2061 C2057 1.495 1_655 S
C2061 H2067 0.959 . S
C2061 H2068 0.961 . S
C2061 H2069 0.960 . S
C2062 C2060 1.374 1_655 S
C2062 C2063 1.393 . S
C2062 H2070 0.937 . S
C2063 C2062 1.393 . S
C2063 C2064 1.326 1_655 S
C2063 H2071 0.991 . S
C2064 C2063 1.326 1_455 S
C2064 C2065 1.377 . S
C2065 H2049 0.930 . S
C2065 C2064 1.377 . S
C2065 C2066 1.379 . S
C2066 H2050 0.931 . S
C2066 C2060 1.383 . S
C2066 C2065 1.379 . S
H2067 C2061 0.959 . S
H2068 C2061 0.961 . S
H2069 C2061 0.960 . S
H2070 C2062 0.937 . S
H2071 C2063 0.991 . S
H2072 C2080 0.929 . S
H2073 C2082 0.930 . S
H2074 C2084 0.930 . S
H2075 C2087 0.929 . S
H2076 C2090 0.930 . S
H2077 C2092 0.960 . S
H2078 C2092 0.960 . S
H2079 C2092 0.960 . S
C2080 H2072 0.929 . S
C2080 C2081 1.377 . S
C2080 C2082 1.384 . S
C2081 C2080 1.377 . S
C2081 C2087 1.390 . S
C2082 H2073 0.930 . S
C2082 C2080 1.384 . S
C2082 C2083 1.372 . S
C2083 C2082 1.372 . S
C2083 C2084 1.400 . S
C2083 C2088 1.490 . S
C2084 H2074 0.930 . S
C2084 C2083 1.400 . S
C2084 C2087 1.386 . S
H2085 C2101 0.930 . S
H2086 C2102 0.931 . S
C2087 H2075 0.929 . S
C2087 C2081 1.390 . S
C2087 C2084 1.386 . S
C2088 C2083 1.490 . S
C2088 C2090 1.395 . S
C2088 C2091 1.403 . S
H2089 C2095 0.930 . S
C2090 H2076 0.930 . S
C2090 C2088 1.395 . S
C2090 C2093 1.403 . S
C2091 C2088 1.403 . S
C2091 C2092 1.524 . S
C2091 C2095 1.400 . S
C2092 H2077 0.960 . S
C2092 H2078 0.960 . S
C2092 H2079 0.960 . S
C2092 C2091 1.524 . S
C2093 C2090 1.403 . S
C2093 C2094 1.392 . S
C2093 C2097 1.495 . S
C2094 C2093 1.392 . S
C2094 C2095 1.385 . S
C2094 C2096 1.478 . S
C2095 H2089 0.930 . S
C2095 C2091 1.400 . S
C2095 C2094 1.385 . S
C2096 C2094 1.478 . S
C2096 C2098 1.381 . S
C2096 C2102 1.383 . S
C2097 C2093 1.495 . S
C2097 H2103 0.959 . S
C2097 H2104 0.961 . S
C2097 H2105 0.960 . S
C2098 C2096 1.381 . S
C2098 C2099 1.394 . S
C2098 H2106 0.930 . S
C2099 C2098 1.394 . S
C2099 C2100 1.383 . S
C2099 H2107 0.929 . S
C2100 C2099 1.383 . S
C2100 C2101 1.377 . S
C2101 H2085 0.930 . S
C2101 C2100 1.377 . S
C2101 C2102 1.379 . S
C2102 H2086 0.931 . S
C2102 C2096 1.383 . S
C2102 C2101 1.379 . S
H2103 C2097 0.959 . S
H2104 C2097 0.961 . S
H2105 C2097 0.960 . S
H2106 C2098 0.930 . S
H2107 C2099 0.929 . S
H2108 C2116 0.929 . S
H2109 C2118 0.930 . S
H2110 C2120 0.930 . S
H2111 C2123 0.929 . S
H2112 C2126 0.930 . S
H2113 C2128 0.960 . S
H2114 C2128 0.960 . S
H2115 C2128 0.960 . S
C2116 H2108 0.929 . S
C2116 C2117 1.377 . S
C2116 C2118 1.384 . S
C2117 C2116 1.377 . S
C2117 C2123 1.390 . S
C2118 H2109 0.930 . S
C2118 C2116 1.384 . S
C2118 C2119 1.372 . S
C2119 C2118 1.372 . S
C2119 C2120 1.400 . S
C2119 C2124 1.490 . S
C2120 H2110 0.930 . S
C2120 C2119 1.400 . S
C2120 C2123 1.386 . S
H2121 C2137 0.930 . S
H2122 C2138 0.931 . S
C2123 H2111 0.929 . S
C2123 C2117 1.390 . S
C2123 C2120 1.386 . S
C2124 C2119 1.490 . S
C2124 C2126 1.395 . S
C2124 C2127 1.403 . S
H2125 C2131 0.930 1_455 S
C2126 H2112 0.930 . S
C2126 C2124 1.395 . S
C2126 C2129 1.403 . S
C2127 C2124 1.403 . S
C2127 C2128 1.524 1_655 S
C2127 C2131 1.400 . S
C2128 H2113 0.960 . S
C2128 H2114 0.960 . S
C2128 H2115 0.960 . S
C2128 C2127 1.524 1_455 S
C2129 C2126 1.403 . S
C2129 C2130 1.392 . S
C2129 C2133 1.495 . S
C2130 C2129 1.392 . S
C2130 C2131 1.385 . S
C2130 C2132 1.478 . S
C2131 H2125 0.930 1_655 S
C2131 C2127 1.400 . S
C2131 C2130 1.385 . S
C2132 C2130 1.478 . S
C2132 C2134 1.381 . S
C2132 C2138 1.383 . S
C2133 C2129 1.495 . S
C2133 H2139 0.959 . S
C2133 H2140 0.961 . S
C2133 H2141 0.960 . S
C2134 C2132 1.381 . S
C2134 C2135 1.394 . S
C2134 H2142 0.930 . S
C2135 C2134 1.394 . S
C2135 C2136 1.383 . S
C2135 H2143 0.929 . S
C2136 C2135 1.383 . S
C2136 C2137 1.377 . S
C2137 H2121 0.930 . S
C2137 C2136 1.377 . S
C2137 C2138 1.379 . S
C2138 H2122 0.931 . S
C2138 C2132 1.383 . S
C2138 C2137 1.379 . S
H2139 C2133 0.959 . S
H2140 C2133 0.961 . S
H2141 C2133 0.960 . S
H2142 C2134 0.930 . S
H2143 C2135 0.929 . S
H2144 C2152 0.929 . S
H2145 C2154 0.930 . S
H2146 C2156 0.930 . S
H2147 C2159 0.929 . S
H2148 C2162 0.930 . S
H2149 C2164 0.960 . S
H2150 C2164 0.960 . S
H2151 C2164 0.960 . S
C2152 H2144 0.929 . S
C2152 C2153 1.377 . S
C2152 C2154 1.384 . S
C2153 C2152 1.377 . S
C2153 C2159 1.390 . S
C2154 H2145 0.930 . S
C2154 C2152 1.384 . S
C2154 C2155 1.372 . S
C2155 C2154 1.372 . S
C2155 C2156 1.400 . S
C2155 C2160 1.490 . S
C2156 H2146 0.930 . S
C2156 C2155 1.400 . S
C2156 C2159 1.386 . S
H2157 C2173 0.930 . S
H2158 C2174 0.931 . S
C2159 H2147 0.929 . S
C2159 C2153 1.390 . S
C2159 C2156 1.386 . S
C2160 C2155 1.490 . S
C2160 C2162 1.395 . S
C2160 C2163 1.403 . S
H2161 C2167 0.930 . S
C2162 H2148 0.930 . S
C2162 C2160 1.395 . S
C2162 C2165 1.403 . S
C2163 C2160 1.403 . S
C2163 C2164 1.524 . S
C2163 C2167 1.400 . S
C2164 H2149 0.960 . S
C2164 H2150 0.960 . S
C2164 H2151 0.960 . S
C2164 C2163 1.524 . S
C2165 C2162 1.403 . S
C2165 C2166 1.392 . S
C2165 C2169 1.495 . S
C2166 C2165 1.392 . S
C2166 C2167 1.385 . S
C2166 C2168 1.478 . S
C2167 H2161 0.930 . S
C2167 C2163 1.400 . S
C2167 C2166 1.385 . S
C2168 C2166 1.478 . S
C2168 C2170 1.381 . S
C2168 C2174 1.383 . S
C2169 C2165 1.495 . S
C2169 H2175 0.959 . S
C2169 H2176 0.961 . S
C2169 H2177 0.960 . S
C2170 C2168 1.381 . S
C2170 C2171 1.394 . S
C2170 H2178 0.930 . S
C2171 C2170 1.394 . S
C2171 C2172 1.383 . S
C2171 H2179 0.929 . S
C2172 C2171 1.383 . S
C2172 C2173 1.377 . S
C2173 H2157 0.930 . S
C2173 C2172 1.377 . S
C2173 C2174 1.379 . S
C2174 H2158 0.931 . S
C2174 C2168 1.383 . S
C2174 C2173 1.379 . S
H2175 C2169 0.959 . S
H2176 C2169 0.961 . S
H2177 C2169 0.960 . S
H2178 C2170 0.930 . S
H2179 C2171 0.929 . S
H2180 C2188 0.929 . S
H2181 C2190 0.930 . S
H2182 C2192 0.930 . S
H2183 C2195 0.929 . S
H2184 C2198 0.930 . S
H2185 C2200 0.960 . S
H2186 C2200 0.960 . S
H2187 C2200 0.960 . S
C2188 H2180 0.929 . S
C2188 C2189 1.377 . S
C2188 C2190 1.384 . S
C2189 C2188 1.377 . S
C2189 C2195 1.390 . S
C2190 H2181 0.930 . S
C2190 C2188 1.384 . S
C2190 C2191 1.372 . S
C2191 C2190 1.372 . S
C2191 C2192 1.400 . S
C2191 C2196 1.490 . S
C2192 H2182 0.930 . S
C2192 C2191 1.400 . S
C2192 C2195 1.386 . S
H2193 C2209 0.930 . S
H2194 C2210 0.931 . S
C2195 H2183 0.929 . S
C2195 C2189 1.390 . S
C2195 C2192 1.386 . S
C2196 C2191 1.490 . S
C2196 C2198 1.395 . S
C2196 C2199 1.403 . S
H2197 C2203 0.930 . S
C2198 H2184 0.930 . S
C2198 C2196 1.395 . S
C2198 C2201 1.403 . S
C2199 C2196 1.403 . S
C2199 C2200 1.524 . S
C2199 C2203 1.400 . S
C2200 H2185 0.960 . S
C2200 H2186 0.960 . S
C2200 H2187 0.960 . S
C2200 C2199 1.524 . S
C2201 C2198 1.403 . S
C2201 C2202 1.392 . S
C2201 C2205 1.495 . S
C2202 C2201 1.392 . S
C2202 C2203 1.385 . S
C2202 C2204 1.478 . S
C2203 H2197 0.930 . S
C2203 C2199 1.400 . S
C2203 C2202 1.385 . S
C2204 C2202 1.478 . S
C2204 C2206 1.381 . S
C2204 C2210 1.383 . S
C2205 C2201 1.495 . S
C2205 H2211 0.959 . S
C2205 H2212 0.961 . S
C2205 H2213 0.960 . S
C2206 C2204 1.381 . S
C2206 C2207 1.394 . S
C2206 H2214 0.930 . S
C2207 C2206 1.394 . S
C2207 C2208 1.383 . S
C2207 H2215 0.929 . S
C2208 C2207 1.383 . S
C2208 C2209 1.377 . S
C2209 H2193 0.930 . S
C2209 C2208 1.377 . S
C2209 C2210 1.379 . S
C2210 H2194 0.931 . S
C2210 C2204 1.383 . S
C2210 C2209 1.379 . S
H2211 C2205 0.959 . S
H2212 C2205 0.961 . S
H2213 C2205 0.960 . S
H2214 C2206 0.930 . S
H2215 C2207 0.929 . S
H2216 C2224 0.929 . S
H2217 C2226 0.930 . S
H2218 C2228 0.930 1_554 S
H2219 C2231 0.927 1_554 S
H2220 C2234 0.930 . S
H2221 C2236 0.960 . S
H2222 C2236 0.960 . S
H2223 C2236 0.960 1_554 S
C2224 H2216 0.929 . S
C2224 C2225 1.377 . S
C2224 C2226 1.384 . S
C2225 C2224 1.377 . S
C2225 C2231 1.390 . S
C2226 H2217 0.930 . S
C2226 C2224 1.384 . S
C2226 C2227 1.372 . S
C2227 C2226 1.372 . S
C2227 C2228 1.400 . S
C2227 C2232 1.490 . S
C2228 H2218 0.930 1_556 S
C2228 C2227 1.400 . S
C2228 C2231 1.386 . S
H2229 C2245 0.930 . S
H2230 C2246 0.918 1_554 S
C2231 H2219 0.927 1_556 S
C2231 C2225 1.390 . S
C2231 C2228 1.386 . S
C2232 C2227 1.490 . S
C2232 C2234 1.395 . S
C2232 C2235 1.403 . S
H2233 C2239 0.930 . S
C2234 H2220 0.930 . S
C2234 C2232 1.395 . S
C2234 C2237 1.403 . S
C2235 C2232 1.403 . S
C2235 C2236 1.524 . S
C2235 C2239 1.400 . S
C2236 H2221 0.960 . S
C2236 H2222 0.960 . S
C2236 H2223 0.960 1_556 S
C2236 C2235 1.524 . S
C2237 C2234 1.403 . S
C2237 C2238 1.392 . S
C2237 C2241 1.495 . S
C2238 C2237 1.392 . S
C2238 C2239 1.385 . S
C2238 C2240 1.478 . S
C2239 H2233 0.930 . S
C2239 C2235 1.400 . S
C2239 C2238 1.385 . S
C2240 C2238 1.478 . S
C2240 C2242 1.381 . S
C2240 C2246 1.398 . S
C2241 C2237 1.495 . S
C2241 H2247 0.959 . S
C2241 H2248 0.961 . S
C2241 H2249 0.960 . S
C2242 C2240 1.381 . S
C2242 C2243 1.394 . S
C2242 H2250 0.930 . S
C2243 C2242 1.394 . S
C2243 C2244 1.383 . S
C2243 H2251 0.929 . S
C2244 C2243 1.383 . S
C2244 C2245 1.377 1_556 S
C2245 H2229 0.930 . S
C2245 C2244 1.377 1_554 S
C2245 C2246 1.378 1_554 S
C2246 H2230 0.918 1_556 S
C2246 C2240 1.398 . S
C2246 C2245 1.378 1_556 S
H2247 C2241 0.959 . S
H2248 C2241 0.961 . S
H2249 C2241 0.960 . S
H2250 C2242 0.930 . S
H2251 C2243 0.929 . S
H2252 C2260 0.929 . S
H2253 C2262 0.930 . S
H2254 C2264 0.930 . S
H2255 C2267 0.929 . S
H2256 C2270 0.930 . S
H2257 C2272 0.960 . S
H2258 C2272 0.960 . S
H2259 C2272 0.960 . S
C2260 H2252 0.929 . S
C2260 C2261 1.377 . S
C2260 C2262 1.384 . S
C2261 C2260 1.377 . S
C2261 C2267 1.390 . S
C2262 H2253 0.930 . S
C2262 C2260 1.384 . S
C2262 C2263 1.372 . S
C2263 C2262 1.372 . S
C2263 C2264 1.400 . S
C2263 C2268 1.490 . S
C2264 H2254 0.930 . S
C2264 C2263 1.400 . S
C2264 C2267 1.386 . S
H2265 C2281 0.930 . S
H2266 C2282 0.931 . S
C2267 H2255 0.929 . S
C2267 C2261 1.390 . S
C2267 C2264 1.386 . S
C2268 C2263 1.490 . S
C2268 C2270 1.395 . S
C2268 C2271 1.403 . S
H2269 C2275 0.930 . S
C2270 H2256 0.930 . S
C2270 C2268 1.395 . S
C2270 C2273 1.403 . S
C2271 C2268 1.403 . S
C2271 C2272 1.524 . S
C2271 C2275 1.400 . S
C2272 H2257 0.960 . S
C2272 H2258 0.960 . S
C2272 H2259 0.960 . S
C2272 C2271 1.524 . S
C2273 C2270 1.403 . S
C2273 C2274 1.392 . S
C2273 C2277 1.495 . S
C2274 C2273 1.392 . S
C2274 C2275 1.385 . S
C2274 C2276 1.478 . S
C2275 H2269 0.930 . S
C2275 C2271 1.400 . S
C2275 C2274 1.385 . S
C2276 C2274 1.478 . S
C2276 C2278 1.381 . S
C2276 C2282 1.383 . S
C2277 C2273 1.495 . S
C2277 H2283 0.959 . S
C2277 H2284 0.961 . S
C2277 H2285 0.960 . S
C2278 C2276 1.381 . S
C2278 C2279 1.394 . S
C2278 H2286 0.930 . S
C2279 C2278 1.394 . S
C2279 C2280 1.383 . S
C2279 H2287 0.929 . S
C2280 C2279 1.383 . S
C2280 C2281 1.377 . S
C2281 H2265 0.930 . S
C2281 C2280 1.377 . S
C2281 C2282 1.379 . S
C2282 H2266 0.931 . S
C2282 C2276 1.383 . S
C2282 C2281 1.379 . S
H2283 C2277 0.959 . S
H2284 C2277 0.961 . S
H2285 C2277 0.960 . S
H2286 C2278 0.930 . S
H2287 C2279 0.929 . S
H2288 C2296 0.929 . S
H2289 C2298 0.930 . S
H2290 C2300 0.930 . S
H2291 C2303 0.929 . S
H2292 C2306 0.930 . S
H2293 C2308 0.960 . S
H2294 C2308 0.960 . S
H2295 C2308 0.960 . S
C2296 H2288 0.929 . S
C2296 C2297 1.377 . S
C2296 C2298 1.384 . S
C2297 C2296 1.377 . S
C2297 C2303 1.390 . S
C2298 H2289 0.930 . S
C2298 C2296 1.384 . S
C2298 C2299 1.372 . S
C2299 C2298 1.372 . S
C2299 C2300 1.400 . S
C2299 C2304 1.490 . S
C2300 H2290 0.930 . S
C2300 C2299 1.400 . S
C2300 C2303 1.386 . S
H2301 C2317 0.930 . S
H2302 C2318 0.931 . S
C2303 H2291 0.929 . S
C2303 C2297 1.390 . S
C2303 C2300 1.386 . S
C2304 C2299 1.490 . S
C2304 C2306 1.395 . S
C2304 C2307 1.403 . S
H2305 C2311 0.930 . S
C2306 H2292 0.930 . S
C2306 C2304 1.395 . S
C2306 C2309 1.403 . S
C2307 C2304 1.403 . S
C2307 C2308 1.524 . S
C2307 C2311 1.400 . S
C2308 H2293 0.960 . S
C2308 H2294 0.960 . S
C2308 H2295 0.960 . S
C2308 C2307 1.524 . S
C2309 C2306 1.403 . S
C2309 C2310 1.392 . S
C2309 C2313 1.495 . S
C2310 C2309 1.392 . S
C2310 C2311 1.385 . S
C2310 C2312 1.478 . S
C2311 H2305 0.930 . S
C2311 C2307 1.400 . S
C2311 C2310 1.385 . S
C2312 C2310 1.478 . S
C2312 C2314 1.381 . S
C2312 C2318 1.383 . S
C2313 C2309 1.495 . S
C2313 H2319 0.959 . S
C2313 H2320 0.961 . S
C2313 H2321 0.960 . S
C2314 C2312 1.381 . S
C2314 C2315 1.394 . S
C2314 H2322 0.930 . S
C2315 C2314 1.394 . S
C2315 C2316 1.383 . S
C2315 H2323 0.929 . S
C2316 C2315 1.383 . S
C2316 C2317 1.377 . S
C2317 H2301 0.930 . S
C2317 C2316 1.377 . S
C2317 C2318 1.379 . S
C2318 H2302 0.931 . S
C2318 C2312 1.383 . S
C2318 C2317 1.379 . S
H2319 C2313 0.959 . S
H2320 C2313 0.961 . S
H2321 C2313 0.960 . S
H2322 C2314 0.930 . S
H2323 C2315 0.929 . S
H2324 C2332 0.929 . S
H2325 C2334 0.930 . S
H2326 C2336 0.930 . S
H2327 C2339 0.929 . S
H2328 C2342 0.930 . S
H2329 C2344 0.960 . S
H2330 C2344 0.960 . S
H2331 C2344 0.960 . S
C2332 H2324 0.929 . S
C2332 C2333 1.377 . S
C2332 C2334 1.384 . S
C2333 C2332 1.377 . S
C2333 C2339 1.390 . S
C2334 H2325 0.930 . S
C2334 C2332 1.384 . S
C2334 C2335 1.372 . S
C2335 C2334 1.372 . S
C2335 C2336 1.400 . S
C2335 C2340 1.490 . S
C2336 H2326 0.930 . S
C2336 C2335 1.400 . S
C2336 C2339 1.386 . S
H2337 C2353 0.930 . S
H2338 C2354 0.931 . S
C2339 H2327 0.929 . S
C2339 C2333 1.390 . S
C2339 C2336 1.386 . S
C2340 C2335 1.490 . S
C2340 C2342 1.395 . S
C2340 C2343 1.403 . S
H2341 C2347 0.930 . S
C2342 H2328 0.930 . S
C2342 C2340 1.395 . S
C2342 C2345 1.403 . S
C2343 C2340 1.403 . S
C2343 C2344 1.524 . S
C2343 C2347 1.400 . S
C2344 H2329 0.960 . S
C2344 H2330 0.960 . S
C2344 H2331 0.960 . S
C2344 C2343 1.524 . S
C2345 C2342 1.403 . S
C2345 C2346 1.392 . S
C2345 C2349 1.495 . S
C2346 C2345 1.392 . S
C2346 C2347 1.385 . S
C2346 C2348 1.478 . S
C2347 H2341 0.930 . S
C2347 C2343 1.400 . S
C2347 C2346 1.385 . S
C2348 C2346 1.478 . S
C2348 C2350 1.381 . S
C2348 C2354 1.383 . S
C2349 C2345 1.495 . S
C2349 H2355 0.959 . S
C2349 H2356 0.961 . S
C2349 H2357 0.960 . S
C2350 C2348 1.381 . S
C2350 C2351 1.394 . S
C2350 H2358 0.930 . S
C2351 C2350 1.394 . S
C2351 C2352 1.383 . S
C2351 H2359 0.929 . S
C2352 C2351 1.383 . S
C2352 C2353 1.377 . S
C2353 H2337 0.930 . S
C2353 C2352 1.377 . S
C2353 C2354 1.379 . S
C2354 H2338 0.931 . S
C2354 C2348 1.383 . S
C2354 C2353 1.379 . S
H2355 C2349 0.959 . S
H2356 C2349 0.961 . S
H2357 C2349 0.960 . S
H2358 C2350 0.930 . S
H2359 C2351 0.929 . S
H2360 C2368 0.929 . S
H2361 C2370 0.930 . S
H2362 C2372 0.930 . S
H2363 C2375 0.929 . S
H2364 C2378 0.930 . S
H2365 C2380 0.960 . S
H2366 C2380 0.960 . S
H2367 C2380 0.960 . S
C2368 H2360 0.929 . S
C2368 C2369 1.377 . S
C2368 C2370 1.384 . S
C2369 C2368 1.377 . S
C2369 C2375 1.390 . S
C2370 H2361 0.930 . S
C2370 C2368 1.384 . S
C2370 C2371 1.372 . S
C2371 C2370 1.372 . S
C2371 C2372 1.400 . S
C2371 C2376 1.490 . S
C2372 H2362 0.930 . S
C2372 C2371 1.400 . S
C2372 C2375 1.386 . S
H2373 C2389 0.930 . S
H2374 C2390 0.931 . S
C2375 H2363 0.929 . S
C2375 C2369 1.390 . S
C2375 C2372 1.386 . S
C2376 C2371 1.490 . S
C2376 C2378 1.395 . S
C2376 C2379 1.403 . S
H2377 C2383 0.930 . S
C2378 H2364 0.930 . S
C2378 C2376 1.395 . S
C2378 C2381 1.403 . S
C2379 C2376 1.403 . S
C2379 C2380 1.524 . S
C2379 C2383 1.400 . S
C2380 H2365 0.960 . S
C2380 H2366 0.960 . S
C2380 H2367 0.960 . S
C2380 C2379 1.524 . S
C2381 C2378 1.403 . S
C2381 C2382 1.392 . S
C2381 C2385 1.495 . S
C2382 C2381 1.392 . S
C2382 C2383 1.385 . S
C2382 C2384 1.478 . S
C2383 H2377 0.930 . S
C2383 C2379 1.400 . S
C2383 C2382 1.385 . S
C2384 C2382 1.478 . S
C2384 C2386 1.381 . S
C2384 C2390 1.383 . S
C2385 C2381 1.495 . S
C2385 H2391 0.959 . S
C2385 H2392 0.961 . S
C2385 H2393 0.960 . S
C2386 C2384 1.381 . S
C2386 C2387 1.394 . S
C2386 H2394 0.930 . S
C2387 C2386 1.394 . S
C2387 C2388 1.383 . S
C2387 H2395 0.929 . S
C2388 C2387 1.383 . S
C2388 C2389 1.377 . S
C2389 H2373 0.930 . S
C2389 C2388 1.377 . S
C2389 C2390 1.379 . S
C2390 H2374 0.931 . S
C2390 C2384 1.383 . S
C2390 C2389 1.379 . S
H2391 C2385 0.959 . S
H2392 C2385 0.961 . S
H2393 C2385 0.960 . S
H2394 C2386 0.930 . S
H2395 C2387 0.929 . S
H2396 C2404 0.929 . S
H2397 C2406 0.930 . S
H2398 C2408 0.930 . S
H2399 C2411 0.929 . S
H2400 C2414 0.930 . S
H2401 C2416 0.960 . S
H2402 C2416 0.960 . S
H2403 C2416 0.960 . S
C2404 H2396 0.929 . S
C2404 C2405 1.377 . S
C2404 C2406 1.384 . S
C2405 C2404 1.377 . S
C2405 C2411 1.390 . S
C2406 H2397 0.930 . S
C2406 C2404 1.384 . S
C2406 C2407 1.372 . S
C2407 C2406 1.372 . S
C2407 C2408 1.400 . S
C2407 C2412 1.490 . S
C2408 H2398 0.930 . S
C2408 C2407 1.400 . S
C2408 C2411 1.386 . S
H2409 C2425 0.930 . S
H2410 C2426 0.931 . S
C2411 H2399 0.929 . S
C2411 C2405 1.390 . S
C2411 C2408 1.386 . S
C2412 C2407 1.490 . S
C2412 C2414 1.395 . S
C2412 C2415 1.403 . S
H2413 C2419 0.930 . S
C2414 H2400 0.930 . S
C2414 C2412 1.395 . S
C2414 C2417 1.403 . S
C2415 C2412 1.403 . S
C2415 C2416 1.524 . S
C2415 C2419 1.400 . S
C2416 H2401 0.960 . S
C2416 H2402 0.960 . S
C2416 H2403 0.960 . S
C2416 C2415 1.524 . S
C2417 C2414 1.403 . S
C2417 C2418 1.392 . S
C2417 C2421 1.495 . S
C2418 C2417 1.392 . S
C2418 C2419 1.385 . S
C2418 C2420 1.478 . S
C2419 H2413 0.930 . S
C2419 C2415 1.400 . S
C2419 C2418 1.385 . S
C2420 C2418 1.478 . S
C2420 C2422 1.381 . S
C2420 C2426 1.383 . S
C2421 C2417 1.495 . S
C2421 H2427 0.959 . S
C2421 H2428 0.961 . S
C2421 H2429 0.960 . S
C2422 C2420 1.381 . S
C2422 C2423 1.394 . S
C2422 H2430 0.930 . S
C2423 C2422 1.394 . S
C2423 C2424 1.383 . S
C2423 H2431 0.929 . S
C2424 C2423 1.383 . S
C2424 C2425 1.377 . S
C2425 H2409 0.930 . S
C2425 C2424 1.377 . S
C2425 C2426 1.379 . S
C2426 H2410 0.931 . S
C2426 C2420 1.383 . S
C2426 C2425 1.379 . S
H2427 C2421 0.959 . S
H2428 C2421 0.961 . S
H2429 C2421 0.960 . S
H2430 C2422 0.930 . S
H2431 C2423 0.929 . S
H2432 C2440 0.929 . S
H2433 C2442 0.930 . S
H2434 C2444 0.930 . S
H2435 C2447 0.929 . S
H2436 C2450 0.930 . S
H2437 C2452 0.960 . S
H2438 C2452 0.960 . S
H2439 C2452 0.960 . S
C2440 H2432 0.929 . S
C2440 C2441 1.377 . S
C2440 C2442 1.384 . S
C2441 C2440 1.377 . S
C2441 C2447 1.390 . S
C2442 H2433 0.930 . S
C2442 C2440 1.384 . S
C2442 C2443 1.372 . S
C2443 C2442 1.372 . S
C2443 C2444 1.400 . S
C2443 C2448 1.490 . S
C2444 H2434 0.930 . S
C2444 C2443 1.400 . S
C2444 C2447 1.386 . S
H2445 C2461 0.930 . S
H2446 C2462 0.931 . S
C2447 H2435 0.929 . S
C2447 C2441 1.390 . S
C2447 C2444 1.386 . S
C2448 C2443 1.490 . S
C2448 C2450 1.395 . S
C2448 C2451 1.403 . S
H2449 C2455 0.930 . S
C2450 H2436 0.930 . S
C2450 C2448 1.395 . S
C2450 C2453 1.403 . S
C2451 C2448 1.403 . S
C2451 C2452 1.524 . S
C2451 C2455 1.400 . S
C2452 H2437 0.960 . S
C2452 H2438 0.960 . S
C2452 H2439 0.960 . S
C2452 C2451 1.524 . S
C2453 C2450 1.403 . S
C2453 C2454 1.392 . S
C2453 C2457 1.495 . S
C2454 C2453 1.392 . S
C2454 C2455 1.385 . S
C2454 C2456 1.478 . S
C2455 H2449 0.930 . S
C2455 C2451 1.400 . S
C2455 C2454 1.385 . S
C2456 C2454 1.478 . S
C2456 C2458 1.381 . S
C2456 C2462 1.383 . S
C2457 C2453 1.495 . S
C2457 H2463 0.959 . S
C2457 H2464 0.961 . S
C2457 H2465 0.960 . S
C2458 C2456 1.381 . S
C2458 C2459 1.394 . S
C2458 H2466 0.930 . S
C2459 C2458 1.394 . S
C2459 C2460 1.383 . S
C2459 H2467 0.929 . S
C2460 C2459 1.383 . S
C2460 C2461 1.377 . S
C2461 H2445 0.930 . S
C2461 C2460 1.377 . S
C2461 C2462 1.379 . S
C2462 H2446 0.931 . S
C2462 C2456 1.383 . S
C2462 C2461 1.379 . S
H2463 C2457 0.959 . S
H2464 C2457 0.961 . S
H2465 C2457 0.960 . S
H2466 C2458 0.930 . S
H2467 C2459 0.929 . S
H2468 C2476 0.929 . S
H2469 C2478 0.930 . S
H2470 C2480 0.930 . S
H2471 C2483 0.929 . S
H2472 C2486 0.930 1_565 S
H2473 C2488 0.960 . S
H2474 C2488 0.960 . S
H2475 C2488 0.960 . S
C2476 H2468 0.929 . S
C2476 C2477 1.377 . S
C2476 C2478 1.384 . S
C2477 C2476 1.377 . S
C2477 C2483 1.390 . S
C2478 H2469 0.930 . S
C2478 C2476 1.384 . S
C2478 C2479 1.372 . S
C2479 C2478 1.372 . S
C2479 C2480 1.400 . S
C2479 C2484 1.490 . S
C2480 H2470 0.930 . S
C2480 C2479 1.400 . S
C2480 C2483 1.386 . S
H2481 C2497 0.930 . S
H2482 C2498 0.931 . S
C2483 H2471 0.929 . S
C2483 C2477 1.390 . S
C2483 C2480 1.386 . S
C2484 C2479 1.490 . S
C2484 C2486 1.395 . S
C2484 C2487 1.403 . S
H2485 C2491 0.930 . S
C2486 H2472 0.930 1_545 S
C2486 C2484 1.395 . S
C2486 C2489 1.403 . S
C2487 C2484 1.403 . S
C2487 C2488 1.524 . S
C2487 C2491 1.400 . S
C2488 H2473 0.960 . S
C2488 H2474 0.960 . S
C2488 H2475 0.960 . S
C2488 C2487 1.524 . S
C2489 C2486 1.403 . S
C2489 C2490 1.392 . S
C2489 C2493 1.495 1_545 S
C2490 C2489 1.392 . S
C2490 C2491 1.385 . S
C2490 C2492 1.478 . S
C2491 H2485 0.930 . S
C2491 C2487 1.400 . S
C2491 C2490 1.385 . S
C2492 C2490 1.478 . S
C2492 C2494 1.381 . S
C2492 C2498 1.383 . S
C2493 C2489 1.495 1_565 S
C2493 H2499 0.959 . S
C2493 H2500 0.961 . S
C2493 H2501 0.960 . S
C2494 C2492 1.381 . S
C2494 C2495 1.394 . S
C2494 H2502 0.930 . S
C2495 C2494 1.394 . S
C2495 C2496 1.383 . S
C2495 H2503 0.929 . S
C2496 C2495 1.383 . S
C2496 C2497 1.377 . S
C2497 H2481 0.930 . S
C2497 C2496 1.377 . S
C2497 C2498 1.379 . S
C2498 H2482 0.931 . S
C2498 C2492 1.383 . S
C2498 C2497 1.379 . S
H2499 C2493 0.959 . S
H2500 C2493 0.961 . S
H2501 C2493 0.960 . S
H2502 C2494 0.930 . S
H2503 C2495 0.929 . S
H2504 C2512 0.929 . S
H2505 C2514 0.930 . S
H2506 C2516 0.930 . S
H2507 C2519 0.929 . S
H2508 C2522 0.930 . S
H2509 C2524 0.960 . S
H2510 C2524 0.960 . S
H2511 C2524 0.960 . S
C2512 H2504 0.929 . S
C2512 C2513 1.377 . S
C2512 C2514 1.384 . S
C2513 C2512 1.377 . S
C2513 C2519 1.390 . S
C2514 H2505 0.930 . S
C2514 C2512 1.384 . S
C2514 C2515 1.372 . S
C2515 C2514 1.372 . S
C2515 C2516 1.400 . S
C2515 C2520 1.490 . S
C2516 H2506 0.930 . S
C2516 C2515 1.400 . S
C2516 C2519 1.386 . S
H2517 C2533 0.930 . S
H2518 C2534 0.931 . S
C2519 H2507 0.929 . S
C2519 C2513 1.390 . S
C2519 C2516 1.386 . S
C2520 C2515 1.490 . S
C2520 C2522 1.395 . S
C2520 C2523 1.403 . S
H2521 C2527 0.930 . S
C2522 H2508 0.930 . S
C2522 C2520 1.395 . S
C2522 C2525 1.403 . S
C2523 C2520 1.403 . S
C2523 C2524 1.524 . S
C2523 C2527 1.400 . S
C2524 H2509 0.960 . S
C2524 H2510 0.960 . S
C2524 H2511 0.960 . S
C2524 C2523 1.524 . S
C2525 C2522 1.403 . S
C2525 C2526 1.392 . S
C2525 C2529 1.495 . S
C2526 C2525 1.392 . S
C2526 C2527 1.385 . S
C2526 C2528 1.478 . S
C2527 H2521 0.930 . S
C2527 C2523 1.400 . S
C2527 C2526 1.385 . S
C2528 C2526 1.478 . S
C2528 C2530 1.381 . S
C2528 C2534 1.383 . S
C2529 C2525 1.495 . S
C2529 H2535 0.959 . S
C2529 H2536 0.961 . S
C2529 H2537 0.960 . S
C2530 C2528 1.381 . S
C2530 C2531 1.394 . S
C2530 H2538 0.930 . S
C2531 C2530 1.394 . S
C2531 C2532 1.383 . S
C2531 H2539 0.929 . S
C2532 C2531 1.383 . S
C2532 C2533 1.377 . S
C2533 H2517 0.930 . S
C2533 C2532 1.377 . S
C2533 C2534 1.379 . S
C2534 H2518 0.931 . S
C2534 C2528 1.383 . S
C2534 C2533 1.379 . S
H2535 C2529 0.959 . S
H2536 C2529 0.961 . S
H2537 C2529 0.960 . S
H2538 C2530 0.930 . S
H2539 C2531 0.929 . S
H2540 C2548 0.929 . S
H2541 C2550 0.930 . S
H2542 C2552 0.930 . S
H2543 C2555 0.929 . S
H2544 C2558 0.930 . S
H2545 C2560 0.960 . S
H2546 C2560 0.960 . S
H2547 C2560 0.960 . S
C2548 H2540 0.929 . S
C2548 C2549 1.377 . S
C2548 C2550 1.384 . S
C2549 C2548 1.377 . S
C2549 C2555 1.390 . S
C2550 H2541 0.930 . S
C2550 C2548 1.384 . S
C2550 C2551 1.372 . S
C2551 C2550 1.372 . S
C2551 C2552 1.400 . S
C2551 C2556 1.490 . S
C2552 H2542 0.930 . S
C2552 C2551 1.400 . S
C2552 C2555 1.386 . S
H2553 C2569 0.930 . S
H2554 C2570 0.931 . S
C2555 H2543 0.929 . S
C2555 C2549 1.390 . S
C2555 C2552 1.386 . S
C2556 C2551 1.490 . S
C2556 C2558 1.395 . S
C2556 C2559 1.403 . S
H2557 C2563 0.930 . S
C2558 H2544 0.930 . S
C2558 C2556 1.395 . S
C2558 C2561 1.403 . S
C2559 C2556 1.403 . S
C2559 C2560 1.524 . S
C2559 C2563 1.400 . S
C2560 H2545 0.960 . S
C2560 H2546 0.960 . S
C2560 H2547 0.960 . S
C2560 C2559 1.524 . S
C2561 C2558 1.403 . S
C2561 C2562 1.392 . S
C2561 C2565 1.495 . S
C2562 C2561 1.392 . S
C2562 C2563 1.385 . S
C2562 C2564 1.478 . S
C2563 H2557 0.930 . S
C2563 C2559 1.400 . S
C2563 C2562 1.385 . S
C2564 C2562 1.478 . S
C2564 C2566 1.381 . S
C2564 C2570 1.383 . S
C2565 C2561 1.495 . S
C2565 H2571 0.959 . S
C2565 H2572 0.961 . S
C2565 H2573 0.960 . S
C2566 C2564 1.381 . S
C2566 C2567 1.394 . S
C2566 H2574 0.930 . S
C2567 C2566 1.394 . S
C2567 C2568 1.383 . S
C2567 H2575 0.929 . S
C2568 C2567 1.383 . S
C2568 C2569 1.377 . S
C2569 H2553 0.930 . S
C2569 C2568 1.377 . S
C2569 C2570 1.379 . S
C2570 H2554 0.931 . S
C2570 C2564 1.383 . S
C2570 C2569 1.379 . S
H2571 C2565 0.959 . S
H2572 C2565 0.961 . S
H2573 C2565 0.960 . S
H2574 C2566 0.930 . S
H2575 C2567 0.929 . S
H2576 C2584 0.929 . S
H2577 C2586 0.930 . S
H2578 C2588 0.930 . S
H2579 C2591 0.929 . S
H2580 C2594 0.930 . S
H2581 C2596 0.960 . S
H2582 C2596 0.960 . S
H2583 C2596 0.960 . S
C2584 H2576 0.929 . S
C2584 C2585 1.377 . S
C2584 C2586 1.384 . S
C2585 C2584 1.377 . S
C2585 C2591 1.390 . S
C2586 H2577 0.930 . S
C2586 C2584 1.384 . S
C2586 C2587 1.372 . S
C2587 C2586 1.372 . S
C2587 C2588 1.400 . S
C2587 C2592 1.490 . S
C2588 H2578 0.930 . S
C2588 C2587 1.400 . S
C2588 C2591 1.386 . S
H2589 C2605 0.930 . S
H2590 C2606 0.931 . S
C2591 H2579 0.929 . S
C2591 C2585 1.390 . S
C2591 C2588 1.386 . S
C2592 C2587 1.490 . S
C2592 C2594 1.395 . S
C2592 C2595 1.403 . S
H2593 C2599 0.930 . S
C2594 H2580 0.930 . S
C2594 C2592 1.395 . S
C2594 C2597 1.403 . S
C2595 C2592 1.403 . S
C2595 C2596 1.524 . S
C2595 C2599 1.400 . S
C2596 H2581 0.960 . S
C2596 H2582 0.960 . S
C2596 H2583 0.960 . S
C2596 C2595 1.524 . S
C2597 C2594 1.403 . S
C2597 C2598 1.392 . S
C2597 C2601 1.495 . S
C2598 C2597 1.392 . S
C2598 C2599 1.385 . S
C2598 C2600 1.478 . S
C2599 H2593 0.930 . S
C2599 C2595 1.400 . S
C2599 C2598 1.385 . S
C2600 C2598 1.478 . S
C2600 C2602 1.381 . S
C2600 C2606 1.383 . S
C2601 C2597 1.495 . S
C2601 H2607 0.959 . S
C2601 H2608 0.961 . S
C2601 H2609 0.960 . S
C2602 C2600 1.381 . S
C2602 C2603 1.394 . S
C2602 H2610 0.930 . S
C2603 C2602 1.394 . S
C2603 C2604 1.383 . S
C2603 H2611 0.929 . S
C2604 C2603 1.383 . S
C2604 C2605 1.377 . S
C2605 H2589 0.930 . S
C2605 C2604 1.377 . S
C2605 C2606 1.379 . S
C2606 H2590 0.931 . S
C2606 C2600 1.383 . S
C2606 C2605 1.379 . S
H2607 C2601 0.959 . S
H2608 C2601 0.961 . S
H2609 C2601 0.960 . S
H2610 C2602 0.930 . S
H2611 C2603 0.929 . S
H2612 C2620 0.929 . S
H2613 C2622 0.960 . S
H2614 C2624 0.930 . S
H2615 C2627 0.929 . S
H2616 C2630 0.930 . S
H2617 C2632 0.973 . S
H2618 C2632 0.974 . S
H2619 C2632 0.950 1_545 S
C2620 H2612 0.929 . S
C2620 C2621 1.377 1_455 S
C2620 C2622 1.384 1_455 S
C2621 C2620 1.377 1_655 S
C2621 C2627 1.390 . S
C2622 H2613 0.960 . S
C2622 C2620 1.384 1_655 S
C2622 C2623 1.372 . S
C2623 C2622 1.372 . S
C2623 C2624 1.400 . S
C2623 C2628 1.490 . S
C2624 H2614 0.930 . S
C2624 C2623 1.400 . S
C2624 C2627 1.386 . S
H2625 C2641 0.930 . S
H2626 C2642 0.931 . S
C2627 H2615 0.929 . S
C2627 C2621 1.390 . S
C2627 C2624 1.386 . S
C2628 C2623 1.490 . S
C2628 C2630 1.395 . S
C2628 C2631 1.403 . S
H2629 C2635 0.930 . S
C2630 H2616 0.930 . S
C2630 C2628 1.395 . S
C2630 C2633 1.403 . S
C2631 C2628 1.403 . S
C2631 C2632 1.508 1_545 S
C2631 C2635 1.400 . S
C2632 H2617 0.973 . S
C2632 H2618 0.974 . S
C2632 H2619 0.950 1_565 S
C2632 C2631 1.508 1_565 S
C2633 C2630 1.403 . S
C2633 C2634 1.392 . S
C2633 C2637 1.495 . S
C2634 C2633 1.392 . S
C2634 C2635 1.385 . S
C2634 C2636 1.478 . S
C2635 H2629 0.930 . S
C2635 C2631 1.400 . S
C2635 C2634 1.385 . S
C2636 C2634 1.478 . S
C2636 C2638 1.381 . S
C2636 C2642 1.383 . S
C2637 C2633 1.495 . S
C2637 H2643 0.959 . S
C2637 H2644 0.961 . S
C2637 H2645 0.960 . S
C2638 C2636 1.381 . S
C2638 C2639 1.394 . S
C2638 H2646 0.930 . S
C2639 C2638 1.394 . S
C2639 C2640 1.383 . S
C2639 H2647 0.929 . S
C2640 C2639 1.383 . S
C2640 C2641 1.377 . S
C2641 H2625 0.930 . S
C2641 C2640 1.377 . S
C2641 C2642 1.379 . S
C2642 H2626 0.931 . S
C2642 C2636 1.383 . S
C2642 C2641 1.379 . S
H2643 C2637 0.959 . S
H2644 C2637 0.961 . S
H2645 C2637 0.960 . S
H2646 C2638 0.930 . S
H2647 C2639 0.929 . S
H2648 C2656 0.929 . S
H2649 C2658 0.930 . S
H2650 C2660 0.930 . S
H2651 C2663 0.929 . S
H2652 C2666 0.930 . S
H2653 C2668 0.960 . S
H2654 C2668 0.960 . S
H2655 C2668 0.960 . S
C2656 H2648 0.929 . S
C2656 C2657 1.377 . S
C2656 C2658 1.384 . S
C2657 C2656 1.377 . S
C2657 C2663 1.390 . S
C2658 H2649 0.930 . S
C2658 C2656 1.384 . S
C2658 C2659 1.372 . S
C2659 C2658 1.372 . S
C2659 C2660 1.400 . S
C2659 C2664 1.490 . S
C2660 H2650 0.930 . S
C2660 C2659 1.400 . S
C2660 C2663 1.386 . S
H2661 C2677 0.930 . S
H2662 C2678 0.931 . S
C2663 H2651 0.929 . S
C2663 C2657 1.390 . S
C2663 C2660 1.386 . S
C2664 C2659 1.490 . S
C2664 C2666 1.395 . S
C2664 C2667 1.403 . S
H2665 C2671 0.930 . S
C2666 H2652 0.930 . S
C2666 C2664 1.395 . S
C2666 C2669 1.403 . S
C2667 C2664 1.403 . S
C2667 C2668 1.524 . S
C2667 C2671 1.400 . S
C2668 H2653 0.960 . S
C2668 H2654 0.960 . S
C2668 H2655 0.960 . S
C2668 C2667 1.524 . S
C2669 C2666 1.403 . S
C2669 C2670 1.392 . S
C2669 C2673 1.495 . S
C2670 C2669 1.392 . S
C2670 C2671 1.385 . S
C2670 C2672 1.478 . S
C2671 H2665 0.930 . S
C2671 C2667 1.400 . S
C2671 C2670 1.385 . S
C2672 C2670 1.478 . S
C2672 C2674 1.381 . S
C2672 C2678 1.383 . S
C2673 C2669 1.495 . S
C2673 H2679 0.959 . S
C2673 H2680 0.961 . S
C2673 H2681 0.960 . S
C2674 C2672 1.381 . S
C2674 C2675 1.394 . S
C2674 H2682 0.930 . S
C2675 C2674 1.394 . S
C2675 C2676 1.383 . S
C2675 H2683 0.929 . S
C2676 C2675 1.383 . S
C2676 C2677 1.377 . S
C2677 H2661 0.930 . S
C2677 C2676 1.377 . S
C2677 C2678 1.379 . S
C2678 H2662 0.931 . S
C2678 C2672 1.383 . S
C2678 C2677 1.379 . S
H2679 C2673 0.959 . S
H2680 C2673 0.961 . S
H2681 C2673 0.960 . S
H2682 C2674 0.930 . S
H2683 C2675 0.929 . S
H2684 C2692 0.929 . S
H2685 C2694 0.930 . S
H2686 C2696 0.930 . S
H2687 C2699 0.929 1_655 S
H2688 C2702 0.930 . S
H2689 C2704 0.960 . S
H2690 C2704 0.960 . S
H2691 C2704 0.960 . S
C2692 H2684 0.929 . S
C2692 C2693 1.377 . S
C2692 C2694 1.384 . S
C2693 C2692 1.377 . S
C2693 C2699 1.390 . S
C2694 H2685 0.930 . S
C2694 C2692 1.384 . S
C2694 C2695 1.372 . S
C2695 C2694 1.372 . S
C2695 C2696 1.400 . S
C2695 C2700 1.490 . S
C2696 H2686 0.930 . S
C2696 C2695 1.400 . S
C2696 C2699 1.386 . S
H2697 C2713 0.930 . S
H2698 C2714 0.931 . S
C2699 H2687 0.929 1_455 S
C2699 C2693 1.390 . S
C2699 C2696 1.386 . S
C2700 C2695 1.490 . S
C2700 C2702 1.395 . S
C2700 C2703 1.403 . S
H2701 C2707 0.930 . S
C2702 H2688 0.930 . S
C2702 C2700 1.395 . S
C2702 C2705 1.403 . S
C2703 C2700 1.403 . S
C2703 C2704 1.524 . S
C2703 C2707 1.400 . S
C2704 H2689 0.960 . S
C2704 H2690 0.960 . S
C2704 H2691 0.960 . S
C2704 C2703 1.524 . S
C2705 C2702 1.403 . S
C2705 C2706 1.392 . S
C2705 C2709 1.495 . S
C2706 C2705 1.392 . S
C2706 C2707 1.385 . S
C2706 C2708 1.478 . S
C2707 H2701 0.930 . S
C2707 C2703 1.400 . S
C2707 C2706 1.385 . S
C2708 C2706 1.478 . S
C2708 C2710 1.381 . S
C2708 C2714 1.383 . S
C2709 C2705 1.495 . S
C2709 H2715 0.959 . S
C2709 H2716 0.961 . S
C2709 H2717 0.960 . S
C2710 C2708 1.381 . S
C2710 C2711 1.394 . S
C2710 H2718 0.930 . S
C2711 C2710 1.394 . S
C2711 C2712 1.383 . S
C2711 H2719 0.929 . S
C2712 C2711 1.383 . S
C2712 C2713 1.377 . S
C2713 H2697 0.930 . S
C2713 C2712 1.377 . S
C2713 C2714 1.379 . S
C2714 H2698 0.931 . S
C2714 C2708 1.383 . S
C2714 C2713 1.379 . S
H2715 C2709 0.959 . S
H2716 C2709 0.961 . S
H2717 C2709 0.960 . S
H2718 C2710 0.930 . S
H2719 C2711 0.929 . S
H2720 C2728 0.929 . S
H2721 C2730 0.930 . S
H2722 C2732 0.930 . S
H2723 C2735 0.929 . S
H2724 C2738 0.930 . S
H2725 C2740 0.960 . S
H2726 C2740 0.960 . S
H2727 C2740 0.960 . S
C2728 H2720 0.929 . S
C2728 C2729 1.377 . S
C2728 C2730 1.384 . S
C2729 C2728 1.377 . S
C2729 C2735 1.390 . S
C2730 H2721 0.930 . S
C2730 C2728 1.384 . S
C2730 C2731 1.372 . S
C2731 C2730 1.372 . S
C2731 C2732 1.400 . S
C2731 C2736 1.490 . S
C2732 H2722 0.930 . S
C2732 C2731 1.400 . S
C2732 C2735 1.386 . S
H2733 C2749 0.930 . S
H2734 C2750 0.931 . S
C2735 H2723 0.929 . S
C2735 C2729 1.390 . S
C2735 C2732 1.386 . S
C2736 C2731 1.490 . S
C2736 C2738 1.395 . S
C2736 C2739 1.403 . S
H2737 C2743 0.930 . S
C2738 H2724 0.930 . S
C2738 C2736 1.395 . S
C2738 C2741 1.403 . S
C2739 C2736 1.403 . S
C2739 C2740 1.524 . S
C2739 C2743 1.400 . S
C2740 H2725 0.960 . S
C2740 H2726 0.960 . S
C2740 H2727 0.960 . S
C2740 C2739 1.524 . S
C2741 C2738 1.403 . S
C2741 C2742 1.392 . S
C2741 C2745 1.495 . S
C2742 C2741 1.392 . S
C2742 C2743 1.385 . S
C2742 C2744 1.478 . S
C2743 H2737 0.930 . S
C2743 C2739 1.400 . S
C2743 C2742 1.385 . S
C2744 C2742 1.478 . S
C2744 C2746 1.381 . S
C2744 C2750 1.383 . S
C2745 C2741 1.495 . S
C2745 H2751 0.959 . S
C2745 H2752 0.961 . S
C2745 H2753 0.960 . S
C2746 C2744 1.381 . S
C2746 C2747 1.394 . S
C2746 H2754 0.930 . S
C2747 C2746 1.394 . S
C2747 C2748 1.383 . S
C2747 H2755 0.929 . S
C2748 C2747 1.383 . S
C2748 C2749 1.377 . S
C2749 H2733 0.930 . S
C2749 C2748 1.377 . S
C2749 C2750 1.379 . S
C2750 H2734 0.931 . S
C2750 C2744 1.383 . S
C2750 C2749 1.379 . S
H2751 C2745 0.959 . S
H2752 C2745 0.961 . S
H2753 C2745 0.960 . S
H2754 C2746 0.930 . S
H2755 C2747 0.929 . S
H2756 C2764 0.929 1_554 S
H2757 C2766 0.930 . S
H2758 C2768 0.930 . S
H2759 C2771 0.929 . S
H2760 C2774 0.930 . S
H2761 C2776 0.960 . S
H2762 C2776 0.960 . S
H2763 C2776 0.960 . S
C2764 H2756 0.929 1_556 S
C2764 C2765 1.377 . S
C2764 C2766 1.384 . S
C2765 C2764 1.377 . S
C2765 C2771 1.390 . S
C2766 H2757 0.930 . S
C2766 C2764 1.384 . S
C2766 C2767 1.372 . S
C2767 C2766 1.372 . S
C2767 C2768 1.400 . S
C2767 C2772 1.490 . S
C2768 H2758 0.930 . S
C2768 C2767 1.400 . S
C2768 C2771 1.386 . S
H2769 C2785 0.940 . S
H2770 C2786 0.931 1_455 S
C2771 H2759 0.929 . S
C2771 C2765 1.390 . S
C2771 C2768 1.386 . S
C2772 C2767 1.490 . S
C2772 C2774 1.395 . S
C2772 C2775 1.403 . S
H2773 C2779 0.930 1_455 S
C2774 H2760 0.930 . S
C2774 C2772 1.395 . S
C2774 C2777 1.403 . S
C2775 C2772 1.403 . S
C2775 C2776 1.524 1_655 S
C2775 C2779 1.400 . S
C2776 H2761 0.960 . S
C2776 H2762 0.960 . S
C2776 H2763 0.960 . S
C2776 C2775 1.524 1_455 S
C2777 C2774 1.403 . S
C2777 C2778 1.392 . S
C2777 C2781 1.495 . S
C2778 C2777 1.392 . S
C2778 C2779 1.385 . S
C2778 C2780 1.478 . S
C2779 H2773 0.930 1_655 S
C2779 C2775 1.400 . S
C2779 C2778 1.385 . S
C2780 C2778 1.478 . S
C2780 C2782 1.381 . S
C2780 C2786 1.383 . S
C2781 C2777 1.495 . S
C2781 H2787 0.959 . S
C2781 H2788 0.961 . S
C2781 H2789 0.960 . S
C2782 C2780 1.381 . S
C2782 C2783 1.394 . S
C2782 H2790 0.930 . S
C2783 C2782 1.394 . S
C2783 C2784 1.383 . S
C2783 H2791 0.929 . S
C2784 C2783 1.383 . S
C2784 C2785 1.370 1_655 S
C2785 H2769 0.940 . S
C2785 C2784 1.370 1_455 S
C2785 C2786 1.376 1_455 S
C2786 H2770 0.931 1_655 S
C2786 C2780 1.383 . S
C2786 C2785 1.376 1_655 S
H2787 C2781 0.959 . S
H2788 C2781 0.961 . S
H2789 C2781 0.960 . S
H2790 C2782 0.930 . S
H2791 C2783 0.929 . S
H2792 C2800 0.929 . S
H2793 C2802 0.930 . S
H2794 C2804 0.930 . S
H2795 C2807 0.929 . S
H2796 C2810 0.930 . S
H2797 C2812 0.960 . S
H2798 C2812 0.960 . S
H2799 C2812 0.960 . S
C2800 H2792 0.929 . S
C2800 C2801 1.377 . S
C2800 C2802 1.384 . S
C2801 C2800 1.377 . S
C2801 C2807 1.390 . S
C2802 H2793 0.930 . S
C2802 C2800 1.384 . S
C2802 C2803 1.372 . S
C2803 C2802 1.372 . S
C2803 C2804 1.400 . S
C2803 C2808 1.490 . S
C2804 H2794 0.930 . S
C2804 C2803 1.400 . S
C2804 C2807 1.386 . S
H2805 C2821 0.930 . S
H2806 C2822 0.931 . S
C2807 H2795 0.929 . S
C2807 C2801 1.390 . S
C2807 C2804 1.386 . S
C2808 C2803 1.490 . S
C2808 C2810 1.395 . S
C2808 C2811 1.403 . S
H2809 C2815 0.930 . S
C2810 H2796 0.930 . S
C2810 C2808 1.395 . S
C2810 C2813 1.403 . S
C2811 C2808 1.403 . S
C2811 C2812 1.524 . S
C2811 C2815 1.400 . S
C2812 H2797 0.960 . S
C2812 H2798 0.960 . S
C2812 H2799 0.960 . S
C2812 C2811 1.524 . S
C2813 C2810 1.403 . S
C2813 C2814 1.392 . S
C2813 C2817 1.495 . S
C2814 C2813 1.392 . S
C2814 C2815 1.385 . S
C2814 C2816 1.478 . S
C2815 H2809 0.930 . S
C2815 C2811 1.400 . S
C2815 C2814 1.385 . S
C2816 C2814 1.478 . S
C2816 C2818 1.381 . S
C2816 C2822 1.383 . S
C2817 C2813 1.495 . S
C2817 H2823 0.959 . S
C2817 H2824 0.961 . S
C2817 H2825 0.960 . S
C2818 C2816 1.381 . S
C2818 C2819 1.394 . S
C2818 H2826 0.930 . S
C2819 C2818 1.394 . S
C2819 C2820 1.383 . S
C2819 H2827 0.929 . S
C2820 C2819 1.383 . S
C2820 C2821 1.377 . S
C2821 H2805 0.930 . S
C2821 C2820 1.377 . S
C2821 C2822 1.379 . S
C2822 H2806 0.931 . S
C2822 C2816 1.383 . S
C2822 C2821 1.379 . S
H2823 C2817 0.959 . S
H2824 C2817 0.961 . S
H2825 C2817 0.960 . S
H2826 C2818 0.930 . S
H2827 C2819 0.929 . S
H2828 C2836 0.929 . S
H2829 C2838 0.930 1_554 S
H2830 C2840 0.930 . S
H2831 C2843 0.929 . S
H2832 C2846 0.930 . S
H2833 C2848 0.960 . S
H2834 C2848 0.960 1_655 S
H2835 C2848 0.960 . S
C2836 H2828 0.929 . S
C2836 C2837 1.378 . S
C2836 C2838 1.384 1_554 S
C2837 C2836 1.378 . S
C2837 C2843 1.389 1_554 S
C2838 H2829 0.930 1_556 S
C2838 C2836 1.384 1_556 S
C2838 C2839 1.372 . S
C2839 C2838 1.372 . S
C2839 C2840 1.400 . S
C2839 C2844 1.490 . S
C2840 H2830 0.930 . S
C2840 C2839 1.400 . S
C2840 C2843 1.386 . S
H2841 C2857 0.930 . S
H2842 C2858 0.931 . S
C2843 H2831 0.929 . S
C2843 C2837 1.389 1_556 S
C2843 C2840 1.386 . S
C2844 C2839 1.490 . S
C2844 C2846 1.395 . S
C2844 C2847 1.403 . S
H2845 C2851 0.930 . S
C2846 H2832 0.930 . S
C2846 C2844 1.395 . S
C2846 C2849 1.403 . S
C2847 C2844 1.403 . S
C2847 C2848 1.524 . S
C2847 C2851 1.400 . S
C2848 H2833 0.960 . S
C2848 H2834 0.960 1_455 S
C2848 H2835 0.960 . S
C2848 C2847 1.524 . S
C2849 C2846 1.403 . S
C2849 C2850 1.392 . S
C2849 C2853 1.495 . S
C2850 C2849 1.392 . S
C2850 C2851 1.385 . S
C2850 C2852 1.478 . S
C2851 H2845 0.930 . S
C2851 C2847 1.400 . S
C2851 C2850 1.385 . S
C2852 C2850 1.478 . S
C2852 C2854 1.381 . S
C2852 C2858 1.383 . S
C2853 C2849 1.495 . S
C2853 H2859 0.959 . S
C2853 H2860 0.961 . S
C2853 H2861 0.960 . S
C2854 C2852 1.381 . S
C2854 C2855 1.394 . S
C2854 H2862 0.930 . S
C2855 C2854 1.394 . S
C2855 C2856 1.383 . S
C2855 H2863 0.929 . S
C2856 C2855 1.383 . S
C2856 C2857 1.377 . S
C2857 H2841 0.930 . S
C2857 C2856 1.377 . S
C2857 C2858 1.379 . S
C2858 H2842 0.931 . S
C2858 C2852 1.383 . S
C2858 C2857 1.379 . S
H2859 C2853 0.959 . S
H2860 C2853 0.961 . S
H2861 C2853 0.960 . S
H2862 C2854 0.930 . S
H2863 C2855 0.929 . S
H2864 C2872 0.929 . S
H2865 C2874 0.930 . S
H2866 C2876 0.930 . S
H2867 C2879 0.929 . S
H2868 C2882 0.930 . S
H2869 C2884 0.960 . S
H2870 C2884 0.960 . S
H2871 C2884 0.960 . S
C2872 H2864 0.929 . S
C2872 C2873 1.377 . S
C2872 C2874 1.384 . S
C2873 C2872 1.377 . S
C2873 C2879 1.390 . S
C2874 H2865 0.930 . S
C2874 C2872 1.384 . S
C2874 C2875 1.372 . S
C2875 C2874 1.372 . S
C2875 C2876 1.400 . S
C2875 C2880 1.490 . S
C2876 H2866 0.930 . S
C2876 C2875 1.400 . S
C2876 C2879 1.386 . S
H2877 C2893 0.930 . S
H2878 C2894 0.931 . S
C2879 H2867 0.929 . S
C2879 C2873 1.390 . S
C2879 C2876 1.386 . S
C2880 C2875 1.490 . S
C2880 C2882 1.395 . S
C2880 C2883 1.403 . S
H2881 C2887 0.930 . S
C2882 H2868 0.930 . S
C2882 C2880 1.395 . S
C2882 C2885 1.403 . S
C2883 C2880 1.403 . S
C2883 C2884 1.524 . S
C2883 C2887 1.400 . S
C2884 H2869 0.960 . S
C2884 H2870 0.960 . S
C2884 H2871 0.960 . S
C2884 C2883 1.524 . S
C2885 C2882 1.403 . S
C2885 C2886 1.392 . S
C2885 C2889 1.495 . S
C2886 C2885 1.392 . S
C2886 C2887 1.385 . S
C2886 C2888 1.478 . S
C2887 H2881 0.930 . S
C2887 C2883 1.400 . S
C2887 C2886 1.385 . S
C2888 C2886 1.478 . S
C2888 C2890 1.381 . S
C2888 C2894 1.383 . S
C2889 C2885 1.495 . S
C2889 H2895 0.959 . S
C2889 H2896 0.961 . S
C2889 H2897 0.960 . S
C2890 C2888 1.381 . S
C2890 C2891 1.394 . S
C2890 H2898 0.930 . S
C2891 C2890 1.394 . S
C2891 C2892 1.383 . S
C2891 H2899 0.929 . S
C2892 C2891 1.383 . S
C2892 C2893 1.377 . S
C2893 H2877 0.930 . S
C2893 C2892 1.377 . S
C2893 C2894 1.379 . S
C2894 H2878 0.931 . S
C2894 C2888 1.383 . S
C2894 C2893 1.379 . S
H2895 C2889 0.959 . S
H2896 C2889 0.961 . S
H2897 C2889 0.960 . S
H2898 C2890 0.930 . S
H2899 C2891 0.929 . S
H2900 C2908 0.929 . S
H2901 C2910 0.930 . S
H2902 C2912 0.930 . S
H2903 C2915 0.929 . S
H2904 C2918 0.930 . S
H2905 C2920 0.960 . S
H2906 C2920 0.960 . S
H2907 C2920 0.960 . S
C2908 H2900 0.929 . S
C2908 C2909 1.377 . S
C2908 C2910 1.384 . S
C2909 C2908 1.377 . S
C2909 C2915 1.390 . S
C2910 H2901 0.930 . S
C2910 C2908 1.384 . S
C2910 C2911 1.372 . S
C2911 C2910 1.372 . S
C2911 C2912 1.400 . S
C2911 C2916 1.490 . S
C2912 H2902 0.930 . S
C2912 C2911 1.400 . S
C2912 C2915 1.386 . S
H2913 C2929 0.930 . S
H2914 C2930 0.931 . S
C2915 H2903 0.929 . S
C2915 C2909 1.390 . S
C2915 C2912 1.386 . S
C2916 C2911 1.490 . S
C2916 C2918 1.395 . S
C2916 C2919 1.403 . S
H2917 C2923 0.930 . S
C2918 H2904 0.930 . S
C2918 C2916 1.395 . S
C2918 C2921 1.403 . S
C2919 C2916 1.403 . S
C2919 C2920 1.524 . S
C2919 C2923 1.400 . S
C2920 H2905 0.960 . S
C2920 H2906 0.960 . S
C2920 H2907 0.960 . S
C2920 C2919 1.524 . S
C2921 C2918 1.403 . S
C2921 C2922 1.392 . S
C2921 C2925 1.495 . S
C2922 C2921 1.392 . S
C2922 C2923 1.385 . S
C2922 C2924 1.478 . S
C2923 H2917 0.930 . S
C2923 C2919 1.400 . S
C2923 C2922 1.385 . S
C2924 C2922 1.478 . S
C2924 C2926 1.381 . S
C2924 C2930 1.383 . S
C2925 C2921 1.495 . S
C2925 H2931 0.959 . S
C2925 H2932 0.961 . S
C2925 H2933 0.960 . S
C2926 C2924 1.381 . S
C2926 C2927 1.394 . S
C2926 H2934 0.930 . S
C2927 C2926 1.394 . S
C2927 C2928 1.383 . S
C2927 H2935 0.929 . S
C2928 C2927 1.383 . S
C2928 C2929 1.377 . S
C2929 H2913 0.930 . S
C2929 C2928 1.377 . S
C2929 C2930 1.379 . S
C2930 H2914 0.931 . S
C2930 C2924 1.383 . S
C2930 C2929 1.379 . S
H2931 C2925 0.959 . S
H2932 C2925 0.961 . S
H2933 C2925 0.960 . S
H2934 C2926 0.930 . S
H2935 C2927 0.929 . S
H2936 C2944 0.929 . S
H2937 C2946 0.930 . S
H2938 C2948 0.930 . S
H2939 C2951 0.929 . S
H2940 C2954 0.930 . S
H2941 C2956 0.960 . S
H2942 C2956 0.960 . S
H2943 C2956 0.960 . S
C2944 H2936 0.929 . S
C2944 C2945 1.377 . S
C2944 C2946 1.384 . S
C2945 C2944 1.377 . S
C2945 C2951 1.390 . S
C2946 H2937 0.930 . S
C2946 C2944 1.384 . S
C2946 C2947 1.372 . S
C2947 C2946 1.372 . S
C2947 C2948 1.400 . S
C2947 C2952 1.490 . S
C2948 H2938 0.930 . S
C2948 C2947 1.400 . S
C2948 C2951 1.386 . S
H2949 C2965 0.930 . S
H2950 C2966 0.931 . S
C2951 H2939 0.929 . S
C2951 C2945 1.390 . S
C2951 C2948 1.386 . S
C2952 C2947 1.490 . S
C2952 C2954 1.395 . S
C2952 C2955 1.403 . S
H2953 C2959 0.930 . S
C2954 H2940 0.930 . S
C2954 C2952 1.395 . S
C2954 C2957 1.403 . S
C2955 C2952 1.403 . S
C2955 C2956 1.524 . S
C2955 C2959 1.400 . S
C2956 H2941 0.960 . S
C2956 H2942 0.960 . S
C2956 H2943 0.960 . S
C2956 C2955 1.524 . S
C2957 C2954 1.403 . S
C2957 C2958 1.392 . S
C2957 C2961 1.495 . S
C2958 C2957 1.392 . S
C2958 C2959 1.385 . S
C2958 C2960 1.478 . S
C2959 H2953 0.930 . S
C2959 C2955 1.400 . S
C2959 C2958 1.385 . S
C2960 C2958 1.478 . S
C2960 C2962 1.381 . S
C2960 C2966 1.383 . S
C2961 C2957 1.495 . S
C2961 H2967 0.959 . S
C2961 H2968 0.961 . S
C2961 H2969 0.960 . S
C2962 C2960 1.381 . S
C2962 C2963 1.394 . S
C2962 H2970 0.930 . S
C2963 C2962 1.394 . S
C2963 C2964 1.383 . S
C2963 H2971 0.929 . S
C2964 C2963 1.383 . S
C2964 C2965 1.377 . S
C2965 H2949 0.930 . S
C2965 C2964 1.377 . S
C2965 C2966 1.379 . S
C2966 H2950 0.931 . S
C2966 C2960 1.383 . S
C2966 C2965 1.379 . S
H2967 C2961 0.959 . S
H2968 C2961 0.961 . S
H2969 C2961 0.960 . S
H2970 C2962 0.930 . S
H2971 C2963 0.929 . S
H2972 C2980 0.929 . S
H2973 C2982 0.930 . S
H2974 C2984 0.930 . S
H2975 C2987 0.929 1_556 S
H2976 C2990 0.930 . S
H2977 C2992 0.960 . S
H2978 C2992 0.960 . S
H2979 C2992 0.960 . S
C2980 H2972 0.929 . S
C2980 C2981 1.377 . S
C2980 C2982 1.384 . S
C2981 C2980 1.377 . S
C2981 C2987 1.390 . S
C2982 H2973 0.930 . S
C2982 C2980 1.384 . S
C2982 C2983 1.372 . S
C2983 C2982 1.372 . S
C2983 C2984 1.400 . S
C2983 C2988 1.490 . S
C2984 H2974 0.930 . S
C2984 C2983 1.400 . S
C2984 C2987 1.386 . S
H2985 C3001 0.930 . S
H2986 C3002 0.931 . S
C2987 H2975 0.929 1_554 S
C2987 C2981 1.390 . S
C2987 C2984 1.386 . S
C2988 C2983 1.490 . S
C2988 C2990 1.395 . S
C2988 C2991 1.403 . S
H2989 C2995 0.930 . S
C2990 H2976 0.930 . S
C2990 C2988 1.395 . S
C2990 C2993 1.403 . S
C2991 C2988 1.403 . S
C2991 C2992 1.524 . S
C2991 C2995 1.400 . S
C2992 H2977 0.960 . S
C2992 H2978 0.960 . S
C2992 H2979 0.960 . S
C2992 C2991 1.524 . S
C2993 C2990 1.403 . S
C2993 C2994 1.392 . S
C2993 C2997 1.495 . S
C2994 C2993 1.392 . S
C2994 C2995 1.385 . S
C2994 C2996 1.478 . S
C2995 H2989 0.930 . S
C2995 C2991 1.400 . S
C2995 C2994 1.385 . S
C2996 C2994 1.478 . S
C2996 C2998 1.381 . S
C2996 C3002 1.383 . S
C2997 C2993 1.495 . S
C2997 H3003 0.959 . S
C2997 H3004 0.961 . S
C2997 H3005 0.960 . S
C2998 C2996 1.381 . S
C2998 C2999 1.394 . S
C2998 H3006 0.930 . S
C2999 C2998 1.394 . S
C2999 C3000 1.383 . S
C2999 H3007 0.929 . S
C3000 C2999 1.383 . S
C3000 C3001 1.377 . S
C3001 H2985 0.930 . S
C3001 C3000 1.377 . S
C3001 C3002 1.379 . S
C3002 H2986 0.931 . S
C3002 C2996 1.383 . S
C3002 C3001 1.379 . S
H3003 C2997 0.959 . S
H3004 C2997 0.961 . S
H3005 C2997 0.960 . S
H3006 C2998 0.930 . S
H3007 C2999 0.929 . S
H3008 C3016 0.929 . S
H3009 C3018 0.930 . S
H3010 C3020 0.930 . S
H3011 C3023 0.929 . S
H3012 C3026 0.930 . S
H3013 C3028 0.960 . S
H3014 C3028 0.960 . S
H3015 C3028 0.960 . S
C3016 H3008 0.929 . S
C3016 C3017 1.377 . S
C3016 C3018 1.384 . S
C3017 C3016 1.377 . S
C3017 C3023 1.390 . S
C3018 H3009 0.930 . S
C3018 C3016 1.384 . S
C3018 C3019 1.372 . S
C3019 C3018 1.372 . S
C3019 C3020 1.400 . S
C3019 C3024 1.490 . S
C3020 H3010 0.930 . S
C3020 C3019 1.400 . S
C3020 C3023 1.386 . S
H3021 C3037 0.930 . S
H3022 C3038 0.931 . S
C3023 H3011 0.929 . S
C3023 C3017 1.390 . S
C3023 C3020 1.386 . S
C3024 C3019 1.490 . S
C3024 C3026 1.395 . S
C3024 C3027 1.403 . S
H3025 C3031 0.930 . S
C3026 H3012 0.930 . S
C3026 C3024 1.395 . S
C3026 C3029 1.403 . S
C3027 C3024 1.403 . S
C3027 C3028 1.524 . S
C3027 C3031 1.400 . S
C3028 H3013 0.960 . S
C3028 H3014 0.960 . S
C3028 H3015 0.960 . S
C3028 C3027 1.524 . S
C3029 C3026 1.403 . S
C3029 C3030 1.392 . S
C3029 C3033 1.495 . S
C3030 C3029 1.392 . S
C3030 C3031 1.385 . S
C3030 C3032 1.478 . S
C3031 H3025 0.930 . S
C3031 C3027 1.400 . S
C3031 C3030 1.385 . S
C3032 C3030 1.478 . S
C3032 C3034 1.381 . S
C3032 C3038 1.383 . S
C3033 C3029 1.495 . S
C3033 H3039 0.959 . S
C3033 H3040 0.961 . S
C3033 H3041 0.960 . S
C3034 C3032 1.381 . S
C3034 C3035 1.394 . S
C3034 H3042 0.930 . S
C3035 C3034 1.394 . S
C3035 C3036 1.383 . S
C3035 H3043 0.929 . S
C3036 C3035 1.383 . S
C3036 C3037 1.377 . S
C3037 H3021 0.930 . S
C3037 C3036 1.377 . S
C3037 C3038 1.379 . S
C3038 H3022 0.931 . S
C3038 C3032 1.383 . S
C3038 C3037 1.379 . S
H3039 C3033 0.959 . S
H3040 C3033 0.961 . S
H3041 C3033 0.960 . S
H3042 C3034 0.930 . S
H3043 C3035 0.929 . S
H3044 C3052 0.929 . S
H3045 C3054 0.930 . S
H3046 C3056 0.930 . S
H3047 C3059 0.929 . S
H3048 C3062 0.930 . S
H3049 C3064 0.960 . S
H3050 C3064 0.960 . S
H3051 C3064 0.960 . S
C3052 H3044 0.929 . S
C3052 C3053 1.377 . S
C3052 C3054 1.384 . S
C3053 C3052 1.377 . S
C3053 C3059 1.390 . S
C3054 H3045 0.930 . S
C3054 C3052 1.384 . S
C3054 C3055 1.372 . S
C3055 C3054 1.372 . S
C3055 C3056 1.400 . S
C3055 C3060 1.490 . S
C3056 H3046 0.930 . S
C3056 C3055 1.400 . S
C3056 C3059 1.386 . S
H3057 C3073 0.930 . S
H3058 C3074 0.931 . S
C3059 H3047 0.929 . S
C3059 C3053 1.390 . S
C3059 C3056 1.386 . S
C3060 C3055 1.490 . S
C3060 C3062 1.395 . S
C3060 C3063 1.403 . S
H3061 C3067 0.930 . S
C3062 H3048 0.930 . S
C3062 C3060 1.395 . S
C3062 C3065 1.403 . S
C3063 C3060 1.403 . S
C3063 C3064 1.524 . S
C3063 C3067 1.400 . S
C3064 H3049 0.960 . S
C3064 H3050 0.960 . S
C3064 H3051 0.960 . S
C3064 C3063 1.524 . S
C3065 C3062 1.403 . S
C3065 C3066 1.392 . S
C3065 C3069 1.495 . S
C3066 C3065 1.392 . S
C3066 C3067 1.385 . S
C3066 C3068 1.478 . S
C3067 H3061 0.930 . S
C3067 C3063 1.400 . S
C3067 C3066 1.385 . S
C3068 C3066 1.478 . S
C3068 C3070 1.381 . S
C3068 C3074 1.383 . S
C3069 C3065 1.495 . S
C3069 H3075 0.959 . S
C3069 H3076 0.961 . S
C3069 H3077 0.960 . S
C3070 C3068 1.381 . S
C3070 C3071 1.394 . S
C3070 H3078 0.930 . S
C3071 C3070 1.394 . S
C3071 C3072 1.383 . S
C3071 H3079 0.929 . S
C3072 C3071 1.383 . S
C3072 C3073 1.377 . S
C3073 H3057 0.930 . S
C3073 C3072 1.377 . S
C3073 C3074 1.379 . S
C3074 H3058 0.931 . S
C3074 C3068 1.383 . S
C3074 C3073 1.379 . S
H3075 C3069 0.959 . S
H3076 C3069 0.961 . S
H3077 C3069 0.960 . S
H3078 C3070 0.930 . S
H3079 C3071 0.929 . S
H3080 C3088 0.929 . S
H3081 C3090 0.930 . S
H3082 C3092 0.930 . S
H3083 C3095 0.929 . S
H3084 C3098 0.930 . S
H3085 C3100 0.960 . S
H3086 C3100 0.960 . S
H3087 C3100 0.960 . S
C3088 H3080 0.929 . S
C3088 C3089 1.377 . S
C3088 C3090 1.384 . S
C3089 C3088 1.377 . S
C3089 C3095 1.390 . S
C3090 H3081 0.930 . S
C3090 C3088 1.384 . S
C3090 C3091 1.372 . S
C3091 C3090 1.372 . S
C3091 C3092 1.400 . S
C3091 C3096 1.490 . S
C3092 H3082 0.930 . S
C3092 C3091 1.400 . S
C3092 C3095 1.386 . S
H3093 C3109 0.930 . S
H3094 C3110 0.931 . S
C3095 H3083 0.929 . S
C3095 C3089 1.390 . S
C3095 C3092 1.386 . S
C3096 C3091 1.490 . S
C3096 C3098 1.395 . S
C3096 C3099 1.403 . S
H3097 C3103 0.930 . S
C3098 H3084 0.930 . S
C3098 C3096 1.395 . S
C3098 C3101 1.403 . S
C3099 C3096 1.403 . S
C3099 C3100 1.524 . S
C3099 C3103 1.400 . S
C3100 H3085 0.960 . S
C3100 H3086 0.960 . S
C3100 H3087 0.960 . S
C3100 C3099 1.524 . S
C3101 C3098 1.403 . S
C3101 C3102 1.392 . S
C3101 C3105 1.495 . S
C3102 C3101 1.392 . S
C3102 C3103 1.385 . S
C3102 C3104 1.478 . S
C3103 H3097 0.930 . S
C3103 C3099 1.400 . S
C3103 C3102 1.385 . S
C3104 C3102 1.478 . S
C3104 C3106 1.381 . S
C3104 C3110 1.383 . S
C3105 C3101 1.495 . S
C3105 H3111 0.959 . S
C3105 H3112 0.961 . S
C3105 H3113 0.960 . S
C3106 C3104 1.381 . S
C3106 C3107 1.394 . S
C3106 H3114 0.930 . S
C3107 C3106 1.394 . S
C3107 C3108 1.383 . S
C3107 H3115 0.929 . S
C3108 C3107 1.383 . S
C3108 C3109 1.377 . S
C3109 H3093 0.930 . S
C3109 C3108 1.377 . S
C3109 C3110 1.379 . S
C3110 H3094 0.931 . S
C3110 C3104 1.383 . S
C3110 C3109 1.379 . S
H3111 C3105 0.959 . S
H3112 C3105 0.961 . S
H3113 C3105 0.960 . S
H3114 C3106 0.930 . S
H3115 C3107 0.929 . S
H3116 C3124 0.929 . S
H3117 C3126 0.930 . S
H3118 C3128 0.930 . S
H3119 C3131 0.929 . S
H3120 C3134 0.930 . S
H3121 C3136 0.960 . S
H3122 C3136 0.960 . S
H3123 C3136 0.960 . S
C3124 H3116 0.929 . S
C3124 C3125 1.377 . S
C3124 C3126 1.384 . S
C3125 C3124 1.377 . S
C3125 C3131 1.390 . S
C3126 H3117 0.930 . S
C3126 C3124 1.384 . S
C3126 C3127 1.372 . S
C3127 C3126 1.372 . S
C3127 C3128 1.400 . S
C3127 C3132 1.490 . S
C3128 H3118 0.930 . S
C3128 C3127 1.400 . S
C3128 C3131 1.386 . S
H3129 C3145 0.930 . S
H3130 C3146 0.931 . S
C3131 H3119 0.929 . S
C3131 C3125 1.390 . S
C3131 C3128 1.386 . S
C3132 C3127 1.490 . S
C3132 C3134 1.395 . S
C3132 C3135 1.403 . S
H3133 C3139 0.930 . S
C3134 H3120 0.930 . S
C3134 C3132 1.395 . S
C3134 C3137 1.403 . S
C3135 C3132 1.403 . S
C3135 C3136 1.524 . S
C3135 C3139 1.400 . S
C3136 H3121 0.960 . S
C3136 H3122 0.960 . S
C3136 H3123 0.960 . S
C3136 C3135 1.524 . S
C3137 C3134 1.403 . S
C3137 C3138 1.392 . S
C3137 C3141 1.495 . S
C3138 C3137 1.392 . S
C3138 C3139 1.385 . S
C3138 C3140 1.478 . S
C3139 H3133 0.930 . S
C3139 C3135 1.400 . S
C3139 C3138 1.385 . S
C3140 C3138 1.478 . S
C3140 C3142 1.381 . S
C3140 C3146 1.383 . S
C3141 C3137 1.495 . S
C3141 H3147 0.959 . S
C3141 H3148 0.961 . S
C3141 H3149 0.960 . S
C3142 C3140 1.381 . S
C3142 C3143 1.394 . S
C3142 H3150 0.930 . S
C3143 C3142 1.394 . S
C3143 C3144 1.383 . S
C3143 H3151 0.929 . S
C3144 C3143 1.383 . S
C3144 C3145 1.377 . S
C3145 H3129 0.930 . S
C3145 C3144 1.377 . S
C3145 C3146 1.379 . S
C3146 H3130 0.931 . S
C3146 C3140 1.383 . S
C3146 C3145 1.379 . S
H3147 C3141 0.959 . S
H3148 C3141 0.961 . S
H3149 C3141 0.960 . S
H3150 C3142 0.930 . S
H3151 C3143 0.929 . S
H3152 C3160 0.929 . S
H3153 C3162 0.930 . S
H3154 C3164 0.930 . S
H3155 C3167 0.929 . S
H3156 C3170 0.930 . S
H3157 C3172 0.960 . S
H3158 C3172 0.960 . S
H3159 C3172 0.960 . S
C3160 H3152 0.929 . S
C3160 C3161 1.377 . S
C3160 C3162 1.384 . S
C3161 C3160 1.377 . S
C3161 C3167 1.390 . S
C3162 H3153 0.930 . S
C3162 C3160 1.384 . S
C3162 C3163 1.372 . S
C3163 C3162 1.372 . S
C3163 C3164 1.400 . S
C3163 C3168 1.490 . S
C3164 H3154 0.930 . S
C3164 C3163 1.400 . S
C3164 C3167 1.386 . S
H3165 C3181 0.930 . S
H3166 C3182 0.931 . S
C3167 H3155 0.929 . S
C3167 C3161 1.390 . S
C3167 C3164 1.386 . S
C3168 C3163 1.490 . S
C3168 C3170 1.394 1_556 S
C3168 C3171 1.403 . S
H3169 C3175 0.930 . S
C3170 H3156 0.930 . S
C3170 C3168 1.394 1_554 S
C3170 C3173 1.403 . S
C3171 C3168 1.403 . S
C3171 C3172 1.524 . S
C3171 C3175 1.400 . S
C3172 H3157 0.960 . S
C3172 H3158 0.960 . S
C3172 H3159 0.960 . S
C3172 C3171 1.524 . S
C3173 C3170 1.403 . S
C3173 C3174 1.392 1_554 S
C3173 C3177 1.495 . S
C3174 C3173 1.392 1_556 S
C3174 C3175 1.385 . S
C3174 C3176 1.478 . S
C3175 H3169 0.930 . S
C3175 C3171 1.400 . S
C3175 C3174 1.385 . S
C3176 C3174 1.478 . S
C3176 C3178 1.375 1_556 S
C3176 C3182 1.383 . S
C3177 C3173 1.495 . S
C3177 H3183 0.959 . S
C3177 H3184 0.961 . S
C3177 H3185 0.960 . S
C3178 C3176 1.375 1_554 S
C3178 C3179 1.394 . S
C3178 H3186 0.936 . S
C3179 C3178 1.394 . S
C3179 C3180 1.360 1_554 S
C3179 H3187 0.956 . S
C3180 C3179 1.360 1_556 S
C3180 C3181 1.377 . S
C3181 H3165 0.930 . S
C3181 C3180 1.377 . S
C3181 C3182 1.379 . S
C3182 H3166 0.931 . S
C3182 C3176 1.383 . S
C3182 C3181 1.379 . S
H3183 C3177 0.959 . S
H3184 C3177 0.961 . S
H3185 C3177 0.960 . S
H3186 C3178 0.936 . S
H3187 C3179 0.956 . S
H3188 C3196 0.929 . S
H3189 C3198 0.930 . S
H3190 C3200 0.930 . S
H3191 C3203 0.929 . S
H3192 C3206 0.930 . S
H3193 C3208 0.960 . S
H3194 C3208 0.960 . S
H3195 C3208 0.960 . S
C3196 H3188 0.929 . S
C3196 C3197 1.377 . S
C3196 C3198 1.384 . S
C3197 C3196 1.377 . S
C3197 C3203 1.390 . S
C3198 H3189 0.930 . S
C3198 C3196 1.384 . S
C3198 C3199 1.372 . S
C3199 C3198 1.372 . S
C3199 C3200 1.400 . S
C3199 C3204 1.490 . S
C3200 H3190 0.930 . S
C3200 C3199 1.400 . S
C3200 C3203 1.386 . S
H3201 C3217 0.930 . S
H3202 C3218 0.931 . S
C3203 H3191 0.929 . S
C3203 C3197 1.390 . S
C3203 C3200 1.386 . S
C3204 C3199 1.490 . S
C3204 C3206 1.395 . S
C3204 C3207 1.403 . S
H3205 C3211 0.930 . S
C3206 H3192 0.930 . S
C3206 C3204 1.395 . S
C3206 C3209 1.403 . S
C3207 C3204 1.403 . S
C3207 C3208 1.524 . S
C3207 C3211 1.400 . S
C3208 H3193 0.960 . S
C3208 H3194 0.960 . S
C3208 H3195 0.960 . S
C3208 C3207 1.524 . S
C3209 C3206 1.403 . S
C3209 C3210 1.392 . S
C3209 C3213 1.495 . S
C3210 C3209 1.392 . S
C3210 C3211 1.385 . S
C3210 C3212 1.478 . S
C3211 H3205 0.930 . S
C3211 C3207 1.400 . S
C3211 C3210 1.385 . S
C3212 C3210 1.478 . S
C3212 C3214 1.381 . S
C3212 C3218 1.383 . S
C3213 C3209 1.495 . S
C3213 H3219 0.959 . S
C3213 H3220 0.961 . S
C3213 H3221 0.960 . S
C3214 C3212 1.381 . S
C3214 C3215 1.394 . S
C3214 H3222 0.930 . S
C3215 C3214 1.394 . S
C3215 C3216 1.383 . S
C3215 H3223 0.929 . S
C3216 C3215 1.383 . S
C3216 C3217 1.377 . S
C3217 H3201 0.930 . S
C3217 C3216 1.377 . S
C3217 C3218 1.379 . S
C3218 H3202 0.931 . S
C3218 C3212 1.383 . S
C3218 C3217 1.379 . S
H3219 C3213 0.959 . S
H3220 C3213 0.961 . S
H3221 C3213 0.960 . S
H3222 C3214 0.930 . S
H3223 C3215 0.929 . S
H3224 C3232 0.929 . S
H3225 C3234 0.930 . S
H3226 C3236 0.930 . S
H3227 C3239 0.929 . S
H3228 C3242 0.930 1_556 S
H3229 C3244 0.960 . S
H3230 C3244 0.960 . S
H3231 C3244 0.960 . S
C3232 H3224 0.929 . S
C3232 C3233 1.377 . S
C3232 C3234 1.384 . S
C3233 C3232 1.377 . S
C3233 C3239 1.390 . S
C3234 H3225 0.930 . S
C3234 C3232 1.384 . S
C3234 C3235 1.372 . S
C3235 C3234 1.372 . S
C3235 C3236 1.400 . S
C3235 C3240 1.490 . S
C3236 H3226 0.930 . S
C3236 C3235 1.400 . S
C3236 C3239 1.386 . S
H3237 C3253 0.930 . S
H3238 C3254 0.931 . S
C3239 H3227 0.929 . S
C3239 C3233 1.390 . S
C3239 C3236 1.386 . S
C3240 C3235 1.490 . S
C3240 C3242 1.395 . S
C3240 C3243 1.403 . S
H3241 C3247 0.930 . S
C3242 H3228 0.930 1_554 S
C3242 C3240 1.395 . S
C3242 C3245 1.418 . S
C3243 C3240 1.403 . S
C3243 C3244 1.524 . S
C3243 C3247 1.400 . S
C3244 H3229 0.960 . S
C3244 H3230 0.960 . S
C3244 H3231 0.960 . S
C3244 C3243 1.524 . S
C3245 C3242 1.418 . S
C3245 C3246 1.450 . S
C3245 C3249 1.427 1_554 S
C3246 C3245 1.450 . S
C3246 C3247 1.385 . S
C3246 C3248 1.478 . S
C3247 H3241 0.930 . S
C3247 C3243 1.400 . S
C3247 C3246 1.385 . S
C3248 C3246 1.478 . S
C3248 C3250 1.381 . S
C3248 C3254 1.383 . S
C3249 C3245 1.427 1_556 S
C3249 H3255 0.959 . S
C3249 H3256 0.961 . S
C3249 H3257 0.960 . S
C3250 C3248 1.381 . S
C3250 C3251 1.394 . S
C3250 H3258 0.930 1_554 S
C3251 C3250 1.394 . S
C3251 C3252 1.383 . S
C3251 H3259 0.929 1_554 S
C3252 C3251 1.383 . S
C3252 C3253 1.377 . S
C3253 H3237 0.930 . S
C3253 C3252 1.377 . S
C3253 C3254 1.379 . S
C3254 H3238 0.931 . S
C3254 C3248 1.383 . S
C3254 C3253 1.379 . S
H3255 C3249 0.959 . S
H3256 C3249 0.961 . S
H3257 C3249 0.960 . S
H3258 C3250 0.930 1_556 S
H3259 C3251 0.929 1_556 S
H3260 C3268 1.001 . S
H3261 C3270 0.930 . S
H3262 C3272 0.930 . S
H3263 C3275 0.929 . S
H3264 C3278 0.930 . S
H3265 C3280 0.960 1_556 S
H3266 C3280 0.960 1_556 S
H3267 C3280 0.960 . S
C3268 H3260 1.001 . S
C3268 C3269 1.352 1_545 S
C3268 C3270 1.343 1_545 S
C3269 C3268 1.352 1_565 S
C3269 C3275 1.390 . S
C3270 H3261 0.930 . S
C3270 C3268 1.343 1_565 S
C3270 C3271 1.372 . S
C3271 C3270 1.372 . S
C3271 C3272 1.400 . S
C3271 C3276 1.490 . S
C3272 H3262 0.930 . S
C3272 C3271 1.400 . S
C3272 C3275 1.386 . S
H3273 C3289 0.930 . S
H3274 C3290 0.931 . S
C3275 H3263 0.929 . S
C3275 C3269 1.390 . S
C3275 C3272 1.386 . S
C3276 C3271 1.490 . S
C3276 C3278 1.395 . S
C3276 C3279 1.403 . S
H3277 C3283 0.930 . S
C3278 H3264 0.930 . S
C3278 C3276 1.395 . S
C3278 C3281 1.403 . S
C3279 C3276 1.403 . S
C3279 C3280 1.524 . S
C3279 C3283 1.400 . S
C3280 H3265 0.960 1_554 S
C3280 H3266 0.960 1_554 S
C3280 H3267 0.960 . S
C3280 C3279 1.524 . S
C3281 C3278 1.403 . S
C3281 C3282 1.392 . S
C3281 C3285 1.495 . S
C3282 C3281 1.392 . S
C3282 C3283 1.385 . S
C3282 C3284 1.478 . S
C3283 H3277 0.930 . S
C3283 C3279 1.400 . S
C3283 C3282 1.385 . S
C3284 C3282 1.478 . S
C3284 C3286 1.381 . S
C3284 C3290 1.383 . S
C3285 C3281 1.495 . S
C3285 H3291 0.959 . S
C3285 H3292 0.961 . S
C3285 H3293 0.960 . S
C3286 C3284 1.381 . S
C3286 C3287 1.394 . S
C3286 H3294 0.930 . S
C3287 C3286 1.394 . S
C3287 C3288 1.383 . S
C3287 H3295 0.951 . S
C3288 C3287 1.383 . S
C3288 C3289 1.377 . S
C3289 H3273 0.930 . S
C3289 C3288 1.377 . S
C3289 C3290 1.379 . S
C3290 H3274 0.931 . S
C3290 C3284 1.383 . S
C3290 C3289 1.379 . S
H3291 C3285 0.959 . S
H3292 C3285 0.961 . S
H3293 C3285 0.960 . S
H3294 C3286 0.930 . S
H3295 C3287 0.951 . S
C1596 C561 1.460 . S
C1577 C177 1.443 . S
C1632 C620 1.535 . S
C1613 C209 1.525 1_455 S
C1649 C253 1.417 . S
C1668 C737 1.459 . S
C1704 C805 1.539 . S
C1685 C157 1.497 1_655 S
C1740 C884 1.527 . S
C1721 C343 1.493 . S
C1776 C1009 1.503 . S
C1757 C401 1.466 . S
C1793 C369 1.491 . S
C1812 C1069 1.526 . S
C1848 C1177 1.514 . S
C1829 C317 1.495 . S
C1865 C375 1.488 . S
C1884 C1273 1.522 . S
C1920 C1333 1.565 . S
C1901 C305 1.555 . S
C1937 C349 1.503 . S
C1956 C1236 1.548 . S
C1992 C1353 1.516 . S
C1973 C413 1.470 . S
C2009 C241 1.443 . S
C2028 C1421 1.473 . S
C2045 C151 1.451 . S
C2064 C1412 1.486 . S
C2081 C189 1.492 . S
C2100 C1441 1.506 . S
C2117 C215 1.500 . S
C2136 C1449 1.514 . S
C2153 C113 1.459 . S
C2172 C833 1.492 . S
C2189 C471 1.469 . S
C2208 C796 1.479 . S
C2244 C532 1.523 . S
C2225 C509 1.511 1_565 S
C2280 C629 1.509 . S
C2261 C279 1.473 . S
C2297 C145 1.438 1_545 S
C2316 C893 1.470 . S
C2352 C1185 1.559 . S
C2333 C381 1.514 . S
C2388 C913 1.542 . S
C2369 C311 1.525 . S
C2424 C1097 1.498 . S
C2405 C407 1.467 . S
C2460 C1089 1.460 . S
C2441 C465 1.450 . S
C2477 C497 1.524 . S
C2496 C1157 1.537 . S
C2513 C285 1.418 . S
C2532 C921 1.459 . S
C2568 C972 1.535 . S
C2549 C445 1.488 . S
C2585 C119 1.492 . S
C2604 C717 1.525 . S
C2640 C825 1.505 . S
C2621 C17 1.469 1_655 S
C2676 C541 1.529 . S
C2657 C49 1.492 . S
C2712 C657 1.510 . S
C2693 C93 1.502 1_455 S
C2729 C55 1.483 . S
C2748 C1361 1.517 . S
C2765 C81 1.559 1_556 S
C2784 C1245 1.564 . S
C2801 C125 1.507 . S
C2820 C1324 1.549 . S
C2837 C29 1.479 . S
C2856 C1265 1.521 . S
C2892 C1509 1.478 . S
C2873 C273 1.447 . S
C2928 C1500 1.488 . S
C2909 C439 1.452 . S
C2964 C1529 1.510 . S
C2945 C477 1.493 . S
C2981 C503 1.502 . S
C3000 C1537 1.512 . S
C3017 C337 1.460 . S
C3036 C1001 1.489 . S
C3072 C981 1.483 . S
C3053 C183 1.467 . S
C3108 C1060 1.527 . S
C3089 C221 1.505 . S
C3144 C1148 1.509 . S
C3125 C247 1.473 . S
C3161 C433 1.438 . S
C3180 C708 1.469 . S
C3216 C649 1.562 . S
C3197 C61 1.517 . S
C3233 C87 1.526 . S
C3252 C745 1.541 . S
C3288 C569 1.496 . S
C3269 C23 1.464 1_565 S
