# Generated by pormake.
# Topology pto, (3,4)-cn, num edge types: 1
# Building blocks:
#     Node 0, Type 0, BuildingBlock: QEWDON_clean_linker_0, # of connection points: 3
#     Node 1, Type 0, BuildingBlock: QEWDON_clean_linker_0, # of connection points: 3
#     Node 2, Type 0, BuildingBlock: QEWDON_clean_linker_0, # of connection points: 3
#     Node 3, Type 0, BuildingBlock: QEWDON_clean_linker_0, # of connection points: 3
#     Node 4, Type 0, BuildingBlock: QEWDON_clean_linker_0, # of connection points: 3
#     Node 5, Type 0, BuildingBlock: QEWDON_clean_linker_0, # of connection points: 3
#     Node 6, Type 0, BuildingBlock: QEWDON_clean_linker_0, # of connection points: 3
#     Node 7, Type 0, BuildingBlock: QEWDON_clean_linker_0, # of connection points: 3
#     Node 8, Type 1, BuildingBlock: NAWXER_clean_sbu_0, # of connection points: 4
#     Node 9, Type 1, BuildingBlock: NAWXER_clean_sbu_0, # of connection points: 4
#     Node 10, Type 1, BuildingBlock: NAWXER_clean_sbu_0, # of connection points: 4
#     Node 11, Type 1, BuildingBlock: NAWXER_clean_sbu_0, # of connection points: 4
#     Node 12, Type 1, BuildingBlock: NAWXER_clean_sbu_0, # of connection points: 4
#     Node 13, Type 1, BuildingBlock: NAWXER_clean_sbu_0, # of connection points: 4
#     Edge 14, Type (0, 1), BuildingBlock: UVAHIK_clean_linker_0, # of connection points: 2
#     Edge 15, Type (0, 1), BuildingBlock: UVAHIK_clean_linker_0, # of connection points: 2
#     Edge 16, Type (0, 1), BuildingBlock: UVAHIK_clean_linker_0, # of connection points: 2
#     Edge 17, Type (0, 1), BuildingBlock: UVAHIK_clean_linker_0, # of connection points: 2
#     Edge 18, Type (0, 1), BuildingBlock: UVAHIK_clean_linker_0, # of connection points: 2
#     Edge 19, Type (0, 1), BuildingBlock: UVAHIK_clean_linker_0, # of connection points: 2
#     Edge 20, Type (0, 1), BuildingBlock: UVAHIK_clean_linker_0, # of connection points: 2
#     Edge 21, Type (0, 1), BuildingBlock: UVAHIK_clean_linker_0, # of connection points: 2
#     Edge 22, Type (0, 1), BuildingBlock: UVAHIK_clean_linker_0, # of connection points: 2
#     Edge 23, Type (0, 1), BuildingBlock: UVAHIK_clean_linker_0, # of connection points: 2
#     Edge 24, Type (0, 1), BuildingBlock: UVAHIK_clean_linker_0, # of connection points: 2
#     Edge 25, Type (0, 1), BuildingBlock: UVAHIK_clean_linker_0, # of connection points: 2
#     Edge 26, Type (0, 1), BuildingBlock: UVAHIK_clean_linker_0, # of connection points: 2
#     Edge 27, Type (0, 1), BuildingBlock: UVAHIK_clean_linker_0, # of connection points: 2
#     Edge 28, Type (0, 1), BuildingBlock: UVAHIK_clean_linker_0, # of connection points: 2
#     Edge 29, Type (0, 1), BuildingBlock: UVAHIK_clean_linker_0, # of connection points: 2
#     Edge 30, Type (0, 1), BuildingBlock: UVAHIK_clean_linker_0, # of connection points: 2
#     Edge 31, Type (0, 1), BuildingBlock: UVAHIK_clean_linker_0, # of connection points: 2
#     Edge 32, Type (0, 1), BuildingBlock: UVAHIK_clean_linker_0, # of connection points: 2
#     Edge 33, Type (0, 1), BuildingBlock: UVAHIK_clean_linker_0, # of connection points: 2
#     Edge 34, Type (0, 1), BuildingBlock: UVAHIK_clean_linker_0, # of connection points: 2
#     Edge 35, Type (0, 1), BuildingBlock: UVAHIK_clean_linker_0, # of connection points: 2
#     Edge 36, Type (0, 1), BuildingBlock: UVAHIK_clean_linker_0, # of connection points: 2
#     Edge 37, Type (0, 1), BuildingBlock: UVAHIK_clean_linker_0, # of connection points: 2
# Relax obj value: 0.022
# Max RMSD: 0.220
# Mean RMSD: 0.079
data_MOF--net-pto--node1-NAWXER_clean_sbu_0--node2-QEWDON_clean_linker_0--edge1-UVAHIK_clean_linker_0
_symmetry_space_group_name_H-M    P1
_symmetry_Int_Tables_number       1
_symmetry_cell_setting            triclinic
loop_
_symmetry_equiv_pos_as_xyz
'x, y, z'
_cell_length_a     51.938018
_cell_length_b     53.52164
_cell_length_c     51.087293
_cell_angle_alpha  97.797753
_cell_angle_beta   106.49315
_cell_angle_gamma 99.845194
loop_
_atom_site_label
_atom_site_type_symbol
_atom_site_fract_x
_atom_site_fract_y
_atom_site_fract_z
_atom_type_partial_charge
H0 H 0.26271 0.28734 0.23231 0.0
C1 C 0.26303 0.26977 0.24055 0.0
C2 C 0.28158 0.25457 0.23602 0.0
C3 C 0.24535 0.26251 0.256 0.0
H4 H 0.29859 0.22177 0.24628 0.0
C5 C 0.28307 0.23252 0.24803 0.0
C6 C 0.26576 0.22503 0.26353 0.0
C7 C 0.2463 0.2395 0.26637 0.0
C8 C 0.22679 0.27918 0.26267 0.0
H9 H 0.23206 0.23283 0.27714 0.0
C10 C 0.21526 0.29485 0.24443 0.0
C11 C 0.19772 0.31022 0.25119 0.0
C12 C 0.22076 0.27977 0.28798 0.0
H13 H 0.23009 0.26913 0.30329 0.0
C14 C 0.20294 0.29454 0.29435 0.0
H15 H 0.21956 0.29505 0.22491 0.0
C16 C 0.19138 0.30959 0.27607 0.0
H17 H 0.17824 0.32151 0.28188 0.0
H18 H 0.19847 0.29468 0.31381 0.0
H19 H 0.38527 0.793 0.74701 0.0
C20 C 0.37143 0.77811 0.75189 0.0
C21 C 0.3815 0.75806 0.76381 0.0
C22 C 0.34378 0.77962 0.74736 0.0
H23 H 0.37127 0.72463 0.78131 0.0
C24 C 0.36342 0.73932 0.77078 0.0
C25 C 0.33575 0.74043 0.76617 0.0
C26 C 0.32606 0.76043 0.7541 0.0
C27 C 0.33355 0.802 0.73738 0.0
H28 H 0.3046 0.76119 0.75013 0.0
C29 C 0.3399 0.8115 0.71503 0.0
C30 C 0.32893 0.83198 0.70514 0.0
C31 C 0.31684 0.81382 0.75022 0.0
H32 H 0.31207 0.80731 0.76783 0.0
C33 C 0.30625 0.83429 0.74067 0.0
H34 H 0.35256 0.80247 0.70479 0.0
C35 C 0.31209 0.84326 0.71819 0.0
H36 H 0.30368 0.85924 0.71116 0.0
H37 H 0.29344 0.84324 0.75072 0.0
H38 H 0.9244 0.78718 0.38928 0.0
C39 C 0.90578 0.78707 0.37288 0.0
C40 C 0.90199 0.77477 0.34555 0.0
C41 C 0.88595 0.7996 0.37925 0.0
H42 H 0.87457 0.7655 0.30337 0.0
C43 C 0.87801 0.77524 0.3245 0.0
C44 C 0.85828 0.78811 0.33024 0.0
C45 C 0.86244 0.80052 0.35765 0.0
C46 C 0.88969 0.81075 0.40871 0.0
H47 H 0.84699 0.81006 0.36226 0.0
C48 C 0.88493 0.83546 0.41638 0.0
C49 C 0.89041 0.84625 0.44463 0.0
C50 C 0.89891 0.79671 0.42958 0.0
H51 H 0.90223 0.77748 0.42429 0.0
C52 C 0.90393 0.80726 0.45751 0.0
H53 H 0.87803 0.84664 0.40062 0.0
C54 C 0.89995 0.83196 0.46505 0.0
H55 H 0.90414 0.83989 0.48689 0.0
H56 H 0.91109 0.7963 0.47337 0.0
H57 H 0.90101 0.34065 0.00293 0.0
C58 C 0.89124 0.32512 0.98496 0.0
C59 C 0.89469 0.32796 0.95918 0.0
C60 C 0.87462 0.30249 0.98744 0.0
H61 H 0.88579 0.30928 0.91658 0.0
C62 C 0.882 0.30764 0.93615 0.0
C63 C 0.86577 0.28472 0.9384 0.0
C64 C 0.86189 0.28237 0.96414 0.0
C65 C 0.87076 0.29977 0.01451 0.0
H66 H 0.84938 0.26478 0.9662 0.0
C67 C 0.84442 0.29701 0.01748 0.0
C68 C 0.84063 0.29501 0.04342 0.0
C69 C 0.89347 0.30033 0.03753 0.0
H70 H 0.91393 0.30248 0.03559 0.0
C71 C 0.88983 0.29777 0.06315 0.0
H72 H 0.82713 0.29738 0.99978 0.0
C73 C 0.86364 0.29512 0.06614 0.0
H74 H 0.86143 0.29311 0.08624 0.0
H75 H 0.90738 0.29794 0.08079 0.0
H76 H 0.00455 0.8183 0.87551 0.0
C77 C 0.98674 0.82044 0.88196 0.0
C78 C 0.96808 0.79844 0.88258 0.0
C79 C 0.98269 0.84522 0.88978 0.0
H80 H 0.93152 0.7843 0.89274 0.0
C81 C 0.94546 0.80138 0.89163 0.0
C82 C 0.94078 0.82614 0.89913 0.0
C83 C 0.95948 0.84797 0.89782 0.0
C84 C 0.00311 0.86826 0.89012 0.0
H85 H 0.95622 0.8672 0.90328 0.0
C86 C 0.99508 0.88687 0.8745 0.0
C87 C 0.01454 0.9088 0.87464 0.0
C88 C 0.03079 0.8716 0.90602 0.0
H89 H 0.03736 0.85745 0.91823 0.0
C90 C 0.05011 0.89344 0.90665 0.0
H91 H 0.97383 0.88376 0.86162 0.0
C92 C 0.04211 0.91196 0.89116 0.0
H93 H 0.05753 0.92884 0.89229 0.0
H94 H 0.07137 0.89604 0.91921 0.0
H95 H 0.89047 0.36612 0.39973 0.0
C96 C 0.86998 0.36982 0.39257 0.0
C97 C 0.86607 0.39226 0.38193 0.0
C98 C 0.84731 0.35101 0.39184 0.0
H99 H 0.83596 0.41259 0.36194 0.0
C100 C 0.83907 0.39572 0.37091 0.0
C101 C 0.8161 0.37687 0.36986 0.0
C102 C 0.82062 0.35484 0.38107 0.0
C103 C 0.85082 0.32536 0.39757 0.0
H104 H 0.80334 0.33994 0.38045 0.0
C105 C 0.8585 0.32084 0.4249 0.0
C106 C 0.85909 0.29558 0.42944 0.0
C107 C 0.84461 0.30477 0.37501 0.0
H108 H 0.83856 0.308 0.35384 0.0
C109 C 0.84577 0.27984 0.37956 0.0
H110 H 0.86292 0.33662 0.44237 0.0
C111 C 0.85275 0.27518 0.4066 0.0
H112 H 0.85315 0.25562 0.40976 0.0
H113 H 0.84087 0.26402 0.36207 0.0
H114 H 0.35517 0.31933 0.75498 0.0
C115 C 0.33641 0.32559 0.75507 0.0
C116 C 0.3316 0.33257 0.78044 0.0
C117 C 0.3181 0.3285 0.73004 0.0
H118 H 0.30368 0.34585 0.8001 0.0
C119 C 0.30767 0.34132 0.78049 0.0
C120 C 0.28918 0.34461 0.7558 0.0
C121 C 0.29457 0.33805 0.73058 0.0
C122 C 0.32479 0.32366 0.7037 0.0
H123 H 0.28088 0.34095 0.71139 0.0
C124 C 0.33296 0.30081 0.69565 0.0
C125 C 0.34039 0.29692 0.67122 0.0
C126 C 0.32388 0.34242 0.68688 0.0
H127 H 0.31795 0.36028 0.69274 0.0
C128 C 0.33128 0.33862 0.66269 0.0
H129 H 0.33365 0.28618 0.70842 0.0
C130 C 0.3396 0.31608 0.65492 0.0
H131 H 0.34504 0.31344 0.63592 0.0
H132 H 0.33065 0.35324 0.64995 0.0
H133 H 0.3992 0.83306 0.20038 0.0
C134 C 0.38841 0.81739 0.20732 0.0
C135 C 0.38999 0.82005 0.23546 0.0
C136 C 0.37204 0.79507 0.18801 0.0
H137 H 0.37576 0.80286 0.26594 0.0
C138 C 0.37507 0.80038 0.24431 0.0
C139 C 0.35796 0.77836 0.22525 0.0
C140 C 0.35699 0.77558 0.19723 0.0
C141 C 0.36921 0.79282 0.15797 0.0
H142 H 0.34374 0.75863 0.1824 0.0
C143 C 0.39242 0.79963 0.14924 0.0
C144 C 0.38969 0.79705 0.12073 0.0
C145 C 0.34313 0.78385 0.1378 0.0
H146 H 0.32482 0.77893 0.14387 0.0
C147 C 0.3403 0.78149 0.10955 0.0
H148 H 0.41268 0.80616 0.16458 0.0
C149 C 0.36339 0.78795 0.10101 0.0
H150 H 0.36063 0.78606 0.07895 0.0
H151 H 0.32012 0.77465 0.09421 0.0
C152 C 0.08077 0.54576 0.31106 0.0
C153 C 0.14901 0.604 0.28586 0.0
O154 O 0.10532 0.55642 0.32606 0.0
Zn155 Zn 0.11553 0.57455 0.29881 0.0
O156 O 0.07215 0.54928 0.286 0.0
Zn157 Zn 0.08723 0.56969 0.25817 0.0
O158 O 0.08583 0.54197 0.22887 0.0
O159 O 0.11836 0.54416 0.26848 0.0
O160 O 0.12643 0.59521 0.26577 0.0
O161 O 0.15153 0.59711 0.30915 0.0
O162 O 0.08835 0.60101 0.29389 0.0
O163 O 0.06219 0.59242 0.24992 0.0
C164 C 0.10591 0.53371 0.24284 0.0
C165 C 0.0691 0.60574 0.27439 0.0
C166 C 0.07339 0.51097 0.87374 0.0
C167 C 0.13935 0.56748 0.84432 0.0
O168 O 0.09692 0.52441 0.8887 0.0
Zn169 Zn 0.10666 0.53932 0.85955 0.0
O170 O 0.06499 0.51119 0.84761 0.0
Zn171 Zn 0.07971 0.52904 0.81779 0.0
O172 O 0.08241 0.49987 0.79243 0.0
O173 O 0.11275 0.50686 0.83429 0.0
O174 O 0.11762 0.55588 0.82421 0.0
O175 O 0.14158 0.56363 0.8688 0.0
O176 O 0.07728 0.56302 0.84877 0.0
O177 O 0.05283 0.54909 0.80445 0.0
C178 C 0.10247 0.49381 0.80931 0.0
C179 C 0.05815 0.56484 0.82727 0.0
C180 C 0.35648 0.98928 0.50821 0.0
C181 C 0.33944 0.0482 0.44406 0.0
O182 O 0.33406 0.99101 0.49113 0.0
Zn183 Zn 0.34834 0.01946 0.47653 0.0
O184 O 0.37889 0.005 0.51021 0.0
Zn185 Zn 0.39056 0.03652 0.49064 0.0
O186 O 0.40548 0.06589 0.5209 0.0
O187 O 0.36065 0.05206 0.51065 0.0
O188 O 0.3651 0.05239 0.45812 0.0
O189 O 0.32229 0.03066 0.44851 0.0
O190 O 0.37234 0.00383 0.45281 0.0
O191 O 0.41572 0.02431 0.47327 0.0
C192 C 0.38309 0.06809 0.52541 0.0
C193 C 0.39771 0.00749 0.45386 0.0
C194 C 0.68853 0.79103 0.05794 0.0
C195 C 0.63237 0.78152 0.96118 0.0
O196 O 0.67742 0.77019 0.04006 0.0
Zn197 Zn 0.6613 0.78564 0.00889 0.0
O198 O 0.68643 0.81274 0.0506 0.0
Zn199 Zn 0.66785 0.82671 0.01421 0.0
O200 O 0.64284 0.84489 0.02663 0.0
O201 O 0.6311 0.80244 0.02178 0.0
O202 O 0.64185 0.80521 0.97376 0.0
O203 O 0.63878 0.76355 0.97397 0.0
O204 O 0.69572 0.80383 0.99804 0.0
O205 O 0.6991 0.84599 0.00638 0.0
C206 C 0.62631 0.82488 0.0278 0.0
C207 C 0.70797 0.82673 0.99796 0.0
C208 C 0.92488 0.08364 0.69471 0.0
C209 C 0.90409 0.14905 0.63935 0.0
O210 O 0.8989 0.08066 0.68283 0.0
Zn211 Zn 0.87203 0.09921 0.65497 0.0
O212 O 0.94161 0.10179 0.69058 0.0
Zn213 Zn 0.91448 0.11583 0.66656 0.0
O214 O 0.89333 0.1298 0.69441 0.0
O215 O 0.84962 0.1096 0.6769 0.0
O216 O 0.92741 0.14618 0.65353 0.0
O217 O 0.88224 0.13299 0.63822 0.0
O218 O 0.85456 0.07239 0.62222 0.0
O219 O 0.89906 0.08581 0.6298 0.0
C220 C 0.86877 0.12576 0.69598 0.0
C221 C 0.87588 0.07082 0.61519 0.0
C222 C 0.57423 0.35225 0.1493 0.0
C223 C 0.51507 0.33872 0.05315 0.0
O224 O 0.56479 0.32823 0.13801 0.0
Zn225 Zn 0.53828 0.30525 0.09856 0.0
O226 O 0.56721 0.36934 0.13542 0.0
Zn227 Zn 0.54409 0.34571 0.10159 0.0
O228 O 0.5099 0.3281 0.11371 0.0
O229 O 0.50833 0.28623 0.10798 0.0
O230 O 0.52672 0.35996 0.07019 0.0
O231 O 0.51786 0.31735 0.06114 0.0
O232 O 0.56291 0.28637 0.08712 0.0
O233 O 0.57387 0.32825 0.08802 0.0
C234 C 0.49852 0.30527 0.11508 0.0
C235 C 0.57876 0.3056 0.08359 0.0
C236 C 0.15986 0.33022 0.22697 0.0
C237 C 0.18767 0.32877 0.23395 0.0
C238 C 0.15148 0.35147 0.21686 0.0
C239 C 0.17956 0.41934 0.22987 0.0
H240 H 0.11104 0.42238 0.176 0.0
C241 C 0.1432 0.5139 0.23412 0.0
C242 C 0.11508 0.51197 0.23025 0.0
C243 C 0.15282 0.49227 0.226 0.0
C244 C 0.13017 0.4219 0.19128 0.0
H245 H 0.22814 0.3472 0.23386 0.0
H246 H 0.21354 0.38463 0.21649 0.0
H247 H 0.12618 0.38154 0.17596 0.0
H248 H 0.07469 0.48652 0.21406 0.0
H249 H 0.09146 0.44816 0.20146 0.0
H250 H 0.18283 0.45866 0.24692 0.0
C251 C 0.19824 0.36928 0.21873 0.0
C252 C 0.13892 0.39854 0.19103 0.0
C253 C 0.20656 0.34783 0.2285 0.0
C254 C 0.09649 0.48839 0.21704 0.0
C255 C 0.10618 0.46647 0.20969 0.0
C256 C 0.17062 0.44245 0.23049 0.0
C257 C 0.17086 0.37178 0.21392 0.0
C258 C 0.16348 0.39698 0.21066 0.0
C259 C 0.13463 0.46795 0.21486 0.0
C260 C 0.14553 0.44402 0.21157 0.0
H261 H 0.14492 0.31568 0.23094 0.0
H262 H 0.13029 0.35297 0.2135 0.0
H263 H 0.1983 0.4186 0.24564 0.0
H264 H 0.15784 0.53206 0.24404 0.0
H265 H 0.1747 0.49453 0.22943 0.0
C266 C 0.31813 0.69533 0.77173 0.0
C267 C 0.31744 0.72169 0.77558 0.0
C268 C 0.30114 0.67787 0.78103 0.0
C269 C 0.25923 0.67454 0.82892 0.0
H270 H 0.22121 0.60839 0.78041 0.0
C271 C 0.18636 0.59705 0.85951 0.0
C272 C 0.16161 0.58479 0.83844 0.0
C273 C 0.20732 0.61298 0.85334 0.0
C274 C 0.23163 0.62682 0.79418 0.0
H275 H 0.29876 0.75044 0.79278 0.0
H276 H 0.26861 0.71994 0.80824 0.0
H277 H 0.25394 0.6379 0.76675 0.0
H278 H 0.13941 0.57987 0.79442 0.0
H279 H 0.17558 0.60772 0.78387 0.0
H280 H 0.23609 0.66379 0.85585 0.0
C281 C 0.28251 0.71277 0.79835 0.0
C282 C 0.25063 0.64361 0.78649 0.0
C283 C 0.2995 0.7302 0.78908 0.0
C284 C 0.15824 0.58889 0.81117 0.0
C285 C 0.17909 0.60473 0.80504 0.0
C286 C 0.24018 0.65773 0.8366 0.0
C287 C 0.2831 0.6864 0.79442 0.0
C288 C 0.26436 0.66783 0.80357 0.0
C289 C 0.20393 0.61688 0.82598 0.0
C290 C 0.22583 0.63386 0.81908 0.0
H291 H 0.33164 0.68815 0.7613 0.0
H292 H 0.30226 0.65771 0.77789 0.0
H293 H 0.26978 0.69291 0.84274 0.0
H294 H 0.18962 0.59423 0.88071 0.0
H295 H 0.22631 0.62197 0.8699 0.0
C296 C 0.92803 0.76101 0.31342 0.0
C297 C 0.92257 0.76089 0.33889 0.0
C298 C 0.94569 0.7464 0.30618 0.0
C299 C 0.00265 0.71617 0.33403 0.0
H300 H 0.97338 0.66709 0.26387 0.0
C301 C 0.05602 0.6346 0.30873 0.0
C302 C 0.05437 0.62584 0.28098 0.0
C303 C 0.04131 0.65273 0.31523 0.0
C304 C 0.98218 0.68101 0.28327 0.0
H305 H 0.93218 0.74565 0.37697 0.0
H306 H 0.96385 0.72094 0.36465 0.0
H307 H 0.94588 0.69643 0.27653 0.0
H308 H 0.03655 0.62972 0.23831 0.0
H309 H 0.01164 0.66221 0.2497 0.0
H310 H 0.03915 0.70133 0.34069 0.0
C311 C 0.95417 0.73227 0.3503 0.0
C312 C 0.96631 0.69771 0.29055 0.0
C313 C 0.93612 0.74654 0.35738 0.0
C314 C 0.03807 0.63599 0.25987 0.0
C315 C 0.02366 0.65449 0.26643 0.0
C316 C 0.01873 0.69979 0.32656 0.0
C317 C 0.95874 0.73175 0.32445 0.0
C318 C 0.97627 0.71518 0.31615 0.0
C319 C 0.02489 0.66294 0.2942 0.0
C320 C 0.00855 0.68168 0.30126 0.0
H321 H 0.91853 0.77231 0.29894 0.0
H322 H 0.94918 0.74655 0.28627 0.0
H323 H 0.01088 0.7297 0.35375 0.0
H324 H 0.06818 0.62696 0.32546 0.0
H325 H 0.04236 0.65823 0.33675 0.0
C326 C 0.90298 0.36253 0.9324 0.0
C327 C 0.91214 0.35156 0.95588 0.0
C328 C 0.92065 0.38216 0.92664 0.0
C329 C 0.98563 0.4312 0.95445 0.0
H330 H 0.98588 0.41724 0.87802 0.0
C331 C 0.06559 0.49019 0.913 0.0
C332 C 0.0555 0.49497 0.88597 0.0
C333 C 0.04864 0.474 0.92367 0.0
C334 C 0.98586 0.42167 0.89934 0.0
H335 H 0.94643 0.35365 0.99271 0.0
H336 H 0.97752 0.38829 0.98262 0.0
H337 H 0.95488 0.38771 0.89337 0.0
H338 H 0.01939 0.48745 0.84945 0.0
H339 H 0.98989 0.45986 0.86815 0.0
H340 H 0.01661 0.46541 0.96022 0.0
C341 C 0.9566 0.38159 0.96873 0.0
C342 C 0.96809 0.4047 0.90814 0.0
C343 C 0.93883 0.36182 0.9745 0.0
C344 C 0.02797 0.48389 0.8702 0.0
C345 C 0.01105 0.46794 0.88088 0.0
C346 C 0.0034 0.44838 0.94555 0.0
C347 C 0.94791 0.39132 0.94424 0.0
C348 C 0.96751 0.40941 0.93566 0.0
C349 C 0.02127 0.4624 0.90753 0.0
C350 C 0.00344 0.44393 0.91776 0.0
H351 H 0.88233 0.35534 0.91798 0.0
H352 H 0.91321 0.38972 0.90795 0.0
H353 H 0.9856 0.43526 0.97579 0.0
H354 H 0.08673 0.49849 0.92567 0.0
H355 H 0.05717 0.47002 0.94422 0.0
C356 C 0.27526 0.18068 0.26655 0.0
C357 C 0.26943 0.20338 0.27865 0.0
C358 C 0.28035 0.16117 0.28173 0.0
C359 C 0.27125 0.13701 0.34379 0.0
H360 H 0.33502 0.10856 0.34344 0.0
C361 C 0.30189 0.0596 0.40769 0.0
C362 C 0.32999 0.06362 0.42272 0.0
C363 C 0.29297 0.07436 0.38774 0.0
C364 C 0.31717 0.11636 0.34377 0.0
H365 H 0.26455 0.22337 0.31628 0.0
H366 H 0.27311 0.18939 0.34247 0.0
H367 H 0.32146 0.13848 0.31274 0.0
H368 H 0.37078 0.08611 0.42833 0.0
H369 H 0.35517 0.11201 0.39376 0.0
H370 H 0.26748 0.11561 0.37546 0.0
C371 C 0.27333 0.18644 0.32114 0.0
C372 C 0.30922 0.13325 0.32596 0.0
C373 C 0.26838 0.20592 0.30607 0.0
C374 C 0.34899 0.08252 0.41714 0.0
C375 C 0.34007 0.09724 0.39716 0.0
C376 C 0.27915 0.12007 0.36152 0.0
C377 C 0.27959 0.16394 0.30925 0.0
C378 C 0.28645 0.1441 0.32612 0.0
C379 C 0.31195 0.09341 0.38234 0.0
C380 C 0.30245 0.10988 0.36203 0.0
H381 H 0.27595 0.17802 0.24539 0.0
H382 H 0.28487 0.14393 0.27193 0.0
H383 H 0.25343 0.14484 0.34416 0.0
H384 H 0.28672 0.0451 0.41138 0.0
H385 H 0.2712 0.07078 0.37646 0.0
C386 C 0.43117 0.78098 0.7848 0.0
C387 C 0.41133 0.75793 0.77194 0.0
C388 C 0.4587 0.78036 0.79707 0.0
C389 C 0.49736 0.73824 0.83297 0.0
H390 H 0.56072 0.7907 0.83728 0.0
C391 C 0.60051 0.74986 0.91866 0.0
C392 C 0.61263 0.77553 0.93263 0.0
C393 C 0.57962 0.74458 0.89301 0.0
C394 C 0.54324 0.7759 0.83633 0.0
H395 H 0.40535 0.71639 0.75965 0.0
H396 H 0.45339 0.71531 0.78161 0.0
H397 H 0.51665 0.78755 0.80193 0.0
H398 H 0.61328 0.81575 0.92992 0.0
H399 H 0.57669 0.80662 0.88597 0.0
H400 H 0.52319 0.72758 0.86835 0.0
C401 C 0.44752 0.7338 0.78239 0.0
C402 C 0.51807 0.77406 0.81601 0.0
C403 C 0.42003 0.73444 0.76992 0.0
C404 C 0.60436 0.79573 0.91981 0.0
C405 C 0.58347 0.79048 0.89435 0.0
C406 C 0.52243 0.74023 0.85345 0.0
C407 C 0.46695 0.75667 0.79687 0.0
C408 C 0.49468 0.75571 0.81469 0.0
C409 C 0.57037 0.76485 0.88089 0.0
C410 C 0.54546 0.75966 0.85599 0.0
H411 H 0.42521 0.79938 0.78703 0.0
H412 H 0.47315 0.79828 0.80832 0.0
H413 H 0.47963 0.72407 0.83267 0.0
H414 H 0.60657 0.73385 0.92787 0.0
H415 H 0.57027 0.72461 0.88301 0.0
C416 C 0.86093 0.8787 0.44508 0.0
C417 C 0.8869 0.87259 0.4534 0.0
C418 C 0.85709 0.90251 0.45667 0.0
C419 C 0.89347 0.96846 0.49512 0.0
H420 H 0.83743 0.96341 0.53184 0.0
C421 C 0.89887 0.04636 0.58673 0.0
C422 C 0.87451 0.0511 0.59119 0.0
C423 C 0.89794 0.02663 0.56537 0.0
C424 C 0.85279 0.9654 0.52124 0.0
H425 H 0.92943 0.88669 0.47905 0.0
H426 H 0.92295 0.92847 0.49879 0.0
H427 H 0.83999 0.92545 0.50125 0.0
H428 H 0.82996 0.03941 0.57596 0.0
H429 H 0.82827 0.00532 0.53814 0.0
H430 H 0.9065 0.00828 0.51519 0.0
C431 C 0.90552 0.91495 0.48351 0.0
C432 C 0.85425 0.94358 0.50372 0.0
C433 C 0.90923 0.89105 0.47234 0.0
C434 C 0.84912 0.03613 0.5732 0.0
C435 C 0.84817 0.01649 0.55161 0.0
C436 C 0.89181 0.99036 0.51235 0.0
C437 C 0.87931 0.92071 0.4763 0.0
C438 C 0.87508 0.94472 0.49112 0.0
C439 C 0.8726 0.01124 0.54765 0.0
C440 C 0.87197 0.98894 0.52633 0.0
H441 H 0.84342 0.86464 0.43061 0.0
H442 H 0.8367 0.90653 0.45072 0.0
H443 H 0.90953 0.96993 0.48539 0.0
H444 H 0.9188 0.05743 0.60026 0.0
H445 H 0.91722 0.02293 0.5634 0.0
C446 C 0.81047 0.30735 0.07143 0.0
C447 C 0.81302 0.29386 0.04702 0.0
C448 C 0.78458 0.30723 0.07449 0.0
C449 C 0.72825 0.31783 0.06866 0.0
H450 H 0.66883 0.25674 0.04086 0.0
C451 C 0.61852 0.32281 0.06787 0.0
C452 C 0.60354 0.30239 0.07582 0.0
C453 C 0.64306 0.32073 0.06255 0.0
C454 C 0.68525 0.27392 0.04892 0.0
H455 H 0.79015 0.26907 0.00692 0.0
H456 H 0.74492 0.26957 0.01187 0.0
H457 H 0.714 0.25467 0.03644 0.0
H458 H 0.60225 0.26349 0.08378 0.0
H459 H 0.64548 0.26005 0.07511 0.0
H460 H 0.69995 0.33687 0.08201 0.0
C461 C 0.76301 0.27997 0.02885 0.0
C462 C 0.71108 0.27282 0.04609 0.0
C463 C 0.78896 0.27995 0.02586 0.0
C464 C 0.61328 0.27954 0.0776 0.0
C465 C 0.63801 0.27754 0.07251 0.0
C466 C 0.70254 0.31888 0.07162 0.0
C467 C 0.76049 0.2938 0.05312 0.0
C468 C 0.73292 0.29477 0.05598 0.0
C469 C 0.65342 0.29827 0.06532 0.0
C470 C 0.68067 0.29698 0.06176 0.0
H471 H 0.82847 0.31853 0.08804 0.0
H472 H 0.78347 0.31775 0.09366 0.0
H473 H 0.74442 0.33523 0.07615 0.0
H474 H 0.61144 0.34058 0.06601 0.0
H475 H 0.65402 0.33685 0.05643 0.0
C476 C 0.36181 0.84918 0.68074 0.0
C477 C 0.33467 0.84181 0.68118 0.0
C478 C 0.36719 0.86129 0.65962 0.0
C479 C 0.33458 0.87367 0.58954 0.0
H480 H 0.38787 0.93914 0.61495 0.0
C481 C 0.33181 0.95359 0.52504 0.0
C482 C 0.35665 0.96945 0.52581 0.0
C483 C 0.33175 0.93533 0.54212 0.0
C484 C 0.37331 0.92069 0.60734 0.0
H485 H 0.29183 0.83989 0.65923 0.0
H486 H 0.30113 0.86083 0.62237 0.0
H487 H 0.38345 0.91084 0.64773 0.0
H488 H 0.40102 0.97814 0.54474 0.0
H489 H 0.40092 0.94599 0.57436 0.0
H490 H 0.32405 0.88365 0.54927 0.0
C491 C 0.31828 0.85737 0.63826 0.0
C492 C 0.37079 0.90446 0.62616 0.0
C493 C 0.31296 0.84558 0.65947 0.0
C494 C 0.3815 0.96633 0.54376 0.0
C495 C 0.38144 0.94797 0.56081 0.0
C496 C 0.3372 0.8898 0.57068 0.0
C497 C 0.34547 0.86585 0.6384 0.0
C498 C 0.35091 0.8811 0.61761 0.0
C499 C 0.35654 0.93235 0.56032 0.0
C500 C 0.35608 0.91383 0.57952 0.0
H501 H 0.3789 0.84653 0.69732 0.0
H502 H 0.38833 0.86749 0.66014 0.0
H503 H 0.31935 0.85559 0.58227 0.0
H504 H 0.31229 0.95551 0.51152 0.0
H505 H 0.31214 0.92399 0.54153 0.0
C506 C 0.82685 0.81215 0.30206 0.0
C507 C 0.83373 0.7886 0.30702 0.0
C508 C 0.80705 0.81302 0.27724 0.0
C509 C 0.75204 0.77245 0.21482 0.0
H510 H 0.77724 0.82537 0.17733 0.0
C511 C 0.70659 0.76741 0.09621 0.0
C512 C 0.70314 0.79069 0.08731 0.0
C513 C 0.72021 0.76752 0.12415 0.0
C514 C 0.76964 0.81068 0.18761 0.0
H515 H 0.82387 0.7473 0.29122 0.0
H516 H 0.78954 0.74879 0.24796 0.0
H517 H 0.80327 0.8255 0.22513 0.0
H518 H 0.71095 0.8323 0.10093 0.0
H519 H 0.7343 0.8324 0.14939 0.0
H520 H 0.71862 0.75739 0.17698 0.0
C521 C 0.7993 0.7666 0.26305 0.0
C522 C 0.78453 0.81082 0.21509 0.0
C523 C 0.81911 0.76575 0.28773 0.0
C524 C 0.71343 0.814 0.10697 0.0
C525 C 0.72693 0.8141 0.1348 0.0
C526 C 0.73709 0.77233 0.18728 0.0
C527 C 0.79369 0.79034 0.25709 0.0
C528 C 0.77609 0.79156 0.22893 0.0
C529 C 0.73063 0.7909 0.14374 0.0
C530 C 0.74587 0.79132 0.17328 0.0
H531 H 0.83785 0.83004 0.31659 0.0
H532 H 0.80286 0.83157 0.27341 0.0
H533 H 0.74487 0.75747 0.225 0.0
H534 H 0.69888 0.74912 0.0816 0.0
H535 H 0.723 0.74933 0.13031 0.0
C536 C 0.85888 0.23796 0.91738 0.0
C537 C 0.85499 0.26284 0.91419 0.0
C538 C 0.85391 0.21867 0.89402 0.0
C539 C 0.86673 0.1928 0.84424 0.0
H540 H 0.81177 0.18658 0.77269 0.0
C541 C 0.88508 0.15605 0.74204 0.0
C542 C 0.86334 0.13919 0.72053 0.0
C543 C 0.88053 0.16801 0.76581 0.0
C544 C 0.82705 0.18781 0.79258 0.0
H545 H 0.84043 0.28635 0.88416 0.0
H546 H 0.83225 0.25298 0.8435 0.0
H547 H 0.80741 0.21152 0.81437 0.0
H548 H 0.81961 0.12193 0.70703 0.0
H549 H 0.81165 0.14297 0.74875 0.0
H550 H 0.88655 0.1694 0.82253 0.0
C551 C 0.83904 0.2482 0.86392 0.0
C552 C 0.82467 0.20226 0.81642 0.0
C553 C 0.84398 0.26743 0.88724 0.0
C554 C 0.8368 0.13484 0.72321 0.0
C555 C 0.83222 0.14692 0.74706 0.0
C556 C 0.8691 0.1784 0.82047 0.0
C557 C 0.84493 0.22388 0.86702 0.0
C558 C 0.84485 0.20542 0.84243 0.0
C559 C 0.85411 0.16346 0.76873 0.0
C560 C 0.8497 0.1763 0.79426 0.0
H561 H 0.8674 0.23385 0.93788 0.0
H562 H 0.8582 0.19999 0.89711 0.0
H563 H 0.88283 0.19501 0.86382 0.0
H564 H 0.90577 0.15994 0.74066 0.0
H565 H 0.89773 0.18105 0.78186 0.0
C566 C 0.30581 0.24282 0.20167 0.0
C567 C 0.30038 0.26197 0.21978 0.0
C568 C 0.32521 0.24916 0.18816 0.0
C569 C 0.38626 0.29929 0.19435 0.0
H570 H 0.37802 0.26204 0.12078 0.0
C571 C 0.46628 0.32272 0.13721 0.0
C572 C 0.47436 0.30137 0.1252 0.0
C573 C 0.44384 0.31913 0.1473 0.0
C574 C 0.38064 0.2725 0.14139 0.0
H575 H 0.31052 0.30302 0.23718 0.0
H576 H 0.3438 0.31425 0.21287 0.0
H577 H 0.34019 0.25434 0.14018 0.0
H578 H 0.46492 0.25951 0.11402 0.0
H579 H 0.4256 0.25327 0.1315 0.0
H580 H 0.42673 0.31747 0.19544 0.0
C581 C 0.33343 0.29419 0.20958 0.0
C582 C 0.359 0.26808 0.15255 0.0
C583 C 0.31408 0.28781 0.22324 0.0
C584 C 0.45926 0.27636 0.12318 0.0
C585 C 0.43664 0.27279 0.13303 0.0
C586 C 0.4078 0.30386 0.18308 0.0
C587 C 0.33956 0.27487 0.19221 0.0
C588 C 0.36167 0.28114 0.17935 0.0
C589 C 0.42879 0.29413 0.14535 0.0
C590 C 0.40536 0.29026 0.15664 0.0
H591 H 0.29534 0.22277 0.19822 0.0
H592 H 0.32954 0.23369 0.17522 0.0
H593 H 0.38927 0.30939 0.21521 0.0
H594 H 0.47746 0.34226 0.13909 0.0
H595 H 0.43813 0.33595 0.15648 0.0
C596 C 0.97342 0.75445 0.89146 0.0
C597 C 0.97243 0.7724 0.8738 0.0
C598 C 0.97897 0.73037 0.88368 0.0
C599 C 0.00903 0.69664 0.83484 0.0
H600 H 0.98004 0.63634 0.86064 0.0
C601 C 0.03104 0.59561 0.80587 0.0
C602 C 0.04302 0.58562 0.82935 0.0
C603 C 0.01891 0.61685 0.80867 0.0
C604 C 0.98817 0.65304 0.85322 0.0
H605 H 0.9753 0.7791 0.83379 0.0
H606 H 0.98385 0.73674 0.81957 0.0
H607 H 0.96493 0.67643 0.86997 0.0
H608 H 0.05063 0.5892 0.87384 0.0
H609 H 0.02885 0.62578 0.87851 0.0
H610 H 0.03199 0.67292 0.81784 0.0
C611 C 0.98136 0.74141 0.83988 0.0
C612 C 0.97973 0.67609 0.85874 0.0
C613 C 0.9763 0.76564 0.8479 0.0
C614 C 0.04168 0.59657 0.8554 0.0
C615 C 0.02908 0.61739 0.85807 0.0
C616 C 0.01707 0.67346 0.82892 0.0
C617 C 0.98318 0.72355 0.85782 0.0
C618 C 0.99045 0.69838 0.8501 0.0
C619 C 0.01801 0.62801 0.83484 0.0
C620 C 0.0071 0.6516 0.83848 0.0
H621 H 0.9707 0.75934 0.91165 0.0
H622 H 0.9807 0.71743 0.89834 0.0
H623 H 0.01818 0.7134 0.82824 0.0
H624 H 0.03187 0.58758 0.78557 0.0
H625 H 0.01043 0.6247 0.79045 0.0
C626 C 0.88746 0.42049 0.35495 0.0
C627 C 0.88984 0.41065 0.37948 0.0
C628 C 0.90977 0.43711 0.35197 0.0
C629 C 0.98513 0.45589 0.37634 0.0
H630 H 0.97169 0.51304 0.339 0.0
C631 C 0.06956 0.52611 0.3498 0.0
C632 C 0.06137 0.53049 0.3224 0.0
C633 C 0.05035 0.51281 0.36045 0.0
C634 C 0.97577 0.49714 0.34943 0.0
H635 H 0.91771 0.41059 0.42012 0.0
H636 H 0.957 0.43968 0.41475 0.0
H637 H 0.93479 0.48796 0.35149 0.0
H638 H 0.02669 0.52381 0.28458 0.0
H639 H 0.99359 0.50085 0.30307 0.0
H640 H 0.02611 0.46493 0.37369 0.0
C641 C 0.93772 0.43439 0.39787 0.0
C642 C 0.95464 0.48277 0.35656 0.0
C643 C 0.91525 0.41777 0.40093 0.0
C644 C 0.03378 0.52093 0.30581 0.0
C645 C 0.01468 0.5079 0.31646 0.0
C646 C 0.00639 0.47038 0.36923 0.0
C647 C 0.93515 0.44429 0.37335 0.0
C648 C 0.95881 0.46151 0.36935 0.0
C649 C 0.02262 0.50395 0.34397 0.0
C650 C 0.00163 0.49066 0.35496 0.0
H651 H 0.8685 0.41486 0.33767 0.0
H652 H 0.90729 0.44387 0.33254 0.0
H653 H 0.98894 0.43956 0.3861 0.0
H654 H 0.09068 0.53321 0.3631 0.0
H655 H 0.05702 0.51 0.38173 0.0
C656 C 0.23967 0.34804 0.73563 0.0
C657 C 0.26523 0.35616 0.7569 0.0
C658 C 0.21725 0.35873 0.73745 0.0
C659 C 0.18873 0.38723 0.78788 0.0
H660 H 0.15684 0.42845 0.73578 0.0
C661 C 0.13736 0.46678 0.8197 0.0
C662 C 0.11512 0.47273 0.80038 0.0
C663 C 0.15087 0.4483 0.81149 0.0
C664 C 0.16499 0.41652 0.75018 0.0
H665 H 0.28734 0.38299 0.79603 0.0
H666 H 0.24806 0.40047 0.79966 0.0
H667 H 0.18956 0.40352 0.72588 0.0
H668 H 0.08919 0.46336 0.75725 0.0
H669 H 0.11276 0.43061 0.74286 0.0
H670 H 0.16469 0.40018 0.81241 0.0
C671 C 0.24542 0.38575 0.78173 0.0
C672 C 0.18376 0.40233 0.74451 0.0
C673 C 0.26786 0.37553 0.77969 0.0
C674 C 0.10628 0.45924 0.77265 0.0
C675 C 0.11987 0.44059 0.76438 0.0
C676 C 0.16976 0.40104 0.79336 0.0
C677 C 0.21991 0.37735 0.76077 0.0
C678 C 0.19646 0.38835 0.76383 0.0
C679 C 0.14248 0.43506 0.78371 0.0
C680 C 0.1585 0.41671 0.77516 0.0
H681 H 0.23681 0.33309 0.71786 0.0
H682 H 0.1977 0.35205 0.72102 0.0
H683 H 0.19809 0.37632 0.80292 0.0
H684 H 0.14483 0.47681 0.84122 0.0
H685 H 0.16854 0.44504 0.82686 0.0
C686 C 0.3239 0.76908 0.25072 0.0
C687 C 0.339 0.75979 0.23414 0.0
C688 C 0.30483 0.75201 0.25797 0.0
C689 C 0.2528 0.71309 0.25191 0.0
H690 H 0.26768 0.65045 0.27749 0.0
C691 C 0.16711 0.63237 0.25718 0.0
C692 C 0.1718 0.62189 0.28146 0.0
C693 C 0.18838 0.64908 0.25255 0.0
C694 C 0.26334 0.66797 0.27054 0.0
H695 H 0.34633 0.72527 0.21261 0.0
H696 H 0.31274 0.69524 0.22531 0.0
H697 H 0.30384 0.67984 0.26751 0.0
H698 H 0.20263 0.62059 0.31984 0.0
H699 H 0.24 0.64986 0.31159 0.0
H700 H 0.21238 0.70132 0.25478 0.0
C701 C 0.31588 0.71581 0.23277 0.0
C702 C 0.28391 0.68463 0.26459 0.0
C703 C 0.33491 0.73296 0.22533 0.0
C704 C 0.19835 0.62842 0.30097 0.0
C705 C 0.21976 0.64501 0.29618 0.0
C706 C 0.23223 0.69638 0.25758 0.0
C707 C 0.30039 0.72522 0.24886 0.0
C708 C 0.27882 0.70737 0.25525 0.0
C709 C 0.21491 0.6556 0.27197 0.0
C710 C 0.23723 0.67361 0.26688 0.0
H711 H 0.32629 0.78965 0.25753 0.0
H712 H 0.29337 0.75982 0.27059 0.0
H713 H 0.24819 0.73035 0.24449 0.0
H714 H 0.14693 0.62773 0.24168 0.0
H715 H 0.18411 0.65672 0.23356 0.0
C716 C 0.98045 0.93441 0.85332 0.0
C717 C 0.00625 0.928 0.85718 0.0
C718 C 0.97243 0.95189 0.8363 0.0
C719 C 0.98883 0.98239 0.78009 0.0
H720 H 0.9442 0.02879 0.7988 0.0
C721 C 0.96297 0.06516 0.72182 0.0
C722 C 0.93503 0.06629 0.71352 0.0
C723 C 0.97237 0.04872 0.73967 0.0
C724 C 0.95657 0.01585 0.79329 0.0
H725 H 0.04381 0.93509 0.846 0.0
H726 H 0.0304 0.9664 0.81752 0.0
H727 H 0.95967 0.99977 0.82985 0.0
H728 H 0.89512 0.05125 0.71763 0.0
H729 H 0.91167 0.02288 0.74907 0.0
H730 H 0.98606 0.99899 0.74375 0.0
C731 C 0.01605 0.95748 0.82711 0.0
C732 C 0.96534 0.99912 0.81098 0.0
C733 C 0.02394 0.93979 0.84386 0.0
C734 C 0.91675 0.05078 0.72356 0.0
C735 C 0.92623 0.03465 0.7417 0.0
C736 C 0.98035 0.99937 0.76259 0.0
C737 C 0.99011 0.96364 0.82294 0.0
C738 C 0.98141 0.98201 0.8045 0.0
C739 C 0.9541 0.03343 0.74988 0.0
C740 C 0.96395 0.0161 0.76892 0.0
H741 H 0.96641 0.92601 0.86352 0.0
H742 H 0.95215 0.95586 0.83333 0.0
H743 H 0.00075 0.96921 0.77412 0.0
H744 H 0.97753 0.07686 0.7144 0.0
H745 H 0.994 0.04822 0.7458 0.0
C746 C 0.76822 0.35626 0.33812 0.0
C747 C 0.78765 0.3787 0.35422 0.0
C748 C 0.74229 0.35781 0.32165 0.0
C749 C 0.70814 0.39906 0.28067 0.0
H750 H 0.64185 0.35015 0.27595 0.0
C751 C 0.60721 0.38555 0.18987 0.0
C752 C 0.59433 0.35957 0.17771 0.0
C753 C 0.62795 0.39188 0.21571 0.0
C754 C 0.66016 0.36393 0.27694 0.0
H755 H 0.79431 0.42042 0.36597 0.0
H756 H 0.74917 0.4231 0.336 0.0
H757 H 0.68404 0.35389 0.31405 0.0
H758 H 0.5925 0.31999 0.18366 0.0
H759 H 0.62866 0.33088 0.22803 0.0
H760 H 0.68487 0.40796 0.24262 0.0
C761 C 0.75424 0.40433 0.33661 0.0
C762 C 0.68424 0.36615 0.29885 0.0
C763 C 0.78012 0.40275 0.3536 0.0
C764 C 0.60195 0.34021 0.19236 0.0
C765 C 0.6226 0.3465 0.21804 0.0
C766 C 0.68409 0.39665 0.25853 0.0
C767 C 0.73518 0.38185 0.32037 0.0
C768 C 0.70866 0.38313 0.30042 0.0
C769 C 0.63617 0.37237 0.22991 0.0
C770 C 0.66007 0.37838 0.25588 0.0
H771 H 0.77329 0.33744 0.33724 0.0
H772 H 0.72818 0.34022 0.30892 0.0
H773 H 0.72676 0.41219 0.28131 0.0
H774 H 0.60175 0.40094 0.17916 0.0
H775 H 0.63778 0.41202 0.22439 0.0
C776 C 0.33173 0.24857 0.65983 0.0
C777 C 0.34858 0.2728 0.66226 0.0
C778 C 0.33814 0.22592 0.64876 0.0
C779 C 0.37867 0.20402 0.60427 0.0
H780 H 0.35959 0.13852 0.62621 0.0
C781 C 0.40479 0.11131 0.55698 0.0
C782 C 0.38239 0.08992 0.54618 0.0
C783 C 0.40298 0.13307 0.57434 0.0
C784 C 0.365 0.15671 0.6199 0.0
H785 H 0.38609 0.2924 0.65656 0.0
H786 H 0.39792 0.25297 0.63824 0.0
H787 H 0.35275 0.17783 0.65125 0.0
H788 H 0.34103 0.07413 0.54618 0.0
H789 H 0.33807 0.11202 0.57678 0.0
H790 H 0.39106 0.18287 0.57307 0.0
C791 C 0.37921 0.25133 0.64388 0.0
C792 C 0.36097 0.17923 0.63412 0.0
C793 C 0.37256 0.27394 0.65454 0.0
C794 C 0.35862 0.09033 0.55408 0.0
C795 C 0.35696 0.11196 0.57172 0.0
C796 C 0.38301 0.18161 0.59033 0.0
C797 C 0.36176 0.22703 0.64022 0.0
C798 C 0.36748 0.20317 0.6263 0.0
C799 C 0.3789 0.13375 0.58156 0.0
C800 C 0.37597 0.15768 0.59779 0.0
H801 H 0.313 0.2472 0.66545 0.0
H802 H 0.32399 0.20767 0.64597 0.0
H803 H 0.38337 0.2219 0.59716 0.0
H804 H 0.42339 0.11162 0.55131 0.0
H805 H 0.4203 0.14953 0.58184 0.0
C806 C 0.4172 0.78651 0.08934 0.0
C807 C 0.41419 0.8033 0.11136 0.0
C808 C 0.43988 0.7924 0.08 0.0
C809 C 0.51069 0.83233 0.10069 0.0
H810 H 0.50042 0.81271 0.02186 0.0
C811 C 0.59961 0.84949 0.05199 0.0
C812 C 0.60141 0.82681 0.0358 0.0
C813 C 0.57641 0.85018 0.06073 0.0
C814 C 0.50357 0.81837 0.04392 0.0
H815 H 0.43259 0.83948 0.14089 0.0
H816 H 0.47219 0.85002 0.12433 0.0
H817 H 0.46057 0.80732 0.0384 0.0
H818 H 0.58004 0.78744 0.01532 0.0
H819 H 0.53965 0.78884 0.03006 0.0
H820 H 0.55386 0.84326 0.106 0.0
C821 C 0.45717 0.83208 0.11453 0.0
C822 C 0.48079 0.81513 0.05345 0.0
C823 C 0.43451 0.82607 0.12402 0.0
C824 C 0.57934 0.80517 0.02789 0.0
C825 C 0.55611 0.80601 0.03617 0.0
C826 C 0.53351 0.83581 0.09107 0.0
C827 C 0.46006 0.81536 0.0923 0.0
C828 C 0.4841 0.8214 0.08204 0.0
C829 C 0.55448 0.82839 0.05288 0.0
C830 C 0.5302 0.82824 0.06268 0.0
H831 H 0.40214 0.76859 0.0795 0.0
H832 H 0.44174 0.77871 0.06334 0.0
H833 H 0.51405 0.83721 0.12285 0.0
H834 H 0.61636 0.86642 0.05845 0.0
H835 H 0.57559 0.86768 0.07357 0.0
C836 C 0.84521 0.27254 0.464 0.0
C837 C 0.86508 0.28979 0.45768 0.0
C838 C 0.85164 0.26417 0.48928 0.0
C839 C 0.90933 0.25017 0.53942 0.0
H840 H 0.8578 0.23841 0.58083 0.0
C841 C 0.92555 0.18853 0.62501 0.0
C842 C 0.90195 0.17047 0.62384 0.0
C843 C 0.92334 0.20815 0.60949 0.0
C844 C 0.87239 0.24148 0.56945 0.0
H845 H 0.90688 0.31255 0.47281 0.0
H846 H 0.91846 0.29742 0.51722 0.0
H847 H 0.84958 0.26481 0.54519 0.0
H848 H 0.85749 0.15916 0.60582 0.0
H849 H 0.85372 0.19284 0.57848 0.0
H850 H 0.93138 0.22576 0.56252 0.0
C851 C 0.89786 0.29059 0.50265 0.0
C852 C 0.86774 0.25671 0.54917 0.0
C853 C 0.89124 0.29932 0.47743 0.0
C854 C 0.8761 0.17275 0.60725 0.0
C855 C 0.87391 0.19226 0.59173 0.0
C856 C 0.91389 0.23476 0.55957 0.0
C857 C 0.87821 0.2726 0.50858 0.0
C858 C 0.88573 0.26058 0.53339 0.0
C859 C 0.89749 0.21011 0.59247 0.0
C860 C 0.89499 0.22958 0.57422 0.0
H861 H 0.82493 0.26494 0.44897 0.0
H862 H 0.83618 0.25007 0.4931 0.0
H863 H 0.92341 0.25262 0.52738 0.0
H864 H 0.94577 0.1874 0.63772 0.0
H865 H 0.94189 0.22172 0.61074 0.0
C866 C 0.36388 0.31142 0.81229 0.0
C867 C 0.35243 0.33293 0.80731 0.0
C868 C 0.38254 0.31181 0.83834 0.0
C869 C 0.40481 0.34671 0.91185 0.0
H870 H 0.46707 0.31417 0.91971 0.0
C871 C 0.49049 0.36093 0.01661 0.0
C872 C 0.49811 0.33837 0.02436 0.0
C873 C 0.4736 0.36022 0.98966 0.0
C874 C 0.44966 0.32321 0.9178 0.0
H875 H 0.35255 0.37214 0.82495 0.0
H876 H 0.38543 0.37313 0.86991 0.0
H877 H 0.43601 0.31285 0.87329 0.0
H878 H 0.49449 0.29752 0.00968 0.0
H879 H 0.46518 0.29641 0.96263 0.0
H880 H 0.41868 0.35735 0.95629 0.0
C881 C 0.3794 0.35558 0.85426 0.0
C882 C 0.4318 0.32237 0.89123 0.0
C883 C 0.36064 0.35508 0.82844 0.0
C884 C 0.48893 0.31523 0.00442 0.0
C885 C 0.47228 0.3146 0.97741 0.0
C886 C 0.42278 0.34774 0.93831 0.0
C887 C 0.39028 0.33384 0.85976 0.0
C888 C 0.40919 0.33421 0.88792 0.0
C889 C 0.46421 0.33702 0.96983 0.0
C890 C 0.44541 0.33605 0.94159 0.0
H891 H 0.35784 0.29411 0.79631 0.0
H892 H 0.39035 0.29465 0.8419 0.0
H893 H 0.38728 0.35551 0.9102 0.0
H894 H 0.49724 0.37906 0.03146 0.0
H895 H 0.4679 0.37786 0.9843 0.0
C896 C 0.39356 0.86682 0.25134 0.0
C897 C 0.40389 0.84462 0.25528 0.0
C898 C 0.40182 0.88841 0.27291 0.0
C899 C 0.42907 0.90321 0.34994 0.0
H900 H 0.41957 0.97161 0.33841 0.0
C901 C 0.43159 0.98677 0.43734 0.0
C902 C 0.40548 0.99273 0.43187 0.0
C903 C 0.43815 0.97182 0.41647 0.0
C904 C 0.42265 0.95267 0.34192 0.0
H905 H 0.43243 0.82798 0.28366 0.0
H906 H 0.44831 0.86625 0.32089 0.0
H907 H 0.42153 0.94021 0.29999 0.0
H908 H 0.36625 0.98877 0.4002 0.0
H909 H 0.37809 0.96339 0.3636 0.0
H910 H 0.43017 0.91597 0.39196 0.0
C911 C 0.43298 0.8668 0.30166 0.0
C912 C 0.42351 0.93456 0.31991 0.0
C913 C 0.42422 0.84499 0.28027 0.0
C914 C 0.38644 0.98427 0.40503 0.0
C915 C 0.39326 0.96997 0.38406 0.0
C916 C 0.42885 0.92153 0.37208 0.0
C917 C 0.42096 0.88838 0.29876 0.0
C918 C 0.42561 0.90922 0.32329 0.0
C919 C 0.419 0.96337 0.38968 0.0
C920 C 0.42467 0.94606 0.36795 0.0
H921 H 0.37756 0.86677 0.23232 0.0
H922 H 0.3917 0.90433 0.26979 0.0
H923 H 0.43028 0.8839 0.35348 0.0
H924 H 0.4466 0.99306 0.4579 0.0
H925 H 0.45807 0.96676 0.42121 0.0
C926 C 0.89119 0.81135 0.89628 0.0
C927 C 0.91657 0.82916 0.90848 0.0
C928 C 0.86866 0.81381 0.90543 0.0
C929 C 0.85053 0.84529 0.96526 0.0
H930 H 0.77656 0.82304 0.91312 0.0
C931 C 0.75113 0.85372 0.99445 0.0
C932 C 0.73169 0.83012 0.98722 0.0
C933 C 0.77381 0.85621 0.98452 0.0
C934 C 0.79713 0.82938 0.92787 0.0
H935 H 0.93792 0.86367 0.94002 0.0
H936 H 0.89835 0.86866 0.95501 0.0
H937 H 0.81591 0.82298 0.89612 0.0
H938 H 0.72041 0.79088 0.96345 0.0
H939 H 0.7595 0.79547 0.94576 0.0
H940 H 0.83139 0.85193 0.99691 0.0
C941 C 0.896 0.85239 0.93876 0.0
C942 C 0.81971 0.82916 0.91822 0.0
C943 C 0.91865 0.84974 0.92984 0.0
C944 C 0.73509 0.80928 0.96953 0.0
C945 C 0.75736 0.81193 0.95923 0.0
C946 C 0.82789 0.84587 0.97484 0.0
C947 C 0.87072 0.83437 0.92679 0.0
C948 C 0.84673 0.83659 0.93684 0.0
C949 C 0.77701 0.83533 0.96673 0.0
C950 C 0.801 0.83743 0.9563 0.0
H951 H 0.88861 0.79547 0.87951 0.0
H952 H 0.84973 0.79927 0.89596 0.0
H953 H 0.87095 0.85084 0.98032 0.0
H954 H 0.74904 0.87007 0.00809 0.0
H955 H 0.78871 0.87447 0.99055 0.0
loop_
_geom_bond_atom_site_label_1
_geom_bond_atom_site_label_2
_geom_bond_distance
_geom_bond_site_symmetry_2
_ccdc_geom_bond_type
H0 C1 0.949 . S
C1 H0 0.949 . S
C1 C2 1.395 . S
C1 C3 1.391 . S
C2 C1 1.395 . S
C2 C5 1.390 . S
C3 C1 1.391 . S
C3 C7 1.387 . S
C3 C8 1.491 . S
H4 C5 0.950 . S
C5 C2 1.390 . S
C5 H4 0.950 . S
C5 C6 1.378 . S
C6 C5 1.378 . S
C6 C7 1.409 . S
C7 C3 1.387 . S
C7 C6 1.409 . S
C7 H9 0.951 . S
C8 C3 1.491 . S
C8 C10 1.382 . S
C8 C12 1.404 . S
H9 C7 0.951 . S
C10 C8 1.382 . S
C10 C11 1.390 . S
C10 H15 0.949 . S
C11 C10 1.390 . S
C11 C16 1.399 . S
C12 C8 1.404 . S
C12 H13 0.950 . S
C12 C14 1.375 . S
H13 C12 0.950 . S
C14 C12 1.375 . S
C14 C16 1.382 . S
C14 H18 0.950 . S
H15 C10 0.949 . S
C16 C11 1.399 . S
C16 C14 1.382 . S
C16 H17 0.952 . S
H17 C16 0.952 . S
H18 C14 0.950 . S
H19 C20 0.949 . S
C20 H19 0.949 . S
C20 C21 1.395 . S
C20 C22 1.391 . S
C21 C20 1.395 . S
C21 C24 1.390 . S
C22 C20 1.391 . S
C22 C26 1.387 . S
C22 C27 1.491 . S
H23 C24 0.950 . S
C24 C21 1.390 . S
C24 H23 0.950 . S
C24 C25 1.378 . S
C25 C24 1.378 . S
C25 C26 1.409 . S
C26 C22 1.387 . S
C26 C25 1.409 . S
C26 H28 0.951 . S
C27 C22 1.491 . S
C27 C29 1.382 . S
C27 C31 1.404 . S
H28 C26 0.951 . S
C29 C27 1.382 . S
C29 C30 1.390 . S
C29 H34 0.949 . S
C30 C29 1.390 . S
C30 C35 1.399 . S
C31 C27 1.404 . S
C31 H32 0.950 . S
C31 C33 1.375 . S
H32 C31 0.950 . S
C33 C31 1.375 . S
C33 C35 1.382 . S
C33 H37 0.950 . S
H34 C29 0.949 . S
C35 C30 1.399 . S
C35 C33 1.382 . S
C35 H36 0.952 . S
H36 C35 0.952 . S
H37 C33 0.950 . S
H38 C39 0.949 . S
C39 H38 0.949 . S
C39 C40 1.395 . S
C39 C41 1.391 . S
C40 C39 1.395 . S
C40 C43 1.390 . S
C41 C39 1.391 . S
C41 C45 1.387 . S
C41 C46 1.491 . S
H42 C43 0.950 . S
C43 C40 1.390 . S
C43 H42 0.950 . S
C43 C44 1.378 . S
C44 C43 1.378 . S
C44 C45 1.409 . S
C45 C41 1.387 . S
C45 C44 1.409 . S
C45 H47 0.951 . S
C46 C41 1.491 . S
C46 C48 1.382 . S
C46 C50 1.404 . S
H47 C45 0.951 . S
C48 C46 1.382 . S
C48 C49 1.390 . S
C48 H53 0.949 . S
C49 C48 1.390 . S
C49 C54 1.399 . S
C50 C46 1.404 . S
C50 H51 0.950 . S
C50 C52 1.375 . S
H51 C50 0.950 . S
C52 C50 1.375 . S
C52 C54 1.382 . S
C52 H56 0.950 . S
H53 C48 0.949 . S
C54 C49 1.399 . S
C54 C52 1.382 . S
C54 H55 0.952 . S
H55 C54 0.952 . S
H56 C52 0.950 . S
H57 C58 0.949 . S
C58 H57 0.949 . S
C58 C59 1.395 . S
C58 C60 1.391 . S
C59 C58 1.395 . S
C59 C62 1.390 . S
C60 C58 1.391 . S
C60 C64 1.387 . S
C60 C65 1.524 . S
H61 C62 0.950 . S
C62 C59 1.390 . S
C62 H61 0.950 . S
C62 C63 1.378 . S
C63 C62 1.378 . S
C63 C64 1.409 . S
C64 C60 1.387 . S
C64 C63 1.409 . S
C64 H66 0.951 . S
C65 C60 1.524 . S
C65 C67 1.371 1_556 S
C65 C69 1.382 1_556 S
H66 C64 0.951 . S
C67 C65 1.371 1_554 S
C67 C68 1.390 . S
C67 H72 0.949 1_554 S
C68 C67 1.390 . S
C68 C73 1.399 . S
C69 C65 1.382 1_554 S
C69 H70 0.950 . S
C69 C71 1.375 . S
H70 C69 0.950 . S
C71 C69 1.375 . S
C71 C73 1.382 . S
C71 H75 0.950 . S
H72 C67 0.949 1_556 S
C73 C68 1.399 . S
C73 C71 1.382 . S
C73 H74 0.952 . S
H74 C73 0.952 . S
H75 C71 0.950 . S
H76 C77 0.949 . S
C77 H76 0.949 . S
C77 C78 1.395 . S
C77 C79 1.391 . S
C78 C77 1.395 . S
C78 C81 1.390 . S
C79 C77 1.391 . S
C79 C83 1.387 . S
C79 C84 1.491 . S
H80 C81 0.950 . S
C81 C78 1.390 . S
C81 H80 0.950 . S
C81 C82 1.378 . S
C82 C81 1.378 . S
C82 C83 1.409 . S
C83 C79 1.387 . S
C83 C82 1.409 . S
C83 H85 0.951 . S
C84 C79 1.491 . S
C84 C86 1.382 . S
C84 C88 1.404 . S
H85 C83 0.951 . S
C86 C84 1.382 . S
C86 C87 1.390 . S
C86 H91 0.949 . S
C87 C86 1.390 . S
C87 C92 1.399 . S
C88 C84 1.404 . S
C88 H89 0.950 . S
C88 C90 1.375 . S
H89 C88 0.950 . S
C90 C88 1.375 . S
C90 C92 1.382 . S
C90 H94 0.950 . S
H91 C86 0.949 . S
C92 C87 1.399 . S
C92 C90 1.382 . S
C92 H93 0.952 . S
H93 C92 0.952 . S
H94 C90 0.950 . S
H95 C96 0.949 . S
C96 H95 0.949 . S
C96 C97 1.395 . S
C96 C98 1.391 . S
C97 C96 1.395 . S
C97 C100 1.390 . S
C98 C96 1.391 . S
C98 C102 1.387 . S
C98 C103 1.491 . S
H99 C100 0.950 . S
C100 C97 1.390 . S
C100 H99 0.950 . S
C100 C101 1.378 . S
C101 C100 1.378 . S
C101 C102 1.409 . S
C102 C98 1.387 . S
C102 C101 1.409 . S
C102 H104 0.951 . S
C103 C98 1.491 . S
C103 C105 1.382 . S
C103 C107 1.404 . S
H104 C102 0.951 . S
C105 C103 1.382 . S
C105 C106 1.390 . S
C105 H110 0.949 . S
C106 C105 1.390 . S
C106 C111 1.399 . S
C107 C103 1.404 . S
C107 H108 0.950 . S
C107 C109 1.375 . S
H108 C107 0.950 . S
C109 C107 1.375 . S
C109 C111 1.382 . S
C109 H113 0.950 . S
H110 C105 0.949 . S
C111 C106 1.399 . S
C111 C109 1.382 . S
C111 H112 0.952 . S
H112 C111 0.952 . S
H113 C109 0.950 . S
H114 C115 0.949 . S
C115 H114 0.949 . S
C115 C116 1.395 . S
C115 C117 1.391 . S
C116 C115 1.395 . S
C116 C119 1.390 . S
C117 C115 1.391 . S
C117 C121 1.387 . S
C117 C122 1.491 . S
H118 C119 0.950 . S
C119 C116 1.390 . S
C119 H118 0.950 . S
C119 C120 1.378 . S
C120 C119 1.378 . S
C120 C121 1.409 . S
C121 C117 1.387 . S
C121 C120 1.409 . S
C121 H123 0.951 . S
C122 C117 1.491 . S
C122 C124 1.382 . S
C122 C126 1.404 . S
H123 C121 0.951 . S
C124 C122 1.382 . S
C124 C125 1.390 . S
C124 H129 0.949 . S
C125 C124 1.390 . S
C125 C130 1.399 . S
C126 C122 1.404 . S
C126 H127 0.950 . S
C126 C128 1.375 . S
H127 C126 0.950 . S
C128 C126 1.375 . S
C128 C130 1.382 . S
C128 H132 0.950 . S
H129 C124 0.949 . S
C130 C125 1.399 . S
C130 C128 1.382 . S
C130 H131 0.952 . S
H131 C130 0.952 . S
H132 C128 0.950 . S
H133 C134 0.949 . S
C134 H133 0.949 . S
C134 C135 1.395 . S
C134 C136 1.391 . S
C135 C134 1.395 . S
C135 C138 1.390 . S
C136 C134 1.391 . S
C136 C140 1.387 . S
C136 C141 1.491 . S
H137 C138 0.950 . S
C138 C135 1.390 . S
C138 H137 0.950 . S
C138 C139 1.378 . S
C139 C138 1.378 . S
C139 C140 1.409 . S
C140 C136 1.387 . S
C140 C139 1.409 . S
C140 H142 0.951 . S
C141 C136 1.491 . S
C141 C143 1.382 . S
C141 C145 1.404 . S
H142 C140 0.951 . S
C143 C141 1.382 . S
C143 C144 1.390 . S
C143 H148 0.949 . S
C144 C143 1.390 . S
C144 C149 1.399 . S
C145 C141 1.404 . S
C145 H146 0.950 . S
C145 C147 1.375 . S
H146 C145 0.950 . S
C147 C145 1.375 . S
C147 C149 1.382 . S
C147 H151 0.950 . S
H148 C143 0.949 . S
C149 C144 1.399 . S
C149 C147 1.382 . S
C149 H150 0.952 . S
H150 C149 0.952 . S
H151 C147 0.950 . S
C152 O154 1.247 1_655 S
C152 O156 1.258 . S
C153 O160 1.247 . S
C153 O161 1.258 . S
O154 C152 1.247 1_455 S
O154 Zn155 2.028 . S
Zn155 O154 2.028 . S
Zn155 O159 2.035 . S
Zn155 O161 2.035 . S
Zn155 O162 2.028 . S
O156 C152 1.258 . S
O156 Zn157 2.035 1_655 S
Zn157 O156 2.035 1_455 S
Zn157 O158 2.028 . S
Zn157 O160 2.028 . S
Zn157 O163 2.035 1_455 S
O158 Zn157 2.028 . S
O158 C164 1.247 . S
O159 Zn155 2.035 . S
O159 C164 1.258 . S
O160 C153 1.247 . S
O160 Zn157 2.028 . S
O161 C153 1.258 . S
O161 Zn155 2.035 . S
O162 Zn155 2.028 . S
O162 C165 1.247 . S
O163 Zn157 2.035 1_655 S
O163 C165 1.258 1_655 S
C164 O158 1.247 . S
C164 O159 1.258 . S
C165 O162 1.247 . S
C165 O163 1.258 1_455 S
C166 O168 1.247 . S
C166 O170 1.258 . S
C167 O174 1.247 . S
C167 O175 1.258 . S
O168 C166 1.247 . S
O168 Zn169 2.028 . S
Zn169 O168 2.028 . S
Zn169 O173 2.035 . S
Zn169 O175 2.035 . S
Zn169 O176 2.028 . S
O170 C166 1.258 . S
O170 Zn171 2.035 . S
Zn171 O170 2.035 . S
Zn171 O172 2.028 . S
Zn171 O174 2.028 . S
Zn171 O177 2.035 . S
O172 Zn171 2.028 . S
O172 C178 1.247 . S
O173 Zn169 2.035 . S
O173 C178 1.258 . S
O174 C167 1.247 . S
O174 Zn171 2.028 . S
O175 C167 1.258 . S
O175 Zn169 2.035 . S
O176 Zn169 2.028 . S
O176 C179 1.247 . S
O177 Zn171 2.035 . S
O177 C179 1.258 . S
C178 O172 1.247 . S
C178 O173 1.258 . S
C179 O176 1.247 . S
C179 O177 1.258 . S
C180 O182 1.247 . S
C180 O184 1.250 1_565 S
C181 O188 1.247 . S
C181 O189 1.258 . S
O182 C180 1.247 . S
O182 Zn183 2.028 1_565 S
Zn183 O182 2.028 1_545 S
Zn183 O187 2.035 . S
Zn183 O189 2.035 . S
Zn183 O190 2.028 1_545 S
O184 C180 1.250 1_545 S
O184 Zn185 2.049 . S
Zn185 O184 2.049 . S
Zn185 O186 2.028 . S
Zn185 O188 2.028 . S
Zn185 O191 2.035 . S
O186 Zn185 2.028 . S
O186 C192 1.247 . S
O187 Zn183 2.035 . S
O187 C192 1.258 . S
O188 C181 1.247 . S
O188 Zn185 2.028 . S
O189 C181 1.258 . S
O189 Zn183 2.035 . S
O190 Zn183 2.028 1_565 S
O190 C193 1.247 . S
O191 Zn185 2.035 . S
O191 C193 1.258 1_545 S
C192 O186 1.247 . S
C192 O187 1.258 . S
C193 O190 1.247 . S
C193 O191 1.258 1_565 S
C194 O196 1.247 . S
C194 O198 1.258 . S
C195 O202 1.247 . S
C195 O203 1.258 . S
O196 C194 1.247 . S
O196 Zn197 2.028 1_554 S
Zn197 O196 2.028 1_556 S
Zn197 O201 2.035 1_556 S
Zn197 O203 2.035 . S
Zn197 O204 2.028 . S
O198 C194 1.258 . S
O198 Zn199 2.035 . S
Zn199 O198 2.035 . S
Zn199 O200 2.028 . S
Zn199 O202 2.028 1_554 S
Zn199 O205 2.035 1_554 S
O200 Zn199 2.028 . S
O200 C206 1.247 . S
O201 Zn197 2.035 1_554 S
O201 C206 1.258 . S
O202 C195 1.247 . S
O202 Zn199 2.028 1_556 S
O203 C195 1.258 . S
O203 Zn197 2.035 . S
O204 Zn197 2.028 . S
O204 C207 1.247 . S
O205 Zn199 2.035 1_556 S
O205 C207 1.258 . S
C206 O200 1.247 . S
C206 O201 1.258 . S
C207 O204 1.247 . S
C207 O205 1.258 . S
C208 O210 1.247 . S
C208 O212 1.258 1_655 S
C209 O216 1.247 1_655 S
C209 O217 1.258 . S
O210 C208 1.247 . S
O210 Zn211 2.028 . S
Zn211 O210 2.028 . S
Zn211 O215 2.035 . S
Zn211 O217 2.035 . S
Zn211 O218 2.028 . S
O212 C208 1.258 1_455 S
O212 Zn213 2.035 . S
Zn213 O212 2.035 . S
Zn213 O214 2.028 . S
Zn213 O216 2.028 . S
Zn213 O219 2.035 . S
O214 Zn213 2.028 . S
O214 C220 1.247 1_455 S
O215 Zn211 2.035 . S
O215 C220 1.258 . S
O216 C209 1.247 1_455 S
O216 Zn213 2.028 . S
O217 C209 1.258 . S
O217 Zn211 2.035 . S
O218 Zn211 2.028 . S
O218 C221 1.247 . S
O219 Zn213 2.035 . S
O219 C221 1.258 1_455 S
C220 O214 1.247 1_655 S
C220 O215 1.258 . S
C221 O218 1.247 . S
C221 O219 1.258 1_655 S
C222 O224 1.247 . S
C222 O226 1.258 . S
C223 O230 1.247 . S
C223 O231 1.258 . S
O224 C222 1.247 . S
O224 Zn225 2.028 . S
Zn225 O224 2.028 . S
Zn225 O229 2.035 . S
Zn225 O231 2.035 . S
Zn225 O232 2.028 . S
O226 C222 1.258 . S
O226 Zn227 2.035 . S
Zn227 O226 2.035 . S
Zn227 O228 2.028 . S
Zn227 O230 2.028 . S
Zn227 O233 2.035 . S
O228 Zn227 2.028 . S
O228 C234 1.247 . S
O229 Zn225 2.035 . S
O229 C234 1.258 . S
O230 C223 1.247 . S
O230 Zn227 2.028 . S
O231 C223 1.258 . S
O231 Zn225 2.035 . S
O232 Zn225 2.028 . S
O232 C235 1.247 . S
O233 Zn227 2.035 . S
O233 C235 1.258 . S
C234 O228 1.247 . S
C234 O229 1.258 . S
C235 O232 1.247 . S
C235 O233 1.258 . S
C236 C237 1.349 . S
C236 C238 1.327 . S
C236 H261 0.950 . S
C237 C236 1.349 . S
C237 C253 1.349 . S
C238 C236 1.327 . S
C238 C257 1.429 . S
C238 H262 0.950 . S
C239 C256 1.574 . S
C239 C258 1.368 . S
C239 H263 0.949 . S
H240 C244 0.949 . S
C241 C242 1.349 . S
C241 C243 1.327 . S
C241 H264 0.950 . S
C242 C241 1.349 . S
C242 C254 1.349 . S
C243 C241 1.327 . S
C243 C259 1.429 . S
C243 H265 0.950 . S
C244 H240 0.949 . S
C244 C252 1.574 . S
C244 C260 1.368 . S
H245 C253 0.950 . S
H246 C251 0.950 . S
H247 C252 0.949 . S
H248 C254 0.950 . S
H249 C255 0.950 . S
H250 C256 0.949 . S
C251 H246 0.950 . S
C251 C253 1.327 . S
C251 C257 1.429 . S
C252 C244 1.574 . S
C252 H247 0.949 . S
C252 C258 1.368 . S
C253 C237 1.349 . S
C253 H245 0.950 . S
C253 C251 1.327 . S
C254 C242 1.349 . S
C254 H248 0.950 . S
C254 C255 1.327 . S
C255 H249 0.950 . S
C255 C254 1.327 . S
C255 C259 1.429 . S
C256 C239 1.574 . S
C256 H250 0.949 . S
C256 C260 1.368 . S
C257 C238 1.429 . S
C257 C251 1.429 . S
C257 C258 1.523 . S
C258 C239 1.368 . S
C258 C252 1.368 . S
C258 C257 1.523 . S
C259 C243 1.429 . S
C259 C255 1.429 . S
C259 C260 1.523 . S
C260 C244 1.368 . S
C260 C256 1.368 . S
C260 C259 1.523 . S
H261 C236 0.950 . S
H262 C238 0.950 . S
H263 C239 0.949 . S
H264 C241 0.950 . S
H265 C243 0.950 . S
C266 C267 1.349 . S
C266 C268 1.327 . S
C266 H291 0.950 . S
C267 C266 1.349 . S
C267 C283 1.349 . S
C268 C266 1.327 . S
C268 C287 1.429 . S
C268 H292 0.950 . S
C269 C286 1.574 . S
C269 C288 1.368 . S
C269 H293 0.949 . S
H270 C274 0.949 . S
C271 C272 1.349 . S
C271 C273 1.327 . S
C271 H294 0.950 . S
C272 C271 1.349 . S
C272 C284 1.349 . S
C273 C271 1.327 . S
C273 C289 1.429 . S
C273 H295 0.950 . S
C274 H270 0.949 . S
C274 C282 1.574 . S
C274 C290 1.368 . S
H275 C283 0.950 . S
H276 C281 0.950 . S
H277 C282 0.949 . S
H278 C284 0.950 . S
H279 C285 0.950 . S
H280 C286 0.949 . S
C281 H276 0.950 . S
C281 C283 1.327 . S
C281 C287 1.429 . S
C282 C274 1.574 . S
C282 H277 0.949 . S
C282 C288 1.368 . S
C283 C267 1.349 . S
C283 H275 0.950 . S
C283 C281 1.327 . S
C284 C272 1.349 . S
C284 H278 0.950 . S
C284 C285 1.327 . S
C285 H279 0.950 . S
C285 C284 1.327 . S
C285 C289 1.429 . S
C286 C269 1.574 . S
C286 H280 0.949 . S
C286 C290 1.368 . S
C287 C268 1.429 . S
C287 C281 1.429 . S
C287 C288 1.523 . S
C288 C269 1.368 . S
C288 C282 1.368 . S
C288 C287 1.523 . S
C289 C273 1.429 . S
C289 C285 1.429 . S
C289 C290 1.523 . S
C290 C274 1.368 . S
C290 C286 1.368 . S
C290 C289 1.523 . S
H291 C266 0.950 . S
H292 C268 0.950 . S
H293 C269 0.949 . S
H294 C271 0.950 . S
H295 C273 0.950 . S
C296 C297 1.349 . S
C296 C298 1.327 . S
C296 H321 0.950 . S
C297 C296 1.349 . S
C297 C313 1.349 . S
C298 C296 1.327 . S
C298 C317 1.429 . S
C298 H322 0.950 . S
C299 C316 1.574 . S
C299 C318 1.368 . S
C299 H323 0.949 . S
H300 C304 0.949 . S
C301 C302 1.349 . S
C301 C303 1.327 . S
C301 H324 0.950 . S
C302 C301 1.349 . S
C302 C314 1.349 1_655 S
C303 C301 1.327 . S
C303 C319 1.429 . S
C303 H325 0.950 . S
C304 H300 0.949 . S
C304 C312 1.574 . S
C304 C320 1.368 . S
H305 C313 0.950 . S
H306 C311 0.950 . S
H307 C312 0.949 . S
H308 C314 0.950 . S
H309 C315 0.950 . S
H310 C316 0.949 . S
C311 H306 0.950 . S
C311 C313 1.327 . S
C311 C317 1.429 . S
C312 C304 1.574 . S
C312 H307 0.949 . S
C312 C318 1.368 . S
C313 C297 1.349 . S
C313 H305 0.950 . S
C313 C311 1.327 . S
C314 C302 1.349 1_455 S
C314 H308 0.950 . S
C314 C315 1.327 1_455 S
C315 H309 0.950 . S
C315 C314 1.327 1_655 S
C315 C319 1.429 . S
C316 C299 1.574 . S
C316 H310 0.949 . S
C316 C320 1.368 . S
C317 C298 1.429 . S
C317 C311 1.429 . S
C317 C318 1.523 . S
C318 C299 1.368 . S
C318 C312 1.368 . S
C318 C317 1.523 . S
C319 C303 1.429 . S
C319 C315 1.429 . S
C319 C320 1.523 . S
C320 C304 1.368 . S
C320 C316 1.368 . S
C320 C319 1.523 . S
H321 C296 0.950 . S
H322 C298 0.950 . S
H323 C299 0.949 . S
H324 C301 0.950 . S
H325 C303 0.950 . S
C326 C327 1.349 . S
C326 C328 1.327 . S
C326 H351 0.950 . S
C327 C326 1.349 . S
C327 C343 1.349 . S
C328 C326 1.327 . S
C328 C347 1.429 . S
C328 H352 0.950 . S
C329 C346 1.574 . S
C329 C348 1.368 1_455 S
C329 H353 0.949 . S
H330 C334 0.949 . S
C331 C332 1.349 . S
C331 C333 1.327 . S
C331 H354 0.950 . S
C332 C331 1.349 . S
C332 C344 1.349 . S
C333 C331 1.327 . S
C333 C349 1.429 . S
C333 H355 0.950 . S
C334 H330 0.949 . S
C334 C342 1.574 1_455 S
C334 C350 1.368 . S
H335 C343 0.950 1_554 S
H336 C341 0.950 . S
H337 C342 0.949 . S
H338 C344 0.950 . S
H339 C345 0.950 . S
H340 C346 0.949 . S
C341 H336 0.950 . S
C341 C343 1.327 . S
C341 C347 1.429 . S
C342 C334 1.574 1_655 S
C342 H337 0.949 . S
C342 C348 1.368 . S
C343 C327 1.349 . S
C343 H335 0.950 1_556 S
C343 C341 1.327 . S
C344 C332 1.349 . S
C344 H338 0.950 . S
C344 C345 1.327 . S
C345 H339 0.950 . S
C345 C344 1.327 . S
C345 C349 1.429 . S
C346 C329 1.574 . S
C346 H340 0.949 . S
C346 C350 1.368 . S
C347 C328 1.429 . S
C347 C341 1.429 . S
C347 C348 1.523 . S
C348 C329 1.368 1_655 S
C348 C342 1.368 . S
C348 C347 1.523 . S
C349 C333 1.429 . S
C349 C345 1.429 . S
C349 C350 1.523 . S
C350 C334 1.368 . S
C350 C346 1.368 . S
C350 C349 1.523 . S
H351 C326 0.950 . S
H352 C328 0.950 . S
H353 C329 0.949 . S
H354 C331 0.950 . S
H355 C333 0.950 . S
C356 C357 1.349 . S
C356 C358 1.327 . S
C356 H381 0.950 . S
C357 C356 1.349 . S
C357 C373 1.349 . S
C358 C356 1.327 . S
C358 C377 1.429 . S
C358 H382 0.950 . S
C359 C376 1.574 . S
C359 C378 1.368 . S
C359 H383 0.949 . S
H360 C364 0.949 . S
C361 C362 1.349 . S
C361 C363 1.327 . S
C361 H384 0.950 . S
C362 C361 1.349 . S
C362 C374 1.349 . S
C363 C361 1.327 . S
C363 C379 1.429 . S
C363 H385 0.950 . S
C364 H360 0.949 . S
C364 C372 1.574 . S
C364 C380 1.368 . S
H365 C373 0.950 . S
H366 C371 0.950 . S
H367 C372 0.949 . S
H368 C374 0.950 . S
H369 C375 0.950 . S
H370 C376 0.949 . S
C371 H366 0.950 . S
C371 C373 1.327 . S
C371 C377 1.429 . S
C372 C364 1.574 . S
C372 H367 0.949 . S
C372 C378 1.368 . S
C373 C357 1.349 . S
C373 H365 0.950 . S
C373 C371 1.327 . S
C374 C362 1.349 . S
C374 H368 0.950 . S
C374 C375 1.327 . S
C375 H369 0.950 . S
C375 C374 1.327 . S
C375 C379 1.429 . S
C376 C359 1.574 . S
C376 H370 0.949 . S
C376 C380 1.368 . S
C377 C358 1.429 . S
C377 C371 1.429 . S
C377 C378 1.523 . S
C378 C359 1.368 . S
C378 C372 1.368 . S
C378 C377 1.523 . S
C379 C363 1.429 . S
C379 C375 1.429 . S
C379 C380 1.523 . S
C380 C364 1.368 . S
C380 C376 1.368 . S
C380 C379 1.523 . S
H381 C356 0.950 . S
H382 C358 0.950 . S
H383 C359 0.949 . S
H384 C361 0.950 . S
H385 C363 0.950 . S
C386 C387 1.349 . S
C386 C388 1.327 . S
C386 H411 0.950 . S
C387 C386 1.349 . S
C387 C403 1.349 . S
C388 C386 1.327 . S
C388 C407 1.429 . S
C388 H412 0.950 . S
C389 C406 1.574 . S
C389 C408 1.368 . S
C389 H413 0.949 . S
H390 C394 0.949 . S
C391 C392 1.349 . S
C391 C393 1.327 . S
C391 H414 0.950 . S
C392 C391 1.349 . S
C392 C404 1.349 . S
C393 C391 1.327 . S
C393 C409 1.429 . S
C393 H415 0.950 . S
C394 H390 0.949 . S
C394 C402 1.574 . S
C394 C410 1.368 . S
H395 C403 0.950 . S
H396 C401 0.950 . S
H397 C402 0.949 . S
H398 C404 0.950 . S
H399 C405 0.950 . S
H400 C406 0.949 . S
C401 H396 0.950 . S
C401 C403 1.327 . S
C401 C407 1.429 . S
C402 C394 1.574 . S
C402 H397 0.949 . S
C402 C408 1.368 . S
C403 C387 1.349 . S
C403 H395 0.950 . S
C403 C401 1.327 . S
C404 C392 1.349 . S
C404 H398 0.950 . S
C404 C405 1.327 . S
C405 H399 0.950 . S
C405 C404 1.327 . S
C405 C409 1.429 . S
C406 C389 1.574 . S
C406 H400 0.949 . S
C406 C410 1.368 . S
C407 C388 1.429 . S
C407 C401 1.429 . S
C407 C408 1.523 . S
C408 C389 1.368 . S
C408 C402 1.368 . S
C408 C407 1.523 . S
C409 C393 1.429 . S
C409 C405 1.429 . S
C409 C410 1.523 . S
C410 C394 1.368 . S
C410 C406 1.368 . S
C410 C409 1.523 . S
H411 C386 0.950 . S
H412 C388 0.950 . S
H413 C389 0.949 . S
H414 C391 0.950 . S
H415 C393 0.950 . S
C416 C417 1.349 . S
C416 C418 1.327 . S
C416 H441 0.950 . S
C417 C416 1.349 . S
C417 C433 1.349 . S
C418 C416 1.327 . S
C418 C437 1.429 . S
C418 H442 0.950 . S
C419 C436 1.574 1_565 S
C419 C438 1.368 . S
C419 H443 0.949 . S
H420 C424 0.949 . S
C421 C422 1.349 . S
C421 C423 1.327 . S
C421 H444 0.950 1_655 S
C422 C421 1.349 . S
C422 C434 1.349 . S
C423 C421 1.327 . S
C423 C439 1.429 . S
C423 H445 0.950 . S
C424 H420 0.949 . S
C424 C432 1.574 . S
C424 C440 1.368 . S
H425 C433 0.950 . S
H426 C431 0.950 . S
H427 C432 0.949 . S
H428 C434 0.950 . S
H429 C435 0.950 . S
H430 C436 0.949 . S
C431 H426 0.950 . S
C431 C433 1.327 . S
C431 C437 1.429 . S
C432 C424 1.574 . S
C432 H427 0.949 . S
C432 C438 1.368 1_545 S
C433 C417 1.349 . S
C433 H425 0.950 . S
C433 C431 1.327 . S
C434 C422 1.349 . S
C434 H428 0.950 . S
C434 C435 1.327 . S
C435 H429 0.950 . S
C435 C434 1.327 . S
C435 C439 1.429 . S
C436 C419 1.574 1_545 S
C436 H430 0.949 . S
C436 C440 1.368 . S
C437 C418 1.429 . S
C437 C431 1.429 . S
C437 C438 1.523 . S
C438 C419 1.368 . S
C438 C432 1.368 1_565 S
C438 C437 1.523 . S
C439 C423 1.429 . S
C439 C435 1.429 . S
C439 C440 1.523 . S
C440 C424 1.368 . S
C440 C436 1.368 . S
C440 C439 1.523 . S
H441 C416 0.950 . S
H442 C418 0.950 . S
H443 C419 0.949 . S
H444 C421 0.950 1_455 S
H445 C423 0.950 . S
C446 C447 1.349 . S
C446 C448 1.327 . S
C446 H471 0.950 . S
C447 C446 1.349 . S
C447 C463 1.349 . S
C448 C446 1.327 . S
C448 C467 1.429 . S
C448 H472 0.950 . S
C449 C466 1.574 . S
C449 C468 1.368 . S
C449 H473 0.949 . S
H450 C454 0.949 . S
C451 C452 1.349 . S
C451 C453 1.327 . S
C451 H474 0.950 . S
C452 C451 1.349 . S
C452 C464 1.349 . S
C453 C451 1.327 . S
C453 C469 1.429 . S
C453 H475 0.950 . S
C454 H450 0.949 . S
C454 C462 1.574 . S
C454 C470 1.368 . S
H455 C463 0.950 . S
H456 C461 0.950 . S
H457 C462 0.949 . S
H458 C464 0.950 . S
H459 C465 0.950 . S
H460 C466 0.949 . S
C461 H456 0.950 . S
C461 C463 1.327 . S
C461 C467 1.429 . S
C462 C454 1.574 . S
C462 H457 0.949 . S
C462 C468 1.368 . S
C463 C447 1.349 . S
C463 H455 0.950 . S
C463 C461 1.327 . S
C464 C452 1.349 . S
C464 H458 0.950 . S
C464 C465 1.327 . S
C465 H459 0.950 . S
C465 C464 1.327 . S
C465 C469 1.429 . S
C466 C449 1.574 . S
C466 H460 0.949 . S
C466 C470 1.368 . S
C467 C448 1.429 . S
C467 C461 1.429 . S
C467 C468 1.523 . S
C468 C449 1.368 . S
C468 C462 1.368 . S
C468 C467 1.523 . S
C469 C453 1.429 . S
C469 C465 1.429 . S
C469 C470 1.523 . S
C470 C454 1.368 . S
C470 C466 1.368 . S
C470 C469 1.523 . S
H471 C446 0.950 . S
H472 C448 0.950 . S
H473 C449 0.949 . S
H474 C451 0.950 . S
H475 C453 0.950 . S
C476 C477 1.349 . S
C476 C478 1.327 . S
C476 H501 0.950 . S
C477 C476 1.349 . S
C477 C493 1.349 . S
C478 C476 1.327 . S
C478 C497 1.429 . S
C478 H502 0.950 . S
C479 C496 1.574 . S
C479 C498 1.368 . S
C479 H503 0.949 . S
H480 C484 0.949 . S
C481 C482 1.349 . S
C481 C483 1.327 . S
C481 H504 0.950 . S
C482 C481 1.349 . S
C482 C494 1.349 . S
C483 C481 1.327 . S
C483 C499 1.429 . S
C483 H505 0.950 . S
C484 H480 0.949 . S
C484 C492 1.574 . S
C484 C500 1.368 . S
H485 C493 0.950 . S
H486 C491 0.950 . S
H487 C492 0.949 . S
H488 C494 0.950 . S
H489 C495 0.950 . S
H490 C496 0.949 . S
C491 H486 0.950 . S
C491 C493 1.327 . S
C491 C497 1.429 . S
C492 C484 1.574 . S
C492 H487 0.949 . S
C492 C498 1.368 . S
C493 C477 1.349 . S
C493 H485 0.950 . S
C493 C491 1.327 . S
C494 C482 1.349 . S
C494 H488 0.950 . S
C494 C495 1.327 . S
C495 H489 0.950 . S
C495 C494 1.327 . S
C495 C499 1.429 . S
C496 C479 1.574 . S
C496 H490 0.949 . S
C496 C500 1.368 . S
C497 C478 1.429 . S
C497 C491 1.429 . S
C497 C498 1.523 . S
C498 C479 1.368 . S
C498 C492 1.368 . S
C498 C497 1.523 . S
C499 C483 1.429 . S
C499 C495 1.429 . S
C499 C500 1.523 . S
C500 C484 1.368 . S
C500 C496 1.368 . S
C500 C499 1.523 . S
H501 C476 0.950 . S
H502 C478 0.950 . S
H503 C479 0.949 . S
H504 C481 0.950 . S
H505 C483 0.950 . S
C506 C507 1.349 . S
C506 C508 1.327 . S
C506 H531 0.950 . S
C507 C506 1.349 . S
C507 C523 1.349 . S
C508 C506 1.327 . S
C508 C527 1.429 . S
C508 H532 0.950 . S
C509 C526 1.574 . S
C509 C528 1.368 . S
C509 H533 0.949 . S
H510 C514 0.949 . S
C511 C512 1.349 . S
C511 C513 1.327 . S
C511 H534 0.950 . S
C512 C511 1.349 . S
C512 C524 1.349 . S
C513 C511 1.327 . S
C513 C529 1.429 . S
C513 H535 0.950 . S
C514 H510 0.949 . S
C514 C522 1.574 . S
C514 C530 1.368 . S
H515 C523 0.950 . S
H516 C521 0.950 . S
H517 C522 0.949 . S
H518 C524 0.950 . S
H519 C525 0.950 . S
H520 C526 0.949 . S
C521 H516 0.950 . S
C521 C523 1.327 . S
C521 C527 1.429 . S
C522 C514 1.574 . S
C522 H517 0.949 . S
C522 C528 1.368 . S
C523 C507 1.349 . S
C523 H515 0.950 . S
C523 C521 1.327 . S
C524 C512 1.349 . S
C524 H518 0.950 . S
C524 C525 1.327 . S
C525 H519 0.950 . S
C525 C524 1.327 . S
C525 C529 1.429 . S
C526 C509 1.574 . S
C526 H520 0.949 . S
C526 C530 1.368 . S
C527 C508 1.429 . S
C527 C521 1.429 . S
C527 C528 1.523 . S
C528 C509 1.368 . S
C528 C522 1.368 . S
C528 C527 1.523 . S
C529 C513 1.429 . S
C529 C525 1.429 . S
C529 C530 1.523 . S
C530 C514 1.368 . S
C530 C526 1.368 . S
C530 C529 1.523 . S
H531 C506 0.950 . S
H532 C508 0.950 . S
H533 C509 0.949 . S
H534 C511 0.950 . S
H535 C513 0.950 . S
C536 C537 1.349 . S
C536 C538 1.327 . S
C536 H561 0.950 . S
C537 C536 1.349 . S
C537 C553 1.349 . S
C538 C536 1.327 . S
C538 C557 1.429 . S
C538 H562 0.950 . S
C539 C556 1.574 . S
C539 C558 1.368 . S
C539 H563 0.949 . S
H540 C544 0.949 . S
C541 C542 1.349 . S
C541 C543 1.327 . S
C541 H564 0.950 1_655 S
C542 C541 1.349 . S
C542 C554 1.349 . S
C543 C541 1.327 . S
C543 C559 1.429 . S
C543 H565 0.950 . S
C544 H540 0.949 . S
C544 C552 1.574 . S
C544 C560 1.368 . S
H545 C553 0.950 . S
H546 C551 0.950 . S
H547 C552 0.949 . S
H548 C554 0.950 . S
H549 C555 0.950 . S
H550 C556 0.949 . S
C551 H546 0.950 . S
C551 C553 1.327 . S
C551 C557 1.429 . S
C552 C544 1.574 . S
C552 H547 0.949 . S
C552 C558 1.368 . S
C553 C537 1.349 . S
C553 H545 0.950 . S
C553 C551 1.327 . S
C554 C542 1.349 . S
C554 H548 0.950 . S
C554 C555 1.327 . S
C555 H549 0.950 . S
C555 C554 1.327 . S
C555 C559 1.429 . S
C556 C539 1.574 . S
C556 H550 0.949 . S
C556 C560 1.368 . S
C557 C538 1.429 . S
C557 C551 1.429 . S
C557 C558 1.523 . S
C558 C539 1.368 . S
C558 C552 1.368 . S
C558 C557 1.523 . S
C559 C543 1.429 . S
C559 C555 1.429 . S
C559 C560 1.523 . S
C560 C544 1.368 . S
C560 C556 1.368 . S
C560 C559 1.523 . S
H561 C536 0.950 . S
H562 C538 0.950 . S
H563 C539 0.949 . S
H564 C541 0.950 1_455 S
H565 C543 0.950 . S
C566 C567 1.349 . S
C566 C568 1.327 . S
C566 H591 0.950 . S
C567 C566 1.349 . S
C567 C583 1.349 . S
C568 C566 1.327 . S
C568 C587 1.429 . S
C568 H592 0.950 . S
C569 C586 1.574 . S
C569 C588 1.368 . S
C569 H593 0.949 . S
H570 C574 0.949 . S
C571 C572 1.349 . S
C571 C573 1.327 . S
C571 H594 0.950 . S
C572 C571 1.349 . S
C572 C584 1.349 . S
C573 C571 1.327 . S
C573 C589 1.429 . S
C573 H595 0.950 . S
C574 H570 0.949 . S
C574 C582 1.574 . S
C574 C590 1.368 . S
H575 C583 0.950 . S
H576 C581 0.950 . S
H577 C582 0.949 . S
H578 C584 0.950 . S
H579 C585 0.950 . S
H580 C586 0.949 . S
C581 H576 0.950 . S
C581 C583 1.327 . S
C581 C587 1.429 . S
C582 C574 1.574 . S
C582 H577 0.949 . S
C582 C588 1.368 . S
C583 C567 1.349 . S
C583 H575 0.950 . S
C583 C581 1.327 . S
C584 C572 1.349 . S
C584 H578 0.950 . S
C584 C585 1.327 . S
C585 H579 0.950 . S
C585 C584 1.327 . S
C585 C589 1.429 . S
C586 C569 1.574 . S
C586 H580 0.949 . S
C586 C590 1.368 . S
C587 C568 1.429 . S
C587 C581 1.429 . S
C587 C588 1.523 . S
C588 C569 1.368 . S
C588 C582 1.368 . S
C588 C587 1.523 . S
C589 C573 1.429 . S
C589 C585 1.429 . S
C589 C590 1.523 . S
C590 C574 1.368 . S
C590 C586 1.368 . S
C590 C589 1.523 . S
H591 C566 0.950 . S
H592 C568 0.950 . S
H593 C569 0.949 . S
H594 C571 0.950 . S
H595 C573 0.950 . S
C596 C597 1.349 . S
C596 C598 1.327 1_655 S
C596 H621 0.950 . S
C597 C596 1.349 . S
C597 C613 1.349 1_655 S
C598 C596 1.327 1_455 S
C598 C617 1.429 . S
C598 H622 0.950 . S
C599 C616 1.574 . S
C599 C618 1.368 . S
C599 H623 0.949 . S
H600 C604 0.949 . S
C601 C602 1.349 . S
C601 C603 1.327 . S
C601 H624 0.950 . S
C602 C601 1.349 . S
C602 C614 1.349 . S
C603 C601 1.327 . S
C603 C619 1.429 . S
C603 H625 0.950 . S
C604 H600 0.949 . S
C604 C612 1.574 . S
C604 C620 1.368 . S
H605 C613 0.950 . S
H606 C611 0.950 . S
H607 C612 0.949 . S
H608 C614 0.950 . S
H609 C615 0.950 . S
H610 C616 0.949 . S
C611 H606 0.950 . S
C611 C613 1.327 . S
C611 C617 1.429 . S
C612 C604 1.574 . S
C612 H607 0.949 . S
C612 C618 1.368 . S
C613 C597 1.349 1_455 S
C613 H605 0.950 . S
C613 C611 1.327 . S
C614 C602 1.349 . S
C614 H608 0.950 . S
C614 C615 1.327 . S
C615 H609 0.950 . S
C615 C614 1.327 . S
C615 C619 1.429 . S
C616 C599 1.574 . S
C616 H610 0.949 . S
C616 C620 1.368 . S
C617 C598 1.429 . S
C617 C611 1.429 . S
C617 C618 1.523 . S
C618 C599 1.368 . S
C618 C612 1.368 . S
C618 C617 1.523 . S
C619 C603 1.429 . S
C619 C615 1.429 . S
C619 C620 1.523 . S
C620 C604 1.368 . S
C620 C616 1.368 . S
C620 C619 1.523 . S
H621 C596 0.950 . S
H622 C598 0.950 . S
H623 C599 0.949 . S
H624 C601 0.950 . S
H625 C603 0.950 . S
C626 C627 1.349 . S
C626 C628 1.327 . S
C626 H651 0.950 . S
C627 C626 1.349 . S
C627 C643 1.349 . S
C628 C626 1.327 . S
C628 C647 1.429 . S
C628 H652 0.950 . S
C629 C646 1.574 . S
C629 C648 1.368 . S
C629 H653 0.949 . S
H630 C634 0.949 . S
C631 C632 1.349 . S
C631 C633 1.327 . S
C631 H654 0.933 1_655 S
C632 C631 1.349 . S
C632 C644 1.349 . S
C633 C631 1.327 . S
C633 C649 1.429 . S
C633 H655 0.950 . S
C634 H630 0.949 . S
C634 C642 1.574 . S
C634 C650 1.368 . S
H635 C643 0.950 . S
H636 C641 0.950 . S
H637 C642 0.949 . S
H638 C644 0.950 . S
H639 C645 0.950 . S
H640 C646 0.949 . S
C641 H636 0.950 . S
C641 C643 1.327 . S
C641 C647 1.429 . S
C642 C634 1.574 . S
C642 H637 0.949 . S
C642 C648 1.368 . S
C643 C627 1.349 . S
C643 H635 0.950 . S
C643 C641 1.327 . S
C644 C632 1.349 . S
C644 H638 0.950 . S
C644 C645 1.327 . S
C645 H639 0.950 . S
C645 C644 1.327 . S
C645 C649 1.429 . S
C646 C629 1.574 . S
C646 H640 0.949 . S
C646 C650 1.368 . S
C647 C628 1.429 . S
C647 C641 1.429 . S
C647 C648 1.523 . S
C648 C629 1.368 . S
C648 C642 1.368 . S
C648 C647 1.523 . S
C649 C633 1.429 . S
C649 C645 1.429 . S
C649 C650 1.523 . S
C650 C634 1.368 . S
C650 C646 1.368 . S
C650 C649 1.523 . S
H651 C626 0.950 . S
H652 C628 0.950 . S
H653 C629 0.949 . S
H654 C631 0.933 1_455 S
H655 C633 0.950 . S
C656 C657 1.349 . S
C656 C658 1.327 . S
C656 H681 0.950 . S
C657 C656 1.349 . S
C657 C673 1.349 . S
C658 C656 1.327 . S
C658 C677 1.429 . S
C658 H682 0.950 . S
C659 C676 1.574 . S
C659 C678 1.368 . S
C659 H683 0.949 . S
H660 C664 0.949 . S
C661 C662 1.349 . S
C661 C663 1.327 . S
C661 H684 0.950 . S
C662 C661 1.349 . S
C662 C674 1.349 . S
C663 C661 1.327 . S
C663 C679 1.429 . S
C663 H685 0.950 . S
C664 H660 0.949 . S
C664 C672 1.574 . S
C664 C680 1.368 . S
H665 C673 0.950 . S
H666 C671 0.950 . S
H667 C672 0.949 . S
H668 C674 0.950 . S
H669 C675 0.950 . S
H670 C676 0.949 . S
C671 H666 0.950 . S
C671 C673 1.327 . S
C671 C677 1.429 . S
C672 C664 1.574 . S
C672 H667 0.949 . S
C672 C678 1.368 . S
C673 C657 1.349 . S
C673 H665 0.950 . S
C673 C671 1.327 . S
C674 C662 1.349 . S
C674 H668 0.950 . S
C674 C675 1.327 . S
C675 H669 0.950 . S
C675 C674 1.327 . S
C675 C679 1.429 . S
C676 C659 1.574 . S
C676 H670 0.949 . S
C676 C680 1.368 . S
C677 C658 1.429 . S
C677 C671 1.429 . S
C677 C678 1.523 . S
C678 C659 1.368 . S
C678 C672 1.368 . S
C678 C677 1.523 . S
C679 C663 1.429 . S
C679 C675 1.429 . S
C679 C680 1.523 . S
C680 C664 1.368 . S
C680 C676 1.368 . S
C680 C679 1.523 . S
H681 C656 0.950 . S
H682 C658 0.950 . S
H683 C659 0.949 . S
H684 C661 0.950 . S
H685 C663 0.950 . S
C686 C687 1.349 . S
C686 C688 1.327 . S
C686 H711 0.950 . S
C687 C686 1.349 . S
C687 C703 1.349 . S
C688 C686 1.327 . S
C688 C707 1.429 . S
C688 H712 0.950 . S
C689 C706 1.574 . S
C689 C708 1.368 . S
C689 H713 0.949 . S
H690 C694 0.949 . S
C691 C692 1.349 . S
C691 C693 1.327 . S
C691 H714 0.950 . S
C692 C691 1.349 . S
C692 C704 1.349 . S
C693 C691 1.327 . S
C693 C709 1.429 . S
C693 H715 0.950 . S
C694 H690 0.949 . S
C694 C702 1.574 . S
C694 C710 1.368 . S
H695 C703 0.950 . S
H696 C701 0.950 . S
H697 C702 0.949 . S
H698 C704 0.950 . S
H699 C705 0.950 . S
H700 C706 0.949 . S
C701 H696 0.950 . S
C701 C703 1.327 . S
C701 C707 1.429 . S
C702 C694 1.574 . S
C702 H697 0.949 . S
C702 C708 1.368 . S
C703 C687 1.349 . S
C703 H695 0.950 . S
C703 C701 1.327 . S
C704 C692 1.349 . S
C704 H698 0.950 . S
C704 C705 1.327 . S
C705 H699 0.950 . S
C705 C704 1.327 . S
C705 C709 1.429 . S
C706 C689 1.574 . S
C706 H700 0.949 . S
C706 C710 1.368 . S
C707 C688 1.429 . S
C707 C701 1.429 . S
C707 C708 1.523 . S
C708 C689 1.368 . S
C708 C702 1.368 . S
C708 C707 1.523 . S
C709 C693 1.429 . S
C709 C705 1.429 . S
C709 C710 1.523 . S
C710 C694 1.368 . S
C710 C706 1.368 . S
C710 C709 1.523 . S
H711 C686 0.950 . S
H712 C688 0.950 . S
H713 C689 0.949 . S
H714 C691 0.950 . S
H715 C693 0.950 . S
C716 C717 1.349 . S
C716 C718 1.327 . S
C716 H741 0.950 . S
C717 C716 1.349 . S
C717 C733 1.349 1_655 S
C718 C716 1.327 . S
C718 C737 1.429 . S
C718 H742 0.950 . S
C719 C736 1.574 1_565 S
C719 C738 1.368 1_455 S
C719 H743 0.949 . S
H720 C724 0.949 . S
C721 C722 1.349 1_455 S
C721 C723 1.327 . S
C721 H744 0.950 . S
C722 C721 1.349 1_655 S
C722 C734 1.349 . S
C723 C721 1.327 . S
C723 C739 1.429 1_455 S
C723 H745 0.950 . S
C724 H720 0.949 . S
C724 C732 1.574 1_545 S
C724 C740 1.368 . S
H725 C733 0.950 . S
H726 C731 0.950 . S
H727 C732 0.949 . S
H728 C734 0.950 . S
H729 C735 0.950 . S
H730 C736 0.949 . S
C731 H726 0.950 . S
C731 C733 1.327 . S
C731 C737 1.429 1_455 S
C732 C724 1.574 1_565 S
C732 H727 0.949 . S
C732 C738 1.368 . S
C733 C717 1.349 1_455 S
C733 H725 0.950 . S
C733 C731 1.327 . S
C734 C722 1.349 . S
C734 H728 0.950 . S
C734 C735 1.327 . S
C735 H729 0.950 . S
C735 C734 1.327 . S
C735 C739 1.429 . S
C736 C719 1.574 1_545 S
C736 H730 0.949 . S
C736 C740 1.368 1_455 S
C737 C718 1.429 . S
C737 C731 1.429 1_655 S
C737 C738 1.523 . S
C738 C719 1.368 1_655 S
C738 C732 1.368 . S
C738 C737 1.523 . S
C739 C723 1.429 1_655 S
C739 C735 1.429 . S
C739 C740 1.523 . S
C740 C724 1.368 . S
C740 C736 1.368 1_655 S
C740 C739 1.523 . S
H741 C716 0.950 . S
H742 C718 0.950 . S
H743 C719 0.949 . S
H744 C721 0.950 . S
H745 C723 0.950 . S
C746 C747 1.349 . S
C746 C748 1.327 . S
C746 H771 0.950 . S
C747 C746 1.349 . S
C747 C763 1.349 . S
C748 C746 1.327 . S
C748 C767 1.429 . S
C748 H772 0.950 . S
C749 C766 1.574 . S
C749 C768 1.368 . S
C749 H773 0.949 . S
H750 C754 0.949 . S
C751 C752 1.349 . S
C751 C753 1.327 . S
C751 H774 0.950 . S
C752 C751 1.349 . S
C752 C764 1.349 . S
C753 C751 1.327 . S
C753 C769 1.429 . S
C753 H775 0.950 . S
C754 H750 0.949 . S
C754 C762 1.574 . S
C754 C770 1.368 . S
H755 C763 0.950 . S
H756 C761 0.950 . S
H757 C762 0.949 . S
H758 C764 0.950 . S
H759 C765 0.950 . S
H760 C766 0.949 . S
C761 H756 0.950 . S
C761 C763 1.327 . S
C761 C767 1.429 . S
C762 C754 1.574 . S
C762 H757 0.949 . S
C762 C768 1.368 . S
C763 C747 1.349 . S
C763 H755 0.950 . S
C763 C761 1.327 . S
C764 C752 1.349 . S
C764 H758 0.950 . S
C764 C765 1.327 . S
C765 H759 0.950 . S
C765 C764 1.327 . S
C765 C769 1.429 . S
C766 C749 1.574 . S
C766 H760 0.949 . S
C766 C770 1.368 . S
C767 C748 1.429 . S
C767 C761 1.429 . S
C767 C768 1.523 . S
C768 C749 1.368 . S
C768 C762 1.368 . S
C768 C767 1.523 . S
C769 C753 1.429 . S
C769 C765 1.429 . S
C769 C770 1.523 . S
C770 C754 1.368 . S
C770 C766 1.368 . S
C770 C769 1.523 . S
H771 C746 0.950 . S
H772 C748 0.950 . S
H773 C749 0.949 . S
H774 C751 0.950 . S
H775 C753 0.950 . S
C776 C777 1.349 . S
C776 C778 1.327 . S
C776 H801 0.950 . S
C777 C776 1.349 . S
C777 C793 1.349 . S
C778 C776 1.327 . S
C778 C797 1.429 . S
C778 H802 0.950 . S
C779 C796 1.574 . S
C779 C798 1.368 . S
C779 H803 0.949 . S
H780 C784 0.949 . S
C781 C782 1.349 . S
C781 C783 1.327 . S
C781 H804 0.950 . S
C782 C781 1.349 . S
C782 C794 1.349 . S
C783 C781 1.327 . S
C783 C799 1.429 . S
C783 H805 0.950 . S
C784 H780 0.949 . S
C784 C792 1.574 . S
C784 C800 1.368 . S
H785 C793 0.950 . S
H786 C791 0.950 . S
H787 C792 0.949 . S
H788 C794 0.950 . S
H789 C795 0.950 . S
H790 C796 0.949 . S
C791 H786 0.950 . S
C791 C793 1.327 . S
C791 C797 1.429 . S
C792 C784 1.574 . S
C792 H787 0.949 . S
C792 C798 1.368 . S
C793 C777 1.349 . S
C793 H785 0.950 . S
C793 C791 1.327 . S
C794 C782 1.349 . S
C794 H788 0.950 . S
C794 C795 1.327 . S
C795 H789 0.950 . S
C795 C794 1.327 . S
C795 C799 1.429 . S
C796 C779 1.574 . S
C796 H790 0.949 . S
C796 C800 1.368 . S
C797 C778 1.429 . S
C797 C791 1.429 . S
C797 C798 1.523 . S
C798 C779 1.368 . S
C798 C792 1.368 . S
C798 C797 1.523 . S
C799 C783 1.429 . S
C799 C795 1.429 . S
C799 C800 1.523 . S
C800 C784 1.368 . S
C800 C796 1.368 . S
C800 C799 1.523 . S
H801 C776 0.950 . S
H802 C778 0.950 . S
H803 C779 0.949 . S
H804 C781 0.950 . S
H805 C783 0.950 . S
C806 C807 1.349 . S
C806 C808 1.327 . S
C806 H831 0.950 . S
C807 C806 1.349 . S
C807 C823 1.349 . S
C808 C806 1.327 . S
C808 C827 1.429 . S
C808 H832 0.950 . S
C809 C826 1.574 . S
C809 C828 1.368 . S
C809 H833 0.949 . S
H810 C814 0.949 . S
C811 C812 1.349 . S
C811 C813 1.327 . S
C811 H834 0.950 . S
C812 C811 1.349 . S
C812 C824 1.349 . S
C813 C811 1.327 . S
C813 C829 1.429 . S
C813 H835 0.950 . S
C814 H810 0.949 . S
C814 C822 1.574 . S
C814 C830 1.368 . S
H815 C823 0.950 . S
H816 C821 0.950 . S
H817 C822 0.949 . S
H818 C824 0.950 1_556 S
H819 C825 0.950 . S
H820 C826 0.949 . S
C821 H816 0.950 . S
C821 C823 1.327 . S
C821 C827 1.429 . S
C822 C814 1.574 . S
C822 H817 0.949 . S
C822 C828 1.368 . S
C823 C807 1.349 . S
C823 H815 0.950 . S
C823 C821 1.327 . S
C824 C812 1.349 . S
C824 H818 0.950 1_554 S
C824 C825 1.327 . S
C825 H819 0.950 . S
C825 C824 1.327 . S
C825 C829 1.429 . S
C826 C809 1.574 . S
C826 H820 0.949 . S
C826 C830 1.368 . S
C827 C808 1.429 . S
C827 C821 1.429 . S
C827 C828 1.523 . S
C828 C809 1.368 . S
C828 C822 1.368 . S
C828 C827 1.523 . S
C829 C813 1.429 . S
C829 C825 1.429 . S
C829 C830 1.523 . S
C830 C814 1.368 . S
C830 C826 1.368 . S
C830 C829 1.523 . S
H831 C806 0.950 . S
H832 C808 0.950 . S
H833 C809 0.949 . S
H834 C811 0.950 . S
H835 C813 0.950 . S
C836 C837 1.349 . S
C836 C838 1.327 . S
C836 H861 0.950 . S
C837 C836 1.349 . S
C837 C853 1.349 . S
C838 C836 1.327 . S
C838 C857 1.429 . S
C838 H862 0.950 . S
C839 C856 1.574 . S
C839 C858 1.368 . S
C839 H863 0.949 . S
H840 C844 0.949 . S
C841 C842 1.349 . S
C841 C843 1.327 . S
C841 H864 0.950 . S
C842 C841 1.349 . S
C842 C854 1.349 . S
C843 C841 1.327 . S
C843 C859 1.429 . S
C843 H865 0.950 . S
C844 H840 0.949 . S
C844 C852 1.574 . S
C844 C860 1.368 . S
H845 C853 0.950 . S
H846 C851 0.950 . S
H847 C852 0.949 . S
H848 C854 0.950 . S
H849 C855 0.950 . S
H850 C856 0.949 . S
C851 H846 0.950 . S
C851 C853 1.327 . S
C851 C857 1.429 . S
C852 C844 1.574 . S
C852 H847 0.949 . S
C852 C858 1.368 . S
C853 C837 1.349 . S
C853 H845 0.950 . S
C853 C851 1.327 . S
C854 C842 1.349 . S
C854 H848 0.950 . S
C854 C855 1.327 . S
C855 H849 0.950 . S
C855 C854 1.327 . S
C855 C859 1.429 . S
C856 C839 1.574 . S
C856 H850 0.949 . S
C856 C860 1.368 . S
C857 C838 1.429 . S
C857 C851 1.429 . S
C857 C858 1.523 . S
C858 C839 1.368 . S
C858 C852 1.368 . S
C858 C857 1.523 . S
C859 C843 1.429 . S
C859 C855 1.429 . S
C859 C860 1.523 . S
C860 C844 1.368 . S
C860 C856 1.368 . S
C860 C859 1.523 . S
H861 C836 0.950 . S
H862 C838 0.950 . S
H863 C839 0.949 . S
H864 C841 0.950 . S
H865 C843 0.950 . S
C866 C867 1.349 . S
C866 C868 1.327 . S
C866 H891 0.950 . S
C867 C866 1.349 . S
C867 C883 1.349 . S
C868 C866 1.327 . S
C868 C887 1.429 . S
C868 H892 0.950 . S
C869 C886 1.574 . S
C869 C888 1.368 . S
C869 H893 0.949 . S
H870 C874 0.949 . S
C871 C872 1.349 . S
C871 C873 1.327 . S
C871 H894 0.950 . S
C872 C871 1.349 . S
C872 C884 1.349 . S
C873 C871 1.327 . S
C873 C889 1.429 1_554 S
C873 H895 0.950 . S
C874 H870 0.949 . S
C874 C882 1.574 . S
C874 C890 1.368 . S
H875 C883 0.950 . S
H876 C881 0.950 . S
H877 C882 0.949 . S
H878 C884 0.950 . S
H879 C885 0.954 . S
H880 C886 0.949 . S
C881 H876 0.950 . S
C881 C883 1.327 . S
C881 C887 1.429 . S
C882 C874 1.574 . S
C882 H877 0.949 . S
C882 C888 1.368 . S
C883 C867 1.349 . S
C883 H875 0.950 . S
C883 C881 1.327 . S
C884 C872 1.349 . S
C884 H878 0.950 . S
C884 C885 1.321 1_554 S
C885 H879 0.954 . S
C885 C884 1.321 1_556 S
C885 C889 1.431 . S
C886 C869 1.574 . S
C886 H880 0.949 . S
C886 C890 1.368 . S
C887 C868 1.429 . S
C887 C881 1.429 . S
C887 C888 1.523 . S
C888 C869 1.368 . S
C888 C882 1.368 . S
C888 C887 1.523 . S
C889 C873 1.429 1_556 S
C889 C885 1.431 . S
C889 C890 1.523 . S
C890 C874 1.368 . S
C890 C886 1.368 . S
C890 C889 1.523 . S
H891 C866 0.950 . S
H892 C868 0.950 . S
H893 C869 0.949 . S
H894 C871 0.950 . S
H895 C873 0.950 . S
C896 C897 1.349 . S
C896 C898 1.327 . S
C896 H921 0.950 . S
C897 C896 1.349 . S
C897 C913 1.349 . S
C898 C896 1.327 . S
C898 C917 1.429 . S
C898 H922 0.950 . S
C899 C916 1.574 . S
C899 C918 1.368 . S
C899 H923 0.949 . S
H900 C904 0.949 . S
C901 C902 1.349 . S
C901 C903 1.327 . S
C901 H924 0.950 . S
C902 C901 1.349 . S
C902 C914 1.349 . S
C903 C901 1.327 . S
C903 C919 1.429 . S
C903 H925 0.950 . S
C904 H900 0.949 . S
C904 C912 1.574 . S
C904 C920 1.368 . S
H905 C913 0.950 . S
H906 C911 0.950 . S
H907 C912 0.949 . S
H908 C914 0.950 . S
H909 C915 0.950 . S
H910 C916 0.949 . S
C911 H906 0.950 . S
C911 C913 1.327 . S
C911 C917 1.429 . S
C912 C904 1.574 . S
C912 H907 0.949 . S
C912 C918 1.368 . S
C913 C897 1.349 . S
C913 H905 0.950 . S
C913 C911 1.327 . S
C914 C902 1.349 . S
C914 H908 0.950 . S
C914 C915 1.327 . S
C915 H909 0.950 . S
C915 C914 1.327 . S
C915 C919 1.429 . S
C916 C899 1.574 . S
C916 H910 0.949 . S
C916 C920 1.368 . S
C917 C898 1.429 . S
C917 C911 1.429 . S
C917 C918 1.523 . S
C918 C899 1.368 . S
C918 C912 1.368 . S
C918 C917 1.523 . S
C919 C903 1.429 . S
C919 C915 1.429 . S
C919 C920 1.523 . S
C920 C904 1.368 . S
C920 C916 1.368 . S
C920 C919 1.523 . S
H921 C896 0.950 . S
H922 C898 0.950 . S
H923 C899 0.949 . S
H924 C901 0.950 . S
H925 C903 0.950 . S
C926 C927 1.349 . S
C926 C928 1.327 . S
C926 H951 0.950 . S
C927 C926 1.349 . S
C927 C943 1.349 . S
C928 C926 1.327 . S
C928 C947 1.429 . S
C928 H952 0.950 . S
C929 C946 1.574 . S
C929 C948 1.368 . S
C929 H953 0.949 . S
H930 C934 0.949 . S
C931 C932 1.349 . S
C931 C933 1.327 . S
C931 H954 0.950 1_556 S
C932 C931 1.349 . S
C932 C944 1.349 . S
C933 C931 1.327 . S
C933 C949 1.429 . S
C933 H955 0.950 1_556 S
C934 H930 0.949 . S
C934 C942 1.574 . S
C934 C950 1.368 . S
H935 C943 0.950 . S
H936 C941 0.950 . S
H937 C942 0.949 . S
H938 C944 0.950 . S
H939 C945 0.950 . S
H940 C946 0.949 . S
C941 H936 0.950 . S
C941 C943 1.327 . S
C941 C947 1.429 . S
C942 C934 1.574 . S
C942 H937 0.949 . S
C942 C948 1.368 . S
C943 C927 1.349 . S
C943 H935 0.950 . S
C943 C941 1.327 . S
C944 C932 1.349 . S
C944 H938 0.950 . S
C944 C945 1.327 . S
C945 H939 0.950 . S
C945 C944 1.327 . S
C945 C949 1.429 . S
C946 C929 1.574 . S
C946 H940 0.949 . S
C946 C950 1.368 . S
C947 C928 1.429 . S
C947 C941 1.429 . S
C947 C948 1.523 . S
C948 C929 1.368 . S
C948 C942 1.368 . S
C948 C947 1.523 . S
C949 C933 1.429 . S
C949 C945 1.429 . S
C949 C950 1.523 . S
C950 C934 1.368 . S
C950 C946 1.368 . S
C950 C949 1.523 . S
H951 C926 0.950 . S
H952 C928 0.950 . S
H953 C929 0.949 . S
H954 C931 0.950 1_554 S
H955 C933 0.950 1_554 S
C242 C164 1.453 . S
C237 C11 1.330 . S
C272 C167 1.812 . S
C267 C25 1.786 . S
C302 C165 1.229 1_655 S
C297 C40 1.185 . S
C332 C166 1.308 . S
C327 C59 1.251 . S
C362 C181 1.892 . S
C357 C6 1.883 . S
C392 C195 1.924 . S
C387 C21 1.874 . S
C417 C49 1.520 . S
C422 C221 1.622 . S
C452 C235 1.495 . S
C447 C68 1.389 . S
C482 C180 1.887 . S
C477 C30 1.679 . S
C507 C44 1.679 . S
C512 C194 1.673 . S
C542 C220 1.607 . S
C537 C63 1.607 . S
C572 C234 1.672 . S
C567 C2 1.654 . S
C597 C78 1.814 . S
C602 C179 1.827 . S
C632 C152 1.649 . S
C627 C97 1.585 . S
C657 C120 1.717 . S
C662 C178 1.728 . S
C687 C139 1.639 . S
C692 C153 1.647 . S
C722 C208 1.430 . S
C717 C87 1.338 . S
C752 C222 1.573 . S
C747 C101 1.538 . S
C782 C192 1.607 . S
C777 C125 1.495 . S
C807 C144 1.674 . S
C812 C206 1.729 . S
C842 C209 1.712 . S
C837 C106 1.507 . S
C872 C223 1.627 . S
C867 C116 1.601 . S
C902 C193 1.679 . S
C897 C135 1.647 . S
C927 C82 1.859 . S
C932 C207 1.839 . S
