# Generated by pormake.
# Topology eea, (3,6)-cn, num edge types: 1
# Building blocks:
#     Node 0, Type 0, BuildingBlock: CUQRIR_clean_linker_1, # of connection points: 3
#     Node 1, Type 0, BuildingBlock: CUQRIR_clean_linker_1, # of connection points: 3
#     Node 2, Type 0, BuildingBlock: CUQRIR_clean_linker_1, # of connection points: 3
#     Node 3, Type 0, BuildingBlock: CUQRIR_clean_linker_1, # of connection points: 3
#     Node 4, Type 0, BuildingBlock: CUQRIR_clean_linker_1, # of connection points: 3
#     Node 5, Type 0, BuildingBlock: CUQRIR_clean_linker_1, # of connection points: 3
#     Node 6, Type 0, BuildingBlock: CUQRIR_clean_linker_1, # of connection points: 3
#     Node 7, Type 0, BuildingBlock: CUQRIR_clean_linker_1, # of connection points: 3
#     Node 8, Type 0, BuildingBlock: CUQRIR_clean_linker_1, # of connection points: 3
#     Node 9, Type 0, BuildingBlock: CUQRIR_clean_linker_1, # of connection points: 3
#     Node 10, Type 0, BuildingBlock: CUQRIR_clean_linker_1, # of connection points: 3
#     Node 11, Type 0, BuildingBlock: CUQRIR_clean_linker_1, # of connection points: 3
#     Node 12, Type 0, BuildingBlock: CUQRIR_clean_linker_1, # of connection points: 3
#     Node 13, Type 0, BuildingBlock: CUQRIR_clean_linker_1, # of connection points: 3
#     Node 14, Type 0, BuildingBlock: CUQRIR_clean_linker_1, # of connection points: 3
#     Node 15, Type 0, BuildingBlock: CUQRIR_clean_linker_1, # of connection points: 3
#     Node 16, Type 0, BuildingBlock: CUQRIR_clean_linker_1, # of connection points: 3
#     Node 17, Type 0, BuildingBlock: CUQRIR_clean_linker_1, # of connection points: 3
#     Node 18, Type 1, BuildingBlock: KUMBOL_clean_sbu_0, # of connection points: 6
#     Node 19, Type 1, BuildingBlock: KUMBOL_clean_sbu_0, # of connection points: 6
#     Node 20, Type 1, BuildingBlock: KUMBOL_clean_sbu_0, # of connection points: 6
#     Node 21, Type 1, BuildingBlock: KUMBOL_clean_sbu_0, # of connection points: 6
#     Node 22, Type 1, BuildingBlock: KUMBOL_clean_sbu_0, # of connection points: 6
#     Node 23, Type 1, BuildingBlock: KUMBOL_clean_sbu_0, # of connection points: 6
#     Node 24, Type 1, BuildingBlock: KUMBOL_clean_sbu_0, # of connection points: 6
#     Node 25, Type 1, BuildingBlock: KUMBOL_clean_sbu_0, # of connection points: 6
#     Node 26, Type 1, BuildingBlock: KUMBOL_clean_sbu_0, # of connection points: 6
#     Edge 27, Type (0, 1), None
#     Edge 28, Type (0, 1), None
#     Edge 29, Type (0, 1), None
#     Edge 30, Type (0, 1), None
#     Edge 31, Type (0, 1), None
#     Edge 32, Type (0, 1), None
#     Edge 33, Type (0, 1), None
#     Edge 34, Type (0, 1), None
#     Edge 35, Type (0, 1), None
#     Edge 36, Type (0, 1), None
#     Edge 37, Type (0, 1), None
#     Edge 38, Type (0, 1), None
#     Edge 39, Type (0, 1), None
#     Edge 40, Type (0, 1), None
#     Edge 41, Type (0, 1), None
#     Edge 42, Type (0, 1), None
#     Edge 43, Type (0, 1), None
#     Edge 44, Type (0, 1), None
#     Edge 45, Type (0, 1), None
#     Edge 46, Type (0, 1), None
#     Edge 47, Type (0, 1), None
#     Edge 48, Type (0, 1), None
#     Edge 49, Type (0, 1), None
#     Edge 50, Type (0, 1), None
#     Edge 51, Type (0, 1), None
#     Edge 52, Type (0, 1), None
#     Edge 53, Type (0, 1), None
#     Edge 54, Type (0, 1), None
#     Edge 55, Type (0, 1), None
#     Edge 56, Type (0, 1), None
#     Edge 57, Type (0, 1), None
#     Edge 58, Type (0, 1), None
#     Edge 59, Type (0, 1), None
#     Edge 60, Type (0, 1), None
#     Edge 61, Type (0, 1), None
#     Edge 62, Type (0, 1), None
#     Edge 63, Type (0, 1), None
#     Edge 64, Type (0, 1), None
#     Edge 65, Type (0, 1), None
#     Edge 66, Type (0, 1), None
#     Edge 67, Type (0, 1), None
#     Edge 68, Type (0, 1), None
#     Edge 69, Type (0, 1), None
#     Edge 70, Type (0, 1), None
#     Edge 71, Type (0, 1), None
#     Edge 72, Type (0, 1), None
#     Edge 73, Type (0, 1), None
#     Edge 74, Type (0, 1), None
#     Edge 75, Type (0, 1), None
#     Edge 76, Type (0, 1), None
#     Edge 77, Type (0, 1), None
#     Edge 78, Type (0, 1), None
#     Edge 79, Type (0, 1), None
#     Edge 80, Type (0, 1), None
# Relax obj value: 0.042
# Max RMSD: 0.309
# Mean RMSD: 0.214
data_MOF--net-eea--node1-KUMBOL_clean_sbu_0--node2-CUQRIR_clean_linker_1--edge1-none
_symmetry_space_group_name_H-M    P1
_symmetry_Int_Tables_number       1
_symmetry_cell_setting            triclinic
loop_
_symmetry_equiv_pos_as_xyz
'x, y, z'
_cell_length_a     17.018294
_cell_length_b     20.391869
_cell_length_c     33.193997
_cell_angle_alpha  83.973461
_cell_angle_beta   91.2317
_cell_angle_gamma 118.36972
loop_
_atom_site_label
_atom_site_type_symbol
_atom_site_fract_x
_atom_site_fract_y
_atom_site_fract_z
_atom_type_partial_charge
C0 C 0.2266 0.08435 0.38664 0.0
N1 N 0.20092 0.12671 0.40673 0.0
N2 N 0.21946 0.02366 0.41145 0.0
C3 C 0.30211 0.12086 0.35542 0.0
C4 C 0.19962 0.03656 0.44836 0.0
N5 N 0.19643 0.10194 0.44627 0.0
C6 C 0.18244 0.98727 0.48783 0.0
H7 H 0.289 0.08802 0.32938 0.0
H8 H 0.36266 0.1224 0.36948 0.0
H9 H 0.31972 0.17952 0.34579 0.0
H10 H 0.23809 0.01549 0.50824 0.0
H11 H 0.17412 0.93143 0.48529 0.0
H12 H 0.12077 0.98004 0.50282 0.0
C13 C 0.91295 0.12658 0.38169 0.0
N14 N 0.94898 0.18748 0.40305 0.0
N15 N 0.84398 0.06393 0.40175 0.0
C16 C 0.96787 0.11842 0.35303 0.0
C17 C 0.84465 0.08868 0.4388 0.0
N18 N 0.90297 0.16392 0.43879 0.0
C19 C 0.81762 0.03705 0.47782 0.0
H20 H 0.92784 0.08475 0.32995 0.0
H21 H 1.00132 0.09441 0.3738 0.0
H22 H 0.01774 0.1707 0.33811 0.0
H23 H 0.87889 0.04065 0.49213 0.0
H24 H 0.77402 0.97777 0.47462 0.0
H25 H 0.7842 0.05436 0.49914 0.0
C26 C 0.91651 0.82574 0.39849 0.0
N27 N 0.96225 0.7862 0.40618 0.0
N28 N 0.82865 0.77774 0.39208 0.0
C29 C 0.9454 0.8982 0.41646 0.0
C30 C 0.82463 0.70989 0.40086 0.0
N31 N 0.90258 0.71477 0.41324 0.0
C32 C 0.74208 0.63682 0.40288 0.0
H33 H 0.90934 0.92824 0.40383 0.0
H34 H 0.01869 0.9344 0.41318 0.0
H35 H 0.92881 0.8849 0.44947 0.0
H36 H 0.75721 0.59366 0.39281 0.0
H37 H 0.68788 0.63899 0.38461 0.0
H38 H 0.72369 0.62252 0.43533 0.0
C39 C 0.11506 0.19758 0.67443 0.0
N40 N 0.20039 0.24383 0.65929 0.0
N41 N 0.0691 0.23722 0.67547 0.0
C42 C 0.06792 0.11957 0.66301 0.0
C43 C 0.12658 0.305 0.65523 0.0
N44 N 0.20251 0.30686 0.64308 0.0
C45 C 0.1111 0.37273 0.64823 0.0
H46 H 0.0511 0.12185 0.63056 0.0
H47 H 1.00416 0.08547 0.68028 0.0
H48 H 0.11326 0.09491 0.66577 0.0
H49 H 0.0718 0.3749 0.67367 0.0
H50 H 0.07547 0.37056 0.61957 0.0
H51 H 0.17451 0.42593 0.64633 0.0
C52 C 0.77432 0.87744 0.693 0.0
N53 N 0.76912 0.82638 0.66792 0.0
N54 N 0.78726 0.94253 0.67129 0.0
C55 C 0.73606 0.85409 0.73589 0.0
C56 C 0.78548 0.92626 0.63197 0.0
N57 N 0.76785 0.8541 0.6296 0.0
C58 C 0.81606 0.9842 0.59559 0.0
H59 H 0.69683 0.79215 0.74181 0.0
H60 H 0.69141 0.87826 0.74098 0.0
H61 H 0.78863 0.87388 0.75835 0.0
H62 H 0.87772 0.03465 0.60262 0.0
H63 H 0.76366 7e-05 0.58731 0.0
H64 H 0.83341 0.9646 0.56917 0.0
C65 C 0.08829 0.89535 0.67217 0.0
N66 N 0.06621 0.82817 0.65671 0.0
N67 N 0.17583 0.95216 0.66071 0.0
C68 C 0.01359 0.91351 0.67501 0.0
C69 C 0.19496 0.9188 0.63163 0.0
N70 N 0.13242 0.84631 0.6298 0.0
C71 C 0.26529 0.961 0.5996 0.0
H72 H 0.0375 0.97402 0.67161 0.0
H73 H 0.97423 0.88513 0.7031 0.0
H74 H 0.96733 0.89106 0.6499 0.0
H75 H 0.2627 0.92592 0.57598 0.0
H76 H 0.3298 0.98333 0.61449 0.0
H77 H 0.25525 0.00768 0.58498 0.0
C78 C 0.89326 0.41769 0.71997 0.0
N79 N 0.86759 0.46004 0.74007 0.0
N80 N 0.88612 0.35699 0.74478 0.0
C81 C 0.96877 0.45419 0.68876 0.0
C82 C 0.86628 0.3699 0.78169 0.0
N83 N 0.8631 0.43528 0.7796 0.0
C84 C 0.84911 0.3206 0.82116 0.0
H85 H 0.95566 0.42135 0.66271 0.0
H86 H 0.02932 0.45573 0.70281 0.0
H87 H 0.98638 0.51285 0.67913 0.0
H88 H 0.90476 0.34883 0.84157 0.0
H89 H 0.84078 0.26476 0.81862 0.0
H90 H 0.78743 0.31338 0.83615 0.0
C91 C 0.57961 0.45991 0.71502 0.0
N92 N 0.61564 0.52081 0.73638 0.0
N93 N 0.51064 0.39727 0.73508 0.0
C94 C 0.63453 0.45175 0.68636 0.0
C95 C 0.51131 0.42201 0.77213 0.0
N96 N 0.56963 0.49725 0.77212 0.0
C97 C 0.48428 0.37038 0.81116 0.0
H98 H 0.5945 0.41808 0.66329 0.0
H99 H 0.66798 0.42774 0.70713 0.0
H100 H 0.6844 0.50403 0.67144 0.0
H101 H 0.54555 0.37398 0.82546 0.0
H102 H 0.44068 0.31111 0.80795 0.0
H103 H 0.45086 0.38769 0.83248 0.0
C104 C 0.58317 0.15907 0.73183 0.0
N105 N 0.62891 0.11954 0.73951 0.0
N106 N 0.49531 0.11108 0.72541 0.0
C107 C 0.61206 0.23154 0.74979 0.0
C108 C 0.49129 0.04322 0.73419 0.0
N109 N 0.56924 0.0481 0.74657 0.0
C110 C 0.40874 0.97016 0.73621 0.0
H111 H 0.57601 0.26157 0.73717 0.0
H112 H 0.68536 0.26773 0.74652 0.0
H113 H 0.59547 0.21823 0.7828 0.0
H114 H 0.42386 0.92699 0.72614 0.0
H115 H 0.35454 0.97233 0.71794 0.0
H116 H 0.39034 0.95586 0.76866 0.0
C117 C 0.78173 0.53091 1.00776 0.0
N118 N 0.86706 0.57716 0.99262 0.0
N119 N 0.73577 0.57056 1.0088 0.0
C120 C 0.7346 0.45291 0.99634 0.0
C121 C 0.79326 0.63833 0.98856 0.0
N122 N 0.86918 0.6402 0.97641 0.0
C123 C 0.77778 0.70606 0.98156 0.0
H124 H 0.71777 0.45518 0.9639 0.0
H125 H 0.67083 0.4188 1.01362 0.0
H126 H 0.77993 0.42824 0.99911 0.0
H127 H 0.73847 0.70823 1.00701 0.0
H128 H 0.74214 0.70389 0.9529 0.0
H129 H 0.84118 0.75926 0.97967 0.0
C130 C 0.44099 0.21077 0.02634 0.0
N131 N 0.43579 0.15972 1.00125 0.0
N132 N 0.45393 0.27586 1.00463 0.0
C133 C 0.40274 0.18743 0.06922 0.0
C134 C 0.45215 0.2596 0.96531 0.0
N135 N 0.43452 0.18744 0.96293 0.0
C136 C 0.48273 0.31753 0.92892 0.0
H137 H 0.3635 0.12548 0.07514 0.0
H138 H 0.35809 0.2116 0.07432 0.0
H139 H 0.4553 0.2072 0.09168 0.0
H140 H 0.54439 0.36798 0.93595 0.0
H141 H 0.43033 0.3334 0.92064 0.0
H142 H 0.50009 0.29793 0.9025 0.0
C143 C 0.75496 0.22868 1.0055 0.0
N144 N 0.73288 0.1615 0.99005 0.0
N145 N 0.8425 0.28549 0.99404 0.0
C146 C 0.68026 0.24684 1.00835 0.0
C147 C 0.86163 0.25214 0.96496 0.0
N148 N 0.79909 0.17964 0.96313 0.0
C149 C 0.93196 0.29433 0.93294 0.0
H150 H 0.70418 0.30736 1.00494 0.0
H151 H 0.64091 0.21846 0.03644 0.0
H152 H 0.634 0.2244 0.98323 0.0
H153 H 0.92937 0.25925 0.90932 0.0
H154 H 0.99647 0.31667 0.94782 0.0
H155 H 0.92192 0.34101 0.91832 0.0
C156 C 0.55993 0.75102 0.0533 0.0
N157 N 0.53426 0.79337 0.0734 0.0
N158 N 0.55279 0.69033 0.07812 0.0
C159 C 0.63544 0.78753 0.02209 0.0
C160 C 0.53296 0.70323 0.11503 0.0
N161 N 0.52977 0.76861 0.11293 0.0
C162 C 0.51578 0.65394 0.1545 0.0
H163 H 0.62233 0.75468 0.99605 0.0
H164 H 0.69599 0.78906 0.03614 0.0
H165 H 0.65305 0.84619 1.01246 0.0
H166 H 0.57143 0.68216 0.17491 0.0
H167 H 0.50746 0.5981 0.15196 0.0
H168 H 0.45411 0.64671 0.16948 0.0
C169 C 0.24628 0.79325 0.04835 0.0
N170 N 0.28231 0.85415 0.06971 0.0
N171 N 0.17731 0.7306 0.06841 0.0
C172 C 0.3012 0.78508 0.01969 0.0
C173 C 0.17799 0.75534 0.10546 0.0
N174 N 0.23631 0.83058 0.10546 0.0
C175 C 0.15095 0.70371 0.14449 0.0
H176 H 0.26117 0.75142 0.99662 0.0
H177 H 0.33465 0.76107 0.04047 0.0
H178 H 0.35107 0.83737 1.00477 0.0
H179 H 0.21222 0.70731 0.15879 0.0
H180 H 0.10735 0.64444 0.14129 0.0
H181 H 0.11753 0.72103 0.16581 0.0
C182 C 0.24984 0.49241 0.06516 0.0
N183 N 0.29558 0.45287 0.07284 0.0
N184 N 0.16198 0.44441 0.05875 0.0
C185 C 0.27873 0.56487 0.08313 0.0
C186 C 0.15797 0.37656 0.06752 0.0
N187 N 0.23591 0.38144 0.07991 0.0
C188 C 0.07541 0.30349 0.06955 0.0
H189 H 0.24268 0.59491 0.0705 0.0
H190 H 0.35203 0.60106 0.07985 0.0
H191 H 0.26214 0.55157 0.11614 0.0
H192 H 0.09054 0.26032 0.05947 0.0
H193 H 0.02121 0.30566 0.05127 0.0
H194 H 0.05702 0.28919 0.10199 0.0
C195 C 0.4484 0.86425 0.34109 0.0
N196 N 0.53372 0.91049 0.32596 0.0
N197 N 0.40244 0.90389 0.34213 0.0
C198 C 0.40126 0.78624 0.32968 0.0
C199 C 0.45992 0.97167 0.32189 0.0
N200 N 0.53585 0.97353 0.30974 0.0
C201 C 0.44444 0.03939 0.31489 0.0
H202 H 0.38444 0.78852 0.29723 0.0
H203 H 0.3375 0.75214 0.34695 0.0
H204 H 0.4466 0.76158 0.33244 0.0
H205 H 0.40513 0.04156 0.34034 0.0
H206 H 0.40881 0.03723 0.28624 0.0
H207 H 0.50785 0.09259 0.313 0.0
C208 C 0.10766 0.5441 0.35967 0.0
N209 N 0.10246 0.49305 0.33459 0.0
N210 N 0.1206 0.60919 0.33796 0.0
C211 C 0.0694 0.52076 0.40255 0.0
C212 C 0.11882 0.59293 0.29864 0.0
N213 N 0.10119 0.52077 0.29627 0.0
C214 C 0.1494 0.65087 0.26225 0.0
H215 H 0.03016 0.45882 0.40847 0.0
H216 H 0.02476 0.54494 0.40765 0.0
H217 H 0.12197 0.54053 0.42502 0.0
H218 H 0.21106 0.70132 0.26929 0.0
H219 H 0.09699 0.66674 0.25398 0.0
H220 H 0.16675 0.63126 0.23584 0.0
C221 C 0.42163 0.56202 0.33883 0.0
N222 N 0.39955 0.49484 0.32338 0.0
N223 N 0.50917 0.61883 0.32737 0.0
C224 C 0.34692 0.58017 0.34168 0.0
C225 C 0.5283 0.58547 0.29829 0.0
N226 N 0.46576 0.51297 0.29646 0.0
C227 C 0.59863 0.62766 0.26627 0.0
H228 H 0.37084 0.64069 0.33828 0.0
H229 H 0.30757 0.55179 0.36977 0.0
H230 H 0.30067 0.55773 0.31657 0.0
H231 H 0.59604 0.59259 0.24265 0.0
H232 H 0.66314 0.65 0.28116 0.0
H233 H 0.58858 0.67435 0.25165 0.0
Gd234 Gd 0.53722 0.01768 0.07881 0.0
Gd235 Gd 0.49077 0.9649 0.97696 0.0
C236 C 0.24072 0.84174 0.88979 0.0
C237 C 0.23008 0.70554 0.8572 0.0
C238 C 0.3867 0.8152 0.93015 0.0
C239 C 0.32815 0.86105 0.92145 0.0
C240 C 0.36404 0.73616 0.90781 0.0
C241 C 0.19398 0.77153 0.85858 0.0
C242 C 0.18558 0.86907 0.90159 0.0
C243 C 0.19659 0.8973 0.93907 0.0
N244 N 0.34517 0.9124 0.94801 0.0
C245 C 0.27728 0.92409 0.95966 0.0
H246 H 0.28353 0.9521 0.98632 0.0
C247 C 0.5251 0.82732 0.95006 0.0
N248 N 0.46017 0.84788 0.95273 0.0
C249 C 0.51273 0.76379 0.93255 0.0
C250 C 0.43321 0.71557 0.9155 0.0
H251 H 0.59131 0.86478 0.95904 0.0
H252 H 0.13564 0.76471 0.84229 0.0
H253 H 0.66103 0.95508 0.02536 0.0
H254 H 0.12451 0.85507 0.88594 0.0
H255 H 0.14108 0.90023 0.9522 0.0
H256 H 0.20022 0.66238 0.8368 0.0
H257 H 0.55726 0.16841 0.11543 0.0
H258 H 0.92598 0.05942 0.06553 0.0
H259 H 0.80602 0.95975 0.03068 0.0
H260 H 0.93512 0.25469 0.13674 0.0
H261 H 0.56765 0.75116 0.93238 0.0
H262 H 0.43202 0.6659 0.90642 0.0
H263 H 0.97111 0.16552 0.10597 0.0
H264 H 0.66727 0.265 0.15604 0.0
N265 N 0.68523 0.03492 0.06671 0.0
C266 C 0.85953 0.05415 0.06514 0.0
C267 C 0.79181 0.99721 0.04621 0.0
C268 C 0.8409 0.10501 0.08225 0.0
C269 C 0.75253 0.09435 0.08218 0.0
C270 C 0.70675 0.99165 0.04515 0.0
N271 N 0.64773 0.13242 0.09771 0.0
C272 C 0.73271 0.14369 0.09884 0.0
C273 C 0.68698 0.23228 0.13919 0.0
C274 C 0.77469 0.24544 0.13958 0.0
C275 C 0.62518 0.1779 0.11601 0.0
C276 C 0.79912 0.20266 0.11825 0.0
H277 H 0.82304 0.28749 0.15685 0.0
O278 O 0.47873 0.03281 0.13312 0.0
O279 O 0.43376 0.93004 0.04262 0.0
O280 O 0.44225 0.05275 0.98446 0.0
O281 O 0.48947 0.09763 0.04778 0.0
O282 O 0.38927 0.97294 0.08484 0.0
O283 O 0.55023 0.9702 0.13948 0.0
O284 O 0.58865 0.99232 0.92914 0.0
O285 O 0.57953 0.06567 1.01314 0.0
O286 O 0.5296 0.90271 0.08441 0.0
O287 O 0.51004 0.86973 0.01868 0.0
O288 O 0.6408 0.03957 0.97013 0.0
O289 O 0.47276 0.00639 0.91462 0.0
C290 C 0.3621 0.92211 0.06044 0.0
C291 C 0.88596 0.21255 0.11935 0.0
C292 C 0.90632 0.16256 0.10198 0.0
C293 C 0.50734 0.99658 0.15872 0.0
C294 C 0.54251 0.02735 0.19861 0.0
C295 C 0.57043 0.10255 0.20345 0.0
C296 C 0.53916 0.98093 0.23431 0.0
C297 C 0.57704 0.01294 0.27083 0.0
C298 C 0.62046 0.13524 0.23644 0.0
C299 C 0.62871 0.09061 0.26906 0.0
C300 C 0.45159 0.09958 1.01214 0.0
C301 C 0.65423 0.09035 0.99344 0.0
C302 C 0.54539 0.0087 0.90027 0.0
C303 C 0.54683 0.98197 0.85931 0.0
C304 C 0.56184 0.92037 0.85657 0.0
C305 C 0.54941 0.02454 0.8222 0.0
C306 C 0.56779 0.00554 0.78439 0.0
C307 C 0.57746 0.90077 0.81968 0.0
C308 C 0.57905 0.94248 0.78362 0.0
C309 C 0.52404 0.85599 0.05832 0.0
H310 H 0.54912 0.13511 0.1833 0.0
H311 H 0.4999 0.9207 0.23486 0.0
H312 H 0.64855 0.1948 0.23795 0.0
H313 H 0.65993 0.11611 0.29609 0.0
H314 H 0.56826 0.88974 0.88287 0.0
H315 H 0.5409 0.07384 0.8226 0.0
H316 H 0.59008 0.85356 0.81923 0.0
H317 H 0.59085 0.92681 0.75511 0.0
Gd318 Gd 0.95434 0.48778 0.07569 0.0
Gd319 Gd 0.07542 0.53776 0.97646 0.0
C320 C 0.31064 0.50798 0.87704 0.0
C321 C 0.36462 0.62437 0.82904 0.0
C322 C 0.26347 0.61076 0.8927 0.0
C323 C 0.25243 0.52725 0.90666 0.0
C324 C 0.33611 0.662 0.85175 0.0
C325 C 0.35247 0.55313 0.84095 0.0
C326 C 0.32212 0.43647 0.88295 0.0
C327 C 0.2754 0.37233 0.91782 0.0
N328 N 0.17524 0.45322 0.95474 0.0
C329 C 0.17633 0.38167 0.96754 0.0
H330 H 0.13325 0.34491 0.99288 0.0
C331 C 0.23518 0.72833 0.91953 0.0
N332 N 0.21327 0.64562 0.91981 0.0
C333 C 0.34855 0.8116 0.86129 0.0
C334 C 0.37957 0.75667 0.83637 0.0
H335 H 0.1947 0.73908 0.94031 0.0
H336 H 0.38223 0.53259 0.82036 0.0
H337 H 1.0023 0.70405 0.03617 0.0
H338 H 0.36489 0.43001 0.86199 0.0
H339 H 0.29562 0.32944 0.91581 0.0
H340 H 0.40315 0.65346 0.80128 0.0
H341 H 0.74971 0.31789 0.06961 0.0
H342 H 0.83089 0.76882 0.13946 0.0
H343 H 0.89293 0.74742 0.1042 0.0
H344 H 0.56104 0.4895 0.16843 0.0
H345 H 0.37402 0.87043 0.84969 0.0
H346 H 0.42249 0.78076 0.80952 0.0
H347 H 0.65828 0.62466 0.17777 0.0
H348 H 0.59464 0.27747 0.07337 0.0
N349 N 0.91754 0.59242 0.07844 0.0
C350 C 0.85518 0.72997 0.1263 0.0
C351 C 0.93034 0.74942 0.08135 0.0
C352 C 0.79809 0.637 0.15258 0.0
C353 C 0.84803 0.54716 0.11362 0.0
C354 C 0.95446 0.68112 0.06133 0.0
N355 N 0.79183 0.42779 0.08339 0.0
C356 C 0.76367 0.46816 0.10164 0.0
C357 C 0.63896 0.33192 0.08181 0.0
C358 C 0.60181 0.36837 0.10086 0.0
C359 C 0.73022 0.35787 0.07678 0.0
C360 C 0.64988 0.44193 0.11155 0.0
H361 H 0.53477 0.33205 0.11072 0.0
O362 O 0.89659 0.42582 0.13426 0.0
O363 O 0.08381 0.51298 0.04296 0.0
O364 O 0.97962 0.4051 0.98505 0.0
O365 O 0.88095 0.38266 0.03861 0.0
O366 O 0.01643 0.41156 0.07976 0.0
O367 O 0.03543 0.51128 0.13103 0.0
O368 O 0.02087 0.59039 0.93215 0.0
O369 O 0.94871 0.5125 1.01135 0.0
O370 O 0.0542 0.60971 0.07912 0.0
O371 O 0.13627 0.64048 0.01897 0.0
O372 O 0.02009 0.61894 0.98039 0.0
O373 O 0.9532 0.47046 0.93997 0.0
C374 C 0.08847 0.45567 0.05843 0.0
C375 C 0.61101 0.50686 0.14642 0.0
C376 C 0.6844 0.59513 0.16227 0.0
C377 C 0.96864 0.46222 0.15427 0.0
C378 C 0.97176 0.44467 0.19955 0.0
C379 C 0.89183 0.39024 0.21921 0.0
C380 C 0.04573 0.48611 0.22437 0.0
C381 C 0.03564 0.47455 0.26802 0.0
C382 C 0.88233 0.38028 0.26107 0.0
C383 C 0.95219 0.42138 0.28504 0.0
C384 C 0.90075 0.35925 1.00579 0.0
C385 C 0.94422 0.5713 0.99892 0.0
C386 C 0.95591 0.52989 0.9196 0.0
C387 C 0.95077 0.5354 0.87442 0.0
C388 C 1.01146 0.60395 0.85361 0.0
C389 C 0.89444 0.47734 0.85083 0.0
C390 C 0.91466 0.48694 0.80834 0.0
C391 C 0.03811 0.60765 0.8144 0.0
C392 C 0.99586 0.54643 0.79349 0.0
C393 C 0.12326 0.65845 0.05557 0.0
H394 H 0.8324 0.36 0.20254 0.0
H395 H 0.10849 0.52689 0.20967 0.0
H396 H 0.81754 0.34303 0.27524 0.0
H397 H 0.93942 0.41325 0.31748 0.0
H398 H 0.04367 0.65334 0.86893 0.0
H399 H 0.83885 0.42697 0.8651 0.0
H400 H 0.09254 0.65753 0.80064 0.0
H401 H 0.02194 0.54718 0.76411 0.0
Gd402 Gd 0.4779 0.50469 0.99512 0.0
Gd403 Gd 0.53274 0.45731 0.10037 0.0
C404 C 0.83546 0.54296 0.1878 0.0
C405 C 0.767 0.45099 0.24588 0.0
C406 C 0.67242 0.43353 0.18777 0.0
C407 C 0.74432 0.50977 0.16387 0.0
C408 C 0.69228 0.40704 0.22553 0.0
C409 C 0.83893 0.51202 0.22649 0.0
C410 C 0.9231 0.6117 0.17254 0.0
C411 C 0.93254 0.65994 0.13226 0.0
N412 N 0.72992 0.55986 0.10953 0.0
C413 C 0.80622 0.62752 0.08808 0.0
H414 H 0.79302 0.65621 0.06175 0.0
C415 C 0.5415 0.31208 0.18659 0.0
N416 N 0.58347 0.38762 0.17353 0.0
C417 C 0.56612 0.28484 0.22175 0.0
C418 C 0.63703 0.33364 0.2428 0.0
H419 H 0.48459 0.27213 0.17145 0.0
H420 H 0.90014 0.53623 0.24301 0.0
H421 H 0.28506 0.29168 1.00869 0.0
H422 H 0.98177 0.62722 0.19046 0.0
H423 H 0.99976 0.70756 0.12963 0.0
H424 H 0.77418 0.43301 0.27698 0.0
H425 H 0.47679 0.6764 0.99919 0.0
H426 H 0.05935 0.26071 0.90567 0.0
H427 H 0.13259 0.20798 0.96907 0.0
H428 H 0.09615 0.54589 0.90419 0.0
H429 H 0.52712 0.2266 0.23367 0.0
H430 H 0.65225 0.31217 0.27151 0.0
H431 H 0.04598 0.42367 0.8761 0.0
H432 H 0.38596 0.72417 1.00162 0.0
N433 N 0.32613 0.41333 0.98006 0.0
C434 C 0.12093 0.30069 0.91737 0.0
C435 C 0.16816 0.26667 0.95826 0.0
C436 C 0.16679 0.39993 0.90189 0.0
C437 C 0.31002 0.47002 0.95057 0.0
C438 C 0.26501 0.32268 0.98627 0.0
N439 N 0.38341 0.56565 0.99508 0.0
C440 C 0.31112 0.53536 0.97354 0.0
C441 C 0.3504 0.66581 1.00025 0.0
C442 C 0.25999 0.63058 0.99004 0.0
C443 C 0.40842 0.63671 1.0006 0.0
C444 C 0.22447 0.56404 0.96928 0.0
H445 H 0.22156 0.58357 0.97577 0.0
O446 O 0.49965 0.57812 0.93924 0.0
O447 O 0.58394 0.48679 0.0331 0.0
O448 O 0.57058 0.58381 0.09509 0.0
O449 O 0.5324 0.60875 0.03008 0.0
O450 O 0.61508 0.58956 0.9991 0.0
O451 O 0.52736 0.48521 0.9383 0.0
O452 O 0.44302 0.36145 0.14315 0.0
O453 O 0.42412 0.44765 0.05516 0.0
O454 O 0.46645 0.39353 0.98961 0.0
O455 O 0.47636 0.35565 0.05682 0.0
O456 O 0.43129 0.50113 0.1048 0.0
O457 O 0.43542 0.46289 0.14318 0.0
C458 C 0.64792 0.55075 0.01828 0.0
C459 C 0.11801 0.5169 0.92562 0.0
C460 C 0.09865 0.44171 0.8977 0.0
C461 C 0.52756 0.54311 0.91778 0.0
C462 C 0.55601 0.56961 0.87367 0.0
C463 C 0.56629 0.64008 0.8582 0.0
C464 C 0.56605 0.52497 0.84594 0.0
C465 C 0.57096 0.54513 0.80281 0.0
C466 C 0.57332 0.6612 0.81661 0.0
C467 C 0.56934 0.61222 0.78941 0.0
C468 C 0.5568 0.62821 0.06709 0.0
C469 C 0.3861 0.47786 0.07272 0.0
C470 C 0.41374 0.39804 0.16281 0.0
C471 C 0.42235 0.39678 0.20832 0.0
C472 C 0.41695 0.33309 0.23158 0.0
C473 C 0.44073 0.46001 0.22923 0.0
C474 C 0.46949 0.46246 0.26976 0.0
C475 C 0.45383 0.33882 0.2698 0.0
C476 C 0.48751 0.40607 0.28684 0.0
C477 C 0.46536 0.34275 1.01756 0.0
H478 H 0.56509 0.67809 0.87821 0.0
H479 H 0.56909 0.47535 0.85846 0.0
H480 H 0.57703 0.71441 0.80534 0.0
H481 H 0.56721 0.62781 0.75735 0.0
H482 H 0.39081 0.28012 0.21911 0.0
H483 H 0.43281 0.5063 0.21445 0.0
H484 H 0.45734 0.29139 0.28593 0.0
H485 H 0.52089 0.41283 0.31505 0.0
Gd486 Gd 0.20389 0.35101 0.41215 0.0
Gd487 Gd 0.15744 0.29823 0.31029 0.0
C488 C 0.90738 0.17507 0.22312 0.0
C489 C 0.89675 0.03887 0.19053 0.0
C490 C 0.05337 0.14853 0.26348 0.0
C491 C 0.99482 0.19438 0.25478 0.0
C492 C 0.03071 0.06949 0.24114 0.0
C493 C 0.86064 0.10486 0.19192 0.0
C494 C 0.85225 0.2024 0.23492 0.0
C495 C 0.86325 0.23063 0.2724 0.0
N496 N 1.01184 0.24573 0.28135 0.0
C497 C 0.94395 0.25742 0.29299 0.0
H498 H 0.9502 0.28543 0.31966 0.0
C499 C 0.19177 0.16065 0.2834 0.0
N500 N 0.12683 0.18122 0.28607 0.0
C501 C 0.1794 0.09712 0.26588 0.0
C502 C 0.09988 0.0489 0.24884 0.0
H503 H 0.25797 0.19811 0.29237 0.0
H504 H 0.80231 0.09804 0.17562 0.0
H505 H 0.32769 0.28842 0.3587 0.0
H506 H 0.79117 0.18841 0.21928 0.0
H507 H 0.80775 0.23356 0.28553 0.0
H508 H 0.86689 0.99571 0.17013 0.0
H509 H 0.22393 0.50174 0.44876 0.0
H510 H 0.59264 0.39275 0.39886 0.0
H511 H 0.47268 0.29308 0.36402 0.0
H512 H 0.60179 0.58802 0.47007 0.0
H513 H 0.23432 0.08449 0.26572 0.0
H514 H 0.09869 -0.00077 0.23975 0.0
H515 H 0.63778 0.49885 0.4393 0.0
H516 H 0.33393 0.59833 0.48938 0.0
N517 N 0.3519 0.36825 0.40004 0.0
C518 C 0.52619 0.38749 0.39847 0.0
C519 C 0.45848 0.33054 0.37955 0.0
C520 C 0.50757 0.43834 0.41558 0.0
C521 C 0.4192 0.42768 0.41551 0.0
C522 C 0.37341 0.32498 0.37848 0.0
N523 N 0.31439 0.46575 0.43104 0.0
C524 C 0.39938 0.47703 0.43218 0.0
C525 C 0.35365 0.56561 0.47253 0.0
C526 C 0.44136 0.57877 0.47291 0.0
C527 C 0.29185 0.51123 0.44935 0.0
C528 C 0.46579 0.53599 0.45158 0.0
H529 H 0.48971 0.62082 0.49019 0.0
O530 O 0.14539 0.36615 0.46645 0.0
O531 O 0.10042 0.26337 0.37596 0.0
O532 O 0.10891 0.38608 0.3178 0.0
O533 O 0.15614 0.43096 0.38111 0.0
O534 O 0.05594 0.30627 0.41817 0.0
O535 O 0.2169 0.30354 0.47282 0.0
O536 O 0.25532 0.32566 0.26247 0.0
O537 O 0.24619 0.39901 0.34648 0.0
O538 O 0.19626 0.23605 0.41775 0.0
O539 O 0.1767 0.20306 0.35202 0.0
O540 O 0.30747 0.3729 0.30346 0.0
O541 O 0.13943 0.33972 0.24795 0.0
C542 C 0.02877 0.25544 0.39378 0.0
C543 C 0.55262 0.54589 0.45268 0.0
C544 C 0.57299 0.49589 0.43532 0.0
C545 C 0.17401 0.32991 0.49205 0.0
C546 C 0.20917 0.36068 0.53194 0.0
C547 C 0.23709 0.43588 0.53678 0.0
C548 C 0.20582 0.31427 0.56765 0.0
C549 C 0.2437 0.34628 0.60416 0.0
C550 C 0.28712 0.46857 0.56977 0.0
C551 C 0.29537 0.42394 0.60239 0.0
C552 C 0.11826 0.43291 0.34547 0.0
C553 C 0.3209 0.42368 0.32677 0.0
C554 C 0.21206 0.34204 0.2336 0.0
C555 C 0.2135 0.3153 0.19265 0.0
C556 C 0.22851 0.2537 0.18991 0.0
C557 C 0.21608 0.35787 0.15554 0.0
C558 C 0.23446 0.33888 0.11773 0.0
C559 C 0.24413 0.2341 0.15301 0.0
C560 C 0.24572 0.27581 0.11695 0.0
C561 C 0.19071 0.18932 0.39166 0.0
H562 H 0.21578 0.46844 0.51664 0.0
H563 H 0.16656 0.25403 0.5682 0.0
H564 H 0.31521 0.52813 0.57128 0.0
H565 H 0.32659 0.44944 0.62942 0.0
H566 H 0.23493 0.22307 0.2162 0.0
H567 H 0.20758 0.40717 0.15593 0.0
H568 H 0.25675 0.18689 0.15256 0.0
H569 H 0.25752 0.26014 0.08845 0.0
Gd570 Gd 0.62101 0.82111 0.40902 0.0
Gd571 Gd 0.74209 0.8711 0.30979 0.0
C572 C 0.97731 0.84131 0.21037 0.0
C573 C 0.03129 0.95771 0.16237 0.0
C574 C 0.93013 0.9441 0.22604 0.0
C575 C 0.9191 0.86058 0.23999 0.0
C576 C 1.00278 0.99533 0.18508 0.0
C577 C 0.01914 0.88646 0.17428 0.0
C578 C 0.98879 0.76981 0.21629 0.0
C579 C 0.94207 0.70566 0.25115 0.0
N580 N 0.84191 0.78655 0.28807 0.0
C581 C 0.843 0.715 0.30087 0.0
H582 H 0.79992 0.67824 0.32621 0.0
C583 C 0.90185 0.06167 0.25286 0.0
N584 N 0.87994 0.97895 0.25314 0.0
C585 C 0.01522 0.14493 0.19463 0.0
C586 C 0.04624 0.09 0.16971 0.0
H587 H 0.86137 0.07242 0.27364 0.0
H588 H 0.0489 0.86593 0.15369 0.0
H589 H 0.66896 0.03738 0.3695 0.0
H590 H 0.03156 0.76335 0.19532 0.0
H591 H 0.96229 0.66278 0.24914 0.0
H592 H 0.06982 0.9868 0.13461 0.0
H593 H 0.41638 0.65122 0.40294 0.0
H594 H 0.49756 0.10215 0.4728 0.0
H595 H 0.5596 0.08075 0.43753 0.0
H596 H 0.22771 0.82283 0.50176 0.0
H597 H 0.04068 0.20377 0.18302 0.0
H598 H 0.08916 0.1141 0.14285 0.0
H599 H 0.32494 0.95799 0.51111 0.0
H600 H 0.2613 0.6108 0.40671 0.0
N601 N 0.5842 0.92576 0.41178 0.0
C602 C 0.52184 0.0633 0.45963 0.0
C603 C 0.597 0.08275 0.41469 0.0
C604 C 0.46475 0.97034 0.48592 0.0
C605 C 0.51469 0.88049 0.44695 0.0
C606 C 0.62112 0.01446 0.39467 0.0
N607 N 0.4585 0.76113 0.41672 0.0
C608 C 0.43034 0.80149 0.43498 0.0
C609 C 0.30563 0.66525 0.41514 0.0
C610 C 0.26847 0.7017 0.43419 0.0
C611 C 0.39689 0.69121 0.41011 0.0
C612 C 0.31655 0.77526 0.44489 0.0
H613 H 0.20143 0.66539 0.44406 0.0
O614 O 0.56325 0.75915 0.4676 0.0
O615 O 0.75048 0.84631 0.3763 0.0
O616 O 0.64629 0.73843 0.31838 0.0
O617 O 0.54761 0.71599 0.37194 0.0
O618 O 0.6831 0.74489 0.41309 0.0
O619 O 0.7021 0.84461 0.46437 0.0
O620 O 0.68754 0.92373 0.26548 0.0
O621 O 0.61538 0.84583 0.34468 0.0
O622 O 0.72086 0.94304 0.41246 0.0
O623 O 0.80293 0.97381 0.35231 0.0
O624 O 0.68676 0.95227 0.31373 0.0
O625 O 0.61987 0.80379 0.27331 0.0
C626 C 0.75513 0.78901 0.39176 0.0
C627 C 0.27767 0.8402 0.47975 0.0
C628 C 0.35107 0.92847 0.4956 0.0
C629 C 0.6353 0.79556 0.4876 0.0
C630 C 0.63842 0.778 0.53288 0.0
C631 C 0.5585 0.72357 0.55254 0.0
C632 C 0.7124 0.81944 0.5577 0.0
C633 C 0.7023 0.80789 0.60136 0.0
C634 C 0.549 0.71361 0.59441 0.0
C635 C 0.61885 0.75472 0.61838 0.0
C636 C 0.56741 0.69258 0.33912 0.0
C637 C 0.61089 0.90463 0.33225 0.0
C638 C 0.62258 0.86322 0.25294 0.0
C639 C 0.61744 0.86874 0.20775 0.0
C640 C 0.67813 0.93728 0.18694 0.0
C641 C 0.56111 0.81068 0.18417 0.0
C642 C 0.58133 0.82027 0.14168 0.0
C643 C 0.70478 0.94098 0.14774 0.0
C644 C 0.66253 0.87977 0.12683 0.0
C645 C 0.78992 0.99178 0.3889 0.0
H646 H 0.49907 0.69333 0.53587 0.0
H647 H 0.77515 0.86022 0.54301 0.0
H648 H 0.4842 0.67636 0.60857 0.0
H649 H 0.60608 0.74659 0.65082 0.0
H650 H 0.71033 0.98667 0.20226 0.0
H651 H 0.50552 0.76031 0.19843 0.0
H652 H 0.75921 0.99086 0.13397 0.0
H653 H 0.68861 0.88051 0.09744 0.0
Gd654 Gd 0.14457 0.83802 0.32846 0.0
Gd655 Gd 0.19941 0.79064 0.4337 0.0
C656 C 0.50213 0.8763 0.52113 0.0
C657 C 0.43367 0.78432 0.57921 0.0
C658 C 0.33908 0.76686 0.5211 0.0
C659 C 0.41099 0.84311 0.4972 0.0
C660 C 0.35894 0.74038 0.55887 0.0
C661 C 0.5056 0.84536 0.55983 0.0
C662 C 0.58977 0.94504 0.50587 0.0
C663 C 0.59921 0.99328 0.4656 0.0
N664 N 0.39658 0.89319 0.44286 0.0
C665 C 0.47288 0.96086 0.42142 0.0
H666 H 0.45969 0.98954 0.39508 0.0
C667 C 0.20816 0.64542 0.51992 0.0
N668 N 0.25014 0.72095 0.50686 0.0
C669 C 0.23279 0.61817 0.55508 0.0
C670 C 0.30369 0.66697 0.57614 0.0
H671 H 0.15125 0.60547 0.50479 0.0
H672 H 0.56681 0.86957 0.57635 0.0
H673 H 0.95172 0.62501 0.34203 0.0
H674 H 0.64844 0.96055 0.5238 0.0
H675 H 0.66643 0.04089 0.46297 0.0
H676 H 0.44085 0.76635 0.61032 0.0
H677 H 0.14346 0.00973 0.33253 0.0
H678 H 0.72602 0.59404 0.23901 0.0
H679 H 0.79926 0.54131 0.3024 0.0
H680 H 0.76282 0.87923 0.23752 0.0
H681 H 0.19378 0.55993 0.567 0.0
H682 H 0.31892 0.6455 0.60484 0.0
H683 H 0.71265 0.75701 0.20944 0.0
H684 H 0.05262 0.0575 0.33495 0.0
N685 N 0.99279 0.74667 0.31339 0.0
C686 C 0.7876 0.63402 0.2507 0.0
C687 C 0.83483 0.6 0.29159 0.0
C688 C 0.83346 0.73326 0.23522 0.0
C689 C 0.97669 0.80335 0.2839 0.0
C690 C 0.93168 0.65601 0.3196 0.0
N691 N 0.05008 0.89899 0.32842 0.0
C692 C 0.97779 0.86869 0.30687 0.0
C693 C 0.01707 -0.00085 0.33359 0.0
C694 C 0.92666 0.96391 0.32337 0.0
C695 C 0.07509 0.97004 0.33393 0.0
C696 C 0.89113 0.89738 0.30261 0.0
H697 H 0.88823 0.91691 0.30911 0.0
O698 O 0.16631 0.91145 0.27257 0.0
O699 O 0.25061 0.82012 0.36643 0.0
O700 O 0.23724 0.91714 0.42843 0.0
O701 O 0.19906 0.94208 0.36341 0.0
O702 O 0.28174 0.92289 0.33243 0.0
O703 O 0.19403 0.81854 0.27164 0.0
O704 O 0.10969 0.69478 0.47648 0.0
O705 O 0.09079 0.78098 0.38849 0.0
O706 O 0.13312 0.72687 0.32294 0.0
O707 O 0.14302 0.68898 0.39016 0.0
O708 O 0.09796 0.83447 0.43813 0.0
O709 O 0.10209 0.79622 0.47651 0.0
C710 C 0.31459 0.88408 0.35162 0.0
C711 C 0.78468 0.85024 0.25895 0.0
C712 C 0.76532 0.77504 0.23103 0.0
C713 C 0.19423 0.87644 0.25112 0.0
C714 C 0.22268 0.90294 0.207 0.0
C715 C 0.23296 0.97341 0.19154 0.0
C716 C 0.23272 0.8583 0.17928 0.0
C717 C 0.23764 0.87847 0.13615 0.0
C718 C 0.23999 0.99453 0.14995 0.0
C719 C 0.23601 0.94555 0.12274 0.0
C720 C 0.22346 0.96154 0.40042 0.0
C721 C 0.05277 0.81119 0.40606 0.0
C722 C 0.08041 0.73137 0.49614 0.0
C723 C 0.08902 0.73012 0.54166 0.0
C724 C 0.08361 0.66642 0.56491 0.0
C725 C 0.10739 0.79334 0.56256 0.0
C726 C 0.13616 0.7958 0.60309 0.0
C727 C 0.12049 0.67216 0.60313 0.0
C728 C 0.15418 0.7394 0.62018 0.0
C729 C 0.13203 0.67608 0.35089 0.0
H730 H 0.23176 0.01142 0.21154 0.0
H731 H 0.23576 0.80869 0.19179 0.0
H732 H 0.2437 0.04774 0.13867 0.0
H733 H 0.23388 0.96114 0.09069 0.0
H734 H 0.05748 0.61346 0.55245 0.0
H735 H 0.09947 0.83963 0.54778 0.0
H736 H 0.12401 0.62472 0.61927 0.0
H737 H 0.18755 0.74616 0.64838 0.0
Gd738 Gd 0.87055 0.68435 0.74548 0.0
Gd739 Gd 0.8241 0.63156 0.64363 0.0
C740 C 0.57405 0.5084 0.55646 0.0
C741 C 0.56341 0.3722 0.52386 0.0
C742 C 0.72004 0.48187 0.59681 0.0
C743 C 0.66148 0.52772 0.58812 0.0
C744 C 0.69737 0.40283 0.57448 0.0
C745 C 0.52731 0.43819 0.52525 0.0
C746 C 0.51892 0.53573 0.56826 0.0
C747 C 0.52992 0.56396 0.60574 0.0
N748 N 0.67851 0.57907 0.61468 0.0
C749 C 0.61061 0.59075 0.62632 0.0
H750 H 0.61686 0.61877 0.65299 0.0
C751 C 0.85843 0.49398 0.61673 0.0
N752 N 0.7935 0.51455 0.6194 0.0
C753 C 0.84606 0.43045 0.59921 0.0
C754 C 0.76654 0.38223 0.58217 0.0
H755 H 0.92464 0.53144 0.6257 0.0
H756 H 0.46897 0.43138 0.50896 0.0
H757 H 0.99436 0.62175 0.69203 0.0
H758 H 0.45784 0.52174 0.55261 0.0
H759 H 0.47441 0.56689 0.61886 0.0
H760 H 0.53356 0.32904 0.50347 0.0
H761 H 0.89058 0.83507 0.78209 0.0
H762 H 0.25931 0.7261 0.7322 0.0
H763 H 0.13935 0.62642 0.69735 0.0
H764 H 0.26844 0.92136 0.80341 0.0
H765 H 0.90098 0.41782 0.59905 0.0
H766 H 0.76535 0.33257 0.57309 0.0
H767 H 0.30444 0.83219 0.77264 0.0
H768 H 1.00058 0.93166 0.82271 0.0
N769 N 0.01856 0.70159 0.73338 0.0
C770 C 0.19286 0.72083 0.73181 0.0
C771 C 0.12515 0.66388 0.71288 0.0
C772 C 0.17423 0.77168 0.74892 0.0
C773 C 0.08586 0.76102 0.74885 0.0
C774 C 0.04008 0.65832 0.71182 0.0
N775 N 0.98105 0.79908 0.76438 0.0
C776 C 0.06603 0.81036 0.76551 0.0
C777 C 0.0203 0.89895 0.80586 0.0
C778 C 0.10801 0.91211 0.80624 0.0
C779 C 0.9585 0.84456 0.78268 0.0
C780 C 0.13244 0.86933 0.78491 0.0
H781 H 0.15636 0.95416 0.82352 0.0
O782 O 0.81205 0.69948 0.79979 0.0
O783 O 0.76709 0.59671 0.70929 0.0
O784 O 0.77558 0.71941 0.65113 0.0
O785 O 0.8228 0.76429 0.71444 0.0
O786 O 0.7226 0.63961 0.7515 0.0
O787 O 0.88356 0.63687 0.80615 0.0
O788 O 0.92199 0.65899 0.59581 0.0
O789 O 0.91286 0.73234 0.67981 0.0
O790 O 0.86293 0.56938 0.75108 0.0
O791 O 0.84337 0.5364 0.68535 0.0
O792 O 0.97413 0.70623 0.6368 0.0
O793 O 0.80609 0.67305 0.58128 0.0
C794 C 0.69543 0.58877 0.72711 0.0
C795 C 0.21928 0.87922 0.78601 0.0
C796 C 0.23964 0.82923 0.76865 0.0
C797 C 0.84067 0.66324 0.82538 0.0
C798 C 0.87584 0.69402 0.86528 0.0
C799 C 0.90376 0.76921 0.87012 0.0
C800 C 0.87249 0.6476 0.90098 0.0
C801 C 0.91037 0.67961 0.9375 0.0
C802 C 0.95379 0.8019 0.9031 0.0
C803 C 0.96204 0.75727 0.93572 0.0
C804 C 0.78492 0.76624 0.67881 0.0
C805 C 0.98756 0.75702 0.6601 0.0
C806 C 0.87872 0.67537 0.56693 0.0
C807 C 0.88017 0.64863 0.52598 0.0
C808 C 0.89518 0.58704 0.52324 0.0
C809 C 0.88275 0.69121 0.48887 0.0
C810 C 0.90113 0.67221 0.45106 0.0
C811 C 0.91079 0.56743 0.48634 0.0
C812 C 0.91239 0.60914 0.45029 0.0
C813 C 0.85737 0.52265 0.72499 0.0
H814 H 0.88245 0.80177 0.84997 0.0
H815 H 0.83323 0.58737 0.90153 0.0
H816 H 0.98188 0.86146 0.90461 0.0
H817 H 0.99327 0.78278 0.96275 0.0
H818 H 0.90159 0.5564 0.54954 0.0
H819 H 0.87424 0.74051 0.48927 0.0
H820 H 0.92341 0.52022 0.4859 0.0
H821 H 0.92418 0.59348 0.42178 0.0
Gd822 Gd 0.28767 0.15445 0.74236 0.0
Gd823 Gd 0.40875 0.20443 0.64313 0.0
C824 C 0.64397 0.17465 0.5437 0.0
C825 C 0.69795 0.29104 0.4957 0.0
C826 C 0.5968 0.27743 0.55937 0.0
C827 C 0.58576 0.19392 0.57333 0.0
C828 C 0.66945 0.32866 0.51841 0.0
C829 C 0.6858 0.2198 0.50762 0.0
C830 C 0.65545 0.10314 0.54962 0.0
C831 C 0.60873 0.03899 0.58448 0.0
N832 N 0.50857 0.11988 0.62141 0.0
C833 C 0.50966 0.04834 0.6342 0.0
H834 H 0.46658 0.01158 0.65954 0.0
C835 C 0.56852 0.395 0.5862 0.0
N836 N 0.54661 0.31228 0.58648 0.0
C837 C 0.68188 0.47827 0.52796 0.0
C838 C 0.7129 0.42334 0.50304 0.0
H839 H 0.52803 0.40575 0.60698 0.0
H840 H 0.71556 0.19926 0.48702 0.0
H841 H 0.33562 0.37071 0.70284 0.0
H842 H 0.69822 0.09668 0.52865 0.0
H843 H 0.62895 0.99611 0.58248 0.0
H844 H 0.73648 0.32013 0.46795 0.0
H845 H 0.08304 0.98456 0.73627 0.0
H846 H 0.16422 0.43548 0.80613 0.0
H847 H 0.22626 0.41408 0.77087 0.0
H848 H 0.89437 0.15616 0.83509 0.0
H849 H 0.70735 0.5371 0.51636 0.0
H850 H 0.75582 0.44743 0.47618 0.0
H851 H 0.99161 0.29132 0.84444 0.0
H852 H 0.92796 0.94414 0.74004 0.0
N853 N 0.25086 0.25909 0.74511 0.0
C854 C 0.1885 0.39663 0.79297 0.0
C855 C 0.26366 0.41609 0.74802 0.0
C856 C 0.13141 0.30367 0.81925 0.0
C857 C 0.18135 0.21383 0.78029 0.0
C858 C 0.28778 0.34779 0.728 0.0
N859 N 0.12516 0.09446 0.75005 0.0
C860 C 0.097 0.13482 0.76831 0.0
C861 C 0.97229 -0.00142 0.74847 0.0
C862 C 0.93513 0.03504 0.76753 0.0
C863 C 0.06355 0.02454 0.74344 0.0
C864 C 0.98321 0.10859 0.77822 0.0
H865 H 0.8681 -0.00128 0.77739 0.0
O866 O 0.22992 0.09249 0.80093 0.0
O867 O 0.41714 0.17964 0.70963 0.0
O868 O 0.31295 0.07177 0.65171 0.0
O869 O 0.21428 0.04933 0.70527 0.0
O870 O 0.34976 0.07822 0.74642 0.0
O871 O 0.36876 0.17794 0.7977 0.0
O872 O 0.3542 0.25706 0.59881 0.0
O873 O 0.28204 0.17916 0.67801 0.0
O874 O 0.38752 0.27638 0.74579 0.0
O875 O 0.4696 0.30714 0.68564 0.0
O876 O 0.35342 0.28561 0.64706 0.0
O877 O 0.28653 0.13712 0.60664 0.0
C878 C 0.42179 0.12234 0.7251 0.0
C879 C 0.94433 0.17353 0.81309 0.0
C880 C 0.01773 0.2618 0.82894 0.0
C881 C 0.30196 0.12889 0.82094 0.0
C882 C 0.30509 0.11133 0.86621 0.0
C883 C 0.22516 0.05691 0.88588 0.0
C884 C 0.37906 0.15278 0.89103 0.0
C885 C 0.36897 0.14122 0.93469 0.0
C886 C 0.21566 0.04695 0.92774 0.0
C887 C 0.28552 0.08805 0.95171 0.0
C888 C 0.23408 0.02591 0.67246 0.0
C889 C 0.27755 0.23797 0.66559 0.0
C890 C 0.28924 0.19655 0.58627 0.0
C891 C 0.2841 0.20207 0.54109 0.0
C892 C 0.34479 0.27062 0.52028 0.0
C893 C 0.22778 0.14401 0.5175 0.0
C894 C 0.248 0.1536 0.47501 0.0
C895 C 0.37144 0.27431 0.48107 0.0
C896 C 0.3292 0.2131 0.46016 0.0
C897 C 0.45658 0.32512 0.72223 0.0
H898 H 0.16573 0.02666 0.86921 0.0
H899 H 0.44182 0.19355 0.87634 0.0
H900 H 0.15087 0.00969 0.9419 0.0
H901 H 0.27275 0.07992 0.98415 0.0
H902 H 0.377 0.32 0.5356 0.0
H903 H 0.17219 0.09364 0.53177 0.0
H904 H 0.42587 0.32419 0.46731 0.0
H905 H 0.35527 0.21385 0.43078 0.0
Gd906 Gd 0.81123 0.17135 0.66179 0.0
Gd907 Gd 0.86607 0.12397 0.76703 0.0
C908 C 0.16879 0.20963 0.85446 0.0
C909 C 0.10033 0.11765 0.91254 0.0
C910 C 1.00575 0.10019 0.85444 0.0
C911 C 0.07765 0.17644 0.83053 0.0
C912 C 0.0256 0.07371 0.8922 0.0
C913 C 0.17226 0.17869 0.89316 0.0
C914 C 0.25643 0.27837 0.83921 0.0
C915 C 0.26587 0.32661 0.79893 0.0
N916 N 0.06324 0.22652 0.77619 0.0
C917 C 0.13954 0.29419 0.75475 0.0
H918 H 0.12635 0.32288 0.72842 0.0
C919 C 0.87482 0.97875 0.85326 0.0
N920 N 0.9168 0.05429 0.84019 0.0
C921 C 0.89945 0.9515 0.88841 0.0
C922 C 0.97036 0.0003 0.90947 0.0
H923 H 0.81792 0.9388 0.83812 0.0
H924 H 0.23347 0.2029 0.90968 0.0
H925 H 0.61839 0.95834 0.67536 0.0
H926 H 0.3151 0.29388 0.85713 0.0
H927 H 0.33309 0.37423 0.7963 0.0
H928 H 0.10751 0.09968 0.94365 0.0
H929 H 0.81012 0.34307 0.66586 0.0
H930 H 0.39268 0.92737 0.57234 0.0
H931 H 0.46592 0.87465 0.63574 0.0
H932 H 0.42948 0.21256 0.57085 0.0
H933 H 0.86044 0.89326 0.90033 0.0
H934 H 0.98558 0.97883 0.93818 0.0
H935 H 0.37931 0.09034 0.54277 0.0
H936 H 0.71929 0.39084 0.66828 0.0
N937 N 0.65946 0.08 0.64673 0.0
C938 C 0.45426 0.96735 0.58403 0.0
C939 C 0.50149 0.93333 0.62492 0.0
C940 C 0.50013 0.06659 0.56855 0.0
C941 C 0.64335 0.13669 0.61724 0.0
C942 C 0.59834 0.98935 0.65294 0.0
N943 N 0.71674 0.23232 0.66175 0.0
C944 C 0.64445 0.20202 0.64021 0.0
C945 C 0.68373 0.33248 0.66692 0.0
C946 C 0.59332 0.29725 0.6567 0.0
C947 C 0.74175 0.30337 0.66726 0.0
C948 C 0.5578 0.23071 0.63594 0.0
H949 H 0.55489 0.25024 0.64244 0.0
O950 O 0.83298 0.24479 0.6059 0.0
O951 O 0.91727 0.15345 0.69976 0.0
O952 O 0.9039 0.25047 0.76176 0.0
O953 O 0.86573 0.27542 0.69674 0.0
O954 O 0.94841 0.25622 0.66576 0.0
O955 O 0.86069 0.15188 0.60497 0.0
O956 O 0.77635 0.02811 0.80981 0.0
O957 O 0.75745 0.11432 0.72183 0.0
O958 O 0.79978 0.0602 0.65627 0.0
O959 O 0.80968 0.02231 0.72349 0.0
O960 O 0.76462 0.1678 0.77147 0.0
O961 O 0.76875 0.12955 0.80984 0.0
C962 C 0.98125 0.21742 0.68495 0.0
C963 C 0.45134 0.18357 0.59228 0.0
C964 C 0.43198 0.10838 0.56437 0.0
C965 C 0.86089 0.20978 0.58445 0.0
C966 C 0.88934 0.23627 0.54033 0.0
C967 C 0.89962 0.30674 0.52487 0.0
C968 C 0.89938 0.19164 0.51261 0.0
C969 C 0.9043 0.2118 0.46948 0.0
C970 C 0.90666 0.32786 0.48328 0.0
C971 C 0.90268 0.27888 0.45608 0.0
C972 C 0.89013 0.29488 0.73376 0.0
C973 C 0.71943 0.14452 0.73939 0.0
C974 C 0.74707 0.0647 0.82947 0.0
C975 C 0.75568 0.06345 0.87499 0.0
C976 C 0.75028 -0.00025 0.89825 0.0
C977 C 0.77406 0.12668 0.89589 0.0
C978 C 0.80282 0.12913 0.93642 0.0
C979 C 0.78716 0.00549 0.93647 0.0
C980 C 0.82085 0.07274 0.95351 0.0
C981 C 0.79869 0.00941 0.68423 0.0
H982 H 0.89842 0.34476 0.54487 0.0
H983 H 0.90242 0.14202 0.52513 0.0
H984 H 0.91036 0.38108 0.47201 0.0
H985 H 0.90055 0.29447 0.42402 0.0
H986 H 0.72414 0.94679 0.88578 0.0
H987 H 0.76614 0.17297 0.88112 0.0
H988 H 0.79068 0.95805 0.9526 0.0
H989 H 0.85422 0.0795 0.98171 0.0
loop_
_geom_bond_atom_site_label_1
_geom_bond_atom_site_label_2
_geom_bond_distance
_geom_bond_site_symmetry_2
_ccdc_geom_bond_type
C0 N1 1.317 . S
C0 N2 1.348 . S
C0 C3 1.485 . S
N1 C0 1.317 . S
N1 N5 1.370 . S
N2 C0 1.348 . S
N2 C4 1.346 . S
C3 C0 1.485 . S
C3 H7 0.960 . S
C3 H8 0.961 . S
C3 H9 0.960 . S
C4 N2 1.346 . S
C4 N5 1.307 . S
C4 C6 1.486 . S
N5 N1 1.370 . S
N5 C4 1.307 . S
C6 C4 1.486 . S
C6 H10 0.960 1_545 S
C6 H11 0.960 1_545 S
C6 H12 0.959 . S
H7 C3 0.960 . S
H8 C3 0.961 . S
H9 C3 0.960 . S
H10 C6 0.960 1_565 S
H11 C6 0.960 1_565 S
H12 C6 0.959 . S
C13 N14 1.317 . S
C13 N15 1.348 . S
C13 C16 1.485 . S
N14 C13 1.317 . S
N14 N18 1.370 . S
N15 C13 1.348 . S
N15 C17 1.346 . S
C16 C13 1.485 . S
C16 H20 0.960 . S
C16 H21 0.961 . S
C16 H22 0.960 . S
C17 N15 1.346 . S
C17 N18 1.307 . S
C17 C19 1.486 . S
N18 N14 1.370 . S
N18 C17 1.307 . S
C19 C17 1.486 . S
C19 H23 0.960 1_545 S
C19 H24 0.960 . S
C19 H25 0.959 . S
H20 C16 0.960 . S
H21 C16 0.961 . S
H22 C16 0.960 . S
H23 C19 0.960 1_565 S
H24 C19 0.960 . S
H25 C19 0.959 . S
C26 N27 1.317 . S
C26 N28 1.348 . S
C26 C29 1.485 . S
N27 C26 1.317 . S
N27 N31 1.370 . S
N28 C26 1.348 . S
N28 C30 1.346 . S
C29 C26 1.485 . S
C29 H33 0.960 . S
C29 H34 0.961 . S
C29 H35 0.960 1_655 S
C30 N28 1.346 . S
C30 N31 1.307 . S
C30 C32 1.486 . S
N31 N27 1.370 . S
N31 C30 1.307 . S
C32 C30 1.486 . S
C32 H36 0.960 . S
C32 H37 0.960 . S
C32 H38 0.959 . S
H33 C29 0.960 . S
H34 C29 0.961 . S
H35 C29 0.960 1_455 S
H36 C32 0.960 . S
H37 C32 0.960 . S
H38 C32 0.959 . S
C39 N40 1.317 . S
C39 N41 1.348 1_455 S
C39 C42 1.485 . S
N40 C39 1.317 . S
N40 N44 1.370 . S
N41 C39 1.348 1_655 S
N41 C43 1.346 . S
C42 C39 1.485 . S
C42 H46 0.960 . S
C42 H47 0.961 . S
C42 H48 0.960 . S
C43 N41 1.346 . S
C43 N44 1.307 1_655 S
C43 C45 1.486 . S
N44 N40 1.370 . S
N44 C43 1.307 1_455 S
C45 C43 1.486 . S
C45 H49 0.960 . S
C45 H50 0.960 . S
C45 H51 0.959 . S
H46 C42 0.960 . S
H47 C42 0.961 . S
H48 C42 0.960 . S
H49 C45 0.960 . S
H50 C45 0.960 . S
H51 C45 0.959 . S
C52 N53 1.317 . S
C52 N54 1.348 . S
C52 C55 1.485 . S
N53 C52 1.317 . S
N53 N57 1.370 . S
N54 C52 1.348 . S
N54 C56 1.346 . S
C55 C52 1.485 . S
C55 H59 0.960 . S
C55 H60 0.961 . S
C55 H61 0.960 . S
C56 N54 1.346 . S
C56 N57 1.307 . S
C56 C58 1.486 . S
N57 N53 1.370 . S
N57 C56 1.307 . S
C58 C56 1.486 . S
C58 H62 0.960 1_565 S
C58 H63 0.960 . S
C58 H64 0.959 . S
H59 C55 0.960 . S
H60 C55 0.961 . S
H61 C55 0.960 . S
H62 C58 0.960 1_545 S
H63 C58 0.960 . S
H64 C58 0.959 . S
C65 N66 1.317 . S
C65 N67 1.348 . S
C65 C68 1.485 . S
N66 C65 1.317 . S
N66 N70 1.370 . S
N67 C65 1.348 . S
N67 C69 1.346 . S
C68 C65 1.485 . S
C68 H72 0.960 . S
C68 H73 0.961 . S
C68 H74 0.960 . S
C69 N67 1.346 . S
C69 N70 1.307 . S
C69 C71 1.486 1_565 S
N70 N66 1.370 . S
N70 C69 1.307 . S
C71 C69 1.486 1_545 S
C71 H75 0.960 . S
C71 H76 0.960 . S
C71 H77 0.959 1_545 S
H72 C68 0.960 . S
H73 C68 0.961 . S
H74 C68 0.960 . S
H75 C71 0.960 . S
H76 C71 0.960 . S
H77 C71 0.959 1_565 S
C78 N79 1.317 . S
C78 N80 1.348 . S
C78 C81 1.485 . S
N79 C78 1.317 . S
N79 N83 1.370 . S
N80 C78 1.348 . S
N80 C82 1.346 . S
C81 C78 1.485 . S
C81 H85 0.960 . S
C81 H86 0.961 . S
C81 H87 0.960 . S
C82 N80 1.346 . S
C82 N83 1.307 . S
C82 C84 1.486 . S
N83 N79 1.370 . S
N83 C82 1.307 . S
C84 C82 1.486 . S
C84 H88 0.960 . S
C84 H89 0.960 . S
C84 H90 0.959 . S
H85 C81 0.960 . S
H86 C81 0.961 . S
H87 C81 0.960 . S
H88 C84 0.960 . S
H89 C84 0.960 . S
H90 C84 0.959 . S
C91 N92 1.317 . S
C91 N93 1.348 . S
C91 C94 1.485 . S
N92 C91 1.317 . S
N92 N96 1.370 . S
N93 C91 1.348 . S
N93 C95 1.346 . S
C94 C91 1.485 . S
C94 H98 0.960 . S
C94 H99 0.961 . S
C94 H100 0.960 . S
C95 N93 1.346 . S
C95 N96 1.307 . S
C95 C97 1.486 . S
N96 N92 1.370 . S
N96 C95 1.307 . S
C97 C95 1.486 . S
C97 H101 0.960 . S
C97 H102 0.960 . S
C97 H103 0.959 . S
H98 C94 0.960 . S
H99 C94 0.961 . S
H100 C94 0.960 . S
H101 C97 0.960 . S
H102 C97 0.960 . S
H103 C97 0.959 . S
C104 N105 1.317 . S
C104 N106 1.348 . S
C104 C107 1.485 . S
N105 C104 1.317 . S
N105 N109 1.370 . S
N106 C104 1.348 . S
N106 C108 1.346 . S
C107 C104 1.485 . S
C107 H111 0.960 . S
C107 H112 0.961 . S
C107 H113 0.960 . S
C108 N106 1.346 . S
C108 N109 1.307 . S
C108 C110 1.486 . S
N109 N105 1.370 . S
N109 C108 1.307 . S
C110 C108 1.486 . S
C110 H114 0.960 . S
C110 H115 0.960 . S
C110 H116 0.959 . S
H111 C107 0.960 . S
H112 C107 0.961 . S
H113 C107 0.960 . S
H114 C110 0.960 . S
H115 C110 0.960 . S
H116 C110 0.959 . S
C117 N118 1.317 1_554 S
C117 N119 1.348 1_554 S
C117 C120 1.485 . S
N118 C117 1.317 1_556 S
N118 N122 1.370 . S
N119 C117 1.348 1_556 S
N119 C121 1.346 . S
C120 C117 1.485 . S
C120 H124 0.960 . S
C120 H125 0.961 . S
C120 H126 0.960 . S
C121 N119 1.346 . S
C121 N122 1.307 . S
C121 C123 1.486 . S
N122 N118 1.370 . S
N122 C121 1.307 . S
C123 C121 1.486 . S
C123 H127 0.960 . S
C123 H128 0.960 . S
C123 H129 0.959 . S
H124 C120 0.960 . S
H125 C120 0.961 . S
H126 C120 0.960 . S
H127 C123 0.960 . S
H128 C123 0.960 . S
H129 C123 0.959 . S
C130 N131 1.317 1_554 S
C130 N132 1.348 1_554 S
C130 C133 1.485 . S
N131 C130 1.317 1_556 S
N131 N135 1.370 . S
N132 C130 1.348 1_556 S
N132 C134 1.346 . S
C133 C130 1.485 . S
C133 H137 0.960 . S
C133 H138 0.961 . S
C133 H139 0.960 . S
C134 N132 1.346 . S
C134 N135 1.307 . S
C134 C136 1.486 . S
N135 N131 1.370 . S
N135 C134 1.307 . S
C136 C134 1.486 . S
C136 H140 0.960 . S
C136 H141 0.960 . S
C136 H142 0.959 . S
H137 C133 0.960 . S
H138 C133 0.961 . S
H139 C133 0.960 . S
H140 C136 0.960 . S
H141 C136 0.960 . S
H142 C136 0.959 . S
C143 N144 1.317 1_554 S
C143 N145 1.348 1_554 S
C143 C146 1.485 . S
N144 C143 1.317 1_556 S
N144 N148 1.370 . S
N145 C143 1.348 1_556 S
N145 C147 1.346 . S
C146 C143 1.485 . S
C146 H150 0.960 . S
C146 H151 0.961 . S
C146 H152 0.960 . S
C147 N145 1.346 . S
C147 N148 1.307 . S
C147 C149 1.486 . S
N148 N144 1.370 . S
N148 C147 1.307 . S
C149 C147 1.486 . S
C149 H153 0.960 . S
C149 H154 0.960 . S
C149 H155 0.959 . S
H150 C146 0.960 . S
H151 C146 0.961 . S
H152 C146 0.960 . S
H153 C149 0.960 . S
H154 C149 0.960 . S
H155 C149 0.959 . S
C156 N157 1.317 . S
C156 N158 1.348 . S
C156 C159 1.485 1_554 S
N157 C156 1.317 . S
N157 N161 1.370 . S
N158 C156 1.348 . S
N158 C160 1.346 . S
C159 C156 1.485 1_556 S
C159 H163 0.960 . S
C159 H164 0.961 . S
C159 H165 0.960 . S
C160 N158 1.346 . S
C160 N161 1.307 . S
C160 C162 1.486 . S
N161 N157 1.370 . S
N161 C160 1.307 . S
C162 C160 1.486 . S
C162 H166 0.960 . S
C162 H167 0.960 . S
C162 H168 0.959 . S
H163 C159 0.960 . S
H164 C159 0.961 . S
H165 C159 0.960 . S
H166 C162 0.960 . S
H167 C162 0.960 . S
H168 C162 0.959 . S
C169 N170 1.317 . S
C169 N171 1.348 . S
C169 C172 1.485 1_554 S
N170 C169 1.317 . S
N170 N174 1.370 . S
N171 C169 1.348 . S
N171 C173 1.346 . S
C172 C169 1.485 1_556 S
C172 H176 0.960 . S
C172 H177 0.961 . S
C172 H178 0.960 . S
C173 N171 1.346 . S
C173 N174 1.307 . S
C173 C175 1.486 . S
N174 N170 1.370 . S
N174 C173 1.307 . S
C175 C173 1.486 . S
C175 H179 0.960 . S
C175 H180 0.960 . S
C175 H181 0.959 . S
H176 C172 0.960 . S
H177 C172 0.961 . S
H178 C172 0.960 . S
H179 C175 0.960 . S
H180 C175 0.960 . S
H181 C175 0.959 . S
C182 N183 1.317 . S
C182 N184 1.348 . S
C182 C185 1.485 1_554 S
N183 C182 1.317 . S
N183 N187 1.370 . S
N184 C182 1.348 . S
N184 C186 1.346 . S
C185 C182 1.485 1_556 S
C185 H189 0.960 . S
C185 H190 0.961 . S
C185 H191 0.960 . S
C186 N184 1.346 . S
C186 N187 1.307 . S
C186 C188 1.486 . S
N187 N183 1.370 . S
N187 C186 1.307 . S
C188 C186 1.486 . S
C188 H192 0.960 . S
C188 H193 0.960 . S
C188 H194 0.959 . S
H189 C185 0.960 . S
H190 C185 0.961 . S
H191 C185 0.960 . S
H192 C188 0.960 . S
H193 C188 0.960 . S
H194 C188 0.959 . S
C195 N196 1.317 . S
C195 N197 1.348 . S
C195 C198 1.485 . S
N196 C195 1.317 . S
N196 N200 1.370 . S
N197 C195 1.348 . S
N197 C199 1.346 . S
C198 C195 1.485 . S
C198 H202 0.960 . S
C198 H203 0.961 . S
C198 H204 0.960 . S
C199 N197 1.346 . S
C199 N200 1.307 . S
C199 C201 1.486 . S
N200 N196 1.370 . S
N200 C199 1.307 . S
C201 C199 1.486 . S
C201 H205 0.960 . S
C201 H206 0.960 . S
C201 H207 0.959 . S
H202 C198 0.960 . S
H203 C198 0.961 . S
H204 C198 0.960 . S
H205 C201 0.960 . S
H206 C201 0.960 . S
H207 C201 0.959 . S
C208 N209 1.317 . S
C208 N210 1.348 . S
C208 C211 1.485 . S
N209 C208 1.317 . S
N209 N213 1.370 . S
N210 C208 1.348 . S
N210 C212 1.346 . S
C211 C208 1.485 . S
C211 H215 0.960 . S
C211 H216 0.961 . S
C211 H217 0.960 . S
C212 N210 1.346 . S
C212 N213 1.307 . S
C212 C214 1.486 . S
N213 N209 1.370 . S
N213 C212 1.307 . S
C214 C212 1.486 . S
C214 H218 0.960 . S
C214 H219 0.960 1_455 S
C214 H220 0.959 . S
H215 C211 0.960 . S
H216 C211 0.961 . S
H217 C211 0.960 . S
H218 C214 0.960 . S
H219 C214 0.960 1_655 S
H220 C214 0.959 . S
C221 N222 1.317 . S
C221 N223 1.348 . S
C221 C224 1.485 . S
N222 C221 1.317 . S
N222 N226 1.370 . S
N223 C221 1.348 . S
N223 C225 1.346 . S
C224 C221 1.485 . S
C224 H228 0.960 . S
C224 H229 0.961 . S
C224 H230 0.960 . S
C225 N223 1.346 . S
C225 N226 1.307 . S
C225 C227 1.486 . S
N226 N222 1.370 . S
N226 C225 1.307 . S
C227 C225 1.486 . S
C227 H231 0.960 . S
C227 H232 0.960 . S
C227 H233 0.959 . S
H228 C224 0.960 . S
H229 C224 0.961 . S
H230 C224 0.960 . S
H231 C227 0.960 . S
H232 C227 0.960 . S
H233 C227 0.959 . S
Gd234 N265 2.661 . S
Gd234 N271 2.601 . S
Gd234 O278 2.545 . S
Gd234 O279 2.606 1_545 S
Gd234 O281 2.429 . S
Gd234 O282 2.545 1_545 S
Gd234 O283 2.412 1_545 S
Gd234 O285 2.362 . S
Gd234 O286 2.324 1_545 S
Gd234 C293 2.828 1_545 S
Gd235 N244 2.661 . S
Gd235 N248 2.601 . S
Gd235 O279 2.362 1_556 S
Gd235 O280 2.324 1_565 S
Gd235 O284 2.545 . S
Gd235 O285 2.606 1_566 S
Gd235 O287 2.429 . S
Gd235 O288 2.545 1_565 S
Gd235 O289 2.412 1_565 S
Gd235 C302 2.828 1_565 S
C236 C239 1.417 . S
C236 C241 1.431 . S
C236 C242 1.412 . S
C237 C240 1.437 . S
C237 C241 1.317 . S
C237 H256 0.929 . S
C238 C239 1.426 . S
C238 C240 1.413 . S
C238 N248 1.359 . S
C239 C236 1.417 . S
C239 C238 1.426 . S
C239 N244 1.350 . S
C240 C237 1.437 . S
C240 C238 1.413 . S
C240 C250 1.391 . S
C241 C236 1.431 . S
C241 C237 1.317 . S
C241 H252 0.930 . S
C242 C236 1.412 . S
C242 C243 1.355 . S
C242 H254 0.930 . S
C243 C242 1.355 . S
C243 C245 1.402 . S
C243 H255 0.930 . S
N244 Gd235 2.661 . S
N244 C239 1.350 . S
N244 C245 1.307 . S
C245 C243 1.402 . S
C245 N244 1.307 . S
C245 H246 0.930 . S
H246 C245 0.930 . S
C247 N248 1.334 . S
C247 C249 1.394 . S
C247 H251 0.930 . S
N248 Gd235 2.601 . S
N248 C238 1.359 . S
N248 C247 1.334 . S
C249 C247 1.394 . S
C249 C250 1.359 . S
C249 H261 0.930 . S
C250 C240 1.391 . S
C250 C249 1.359 . S
C250 H262 0.929 . S
H251 C247 0.930 . S
H252 C241 0.930 . S
H253 C270 0.930 . S
H254 C242 0.930 . S
H255 C243 0.930 . S
H256 C237 0.929 . S
H257 C275 0.930 . S
H258 C266 0.930 . S
H259 C267 0.930 . S
H260 C291 0.929 . S
H261 C249 0.930 . S
H262 C250 0.929 . S
H263 C292 0.930 . S
H264 C273 0.930 . S
N265 Gd234 2.661 . S
N265 C269 1.350 . S
N265 C270 1.307 . S
C266 H258 0.930 . S
C266 C267 1.355 . S
C266 C268 1.412 . S
C267 H259 0.930 . S
C267 C266 1.355 . S
C267 C270 1.402 . S
C268 C266 1.412 . S
C268 C269 1.417 . S
C268 C292 1.431 . S
C269 N265 1.350 . S
C269 C268 1.417 . S
C269 C272 1.426 . S
C270 H253 0.930 . S
C270 N265 1.307 . S
C270 C267 1.402 . S
N271 Gd234 2.601 . S
N271 C272 1.359 . S
N271 C275 1.334 . S
C272 C269 1.426 . S
C272 N271 1.359 . S
C272 C276 1.413 . S
C273 H264 0.930 . S
C273 C274 1.359 . S
C273 C275 1.394 . S
C274 C273 1.359 . S
C274 C276 1.391 . S
C274 H277 0.929 . S
C275 H257 0.930 . S
C275 N271 1.334 . S
C275 C273 1.394 . S
C276 C272 1.413 . S
C276 C274 1.391 . S
C276 C291 1.437 . S
H277 C274 0.929 . S
O278 Gd234 2.545 . S
O278 C293 1.258 1_545 S
O279 Gd234 2.606 1_565 S
O279 Gd235 2.362 1_554 S
O279 C290 1.284 . S
O280 Gd235 2.324 1_545 S
O280 C300 1.254 . S
O281 Gd234 2.429 . S
O281 C300 1.268 1_554 S
O282 Gd234 2.545 1_565 S
O282 C290 1.250 . S
O283 Gd234 2.412 1_565 S
O283 C293 1.252 . S
O284 Gd235 2.545 . S
O284 C302 1.258 1_565 S
O285 Gd234 2.362 . S
O285 Gd235 2.606 1_544 S
O285 C301 1.284 1_554 S
O286 Gd234 2.324 1_565 S
O286 C309 1.254 . S
O287 Gd235 2.429 . S
O287 C309 1.268 1_556 S
O288 Gd235 2.545 1_545 S
O288 C301 1.250 . S
O289 Gd235 2.412 1_545 S
O289 C302 1.252 . S
C290 O279 1.284 . S
C290 O282 1.250 . S
C291 H260 0.929 . S
C291 C276 1.437 . S
C291 C292 1.317 . S
C292 H263 0.930 . S
C292 C268 1.431 . S
C292 C291 1.317 . S
C293 Gd234 2.828 1_565 S
C293 O278 1.258 1_565 S
C293 O283 1.252 . S
C293 C294 1.497 . S
C294 C293 1.497 . S
C294 C295 1.395 1_565 S
C294 C296 1.380 . S
C295 C294 1.395 1_545 S
C295 C298 1.398 1_545 S
C295 H310 0.930 . S
C296 C294 1.380 . S
C296 C297 1.391 . S
C296 H311 0.930 . S
C297 C296 1.391 . S
C297 C299 1.387 . S
C298 C295 1.398 1_565 S
C298 C299 1.380 . S
C298 H312 0.930 1_565 S
C299 C297 1.387 . S
C299 C298 1.380 . S
C299 H313 0.930 . S
C300 O280 1.254 . S
C300 O281 1.268 1_556 S
C301 O285 1.284 1_556 S
C301 O288 1.250 . S
C302 Gd235 2.828 1_545 S
C302 O284 1.258 1_545 S
C302 O289 1.252 . S
C302 C303 1.497 . S
C303 C302 1.497 . S
C303 C304 1.395 1_545 S
C303 C305 1.380 . S
C304 C303 1.395 1_565 S
C304 C307 1.398 1_565 S
C304 H314 0.930 . S
C305 C303 1.380 . S
C305 C306 1.391 . S
C305 H315 0.930 . S
C306 C305 1.391 . S
C306 C308 1.387 . S
C307 C304 1.398 1_545 S
C307 C308 1.380 . S
C307 H316 0.930 1_545 S
C308 C306 1.387 . S
C308 C307 1.380 . S
C308 H317 0.930 . S
C309 O286 1.254 . S
C309 O287 1.268 1_554 S
H310 C295 0.930 . S
H311 C296 0.930 . S
H312 C298 0.930 1_545 S
H313 C299 0.930 . S
H314 C304 0.930 . S
H315 C305 0.930 . S
H316 C307 0.930 1_565 S
H317 C308 0.930 . S
Gd318 N349 2.661 . S
Gd318 N355 2.601 . S
Gd318 O362 2.545 . S
Gd318 O363 2.606 1_655 S
Gd318 O365 2.429 . S
Gd318 O366 2.545 1_655 S
Gd318 O367 2.412 . S
Gd318 O369 2.362 1_554 S
Gd318 O370 2.324 1_655 S
Gd318 C377 2.828 . S
Gd319 N328 2.661 . S
Gd319 N332 2.601 . S
Gd319 O363 2.362 1_556 S
Gd319 O364 2.324 1_455 S
Gd319 O368 2.545 . S
Gd319 O369 2.606 1_455 S
Gd319 O371 2.429 . S
Gd319 O372 2.545 1_455 S
Gd319 O373 2.412 . S
Gd319 C386 2.828 . S
C320 C323 1.417 . S
C320 C325 1.431 . S
C320 C326 1.412 . S
C321 C324 1.437 . S
C321 C325 1.317 . S
C321 H340 0.929 . S
C322 C323 1.426 . S
C322 C324 1.413 . S
C322 N332 1.359 . S
C323 C320 1.417 . S
C323 C322 1.426 . S
C323 N328 1.350 . S
C324 C321 1.437 . S
C324 C322 1.413 . S
C324 C334 1.391 . S
C325 C320 1.431 . S
C325 C321 1.317 . S
C325 H336 0.930 . S
C326 C320 1.412 . S
C326 C327 1.355 . S
C326 H338 0.930 . S
C327 C326 1.355 . S
C327 C329 1.402 . S
C327 H339 0.930 . S
N328 Gd319 2.661 . S
N328 C323 1.350 . S
N328 C329 1.307 . S
C329 C327 1.402 . S
C329 N328 1.307 . S
C329 H330 0.930 . S
H330 C329 0.930 . S
C331 N332 1.334 . S
C331 C333 1.394 . S
C331 H335 0.930 . S
N332 Gd319 2.601 . S
N332 C322 1.359 . S
N332 C331 1.334 . S
C333 C331 1.394 . S
C333 C334 1.359 . S
C333 H345 0.930 . S
C334 C324 1.391 . S
C334 C333 1.359 . S
C334 H346 0.929 . S
H335 C331 0.930 . S
H336 C325 0.930 . S
H337 C354 0.930 . S
H338 C326 0.930 . S
H339 C327 0.930 . S
H340 C321 0.929 . S
H341 C359 0.930 . S
H342 C350 0.930 . S
H343 C351 0.930 . S
H344 C375 0.929 . S
H345 C333 0.930 . S
H346 C334 0.929 . S
H347 C376 0.930 . S
H348 C357 0.930 . S
N349 Gd318 2.661 . S
N349 C353 1.350 . S
N349 C354 1.307 . S
C350 H342 0.930 . S
C350 C351 1.355 . S
C350 C352 1.412 . S
C351 H343 0.930 . S
C351 C350 1.355 . S
C351 C354 1.402 . S
C352 C350 1.412 . S
C352 C353 1.417 . S
C352 C376 1.431 . S
C353 N349 1.350 . S
C353 C352 1.417 . S
C353 C356 1.426 . S
C354 H337 0.930 . S
C354 N349 1.307 . S
C354 C351 1.402 . S
N355 Gd318 2.601 . S
N355 C356 1.359 . S
N355 C359 1.334 . S
C356 C353 1.426 . S
C356 N355 1.359 . S
C356 C360 1.413 . S
C357 H348 0.930 . S
C357 C358 1.359 . S
C357 C359 1.394 . S
C358 C357 1.359 . S
C358 C360 1.391 . S
C358 H361 0.929 . S
C359 H341 0.930 . S
C359 N355 1.334 . S
C359 C357 1.394 . S
C360 C356 1.413 . S
C360 C358 1.391 . S
C360 C375 1.437 . S
H361 C358 0.929 . S
O362 Gd318 2.545 . S
O362 C377 1.258 . S
O363 Gd318 2.606 1_455 S
O363 Gd319 2.362 1_554 S
O363 C374 1.284 . S
O364 Gd319 2.324 1_655 S
O364 C384 1.254 . S
O365 Gd318 2.429 . S
O365 C384 1.268 1_554 S
O366 Gd318 2.545 1_455 S
O366 C374 1.250 . S
O367 Gd318 2.412 . S
O367 C377 1.252 . S
O368 Gd319 2.545 . S
O368 C386 1.258 . S
O369 Gd318 2.362 1_556 S
O369 Gd319 2.606 1_655 S
O369 C385 1.284 . S
O370 Gd318 2.324 1_455 S
O370 C393 1.254 . S
O371 Gd319 2.429 . S
O371 C393 1.268 1_556 S
O372 Gd319 2.545 1_655 S
O372 C385 1.250 . S
O373 Gd319 2.412 . S
O373 C386 1.252 . S
C374 O363 1.284 . S
C374 O366 1.250 . S
C375 H344 0.929 . S
C375 C360 1.437 . S
C375 C376 1.317 . S
C376 H347 0.930 . S
C376 C352 1.431 . S
C376 C375 1.317 . S
C377 Gd318 2.828 . S
C377 O362 1.258 . S
C377 O367 1.252 . S
C377 C378 1.497 . S
C378 C377 1.497 . S
C378 C379 1.395 . S
C378 C380 1.380 1_655 S
C379 C378 1.395 . S
C379 C382 1.398 . S
C379 H394 0.930 . S
C380 C378 1.380 1_455 S
C380 C381 1.391 . S
C380 H395 0.930 . S
C381 C380 1.391 . S
C381 C383 1.387 1_455 S
C382 C379 1.398 . S
C382 C383 1.380 . S
C382 H396 0.930 . S
C383 C381 1.387 1_655 S
C383 C382 1.380 . S
C383 H397 0.930 . S
C384 O364 1.254 . S
C384 O365 1.268 1_556 S
C385 O369 1.284 . S
C385 O372 1.250 . S
C386 Gd319 2.828 . S
C386 O368 1.258 . S
C386 O373 1.252 . S
C386 C387 1.497 . S
C387 C386 1.497 . S
C387 C388 1.395 . S
C387 C389 1.380 1_455 S
C388 C387 1.395 . S
C388 C391 1.398 . S
C388 H398 0.930 . S
C389 C387 1.380 1_655 S
C389 C390 1.391 . S
C389 H399 0.930 . S
C390 C389 1.391 . S
C390 C392 1.387 1_655 S
C391 C388 1.398 . S
C391 C392 1.380 . S
C391 H400 0.930 . S
C392 C390 1.387 1_455 S
C392 C391 1.380 . S
C392 H401 0.930 . S
C393 O370 1.254 . S
C393 O371 1.268 1_554 S
H394 C379 0.930 . S
H395 C380 0.930 . S
H396 C382 0.930 . S
H397 C383 0.930 . S
H398 C388 0.930 . S
H399 C389 0.930 . S
H400 C391 0.930 . S
H401 C392 0.930 . S
Gd402 N433 2.661 . S
Gd402 N439 2.601 . S
Gd402 O446 2.545 . S
Gd402 O447 2.606 1_556 S
Gd402 O449 2.429 . S
Gd402 O450 2.545 . S
Gd402 O451 2.412 . S
Gd402 O453 2.362 1_556 S
Gd402 O454 2.324 . S
Gd402 C461 2.828 . S
Gd403 N412 2.661 . S
Gd403 N416 2.601 . S
Gd403 O447 2.362 . S
Gd403 O448 2.324 . S
Gd403 O452 2.545 . S
Gd403 O453 2.606 . S
Gd403 O455 2.429 . S
Gd403 O456 2.545 . S
Gd403 O457 2.412 . S
Gd403 C470 2.828 . S
C404 C407 1.417 . S
C404 C409 1.431 . S
C404 C410 1.412 . S
C405 C408 1.437 . S
C405 C409 1.317 . S
C405 H424 0.929 . S
C406 C407 1.426 . S
C406 C408 1.413 . S
C406 N416 1.359 . S
C407 C404 1.417 . S
C407 C406 1.426 . S
C407 N412 1.350 . S
C408 C405 1.437 . S
C408 C406 1.413 . S
C408 C418 1.391 . S
C409 C404 1.431 . S
C409 C405 1.317 . S
C409 H420 0.930 . S
C410 C404 1.412 . S
C410 C411 1.355 . S
C410 H422 0.930 . S
C411 C410 1.355 . S
C411 C413 1.402 . S
C411 H423 0.930 . S
N412 Gd403 2.661 . S
N412 C407 1.350 . S
N412 C413 1.307 . S
C413 C411 1.402 . S
C413 N412 1.307 . S
C413 H414 0.930 . S
H414 C413 0.930 . S
C415 N416 1.334 . S
C415 C417 1.394 . S
C415 H419 0.930 . S
N416 Gd403 2.601 . S
N416 C406 1.359 . S
N416 C415 1.334 . S
C417 C415 1.394 . S
C417 C418 1.359 . S
C417 H429 0.930 . S
C418 C408 1.391 . S
C418 C417 1.359 . S
C418 H430 0.929 . S
H419 C415 0.930 . S
H420 C409 0.930 . S
H421 C438 0.930 . S
H422 C410 0.930 . S
H423 C411 0.930 . S
H424 C405 0.929 . S
H425 C443 0.930 . S
H426 C434 0.930 . S
H427 C435 0.930 . S
H428 C459 0.929 . S
H429 C417 0.930 . S
H430 C418 0.929 . S
H431 C460 0.930 . S
H432 C441 0.930 . S
N433 Gd402 2.661 . S
N433 C437 1.350 . S
N433 C438 1.307 . S
C434 H426 0.930 . S
C434 C435 1.355 . S
C434 C436 1.412 . S
C435 H427 0.930 . S
C435 C434 1.355 . S
C435 C438 1.402 . S
C436 C434 1.412 . S
C436 C437 1.417 . S
C436 C460 1.431 . S
C437 N433 1.350 . S
C437 C436 1.417 . S
C437 C440 1.426 . S
C438 H421 0.930 . S
C438 N433 1.307 . S
C438 C435 1.402 . S
N439 Gd402 2.601 . S
N439 C440 1.359 . S
N439 C443 1.334 . S
C440 C437 1.426 . S
C440 N439 1.359 . S
C440 C444 1.413 . S
C441 H432 0.930 . S
C441 C442 1.359 . S
C441 C443 1.394 . S
C442 C441 1.359 . S
C442 C444 1.391 . S
C442 H445 0.929 . S
C443 H425 0.930 . S
C443 N439 1.334 . S
C443 C441 1.394 . S
C444 C440 1.413 . S
C444 C442 1.391 . S
C444 C459 1.437 . S
H445 C442 0.929 . S
O446 Gd402 2.545 . S
O446 C461 1.258 . S
O447 Gd402 2.606 1_554 S
O447 Gd403 2.362 . S
O447 C458 1.284 1_554 S
O448 Gd403 2.324 . S
O448 C468 1.254 . S
O449 Gd402 2.429 . S
O449 C468 1.268 1_556 S
O450 Gd402 2.545 . S
O450 C458 1.250 . S
O451 Gd402 2.412 . S
O451 C461 1.252 . S
O452 Gd403 2.545 . S
O452 C470 1.258 . S
O453 Gd402 2.362 1_554 S
O453 Gd403 2.606 . S
O453 C469 1.284 . S
O454 Gd402 2.324 . S
O454 C477 1.254 1_556 S
O455 Gd403 2.429 . S
O455 C477 1.268 . S
O456 Gd403 2.545 . S
O456 C469 1.250 . S
O457 Gd403 2.412 . S
O457 C470 1.252 . S
C458 O447 1.284 1_556 S
C458 O450 1.250 . S
C459 H428 0.929 . S
C459 C444 1.437 . S
C459 C460 1.317 . S
C460 H431 0.930 . S
C460 C436 1.431 . S
C460 C459 1.317 . S
C461 Gd402 2.828 . S
C461 O446 1.258 . S
C461 O451 1.252 . S
C461 C462 1.497 . S
C462 C461 1.497 . S
C462 C463 1.395 . S
C462 C464 1.380 . S
C463 C462 1.395 . S
C463 C466 1.398 . S
C463 H478 0.930 . S
C464 C462 1.380 . S
C464 C465 1.391 . S
C464 H479 0.930 . S
C465 C464 1.391 . S
C465 C467 1.387 . S
C466 C463 1.398 . S
C466 C467 1.380 . S
C466 H480 0.930 . S
C467 C465 1.387 . S
C467 C466 1.380 . S
C467 H481 0.930 . S
C468 O448 1.254 . S
C468 O449 1.268 1_554 S
C469 O453 1.284 . S
C469 O456 1.250 . S
C470 Gd403 2.828 . S
C470 O452 1.258 . S
C470 O457 1.252 . S
C470 C471 1.497 . S
C471 C470 1.497 . S
C471 C472 1.395 . S
C471 C473 1.380 . S
C472 C471 1.395 . S
C472 C475 1.398 . S
C472 H482 0.930 . S
C473 C471 1.380 . S
C473 C474 1.391 . S
C473 H483 0.930 . S
C474 C473 1.391 . S
C474 C476 1.387 . S
C475 C472 1.398 . S
C475 C476 1.380 . S
C475 H484 0.930 . S
C476 C474 1.387 . S
C476 C475 1.380 . S
C476 H485 0.930 . S
C477 O454 1.254 1_554 S
C477 O455 1.268 . S
H478 C463 0.930 . S
H479 C464 0.930 . S
H480 C466 0.930 . S
H481 C467 0.930 . S
H482 C472 0.930 . S
H483 C473 0.930 . S
H484 C475 0.930 . S
H485 C476 0.930 . S
Gd486 N517 2.661 . S
Gd486 N523 2.601 . S
Gd486 O530 2.545 . S
Gd486 O531 2.606 . S
Gd486 O533 2.429 . S
Gd486 O534 2.545 . S
Gd486 O535 2.412 . S
Gd486 O537 2.362 . S
Gd486 O538 2.324 . S
Gd486 C545 2.828 . S
Gd487 N496 2.661 . S
Gd487 N500 2.601 . S
Gd487 O531 2.362 . S
Gd487 O532 2.324 . S
Gd487 O536 2.545 . S
Gd487 O537 2.606 . S
Gd487 O539 2.429 . S
Gd487 O540 2.545 . S
Gd487 O541 2.412 . S
Gd487 C554 2.828 . S
C488 C491 1.417 . S
C488 C493 1.431 . S
C488 C494 1.412 . S
C489 C492 1.437 . S
C489 C493 1.317 . S
C489 H508 0.929 1_545 S
C490 C491 1.426 1_455 S
C490 C492 1.413 1_455 S
C490 N500 1.359 . S
C491 C488 1.417 . S
C491 C490 1.426 1_655 S
C491 N496 1.350 1_655 S
C492 C489 1.437 . S
C492 C490 1.413 1_655 S
C492 C502 1.391 1_655 S
C493 C488 1.431 . S
C493 C489 1.317 . S
C493 H504 0.930 . S
C494 C488 1.412 . S
C494 C495 1.355 . S
C494 H506 0.930 . S
C495 C494 1.355 . S
C495 C497 1.402 . S
C495 H507 0.930 . S
N496 Gd487 2.661 . S
N496 C491 1.350 1_455 S
N496 C497 1.307 1_455 S
C497 C495 1.402 . S
C497 N496 1.307 1_655 S
C497 H498 0.930 . S
H498 C497 0.930 . S
C499 N500 1.334 . S
C499 C501 1.394 . S
C499 H503 0.930 . S
N500 Gd487 2.601 . S
N500 C490 1.359 . S
N500 C499 1.334 . S
C501 C499 1.394 . S
C501 C502 1.359 . S
C501 H513 0.930 . S
C502 C492 1.391 1_455 S
C502 C501 1.359 . S
C502 H514 0.931 . S
H503 C499 0.930 . S
H504 C493 0.930 . S
H505 C522 0.930 . S
H506 C494 0.930 . S
H507 C495 0.930 . S
H508 C489 0.929 1_565 S
H509 C527 0.930 . S
H510 C518 0.930 . S
H511 C519 0.930 . S
H512 C543 0.929 . S
H513 C501 0.930 . S
H514 C502 0.931 . S
H515 C544 0.930 . S
H516 C525 0.930 . S
N517 Gd486 2.661 . S
N517 C521 1.350 . S
N517 C522 1.307 . S
C518 H510 0.930 . S
C518 C519 1.355 . S
C518 C520 1.412 . S
C519 H511 0.930 . S
C519 C518 1.355 . S
C519 C522 1.402 . S
C520 C518 1.412 . S
C520 C521 1.417 . S
C520 C544 1.431 . S
C521 N517 1.350 . S
C521 C520 1.417 . S
C521 C524 1.426 . S
C522 H505 0.930 . S
C522 N517 1.307 . S
C522 C519 1.402 . S
N523 Gd486 2.601 . S
N523 C524 1.359 . S
N523 C527 1.334 . S
C524 C521 1.426 . S
C524 N523 1.359 . S
C524 C528 1.413 . S
C525 H516 0.930 . S
C525 C526 1.359 . S
C525 C527 1.394 . S
C526 C525 1.359 . S
C526 C528 1.391 . S
C526 H529 0.929 . S
C527 H509 0.930 . S
C527 N523 1.334 . S
C527 C525 1.394 . S
C528 C524 1.413 . S
C528 C526 1.391 . S
C528 C543 1.437 . S
H529 C526 0.929 . S
O530 Gd486 2.545 . S
O530 C545 1.258 . S
O531 Gd486 2.606 . S
O531 Gd487 2.362 . S
O531 C542 1.284 . S
O532 Gd487 2.324 . S
O532 C552 1.254 . S
O533 Gd486 2.429 . S
O533 C552 1.268 . S
O534 Gd486 2.545 . S
O534 C542 1.250 . S
O535 Gd486 2.412 . S
O535 C545 1.252 . S
O536 Gd487 2.545 . S
O536 C554 1.258 . S
O537 Gd486 2.362 . S
O537 Gd487 2.606 . S
O537 C553 1.284 . S
O538 Gd486 2.324 . S
O538 C561 1.254 . S
O539 Gd487 2.429 . S
O539 C561 1.268 . S
O540 Gd487 2.545 . S
O540 C553 1.250 . S
O541 Gd487 2.412 . S
O541 C554 1.252 . S
C542 O531 1.284 . S
C542 O534 1.250 . S
C543 H512 0.929 . S
C543 C528 1.437 . S
C543 C544 1.317 . S
C544 H515 0.930 . S
C544 C520 1.431 . S
C544 C543 1.317 . S
C545 Gd486 2.828 . S
C545 O530 1.258 . S
C545 O535 1.252 . S
C545 C546 1.497 . S
C546 C545 1.497 . S
C546 C547 1.395 . S
C546 C548 1.380 . S
C547 C546 1.395 . S
C547 C550 1.398 . S
C547 H562 0.930 . S
C548 C546 1.380 . S
C548 C549 1.391 . S
C548 H563 0.930 . S
C549 C548 1.391 . S
C549 C551 1.387 . S
C550 C547 1.398 . S
C550 C551 1.380 . S
C550 H564 0.930 . S
C551 C549 1.387 . S
C551 C550 1.380 . S
C551 H565 0.930 . S
C552 O532 1.254 . S
C552 O533 1.268 . S
C553 O537 1.284 . S
C553 O540 1.250 . S
C554 Gd487 2.828 . S
C554 O536 1.258 . S
C554 O541 1.252 . S
C554 C555 1.497 . S
C555 C554 1.497 . S
C555 C556 1.395 . S
C555 C557 1.380 . S
C556 C555 1.395 . S
C556 C559 1.398 . S
C556 H566 0.930 . S
C557 C555 1.380 . S
C557 C558 1.391 . S
C557 H567 0.930 . S
C558 C557 1.391 . S
C558 C560 1.387 . S
C559 C556 1.398 . S
C559 C560 1.380 . S
C559 H568 0.930 . S
C560 C558 1.387 . S
C560 C559 1.380 . S
C560 H569 0.930 . S
C561 O538 1.254 . S
C561 O539 1.268 . S
H562 C547 0.930 . S
H563 C548 0.930 . S
H564 C550 0.930 . S
H565 C551 0.930 . S
H566 C556 0.930 . S
H567 C557 0.930 . S
H568 C559 0.930 . S
H569 C560 0.930 . S
Gd570 N601 2.661 . S
Gd570 N607 2.601 . S
Gd570 O614 2.545 . S
Gd570 O615 2.606 . S
Gd570 O617 2.429 . S
Gd570 O618 2.545 . S
Gd570 O619 2.412 . S
Gd570 O621 2.362 . S
Gd570 O622 2.324 . S
Gd570 C629 2.828 . S
Gd571 N580 2.661 . S
Gd571 N584 2.601 . S
Gd571 O615 2.362 . S
Gd571 O616 2.324 . S
Gd571 O620 2.545 . S
Gd571 O621 2.606 . S
Gd571 O623 2.429 1_565 S
Gd571 O624 2.545 . S
Gd571 O625 2.412 . S
Gd571 C638 2.828 . S
C572 C575 1.417 . S
C572 C577 1.431 1_655 S
C572 C578 1.412 . S
C573 C576 1.437 . S
C573 C577 1.317 1_545 S
C573 H592 0.929 . S
C574 C575 1.426 . S
C574 C576 1.413 1_665 S
C574 N584 1.359 . S
C575 C572 1.417 . S
C575 C574 1.426 . S
C575 N580 1.350 . S
C576 C573 1.437 . S
C576 C574 1.413 1_445 S
C576 C586 1.391 . S
C577 C572 1.431 1_455 S
C577 C573 1.317 1_565 S
C577 H588 0.930 . S
C578 C572 1.412 . S
C578 C579 1.355 . S
C578 H590 0.930 1_655 S
C579 C578 1.355 . S
C579 C581 1.402 . S
C579 H591 0.930 . S
N580 Gd571 2.661 . S
N580 C575 1.350 . S
N580 C581 1.307 . S
C581 C579 1.402 . S
C581 N580 1.307 . S
C581 H582 0.930 . S
H582 C581 0.930 . S
C583 N584 1.334 1_545 S
C583 C585 1.394 . S
C583 H587 0.930 . S
N584 Gd571 2.601 . S
N584 C574 1.359 . S
N584 C583 1.334 1_565 S
C585 C583 1.394 . S
C585 C586 1.359 1_655 S
C585 H597 0.930 . S
C586 C576 1.391 . S
C586 C585 1.359 1_455 S
C586 H598 0.929 . S
H587 C583 0.930 . S
H588 C577 0.930 . S
H589 C606 0.930 . S
H590 C578 0.930 1_455 S
H591 C579 0.930 . S
H592 C573 0.929 . S
H593 C611 0.930 . S
H594 C602 0.930 . S
H595 C603 0.930 1_545 S
H596 C627 0.929 . S
H597 C585 0.930 . S
H598 C586 0.929 . S
H599 C628 0.930 . S
H600 C609 0.930 . S
N601 Gd570 2.661 . S
N601 C605 1.350 . S
N601 C606 1.307 . S
C602 H594 0.930 . S
C602 C603 1.355 . S
C602 C604 1.412 . S
C603 H595 0.930 1_565 S
C603 C602 1.355 . S
C603 C606 1.402 . S
C604 C602 1.412 . S
C604 C605 1.417 . S
C604 C628 1.431 . S
C605 N601 1.350 . S
C605 C604 1.417 . S
C605 C608 1.426 . S
C606 H589 0.930 . S
C606 N601 1.307 . S
C606 C603 1.402 . S
N607 Gd570 2.601 . S
N607 C608 1.359 . S
N607 C611 1.334 . S
C608 C605 1.426 . S
C608 N607 1.359 . S
C608 C612 1.413 . S
C609 H600 0.930 . S
C609 C610 1.359 . S
C609 C611 1.394 . S
C610 C609 1.359 . S
C610 C612 1.391 . S
C610 H613 0.929 . S
C611 H593 0.930 . S
C611 N607 1.334 . S
C611 C609 1.394 . S
C612 C608 1.413 . S
C612 C610 1.391 . S
C612 C627 1.437 . S
H613 C610 0.929 . S
O614 Gd570 2.545 . S
O614 C629 1.258 . S
O615 Gd570 2.606 . S
O615 Gd571 2.362 . S
O615 C626 1.284 . S
O616 Gd571 2.324 . S
O616 C636 1.254 . S
O617 Gd570 2.429 . S
O617 C636 1.268 . S
O618 Gd570 2.545 . S
O618 C626 1.250 . S
O619 Gd570 2.412 . S
O619 C629 1.252 . S
O620 Gd571 2.545 . S
O620 C638 1.258 . S
O621 Gd570 2.362 . S
O621 Gd571 2.606 . S
O621 C637 1.284 . S
O622 Gd570 2.324 . S
O622 C645 1.254 1_565 S
O623 Gd571 2.429 1_545 S
O623 C645 1.268 . S
O624 Gd571 2.545 . S
O624 C637 1.250 . S
O625 Gd571 2.412 . S
O625 C638 1.252 . S
C626 O615 1.284 . S
C626 O618 1.250 . S
C627 H596 0.929 . S
C627 C612 1.437 . S
C627 C628 1.317 . S
C628 H599 0.930 . S
C628 C604 1.431 . S
C628 C627 1.317 . S
C629 Gd570 2.828 . S
C629 O614 1.258 . S
C629 O619 1.252 . S
C629 C630 1.497 . S
C630 C629 1.497 . S
C630 C631 1.395 . S
C630 C632 1.380 . S
C631 C630 1.395 . S
C631 C634 1.398 . S
C631 H646 0.930 . S
C632 C630 1.380 . S
C632 C633 1.391 . S
C632 H647 0.930 . S
C633 C632 1.391 . S
C633 C635 1.387 . S
C634 C631 1.398 . S
C634 C635 1.380 . S
C634 H648 0.930 . S
C635 C633 1.387 . S
C635 C634 1.380 . S
C635 H649 0.930 . S
C636 O616 1.254 . S
C636 O617 1.268 . S
C637 O621 1.284 . S
C637 O624 1.250 . S
C638 Gd571 2.828 . S
C638 O620 1.258 . S
C638 O625 1.252 . S
C638 C639 1.497 . S
C639 C638 1.497 . S
C639 C640 1.395 . S
C639 C641 1.380 . S
C640 C639 1.395 . S
C640 C643 1.398 . S
C640 H650 0.930 1_565 S
C641 C639 1.380 . S
C641 C642 1.391 . S
C641 H651 0.930 . S
C642 C641 1.391 . S
C642 C644 1.387 . S
C643 C640 1.398 . S
C643 C644 1.380 . S
C643 H652 0.930 1_565 S
C644 C642 1.387 . S
C644 C643 1.380 . S
C644 H653 0.930 . S
C645 O622 1.254 1_545 S
C645 O623 1.268 . S
H646 C631 0.930 . S
H647 C632 0.930 . S
H648 C634 0.930 . S
H649 C635 0.930 . S
H650 C640 0.930 1_545 S
H651 C641 0.930 . S
H652 C643 0.930 1_545 S
H653 C644 0.930 . S
Gd654 N685 2.661 1_455 S
Gd654 N691 2.601 . S
Gd654 O698 2.545 . S
Gd654 O699 2.606 . S
Gd654 O701 2.429 . S
Gd654 O702 2.545 . S
Gd654 O703 2.412 . S
Gd654 O705 2.362 . S
Gd654 O706 2.324 . S
Gd654 C713 2.828 . S
Gd655 N664 2.661 . S
Gd655 N668 2.601 . S
Gd655 O699 2.362 . S
Gd655 O700 2.324 . S
Gd655 O704 2.545 . S
Gd655 O705 2.606 . S
Gd655 O707 2.429 . S
Gd655 O708 2.545 . S
Gd655 O709 2.412 . S
Gd655 C722 2.828 . S
C656 C659 1.417 . S
C656 C661 1.431 . S
C656 C662 1.412 . S
C657 C660 1.437 . S
C657 C661 1.317 . S
C657 H676 0.929 . S
C658 C659 1.426 . S
C658 C660 1.413 . S
C658 N668 1.359 . S
C659 C656 1.417 . S
C659 C658 1.426 . S
C659 N664 1.350 . S
C660 C657 1.437 . S
C660 C658 1.413 . S
C660 C670 1.391 . S
C661 C656 1.431 . S
C661 C657 1.317 . S
C661 H672 0.930 . S
C662 C656 1.412 . S
C662 C663 1.355 . S
C662 H674 0.930 . S
C663 C662 1.355 . S
C663 C665 1.402 . S
C663 H675 0.930 . S
N664 Gd655 2.661 . S
N664 C659 1.350 . S
N664 C665 1.307 . S
C665 C663 1.402 . S
C665 N664 1.307 . S
C665 H666 0.930 . S
H666 C665 0.930 . S
C667 N668 1.334 . S
C667 C669 1.394 . S
C667 H671 0.930 . S
N668 Gd655 2.601 . S
N668 C658 1.359 . S
N668 C667 1.334 . S
C669 C667 1.394 . S
C669 C670 1.359 . S
C669 H681 0.930 . S
C670 C660 1.391 . S
C670 C669 1.359 . S
C670 H682 0.929 . S
H671 C667 0.930 . S
H672 C661 0.930 . S
H673 C690 0.930 . S
H674 C662 0.930 . S
H675 C663 0.930 . S
H676 C657 0.929 . S
H677 C695 0.930 . S
H678 C686 0.930 . S
H679 C687 0.930 . S
H680 C711 0.929 . S
H681 C669 0.930 . S
H682 C670 0.929 . S
H683 C712 0.930 . S
H684 C693 0.930 . S
N685 Gd654 2.661 1_655 S
N685 C689 1.350 . S
N685 C690 1.307 . S
C686 H678 0.930 . S
C686 C687 1.355 . S
C686 C688 1.412 . S
C687 H679 0.930 . S
C687 C686 1.355 . S
C687 C690 1.402 . S
C688 C686 1.412 . S
C688 C689 1.417 . S
C688 C712 1.431 . S
C689 N685 1.350 . S
C689 C688 1.417 . S
C689 C692 1.426 . S
C690 H673 0.930 . S
C690 N685 1.307 . S
C690 C687 1.402 . S
N691 Gd654 2.601 . S
N691 C692 1.359 1_455 S
N691 C695 1.334 1_565 S
C692 C689 1.426 . S
C692 N691 1.359 1_655 S
C692 C696 1.413 . S
C693 H684 0.930 . S
C693 C694 1.359 . S
C693 C695 1.394 . S
C694 C693 1.359 . S
C694 C696 1.391 1_445 S
C694 H697 0.929 . S
C695 H677 0.930 . S
C695 N691 1.334 1_545 S
C695 C693 1.394 . S
C696 C692 1.413 . S
C696 C694 1.391 1_665 S
C696 C711 1.437 . S
H697 C694 0.929 . S
O698 Gd654 2.545 . S
O698 C713 1.258 . S
O699 Gd654 2.606 . S
O699 Gd655 2.362 . S
O699 C710 1.284 . S
O700 Gd655 2.324 . S
O700 C720 1.254 . S
O701 Gd654 2.429 . S
O701 C720 1.268 . S
O702 Gd654 2.545 . S
O702 C710 1.250 . S
O703 Gd654 2.412 . S
O703 C713 1.252 . S
O704 Gd655 2.545 . S
O704 C722 1.258 . S
O705 Gd654 2.362 . S
O705 Gd655 2.606 . S
O705 C721 1.284 . S
O706 Gd654 2.324 . S
O706 C729 1.254 . S
O707 Gd655 2.429 . S
O707 C729 1.268 . S
O708 Gd655 2.545 . S
O708 C721 1.250 . S
O709 Gd655 2.412 . S
O709 C722 1.252 . S
C710 O699 1.284 . S
C710 O702 1.250 . S
C711 H680 0.929 . S
C711 C696 1.437 . S
C711 C712 1.317 . S
C712 H683 0.930 . S
C712 C688 1.431 . S
C712 C711 1.317 . S
C713 Gd654 2.828 . S
C713 O698 1.258 . S
C713 O703 1.252 . S
C713 C714 1.497 . S
C714 C713 1.497 . S
C714 C715 1.395 . S
C714 C716 1.380 . S
C715 C714 1.395 . S
C715 C718 1.398 . S
C715 H730 0.930 . S
C716 C714 1.380 . S
C716 C717 1.391 . S
C716 H731 0.930 . S
C717 C716 1.391 . S
C717 C719 1.387 . S
C718 C715 1.398 . S
C718 C719 1.380 . S
C718 H732 0.930 . S
C719 C717 1.387 . S
C719 C718 1.380 . S
C719 H733 0.930 . S
C720 O700 1.254 . S
C720 O701 1.268 . S
C721 O705 1.284 . S
C721 O708 1.250 . S
C722 Gd655 2.828 . S
C722 O704 1.258 . S
C722 O709 1.252 . S
C722 C723 1.497 . S
C723 C722 1.497 . S
C723 C724 1.395 . S
C723 C725 1.380 . S
C724 C723 1.395 . S
C724 C727 1.398 . S
C724 H734 0.930 . S
C725 C723 1.380 . S
C725 C726 1.391 . S
C725 H735 0.930 . S
C726 C725 1.391 . S
C726 C728 1.387 . S
C727 C724 1.398 . S
C727 C728 1.380 . S
C727 H736 0.930 . S
C728 C726 1.387 . S
C728 C727 1.380 . S
C728 H737 0.930 . S
C729 O706 1.254 . S
C729 O707 1.268 . S
H730 C715 0.930 . S
H731 C716 0.930 . S
H732 C718 0.930 . S
H733 C719 0.930 . S
H734 C724 0.930 . S
H735 C725 0.930 . S
H736 C727 0.930 . S
H737 C728 0.930 . S
Gd738 N769 2.661 1_655 S
Gd738 N775 2.601 . S
Gd738 O782 2.545 . S
Gd738 O783 2.606 . S
Gd738 O785 2.429 . S
Gd738 O786 2.545 . S
Gd738 O787 2.412 . S
Gd738 O789 2.362 . S
Gd738 O790 2.324 . S
Gd738 C797 2.828 . S
Gd739 N748 2.661 . S
Gd739 N752 2.601 . S
Gd739 O783 2.362 . S
Gd739 O784 2.324 . S
Gd739 O788 2.545 . S
Gd739 O789 2.606 . S
Gd739 O791 2.429 . S
Gd739 O792 2.545 1_655 S
Gd739 O793 2.412 . S
Gd739 C806 2.828 . S
C740 C743 1.417 . S
C740 C745 1.431 . S
C740 C746 1.412 . S
C741 C744 1.437 . S
C741 C745 1.317 . S
C741 H760 0.929 . S
C742 C743 1.426 . S
C742 C744 1.413 . S
C742 N752 1.359 . S
C743 C740 1.417 . S
C743 C742 1.426 . S
C743 N748 1.350 . S
C744 C741 1.437 . S
C744 C742 1.413 . S
C744 C754 1.391 . S
C745 C740 1.431 . S
C745 C741 1.317 . S
C745 H756 0.930 . S
C746 C740 1.412 . S
C746 C747 1.355 . S
C746 H758 0.930 . S
C747 C746 1.355 . S
C747 C749 1.402 . S
C747 H759 0.930 . S
N748 Gd739 2.661 . S
N748 C743 1.350 . S
N748 C749 1.307 . S
C749 C747 1.402 . S
C749 N748 1.307 . S
C749 H750 0.930 . S
H750 C749 0.930 . S
C751 N752 1.334 . S
C751 C753 1.394 . S
C751 H755 0.930 . S
N752 Gd739 2.601 . S
N752 C742 1.359 . S
N752 C751 1.334 . S
C753 C751 1.394 . S
C753 C754 1.359 . S
C753 H765 0.930 . S
C754 C744 1.391 . S
C754 C753 1.359 . S
C754 H766 0.929 . S
H755 C751 0.930 . S
H756 C745 0.930 . S
H757 C774 0.930 . S
H758 C746 0.930 . S
H759 C747 0.930 . S
H760 C741 0.929 . S
H761 C779 0.930 . S
H762 C770 0.930 . S
H763 C771 0.930 . S
H764 C795 0.929 1_545 S
H765 C753 0.930 . S
H766 C754 0.929 . S
H767 C796 0.930 . S
H768 C777 0.930 . S
N769 Gd738 2.661 1_455 S
N769 C773 1.350 . S
N769 C774 1.307 . S
C770 H762 0.930 . S
C770 C771 1.355 . S
C770 C772 1.412 . S
C771 H763 0.930 . S
C771 C770 1.355 . S
C771 C774 1.402 . S
C772 C770 1.412 . S
C772 C773 1.417 . S
C772 C796 1.431 . S
C773 N769 1.350 . S
C773 C772 1.417 . S
C773 C776 1.426 . S
C774 H757 0.930 . S
C774 N769 1.307 . S
C774 C771 1.402 . S
N775 Gd738 2.601 . S
N775 C776 1.359 1_655 S
N775 C779 1.334 . S
C776 C773 1.426 . S
C776 N775 1.359 1_455 S
C776 C780 1.413 . S
C777 H768 0.930 . S
C777 C778 1.359 1_655 S
C777 C779 1.394 . S
C778 C777 1.359 1_455 S
C778 C780 1.391 . S
C778 H781 0.929 1_565 S
C779 H761 0.930 . S
C779 N775 1.334 . S
C779 C777 1.394 . S
C780 C776 1.413 . S
C780 C778 1.391 . S
C780 C795 1.437 . S
H781 C778 0.929 1_545 S
O782 Gd738 2.545 . S
O782 C797 1.258 . S
O783 Gd738 2.606 . S
O783 Gd739 2.362 . S
O783 C794 1.284 . S
O784 Gd739 2.324 . S
O784 C804 1.254 . S
O785 Gd738 2.429 . S
O785 C804 1.268 . S
O786 Gd738 2.545 . S
O786 C794 1.250 . S
O787 Gd738 2.412 . S
O787 C797 1.252 . S
O788 Gd739 2.545 . S
O788 C806 1.258 . S
O789 Gd738 2.362 . S
O789 Gd739 2.606 . S
O789 C805 1.284 1_655 S
O790 Gd738 2.324 . S
O790 C813 1.254 . S
O791 Gd739 2.429 . S
O791 C813 1.268 . S
O792 Gd739 2.545 1_455 S
O792 C805 1.250 . S
O793 Gd739 2.412 . S
O793 C806 1.252 . S
C794 O783 1.284 . S
C794 O786 1.250 . S
C795 H764 0.929 1_565 S
C795 C780 1.437 . S
C795 C796 1.317 . S
C796 H767 0.930 . S
C796 C772 1.431 . S
C796 C795 1.317 . S
C797 Gd738 2.828 . S
C797 O782 1.258 . S
C797 O787 1.252 . S
C797 C798 1.497 . S
C798 C797 1.497 . S
C798 C799 1.395 . S
C798 C800 1.380 . S
C799 C798 1.395 . S
C799 C802 1.398 . S
C799 H814 0.930 . S
C800 C798 1.380 . S
C800 C801 1.391 . S
C800 H815 0.930 . S
C801 C800 1.391 . S
C801 C803 1.387 . S
C802 C799 1.398 . S
C802 C803 1.380 . S
C802 H816 0.930 . S
C803 C801 1.387 . S
C803 C802 1.380 . S
C803 H817 0.930 . S
C804 O784 1.254 . S
C804 O785 1.268 . S
C805 O789 1.284 1_455 S
C805 O792 1.250 . S
C806 Gd739 2.828 . S
C806 O788 1.258 . S
C806 O793 1.252 . S
C806 C807 1.497 . S
C807 C806 1.497 . S
C807 C808 1.395 . S
C807 C809 1.380 . S
C808 C807 1.395 . S
C808 C811 1.398 . S
C808 H818 0.930 . S
C809 C807 1.380 . S
C809 C810 1.391 . S
C809 H819 0.930 . S
C810 C809 1.391 . S
C810 C812 1.387 . S
C811 C808 1.398 . S
C811 C812 1.380 . S
C811 H820 0.930 . S
C812 C810 1.387 . S
C812 C811 1.380 . S
C812 H821 0.930 . S
C813 O790 1.254 . S
C813 O791 1.268 . S
H814 C799 0.930 . S
H815 C800 0.930 . S
H816 C802 0.930 . S
H817 C803 0.930 . S
H818 C808 0.930 . S
H819 C809 0.930 . S
H820 C811 0.930 . S
H821 C812 0.930 . S
Gd822 N853 2.661 . S
Gd822 N859 2.601 . S
Gd822 O866 2.545 . S
Gd822 O867 2.606 . S
Gd822 O869 2.429 . S
Gd822 O870 2.545 . S
Gd822 O871 2.412 . S
Gd822 O873 2.362 . S
Gd822 O874 2.324 . S
Gd822 C881 2.828 . S
Gd823 N832 2.661 . S
Gd823 N836 2.601 . S
Gd823 O867 2.362 . S
Gd823 O868 2.324 . S
Gd823 O872 2.545 . S
Gd823 O873 2.606 . S
Gd823 O875 2.429 . S
Gd823 O876 2.545 . S
Gd823 O877 2.412 . S
Gd823 C890 2.828 . S
C824 C827 1.417 . S
C824 C829 1.431 . S
C824 C830 1.412 . S
C825 C828 1.437 . S
C825 C829 1.317 . S
C825 H844 0.929 . S
C826 C827 1.426 . S
C826 C828 1.413 . S
C826 N836 1.359 . S
C827 C824 1.417 . S
C827 C826 1.426 . S
C827 N832 1.350 . S
C828 C825 1.437 . S
C828 C826 1.413 . S
C828 C838 1.391 . S
C829 C824 1.431 . S
C829 C825 1.317 . S
C829 H840 0.930 . S
C830 C824 1.412 . S
C830 C831 1.355 . S
C830 H842 0.930 . S
C831 C830 1.355 . S
C831 C833 1.402 . S
C831 H843 0.930 . S
N832 Gd823 2.661 . S
N832 C827 1.350 . S
N832 C833 1.307 . S
C833 C831 1.402 . S
C833 N832 1.307 . S
C833 H834 0.930 . S
H834 C833 0.930 . S
C835 N836 1.334 . S
C835 C837 1.394 . S
C835 H839 0.930 . S
N836 Gd823 2.601 . S
N836 C826 1.359 . S
N836 C835 1.334 . S
C837 C835 1.394 . S
C837 C838 1.359 . S
C837 H849 0.930 . S
C838 C828 1.391 . S
C838 C837 1.359 . S
C838 H850 0.929 . S
H839 C835 0.930 . S
H840 C829 0.930 . S
H841 C858 0.930 . S
H842 C830 0.930 . S
H843 C831 0.930 . S
H844 C825 0.929 . S
H845 C863 0.930 . S
H846 C854 0.930 1_655 S
H847 C855 0.930 . S
H848 C879 0.929 . S
H849 C837 0.930 . S
H850 C838 0.929 . S
H851 C880 0.930 . S
H852 C861 0.930 . S
N853 Gd822 2.661 . S
N853 C857 1.350 . S
N853 C858 1.307 . S
C854 H846 0.930 1_455 S
C854 C855 1.355 . S
C854 C856 1.412 . S
C855 H847 0.930 . S
C855 C854 1.355 . S
C855 C858 1.402 . S
C856 C854 1.412 . S
C856 C857 1.417 . S
C856 C880 1.431 1_455 S
C857 N853 1.350 . S
C857 C856 1.417 . S
C857 C860 1.426 . S
C858 H841 0.930 . S
C858 N853 1.307 . S
C858 C855 1.402 . S
N859 Gd822 2.601 . S
N859 C860 1.359 . S
N859 C863 1.334 1_545 S
C860 C857 1.426 . S
C860 N859 1.359 . S
C860 C864 1.413 1_455 S
C861 H852 0.930 . S
C861 C862 1.359 1_455 S
C861 C863 1.394 . S
C862 C861 1.359 1_655 S
C862 C864 1.391 1_565 S
C862 H865 0.929 . S
C863 H845 0.930 . S
C863 N859 1.334 1_565 S
C863 C861 1.394 . S
C864 C860 1.413 1_655 S
C864 C862 1.391 1_545 S
C864 C879 1.437 . S
H865 C862 0.929 . S
O866 Gd822 2.545 . S
O866 C881 1.258 . S
O867 Gd822 2.606 . S
O867 Gd823 2.362 . S
O867 C878 1.284 . S
O868 Gd823 2.324 . S
O868 C888 1.254 . S
O869 Gd822 2.429 . S
O869 C888 1.268 . S
O870 Gd822 2.545 . S
O870 C878 1.250 . S
O871 Gd822 2.412 . S
O871 C881 1.252 . S
O872 Gd823 2.545 . S
O872 C890 1.258 . S
O873 Gd822 2.362 . S
O873 Gd823 2.606 . S
O873 C889 1.284 . S
O874 Gd822 2.324 . S
O874 C897 1.254 . S
O875 Gd823 2.429 . S
O875 C897 1.268 . S
O876 Gd823 2.545 . S
O876 C889 1.250 . S
O877 Gd823 2.412 . S
O877 C890 1.252 . S
C878 O867 1.284 . S
C878 O870 1.250 . S
C879 H848 0.929 . S
C879 C864 1.437 . S
C879 C880 1.317 . S
C880 H851 0.930 . S
C880 C856 1.431 1_655 S
C880 C879 1.317 . S
C881 Gd822 2.828 . S
C881 O866 1.258 . S
C881 O871 1.252 . S
C881 C882 1.497 . S
C882 C881 1.497 . S
C882 C883 1.395 . S
C882 C884 1.380 . S
C883 C882 1.395 . S
C883 C886 1.398 . S
C883 H898 0.930 . S
C884 C882 1.380 . S
C884 C885 1.391 . S
C884 H899 0.930 . S
C885 C884 1.391 . S
C885 C887 1.387 . S
C886 C883 1.398 . S
C886 C887 1.380 . S
C886 H900 0.930 . S
C887 C885 1.387 . S
C887 C886 1.380 . S
C887 H901 0.930 . S
C888 O868 1.254 . S
C888 O869 1.268 . S
C889 O873 1.284 . S
C889 O876 1.250 . S
C890 Gd823 2.828 . S
C890 O872 1.258 . S
C890 O877 1.252 . S
C890 C891 1.497 . S
C891 C890 1.497 . S
C891 C892 1.395 . S
C891 C893 1.380 . S
C892 C891 1.395 . S
C892 C895 1.398 . S
C892 H902 0.930 . S
C893 C891 1.380 . S
C893 C894 1.391 . S
C893 H903 0.930 . S
C894 C893 1.391 . S
C894 C896 1.387 . S
C895 C892 1.398 . S
C895 C896 1.380 . S
C895 H904 0.930 . S
C896 C894 1.387 . S
C896 C895 1.380 . S
C896 H905 0.930 . S
C897 O874 1.254 . S
C897 O875 1.268 . S
H898 C883 0.930 . S
H899 C884 0.930 . S
H900 C886 0.930 . S
H901 C887 0.930 . S
H902 C892 0.930 . S
H903 C893 0.930 . S
H904 C895 0.930 . S
H905 C896 0.930 . S
Gd906 N937 2.661 . S
Gd906 N943 2.601 . S
Gd906 O950 2.545 . S
Gd906 O951 2.606 . S
Gd906 O953 2.429 . S
Gd906 O954 2.545 . S
Gd906 O955 2.412 . S
Gd906 O957 2.362 . S
Gd906 O958 2.324 . S
Gd906 C965 2.828 . S
Gd907 N916 2.661 . S
Gd907 N920 2.601 . S
Gd907 O951 2.362 . S
Gd907 O952 2.324 . S
Gd907 O956 2.545 . S
Gd907 O957 2.606 . S
Gd907 O959 2.429 . S
Gd907 O960 2.545 . S
Gd907 O961 2.412 . S
Gd907 C974 2.828 . S
C908 C911 1.417 . S
C908 C913 1.431 . S
C908 C914 1.412 . S
C909 C912 1.437 1_445 S
C909 C913 1.317 . S
C909 H928 0.929 1_545 S
C910 C911 1.426 1_655 S
C910 C912 1.413 1_545 S
C910 N920 1.359 . S
C911 C908 1.417 . S
C911 C910 1.426 1_455 S
C911 N916 1.350 1_455 S
C912 C909 1.437 1_665 S
C912 C910 1.413 1_565 S
C912 C922 1.391 . S
C913 C908 1.431 . S
C913 C909 1.317 . S
C913 H924 0.930 . S
C914 C908 1.412 . S
C914 C915 1.355 . S
C914 H926 0.930 . S
C915 C914 1.355 . S
C915 C917 1.402 . S
C915 H927 0.930 . S
N916 Gd907 2.661 . S
N916 C911 1.350 1_655 S
N916 C917 1.307 1_655 S
C917 C915 1.402 . S
C917 N916 1.307 1_455 S
C917 H918 0.930 . S
H918 C917 0.930 . S
C919 N920 1.334 1_565 S
C919 C921 1.394 . S
C919 H923 0.930 . S
N920 Gd907 2.601 . S
N920 C910 1.359 . S
N920 C919 1.334 1_545 S
C921 C919 1.394 . S
C921 C922 1.359 . S
C921 H933 0.930 . S
C922 C912 1.391 . S
C922 C921 1.359 . S
C922 H934 0.929 . S
H923 C919 0.930 . S
H924 C913 0.930 . S
H925 C942 0.930 . S
H926 C914 0.930 . S
H927 C915 0.930 . S
H928 C909 0.929 1_565 S
H929 C947 0.930 . S
H930 C938 0.930 . S
H931 C939 0.930 1_565 S
H932 C963 0.929 . S
H933 C921 0.930 . S
H934 C922 0.929 . S
H935 C964 0.930 . S
H936 C945 0.930 . S
N937 Gd906 2.661 . S
N937 C941 1.350 . S
N937 C942 1.307 . S
C938 H930 0.930 . S
C938 C939 1.355 . S
C938 C940 1.412 . S
C939 H931 0.930 1_545 S
C939 C938 1.355 . S
C939 C942 1.402 . S
C940 C938 1.412 . S
C940 C941 1.417 . S
C940 C964 1.431 . S
C941 N937 1.350 . S
C941 C940 1.417 . S
C941 C944 1.426 . S
C942 H925 0.930 . S
C942 N937 1.307 . S
C942 C939 1.402 . S
N943 Gd906 2.601 . S
N943 C944 1.359 . S
N943 C947 1.334 . S
C944 C941 1.426 . S
C944 N943 1.359 . S
C944 C948 1.413 . S
C945 H936 0.930 . S
C945 C946 1.359 . S
C945 C947 1.394 . S
C946 C945 1.359 . S
C946 C948 1.391 . S
C946 H949 0.929 . S
C947 H929 0.930 . S
C947 N943 1.334 . S
C947 C945 1.394 . S
C948 C944 1.413 . S
C948 C946 1.391 . S
C948 C963 1.437 . S
H949 C946 0.929 . S
O950 Gd906 2.545 . S
O950 C965 1.258 . S
O951 Gd906 2.606 . S
O951 Gd907 2.362 . S
O951 C962 1.284 . S
O952 Gd907 2.324 . S
O952 C972 1.254 . S
O953 Gd906 2.429 . S
O953 C972 1.268 . S
O954 Gd906 2.545 . S
O954 C962 1.250 . S
O955 Gd906 2.412 . S
O955 C965 1.252 . S
O956 Gd907 2.545 . S
O956 C974 1.258 . S
O957 Gd906 2.362 . S
O957 Gd907 2.606 . S
O957 C973 1.284 . S
O958 Gd906 2.324 . S
O958 C981 1.254 . S
O959 Gd907 2.429 . S
O959 C981 1.268 . S
O960 Gd907 2.545 . S
O960 C973 1.250 . S
O961 Gd907 2.412 . S
O961 C974 1.252 . S
C962 O951 1.284 . S
C962 O954 1.250 . S
C963 H932 0.929 . S
C963 C948 1.437 . S
C963 C964 1.317 . S
C964 H935 0.930 . S
C964 C940 1.431 . S
C964 C963 1.317 . S
C965 Gd906 2.828 . S
C965 O950 1.258 . S
C965 O955 1.252 . S
C965 C966 1.497 . S
C966 C965 1.497 . S
C966 C967 1.395 . S
C966 C968 1.380 . S
C967 C966 1.395 . S
C967 C970 1.398 . S
C967 H982 0.930 . S
C968 C966 1.380 . S
C968 C969 1.391 . S
C968 H983 0.930 . S
C969 C968 1.391 . S
C969 C971 1.387 . S
C970 C967 1.398 . S
C970 C971 1.380 . S
C970 H984 0.930 . S
C971 C969 1.387 . S
C971 C970 1.380 . S
C971 H985 0.930 . S
C972 O952 1.254 . S
C972 O953 1.268 . S
C973 O957 1.284 . S
C973 O960 1.250 . S
C974 Gd907 2.828 . S
C974 O956 1.258 . S
C974 O961 1.252 . S
C974 C975 1.497 . S
C975 C974 1.497 . S
C975 C976 1.395 . S
C975 C977 1.380 . S
C976 C975 1.395 . S
C976 C979 1.398 . S
C976 H986 0.930 1_545 S
C977 C975 1.380 . S
C977 C978 1.391 . S
C977 H987 0.930 . S
C978 C977 1.391 . S
C978 C980 1.387 . S
C979 C976 1.398 . S
C979 C980 1.380 . S
C979 H988 0.930 1_545 S
C980 C978 1.387 . S
C980 C979 1.380 . S
C980 H989 0.930 . S
C981 O958 1.254 . S
C981 O959 1.268 . S
H982 C967 0.930 . S
H983 C968 0.930 . S
H984 C970 0.930 . S
H985 C971 0.930 . S
H986 C976 0.930 1_565 S
H987 C977 0.930 . S
H988 C979 0.930 1_565 S
H989 C980 0.930 . S
N170 C290 2.050 . S
N184 C374 1.077 . S
N158 C468 1.553 . S
N145 C384 1.533 . S
C458 N119 1.016 . S
N131 C300 1.956 . S
C301 N144 1.733 . S
C385 N118 1.662 . S
N132 C477 1.546 1_556 S
N171 C393 1.547 . S
N183 C469 1.613 . S
C309 N157 1.615 . S
C542 N14 2.051 1_455 S
N28 C626 1.078 . S
N2 C720 1.553 1_545 S
N223 C636 1.532 . S
N197 C710 1.016 . S
N209 C552 1.956 . S
N222 C553 1.733 . S
N196 C637 1.662 . S
C729 N210 1.546 . S
N15 C645 1.547 . S
C721 N27 1.613 1_455 S
N1 C561 1.615 . S
C794 N92 2.050 . S
N106 C878 1.076 . S
C972 N80 1.553 . S
C888 N67 1.532 1_545 S
C962 N41 1.016 . S
N53 C804 1.956 . S
N66 C805 1.733 . S
N40 C889 1.663 . S
C981 N54 1.546 1_545 S
N93 C897 1.547 . S
N105 C973 1.613 . S
N79 C813 1.615 . S
N200 C297 1.160 . S
C381 N213 1.462 . S
N226 C474 1.723 . S
N83 C390 1.764 . S
N96 C465 1.461 . S
C306 N109 1.396 . S
N44 C549 1.160 . S
N57 C633 1.462 . S
N70 C726 1.723 . S
N161 C642 1.764 . S
C717 N174 1.461 . S
N187 C558 1.396 . S
N122 C801 1.159 . S
N135 C885 1.462 . S
C978 N148 1.723 . S
N5 C894 1.765 . S
N18 C969 1.461 . S
N31 C810 1.396 . S
