# Generated by pormake.
# Topology pto, (3,4)-cn, num edge types: 1
# Building blocks:
#     Node 0, Type 0, BuildingBlock: WUSLED_clean_sbu_0, # of connection points: 3
#     Node 1, Type 0, BuildingBlock: WUSLED_clean_sbu_0, # of connection points: 3
#     Node 2, Type 0, BuildingBlock: WUSLED_clean_sbu_0, # of connection points: 3
#     Node 3, Type 0, BuildingBlock: WUSLED_clean_sbu_0, # of connection points: 3
#     Node 4, Type 0, BuildingBlock: WUSLED_clean_sbu_0, # of connection points: 3
#     Node 5, Type 0, BuildingBlock: WUSLED_clean_sbu_0, # of connection points: 3
#     Node 6, Type 0, BuildingBlock: WUSLED_clean_sbu_0, # of connection points: 3
#     Node 7, Type 0, BuildingBlock: WUSLED_clean_sbu_0, # of connection points: 3
#     Node 8, Type 1, BuildingBlock: AZAVOO_clean_linker_0, # of connection points: 4
#     Node 9, Type 1, BuildingBlock: AZAVOO_clean_linker_0, # of connection points: 4
#     Node 10, Type 1, BuildingBlock: AZAVOO_clean_linker_0, # of connection points: 4
#     Node 11, Type 1, BuildingBlock: AZAVOO_clean_linker_0, # of connection points: 4
#     Node 12, Type 1, BuildingBlock: AZAVOO_clean_linker_0, # of connection points: 4
#     Node 13, Type 1, BuildingBlock: AZAVOO_clean_linker_0, # of connection points: 4
#     Edge 14, Type (0, 1), BuildingBlock: ZUJKAS_clean_linker_0, # of connection points: 2
#     Edge 15, Type (0, 1), BuildingBlock: ZUJKAS_clean_linker_0, # of connection points: 2
#     Edge 16, Type (0, 1), BuildingBlock: ZUJKAS_clean_linker_0, # of connection points: 2
#     Edge 17, Type (0, 1), BuildingBlock: ZUJKAS_clean_linker_0, # of connection points: 2
#     Edge 18, Type (0, 1), BuildingBlock: ZUJKAS_clean_linker_0, # of connection points: 2
#     Edge 19, Type (0, 1), BuildingBlock: ZUJKAS_clean_linker_0, # of connection points: 2
#     Edge 20, Type (0, 1), BuildingBlock: ZUJKAS_clean_linker_0, # of connection points: 2
#     Edge 21, Type (0, 1), BuildingBlock: ZUJKAS_clean_linker_0, # of connection points: 2
#     Edge 22, Type (0, 1), BuildingBlock: ZUJKAS_clean_linker_0, # of connection points: 2
#     Edge 23, Type (0, 1), BuildingBlock: ZUJKAS_clean_linker_0, # of connection points: 2
#     Edge 24, Type (0, 1), BuildingBlock: ZUJKAS_clean_linker_0, # of connection points: 2
#     Edge 25, Type (0, 1), BuildingBlock: ZUJKAS_clean_linker_0, # of connection points: 2
#     Edge 26, Type (0, 1), BuildingBlock: ZUJKAS_clean_linker_0, # of connection points: 2
#     Edge 27, Type (0, 1), BuildingBlock: ZUJKAS_clean_linker_0, # of connection points: 2
#     Edge 28, Type (0, 1), BuildingBlock: ZUJKAS_clean_linker_0, # of connection points: 2
#     Edge 29, Type (0, 1), BuildingBlock: ZUJKAS_clean_linker_0, # of connection points: 2
#     Edge 30, Type (0, 1), BuildingBlock: ZUJKAS_clean_linker_0, # of connection points: 2
#     Edge 31, Type (0, 1), BuildingBlock: ZUJKAS_clean_linker_0, # of connection points: 2
#     Edge 32, Type (0, 1), BuildingBlock: ZUJKAS_clean_linker_0, # of connection points: 2
#     Edge 33, Type (0, 1), BuildingBlock: ZUJKAS_clean_linker_0, # of connection points: 2
#     Edge 34, Type (0, 1), BuildingBlock: ZUJKAS_clean_linker_0, # of connection points: 2
#     Edge 35, Type (0, 1), BuildingBlock: ZUJKAS_clean_linker_0, # of connection points: 2
#     Edge 36, Type (0, 1), BuildingBlock: ZUJKAS_clean_linker_0, # of connection points: 2
#     Edge 37, Type (0, 1), BuildingBlock: ZUJKAS_clean_linker_0, # of connection points: 2
# Relax obj value: 0.051
# Max RMSD: 0.241
# Mean RMSD: 0.095
data_MOF--net-pto--node1-WUSLED_clean_sbu_0--node2-AZAVOO_clean_linker_0--edge1-ZUJKAS_clean_linker_0
_symmetry_space_group_name_H-M    P1
_symmetry_Int_Tables_number       1
_symmetry_cell_setting            triclinic
loop_
_symmetry_equiv_pos_as_xyz
'x, y, z'
_cell_length_a     74.035544
_cell_length_b     73.779401
_cell_length_c     73.46848
_cell_angle_alpha  89.704893
_cell_angle_beta   90.807356
_cell_angle_gamma 90.703295
loop_
_atom_site_label
_atom_site_type_symbol
_atom_site_fract_x
_atom_site_fract_y
_atom_site_fract_z
_atom_type_partial_charge
C0 C 0.25029 0.24526 0.28699 0.0
C1 C 0.26513 0.23363 0.28655 0.0
C2 C 0.25343 0.21671 0.31255 0.0
C3 C 0.26669 0.21948 0.29922 0.0
C4 C 0.23856 0.22842 0.31282 0.0
C5 C 0.23702 0.24256 0.30016 0.0
U6 U 0.26623 0.27085 0.24488 0.0
O7 O 0.25057 0.283 0.22232 0.0
O8 O 0.26827 0.30011 0.23941 0.0
C9 C 0.25591 0.29956 0.22639 0.0
C10 C 0.24844 0.26018 0.27377 0.0
C11 C 0.24151 0.31304 0.22768 0.0
C12 C 0.21832 0.32827 0.24477 0.0
C13 C 0.23165 0.31502 0.2437 0.0
C14 C 0.22441 0.33745 0.21373 0.0
C15 C 0.21458 0.33968 0.2298 0.0
C16 C 0.23776 0.32427 0.2127 0.0
C17 C 0.30784 0.25393 0.21992 0.0
C18 C 0.31681 0.26394 0.18975 0.0
C19 C 0.33741 0.24637 0.20849 0.0
C20 C 0.32461 0.24559 0.22228 0.0
C21 C 0.33365 0.2555 0.19203 0.0
C22 C 0.30403 0.26322 0.20362 0.0
C23 C 0.29456 0.25266 0.2346 0.0
O24 O 0.26139 0.27252 0.27429 0.0
O25 O 0.24392 0.25528 0.25713 0.0
O26 O 0.27793 0.24846 0.22955 0.0
O27 O 0.29543 0.26568 0.24673 0.0
H28 H 0.2755 0.23554 0.27644 0.0
H29 H 0.27841 0.21087 0.29873 0.0
H30 H 0.22796 0.22653 0.32268 0.0
H31 H 0.22543 0.25136 0.30063 0.0
H32 H 0.21085 0.32948 0.25727 0.0
H33 H 0.23431 0.30638 0.25538 0.0
H34 H 0.22204 0.34614 0.20203 0.0
H35 H 0.24527 0.32294 0.20024 0.0
H36 H 0.31358 0.27123 0.17732 0.0
H37 H 0.35013 0.23953 0.21059 0.0
H38 H 0.32777 0.23835 0.23477 0.0
H39 H 0.29118 0.26986 0.20161 0.0
C40 C 0.24312 0.80537 0.73013 0.0
C41 C 0.25918 0.81568 0.73003 0.0
C42 C 0.24782 0.83355 0.70435 0.0
C43 C 0.26153 0.82963 0.71722 0.0
C44 C 0.23169 0.82326 0.7047 0.0
C45 C 0.22939 0.80931 0.71745 0.0
U46 U 0.25589 0.77826 0.77314 0.0
O47 O 0.23838 0.76519 0.79341 0.0
O48 O 0.2566 0.74869 0.77725 0.0
C49 C 0.24327 0.74875 0.78888 0.0
C50 C 0.24051 0.79025 0.74302 0.0
C51 C 0.22864 0.7351 0.78587 0.0
C52 C 0.19708 0.72555 0.78783 0.0
C53 C 0.21048 0.73901 0.78948 0.0
C54 C 0.2196 0.70404 0.77871 0.0
C55 C 0.20149 0.70787 0.78254 0.0
C56 C 0.23301 0.71747 0.78044 0.0
C57 C 0.2958 0.79335 0.80343 0.0
C58 C 0.30843 0.77492 0.82792 0.0
C59 C 0.31846 0.80606 0.82408 0.0
C60 C 0.3067 0.80794 0.80915 0.0
C61 C 0.3196 0.78949 0.83359 0.0
C62 C 0.29662 0.77684 0.81298 0.0
C63 C 0.28382 0.7956 0.78743 0.0
O64 O 0.25322 0.77796 0.7433 0.0
O65 O 0.23509 0.79469 0.75934 0.0
O66 O 0.267 0.79971 0.79095 0.0
O67 O 0.28521 0.78328 0.77468 0.0
H68 H 0.26991 0.81287 0.73978 0.0
H69 H 0.27402 0.83741 0.71747 0.0
H70 H 0.22096 0.82571 0.69486 0.0
H71 H 0.21692 0.80146 0.7173 0.0
H72 H 0.18323 0.72898 0.79072 0.0
H73 H 0.2066 0.7524 0.79382 0.0
H74 H 0.22352 0.69051 0.77486 0.0
H75 H 0.2469 0.71395 0.77783 0.0
H76 H 0.30905 0.76193 0.83481 0.0
H77 H 0.32657 0.81767 0.82824 0.0
H78 H 0.30615 0.82082 0.80201 0.0
H79 H 0.28825 0.76542 0.80877 0.0
C80 C 0.72554 0.773 0.24058 0.0
C81 C 0.72977 0.77181 0.22203 0.0
C82 C 0.69773 0.77049 0.2139 0.0
C83 C 0.71599 0.77066 0.20882 0.0
C84 C 0.69358 0.77138 0.23249 0.0
C85 C 0.70735 0.77269 0.24568 0.0
U86 U 0.77113 0.76023 0.26232 0.0
O87 O 0.7924 0.77753 0.27454 0.0
O88 O 0.77876 0.75687 0.29118 0.0
C89 C 0.79036 0.77049 0.29086 0.0
C90 C 0.73977 0.77492 0.25478 0.0
C91 C 0.7891 0.78357 0.30579 0.0
C92 C 0.77285 0.80642 0.32248 0.0
C93 C 0.77359 0.79398 0.30817 0.0
C94 C 0.80311 0.79813 0.33205 0.0
C95 C 0.78761 0.80863 0.33462 0.0
C96 C 0.80381 0.78573 0.31778 0.0
C97 C 0.8004 0.72402 0.24143 0.0
C98 C 0.82735 0.71293 0.25692 0.0
C99 C 0.82053 0.70362 0.22598 0.0
C100 C 0.80491 0.7141 0.22598 0.0
C101 C 0.83192 0.70283 0.24147 0.0
C102 C 0.81174 0.72345 0.25688 0.0
C103 C 0.78388 0.7349 0.24125 0.0
O104 O 0.74164 0.76103 0.2659 0.0
O105 O 0.75527 0.78199 0.2496 0.0
O106 O 0.78629 0.7523 0.2381 0.0
O107 O 0.77266 0.73154 0.2546 0.0
H108 H 0.7437 0.77187 0.21771 0.0
H109 H 0.71962 0.76977 0.19463 0.0
H110 H 0.67966 0.77145 0.23684 0.0
H111 H 0.70379 0.77361 0.25989 0.0
H112 H 0.76065 0.81415 0.32416 0.0
H113 H 0.76209 0.79246 0.29899 0.0
H114 H 0.81484 0.79969 0.3409 0.0
H115 H 0.81593 0.77786 0.31607 0.0
H116 H 0.83567 0.7125 0.26915 0.0
H117 H 0.82377 0.69629 0.21374 0.0
H118 H 0.79636 0.71447 0.2139 0.0
H119 H 0.80847 0.73107 0.26894 0.0
C120 C 0.80617 0.16131 0.77635 0.0
C121 C 0.8215 0.16335 0.7655 0.0
C122 C 0.81209 0.13712 0.74749 0.0
C123 C 0.82445 0.15134 0.75118 0.0
C124 C 0.7968 0.13515 0.75853 0.0
C125 C 0.79389 0.14713 0.77283 0.0
U126 U 0.81686 0.20466 0.80277 0.0
O127 O 0.79845 0.22509 0.81336 0.0
O128 O 0.81587 0.20984 0.83221 0.0
C129 C 0.80247 0.22127 0.83042 0.0
C130 C 0.80255 0.17406 0.7911 0.0
C131 C 0.78688 0.21771 0.84211 0.0
C132 C 0.76036 0.19974 0.84993 0.0
C133 C 0.77553 0.20263 0.83909 0.0
C134 C 0.76792 0.22689 0.867 0.0
C135 C 0.75633 0.2119 0.86397 0.0
C136 C 0.78305 0.22975 0.85615 0.0
C137 C 0.85599 0.23551 0.78893 0.0
C138 C 0.86283 0.26356 0.80494 0.0
C139 C 0.87992 0.25552 0.77835 0.0
C140 C 0.86971 0.23955 0.77659 0.0
C141 C 0.87659 0.26776 0.79252 0.0
C142 C 0.85261 0.24756 0.80316 0.0
C143 C 0.84505 0.21892 0.78655 0.0
O144 O 0.81487 0.17491 0.80415 0.0
O145 O 0.79683 0.19005 0.78582 0.0
O146 O 0.82835 0.2215 0.78094 0.0
O147 O 0.84633 0.20692 0.79979 0.0
H148 H 0.83111 0.17426 0.76805 0.0
H149 H 0.83645 0.15313 0.74308 0.0
H150 H 0.78686 0.12456 0.75591 0.0
H151 H 0.78193 0.14545 0.78103 0.0
H152 H 0.75183 0.18798 0.84736 0.0
H153 H 0.77834 0.19317 0.82828 0.0
H154 H 0.76508 0.23666 0.8775 0.0
H155 H 0.79166 0.2415 0.8586 0.0
H156 H 0.86003 0.27257 0.81612 0.0
H157 H 0.8902 0.25844 0.76837 0.0
H158 H 0.87242 0.23042 0.76547 0.0
H159 H 0.84202 0.24463 0.81281 0.0
C160 C 0.81365 0.71486 0.78263 0.0
C161 C 0.8288 0.71946 0.77224 0.0
C162 C 0.84328 0.69119 0.78114 0.0
C163 C 0.84351 0.70776 0.77153 0.0
C164 C 0.82791 0.6866 0.79135 0.0
C165 C 0.81326 0.69835 0.7921 0.0
U166 U 0.78745 0.75531 0.76464 0.0
O167 O 0.75816 0.75942 0.76153 0.0
O168 O 0.77436 0.7775 0.77909 0.0
C169 C 0.75809 0.77269 0.77339 0.0
C170 C 0.79821 0.72715 0.78368 0.0
C171 C 0.74428 0.77129 0.78753 0.0
C172 C 0.73351 0.75933 0.81636 0.0
C173 C 0.74671 0.76014 0.80289 0.0
C174 C 0.7153 0.78059 0.7991 0.0
C175 C 0.71767 0.76963 0.81467 0.0
C176 C 0.72849 0.78141 0.78569 0.0
C177 C 0.80519 0.78072 0.72287 0.0
C178 C 0.79533 0.81064 0.7133 0.0
C179 C 0.81313 0.79245 0.69306 0.0
C180 C 0.81371 0.77863 0.70614 0.0
C181 C 0.80405 0.8087 0.69652 0.0
C182 C 0.79585 0.79675 0.72634 0.0
C183 C 0.80633 0.76612 0.73653 0.0
O184 O 0.80227 0.74398 0.7881 0.0
O185 O 0.78643 0.72595 0.77017 0.0
O186 O 0.79361 0.75358 0.73546 0.0
O187 O 0.80991 0.77128 0.75332 0.0
H188 H 0.82931 0.73216 0.76478 0.0
H189 H 0.85516 0.71184 0.7637 0.0
H190 H 0.82712 0.67383 0.79866 0.0
H191 H 0.8016 0.69453 0.80008 0.0
H192 H 0.73587 0.75088 0.82823 0.0
H193 H 0.75885 0.75221 0.80451 0.0
H194 H 0.70315 0.78845 0.79718 0.0
H195 H 0.72636 0.79001 0.77387 0.0
H196 H 0.78836 0.82302 0.71651 0.0
H197 H 0.81971 0.79032 0.68019 0.0
H198 H 0.82087 0.76629 0.70318 0.0
H199 H 0.78911 0.79859 0.73919 0.0
C200 C 0.70032 0.26081 0.26149 0.0
C201 C 0.69697 0.27642 0.25106 0.0
C202 C 0.67238 0.26076 0.23498 0.0
C203 C 0.68307 0.27642 0.23795 0.0
C204 C 0.6758 0.24521 0.2456 0.0
C205 C 0.68963 0.24526 0.25873 0.0
U206 U 0.74454 0.27973 0.28137 0.0
O207 O 0.7538 0.2816 0.30994 0.0
O208 O 0.76892 0.26545 0.29046 0.0
C209 C 0.76686 0.26998 0.30758 0.0
C210 C 0.71527 0.26028 0.27483 0.0
C211 C 0.76753 0.25489 0.32069 0.0
C212 C 0.75899 0.22429 0.32973 0.0
C213 C 0.75766 0.23882 0.31752 0.0
C214 C 0.77961 0.24194 0.34868 0.0
C215 C 0.77008 0.22565 0.34538 0.0
C216 C 0.77837 0.25642 0.33639 0.0
C217 C 0.76743 0.32123 0.26111 0.0
C218 C 0.79873 0.32876 0.26836 0.0
C219 C 0.78035 0.34995 0.25117 0.0
C220 C 0.76565 0.33791 0.25211 0.0
C221 C 0.79711 0.34542 0.25912 0.0
C222 C 0.784 0.3168 0.26941 0.0
C223 C 0.75212 0.30836 0.26148 0.0
O224 O 0.73111 0.25647 0.26807 0.0
O225 O 0.71593 0.2736 0.28666 0.0
O226 O 0.74204 0.30902 0.27605 0.0
O227 O 0.75595 0.29174 0.25661 0.0
H228 H 0.70517 0.28855 0.25297 0.0
H229 H 0.68069 0.28869 0.23017 0.0
H230 H 0.66807 0.23282 0.24348 0.0
H231 H 0.69214 0.23305 0.26658 0.0
H232 H 0.7513 0.212 0.32696 0.0
H233 H 0.74908 0.23746 0.30552 0.0
H234 H 0.78838 0.24334 0.36053 0.0
H235 H 0.78605 0.26874 0.33904 0.0
H236 H 0.81139 0.32501 0.27484 0.0
H237 H 0.77873 0.36262 0.24385 0.0
H238 H 0.75294 0.34153 0.24565 0.0
H239 H 0.78557 0.30402 0.27655 0.0
C240 C 0.26031 0.23111 0.71898 0.0
C241 C 0.2678 0.21494 0.72562 0.0
C242 C 0.26265 0.20056 0.69618 0.0
C243 C 0.26888 0.19977 0.71435 0.0
C244 C 0.25534 0.21688 0.68955 0.0
C245 C 0.25416 0.23199 0.70088 0.0
U246 U 0.27595 0.25824 0.76029 0.0
O247 O 0.28001 0.28768 0.76378 0.0
O248 O 0.26064 0.27285 0.78085 0.0
C249 C 0.26733 0.28874 0.77606 0.0
C250 C 0.25898 0.24714 0.73072 0.0
C251 C 0.25427 0.3035 0.77356 0.0
C252 C 0.22387 0.31425 0.76723 0.0
C253 C 0.23627 0.30008 0.76814 0.0
C254 C 0.24742 0.33549 0.77647 0.0
C255 C 0.22927 0.33209 0.77157 0.0
C256 C 0.25976 0.32132 0.7775 0.0
C257 C 0.3141 0.23993 0.79036 0.0
C258 C 0.32072 0.25042 0.82108 0.0
C259 C 0.34252 0.2323 0.80523 0.0
C260 C 0.33088 0.23137 0.79011 0.0
C261 C 0.33753 0.24175 0.82093 0.0
C262 C 0.30913 0.2496 0.80589 0.0
C263 C 0.30196 0.23855 0.77439 0.0
O264 O 0.25299 0.24402 0.74722 0.0
O265 O 0.27294 0.25831 0.73041 0.0
O266 O 0.30465 0.25071 0.76154 0.0
O267 O 0.28478 0.23579 0.77791 0.0
H268 H 0.2728 0.21405 0.73953 0.0
H269 H 0.27479 0.18749 0.71979 0.0
H270 H 0.25029 0.21787 0.67568 0.0
H271 H 0.24838 0.24437 0.69551 0.0
H272 H 0.21004 0.31123 0.76319 0.0
H273 H 0.23173 0.28645 0.7649 0.0
H274 H 0.25197 0.34902 0.78008 0.0
H275 H 0.27357 0.32424 0.78174 0.0
H276 H 0.3166 0.25798 0.83289 0.0
H277 H 0.3553 0.22533 0.80475 0.0
H278 H 0.33494 0.22387 0.77823 0.0
H279 H 0.29628 0.25645 0.80628 0.0
C280 C 0.23264 0.7318 0.27242 0.0
C281 C 0.23677 0.71819 0.25992 0.0
C282 C 0.20746 0.70364 0.26495 0.0
C283 C 0.22428 0.70421 0.25622 0.0
C284 C 0.20339 0.71751 0.27728 0.0
C285 C 0.21587 0.73141 0.28097 0.0
U286 U 0.27563 0.75999 0.26354 0.0
O287 O 0.28027 0.78933 0.2664 0.0
O288 O 0.2959 0.77035 0.28326 0.0
C289 C 0.29169 0.78734 0.28012 0.0
C290 C 0.24562 0.74641 0.27691 0.0
C291 C 0.28819 0.79828 0.2964 0.0
C292 C 0.26752 0.81178 0.31778 0.0
C293 C 0.27053 0.80112 0.30242 0.0
C294 C 0.29979 0.81654 0.32151 0.0
C295 C 0.28213 0.81964 0.32749 0.0
C296 C 0.30277 0.806 0.3061 0.0
C297 C 0.30521 0.74961 0.22227 0.0
C298 C 0.32494 0.76986 0.20514 0.0
C299 C 0.32918 0.73741 0.20383 0.0
C300 C 0.31473 0.73477 0.21565 0.0
C301 C 0.33435 0.75497 0.19828 0.0
C302 C 0.31055 0.76722 0.21709 0.0
C303 C 0.28944 0.74628 0.23398 0.0
O304 O 0.26179 0.74121 0.2822 0.0
O305 O 0.24598 0.76019 0.2655 0.0
O306 O 0.27689 0.75875 0.23372 0.0
O307 O 0.29297 0.73995 0.25039 0.0
H308 H 0.24968 0.71831 0.25315 0.0
H309 H 0.22793 0.6937 0.24677 0.0
H310 H 0.19046 0.71772 0.28399 0.0
H311 H 0.21242 0.74187 0.29058 0.0
H312 H 0.25378 0.81374 0.32215 0.0
H313 H 0.25907 0.79513 0.29524 0.0
H314 H 0.31132 0.82255 0.32856 0.0
H315 H 0.31649 0.80394 0.30168 0.0
H316 H 0.32872 0.78357 0.20129 0.0
H317 H 0.33601 0.72564 0.19865 0.0
H318 H 0.31081 0.72108 0.21943 0.0
H319 H 0.30352 0.77893 0.2221 0.0
H320 H 0.02787 0.39516 0.25795 0.0
H321 H 0.90196 0.55594 0.21462 0.0
H322 H 0.04716 0.49073 0.26746 0.0
H323 H 0.07456 0.47271 0.26626 0.0
H324 H 0.08161 0.48875 0.2101 0.0
H325 H 0.05383 0.50642 0.21137 0.0
H326 H 0.00958 0.47137 0.26775 0.0
H327 H 0.01544 0.4388 0.26885 0.0
H328 H 0.03397 0.44112 0.21331 0.0
H329 H 0.02783 0.47362 0.21232 0.0
H330 H 0.9745 0.49692 0.26764 0.0
H331 H 0.94833 0.4765 0.26999 0.0
H332 H 0.95886 0.45603 0.21621 0.0
H333 H 0.98501 0.47663 0.21395 0.0
H334 H 0.975 0.53592 0.26471 0.0
H335 H 0.94509 0.54953 0.26222 0.0
H336 H 0.94112 0.53249 0.20605 0.0
H337 H 0.97116 0.51911 0.2087 0.0
H338 H 0.00784 0.55713 0.26444 0.0
H339 H 0.9902 0.58501 0.26374 0.0
H340 H 0.98163 0.57864 0.20582 0.0
H341 H 0.99904 0.55072 0.20674 0.0
H342 H 0.05052 0.5315 0.26604 0.0
H343 H 0.07556 0.55332 0.26766 0.0
H344 H 0.06198 0.57228 0.21345 0.0
H345 H 0.03746 0.54978 0.21167 0.0
O346 O 0.02554 0.40801 0.25719 0.0
O347 O 0.03509 0.40998 0.22867 0.0
O348 O 0.91634 0.55873 0.24504 0.0
O349 O 0.91362 0.55029 0.21611 0.0
C350 C 0.02982 0.50705 0.23909 0.0
C351 C 0.01503 0.49466 0.23942 0.0
C352 C 0.99717 0.5011 0.2392 0.0
C353 C 0.99405 0.51986 0.23791 0.0
C354 C 0.00876 0.53229 0.2372 0.0
C355 C 0.02671 0.52595 0.23811 0.0
C356 C 0.04848 0.49982 0.23949 0.0
C357 C 0.05489 0.49071 0.25505 0.0
C358 C 0.07058 0.48043 0.25432 0.0
C359 C 0.0802 0.47911 0.23801 0.0
C360 C 0.07435 0.48924 0.22278 0.0
C361 C 0.05863 0.49953 0.22353 0.0
C362 C 0.01829 0.47483 0.23997 0.0
C363 C 0.01481 0.46478 0.25581 0.0
C364 C 0.01822 0.4462 0.25641 0.0
C365 C 0.0252 0.43736 0.24117 0.0
C366 C 0.02861 0.4475 0.22529 0.0
C367 C 0.02514 0.46607 0.22469 0.0
C368 C 0.98161 0.48828 0.24062 0.0
C369 C 0.97111 0.48805 0.25636 0.0
C370 C 0.95616 0.47644 0.25764 0.0
C371 C 0.9515 0.46471 0.24326 0.0
C372 C 0.9622 0.4648 0.22758 0.0
C373 C 0.9771 0.47655 0.22625 0.0
C374 C 0.97523 0.52662 0.23687 0.0
C375 C 0.96759 0.53506 0.25192 0.0
C376 C 0.95052 0.54284 0.25045 0.0
C377 C 0.94074 0.54218 0.2339 0.0
C378 C 0.9483 0.53329 0.21897 0.0
C379 C 0.9654 0.52556 0.22046 0.0
C380 C 0.00466 0.55189 0.23566 0.0
C381 C 1.00288 0.56224 0.25148 0.0
C382 C 0.99267 0.5781 0.25106 0.0
C383 C 0.98416 0.58377 0.23479 0.0
C384 C 0.9877 0.5744 0.21863 0.0
C385 C 0.99788 0.5586 0.21906 0.0
C386 C 0.04212 0.53905 0.23876 0.0
C387 C 0.05307 0.54025 0.25445 0.0
C388 C 0.06728 0.55287 0.25541 0.0
C389 C 0.07076 0.56469 0.24073 0.0
C390 C 0.05984 0.5633 0.22493 0.0
C391 C 0.0457 0.55056 0.22395 0.0
C392 C 0.02893 0.41764 0.24189 0.0
C393 C 0.92283 0.55089 0.2321 0.0
H394 H 0.07121 0.38922 0.81552 0.0
H395 H 0.90737 0.5069 0.76573 0.0
H396 H 0.06542 0.48545 0.81622 0.0
H397 H 0.09432 0.46979 0.81548 0.0
H398 H 0.09719 0.47967 0.75759 0.0
H399 H 0.06825 0.49535 0.75848 0.0
H400 H 0.0331 0.45814 0.8179 0.0
H401 H 0.0472 0.42854 0.8221 0.0
H402 H 0.06437 0.42993 0.76608 0.0
H403 H 0.04996 0.45937 0.762 0.0
H404 H 0.99153 0.4723 0.81422 0.0
H405 H 0.97253 0.44494 0.81652 0.0
H406 H 0.99069 0.42785 0.76374 0.0
H407 H 0.00954 0.45523 0.76154 0.0
H408 H 0.98609 0.51464 0.8106 0.0
H409 H 0.95349 0.51965 0.80913 0.0
H410 H 0.95111 0.49447 0.7561 0.0
H411 H 0.98376 0.48978 0.75764 0.0
H412 H 0.01817 0.54151 0.809 0.0
H413 H 0.99986 0.56894 0.80776 0.0
H414 H 0.98274 0.55541 0.75293 0.0
H415 H 1.00151 0.52845 0.75414 0.0
H416 H 0.05935 0.52562 0.81205 0.0
H417 H 0.08008 0.55171 0.81091 0.0
H418 H 0.06479 0.5609 0.75466 0.0
H419 H 0.04432 0.53457 0.75586 0.0
O420 O 0.06538 0.40072 0.81345 0.0
O421 O 0.07418 0.40228 0.78466 0.0
O422 O 0.92225 0.51802 0.79391 0.0
O423 O 0.92026 0.50504 0.76669 0.0
C424 C 0.04493 0.49461 0.78673 0.0
C425 C 0.03309 0.47941 0.78757 0.0
C426 C 0.01423 0.48179 0.78674 0.0
C427 C 0.00715 0.49939 0.78492 0.0
C428 C 0.01896 0.51463 0.78376 0.0
C429 C 0.03791 0.51226 0.7848 0.0
C430 C 0.0647 0.49142 0.78738 0.0
C431 C 0.07267 0.48492 0.80353 0.0
C432 C 0.08905 0.47577 0.80303 0.0
C433 C 0.0978 0.47315 0.7864 0.0
C434 C 0.09077 0.48147 0.7706 0.0
C435 C 0.07429 0.49055 0.77109 0.0
C436 C 0.04058 0.46089 0.78968 0.0
C437 C 0.03975 0.45192 0.80651 0.0
C438 C 0.04788 0.43506 0.80888 0.0
C439 C 0.05699 0.4269 0.79445 0.0
C440 C 0.0575 0.43584 0.77749 0.0
C441 C 0.04929 0.45265 0.77512 0.0
C442 C 1.00195 0.46571 0.78774 0.0
C443 C 0.99124 0.46271 0.8031 0.0
C444 C 0.9804 0.44711 0.80437 0.0
C445 C 0.9802 0.43418 0.79036 0.0
C446 C 0.99076 0.43741 0.77488 0.0
C447 C 1.00147 0.45306 0.77356 0.0
C448 C 0.98727 0.50189 0.78421 0.0
C449 C 0.9785 0.51025 0.79867 0.0
C450 C 0.95988 0.51307 0.7978 0.0
C451 C 0.94969 0.50747 0.78248 0.0
C452 C 0.95854 0.49895 0.76809 0.0
C453 C 0.97717 0.4962 0.76895 0.0
C454 C 0.01112 0.53298 0.78168 0.0
C455 C 0.0109 0.54481 0.79654 0.0
C456 C 1.00024 0.56034 0.79587 0.0
C457 C 0.98961 0.56426 0.78033 0.0
C458 C 0.99084 0.55294 0.76506 0.0
C459 C 1.00153 0.53748 0.76572 0.0
C460 C 0.05035 0.52818 0.78404 0.0
C461 C 0.06052 0.53326 0.79948 0.0
C462 C 0.07225 0.54824 0.79883 0.0
C463 C 0.07408 0.55842 0.78269 0.0
C464 C 0.06385 0.55325 0.76724 0.0
C465 C 0.05207 0.5383 0.76792 0.0
C466 C 0.06603 0.40923 0.79714 0.0
C467 C 0.92992 0.51052 0.78145 0.0
H468 H 0.23464 0.98515 0.38836 0.0
H469 H 0.28895 0.13386 0.52761 0.0
H470 H 0.23215 0.98053 0.48576 0.0
H471 H 0.23239 0.95203 0.46892 0.0
H472 H 0.28979 0.94776 0.4794 0.0
H473 H 0.28927 0.97607 0.49655 0.0
H474 H 0.23143 0.0157 0.46156 0.0
H475 H 0.22764 0.00485 0.43028 0.0
H476 H 0.28291 0.98653 0.43117 0.0
H477 H 0.28658 0.99766 0.46233 0.0
H478 H 0.23537 0.05549 0.48067 0.0
H479 H 0.23436 0.07905 0.45711 0.0
H480 H 0.28682 0.06269 0.43857 0.0
H481 H 0.28765 0.0391 0.46215 0.0
H482 H 0.23912 0.05803 0.52219 0.0
H483 H 0.24234 0.0897 0.53154 0.0
H484 H 0.29618 0.09142 0.50945 0.0
H485 H 0.29286 0.05965 0.50041 0.0
H486 H 0.23933 0.0257 0.54645 0.0
H487 H 0.24114 0.04434 0.57398 0.0
H488 H 0.29746 0.05561 0.56358 0.0
H489 H 0.29551 0.03702 0.53615 0.0
H490 H 0.23539 0.98299 0.52559 0.0
H491 H 0.23451 0.96072 0.55034 0.0
H492 H 0.28974 0.97456 0.56485 0.0
H493 H 0.29065 0.99637 0.53964 0.0
O494 O 0.23652 0.98962 0.4006 0.0
O495 O 0.26496 0.98027 0.40185 0.0
O496 O 0.25955 0.11975 0.53516 0.0
O497 O 0.28724 0.12141 0.52386 0.0
C498 C 0.26154 0.9998 0.49753 0.0
C499 C 0.26116 0.01307 0.4835 0.0
C500 C 0.26233 0.03165 0.48781 0.0
C501 C 0.26423 0.03699 0.50614 0.0
C502 C 0.26491 0.02379 0.52021 0.0
C503 C 0.26332 0.00513 0.51597 0.0
C504 C 0.26069 0.98036 0.49236 0.0
C505 C 0.24463 0.97306 0.48499 0.0
C506 C 0.24486 0.95691 0.47514 0.0
C507 C 0.26118 0.94779 0.47247 0.0
C508 C 0.27697 0.95436 0.48124 0.0
C509 C 0.2767 0.97051 0.49113 0.0
C510 C 0.25925 0.00741 0.46419 0.0
C511 C 0.24274 0.00948 0.45489 0.0
C512 C 0.2406 1.00321 0.43707 0.0
C513 C 0.25495 0.99475 0.42825 0.0
C514 C 0.27157 0.99294 0.43756 0.0
C515 C 0.27371 0.99928 0.45536 0.0
C516 C 0.26157 0.04559 0.47312 0.0
C517 C 0.24663 0.05701 0.4715 0.0
C518 C 0.24612 0.07051 0.45809 0.0
C519 C 0.26054 0.0728 0.44598 0.0
C520 C 0.27541 0.06117 0.44753 0.0
C521 C 0.27594 0.04772 0.46101 0.0
C522 C 0.26578 0.05657 0.51069 0.0
C523 C 0.25158 0.0653 0.51936 0.0
C524 C 0.25346 0.08338 0.52468 0.0
C525 C 0.26955 0.09309 0.52129 0.0
C526 C 0.28362 0.08435 0.51229 0.0
C527 C 0.28174 0.06624 0.50704 0.0
C528 C 0.26727 0.03007 0.53929 0.0
C529 C 0.25222 0.03161 0.55054 0.0
C530 C 0.25326 0.04234 0.56619 0.0
C531 C 0.26936 0.05171 0.57073 0.0
C532 C 0.2848 0.04882 0.56024 0.0
C533 C 0.28377 0.03803 0.54471 0.0
C534 C 0.26308 0.99131 0.53078 0.0
C535 C 0.24734 0.98109 0.53402 0.0
C536 C 0.24682 0.96849 0.5483 0.0
C537 C 0.26203 0.96587 0.55969 0.0
C538 C 0.27785 0.97606 0.55626 0.0
C539 C 0.27836 0.98863 0.54194 0.0
C540 C 0.25253 0.98777 0.40945 0.0
C541 C 0.27173 0.1122 0.5272 0.0
H542 H 0.49615 0.80006 0.89148 0.0
H543 H 0.63982 0.74432 0.03335 0.0
H544 H 0.49098 0.8044 0.99048 0.0
H545 H 0.46247 0.80728 0.97359 0.0
H546 H 0.4521 0.74995 0.98089 0.0
H547 H 0.48057 0.74731 0.9981 0.0
H548 H 0.5254 0.8024 0.96583 0.0
H549 H 0.51543 0.80648 0.93418 0.0
H550 H 0.49303 0.75206 0.93426 0.0
H551 H 0.50327 0.74811 0.96584 0.0
H552 H 0.56434 0.79675 0.98518 0.0
H553 H 0.58795 0.79586 0.96224 0.0
H554 H 0.56761 0.74371 0.94416 0.0
H555 H 0.54443 0.74449 0.96758 0.0
H556 H 0.56592 0.79496 0.02648 0.0
H557 H 0.59753 0.79171 0.03597 0.0
H558 H 0.59672 0.73666 0.01597 0.0
H559 H 0.56501 0.74003 0.00681 0.0
H560 H 0.53318 0.79725 0.04881 0.0
H561 H 0.55044 0.79732 0.07754 0.0
H562 H 0.55954 0.73992 0.07191 0.0
H563 H 0.54226 0.73999 0.04325 0.0
H564 H 0.49119 0.79924 0.03112 0.0
H565 H 0.46852 0.7986 0.0551 0.0
H566 H 0.47885 0.74168 0.06415 0.0
H567 H 0.5017 0.74262 0.04045 0.0
O568 O 0.50019 0.79807 0.90391 0.0
O569 O 0.48884 0.77003 0.90469 0.0
O570 O 0.62698 0.7743 0.03991 0.0
O571 O 0.62734 0.74599 0.02968 0.0
C572 C 0.50699 0.77322 1.00118 0.0
C573 C 0.52034 0.77291 0.98755 0.0
C574 C 0.53872 0.77101 0.9924 0.0
C575 C 0.54381 0.76951 0.01092 0.0
C576 C 0.53051 0.76964 0.0246 0.0
C577 C 0.51204 0.77138 0.01975 0.0
C578 C 0.48783 0.77566 0.99552 0.0
C579 C 0.48224 0.79259 0.98896 0.0
C580 C 0.46607 0.79415 0.9791 0.0
C581 C 0.45517 0.77878 0.97557 0.0
C582 C 0.46013 0.76207 0.9834 0.0
C583 C 0.47636 0.76053 0.99331 0.0
C584 C 0.51501 0.77499 0.96809 0.0
C585 C 0.51846 0.79134 0.95892 0.0
C586 C 0.5127 0.79365 0.94087 0.0
C587 C 0.50338 0.77961 0.9317 0.0
C588 C 0.50014 0.76315 0.94093 0.0
C589 C 0.50596 0.76086 0.95895 0.0
C590 C 0.55271 0.77067 0.97807 0.0
C591 C 0.56504 0.78513 0.97628 0.0
C592 C 0.57843 0.78464 0.96307 0.0
C593 C 0.5797 0.76971 0.95133 0.0
C594 C 0.56719 0.7553 0.95312 0.0
C595 C 0.55384 0.75578 0.96638 0.0
C596 C 0.56319 0.7677 0.01605 0.0
C597 C 0.57259 0.7822 0.02421 0.0
C598 C 0.59065 0.78031 0.02958 0.0
C599 C 0.59965 0.7639 0.02675 0.0
C600 C 0.5902 0.74947 0.01837 0.0
C601 C 0.57211 0.75136 0.01308 0.0
C602 C 0.53645 0.76862 0.04398 0.0
C603 C 0.53836 0.78459 0.05412 0.0
C604 C 0.5484 0.78464 0.07039 0.0
C605 C 0.55654 0.76867 0.07686 0.0
C606 C 0.55337 0.75241 0.06736 0.0
C607 C 0.54346 0.7524 0.05102 0.0
C608 C 0.49808 0.77098 0.03406 0.0
C609 C 0.48849 0.78664 0.03828 0.0
C610 C 0.47549 0.78622 0.05194 0.0
C611 C 0.47184 0.77008 0.06162 0.0
C612 C 0.48149 0.75441 0.05723 0.0
C613 C 0.49448 0.75487 0.04361 0.0
C614 C 0.49701 0.78221 0.91263 0.0
C615 C 0.6188 0.76179 0.03253 0.0
H616 H 0.76641 1.00188 0.39624 0.0
H617 H 0.83658 0.12164 0.55012 0.0
H618 H 0.76968 0.97928 0.49167 0.0
H619 H 0.76579 0.95212 0.47299 0.0
H620 H 0.8224 0.94017 0.48059 0.0
H621 H 0.82612 0.96738 0.49937 0.0
H622 H 0.76961 0.01751 0.47421 0.0
H623 H 0.76323 0.01317 0.44174 0.0
H624 H 0.81632 0.99045 0.4353 0.0
H625 H 0.8226 0.99509 0.46774 0.0
H626 H 0.77609 0.05143 0.50118 0.0
H627 H 0.77201 0.07791 0.48142 0.0
H628 H 0.82049 0.06429 0.45266 0.0
H629 H 0.8245 0.03783 0.47258 0.0
H630 H 0.78505 0.0472 0.54182 0.0
H631 H 0.7903 0.07723 0.55498 0.0
H632 H 0.84038 0.08197 0.52563 0.0
H633 H 0.83508 0.05181 0.51277 0.0
H634 H 0.78517 0.00923 0.55897 0.0
H635 H 0.78988 0.02012 0.59014 0.0
H636 H 0.84466 0.03567 0.57709 0.0
H637 H 0.83981 0.02478 0.54597 0.0
H638 H 0.77683 0.97361 0.532 0.0
H639 H 0.77661 0.94813 0.5534 0.0
H640 H 0.83336 0.95753 0.56501 0.0
H641 H 0.83358 0.9825 0.54298 0.0
O642 O 0.76925 0.00358 0.40902 0.0
O643 O 0.79662 0.99185 0.40648 0.0
O644 O 0.80834 0.1066 0.55996 0.0
O645 O 0.83414 0.10978 0.54505 0.0
C646 C 0.80121 0.99364 0.5047 0.0
C647 C 0.80029 0.00899 0.49308 0.0
C648 C 0.80279 0.02657 0.50026 0.0
C649 C 0.80682 0.0288 0.51894 0.0
C650 C 0.80809 0.01347 0.53055 0.0
C651 C 0.80502 0.99586 0.52349 0.0
C652 C 0.79819 0.97533 0.4968 0.0
C653 C 0.78113 0.97056 0.48964 0.0
C654 C 0.77898 0.95515 0.47884 0.0
C655 C 0.79384 0.94415 0.47508 0.0
C656 C 0.81067 0.94832 0.48329 0.0
C657 C 0.81283 0.96381 0.49406 0.0
C658 C 0.79656 0.00663 0.4733 0.0
C659 C 0.77987 0.0117 0.46573 0.0
C660 C 0.77625 0.00915 0.44719 0.0
C661 C 0.78926 1.00144 0.43592 0.0
C662 C 0.806 0.99641 0.44359 0.0
C663 C 0.80962 0.99903 0.46211 0.0
C664 C 0.80059 0.04273 0.48831 0.0
C665 C 0.78589 0.05425 0.49068 0.0
C666 C 0.78361 0.06937 0.47943 0.0
C667 C 0.79593 0.07318 0.46549 0.0
C668 C 0.81066 0.06159 0.46315 0.0
C669 C 0.81301 0.04653 0.47452 0.0
C670 C 0.80972 0.04732 0.52641 0.0
C671 C 0.79716 0.05474 0.53828 0.0
C672 C 0.80018 0.0719 0.54576 0.0
C673 C 0.81579 0.082 0.54138 0.0
C674 C 0.82824 0.07456 0.5293 0.0
C675 C 0.82523 0.05737 0.52189 0.0
C676 C 0.81212 0.0163 0.55021 0.0
C677 C 0.79834 0.01449 0.56302 0.0
C678 C 0.80106 0.02075 0.5808 0.0
C679 C 0.81758 0.02898 0.58599 0.0
C680 C 0.83171 0.02967 0.57341 0.0
C681 C 0.82901 0.02333 0.5557 0.0
C682 C 0.80522 0.97989 0.5359 0.0
C683 C 0.78926 0.96999 0.53899 0.0
C684 C 0.78913 0.95556 0.55139 0.0
C685 C 0.80494 0.95082 0.56104 0.0
C686 C 0.82099 0.96065 0.55769 0.0
C687 C 0.82112 0.97501 0.5452 0.0
C688 C 0.78534 0.99864 0.41626 0.0
C689 C 0.81912 0.10018 0.54939 0.0
H690 H 0.52679 0.23169 0.88913 0.0
H691 H 0.63604 0.19633 0.06273 0.0
H692 H 0.50504 0.25788 0.98204 0.0
H693 H 0.47882 0.26165 0.96184 0.0
H694 H 0.45746 0.20996 0.97993 0.0
H695 H 0.48382 0.20635 1.00025 0.0
H696 H 0.54201 0.24785 0.96573 0.0
H697 H 0.53856 0.2457 0.93263 0.0
H698 H 0.50839 0.19555 0.93903 0.0
H699 H 0.51215 0.19776 0.9721 0.0
H700 H 0.57436 0.24555 0.99477 0.0
H701 H 0.60175 0.2406 0.97737 0.0
H702 H 0.58197 0.18729 0.96245 0.0
H703 H 0.55458 0.19232 0.98011 0.0
H704 H 0.56911 0.24997 0.03477 0.0
H705 H 0.59818 0.24621 0.05051 0.0
H706 H 0.59619 0.18886 0.03862 0.0
H707 H 0.56697 0.19278 0.02318 0.0
H708 H 0.53093 0.25943 0.04734 0.0
H709 H 0.54246 0.26596 0.07804 0.0
H710 H 0.55237 0.20894 0.08658 0.0
H711 H 0.54054 0.20252 0.05598 0.0
H712 H 0.49483 0.25983 0.02321 0.0
H713 H 0.46898 0.26481 0.04302 0.0
H714 H 0.47469 0.21061 0.06479 0.0
H715 H 0.50012 0.20564 0.04465 0.0
O716 O 0.5281 0.23221 0.90224 0.0
O717 O 0.51257 0.20654 0.90629 0.0
O718 O 0.62485 0.22774 0.0625 0.0
O719 O 0.62461 0.19822 0.05652 0.0
C720 C 0.51382 0.22827 1.00195 0.0
C721 C 0.52917 0.22445 0.99138 0.0
C722 C 0.54622 0.22228 0.9999 0.0
C723 C 0.54792 0.22381 0.01899 0.0
C724 C 0.53257 0.22742 0.02959 0.0
C725 C 0.51544 0.22942 0.0211 0.0
C726 C 0.49634 0.23182 0.99253 0.0
C727 C 0.49451 0.24756 0.98192 0.0
C728 C 0.47961 0.24961 0.97029 0.0
C729 C 0.46622 0.23598 0.9691 0.0
C730 C 0.46753 0.22072 0.9806 0.0
C731 C 0.48253 0.21864 0.99222 0.0
C732 C 0.52737 0.22294 0.97128 0.0
C733 C 0.53477 0.23635 0.95993 0.0
C734 C 0.53273 0.23512 0.94104 0.0
C735 C 0.52318 0.22046 0.93318 0.0
C736 C 0.51581 0.20702 0.94464 0.0
C737 C 0.51792 0.20825 0.96352 0.0
C738 C 0.56254 0.21926 0.9888 0.0
C739 C 0.57598 0.23277 0.98781 0.0
C740 C 0.59163 0.22989 0.97792 0.0
C741 C 0.59407 0.21349 0.96866 0.0
C742 C 0.58042 0.20009 0.96938 0.0
C743 C 0.56481 0.20292 0.97945 0.0
C744 C 0.5659 0.22163 0.02795 0.0
C745 C 0.57496 0.23661 0.03563 0.0
C746 C 0.59157 0.23442 0.04458 0.0
C747 C 0.59949 0.21721 0.04586 0.0
C748 C 0.59046 0.20228 0.03791 0.0
C749 C 0.5738 0.20448 0.02904 0.0
C750 C 0.535 0.23052 0.04943 0.0
C751 C 0.53499 0.24829 0.05609 0.0
C752 C 0.54177 0.25201 0.07353 0.0
C753 C 0.54857 0.23799 0.0846 0.0
C754 C 0.54714 0.22001 0.07843 0.0
C755 C 0.5404 0.21631 0.06096 0.0
C756 C 0.49929 0.23234 0.03244 0.0
C757 C 0.49032 0.24898 0.03211 0.0
C758 C 0.47567 0.25185 0.04354 0.0
C759 C 0.46975 0.2381 0.0555 0.0
C760 C 0.4787 0.22139 0.05558 0.0
C761 C 0.49331 0.21855 0.04417 0.0
C762 C 0.52093 0.21925 0.91311 0.0
C763 C 0.61708 0.21479 0.05546 0.0
H764 H 0.18929 0.3492 0.20401 0.0
H765 H 0.16718 0.37353 0.20551 0.0
H766 H 0.18591 0.38665 0.25974 0.0
H767 H 0.20836 0.36262 0.25821 0.0
H768 H 0.13923 0.3782 0.23099 0.0
H769 H 0.18848 0.43562 0.23253 0.0
H770 H 0.1946 0.41304 0.22578 0.0
H771 H 0.19227 0.41836 0.24946 0.0
C772 C 0.18882 0.35737 0.2162 0.0
C773 C 0.20068 0.35404 0.23095 0.0
C774 C 0.17611 0.37119 0.21707 0.0
C775 C 0.17509 0.38207 0.23262 0.0
C776 C 0.18668 0.37861 0.24748 0.0
H777 H 0.10711 0.47201 0.26309 0.0
H778 H 0.13005 0.44844 0.2617 0.0
C779 C 0.19937 0.36475 0.24666 0.0
C780 C 0.16171 0.39685 0.23335 0.0
H781 H 0.15775 0.44279 0.23695 0.0
C782 C 0.14326 0.39233 0.23223 0.0
C783 C 0.16702 0.41526 0.23501 0.0
C784 C 0.18667 0.42096 0.23561 0.0
C785 C 0.12996 0.4057 0.233 0.0
C786 C 0.13527 0.42414 0.23456 0.0
C787 C 0.15372 0.42866 0.23574 0.0
C788 C 0.12184 0.43891 0.235 0.0
C789 C 0.11033 0.39993 0.23255 0.0
C790 C 0.10991 0.44169 0.22027 0.0
C791 C 0.09673 0.45506 0.22106 0.0
C792 C 0.0953 0.46606 0.23656 0.0
C793 C 0.10769 0.46364 0.25105 0.0
C794 C 0.12086 0.45023 0.25025 0.0
H795 H 0.10858 0.38539 0.23623 0.0
H796 H 0.10229 0.40819 0.24201 0.0
H797 H 0.10478 0.40188 0.21858 0.0
H798 H 0.11064 0.43334 0.20822 0.0
H799 H 0.08731 0.45639 0.20974 0.0
H800 H 0.19694 0.68172 0.75643 0.0
H801 H 0.17446 0.6571 0.75554 0.0
H802 H 0.152 0.67619 0.80567 0.0
H803 H 0.17435 0.70085 0.80661 0.0
H804 H 0.16931 0.62977 0.78015 0.0
H805 H 0.10708 0.67052 0.77401 0.0
H806 H 0.12931 0.68009 0.77041 0.0
H807 H 0.12113 0.67674 0.79314 0.0
C808 C 0.18718 0.6807 0.76724 0.0
C809 C 0.1874 0.69331 0.78155 0.0
C810 C 0.1743 0.66666 0.76668 0.0
C811 C 0.16134 0.66495 0.78038 0.0
C812 C 0.16154 0.6775 0.79469 0.0
H813 H 0.07935 0.5849 0.8083 0.0
H814 H 0.10066 0.61054 0.8074 0.0
C815 C 0.17435 0.69159 0.79522 0.0
C816 C 0.14818 0.64956 0.78013 0.0
H817 H 0.10307 0.63909 0.78068 0.0
C818 C 0.15483 0.63181 0.78012 0.0
C819 C 0.12927 0.65223 0.78013 0.0
C820 C 0.12124 0.67092 0.77925 0.0
C821 C 0.14313 0.61669 0.78049 0.0
C822 C 0.12425 0.61937 0.78065 0.0
C823 C 0.11756 0.63709 0.7806 0.0
C824 C 0.11122 0.60392 0.78099 0.0
C825 C 0.15106 0.59795 0.78115 0.0
C826 C 0.10994 0.59182 0.76633 0.0
C827 C 0.09781 0.57714 0.76682 0.0
C828 C 0.08671 0.57426 0.78199 0.0
C829 C 0.08788 0.58657 0.79654 0.0
C830 C 0.09996 0.60129 0.79601 0.0
H831 H 0.1656 0.59828 0.78509 0.0
H832 H 0.14368 0.58915 0.79093 0.0
H833 H 0.14979 0.5917 0.76748 0.0
H834 H 0.11833 0.59374 0.75451 0.0
H835 H 0.09734 0.56786 0.75544 0.0
H836 H 0.836 0.66912 0.22664 0.0
H837 H 0.86325 0.65079 0.22608 0.0
H838 H 0.89248 0.69215 0.25595 0.0
H839 H 0.86536 0.71079 0.25629 0.0
H840 H 0.89769 0.66123 0.21128 0.0
H841 H 0.90208 0.64474 0.28519 0.0
H842 H 0.88161 0.65284 0.27444 0.0
H843 H 0.89989 0.66832 0.27938 0.0
C844 C 0.84823 0.67442 0.23299 0.0
C845 C 0.84845 0.69148 0.24149 0.0
C846 C 0.86378 0.66386 0.23275 0.0
C847 C 0.87982 0.67003 0.24113 0.0
C848 C 0.88014 0.687 0.24967 0.0
H849 H 0.9847 0.61655 0.25253 0.0
H850 H 0.96024 0.63871 0.25381 0.0
C851 C 0.86461 0.69762 0.24987 0.0
C852 C 0.89631 0.65885 0.24044 0.0
H853 H 0.92551 0.63414 0.26674 0.0
C854 C 0.90381 0.65533 0.2234 0.0
C855 C 0.90433 0.65131 0.25629 0.0
C856 C 0.89655 0.65433 0.27488 0.0
C857 C 0.91908 0.6444 0.22176 0.0
C858 C 0.92682 0.63642 0.23756 0.0
C859 C 0.91956 0.64026 0.25465 0.0
C860 C 0.94185 0.62333 0.23651 0.0
C861 C 0.92686 0.64161 0.20312 0.0
C862 C 0.93954 0.60726 0.22657 0.0
C863 C 0.95344 0.5947 0.22576 0.0
C864 C 0.96995 0.59783 0.23501 0.0
C865 C 0.97218 0.61381 0.24519 0.0
C866 C 0.95824 0.62646 0.24592 0.0
H867 H 0.92312 0.65278 0.19364 0.0
H868 H 0.94181 0.64071 0.20379 0.0
H869 H 0.92137 0.62878 0.19735 0.0
H870 H 0.92684 0.60426 0.21967 0.0
H871 H 0.95107 0.58227 0.21826 0.0
H872 H 0.86443 0.30161 0.8011 0.0
H873 H 0.88181 0.33006 0.80213 0.0
H874 H 0.93004 0.30139 0.78822 0.0
H875 H 0.91289 0.27286 0.78744 0.0
H876 H 0.914 0.33964 0.82326 0.0
H877 H 0.9251 0.34154 0.74863 0.0
H878 H 0.90808 0.32726 0.75895 0.0
H879 H 0.93138 0.32077 0.75977 0.0
C880 C 0.87878 0.30131 0.79849 0.0
C881 C 0.88723 0.28495 0.79404 0.0
C882 C 0.88866 0.31759 0.799 0.0
C883 C 0.90712 0.31785 0.79497 0.0
C884 C 0.91571 0.30152 0.79103 0.0
H885 H 0.9904 0.39976 0.78216 0.0
H886 H 0.97238 0.37185 0.7842 0.0
C887 C 0.90588 0.28524 0.79054 0.0
C888 C 0.91739 0.33521 0.79459 0.0
H889 H 0.94084 0.36349 0.76632 0.0
C890 C 0.91981 0.34494 0.81082 0.0
C891 C 0.92492 0.34204 0.77833 0.0
C892 C 0.92215 0.33248 0.76037 0.0
C893 C 0.93001 0.36114 0.81131 0.0
C894 C 0.93764 0.36793 0.79504 0.0
C895 C 0.93503 0.35825 0.77879 0.0
C896 C 0.94861 0.3849 0.7945 0.0
C897 C 0.93296 0.37053 0.82932 0.0
C898 C 0.94121 0.40155 0.79952 0.0
C899 C 0.9515 0.41755 0.79838 0.0
C900 C 0.96931 0.41721 0.79197 0.0
C901 C 0.97665 0.4005 0.78693 0.0
C902 C 0.9664 0.38453 0.78817 0.0
H903 H 0.93045 0.36124 0.84098 0.0
H904 H 0.94695 0.37605 0.83056 0.0
H905 H 0.92346 0.38199 0.8303 0.0
H906 H 0.92737 0.40224 0.80402 0.0
H907 H 0.9454 0.43024 0.80212 0.0
H908 H 0.24561 0.21741 0.34889 0.0
H909 H 0.24748 0.19254 0.37093 0.0
H910 H 0.2668 0.15719 0.32912 0.0
H911 H 0.26477 0.18193 0.30689 0.0
H912 H 0.22947 0.15863 0.36925 0.0
H913 H 0.30403 0.15076 0.37075 0.0
H914 H 0.29321 0.17065 0.36147 0.0
H915 H 0.2937 0.15011 0.34848 0.0
C916 C 0.25018 0.20433 0.34433 0.0
C917 C 0.25504 0.20169 0.32609 0.0
C918 C 0.25133 0.19016 0.35698 0.0
C919 C 0.25749 0.17308 0.35172 0.0
C920 C 0.26237 0.17036 0.33356 0.0
H921 H 0.27086 0.07092 0.41032 0.0
H922 H 0.26992 0.09501 0.38726 0.0
C923 C 0.2612 0.18453 0.32087 0.0
C924 C 0.25819 0.158 0.36515 0.0
H925 H 0.28688 0.12892 0.387 0.0
C926 C 0.24202 0.15216 0.37317 0.0
C927 C 0.27457 0.14952 0.37016 0.0
C928 C 0.29241 0.15563 0.36241 0.0
C929 C 0.24176 0.13795 0.38597 0.0
C930 C 0.25817 0.12961 0.39116 0.0
C931 C 0.27432 0.13534 0.38301 0.0
C932 C 0.25887 0.11508 0.40521 0.0
C933 C 0.22386 0.13179 0.39355 0.0
C934 C 0.25325 0.11845 0.42303 0.0
C935 C 0.25379 0.10474 0.43622 0.0
C936 C 0.26011 0.0874 0.43192 0.0
C937 C 0.26603 0.08415 0.41412 0.0
C938 C 0.26545 0.09788 0.40091 0.0
H939 H 0.21238 0.13592 0.38462 0.0
H940 H 0.22335 0.11683 0.39529 0.0
H941 H 0.222 0.13807 0.40708 0.0
H942 H 0.24856 0.13175 0.42677 0.0
H943 H 0.24948 0.10781 0.44988 0.0
H944 H 0.35415 0.80298 0.83663 0.0
H945 H 0.37514 0.80034 0.86242 0.0
H946 H 0.33569 0.76862 0.89168 0.0
H947 H 0.31442 0.77141 0.86599 0.0
H948 H 0.36964 0.81176 0.89881 0.0
H949 H 0.38182 0.73764 0.89481 0.0
H950 H 0.37193 0.75033 0.87618 0.0
H951 H 0.35857 0.74432 0.89555 0.0
C952 C 0.34984 0.79554 0.84857 0.0
C953 C 0.33253 0.78745 0.84921 0.0
C954 C 0.36191 0.79396 0.86328 0.0
C955 C 0.35706 0.78414 0.8789 0.0
C956 C 0.33984 0.77599 0.87962 0.0
H957 H 0.42155 0.76258 0.97793 0.0
H958 H 0.39663 0.76396 0.95556 0.0
C959 C 0.32771 0.77759 0.86491 0.0
C960 C 0.36993 0.78292 0.89453 0.0
H961 H 0.39614 0.75344 0.91895 0.0
C962 C 0.37539 0.799 0.90326 0.0
C963 C 0.37732 0.76625 0.9004 0.0
C964 C 0.37226 0.74863 0.89121 0.0
C965 C 0.38815 0.79889 0.91758 0.0
C966 C 0.39596 0.7823 0.9231 0.0
C967 C 0.39016 0.76614 0.9147 0.0
C968 C 0.41086 0.78158 0.93684 0.0
C969 C 0.3931 0.81657 0.92673 0.0
C970 C 0.4272 0.7908 0.93362 0.0
C971 C 0.4414 0.79002 0.94631 0.0
C972 C 0.43965 0.77992 0.9625 0.0
C973 C 0.42333 0.77049 0.96561 0.0
C974 C 0.40908 0.77129 0.95287 0.0
H975 H 0.3823 0.82677 0.92486 0.0
H976 H 0.39564 0.81458 0.94154 0.0
H977 H 0.40561 0.82217 0.92059 0.0
H978 H 0.42909 0.7984 0.92113 0.0
H979 H 0.45394 0.79702 0.9432 0.0
H980 H 0.77361 0.84293 0.33414 0.0
H981 H 0.7739 0.86506 0.35889 0.0
H982 H 0.80073 0.82666 0.3941 0.0
H983 H 0.80028 0.80437 0.36958 0.0
H984 H 0.75939 0.86191 0.39495 0.0
H985 H 0.83389 0.87224 0.39581 0.0
H986 H 0.82193 0.86169 0.37699 0.0
H987 H 0.82635 0.84906 0.39751 0.0
C988 C 0.7794 0.8391 0.3472 0.0
C989 C 0.78705 0.8219 0.34981 0.0
C990 C 0.77963 0.8518 0.3613 0.0
C991 C 0.7876 0.84759 0.37821 0.0
C992 C 0.79485 0.83031 0.38102 0.0
H993 H 0.80782 0.90988 0.4772 0.0
H994 H 0.80561 0.88591 0.45423 0.0
C995 C 0.79461 0.8176 0.36697 0.0
C996 C 0.78834 0.86126 0.39294 0.0
H997 H 0.81758 0.88661 0.41899 0.0
C998 C 0.77209 0.86736 0.4002 0.0
C999 C 0.80495 0.86826 0.39979 0.0
C1000 C 0.82279 0.86263 0.39206 0.0
C1001 C 0.772 0.88013 0.41432 0.0
C1002 C 0.78861 0.88728 0.42106 0.0
C1003 C 0.80486 0.88109 0.41385 0.0
C1004 C 0.78945 0.90156 0.43523 0.0
C1005 C 0.75413 0.8856 0.42209 0.0
C1006 C 0.78127 0.91837 0.4321 0.0
C1007 C 0.78248 0.93203 0.44517 0.0
C1008 C 0.79205 0.92924 0.46161 0.0
C1009 C 0.80038 0.91244 0.46467 0.0
C1010 C 0.79909 0.89874 0.45158 0.0
H1011 H 0.74344 0.87522 0.41939 0.0
H1012 H 0.75524 0.88777 0.43701 0.0
H1013 H 0.74978 0.89847 0.41561 0.0
H1014 H 0.77422 0.92106 0.41938 0.0
H1015 H 0.77631 0.94496 0.4422 0.0
H1016 H 0.72241 0.20135 0.8525 0.0
H1017 H 0.69495 0.19915 0.87062 0.0
H1018 H 0.72541 0.2146 0.91863 0.0
H1019 H 0.75297 0.21661 0.90072 0.0
H1020 H 0.68696 0.17834 0.90348 0.0
H1021 H 0.68485 0.25287 0.91369 0.0
H1022 H 0.69849 0.24259 0.89646 0.0
H1023 H 0.70589 0.24245 0.91986 0.0
C1024 C 0.72334 0.20401 0.86697 0.0
C1025 C 0.73987 0.20933 0.87513 0.0
C1026 C 0.70762 0.20281 0.87727 0.0
C1027 C 0.70813 0.20698 0.89587 0.0
C1028 C 0.72469 0.21165 0.9042 0.0
H1029 H 0.62874 0.22104 0.97949 0.0
H1030 H 0.65628 0.21794 0.96186 0.0
C1031 C 0.74041 0.21284 0.89394 0.0
C1032 C 0.69127 0.20708 0.90647 0.0
H1033 H 0.66365 0.2351 0.92984 0.0
C1034 C 0.68179 0.19073 0.90922 0.0
C1035 C 0.68459 0.22329 0.91387 0.0
C1036 C 0.69386 0.24135 0.91073 0.0
C1037 C 0.66598 0.19009 0.9196 0.0
C1038 C 0.65935 0.20631 0.92708 0.0
C1039 C 0.66879 0.22266 0.92417 0.0
C1040 C 0.64271 0.20679 0.93809 0.0
C1041 C 0.65679 0.17202 0.92284 0.0
C1042 C 0.62591 0.20148 0.9306 0.0
C1043 C 0.61013 0.20322 0.94068 0.0
C1044 C 0.61085 0.21052 0.95832 0.0
C1045 C 0.62772 0.21558 0.96585 0.0
C1046 C 0.64347 0.21374 0.95583 0.0
H1047 H 0.66605 0.16056 0.92047 0.0
H1048 H 0.65166 0.17101 0.93694 0.0
H1049 H 0.64513 0.17056 0.91329 0.0
H1050 H 0.62494 0.19647 0.91679 0.0
H1051 H 0.5973 0.19942 0.93444 0.0
H1052 H 0.22318 0.85851 0.69231 0.0
H1053 H 0.22682 0.8812 0.6682 0.0
H1054 H 0.28186 0.86457 0.66093 0.0
H1055 H 0.27819 0.84149 0.68471 0.0
H1056 H 0.25178 0.91035 0.66547 0.0
H1057 H 0.25978 0.86098 0.60937 0.0
H1058 H 0.25123 0.85449 0.63138 0.0
H1059 H 0.27505 0.85811 0.62837 0.0
C1060 C 0.23603 0.85957 0.6855 0.0
C1061 C 0.25035 0.84805 0.69036 0.0
C1062 C 0.23812 0.87263 0.6718 0.0
C1063 C 0.25452 0.87439 0.66257 0.0
C1064 C 0.26898 0.86324 0.66766 0.0
H1065 H 0.28831 0.94238 0.57135 0.0
H1066 H 0.28707 0.92094 0.59686 0.0
C1067 C 0.26692 0.85018 0.6814 0.0
C1068 C 0.2564 0.88789 0.64761 0.0
H1069 H 0.2637 0.89198 0.60193 0.0
C1070 C 0.25437 0.90635 0.65157 0.0
C1071 C 0.25982 0.88265 0.62949 0.0
C1072 C 0.26145 0.86298 0.62429 0.0
C1073 C 0.25584 0.91971 0.63794 0.0
C1074 C 0.25907 0.91445 0.61978 0.0
C1075 C 0.26124 0.896 0.61585 0.0
C1076 C 0.25992 0.92782 0.60458 0.0
C1077 C 0.25424 0.93936 0.64319 0.0
C1078 C 0.24501 0.9387 0.6003 0.0
C1079 C 0.24572 0.95106 0.58582 0.0
C1080 C 0.26132 0.95272 0.57516 0.0
C1081 C 0.27619 0.94167 0.57941 0.0
C1082 C 0.27546 0.92932 0.59392 0.0
H1083 H 0.25698 0.9414 0.65795 0.0
H1084 H 0.26372 0.94806 0.63534 0.0
H1085 H 0.24028 0.94393 0.64021 0.0
H1086 H 0.23274 0.93753 0.60809 0.0
H1087 H 0.23408 0.95943 0.58308 0.0
H1088 H 0.66681 0.7497 0.21419 0.0
H1089 H 0.64253 0.74872 0.19121 0.0
H1090 H 0.67091 0.78884 0.15925 0.0
H1091 H 0.69533 0.78966 0.18201 0.0
H1092 H 0.62011 0.77485 0.17928 0.0
H1093 H 0.66045 0.75075 0.12147 0.0
H1094 H 0.66892 0.75048 0.14461 0.0
H1095 H 0.66961 0.77109 0.13139 0.0
C1096 C 0.66788 0.75829 0.20225 0.0
C1097 C 0.68306 0.76967 0.19986 0.0
C1098 C 0.65401 0.75769 0.18911 0.0
C1099 C 0.65502 0.76845 0.17332 0.0
C1100 C 0.67005 0.78001 0.17104 0.0
H1101 H 0.58378 0.79325 0.08256 0.0
H1102 H 0.60693 0.79311 0.10669 0.0
C1103 C 0.68399 0.7805 0.18409 0.0
C1104 C 0.64011 0.76799 0.15952 0.0
H1105 H 0.63103 0.76176 0.11421 0.0
C1106 C 0.62248 0.77183 0.16508 0.0
C1107 C 0.64317 0.764 0.14098 0.0
C1108 C 0.66153 0.75866 0.13427 0.0
C1109 C 0.60796 0.77222 0.15256 0.0
C1110 C 0.61114 0.76862 0.13402 0.0
C1111 C 0.62868 0.76462 0.12845 0.0
C1112 C 0.59646 0.76912 0.12009 0.0
C1113 C 0.58937 0.77687 0.1591 0.0
C1114 C 0.58288 0.75567 0.11968 0.0
C1115 C 0.56962 0.7557 0.10589 0.0
C1116 C 0.56967 0.76925 0.09235 0.0
C1117 C 0.58317 0.78283 0.09299 0.0
C1118 C 0.59649 0.7827 0.10667 0.0
H1119 H 0.58968 0.78215 0.17324 0.0
H1120 H 0.58309 0.78715 0.14999 0.0
H1121 H 0.58065 0.76453 0.15875 0.0
H1122 H 0.58275 0.74497 0.12982 0.0
H1123 H 0.55941 0.74506 0.10573 0.0
H1124 H 0.82423 0.14556 0.71334 0.0
H1125 H 0.82715 0.12523 0.68736 0.0
H1126 H 0.80878 0.08026 0.7202 0.0
H1127 H 0.80611 0.10038 0.74637 0.0
H1128 H 0.84759 0.09179 0.68408 0.0
H1129 H 0.77337 0.08159 0.67562 0.0
H1130 H 0.78306 0.09997 0.68878 0.0
H1131 H 0.78249 0.07741 0.69804 0.0
C1132 C 0.82106 0.1313 0.71514 0.0
C1133 C 0.81481 0.12464 0.73193 0.0
C1134 C 0.82266 0.11973 0.70025 0.0
C1135 C 0.81794 0.10132 0.70182 0.0
C1136 C 0.81218 0.0945 0.71865 0.0
H1137 H 0.80667 0.01678 0.61949 0.0
H1138 H 0.80811 0.03322 0.64842 0.0
C1139 C 0.81062 0.10604 0.73356 0.0
C1140 C 0.81866 0.08936 0.68572 0.0
H1141 H 0.79202 0.06517 0.65608 0.0
C1142 C 0.83547 0.08592 0.67795 0.0
C1143 C 0.80282 0.0817 0.67784 0.0
C1144 C 0.78436 0.08541 0.68536 0.0
C1145 C 0.83686 0.07492 0.66249 0.0
C1146 C 0.82097 0.06753 0.65438 0.0
C1147 C 0.80419 0.07079 0.66234 0.0
C1148 C 0.82127 0.05705 0.6372 0.0
C1149 C 0.85536 0.07116 0.65514 0.0
C1150 C 0.82812 0.065 0.62129 0.0
C1151 C 0.82735 0.05565 0.60482 0.0
C1152 C 0.81953 0.0382 0.60385 0.0
C1153 C 0.81273 0.03021 0.61981 0.0
C1154 C 0.81359 0.03957 0.63633 0.0
H1155 H 0.86603 0.07283 0.66581 0.0
H1156 H 0.85608 0.05722 0.64959 0.0
H1157 H 0.85835 0.08092 0.64401 0.0
H1158 H 0.83361 0.07868 0.62149 0.0
H1159 H 0.8323 0.06235 0.59269 0.0
H1160 H 0.37015 0.26118 0.19523 0.0
H1161 H 0.39264 0.26014 0.17121 0.0
H1162 H 0.35045 0.24949 0.13149 0.0
H1163 H 0.32785 0.25053 0.15546 0.0
H1164 H 0.40009 0.23129 0.14942 0.0
H1165 H 0.3792 0.2902 0.10725 0.0
H1166 H 0.37129 0.28657 0.13013 0.0
H1167 H 0.3613 0.27415 0.11148 0.0
C1168 C 0.36564 0.25866 0.18137 0.0
C1169 C 0.3472 0.25592 0.17726 0.0
C1170 C 0.37851 0.25815 0.16765 0.0
C1171 C 0.37322 0.25496 0.14952 0.0
C1172 C 0.35481 0.25239 0.14532 0.0
H1173 H 0.44224 0.2147 0.06452 0.0
H1174 H 0.41868 0.21913 0.08701 0.0
C1175 C 0.34191 0.25296 0.15904 0.0
C1176 C 0.3871 0.25328 0.13524 0.0
H1177 H 0.40098 0.27065 0.09448 0.0
C1178 C 0.40032 0.23994 0.13744 0.0
C1179 C 0.38749 0.2647 0.11971 0.0
C1180 C 0.37417 0.27983 0.11702 0.0
C1181 C 0.41375 0.23751 0.12442 0.0
C1182 C 0.4138 0.24853 0.10861 0.0
C1183 C 0.40078 0.26209 0.10652 0.0
C1184 C 0.42744 0.24627 0.09423 0.0
C1185 C 0.42795 0.22334 0.12784 0.0
C1186 C 0.43982 0.26028 0.09041 0.0
C1187 C 0.45334 0.25778 0.07757 0.0
C1188 C 0.45466 0.24125 0.06824 0.0
C1189 C 0.44184 0.22747 0.0717 0.0
C1190 C 0.42834 0.22997 0.08454 0.0
H1191 H 0.42867 0.21925 0.1424 0.0
H1192 H 0.42458 0.21111 0.1197 0.0
H1193 H 0.44148 0.22838 0.12367 0.0
H1194 H 0.43932 0.27297 0.09771 0.0
H1195 H 0.46308 0.26862 0.07535 0.0
H1196 H 0.85773 0.67112 0.80916 0.0
H1197 H 0.8833 0.65051 0.80822 0.0
H1198 H 0.89032 0.66273 0.75131 0.0
H1199 H 0.86452 0.68312 0.75197 0.0
H1200 H 0.88696 0.61956 0.78499 0.0
H1201 H 0.94127 0.67114 0.77445 0.0
H1202 H 0.91919 0.67693 0.78263 0.0
H1203 H 0.9223 0.67221 0.75894 0.0
C1204 C 0.86459 0.66934 0.79638 0.0
C1205 C 0.85902 0.67881 0.78063 0.0
C1206 C 0.87928 0.65764 0.79592 0.0
C1207 C 0.88883 0.65528 0.77977 0.0
C1208 C 0.88335 0.66464 0.764 0.0
H1209 H 0.98063 0.58801 0.75277 0.0
H1210 H 0.9562 0.61011 0.75237 0.0
C1211 C 0.8686 0.67631 0.76443 0.0
C1212 C 0.90417 0.64256 0.77935 0.0
H1213 H 0.94982 0.64037 0.77371 0.0
C1214 C 0.90071 0.62409 0.78256 0.0
C1215 C 0.92206 0.64853 0.77604 0.0
C1216 C 0.92655 0.66829 0.77295 0.0
C1217 C 0.91466 0.61138 0.78244 0.0
C1218 C 0.93262 0.61737 0.77948 0.0
C1219 C 0.93606 0.63582 0.77605 0.0
C1220 C 0.94801 0.60465 0.78004 0.0
C1221 C 0.90995 0.59159 0.78515 0.0
C1222 C 0.95183 0.59462 0.79587 0.0
C1223 C 0.96566 0.5819 0.79611 0.0
C1224 C 0.97612 0.57907 0.78055 0.0
C1225 C 0.97269 0.58966 0.76491 0.0
C1226 C 0.9588 0.60236 0.76468 0.0
H1227 H 0.89546 0.58874 0.78207 0.0
H1228 H 0.91828 0.58286 0.77641 0.0
H1229 H 0.91259 0.58779 0.79957 0.0
H1230 H 0.94392 0.59643 0.808 0.0
H1231 H 0.96775 0.57387 0.80832 0.0
H1232 H 0.79825 0.38222 0.26382 0.0
H1233 H 0.82445 0.40263 0.26075 0.0
H1234 H 0.85786 0.35713 0.2479 0.0
H1235 H 0.83175 0.33667 0.25074 0.0
H1236 H 0.85937 0.39971 0.28075 0.0
H1237 H 0.86541 0.39491 0.20555 0.0
H1238 H 0.84483 0.38908 0.21728 0.0
H1239 H 0.86349 0.37378 0.21774 0.0
C1240 C 0.81116 0.37659 0.26021 0.0
C1241 C 0.81294 0.35784 0.25749 0.0
C1242 C 0.8261 0.38824 0.25855 0.0
C1243 C 0.843 0.38138 0.25392 0.0
C1244 C 0.84486 0.36269 0.25129 0.0
H1245 H 0.94873 0.42891 0.23389 0.0
H1246 H 0.92237 0.40876 0.2368 0.0
C1247 C 0.82998 0.35102 0.25307 0.0
C1248 C 0.85879 0.39371 0.25212 0.0
H1249 H 0.8886 0.4109 0.2213 0.0
C1250 C 0.86575 0.40225 0.26776 0.0
C1251 C 0.86708 0.39685 0.23517 0.0
C1252 C 0.8598 0.38831 0.21791 0.0
C1253 C 0.88104 0.41366 0.26696 0.0
C1254 C 0.88928 0.41695 0.24996 0.0
C1255 C 0.88227 0.40838 0.23431 0.0
C1256 C 0.90516 0.42924 0.24809 0.0
C1257 C 0.88849 0.4217 0.2844 0.0
C1258 C 0.90414 0.4475 0.25317 0.0
C1259 C 0.91917 0.45901 0.25157 0.0
C1260 C 0.93546 0.45252 0.24464 0.0
C1261 C 0.93634 0.43432 0.23918 0.0
C1262 C 0.92132 0.42279 0.24089 0.0
H1263 H 0.88396 0.4139 0.29652 0.0
H1264 H 0.90349 0.42212 0.28442 0.0
H1265 H 0.88359 0.43577 0.28574 0.0
H1266 H 0.89166 0.45291 0.25828 0.0
H1267 H 0.91798 0.47305 0.25556 0.0
H1268 H 0.23327 0.36673 0.75841 0.0
H1269 H 0.21187 0.39172 0.76053 0.0
H1270 H 0.17378 0.35616 0.78714 0.0
H1271 H 0.19514 0.33119 0.78531 0.0
H1272 H 0.17407 0.39304 0.74717 0.0
H1273 H 0.18133 0.40039 0.82218 0.0
H1274 H 0.19775 0.38882 0.80864 0.0
H1275 H 0.17678 0.37777 0.8142 0.0
C1276 C 0.22035 0.36425 0.76475 0.0
C1277 C 0.21593 0.34699 0.77176 0.0
C1278 C 0.20812 0.37851 0.76586 0.0
C1279 C 0.19136 0.37582 0.77418 0.0
C1280 C 0.18674 0.35855 0.78085 0.0
H1281 H 0.09926 0.4395 0.80159 0.0
H1282 H 0.1226 0.41675 0.79815 0.0
C1283 C 0.1989 0.34426 0.77964 0.0
C1284 C 0.17872 0.39109 0.77608 0.0
H1285 H 0.15828 0.41736 0.80767 0.0
C1286 C 0.17067 0.39848 0.76036 0.0
C1287 C 0.17437 0.3981 0.79332 0.0
C1288 C 0.18308 0.391 0.81058 0.0
C1289 C 0.15789 0.41236 0.76147 0.0
C1290 C 0.15342 0.4193 0.77876 0.0
C1291 C 0.16172 0.41205 0.79444 0.0
C1292 C 0.13958 0.4335 0.781 0.0
C1293 C 0.14882 0.41897 0.7442 0.0
C1294 C 0.14147 0.45063 0.77274 0.0
C1295 C 0.12808 0.4637 0.77467 0.0
C1296 C 0.11273 0.45997 0.78517 0.0
C1297 C 0.11109 0.44293 0.79371 0.0
C1298 C 0.12437 0.42986 0.79166 0.0
H1299 H 0.1503 0.40922 0.73286 0.0
H1300 H 0.13421 0.42126 0.74632 0.0
H1301 H 0.15514 0.43202 0.74 0.0
H1302 H 0.15328 0.45389 0.76478 0.0
H1303 H 0.12973 0.47674 0.76801 0.0
H1304 H 0.19887 0.68726 0.23235 0.0
H1305 H 0.17622 0.66335 0.22667 0.0
H1306 H 0.1633 0.66236 0.28368 0.0
H1307 H 0.18605 0.68593 0.28957 0.0
H1308 H 0.17293 0.62742 0.2433 0.0
H1309 H 0.11423 0.67121 0.25694 0.0
H1310 H 0.13645 0.6803 0.25222 0.0
H1311 H 0.13147 0.67137 0.27441 0.0
C1312 C 0.19135 0.68183 0.24372 0.0
C1313 C 0.19418 0.68868 0.2614 0.0
C1314 C 0.17836 0.66823 0.24042 0.0
C1315 C 0.16789 0.66132 0.25471 0.0
C1316 C 0.17098 0.66778 0.27241 0.0
H1317 H 0.08054 0.58516 0.27037 0.0
H1318 H 0.10465 0.60789 0.27276 0.0
C1319 C 0.18397 0.68131 0.27573 0.0
C1320 C 0.15367 0.64739 0.25122 0.0
H1321 H 0.10824 0.63968 0.25418 0.0
C1322 C 0.15876 0.63009 0.24551 0.0
C1323 C 0.13522 0.65096 0.25414 0.0
C1324 C 0.12892 0.6695 0.25961 0.0
C1325 C 0.14592 0.61604 0.24327 0.0
C1326 C 0.12746 0.61954 0.24645 0.0
C1327 C 0.12238 0.63697 0.25181 0.0
C1328 C 0.11322 0.60524 0.24487 0.0
C1329 C 0.15232 0.59743 0.23817 0.0
C1330 C 0.10989 0.59623 0.22835 0.0
C1331 C 0.09622 0.583 0.22699 0.0
C1332 C 0.08547 0.57864 0.2421 0.0
C1333 C 0.08875 0.58787 0.25856 0.0
C1334 C 0.10245 0.60101 0.25991 0.0
H1335 H 0.16703 0.59587 0.24086 0.0
H1336 H 0.14491 0.58671 0.24578 0.0
H1337 H 0.14982 0.59526 0.22341 0.0
H1338 H 0.11776 0.59953 0.21644 0.0
H1339 H 0.09418 0.5761 0.21414 0.0
H1340 H 0.83165 0.82 0.67452 0.0
H1341 H 0.83119 0.8441 0.65157 0.0
H1342 H 0.77587 0.85549 0.66444 0.0
H1343 H 0.77602 0.83112 0.68718 0.0
H1344 H 0.80652 0.8472 0.62065 0.0
H1345 H 0.80278 0.90538 0.66824 0.0
H1346 H 0.80994 0.88313 0.6755 0.0
H1347 H 0.78641 0.88749 0.67152 0.0
C1348 C 0.81931 0.8275 0.67239 0.0
C1349 C 0.80385 0.82358 0.68273 0.0
C1350 C 0.81912 0.84134 0.65934 0.0
C1351 C 0.80357 0.85168 0.65646 0.0
C1352 C 0.78811 0.84785 0.66669 0.0
H1353 H 0.77843 0.94275 0.58557 0.0
H1354 H 0.77782 0.91821 0.60801 0.0
C1355 C 0.78824 0.83394 0.6797 0.0
C1356 C 0.80346 0.86621 0.64248 0.0
H1357 H 0.80056 0.91204 0.6368 0.0
C1358 C 0.80526 0.86139 0.62415 0.0
C1359 C 0.80173 0.88467 0.64712 0.0
C1360 C 0.80024 0.89059 0.66666 0.0
C1361 C 0.80514 0.87455 0.61027 0.0
C1362 C 0.80362 0.89307 0.61491 0.0
C1363 C 0.80175 0.89786 0.63326 0.0
C1364 C 0.80395 0.9077 0.60096 0.0
C1365 C 0.80622 0.86845 0.59074 0.0
C1366 C 0.81892 0.91006 0.58963 0.0
C1367 C 0.81921 0.92395 0.5766 0.0
C1368 C 0.80461 0.93589 0.57477 0.0
C1369 C 0.78975 0.93361 0.58634 0.0
C1370 C 0.78944 0.91967 0.59929 0.0
H1371 H 0.80208 0.854 0.58921 0.0
H1372 H 0.79753 0.87683 0.58168 0.0
H1373 H 0.82038 0.86984 0.58614 0.0
H1374 H 0.83045 0.90123 0.59093 0.0
H1375 H 0.83082 0.92522 0.56787 0.0
H1376 H 0.67358 0.27595 0.20088 0.0
H1377 H 0.65066 0.27415 0.17669 0.0
H1378 H 0.6164 0.24205 0.21161 0.0
H1379 H 0.63887 0.24449 0.23617 0.0
H1380 H 0.63831 0.24373 0.16006 0.0
H1381 H 0.5811 0.27888 0.19191 0.0
H1382 H 0.60384 0.28016 0.20102 0.0
H1383 H 0.5898 0.26062 0.20553 0.0
C1384 C 0.661 0.26886 0.20359 0.0
C1385 C 0.65808 0.2604 0.22052 0.0
C1386 C 0.64797 0.26773 0.18968 0.0
C1387 C 0.63171 0.25816 0.1924 0.0
C1388 C 0.62867 0.24982 0.20931 0.0
H1389 H 0.54695 0.22082 0.1178 0.0
H1390 H 0.56661 0.22617 0.14451 0.0
C1391 C 0.64166 0.25102 0.22326 0.0
C1392 C 0.6185 0.25597 0.17717 0.0
H1393 H 0.57444 0.26265 0.16456 0.0
C1394 C 0.62438 0.24798 0.16102 0.0
C1395 C 0.60031 0.26148 0.17845 0.0
C1396 C 0.5934 0.27092 0.19509 0.0
C1397 C 0.61253 0.24517 0.14622 0.0
C1398 C 0.59436 0.25054 0.14757 0.0
C1399 C 0.5884 0.25848 0.16367 0.0
C1400 C 0.58152 0.24828 0.13214 0.0
C1401 C 0.61944 0.23628 0.12926 0.0
C1402 C 0.58324 0.2592 0.11659 0.0
C1403 C 0.57206 0.25623 0.10141 0.0
C1404 C 0.55897 0.24225 0.1015 0.0
C1405 C 0.55696 0.23163 0.11732 0.0
C1406 C 0.56811 0.2347 0.13257 0.0
H1407 H 0.63295 0.2302 0.13148 0.0
H1408 H 0.60986 0.22555 0.12452 0.0
H1409 H 0.62053 0.24657 0.11824 0.0
H1410 H 0.59352 0.26976 0.11605 0.0
H1411 H 0.57415 0.26445 0.08934 0.0
H1412 H 0.27353 0.19938 0.66075 0.0
H1413 H 0.27486 0.17284 0.64092 0.0
H1414 H 0.25583 0.13876 0.68465 0.0
H1415 H 0.25426 0.16526 0.70453 0.0
H1416 H 0.29507 0.13913 0.64814 0.0
H1417 H 0.22083 0.12837 0.64024 0.0
H1418 H 0.23062 0.14974 0.64747 0.0
H1419 H 0.22953 0.13099 0.66308 0.0
C1420 C 0.26949 0.18626 0.66611 0.0
C1421 C 0.26372 0.18443 0.6842 0.0
C1422 C 0.27036 0.17111 0.6548 0.0
C1423 C 0.26528 0.1539 0.66128 0.0
C1424 C 0.25963 0.15198 0.67934 0.0
H1425 H 0.25523 0.04978 0.60508 0.0
H1426 H 0.25495 0.07384 0.62806 0.0
C1427 C 0.25888 0.1671 0.69071 0.0
C1428 C 0.26605 0.13795 0.64915 0.0
H1429 H 0.23963 0.10715 0.62624 0.0
C1430 C 0.28297 0.1321 0.64335 0.0
C1431 C 0.25024 0.12876 0.64307 0.0
C1432 C 0.23173 0.13478 0.64864 0.0
C1433 C 0.28452 0.11724 0.63162 0.0
C1434 C 0.26867 0.10829 0.62515 0.0
C1435 C 0.25176 0.114 0.6312 0.0
C1436 C 0.2693 0.0935 0.61152 0.0
C1437 C 0.30314 0.11113 0.6265 0.0
C1438 C 0.27724 0.09661 0.59454 0.0
C1439 C 0.2775 0.08291 0.58151 0.0
C1440 C 0.26964 0.06583 0.58508 0.0
C1441 C 0.26145 0.06278 0.60199 0.0
C1442 C 0.2613 0.0765 0.6151 0.0
H1443 H 0.31346 0.11534 0.63682 0.0
H1444 H 0.3036 0.09617 0.62499 0.0
H1445 H 0.30688 0.11746 0.61333 0.0
H1446 H 0.28296 0.10978 0.59121 0.0
H1447 H 0.28346 0.08586 0.56841 0.0
H1448 H 0.3351 0.77777 0.16875 0.0
H1449 H 0.35884 0.78093 0.14604 0.0
H1450 H 0.39088 0.74155 0.17514 0.0
H1451 H 0.36714 0.7382 0.19779 0.0
H1452 H 0.39442 0.79132 0.14884 0.0
H1453 H 0.3891 0.72044 0.12438 0.0
H1454 H 0.37246 0.73027 0.13894 0.0
H1455 H 0.3934 0.72211 0.14841 0.0
C1456 C 0.34727 0.76989 0.17039 0.0
C1457 C 0.34917 0.75762 0.185 0.0
C1458 C 0.3608 0.77166 0.15736 0.0
C1459 C 0.37649 0.76121 0.15867 0.0
C1460 C 0.37868 0.74938 0.17355 0.0
H1461 H 0.47341 0.75206 0.09437 0.0
H1462 H 0.4504 0.75051 0.11789 0.0
C1463 C 0.36511 0.74752 0.18652 0.0
C1464 C 0.39055 0.76269 0.14446 0.0
H1465 H 0.41376 0.73805 0.11343 0.0
C1466 C 0.39859 0.77969 0.14103 0.0
C1467 C 0.39595 0.74751 0.13423 0.0
C1468 C 0.38717 0.72909 0.13652 0.0
C1469 C 0.41211 0.78185 0.12793 0.0
C1470 C 0.41761 0.76664 0.11786 0.0
C1471 C 0.40957 0.74966 0.12124 0.0
C1472 C 0.43166 0.76803 0.10368 0.0
C1473 C 0.42068 0.80031 0.12519 0.0
C1474 C 0.42869 0.77828 0.0878 0.0
C1475 C 0.44174 0.77906 0.07422 0.0
C1476 C 0.45804 0.76956 0.07622 0.0
C1477 C 0.46094 0.75934 0.09221 0.0
C1478 C 0.44785 0.75852 0.10575 0.0
H1479 H 0.41793 0.80955 0.13669 0.0
H1480 H 0.43553 0.7992 0.12366 0.0
H1481 H 0.4151 0.8065 0.11255 0.0
H1482 H 0.41613 0.78544 0.08578 0.0
H1483 H 0.4389 0.78681 0.06197 0.0
H1484 H 0.76988 0.22577 0.38265 0.0
H1485 H 0.77423 0.19993 0.40332 0.0
H1486 H 0.77897 0.16438 0.35729 0.0
H1487 H 0.77485 0.19012 0.33655 0.0
H1488 H 0.75294 0.16579 0.40433 0.0
H1489 H 0.8256 0.15622 0.38928 0.0
H1490 H 0.81401 0.17711 0.38434 0.0
H1491 H 0.81065 0.15781 0.36985 0.0
C1492 C 0.77194 0.21246 0.37695 0.0
C1493 C 0.77209 0.20998 0.35798 0.0
C1494 C 0.77433 0.19773 0.38876 0.0
C1495 C 0.77711 0.18033 0.3818 0.0
C1496 C 0.77703 0.17776 0.3629 0.0
H1497 H 0.79928 0.07476 0.42849 0.0
H1498 H 0.79435 0.10091 0.40845 0.0
C1499 C 0.77453 0.19244 0.35109 0.0
C1500 C 0.78007 0.16483 0.39429 0.0
H1501 H 0.8116 0.13405 0.40788 0.0
C1502 C 0.76577 0.15887 0.40521 0.0
C1503 C 0.79681 0.15586 0.39528 0.0
C1504 C 0.81273 0.1621 0.38419 0.0
C1505 C 0.76766 0.14386 0.41688 0.0
C1506 C 0.78445 0.1349 0.41794 0.0
C1507 C 0.79876 0.14094 0.40704 0.0
C1508 C 0.78744 0.11915 0.43019 0.0
C1509 C 0.75153 0.13746 0.4276 0.0
C1510 C 0.78548 0.12081 0.44907 0.0
C1511 C 0.78827 0.1059 0.46054 0.0
C1512 C 0.79329 0.0891 0.45335 0.0
C1513 C 0.79557 0.08757 0.43445 0.0
C1514 C 0.79269 0.10246 0.42299 0.0
H1515 H 0.73867 0.14249 0.42158 0.0
H1516 H 0.75085 0.12243 0.42828 0.0
H1517 H 0.75271 0.14271 0.4417 0.0
H1518 H 0.78191 0.13368 0.45497 0.0
H1519 H 0.78671 0.10758 0.47507 0.0
H1520 H 0.3287 0.23693 0.85669 0.0
H1521 H 0.34909 0.23717 0.88328 0.0
H1522 H 0.39435 0.24775 0.84834 0.0
H1523 H 0.37406 0.24775 0.82174 0.0
H1524 H 0.38014 0.21392 0.88874 0.0
H1525 H 0.39851 0.28713 0.88869 0.0
H1526 H 0.37872 0.27829 0.87693 0.0
H1527 H 0.40067 0.27597 0.86715 0.0
C1528 C 0.34296 0.23954 0.85471 0.0
C1529 C 0.34977 0.24236 0.83712 0.0
C1530 C 0.35459 0.23957 0.86988 0.0
C1531 C 0.37317 0.24266 0.86777 0.0
C1532 C 0.38001 0.24557 0.85027 0.0
H1533 H 0.46977 0.24581 0.93354 0.0
H1534 H 0.44625 0.24734 0.90997 0.0
C1535 C 0.36843 0.24541 0.83508 0.0
C1536 C 0.38557 0.24221 0.88376 0.0
H1537 H 0.41582 0.268 0.90809 0.0
C1538 C 0.38784 0.22576 0.89312 0.0
C1539 C 0.39557 0.25769 0.88936 0.0
C1540 C 0.39319 0.27584 0.88014 0.0
C1541 C 0.40037 0.22419 0.90757 0.0
C1542 C 0.41057 0.23963 0.91304 0.0
C1543 C 0.408 0.25618 0.90388 0.0
C1544 C 0.4246 0.23876 0.92764 0.0
C1545 C 0.40307 0.20587 0.91635 0.0
C1546 C 0.42022 0.23358 0.94549 0.0
C1547 C 0.43369 0.23266 0.95903 0.0
C1548 C 0.45171 0.23716 0.955 0.0
C1549 C 0.45597 0.24253 0.93716 0.0
C1550 C 0.44256 0.24334 0.92365 0.0
H1551 H 0.39757 0.19471 0.90772 0.0
H1552 H 0.41762 0.20337 0.91908 0.0
H1553 H 0.39594 0.2054 0.92952 0.0
H1554 H 0.40638 0.23035 0.94898 0.0
H1555 H 0.42998 0.22864 0.9727 0.0
H1556 H 0.30051 0.81965 0.36012 0.0
H1557 H 0.29594 0.83942 0.38627 0.0
H1558 H 0.25247 0.86591 0.35738 0.0
H1559 H 0.25683 0.84606 0.33129 0.0
H1560 H 0.29906 0.87587 0.38814 0.0
H1561 H 0.22919 0.85537 0.40566 0.0
H1562 H 0.24276 0.8425 0.39026 0.0
H1563 H 0.23122 0.86245 0.38238 0.0
C1564 C 0.28994 0.82965 0.35936 0.0
C1565 C 0.27899 0.83123 0.34364 0.0
C1566 C 0.2873 0.8409 0.37434 0.0
C1567 C 0.27366 0.85396 0.37394 0.0
C1568 C 0.26274 0.85561 0.35824 0.0
H1569 H 0.2441 0.94516 0.43933 0.0
H1570 H 0.24704 0.92145 0.41653 0.0
C1571 C 0.26529 0.84428 0.3433 0.0
C1572 C 0.27146 0.86646 0.38956 0.0
H1573 H 0.24065 0.88247 0.41956 0.0
C1574 C 0.28634 0.87716 0.39513 0.0
C1575 C 0.25486 0.86815 0.39871 0.0
C1576 C 0.23865 0.85638 0.39408 0.0
C1577 C 0.28493 0.88987 0.40921 0.0
C1578 C 0.26825 0.89179 0.41809 0.0
C1579 C 0.25342 0.88096 0.4127 0.0
C1580 C 0.26577 0.90548 0.43253 0.0
C1581 C 0.30114 0.90154 0.41411 0.0
C1582 C 0.27507 0.90417 0.44927 0.0
C1583 C 0.27327 0.91763 0.46247 0.0
C1584 C 0.26209 0.93263 0.45919 0.0
C1585 C 0.25253 0.93364 0.44251 0.0
C1586 C 0.25429 0.92017 0.42938 0.0
H1587 H 0.31186 0.90083 0.40371 0.0
H1588 H 0.29716 0.91591 0.41567 0.0
H1589 H 0.30692 0.89687 0.42731 0.0
H1590 H 0.28381 0.89279 0.45206 0.0
H1591 H 0.28069 0.91633 0.47521 0.0
H1592 H 0.70541 0.74017 0.83415 0.0
H1593 H 0.68205 0.73948 0.85744 0.0
H1594 H 0.67494 0.79708 0.85105 0.0
H1595 H 0.6984 0.79797 0.828 0.0
H1596 H 0.68058 0.75921 0.89082 0.0
H1597 H 0.62345 0.77585 0.84415 0.0
H1598 H 0.64497 0.76821 0.83607 0.0
H1599 H 0.64233 0.79133 0.84303 0.0
C1600 C 0.69898 0.75272 0.8378 0.0
C1601 C 0.7037 0.76911 0.82907 0.0
C1602 C 0.68558 0.75228 0.85104 0.0
C1603 C 0.67656 0.76817 0.85574 0.0
C1604 C 0.68144 0.78458 0.84733 0.0
H1605 H 0.59198 0.7975 0.92971 0.0
H1606 H 0.61586 0.79663 0.90709 0.0
C1607 C 0.69485 0.78505 0.83412 0.0
C1608 C 0.66217 0.76769 0.86959 0.0
H1609 H 0.61743 0.77614 0.87579 0.0
C1610 C 0.66674 0.76278 0.88754 0.0
C1611 C 0.64415 0.7724 0.86526 0.0
C1612 C 0.63833 0.7771 0.84606 0.0
C1613 C 0.65384 0.76293 0.9014 0.0
C1614 C 0.63583 0.76775 0.89708 0.0
C1615 C 0.63125 0.77249 0.87909 0.0
C1616 C 0.62154 0.76817 0.91105 0.0
C1617 C 0.65975 0.75843 0.92062 0.0
C1618 C 0.61665 0.75242 0.92067 0.0
C1619 C 0.6031 0.7529 0.93374 0.0
C1620 C 0.59405 0.76914 0.93735 0.0
C1621 C 0.59885 0.78484 0.9275 0.0
C1622 C 0.61242 0.78434 0.91447 0.0
H1623 H 0.67463 0.75972 0.92245 0.0
H1624 H 0.65315 0.76739 0.93056 0.0
H1625 H 0.65582 0.74421 0.92379 0.0
H1626 H 0.62325 0.7397 0.91801 0.0
H1627 H 0.59986 0.74059 0.94115 0.0
loop_
_geom_bond_atom_site_label_1
_geom_bond_atom_site_label_2
_geom_bond_distance
_geom_bond_site_symmetry_2
_ccdc_geom_bond_type
C0 C1 1.264 . S
C0 C5 1.479 . S
C0 C10 1.465 . S
C1 C0 1.264 . S
C1 C3 1.339 . S
C1 H28 0.931 . S
C2 C3 1.395 . S
C2 C4 1.320 . S
C3 C1 1.339 . S
C3 C2 1.395 . S
C3 H29 0.929 . S
C4 C2 1.320 . S
C4 C5 1.405 . S
C4 H30 0.930 . S
C5 C0 1.479 . S
C5 C4 1.405 . S
C5 H31 0.931 . S
U6 O7 2.454 . S
U6 O8 2.458 . S
U6 C9 2.984 . S
U6 C10 2.847 . S
U6 C23 2.882 . S
U6 O24 2.441 . S
U6 O25 2.420 . S
U6 O26 2.455 . S
U6 O27 2.449 . S
O7 U6 2.454 . S
O7 C9 1.353 . S
O8 U6 2.458 . S
O8 C9 1.286 . S
C9 U6 2.984 . S
C9 O7 1.353 . S
C9 O8 1.286 . S
C9 C11 1.363 . S
C10 C0 1.465 . S
C10 U6 2.847 . S
C10 O24 1.249 . S
C10 O25 1.202 . S
C11 C9 1.363 . S
C11 C13 1.408 . S
C11 C16 1.342 . S
C12 C13 1.310 . S
C12 C15 1.461 . S
C12 H32 0.932 . S
C13 C11 1.408 . S
C13 C12 1.310 . S
C13 H33 0.930 . S
C14 C15 1.474 . S
C14 C16 1.285 . S
C14 H34 0.929 . S
C15 C12 1.461 . S
C15 C14 1.474 . S
C16 C11 1.342 . S
C16 C14 1.285 . S
C16 H35 0.930 . S
C17 C20 1.424 . S
C17 C22 1.245 . S
C17 C23 1.428 . S
C18 C21 1.260 . S
C18 C22 1.477 . S
C18 H36 0.932 . S
C19 C20 1.384 . S
C19 C21 1.479 . S
C19 H37 0.929 . S
C20 C17 1.424 . S
C20 C19 1.384 . S
C20 H38 0.928 . S
C21 C18 1.260 . S
C21 C19 1.479 . S
C22 C17 1.245 . S
C22 C18 1.477 . S
C22 H39 0.932 . S
C23 U6 2.882 . S
C23 C17 1.428 . S
C23 O26 1.301 . S
C23 O27 1.282 . S
O24 U6 2.441 . S
O24 C10 1.249 . S
O25 U6 2.420 . S
O25 C10 1.202 . S
O26 U6 2.455 . S
O26 C23 1.301 . S
O27 U6 2.449 . S
O27 C23 1.282 . S
H28 C1 0.931 . S
H29 C3 0.929 . S
H30 C4 0.930 . S
H31 C5 0.931 . S
H32 C12 0.932 . S
H33 C13 0.930 . S
H34 C14 0.929 . S
H35 C16 0.930 . S
H36 C18 0.932 . S
H37 C19 0.929 . S
H38 C20 0.928 . S
H39 C22 0.932 . S
C40 C41 1.264 . S
C40 C45 1.479 . S
C40 C50 1.465 . S
C41 C40 1.264 . S
C41 C43 1.339 . S
C41 H68 0.931 . S
C42 C43 1.395 . S
C42 C44 1.320 . S
C43 C41 1.339 . S
C43 C42 1.395 . S
C43 H69 0.929 . S
C44 C42 1.320 . S
C44 C45 1.405 . S
C44 H70 0.930 . S
C45 C40 1.479 . S
C45 C44 1.405 . S
C45 H71 0.931 . S
U46 O47 2.454 . S
U46 O48 2.458 . S
U46 C49 2.984 . S
U46 C50 2.847 . S
U46 C63 2.882 . S
U46 O64 2.441 . S
U46 O65 2.420 . S
U46 O66 2.455 . S
U46 O67 2.449 . S
O47 U46 2.454 . S
O47 C49 1.353 . S
O48 U46 2.458 . S
O48 C49 1.286 . S
C49 U46 2.984 . S
C49 O47 1.353 . S
C49 O48 1.286 . S
C49 C51 1.363 . S
C50 C40 1.465 . S
C50 U46 2.847 . S
C50 O64 1.249 . S
C50 O65 1.202 . S
C51 C49 1.363 . S
C51 C53 1.408 . S
C51 C56 1.342 . S
C52 C53 1.310 . S
C52 C55 1.461 . S
C52 H72 0.932 . S
C53 C51 1.408 . S
C53 C52 1.310 . S
C53 H73 0.930 . S
C54 C55 1.474 . S
C54 C56 1.285 . S
C54 H74 0.929 . S
C55 C52 1.461 . S
C55 C54 1.474 . S
C56 C51 1.342 . S
C56 C54 1.285 . S
C56 H75 0.930 . S
C57 C60 1.424 . S
C57 C62 1.245 . S
C57 C63 1.428 . S
C58 C61 1.260 . S
C58 C62 1.477 . S
C58 H76 0.932 . S
C59 C60 1.384 . S
C59 C61 1.479 . S
C59 H77 0.929 . S
C60 C57 1.424 . S
C60 C59 1.384 . S
C60 H78 0.928 . S
C61 C58 1.260 . S
C61 C59 1.479 . S
C62 C57 1.245 . S
C62 C58 1.477 . S
C62 H79 0.932 . S
C63 U46 2.882 . S
C63 C57 1.428 . S
C63 O66 1.301 . S
C63 O67 1.282 . S
O64 U46 2.441 . S
O64 C50 1.249 . S
O65 U46 2.420 . S
O65 C50 1.202 . S
O66 U46 2.455 . S
O66 C63 1.301 . S
O67 U46 2.449 . S
O67 C63 1.282 . S
H68 C41 0.931 . S
H69 C43 0.929 . S
H70 C44 0.930 . S
H71 C45 0.931 . S
H72 C52 0.932 . S
H73 C53 0.930 . S
H74 C54 0.929 . S
H75 C56 0.930 . S
H76 C58 0.932 . S
H77 C59 0.929 . S
H78 C60 0.928 . S
H79 C62 0.932 . S
C80 C81 1.264 . S
C80 C85 1.479 . S
C80 C90 1.465 . S
C81 C80 1.264 . S
C81 C83 1.339 . S
C81 H108 0.931 . S
C82 C83 1.395 . S
C82 C84 1.320 . S
C83 C81 1.339 . S
C83 C82 1.395 . S
C83 H109 0.929 . S
C84 C82 1.320 . S
C84 C85 1.405 . S
C84 H110 0.930 . S
C85 C80 1.479 . S
C85 C84 1.405 . S
C85 H111 0.931 . S
U86 O87 2.454 . S
U86 O88 2.458 . S
U86 C89 2.984 . S
U86 C90 2.847 . S
U86 C103 2.882 . S
U86 O104 2.441 . S
U86 O105 2.420 . S
U86 O106 2.455 . S
U86 O107 2.449 . S
O87 U86 2.454 . S
O87 C89 1.353 . S
O88 U86 2.458 . S
O88 C89 1.286 . S
C89 U86 2.984 . S
C89 O87 1.353 . S
C89 O88 1.286 . S
C89 C91 1.363 . S
C90 C80 1.465 . S
C90 U86 2.847 . S
C90 O104 1.249 . S
C90 O105 1.202 . S
C91 C89 1.363 . S
C91 C93 1.408 . S
C91 C96 1.342 . S
C92 C93 1.310 . S
C92 C95 1.461 . S
C92 H112 0.932 . S
C93 C91 1.408 . S
C93 C92 1.310 . S
C93 H113 0.930 . S
C94 C95 1.474 . S
C94 C96 1.285 . S
C94 H114 0.929 . S
C95 C92 1.461 . S
C95 C94 1.474 . S
C96 C91 1.342 . S
C96 C94 1.285 . S
C96 H115 0.930 . S
C97 C100 1.424 . S
C97 C102 1.245 . S
C97 C103 1.428 . S
C98 C101 1.260 . S
C98 C102 1.477 . S
C98 H116 0.932 . S
C99 C100 1.384 . S
C99 C101 1.479 . S
C99 H117 0.929 . S
C100 C97 1.424 . S
C100 C99 1.384 . S
C100 H118 0.928 . S
C101 C98 1.260 . S
C101 C99 1.479 . S
C102 C97 1.245 . S
C102 C98 1.477 . S
C102 H119 0.932 . S
C103 U86 2.882 . S
C103 C97 1.428 . S
C103 O106 1.301 . S
C103 O107 1.282 . S
O104 U86 2.441 . S
O104 C90 1.249 . S
O105 U86 2.420 . S
O105 C90 1.202 . S
O106 U86 2.455 . S
O106 C103 1.301 . S
O107 U86 2.449 . S
O107 C103 1.282 . S
H108 C81 0.931 . S
H109 C83 0.929 . S
H110 C84 0.930 . S
H111 C85 0.931 . S
H112 C92 0.932 . S
H113 C93 0.930 . S
H114 C94 0.929 . S
H115 C96 0.930 . S
H116 C98 0.932 . S
H117 C99 0.929 . S
H118 C100 0.928 . S
H119 C102 0.932 . S
C120 C121 1.264 . S
C120 C125 1.479 . S
C120 C130 1.465 . S
C121 C120 1.264 . S
C121 C123 1.339 . S
C121 H148 0.931 . S
C122 C123 1.395 . S
C122 C124 1.320 . S
C123 C121 1.339 . S
C123 C122 1.395 . S
C123 H149 0.929 . S
C124 C122 1.320 . S
C124 C125 1.405 . S
C124 H150 0.930 . S
C125 C120 1.479 . S
C125 C124 1.405 . S
C125 H151 0.931 . S
U126 O127 2.454 . S
U126 O128 2.458 . S
U126 C129 2.984 . S
U126 C130 2.847 . S
U126 C143 2.882 . S
U126 O144 2.441 . S
U126 O145 2.420 . S
U126 O146 2.455 . S
U126 O147 2.449 . S
O127 U126 2.454 . S
O127 C129 1.353 . S
O128 U126 2.458 . S
O128 C129 1.286 . S
C129 U126 2.984 . S
C129 O127 1.353 . S
C129 O128 1.286 . S
C129 C131 1.363 . S
C130 C120 1.465 . S
C130 U126 2.847 . S
C130 O144 1.249 . S
C130 O145 1.202 . S
C131 C129 1.363 . S
C131 C133 1.408 . S
C131 C136 1.342 . S
C132 C133 1.310 . S
C132 C135 1.461 . S
C132 H152 0.932 . S
C133 C131 1.408 . S
C133 C132 1.310 . S
C133 H153 0.930 . S
C134 C135 1.474 . S
C134 C136 1.285 . S
C134 H154 0.929 . S
C135 C132 1.461 . S
C135 C134 1.474 . S
C136 C131 1.342 . S
C136 C134 1.285 . S
C136 H155 0.930 . S
C137 C140 1.424 . S
C137 C142 1.245 . S
C137 C143 1.428 . S
C138 C141 1.260 . S
C138 C142 1.477 . S
C138 H156 0.932 . S
C139 C140 1.384 . S
C139 C141 1.479 . S
C139 H157 0.929 . S
C140 C137 1.424 . S
C140 C139 1.384 . S
C140 H158 0.928 . S
C141 C138 1.260 . S
C141 C139 1.479 . S
C142 C137 1.245 . S
C142 C138 1.477 . S
C142 H159 0.932 . S
C143 U126 2.882 . S
C143 C137 1.428 . S
C143 O146 1.301 . S
C143 O147 1.282 . S
O144 U126 2.441 . S
O144 C130 1.249 . S
O145 U126 2.420 . S
O145 C130 1.202 . S
O146 U126 2.455 . S
O146 C143 1.301 . S
O147 U126 2.449 . S
O147 C143 1.282 . S
H148 C121 0.931 . S
H149 C123 0.929 . S
H150 C124 0.930 . S
H151 C125 0.931 . S
H152 C132 0.932 . S
H153 C133 0.930 . S
H154 C134 0.929 . S
H155 C136 0.930 . S
H156 C138 0.932 . S
H157 C139 0.929 . S
H158 C140 0.928 . S
H159 C142 0.932 . S
C160 C161 1.264 . S
C160 C165 1.479 . S
C160 C170 1.465 . S
C161 C160 1.264 . S
C161 C163 1.339 . S
C161 H188 0.931 . S
C162 C163 1.395 . S
C162 C164 1.320 . S
C163 C161 1.339 . S
C163 C162 1.395 . S
C163 H189 0.929 . S
C164 C162 1.320 . S
C164 C165 1.405 . S
C164 H190 0.930 . S
C165 C160 1.479 . S
C165 C164 1.405 . S
C165 H191 0.931 . S
U166 O167 2.454 . S
U166 O168 2.458 . S
U166 C169 2.984 . S
U166 C170 2.847 . S
U166 C183 2.882 . S
U166 O184 2.441 . S
U166 O185 2.420 . S
U166 O186 2.455 . S
U166 O187 2.449 . S
O167 U166 2.454 . S
O167 C169 1.353 . S
O168 U166 2.458 . S
O168 C169 1.286 . S
C169 U166 2.984 . S
C169 O167 1.353 . S
C169 O168 1.286 . S
C169 C171 1.363 . S
C170 C160 1.465 . S
C170 U166 2.847 . S
C170 O184 1.249 . S
C170 O185 1.202 . S
C171 C169 1.363 . S
C171 C173 1.408 . S
C171 C176 1.342 . S
C172 C173 1.310 . S
C172 C175 1.461 . S
C172 H192 0.932 . S
C173 C171 1.408 . S
C173 C172 1.310 . S
C173 H193 0.930 . S
C174 C175 1.474 . S
C174 C176 1.285 . S
C174 H194 0.929 . S
C175 C172 1.461 . S
C175 C174 1.474 . S
C176 C171 1.342 . S
C176 C174 1.285 . S
C176 H195 0.930 . S
C177 C180 1.424 . S
C177 C182 1.245 . S
C177 C183 1.428 . S
C178 C181 1.260 . S
C178 C182 1.477 . S
C178 H196 0.932 . S
C179 C180 1.384 . S
C179 C181 1.479 . S
C179 H197 0.929 . S
C180 C177 1.424 . S
C180 C179 1.384 . S
C180 H198 0.928 . S
C181 C178 1.260 . S
C181 C179 1.479 . S
C182 C177 1.245 . S
C182 C178 1.477 . S
C182 H199 0.932 . S
C183 U166 2.882 . S
C183 C177 1.428 . S
C183 O186 1.301 . S
C183 O187 1.282 . S
O184 U166 2.441 . S
O184 C170 1.249 . S
O185 U166 2.420 . S
O185 C170 1.202 . S
O186 U166 2.455 . S
O186 C183 1.301 . S
O187 U166 2.449 . S
O187 C183 1.282 . S
H188 C161 0.931 . S
H189 C163 0.929 . S
H190 C164 0.930 . S
H191 C165 0.931 . S
H192 C172 0.932 . S
H193 C173 0.930 . S
H194 C174 0.929 . S
H195 C176 0.930 . S
H196 C178 0.932 . S
H197 C179 0.929 . S
H198 C180 0.928 . S
H199 C182 0.932 . S
C200 C201 1.264 . S
C200 C205 1.479 . S
C200 C210 1.465 . S
C201 C200 1.264 . S
C201 C203 1.339 . S
C201 H228 0.931 . S
C202 C203 1.395 . S
C202 C204 1.320 . S
C203 C201 1.339 . S
C203 C202 1.395 . S
C203 H229 0.929 . S
C204 C202 1.320 . S
C204 C205 1.405 . S
C204 H230 0.930 . S
C205 C200 1.479 . S
C205 C204 1.405 . S
C205 H231 0.931 . S
U206 O207 2.454 . S
U206 O208 2.458 . S
U206 C209 2.984 . S
U206 C210 2.847 . S
U206 C223 2.882 . S
U206 O224 2.441 . S
U206 O225 2.420 . S
U206 O226 2.455 . S
U206 O227 2.449 . S
O207 U206 2.454 . S
O207 C209 1.353 . S
O208 U206 2.458 . S
O208 C209 1.286 . S
C209 U206 2.984 . S
C209 O207 1.353 . S
C209 O208 1.286 . S
C209 C211 1.363 . S
C210 C200 1.465 . S
C210 U206 2.847 . S
C210 O224 1.249 . S
C210 O225 1.202 . S
C211 C209 1.363 . S
C211 C213 1.408 . S
C211 C216 1.342 . S
C212 C213 1.310 . S
C212 C215 1.461 . S
C212 H232 0.932 . S
C213 C211 1.408 . S
C213 C212 1.310 . S
C213 H233 0.930 . S
C214 C215 1.474 . S
C214 C216 1.285 . S
C214 H234 0.929 . S
C215 C212 1.461 . S
C215 C214 1.474 . S
C216 C211 1.342 . S
C216 C214 1.285 . S
C216 H235 0.930 . S
C217 C220 1.424 . S
C217 C222 1.245 . S
C217 C223 1.428 . S
C218 C221 1.260 . S
C218 C222 1.477 . S
C218 H236 0.932 . S
C219 C220 1.384 . S
C219 C221 1.479 . S
C219 H237 0.929 . S
C220 C217 1.424 . S
C220 C219 1.384 . S
C220 H238 0.928 . S
C221 C218 1.260 . S
C221 C219 1.479 . S
C222 C217 1.245 . S
C222 C218 1.477 . S
C222 H239 0.932 . S
C223 U206 2.882 . S
C223 C217 1.428 . S
C223 O226 1.301 . S
C223 O227 1.282 . S
O224 U206 2.441 . S
O224 C210 1.249 . S
O225 U206 2.420 . S
O225 C210 1.202 . S
O226 U206 2.455 . S
O226 C223 1.301 . S
O227 U206 2.449 . S
O227 C223 1.282 . S
H228 C201 0.931 . S
H229 C203 0.929 . S
H230 C204 0.930 . S
H231 C205 0.931 . S
H232 C212 0.932 . S
H233 C213 0.930 . S
H234 C214 0.929 . S
H235 C216 0.930 . S
H236 C218 0.932 . S
H237 C219 0.929 . S
H238 C220 0.928 . S
H239 C222 0.932 . S
C240 C241 1.264 . S
C240 C245 1.479 . S
C240 C250 1.465 . S
C241 C240 1.264 . S
C241 C243 1.339 . S
C241 H268 0.931 . S
C242 C243 1.395 . S
C242 C244 1.320 . S
C243 C241 1.339 . S
C243 C242 1.395 . S
C243 H269 0.929 . S
C244 C242 1.320 . S
C244 C245 1.405 . S
C244 H270 0.930 . S
C245 C240 1.479 . S
C245 C244 1.405 . S
C245 H271 0.931 . S
U246 O247 2.454 . S
U246 O248 2.458 . S
U246 C249 2.984 . S
U246 C250 2.847 . S
U246 C263 2.882 . S
U246 O264 2.441 . S
U246 O265 2.420 . S
U246 O266 2.455 . S
U246 O267 2.449 . S
O247 U246 2.454 . S
O247 C249 1.353 . S
O248 U246 2.458 . S
O248 C249 1.286 . S
C249 U246 2.984 . S
C249 O247 1.353 . S
C249 O248 1.286 . S
C249 C251 1.363 . S
C250 C240 1.465 . S
C250 U246 2.847 . S
C250 O264 1.249 . S
C250 O265 1.202 . S
C251 C249 1.363 . S
C251 C253 1.408 . S
C251 C256 1.342 . S
C252 C253 1.310 . S
C252 C255 1.461 . S
C252 H272 0.932 . S
C253 C251 1.408 . S
C253 C252 1.310 . S
C253 H273 0.930 . S
C254 C255 1.474 . S
C254 C256 1.285 . S
C254 H274 0.929 . S
C255 C252 1.461 . S
C255 C254 1.474 . S
C256 C251 1.342 . S
C256 C254 1.285 . S
C256 H275 0.930 . S
C257 C260 1.424 . S
C257 C262 1.245 . S
C257 C263 1.428 . S
C258 C261 1.260 . S
C258 C262 1.477 . S
C258 H276 0.932 . S
C259 C260 1.384 . S
C259 C261 1.479 . S
C259 H277 0.929 . S
C260 C257 1.424 . S
C260 C259 1.384 . S
C260 H278 0.928 . S
C261 C258 1.260 . S
C261 C259 1.479 . S
C262 C257 1.245 . S
C262 C258 1.477 . S
C262 H279 0.932 . S
C263 U246 2.882 . S
C263 C257 1.428 . S
C263 O266 1.301 . S
C263 O267 1.282 . S
O264 U246 2.441 . S
O264 C250 1.249 . S
O265 U246 2.420 . S
O265 C250 1.202 . S
O266 U246 2.455 . S
O266 C263 1.301 . S
O267 U246 2.449 . S
O267 C263 1.282 . S
H268 C241 0.931 . S
H269 C243 0.929 . S
H270 C244 0.930 . S
H271 C245 0.931 . S
H272 C252 0.932 . S
H273 C253 0.930 . S
H274 C254 0.929 . S
H275 C256 0.930 . S
H276 C258 0.932 . S
H277 C259 0.929 . S
H278 C260 0.928 . S
H279 C262 0.932 . S
C280 C281 1.264 . S
C280 C285 1.479 . S
C280 C290 1.465 . S
C281 C280 1.264 . S
C281 C283 1.339 . S
C281 H308 0.931 . S
C282 C283 1.395 . S
C282 C284 1.320 . S
C283 C281 1.339 . S
C283 C282 1.395 . S
C283 H309 0.929 . S
C284 C282 1.320 . S
C284 C285 1.405 . S
C284 H310 0.930 . S
C285 C280 1.479 . S
C285 C284 1.405 . S
C285 H311 0.931 . S
U286 O287 2.454 . S
U286 O288 2.458 . S
U286 C289 2.984 . S
U286 C290 2.847 . S
U286 C303 2.882 . S
U286 O304 2.441 . S
U286 O305 2.420 . S
U286 O306 2.455 . S
U286 O307 2.449 . S
O287 U286 2.454 . S
O287 C289 1.353 . S
O288 U286 2.458 . S
O288 C289 1.286 . S
C289 U286 2.984 . S
C289 O287 1.353 . S
C289 O288 1.286 . S
C289 C291 1.363 . S
C290 C280 1.465 . S
C290 U286 2.847 . S
C290 O304 1.249 . S
C290 O305 1.202 . S
C291 C289 1.363 . S
C291 C293 1.408 . S
C291 C296 1.342 . S
C292 C293 1.310 . S
C292 C295 1.461 . S
C292 H312 0.932 . S
C293 C291 1.408 . S
C293 C292 1.310 . S
C293 H313 0.930 . S
C294 C295 1.474 . S
C294 C296 1.285 . S
C294 H314 0.929 . S
C295 C292 1.461 . S
C295 C294 1.474 . S
C296 C291 1.342 . S
C296 C294 1.285 . S
C296 H315 0.930 . S
C297 C300 1.424 . S
C297 C302 1.245 . S
C297 C303 1.428 . S
C298 C301 1.260 . S
C298 C302 1.477 . S
C298 H316 0.932 . S
C299 C300 1.384 . S
C299 C301 1.479 . S
C299 H317 0.929 . S
C300 C297 1.424 . S
C300 C299 1.384 . S
C300 H318 0.928 . S
C301 C298 1.260 . S
C301 C299 1.479 . S
C302 C297 1.245 . S
C302 C298 1.477 . S
C302 H319 0.932 . S
C303 U286 2.882 . S
C303 C297 1.428 . S
C303 O306 1.301 . S
C303 O307 1.282 . S
O304 U286 2.441 . S
O304 C290 1.249 . S
O305 U286 2.420 . S
O305 C290 1.202 . S
O306 U286 2.455 . S
O306 C303 1.301 . S
O307 U286 2.449 . S
O307 C303 1.282 . S
H308 C281 0.931 . S
H309 C283 0.929 . S
H310 C284 0.930 . S
H311 C285 0.931 . S
H312 C292 0.932 . S
H313 C293 0.930 . S
H314 C294 0.929 . S
H315 C296 0.930 . S
H316 C298 0.932 . S
H317 C299 0.929 . S
H318 C300 0.928 . S
H319 C302 0.932 . S
H320 O346 0.867 . S
H321 O349 0.854 . S
H322 C357 0.930 . S
H323 C358 0.930 . S
H324 C360 0.930 . S
H325 C361 0.930 . S
H326 C363 0.931 . S
H327 C364 0.930 . S
H328 C366 0.930 . S
H329 C367 0.929 . S
H330 C369 0.930 . S
H331 C370 0.931 . S
H332 C372 0.930 . S
H333 C373 0.929 . S
H334 C375 0.931 . S
H335 C376 0.930 . S
H336 C378 0.930 . S
H337 C379 0.932 . S
H338 C381 0.930 . S
H339 C382 0.929 . S
H340 C384 0.931 . S
H341 C385 0.930 . S
H342 C387 0.929 . S
H343 C388 0.931 . S
H344 C390 0.930 . S
H345 C391 0.929 . S
O346 H320 0.867 . S
O346 C392 1.316 . S
O347 C392 1.209 . S
O348 C393 1.199 . S
O349 H321 0.854 . S
O349 C393 1.297 . S
C350 C351 1.404 1_455 S
C350 C355 1.397 1_455 S
C350 C356 1.492 . S
C351 C350 1.404 1_655 S
C351 C352 1.396 . S
C351 C362 1.492 . S
C352 C351 1.396 . S
C352 C353 1.397 . S
C352 C368 1.509 . S
C353 C352 1.397 . S
C353 C354 1.412 . S
C353 C374 1.485 . S
C354 C353 1.412 . S
C354 C355 1.388 . S
C354 C380 1.490 . S
C355 C350 1.397 1_655 S
C355 C354 1.388 . S
C355 C386 1.519 1_655 S
C356 C350 1.492 . S
C356 C357 1.363 . S
C356 C361 1.390 . S
C357 H322 0.930 . S
C357 C356 1.363 . S
C357 C358 1.372 . S
C358 H323 0.930 . S
C358 C357 1.372 . S
C358 C359 1.383 . S
C359 C358 1.383 . S
C359 C360 1.395 . S
C360 H324 0.930 . S
C360 C359 1.395 . S
C360 C361 1.362 . S
C361 H325 0.930 . S
C361 C356 1.390 . S
C361 C360 1.362 . S
C362 C351 1.492 . S
C362 C363 1.377 . S
C362 C367 1.397 1_655 S
C363 H326 0.931 . S
C363 C362 1.377 . S
C363 C364 1.376 . S
C364 H327 0.930 . S
C364 C363 1.376 . S
C364 C365 1.376 1_655 S
C365 C364 1.376 1_455 S
C365 C366 1.378 . S
C365 C392 1.486 . S
C366 H328 0.930 . S
C366 C365 1.378 . S
C366 C367 1.376 . S
C367 H329 0.929 . S
C367 C362 1.397 1_455 S
C367 C366 1.376 . S
C368 C352 1.509 . S
C368 C369 1.391 . S
C368 C373 1.386 . S
C369 H330 0.930 . S
C369 C368 1.391 . S
C369 C370 1.375 . S
C370 H331 0.931 . S
C370 C369 1.375 . S
C370 C371 1.375 . S
C371 C370 1.375 . S
C371 C372 1.361 . S
C372 H332 0.930 . S
C372 C371 1.361 . S
C372 C373 1.399 . S
C373 H333 0.929 . S
C373 C368 1.386 . S
C373 C372 1.399 . S
C374 C353 1.485 . S
C374 C375 1.394 . S
C374 C379 1.360 . S
C375 H334 0.931 . S
C375 C374 1.394 . S
C375 C376 1.372 . S
C376 H335 0.930 . S
C376 C375 1.372 . S
C376 C377 1.397 . S
C377 C376 1.397 . S
C377 C378 1.390 . S
C377 C393 1.476 . S
C378 H336 0.930 . S
C378 C377 1.390 . S
C378 C379 1.366 . S
C379 H337 0.932 . S
C379 C374 1.360 . S
C379 C378 1.366 . S
C380 C354 1.490 . S
C380 C381 1.380 . S
C380 C385 1.386 . S
C381 H338 0.930 . S
C381 C380 1.380 . S
C381 C382 1.381 . S
C382 H339 0.929 . S
C382 C381 1.381 . S
C382 C383 1.371 . S
C383 C382 1.371 . S
C383 C384 1.380 . S
C384 H340 0.931 . S
C384 C383 1.380 . S
C384 C385 1.387 . S
C385 H341 0.930 . S
C385 C380 1.386 . S
C385 C384 1.387 . S
C386 C355 1.519 1_455 S
C386 C387 1.377 . S
C386 C391 1.361 . S
C387 H342 0.929 . S
C387 C386 1.377 . S
C387 C388 1.386 . S
C388 H343 0.931 . S
C388 C387 1.386 . S
C388 C389 1.363 . S
C389 C388 1.363 . S
C389 C390 1.385 . S
C390 H344 0.930 . S
C390 C389 1.385 . S
C390 C391 1.396 . S
C391 H345 0.929 . S
C391 C386 1.361 . S
C391 C390 1.396 . S
C392 O346 1.316 . S
C392 O347 1.209 . S
C392 C365 1.486 . S
C393 O348 1.199 . S
C393 O349 1.297 . S
C393 C377 1.476 . S
H394 O420 0.856 . S
H395 O423 0.854 . S
H396 C431 0.930 . S
H397 C432 0.930 . S
H398 C434 0.930 . S
H399 C435 0.930 . S
H400 C437 0.931 . S
H401 C438 0.930 . S
H402 C440 0.930 . S
H403 C441 0.929 . S
H404 C443 0.930 . S
H405 C444 0.931 . S
H406 C446 0.930 . S
H407 C447 0.929 . S
H408 C449 0.931 . S
H409 C450 0.930 . S
H410 C452 0.930 . S
H411 C453 0.932 . S
H412 C455 0.930 . S
H413 C456 0.929 . S
H414 C458 0.931 . S
H415 C459 0.930 . S
H416 C461 0.929 . S
H417 C462 0.931 . S
H418 C464 0.930 . S
H419 C465 0.929 . S
O420 H394 0.856 . S
O420 C466 1.300 . S
O421 C466 1.209 . S
O422 C467 1.199 . S
O423 H395 0.854 . S
O423 C467 1.297 . S
C424 C425 1.404 . S
C424 C429 1.397 . S
C424 C430 1.492 . S
C425 C424 1.404 . S
C425 C426 1.402 1_455 S
C425 C436 1.492 . S
C426 C425 1.402 1_655 S
C426 C427 1.395 . S
C426 C442 1.505 . S
C427 C426 1.395 . S
C427 C428 1.412 1_655 S
C427 C448 1.485 . S
C428 C427 1.412 1_455 S
C428 C429 1.388 . S
C428 C454 1.490 1_455 S
C429 C424 1.397 . S
C429 C428 1.388 . S
C429 C460 1.519 . S
C430 C424 1.492 . S
C430 C431 1.363 . S
C430 C435 1.390 . S
C431 H396 0.930 . S
C431 C430 1.363 . S
C431 C432 1.372 . S
C432 H397 0.930 . S
C432 C431 1.372 . S
C432 C433 1.383 . S
C433 C432 1.383 . S
C433 C434 1.395 . S
C434 H398 0.930 . S
C434 C433 1.395 . S
C434 C435 1.362 . S
C435 H399 0.930 . S
C435 C430 1.390 . S
C435 C434 1.362 . S
C436 C425 1.492 . S
C436 C437 1.377 . S
C436 C441 1.397 . S
C437 H400 0.931 . S
C437 C436 1.377 . S
C437 C438 1.376 . S
C438 H401 0.930 . S
C438 C437 1.376 . S
C438 C439 1.376 . S
C439 C438 1.376 . S
C439 C440 1.378 . S
C439 C466 1.486 . S
C440 H402 0.930 . S
C440 C439 1.378 . S
C440 C441 1.376 . S
C441 H403 0.929 . S
C441 C436 1.397 . S
C441 C440 1.376 . S
C442 C426 1.505 . S
C442 C443 1.391 . S
C442 C447 1.386 . S
C443 H404 0.930 . S
C443 C442 1.391 . S
C443 C444 1.375 . S
C444 H405 0.931 . S
C444 C443 1.375 . S
C444 C445 1.375 . S
C445 C444 1.375 . S
C445 C446 1.361 . S
C446 H406 0.930 . S
C446 C445 1.361 . S
C446 C447 1.399 . S
C447 H407 0.929 . S
C447 C442 1.386 . S
C447 C446 1.399 . S
C448 C427 1.485 . S
C448 C449 1.394 . S
C448 C453 1.360 . S
C449 H408 0.931 . S
C449 C448 1.394 . S
C449 C450 1.372 . S
C450 H409 0.930 . S
C450 C449 1.372 . S
C450 C451 1.397 . S
C451 C450 1.397 . S
C451 C452 1.390 . S
C451 C467 1.476 . S
C452 H410 0.930 . S
C452 C451 1.390 . S
C452 C453 1.366 . S
C453 H411 0.932 . S
C453 C448 1.360 . S
C453 C452 1.366 . S
C454 C428 1.490 1_655 S
C454 C455 1.380 1_655 S
C454 C459 1.386 . S
C455 H412 0.930 . S
C455 C454 1.380 1_455 S
C455 C456 1.381 1_455 S
C456 H413 0.929 . S
C456 C455 1.381 1_655 S
C456 C457 1.371 . S
C457 C456 1.371 . S
C457 C458 1.380 . S
C458 H414 0.931 . S
C458 C457 1.380 . S
C458 C459 1.387 . S
C459 H415 0.930 . S
C459 C454 1.386 . S
C459 C458 1.387 . S
C460 C429 1.519 . S
C460 C461 1.377 . S
C460 C465 1.361 . S
C461 H416 0.929 . S
C461 C460 1.377 . S
C461 C462 1.386 . S
C462 H417 0.931 . S
C462 C461 1.386 . S
C462 C463 1.363 . S
C463 C462 1.363 . S
C463 C464 1.385 . S
C464 H418 0.930 . S
C464 C463 1.385 . S
C464 C465 1.396 . S
C465 H419 0.929 . S
C465 C460 1.361 . S
C465 C464 1.396 . S
C466 O420 1.300 . S
C466 O421 1.209 . S
C466 C439 1.486 . S
C467 O422 1.199 . S
C467 O423 1.297 . S
C467 C451 1.476 . S
H468 O494 0.856 . S
H469 O497 0.854 . S
H470 C505 0.961 . S
H471 C506 0.930 . S
H472 C508 0.930 . S
H473 C509 0.930 . S
H474 C511 0.931 . S
H475 C512 0.930 . S
H476 C514 0.895 1_565 S
H477 C515 0.929 . S
H478 C517 0.930 . S
H479 C518 0.931 . S
H480 C520 0.930 . S
H481 C521 0.929 . S
H482 C523 0.931 . S
H483 C524 0.930 . S
H484 C526 0.930 . S
H485 C527 0.932 . S
H486 C529 0.930 . S
H487 C530 0.929 . S
H488 C532 0.931 . S
H489 C533 0.930 . S
H490 C535 0.936 . S
H491 C536 0.931 . S
H492 C538 0.930 . S
H493 C539 0.929 . S
O494 H468 0.856 . S
O494 C540 1.300 . S
O495 C540 1.209 1_565 S
O496 C541 1.199 . S
O497 H469 0.854 . S
O497 C541 1.297 . S
C498 C499 1.404 . S
C498 C503 1.397 . S
C498 C504 1.492 1_545 S
C499 C498 1.404 . S
C499 C500 1.396 . S
C499 C510 1.492 . S
C500 C499 1.396 . S
C500 C501 1.397 . S
C500 C516 1.509 . S
C501 C500 1.397 . S
C501 C502 1.412 . S
C501 C522 1.485 . S
C502 C501 1.412 . S
C502 C503 1.388 . S
C502 C528 1.490 . S
C503 C498 1.397 . S
C503 C502 1.388 . S
C503 C534 1.519 . S
C504 C498 1.492 1_565 S
C504 C505 1.363 . S
C504 C509 1.390 . S
C505 H470 0.961 . S
C505 C504 1.363 . S
C505 C506 1.372 . S
C506 H471 0.930 . S
C506 C505 1.372 . S
C506 C507 1.383 . S
C507 C506 1.383 . S
C507 C508 1.395 . S
C508 H472 0.930 . S
C508 C507 1.395 . S
C508 C509 1.362 . S
C509 H473 0.930 . S
C509 C504 1.390 . S
C509 C508 1.362 . S
C510 C499 1.492 . S
C510 C511 1.377 . S
C510 C515 1.397 . S
C511 H474 0.931 . S
C511 C510 1.377 . S
C511 C512 1.376 . S
C512 H475 0.930 . S
C512 C511 1.376 . S
C512 C513 1.376 . S
C513 C512 1.376 . S
C513 C514 1.378 . S
C513 C540 1.486 . S
C514 H476 0.895 1_545 S
C514 C513 1.378 . S
C514 C515 1.376 . S
C515 H477 0.929 . S
C515 C510 1.397 . S
C515 C514 1.376 . S
C516 C500 1.509 . S
C516 C517 1.391 . S
C516 C521 1.386 . S
C517 H478 0.930 . S
C517 C516 1.391 . S
C517 C518 1.375 . S
C518 H479 0.931 . S
C518 C517 1.375 . S
C518 C519 1.375 . S
C519 C518 1.375 . S
C519 C520 1.361 . S
C520 H480 0.930 . S
C520 C519 1.361 . S
C520 C521 1.399 . S
C521 H481 0.929 . S
C521 C516 1.386 . S
C521 C520 1.399 . S
C522 C501 1.485 . S
C522 C523 1.394 . S
C522 C527 1.360 . S
C523 H482 0.931 . S
C523 C522 1.394 . S
C523 C524 1.372 . S
C524 H483 0.930 . S
C524 C523 1.372 . S
C524 C525 1.397 . S
C525 C524 1.397 . S
C525 C526 1.390 . S
C525 C541 1.476 . S
C526 H484 0.930 . S
C526 C525 1.390 . S
C526 C527 1.366 . S
C527 H485 0.932 . S
C527 C522 1.360 . S
C527 C526 1.366 . S
C528 C502 1.490 . S
C528 C529 1.380 . S
C528 C533 1.386 . S
C529 H486 0.930 . S
C529 C528 1.380 . S
C529 C530 1.381 . S
C530 H487 0.929 . S
C530 C529 1.381 . S
C530 C531 1.371 . S
C531 C530 1.371 . S
C531 C532 1.380 . S
C532 H488 0.931 . S
C532 C531 1.380 . S
C532 C533 1.387 . S
C533 H489 0.930 . S
C533 C528 1.386 . S
C533 C532 1.387 . S
C534 C503 1.519 . S
C534 C535 1.377 1_545 S
C534 C539 1.361 . S
C535 H490 0.936 . S
C535 C534 1.377 1_565 S
C535 C536 1.386 . S
C536 H491 0.931 . S
C536 C535 1.386 . S
C536 C537 1.363 . S
C537 C536 1.363 . S
C537 C538 1.385 . S
C538 H492 0.930 . S
C538 C537 1.385 . S
C538 C539 1.396 1_565 S
C539 H493 0.929 . S
C539 C534 1.361 . S
C539 C538 1.396 1_545 S
C540 O494 1.300 . S
C540 O495 1.209 1_545 S
C540 C513 1.486 . S
C541 O496 1.199 . S
C541 O497 1.297 . S
C541 C525 1.476 . S
H542 O568 0.856 . S
H543 O571 0.854 . S
H544 C579 0.930 . S
H545 C580 0.930 . S
H546 C582 0.930 . S
H547 C583 0.930 . S
H548 C585 0.931 . S
H549 C586 0.930 . S
H550 C588 0.930 . S
H551 C589 0.929 . S
H552 C591 0.930 . S
H553 C592 0.931 . S
H554 C594 0.930 . S
H555 C595 0.929 . S
H556 C597 0.931 . S
H557 C598 0.930 . S
H558 C600 0.930 . S
H559 C601 0.932 1_556 S
H560 C603 0.930 . S
H561 C604 0.929 . S
H562 C606 0.931 . S
H563 C607 0.930 . S
H564 C609 0.929 . S
H565 C610 0.931 . S
H566 C612 0.930 . S
H567 C613 0.929 . S
O568 H542 0.856 . S
O568 C614 1.300 . S
O569 C614 1.209 . S
O570 C615 1.199 . S
O571 H543 0.854 . S
O571 C615 1.297 . S
C572 C573 1.404 . S
C572 C577 1.397 1_556 S
C572 C578 1.492 . S
C573 C572 1.404 . S
C573 C574 1.396 . S
C573 C584 1.492 . S
C574 C573 1.396 . S
C574 C575 1.397 1_556 S
C574 C590 1.509 . S
C575 C574 1.397 1_554 S
C575 C576 1.412 . S
C575 C596 1.485 . S
C576 C575 1.412 . S
C576 C577 1.388 . S
C576 C602 1.490 . S
C577 C572 1.397 1_554 S
C577 C576 1.388 . S
C577 C608 1.519 . S
C578 C572 1.492 . S
C578 C579 1.363 . S
C578 C583 1.390 . S
C579 H544 0.930 . S
C579 C578 1.363 . S
C579 C580 1.372 . S
C580 H545 0.930 . S
C580 C579 1.372 . S
C580 C581 1.383 . S
C581 C580 1.383 . S
C581 C582 1.395 . S
C582 H546 0.930 . S
C582 C581 1.395 . S
C582 C583 1.362 . S
C583 H547 0.930 . S
C583 C578 1.390 . S
C583 C582 1.362 . S
C584 C573 1.492 . S
C584 C585 1.377 . S
C584 C589 1.397 . S
C585 H548 0.931 . S
C585 C584 1.377 . S
C585 C586 1.376 . S
C586 H549 0.930 . S
C586 C585 1.376 . S
C586 C587 1.376 . S
C587 C586 1.376 . S
C587 C588 1.378 . S
C587 C614 1.486 . S
C588 H550 0.930 . S
C588 C587 1.378 . S
C588 C589 1.376 . S
C589 H551 0.929 . S
C589 C584 1.397 . S
C589 C588 1.376 . S
C590 C574 1.509 . S
C590 C591 1.391 . S
C590 C595 1.386 . S
C591 H552 0.930 . S
C591 C590 1.391 . S
C591 C592 1.375 . S
C592 H553 0.931 . S
C592 C591 1.375 . S
C592 C593 1.375 . S
C593 C592 1.375 . S
C593 C594 1.361 . S
C594 H554 0.930 . S
C594 C593 1.361 . S
C594 C595 1.399 . S
C595 H555 0.929 . S
C595 C590 1.386 . S
C595 C594 1.399 . S
C596 C575 1.485 . S
C596 C597 1.394 . S
C596 C601 1.360 . S
C597 H556 0.931 . S
C597 C596 1.394 . S
C597 C598 1.372 . S
C598 H557 0.930 . S
C598 C597 1.372 . S
C598 C599 1.397 . S
C599 C598 1.397 . S
C599 C600 1.390 . S
C599 C615 1.476 . S
C600 H558 0.930 . S
C600 C599 1.390 . S
C600 C601 1.366 . S
C601 H559 0.932 1_554 S
C601 C596 1.360 . S
C601 C600 1.366 . S
C602 C576 1.490 . S
C602 C603 1.380 . S
C602 C607 1.386 . S
C603 H560 0.930 . S
C603 C602 1.380 . S
C603 C604 1.381 . S
C604 H561 0.929 . S
C604 C603 1.381 . S
C604 C605 1.371 . S
C605 C604 1.371 . S
C605 C606 1.380 . S
C606 H562 0.931 . S
C606 C605 1.380 . S
C606 C607 1.387 . S
C607 H563 0.930 . S
C607 C602 1.386 . S
C607 C606 1.387 . S
C608 C577 1.519 . S
C608 C609 1.377 . S
C608 C613 1.361 . S
C609 H564 0.929 . S
C609 C608 1.377 . S
C609 C610 1.386 . S
C610 H565 0.931 . S
C610 C609 1.386 . S
C610 C611 1.363 . S
C611 C610 1.363 . S
C611 C612 1.385 . S
C612 H566 0.930 . S
C612 C611 1.385 . S
C612 C613 1.396 . S
C613 H567 0.929 . S
C613 C608 1.361 . S
C613 C612 1.396 . S
C614 O568 1.300 . S
C614 O569 1.209 . S
C614 C587 1.486 . S
C615 O570 1.199 . S
C615 O571 1.297 . S
C615 C599 1.476 . S
H616 O642 0.856 . S
H617 O645 0.854 . S
H618 C653 0.930 . S
H619 C654 0.930 . S
H620 C656 0.930 . S
H621 C657 0.930 . S
H622 C659 0.931 . S
H623 C660 0.930 . S
H624 C662 0.930 1_565 S
H625 C663 0.929 . S
H626 C665 0.930 . S
H627 C666 0.931 . S
H628 C668 0.930 . S
H629 C669 0.929 . S
H630 C671 0.931 . S
H631 C672 0.930 . S
H632 C674 0.930 . S
H633 C675 0.932 . S
H634 C677 0.930 . S
H635 C678 0.929 . S
H636 C680 0.931 . S
H637 C681 0.930 . S
H638 C683 0.929 . S
H639 C684 0.931 . S
H640 C686 0.930 . S
H641 C687 0.929 . S
O642 H616 0.856 . S
O642 C688 1.300 . S
O643 C688 1.209 1_565 S
O644 C689 1.199 . S
O645 H617 0.854 . S
O645 C689 1.297 . S
C646 C647 1.404 . S
C646 C651 1.397 . S
C646 C652 1.492 1_545 S
C647 C646 1.404 . S
C647 C648 1.396 . S
C647 C658 1.492 . S
C648 C647 1.396 . S
C648 C649 1.397 . S
C648 C664 1.509 . S
C649 C648 1.397 . S
C649 C650 1.412 . S
C649 C670 1.485 . S
C650 C649 1.412 . S
C650 C651 1.388 . S
C650 C676 1.490 . S
C651 C646 1.397 . S
C651 C650 1.388 . S
C651 C682 1.519 1_545 S
C652 C646 1.492 1_565 S
C652 C653 1.363 . S
C652 C657 1.390 . S
C653 H618 0.930 . S
C653 C652 1.363 . S
C653 C654 1.372 . S
C654 H619 0.930 . S
C654 C653 1.372 . S
C654 C655 1.383 . S
C655 C654 1.383 . S
C655 C656 1.395 . S
C656 H620 0.930 . S
C656 C655 1.395 . S
C656 C657 1.362 . S
C657 H621 0.930 . S
C657 C652 1.390 . S
C657 C656 1.362 . S
C658 C647 1.492 . S
C658 C659 1.377 . S
C658 C663 1.397 . S
C659 H622 0.931 . S
C659 C658 1.377 . S
C659 C660 1.376 . S
C660 H623 0.930 . S
C660 C659 1.376 . S
C660 C661 1.376 . S
C661 C660 1.376 . S
C661 C662 1.378 . S
C661 C688 1.486 . S
C662 H624 0.930 1_545 S
C662 C661 1.378 . S
C662 C663 1.376 . S
C663 H625 0.929 . S
C663 C658 1.397 . S
C663 C662 1.376 . S
C664 C648 1.509 . S
C664 C665 1.391 . S
C664 C669 1.386 . S
C665 H626 0.930 . S
C665 C664 1.391 . S
C665 C666 1.375 . S
C666 H627 0.931 . S
C666 C665 1.375 . S
C666 C667 1.375 . S
C667 C666 1.375 . S
C667 C668 1.361 . S
C668 H628 0.930 . S
C668 C667 1.361 . S
C668 C669 1.399 . S
C669 H629 0.929 . S
C669 C664 1.386 . S
C669 C668 1.399 . S
C670 C649 1.485 . S
C670 C671 1.394 . S
C670 C675 1.360 . S
C671 H630 0.931 . S
C671 C670 1.394 . S
C671 C672 1.372 . S
C672 H631 0.930 . S
C672 C671 1.372 . S
C672 C673 1.397 . S
C673 C672 1.397 . S
C673 C674 1.390 . S
C673 C689 1.476 . S
C674 H632 0.930 . S
C674 C673 1.390 . S
C674 C675 1.366 . S
C675 H633 0.932 . S
C675 C670 1.360 . S
C675 C674 1.366 . S
C676 C650 1.490 . S
C676 C677 1.380 . S
C676 C681 1.386 . S
C677 H634 0.930 . S
C677 C676 1.380 . S
C677 C678 1.381 . S
C678 H635 0.929 . S
C678 C677 1.381 . S
C678 C679 1.371 . S
C679 C678 1.371 . S
C679 C680 1.380 . S
C680 H636 0.931 . S
C680 C679 1.380 . S
C680 C681 1.387 . S
C681 H637 0.930 . S
C681 C676 1.386 . S
C681 C680 1.387 . S
C682 C651 1.519 1_565 S
C682 C683 1.377 . S
C682 C687 1.361 . S
C683 H638 0.929 . S
C683 C682 1.377 . S
C683 C684 1.386 . S
C684 H639 0.931 . S
C684 C683 1.386 . S
C684 C685 1.363 . S
C685 C684 1.363 . S
C685 C686 1.385 . S
C686 H640 0.930 . S
C686 C685 1.385 . S
C686 C687 1.396 . S
C687 H641 0.929 . S
C687 C682 1.361 . S
C687 C686 1.396 . S
C688 O642 1.300 . S
C688 O643 1.209 1_545 S
C688 C661 1.486 . S
C689 O644 1.199 . S
C689 O645 1.297 . S
C689 C673 1.476 . S
H690 O716 0.856 . S
H691 O719 0.854 . S
H692 C727 0.930 . S
H693 C728 0.930 . S
H694 C730 0.930 . S
H695 C731 0.930 . S
H696 C733 0.931 . S
H697 C734 0.930 . S
H698 C736 0.930 . S
H699 C737 0.929 . S
H700 C739 0.930 . S
H701 C740 0.931 . S
H702 C742 0.930 . S
H703 C743 0.929 . S
H704 C745 0.931 . S
H705 C746 0.930 . S
H706 C748 0.930 . S
H707 C749 0.932 . S
H708 C751 0.930 . S
H709 C752 0.929 . S
H710 C754 0.931 . S
H711 C755 0.930 . S
H712 C757 0.929 . S
H713 C758 0.931 . S
H714 C760 0.930 . S
H715 C761 0.929 . S
O716 H690 0.856 . S
O716 C762 1.300 . S
O717 C762 1.209 . S
O718 C763 1.199 . S
O719 H691 0.854 . S
O719 C763 1.297 . S
C720 C721 1.404 . S
C720 C725 1.397 1_556 S
C720 C726 1.492 . S
C721 C720 1.404 . S
C721 C722 1.396 . S
C721 C732 1.492 . S
C722 C721 1.396 . S
C722 C723 1.397 1_556 S
C722 C738 1.509 . S
C723 C722 1.397 1_554 S
C723 C724 1.412 . S
C723 C744 1.485 . S
C724 C723 1.412 . S
C724 C725 1.388 . S
C724 C750 1.490 . S
C725 C720 1.397 1_554 S
C725 C724 1.388 . S
C725 C756 1.519 . S
C726 C720 1.492 . S
C726 C727 1.363 . S
C726 C731 1.390 . S
C727 H692 0.930 . S
C727 C726 1.363 . S
C727 C728 1.372 . S
C728 H693 0.930 . S
C728 C727 1.372 . S
C728 C729 1.383 . S
C729 C728 1.383 . S
C729 C730 1.395 . S
C730 H694 0.930 . S
C730 C729 1.395 . S
C730 C731 1.362 . S
C731 H695 0.930 . S
C731 C726 1.390 . S
C731 C730 1.362 . S
C732 C721 1.492 . S
C732 C733 1.377 . S
C732 C737 1.397 . S
C733 H696 0.931 . S
C733 C732 1.377 . S
C733 C734 1.376 . S
C734 H697 0.930 . S
C734 C733 1.376 . S
C734 C735 1.376 . S
C735 C734 1.376 . S
C735 C736 1.378 . S
C735 C762 1.486 . S
C736 H698 0.930 . S
C736 C735 1.378 . S
C736 C737 1.376 . S
C737 H699 0.929 . S
C737 C732 1.397 . S
C737 C736 1.376 . S
C738 C722 1.509 . S
C738 C739 1.391 . S
C738 C743 1.386 . S
C739 H700 0.930 . S
C739 C738 1.391 . S
C739 C740 1.375 . S
C740 H701 0.931 . S
C740 C739 1.375 . S
C740 C741 1.375 . S
C741 C740 1.375 . S
C741 C742 1.361 . S
C742 H702 0.930 . S
C742 C741 1.361 . S
C742 C743 1.399 . S
C743 H703 0.929 . S
C743 C738 1.386 . S
C743 C742 1.399 . S
C744 C723 1.485 . S
C744 C745 1.394 . S
C744 C749 1.360 . S
C745 H704 0.931 . S
C745 C744 1.394 . S
C745 C746 1.372 . S
C746 H705 0.930 . S
C746 C745 1.372 . S
C746 C747 1.397 . S
C747 C746 1.397 . S
C747 C748 1.390 . S
C747 C763 1.476 . S
C748 H706 0.930 . S
C748 C747 1.390 . S
C748 C749 1.366 . S
C749 H707 0.932 . S
C749 C744 1.360 . S
C749 C748 1.366 . S
C750 C724 1.490 . S
C750 C751 1.380 . S
C750 C755 1.386 . S
C751 H708 0.930 . S
C751 C750 1.380 . S
C751 C752 1.381 . S
C752 H709 0.929 . S
C752 C751 1.381 . S
C752 C753 1.371 . S
C753 C752 1.371 . S
C753 C754 1.380 . S
C754 H710 0.931 . S
C754 C753 1.380 . S
C754 C755 1.387 . S
C755 H711 0.930 . S
C755 C750 1.386 . S
C755 C754 1.387 . S
C756 C725 1.519 . S
C756 C757 1.377 . S
C756 C761 1.361 . S
C757 H712 0.929 . S
C757 C756 1.377 . S
C757 C758 1.386 . S
C758 H713 0.931 . S
C758 C757 1.386 . S
C758 C759 1.363 . S
C759 C758 1.363 . S
C759 C760 1.385 . S
C760 H714 0.930 . S
C760 C759 1.385 . S
C760 C761 1.396 . S
C761 H715 0.929 . S
C761 C756 1.361 . S
C761 C760 1.396 . S
C762 O716 1.300 . S
C762 O717 1.209 . S
C762 C735 1.486 . S
C763 O718 1.199 . S
C763 O719 1.297 . S
C763 C747 1.476 . S
H764 C772 0.929 . S
H765 C774 0.930 . S
H766 C776 0.930 . S
H767 C779 0.929 . S
H768 C782 0.930 . S
H769 C784 0.960 . S
H770 C784 0.960 . S
H771 C784 0.960 . S
C772 H764 0.929 . S
C772 C773 1.377 . S
C772 C774 1.384 . S
C773 C772 1.377 . S
C773 C779 1.390 . S
C774 H765 0.930 . S
C774 C772 1.384 . S
C774 C775 1.372 . S
C775 C774 1.372 . S
C775 C776 1.400 . S
C775 C780 1.490 . S
C776 H766 0.930 . S
C776 C775 1.400 . S
C776 C779 1.386 . S
H777 C793 0.930 . S
H778 C794 0.931 . S
C779 H767 0.929 . S
C779 C773 1.390 . S
C779 C776 1.386 . S
C780 C775 1.490 . S
C780 C782 1.395 . S
C780 C783 1.403 . S
H781 C787 0.930 . S
C782 H768 0.930 . S
C782 C780 1.395 . S
C782 C785 1.403 . S
C783 C780 1.403 . S
C783 C784 1.524 . S
C783 C787 1.400 . S
C784 H769 0.960 . S
C784 H770 0.960 . S
C784 H771 0.960 . S
C784 C783 1.524 . S
C785 C782 1.403 . S
C785 C786 1.392 . S
C785 C789 1.495 . S
C786 C785 1.392 . S
C786 C787 1.385 . S
C786 C788 1.478 . S
C787 H781 0.930 . S
C787 C783 1.400 . S
C787 C786 1.385 . S
C788 C786 1.478 . S
C788 C790 1.381 . S
C788 C794 1.383 . S
C789 C785 1.495 . S
C789 H795 0.959 . S
C789 H796 0.961 . S
C789 H797 0.960 . S
C790 C788 1.381 . S
C790 C791 1.394 . S
C790 H798 0.930 . S
C791 C790 1.394 . S
C791 C792 1.383 . S
C791 H799 0.929 . S
C792 C791 1.383 . S
C792 C793 1.377 . S
C793 H777 0.930 . S
C793 C792 1.377 . S
C793 C794 1.379 . S
C794 H778 0.931 . S
C794 C788 1.383 . S
C794 C793 1.379 . S
H795 C789 0.959 . S
H796 C789 0.961 . S
H797 C789 0.960 . S
H798 C790 0.930 . S
H799 C791 0.929 . S
H800 C808 0.929 . S
H801 C810 0.930 . S
H802 C812 0.930 . S
H803 C815 0.929 . S
H804 C818 0.930 . S
H805 C820 0.960 . S
H806 C820 0.960 . S
H807 C820 0.960 . S
C808 H800 0.929 . S
C808 C809 1.377 . S
C808 C810 1.384 . S
C809 C808 1.377 . S
C809 C815 1.390 . S
C810 H801 0.930 . S
C810 C808 1.384 . S
C810 C811 1.372 . S
C811 C810 1.372 . S
C811 C812 1.400 . S
C811 C816 1.490 . S
C812 H802 0.930 . S
C812 C811 1.400 . S
C812 C815 1.386 . S
H813 C829 0.930 . S
H814 C830 0.931 . S
C815 H803 0.929 . S
C815 C809 1.390 . S
C815 C812 1.386 . S
C816 C811 1.490 . S
C816 C818 1.395 . S
C816 C819 1.403 . S
H817 C823 0.930 . S
C818 H804 0.930 . S
C818 C816 1.395 . S
C818 C821 1.403 . S
C819 C816 1.403 . S
C819 C820 1.524 . S
C819 C823 1.400 . S
C820 H805 0.960 . S
C820 H806 0.960 . S
C820 H807 0.960 . S
C820 C819 1.524 . S
C821 C818 1.403 . S
C821 C822 1.392 . S
C821 C825 1.495 . S
C822 C821 1.392 . S
C822 C823 1.385 . S
C822 C824 1.478 . S
C823 H817 0.930 . S
C823 C819 1.400 . S
C823 C822 1.385 . S
C824 C822 1.478 . S
C824 C826 1.381 . S
C824 C830 1.383 . S
C825 C821 1.495 . S
C825 H831 0.959 . S
C825 H832 0.961 . S
C825 H833 0.960 . S
C826 C824 1.381 . S
C826 C827 1.394 . S
C826 H834 0.930 . S
C827 C826 1.394 . S
C827 C828 1.383 . S
C827 H835 0.929 . S
C828 C827 1.383 . S
C828 C829 1.377 . S
C829 H813 0.930 . S
C829 C828 1.377 . S
C829 C830 1.379 . S
C830 H814 0.931 . S
C830 C824 1.383 . S
C830 C829 1.379 . S
H831 C825 0.959 . S
H832 C825 0.961 . S
H833 C825 0.960 . S
H834 C826 0.930 . S
H835 C827 0.929 . S
H836 C844 0.929 . S
H837 C846 0.930 . S
H838 C848 0.930 . S
H839 C851 0.929 . S
H840 C854 0.930 . S
H841 C856 0.960 . S
H842 C856 0.960 . S
H843 C856 0.960 . S
C844 H836 0.929 . S
C844 C845 1.377 . S
C844 C846 1.384 . S
C845 C844 1.377 . S
C845 C851 1.390 . S
C846 H837 0.930 . S
C846 C844 1.384 . S
C846 C847 1.372 . S
C847 C846 1.372 . S
C847 C848 1.400 . S
C847 C852 1.490 . S
C848 H838 0.930 . S
C848 C847 1.400 . S
C848 C851 1.386 . S
H849 C865 0.930 . S
H850 C866 0.931 . S
C851 H839 0.929 . S
C851 C845 1.390 . S
C851 C848 1.386 . S
C852 C847 1.490 . S
C852 C854 1.395 . S
C852 C855 1.403 . S
H853 C859 0.930 . S
C854 H840 0.930 . S
C854 C852 1.395 . S
C854 C857 1.403 . S
C855 C852 1.403 . S
C855 C856 1.524 . S
C855 C859 1.400 . S
C856 H841 0.960 . S
C856 H842 0.960 . S
C856 H843 0.960 . S
C856 C855 1.524 . S
C857 C854 1.403 . S
C857 C858 1.392 . S
C857 C861 1.495 . S
C858 C857 1.392 . S
C858 C859 1.385 . S
C858 C860 1.478 . S
C859 H853 0.930 . S
C859 C855 1.400 . S
C859 C858 1.385 . S
C860 C858 1.478 . S
C860 C862 1.381 . S
C860 C866 1.383 . S
C861 C857 1.495 . S
C861 H867 0.959 . S
C861 H868 0.961 . S
C861 H869 0.960 . S
C862 C860 1.381 . S
C862 C863 1.394 . S
C862 H870 0.930 . S
C863 C862 1.394 . S
C863 C864 1.383 . S
C863 H871 0.929 . S
C864 C863 1.383 . S
C864 C865 1.377 . S
C865 H849 0.930 . S
C865 C864 1.377 . S
C865 C866 1.379 . S
C866 H850 0.931 . S
C866 C860 1.383 . S
C866 C865 1.379 . S
H867 C861 0.959 . S
H868 C861 0.961 . S
H869 C861 0.960 . S
H870 C862 0.930 . S
H871 C863 0.929 . S
H872 C880 0.929 . S
H873 C882 0.930 . S
H874 C884 0.930 . S
H875 C887 0.929 . S
H876 C890 0.930 . S
H877 C892 0.960 . S
H878 C892 0.960 . S
H879 C892 0.960 . S
C880 H872 0.929 . S
C880 C881 1.377 . S
C880 C882 1.384 . S
C881 C880 1.377 . S
C881 C887 1.390 . S
C882 H873 0.930 . S
C882 C880 1.384 . S
C882 C883 1.372 . S
C883 C882 1.372 . S
C883 C884 1.400 . S
C883 C888 1.490 . S
C884 H874 0.930 . S
C884 C883 1.400 . S
C884 C887 1.386 . S
H885 C901 0.930 . S
H886 C902 0.931 . S
C887 H875 0.929 . S
C887 C881 1.390 . S
C887 C884 1.386 . S
C888 C883 1.490 . S
C888 C890 1.395 . S
C888 C891 1.403 . S
H889 C895 0.930 . S
C890 H876 0.930 . S
C890 C888 1.395 . S
C890 C893 1.403 . S
C891 C888 1.403 . S
C891 C892 1.524 . S
C891 C895 1.400 . S
C892 H877 0.960 . S
C892 H878 0.960 . S
C892 H879 0.960 . S
C892 C891 1.524 . S
C893 C890 1.403 . S
C893 C894 1.392 . S
C893 C897 1.495 . S
C894 C893 1.392 . S
C894 C895 1.385 . S
C894 C896 1.478 . S
C895 H889 0.930 . S
C895 C891 1.400 . S
C895 C894 1.385 . S
C896 C894 1.478 . S
C896 C898 1.381 . S
C896 C902 1.383 . S
C897 C893 1.495 . S
C897 H903 0.959 . S
C897 H904 0.961 . S
C897 H905 0.960 . S
C898 C896 1.381 . S
C898 C899 1.394 . S
C898 H906 0.930 . S
C899 C898 1.394 . S
C899 C900 1.383 . S
C899 H907 0.929 . S
C900 C899 1.383 . S
C900 C901 1.377 . S
C901 H885 0.930 . S
C901 C900 1.377 . S
C901 C902 1.379 . S
C902 H886 0.931 . S
C902 C896 1.383 . S
C902 C901 1.379 . S
H903 C897 0.959 . S
H904 C897 0.961 . S
H905 C897 0.960 . S
H906 C898 0.930 . S
H907 C899 0.929 . S
H908 C916 0.929 . S
H909 C918 0.930 . S
H910 C920 0.930 . S
H911 C923 0.929 . S
H912 C926 0.930 . S
H913 C928 0.960 . S
H914 C928 0.960 . S
H915 C928 0.960 . S
C916 H908 0.929 . S
C916 C917 1.377 . S
C916 C918 1.384 . S
C917 C916 1.377 . S
C917 C923 1.390 . S
C918 H909 0.930 . S
C918 C916 1.384 . S
C918 C919 1.372 . S
C919 C918 1.372 . S
C919 C920 1.400 . S
C919 C924 1.490 . S
C920 H910 0.930 . S
C920 C919 1.400 . S
C920 C923 1.386 . S
H921 C937 0.930 . S
H922 C938 0.931 . S
C923 H911 0.929 . S
C923 C917 1.390 . S
C923 C920 1.386 . S
C924 C919 1.490 . S
C924 C926 1.395 . S
C924 C927 1.403 . S
H925 C931 0.930 . S
C926 H912 0.930 . S
C926 C924 1.395 . S
C926 C929 1.403 . S
C927 C924 1.403 . S
C927 C928 1.524 . S
C927 C931 1.400 . S
C928 H913 0.960 . S
C928 H914 0.960 . S
C928 H915 0.960 . S
C928 C927 1.524 . S
C929 C926 1.403 . S
C929 C930 1.392 . S
C929 C933 1.495 . S
C930 C929 1.392 . S
C930 C931 1.385 . S
C930 C932 1.478 . S
C931 H925 0.930 . S
C931 C927 1.400 . S
C931 C930 1.385 . S
C932 C930 1.478 . S
C932 C934 1.381 . S
C932 C938 1.383 . S
C933 C929 1.495 . S
C933 H939 0.959 . S
C933 H940 0.961 . S
C933 H941 0.960 . S
C934 C932 1.381 . S
C934 C935 1.394 . S
C934 H942 0.930 . S
C935 C934 1.394 . S
C935 C936 1.383 . S
C935 H943 0.929 . S
C936 C935 1.383 . S
C936 C937 1.377 . S
C937 H921 0.930 . S
C937 C936 1.377 . S
C937 C938 1.379 . S
C938 H922 0.931 . S
C938 C932 1.383 . S
C938 C937 1.379 . S
H939 C933 0.959 . S
H940 C933 0.961 . S
H941 C933 0.960 . S
H942 C934 0.930 . S
H943 C935 0.929 . S
H944 C952 0.929 . S
H945 C954 0.930 . S
H946 C956 0.930 . S
H947 C959 0.929 . S
H948 C962 0.930 . S
H949 C964 0.960 . S
H950 C964 0.960 . S
H951 C964 0.960 . S
C952 H944 0.929 . S
C952 C953 1.377 . S
C952 C954 1.384 . S
C953 C952 1.377 . S
C953 C959 1.390 . S
C954 H945 0.930 . S
C954 C952 1.384 . S
C954 C955 1.372 . S
C955 C954 1.372 . S
C955 C956 1.400 . S
C955 C960 1.490 . S
C956 H946 0.930 . S
C956 C955 1.400 . S
C956 C959 1.386 . S
H957 C973 0.930 . S
H958 C974 0.931 . S
C959 H947 0.929 . S
C959 C953 1.390 . S
C959 C956 1.386 . S
C960 C955 1.490 . S
C960 C962 1.395 . S
C960 C963 1.403 . S
H961 C967 0.930 . S
C962 H948 0.930 . S
C962 C960 1.395 . S
C962 C965 1.403 . S
C963 C960 1.403 . S
C963 C964 1.524 . S
C963 C967 1.400 . S
C964 H949 0.960 . S
C964 H950 0.960 . S
C964 H951 0.960 . S
C964 C963 1.524 . S
C965 C962 1.403 . S
C965 C966 1.392 . S
C965 C969 1.495 . S
C966 C965 1.392 . S
C966 C967 1.385 . S
C966 C968 1.478 . S
C967 H961 0.930 . S
C967 C963 1.400 . S
C967 C966 1.385 . S
C968 C966 1.478 . S
C968 C970 1.381 . S
C968 C974 1.383 . S
C969 C965 1.495 . S
C969 H975 0.959 . S
C969 H976 0.961 . S
C969 H977 0.960 . S
C970 C968 1.381 . S
C970 C971 1.394 . S
C970 H978 0.930 . S
C971 C970 1.394 . S
C971 C972 1.383 . S
C971 H979 0.929 . S
C972 C971 1.383 . S
C972 C973 1.377 . S
C973 H957 0.930 . S
C973 C972 1.377 . S
C973 C974 1.379 . S
C974 H958 0.931 . S
C974 C968 1.383 . S
C974 C973 1.379 . S
H975 C969 0.959 . S
H976 C969 0.961 . S
H977 C969 0.960 . S
H978 C970 0.930 . S
H979 C971 0.929 . S
H980 C988 0.929 . S
H981 C990 0.930 . S
H982 C992 0.930 . S
H983 C995 0.929 . S
H984 C998 0.930 . S
H985 C1000 0.960 . S
H986 C1000 0.960 . S
H987 C1000 0.960 . S
C988 H980 0.929 . S
C988 C989 1.377 . S
C988 C990 1.384 . S
C989 C988 1.377 . S
C989 C995 1.390 . S
C990 H981 0.930 . S
C990 C988 1.384 . S
C990 C991 1.372 . S
C991 C990 1.372 . S
C991 C992 1.400 . S
C991 C996 1.490 . S
C992 H982 0.930 . S
C992 C991 1.400 . S
C992 C995 1.386 . S
H993 C1009 0.930 . S
H994 C1010 0.931 . S
C995 H983 0.929 . S
C995 C989 1.390 . S
C995 C992 1.386 . S
C996 C991 1.490 . S
C996 C998 1.395 . S
C996 C999 1.403 . S
H997 C1003 0.930 . S
C998 H984 0.930 . S
C998 C996 1.395 . S
C998 C1001 1.403 . S
C999 C996 1.403 . S
C999 C1000 1.524 . S
C999 C1003 1.400 . S
C1000 H985 0.960 . S
C1000 H986 0.960 . S
C1000 H987 0.960 . S
C1000 C999 1.524 . S
C1001 C998 1.403 . S
C1001 C1002 1.392 . S
C1001 C1005 1.495 . S
C1002 C1001 1.392 . S
C1002 C1003 1.385 . S
C1002 C1004 1.478 . S
C1003 H997 0.930 . S
C1003 C999 1.400 . S
C1003 C1002 1.385 . S
C1004 C1002 1.478 . S
C1004 C1006 1.381 . S
C1004 C1010 1.383 . S
C1005 C1001 1.495 . S
C1005 H1011 0.959 . S
C1005 H1012 0.961 . S
C1005 H1013 0.960 . S
C1006 C1004 1.381 . S
C1006 C1007 1.394 . S
C1006 H1014 0.930 . S
C1007 C1006 1.394 . S
C1007 C1008 1.383 . S
C1007 H1015 0.929 . S
C1008 C1007 1.383 . S
C1008 C1009 1.377 . S
C1009 H993 0.930 . S
C1009 C1008 1.377 . S
C1009 C1010 1.379 . S
C1010 H994 0.931 . S
C1010 C1004 1.383 . S
C1010 C1009 1.379 . S
H1011 C1005 0.959 . S
H1012 C1005 0.961 . S
H1013 C1005 0.960 . S
H1014 C1006 0.930 . S
H1015 C1007 0.929 . S
H1016 C1024 0.929 . S
H1017 C1026 0.930 . S
H1018 C1028 0.930 . S
H1019 C1031 0.929 . S
H1020 C1034 0.930 . S
H1021 C1036 0.960 . S
H1022 C1036 0.960 . S
H1023 C1036 0.960 . S
C1024 H1016 0.929 . S
C1024 C1025 1.377 . S
C1024 C1026 1.384 . S
C1025 C1024 1.377 . S
C1025 C1031 1.390 . S
C1026 H1017 0.930 . S
C1026 C1024 1.384 . S
C1026 C1027 1.372 . S
C1027 C1026 1.372 . S
C1027 C1028 1.400 . S
C1027 C1032 1.490 . S
C1028 H1018 0.930 . S
C1028 C1027 1.400 . S
C1028 C1031 1.386 . S
H1029 C1045 0.930 . S
H1030 C1046 0.931 . S
C1031 H1019 0.929 . S
C1031 C1025 1.390 . S
C1031 C1028 1.386 . S
C1032 C1027 1.490 . S
C1032 C1034 1.395 . S
C1032 C1035 1.403 . S
H1033 C1039 0.930 . S
C1034 H1020 0.930 . S
C1034 C1032 1.395 . S
C1034 C1037 1.403 . S
C1035 C1032 1.403 . S
C1035 C1036 1.524 . S
C1035 C1039 1.400 . S
C1036 H1021 0.960 . S
C1036 H1022 0.960 . S
C1036 H1023 0.960 . S
C1036 C1035 1.524 . S
C1037 C1034 1.403 . S
C1037 C1038 1.392 . S
C1037 C1041 1.495 . S
C1038 C1037 1.392 . S
C1038 C1039 1.385 . S
C1038 C1040 1.478 . S
C1039 H1033 0.930 . S
C1039 C1035 1.400 . S
C1039 C1038 1.385 . S
C1040 C1038 1.478 . S
C1040 C1042 1.381 . S
C1040 C1046 1.383 . S
C1041 C1037 1.495 . S
C1041 H1047 0.959 . S
C1041 H1048 0.961 . S
C1041 H1049 0.960 . S
C1042 C1040 1.381 . S
C1042 C1043 1.394 . S
C1042 H1050 0.930 . S
C1043 C1042 1.394 . S
C1043 C1044 1.383 . S
C1043 H1051 0.929 . S
C1044 C1043 1.383 . S
C1044 C1045 1.377 . S
C1045 H1029 0.930 . S
C1045 C1044 1.377 . S
C1045 C1046 1.379 . S
C1046 H1030 0.931 . S
C1046 C1040 1.383 . S
C1046 C1045 1.379 . S
H1047 C1041 0.959 . S
H1048 C1041 0.961 . S
H1049 C1041 0.960 . S
H1050 C1042 0.930 . S
H1051 C1043 0.929 . S
H1052 C1060 0.929 . S
H1053 C1062 0.930 . S
H1054 C1064 0.930 . S
H1055 C1067 0.929 . S
H1056 C1070 0.930 . S
H1057 C1072 0.960 . S
H1058 C1072 0.960 . S
H1059 C1072 0.960 . S
C1060 H1052 0.929 . S
C1060 C1061 1.377 . S
C1060 C1062 1.384 . S
C1061 C1060 1.377 . S
C1061 C1067 1.390 . S
C1062 H1053 0.930 . S
C1062 C1060 1.384 . S
C1062 C1063 1.372 . S
C1063 C1062 1.372 . S
C1063 C1064 1.400 . S
C1063 C1068 1.490 . S
C1064 H1054 0.930 . S
C1064 C1063 1.400 . S
C1064 C1067 1.386 . S
H1065 C1081 0.930 . S
H1066 C1082 0.931 . S
C1067 H1055 0.929 . S
C1067 C1061 1.390 . S
C1067 C1064 1.386 . S
C1068 C1063 1.490 . S
C1068 C1070 1.395 . S
C1068 C1071 1.403 . S
H1069 C1075 0.930 . S
C1070 H1056 0.930 . S
C1070 C1068 1.395 . S
C1070 C1073 1.403 . S
C1071 C1068 1.403 . S
C1071 C1072 1.524 . S
C1071 C1075 1.400 . S
C1072 H1057 0.960 . S
C1072 H1058 0.960 . S
C1072 H1059 0.960 . S
C1072 C1071 1.524 . S
C1073 C1070 1.403 . S
C1073 C1074 1.392 . S
C1073 C1077 1.495 . S
C1074 C1073 1.392 . S
C1074 C1075 1.385 . S
C1074 C1076 1.478 . S
C1075 H1069 0.930 . S
C1075 C1071 1.400 . S
C1075 C1074 1.385 . S
C1076 C1074 1.478 . S
C1076 C1078 1.381 . S
C1076 C1082 1.383 . S
C1077 C1073 1.495 . S
C1077 H1083 0.959 . S
C1077 H1084 0.961 . S
C1077 H1085 0.960 . S
C1078 C1076 1.381 . S
C1078 C1079 1.394 . S
C1078 H1086 0.930 . S
C1079 C1078 1.394 . S
C1079 C1080 1.383 . S
C1079 H1087 0.929 . S
C1080 C1079 1.383 . S
C1080 C1081 1.377 . S
C1081 H1065 0.930 . S
C1081 C1080 1.377 . S
C1081 C1082 1.379 . S
C1082 H1066 0.931 . S
C1082 C1076 1.383 . S
C1082 C1081 1.379 . S
H1083 C1077 0.959 . S
H1084 C1077 0.961 . S
H1085 C1077 0.960 . S
H1086 C1078 0.930 . S
H1087 C1079 0.929 . S
H1088 C1096 0.929 . S
H1089 C1098 0.930 . S
H1090 C1100 0.930 . S
H1091 C1103 0.929 . S
H1092 C1106 0.930 . S
H1093 C1108 0.960 . S
H1094 C1108 0.960 . S
H1095 C1108 0.960 . S
C1096 H1088 0.929 . S
C1096 C1097 1.377 . S
C1096 C1098 1.384 . S
C1097 C1096 1.377 . S
C1097 C1103 1.390 . S
C1098 H1089 0.930 . S
C1098 C1096 1.384 . S
C1098 C1099 1.372 . S
C1099 C1098 1.372 . S
C1099 C1100 1.400 . S
C1099 C1104 1.490 . S
C1100 H1090 0.930 . S
C1100 C1099 1.400 . S
C1100 C1103 1.386 . S
H1101 C1117 0.930 . S
H1102 C1118 0.931 . S
C1103 H1091 0.929 . S
C1103 C1097 1.390 . S
C1103 C1100 1.386 . S
C1104 C1099 1.490 . S
C1104 C1106 1.395 . S
C1104 C1107 1.403 . S
H1105 C1111 0.930 . S
C1106 H1092 0.930 . S
C1106 C1104 1.395 . S
C1106 C1109 1.403 . S
C1107 C1104 1.403 . S
C1107 C1108 1.524 . S
C1107 C1111 1.400 . S
C1108 H1093 0.960 . S
C1108 H1094 0.960 . S
C1108 H1095 0.960 . S
C1108 C1107 1.524 . S
C1109 C1106 1.403 . S
C1109 C1110 1.392 . S
C1109 C1113 1.495 . S
C1110 C1109 1.392 . S
C1110 C1111 1.385 . S
C1110 C1112 1.478 . S
C1111 H1105 0.930 . S
C1111 C1107 1.400 . S
C1111 C1110 1.385 . S
C1112 C1110 1.478 . S
C1112 C1114 1.381 . S
C1112 C1118 1.383 . S
C1113 C1109 1.495 . S
C1113 H1119 0.959 . S
C1113 H1120 0.961 . S
C1113 H1121 0.960 . S
C1114 C1112 1.381 . S
C1114 C1115 1.394 . S
C1114 H1122 0.930 . S
C1115 C1114 1.394 . S
C1115 C1116 1.383 . S
C1115 H1123 0.929 . S
C1116 C1115 1.383 . S
C1116 C1117 1.377 . S
C1117 H1101 0.930 . S
C1117 C1116 1.377 . S
C1117 C1118 1.379 . S
C1118 H1102 0.931 . S
C1118 C1112 1.383 . S
C1118 C1117 1.379 . S
H1119 C1113 0.959 . S
H1120 C1113 0.961 . S
H1121 C1113 0.960 . S
H1122 C1114 0.930 . S
H1123 C1115 0.929 . S
H1124 C1132 0.929 . S
H1125 C1134 0.930 . S
H1126 C1136 0.930 . S
H1127 C1139 0.929 . S
H1128 C1142 0.930 . S
H1129 C1144 0.960 . S
H1130 C1144 0.960 . S
H1131 C1144 0.960 . S
C1132 H1124 0.929 . S
C1132 C1133 1.377 . S
C1132 C1134 1.384 . S
C1133 C1132 1.377 . S
C1133 C1139 1.390 . S
C1134 H1125 0.930 . S
C1134 C1132 1.384 . S
C1134 C1135 1.372 . S
C1135 C1134 1.372 . S
C1135 C1136 1.400 . S
C1135 C1140 1.490 . S
C1136 H1126 0.930 . S
C1136 C1135 1.400 . S
C1136 C1139 1.386 . S
H1137 C1153 0.930 . S
H1138 C1154 0.931 . S
C1139 H1127 0.929 . S
C1139 C1133 1.390 . S
C1139 C1136 1.386 . S
C1140 C1135 1.490 . S
C1140 C1142 1.395 . S
C1140 C1143 1.403 . S
H1141 C1147 0.930 . S
C1142 H1128 0.930 . S
C1142 C1140 1.395 . S
C1142 C1145 1.403 . S
C1143 C1140 1.403 . S
C1143 C1144 1.524 . S
C1143 C1147 1.400 . S
C1144 H1129 0.960 . S
C1144 H1130 0.960 . S
C1144 H1131 0.960 . S
C1144 C1143 1.524 . S
C1145 C1142 1.403 . S
C1145 C1146 1.392 . S
C1145 C1149 1.495 . S
C1146 C1145 1.392 . S
C1146 C1147 1.385 . S
C1146 C1148 1.478 . S
C1147 H1141 0.930 . S
C1147 C1143 1.400 . S
C1147 C1146 1.385 . S
C1148 C1146 1.478 . S
C1148 C1150 1.381 . S
C1148 C1154 1.383 . S
C1149 C1145 1.495 . S
C1149 H1155 0.959 . S
C1149 H1156 0.961 . S
C1149 H1157 0.960 . S
C1150 C1148 1.381 . S
C1150 C1151 1.394 . S
C1150 H1158 0.930 . S
C1151 C1150 1.394 . S
C1151 C1152 1.383 . S
C1151 H1159 0.929 . S
C1152 C1151 1.383 . S
C1152 C1153 1.377 . S
C1153 H1137 0.930 . S
C1153 C1152 1.377 . S
C1153 C1154 1.379 . S
C1154 H1138 0.931 . S
C1154 C1148 1.383 . S
C1154 C1153 1.379 . S
H1155 C1149 0.959 . S
H1156 C1149 0.961 . S
H1157 C1149 0.960 . S
H1158 C1150 0.930 . S
H1159 C1151 0.929 . S
H1160 C1168 0.929 . S
H1161 C1170 0.930 . S
H1162 C1172 0.930 . S
H1163 C1175 0.929 . S
H1164 C1178 0.930 . S
H1165 C1180 0.960 . S
H1166 C1180 0.960 . S
H1167 C1180 0.960 . S
C1168 H1160 0.929 . S
C1168 C1169 1.377 . S
C1168 C1170 1.384 . S
C1169 C1168 1.377 . S
C1169 C1175 1.390 . S
C1170 H1161 0.930 . S
C1170 C1168 1.384 . S
C1170 C1171 1.372 . S
C1171 C1170 1.372 . S
C1171 C1172 1.400 . S
C1171 C1176 1.490 . S
C1172 H1162 0.930 . S
C1172 C1171 1.400 . S
C1172 C1175 1.386 . S
H1173 C1189 0.930 . S
H1174 C1190 0.931 . S
C1175 H1163 0.929 . S
C1175 C1169 1.390 . S
C1175 C1172 1.386 . S
C1176 C1171 1.490 . S
C1176 C1178 1.395 . S
C1176 C1179 1.403 . S
H1177 C1183 0.930 . S
C1178 H1164 0.930 . S
C1178 C1176 1.395 . S
C1178 C1181 1.403 . S
C1179 C1176 1.403 . S
C1179 C1180 1.524 . S
C1179 C1183 1.400 . S
C1180 H1165 0.960 . S
C1180 H1166 0.960 . S
C1180 H1167 0.960 . S
C1180 C1179 1.524 . S
C1181 C1178 1.403 . S
C1181 C1182 1.392 . S
C1181 C1185 1.495 . S
C1182 C1181 1.392 . S
C1182 C1183 1.385 . S
C1182 C1184 1.478 . S
C1183 H1177 0.930 . S
C1183 C1179 1.400 . S
C1183 C1182 1.385 . S
C1184 C1182 1.478 . S
C1184 C1186 1.381 . S
C1184 C1190 1.383 . S
C1185 C1181 1.495 . S
C1185 H1191 0.959 . S
C1185 H1192 0.961 . S
C1185 H1193 0.960 . S
C1186 C1184 1.381 . S
C1186 C1187 1.394 . S
C1186 H1194 0.930 . S
C1187 C1186 1.394 . S
C1187 C1188 1.383 . S
C1187 H1195 0.929 . S
C1188 C1187 1.383 . S
C1188 C1189 1.377 . S
C1189 H1173 0.930 . S
C1189 C1188 1.377 . S
C1189 C1190 1.379 . S
C1190 H1174 0.931 . S
C1190 C1184 1.383 . S
C1190 C1189 1.379 . S
H1191 C1185 0.959 . S
H1192 C1185 0.961 . S
H1193 C1185 0.960 . S
H1194 C1186 0.930 . S
H1195 C1187 0.929 . S
H1196 C1204 0.929 . S
H1197 C1206 0.930 . S
H1198 C1208 0.930 . S
H1199 C1211 0.929 . S
H1200 C1214 0.930 . S
H1201 C1216 0.960 . S
H1202 C1216 0.960 . S
H1203 C1216 0.960 . S
C1204 H1196 0.929 . S
C1204 C1205 1.377 . S
C1204 C1206 1.384 . S
C1205 C1204 1.377 . S
C1205 C1211 1.390 . S
C1206 H1197 0.930 . S
C1206 C1204 1.384 . S
C1206 C1207 1.372 . S
C1207 C1206 1.372 . S
C1207 C1208 1.400 . S
C1207 C1212 1.490 . S
C1208 H1198 0.930 . S
C1208 C1207 1.400 . S
C1208 C1211 1.386 . S
H1209 C1225 0.930 . S
H1210 C1226 0.931 . S
C1211 H1199 0.929 . S
C1211 C1205 1.390 . S
C1211 C1208 1.386 . S
C1212 C1207 1.490 . S
C1212 C1214 1.395 . S
C1212 C1215 1.403 . S
H1213 C1219 0.930 . S
C1214 H1200 0.930 . S
C1214 C1212 1.395 . S
C1214 C1217 1.403 . S
C1215 C1212 1.403 . S
C1215 C1216 1.524 . S
C1215 C1219 1.400 . S
C1216 H1201 0.960 . S
C1216 H1202 0.960 . S
C1216 H1203 0.960 . S
C1216 C1215 1.524 . S
C1217 C1214 1.403 . S
C1217 C1218 1.392 . S
C1217 C1221 1.495 . S
C1218 C1217 1.392 . S
C1218 C1219 1.385 . S
C1218 C1220 1.478 . S
C1219 H1213 0.930 . S
C1219 C1215 1.400 . S
C1219 C1218 1.385 . S
C1220 C1218 1.478 . S
C1220 C1222 1.381 . S
C1220 C1226 1.383 . S
C1221 C1217 1.495 . S
C1221 H1227 0.959 . S
C1221 H1228 0.961 . S
C1221 H1229 0.960 . S
C1222 C1220 1.381 . S
C1222 C1223 1.394 . S
C1222 H1230 0.930 . S
C1223 C1222 1.394 . S
C1223 C1224 1.383 . S
C1223 H1231 0.929 . S
C1224 C1223 1.383 . S
C1224 C1225 1.377 . S
C1225 H1209 0.930 . S
C1225 C1224 1.377 . S
C1225 C1226 1.379 . S
C1226 H1210 0.931 . S
C1226 C1220 1.383 . S
C1226 C1225 1.379 . S
H1227 C1221 0.959 . S
H1228 C1221 0.961 . S
H1229 C1221 0.960 . S
H1230 C1222 0.930 . S
H1231 C1223 0.929 . S
H1232 C1240 0.929 . S
H1233 C1242 0.930 . S
H1234 C1244 0.930 . S
H1235 C1247 0.929 . S
H1236 C1250 0.930 . S
H1237 C1252 0.960 . S
H1238 C1252 0.960 . S
H1239 C1252 0.960 . S
C1240 H1232 0.929 . S
C1240 C1241 1.377 . S
C1240 C1242 1.384 . S
C1241 C1240 1.377 . S
C1241 C1247 1.390 . S
C1242 H1233 0.930 . S
C1242 C1240 1.384 . S
C1242 C1243 1.372 . S
C1243 C1242 1.372 . S
C1243 C1244 1.400 . S
C1243 C1248 1.490 . S
C1244 H1234 0.930 . S
C1244 C1243 1.400 . S
C1244 C1247 1.386 . S
H1245 C1261 0.930 . S
H1246 C1262 0.931 . S
C1247 H1235 0.929 . S
C1247 C1241 1.390 . S
C1247 C1244 1.386 . S
C1248 C1243 1.490 . S
C1248 C1250 1.395 . S
C1248 C1251 1.403 . S
H1249 C1255 0.930 . S
C1250 H1236 0.930 . S
C1250 C1248 1.395 . S
C1250 C1253 1.403 . S
C1251 C1248 1.403 . S
C1251 C1252 1.524 . S
C1251 C1255 1.400 . S
C1252 H1237 0.960 . S
C1252 H1238 0.960 . S
C1252 H1239 0.960 . S
C1252 C1251 1.524 . S
C1253 C1250 1.403 . S
C1253 C1254 1.392 . S
C1253 C1257 1.495 . S
C1254 C1253 1.392 . S
C1254 C1255 1.385 . S
C1254 C1256 1.478 . S
C1255 H1249 0.930 . S
C1255 C1251 1.400 . S
C1255 C1254 1.385 . S
C1256 C1254 1.478 . S
C1256 C1258 1.381 . S
C1256 C1262 1.383 . S
C1257 C1253 1.495 . S
C1257 H1263 0.959 . S
C1257 H1264 0.961 . S
C1257 H1265 0.960 . S
C1258 C1256 1.381 . S
C1258 C1259 1.394 . S
C1258 H1266 0.930 . S
C1259 C1258 1.394 . S
C1259 C1260 1.383 . S
C1259 H1267 0.929 . S
C1260 C1259 1.383 . S
C1260 C1261 1.377 . S
C1261 H1245 0.930 . S
C1261 C1260 1.377 . S
C1261 C1262 1.379 . S
C1262 H1246 0.931 . S
C1262 C1256 1.383 . S
C1262 C1261 1.379 . S
H1263 C1257 0.959 . S
H1264 C1257 0.961 . S
H1265 C1257 0.960 . S
H1266 C1258 0.930 . S
H1267 C1259 0.929 . S
H1268 C1276 0.929 . S
H1269 C1278 0.930 . S
H1270 C1280 0.930 . S
H1271 C1283 0.929 . S
H1272 C1286 0.930 . S
H1273 C1288 0.960 . S
H1274 C1288 0.960 . S
H1275 C1288 0.960 . S
C1276 H1268 0.929 . S
C1276 C1277 1.377 . S
C1276 C1278 1.384 . S
C1277 C1276 1.377 . S
C1277 C1283 1.390 . S
C1278 H1269 0.930 . S
C1278 C1276 1.384 . S
C1278 C1279 1.372 . S
C1279 C1278 1.372 . S
C1279 C1280 1.400 . S
C1279 C1284 1.490 . S
C1280 H1270 0.930 . S
C1280 C1279 1.400 . S
C1280 C1283 1.386 . S
H1281 C1297 0.930 . S
H1282 C1298 0.931 . S
C1283 H1271 0.929 . S
C1283 C1277 1.390 . S
C1283 C1280 1.386 . S
C1284 C1279 1.490 . S
C1284 C1286 1.395 . S
C1284 C1287 1.403 . S
H1285 C1291 0.930 . S
C1286 H1272 0.930 . S
C1286 C1284 1.395 . S
C1286 C1289 1.403 . S
C1287 C1284 1.403 . S
C1287 C1288 1.524 . S
C1287 C1291 1.400 . S
C1288 H1273 0.960 . S
C1288 H1274 0.960 . S
C1288 H1275 0.960 . S
C1288 C1287 1.524 . S
C1289 C1286 1.403 . S
C1289 C1290 1.392 . S
C1289 C1293 1.495 . S
C1290 C1289 1.392 . S
C1290 C1291 1.385 . S
C1290 C1292 1.478 . S
C1291 H1285 0.930 . S
C1291 C1287 1.400 . S
C1291 C1290 1.385 . S
C1292 C1290 1.478 . S
C1292 C1294 1.381 . S
C1292 C1298 1.383 . S
C1293 C1289 1.495 . S
C1293 H1299 0.959 . S
C1293 H1300 0.961 . S
C1293 H1301 0.960 . S
C1294 C1292 1.381 . S
C1294 C1295 1.394 . S
C1294 H1302 0.930 . S
C1295 C1294 1.394 . S
C1295 C1296 1.383 . S
C1295 H1303 0.929 . S
C1296 C1295 1.383 . S
C1296 C1297 1.377 . S
C1297 H1281 0.930 . S
C1297 C1296 1.377 . S
C1297 C1298 1.379 . S
C1298 H1282 0.931 . S
C1298 C1292 1.383 . S
C1298 C1297 1.379 . S
H1299 C1293 0.959 . S
H1300 C1293 0.961 . S
H1301 C1293 0.960 . S
H1302 C1294 0.930 . S
H1303 C1295 0.929 . S
H1304 C1312 0.929 . S
H1305 C1314 0.930 . S
H1306 C1316 0.930 . S
H1307 C1319 0.929 . S
H1308 C1322 0.930 . S
H1309 C1324 0.960 . S
H1310 C1324 0.960 . S
H1311 C1324 0.960 . S
C1312 H1304 0.929 . S
C1312 C1313 1.377 . S
C1312 C1314 1.384 . S
C1313 C1312 1.377 . S
C1313 C1319 1.390 . S
C1314 H1305 0.930 . S
C1314 C1312 1.384 . S
C1314 C1315 1.372 . S
C1315 C1314 1.372 . S
C1315 C1316 1.400 . S
C1315 C1320 1.490 . S
C1316 H1306 0.930 . S
C1316 C1315 1.400 . S
C1316 C1319 1.386 . S
H1317 C1333 0.930 . S
H1318 C1334 0.931 . S
C1319 H1307 0.929 . S
C1319 C1313 1.390 . S
C1319 C1316 1.386 . S
C1320 C1315 1.490 . S
C1320 C1322 1.395 . S
C1320 C1323 1.403 . S
H1321 C1327 0.930 . S
C1322 H1308 0.930 . S
C1322 C1320 1.395 . S
C1322 C1325 1.403 . S
C1323 C1320 1.403 . S
C1323 C1324 1.524 . S
C1323 C1327 1.400 . S
C1324 H1309 0.960 . S
C1324 H1310 0.960 . S
C1324 H1311 0.960 . S
C1324 C1323 1.524 . S
C1325 C1322 1.403 . S
C1325 C1326 1.392 . S
C1325 C1329 1.495 . S
C1326 C1325 1.392 . S
C1326 C1327 1.385 . S
C1326 C1328 1.478 . S
C1327 H1321 0.930 . S
C1327 C1323 1.400 . S
C1327 C1326 1.385 . S
C1328 C1326 1.478 . S
C1328 C1330 1.381 . S
C1328 C1334 1.383 . S
C1329 C1325 1.495 . S
C1329 H1335 0.959 . S
C1329 H1336 0.961 . S
C1329 H1337 0.960 . S
C1330 C1328 1.381 . S
C1330 C1331 1.394 . S
C1330 H1338 0.930 . S
C1331 C1330 1.394 . S
C1331 C1332 1.383 . S
C1331 H1339 0.929 . S
C1332 C1331 1.383 . S
C1332 C1333 1.377 . S
C1333 H1317 0.930 . S
C1333 C1332 1.377 . S
C1333 C1334 1.379 . S
C1334 H1318 0.931 . S
C1334 C1328 1.383 . S
C1334 C1333 1.379 . S
H1335 C1329 0.959 . S
H1336 C1329 0.961 . S
H1337 C1329 0.960 . S
H1338 C1330 0.930 . S
H1339 C1331 0.929 . S
H1340 C1348 0.929 . S
H1341 C1350 0.930 . S
H1342 C1352 0.930 . S
H1343 C1355 0.929 . S
H1344 C1358 0.930 . S
H1345 C1360 0.960 . S
H1346 C1360 0.960 . S
H1347 C1360 0.960 . S
C1348 H1340 0.929 . S
C1348 C1349 1.377 . S
C1348 C1350 1.384 . S
C1349 C1348 1.377 . S
C1349 C1355 1.390 . S
C1350 H1341 0.930 . S
C1350 C1348 1.384 . S
C1350 C1351 1.372 . S
C1351 C1350 1.372 . S
C1351 C1352 1.400 . S
C1351 C1356 1.490 . S
C1352 H1342 0.930 . S
C1352 C1351 1.400 . S
C1352 C1355 1.386 . S
H1353 C1369 0.930 . S
H1354 C1370 0.931 . S
C1355 H1343 0.929 . S
C1355 C1349 1.390 . S
C1355 C1352 1.386 . S
C1356 C1351 1.490 . S
C1356 C1358 1.395 . S
C1356 C1359 1.403 . S
H1357 C1363 0.930 . S
C1358 H1344 0.930 . S
C1358 C1356 1.395 . S
C1358 C1361 1.403 . S
C1359 C1356 1.403 . S
C1359 C1360 1.524 . S
C1359 C1363 1.400 . S
C1360 H1345 0.960 . S
C1360 H1346 0.960 . S
C1360 H1347 0.960 . S
C1360 C1359 1.524 . S
C1361 C1358 1.403 . S
C1361 C1362 1.392 . S
C1361 C1365 1.495 . S
C1362 C1361 1.392 . S
C1362 C1363 1.385 . S
C1362 C1364 1.478 . S
C1363 H1357 0.930 . S
C1363 C1359 1.400 . S
C1363 C1362 1.385 . S
C1364 C1362 1.478 . S
C1364 C1366 1.381 . S
C1364 C1370 1.383 . S
C1365 C1361 1.495 . S
C1365 H1371 0.959 . S
C1365 H1372 0.961 . S
C1365 H1373 0.960 . S
C1366 C1364 1.381 . S
C1366 C1367 1.394 . S
C1366 H1374 0.930 . S
C1367 C1366 1.394 . S
C1367 C1368 1.383 . S
C1367 H1375 0.929 . S
C1368 C1367 1.383 . S
C1368 C1369 1.377 . S
C1369 H1353 0.930 . S
C1369 C1368 1.377 . S
C1369 C1370 1.379 . S
C1370 H1354 0.931 . S
C1370 C1364 1.383 . S
C1370 C1369 1.379 . S
H1371 C1365 0.959 . S
H1372 C1365 0.961 . S
H1373 C1365 0.960 . S
H1374 C1366 0.930 . S
H1375 C1367 0.929 . S
H1376 C1384 0.929 . S
H1377 C1386 0.930 . S
H1378 C1388 0.930 . S
H1379 C1391 0.929 . S
H1380 C1394 0.930 . S
H1381 C1396 0.960 . S
H1382 C1396 0.960 . S
H1383 C1396 0.960 . S
C1384 H1376 0.929 . S
C1384 C1385 1.377 . S
C1384 C1386 1.384 . S
C1385 C1384 1.377 . S
C1385 C1391 1.390 . S
C1386 H1377 0.930 . S
C1386 C1384 1.384 . S
C1386 C1387 1.372 . S
C1387 C1386 1.372 . S
C1387 C1388 1.400 . S
C1387 C1392 1.490 . S
C1388 H1378 0.930 . S
C1388 C1387 1.400 . S
C1388 C1391 1.386 . S
H1389 C1405 0.930 . S
H1390 C1406 0.931 . S
C1391 H1379 0.929 . S
C1391 C1385 1.390 . S
C1391 C1388 1.386 . S
C1392 C1387 1.490 . S
C1392 C1394 1.395 . S
C1392 C1395 1.403 . S
H1393 C1399 0.930 . S
C1394 H1380 0.930 . S
C1394 C1392 1.395 . S
C1394 C1397 1.403 . S
C1395 C1392 1.403 . S
C1395 C1396 1.524 . S
C1395 C1399 1.400 . S
C1396 H1381 0.960 . S
C1396 H1382 0.960 . S
C1396 H1383 0.960 . S
C1396 C1395 1.524 . S
C1397 C1394 1.403 . S
C1397 C1398 1.392 . S
C1397 C1401 1.495 . S
C1398 C1397 1.392 . S
C1398 C1399 1.385 . S
C1398 C1400 1.478 . S
C1399 H1393 0.930 . S
C1399 C1395 1.400 . S
C1399 C1398 1.385 . S
C1400 C1398 1.478 . S
C1400 C1402 1.381 . S
C1400 C1406 1.383 . S
C1401 C1397 1.495 . S
C1401 H1407 0.959 . S
C1401 H1408 0.961 . S
C1401 H1409 0.960 . S
C1402 C1400 1.381 . S
C1402 C1403 1.394 . S
C1402 H1410 0.930 . S
C1403 C1402 1.394 . S
C1403 C1404 1.383 . S
C1403 H1411 0.929 . S
C1404 C1403 1.383 . S
C1404 C1405 1.377 . S
C1405 H1389 0.930 . S
C1405 C1404 1.377 . S
C1405 C1406 1.379 . S
C1406 H1390 0.931 . S
C1406 C1400 1.383 . S
C1406 C1405 1.379 . S
H1407 C1401 0.959 . S
H1408 C1401 0.961 . S
H1409 C1401 0.960 . S
H1410 C1402 0.930 . S
H1411 C1403 0.929 . S
H1412 C1420 0.929 . S
H1413 C1422 0.930 . S
H1414 C1424 0.930 . S
H1415 C1427 0.929 . S
H1416 C1430 0.930 . S
H1417 C1432 0.960 . S
H1418 C1432 0.960 . S
H1419 C1432 0.960 . S
C1420 H1412 0.929 . S
C1420 C1421 1.377 . S
C1420 C1422 1.384 . S
C1421 C1420 1.377 . S
C1421 C1427 1.390 . S
C1422 H1413 0.930 . S
C1422 C1420 1.384 . S
C1422 C1423 1.372 . S
C1423 C1422 1.372 . S
C1423 C1424 1.400 . S
C1423 C1428 1.490 . S
C1424 H1414 0.930 . S
C1424 C1423 1.400 . S
C1424 C1427 1.386 . S
H1425 C1441 0.930 . S
H1426 C1442 0.931 . S
C1427 H1415 0.929 . S
C1427 C1421 1.390 . S
C1427 C1424 1.386 . S
C1428 C1423 1.490 . S
C1428 C1430 1.395 . S
C1428 C1431 1.403 . S
H1429 C1435 0.930 . S
C1430 H1416 0.930 . S
C1430 C1428 1.395 . S
C1430 C1433 1.403 . S
C1431 C1428 1.403 . S
C1431 C1432 1.524 . S
C1431 C1435 1.400 . S
C1432 H1417 0.960 . S
C1432 H1418 0.960 . S
C1432 H1419 0.960 . S
C1432 C1431 1.524 . S
C1433 C1430 1.403 . S
C1433 C1434 1.392 . S
C1433 C1437 1.495 . S
C1434 C1433 1.392 . S
C1434 C1435 1.385 . S
C1434 C1436 1.478 . S
C1435 H1429 0.930 . S
C1435 C1431 1.400 . S
C1435 C1434 1.385 . S
C1436 C1434 1.478 . S
C1436 C1438 1.381 . S
C1436 C1442 1.383 . S
C1437 C1433 1.495 . S
C1437 H1443 0.959 . S
C1437 H1444 0.961 . S
C1437 H1445 0.960 . S
C1438 C1436 1.381 . S
C1438 C1439 1.394 . S
C1438 H1446 0.930 . S
C1439 C1438 1.394 . S
C1439 C1440 1.383 . S
C1439 H1447 0.929 . S
C1440 C1439 1.383 . S
C1440 C1441 1.377 . S
C1441 H1425 0.930 . S
C1441 C1440 1.377 . S
C1441 C1442 1.379 . S
C1442 H1426 0.931 . S
C1442 C1436 1.383 . S
C1442 C1441 1.379 . S
H1443 C1437 0.959 . S
H1444 C1437 0.961 . S
H1445 C1437 0.960 . S
H1446 C1438 0.930 . S
H1447 C1439 0.929 . S
H1448 C1456 0.929 . S
H1449 C1458 0.930 . S
H1450 C1460 0.930 . S
H1451 C1463 0.929 . S
H1452 C1466 0.930 . S
H1453 C1468 0.960 . S
H1454 C1468 0.960 . S
H1455 C1468 0.960 . S
C1456 H1448 0.929 . S
C1456 C1457 1.377 . S
C1456 C1458 1.384 . S
C1457 C1456 1.377 . S
C1457 C1463 1.390 . S
C1458 H1449 0.930 . S
C1458 C1456 1.384 . S
C1458 C1459 1.372 . S
C1459 C1458 1.372 . S
C1459 C1460 1.400 . S
C1459 C1464 1.490 . S
C1460 H1450 0.930 . S
C1460 C1459 1.400 . S
C1460 C1463 1.386 . S
H1461 C1477 0.930 . S
H1462 C1478 0.931 . S
C1463 H1451 0.929 . S
C1463 C1457 1.390 . S
C1463 C1460 1.386 . S
C1464 C1459 1.490 . S
C1464 C1466 1.395 . S
C1464 C1467 1.403 . S
H1465 C1471 0.930 . S
C1466 H1452 0.930 . S
C1466 C1464 1.395 . S
C1466 C1469 1.403 . S
C1467 C1464 1.403 . S
C1467 C1468 1.524 . S
C1467 C1471 1.400 . S
C1468 H1453 0.960 . S
C1468 H1454 0.960 . S
C1468 H1455 0.960 . S
C1468 C1467 1.524 . S
C1469 C1466 1.403 . S
C1469 C1470 1.392 . S
C1469 C1473 1.495 . S
C1470 C1469 1.392 . S
C1470 C1471 1.385 . S
C1470 C1472 1.478 . S
C1471 H1465 0.930 . S
C1471 C1467 1.400 . S
C1471 C1470 1.385 . S
C1472 C1470 1.478 . S
C1472 C1474 1.381 . S
C1472 C1478 1.383 . S
C1473 C1469 1.495 . S
C1473 H1479 0.959 . S
C1473 H1480 0.961 . S
C1473 H1481 0.960 . S
C1474 C1472 1.381 . S
C1474 C1475 1.394 . S
C1474 H1482 0.930 . S
C1475 C1474 1.394 . S
C1475 C1476 1.383 . S
C1475 H1483 0.929 . S
C1476 C1475 1.383 . S
C1476 C1477 1.377 . S
C1477 H1461 0.930 . S
C1477 C1476 1.377 . S
C1477 C1478 1.379 . S
C1478 H1462 0.931 . S
C1478 C1472 1.383 . S
C1478 C1477 1.379 . S
H1479 C1473 0.959 . S
H1480 C1473 0.961 . S
H1481 C1473 0.960 . S
H1482 C1474 0.930 . S
H1483 C1475 0.929 . S
H1484 C1492 0.929 . S
H1485 C1494 0.930 . S
H1486 C1496 0.930 . S
H1487 C1499 0.929 . S
H1488 C1502 0.930 . S
H1489 C1504 0.960 . S
H1490 C1504 0.960 . S
H1491 C1504 0.960 . S
C1492 H1484 0.929 . S
C1492 C1493 1.377 . S
C1492 C1494 1.384 . S
C1493 C1492 1.377 . S
C1493 C1499 1.390 . S
C1494 H1485 0.930 . S
C1494 C1492 1.384 . S
C1494 C1495 1.372 . S
C1495 C1494 1.372 . S
C1495 C1496 1.400 . S
C1495 C1500 1.490 . S
C1496 H1486 0.930 . S
C1496 C1495 1.400 . S
C1496 C1499 1.386 . S
H1497 C1513 0.930 . S
H1498 C1514 0.931 . S
C1499 H1487 0.929 . S
C1499 C1493 1.390 . S
C1499 C1496 1.386 . S
C1500 C1495 1.490 . S
C1500 C1502 1.395 . S
C1500 C1503 1.403 . S
H1501 C1507 0.930 . S
C1502 H1488 0.930 . S
C1502 C1500 1.395 . S
C1502 C1505 1.403 . S
C1503 C1500 1.403 . S
C1503 C1504 1.524 . S
C1503 C1507 1.400 . S
C1504 H1489 0.960 . S
C1504 H1490 0.960 . S
C1504 H1491 0.960 . S
C1504 C1503 1.524 . S
C1505 C1502 1.403 . S
C1505 C1506 1.392 . S
C1505 C1509 1.495 . S
C1506 C1505 1.392 . S
C1506 C1507 1.385 . S
C1506 C1508 1.478 . S
C1507 H1501 0.930 . S
C1507 C1503 1.400 . S
C1507 C1506 1.385 . S
C1508 C1506 1.478 . S
C1508 C1510 1.381 . S
C1508 C1514 1.383 . S
C1509 C1505 1.495 . S
C1509 H1515 0.959 . S
C1509 H1516 0.961 . S
C1509 H1517 0.960 . S
C1510 C1508 1.381 . S
C1510 C1511 1.394 . S
C1510 H1518 0.930 . S
C1511 C1510 1.394 . S
C1511 C1512 1.383 . S
C1511 H1519 0.929 . S
C1512 C1511 1.383 . S
C1512 C1513 1.377 . S
C1513 H1497 0.930 . S
C1513 C1512 1.377 . S
C1513 C1514 1.379 . S
C1514 H1498 0.931 . S
C1514 C1508 1.383 . S
C1514 C1513 1.379 . S
H1515 C1509 0.959 . S
H1516 C1509 0.961 . S
H1517 C1509 0.960 . S
H1518 C1510 0.930 . S
H1519 C1511 0.929 . S
H1520 C1528 0.929 . S
H1521 C1530 0.930 . S
H1522 C1532 0.930 . S
H1523 C1535 0.929 . S
H1524 C1538 0.930 . S
H1525 C1540 0.960 . S
H1526 C1540 0.960 . S
H1527 C1540 0.960 . S
C1528 H1520 0.929 . S
C1528 C1529 1.377 . S
C1528 C1530 1.384 . S
C1529 C1528 1.377 . S
C1529 C1535 1.390 . S
C1530 H1521 0.930 . S
C1530 C1528 1.384 . S
C1530 C1531 1.372 . S
C1531 C1530 1.372 . S
C1531 C1532 1.400 . S
C1531 C1536 1.490 . S
C1532 H1522 0.930 . S
C1532 C1531 1.400 . S
C1532 C1535 1.386 . S
H1533 C1549 0.930 . S
H1534 C1550 0.931 . S
C1535 H1523 0.929 . S
C1535 C1529 1.390 . S
C1535 C1532 1.386 . S
C1536 C1531 1.490 . S
C1536 C1538 1.395 . S
C1536 C1539 1.403 . S
H1537 C1543 0.930 . S
C1538 H1524 0.930 . S
C1538 C1536 1.395 . S
C1538 C1541 1.403 . S
C1539 C1536 1.403 . S
C1539 C1540 1.524 . S
C1539 C1543 1.400 . S
C1540 H1525 0.960 . S
C1540 H1526 0.960 . S
C1540 H1527 0.960 . S
C1540 C1539 1.524 . S
C1541 C1538 1.403 . S
C1541 C1542 1.392 . S
C1541 C1545 1.495 . S
C1542 C1541 1.392 . S
C1542 C1543 1.385 . S
C1542 C1544 1.478 . S
C1543 H1537 0.930 . S
C1543 C1539 1.400 . S
C1543 C1542 1.385 . S
C1544 C1542 1.478 . S
C1544 C1546 1.381 . S
C1544 C1550 1.383 . S
C1545 C1541 1.495 . S
C1545 H1551 0.959 . S
C1545 H1552 0.961 . S
C1545 H1553 0.960 . S
C1546 C1544 1.381 . S
C1546 C1547 1.394 . S
C1546 H1554 0.930 . S
C1547 C1546 1.394 . S
C1547 C1548 1.383 . S
C1547 H1555 0.929 . S
C1548 C1547 1.383 . S
C1548 C1549 1.377 . S
C1549 H1533 0.930 . S
C1549 C1548 1.377 . S
C1549 C1550 1.379 . S
C1550 H1534 0.931 . S
C1550 C1544 1.383 . S
C1550 C1549 1.379 . S
H1551 C1545 0.959 . S
H1552 C1545 0.961 . S
H1553 C1545 0.960 . S
H1554 C1546 0.930 . S
H1555 C1547 0.929 . S
H1556 C1564 0.929 . S
H1557 C1566 0.930 . S
H1558 C1568 0.930 . S
H1559 C1571 0.929 . S
H1560 C1574 0.930 . S
H1561 C1576 0.960 . S
H1562 C1576 0.960 . S
H1563 C1576 0.960 . S
C1564 H1556 0.929 . S
C1564 C1565 1.377 . S
C1564 C1566 1.384 . S
C1565 C1564 1.377 . S
C1565 C1571 1.390 . S
C1566 H1557 0.930 . S
C1566 C1564 1.384 . S
C1566 C1567 1.372 . S
C1567 C1566 1.372 . S
C1567 C1568 1.400 . S
C1567 C1572 1.490 . S
C1568 H1558 0.930 . S
C1568 C1567 1.400 . S
C1568 C1571 1.386 . S
H1569 C1585 0.930 . S
H1570 C1586 0.931 . S
C1571 H1559 0.929 . S
C1571 C1565 1.390 . S
C1571 C1568 1.386 . S
C1572 C1567 1.490 . S
C1572 C1574 1.395 . S
C1572 C1575 1.403 . S
H1573 C1579 0.930 . S
C1574 H1560 0.930 . S
C1574 C1572 1.395 . S
C1574 C1577 1.403 . S
C1575 C1572 1.403 . S
C1575 C1576 1.524 . S
C1575 C1579 1.400 . S
C1576 H1561 0.960 . S
C1576 H1562 0.960 . S
C1576 H1563 0.960 . S
C1576 C1575 1.524 . S
C1577 C1574 1.403 . S
C1577 C1578 1.392 . S
C1577 C1581 1.495 . S
C1578 C1577 1.392 . S
C1578 C1579 1.385 . S
C1578 C1580 1.478 . S
C1579 H1573 0.930 . S
C1579 C1575 1.400 . S
C1579 C1578 1.385 . S
C1580 C1578 1.478 . S
C1580 C1582 1.381 . S
C1580 C1586 1.383 . S
C1581 C1577 1.495 . S
C1581 H1587 0.959 . S
C1581 H1588 0.961 . S
C1581 H1589 0.960 . S
C1582 C1580 1.381 . S
C1582 C1583 1.394 . S
C1582 H1590 0.930 . S
C1583 C1582 1.394 . S
C1583 C1584 1.383 . S
C1583 H1591 0.929 . S
C1584 C1583 1.383 . S
C1584 C1585 1.377 . S
C1585 H1569 0.930 . S
C1585 C1584 1.377 . S
C1585 C1586 1.379 . S
C1586 H1570 0.931 . S
C1586 C1580 1.383 . S
C1586 C1585 1.379 . S
H1587 C1581 0.959 . S
H1588 C1581 0.961 . S
H1589 C1581 0.960 . S
H1590 C1582 0.930 . S
H1591 C1583 0.929 . S
H1592 C1600 0.929 . S
H1593 C1602 0.930 . S
H1594 C1604 0.930 . S
H1595 C1607 0.929 . S
H1596 C1610 0.930 . S
H1597 C1612 0.960 . S
H1598 C1612 0.960 . S
H1599 C1612 0.960 . S
C1600 H1592 0.929 . S
C1600 C1601 1.377 . S
C1600 C1602 1.384 . S
C1601 C1600 1.377 . S
C1601 C1607 1.390 . S
C1602 H1593 0.930 . S
C1602 C1600 1.384 . S
C1602 C1603 1.372 . S
C1603 C1602 1.372 . S
C1603 C1604 1.400 . S
C1603 C1608 1.490 . S
C1604 H1594 0.930 . S
C1604 C1603 1.400 . S
C1604 C1607 1.386 . S
H1605 C1621 0.930 . S
H1606 C1622 0.931 . S
C1607 H1595 0.929 . S
C1607 C1601 1.390 . S
C1607 C1604 1.386 . S
C1608 C1603 1.490 . S
C1608 C1610 1.395 . S
C1608 C1611 1.403 . S
H1609 C1615 0.930 . S
C1610 H1596 0.930 . S
C1610 C1608 1.395 . S
C1610 C1613 1.403 . S
C1611 C1608 1.403 . S
C1611 C1612 1.524 . S
C1611 C1615 1.400 . S
C1612 H1597 0.960 . S
C1612 H1598 0.960 . S
C1612 H1599 0.960 . S
C1612 C1611 1.524 . S
C1613 C1610 1.403 . S
C1613 C1614 1.392 . S
C1613 C1617 1.495 . S
C1614 C1613 1.392 . S
C1614 C1615 1.385 . S
C1614 C1616 1.478 . S
C1615 H1609 0.930 . S
C1615 C1611 1.400 . S
C1615 C1614 1.385 . S
C1616 C1614 1.478 . S
C1616 C1618 1.381 . S
C1616 C1622 1.383 . S
C1617 C1613 1.495 . S
C1617 H1623 0.959 . S
C1617 H1624 0.961 . S
C1617 H1625 0.960 . S
C1618 C1616 1.381 . S
C1618 C1619 1.394 . S
C1618 H1626 0.930 . S
C1619 C1618 1.394 . S
C1619 C1620 1.383 . S
C1619 H1627 0.929 . S
C1620 C1619 1.383 . S
C1620 C1621 1.377 . S
C1621 H1605 0.930 . S
C1621 C1620 1.377 . S
C1621 C1622 1.379 . S
C1622 H1606 0.931 . S
C1622 C1616 1.383 . S
C1622 C1621 1.379 . S
H1623 C1617 0.959 . S
H1624 C1617 0.961 . S
H1625 C1617 0.960 . S
H1626 C1618 0.930 . S
H1627 C1619 0.929 . S
C792 C359 1.469 . S
C773 C15 1.518 . S
C828 C463 2.066 . S
C809 C55 2.080 . S
C864 C383 1.332 . S
C845 C101 1.380 . S
C900 C445 1.360 . S
C881 C141 1.306 . S
C936 C519 1.336 . S
C917 C2 1.336 . S
C972 C581 1.763 . S
C953 C61 1.809 . S
C989 C95 0.957 . S
C1008 C655 0.941 . S
C1044 C741 1.012 . S
C1025 C135 0.987 . S
C1080 C537 2.523 . S
C1061 C42 2.539 . S
C1097 C82 1.794 . S
C1116 C605 1.781 . S
C1152 C679 1.084 . S
C1133 C122 1.058 . S
C1188 C759 1.719 . S
C1169 C21 1.701 . S
C1205 C162 1.578 . S
C1224 C457 1.503 . S
C1260 C371 1.701 . S
C1241 C221 1.790 . S
C1277 C255 1.297 . S
C1296 C433 1.232 . S
C1313 C282 2.437 . S
C1332 C389 2.450 . S
C1368 C685 1.797 . S
C1349 C181 1.838 . S
C1404 C753 1.270 . S
C1385 C202 1.296 . S
C1440 C531 1.866 . S
C1421 C242 1.991 . S
C1457 C301 2.573 . S
C1476 C611 2.630 . S
C1512 C667 1.460 . S
C1493 C215 1.497 . S
C1548 C729 1.112 . S
C1529 C261 1.145 . S
C1584 C507 1.943 . S
C1565 C295 2.037 . S
C1601 C175 1.419 . S
C1620 C593 1.414 . S
