# Generated by pormake.
# Topology dag, (6,3)-cn, num edge types: 1
# Building blocks:
#     Node 0, Type 0, BuildingBlock: IZENUY_clean_sbu_0, # of connection points: 6
#     Node 1, Type 0, BuildingBlock: IZENUY_clean_sbu_0, # of connection points: 6
#     Node 2, Type 0, BuildingBlock: IZENUY_clean_sbu_0, # of connection points: 6
#     Node 3, Type 0, BuildingBlock: IZENUY_clean_sbu_0, # of connection points: 6
#     Node 4, Type 1, BuildingBlock: VETTIZ_charged_linker_0, # of connection points: 3
#     Node 5, Type 1, BuildingBlock: VETTIZ_charged_linker_0, # of connection points: 3
#     Node 6, Type 1, BuildingBlock: VETTIZ_charged_linker_0, # of connection points: 3
#     Node 7, Type 1, BuildingBlock: VETTIZ_charged_linker_0, # of connection points: 3
#     Node 8, Type 1, BuildingBlock: VETTIZ_charged_linker_0, # of connection points: 3
#     Node 9, Type 1, BuildingBlock: VETTIZ_charged_linker_0, # of connection points: 3
#     Node 10, Type 1, BuildingBlock: VETTIZ_charged_linker_0, # of connection points: 3
#     Node 11, Type 1, BuildingBlock: VETTIZ_charged_linker_0, # of connection points: 3
#     Edge 12, Type (0, 1), BuildingBlock: ZUJKAS_clean_linker_0, # of connection points: 2
#     Edge 13, Type (0, 1), BuildingBlock: ZUJKAS_clean_linker_0, # of connection points: 2
#     Edge 14, Type (0, 1), BuildingBlock: ZUJKAS_clean_linker_0, # of connection points: 2
#     Edge 15, Type (0, 1), BuildingBlock: ZUJKAS_clean_linker_0, # of connection points: 2
#     Edge 16, Type (0, 1), BuildingBlock: ZUJKAS_clean_linker_0, # of connection points: 2
#     Edge 17, Type (0, 1), BuildingBlock: ZUJKAS_clean_linker_0, # of connection points: 2
#     Edge 18, Type (0, 1), BuildingBlock: ZUJKAS_clean_linker_0, # of connection points: 2
#     Edge 19, Type (0, 1), BuildingBlock: ZUJKAS_clean_linker_0, # of connection points: 2
#     Edge 20, Type (0, 1), BuildingBlock: ZUJKAS_clean_linker_0, # of connection points: 2
#     Edge 21, Type (0, 1), BuildingBlock: ZUJKAS_clean_linker_0, # of connection points: 2
#     Edge 22, Type (0, 1), BuildingBlock: ZUJKAS_clean_linker_0, # of connection points: 2
#     Edge 23, Type (0, 1), BuildingBlock: ZUJKAS_clean_linker_0, # of connection points: 2
#     Edge 24, Type (0, 1), BuildingBlock: ZUJKAS_clean_linker_0, # of connection points: 2
#     Edge 25, Type (0, 1), BuildingBlock: ZUJKAS_clean_linker_0, # of connection points: 2
#     Edge 26, Type (0, 1), BuildingBlock: ZUJKAS_clean_linker_0, # of connection points: 2
#     Edge 27, Type (0, 1), BuildingBlock: ZUJKAS_clean_linker_0, # of connection points: 2
#     Edge 28, Type (0, 1), BuildingBlock: ZUJKAS_clean_linker_0, # of connection points: 2
#     Edge 29, Type (0, 1), BuildingBlock: ZUJKAS_clean_linker_0, # of connection points: 2
#     Edge 30, Type (0, 1), BuildingBlock: ZUJKAS_clean_linker_0, # of connection points: 2
#     Edge 31, Type (0, 1), BuildingBlock: ZUJKAS_clean_linker_0, # of connection points: 2
#     Edge 32, Type (0, 1), BuildingBlock: ZUJKAS_clean_linker_0, # of connection points: 2
#     Edge 33, Type (0, 1), BuildingBlock: ZUJKAS_clean_linker_0, # of connection points: 2
#     Edge 34, Type (0, 1), BuildingBlock: ZUJKAS_clean_linker_0, # of connection points: 2
#     Edge 35, Type (0, 1), BuildingBlock: ZUJKAS_clean_linker_0, # of connection points: 2
# Relax obj value: 0.264
# Max RMSD: 0.202
# Mean RMSD: 0.161
data_MOF--net-dag--node1-IZENUY_clean_sbu_0--node2-VETTIZ_charged_linker_0--edge1-ZUJKAS_clean_linker_0
_symmetry_space_group_name_H-M    P1
_symmetry_Int_Tables_number       1
_symmetry_cell_setting            triclinic
loop_
_symmetry_equiv_pos_as_xyz
'x, y, z'
_cell_length_a     59.026855
_cell_length_b     59.05158
_cell_length_c     51.146686
_cell_angle_alpha  93.311665
_cell_angle_beta   86.676895
_cell_angle_gamma 87.713733
loop_
_atom_site_label
_atom_site_type_symbol
_atom_site_fract_x
_atom_site_fract_y
_atom_site_fract_z
_atom_type_partial_charge
Fe0 Fe 0.20413 0.83128 0.08773 0.0
Fe1 Fe 0.15656 0.8429 0.07032 0.0
O2 O 0.17599 0.82331 0.08275 0.0
Fe3 Fe 0.16727 0.79591 0.09031 0.0
O4 O 0.17389 0.80071 0.12427 0.0
O5 O 0.20762 0.81402 0.11609 0.0
O6 O 0.19423 0.8545 0.1109 0.0
C7 C 0.18021 0.87009 0.10587 0.0
C8 C 0.21188 0.78784 0.06693 0.0
O9 O 0.16855 0.86807 0.08592 0.0
C10 C 0.14647 0.80112 0.04453 0.0
O11 O 0.20586 0.85004 0.0602 0.0
O12 O 0.1743 0.84464 0.04052 0.0
O13 O 0.1952 0.78176 0.08126 0.0
O14 O 0.21568 0.80856 0.06498 0.0
C15 C 0.12933 0.82483 0.10808 0.0
O16 O 0.14096 0.82138 0.0525 0.0
O17 O 0.15989 0.78915 0.05686 0.0
C18 C 0.19454 0.85071 0.03992 0.0
O19 O 0.13767 0.84241 0.09934 0.0
O20 O 0.13782 0.80527 0.10074 0.0
C21 C 0.193 0.80612 0.13182 0.0
Fe22 Fe 0.69244 0.65837 0.52599 0.0
Fe23 Fe 0.66049 0.69223 0.55944 0.0
O24 O 0.66624 0.66478 0.54406 0.0
Fe25 Fe 0.64593 0.64376 0.54664 0.0
O26 O 0.66549 0.62498 0.56191 0.0
O27 O 0.69398 0.62816 0.53311 0.0
O28 O 0.70806 0.66394 0.55495 0.0
C29 C 0.70655 0.68243 0.56871 0.0
C30 C 0.66325 0.63783 0.49372 0.0
O31 O 0.69026 0.69674 0.56651 0.0
C32 C 0.61811 0.68078 0.53989 0.0
O33 O 0.69579 0.68731 0.5154 0.0
O34 O 0.66348 0.70531 0.5283 0.0
O35 O 0.6533 0.63023 0.51381 0.0
O36 O 0.67818 0.6524 0.49602 0.0
C37 C 0.64349 0.66591 0.59753 0.0
O38 O 0.62971 0.69252 0.55529 0.0
O39 O 0.62497 0.66106 0.53155 0.0
C40 C 0.68108 0.70315 0.51305 0.0
O41 O 0.65706 0.681 0.59158 0.0
O42 O 0.63497 0.65355 0.57988 0.0
C43 C 0.6844 0.61772 0.55135 0.0
Fe44 Fe 0.83494 0.2027 0.99638 0.0
Fe45 Fe 0.84529 0.15526 0.01532 0.0
O46 O 0.82618 0.17503 0.00265 0.0
Fe47 Fe 0.79836 0.16703 0.99605 0.0
O48 O 0.79581 0.18486 0.968 0.0
O49 O 0.82964 0.19853 0.96195 0.0
O50 O 0.8647 0.1938 0.98717 0.0
C51 C 0.87351 0.17447 0.97941 0.0
C52 C 0.78972 0.21003 0.01796 0.0
O53 O 0.86507 0.15657 0.98712 0.0
C54 C 0.80642 0.14664 0.04373 0.0
O55 O 0.84102 0.20878 0.03038 0.0
O56 O 0.86009 0.17658 0.03454 0.0
O57 O 0.78595 0.18922 0.01891 0.0
O58 O 0.80669 0.21654 0.00446 0.0
C59 C 0.82283 0.12844 0.97814 0.0
O60 O 0.82667 0.1526 0.04426 0.0
O61 O 0.79576 0.14781 0.02301 0.0
C62 C 0.85419 0.19667 0.04288 0.0
O63 O 0.83401 0.13032 0.99847 0.0
O64 O 0.80911 0.14418 0.97272 0.0
C65 C 0.81094 0.19312 0.95325 0.0
Fe66 Fe 0.35562 0.35808 0.54312 0.0
Fe67 Fe 0.30832 0.34228 0.55905 0.0
O68 O 0.33535 0.33688 0.54247 0.0
Fe69 Fe 0.34207 0.31037 0.52519 0.0
O70 O 0.36585 0.30459 0.54502 0.0
O71 O 0.38035 0.33809 0.54194 0.0
O72 O 0.35579 0.3584 0.57848 0.0
C73 C 0.33844 0.36235 0.59387 0.0
C74 C 0.36147 0.34214 0.49193 0.0
O75 O 0.3187 0.3608 0.58559 0.0
C76 C 0.29837 0.31818 0.51197 0.0
O77 O 0.33463 0.38202 0.54446 0.0
O78 O 0.30208 0.36609 0.53942 0.0
O79 O 0.36049 0.32209 0.49945 0.0
O80 O 0.35662 0.35902 0.50777 0.0
C81 C 0.31758 0.29866 0.57149 0.0
O82 O 0.29302 0.32468 0.53564 0.0
O83 O 0.31887 0.31445 0.50412 0.0
C84 C 0.31431 0.38303 0.53776 0.0
O85 O 0.31289 0.31894 0.57967 0.0
O86 O 0.32486 0.29389 0.54791 0.0
C87 C 0.38214 0.31753 0.54765 0.0
C88 C 0.13401 0.10362 0.24114 0.0
C89 C 0.12566 0.08987 0.22082 0.0
C90 C 0.10683 0.09795 0.20778 0.0
C91 C 0.10501 0.13292 0.23516 0.0
C92 C 0.12353 0.12504 0.24784 0.0
C93 C 0.13057 0.14203 0.26854 0.0
H94 H 0.11699 0.24623 0.33113 0.0
C95 C 0.09822 0.15586 0.24673 0.0
C96 C 0.11317 0.16136 0.26618 0.0
H97 H 0.16603 0.1921 0.34346 0.0
H98 H 0.1499 0.16806 0.31057 0.0
H99 H 0.11798 0.23918 0.26696 0.0
H100 H 0.07444 0.21313 0.32791 0.0
H101 H 0.05751 0.22072 0.30241 0.0
H102 H 0.07245 0.24231 0.31991 0.0
H103 H 0.09816 0.25704 0.28763 0.0
H104 H 0.08955 0.24202 0.25843 0.0
C105 C 0.15501 0.14885 0.26065 0.0
C106 C 0.12792 0.13135 0.2955 0.0
C107 C 0.02922 0.19729 0.21508 0.0
C108 C 0.01816 0.21846 0.22206 0.0
C109 C 0.02763 0.2332 0.24077 0.0
C110 C 0.04746 0.22659 0.25283 0.0
C111 C 0.05795 0.20505 0.24605 0.0
C112 C 0.04885 0.19094 0.22727 0.0
C113 C 0.06211 0.16875 0.22221 0.0
C114 C 0.08046 0.17154 0.24149 0.0
C115 C 0.07804 0.19281 0.25542 0.0
C116 C 0.07197 0.16728 0.19335 0.0
C117 C 0.04622 0.14941 0.22921 0.0
C118 C 0.12421 0.22921 0.32657 0.0
C119 C 0.14276 0.22099 0.33986 0.0
C120 C 0.15158 0.19868 0.33368 0.0
C121 C 0.14227 0.18478 0.31443 0.0
C122 C 0.12386 0.19317 0.30117 0.0
C123 C 0.11489 0.21492 0.30748 0.0
C124 C 0.09465 0.22039 0.29195 0.0
C125 C 0.09341 0.19856 0.2749 0.0
C126 C 0.1107 0.18279 0.28035 0.0
C127 C 0.10015 0.24082 0.27541 0.0
C128 C 0.07358 0.22454 0.31139 0.0
H129 H 0.08216 0.12442 0.20422 0.0
H130 H 0.14859 0.09799 0.25134 0.0
H131 H 0.11386 0.11934 0.29594 0.0
H132 H 0.12322 0.14406 0.31184 0.0
H133 H 0.14368 0.12175 0.29985 0.0
H134 H 0.15742 0.14988 0.23901 0.0
H135 H 0.16783 0.13619 0.26664 0.0
H136 H 0.15896 0.16583 0.26885 0.0
H137 H 0.02275 0.18578 0.20031 0.0
H138 H 0.01944 0.24963 0.24644 0.0
H139 H 0.05377 0.23842 0.26708 0.0
H140 H 0.07541 0.18442 0.1865 0.0
H141 H 0.05996 0.15938 0.17997 0.0
H142 H 0.08857 0.15783 0.19071 0.0
H143 H 0.03493 0.15455 0.24692 0.0
H144 H 0.05548 0.13382 0.23427 0.0
H145 H 0.03522 0.14514 0.21289 0.0
H146 H 0.0999 0.08756 0.19228 0.0
C147 C 0.09647 0.11934 0.21484 0.0
C148 C 0.39588 0.51361 0.82372 0.0
C149 C 0.40762 0.50106 0.80255 0.0
C150 C 0.4303 0.50595 0.79573 0.0
C151 C 0.42816 0.53747 0.82823 0.0
C152 C 0.4065 0.53172 0.83627 0.0
C153 C 0.39616 0.54783 0.85802 0.0
H154 H 0.40031 0.64718 0.92987 0.0
C155 C 0.43343 0.55853 0.84317 0.0
C156 C 0.41497 0.56451 0.86105 0.0
H157 H 0.34715 0.59878 0.93127 0.0
H158 H 0.37 0.57315 0.90129 0.0
H159 H 0.44283 0.61049 0.93003 0.0
H160 H 0.41023 0.64234 0.86748 0.0
H161 H 0.43976 0.6431 0.86128 0.0
H162 H 0.42667 0.65772 0.89044 0.0
H163 H 0.44657 0.63973 0.92364 0.0
H164 H 0.4642 0.61716 0.90668 0.0
C165 C 0.39213 0.53436 0.88287 0.0
C166 C 0.37438 0.55923 0.8482 0.0
C167 C 0.50163 0.60149 0.81278 0.0
C168 C 0.50969 0.62276 0.82035 0.0
C169 C 0.49987 0.63475 0.84307 0.0
C170 C 0.48121 0.62621 0.85709 0.0
C171 C 0.47235 0.60555 0.84818 0.0
C172 C 0.48309 0.59323 0.82689 0.0
C173 C 0.47165 0.57159 0.82016 0.0
C174 C 0.45176 0.57321 0.84042 0.0
C175 C 0.45204 0.59325 0.85656 0.0
C176 C 0.48837 0.55133 0.82428 0.0
C177 C 0.46386 0.57265 0.79178 0.0
C178 C 0.39356 0.63108 0.92369 0.0
C179 C 0.37178 0.62513 0.93291 0.0
C180 C 0.36391 0.60377 0.92474 0.0
C181 C 0.37712 0.58895 0.90709 0.0
C182 C 0.39837 0.5956 0.89717 0.0
C183 C 0.40645 0.61616 0.90586 0.0
C184 C 0.42927 0.62053 0.89291 0.0
C185 C 0.43354 0.59917 0.87503 0.0
C186 C 0.41523 0.58476 0.87742 0.0
C187 C 0.44673 0.62226 0.91431 0.0
C188 C 0.42659 0.6421 0.87728 0.0
H189 H 0.45772 0.52717 0.80194 0.0
H190 H 0.37847 0.51018 0.82949 0.0
H191 H 0.37718 0.56354 0.8274 0.0
H192 H 0.36915 0.57544 0.85904 0.0
H193 H 0.35997 0.54771 0.8493 0.0
H194 H 0.40496 0.52009 0.88334 0.0
H195 H 0.37509 0.52702 0.88355 0.0
H196 H 0.39401 0.54479 0.90121 0.0
H197 H 0.50919 0.5918 0.7956 0.0
H198 H 0.50598 0.65115 0.84926 0.0
H199 H 0.47396 0.63635 0.87383 0.0
H200 H 0.50103 0.55603 0.83874 0.0
H201 H 0.49795 0.5454 0.80566 0.0
H202 H 0.47968 0.53686 0.83262 0.0
H203 H 0.45651 0.58984 0.78858 0.0
H204 H 0.4504 0.56092 0.78721 0.0
H205 H 0.47839 0.56902 0.77715 0.0
H206 H 0.43988 0.49614 0.77994 0.0
C207 C 0.44065 0.52397 0.80854 0.0
C208 C 0.7661 0.87352 0.3222 0.0
C209 C 0.77409 0.85512 0.33593 0.0
C210 C 0.79684 0.84704 0.33113 0.0
C211 C 0.80329 0.87547 0.29965 0.0
C212 C 0.78099 0.88345 0.30426 0.0
C213 C 0.7755 0.90326 0.2881 0.0
H214 H 0.81089 0.97506 0.19688 0.0
C215 C 0.81432 0.88936 0.27996 0.0
C216 C 0.79816 0.90577 0.27312 0.0
H217 H 0.74406 0.97378 0.23593 0.0
H218 H 0.75678 0.94249 0.26093 0.0
H219 H 0.83832 0.96903 0.24691 0.0
H220 H 0.8182 0.92159 0.18663 0.0
H221 H 0.8461 0.91339 0.19321 0.0
H222 H 0.84035 0.94104 0.18121 0.0
H223 H 0.85246 0.96629 0.21481 0.0
H224 H 0.86112 0.94909 0.24084 0.0
C225 C 0.76887 0.92419 0.30703 0.0
C226 C 0.75675 0.89632 0.26964 0.0
C227 C 0.89691 0.87166 0.24863 0.0
C228 C 0.91168 0.88174 0.23056 0.0
C229 C 0.90366 0.90069 0.21771 0.0
C230 C 0.88134 0.90942 0.22263 0.0
C231 C 0.86674 0.89912 0.24059 0.0
C232 C 0.87461 0.88065 0.25337 0.0
C233 C 0.85666 0.87213 0.272 0.0
C234 C 0.83672 0.88844 0.2681 0.0
C235 C 0.84275 0.90409 0.24962 0.0
C236 C 0.86498 0.87485 0.30017 0.0
C237 C 0.85195 0.84741 0.26267 0.0
C238 C 0.79886 0.9679 0.21057 0.0
C239 C 0.77636 0.97668 0.21417 0.0
C240 C 0.76149 0.96728 0.2328 0.0
C241 C 0.76889 0.94908 0.24718 0.0
C242 C 0.79143 0.94029 0.24297 0.0
C243 C 0.80595 0.94985 0.22498 0.0
C244 C 0.8293 0.93868 0.22296 0.0
C245 C 0.8265 0.92065 0.24262 0.0
C246 C 0.80431 0.92157 0.2543 0.0
C247 C 0.84634 0.95659 0.23161 0.0
C248 C 0.83398 0.9282 0.19455 0.0
H249 H 0.8285 0.85008 0.31041 0.0
H250 H 0.74876 0.88021 0.32557 0.0
H251 H 0.75969 0.87838 0.26189 0.0
H252 H 0.75644 0.90635 0.25211 0.0
H253 H 0.73972 0.89784 0.28019 0.0
H254 H 0.77937 0.92437 0.32441 0.0
H255 H 0.75076 0.92404 0.31427 0.0
H256 H 0.77192 0.94045 0.29808 0.0
H257 H 0.90261 0.8572 0.259 0.0
H258 H 0.91455 0.90856 0.2034 0.0
H259 H 0.87632 0.92377 0.21207 0.0
H260 H 0.87548 0.88999 0.3025 0.0
H261 H 0.87556 0.85979 0.30481 0.0
H262 H 0.85092 0.87783 0.31535 0.0
H263 H 0.85286 0.84534 0.24086 0.0
H264 H 0.83473 0.84236 0.26879 0.0
H265 H 0.86464 0.83519 0.26979 0.0
H266 H 0.80332 0.83263 0.34106 0.0
C267 C 0.81143 0.85709 0.31315 0.0
C268 C 0.72265 0.25919 0.69609 0.0
C269 C 0.74245 0.26709 0.70697 0.0
C270 C 0.75304 0.28568 0.69609 0.0
C271 C 0.72373 0.28877 0.66507 0.0
C272 C 0.71363 0.27024 0.67529 0.0
C273 C 0.69216 0.26462 0.6623 0.0
H274 H 0.61483 0.29077 0.57492 0.0
C275 C 0.7097 0.29683 0.64421 0.0
C276 C 0.6913 0.28258 0.64228 0.0
H277 H 0.61117 0.23964 0.63186 0.0
H278 H 0.64873 0.24842 0.64518 0.0
H279 H 0.63149 0.32724 0.6132 0.0
H280 H 0.66905 0.28228 0.55572 0.0
H281 H 0.68137 0.30884 0.55454 0.0
H282 H 0.65203 0.30623 0.54699 0.0
H283 H 0.6316 0.33129 0.5787 0.0
H284 H 0.65269 0.34321 0.59885 0.0
C285 C 0.67204 0.26766 0.68331 0.0
C286 C 0.69537 0.24041 0.64898 0.0
C287 C 0.72742 0.3703 0.60165 0.0
C288 C 0.71667 0.38234 0.58253 0.0
C289 C 0.69908 0.37215 0.56919 0.0
C290 C 0.69148 0.35095 0.57576 0.0
C291 C 0.70139 0.33981 0.59606 0.0
C292 C 0.71958 0.34908 0.608 0.0
C293 C 0.72832 0.33441 0.62866 0.0
C294 C 0.71164 0.31545 0.62797 0.0
C295 C 0.69576 0.3189 0.60906 0.0
C296 C 0.72634 0.34851 0.65526 0.0
C297 C 0.75282 0.32567 0.61971 0.0
C298 C 0.62241 0.28109 0.58978 0.0
C299 C 0.61029 0.26433 0.60219 0.0
C300 C 0.62033 0.25257 0.62204 0.0
C301 C 0.64204 0.25779 0.62978 0.0
C302 C 0.65359 0.2753 0.61795 0.0
C303 C 0.64378 0.2865 0.59816 0.0
C304 C 0.65748 0.30587 0.58932 0.0
C305 C 0.67721 0.30445 0.60698 0.0
C306 C 0.67493 0.28645 0.62358 0.0
C307 C 0.64268 0.32813 0.59505 0.0
C308 C 0.66534 0.30079 0.56007 0.0
H309 H 0.75254 0.31071 0.66806 0.0
H310 H 0.7142 0.2448 0.70372 0.0
H311 H 0.71255 0.23789 0.63884 0.0
H312 H 0.6833 0.23707 0.63367 0.0
H313 H 0.69367 0.22735 0.66368 0.0
H314 H 0.67555 0.2805 0.69919 0.0
H315 H 0.66873 0.25149 0.69262 0.0
H316 H 0.65623 0.27422 0.67533 0.0
H317 H 0.74123 0.37751 0.61191 0.0
H318 H 0.69041 0.38107 0.5545 0.0
H319 H 0.67762 0.34444 0.5654 0.0
H320 H 0.70991 0.35856 0.65759 0.0
H321 H 0.74023 0.3606 0.65655 0.0
H322 H 0.72649 0.33799 0.67236 0.0
H323 H 0.75535 0.32425 0.59794 0.0
H324 H 0.75674 0.30834 0.62579 0.0
H325 H 0.76559 0.33732 0.62724 0.0
H326 H 0.76812 0.29235 0.70424 0.0
C327 C 0.74386 0.29648 0.67518 0.0
C328 C 0.61009 0.49626 0.2522 0.0
C329 C 0.59722 0.51176 0.26959 0.0
C330 C 0.57389 0.50853 0.27456 0.0
C331 C 0.57721 0.47322 0.24787 0.0
C332 C 0.59966 0.47728 0.24133 0.0
C333 C 0.61076 0.45884 0.2228 0.0
H334 H 0.6063 0.35469 0.16136 0.0
C335 C 0.57217 0.45086 0.23571 0.0
C336 C 0.59156 0.44255 0.22047 0.0
H337 H 0.661 0.40128 0.15741 0.0
H338 H 0.63834 0.42912 0.18476 0.0
H339 H 0.59514 0.36377 0.22264 0.0
H340 H 0.56483 0.39203 0.15647 0.0
H341 H 0.5428 0.38582 0.1793 0.0
H342 H 0.56154 0.36313 0.16462 0.0
H343 H 0.57674 0.34792 0.20246 0.0
H344 H 0.56576 0.36625 0.2301 0.0
C345 C 0.63117 0.44817 0.23617 0.0
C346 C 0.61714 0.46926 0.19636 0.0
C347 C 0.50056 0.4132 0.26653 0.0
C348 C 0.49258 0.39128 0.26205 0.0
C349 C 0.5042 0.37638 0.24277 0.0
C350 C 0.52396 0.38289 0.22907 0.0
C351 C 0.53237 0.40445 0.23487 0.0
C352 C 0.52038 0.41936 0.2529 0.0
C353 C 0.53196 0.44136 0.25713 0.0
C354 C 0.55324 0.43701 0.23914 0.0
C355 C 0.55346 0.41533 0.22624 0.0
C356 C 0.53744 0.44397 0.28642 0.0
C357 C 0.51643 0.46082 0.24799 0.0
C358 C 0.61344 0.37086 0.16644 0.0
C359 C 0.63552 0.37573 0.1571 0.0
C360 C 0.64396 0.39715 0.16395 0.0
C361 C 0.63083 0.41328 0.18003 0.0
C362 C 0.60903 0.40796 0.18961 0.0
C363 C 0.60057 0.38714 0.18259 0.0
C364 C 0.57716 0.38438 0.19496 0.0
C365 C 0.57279 0.40719 0.21006 0.0
C366 C 0.59164 0.42081 0.20706 0.0
C367 C 0.57853 0.36449 0.21341 0.0
C368 C 0.5606 0.38099 0.17282 0.0
H369 H 0.54616 0.48749 0.26894 0.0
H370 H 0.62798 0.49857 0.24772 0.0
H371 H 0.60585 0.48428 0.19323 0.0
H372 H 0.61497 0.45737 0.17925 0.0
H373 H 0.63488 0.47491 0.19563 0.0
H374 H 0.6265 0.44564 0.25716 0.0
H375 H 0.64585 0.45936 0.23543 0.0
H376 H 0.63682 0.43123 0.22745 0.0
H377 H 0.49229 0.42501 0.28141 0.0
H378 H 0.49825 0.35951 0.23864 0.0
H379 H 0.53225 0.37067 0.21496 0.0
H380 H 0.54433 0.42761 0.29308 0.0
H381 H 0.52193 0.44911 0.29904 0.0
H382 H 0.55047 0.45634 0.2904 0.0
H383 H 0.50489 0.45448 0.23302 0.0
H384 H 0.52623 0.47387 0.23818 0.0
H385 H 0.50565 0.46907 0.26466 0.0
H386 H 0.56367 0.52024 0.28793 0.0
C387 C 0.56381 0.48938 0.26375 0.0
C388 C 0.21733 0.14504 0.76073 0.0
C389 C 0.23953 0.13826 0.75127 0.0
C390 C 0.24904 0.11743 0.75854 0.0
C391 C 0.21437 0.11068 0.78429 0.0
C392 C 0.20512 0.13107 0.77702 0.0
C393 C 0.18114 0.1357 0.78809 0.0
H394 H 0.09117 0.10268 0.8621 0.0
C395 C 0.19695 0.10009 0.80097 0.0
C396 C 0.17741 0.11466 0.8031 0.0
H397 H 0.09636 0.16408 0.82033 0.0
H398 H 0.13468 0.15249 0.80455 0.0
H399 H 0.11301 0.06983 0.81675 0.0
H400 H 0.14093 0.10307 0.88368 0.0
H401 H 0.15248 0.07511 0.88093 0.0
H402 H 0.12218 0.07998 0.88594 0.0
H403 H 0.10972 0.05915 0.8488 0.0
H404 H 0.13387 0.05066 0.82656 0.0
C405 C 0.16543 0.13711 0.76493 0.0
C406 C 0.18059 0.15749 0.80657 0.0
C407 C 0.21454 0.02464 0.84087 0.0
C408 C 0.20116 0.01077 0.85643 0.0
C409 C 0.17828 0.01746 0.86311 0.0
C410 C 0.16887 0.03768 0.85478 0.0
C411 C 0.18241 0.05149 0.83952 0.0
C412 C 0.20474 0.04482 0.83245 0.0
C413 C 0.21612 0.06146 0.81527 0.0
C414 C 0.19705 0.07939 0.81384 0.0
C415 C 0.17746 0.07345 0.82828 0.0
C416 C 0.22271 0.04919 0.78814 0.0
C417 C 0.23642 0.07097 0.82957 0.0
C418 C 0.1004 0.11354 0.84928 0.0
C419 C 0.09063 0.13431 0.84241 0.0
C420 C 0.10353 0.14809 0.82613 0.0
C421 C 0.12576 0.14128 0.81689 0.0
C422 C 0.13526 0.12045 0.82401 0.0
C423 C 0.12254 0.10699 0.83989 0.0
C424 C 0.13524 0.08545 0.84555 0.0
C425 C 0.15777 0.08818 0.83049 0.0
C426 C 0.15773 0.10869 0.81798 0.0
C427 C 0.12235 0.06511 0.83406 0.0
C428 C 0.13781 0.08565 0.87556 0.0
H429 H 0.24476 0.08803 0.78 0.0
H430 H 0.20936 0.16073 0.75511 0.0
H431 H 0.19636 0.15835 0.81744 0.0
H432 H 0.16664 0.15813 0.82197 0.0
H433 H 0.17925 0.17297 0.79532 0.0
H434 H 0.17156 0.125 0.74831 0.0
H435 H 0.1649 0.15441 0.75748 0.0
H436 H 0.14792 0.13227 0.77003 0.0
H437 H 0.23213 0.01982 0.8353 0.0
H438 H 0.16772 0.00726 0.8754 0.0
H439 H 0.15143 0.04183 0.8608 0.0
H440 H 0.21028 0.03618 0.78308 0.0
H441 H 0.23972 0.04041 0.78792 0.0
H442 H 0.22248 0.06075 0.77192 0.0
H443 H 0.23166 0.07471 0.8508 0.0
H444 H 0.242 0.08717 0.82222 0.0
H445 H 0.25112 0.05852 0.82794 0.0
H446 H 0.26616 0.1119 0.75157 0.0
C447 C 0.23661 0.10364 0.77507 0.0
C448 C 0.25764 0.72151 0.3927 0.0
C449 C 0.26656 0.74016 0.38033 0.0
C450 C 0.28582 0.75024 0.39027 0.0
C451 C 0.28781 0.72223 0.42299 0.0
C452 C 0.26852 0.71282 0.4138 0.0
C453 C 0.26202 0.6922 0.42792 0.0
H454 H 0.29014 0.61239 0.51087 0.0
C455 C 0.2957 0.70836 0.44411 0.0
C456 C 0.28051 0.69084 0.44724 0.0
H457 H 0.23267 0.61443 0.46218 0.0
H458 H 0.24251 0.65162 0.44908 0.0
H459 H 0.32543 0.63144 0.47013 0.0
H460 H 0.2837 0.66382 0.5343 0.0
H461 H 0.30853 0.67921 0.53244 0.0
H462 H 0.31031 0.64955 0.53946 0.0
H463 H 0.32919 0.62674 0.50402 0.0
H464 H 0.34244 0.64958 0.48824 0.0
C465 C 0.26342 0.67158 0.40758 0.0
C466 C 0.23826 0.69711 0.44204 0.0
C467 C 0.37116 0.72348 0.48385 0.0
C468 C 0.38299 0.7128 0.50319 0.0
C469 C 0.37249 0.69558 0.51684 0.0
C470 C 0.35108 0.68838 0.51057 0.0
C471 C 0.33999 0.69836 0.49029 0.0
C472 C 0.34963 0.71613 0.4779 0.0
C473 C 0.33479 0.72522 0.45758 0.0
C474 C 0.31506 0.70946 0.45933 0.0
C475 C 0.31848 0.69352 0.47818 0.0
C476 C 0.34823 0.72227 0.43059 0.0
C477 C 0.32729 0.7501 0.46624 0.0
C478 C 0.27932 0.62101 0.49786 0.0
C479 C 0.2607 0.61029 0.48739 0.0
C480 C 0.24733 0.62211 0.4702 0.0
C481 C 0.25308 0.6437 0.46261 0.0
C482 C 0.27254 0.65356 0.47209 0.0
C483 C 0.28492 0.64247 0.48997 0.0
C484 C 0.30519 0.6553 0.49782 0.0
C485 C 0.30332 0.67564 0.48112 0.0
C486 C 0.28429 0.67445 0.46595 0.0
C487 C 0.32679 0.64008 0.48986 0.0
C488 C 0.30199 0.66227 0.52755 0.0
H489 H 0.31123 0.74961 0.41789 0.0
H490 H 0.24269 0.71354 0.38585 0.0
H491 H 0.23623 0.71513 0.44976 0.0
H492 H 0.23544 0.68705 0.4594 0.0
H493 H 0.22457 0.69398 0.42844 0.0
H494 H 0.27757 0.67311 0.39252 0.0
H495 H 0.24747 0.67035 0.39719 0.0
H496 H 0.26719 0.65528 0.41625 0.0
H497 H 0.37865 0.737 0.47331 0.0
H498 H 0.38127 0.68697 0.5317 0.0
H499 H 0.34429 0.67484 0.52124 0.0
H500 H 0.35773 0.70554 0.4284 0.0
H501 H 0.36076 0.73568 0.42847 0.0
H502 H 0.33728 0.72241 0.41386 0.0
H503 H 0.32576 0.75271 0.48801 0.0
H504 H 0.31027 0.75495 0.45992 0.0
H505 H 0.33977 0.76213 0.45877 0.0
H506 H 0.2932 0.76449 0.38102 0.0
C507 C 0.29641 0.74144 0.41157 0.0
C508 C 0.86686 0.89335 0.84294 0.0
C509 C 0.87775 0.90892 0.85932 0.0
C510 C 0.89803 0.90183 0.87034 0.0
C511 C 0.89628 0.86441 0.84873 0.0
C512 C 0.8764 0.87129 0.83794 0.0
C513 C 0.867 0.85259 0.82111 0.0
H514 H 0.877 0.7452 0.7665 0.0
C515 C 0.90162 0.84047 0.83974 0.0
C516 C 0.88455 0.83341 0.82357 0.0
H517 H 0.82371 0.79639 0.7589 0.0
H518 H 0.8419 0.82236 0.78802 0.0
H519 H 0.91922 0.77928 0.76383 0.0
H520 H 0.87988 0.7547 0.82923 0.0
H521 H 0.90845 0.75455 0.83713 0.0
H522 H 0.90036 0.73677 0.80963 0.0
H523 H 0.92084 0.75014 0.77209 0.0
H524 H 0.93787 0.77108 0.78757 0.0
C525 C 0.86681 0.86036 0.79268 0.0
C526 C 0.84334 0.84716 0.83343 0.0
C527 C 0.97224 0.80044 0.86953 0.0
C528 C 0.98209 0.77842 0.86473 0.0
C529 C 0.97128 0.76272 0.84832 0.0
C530 C 0.95111 0.769 0.83674 0.0
C531 C 0.94159 0.79118 0.84171 0.0
C532 C 0.95221 0.80641 0.85791 0.0
C533 C 0.9398 0.82917 0.86132 0.0
C534 C 0.91984 0.82517 0.84457 0.0
C535 C 0.92092 0.80293 0.83306 0.0
C536 C 0.95562 0.84707 0.85007 0.0
C537 C 0.93217 0.83365 0.89076 0.0
C538 C 0.86937 0.76205 0.7711 0.0
C539 C 0.84888 0.76876 0.76045 0.0
C540 C 0.83932 0.79072 0.76712 0.0
C541 C 0.85 0.80586 0.78391 0.0
C542 C 0.87052 0.79903 0.79427 0.0
C543 C 0.87979 0.77739 0.78807 0.0
C544 C 0.90142 0.77305 0.8016 0.0
C545 C 0.9037 0.79578 0.81652 0.0
C546 C 0.88557 0.81092 0.812 0.0
C547 C 0.92096 0.76796 0.78031 0.0
C548 C 0.89756 0.75367 0.8203 0.0
H549 H 0.92272 0.87547 0.87423 0.0
H550 H 0.85135 0.89824 0.83402 0.0
H551 H 0.84256 0.85008 0.85516 0.0
H552 H 0.83934 0.82914 0.83008 0.0
H553 H 0.82968 0.85804 0.82594 0.0
H554 H 0.88212 0.87005 0.78779 0.0
H555 H 0.85164 0.87157 0.79015 0.0
H556 H 0.86744 0.84608 0.77772 0.0
H557 H 0.97978 0.81281 0.88248 0.0
H558 H 0.97855 0.74567 0.84423 0.0
H559 H 0.94373 0.75637 0.82434 0.0
H560 H 0.96629 0.83969 0.83277 0.0
H561 H 0.96725 0.85333 0.86493 0.0
H562 H 0.94624 0.8617 0.84269 0.0
H563 H 0.92781 0.81757 0.89982 0.0
H564 H 0.91657 0.84465 0.894 0.0
H565 H 0.94586 0.84127 0.90191 0.0
H566 H 0.90656 0.91328 0.88343 0.0
C567 C 0.90733 0.87975 0.86513 0.0
H568 H 0.20812 0.88538 0.14379 0.0
H569 H 0.20385 0.92142 0.17054 0.0
H570 H 0.14309 0.93901 0.13201 0.0
H571 H 0.14716 0.90341 0.1053 0.0
H572 H 0.20033 0.96747 0.14986 0.0
H573 H 0.12524 0.94674 0.21283 0.0
H574 H 0.14409 0.92522 0.19568 0.0
H575 H 0.12276 0.9398 0.17847 0.0
C576 C 0.19383 0.89692 0.1411 0.0
C577 C 0.17802 0.89157 0.12235 0.0
C578 C 0.19144 0.91745 0.15637 0.0
C579 C 0.17302 0.93265 0.15339 0.0
C580 C 0.15725 0.92732 0.1348 0.0
H581 H 0.13634 0.07136 0.17134 0.0
H582 H 0.15156 0.03298 0.15855 0.0
C583 C 0.15971 0.90702 0.11943 0.0
C584 C 0.17037 0.95463 0.16882 0.0
H585 H 0.13219 0.98628 0.20979 0.0
C586 C 0.18571 0.97152 0.1634 0.0
C587 C 0.15143 0.95972 0.18666 0.0
C588 C 0.13502 0.94187 0.194 0.0
C589 C 0.18172 0.99386 0.17406 0.0
C590 C 0.16182 0.99934 0.1903 0.0
C591 C 0.14734 0.98208 0.19713 0.0
C592 C 0.15453 0.02311 0.19835 0.0
C593 C 0.1985 0.01153 0.1673 0.0
C594 C 0.1509 0.03018 0.22498 0.0
C595 C 0.14205 0.0521 0.23235 0.0
C596 C 0.13639 0.06715 0.21317 0.0
C597 C 0.14035 0.06007 0.18654 0.0
C598 C 0.14931 0.03826 0.17921 0.0
H599 H 0.21566 0.00367 0.1618 0.0
H600 H 0.19276 0.02057 0.15027 0.0
H601 H 0.19977 0.02423 0.18398 0.0
H602 H 0.1546 0.01862 0.24003 0.0
H603 H 0.13898 0.05702 0.25302 0.0
H604 H 0.64907 0.69581 0.63958 0.0
H605 H 0.63347 0.69355 0.68482 0.0
H606 H 0.60444 0.62976 0.6633 0.0
H607 H 0.61983 0.63183 0.61826 0.0
H608 H 0.5862 0.69105 0.69899 0.0
H609 H 0.63566 0.61741 0.73173 0.0
H610 H 0.64521 0.63333 0.70432 0.0
H611 H 0.62464 0.61194 0.70009 0.0
C612 C 0.63961 0.68116 0.64458 0.0
C613 C 0.63559 0.66404 0.62529 0.0
C614 C 0.63074 0.67991 0.67041 0.0
C615 C 0.6181 0.66134 0.67744 0.0
C616 C 0.61453 0.64402 0.65838 0.0
H617 H 0.50701 0.62898 0.76879 0.0
H618 H 0.53595 0.64304 0.73851 0.0
C619 C 0.62317 0.64534 0.63258 0.0
C620 C 0.60674 0.66078 0.70393 0.0
H621 H 0.59882 0.62587 0.75424 0.0
C622 C 0.58934 0.67714 0.71145 0.0
C623 C 0.61104 0.64281 0.72031 0.0
C624 C 0.63032 0.62549 0.71385 0.0
C625 C 0.57486 0.67487 0.73379 0.0
C626 C 0.57789 0.65575 0.7488 0.0
C627 C 0.59647 0.64046 0.74257 0.0
C628 C 0.56003 0.64938 0.76812 0.0
C629 C 0.55571 0.69228 0.74044 0.0
C630 C 0.56406 0.64827 0.79483 0.0
C631 C 0.54739 0.64035 0.81228 0.0
C632 C 0.52682 0.63298 0.80299 0.0
C633 C 0.52281 0.63445 0.77635 0.0
C634 C 0.53923 0.64261 0.75911 0.0
H635 H 0.55946 0.70881 0.73217 0.0
H636 H 0.54002 0.68615 0.73194 0.0
H637 H 0.55236 0.69495 0.76201 0.0
H638 H 0.58014 0.65325 0.80203 0.0
H639 H 0.55082 0.63926 0.83276 0.0
H640 H 0.76167 0.13822 0.05416 0.0
H641 H 0.74559 0.1155 0.08864 0.0
H642 H 0.81239 0.10473 0.11701 0.0
H643 H 0.82831 0.12811 0.08348 0.0
H644 H 0.75285 0.07299 0.09368 0.0
H645 H 0.77746 0.11607 0.18514 0.0
H646 H 0.77931 0.12954 0.15433 0.0
H647 H 0.80233 0.11116 0.16352 0.0
C648 C 0.77283 0.13137 0.06811 0.0
C649 C 0.79627 0.13493 0.06607 0.0
C650 C 0.76361 0.11841 0.08782 0.0
C651 C 0.77767 0.10867 0.10577 0.0
C652 C 0.80101 0.11265 0.10404 0.0
H653 H 0.78545 0.98098 0.16202 0.0
H654 H 0.77908 0.0144 0.13744 0.0
C655 C 0.81016 0.12587 0.08464 0.0
C656 C 0.7687 0.09221 0.12426 0.0
H657 H 0.77446 0.0747 0.186 0.0
C658 C 0.75708 0.07369 0.11406 0.0
C659 C 0.77346 0.09329 0.1511 0.0
C660 C 0.78358 0.11377 0.16416 0.0
C661 C 0.75205 0.05532 0.12927 0.0
C662 C 0.75953 0.05511 0.15505 0.0
C663 C 0.76916 0.07456 0.16604 0.0
C664 C 0.7605 0.03401 0.16945 0.0
C665 C 0.73938 0.03604 0.11722 0.0
C666 C 0.75241 0.03385 0.19584 0.0
C667 C 0.75651 0.01476 0.21021 0.0
C668 C 0.76893 0.99565 0.19844 0.0
C669 C 0.77607 0.99555 0.17174 0.0
C670 C 0.77211 0.01456 0.15751 0.0
H671 H 0.72704 0.04244 0.10349 0.0
H672 H 0.75162 0.02407 0.10569 0.0
H673 H 0.73009 0.02666 0.13237 0.0
H674 H 0.74358 0.04874 0.20552 0.0
H675 H 0.75094 0.01538 0.2308 0.0
H676 H 0.41721 0.34084 0.56638 0.0
H677 H 0.45503 0.32589 0.57494 0.0
H678 H 0.43579 0.25816 0.55229 0.0
H679 H 0.39753 0.27294 0.54451 0.0
H680 H 0.46122 0.25806 0.59426 0.0
H681 H 0.50313 0.3074 0.51812 0.0
H682 H 0.48654 0.32559 0.54183 0.0
H683 H 0.47273 0.30515 0.52137 0.0
C684 C 0.421 0.32275 0.56327 0.0
C685 C 0.40449 0.30811 0.55444 0.0
C686 C 0.44267 0.31424 0.56804 0.0
C687 C 0.44845 0.291 0.56352 0.0
C688 C 0.43176 0.27619 0.55565 0.0
H689 H 0.59356 0.25525 0.55431 0.0
H690 H 0.55358 0.25643 0.54376 0.0
C691 C 0.40992 0.28466 0.55122 0.0
C692 C 0.47201 0.28235 0.56677 0.0
H693 H 0.52725 0.29196 0.54933 0.0
C694 C 0.47569 0.26525 0.58421 0.0
C695 C 0.49086 0.29127 0.55312 0.0
C696 C 0.48812 0.30817 0.53235 0.0
C697 C 0.49777 0.25762 0.58931 0.0
C698 C 0.51664 0.26785 0.57719 0.0
C699 C 0.51287 0.28422 0.55888 0.0
C700 C 0.54041 0.26294 0.58404 0.0
C701 C 0.50056 0.23862 0.6075 0.0
C702 C 0.54635 0.26557 0.61022 0.0
C703 C 0.56913 0.26439 0.61627 0.0
C704 C 0.5864 0.26113 0.59619 0.0
C705 C 0.58049 0.25772 0.57011 0.0
C706 C 0.55769 0.25845 0.56411 0.0
H707 H 0.48596 0.22732 0.60698 0.0
H708 H 0.51644 0.22821 0.60235 0.0
H709 H 0.50111 0.24593 0.62792 0.0
H710 H 0.53349 0.26976 0.62589 0.0
H711 H 0.57331 0.26748 0.63648 0.0
H712 H 0.64227 0.59858 0.48223 0.0
H713 H 0.634 0.58225 0.4392 0.0
H714 H 0.66453 0.63857 0.40261 0.0
H715 H 0.67358 0.65475 0.44582 0.0
H716 H 0.60735 0.59949 0.40438 0.0
H717 H 0.69511 0.5853 0.35939 0.0
H718 H 0.68931 0.59231 0.39399 0.0
H719 H 0.68765 0.61407 0.37093 0.0
C720 C 0.64737 0.60747 0.46505 0.0
C721 C 0.65865 0.62793 0.46743 0.0
C722 C 0.64262 0.59811 0.44044 0.0
C723 C 0.64886 0.60904 0.41763 0.0
C724 C 0.66002 0.62956 0.41988 0.0
H725 H 0.5844 0.55682 0.27703 0.0
H726 H 0.59866 0.58438 0.30917 0.0
C727 C 0.66506 0.63885 0.44458 0.0
C728 C 0.6428 0.59905 0.39182 0.0
H729 H 0.66515 0.57563 0.33283 0.0
C730 C 0.61996 0.59441 0.38864 0.0
C731 C 0.65932 0.59236 0.37139 0.0
C732 C 0.68425 0.59606 0.37406 0.0
C733 C 0.61325 0.58246 0.36611 0.0
C734 C 0.62975 0.57571 0.34564 0.0
C735 C 0.65251 0.58103 0.34841 0.0
C736 C 0.62405 0.56101 0.32264 0.0
C737 C 0.58875 0.57611 0.36522 0.0
C738 C 0.63472 0.53934 0.31819 0.0
C739 C 0.62698 0.52383 0.29946 0.0
C740 C 0.60831 0.52967 0.28502 0.0
C741 C 0.59866 0.55187 0.28817 0.0
C742 C 0.60669 0.56753 0.3066 0.0
H743 H 0.5797 0.57787 0.38494 0.0
H744 H 0.5798 0.58751 0.35232 0.0
H745 H 0.58752 0.55834 0.35725 0.0
H746 H 0.6482 0.53396 0.33025 0.0
H747 H 0.63462 0.50678 0.29753 0.0
H748 H 0.90098 0.20891 0.96626 0.0
H749 H 0.93686 0.20582 0.93947 0.0
H750 H 0.93041 0.1335 0.92816 0.0
H751 H 0.89459 0.13633 0.95484 0.0
H752 H 0.97635 0.17756 0.95016 0.0
H753 H 0.94331 0.15557 0.85289 0.0
H754 H 0.92565 0.16885 0.88001 0.0
H755 H 0.93283 0.13895 0.87898 0.0
C756 C 0.90711 0.19235 0.95794 0.0
C757 C 0.89494 0.17285 0.96274 0.0
C758 C 0.9276 0.19065 0.94266 0.0
C759 C 0.93608 0.16949 0.93162 0.0
C760 C 0.92393 0.15004 0.93619 0.0
H761 H 0.05366 0.10808 0.84737 0.0
H762 H 0.01625 0.11903 0.86811 0.0
C763 C 0.90355 0.15168 0.9516 0.0
C764 C 0.95822 0.16744 0.91642 0.0
H765 H 0.98321 0.15025 0.85634 0.0
C766 C 0.97791 0.17188 0.92956 0.0
C767 C 0.96007 0.15999 0.8896 0.0
C768 C 0.93935 0.15573 0.87441 0.0
C769 C 0.99957 0.16807 0.91687 0.0
C770 C 0.00147 0.16014 0.89014 0.0
C771 C 0.9817 0.15634 0.87682 0.0
C772 C 0.02381 0.15421 0.87618 0.0
C773 C 0.02018 0.17153 0.93254 0.0
C774 C 0.04032 0.17049 0.87326 0.0
C775 C 0.06189 0.16421 0.86171 0.0
C776 C 0.06723 0.14155 0.85269 0.0
C777 C 0.05028 0.12555 0.85463 0.0
C778 C 0.02881 0.13182 0.86627 0.0
H779 H 0.01579 0.17249 0.95401 0.0
H780 H 0.03318 0.15755 0.92786 0.0
H781 H 0.02783 0.18771 0.92755 0.0
H782 H 0.03664 0.18798 0.88028 0.0
H783 H 0.07456 0.17694 0.8606 0.0
H784 H 0.27065 0.39276 0.52453 0.0
H785 H 0.25456 0.42942 0.51262 0.0
H786 H 0.31911 0.45947 0.52266 0.0
H787 H 0.33538 0.4231 0.5342 0.0
H788 H 0.25111 0.47117 0.54199 0.0
H789 H 0.30348 0.47731 0.44962 0.0
H790 H 0.3009 0.45103 0.46572 0.0
H791 H 0.32044 0.47168 0.4767 0.0
C792 C 0.28145 0.40716 0.52407 0.0
C793 C 0.30434 0.40496 0.53025 0.0
C794 C 0.27221 0.42807 0.51729 0.0
C795 C 0.28575 0.44704 0.51637 0.0
C796 C 0.3085 0.44492 0.52271 0.0
H797 H 0.26416 0.58935 0.53357 0.0
H798 H 0.26528 0.54864 0.53942 0.0
C799 C 0.31774 0.42411 0.52946 0.0
C800 C 0.27619 0.46934 0.50953 0.0
H801 H 0.28627 0.51227 0.46922 0.0
C802 C 0.2585 0.48006 0.52582 0.0
C803 C 0.28552 0.48071 0.48811 0.0
C804 C 0.30347 0.46949 0.46887 0.0
C805 C 0.25087 0.50243 0.5222 0.0
C806 C 0.26151 0.51445 0.50207 0.0
C807 C 0.27823 0.50319 0.48483 0.0
C808 C 0.25709 0.53913 0.49965 0.0
C809 C 0.23169 0.51304 0.54017 0.0
C810 C 0.25205 0.54742 0.47538 0.0
C811 C 0.25187 0.57071 0.47182 0.0
C812 C 0.25681 0.58617 0.49248 0.0
C813 C 0.26056 0.57789 0.51718 0.0
C814 C 0.26088 0.5546 0.52066 0.0
H815 H 0.22035 0.49993 0.54751 0.0
H816 H 0.23884 0.52176 0.55743 0.0
H817 H 0.2214 0.52567 0.53013 0.0
H818 H 0.24922 0.53578 0.45885 0.0
H819 H 0.24919 0.57643 0.45246 0.0
H820 H 0.13689 0.75646 0.03401 0.0
H821 H 0.11401 0.7413 0.99878 0.0
H822 H 0.10764 0.80803 0.96923 0.0
H823 H 0.12999 0.82328 0.00433 0.0
H824 H 0.06708 0.76169 0.99199 0.0
H825 H 0.12547 0.76265 0.90323 0.0
H826 H 0.13538 0.76043 0.93585 0.0
H827 H 0.12582 0.78749 0.92524 0.0
C828 C 0.13091 0.76776 0.0197 0.0
C829 C 0.13507 0.79107 0.02196 0.0
C830 C 0.11787 0.7591 0.99966 0.0
C831 C 0.10939 0.77354 0.98132 0.0
C832 C 0.11431 0.79658 0.983 0.0
H833 H 0.01927 0.80381 0.87029 0.0
H834 H 0.05135 0.7964 0.89689 0.0
C835 C 0.12693 0.80528 0.00317 0.0
C836 C 0.0934 0.76554 0.96195 0.0
H837 H 0.08554 0.76406 0.89636 0.0
C838 C 0.07114 0.76153 0.97102 0.0
C839 C 0.09888 0.76547 0.93472 0.0
C840 C 0.12275 0.76905 0.92408 0.0
C841 C 0.0537 0.75941 0.95361 0.0
C842 C 0.0589 0.76075 0.92636 0.0
C843 C 0.08155 0.76306 0.91723 0.0
C844 C 0.04079 0.76333 0.90766 0.0
C845 C 0.02963 0.75765 0.96477 0.0
C846 C 0.02453 0.74687 0.90408 0.0
C847 C 0.00585 0.75126 0.88915 0.0
C848 C 0.00328 0.77211 0.87742 0.0
C849 C 0.02045 0.78782 0.87959 0.0
C850 C 0.03893 0.78351 0.8946 0.0
H851 H 0.02813 0.76089 0.98643 0.0
H852 H 0.018 0.76993 0.95597 0.0
H853 H 0.02386 0.7403 0.96014 0.0
H854 H 0.02589 0.73095 0.9135 0.0
H855 H 0.99294 0.73878 0.88779 0.0
H856 H 0.85158 0.09222 0.98416 0.0
H857 H 0.85491 0.0561 0.95863 0.0
H858 H 0.80201 0.07863 0.91023 0.0
H859 H 0.79864 0.11532 0.93569 0.0
H860 H 0.8204 0.02505 0.95204 0.0
H861 H 0.85471 0.05517 0.85701 0.0
H862 H 0.85487 0.07226 0.88743 0.0
H863 H 0.82884 0.06893 0.87145 0.0
C864 C 0.84061 0.08964 0.96808 0.0
C865 C 0.82477 0.10669 0.96204 0.0
C866 C 0.84256 0.06893 0.95351 0.0
C867 C 0.8288 0.06474 0.9325 0.0
C868 C 0.81298 0.08166 0.92621 0.0
H869 H 0.83294 0.92238 0.86977 0.0
H870 H 0.8174 0.96052 0.88374 0.0
C871 C 0.81102 0.10255 0.94083 0.0
C872 C 0.83107 0.04232 0.91784 0.0
H873 H 0.85186 0.01577 0.85982 0.0
C874 C 0.82694 0.02296 0.93174 0.0
C875 C 0.83975 0.03978 0.89144 0.0
C876 C 0.84498 0.06007 0.87587 0.0
C877 C 0.83219 0.00108 0.92036 0.0
C878 C 0.84139 0.9985 0.89413 0.0
C879 C 0.84467 0.01784 0.87986 0.0
C880 C 0.84999 0.97607 0.8823 0.0
C881 C 0.82909 0.981 0.93702 0.0
C882 C 0.8733 0.97242 0.87571 0.0
C883 C 0.88218 0.95078 0.8674 0.0
C884 C 0.86792 0.9323 0.86555 0.0
C885 C 0.84439 0.93623 0.87094 0.0
C886 C 0.8355 0.95797 0.87916 0.0
H887 H 0.82607 0.98627 0.95818 0.0
H888 H 0.81422 0.97164 0.93075 0.0
H889 H 0.84426 0.96916 0.9346 0.0
H890 H 0.88477 0.9862 0.87785 0.0
H891 H 0.9003 0.94844 0.86284 0.0
H892 H 0.38546 0.31174 0.45734 0.0
H893 H 0.40373 0.3192 0.4147 0.0
H894 H 0.37644 0.38827 0.423 0.0
H895 H 0.35873 0.38118 0.46596 0.0
H896 H 0.38834 0.33322 0.36867 0.0
H897 H 0.4436 0.39741 0.41206 0.0
H898 H 0.42689 0.37919 0.43186 0.0
H899 H 0.41391 0.40407 0.41923 0.0
C900 C 0.38327 0.3285 0.45004 0.0
C901 C 0.37096 0.34598 0.46521 0.0
C902 C 0.39369 0.33272 0.42565 0.0
C903 C 0.39187 0.35442 0.41594 0.0
C904 C 0.37861 0.37157 0.43044 0.0
H905 H 0.45346 0.41514 0.28028 0.0
H906 H 0.42645 0.40506 0.31537 0.0
C907 C 0.36843 0.36746 0.45495 0.0
C908 C 0.40448 0.35934 0.39112 0.0
H909 H 0.44452 0.39344 0.36571 0.0
C910 C 0.40063 0.34637 0.368 0.0
C911 C 0.42066 0.37639 0.39034 0.0
C912 C 0.42671 0.38991 0.41473 0.0
C913 C 0.41237 0.35022 0.34407 0.0
C914 C 0.42828 0.36743 0.34334 0.0
C915 C 0.43206 0.38042 0.36636 0.0
C916 C 0.44209 0.37178 0.31924 0.0
C917 C 0.40763 0.33604 0.31969 0.0
C918 C 0.4595 0.35618 0.3095 0.0
C919 C 0.47515 0.36199 0.28968 0.0
C920 C 0.47365 0.38354 0.27933 0.0
C921 C 0.45531 0.39856 0.28811 0.0
C922 C 0.43978 0.39279 0.30802 0.0
H923 H 0.39192 0.32647 0.32242 0.0
H924 H 0.40597 0.34691 0.30284 0.0
H925 H 0.42208 0.32365 0.31469 0.0
H926 H 0.46175 0.34002 0.31822 0.0
H927 H 0.48921 0.35013 0.28368 0.0
H928 H 0.23573 0.87021 0.03315 0.0
H929 H 0.24858 0.89291 0.997 0.0
H930 H 0.18698 0.8799 0.9584 0.0
H931 H 0.17412 0.85696 0.99409 0.0
H932 H 0.22714 0.87892 0.92375 0.0
H933 H 0.21798 0.95639 0.99185 0.0
H934 H 0.23646 0.93359 0.00089 0.0
H935 H 0.20646 0.92978 0.00041 0.0
C936 C 0.22504 0.87192 0.0168 0.0
C937 C 0.2037 0.86207 0.01674 0.0
C938 C 0.23241 0.88493 0.99621 0.0
C939 C 0.21855 0.88836 0.97529 0.0
C940 C 0.19789 0.8775 0.97443 0.0
H941 H 0.18287 0.96921 0.85627 0.0
H942 H 0.19398 0.93753 0.88192 0.0
C943 C 0.19052 0.86447 0.99494 0.0
C944 C 0.22434 0.90477 0.95539 0.0
H945 H 0.22524 0.96166 0.94735 0.0
C946 C 0.22714 0.897 0.92889 0.0
C947 C 0.22449 0.92832 0.96219 0.0
C948 C 0.22106 0.93766 0.99032 0.0
C949 C 0.22903 0.91228 0.90891 0.0
C950 C 0.22765 0.93589 0.91565 0.0
C951 C 0.22634 0.94355 0.94221 0.0
C952 C 0.22405 0.95293 0.89595 0.0
C953 C 0.2319 0.903 0.88077 0.0
C954 C 0.23737 0.9721 0.89499 0.0
C955 C 0.23087 0.99041 0.88047 0.0
C956 C 0.2108 0.98989 0.867 0.0
C957 C 0.19834 0.9701 0.86664 0.0
C958 C 0.20484 0.95186 0.88105 0.0
H959 H 0.24118 0.88619 0.87923 0.0
H960 H 0.2149 0.9006 0.8731 0.0
H961 H 0.2412 0.91472 0.86822 0.0
H962 H 0.25213 0.97336 0.90653 0.0
H963 H 0.24068 0.00552 0.88122 0.0
H964 H 0.595 0.72004 0.55919 0.0
H965 H 0.55527 0.73124 0.55342 0.0
H966 H 0.54902 0.67141 0.50239 0.0
H967 H 0.58853 0.65996 0.50809 0.0
H968 H 0.53024 0.73804 0.50656 0.0
H969 H 0.5002 0.66677 0.56375 0.0
H970 H 0.5289 0.6762 0.56424 0.0
H971 H 0.52051 0.65843 0.53707 0.0
C972 C 0.58525 0.70936 0.54654 0.0
C973 C 0.59488 0.68892 0.5344 0.0
C974 C 0.56257 0.71583 0.54324 0.0
C975 C 0.54918 0.70196 0.52783 0.0
C976 C 0.55902 0.68215 0.51471 0.0
H977 H 0.4177 0.71738 0.46656 0.0
H978 H 0.45816 0.71896 0.47395 0.0
C979 C 0.58163 0.67566 0.51798 0.0
C980 C 0.52461 0.70743 0.52646 0.0
H981 H 0.47259 0.68668 0.54092 0.0
C982 C 0.51757 0.72696 0.51423 0.0
C983 C 0.50818 0.69313 0.53691 0.0
C984 C 0.51474 0.67256 0.55146 0.0
C985 C 0.49441 0.73211 0.51133 0.0
C986 C 0.47804 0.71718 0.52067 0.0
C987 C 0.48514 0.69808 0.53367 0.0
C988 C 0.45351 0.72022 0.51632 0.0
C989 C 0.48771 0.75347 0.49838 0.0
C990 C 0.4374 0.72062 0.53766 0.0
C991 C 0.41428 0.71953 0.53347 0.0
C992 C 0.40685 0.718 0.50783 0.0
C993 C 0.42289 0.71886 0.48653 0.0
C994 C 0.44604 0.71982 0.49074 0.0
H995 H 0.50096 0.76625 0.49982 0.0
H996 H 0.48559 0.74927 0.47726 0.0
H997 H 0.47138 0.76116 0.50731 0.0
H998 H 0.44279 0.72089 0.55756 0.0
H999 H 0.40228 0.71911 0.55025 0.0
H1000 H 0.37815 0.36929 0.61747 0.0
H1001 H 0.38296 0.38794 0.66039 0.0
H1002 H 0.31023 0.39508 0.67482 0.0
H1003 H 0.30519 0.37669 0.63154 0.0
H1004 H 0.33046 0.4348 0.6829 0.0
H1005 H 0.37554 0.36906 0.73504 0.0
H1006 H 0.38921 0.37222 0.70331 0.0
H1007 H 0.36068 0.36242 0.70583 0.0
C1008 C 0.36313 0.37452 0.62986 0.0
C1009 C 0.34127 0.37165 0.62095 0.0
C1010 C 0.36592 0.38498 0.65456 0.0
C1011 C 0.34696 0.39257 0.671 0.0
C1012 C 0.32509 0.38916 0.66252 0.0
H1013 H 0.37958 0.46761 0.81828 0.0
H1014 H 0.36033 0.44029 0.78988 0.0
C1015 C 0.32226 0.37869 0.63776 0.0
C1016 C 0.3502 0.40637 0.69552 0.0
H1017 H 0.38185 0.40831 0.74932 0.0
C1018 C 0.34123 0.42882 0.69777 0.0
C1019 C 0.36394 0.39851 0.71517 0.0
C1020 C 0.37267 0.37414 0.71487 0.0
C1021 C 0.34719 0.44411 0.71795 0.0
C1022 C 0.3627 0.43681 0.73607 0.0
C1023 C 0.37018 0.41392 0.73516 0.0
C1024 C 0.37361 0.45328 0.75365 0.0
C1025 C 0.33758 0.46823 0.71907 0.0
C1026 C 0.38757 0.46928 0.74259 0.0
C1027 C 0.39855 0.48467 0.75858 0.0
C1028 C 0.39589 0.48432 0.78604 0.0
C1029 C 0.38184 0.46828 0.79718 0.0
C1030 C 0.37092 0.45269 0.78105 0.0
H1031 H 0.32114 0.46932 0.70959 0.0
H1032 H 0.33502 0.47537 0.73964 0.0
H1033 H 0.34966 0.47887 0.70838 0.0
H1034 H 0.39011 0.46978 0.72148 0.0
H1035 H 0.40898 0.49703 0.74941 0.0
H1036 H 0.10301 0.791 0.12596 0.0
H1037 H 0.06706 0.79541 0.15259 0.0
H1038 H 0.07185 0.86816 0.15544 0.0
H1039 H 0.10775 0.86403 0.12913 0.0
H1040 H 0.05876 0.84951 0.20483 0.0
H1041 H 0.00723 0.81942 0.1228 0.0
H1042 H 0.03068 0.80112 0.13057 0.0
H1043 H 0.03604 0.82803 0.11737 0.0
C1044 C 0.09646 0.80794 0.13234 0.0
C1045 C 0.10814 0.82718 0.12516 0.0
C1046 C 0.07591 0.81041 0.14749 0.0
C1047 C 0.06673 0.83211 0.15567 0.0
C1048 C 0.07866 0.85127 0.14922 0.0
H1049 H 0.95032 0.9053 0.2247 0.0
H1050 H 0.98834 0.89034 0.20999 0.0
C1051 C 0.09913 0.84885 0.13408 0.0
C1052 C 0.04432 0.83516 0.17022 0.0
H1053 H 0.98751 0.83191 0.16245 0.0
C1054 C 0.04316 0.84544 0.19572 0.0
C1055 C 0.02406 0.8297 0.15829 0.0
C1056 C 0.02438 0.81908 0.1307 0.0
C1057 C 0.02219 0.85096 0.20939 0.0
C1058 C 0.00191 0.8465 0.19697 0.0
C1059 C 0.0031 0.83532 0.17192 0.0
C1060 C 0.97937 0.85512 0.20843 0.0
C1061 C 0.02195 0.86175 0.23687 0.0
C1062 C 0.96161 0.84031 0.21218 0.0
C1063 C 0.93973 0.84886 0.22029 0.0
C1064 C 0.93523 0.8724 0.22449 0.0
C1065 C 0.9532 0.88711 0.22136 0.0
C1066 C 0.97502 0.87856 0.2133 0.0
H1067 H 0.03771 0.85705 0.24653 0.0
H1068 H 0.02101 0.88049 0.23601 0.0
H1069 H 0.00708 0.85667 0.24913 0.0
H1070 H 0.96458 0.82217 0.20827 0.0
H1071 H 0.92618 0.83713 0.22227 0.0
H1072 H 0.72236 0.59433 0.5289 0.0
H1073 H 0.73393 0.55466 0.53419 0.0
H1074 H 0.67839 0.54961 0.5918 0.0
H1075 H 0.66659 0.58915 0.58669 0.0
H1076 H 0.74388 0.52922 0.58115 0.0
H1077 H 0.6682 0.50167 0.52997 0.0
H1078 H 0.67853 0.52997 0.52849 0.0
H1079 H 0.66232 0.52216 0.55714 0.0
C1080 C 0.71277 0.5849 0.54298 0.0
C1081 C 0.69333 0.59484 0.55709 0.0
C1082 C 0.71945 0.56226 0.54599 0.0
C1083 C 0.7068 0.54921 0.56309 0.0
C1084 C 0.68819 0.5594 0.57826 0.0
H1085 H 0.72309 0.41623 0.61955 0.0
H1086 H 0.72496 0.45678 0.61314 0.0
C1087 C 0.6815 0.582 0.57532 0.0
C1088 C 0.71194 0.52455 0.56371 0.0
H1089 H 0.68963 0.47322 0.54958 0.0
C1090 C 0.73214 0.5169 0.57413 0.0
C1091 C 0.69675 0.50861 0.55407 0.0
C1092 C 0.67531 0.51592 0.54156 0.0
C1093 C 0.73717 0.4936 0.57599 0.0
C1094 C 0.72147 0.4777 0.56739 0.0
C1095 C 0.70164 0.48542 0.55622 0.0
C1096 C 0.72446 0.45304 0.57083 0.0
C1097 C 0.75922 0.48619 0.58705 0.0
C1098 C 0.7238 0.43742 0.54916 0.0
C1099 C 0.72263 0.41422 0.55278 0.0
C1100 C 0.722 0.40623 0.57817 0.0
C1101 C 0.72389 0.4218 0.59972 0.0
C1102 C 0.72499 0.44501 0.59609 0.0
H1103 H 0.77207 0.49935 0.58527 0.0
H1104 H 0.75611 0.48338 0.6082 0.0
H1105 H 0.7663 0.47007 0.57698 0.0
H1106 H 0.72331 0.44328 0.52951 0.0
H1107 H 0.72142 0.4026 0.53579 0.0
H1108 H 0.87119 0.17402 0.08248 0.0
H1109 H 0.89286 0.18918 0.11823 0.0
H1110 H 0.88426 0.25656 0.091 0.0
H1111 H 0.86212 0.24147 0.0551 0.0
H1112 H 0.93124 0.23884 0.09727 0.0
H1113 H 0.87411 0.23119 0.18578 0.0
H1114 H 0.87511 0.20674 0.16307 0.0
H1115 H 0.86379 0.23349 0.15338 0.0
C1116 C 0.87359 0.19212 0.0843 0.0
C1117 C 0.86507 0.20655 0.06595 0.0
C1118 C 0.88582 0.20078 0.10485 0.0
C1119 C 0.88993 0.224 0.10738 0.0
C1120 C 0.88103 0.23862 0.08948 0.0
H1121 H 0.00528 0.25931 0.20285 0.0
H1122 H 0.97182 0.26742 0.17796 0.0
C1123 C 0.86841 0.22999 0.06906 0.0
C1124 C 0.90562 0.23207 0.12706 0.0
H1125 H 0.91424 0.23076 0.1923 0.0
C1126 C 0.92745 0.23777 0.11816 0.0
C1127 C 0.90049 0.23062 0.1542 0.0
C1128 C 0.87702 0.22538 0.16476 0.0
C1129 C 0.94495 0.23996 0.13549 0.0
C1130 C 0.94022 0.23691 0.1625 0.0
C1131 C 0.91787 0.23304 0.17161 0.0
C1132 C 0.95869 0.23386 0.18062 0.0
C1133 C 0.9687 0.24361 0.12439 0.0
C1134 C 0.96174 0.21277 0.1915 0.0
C1135 C 0.98052 0.20825 0.20594 0.0
C1136 C 0.99679 0.22468 0.20973 0.0
C1137 C 0.99307 0.24629 0.20016 0.0
C1138 C 0.9741 0.25087 0.18574 0.0
H1139 H 0.97002 0.24202 0.1026 0.0
H1140 H 0.97369 0.2609 0.13072 0.0
H1141 H 0.98102 0.23116 0.13178 0.0
H1142 H 0.95001 0.19943 0.18797 0.0
H1143 H 0.98262 0.19161 0.21358 0.0
H1144 H 0.23224 0.8161 0.15509 0.0
H1145 H 0.24322 0.80651 0.19855 0.0
H1146 H 0.17923 0.77525 0.21264 0.0
H1147 H 0.16787 0.78506 0.16931 0.0
H1148 H 0.19222 0.80245 0.25569 0.0
H1149 H 0.26199 0.74188 0.21633 0.0
H1150 H 0.26378 0.76985 0.20452 0.0
H1151 H 0.24046 0.75271 0.19612 0.0
C1152 C 0.22045 0.80721 0.1674 0.0
C1153 C 0.19927 0.80111 0.15857 0.0
C1154 C 0.22681 0.80169 0.19221 0.0
C1155 C 0.2122 0.78983 0.20858 0.0
C1156 C 0.19079 0.7843 0.2002 0.0
H1157 H 0.25117 0.71431 0.33958 0.0
H1158 H 0.23635 0.72711 0.29916 0.0
C1159 C 0.18436 0.78987 0.17541 0.0
C1160 C 0.21945 0.78278 0.23423 0.0
H1161 H 0.25945 0.75038 0.26226 0.0
C1162 C 0.20689 0.79104 0.25719 0.0
C1163 C 0.23842 0.76766 0.23602 0.0
C1164 C 0.25184 0.75731 0.21195 0.0
C1165 C 0.21299 0.78478 0.282 0.0
C1166 C 0.23233 0.77015 0.28381 0.0
C1167 C 0.24473 0.76174 0.26081 0.0
C1168 C 0.23982 0.76283 0.30927 0.0
C1169 C 0.19843 0.79349 0.30597 0.0
C1170 C 0.24664 0.7787 0.32843 0.0
C1171 C 0.25491 0.77145 0.35177 0.0
C1172 C 0.25666 0.74817 0.35626 0.0
C1173 C 0.24967 0.73238 0.33703 0.0
C1174 C 0.24136 0.73964 0.31379 0.0
H1175 H 0.18129 0.79957 0.30081 0.0
H1176 H 0.19646 0.78009 0.3202 0.0
H1177 H 0.20669 0.80796 0.31577 0.0
H1178 H 0.24599 0.79666 0.32512 0.0
H1179 H 0.26002 0.78405 0.36624 0.0
H1180 H 0.7124 0.72302 0.59533 0.0
H1181 H 0.74143 0.73202 0.62595 0.0
H1182 H 0.7705 0.66384 0.61362 0.0
H1183 H 0.74145 0.65455 0.58284 0.0
H1184 H 0.7623 0.68034 0.66784 0.0
H1185 H 0.81023 0.74011 0.60837 0.0
H1186 H 0.78006 0.74598 0.61078 0.0
H1187 H 0.79145 0.71996 0.59424 0.0
C1188 C 0.72504 0.70994 0.59893 0.0
C1189 C 0.72467 0.68809 0.58652 0.0
C1190 C 0.74168 0.71516 0.61635 0.0
C1191 C 0.75824 0.69867 0.62173 0.0
C1192 C 0.75793 0.67682 0.60952 0.0
H1193 H 0.86831 0.74326 0.71806 0.0
H1194 H 0.84873 0.72162 0.68441 0.0
C1195 C 0.74136 0.67159 0.59191 0.0
C1196 C 0.77522 0.7042 0.641 0.0
H1197 H 0.81623 0.74153 0.65431 0.0
C1198 C 0.77437 0.69346 0.66477 0.0
C1199 C 0.79113 0.72106 0.63675 0.0
C1200 C 0.79349 0.73232 0.61105 0.0
C1201 C 0.78816 0.70011 0.68506 0.0
C1202 C 0.80297 0.71807 0.68145 0.0
C1203 C 0.80475 0.72786 0.6571 0.0
C1204 C 0.81519 0.7284 0.70329 0.0
C1205 C 0.78646 0.68819 0.71035 0.0
C1206 C 0.80282 0.73915 0.7251 0.0
C1207 C 0.8139 0.75149 0.74422 0.0
C1208 C 0.83758 0.75338 0.74185 0.0
C1209 C 0.85007 0.7419 0.7205 0.0
C1210 C 0.83892 0.72964 0.70124 0.0
H1211 H 0.78013 0.67083 0.70724 0.0
H1212 H 0.80317 0.68698 0.71922 0.0
H1213 H 0.77428 0.69796 0.72451 0.0
H1214 H 0.78446 0.73876 0.72681 0.0
H1215 H 0.80388 0.76003 0.76057 0.0
H1216 H 0.78838 0.25618 0.01447 0.0
H1217 H 0.76135 0.28416 0.03737 0.0
H1218 H 0.72697 0.23051 0.07478 0.0
H1219 H 0.75383 0.20238 0.05206 0.0
H1220 H 0.71088 0.28476 0.03645 0.0
H1221 H 0.74356 0.27697 0.13556 0.0
H1222 H 0.76025 0.268 0.10577 0.0
H1223 H 0.73793 0.25084 0.11772 0.0
C1224 C 0.77508 0.25031 0.02757 0.0
C1225 C 0.77329 0.22704 0.03146 0.0
C1226 C 0.75965 0.26631 0.04057 0.0
C1227 C 0.74236 0.25935 0.05787 0.0
C1228 C 0.74038 0.23618 0.06168 0.0
H1229 H 0.63938 0.33 0.16326 0.0
H1230 H 0.66413 0.30168 0.13773 0.0
C1231 C 0.7557 0.22015 0.04859 0.0
C1232 C 0.72628 0.27631 0.07194 0.0
H1233 H 0.71028 0.30005 0.13291 0.0
C1234 C 0.71074 0.28821 0.05753 0.0
C1235 C 0.72617 0.28059 0.0994 0.0
C1236 C 0.74295 0.26859 0.11561 0.0
C1237 C 0.69472 0.3041 0.06999 0.0
C1238 C 0.6947 0.30854 0.09749 0.0
C1239 C 0.71031 0.2966 0.11185 0.0
C1240 C 0.67878 0.32561 0.11183 0.0
C1241 C 0.67766 0.31557 0.05368 0.0
C1242 C 0.67881 0.34847 0.10573 0.0
C1243 C 0.66446 0.36467 0.12006 0.0
C1244 C 0.64999 0.35836 0.141 0.0
C1245 C 0.65 0.33541 0.147 0.0
C1246 C 0.66427 0.31921 0.13257 0.0
H1247 H 0.67567 0.30569 0.03486 0.0
H1248 H 0.66078 0.31792 0.06448 0.0
H1249 H 0.6836 0.33254 0.04897 0.0
H1250 H 0.6902 0.35388 0.09016 0.0
H1251 H 0.66475 0.38215 0.11476 0.0
H1252 H 0.32275 0.25253 0.56071 0.0
H1253 H 0.31241 0.22252 0.58987 0.0
H1254 H 0.29086 0.2732 0.65126 0.0
H1255 H 0.30096 0.30319 0.62252 0.0
H1256 H 0.32709 0.21438 0.64317 0.0
H1257 H 0.23455 0.23392 0.63976 0.0
H1258 H 0.25521 0.24331 0.61574 0.0
H1259 H 0.25099 0.25811 0.64746 0.0
C1260 C 0.31586 0.25728 0.58044 0.0
C1261 C 0.31242 0.28029 0.58915 0.0
C1262 C 0.31004 0.24012 0.59706 0.0
C1263 C 0.30061 0.24572 0.62252 0.0
C1264 C 0.29781 0.26858 0.63151 0.0
H1265 H 0.2429 0.18419 0.75618 0.0
H1266 H 0.25991 0.20868 0.72423 0.0
C1267 C 0.30362 0.2857 0.61502 0.0
C1268 C 0.29304 0.22787 0.63973 0.0
H1269 H 0.24589 0.20963 0.67252 0.0
C1270 C 0.30933 0.21309 0.64942 0.0
C1271 C 0.26986 0.22628 0.64768 0.0
C1272 C 0.25158 0.2411 0.63697 0.0
C1273 C 0.30307 0.19735 0.66785 0.0
C1274 C 0.27995 0.1963 0.67641 0.0
C1275 C 0.26364 0.21063 0.66606 0.0
C1276 C 0.27212 0.18106 0.69674 0.0
C1277 C 0.32125 0.18259 0.67876 0.0
C1278 C 0.27367 0.15739 0.69201 0.0
C1279 C 0.2639 0.14332 0.71026 0.0
C1280 C 0.25226 0.15277 0.73337 0.0
C1281 C 0.25148 0.17645 0.73839 0.0
C1282 C 0.26126 0.19044 0.72023 0.0
H1283 H 0.33854 0.18861 0.67413 0.0
H1284 H 0.31848 0.18211 0.70038 0.0
H1285 H 0.32049 0.16498 0.67012 0.0
H1286 H 0.28164 0.14984 0.67379 0.0
H1287 H 0.26456 0.12515 0.70574 0.0
H1288 H 0.71846 0.70506 0.47943 0.0
H1289 H 0.72703 0.73417 0.44891 0.0
H1290 H 0.66301 0.76946 0.47207 0.0
H1291 H 0.65433 0.74047 0.50314 0.0
H1292 H 0.70304 0.74822 0.40667 0.0
H1293 H 0.70989 0.8184 0.48297 0.0
H1294 H 0.70966 0.78899 0.49078 0.0
H1295 H 0.68375 0.80375 0.48374 0.0
C1296 C 0.70615 0.71899 0.47813 0.0
C1297 C 0.68579 0.72053 0.49395 0.0
C1298 C 0.71107 0.73558 0.46059 0.0
C1299 C 0.69578 0.75408 0.45847 0.0
C1300 C 0.6752 0.7555 0.47376 0.0
H1301 H 0.72986 0.84374 0.33087 0.0
H1302 H 0.70648 0.82189 0.36067 0.0
C1303 C 0.67025 0.73888 0.49141 0.0
C1304 C 0.70186 0.77186 0.44039 0.0
H1305 H 0.7182 0.82662 0.43915 0.0
C1306 C 0.70605 0.76548 0.41364 0.0
C1307 C 0.70586 0.79429 0.44968 0.0
C1308 C 0.70224 0.80185 0.47837 0.0
C1309 C 0.71506 0.78063 0.39606 0.0
C1310 C 0.71959 0.8029 0.40547 0.0
C1311 C 0.71453 0.80958 0.43202 0.0
C1312 C 0.73219 0.81846 0.38884 0.0
C1313 C 0.72086 0.77228 0.36792 0.0
C1314 C 0.75394 0.82458 0.39542 0.0
C1315 C 0.76718 0.8372 0.37866 0.0
C1316 C 0.75894 0.84395 0.35495 0.0
C1317 C 0.73668 0.83878 0.34901 0.0
C1318 C 0.72338 0.82614 0.36587 0.0
H1319 H 0.72002 0.75354 0.36503 0.0
H1320 H 0.70864 0.78018 0.35511 0.0
H1321 H 0.73818 0.77716 0.36145 0.0
H1322 H 0.761 0.81893 0.41314 0.0
H1323 H 0.78408 0.84131 0.38405 0.0
H1324 H 0.77035 0.19011 0.93036 0.0
H1325 H 0.76168 0.1999 0.88624 0.0
H1326 H 0.83122 0.2173 0.87044 0.0
H1327 H 0.83999 0.208 0.91483 0.0
H1328 H 0.80132 0.24969 0.85625 0.0
H1329 H 0.77705 0.1655 0.81648 0.0
H1330 H 0.76132 0.17439 0.84662 0.0
H1331 H 0.79158 0.16914 0.84644 0.0
C1332 C 0.78388 0.19586 0.91748 0.0
C1333 C 0.80587 0.1983 0.92617 0.0
C1334 C 0.77891 0.20128 0.89216 0.0
C1335 C 0.7959 0.20892 0.87488 0.0
C1336 C 0.8179 0.21128 0.88341 0.0
H1337 H 0.787 0.25843 0.7173 0.0
H1338 H 0.80157 0.24353 0.75707 0.0
C1339 C 0.82286 0.20599 0.9088 0.0
C1340 C 0.7903 0.21575 0.8485 0.0
H1341 H 0.76598 0.19749 0.79251 0.0
C1342 C 0.7939 0.2382 0.84216 0.0
C1343 C 0.78066 0.20069 0.83012 0.0
C1344 C 0.77764 0.17603 0.83513 0.0
C1345 C 0.78728 0.24624 0.81835 0.0
C1346 C 0.77696 0.23139 0.80042 0.0
C1347 C 0.77383 0.20882 0.80643 0.0
C1348 C 0.76835 0.23936 0.77585 0.0
C1349 C 0.79061 0.27077 0.81289 0.0
C1350 C 0.74489 0.24151 0.77316 0.0
C1351 C 0.7365 0.25019 0.75064 0.0
C1352 C 0.75146 0.25671 0.73026 0.0
C1353 C 0.77502 0.25394 0.73279 0.0
C1354 C 0.78338 0.24535 0.75542 0.0
H1355 H 0.79565 0.28086 0.83046 0.0
H1356 H 0.80415 0.27166 0.79704 0.0
H1357 H 0.77478 0.27864 0.80607 0.0
H1358 H 0.73306 0.23699 0.78881 0.0
H1359 H 0.71829 0.25238 0.74955 0.0
H1360 H 0.30321 0.30973 0.45888 0.0
H1361 H 0.27409 0.29855 0.42929 0.0
H1362 H 0.22401 0.30242 0.49444 0.0
H1363 H 0.25294 0.31418 0.52412 0.0
H1364 H 0.25115 0.26064 0.4314 0.0
H1365 H 0.19007 0.33477 0.43999 0.0
H1366 H 0.21834 0.33604 0.45156 0.0
H1367 H 0.19601 0.32413 0.47115 0.0
C1368 C 0.28595 0.30845 0.4669 0.0
C1369 C 0.28042 0.31271 0.49389 0.0
C1370 C 0.26931 0.30212 0.44994 0.0
C1371 C 0.24681 0.29991 0.45958 0.0
C1372 C 0.24113 0.30455 0.48644 0.0
H1373 H 0.15344 0.21024 0.38877 0.0
H1374 H 0.17706 0.23135 0.41855 0.0
C1375 C 0.25774 0.31108 0.50343 0.0
C1376 C 0.22991 0.29067 0.44195 0.0
H1377 H 0.17708 0.30039 0.4198 0.0
C1378 C 0.23504 0.26944 0.42873 0.0
C1379 C 0.20899 0.30226 0.43826 0.0
C1380 C 0.20309 0.32567 0.45078 0.0
C1381 C 0.21967 0.25925 0.41237 0.0
C1382 C 0.19831 0.27032 0.40965 0.0
C1383 C 0.19334 0.29182 0.42228 0.0
C1384 C 0.1811 0.25955 0.39373 0.0
C1385 C 0.22653 0.23676 0.39795 0.0
C1386 C 0.17452 0.26906 0.37067 0.0
C1387 C 0.16083 0.2571 0.35371 0.0
C1388 C 0.15367 0.23547 0.35964 0.0
C1389 C 0.15906 0.22673 0.38359 0.0
C1390 C 0.17254 0.23873 0.40056 0.0
H1391 H 0.24526 0.23362 0.39661 0.0
H1392 H 0.21887 0.22287 0.40868 0.0
H1393 H 0.22044 0.23599 0.3778 0.0
H1394 H 0.18089 0.28518 0.36516 0.0
H1395 H 0.15694 0.26417 0.33533 0.0
H1396 H 0.24745 0.79421 0.03182 0.0
H1397 H 0.27464 0.76548 0.01094 0.0
H1398 H 0.24108 0.71356 0.05254 0.0
H1399 H 0.21351 0.74207 0.07314 0.0
H1400 H 0.30455 0.73691 0.03381 0.0
H1401 H 0.24388 0.6873 0.97721 0.0
H1402 H 0.23652 0.71516 0.99243 0.0
H1403 H 0.23644 0.69069 0.01179 0.0
C1404 C 0.24577 0.77667 0.03647 0.0
C1405 C 0.22825 0.77043 0.0541 0.0
C1406 C 0.26134 0.76028 0.02453 0.0
C1407 C 0.25969 0.73736 0.02992 0.0
C1408 C 0.24236 0.73108 0.04767 0.0
H1409 H 0.34255 0.61658 0.9746 0.0
H1410 H 0.31593 0.64357 -0.00019 0.0
C1411 C 0.22669 0.74744 0.05952 0.0
C1412 C 0.27642 0.72016 0.01734 0.0
H1413 H 0.28158 0.67187 0.97699 0.0
C1414 C 0.29954 0.72271 0.02136 0.0
C1415 C 0.26981 0.70162 0.00115 0.0
C1416 C 0.24534 0.69857 0.99514 0.0
C1417 C 0.31623 0.70716 0.00966 0.0
C1418 C 0.30962 0.68874 0.99339 0.0
C1419 C 0.28652 0.68599 0.98962 0.0
C1420 C 0.32647 0.67267 0.97913 0.0
C1421 C 0.34082 0.71045 0.01489 0.0
C1422 C 0.34109 0.68015 0.95916 0.0
C1423 C 0.35612 0.66479 0.94455 0.0
C1424 C 0.3568 0.64161 0.94965 0.0
C1425 C 0.34229 0.63425 0.96997 0.0
C1426 C 0.32717 0.64964 0.98448 0.0
H1427 H 0.3426 0.72208 0.03245 0.0
H1428 H 0.34973 0.69395 0.01776 0.0
H1429 H 0.34936 0.71794 0.99773 0.0
H1430 H 0.34048 0.69781 0.95443 0.0
H1431 H 0.36668 0.67099 0.92872 0.0
loop_
_geom_bond_atom_site_label_1
_geom_bond_atom_site_label_2
_geom_bond_distance
_geom_bond_site_symmetry_2
_ccdc_geom_bond_type
Fe0 O2 1.918 . S
Fe0 O5 1.997 . S
Fe0 O6 2.002 . S
Fe0 O11 1.976 . S
Fe0 O14 1.996 . S
Fe1 O2 1.918 . S
Fe1 O9 1.997 . S
Fe1 O12 1.996 . S
Fe1 O16 1.976 . S
Fe1 O19 2.002 . S
O2 Fe0 1.918 . S
O2 Fe1 1.918 . S
O2 Fe3 1.918 . S
Fe3 O2 1.918 . S
Fe3 O4 2.002 . S
Fe3 O13 1.976 . S
Fe3 O17 1.996 . S
Fe3 O20 1.997 . S
O4 Fe3 2.002 . S
O4 C21 1.295 . S
O5 Fe0 1.997 . S
O5 C21 1.235 . S
O6 Fe0 2.002 . S
O6 C7 1.295 . S
C7 O6 1.295 . S
C7 O9 1.235 . S
C8 O13 1.287 . S
C8 O14 1.255 . S
O9 Fe1 1.997 . S
O9 C7 1.235 . S
C10 O16 1.287 . S
C10 O17 1.255 . S
O11 Fe0 1.976 . S
O11 C18 1.287 . S
O12 Fe1 1.996 . S
O12 C18 1.255 . S
O13 Fe3 1.976 . S
O13 C8 1.287 . S
O14 Fe0 1.996 . S
O14 C8 1.255 . S
C15 O19 1.295 . S
C15 O20 1.235 . S
O16 Fe1 1.976 . S
O16 C10 1.287 . S
O17 Fe3 1.996 . S
O17 C10 1.255 . S
C18 O11 1.287 . S
C18 O12 1.255 . S
O19 Fe1 2.002 . S
O19 C15 1.295 . S
O20 Fe3 1.997 . S
O20 C15 1.235 . S
C21 O4 1.295 . S
C21 O5 1.235 . S
Fe22 O24 1.918 . S
Fe22 O27 1.997 . S
Fe22 O28 2.002 . S
Fe22 O33 1.976 . S
Fe22 O36 1.996 . S
Fe23 O24 1.918 . S
Fe23 O31 1.997 . S
Fe23 O34 1.996 . S
Fe23 O38 1.976 . S
Fe23 O41 2.002 . S
O24 Fe22 1.918 . S
O24 Fe23 1.918 . S
O24 Fe25 1.918 . S
Fe25 O24 1.918 . S
Fe25 O26 2.002 . S
Fe25 O35 1.976 . S
Fe25 O39 1.996 . S
Fe25 O42 1.997 . S
O26 Fe25 2.002 . S
O26 C43 1.295 . S
O27 Fe22 1.997 . S
O27 C43 1.235 . S
O28 Fe22 2.002 . S
O28 C29 1.295 . S
C29 O28 1.295 . S
C29 O31 1.235 . S
C30 O35 1.287 . S
C30 O36 1.255 . S
O31 Fe23 1.997 . S
O31 C29 1.235 . S
C32 O38 1.287 . S
C32 O39 1.255 . S
O33 Fe22 1.976 . S
O33 C40 1.287 . S
O34 Fe23 1.996 . S
O34 C40 1.255 . S
O35 Fe25 1.976 . S
O35 C30 1.287 . S
O36 Fe22 1.996 . S
O36 C30 1.255 . S
C37 O41 1.295 . S
C37 O42 1.235 . S
O38 Fe23 1.976 . S
O38 C32 1.287 . S
O39 Fe25 1.996 . S
O39 C32 1.255 . S
C40 O33 1.287 . S
C40 O34 1.255 . S
O41 Fe23 2.002 . S
O41 C37 1.295 . S
O42 Fe25 1.997 . S
O42 C37 1.235 . S
C43 O26 1.295 . S
C43 O27 1.235 . S
Fe44 O46 1.925 . S
Fe44 O49 1.959 1_554 S
Fe44 O50 1.979 1_554 S
Fe44 O55 2.012 . S
Fe44 O58 2.017 . S
Fe45 O46 1.918 . S
Fe45 O53 1.997 1_554 S
Fe45 O56 1.996 . S
Fe45 O60 1.976 . S
Fe45 O63 2.002 1_554 S
O46 Fe44 1.925 . S
O46 Fe45 1.918 . S
O46 Fe47 1.918 . S
Fe47 O46 1.918 . S
Fe47 O48 2.002 1_554 S
Fe47 O57 1.976 . S
Fe47 O61 1.996 . S
Fe47 O64 1.997 1_554 S
O48 Fe47 2.002 1_556 S
O48 C65 1.295 . S
O49 Fe44 1.959 1_556 S
O49 C65 1.235 . S
O50 Fe44 1.979 1_556 S
O50 C51 1.295 . S
C51 O50 1.295 . S
C51 O53 1.235 . S
C52 O57 1.287 . S
C52 O58 1.255 . S
O53 Fe45 1.997 1_556 S
O53 C51 1.235 . S
C54 O60 1.287 . S
C54 O61 1.255 . S
O55 Fe44 2.012 . S
O55 C62 1.287 . S
O56 Fe45 1.996 . S
O56 C62 1.255 . S
O57 Fe47 1.976 . S
O57 C52 1.287 . S
O58 Fe44 2.017 . S
O58 C52 1.255 . S
C59 O63 1.295 . S
C59 O64 1.235 . S
O60 Fe45 1.976 . S
O60 C54 1.287 . S
O61 Fe47 1.996 . S
O61 C54 1.255 . S
C62 O55 1.287 . S
C62 O56 1.255 . S
O63 Fe45 2.002 1_556 S
O63 C59 1.295 . S
O64 Fe47 1.997 1_556 S
O64 C59 1.235 . S
C65 O48 1.295 . S
C65 O49 1.235 . S
Fe66 O68 1.918 . S
Fe66 O71 1.997 . S
Fe66 O72 2.002 . S
Fe66 O77 1.976 . S
Fe66 O80 1.996 . S
Fe67 O68 1.918 . S
Fe67 O75 1.997 . S
Fe67 O78 1.996 . S
Fe67 O82 1.976 . S
Fe67 O85 2.002 . S
O68 Fe66 1.918 . S
O68 Fe67 1.918 . S
O68 Fe69 1.918 . S
Fe69 O68 1.918 . S
Fe69 O70 2.002 . S
Fe69 O79 1.976 . S
Fe69 O83 1.996 . S
Fe69 O86 1.997 . S
O70 Fe69 2.002 . S
O70 C87 1.295 . S
O71 Fe66 1.997 . S
O71 C87 1.235 . S
O72 Fe66 2.002 . S
O72 C73 1.295 . S
C73 O72 1.295 . S
C73 O75 1.235 . S
C74 O79 1.287 . S
C74 O80 1.255 . S
O75 Fe67 1.997 . S
O75 C73 1.235 . S
C76 O82 1.287 . S
C76 O83 1.255 . S
O77 Fe66 1.976 . S
O77 C84 1.287 . S
O78 Fe67 1.996 . S
O78 C84 1.255 . S
O79 Fe69 1.976 . S
O79 C74 1.287 . S
O80 Fe66 1.996 . S
O80 C74 1.255 . S
C81 O85 1.295 . S
C81 O86 1.235 . S
O82 Fe67 1.976 . S
O82 C76 1.287 . S
O83 Fe69 1.996 . S
O83 C76 1.255 . S
C84 O77 1.287 . S
C84 O78 1.255 . S
O85 Fe67 2.002 . S
O85 C81 1.295 . S
O86 Fe69 1.997 . S
O86 C81 1.235 . S
C87 O70 1.295 . S
C87 O71 1.235 . S
C88 C89 1.391 . S
C88 C92 1.391 . S
C88 H130 0.948 . S
C89 C88 1.391 . S
C89 C90 1.391 . S
C90 C89 1.391 . S
C90 H146 0.947 . S
C90 C147 1.392 . S
C91 C92 1.391 . S
C91 C95 1.397 . S
C91 C147 1.419 . S
C92 C88 1.391 . S
C92 C91 1.391 . S
C92 C93 1.399 . S
C93 C92 1.399 . S
C93 C96 1.396 . S
C93 C105 1.453 . S
C93 C106 1.684 . S
H94 C118 0.948 . S
C95 C91 1.397 . S
C95 C96 1.394 . S
C95 C114 1.723 . S
C96 C93 1.396 . S
C96 C95 1.394 . S
C96 C126 1.723 . S
H97 C120 0.947 . S
H98 C121 0.948 . S
H99 C127 0.982 . S
H100 C128 0.979 . S
H101 C128 0.980 . S
H102 C128 0.983 . S
H103 C127 0.979 . S
H104 C127 0.977 . S
C105 C93 1.453 . S
C105 H134 0.982 . S
C105 H135 0.979 . S
C105 H136 0.977 . S
C106 C93 1.684 . S
C106 H131 0.979 . S
C106 H132 0.980 . S
C106 H133 0.983 . S
C107 C108 1.391 . S
C107 C112 1.391 . S
C107 H137 0.948 . S
C108 C107 1.391 . S
C108 C109 1.391 . S
C109 C108 1.391 . S
C109 C110 1.392 . S
C109 H138 0.947 . S
C110 C109 1.392 . S
C110 C111 1.419 . S
C110 H139 0.948 . S
C111 C110 1.419 . S
C111 C112 1.391 . S
C111 C115 1.397 . S
C112 C107 1.391 . S
C112 C111 1.391 . S
C112 C113 1.399 . S
C113 C112 1.399 . S
C113 C114 1.396 . S
C113 C116 1.453 . S
C113 C117 1.684 . S
C114 C95 1.723 . S
C114 C113 1.396 . S
C114 C115 1.394 . S
C115 C111 1.397 . S
C115 C114 1.394 . S
C115 C125 1.723 . S
C116 C113 1.453 . S
C116 H140 0.982 . S
C116 H141 0.979 . S
C116 H142 0.977 . S
C117 C113 1.684 . S
C117 H143 0.979 . S
C117 H144 0.980 . S
C117 H145 0.983 . S
C118 H94 0.948 . S
C118 C119 1.391 . S
C118 C123 1.391 . S
C119 C118 1.391 . S
C119 C120 1.391 . S
C120 H97 0.947 . S
C120 C119 1.391 . S
C120 C121 1.392 . S
C121 H98 0.948 . S
C121 C120 1.392 . S
C121 C122 1.419 . S
C122 C121 1.419 . S
C122 C123 1.391 . S
C122 C126 1.397 . S
C123 C118 1.391 . S
C123 C122 1.391 . S
C123 C124 1.399 . S
C124 C123 1.399 . S
C124 C125 1.396 . S
C124 C127 1.453 . S
C124 C128 1.684 . S
C125 C115 1.723 . S
C125 C124 1.396 . S
C125 C126 1.394 . S
C126 C96 1.723 . S
C126 C122 1.397 . S
C126 C125 1.394 . S
C127 H99 0.982 . S
C127 H103 0.979 . S
C127 H104 0.977 . S
C127 C124 1.453 . S
C128 H100 0.979 . S
C128 H101 0.980 . S
C128 H102 0.983 . S
C128 C124 1.684 . S
H129 C147 0.948 . S
H130 C88 0.948 . S
H131 C106 0.979 . S
H132 C106 0.980 . S
H133 C106 0.983 . S
H134 C105 0.982 . S
H135 C105 0.979 . S
H136 C105 0.977 . S
H137 C107 0.948 . S
H138 C109 0.947 . S
H139 C110 0.948 . S
H140 C116 0.982 . S
H141 C116 0.979 . S
H142 C116 0.977 . S
H143 C117 0.979 . S
H144 C117 0.980 . S
H145 C117 0.983 . S
H146 C90 0.947 . S
C147 C90 1.392 . S
C147 C91 1.419 . S
C147 H129 0.948 . S
C148 C149 1.391 . S
C148 C152 1.391 . S
C148 H190 0.948 . S
C149 C148 1.391 . S
C149 C150 1.391 . S
C150 C149 1.391 . S
C150 H206 0.947 . S
C150 C207 1.392 . S
C151 C152 1.391 . S
C151 C155 1.397 . S
C151 C207 1.419 . S
C152 C148 1.391 . S
C152 C151 1.391 . S
C152 C153 1.399 . S
C153 C152 1.399 . S
C153 C156 1.396 . S
C153 C165 1.453 . S
C153 C166 1.684 . S
H154 C178 0.948 . S
C155 C151 1.397 . S
C155 C156 1.394 . S
C155 C174 1.723 . S
C156 C153 1.396 . S
C156 C155 1.394 . S
C156 C186 1.723 . S
H157 C180 0.947 . S
H158 C181 0.948 . S
H159 C187 0.982 . S
H160 C188 0.979 . S
H161 C188 0.980 . S
H162 C188 0.983 . S
H163 C187 0.979 . S
H164 C187 0.977 . S
C165 C153 1.453 . S
C165 H194 0.982 . S
C165 H195 0.979 . S
C165 H196 0.977 . S
C166 C153 1.684 . S
C166 H191 0.979 . S
C166 H192 0.980 . S
C166 H193 0.983 . S
C167 C168 1.391 . S
C167 C172 1.391 . S
C167 H197 0.948 . S
C168 C167 1.391 . S
C168 C169 1.391 . S
C169 C168 1.391 . S
C169 C170 1.392 . S
C169 H198 0.947 . S
C170 C169 1.392 . S
C170 C171 1.419 . S
C170 H199 0.948 . S
C171 C170 1.419 . S
C171 C172 1.391 . S
C171 C175 1.397 . S
C172 C167 1.391 . S
C172 C171 1.391 . S
C172 C173 1.399 . S
C173 C172 1.399 . S
C173 C174 1.396 . S
C173 C176 1.453 . S
C173 C177 1.684 . S
C174 C155 1.723 . S
C174 C173 1.396 . S
C174 C175 1.394 . S
C175 C171 1.397 . S
C175 C174 1.394 . S
C175 C185 1.723 . S
C176 C173 1.453 . S
C176 H200 0.982 . S
C176 H201 0.979 . S
C176 H202 0.977 . S
C177 C173 1.684 . S
C177 H203 0.979 . S
C177 H204 0.980 . S
C177 H205 0.983 . S
C178 H154 0.948 . S
C178 C179 1.391 . S
C178 C183 1.391 . S
C179 C178 1.391 . S
C179 C180 1.391 . S
C180 H157 0.947 . S
C180 C179 1.391 . S
C180 C181 1.392 . S
C181 H158 0.948 . S
C181 C180 1.392 . S
C181 C182 1.419 . S
C182 C181 1.419 . S
C182 C183 1.391 . S
C182 C186 1.397 . S
C183 C178 1.391 . S
C183 C182 1.391 . S
C183 C184 1.399 . S
C184 C183 1.399 . S
C184 C185 1.396 . S
C184 C187 1.453 . S
C184 C188 1.684 . S
C185 C175 1.723 . S
C185 C184 1.396 . S
C185 C186 1.394 . S
C186 C156 1.723 . S
C186 C182 1.397 . S
C186 C185 1.394 . S
C187 H159 0.982 . S
C187 H163 0.979 . S
C187 H164 0.977 . S
C187 C184 1.453 . S
C188 H160 0.979 . S
C188 H161 0.980 . S
C188 H162 0.983 . S
C188 C184 1.684 . S
H189 C207 0.948 . S
H190 C148 0.948 . S
H191 C166 0.979 . S
H192 C166 0.980 . S
H193 C166 0.983 . S
H194 C165 0.982 . S
H195 C165 0.979 . S
H196 C165 0.977 . S
H197 C167 0.948 . S
H198 C169 0.947 . S
H199 C170 0.948 . S
H200 C176 0.982 . S
H201 C176 0.979 . S
H202 C176 0.977 . S
H203 C177 0.979 . S
H204 C177 0.980 . S
H205 C177 0.983 . S
H206 C150 0.947 . S
C207 C150 1.392 . S
C207 C151 1.419 . S
C207 H189 0.948 . S
C208 C209 1.391 . S
C208 C212 1.391 . S
C208 H250 0.948 . S
C209 C208 1.391 . S
C209 C210 1.391 . S
C210 C209 1.391 . S
C210 H266 0.947 . S
C210 C267 1.392 . S
C211 C212 1.391 . S
C211 C215 1.397 . S
C211 C267 1.419 . S
C212 C208 1.391 . S
C212 C211 1.391 . S
C212 C213 1.399 . S
C213 C212 1.399 . S
C213 C216 1.396 . S
C213 C225 1.453 . S
C213 C226 1.684 . S
H214 C238 0.948 . S
C215 C211 1.397 . S
C215 C216 1.394 . S
C215 C234 1.723 . S
C216 C213 1.396 . S
C216 C215 1.394 . S
C216 C246 1.723 . S
H217 C240 0.947 . S
H218 C241 0.948 . S
H219 C247 0.982 . S
H220 C248 0.979 . S
H221 C248 0.980 . S
H222 C248 0.983 . S
H223 C247 0.979 . S
H224 C247 0.977 . S
C225 C213 1.453 . S
C225 H254 0.982 . S
C225 H255 0.979 . S
C225 H256 0.977 . S
C226 C213 1.684 . S
C226 H251 0.979 . S
C226 H252 0.980 . S
C226 H253 0.983 . S
C227 C228 1.391 . S
C227 C232 1.391 . S
C227 H257 0.948 . S
C228 C227 1.391 . S
C228 C229 1.391 . S
C229 C228 1.391 . S
C229 C230 1.392 . S
C229 H258 0.947 . S
C230 C229 1.392 . S
C230 C231 1.419 . S
C230 H259 0.948 . S
C231 C230 1.419 . S
C231 C232 1.391 . S
C231 C235 1.397 . S
C232 C227 1.391 . S
C232 C231 1.391 . S
C232 C233 1.399 . S
C233 C232 1.399 . S
C233 C234 1.396 . S
C233 C236 1.453 . S
C233 C237 1.684 . S
C234 C215 1.723 . S
C234 C233 1.396 . S
C234 C235 1.394 . S
C235 C231 1.397 . S
C235 C234 1.394 . S
C235 C245 1.723 . S
C236 C233 1.453 . S
C236 H260 0.982 . S
C236 H261 0.979 . S
C236 H262 0.977 . S
C237 C233 1.684 . S
C237 H263 0.979 . S
C237 H264 0.980 . S
C237 H265 0.983 . S
C238 H214 0.948 . S
C238 C239 1.391 . S
C238 C243 1.391 . S
C239 C238 1.391 . S
C239 C240 1.391 . S
C240 H217 0.947 . S
C240 C239 1.391 . S
C240 C241 1.392 . S
C241 H218 0.948 . S
C241 C240 1.392 . S
C241 C242 1.419 . S
C242 C241 1.419 . S
C242 C243 1.391 . S
C242 C246 1.397 . S
C243 C238 1.391 . S
C243 C242 1.391 . S
C243 C244 1.399 . S
C244 C243 1.399 . S
C244 C245 1.396 . S
C244 C247 1.453 . S
C244 C248 1.684 . S
C245 C235 1.723 . S
C245 C244 1.396 . S
C245 C246 1.394 . S
C246 C216 1.723 . S
C246 C242 1.397 . S
C246 C245 1.394 . S
C247 H219 0.982 . S
C247 H223 0.979 . S
C247 H224 0.977 . S
C247 C244 1.453 . S
C248 H220 0.979 . S
C248 H221 0.980 . S
C248 H222 0.983 . S
C248 C244 1.684 . S
H249 C267 0.948 . S
H250 C208 0.948 . S
H251 C226 0.979 . S
H252 C226 0.980 . S
H253 C226 0.983 . S
H254 C225 0.982 . S
H255 C225 0.979 . S
H256 C225 0.977 . S
H257 C227 0.948 . S
H258 C229 0.947 . S
H259 C230 0.948 . S
H260 C236 0.982 . S
H261 C236 0.979 . S
H262 C236 0.977 . S
H263 C237 0.979 . S
H264 C237 0.980 . S
H265 C237 0.983 . S
H266 C210 0.947 . S
C267 C210 1.392 . S
C267 C211 1.419 . S
C267 H249 0.948 . S
C268 C269 1.391 . S
C268 C272 1.391 . S
C268 H310 0.948 . S
C269 C268 1.391 . S
C269 C270 1.391 . S
C270 C269 1.391 . S
C270 H326 0.947 . S
C270 C327 1.392 . S
C271 C272 1.391 . S
C271 C275 1.397 . S
C271 C327 1.419 . S
C272 C268 1.391 . S
C272 C271 1.391 . S
C272 C273 1.399 . S
C273 C272 1.399 . S
C273 C276 1.396 . S
C273 C285 1.453 . S
C273 C286 1.684 . S
H274 C298 0.948 . S
C275 C271 1.397 . S
C275 C276 1.394 . S
C275 C294 1.723 . S
C276 C273 1.396 . S
C276 C275 1.394 . S
C276 C306 1.723 . S
H277 C300 0.947 . S
H278 C301 0.948 . S
H279 C307 0.982 . S
H280 C308 0.979 . S
H281 C308 0.980 . S
H282 C308 0.983 . S
H283 C307 0.979 . S
H284 C307 0.977 . S
C285 C273 1.453 . S
C285 H314 0.982 . S
C285 H315 0.979 . S
C285 H316 0.977 . S
C286 C273 1.684 . S
C286 H311 0.979 . S
C286 H312 0.980 . S
C286 H313 0.983 . S
C287 C288 1.391 . S
C287 C292 1.391 . S
C287 H317 0.948 . S
C288 C287 1.391 . S
C288 C289 1.391 . S
C289 C288 1.391 . S
C289 C290 1.392 . S
C289 H318 0.947 . S
C290 C289 1.392 . S
C290 C291 1.419 . S
C290 H319 0.948 . S
C291 C290 1.419 . S
C291 C292 1.391 . S
C291 C295 1.397 . S
C292 C287 1.391 . S
C292 C291 1.391 . S
C292 C293 1.399 . S
C293 C292 1.399 . S
C293 C294 1.396 . S
C293 C296 1.453 . S
C293 C297 1.684 . S
C294 C275 1.723 . S
C294 C293 1.396 . S
C294 C295 1.394 . S
C295 C291 1.397 . S
C295 C294 1.394 . S
C295 C305 1.723 . S
C296 C293 1.453 . S
C296 H320 0.982 . S
C296 H321 0.979 . S
C296 H322 0.977 . S
C297 C293 1.684 . S
C297 H323 0.979 . S
C297 H324 0.980 . S
C297 H325 0.983 . S
C298 H274 0.948 . S
C298 C299 1.391 . S
C298 C303 1.391 . S
C299 C298 1.391 . S
C299 C300 1.391 . S
C300 H277 0.947 . S
C300 C299 1.391 . S
C300 C301 1.392 . S
C301 H278 0.948 . S
C301 C300 1.392 . S
C301 C302 1.419 . S
C302 C301 1.419 . S
C302 C303 1.391 . S
C302 C306 1.397 . S
C303 C298 1.391 . S
C303 C302 1.391 . S
C303 C304 1.399 . S
C304 C303 1.399 . S
C304 C305 1.396 . S
C304 C307 1.453 . S
C304 C308 1.684 . S
C305 C295 1.723 . S
C305 C304 1.396 . S
C305 C306 1.394 . S
C306 C276 1.723 . S
C306 C302 1.397 . S
C306 C305 1.394 . S
C307 H279 0.982 . S
C307 H283 0.979 . S
C307 H284 0.977 . S
C307 C304 1.453 . S
C308 H280 0.979 . S
C308 H281 0.980 . S
C308 H282 0.983 . S
C308 C304 1.684 . S
H309 C327 0.948 . S
H310 C268 0.948 . S
H311 C286 0.979 . S
H312 C286 0.980 . S
H313 C286 0.983 . S
H314 C285 0.982 . S
H315 C285 0.979 . S
H316 C285 0.977 . S
H317 C287 0.948 . S
H318 C289 0.947 . S
H319 C290 0.948 . S
H320 C296 0.982 . S
H321 C296 0.979 . S
H322 C296 0.977 . S
H323 C297 0.979 . S
H324 C297 0.980 . S
H325 C297 0.983 . S
H326 C270 0.947 . S
C327 C270 1.392 . S
C327 C271 1.419 . S
C327 H309 0.948 . S
C328 C329 1.391 . S
C328 C332 1.391 . S
C328 H370 0.948 . S
C329 C328 1.391 . S
C329 C330 1.391 . S
C330 C329 1.391 . S
C330 H386 0.947 . S
C330 C387 1.392 . S
C331 C332 1.391 . S
C331 C335 1.397 . S
C331 C387 1.419 . S
C332 C328 1.391 . S
C332 C331 1.391 . S
C332 C333 1.399 . S
C333 C332 1.399 . S
C333 C336 1.396 . S
C333 C345 1.453 . S
C333 C346 1.684 . S
H334 C358 0.948 . S
C335 C331 1.397 . S
C335 C336 1.394 . S
C335 C354 1.723 . S
C336 C333 1.396 . S
C336 C335 1.394 . S
C336 C366 1.723 . S
H337 C360 0.947 . S
H338 C361 0.948 . S
H339 C367 0.982 . S
H340 C368 0.979 . S
H341 C368 0.980 . S
H342 C368 0.983 . S
H343 C367 0.979 . S
H344 C367 0.977 . S
C345 C333 1.453 . S
C345 H374 0.982 . S
C345 H375 0.979 . S
C345 H376 0.977 . S
C346 C333 1.684 . S
C346 H371 0.979 . S
C346 H372 0.980 . S
C346 H373 0.983 . S
C347 C348 1.391 . S
C347 C352 1.391 . S
C347 H377 0.948 . S
C348 C347 1.391 . S
C348 C349 1.391 . S
C349 C348 1.391 . S
C349 C350 1.392 . S
C349 H378 0.947 . S
C350 C349 1.392 . S
C350 C351 1.419 . S
C350 H379 0.948 . S
C351 C350 1.419 . S
C351 C352 1.391 . S
C351 C355 1.397 . S
C352 C347 1.391 . S
C352 C351 1.391 . S
C352 C353 1.399 . S
C353 C352 1.399 . S
C353 C354 1.396 . S
C353 C356 1.453 . S
C353 C357 1.684 . S
C354 C335 1.723 . S
C354 C353 1.396 . S
C354 C355 1.394 . S
C355 C351 1.397 . S
C355 C354 1.394 . S
C355 C365 1.723 . S
C356 C353 1.453 . S
C356 H380 0.982 . S
C356 H381 0.979 . S
C356 H382 0.977 . S
C357 C353 1.684 . S
C357 H383 0.979 . S
C357 H384 0.980 . S
C357 H385 0.983 . S
C358 H334 0.948 . S
C358 C359 1.391 . S
C358 C363 1.391 . S
C359 C358 1.391 . S
C359 C360 1.391 . S
C360 H337 0.947 . S
C360 C359 1.391 . S
C360 C361 1.392 . S
C361 H338 0.948 . S
C361 C360 1.392 . S
C361 C362 1.419 . S
C362 C361 1.419 . S
C362 C363 1.391 . S
C362 C366 1.397 . S
C363 C358 1.391 . S
C363 C362 1.391 . S
C363 C364 1.399 . S
C364 C363 1.399 . S
C364 C365 1.396 . S
C364 C367 1.453 . S
C364 C368 1.684 . S
C365 C355 1.723 . S
C365 C364 1.396 . S
C365 C366 1.394 . S
C366 C336 1.723 . S
C366 C362 1.397 . S
C366 C365 1.394 . S
C367 H339 0.982 . S
C367 H343 0.979 . S
C367 H344 0.977 . S
C367 C364 1.453 . S
C368 H340 0.979 . S
C368 H341 0.980 . S
C368 H342 0.983 . S
C368 C364 1.684 . S
H369 C387 0.948 . S
H370 C328 0.948 . S
H371 C346 0.979 . S
H372 C346 0.980 . S
H373 C346 0.983 . S
H374 C345 0.982 . S
H375 C345 0.979 . S
H376 C345 0.977 . S
H377 C347 0.948 . S
H378 C349 0.947 . S
H379 C350 0.948 . S
H380 C356 0.982 . S
H381 C356 0.979 . S
H382 C356 0.977 . S
H383 C357 0.979 . S
H384 C357 0.980 . S
H385 C357 0.983 . S
H386 C330 0.947 . S
C387 C330 1.392 . S
C387 C331 1.419 . S
C387 H369 0.948 . S
C388 C389 1.391 . S
C388 C392 1.391 . S
C388 H430 0.948 . S
C389 C388 1.391 . S
C389 C390 1.391 . S
C390 C389 1.391 . S
C390 H446 0.947 . S
C390 C447 1.392 . S
C391 C392 1.391 . S
C391 C395 1.397 . S
C391 C447 1.419 . S
C392 C388 1.391 . S
C392 C391 1.391 . S
C392 C393 1.399 . S
C393 C392 1.399 . S
C393 C396 1.396 . S
C393 C405 1.453 . S
C393 C406 1.684 . S
H394 C418 0.948 . S
C395 C391 1.397 . S
C395 C396 1.394 . S
C395 C414 1.723 . S
C396 C393 1.396 . S
C396 C395 1.394 . S
C396 C426 1.723 . S
H397 C420 0.947 . S
H398 C421 0.948 . S
H399 C427 0.982 . S
H400 C428 0.979 . S
H401 C428 0.980 . S
H402 C428 0.983 . S
H403 C427 0.979 . S
H404 C427 0.977 . S
C405 C393 1.453 . S
C405 H434 0.982 . S
C405 H435 0.979 . S
C405 H436 0.977 . S
C406 C393 1.684 . S
C406 H431 0.979 . S
C406 H432 0.980 . S
C406 H433 0.983 . S
C407 C408 1.391 . S
C407 C412 1.391 . S
C407 H437 0.948 . S
C408 C407 1.391 . S
C408 C409 1.391 . S
C409 C408 1.391 . S
C409 C410 1.392 . S
C409 H438 0.947 . S
C410 C409 1.392 . S
C410 C411 1.419 . S
C410 H439 0.948 . S
C411 C410 1.419 . S
C411 C412 1.391 . S
C411 C415 1.397 . S
C412 C407 1.391 . S
C412 C411 1.391 . S
C412 C413 1.399 . S
C413 C412 1.399 . S
C413 C414 1.396 . S
C413 C416 1.453 . S
C413 C417 1.684 . S
C414 C395 1.723 . S
C414 C413 1.396 . S
C414 C415 1.394 . S
C415 C411 1.397 . S
C415 C414 1.394 . S
C415 C425 1.723 . S
C416 C413 1.453 . S
C416 H440 0.982 . S
C416 H441 0.979 . S
C416 H442 0.977 . S
C417 C413 1.684 . S
C417 H443 0.979 . S
C417 H444 0.980 . S
C417 H445 0.983 . S
C418 H394 0.948 . S
C418 C419 1.391 . S
C418 C423 1.391 . S
C419 C418 1.391 . S
C419 C420 1.391 . S
C420 H397 0.947 . S
C420 C419 1.391 . S
C420 C421 1.392 . S
C421 H398 0.948 . S
C421 C420 1.392 . S
C421 C422 1.419 . S
C422 C421 1.419 . S
C422 C423 1.391 . S
C422 C426 1.397 . S
C423 C418 1.391 . S
C423 C422 1.391 . S
C423 C424 1.399 . S
C424 C423 1.399 . S
C424 C425 1.396 . S
C424 C427 1.453 . S
C424 C428 1.684 . S
C425 C415 1.723 . S
C425 C424 1.396 . S
C425 C426 1.394 . S
C426 C396 1.723 . S
C426 C422 1.397 . S
C426 C425 1.394 . S
C427 H399 0.982 . S
C427 H403 0.979 . S
C427 H404 0.977 . S
C427 C424 1.453 . S
C428 H400 0.979 . S
C428 H401 0.980 . S
C428 H402 0.983 . S
C428 C424 1.684 . S
H429 C447 0.948 . S
H430 C388 0.948 . S
H431 C406 0.979 . S
H432 C406 0.980 . S
H433 C406 0.983 . S
H434 C405 0.982 . S
H435 C405 0.979 . S
H436 C405 0.977 . S
H437 C407 0.948 . S
H438 C409 0.947 . S
H439 C410 0.948 . S
H440 C416 0.982 . S
H441 C416 0.979 . S
H442 C416 0.977 . S
H443 C417 0.979 . S
H444 C417 0.980 . S
H445 C417 0.983 . S
H446 C390 0.947 . S
C447 C390 1.392 . S
C447 C391 1.419 . S
C447 H429 0.948 . S
C448 C449 1.391 . S
C448 C452 1.391 . S
C448 H490 0.948 . S
C449 C448 1.391 . S
C449 C450 1.391 . S
C450 C449 1.391 . S
C450 H506 0.947 . S
C450 C507 1.392 . S
C451 C452 1.391 . S
C451 C455 1.397 . S
C451 C507 1.419 . S
C452 C448 1.391 . S
C452 C451 1.391 . S
C452 C453 1.399 . S
C453 C452 1.399 . S
C453 C456 1.396 . S
C453 C465 1.453 . S
C453 C466 1.684 . S
H454 C478 0.948 . S
C455 C451 1.397 . S
C455 C456 1.394 . S
C455 C474 1.723 . S
C456 C453 1.396 . S
C456 C455 1.394 . S
C456 C486 1.723 . S
H457 C480 0.947 . S
H458 C481 0.948 . S
H459 C487 0.982 . S
H460 C488 0.979 . S
H461 C488 0.980 . S
H462 C488 0.983 . S
H463 C487 0.979 . S
H464 C487 0.977 . S
C465 C453 1.453 . S
C465 H494 0.982 . S
C465 H495 0.979 . S
C465 H496 0.977 . S
C466 C453 1.684 . S
C466 H491 0.979 . S
C466 H492 0.980 . S
C466 H493 0.983 . S
C467 C468 1.391 . S
C467 C472 1.391 . S
C467 H497 0.948 . S
C468 C467 1.391 . S
C468 C469 1.391 . S
C469 C468 1.391 . S
C469 C470 1.392 . S
C469 H498 0.947 . S
C470 C469 1.392 . S
C470 C471 1.419 . S
C470 H499 0.948 . S
C471 C470 1.419 . S
C471 C472 1.391 . S
C471 C475 1.397 . S
C472 C467 1.391 . S
C472 C471 1.391 . S
C472 C473 1.399 . S
C473 C472 1.399 . S
C473 C474 1.396 . S
C473 C476 1.453 . S
C473 C477 1.684 . S
C474 C455 1.723 . S
C474 C473 1.396 . S
C474 C475 1.394 . S
C475 C471 1.397 . S
C475 C474 1.394 . S
C475 C485 1.723 . S
C476 C473 1.453 . S
C476 H500 0.982 . S
C476 H501 0.979 . S
C476 H502 0.977 . S
C477 C473 1.684 . S
C477 H503 0.979 . S
C477 H504 0.980 . S
C477 H505 0.983 . S
C478 H454 0.948 . S
C478 C479 1.391 . S
C478 C483 1.391 . S
C479 C478 1.391 . S
C479 C480 1.391 . S
C480 H457 0.947 . S
C480 C479 1.391 . S
C480 C481 1.392 . S
C481 H458 0.948 . S
C481 C480 1.392 . S
C481 C482 1.419 . S
C482 C481 1.419 . S
C482 C483 1.391 . S
C482 C486 1.397 . S
C483 C478 1.391 . S
C483 C482 1.391 . S
C483 C484 1.399 . S
C484 C483 1.399 . S
C484 C485 1.396 . S
C484 C487 1.453 . S
C484 C488 1.684 . S
C485 C475 1.723 . S
C485 C484 1.396 . S
C485 C486 1.394 . S
C486 C456 1.723 . S
C486 C482 1.397 . S
C486 C485 1.394 . S
C487 H459 0.982 . S
C487 H463 0.979 . S
C487 H464 0.977 . S
C487 C484 1.453 . S
C488 H460 0.979 . S
C488 H461 0.980 . S
C488 H462 0.983 . S
C488 C484 1.684 . S
H489 C507 0.948 . S
H490 C448 0.948 . S
H491 C466 0.979 . S
H492 C466 0.980 . S
H493 C466 0.983 . S
H494 C465 0.982 . S
H495 C465 0.979 . S
H496 C465 0.977 . S
H497 C467 0.948 . S
H498 C469 0.947 . S
H499 C470 0.948 . S
H500 C476 0.982 . S
H501 C476 0.979 . S
H502 C476 0.977 . S
H503 C477 0.979 . S
H504 C477 0.980 . S
H505 C477 0.983 . S
H506 C450 0.947 . S
C507 C450 1.392 . S
C507 C451 1.419 . S
C507 H489 0.948 . S
C508 C509 1.391 . S
C508 C512 1.391 . S
C508 H550 0.948 . S
C509 C508 1.391 . S
C509 C510 1.391 . S
C510 C509 1.391 . S
C510 H566 0.947 . S
C510 C567 1.392 . S
C511 C512 1.391 . S
C511 C515 1.397 . S
C511 C567 1.419 . S
C512 C508 1.391 . S
C512 C511 1.391 . S
C512 C513 1.399 . S
C513 C512 1.399 . S
C513 C516 1.396 . S
C513 C525 1.453 . S
C513 C526 1.684 . S
H514 C538 0.948 . S
C515 C511 1.397 . S
C515 C516 1.394 . S
C515 C534 1.723 . S
C516 C513 1.396 . S
C516 C515 1.394 . S
C516 C546 1.723 . S
H517 C540 0.947 . S
H518 C541 0.948 . S
H519 C547 0.982 . S
H520 C548 0.979 . S
H521 C548 0.980 . S
H522 C548 0.983 . S
H523 C547 0.979 . S
H524 C547 0.977 . S
C525 C513 1.453 . S
C525 H554 0.982 . S
C525 H555 0.979 . S
C525 H556 0.977 . S
C526 C513 1.684 . S
C526 H551 0.979 . S
C526 H552 0.980 . S
C526 H553 0.983 . S
C527 C528 1.391 . S
C527 C532 1.391 . S
C527 H557 0.948 . S
C528 C527 1.391 . S
C528 C529 1.391 . S
C529 C528 1.391 . S
C529 C530 1.392 . S
C529 H558 0.947 . S
C530 C529 1.392 . S
C530 C531 1.419 . S
C530 H559 0.948 . S
C531 C530 1.419 . S
C531 C532 1.391 . S
C531 C535 1.397 . S
C532 C527 1.391 . S
C532 C531 1.391 . S
C532 C533 1.399 . S
C533 C532 1.399 . S
C533 C534 1.396 . S
C533 C536 1.453 . S
C533 C537 1.684 . S
C534 C515 1.723 . S
C534 C533 1.396 . S
C534 C535 1.394 . S
C535 C531 1.397 . S
C535 C534 1.394 . S
C535 C545 1.723 . S
C536 C533 1.453 . S
C536 H560 0.982 . S
C536 H561 0.979 . S
C536 H562 0.977 . S
C537 C533 1.684 . S
C537 H563 0.979 . S
C537 H564 0.980 . S
C537 H565 0.983 . S
C538 H514 0.948 . S
C538 C539 1.391 . S
C538 C543 1.391 . S
C539 C538 1.391 . S
C539 C540 1.391 . S
C540 H517 0.947 . S
C540 C539 1.391 . S
C540 C541 1.392 . S
C541 H518 0.948 . S
C541 C540 1.392 . S
C541 C542 1.419 . S
C542 C541 1.419 . S
C542 C543 1.391 . S
C542 C546 1.397 . S
C543 C538 1.391 . S
C543 C542 1.391 . S
C543 C544 1.399 . S
C544 C543 1.399 . S
C544 C545 1.396 . S
C544 C547 1.453 . S
C544 C548 1.684 . S
C545 C535 1.723 . S
C545 C544 1.396 . S
C545 C546 1.394 . S
C546 C516 1.723 . S
C546 C542 1.397 . S
C546 C545 1.394 . S
C547 H519 0.982 . S
C547 H523 0.979 . S
C547 H524 0.977 . S
C547 C544 1.453 . S
C548 H520 0.979 . S
C548 H521 0.980 . S
C548 H522 0.983 . S
C548 C544 1.684 . S
H549 C567 0.948 . S
H550 C508 0.948 . S
H551 C526 0.979 . S
H552 C526 0.980 . S
H553 C526 0.983 . S
H554 C525 0.982 . S
H555 C525 0.979 . S
H556 C525 0.977 . S
H557 C527 0.948 . S
H558 C529 0.947 . S
H559 C530 0.948 . S
H560 C536 0.982 . S
H561 C536 0.979 . S
H562 C536 0.977 . S
H563 C537 0.979 . S
H564 C537 0.980 . S
H565 C537 0.983 . S
H566 C510 0.947 . S
C567 C510 1.392 . S
C567 C511 1.419 . S
C567 H549 0.948 . S
H568 C576 0.929 . S
H569 C578 0.930 . S
H570 C580 0.930 . S
H571 C583 0.929 . S
H572 C586 0.930 . S
H573 C588 0.960 . S
H574 C588 0.960 . S
H575 C588 0.960 . S
C576 H568 0.929 . S
C576 C577 1.377 . S
C576 C578 1.384 . S
C577 C576 1.377 . S
C577 C583 1.390 . S
C578 H569 0.930 . S
C578 C576 1.384 . S
C578 C579 1.372 . S
C579 C578 1.372 . S
C579 C580 1.400 . S
C579 C584 1.490 . S
C580 H570 0.930 . S
C580 C579 1.400 . S
C580 C583 1.386 . S
H581 C597 0.930 . S
H582 C598 0.931 . S
C583 H571 0.929 . S
C583 C577 1.390 . S
C583 C580 1.386 . S
C584 C579 1.490 . S
C584 C586 1.395 . S
C584 C587 1.403 . S
H585 C591 0.930 . S
C586 H572 0.930 . S
C586 C584 1.395 . S
C586 C589 1.403 1_565 S
C587 C584 1.403 . S
C587 C588 1.524 . S
C587 C591 1.400 1_565 S
C588 H573 0.960 . S
C588 H574 0.960 . S
C588 H575 0.960 . S
C588 C587 1.524 . S
C589 C586 1.403 1_545 S
C589 C590 1.392 . S
C589 C593 1.495 . S
C590 C589 1.392 . S
C590 C591 1.385 . S
C590 C592 1.478 . S
C591 H585 0.930 . S
C591 C587 1.400 1_545 S
C591 C590 1.385 . S
C592 C590 1.478 . S
C592 C594 1.381 . S
C592 C598 1.383 . S
C593 C589 1.495 . S
C593 H599 0.959 . S
C593 H600 0.961 . S
C593 H601 0.960 . S
C594 C592 1.381 . S
C594 C595 1.394 . S
C594 H602 0.930 . S
C595 C594 1.394 . S
C595 C596 1.383 . S
C595 H603 0.929 . S
C596 C595 1.383 . S
C596 C597 1.377 . S
C597 H581 0.930 . S
C597 C596 1.377 . S
C597 C598 1.379 . S
C598 H582 0.931 . S
C598 C592 1.383 . S
C598 C597 1.379 . S
H599 C593 0.959 . S
H600 C593 0.961 . S
H601 C593 0.960 . S
H602 C594 0.930 . S
H603 C595 0.929 . S
H604 C612 0.929 . S
H605 C614 0.930 . S
H606 C616 0.930 . S
H607 C619 0.929 . S
H608 C622 0.930 . S
H609 C624 0.960 . S
H610 C624 0.960 . S
H611 C624 0.960 . S
C612 H604 0.929 . S
C612 C613 1.377 . S
C612 C614 1.384 . S
C613 C612 1.377 . S
C613 C619 1.390 . S
C614 H605 0.930 . S
C614 C612 1.384 . S
C614 C615 1.372 . S
C615 C614 1.372 . S
C615 C616 1.400 . S
C615 C620 1.490 . S
C616 H606 0.930 . S
C616 C615 1.400 . S
C616 C619 1.386 . S
H617 C633 0.930 . S
H618 C634 0.931 . S
C619 H607 0.929 . S
C619 C613 1.390 . S
C619 C616 1.386 . S
C620 C615 1.490 . S
C620 C622 1.395 . S
C620 C623 1.403 . S
H621 C627 0.930 . S
C622 H608 0.930 . S
C622 C620 1.395 . S
C622 C625 1.403 . S
C623 C620 1.403 . S
C623 C624 1.524 . S
C623 C627 1.400 . S
C624 H609 0.960 . S
C624 H610 0.960 . S
C624 H611 0.960 . S
C624 C623 1.524 . S
C625 C622 1.403 . S
C625 C626 1.392 . S
C625 C629 1.495 . S
C626 C625 1.392 . S
C626 C627 1.385 . S
C626 C628 1.478 . S
C627 H621 0.930 . S
C627 C623 1.400 . S
C627 C626 1.385 . S
C628 C626 1.478 . S
C628 C630 1.381 . S
C628 C634 1.383 . S
C629 C625 1.495 . S
C629 H635 0.959 . S
C629 H636 0.961 . S
C629 H637 0.960 . S
C630 C628 1.381 . S
C630 C631 1.394 . S
C630 H638 0.930 . S
C631 C630 1.394 . S
C631 C632 1.383 . S
C631 H639 0.929 . S
C632 C631 1.383 . S
C632 C633 1.377 . S
C633 H617 0.930 . S
C633 C632 1.377 . S
C633 C634 1.379 . S
C634 H618 0.931 . S
C634 C628 1.383 . S
C634 C633 1.379 . S
H635 C629 0.959 . S
H636 C629 0.961 . S
H637 C629 0.960 . S
H638 C630 0.930 . S
H639 C631 0.929 . S
H640 C648 0.929 . S
H641 C650 0.930 . S
H642 C652 0.930 . S
H643 C655 0.929 . S
H644 C658 0.930 . S
H645 C660 0.960 . S
H646 C660 0.960 . S
H647 C660 0.960 . S
C648 H640 0.929 . S
C648 C649 1.377 . S
C648 C650 1.384 . S
C649 C648 1.377 . S
C649 C655 1.390 . S
C650 H641 0.930 . S
C650 C648 1.384 . S
C650 C651 1.372 . S
C651 C650 1.372 . S
C651 C652 1.400 . S
C651 C656 1.490 . S
C652 H642 0.930 . S
C652 C651 1.400 . S
C652 C655 1.386 . S
H653 C669 0.930 . S
H654 C670 0.931 . S
C655 H643 0.929 . S
C655 C649 1.390 . S
C655 C652 1.386 . S
C656 C651 1.490 . S
C656 C658 1.395 . S
C656 C659 1.403 . S
H657 C663 0.930 . S
C658 H644 0.930 . S
C658 C656 1.395 . S
C658 C661 1.403 . S
C659 C656 1.403 . S
C659 C660 1.524 . S
C659 C663 1.400 . S
C660 H645 0.960 . S
C660 H646 0.960 . S
C660 H647 0.960 . S
C660 C659 1.524 . S
C661 C658 1.403 . S
C661 C662 1.392 . S
C661 C665 1.495 . S
C662 C661 1.392 . S
C662 C663 1.385 . S
C662 C664 1.478 . S
C663 H657 0.930 . S
C663 C659 1.400 . S
C663 C662 1.385 . S
C664 C662 1.478 . S
C664 C666 1.381 . S
C664 C670 1.383 1_545 S
C665 C661 1.495 . S
C665 H671 0.959 . S
C665 H672 0.961 . S
C665 H673 0.960 . S
C666 C664 1.381 . S
C666 C667 1.394 1_545 S
C666 H674 0.930 . S
C667 C666 1.394 1_565 S
C667 C668 1.383 . S
C667 H675 0.930 . S
C668 C667 1.383 . S
C668 C669 1.377 . S
C669 H653 0.930 . S
C669 C668 1.377 . S
C669 C670 1.379 . S
C670 H654 0.931 . S
C670 C664 1.383 1_565 S
C670 C669 1.379 . S
H671 C665 0.959 . S
H672 C665 0.961 . S
H673 C665 0.960 . S
H674 C666 0.930 . S
H675 C667 0.930 . S
H676 C684 0.929 . S
H677 C686 0.930 . S
H678 C688 0.930 . S
H679 C691 0.929 . S
H680 C694 0.930 . S
H681 C696 0.960 . S
H682 C696 0.960 . S
H683 C696 0.960 . S
C684 H676 0.929 . S
C684 C685 1.377 . S
C684 C686 1.384 . S
C685 C684 1.377 . S
C685 C691 1.390 . S
C686 H677 0.930 . S
C686 C684 1.384 . S
C686 C687 1.372 . S
C687 C686 1.372 . S
C687 C688 1.400 . S
C687 C692 1.490 . S
C688 H678 0.930 . S
C688 C687 1.400 . S
C688 C691 1.386 . S
H689 C705 0.930 . S
H690 C706 0.931 . S
C691 H679 0.929 . S
C691 C685 1.390 . S
C691 C688 1.386 . S
C692 C687 1.490 . S
C692 C694 1.395 . S
C692 C695 1.403 . S
H693 C699 0.930 . S
C694 H680 0.930 . S
C694 C692 1.395 . S
C694 C697 1.403 . S
C695 C692 1.403 . S
C695 C696 1.524 . S
C695 C699 1.400 . S
C696 H681 0.960 . S
C696 H682 0.960 . S
C696 H683 0.960 . S
C696 C695 1.524 . S
C697 C694 1.403 . S
C697 C698 1.392 . S
C697 C701 1.495 . S
C698 C697 1.392 . S
C698 C699 1.385 . S
C698 C700 1.478 . S
C699 H693 0.930 . S
C699 C695 1.400 . S
C699 C698 1.385 . S
C700 C698 1.478 . S
C700 C702 1.381 . S
C700 C706 1.383 . S
C701 C697 1.495 . S
C701 H707 0.959 . S
C701 H708 0.961 . S
C701 H709 0.960 . S
C702 C700 1.381 . S
C702 C703 1.394 . S
C702 H710 0.930 . S
C703 C702 1.394 . S
C703 C704 1.383 . S
C703 H711 0.929 . S
C704 C703 1.383 . S
C704 C705 1.377 . S
C705 H689 0.930 . S
C705 C704 1.377 . S
C705 C706 1.379 . S
C706 H690 0.931 . S
C706 C700 1.383 . S
C706 C705 1.379 . S
H707 C701 0.959 . S
H708 C701 0.961 . S
H709 C701 0.960 . S
H710 C702 0.930 . S
H711 C703 0.929 . S
H712 C720 0.929 . S
H713 C722 0.930 . S
H714 C724 0.930 . S
H715 C727 0.929 . S
H716 C730 0.930 . S
H717 C732 0.960 . S
H718 C732 0.960 . S
H719 C732 0.960 . S
C720 H712 0.929 . S
C720 C721 1.377 . S
C720 C722 1.384 . S
C721 C720 1.377 . S
C721 C727 1.390 . S
C722 H713 0.930 . S
C722 C720 1.384 . S
C722 C723 1.372 . S
C723 C722 1.372 . S
C723 C724 1.400 . S
C723 C728 1.490 . S
C724 H714 0.930 . S
C724 C723 1.400 . S
C724 C727 1.386 . S
H725 C741 0.930 . S
H726 C742 0.931 . S
C727 H715 0.929 . S
C727 C721 1.390 . S
C727 C724 1.386 . S
C728 C723 1.490 . S
C728 C730 1.395 . S
C728 C731 1.403 . S
H729 C735 0.930 . S
C730 H716 0.930 . S
C730 C728 1.395 . S
C730 C733 1.403 . S
C731 C728 1.403 . S
C731 C732 1.524 . S
C731 C735 1.400 . S
C732 H717 0.960 . S
C732 H718 0.960 . S
C732 H719 0.960 . S
C732 C731 1.524 . S
C733 C730 1.403 . S
C733 C734 1.392 . S
C733 C737 1.495 . S
C734 C733 1.392 . S
C734 C735 1.385 . S
C734 C736 1.478 . S
C735 H729 0.930 . S
C735 C731 1.400 . S
C735 C734 1.385 . S
C736 C734 1.478 . S
C736 C738 1.381 . S
C736 C742 1.383 . S
C737 C733 1.495 . S
C737 H743 0.959 . S
C737 H744 0.961 . S
C737 H745 0.960 . S
C738 C736 1.381 . S
C738 C739 1.394 . S
C738 H746 0.930 . S
C739 C738 1.394 . S
C739 C740 1.383 . S
C739 H747 0.929 . S
C740 C739 1.383 . S
C740 C741 1.377 . S
C741 H725 0.930 . S
C741 C740 1.377 . S
C741 C742 1.379 . S
C742 H726 0.931 . S
C742 C736 1.383 . S
C742 C741 1.379 . S
H743 C737 0.959 . S
H744 C737 0.961 . S
H745 C737 0.960 . S
H746 C738 0.930 . S
H747 C739 0.929 . S
H748 C756 0.929 . S
H749 C758 0.930 . S
H750 C760 0.930 . S
H751 C763 0.929 . S
H752 C766 0.930 . S
H753 C768 0.960 . S
H754 C768 0.960 . S
H755 C768 0.960 . S
C756 H748 0.929 . S
C756 C757 1.377 . S
C756 C758 1.384 . S
C757 C756 1.377 . S
C757 C763 1.390 . S
C758 H749 0.930 . S
C758 C756 1.384 . S
C758 C759 1.372 . S
C759 C758 1.372 . S
C759 C760 1.400 . S
C759 C764 1.490 . S
C760 H750 0.930 . S
C760 C759 1.400 . S
C760 C763 1.386 . S
H761 C777 0.930 . S
H762 C778 0.931 . S
C763 H751 0.929 . S
C763 C757 1.390 . S
C763 C760 1.386 . S
C764 C759 1.490 . S
C764 C766 1.395 . S
C764 C767 1.403 . S
H765 C771 0.932 . S
C766 H752 0.930 . S
C766 C764 1.395 . S
C766 C769 1.403 1_655 S
C767 C764 1.403 . S
C767 C768 1.524 . S
C767 C771 1.389 1_655 S
C768 H753 0.960 . S
C768 H754 0.960 . S
C768 H755 0.960 . S
C768 C767 1.524 . S
C769 C766 1.403 1_455 S
C769 C770 1.392 . S
C769 C773 1.495 . S
C770 C769 1.392 . S
C770 C771 1.395 . S
C770 C772 1.478 . S
C771 H765 0.932 . S
C771 C767 1.389 1_455 S
C771 C770 1.395 . S
C772 C770 1.478 . S
C772 C774 1.381 . S
C772 C778 1.383 . S
C773 C769 1.495 . S
C773 H779 0.959 . S
C773 H780 0.961 . S
C773 H781 0.960 . S
C774 C772 1.381 . S
C774 C775 1.394 . S
C774 H782 0.930 . S
C775 C774 1.394 . S
C775 C776 1.383 . S
C775 H783 0.929 . S
C776 C775 1.383 . S
C776 C777 1.377 . S
C777 H761 0.930 . S
C777 C776 1.377 . S
C777 C778 1.379 . S
C778 H762 0.931 . S
C778 C772 1.383 . S
C778 C777 1.379 . S
H779 C773 0.959 . S
H780 C773 0.961 . S
H781 C773 0.960 . S
H782 C774 0.930 . S
H783 C775 0.929 . S
H784 C792 0.929 . S
H785 C794 0.930 . S
H786 C796 0.930 . S
H787 C799 0.929 . S
H788 C802 0.930 . S
H789 C804 0.960 . S
H790 C804 0.960 . S
H791 C804 0.960 . S
C792 H784 0.929 . S
C792 C793 1.377 . S
C792 C794 1.384 . S
C793 C792 1.377 . S
C793 C799 1.390 . S
C794 H785 0.930 . S
C794 C792 1.384 . S
C794 C795 1.372 . S
C795 C794 1.372 . S
C795 C796 1.400 . S
C795 C800 1.490 . S
C796 H786 0.930 . S
C796 C795 1.400 . S
C796 C799 1.386 . S
H797 C813 0.930 . S
H798 C814 0.931 . S
C799 H787 0.929 . S
C799 C793 1.390 . S
C799 C796 1.386 . S
C800 C795 1.490 . S
C800 C802 1.395 . S
C800 C803 1.403 . S
H801 C807 0.930 . S
C802 H788 0.930 . S
C802 C800 1.395 . S
C802 C805 1.403 . S
C803 C800 1.403 . S
C803 C804 1.524 . S
C803 C807 1.400 . S
C804 H789 0.960 . S
C804 H790 0.960 . S
C804 H791 0.960 . S
C804 C803 1.524 . S
C805 C802 1.403 . S
C805 C806 1.392 . S
C805 C809 1.495 . S
C806 C805 1.392 . S
C806 C807 1.385 . S
C806 C808 1.478 . S
C807 H801 0.930 . S
C807 C803 1.400 . S
C807 C806 1.385 . S
C808 C806 1.478 . S
C808 C810 1.381 . S
C808 C814 1.383 . S
C809 C805 1.495 . S
C809 H815 0.959 . S
C809 H816 0.961 . S
C809 H817 0.960 . S
C810 C808 1.381 . S
C810 C811 1.394 . S
C810 H818 0.930 . S
C811 C810 1.394 . S
C811 C812 1.383 . S
C811 H819 0.929 . S
C812 C811 1.383 . S
C812 C813 1.377 . S
C813 H797 0.930 . S
C813 C812 1.377 . S
C813 C814 1.379 . S
C814 H798 0.931 . S
C814 C808 1.383 . S
C814 C813 1.379 . S
H815 C809 0.959 . S
H816 C809 0.961 . S
H817 C809 0.960 . S
H818 C810 0.930 . S
H819 C811 0.929 . S
H820 C828 0.929 . S
H821 C830 0.930 . S
H822 C832 0.930 . S
H823 C835 0.929 . S
H824 C838 0.930 . S
H825 C840 0.960 . S
H826 C840 0.960 . S
H827 C840 0.960 . S
C828 H820 0.929 . S
C828 C829 1.377 . S
C828 C830 1.384 1_554 S
C829 C828 1.377 . S
C829 C835 1.390 . S
C830 H821 0.930 . S
C830 C828 1.384 1_556 S
C830 C831 1.372 . S
C831 C830 1.372 . S
C831 C832 1.400 . S
C831 C836 1.490 . S
C832 H822 0.930 . S
C832 C831 1.400 . S
C832 C835 1.386 1_556 S
H833 C849 0.930 . S
H834 C850 0.931 . S
C835 H823 0.929 . S
C835 C829 1.390 . S
C835 C832 1.386 1_554 S
C836 C831 1.490 . S
C836 C838 1.395 . S
C836 C839 1.403 . S
H837 C843 0.930 . S
C838 H824 0.930 . S
C838 C836 1.395 . S
C838 C841 1.403 . S
C839 C836 1.403 . S
C839 C840 1.524 . S
C839 C843 1.400 . S
C840 H825 0.960 . S
C840 H826 0.960 . S
C840 H827 0.960 . S
C840 C839 1.524 . S
C841 C838 1.403 . S
C841 C842 1.392 . S
C841 C845 1.495 . S
C842 C841 1.392 . S
C842 C843 1.385 . S
C842 C844 1.478 . S
C843 H837 0.930 . S
C843 C839 1.400 . S
C843 C842 1.385 . S
C844 C842 1.478 . S
C844 C846 1.381 . S
C844 C850 1.383 1_455 S
C845 C841 1.495 . S
C845 H851 0.959 . S
C845 H852 0.961 1_455 S
C845 H853 0.960 . S
C846 C844 1.381 . S
C846 C847 1.394 1_455 S
C846 H854 0.930 . S
C847 C846 1.394 1_655 S
C847 C848 1.383 . S
C847 H855 0.929 . S
C848 C847 1.383 . S
C848 C849 1.377 . S
C849 H833 0.930 . S
C849 C848 1.377 . S
C849 C850 1.379 . S
C850 H834 0.931 . S
C850 C844 1.383 1_655 S
C850 C849 1.379 . S
H851 C845 0.959 . S
H852 C845 0.961 1_655 S
H853 C845 0.960 . S
H854 C846 0.930 . S
H855 C847 0.929 . S
H856 C864 0.929 . S
H857 C866 0.930 . S
H858 C868 0.930 . S
H859 C871 0.929 . S
H860 C874 0.930 . S
H861 C876 0.960 . S
H862 C876 0.960 . S
H863 C876 0.960 . S
C864 H856 0.929 . S
C864 C865 1.377 . S
C864 C866 1.384 . S
C865 C864 1.377 . S
C865 C871 1.390 . S
C866 H857 0.930 . S
C866 C864 1.384 . S
C866 C867 1.372 . S
C867 C866 1.372 . S
C867 C868 1.400 . S
C867 C872 1.490 . S
C868 H858 0.930 . S
C868 C867 1.400 . S
C868 C871 1.386 . S
H869 C885 0.930 . S
H870 C886 0.931 . S
C871 H859 0.929 . S
C871 C865 1.390 . S
C871 C868 1.386 . S
C872 C867 1.490 . S
C872 C874 1.395 . S
C872 C875 1.403 . S
H873 C879 0.930 . S
C874 H860 0.930 . S
C874 C872 1.395 . S
C874 C877 1.403 1_545 S
C875 C872 1.403 . S
C875 C876 1.524 . S
C875 C879 1.400 1_545 S
C876 H861 0.960 . S
C876 H862 0.960 . S
C876 H863 0.960 . S
C876 C875 1.524 . S
C877 C874 1.403 1_565 S
C877 C878 1.392 . S
C877 C881 1.495 . S
C878 C877 1.392 . S
C878 C879 1.385 . S
C878 C880 1.478 . S
C879 H873 0.930 . S
C879 C875 1.400 1_565 S
C879 C878 1.385 . S
C880 C878 1.478 . S
C880 C882 1.381 . S
C880 C886 1.383 . S
C881 C877 1.495 . S
C881 H887 0.959 . S
C881 H888 0.961 . S
C881 H889 0.960 . S
C882 C880 1.381 . S
C882 C883 1.394 . S
C882 H890 0.930 . S
C883 C882 1.394 . S
C883 C884 1.383 . S
C883 H891 0.929 . S
C884 C883 1.383 . S
C884 C885 1.377 . S
C885 H869 0.930 . S
C885 C884 1.377 . S
C885 C886 1.379 . S
C886 H870 0.931 . S
C886 C880 1.383 . S
C886 C885 1.379 . S
H887 C881 0.959 . S
H888 C881 0.961 . S
H889 C881 0.960 . S
H890 C882 0.930 . S
H891 C883 0.929 . S
H892 C900 0.929 . S
H893 C902 0.930 . S
H894 C904 0.930 . S
H895 C907 0.929 . S
H896 C910 0.930 . S
H897 C912 0.960 . S
H898 C912 0.960 . S
H899 C912 0.960 . S
C900 H892 0.929 . S
C900 C901 1.377 . S
C900 C902 1.384 . S
C901 C900 1.377 . S
C901 C907 1.390 . S
C902 H893 0.930 . S
C902 C900 1.384 . S
C902 C903 1.372 . S
C903 C902 1.372 . S
C903 C904 1.400 . S
C903 C908 1.490 . S
C904 H894 0.930 . S
C904 C903 1.400 . S
C904 C907 1.386 . S
H905 C921 0.930 . S
H906 C922 0.931 . S
C907 H895 0.929 . S
C907 C901 1.390 . S
C907 C904 1.386 . S
C908 C903 1.490 . S
C908 C910 1.395 . S
C908 C911 1.403 . S
H909 C915 0.930 . S
C910 H896 0.930 . S
C910 C908 1.395 . S
C910 C913 1.403 . S
C911 C908 1.403 . S
C911 C912 1.524 . S
C911 C915 1.400 . S
C912 H897 0.960 . S
C912 H898 0.960 . S
C912 H899 0.960 . S
C912 C911 1.524 . S
C913 C910 1.403 . S
C913 C914 1.392 . S
C913 C917 1.495 . S
C914 C913 1.392 . S
C914 C915 1.385 . S
C914 C916 1.478 . S
C915 H909 0.930 . S
C915 C911 1.400 . S
C915 C914 1.385 . S
C916 C914 1.478 . S
C916 C918 1.381 . S
C916 C922 1.383 . S
C917 C913 1.495 . S
C917 H923 0.959 . S
C917 H924 0.961 . S
C917 H925 0.960 . S
C918 C916 1.381 . S
C918 C919 1.394 . S
C918 H926 0.930 . S
C919 C918 1.394 . S
C919 C920 1.383 . S
C919 H927 0.929 . S
C920 C919 1.383 . S
C920 C921 1.377 . S
C921 H905 0.930 . S
C921 C920 1.377 . S
C921 C922 1.379 . S
C922 H906 0.931 . S
C922 C916 1.383 . S
C922 C921 1.379 . S
H923 C917 0.959 . S
H924 C917 0.961 . S
H925 C917 0.960 . S
H926 C918 0.930 . S
H927 C919 0.929 . S
H928 C936 0.929 . S
H929 C938 0.930 . S
H930 C940 0.930 . S
H931 C943 0.929 . S
H932 C946 0.930 . S
H933 C948 0.961 . S
H934 C948 0.978 . S
H935 C948 0.968 . S
C936 H928 0.929 . S
C936 C937 1.377 . S
C936 C938 1.384 1_554 S
C937 C936 1.377 . S
C937 C943 1.390 . S
C938 H929 0.930 . S
C938 C936 1.384 1_556 S
C938 C939 1.372 . S
C939 C938 1.372 . S
C939 C940 1.400 . S
C939 C944 1.490 . S
C940 H930 0.930 . S
C940 C939 1.400 . S
C940 C943 1.386 1_556 S
H941 C957 0.930 . S
H942 C958 0.927 1_565 S
C943 H931 0.929 . S
C943 C937 1.390 . S
C943 C940 1.386 1_554 S
C944 C939 1.490 . S
C944 C946 1.395 . S
C944 C947 1.403 . S
H945 C951 0.930 . S
C946 H932 0.930 . S
C946 C944 1.395 . S
C946 C949 1.403 . S
C947 C944 1.403 . S
C947 C948 1.499 1_556 S
C947 C951 1.400 . S
C948 H933 0.961 . S
C948 H934 0.978 . S
C948 H935 0.968 . S
C948 C947 1.499 1_554 S
C949 C946 1.403 . S
C949 C950 1.392 . S
C949 C953 1.495 . S
C950 C949 1.392 . S
C950 C951 1.385 . S
C950 C952 1.478 . S
C951 H945 0.930 . S
C951 C947 1.400 . S
C951 C950 1.385 . S
C952 C950 1.478 . S
C952 C954 1.381 . S
C952 C958 1.377 1_565 S
C953 C949 1.495 . S
C953 H959 0.959 . S
C953 H960 0.961 . S
C953 H961 0.960 . S
C954 C952 1.381 . S
C954 C955 1.394 1_565 S
C954 H962 0.930 . S
C955 C954 1.394 1_545 S
C955 C956 1.383 . S
C955 H963 0.929 . S
C956 C955 1.383 . S
C956 C957 1.377 . S
C957 H941 0.930 . S
C957 C956 1.377 . S
C957 C958 1.386 . S
C958 H942 0.927 1_545 S
C958 C952 1.377 1_545 S
C958 C957 1.386 . S
H959 C953 0.959 . S
H960 C953 0.961 . S
H961 C953 0.960 . S
H962 C954 0.930 . S
H963 C955 0.929 . S
H964 C972 0.929 . S
H965 C974 0.930 . S
H966 C976 0.930 . S
H967 C979 0.929 . S
H968 C982 0.930 . S
H969 C984 0.960 . S
H970 C984 0.960 . S
H971 C984 0.960 . S
C972 H964 0.929 . S
C972 C973 1.377 . S
C972 C974 1.384 . S
C973 C972 1.377 . S
C973 C979 1.390 . S
C974 H965 0.930 . S
C974 C972 1.384 . S
C974 C975 1.372 . S
C975 C974 1.372 . S
C975 C976 1.400 . S
C975 C980 1.490 . S
C976 H966 0.930 . S
C976 C975 1.400 . S
C976 C979 1.386 . S
H977 C993 0.930 . S
H978 C994 0.931 . S
C979 H967 0.929 . S
C979 C973 1.390 . S
C979 C976 1.386 . S
C980 C975 1.490 . S
C980 C982 1.395 . S
C980 C983 1.403 . S
H981 C987 0.930 . S
C982 H968 0.930 . S
C982 C980 1.395 . S
C982 C985 1.403 . S
C983 C980 1.403 . S
C983 C984 1.524 . S
C983 C987 1.400 . S
C984 H969 0.960 . S
C984 H970 0.960 . S
C984 H971 0.960 . S
C984 C983 1.524 . S
C985 C982 1.403 . S
C985 C986 1.392 . S
C985 C989 1.495 . S
C986 C985 1.392 . S
C986 C987 1.385 . S
C986 C988 1.478 . S
C987 H981 0.930 . S
C987 C983 1.400 . S
C987 C986 1.385 . S
C988 C986 1.478 . S
C988 C990 1.381 . S
C988 C994 1.383 . S
C989 C985 1.495 . S
C989 H995 0.959 . S
C989 H996 0.961 . S
C989 H997 0.960 . S
C990 C988 1.381 . S
C990 C991 1.394 . S
C990 H998 0.930 . S
C991 C990 1.394 . S
C991 C992 1.383 . S
C991 H999 0.929 . S
C992 C991 1.383 . S
C992 C993 1.377 . S
C993 H977 0.930 . S
C993 C992 1.377 . S
C993 C994 1.379 . S
C994 H978 0.931 . S
C994 C988 1.383 . S
C994 C993 1.379 . S
H995 C989 0.959 . S
H996 C989 0.961 . S
H997 C989 0.960 . S
H998 C990 0.930 . S
H999 C991 0.929 . S
H1000 C1008 0.929 . S
H1001 C1010 0.930 . S
H1002 C1012 0.930 . S
H1003 C1015 0.929 . S
H1004 C1018 0.930 . S
H1005 C1020 0.960 . S
H1006 C1020 0.960 . S
H1007 C1020 0.960 . S
C1008 H1000 0.929 . S
C1008 C1009 1.377 . S
C1008 C1010 1.384 . S
C1009 C1008 1.377 . S
C1009 C1015 1.390 . S
C1010 H1001 0.930 . S
C1010 C1008 1.384 . S
C1010 C1011 1.372 . S
C1011 C1010 1.372 . S
C1011 C1012 1.400 . S
C1011 C1016 1.490 . S
C1012 H1002 0.930 . S
C1012 C1011 1.400 . S
C1012 C1015 1.386 . S
H1013 C1029 0.930 . S
H1014 C1030 0.931 . S
C1015 H1003 0.929 . S
C1015 C1009 1.390 . S
C1015 C1012 1.386 . S
C1016 C1011 1.490 . S
C1016 C1018 1.395 . S
C1016 C1019 1.403 . S
H1017 C1023 0.930 . S
C1018 H1004 0.930 . S
C1018 C1016 1.395 . S
C1018 C1021 1.403 . S
C1019 C1016 1.403 . S
C1019 C1020 1.524 . S
C1019 C1023 1.400 . S
C1020 H1005 0.960 . S
C1020 H1006 0.960 . S
C1020 H1007 0.960 . S
C1020 C1019 1.524 . S
C1021 C1018 1.403 . S
C1021 C1022 1.392 . S
C1021 C1025 1.495 . S
C1022 C1021 1.392 . S
C1022 C1023 1.385 . S
C1022 C1024 1.478 . S
C1023 H1017 0.930 . S
C1023 C1019 1.400 . S
C1023 C1022 1.385 . S
C1024 C1022 1.478 . S
C1024 C1026 1.381 . S
C1024 C1030 1.383 . S
C1025 C1021 1.495 . S
C1025 H1031 0.959 . S
C1025 H1032 0.961 . S
C1025 H1033 0.960 . S
C1026 C1024 1.381 . S
C1026 C1027 1.394 . S
C1026 H1034 0.930 . S
C1027 C1026 1.394 . S
C1027 C1028 1.383 . S
C1027 H1035 0.929 . S
C1028 C1027 1.383 . S
C1028 C1029 1.377 . S
C1029 H1013 0.930 . S
C1029 C1028 1.377 . S
C1029 C1030 1.379 . S
C1030 H1014 0.931 . S
C1030 C1024 1.383 . S
C1030 C1029 1.379 . S
H1031 C1025 0.959 . S
H1032 C1025 0.961 . S
H1033 C1025 0.960 . S
H1034 C1026 0.930 . S
H1035 C1027 0.929 . S
H1036 C1044 0.929 . S
H1037 C1046 0.930 . S
H1038 C1048 0.930 . S
H1039 C1051 0.929 . S
H1040 C1054 0.930 . S
H1041 C1056 0.960 1_655 S
H1042 C1056 0.960 . S
H1043 C1056 0.960 . S
C1044 H1036 0.929 . S
C1044 C1045 1.377 . S
C1044 C1046 1.384 . S
C1045 C1044 1.377 . S
C1045 C1051 1.390 . S
C1046 H1037 0.930 . S
C1046 C1044 1.384 . S
C1046 C1047 1.372 . S
C1047 C1046 1.372 . S
C1047 C1048 1.400 . S
C1047 C1052 1.490 . S
C1048 H1038 0.930 . S
C1048 C1047 1.400 . S
C1048 C1051 1.386 . S
H1049 C1065 0.930 . S
H1050 C1066 0.931 . S
C1051 H1039 0.929 . S
C1051 C1045 1.390 . S
C1051 C1048 1.386 . S
C1052 C1047 1.490 . S
C1052 C1054 1.395 . S
C1052 C1055 1.403 . S
H1053 C1059 0.930 . S
C1054 H1040 0.930 . S
C1054 C1052 1.395 . S
C1054 C1057 1.403 . S
C1055 C1052 1.403 . S
C1055 C1056 1.524 . S
C1055 C1059 1.400 1_455 S
C1056 H1041 0.960 1_455 S
C1056 H1042 0.960 . S
C1056 H1043 0.960 . S
C1056 C1055 1.524 . S
C1057 C1054 1.403 . S
C1057 C1058 1.392 1_455 S
C1057 C1061 1.495 . S
C1058 C1057 1.392 1_655 S
C1058 C1059 1.385 . S
C1058 C1060 1.478 . S
C1059 H1053 0.930 . S
C1059 C1055 1.400 1_655 S
C1059 C1058 1.385 . S
C1060 C1058 1.478 . S
C1060 C1062 1.381 . S
C1060 C1066 1.383 . S
C1061 C1057 1.495 . S
C1061 H1067 0.959 . S
C1061 H1068 0.961 1_455 S
C1061 H1069 0.960 1_455 S
C1062 C1060 1.381 . S
C1062 C1063 1.394 . S
C1062 H1070 0.930 . S
C1063 C1062 1.394 . S
C1063 C1064 1.383 . S
C1063 H1071 0.929 . S
C1064 C1063 1.383 . S
C1064 C1065 1.377 . S
C1065 H1049 0.930 . S
C1065 C1064 1.377 . S
C1065 C1066 1.379 . S
C1066 H1050 0.931 . S
C1066 C1060 1.383 . S
C1066 C1065 1.379 . S
H1067 C1061 0.959 . S
H1068 C1061 0.961 1_655 S
H1069 C1061 0.960 1_655 S
H1070 C1062 0.930 . S
H1071 C1063 0.929 . S
H1072 C1080 0.929 . S
H1073 C1082 0.930 . S
H1074 C1084 0.930 . S
H1075 C1087 0.929 . S
H1076 C1090 0.930 . S
H1077 C1092 0.960 . S
H1078 C1092 0.960 . S
H1079 C1092 0.960 . S
C1080 H1072 0.929 . S
C1080 C1081 1.377 . S
C1080 C1082 1.384 . S
C1081 C1080 1.377 . S
C1081 C1087 1.390 . S
C1082 H1073 0.930 . S
C1082 C1080 1.384 . S
C1082 C1083 1.372 . S
C1083 C1082 1.372 . S
C1083 C1084 1.400 . S
C1083 C1088 1.490 . S
C1084 H1074 0.930 . S
C1084 C1083 1.400 . S
C1084 C1087 1.386 . S
H1085 C1101 0.930 . S
H1086 C1102 0.931 . S
C1087 H1075 0.929 . S
C1087 C1081 1.390 . S
C1087 C1084 1.386 . S
C1088 C1083 1.490 . S
C1088 C1090 1.395 . S
C1088 C1091 1.403 . S
H1089 C1095 0.930 . S
C1090 H1076 0.930 . S
C1090 C1088 1.395 . S
C1090 C1093 1.403 . S
C1091 C1088 1.403 . S
C1091 C1092 1.524 . S
C1091 C1095 1.400 . S
C1092 H1077 0.960 . S
C1092 H1078 0.960 . S
C1092 H1079 0.960 . S
C1092 C1091 1.524 . S
C1093 C1090 1.403 . S
C1093 C1094 1.392 . S
C1093 C1097 1.495 . S
C1094 C1093 1.392 . S
C1094 C1095 1.385 . S
C1094 C1096 1.478 . S
C1095 H1089 0.930 . S
C1095 C1091 1.400 . S
C1095 C1094 1.385 . S
C1096 C1094 1.478 . S
C1096 C1098 1.381 . S
C1096 C1102 1.383 . S
C1097 C1093 1.495 . S
C1097 H1103 0.959 . S
C1097 H1104 0.961 . S
C1097 H1105 0.960 . S
C1098 C1096 1.381 . S
C1098 C1099 1.394 . S
C1098 H1106 0.930 . S
C1099 C1098 1.394 . S
C1099 C1100 1.383 . S
C1099 H1107 0.929 . S
C1100 C1099 1.383 . S
C1100 C1101 1.377 . S
C1101 H1085 0.930 . S
C1101 C1100 1.377 . S
C1101 C1102 1.379 . S
C1102 H1086 0.931 . S
C1102 C1096 1.383 . S
C1102 C1101 1.379 . S
H1103 C1097 0.959 . S
H1104 C1097 0.961 . S
H1105 C1097 0.960 . S
H1106 C1098 0.930 . S
H1107 C1099 0.929 . S
H1108 C1116 0.929 . S
H1109 C1118 0.930 . S
H1110 C1120 0.930 . S
H1111 C1123 0.929 . S
H1112 C1126 0.930 . S
H1113 C1128 0.960 . S
H1114 C1128 0.960 . S
H1115 C1128 0.960 . S
C1116 H1108 0.929 . S
C1116 C1117 1.377 . S
C1116 C1118 1.384 . S
C1117 C1116 1.377 . S
C1117 C1123 1.390 . S
C1118 H1109 0.930 . S
C1118 C1116 1.384 . S
C1118 C1119 1.372 . S
C1119 C1118 1.372 . S
C1119 C1120 1.400 . S
C1119 C1124 1.490 . S
C1120 H1110 0.930 . S
C1120 C1119 1.400 . S
C1120 C1123 1.386 . S
H1121 C1137 0.930 . S
H1122 C1138 0.931 . S
C1123 H1111 0.929 . S
C1123 C1117 1.390 . S
C1123 C1120 1.386 . S
C1124 C1119 1.490 . S
C1124 C1126 1.395 . S
C1124 C1127 1.403 . S
H1125 C1131 0.930 . S
C1126 H1112 0.930 . S
C1126 C1124 1.395 . S
C1126 C1129 1.403 . S
C1127 C1124 1.403 . S
C1127 C1128 1.524 . S
C1127 C1131 1.400 . S
C1128 H1113 0.960 . S
C1128 H1114 0.960 . S
C1128 H1115 0.960 . S
C1128 C1127 1.524 . S
C1129 C1126 1.403 . S
C1129 C1130 1.392 . S
C1129 C1133 1.511 . S
C1130 C1129 1.392 . S
C1130 C1131 1.385 . S
C1130 C1132 1.478 . S
C1131 H1125 0.930 . S
C1131 C1127 1.400 . S
C1131 C1130 1.385 . S
C1132 C1130 1.478 . S
C1132 C1134 1.381 . S
C1132 C1138 1.383 . S
C1133 C1129 1.511 . S
C1133 H1139 0.956 . S
C1133 H1140 0.947 1_655 S
C1133 H1141 0.956 1_655 S
C1134 C1132 1.381 . S
C1134 C1135 1.394 1_655 S
C1134 H1142 0.930 . S
C1135 C1134 1.394 1_455 S
C1135 C1136 1.383 . S
C1135 H1143 0.929 . S
C1136 C1135 1.383 . S
C1136 C1137 1.377 . S
C1137 H1121 0.930 . S
C1137 C1136 1.377 . S
C1137 C1138 1.379 1_455 S
C1138 H1122 0.931 . S
C1138 C1132 1.383 . S
C1138 C1137 1.379 1_655 S
H1139 C1133 0.956 . S
H1140 C1133 0.947 1_455 S
H1141 C1133 0.956 1_455 S
H1142 C1134 0.930 . S
H1143 C1135 0.929 . S
H1144 C1152 0.929 . S
H1145 C1154 0.930 . S
H1146 C1156 0.930 . S
H1147 C1159 0.929 . S
H1148 C1162 0.930 . S
H1149 C1164 0.960 . S
H1150 C1164 0.960 . S
H1151 C1164 0.960 . S
C1152 H1144 0.929 . S
C1152 C1153 1.377 . S
C1152 C1154 1.384 . S
C1153 C1152 1.377 . S
C1153 C1159 1.390 . S
C1154 H1145 0.930 . S
C1154 C1152 1.384 . S
C1154 C1155 1.372 . S
C1155 C1154 1.372 . S
C1155 C1156 1.400 . S
C1155 C1160 1.490 . S
C1156 H1146 0.930 . S
C1156 C1155 1.400 . S
C1156 C1159 1.386 . S
H1157 C1173 0.930 . S
H1158 C1174 0.931 . S
C1159 H1147 0.929 . S
C1159 C1153 1.390 . S
C1159 C1156 1.386 . S
C1160 C1155 1.490 . S
C1160 C1162 1.395 . S
C1160 C1163 1.403 . S
H1161 C1167 0.930 . S
C1162 H1148 0.930 . S
C1162 C1160 1.395 . S
C1162 C1165 1.403 . S
C1163 C1160 1.403 . S
C1163 C1164 1.524 . S
C1163 C1167 1.400 . S
C1164 H1149 0.960 . S
C1164 H1150 0.960 . S
C1164 H1151 0.960 . S
C1164 C1163 1.524 . S
C1165 C1162 1.403 . S
C1165 C1166 1.392 . S
C1165 C1169 1.495 . S
C1166 C1165 1.392 . S
C1166 C1167 1.385 . S
C1166 C1168 1.478 . S
C1167 H1161 0.930 . S
C1167 C1163 1.400 . S
C1167 C1166 1.385 . S
C1168 C1166 1.478 . S
C1168 C1170 1.381 . S
C1168 C1174 1.383 . S
C1169 C1165 1.495 . S
C1169 H1175 0.959 . S
C1169 H1176 0.961 . S
C1169 H1177 0.960 . S
C1170 C1168 1.381 . S
C1170 C1171 1.394 . S
C1170 H1178 0.930 . S
C1171 C1170 1.394 . S
C1171 C1172 1.383 . S
C1171 H1179 0.929 . S
C1172 C1171 1.383 . S
C1172 C1173 1.377 . S
C1173 H1157 0.930 . S
C1173 C1172 1.377 . S
C1173 C1174 1.379 . S
C1174 H1158 0.931 . S
C1174 C1168 1.383 . S
C1174 C1173 1.379 . S
H1175 C1169 0.959 . S
H1176 C1169 0.961 . S
H1177 C1169 0.960 . S
H1178 C1170 0.930 . S
H1179 C1171 0.929 . S
H1180 C1188 0.929 . S
H1181 C1190 0.930 . S
H1182 C1192 0.930 . S
H1183 C1195 0.929 . S
H1184 C1198 0.930 . S
H1185 C1200 0.960 . S
H1186 C1200 0.960 . S
H1187 C1200 0.960 . S
C1188 H1180 0.929 . S
C1188 C1189 1.377 . S
C1188 C1190 1.384 . S
C1189 C1188 1.377 . S
C1189 C1195 1.390 . S
C1190 H1181 0.930 . S
C1190 C1188 1.384 . S
C1190 C1191 1.372 . S
C1191 C1190 1.372 . S
C1191 C1192 1.400 . S
C1191 C1196 1.490 . S
C1192 H1182 0.930 . S
C1192 C1191 1.400 . S
C1192 C1195 1.386 . S
H1193 C1209 0.930 . S
H1194 C1210 0.931 . S
C1195 H1183 0.929 . S
C1195 C1189 1.390 . S
C1195 C1192 1.386 . S
C1196 C1191 1.490 . S
C1196 C1198 1.395 . S
C1196 C1199 1.403 . S
H1197 C1203 0.930 . S
C1198 H1184 0.930 . S
C1198 C1196 1.395 . S
C1198 C1201 1.403 . S
C1199 C1196 1.403 . S
C1199 C1200 1.524 . S
C1199 C1203 1.400 . S
C1200 H1185 0.960 . S
C1200 H1186 0.960 . S
C1200 H1187 0.960 . S
C1200 C1199 1.524 . S
C1201 C1198 1.403 . S
C1201 C1202 1.392 . S
C1201 C1205 1.495 . S
C1202 C1201 1.392 . S
C1202 C1203 1.385 . S
C1202 C1204 1.478 . S
C1203 H1197 0.930 . S
C1203 C1199 1.400 . S
C1203 C1202 1.385 . S
C1204 C1202 1.478 . S
C1204 C1206 1.381 . S
C1204 C1210 1.383 . S
C1205 C1201 1.495 . S
C1205 H1211 0.959 . S
C1205 H1212 0.961 . S
C1205 H1213 0.960 . S
C1206 C1204 1.381 . S
C1206 C1207 1.394 . S
C1206 H1214 0.930 . S
C1207 C1206 1.394 . S
C1207 C1208 1.383 . S
C1207 H1215 0.929 . S
C1208 C1207 1.383 . S
C1208 C1209 1.377 . S
C1209 H1193 0.930 . S
C1209 C1208 1.377 . S
C1209 C1210 1.379 . S
C1210 H1194 0.931 . S
C1210 C1204 1.383 . S
C1210 C1209 1.379 . S
H1211 C1205 0.959 . S
H1212 C1205 0.961 . S
H1213 C1205 0.960 . S
H1214 C1206 0.930 . S
H1215 C1207 0.929 . S
H1216 C1224 0.929 . S
H1217 C1226 0.930 . S
H1218 C1228 0.930 . S
H1219 C1231 0.929 . S
H1220 C1234 0.930 . S
H1221 C1236 0.960 . S
H1222 C1236 0.960 . S
H1223 C1236 0.960 . S
C1224 H1216 0.929 . S
C1224 C1225 1.377 . S
C1224 C1226 1.384 . S
C1225 C1224 1.377 . S
C1225 C1231 1.390 . S
C1226 H1217 0.930 . S
C1226 C1224 1.384 . S
C1226 C1227 1.372 . S
C1227 C1226 1.372 . S
C1227 C1228 1.400 . S
C1227 C1232 1.490 . S
C1228 H1218 0.930 . S
C1228 C1227 1.400 . S
C1228 C1231 1.386 . S
H1229 C1245 0.930 . S
H1230 C1246 0.931 . S
C1231 H1219 0.929 . S
C1231 C1225 1.390 . S
C1231 C1228 1.386 . S
C1232 C1227 1.490 . S
C1232 C1234 1.395 . S
C1232 C1235 1.403 . S
H1233 C1239 0.930 . S
C1234 H1220 0.930 . S
C1234 C1232 1.395 . S
C1234 C1237 1.403 . S
C1235 C1232 1.403 . S
C1235 C1236 1.524 . S
C1235 C1239 1.400 . S
C1236 H1221 0.960 . S
C1236 H1222 0.960 . S
C1236 H1223 0.960 . S
C1236 C1235 1.524 . S
C1237 C1234 1.403 . S
C1237 C1238 1.392 . S
C1237 C1241 1.495 . S
C1238 C1237 1.392 . S
C1238 C1239 1.385 . S
C1238 C1240 1.478 . S
C1239 H1233 0.930 . S
C1239 C1235 1.400 . S
C1239 C1238 1.385 . S
C1240 C1238 1.478 . S
C1240 C1242 1.381 . S
C1240 C1246 1.383 . S
C1241 C1237 1.495 . S
C1241 H1247 0.959 . S
C1241 H1248 0.961 . S
C1241 H1249 0.960 . S
C1242 C1240 1.381 . S
C1242 C1243 1.394 . S
C1242 H1250 0.930 . S
C1243 C1242 1.394 . S
C1243 C1244 1.383 . S
C1243 H1251 0.929 . S
C1244 C1243 1.383 . S
C1244 C1245 1.377 . S
C1245 H1229 0.930 . S
C1245 C1244 1.377 . S
C1245 C1246 1.379 . S
C1246 H1230 0.931 . S
C1246 C1240 1.383 . S
C1246 C1245 1.379 . S
H1247 C1241 0.959 . S
H1248 C1241 0.961 . S
H1249 C1241 0.960 . S
H1250 C1242 0.930 . S
H1251 C1243 0.929 . S
H1252 C1260 0.929 . S
H1253 C1262 0.930 . S
H1254 C1264 0.930 . S
H1255 C1267 0.929 . S
H1256 C1270 0.930 . S
H1257 C1272 0.960 . S
H1258 C1272 0.960 . S
H1259 C1272 0.960 . S
C1260 H1252 0.929 . S
C1260 C1261 1.377 . S
C1260 C1262 1.384 . S
C1261 C1260 1.377 . S
C1261 C1267 1.390 . S
C1262 H1253 0.930 . S
C1262 C1260 1.384 . S
C1262 C1263 1.372 . S
C1263 C1262 1.372 . S
C1263 C1264 1.400 . S
C1263 C1268 1.490 . S
C1264 H1254 0.930 . S
C1264 C1263 1.400 . S
C1264 C1267 1.386 . S
H1265 C1281 0.930 . S
H1266 C1282 0.931 . S
C1267 H1255 0.929 . S
C1267 C1261 1.390 . S
C1267 C1264 1.386 . S
C1268 C1263 1.490 . S
C1268 C1270 1.395 . S
C1268 C1271 1.403 . S
H1269 C1275 0.930 . S
C1270 H1256 0.930 . S
C1270 C1268 1.395 . S
C1270 C1273 1.403 . S
C1271 C1268 1.403 . S
C1271 C1272 1.524 . S
C1271 C1275 1.400 . S
C1272 H1257 0.960 . S
C1272 H1258 0.960 . S
C1272 H1259 0.960 . S
C1272 C1271 1.524 . S
C1273 C1270 1.403 . S
C1273 C1274 1.392 . S
C1273 C1277 1.495 . S
C1274 C1273 1.392 . S
C1274 C1275 1.385 . S
C1274 C1276 1.478 . S
C1275 H1269 0.930 . S
C1275 C1271 1.400 . S
C1275 C1274 1.385 . S
C1276 C1274 1.478 . S
C1276 C1278 1.381 . S
C1276 C1282 1.383 . S
C1277 C1273 1.495 . S
C1277 H1283 0.959 . S
C1277 H1284 0.961 . S
C1277 H1285 0.960 . S
C1278 C1276 1.381 . S
C1278 C1279 1.394 . S
C1278 H1286 0.930 . S
C1279 C1278 1.394 . S
C1279 C1280 1.383 . S
C1279 H1287 0.929 . S
C1280 C1279 1.383 . S
C1280 C1281 1.377 . S
C1281 H1265 0.930 . S
C1281 C1280 1.377 . S
C1281 C1282 1.379 . S
C1282 H1266 0.931 . S
C1282 C1276 1.383 . S
C1282 C1281 1.379 . S
H1283 C1277 0.959 . S
H1284 C1277 0.961 . S
H1285 C1277 0.960 . S
H1286 C1278 0.930 . S
H1287 C1279 0.929 . S
H1288 C1296 0.929 . S
H1289 C1298 0.930 . S
H1290 C1300 0.930 . S
H1291 C1303 0.929 . S
H1292 C1306 0.930 . S
H1293 C1308 0.960 . S
H1294 C1308 0.960 . S
H1295 C1308 0.960 . S
C1296 H1288 0.929 . S
C1296 C1297 1.377 . S
C1296 C1298 1.384 . S
C1297 C1296 1.377 . S
C1297 C1303 1.390 . S
C1298 H1289 0.930 . S
C1298 C1296 1.384 . S
C1298 C1299 1.372 . S
C1299 C1298 1.372 . S
C1299 C1300 1.400 . S
C1299 C1304 1.490 . S
C1300 H1290 0.930 . S
C1300 C1299 1.400 . S
C1300 C1303 1.386 . S
H1301 C1317 0.930 . S
H1302 C1318 0.931 . S
C1303 H1291 0.929 . S
C1303 C1297 1.390 . S
C1303 C1300 1.386 . S
C1304 C1299 1.490 . S
C1304 C1306 1.395 . S
C1304 C1307 1.403 . S
H1305 C1311 0.930 . S
C1306 H1292 0.930 . S
C1306 C1304 1.395 . S
C1306 C1309 1.403 . S
C1307 C1304 1.403 . S
C1307 C1308 1.524 . S
C1307 C1311 1.400 . S
C1308 H1293 0.960 . S
C1308 H1294 0.960 . S
C1308 H1295 0.960 . S
C1308 C1307 1.524 . S
C1309 C1306 1.403 . S
C1309 C1310 1.392 . S
C1309 C1313 1.495 . S
C1310 C1309 1.392 . S
C1310 C1311 1.385 . S
C1310 C1312 1.478 . S
C1311 H1305 0.930 . S
C1311 C1307 1.400 . S
C1311 C1310 1.385 . S
C1312 C1310 1.478 . S
C1312 C1314 1.381 . S
C1312 C1318 1.383 . S
C1313 C1309 1.495 . S
C1313 H1319 0.959 . S
C1313 H1320 0.961 . S
C1313 H1321 0.960 . S
C1314 C1312 1.381 . S
C1314 C1315 1.394 . S
C1314 H1322 0.930 . S
C1315 C1314 1.394 . S
C1315 C1316 1.383 . S
C1315 H1323 0.929 . S
C1316 C1315 1.383 . S
C1316 C1317 1.377 . S
C1317 H1301 0.930 . S
C1317 C1316 1.377 . S
C1317 C1318 1.379 . S
C1318 H1302 0.931 . S
C1318 C1312 1.383 . S
C1318 C1317 1.379 . S
H1319 C1313 0.959 . S
H1320 C1313 0.961 . S
H1321 C1313 0.960 . S
H1322 C1314 0.930 . S
H1323 C1315 0.929 . S
H1324 C1332 0.929 . S
H1325 C1334 0.930 . S
H1326 C1336 0.930 . S
H1327 C1339 0.929 . S
H1328 C1342 0.930 . S
H1329 C1344 0.960 . S
H1330 C1344 0.960 . S
H1331 C1344 0.960 . S
C1332 H1324 0.929 . S
C1332 C1333 1.377 . S
C1332 C1334 1.384 . S
C1333 C1332 1.377 . S
C1333 C1339 1.390 . S
C1334 H1325 0.930 . S
C1334 C1332 1.384 . S
C1334 C1335 1.372 . S
C1335 C1334 1.372 . S
C1335 C1336 1.400 . S
C1335 C1340 1.490 . S
C1336 H1326 0.930 . S
C1336 C1335 1.400 . S
C1336 C1339 1.386 . S
H1337 C1353 0.930 . S
H1338 C1354 0.931 . S
C1339 H1327 0.929 . S
C1339 C1333 1.390 . S
C1339 C1336 1.386 . S
C1340 C1335 1.490 . S
C1340 C1342 1.395 . S
C1340 C1343 1.403 . S
H1341 C1347 0.930 . S
C1342 H1328 0.930 . S
C1342 C1340 1.395 . S
C1342 C1345 1.403 . S
C1343 C1340 1.403 . S
C1343 C1344 1.524 . S
C1343 C1347 1.400 . S
C1344 H1329 0.960 . S
C1344 H1330 0.960 . S
C1344 H1331 0.960 . S
C1344 C1343 1.524 . S
C1345 C1342 1.403 . S
C1345 C1346 1.392 . S
C1345 C1349 1.495 . S
C1346 C1345 1.392 . S
C1346 C1347 1.385 . S
C1346 C1348 1.478 . S
C1347 H1341 0.930 . S
C1347 C1343 1.400 . S
C1347 C1346 1.385 . S
C1348 C1346 1.478 . S
C1348 C1350 1.381 . S
C1348 C1354 1.383 . S
C1349 C1345 1.495 . S
C1349 H1355 0.959 . S
C1349 H1356 0.961 . S
C1349 H1357 0.960 . S
C1350 C1348 1.381 . S
C1350 C1351 1.394 . S
C1350 H1358 0.930 . S
C1351 C1350 1.394 . S
C1351 C1352 1.383 . S
C1351 H1359 0.929 . S
C1352 C1351 1.383 . S
C1352 C1353 1.377 . S
C1353 H1337 0.930 . S
C1353 C1352 1.377 . S
C1353 C1354 1.379 . S
C1354 H1338 0.931 . S
C1354 C1348 1.383 . S
C1354 C1353 1.379 . S
H1355 C1349 0.959 . S
H1356 C1349 0.961 . S
H1357 C1349 0.960 . S
H1358 C1350 0.930 . S
H1359 C1351 0.929 . S
H1360 C1368 0.929 . S
H1361 C1370 0.930 . S
H1362 C1372 0.930 . S
H1363 C1375 0.929 . S
H1364 C1378 0.930 . S
H1365 C1380 0.960 . S
H1366 C1380 0.960 . S
H1367 C1380 0.960 . S
C1368 H1360 0.929 . S
C1368 C1369 1.377 . S
C1368 C1370 1.384 . S
C1369 C1368 1.377 . S
C1369 C1375 1.390 . S
C1370 H1361 0.930 . S
C1370 C1368 1.384 . S
C1370 C1371 1.372 . S
C1371 C1370 1.372 . S
C1371 C1372 1.400 . S
C1371 C1376 1.490 . S
C1372 H1362 0.930 . S
C1372 C1371 1.400 . S
C1372 C1375 1.386 . S
H1373 C1389 0.930 . S
H1374 C1390 0.931 . S
C1375 H1363 0.929 . S
C1375 C1369 1.390 . S
C1375 C1372 1.386 . S
C1376 C1371 1.490 . S
C1376 C1378 1.395 . S
C1376 C1379 1.403 . S
H1377 C1383 0.930 . S
C1378 H1364 0.930 . S
C1378 C1376 1.395 . S
C1378 C1381 1.403 . S
C1379 C1376 1.403 . S
C1379 C1380 1.524 . S
C1379 C1383 1.400 . S
C1380 H1365 0.960 . S
C1380 H1366 0.960 . S
C1380 H1367 0.960 . S
C1380 C1379 1.524 . S
C1381 C1378 1.403 . S
C1381 C1382 1.392 . S
C1381 C1385 1.495 . S
C1382 C1381 1.392 . S
C1382 C1383 1.385 . S
C1382 C1384 1.478 . S
C1383 H1377 0.930 . S
C1383 C1379 1.400 . S
C1383 C1382 1.385 . S
C1384 C1382 1.478 . S
C1384 C1386 1.381 . S
C1384 C1390 1.383 . S
C1385 C1381 1.495 . S
C1385 H1391 0.959 . S
C1385 H1392 0.961 . S
C1385 H1393 0.960 . S
C1386 C1384 1.381 . S
C1386 C1387 1.394 . S
C1386 H1394 0.930 . S
C1387 C1386 1.394 . S
C1387 C1388 1.383 . S
C1387 H1395 0.929 . S
C1388 C1387 1.383 . S
C1388 C1389 1.377 . S
C1389 H1373 0.930 . S
C1389 C1388 1.377 . S
C1389 C1390 1.379 . S
C1390 H1374 0.931 . S
C1390 C1384 1.383 . S
C1390 C1389 1.379 . S
H1391 C1385 0.959 . S
H1392 C1385 0.961 . S
H1393 C1385 0.960 . S
H1394 C1386 0.930 . S
H1395 C1387 0.929 . S
H1396 C1404 0.929 . S
H1397 C1406 0.930 1_556 S
H1398 C1408 0.930 . S
H1399 C1411 0.929 . S
H1400 C1414 0.930 . S
H1401 C1416 0.960 . S
H1402 C1416 0.960 . S
H1403 C1416 0.960 . S
C1404 H1396 0.929 . S
C1404 C1405 1.377 . S
C1404 C1406 1.384 . S
C1405 C1404 1.377 . S
C1405 C1411 1.390 . S
C1406 H1397 0.930 1_554 S
C1406 C1404 1.384 . S
C1406 C1407 1.372 . S
C1407 C1406 1.372 . S
C1407 C1408 1.400 . S
C1407 C1412 1.490 . S
C1408 H1398 0.930 . S
C1408 C1407 1.400 . S
C1408 C1411 1.386 . S
H1409 C1425 0.930 . S
H1410 C1426 0.931 1_554 S
C1411 H1399 0.929 . S
C1411 C1405 1.390 . S
C1411 C1408 1.386 . S
C1412 C1407 1.490 . S
C1412 C1414 1.395 . S
C1412 C1415 1.403 . S
H1413 C1419 0.930 . S
C1414 H1400 0.930 . S
C1414 C1412 1.395 . S
C1414 C1417 1.403 1_554 S
C1415 C1412 1.403 . S
C1415 C1416 1.524 . S
C1415 C1419 1.400 1_554 S
C1416 H1401 0.960 . S
C1416 H1402 0.960 . S
C1416 H1403 0.960 . S
C1416 C1415 1.524 . S
C1417 C1414 1.403 1_556 S
C1417 C1418 1.392 . S
C1417 C1421 1.495 . S
C1418 C1417 1.392 . S
C1418 C1419 1.385 . S
C1418 C1420 1.478 . S
C1419 H1413 0.930 . S
C1419 C1415 1.400 1_556 S
C1419 C1418 1.385 . S
C1420 C1418 1.478 . S
C1420 C1422 1.381 . S
C1420 C1426 1.383 . S
C1421 C1417 1.495 . S
C1421 H1427 0.959 . S
C1421 H1428 0.961 . S
C1421 H1429 0.960 . S
C1422 C1420 1.381 . S
C1422 C1423 1.394 . S
C1422 H1430 0.930 . S
C1423 C1422 1.394 . S
C1423 C1424 1.383 . S
C1423 H1431 0.929 . S
C1424 C1423 1.383 . S
C1424 C1425 1.377 . S
C1425 H1409 0.930 . S
C1425 C1424 1.377 . S
C1425 C1426 1.379 . S
C1426 H1410 0.931 1_556 S
C1426 C1420 1.383 . S
C1426 C1425 1.379 . S
H1427 C1421 0.959 . S
H1428 C1421 0.961 . S
H1429 C1421 0.960 . S
H1430 C1422 0.930 . S
H1431 C1423 0.929 . S
C577 C7 1.247 . S
C596 C89 1.224 . S
C613 C37 1.459 . S
C632 C168 1.369 . S
C649 C54 1.215 . S
C668 C239 1.184 . S
C704 C299 1.620 . S
C685 C87 1.606 . S
C740 C329 1.268 . S
C721 C30 1.410 . S
C757 C51 1.276 . S
C776 C419 1.269 . S
C793 C84 1.599 . S
C812 C479 1.602 . S
C829 C10 1.247 . S
C848 C528 1.210 . S
C865 C59 1.293 . S
C884 C509 1.199 . S
C920 C348 1.419 . S
C901 C74 1.419 . S
C956 C408 1.144 . S
C937 C18 1.254 . S
C973 C32 1.608 . S
C992 C468 1.537 . S
C1028 C149 1.303 . S
C1009 C73 1.467 . S
C1045 C15 1.261 . S
C1064 C228 1.234 . S
C1100 C288 1.546 . S
C1081 C43 1.618 . S
C1136 C108 1.188 . S
C1117 C62 1.223 . S
C1172 C449 1.596 . S
C1153 C21 1.617 . S
C1208 C539 0.968 . S
C1189 C29 1.016 . S
C1225 C52 1.247 . S
C1244 C359 1.250 . S
C1280 C389 1.004 . S
C1261 C81 1.008 . S
C1316 C209 0.899 . S
C1297 C40 0.976 . S
C1333 C65 1.592 . S
C1352 C269 1.534 . S
C1388 C119 0.909 . S
C1369 C76 0.968 . S
C1424 C179 1.248 . S
C1405 C8 1.303 . S
