# Generated by pormake.
# Topology zzz, (3,6)-cn, num edge types: 1
# Building blocks:
#     Node 0, Type 0, BuildingBlock: ESEHIV_clean_linker_0, # of connection points: 3
#     Node 1, Type 0, BuildingBlock: ESEHIV_clean_linker_0, # of connection points: 3
#     Node 2, Type 0, BuildingBlock: ESEHIV_clean_linker_0, # of connection points: 3
#     Node 3, Type 0, BuildingBlock: ESEHIV_clean_linker_0, # of connection points: 3
#     Node 4, Type 0, BuildingBlock: ESEHIV_clean_linker_0, # of connection points: 3
#     Node 5, Type 0, BuildingBlock: ESEHIV_clean_linker_0, # of connection points: 3
#     Node 6, Type 0, BuildingBlock: ESEHIV_clean_linker_0, # of connection points: 3
#     Node 7, Type 0, BuildingBlock: ESEHIV_clean_linker_0, # of connection points: 3
#     Node 8, Type 1, BuildingBlock: NUHQIS_clean_sbu_0, # of connection points: 6
#     Node 9, Type 1, BuildingBlock: NUHQIS_clean_sbu_0, # of connection points: 6
#     Node 10, Type 1, BuildingBlock: NUHQIS_clean_sbu_0, # of connection points: 6
#     Node 11, Type 1, BuildingBlock: NUHQIS_clean_sbu_0, # of connection points: 6
#     Edge 12, Type (0, 1), BuildingBlock: MIFKUJ_clean_linker_0, # of connection points: 2
#     Edge 13, Type (0, 1), BuildingBlock: MIFKUJ_clean_linker_0, # of connection points: 2
#     Edge 14, Type (0, 1), BuildingBlock: MIFKUJ_clean_linker_0, # of connection points: 2
#     Edge 15, Type (0, 1), BuildingBlock: MIFKUJ_clean_linker_0, # of connection points: 2
#     Edge 16, Type (0, 1), BuildingBlock: MIFKUJ_clean_linker_0, # of connection points: 2
#     Edge 17, Type (0, 1), BuildingBlock: MIFKUJ_clean_linker_0, # of connection points: 2
#     Edge 18, Type (0, 1), BuildingBlock: MIFKUJ_clean_linker_0, # of connection points: 2
#     Edge 19, Type (0, 1), BuildingBlock: MIFKUJ_clean_linker_0, # of connection points: 2
#     Edge 20, Type (0, 1), BuildingBlock: MIFKUJ_clean_linker_0, # of connection points: 2
#     Edge 21, Type (0, 1), BuildingBlock: MIFKUJ_clean_linker_0, # of connection points: 2
#     Edge 22, Type (0, 1), BuildingBlock: MIFKUJ_clean_linker_0, # of connection points: 2
#     Edge 23, Type (0, 1), BuildingBlock: MIFKUJ_clean_linker_0, # of connection points: 2
#     Edge 24, Type (0, 1), BuildingBlock: MIFKUJ_clean_linker_0, # of connection points: 2
#     Edge 25, Type (0, 1), BuildingBlock: MIFKUJ_clean_linker_0, # of connection points: 2
#     Edge 26, Type (0, 1), BuildingBlock: MIFKUJ_clean_linker_0, # of connection points: 2
#     Edge 27, Type (0, 1), BuildingBlock: MIFKUJ_clean_linker_0, # of connection points: 2
#     Edge 28, Type (0, 1), BuildingBlock: MIFKUJ_clean_linker_0, # of connection points: 2
#     Edge 29, Type (0, 1), BuildingBlock: MIFKUJ_clean_linker_0, # of connection points: 2
#     Edge 30, Type (0, 1), BuildingBlock: MIFKUJ_clean_linker_0, # of connection points: 2
#     Edge 31, Type (0, 1), BuildingBlock: MIFKUJ_clean_linker_0, # of connection points: 2
#     Edge 32, Type (0, 1), BuildingBlock: MIFKUJ_clean_linker_0, # of connection points: 2
#     Edge 33, Type (0, 1), BuildingBlock: MIFKUJ_clean_linker_0, # of connection points: 2
#     Edge 34, Type (0, 1), BuildingBlock: MIFKUJ_clean_linker_0, # of connection points: 2
#     Edge 35, Type (0, 1), BuildingBlock: MIFKUJ_clean_linker_0, # of connection points: 2
# Relax obj value: 0.418
# Max RMSD: 0.254
# Mean RMSD: 0.232
data_MOF--net-zzz--node1-NUHQIS_clean_sbu_0--node2-ESEHIV_clean_linker_0--edge1-MIFKUJ_clean_linker_0
_symmetry_space_group_name_H-M    P1
_symmetry_Int_Tables_number       1
_symmetry_cell_setting            triclinic
loop_
_symmetry_equiv_pos_as_xyz
'x, y, z'
_cell_length_a     60.320391
_cell_length_b     60.547687
_cell_length_c     19.463081
_cell_angle_alpha  89.905259
_cell_angle_beta   89.639873
_cell_angle_gamma 89.896435
loop_
_atom_site_label
_atom_site_type_symbol
_atom_site_fract_x
_atom_site_fract_y
_atom_site_fract_z
_atom_type_partial_charge
H0 H 0.78452 0.49927 0.23186 0.0
H1 H 0.72252 0.50091 0.12582 0.0
H2 H 0.72394 0.51172 0.34487 0.0
C3 C 0.76667 0.50146 0.23313 0.0
C4 C 0.75588 0.50547 0.2961 0.0
C5 C 0.7547 0.49984 0.17196 0.0
C6 C 0.73172 0.50221 0.17341 0.0
C7 C 0.72042 0.50663 0.23497 0.0
C8 C 0.73254 0.50848 0.2969 0.0
H9 H 0.04123 0.77603 0.28072 0.0
H10 H 0.03483 0.71839 0.15469 0.0
H11 H 0.9909 0.72778 0.3279 0.0
C12 C 0.03325 0.76036 0.2702 0.0
C13 C 0.01561 0.75337 0.31215 0.0
C14 C 0.04006 0.74806 0.21296 0.0
C15 C 0.0298 0.72788 0.19941 0.0
C16 C 0.0122 0.72034 0.24058 0.0
C17 C 1.00478 0.73327 0.29674 0.0
H18 H 0.73526 0.98115 0.2692 0.0
H19 H 0.79796 0.97566 0.16646 0.0
H20 H 0.79552 0.9817 0.38726 0.0
C21 C 0.75316 0.97939 0.27181 0.0
C22 C 0.76358 0.98051 0.33587 0.0
C23 C 0.7655 0.97803 0.21094 0.0
C24 C 0.78849 0.97643 0.214 0.0
C25 C 0.79961 0.97767 0.27675 0.0
C26 C 0.78713 0.97991 0.33858 0.0
H27 H 0.47495 0.73464 0.30024 0.0
H28 H 0.52766 0.78029 0.34545 0.0
H29 H 0.48278 0.79305 0.17809 0.0
C30 C 0.48331 0.75022 0.29077 0.0
C31 C 0.47666 0.76332 0.23533 0.0
C32 C 0.50162 0.756 0.331 0.0
C33 C 0.51331 0.77569 0.31552 0.0
C34 C 0.50606 0.78943 0.26109 0.0
C35 C 0.48791 0.78294 0.22126 0.0
H36 H 0.23676 0.54357 0.08854 0.0
H37 H 0.29814 0.54647 0.19922 0.0
H38 H 0.28184 0.48866 0.08096 0.0
C39 C 0.25275 0.53659 0.1016 0.0
C40 C 0.25811 0.51558 0.07641 0.0
C41 C 0.26676 0.54777 0.14703 0.0
C42 C 0.28705 0.53798 0.16454 0.0
C43 C 0.29261 0.51666 0.14183 0.0
C44 C 0.2779 0.50523 0.09808 0.0
H45 H 0.98887 0.22446 0.20012 0.0
H46 H 0.99733 0.28746 0.29452 0.0
H47 H 0.02147 0.27692 0.08777 0.0
C48 C 0.99488 0.2413 0.19661 0.0
C49 C 1.00499 0.24882 0.13563 0.0
C50 C 0.99187 0.25519 0.25313 0.0
C51 C 0.99968 0.27677 0.25037 0.0
C52 C 0.01077 0.28466 0.19179 0.0
C53 C 0.01337 0.27073 0.1337 0.0
H54 H 0.27977 0.0413 0.10836 0.0
H55 H 0.21995 0.04243 0.2297 0.0
H56 H 0.22118 0.00951 0.03388 0.0
C57 C 0.26224 0.038 0.11462 0.0
C58 C 0.25146 0.02661 0.0617 0.0
C59 C 0.25145 0.04312 0.17687 0.0
C60 C 0.22891 0.03797 0.18331 0.0
C61 C 0.21801 0.02531 0.13365 0.0
C62 C 0.22932 0.01953 0.07221 0.0
H63 H 0.53818 0.2785 0.15271 0.0
H64 H 0.49116 0.22858 0.09517 0.0
H65 H 0.53554 0.21721 0.2642 0.0
C66 C 0.53151 0.26202 0.15954 0.0
C67 C 0.53923 0.24862 0.21327 0.0
C68 C 0.51447 0.25494 0.11612 0.0
C69 C 0.50479 0.23396 0.12695 0.0
C70 C 0.51247 0.22035 0.18093 0.0
C71 C 0.52979 0.22772 0.22277 0.0
Tb72 Tb 0.02781 0.99478 0.75391 0.0
Eu73 Eu 0.9868 0.0106 0.65753 0.0
C74 C 0.03632 0.00843 0.60071 0.0
C75 C 0.01298 0.04528 0.75391 0.0
C76 C 0.06697 0.95708 0.83484 0.0
C77 C 0.09425 0.93049 0.8743 0.0
C78 C 0.08717 0.95241 0.86691 0.0
C79 C 0.0541 0.93974 0.80926 0.0
C80 C 0.06126 0.91799 0.81552 0.0
C81 C 0.08125 0.91302 0.84902 0.0
C82 C 0.05961 0.9799 0.82435 0.0
O83 O 0.99705 0.98408 0.80505 0.0
O84 O 0.97569 0.01258 0.76803 0.0
O85 O 0.9856 0.97332 0.6553 0.0
O86 O 0.02138 0.96636 0.68801 0.0
C87 C 0.97977 0.99712 0.81333 0.0
O88 O 0.95136 0.01017 0.63606 0.0
O89 O 0.9737 0.02849 0.56954 0.0
O90 O 0.01564 1.00381 0.58614 0.0
O91 O 0.04239 0.0115 0.66477 0.0
O92 O 0.02152 0.02861 0.78854 0.0
O93 O 1.00237 0.04224 0.69577 0.0
C94 C 1.00256 0.95981 0.6612 0.0
O95 O 0.06162 0.98697 0.76155 0.0
O96 O 0.04023 0.98486 0.84994 0.0
C97 C 0.93936 0.04446 0.59346 0.0
C98 C 0.92079 0.08701 0.59709 0.0
C99 C 0.91816 0.07354 0.53886 0.0
C100 C 0.92747 0.0524 0.53702 0.0
C101 C 0.94055 0.05716 0.65355 0.0
C102 C 0.93126 0.07825 0.65544 0.0
C103 C 0.9531 0.02464 0.58654 0.0
H104 H 0.10958 0.92721 0.90114 0.0
H105 H 0.09737 0.96567 0.88653 0.0
H106 H 0.03845 0.94303 0.78444 0.0
H107 H 0.05101 0.90502 0.79439 0.0
H108 H 0.91045 0.07993 0.4928 0.0
H109 H 0.92656 0.04282 0.49014 0.0
H110 H 0.9498 0.05129 0.69754 0.0
H111 H 0.93344 0.08819 0.70103 0.0
Tb112 Tb 0.51075 0.01827 0.75025 0.0
Eu113 Eu 0.50119 0.9788 0.64458 0.0
C114 C 0.4963 0.02955 0.60143 0.0
C115 C 0.46166 1.00064 0.73156 0.0
C116 C 0.5419 0.05406 0.86343 0.0
C117 C 0.57752 0.0725 0.85375 0.0
C118 C 0.5549 0.0717 0.83907 0.0
C119 C 0.55125 0.0387 0.90908 0.0
C120 C 0.57375 0.03953 0.92368 0.0
C121 C 0.5872 0.05571 0.89312 0.0
C122 C 0.52057 0.04927 0.83045 0.0
O123 O 0.52403 0.98867 0.80088 0.0
O124 O 0.50012 0.96455 0.75124 0.0
O125 O 0.5383 0.97845 0.65981 0.0
O126 O 0.54103 0.01498 0.6871 0.0
C127 C 0.51363 0.9696 0.80115 0.0
O128 O 0.4889 0.94559 0.62528 0.0
O129 O 0.50376 0.96416 0.54241 0.0
O130 O 0.50391 0.01023 0.58182 0.0
O131 O 0.49226 0.03335 0.66661 0.0
O132 O 0.47695 0.00758 0.77439 0.0
O133 O 0.46715 0.9928 0.67071 0.0
C134 C 0.55017 0.99651 0.66505 0.0
O135 O 0.52082 0.05109 0.76376 0.0
O136 O 0.51041 0.03132 0.85016 0.0
C137 C 0.47105 0.94429 0.51834 0.0
C138 C 0.42841 0.95119 0.46578 0.0
C139 C 0.43152 0.93687 0.52166 0.0
C140 C 0.45273 0.93333 0.54756 0.0
C141 C 0.46822 0.95613 0.45688 0.0
C142 C 0.44704 0.95965 0.43098 0.0
C143 C 0.4914 0.94728 0.55893 0.0
H144 H 0.58766 0.08521 0.8302 0.0
H145 H 0.54799 0.08381 0.80415 0.0
H146 H 0.54167 0.02504 0.92947 0.0
H147 H 0.58092 0.02671 0.95552 0.0
H148 H 0.41744 0.92969 0.5483 0.0
H149 H 0.45447 0.92363 0.59404 0.0
H150 H 0.48207 0.9644 0.43228 0.0
H151 H 0.4452 0.9707 0.38756 0.0
Tb152 Tb 0.48663 0.50736 0.74576 0.0
Eu153 Eu 0.52688 0.4935 0.64205 0.0
C154 C 0.47703 0.49429 0.59509 0.0
C155 C 0.50269 0.4574 0.7407 0.0
C156 C 0.44685 0.54187 0.84076 0.0
C157 C 0.41709 0.56795 0.86327 0.0
C158 C 0.42417 0.5466 0.84671 0.0
C159 C 0.4624 0.55868 0.8513 0.0
C160 C 0.45537 0.57992 0.86839 0.0
C161 C 0.43262 0.58487 0.87418 0.0
C162 C 0.45407 0.51996 0.8177 0.0
O163 O 0.51701 0.51742 0.79854 0.0
O164 O 0.54025 0.492 0.7496 0.0
O165 O 0.52785 0.5307 0.64291 0.0
O166 O 0.49303 0.5375 0.68647 0.0
C167 C 0.53559 0.50595 0.79915 0.0
O168 O 0.56195 0.49442 0.61359 0.0
O169 O 0.53858 0.47678 0.54981 0.0
O170 O 0.49678 0.50145 0.57794 0.0
O171 O 0.47288 0.48906 0.65931 0.0
O172 O 0.49395 0.47356 0.77712 0.0
O173 O 0.51294 0.4611 0.68183 0.0
C174 C 0.5113 0.54425 0.65562 0.0
O175 O 0.45327 0.51705 0.75157 0.0
O176 O 0.47252 0.51246 0.84347 0.0
C177 C 0.57386 0.46117 0.56358 0.0
C178 C 0.59906 0.42206 0.55539 0.0
C179 C 0.60597 0.44128 0.52041 0.0
C180 C 0.59339 0.46068 0.52436 0.0
C181 C 0.56766 0.44255 0.60193 0.0
C182 C 0.58005 0.42317 0.59766 0.0
C183 C 0.55944 0.48068 0.56272 0.0
H184 H 0.39946 0.57124 0.86661 0.0
H185 H 0.41195 0.53387 0.83747 0.0
H186 H 0.48 0.55543 0.84585 0.0
H187 H 0.46784 0.59239 0.8778 0.0
H188 H 0.62065 0.44111 0.48812 0.0
H189 H 0.59854 0.47507 0.49525 0.0
H190 H 0.55272 0.44273 0.63308 0.0
H191 H 0.57389 0.40871 0.62445 0.0
Tb192 Tb 0.9974 0.48657 0.74885 0.0
Eu193 Eu 0.01152 0.52614 0.64436 0.0
C194 C 0.01288 0.47625 0.59755 0.0
C195 C 0.0478 0.50255 0.74463 0.0
C196 C 0.96347 0.44116 0.80199 0.0
C197 C 0.93352 0.43429 0.72191 0.0
C198 C 0.95527 0.44085 0.73453 0.0
C199 C 0.95047 0.4327 0.85553 0.0
C200 C 0.92872 0.42605 0.84291 0.0
C201 C 0.91958 0.42813 0.77665 0.0
C202 C 0.98311 0.45446 0.81755 0.0
O203 O 1.00403 0.51515 0.81374 0.0
O204 O 0.99265 0.54034 0.73483 0.0
O205 O 0.97722 0.516 0.61133 0.0
O206 O 0.96587 0.50055 0.7131 0.0
C207 C 0.99706 0.53512 0.79873 0.0
O208 O 0.01966 0.56099 0.63345 0.0
O209 O 0.01742 0.54048 0.54287 0.0
O210 O 0.02411 0.49478 0.59476 0.0
O211 O 0.99761 0.47328 0.64489 0.0
O212 O 0.03343 0.48686 0.75966 0.0
O213 O 0.04243 0.51979 0.70682 0.0
C214 C 0.96141 0.50839 0.65155 0.0
O215 O 0.99951 0.45286 0.77382 0.0
O216 O 0.97866 0.47499 0.8326 0.0
C217 C 0.04429 0.56856 0.54374 0.0
C218 C 0.08546 0.5863 0.50372 0.0
C219 C 0.06578 0.59827 0.49278 0.0
C220 C 0.04532 0.58945 0.51283 0.0
C221 C 0.06382 0.55659 0.55494 0.0
C222 C 0.08422 0.56534 0.53491 0.0
C223 C 0.02303 0.5597 0.56743 0.0
H224 H 0.9271 0.43578 0.67025 0.0
H225 H 0.96501 0.44738 0.69229 0.0
H226 H 0.95645 0.43298 0.9079 0.0
H227 H 0.91848 0.4215 0.88655 0.0
H228 H 0.06622 0.61448 0.46923 0.0
H229 H 0.03034 0.59896 0.50458 0.0
H230 H 0.06328 0.54047 0.5792 0.0
H231 H 0.09898 0.55547 0.54278 0.0
H232 H 0.17693 0.04015 0.09479 0.0
H233 H 0.14223 0.03439 0.15919 0.0
H234 H 0.17555 0.98762 0.29069 0.0
H235 H 0.20964 0.99262 0.22433 0.0
H236 H 0.13539 0.97558 0.28625 0.0
H237 H 0.17038 0.04508 0.32745 0.0
H238 H 0.18616 0.08137 0.29718 0.0
H239 H 0.12283 0.10275 0.22217 0.0
H240 H 0.10675 0.06641 0.25105 0.0
H241 H 0.08127 1.00288 0.61019 0.0
H242 H 0.10883 1.00311 0.51693 0.0
H243 H 0.05743 0.01733 0.37067 0.0
H244 H 0.02959 0.01643 0.4634 0.0
H245 H 0.1036 0.04548 0.37637 0.0
H246 H 0.06954 0.97288 0.34921 0.0
H247 H 0.05699 0.93693 0.3947 0.0
H248 H 0.12311 0.92228 0.46143 0.0
H249 H 0.13599 0.95831 0.41732 0.0
C250 C 0.17645 0.02784 0.13521 0.0
C251 C 0.19588 0.01656 0.1538 0.0
C252 C 0.15673 0.02485 0.17308 0.0
C253 C 0.15626 0.01103 0.23157 0.0
C254 C 0.17526 0.99843 0.24631 0.0
C255 C 0.19478 1.00116 0.2079 0.0
C256 C 0.13702 0.01113 0.28112 0.0
C257 C 0.12852 0.99093 0.30563 0.0
C258 C 0.12787 0.03106 0.30763 0.0
C259 C 0.13743 0.05295 0.29063 0.0
C260 C 0.15985 0.05747 0.30409 0.0
C261 C 0.16885 0.07805 0.28721 0.0
C262 C 0.15552 0.09434 0.25759 0.0
C263 C 0.13315 0.09009 0.24497 0.0
C264 C 0.12408 0.06951 0.26156 0.0
C265 C 0.0758 0.00616 0.55826 0.0
C266 C 0.05318 0.00968 0.54441 0.0
C267 C 0.09159 0.00621 0.50496 0.0
C268 C 0.0852 0.01019 0.43679 0.0
C269 C 0.06273 0.01419 0.42286 0.0
C270 C 0.04684 0.01365 0.47595 0.0
C271 C 0.10207 0.01005 0.38035 0.0
C272 C 0.11025 0.03023 0.3555 0.0
C273 C 0.11134 0.99016 0.35505 0.0
C274 C 0.10367 0.96839 0.38063 0.0
C275 C 0.08136 0.96208 0.37418 0.0
C276 C 0.07419 0.94168 0.39958 0.0
C277 C 0.08922 0.92737 0.43112 0.0
C278 C 0.11147 0.9334 0.43708 0.0
C279 C 0.11872 0.9538 0.41184 0.0
H280 H 0.08363 0.91158 0.45078 0.0
H281 H 0.16252 0.11027 0.24458 0.0
H282 H 0.48 0.21416 0.27516 0.0
H283 H 0.47189 0.17964 0.3362 0.0
H284 H 0.51495 0.1443 0.19695 0.0
H285 H 0.52324 0.179 0.13618 0.0
H286 H 0.47494 0.11943 0.24653 0.0
H287 H 0.53792 0.1612 0.32888 0.0
H288 H 0.55588 0.19547 0.36801 0.0
H289 H 0.50964 0.20003 0.53601 0.0
H290 H 0.49115 0.16596 0.49715 0.0
H291 H 0.50716 0.02969 0.464 0.0
H292 H 0.50501 0.06063 0.3833 0.0
H293 H 0.47642 0.10151 0.54216 0.0
H294 H 0.47893 0.07082 0.62336 0.0
H295 H 0.50765 0.12353 0.47953 0.0
H296 H 0.44553 0.0816 0.40455 0.0
H297 H 0.42555 0.04846 0.36567 0.0
H298 H 0.46743 0.04472 0.1869 0.0
H299 H 0.48788 0.07771 0.22512 0.0
C300 C 0.48687 0.19884 0.25562 0.0
C301 C 0.50189 0.19913 0.20018 0.0
C302 C 0.4824 0.17915 0.29087 0.0
C303 C 0.49293 0.15938 0.2715 0.0
C304 C 0.50651 0.1593 0.21254 0.0
C305 C 0.51114 0.17908 0.17754 0.0
C306 C 0.49238 0.13988 0.31841 0.0
C307 C 0.48227 0.12019 0.2972 0.0
C308 C 0.50153 0.14102 0.38514 0.0
C309 C 0.51302 0.16115 0.40972 0.0
C310 C 0.53149 0.16958 0.37392 0.0
C311 C 0.54178 0.18896 0.39606 0.0
C312 C 0.53386 0.19995 0.45433 0.0
C313 C 0.51572 0.19152 0.4908 0.0
C314 C 0.50535 0.17216 0.46878 0.0
C315 C 0.50019 0.04518 0.48165 0.0
C316 C 0.49325 0.04769 0.5504 0.0
C317 C 0.49889 0.0629 0.43524 0.0
C318 C 0.49041 0.0835 0.4562 0.0
C319 C 0.48309 0.08588 0.52451 0.0
C320 C 0.48447 0.06823 0.57096 0.0
C321 C 0.4901 0.10284 0.40815 0.0
C322 C 0.50019 0.12262 0.42906 0.0
C323 C 0.48073 0.10176 0.34152 0.0
C324 C 0.46838 0.08202 0.31805 0.0
C325 C 0.45059 0.07362 0.35719 0.0
C326 C 0.43916 0.05488 0.33524 0.0
C327 C 0.44526 0.04445 0.27397 0.0
C328 C 0.46275 0.0528 0.2344 0.0
C329 C 0.47425 0.07154 0.25613 0.0
H330 H 0.43639 0.02993 0.2571 0.0
H331 H 0.54182 0.21498 0.47129 0.0
H332 H 0.33526 0.52913 0.1182 0.0
H333 H 0.36764 0.51998 0.18824 0.0
H334 H 0.32807 0.47411 0.30599 0.0
H335 H 0.29565 0.48321 0.23526 0.0
H336 H 0.34923 0.50434 0.38753 0.0
H337 H 0.37015 0.45535 0.20492 0.0
H338 H 0.37806 0.44484 0.0849 0.0
H339 H 0.43011 0.49304 0.07446 0.0
H340 H 0.42232 0.50404 0.1942 0.0
H341 H 0.43697 0.47326 0.60687 0.0
H342 H 0.40689 0.47209 0.52346 0.0
H343 H 0.44595 0.5111 0.38217 0.0
H344 H 0.47645 0.51159 0.46457 0.0
H345 H 0.4246 0.48186 0.31176 0.0
H346 H 0.40286 0.53334 0.48602 0.0
H347 H 0.39524 0.54618 0.60403 0.0
H348 H 0.34487 0.49667 0.62746 0.0
H349 H 0.35242 0.48331 0.50987 0.0
C350 C 0.33374 0.51644 0.15724 0.0
C351 C 0.31307 0.50653 0.17038 0.0
C352 C 0.35222 0.51129 0.19759 0.0
C353 C 0.3504 0.4963 0.25257 0.0
C354 C 0.32996 0.48567 0.26383 0.0
C355 C 0.31151 0.49064 0.22287 0.0
C356 C 0.36914 0.49344 0.30188 0.0
C357 C 0.3656 0.49898 0.37117 0.0
C358 C 0.39076 0.48726 0.28036 0.0
C359 C 0.39552 0.48064 0.2084 0.0
C360 C 0.38317 0.46383 0.17688 0.0
C361 C 0.38766 0.45776 0.10892 0.0
C362 C 0.40455 0.46829 0.07203 0.0
C363 C 0.41702 0.48489 0.10309 0.0
C364 C 0.4126 0.49103 0.17104 0.0
C365 C 0.43924 0.48149 0.55789 0.0
C366 C 0.45914 0.49263 0.54274 0.0
C367 C 0.42192 0.48092 0.5102 0.0
C368 C 0.42381 0.4919 0.44663 0.0
C369 C 0.44393 0.50253 0.43069 0.0
C370 C 0.46139 0.50284 0.47804 0.0
C371 C 0.40471 0.49275 0.39762 0.0
C372 C 0.40818 0.48699 0.32836 0.0
C373 C 0.38306 0.49909 0.41886 0.0
C374 C 0.37837 0.50718 0.48941 0.0
C375 C 0.39026 0.52509 0.51651 0.0
C376 C 0.38595 0.53247 0.5833 0.0
C377 C 0.36963 0.52221 0.62329 0.0
C378 C 0.35754 0.50458 0.59647 0.0
C379 C 0.36182 0.4971 0.52974 0.0
H380 H 0.36632 0.52794 0.67499 0.0
H381 H 0.408 0.46357 0.01943 0.0
H382 H 0.04765 0.29937 0.25549 0.0
H383 H 0.05183 0.33612 0.30579 0.0
H384 H 0.99463 0.35865 0.19364 0.0
H385 H 0.99024 0.32166 0.14446 0.0
H386 H 0.05586 0.37957 0.28004 0.0
H387 H 0.96051 0.38491 0.302 0.0
H388 H 0.9281 0.36003 0.30188 0.0
H389 H 0.96853 0.30698 0.37762 0.0
H390 H 1.0011 0.33152 0.37821 0.0
H391 H 0.03091 0.47955 0.46702 0.0
H392 H 0.03376 0.45028 0.38013 0.0
H393 H 1.00593 0.40367 0.5247 0.0
H394 H 1.00215 0.43287 0.60969 0.0
H395 H 0.9875 0.39658 0.41285 0.0
H396 H 0.06378 0.40622 0.47474 0.0
H397 H 0.0986 0.42676 0.49162 0.0
H398 H 0.10037 0.44347 0.27715 0.0
H399 H 0.0654 0.42324 0.25918 0.0
C400 C 0.03673 0.31251 0.2387 0.0
C401 C 0.01882 0.30775 0.19528 0.0
C402 C 0.03899 0.33351 0.26798 0.0
C403 C 0.02328 0.35012 0.25481 0.0
C404 C 1.00682 0.34606 0.20542 0.0
C405 C 1.0045 0.325 0.17635 0.0
C406 C 0.02208 0.37002 0.30021 0.0
C407 C 0.04085 0.38347 0.30851 0.0
C408 C 1.00278 0.37479 0.33937 0.0
C409 C 0.98324 0.35998 0.33934 0.0
C410 C 0.96244 0.36793 0.31859 0.0
C411 C 0.94406 0.35388 0.31834 0.0
C412 C 0.94628 0.33189 0.33929 0.0
C413 C 0.96686 0.32394 0.36084 0.0
C414 C 0.98528 0.3379 0.36104 0.0
C415 C 0.02552 0.46302 0.48019 0.0
C416 C 0.01623 0.4586 0.54527 0.0
C417 C 0.02723 0.44622 0.43052 0.0
C418 C 0.02017 0.42454 0.44546 0.0
C419 C 0.01132 0.42017 0.51108 0.0
C420 C 0.00924 0.43694 0.55998 0.0
C421 C 0.02133 0.40636 0.3932 0.0
C422 C 1.00247 0.3931 0.38362 0.0
C423 C 0.04085 0.40131 0.35515 0.0
C424 C 0.06186 0.41345 0.36579 0.0
C425 C 0.07151 0.41442 0.4313 0.0
C426 C 0.09129 0.42598 0.44104 0.0
C427 C 0.10165 0.43647 0.38554 0.0
C428 C 0.0923 0.43537 0.32012 0.0
C429 C 0.07251 0.42386 0.31012 0.0
H430 H 0.11696 0.44541 0.39318 0.0
H431 H 0.93204 0.32104 0.3391 0.0
H432 H 0.82395 0.01501 0.26599 0.0
H433 H 0.85885 0.01793 0.20167 0.0
H434 H 0.86455 0.94699 0.19948 0.0
H435 H 0.82942 0.9441 0.2631 0.0
H436 H 0.90697 0.96946 0.20503 0.0
H437 H 0.84035 0.96838 0.06909 0.0
H438 H 0.80332 0.98008 0.03005 0.0
H439 H 0.82754 0.04581 0.99501 0.0
H440 H 0.86475 0.03447 0.03382 0.0
H441 H 0.97314 0.96068 0.8964 0.0
H442 H 0.94623 0.95662 0.99063 0.0
H443 H 0.92582 0.02439 0.96264 0.0
H444 H 0.95173 0.02806 0.86679 0.0
H445 H 0.89129 1.00216 0.9766 0.0
H446 H 0.95893 1.00291 0.10803 0.0
H447 H 0.99637 0.99024 0.14001 0.0
H448 H 0.97102 0.92533 0.18173 0.0
H449 H 0.93344 0.93761 0.14985 0.0
C450 C 0.83332 1.0001 0.25549 0.0
C451 C 0.82415 0.97934 0.27116 0.0
C452 C 0.8531 1.00175 0.21751 0.0
C453 C 0.86423 0.98267 0.19464 0.0
C454 C 0.85636 0.96196 0.2165 0.0
C455 C 0.8364 0.96031 0.25387 0.0
C456 C 0.88207 0.98426 0.14099 0.0
C457 C 0.90356 0.97651 0.15492 0.0
C458 C 0.87779 0.99357 0.07558 0.0
C459 C 0.85524 1.00064 0.05504 0.0
C460 C 0.83771 0.98539 0.05378 0.0
C461 C 0.81673 0.99192 0.03135 0.0
C462 C 0.81308 0.01369 0.01017 0.0
C463 C 0.83039 0.02897 0.01148 0.0
C464 C 0.85144 0.02248 0.03352 0.0
C465 C 0.96299 0.97473 0.91072 0.0
C466 C 0.96455 0.99465 0.87367 0.0
C467 C 0.94766 0.97247 0.96515 0.0
C468 C 0.93395 0.99027 0.98506 0.0
C469 C 0.93597 0.01029 0.94872 0.0
C470 C 0.95089 0.0124 0.89369 0.0
C471 C 0.91664 0.98799 0.04068 0.0
C472 C 0.89501 0.9954 0.02688 0.0
C473 C 0.92091 0.97845 0.10607 0.0
C474 C 0.94343 0.97113 0.12598 0.0
C475 C 0.96137 0.98591 0.12375 0.0
C476 C 0.98261 0.97881 0.14197 0.0
C477 C 0.98608 0.95698 0.16276 0.0
C478 C 0.96831 0.94223 0.16558 0.0
C479 C 0.94703 0.94927 0.14767 0.0
H480 H 1.00253 0.95151 0.17685 0.0
H481 H 0.79685 0.0187 0.99253 0.0
H482 H 0.49318 0.83097 0.29459 0.0
H483 H 0.50112 0.8643 0.22731 0.0
H484 H 0.54969 0.82818 0.1088 0.0
H485 H 0.54151 0.79478 0.17582 0.0
H486 H 0.53441 0.89193 0.18394 0.0
H487 H 0.53915 0.8377 0.94035 0.0
H488 H 0.52731 0.80075 0.90174 0.0
H489 H 0.47364 0.80168 0.04771 0.0
H490 H 0.48502 0.83869 0.08661 0.0
H491 H 0.5482 0.96548 0.89328 0.0
H492 H 0.55295 0.93674 0.98147 0.0
H493 H 0.48964 0.90894 0.92689 0.0
H494 H 0.48537 0.93673 0.8378 0.0
H495 H 0.51568 0.87718 0.94052 0.0
H496 H 0.50018 0.94101 0.07991 0.0
H497 H 0.50595 0.97875 0.12377 0.0
H498 H 0.57099 0.96066 0.19279 0.0
H499 H 0.56568 0.92286 0.1486 0.0
C500 C 0.50637 0.83049 0.25657 0.0
C501 C 0.51701 0.81041 0.24118 0.0
C502 C 0.5108 0.84952 0.21772 0.0
C503 C 0.52576 0.84873 0.16212 0.0
C504 C 0.53795 0.8292 0.15103 0.0
C505 C 0.5335 0.81017 0.18992 0.0
C506 C 0.52598 0.86695 0.1101 0.0
C507 C 0.53056 0.88872 0.13053 0.0
C508 C 0.52028 0.86296 0.04072 0.0
C509 C 0.51313 0.84083 0.0169 0.0
C510 C 0.5248 0.83002 0.96405 0.0
C511 C 0.51817 0.80907 0.94217 0.0
C512 C 0.4998 0.79882 0.97251 0.0
C513 C 0.48794 0.80957 0.02453 0.0
C514 C 0.49449 0.83052 0.04654 0.0
C515 C 0.5353 0.95326 0.90046 0.0
C516 C 0.51648 0.95335 0.85807 0.0
C517 C 0.53797 0.93684 0.95114 0.0
C518 C 0.52163 0.92051 0.96149 0.0
C519 C 0.50267 0.92104 0.91995 0.0
C520 C 0.5002 0.93709 0.86888 0.0
C521 C 0.52412 0.90244 0.01387 0.0
C522 C 0.51996 0.88054 0.99353 0.0
C523 C 0.52942 0.90651 0.08369 0.0
C524 C 0.53263 0.9292 0.11026 0.0
C525 C 0.51577 0.94513 0.10399 0.0
C526 C 0.51895 0.96652 0.12898 0.0
C527 C 0.53885 0.97212 0.16085 0.0
C528 C 0.5556 0.95631 0.16797 0.0
C529 C 0.55251 0.9349 0.14301 0.0
H530 H 0.54128 0.98868 0.18017 0.0
H531 H 0.49471 0.7826 0.95557 0.0
H532 H 0.6966 0.54469 0.22481 0.0
H533 H 0.66001 0.5482 0.17148 0.0
H534 H 0.65385 0.47724 0.16922 0.0
H535 H 0.69014 0.47388 0.2235 0.0
H536 H 0.65242 0.53494 0.04671 0.0
H537 H 0.60057 0.46114 0.14807 0.0
H538 H 0.59391 0.44109 0.25661 0.0
H539 H 0.6113 0.49894 0.37143 0.0
H540 H 0.61781 0.51945 0.26355 0.0
H541 H 0.57859 0.4918 0.80187 0.0
H542 H 0.6055 0.49538 0.89418 0.0
H543 H 0.55686 0.52905 0.01895 0.0
H544 H 0.52963 0.52573 0.92584 0.0
H545 H 0.58185 0.49535 0.09126 0.0
H546 H 0.5947 0.55934 0.95111 0.0
H547 H 0.60121 0.57927 0.84227 0.0
H548 H 0.66121 0.54242 0.80918 0.0
H549 H 0.65489 0.52203 0.91735 0.0
C550 C 0.68684 0.52994 0.21646 0.0
C551 C 0.69597 0.50904 0.22997 0.0
C552 C 0.66606 0.53191 0.18487 0.0
C553 C 0.65398 0.513 0.16598 0.0
C554 C 0.66245 0.49215 0.18414 0.0
C555 C 0.68319 0.4902 0.21578 0.0
C556 C 0.63434 0.51487 0.11939 0.0
C557 C 0.63694 0.52645 0.05715 0.0
C558 C 0.61399 0.50384 0.13229 0.0
C559 C 0.60982 0.49179 0.1976 0.0
C560 C 0.60286 0.46964 0.19644 0.0
C561 C 0.59914 0.45818 0.25786 0.0
C562 C 0.60223 0.46872 0.32084 0.0
C563 C 0.60899 0.49078 0.32257 0.0
C564 C 0.61273 0.50232 0.26128 0.0
C565 C 0.57349 0.5 0.84881 0.0
C566 C 0.55187 0.50854 0.85609 0.0
C567 C 0.58898 0.50204 0.90167 0.0
C568 C 0.5833 0.51254 0.96359 0.0
C569 C 0.56165 0.52086 0.9717 0.0
C570 C 0.54614 0.51906 0.91825 0.0
C571 C 0.60027 0.51502 0.01871 0.0
C572 C 0.59723 0.50413 0.08188 0.0
C573 C 0.62026 0.52668 0.00692 0.0
C574 C 0.62423 0.53906 0.94214 0.0
C575 C 0.60921 0.55538 0.92039 0.0
C576 C 0.61287 0.56678 0.85885 0.0
C577 C 0.63159 0.56209 0.81878 0.0
C578 C 0.64671 0.54603 0.84026 0.0
C579 C 0.64311 0.53456 0.90173 0.0
H580 H 0.6344 0.57093 0.77114 0.0
H581 H 0.59937 0.45979 0.36825 0.0
H582 H 0.02415 0.67915 0.28103 0.0
H583 H 0.01698 0.64491 0.21785 0.0
H584 H 0.97216 0.67999 0.08456 0.0
H585 H 0.9792 0.71416 0.14839 0.0
H586 H 0.95873 0.63681 0.10315 0.0
H587 H 0.02442 0.67556 0.03783 0.0
H588 H 0.06 0.6944 0.05783 0.0
H589 H 0.08773 0.63421 0.13699 0.0
H590 H 0.05216 0.61507 0.11829 0.0
H591 H 0.97497 0.57465 0.79279 0.0
H592 H 0.9734 0.60371 0.88009 0.0
H593 H 0.01361 0.56396 0.01471 0.0
H594 H 0.01501 0.53464 0.92794 0.0
H595 H 0.02853 0.60832 0.9996 0.0
H596 H 0.96101 0.56933 0.05204 0.0
H597 H 0.9249 0.55258 0.02475 0.0
H598 H 0.90021 0.6157 0.9592 0.0
H599 H 0.93631 0.63278 0.98516 0.0
C600 C 0.01193 0.67925 0.24046 0.0
C601 C 1.00188 0.69916 0.2204 0.0
C602 C 0.00806 0.65977 0.20371 0.0
C603 C 0.99431 0.65991 0.14557 0.0
C604 C 0.98279 0.6794 0.12917 0.0
C605 C 0.98667 0.6989 0.16599 0.0
C606 C 0.99415 0.64073 0.09734 0.0
C607 C 0.97397 0.63065 0.08027 0.0
C608 C 0.01402 0.63264 0.06716 0.0
C609 C 0.03557 0.64394 0.07735 0.0
C610 C 0.03806 0.66637 0.0599 0.0
C611 C 0.05822 0.6771 0.07096 0.0
C612 C 0.07609 0.66552 0.09888 0.0
C613 C 0.07385 0.64316 0.11549 0.0
C614 C 0.0537 0.63236 0.10462 0.0
C615 C 0.98334 0.57198 0.84117 0.0
C616 C 0.99508 0.55225 0.85332 0.0
C617 C 0.98237 0.58861 0.89115 0.0
C618 C 0.99331 0.58602 0.95417 0.0
C619 C 1.00501 0.56634 0.96656 0.0
C620 C 1.0057 0.54954 0.91698 0.0
C621 C 0.99314 0.60417 0.00604 0.0
C622 C 0.01331 0.61424 0.02321 0.0
C623 C 0.97321 0.61249 0.0351 0.0
C624 C 0.95144 0.60229 0.01998 0.0
C625 C 0.94794 0.57961 0.03129 0.0
C626 C 0.92747 0.57006 0.01616 0.0
C627 C 0.91029 0.58306 0.99011 0.0
C628 C 0.91354 0.60565 0.97933 0.0
C629 C 0.934 0.61528 0.99431 0.0
H630 H 0.89445 0.57564 0.97841 0.0
H631 H 0.09168 0.67386 0.10749 0.0
H632 H 1.00148 0.2188 0.32806 0.0
H633 H 0.97735 0.20061 0.412 0.0
H634 H 0.93054 0.25432 0.39751 0.0
H635 H 0.95479 0.27269 0.31288 0.0
H636 H 0.94006 0.22806 0.5432 0.0
H637 H 0.91255 0.2224 0.30981 0.0
H638 H 0.91968 0.21951 0.18518 0.0
H639 H 0.95342 0.15782 0.2161 0.0
H640 H 0.94683 0.16056 0.34105 0.0
H641 H 0.8845 0.10819 0.54277 0.0
H642 H 0.88234 0.14735 0.51053 0.0
H643 H 0.94602 0.15852 0.60393 0.0
H644 H 0.94819 0.11996 0.63608 0.0
H645 H 0.91102 0.16241 0.42091 0.0
H646 H 0.95551 0.2095 0.64531 0.0
H647 H 0.95218 0.21283 0.77106 0.0
H648 H 0.88455 0.19112 0.76223 0.0
H649 H 0.88731 0.18796 0.63623 0.0
C650 C 0.98636 0.227 0.34432 0.0
C651 C 0.9798 0.24695 0.31395 0.0
C652 C 0.97269 0.21672 0.3924 0.0
C653 C 0.95222 0.22615 0.41034 0.0
C654 C 0.9464 0.24696 0.38445 0.0
C655 C 0.96019 0.25736 0.33627 0.0
C656 C 0.93584 0.21211 0.44568 0.0
C657 C 0.93318 0.21388 0.51695 0.0
C658 C 0.92642 0.19412 0.41028 0.0
C659 C 0.92918 0.1917 0.33476 0.0
C660 C 0.92148 0.20822 0.29 0.0
C661 C 0.92547 0.20663 0.21932 0.0
C662 C 0.93701 0.1885 0.19273 0.0
C663 C 0.94446 0.17184 0.23675 0.0
C664 C 0.94056 0.17338 0.30749 0.0
C665 C 0.89764 0.11925 0.55833 0.0
C666 C 0.9165 0.11104 0.59198 0.0
C667 C 0.89633 0.14159 0.54027 0.0
C668 C 0.91387 0.15597 0.55558 0.0
C669 C 0.93196 0.148 0.59322 0.0
C670 C 0.93322 0.12581 0.61145 0.0
C671 C 0.91614 0.17749 0.51998 0.0
C672 C 0.91652 0.17706 0.44788 0.0
C673 C 0.92331 0.19669 0.55494 0.0
C674 C 0.92161 0.19855 0.63098 0.0
C675 C 0.93983 0.20564 0.66996 0.0
C676 C 0.93806 0.20748 0.74139 0.0
C677 C 0.91814 0.20227 0.77459 0.0
C678 C 0.89996 0.19518 0.73644 0.0
C679 C 0.90164 0.19332 0.66499 0.0
H680 H 0.91684 0.20363 0.82991 0.0
H681 H 0.94017 0.18735 0.13805 0.0
H682 H 0.29096 0.06657 0.1841 0.0
H683 H 0.31922 0.05877 0.26955 0.0
H684 H 0.27023 0.02828 0.40014 0.0
H685 H 0.24253 0.03354 0.31349 0.0
H686 H 0.32756 0.0515 0.43662 0.0
H687 H 0.27535 0.98662 0.35756 0.0
H688 H 0.24994 0.97445 0.26598 0.0
H689 H 0.29785 0.99351 0.11284 0.0
H690 H 0.32323 0.00603 0.20357 0.0
H691 H 0.39727 0.96496 0.55827 0.0
H692 H 0.36362 0.98593 0.5344 0.0
H693 H 0.37685 0.98088 0.31684 0.0
H694 H 0.41001 0.95906 0.34014 0.0
H695 H 0.33487 0.97584 0.34013 0.0
H696 H 0.39102 0.02816 0.41645 0.0
H697 H 0.41831 0.04119 0.5012 0.0
H698 H 0.36674 0.04729 0.65313 0.0
H699 H 0.33918 0.03417 0.56932 0.0
C700 C 0.28598 0.05856 0.23146 0.0
C701 C 0.26473 0.04915 0.23879 0.0
C702 C 0.30212 0.05468 0.2812 0.0
C703 C 0.29683 0.04224 0.3398 0.0
C704 C 0.27461 0.03764 0.35454 0.0
C705 C 0.25865 0.0407 0.30392 0.0
C706 C 0.31386 0.02736 0.36786 0.0
C707 C 0.32906 0.03486 0.41664 0.0
C708 C 0.31589 0.00577 0.34095 0.0
C709 C 0.30095 0.9975 0.28689 0.0
C710 C 0.28037 0.98819 0.30424 0.0
C711 C 0.26595 0.9813 0.25255 0.0
C712 C 0.27219 0.98331 0.18354 0.0
C713 C 0.2929 0.99209 0.16614 0.0
C714 C 0.30726 0.99917 0.21761 0.0
C715 C 0.39261 0.96766 0.50525 0.0
C716 C 0.40624 0.96032 0.45089 0.0
C717 C 0.37356 0.97994 0.49185 0.0
C718 C 0.36798 0.98527 0.42405 0.0
C719 C 0.38095 0.97704 0.36965 0.0
C720 C 0.3999 0.96462 0.38293 0.0
C721 C 0.34894 0.99982 0.40897 0.0
C722 C 0.33327 0.99227 0.3619 0.0
C723 C 0.34674 0.02128 0.43747 0.0
C724 C 0.36308 0.03016 0.48674 0.0
C725 C 0.38552 0.03235 0.46789 0.0
C726 C 0.40103 0.03971 0.51576 0.0
C727 C 0.39426 0.04506 0.58249 0.0
C728 C 0.37194 0.0432 0.60136 0.0
C729 C 0.35637 0.03585 0.55367 0.0
H730 H 0.4063 0.05063 0.61961 0.0
H731 H 0.26098 0.978 0.14368 0.0
H732 H 0.57575 0.27413 0.18619 0.0
H733 H 0.59777 0.29457 0.26879 0.0
H734 H 0.56266 0.26286 0.43569 0.0
H735 H 0.5396 0.24338 0.35326 0.0
H736 H 0.55986 0.30478 0.44912 0.0
H737 H 0.62051 0.25682 0.41246 0.0
H738 H 0.64739 0.23421 0.34752 0.0
H739 H 0.67304 0.29247 0.24957 0.0
H740 H 0.6461 0.31543 0.31307 0.0
H741 H 0.60575 0.38719 0.6438 0.0
H742 H 0.60918 0.34855 0.60953 0.0
H743 H 0.61949 0.36866 0.39926 0.0
H744 H 0.61507 0.40708 0.43205 0.0
H745 H 0.6394 0.32539 0.43743 0.0
H746 H 0.56992 0.36804 0.44036 0.0
H747 H 0.54286 0.39214 0.49927 0.0
H748 H 0.53356 0.34302 0.65605 0.0
H749 H 0.56126 0.31892 0.59925 0.0
C750 C 0.57287 0.2713 0.24047 0.0
C751 C 0.55562 0.25742 0.26295 0.0
C752 C 0.58577 0.28272 0.28782 0.0
C753 C 0.582 0.2802 0.35869 0.0
C754 C 0.56592 0.26505 0.3813 0.0
C755 C 0.55282 0.25381 0.33395 0.0
C756 C 0.59198 0.29609 0.40756 0.0
C757 C 0.57742 0.30863 0.44841 0.0
C758 C 0.61482 0.30156 0.40579 0.0
C759 C 0.6312 0.28787 0.36754 0.0
C760 C 0.63178 0.26482 0.37678 0.0
C761 C 0.64705 0.25193 0.34024 0.0
C762 C 0.66191 0.2619 0.29443 0.0
C763 C 0.66154 0.28478 0.28514 0.0
C764 C 0.6463 0.29775 0.32153 0.0
C765 C 0.60939 0.38344 0.59057 0.0
C766 C 0.60928 0.40021 0.54035 0.0
C767 C 0.61168 0.36135 0.5713 0.0
C768 C 0.61419 0.35583 0.50175 0.0
C769 C 0.61758 0.37264 0.45325 0.0
C770 C 0.61498 0.3947 0.47226 0.0
C771 C 0.60716 0.33391 0.477 0.0
C772 C 0.62211 0.32059 0.44035 0.0
C773 C 0.58465 0.32761 0.48217 0.0
C774 C 0.56783 0.34184 0.51613 0.0
C775 C 0.56228 0.36249 0.48782 0.0
C776 C 0.54688 0.37615 0.52087 0.0
C777 C 0.53661 0.36916 0.58161 0.0
C778 C 0.54171 0.34847 0.60937 0.0
C779 C 0.55729 0.33483 0.57687 0.0
H780 H 0.5246 0.37973 0.6068 0.0
H781 H 0.67371 0.25189 0.26616 0.0
H782 H 0.27351 0.55841 0.28206 0.0
H783 H 0.24921 0.58092 0.35216 0.0
H784 H 0.21466 0.60292 0.17141 0.0
H785 H 0.24007 0.58156 0.09936 0.0
H786 H 0.20979 0.63184 0.29855 0.0
H787 H 0.19618 0.55763 0.21253 0.0
H788 H 0.20931 0.52021 0.18252 0.0
H789 H 0.22862 0.50937 0.39197 0.0
H790 H 0.21579 0.5469 0.42268 0.0
H791 H 0.09493 0.60779 0.38311 0.0
H792 H 0.13169 0.6153 0.33495 0.0
H793 H 0.16188 0.59096 0.5205 0.0
H794 H 0.12523 0.58402 0.56999 0.0
H795 H 0.17091 0.56676 0.39736 0.0
H796 H 0.17209 0.64106 0.48202 0.0
H797 H 0.15757 0.67874 0.49923 0.0
H798 H 0.15846 0.68973 0.28123 0.0
H799 H 0.1727 0.65198 0.2626 0.0
C800 C 0.26179 0.56905 0.25616 0.0
C801 C 0.25821 0.5674 0.18495 0.0
C802 C 0.24783 0.58201 0.29676 0.0
C803 C 0.22981 0.59301 0.26702 0.0
C804 C 0.2284 0.59436 0.19532 0.0
C805 C 0.24271 0.58177 0.15434 0.0
C806 C 0.20965 0.59645 0.30899 0.0
C807 C 0.20119 0.61773 0.32029 0.0
C808 C 0.19844 0.57793 0.33665 0.0
C809 C 0.20524 0.55504 0.31961 0.0
C810 C 0.20329 0.54724 0.25197 0.0
C811 C 0.21068 0.52605 0.23486 0.0
C812 C 0.21988 0.51244 0.28527 0.0
C813 C 0.22153 0.51995 0.35297 0.0
C814 C 0.21417 0.54116 0.37027 0.0
C815 C 0.10934 0.60481 0.41471 0.0
C816 C 0.1072 0.59489 0.47984 0.0
C817 C 0.13033 0.60916 0.38713 0.0
C818 C 0.14941 0.60363 0.42424 0.0
C819 C 0.14729 0.59534 0.49123 0.0
C820 C 0.12636 0.59116 0.51903 0.0
C821 C 0.17103 0.60227 0.38868 0.0
C822 C 0.17964 0.58108 0.37734 0.0
C823 C 0.18182 0.62088 0.3599 0.0
C824 C 0.17329 0.6436 0.37089 0.0
C825 C 0.169 0.65143 0.43768 0.0
C826 C 0.16086 0.67282 0.44771 0.0
C827 C 0.15705 0.6866 0.39135 0.0
C828 C 0.16141 0.67903 0.32484 0.0
C829 C 0.16955 0.65765 0.31453 0.0
H830 H 0.15075 0.70316 0.39922 0.0
H831 H 0.22568 0.49606 0.27191 0.0
H832 H 0.03964 0.78961 0.16232 0.0
H833 H 0.06388 0.80558 0.07544 0.0
H834 H 0.10035 0.74439 0.06117 0.0
H835 H 0.07572 0.72798 0.14908 0.0
H836 H 0.11868 0.80246 0.07827 0.0
H837 H 0.09418 0.74238 0.93401 0.0
H838 H 0.06699 0.71419 0.8993 0.0
H839 H 0.01911 0.76499 0.85797 0.0
H840 H 0.04585 0.79343 0.8936 0.0
H841 H 0.1228 0.89386 0.84317 0.0
H842 H 0.13253 0.85557 0.87272 0.0
H843 H 0.06349 0.84158 0.91234 0.0
H844 H 0.05382 0.87931 0.8846 0.0
H845 H 0.08368 0.80684 0.8489 0.0
H846 H 0.09851 0.85885 0.04498 0.0
H847 H 0.11957 0.89002 0.09365 0.0
H848 H 0.18079 0.85722 0.04397 0.0
H849 H 0.16001 0.82594 0.99461 0.0
C850 C 0.05302 0.7796 0.14178 0.0
C851 C 0.05595 0.75764 0.16298 0.0
C852 C 0.06679 0.78871 0.09192 0.0
C853 C 0.08382 0.77613 0.06215 0.0
C854 C 0.0872 0.75427 0.08359 0.0
C855 C 0.07317 0.74498 0.13355 0.0
C856 C 0.09686 0.78656 0.00673 0.0
C857 C 0.11206 0.8028 0.02654 0.0
C858 C 0.08809 0.78698 0.93963 0.0
C859 C 0.07204 0.77001 0.9167 0.0
C860 C 0.07781 0.74752 0.91792 0.0
C861 C 0.06248 0.7315 0.89799 0.0
C862 C 0.04134 0.7378 0.87634 0.0
C863 C 0.0355 0.76013 0.87455 0.0
C864 C 0.05076 0.77621 0.89452 0.0
C865 C 0.10974 0.88251 0.85777 0.0
C866 C 0.08752 0.88965 0.86146 0.0
C867 C 0.11531 0.86063 0.87393 0.0
C868 C 0.09872 0.84568 0.89412 0.0
C869 C 0.07654 0.85267 0.89553 0.0
C870 C 0.07102 0.87435 0.87971 0.0
C871 C 0.10387 0.82366 0.92307 0.0
C872 C 0.09204 0.80547 0.89794 0.0
C873 C 0.11535 0.82163 0.98589 0.0
C874 C 0.12779 0.84026 0.01572 0.0
C875 C 0.11647 0.85837 0.04437 0.0
C876 C 0.12833 0.87603 0.072 0.0
C877 C 0.1515 0.87562 0.07175 0.0
C878 C 0.16284 0.85753 0.04399 0.0
C879 C 0.15104 0.83985 0.01617 0.0
H880 H 0.16067 0.88931 0.09317 0.0
H881 H 0.02949 0.72538 0.86097 0.0
H882 H 0.77798 0.00866 0.11737 0.0
H883 H 0.75484 0.02443 0.02749 0.0
H884 H 0.70482 0.9753 0.06889 0.0
H885 H 0.72809 0.95923 0.15876 0.0
H886 H 0.72608 0.01235 0.90871 0.0
H887 H 0.66204 1.00465 0.12396 0.0
H888 H 0.66025 0.99974 0.24985 0.0
H889 H 0.7222 0.03383 0.27081 0.0
H890 H 0.72425 0.03905 0.14524 0.0
H891 H 0.61084 0.01946 0.85973 0.0
H892 H 0.65032 0.01313 0.87751 0.0
H893 H 0.65747 0.07978 0.95215 0.0
H894 H 0.61775 0.08646 0.9323 0.0
H895 H 0.6641 0.04325 0.04772 0.0
H896 H 0.69135 0.07074 0.83971 0.0
H897 H 0.69564 0.07804 0.71582 0.0
H898 H 0.70791 0.00919 0.67934 0.0
H899 H 0.70357 1.00139 0.80313 0.0
C900 C 0.76261 1.00045 0.10467 0.0
C901 C 0.75468 0.98282 0.14497 0.0
C902 C 0.74944 0.00949 0.05329 0.0
C903 C 0.72817 1.00111 0.04245 0.0
C904 C 0.72128 0.98191 0.07696 0.0
C905 C 0.73445 0.97286 0.12842 0.0
C906 C 0.71152 0.01525 0.00956 0.0
C907 C 0.71245 0.01912 0.93858 0.0
C908 C 0.69452 0.02495 0.04971 0.0
C909 C 0.69334 0.02213 0.12534 0.0
C910 C 0.67523 0.01115 0.15556 0.0
C911 C 0.67419 0.00828 0.22678 0.0
C912 C 0.6911 0.01646 0.26826 0.0
C913 C 0.70914 0.02744 0.23863 0.0
C914 C 0.71027 0.03033 0.16743 0.0
C915 C 0.62095 0.03288 0.8787 0.0
C916 C 0.61139 0.05328 0.8962 0.0
C917 C 0.64351 0.02939 0.88751 0.0
C918 C 0.65671 0.04608 0.91533 0.0
C919 C 0.64748 0.06691 0.92932 0.0
C920 C 0.62489 0.07061 0.91883 0.0
C921 C 0.67787 0.03954 0.94594 0.0
C922 C 0.67787 0.03693 0.01734 0.0
C923 C 0.69565 0.03127 0.90596 0.0
C924 C 0.6971 0.03548 0.83089 0.0
C925 C 0.69473 0.05709 0.80528 0.0
C926 C 0.69732 0.06135 0.73511 0.0
C927 C 0.70221 0.04412 0.68987 0.0
C928 C 0.70427 0.02254 0.71457 0.0
C929 C 0.7018 0.0182 0.7848 0.0
H930 H 0.70435 0.04754 0.63567 0.0
H931 H 0.69013 0.01439 0.32334 0.0
H932 H 0.48084 0.7586 0.09744 0.0
H933 H 0.45829 0.73523 0.02431 0.0
H934 H 0.41208 0.7251 0.19178 0.0
H935 H 0.43528 0.74791 0.26606 0.0
H936 H 0.42801 0.68809 0.15311 0.0
H937 H 0.39579 0.74759 0.02992 0.0
H938 H 0.39501 0.78313 0.96803 0.0
H939 H 0.43792 0.75656 0.81183 0.0
H940 H 0.43925 0.72095 0.87317 0.0
H941 H 0.39835 0.59657 0.96019 0.0
H942 H 0.39064 0.63313 0.00732 0.0
H943 H 0.44359 0.66051 0.88429 0.0
H944 H 0.45045 0.62437 0.83336 0.0
H945 H 0.41177 0.69089 0.9038 0.0
H946 H 0.45382 0.63904 0.0444 0.0
H947 H 0.45919 0.60398 0.10701 0.0
H948 H 0.4015 0.61752 0.2305 0.0
H949 H 0.39569 0.65256 0.16797 0.0
C950 C 0.46541 0.7521 0.1178 0.0
C951 C 0.45987 0.75477 0.18742 0.0
C952 C 0.45239 0.73882 0.07577 0.0
C953 C 0.4334 0.72837 0.10241 0.0
C954 C 0.42668 0.73294 0.17016 0.0
C955 C 0.43991 0.74592 0.21255 0.0
C956 C 0.42373 0.70938 0.06511 0.0
C957 C 0.42363 0.68893 0.09917 0.0
C958 C 0.41866 0.71026 0.99422 0.0
C959 C 0.41762 0.73155 0.95632 0.0
C960 C 0.40514 0.74933 0.98252 0.0
C961 C 0.4046 0.7695 0.9475 0.0
C962 C 0.41641 0.7721 0.88605 0.0
C963 C 0.42874 0.75451 0.85938 0.0
C964 C 0.42935 0.73431 0.89418 0.0
C965 C 0.40784 0.61048 0.94119 0.0
C966 C 0.42542 0.60743 0.89425 0.0
C967 C 0.40346 0.63137 0.96848 0.0
C968 C 0.41688 0.64941 0.95035 0.0
C969 C 0.4331 0.64679 0.89914 0.0
C970 C 0.43727 0.62602 0.87104 0.0
C971 C 0.4167 0.66989 0.99178 0.0
C972 C 0.41513 0.69042 0.95846 0.0
C973 C 0.42064 0.66921 0.06332 0.0
C974 C 0.42415 0.64821 0.10099 0.0
C975 C 0.44221 0.63444 0.08462 0.0
C976 C 0.44534 0.6146 0.1201 0.0
C977 C 0.43065 0.60849 0.17254 0.0
C978 C 0.41283 0.62224 0.18974 0.0
C979 C 0.40961 0.64209 0.15431 0.0
H980 H 0.4331 0.59312 0.19997 0.0
H981 H 0.41599 0.78775 0.85908 0.0
H982 H 0.78863 0.52293 0.11422 0.0
H983 H 0.80956 0.51363 0.01007 0.0
H984 H 0.76799 0.45646 0.98022 0.0
H985 H 0.74647 0.4664 0.0826 0.0
H986 H 0.83402 0.48077 0.99971 0.0
H987 H 0.77079 0.43735 0.815 0.0
H988 H 0.73291 0.44321 0.77172 0.0
H989 H 0.73694 0.51208 0.82218 0.0
H990 H 0.77497 0.50674 0.86469 0.0
H991 H 0.88824 0.40141 0.8368 0.0
H992 H 0.85093 0.41382 0.86666 0.0
H993 H 0.85801 0.46945 0.7303 0.0
H994 H 0.89543 0.4577 0.70146 0.0
H995 H 0.80885 0.45099 0.77591 0.0
H996 H 0.87784 0.48728 0.8468 0.0
H997 H 0.91726 0.48638 0.87999 0.0
H998 H 0.90187 0.44161 0.04482 0.0
H999 H 0.8624 0.44194 0.01158 0.0
C1000 C 0.78381 0.5086 0.08457 0.0
C1001 C 0.7662 0.49521 0.10642 0.0
C1002 C 0.79565 0.50335 0.025 0.0
C1003 C 0.79036 0.48435 0.98701 0.0
C1004 C 0.77215 0.47144 0.00757 0.0
C1005 C 0.76002 0.47696 0.06646 0.0
C1006 C 0.80585 0.47623 0.93314 0.0
C1007 C 0.82833 0.47466 0.9505 0.0
C1008 C 0.79872 0.46829 0.86831 0.0
C1009 C 0.77569 0.47156 0.84383 0.0
C1010 C 0.76362 0.45375 0.81685 0.0
C1011 C 0.74211 0.45699 0.79238 0.0
C1012 C 0.73249 0.47798 0.79445 0.0
C1013 C 0.74437 0.4958 0.8209 0.0
C1014 C 0.76589 0.49266 0.84533 0.0
C1015 C 0.8815 0.4157 0.81063 0.0
C1016 C 0.89512 0.42903 0.76904 0.0
C1017 C 0.86006 0.42262 0.82711 0.0
C1018 C 0.85205 0.44276 0.80156 0.0
C1019 C 0.86398 0.45383 0.75021 0.0
C1020 C 0.88551 0.44705 0.73407 0.0
C1021 C 0.83629 0.45537 0.84422 0.0
C1022 C 0.8141 0.45758 0.8249 0.0
C1023 C 0.84364 0.46481 0.90628 0.0
C1024 C 0.86729 0.46447 0.92636 0.0
C1025 C 0.88293 0.47711 0.88977 0.0
C1026 C 0.90524 0.47676 0.90867 0.0
C1027 C 0.91205 0.46401 0.96466 0.0
C1028 C 0.89656 0.45151 1.00159 0.0
C1029 C 0.87423 0.45175 0.98268 0.0
H1030 H 0.92933 0.46376 0.97925 0.0
H1031 H 0.71585 0.48046 0.77542 0.0
H1032 H 0.97241 0.22129 0.09128 0.0
H1033 H 0.97606 0.18949 0.01734 0.0
H1034 H 0.04276 0.2093 0.96407 0.0
H1035 H 0.03984 0.24026 0.04527 0.0
H1036 H 0.97969 0.17842 0.9015 0.0
H1037 H 0.07457 0.16551 0.91761 0.0
H1038 H 0.10554 0.17334 0.99621 0.0
H1039 H 0.0603 0.17466 0.16742 0.0
H1040 H 0.02913 0.1666 0.08994 0.0
H1041 H 1.00154 0.08482 0.69329 0.0
H1042 H 1.002 0.12171 0.74427 0.0
H1043 H 0.02648 0.09415 0.93384 0.0
H1044 H 0.02685 0.05746 0.88238 0.0
H1045 H 0.04585 0.1302 0.91916 0.0
H1046 H 0.97114 0.10924 0.90343 0.0
H1047 H 0.93509 0.09765 0.8571 0.0
H1048 H 0.93186 0.15677 0.73591 0.0
H1049 H 0.96843 0.16827 0.77861 0.0
C1050 C 0.98799 0.21892 0.06422 0.0
C1051 C 1.00609 0.23304 0.07631 0.0
C1052 C 0.98999 0.20068 0.02086 0.0
C1053 C 0.00993 0.19626 0.98574 0.0
C1054 C 0.02741 0.21163 0.99226 0.0
C1055 C 0.02562 0.22966 0.03779 0.0
C1056 C 0.01222 0.17512 0.94542 0.0
C1057 C 0.99426 0.16799 0.90526 0.0
C1058 C 0.03091 0.16094 0.95094 0.0
C1059 C 0.04952 0.16577 0.99785 0.0
C1060 C 0.07126 0.16746 0.97204 0.0
C1061 C 0.08884 0.17193 0.01638 0.0
C1062 C 0.08487 0.17459 0.08672 0.0
C1063 C 0.06333 0.17269 0.1129 0.0
C1064 C 0.04571 0.16818 0.06881 0.0
C1065 C 1.00721 0.08661 0.74567 0.0
C1066 C 0.01417 0.06802 0.78354 0.0
C1067 C 1.00734 0.10779 0.77505 0.0
C1068 C 0.01402 0.11094 0.84355 0.0
C1069 C 0.02133 0.09241 0.88091 0.0
C1070 C 0.02146 0.0713 0.85134 0.0
C1071 C 0.01305 0.13332 0.87693 0.0
C1072 C 0.03134 0.14072 0.91506 0.0
C1073 C 0.99402 0.14709 0.87349 0.0
C1074 C 0.97278 0.13946 0.84346 0.0
C1075 C 0.96302 0.11956 0.86564 0.0
C1076 C 0.94245 0.11302 0.84007 0.0
C1077 C 0.93123 0.12645 0.79334 0.0
C1078 C 0.94066 0.14634 0.77166 0.0
C1079 C 0.96137 0.1528 0.79616 0.0
H1080 H 0.91523 0.12147 0.77396 0.0
H1081 H 0.0985 0.17806 0.12094 0.0
H1082 H 0.26647 0.98598 0.01858 0.0
H1083 H 0.2995 0.97961 0.94654 0.0
H1084 H 0.30128 0.04889 0.89544 0.0
H1085 H 0.26894 0.05531 0.96912 0.0
H1086 H 0.31675 0.9858 0.81598 0.0
H1087 H 0.35314 0.06802 0.91449 0.0
H1088 H 0.34814 0.09356 0.01211 0.0
H1089 H 0.32467 0.04017 0.13807 0.0
H1090 H 0.32989 0.01421 0.04174 0.0
H1091 H 0.42356 1.00189 0.65273 0.0
H1092 H 0.38504 1.00489 0.69337 0.0
H1093 H 0.40773 1.00293 0.90319 0.0
H1094 H 0.44593 1.00107 0.86293 0.0
H1095 H 0.37889 0.03166 0.9005 0.0
H1096 H 0.38059 0.95811 0.80803 0.0
H1097 H 0.38603 0.92976 0.71862 0.0
H1098 H 0.33504 0.95966 0.59662 0.0
H1099 H 0.32977 0.9886 0.68428 0.0
C1100 C 0.2734 0.99965 0.98975 0.0
C1101 C 0.2651 0.02115 0.99967 0.0
C1102 C 0.2924 0.99604 0.94875 0.0
C1103 C 0.30334 0.01385 0.91663 0.0
C1104 C 0.29351 0.03489 0.92053 0.0
C1105 C 0.27479 0.03853 0.96205 0.0
C1106 C 0.32627 0.01121 0.887 0.0
C1107 C 0.33035 0.99586 0.83421 0.0
C1108 C 0.34427 0.02392 0.91157 0.0
C1109 C 0.34169 0.03924 0.97059 0.0
C1110 C 0.34704 0.06171 0.96315 0.0
C1111 C 0.34415 0.07624 0.01827 0.0
C1112 C 0.33602 0.06848 0.08119 0.0
C1113 C 0.33091 0.04613 0.08928 0.0
C1114 C 0.33383 0.03151 0.03444 0.0
C1115 C 0.42028 1.00204 0.70751 0.0
C1116 C 0.43794 1.00134 0.75449 0.0
C1117 C 0.39815 1.00367 0.73089 0.0
C1118 C 0.39311 1.00404 0.80183 0.0
C1119 C 0.41086 1.00293 0.84832 0.0
C1120 C 0.43285 1.00178 0.82511 0.0
C1121 C 0.36969 0.0062 0.82879 0.0
C1122 C 0.36543 0.02156 0.8815 0.0
C1123 C 0.35176 0.99304 0.80526 0.0
C1124 C 0.35493 0.97565 0.75249 0.0
C1125 C 0.37067 0.95876 0.76185 0.0
C1126 C 0.37375 0.9426 0.71144 0.0
C1127 C 0.36093 0.94295 0.6519 0.0
C1128 C 0.34499 0.95943 0.64272 0.0
C1129 C 0.342 0.97577 0.69264 0.0
H1130 H 0.36335 0.93044 0.61289 0.0
H1131 H 0.33372 0.07976 0.12374 0.0
H1132 H 0.48922 0.29134 0.13676 0.0
H1133 H 0.48421 0.32247 0.05818 0.0
H1134 H 0.51881 0.28657 0.89888 0.0
H1135 H 0.52409 0.25542 0.97862 0.0
H1136 H 0.5353 0.32661 0.90773 0.0
H1137 H 0.46232 0.29879 0.88712 0.0
H1138 H 0.42611 0.28423 0.92498 0.0
H1139 H 0.4124 0.34481 0.03159 0.0
H1140 H 0.44868 0.35964 0.99522 0.0
H1141 H 0.51806 0.41874 0.68205 0.0
H1142 H 0.51692 0.38141 0.73091 0.0
H1143 H 0.48394 0.4066 0.91163 0.0
H1144 H 0.48453 0.44371 0.86292 0.0
H1145 H 0.46561 0.36885 0.87543 0.0
H1146 H 0.54144 0.39439 0.90272 0.0
H1147 H 0.57695 0.40876 0.85794 0.0
H1148 H 0.58444 0.35134 0.73061 0.0
H1149 H 0.54896 0.33663 0.77475 0.0
C1150 C 0.49503 0.28981 0.08418 0.0
C1151 C 0.50655 0.27077 0.06321 0.0
C1152 C 0.49225 0.30766 0.0392 0.0
C1153 C 0.50095 0.30696 0.97198 0.0
C1154 C 0.51185 0.28758 0.95022 0.0
C1155 C 0.51461 0.26965 0.99541 0.0
C1156 C 0.50007 0.3271 0.92707 0.0
C1157 C 0.51995 0.33558 0.89959 0.0
C1158 C 0.48017 0.3391 0.91664 0.0
C1159 C 0.45832 0.33026 0.93883 0.0
C1160 C 0.45167 0.30895 0.9191 0.0
C1161 C 0.43111 0.30066 0.94021 0.0
C1162 C 0.41698 0.31357 0.98078 0.0
C1163 C 0.42337 0.33482 1.00021 0.0
C1164 C 0.44392 0.34319 0.97927 0.0
C1165 C 0.51045 0.41635 0.73204 0.0
C1166 C 0.50145 0.4344 0.76848 0.0
C1167 C 0.50989 0.39495 0.76007 0.0
C1168 C 0.50058 0.39109 0.82548 0.0
C1169 C 0.49122 0.40901 0.86115 0.0
C1170 C 0.49165 0.43034 0.83315 0.0
C1171 C 0.50088 0.36862 0.8579 0.0
C1172 C 0.48089 0.35971 0.883 0.0
C1173 C 0.52064 0.35614 0.86557 0.0
C1174 C 0.54241 0.36456 0.8413 0.0
C1175 C 0.55064 0.38486 0.86505 0.0
C1176 C 0.57077 0.39305 0.83987 0.0
C1177 C 0.58291 0.381 0.79133 0.0
C1178 C 0.57502 0.36066 0.7682 0.0
C1179 C 0.55493 0.35237 0.7934 0.0
H1180 H 0.59848 0.38739 0.77189 0.0
H1181 H 0.40107 0.30712 0.99705 0.0
H1182 H 0.2505 0.52579 0.94331 0.0
H1183 H 0.21617 0.5191 0.88023 0.0
H1184 H 0.19263 0.4775 0.04502 0.0
H1185 H 0.22715 0.48422 0.1083 0.0
H1186 H 0.17897 0.46319 0.90889 0.0
H1187 H 0.17924 0.52848 0.05023 0.0
H1188 H 0.19509 0.5636 0.09068 0.0
H1189 H 0.18923 0.59111 0.88829 0.0
H1190 H 0.17383 0.55597 0.84602 0.0
H1191 H 0.06329 0.4742 0.84383 0.0
H1192 H 0.1002 0.47273 0.89433 0.0
H1193 H 0.12153 0.52562 0.76086 0.0
H1194 H 0.08437 0.52765 0.7116 0.0
H1195 H 0.13689 0.53314 0.88161 0.0
H1196 H 0.13719 0.46898 0.73816 0.0
H1197 H 0.12342 0.43363 0.69256 0.0
H1198 H 0.12924 0.40408 0.89235 0.0
H1199 H 0.14278 0.43935 0.93937 0.0
C1200 C 0.23845 0.51437 0.96454 0.0
C1201 C 0.2417 0.50515 0.03004 0.0
C1202 C 0.2187 0.51076 0.92884 0.0
C1203 C 0.20163 0.49803 0.95816 0.0
C1204 C 0.20555 0.48732 0.02117 0.0
C1205 C 0.22537 0.49098 0.05706 0.0
C1206 C 0.17899 0.4982 0.92712 0.0
C1207 C 0.16963 0.47842 0.90359 0.0
C1208 C 0.16693 0.51814 0.9189 0.0
C1209 C 0.17555 0.5395 0.94478 0.0
C1210 C 0.18145 0.54196 0.0142 0.0
C1211 C 0.19035 0.56187 0.03749 0.0
C1212 C 0.19319 0.57955 0.99214 0.0
C1213 C 0.18705 0.57738 0.92337 0.0
C1214 C 0.17823 0.55747 0.89969 0.0
C1215 C 0.07583 0.48545 0.82474 0.0
C1216 C 0.07072 0.50101 0.77327 0.0
C1217 C 0.09709 0.48452 0.85359 0.0
C1218 C 0.114 0.49883 0.83102 0.0
C1219 C 0.10893 0.51434 0.77946 0.0
C1220 C 0.0876 0.51545 0.75106 0.0
C1221 C 0.13671 0.49809 0.86236 0.0
C1222 C 0.14612 0.51783 0.88647 0.0
C1223 C 0.14885 0.47812 0.87056 0.0
C1224 C 0.1408 0.45687 0.84242 0.0
C1225 C 0.13538 0.45499 0.77248 0.0
C1226 C 0.12764 0.43496 0.74636 0.0
C1227 C 0.1254 0.41663 0.78957 0.0
C1228 C 0.13096 0.41829 0.85896 0.0
C1229 C 0.13869 0.43829 0.88536 0.0
H1230 H 0.1194 0.40114 0.76926 0.0
H1231 H 0.20012 0.59493 0.01032 0.0
H1232 H 0.04021 0.76761 0.41952 0.0
H1233 H 0.03329 0.80017 0.49038 0.0
H1234 H 0.96874 0.80755 0.3989 0.0
H1235 H 0.97591 0.77494 0.32683 0.0
H1236 H 0.9907 0.84524 0.39122 0.0
H1237 H 0.97598 0.79425 0.57254 0.0
H1238 H 0.98255 0.7624 0.64879 0.0
H1239 H 0.04186 0.79281 0.72402 0.0
H1240 H 0.03591 0.82469 0.64721 0.0
H1241 H 0.96736 0.94025 0.59583 0.0
H1242 H 0.9654 0.90295 0.54793 0.0
H1243 H 0.03191 0.88983 0.61698 0.0
H1244 H 0.03403 0.92699 0.66499 0.0
H1245 H 1.00501 0.85442 0.64021 0.0
H1246 H 0.02209 0.9029 0.45141 0.0
H1247 H 0.01582 0.93547 0.37771 0.0
H1248 H 0.95263 0.90967 0.31763 0.0
H1249 H 0.95829 0.87711 0.39211 0.0
C1250 C 0.0242 0.77569 0.41644 0.0
C1251 C 0.00848 0.76854 0.36829 0.0
C1252 C 0.02026 0.7944 0.4569 0.0
C1253 C 1.00043 0.80645 0.45049 0.0
C1254 C 0.98416 0.79859 0.40504 0.0
C1255 C 0.98811 0.77977 0.36451 0.0
C1256 C 0.99781 0.82826 0.48602 0.0
C1257 C 0.99334 0.8471 0.44598 0.0
C1258 C 1.0019 0.83099 0.55724 0.0
C1259 C 1.00559 0.8118 0.60352 0.0
C1260 C 0.99054 0.79408 0.60482 0.0
C1261 C 0.99415 0.77602 0.64823 0.0
C1262 C 0.01265 0.77554 0.69101 0.0
C1263 C 0.02756 0.79318 0.69069 0.0
C1264 C 0.02407 0.81125 0.64724 0.0
C1265 C 0.98156 0.92943 0.60121 0.0
C1266 C 1.00087 0.93678 0.63434 0.0
C1267 C 0.98042 0.90806 0.57358 0.0
C1268 C 0.99858 0.89353 0.57823 0.0
C1269 C 0.01766 0.90064 0.61273 0.0
C1270 C 0.01885 0.922 0.6401 0.0
C1271 C 0.99803 0.87123 0.54529 0.0
C1272 C 1.00205 0.8524 0.58566 0.0
C1273 C 0.99366 0.86848 0.47437 0.0
C1274 C 0.99049 0.8877 0.42803 0.0
C1275 C 1.00679 0.90423 0.42283 0.0
C1276 C 1.00336 0.92267 0.38092 0.0
C1277 C 0.98381 0.92467 0.34333 0.0
C1278 C 0.96773 0.90812 0.34703 0.0
C1279 C 0.97104 0.88967 0.38908 0.0
H1280 H 0.98114 0.93906 0.31142 0.0
H1281 H 0.01542 0.76152 0.72444 0.0
H1282 H 0.74841 0.95042 0.43042 0.0
H1283 H 0.71473 0.95419 0.50094 0.0
H1284 H 0.70913 0.02239 0.43844 0.0
H1285 H 0.74331 0.01879 0.37161 0.0
H1286 H 0.69159 0.02124 0.55103 0.0
H1287 H 0.68068 0.97567 0.35713 0.0
H1288 H 0.68725 0.94469 0.27757 0.0
H1289 H 0.6718 0.8985 0.43855 0.0
H1290 H 0.66546 0.92929 0.51934 0.0
H1291 H 0.57376 0.02994 0.60372 0.0
H1292 H 0.61153 0.0287 0.55743 0.0
H1293 H 0.61847 0.9617 0.6305 0.0
H1294 H 0.58005 0.96245 0.67166 0.0
H1295 H 0.63568 0.96277 0.51379 0.0
H1296 H 0.6433 0.0167 0.70413 0.0
H1297 H 0.63483 0.05224 0.76112 0.0
H1298 H 0.65368 0.08759 0.5794 0.0
H1299 H 0.66182 0.0525 0.52038 0.0
C1300 C 0.74052 0.96645 0.43453 0.0
C1301 C 0.74873 0.98439 0.39625 0.0
C1302 C 0.72088 0.96852 0.47355 0.0
C1303 C 0.70856 0.98837 0.47332 0.0
C1304 C 0.71788 0.00676 0.43958 0.0
C1305 C 0.73764 1.00478 0.40157 0.0
C1306 C 0.68551 0.98976 0.50406 0.0
C1307 C 0.67941 0.0084 0.54286 0.0
C1308 C 0.66912 0.97336 0.49272 0.0
C1309 C 0.67287 0.95478 0.44445 0.0
C1310 C 0.67885 0.95891 0.37565 0.0
C1311 C 0.68251 0.94138 0.33033 0.0
C1312 C 0.68001 0.91962 0.35305 0.0
C1313 C 0.67378 0.91536 0.42108 0.0
C1314 C 0.67015 0.93285 0.46666 0.0
C1315 C 0.58343 0.01501 0.61038 0.0
C1316 C 0.57385 0.99632 0.64174 0.0
C1317 C 0.60525 0.01434 0.58436 0.0
C1318 C 0.61853 0.99527 0.5916 0.0
C1319 C 0.60892 0.97671 0.62393 0.0
C1320 C 0.58688 0.97714 0.64785 0.0
C1321 C 0.64188 0.99401 0.56292 0.0
C1322 C 0.64798 0.97541 0.52362 0.0
C1323 C 0.65794 0.01097 0.57132 0.0
C1324 C 0.65297 0.03193 0.60762 0.0
C1325 C 0.64545 0.03203 0.67612 0.0
C1326 C 0.64071 0.05207 0.7088 0.0
C1327 C 0.64363 0.07205 0.67404 0.0
C1328 C 0.65135 0.0721 0.6063 0.0
C1329 C 0.65601 0.05216 0.57315 0.0
H1330 H 0.64001 0.08749 0.69974 0.0
H1331 H 0.68284 0.90606 0.3179 0.0
H1332 H 0.54063 0.7329 0.34111 0.0
H1333 H 0.54654 0.699 0.40828 0.0
H1334 H 0.48257 0.70766 0.50494 0.0
H1335 H 0.47696 0.7416 0.43919 0.0
H1336 H 0.50914 0.68933 0.5939 0.0
H1337 H 0.48965 0.67528 0.36038 0.0
H1338 H 0.49316 0.67751 0.23427 0.0
H1339 H 0.55712 0.64642 0.24396 0.0
H1340 H 0.5541 0.6443 0.37036 0.0
H1341 H 0.48025 0.57736 0.66881 0.0
H1342 H 0.48214 0.6151 0.62438 0.0
H1343 H 0.54761 0.60227 0.54352 0.0
H1344 H 0.54571 0.56437 0.58668 0.0
H1345 H 0.52299 0.62313 0.45007 0.0
H1346 H 0.53765 0.63392 0.69164 0.0
H1347 H 0.52928 0.63058 0.81544 0.0
H1348 H 0.46894 0.66717 0.78783 0.0
H1349 H 0.47666 0.67027 0.66382 0.0
C1350 C 0.5283 0.72803 0.37883 0.0
C1351 C 0.5084 0.73998 0.3852 0.0
C1352 C 0.53149 0.70844 0.41649 0.0
C1353 C 0.51476 0.70035 0.46075 0.0
C1354 C 0.49572 0.71334 0.47118 0.0
C1355 C 0.49256 0.73285 0.43375 0.0
C1356 C 0.51601 0.67765 0.49153 0.0
C1357 C 0.51212 0.67487 0.56234 0.0
C1358 C 0.51987 0.65861 0.45078 0.0
C1359 C 0.52178 0.65989 0.37486 0.0
C1360 C 0.50454 0.66909 0.33566 0.0
C1361 C 0.50643 0.67031 0.26413 0.0
C1362 C 0.52539 0.66218 0.23114 0.0
C1363 C 0.54247 0.65276 0.26962 0.0
C1364 C 0.54068 0.65155 0.3412 0.0
C1365 C 0.49514 0.58254 0.64191 0.0
C1366 C 0.51284 0.56767 0.63153 0.0
C1367 C 0.49624 0.60426 0.61673 0.0
C1368 C 0.51514 0.61178 0.58108 0.0
C1369 C 0.53285 0.59699 0.57087 0.0
C1370 C 0.53175 0.57526 0.59589 0.0
C1371 C 0.51622 0.63478 0.55255 0.0
C1372 C 0.52041 0.6376 0.48194 0.0
C1373 C 0.51209 0.65378 0.5933 0.0
C1374 C 0.50766 0.65217 0.66825 0.0
C1375 C 0.52251 0.64111 0.7119 0.0
C1376 C 0.51787 0.63924 0.78217 0.0
C1377 C 0.49853 0.64856 0.80952 0.0
C1378 C 0.48386 0.65986 0.76669 0.0
C1379 C 0.48836 0.66168 0.69639 0.0
H1380 H 0.49494 0.64708 0.86389 0.0
H1381 H 0.52682 0.66312 0.17575 0.0
H1382 H 0.7792 0.47147 0.35102 0.0
H1383 H 0.80973 0.47369 0.43267 0.0
H1384 H 0.79637 0.5431 0.46127 0.0
H1385 H 0.76578 0.5408 0.37859 0.0
H1386 H 0.83761 0.53867 0.4345 0.0
H1387 H 0.79133 0.50503 0.59666 0.0
H1388 H 0.7649 0.4793 0.65112 0.0
H1389 H 0.81102 0.42591 0.62374 0.0
H1390 H 0.83767 0.45125 0.56845 0.0
H1391 H 0.92269 0.50441 0.72683 0.0
H1392 H 0.8845 0.50616 0.68485 0.0
H1393 H 0.90908 0.51291 0.47716 0.0
H1394 H 0.94701 0.51246 0.51922 0.0
H1395 H 0.85907 0.48412 0.61231 0.0
H1396 H 0.876 0.54004 0.37311 0.0
H1397 H 0.90058 0.57083 0.33998 0.0
H1398 H 0.90855 0.58815 0.55223 0.0
H1399 H 0.88379 0.55765 0.5866 0.0
C1400 C 0.78227 0.48702 0.37671 0.0
C1401 C 0.76988 0.5059 0.35906 0.0
C1402 C 0.79979 0.48831 0.42351 0.0
C1403 C 0.80555 0.50856 0.45381 0.0
C1404 C 0.79239 0.52724 0.4389 0.0
C1405 C 0.77471 0.52591 0.39219 0.0
C1406 C 0.82672 0.51059 0.4937 0.0
C1407 C 0.84216 0.5268 0.47377 0.0
C1408 C 0.8327 0.49563 0.54674 0.0
C1409 C 0.8164 0.48003 0.57738 0.0
C1410 C 0.79573 0.48774 0.60127 0.0
C1411 C 0.78073 0.47323 0.63256 0.0
C1412 C 0.78621 0.45095 0.64038 0.0
C1413 C 0.80675 0.44315 0.61726 0.0
C1414 C 0.82182 0.45759 0.58603 0.0
C1415 C 0.91993 0.5065 0.67226 0.0
C1416 C 0.93802 0.50873 0.62662 0.0
C1417 C 0.898 0.50741 0.64813 0.0
C1418 C 0.89358 0.51029 0.57764 0.0
C1419 C 0.91173 0.51157 0.53197 0.0
C1420 C 0.93357 0.51115 0.55614 0.0
C1421 C 0.87017 0.51168 0.55137 0.0
C1422 C 0.85439 0.49611 0.57365 0.0
C1423 C 0.86348 0.52786 0.50274 0.0
C1424 C 0.87817 0.54643 0.48241 0.0
C1425 C 0.8829 0.55049 0.41269 0.0
C1426 C 0.89689 0.56788 0.3937 0.0
C1427 C 0.90616 0.5814 0.44397 0.0
C1428 C 0.90141 0.57762 0.51335 0.0
C1429 C 0.88742 0.56027 0.53261 0.0
H1430 H 0.91701 0.59484 0.42917 0.0
H1431 H 0.7746 0.43975 0.66472 0.0
loop_
_geom_bond_atom_site_label_1
_geom_bond_atom_site_label_2
_geom_bond_distance
_geom_bond_site_symmetry_2
_ccdc_geom_bond_type
H0 C3 0.931 . S
H1 C6 0.928 . S
H2 C8 0.930 . S
C3 H0 0.931 . S
C3 C4 1.413 . S
C3 C5 1.360 . S
C4 C3 1.413 . S
C4 C8 1.429 . S
C5 C3 1.360 . S
C5 C6 1.372 . S
C6 H1 0.928 . S
C6 C5 1.372 . S
C6 C7 1.404 . S
C7 C6 1.404 . S
C7 C8 1.391 . S
C8 H2 0.930 . S
C8 C4 1.429 . S
C8 C7 1.391 . S
H9 C12 0.931 . S
H10 C15 0.928 . S
H11 C17 0.930 . S
C12 H9 0.931 . S
C12 C13 1.413 . S
C12 C14 1.360 . S
C13 C12 1.413 . S
C13 C17 1.429 1_655 S
C14 C12 1.360 . S
C14 C15 1.372 . S
C15 H10 0.928 . S
C15 C14 1.372 . S
C15 C16 1.404 . S
C16 C15 1.404 . S
C16 C17 1.390 1_655 S
C17 H11 0.930 . S
C17 C13 1.429 1_455 S
C17 C16 1.390 1_455 S
H18 C21 0.931 . S
H19 C24 0.928 . S
H20 C26 0.930 . S
C21 H18 0.931 . S
C21 C22 1.413 . S
C21 C23 1.360 . S
C22 C21 1.413 . S
C22 C26 1.429 1_565 S
C23 C21 1.360 . S
C23 C24 1.372 . S
C24 H19 0.928 . S
C24 C23 1.372 . S
C24 C25 1.404 . S
C25 C24 1.404 . S
C25 C26 1.390 1_565 S
C26 H20 0.930 . S
C26 C22 1.429 1_545 S
C26 C25 1.390 1_545 S
H27 C30 0.931 . S
H28 C33 0.928 . S
H29 C35 0.930 . S
C30 H27 0.931 . S
C30 C31 1.413 . S
C30 C32 1.360 . S
C31 C30 1.413 . S
C31 C35 1.429 . S
C32 C30 1.360 . S
C32 C33 1.372 . S
C33 H28 0.928 . S
C33 C32 1.372 . S
C33 C34 1.404 . S
C34 C33 1.404 . S
C34 C35 1.391 . S
C35 H29 0.930 . S
C35 C31 1.429 . S
C35 C34 1.391 . S
H36 C39 0.931 . S
H37 C42 0.928 . S
H38 C44 0.921 1_556 S
C39 H36 0.931 . S
C39 C40 1.413 1_554 S
C39 C41 1.360 . S
C40 C39 1.413 1_556 S
C40 C44 1.427 1_556 S
C41 C39 1.360 . S
C41 C42 1.372 . S
C42 H37 0.928 . S
C42 C41 1.372 . S
C42 C43 1.404 . S
C43 C42 1.404 . S
C43 C44 1.402 . S
C44 H38 0.921 1_554 S
C44 C40 1.427 1_554 S
C44 C43 1.402 . S
H45 C48 0.931 . S
H46 C51 0.928 . S
H47 C53 0.930 1_556 S
C48 H45 0.931 . S
C48 C49 1.413 1_554 S
C48 C50 1.360 . S
C49 C48 1.413 1_556 S
C49 C53 1.429 1_656 S
C50 C48 1.360 . S
C50 C51 1.372 . S
C51 H46 0.928 . S
C51 C50 1.372 . S
C51 C52 1.404 . S
C52 C51 1.404 . S
C52 C53 1.391 1_655 S
C53 H47 0.930 1_554 S
C53 C49 1.429 1_454 S
C53 C52 1.391 1_455 S
H54 C57 0.931 . S
H55 C60 0.928 . S
H56 C62 0.930 1_556 S
C57 H54 0.931 . S
C57 C58 1.413 1_554 S
C57 C59 1.360 . S
C58 C57 1.413 1_556 S
C58 C62 1.429 1_566 S
C59 C57 1.360 . S
C59 C60 1.372 . S
C60 H55 0.928 . S
C60 C59 1.372 . S
C60 C61 1.404 . S
C61 C60 1.404 . S
C61 C62 1.391 1_565 S
C62 H56 0.930 1_554 S
C62 C58 1.429 1_544 S
C62 C61 1.391 1_545 S
H63 C66 0.931 . S
H64 C69 0.928 . S
H65 C71 0.930 . S
C66 H63 0.931 . S
C66 C67 1.413 . S
C66 C68 1.360 1_554 S
C67 C66 1.413 . S
C67 C71 1.429 . S
C68 C66 1.360 1_556 S
C68 C69 1.372 . S
C69 H64 0.928 . S
C69 C68 1.372 . S
C69 C70 1.404 1_556 S
C70 C69 1.404 1_554 S
C70 C71 1.391 . S
C71 H65 0.930 . S
C71 C67 1.429 . S
C71 C70 1.391 . S
Tb72 C82 2.825 . S
Tb72 O83 2.347 1_455 S
Tb72 O86 2.366 . S
Tb72 O91 2.418 . S
Tb72 O92 2.384 1_565 S
Tb72 O95 2.479 . S
Tb72 O96 2.471 . S
Eu73 O84 2.418 . S
Eu73 O85 2.384 1_545 S
Eu73 O88 2.479 . S
Eu73 O89 2.471 . S
Eu73 O90 2.347 1_655 S
Eu73 O93 2.366 . S
Eu73 C103 2.825 . S
C74 O90 1.259 1_565 S
C74 O91 1.265 . S
C75 O92 1.255 . S
C75 O93 1.265 1_455 S
C76 C78 1.380 . S
C76 C79 1.374 . S
C76 C82 1.507 . S
C77 C78 1.384 . S
C77 C81 1.387 . S
C77 H104 0.930 . S
C78 C76 1.380 . S
C78 C77 1.384 . S
C78 H105 0.931 . S
C79 C76 1.374 . S
C79 C80 1.390 . S
C79 H106 0.930 1_455 S
C80 C79 1.390 . S
C80 C81 1.391 . S
C80 H107 0.930 1_455 S
C81 C77 1.387 . S
C81 C80 1.391 . S
C82 Tb72 2.825 . S
C82 C76 1.507 . S
C82 O95 1.238 . S
C82 O96 1.247 . S
O83 Tb72 2.347 1_655 S
O83 C87 1.259 1_565 S
O84 Eu73 2.418 . S
O84 C87 1.265 . S
O85 Eu73 2.384 1_565 S
O85 C94 1.255 . S
O86 Tb72 2.366 . S
O86 C94 1.265 1_455 S
C87 O83 1.259 1_545 S
C87 O84 1.265 . S
O88 Eu73 2.479 . S
O88 C103 1.238 . S
O89 Eu73 2.471 . S
O89 C103 1.247 . S
O90 Eu73 2.347 1_455 S
O90 C74 1.259 1_545 S
O91 Tb72 2.418 . S
O91 C74 1.265 . S
O92 Tb72 2.384 1_545 S
O92 C75 1.255 . S
O93 Eu73 2.366 . S
O93 C75 1.265 1_655 S
C94 O85 1.255 . S
C94 O86 1.265 1_655 S
O95 Tb72 2.479 . S
O95 C82 1.238 . S
O96 Tb72 2.471 . S
O96 C82 1.247 . S
C97 C100 1.380 . S
C97 C101 1.374 . S
C97 C103 1.507 . S
C98 C99 1.387 . S
C98 C102 1.391 . S
C99 C98 1.387 . S
C99 C100 1.384 . S
C99 H108 0.930 . S
C100 C97 1.380 . S
C100 C99 1.384 . S
C100 H109 0.931 . S
C101 C97 1.374 . S
C101 C102 1.390 . S
C101 H110 0.930 1_655 S
C102 C98 1.391 . S
C102 C101 1.390 . S
C102 H111 0.930 1_655 S
C103 Eu73 2.825 . S
C103 O88 1.238 . S
C103 O89 1.247 . S
C103 C97 1.507 . S
H104 C77 0.930 . S
H105 C78 0.931 . S
H106 C79 0.930 1_655 S
H107 C80 0.930 1_655 S
H108 C99 0.930 . S
H109 C100 0.931 . S
H110 C101 0.930 1_455 S
H111 C102 0.930 1_455 S
Tb112 C122 2.825 . S
Tb112 O123 2.347 1_545 S
Tb112 O126 2.366 . S
Tb112 O131 2.418 . S
Tb112 O132 2.384 . S
Tb112 O135 2.479 . S
Tb112 O136 2.471 . S
Eu113 O124 2.418 . S
Eu113 O125 2.384 . S
Eu113 O128 2.479 . S
Eu113 O129 2.471 . S
Eu113 O130 2.347 1_565 S
Eu113 O133 2.366 . S
Eu113 C143 2.825 . S
C114 O130 1.259 . S
C114 O131 1.265 . S
C115 O132 1.255 . S
C115 O133 1.265 1_545 S
C116 C118 1.380 . S
C116 C119 1.374 . S
C116 C122 1.507 . S
C117 C118 1.384 . S
C117 C121 1.387 . S
C117 H144 0.930 . S
C118 C116 1.380 . S
C118 C117 1.384 . S
C118 H145 0.931 . S
C119 C116 1.374 . S
C119 C120 1.390 . S
C119 H146 0.930 1_545 S
C120 C119 1.390 . S
C120 C121 1.391 . S
C120 H147 0.930 1_545 S
C121 C117 1.387 . S
C121 C120 1.391 . S
C122 Tb112 2.825 . S
C122 C116 1.507 . S
C122 O135 1.238 . S
C122 O136 1.247 . S
O123 Tb112 2.347 1_565 S
O123 C127 1.259 . S
O124 Eu113 2.418 . S
O124 C127 1.265 . S
O125 Eu113 2.384 . S
O125 C134 1.255 . S
O126 Tb112 2.366 . S
O126 C134 1.265 1_545 S
C127 O123 1.259 . S
C127 O124 1.265 . S
O128 Eu113 2.479 . S
O128 C143 1.238 . S
O129 Eu113 2.471 . S
O129 C143 1.247 . S
O130 Eu113 2.347 1_545 S
O130 C114 1.259 . S
O131 Tb112 2.418 . S
O131 C114 1.265 . S
O132 Tb112 2.384 . S
O132 C115 1.255 . S
O133 Eu113 2.366 . S
O133 C115 1.265 1_565 S
C134 O125 1.255 . S
C134 O126 1.265 1_565 S
O135 Tb112 2.479 . S
O135 C122 1.238 . S
O136 Tb112 2.471 . S
O136 C122 1.247 . S
C137 C140 1.380 . S
C137 C141 1.374 . S
C137 C143 1.507 . S
C138 C139 1.387 . S
C138 C142 1.391 . S
C139 C138 1.387 . S
C139 C140 1.384 . S
C139 H148 0.930 . S
C140 C137 1.380 . S
C140 C139 1.384 . S
C140 H149 0.931 . S
C141 C137 1.374 . S
C141 C142 1.390 . S
C141 H150 0.930 1_565 S
C142 C138 1.391 . S
C142 C141 1.390 . S
C142 H151 0.930 1_565 S
C143 Eu113 2.825 . S
C143 O128 1.238 . S
C143 O129 1.247 . S
C143 C137 1.507 . S
H144 C117 0.930 . S
H145 C118 0.931 . S
H146 C119 0.930 1_565 S
H147 C120 0.930 1_565 S
H148 C139 0.930 . S
H149 C140 0.931 . S
H150 C141 0.930 1_545 S
H151 C142 0.930 1_545 S
Tb152 C162 2.825 . S
Tb152 O163 2.347 . S
Tb152 O166 2.366 . S
Tb152 O171 2.418 . S
Tb152 O172 2.384 . S
Tb152 O175 2.479 . S
Tb152 O176 2.471 . S
Eu153 O164 2.418 . S
Eu153 O165 2.384 . S
Eu153 O168 2.479 . S
Eu153 O169 2.471 . S
Eu153 O170 2.347 . S
Eu153 O173 2.366 . S
Eu153 C183 2.825 . S
C154 O170 1.259 . S
C154 O171 1.265 . S
C155 O172 1.255 . S
C155 O173 1.265 . S
C156 C158 1.380 . S
C156 C159 1.374 . S
C156 C162 1.507 . S
C157 C158 1.384 . S
C157 C161 1.387 . S
C157 H184 0.930 . S
C158 C156 1.380 . S
C158 C157 1.384 . S
C158 H185 0.931 . S
C159 C156 1.374 . S
C159 C160 1.390 . S
C159 H186 0.930 . S
C160 C159 1.390 . S
C160 C161 1.391 . S
C160 H187 0.930 . S
C161 C157 1.387 . S
C161 C160 1.391 . S
C162 Tb152 2.825 . S
C162 C156 1.507 . S
C162 O175 1.238 . S
C162 O176 1.247 . S
O163 Tb152 2.347 . S
O163 C167 1.259 . S
O164 Eu153 2.418 . S
O164 C167 1.265 . S
O165 Eu153 2.384 . S
O165 C174 1.255 . S
O166 Tb152 2.366 . S
O166 C174 1.265 . S
C167 O163 1.259 . S
C167 O164 1.265 . S
O168 Eu153 2.479 . S
O168 C183 1.238 . S
O169 Eu153 2.471 . S
O169 C183 1.247 . S
O170 Eu153 2.347 . S
O170 C154 1.259 . S
O171 Tb152 2.418 . S
O171 C154 1.265 . S
O172 Tb152 2.384 . S
O172 C155 1.255 . S
O173 Eu153 2.366 . S
O173 C155 1.265 . S
C174 O165 1.255 . S
C174 O166 1.265 . S
O175 Tb152 2.479 . S
O175 C162 1.238 . S
O176 Tb152 2.471 . S
O176 C162 1.247 . S
C177 C180 1.380 . S
C177 C181 1.374 . S
C177 C183 1.507 . S
C178 C179 1.387 . S
C178 C182 1.391 . S
C179 C178 1.387 . S
C179 C180 1.384 . S
C179 H188 0.930 . S
C180 C177 1.380 . S
C180 C179 1.384 . S
C180 H189 0.931 . S
C181 C177 1.374 . S
C181 C182 1.390 . S
C181 H190 0.930 . S
C182 C178 1.391 . S
C182 C181 1.390 . S
C182 H191 0.930 . S
C183 Eu153 2.825 . S
C183 O168 1.238 . S
C183 O169 1.247 . S
C183 C177 1.507 . S
H184 C157 0.930 . S
H185 C158 0.931 . S
H186 C159 0.930 . S
H187 C160 0.930 . S
H188 C179 0.930 . S
H189 C180 0.931 . S
H190 C181 0.930 . S
H191 C182 0.930 . S
Tb192 C202 2.825 . S
Tb192 O203 2.347 . S
Tb192 O206 2.366 . S
Tb192 O211 2.418 . S
Tb192 O212 2.384 1_655 S
Tb192 O215 2.479 . S
Tb192 O216 2.471 . S
Eu193 O204 2.418 . S
Eu193 O205 2.384 1_455 S
Eu193 O208 2.479 . S
Eu193 O209 2.471 . S
Eu193 O210 2.347 . S
Eu193 O213 2.366 . S
Eu193 C223 2.825 . S
C194 O210 1.259 1_655 S
C194 O211 1.265 . S
C195 O212 1.255 . S
C195 O213 1.265 . S
C196 C198 1.380 . S
C196 C199 1.374 . S
C196 C202 1.507 . S
C197 C198 1.384 . S
C197 C201 1.387 . S
C197 H224 0.930 . S
C198 C196 1.380 . S
C198 C197 1.384 . S
C198 H225 0.931 . S
C199 C196 1.374 . S
C199 C200 1.390 . S
C199 H226 0.930 . S
C200 C199 1.390 . S
C200 C201 1.391 . S
C200 H227 0.930 . S
C201 C197 1.387 . S
C201 C200 1.391 . S
C202 Tb192 2.825 . S
C202 C196 1.507 . S
C202 O215 1.238 . S
C202 O216 1.247 . S
O203 Tb192 2.347 . S
O203 C207 1.259 1_655 S
O204 Eu193 2.418 . S
O204 C207 1.265 . S
O205 Eu193 2.384 1_655 S
O205 C214 1.255 . S
O206 Tb192 2.366 . S
O206 C214 1.265 . S
C207 O203 1.259 1_455 S
C207 O204 1.265 . S
O208 Eu193 2.479 . S
O208 C223 1.238 . S
O209 Eu193 2.471 . S
O209 C223 1.247 . S
O210 Eu193 2.347 . S
O210 C194 1.259 1_455 S
O211 Tb192 2.418 . S
O211 C194 1.265 . S
O212 Tb192 2.384 1_455 S
O212 C195 1.255 . S
O213 Eu193 2.366 . S
O213 C195 1.265 . S
C214 O205 1.255 . S
C214 O206 1.265 . S
O215 Tb192 2.479 . S
O215 C202 1.238 . S
O216 Tb192 2.471 . S
O216 C202 1.247 . S
C217 C220 1.380 . S
C217 C221 1.374 . S
C217 C223 1.507 . S
C218 C219 1.387 . S
C218 C222 1.391 . S
C219 C218 1.387 . S
C219 C220 1.384 . S
C219 H228 0.930 . S
C220 C217 1.380 . S
C220 C219 1.384 . S
C220 H229 0.931 . S
C221 C217 1.374 . S
C221 C222 1.390 . S
C221 H230 0.930 . S
C222 C218 1.391 . S
C222 C221 1.390 . S
C222 H231 0.930 . S
C223 Eu193 2.825 . S
C223 O208 1.238 . S
C223 O209 1.247 . S
C223 C217 1.507 . S
H224 C197 0.930 . S
H225 C198 0.931 . S
H226 C199 0.930 . S
H227 C200 0.930 . S
H228 C219 0.930 . S
H229 C220 0.931 . S
H230 C221 0.930 . S
H231 C222 0.930 . S
H232 C250 0.951 . S
H233 C252 0.951 . S
H234 C254 0.950 . S
H235 C255 0.950 . S
H236 C257 0.950 . S
H237 C260 0.950 . S
H238 C261 0.950 . S
H239 C263 0.950 . S
H240 C264 0.950 . S
H241 C265 0.951 . S
H242 C267 0.951 . S
H243 C269 0.950 . S
H244 C270 0.950 . S
H245 C272 0.950 . S
H246 C275 0.950 . S
H247 C276 0.950 . S
H248 C278 0.950 . S
H249 C279 0.950 . S
C250 H232 0.951 . S
C250 C251 1.366 . S
C250 C252 1.388 . S
C251 C250 1.366 . S
C251 C255 1.385 1_545 S
C252 H233 0.951 . S
C252 C250 1.388 . S
C252 C253 1.366 . S
C253 C252 1.366 . S
C253 C254 1.414 1_545 S
C253 C256 1.499 . S
C254 H234 0.950 . S
C254 C253 1.414 1_565 S
C254 C255 1.374 . S
C255 H235 0.950 . S
C255 C251 1.385 1_565 S
C255 C254 1.374 . S
C256 C253 1.499 . S
C256 C257 1.373 1_545 S
C256 C258 1.389 . S
C257 H236 0.950 . S
C257 C256 1.373 1_565 S
C257 C273 1.377 . S
C258 C256 1.389 . S
C258 C259 1.524 . S
C258 C272 1.377 . S
C259 C258 1.524 . S
C259 C260 1.397 . S
C259 C264 1.363 . S
C260 H237 0.950 . S
C260 C259 1.397 . S
C260 C261 1.334 . S
C261 H238 0.950 . S
C261 C260 1.334 . S
C261 C262 1.287 . S
C262 C261 1.287 . S
C262 C263 1.524 . S
C262 H281 0.913 . S
C263 H239 0.950 . S
C263 C262 1.524 . S
C263 C264 1.415 . S
C264 H240 0.950 . S
C264 C259 1.363 . S
C264 C263 1.415 . S
C265 H241 0.951 . S
C265 C266 1.359 1_565 S
C265 C267 1.388 . S
C266 C265 1.359 1_545 S
C266 C270 1.391 . S
C267 H242 0.951 . S
C267 C265 1.388 . S
C267 C268 1.373 . S
C268 C267 1.373 . S
C268 C269 1.405 1_565 S
C268 C271 1.499 . S
C269 H243 0.950 . S
C269 C268 1.405 1_545 S
C269 C270 1.374 . S
C270 H244 0.950 . S
C270 C266 1.391 . S
C270 C269 1.374 . S
C271 C268 1.499 . S
C271 C272 1.348 1_565 S
C271 C273 1.414 . S
C272 H245 0.950 . S
C272 C258 1.377 . S
C272 C271 1.348 1_545 S
C273 C257 1.377 . S
C273 C271 1.414 . S
C273 C274 1.524 . S
C274 C273 1.524 . S
C274 C275 1.397 . S
C274 C279 1.363 . S
C275 H246 0.950 . S
C275 C274 1.397 . S
C275 C276 1.334 . S
C276 H247 0.950 . S
C276 C275 1.334 . S
C276 C277 1.287 . S
C277 C276 1.287 . S
C277 C278 1.524 . S
C277 H280 0.999 . S
C278 H248 0.950 . S
C278 C277 1.524 . S
C278 C279 1.415 . S
C279 H249 0.950 . S
C279 C274 1.363 . S
C279 C278 1.415 . S
H280 C277 0.999 . S
H281 C262 0.913 . S
H282 C300 0.951 . S
H283 C302 0.951 . S
H284 C304 0.950 . S
H285 C305 0.950 . S
H286 C307 0.950 . S
H287 C310 0.950 . S
H288 C311 0.950 . S
H289 C313 0.950 . S
H290 C314 0.950 . S
H291 C315 0.951 . S
H292 C317 0.951 . S
H293 C319 0.950 . S
H294 C320 0.950 . S
H295 C322 0.950 . S
H296 C325 0.950 . S
H297 C326 0.950 . S
H298 C328 0.950 . S
H299 C329 0.950 . S
C300 H282 0.951 . S
C300 C301 1.366 . S
C300 C302 1.388 . S
C301 C300 1.366 . S
C301 C305 1.385 . S
C302 H283 0.951 . S
C302 C300 1.388 . S
C302 C303 1.366 . S
C303 C302 1.366 . S
C303 C304 1.414 . S
C303 C306 1.499 . S
C304 H284 0.950 . S
C304 C303 1.414 . S
C304 C305 1.374 . S
C305 H285 0.950 . S
C305 C301 1.385 . S
C305 C304 1.374 . S
C306 C303 1.499 . S
C306 C307 1.373 . S
C306 C308 1.389 . S
C307 H286 0.950 . S
C307 C306 1.373 . S
C307 C323 1.377 . S
C308 C306 1.389 . S
C308 C309 1.524 . S
C308 C322 1.377 . S
C309 C308 1.524 . S
C309 C310 1.397 . S
C309 C314 1.363 . S
C310 H287 0.950 . S
C310 C309 1.397 . S
C310 C311 1.334 . S
C311 H288 0.950 . S
C311 C310 1.334 . S
C311 C312 1.287 . S
C312 C311 1.287 . S
C312 C313 1.524 . S
C312 H331 0.913 . S
C313 H289 0.950 . S
C313 C312 1.524 . S
C313 C314 1.415 . S
C314 H290 0.950 . S
C314 C309 1.363 . S
C314 C313 1.415 . S
C315 H291 0.951 . S
C315 C316 1.366 . S
C315 C317 1.388 . S
C316 C315 1.366 . S
C316 C320 1.385 . S
C317 H292 0.951 . S
C317 C315 1.388 . S
C317 C318 1.366 . S
C318 C317 1.366 . S
C318 C319 1.414 . S
C318 C321 1.499 . S
C319 H293 0.950 . S
C319 C318 1.414 . S
C319 C320 1.374 . S
C320 H294 0.950 . S
C320 C316 1.385 . S
C320 C319 1.374 . S
C321 C318 1.499 . S
C321 C322 1.373 . S
C321 C323 1.389 . S
C322 H295 0.950 . S
C322 C308 1.377 . S
C322 C321 1.373 . S
C323 C307 1.377 . S
C323 C321 1.389 . S
C323 C324 1.524 . S
C324 C323 1.524 . S
C324 C325 1.397 . S
C324 C329 1.363 . S
C325 H296 0.950 . S
C325 C324 1.397 . S
C325 C326 1.334 . S
C326 H297 0.950 . S
C326 C325 1.334 . S
C326 C327 1.287 . S
C327 C326 1.287 . S
C327 C328 1.524 . S
C327 H330 0.999 . S
C328 H298 0.950 . S
C328 C327 1.524 . S
C328 C329 1.415 . S
C329 H299 0.950 . S
C329 C324 1.363 . S
C329 C328 1.415 . S
H330 C327 0.999 . S
H331 C312 0.913 . S
H332 C350 0.951 . S
H333 C352 0.951 . S
H334 C354 0.950 . S
H335 C355 0.950 . S
H336 C357 0.950 . S
H337 C360 0.950 . S
H338 C361 0.950 . S
H339 C363 0.950 . S
H340 C364 0.950 . S
H341 C365 0.951 . S
H342 C367 0.951 . S
H343 C369 0.950 . S
H344 C370 0.950 . S
H345 C372 0.950 . S
H346 C375 0.950 . S
H347 C376 0.950 . S
H348 C378 0.950 . S
H349 C379 0.950 . S
C350 H332 0.951 . S
C350 C351 1.366 . S
C350 C352 1.388 . S
C351 C350 1.366 . S
C351 C355 1.385 . S
C352 H333 0.951 . S
C352 C350 1.388 . S
C352 C353 1.366 . S
C353 C352 1.366 . S
C353 C354 1.414 . S
C353 C356 1.499 . S
C354 H334 0.950 . S
C354 C353 1.414 . S
C354 C355 1.374 . S
C355 H335 0.950 . S
C355 C351 1.385 . S
C355 C354 1.374 . S
C356 C353 1.499 . S
C356 C357 1.373 . S
C356 C358 1.389 . S
C357 H336 0.950 . S
C357 C356 1.373 . S
C357 C373 1.377 . S
C358 C356 1.389 . S
C358 C359 1.524 . S
C358 C372 1.377 . S
C359 C358 1.524 . S
C359 C360 1.397 . S
C359 C364 1.363 . S
C360 H337 0.950 . S
C360 C359 1.397 . S
C360 C361 1.334 . S
C361 H338 0.950 . S
C361 C360 1.334 . S
C361 C362 1.287 . S
C362 C361 1.287 . S
C362 C363 1.524 . S
C362 H381 0.913 . S
C363 H339 0.950 . S
C363 C362 1.524 . S
C363 C364 1.415 . S
C364 H340 0.950 . S
C364 C359 1.363 . S
C364 C363 1.415 . S
C365 H341 0.951 . S
C365 C366 1.366 . S
C365 C367 1.388 . S
C366 C365 1.366 . S
C366 C370 1.385 . S
C367 H342 0.951 . S
C367 C365 1.388 . S
C367 C368 1.366 . S
C368 C367 1.366 . S
C368 C369 1.414 . S
C368 C371 1.499 . S
C369 H343 0.950 . S
C369 C368 1.414 . S
C369 C370 1.374 . S
C370 H344 0.950 . S
C370 C366 1.385 . S
C370 C369 1.374 . S
C371 C368 1.499 . S
C371 C372 1.373 . S
C371 C373 1.389 . S
C372 H345 0.950 . S
C372 C358 1.377 . S
C372 C371 1.373 . S
C373 C357 1.377 . S
C373 C371 1.389 . S
C373 C374 1.524 . S
C374 C373 1.524 . S
C374 C375 1.397 . S
C374 C379 1.363 . S
C375 H346 0.950 . S
C375 C374 1.397 . S
C375 C376 1.334 . S
C376 H347 0.950 . S
C376 C375 1.334 . S
C376 C377 1.287 . S
C377 C376 1.287 . S
C377 C378 1.524 . S
C377 H380 0.999 . S
C378 H348 0.950 . S
C378 C377 1.524 . S
C378 C379 1.415 . S
C379 H349 0.950 . S
C379 C374 1.363 . S
C379 C378 1.415 . S
H380 C377 0.999 . S
H381 C362 0.913 . S
H382 C400 0.951 . S
H383 C402 0.951 . S
H384 C404 0.950 . S
H385 C405 0.950 . S
H386 C407 0.950 . S
H387 C410 0.950 . S
H388 C411 0.950 . S
H389 C413 0.950 . S
H390 C414 0.950 . S
H391 C415 0.951 . S
H392 C417 0.951 . S
H393 C419 0.950 . S
H394 C420 0.950 . S
H395 C422 0.950 . S
H396 C425 0.950 . S
H397 C426 0.950 . S
H398 C428 0.950 . S
H399 C429 0.950 . S
C400 H382 0.951 . S
C400 C401 1.367 . S
C400 C402 1.388 . S
C401 C400 1.367 . S
C401 C405 1.383 1_455 S
C402 H383 0.951 . S
C402 C400 1.388 . S
C402 C403 1.358 1_455 S
C403 C402 1.358 1_655 S
C403 C404 1.421 . S
C403 C406 1.499 . S
C404 H384 0.950 . S
C404 C403 1.421 . S
C404 C405 1.374 . S
C405 H385 0.950 . S
C405 C401 1.383 1_655 S
C405 C404 1.374 . S
C406 C403 1.499 . S
C406 C407 1.348 1_655 S
C406 C408 1.413 . S
C407 H386 0.950 . S
C407 C406 1.348 1_455 S
C407 C423 1.377 . S
C408 C406 1.413 . S
C408 C409 1.524 . S
C408 C422 1.377 . S
C409 C408 1.524 . S
C409 C410 1.397 . S
C409 C414 1.363 . S
C410 H387 0.950 . S
C410 C409 1.397 . S
C410 C411 1.334 . S
C411 H388 0.950 . S
C411 C410 1.334 . S
C411 C412 1.287 . S
C412 C411 1.287 . S
C412 C413 1.524 . S
C412 H431 0.913 . S
C413 H389 0.950 . S
C413 C412 1.524 . S
C413 C414 1.415 . S
C414 H390 0.950 . S
C414 C409 1.363 . S
C414 C413 1.415 . S
C415 H391 0.951 . S
C415 C416 1.366 1_655 S
C415 C417 1.388 . S
C416 C415 1.366 1_455 S
C416 C420 1.385 . S
C417 H392 0.951 . S
C417 C415 1.388 . S
C417 C418 1.366 1_655 S
C418 C417 1.366 1_455 S
C418 C419 1.414 . S
C418 C421 1.499 . S
C419 H393 0.950 . S
C419 C418 1.414 . S
C419 C420 1.374 . S
C420 H394 0.950 . S
C420 C416 1.385 . S
C420 C419 1.374 . S
C421 C418 1.499 . S
C421 C422 1.373 1_455 S
C421 C423 1.389 . S
C422 H395 0.950 . S
C422 C408 1.377 . S
C422 C421 1.373 1_655 S
C423 C407 1.377 . S
C423 C421 1.389 . S
C423 C424 1.524 . S
C424 C423 1.524 . S
C424 C425 1.397 . S
C424 C429 1.363 . S
C425 H396 0.950 . S
C425 C424 1.397 . S
C425 C426 1.334 . S
C426 H397 0.950 . S
C426 C425 1.334 . S
C426 C427 1.287 . S
C427 C426 1.287 . S
C427 C428 1.524 . S
C427 H430 0.999 . S
C428 H398 0.950 . S
C428 C427 1.524 . S
C428 C429 1.415 . S
C429 H399 0.950 . S
C429 C424 1.363 . S
C429 C428 1.415 . S
H430 C427 0.999 . S
H431 C412 0.913 . S
H432 C450 0.951 . S
H433 C452 0.951 . S
H434 C454 0.950 . S
H435 C455 0.950 . S
H436 C457 0.950 . S
H437 C460 0.950 . S
H438 C461 0.950 . S
H439 C463 0.950 . S
H440 C464 0.950 . S
H441 C465 0.951 . S
H442 C467 0.951 . S
H443 C469 0.950 . S
H444 C470 0.950 . S
H445 C472 0.950 1_556 S
H446 C475 0.950 . S
H447 C476 0.950 . S
H448 C478 0.950 . S
H449 C479 0.950 . S
C450 H432 0.951 . S
C450 C451 1.363 . S
C450 C452 1.388 . S
C451 C450 1.363 . S
C451 C455 1.387 1_545 S
C452 H433 0.951 . S
C452 C450 1.388 . S
C452 C453 1.365 . S
C453 C452 1.365 . S
C453 C454 1.415 1_545 S
C453 C456 1.498 1_545 S
C454 H434 0.950 . S
C454 C453 1.415 1_565 S
C454 C455 1.374 . S
C455 H435 0.950 . S
C455 C451 1.387 1_565 S
C455 C454 1.374 . S
C456 C453 1.498 1_565 S
C456 C457 1.394 . S
C456 C458 1.369 1_565 S
C457 H436 0.950 . S
C457 C456 1.394 . S
C457 C473 1.377 . S
C458 C456 1.369 1_545 S
C458 C459 1.524 . S
C458 C472 1.377 . S
C459 C458 1.524 . S
C459 C460 1.397 . S
C459 C464 1.363 . S
C460 H437 0.950 . S
C460 C459 1.397 . S
C460 C461 1.334 . S
C461 H438 0.950 . S
C461 C460 1.334 . S
C461 C462 1.287 . S
C462 C461 1.287 . S
C462 C463 1.524 . S
C462 H481 0.913 . S
C463 H439 0.950 . S
C463 C462 1.524 . S
C463 C464 1.415 . S
C464 H440 0.950 . S
C464 C459 1.363 . S
C464 C463 1.415 . S
C465 H441 0.951 . S
C465 C466 1.378 . S
C465 C467 1.388 . S
C466 C465 1.378 . S
C466 C470 1.372 1_565 S
C467 H442 0.951 . S
C467 C465 1.388 . S
C467 C468 1.380 . S
C468 C467 1.380 . S
C468 C469 1.400 1_565 S
C468 C471 1.498 1_566 S
C469 H443 0.950 . S
C469 C468 1.400 1_545 S
C469 C470 1.374 . S
C470 H444 0.950 . S
C470 C466 1.372 1_545 S
C470 C469 1.374 . S
C471 C468 1.498 1_544 S
C471 C472 1.382 . S
C471 C473 1.380 1_545 S
C472 H445 0.950 1_554 S
C472 C458 1.377 . S
C472 C471 1.382 . S
C473 C457 1.377 . S
C473 C471 1.380 1_565 S
C473 C474 1.524 . S
C474 C473 1.524 . S
C474 C475 1.397 . S
C474 C479 1.363 . S
C475 H446 0.950 . S
C475 C474 1.397 . S
C475 C476 1.334 . S
C476 H447 0.950 . S
C476 C475 1.334 . S
C476 C477 1.287 . S
C477 C476 1.287 . S
C477 C478 1.524 . S
C477 H480 0.999 . S
C478 H448 0.950 . S
C478 C477 1.524 . S
C478 C479 1.415 . S
C479 H449 0.950 . S
C479 C474 1.363 . S
C479 C478 1.415 . S
H480 C477 0.999 . S
H481 C462 0.913 . S
H482 C500 0.951 . S
H483 C502 0.951 . S
H484 C504 0.950 . S
H485 C505 0.950 . S
H486 C507 0.950 . S
H487 C510 0.950 . S
H488 C511 0.950 . S
H489 C513 0.950 . S
H490 C514 0.950 . S
H491 C515 0.951 . S
H492 C517 0.951 . S
H493 C519 0.950 . S
H494 C520 0.950 . S
H495 C522 0.950 1_556 S
H496 C525 0.950 . S
H497 C526 0.950 . S
H498 C528 0.950 . S
H499 C529 0.950 . S
C500 H482 0.951 . S
C500 C501 1.366 . S
C500 C502 1.388 . S
C501 C500 1.366 . S
C501 C505 1.385 . S
C502 H483 0.951 . S
C502 C500 1.388 . S
C502 C503 1.366 . S
C503 C502 1.366 . S
C503 C504 1.414 . S
C503 C506 1.499 . S
C504 H484 0.950 . S
C504 C503 1.414 . S
C504 C505 1.374 . S
C505 H485 0.950 . S
C505 C501 1.385 . S
C505 C504 1.374 . S
C506 C503 1.499 . S
C506 C507 1.373 . S
C506 C508 1.389 . S
C507 H486 0.950 . S
C507 C506 1.373 . S
C507 C523 1.377 . S
C508 C506 1.389 . S
C508 C509 1.524 . S
C508 C522 1.377 . S
C509 C508 1.524 . S
C509 C510 1.397 . S
C509 C514 1.363 . S
C510 H487 0.950 . S
C510 C509 1.397 . S
C510 C511 1.334 . S
C511 H488 0.950 . S
C511 C510 1.334 . S
C511 C512 1.287 . S
C512 C511 1.287 . S
C512 C513 1.524 . S
C512 H531 0.913 . S
C513 H489 0.950 . S
C513 C512 1.524 . S
C513 C514 1.415 . S
C514 H490 0.950 . S
C514 C509 1.363 . S
C514 C513 1.415 . S
C515 H491 0.951 . S
C515 C516 1.366 . S
C515 C517 1.388 . S
C516 C515 1.366 . S
C516 C520 1.385 . S
C517 H492 0.951 . S
C517 C515 1.388 . S
C517 C518 1.366 . S
C518 C517 1.366 . S
C518 C519 1.414 . S
C518 C521 1.499 1_556 S
C519 H493 0.950 . S
C519 C518 1.414 . S
C519 C520 1.374 . S
C520 H494 0.950 . S
C520 C516 1.385 . S
C520 C519 1.374 . S
C521 C518 1.499 1_554 S
C521 C522 1.373 . S
C521 C523 1.389 . S
C522 H495 0.950 1_554 S
C522 C508 1.377 . S
C522 C521 1.373 . S
C523 C507 1.377 . S
C523 C521 1.389 . S
C523 C524 1.524 . S
C524 C523 1.524 . S
C524 C525 1.397 . S
C524 C529 1.363 . S
C525 H496 0.950 . S
C525 C524 1.397 . S
C525 C526 1.334 . S
C526 H497 0.950 . S
C526 C525 1.334 . S
C526 C527 1.287 . S
C527 C526 1.287 . S
C527 C528 1.524 . S
C527 H530 0.999 . S
C528 H498 0.950 . S
C528 C527 1.524 . S
C528 C529 1.415 . S
C529 H499 0.950 . S
C529 C524 1.363 . S
C529 C528 1.415 . S
H530 C527 0.999 . S
H531 C512 0.913 . S
H532 C550 0.951 . S
H533 C552 0.951 . S
H534 C554 0.950 . S
H535 C555 0.950 . S
H536 C557 0.950 . S
H537 C560 0.950 . S
H538 C561 0.950 . S
H539 C563 0.950 . S
H540 C564 0.950 . S
H541 C565 0.951 . S
H542 C567 0.951 . S
H543 C569 0.950 . S
H544 C570 0.950 . S
H545 C572 0.950 . S
H546 C575 0.950 . S
H547 C576 0.950 . S
H548 C578 0.950 . S
H549 C579 0.950 . S
C550 H532 0.951 . S
C550 C551 1.366 . S
C550 C552 1.388 . S
C551 C550 1.366 . S
C551 C555 1.385 . S
C552 H533 0.951 . S
C552 C550 1.388 . S
C552 C553 1.366 . S
C553 C552 1.366 . S
C553 C554 1.414 . S
C553 C556 1.499 . S
C554 H534 0.950 . S
C554 C553 1.414 . S
C554 C555 1.374 . S
C555 H535 0.950 . S
C555 C551 1.385 . S
C555 C554 1.374 . S
C556 C553 1.499 . S
C556 C557 1.373 . S
C556 C558 1.389 . S
C557 H536 0.950 . S
C557 C556 1.373 . S
C557 C573 1.377 . S
C558 C556 1.389 . S
C558 C559 1.524 . S
C558 C572 1.377 . S
C559 C558 1.524 . S
C559 C560 1.397 . S
C559 C564 1.363 . S
C560 H537 0.950 . S
C560 C559 1.397 . S
C560 C561 1.334 . S
C561 H538 0.950 . S
C561 C560 1.334 . S
C561 C562 1.287 . S
C562 C561 1.287 . S
C562 C563 1.524 . S
C562 H581 0.913 . S
C563 H539 0.950 . S
C563 C562 1.524 . S
C563 C564 1.415 . S
C564 H540 0.950 . S
C564 C559 1.363 . S
C564 C563 1.415 . S
C565 H541 0.951 . S
C565 C566 1.366 . S
C565 C567 1.388 . S
C566 C565 1.366 . S
C566 C570 1.385 . S
C567 H542 0.951 . S
C567 C565 1.388 . S
C567 C568 1.366 . S
C568 C567 1.366 . S
C568 C569 1.414 . S
C568 C571 1.499 1_556 S
C569 H543 0.950 . S
C569 C568 1.414 . S
C569 C570 1.374 . S
C570 H544 0.950 . S
C570 C566 1.385 . S
C570 C569 1.374 . S
C571 C568 1.499 1_554 S
C571 C572 1.373 . S
C571 C573 1.389 . S
C572 H545 0.950 . S
C572 C558 1.377 . S
C572 C571 1.373 . S
C573 C557 1.377 . S
C573 C571 1.389 . S
C573 C574 1.524 1_554 S
C574 C573 1.524 1_556 S
C574 C575 1.397 . S
C574 C579 1.363 . S
C575 H546 0.950 . S
C575 C574 1.397 . S
C575 C576 1.334 . S
C576 H547 0.950 . S
C576 C575 1.334 . S
C576 C577 1.287 . S
C577 C576 1.287 . S
C577 C578 1.524 . S
C577 H580 0.999 . S
C578 H548 0.950 . S
C578 C577 1.524 . S
C578 C579 1.415 . S
C579 H549 0.950 . S
C579 C574 1.363 . S
C579 C578 1.415 . S
H580 C577 0.999 . S
H581 C562 0.913 . S
H582 C600 0.951 . S
H583 C602 0.951 . S
H584 C604 0.950 . S
H585 C605 0.950 . S
H586 C607 0.950 . S
H587 C610 0.950 . S
H588 C611 0.950 . S
H589 C613 0.950 . S
H590 C614 0.950 . S
H591 C615 0.951 . S
H592 C617 0.951 . S
H593 C619 0.950 . S
H594 C620 0.950 . S
H595 C622 0.950 . S
H596 C625 0.950 . S
H597 C626 0.950 . S
H598 C628 0.950 . S
H599 C629 0.950 . S
C600 H582 0.951 . S
C600 C601 1.364 1_455 S
C600 C602 1.388 . S
C601 C600 1.364 1_655 S
C601 C605 1.386 . S
C602 H583 0.951 . S
C602 C600 1.388 . S
C602 C603 1.373 . S
C603 C602 1.373 . S
C603 C604 1.406 1_455 S
C603 C606 1.499 . S
C604 H584 0.950 . S
C604 C603 1.406 1_655 S
C604 C605 1.374 . S
C605 H585 0.950 . S
C605 C601 1.386 . S
C605 C604 1.374 . S
C606 C603 1.499 . S
C606 C607 1.351 1_455 S
C606 C608 1.410 . S
C607 H586 0.950 . S
C607 C606 1.351 1_655 S
C607 C623 1.377 . S
C608 C606 1.410 . S
C608 C609 1.524 . S
C608 C622 1.377 . S
C609 C608 1.524 . S
C609 C610 1.397 . S
C609 C614 1.363 . S
C610 H587 0.950 . S
C610 C609 1.397 . S
C610 C611 1.334 . S
C611 H588 0.950 . S
C611 C610 1.334 . S
C611 C612 1.287 . S
C612 C611 1.287 . S
C612 C613 1.524 . S
C612 H631 0.913 . S
C613 H589 0.950 . S
C613 C612 1.524 . S
C613 C614 1.415 . S
C614 H590 0.950 . S
C614 C609 1.363 . S
C614 C613 1.415 . S
C615 H591 0.951 . S
C615 C616 1.366 . S
C615 C617 1.388 . S
C616 C615 1.366 . S
C616 C620 1.385 1_655 S
C617 H592 0.951 . S
C617 C615 1.388 . S
C617 C618 1.366 . S
C618 C617 1.366 . S
C618 C619 1.414 1_655 S
C618 C621 1.499 1_556 S
C619 H593 0.950 . S
C619 C618 1.414 1_455 S
C619 C620 1.374 . S
C620 H594 0.950 . S
C620 C616 1.385 1_455 S
C620 C619 1.374 . S
C621 C618 1.499 1_554 S
C621 C622 1.373 1_655 S
C621 C623 1.389 . S
C622 H595 0.950 . S
C622 C608 1.377 . S
C622 C621 1.373 1_455 S
C623 C607 1.377 . S
C623 C621 1.389 . S
C623 C624 1.524 1_554 S
C624 C623 1.524 1_556 S
C624 C625 1.397 . S
C624 C629 1.363 . S
C625 H596 0.950 . S
C625 C624 1.397 . S
C625 C626 1.334 . S
C626 H597 0.950 . S
C626 C625 1.334 . S
C626 C627 1.287 . S
C627 C626 1.287 . S
C627 C628 1.524 . S
C627 H630 0.999 . S
C628 H598 0.950 . S
C628 C627 1.524 . S
C628 C629 1.415 . S
C629 H599 0.950 . S
C629 C624 1.363 . S
C629 C628 1.415 . S
H630 C627 0.999 . S
H631 C612 0.913 . S
H632 C650 0.951 . S
H633 C652 0.951 . S
H634 C654 0.950 . S
H635 C655 0.950 . S
H636 C657 0.950 . S
H637 C660 0.950 . S
H638 C661 0.950 . S
H639 C663 0.950 . S
H640 C664 0.950 . S
H641 C665 0.951 . S
H642 C667 0.951 . S
H643 C669 0.950 1_455 S
H644 C670 0.950 . S
H645 C672 0.950 . S
H646 C675 0.950 1_455 S
H647 C676 0.950 1_455 S
H648 C678 0.950 . S
H649 C679 0.950 . S
C650 H632 0.951 . S
C650 C651 1.366 . S
C650 C652 1.388 . S
C651 C650 1.366 . S
C651 C655 1.385 1_455 S
C652 H633 0.951 . S
C652 C650 1.388 . S
C652 C653 1.366 1_455 S
C653 C652 1.366 1_655 S
C653 C654 1.414 . S
C653 C656 1.499 . S
C654 H634 0.950 . S
C654 C653 1.414 . S
C654 C655 1.374 . S
C655 H635 0.950 . S
C655 C651 1.385 1_655 S
C655 C654 1.374 . S
C656 C653 1.499 . S
C656 C657 1.373 . S
C656 C658 1.389 . S
C657 H636 0.950 . S
C657 C656 1.373 . S
C657 C673 1.377 . S
C658 C656 1.389 . S
C658 C659 1.524 . S
C658 C672 1.377 . S
C659 C658 1.524 . S
C659 C660 1.397 . S
C659 C664 1.363 1_655 S
C660 H637 0.950 . S
C660 C659 1.397 . S
C660 C661 1.334 . S
C661 H638 0.950 . S
C661 C660 1.334 . S
C661 C662 1.287 . S
C662 C661 1.287 . S
C662 C663 1.524 1_655 S
C662 H681 0.913 1_554 S
C663 H639 0.950 . S
C663 C662 1.524 1_455 S
C663 C664 1.415 . S
C664 H640 0.950 . S
C664 C659 1.363 1_455 S
C664 C663 1.415 . S
C665 H641 0.951 . S
C665 C666 1.366 . S
C665 C667 1.388 . S
C666 C665 1.366 . S
C666 C670 1.385 . S
C667 H642 0.951 . S
C667 C665 1.388 . S
C667 C668 1.366 . S
C668 C667 1.366 . S
C668 C669 1.414 . S
C668 C671 1.499 . S
C669 H643 0.950 1_655 S
C669 C668 1.414 . S
C669 C670 1.374 . S
C670 H644 0.950 . S
C670 C666 1.385 . S
C670 C669 1.374 . S
C671 C668 1.499 . S
C671 C672 1.373 . S
C671 C673 1.389 . S
C672 H645 0.950 . S
C672 C658 1.377 . S
C672 C671 1.373 . S
C673 C657 1.377 . S
C673 C671 1.389 . S
C673 C674 1.524 . S
C674 C673 1.524 . S
C674 C675 1.397 . S
C674 C679 1.363 . S
C675 H646 0.950 1_655 S
C675 C674 1.397 . S
C675 C676 1.334 . S
C676 H647 0.950 1_655 S
C676 C675 1.334 . S
C676 C677 1.287 . S
C677 C676 1.287 . S
C677 C678 1.524 . S
C677 H680 0.999 . S
C678 H648 0.950 . S
C678 C677 1.524 . S
C678 C679 1.415 . S
C679 H649 0.950 . S
C679 C674 1.363 . S
C679 C678 1.415 . S
H680 C677 0.999 . S
H681 C662 0.913 1_556 S
H682 C700 0.951 . S
H683 C702 0.951 . S
H684 C704 0.950 . S
H685 C705 0.950 . S
H686 C707 0.968 . S
H687 C710 0.950 . S
H688 C711 0.950 . S
H689 C713 0.950 . S
H690 C714 0.950 . S
H691 C715 0.951 . S
H692 C717 0.951 . S
H693 C719 0.950 . S
H694 C720 0.950 . S
H695 C722 0.950 . S
H696 C725 0.950 . S
H697 C726 0.950 . S
H698 C728 0.950 1_565 S
H699 C729 0.950 . S
C700 H682 0.951 . S
C700 C701 1.366 . S
C700 C702 1.388 . S
C701 C700 1.366 . S
C701 C705 1.385 1_545 S
C702 H683 0.951 . S
C702 C700 1.388 . S
C702 C703 1.366 1_545 S
C703 C702 1.366 1_565 S
C703 C704 1.414 . S
C703 C706 1.499 . S
C704 H684 0.950 . S
C704 C703 1.414 . S
C704 C705 1.374 . S
C705 H685 0.950 . S
C705 C701 1.385 1_565 S
C705 C704 1.374 . S
C706 C703 1.499 . S
C706 C707 1.373 . S
C706 C708 1.389 . S
C707 H686 0.968 . S
C707 C706 1.373 . S
C707 C723 1.377 . S
C708 C706 1.389 . S
C708 C709 1.524 . S
C708 C722 1.377 . S
C709 C708 1.524 . S
C709 C710 1.397 . S
C709 C714 1.363 . S
C710 H687 0.950 . S
C710 C709 1.397 . S
C710 C711 1.334 . S
C711 H688 0.950 . S
C711 C710 1.334 . S
C711 C712 1.287 . S
C712 C711 1.287 . S
C712 C713 1.524 . S
C712 H731 0.913 1_554 S
C713 H689 0.950 . S
C713 C712 1.524 . S
C713 C714 1.415 . S
C714 H690 0.950 . S
C714 C709 1.363 . S
C714 C713 1.415 . S
C715 H691 0.951 . S
C715 C716 1.366 . S
C715 C717 1.388 . S
C716 C715 1.366 . S
C716 C720 1.385 . S
C717 H692 0.951 . S
C717 C715 1.388 . S
C717 C718 1.366 . S
C718 C717 1.366 . S
C718 C719 1.414 . S
C718 C721 1.499 . S
C719 H693 0.950 . S
C719 C718 1.414 . S
C719 C720 1.374 . S
C720 H694 0.950 . S
C720 C716 1.385 . S
C720 C719 1.374 . S
C721 C718 1.499 . S
C721 C722 1.373 . S
C721 C723 1.389 . S
C722 H695 0.950 . S
C722 C708 1.377 . S
C722 C721 1.373 . S
C723 C707 1.377 . S
C723 C721 1.389 . S
C723 C724 1.527 . S
C724 C723 1.527 . S
C724 C725 1.392 1_565 S
C724 C729 1.365 . S
C725 H696 0.950 . S
C725 C724 1.392 1_545 S
C725 C726 1.334 . S
C726 H697 0.950 . S
C726 C725 1.334 . S
C726 C727 1.287 . S
C727 C726 1.287 . S
C727 C728 1.524 . S
C727 H730 0.999 . S
C728 H698 0.950 1_545 S
C728 C727 1.524 . S
C728 C729 1.415 1_545 S
C729 H699 0.950 . S
C729 C724 1.365 . S
C729 C728 1.415 1_565 S
H730 C727 0.999 . S
H731 C712 0.913 1_556 S
H732 C750 0.951 . S
H733 C752 0.951 . S
H734 C754 0.950 . S
H735 C755 0.950 . S
H736 C757 0.950 . S
H737 C760 0.950 . S
H738 C761 0.950 . S
H739 C763 0.950 . S
H740 C764 0.950 . S
H741 C765 0.951 . S
H742 C767 0.951 . S
H743 C769 0.950 . S
H744 C770 0.950 . S
H745 C772 0.950 . S
H746 C775 0.950 . S
H747 C776 0.950 . S
H748 C778 0.950 . S
H749 C779 0.950 . S
C750 H732 0.951 . S
C750 C751 1.366 . S
C750 C752 1.388 . S
C751 C750 1.366 . S
C751 C755 1.385 . S
C752 H733 0.951 . S
C752 C750 1.388 . S
C752 C753 1.366 . S
C753 C752 1.366 . S
C753 C754 1.414 . S
C753 C756 1.499 . S
C754 H734 0.950 . S
C754 C753 1.414 . S
C754 C755 1.374 . S
C755 H735 0.950 . S
C755 C751 1.385 . S
C755 C754 1.374 . S
C756 C753 1.499 . S
C756 C757 1.373 . S
C756 C758 1.389 . S
C757 H736 0.950 . S
C757 C756 1.373 . S
C757 C773 1.377 . S
C758 C756 1.389 . S
C758 C759 1.524 . S
C758 C772 1.377 . S
C759 C758 1.524 . S
C759 C760 1.397 . S
C759 C764 1.363 . S
C760 H737 0.950 . S
C760 C759 1.397 . S
C760 C761 1.334 . S
C761 H738 0.950 . S
C761 C760 1.334 . S
C761 C762 1.287 . S
C762 C761 1.287 . S
C762 C763 1.524 . S
C762 H781 0.913 . S
C763 H739 0.950 . S
C763 C762 1.524 . S
C763 C764 1.415 . S
C764 H740 0.950 . S
C764 C759 1.363 . S
C764 C763 1.415 . S
C765 H741 0.951 . S
C765 C766 1.366 . S
C765 C767 1.388 . S
C766 C765 1.366 . S
C766 C770 1.385 . S
C767 H742 0.951 . S
C767 C765 1.388 . S
C767 C768 1.366 . S
C768 C767 1.366 . S
C768 C769 1.414 . S
C768 C771 1.499 . S
C769 H743 0.950 . S
C769 C768 1.414 . S
C769 C770 1.374 . S
C770 H744 0.950 . S
C770 C766 1.385 . S
C770 C769 1.374 . S
C771 C768 1.499 . S
C771 C772 1.373 . S
C771 C773 1.389 . S
C772 H745 0.950 . S
C772 C758 1.377 . S
C772 C771 1.373 . S
C773 C757 1.377 . S
C773 C771 1.389 . S
C773 C774 1.524 . S
C774 C773 1.524 . S
C774 C775 1.397 . S
C774 C779 1.363 . S
C775 H746 0.950 . S
C775 C774 1.397 . S
C775 C776 1.334 . S
C776 H747 0.950 . S
C776 C775 1.334 . S
C776 C777 1.287 . S
C777 C776 1.287 . S
C777 C778 1.524 . S
C777 H780 0.999 . S
C778 H748 0.950 . S
C778 C777 1.524 . S
C778 C779 1.415 . S
C779 H749 0.950 . S
C779 C774 1.363 . S
C779 C778 1.415 . S
H780 C777 0.999 . S
H781 C762 0.913 . S
H782 C800 0.951 . S
H783 C802 0.951 . S
H784 C804 0.950 . S
H785 C805 0.950 . S
H786 C807 0.950 . S
H787 C810 0.950 . S
H788 C811 0.950 . S
H789 C813 0.950 . S
H790 C814 0.950 . S
H791 C815 0.951 . S
H792 C817 0.951 . S
H793 C819 0.950 . S
H794 C820 0.950 . S
H795 C822 0.950 . S
H796 C825 0.950 . S
H797 C826 0.950 . S
H798 C828 0.950 . S
H799 C829 0.950 . S
C800 H782 0.951 . S
C800 C801 1.366 . S
C800 C802 1.388 . S
C801 C800 1.366 . S
C801 C805 1.385 . S
C802 H783 0.951 . S
C802 C800 1.388 . S
C802 C803 1.366 . S
C803 C802 1.366 . S
C803 C804 1.414 . S
C803 C806 1.499 . S
C804 H784 0.950 . S
C804 C803 1.414 . S
C804 C805 1.374 . S
C805 H785 0.950 . S
C805 C801 1.385 . S
C805 C804 1.374 . S
C806 C803 1.499 . S
C806 C807 1.373 . S
C806 C808 1.389 . S
C807 H786 0.950 . S
C807 C806 1.373 . S
C807 C823 1.377 . S
C808 C806 1.389 . S
C808 C809 1.524 . S
C808 C822 1.377 . S
C809 C808 1.524 . S
C809 C810 1.397 . S
C809 C814 1.363 . S
C810 H787 0.950 . S
C810 C809 1.397 . S
C810 C811 1.334 . S
C811 H788 0.950 . S
C811 C810 1.334 . S
C811 C812 1.287 . S
C812 C811 1.287 . S
C812 C813 1.524 . S
C812 H831 0.913 . S
C813 H789 0.950 . S
C813 C812 1.524 . S
C813 C814 1.415 . S
C814 H790 0.950 . S
C814 C809 1.363 . S
C814 C813 1.415 . S
C815 H791 0.951 . S
C815 C816 1.366 . S
C815 C817 1.388 . S
C816 C815 1.366 . S
C816 C820 1.385 . S
C817 H792 0.951 . S
C817 C815 1.388 . S
C817 C818 1.366 . S
C818 C817 1.366 . S
C818 C819 1.414 . S
C818 C821 1.499 . S
C819 H793 0.950 . S
C819 C818 1.414 . S
C819 C820 1.374 . S
C820 H794 0.950 . S
C820 C816 1.385 . S
C820 C819 1.374 . S
C821 C818 1.499 . S
C821 C822 1.373 . S
C821 C823 1.389 . S
C822 H795 0.950 . S
C822 C808 1.377 . S
C822 C821 1.373 . S
C823 C807 1.377 . S
C823 C821 1.389 . S
C823 C824 1.524 . S
C824 C823 1.524 . S
C824 C825 1.397 . S
C824 C829 1.363 . S
C825 H796 0.950 . S
C825 C824 1.397 . S
C825 C826 1.334 . S
C826 H797 0.950 . S
C826 C825 1.334 . S
C826 C827 1.287 . S
C827 C826 1.287 . S
C827 C828 1.524 . S
C827 H830 0.999 . S
C828 H798 0.950 . S
C828 C827 1.524 . S
C828 C829 1.415 . S
C829 H799 0.950 . S
C829 C824 1.363 . S
C829 C828 1.415 . S
H830 C827 0.999 . S
H831 C812 0.913 . S
H832 C850 0.951 . S
H833 C852 0.951 . S
H834 C854 0.950 . S
H835 C855 0.950 . S
H836 C857 0.950 . S
H837 C860 0.950 . S
H838 C861 0.950 . S
H839 C863 0.950 . S
H840 C864 0.950 . S
H841 C865 0.951 . S
H842 C867 0.951 1_554 S
H843 C869 0.950 1_655 S
H844 C870 0.950 1_655 S
H845 C872 0.937 1_655 S
H846 C875 0.950 . S
H847 C876 0.950 . S
H848 C878 0.950 . S
H849 C879 0.950 . S
C850 H832 0.951 . S
C850 C851 1.366 . S
C850 C852 1.388 . S
C851 C850 1.366 . S
C851 C855 1.385 1_655 S
C852 H833 0.951 . S
C852 C850 1.388 . S
C852 C853 1.366 1_655 S
C853 C852 1.366 1_455 S
C853 C854 1.414 . S
C853 C856 1.499 . S
C854 H834 0.950 . S
C854 C853 1.414 . S
C854 C855 1.374 . S
C855 H835 0.950 . S
C855 C851 1.385 1_455 S
C855 C854 1.374 . S
C856 C853 1.499 . S
C856 C857 1.373 . S
C856 C858 1.389 1_455 S
C857 H836 0.950 . S
C857 C856 1.373 . S
C857 C873 1.377 . S
C858 C856 1.389 1_655 S
C858 C859 1.524 . S
C858 C872 1.373 1_655 S
C859 C858 1.524 . S
C859 C860 1.397 . S
C859 C864 1.363 . S
C860 H837 0.950 . S
C860 C859 1.397 . S
C860 C861 1.334 . S
C861 H838 0.950 . S
C861 C860 1.334 . S
C861 C862 1.287 . S
C862 C861 1.287 . S
C862 C863 1.524 . S
C862 H881 0.913 . S
C863 H839 0.950 . S
C863 C862 1.524 . S
C863 C864 1.415 . S
C864 H840 0.950 . S
C864 C859 1.363 . S
C864 C863 1.415 . S
C865 H841 0.951 . S
C865 C866 1.366 . S
C865 C867 1.388 . S
C866 C865 1.366 . S
C866 C870 1.385 . S
C867 H842 0.951 1_556 S
C867 C865 1.388 . S
C867 C868 1.366 1_556 S
C868 C867 1.366 1_554 S
C868 C869 1.414 . S
C868 C871 1.499 . S
C869 H843 0.950 1_455 S
C869 C868 1.414 . S
C869 C870 1.374 1_554 S
C870 H844 0.950 1_455 S
C870 C866 1.385 . S
C870 C869 1.374 1_556 S
C871 C868 1.499 . S
C871 C872 1.390 . S
C871 C873 1.389 . S
C872 H845 0.937 1_455 S
C872 C858 1.373 1_455 S
C872 C871 1.390 . S
C873 C857 1.377 . S
C873 C871 1.389 . S
C873 C874 1.524 . S
C874 C873 1.524 . S
C874 C875 1.397 . S
C874 C879 1.363 . S
C875 H846 0.950 . S
C875 C874 1.397 . S
C875 C876 1.334 . S
C876 H847 0.950 . S
C876 C875 1.334 . S
C876 C877 1.287 . S
C877 C876 1.287 . S
C877 C878 1.524 . S
C877 H880 0.999 . S
C878 H848 0.950 . S
C878 C877 1.524 . S
C878 C879 1.415 . S
C879 H849 0.950 . S
C879 C874 1.363 . S
C879 C878 1.415 . S
H880 C877 0.999 . S
H881 C862 0.913 . S
H882 C900 0.951 . S
H883 C902 0.951 . S
H884 C904 0.950 . S
H885 C905 0.950 . S
H886 C907 0.950 . S
H887 C910 0.950 . S
H888 C911 0.950 . S
H889 C913 0.950 . S
H890 C914 0.950 1_545 S
H891 C915 0.951 . S
H892 C917 0.951 . S
H893 C919 0.950 . S
H894 C920 0.950 . S
H895 C922 0.950 . S
H896 C925 0.950 1_554 S
H897 C926 0.950 . S
H898 C928 0.950 . S
H899 C929 0.950 . S
C900 H882 0.951 . S
C900 C901 1.366 1_545 S
C900 C902 1.388 . S
C901 C900 1.366 1_565 S
C901 C905 1.385 . S
C902 H883 0.951 . S
C902 C900 1.388 . S
C902 C903 1.366 . S
C903 C902 1.366 . S
C903 C904 1.414 1_545 S
C903 C906 1.499 . S
C904 H884 0.950 . S
C904 C903 1.414 1_565 S
C904 C905 1.374 . S
C905 H885 0.950 . S
C905 C901 1.385 . S
C905 C904 1.374 . S
C906 C903 1.499 . S
C906 C907 1.373 . S
C906 C908 1.389 . S
C907 H886 0.950 . S
C907 C906 1.373 . S
C907 C923 1.377 . S
C908 C906 1.389 . S
C908 C909 1.524 1_545 S
C908 C922 1.377 . S
C909 C908 1.524 1_565 S
C909 C910 1.397 . S
C909 C914 1.363 . S
C910 H887 0.950 . S
C910 C909 1.397 . S
C910 C911 1.334 . S
C911 H888 0.950 . S
C911 C910 1.334 . S
C911 C912 1.287 . S
C912 C911 1.287 . S
C912 C913 1.524 . S
C912 H931 0.913 . S
C913 H889 0.950 . S
C913 C912 1.524 . S
C913 C914 1.415 . S
C914 H890 0.950 1_565 S
C914 C909 1.363 . S
C914 C913 1.415 . S
C915 H891 0.951 . S
C915 C916 1.366 . S
C915 C917 1.388 . S
C916 C915 1.366 . S
C916 C920 1.385 1_556 S
C917 H892 0.951 . S
C917 C915 1.388 . S
C917 C918 1.366 1_556 S
C918 C917 1.366 1_554 S
C918 C919 1.414 . S
C918 C921 1.499 . S
C919 H893 0.950 . S
C919 C918 1.414 . S
C919 C920 1.374 . S
C920 H894 0.950 . S
C920 C916 1.385 1_554 S
C920 C919 1.374 . S
C921 C918 1.499 . S
C921 C922 1.373 . S
C921 C923 1.389 . S
C922 H895 0.950 . S
C922 C908 1.377 . S
C922 C921 1.373 . S
C923 C907 1.377 . S
C923 C921 1.389 . S
C923 C924 1.524 1_554 S
C924 C923 1.524 1_556 S
C924 C925 1.397 . S
C924 C929 1.363 . S
C925 H896 0.950 1_556 S
C925 C924 1.397 . S
C925 C926 1.334 . S
C926 H897 0.950 . S
C926 C925 1.334 . S
C926 C927 1.287 . S
C927 C926 1.287 . S
C927 C928 1.524 . S
C927 H930 0.999 . S
C928 H898 0.950 . S
C928 C927 1.524 . S
C928 C929 1.415 . S
C929 H899 0.950 . S
C929 C924 1.363 . S
C929 C928 1.415 . S
H930 C927 0.999 . S
H931 C912 0.913 . S
H932 C950 0.951 . S
H933 C952 0.951 . S
H934 C954 0.950 . S
H935 C955 0.950 . S
H936 C957 0.950 . S
H937 C960 0.950 . S
H938 C961 0.950 . S
H939 C963 0.950 . S
H940 C964 0.950 . S
H941 C965 0.951 . S
H942 C967 0.951 . S
H943 C969 0.950 1_554 S
H944 C970 0.950 . S
H945 C972 0.950 . S
H946 C975 0.950 . S
H947 C976 0.950 . S
H948 C978 0.950 . S
H949 C979 0.950 . S
C950 H932 0.951 . S
C950 C951 1.366 . S
C950 C952 1.388 . S
C951 C950 1.366 . S
C951 C955 1.385 . S
C952 H933 0.951 . S
C952 C950 1.388 . S
C952 C953 1.366 . S
C953 C952 1.366 . S
C953 C954 1.414 . S
C953 C956 1.499 . S
C954 H934 0.950 . S
C954 C953 1.414 . S
C954 C955 1.374 . S
C955 H935 0.950 . S
C955 C951 1.385 . S
C955 C954 1.374 . S
C956 C953 1.499 . S
C956 C957 1.373 . S
C956 C958 1.389 . S
C957 H936 0.950 . S
C957 C956 1.373 . S
C957 C973 1.377 . S
C958 C956 1.389 . S
C958 C959 1.524 . S
C958 C972 1.377 . S
C959 C958 1.524 . S
C959 C960 1.397 . S
C959 C964 1.363 . S
C960 H937 0.950 . S
C960 C959 1.397 . S
C960 C961 1.334 . S
C961 H938 0.950 . S
C961 C960 1.334 . S
C961 C962 1.287 1_554 S
C962 C961 1.287 1_556 S
C962 C963 1.524 . S
C962 H981 0.913 . S
C963 H939 0.950 . S
C963 C962 1.524 . S
C963 C964 1.415 1_556 S
C964 H940 0.950 . S
C964 C959 1.363 . S
C964 C963 1.415 1_554 S
C965 H941 0.951 . S
C965 C966 1.366 . S
C965 C967 1.388 1_556 S
C966 C965 1.366 . S
C966 C970 1.385 . S
C967 H942 0.951 . S
C967 C965 1.388 1_554 S
C967 C968 1.366 . S
C968 C967 1.366 . S
C968 C969 1.414 1_554 S
C968 C971 1.499 . S
C969 H943 0.950 1_556 S
C969 C968 1.414 1_556 S
C969 C970 1.374 . S
C970 H944 0.950 . S
C970 C966 1.385 . S
C970 C969 1.374 . S
C971 C968 1.499 . S
C971 C972 1.373 . S
C971 C973 1.389 . S
C972 H945 0.950 . S
C972 C958 1.377 . S
C972 C971 1.373 . S
C973 C957 1.377 . S
C973 C971 1.389 . S
C973 C974 1.524 . S
C974 C973 1.524 . S
C974 C975 1.397 . S
C974 C979 1.363 . S
C975 H946 0.950 . S
C975 C974 1.397 . S
C975 C976 1.334 . S
C976 H947 0.950 . S
C976 C975 1.334 . S
C976 C977 1.287 . S
C977 C976 1.287 . S
C977 C978 1.524 . S
C977 H980 0.999 . S
C978 H948 0.950 . S
C978 C977 1.524 . S
C978 C979 1.415 . S
C979 H949 0.950 . S
C979 C974 1.363 . S
C979 C978 1.415 . S
H980 C977 0.999 . S
H981 C962 0.913 . S
H982 C1000 0.951 . S
H983 C1002 0.951 . S
H984 C1004 0.950 . S
H985 C1005 0.950 . S
H986 C1007 0.950 . S
H987 C1010 0.950 . S
H988 C1011 0.950 . S
H989 C1013 0.950 . S
H990 C1014 0.950 . S
H991 C1015 0.951 1_554 S
H992 C1017 0.951 . S
H993 C1019 0.950 . S
H994 C1020 0.950 . S
H995 C1022 0.950 1_556 S
H996 C1025 0.950 . S
H997 C1026 0.950 . S
H998 C1028 0.950 . S
H999 C1029 0.950 . S
C1000 H982 0.951 . S
C1000 C1001 1.366 . S
C1000 C1002 1.388 . S
C1001 C1000 1.366 . S
C1001 C1005 1.385 . S
C1002 H983 0.951 . S
C1002 C1000 1.388 . S
C1002 C1003 1.366 . S
C1003 C1002 1.366 . S
C1003 C1004 1.414 . S
C1003 C1006 1.499 . S
C1004 H984 0.950 . S
C1004 C1003 1.414 . S
C1004 C1005 1.374 . S
C1005 H985 0.950 . S
C1005 C1001 1.385 . S
C1005 C1004 1.374 . S
C1006 C1003 1.499 . S
C1006 C1007 1.373 . S
C1006 C1008 1.389 . S
C1007 H986 0.950 . S
C1007 C1006 1.373 . S
C1007 C1023 1.377 . S
C1008 C1006 1.389 . S
C1008 C1009 1.524 . S
C1008 C1022 1.377 . S
C1009 C1008 1.524 . S
C1009 C1010 1.397 . S
C1009 C1014 1.363 1_554 S
C1010 H987 0.950 . S
C1010 C1009 1.397 . S
C1010 C1011 1.334 . S
C1011 H988 0.950 . S
C1011 C1010 1.334 . S
C1011 C1012 1.287 1_554 S
C1012 C1011 1.287 1_556 S
C1012 C1013 1.524 . S
C1012 H1031 0.913 . S
C1013 H989 0.950 . S
C1013 C1012 1.524 . S
C1013 C1014 1.415 . S
C1014 H990 0.950 . S
C1014 C1009 1.363 1_556 S
C1014 C1013 1.415 . S
C1015 H991 0.951 1_556 S
C1015 C1016 1.367 . S
C1015 C1017 1.387 1_556 S
C1016 C1015 1.367 . S
C1016 C1020 1.385 . S
C1017 H992 0.951 . S
C1017 C1015 1.387 1_554 S
C1017 C1018 1.366 . S
C1018 C1017 1.366 . S
C1018 C1019 1.414 1_554 S
C1018 C1021 1.499 . S
C1019 H993 0.950 . S
C1019 C1018 1.414 1_556 S
C1019 C1020 1.374 . S
C1020 H994 0.950 . S
C1020 C1016 1.385 . S
C1020 C1019 1.374 . S
C1021 C1018 1.499 . S
C1021 C1022 1.373 . S
C1021 C1023 1.389 . S
C1022 H995 0.950 1_554 S
C1022 C1008 1.377 . S
C1022 C1021 1.373 . S
C1023 C1007 1.377 . S
C1023 C1021 1.389 . S
C1023 C1024 1.524 . S
C1024 C1023 1.524 . S
C1024 C1025 1.397 . S
C1024 C1029 1.363 . S
C1025 H996 0.950 . S
C1025 C1024 1.397 . S
C1025 C1026 1.334 . S
C1026 H997 0.950 . S
C1026 C1025 1.334 . S
C1026 C1027 1.287 . S
C1027 C1026 1.287 . S
C1027 C1028 1.524 . S
C1027 H1030 0.999 . S
C1028 H998 0.950 . S
C1028 C1027 1.524 . S
C1028 C1029 1.415 . S
C1029 H999 0.950 . S
C1029 C1024 1.363 . S
C1029 C1028 1.415 . S
H1030 C1027 0.999 . S
H1031 C1012 0.913 . S
H1032 C1050 0.951 1_554 S
H1033 C1052 0.951 . S
H1034 C1054 0.950 . S
H1035 C1055 0.950 . S
H1036 C1057 0.950 . S
H1037 C1060 0.950 . S
H1038 C1061 0.950 . S
H1039 C1063 0.950 . S
H1040 C1064 0.950 . S
H1041 C1065 0.951 . S
H1042 C1067 0.951 . S
H1043 C1069 0.945 1_655 S
H1044 C1070 0.950 1_655 S
H1045 C1072 0.950 . S
H1046 C1075 0.950 . S
H1047 C1076 0.950 . S
H1048 C1078 0.950 . S
H1049 C1079 0.950 . S
C1050 H1032 0.951 1_556 S
C1050 C1051 1.353 1_655 S
C1050 C1052 1.388 . S
C1051 C1050 1.353 1_455 S
C1051 C1055 1.403 . S
C1052 H1033 0.951 . S
C1052 C1050 1.388 . S
C1052 C1053 1.366 1_655 S
C1053 C1052 1.366 1_455 S
C1053 C1054 1.414 . S
C1053 C1056 1.499 . S
C1054 H1034 0.950 . S
C1054 C1053 1.414 . S
C1054 C1055 1.374 . S
C1055 H1035 0.950 . S
C1055 C1051 1.403 . S
C1055 C1054 1.374 . S
C1056 C1053 1.499 . S
C1056 C1057 1.373 1_455 S
C1056 C1058 1.389 . S
C1057 H1036 0.950 . S
C1057 C1056 1.373 1_655 S
C1057 C1073 1.377 . S
C1058 C1056 1.389 . S
C1058 C1059 1.524 . S
C1058 C1072 1.377 . S
C1059 C1058 1.524 . S
C1059 C1060 1.397 . S
C1059 C1064 1.363 1_556 S
C1060 H1037 0.950 . S
C1060 C1059 1.397 . S
C1060 C1061 1.334 1_556 S
C1061 H1038 0.950 . S
C1061 C1060 1.334 1_554 S
C1061 C1062 1.287 . S
C1062 C1061 1.287 . S
C1062 C1063 1.524 . S
C1062 H1081 0.913 . S
C1063 H1039 0.950 . S
C1063 C1062 1.524 . S
C1063 C1064 1.415 . S
C1064 H1040 0.950 . S
C1064 C1059 1.363 1_554 S
C1064 C1063 1.415 . S
C1065 H1041 0.951 . S
C1065 C1066 1.366 . S
C1065 C1067 1.388 . S
C1066 C1065 1.366 . S
C1066 C1070 1.385 . S
C1067 H1042 0.951 . S
C1067 C1065 1.388 . S
C1067 C1068 1.366 . S
C1068 C1067 1.366 . S
C1068 C1069 1.418 . S
C1068 C1071 1.499 . S
C1069 H1043 0.945 1_455 S
C1069 C1068 1.418 . S
C1069 C1070 1.375 . S
C1070 H1044 0.950 1_455 S
C1070 C1066 1.385 . S
C1070 C1069 1.375 . S
C1071 C1068 1.499 . S
C1071 C1072 1.373 . S
C1071 C1073 1.389 1_455 S
C1072 H1045 0.950 . S
C1072 C1058 1.377 . S
C1072 C1071 1.373 . S
C1073 C1057 1.377 . S
C1073 C1071 1.389 1_655 S
C1073 C1074 1.524 . S
C1074 C1073 1.524 . S
C1074 C1075 1.397 . S
C1074 C1079 1.363 . S
C1075 H1046 0.950 . S
C1075 C1074 1.397 . S
C1075 C1076 1.334 . S
C1076 H1047 0.950 . S
C1076 C1075 1.334 . S
C1076 C1077 1.287 . S
C1077 C1076 1.287 . S
C1077 C1078 1.524 . S
C1077 H1080 0.999 . S
C1078 H1048 0.950 . S
C1078 C1077 1.524 . S
C1078 C1079 1.415 . S
C1079 H1049 0.950 . S
C1079 C1074 1.363 . S
C1079 C1078 1.415 . S
H1080 C1077 0.999 . S
H1081 C1062 0.913 . S
H1082 C1100 0.951 1_554 S
H1083 C1102 0.951 . S
H1084 C1104 0.950 . S
H1085 C1105 0.950 . S
H1086 C1107 0.950 . S
H1087 C1110 0.950 . S
H1088 C1111 0.950 . S
H1089 C1113 0.950 . S
H1090 C1114 0.950 . S
H1091 C1115 0.951 . S
H1092 C1117 0.951 . S
H1093 C1119 0.947 1_565 S
H1094 C1120 0.950 1_565 S
H1095 C1122 0.950 . S
H1096 C1125 0.950 . S
H1097 C1126 0.950 . S
H1098 C1128 0.950 . S
H1099 C1129 0.950 . S
C1100 H1082 0.951 1_556 S
C1100 C1101 1.352 1_565 S
C1100 C1102 1.388 . S
C1101 C1100 1.352 1_545 S
C1101 C1105 1.404 . S
C1102 H1083 0.951 . S
C1102 C1100 1.388 . S
C1102 C1103 1.366 1_565 S
C1103 C1102 1.366 1_545 S
C1103 C1104 1.414 . S
C1103 C1106 1.499 . S
C1104 H1084 0.950 . S
C1104 C1103 1.414 . S
C1104 C1105 1.374 . S
C1105 H1085 0.950 . S
C1105 C1101 1.404 . S
C1105 C1104 1.374 . S
C1106 C1103 1.499 . S
C1106 C1107 1.373 1_545 S
C1106 C1108 1.389 . S
C1107 H1086 0.950 . S
C1107 C1106 1.373 1_565 S
C1107 C1123 1.377 . S
C1108 C1106 1.389 . S
C1108 C1109 1.524 . S
C1108 C1122 1.377 . S
C1109 C1108 1.524 . S
C1109 C1110 1.397 . S
C1109 C1114 1.363 1_556 S
C1110 H1087 0.950 . S
C1110 C1109 1.397 . S
C1110 C1111 1.334 1_556 S
C1111 H1088 0.950 . S
C1111 C1110 1.334 1_554 S
C1111 C1112 1.287 . S
C1112 C1111 1.287 . S
C1112 C1113 1.524 . S
C1112 H1131 0.913 . S
C1113 H1089 0.950 . S
C1113 C1112 1.524 . S
C1113 C1114 1.415 . S
C1114 H1090 0.950 . S
C1114 C1109 1.363 1_554 S
C1114 C1113 1.415 . S
C1115 H1091 0.951 . S
C1115 C1116 1.366 . S
C1115 C1117 1.388 . S
C1116 C1115 1.366 . S
C1116 C1120 1.385 . S
C1117 H1092 0.951 . S
C1117 C1115 1.388 . S
C1117 C1118 1.366 . S
C1118 C1117 1.366 . S
C1118 C1119 1.417 . S
C1118 C1121 1.499 . S
C1119 H1093 0.947 1_545 S
C1119 C1118 1.417 . S
C1119 C1120 1.374 . S
C1120 H1094 0.950 1_545 S
C1120 C1116 1.385 . S
C1120 C1119 1.374 . S
C1121 C1118 1.499 . S
C1121 C1122 1.373 . S
C1121 C1123 1.389 1_545 S
C1122 H1095 0.950 . S
C1122 C1108 1.377 . S
C1122 C1121 1.373 . S
C1123 C1107 1.377 . S
C1123 C1121 1.389 1_565 S
C1123 C1124 1.524 . S
C1124 C1123 1.524 . S
C1124 C1125 1.397 . S
C1124 C1129 1.363 . S
C1125 H1096 0.950 . S
C1125 C1124 1.397 . S
C1125 C1126 1.334 . S
C1126 H1097 0.950 . S
C1126 C1125 1.334 . S
C1126 C1127 1.287 . S
C1127 C1126 1.287 . S
C1127 C1128 1.524 . S
C1127 H1130 0.999 . S
C1128 H1098 0.950 . S
C1128 C1127 1.524 . S
C1128 C1129 1.415 . S
C1129 H1099 0.950 . S
C1129 C1124 1.363 . S
C1129 C1128 1.415 . S
H1130 C1127 0.999 . S
H1131 C1112 0.913 . S
H1132 C1150 0.951 . S
H1133 C1152 0.951 . S
H1134 C1154 0.950 . S
H1135 C1155 0.950 . S
H1136 C1157 0.950 . S
H1137 C1160 0.950 . S
H1138 C1161 0.950 . S
H1139 C1163 0.950 . S
H1140 C1164 0.950 . S
H1141 C1165 0.951 . S
H1142 C1167 0.951 . S
H1143 C1169 0.950 . S
H1144 C1170 0.950 . S
H1145 C1172 0.950 . S
H1146 C1175 0.950 . S
H1147 C1176 0.950 . S
H1148 C1178 0.950 1_554 S
H1149 C1179 0.950 . S
C1150 H1132 0.951 . S
C1150 C1151 1.366 . S
C1150 C1152 1.388 . S
C1151 C1150 1.366 . S
C1151 C1155 1.385 . S
C1152 H1133 0.951 . S
C1152 C1150 1.388 . S
C1152 C1153 1.366 . S
C1153 C1152 1.366 . S
C1153 C1154 1.414 . S
C1153 C1156 1.499 . S
C1154 H1134 0.950 . S
C1154 C1153 1.414 . S
C1154 C1155 1.374 . S
C1155 H1135 0.950 . S
C1155 C1151 1.385 . S
C1155 C1154 1.374 . S
C1156 C1153 1.499 . S
C1156 C1157 1.373 . S
C1156 C1158 1.389 . S
C1157 H1136 0.950 . S
C1157 C1156 1.373 . S
C1157 C1173 1.377 . S
C1158 C1156 1.389 . S
C1158 C1159 1.524 . S
C1158 C1172 1.377 . S
C1159 C1158 1.524 . S
C1159 C1160 1.397 . S
C1159 C1164 1.363 . S
C1160 H1137 0.950 . S
C1160 C1159 1.397 . S
C1160 C1161 1.334 . S
C1161 H1138 0.950 . S
C1161 C1160 1.334 . S
C1161 C1162 1.287 . S
C1162 C1161 1.287 . S
C1162 C1163 1.524 . S
C1162 H1181 0.913 . S
C1163 H1139 0.950 . S
C1163 C1162 1.524 . S
C1163 C1164 1.415 . S
C1164 H1140 0.950 . S
C1164 C1159 1.363 . S
C1164 C1163 1.415 . S
C1165 H1141 0.951 . S
C1165 C1166 1.366 . S
C1165 C1167 1.388 . S
C1166 C1165 1.366 . S
C1166 C1170 1.385 . S
C1167 H1142 0.951 . S
C1167 C1165 1.388 . S
C1167 C1168 1.366 . S
C1168 C1167 1.366 . S
C1168 C1169 1.414 . S
C1168 C1171 1.499 . S
C1169 H1143 0.950 . S
C1169 C1168 1.414 . S
C1169 C1170 1.374 . S
C1170 H1144 0.950 . S
C1170 C1166 1.385 . S
C1170 C1169 1.374 . S
C1171 C1168 1.499 . S
C1171 C1172 1.373 . S
C1171 C1173 1.389 . S
C1172 H1145 0.950 . S
C1172 C1158 1.377 . S
C1172 C1171 1.373 . S
C1173 C1157 1.377 . S
C1173 C1171 1.389 . S
C1173 C1174 1.524 . S
C1174 C1173 1.524 . S
C1174 C1175 1.397 . S
C1174 C1179 1.363 . S
C1175 H1146 0.950 . S
C1175 C1174 1.397 . S
C1175 C1176 1.334 1_556 S
C1176 H1147 0.950 . S
C1176 C1175 1.334 1_554 S
C1176 C1177 1.287 . S
C1177 C1176 1.287 . S
C1177 C1178 1.524 1_554 S
C1177 H1180 0.999 . S
C1178 H1148 0.950 1_556 S
C1178 C1177 1.524 1_556 S
C1178 C1179 1.415 . S
C1179 H1149 0.950 . S
C1179 C1174 1.363 . S
C1179 C1178 1.415 . S
H1180 C1177 0.999 . S
H1181 C1162 0.913 . S
H1182 C1200 0.951 . S
H1183 C1202 0.951 . S
H1184 C1204 0.950 . S
H1185 C1205 0.950 . S
H1186 C1207 0.950 . S
H1187 C1210 0.950 . S
H1188 C1211 0.950 . S
H1189 C1213 0.950 . S
H1190 C1214 0.950 . S
H1191 C1215 0.951 . S
H1192 C1217 0.951 . S
H1193 C1219 0.950 . S
H1194 C1220 0.950 . S
H1195 C1222 0.950 . S
H1196 C1225 0.950 . S
H1197 C1226 0.950 . S
H1198 C1228 0.950 . S
H1199 C1229 0.950 . S
C1200 H1182 0.951 . S
C1200 C1201 1.366 . S
C1200 C1202 1.388 . S
C1201 C1200 1.366 . S
C1201 C1205 1.385 . S
C1202 H1183 0.951 . S
C1202 C1200 1.388 . S
C1202 C1203 1.366 . S
C1203 C1202 1.366 . S
C1203 C1204 1.414 . S
C1203 C1206 1.499 . S
C1204 H1184 0.950 . S
C1204 C1203 1.414 . S
C1204 C1205 1.374 . S
C1205 H1185 0.950 . S
C1205 C1201 1.385 . S
C1205 C1204 1.374 . S
C1206 C1203 1.499 . S
C1206 C1207 1.373 . S
C1206 C1208 1.389 . S
C1207 H1186 0.950 . S
C1207 C1206 1.373 . S
C1207 C1223 1.377 . S
C1208 C1206 1.389 . S
C1208 C1209 1.524 . S
C1208 C1222 1.377 . S
C1209 C1208 1.524 . S
C1209 C1210 1.397 1_556 S
C1209 C1214 1.363 . S
C1210 H1187 0.950 . S
C1210 C1209 1.397 1_554 S
C1210 C1211 1.334 . S
C1211 H1188 0.950 . S
C1211 C1210 1.334 . S
C1211 C1212 1.287 . S
C1212 C1211 1.287 . S
C1212 C1213 1.524 1_554 S
C1212 H1231 0.913 . S
C1213 H1189 0.950 . S
C1213 C1212 1.524 1_556 S
C1213 C1214 1.415 . S
C1214 H1190 0.950 . S
C1214 C1209 1.363 . S
C1214 C1213 1.415 . S
C1215 H1191 0.951 . S
C1215 C1216 1.366 . S
C1215 C1217 1.388 . S
C1216 C1215 1.366 . S
C1216 C1220 1.385 . S
C1217 H1192 0.951 . S
C1217 C1215 1.388 . S
C1217 C1218 1.366 . S
C1218 C1217 1.366 . S
C1218 C1219 1.414 . S
C1218 C1221 1.499 . S
C1219 H1193 0.950 . S
C1219 C1218 1.414 . S
C1219 C1220 1.374 . S
C1220 H1194 0.950 . S
C1220 C1216 1.385 . S
C1220 C1219 1.374 . S
C1221 C1218 1.499 . S
C1221 C1222 1.373 . S
C1221 C1223 1.389 . S
C1222 H1195 0.950 . S
C1222 C1208 1.377 . S
C1222 C1221 1.373 . S
C1223 C1207 1.377 . S
C1223 C1221 1.389 . S
C1223 C1224 1.524 . S
C1224 C1223 1.524 . S
C1224 C1225 1.397 . S
C1224 C1229 1.363 . S
C1225 H1196 0.950 . S
C1225 C1224 1.397 . S
C1225 C1226 1.334 . S
C1226 H1197 0.950 . S
C1226 C1225 1.334 . S
C1226 C1227 1.287 . S
C1227 C1226 1.287 . S
C1227 C1228 1.524 . S
C1227 H1230 0.999 . S
C1228 H1198 0.950 . S
C1228 C1227 1.524 . S
C1228 C1229 1.415 . S
C1229 H1199 0.950 . S
C1229 C1224 1.363 . S
C1229 C1228 1.415 . S
H1230 C1227 0.999 . S
H1231 C1212 0.913 . S
H1232 C1250 0.951 . S
H1233 C1252 0.951 . S
H1234 C1254 0.950 . S
H1235 C1255 0.950 . S
H1236 C1257 0.950 . S
H1237 C1260 0.950 . S
H1238 C1261 0.950 . S
H1239 C1263 0.950 . S
H1240 C1264 0.950 . S
H1241 C1265 0.951 . S
H1242 C1267 0.951 . S
H1243 C1269 0.950 . S
H1244 C1270 0.950 . S
H1245 C1272 0.950 . S
H1246 C1275 0.950 . S
H1247 C1276 0.950 . S
H1248 C1278 0.950 . S
H1249 C1279 0.950 . S
C1250 H1232 0.951 . S
C1250 C1251 1.366 1_455 S
C1250 C1252 1.388 . S
C1251 C1250 1.366 1_655 S
C1251 C1255 1.385 . S
C1252 H1233 0.951 . S
C1252 C1250 1.388 . S
C1252 C1253 1.366 1_455 S
C1253 C1252 1.366 1_655 S
C1253 C1254 1.414 . S
C1253 C1256 1.499 . S
C1254 H1234 0.950 . S
C1254 C1253 1.414 . S
C1254 C1255 1.374 . S
C1255 H1235 0.950 . S
C1255 C1251 1.385 . S
C1255 C1254 1.374 . S
C1256 C1253 1.499 . S
C1256 C1257 1.373 . S
C1256 C1258 1.389 1_655 S
C1257 H1236 0.950 . S
C1257 C1256 1.373 . S
C1257 C1273 1.377 . S
C1258 C1256 1.389 1_455 S
C1258 C1259 1.524 . S
C1258 C1272 1.377 . S
C1259 C1258 1.524 . S
C1259 C1260 1.397 . S
C1259 C1264 1.363 . S
C1260 H1237 0.950 . S
C1260 C1259 1.397 . S
C1260 C1261 1.334 . S
C1261 H1238 0.950 . S
C1261 C1260 1.334 . S
C1261 C1262 1.287 . S
C1262 C1261 1.287 . S
C1262 C1263 1.524 . S
C1262 H1281 0.913 . S
C1263 H1239 0.950 . S
C1263 C1262 1.524 . S
C1263 C1264 1.415 . S
C1264 H1240 0.950 . S
C1264 C1259 1.363 . S
C1264 C1263 1.415 . S
C1265 H1241 0.951 . S
C1265 C1266 1.366 . S
C1265 C1267 1.388 . S
C1266 C1265 1.366 . S
C1266 C1270 1.385 1_655 S
C1267 H1242 0.951 . S
C1267 C1265 1.388 . S
C1267 C1268 1.366 . S
C1268 C1267 1.366 . S
C1268 C1269 1.414 1_655 S
C1268 C1271 1.499 . S
C1269 H1243 0.950 . S
C1269 C1268 1.414 1_455 S
C1269 C1270 1.374 . S
C1270 H1244 0.950 . S
C1270 C1266 1.385 1_455 S
C1270 C1269 1.374 . S
C1271 C1268 1.499 . S
C1271 C1272 1.373 1_655 S
C1271 C1273 1.389 . S
C1272 H1245 0.950 . S
C1272 C1258 1.377 . S
C1272 C1271 1.373 1_455 S
C1273 C1257 1.377 . S
C1273 C1271 1.389 . S
C1273 C1274 1.524 . S
C1274 C1273 1.524 . S
C1274 C1275 1.397 . S
C1274 C1279 1.363 . S
C1275 H1246 0.950 . S
C1275 C1274 1.397 . S
C1275 C1276 1.334 . S
C1276 H1247 0.950 . S
C1276 C1275 1.334 . S
C1276 C1277 1.287 . S
C1277 C1276 1.287 . S
C1277 C1278 1.524 . S
C1277 H1280 0.999 . S
C1278 H1248 0.950 . S
C1278 C1277 1.524 . S
C1278 C1279 1.415 . S
C1279 H1249 0.950 . S
C1279 C1274 1.363 . S
C1279 C1278 1.415 . S
H1280 C1277 0.999 . S
H1281 C1262 0.913 . S
H1282 C1300 0.951 . S
H1283 C1302 0.951 . S
H1284 C1304 0.950 . S
H1285 C1305 0.950 . S
H1286 C1307 0.950 . S
H1287 C1310 0.950 . S
H1288 C1311 0.950 . S
H1289 C1313 0.950 . S
H1290 C1314 0.950 . S
H1291 C1315 0.951 . S
H1292 C1317 0.951 . S
H1293 C1319 0.950 . S
H1294 C1320 0.950 . S
H1295 C1322 0.950 . S
H1296 C1325 0.950 . S
H1297 C1326 0.950 . S
H1298 C1328 0.950 . S
H1299 C1329 0.950 . S
C1300 H1282 0.951 . S
C1300 C1301 1.392 . S
C1300 C1302 1.388 . S
C1301 C1300 1.392 . S
C1301 C1305 1.361 1_565 S
C1302 H1283 0.951 . S
C1302 C1300 1.388 . S
C1302 C1303 1.366 . S
C1303 C1302 1.366 . S
C1303 C1304 1.414 1_565 S
C1303 C1306 1.499 . S
C1304 H1284 0.950 . S
C1304 C1303 1.414 1_545 S
C1304 C1305 1.374 . S
C1305 H1285 0.950 . S
C1305 C1301 1.361 1_545 S
C1305 C1304 1.374 . S
C1306 C1303 1.499 . S
C1306 C1307 1.373 1_565 S
C1306 C1308 1.389 . S
C1307 H1286 0.950 . S
C1307 C1306 1.373 1_545 S
C1307 C1323 1.377 . S
C1308 C1306 1.389 . S
C1308 C1309 1.524 . S
C1308 C1322 1.377 . S
C1309 C1308 1.524 . S
C1309 C1310 1.397 . S
C1309 C1314 1.363 . S
C1310 H1287 0.950 . S
C1310 C1309 1.397 . S
C1310 C1311 1.334 . S
C1311 H1288 0.950 . S
C1311 C1310 1.334 . S
C1311 C1312 1.287 . S
C1312 C1311 1.287 . S
C1312 C1313 1.524 . S
C1312 H1331 0.913 . S
C1313 H1289 0.950 . S
C1313 C1312 1.524 . S
C1313 C1314 1.415 . S
C1314 H1290 0.950 . S
C1314 C1309 1.363 . S
C1314 C1313 1.415 . S
C1315 H1291 0.951 . S
C1315 C1316 1.366 1_545 S
C1315 C1317 1.388 . S
C1316 C1315 1.366 1_565 S
C1316 C1320 1.385 . S
C1317 H1292 0.951 . S
C1317 C1315 1.388 . S
C1317 C1318 1.366 1_545 S
C1318 C1317 1.366 1_565 S
C1318 C1319 1.414 . S
C1318 C1321 1.499 . S
C1319 H1293 0.950 . S
C1319 C1318 1.414 . S
C1319 C1320 1.374 . S
C1320 H1294 0.950 . S
C1320 C1316 1.385 . S
C1320 C1319 1.374 . S
C1321 C1318 1.499 . S
C1321 C1322 1.373 . S
C1321 C1323 1.389 1_565 S
C1322 H1295 0.950 . S
C1322 C1308 1.377 . S
C1322 C1321 1.373 . S
C1323 C1307 1.377 . S
C1323 C1321 1.389 1_545 S
C1323 C1324 1.524 . S
C1324 C1323 1.524 . S
C1324 C1325 1.397 . S
C1324 C1329 1.363 . S
C1325 H1296 0.950 . S
C1325 C1324 1.397 . S
C1325 C1326 1.334 . S
C1326 H1297 0.950 . S
C1326 C1325 1.334 . S
C1326 C1327 1.287 . S
C1327 C1326 1.287 . S
C1327 C1328 1.524 . S
C1327 H1330 0.999 . S
C1328 H1298 0.950 . S
C1328 C1327 1.524 . S
C1328 C1329 1.415 . S
C1329 H1299 0.950 . S
C1329 C1324 1.363 . S
C1329 C1328 1.415 . S
H1330 C1327 0.999 . S
H1331 C1312 0.913 . S
H1332 C1350 0.951 . S
H1333 C1352 0.951 . S
H1334 C1354 0.950 . S
H1335 C1355 0.950 . S
H1336 C1357 0.950 . S
H1337 C1360 0.950 . S
H1338 C1361 0.950 . S
H1339 C1363 0.950 . S
H1340 C1364 0.950 . S
H1341 C1365 0.951 . S
H1342 C1367 0.951 . S
H1343 C1369 0.950 . S
H1344 C1370 0.950 . S
H1345 C1372 0.950 . S
H1346 C1375 0.950 . S
H1347 C1376 0.950 . S
H1348 C1378 0.950 . S
H1349 C1379 0.950 . S
C1350 H1332 0.951 . S
C1350 C1351 1.366 . S
C1350 C1352 1.388 . S
C1351 C1350 1.366 . S
C1351 C1355 1.385 . S
C1352 H1333 0.951 . S
C1352 C1350 1.388 . S
C1352 C1353 1.366 . S
C1353 C1352 1.366 . S
C1353 C1354 1.414 . S
C1353 C1356 1.499 . S
C1354 H1334 0.950 . S
C1354 C1353 1.414 . S
C1354 C1355 1.374 . S
C1355 H1335 0.950 . S
C1355 C1351 1.385 . S
C1355 C1354 1.374 . S
C1356 C1353 1.499 . S
C1356 C1357 1.373 . S
C1356 C1358 1.389 . S
C1357 H1336 0.950 . S
C1357 C1356 1.373 . S
C1357 C1373 1.377 . S
C1358 C1356 1.389 . S
C1358 C1359 1.524 . S
C1358 C1372 1.377 . S
C1359 C1358 1.524 . S
C1359 C1360 1.397 . S
C1359 C1364 1.363 . S
C1360 H1337 0.950 . S
C1360 C1359 1.397 . S
C1360 C1361 1.334 . S
C1361 H1338 0.950 . S
C1361 C1360 1.334 . S
C1361 C1362 1.287 . S
C1362 C1361 1.287 . S
C1362 C1363 1.524 . S
C1362 H1381 0.913 . S
C1363 H1339 0.950 . S
C1363 C1362 1.524 . S
C1363 C1364 1.415 . S
C1364 H1340 0.950 . S
C1364 C1359 1.363 . S
C1364 C1363 1.415 . S
C1365 H1341 0.951 . S
C1365 C1366 1.366 . S
C1365 C1367 1.388 . S
C1366 C1365 1.366 . S
C1366 C1370 1.385 . S
C1367 H1342 0.951 . S
C1367 C1365 1.388 . S
C1367 C1368 1.366 . S
C1368 C1367 1.366 . S
C1368 C1369 1.414 . S
C1368 C1371 1.499 . S
C1369 H1343 0.950 . S
C1369 C1368 1.414 . S
C1369 C1370 1.374 . S
C1370 H1344 0.950 . S
C1370 C1366 1.385 . S
C1370 C1369 1.374 . S
C1371 C1368 1.499 . S
C1371 C1372 1.373 . S
C1371 C1373 1.389 . S
C1372 H1345 0.950 . S
C1372 C1358 1.377 . S
C1372 C1371 1.373 . S
C1373 C1357 1.377 . S
C1373 C1371 1.389 . S
C1373 C1374 1.524 . S
C1374 C1373 1.524 . S
C1374 C1375 1.397 . S
C1374 C1379 1.363 . S
C1375 H1346 0.950 . S
C1375 C1374 1.397 . S
C1375 C1376 1.334 . S
C1376 H1347 0.950 . S
C1376 C1375 1.334 . S
C1376 C1377 1.287 . S
C1377 C1376 1.287 . S
C1377 C1378 1.524 . S
C1377 H1380 0.999 . S
C1378 H1348 0.950 . S
C1378 C1377 1.524 . S
C1378 C1379 1.415 . S
C1379 H1349 0.950 . S
C1379 C1374 1.363 . S
C1379 C1378 1.415 . S
H1380 C1377 0.999 . S
H1381 C1362 0.913 . S
H1382 C1400 0.951 . S
H1383 C1402 0.951 . S
H1384 C1404 0.950 . S
H1385 C1405 0.950 . S
H1386 C1407 0.950 . S
H1387 C1410 0.950 . S
H1388 C1411 0.950 . S
H1389 C1413 0.950 . S
H1390 C1414 0.950 . S
H1391 C1415 0.951 . S
H1392 C1417 0.951 . S
H1393 C1419 0.950 . S
H1394 C1420 0.950 . S
H1395 C1422 0.950 . S
H1396 C1425 0.950 . S
H1397 C1426 0.950 . S
H1398 C1428 0.950 . S
H1399 C1429 0.950 . S
C1400 H1382 0.951 . S
C1400 C1401 1.366 . S
C1400 C1402 1.388 . S
C1401 C1400 1.366 . S
C1401 C1405 1.385 . S
C1402 H1383 0.951 . S
C1402 C1400 1.388 . S
C1402 C1403 1.366 . S
C1403 C1402 1.366 . S
C1403 C1404 1.414 . S
C1403 C1406 1.499 . S
C1404 H1384 0.950 . S
C1404 C1403 1.414 . S
C1404 C1405 1.374 . S
C1405 H1385 0.950 . S
C1405 C1401 1.385 . S
C1405 C1404 1.374 . S
C1406 C1403 1.499 . S
C1406 C1407 1.373 . S
C1406 C1408 1.389 . S
C1407 H1386 0.950 . S
C1407 C1406 1.373 . S
C1407 C1423 1.377 . S
C1408 C1406 1.389 . S
C1408 C1409 1.524 . S
C1408 C1422 1.377 . S
C1409 C1408 1.524 . S
C1409 C1410 1.397 . S
C1409 C1414 1.363 . S
C1410 H1387 0.950 . S
C1410 C1409 1.397 . S
C1410 C1411 1.334 . S
C1411 H1388 0.950 . S
C1411 C1410 1.334 . S
C1411 C1412 1.287 . S
C1412 C1411 1.287 . S
C1412 C1413 1.524 . S
C1412 H1431 0.913 . S
C1413 H1389 0.950 . S
C1413 C1412 1.524 . S
C1413 C1414 1.415 . S
C1414 H1390 0.950 . S
C1414 C1409 1.363 . S
C1414 C1413 1.415 . S
C1415 H1391 0.951 . S
C1415 C1416 1.366 . S
C1415 C1417 1.388 . S
C1416 C1415 1.366 . S
C1416 C1420 1.385 . S
C1417 H1392 0.951 . S
C1417 C1415 1.388 . S
C1417 C1418 1.366 . S
C1418 C1417 1.366 . S
C1418 C1419 1.414 . S
C1418 C1421 1.499 . S
C1419 H1393 0.950 . S
C1419 C1418 1.414 . S
C1419 C1420 1.374 . S
C1420 H1394 0.950 . S
C1420 C1416 1.385 . S
C1420 C1419 1.374 . S
C1421 C1418 1.499 . S
C1421 C1422 1.373 . S
C1421 C1423 1.389 . S
C1422 H1395 0.950 . S
C1422 C1408 1.377 . S
C1422 C1421 1.373 . S
C1423 C1407 1.377 . S
C1423 C1421 1.389 . S
C1423 C1424 1.524 . S
C1424 C1423 1.524 . S
C1424 C1425 1.397 . S
C1424 C1429 1.363 . S
C1425 H1396 0.950 . S
C1425 C1424 1.397 . S
C1425 C1426 1.334 . S
C1426 H1397 0.950 . S
C1426 C1425 1.334 . S
C1426 C1427 1.287 . S
C1427 C1426 1.287 . S
C1427 C1428 1.524 . S
C1427 H1430 0.999 . S
C1428 H1398 0.950 . S
C1428 C1427 1.524 . S
C1428 C1429 1.415 . S
C1429 H1399 0.950 . S
C1429 C1424 1.363 . S
C1429 C1428 1.415 . S
H1430 C1427 0.999 . S
H1431 C1412 0.913 . S
C251 C61 1.657 1_545 S
C266 C74 1.743 1_545 S
C316 C114 1.757 . S
C301 C70 1.671 . S
C366 C154 1.762 . S
C351 C43 1.671 . S
C416 C194 1.756 1_455 S
C401 C52 1.666 1_455 S
C466 C87 1.747 1_565 S
C451 C25 1.662 1_545 S
C501 C34 1.677 . S
C516 C127 1.761 . S
C551 C7 1.671 . S
C566 C167 1.762 . S
C601 C16 1.665 . S
C616 C207 1.757 1_655 S
C666 C98 0.269 . S
C651 C50 0.245 1_455 S
C716 C138 0.274 . S
C701 C59 0.256 1_545 S
C766 C178 0.278 . S
C751 C67 0.248 . S
C801 C41 0.251 . S
C816 C218 0.266 . S
C851 C14 0.238 . S
C866 C81 0.269 . S
C916 C121 0.272 . S
C901 C23 0.245 . S
C966 C161 0.277 . S
C951 C31 0.253 . S
C1001 C5 0.236 . S
C1016 C201 0.280 . S
C1051 C49 1.827 1_455 S
C1066 C75 2.027 . S
C1101 C58 1.797 1_545 S
C1116 C115 2.001 . S
C1166 C155 1.987 . S
C1151 C68 1.781 . S
C1216 C195 2.014 . S
C1201 C40 1.806 . S
C1251 C13 1.827 . S
C1266 C94 2.039 . S
C1316 C134 2.001 . S
C1301 C22 1.797 . S
C1366 C174 1.987 . S
C1351 C32 1.784 . S
C1401 C4 1.809 . S
C1416 C214 2.020 . S
