# Generated by pormake.
# Topology anh, (6,3)-cn, num edge types: 1
# Building blocks:
#     Node 0, Type 0, BuildingBlock: BETFEN_clean_sbu_0, # of connection points: 6
#     Node 1, Type 0, BuildingBlock: BETFEN_clean_sbu_0, # of connection points: 6
#     Node 2, Type 0, BuildingBlock: BETFEN_clean_sbu_0, # of connection points: 6
#     Node 3, Type 1, BuildingBlock: ESEHIV_clean_linker_0, # of connection points: 3
#     Node 4, Type 1, BuildingBlock: ESEHIV_clean_linker_0, # of connection points: 3
#     Node 5, Type 1, BuildingBlock: ESEHIV_clean_linker_0, # of connection points: 3
#     Node 6, Type 1, BuildingBlock: ESEHIV_clean_linker_0, # of connection points: 3
#     Node 7, Type 1, BuildingBlock: ESEHIV_clean_linker_0, # of connection points: 3
#     Node 8, Type 1, BuildingBlock: ESEHIV_clean_linker_0, # of connection points: 3
#     Edge 9, Type (0, 1), BuildingBlock: ZUJKAS_clean_linker_0, # of connection points: 2
#     Edge 10, Type (0, 1), BuildingBlock: ZUJKAS_clean_linker_0, # of connection points: 2
#     Edge 11, Type (0, 1), BuildingBlock: ZUJKAS_clean_linker_0, # of connection points: 2
#     Edge 12, Type (0, 1), BuildingBlock: ZUJKAS_clean_linker_0, # of connection points: 2
#     Edge 13, Type (0, 1), BuildingBlock: ZUJKAS_clean_linker_0, # of connection points: 2
#     Edge 14, Type (0, 1), BuildingBlock: ZUJKAS_clean_linker_0, # of connection points: 2
#     Edge 15, Type (0, 1), BuildingBlock: ZUJKAS_clean_linker_0, # of connection points: 2
#     Edge 16, Type (0, 1), BuildingBlock: ZUJKAS_clean_linker_0, # of connection points: 2
#     Edge 17, Type (0, 1), BuildingBlock: ZUJKAS_clean_linker_0, # of connection points: 2
#     Edge 18, Type (0, 1), BuildingBlock: ZUJKAS_clean_linker_0, # of connection points: 2
#     Edge 19, Type (0, 1), BuildingBlock: ZUJKAS_clean_linker_0, # of connection points: 2
#     Edge 20, Type (0, 1), BuildingBlock: ZUJKAS_clean_linker_0, # of connection points: 2
#     Edge 21, Type (0, 1), BuildingBlock: ZUJKAS_clean_linker_0, # of connection points: 2
#     Edge 22, Type (0, 1), BuildingBlock: ZUJKAS_clean_linker_0, # of connection points: 2
#     Edge 23, Type (0, 1), BuildingBlock: ZUJKAS_clean_linker_0, # of connection points: 2
#     Edge 24, Type (0, 1), BuildingBlock: ZUJKAS_clean_linker_0, # of connection points: 2
#     Edge 25, Type (0, 1), BuildingBlock: ZUJKAS_clean_linker_0, # of connection points: 2
#     Edge 26, Type (0, 1), BuildingBlock: ZUJKAS_clean_linker_0, # of connection points: 2
# Relax obj value: 0.182
# Max RMSD: 0.207
# Mean RMSD: 0.155
data_MOF--net-anh--node1-BETFEN_clean_sbu_0--node2-ESEHIV_clean_linker_0--edge1-ZUJKAS_clean_linker_0
_symmetry_space_group_name_H-M    P1
_symmetry_Int_Tables_number       1
_symmetry_cell_setting            triclinic
loop_
_symmetry_equiv_pos_as_xyz
'x, y, z'
_cell_length_a     36.039728
_cell_length_b     37.103107
_cell_length_c     67.58106
_cell_angle_alpha  90.927568
_cell_angle_beta   91.560257
_cell_angle_gamma 105.54955
loop_
_atom_site_label
_atom_site_type_symbol
_atom_site_fract_x
_atom_site_fract_y
_atom_site_fract_z
_atom_type_partial_charge
Pr0 Pr 0.05163 0.53923 0.15811 0.0
Pr1 Pr 0.07337 0.62128 0.14974 0.0
C2 C 1.0213 0.46989 0.17161 0.0
C3 C 0.98347 0.44319 0.17436 0.0
C4 C 0.97833 0.40535 0.16931 0.0
C5 C 0.94311 0.3792 0.17223 0.0
C6 C 0.91236 0.39041 0.18038 0.0
C7 C 0.91739 0.42849 0.18519 0.0
C8 C 0.95259 0.45471 0.18212 0.0
C9 C 0.06333 0.5549 0.11822 0.0
C10 C 0.98224 0.58151 0.14935 0.0
C11 C 0.1054 0.69151 0.13795 0.0
C12 C 0.14034 0.72083 0.14403 0.0
C13 C 0.15757 0.72039 0.16285 0.0
C14 C 0.19099 0.74798 0.16859 0.0
C15 C 0.20816 0.77639 0.15553 0.0
C16 C 0.19085 0.7765 0.13659 0.0
C17 C 0.1572 0.74894 0.13091 0.0
C18 C 0.06399 0.60532 0.18982 0.0
C19 C 0.1432 0.57761 0.15579 0.0
O20 O 0.03063 0.49993 0.18308 0.0
O21 O 0.03186 0.47626 0.15338 0.0
O22 O 0.04498 0.57084 0.12952 0.0
O23 O 0.07536 0.52931 0.12724 0.0
O24 O 1.00832 0.60789 0.14073 0.0
O25 O 0.99242 0.55514 0.15933 0.0
O26 O 0.11102 0.66193 0.12908 0.0
O27 O 0.07839 0.6833 0.15096 0.0
O28 O 0.08157 0.58969 0.17801 0.0
O29 O 0.05167 0.6311 0.18125 0.0
O30 O 0.11779 0.54918 0.16333 0.0
O31 O 0.13264 0.60608 0.14821 0.0
H32 H 1.00179 0.39592 0.1633 0.0
H33 H 0.94026 0.35002 0.16859 0.0
H34 H 0.89408 0.43799 0.1913 0.0
H35 H 0.95573 0.48387 0.18594 0.0
H36 H 0.14509 0.69871 0.17315 0.0
H37 H 0.20308 0.74727 0.18337 0.0
H38 H 0.20354 0.79758 0.12605 0.0
H39 H 0.14446 0.74947 0.11625 0.0
Pr40 Pr 0.58053 0.08292 0.52033 0.0
Pr41 Pr 0.49342 0.06038 0.5252 0.0
C42 C 0.65325 0.1131 0.50905 0.0
C43 C 0.67974 0.14986 0.5047 0.0
C44 C 0.69202 0.17815 0.51941 0.0
C45 C 0.7181 0.21222 0.51503 0.0
C46 C 0.73225 0.21877 0.49586 0.0
C47 C 0.71962 0.19058 0.48114 0.0
C48 C 0.69378 0.15647 0.48555 0.0
C49 C 0.55652 0.06911 0.55899 0.0
C50 C 0.53456 0.15051 0.52599 0.0
C51 C 0.42063 1.02773 0.5355 0.0
C52 C 0.39232 0.99206 0.53017 0.0
C53 C 0.39475 0.97345 0.51221 0.0
C54 C 0.3681 0.93941 0.50721 0.0
C55 C 0.33866 0.92305 0.52016 0.0
C56 C 0.33665 0.94168 0.53827 0.0
C57 C 0.3633 0.97589 0.54322 0.0
C58 C 0.51553 0.0711 0.48609 0.0
C59 C 0.54066 0.99249 0.52148 0.0
O60 O 0.62432 0.09998 0.49646 0.0
O61 O 0.64421 0.10619 0.5275 0.0
O62 O 0.543 0.08751 0.54655 0.0
O63 O 0.58511 0.05836 0.55189 0.0
O64 O 0.50523 0.12466 0.53291 0.0
O65 O 0.56397 0.14083 0.51816 0.0
O66 O 0.45082 1.02516 0.54598 0.0
O67 O 0.42917 0.05207 0.52141 0.0
O68 O 0.53067 0.05436 0.49875 0.0
O69 O 0.48666 0.08121 0.49319 0.0
O70 O 0.57178 1.01819 0.51628 0.0
O71 O 0.50916 1.00195 0.52657 0.0
H72 H 0.68166 0.17399 0.53431 0.0
H73 H 0.72701 0.23355 0.52663 0.0
H74 H 0.73035 0.19458 0.4663 0.0
H75 H 0.68499 0.13504 0.47398 0.0
H76 H 0.41723 0.98533 0.50201 0.0
H77 H 0.37027 0.92621 0.49304 0.0
H78 H 0.31476 0.92964 0.54872 0.0
H79 H 0.36134 0.98965 0.55727 0.0
Pr80 Pr 0.57243 0.56391 0.81833 0.0
Pr81 Pr 0.59857 0.64913 0.83688 0.0
C82 C 0.55436 0.50252 0.79466 0.0
C83 C 0.54296 0.46171 0.79756 0.0
C84 C 0.50389 0.44188 0.79568 0.0
C85 C 0.49219 0.40377 0.79946 0.0
C86 C 0.51936 0.38452 0.80496 0.0
C87 C 0.55858 0.40401 0.80637 0.0
C88 C 0.5703 0.44234 0.80276 0.0
C89 C 0.57331 0.56292 0.85986 0.0
C90 C 0.6656 0.60672 0.82897 0.0
C91 C 0.60537 0.71159 0.85884 0.0
C92 C 0.57728 0.72355 0.87083 0.0
C93 C 0.57899 0.76162 0.8725 0.0
C94 C 0.54699 0.77268 0.87878 0.0
C95 C 0.51279 0.74569 0.88323 0.0
C96 C 0.51272 0.70783 0.88356 0.0
C97 C 0.54473 0.69682 0.87735 0.0
C98 C 0.60355 0.64051 0.79595 0.0
C99 C 0.50456 0.60566 0.8286 0.0
O100 O 0.59006 0.52087 0.79934 0.0
O101 O 0.52925 0.52042 0.79983 0.0
O102 O 0.5818 0.59064 0.84889 0.0
O103 O 0.56386 0.53246 0.84896 0.0
O104 O 0.65568 0.63181 0.84028 0.0
O105 O 0.6404 0.58259 0.81717 0.0
O106 O 0.61683 0.68311 0.86531 0.0
O107 O 0.59736 0.70949 0.83976 0.0
O108 O 0.5774 0.62214 0.80658 0.0
O109 O 0.62753 0.66724 0.80621 0.0
O110 O 0.5135 0.57904 0.81805 0.0
O111 O 0.53092 0.63236 0.83831 0.0
H112 H 0.48223 0.45593 0.79145 0.0
H113 H 0.46186 0.38922 0.79781 0.0
H114 H 0.58008 0.38973 0.81052 0.0
H115 H 0.60068 0.45676 0.80423 0.0
H116 H 0.60379 0.78257 0.86742 0.0
H117 H 0.54776 0.80203 0.87815 0.0
H118 H 0.48676 0.68652 0.88696 0.0
H119 H 0.54278 0.66722 0.87612 0.0
H120 H 0.51046 1.02678 0.27081 0.0
H121 H 0.61143 0.11992 0.2755 0.0
H122 H 0.56411 0.07625 0.21808 0.0
C123 C 0.5334 1.04715 0.26383 0.0
C124 C 0.53405 0.04838 0.24307 0.0
C125 C 0.56112 0.07294 0.27564 0.0
C126 C 0.59 0.09993 0.26643 0.0
C127 C 0.59147 0.10144 0.24568 0.0
C128 C 0.56309 0.0757 0.23409 0.0
H129 H 0.563 0.6429 0.57856 0.0
H130 H 0.55255 0.52546 0.58456 0.0
H131 H 0.53881 0.56971 0.527 0.0
C132 C 0.5578 0.61503 0.57203 0.0
C133 C 0.55021 0.61011 0.55157 0.0
C134 C 0.55867 0.58486 0.58413 0.0
C135 C 0.55245 0.54906 0.57533 0.0
C136 C 0.54572 0.54299 0.55477 0.0
C137 C 0.5446 0.57389 0.5428 0.0
H138 H 1.02273 0.58419 0.90381 0.0
H139 H 0.1449 0.59798 0.90541 0.0
H140 H 0.08369 0.59471 0.8494 0.0
C141 C 0.04947 0.5878 0.89613 0.0
C142 C 0.04905 0.58897 0.87537 0.0
C143 C 0.08386 0.5912 0.90708 0.0
C144 C 0.11826 0.59563 0.89701 0.0
C145 C 0.11864 0.5969 0.87621 0.0
C146 C 0.0838 0.59366 0.86542 0.0
H147 H 0.99883 0.52163 0.40079 0.0
H148 H 0.09421 0.62016 0.40612 0.0
H149 H 0.03844 0.57066 0.45832 0.0
C150 C 1.01849 0.54303 0.40995 0.0
C151 C 1.01525 0.54248 0.43065 0.0
C152 C 0.04671 0.57104 0.40092 0.0
C153 C 0.07224 0.59851 0.41292 0.0
C154 C 0.06948 0.5986 0.43361 0.0
C155 C 0.04083 0.57056 0.44238 0.0
H156 H 0.37151 1.02237 0.73308 0.0
H157 H 0.33673 0.90295 0.73915 0.0
H158 H 0.34686 0.97608 0.79036 0.0
C159 C 0.36118 0.99812 0.74216 0.0
C160 C 0.35873 1.00329 0.76261 0.0
C161 C 0.35352 0.96209 0.73355 0.0
C162 C 0.34182 0.93081 0.74564 0.0
C163 C 0.33846 0.93552 0.7662 0.0
C164 C 0.3466 0.97197 0.77443 0.0
H165 H 0.49389 0.56081 0.074 0.0
H166 H 0.61628 0.5764 0.07498 0.0
H167 H 0.55735 0.57153 0.1298 0.0
C168 C 0.52088 0.56448 0.08228 0.0
C169 C 0.52131 0.56568 0.10312 0.0
C170 C 0.55493 0.56814 0.07201 0.0
C171 C 0.58979 0.57332 0.08281 0.0
C172 C 0.59102 0.57461 0.10359 0.0
C173 C 0.55661 0.57063 0.11375 0.0
H174 H 0.17511 0.52005 0.16441 0.0
H175 H 0.24162 0.51803 0.15962 0.0
H176 H 0.2705 0.63209 0.14026 0.0
H177 H 0.20415 0.63421 0.14469 0.0
H178 H 0.29252 0.58564 0.11445 0.0
H179 H 0.34241 0.56392 0.19058 0.0
H180 H 0.29827 0.53062 0.18261 0.0
H181 H 0.2996 0.5792 0.18557 0.0
C182 C 0.19575 0.5449 0.15942 0.0
C183 C 0.18419 0.57723 0.15487 0.0
C184 C 0.23386 0.54376 0.1568 0.0
C185 C 0.26121 0.57504 0.14978 0.0
C186 C 0.24995 0.60764 0.14575 0.0
H187 H 0.50795 0.61008 0.13348 0.0
H188 H 0.44519 0.61119 0.14641 0.0
C189 C 0.21192 0.60877 0.14828 0.0
C190 C 0.30061 0.57294 0.14498 0.0
H191 H 0.38277 0.55587 0.16434 0.0
C192 C 0.31228 0.5793 0.1254 0.0
C193 C 0.32654 0.565 0.1593 0.0
C194 C 0.3163 0.55963 0.18074 0.0
C195 C 0.34882 0.57738 0.11967 0.0
C196 C 0.37426 0.56815 0.1338 0.0
C197 C 0.36302 0.5625 0.15349 0.0
C198 C 0.41258 0.56433 0.12817 0.0
C199 C 0.36004 0.58564 0.09852 0.0
C200 C 0.41513 0.53671 0.11425 0.0
C201 C 0.45076 0.53603 0.10688 0.0
C202 C 0.48466 0.56285 0.11336 0.0
C203 C 0.48237 0.589 0.12826 0.0
C204 C 0.44655 0.58974 0.1356 0.0
H205 H 0.34149 0.60113 0.09096 0.0
H206 H 0.39055 0.60231 0.09784 0.0
H207 H 0.3568 0.55889 0.09019 0.0
H208 H 0.38933 0.5164 0.1086 0.0
H209 H 0.45169 0.51513 0.09566 0.0
H210 H 0.73279 0.26169 0.46327 0.0
H211 H 0.78124 0.31914 0.45498 0.0
H212 H 0.844 0.31443 0.50966 0.0
H213 H 0.79591 0.2567 0.51799 0.0
H214 H 0.80761 0.38975 0.47897 0.0
H215 H 0.9229 0.31942 0.46431 0.0
H216 H 0.87254 0.29412 0.46436 0.0
H217 H 0.89864 0.30941 0.48731 0.0
C218 C 0.75698 0.27282 0.4735 0.0
C219 C 0.76064 0.25455 0.49124 0.0
C220 C 0.78447 0.30572 0.4688 0.0
C221 C 0.81631 0.32075 0.48163 0.0
C222 C 0.81977 0.30303 0.4995 0.0
H223 H 1.0223 0.5038 0.46418 0.0
H224 H 0.97357 0.45246 0.4784 0.0
C225 C 0.79214 0.27024 0.50429 0.0
C226 C 0.84614 0.35471 0.47611 0.0
H227 H 0.93892 0.38484 0.46129 0.0
C228 C 0.83638 0.3888 0.47515 0.0
C229 C 0.88364 0.35329 0.47128 0.0
C230 C 0.89523 0.31713 0.4717 0.0
C231 C 0.86324 0.42165 0.46945 0.0
C232 C 0.90049 0.42007 0.46408 0.0
C233 C 0.91039 0.38603 0.4654 0.0
C234 C 0.92915 0.45291 0.45627 0.0
C235 C 0.85155 0.45777 0.46947 0.0
C236 C 0.92041 0.47024 0.43912 0.0
C237 C 0.94803 0.49982 0.4311 0.0
C238 C 0.98522 0.51241 0.43989 0.0
C239 C 0.99382 0.49516 0.45717 0.0
C240 C 0.96608 0.46564 0.46524 0.0
H241 H 0.82777 0.45684 0.47974 0.0
H242 H 0.87623 0.482 0.4738 0.0
H243 H 0.84111 0.46235 0.45437 0.0
H244 H 0.89243 0.46041 0.43167 0.0
H245 H 0.94025 0.51269 0.41791 0.0
H246 H 0.44931 0.7119 0.86103 0.0
H247 H 0.39903 0.73998 0.85015 0.0
H248 H 0.44229 0.83189 0.89178 0.0
H249 H 0.49407 0.8042 0.9024 0.0
H250 H 0.34165 0.77065 0.86076 0.0
H251 H 0.47291 0.87981 0.83946 0.0
H252 H 0.47585 0.83673 0.85037 0.0
H253 H 0.46662 0.87353 0.86553 0.0
C254 C 0.44711 0.7371 0.86862 0.0
C255 C 0.47592 0.75613 0.88237 0.0
C256 C 0.41826 0.75322 0.86232 0.0
C257 C 0.41764 0.78853 0.8697 0.0
C258 C 0.44296 0.80504 0.88552 0.0
H259 H 0.29704 0.92267 0.80015 0.0
H260 H 0.3071 0.88279 0.82718 0.0
C261 C 0.47241 0.78919 0.89162 0.0
C262 C 0.39688 0.81057 0.85777 0.0
H263 H 0.41443 0.88209 0.82525 0.0
C264 C 0.3573 0.79553 0.8533 0.0
C265 C 0.41763 0.8426 0.84772 0.0
C266 C 0.4606 0.85906 0.85083 0.0
C267 C 0.33841 0.81075 0.83842 0.0
C268 C 0.35966 0.84177 0.82802 0.0
C269 C 0.39847 0.85805 0.83327 0.0
C270 C 0.34386 0.8568 0.8106 0.0
C271 C 0.29664 0.79255 0.8331 0.0
C272 C 0.35986 0.85409 0.79212 0.0
C273 C 0.35485 0.87726 0.77682 0.0
C274 C 0.33367 0.90356 0.77976 0.0
C275 C 0.31409 0.90315 0.79757 0.0
C276 C 0.31946 0.88015 0.81297 0.0
H277 H 0.28472 0.76717 0.84183 0.0
H278 H 0.27946 0.8128 0.83579 0.0
H279 H 0.29333 0.78467 0.81709 0.0
H280 H 0.37896 0.83629 0.7901 0.0
H281 H 0.3706 0.87691 0.76343 0.0
H282 H 0.9198 0.53088 0.16442 0.0
H283 H 0.85162 0.52928 0.16001 0.0
H284 H 0.88311 0.62928 0.12574 0.0
H285 H 0.95107 0.63101 0.12987 0.0
H286 H 0.81143 0.58465 0.16967 0.0
H287 H 0.80667 0.55264 0.08902 0.0
H288 H 0.84517 0.54733 0.1054 0.0
H289 H 0.84473 0.59285 0.09685 0.0
C290 C 0.91225 0.55257 0.15596 0.0
C291 C 0.94096 0.58091 0.14735 0.0
C292 C 0.87326 0.55165 0.15351 0.0
C293 C 0.8623 0.57887 0.14233 0.0
C294 C 0.89091 0.60764 0.13415 0.0
H295 H 0.65731 0.62862 0.09803 0.0
H296 H 0.72218 0.62984 0.11014 0.0
C297 C 0.9298 0.60862 0.13658 0.0
C298 C 0.82099 0.57699 0.13876 0.0
H299 H 0.75309 0.57023 0.10169 0.0
C300 C 0.79848 0.5812 0.15485 0.0
C301 C 0.80416 0.57223 0.11942 0.0
C302 C 0.82627 0.56564 0.10169 0.0
C303 C 0.75994 0.58228 0.15197 0.0
C304 C 0.74353 0.57859 0.13255 0.0
C305 C 0.76582 0.57342 0.11657 0.0
C306 C 0.70366 0.58092 0.12811 0.0
C307 C 0.73748 0.58856 0.1696 0.0
C308 C 0.67151 0.55366 0.13468 0.0
C309 C 0.63424 0.55306 0.12783 0.0
C310 C 0.62874 0.57946 0.11415 0.0
C311 C 0.66079 0.60784 0.10849 0.0
C312 C 0.69783 0.60854 0.11537 0.0
H313 H 0.75655 0.59875 0.18286 0.0
H314 H 0.72089 0.6091 0.16621 0.0
H315 H 0.71666 0.56176 0.17326 0.0
H316 H 0.67536 0.53173 0.14425 0.0
H317 H 0.61005 0.53066 0.13224 0.0
H318 H 0.26089 0.90274 0.52629 0.0
H319 H 0.21359 0.84454 0.51583 0.0
H320 H 0.30363 0.80458 0.48991 0.0
H321 H 0.3513 0.86176 0.50113 0.0
H322 H 0.1944 0.81836 0.47855 0.0
H323 H 0.24838 0.71438 0.52009 0.0
H324 H 0.26485 0.76395 0.52568 0.0
H325 H 0.28494 0.74371 0.5056 0.0
C326 C 0.2708 0.88123 0.51877 0.0
C327 C 0.30998 0.887 0.51459 0.0
C328 C 0.24365 0.84806 0.51267 0.0
C329 C 0.2551 0.81991 0.50234 0.0
C330 C 0.29418 0.82548 0.49826 0.0
H331 H 0.14753 0.62488 0.43092 0.0
H332 H 0.19086 0.67779 0.44925 0.0
C333 C 0.32136 0.85851 0.50443 0.0
C334 C 0.22593 0.78586 0.49466 0.0
H335 H 0.20361 0.6903 0.49299 0.0
C336 C 0.19609 0.79036 0.48194 0.0
C337 C 0.22815 0.7493 0.49909 0.0
C338 C 0.25808 0.74249 0.51352 0.0
C339 C 0.1693 0.75938 0.47298 0.0
C340 C 0.17226 0.72296 0.47696 0.0
C341 C 0.20155 0.71833 0.48996 0.0
C342 C 0.1462 0.68949 0.46698 0.0
C343 C 0.13879 0.7658 0.45878 0.0
C344 C 0.10691 0.67815 0.47119 0.0
C345 C 0.08209 0.6479 0.46076 0.0
C346 C 0.09618 0.62865 0.44588 0.0
C347 C 0.13578 0.63948 0.44213 0.0
C348 C 0.16058 0.66952 0.45264 0.0
H349 H 0.14417 0.79571 0.45491 0.0
H350 H 0.13739 0.74885 0.44494 0.0
H351 H 0.11026 0.75682 0.46565 0.0
H352 H 0.09538 0.69308 0.48234 0.0
H353 H 0.0517 0.64033 0.4639 0.0
H354 H 0.45935 0.34736 0.82698 0.0
H355 H 0.43243 0.27955 0.82875 0.0
H356 H 0.52267 0.26252 0.79204 0.0
H357 H 0.54989 0.33016 0.79044 0.0
H358 H 0.40444 0.2375 0.79638 0.0
H359 H 0.5165 0.182 0.83223 0.0
H360 H 0.51743 0.23088 0.83396 0.0
H361 H 0.53565 0.21259 0.81254 0.0
C362 C 0.47379 0.32905 0.81961 0.0
C363 C 0.50651 0.34389 0.80845 0.0
C364 C 0.45854 0.29041 0.82072 0.0
C365 C 0.47577 0.266 0.81071 0.0
C366 C 0.50947 0.28079 0.80031 0.0
H367 H 0.42506 0.05559 0.75441 0.0
H368 H 0.45058 0.11767 0.76962 0.0
C369 C 0.5249 0.31944 0.79931 0.0
C370 C 0.45563 0.22572 0.80864 0.0
H371 H 0.47007 0.13866 0.81048 0.0
C372 C 0.41838 0.21577 0.7999 0.0
C373 C 0.47391 0.1975 0.81326 0.0
C374 C 0.51293 0.20628 0.82371 0.0
C375 C 0.39995 0.17858 0.7944 0.0
C376 C 0.41916 0.15066 0.798 0.0
C377 C 0.45553 0.16027 0.8077 0.0
C378 C 0.40388 0.11228 0.78977 0.0
C379 C 0.36115 0.1698 0.78368 0.0
C380 C 0.36924 0.08869 0.79618 0.0
C381 C 0.35423 0.05327 0.7873 0.0
C382 C 0.37372 1.04105 0.7719 0.0
C383 C 0.40883 0.06458 0.76586 0.0
C384 C 0.42373 0.09984 0.77471 0.0
H385 H 0.35299 0.1955 0.77941 0.0
H386 H 0.3611 0.15247 0.77012 0.0
H387 H 0.33878 0.15355 0.79346 0.0
H388 H 0.35376 0.09777 0.80795 0.0
H389 H 0.32725 1.03561 0.79231 0.0
H390 H 0.4812 0.93062 0.52949 0.0
H391 H 0.48274 0.86508 0.53131 0.0
H392 H 0.60234 0.89651 0.51625 0.0
H393 H 0.60117 0.96206 0.51453 0.0
H394 H 0.50002 0.81574 0.5031 0.0
H395 H 0.60469 0.83811 0.56676 0.0
H396 H 0.58034 0.87274 0.5596 0.0
H397 H 0.621 0.86748 0.54615 0.0
C398 C 0.50792 0.92372 0.52656 0.0
C399 C 0.54113 0.95206 0.52196 0.0
C400 C 0.50872 0.88603 0.52757 0.0
C401 C 0.54281 0.87552 0.52424 0.0
C402 C 0.57581 0.90366 0.5193 0.0
H403 H 0.60859 0.66511 0.53682 0.0
H404 H 0.60628 0.72841 0.52791 0.0
C405 C 0.57501 0.94131 0.5182 0.0
C406 C 0.54388 0.83533 0.52596 0.0
H407 H 0.58793 0.77807 0.55134 0.0
C408 C 0.51922 0.80754 0.51369 0.0
C409 C 0.56891 0.82422 0.5397 0.0
C410 C 0.59502 0.85207 0.55394 0.0
C411 C 0.51938 0.76947 0.51452 0.0
C412 C 0.54426 0.7583 0.52837 0.0
C413 C 0.56894 0.78619 0.54061 0.0
C414 C 0.54467 0.718 0.5309 0.0
C415 C 0.49347 0.7418 0.50014 0.0
C416 C 0.51082 0.69017 0.5351 0.0
C417 C 0.51211 0.65368 0.53981 0.0
C418 C 0.54725 0.6439 0.5405 0.0
C419 C 0.5809 0.67129 0.53571 0.0
C420 C 0.57961 0.70775 0.53091 0.0
H421 H 0.48639 0.75578 0.48669 0.0
H422 H 0.50697 0.71952 0.49554 0.0
H423 H 0.46602 0.7285 0.50734 0.0
H424 H 0.48358 0.69714 0.53585 0.0
H425 H 0.48595 0.63374 0.54422 0.0
H426 H 0.72731 0.65791 0.84646 0.0
H427 H 0.79378 0.6544 0.84964 0.0
H428 H 0.76323 0.54898 0.8172 0.0
H429 H 0.69657 0.55264 0.81355 0.0
H430 H 0.81827 0.60215 0.86878 0.0
H431 H 0.8614 0.60327 0.79061 0.0
H432 H 0.81865 0.61588 0.79798 0.0
H433 H 0.81831 0.56746 0.79551 0.0
C434 C 0.73469 0.63411 0.83979 0.0
C435 C 0.70647 0.60551 0.82977 0.0
C436 C 0.77281 0.63219 0.8416 0.0
C437 C 0.78372 0.60165 0.83348 0.0
C438 C 0.75579 0.57326 0.82321 0.0
H439 H 0.98185 0.53475 0.87854 0.0
H440 H 0.91779 0.53603 0.86616 0.0
C441 C 0.71758 0.57528 0.82125 0.0
C442 C 0.82355 0.59836 0.83721 0.0
H443 H 0.90435 0.58853 0.81474 0.0
C444 C 0.83708 0.59931 0.85693 0.0
C445 C 0.8483 0.59501 0.82176 0.0
C446 C 0.83614 0.5957 0.80027 0.0
C447 C 0.87436 0.59665 0.86167 0.0
C448 C 0.89866 0.59199 0.84628 0.0
C449 C 0.88549 0.59161 0.82651 0.0
C450 C 0.93792 0.58791 0.8507 0.0
C451 C 0.8876 0.59951 0.88318 0.0
C452 C 0.97074 0.61545 0.8451 0.0
C453 C 1.00754 0.6145 0.85199 0.0
C454 C 1.01188 0.58607 0.86461 0.0
C455 C 0.97921 0.55718 0.869 0.0
C456 C 0.94263 0.55797 0.86201 0.0
H457 H 0.86972 0.61267 0.89253 0.0
H458 H 0.88517 0.57101 0.88873 0.0
H459 H 0.91816 0.61606 0.88503 0.0
H460 H 0.96774 0.6387 0.8363 0.0
H461 H 0.03224 0.63717 0.84846 0.0
H462 H 0.27007 0.76812 0.17771 0.0
H463 H 0.32652 0.81686 0.18968 0.0
H464 H 0.28494 0.89962 0.15858 0.0
H465 H 0.22727 0.85135 0.14739 0.0
H466 H 0.3836 0.86464 0.17031 0.0
H467 H 0.30279 0.94488 0.2139 0.0
H468 H 0.28051 0.89866 0.20372 0.0
H469 H 0.28841 0.93873 0.18817 0.0
C470 C 0.27258 0.79675 0.17361 0.0
C471 C 0.24375 0.8058 0.16179 0.0
C472 C 0.30511 0.82455 0.18032 0.0
C473 C 0.30964 0.86201 0.17534 0.0
C474 C 0.28164 0.87104 0.16299 0.0
H475 H 0.49144 0.06289 0.21156 0.0
H476 H 0.43853 1.01847 0.19307 0.0
C477 C 0.2489 0.84327 0.15638 0.0
C478 C 0.34359 0.89144 0.18325 0.0
H479 H 0.37004 0.97106 0.21226 0.0
C480 C 0.38062 0.88795 0.17945 0.0
C481 C 0.33968 0.92185 0.1952 0.0
C482 C 0.30074 0.92619 0.20067 0.0
C483 C 0.41378 0.9139 0.18735 0.0
C484 C 0.40977 0.94398 0.19941 0.0
C485 C 0.3729 0.948 0.20289 0.0
C486 C 0.44335 0.97036 0.20955 0.0
C487 C 0.45289 0.90897 0.18281 0.0
C488 C 0.46346 0.9579 0.22489 0.0
C489 C 0.49342 0.98314 0.2355 0.0
C490 C 0.5039 1.0213 0.23092 0.0
C491 C 0.48422 1.03359 0.21527 0.0
C492 C 0.45395 1.00834 0.20477 0.0
H493 H 0.45152 0.88964 0.16991 0.0
H494 H 0.47343 0.93633 0.17975 0.0
H495 H 0.46438 0.89712 0.19585 0.0
H496 H 0.45537 0.92877 0.22894 0.0
H497 H 0.50824 0.97286 0.2474 0.0
H498 H 0.48243 0.18242 0.54361 0.0
H499 H 0.48358 0.24871 0.54593 0.0
H500 H 0.58886 0.27771 0.51395 0.0
H501 H 0.58787 0.21151 0.51149 0.0
H502 H 0.53902 0.30877 0.56357 0.0
H503 H 0.52344 0.33424 0.48353 0.0
H504 H 0.51368 0.28771 0.49327 0.0
H505 H 0.5625 0.31463 0.48996 0.0
C506 C 0.50578 0.20278 0.53694 0.0
C507 C 0.53496 0.19118 0.52727 0.0
C508 C 0.50641 0.24088 0.53831 0.0
C509 C 0.53596 0.26861 0.52986 0.0
C510 C 0.56521 0.25713 0.52025 0.0
H511 H 0.58937 0.5158 0.52835 0.0
H512 H 0.587 0.44971 0.52157 0.0
C513 C 0.56472 0.21905 0.51897 0.0
C514 C 0.53681 0.30942 0.53176 0.0
H515 H 0.53616 0.38737 0.50518 0.0
C516 C 0.53821 0.32582 0.55077 0.0
C517 C 0.53619 0.3322 0.51514 0.0
C518 C 0.53354 0.31634 0.4943 0.0
C519 C 0.53944 0.36395 0.55362 0.0
C520 C 0.53806 0.38665 0.53702 0.0
C521 C 0.53705 0.37034 0.51798 0.0
C522 C 0.53725 0.42703 0.53925 0.0
C523 C 0.54334 0.37973 0.57453 0.0
C524 C 0.50914 0.43682 0.55064 0.0
C525 C 0.51055 0.47449 0.55451 0.0
C526 C 0.53962 0.50371 0.54679 0.0
C527 C 0.5663 0.49407 0.53431 0.0
C528 C 0.5651 0.45618 0.53057 0.0
H529 H 0.55615 0.36287 0.58478 0.0
H530 H 0.56153 0.40909 0.57532 0.0
H531 H 0.51435 0.37917 0.57987 0.0
H532 H 0.48655 0.41525 0.55704 0.0
H533 H 0.48959 0.48087 0.56421 0.0
H534 H 0.44145 0.55684 0.81027 0.0
H535 H 0.37356 0.5557 0.81316 0.0
H536 H 0.40599 0.65145 0.85305 0.0
H537 H 0.47392 0.65345 0.85 0.0
H538 H 0.33124 0.54766 0.84797 0.0
H539 H 0.33365 0.68252 0.81294 0.0
H540 H 0.36935 0.65746 0.80837 0.0
H541 H 0.37214 0.6848 0.83076 0.0
C542 C 0.43426 0.57795 0.81952 0.0
C543 C 0.46333 0.60537 0.82984 0.0
C544 C 0.39539 0.57722 0.82114 0.0
C545 C 0.38479 0.604 0.83299 0.0
C546 C 0.41364 0.63124 0.84336 0.0
H547 H 0.18814 0.64651 0.88522 0.0
H548 H 0.2508 0.64732 0.87191 0.0
C549 C 0.45248 0.6321 0.84173 0.0
C550 C 0.34353 0.60242 0.83549 0.0
H551 H 0.27891 0.65488 0.83183 0.0
C552 C 0.31958 0.57082 0.84416 0.0
C553 C 0.32833 0.63262 0.83043 0.0
C554 C 0.35199 0.66618 0.81993 0.0
C555 C 0.28143 0.56938 0.8488 0.0
C556 C 0.26672 0.60021 0.84444 0.0
C557 C 0.29027 0.63132 0.83519 0.0
C558 C 0.22805 0.60177 0.85081 0.0
C559 C 0.25767 0.53562 0.85915 0.0
C560 C 0.19428 0.57665 0.84291 0.0
C561 C 0.15832 0.57619 0.85049 0.0
C562 C 0.15564 0.60072 0.86614 0.0
C563 C 0.18936 0.62696 0.87333 0.0
C564 C 0.22515 0.62756 0.86569 0.0
H565 H 0.27533 0.51708 0.8644 0.0
H566 H 0.24338 0.5444 0.87203 0.0
H567 H 0.23482 0.51915 0.84874 0.0
H568 H 0.19586 0.55683 0.83124 0.0
H569 H 0.13287 0.5556 0.8447 0.0
H570 H 0.87063 0.38441 0.21388 0.0
H571 H 0.81319 0.33503 0.22177 0.0
H572 H 0.81377 0.28339 0.16418 0.0
H573 H 0.8716 0.33246 0.15629 0.0
H574 H 0.74092 0.31127 0.2047 0.0
H575 H 0.81526 0.19829 0.20077 0.0
H576 H 0.84097 0.24721 0.2007 0.0
H577 H 0.81682 0.22418 0.17846 0.0
C578 C 0.85828 0.36276 0.20281 0.0
C579 C 0.8758 0.36212 0.18453 0.0
C580 C 0.82552 0.3345 0.20736 0.0
C581 C 0.80962 0.30513 0.19371 0.0
C582 C 0.82613 0.30524 0.17513 0.0
H583 H 0.58631 0.1433 0.21303 0.0
H584 H 0.63792 0.19166 0.19856 0.0
C585 C 0.85909 0.33333 0.17063 0.0
C586 C 0.77637 0.27404 0.19922 0.0
H587 H 0.74857 0.17985 0.20649 0.0
C588 C 0.74248 0.28249 0.20502 0.0
C589 C 0.77868 0.23658 0.19984 0.0
C590 C 0.81497 0.22594 0.19479 0.0
C591 C 0.71096 0.25458 0.21163 0.0
C592 C 0.71313 0.21707 0.21203 0.0
C593 C 0.74685 0.20857 0.206 0.0
C594 C 0.68191 0.18661 0.21997 0.0
C595 C 0.67625 0.26577 0.21882 0.0
C596 C 0.68981 0.16672 0.23632 0.0
C597 C 0.66063 0.1387 0.24438 0.0
C598 C 0.62279 0.12995 0.2363 0.0
C599 C 0.61513 0.14925 0.21958 0.0
C600 C 0.64449 0.17723 0.21144 0.0
H601 H 0.68285 0.29636 0.22197 0.0
H602 H 0.65291 0.25837 0.20722 0.0
H603 H 0.66535 0.25075 0.23245 0.0
H604 H 0.71856 0.17325 0.24303 0.0
H605 H 0.66776 0.12387 0.25698 0.0
H606 H 0.10134 0.5223 0.09219 0.0
H607 H 0.10641 0.53165 0.05652 0.0
H608 H 0.0382 0.61082 0.06013 0.0
H609 H 0.0336 0.60205 0.09596 0.0
H610 H 0.04701 0.51795 0.02852 0.0
H611 H 0.13009 0.66751 0.02891 0.0
H612 H 0.12568 0.63948 0.05075 0.0
H613 H 0.08682 0.65821 0.04273 0.0
C614 C 0.08765 0.54189 0.0854 0.0
C615 C 0.06707 0.56145 0.09681 0.0
C616 C 0.09056 0.54719 0.06503 0.0
C617 C 0.07309 0.57225 0.05571 0.0
C618 C 0.05257 0.59192 0.06709 0.0
H619 H 0.04627 0.62642 0.93245 0.0
H620 H 0.04362 0.62177 0.96852 0.0
C621 C 0.04974 0.58671 0.08751 0.0
C622 C 0.07505 0.5764 0.03395 0.0
H623 H 0.10577 0.63958 0.99768 0.0
C624 C 0.06001 0.54451 0.02177 0.0
C625 C 0.09191 0.61112 0.0252 0.0
C626 C 0.10987 0.646 0.03754 0.0
C627 C 0.06101 0.54644 0.00107 0.0
C628 C 0.078 0.58109 0.99233 0.0
C629 C 0.09281 0.61306 0.00446 0.0
C630 C 0.08059 0.58461 0.97059 0.0
C631 C 0.04327 0.51153 0.9887 0.0
C632 C 0.10277 0.56571 0.95988 0.0
C633 C 0.10425 0.56821 0.93929 0.0
C634 C 0.0836 0.5897 0.92904 0.0
C635 C 0.06203 0.6092 0.93989 0.0
C636 C 0.06067 0.60678 0.96049 0.0
H637 H 1.0236 0.48965 0.99737 0.0
H638 H 1.02691 0.51795 0.97567 0.0
H639 H 0.06649 0.49988 0.9832 0.0
H640 H 0.11878 0.54887 0.96746 0.0
H641 H 0.12092 0.5527 0.93135 0.0
H642 H 0.56857 1.04308 0.46738 0.0
H643 H 0.58018 1.04306 0.43176 0.0
H644 H 0.49417 0.10277 0.42155 0.0
H645 H 0.48215 0.10249 0.45697 0.0
H646 H 0.48478 1.04016 0.39681 0.0
H647 H 0.63542 0.13011 0.3972 0.0
H648 H 0.6273 0.09097 0.41338 0.0
H649 H 0.60484 0.12787 0.41813 0.0
C650 C 0.55241 0.05645 0.45752 0.0
C651 C 0.5244 0.07271 0.46489 0.0
C652 C 0.55919 0.05658 0.43722 0.0
C653 C 0.53826 0.07321 0.42405 0.0
C654 C 0.51065 0.08984 0.43147 0.0
H655 H 0.57133 0.13233 0.30166 0.0
H656 H 0.5671 0.13086 0.33771 0.0
C657 C 0.50385 0.08968 0.4517 0.0
C658 C 0.54364 0.07194 0.40242 0.0
H659 H 0.60885 0.10188 0.36646 0.0
C660 C 0.51192 0.05358 0.39016 0.0
C661 C 0.579 0.08975 0.39382 0.0
C662 C 0.61356 0.11109 0.40625 0.0
C663 C 0.51453 0.05261 0.3695 0.0
C664 C 0.55002 0.06997 0.3609 0.0
C665 C 0.58178 0.08834 0.37314 0.0
C666 C 0.55423 0.07059 0.33915 0.0
C667 C 0.47898 1.03389 0.35703 0.0
C668 C 0.54897 1.0372 0.32806 0.0
C669 C 0.55142 1.03793 0.30745 0.0
C670 C 0.55946 0.07213 0.29758 0.0
C671 C 0.56549 0.10557 0.30882 0.0
C672 C 0.56297 0.10479 0.32941 0.0
H673 H 0.45228 1.02971 0.36555 0.0
H674 H 0.47645 0.05065 0.34385 0.0
H675 H 0.48105 1.00602 0.35178 0.0
H676 H 0.54291 1.01055 0.33534 0.0
H677 H 0.54728 1.01176 0.29925 0.0
H678 H 0.64385 0.68791 0.76855 0.0
H679 H 0.63859 0.67935 0.73235 0.0
H680 H 0.55962 0.57022 0.73865 0.0
H681 H 0.56344 0.57941 0.77456 0.0
H682 H 0.65364 0.63014 0.70659 0.0
H683 H 0.49709 0.61725 0.70272 0.0
H684 H 0.52597 0.63176 0.7251 0.0
H685 H 0.50835 0.58282 0.71835 0.0
C686 C 0.62547 0.66212 0.76215 0.0
C687 C 0.60367 0.63451 0.7743 0.0
C688 C 0.62248 0.65722 0.7415 0.0
C689 C 0.59789 0.62454 0.73273 0.0
C690 C 0.57775 0.59619 0.74499 0.0
H691 H 0.59961 0.55107 0.60945 0.0
H692 H 0.60957 0.56064 0.64524 0.0
C693 C 0.58022 0.60133 0.76553 0.0
C694 C 0.59275 0.62014 0.71083 0.0
H695 H 0.52411 0.59978 0.67348 0.0
C696 C 0.62535 0.62375 0.69932 0.0
C697 C 0.5559 0.61249 0.70128 0.0
C698 C 0.51991 0.61126 0.71249 0.0
C699 C 0.62204 0.61918 0.67859 0.0
C700 C 0.58498 0.6096 0.66915 0.0
C701 C 0.5525 0.60663 0.68067 0.0
C702 C 0.57902 0.60341 0.64734 0.0
C703 C 0.65839 0.62558 0.66703 0.0
C704 C 0.55715 0.62305 0.63662 0.0
C705 C 0.5503 0.61675 0.61625 0.0
C706 C 0.56549 0.59088 0.60599 0.0
C707 C 0.5872 0.57102 0.6168 0.0
C708 C 0.59355 0.57696 0.63727 0.0
H709 H 0.68356 0.64376 0.67547 0.0
H710 H 0.66461 0.59831 0.66408 0.0
H711 H 0.65535 0.63868 0.65264 0.0
H712 H 0.54525 0.64333 0.64404 0.0
H713 H 0.53265 0.63194 0.60862 0.0
H714 H 0.57029 1.01493 0.5828 0.0
H715 H 0.53187 0.98551 0.61057 0.0
H716 H 0.45763 0.05841 0.60272 0.0
H717 H 0.49563 0.08768 0.57499 0.0
H718 H 0.51646 1.01875 0.6457 0.0
H719 H 0.38123 0.9543 0.60261 0.0
H720 H 0.42706 0.97159 0.5911 0.0
H721 H 0.39993 1.00344 0.59854 0.0
C722 C 0.54591 1.02478 0.58711 0.0
C723 C 0.53581 0.05346 0.57674 0.0
C724 C 0.52389 1.00784 0.60286 0.0
C725 C 0.49139 1.01919 0.60836 0.0
C726 C 0.48198 0.04856 0.59837 0.0
H727 H 0.33596 0.99918 0.70153 0.0
H728 H 0.36753 1.00566 0.66971 0.0
C729 C 0.50395 0.0655 0.58267 0.0
C730 C 0.46811 1.00158 0.6251 0.0
H731 H 0.37613 0.95814 0.63788 0.0
C732 C 0.48592 1.00492 0.64399 0.0
C733 C 0.42827 0.98357 0.62274 0.0
C734 C 0.40803 0.97764 0.60263 0.0
C735 C 0.46458 0.99249 0.66079 0.0
C736 C 0.42446 0.9755 0.65854 0.0
C737 C 0.40688 0.97103 0.63954 0.0
C738 C 0.40001 0.96562 0.67596 0.0
C739 C 0.48481 0.99946 0.68091 0.0
C740 C 0.40619 0.93942 0.68954 0.0
C741 C 0.38833 0.93581 0.70779 0.0
C742 C 0.36389 0.95826 0.71266 0.0
C743 C 0.35502 0.98186 0.69826 0.0
C744 C 0.37295 0.98552 0.68007 0.0
H745 H 0.51392 1.01935 0.68033 0.0
H746 H 0.46764 1.01082 0.69157 0.0
H747 H 0.48823 0.97265 0.68665 0.0
H748 H 0.42646 0.92329 0.68647 0.0
H749 H 0.3959 0.91752 0.71861 0.0
H750 H 0.58638 0.62467 0.88423 0.0
H751 H 0.58215 0.62654 0.92034 0.0
H752 H 0.55141 0.50591 0.9206 0.0
H753 H 0.55542 0.50402 0.88449 0.0
H754 H 0.50386 0.53902 0.94373 0.0
H755 H 0.65988 0.60209 0.96066 0.0
H756 H 0.63798 0.62709 0.94333 0.0
H757 H 0.64182 0.58115 0.93679 0.0
C758 C 0.57904 0.59867 0.89202 0.0
C759 C 0.57158 0.56429 0.88162 0.0
C760 C 0.57667 0.59972 0.91262 0.0
C761 C 0.56693 0.56635 0.92313 0.0
C762 C 0.55911 0.53196 0.91275 0.0
H763 H 0.59349 0.53147 0.04804 0.0
H764 H 0.59488 0.53127 0.01189 0.0
C765 C 0.56151 0.53093 0.89216 0.0
C766 C 0.56448 0.56716 0.94496 0.0
H767 H 0.61825 0.59424 0.98765 0.0
C768 C 0.52881 0.55111 0.95337 0.0
C769 C 0.59721 0.58266 0.95743 0.0
C770 C 0.6365 0.59897 0.94917 0.0
C771 C 0.52496 0.55031 0.97398 0.0
C772 C 0.55757 0.56632 0.98644 0.0
C773 C 0.59326 0.58222 0.97803 0.0
C774 C 0.55563 0.56592 0.00829 0.0
C775 C 0.48626 0.53165 0.98228 0.0
C776 C 0.53315 0.58557 0.01823 0.0
C777 C 0.53244 0.5859 0.03891 0.0
C778 C 0.55439 0.56675 0.05001 0.0
C779 C 0.57667 0.54691 0.03995 0.0
C780 C 0.57737 0.54663 0.0193 0.0
H781 H 0.46652 0.5136 0.971 0.0
H782 H 0.48955 0.51436 0.99514 0.0
H783 H 0.47262 0.55344 0.98747 0.0
H784 H 0.51669 0.60118 0.01 0.0
H785 H 0.51545 0.60188 0.04623 0.0
H786 H 1.02608 0.636 0.21681 0.0
H787 H 1.02356 0.62609 0.25255 0.0
H788 H 0.0938 0.54915 0.24693 0.0
H789 H 0.09639 0.55886 0.21109 0.0
H790 H 0.99748 0.55448 0.27313 0.0
H791 H 0.15086 0.6313 0.28943 0.0
H792 H 0.12562 0.63731 0.26679 0.0
H793 H 0.14157 0.5959 0.27004 0.0
C794 C 0.04094 0.61693 0.22319 0.0
C795 C 0.06167 0.5984 0.21124 0.0
C796 C 0.0394 0.61125 0.24357 0.0
C797 C 0.05879 0.58719 0.25234 0.0
C798 C 0.07901 0.56815 0.24042 0.0
H799 H 0.03896 0.51207 0.3746 0.0
H800 H 0.0415 0.51413 0.33844 0.0
C801 C 0.08039 0.57365 0.21999 0.0
C802 C 0.0581 0.58251 0.27404 0.0
H803 H 0.11416 0.60412 0.31639 0.0
C804 C 1.02299 0.56508 0.28261 0.0
C805 C 0.09141 0.59674 0.2863 0.0
C806 C 0.12954 0.61662 0.27779 0.0
C807 C 1.0203 0.56155 0.30322 0.0
C808 C 0.05363 0.57573 0.31547 0.0
C809 C 0.08876 0.5931 0.30689 0.0
C810 C 0.05224 0.57425 0.33731 0.0
C811 C 0.98171 0.54357 0.31181 0.0
C812 C 0.0579 0.60743 0.34859 0.0
C813 C 0.05614 0.60636 0.3692 0.0
C814 C 0.04905 0.57207 0.37897 0.0
C815 C 0.04385 0.53888 0.36757 0.0
C816 C 0.04542 0.53998 0.34692 0.0
H817 H 0.95769 0.5398 0.30064 0.0
H818 H 0.98174 0.51566 0.31744 0.0
H819 H 0.97625 0.56073 0.32446 0.0
H820 H 0.06315 0.63414 0.34141 0.0
H821 H 0.0597 0.63239 0.37746 0.0
loop_
_geom_bond_atom_site_label_1
_geom_bond_atom_site_label_2
_geom_bond_distance
_geom_bond_site_symmetry_2
_ccdc_geom_bond_type
Pr0 C2 2.880 . S
Pr0 O20 2.562 . S
Pr0 O21 2.490 . S
Pr0 O22 2.695 1_655 S
Pr0 O23 2.512 . S
Pr0 O25 2.437 . S
Pr0 O28 2.436 . S
Pr0 O30 2.438 1_655 S
Pr1 C11 2.880 . S
Pr1 O22 2.436 . S
Pr1 O24 2.438 1_455 S
Pr1 O26 2.562 . S
Pr1 O27 2.490 . S
Pr1 O28 2.695 1_455 S
Pr1 O29 2.512 . S
Pr1 O31 2.437 . S
C2 Pr0 2.880 . S
C2 C3 1.491 . S
C2 O20 1.254 . S
C2 O21 1.225 . S
C3 C2 1.491 . S
C3 C4 1.392 . S
C3 C8 1.356 . S
C4 C3 1.392 . S
C4 C5 1.368 . S
C4 H32 0.929 . S
C5 C4 1.368 . S
C5 C6 1.386 . S
C5 H33 0.929 . S
C6 C5 1.386 . S
C6 C7 1.373 . S
C7 C6 1.373 . S
C7 C8 1.409 . S
C7 H34 0.931 . S
C8 C3 1.356 . S
C8 C7 1.409 . S
C8 H35 0.930 . S
C9 O22 1.270 . S
C9 O23 1.248 1_455 S
C10 O24 1.267 . S
C10 O25 1.278 . S
C11 Pr1 2.880 . S
C11 C12 1.491 . S
C11 O26 1.254 . S
C11 O27 1.225 . S
C12 C11 1.491 . S
C12 C13 1.392 . S
C12 C17 1.356 . S
C13 C12 1.392 . S
C13 C14 1.368 . S
C13 H36 0.929 . S
C14 C13 1.368 . S
C14 C15 1.386 . S
C14 H37 0.929 . S
C15 C14 1.386 . S
C15 C16 1.373 . S
C16 C15 1.373 . S
C16 C17 1.409 . S
C16 H38 0.931 . S
C17 C12 1.356 . S
C17 C16 1.409 . S
C17 H39 0.930 . S
C18 O28 1.270 1_455 S
C18 O29 1.248 . S
C19 O30 1.267 . S
C19 O31 1.278 . S
O20 Pr0 2.562 . S
O20 C2 1.254 . S
O21 Pr0 2.490 . S
O21 C2 1.225 . S
O22 Pr0 2.695 1_455 S
O22 Pr1 2.436 . S
O22 C9 1.270 . S
O23 Pr0 2.512 . S
O23 C9 1.248 1_655 S
O24 Pr1 2.438 1_655 S
O24 C10 1.267 . S
O25 Pr0 2.437 . S
O25 C10 1.278 . S
O26 Pr1 2.562 . S
O26 C11 1.254 . S
O27 Pr1 2.490 . S
O27 C11 1.225 . S
O28 Pr0 2.436 . S
O28 Pr1 2.695 1_655 S
O28 C18 1.270 1_655 S
O29 Pr1 2.512 . S
O29 C18 1.248 . S
O30 Pr0 2.438 1_455 S
O30 C19 1.267 . S
O31 Pr1 2.437 . S
O31 C19 1.278 . S
H32 C4 0.929 . S
H33 C5 0.929 . S
H34 C7 0.931 . S
H35 C8 0.930 . S
H36 C13 0.929 . S
H37 C14 0.929 . S
H38 C16 0.931 . S
H39 C17 0.930 . S
Pr40 C42 2.880 . S
Pr40 O60 2.562 . S
Pr40 O61 2.490 . S
Pr40 O62 2.695 . S
Pr40 O63 2.512 . S
Pr40 O65 2.437 . S
Pr40 O68 2.436 . S
Pr40 O70 2.438 1_545 S
Pr41 C51 2.880 . S
Pr41 O62 2.436 1_565 S
Pr41 O64 2.438 1_565 S
Pr41 O66 2.562 . S
Pr41 O67 2.490 . S
Pr41 O68 2.695 1_565 S
Pr41 O69 2.512 . S
Pr41 O71 2.437 . S
C42 Pr40 2.880 . S
C42 C43 1.491 . S
C42 O60 1.254 . S
C42 O61 1.225 . S
C43 C42 1.491 . S
C43 C44 1.392 . S
C43 C48 1.356 . S
C44 C43 1.392 . S
C44 C45 1.368 . S
C44 H72 0.929 . S
C45 C44 1.368 . S
C45 C46 1.386 . S
C45 H73 0.929 . S
C46 C45 1.386 . S
C46 C47 1.373 . S
C47 C46 1.373 . S
C47 C48 1.409 . S
C47 H74 0.931 . S
C48 C43 1.356 . S
C48 C47 1.409 . S
C48 H75 0.930 . S
C49 O62 1.270 . S
C49 O63 1.248 . S
C50 O64 1.267 . S
C50 O65 1.278 . S
C51 Pr41 2.880 . S
C51 C52 1.491 . S
C51 O66 1.254 . S
C51 O67 1.225 . S
C52 C51 1.491 . S
C52 C53 1.392 . S
C52 C57 1.356 . S
C53 C52 1.392 . S
C53 C54 1.368 . S
C53 H76 0.929 . S
C54 C53 1.368 . S
C54 C55 1.386 . S
C54 H77 0.929 . S
C55 C54 1.386 . S
C55 C56 1.373 . S
C56 C55 1.373 . S
C56 C57 1.409 . S
C56 H78 0.931 . S
C57 C52 1.356 . S
C57 C56 1.409 . S
C57 H79 0.930 . S
C58 O68 1.270 . S
C58 O69 1.248 1_545 S
C59 O70 1.267 . S
C59 O71 1.278 . S
O60 Pr40 2.562 . S
O60 C42 1.254 . S
O61 Pr40 2.490 . S
O61 C42 1.225 . S
O62 Pr40 2.695 . S
O62 Pr41 2.436 1_545 S
O62 C49 1.270 . S
O63 Pr40 2.512 . S
O63 C49 1.248 . S
O64 Pr41 2.438 1_545 S
O64 C50 1.267 . S
O65 Pr40 2.437 . S
O65 C50 1.278 . S
O66 Pr41 2.562 . S
O66 C51 1.254 . S
O67 Pr41 2.490 . S
O67 C51 1.225 . S
O68 Pr40 2.436 . S
O68 Pr41 2.695 1_545 S
O68 C58 1.270 . S
O69 Pr41 2.512 . S
O69 C58 1.248 1_565 S
O70 Pr40 2.438 1_565 S
O70 C59 1.267 . S
O71 Pr41 2.437 . S
O71 C59 1.278 . S
H72 C44 0.929 . S
H73 C45 0.929 . S
H74 C47 0.931 . S
H75 C48 0.930 . S
H76 C53 0.929 . S
H77 C54 0.929 . S
H78 C56 0.931 . S
H79 C57 0.930 . S
Pr80 C82 2.880 . S
Pr80 O100 2.562 . S
Pr80 O101 2.490 . S
Pr80 O102 2.695 . S
Pr80 O103 2.512 . S
Pr80 O105 2.437 . S
Pr80 O108 2.436 . S
Pr80 O110 2.438 . S
Pr81 C91 2.880 . S
Pr81 O102 2.436 . S
Pr81 O104 2.438 . S
Pr81 O106 2.562 . S
Pr81 O107 2.490 . S
Pr81 O108 2.695 . S
Pr81 O109 2.512 . S
Pr81 O111 2.437 . S
C82 Pr80 2.880 . S
C82 C83 1.491 . S
C82 O100 1.254 . S
C82 O101 1.225 . S
C83 C82 1.491 . S
C83 C84 1.392 . S
C83 C88 1.356 . S
C84 C83 1.392 . S
C84 C85 1.368 . S
C84 H112 0.929 . S
C85 C84 1.368 . S
C85 C86 1.386 . S
C85 H113 0.929 . S
C86 C85 1.386 . S
C86 C87 1.373 . S
C87 C86 1.373 . S
C87 C88 1.409 . S
C87 H114 0.931 . S
C88 C83 1.356 . S
C88 C87 1.409 . S
C88 H115 0.930 . S
C89 O102 1.270 . S
C89 O103 1.248 . S
C90 O104 1.267 . S
C90 O105 1.278 . S
C91 Pr81 2.880 . S
C91 C92 1.491 . S
C91 O106 1.254 . S
C91 O107 1.225 . S
C92 C91 1.491 . S
C92 C93 1.392 . S
C92 C97 1.356 . S
C93 C92 1.392 . S
C93 C94 1.368 . S
C93 H116 0.929 . S
C94 C93 1.368 . S
C94 C95 1.386 . S
C94 H117 0.929 . S
C95 C94 1.386 . S
C95 C96 1.373 . S
C96 C95 1.373 . S
C96 C97 1.409 . S
C96 H118 0.931 . S
C97 C92 1.356 . S
C97 C96 1.409 . S
C97 H119 0.930 . S
C98 O108 1.270 . S
C98 O109 1.248 . S
C99 O110 1.267 . S
C99 O111 1.278 . S
O100 Pr80 2.562 . S
O100 C82 1.254 . S
O101 Pr80 2.490 . S
O101 C82 1.225 . S
O102 Pr80 2.695 . S
O102 Pr81 2.436 . S
O102 C89 1.270 . S
O103 Pr80 2.512 . S
O103 C89 1.248 . S
O104 Pr81 2.438 . S
O104 C90 1.267 . S
O105 Pr80 2.437 . S
O105 C90 1.278 . S
O106 Pr81 2.562 . S
O106 C91 1.254 . S
O107 Pr81 2.490 . S
O107 C91 1.225 . S
O108 Pr80 2.436 . S
O108 Pr81 2.695 . S
O108 C98 1.270 . S
O109 Pr81 2.512 . S
O109 C98 1.248 . S
O110 Pr80 2.438 . S
O110 C99 1.267 . S
O111 Pr81 2.437 . S
O111 C99 1.278 . S
H112 C84 0.929 . S
H113 C85 0.929 . S
H114 C87 0.931 . S
H115 C88 0.930 . S
H116 C93 0.929 . S
H117 C94 0.929 . S
H118 C96 0.931 . S
H119 C97 0.930 . S
H120 C123 0.931 1_565 S
H121 C126 0.928 . S
H122 C128 0.930 . S
C123 H120 0.931 1_545 S
C123 C124 1.413 . S
C123 C125 1.360 . S
C124 C123 1.413 . S
C124 C128 1.429 . S
C125 C123 1.360 . S
C125 C126 1.372 . S
C126 H121 0.928 . S
C126 C125 1.372 . S
C126 C127 1.404 . S
C127 C126 1.404 . S
C127 C128 1.391 . S
C128 H122 0.930 . S
C128 C124 1.429 . S
C128 C127 1.391 . S
H129 C132 0.931 . S
H130 C135 0.928 . S
H131 C137 0.930 . S
C132 H129 0.931 . S
C132 C133 1.413 . S
C132 C134 1.360 . S
C133 C132 1.413 . S
C133 C137 1.429 . S
C134 C132 1.360 . S
C134 C135 1.372 . S
C135 H130 0.928 . S
C135 C134 1.372 . S
C135 C136 1.404 . S
C136 C135 1.404 . S
C136 C137 1.391 . S
C137 H131 0.930 . S
C137 C133 1.429 . S
C137 C136 1.391 . S
H138 C141 0.931 . S
H139 C144 0.928 . S
H140 C146 0.930 . S
C141 H138 0.931 . S
C141 C142 1.413 . S
C141 C143 1.360 1_655 S
C142 C141 1.413 . S
C142 C146 1.429 1_655 S
C143 C141 1.360 1_455 S
C143 C144 1.372 . S
C144 H139 0.928 . S
C144 C143 1.372 . S
C144 C145 1.404 . S
C145 C144 1.404 . S
C145 C146 1.391 . S
C146 H140 0.930 . S
C146 C142 1.429 1_455 S
C146 C145 1.391 . S
H147 C150 0.931 . S
H148 C153 0.928 . S
H149 C155 0.930 . S
C150 H147 0.931 . S
C150 C151 1.413 . S
C150 C152 1.360 1_655 S
C151 C150 1.413 . S
C151 C155 1.429 1_655 S
C152 C150 1.360 1_455 S
C152 C153 1.372 . S
C153 H148 0.928 . S
C153 C152 1.372 . S
C153 C154 1.404 . S
C154 C153 1.404 . S
C154 C155 1.391 . S
C155 H149 0.930 . S
C155 C151 1.429 1_455 S
C155 C154 1.391 . S
H156 C159 0.931 . S
H157 C162 0.928 . S
H158 C164 0.930 . S
C159 H156 0.931 . S
C159 C160 1.413 . S
C159 C161 1.360 . S
C160 C159 1.413 . S
C160 C164 1.429 . S
C161 C159 1.360 . S
C161 C162 1.372 1_545 S
C162 H157 0.928 . S
C162 C161 1.372 1_565 S
C162 C163 1.404 . S
C163 C162 1.404 . S
C163 C164 1.391 1_565 S
C164 H158 0.930 . S
C164 C160 1.429 . S
C164 C163 1.391 1_545 S
H165 C168 0.931 . S
H166 C171 0.928 . S
H167 C173 0.930 . S
C168 H165 0.931 . S
C168 C169 1.413 . S
C168 C170 1.360 . S
C169 C168 1.413 . S
C169 C173 1.429 . S
C170 C168 1.360 . S
C170 C171 1.372 . S
C171 H166 0.928 . S
C171 C170 1.372 . S
C171 C172 1.404 . S
C172 C171 1.404 . S
C172 C173 1.391 . S
C173 H167 0.930 . S
C173 C169 1.429 . S
C173 C172 1.391 . S
H174 C182 0.929 . S
H175 C184 0.930 . S
H176 C186 0.930 . S
H177 C189 0.929 . S
H178 C192 0.930 . S
H179 C194 0.960 . S
H180 C194 0.960 . S
H181 C194 0.960 . S
C182 H174 0.929 . S
C182 C183 1.377 . S
C182 C184 1.384 . S
C183 C182 1.377 . S
C183 C189 1.390 . S
C184 H175 0.930 . S
C184 C182 1.384 . S
C184 C185 1.372 . S
C185 C184 1.372 . S
C185 C186 1.400 . S
C185 C190 1.490 . S
C186 H176 0.930 . S
C186 C185 1.400 . S
C186 C189 1.386 . S
H187 C203 0.930 . S
H188 C204 0.931 . S
C189 H177 0.929 . S
C189 C183 1.390 . S
C189 C186 1.386 . S
C190 C185 1.490 . S
C190 C192 1.395 . S
C190 C193 1.403 . S
H191 C197 0.930 . S
C192 H178 0.930 . S
C192 C190 1.395 . S
C192 C195 1.403 . S
C193 C190 1.403 . S
C193 C194 1.524 . S
C193 C197 1.400 . S
C194 H179 0.960 . S
C194 H180 0.960 . S
C194 H181 0.960 . S
C194 C193 1.524 . S
C195 C192 1.403 . S
C195 C196 1.392 . S
C195 C199 1.495 . S
C196 C195 1.392 . S
C196 C197 1.385 . S
C196 C198 1.478 . S
C197 H191 0.930 . S
C197 C193 1.400 . S
C197 C196 1.385 . S
C198 C196 1.478 . S
C198 C200 1.381 . S
C198 C204 1.383 . S
C199 C195 1.495 . S
C199 H205 0.959 . S
C199 H206 0.961 . S
C199 H207 0.960 . S
C200 C198 1.381 . S
C200 C201 1.394 . S
C200 H208 0.930 . S
C201 C200 1.394 . S
C201 C202 1.383 . S
C201 H209 0.929 . S
C202 C201 1.383 . S
C202 C203 1.377 . S
C203 H187 0.930 . S
C203 C202 1.377 . S
C203 C204 1.379 . S
C204 H188 0.931 . S
C204 C198 1.383 . S
C204 C203 1.379 . S
H205 C199 0.959 . S
H206 C199 0.961 . S
H207 C199 0.960 . S
H208 C200 0.930 . S
H209 C201 0.929 . S
H210 C218 0.929 . S
H211 C220 0.930 . S
H212 C222 0.930 . S
H213 C225 0.929 . S
H214 C228 0.930 . S
H215 C230 0.960 . S
H216 C230 0.960 . S
H217 C230 0.960 . S
C218 H210 0.929 . S
C218 C219 1.377 . S
C218 C220 1.384 . S
C219 C218 1.377 . S
C219 C225 1.390 . S
C220 H211 0.930 . S
C220 C218 1.384 . S
C220 C221 1.372 . S
C221 C220 1.372 . S
C221 C222 1.400 . S
C221 C226 1.490 . S
C222 H212 0.930 . S
C222 C221 1.400 . S
C222 C225 1.386 . S
H223 C239 0.930 . S
H224 C240 0.931 . S
C225 H213 0.929 . S
C225 C219 1.390 . S
C225 C222 1.386 . S
C226 C221 1.490 . S
C226 C228 1.395 . S
C226 C229 1.403 . S
H227 C233 0.930 . S
C228 H214 0.930 . S
C228 C226 1.395 . S
C228 C231 1.403 . S
C229 C226 1.403 . S
C229 C230 1.524 . S
C229 C233 1.400 . S
C230 H215 0.960 . S
C230 H216 0.960 . S
C230 H217 0.960 . S
C230 C229 1.524 . S
C231 C228 1.403 . S
C231 C232 1.392 . S
C231 C235 1.495 . S
C232 C231 1.392 . S
C232 C233 1.385 . S
C232 C234 1.478 . S
C233 H227 0.930 . S
C233 C229 1.400 . S
C233 C232 1.385 . S
C234 C232 1.478 . S
C234 C236 1.381 . S
C234 C240 1.383 . S
C235 C231 1.495 . S
C235 H241 0.959 . S
C235 H242 0.961 . S
C235 H243 0.960 . S
C236 C234 1.381 . S
C236 C237 1.394 . S
C236 H244 0.930 . S
C237 C236 1.394 . S
C237 C238 1.383 . S
C237 H245 0.929 . S
C238 C237 1.383 . S
C238 C239 1.377 . S
C239 H223 0.930 . S
C239 C238 1.377 . S
C239 C240 1.379 . S
C240 H224 0.931 . S
C240 C234 1.383 . S
C240 C239 1.379 . S
H241 C235 0.959 . S
H242 C235 0.961 . S
H243 C235 0.960 . S
H244 C236 0.930 . S
H245 C237 0.929 . S
H246 C254 0.929 . S
H247 C256 0.930 . S
H248 C258 0.930 . S
H249 C261 0.929 . S
H250 C264 0.930 . S
H251 C266 0.960 . S
H252 C266 0.960 . S
H253 C266 0.960 . S
C254 H246 0.929 . S
C254 C255 1.377 . S
C254 C256 1.384 . S
C255 C254 1.377 . S
C255 C261 1.390 . S
C256 H247 0.930 . S
C256 C254 1.384 . S
C256 C257 1.372 . S
C257 C256 1.372 . S
C257 C258 1.400 . S
C257 C262 1.490 . S
C258 H248 0.930 . S
C258 C257 1.400 . S
C258 C261 1.386 . S
H259 C275 0.930 . S
H260 C276 0.931 . S
C261 H249 0.929 . S
C261 C255 1.390 . S
C261 C258 1.386 . S
C262 C257 1.490 . S
C262 C264 1.395 . S
C262 C265 1.403 . S
H263 C269 0.930 . S
C264 H250 0.930 . S
C264 C262 1.395 . S
C264 C267 1.403 . S
C265 C262 1.403 . S
C265 C266 1.524 . S
C265 C269 1.400 . S
C266 H251 0.960 . S
C266 H252 0.960 . S
C266 H253 0.960 . S
C266 C265 1.524 . S
C267 C264 1.403 . S
C267 C268 1.392 . S
C267 C271 1.495 . S
C268 C267 1.392 . S
C268 C269 1.385 . S
C268 C270 1.478 . S
C269 H263 0.930 . S
C269 C265 1.400 . S
C269 C268 1.385 . S
C270 C268 1.478 . S
C270 C272 1.381 . S
C270 C276 1.383 . S
C271 C267 1.495 . S
C271 H277 0.959 . S
C271 H278 0.961 . S
C271 H279 0.960 . S
C272 C270 1.381 . S
C272 C273 1.394 . S
C272 H280 0.930 . S
C273 C272 1.394 . S
C273 C274 1.383 . S
C273 H281 0.929 . S
C274 C273 1.383 . S
C274 C275 1.377 . S
C275 H259 0.930 . S
C275 C274 1.377 . S
C275 C276 1.379 . S
C276 H260 0.931 . S
C276 C270 1.383 . S
C276 C275 1.379 . S
H277 C271 0.959 . S
H278 C271 0.961 . S
H279 C271 0.960 . S
H280 C272 0.930 . S
H281 C273 0.929 . S
H282 C290 0.929 . S
H283 C292 0.930 . S
H284 C294 0.930 . S
H285 C297 0.929 . S
H286 C300 0.930 . S
H287 C302 0.960 . S
H288 C302 0.960 . S
H289 C302 0.960 . S
C290 H282 0.929 . S
C290 C291 1.377 . S
C290 C292 1.384 . S
C291 C290 1.377 . S
C291 C297 1.390 . S
C292 H283 0.930 . S
C292 C290 1.384 . S
C292 C293 1.372 . S
C293 C292 1.372 . S
C293 C294 1.400 . S
C293 C298 1.490 . S
C294 H284 0.930 . S
C294 C293 1.400 . S
C294 C297 1.386 . S
H295 C311 0.930 . S
H296 C312 0.931 . S
C297 H285 0.929 . S
C297 C291 1.390 . S
C297 C294 1.386 . S
C298 C293 1.490 . S
C298 C300 1.395 . S
C298 C301 1.403 . S
H299 C305 0.930 . S
C300 H286 0.930 . S
C300 C298 1.395 . S
C300 C303 1.403 . S
C301 C298 1.403 . S
C301 C302 1.524 . S
C301 C305 1.400 . S
C302 H287 0.960 . S
C302 H288 0.960 . S
C302 H289 0.960 . S
C302 C301 1.524 . S
C303 C300 1.403 . S
C303 C304 1.392 . S
C303 C307 1.495 . S
C304 C303 1.392 . S
C304 C305 1.385 . S
C304 C306 1.478 . S
C305 H299 0.930 . S
C305 C301 1.400 . S
C305 C304 1.385 . S
C306 C304 1.478 . S
C306 C308 1.381 . S
C306 C312 1.383 . S
C307 C303 1.495 . S
C307 H313 0.959 . S
C307 H314 0.961 . S
C307 H315 0.960 . S
C308 C306 1.381 . S
C308 C309 1.394 . S
C308 H316 0.930 . S
C309 C308 1.394 . S
C309 C310 1.383 . S
C309 H317 0.929 . S
C310 C309 1.383 . S
C310 C311 1.377 . S
C311 H295 0.930 . S
C311 C310 1.377 . S
C311 C312 1.379 . S
C312 H296 0.931 . S
C312 C306 1.383 . S
C312 C311 1.379 . S
H313 C307 0.959 . S
H314 C307 0.961 . S
H315 C307 0.960 . S
H316 C308 0.930 . S
H317 C309 0.929 . S
H318 C326 0.929 . S
H319 C328 0.930 . S
H320 C330 0.930 . S
H321 C333 0.929 . S
H322 C336 0.930 . S
H323 C338 0.960 . S
H324 C338 0.960 . S
H325 C338 0.960 . S
C326 H318 0.929 . S
C326 C327 1.377 . S
C326 C328 1.384 . S
C327 C326 1.377 . S
C327 C333 1.390 . S
C328 H319 0.930 . S
C328 C326 1.384 . S
C328 C329 1.372 . S
C329 C328 1.372 . S
C329 C330 1.400 . S
C329 C334 1.490 . S
C330 H320 0.930 . S
C330 C329 1.400 . S
C330 C333 1.386 . S
H331 C347 0.930 . S
H332 C348 0.931 . S
C333 H321 0.929 . S
C333 C327 1.390 . S
C333 C330 1.386 . S
C334 C329 1.490 . S
C334 C336 1.395 . S
C334 C337 1.403 . S
H335 C341 0.930 . S
C336 H322 0.930 . S
C336 C334 1.395 . S
C336 C339 1.403 . S
C337 C334 1.403 . S
C337 C338 1.524 . S
C337 C341 1.400 . S
C338 H323 0.960 . S
C338 H324 0.960 . S
C338 H325 0.960 . S
C338 C337 1.524 . S
C339 C336 1.403 . S
C339 C340 1.392 . S
C339 C343 1.495 . S
C340 C339 1.392 . S
C340 C341 1.385 . S
C340 C342 1.478 . S
C341 H335 0.930 . S
C341 C337 1.400 . S
C341 C340 1.385 . S
C342 C340 1.478 . S
C342 C344 1.381 . S
C342 C348 1.383 . S
C343 C339 1.495 . S
C343 H349 0.959 . S
C343 H350 0.961 . S
C343 H351 0.960 . S
C344 C342 1.381 . S
C344 C345 1.394 . S
C344 H352 0.930 . S
C345 C344 1.394 . S
C345 C346 1.383 . S
C345 H353 0.929 . S
C346 C345 1.383 . S
C346 C347 1.377 . S
C347 H331 0.930 . S
C347 C346 1.377 . S
C347 C348 1.379 . S
C348 H332 0.931 . S
C348 C342 1.383 . S
C348 C347 1.379 . S
H349 C343 0.959 . S
H350 C343 0.961 . S
H351 C343 0.960 . S
H352 C344 0.930 . S
H353 C345 0.929 . S
H354 C362 0.929 . S
H355 C364 0.930 . S
H356 C366 0.930 . S
H357 C369 0.929 . S
H358 C372 0.930 . S
H359 C374 0.960 . S
H360 C374 0.960 . S
H361 C374 0.960 . S
C362 H354 0.929 . S
C362 C363 1.377 . S
C362 C364 1.384 . S
C363 C362 1.377 . S
C363 C369 1.390 . S
C364 H355 0.930 . S
C364 C362 1.384 . S
C364 C365 1.372 . S
C365 C364 1.372 . S
C365 C366 1.400 . S
C365 C370 1.490 . S
C366 H356 0.930 . S
C366 C365 1.400 . S
C366 C369 1.386 . S
H367 C383 0.930 . S
H368 C384 0.931 . S
C369 H357 0.929 . S
C369 C363 1.390 . S
C369 C366 1.386 . S
C370 C365 1.490 . S
C370 C372 1.395 . S
C370 C373 1.403 . S
H371 C377 0.930 . S
C372 H358 0.930 . S
C372 C370 1.395 . S
C372 C375 1.403 . S
C373 C370 1.403 . S
C373 C374 1.524 . S
C373 C377 1.400 . S
C374 H359 0.960 . S
C374 H360 0.960 . S
C374 H361 0.960 . S
C374 C373 1.524 . S
C375 C372 1.403 . S
C375 C376 1.392 . S
C375 C379 1.495 . S
C376 C375 1.392 . S
C376 C377 1.385 . S
C376 C378 1.478 . S
C377 H371 0.930 . S
C377 C373 1.400 . S
C377 C376 1.385 . S
C378 C376 1.478 . S
C378 C380 1.381 . S
C378 C384 1.383 . S
C379 C375 1.495 . S
C379 H385 0.959 . S
C379 H386 0.961 . S
C379 H387 0.960 . S
C380 C378 1.381 . S
C380 C381 1.394 . S
C380 H388 0.930 . S
C381 C380 1.394 . S
C381 C382 1.383 . S
C381 H389 0.929 . S
C382 C381 1.383 . S
C382 C383 1.377 . S
C383 H367 0.930 . S
C383 C382 1.377 . S
C383 C384 1.379 . S
C384 H368 0.931 . S
C384 C378 1.383 . S
C384 C383 1.379 . S
H385 C379 0.959 . S
H386 C379 0.961 . S
H387 C379 0.960 . S
H388 C380 0.930 . S
H389 C381 0.929 . S
H390 C398 0.929 . S
H391 C400 0.930 . S
H392 C402 0.930 . S
H393 C405 0.929 . S
H394 C408 0.930 . S
H395 C410 0.960 . S
H396 C410 0.960 . S
H397 C410 0.960 . S
C398 H390 0.929 . S
C398 C399 1.377 . S
C398 C400 1.384 . S
C399 C398 1.377 . S
C399 C405 1.390 . S
C400 H391 0.930 . S
C400 C398 1.384 . S
C400 C401 1.372 . S
C401 C400 1.372 . S
C401 C402 1.400 . S
C401 C406 1.490 . S
C402 H392 0.930 . S
C402 C401 1.400 . S
C402 C405 1.386 . S
H403 C419 0.930 . S
H404 C420 0.931 . S
C405 H393 0.929 . S
C405 C399 1.390 . S
C405 C402 1.386 . S
C406 C401 1.490 . S
C406 C408 1.395 . S
C406 C409 1.403 . S
H407 C413 0.930 . S
C408 H394 0.930 . S
C408 C406 1.395 . S
C408 C411 1.403 . S
C409 C406 1.403 . S
C409 C410 1.524 . S
C409 C413 1.400 . S
C410 H395 0.960 . S
C410 H396 0.960 . S
C410 H397 0.960 . S
C410 C409 1.524 . S
C411 C408 1.403 . S
C411 C412 1.392 . S
C411 C415 1.495 . S
C412 C411 1.392 . S
C412 C413 1.385 . S
C412 C414 1.478 . S
C413 H407 0.930 . S
C413 C409 1.400 . S
C413 C412 1.385 . S
C414 C412 1.478 . S
C414 C416 1.381 . S
C414 C420 1.383 . S
C415 C411 1.495 . S
C415 H421 0.959 . S
C415 H422 0.961 . S
C415 H423 0.960 . S
C416 C414 1.381 . S
C416 C417 1.394 . S
C416 H424 0.930 . S
C417 C416 1.394 . S
C417 C418 1.383 . S
C417 H425 0.929 . S
C418 C417 1.383 . S
C418 C419 1.377 . S
C419 H403 0.930 . S
C419 C418 1.377 . S
C419 C420 1.379 . S
C420 H404 0.931 . S
C420 C414 1.383 . S
C420 C419 1.379 . S
H421 C415 0.959 . S
H422 C415 0.961 . S
H423 C415 0.960 . S
H424 C416 0.930 . S
H425 C417 0.929 . S
H426 C434 0.929 . S
H427 C436 0.930 . S
H428 C438 0.930 . S
H429 C441 0.929 . S
H430 C444 0.930 . S
H431 C446 0.960 . S
H432 C446 0.960 . S
H433 C446 0.960 . S
C434 H426 0.929 . S
C434 C435 1.377 . S
C434 C436 1.384 . S
C435 C434 1.377 . S
C435 C441 1.390 . S
C436 H427 0.930 . S
C436 C434 1.384 . S
C436 C437 1.372 . S
C437 C436 1.372 . S
C437 C438 1.400 . S
C437 C442 1.490 . S
C438 H428 0.930 . S
C438 C437 1.400 . S
C438 C441 1.386 . S
H439 C455 0.930 . S
H440 C456 0.931 . S
C441 H429 0.929 . S
C441 C435 1.390 . S
C441 C438 1.386 . S
C442 C437 1.490 . S
C442 C444 1.395 . S
C442 C445 1.403 . S
H443 C449 0.930 . S
C444 H430 0.930 . S
C444 C442 1.395 . S
C444 C447 1.403 . S
C445 C442 1.403 . S
C445 C446 1.524 . S
C445 C449 1.400 . S
C446 H431 0.960 . S
C446 H432 0.960 . S
C446 H433 0.960 . S
C446 C445 1.524 . S
C447 C444 1.403 . S
C447 C448 1.392 . S
C447 C451 1.495 . S
C448 C447 1.392 . S
C448 C449 1.385 . S
C448 C450 1.478 . S
C449 H443 0.930 . S
C449 C445 1.400 . S
C449 C448 1.385 . S
C450 C448 1.478 . S
C450 C452 1.381 . S
C450 C456 1.383 . S
C451 C447 1.495 . S
C451 H457 0.959 . S
C451 H458 0.961 . S
C451 H459 0.960 . S
C452 C450 1.381 . S
C452 C453 1.394 . S
C452 H460 0.930 . S
C453 C452 1.394 . S
C453 C454 1.383 . S
C453 H461 0.929 . S
C454 C453 1.383 . S
C454 C455 1.377 . S
C455 H439 0.930 . S
C455 C454 1.377 . S
C455 C456 1.379 . S
C456 H440 0.931 . S
C456 C450 1.383 . S
C456 C455 1.379 . S
H457 C451 0.959 . S
H458 C451 0.961 . S
H459 C451 0.960 . S
H460 C452 0.930 . S
H461 C453 0.929 . S
H462 C470 0.929 . S
H463 C472 0.930 . S
H464 C474 0.930 . S
H465 C477 0.929 . S
H466 C480 0.930 . S
H467 C482 0.960 . S
H468 C482 0.960 . S
H469 C482 0.960 . S
C470 H462 0.929 . S
C470 C471 1.377 . S
C470 C472 1.384 . S
C471 C470 1.377 . S
C471 C477 1.390 . S
C472 H463 0.930 . S
C472 C470 1.384 . S
C472 C473 1.372 . S
C473 C472 1.372 . S
C473 C474 1.400 . S
C473 C478 1.490 . S
C474 H464 0.930 . S
C474 C473 1.400 . S
C474 C477 1.386 . S
H475 C491 0.930 . S
H476 C492 0.931 . S
C477 H465 0.929 . S
C477 C471 1.390 . S
C477 C474 1.386 . S
C478 C473 1.490 . S
C478 C480 1.395 . S
C478 C481 1.403 . S
H479 C485 0.930 . S
C480 H466 0.930 . S
C480 C478 1.395 . S
C480 C483 1.403 . S
C481 C478 1.403 . S
C481 C482 1.524 . S
C481 C485 1.400 . S
C482 H467 0.960 . S
C482 H468 0.960 . S
C482 H469 0.960 . S
C482 C481 1.524 . S
C483 C480 1.403 . S
C483 C484 1.392 . S
C483 C487 1.495 . S
C484 C483 1.392 . S
C484 C485 1.385 . S
C484 C486 1.478 . S
C485 H479 0.930 . S
C485 C481 1.400 . S
C485 C484 1.385 . S
C486 C484 1.478 . S
C486 C488 1.381 . S
C486 C492 1.383 . S
C487 C483 1.495 . S
C487 H493 0.959 . S
C487 H494 0.961 . S
C487 H495 0.960 . S
C488 C486 1.381 . S
C488 C489 1.394 . S
C488 H496 0.930 . S
C489 C488 1.394 . S
C489 C490 1.383 . S
C489 H497 0.929 . S
C490 C489 1.383 . S
C490 C491 1.377 . S
C491 H475 0.930 . S
C491 C490 1.377 . S
C491 C492 1.379 . S
C492 H476 0.931 . S
C492 C486 1.383 . S
C492 C491 1.379 . S
H493 C487 0.959 . S
H494 C487 0.961 . S
H495 C487 0.960 . S
H496 C488 0.930 . S
H497 C489 0.929 . S
H498 C506 0.929 . S
H499 C508 0.930 . S
H500 C510 0.930 . S
H501 C513 0.929 . S
H502 C516 0.930 . S
H503 C518 0.960 . S
H504 C518 0.960 . S
H505 C518 0.960 . S
C506 H498 0.929 . S
C506 C507 1.377 . S
C506 C508 1.384 . S
C507 C506 1.377 . S
C507 C513 1.390 . S
C508 H499 0.930 . S
C508 C506 1.384 . S
C508 C509 1.372 . S
C509 C508 1.372 . S
C509 C510 1.400 . S
C509 C514 1.490 . S
C510 H500 0.930 . S
C510 C509 1.400 . S
C510 C513 1.386 . S
H511 C527 0.930 . S
H512 C528 0.931 . S
C513 H501 0.929 . S
C513 C507 1.390 . S
C513 C510 1.386 . S
C514 C509 1.490 . S
C514 C516 1.395 . S
C514 C517 1.403 . S
H515 C521 0.930 . S
C516 H502 0.930 . S
C516 C514 1.395 . S
C516 C519 1.403 . S
C517 C514 1.403 . S
C517 C518 1.524 . S
C517 C521 1.400 . S
C518 H503 0.960 . S
C518 H504 0.960 . S
C518 H505 0.960 . S
C518 C517 1.524 . S
C519 C516 1.403 . S
C519 C520 1.392 . S
C519 C523 1.495 . S
C520 C519 1.392 . S
C520 C521 1.385 . S
C520 C522 1.478 . S
C521 H515 0.930 . S
C521 C517 1.400 . S
C521 C520 1.385 . S
C522 C520 1.478 . S
C522 C524 1.381 . S
C522 C528 1.383 . S
C523 C519 1.495 . S
C523 H529 0.959 . S
C523 H530 0.961 . S
C523 H531 0.960 . S
C524 C522 1.381 . S
C524 C525 1.394 . S
C524 H532 0.930 . S
C525 C524 1.394 . S
C525 C526 1.383 . S
C525 H533 0.929 . S
C526 C525 1.383 . S
C526 C527 1.377 . S
C527 H511 0.930 . S
C527 C526 1.377 . S
C527 C528 1.379 . S
C528 H512 0.931 . S
C528 C522 1.383 . S
C528 C527 1.379 . S
H529 C523 0.959 . S
H530 C523 0.961 . S
H531 C523 0.960 . S
H532 C524 0.930 . S
H533 C525 0.929 . S
H534 C542 0.929 . S
H535 C544 0.930 . S
H536 C546 0.930 . S
H537 C549 0.929 . S
H538 C552 0.930 . S
H539 C554 0.960 . S
H540 C554 0.960 . S
H541 C554 0.960 . S
C542 H534 0.929 . S
C542 C543 1.377 . S
C542 C544 1.384 . S
C543 C542 1.377 . S
C543 C549 1.390 . S
C544 H535 0.930 . S
C544 C542 1.384 . S
C544 C545 1.372 . S
C545 C544 1.372 . S
C545 C546 1.400 . S
C545 C550 1.490 . S
C546 H536 0.930 . S
C546 C545 1.400 . S
C546 C549 1.386 . S
H547 C563 0.930 . S
H548 C564 0.931 . S
C549 H537 0.929 . S
C549 C543 1.390 . S
C549 C546 1.386 . S
C550 C545 1.490 . S
C550 C552 1.395 . S
C550 C553 1.403 . S
H551 C557 0.930 . S
C552 H538 0.930 . S
C552 C550 1.395 . S
C552 C555 1.403 . S
C553 C550 1.403 . S
C553 C554 1.524 . S
C553 C557 1.400 . S
C554 H539 0.960 . S
C554 H540 0.960 . S
C554 H541 0.960 . S
C554 C553 1.524 . S
C555 C552 1.403 . S
C555 C556 1.392 . S
C555 C559 1.495 . S
C556 C555 1.392 . S
C556 C557 1.385 . S
C556 C558 1.478 . S
C557 H551 0.930 . S
C557 C553 1.400 . S
C557 C556 1.385 . S
C558 C556 1.478 . S
C558 C560 1.381 . S
C558 C564 1.383 . S
C559 C555 1.495 . S
C559 H565 0.959 . S
C559 H566 0.961 . S
C559 H567 0.960 . S
C560 C558 1.381 . S
C560 C561 1.394 . S
C560 H568 0.930 . S
C561 C560 1.394 . S
C561 C562 1.383 . S
C561 H569 0.929 . S
C562 C561 1.383 . S
C562 C563 1.377 . S
C563 H547 0.930 . S
C563 C562 1.377 . S
C563 C564 1.379 . S
C564 H548 0.931 . S
C564 C558 1.383 . S
C564 C563 1.379 . S
H565 C559 0.959 . S
H566 C559 0.961 . S
H567 C559 0.960 . S
H568 C560 0.930 . S
H569 C561 0.929 . S
H570 C578 0.929 . S
H571 C580 0.930 . S
H572 C582 0.930 . S
H573 C585 0.929 . S
H574 C588 0.930 . S
H575 C590 0.960 . S
H576 C590 0.960 . S
H577 C590 0.960 . S
C578 H570 0.929 . S
C578 C579 1.377 . S
C578 C580 1.384 . S
C579 C578 1.377 . S
C579 C585 1.390 . S
C580 H571 0.930 . S
C580 C578 1.384 . S
C580 C581 1.372 . S
C581 C580 1.372 . S
C581 C582 1.400 . S
C581 C586 1.490 . S
C582 H572 0.930 . S
C582 C581 1.400 . S
C582 C585 1.386 . S
H583 C599 0.930 . S
H584 C600 0.931 . S
C585 H573 0.929 . S
C585 C579 1.390 . S
C585 C582 1.386 . S
C586 C581 1.490 . S
C586 C588 1.395 . S
C586 C589 1.403 . S
H587 C593 0.930 . S
C588 H574 0.930 . S
C588 C586 1.395 . S
C588 C591 1.403 . S
C589 C586 1.403 . S
C589 C590 1.524 . S
C589 C593 1.400 . S
C590 H575 0.960 . S
C590 H576 0.960 . S
C590 H577 0.960 . S
C590 C589 1.524 . S
C591 C588 1.403 . S
C591 C592 1.392 . S
C591 C595 1.495 . S
C592 C591 1.392 . S
C592 C593 1.385 . S
C592 C594 1.478 . S
C593 H587 0.930 . S
C593 C589 1.400 . S
C593 C592 1.385 . S
C594 C592 1.478 . S
C594 C596 1.381 . S
C594 C600 1.383 . S
C595 C591 1.495 . S
C595 H601 0.959 . S
C595 H602 0.961 . S
C595 H603 0.960 . S
C596 C594 1.381 . S
C596 C597 1.394 . S
C596 H604 0.930 . S
C597 C596 1.394 . S
C597 C598 1.383 . S
C597 H605 0.929 . S
C598 C597 1.383 . S
C598 C599 1.377 . S
C599 H583 0.930 . S
C599 C598 1.377 . S
C599 C600 1.379 . S
C600 H584 0.931 . S
C600 C594 1.383 . S
C600 C599 1.379 . S
H601 C595 0.959 . S
H602 C595 0.961 . S
H603 C595 0.960 . S
H604 C596 0.930 . S
H605 C597 0.929 . S
H606 C614 0.929 . S
H607 C616 0.930 . S
H608 C618 0.930 1_655 S
H609 C621 0.915 1_655 S
H610 C624 0.930 . S
H611 C626 0.960 . S
H612 C626 0.960 . S
H613 C626 0.960 . S
C614 H606 0.929 . S
C614 C615 1.377 . S
C614 C616 1.384 . S
C615 C614 1.377 . S
C615 C621 1.402 . S
C616 H607 0.930 . S
C616 C614 1.384 . S
C616 C617 1.372 . S
C617 C616 1.372 . S
C617 C618 1.400 . S
C617 C622 1.490 . S
C618 H608 0.930 1_455 S
C618 C617 1.400 . S
C618 C621 1.388 . S
H619 C635 0.930 . S
H620 C636 0.931 . S
C621 H609 0.915 1_455 S
C621 C615 1.402 . S
C621 C618 1.388 . S
C622 C617 1.490 . S
C622 C624 1.395 1_455 S
C622 C625 1.403 . S
H623 C629 0.930 1_556 S
C624 H610 0.930 . S
C624 C622 1.395 1_655 S
C624 C627 1.403 . S
C625 C622 1.403 . S
C625 C626 1.524 . S
C625 C629 1.400 . S
C626 H611 0.960 . S
C626 H612 0.960 . S
C626 H613 0.960 . S
C626 C625 1.524 . S
C627 C624 1.403 . S
C627 C628 1.392 1_654 S
C627 C631 1.495 1_554 S
C628 C627 1.392 1_456 S
C628 C629 1.385 1_556 S
C628 C630 1.478 . S
C629 H623 0.930 1_554 S
C629 C625 1.400 . S
C629 C628 1.385 1_554 S
C630 C628 1.478 . S
C630 C632 1.381 . S
C630 C636 1.383 1_455 S
C631 C627 1.495 1_556 S
C631 H637 0.959 1_556 S
C631 H638 0.961 . S
C631 H639 0.960 . S
C632 C630 1.381 . S
C632 C633 1.394 . S
C632 H640 0.930 . S
C633 C632 1.394 . S
C633 C634 1.383 . S
C633 H641 0.929 . S
C634 C633 1.383 . S
C634 C635 1.377 1_455 S
C635 H619 0.930 . S
C635 C634 1.377 1_655 S
C635 C636 1.379 . S
C636 H620 0.931 . S
C636 C630 1.383 1_655 S
C636 C635 1.379 . S
H637 C631 0.959 1_554 S
H638 C631 0.961 . S
H639 C631 0.960 . S
H640 C632 0.930 . S
H641 C633 0.929 . S
H642 C650 0.929 . S
H643 C652 0.930 . S
H644 C654 0.930 . S
H645 C657 0.929 . S
H646 C660 0.930 . S
H647 C662 0.960 . S
H648 C662 0.960 . S
H649 C662 0.960 . S
C650 H642 0.929 . S
C650 C651 1.377 1_565 S
C650 C652 1.384 . S
C651 C650 1.377 1_545 S
C651 C657 1.390 . S
C652 H643 0.930 . S
C652 C650 1.384 . S
C652 C653 1.372 1_565 S
C653 C652 1.372 1_545 S
C653 C654 1.400 . S
C653 C658 1.490 . S
C654 H644 0.930 . S
C654 C653 1.400 . S
C654 C657 1.386 . S
H655 C671 0.930 . S
H656 C672 0.931 . S
C657 H645 0.929 . S
C657 C651 1.390 . S
C657 C654 1.386 . S
C658 C653 1.490 . S
C658 C660 1.395 1_545 S
C658 C661 1.403 . S
H659 C665 0.930 . S
C660 H646 0.930 . S
C660 C658 1.395 1_565 S
C660 C663 1.403 . S
C661 C658 1.403 . S
C661 C662 1.524 . S
C661 C665 1.400 . S
C662 H647 0.960 . S
C662 H648 0.960 . S
C662 H649 0.960 . S
C662 C661 1.524 . S
C663 C660 1.403 . S
C663 C664 1.392 1_565 S
C663 C667 1.495 . S
C664 C663 1.392 1_545 S
C664 C665 1.385 . S
C664 C666 1.478 . S
C665 H659 0.930 . S
C665 C661 1.400 . S
C665 C664 1.385 . S
C666 C664 1.478 . S
C666 C668 1.381 1_545 S
C666 C672 1.383 . S
C667 C663 1.495 . S
C667 H673 0.959 . S
C667 H674 0.961 . S
C667 H675 0.960 . S
C668 C666 1.381 1_565 S
C668 C669 1.394 . S
C668 H676 0.930 . S
C669 C668 1.394 . S
C669 C670 1.383 1_565 S
C669 H677 0.929 . S
C670 C669 1.383 1_545 S
C670 C671 1.377 . S
C671 H655 0.930 . S
C671 C670 1.377 . S
C671 C672 1.379 . S
C672 H656 0.931 . S
C672 C666 1.383 . S
C672 C671 1.379 . S
H673 C667 0.959 . S
H674 C667 0.961 . S
H675 C667 0.960 . S
H676 C668 0.930 . S
H677 C669 0.929 . S
H678 C686 0.929 . S
H679 C688 0.930 . S
H680 C690 0.930 . S
H681 C693 0.929 . S
H682 C696 0.930 . S
H683 C698 0.960 . S
H684 C698 0.960 . S
H685 C698 0.960 . S
C686 H678 0.929 . S
C686 C687 1.377 . S
C686 C688 1.384 . S
C687 C686 1.377 . S
C687 C693 1.390 . S
C688 H679 0.930 . S
C688 C686 1.384 . S
C688 C689 1.372 . S
C689 C688 1.372 . S
C689 C690 1.400 . S
C689 C694 1.490 . S
C690 H680 0.930 . S
C690 C689 1.400 . S
C690 C693 1.386 . S
H691 C707 0.930 . S
H692 C708 0.931 . S
C693 H681 0.929 . S
C693 C687 1.390 . S
C693 C690 1.386 . S
C694 C689 1.490 . S
C694 C696 1.395 . S
C694 C697 1.403 . S
H695 C701 0.930 . S
C696 H682 0.930 . S
C696 C694 1.395 . S
C696 C699 1.403 . S
C697 C694 1.403 . S
C697 C698 1.524 . S
C697 C701 1.400 . S
C698 H683 0.960 . S
C698 H684 0.960 . S
C698 H685 0.960 . S
C698 C697 1.524 . S
C699 C696 1.403 . S
C699 C700 1.392 . S
C699 C703 1.495 . S
C700 C699 1.392 . S
C700 C701 1.385 . S
C700 C702 1.478 . S
C701 H695 0.930 . S
C701 C697 1.400 . S
C701 C700 1.385 . S
C702 C700 1.478 . S
C702 C704 1.381 . S
C702 C708 1.383 . S
C703 C699 1.495 . S
C703 H709 0.959 . S
C703 H710 0.961 . S
C703 H711 0.960 . S
C704 C702 1.381 . S
C704 C705 1.394 . S
C704 H712 0.930 . S
C705 C704 1.394 . S
C705 C706 1.383 . S
C705 H713 0.929 . S
C706 C705 1.383 . S
C706 C707 1.377 . S
C707 H691 0.930 . S
C707 C706 1.377 . S
C707 C708 1.379 . S
C708 H692 0.931 . S
C708 C702 1.383 . S
C708 C707 1.379 . S
H709 C703 0.959 . S
H710 C703 0.961 . S
H711 C703 0.960 . S
H712 C704 0.930 . S
H713 C705 0.929 . S
H714 C722 0.929 . S
H715 C724 0.930 . S
H716 C726 0.932 . S
H717 C729 0.930 . S
H718 C732 0.930 . S
H719 C734 0.960 . S
H720 C734 0.960 . S
H721 C734 0.960 . S
C722 H714 0.929 . S
C722 C723 1.377 . S
C722 C724 1.384 . S
C723 C722 1.377 . S
C723 C729 1.390 1_545 S
C724 H715 0.930 . S
C724 C722 1.384 . S
C724 C725 1.372 . S
C725 C724 1.372 . S
C725 C726 1.399 1_545 S
C725 C730 1.490 . S
C726 H716 0.932 . S
C726 C725 1.399 1_565 S
C726 C729 1.386 . S
H727 C743 0.930 1_565 S
H728 C744 0.931 . S
C729 H717 0.930 . S
C729 C723 1.390 1_565 S
C729 C726 1.386 . S
C730 C725 1.490 . S
C730 C732 1.395 . S
C730 C733 1.403 1_545 S
H731 C737 0.930 . S
C732 H718 0.930 . S
C732 C730 1.395 . S
C732 C735 1.403 . S
C733 C730 1.403 1_565 S
C733 C734 1.524 . S
C733 C737 1.400 . S
C734 H719 0.960 . S
C734 H720 0.960 . S
C734 H721 0.960 . S
C734 C733 1.524 . S
C735 C732 1.403 . S
C735 C736 1.392 . S
C735 C739 1.495 . S
C736 C735 1.392 . S
C736 C737 1.385 1_545 S
C736 C738 1.478 . S
C737 H731 0.930 . S
C737 C733 1.400 . S
C737 C736 1.385 1_565 S
C738 C736 1.478 . S
C738 C740 1.381 . S
C738 C744 1.383 . S
C739 C735 1.495 . S
C739 H745 0.959 . S
C739 H746 0.961 . S
C739 H747 0.960 . S
C740 C738 1.381 . S
C740 C741 1.394 . S
C740 H748 0.930 . S
C741 C740 1.394 . S
C741 C742 1.383 . S
C741 H749 0.929 . S
C742 C741 1.383 . S
C742 C743 1.377 . S
C743 H727 0.930 1_545 S
C743 C742 1.377 . S
C743 C744 1.379 . S
C744 H728 0.931 . S
C744 C738 1.383 . S
C744 C743 1.379 . S
H745 C739 0.959 . S
H746 C739 0.961 . S
H747 C739 0.960 . S
H748 C740 0.930 . S
H749 C741 0.929 . S
H750 C758 0.929 . S
H751 C760 0.930 . S
H752 C762 0.930 . S
H753 C765 0.929 . S
H754 C768 0.930 . S
H755 C770 0.960 . S
H756 C770 0.960 . S
H757 C770 0.960 . S
C758 H750 0.929 . S
C758 C759 1.377 . S
C758 C760 1.384 . S
C759 C758 1.377 . S
C759 C765 1.390 . S
C760 H751 0.930 . S
C760 C758 1.384 . S
C760 C761 1.372 . S
C761 C760 1.372 . S
C761 C762 1.400 . S
C761 C766 1.490 . S
C762 H752 0.930 . S
C762 C761 1.400 . S
C762 C765 1.386 . S
H763 C779 0.930 . S
H764 C780 0.931 . S
C765 H753 0.929 . S
C765 C759 1.390 . S
C765 C762 1.386 . S
C766 C761 1.490 . S
C766 C768 1.395 . S
C766 C769 1.403 . S
H767 C773 0.930 1_554 S
C768 H754 0.930 . S
C768 C766 1.395 . S
C768 C771 1.403 . S
C769 C766 1.403 . S
C769 C770 1.524 . S
C769 C773 1.400 . S
C770 H755 0.960 . S
C770 H756 0.960 . S
C770 H757 0.960 . S
C770 C769 1.524 . S
C771 C768 1.403 . S
C771 C772 1.392 1_556 S
C771 C775 1.495 1_556 S
C772 C771 1.392 1_554 S
C772 C773 1.385 1_554 S
C772 C774 1.478 . S
C773 H767 0.930 1_556 S
C773 C769 1.400 . S
C773 C772 1.385 1_556 S
C774 C772 1.478 . S
C774 C776 1.381 . S
C774 C780 1.383 . S
C775 C771 1.495 1_554 S
C775 H781 0.959 1_554 S
C775 H782 0.961 . S
C775 H783 0.960 . S
C776 C774 1.381 . S
C776 C777 1.394 . S
C776 H784 0.930 . S
C777 C776 1.394 . S
C777 C778 1.383 . S
C777 H785 0.929 . S
C778 C777 1.383 . S
C778 C779 1.377 . S
C779 H763 0.930 . S
C779 C778 1.377 . S
C779 C780 1.379 . S
C780 H764 0.931 . S
C780 C774 1.383 . S
C780 C779 1.379 . S
H781 C775 0.959 1_556 S
H782 C775 0.961 . S
H783 C775 0.960 . S
H784 C776 0.930 . S
H785 C777 0.929 . S
H786 C794 0.942 . S
H787 C796 0.930 . S
H788 C798 0.930 . S
H789 C801 0.929 . S
H790 C804 0.930 . S
H791 C806 0.960 . S
H792 C806 0.960 . S
H793 C806 0.960 . S
C794 H786 0.942 . S
C794 C795 1.364 1_655 S
C794 C796 1.386 . S
C795 C794 1.364 1_455 S
C795 C801 1.390 . S
C796 H787 0.930 . S
C796 C794 1.386 . S
C796 C797 1.372 1_655 S
C797 C796 1.372 1_455 S
C797 C798 1.400 . S
C797 C802 1.490 . S
C798 H788 0.930 . S
C798 C797 1.400 . S
C798 C801 1.386 . S
H799 C815 0.930 1_455 S
H800 C816 0.931 . S
C801 H789 0.929 . S
C801 C795 1.390 . S
C801 C798 1.386 . S
C802 C797 1.490 . S
C802 C804 1.395 1_455 S
C802 C805 1.403 . S
H803 C809 0.930 . S
C804 H790 0.930 . S
C804 C802 1.395 1_655 S
C804 C807 1.403 . S
C805 C802 1.403 . S
C805 C806 1.524 . S
C805 C809 1.400 . S
C806 H791 0.960 . S
C806 H792 0.960 . S
C806 H793 0.960 . S
C806 C805 1.524 . S
C807 C804 1.403 . S
C807 C808 1.392 . S
C807 C811 1.495 . S
C808 C807 1.392 . S
C808 C809 1.385 1_655 S
C808 C810 1.478 . S
C809 H803 0.930 . S
C809 C805 1.400 . S
C809 C808 1.385 1_455 S
C810 C808 1.478 . S
C810 C812 1.381 . S
C810 C816 1.383 . S
C811 C807 1.495 . S
C811 H817 0.959 . S
C811 H818 0.961 . S
C811 H819 0.960 . S
C812 C810 1.381 . S
C812 C813 1.394 . S
C812 H820 0.930 . S
C813 C812 1.394 . S
C813 C814 1.383 . S
C813 H821 0.929 . S
C814 C813 1.383 . S
C814 C815 1.377 . S
C815 H799 0.930 1_655 S
C815 C814 1.377 . S
C815 C816 1.379 . S
C816 H800 0.931 . S
C816 C810 1.383 . S
C816 C815 1.379 . S
H817 C811 0.959 . S
H818 C811 0.961 . S
H819 C811 0.960 . S
H820 C812 0.930 . S
H821 C813 0.929 . S
C183 C19 1.766 . S
C202 C169 1.735 . S
C219 C46 1.190 . S
C238 C151 1.212 . S
C255 C95 0.415 . S
C274 C163 0.270 . S
C291 C10 1.786 . S
C310 C172 1.798 . S
C346 C154 1.253 . S
C327 C55 1.243 . S
C382 C160 0.474 . S
C363 C86 0.500 . S
C399 C59 2.945 . S
C418 C133 2.915 . S
C435 C90 1.825 . S
C454 C142 1.837 . S
C471 C15 1.244 . S
C490 C124 1.275 1_565 S
C526 C136 2.814 . S
C507 C50 2.820 . S
C562 C145 1.714 . S
C543 C99 1.747 . S
C579 C6 1.152 . S
C598 C127 1.157 . S
C634 C143 1.372 . S
C615 C9 1.326 . S
C651 C58 1.451 . S
C670 C125 1.503 . S
C687 C98 1.706 . S
C706 C134 1.770 . S
C742 C161 1.084 . S
C723 C49 1.059 . S
C778 C170 1.365 . S
C759 C89 1.325 . S
C795 C18 1.430 . S
C814 C152 1.485 1_655 S
