# Generated by pormake.
# Topology pyr, (3,6)-cn, num edge types: 1
# Building blocks:
#     Node 0, Type 0, BuildingBlock: PAMTOO_clean_linker_0, # of connection points: 3
#     Node 1, Type 0, BuildingBlock: PAMTOO_clean_linker_0, # of connection points: 3
#     Node 2, Type 0, BuildingBlock: PAMTOO_clean_linker_0, # of connection points: 3
#     Node 3, Type 0, BuildingBlock: PAMTOO_clean_linker_0, # of connection points: 3
#     Node 4, Type 0, BuildingBlock: PAMTOO_clean_linker_0, # of connection points: 3
#     Node 5, Type 0, BuildingBlock: PAMTOO_clean_linker_0, # of connection points: 3
#     Node 6, Type 0, BuildingBlock: PAMTOO_clean_linker_0, # of connection points: 3
#     Node 7, Type 0, BuildingBlock: PAMTOO_clean_linker_0, # of connection points: 3
#     Node 8, Type 1, BuildingBlock: BETFEN_clean_sbu_0, # of connection points: 6
#     Node 9, Type 1, BuildingBlock: BETFEN_clean_sbu_0, # of connection points: 6
#     Node 10, Type 1, BuildingBlock: BETFEN_clean_sbu_0, # of connection points: 6
#     Node 11, Type 1, BuildingBlock: BETFEN_clean_sbu_0, # of connection points: 6
#     Edge 12, Type (0, 1), BuildingBlock: TEMPAE_clean_linker_10, # of connection points: 2
#     Edge 13, Type (0, 1), BuildingBlock: TEMPAE_clean_linker_10, # of connection points: 2
#     Edge 14, Type (0, 1), BuildingBlock: TEMPAE_clean_linker_10, # of connection points: 2
#     Edge 15, Type (0, 1), BuildingBlock: TEMPAE_clean_linker_10, # of connection points: 2
#     Edge 16, Type (0, 1), BuildingBlock: TEMPAE_clean_linker_10, # of connection points: 2
#     Edge 17, Type (0, 1), BuildingBlock: TEMPAE_clean_linker_10, # of connection points: 2
#     Edge 18, Type (0, 1), BuildingBlock: TEMPAE_clean_linker_10, # of connection points: 2
#     Edge 19, Type (0, 1), BuildingBlock: TEMPAE_clean_linker_10, # of connection points: 2
#     Edge 20, Type (0, 1), BuildingBlock: TEMPAE_clean_linker_10, # of connection points: 2
#     Edge 21, Type (0, 1), BuildingBlock: TEMPAE_clean_linker_10, # of connection points: 2
#     Edge 22, Type (0, 1), BuildingBlock: TEMPAE_clean_linker_10, # of connection points: 2
#     Edge 23, Type (0, 1), BuildingBlock: TEMPAE_clean_linker_10, # of connection points: 2
#     Edge 24, Type (0, 1), BuildingBlock: TEMPAE_clean_linker_10, # of connection points: 2
#     Edge 25, Type (0, 1), BuildingBlock: TEMPAE_clean_linker_10, # of connection points: 2
#     Edge 26, Type (0, 1), BuildingBlock: TEMPAE_clean_linker_10, # of connection points: 2
#     Edge 27, Type (0, 1), BuildingBlock: TEMPAE_clean_linker_10, # of connection points: 2
#     Edge 28, Type (0, 1), BuildingBlock: TEMPAE_clean_linker_10, # of connection points: 2
#     Edge 29, Type (0, 1), BuildingBlock: TEMPAE_clean_linker_10, # of connection points: 2
#     Edge 30, Type (0, 1), BuildingBlock: TEMPAE_clean_linker_10, # of connection points: 2
#     Edge 31, Type (0, 1), BuildingBlock: TEMPAE_clean_linker_10, # of connection points: 2
#     Edge 32, Type (0, 1), BuildingBlock: TEMPAE_clean_linker_10, # of connection points: 2
#     Edge 33, Type (0, 1), BuildingBlock: TEMPAE_clean_linker_10, # of connection points: 2
#     Edge 34, Type (0, 1), BuildingBlock: TEMPAE_clean_linker_10, # of connection points: 2
#     Edge 35, Type (0, 1), BuildingBlock: TEMPAE_clean_linker_10, # of connection points: 2
# Relax obj value: 0.180
# Max RMSD: 0.291
# Mean RMSD: 0.146
data_MOF--net-pyr--node1-BETFEN_clean_sbu_0--node2-PAMTOO_clean_linker_0--edge1-TEMPAE_clean_linker_10
_symmetry_space_group_name_H-M    P1
_symmetry_Int_Tables_number       1
_symmetry_cell_setting            triclinic
loop_
_symmetry_equiv_pos_as_xyz
'x, y, z'
_cell_length_a     36.234707
_cell_length_b     41.358909
_cell_length_c     38.842897
_cell_angle_alpha  91.057233
_cell_angle_beta   101.88634
_cell_angle_gamma 114.1627
loop_
_atom_site_label
_atom_site_type_symbol
_atom_site_fract_x
_atom_site_fract_y
_atom_site_fract_z
_atom_type_partial_charge
H0 H 0.35037 0.33046 0.2781 0.0
H1 H 0.44986 0.30967 0.33905 0.0
H2 H 0.46512 0.36222 0.24507 0.0
H3 H 0.49402 0.29227 0.31645 0.0
C4 C 0.51478 0.31409 0.30375 0.0
O5 O 0.50253 0.34168 0.30028 0.0
H6 H 0.54586 0.32448 0.32242 0.0
C7 C 0.38154 0.33183 0.28231 0.0
C8 C 0.40592 0.34828 0.25867 0.0
C9 C 0.39592 0.31593 0.31018 0.0
C10 C 0.4374 0.32049 0.3168 0.0
C11 C 0.46236 0.33693 0.29328 0.0
C12 C 0.44608 0.3498 0.26341 0.0
H13 H 0.29117 0.88492 0.73543 0.0
H14 H 0.24009 0.80598 0.64439 0.0
H15 H 0.32896 0.79895 0.73141 0.0
H16 H 0.33508 0.80973 0.64573 0.0
C17 C 0.31452 0.78068 0.64385 0.0
O18 O 0.2884 0.77407 0.66684 0.0
H19 H 0.29523 0.77291 0.61627 0.0
C20 C 0.28814 0.86032 0.72241 0.0
C21 C 0.31243 0.84311 0.73889 0.0
C22 C 0.26069 0.8468 0.68884 0.0
C23 C 0.26024 0.81688 0.67048 0.0
C24 C 0.28619 0.80083 0.68563 0.0
C25 C 0.31094 0.81311 0.71995 0.0
H26 H 0.72807 0.2716 0.85938 0.0
H27 H 0.62035 0.25645 0.77798 0.0
H28 H 0.73291 0.35243 0.78992 0.0
H29 H 0.64979 0.35469 0.78703 0.0
C30 C 0.63641 0.34019 0.75978 0.0
O31 O 0.65628 0.31893 0.75392 0.0
H32 H 0.60301 0.3227 0.75766 0.0
C33 C 0.71375 0.28074 0.83665 0.0
C34 C 0.73596 0.3144 0.82669 0.0
C35 C 0.67238 0.25938 0.81924 0.0
C36 C 0.65256 0.27231 0.79135 0.0
C37 C 0.67471 0.30595 0.7807 0.0
C38 C 0.7163 0.3266 0.79823 0.0
H39 H 0.87803 0.71057 0.39129 0.0
H40 H 0.86896 0.61713 0.33291 0.0
H41 H 0.9636 0.72125 0.3255 0.0
H42 H 0.93452 0.67473 0.25733 0.0
C43 C 0.92264 0.64768 0.26615 0.0
O44 O 0.93311 0.6513 0.30338 0.0
H45 H 0.88815 0.636 0.25717 0.0
C46 C 0.88886 0.69858 0.37282 0.0
C47 C 0.92243 0.72079 0.35925 0.0
C48 C 0.86954 0.66139 0.3644 0.0
C49 C 0.88337 0.6458 0.33963 0.0
C50 C 0.9174 0.6671 0.32495 0.0
C51 C 0.93714 0.7047 0.33566 0.0
H52 H 0.72174 0.75895 0.78757 0.0
H53 H 0.64606 0.66722 0.83041 0.0
H54 H 0.72739 0.65836 0.76767 0.0
H55 H 0.65744 0.5864 0.83965 0.0
C56 C 0.68042 0.61449 0.84097 0.0
O57 O 0.67519 0.62456 0.80709 0.0
H58 H 0.67242 0.63006 0.85945 0.0
C59 C 0.7111 0.73065 0.79014 0.0
C60 C 0.72616 0.71018 0.77303 0.0
C61 C 0.68269 0.71527 0.81086 0.0
C62 C 0.66857 0.67906 0.81459 0.0
C63 C 0.68612 0.65886 0.80046 0.0
C64 C 0.715 0.67439 0.77957 0.0
H65 H 0.85191 0.16852 0.32581 0.0
H66 H 0.78829 0.23698 0.3204 0.0
H67 H 0.86763 0.23591 0.4185 0.0
H68 H 0.83862 0.30406 0.35721 0.0
C69 C 0.83159 0.29867 0.38368 0.0
O70 O 0.81657 0.26253 0.38671 0.0
H71 H 0.8608 0.31289 0.40438 0.0
C72 C 0.84539 0.18865 0.33826 0.0
C73 C 0.86291 0.20041 0.37448 0.0
C74 C 0.81881 0.20191 0.31825 0.0
C75 C 0.81018 0.22755 0.33487 0.0
C76 C 0.82831 0.24026 0.37068 0.0
C77 C 0.8551 0.22705 0.39044 0.0
H78 H 0.41146 0.75687 0.18593 0.0
H79 H 0.42206 0.69242 0.26981 0.0
H80 H 0.52696 0.78941 0.26433 0.0
H81 H 0.55328 0.73152 0.29878 0.0
C82 C 0.52094 0.71352 0.29982 0.0
O83 O 0.49885 0.73398 0.30057 0.0
H84 H 0.50733 0.69403 0.27548 0.0
C85 C 0.42951 0.75278 0.21002 0.0
C86 C 0.47111 0.77744 0.22323 0.0
C87 C 0.41172 0.72181 0.22625 0.0
C88 C 0.4355 0.71602 0.25684 0.0
C89 C 0.47686 0.74027 0.27072 0.0
C90 C 0.49485 0.77083 0.25369 0.0
H91 H 0.14703 0.31343 0.78709 0.0
H92 H 0.24025 0.4209 0.78712 0.0
H93 H 0.22696 0.33594 0.71412 0.0
H94 H 0.31174 0.38575 0.75386 0.0
C95 C 0.30909 0.40977 0.74331 0.0
O96 O 0.2673 0.40366 0.73392 0.0
H97 H 0.32552 0.43216 0.76498 0.0
C98 C 0.17185 0.33255 0.77681 0.0
C99 C 0.18467 0.3202 0.74882 0.0
C100 C 0.19195 0.36914 0.79211 0.0
C101 C 0.22486 0.39278 0.77748 0.0
C102 C 0.23742 0.38074 0.74941 0.0
C103 C 0.21726 0.34477 0.73573 0.0
Pr104 Pr 1.02267 1.01014 0.56507 0.0
Pr105 Pr 0.0825 0.0358 0.53153 0.0
C106 C 0.95288 0.97881 0.58865 0.0
C107 C 0.93224 0.94563 0.60329 0.0
C108 C 0.90881 0.94544 0.62778 0.0
C109 C 0.89266 0.9155 0.64523 0.0
C110 C 0.89977 0.88528 0.63846 0.0
C111 C 0.9225 0.88521 0.61322 0.0
C112 C 0.93895 0.91539 0.59589 0.0
C113 C 0.08072 0.07682 0.60284 0.0
C114 C 0.09502 0.98518 0.59094 0.0
C115 C 0.15313 0.06463 0.5088 0.0
C116 C 0.17024 0.09147 0.48532 0.0
C117 C 0.16157 0.08164 0.44871 0.0
C118 C 0.1792 0.10679 0.42671 0.0
C119 C 0.20585 0.14207 0.44099 0.0
C120 C 0.21363 0.15217 0.47735 0.0
C121 C 0.19611 0.12701 0.49941 0.0
C122 C 1.02417 0.96898 0.49412 0.0
C123 C 1.01137 0.06181 0.50341 0.0
O124 O 0.9533 0.9764 0.55513 0.0
O125 O 0.98837 1.00098 0.60873 0.0
O126 O 0.06763 0.07102 0.56933 0.0
O127 O 0.06733 0.04711 0.61674 0.0
O128 O 0.11509 0.0154 0.5792 0.0
O129 O 0.05439 0.9724 0.58439 0.0
O130 O 0.14934 0.07602 0.53886 0.0
O131 O 0.1217 0.03502 0.49376 0.0
O132 O 0.03772 0.97505 0.52755 0.0
O133 O 0.03706 0.99861 0.48001 0.0
O134 O 0.99176 0.03661 0.52177 0.0
O135 O 0.05041 0.07002 0.50393 0.0
H136 H 0.90377 0.96876 0.63396 0.0
H137 H 0.87464 0.91599 0.66413 0.0
H138 H 0.92842 0.86225 0.60762 0.0
H139 H 0.95764 0.91542 0.57738 0.0
H140 H 0.14175 0.05441 0.43708 0.0
H141 H 0.17272 0.09855 0.39865 0.0
H142 H 0.23462 0.17918 0.48895 0.0
H143 H 0.20347 0.13526 0.52754 0.0
Pr144 Pr 0.54058 0.03103 0.02991 0.0
Pr145 Pr 0.61085 0.01686 0.01529 0.0
C146 C 0.48667 0.04939 0.05379 0.0
C147 C 0.49297 0.08049 0.07699 0.0
C148 C 0.47082 0.10084 0.06575 0.0
C149 C 0.47864 0.13192 0.08645 0.0
C150 C 0.50866 0.14294 0.11871 0.0
C151 C 0.53136 0.12288 0.12955 0.0
C152 C 0.52361 0.09193 0.10886 0.0
C153 C 0.57385 0.06605 0.97535 0.0
C154 C 0.63624 0.07684 0.08132 0.0
C155 C 0.66723 1.01302 0.98262 0.0
C156 C 0.67058 0.98274 0.96547 0.0
C157 C 0.67581 0.95603 0.98499 0.0
C158 C 0.67283 0.92499 0.9676 0.0
C159 C 0.66423 0.92003 0.93045 0.0
C160 C 0.66001 0.94715 0.91107 0.0
C161 C 0.66351 0.97834 0.92846 0.0
C162 C 0.57489 0.96562 0.05957 0.0
C163 C 0.51493 0.96798 0.96957 0.0
O164 O 0.50007 0.02673 0.06832 0.0
O165 O 0.49531 0.05639 0.02305 0.0
O166 O 0.59506 0.065 1.00526 0.0
O167 O 0.53444 0.04707 0.9723 0.0
O168 O 0.65087 0.06354 0.05932 0.0
O169 O 0.59592 0.06745 0.07699 0.0
O170 O 0.63583 0.01943 0.96653 0.0
O171 O 0.67304 0.01573 0.0172 0.0
O172 O 0.5626 0.98896 0.04901 0.0
O173 O 0.60636 0.96799 0.04727 0.0
O174 O 0.50184 0.976 0.99622 0.0
O175 O 0.55418 0.98448 0.96802 0.0
H176 H 0.44761 0.09276 0.0409 0.0
H177 H 0.46053 0.14682 0.07767 0.0
H178 H 0.55501 0.13108 0.15413 0.0
H179 H 0.54171 0.07708 0.11777 0.0
H180 H 0.68112 0.95859 1.01359 0.0
H181 H 0.67704 0.90481 0.98323 0.0
H182 H 0.65295 0.94391 0.88239 0.0
H183 H 0.65906 0.99848 0.91287 0.0
Pr184 Pr 0.58854 0.56843 0.56091 0.0
Pr185 Pr 0.55665 0.49081 0.51528 0.0
C186 C 0.58892 0.62807 0.5903 0.0
C187 C 0.55758 0.63832 0.60035 0.0
C188 C 0.56547 0.65538 0.63438 0.0
C189 C 0.53675 0.66642 0.64378 0.0
C190 C 0.49969 0.66083 0.61917 0.0
C191 C 0.49131 0.64277 0.58546 0.0
C192 C 0.51983 0.63153 0.57619 0.0
C193 C 0.61817 0.52065 0.59207 0.0
C194 C 0.49817 0.49819 0.5684 0.0
C195 C 0.56203 0.43057 0.49583 0.0
C196 C 0.58811 0.42183 0.47598 0.0
C197 C 0.57066 0.39108 0.45154 0.0
C198 C 0.59621 0.38062 0.43585 0.0
C199 C 0.63964 0.40058 0.44475 0.0
C200 C 0.6568 0.43224 0.46791 0.0
C201 C 0.63133 0.44286 0.48321 0.0
C202 C 0.53232 0.5371 0.47388 0.0
C203 C 0.64376 0.56128 0.50511 0.0
O204 O 0.5856 0.6217 0.55639 0.0
O205 O 0.5992 0.60586 0.60918 0.0
O206 O 0.58223 0.51341 0.57364 0.0
O207 O 0.64111 0.55509 0.5964 0.0
O208 O 0.50407 0.47565 0.54755 0.0
O209 O 0.5228 0.53309 0.57354 0.0
O210 O 0.58202 0.44997 0.52637 0.0
O211 O 0.53329 0.43953 0.47812 0.0
O212 O 0.55178 0.5429 0.5058 0.0
O213 O 0.52259 0.50427 0.46198 0.0
O214 O 0.63506 0.58397 0.52291 0.0
O215 O 0.62279 0.52618 0.50381 0.0
H216 H 0.5942 0.66067 0.65355 0.0
H217 H 0.5442 0.68039 0.66988 0.0
H218 H 0.46275 0.63755 0.56611 0.0
H219 H 0.51245 0.6179 0.54994 0.0
H220 H 0.53747 0.37455 0.44548 0.0
H221 H 0.58223 0.35607 0.41809 0.0
H222 H 0.69011 0.44837 0.47485 0.0
H223 H 0.64575 0.46695 0.50168 0.0
Pr224 Pr 0.06581 0.52867 0.01963 0.0
Pr225 Pr 0.0685 0.47411 0.06706 0.0
C226 C 0.04388 0.57019 0.97509 0.0
C227 C 1.01736 0.58931 0.97088 0.0
C228 C 1.02175 0.61397 0.94615 0.0
C229 C 0.99204 0.62753 0.93682 0.0
C230 C 0.95735 0.61632 0.95194 0.0
C231 C 0.95478 0.59359 0.97873 0.0
C232 C 0.98464 0.58016 0.98815 0.0
C233 C 0.14245 0.55052 0.06713 0.0
C234 C 0.03067 0.52812 0.09509 0.0
C235 C 0.09 0.43142 0.1105 0.0
C236 C 0.11343 0.40969 0.11161 0.0
C237 C 0.12165 0.39467 0.14259 0.0
C238 C 0.15012 0.37953 0.14671 0.0
C239 C 0.1709 0.37931 0.11987 0.0
C240 C 0.1603 0.39223 0.08781 0.0
C241 C 0.1318 0.4074 0.08376 0.0
C242 C 0.99379 0.45243 0.0165 0.0
C243 C 0.10187 0.47397 0.99046 0.0
O244 O 1.02422 0.53541 0.97152 0.0
O245 O 0.07747 0.58287 1.00073 0.0
O246 O 0.10764 0.53481 0.07492 0.0
O247 O 0.13821 0.55491 0.0337 0.0
O248 O 0.04508 0.50405 0.10445 0.0
O249 O 0.03143 0.53896 0.06305 0.0
O250 O 0.1122 0.46581 0.11268 0.0
O251 O 0.05447 0.42019 0.08722 0.0
O252 O 0.02964 0.46841 1.01133 0.0
O253 O 0.99514 0.44676 0.0495 0.0
O254 O 0.08735 0.49803 0.98161 0.0
O255 O 0.1019 0.46324 0.02267 0.0
H256 H 0.04698 0.62136 0.93272 0.0
H257 H 0.99512 0.64544 0.91651 0.0
H258 H 0.92829 0.58429 0.9907 0.0
H259 H 0.9809 0.5611 1.0074 0.0
H260 H 0.10779 0.39637 0.16436 0.0
H261 H 0.15788 0.37024 0.1719 0.0
H262 H 0.1754 0.39204 0.06651 0.0
H263 H 0.12565 0.41885 0.05962 0.0
C264 C 0.32467 0.27147 0.31191 0.0
C265 C 0.36625 0.29226 0.32988 0.0
C266 C 0.29604 0.24831 0.32923 0.0
C267 C 0.3097 0.24445 0.36496 0.0
C268 C 0.35149 0.26485 0.38336 0.0
C269 C 0.3792 0.28904 0.36573 0.0
C270 C 0.25142 0.22734 0.30902 0.0
C271 C 0.3671 0.26049 0.42137 0.0
C272 C 0.23198 0.20234 0.42054 0.0
C273 C 0.22887 0.16746 0.4188 0.0
C274 C 0.25756 0.22767 0.40236 0.0
C275 C 0.28067 0.2177 0.38256 0.0
C276 C 0.2766 0.18219 0.37987 0.0
C277 C 0.25053 0.1574 0.39801 0.0
C278 C 0.26051 0.26516 0.40491 0.0
C279 C 0.30089 0.17071 0.35895 0.0
H280 H 0.3144 0.27258 0.2839 0.0
H281 H 0.41098 0.30516 0.38001 0.0
H282 H 0.2442 0.19852 0.30586 0.0
H283 H 0.22987 0.23051 0.32395 0.0
H284 H 0.2451 0.23585 0.2823 0.0
H285 H 0.40053 0.27843 0.43191 0.0
H286 H 0.34876 0.26607 0.43835 0.0
H287 H 0.3628 0.23249 0.42345 0.0
H288 H 0.21481 0.20985 0.43646 0.0
H289 H 0.2484 0.13045 0.3971 0.0
H290 H 0.25413 0.27321 0.37803 0.0
H291 H 0.29253 0.28404 0.41872 0.0
H292 H 0.23838 0.26787 0.41949 0.0
H293 H 0.29504 0.17698 0.33127 0.0
H294 H 0.29277 0.14169 0.35845 0.0
H295 H 0.3347 0.18568 0.37073 0.0
C296 C 0.32921 0.87548 0.79971 0.0
C297 C 0.33972 0.85701 0.77538 0.0
C298 C 0.35621 0.89152 0.83277 0.0
C299 C 0.39359 0.88725 0.84281 0.0
C300 C 0.4031 0.86657 0.81966 0.0
C301 C 0.37676 0.85259 0.78593 0.0
C302 C 0.3456 0.91438 0.85622 0.0
C303 C 0.44185 0.86013 0.83011 0.0
C304 C 0.48698 0.9595 0.905 0.0
C305 C 0.48433 0.94623 0.93769 0.0
C306 C 0.45705 0.94085 0.87412 0.0
C307 C 0.42473 0.90732 0.87581 0.0
C308 C 0.42249 0.89336 0.90878 0.0
C309 C 0.45188 0.91353 0.93964 0.0
C310 C 0.45969 0.95739 0.83982 0.0
C311 C 0.3893 0.85722 0.91147 0.0
H312 H 0.30011 0.87805 0.79285 0.0
H313 H 0.38605 0.839 0.76768 0.0
H314 H 0.34387 0.90404 0.88224 0.0
H315 H 0.37048 0.94201 0.86126 0.0
H316 H 0.31552 0.91539 0.84428 0.0
H317 H 0.44157 0.83924 0.81154 0.0
H318 H 0.4697 0.88517 0.83043 0.0
H319 H 0.44507 0.85192 0.85722 0.0
H320 H 0.51183 0.98516 0.90378 0.0
H321 H 0.45001 0.9035 0.96512 0.0
H322 H 0.42978 0.95859 0.82777 0.0
H323 H 0.46528 0.9407 0.82066 0.0
H324 H 0.48503 0.98479 0.84365 0.0
H325 H 0.35873 0.85845 0.90724 0.0
H326 H 0.39577 0.84798 0.93778 0.0
H327 H 0.38669 0.83713 0.89066 0.0
C328 C 0.62123 0.39108 0.73772 0.0
C329 C 0.63964 0.36774 0.73373 0.0
C330 C 0.62198 0.41673 0.71431 0.0
C331 C 0.6416 0.41927 0.68583 0.0
C332 C 0.66084 0.3961 0.68181 0.0
C333 C 0.65968 0.37062 0.70579 0.0
C334 C 0.60093 0.44066 0.7197 0.0
C335 C 0.68177 0.39769 0.65168 0.0
C336 C 0.59788 0.45874 0.60889 0.0
C337 C 0.62748 0.49439 0.61377 0.0
C338 C 0.60358 0.43362 0.63063 0.0
C339 C 0.63908 0.4445 0.65913 0.0
C340 C 0.6696 0.48033 0.6639 0.0
C341 C 0.66364 0.50478 0.64095 0.0
C342 C 0.57048 0.39571 0.62395 0.0
C343 C 0.70758 0.49324 0.69425 0.0
H344 H 0.60574 0.38897 0.75923 0.0
H345 H 0.67411 0.35282 0.70237 0.0
H346 H 0.62295 0.46905 0.7211 0.0
H347 H 0.57435 0.43526 0.69682 0.0
H348 H 0.58912 0.43672 0.74423 0.0
H349 H 0.69699 0.37911 0.65309 0.0
H350 H 0.65848 0.39082 0.62605 0.0
H351 H 0.70553 0.42519 0.65183 0.0
H352 H 0.56935 0.45051 0.5886 0.0
H353 H 0.6865 0.53231 0.64516 0.0
H354 H 0.55359 0.39032 0.6455 0.0
H355 H 0.58483 0.3766 0.62396 0.0
H356 H 0.54754 0.39051 0.5983 0.0
H357 H 0.698 0.49276 0.71967 0.0
H358 H 0.73014 0.52082 0.69261 0.0
H359 H 0.72342 0.47523 0.69482 0.0
C360 C 0.98223 0.63315 0.25214 0.0
C361 C 0.9395 0.62504 0.24661 0.0
C362 C 0.99784 0.61682 0.22938 0.0
C363 C 0.9706 0.5919 0.19941 0.0
C364 C 0.92744 0.58325 0.19418 0.0
C365 C 0.91274 0.59972 0.21736 0.0
C366 C 0.04397 0.62718 0.23685 0.0
C367 C 0.89651 0.55722 0.16314 0.0
C368 C 1.01029 0.57627 0.11706 0.0
C369 C 1.01474 0.54416 0.12155 0.0
C370 C 0.99709 0.5922 0.14218 0.0
C371 C 0.98688 0.57575 0.17295 0.0
C372 C 0.99093 0.54313 0.17743 0.0
C373 C 1.00503 0.52816 0.15227 0.0
C374 C 0.99415 0.62699 0.1357 0.0
C375 C 0.97995 0.52367 0.20889 0.0
H376 H 1.00377 0.65318 0.27372 0.0
H377 H 0.87985 0.59352 0.21172 0.0
H378 H 0.05007 0.603 0.23841 0.0
H379 H 0.05656 0.64087 0.21477 0.0
H380 H 0.06103 0.64516 0.26194 0.0
H381 H 0.86387 0.55163 0.16346 0.0
H382 H 0.90288 0.56809 0.13803 0.0
H383 H 0.89978 0.5317 0.16318 0.0
H384 H 1.0178 0.58946 0.09396 0.0
H385 H 1.00805 0.50346 0.15659 0.0
H386 H 1.01341 0.64729 0.1588 0.0
H387 H 0.96153 0.62335 0.13274 0.0
H388 H 1.00462 0.6374 0.11159 0.0
H389 H 0.99921 0.54121 0.2338 0.0
H390 H 0.98467 0.49877 0.20902 0.0
H391 H 0.94694 0.51678 0.20879 0.0
C392 C 0.47893 0.27661 0.24477 0.0
C393 C 0.51602 0.2988 0.26882 0.0
C394 C 0.47948 0.25625 0.21575 0.0
C395 C 0.51799 0.25796 0.21119 0.0
C396 C 0.55563 0.28258 0.23371 0.0
C397 C 0.55418 0.30282 0.26229 0.0
C398 C 0.43875 0.23071 0.19181 0.0
C399 C 0.59728 0.2853 0.22954 0.0
C400 C 0.51415 0.16999 0.1781 0.0
C401 C 0.51405 0.17367 0.14236 0.0
C402 C 0.51621 0.19759 0.20077 0.0
C403 C 0.51843 0.22978 0.18738 0.0
C404 C 0.51966 0.23415 0.15151 0.0
C405 C 0.51711 0.20581 0.12925 0.0
C406 C 0.51476 0.19179 0.23886 0.0
C407 C 0.52243 0.2682 0.13638 0.0
H408 H 0.44942 0.27352 0.24987 0.0
H409 H 0.58286 0.32014 0.28083 0.0
H410 H 0.44018 0.23258 0.16362 0.0
H411 H 0.43281 0.20294 0.19711 0.0
H412 H 0.41215 0.23593 0.19593 0.0
H413 H 0.62348 0.30931 0.24549 0.0
H414 H 0.60134 0.26134 0.23837 0.0
H415 H 0.59891 0.28613 0.20134 0.0
H416 H 0.51124 0.14497 0.18811 0.0
H417 H 0.51734 0.2087 0.1016 0.0
H418 H 0.48629 0.1928 0.24417 0.0
H419 H 0.54192 0.2133 0.25699 0.0
H420 H 0.51471 0.16571 0.24531 0.0
H421 H 0.49173 0.2692 0.13234 0.0
H422 H 0.53128 0.26996 0.11051 0.0
H423 H 0.54537 0.29191 0.15492 0.0
C424 C 0.21728 0.87991 0.69575 0.0
C425 C 0.23315 0.86441 0.67345 0.0
C426 C 0.19378 0.8987 0.68246 0.0
C427 C 0.18447 0.90119 0.64569 0.0
C428 C 0.19873 0.88437 0.62271 0.0
C429 C 0.2233 0.86659 0.63687 0.0
C430 C 0.17974 0.91663 0.70799 0.0
C431 C 0.18872 0.88572 0.58321 0.0
C432 C 0.09587 0.92784 0.6102 0.0
C433 C 0.1176 0.9641 0.6068 0.0
C434 C 0.11717 0.90688 0.62228 0.0
C435 C 0.16126 0.92264 0.63165 0.0
C436 C 0.18331 0.95932 0.62863 0.0
C437 C 0.16126 0.97951 0.61608 0.0
C438 C 0.0925 0.86777 0.62458 0.0
C439 C 0.23028 0.97728 0.63868 0.0
H440 H 0.22339 0.8776 0.72387 0.0
H441 H 0.2355 0.85513 0.61925 0.0
H442 H 0.19307 0.94581 0.7064 0.0
H443 H 0.14539 0.9067 0.70071 0.0
H444 H 0.18931 0.91199 0.73583 0.0
H445 H 0.19881 0.86863 0.56868 0.0
H446 H 0.15476 0.87698 0.57304 0.0
H447 H 0.20441 0.91357 0.57729 0.0
H448 H 0.06216 0.91559 0.60263 0.0
H449 H 0.17833 1.00746 0.61339 0.0
H450 H 0.09929 0.86186 0.65231 0.0
H451 H 0.10184 0.85144 0.60828 0.0
H452 H 0.05843 0.85936 0.61542 0.0
H453 H 0.24171 0.97457 0.66678 0.0
H454 H 0.24276 1.00608 0.63508 0.0
H455 H 0.24306 0.96408 0.62236 0.0
C456 C 0.80564 0.32226 0.86248 0.0
C457 C 0.7783 0.33741 0.84835 0.0
C458 C 0.84222 0.34186 0.88831 0.0
C459 C 0.85219 0.37776 0.8997 0.0
C460 C 0.82644 0.39403 0.88362 0.0
C461 C 0.78959 0.37358 0.85829 0.0
C462 C 0.86901 0.32358 0.90466 0.0
C463 C 0.83668 0.43254 0.89449 0.0
C464 C 0.91761 0.41468 0.99325 0.0
C465 C 0.95696 0.43441 0.98697 0.0
C466 C 0.88309 0.39633 0.96496 0.0
C467 C 0.88832 0.39765 0.92974 0.0
C468 C 0.92802 0.41765 0.92332 0.0
C469 C 0.9618 0.43596 0.952 0.0
C470 C 0.84111 0.37521 0.97273 0.0
C471 C 0.93493 0.41935 0.88622 0.0
H472 H 0.79764 0.29455 0.85427 0.0
H473 H 0.76864 0.3855 0.84769 0.0
H474 H 0.90195 0.33967 0.90407 0.0
H475 H 0.86781 0.32113 0.93285 0.0
H476 H 0.85868 0.29647 0.89089 0.0
H477 H 0.81583 0.44216 0.87701 0.0
H478 H 0.83365 0.43557 0.92208 0.0
H479 H 0.86934 0.44986 0.89395 0.0
H480 H 0.91386 0.41341 0.02024 0.0
H481 H 0.99228 0.45109 0.947 0.0
H482 H 0.82956 0.34668 0.96268 0.0
H483 H 0.81826 0.38485 0.95878 0.0
H484 H 0.84216 0.37724 1.0015 0.0
H485 H 0.92634 0.39213 0.8737 0.0
H486 H 0.96778 0.43634 0.88578 0.0
H487 H 0.91462 0.43004 0.86972 0.0
C488 C 0.79591 0.61696 0.36633 0.0
C489 C 0.8366 0.64056 0.38396 0.0
C490 C 0.76365 0.60284 0.38484 0.0
C491 C 0.77194 0.61247 0.42197 0.0
C492 C 0.81326 0.63541 0.43987 0.0
C493 C 0.84471 0.6488 0.4209 0.0
C494 C 0.72028 0.57855 0.36442 0.0
C495 C 0.82421 0.64675 0.47918 0.0
C496 C 0.68591 0.60712 0.46925 0.0
C497 C 0.67724 0.57506 0.48463 0.0
C498 C 0.71537 0.61893 0.44795 0.0
C499 C 0.73791 0.59884 0.44238 0.0
C500 C 0.72946 0.56664 0.45818 0.0
C501 C 0.69909 0.55501 0.47852 0.0
C502 C 0.72226 0.65297 0.43127 0.0
C503 C 0.75295 0.54453 0.45397 0.0
H504 H 0.78887 0.61069 0.33785 0.0
H505 H 0.87591 0.6669 0.43501 0.0
H506 H 0.70831 0.55342 0.37671 0.0
H507 H 0.6991 0.59159 0.36542 0.0
H508 H 0.71906 0.5719 0.33624 0.0
H509 H 0.85792 0.66387 0.48949 0.0
H510 H 0.80648 0.66177 0.48497 0.0
H511 H 0.8153 0.62293 0.49377 0.0
H512 H 0.66885 0.62262 0.47312 0.0
H513 H 0.69283 0.53023 0.49013 0.0
H514 H 0.71778 0.64787 0.40222 0.0
H515 H 0.75475 0.67301 0.44182 0.0
H516 H 0.70079 0.6645 0.43632 0.0
H517 H 0.74891 0.53685 0.42546 0.0
H518 H 0.7425 0.51993 0.46735 0.0
H519 H 0.78671 0.56055 0.46519 0.0
C520 C 0.37323 0.34305 0.19483 0.0
C521 C 0.38654 0.36177 0.2287 0.0
C522 C 0.34108 0.34575 0.16951 0.0
C523 C 0.32169 0.3671 0.17886 0.0
C524 C 0.33776 0.38848 0.212 0.0
C525 C 0.37049 0.38593 0.2363 0.0
C526 C 0.32548 0.32332 0.13411 0.0
C527 C 0.31767 0.41121 0.22334 0.0
C528 C 0.24461 0.39315 0.1191 0.0
C529 C 0.20732 0.37046 0.12759 0.0
C530 C 0.28189 0.39027 0.13308 0.0
C531 C 0.28187 0.36438 0.15633 0.0
C532 C 0.24375 0.33941 0.16247 0.0
C533 C 0.20685 0.34266 0.14784 0.0
C534 C 0.32177 0.41695 0.12546 0.0
C535 C 0.24232 0.31126 0.18706 0.0
H536 H 0.3853 0.32397 0.18922 0.0
H537 H 0.38064 0.40004 0.26275 0.0
H538 H 0.2969 0.29914 0.13444 0.0
H539 H 0.31734 0.33818 0.11256 0.0
H540 H 0.34892 0.31465 0.12804 0.0
H541 H 0.33586 0.42815 0.24886 0.0
H542 H 0.31413 0.42872 0.20287 0.0
H543 H 0.28606 0.39373 0.2265 0.0
H544 H 0.24538 0.41486 0.10364 0.0
H545 H 0.17796 0.32462 0.15387 0.0
H546 H 0.34187 0.40379 0.12093 0.0
H547 H 0.33927 0.4375 0.14865 0.0
H548 H 0.31578 0.43059 0.10198 0.0
H549 H 0.26064 0.29704 0.18071 0.0
H550 H 0.20999 0.29137 0.18562 0.0
H551 H 0.25645 0.32422 0.21474 0.0
C552 C 0.66952 0.20085 0.83706 0.0
C553 C 0.65085 0.22477 0.83275 0.0
C554 C 0.65616 0.17236 0.85744 0.0
C555 C 0.62353 0.16779 0.87432 0.0
C556 C 0.60294 0.19063 0.86834 0.0
C557 C 0.61675 0.21878 0.84748 0.0
C558 C 0.67852 0.14836 0.86242 0.0
C559 C 0.56804 0.18674 0.88581 0.0
C560 C 0.569 0.08173 0.91343 0.0
C561 C 0.58978 0.09073 0.94931 0.0
C562 C 0.58057 0.10601 0.88852 0.0
C563 C 0.61275 0.14066 0.89995 0.0
C564 C 0.63432 0.14965 0.93616 0.0
C565 C 0.623 0.12435 0.96031 0.0
C566 C 0.55786 0.09476 0.85007 0.0
C567 C 0.66843 0.18641 0.94962 0.0
H568 H 0.69603 0.20552 0.82578 0.0
H569 H 0.60266 0.2375 0.84464 0.0
H570 H 0.69719 0.15352 0.89006 0.0
H571 H 0.65583 0.11993 0.85791 0.0
H572 H 0.69972 0.15274 0.84426 0.0
H573 H 0.55329 0.20484 0.87653 0.0
H574 H 0.54382 0.15887 0.88049 0.0
H575 H 0.58032 0.19285 0.91494 0.0
H576 H 0.54341 0.05564 0.90485 0.0
H577 H 0.63887 0.13146 0.98809 0.0
H578 H 0.58045 0.09974 0.83317 0.0
H579 H 0.54022 0.11088 0.84173 0.0
H580 H 0.5358 0.06608 0.84507 0.0
H581 H 0.69353 0.19244 0.93526 0.0
H582 H 0.68217 0.18921 0.97846 0.0
H583 H 0.65586 0.20669 0.94449 0.0
C584 C 0.91467 0.77751 0.37228 0.0
C585 C 0.94116 0.76033 0.372 0.0
C586 C 0.92862 0.81155 0.39112 0.0
C587 C 0.97064 0.82992 0.41023 0.0
C588 C 0.99821 0.81365 0.40852 0.0
C589 C 0.98321 0.77918 0.38967 0.0
C590 C 0.89767 0.82716 0.3918 0.0
C591 C 0.04339 0.83216 0.4277 0.0
C592 C 1.01043 0.93102 0.43688 0.0
C593 C 1.00947 0.93313 0.4729 0.0
C594 C 0.99898 0.89808 0.41665 0.0
C595 C 0.98516 0.86569 0.43223 0.0
C596 C 0.98366 0.86759 0.46853 0.0
C597 C 0.99616 0.90107 0.48839 0.0
C598 C 1.00185 0.89801 0.37844 0.0
C599 C 0.96843 0.83408 0.48641 0.0
H600 H 0.88213 0.76344 0.35883 0.0
H601 H 1.00399 0.76629 0.39023 0.0
H602 H 0.89449 0.83021 0.41934 0.0
H603 H 0.90887 0.8541 0.38284 0.0
H604 H 0.86646 0.81023 0.37473 0.0
H605 H 0.06163 0.81767 0.42164 0.0
H606 H 0.05742 0.85969 0.42044 0.0
H607 H 0.04599 0.83431 0.45669 0.0
H608 H 1.02087 0.95539 0.42443 0.0
H609 H 0.99527 0.90211 0.5161 0.0
H610 H 0.97049 0.88287 0.36091 0.0
H611 H 1.02148 0.8844 0.37383 0.0
H612 H 1.01515 0.92539 0.37059 0.0
H613 H 0.93617 0.81603 0.47226 0.0
H614 H 0.96887 0.83975 0.5146 0.0
H615 H 0.98809 0.81961 0.48514 0.0
C616 C 0.32242 0.72303 0.63952 0.0
C617 C 0.34047 0.75969 0.6506 0.0
C618 C 0.34719 0.70422 0.63991 0.0
C619 C 0.39103 0.72266 0.65151 0.0
C620 C 0.409 0.75904 0.66561 0.0
C621 C 0.38345 0.77712 0.66507 0.0
C622 C 0.32665 0.6653 0.6254 0.0
C623 C 0.45551 0.7796 0.67872 0.0
C624 C 0.46002 0.67245 0.66052 0.0
C625 C 0.471 0.6756 0.62771 0.0
C626 C 0.43366 0.68724 0.66874 0.0
C627 C 0.41818 0.70578 0.64361 0.0
C628 C 0.42918 0.70892 0.61048 0.0
C629 C 0.45529 0.69377 0.60295 0.0
C630 C 0.42224 0.6829 0.70415 0.0
C631 C 0.41381 0.72876 0.58303 0.0
H632 H 0.2891 0.70948 0.62882 0.0
H633 H 0.39739 0.80538 0.67424 0.0
H634 H 0.33237 0.66242 0.59877 0.0
H635 H 0.34006 0.64979 0.64257 0.0
H636 H 0.29249 0.65357 0.62296 0.0
H637 H 0.46405 0.80596 0.69332 0.0
H638 H 0.46867 0.76422 0.69633 0.0
H639 H 0.47023 0.78404 0.65581 0.0
H640 H 0.47176 0.65814 0.67964 0.0
H641 H 0.46418 0.69683 0.5778 0.0
H642 H 0.38831 0.66647 0.70011 0.0
H643 H 0.42924 0.70922 0.71786 0.0
H644 H 0.43906 0.66988 0.72164 0.0
H645 H 0.3793 0.71661 0.57588 0.0
H646 H 0.42503 0.72861 0.55851 0.0
H647 H 0.42444 0.75688 0.59406 0.0
C648 C 0.79063 0.72484 0.75001 0.0
C649 C 0.75284 0.72724 0.74838 0.0
C650 C 0.81859 0.74602 0.7305 0.0
C651 C 0.80858 0.77035 0.70965 0.0
C652 C 0.76953 0.7714 0.7066 0.0
C653 C 0.74193 0.74936 0.72545 0.0
C654 C 0.85958 0.74367 0.73357 0.0
C655 C 0.7578 0.79737 0.68517 0.0
C656 C 0.88705 0.85919 0.69438 0.0
C657 C 0.883 0.85409 0.65782 0.0
C658 C 0.86557 0.83112 0.71237 0.0
C659 C 0.83965 0.79711 0.69326 0.0
C660 C 0.8383 0.7911 0.65693 0.0
C661 C 0.86001 0.8198 0.63953 0.0
C662 C 0.86777 0.83879 0.7511 0.0
C663 C 0.81136 0.75512 0.63581 0.0
H664 H 0.79915 0.70776 0.76769 0.0
H665 H 0.71228 0.75065 0.72351 0.0
H666 H 0.86646 0.74287 0.70709 0.0
H667 H 0.88499 0.76773 0.75002 0.0
H668 H 0.85985 0.71975 0.74596 0.0
H669 H 0.72571 0.79405 0.68487 0.0
H670 H 0.77972 0.82514 0.69641 0.0
H671 H 0.76015 0.7939 0.65745 0.0
H672 H 0.90564 0.88561 0.70865 0.0
H673 H 0.85695 0.81583 0.61123 0.0
H674 H 0.87259 0.81788 0.76633 0.0
H675 H 0.83785 0.83862 0.75399 0.0
H676 H 0.8932 0.86515 0.76298 0.0
H677 H 0.81403 0.73345 0.65106 0.0
H678 H 0.81973 0.75302 0.61017 0.0
H679 H 0.77831 0.75086 0.63016 0.0
C680 C 0.77988 0.14983 0.27147 0.0
C681 C 0.79724 0.1868 0.28093 0.0
C682 C 0.75655 0.13467 0.2371 0.0
C683 C 0.75023 0.15701 0.21156 0.0
C684 C 0.76888 0.19446 0.22051 0.0
C685 C 0.79213 0.20894 0.25517 0.0
C686 C 0.73735 0.09459 0.22851 0.0
C687 C 0.76327 0.21909 0.19377 0.0
C688 C 0.70888 0.11245 0.11699 0.0
C689 C 0.66583 0.10123 0.1128 0.0
C690 C 0.73707 0.1322 0.14842 0.0
C691 C 0.7218 0.14072 0.17635 0.0
C692 C 0.67864 0.13091 0.17168 0.0
C693 C 0.65119 0.11138 0.13991 0.0
C694 C 0.78295 0.14256 0.15229 0.0
C695 C 0.66119 0.13954 0.20091 0.0
H696 H 0.78323 0.13252 0.29132 0.0
H697 H 0.80599 0.23758 0.26225 0.0
H698 H 0.70293 0.08418 0.22201 0.0
H699 H 0.7463 0.08723 0.20492 0.0
H700 H 0.74699 0.08117 0.25085 0.0
H701 H 0.78251 0.24764 0.20407 0.0
H702 H 0.77161 0.21333 0.16917 0.0
H703 H 0.73012 0.21451 0.18648 0.0
H704 H 0.7206 0.10501 0.09608 0.0
H705 H 0.61809 0.10299 0.1369 0.0
H706 H 0.79347 0.12727 0.17209 0.0
H707 H 0.80123 0.17128 0.16215 0.0
H708 H 0.79017 0.13724 0.12691 0.0
H709 H 0.66683 0.12519 0.22385 0.0
H710 H 0.62722 0.13187 0.19232 0.0
H711 H 0.6772 0.1685 0.2102 0.0
C712 C 0.48315 0.66728 0.3375 0.0
C713 C 0.52068 0.69262 0.33165 0.0
C714 C 0.4828 0.64392 0.36359 0.0
C715 C 0.52092 0.64554 0.38407 0.0
C716 C 0.55885 0.67218 0.37928 0.0
C717 C 0.55826 0.6953 0.35321 0.0
C718 C 0.44161 0.61636 0.36802 0.0
C719 C 0.60026 0.67493 0.40025 0.0
C720 C 0.52702 0.59557 0.46578 0.0
C721 C 0.5272 0.56434 0.45133 0.0
C722 C 0.52359 0.62179 0.44418 0.0
C723 C 0.52145 0.61708 0.4074 0.0
C724 C 0.52149 0.58542 0.39283 0.0
C725 C 0.52377 0.55934 0.41482 0.0
C726 C 0.5224 0.65453 0.46072 0.0
C727 C 0.52021 0.57942 0.35404 0.0
H728 H 0.45404 0.66487 0.32074 0.0
H729 H 0.5874 0.71464 0.34872 0.0
H730 H 0.43709 0.58955 0.35748 0.0
H731 H 0.44117 0.61565 0.39648 0.0
H732 H 0.41505 0.62162 0.35382 0.0
H733 H 0.62676 0.69895 0.39574 0.0
H734 H 0.60119 0.67584 0.42898 0.0
H735 H 0.60452 0.65093 0.39257 0.0
H736 H 0.52915 0.59933 0.4939 0.0
H737 H 0.52416 0.53535 0.40351 0.0
H738 H 0.49375 0.65704 0.44713 0.0
H739 H 0.54927 0.67879 0.45732 0.0
H740 H 0.52315 0.65376 0.48943 0.0
H741 H 0.49185 0.58032 0.33751 0.0
H742 H 0.52046 0.55341 0.3468 0.0
H743 H 0.54744 0.60104 0.34737 0.0
C744 C 0.20767 0.41211 0.84795 0.0
C745 C 0.1789 0.38293 0.82279 0.0
C746 C 0.19605 0.42601 0.87574 0.0
C747 C 0.1543 0.41076 0.87963 0.0
C748 C 0.12518 0.38097 0.85484 0.0
C749 C 0.1376 0.36764 0.82715 0.0
C750 C 0.22877 0.45754 0.90098 0.0
C751 C 0.08037 0.36327 0.85726 0.0
C752 C 0.13019 0.43078 0.9694 0.0
C753 C 0.11634 0.45791 0.96281 0.0
C754 C 0.14236 0.4153 0.94302 0.0
C755 C 0.14097 0.42677 0.90853 0.0
C756 C 0.12706 0.45414 0.90185 0.0
C757 C 0.1151 0.46909 0.9286 0.0
C758 C 0.15667 0.38639 0.95215 0.0
C759 C 0.12472 0.46781 0.8661 0.0
H760 H 0.23988 0.42422 0.84626 0.0
H761 H 0.11435 0.3455 0.80836 0.0
H762 H 0.21997 0.48029 0.89943 0.0
H763 H 0.23077 0.45073 0.9286 0.0
H764 H 0.26 0.46625 0.89521 0.0
H765 H 0.06156 0.33976 0.83707 0.0
H766 H 0.07856 0.35455 0.88394 0.0
H767 H 0.06633 0.38267 0.85364 0.0
H768 H 0.13136 0.42138 0.99526 0.0
H769 H 0.10448 0.48974 0.92245 0.0
H770 H 0.18881 0.39467 0.94871 0.0
H771 H 0.13649 0.36172 0.93381 0.0
H772 H 0.15609 0.38013 0.97978 0.0
H773 H 0.15599 0.47884 0.86021 0.0
H774 H 0.11309 0.48889 0.86461 0.0
H775 H 0.10385 0.44553 0.84516 0.0
C776 C 0.7002 0.7591 0.86187 0.0
C777 C 0.67156 0.73845 0.83125 0.0
C778 C 0.69436 0.78615 0.87871 0.0
C779 C 0.65908 0.79247 0.86425 0.0
C780 C 0.62901 0.77046 0.83418 0.0
C781 C 0.63574 0.74355 0.81783 0.0
C782 C 0.72717 0.80927 0.91064 0.0
C783 C 0.59119 0.77672 0.81812 0.0
C784 C 0.63885 0.85372 0.92347 0.0
C785 C 0.66007 0.88681 0.91193 0.0
C786 C 0.63681 0.82233 0.90726 0.0
C787 C 0.65612 0.82428 0.87878 0.0
C788 C 0.67611 0.85738 0.86611 0.0
C789 C 0.67809 0.88832 0.88304 0.0
C790 C 0.61541 0.78737 0.92138 0.0
C791 C 0.69701 0.86039 0.83567 0.0
H792 H 0.72808 0.75503 0.87168 0.0
H793 H 0.61412 0.72759 0.79375 0.0
H794 H 0.74305 0.83678 0.9039 0.0
H795 H 0.71261 0.81095 0.93269 0.0
H796 H 0.75101 0.79903 0.92004 0.0
H797 H 0.56858 0.75482 0.79738 0.0
H798 H 0.57533 0.77937 0.83886 0.0
H799 H 0.60096 0.80209 0.80598 0.0
H800 H 0.62417 0.8524 0.94538 0.0
H801 H 0.69491 0.91388 0.87431 0.0
H802 H 0.63876 0.77745 0.93345 0.0
H803 H 0.59269 0.76692 0.8995 0.0
H804 H 0.59893 0.78996 0.9417 0.0
H805 H 0.72425 0.854 0.8437 0.0
H806 H 0.70786 0.88756 0.82709 0.0
H807 H 0.67533 0.84091 0.81267 0.0
C808 C 0.86712 0.14471 0.39389 0.0
C809 C 0.88577 0.18201 0.39574 0.0
C810 C 0.88828 0.12611 0.41226 0.0
C811 C 0.92937 0.14523 0.43285 0.0
C812 C 0.94824 0.18304 0.43524 0.0
C813 C 0.92604 0.20104 0.4168 0.0
C814 C 0.86673 0.08591 0.40928 0.0
C815 C 0.99199 0.2044 0.45685 0.0
C816 C 0.96641 0.09426 0.50193 0.0
C817 C 0.99063 0.08309 0.48516 0.0
C818 C 0.94784 0.11582 0.48588 0.0
C819 C 0.95231 0.12534 0.45164 0.0
C820 C 0.97664 0.11394 0.43452 0.0
C821 C 0.99621 0.09353 0.45182 0.0
C822 C 0.92329 0.1283 0.50551 0.0
C823 C 0.98126 0.12268 0.39764 0.0
H824 H 0.83574 0.13 0.37795 0.0
H825 H 0.94049 0.22989 0.41814 0.0
H826 H 0.88481 0.07415 0.39796 0.0
H827 H 0.86515 0.07706 0.43594 0.0
H828 H 0.83461 0.0751 0.39235 0.0
H829 H 1.00163 0.2336 0.45705 0.0
H830 H 0.9946 0.19781 0.48455 0.0
H831 H 1.01405 0.19731 0.44596 0.0
H832 H 0.96277 0.08676 0.52805 0.0
H833 H 1.01506 0.08497 0.43891 0.0
H834 H 0.89018 0.11691 0.49089 0.0
H835 H 0.93515 0.15777 0.50713 0.0
H836 H 0.92492 0.12045 0.53279 0.0
H837 H 0.95022 0.11118 0.37893 0.0
H838 H 1.00155 0.11216 0.38813 0.0
H839 H 0.99451 0.15198 0.397 0.0
C840 C 0.36265 0.65871 0.20287 0.0
C841 C 0.36936 0.69435 0.20953 0.0
C842 C 0.32428 0.63317 0.18302 0.0
C843 C 0.29173 0.64346 0.16985 0.0
C844 C 0.29754 0.67894 0.17835 0.0
C845 C 0.33645 0.70407 0.19785 0.0
C846 C 0.31945 0.5957 0.17434 0.0
C847 C 0.26335 0.69081 0.16542 0.0
C848 C 0.21658 0.59483 0.0827 0.0
C849 C 0.18129 0.5721 0.09377 0.0
C850 C 0.25264 0.61801 0.10727 0.0
C851 C 0.25358 0.61834 0.14391 0.0
C852 C 0.21831 0.59492 0.15537 0.0
C853 C 0.1825 0.57201 0.13011 0.0
C854 C 0.28954 0.64261 0.09393 0.0
C855 C 0.21814 0.59457 0.19418 0.0
H856 H 0.38813 0.65118 0.21166 0.0
H857 H 0.34145 0.73153 0.20336 0.0
H858 H 0.29035 0.57591 0.18012 0.0
H859 H 0.31717 0.59081 0.14563 0.0
H860 H 0.34608 0.59105 0.18942 0.0
H861 H 0.27105 0.7179 0.17784 0.0
H862 H 0.25806 0.69114 0.13628 0.0
H863 H 0.23374 0.6718 0.17108 0.0
H864 H 0.21579 0.59505 0.05465 0.0
H865 H 0.15521 0.55451 0.13877 0.0
H866 H 0.3175 0.63837 0.10604 0.0
H867 H 0.2965 0.6708 0.10185 0.0
H868 H 0.2841 0.63848 0.06465 0.0
H869 H 0.24431 0.58916 0.20888 0.0
H870 H 0.18858 0.5742 0.19878 0.0
H871 H 0.22277 0.62116 0.20548 0.0
C872 C 0.31845 0.43323 0.68269 0.0
C873 C 0.33183 0.41911 0.71294 0.0
C874 C 0.34242 0.44441 0.65687 0.0
C875 C 0.38136 0.44231 0.66147 0.0
C876 C 0.3948 0.42798 0.69194 0.0
C877 C 0.3701 0.41671 0.717 0.0
C878 C 0.3264 0.45914 0.62487 0.0
C879 C 0.43605 0.42547 0.69873 0.0
C880 C 0.43638 0.4481 0.58479 0.0
C881 C 0.46566 0.48402 0.59 0.0
C882 C 0.40811 0.43445 0.60697 0.0
C883 C 0.40921 0.45686 0.63576 0.0
C884 C 0.43853 0.49313 0.64097 0.0
C885 C 0.46584 0.50619 0.6181 0.0
C886 C 0.3774 0.39575 0.59991 0.0
C887 C 0.44202 0.51811 0.67153 0.0
H888 H 0.28946 0.43595 0.67932 0.0
H889 H 0.38126 0.40653 0.74051 0.0
H890 H 0.34751 0.48765 0.62538 0.0
H891 H 0.32605 0.44477 0.60031 0.0
H892 H 0.29454 0.45691 0.62371 0.0
H893 H 0.44163 0.41277 0.72303 0.0
H894 H 0.43743 0.40983 0.67591 0.0
H895 H 0.46169 0.45255 0.70158 0.0
H896 H 0.43574 0.43044 0.56349 0.0
H897 H 0.48834 0.53385 0.62303 0.0
H898 H 0.34538 0.39349 0.59765 0.0
H899 H 0.38418 0.38137 0.62245 0.0
H900 H 0.37836 0.38231 0.5753 0.0
H901 H 0.41154 0.51884 0.6704 0.0
H902 H 0.4656 0.54573 0.67164 0.0
H903 H 0.45071 0.50824 0.69693 0.0
C904 C 0.75795 0.65201 0.86231 0.0
C905 C 0.72402 0.61838 0.85605 0.0
C906 C 0.79817 0.65596 0.87856 0.0
C907 C 0.80414 0.62579 0.88992 0.0
C908 C 0.7698 0.592 0.88456 0.0
C909 C 0.73023 0.58868 0.86741 0.0
C910 C 0.83419 0.69232 0.88355 0.0
C911 C 0.7748 0.5593 0.89696 0.0
C912 C 0.90688 0.61974 0.89956 0.0
C913 C 0.92138 0.62413 0.93647 0.0
C914 C 0.86974 0.62204 0.88405 0.0
C915 C 0.84644 0.62882 0.90598 0.0
C916 C 0.86183 0.635 0.94322 0.0
C917 C 0.89916 0.63245 0.95808 0.0
C918 C 0.85428 0.6152 0.84423 0.0
C919 C 0.83788 0.64251 0.96742 0.0
H920 H 0.7531 0.67533 0.85494 0.0
H921 H 0.7039 0.56283 0.86342 0.0
H922 H 0.84945 0.70049 0.9121 0.0
H923 H 0.85791 0.69126 0.87004 0.0
H924 H 0.82433 0.71302 0.87293 0.0
H925 H 0.74465 0.5353 0.89192 0.0
H926 H 0.79588 0.55367 0.88324 0.0
H927 H 0.78923 0.56408 0.92577 0.0
H928 H 0.9235 0.61267 0.88272 0.0
H929 H 0.91047 0.63612 0.98661 0.0
H930 H 0.84592 0.63678 0.834 0.0
H931 H 0.82573 0.58983 0.83691 0.0
H932 H 0.87775 0.61333 0.83085 0.0
H933 H 0.82886 0.66413 0.95854 0.0
H934 H 0.85609 0.65029 0.99536 0.0
H935 H 0.80878 0.61834 0.96637 0.0
C936 C 0.46752 0.82986 0.19327 0.0
C937 C 0.48922 0.80889 0.2037 0.0
C938 C 0.48135 0.85697 0.17134 0.0
C939 C 0.51753 0.8631 0.15891 0.0
C940 C 0.54012 0.84255 0.17005 0.0
C941 C 0.5259 0.81595 0.1925 0.0
C942 C 0.45659 0.87846 0.16075 0.0
C943 C 0.57857 0.84783 0.15724 0.0
C944 C 0.5294 0.90502 0.07246 0.0
C945 C 0.55789 0.94028 0.08478 0.0
C946 C 0.51551 0.87984 0.09625 0.0
C947 C 0.5309 0.89006 0.13332 0.0
C948 C 0.55941 0.92592 0.14577 0.0
C949 C 0.57251 0.95058 0.12135 0.0
C950 C 0.48483 0.84213 0.08168 0.0
C951 C 0.57658 0.9381 0.18491 0.0
H952 H 0.43922 0.82467 0.20194 0.0
H953 H 0.54255 0.7996 0.20006 0.0
H954 H 0.47714 0.9074 0.16697 0.0
H955 H 0.44334 0.87323 0.13173 0.0
H956 H 0.43071 0.87198 0.17436 0.0
H957 H 0.59347 0.83067 0.16921 0.0
H958 H 0.5703 0.84158 0.12801 0.0
H959 H 0.60157 0.87611 0.16361 0.0
H960 H 0.51831 0.89706 0.04414 0.0
H961 H 0.59488 0.97782 0.13083 0.0
H962 H 0.45667 0.83466 0.09239 0.0
H963 H 0.49881 0.82336 0.0902 0.0
H964 H 0.47517 0.8386 0.05229 0.0
H965 H 0.55074 0.93259 0.19832 0.0
H966 H 0.59756 0.96703 0.19036 0.0
H967 H 0.59416 0.92292 0.19683 0.0
C968 C 0.12582 0.26683 0.70901 0.0
C969 C 0.16547 0.28193 0.73216 0.0
C970 C 0.11117 0.23372 0.68777 0.0
C971 C 0.13654 0.21479 0.68953 0.0
C972 C 0.17615 0.22959 0.71366 0.0
C973 C 0.1901 0.2628 0.73425 0.0
C974 C 0.06887 0.21947 0.6626 0.0
C975 C 0.20451 0.21083 0.71704 0.0
C976 C 0.08829 0.11389 0.65857 0.0
C977 C 0.09558 0.11249 0.62444 0.0
C978 C 0.10047 0.14663 0.67937 0.0
C979 C 0.12176 0.1795 0.66657 0.0
C980 C 0.12967 0.17833 0.63223 0.0
C981 C 0.11603 0.14506 0.61149 0.0
C982 C 0.09035 0.14598 0.71521 0.0
C983 C 0.15298 0.21231 0.6175 0.0
H984 H 0.10693 0.28169 0.70638 0.0
H985 H 0.22108 0.27445 0.75147 0.0
H986 H 0.0723 0.21844 0.63492 0.0
H987 H 0.04972 0.19181 0.66722 0.0
H988 H 0.05199 0.23617 0.66541 0.0
H989 H 0.23365 0.22498 0.73781 0.0
H990 H 0.18832 0.18327 0.72352 0.0
H991 H 0.21275 0.20874 0.69137 0.0
H992 H 0.07222 0.08914 0.66897 0.0
H993 H 0.12196 0.14455 0.58529 0.0
H994 H 0.0721 0.16173 0.71666 0.0
H995 H 0.1195 0.15857 0.7362 0.0
H996 H 0.0723 0.11845 0.72097 0.0
H997 H 0.13597 0.22946 0.61587 0.0
H998 H 0.15728 0.20718 0.59075 0.0
H999 H 0.18403 0.22752 0.63553 0.0
C1000 C 0.81094 0.34957 0.38645 0.0
C1001 C 0.80035 0.31312 0.38812 0.0
C1002 C 0.78391 0.36463 0.392 0.0
C1003 C 0.74537 0.34269 0.39964 0.0
C1004 C 0.73378 0.30562 0.40013 0.0
C1005 C 0.7613 0.29124 0.39429 0.0
C1006 C 0.79721 0.40421 0.39087 0.0
C1007 C 0.69298 0.28133 0.40823 0.0
C1008 C 0.7003 0.38497 0.45707 0.0
C1009 C 0.66735 0.38702 0.43241 0.0
C1010 C 0.72596 0.37082 0.44661 0.0
C1011 C 0.71895 0.35888 0.41046 0.0
C1012 C 0.68618 0.36149 0.38525 0.0
C1013 C 0.66047 0.37525 0.39661 0.0
C1014 C 0.76006 0.36795 0.47443 0.0
C1015 C 0.6782 0.34966 0.3464 0.0
H1016 H 0.84087 0.36644 0.38136 0.0
H1017 H 0.75233 0.26294 0.39527 0.0
H1018 H 0.77213 0.40929 0.37359 0.0
H1019 H 0.80293 0.41731 0.41783 0.0
H1020 H 0.82604 0.41687 0.38105 0.0
H1021 H 0.68728 0.2528 0.40522 0.0
H1022 H 0.69294 0.28874 0.43582 0.0
H1023 H 0.66677 0.28453 0.39051 0.0
H1024 H 0.70533 0.39361 0.48483 0.0
H1025 H 0.63514 0.37704 0.3775 0.0
H1026 H 0.79065 0.38274 0.468 0.0
H1027 H 0.75492 0.33961 0.47476 0.0
H1028 H 0.76152 0.37861 0.50138 0.0
H1029 H 0.70652 0.36452 0.33654 0.0
H1030 H 0.65191 0.354 0.33016 0.0
H1031 H 0.67115 0.32092 0.34242 0.0
loop_
_geom_bond_atom_site_label_1
_geom_bond_atom_site_label_2
_geom_bond_distance
_geom_bond_site_symmetry_2
_ccdc_geom_bond_type
H0 C7 0.929 . S
H1 C10 0.930 . S
H2 C12 0.929 . S
H3 C4 0.969 . S
C4 H3 0.969 . S
C4 O5 1.550 . S
C4 H6 0.973 . S
O5 C4 1.550 . S
O5 C11 1.412 . S
H6 C4 0.973 . S
C7 H0 0.929 . S
C7 C8 1.400 . S
C7 C9 1.364 . S
C8 C7 1.400 . S
C8 C12 1.377 . S
C9 C7 1.364 . S
C9 C10 1.374 . S
C10 H1 0.930 . S
C10 C9 1.374 . S
C10 C11 1.383 . S
C11 O5 1.412 . S
C11 C10 1.383 . S
C11 C12 1.394 . S
C12 H2 0.929 . S
C12 C8 1.377 . S
C12 C11 1.394 . S
H13 C20 0.929 . S
H14 C23 0.930 . S
H15 C25 0.929 . S
H16 C17 0.969 . S
C17 H16 0.969 . S
C17 O18 1.550 . S
C17 H19 0.973 . S
O18 C17 1.550 . S
O18 C24 1.412 . S
H19 C17 0.973 . S
C20 H13 0.929 . S
C20 C21 1.400 . S
C20 C22 1.364 . S
C21 C20 1.400 . S
C21 C25 1.377 . S
C22 C20 1.364 . S
C22 C23 1.374 . S
C23 H14 0.930 . S
C23 C22 1.374 . S
C23 C24 1.383 . S
C24 O18 1.412 . S
C24 C23 1.383 . S
C24 C25 1.394 . S
C25 H15 0.929 . S
C25 C21 1.377 . S
C25 C24 1.394 . S
H26 C33 0.929 . S
H27 C36 0.930 . S
H28 C38 0.929 . S
H29 C30 0.969 . S
C30 H29 0.969 . S
C30 O31 1.550 . S
C30 H32 0.973 . S
O31 C30 1.550 . S
O31 C37 1.412 . S
H32 C30 0.973 . S
C33 H26 0.929 . S
C33 C34 1.400 . S
C33 C35 1.364 . S
C34 C33 1.400 . S
C34 C38 1.377 . S
C35 C33 1.364 . S
C35 C36 1.374 . S
C36 H27 0.930 . S
C36 C35 1.374 . S
C36 C37 1.383 . S
C37 O31 1.412 . S
C37 C36 1.383 . S
C37 C38 1.394 . S
C38 H28 0.929 . S
C38 C34 1.377 . S
C38 C37 1.394 . S
H39 C46 0.929 . S
H40 C49 0.930 . S
H41 C51 0.929 . S
H42 C43 0.969 . S
C43 H42 0.969 . S
C43 O44 1.550 . S
C43 H45 0.973 . S
O44 C43 1.550 . S
O44 C50 1.412 . S
H45 C43 0.973 . S
C46 H39 0.929 . S
C46 C47 1.400 . S
C46 C48 1.364 . S
C47 C46 1.400 . S
C47 C51 1.377 . S
C48 C46 1.364 . S
C48 C49 1.374 . S
C49 H40 0.930 . S
C49 C48 1.374 . S
C49 C50 1.383 . S
C50 O44 1.412 . S
C50 C49 1.383 . S
C50 C51 1.394 . S
C51 H41 0.929 . S
C51 C47 1.377 . S
C51 C50 1.394 . S
H52 C59 0.929 . S
H53 C62 0.930 . S
H54 C64 0.929 . S
H55 C56 0.969 . S
C56 H55 0.969 . S
C56 O57 1.550 . S
C56 H58 0.973 . S
O57 C56 1.550 . S
O57 C63 1.412 . S
H58 C56 0.973 . S
C59 H52 0.929 . S
C59 C60 1.400 . S
C59 C61 1.364 . S
C60 C59 1.400 . S
C60 C64 1.377 . S
C61 C59 1.364 . S
C61 C62 1.374 . S
C62 H53 0.930 . S
C62 C61 1.374 . S
C62 C63 1.383 . S
C63 O57 1.412 . S
C63 C62 1.383 . S
C63 C64 1.394 . S
C64 H54 0.929 . S
C64 C60 1.377 . S
C64 C63 1.394 . S
H65 C72 0.929 . S
H66 C75 0.930 . S
H67 C77 0.929 . S
H68 C69 0.969 . S
C69 H68 0.969 . S
C69 O70 1.550 . S
C69 H71 0.973 . S
O70 C69 1.550 . S
O70 C76 1.412 . S
H71 C69 0.973 . S
C72 H65 0.929 . S
C72 C73 1.400 . S
C72 C74 1.364 . S
C73 C72 1.400 . S
C73 C77 1.377 . S
C74 C72 1.364 . S
C74 C75 1.374 . S
C75 H66 0.930 . S
C75 C74 1.374 . S
C75 C76 1.383 . S
C76 O70 1.412 . S
C76 C75 1.383 . S
C76 C77 1.394 . S
C77 H67 0.929 . S
C77 C73 1.377 . S
C77 C76 1.394 . S
H78 C85 0.929 . S
H79 C88 0.930 . S
H80 C90 0.929 . S
H81 C82 0.969 . S
C82 H81 0.969 . S
C82 O83 1.550 . S
C82 H84 0.973 . S
O83 C82 1.550 . S
O83 C89 1.412 . S
H84 C82 0.973 . S
C85 H78 0.929 . S
C85 C86 1.400 . S
C85 C87 1.364 . S
C86 C85 1.400 . S
C86 C90 1.377 . S
C87 C85 1.364 . S
C87 C88 1.374 . S
C88 H79 0.930 . S
C88 C87 1.374 . S
C88 C89 1.383 . S
C89 O83 1.412 . S
C89 C88 1.383 . S
C89 C90 1.394 . S
C90 H80 0.929 . S
C90 C86 1.377 . S
C90 C89 1.394 . S
H91 C98 0.929 . S
H92 C101 0.930 . S
H93 C103 0.929 . S
H94 C95 0.969 . S
C95 H94 0.969 . S
C95 O96 1.550 . S
C95 H97 0.973 . S
O96 C95 1.550 . S
O96 C102 1.412 . S
H97 C95 0.973 . S
C98 H91 0.929 . S
C98 C99 1.400 . S
C98 C100 1.364 . S
C99 C98 1.400 . S
C99 C103 1.377 . S
C100 C98 1.364 . S
C100 C101 1.374 . S
C101 H92 0.930 . S
C101 C100 1.374 . S
C101 C102 1.383 . S
C102 O96 1.412 . S
C102 C101 1.383 . S
C102 C103 1.394 . S
C103 H93 0.929 . S
C103 C99 1.377 . S
C103 C102 1.394 . S
Pr104 C106 2.882 . S
Pr104 O124 2.565 . S
Pr104 O125 2.491 . S
Pr104 O126 2.694 1_665 S
Pr104 O127 2.510 1_665 S
Pr104 O129 2.439 1_655 S
Pr104 O132 2.437 . S
Pr104 O134 2.436 1_565 S
Pr105 C115 2.880 . S
Pr105 O126 2.436 . S
Pr105 O128 2.438 1_545 S
Pr105 O130 2.562 . S
Pr105 O131 2.490 . S
Pr105 O132 2.695 1_445 S
Pr105 O133 2.512 1_545 S
Pr105 O135 2.437 . S
C106 Pr104 2.882 . S
C106 C107 1.491 . S
C106 O124 1.254 . S
C106 O125 1.225 . S
C107 C106 1.491 . S
C107 C108 1.392 . S
C107 C112 1.356 . S
C108 C107 1.392 . S
C108 C109 1.368 . S
C108 H136 0.929 . S
C109 C108 1.368 . S
C109 C110 1.386 . S
C109 H137 0.929 . S
C110 C109 1.386 . S
C110 C111 1.373 . S
C111 C110 1.373 . S
C111 C112 1.409 . S
C111 H138 0.931 . S
C112 C107 1.356 . S
C112 C111 1.409 . S
C112 H139 0.930 . S
C113 O126 1.270 . S
C113 O127 1.248 . S
C114 O128 1.267 . S
C114 O129 1.278 . S
C115 Pr105 2.880 . S
C115 C116 1.491 . S
C115 O130 1.254 . S
C115 O131 1.225 . S
C116 C115 1.491 . S
C116 C117 1.392 . S
C116 C121 1.356 . S
C117 C116 1.392 . S
C117 C118 1.368 . S
C117 H140 0.929 . S
C118 C117 1.368 . S
C118 C119 1.386 . S
C118 H141 0.929 . S
C119 C118 1.386 . S
C119 C120 1.373 . S
C120 C119 1.373 . S
C120 C121 1.409 . S
C120 H142 0.931 . S
C121 C116 1.356 . S
C121 C120 1.409 . S
C121 H143 0.930 . S
C122 O132 1.270 . S
C122 O133 1.248 1_655 S
C123 O134 1.267 . S
C123 O135 1.278 1_655 S
O124 Pr104 2.565 . S
O124 C106 1.254 . S
O125 Pr104 2.491 . S
O125 C106 1.225 . S
O126 Pr104 2.694 1_445 S
O126 Pr105 2.436 . S
O126 C113 1.270 . S
O127 Pr104 2.510 1_445 S
O127 C113 1.248 . S
O128 Pr105 2.438 1_565 S
O128 C114 1.267 . S
O129 Pr104 2.439 1_455 S
O129 C114 1.278 . S
O130 Pr105 2.562 . S
O130 C115 1.254 . S
O131 Pr105 2.490 . S
O131 C115 1.225 . S
O132 Pr104 2.437 . S
O132 Pr105 2.695 1_665 S
O132 C122 1.270 . S
O133 Pr105 2.512 1_565 S
O133 C122 1.248 1_455 S
O134 Pr104 2.436 1_545 S
O134 C123 1.267 . S
O135 Pr105 2.437 . S
O135 C123 1.278 1_455 S
H136 C108 0.929 . S
H137 C109 0.929 . S
H138 C111 0.931 . S
H139 C112 0.930 . S
H140 C117 0.929 . S
H141 C118 0.929 . S
H142 C120 0.931 . S
H143 C121 0.930 . S
Pr144 C146 2.880 . S
Pr144 O164 2.562 . S
Pr144 O165 2.490 . S
Pr144 O166 2.695 1_554 S
Pr144 O167 2.512 1_554 S
Pr144 O169 2.437 . S
Pr144 O172 2.436 1_545 S
Pr144 O174 2.438 1_544 S
Pr145 C155 2.880 1_554 S
Pr145 O166 2.436 1_564 S
Pr145 O168 2.438 1_565 S
Pr145 O170 2.562 1_554 S
Pr145 O171 2.490 1_554 S
Pr145 O172 2.695 . S
Pr145 O173 2.512 . S
Pr145 O175 2.437 1_554 S
C146 Pr144 2.880 . S
C146 C147 1.491 . S
C146 O164 1.254 . S
C146 O165 1.225 . S
C147 C146 1.491 . S
C147 C148 1.392 . S
C147 C152 1.356 . S
C148 C147 1.392 . S
C148 C149 1.368 . S
C148 H176 0.929 . S
C149 C148 1.368 . S
C149 C150 1.386 . S
C149 H177 0.929 . S
C150 C149 1.386 . S
C150 C151 1.373 . S
C151 C150 1.373 . S
C151 C152 1.409 . S
C151 H178 0.931 . S
C152 C147 1.356 . S
C152 C151 1.409 . S
C152 H179 0.930 . S
C153 O166 1.270 . S
C153 O167 1.248 . S
C154 O168 1.267 . S
C154 O169 1.278 . S
C155 Pr145 2.880 1_556 S
C155 C156 1.491 . S
C155 O170 1.254 . S
C155 O171 1.225 . S
C156 C155 1.491 . S
C156 C157 1.392 . S
C156 C161 1.356 . S
C157 C156 1.392 . S
C157 C158 1.368 . S
C157 H180 0.929 . S
C158 C157 1.368 . S
C158 C159 1.386 . S
C158 H181 0.929 . S
C159 C158 1.386 . S
C159 C160 1.373 . S
C160 C159 1.373 . S
C160 C161 1.409 . S
C160 H182 0.931 . S
C161 C156 1.356 . S
C161 C160 1.409 . S
C161 H183 0.930 . S
C162 O172 1.270 . S
C162 O173 1.248 . S
C163 O174 1.267 . S
C163 O175 1.278 . S
O164 Pr144 2.562 . S
O164 C146 1.254 . S
O165 Pr144 2.490 . S
O165 C146 1.225 . S
O166 Pr144 2.695 1_556 S
O166 Pr145 2.436 1_546 S
O166 C153 1.270 . S
O167 Pr144 2.512 1_556 S
O167 C153 1.248 . S
O168 Pr145 2.438 1_545 S
O168 C154 1.267 . S
O169 Pr144 2.437 . S
O169 C154 1.278 . S
O170 Pr145 2.562 1_556 S
O170 C155 1.254 . S
O171 Pr145 2.490 1_556 S
O171 C155 1.225 . S
O172 Pr144 2.436 1_565 S
O172 Pr145 2.695 . S
O172 C162 1.270 . S
O173 Pr145 2.512 . S
O173 C162 1.248 . S
O174 Pr144 2.438 1_566 S
O174 C163 1.267 . S
O175 Pr145 2.437 1_556 S
O175 C163 1.278 . S
H176 C148 0.929 . S
H177 C149 0.929 . S
H178 C151 0.931 . S
H179 C152 0.930 . S
H180 C157 0.929 . S
H181 C158 0.929 . S
H182 C160 0.931 . S
H183 C161 0.930 . S
Pr184 C186 2.880 . S
Pr184 O204 2.562 . S
Pr184 O205 2.490 . S
Pr184 O206 2.695 . S
Pr184 O207 2.512 . S
Pr184 O209 2.437 . S
Pr184 O212 2.436 . S
Pr184 O214 2.438 . S
Pr185 C195 2.880 . S
Pr185 O206 2.436 . S
Pr185 O208 2.438 . S
Pr185 O210 2.562 . S
Pr185 O211 2.490 . S
Pr185 O212 2.695 . S
Pr185 O213 2.512 . S
Pr185 O215 2.437 . S
C186 Pr184 2.880 . S
C186 C187 1.491 . S
C186 O204 1.254 . S
C186 O205 1.225 . S
C187 C186 1.491 . S
C187 C188 1.392 . S
C187 C192 1.356 . S
C188 C187 1.392 . S
C188 C189 1.368 . S
C188 H216 0.929 . S
C189 C188 1.368 . S
C189 C190 1.386 . S
C189 H217 0.929 . S
C190 C189 1.386 . S
C190 C191 1.373 . S
C191 C190 1.373 . S
C191 C192 1.409 . S
C191 H218 0.931 . S
C192 C187 1.356 . S
C192 C191 1.409 . S
C192 H219 0.930 . S
C193 O206 1.270 . S
C193 O207 1.248 . S
C194 O208 1.267 . S
C194 O209 1.278 . S
C195 Pr185 2.880 . S
C195 C196 1.491 . S
C195 O210 1.254 . S
C195 O211 1.225 . S
C196 C195 1.491 . S
C196 C197 1.392 . S
C196 C201 1.356 . S
C197 C196 1.392 . S
C197 C198 1.368 . S
C197 H220 0.929 . S
C198 C197 1.368 . S
C198 C199 1.386 . S
C198 H221 0.929 . S
C199 C198 1.386 . S
C199 C200 1.373 . S
C200 C199 1.373 . S
C200 C201 1.409 . S
C200 H222 0.931 . S
C201 C196 1.356 . S
C201 C200 1.409 . S
C201 H223 0.930 . S
C202 O212 1.270 . S
C202 O213 1.248 . S
C203 O214 1.267 . S
C203 O215 1.278 . S
O204 Pr184 2.562 . S
O204 C186 1.254 . S
O205 Pr184 2.490 . S
O205 C186 1.225 . S
O206 Pr184 2.695 . S
O206 Pr185 2.436 . S
O206 C193 1.270 . S
O207 Pr184 2.512 . S
O207 C193 1.248 . S
O208 Pr185 2.438 . S
O208 C194 1.267 . S
O209 Pr184 2.437 . S
O209 C194 1.278 . S
O210 Pr185 2.562 . S
O210 C195 1.254 . S
O211 Pr185 2.490 . S
O211 C195 1.225 . S
O212 Pr184 2.436 . S
O212 Pr185 2.695 . S
O212 C202 1.270 . S
O213 Pr185 2.512 . S
O213 C202 1.248 . S
O214 Pr184 2.438 . S
O214 C203 1.267 . S
O215 Pr185 2.437 . S
O215 C203 1.278 . S
H216 C188 0.929 . S
H217 C189 0.929 . S
H218 C191 0.931 . S
H219 C192 0.930 . S
H220 C197 0.929 . S
H221 C198 0.929 . S
H222 C200 0.931 . S
H223 C201 0.930 . S
Pr224 C226 2.880 1_454 S
Pr224 O244 2.562 1_454 S
Pr224 O245 2.488 1_554 S
Pr224 O246 2.695 . S
Pr224 O247 2.512 . S
Pr224 O249 2.437 1_455 S
Pr224 O252 2.436 1_455 S
Pr224 O254 2.438 1_554 S
Pr225 C235 2.880 . S
Pr225 O246 2.436 . S
Pr225 O248 2.438 1_455 S
Pr225 O250 2.562 . S
Pr225 O251 2.490 . S
Pr225 O252 2.695 1_455 S
Pr225 O253 2.512 1_455 S
Pr225 O255 2.437 . S
C226 Pr224 2.880 1_656 S
C226 C227 1.491 . S
C226 O244 1.254 . S
C226 O245 1.225 1_655 S
C227 C226 1.491 . S
C227 C228 1.392 . S
C227 C232 1.356 . S
C228 C227 1.392 . S
C228 C229 1.368 . S
C228 H256 0.944 . S
C229 C228 1.368 . S
C229 C230 1.386 . S
C229 H257 0.929 . S
C230 C229 1.386 . S
C230 C231 1.373 . S
C231 C230 1.373 . S
C231 C232 1.409 . S
C231 H258 0.931 . S
C232 C227 1.356 . S
C232 C231 1.409 . S
C232 H259 0.930 . S
C233 O246 1.270 . S
C233 O247 1.248 . S
C234 O248 1.267 . S
C234 O249 1.278 . S
C235 Pr225 2.880 . S
C235 C236 1.491 . S
C235 O250 1.254 . S
C235 O251 1.225 . S
C236 C235 1.491 . S
C236 C237 1.392 . S
C236 C241 1.356 . S
C237 C236 1.392 . S
C237 C238 1.368 . S
C237 H260 0.929 . S
C238 C237 1.368 . S
C238 C239 1.386 . S
C238 H261 0.929 . S
C239 C238 1.386 . S
C239 C240 1.373 . S
C240 C239 1.373 . S
C240 C241 1.409 . S
C240 H262 0.931 . S
C241 C236 1.356 . S
C241 C240 1.409 . S
C241 H263 0.930 . S
C242 O252 1.270 . S
C242 O253 1.248 . S
C243 O254 1.267 1_554 S
C243 O255 1.278 . S
O244 Pr224 2.562 1_656 S
O244 C226 1.254 . S
O245 Pr224 2.488 1_556 S
O245 C226 1.225 1_455 S
O246 Pr224 2.695 . S
O246 Pr225 2.436 . S
O246 C233 1.270 . S
O247 Pr224 2.512 . S
O247 C233 1.248 . S
O248 Pr225 2.438 1_655 S
O248 C234 1.267 . S
O249 Pr224 2.437 1_655 S
O249 C234 1.278 . S
O250 Pr225 2.562 . S
O250 C235 1.254 . S
O251 Pr225 2.490 . S
O251 C235 1.225 . S
O252 Pr224 2.436 1_655 S
O252 Pr225 2.695 1_655 S
O252 C242 1.270 . S
O253 Pr225 2.512 1_655 S
O253 C242 1.248 . S
O254 Pr224 2.438 1_556 S
O254 C243 1.267 1_556 S
O255 Pr225 2.437 . S
O255 C243 1.278 . S
H256 C228 0.944 . S
H257 C229 0.929 . S
H258 C231 0.931 . S
H259 C232 0.930 . S
H260 C237 0.929 . S
H261 C238 0.929 . S
H262 C240 0.931 . S
H263 C241 0.930 . S
C264 C265 1.391 . S
C264 C266 1.394 . S
C264 H280 0.931 . S
C265 C264 1.391 . S
C265 C269 1.376 . S
C266 C264 1.394 . S
C266 C267 1.369 . S
C266 C270 1.531 . S
C267 C266 1.369 . S
C267 C268 1.410 . S
C267 C275 1.503 . S
C268 C267 1.410 . S
C268 C269 1.392 . S
C268 C271 1.511 . S
C269 C265 1.376 . S
C269 C268 1.392 . S
C269 H281 0.929 . S
C270 C266 1.531 . S
C270 H282 0.960 . S
C270 H283 0.962 . S
C270 H284 0.960 . S
C271 C268 1.511 . S
C271 H285 0.961 . S
C271 H286 0.961 . S
C271 H287 0.961 . S
C272 C273 1.370 . S
C272 C274 1.363 . S
C272 H288 0.931 . S
C273 C272 1.370 . S
C273 C277 1.408 . S
C274 C272 1.363 . S
C274 C275 1.370 . S
C274 C278 1.524 . S
C275 C267 1.503 . S
C275 C274 1.370 . S
C275 C276 1.403 . S
C276 C275 1.403 . S
C276 C277 1.404 . S
C276 C279 1.539 . S
C277 C273 1.408 . S
C277 C276 1.404 . S
C277 H289 0.930 . S
C278 C274 1.524 . S
C278 H290 0.956 . S
C278 H291 0.961 . S
C278 H292 0.961 . S
C279 C276 1.539 . S
C279 H293 0.958 . S
C279 H294 0.961 . S
C279 H295 0.960 . S
H280 C264 0.931 . S
H281 C269 0.929 . S
H282 C270 0.960 . S
H283 C270 0.962 . S
H284 C270 0.960 . S
H285 C271 0.961 . S
H286 C271 0.961 . S
H287 C271 0.961 . S
H288 C272 0.931 . S
H289 C277 0.930 . S
H290 C278 0.956 . S
H291 C278 0.961 . S
H292 C278 0.961 . S
H293 C279 0.958 . S
H294 C279 0.961 . S
H295 C279 0.960 . S
C296 C297 1.391 . S
C296 C298 1.394 . S
C296 H312 0.931 . S
C297 C296 1.391 . S
C297 C301 1.376 . S
C298 C296 1.394 . S
C298 C299 1.369 . S
C298 C302 1.531 . S
C299 C298 1.369 . S
C299 C300 1.410 . S
C299 C307 1.503 . S
C300 C299 1.410 . S
C300 C301 1.392 . S
C300 C303 1.511 . S
C301 C297 1.376 . S
C301 C300 1.392 . S
C301 H313 0.929 . S
C302 C298 1.531 . S
C302 H314 0.960 . S
C302 H315 0.962 . S
C302 H316 0.960 . S
C303 C300 1.511 . S
C303 H317 0.961 . S
C303 H318 0.961 . S
C303 H319 0.961 . S
C304 C305 1.370 . S
C304 C306 1.363 . S
C304 H320 0.931 . S
C305 C304 1.370 . S
C305 C309 1.408 . S
C306 C304 1.363 . S
C306 C307 1.370 . S
C306 C310 1.524 . S
C307 C299 1.503 . S
C307 C306 1.370 . S
C307 C308 1.403 . S
C308 C307 1.403 . S
C308 C309 1.404 . S
C308 C311 1.539 . S
C309 C305 1.408 . S
C309 C308 1.404 . S
C309 H321 0.930 . S
C310 C306 1.524 . S
C310 H322 0.956 . S
C310 H323 0.961 . S
C310 H324 0.961 . S
C311 C308 1.539 . S
C311 H325 0.958 . S
C311 H326 0.961 . S
C311 H327 0.960 . S
H312 C296 0.931 . S
H313 C301 0.929 . S
H314 C302 0.960 . S
H315 C302 0.962 . S
H316 C302 0.960 . S
H317 C303 0.961 . S
H318 C303 0.961 . S
H319 C303 0.961 . S
H320 C304 0.931 . S
H321 C309 0.930 . S
H322 C310 0.956 . S
H323 C310 0.961 . S
H324 C310 0.961 . S
H325 C311 0.958 . S
H326 C311 0.961 . S
H327 C311 0.960 . S
C328 C329 1.391 . S
C328 C330 1.394 . S
C328 H344 0.931 . S
C329 C328 1.391 . S
C329 C333 1.376 . S
C330 C328 1.394 . S
C330 C331 1.369 . S
C330 C334 1.531 . S
C331 C330 1.369 . S
C331 C332 1.410 . S
C331 C339 1.503 . S
C332 C331 1.410 . S
C332 C333 1.392 . S
C332 C335 1.511 . S
C333 C329 1.376 . S
C333 C332 1.392 . S
C333 H345 0.929 . S
C334 C330 1.531 . S
C334 H346 0.960 . S
C334 H347 0.962 . S
C334 H348 0.960 . S
C335 C332 1.511 . S
C335 H349 0.961 . S
C335 H350 0.961 . S
C335 H351 0.961 . S
C336 C337 1.370 . S
C336 C338 1.363 . S
C336 H352 0.931 . S
C337 C336 1.370 . S
C337 C341 1.408 . S
C338 C336 1.363 . S
C338 C339 1.370 . S
C338 C342 1.524 . S
C339 C331 1.503 . S
C339 C338 1.370 . S
C339 C340 1.403 . S
C340 C339 1.403 . S
C340 C341 1.404 . S
C340 C343 1.539 . S
C341 C337 1.408 . S
C341 C340 1.404 . S
C341 H353 0.930 . S
C342 C338 1.524 . S
C342 H354 0.956 . S
C342 H355 0.961 . S
C342 H356 0.961 . S
C343 C340 1.539 . S
C343 H357 0.958 . S
C343 H358 0.961 . S
C343 H359 0.960 . S
H344 C328 0.931 . S
H345 C333 0.929 . S
H346 C334 0.960 . S
H347 C334 0.962 . S
H348 C334 0.960 . S
H349 C335 0.961 . S
H350 C335 0.961 . S
H351 C335 0.961 . S
H352 C336 0.931 . S
H353 C341 0.930 . S
H354 C342 0.956 . S
H355 C342 0.961 . S
H356 C342 0.961 . S
H357 C343 0.958 . S
H358 C343 0.961 . S
H359 C343 0.960 . S
C360 C361 1.391 . S
C360 C362 1.394 . S
C360 H376 0.931 . S
C361 C360 1.391 . S
C361 C365 1.376 . S
C362 C360 1.394 . S
C362 C363 1.369 . S
C362 C366 1.531 . S
C363 C362 1.369 . S
C363 C364 1.410 . S
C363 C371 1.503 . S
C364 C363 1.410 . S
C364 C365 1.392 . S
C364 C367 1.511 . S
C365 C361 1.376 . S
C365 C364 1.392 . S
C365 H377 0.929 . S
C366 C362 1.531 . S
C366 H378 0.960 . S
C366 H379 0.962 . S
C366 H380 0.960 . S
C367 C364 1.511 . S
C367 H381 0.961 . S
C367 H382 0.961 . S
C367 H383 0.961 . S
C368 C369 1.370 . S
C368 C370 1.363 . S
C368 H384 0.931 . S
C369 C368 1.370 . S
C369 C373 1.408 . S
C370 C368 1.363 . S
C370 C371 1.370 . S
C370 C374 1.524 . S
C371 C363 1.503 . S
C371 C370 1.370 . S
C371 C372 1.403 . S
C372 C371 1.403 . S
C372 C373 1.404 . S
C372 C375 1.539 . S
C373 C369 1.408 . S
C373 C372 1.404 . S
C373 H385 0.930 . S
C374 C370 1.524 . S
C374 H386 0.956 . S
C374 H387 0.961 . S
C374 H388 0.961 . S
C375 C372 1.539 . S
C375 H389 0.958 . S
C375 H390 0.961 . S
C375 H391 0.960 . S
H376 C360 0.931 . S
H377 C365 0.929 . S
H378 C366 0.960 . S
H379 C366 0.962 . S
H380 C366 0.960 . S
H381 C367 0.961 . S
H382 C367 0.961 . S
H383 C367 0.961 . S
H384 C368 0.931 . S
H385 C373 0.930 . S
H386 C374 0.956 . S
H387 C374 0.961 . S
H388 C374 0.961 . S
H389 C375 0.958 . S
H390 C375 0.961 . S
H391 C375 0.960 . S
C392 C393 1.391 . S
C392 C394 1.394 . S
C392 H408 0.931 . S
C393 C392 1.391 . S
C393 C397 1.376 . S
C394 C392 1.394 . S
C394 C395 1.369 . S
C394 C398 1.531 . S
C395 C394 1.369 . S
C395 C396 1.410 . S
C395 C403 1.503 . S
C396 C395 1.410 . S
C396 C397 1.392 . S
C396 C399 1.511 . S
C397 C393 1.376 . S
C397 C396 1.392 . S
C397 H409 0.929 . S
C398 C394 1.531 . S
C398 H410 0.960 . S
C398 H411 0.962 . S
C398 H412 0.960 . S
C399 C396 1.511 . S
C399 H413 0.961 . S
C399 H414 0.961 . S
C399 H415 0.961 . S
C400 C401 1.370 . S
C400 C402 1.363 . S
C400 H416 0.931 . S
C401 C400 1.370 . S
C401 C405 1.408 . S
C402 C400 1.363 . S
C402 C403 1.370 . S
C402 C406 1.524 . S
C403 C395 1.503 . S
C403 C402 1.370 . S
C403 C404 1.403 . S
C404 C403 1.403 . S
C404 C405 1.404 . S
C404 C407 1.539 . S
C405 C401 1.408 . S
C405 C404 1.404 . S
C405 H417 0.930 . S
C406 C402 1.524 . S
C406 H418 0.956 . S
C406 H419 0.961 . S
C406 H420 0.961 . S
C407 C404 1.539 . S
C407 H421 0.958 . S
C407 H422 0.961 . S
C407 H423 0.960 . S
H408 C392 0.931 . S
H409 C397 0.929 . S
H410 C398 0.960 . S
H411 C398 0.962 . S
H412 C398 0.960 . S
H413 C399 0.961 . S
H414 C399 0.961 . S
H415 C399 0.961 . S
H416 C400 0.931 . S
H417 C405 0.930 . S
H418 C406 0.956 . S
H419 C406 0.961 . S
H420 C406 0.961 . S
H421 C407 0.958 . S
H422 C407 0.961 . S
H423 C407 0.960 . S
C424 C425 1.391 . S
C424 C426 1.394 . S
C424 H440 0.931 . S
C425 C424 1.391 . S
C425 C429 1.376 . S
C426 C424 1.394 . S
C426 C427 1.369 . S
C426 C430 1.531 . S
C427 C426 1.369 . S
C427 C428 1.410 . S
C427 C435 1.503 . S
C428 C427 1.410 . S
C428 C429 1.392 . S
C428 C431 1.511 . S
C429 C425 1.376 . S
C429 C428 1.392 . S
C429 H441 0.929 . S
C430 C426 1.531 . S
C430 H442 0.960 . S
C430 H443 0.962 . S
C430 H444 0.960 . S
C431 C428 1.511 . S
C431 H445 0.961 . S
C431 H446 0.961 . S
C431 H447 0.961 . S
C432 C433 1.370 . S
C432 C434 1.363 . S
C432 H448 0.931 . S
C433 C432 1.370 . S
C433 C437 1.408 . S
C434 C432 1.363 . S
C434 C435 1.370 . S
C434 C438 1.524 . S
C435 C427 1.503 . S
C435 C434 1.370 . S
C435 C436 1.403 . S
C436 C435 1.403 . S
C436 C437 1.404 . S
C436 C439 1.539 . S
C437 C433 1.408 . S
C437 C436 1.404 . S
C437 H449 0.930 . S
C438 C434 1.524 . S
C438 H450 0.956 . S
C438 H451 0.961 . S
C438 H452 0.961 . S
C439 C436 1.539 . S
C439 H453 0.958 . S
C439 H454 0.961 . S
C439 H455 0.960 . S
H440 C424 0.931 . S
H441 C429 0.929 . S
H442 C430 0.960 . S
H443 C430 0.962 . S
H444 C430 0.960 . S
H445 C431 0.961 . S
H446 C431 0.961 . S
H447 C431 0.961 . S
H448 C432 0.931 . S
H449 C437 0.930 . S
H450 C438 0.956 . S
H451 C438 0.961 . S
H452 C438 0.961 . S
H453 C439 0.958 . S
H454 C439 0.961 . S
H455 C439 0.960 . S
C456 C457 1.391 . S
C456 C458 1.394 . S
C456 H472 0.931 . S
C457 C456 1.391 . S
C457 C461 1.376 . S
C458 C456 1.394 . S
C458 C459 1.369 . S
C458 C462 1.531 . S
C459 C458 1.369 . S
C459 C460 1.410 . S
C459 C467 1.503 . S
C460 C459 1.410 . S
C460 C461 1.392 . S
C460 C463 1.511 . S
C461 C457 1.376 . S
C461 C460 1.392 . S
C461 H473 0.929 . S
C462 C458 1.531 . S
C462 H474 0.960 . S
C462 H475 0.962 . S
C462 H476 0.960 . S
C463 C460 1.511 . S
C463 H477 0.961 . S
C463 H478 0.961 . S
C463 H479 0.961 . S
C464 C465 1.370 . S
C464 C466 1.363 . S
C464 H480 0.931 1_556 S
C465 C464 1.370 . S
C465 C469 1.408 . S
C466 C464 1.363 . S
C466 C467 1.370 . S
C466 C470 1.524 . S
C467 C459 1.503 . S
C467 C466 1.370 . S
C467 C468 1.403 . S
C468 C467 1.403 . S
C468 C469 1.404 . S
C468 C471 1.539 . S
C469 C465 1.408 . S
C469 C468 1.404 . S
C469 H481 0.930 . S
C470 C466 1.524 . S
C470 H482 0.956 . S
C470 H483 0.961 . S
C470 H484 0.961 . S
C471 C468 1.539 . S
C471 H485 0.958 . S
C471 H486 0.961 . S
C471 H487 0.960 . S
H472 C456 0.931 . S
H473 C461 0.929 . S
H474 C462 0.960 . S
H475 C462 0.962 . S
H476 C462 0.960 . S
H477 C463 0.961 . S
H478 C463 0.961 . S
H479 C463 0.961 . S
H480 C464 0.931 1_554 S
H481 C469 0.930 . S
H482 C470 0.956 . S
H483 C470 0.961 . S
H484 C470 0.961 . S
H485 C471 0.958 . S
H486 C471 0.961 . S
H487 C471 0.960 . S
C488 C489 1.391 . S
C488 C490 1.394 . S
C488 H504 0.931 . S
C489 C488 1.391 . S
C489 C493 1.376 . S
C490 C488 1.394 . S
C490 C491 1.369 . S
C490 C494 1.531 . S
C491 C490 1.369 . S
C491 C492 1.410 . S
C491 C499 1.503 . S
C492 C491 1.410 . S
C492 C493 1.392 . S
C492 C495 1.511 . S
C493 C489 1.376 . S
C493 C492 1.392 . S
C493 H505 0.929 . S
C494 C490 1.531 . S
C494 H506 0.960 . S
C494 H507 0.962 . S
C494 H508 0.960 . S
C495 C492 1.511 . S
C495 H509 0.961 . S
C495 H510 0.961 . S
C495 H511 0.961 . S
C496 C497 1.370 . S
C496 C498 1.363 . S
C496 H512 0.931 . S
C497 C496 1.370 . S
C497 C501 1.408 . S
C498 C496 1.363 . S
C498 C499 1.370 . S
C498 C502 1.524 . S
C499 C491 1.503 . S
C499 C498 1.370 . S
C499 C500 1.403 . S
C500 C499 1.403 . S
C500 C501 1.404 . S
C500 C503 1.539 . S
C501 C497 1.408 . S
C501 C500 1.404 . S
C501 H513 0.930 . S
C502 C498 1.524 . S
C502 H514 0.956 . S
C502 H515 0.961 . S
C502 H516 0.961 . S
C503 C500 1.539 . S
C503 H517 0.958 . S
C503 H518 0.961 . S
C503 H519 0.960 . S
H504 C488 0.931 . S
H505 C493 0.929 . S
H506 C494 0.960 . S
H507 C494 0.962 . S
H508 C494 0.960 . S
H509 C495 0.961 . S
H510 C495 0.961 . S
H511 C495 0.961 . S
H512 C496 0.931 . S
H513 C501 0.930 . S
H514 C502 0.956 . S
H515 C502 0.961 . S
H516 C502 0.961 . S
H517 C503 0.958 . S
H518 C503 0.961 . S
H519 C503 0.960 . S
C520 C521 1.391 . S
C520 C522 1.394 . S
C520 H536 0.931 . S
C521 C520 1.391 . S
C521 C525 1.376 . S
C522 C520 1.394 . S
C522 C523 1.369 . S
C522 C526 1.531 . S
C523 C522 1.369 . S
C523 C524 1.410 . S
C523 C531 1.503 . S
C524 C523 1.410 . S
C524 C525 1.392 . S
C524 C527 1.511 . S
C525 C521 1.376 . S
C525 C524 1.392 . S
C525 H537 0.929 . S
C526 C522 1.531 . S
C526 H538 0.960 . S
C526 H539 0.962 . S
C526 H540 0.960 . S
C527 C524 1.511 . S
C527 H541 0.961 . S
C527 H542 0.961 . S
C527 H543 0.961 . S
C528 C529 1.370 . S
C528 C530 1.363 . S
C528 H544 0.931 . S
C529 C528 1.370 . S
C529 C533 1.408 . S
C530 C528 1.363 . S
C530 C531 1.370 . S
C530 C534 1.524 . S
C531 C523 1.503 . S
C531 C530 1.370 . S
C531 C532 1.403 . S
C532 C531 1.403 . S
C532 C533 1.404 . S
C532 C535 1.539 . S
C533 C529 1.408 . S
C533 C532 1.404 . S
C533 H545 0.930 . S
C534 C530 1.524 . S
C534 H546 0.956 . S
C534 H547 0.961 . S
C534 H548 0.961 . S
C535 C532 1.539 . S
C535 H549 0.958 . S
C535 H550 0.961 . S
C535 H551 0.960 . S
H536 C520 0.931 . S
H537 C525 0.929 . S
H538 C526 0.960 . S
H539 C526 0.962 . S
H540 C526 0.960 . S
H541 C527 0.961 . S
H542 C527 0.961 . S
H543 C527 0.961 . S
H544 C528 0.931 . S
H545 C533 0.930 . S
H546 C534 0.956 . S
H547 C534 0.961 . S
H548 C534 0.961 . S
H549 C535 0.958 . S
H550 C535 0.961 . S
H551 C535 0.960 . S
C552 C553 1.391 . S
C552 C554 1.394 . S
C552 H568 0.931 . S
C553 C552 1.391 . S
C553 C557 1.376 . S
C554 C552 1.394 . S
C554 C555 1.369 . S
C554 C558 1.531 . S
C555 C554 1.369 . S
C555 C556 1.410 . S
C555 C563 1.503 . S
C556 C555 1.410 . S
C556 C557 1.392 . S
C556 C559 1.511 . S
C557 C553 1.376 . S
C557 C556 1.392 . S
C557 H569 0.929 . S
C558 C554 1.531 . S
C558 H570 0.960 . S
C558 H571 0.962 . S
C558 H572 0.960 . S
C559 C556 1.511 . S
C559 H573 0.961 . S
C559 H574 0.961 . S
C559 H575 0.961 . S
C560 C561 1.370 . S
C560 C562 1.363 . S
C560 H576 0.931 . S
C561 C560 1.370 . S
C561 C565 1.408 . S
C562 C560 1.363 . S
C562 C563 1.370 . S
C562 C566 1.524 . S
C563 C555 1.503 . S
C563 C562 1.370 . S
C563 C564 1.403 . S
C564 C563 1.403 . S
C564 C565 1.404 . S
C564 C567 1.539 . S
C565 C561 1.408 . S
C565 C564 1.404 . S
C565 H577 0.930 . S
C566 C562 1.524 . S
C566 H578 0.956 . S
C566 H579 0.961 . S
C566 H580 0.961 . S
C567 C564 1.539 . S
C567 H581 0.958 . S
C567 H582 0.961 . S
C567 H583 0.960 . S
H568 C552 0.931 . S
H569 C557 0.929 . S
H570 C558 0.960 . S
H571 C558 0.962 . S
H572 C558 0.960 . S
H573 C559 0.961 . S
H574 C559 0.961 . S
H575 C559 0.961 . S
H576 C560 0.931 . S
H577 C565 0.930 . S
H578 C566 0.956 . S
H579 C566 0.961 . S
H580 C566 0.961 . S
H581 C567 0.958 . S
H582 C567 0.961 . S
H583 C567 0.960 . S
C584 C585 1.391 . S
C584 C586 1.394 . S
C584 H600 0.931 . S
C585 C584 1.391 . S
C585 C589 1.376 . S
C586 C584 1.394 . S
C586 C587 1.369 . S
C586 C590 1.531 . S
C587 C586 1.369 . S
C587 C588 1.410 . S
C587 C595 1.503 . S
C588 C587 1.410 . S
C588 C589 1.392 . S
C588 C591 1.511 . S
C589 C585 1.376 . S
C589 C588 1.392 . S
C589 H601 0.929 . S
C590 C586 1.531 . S
C590 H602 0.960 . S
C590 H603 0.962 . S
C590 H604 0.960 . S
C591 C588 1.511 . S
C591 H605 0.961 . S
C591 H606 0.961 . S
C591 H607 0.961 . S
C592 C593 1.370 . S
C592 C594 1.363 . S
C592 H608 0.931 . S
C593 C592 1.370 . S
C593 C597 1.408 . S
C594 C592 1.363 . S
C594 C595 1.370 . S
C594 C598 1.524 . S
C595 C587 1.503 . S
C595 C594 1.370 . S
C595 C596 1.403 . S
C596 C595 1.403 . S
C596 C597 1.404 . S
C596 C599 1.539 . S
C597 C593 1.408 . S
C597 C596 1.404 . S
C597 H609 0.930 . S
C598 C594 1.524 . S
C598 H610 0.956 . S
C598 H611 0.961 . S
C598 H612 0.961 . S
C599 C596 1.539 . S
C599 H613 0.958 . S
C599 H614 0.961 . S
C599 H615 0.960 . S
H600 C584 0.931 . S
H601 C589 0.929 . S
H602 C590 0.960 . S
H603 C590 0.962 . S
H604 C590 0.960 . S
H605 C591 0.961 . S
H606 C591 0.961 . S
H607 C591 0.961 . S
H608 C592 0.931 . S
H609 C597 0.930 . S
H610 C598 0.956 . S
H611 C598 0.961 . S
H612 C598 0.961 . S
H613 C599 0.958 . S
H614 C599 0.961 . S
H615 C599 0.960 . S
C616 C617 1.391 . S
C616 C618 1.394 . S
C616 H632 0.931 . S
C617 C616 1.391 . S
C617 C621 1.376 . S
C618 C616 1.394 . S
C618 C619 1.369 . S
C618 C622 1.531 . S
C619 C618 1.369 . S
C619 C620 1.410 . S
C619 C627 1.503 . S
C620 C619 1.410 . S
C620 C621 1.392 . S
C620 C623 1.511 . S
C621 C617 1.376 . S
C621 C620 1.392 . S
C621 H633 0.929 . S
C622 C618 1.531 . S
C622 H634 0.960 . S
C622 H635 0.962 . S
C622 H636 0.960 . S
C623 C620 1.511 . S
C623 H637 0.961 . S
C623 H638 0.961 . S
C623 H639 0.961 . S
C624 C625 1.370 . S
C624 C626 1.363 . S
C624 H640 0.931 . S
C625 C624 1.370 . S
C625 C629 1.408 . S
C626 C624 1.363 . S
C626 C627 1.370 . S
C626 C630 1.524 . S
C627 C619 1.503 . S
C627 C626 1.370 . S
C627 C628 1.403 . S
C628 C627 1.403 . S
C628 C629 1.404 . S
C628 C631 1.539 . S
C629 C625 1.408 . S
C629 C628 1.404 . S
C629 H641 0.930 . S
C630 C626 1.524 . S
C630 H642 0.956 . S
C630 H643 0.961 . S
C630 H644 0.961 . S
C631 C628 1.539 . S
C631 H645 0.958 . S
C631 H646 0.961 . S
C631 H647 0.960 . S
H632 C616 0.931 . S
H633 C621 0.929 . S
H634 C622 0.960 . S
H635 C622 0.962 . S
H636 C622 0.960 . S
H637 C623 0.961 . S
H638 C623 0.961 . S
H639 C623 0.961 . S
H640 C624 0.931 . S
H641 C629 0.930 . S
H642 C630 0.956 . S
H643 C630 0.961 . S
H644 C630 0.961 . S
H645 C631 0.958 . S
H646 C631 0.961 . S
H647 C631 0.960 . S
C648 C649 1.391 . S
C648 C650 1.394 . S
C648 H664 0.931 . S
C649 C648 1.391 . S
C649 C653 1.376 . S
C650 C648 1.394 . S
C650 C651 1.369 . S
C650 C654 1.531 . S
C651 C650 1.369 . S
C651 C652 1.410 . S
C651 C659 1.503 . S
C652 C651 1.410 . S
C652 C653 1.392 . S
C652 C655 1.511 . S
C653 C649 1.376 . S
C653 C652 1.392 . S
C653 H665 0.929 . S
C654 C650 1.531 . S
C654 H666 0.960 . S
C654 H667 0.962 . S
C654 H668 0.960 . S
C655 C652 1.511 . S
C655 H669 0.961 . S
C655 H670 0.961 . S
C655 H671 0.961 . S
C656 C657 1.370 . S
C656 C658 1.363 . S
C656 H672 0.931 . S
C657 C656 1.370 . S
C657 C661 1.408 . S
C658 C656 1.363 . S
C658 C659 1.370 . S
C658 C662 1.524 . S
C659 C651 1.503 . S
C659 C658 1.370 . S
C659 C660 1.403 . S
C660 C659 1.403 . S
C660 C661 1.404 . S
C660 C663 1.539 . S
C661 C657 1.408 . S
C661 C660 1.404 . S
C661 H673 0.930 . S
C662 C658 1.524 . S
C662 H674 0.956 . S
C662 H675 0.961 . S
C662 H676 0.961 . S
C663 C660 1.539 . S
C663 H677 0.958 . S
C663 H678 0.961 . S
C663 H679 0.960 . S
H664 C648 0.931 . S
H665 C653 0.929 . S
H666 C654 0.960 . S
H667 C654 0.962 . S
H668 C654 0.960 . S
H669 C655 0.961 . S
H670 C655 0.961 . S
H671 C655 0.961 . S
H672 C656 0.931 . S
H673 C661 0.930 . S
H674 C662 0.956 . S
H675 C662 0.961 . S
H676 C662 0.961 . S
H677 C663 0.958 . S
H678 C663 0.961 . S
H679 C663 0.960 . S
C680 C681 1.391 . S
C680 C682 1.394 . S
C680 H696 0.931 . S
C681 C680 1.391 . S
C681 C685 1.376 . S
C682 C680 1.394 . S
C682 C683 1.369 . S
C682 C686 1.531 . S
C683 C682 1.369 . S
C683 C684 1.410 . S
C683 C691 1.503 . S
C684 C683 1.410 . S
C684 C685 1.392 . S
C684 C687 1.511 . S
C685 C681 1.376 . S
C685 C684 1.392 . S
C685 H697 0.929 . S
C686 C682 1.531 . S
C686 H698 0.960 . S
C686 H699 0.962 . S
C686 H700 0.960 . S
C687 C684 1.511 . S
C687 H701 0.961 . S
C687 H702 0.961 . S
C687 H703 0.961 . S
C688 C689 1.370 . S
C688 C690 1.363 . S
C688 H704 0.931 . S
C689 C688 1.370 . S
C689 C693 1.408 . S
C690 C688 1.363 . S
C690 C691 1.370 . S
C690 C694 1.524 . S
C691 C683 1.503 . S
C691 C690 1.370 . S
C691 C692 1.403 . S
C692 C691 1.403 . S
C692 C693 1.404 . S
C692 C695 1.539 . S
C693 C689 1.408 . S
C693 C692 1.404 . S
C693 H705 0.930 . S
C694 C690 1.524 . S
C694 H706 0.956 . S
C694 H707 0.961 . S
C694 H708 0.961 . S
C695 C692 1.539 . S
C695 H709 0.958 . S
C695 H710 0.961 . S
C695 H711 0.960 . S
H696 C680 0.931 . S
H697 C685 0.929 . S
H698 C686 0.960 . S
H699 C686 0.962 . S
H700 C686 0.960 . S
H701 C687 0.961 . S
H702 C687 0.961 . S
H703 C687 0.961 . S
H704 C688 0.931 . S
H705 C693 0.930 . S
H706 C694 0.956 . S
H707 C694 0.961 . S
H708 C694 0.961 . S
H709 C695 0.958 . S
H710 C695 0.961 . S
H711 C695 0.960 . S
C712 C713 1.391 . S
C712 C714 1.394 . S
C712 H728 0.931 . S
C713 C712 1.391 . S
C713 C717 1.376 . S
C714 C712 1.394 . S
C714 C715 1.369 . S
C714 C718 1.531 . S
C715 C714 1.369 . S
C715 C716 1.410 . S
C715 C723 1.503 . S
C716 C715 1.410 . S
C716 C717 1.392 . S
C716 C719 1.511 . S
C717 C713 1.376 . S
C717 C716 1.392 . S
C717 H729 0.929 . S
C718 C714 1.531 . S
C718 H730 0.960 . S
C718 H731 0.962 . S
C718 H732 0.960 . S
C719 C716 1.511 . S
C719 H733 0.961 . S
C719 H734 0.961 . S
C719 H735 0.961 . S
C720 C721 1.370 . S
C720 C722 1.363 . S
C720 H736 0.931 . S
C721 C720 1.370 . S
C721 C725 1.408 . S
C722 C720 1.363 . S
C722 C723 1.370 . S
C722 C726 1.524 . S
C723 C715 1.503 . S
C723 C722 1.370 . S
C723 C724 1.403 . S
C724 C723 1.403 . S
C724 C725 1.404 . S
C724 C727 1.539 . S
C725 C721 1.408 . S
C725 C724 1.404 . S
C725 H737 0.930 . S
C726 C722 1.524 . S
C726 H738 0.956 . S
C726 H739 0.961 . S
C726 H740 0.961 . S
C727 C724 1.539 . S
C727 H741 0.958 . S
C727 H742 0.961 . S
C727 H743 0.960 . S
H728 C712 0.931 . S
H729 C717 0.929 . S
H730 C718 0.960 . S
H731 C718 0.962 . S
H732 C718 0.960 . S
H733 C719 0.961 . S
H734 C719 0.961 . S
H735 C719 0.961 . S
H736 C720 0.931 . S
H737 C725 0.930 . S
H738 C726 0.956 . S
H739 C726 0.961 . S
H740 C726 0.961 . S
H741 C727 0.958 . S
H742 C727 0.961 . S
H743 C727 0.960 . S
C744 C745 1.391 . S
C744 C746 1.394 . S
C744 H760 0.931 . S
C745 C744 1.391 . S
C745 C749 1.376 . S
C746 C744 1.394 . S
C746 C747 1.369 . S
C746 C750 1.531 . S
C747 C746 1.369 . S
C747 C748 1.410 . S
C747 C755 1.503 . S
C748 C747 1.410 . S
C748 C749 1.392 . S
C748 C751 1.511 . S
C749 C745 1.376 . S
C749 C748 1.392 . S
C749 H761 0.929 . S
C750 C746 1.531 . S
C750 H762 0.960 . S
C750 H763 0.962 . S
C750 H764 0.960 . S
C751 C748 1.511 . S
C751 H765 0.961 . S
C751 H766 0.961 . S
C751 H767 0.961 . S
C752 C753 1.370 . S
C752 C754 1.363 . S
C752 H768 0.931 . S
C753 C752 1.370 . S
C753 C757 1.408 . S
C754 C752 1.363 . S
C754 C755 1.370 . S
C754 C758 1.524 . S
C755 C747 1.503 . S
C755 C754 1.370 . S
C755 C756 1.403 . S
C756 C755 1.403 . S
C756 C757 1.404 . S
C756 C759 1.539 . S
C757 C753 1.408 . S
C757 C756 1.404 . S
C757 H769 0.930 . S
C758 C754 1.524 . S
C758 H770 0.956 . S
C758 H771 0.961 . S
C758 H772 0.961 . S
C759 C756 1.539 . S
C759 H773 0.958 . S
C759 H774 0.961 . S
C759 H775 0.960 . S
H760 C744 0.931 . S
H761 C749 0.929 . S
H762 C750 0.960 . S
H763 C750 0.962 . S
H764 C750 0.960 . S
H765 C751 0.961 . S
H766 C751 0.961 . S
H767 C751 0.961 . S
H768 C752 0.931 . S
H769 C757 0.930 . S
H770 C758 0.956 . S
H771 C758 0.961 . S
H772 C758 0.961 . S
H773 C759 0.958 . S
H774 C759 0.961 . S
H775 C759 0.960 . S
C776 C777 1.391 . S
C776 C778 1.394 . S
C776 H792 0.931 . S
C777 C776 1.391 . S
C777 C781 1.376 . S
C778 C776 1.394 . S
C778 C779 1.369 . S
C778 C782 1.531 . S
C779 C778 1.369 . S
C779 C780 1.410 . S
C779 C787 1.503 . S
C780 C779 1.410 . S
C780 C781 1.392 . S
C780 C783 1.511 . S
C781 C777 1.376 . S
C781 C780 1.392 . S
C781 H793 0.929 . S
C782 C778 1.531 . S
C782 H794 0.960 . S
C782 H795 0.962 . S
C782 H796 0.960 . S
C783 C780 1.511 . S
C783 H797 0.961 . S
C783 H798 0.961 . S
C783 H799 0.961 . S
C784 C785 1.370 . S
C784 C786 1.363 . S
C784 H800 0.931 . S
C785 C784 1.370 . S
C785 C789 1.408 . S
C786 C784 1.363 . S
C786 C787 1.370 . S
C786 C790 1.524 . S
C787 C779 1.503 . S
C787 C786 1.370 . S
C787 C788 1.403 . S
C788 C787 1.403 . S
C788 C789 1.404 . S
C788 C791 1.539 . S
C789 C785 1.408 . S
C789 C788 1.404 . S
C789 H801 0.930 . S
C790 C786 1.524 . S
C790 H802 0.956 . S
C790 H803 0.961 . S
C790 H804 0.961 . S
C791 C788 1.539 . S
C791 H805 0.958 . S
C791 H806 0.961 . S
C791 H807 0.960 . S
H792 C776 0.931 . S
H793 C781 0.929 . S
H794 C782 0.960 . S
H795 C782 0.962 . S
H796 C782 0.960 . S
H797 C783 0.961 . S
H798 C783 0.961 . S
H799 C783 0.961 . S
H800 C784 0.931 . S
H801 C789 0.930 . S
H802 C790 0.956 . S
H803 C790 0.961 . S
H804 C790 0.961 . S
H805 C791 0.958 . S
H806 C791 0.961 . S
H807 C791 0.960 . S
C808 C809 1.391 . S
C808 C810 1.394 . S
C808 H824 0.931 . S
C809 C808 1.391 . S
C809 C813 1.376 . S
C810 C808 1.394 . S
C810 C811 1.369 . S
C810 C814 1.531 . S
C811 C810 1.369 . S
C811 C812 1.410 . S
C811 C819 1.503 . S
C812 C811 1.410 . S
C812 C813 1.392 . S
C812 C815 1.511 . S
C813 C809 1.376 . S
C813 C812 1.392 . S
C813 H825 0.929 . S
C814 C810 1.531 . S
C814 H826 0.960 . S
C814 H827 0.962 . S
C814 H828 0.960 . S
C815 C812 1.511 . S
C815 H829 0.961 1_655 S
C815 H830 0.961 1_655 S
C815 H831 0.961 1_655 S
C816 C817 1.370 . S
C816 C818 1.363 . S
C816 H832 0.931 . S
C817 C816 1.370 . S
C817 C821 1.408 . S
C818 C816 1.363 . S
C818 C819 1.370 . S
C818 C822 1.524 . S
C819 C811 1.503 . S
C819 C818 1.370 . S
C819 C820 1.403 . S
C820 C819 1.403 . S
C820 C821 1.404 . S
C820 C823 1.539 . S
C821 C817 1.408 . S
C821 C820 1.404 . S
C821 H833 0.930 . S
C822 C818 1.524 . S
C822 H834 0.956 . S
C822 H835 0.961 . S
C822 H836 0.961 . S
C823 C820 1.539 . S
C823 H837 0.958 . S
C823 H838 0.961 . S
C823 H839 0.960 . S
H824 C808 0.931 . S
H825 C813 0.929 . S
H826 C814 0.960 . S
H827 C814 0.962 . S
H828 C814 0.960 . S
H829 C815 0.961 1_455 S
H830 C815 0.961 1_455 S
H831 C815 0.961 1_455 S
H832 C816 0.931 . S
H833 C821 0.930 . S
H834 C822 0.956 . S
H835 C822 0.961 . S
H836 C822 0.961 . S
H837 C823 0.958 . S
H838 C823 0.961 . S
H839 C823 0.960 . S
C840 C841 1.391 . S
C840 C842 1.394 . S
C840 H856 0.931 . S
C841 C840 1.391 . S
C841 C845 1.376 . S
C842 C840 1.394 . S
C842 C843 1.369 . S
C842 C846 1.531 . S
C843 C842 1.369 . S
C843 C844 1.410 . S
C843 C851 1.503 . S
C844 C843 1.410 . S
C844 C845 1.392 . S
C844 C847 1.511 . S
C845 C841 1.376 . S
C845 C844 1.392 . S
C845 H857 0.929 . S
C846 C842 1.531 . S
C846 H858 0.960 . S
C846 H859 0.962 . S
C846 H860 0.960 . S
C847 C844 1.511 . S
C847 H861 0.961 . S
C847 H862 0.961 . S
C847 H863 0.961 . S
C848 C849 1.370 . S
C848 C850 1.363 . S
C848 H864 0.931 . S
C849 C848 1.370 . S
C849 C853 1.408 . S
C850 C848 1.363 . S
C850 C851 1.370 . S
C850 C854 1.524 . S
C851 C843 1.503 . S
C851 C850 1.370 . S
C851 C852 1.403 . S
C852 C851 1.403 . S
C852 C853 1.404 . S
C852 C855 1.539 . S
C853 C849 1.408 . S
C853 C852 1.404 . S
C853 H865 0.930 . S
C854 C850 1.524 . S
C854 H866 0.956 . S
C854 H867 0.961 . S
C854 H868 0.961 . S
C855 C852 1.539 . S
C855 H869 0.958 . S
C855 H870 0.961 . S
C855 H871 0.960 . S
H856 C840 0.931 . S
H857 C845 0.929 . S
H858 C846 0.960 . S
H859 C846 0.962 . S
H860 C846 0.960 . S
H861 C847 0.961 . S
H862 C847 0.961 . S
H863 C847 0.961 . S
H864 C848 0.931 . S
H865 C853 0.930 . S
H866 C854 0.956 . S
H867 C854 0.961 . S
H868 C854 0.961 . S
H869 C855 0.958 . S
H870 C855 0.961 . S
H871 C855 0.960 . S
C872 C873 1.391 . S
C872 C874 1.394 . S
C872 H888 0.931 . S
C873 C872 1.391 . S
C873 C877 1.376 . S
C874 C872 1.394 . S
C874 C875 1.369 . S
C874 C878 1.531 . S
C875 C874 1.369 . S
C875 C876 1.410 . S
C875 C883 1.503 . S
C876 C875 1.410 . S
C876 C877 1.392 . S
C876 C879 1.511 . S
C877 C873 1.376 . S
C877 C876 1.392 . S
C877 H889 0.929 . S
C878 C874 1.531 . S
C878 H890 0.960 . S
C878 H891 0.962 . S
C878 H892 0.960 . S
C879 C876 1.511 . S
C879 H893 0.961 . S
C879 H894 0.961 . S
C879 H895 0.961 . S
C880 C881 1.370 . S
C880 C882 1.363 . S
C880 H896 0.931 . S
C881 C880 1.370 . S
C881 C885 1.408 . S
C882 C880 1.363 . S
C882 C883 1.370 . S
C882 C886 1.524 . S
C883 C875 1.503 . S
C883 C882 1.370 . S
C883 C884 1.403 . S
C884 C883 1.403 . S
C884 C885 1.404 . S
C884 C887 1.539 . S
C885 C881 1.408 . S
C885 C884 1.404 . S
C885 H897 0.930 . S
C886 C882 1.524 . S
C886 H898 0.956 . S
C886 H899 0.961 . S
C886 H900 0.961 . S
C887 C884 1.539 . S
C887 H901 0.958 . S
C887 H902 0.961 . S
C887 H903 0.960 . S
H888 C872 0.931 . S
H889 C877 0.929 . S
H890 C878 0.960 . S
H891 C878 0.962 . S
H892 C878 0.960 . S
H893 C879 0.961 . S
H894 C879 0.961 . S
H895 C879 0.961 . S
H896 C880 0.931 . S
H897 C885 0.930 . S
H898 C886 0.956 . S
H899 C886 0.961 . S
H900 C886 0.961 . S
H901 C887 0.958 . S
H902 C887 0.961 . S
H903 C887 0.960 . S
C904 C905 1.391 . S
C904 C906 1.394 . S
C904 H920 0.931 . S
C905 C904 1.391 . S
C905 C909 1.376 . S
C906 C904 1.394 . S
C906 C907 1.369 . S
C906 C910 1.531 . S
C907 C906 1.369 . S
C907 C908 1.410 . S
C907 C915 1.503 . S
C908 C907 1.410 . S
C908 C909 1.392 . S
C908 C911 1.511 . S
C909 C905 1.376 . S
C909 C908 1.392 . S
C909 H921 0.929 . S
C910 C906 1.531 . S
C910 H922 0.960 . S
C910 H923 0.962 . S
C910 H924 0.960 . S
C911 C908 1.511 . S
C911 H925 0.961 . S
C911 H926 0.961 . S
C911 H927 0.961 . S
C912 C913 1.370 . S
C912 C914 1.363 . S
C912 H928 0.931 . S
C913 C912 1.370 . S
C913 C917 1.408 . S
C914 C912 1.363 . S
C914 C915 1.370 . S
C914 C918 1.524 . S
C915 C907 1.503 . S
C915 C914 1.370 . S
C915 C916 1.403 . S
C916 C915 1.403 . S
C916 C917 1.404 . S
C916 C919 1.539 . S
C917 C913 1.408 . S
C917 C916 1.404 . S
C917 H929 0.930 . S
C918 C914 1.524 . S
C918 H930 0.956 . S
C918 H931 0.961 . S
C918 H932 0.961 . S
C919 C916 1.539 . S
C919 H933 0.958 . S
C919 H934 0.961 . S
C919 H935 0.960 . S
H920 C904 0.931 . S
H921 C909 0.929 . S
H922 C910 0.960 . S
H923 C910 0.962 . S
H924 C910 0.960 . S
H925 C911 0.961 . S
H926 C911 0.961 . S
H927 C911 0.961 . S
H928 C912 0.931 . S
H929 C917 0.930 . S
H930 C918 0.956 . S
H931 C918 0.961 . S
H932 C918 0.961 . S
H933 C919 0.958 . S
H934 C919 0.961 . S
H935 C919 0.960 . S
C936 C937 1.391 . S
C936 C938 1.394 . S
C936 H952 0.931 . S
C937 C936 1.391 . S
C937 C941 1.376 . S
C938 C936 1.394 . S
C938 C939 1.369 . S
C938 C942 1.531 . S
C939 C938 1.369 . S
C939 C940 1.410 . S
C939 C947 1.503 . S
C940 C939 1.410 . S
C940 C941 1.392 . S
C940 C943 1.511 . S
C941 C937 1.376 . S
C941 C940 1.392 . S
C941 H953 0.929 . S
C942 C938 1.531 . S
C942 H954 0.960 . S
C942 H955 0.962 . S
C942 H956 0.960 . S
C943 C940 1.511 . S
C943 H957 0.961 . S
C943 H958 0.961 . S
C943 H959 0.961 . S
C944 C945 1.370 . S
C944 C946 1.363 . S
C944 H960 0.931 . S
C945 C944 1.370 . S
C945 C949 1.408 . S
C946 C944 1.363 . S
C946 C947 1.370 . S
C946 C950 1.524 . S
C947 C939 1.503 . S
C947 C946 1.370 . S
C947 C948 1.403 . S
C948 C947 1.403 . S
C948 C949 1.404 . S
C948 C951 1.539 . S
C949 C945 1.408 . S
C949 C948 1.404 . S
C949 H961 0.930 . S
C950 C946 1.524 . S
C950 H962 0.956 . S
C950 H963 0.961 . S
C950 H964 0.961 . S
C951 C948 1.539 . S
C951 H965 0.958 . S
C951 H966 0.961 . S
C951 H967 0.960 . S
H952 C936 0.931 . S
H953 C941 0.929 . S
H954 C942 0.960 . S
H955 C942 0.962 . S
H956 C942 0.960 . S
H957 C943 0.961 . S
H958 C943 0.961 . S
H959 C943 0.961 . S
H960 C944 0.931 . S
H961 C949 0.930 . S
H962 C950 0.956 . S
H963 C950 0.961 . S
H964 C950 0.961 . S
H965 C951 0.958 . S
H966 C951 0.961 . S
H967 C951 0.960 . S
C968 C969 1.391 . S
C968 C970 1.394 . S
C968 H984 0.931 . S
C969 C968 1.391 . S
C969 C973 1.376 . S
C970 C968 1.394 . S
C970 C971 1.369 . S
C970 C974 1.531 . S
C971 C970 1.369 . S
C971 C972 1.410 . S
C971 C979 1.503 . S
C972 C971 1.410 . S
C972 C973 1.392 . S
C972 C975 1.511 . S
C973 C969 1.376 . S
C973 C972 1.392 . S
C973 H985 0.929 . S
C974 C970 1.531 . S
C974 H986 0.960 . S
C974 H987 0.962 . S
C974 H988 0.960 . S
C975 C972 1.511 . S
C975 H989 0.961 . S
C975 H990 0.961 . S
C975 H991 0.961 . S
C976 C977 1.370 . S
C976 C978 1.363 . S
C976 H992 0.931 . S
C977 C976 1.370 . S
C977 C981 1.408 . S
C978 C976 1.363 . S
C978 C979 1.370 . S
C978 C982 1.524 . S
C979 C971 1.503 . S
C979 C978 1.370 . S
C979 C980 1.403 . S
C980 C979 1.403 . S
C980 C981 1.404 . S
C980 C983 1.539 . S
C981 C977 1.408 . S
C981 C980 1.404 . S
C981 H993 0.930 . S
C982 C978 1.524 . S
C982 H994 0.956 . S
C982 H995 0.961 . S
C982 H996 0.961 . S
C983 C980 1.539 . S
C983 H997 0.958 . S
C983 H998 0.961 . S
C983 H999 0.960 . S
H984 C968 0.931 . S
H985 C973 0.929 . S
H986 C974 0.960 . S
H987 C974 0.962 . S
H988 C974 0.960 . S
H989 C975 0.961 . S
H990 C975 0.961 . S
H991 C975 0.961 . S
H992 C976 0.931 . S
H993 C981 0.930 . S
H994 C982 0.956 . S
H995 C982 0.961 . S
H996 C982 0.961 . S
H997 C983 0.958 . S
H998 C983 0.961 . S
H999 C983 0.960 . S
C1000 C1001 1.391 . S
C1000 C1002 1.394 . S
C1000 H1016 0.931 . S
C1001 C1000 1.391 . S
C1001 C1005 1.376 . S
C1002 C1000 1.394 . S
C1002 C1003 1.369 . S
C1002 C1006 1.531 . S
C1003 C1002 1.369 . S
C1003 C1004 1.410 . S
C1003 C1011 1.503 . S
C1004 C1003 1.410 . S
C1004 C1005 1.392 . S
C1004 C1007 1.511 . S
C1005 C1001 1.376 . S
C1005 C1004 1.392 . S
C1005 H1017 0.929 . S
C1006 C1002 1.531 . S
C1006 H1018 0.960 . S
C1006 H1019 0.962 . S
C1006 H1020 0.960 . S
C1007 C1004 1.511 . S
C1007 H1021 0.961 . S
C1007 H1022 0.961 . S
C1007 H1023 0.961 . S
C1008 C1009 1.370 . S
C1008 C1010 1.363 . S
C1008 H1024 0.931 . S
C1009 C1008 1.370 . S
C1009 C1013 1.408 . S
C1010 C1008 1.363 . S
C1010 C1011 1.370 . S
C1010 C1014 1.524 . S
C1011 C1003 1.503 . S
C1011 C1010 1.370 . S
C1011 C1012 1.403 . S
C1012 C1011 1.403 . S
C1012 C1013 1.404 . S
C1012 C1015 1.539 . S
C1013 C1009 1.408 . S
C1013 C1012 1.404 . S
C1013 H1025 0.930 . S
C1014 C1010 1.524 . S
C1014 H1026 0.956 . S
C1014 H1027 0.961 . S
C1014 H1028 0.961 . S
C1015 C1012 1.539 . S
C1015 H1029 0.958 . S
C1015 H1030 0.961 . S
C1015 H1031 0.960 . S
H1016 C1000 0.931 . S
H1017 C1005 0.929 . S
H1018 C1006 0.960 . S
H1019 C1006 0.962 . S
H1020 C1006 0.960 . S
H1021 C1007 0.961 . S
H1022 C1007 0.961 . S
H1023 C1007 0.961 . S
H1024 C1008 0.931 . S
H1025 C1013 0.930 . S
H1026 C1014 0.956 . S
H1027 C1014 0.961 . S
H1028 C1014 0.961 . S
H1029 C1015 0.958 . S
H1030 C1015 0.961 . S
H1031 C1015 0.960 . S
C265 C9 1.383 . S
C273 C119 1.406 . S
C297 C21 1.419 . S
C305 C163 1.394 . S
C337 C193 2.011 . S
C329 C30 1.955 . S
C361 C43 2.477 . S
C369 C234 2.516 . S
C401 C150 0.701 . S
C393 C4 0.779 . S
C433 C114 2.953 . S
C425 C22 2.911 . S
C465 C242 0.855 1_556 S
C457 C34 0.889 . S
C497 C203 1.979 . S
C489 C48 1.992 . S
C521 C8 1.115 . S
C529 C239 1.223 . S
C561 C153 1.790 . S
C553 C35 1.791 . S
C585 C47 2.161 . S
C593 C122 2.115 . S
C617 C17 1.984 . S
C625 C190 1.993 . S
C657 C110 0.899 . S
C649 C60 0.944 . S
C681 C74 1.461 . S
C689 C154 1.511 . S
C713 C82 1.474 . S
C721 C202 1.654 . S
C745 C100 3.009 . S
C753 C243 2.967 1_556 S
C777 C61 1.052 . S
C785 C159 1.136 . S
C817 C123 2.335 . S
C809 C73 2.299 . S
C849 C233 1.384 . S
C841 C87 1.416 . S
C881 C194 1.997 . S
C873 C95 2.104 . S
C905 C56 0.914 . S
C913 C230 0.969 . S
C945 C162 2.144 . S
C937 C86 2.195 . S
C977 C113 2.004 . S
C969 C99 2.008 . S
C1001 C69 1.651 . S
C1009 C199 1.833 . S
