# Generated by pormake.
# Topology wbl, (4,4)-cn, num edge types: 1
# Building blocks:
#     Node 0, Type 0, BuildingBlock: MIFKUJ_clean_linker_1, # of connection points: 4
#     Node 1, Type 0, BuildingBlock: MIFKUJ_clean_linker_1, # of connection points: 4
#     Node 2, Type 0, BuildingBlock: MIFKUJ_clean_linker_1, # of connection points: 4
#     Node 3, Type 0, BuildingBlock: MIFKUJ_clean_linker_1, # of connection points: 4
#     Node 4, Type 0, BuildingBlock: MIFKUJ_clean_linker_1, # of connection points: 4
#     Node 5, Type 0, BuildingBlock: MIFKUJ_clean_linker_1, # of connection points: 4
#     Node 6, Type 0, BuildingBlock: MIFKUJ_clean_linker_1, # of connection points: 4
#     Node 7, Type 0, BuildingBlock: MIFKUJ_clean_linker_1, # of connection points: 4
#     Node 8, Type 1, BuildingBlock: NAHDIM_clean_sbu_0, # of connection points: 4
#     Node 9, Type 1, BuildingBlock: NAHDIM_clean_sbu_0, # of connection points: 4
#     Node 10, Type 1, BuildingBlock: NAHDIM_clean_sbu_0, # of connection points: 4
#     Node 11, Type 1, BuildingBlock: NAHDIM_clean_sbu_0, # of connection points: 4
#     Node 12, Type 1, BuildingBlock: NAHDIM_clean_sbu_0, # of connection points: 4
#     Node 13, Type 1, BuildingBlock: NAHDIM_clean_sbu_0, # of connection points: 4
#     Node 14, Type 1, BuildingBlock: NAHDIM_clean_sbu_0, # of connection points: 4
#     Node 15, Type 1, BuildingBlock: NAHDIM_clean_sbu_0, # of connection points: 4
#     Edge 16, Type (0, 1), BuildingBlock: OJICUG_clean_linker_0, # of connection points: 2
#     Edge 17, Type (0, 1), BuildingBlock: OJICUG_clean_linker_0, # of connection points: 2
#     Edge 18, Type (0, 1), BuildingBlock: OJICUG_clean_linker_0, # of connection points: 2
#     Edge 19, Type (0, 1), BuildingBlock: OJICUG_clean_linker_0, # of connection points: 2
#     Edge 20, Type (0, 1), BuildingBlock: OJICUG_clean_linker_0, # of connection points: 2
#     Edge 21, Type (0, 1), BuildingBlock: OJICUG_clean_linker_0, # of connection points: 2
#     Edge 22, Type (0, 1), BuildingBlock: OJICUG_clean_linker_0, # of connection points: 2
#     Edge 23, Type (0, 1), BuildingBlock: OJICUG_clean_linker_0, # of connection points: 2
#     Edge 24, Type (0, 1), BuildingBlock: OJICUG_clean_linker_0, # of connection points: 2
#     Edge 25, Type (0, 1), BuildingBlock: OJICUG_clean_linker_0, # of connection points: 2
#     Edge 26, Type (0, 1), BuildingBlock: OJICUG_clean_linker_0, # of connection points: 2
#     Edge 27, Type (0, 1), BuildingBlock: OJICUG_clean_linker_0, # of connection points: 2
#     Edge 28, Type (0, 1), BuildingBlock: OJICUG_clean_linker_0, # of connection points: 2
#     Edge 29, Type (0, 1), BuildingBlock: OJICUG_clean_linker_0, # of connection points: 2
#     Edge 30, Type (0, 1), BuildingBlock: OJICUG_clean_linker_0, # of connection points: 2
#     Edge 31, Type (0, 1), BuildingBlock: OJICUG_clean_linker_0, # of connection points: 2
#     Edge 32, Type (0, 1), BuildingBlock: OJICUG_clean_linker_0, # of connection points: 2
#     Edge 33, Type (0, 1), BuildingBlock: OJICUG_clean_linker_0, # of connection points: 2
#     Edge 34, Type (0, 1), BuildingBlock: OJICUG_clean_linker_0, # of connection points: 2
#     Edge 35, Type (0, 1), BuildingBlock: OJICUG_clean_linker_0, # of connection points: 2
#     Edge 36, Type (0, 1), BuildingBlock: OJICUG_clean_linker_0, # of connection points: 2
#     Edge 37, Type (0, 1), BuildingBlock: OJICUG_clean_linker_0, # of connection points: 2
#     Edge 38, Type (0, 1), BuildingBlock: OJICUG_clean_linker_0, # of connection points: 2
#     Edge 39, Type (0, 1), BuildingBlock: OJICUG_clean_linker_0, # of connection points: 2
#     Edge 40, Type (0, 1), BuildingBlock: OJICUG_clean_linker_0, # of connection points: 2
#     Edge 41, Type (0, 1), BuildingBlock: OJICUG_clean_linker_0, # of connection points: 2
#     Edge 42, Type (0, 1), BuildingBlock: OJICUG_clean_linker_0, # of connection points: 2
#     Edge 43, Type (0, 1), BuildingBlock: OJICUG_clean_linker_0, # of connection points: 2
#     Edge 44, Type (0, 1), BuildingBlock: OJICUG_clean_linker_0, # of connection points: 2
#     Edge 45, Type (0, 1), BuildingBlock: OJICUG_clean_linker_0, # of connection points: 2
#     Edge 46, Type (0, 1), BuildingBlock: OJICUG_clean_linker_0, # of connection points: 2
#     Edge 47, Type (0, 1), BuildingBlock: OJICUG_clean_linker_0, # of connection points: 2
# Relax obj value: 0.142
# Max RMSD: 0.133
# Mean RMSD: 0.126
data_MOF--net-wbl--node1-NAHDIM_clean_sbu_0--node2-MIFKUJ_clean_linker_1--edge1-OJICUG_clean_linker_0
_symmetry_space_group_name_H-M    P1
_symmetry_Int_Tables_number       1
_symmetry_cell_setting            triclinic
loop_
_symmetry_equiv_pos_as_xyz
'x, y, z'
_cell_length_a     36.647318
_cell_length_b     35.416084
_cell_length_c     56.553051
_cell_angle_alpha  90.043529
_cell_angle_beta   89.953373
_cell_angle_gamma 89.925588
loop_
_atom_site_label
_atom_site_type_symbol
_atom_site_fract_x
_atom_site_fract_y
_atom_site_fract_z
_atom_type_partial_charge
H0 H 0.99509 0.10076 0.36816 0.0
H1 H 0.95494 0.14093 0.39219 0.0
H2 H 0.86437 0.067 0.37691 0.0
H3 H 0.90453 0.0274 0.3524 0.0
H4 H 0.99685 0.01311 0.37934 0.0
H5 H 0.97835 0.10899 0.31848 0.0
H6 H 0.93435 0.14852 0.29736 0.0
H7 H 0.88287 0.04823 0.26942 0.0
H8 H 0.92706 0.009 0.29051 0.0
H9 H 0.01239 0.93176 0.2892 0.0
H10 H 0.0565 0.88911 0.27026 0.0
H11 H 0.14162 0.93276 0.31531 0.0
H12 H 0.09811 0.97619 0.33351 0.0
H13 H 0.00426 0.00388 0.29194 0.0
H14 H 0.02695 0.90703 0.34881 0.0
H15 H 0.05695 0.86547 0.3776 0.0
H16 H 0.09161 0.96287 0.41748 0.0
H17 H 0.06335 0.00442 0.38827 0.0
C18 C 0.95261 0.06134 0.35853 0.0
C19 C 0.96643 0.0937 0.36965 0.0
C20 C 0.94352 0.1166 0.38325 0.0
C21 C 0.90667 0.10693 0.38636 0.0
C22 C 0.89272 0.07493 0.37477 0.0
C23 C 0.91551 0.05244 0.36078 0.0
C24 C 0.97766 0.03509 0.34632 0.0
C25 C -0.00078 0.01135 0.36023 0.0
C26 C 0.97904 0.03209 0.32147 0.0
C27 C 0.95559 0.05607 0.30632 0.0
C28 C 0.95774 0.09559 0.30764 0.0
C29 C 0.93256 0.11812 0.29559 0.0
C30 C 0.90491 0.10154 0.28186 0.0
C31 C 0.90404 0.06195 0.27963 0.0
C32 C 0.9292 0.03945 0.29173 0.0
C33 C 0.05172 0.95674 0.31313 0.0
C34 C 0.04061 0.93235 0.29488 0.0
C35 C 0.06572 0.90795 0.28411 0.0
C36 C 0.10225 0.90731 0.2916 0.0
C37 C 0.11343 0.93215 0.30955 0.0
C38 C 0.08855 0.95692 0.31999 0.0
C39 C 0.02503 0.9821 0.32502 0.0
C40 C 0.00264 0.00555 0.31106 0.0
C41 C 0.02268 0.98456 0.35004 0.0
C42 C 0.04301 0.95899 0.36624 0.0
C43 C 0.04178 0.91953 0.3634 0.0
C44 C 0.05871 0.89578 0.37988 0.0
C45 C 0.07625 0.91112 0.39973 0.0
C46 C 0.07794 0.95046 0.40238 0.0
C47 C 0.06175 0.97415 0.38572 0.0
H48 H 0.99722 0.42129 0.55256 0.0
H49 H 0.96327 0.37163 0.53264 0.0
H50 H 0.86297 0.43363 0.54411 0.0
H51 H 0.89738 0.48273 0.56491 0.0
H52 H 0.00312 0.5001 0.54403 0.0
H53 H 0.95889 0.41413 0.60747 0.0
H54 H 0.91608 0.38313 0.6343 0.0
H55 H 0.86068 0.48965 0.64526 0.0
H56 H 0.90448 0.52051 0.61904 0.0
H57 H 0.0033 0.58892 0.63131 0.0
H58 H 0.04617 0.6178 0.65914 0.0
H59 H 0.13228 0.54591 0.63264 0.0
H60 H 0.08929 0.51719 0.60472 0.0
H61 H 0.98309 0.51591 0.63024 0.0
H62 H 0.03228 0.60375 0.58026 0.0
H63 H 0.07666 0.64322 0.55995 0.0
H64 H 0.11424 0.5468 0.5201 0.0
H65 H 0.0709 0.50635 0.54156 0.0
C66 C 0.94978 0.45552 0.56027 0.0
C67 C 0.96797 0.42436 0.55054 0.0
C68 C 0.94844 0.39608 0.539 0.0
C69 C 0.91027 0.39858 0.53664 0.0
C70 C 0.89223 0.43049 0.54587 0.0
C71 C 0.91183 0.45867 0.55765 0.0
C72 C 0.97074 0.48354 0.57406 0.0
C73 C -0.00091 0.50343 0.56292 0.0
C74 C 0.964 0.48944 0.59836 0.0
C75 C 0.93478 0.46954 0.61135 0.0
C76 C 0.93704 0.43055 0.61531 0.0
C77 C 0.91242 0.41288 0.6306 0.0
C78 C 0.88507 0.43396 0.64216 0.0
C79 C 0.88181 0.4727 0.63706 0.0
C80 C 0.90662 0.49035 0.62195 0.0
C81 C 0.04318 0.55107 0.61591 0.0
C82 C 0.0315 0.57969 0.63133 0.0
C83 C 0.05602 0.59625 0.64711 0.0
C84 C 0.09249 0.58402 0.64801 0.0
C85 C 0.10427 0.55569 0.63235 0.0
C86 C 0.07983 0.5395 0.61633 0.0
C87 C 0.0166 0.53139 0.60051 0.0
C88 C 0.98711 0.51312 0.6113 0.0
C89 C 0.02172 0.52803 0.57578 0.0
C90 C 0.04877 0.55174 0.56298 0.0
C91 C 0.05063 0.59066 0.56767 0.0
C92 C 0.07582 0.61331 0.55594 0.0
C93 C 0.09902 0.59784 0.53874 0.0
C94 C 0.09666 0.5592 0.53343 0.0
C95 C 0.07188 0.53622 0.54561 0.0
H96 H 0.49633 0.59459 0.87121 0.0
H97 H 0.45603 0.63608 0.89422 0.0
H98 H 0.3633 0.56864 0.87355 0.0
H99 H 0.40368 0.52766 0.85012 0.0
H100 H 0.49813 0.51022 0.87959 0.0
H101 H 0.47529 0.60528 0.81963 0.0
H102 H 0.43001 0.64395 0.79903 0.0
H103 H 0.38233 0.54309 0.76923 0.0
H104 H 0.42742 0.50454 0.7901 0.0
H105 H 0.51171 0.42636 0.79012 0.0
H106 H 0.5564 0.38432 0.77121 0.0
H107 H 0.64164 0.43232 0.81445 0.0
H108 H 0.59741 0.47464 0.83279 0.0
H109 H 0.50268 0.49967 0.79211 0.0
H110 H 0.51978 0.4041 0.85058 0.0
H111 H 0.55068 0.36122 0.87806 0.0
H112 H 0.5999 0.45695 0.91303 0.0
H113 H 0.56949 0.49952 0.88533 0.0
C114 C 0.45286 0.55821 0.85902 0.0
C115 C 0.46725 0.58912 0.87139 0.0
C116 C 0.44426 0.61284 0.88437 0.0
C117 C 0.40666 0.60546 0.88558 0.0
C118 C 0.39222 0.57482 0.87287 0.0
C119 C 0.41516 0.55151 0.85952 0.0
C120 C 0.4776 0.53174 0.84668 0.0
C121 C 0.49966 0.50823 0.86046 0.0
C122 C 0.47816 0.52827 0.82179 0.0
C123 C 0.45427 0.55199 0.80674 0.0
C124 C 0.45521 0.59152 0.80855 0.0
C125 C 0.42936 0.61358 0.79678 0.0
C126 C 0.40243 0.59651 0.7827 0.0
C127 C 0.4029 0.55706 0.77981 0.0
C128 C 0.42861 0.53499 0.79174 0.0
C129 C 0.55103 0.45321 0.81321 0.0
C130 C 0.54006 0.4279 0.79544 0.0
C131 C 0.56554 0.40389 0.78468 0.0
C132 C 0.60236 0.40468 0.79163 0.0
C133 C 0.61331 0.43045 0.80913 0.0
C134 C 0.58801 0.45465 0.81963 0.0
C135 C 0.5242 0.47839 0.82507 0.0
C136 C 0.5015 0.50161 0.81124 0.0
C137 C 0.52243 0.48113 0.85004 0.0
C138 C 0.54254 0.45497 0.86583 0.0
C139 C 0.5376 0.41576 0.86399 0.0
C140 C 0.55499 0.39134 0.87981 0.0
C141 C 0.5777 0.40573 0.89769 0.0
C142 C 0.58292 0.44498 0.89927 0.0
C143 C 0.56538 0.46935 0.88356 0.0
H144 H 0.50405 0.91593 0.04896 0.0
H145 H 0.46722 0.87035 0.02745 0.0
H146 H 0.36915 0.92774 0.05065 0.0
H147 H 0.4066 0.97221 0.07317 0.0
H148 H 0.50889 0.9968 0.04847 0.0
H149 H 0.47322 0.89287 0.10052 0.0
H150 H 0.4352 0.8516 0.12493 0.0
H151 H 0.38796 0.94963 0.15878 0.0
H152 H 0.42518 0.99059 0.13383 0.0
H153 H 0.53469 0.09032 0.1132 0.0
H154 H 0.57273 0.12283 0.14241 0.0
H155 H 0.61794 0.01541 0.16407 0.0
H156 H 0.57888 0.98331 0.13554 0.0
H157 H 0.50051 0.98921 0.13591 0.0
H158 H 0.51682 0.07459 0.05143 0.0
H159 H 0.56003 0.12034 0.03531 0.0
H160 H 0.64875 0.06104 0.06933 0.0
H161 H 0.60528 0.01535 0.08541 0.0
C162 C 0.45803 0.94726 0.0627 0.0
C163 C 0.47462 0.91897 0.04911 0.0
C164 C 0.45339 0.89302 0.03668 0.0
C165 C 0.415 0.89518 0.03723 0.0
C166 C 0.39853 0.9247 0.05011 0.0
C167 C 0.41987 0.95036 0.06285 0.0
C168 C 0.48081 0.97151 0.07801 0.0
C169 C 0.5069 0.99536 0.06759 0.0
C170 C 0.47807 0.96979 0.10292 0.0
C171 C 0.45185 0.9448 0.11527 0.0
C172 C 0.45394 0.90544 0.11274 0.0
C173 C 0.43247 0.8819 0.12688 0.0
C174 C 0.4087 0.89732 0.14391 0.0
C175 C 0.40561 0.9368 0.14567 0.0
C176 C 0.42706 0.96028 0.13153 0.0
C177 C 0.55392 0.03448 0.12238 0.0
C178 C 0.55307 0.07396 0.12416 0.0
C179 C 0.57498 0.09246 0.14078 0.0
C180 C 0.59818 0.07171 0.1558 0.0
C181 C 0.59982 0.03223 0.15322 0.0
C182 C 0.5777 0.01382 0.13682 0.0
C183 C 0.52867 0.01416 0.10646 0.0
C184 C 0.50209 0.99109 0.11678 0.0
C185 C 0.53087 0.01683 0.08156 0.0
C186 C 0.55775 0.04194 0.06991 0.0
C187 C 0.54564 0.07112 0.05511 0.0
C188 C 0.57042 0.09717 0.04585 0.0
C189 C 0.60783 0.09446 0.05117 0.0
C190 C 0.62006 0.06424 0.06521 0.0
C191 C 0.59526 0.03812 0.0744 0.0
H192 H 0.99639 0.59062 0.88072 0.0
H193 H 0.03544 0.63145 0.85687 0.0
H194 H 0.13085 0.57596 0.88548 0.0
H195 H 0.09146 0.53592 0.90978 0.0
H196 H 0.99533 0.5116 0.87759 0.0
H197 H 0.01994 0.6084 0.93591 0.0
H198 H 0.064 0.64781 0.95705 0.0
H199 H 0.11131 0.54779 0.98831 0.0
H200 H 0.0673 0.50864 0.96712 0.0
H201 H 0.98542 0.43064 0.96785 0.0
H202 H 0.94243 0.3877 0.98753 0.0
H203 H 0.85456 0.43312 0.94545 0.0
H204 H 0.89695 0.47686 0.92659 0.0
H205 H 0.99322 0.50354 0.96514 0.0
H206 H 0.96728 0.40631 0.90887 0.0
H207 H 0.93185 0.36508 0.88272 0.0
H208 H 0.89245 0.46278 0.84489 0.0
H209 H 0.92683 0.50395 0.87142 0.0
C210 C 0.04105 0.5603 0.89699 0.0
C211 C 0.02575 0.58755 0.882 0.0
C212 C 0.04812 0.61072 0.86829 0.0
C213 C 0.08632 0.60679 0.86907 0.0
C214 C 0.1016 0.58009 0.88463 0.0
C215 C 0.07914 0.55705 0.89847 0.0
C216 C 0.01695 0.53393 0.90999 0.0
C217 C 0.99433 0.51014 0.89675 0.0
C218 C 0.01692 0.53124 0.93492 0.0
C219 C 0.04075 0.55553 0.94966 0.0
C220 C 0.0397 0.59502 0.94743 0.0
C221 C 0.06487 0.6175 0.9595 0.0
C222 C 0.09128 0.60092 0.97424 0.0
C223 C 0.09107 0.5615 0.97731 0.0
C224 C 0.06601 0.53904 0.96515 0.0
C225 C 0.94459 0.45648 0.94536 0.0
C226 C 0.95684 0.43159 0.96302 0.0
C227 C 0.93237 0.40703 0.9742 0.0
C228 C 0.89541 0.40676 0.96767 0.0
C229 C 0.88309 0.43226 0.95043 0.0
C230 C 0.90732 0.4572 0.93962 0.0
C231 C 0.97062 0.48152 0.93272 0.0
C232 C 0.99386 0.50495 0.94599 0.0
C233 C 0.97143 0.48368 0.90767 0.0
C234 C 0.94951 0.45833 0.89227 0.0
C235 C 0.95056 0.41891 0.89519 0.0
C236 C 0.93043 0.39537 0.88023 0.0
C237 C 0.90959 0.41079 0.86176 0.0
C238 C 0.90863 0.45015 0.85883 0.0
C239 C 0.92826 0.47367 0.87398 0.0
H240 H 0.48287 0.57708 0.21041 0.0
H241 H 0.43764 0.62019 0.22714 0.0
H242 H 0.35126 0.55421 0.19566 0.0
H243 H 0.39677 0.51099 0.17905 0.0
H244 H 0.49858 0.5004 0.21185 0.0
H245 H 0.45956 0.59299 0.14837 0.0
H246 H 0.41813 0.62209 0.11973 0.0
H247 H 0.37717 0.51151 0.10104 0.0
H248 H 0.41975 0.48283 0.12894 0.0
H249 H 0.53755 0.40568 0.14864 0.0
H250 H 0.57969 0.37587 0.12066 0.0
H251 H 0.62461 0.48552 0.10378 0.0
H252 H 0.58123 0.51496 0.13094 0.0
H253 H 0.49974 0.49882 0.12409 0.0
H254 H 0.51428 0.42312 0.21108 0.0
H255 H 0.55912 0.38011 0.22828 0.0
H256 H 0.64624 0.44598 0.19756 0.0
H257 H 0.60114 0.48912 0.18051 0.0
C258 C 0.44324 0.54118 0.19319 0.0
C259 C 0.45416 0.5714 0.20756 0.0
C260 C 0.42823 0.596 0.21715 0.0
C261 C 0.39084 0.59081 0.21255 0.0
C262 C 0.37987 0.55929 0.1992 0.0
C263 C 0.40584 0.53457 0.18973 0.0
C264 C 0.47109 0.51898 0.18015 0.0
C265 C 0.49883 0.50008 0.19268 0.0
C266 C 0.47119 0.51773 0.15516 0.0
C267 C 0.44269 0.53585 0.14061 0.0
C268 C 0.44122 0.57522 0.1383 0.0
C269 C 0.41739 0.59175 0.12199 0.0
C270 C 0.39455 0.56911 0.10783 0.0
C271 C 0.39492 0.52975 0.11121 0.0
C272 C 0.41901 0.5133 0.12727 0.0
C273 C 0.5563 0.46242 0.14168 0.0
C274 C 0.55689 0.42308 0.13911 0.0
C275 C 0.58115 0.40613 0.12319 0.0
C276 C 0.60533 0.42833 0.1097 0.0
C277 C 0.60583 0.46763 0.11341 0.0
C278 C 0.58129 0.48451 0.12905 0.0
C279 C 0.52742 0.48108 0.15568 0.0
C280 C 0.49947 0.49917 0.14329 0.0
C281 C 0.52688 0.48076 0.18066 0.0
C282 C 0.55434 0.45895 0.19421 0.0
C283 C 0.54306 0.42883 0.20853 0.0
C284 C 0.56876 0.40428 0.21838 0.0
C285 C 0.60624 0.40943 0.21408 0.0
C286 C 0.61755 0.44094 0.20087 0.0
C287 C 0.59182 0.46561 0.19114 0.0
H288 H 0.50925 0.90785 0.38163 0.0
H289 H 0.47411 0.86556 0.35623 0.0
H290 H 0.37399 0.91322 0.3836 0.0
H291 H 0.40945 0.95604 0.4087 0.0
H292 H 0.5055 0.98623 0.37829 0.0
H293 H 0.47975 0.88889 0.43654 0.0
H294 H 0.43484 0.8494 0.45691 0.0
H295 H 0.38614 0.94924 0.48756 0.0
H296 H 0.43059 0.98857 0.46689 0.0
H297 H 0.50945 0.06868 0.46893 0.0
H298 H 0.55133 0.11275 0.48878 0.0
H299 H 0.64038 0.07003 0.4465 0.0
H300 H 0.59927 0.0253 0.42754 0.0
H301 H 0.50332 0.99555 0.46582 0.0
H302 H 0.51957 0.09274 0.40837 0.0
H303 H 0.55074 0.13759 0.38229 0.0
H304 H 0.60756 0.04505 0.34863 0.0
H305 H 0.57674 0.0005 0.37489 0.0
C306 C 0.46194 0.93496 0.39706 0.0
C307 C 0.47972 0.90886 0.38233 0.0
C308 C 0.4596 0.88455 0.36797 0.0
C309 C 0.42129 0.88611 0.36789 0.0
C310 C 0.4035 0.91162 0.38314 0.0
C311 C 0.42367 0.93588 0.39759 0.0
C312 C 0.48367 0.96296 0.41043 0.0
C313 C 0.50546 0.98791 0.39746 0.0
C314 C 0.48213 0.96625 0.43536 0.0
C315 C 0.45808 0.94176 0.44983 0.0
C316 C 0.45946 0.90225 0.44771 0.0
C317 C 0.43388 0.87972 0.45938 0.0
C318 C 0.40688 0.89626 0.47371 0.0
C319 C 0.40683 0.93565 0.47682 0.0
C320 C 0.43218 0.95817 0.46497 0.0
C321 C 0.55103 0.04425 0.44634 0.0
C322 C 0.53805 0.06866 0.46408 0.0
C323 C 0.56185 0.09384 0.47534 0.0
C324 C 0.5988 0.09516 0.46878 0.0
C325 C 0.61182 0.07014 0.45146 0.0
C326 C 0.5883 0.04466 0.44058 0.0
C327 C 0.52602 0.01826 0.43364 0.0
C328 C 0.5035 0.99382 0.44668 0.0
C329 C 0.52603 0.01596 0.40865 0.0
C330 C 0.54599 0.04332 0.39362 0.0
C331 C 0.53905 0.08221 0.39554 0.0
C332 C 0.55665 0.10775 0.38055 0.0
C333 C 0.5816 0.09481 0.36346 0.0
C334 C 0.58881 0.0559 0.36182 0.0
C335 C 0.57104 0.03039 0.37667 0.0
H336 H 0.99368 0.07406 0.70854 0.0
H337 H 0.95632 0.11977 0.72993 0.0
H338 H 0.85874 0.06348 0.70563 0.0
H339 H 0.89642 0.01743 0.68437 0.0
H340 H 0.00243 0.99903 0.71061 0.0
H341 H 0.95911 0.08785 0.64737 0.0
H342 H 0.91666 0.11826 0.61996 0.0
H343 H 0.865 0.01044 0.60707 0.0
H344 H 0.90853 0.98024 0.63373 0.0
H345 H 0.00684 0.91529 0.62215 0.0
H346 H 0.0502 0.88632 0.59468 0.0
H347 H 0.13648 0.95575 0.62314 0.0
H348 H 0.09285 0.98472 0.65069 0.0
H349 H 0.98751 0.98823 0.62372 0.0
H350 H 0.03535 0.89828 0.67331 0.0
H351 H 0.07962 0.85871 0.6937 0.0
H352 H 0.11426 0.95425 0.73535 0.0
H353 H 0.07101 0.99482 0.71385 0.0
C354 C 0.9479 0.04263 0.69456 0.0
C355 C 0.96426 0.0712 0.70807 0.0
C356 C 0.94284 0.09726 0.72036 0.0
C357 C 0.90454 0.09528 0.71944 0.0
C358 C 0.88816 0.066 0.70644 0.0
C359 C 0.90966 0.03975 0.69424 0.0
C360 C 0.97114 0.01683 0.68035 0.0
C361 C -0.00045 0.997 0.69157 0.0
C362 C 0.96611 0.01241 0.65573 0.0
C363 C 0.93692 0.03187 0.64245 0.0
C364 C 0.93818 0.07101 0.63892 0.0
C365 C 0.91376 0.08832 0.62331 0.0
C366 C 0.88761 0.06673 0.61105 0.0
C367 C 0.88526 0.0278 0.61576 0.0
C368 C 0.9099 0.01052 0.63113 0.0
C369 C 0.04666 0.95203 0.6385 0.0
C370 C 0.03515 0.92402 0.62262 0.0
C371 C 0.05998 0.90738 0.60704 0.0
C372 C 0.09669 0.91881 0.60681 0.0
C373 C 0.1083 0.94657 0.62289 0.0
C374 C 0.0835 0.96291 0.6387 0.0
C375 C 0.01969 0.97157 0.65377 0.0
C376 C 0.99053 0.9901 0.64278 0.0
C377 C 0.0235 0.97372 0.67864 0.0
C378 C 0.05042 0.9499 0.6915 0.0
C379 C 0.05306 0.91118 0.68632 0.0
C380 C 0.07821 0.88847 0.69809 0.0
C381 C 0.10058 0.90365 0.71581 0.0
C382 C 0.09739 0.94207 0.72161 0.0
C383 C 0.07265 0.96512 0.7094 0.0
C384 C 0.21905 0.67544 0.01069 0.0
O385 O 0.23313 0.66404 0.03081 0.0
O386 O 0.30999 0.67364 0.03051 0.0
Zn387 Zn 0.29292 0.70114 0.00135 0.0
O388 O 0.31788 0.67705 0.9733 0.0
C389 C 0.34071 0.76441 0.00057 0.0
O390 O 0.36251 0.73859 0.99167 0.0
O391 O 0.23887 0.69398 0.99635 0.0
C392 C 0.32367 0.69207 0.95325 0.0
O393 O 0.31372 0.7272 0.94947 0.0
C394 C 0.31853 0.63889 0.02954 0.0
O395 O 0.31453 0.6206 0.00949 0.0
O396 O 0.30795 0.75562 0.00554 0.0
C397 C 0.21985 0.82135 0.25061 0.0
O398 O 0.23074 0.8302 0.22918 0.0
O399 O 0.31001 0.81845 0.22649 0.0
Zn400 Zn 0.29407 0.79278 0.25661 0.0
O401 O 0.32229 0.81676 0.28314 0.0
C402 C 0.30039 0.71897 0.23558 0.0
O403 O 0.28182 0.73526 0.21853 0.0
O404 O 0.24128 0.80317 0.26412 0.0
C405 C 0.34504 0.80001 0.29645 0.0
O406 O 0.35208 0.76405 0.29298 0.0
C407 C 0.34186 0.81081 0.21894 0.0
O408 O 0.36193 0.78648 0.23071 0.0
O409 O 0.30672 0.73746 0.2544 0.0
C410 C 0.27866 0.82043 0.50852 0.0
O411 O 0.26707 0.82552 0.53028 0.0
O412 O 0.18595 0.82107 0.52864 0.0
Zn413 Zn 0.20444 0.79406 0.49961 0.0
O414 O 0.17499 0.81182 0.47152 0.0
C415 C 0.17842 0.71642 0.4933 0.0
O416 O 0.16749 0.72765 0.47233 0.0
O417 O 0.25723 0.80618 0.49328 0.0
C418 C 0.14264 0.82403 0.4743 0.0
O419 O 0.12771 0.82269 0.49541 0.0
C420 C 0.18556 0.85656 0.53191 0.0
O421 O 0.19991 0.87887 0.51586 0.0
O422 O 0.1962 0.73908 0.50635 0.0
C423 C 0.27525 0.67429 0.74725 0.0
O424 O 0.26354 0.66857 0.7256 0.0
O425 O 0.18376 0.6805 0.72577 0.0
Zn426 Zn 0.20267 0.70608 0.755 0.0
O427 O 0.1702 0.68886 0.78162 0.0
C428 C 0.17883 0.78439 0.76152 0.0
O429 O 0.16694 0.77297 0.78223 0.0
O430 O 0.25462 0.69093 0.76204 0.0
C431 C 0.18068 0.68445 0.80286 0.0
O432 O 0.21434 0.69318 0.80863 0.0
C433 C 0.18018 0.645 0.72362 0.0
O434 O 0.19135 0.62278 0.74075 0.0
O435 O 0.19667 0.76157 0.74855 0.0
C436 C 0.71647 0.17875 0.51002 0.0
O437 O 0.72616 0.17114 0.53186 0.0
O438 O 0.80688 0.17318 0.53325 0.0
Zn439 Zn 0.79278 0.20028 0.50334 0.0
O440 O 0.81987 0.17565 0.47632 0.0
C441 C 0.84055 0.26326 0.50285 0.0
O442 O 0.86277 0.23695 0.49501 0.0
O443 O 0.73959 0.19343 0.49603 0.0
C444 C 0.8245 0.19044 0.45607 0.0
O445 O 0.81224 0.22469 0.452 0.0
C446 C 0.81219 0.13773 0.53301 0.0
O447 O 0.80644 0.1189 0.51334 0.0
O448 O 0.80753 0.25476 0.50723 0.0
C449 C 0.72074 0.3222 0.74849 0.0
O450 O 0.72694 0.32613 0.72574 0.0
O451 O 0.80765 0.32571 0.72013 0.0
Zn452 Zn 0.79719 0.29874 0.75069 0.0
O453 O 0.83076 0.32181 0.77496 0.0
C454 C 0.83094 0.22524 0.75821 0.0
O455 O 0.84485 0.24169 0.77696 0.0
O456 O 0.74579 0.30903 0.76166 0.0
C457 C 0.8248 0.32003 0.79708 0.0
O458 O 0.79678 0.30055 0.80486 0.0
C459 C 0.81165 0.36134 0.72027 0.0
O460 O 0.8064 0.37987 0.74012 0.0
O461 O 0.80852 0.24347 0.74538 0.0
C462 C 0.77916 0.32041 0.00922 0.0
O463 O 0.7687 0.32918 0.03076 0.0
O464 O 0.68853 0.32219 0.03249 0.0
Zn465 Zn 0.70393 0.295 0.00279 0.0
O466 O 0.67733 0.31872 0.97553 0.0
C467 C 0.69511 0.22364 0.02544 0.0
O468 O 0.71356 0.2412 0.04205 0.0
O469 O 0.75712 0.30321 0.99562 0.0
C470 C 0.64443 0.31252 0.96967 0.0
O471 O 0.62515 0.28785 0.98168 0.0
C472 C 0.68171 0.35735 0.03184 0.0
O473 O 0.6867 0.37579 0.01195 0.0
O474 O 0.68939 0.24047 0.00596 0.0
C475 C 0.77683 0.17864 0.24754 0.0
O476 O 0.76062 0.16616 0.22837 0.0
O477 O 0.68418 0.18123 0.23023 0.0
Zn478 Zn 0.70477 0.20828 0.25868 0.0
O479 O 0.68158 0.18571 0.28759 0.0
C480 C 0.69597 0.28088 0.23716 0.0
O481 O 0.71406 0.26417 0.22001 0.0
O482 O 0.75897 0.19929 0.26189 0.0
C483 C 0.64807 0.19006 0.29266 0.0
O484 O 0.62769 0.21164 0.27914 0.0
C485 C 0.67516 0.1467 0.23192 0.0
O486 O 0.68088 0.12888 0.25195 0.0
O487 O 0.69058 0.26302 0.25632 0.0
C488 C 0.15214 0.85952 0.29507 0.0
C489 C 0.12911 0.88132 0.28069 0.0
H490 H 0.19826 0.82272 0.29682 0.0
C491 C 0.13361 0.87997 0.25604 0.0
H492 H 0.14891 0.85973 0.31412 0.0
C493 C 0.16213 0.85897 0.24605 0.0
C494 C 0.1863 0.83858 0.26054 0.0
H495 H 0.1162 0.89659 0.24458 0.0
H496 H 0.16598 0.85979 0.22707 0.0
C497 C 0.18026 0.83816 0.28511 0.0
C498 C 0.12227 0.62769 0.50159 0.0
C499 C 0.1247 0.62288 0.52617 0.0
H500 H 0.13761 0.66132 0.4717 0.0
C501 C 0.14873 0.64558 0.53918 0.0
H502 H 0.10376 0.6105 0.49126 0.0
C503 C 0.16834 0.67425 0.52808 0.0
C504 C 0.1638 0.68123 0.50377 0.0
H505 H 0.15115 0.64214 0.55816 0.0
H506 H 0.18541 0.69229 0.53887 0.0
C507 C 0.14155 0.65681 0.49046 0.0
C508 C 0.3598 0.61273 0.74943 0.0
C509 C 0.37231 0.61933 0.77255 0.0
H510 H 0.31964 0.62538 0.72313 0.0
C511 C 0.35424 0.64627 0.78659 0.0
H512 H 0.3734 0.59237 0.73815 0.0
C513 C 0.32345 0.6651 0.77806 0.0
C514 C 0.31016 0.65757 0.75523 0.0
H515 H 0.363 0.65169 0.80457 0.0
H516 H 0.30951 0.68481 0.78961 0.0
C517 C 0.32914 0.6318 0.74081 0.0
C518 C 0.40496 0.8472 0.00499 0.0
C519 C 0.39262 0.8652 0.02572 0.0
H520 H 0.39818 0.80114 0.98085 0.0
C521 C 0.36026 0.85213 0.03639 0.0
H522 H 0.4291 0.85704 0.99584 0.0
C523 C 0.34191 0.8207 0.02729 0.0
C524 C 0.35591 0.80129 0.00763 0.0
H525 H 0.35003 0.86484 0.0525 0.0
H526 H 0.31803 0.8103 0.03651 0.0
C527 C 0.38708 0.81535 0.99623 0.0
C528 C 0.13295 0.61676 0.00807 0.0
C529 C 0.12068 0.62408 0.98498 0.0
H530 H 0.1733 0.62776 0.0345 0.0
C531 C 0.13871 0.65165 0.97147 0.0
H532 H 0.11928 0.59608 0.01904 0.0
C533 C 0.16957 0.66993 0.98034 0.0
C534 C 0.18308 0.66104 0.00292 0.0
H535 H 0.13013 0.65774 0.95355 0.0
H536 H 0.18373 0.68983 0.96906 0.0
C537 C 0.16378 0.63511 0.01697 0.0
C538 C 0.33727 0.63274 0.20399 0.0
C539 C 0.36396 0.61998 0.21995 0.0
H540 H 0.29602 0.67381 0.19646 0.0
C541 C 0.36672 0.63759 0.24216 0.0
H542 H 0.33465 0.62003 0.18664 0.0
C543 C 0.34459 0.66852 0.24779 0.0
C544 C 0.31935 0.68263 0.23127 0.0
H545 H 0.38668 0.62808 0.25496 0.0
H546 H 0.34837 0.68228 0.26472 0.0
C547 C 0.31522 0.66373 0.20958 0.0
C548 C 0.36471 0.87937 0.50707 0.0
C549 C 0.37705 0.87311 0.48386 0.0
H550 H 0.32422 0.8671 0.53326 0.0
C551 C 0.35872 0.84669 0.46965 0.0
H552 H 0.37854 0.89932 0.51848 0.0
C553 C 0.3276 0.82834 0.47805 0.0
C554 C 0.31427 0.83585 0.50089 0.0
H555 H 0.3674 0.84151 0.45162 0.0
H556 H 0.31332 0.80919 0.46634 0.0
C557 C 0.33373 0.86076 0.51556 0.0
C558 C 0.12328 0.87359 0.75305 0.0
C559 C 0.1261 0.87849 0.72849 0.0
H560 H 0.13804 0.83976 0.78298 0.0
C561 C 0.15041 0.85578 0.71561 0.0
H562 H 0.10459 0.89078 0.76331 0.0
C563 C 0.1698 0.82698 0.72679 0.0
C564 C 0.16478 0.81988 0.75105 0.0
H565 H 0.15319 0.8593 0.69666 0.0
H566 H 0.18702 0.8089 0.71608 0.0
C567 C 0.14234 0.84435 0.76425 0.0
C568 C 0.63188 0.37595 0.75576 0.0
C569 C 0.6298 0.37949 0.78048 0.0
H570 H 0.6623 0.3549 0.72618 0.0
C571 C 0.65571 0.36076 0.79453 0.0
H572 H 0.61232 0.39018 0.74451 0.0
C573 C 0.68416 0.34046 0.7841 0.0
C574 C 0.68752 0.33866 0.75935 0.0
H575 H 0.65443 0.36253 0.81364 0.0
H576 H 0.7043 0.32742 0.79549 0.0
C577 C 0.66056 0.35583 0.74529 0.0
C578 C 0.65937 0.13918 0.05921 0.0
C579 C 0.63344 0.12451 0.04338 0.0
H580 H 0.69939 0.18177 0.0659 0.0
C581 C 0.6305 0.14057 0.02074 0.0
H582 H 0.6621 0.1277 0.07687 0.0
C583 C 0.65183 0.1717 0.01445 0.0
C584 C 0.67648 0.18752 0.03072 0.0
H585 H 0.61114 0.12956 0.00803 0.0
H586 H 0.64805 0.18414 0.99713 0.0
C587 C 0.68064 0.17034 0.05295 0.0
C588 C 0.861 0.11661 0.24901 0.0
C589 C 0.87535 0.12501 0.27145 0.0
H590 H 0.81899 0.12742 0.22364 0.0
C591 C 0.8593 0.15421 0.28475 0.0
H592 H 0.87309 0.09468 0.23817 0.0
C593 C 0.82843 0.17314 0.27639 0.0
C594 C 0.81286 0.16327 0.25453 0.0
H595 H 0.86944 0.1612 0.3022 0.0
H596 H 0.81587 0.19436 0.28755 0.0
C597 C 0.83013 0.13558 0.24062 0.0
C598 C 0.85577 0.35541 0.5351 0.0
C599 C 0.88957 0.36692 0.52572 0.0
H600 H 0.81342 0.31373 0.53497 0.0
C601 C 0.90477 0.34609 0.50693 0.0
H602 H 0.84336 0.37048 0.54971 0.0
C603 C 0.88798 0.31318 0.49888 0.0
C604 C 0.85522 0.30073 0.50908 0.0
H605 H 0.93022 0.35465 0.49881 0.0
H606 H 0.90112 0.29698 0.48501 0.0
C607 C 0.83863 0.32277 0.52673 0.0
C608 C 0.64722 0.14418 0.46574 0.0
C609 C 0.62444 0.12192 0.47997 0.0
H610 H 0.6936 0.18044 0.46415 0.0
C611 C 0.62899 0.1226 0.50461 0.0
H612 H 0.64391 0.14442 0.4467 0.0
C613 C 0.65773 0.14303 0.5147 0.0
C614 C 0.68209 0.16333 0.50027 0.0
H615 H 0.61171 0.10559 0.51592 0.0
H616 H 0.66188 0.14142 0.53363 0.0
C617 C 0.67559 0.16488 0.47579 0.0
C618 C 0.89173 0.13921 0.75329 0.0
C619 C 0.88213 0.12507 0.73092 0.0
H620 H 0.88272 0.18153 0.77964 0.0
C621 C 0.85274 0.14168 0.7188 0.0
H622 H 0.91385 0.12659 0.76324 0.0
C623 C 0.83476 0.17313 0.72823 0.0
C624 C 0.84578 0.18858 0.74999 0.0
H625 H 0.84481 0.13159 0.70146 0.0
H626 H 0.81326 0.18624 0.71797 0.0
C627 C 0.87373 0.17058 0.76274 0.0
C628 C 0.84613 0.35852 0.96445 0.0
C629 C 0.86928 0.3803 0.97873 0.0
H630 H 0.80015 0.32168 0.96291 0.0
C631 C 0.86538 0.37865 0.00341 0.0
H632 H 0.84893 0.359 0.94537 0.0
C633 C 0.83716 0.35749 0.01355 0.0
C634 C 0.81273 0.33727 0.99916 0.0
H635 H 0.88295 0.39524 0.01478 0.0
H636 H 0.83365 0.35819 0.03256 0.0
C637 C 0.81834 0.337 0.97455 0.0
C638 C 0.62987 0.36251 0.24369 0.0
C639 C 0.63289 0.38012 0.22152 0.0
H640 H 0.64786 0.31771 0.26623 0.0
C641 C 0.65958 0.3672 0.20556 0.0
H642 H 0.60987 0.37213 0.25646 0.0
C643 C 0.68139 0.33605 0.21114 0.0
C644 C 0.67704 0.3172 0.23281 0.0
H645 H 0.66238 0.37991 0.18824 0.0
H646 H 0.70063 0.32588 0.19805 0.0
C647 C 0.6518 0.33145 0.24932 0.0
C648 C 0.07975 0.8907 0.44179 0.0
C649 C 0.09151 0.88648 0.41832 0.0
H650 H 0.08621 0.87368 0.4778 0.0
C651 C 0.11875 0.85989 0.41304 0.0
H652 H 0.0586 0.91092 0.44622 0.0
C653 C 0.13504 0.8389 0.43117 0.0
C654 C 0.12373 0.84367 0.45477 0.0
H655 H 0.12822 0.85627 0.39502 0.0
H656 H 0.15673 0.81931 0.42678 0.0
C657 C 0.09544 0.86925 0.45981 0.0
C658 C 0.13816 0.57559 0.68052 0.0
C659 C 0.11758 0.59973 0.666 0.0
H660 H 0.17405 0.57095 0.71028 0.0
C661 C 0.11955 0.63887 0.66964 0.0
H662 H 0.13691 0.54526 0.67816 0.0
C663 C 0.14097 0.65359 0.68784 0.0
C664 C 0.16047 0.62941 0.703 0.0
H665 H 0.10417 0.65808 0.65856 0.0
H666 H 0.14133 0.68389 0.69044 0.0
C667 C 0.15925 0.59028 0.69896 0.0
C668 C 0.38309 0.66754 0.90058 0.0
C669 C 0.38318 0.62791 0.90157 0.0
H670 H 0.36346 0.7191 0.91597 0.0
C671 C 0.36235 0.60962 0.91894 0.0
H672 H 0.39898 0.6822 0.88729 0.0
C673 C 0.34269 0.63058 0.93553 0.0
C674 C 0.34291 0.67024 0.9348 0.0
H675 H 0.36227 0.57909 0.92017 0.0
H676 H 0.3275 0.6157 0.94907 0.0
C677 C 0.36274 0.68856 0.9169 0.0
C678 C 0.35398 0.88073 0.16877 0.0
C679 C 0.38976 0.87266 0.16127 0.0
H680 H 0.31058 0.86738 0.19275 0.0
C681 C 0.40855 0.84247 0.17187 0.0
H682 H 0.33864 0.90354 0.16077 0.0
C683 C 0.39251 0.82177 0.19011 0.0
C684 C 0.35728 0.83072 0.19821 0.0
H685 H 0.4363 0.83578 0.16676 0.0
H686 H 0.40818 0.79935 0.19827 0.0
C687 C 0.33787 0.85993 0.18702 0.0
C688 C 0.14404 0.64265 0.85992 0.0
C689 C 0.10987 0.62879 0.85266 0.0
H690 H 0.19316 0.67134 0.84997 0.0
C691 C 0.09876 0.63486 0.82917 0.0
H692 H 0.15325 0.63888 0.87796 0.0
C693 C 0.12139 0.65375 0.81325 0.0
C694 C 0.15586 0.66687 0.82034 0.0
H695 H 0.07294 0.62405 0.82281 0.0
H696 H 0.11211 0.65727 0.79521 0.0
C697 C 0.16682 0.66146 0.84392 0.0
C698 C 0.35586 0.62159 0.09112 0.0
C699 C 0.37256 0.58606 0.08843 0.0
H700 H 0.32552 0.66613 0.07467 0.0
C701 C 0.36964 0.56742 0.06653 0.0
H702 H 0.35711 0.6365 0.10782 0.0
C703 C 0.35114 0.58413 0.04768 0.0
C704 C 0.33541 0.62008 0.05016 0.0
H705 H 0.38269 0.54037 0.06361 0.0
H706 H 0.35013 0.56926 0.03095 0.0
C707 C 0.33757 0.63847 0.07216 0.0
C708 C 0.40969 0.82518 0.34635 0.0
C709 C 0.40024 0.86303 0.35078 0.0
H710 H 0.39956 0.77545 0.32581 0.0
C711 C 0.37179 0.8795 0.33772 0.0
H712 H 0.43132 0.81166 0.35628 0.0
C713 C 0.35371 0.85887 0.32027 0.0
C714 C 0.36355 0.82123 0.31553 0.0
H715 H 0.3642 0.90874 0.34048 0.0
H716 H 0.33226 0.87266 0.31031 0.0
C717 C 0.39144 0.80444 0.32895 0.0
C718 C 0.1229 0.86361 0.58495 0.0
C719 C 0.12222 0.90268 0.58913 0.0
H720 H 0.14376 0.81841 0.56388 0.0
C721 C 0.14446 0.92636 0.57536 0.0
H722 H 0.1063 0.84469 0.59547 0.0
C723 C 0.16585 0.91136 0.5571 0.0
C724 C 0.16565 0.87237 0.55246 0.0
H725 H 0.14428 0.95663 0.57812 0.0
H726 H 0.18191 0.9304 0.54633 0.0
C727 C 0.1445 0.8486 0.56691 0.0
C728 C 0.57544 0.35087 0.9258 0.0
C729 C 0.59531 0.38018 0.91506 0.0
H730 H 0.57528 0.30653 0.95156 0.0
C731 C 0.63179 0.3859 0.92172 0.0
H732 H 0.54717 0.346 0.92115 0.0
C733 C 0.64785 0.3634 0.93909 0.0
C734 C 0.62775 0.33471 0.9503 0.0
H735 H 0.64792 0.40793 0.91355 0.0
H736 H 0.67591 0.36895 0.94397 0.0
C737 C 0.59148 0.32842 0.9433 0.0
C738 C 0.635 0.12644 0.1714 0.0
C739 C 0.61915 0.09073 0.17492 0.0
H740 H 0.66527 0.17215 0.18659 0.0
C741 C 0.62268 0.07345 0.1972 0.0
H742 H 0.6332 0.14037 0.1544 0.0
C743 C 0.64143 0.09138 0.21548 0.0
C744 C 0.65684 0.12724 0.21206 0.0
H745 H 0.61022 0.04634 0.20076 0.0
H746 H 0.6432 0.07736 0.23246 0.0
C747 C 0.65357 0.14456 0.1898 0.0
C748 C 0.86595 0.10946 0.42167 0.0
C749 C 0.88376 0.12842 0.40319 0.0
H750 H 0.83365 0.11434 0.45306 0.0
C751 C 0.88115 0.16792 0.40176 0.0
H752 H 0.86788 0.07904 0.42327 0.0
C753 C 0.86113 0.18815 0.41864 0.0
C754 C 0.84414 0.16923 0.4375 0.0
H755 H 0.8947 0.18309 0.38764 0.0
H756 H 0.85971 0.21862 0.41725 0.0
C757 C 0.84661 0.12969 0.43878 0.0
C758 C 0.85036 0.37883 0.65908 0.0
C759 C 0.86238 0.41641 0.66101 0.0
H760 H 0.82461 0.33198 0.6762 0.0
C761 C 0.85479 0.43646 0.68194 0.0
H762 H 0.85523 0.36275 0.64309 0.0
C763 C 0.83689 0.41899 0.70077 0.0
C764 C 0.82638 0.38096 0.69924 0.0
H765 H 0.86407 0.46523 0.68425 0.0
H766 H 0.83256 0.43498 0.71687 0.0
C767 C 0.83261 0.36127 0.67801 0.0
C768 C 0.57859 0.14939 0.33527 0.0
C769 C 0.59924 0.12146 0.3468 0.0
H770 H 0.57779 0.19301 0.30906 0.0
C771 C 0.6365 0.11791 0.34142 0.0
H772 H 0.54974 0.15258 0.33894 0.0
C773 C 0.65257 0.14103 0.32437 0.0
C774 C 0.63167 0.16808 0.3122 0.0
H775 H 0.65318 0.09695 0.35024 0.0
H776 H 0.68122 0.13703 0.32035 0.0
C777 C 0.59463 0.17241 0.31808 0.0
C778 C 0.85861 0.06406 0.5709 0.0
C779 C 0.86509 0.08401 0.59201 0.0
H780 H 0.83662 0.06516 0.53592 0.0
C781 C 0.8518 0.12114 0.59406 0.0
H782 H 0.86894 0.03566 0.56847 0.0
C783 C 0.83362 0.1383 0.57515 0.0
C784 C 0.82819 0.11863 0.55384 0.0
H785 H 0.85582 0.13714 0.61017 0.0
H786 H 0.82443 0.16722 0.57711 0.0
C787 C 0.84025 0.08109 0.5521 0.0
C788 C 0.89194 0.39173 0.82077 0.0
C789 C 0.8892 0.38609 0.84528 0.0
H790 H 0.87415 0.37498 0.78634 0.0
C791 C 0.86625 0.35747 0.85387 0.0
H792 H 0.90973 0.41337 0.81369 0.0
C793 C 0.84559 0.3356 0.83821 0.0
C794 C 0.84795 0.34162 0.81368 0.0
H795 H 0.86357 0.35268 0.87271 0.0
H796 H 0.82757 0.31421 0.84533 0.0
C797 C 0.87172 0.36958 0.80513 0.0
C798 C 0.63235 0.43013 0.06893 0.0
C799 C 0.62775 0.41108 0.09056 0.0
H800 H 0.65318 0.42835 0.03365 0.0
C801 C 0.64303 0.37485 0.09311 0.0
H802 H 0.62044 0.45775 0.06608 0.0
C803 C 0.66141 0.35768 0.07425 0.0
C804 C 0.66512 0.37648 0.05249 0.0
H805 H 0.6405 0.35957 0.10961 0.0
H806 H 0.67224 0.32946 0.07662 0.0
C807 C 0.65096 0.41314 0.05019 0.0
loop_
_geom_bond_atom_site_label_1
_geom_bond_atom_site_label_2
_geom_bond_distance
_geom_bond_site_symmetry_2
_ccdc_geom_bond_type
H0 C19 0.949 . S
H1 C20 0.950 . S
H2 C22 0.950 . S
H3 C23 0.950 . S
H4 C25 0.950 . S
H5 C28 0.950 . S
H6 C29 0.950 . S
H7 C31 0.951 . S
H8 C32 0.949 1_565 S
H9 C34 0.949 . S
H10 C35 0.950 . S
H11 C37 0.950 . S
H12 C38 0.950 . S
H13 C40 0.950 . S
H14 C43 0.950 . S
H15 C44 0.950 . S
H16 C46 0.951 . S
H17 C47 0.949 1_545 S
C18 C19 1.376 . S
C18 C23 1.386 . S
C18 C24 1.483 . S
C19 H0 0.949 . S
C19 C18 1.376 . S
C19 C20 1.397 . S
C20 H1 0.950 . S
C20 C19 1.397 . S
C20 C21 1.391 . S
C21 C20 1.391 . S
C21 C22 1.405 . S
C22 H2 0.950 . S
C22 C21 1.405 . S
C22 C23 1.367 . S
C23 H3 0.950 . S
C23 C18 1.386 . S
C23 C22 1.367 . S
C24 C18 1.483 . S
C24 C25 1.382 1_655 S
C24 C26 1.403 . S
C25 H4 0.950 . S
C25 C24 1.382 1_455 S
C25 C41 1.411 1_545 S
C26 C24 1.403 . S
C26 C27 1.489 . S
C26 C40 1.411 1_545 S
C27 C26 1.489 . S
C27 C28 1.383 . S
C27 C32 1.382 . S
C28 H5 0.950 . S
C28 C27 1.383 . S
C28 C29 1.395 . S
C29 H6 0.950 . S
C29 C28 1.395 . S
C29 C30 1.288 . S
C30 C29 1.288 . S
C30 C31 1.392 . S
C31 H7 0.951 . S
C31 C30 1.392 . S
C31 C32 1.392 . S
C32 H8 0.949 1_545 S
C32 C27 1.382 . S
C32 C31 1.392 . S
C33 C34 1.376 . S
C33 C38 1.386 . S
C33 C39 1.483 . S
C34 H9 0.949 . S
C34 C33 1.376 . S
C34 C35 1.397 . S
C35 H10 0.950 . S
C35 C34 1.397 . S
C35 C36 1.391 . S
C36 C35 1.391 . S
C36 C37 1.405 . S
C37 H11 0.950 . S
C37 C36 1.405 . S
C37 C38 1.367 . S
C38 H12 0.950 . S
C38 C33 1.386 . S
C38 C37 1.367 . S
C39 C33 1.483 . S
C39 C40 1.382 1_455 S
C39 C41 1.403 . S
C40 H13 0.950 . S
C40 C26 1.411 1_565 S
C40 C39 1.382 1_655 S
C41 C25 1.411 1_565 S
C41 C39 1.403 . S
C41 C42 1.489 . S
C42 C41 1.489 . S
C42 C43 1.383 . S
C42 C47 1.382 . S
C43 H14 0.950 . S
C43 C42 1.383 . S
C43 C44 1.395 . S
C44 H15 0.950 . S
C44 C43 1.395 . S
C44 C45 1.288 . S
C45 C44 1.288 . S
C45 C46 1.392 . S
C46 H16 0.951 . S
C46 C45 1.392 . S
C46 C47 1.392 . S
C47 H17 0.949 1_565 S
C47 C42 1.382 . S
C47 C46 1.392 . S
H48 C67 0.949 1_455 S
H49 C68 0.950 . S
H50 C70 0.950 . S
H51 C71 0.950 . S
H52 C73 0.950 . S
H53 C76 0.950 . S
H54 C77 0.950 . S
H55 C79 0.951 . S
H56 C80 0.949 . S
H57 C82 0.949 1_655 S
H58 C83 0.950 . S
H59 C85 0.950 . S
H60 C86 0.950 . S
H61 C88 0.950 . S
H62 C91 0.950 . S
H63 C92 0.950 . S
H64 C94 0.951 . S
H65 C95 0.949 . S
C66 C67 1.376 . S
C66 C71 1.386 . S
C66 C72 1.483 . S
C67 H48 0.949 1_655 S
C67 C66 1.376 . S
C67 C68 1.397 . S
C68 H49 0.950 . S
C68 C67 1.397 . S
C68 C69 1.391 . S
C69 C68 1.391 . S
C69 C70 1.405 . S
C70 H50 0.950 . S
C70 C69 1.405 . S
C70 C71 1.367 . S
C71 H51 0.950 . S
C71 C66 1.386 . S
C71 C70 1.367 . S
C72 C66 1.483 . S
C72 C73 1.382 1_655 S
C72 C74 1.403 . S
C73 H52 0.950 . S
C73 C72 1.382 1_455 S
C73 C89 1.411 . S
C74 C72 1.403 . S
C74 C75 1.489 . S
C74 C88 1.411 . S
C75 C74 1.489 . S
C75 C76 1.383 . S
C75 C80 1.382 . S
C76 H53 0.950 . S
C76 C75 1.383 . S
C76 C77 1.395 . S
C77 H54 0.950 . S
C77 C76 1.395 . S
C77 C78 1.288 . S
C78 C77 1.288 . S
C78 C79 1.392 . S
C79 H55 0.951 . S
C79 C78 1.392 . S
C79 C80 1.392 . S
C80 H56 0.949 . S
C80 C75 1.382 . S
C80 C79 1.392 . S
C81 C82 1.376 . S
C81 C86 1.386 . S
C81 C87 1.483 . S
C82 H57 0.949 1_455 S
C82 C81 1.376 . S
C82 C83 1.397 . S
C83 H58 0.950 . S
C83 C82 1.397 . S
C83 C84 1.391 . S
C84 C83 1.391 . S
C84 C85 1.405 . S
C85 H59 0.950 . S
C85 C84 1.405 . S
C85 C86 1.367 . S
C86 H60 0.950 . S
C86 C81 1.386 . S
C86 C85 1.367 . S
C87 C81 1.483 . S
C87 C88 1.382 1_455 S
C87 C89 1.403 . S
C88 H61 0.950 . S
C88 C74 1.411 . S
C88 C87 1.382 1_655 S
C89 C73 1.411 . S
C89 C87 1.403 . S
C89 C90 1.489 . S
C90 C89 1.489 . S
C90 C91 1.383 . S
C90 C95 1.382 . S
C91 H62 0.950 . S
C91 C90 1.383 . S
C91 C92 1.395 . S
C92 H63 0.950 . S
C92 C91 1.395 . S
C92 C93 1.288 . S
C93 C92 1.288 . S
C93 C94 1.392 . S
C94 H64 0.951 . S
C94 C93 1.392 . S
C94 C95 1.392 . S
C95 H65 0.949 . S
C95 C90 1.382 . S
C95 C94 1.392 . S
H96 C115 0.949 . S
H97 C116 0.950 . S
H98 C118 0.950 . S
H99 C119 0.950 . S
H100 C121 0.950 . S
H101 C124 0.950 . S
H102 C125 0.950 . S
H103 C127 0.951 . S
H104 C128 0.949 . S
H105 C130 0.949 . S
H106 C131 0.950 . S
H107 C133 0.950 . S
H108 C134 0.950 . S
H109 C136 0.950 . S
H110 C139 0.950 . S
H111 C140 0.950 . S
H112 C142 0.951 . S
H113 C143 0.949 . S
C114 C115 1.376 . S
C114 C119 1.386 . S
C114 C120 1.483 . S
C115 H96 0.949 . S
C115 C114 1.376 . S
C115 C116 1.397 . S
C116 H97 0.950 . S
C116 C115 1.397 . S
C116 C117 1.391 . S
C117 C116 1.391 . S
C117 C118 1.405 . S
C118 H98 0.950 . S
C118 C117 1.405 . S
C118 C119 1.367 . S
C119 H99 0.950 . S
C119 C114 1.386 . S
C119 C118 1.367 . S
C120 C114 1.483 . S
C120 C121 1.382 . S
C120 C122 1.403 . S
C121 H100 0.950 . S
C121 C120 1.382 . S
C121 C137 1.411 . S
C122 C120 1.403 . S
C122 C123 1.489 . S
C122 C136 1.411 . S
C123 C122 1.489 . S
C123 C124 1.383 . S
C123 C128 1.382 . S
C124 H101 0.950 . S
C124 C123 1.383 . S
C124 C125 1.395 . S
C125 H102 0.950 . S
C125 C124 1.395 . S
C125 C126 1.288 . S
C126 C125 1.288 . S
C126 C127 1.392 . S
C127 H103 0.951 . S
C127 C126 1.392 . S
C127 C128 1.392 . S
C128 H104 0.949 . S
C128 C123 1.382 . S
C128 C127 1.392 . S
C129 C130 1.376 . S
C129 C134 1.386 . S
C129 C135 1.483 . S
C130 H105 0.949 . S
C130 C129 1.376 . S
C130 C131 1.397 . S
C131 H106 0.950 . S
C131 C130 1.397 . S
C131 C132 1.391 . S
C132 C131 1.391 . S
C132 C133 1.405 . S
C133 H107 0.950 . S
C133 C132 1.405 . S
C133 C134 1.367 . S
C134 H108 0.950 . S
C134 C129 1.386 . S
C134 C133 1.367 . S
C135 C129 1.483 . S
C135 C136 1.382 . S
C135 C137 1.403 . S
C136 H109 0.950 . S
C136 C122 1.411 . S
C136 C135 1.382 . S
C137 C121 1.411 . S
C137 C135 1.403 . S
C137 C138 1.489 . S
C138 C137 1.489 . S
C138 C139 1.383 . S
C138 C143 1.382 . S
C139 H110 0.950 . S
C139 C138 1.383 . S
C139 C140 1.395 . S
C140 H111 0.950 . S
C140 C139 1.395 . S
C140 C141 1.288 . S
C141 C140 1.288 . S
C141 C142 1.392 . S
C142 H112 0.951 . S
C142 C141 1.392 . S
C142 C143 1.392 . S
C143 H113 0.949 . S
C143 C138 1.382 . S
C143 C142 1.392 . S
H144 C163 0.949 . S
H145 C164 0.950 . S
H146 C166 0.950 . S
H147 C167 0.950 . S
H148 C169 0.950 . S
H149 C172 0.950 . S
H150 C173 0.950 . S
H151 C175 0.951 . S
H152 C176 0.949 . S
H153 C178 0.949 . S
H154 C179 0.950 . S
H155 C181 0.950 . S
H156 C182 0.950 . S
H157 C184 0.950 . S
H158 C187 0.950 . S
H159 C188 0.950 . S
H160 C190 0.951 . S
H161 C191 0.949 . S
C162 C163 1.376 . S
C162 C167 1.386 . S
C162 C168 1.483 . S
C163 H144 0.949 . S
C163 C162 1.376 . S
C163 C164 1.397 . S
C164 H145 0.950 . S
C164 C163 1.397 . S
C164 C165 1.391 . S
C165 C164 1.391 . S
C165 C166 1.405 . S
C166 H146 0.950 . S
C166 C165 1.405 . S
C166 C167 1.367 . S
C167 H147 0.950 . S
C167 C162 1.386 . S
C167 C166 1.367 . S
C168 C162 1.483 . S
C168 C169 1.382 . S
C168 C170 1.403 . S
C169 H148 0.950 . S
C169 C168 1.382 . S
C169 C185 1.411 1_565 S
C170 C168 1.403 . S
C170 C171 1.489 . S
C170 C184 1.411 1_565 S
C171 C170 1.489 . S
C171 C172 1.383 . S
C171 C176 1.382 . S
C172 H149 0.950 . S
C172 C171 1.383 . S
C172 C173 1.395 . S
C173 H150 0.950 . S
C173 C172 1.395 . S
C173 C174 1.288 . S
C174 C173 1.288 . S
C174 C175 1.392 . S
C175 H151 0.951 . S
C175 C174 1.392 . S
C175 C176 1.392 . S
C176 H152 0.949 . S
C176 C171 1.382 . S
C176 C175 1.392 . S
C177 C178 1.376 . S
C177 C182 1.386 . S
C177 C183 1.483 . S
C178 H153 0.949 . S
C178 C177 1.376 . S
C178 C179 1.397 . S
C179 H154 0.950 . S
C179 C178 1.397 . S
C179 C180 1.391 . S
C180 C179 1.391 . S
C180 C181 1.405 . S
C181 H155 0.950 . S
C181 C180 1.405 . S
C181 C182 1.367 . S
C182 H156 0.950 . S
C182 C177 1.386 . S
C182 C181 1.367 . S
C183 C177 1.483 . S
C183 C184 1.382 . S
C183 C185 1.403 . S
C184 H157 0.950 . S
C184 C170 1.411 1_545 S
C184 C183 1.382 . S
C185 C169 1.411 1_545 S
C185 C183 1.403 . S
C185 C186 1.489 . S
C186 C185 1.489 . S
C186 C187 1.383 . S
C186 C191 1.382 . S
C187 H158 0.950 . S
C187 C186 1.383 . S
C187 C188 1.395 . S
C188 H159 0.950 . S
C188 C187 1.395 . S
C188 C189 1.288 . S
C189 C188 1.288 . S
C189 C190 1.392 . S
C190 H160 0.951 . S
C190 C189 1.392 . S
C190 C191 1.392 . S
C191 H161 0.949 . S
C191 C186 1.382 . S
C191 C190 1.392 . S
H192 C211 0.949 . S
H193 C212 0.950 . S
H194 C214 0.950 . S
H195 C215 0.950 . S
H196 C217 0.950 . S
H197 C220 0.950 . S
H198 C221 0.950 . S
H199 C223 0.951 . S
H200 C224 0.949 . S
H201 C226 0.949 . S
H202 C227 0.950 . S
H203 C229 0.950 . S
H204 C230 0.950 . S
H205 C232 0.950 . S
H206 C235 0.950 . S
H207 C236 0.950 . S
H208 C238 0.951 . S
H209 C239 0.949 . S
C210 C211 1.376 . S
C210 C215 1.386 . S
C210 C216 1.483 . S
C211 H192 0.949 . S
C211 C210 1.376 . S
C211 C212 1.397 . S
C212 H193 0.950 . S
C212 C211 1.397 . S
C212 C213 1.391 . S
C213 C212 1.391 . S
C213 C214 1.405 . S
C214 H194 0.950 . S
C214 C213 1.405 . S
C214 C215 1.367 . S
C215 H195 0.950 . S
C215 C210 1.386 . S
C215 C214 1.367 . S
C216 C210 1.483 . S
C216 C217 1.382 1_455 S
C216 C218 1.403 . S
C217 H196 0.950 . S
C217 C216 1.382 1_655 S
C217 C233 1.411 . S
C218 C216 1.403 . S
C218 C219 1.489 . S
C218 C232 1.411 . S
C219 C218 1.489 . S
C219 C220 1.383 . S
C219 C224 1.382 . S
C220 H197 0.950 . S
C220 C219 1.383 . S
C220 C221 1.395 . S
C221 H198 0.950 . S
C221 C220 1.395 . S
C221 C222 1.288 . S
C222 C221 1.288 . S
C222 C223 1.392 . S
C223 H199 0.951 . S
C223 C222 1.392 . S
C223 C224 1.392 . S
C224 H200 0.949 . S
C224 C219 1.382 . S
C224 C223 1.392 . S
C225 C226 1.376 . S
C225 C230 1.386 . S
C225 C231 1.483 . S
C226 H201 0.949 . S
C226 C225 1.376 . S
C226 C227 1.397 . S
C227 H202 0.950 . S
C227 C226 1.397 . S
C227 C228 1.391 . S
C228 C227 1.391 . S
C228 C229 1.405 . S
C229 H203 0.950 . S
C229 C228 1.405 . S
C229 C230 1.367 . S
C230 H204 0.950 . S
C230 C225 1.386 . S
C230 C229 1.367 . S
C231 C225 1.483 . S
C231 C232 1.382 1_655 S
C231 C233 1.403 . S
C232 H205 0.950 . S
C232 C218 1.411 . S
C232 C231 1.382 1_455 S
C233 C217 1.411 . S
C233 C231 1.403 . S
C233 C234 1.489 . S
C234 C233 1.489 . S
C234 C235 1.383 . S
C234 C239 1.382 . S
C235 H206 0.950 . S
C235 C234 1.383 . S
C235 C236 1.395 . S
C236 H207 0.950 . S
C236 C235 1.395 . S
C236 C237 1.288 . S
C237 C236 1.288 . S
C237 C238 1.392 . S
C238 H208 0.951 . S
C238 C237 1.392 . S
C238 C239 1.392 . S
C239 H209 0.949 . S
C239 C234 1.382 . S
C239 C238 1.392 . S
H240 C259 0.949 . S
H241 C260 0.950 . S
H242 C262 0.950 . S
H243 C263 0.950 . S
H244 C265 0.950 . S
H245 C268 0.950 . S
H246 C269 0.950 . S
H247 C271 0.951 . S
H248 C272 0.949 . S
H249 C274 0.949 . S
H250 C275 0.950 . S
H251 C277 0.950 . S
H252 C278 0.950 . S
H253 C280 0.950 . S
H254 C283 0.950 . S
H255 C284 0.950 . S
H256 C286 0.951 . S
H257 C287 0.949 . S
C258 C259 1.376 . S
C258 C263 1.386 . S
C258 C264 1.483 . S
C259 H240 0.949 . S
C259 C258 1.376 . S
C259 C260 1.397 . S
C260 H241 0.950 . S
C260 C259 1.397 . S
C260 C261 1.391 . S
C261 C260 1.391 . S
C261 C262 1.405 . S
C262 H242 0.950 . S
C262 C261 1.405 . S
C262 C263 1.367 . S
C263 H243 0.950 . S
C263 C258 1.386 . S
C263 C262 1.367 . S
C264 C258 1.483 . S
C264 C265 1.382 . S
C264 C266 1.403 . S
C265 H244 0.950 . S
C265 C264 1.382 . S
C265 C281 1.411 . S
C266 C264 1.403 . S
C266 C267 1.489 . S
C266 C280 1.411 . S
C267 C266 1.489 . S
C267 C268 1.383 . S
C267 C272 1.382 . S
C268 H245 0.950 . S
C268 C267 1.383 . S
C268 C269 1.395 . S
C269 H246 0.950 . S
C269 C268 1.395 . S
C269 C270 1.288 . S
C270 C269 1.288 . S
C270 C271 1.392 . S
C271 H247 0.951 . S
C271 C270 1.392 . S
C271 C272 1.392 . S
C272 H248 0.949 . S
C272 C267 1.382 . S
C272 C271 1.392 . S
C273 C274 1.376 . S
C273 C278 1.386 . S
C273 C279 1.483 . S
C274 H249 0.949 . S
C274 C273 1.376 . S
C274 C275 1.397 . S
C275 H250 0.950 . S
C275 C274 1.397 . S
C275 C276 1.391 . S
C276 C275 1.391 . S
C276 C277 1.405 . S
C277 H251 0.950 . S
C277 C276 1.405 . S
C277 C278 1.367 . S
C278 H252 0.950 . S
C278 C273 1.386 . S
C278 C277 1.367 . S
C279 C273 1.483 . S
C279 C280 1.382 . S
C279 C281 1.403 . S
C280 H253 0.950 . S
C280 C266 1.411 . S
C280 C279 1.382 . S
C281 C265 1.411 . S
C281 C279 1.403 . S
C281 C282 1.489 . S
C282 C281 1.489 . S
C282 C283 1.383 . S
C282 C287 1.382 . S
C283 H254 0.950 . S
C283 C282 1.383 . S
C283 C284 1.395 . S
C284 H255 0.950 . S
C284 C283 1.395 . S
C284 C285 1.288 . S
C285 C284 1.288 . S
C285 C286 1.392 . S
C286 H256 0.951 . S
C286 C285 1.392 . S
C286 C287 1.392 . S
C287 H257 0.949 . S
C287 C282 1.382 . S
C287 C286 1.392 . S
H288 C307 0.949 . S
H289 C308 0.950 . S
H290 C310 0.950 . S
H291 C311 0.950 . S
H292 C313 0.950 . S
H293 C316 0.950 . S
H294 C317 0.950 . S
H295 C319 0.951 . S
H296 C320 0.949 1_545 S
H297 C322 0.949 . S
H298 C323 0.950 . S
H299 C325 0.950 . S
H300 C326 0.950 . S
H301 C328 0.950 . S
H302 C331 0.950 . S
H303 C332 0.950 . S
H304 C334 0.951 . S
H305 C335 0.949 1_565 S
C306 C307 1.376 . S
C306 C311 1.386 . S
C306 C312 1.483 . S
C307 H288 0.949 . S
C307 C306 1.376 . S
C307 C308 1.397 . S
C308 H289 0.950 . S
C308 C307 1.397 . S
C308 C309 1.391 . S
C309 C308 1.391 . S
C309 C310 1.405 . S
C310 H290 0.950 . S
C310 C309 1.405 . S
C310 C311 1.367 . S
C311 H291 0.950 . S
C311 C306 1.386 . S
C311 C310 1.367 . S
C312 C306 1.483 . S
C312 C313 1.382 . S
C312 C314 1.403 . S
C313 H292 0.950 . S
C313 C312 1.382 . S
C313 C329 1.411 1_565 S
C314 C312 1.403 . S
C314 C315 1.489 . S
C314 C328 1.411 1_565 S
C315 C314 1.489 . S
C315 C316 1.383 . S
C315 C320 1.382 . S
C316 H293 0.950 . S
C316 C315 1.383 . S
C316 C317 1.395 . S
C317 H294 0.950 . S
C317 C316 1.395 . S
C317 C318 1.288 . S
C318 C317 1.288 . S
C318 C319 1.392 . S
C319 H295 0.951 . S
C319 C318 1.392 . S
C319 C320 1.392 . S
C320 H296 0.949 1_565 S
C320 C315 1.382 . S
C320 C319 1.392 . S
C321 C322 1.376 . S
C321 C326 1.386 . S
C321 C327 1.483 . S
C322 H297 0.949 . S
C322 C321 1.376 . S
C322 C323 1.397 . S
C323 H298 0.950 . S
C323 C322 1.397 . S
C323 C324 1.391 . S
C324 C323 1.391 . S
C324 C325 1.405 . S
C325 H299 0.950 . S
C325 C324 1.405 . S
C325 C326 1.367 . S
C326 H300 0.950 . S
C326 C321 1.386 . S
C326 C325 1.367 . S
C327 C321 1.483 . S
C327 C328 1.382 . S
C327 C329 1.403 . S
C328 H301 0.950 . S
C328 C314 1.411 1_545 S
C328 C327 1.382 . S
C329 C313 1.411 1_545 S
C329 C327 1.403 . S
C329 C330 1.489 . S
C330 C329 1.489 . S
C330 C331 1.383 . S
C330 C335 1.382 . S
C331 H302 0.950 . S
C331 C330 1.383 . S
C331 C332 1.395 . S
C332 H303 0.950 . S
C332 C331 1.395 . S
C332 C333 1.288 . S
C333 C332 1.288 . S
C333 C334 1.392 . S
C334 H304 0.951 . S
C334 C333 1.392 . S
C334 C335 1.392 . S
C335 H305 0.949 1_545 S
C335 C330 1.382 . S
C335 C334 1.392 . S
H336 C355 0.949 1_455 S
H337 C356 0.950 . S
H338 C358 0.950 . S
H339 C359 0.950 . S
H340 C361 0.950 . S
H341 C364 0.950 . S
H342 C365 0.950 . S
H343 C367 0.951 . S
H344 C368 0.949 . S
H345 C370 0.949 1_655 S
H346 C371 0.950 . S
H347 C373 0.950 . S
H348 C374 0.950 . S
H349 C376 0.950 . S
H350 C379 0.950 . S
H351 C380 0.950 . S
H352 C382 0.951 . S
H353 C383 0.949 . S
C354 C355 1.376 . S
C354 C359 1.386 . S
C354 C360 1.483 . S
C355 H336 0.949 1_655 S
C355 C354 1.376 . S
C355 C356 1.397 . S
C356 H337 0.950 . S
C356 C355 1.397 . S
C356 C357 1.391 . S
C357 C356 1.391 . S
C357 C358 1.405 . S
C358 H338 0.950 . S
C358 C357 1.405 . S
C358 C359 1.367 . S
C359 H339 0.950 . S
C359 C354 1.386 . S
C359 C358 1.367 . S
C360 C354 1.483 . S
C360 C361 1.382 1_655 S
C360 C362 1.403 . S
C361 H340 0.950 . S
C361 C360 1.382 1_455 S
C361 C377 1.411 1_545 S
C362 C360 1.403 . S
C362 C363 1.489 . S
C362 C376 1.411 1_545 S
C363 C362 1.489 . S
C363 C364 1.383 . S
C363 C368 1.382 . S
C364 H341 0.950 . S
C364 C363 1.383 . S
C364 C365 1.395 . S
C365 H342 0.950 . S
C365 C364 1.395 . S
C365 C366 1.288 . S
C366 C365 1.288 . S
C366 C367 1.392 . S
C367 H343 0.951 . S
C367 C366 1.392 . S
C367 C368 1.392 . S
C368 H344 0.949 . S
C368 C363 1.382 . S
C368 C367 1.392 . S
C369 C370 1.376 . S
C369 C374 1.386 . S
C369 C375 1.483 . S
C370 H345 0.949 1_455 S
C370 C369 1.376 . S
C370 C371 1.397 . S
C371 H346 0.950 . S
C371 C370 1.397 . S
C371 C372 1.391 . S
C372 C371 1.391 . S
C372 C373 1.405 . S
C373 H347 0.950 . S
C373 C372 1.405 . S
C373 C374 1.367 . S
C374 H348 0.950 . S
C374 C369 1.386 . S
C374 C373 1.367 . S
C375 C369 1.483 . S
C375 C376 1.382 1_455 S
C375 C377 1.403 . S
C376 H349 0.950 . S
C376 C362 1.411 1_565 S
C376 C375 1.382 1_655 S
C377 C361 1.411 1_565 S
C377 C375 1.403 . S
C377 C378 1.489 . S
C378 C377 1.489 . S
C378 C379 1.383 . S
C378 C383 1.382 . S
C379 H350 0.950 . S
C379 C378 1.383 . S
C379 C380 1.395 . S
C380 H351 0.950 . S
C380 C379 1.395 . S
C380 C381 1.288 . S
C381 C380 1.288 . S
C381 C382 1.392 . S
C382 H352 0.951 . S
C382 C381 1.392 . S
C382 C383 1.392 . S
C383 H353 0.949 . S
C383 C378 1.382 . S
C383 C382 1.392 . S
C384 O385 1.160 1_556 S
C384 O391 1.185 . S
O385 C384 1.160 1_554 S
O386 Zn387 1.899 . S
O386 C394 1.284 . S
Zn387 O386 1.899 . S
Zn387 O388 2.032 1_554 S
Zn387 O391 2.086 1_554 S
Zn387 O396 1.977 . S
O388 Zn387 2.032 1_556 S
O388 C392 1.278 . S
C389 O390 1.203 . S
C389 O396 1.267 . S
O390 C389 1.203 . S
O391 C384 1.185 . S
O391 Zn387 2.086 1_556 S
C392 O388 1.278 . S
C392 O393 1.211 . S
O393 C392 1.211 . S
C394 O386 1.284 . S
C394 O395 1.273 . S
O395 C394 1.273 . S
O396 Zn387 1.977 . S
O396 C389 1.267 . S
C397 O398 1.160 . S
C397 O404 1.185 . S
O398 C397 1.160 . S
O399 Zn400 1.899 . S
O399 C407 1.284 . S
Zn400 O399 1.899 . S
Zn400 O401 2.032 . S
Zn400 O404 2.086 . S
Zn400 O409 1.977 . S
O401 Zn400 2.032 . S
O401 C405 1.278 . S
C402 O403 1.203 . S
C402 O409 1.267 . S
O403 C402 1.203 . S
O404 C397 1.185 . S
O404 Zn400 2.086 . S
C405 O401 1.278 . S
C405 O406 1.211 . S
O406 C405 1.211 . S
C407 O399 1.284 . S
C407 O408 1.273 . S
O408 C407 1.273 . S
O409 Zn400 1.977 . S
O409 C402 1.267 . S
C410 O411 1.160 . S
C410 O417 1.185 . S
O411 C410 1.160 . S
O412 Zn413 1.899 . S
O412 C420 1.284 . S
Zn413 O412 1.899 . S
Zn413 O414 2.032 . S
Zn413 O417 2.086 . S
Zn413 O422 1.977 . S
O414 Zn413 2.032 . S
O414 C418 1.278 . S
C415 O416 1.203 . S
C415 O422 1.267 . S
O416 C415 1.203 . S
O417 C410 1.185 . S
O417 Zn413 2.086 . S
C418 O414 1.278 . S
C418 O419 1.211 . S
O419 C418 1.211 . S
C420 O412 1.284 . S
C420 O421 1.273 . S
O421 C420 1.273 . S
O422 Zn413 1.977 . S
O422 C415 1.267 . S
C423 O424 1.160 . S
C423 O430 1.185 . S
O424 C423 1.160 . S
O425 Zn426 1.899 . S
O425 C433 1.284 . S
Zn426 O425 1.899 . S
Zn426 O427 2.032 . S
Zn426 O430 2.086 . S
Zn426 O435 1.977 . S
O427 Zn426 2.032 . S
O427 C431 1.278 . S
C428 O429 1.203 . S
C428 O435 1.267 . S
O429 C428 1.203 . S
O430 C423 1.185 . S
O430 Zn426 2.086 . S
C431 O427 1.278 . S
C431 O432 1.211 . S
O432 C431 1.211 . S
C433 O425 1.284 . S
C433 O434 1.273 . S
O434 C433 1.273 . S
O435 Zn426 1.977 . S
O435 C428 1.267 . S
C436 O437 1.160 . S
C436 O443 1.185 . S
O437 C436 1.160 . S
O438 Zn439 1.899 . S
O438 C446 1.284 . S
Zn439 O438 1.899 . S
Zn439 O440 2.032 . S
Zn439 O443 2.086 . S
Zn439 O448 1.977 . S
O440 Zn439 2.032 . S
O440 C444 1.278 . S
C441 O442 1.203 . S
C441 O448 1.267 . S
O442 C441 1.203 . S
O443 C436 1.185 . S
O443 Zn439 2.086 . S
C444 O440 1.278 . S
C444 O445 1.211 . S
O445 C444 1.211 . S
C446 O438 1.284 . S
C446 O447 1.273 . S
O447 C446 1.273 . S
O448 Zn439 1.977 . S
O448 C441 1.267 . S
C449 O450 1.160 . S
C449 O456 1.185 . S
O450 C449 1.160 . S
O451 Zn452 1.899 . S
O451 C459 1.284 . S
Zn452 O451 1.899 . S
Zn452 O453 2.032 . S
Zn452 O456 2.086 . S
Zn452 O461 1.977 . S
O453 Zn452 2.032 . S
O453 C457 1.278 . S
C454 O455 1.203 . S
C454 O461 1.267 . S
O455 C454 1.203 . S
O456 C449 1.185 . S
O456 Zn452 2.086 . S
C457 O453 1.278 . S
C457 O458 1.211 . S
O458 C457 1.211 . S
C459 O451 1.284 . S
C459 O460 1.273 . S
O460 C459 1.273 . S
O461 Zn452 1.977 . S
O461 C454 1.267 . S
C462 O463 1.160 1_556 S
C462 O469 1.185 . S
O463 C462 1.160 1_554 S
O464 Zn465 1.899 . S
O464 C472 1.284 . S
Zn465 O464 1.899 . S
Zn465 O466 2.032 1_554 S
Zn465 O469 2.086 1_554 S
Zn465 O474 1.977 . S
O466 Zn465 2.032 1_556 S
O466 C470 1.278 . S
C467 O468 1.203 . S
C467 O474 1.267 . S
O468 C467 1.203 . S
O469 C462 1.185 . S
O469 Zn465 2.086 1_556 S
C470 O466 1.278 . S
C470 O471 1.211 . S
O471 C470 1.211 . S
C472 O464 1.284 . S
C472 O473 1.273 . S
O473 C472 1.273 . S
O474 Zn465 1.977 . S
O474 C467 1.267 . S
C475 O476 1.160 . S
C475 O482 1.185 . S
O476 C475 1.160 . S
O477 Zn478 1.899 . S
O477 C485 1.284 . S
Zn478 O477 1.899 . S
Zn478 O479 2.032 . S
Zn478 O482 2.086 . S
Zn478 O487 1.977 . S
O479 Zn478 2.032 . S
O479 C483 1.278 . S
C480 O481 1.203 . S
C480 O487 1.267 . S
O481 C480 1.203 . S
O482 C475 1.185 . S
O482 Zn478 2.086 . S
C483 O479 1.278 . S
C483 O484 1.211 . S
O484 C483 1.211 . S
C485 O477 1.284 . S
C485 O486 1.273 . S
O486 C485 1.273 . S
O487 Zn478 1.977 . S
O487 C480 1.267 . S
C488 C489 1.387 . S
C488 H492 0.950 . S
C488 C497 1.390 . S
C489 C488 1.387 . S
C489 C491 1.387 . S
H490 C497 0.950 . S
C491 C489 1.387 . S
C491 C493 1.390 . S
C491 H495 0.950 . S
H492 C488 0.950 . S
C493 C491 1.390 . S
C493 C494 1.387 . S
C493 H496 0.950 . S
C494 C493 1.387 . S
C494 C497 1.387 . S
H495 C491 0.950 . S
H496 C493 0.950 . S
C497 C488 1.390 . S
C497 H490 0.950 . S
C497 C494 1.387 . S
C498 C499 1.387 . S
C498 H502 0.950 . S
C498 C507 1.390 . S
C499 C498 1.387 . S
C499 C501 1.387 . S
H500 C507 0.950 . S
C501 C499 1.387 . S
C501 C503 1.390 . S
C501 H505 0.950 . S
H502 C498 0.950 . S
C503 C501 1.390 . S
C503 C504 1.387 . S
C503 H506 0.950 . S
C504 C503 1.387 . S
C504 C507 1.387 . S
H505 C501 0.950 . S
H506 C503 0.950 . S
C507 C498 1.390 . S
C507 H500 0.950 . S
C507 C504 1.387 . S
C508 C509 1.387 . S
C508 H512 0.950 . S
C508 C517 1.390 . S
C509 C508 1.387 . S
C509 C511 1.387 . S
H510 C517 0.950 . S
C511 C509 1.387 . S
C511 C513 1.390 . S
C511 H515 0.950 . S
H512 C508 0.950 . S
C513 C511 1.390 . S
C513 C514 1.387 . S
C513 H516 0.950 . S
C514 C513 1.387 . S
C514 C517 1.387 . S
H515 C511 0.950 . S
H516 C513 0.950 . S
C517 C508 1.390 . S
C517 H510 0.950 . S
C517 C514 1.387 . S
C518 C519 1.387 1_556 S
C518 H522 0.950 . S
C518 C527 1.390 . S
C519 C518 1.387 1_554 S
C519 C521 1.387 . S
H520 C527 0.950 . S
C521 C519 1.387 . S
C521 C523 1.390 . S
C521 H525 0.950 . S
H522 C518 0.950 . S
C523 C521 1.390 . S
C523 C524 1.387 . S
C523 H526 0.950 . S
C524 C523 1.387 . S
C524 C527 1.387 1_554 S
H525 C521 0.950 . S
H526 C523 0.950 . S
C527 C518 1.390 . S
C527 H520 0.950 . S
C527 C524 1.387 1_556 S
C528 C529 1.387 1_554 S
C528 H532 0.950 . S
C528 C537 1.390 . S
C529 C528 1.387 1_556 S
C529 C531 1.387 . S
H530 C537 0.950 . S
C531 C529 1.387 . S
C531 C533 1.390 . S
C531 H535 0.950 . S
H532 C528 0.950 . S
C533 C531 1.390 . S
C533 C534 1.387 . S
C533 H536 0.950 . S
C534 C533 1.387 . S
C534 C537 1.387 1_556 S
H535 C531 0.950 . S
H536 C533 0.950 . S
C537 C528 1.390 . S
C537 H530 0.950 . S
C537 C534 1.387 1_554 S
C538 C539 1.387 . S
C538 H542 0.950 . S
C538 C547 1.390 . S
C539 C538 1.387 . S
C539 C541 1.387 . S
H540 C547 0.950 . S
C541 C539 1.387 . S
C541 C543 1.390 . S
C541 H545 0.950 . S
H542 C538 0.950 . S
C543 C541 1.390 . S
C543 C544 1.387 . S
C543 H546 0.950 . S
C544 C543 1.387 . S
C544 C547 1.387 . S
H545 C541 0.950 . S
H546 C543 0.950 . S
C547 C538 1.390 . S
C547 H540 0.950 . S
C547 C544 1.387 . S
C548 C549 1.387 . S
C548 H552 0.950 . S
C548 C557 1.390 . S
C549 C548 1.387 . S
C549 C551 1.387 . S
H550 C557 0.950 . S
C551 C549 1.387 . S
C551 C553 1.390 . S
C551 H555 0.950 . S
H552 C548 0.950 . S
C553 C551 1.390 . S
C553 C554 1.387 . S
C553 H556 0.950 . S
C554 C553 1.387 . S
C554 C557 1.387 . S
H555 C551 0.950 . S
H556 C553 0.950 . S
C557 C548 1.390 . S
C557 H550 0.950 . S
C557 C554 1.387 . S
C558 C559 1.387 . S
C558 H562 0.950 . S
C558 C567 1.390 . S
C559 C558 1.387 . S
C559 C561 1.387 . S
H560 C567 0.950 . S
C561 C559 1.387 . S
C561 C563 1.390 . S
C561 H565 0.950 . S
H562 C558 0.950 . S
C563 C561 1.390 . S
C563 C564 1.387 . S
C563 H566 0.950 . S
C564 C563 1.387 . S
C564 C567 1.387 . S
H565 C561 0.950 . S
H566 C563 0.950 . S
C567 C558 1.390 . S
C567 H560 0.950 . S
C567 C564 1.387 . S
C568 C569 1.387 . S
C568 H572 0.950 . S
C568 C577 1.390 . S
C569 C568 1.387 . S
C569 C571 1.387 . S
H570 C577 0.950 . S
C571 C569 1.387 . S
C571 C573 1.390 . S
C571 H575 0.950 . S
H572 C568 0.950 . S
C573 C571 1.390 . S
C573 C574 1.387 . S
C573 H576 0.950 . S
C574 C573 1.387 . S
C574 C577 1.387 . S
H575 C571 0.950 . S
H576 C573 0.950 . S
C577 C568 1.390 . S
C577 H570 0.950 . S
C577 C574 1.387 . S
C578 C579 1.387 . S
C578 H582 0.950 . S
C578 C587 1.390 . S
C579 C578 1.387 . S
C579 C581 1.387 1_554 S
H580 C587 0.950 . S
C581 C579 1.387 1_556 S
C581 C583 1.390 . S
C581 H585 0.950 . S
H582 C578 0.950 . S
C583 C581 1.390 . S
C583 C584 1.387 1_556 S
C583 H586 0.950 . S
C584 C583 1.387 1_554 S
C584 C587 1.387 . S
H585 C581 0.950 . S
H586 C583 0.950 . S
C587 C578 1.390 . S
C587 H580 0.950 . S
C587 C584 1.387 . S
C588 C589 1.387 . S
C588 H592 0.950 . S
C588 C597 1.390 . S
C589 C588 1.387 . S
C589 C591 1.387 . S
H590 C597 0.950 . S
C591 C589 1.387 . S
C591 C593 1.390 . S
C591 H595 0.950 . S
H592 C588 0.950 . S
C593 C591 1.390 . S
C593 C594 1.387 . S
C593 H596 0.950 . S
C594 C593 1.387 . S
C594 C597 1.387 . S
H595 C591 0.950 . S
H596 C593 0.950 . S
C597 C588 1.390 . S
C597 H590 0.950 . S
C597 C594 1.387 . S
C598 C599 1.387 . S
C598 H602 0.950 . S
C598 C607 1.390 . S
C599 C598 1.387 . S
C599 C601 1.387 . S
H600 C607 0.950 . S
C601 C599 1.387 . S
C601 C603 1.390 . S
C601 H605 0.950 . S
H602 C598 0.950 . S
C603 C601 1.390 . S
C603 C604 1.387 . S
C603 H606 0.950 . S
C604 C603 1.387 . S
C604 C607 1.387 . S
H605 C601 0.950 . S
H606 C603 0.950 . S
C607 C598 1.390 . S
C607 H600 0.950 . S
C607 C604 1.387 . S
C608 C609 1.387 . S
C608 H612 0.950 . S
C608 C617 1.390 . S
C609 C608 1.387 . S
C609 C611 1.387 . S
H610 C617 0.950 . S
C611 C609 1.387 . S
C611 C613 1.390 . S
C611 H615 0.950 . S
H612 C608 0.950 . S
C613 C611 1.390 . S
C613 C614 1.387 . S
C613 H616 0.950 . S
C614 C613 1.387 . S
C614 C617 1.387 . S
H615 C611 0.950 . S
H616 C613 0.950 . S
C617 C608 1.390 . S
C617 H610 0.950 . S
C617 C614 1.387 . S
C618 C619 1.387 . S
C618 H622 0.950 . S
C618 C627 1.390 . S
C619 C618 1.387 . S
C619 C621 1.387 . S
H620 C627 0.950 . S
C621 C619 1.387 . S
C621 C623 1.390 . S
C621 H625 0.950 . S
H622 C618 0.950 . S
C623 C621 1.390 . S
C623 C624 1.387 . S
C623 H626 0.950 . S
C624 C623 1.387 . S
C624 C627 1.387 . S
H625 C621 0.950 . S
H626 C623 0.950 . S
C627 C618 1.390 . S
C627 H620 0.950 . S
C627 C624 1.387 . S
C628 C629 1.387 . S
C628 H632 0.950 . S
C628 C637 1.390 . S
C629 C628 1.387 . S
C629 C631 1.387 1_556 S
H630 C637 0.950 . S
C631 C629 1.387 1_554 S
C631 C633 1.390 . S
C631 H635 0.950 . S
H632 C628 0.950 . S
C633 C631 1.390 . S
C633 C634 1.387 1_554 S
C633 H636 0.950 . S
C634 C633 1.387 1_556 S
C634 C637 1.387 . S
H635 C631 0.950 . S
H636 C633 0.950 . S
C637 C628 1.390 . S
C637 H630 0.950 . S
C637 C634 1.387 . S
C638 C639 1.387 . S
C638 H642 0.950 . S
C638 C647 1.390 . S
C639 C638 1.387 . S
C639 C641 1.387 . S
H640 C647 0.950 . S
C641 C639 1.387 . S
C641 C643 1.390 . S
C641 H645 0.950 . S
H642 C638 0.950 . S
C643 C641 1.390 . S
C643 C644 1.387 . S
C643 H646 0.950 . S
C644 C643 1.387 . S
C644 C647 1.387 . S
H645 C641 0.950 . S
H646 C643 0.950 . S
C647 C638 1.390 . S
C647 H640 0.950 . S
C647 C644 1.387 . S
C648 C649 1.387 . S
C648 H652 0.950 . S
C648 C657 1.390 . S
C649 C648 1.387 . S
C649 C651 1.387 . S
H650 C657 0.950 . S
C651 C649 1.387 . S
C651 C653 1.390 . S
C651 H655 0.950 . S
H652 C648 0.950 . S
C653 C651 1.390 . S
C653 C654 1.387 . S
C653 H656 0.950 . S
C654 C653 1.387 . S
C654 C657 1.387 . S
H655 C651 0.950 . S
H656 C653 0.950 . S
C657 C648 1.390 . S
C657 H650 0.950 . S
C657 C654 1.387 . S
C658 C659 1.387 . S
C658 H662 0.950 . S
C658 C667 1.390 . S
C659 C658 1.387 . S
C659 C661 1.387 . S
H660 C667 0.950 . S
C661 C659 1.387 . S
C661 C663 1.390 . S
C661 H665 0.950 . S
H662 C658 0.950 . S
C663 C661 1.390 . S
C663 C664 1.387 . S
C663 H666 0.950 . S
C664 C663 1.387 . S
C664 C667 1.387 . S
H665 C661 0.950 . S
H666 C663 0.950 . S
C667 C658 1.390 . S
C667 H660 0.950 . S
C667 C664 1.387 . S
C668 C669 1.387 . S
C668 H672 0.950 . S
C668 C677 1.390 . S
C669 C668 1.387 . S
C669 C671 1.387 . S
H670 C677 0.950 . S
C671 C669 1.387 . S
C671 C673 1.390 . S
C671 H675 0.950 . S
H672 C668 0.950 . S
C673 C671 1.390 . S
C673 C674 1.387 . S
C673 H676 0.950 . S
C674 C673 1.387 . S
C674 C677 1.387 . S
H675 C671 0.950 . S
H676 C673 0.950 . S
C677 C668 1.390 . S
C677 H670 0.950 . S
C677 C674 1.387 . S
C678 C679 1.387 . S
C678 H682 0.950 . S
C678 C687 1.390 . S
C679 C678 1.387 . S
C679 C681 1.387 . S
H680 C687 0.950 . S
C681 C679 1.387 . S
C681 C683 1.390 . S
C681 H685 0.950 . S
H682 C678 0.950 . S
C683 C681 1.390 . S
C683 C684 1.387 . S
C683 H686 0.950 . S
C684 C683 1.387 . S
C684 C687 1.387 . S
H685 C681 0.950 . S
H686 C683 0.950 . S
C687 C678 1.390 . S
C687 H680 0.950 . S
C687 C684 1.387 . S
C688 C689 1.387 . S
C688 H692 0.950 . S
C688 C697 1.390 . S
C689 C688 1.387 . S
C689 C691 1.387 . S
H690 C697 0.950 . S
C691 C689 1.387 . S
C691 C693 1.390 . S
C691 H695 0.950 . S
H692 C688 0.950 . S
C693 C691 1.390 . S
C693 C694 1.387 . S
C693 H696 0.950 . S
C694 C693 1.387 . S
C694 C697 1.387 . S
H695 C691 0.950 . S
H696 C693 0.950 . S
C697 C688 1.390 . S
C697 H690 0.950 . S
C697 C694 1.387 . S
C698 C699 1.387 . S
C698 H702 0.950 . S
C698 C707 1.390 . S
C699 C698 1.387 . S
C699 C701 1.387 . S
H700 C707 0.950 . S
C701 C699 1.387 . S
C701 C703 1.390 . S
C701 H705 0.950 . S
H702 C698 0.950 . S
C703 C701 1.390 . S
C703 C704 1.387 . S
C703 H706 0.950 . S
C704 C703 1.387 . S
C704 C707 1.387 . S
H705 C701 0.950 . S
H706 C703 0.950 . S
C707 C698 1.390 . S
C707 H700 0.950 . S
C707 C704 1.387 . S
C708 C709 1.387 . S
C708 H712 0.950 . S
C708 C717 1.390 . S
C709 C708 1.387 . S
C709 C711 1.387 . S
H710 C717 0.950 . S
C711 C709 1.387 . S
C711 C713 1.390 . S
C711 H715 0.950 . S
H712 C708 0.950 . S
C713 C711 1.390 . S
C713 C714 1.387 . S
C713 H716 0.950 . S
C714 C713 1.387 . S
C714 C717 1.387 . S
H715 C711 0.950 . S
H716 C713 0.950 . S
C717 C708 1.390 . S
C717 H710 0.950 . S
C717 C714 1.387 . S
C718 C719 1.387 . S
C718 H722 0.950 . S
C718 C727 1.390 . S
C719 C718 1.387 . S
C719 C721 1.387 . S
H720 C727 0.950 . S
C721 C719 1.387 . S
C721 C723 1.390 . S
C721 H725 0.950 . S
H722 C718 0.950 . S
C723 C721 1.390 . S
C723 C724 1.387 . S
C723 H726 0.950 . S
C724 C723 1.387 . S
C724 C727 1.387 . S
H725 C721 0.950 . S
H726 C723 0.950 . S
C727 C718 1.390 . S
C727 H720 0.950 . S
C727 C724 1.387 . S
C728 C729 1.387 . S
C728 H732 0.950 . S
C728 C737 1.390 . S
C729 C728 1.387 . S
C729 C731 1.387 . S
H730 C737 0.950 . S
C731 C729 1.387 . S
C731 C733 1.390 . S
C731 H735 0.950 . S
H732 C728 0.950 . S
C733 C731 1.390 . S
C733 C734 1.387 . S
C733 H736 0.950 . S
C734 C733 1.387 . S
C734 C737 1.387 . S
H735 C731 0.950 . S
H736 C733 0.950 . S
C737 C728 1.390 . S
C737 H730 0.950 . S
C737 C734 1.387 . S
C738 C739 1.387 . S
C738 H742 0.950 . S
C738 C747 1.390 . S
C739 C738 1.387 . S
C739 C741 1.387 . S
H740 C747 0.950 . S
C741 C739 1.387 . S
C741 C743 1.390 . S
C741 H745 0.950 . S
H742 C738 0.950 . S
C743 C741 1.390 . S
C743 C744 1.387 . S
C743 H746 0.950 . S
C744 C743 1.387 . S
C744 C747 1.387 . S
H745 C741 0.950 . S
H746 C743 0.950 . S
C747 C738 1.390 . S
C747 H740 0.950 . S
C747 C744 1.387 . S
C748 C749 1.387 . S
C748 H752 0.950 . S
C748 C757 1.390 . S
C749 C748 1.387 . S
C749 C751 1.387 . S
H750 C757 0.950 . S
C751 C749 1.387 . S
C751 C753 1.390 . S
C751 H755 0.950 . S
H752 C748 0.950 . S
C753 C751 1.390 . S
C753 C754 1.387 . S
C753 H756 0.950 . S
C754 C753 1.387 . S
C754 C757 1.387 . S
H755 C751 0.950 . S
H756 C753 0.950 . S
C757 C748 1.390 . S
C757 H750 0.950 . S
C757 C754 1.387 . S
C758 C759 1.387 . S
C758 H762 0.950 . S
C758 C767 1.390 . S
C759 C758 1.387 . S
C759 C761 1.387 . S
H760 C767 0.950 . S
C761 C759 1.387 . S
C761 C763 1.390 . S
C761 H765 0.950 . S
H762 C758 0.950 . S
C763 C761 1.390 . S
C763 C764 1.387 . S
C763 H766 0.950 . S
C764 C763 1.387 . S
C764 C767 1.387 . S
H765 C761 0.950 . S
H766 C763 0.950 . S
C767 C758 1.390 . S
C767 H760 0.950 . S
C767 C764 1.387 . S
C768 C769 1.387 . S
C768 H772 0.950 . S
C768 C777 1.390 . S
C769 C768 1.387 . S
C769 C771 1.387 . S
H770 C777 0.950 . S
C771 C769 1.387 . S
C771 C773 1.390 . S
C771 H775 0.950 . S
H772 C768 0.950 . S
C773 C771 1.390 . S
C773 C774 1.387 . S
C773 H776 0.950 . S
C774 C773 1.387 . S
C774 C777 1.387 . S
H775 C771 0.950 . S
H776 C773 0.950 . S
C777 C768 1.390 . S
C777 H770 0.950 . S
C777 C774 1.387 . S
C778 C779 1.387 . S
C778 H782 0.950 . S
C778 C787 1.390 . S
C779 C778 1.387 . S
C779 C781 1.387 . S
H780 C787 0.950 . S
C781 C779 1.387 . S
C781 C783 1.390 . S
C781 H785 0.950 . S
H782 C778 0.950 . S
C783 C781 1.390 . S
C783 C784 1.387 . S
C783 H786 0.950 . S
C784 C783 1.387 . S
C784 C787 1.387 . S
H785 C781 0.950 . S
H786 C783 0.950 . S
C787 C778 1.390 . S
C787 H780 0.950 . S
C787 C784 1.387 . S
C788 C789 1.387 . S
C788 H792 0.950 . S
C788 C797 1.390 . S
C789 C788 1.387 . S
C789 C791 1.387 . S
H790 C797 0.950 . S
C791 C789 1.387 . S
C791 C793 1.390 . S
C791 H795 0.950 . S
H792 C788 0.950 . S
C793 C791 1.390 . S
C793 C794 1.387 . S
C793 H796 0.950 . S
C794 C793 1.387 . S
C794 C797 1.387 . S
H795 C791 0.950 . S
H796 C793 0.950 . S
C797 C788 1.390 . S
C797 H790 0.950 . S
C797 C794 1.387 . S
C798 C799 1.387 . S
C798 H802 0.950 . S
C798 C807 1.390 . S
C799 C798 1.387 . S
C799 C801 1.387 . S
H800 C807 0.950 . S
C801 C799 1.387 . S
C801 C803 1.390 . S
C801 H805 0.950 . S
H802 C798 0.950 . S
C803 C801 1.390 . S
C803 C804 1.387 . S
C803 H806 0.950 . S
C804 C803 1.387 . S
C804 C807 1.387 . S
H805 C801 0.950 . S
H806 C803 0.950 . S
C807 C798 1.390 . S
C807 H800 0.950 . S
C807 C804 1.387 . S
C494 C397 1.427 . S
C489 C36 1.472 . S
C504 C415 1.453 . S
C499 C93 1.495 . S
C514 C423 1.424 . S
C509 C126 1.490 . S
C519 C165 1.475 . S
C524 C389 1.452 . S
C529 C222 1.491 . S
C534 C384 1.424 . S
C539 C261 1.475 . S
C544 C402 1.456 . S
C554 C410 1.423 . S
C549 C318 1.490 . S
C564 C428 1.453 . S
C559 C381 1.495 . S
C569 C132 1.470 . S
C574 C449 1.423 . S
C584 C467 1.457 . S
C579 C189 1.496 . S
C589 C30 1.490 . S
C594 C475 1.422 . S
C604 C441 1.456 . S
C599 C69 1.475 . S
C609 C324 1.470 . S
C614 C436 1.427 . S
C619 C357 1.475 . S
C624 C454 1.452 . S
C634 C462 1.426 . S
C629 C228 1.469 . S
C639 C285 1.495 . S
C644 C480 1.453 . S
C654 C418 1.613 . S
C649 C45 1.582 . S
C664 C433 1.569 . S
C659 C84 1.586 . S
C669 C117 1.571 . S
C674 C392 1.613 . S
C679 C174 1.540 . S
C684 C407 1.569 . S
C689 C213 1.572 . S
C694 C431 1.614 . S
C704 C394 1.567 . S
C699 C270 1.541 . S
C714 C405 1.614 . S
C709 C309 1.572 . S
C724 C420 1.567 . S
C719 C372 1.586 . S
C734 C470 1.614 . S
C729 C141 1.581 . S
C744 C485 1.567 . S
C739 C180 1.586 . S
C749 C21 1.574 . S
C754 C444 1.612 . S
C764 C459 1.567 . S
C759 C78 1.541 . S
C774 C483 1.613 . S
C769 C333 1.579 . S
C779 C366 1.541 . S
C784 C446 1.569 . S
C794 C457 1.613 . S
C789 C237 1.581 . S
C804 C472 1.569 . S
C799 C276 1.585 . S
