# Generated by pormake.
# Topology zzz, (3,6)-cn, num edge types: 1
# Building blocks:
#     Node 0, Type 0, BuildingBlock: ESEHIV_clean_linker_0, # of connection points: 3
#     Node 1, Type 0, BuildingBlock: ESEHIV_clean_linker_0, # of connection points: 3
#     Node 2, Type 0, BuildingBlock: ESEHIV_clean_linker_0, # of connection points: 3
#     Node 3, Type 0, BuildingBlock: ESEHIV_clean_linker_0, # of connection points: 3
#     Node 4, Type 0, BuildingBlock: ESEHIV_clean_linker_0, # of connection points: 3
#     Node 5, Type 0, BuildingBlock: ESEHIV_clean_linker_0, # of connection points: 3
#     Node 6, Type 0, BuildingBlock: ESEHIV_clean_linker_0, # of connection points: 3
#     Node 7, Type 0, BuildingBlock: ESEHIV_clean_linker_0, # of connection points: 3
#     Node 8, Type 1, BuildingBlock: INOVEN_clean_sbu_0, # of connection points: 6
#     Node 9, Type 1, BuildingBlock: INOVEN_clean_sbu_0, # of connection points: 6
#     Node 10, Type 1, BuildingBlock: INOVEN_clean_sbu_0, # of connection points: 6
#     Node 11, Type 1, BuildingBlock: INOVEN_clean_sbu_0, # of connection points: 6
#     Edge 12, Type (0, 1), BuildingBlock: ZUJKAS_clean_linker_0, # of connection points: 2
#     Edge 13, Type (0, 1), BuildingBlock: ZUJKAS_clean_linker_0, # of connection points: 2
#     Edge 14, Type (0, 1), BuildingBlock: ZUJKAS_clean_linker_0, # of connection points: 2
#     Edge 15, Type (0, 1), BuildingBlock: ZUJKAS_clean_linker_0, # of connection points: 2
#     Edge 16, Type (0, 1), BuildingBlock: ZUJKAS_clean_linker_0, # of connection points: 2
#     Edge 17, Type (0, 1), BuildingBlock: ZUJKAS_clean_linker_0, # of connection points: 2
#     Edge 18, Type (0, 1), BuildingBlock: ZUJKAS_clean_linker_0, # of connection points: 2
#     Edge 19, Type (0, 1), BuildingBlock: ZUJKAS_clean_linker_0, # of connection points: 2
#     Edge 20, Type (0, 1), BuildingBlock: ZUJKAS_clean_linker_0, # of connection points: 2
#     Edge 21, Type (0, 1), BuildingBlock: ZUJKAS_clean_linker_0, # of connection points: 2
#     Edge 22, Type (0, 1), BuildingBlock: ZUJKAS_clean_linker_0, # of connection points: 2
#     Edge 23, Type (0, 1), BuildingBlock: ZUJKAS_clean_linker_0, # of connection points: 2
#     Edge 24, Type (0, 1), BuildingBlock: ZUJKAS_clean_linker_0, # of connection points: 2
#     Edge 25, Type (0, 1), BuildingBlock: ZUJKAS_clean_linker_0, # of connection points: 2
#     Edge 26, Type (0, 1), BuildingBlock: ZUJKAS_clean_linker_0, # of connection points: 2
#     Edge 27, Type (0, 1), BuildingBlock: ZUJKAS_clean_linker_0, # of connection points: 2
#     Edge 28, Type (0, 1), BuildingBlock: ZUJKAS_clean_linker_0, # of connection points: 2
#     Edge 29, Type (0, 1), BuildingBlock: ZUJKAS_clean_linker_0, # of connection points: 2
#     Edge 30, Type (0, 1), BuildingBlock: ZUJKAS_clean_linker_0, # of connection points: 2
#     Edge 31, Type (0, 1), BuildingBlock: ZUJKAS_clean_linker_0, # of connection points: 2
#     Edge 32, Type (0, 1), BuildingBlock: ZUJKAS_clean_linker_0, # of connection points: 2
#     Edge 33, Type (0, 1), BuildingBlock: ZUJKAS_clean_linker_0, # of connection points: 2
#     Edge 34, Type (0, 1), BuildingBlock: ZUJKAS_clean_linker_0, # of connection points: 2
#     Edge 35, Type (0, 1), BuildingBlock: ZUJKAS_clean_linker_0, # of connection points: 2
# Relax obj value: 0.428
# Max RMSD: 0.269
# Mean RMSD: 0.251
data_MOF--net-zzz--node1-INOVEN_clean_sbu_0--node2-ESEHIV_clean_linker_0--edge1-ZUJKAS_clean_linker_0
_symmetry_space_group_name_H-M    P1
_symmetry_Int_Tables_number       1
_symmetry_cell_setting            triclinic
loop_
_symmetry_equiv_pos_as_xyz
'x, y, z'
_cell_length_a     60.458686
_cell_length_b     60.43718
_cell_length_c     18.534437
_cell_angle_alpha  90.064257
_cell_angle_beta   90.010208
_cell_angle_gamma 90.108027
loop_
_atom_site_label
_atom_site_type_symbol
_atom_site_fract_x
_atom_site_fract_y
_atom_site_fract_z
_atom_type_partial_charge
H0 H 0.78469 0.48166 0.23466 0.0
H1 H 0.72562 0.49599 0.11553 0.0
H2 H 0.73038 0.51486 0.33936 0.0
C3 C 0.76812 0.48848 0.23259 0.0
C4 C 0.75911 0.49827 0.29471 0.0
C5 C 0.75623 0.48769 0.16776 0.0
C6 C 0.73488 0.49643 0.16566 0.0
C7 C 0.72537 0.50616 0.22694 0.0
C8 C 0.73755 0.50723 0.29192 0.0
H9 H 0.04984 0.77987 0.30213 0.0
H10 H 0.05972 0.71895 0.18709 0.0
H11 H 1.0036 0.72658 0.32893 0.0
C12 C 0.0452 0.76285 0.29109 0.0
C13 C 0.02604 0.75445 0.32333 0.0
C14 C 0.05745 0.75031 0.24156 0.0
C15 C 0.05054 0.72865 0.2261 0.0
C16 C 0.03116 0.71983 0.25705 0.0
C17 C 0.01878 0.73293 0.30574 0.0
H18 H 0.74101 0.05255 0.32775 0.0
H19 H 0.79717 0.05822 0.1876 0.0
H20 H 0.7867 0.99833 0.30974 0.0
C21 C 0.7564 0.04588 0.30691 0.0
C22 C 0.76271 0.02443 0.32652 0.0
C23 C 0.76851 0.05801 0.25617 0.0
C24 C 0.78791 0.04895 0.22763 0.0
C25 C 0.79489 0.02761 0.24735 0.0
C26 C 0.78191 0.01506 0.2959 0.0
H27 H 0.47882 0.7335 0.2926 0.0
H28 H 0.51497 0.79219 0.35231 0.0
H29 H 0.47298 0.79185 0.16333 0.0
C30 C 0.4831 0.7507 0.28287 0.0
C31 C 0.47428 0.76152 0.22288 0.0
C32 C 0.49761 0.76152 0.33002 0.0
C33 C 0.50352 0.78378 0.31659 0.0
C34 C 0.49419 0.79512 0.25698 0.0
C35 C 0.47954 0.78372 0.21086 0.0
H36 H 0.23783 0.54754 0.10716 0.0
H37 H 0.2936 0.55253 0.24881 0.0
H38 H 0.29368 0.50462 0.0755 0.0
C39 C 0.25439 0.54237 0.12224 0.0
C40 C 0.26464 0.52537 0.08346 0.0
C41 C 0.26456 0.55196 0.18236 0.0
C42 C 0.28593 0.54537 0.2013 0.0
C43 C 0.29684 0.52848 0.16281 0.0
C44 C 0.28584 0.51807 0.10443 0.0
H45 H 0.06401 0.23697 0.04311 0.0
H46 H 0.07437 0.28897 0.19654 0.0
H47 H 0.01795 0.2909 0.05305 0.0
C48 C 0.05944 0.25306 0.06453 0.0
C49 C 0.03997 0.26302 0.04031 0.0
C50 C 0.07174 0.26214 0.12111 0.0
C51 C 0.06513 0.28231 0.15128 0.0
C52 C 0.0461 0.29334 0.12584 0.0
C53 C 0.03311 0.2832 0.07132 0.0
H54 H 0.27992 0.98042 0.13636 0.0
H55 H 0.21848 0.97948 0.25169 0.0
H56 H 0.22738 0.02426 0.07261 0.0
C57 C 0.26307 0.98629 0.14271 0.0
C58 C 0.25508 1.00272 0.09641 0.0
C59 C 0.25011 0.9781 0.19921 0.0
C60 C 0.22839 0.98556 0.20711 0.0
C61 C 0.21994 1.00213 0.16168 0.0
C62 C 0.23351 0.01108 0.10672 0.0
H63 H 0.45788 0.27822 0.09112 0.0
H64 H 0.50452 0.2252 0.07542 0.0
H65 H 0.44822 0.21949 0.21772 0.0
C66 C 0.46243 0.26142 0.10519 0.0
C67 C 0.45031 0.24983 0.15752 0.0
C68 C 0.4817 0.25271 0.0748 0.0
C69 C 0.48922 0.23174 0.09707 0.0
C70 C 0.4768 0.21934 0.14773 0.0
C71 C 0.45731 0.22852 0.17684 0.0
Gd72 Gd 0.01675 1.00223 0.75684 0.0
Gd73 Gd 0.99354 0.0168 0.61142 0.0
C74 C 1.00086 0.96421 0.64771 0.0
C75 C 0.03249 0.99394 0.88292 0.0
C76 C 0.04901 0.97789 0.90829 0.0
C77 C 0.06736 0.97243 0.86533 0.0
C78 C 0.04534 0.96637 0.97266 0.0
C79 C 0.0771 0.94275 0.94788 0.0
C80 C 0.05924 0.94894 0.99232 0.0
C81 C 0.08134 0.9551 0.88515 0.0
C82 C 0.0429 1.00643 0.63908 0.0
C83 C 1.00334 0.05379 0.73127 0.0
C84 C 0.99172 0.02823 0.47807 0.0
C85 C 1.00493 0.04385 0.43426 0.0
C86 C 1.00367 0.06677 0.44635 0.0
C87 C 0.02013 0.03579 0.38315 0.0
C88 C 0.03308 0.07317 0.35931 0.0
C89 C 0.03418 0.05032 0.34627 0.0
C90 C 0.01756 0.08124 0.40919 0.0
C91 C 0.96263 1.00714 0.71399 0.0
O92 O 1.00594 0.96894 0.71557 0.0
O93 O 0.9976 0.97977 0.59836 0.0
O94 O 0.03996 0.00996 0.84189 0.0
O95 O 0.0139 0.98532 0.85942 0.0
O96 O 0.04574 0.99148 0.68824 0.0
O97 O 0.02715 0.01891 0.65643 0.0
O98 O 1.00107 0.0499 0.66132 0.0
O99 O 1.00637 0.0376 0.77853 0.0
O100 O 0.97874 0.03678 0.52769 0.0
O101 O 1.00231 0.01055 0.50022 0.0
O102 O 0.9576 0.01347 0.64892 0.0
O103 O 0.9833 1.00607 0.71801 0.0
H104 H 0.0705 0.98105 0.81514 0.0
H105 H 0.03118 0.97023 1.00618 0.0
H106 H 0.05522 0.93958 0.04036 0.0
H107 H 0.09507 0.95094 0.85017 0.0
H108 H 0.99228 0.07358 0.4856 0.0
H109 H 0.0215 0.01819 0.37291 0.0
H110 H 0.04594 0.04371 0.3078 0.0
H111 H 0.01651 0.09878 0.4208 0.0
Gd112 Gd 0.51987 0.02446 0.77734 0.0
Gd113 Gd 0.50245 0.99604 0.64791 0.0
C114 C 0.55512 1.00338 0.66933 0.0
C115 C 0.53085 0.04415 0.89549 0.0
C116 C 0.54874 0.05942 0.91483 0.0
C117 C 0.56432 0.06584 0.86286 0.0
C118 C 0.55057 0.06735 0.98554 0.0
C119 C 0.58435 0.08705 0.95344 0.0
C120 C 0.56825 0.08108 1.00478 0.0
C121 C 0.58196 0.07959 0.88194 0.0
C122 C 0.51884 0.04532 0.64798 0.0
C123 C 0.46689 0.01242 0.76529 0.0
C124 C 0.48547 0.98293 0.52808 0.0
C125 C 0.46601 0.96893 0.5145 0.0
C126 C 0.46055 0.95158 0.56186 0.0
C127 C 0.45104 0.97498 0.46041 0.0
C128 C 0.42446 0.94811 0.50572 0.0
C129 C 0.43042 0.96466 0.45605 0.0
C130 C 0.43996 0.94113 0.55714 0.0
C131 C 0.50861 0.96952 0.76578 0.0
O132 O 0.55149 0.00915 0.73734 0.0
O133 O 0.53871 1.00079 0.62256 0.0
O134 O 0.51615 0.05207 0.8505 0.0
O135 O 0.53703 0.02391 0.87973 0.0
O136 O 0.53373 0.04874 0.69695 0.0
O137 O 0.5045 0.03192 0.67147 0.0
O138 O 0.47003 1.00284 0.702 0.0
O139 O 0.48341 0.02066 0.80412 0.0
O140 O 0.50261 0.97325 0.55762 0.0
O141 O 0.48095 1.00218 0.55692 0.0
O142 O 0.5013 0.96256 0.70413 0.0
O143 O 0.51201 0.98996 0.76031 0.0
H144 H 0.56306 0.0599 0.80785 0.0
H145 H 0.53862 0.06254 0.02618 0.0
H146 H 0.56979 0.08626 0.06052 0.0
H147 H 0.59396 0.08405 0.84104 0.0
H148 H 0.47173 0.94679 0.60469 0.0
H149 H 0.45488 0.98842 0.42382 0.0
H150 H 0.41879 0.97015 0.41536 0.0
H151 H 0.4357 0.9285 0.5962 0.0
Gd152 Gd 0.49516 0.51647 0.78111 0.0
Gd153 Gd 0.52066 0.50088 0.64194 0.0
C154 C 0.51329 0.55372 0.6737 0.0
C155 C 0.4767 0.52515 0.90285 0.0
C156 C 0.4597 0.54126 0.92438 0.0
C157 C 0.44072 0.54467 0.88195 0.0
C158 C 0.4635 0.55488 0.98421 0.0
C159 C 0.4307 0.57654 0.95521 0.0
C160 C 0.44922 0.57239 0.99938 0.0
C161 C 0.42629 0.56206 0.89752 0.0
C162 C 0.47121 0.5128 0.65857 0.0
C163 C 0.50853 0.46462 0.76101 0.0
C164 C 0.52556 0.48845 0.51023 0.0
C165 C 0.51265 0.47303 0.4646 0.0
C166 C 0.52082 0.45172 0.45085 0.0
C167 C 0.49124 0.47853 0.44058 0.0
C168 C 0.48535 0.44075 0.40033 0.0
C169 C 0.47768 0.46246 0.40904 0.0
C170 C 0.50729 0.43571 0.41909 0.0
C171 C 0.54983 0.51072 0.74992 0.0
O172 O 0.50756 0.54943 0.74131 0.0
O173 O 0.51673 0.5378 0.62565 0.0
O174 O 0.47014 0.50899 0.86062 0.0
O175 O 0.49578 0.53368 0.88364 0.0
O176 O 0.46831 0.52827 0.70599 0.0
O177 O 0.48601 0.49961 0.67922 0.0
O178 O 0.51171 0.46812 0.69131 0.0
O179 O 0.50496 0.48113 0.80675 0.0
O180 O 0.53645 0.47941 0.56396 0.0
O181 O 0.51573 0.507 0.52827 0.0
O182 O 0.55595 0.50404 0.68626 0.0
O183 O 0.52918 0.51201 0.74978 0.0
H184 H 0.43742 0.53442 0.83518 0.0
H185 H 0.4781 0.55261 0.01729 0.0
H186 H 0.45348 0.58338 0.04342 0.0
H187 H 0.41208 0.56459 0.86295 0.0
H188 H 0.53731 0.4471 0.46795 0.0
H189 H 0.48456 0.49494 0.44892 0.0
H190 H 0.46099 0.46678 0.39334 0.0
H191 H 0.51361 0.41905 0.41293 0.0
Gd192 Gd 1.00679 0.48841 0.75422 0.0
Gd193 Gd 0.01596 0.52152 0.65102 0.0
C194 C 0.96696 0.50499 0.64986 0.0
C195 C 0.98891 0.46278 0.8487 0.0
C196 C 0.96859 0.44962 0.843 0.0
C197 C 0.9613 0.44205 0.77529 0.0
C198 C 0.95492 0.44717 0.90324 0.0
C199 C 0.92592 0.43152 0.82715 0.0
C200 C 0.93376 0.43824 0.89546 0.0
C201 C 0.9402 0.43294 0.76753 0.0
C202 C 0.02078 0.47088 0.62721 0.0
C203 C 0.05593 0.50386 0.75405 0.0
C204 C 0.03218 0.54807 0.55503 0.0
C205 C 0.05117 0.56317 0.55462 0.0
C206 C 0.06592 0.56356 0.61306 0.0
C207 C 0.05508 0.57675 0.49483 0.0
C208 C 0.08967 0.58921 0.54841 0.0
C209 C 0.07418 0.5898 0.49185 0.0
C210 C 0.08514 0.57635 0.60975 0.0
C211 C 1.00211 0.53865 0.77902 0.0
O212 O 0.97226 0.49713 0.71398 0.0
O213 O 0.98258 0.51268 0.60725 0.0
O214 O 1.00525 0.45656 0.80739 0.0
O215 O 0.98585 0.48419 0.8481 0.0
O216 O 0.02754 0.46472 0.69019 0.0
O217 O 1.00701 0.48645 0.63362 0.0
O218 O 0.05054 0.51226 0.69058 0.0
O219 O 0.04038 0.49622 0.79698 0.0
O220 O 0.01613 0.55352 0.59847 0.0
O221 O 0.03697 0.52701 0.55805 0.0
O222 O 0.9949 0.54473 0.71654 0.0
O223 O 0.01607 0.52334 0.77136 0.0
H224 H 0.97154 0.44408 0.72776 0.0
H225 H 0.96016 0.45323 0.95558 0.0
H226 H 0.92312 0.4379 0.94242 0.0
H227 H 0.9348 0.42778 0.71439 0.0
H228 H 0.06291 0.55347 0.66028 0.0
H229 H 0.04375 0.57673 0.44954 0.0
H230 H 0.07744 0.59934 0.44355 0.0
H231 H 0.09683 0.57564 0.65402 0.0
H232 H 0.18117 0.97965 0.155 0.0
H233 H 0.14696 0.98908 0.21806 0.0
H234 H 0.17452 0.05254 0.2759 0.0
H235 H 0.20891 0.043 0.21247 0.0
H236 H 0.16249 0.02805 0.39293 0.0
H237 H 0.09296 0.02899 0.19973 0.0
H238 H 0.10994 1.00492 0.18819 0.0
H239 H 0.12144 0.03195 0.17161 0.0
C240 C 0.1795 0.99601 0.17829 0.0
C241 C 0.19754 0.01071 0.17821 0.0
C242 C 0.15993 1.00142 0.21437 0.0
C243 C 0.15802 0.02161 0.25145 0.0
C244 C 0.1755 0.03696 0.24718 0.0
H245 H 0.04382 0.04148 0.54518 0.0
H246 H 0.0711 0.04857 0.44968 0.0
C247 C 0.19508 0.0316 0.21046 0.0
C248 C 0.13968 0.02475 0.30421 0.0
H249 H 0.08358 0.0202 0.32388 0.0
C250 C 0.14522 0.02681 0.37752 0.0
C251 C 0.11708 0.02331 0.28449 0.0
C252 C 0.10998 0.0224 0.2066 0.0
C253 C 0.12898 0.02601 0.43161 0.0
C254 C 0.10659 0.02283 0.41216 0.0
C255 C 0.1008 0.02227 0.3388 0.0
C256 C 0.08939 0.01837 0.46762 0.0
C257 C 0.136 0.02795 0.50949 0.0
C258 C 0.09052 0.99896 0.50899 0.0
C259 C 0.07513 0.99496 0.56374 0.0
C260 C 0.05819 0.01022 0.57796 0.0
C261 C 0.05668 0.0294 0.53528 0.0
C262 C 0.0722 0.03344 0.48057 0.0
H263 H 0.15241 0.03611 0.51476 0.0
H264 H 0.12368 0.03748 0.54123 0.0
H265 H 0.13724 0.01115 0.53321 0.0
H266 H 0.1035 0.98699 0.49939 0.0
H267 H 0.07665 0.98001 0.59551 0.0
H268 H 0.51797 0.20887 0.19951 0.0
H269 H 0.52822 0.17594 0.26933 0.0
H270 H 0.46306 0.14874 0.23534 0.0
H271 H 0.45292 0.18133 0.16483 0.0
H272 H 0.50694 0.16465 0.396 0.0
H273 H 0.50182 0.09457 0.20389 0.0
H274 H 0.50375 0.12301 0.17464 0.0
H275 H 0.47764 0.11177 0.20354 0.0
C276 C 0.50611 0.19552 0.20486 0.0
C277 C 0.48463 0.19771 0.17663 0.0
C278 C 0.51191 0.17677 0.24524 0.0
C279 C 0.49647 0.15972 0.25732 0.0
C280 C 0.47542 0.16139 0.22586 0.0
H281 H 0.48287 0.04967 0.5579 0.0
H282 H 0.47827 0.07661 0.45963 0.0
C283 C 0.46959 0.18013 0.18589 0.0
C284 C 0.50135 0.14156 0.3094 0.0
H285 H 0.50199 0.08526 0.32946 0.0
C286 C 0.50613 0.1473 0.38116 0.0
C287 C 0.50002 0.11889 0.29041 0.0
C288 C 0.49573 0.11164 0.21378 0.0
C289 C 0.50909 0.1311 0.43466 0.0
C290 C 0.50768 0.10842 0.41585 0.0
C291 C 0.50304 0.10262 0.34397 0.0
C292 C 0.51108 0.09063 0.47044 0.0
C293 C 0.513 0.13849 0.51146 0.0
C294 C 0.53125 0.08903 0.50757 0.0
C295 C 0.53385 0.07378 0.56361 0.0
C296 C 0.51643 0.05959 0.5834 0.0
C297 C 0.49658 0.06039 0.5439 0.0
C298 C 0.49394 0.07578 0.48781 0.0
H299 H 0.50781 0.15592 0.52014 0.0
H300 H 0.5039 0.12779 0.5501 0.0
H301 H 0.53091 0.13734 0.52386 0.0
H302 H 0.54488 0.09993 0.49417 0.0
H303 H 0.54943 0.0734 0.59249 0.0
H304 H 0.31173 0.48628 0.19007 0.0
H305 H 0.34551 0.47606 0.25594 0.0
H306 H 0.36506 0.5447 0.263 0.0
H307 H 0.33196 0.55479 0.19552 0.0
H308 H 0.40064 0.51786 0.24472 0.0
H309 H 0.34837 0.48727 0.47119 0.0
H310 H 0.34464 0.47349 0.38617 0.0
H311 H 0.33687 0.50204 0.39557 0.0
C312 C 0.32358 0.49906 0.20394 0.0
C313 C 0.31906 0.52138 0.18848 0.0
C314 C 0.34272 0.49325 0.24244 0.0
C315 C 0.35755 0.50969 0.26632 0.0
C316 C 0.35383 0.53172 0.24591 0.0
H317 H 0.4521 0.54505 0.57914 0.0
H318 H 0.42663 0.54075 0.47719 0.0
C319 C 0.33484 0.53749 0.20746 0.0
C320 C 0.37603 0.50467 0.31698 0.0
H321 H 0.38657 0.48916 0.49115 0.0
C322 C 0.39759 0.51126 0.29821 0.0
C323 C 0.37212 0.49608 0.38704 0.0
C324 C 0.34926 0.48945 0.41174 0.0
C325 C 0.41506 0.51032 0.34824 0.0
C326 C 0.41087 0.50273 0.41902 0.0
C327 C 0.38968 0.49497 0.43674 0.0
C328 C 0.42755 0.50497 0.47744 0.0
C329 C 0.43776 0.51804 0.32574 0.0
C330 C 0.43641 0.48627 0.51175 0.0
C331 C 0.45144 0.48871 0.56892 0.0
C332 C 0.45712 0.5099 0.59422 0.0
C333 C 0.44805 0.52855 0.56031 0.0
C334 C 0.43358 0.52611 0.50201 0.0
H335 H 0.4397 0.51789 0.26613 0.0
H336 H 0.44035 0.53524 0.34497 0.0
H337 H 0.4508 0.50749 0.35005 0.0
H338 H 0.43169 0.46982 0.49431 0.0
H339 H 0.45807 0.47408 0.5947 0.0
H340 H 0.07295 0.3283 0.15768 0.0
H341 H 0.06424 0.36094 0.23 0.0
H342 H 0.99615 0.34001 0.24333 0.0
H343 H 1.00494 0.30684 0.17218 0.0
H344 H 0.03477 0.39614 0.21707 0.0
H345 H 0.01504 0.34374 0.4552 0.0
H346 H 0.0282 0.33275 0.37556 0.0
H347 H 0.99901 0.33829 0.37548 0.0
C348 C 0.05607 0.33068 0.1756 0.0
C349 C 0.03971 0.31477 0.16003 0.0
C350 C 0.05109 0.34944 0.21663 0.0
C351 C 0.02964 0.35277 0.24332 0.0
C352 C 0.01292 0.3376 0.22443 0.0
H353 H 0.99693 0.47223 0.50066 0.0
H354 H 0.9974 0.4448 0.40251 0.0
C355 C 0.01791 0.31876 0.18313 0.0
C356 C 0.02545 0.37133 0.29461 0.0
H357 H 0.01342 0.38221 0.47132 0.0
C358 C 0.02985 0.39315 0.27248 0.0
C359 C 0.01932 0.36739 0.36722 0.0
C360 C 0.01527 0.3443 0.39529 0.0
C361 C 0.0287 0.41103 0.3212 0.0
C362 C 0.02278 0.40702 0.39391 0.0
C363 C 0.01788 0.38529 0.41553 0.0
C364 C 0.02318 0.42471 0.45004 0.0
C365 C 0.03472 0.43391 0.29531 0.0
C366 C 0.03749 0.42262 0.50928 0.0
C367 C 0.03719 0.43815 0.56518 0.0
C368 C 0.0225 0.45614 0.56344 0.0
C369 C 0.00854 0.45863 0.50324 0.0
C370 C 0.00882 0.44298 0.4471 0.0
H371 H 0.04303 0.43354 0.24187 0.0
H372 H 0.01946 0.44395 0.29022 0.0
H373 H 0.04579 0.44229 0.33464 0.0
H374 H 0.04874 0.40873 0.51278 0.0
H375 H 0.04816 0.43577 0.61071 0.0
H376 H 0.79864 0.99153 0.15877 0.0
H377 H 0.82972 0.9832 0.07782 0.0
H378 H 0.86741 0.03627 0.17395 0.0
H379 H 0.83625 0.04486 0.25332 0.0
H380 H 0.86411 0.04095 0.03066 0.0
H381 H 0.89072 0.95523 0.09125 0.0
H382 H 0.86156 0.95783 0.07491 0.0
H383 H 0.87369 0.97116 0.15218 0.0
C384 C 0.81388 1.00083 0.16425 0.0
C385 C 0.81513 0.01874 0.21248 0.0
C386 C 0.83166 0.99609 0.11795 0.0
C387 C 0.85103 0.00904 0.11982 0.0
C388 C 0.8527 0.02602 0.17136 0.0
H389 H 0.97133 0.99898 0.85688 0.0
H390 H 0.94461 0.99795 0.9569 0.0
C391 C 0.83495 0.03086 0.21699 0.0
C392 C 0.86831 1.00697 0.06273 0.0
H393 H 0.90443 0.97113 0.98182 0.0
C394 C 0.873 0.02569 0.02048 0.0
C395 C 0.88005 0.98712 0.04939 0.0
C396 C 0.87644 0.96673 0.09472 0.0
C397 C 0.88876 0.02507 0.9649 0.0
C398 C 0.89997 1.00507 0.94995 0.0
C399 C 0.89567 0.9864 0.99291 0.0
C400 C 0.91599 1.00343 0.88919 0.0
C401 C 0.89341 0.04595 0.92287 0.0
C402 C 0.90874 1.0063 0.81786 0.0
C403 C 0.92392 1.00688 0.76095 0.0
C404 C 0.94668 1.0045 0.77409 0.0
C405 C 0.9539 1.0008 0.84518 0.0
C406 C 0.93865 1.00021 0.90228 0.0
H407 H 0.88755 0.06093 0.95188 0.0
H408 H 0.91139 0.04777 0.91204 0.0
H409 H 0.88469 0.04512 0.87024 0.0
H410 H 0.89132 1.00856 0.80636 0.0
H411 H 0.91785 0.00965 0.70672 0.0
H412 H 0.53545 0.814 0.24431 0.0
H413 H 0.54439 0.84942 0.18599 0.0
H414 H 0.47474 0.86312 0.16301 0.0
H415 H 0.46591 0.8285 0.22339 0.0
H416 H 0.53591 0.8587 0.05248 0.0
H417 H 0.49507 0.92351 0.21198 0.0
H418 H 0.49919 0.89596 0.24695 0.0
H419 H 0.47534 0.90225 0.19211 0.0
C420 C 0.52212 0.82504 0.22945 0.0
C421 C 0.49998 0.81842 0.23832 0.0
C422 C 0.52721 0.84521 0.19551 0.0
C423 C 0.51027 0.85921 0.17034 0.0
C424 C 0.4882 0.8531 0.18325 0.0
H425 H 0.49838 0.9262 0.77595 0.0
H426 H 0.50218 0.90171 0.87926 0.0
C427 C 0.48314 0.83311 0.2173 0.0
C428 C 0.51523 0.87842 0.12202 0.0
H429 H 0.49849 0.9311 0.08231 0.0
C430 C 0.52812 0.87468 0.06013 0.0
C431 C 0.50553 0.89957 0.13183 0.0
C432 C 0.49324 0.9056 0.19984 0.0
C433 C 0.53016 0.89075 1.00574 0.0
C434 C 0.51851 0.91098 0.01208 0.0
C435 C 0.50705 0.91544 0.0764 0.0
C436 C 0.51629 0.92653 0.94994 0.0
C437 C 0.54446 0.88563 0.94114 0.0
C438 C 0.52214 0.94904 0.95555 0.0
C439 C 0.51972 0.96331 0.89605 0.0
C440 C 0.5113 0.95527 0.8303 0.0
C441 C 0.50514 0.93288 0.82554 0.0
C442 C 0.50747 0.91877 0.88459 0.0
H443 H 0.55806 0.87413 0.95569 0.0
H444 H 0.53425 0.87741 0.89916 0.0
H445 H 0.55178 0.90089 0.9178 0.0
H446 H 0.52874 0.95551 1.00566 0.0
H447 H 0.52446 0.9805 0.90139 0.0
H448 H 0.71221 0.5421 0.15179 0.0
H449 H 0.67591 0.54677 0.09649 0.0
H450 H 0.65077 0.49222 0.22223 0.0
H451 H 0.68745 0.48729 0.2765 0.0
H452 H 0.64637 0.48442 0.083 0.0
H453 H 0.61433 0.56842 0.13283 0.0
H454 H 0.64245 0.56956 0.1025 0.0
H455 H 0.636 0.55644 0.18723 0.0
C456 C 0.6986 0.53194 0.17057 0.0
C457 C 0.70252 0.51454 0.21914 0.0
C458 C 0.67779 0.53457 0.13875 0.0
C459 C 0.66043 0.51993 0.1552 0.0
C460 C 0.66383 0.50381 0.20884 0.0
H461 H 0.53858 0.52087 0.8895 0.0
H462 H 0.56342 0.52334 0.99436 0.0
C463 C 0.68471 0.50115 0.24059 0.0
C464 C 0.64064 0.51884 0.10718 0.0
H465 H 0.602 0.55072 0.02159 0.0
C466 C 0.63639 0.49884 0.07089 0.0
C467 C 0.62745 0.53755 0.09114 0.0
C468 C 0.63015 0.55912 0.13113 0.0
C469 C 0.62026 0.49736 0.01662 0.0
C470 C 0.60822 0.51647 0.9969 0.0
C471 C 0.61149 0.53616 0.03586 0.0
C472 C 0.59315 0.51642 0.93345 0.0
C473 C 0.61652 0.47538 0.97983 0.0
C474 C 0.60165 0.51226 0.86426 0.0
C475 C 0.58755 0.5109 0.80462 0.0
C476 C 0.56464 0.51379 0.81279 0.0
C477 C 0.55616 0.51861 0.88167 0.0
C478 C 0.57033 0.52001 0.94153 0.0
H479 H 0.62217 0.46138 0.01397 0.0
H480 H 0.59876 0.47291 0.96665 0.0
H481 H 0.62608 0.47494 0.92875 0.0
H482 H 0.61923 0.50979 0.85652 0.0
H483 H 0.59458 0.50726 0.75218 0.0
H484 H 0.05476 0.68144 0.24973 0.0
H485 H 0.04499 0.64781 0.183 0.0
H486 H 0.98059 0.67487 0.13732 0.0
H487 H 0.99035 0.70869 0.2039 0.0
H488 H 1.00737 0.61597 0.18827 0.0
H489 H 0.01195 0.66603 0.93681 0.0
H490 H 0.02335 0.67558 0.02133 0.0
H491 H 0.99401 0.67619 0.00677 0.0
C492 C 0.03832 0.68 0.2269 0.0
C493 C 0.02336 0.69776 0.23172 0.0
C494 C 0.03276 0.66077 0.18884 0.0
C495 C 0.01219 0.65895 0.1543 0.0
C496 C 0.99664 0.67601 0.16306 0.0
H497 H 0.97235 0.57142 0.80356 0.0
H498 H 0.97264 0.59889 0.90056 0.0
C499 C 1.00215 0.69524 0.20164 0.0
C500 C 1.00802 0.64028 0.10361 0.0
H501 H 1.00388 0.62829 0.924 0.0
C502 C 1.00645 0.61862 0.13049 0.0
C503 C 1.00694 0.64376 0.02823 0.0
C504 C 0.0093 0.66659 0.9961 0.0
C505 C 1.0036 0.60036 0.08395 0.0
C506 C 1.00292 0.60381 0.00832 0.0
C507 C 1.00432 0.62555 0.9818 0.0
C508 C 1.00122 0.5853 0.95505 0.0
C509 C 1.00101 0.57764 0.11646 0.0
C510 C 0.01693 0.56814 0.95363 0.0
C511 C 0.0166 0.5522 0.89851 0.0
C512 C 1.00079 0.55335 0.84299 0.0
C513 C 0.98474 0.57012 0.84556 0.0
C514 C 0.98493 0.58587 0.90097 0.0
H515 H 0.99477 0.57856 0.17277 0.0
H516 H 0.9895 0.56724 0.08425 0.0
H517 H 0.01738 0.56937 0.11782 0.0
H518 H 0.03002 0.56757 0.99342 0.0
H519 H 0.02931 0.53959 0.89759 0.0
H520 H 0.07173 0.24836 0.25963 0.0
H521 H 0.08621 0.21301 0.29897 0.0
H522 H 0.123 0.20704 0.10034 0.0
H523 H 0.10771 0.24232 0.05975 0.0
H524 H 0.09354 0.17692 0.1047 0.0
H525 H 0.13365 0.17377 0.36914 0.0
H526 H 0.11027 0.19163 0.37819 0.0
H527 H 0.13249 0.19914 0.31773 0.0
C528 C 0.08398 0.2402 0.22627 0.0
C529 C 0.08834 0.24783 0.15628 0.0
C530 C 0.09239 0.21987 0.24894 0.0
C531 C 0.1056 0.2071 0.20239 0.0
C532 C 0.11276 0.21648 0.13707 0.0
H533 H 0.07815 0.07027 0.34274 0.0
H534 H 0.10301 0.09877 0.29359 0.0
C535 C 0.10409 0.2367 0.11398 0.0
C536 C 0.10608 0.18271 0.21238 0.0
H537 H 0.1045 0.1445 0.34755 0.0
C538 C 0.09688 0.16965 0.15706 0.0
C539 C 0.11068 0.17282 0.27988 0.0
C540 C 0.12256 0.18514 0.33911 0.0
C541 C 0.08942 0.14812 0.17054 0.0
C542 C 0.09099 0.13955 0.24112 0.0
C543 C 0.10286 0.15134 0.29373 0.0
C544 C 0.07658 0.12114 0.26456 0.0
C545 C 0.07819 0.13542 0.1107 0.0
C546 C 0.05361 0.12432 0.26402 0.0
C547 C 0.03951 0.10833 0.29251 0.0
C548 C 0.0481 0.0888 0.32212 0.0
C549 C 0.0711 0.08519 0.32024 0.0
C550 C 0.0853 0.10142 0.29239 0.0
H551 H 0.0848 0.14033 0.0571 0.0
H552 H 0.08033 0.11729 0.11765 0.0
H553 H 0.06023 0.13917 0.11124 0.0
H554 H 0.04659 0.13957 0.24361 0.0
H555 H 0.02187 0.11144 0.29267 0.0
H556 H 0.28795 0.98652 0.27059 0.0
H557 H 0.30664 0.96339 0.35887 0.0
H558 H 0.25445 0.91485 0.34361 0.0
H559 H 0.2353 0.93835 0.25407 0.0
H560 H 0.28337 0.94004 0.50184 0.0
H561 H 0.32228 0.88812 0.2901 0.0
H562 H 0.31447 0.91558 0.26237 0.0
H563 H 0.29344 0.89605 0.28781 0.0
C564 C 0.2804 0.97094 0.28593 0.0
C565 C 0.26042 0.964 0.25485 0.0
C566 C 0.29097 0.95785 0.33675 0.0
C567 C 0.28185 0.93751 0.35751 0.0
C568 C 0.2616 0.93059 0.32818 0.0
H569 H 0.41012 0.90495 0.51009 0.0
H570 H 0.37157 0.89184 0.50267 0.0
C571 C 0.25079 0.94393 0.27726 0.0
C572 C 0.29513 0.9236 0.40614 0.0
H573 H 0.3457 0.89983 0.38831 0.0
C574 C 0.29652 0.93014 0.47859 0.0
C575 C 0.31192 0.9102 0.37649 0.0
C576 C 0.31047 0.90186 0.29999 0.0
C577 C 0.31614 0.92707 0.51759 0.0
C578 C 0.33466 0.9178 0.48217 0.0
C579 C 0.33169 0.90747 0.41499 0.0
C580 C 0.35741 0.92471 0.50154 0.0
C581 C 0.31769 0.93611 0.59323 0.0
C582 C 0.3622 0.94745 0.5032 0.0
C583 C 0.38396 0.95486 0.50637 0.0
C584 C 0.40149 0.93972 0.50754 0.0
C585 C 0.39681 0.91692 0.50905 0.0
C586 C 0.37487 0.90945 0.50526 0.0
H587 H 0.30204 0.93298 0.62293 0.0
H588 H 0.33165 0.92864 0.62352 0.0
H589 H 0.32009 0.95431 0.591 0.0
H590 H 0.34915 0.95961 0.49797 0.0
H591 H 0.38711 0.97252 0.50622 0.0
H592 H 0.44139 0.24686 0.30305 0.0
H593 H 0.4266 0.27671 0.37574 0.0
H594 H 0.40864 0.31186 0.18173 0.0
H595 H 0.42034 0.28075 0.10972 0.0
H596 H 0.45109 0.30808 0.37098 0.0
H597 H 0.37172 0.34601 0.3087 0.0
H598 H 0.37703 0.31757 0.28442 0.0
H599 H 0.38344 0.33986 0.22258 0.0
C600 C 0.43288 0.26018 0.27575 0.0
C601 C 0.43326 0.26199 0.20007 0.0
C602 C 0.42453 0.27748 0.31773 0.0
C603 C 0.41736 0.29716 0.28472 0.0
C604 C 0.41411 0.29715 0.20962 0.0
H605 H 0.49195 0.40947 0.29689 0.0
H606 H 0.47023 0.37576 0.27801 0.0
C607 C 0.4214 0.27939 0.16789 0.0
C608 C 0.42024 0.31872 0.32284 0.0
H609 H 0.4043 0.37288 0.3125 0.0
C610 C 0.44024 0.32196 0.36032 0.0
C611 C 0.40627 0.33719 0.31091 0.0
C612 C 0.38332 0.33479 0.28012 0.0
C613 C 0.44774 0.34312 0.37821 0.0
C614 C 0.43533 0.36167 0.35617 0.0
C615 C 0.4142 0.35857 0.32657 0.0
C616 C 0.44537 0.38395 0.35769 0.0
C617 C 0.46964 0.34548 0.41673 0.0
C618 C 0.43782 0.40016 0.40579 0.0
C619 C 0.45013 0.41953 0.41612 0.0
C620 C 0.47013 0.42278 0.37865 0.0
C621 C 0.47673 0.40722 0.32685 0.0
C622 C 0.46434 0.38803 0.31607 0.0
H623 H 0.47348 0.33052 0.44917 0.0
H624 H 0.483 0.34756 0.37625 0.0
H625 H 0.46972 0.36014 0.45294 0.0
H626 H 0.42321 0.39725 0.43827 0.0
H627 H 0.4448 0.43125 0.45677 0.0
H628 H 0.27691 0.59218 0.24049 0.0
H629 H 0.25401 0.61668 0.31662 0.0
H630 H 0.20076 0.56914 0.30683 0.0
H631 H 0.22318 0.545 0.23186 0.0
H632 H 0.19025 0.61578 0.26979 0.0
H633 H 0.23313 0.60452 0.53306 0.0
H634 H 0.2482 0.61119 0.45181 0.0
H635 H 0.23667 0.58406 0.46304 0.0
C636 C 0.26032 0.58707 0.25504 0.0
C637 C 0.25164 0.5669 0.22948 0.0
C638 C 0.24733 0.60101 0.29829 0.0
C639 C 0.2257 0.59472 0.31671 0.0
C640 C 0.21734 0.57439 0.2924 0.0
H641 H 0.12906 0.56893 0.56593 0.0
H642 H 0.16476 0.58139 0.52189 0.0
C643 C 0.23012 0.56065 0.24935 0.0
C644 C 0.21098 0.60871 0.36084 0.0
H645 H 0.19503 0.61281 0.53646 0.0
C646 C 0.19142 0.61604 0.32821 0.0
C647 C 0.21291 0.60923 0.43665 0.0
C648 C 0.23384 0.60192 0.47376 0.0
C649 C 0.17247 0.62042 0.36929 0.0
C650 C 0.17354 0.61817 0.44541 0.0
C651 C 0.19416 0.61427 0.4782 0.0
C652 C 0.15327 0.61376 0.48827 0.0
C653 C 0.151 0.62456 0.32987 0.0
C654 C 0.13506 0.62819 0.48791 0.0
C655 C 0.11433 0.62076 0.51145 0.0
C656 C 0.11181 0.59913 0.53811 0.0
C657 C 0.13054 0.5857 0.54586 0.0
C658 C 0.15102 0.59288 0.52079 0.0
H659 H 0.15289 0.62346 0.27035 0.0
H660 H 0.13826 0.61235 0.34663 0.0
H661 H 0.14488 0.64138 0.34291 0.0
H662 H 0.13654 0.64463 0.46535 0.0
H663 H 0.10012 0.63151 0.50595 0.0
H664 H 0.06641 0.7458 0.09717 0.0
H665 H 0.08699 0.77178 0.0228 0.0
H666 H 0.10732 0.80723 0.21394 0.0
H667 H 0.08848 0.78021 0.28878 0.0
H668 H 0.07049 0.81009 0.02053 0.0
H669 H 0.15783 0.82277 0.09001 0.0
H670 H 0.14311 0.79804 0.11645 0.0
H671 H 0.14218 0.82261 0.17192 0.0
C672 C 0.0763 0.75833 0.12381 0.0
C673 C 0.07523 0.7613 0.19903 0.0
C674 C 0.08801 0.77332 0.08095 0.0
C675 C 0.09853 0.79172 0.11237 0.0
C676 C 0.09966 0.79313 0.18792 0.0
H677 H 0.09084 0.92667 0.07884 0.0
H678 H 0.10264 0.88884 0.10475 0.0
C679 C 0.08842 0.77785 0.23084 0.0
C680 C 0.10298 0.81178 0.06837 0.0
H681 H 0.13708 0.85679 0.05687 0.0
C682 C 0.08543 0.81989 0.02643 0.0
C683 C 0.12235 0.82476 0.07618 0.0
C684 C 0.14247 0.81639 0.11557 0.0
C685 C 0.08586 0.84125 0.99758 0.0
C686 C 0.10452 0.85486 0.01016 0.0
C687 C 0.12275 0.84633 0.04774 0.0
C688 C 0.1037 0.8787 0.99284 0.0
C689 C 0.06556 0.84968 0.95873 0.0
C690 C 0.1015 0.88577 0.92121 0.0
C691 C 0.09431 0.90723 0.90626 0.0
C692 C 0.08944 0.92201 0.96284 0.0
C693 C 0.09393 0.91552 0.03419 0.0
C694 C 0.10096 0.894 0.04905 0.0
H695 H 0.05137 0.83804 0.96271 0.0
H696 H 0.06038 0.86592 0.98108 0.0
H697 H 0.06946 0.85201 0.90074 0.0
H698 H 0.10369 0.87419 0.87713 0.0
H699 H 0.09099 0.91159 0.85067 0.0
H700 H 0.7618 0.06661 0.11456 0.0
H701 H 0.73474 0.09206 0.06558 0.0
H702 H 0.72486 0.12022 0.27729 0.0
H703 H 0.75158 0.09395 0.32711 0.0
H704 H 0.68898 0.10303 0.23315 0.0
H705 H 0.7187 0.15256 1.00574 0.0
H706 H 0.72838 0.12492 0.99237 0.0
H707 H 0.7376 0.14048 0.07011 0.0
C708 C 0.75469 0.07894 0.1501 0.0
C709 C 0.75853 0.07815 0.22472 0.0
C710 C 0.73925 0.0937 0.12186 0.0
C711 C 0.72767 0.1082 0.16757 0.0
C712 C 0.73354 0.10921 0.2409 0.0
H713 H 0.58794 0.12245 0.04615 0.0
H714 H 0.62209 0.13739 0.09884 0.0
C715 C 0.74876 0.09419 0.26938 0.0
C716 C 0.70622 0.11739 0.14273 0.0
H717 H 0.68095 0.13587 0.98968 0.0
C718 C 0.68721 0.11108 0.18121 0.0
C719 C 0.70378 0.12801 0.07523 0.0
C720 C 0.7233 0.13706 0.03414 0.0
C721 C 0.66614 0.11247 0.15026 0.0
C722 C 0.664 0.12072 0.07922 0.0
C723 C 0.68267 0.12931 0.04384 0.0
C724 C 0.64377 0.11623 0.03676 0.0
C725 C 0.64669 0.10291 0.19096 0.0
C726 C 0.64477 0.10029 0.98187 0.0
C727 C 0.62542 0.09175 0.95187 0.0
C728 C 0.60465 0.09903 0.9762 0.0
C729 C 0.60371 0.11623 0.02734 0.0
C730 C 0.62317 0.12486 0.05718 0.0
H731 H 0.65168 0.09512 0.2427 0.0
H732 H 0.6347 0.11627 0.20329 0.0
H733 H 0.63809 0.09028 0.1576 0.0
H734 H 0.66051 0.09332 0.96564 0.0
H735 H 0.62677 0.0784 0.91309 0.0
H736 H 0.48503 0.72273 0.16001 0.0
H737 H 0.4623 0.6999 0.0811 0.0
H738 H 0.4103 0.74867 0.08832 0.0
H739 H 0.43329 0.77182 0.16864 0.0
H740 H 0.39597 0.70505 0.11862 0.0
H741 H 0.44485 0.70592 0.86895 0.0
H742 H 0.46308 0.70236 0.94429 0.0
H743 H 0.44715 0.72746 0.93641 0.0
C744 C 0.46884 0.7287 0.14428 0.0
C745 C 0.46081 0.74891 0.17054 0.0
C746 C 0.45596 0.71579 0.09856 0.0
C747 C 0.43479 0.7228 0.0778 0.0
C748 C 0.42673 0.74316 0.10304 0.0
H749 H 0.41364 0.60351 0.84992 0.0
H750 H 0.4014 0.64159 0.8645 0.0
C751 C 0.43981 0.7563 0.14864 0.0
C752 C 0.42088 0.70735 0.03572 0.0
H753 H 0.42881 0.66964 0.90252 0.0
C754 C 0.40252 0.6977 0.06968 0.0
C755 C 0.4287 0.69832 0.9703 0.0
C756 C 0.44688 0.70928 0.92754 0.0
C757 C 0.39413 0.67727 0.04595 0.0
C758 C 0.40492 0.66613 0.9887 0.0
C759 C 0.42081 0.67765 0.94791 0.0
C760 C 0.40418 0.64165 0.98095 0.0
C761 C 0.37478 0.66724 0.08548 0.0
C762 C 0.40841 0.62841 0.04173 0.0
C763 C 0.41486 0.60642 0.03367 0.0
C764 C 0.41788 0.59733 0.96459 0.0
C765 C 0.41152 0.60989 0.90408 0.0
C766 C 0.4046 0.6318 0.91229 0.0
H767 H 0.36227 0.68017 0.09748 0.0
H768 H 0.36679 0.6538 0.05392 0.0
H769 H 0.38048 0.66054 0.138 0.0
H770 H 0.40875 0.6355 0.09535 0.0
H771 H 0.41905 0.59705 0.08153 0.0
H772 H 0.79809 0.49472 0.11934 0.0
H773 H 0.8155 0.47948 0.01211 0.0
H774 H 0.75494 0.44563 0.95651 0.0
H775 H 0.7375 0.46028 0.06624 0.0
H776 H 0.7899 0.41856 0.94392 0.0
H777 H 0.80979 0.49556 0.80252 0.0
H778 H 0.81844 0.49876 0.89432 0.0
H779 H 0.78951 0.49457 0.87412 0.0
C780 C 0.78846 0.48397 0.08459 0.0
C781 C 0.76647 0.47862 0.10142 0.0
C782 C 0.7983 0.47559 0.0225 0.0
C783 C 0.78632 0.46192 0.9752 0.0
C784 C 0.76434 0.45646 0.99167 0.0
H785 H 0.89862 0.44256 0.71435 0.0
H786 H 0.85839 0.44199 0.71467 0.0
C787 C 0.75443 0.46485 0.0542 0.0
C788 C 0.7979 0.45203 0.91278 0.0
H789 H 0.83887 0.4665 0.79699 0.0
C790 C 0.80013 0.42894 0.90972 0.0
C791 C 0.81033 0.46531 0.86498 0.0
C792 C 0.80662 0.48991 0.85862 0.0
C793 C 0.81703 0.4192 0.86874 0.0
C794 C 0.83244 0.43302 0.83294 0.0
C795 C 0.82772 0.45571 0.8264 0.0
C796 C 0.85554 0.42585 0.81857 0.0
C797 C 0.81896 0.39434 0.86805 0.0
C798 C 0.86749 0.41549 0.87415 0.0
C799 C 0.89052 0.41518 0.87302 0.0
C800 C 0.90217 0.42587 0.81754 0.0
C801 C 0.89025 0.43417 0.75817 0.0
C802 C 0.86714 0.43398 0.75844 0.0
H803 H 0.80236 0.38675 0.86073 0.0
H804 H 0.83004 0.3884 0.82439 0.0
H805 H 0.82536 0.38858 0.92092 0.0
H806 H 0.85926 0.4095 0.92215 0.0
H807 H 0.89918 0.40809 0.91861 0.0
H808 H 0.04953 0.2545 0.90026 0.0
H809 H 0.03747 0.22163 0.83369 0.0
H810 H 0.99016 0.20709 1.00114 0.0
H811 H 1.00215 0.24014 0.06747 0.0
H812 H 0.04435 0.18123 0.90336 0.0
H813 H 0.95691 0.18862 0.81504 0.0
H814 H 0.97403 0.21243 0.83472 0.0
H815 H 0.96221 0.19657 0.90697 0.0
C816 C 0.03567 0.245 0.92067 0.0
C817 C 0.02651 0.25007 0.98839 0.0
C818 C 0.02897 0.22605 0.88309 0.0
C819 C 0.01293 0.21181 0.91235 0.0
C820 C 1.0023 0.21796 0.97678 0.0
H821 H 0.00969 0.06879 0.86955 0.0
H822 H 0.01092 0.10709 0.91185 0.0
C823 C 0.00902 0.23698 0.01446 0.0
C824 C 0.01022 0.18907 0.88237 0.0
H825 H 0.97284 0.15257 0.81075 0.0
C826 C 0.02873 0.17505 0.88263 0.0
C827 C 0.98986 0.18095 0.85548 0.0
C828 C 0.96961 0.19543 0.85232 0.0
C829 C 0.02741 0.15313 0.85769 0.0
C830 C 1.00695 0.14481 0.83225 0.0
C831 C 0.98848 0.15891 0.83072 0.0
C832 C 1.00464 0.1215 0.8071 0.0
C833 C 0.04801 0.13907 0.85839 0.0
C834 C 1.00015 0.11679 0.73436 0.0
C835 C 0.99946 0.09484 0.70979 0.0
C836 C 1.00308 0.07711 0.75765 0.0
C837 C 1.00694 0.08193 0.83094 0.0
C838 C 1.0077 0.10387 0.85531 0.0
H839 H 0.06325 0.14927 0.86341 0.0
H840 H 0.04736 0.12765 0.9052 0.0
H841 H 0.04919 0.12894 0.80852 0.0
H842 H 0.9977 0.13013 0.69621 0.0
H843 H 0.99635 0.09181 0.65308 0.0
H844 H 0.26644 0.98357 0.96937 0.0
H845 H 0.30095 0.98998 0.90287 0.0
H846 H 0.31534 0.04594 0.03947 0.0
H847 H 0.28074 0.03955 0.10589 0.0
H848 H 0.32295 0.02924 0.83187 0.0
H849 H 0.36475 0.99812 0.07917 0.0
H850 H 0.33557 0.9941 0.06302 0.0
H851 H 0.34573 0.02067 0.09105 0.0
C852 C 0.27645 0.99788 0.98276 0.0
C853 C 0.27073 0.01135 0.04172 0.0
C854 C 0.29628 1.0014 0.94527 0.0
C855 C 0.31087 0.01826 0.96678 0.0
C856 C 0.30438 0.03277 0.02218 0.0
H857 H 0.45205 0.03598 0.88252 0.0
H858 H 0.41418 0.0388 0.92802 0.0
C859 C 0.28448 0.02931 0.05944 0.0
C860 C 0.33376 0.01897 0.93713 0.0
H861 H 0.38753 1.00811 0.98182 0.0
C862 C 0.33711 0.02473 0.8646 0.0
C863 C 0.35222 0.01299 0.97986 0.0
C864 C 0.34953 1.00595 0.05749 0.0
C865 C 0.35845 0.02493 0.83392 0.0
C866 C 0.37691 0.0186 0.8764 0.0
C867 C 0.37349 0.01299 0.94911 0.0
C868 C 0.39989 0.01737 0.84672 0.0
C869 C 0.36099 0.03236 0.75668 0.0
C870 C 0.4047 1.00416 0.78628 0.0
C871 C 0.42636 1.00263 0.75977 0.0
C872 C 0.44386 0.01401 0.79374 0.0
C873 C 0.43906 0.02697 0.8549 0.0
C874 C 0.41736 0.02863 0.88099 0.0
H875 H 0.34702 0.04308 0.7397 0.0
H876 H 0.3767 0.04158 0.74864 0.0
H877 H 0.36108 0.01763 0.7209 0.0
H878 H 0.39175 0.99473 0.76003 0.0
H879 H 0.4294 0.99231 0.713 0.0
H880 H 0.51726 0.27874 0.10522 0.0
H881 H 0.52667 0.31316 0.04171 0.0
H882 H 0.48098 0.29603 0.87205 0.0
H883 H 0.4715 0.26177 0.93565 0.0
H884 H 0.53956 0.32697 0.89086 0.0
H885 H 0.45523 0.35235 0.97673 0.0
H886 H 0.46918 0.32869 0.01468 0.0
H887 H 0.45677 0.32687 0.92686 0.0
C888 C 0.51017 0.28177 0.05246 0.0
C889 C 0.49395 0.2674 0.02467 0.0
C890 C 0.51535 0.30157 0.01659 0.0
C891 C 0.50427 0.30734 0.95267 0.0
C892 C 0.48962 0.292 0.92151 0.0
H893 H 0.51639 0.4262 0.6856 0.0
H894 H 0.51657 0.38825 0.73149 0.0
C895 C 0.48445 0.27226 0.95732 0.0
C896 C 0.50565 0.33035 0.92407 0.0
H897 H 0.47513 0.37757 0.90452 0.0
C898 C 0.52549 0.33804 0.89363 0.0
C899 C 0.4874 0.34494 0.92893 0.0
C900 C 0.46596 0.33796 0.96406 0.0
C901 C 0.5274 0.3598 0.86676 0.0
C902 C 0.50894 0.3742 0.86998 0.0
C903 C 0.48924 0.36655 0.90149 0.0
C904 C 0.50965 0.39738 0.8421 0.0
C905 C 0.5493 0.36734 0.8365 0.0
C906 C 0.50528 0.41525 0.8885 0.0
C907 C 0.50505 0.43701 0.86237 0.0
C908 C 0.50901 0.44146 0.78892 0.0
C909 C 0.51334 0.4235 0.7425 0.0
C910 C 0.51362 0.40173 0.76877 0.0
H911 H 0.56309 0.35652 0.85432 0.0
H912 H 0.54858 0.36679 0.7767 0.0
H913 H 0.553 0.38463 0.85301 0.0
H914 H 0.50203 0.41235 0.94519 0.0
H915 H 0.50163 0.45033 0.89984 0.0
H916 H 0.25542 0.54209 0.95118 0.0
H917 H 0.22237 0.53329 0.87992 0.0
H918 H 0.20873 0.47796 0.01955 0.0
H919 H 0.24186 0.48672 0.09072 0.0
H920 H 0.2011 0.49113 0.81239 0.0
H921 H 0.15911 0.5276 0.05182 0.0
H922 H 0.18819 0.53175 0.0342 0.0
H923 H 0.17857 0.50571 0.0685 0.0
C924 C 0.24604 0.52732 0.96408 0.0
C925 C 0.25136 0.51486 0.02567 0.0
C926 C 0.22705 0.52242 0.92378 0.0
C927 C 0.21297 0.50513 0.94493 0.0
C928 C 0.21938 0.49139 1.00235 0.0
H929 H 0.07291 0.48306 0.87243 0.0
H930 H 0.11123 0.48218 0.91343 0.0
C931 C 0.23845 0.49622 0.04245 0.0
C932 C 0.1902 0.50376 0.91485 0.0
H933 H 0.13646 0.51544 0.95688 0.0
C934 C 0.18692 0.49635 0.84387 0.0
C935 C 0.17176 0.51076 0.95591 0.0
C936 C 0.17443 0.51957 0.0317 0.0
C937 C 0.16556 0.49532 0.81335 0.0
C938 C 0.14709 0.50246 0.85439 0.0
C939 C 0.15052 0.50993 0.92533 0.0
C940 C 0.12398 0.50214 0.82588 0.0
C941 C 0.16297 0.48612 0.73815 0.0
C942 C 0.11817 0.51373 0.76289 0.0
C943 C 0.09616 0.51413 0.73884 0.0
C944 C 0.07942 0.50323 0.77794 0.0
C945 C 0.0853 0.49171 0.841 0.0
C946 C 0.10727 0.49116 0.86455 0.0
H947 H 0.17727 0.47561 0.7227 0.0
H948 H 0.1476 0.47614 0.73324 0.0
H949 H 0.16204 0.50001 0.6992 0.0
H950 H 0.13057 0.52285 0.733 0.0
H951 H 0.09223 0.52325 0.69026 0.0
H952 H 0.02915 0.75809 0.46927 0.0
H953 H 0.019 0.79072 0.54102 0.0
H954 H 0.98793 0.81942 0.35375 0.0
H955 H 0.99763 0.78667 0.28306 0.0
H956 H 0.0356 0.83052 0.51269 0.0
H957 H 0.94458 0.83775 0.50584 0.0
H958 H 0.95866 0.81245 0.4822 0.0
H959 H 0.95582 0.83436 0.41704 0.0
C960 C 0.01911 0.77087 0.44476 0.0
C961 C 0.01362 0.76963 0.37126 0.0
C962 C 0.01356 0.78966 0.48542 0.0
C963 C 1.00248 0.80758 0.45324 0.0
C964 C 0.99591 0.8057 0.38071 0.0
H965 H 0.98844 0.94771 0.51582 0.0
H966 H 0.98801 0.90916 0.47608 0.0
C967 C 1.00138 0.78691 0.34023 0.0
C968 C 1.00058 0.82925 0.49172 0.0
H969 H 0.96478 0.87138 0.53086 0.0
C970 C 0.02002 0.83925 0.51785 0.0
C971 C 0.98032 0.84083 0.49815 0.0
C972 C 0.95864 0.83068 0.47495 0.0
C973 C 0.01993 0.86071 0.5473 0.0
C974 C 0.99979 0.87253 0.55174 0.0
C975 C 0.98024 0.86238 0.52729 0.0
C976 C 0.99893 0.89583 0.57823 0.0
C977 C 0.04158 0.87095 0.57058 0.0
C978 C 1.00485 0.90123 0.64945 0.0
C979 C 1.00512 0.92335 0.67254 0.0
C980 C 0.99945 0.94057 0.62488 0.0
C981 C 0.99301 0.93499 0.55409 0.0
C982 C 0.99269 0.91289 0.5312 0.0
H983 H 0.05604 0.86156 0.54997 0.0
H984 H 0.04284 0.88832 0.55146 0.0
H985 H 0.04245 0.87111 0.63038 0.0
H986 H 0.00943 0.88833 0.68709 0.0
H987 H 0.01009 0.92694 0.72747 0.0
H988 H 0.7587 0.02864 0.4716 0.0
H989 H 0.72606 0.01884 0.5433 0.0
H990 H 0.69788 0.98585 0.35827 0.0
H991 H 0.73081 0.99516 0.28751 0.0
H992 H 0.68665 0.03527 0.51146 0.0
H993 H 0.67886 0.94409 0.51485 0.0
H994 H 0.70426 0.9579 0.49015 0.0
H995 H 0.68232 0.9547 0.42523 0.0
C996 C 0.74603 0.01828 0.44761 0.0
C997 C 0.74749 0.01214 0.37467 0.0
C998 C 0.72724 0.01291 0.48826 0.0
C999 C 0.70943 1.00146 0.45661 0.0
C1000 C 0.71151 0.99418 0.3848 0.0
H1001 H 0.56924 0.9891 0.53664 0.0
H1002 H 0.60712 0.98763 0.49074 0.0
C1003 C 0.7304 0.99941 0.3443 0.0
C1004 C 0.68772 1.0 0.49492 0.0
H1005 H 0.64587 0.96465 0.54217 0.0
C1006 C 0.67794 0.01975 0.51916 0.0
C1007 C 0.67613 0.97982 0.50451 0.0
C1008 C 0.68603 0.95791 0.48294 0.0
C1009 C 0.65677 0.01999 0.5506 0.0
C1010 C 0.64504 0.99988 0.55905 0.0
C1011 C 0.65486 0.98007 0.53572 0.0
C1012 C 0.62221 0.99934 0.58943 0.0
C1013 C 0.6468 0.0419 0.57213 0.0
C1014 C 0.61806 1.00601 0.66081 0.0
C1015 C 0.59636 1.00687 0.68741 0.0
C1016 C 0.57832 1.00107 0.64314 0.0
C1017 C 0.58264 0.9938 0.57229 0.0
C1018 C 0.60434 0.99287 0.54591 0.0
H1019 H 0.65588 0.05611 0.54823 0.0
H1020 H 0.6292 0.04283 0.55521 0.0
H1021 H 0.64742 0.04359 0.63172 0.0
H1022 H 0.63161 0.0108 0.69576 0.0
H1023 H 0.59372 0.01249 0.74224 0.0
H1024 H 0.53598 0.73818 0.33625 0.0
H1025 H 0.54228 0.70551 0.41227 0.0
H1026 H 0.483 0.72021 0.53194 0.0
H1027 H 0.47673 0.75282 0.45608 0.0
H1028 H 0.54153 0.69524 0.57792 0.0
H1029 H 0.47312 0.66022 0.41199 0.0
H1030 H 0.4886 0.68436 0.38448 0.0
H1031 H 0.46817 0.68657 0.45428 0.0
C1032 C 0.52502 0.73511 0.38137 0.0
C1033 C 0.50613 0.74829 0.39132 0.0
C1034 C 0.52848 0.7163 0.42431 0.0
C1035 C 0.51301 0.7103 0.4774 0.0
C1036 C 0.49516 0.72452 0.49138 0.0
H1037 H 0.50824 0.59198 0.75353 0.0
H1038 H 0.50924 0.63029 0.71001 0.0
C1039 C 0.49173 0.74331 0.44861 0.0
C1040 C 0.51361 0.6878 0.51014 0.0
H1041 H 0.488 0.63735 0.50221 0.0
C1042 C 0.52979 0.68259 0.56174 0.0
C1043 C 0.49846 0.67121 0.48824 0.0
C1044 C 0.48115 0.67567 0.43137 0.0
C1045 C 0.53108 0.66124 0.59235 0.0
C1046 C 0.51574 0.64473 0.5709 0.0
C1047 C 0.49967 0.65 0.51901 0.0
C1048 C 0.51645 0.62162 0.5992 0.0
C1049 C 0.54913 0.65634 0.64609 0.0
C1050 C 0.51997 0.6039 0.55153 0.0
C1051 C 0.51938 0.58202 0.57613 0.0
C1052 C 0.51505 0.57719 0.64913 0.0
C1053 C 0.51171 0.59499 0.69706 0.0
C1054 C 0.5124 0.61696 0.67233 0.0
H1055 H 0.56225 0.66924 0.6457 0.0
H1056 H 0.54191 0.65569 0.70107 0.0
H1057 H 0.5568 0.64002 0.63468 0.0
H1058 H 0.52303 0.60702 0.49484 0.0
H1059 H 0.522 0.56886 0.53736 0.0
H1060 H 0.77536 0.46386 0.37185 0.0
H1061 H 0.80731 0.46463 0.45289 0.0
H1062 H 0.80899 0.53584 0.43918 0.0
H1063 H 0.7767 0.53504 0.35878 0.0
H1064 H 0.84664 0.47971 0.40416 0.0
H1065 H 0.82386 0.52575 0.6518 0.0
H1066 H 0.80347 0.51422 0.59112 0.0
H1067 H 0.81683 0.54002 0.57002 0.0
C1068 C 0.78197 0.47971 0.38874 0.0
C1069 C 0.77341 0.4994 0.3598 0.0
C1070 C 0.80035 0.48015 0.43458 0.0
C1071 C 0.81064 0.50028 0.45245 0.0
C1072 C 0.80117 0.52011 0.42747 0.0
H1073 H 0.9502 0.52109 0.52333 0.0
H1074 H 0.91204 0.51952 0.48025 0.0
C1075 C 0.78265 0.51968 0.38168 0.0
C1076 C 0.83282 0.50019 0.48795 0.0
H1077 H 0.86263 0.52084 0.62997 0.0
C1078 C 0.85003 0.48857 0.45391 0.0
C1079 C 0.83732 0.51156 0.55318 0.0
C1080 C 0.81936 0.52343 0.59415 0.0
C1081 C 0.87161 0.48846 0.48201 0.0
C1082 C 0.87636 0.50063 0.54541 0.0
C1083 C 0.85906 0.51172 0.5809 0.0
C1084 C 0.89934 0.50242 0.57401 0.0
C1085 C 0.88917 0.47523 0.44353 0.0
C1086 C 0.90489 0.49377 0.64196 0.0
C1087 C 0.9268 0.49466 0.66696 0.0
C1088 C 0.94357 0.50437 0.62463 0.0
C1089 C 0.93781 0.51337 0.55723 0.0
C1090 C 0.91596 0.51245 0.53238 0.0
H1091 H 0.88183 0.46234 0.40804 0.0
H1092 H 0.89917 0.48649 0.40926 0.0
H1093 H 0.90044 0.4671 0.48264 0.0
H1094 H 0.89235 0.48596 0.67508 0.0
H1095 H 0.93061 0.48755 0.71912 0.0
loop_
_geom_bond_atom_site_label_1
_geom_bond_atom_site_label_2
_geom_bond_distance
_geom_bond_site_symmetry_2
_ccdc_geom_bond_type
H0 C3 0.931 . S
H1 C6 0.928 . S
H2 C8 0.930 . S
C3 H0 0.931 . S
C3 C4 1.413 . S
C3 C5 1.360 . S
C4 C3 1.413 . S
C4 C8 1.429 . S
C5 C3 1.360 . S
C5 C6 1.372 . S
C6 H1 0.928 . S
C6 C5 1.372 . S
C6 C7 1.404 . S
C7 C6 1.404 . S
C7 C8 1.391 . S
C8 H2 0.930 . S
C8 C4 1.429 . S
C8 C7 1.391 . S
H9 C12 0.931 . S
H10 C15 0.928 . S
H11 C17 0.930 . S
C12 H9 0.931 . S
C12 C13 1.413 . S
C12 C14 1.360 . S
C13 C12 1.413 . S
C13 C17 1.429 . S
C14 C12 1.360 . S
C14 C15 1.372 . S
C15 H10 0.928 . S
C15 C14 1.372 . S
C15 C16 1.404 . S
C16 C15 1.404 . S
C16 C17 1.391 . S
C17 H11 0.930 . S
C17 C13 1.429 . S
C17 C16 1.391 . S
H18 C21 0.931 . S
H19 C24 0.928 . S
H20 C26 0.930 . S
C21 H18 0.931 . S
C21 C22 1.413 . S
C21 C23 1.360 . S
C22 C21 1.413 . S
C22 C26 1.429 . S
C23 C21 1.360 . S
C23 C24 1.372 . S
C24 H19 0.928 . S
C24 C23 1.372 . S
C24 C25 1.404 . S
C25 C24 1.404 . S
C25 C26 1.391 . S
C26 H20 0.930 . S
C26 C22 1.429 . S
C26 C25 1.391 . S
H27 C30 0.931 . S
H28 C33 0.928 . S
H29 C35 0.930 . S
C30 H27 0.931 . S
C30 C31 1.413 . S
C30 C32 1.360 . S
C31 C30 1.413 . S
C31 C35 1.429 . S
C32 C30 1.360 . S
C32 C33 1.372 . S
C33 H28 0.928 . S
C33 C32 1.372 . S
C33 C34 1.404 . S
C34 C33 1.404 . S
C34 C35 1.391 . S
C35 H29 0.930 . S
C35 C31 1.429 . S
C35 C34 1.391 . S
H36 C39 0.931 . S
H37 C42 0.928 . S
H38 C44 0.930 . S
C39 H36 0.931 . S
C39 C40 1.413 1_554 S
C39 C41 1.360 . S
C40 C39 1.413 1_556 S
C40 C44 1.429 . S
C41 C39 1.360 . S
C41 C42 1.372 . S
C42 H37 0.928 . S
C42 C41 1.372 . S
C42 C43 1.404 . S
C43 C42 1.404 . S
C43 C44 1.391 1_554 S
C44 H38 0.930 . S
C44 C40 1.429 . S
C44 C43 1.391 1_556 S
H45 C48 0.931 . S
H46 C51 0.929 . S
H47 C53 0.930 . S
C48 H45 0.931 . S
C48 C49 1.413 1_554 S
C48 C50 1.360 . S
C49 C48 1.413 1_556 S
C49 C53 1.429 . S
C50 C48 1.360 . S
C50 C51 1.372 . S
C51 H46 0.929 . S
C51 C50 1.372 . S
C51 C52 1.404 . S
C52 C51 1.404 . S
C52 C53 1.391 1_554 S
C53 H47 0.930 . S
C53 C49 1.429 . S
C53 C52 1.391 1_556 S
H54 C57 0.931 . S
H55 C60 0.928 . S
H56 C62 0.930 . S
C57 H54 0.931 . S
C57 C58 1.413 1_554 S
C57 C59 1.360 . S
C58 C57 1.413 1_556 S
C58 C62 1.429 . S
C59 C57 1.360 . S
C59 C60 1.372 . S
C60 H55 0.928 . S
C60 C59 1.372 . S
C60 C61 1.404 . S
C61 C60 1.404 . S
C61 C62 1.391 1_554 S
C62 H56 0.930 . S
C62 C58 1.429 . S
C62 C61 1.391 1_556 S
H63 C66 0.931 . S
H64 C69 0.928 . S
H65 C71 0.930 . S
C66 H63 0.931 . S
C66 C67 1.413 . S
C66 C68 1.360 1_554 S
C67 C66 1.413 . S
C67 C71 1.429 . S
C68 C66 1.360 1_556 S
C68 C69 1.372 . S
C69 H64 0.928 . S
C69 C68 1.372 . S
C69 C70 1.404 1_556 S
C70 C69 1.404 1_554 S
C70 C71 1.391 . S
C71 H65 0.930 . S
C71 C67 1.429 . S
C71 C70 1.391 . S
Gd72 C75 2.818 . S
Gd72 O92 2.377 . S
Gd72 O94 2.448 . S
Gd72 O95 2.506 . S
Gd72 O96 2.435 . S
Gd72 O97 2.717 1_565 S
Gd72 O99 2.395 1_565 S
Gd72 O103 2.327 1_455 S
Gd73 C84 2.818 . S
Gd73 O93 2.395 1_545 S
Gd73 O97 2.327 1_655 S
Gd73 O98 2.377 . S
Gd73 O100 2.448 . S
Gd73 O101 2.506 . S
Gd73 O102 2.435 . S
Gd73 O103 2.717 1_545 S
C74 O92 1.240 1_655 S
C74 O93 1.240 . S
C75 Gd72 2.818 . S
C75 C76 1.510 . S
C75 O94 1.249 . S
C75 O95 1.252 . S
C76 C75 1.510 . S
C76 C77 1.404 . S
C76 C78 1.352 . S
C77 C76 1.404 . S
C77 C81 1.389 . S
C77 H104 0.930 . S
C78 C76 1.352 . S
C78 C80 1.374 . S
C78 H105 0.931 1_455 S
C79 C80 1.359 . S
C79 C81 1.364 . S
C80 C78 1.374 . S
C80 C79 1.359 . S
C80 H106 0.931 1_455 S
C81 C77 1.389 . S
C81 C79 1.364 . S
C81 H107 0.931 . S
C82 O96 1.256 1_545 S
C82 O97 1.257 . S
C83 O98 1.240 1_455 S
C83 O99 1.240 . S
C84 Gd73 2.818 . S
C84 C85 1.510 . S
C84 O100 1.249 . S
C84 O101 1.252 . S
C85 C84 1.510 . S
C85 C86 1.404 . S
C85 C87 1.352 . S
C86 C85 1.404 . S
C86 C90 1.389 . S
C86 H108 0.930 . S
C87 C85 1.352 . S
C87 C89 1.374 . S
C87 H109 0.931 1_655 S
C88 C89 1.359 . S
C88 C90 1.364 . S
C89 C87 1.374 . S
C89 C88 1.359 . S
C89 H110 0.931 1_655 S
C90 C86 1.389 . S
C90 C88 1.364 . S
C90 H111 0.931 . S
C91 O102 1.256 . S
C91 O103 1.257 1_545 S
O92 Gd72 2.377 . S
O92 C74 1.240 1_455 S
O93 Gd73 2.395 1_565 S
O93 C74 1.240 . S
O94 Gd72 2.448 . S
O94 C75 1.249 . S
O95 Gd72 2.506 . S
O95 C75 1.252 . S
O96 Gd72 2.435 . S
O96 C82 1.256 1_565 S
O97 Gd72 2.717 1_545 S
O97 Gd73 2.327 1_455 S
O97 C82 1.257 . S
O98 Gd73 2.377 . S
O98 C83 1.240 1_655 S
O99 Gd72 2.395 1_545 S
O99 C83 1.240 . S
O100 Gd73 2.448 . S
O100 C84 1.249 . S
O101 Gd73 2.506 . S
O101 C84 1.252 . S
O102 Gd73 2.435 . S
O102 C91 1.256 . S
O103 Gd72 2.327 1_655 S
O103 Gd73 2.717 1_565 S
O103 C91 1.257 1_565 S
H104 C77 0.930 . S
H105 C78 0.931 1_655 S
H106 C80 0.931 1_655 S
H107 C81 0.931 . S
H108 C86 0.930 . S
H109 C87 0.931 1_455 S
H110 C89 0.931 1_455 S
H111 C90 0.931 . S
Gd112 C115 2.818 . S
Gd112 O132 2.377 . S
Gd112 O134 2.448 . S
Gd112 O135 2.506 . S
Gd112 O136 2.435 . S
Gd112 O137 2.717 . S
Gd112 O139 2.395 . S
Gd112 O143 2.327 1_545 S
Gd113 C124 2.818 . S
Gd113 O133 2.395 . S
Gd113 O137 2.327 1_565 S
Gd113 O138 2.377 . S
Gd113 O140 2.448 . S
Gd113 O141 2.506 . S
Gd113 O142 2.435 . S
Gd113 O143 2.717 . S
C114 O132 1.240 1_565 S
C114 O133 1.240 . S
C115 Gd112 2.818 . S
C115 C116 1.510 . S
C115 O134 1.249 . S
C115 O135 1.252 . S
C116 C115 1.510 . S
C116 C117 1.404 . S
C116 C118 1.352 . S
C117 C116 1.404 . S
C117 C121 1.389 . S
C117 H144 0.930 . S
C118 C116 1.352 . S
C118 C120 1.374 . S
C118 H145 0.931 1_545 S
C119 C120 1.359 . S
C119 C121 1.364 . S
C120 C118 1.374 . S
C120 C119 1.359 . S
C120 H146 0.931 1_545 S
C121 C117 1.389 . S
C121 C119 1.364 . S
C121 H147 0.931 . S
C122 O136 1.256 . S
C122 O137 1.257 . S
C123 O138 1.240 1_545 S
C123 O139 1.240 . S
C124 Gd113 2.818 . S
C124 C125 1.510 . S
C124 O140 1.249 . S
C124 O141 1.252 . S
C125 C124 1.510 . S
C125 C126 1.404 . S
C125 C127 1.352 . S
C126 C125 1.404 . S
C126 C130 1.389 . S
C126 H148 0.930 . S
C127 C125 1.352 . S
C127 C129 1.374 . S
C127 H149 0.931 1_565 S
C128 C129 1.359 . S
C128 C130 1.364 . S
C129 C127 1.374 . S
C129 C128 1.359 . S
C129 H150 0.931 1_565 S
C130 C126 1.389 . S
C130 C128 1.364 . S
C130 H151 0.931 . S
C131 O142 1.256 . S
C131 O143 1.257 . S
O132 Gd112 2.377 . S
O132 C114 1.240 1_545 S
O133 Gd113 2.395 . S
O133 C114 1.240 . S
O134 Gd112 2.448 . S
O134 C115 1.249 . S
O135 Gd112 2.506 . S
O135 C115 1.252 . S
O136 Gd112 2.435 . S
O136 C122 1.256 . S
O137 Gd112 2.717 . S
O137 Gd113 2.327 1_545 S
O137 C122 1.257 . S
O138 Gd113 2.377 . S
O138 C123 1.240 1_565 S
O139 Gd112 2.395 . S
O139 C123 1.240 . S
O140 Gd113 2.448 . S
O140 C124 1.249 . S
O141 Gd113 2.506 . S
O141 C124 1.252 . S
O142 Gd113 2.435 . S
O142 C131 1.256 . S
O143 Gd112 2.327 1_565 S
O143 Gd113 2.717 . S
O143 C131 1.257 . S
H144 C117 0.930 . S
H145 C118 0.931 1_565 S
H146 C120 0.931 1_565 S
H147 C121 0.931 . S
H148 C126 0.930 . S
H149 C127 0.931 1_545 S
H150 C129 0.931 1_545 S
H151 C130 0.931 . S
Gd152 C155 2.818 . S
Gd152 O172 2.377 . S
Gd152 O174 2.448 . S
Gd152 O175 2.506 . S
Gd152 O176 2.435 . S
Gd152 O177 2.717 . S
Gd152 O179 2.395 . S
Gd152 O183 2.327 . S
Gd153 C164 2.818 . S
Gd153 O173 2.395 . S
Gd153 O177 2.327 . S
Gd153 O178 2.377 . S
Gd153 O180 2.448 . S
Gd153 O181 2.506 . S
Gd153 O182 2.435 . S
Gd153 O183 2.717 . S
C154 O172 1.240 . S
C154 O173 1.240 . S
C155 Gd152 2.818 . S
C155 C156 1.510 . S
C155 O174 1.249 . S
C155 O175 1.252 . S
C156 C155 1.510 . S
C156 C157 1.404 . S
C156 C158 1.352 . S
C157 C156 1.404 . S
C157 C161 1.389 . S
C157 H184 0.930 . S
C158 C156 1.352 . S
C158 C160 1.374 . S
C158 H185 0.931 . S
C159 C160 1.359 . S
C159 C161 1.364 . S
C160 C158 1.374 . S
C160 C159 1.359 . S
C160 H186 0.931 . S
C161 C157 1.389 . S
C161 C159 1.364 . S
C161 H187 0.931 . S
C162 O176 1.256 . S
C162 O177 1.257 . S
C163 O178 1.240 . S
C163 O179 1.240 . S
C164 Gd153 2.818 . S
C164 C165 1.510 . S
C164 O180 1.249 . S
C164 O181 1.252 . S
C165 C164 1.510 . S
C165 C166 1.404 . S
C165 C167 1.352 . S
C166 C165 1.404 . S
C166 C170 1.389 . S
C166 H188 0.930 . S
C167 C165 1.352 . S
C167 C169 1.374 . S
C167 H189 0.931 . S
C168 C169 1.359 . S
C168 C170 1.364 . S
C169 C167 1.374 . S
C169 C168 1.359 . S
C169 H190 0.931 . S
C170 C166 1.389 . S
C170 C168 1.364 . S
C170 H191 0.931 . S
C171 O182 1.256 . S
C171 O183 1.257 . S
O172 Gd152 2.377 . S
O172 C154 1.240 . S
O173 Gd153 2.395 . S
O173 C154 1.240 . S
O174 Gd152 2.448 . S
O174 C155 1.249 . S
O175 Gd152 2.506 . S
O175 C155 1.252 . S
O176 Gd152 2.435 . S
O176 C162 1.256 . S
O177 Gd152 2.717 . S
O177 Gd153 2.327 . S
O177 C162 1.257 . S
O178 Gd153 2.377 . S
O178 C163 1.240 . S
O179 Gd152 2.395 . S
O179 C163 1.240 . S
O180 Gd153 2.448 . S
O180 C164 1.249 . S
O181 Gd153 2.506 . S
O181 C164 1.252 . S
O182 Gd153 2.435 . S
O182 C171 1.256 . S
O183 Gd152 2.327 . S
O183 Gd153 2.717 . S
O183 C171 1.257 . S
H184 C157 0.930 . S
H185 C158 0.931 . S
H186 C160 0.931 . S
H187 C161 0.931 . S
H188 C166 0.930 . S
H189 C167 0.931 . S
H190 C169 0.931 . S
H191 C170 0.931 . S
Gd192 C195 2.818 . S
Gd192 O212 2.377 . S
Gd192 O214 2.448 . S
Gd192 O215 2.506 . S
Gd192 O216 2.435 . S
Gd192 O217 2.717 1_655 S
Gd192 O219 2.395 1_655 S
Gd192 O223 2.327 . S
Gd193 C204 2.818 . S
Gd193 O213 2.395 1_455 S
Gd193 O217 2.327 . S
Gd193 O218 2.377 . S
Gd193 O220 2.448 . S
Gd193 O221 2.506 . S
Gd193 O222 2.435 . S
Gd193 O223 2.717 1_455 S
C194 O212 1.240 . S
C194 O213 1.240 . S
C195 Gd192 2.818 . S
C195 C196 1.510 . S
C195 O214 1.249 . S
C195 O215 1.252 . S
C196 C195 1.510 . S
C196 C197 1.404 . S
C196 C198 1.352 . S
C197 C196 1.404 . S
C197 C201 1.389 . S
C197 H224 0.930 . S
C198 C196 1.352 . S
C198 C200 1.374 . S
C198 H225 0.931 . S
C199 C200 1.359 . S
C199 C201 1.364 . S
C200 C198 1.374 . S
C200 C199 1.359 . S
C200 H226 0.931 . S
C201 C197 1.389 . S
C201 C199 1.364 . S
C201 H227 0.931 . S
C202 O216 1.283 . S
C202 O217 1.244 1_655 S
C203 O218 1.240 . S
C203 O219 1.240 . S
C204 Gd193 2.818 . S
C204 C205 1.510 . S
C204 O220 1.249 . S
C204 O221 1.252 . S
C205 C204 1.510 . S
C205 C206 1.404 . S
C205 C207 1.352 . S
C206 C205 1.404 . S
C206 C210 1.389 . S
C206 H228 0.930 . S
C207 C205 1.352 . S
C207 C209 1.374 . S
C207 H229 0.931 . S
C208 C209 1.359 . S
C208 C210 1.364 . S
C209 C207 1.374 . S
C209 C208 1.359 . S
C209 H230 0.931 . S
C210 C206 1.389 . S
C210 C208 1.364 . S
C210 H231 0.931 . S
C211 O222 1.256 . S
C211 O223 1.257 1_455 S
O212 Gd192 2.377 . S
O212 C194 1.240 . S
O213 Gd193 2.395 1_655 S
O213 C194 1.240 . S
O214 Gd192 2.448 . S
O214 C195 1.249 . S
O215 Gd192 2.506 . S
O215 C195 1.252 . S
O216 Gd192 2.435 . S
O216 C202 1.283 . S
O217 Gd192 2.717 1_455 S
O217 Gd193 2.327 . S
O217 C202 1.244 1_455 S
O218 Gd193 2.377 . S
O218 C203 1.240 . S
O219 Gd192 2.395 1_455 S
O219 C203 1.240 . S
O220 Gd193 2.448 . S
O220 C204 1.249 . S
O221 Gd193 2.506 . S
O221 C204 1.252 . S
O222 Gd193 2.435 . S
O222 C211 1.256 . S
O223 Gd192 2.327 . S
O223 Gd193 2.717 1_655 S
O223 C211 1.257 1_655 S
H224 C197 0.930 . S
H225 C198 0.931 . S
H226 C200 0.931 . S
H227 C201 0.931 . S
H228 C206 0.930 . S
H229 C207 0.931 . S
H230 C209 0.931 . S
H231 C210 0.931 . S
H232 C240 0.929 . S
H233 C242 0.930 . S
H234 C244 0.930 . S
H235 C247 0.929 . S
H236 C250 0.930 . S
H237 C252 0.960 . S
H238 C252 0.960 . S
H239 C252 0.960 . S
C240 H232 0.929 . S
C240 C241 1.377 1_565 S
C240 C242 1.384 . S
C241 C240 1.377 1_545 S
C241 C247 1.390 . S
C242 H233 0.930 . S
C242 C240 1.384 . S
C242 C243 1.372 1_565 S
C243 C242 1.372 1_545 S
C243 C244 1.400 . S
C243 C248 1.490 . S
C244 H234 0.930 . S
C244 C243 1.400 . S
C244 C247 1.386 . S
H245 C261 0.930 . S
H246 C262 0.931 . S
C247 H235 0.929 . S
C247 C241 1.390 . S
C247 C244 1.386 . S
C248 C243 1.490 . S
C248 C250 1.395 1_545 S
C248 C251 1.403 . S
H249 C255 0.930 . S
C250 H236 0.930 . S
C250 C248 1.395 1_565 S
C250 C253 1.403 . S
C251 C248 1.403 . S
C251 C252 1.524 . S
C251 C255 1.400 . S
C252 H237 0.960 . S
C252 H238 0.960 . S
C252 H239 0.960 . S
C252 C251 1.524 . S
C253 C250 1.403 . S
C253 C254 1.392 1_565 S
C253 C257 1.495 . S
C254 C253 1.392 1_545 S
C254 C255 1.385 . S
C254 C256 1.478 . S
C255 H249 0.930 . S
C255 C251 1.400 . S
C255 C254 1.385 . S
C256 C254 1.478 . S
C256 C258 1.381 1_545 S
C256 C262 1.383 . S
C257 C253 1.495 . S
C257 H263 0.959 . S
C257 H264 0.961 1_565 S
C257 H265 0.960 . S
C258 C256 1.381 1_565 S
C258 C259 1.394 . S
C258 H266 0.930 . S
C259 C258 1.394 . S
C259 C260 1.383 1_565 S
C259 H267 0.929 . S
C260 C259 1.383 1_545 S
C260 C261 1.377 . S
C261 H245 0.930 . S
C261 C260 1.377 . S
C261 C262 1.379 . S
C262 H246 0.931 . S
C262 C256 1.383 . S
C262 C261 1.379 . S
H263 C257 0.959 . S
H264 C257 0.961 1_545 S
H265 C257 0.960 . S
H266 C258 0.930 . S
H267 C259 0.929 . S
H268 C276 0.929 . S
H269 C278 0.930 . S
H270 C280 0.930 . S
H271 C283 0.929 . S
H272 C286 0.930 . S
H273 C288 0.960 . S
H274 C288 0.960 . S
H275 C288 0.960 . S
C276 H268 0.929 . S
C276 C277 1.377 . S
C276 C278 1.384 . S
C277 C276 1.377 . S
C277 C283 1.390 . S
C278 H269 0.930 . S
C278 C276 1.384 . S
C278 C279 1.372 . S
C279 C278 1.372 . S
C279 C280 1.400 . S
C279 C284 1.490 . S
C280 H270 0.930 . S
C280 C279 1.400 . S
C280 C283 1.386 . S
H281 C297 0.930 . S
H282 C298 0.931 . S
C283 H271 0.929 . S
C283 C277 1.390 . S
C283 C280 1.386 . S
C284 C279 1.490 . S
C284 C286 1.395 . S
C284 C287 1.403 . S
H285 C291 0.930 . S
C286 H272 0.930 . S
C286 C284 1.395 . S
C286 C289 1.403 . S
C287 C284 1.403 . S
C287 C288 1.524 . S
C287 C291 1.400 . S
C288 H273 0.960 . S
C288 H274 0.960 . S
C288 H275 0.960 . S
C288 C287 1.524 . S
C289 C286 1.403 . S
C289 C290 1.392 . S
C289 C293 1.495 . S
C290 C289 1.392 . S
C290 C291 1.385 . S
C290 C292 1.478 . S
C291 H285 0.930 . S
C291 C287 1.400 . S
C291 C290 1.385 . S
C292 C290 1.478 . S
C292 C294 1.381 . S
C292 C298 1.383 . S
C293 C289 1.495 . S
C293 H299 0.959 . S
C293 H300 0.961 . S
C293 H301 0.960 . S
C294 C292 1.381 . S
C294 C295 1.394 . S
C294 H302 0.930 . S
C295 C294 1.394 . S
C295 C296 1.383 . S
C295 H303 0.929 . S
C296 C295 1.383 . S
C296 C297 1.377 . S
C297 H281 0.930 . S
C297 C296 1.377 . S
C297 C298 1.379 . S
C298 H282 0.931 . S
C298 C292 1.383 . S
C298 C297 1.379 . S
H299 C293 0.959 . S
H300 C293 0.961 . S
H301 C293 0.960 . S
H302 C294 0.930 . S
H303 C295 0.929 . S
H304 C312 0.929 . S
H305 C314 0.930 . S
H306 C316 0.930 . S
H307 C319 0.929 . S
H308 C322 0.930 . S
H309 C324 0.960 . S
H310 C324 0.960 . S
H311 C324 0.960 . S
C312 H304 0.929 . S
C312 C313 1.377 . S
C312 C314 1.384 . S
C313 C312 1.377 . S
C313 C319 1.390 . S
C314 H305 0.930 . S
C314 C312 1.384 . S
C314 C315 1.372 . S
C315 C314 1.372 . S
C315 C316 1.400 . S
C315 C320 1.490 . S
C316 H306 0.930 . S
C316 C315 1.400 . S
C316 C319 1.386 . S
H317 C333 0.930 . S
H318 C334 0.931 . S
C319 H307 0.929 . S
C319 C313 1.390 . S
C319 C316 1.386 . S
C320 C315 1.490 . S
C320 C322 1.395 . S
C320 C323 1.403 . S
H321 C327 0.930 . S
C322 H308 0.930 . S
C322 C320 1.395 . S
C322 C325 1.403 . S
C323 C320 1.403 . S
C323 C324 1.524 . S
C323 C327 1.400 . S
C324 H309 0.960 . S
C324 H310 0.960 . S
C324 H311 0.960 . S
C324 C323 1.524 . S
C325 C322 1.403 . S
C325 C326 1.392 . S
C325 C329 1.495 . S
C326 C325 1.392 . S
C326 C327 1.385 . S
C326 C328 1.478 . S
C327 H321 0.930 . S
C327 C323 1.400 . S
C327 C326 1.385 . S
C328 C326 1.478 . S
C328 C330 1.381 . S
C328 C334 1.383 . S
C329 C325 1.495 . S
C329 H335 0.959 . S
C329 H336 0.961 . S
C329 H337 0.960 . S
C330 C328 1.381 . S
C330 C331 1.394 . S
C330 H338 0.930 . S
C331 C330 1.394 . S
C331 C332 1.383 . S
C331 H339 0.929 . S
C332 C331 1.383 . S
C332 C333 1.377 . S
C333 H317 0.930 . S
C333 C332 1.377 . S
C333 C334 1.379 . S
C334 H318 0.931 . S
C334 C328 1.383 . S
C334 C333 1.379 . S
H335 C329 0.959 . S
H336 C329 0.961 . S
H337 C329 0.960 . S
H338 C330 0.930 . S
H339 C331 0.929 . S
H340 C348 0.929 . S
H341 C350 0.930 . S
H342 C352 0.930 . S
H343 C355 0.929 . S
H344 C358 0.930 . S
H345 C360 0.960 . S
H346 C360 0.960 . S
H347 C360 0.960 . S
C348 H340 0.929 . S
C348 C349 1.377 . S
C348 C350 1.384 . S
C349 C348 1.377 . S
C349 C355 1.390 1_455 S
C350 H341 0.930 . S
C350 C348 1.384 . S
C350 C351 1.372 . S
C351 C350 1.372 . S
C351 C352 1.400 1_455 S
C351 C356 1.490 . S
C352 H342 0.930 . S
C352 C351 1.400 1_655 S
C352 C355 1.386 . S
H353 C369 0.930 . S
H354 C370 0.931 . S
C355 H343 0.929 . S
C355 C349 1.390 1_655 S
C355 C352 1.386 . S
C356 C351 1.490 . S
C356 C358 1.395 . S
C356 C359 1.403 1_455 S
H357 C363 0.930 . S
C358 H344 0.930 . S
C358 C356 1.395 . S
C358 C361 1.403 . S
C359 C356 1.403 1_655 S
C359 C360 1.524 . S
C359 C363 1.400 . S
C360 H345 0.960 . S
C360 H346 0.960 . S
C360 H347 0.960 . S
C360 C359 1.524 . S
C361 C358 1.403 . S
C361 C362 1.392 . S
C361 C365 1.495 . S
C362 C361 1.392 . S
C362 C363 1.385 1_455 S
C362 C364 1.478 . S
C363 H357 0.930 . S
C363 C359 1.400 . S
C363 C362 1.385 1_655 S
C364 C362 1.478 . S
C364 C366 1.381 . S
C364 C370 1.383 1_455 S
C365 C361 1.495 . S
C365 H371 0.959 . S
C365 H372 0.961 . S
C365 H373 0.960 . S
C366 C364 1.381 . S
C366 C367 1.394 . S
C366 H374 0.930 . S
C367 C366 1.394 . S
C367 C368 1.383 . S
C367 H375 0.929 . S
C368 C367 1.383 . S
C368 C369 1.377 1_455 S
C369 H353 0.930 . S
C369 C368 1.377 1_655 S
C369 C370 1.379 . S
C370 H354 0.931 . S
C370 C364 1.383 1_655 S
C370 C369 1.379 . S
H371 C365 0.959 . S
H372 C365 0.961 . S
H373 C365 0.960 . S
H374 C366 0.930 . S
H375 C367 0.929 . S
H376 C384 0.929 . S
H377 C386 0.930 . S
H378 C388 0.930 . S
H379 C391 0.929 . S
H380 C394 0.930 . S
H381 C396 0.960 . S
H382 C396 0.960 1_565 S
H383 C396 0.960 . S
C384 H376 0.929 . S
C384 C385 1.377 . S
C384 C386 1.384 . S
C385 C384 1.377 . S
C385 C391 1.390 1_565 S
C386 H377 0.930 . S
C386 C384 1.384 . S
C386 C387 1.372 . S
C387 C386 1.372 . S
C387 C388 1.400 1_565 S
C387 C392 1.490 . S
C388 H378 0.930 . S
C388 C387 1.400 1_545 S
C388 C391 1.386 . S
H389 C405 0.930 . S
H390 C406 0.931 . S
C391 H379 0.929 . S
C391 C385 1.390 1_545 S
C391 C388 1.386 . S
C392 C387 1.490 . S
C392 C394 1.395 . S
C392 C395 1.405 . S
H393 C399 0.931 1_545 S
C394 H380 0.930 . S
C394 C392 1.395 . S
C394 C397 1.403 1_554 S
C395 C392 1.405 . S
C395 C396 1.522 1_565 S
C395 C399 1.400 . S
C396 H381 0.960 . S
C396 H382 0.960 1_545 S
C396 H383 0.960 . S
C396 C395 1.522 1_545 S
C397 C394 1.403 1_556 S
C397 C398 1.392 . S
C397 C401 1.495 . S
C398 C397 1.392 . S
C398 C399 1.384 1_556 S
C398 C400 1.478 . S
C399 H393 0.931 1_565 S
C399 C395 1.400 . S
C399 C398 1.384 1_554 S
C400 C398 1.478 . S
C400 C402 1.381 . S
C400 C406 1.383 1_565 S
C401 C397 1.495 . S
C401 H407 0.959 . S
C401 H408 0.961 1_565 S
C401 H409 0.960 . S
C402 C400 1.381 . S
C402 C403 1.394 . S
C402 H410 0.930 . S
C403 C402 1.394 . S
C403 C404 1.424 . S
C403 H411 0.929 . S
C404 C403 1.424 . S
C404 C405 1.338 1_565 S
C405 H389 0.930 . S
C405 C404 1.338 1_545 S
C405 C406 1.379 . S
C406 H390 0.931 . S
C406 C400 1.383 1_545 S
C406 C405 1.379 . S
H407 C401 0.959 . S
H408 C401 0.961 1_545 S
H409 C401 0.960 . S
H410 C402 0.930 . S
H411 C403 0.929 . S
H412 C420 0.929 . S
H413 C422 0.930 . S
H414 C424 0.930 . S
H415 C427 0.929 . S
H416 C430 0.930 . S
H417 C432 0.960 . S
H418 C432 0.960 . S
H419 C432 0.960 . S
C420 H412 0.929 . S
C420 C421 1.377 . S
C420 C422 1.384 . S
C421 C420 1.377 . S
C421 C427 1.390 . S
C422 H413 0.930 . S
C422 C420 1.384 . S
C422 C423 1.372 . S
C423 C422 1.372 . S
C423 C424 1.400 . S
C423 C428 1.490 . S
C424 H414 0.930 . S
C424 C423 1.400 . S
C424 C427 1.386 . S
H425 C441 0.930 . S
H426 C442 0.931 . S
C427 H415 0.929 . S
C427 C421 1.390 . S
C427 C424 1.386 . S
C428 C423 1.490 . S
C428 C430 1.395 . S
C428 C431 1.403 . S
H429 C435 0.930 . S
C430 H416 0.930 . S
C430 C428 1.395 . S
C430 C433 1.403 . S
C431 C428 1.403 . S
C431 C432 1.524 . S
C431 C435 1.400 . S
C432 H417 0.960 . S
C432 H418 0.960 . S
C432 H419 0.960 . S
C432 C431 1.524 . S
C433 C430 1.403 . S
C433 C434 1.392 1_554 S
C433 C437 1.495 1_554 S
C434 C433 1.392 1_556 S
C434 C435 1.385 1_556 S
C434 C436 1.478 . S
C435 H429 0.930 . S
C435 C431 1.400 . S
C435 C434 1.385 1_554 S
C436 C434 1.478 . S
C436 C438 1.381 . S
C436 C442 1.383 . S
C437 C433 1.495 1_556 S
C437 H443 0.959 . S
C437 H444 0.961 . S
C437 H445 0.960 . S
C438 C436 1.381 . S
C438 C439 1.394 . S
C438 H446 0.930 . S
C439 C438 1.394 . S
C439 C440 1.383 . S
C439 H447 0.929 . S
C440 C439 1.383 . S
C440 C441 1.377 . S
C441 H425 0.930 . S
C441 C440 1.377 . S
C441 C442 1.379 . S
C442 H426 0.931 . S
C442 C436 1.383 . S
C442 C441 1.379 . S
H443 C437 0.959 . S
H444 C437 0.961 . S
H445 C437 0.960 . S
H446 C438 0.930 . S
H447 C439 0.929 . S
H448 C456 0.929 . S
H449 C458 0.930 . S
H450 C460 0.930 . S
H451 C463 0.929 . S
H452 C466 0.930 . S
H453 C468 0.960 . S
H454 C468 0.960 . S
H455 C468 0.960 . S
C456 H448 0.929 . S
C456 C457 1.377 . S
C456 C458 1.384 . S
C457 C456 1.377 . S
C457 C463 1.390 . S
C458 H449 0.930 . S
C458 C456 1.384 . S
C458 C459 1.372 . S
C459 C458 1.372 . S
C459 C460 1.400 . S
C459 C464 1.490 . S
C460 H450 0.930 . S
C460 C459 1.400 . S
C460 C463 1.386 . S
H461 C477 0.930 . S
H462 C478 0.931 . S
C463 H451 0.929 . S
C463 C457 1.390 . S
C463 C460 1.386 . S
C464 C459 1.490 . S
C464 C466 1.395 . S
C464 C467 1.403 . S
H465 C471 0.930 . S
C466 H452 0.930 . S
C466 C464 1.395 . S
C466 C469 1.403 1_554 S
C467 C464 1.403 . S
C467 C468 1.524 . S
C467 C471 1.400 . S
C468 H453 0.960 . S
C468 H454 0.960 . S
C468 H455 0.960 . S
C468 C467 1.524 . S
C469 C466 1.403 1_556 S
C469 C470 1.392 . S
C469 C473 1.495 . S
C470 C469 1.392 . S
C470 C471 1.385 1_556 S
C470 C472 1.478 . S
C471 H465 0.930 . S
C471 C467 1.400 . S
C471 C470 1.385 1_554 S
C472 C470 1.478 . S
C472 C474 1.381 . S
C472 C478 1.383 . S
C473 C469 1.495 . S
C473 H479 0.959 . S
C473 H480 0.961 . S
C473 H481 0.960 . S
C474 C472 1.381 . S
C474 C475 1.394 . S
C474 H482 0.930 . S
C475 C474 1.394 . S
C475 C476 1.383 . S
C475 H483 0.929 . S
C476 C475 1.383 . S
C476 C477 1.377 . S
C477 H461 0.930 . S
C477 C476 1.377 . S
C477 C478 1.379 . S
C478 H462 0.931 . S
C478 C472 1.383 . S
C478 C477 1.379 . S
H479 C473 0.959 . S
H480 C473 0.961 . S
H481 C473 0.960 . S
H482 C474 0.930 . S
H483 C475 0.929 . S
H484 C492 0.929 . S
H485 C494 0.930 . S
H486 C496 0.930 . S
H487 C499 0.929 . S
H488 C502 0.929 1_455 S
H489 C504 0.960 1_556 S
H490 C504 0.960 1_455 S
H491 C504 0.960 . S
C492 H484 0.929 . S
C492 C493 1.377 1_455 S
C492 C494 1.384 . S
C493 C492 1.377 1_655 S
C493 C499 1.390 . S
C494 H485 0.930 . S
C494 C492 1.384 . S
C494 C495 1.372 1_455 S
C495 C494 1.372 1_655 S
C495 C496 1.400 . S
C495 C500 1.491 . S
C496 H486 0.930 . S
C496 C495 1.400 . S
C496 C499 1.386 . S
H497 C513 0.930 . S
H498 C514 0.931 . S
C499 H487 0.929 . S
C499 C493 1.390 . S
C499 C496 1.386 . S
C500 C495 1.491 . S
C500 C502 1.394 . S
C500 C503 1.405 . S
H501 C507 0.930 . S
C502 H488 0.929 1_655 S
C502 C500 1.394 . S
C502 C505 1.403 . S
C503 C500 1.405 . S
C503 C504 1.524 . S
C503 C507 1.400 1_554 S
C504 H489 0.960 1_554 S
C504 H490 0.960 1_655 S
C504 H491 0.960 . S
C504 C503 1.524 . S
C505 C502 1.403 . S
C505 C506 1.393 . S
C505 C509 1.495 1_655 S
C506 C505 1.393 . S
C506 C507 1.385 1_554 S
C506 C508 1.478 1_554 S
C507 H501 0.930 . S
C507 C503 1.400 1_556 S
C507 C506 1.385 1_556 S
C508 C506 1.478 1_556 S
C508 C510 1.381 1_655 S
C508 C514 1.383 . S
C509 C505 1.495 1_455 S
C509 H515 0.958 . S
C509 H516 0.956 1_455 S
C509 H517 0.965 . S
C510 C508 1.381 1_455 S
C510 C511 1.394 . S
C510 H518 0.930 . S
C511 C510 1.394 . S
C511 C512 1.383 1_455 S
C511 H519 0.929 . S
C512 C511 1.383 1_655 S
C512 C513 1.377 . S
C513 H497 0.930 . S
C513 C512 1.377 . S
C513 C514 1.379 . S
C514 H498 0.931 . S
C514 C508 1.383 . S
C514 C513 1.379 . S
H515 C509 0.958 . S
H516 C509 0.956 1_655 S
H517 C509 0.965 . S
H518 C510 0.930 . S
H519 C511 0.929 . S
H520 C528 0.929 . S
H521 C530 0.930 . S
H522 C532 0.930 . S
H523 C535 0.929 . S
H524 C538 0.930 . S
H525 C540 0.960 . S
H526 C540 0.960 . S
H527 C540 0.960 1_455 S
C528 H520 0.929 . S
C528 C529 1.377 1_655 S
C528 C530 1.384 . S
C529 C528 1.377 1_455 S
C529 C535 1.390 . S
C530 H521 0.930 . S
C530 C528 1.384 . S
C530 C531 1.372 . S
C531 C530 1.372 . S
C531 C532 1.400 1_655 S
C531 C536 1.490 . S
C532 H522 0.930 . S
C532 C531 1.400 1_455 S
C532 C535 1.386 . S
H533 C549 0.930 . S
H534 C550 0.931 1_455 S
C535 H523 0.929 . S
C535 C529 1.390 . S
C535 C532 1.386 . S
C536 C531 1.490 . S
C536 C538 1.395 . S
C536 C539 1.403 . S
H537 C543 0.930 . S
C538 H524 0.930 . S
C538 C536 1.395 . S
C538 C541 1.403 . S
C539 C536 1.403 . S
C539 C540 1.524 . S
C539 C543 1.400 . S
C540 H525 0.960 . S
C540 H526 0.960 . S
C540 H527 0.960 1_655 S
C540 C539 1.524 . S
C541 C538 1.403 . S
C541 C542 1.392 . S
C541 C545 1.495 . S
C542 C541 1.392 . S
C542 C543 1.385 . S
C542 C544 1.478 . S
C543 H537 0.930 . S
C543 C539 1.400 . S
C543 C542 1.385 . S
C544 C542 1.478 . S
C544 C546 1.381 . S
C544 C550 1.383 . S
C545 C541 1.495 . S
C545 H551 0.959 . S
C545 H552 0.961 . S
C545 H553 0.960 . S
C546 C544 1.381 . S
C546 C547 1.394 . S
C546 H554 0.930 . S
C547 C546 1.394 . S
C547 C548 1.383 . S
C547 H555 0.929 . S
C548 C547 1.383 . S
C548 C549 1.377 . S
C549 H533 0.930 . S
C549 C548 1.377 . S
C549 C550 1.379 . S
C550 H534 0.931 1_655 S
C550 C544 1.383 . S
C550 C549 1.379 . S
H551 C545 0.959 . S
H552 C545 0.961 . S
H553 C545 0.960 . S
H554 C546 0.930 . S
H555 C547 0.929 . S
H556 C564 0.929 . S
H557 C566 0.930 . S
H558 C568 0.930 . S
H559 C571 0.929 . S
H560 C574 0.930 . S
H561 C576 0.960 . S
H562 C576 0.960 . S
H563 C576 0.960 . S
C564 H556 0.929 . S
C564 C565 1.377 . S
C564 C566 1.384 . S
C565 C564 1.377 . S
C565 C571 1.390 1_545 S
C566 H557 0.930 . S
C566 C564 1.384 . S
C566 C567 1.372 1_545 S
C567 C566 1.372 1_565 S
C567 C568 1.400 . S
C567 C572 1.490 . S
C568 H558 0.930 . S
C568 C567 1.400 . S
C568 C571 1.386 . S
H569 C585 0.930 . S
H570 C586 0.931 . S
C571 H559 0.929 . S
C571 C565 1.390 1_565 S
C571 C568 1.386 . S
C572 C567 1.490 . S
C572 C574 1.395 . S
C572 C575 1.406 . S
H573 C579 0.930 . S
C574 H560 0.930 . S
C574 C572 1.395 . S
C574 C577 1.403 . S
C575 C572 1.406 . S
C575 C576 1.516 1_565 S
C575 C579 1.404 . S
C576 H561 0.960 . S
C576 H562 0.960 . S
C576 H563 0.960 . S
C576 C575 1.516 1_545 S
C577 C574 1.403 . S
C577 C578 1.392 . S
C577 C581 1.495 . S
C578 C577 1.392 . S
C578 C579 1.385 . S
C578 C580 1.478 . S
C579 H573 0.930 . S
C579 C575 1.404 . S
C579 C578 1.385 . S
C580 C578 1.478 . S
C580 C582 1.381 . S
C580 C586 1.383 . S
C581 C577 1.495 . S
C581 H587 0.959 . S
C581 H588 0.961 . S
C581 H589 0.960 . S
C582 C580 1.381 . S
C582 C583 1.394 . S
C582 H590 0.930 . S
C583 C582 1.394 . S
C583 C584 1.383 . S
C583 H591 0.929 . S
C584 C583 1.383 . S
C584 C585 1.377 . S
C585 H569 0.930 . S
C585 C584 1.377 . S
C585 C586 1.379 . S
C586 H570 0.931 . S
C586 C580 1.383 . S
C586 C585 1.379 . S
H587 C581 0.959 . S
H588 C581 0.961 . S
H589 C581 0.960 . S
H590 C582 0.930 . S
H591 C583 0.929 . S
H592 C600 0.929 . S
H593 C602 0.930 . S
H594 C604 0.930 . S
H595 C607 0.929 . S
H596 C610 0.930 . S
H597 C612 0.960 . S
H598 C612 0.960 . S
H599 C612 0.960 . S
C600 H592 0.929 . S
C600 C601 1.377 . S
C600 C602 1.384 . S
C601 C600 1.377 . S
C601 C607 1.390 . S
C602 H593 0.930 . S
C602 C600 1.384 . S
C602 C603 1.372 . S
C603 C602 1.372 . S
C603 C604 1.400 . S
C603 C608 1.490 . S
C604 H594 0.930 . S
C604 C603 1.400 . S
C604 C607 1.386 . S
H605 C621 0.930 . S
H606 C622 0.931 . S
C607 H595 0.929 . S
C607 C601 1.390 . S
C607 C604 1.386 . S
C608 C603 1.490 . S
C608 C610 1.395 . S
C608 C611 1.403 . S
H609 C615 0.930 . S
C610 H596 0.930 . S
C610 C608 1.395 . S
C610 C613 1.403 . S
C611 C608 1.403 . S
C611 C612 1.524 . S
C611 C615 1.400 . S
C612 H597 0.960 . S
C612 H598 0.960 . S
C612 H599 0.960 . S
C612 C611 1.524 . S
C613 C610 1.403 . S
C613 C614 1.392 . S
C613 C617 1.495 . S
C614 C613 1.392 . S
C614 C615 1.385 . S
C614 C616 1.478 . S
C615 H609 0.930 . S
C615 C611 1.400 . S
C615 C614 1.385 . S
C616 C614 1.478 . S
C616 C618 1.381 . S
C616 C622 1.383 . S
C617 C613 1.495 . S
C617 H623 0.959 . S
C617 H624 0.961 . S
C617 H625 0.960 . S
C618 C616 1.381 . S
C618 C619 1.394 . S
C618 H626 0.930 . S
C619 C618 1.394 . S
C619 C620 1.383 . S
C619 H627 0.929 . S
C620 C619 1.383 . S
C620 C621 1.377 . S
C621 H605 0.930 . S
C621 C620 1.377 . S
C621 C622 1.379 . S
C622 H606 0.931 . S
C622 C616 1.383 . S
C622 C621 1.379 . S
H623 C617 0.959 . S
H624 C617 0.961 . S
H625 C617 0.960 . S
H626 C618 0.930 . S
H627 C619 0.929 . S
H628 C636 0.929 . S
H629 C638 0.930 . S
H630 C640 0.930 . S
H631 C643 0.929 . S
H632 C646 0.930 . S
H633 C648 0.960 . S
H634 C648 0.960 . S
H635 C648 0.960 . S
C636 H628 0.929 . S
C636 C637 1.377 . S
C636 C638 1.384 . S
C637 C636 1.377 . S
C637 C643 1.390 . S
C638 H629 0.930 . S
C638 C636 1.384 . S
C638 C639 1.372 . S
C639 C638 1.372 . S
C639 C640 1.400 . S
C639 C644 1.490 . S
C640 H630 0.930 . S
C640 C639 1.400 . S
C640 C643 1.386 . S
H641 C657 0.930 . S
H642 C658 0.931 . S
C643 H631 0.929 . S
C643 C637 1.390 . S
C643 C640 1.386 . S
C644 C639 1.490 . S
C644 C646 1.395 . S
C644 C647 1.403 . S
H645 C651 0.930 . S
C646 H632 0.930 . S
C646 C644 1.395 . S
C646 C649 1.403 . S
C647 C644 1.403 . S
C647 C648 1.524 . S
C647 C651 1.400 . S
C648 H633 0.960 . S
C648 H634 0.960 . S
C648 H635 0.960 . S
C648 C647 1.524 . S
C649 C646 1.403 . S
C649 C650 1.392 . S
C649 C653 1.495 . S
C650 C649 1.392 . S
C650 C651 1.385 . S
C650 C652 1.478 . S
C651 H645 0.930 . S
C651 C647 1.400 . S
C651 C650 1.385 . S
C652 C650 1.478 . S
C652 C654 1.381 . S
C652 C658 1.383 . S
C653 C649 1.495 . S
C653 H659 0.959 . S
C653 H660 0.961 . S
C653 H661 0.960 . S
C654 C652 1.381 . S
C654 C655 1.394 . S
C654 H662 0.930 . S
C655 C654 1.394 . S
C655 C656 1.383 . S
C655 H663 0.929 . S
C656 C655 1.383 . S
C656 C657 1.377 . S
C657 H641 0.930 . S
C657 C656 1.377 . S
C657 C658 1.379 . S
C658 H642 0.931 . S
C658 C652 1.383 . S
C658 C657 1.379 . S
H659 C653 0.959 . S
H660 C653 0.961 . S
H661 C653 0.960 . S
H662 C654 0.930 . S
H663 C655 0.929 . S
H664 C672 0.929 . S
H665 C674 0.930 . S
H666 C676 0.930 . S
H667 C679 0.929 . S
H668 C682 0.939 . S
H669 C684 0.960 . S
H670 C684 0.960 . S
H671 C684 0.960 . S
C672 H664 0.929 . S
C672 C673 1.377 . S
C672 C674 1.384 . S
C673 C672 1.377 . S
C673 C679 1.390 1_655 S
C674 H665 0.930 . S
C674 C672 1.384 . S
C674 C675 1.372 1_655 S
C675 C674 1.372 1_455 S
C675 C676 1.400 . S
C675 C680 1.490 . S
C676 H666 0.930 . S
C676 C675 1.400 . S
C676 C679 1.386 . S
H677 C693 0.930 . S
H678 C694 0.931 . S
C679 H667 0.929 . S
C679 C673 1.390 1_455 S
C679 C676 1.386 . S
C680 C675 1.490 . S
C680 C682 1.389 1_455 S
C680 C683 1.403 . S
H681 C687 0.930 . S
C682 H668 0.939 . S
C682 C680 1.389 1_655 S
C682 C685 1.401 1_655 S
C683 C680 1.403 . S
C683 C684 1.524 . S
C683 C687 1.400 . S
C684 H669 0.960 . S
C684 H670 0.960 . S
C684 H671 0.960 . S
C684 C683 1.524 . S
C685 C682 1.401 1_455 S
C685 C686 1.392 . S
C685 C689 1.495 1_455 S
C686 C685 1.392 . S
C686 C687 1.385 . S
C686 C688 1.478 . S
C687 H681 0.930 . S
C687 C683 1.400 . S
C687 C686 1.385 . S
C688 C686 1.478 . S
C688 C690 1.381 1_554 S
C688 C694 1.383 . S
C689 C685 1.495 1_655 S
C689 H695 0.959 . S
C689 H696 0.961 1_655 S
C689 H697 0.960 . S
C690 C688 1.381 1_556 S
C690 C691 1.394 . S
C690 H698 0.930 1_455 S
C691 C690 1.394 . S
C691 C692 1.383 . S
C691 H699 0.957 . S
C692 C691 1.383 . S
C692 C693 1.377 . S
C693 H677 0.930 . S
C693 C692 1.377 . S
C693 C694 1.379 1_556 S
C694 H678 0.931 . S
C694 C688 1.383 . S
C694 C693 1.379 1_554 S
H695 C689 0.959 . S
H696 C689 0.961 1_455 S
H697 C689 0.960 . S
H698 C690 0.930 1_655 S
H699 C691 0.957 . S
H700 C708 0.929 . S
H701 C710 0.930 . S
H702 C712 0.930 . S
H703 C715 0.929 . S
H704 C718 0.930 1_565 S
H705 C720 0.960 . S
H706 C720 0.960 . S
H707 C720 0.960 . S
C708 H700 0.929 . S
C708 C709 1.377 . S
C708 C710 1.384 . S
C709 C708 1.377 . S
C709 C715 1.390 1_565 S
C710 H701 0.930 . S
C710 C708 1.384 . S
C710 C711 1.372 1_565 S
C711 C710 1.372 1_545 S
C711 C712 1.400 . S
C711 C716 1.490 . S
C712 H702 0.930 . S
C712 C711 1.400 . S
C712 C715 1.386 . S
H713 C729 0.930 . S
H714 C730 0.931 . S
C715 H703 0.929 . S
C715 C709 1.390 1_545 S
C715 C712 1.386 . S
C716 C711 1.490 . S
C716 C718 1.395 . S
C716 C719 1.403 . S
H717 C723 0.930 . S
C718 H704 0.930 1_545 S
C718 C716 1.395 . S
C718 C721 1.403 . S
C719 C716 1.403 . S
C719 C720 1.524 . S
C719 C723 1.400 . S
C720 H705 0.960 . S
C720 H706 0.960 . S
C720 H707 0.960 . S
C720 C719 1.524 . S
C721 C718 1.403 . S
C721 C722 1.392 . S
C721 C725 1.488 1_545 S
C722 C721 1.392 . S
C722 C723 1.385 . S
C722 C724 1.478 . S
C723 H717 0.930 . S
C723 C719 1.400 . S
C723 C722 1.385 . S
C724 C722 1.478 . S
C724 C726 1.381 1_554 S
C724 C730 1.383 . S
C725 C721 1.488 1_565 S
C725 H731 0.972 . S
C725 H732 0.940 1_565 S
C725 H733 0.977 . S
C726 C724 1.381 1_556 S
C726 C727 1.394 . S
C726 H734 0.930 1_546 S
C727 C726 1.394 . S
C727 C728 1.383 . S
C727 H735 0.929 . S
C728 C727 1.383 . S
C728 C729 1.377 . S
C729 H713 0.930 . S
C729 C728 1.377 . S
C729 C730 1.379 1_556 S
C730 H714 0.931 . S
C730 C724 1.383 . S
C730 C729 1.379 1_554 S
H731 C725 0.972 . S
H732 C725 0.940 1_545 S
H733 C725 0.977 . S
H734 C726 0.930 1_564 S
H735 C727 0.929 . S
H736 C744 0.929 . S
H737 C746 0.930 . S
H738 C748 0.930 . S
H739 C751 0.929 . S
H740 C754 0.930 . S
H741 C756 0.960 . S
H742 C756 0.960 . S
H743 C756 0.960 . S
C744 H736 0.929 . S
C744 C745 1.377 . S
C744 C746 1.384 . S
C745 C744 1.377 . S
C745 C751 1.390 . S
C746 H737 0.930 . S
C746 C744 1.384 . S
C746 C747 1.372 . S
C747 C746 1.372 . S
C747 C748 1.400 . S
C747 C752 1.490 . S
C748 H738 0.930 . S
C748 C747 1.400 . S
C748 C751 1.386 . S
H749 C765 0.930 . S
H750 C766 0.931 . S
C751 H739 0.929 . S
C751 C745 1.390 . S
C751 C748 1.386 . S
C752 C747 1.490 . S
C752 C754 1.395 . S
C752 C755 1.403 . S
H753 C759 0.930 . S
C754 H740 0.930 . S
C754 C752 1.395 . S
C754 C757 1.403 . S
C755 C752 1.403 . S
C755 C756 1.524 . S
C755 C759 1.400 . S
C756 H741 0.960 . S
C756 H742 0.960 . S
C756 H743 0.960 . S
C756 C755 1.524 . S
C757 C754 1.403 . S
C757 C758 1.392 . S
C757 C761 1.495 . S
C758 C757 1.392 . S
C758 C759 1.385 . S
C758 C760 1.478 . S
C759 H753 0.930 . S
C759 C755 1.400 . S
C759 C758 1.385 . S
C760 C758 1.478 . S
C760 C762 1.381 . S
C760 C766 1.383 1_554 S
C761 C757 1.495 . S
C761 H767 0.959 . S
C761 H768 0.961 . S
C761 H769 0.960 . S
C762 C760 1.381 . S
C762 C763 1.394 . S
C762 H770 0.930 . S
C763 C762 1.394 . S
C763 C764 1.384 1_554 S
C763 H771 0.929 . S
C764 C763 1.384 1_556 S
C764 C765 1.377 . S
C765 H749 0.930 . S
C765 C764 1.377 . S
C765 C766 1.379 . S
C766 H750 0.931 . S
C766 C760 1.383 1_556 S
C766 C765 1.379 . S
H767 C761 0.959 . S
H768 C761 0.961 . S
H769 C761 0.960 . S
H770 C762 0.930 . S
H771 C763 0.929 . S
H772 C780 0.929 . S
H773 C782 0.930 . S
H774 C784 0.930 . S
H775 C787 0.929 . S
H776 C790 0.930 . S
H777 C792 0.960 1_556 S
H778 C792 0.960 . S
H779 C792 0.960 . S
C780 H772 0.929 . S
C780 C781 1.377 . S
C780 C782 1.384 . S
C781 C780 1.377 . S
C781 C787 1.390 . S
C782 H773 0.930 . S
C782 C780 1.384 . S
C782 C783 1.372 . S
C783 C782 1.372 . S
C783 C784 1.400 . S
C783 C788 1.490 . S
C784 H774 0.930 . S
C784 C783 1.400 . S
C784 C787 1.386 . S
H785 C801 0.930 . S
H786 C802 0.931 . S
C787 H775 0.929 . S
C787 C781 1.390 . S
C787 C784 1.386 . S
C788 C783 1.490 . S
C788 C790 1.395 . S
C788 C791 1.403 . S
H789 C795 0.930 1_556 S
C790 H776 0.930 . S
C790 C788 1.395 . S
C790 C793 1.403 . S
C791 C788 1.403 . S
C791 C792 1.524 . S
C791 C795 1.400 . S
C792 H777 0.960 1_554 S
C792 H778 0.960 . S
C792 H779 0.960 . S
C792 C791 1.524 . S
C793 C790 1.403 . S
C793 C794 1.392 . S
C793 C797 1.495 . S
C794 C793 1.392 . S
C794 C795 1.385 . S
C794 C796 1.478 . S
C795 H789 0.930 1_554 S
C795 C791 1.400 . S
C795 C794 1.385 . S
C796 C794 1.478 . S
C796 C798 1.381 . S
C796 C802 1.383 1_554 S
C797 C793 1.495 . S
C797 H803 0.959 . S
C797 H804 0.961 . S
C797 H805 0.960 . S
C798 C796 1.381 . S
C798 C799 1.394 1_554 S
C798 H806 0.930 . S
C799 C798 1.394 1_556 S
C799 C800 1.383 . S
C799 H807 0.929 . S
C800 C799 1.383 . S
C800 C801 1.377 . S
C801 H785 0.930 . S
C801 C800 1.377 . S
C801 C802 1.379 . S
C802 H786 0.931 . S
C802 C796 1.383 1_556 S
C802 C801 1.379 . S
H803 C797 0.959 . S
H804 C797 0.961 . S
H805 C797 0.960 . S
H806 C798 0.930 . S
H807 C799 0.929 . S
H808 C816 0.929 . S
H809 C818 0.930 . S
H810 C820 0.944 . S
H811 C823 0.929 1_554 S
H812 C826 0.930 . S
H813 C828 0.960 . S
H814 C828 0.960 . S
H815 C828 0.960 . S
C816 H808 0.929 . S
C816 C817 1.377 . S
C816 C818 1.384 . S
C817 C816 1.377 . S
C817 C823 1.390 1_455 S
C818 H809 0.930 . S
C818 C816 1.384 . S
C818 C819 1.372 . S
C819 C818 1.372 . S
C819 C820 1.386 1_455 S
C819 C824 1.490 . S
C820 H810 0.944 . S
C820 C819 1.386 1_655 S
C820 C823 1.389 . S
H821 C837 0.930 . S
H822 C838 0.931 . S
C823 H811 0.929 1_556 S
C823 C817 1.390 1_655 S
C823 C820 1.389 . S
C824 C819 1.490 . S
C824 C826 1.395 . S
C824 C827 1.403 1_455 S
H825 C831 0.930 . S
C826 H812 0.930 . S
C826 C824 1.395 . S
C826 C829 1.403 . S
C827 C824 1.403 1_655 S
C827 C828 1.524 . S
C827 C831 1.400 . S
C828 H813 0.960 . S
C828 H814 0.960 . S
C828 H815 0.960 . S
C828 C827 1.524 . S
C829 C826 1.403 . S
C829 C830 1.392 . S
C829 C833 1.495 . S
C830 C829 1.392 . S
C830 C831 1.385 1_455 S
C830 C832 1.478 . S
C831 H825 0.930 . S
C831 C827 1.400 . S
C831 C830 1.385 1_655 S
C832 C830 1.478 . S
C832 C834 1.381 . S
C832 C838 1.383 . S
C833 C829 1.495 . S
C833 H839 0.959 . S
C833 H840 0.961 . S
C833 H841 0.960 . S
C834 C832 1.381 . S
C834 C835 1.394 . S
C834 H842 0.930 . S
C835 C834 1.394 . S
C835 C836 1.383 . S
C835 H843 0.929 . S
C836 C835 1.383 . S
C836 C837 1.377 . S
C837 H821 0.930 . S
C837 C836 1.377 . S
C837 C838 1.379 . S
C838 H822 0.931 . S
C838 C832 1.383 . S
C838 C837 1.379 . S
H839 C833 0.959 . S
H840 C833 0.961 . S
H841 C833 0.960 . S
H842 C834 0.930 . S
H843 C835 0.929 . S
H844 C852 0.929 . S
H845 C854 0.930 . S
H846 C856 0.930 . S
H847 C859 0.929 . S
H848 C862 0.930 . S
H849 C864 0.956 1_554 S
H850 C864 0.960 . S
H851 C864 0.960 . S
C852 H844 0.929 . S
C852 C853 1.377 1_565 S
C852 C854 1.384 . S
C853 C852 1.377 1_545 S
C853 C859 1.390 . S
C854 H845 0.930 . S
C854 C852 1.384 . S
C854 C855 1.372 1_565 S
C855 C854 1.372 1_545 S
C855 C856 1.400 . S
C855 C860 1.490 . S
C856 H846 0.930 . S
C856 C855 1.400 . S
C856 C859 1.386 . S
H857 C873 0.930 . S
H858 C874 0.931 . S
C859 H847 0.929 . S
C859 C853 1.390 . S
C859 C856 1.386 . S
C860 C855 1.490 . S
C860 C862 1.395 . S
C860 C863 1.403 . S
H861 C867 0.930 . S
C862 H848 0.930 . S
C862 C860 1.395 . S
C862 C865 1.403 . S
C863 C860 1.403 . S
C863 C864 1.524 . S
C863 C867 1.400 . S
C864 H849 0.956 1_556 S
C864 H850 0.960 . S
C864 H851 0.960 . S
C864 C863 1.524 . S
C865 C862 1.403 . S
C865 C866 1.392 . S
C865 C869 1.495 . S
C866 C865 1.392 . S
C866 C867 1.385 . S
C866 C868 1.478 . S
C867 H861 0.930 . S
C867 C863 1.400 . S
C867 C866 1.385 . S
C868 C866 1.478 . S
C868 C870 1.381 1_545 S
C868 C874 1.383 . S
C869 C865 1.495 . S
C869 H875 0.959 1_545 S
C869 H876 0.961 . S
C869 H877 0.960 1_545 S
C870 C868 1.381 1_565 S
C870 C871 1.394 . S
C870 H878 0.930 . S
C871 C870 1.394 . S
C871 C872 1.383 1_565 S
C871 H879 0.929 . S
C872 C871 1.383 1_545 S
C872 C873 1.377 . S
C873 H857 0.930 . S
C873 C872 1.377 . S
C873 C874 1.379 . S
C874 H858 0.931 . S
C874 C868 1.383 . S
C874 C873 1.379 . S
H875 C869 0.959 1_565 S
H876 C869 0.961 . S
H877 C869 0.960 1_565 S
H878 C870 0.930 . S
H879 C871 0.929 . S
H880 C888 0.929 1_554 S
H881 C890 0.930 . S
H882 C892 0.930 . S
H883 C895 0.929 . S
H884 C898 0.930 . S
H885 C900 0.960 . S
H886 C900 0.960 . S
H887 C900 0.960 . S
C888 H880 0.929 1_556 S
C888 C889 1.377 . S
C888 C890 1.384 . S
C889 C888 1.377 . S
C889 C895 1.390 . S
C890 H881 0.930 . S
C890 C888 1.384 . S
C890 C891 1.372 . S
C891 C890 1.372 . S
C891 C892 1.400 . S
C891 C896 1.490 . S
C892 H882 0.930 . S
C892 C891 1.400 . S
C892 C895 1.386 . S
H893 C909 0.930 . S
H894 C910 0.931 . S
C895 H883 0.929 . S
C895 C889 1.390 . S
C895 C892 1.386 . S
C896 C891 1.490 . S
C896 C898 1.395 . S
C896 C899 1.403 . S
H897 C903 0.930 . S
C898 H884 0.930 . S
C898 C896 1.395 . S
C898 C901 1.403 . S
C899 C896 1.403 . S
C899 C900 1.524 . S
C899 C903 1.400 . S
C900 H885 0.960 . S
C900 H886 0.960 . S
C900 H887 0.960 . S
C900 C899 1.524 . S
C901 C898 1.403 . S
C901 C902 1.392 . S
C901 C905 1.495 . S
C902 C901 1.392 . S
C902 C903 1.385 . S
C902 C904 1.478 . S
C903 H897 0.930 . S
C903 C899 1.400 . S
C903 C902 1.385 . S
C904 C902 1.478 . S
C904 C906 1.381 . S
C904 C910 1.383 . S
C905 C901 1.495 . S
C905 H911 0.959 . S
C905 H912 0.961 . S
C905 H913 0.960 . S
C906 C904 1.381 . S
C906 C907 1.394 . S
C906 H914 0.930 . S
C907 C906 1.394 . S
C907 C908 1.383 . S
C907 H915 0.929 . S
C908 C907 1.383 . S
C908 C909 1.377 . S
C909 H893 0.930 . S
C909 C908 1.377 . S
C909 C910 1.379 . S
C910 H894 0.931 . S
C910 C904 1.383 . S
C910 C909 1.379 . S
H911 C905 0.959 . S
H912 C905 0.961 . S
H913 C905 0.960 . S
H914 C906 0.930 . S
H915 C907 0.929 . S
H916 C924 0.929 . S
H917 C926 0.930 . S
H918 C928 0.930 . S
H919 C931 0.929 . S
H920 C934 0.930 . S
H921 C936 0.960 . S
H922 C936 0.960 . S
H923 C936 0.960 . S
C924 H916 0.929 . S
C924 C925 1.377 . S
C924 C926 1.384 . S
C925 C924 1.377 . S
C925 C931 1.390 . S
C926 H917 0.930 . S
C926 C924 1.384 . S
C926 C927 1.372 . S
C927 C926 1.372 . S
C927 C928 1.400 . S
C927 C932 1.490 . S
C928 H918 0.930 . S
C928 C927 1.400 . S
C928 C931 1.386 . S
H929 C945 0.930 . S
H930 C946 0.931 . S
C931 H919 0.929 . S
C931 C925 1.390 . S
C931 C928 1.386 . S
C932 C927 1.490 . S
C932 C934 1.395 . S
C932 C935 1.403 . S
H933 C939 0.930 . S
C934 H920 0.930 . S
C934 C932 1.395 . S
C934 C937 1.403 . S
C935 C932 1.403 . S
C935 C936 1.524 . S
C935 C939 1.400 . S
C936 H921 0.960 . S
C936 H922 0.960 . S
C936 H923 0.960 . S
C936 C935 1.524 . S
C937 C934 1.403 . S
C937 C938 1.392 . S
C937 C941 1.495 . S
C938 C937 1.392 . S
C938 C939 1.385 . S
C938 C940 1.478 . S
C939 H933 0.930 . S
C939 C935 1.400 . S
C939 C938 1.385 . S
C940 C938 1.478 . S
C940 C942 1.381 . S
C940 C946 1.383 . S
C941 C937 1.495 . S
C941 H947 0.959 . S
C941 H948 0.961 . S
C941 H949 0.960 . S
C942 C940 1.381 . S
C942 C943 1.394 . S
C942 H950 0.930 . S
C943 C942 1.394 . S
C943 C944 1.383 . S
C943 H951 0.929 . S
C944 C943 1.383 . S
C944 C945 1.377 . S
C945 H929 0.930 . S
C945 C944 1.377 . S
C945 C946 1.379 . S
C946 H930 0.931 . S
C946 C940 1.383 . S
C946 C945 1.379 . S
H947 C941 0.959 . S
H948 C941 0.961 . S
H949 C941 0.960 . S
H950 C942 0.930 . S
H951 C943 0.929 . S
H952 C960 0.929 . S
H953 C962 0.930 . S
H954 C964 0.930 . S
H955 C967 0.929 . S
H956 C970 0.930 . S
H957 C972 0.960 . S
H958 C972 0.960 . S
H959 C972 0.960 . S
C960 H952 0.929 . S
C960 C961 1.377 1_455 S
C960 C962 1.384 . S
C961 C960 1.377 1_655 S
C961 C967 1.390 . S
C962 H953 0.930 . S
C962 C960 1.384 . S
C962 C963 1.372 1_455 S
C963 C962 1.372 1_655 S
C963 C964 1.400 . S
C963 C968 1.490 . S
C964 H954 0.930 . S
C964 C963 1.400 . S
C964 C967 1.386 . S
H965 C981 0.930 . S
H966 C982 0.931 . S
C967 H955 0.929 . S
C967 C961 1.390 . S
C967 C964 1.386 . S
C968 C963 1.490 . S
C968 C970 1.395 1_655 S
C968 C971 1.403 . S
H969 C975 0.930 . S
C970 H956 0.930 . S
C970 C968 1.395 1_455 S
C970 C973 1.403 . S
C971 C968 1.403 . S
C971 C972 1.524 . S
C971 C975 1.400 . S
C972 H957 0.960 . S
C972 H958 0.960 . S
C972 H959 0.960 . S
C972 C971 1.524 . S
C973 C970 1.403 . S
C973 C974 1.392 1_455 S
C973 C977 1.495 . S
C974 C973 1.392 1_655 S
C974 C975 1.385 . S
C974 C976 1.478 . S
C975 H969 0.930 . S
C975 C971 1.400 . S
C975 C974 1.385 . S
C976 C974 1.478 . S
C976 C978 1.381 1_655 S
C976 C982 1.383 . S
C977 C973 1.495 . S
C977 H983 0.959 . S
C977 H984 0.961 . S
C977 H985 0.960 . S
C978 C976 1.381 1_455 S
C978 C979 1.394 . S
C978 H986 0.930 . S
C979 C978 1.394 . S
C979 C980 1.383 1_455 S
C979 H987 0.929 . S
C980 C979 1.383 1_655 S
C980 C981 1.377 . S
C981 H965 0.930 . S
C981 C980 1.377 . S
C981 C982 1.379 . S
C982 H966 0.931 . S
C982 C976 1.383 . S
C982 C981 1.379 . S
H983 C977 0.959 . S
H984 C977 0.961 . S
H985 C977 0.960 . S
H986 C978 0.930 . S
H987 C979 0.929 . S
H988 C996 0.929 . S
H989 C998 0.930 . S
H990 C1000 0.930 . S
H991 C1003 0.929 . S
H992 C1006 0.931 . S
H993 C1008 0.960 . S
H994 C1008 0.960 . S
H995 C1008 0.960 . S
C996 H988 0.929 . S
C996 C997 1.377 1_545 S
C996 C998 1.384 . S
C997 C996 1.377 1_565 S
C997 C1003 1.390 . S
C998 H989 0.930 . S
C998 C996 1.384 . S
C998 C999 1.372 1_545 S
C999 C998 1.372 1_565 S
C999 C1000 1.400 . S
C999 C1004 1.490 . S
C1000 H990 0.930 . S
C1000 C999 1.400 . S
C1000 C1003 1.386 . S
H1001 C1017 0.930 . S
H1002 C1018 0.931 . S
C1003 H991 0.929 . S
C1003 C997 1.390 . S
C1003 C1000 1.386 . S
C1004 C999 1.490 . S
C1004 C1006 1.394 1_565 S
C1004 C1007 1.403 . S
H1005 C1011 0.930 . S
C1006 H992 0.931 . S
C1006 C1004 1.394 1_545 S
C1006 C1009 1.403 1_545 S
C1007 C1004 1.403 . S
C1007 C1008 1.524 . S
C1007 C1011 1.400 . S
C1008 H993 0.960 . S
C1008 H994 0.960 . S
C1008 H995 0.960 . S
C1008 C1007 1.524 . S
C1009 C1006 1.403 1_565 S
C1009 C1010 1.397 . S
C1009 C1013 1.492 1_565 S
C1010 C1009 1.397 . S
C1010 C1011 1.385 . S
C1010 C1012 1.478 . S
C1011 H1005 0.930 . S
C1011 C1007 1.400 . S
C1011 C1010 1.385 . S
C1012 C1010 1.478 . S
C1012 C1014 1.381 1_565 S
C1012 C1018 1.383 . S
C1013 C1009 1.492 1_545 S
C1013 H1019 0.959 . S
C1013 H1020 0.961 1_545 S
C1013 H1021 0.960 . S
C1014 C1012 1.381 1_545 S
C1014 C1015 1.394 . S
C1014 H1022 0.930 . S
C1015 C1014 1.394 . S
C1015 C1016 1.383 1_545 S
C1015 H1023 0.929 . S
C1016 C1015 1.383 1_565 S
C1016 C1017 1.377 . S
C1017 H1001 0.930 . S
C1017 C1016 1.377 . S
C1017 C1018 1.379 . S
C1018 H1002 0.931 . S
C1018 C1012 1.383 . S
C1018 C1017 1.379 . S
H1019 C1013 0.959 . S
H1020 C1013 0.961 1_565 S
H1021 C1013 0.960 . S
H1022 C1014 0.930 . S
H1023 C1015 0.929 . S
H1024 C1032 0.929 . S
H1025 C1034 0.930 . S
H1026 C1036 0.930 . S
H1027 C1039 0.929 . S
H1028 C1042 0.930 . S
H1029 C1044 0.960 . S
H1030 C1044 0.960 . S
H1031 C1044 0.960 . S
C1032 H1024 0.929 . S
C1032 C1033 1.377 . S
C1032 C1034 1.384 . S
C1033 C1032 1.377 . S
C1033 C1039 1.390 . S
C1034 H1025 0.930 . S
C1034 C1032 1.384 . S
C1034 C1035 1.372 . S
C1035 C1034 1.372 . S
C1035 C1036 1.400 . S
C1035 C1040 1.490 . S
C1036 H1026 0.930 . S
C1036 C1035 1.400 . S
C1036 C1039 1.386 . S
H1037 C1053 0.930 . S
H1038 C1054 0.931 . S
C1039 H1027 0.929 . S
C1039 C1033 1.390 . S
C1039 C1036 1.386 . S
C1040 C1035 1.490 . S
C1040 C1042 1.395 . S
C1040 C1043 1.403 . S
H1041 C1047 0.930 . S
C1042 H1028 0.930 . S
C1042 C1040 1.395 . S
C1042 C1045 1.403 . S
C1043 C1040 1.403 . S
C1043 C1044 1.524 . S
C1043 C1047 1.400 . S
C1044 H1029 0.960 . S
C1044 H1030 0.960 . S
C1044 H1031 0.960 . S
C1044 C1043 1.524 . S
C1045 C1042 1.403 . S
C1045 C1046 1.392 . S
C1045 C1049 1.495 . S
C1046 C1045 1.392 . S
C1046 C1047 1.385 . S
C1046 C1048 1.478 . S
C1047 H1041 0.930 . S
C1047 C1043 1.400 . S
C1047 C1046 1.385 . S
C1048 C1046 1.478 . S
C1048 C1050 1.381 . S
C1048 C1054 1.383 . S
C1049 C1045 1.495 . S
C1049 H1055 0.959 . S
C1049 H1056 0.961 . S
C1049 H1057 0.960 . S
C1050 C1048 1.381 . S
C1050 C1051 1.394 . S
C1050 H1058 0.930 . S
C1051 C1050 1.394 . S
C1051 C1052 1.383 . S
C1051 H1059 0.929 . S
C1052 C1051 1.383 . S
C1052 C1053 1.377 . S
C1053 H1037 0.930 . S
C1053 C1052 1.377 . S
C1053 C1054 1.379 . S
C1054 H1038 0.931 . S
C1054 C1048 1.383 . S
C1054 C1053 1.379 . S
H1055 C1049 0.959 . S
H1056 C1049 0.961 . S
H1057 C1049 0.960 . S
H1058 C1050 0.930 . S
H1059 C1051 0.929 . S
H1060 C1068 0.929 . S
H1061 C1070 0.930 . S
H1062 C1072 0.930 . S
H1063 C1075 0.929 . S
H1064 C1078 0.930 . S
H1065 C1080 0.960 . S
H1066 C1080 0.960 . S
H1067 C1080 0.960 . S
C1068 H1060 0.929 . S
C1068 C1069 1.377 . S
C1068 C1070 1.384 . S
C1069 C1068 1.377 . S
C1069 C1075 1.390 . S
C1070 H1061 0.930 . S
C1070 C1068 1.384 . S
C1070 C1071 1.372 . S
C1071 C1070 1.372 . S
C1071 C1072 1.400 . S
C1071 C1076 1.490 . S
C1072 H1062 0.930 . S
C1072 C1071 1.400 . S
C1072 C1075 1.386 . S
H1073 C1089 0.930 . S
H1074 C1090 0.931 . S
C1075 H1063 0.929 . S
C1075 C1069 1.390 . S
C1075 C1072 1.386 . S
C1076 C1071 1.490 . S
C1076 C1078 1.395 . S
C1076 C1079 1.403 . S
H1077 C1083 0.930 . S
C1078 H1064 0.930 . S
C1078 C1076 1.395 . S
C1078 C1081 1.403 . S
C1079 C1076 1.403 . S
C1079 C1080 1.524 . S
C1079 C1083 1.400 . S
C1080 H1065 0.960 . S
C1080 H1066 0.960 . S
C1080 H1067 0.960 . S
C1080 C1079 1.524 . S
C1081 C1078 1.403 . S
C1081 C1082 1.392 . S
C1081 C1085 1.495 . S
C1082 C1081 1.392 . S
C1082 C1083 1.385 . S
C1082 C1084 1.478 . S
C1083 H1077 0.930 . S
C1083 C1079 1.400 . S
C1083 C1082 1.385 . S
C1084 C1082 1.478 . S
C1084 C1086 1.381 . S
C1084 C1090 1.383 . S
C1085 C1081 1.495 . S
C1085 H1091 0.959 . S
C1085 H1092 0.961 . S
C1085 H1093 0.960 . S
C1086 C1084 1.381 . S
C1086 C1087 1.394 . S
C1086 H1094 0.930 . S
C1087 C1086 1.394 . S
C1087 C1088 1.383 . S
C1087 H1095 0.929 . S
C1088 C1087 1.383 . S
C1088 C1089 1.377 . S
C1089 H1073 0.930 . S
C1089 C1088 1.377 . S
C1089 C1090 1.379 . S
C1090 H1074 0.931 . S
C1090 C1084 1.383 . S
C1090 C1089 1.379 . S
H1091 C1085 0.959 . S
H1092 C1085 0.961 . S
H1093 C1085 0.960 . S
H1094 C1086 0.930 . S
H1095 C1087 0.929 . S
C241 C61 1.652 . S
C260 C82 1.720 . S
C296 C122 1.723 . S
C277 C70 1.661 . S
C332 C162 1.732 . S
C313 C43 1.647 . S
C368 C202 1.735 1_455 S
C349 C52 1.645 . S
C404 C91 1.720 1_565 S
C385 C25 1.654 . S
C421 C34 1.663 . S
C440 C131 1.734 . S
C457 C7 1.653 . S
C476 C171 1.727 . S
C493 C16 1.649 . S
C512 C211 1.736 1_655 S
C548 C88 0.330 . S
C529 C50 0.277 . S
C584 C128 0.424 . S
C565 C59 0.299 . S
C620 C168 0.426 . S
C601 C67 0.281 . S
C637 C41 0.274 . S
C656 C208 0.294 . S
C673 C14 0.281 . S
C692 C79 0.286 . S
C728 C119 0.301 . S
C709 C23 0.285 . S
C764 C159 0.395 . S
C745 C31 0.286 . S
C781 C5 0.284 . S
C800 C199 0.352 . S
C817 C49 1.786 . S
C836 C83 1.979 . S
C853 C58 1.772 . S
C872 C123 1.966 . S
C908 C163 1.951 . S
C889 C68 1.770 . S
C944 C203 1.958 . S
C925 C40 1.767 . S
C961 C13 1.786 . S
C980 C74 1.955 . S
C1016 C114 1.957 . S
C997 C22 1.781 . S
C1052 C154 1.978 . S
C1033 C32 1.770 . S
C1069 C4 1.779 . S
C1088 C194 1.965 . S
