# Generated by pormake.
# Topology pto, (3,4)-cn, num edge types: 1
# Building blocks:
#     Node 0, Type 0, BuildingBlock: QEWDON_clean_linker_0, # of connection points: 3
#     Node 1, Type 0, BuildingBlock: QEWDON_clean_linker_0, # of connection points: 3
#     Node 2, Type 0, BuildingBlock: QEWDON_clean_linker_0, # of connection points: 3
#     Node 3, Type 0, BuildingBlock: QEWDON_clean_linker_0, # of connection points: 3
#     Node 4, Type 0, BuildingBlock: QEWDON_clean_linker_0, # of connection points: 3
#     Node 5, Type 0, BuildingBlock: QEWDON_clean_linker_0, # of connection points: 3
#     Node 6, Type 0, BuildingBlock: QEWDON_clean_linker_0, # of connection points: 3
#     Node 7, Type 0, BuildingBlock: QEWDON_clean_linker_0, # of connection points: 3
#     Node 8, Type 1, BuildingBlock: NAWXER_clean_sbu_0, # of connection points: 4
#     Node 9, Type 1, BuildingBlock: NAWXER_clean_sbu_0, # of connection points: 4
#     Node 10, Type 1, BuildingBlock: NAWXER_clean_sbu_0, # of connection points: 4
#     Node 11, Type 1, BuildingBlock: NAWXER_clean_sbu_0, # of connection points: 4
#     Node 12, Type 1, BuildingBlock: NAWXER_clean_sbu_0, # of connection points: 4
#     Node 13, Type 1, BuildingBlock: NAWXER_clean_sbu_0, # of connection points: 4
#     Edge 14, Type (0, 1), BuildingBlock: TEMPAE_clean_linker_10, # of connection points: 2
#     Edge 15, Type (0, 1), BuildingBlock: TEMPAE_clean_linker_10, # of connection points: 2
#     Edge 16, Type (0, 1), BuildingBlock: TEMPAE_clean_linker_10, # of connection points: 2
#     Edge 17, Type (0, 1), BuildingBlock: TEMPAE_clean_linker_10, # of connection points: 2
#     Edge 18, Type (0, 1), BuildingBlock: TEMPAE_clean_linker_10, # of connection points: 2
#     Edge 19, Type (0, 1), BuildingBlock: TEMPAE_clean_linker_10, # of connection points: 2
#     Edge 20, Type (0, 1), BuildingBlock: TEMPAE_clean_linker_10, # of connection points: 2
#     Edge 21, Type (0, 1), BuildingBlock: TEMPAE_clean_linker_10, # of connection points: 2
#     Edge 22, Type (0, 1), BuildingBlock: TEMPAE_clean_linker_10, # of connection points: 2
#     Edge 23, Type (0, 1), BuildingBlock: TEMPAE_clean_linker_10, # of connection points: 2
#     Edge 24, Type (0, 1), BuildingBlock: TEMPAE_clean_linker_10, # of connection points: 2
#     Edge 25, Type (0, 1), BuildingBlock: TEMPAE_clean_linker_10, # of connection points: 2
#     Edge 26, Type (0, 1), BuildingBlock: TEMPAE_clean_linker_10, # of connection points: 2
#     Edge 27, Type (0, 1), BuildingBlock: TEMPAE_clean_linker_10, # of connection points: 2
#     Edge 28, Type (0, 1), BuildingBlock: TEMPAE_clean_linker_10, # of connection points: 2
#     Edge 29, Type (0, 1), BuildingBlock: TEMPAE_clean_linker_10, # of connection points: 2
#     Edge 30, Type (0, 1), BuildingBlock: TEMPAE_clean_linker_10, # of connection points: 2
#     Edge 31, Type (0, 1), BuildingBlock: TEMPAE_clean_linker_10, # of connection points: 2
#     Edge 32, Type (0, 1), BuildingBlock: TEMPAE_clean_linker_10, # of connection points: 2
#     Edge 33, Type (0, 1), BuildingBlock: TEMPAE_clean_linker_10, # of connection points: 2
#     Edge 34, Type (0, 1), BuildingBlock: TEMPAE_clean_linker_10, # of connection points: 2
#     Edge 35, Type (0, 1), BuildingBlock: TEMPAE_clean_linker_10, # of connection points: 2
#     Edge 36, Type (0, 1), BuildingBlock: TEMPAE_clean_linker_10, # of connection points: 2
#     Edge 37, Type (0, 1), BuildingBlock: TEMPAE_clean_linker_10, # of connection points: 2
# Relax obj value: 0.023
# Max RMSD: 0.216
# Mean RMSD: 0.076
data_MOF--net-pto--node1-NAWXER_clean_sbu_0--node2-QEWDON_clean_linker_0--edge1-TEMPAE_clean_linker_10
_symmetry_space_group_name_H-M    P1
_symmetry_Int_Tables_number       1
_symmetry_cell_setting            triclinic
loop_
_symmetry_equiv_pos_as_xyz
'x, y, z'
_cell_length_a     40.487492
_cell_length_b     42.048683
_cell_length_c     40.159041
_cell_angle_alpha  97.833058
_cell_angle_beta   107.13046
_cell_angle_gamma 100.19363
loop_
_atom_site_label
_atom_site_type_symbol
_atom_site_fract_x
_atom_site_fract_y
_atom_site_fract_z
_atom_type_partial_charge
H0 H 0.34621 0.30055 0.23316 0.0
C1 C 0.33923 0.27902 0.24397 0.0
C2 C 0.34437 0.24854 0.22998 0.0
C3 C 0.32887 0.28272 0.27429 0.0
H4 H 0.34081 0.19769 0.23429 0.0
C5 C 0.33694 0.22117 0.24535 0.0
C6 C 0.32595 0.2244 0.27558 0.0
C7 C 0.32233 0.25553 0.28997 0.0
C8 C 0.33003 0.31592 0.29264 0.0
H9 H 0.31605 0.25923 0.31445 0.0
C10 C 0.30647 0.33454 0.27672 0.0
C11 C 0.30844 0.36644 0.2944 0.0
C12 C 0.35559 0.32929 0.3262 0.0
H13 H 0.37403 0.31526 0.33874 0.0
C14 C 0.3579 0.36104 0.34359 0.0
H15 H 0.28661 0.32417 0.25086 0.0
C16 C 0.33452 0.37955 0.32785 0.0
H17 H 0.3363 0.40389 0.34223 0.0
H18 H 0.37772 0.37125 0.36944 0.0
H19 H 0.36301 0.84744 0.79518 0.0
C20 C 0.34291 0.82671 0.79532 0.0
C21 C 0.35321 0.79932 0.80812 0.0
C22 C 0.30689 0.82792 0.78422 0.0
H23 H 0.33594 0.75296 0.82164 0.0
C24 C 0.32749 0.77317 0.80996 0.0
C25 C 0.29151 0.77419 0.79964 0.0
C26 C 0.28139 0.8014 0.78619 0.0
C27 C 0.29585 0.85761 0.77274 0.0
H28 H 0.25357 0.80213 0.77758 0.0
C29 C 0.30912 0.87273 0.74862 0.0
C30 C 0.29784 0.90052 0.73736 0.0
C31 C 0.27159 0.87089 0.78593 0.0
H32 H 0.26135 0.86009 0.80493 0.0
C33 C 0.26047 0.89841 0.77502 0.0
H34 H 0.32795 0.86273 0.73847 0.0
C35 C 0.27331 0.91306 0.75082 0.0
H36 H 0.26352 0.93395 0.74221 0.0
H37 H 0.24165 0.90833 0.78522 0.0
H38 H 0.94356 0.7637 0.38146 0.0
C39 C 0.92428 0.76772 0.3581 0.0
C40 C 0.92666 0.75769 0.32428 0.0
C41 C 0.89705 0.78285 0.36197 0.0
H42 H 0.90345 0.75504 0.26828 0.0
C43 C 0.90143 0.76283 0.29431 0.0
C44 C 0.87285 0.77638 0.29745 0.0
C45 C 0.87134 0.78702 0.33167 0.0
C46 C 0.89383 0.79176 0.39754 0.0
H47 H 0.84932 0.79703 0.33487 0.0
C48 C 0.89705 0.82481 0.41274 0.0
C49 C 0.89382 0.83312 0.44672 0.0
C50 C 0.88742 0.7669 0.41634 0.0
H51 H 0.88489 0.74133 0.40499 0.0
C52 C 0.88354 0.77478 0.4496 0.0
H53 H 0.90289 0.84391 0.39836 0.0
C54 C 0.88648 0.80751 0.46463 0.0
H55 H 0.88258 0.81262 0.49019 0.0
H56 H 0.87805 0.75541 0.46375 0.0
H57 H 0.93402 0.31748 0.01085 0.0
C58 C 0.93134 0.30244 0.9856 0.0
C59 C 0.95158 0.314 0.96494 0.0
C60 C 0.90829 0.27102 0.97399 0.0
H61 H 0.96281 0.30384 0.91592 0.0
C62 C 0.94757 0.29455 0.93211 0.0
C63 C 0.9236 0.26373 0.91951 0.0
C64 C 0.90454 0.25174 0.94105 0.0
C65 C 0.88822 0.25795 0.99629 0.0
H66 H 0.88598 0.2279 0.93184 0.0
C67 C 0.85983 0.27102 0.00076 0.0
C68 C 0.83972 0.25748 0.02083 0.0
C69 C 0.89682 0.23154 0.01224 0.0
H70 H 0.91854 0.22113 0.00886 0.0
C71 C 0.87745 0.21842 0.03271 0.0
H72 H 0.85319 0.29136 0.98824 0.0
C73 C 0.84904 0.23118 0.03694 0.0
H74 H 0.83382 0.2199 0.05213 0.0
H75 H 0.88419 0.19802 0.04497 0.0
H76 H 0.92082 0.76128 0.7945 0.0
C77 C 0.90432 0.76745 0.81017 0.0
C78 C 0.89539 0.74609 0.83174 0.0
C79 C 0.89238 0.79671 0.80861 0.0
H80 H 0.86559 0.73721 0.86745 0.0
C81 C 0.87272 0.75356 0.85077 0.0
C82 C 0.85959 0.78233 0.84871 0.0
C83 C 0.8697 0.80383 0.82772 0.0
C84 C 0.90517 0.82041 0.78841 0.0
H85 H 0.8609 0.8267 0.82732 0.0
C86 C 0.88227 0.83762 0.76847 0.0
C87 C 0.89482 0.86042 0.74989 0.0
C88 C 0.94083 0.82629 0.78949 0.0
H89 H 0.95934 0.81401 0.8052 0.0
C90 C 0.9533 0.84866 0.77094 0.0
H91 H 0.85465 0.83299 0.76703 0.0
C92 C 0.93058 0.86569 0.75136 0.0
H93 H 0.94129 0.88363 0.73804 0.0
H94 H 0.98084 0.85316 0.77217 0.0
H95 H 0.92312 0.36418 0.38366 0.0
C96 C 0.89751 0.37037 0.37453 0.0
C97 C 0.89537 0.4027 0.37008 0.0
C98 C 0.86671 0.34519 0.36491 0.0
H99 H 0.85918 0.4336 0.35109 0.0
C100 C 0.86159 0.40914 0.35546 0.0
C101 C 0.8307 0.38372 0.34462 0.0
C102 C 0.83346 0.35203 0.35046 0.0
C103 C 0.86917 0.31062 0.3642 0.0
H104 H 0.80999 0.33193 0.34092 0.0
C105 C 0.86084 0.29381 0.38961 0.0
C106 C 0.86047 0.25994 0.38706 0.0
C107 C 0.87747 0.29377 0.33628 0.0
H108 H 0.88364 0.30643 0.31633 0.0
C109 C 0.87684 0.26026 0.33331 0.0
H110 H 0.85508 0.30732 0.41139 0.0
C111 C 0.86813 0.24335 0.35826 0.0
H112 H 0.86708 0.21716 0.35466 0.0
H113 H 0.88273 0.24723 0.31137 0.0
H114 H 0.37502 0.35446 0.76119 0.0
C115 C 0.35252 0.36395 0.76384 0.0
C116 C 0.34806 0.37011 0.79733 0.0
C117 C 0.32852 0.37045 0.73374 0.0
H118 H 0.31513 0.38766 0.82595 0.0
C119 C 0.31849 0.38205 0.80016 0.0
C120 C 0.294 0.3883 0.77023 0.0
C121 C 0.2994 0.3828 0.73715 0.0
C122 C 0.33451 0.36481 0.69895 0.0
H123 H 0.28058 0.38755 0.71394 0.0
C124 C 0.343 0.33533 0.68687 0.0
C125 C 0.35072 0.33032 0.65484 0.0
C126 C 0.33295 0.38922 0.67828 0.0
H127 H 0.3267 0.41224 0.68713 0.0
C128 C 0.34049 0.38447 0.64646 0.0
H129 H 0.34296 0.31609 0.70227 0.0
C130 C 0.34954 0.35539 0.63487 0.0
H131 H 0.35597 0.35275 0.61046 0.0
H132 H 0.33969 0.40358 0.63089 0.0
H133 H 0.43197 0.87147 0.25732 0.0
C134 C 0.41743 0.8497 0.26284 0.0
C135 C 0.41772 0.84888 0.29779 0.0
C136 C 0.39647 0.82351 0.23464 0.0
H137 H 0.39651 0.82079 0.33101 0.0
C138 C 0.39757 0.82115 0.30439 0.0
C139 C 0.37657 0.79486 0.27664 0.0
C140 C 0.37643 0.79594 0.24183 0.0
C141 C 0.39254 0.82668 0.19742 0.0
H142 H 0.3595 0.77602 0.22016 0.0
C143 C 0.4225 0.83668 0.18713 0.0
C144 C 0.41856 0.84051 0.15193 0.0
C145 C 0.35849 0.82077 0.17224 0.0
H146 H 0.33499 0.81351 0.17961 0.0
C147 C 0.35439 0.825 0.13753 0.0
H148 H 0.4488 0.84055 0.2063 0.0
C149 C 0.38413 0.83485 0.12739 0.0
H150 H 0.38014 0.83812 0.10031 0.0
H151 H 0.32804 0.82071 0.11842 0.0
C152 C 0.11007 0.54848 0.35555 0.0
C153 C 0.19748 0.62198 0.32239 0.0
O154 O 0.13782 0.5688 0.37681 0.0
Zn155 Zn 0.15443 0.5856 0.34041 0.0
O156 O 0.10243 0.54645 0.3219 0.0
Zn157 Zn 0.12302 0.5691 0.28531 0.0
O158 O 0.13084 0.53179 0.25688 0.0
O159 O 0.16488 0.54313 0.31323 0.0
O160 O 0.17076 0.60564 0.29572 0.0
O161 O 0.19919 0.61764 0.35353 0.0
O162 O 0.11639 0.6134 0.32077 0.0
O163 O 0.08624 0.59133 0.2644 0.0
C164 C 0.15455 0.52511 0.28197 0.0
C165 C 0.09199 0.61324 0.29191 0.0
C166 C 0.07168 0.51025 0.90797 0.0
C167 C 0.13192 0.59745 0.8637 0.0
O168 O 0.09737 0.53433 0.92593 0.0
Zn169 Zn 0.10214 0.55411 0.88638 0.0
O170 O 0.05909 0.50713 0.87411 0.0
Zn171 Zn 0.06834 0.53233 0.8337 0.0
O172 O 0.08154 0.50004 0.80419 0.0
O173 O 0.12178 0.51942 0.85722 0.0
O174 O 0.10692 0.57653 0.83885 0.0
O175 O 0.1383 0.59386 0.89574 0.0
O176 O 0.05403 0.57117 0.86922 0.0
O177 O 0.02428 0.54493 0.814 0.0
C178 C 0.1116 0.50072 0.82631 0.0
C179 C 0.02679 0.56581 0.84119 0.0
C180 C 0.34795 0.01495 0.54712 0.0
C181 C 0.34322 0.07692 0.4527 0.0
O182 O 0.32149 0.01559 0.5209 0.0
Zn183 Zn 0.3458 0.04545 0.49932 0.0
O184 O 0.3788 0.03213 0.55064 0.0
Zn185 Zn 0.40104 0.06542 0.52209 0.0
O186 O 0.41969 0.10644 0.55604 0.0
O187 O 0.36107 0.0916 0.5369 0.0
O188 O 0.37462 0.08238 0.47514 0.0
O189 O 0.31805 0.05632 0.45619 0.0
O190 O 0.37844 0.01793 0.48014 0.0
O191 O 0.43437 0.04413 0.50717 0.0
C192 C 0.38999 0.11224 0.55623 0.0
C193 C 0.41156 0.0201 0.48487 0.0
C194 C 0.68585 0.78724 0.07165 0.0
C195 C 0.58938 0.78647 0.96496 0.0
O196 O 0.661 0.76276 0.05286 0.0
Zn197 Zn 0.63778 0.78578 0.01794 0.0
O198 O 0.68745 0.81556 0.06292 0.0
Zn199 Zn 0.65744 0.83744 0.0223 0.0
O200 O 0.64007 0.86933 0.04908 0.0
O201 O 0.61805 0.81741 0.04915 0.0
O202 O 0.61071 0.81487 0.97783 0.0
O203 O 0.59488 0.76237 0.98011 0.0
O204 O 0.67536 0.79789 0.99105 0.0
O205 O 0.69189 0.85214 0.9997 0.0
C206 C 0.62046 0.84819 0.05911 0.0
C207 C 0.694 0.82372 0.9861 0.0
C208 C 0.83088 0.04386 0.64286 0.0
C209 C 0.83337 0.12742 0.56998 0.0
O210 O 0.80382 0.05101 0.62233 0.0
Zn211 Zn 0.83088 0.08494 0.60615 0.0
O212 O 0.8622 0.05892 0.64529 0.0
Zn213 Zn 0.88759 0.09652 0.62395 0.0
O214 O 0.91444 0.12856 0.66672 0.0
O215 O 0.85645 0.12111 0.65496 0.0
O216 O 0.86447 0.12542 0.58818 0.0
O217 O 0.80624 0.10823 0.57177 0.0
O218 O 0.85418 0.05452 0.57688 0.0
O219 O 0.91241 0.07207 0.59863 0.0
C220 C 0.88821 0.1351 0.67535 0.0
C221 C 0.88513 0.05173 0.57665 0.0
C222 C 0.61083 0.35068 0.13898 0.0
C223 C 0.528 0.3448 0.02155 0.0
O224 O 0.59869 0.32085 0.12127 0.0
Zn225 Zn 0.56116 0.29582 0.06924 0.0
O226 O 0.59993 0.37402 0.12536 0.0
Zn227 Zn 0.5693 0.3472 0.08068 0.0
O228 O 0.52742 0.32061 0.09634 0.0
O229 O 0.5245 0.26768 0.07995 0.0
O230 O 0.5451 0.36981 0.04596 0.0
O231 O 0.5318 0.31605 0.02672 0.0
O232 O 0.59025 0.27431 0.04865 0.0
O233 O 0.60726 0.32854 0.05916 0.0
C234 C 0.51312 0.2903 0.09425 0.0
C235 C 0.61196 0.29998 0.04839 0.0
C236 C 0.29389 0.41918 0.27981 0.0
C237 C 0.28233 0.38567 0.27946 0.0
C238 C 0.26967 0.43938 0.27253 0.0
C239 C 0.23306 0.42573 0.26502 0.0
C240 C 0.22097 0.39133 0.26155 0.0
C241 C 0.24584 0.37163 0.26878 0.0
C242 C 0.28365 0.47586 0.27603 0.0
C243 C 0.18218 0.3758 0.2534 0.0
C244 C 0.18839 0.48467 0.30532 0.0
C245 C 0.17098 0.49708 0.27601 0.0
C246 C 0.20726 0.46036 0.3016 0.0
C247 C 0.20905 0.4482 0.26769 0.0
C248 C 0.19025 0.45951 0.23761 0.0
C249 C 0.17123 0.48384 0.24211 0.0
C250 C 0.22651 0.44869 0.33436 0.0
C251 C 0.1915 0.44703 0.20106 0.0
H252 H 0.3221 0.42992 0.28748 0.0
H253 H 0.23684 0.34569 0.26849 0.0
H254 H 0.26723 0.48509 0.25372 0.0
H255 H 0.28218 0.48943 0.30108 0.0
H256 H 0.31169 0.48169 0.2766 0.0
H257 H 0.17635 0.34857 0.24488 0.0
H258 H 0.17466 0.3815 0.27761 0.0
H259 H 0.16529 0.38597 0.23229 0.0
H260 H 0.18781 0.49443 0.33152 0.0
H261 H 0.15776 0.49335 0.21937 0.0
H262 H 0.2556 0.45608 0.33982 0.0
H263 H 0.21912 0.4214 0.32998 0.0
H264 H 0.22052 0.45908 0.3583 0.0
H265 H 0.21826 0.45706 0.19979 0.0
H266 H 0.17153 0.45455 0.1799 0.0
H267 H 0.18691 0.41975 0.1955 0.0
C268 C 0.23977 0.75692 0.8205 0.0
C269 C 0.26525 0.74823 0.80594 0.0
C270 C 0.21675 0.73309 0.82945 0.0
C271 C 0.2195 0.69984 0.82404 0.0
C272 C 0.24467 0.69077 0.80874 0.0
C273 C 0.26712 0.71505 0.79971 0.0
C274 C 0.19 0.74362 0.84542 0.0
C275 C 0.24835 0.65551 0.80254 0.0
C276 C 0.18594 0.64337 0.87908 0.0
C277 C 0.15362 0.62484 0.85443 0.0
C278 C 0.20757 0.66806 0.86961 0.0
C279 C 0.19639 0.67454 0.83482 0.0
C280 C 0.16343 0.65644 0.8101 0.0
C281 C 0.14253 0.63171 0.82015 0.0
C282 C 0.24271 0.68676 0.8966 0.0
C283 C 0.15044 0.66291 0.7729 0.0
H284 H 0.23851 0.78256 0.82596 0.0
H285 H 0.28643 0.70811 0.78806 0.0
H286 H 0.16291 0.72879 0.82984 0.0
H287 H 0.19589 0.73904 0.8729 0.0
H288 H 0.19009 0.77015 0.84629 0.0
H289 H 0.26897 0.65249 0.79001 0.0
H290 H 0.25542 0.64709 0.82821 0.0
H291 H 0.22266 0.63913 0.78519 0.0
H292 H 0.19472 0.6381 0.90555 0.0
H293 H 0.11747 0.61763 0.80099 0.0
H294 H 0.24391 0.71363 0.90064 0.0
H295 H 0.26469 0.68264 0.88657 0.0
H296 H 0.24724 0.67916 0.92271 0.0
H297 H 0.14957 0.68925 0.77398 0.0
H298 H 0.12359 0.64746 0.7573 0.0
H299 H 0.16915 0.65785 0.75857 0.0
C300 C 0.95825 0.71245 0.33608 0.0
C301 C 0.9536 0.73938 0.31959 0.0
C302 C 0.98133 0.69301 0.32958 0.0
C303 C 0.0004 0.70088 0.30623 0.0
C304 C 0.9963 0.72841 0.28998 0.0
C305 C 0.9728 0.74728 0.29676 0.0
C306 C 0.98492 0.66377 0.34733 0.0
C307 C 0.01658 0.7378 0.26535 0.0
C308 C 0.08237 0.66623 0.31886 0.0
C309 C 0.06984 0.63762 0.29213 0.0
C310 C 0.06051 0.68785 0.3227 0.0
C311 C 0.02509 0.68049 0.29947 0.0
C312 C 0.01269 0.6524 0.27145 0.0
C313 C 0.03535 0.63134 0.26795 0.0
C314 C 0.07488 0.71779 0.3526 0.0
C315 C 0.97499 0.64373 0.24626 0.0
H316 H 0.94301 0.70599 0.3533 0.0
H317 H 0.96934 0.76821 0.28413 0.0
H318 H 0.97747 0.64084 0.32687 0.0
H319 H 0.01295 0.66654 0.36386 0.0
H320 H 0.96798 0.66086 0.36452 0.0
H321 H 0.01067 0.76014 0.25517 0.0
H322 H 0.04555 0.74246 0.27943 0.0
H323 H 0.00991 0.71714 0.24237 0.0
H324 H 0.10917 0.6714 0.33741 0.0
H325 H 0.02554 0.60921 0.24733 0.0
H326 H 0.0611 0.71491 0.37252 0.0
H327 H 0.06972 0.74026 0.34235 0.0
H328 H 0.10387 0.72161 0.36623 0.0
H329 H 0.95639 0.63735 0.2611 0.0
H330 H 0.97029 0.62254 0.22431 0.0
H331 H 0.96856 0.66523 0.23461 0.0
C332 C 0.01019 0.35057 0.97434 0.0
C333 C 0.97554 0.34715 0.97553 0.0
C334 C 0.02966 0.381 0.9727 0.0
C335 C 0.01388 0.40848 0.97213 0.0
C336 C 0.98079 0.40605 0.97805 0.0
C337 C 0.96185 0.37521 0.97962 0.0
C338 C 0.06505 0.38254 0.96693 0.0
C339 C 0.96346 0.43498 0.97844 0.0
C340 C 0.06789 0.48852 0.96246 0.0
C341 C 0.05627 0.4854 0.92534 0.0
C342 C 0.05362 0.46425 0.97851 0.0
C343 C 0.02751 0.43618 0.95683 0.0
C344 C 0.01531 0.43329 0.91944 0.0
C345 C 0.02973 0.45792 0.90424 0.0
C346 C 0.06703 0.46827 0.01845 0.0
C347 C 0.98754 0.40371 0.89521 0.0
H348 H 0.02087 0.32881 0.97164 0.0
H349 H 0.93506 0.37254 0.98068 0.0
H350 H 0.0615 0.38182 0.93834 0.0
H351 H 0.08429 0.40584 0.98226 0.0
H352 H 0.07649 0.36144 0.97472 0.0
H353 H 0.94244 0.43148 0.99108 0.0
H354 H 0.98335 0.45824 0.99276 0.0
H355 H 0.95106 0.43767 0.95069 0.0
H356 H 0.0883 0.50977 0.97897 0.0
H357 H 0.02047 0.45529 0.87558 0.0
H358 H 0.08421 0.4508 0.02584 0.0
H359 H 0.04462 0.46239 0.02885 0.0
H360 H 0.08275 0.49368 0.03171 0.0
H361 H 0.99745 0.38092 0.89813 0.0
H362 H 0.98043 0.40566 0.86677 0.0
H363 H 0.96306 0.40092 0.9027 0.0
C364 C 0.34529 0.17532 0.29781 0.0
C365 C 0.32193 0.19663 0.29464 0.0
C366 C 0.34504 0.15214 0.31983 0.0
C367 C 0.32159 0.1508 0.33994 0.0
C368 C 0.29667 0.17092 0.33545 0.0
C369 C 0.29679 0.1932 0.31246 0.0
C370 C 0.37143 0.13049 0.3232 0.0
C371 C 0.27153 0.17059 0.35677 0.0
C372 C 0.31118 0.08136 0.39044 0.0
C373 C 0.33666 0.09555 0.42378 0.0
C374 C 0.30607 0.09887 0.36259 0.0
C375 C 0.32618 0.13157 0.36876 0.0
C376 C 0.35129 0.14618 0.40273 0.0
C377 C 0.35659 0.12781 0.42963 0.0
C378 C 0.27981 0.08221 0.32645 0.0
C379 C 0.37262 0.18129 0.41072 0.0
H380 H 0.3651 0.17779 0.28458 0.0
H381 H 0.27798 0.20887 0.3095 0.0
H382 H 0.39286 0.13932 0.34926 0.0
H383 H 0.35842 0.10468 0.32224 0.0
H384 H 0.38372 0.13072 0.30186 0.0
H385 H 0.25151 0.18523 0.34765 0.0
H386 H 0.25748 0.14498 0.35511 0.0
H387 H 0.2869 0.18105 0.3852 0.0
H388 H 0.29595 0.05629 0.38589 0.0
H389 H 0.37605 0.1389 0.45555 0.0
H390 H 0.29375 0.081 0.30647 0.0
H391 H 0.25961 0.09678 0.31803 0.0
H392 H 0.26603 0.0568 0.32612 0.0
H393 H 0.38977 0.18363 0.39374 0.0
H394 H 0.38973 0.18946 0.43901 0.0
H395 H 0.35454 0.19824 0.40447 0.0
C396 C 0.40516 0.7744 0.8106 0.0
C397 C 0.39097 0.79929 0.8241 0.0
C398 C 0.43924 0.77093 0.82902 0.0
C399 C 0.45882 0.79218 0.8622 0.0
C400 C 0.44488 0.81798 0.87532 0.0
C401 C 0.41121 0.82144 0.85583 0.0
C402 C 0.45366 0.7438 0.81369 0.0
C403 C 0.46463 0.84079 0.9109 0.0
C404 C 0.52475 0.76351 0.93361 0.0
C405 C 0.55691 0.78328 0.93478 0.0
C406 C 0.49256 0.76517 0.90904 0.0
C407 C 0.49283 0.7864 0.88451 0.0
C408 C 0.52554 0.80447 0.88388 0.0
C409 C 0.5572 0.80312 0.90946 0.0
C410 C 0.45818 0.74597 0.91102 0.0
C411 C 0.527 0.82648 0.85738 0.0
H412 H 0.38919 0.75718 0.78609 0.0
H413 H 0.39981 0.84031 0.8664 0.0
H414 H 0.48134 0.75353 0.81469 0.0
H415 H 0.45423 0.72434 0.82979 0.0
H416 H 0.43729 0.73232 0.78572 0.0
H417 H 0.4505 0.86009 0.9168 0.0
H418 H 0.46807 0.82631 0.93232 0.0
H419 H 0.49151 0.85305 0.91164 0.0
H420 H 0.52451 0.7484 0.9534 0.0
H421 H 0.58217 0.81825 0.91023 0.0
H422 H 0.44124 0.73132 0.88444 0.0
H423 H 0.44323 0.76337 0.91961 0.0
H424 H 0.46262 0.72902 0.93 0.0
H425 H 0.50973 0.81338 0.83024 0.0
H426 H 0.55445 0.83493 0.85697 0.0
H427 H 0.51695 0.84851 0.8643 0.0
C428 C 0.88509 0.8907 0.44307 0.0
C429 C 0.89765 0.86812 0.46358 0.0
C430 C 0.88625 0.92292 0.45917 0.0
C431 C 0.89942 0.93259 0.49671 0.0
C432 C 0.91327 0.91041 0.51747 0.0
C433 C 0.91273 0.87872 0.50065 0.0
C434 C 0.87195 0.94613 0.43607 0.0
C435 C 0.92703 0.9195 0.55762 0.0
C436 C 0.91978 0.02172 0.54566 0.0
C437 C 0.88843 0.02264 0.5536 0.0
C438 C 0.92331 0.99298 0.52578 0.0
C439 C 0.89523 0.96437 0.51455 0.0
C440 C 0.86342 0.96541 0.52216 0.0
C441 C 0.86028 0.99458 0.54116 0.0
C442 C 0.95728 0.99302 0.5174 0.0
C443 C 0.83312 0.93529 0.51147 0.0
H444 H 0.87317 0.88293 0.41449 0.0
H445 H 0.92358 0.86199 0.51679 0.0
H446 H 0.84635 0.94952 0.43907 0.0
H447 H 0.89055 0.97074 0.4445 0.0
H448 H 0.86744 0.93669 0.4075 0.0
H449 H 0.93874 0.90016 0.56981 0.0
H450 H 0.94745 0.94301 0.56669 0.0
H451 H 0.90496 0.92328 0.56769 0.0
H452 H 0.94157 0.04337 0.55511 0.0
H453 H 0.83608 0.99494 0.54748 0.0
H454 H 0.95127 0.98358 0.48857 0.0
H455 H 0.97168 0.97629 0.5319 0.0
H456 H 0.9751 0.01803 0.52495 0.0
H457 H 0.82433 0.92593 0.48234 0.0
H458 H 0.80993 0.94041 0.51886 0.0
H459 H 0.84219 0.91532 0.52457 0.0
C460 C 0.78348 0.27532 0.99369 0.0
C461 C 0.80808 0.26948 0.02377 0.0
C462 C 0.7517 0.28338 0.99535 0.0
C463 C 0.74432 0.28553 0.02781 0.0
C464 C 0.76973 0.28104 0.0586 0.0
C465 C 0.80129 0.27312 0.0562 0.0
C466 C 0.72535 0.28815 0.962 0.0
C467 C 0.76297 0.2833 0.09379 0.0
C468 C 0.67109 0.32476 0.04358 0.0
C469 C 0.64415 0.29683 0.03894 0.0
C470 C 0.70347 0.32161 0.03878 0.0
C471 C 0.70899 0.2898 0.02916 0.0
C472 C 0.68135 0.26164 0.02298 0.0
C473 C 0.64929 0.26549 0.02789 0.0
C474 C 0.73224 0.35222 0.04538 0.0
C475 C 0.68613 0.22726 0.01259 0.0
H476 H 0.78839 0.27229 0.96846 0.0
H477 H 0.82047 0.2692 0.07968 0.0
H478 H 0.70147 0.2675 0.95319 0.0
H479 H 0.7165 0.31126 0.96733 0.0
H480 H 0.73658 0.28907 0.93993 0.0
H481 H 0.78635 0.2813 0.11568 0.0
H482 H 0.75591 0.30702 0.10098 0.0
H483 H 0.74011 0.26322 0.09156 0.0
H484 H 0.66737 0.3491 0.05209 0.0
H485 H 0.62862 0.24377 0.02407 0.0
H486 H 0.74274 0.35195 0.02278 0.0
H487 H 0.75468 0.3528 0.06948 0.0
H488 H 0.72262 0.37516 0.04928 0.0
H489 H 0.69489 0.22537 0.98884 0.0
H490 H 0.66135 0.2081 0.00669 0.0
H491 H 0.70716 0.22191 0.03453 0.0
C492 C 0.31808 0.9505 0.71458 0.0
C493 C 0.31057 0.91607 0.71089 0.0
C494 C 0.32652 0.96555 0.68813 0.0
C495 C 0.32797 0.94575 0.65737 0.0
C496 C 0.3221 0.91109 0.6542 0.0
C497 C 0.3133 0.89664 0.68092 0.0
C498 C 0.33256 0.0026 0.69253 0.0
C499 C 0.32382 0.8892 0.62197 0.0
C500 C 0.30872 0.98222 0.57421 0.0
C501 C 0.343 0.99546 0.57409 0.0
C502 C 0.30351 0.96537 0.60075 0.0
C503 C 0.33329 0.9613 0.62763 0.0
C504 C 0.36794 0.97366 0.62704 0.0
C505 C 0.37241 0.99079 0.6004 0.0
C506 C 0.26612 0.9528 0.60061 0.0
C507 C 0.4003 0.96938 0.65496 0.0
H508 H 0.31678 0.96575 0.73799 0.0
H509 H 0.30728 0.87001 0.67769 0.0
H510 H 0.35851 0.01305 0.6897 0.0
H511 H 0.31169 0.00901 0.67132 0.0
H512 H 0.33207 0.01456 0.71876 0.0
H513 H 0.32215 0.86319 0.62517 0.0
H514 H 0.30156 0.8898 0.59822 0.0
H515 H 0.34886 0.89835 0.6167 0.0
H516 H 0.28585 0.98571 0.55403 0.0
H517 H 0.39898 0.00073 0.60034 0.0
H518 H 0.26265 0.96541 0.62507 0.0
H519 H 0.2612 0.92601 0.60072 0.0
H520 H 0.2458 0.95694 0.57714 0.0
H521 H 0.40242 0.98318 0.68138 0.0
H522 H 0.4252 0.9783 0.6493 0.0
H523 H 0.39779 0.943 0.65674 0.0
C524 C 0.83365 0.75216 0.23452 0.0
C525 C 0.8438 0.77742 0.26483 0.0
C526 C 0.80755 0.75318 0.20304 0.0
C527 C 0.78992 0.77936 0.20213 0.0
C528 C 0.79886 0.80427 0.2329 0.0
C529 C 0.82607 0.80329 0.26372 0.0
C530 C 0.79933 0.72651 0.17055 0.0
C531 C 0.77991 0.83213 0.23315 0.0
C532 C 0.74782 0.80102 0.11306 0.0
C533 C 0.71247 0.78386 0.10416 0.0
C534 C 0.7734 0.7994 0.14468 0.0
C535 C 0.763 0.78115 0.16851 0.0
C536 C 0.72715 0.76407 0.15979 0.0
C537 C 0.70237 0.76515 0.1273 0.0
C538 C 0.81157 0.81698 0.15244 0.0
C539 C 0.7149 0.74521 0.18503 0.0
H540 H 0.84611 0.73138 0.23523 0.0
H541 H 0.83371 0.82307 0.28676 0.0
H542 H 0.77104 0.71327 0.1618 0.0
H543 H 0.80365 0.73773 0.14827 0.0
H544 H 0.81605 0.70824 0.17549 0.0
H545 H 0.78793 0.84797 0.26002 0.0
H546 H 0.78576 0.84773 0.21452 0.0
H547 H 0.75075 0.82212 0.22387 0.0
H548 H 0.75553 0.81541 0.095 0.0
H549 H 0.67485 0.75231 0.12054 0.0
H550 H 0.82891 0.79918 0.15668 0.0
H551 H 0.82051 0.83595 0.17726 0.0
H552 H 0.81542 0.82916 0.13055 0.0
H553 H 0.72909 0.72513 0.18973 0.0
H554 H 0.68588 0.73424 0.17479 0.0
H555 H 0.72137 0.76185 0.21115 0.0
C556 C 0.91551 0.2615 0.85495 0.0
C557 C 0.91797 0.24496 0.88338 0.0
C558 C 0.91125 0.24463 0.82082 0.0
C559 C 0.90904 0.21027 0.81482 0.0
C560 C 0.91112 0.1933 0.84326 0.0
C561 C 0.91558 0.21087 0.87726 0.0
C562 C 0.90902 0.26358 0.79117 0.0
C563 C 0.90874 0.15662 0.83779 0.0
C564 C 0.86456 0.161 0.72053 0.0
C565 C 0.89384 0.15637 0.71008 0.0
C566 C 0.86917 0.17858 0.75447 0.0
C567 C 0.90389 0.19203 0.77857 0.0
C568 C 0.93359 0.1881 0.768 0.0
C569 C 0.92822 0.17027 0.73387 0.0
C570 C 0.83683 0.18231 0.76474 0.0
C571 C 0.97103 0.20235 0.79292 0.0
H572 H 0.91666 0.28774 0.85933 0.0
H573 H 0.91776 0.19802 0.89917 0.0
H574 H 0.93009 0.26038 0.77939 0.0
H575 H 0.88313 0.25377 0.76969 0.0
H576 H 0.9119 0.29037 0.80044 0.0
H577 H 0.91077 0.1471 0.86264 0.0
H578 H 0.88317 0.14333 0.81726 0.0
H579 H 0.93029 0.15079 0.82794 0.0
H580 H 0.83788 0.15032 0.70241 0.0
H581 H 0.95099 0.16679 0.72607 0.0
H582 H 0.83757 0.20881 0.77271 0.0
H583 H 0.83679 0.17083 0.78803 0.0
H584 H 0.81164 0.17072 0.74273 0.0
H585 H 0.97517 0.22936 0.80166 0.0
H586 H 0.99126 0.19766 0.78041 0.0
H587 H 0.97541 0.19149 0.8171 0.0
C588 C 0.35201 0.2602 0.17285 0.0
C589 C 0.36314 0.24713 0.20348 0.0
C590 C 0.37317 0.26418 0.15092 0.0
C591 C 0.40657 0.25568 0.16048 0.0
C592 C 0.41711 0.24106 0.1905 0.0
C593 C 0.39508 0.23669 0.21146 0.0
C594 C 0.36062 0.27904 0.1186 0.0
C595 C 0.45276 0.23217 0.20198 0.0
C596 C 0.46102 0.25073 0.09815 0.0
C597 C 0.48445 0.2819 0.10954 0.0
C598 C 0.43453 0.2422 0.11351 0.0
C599 C 0.43211 0.2651 0.14149 0.0
C600 C 0.45547 0.29673 0.15279 0.0
C601 C 0.48108 0.30487 0.13637 0.0
C602 C 0.40951 0.20858 0.10019 0.0
C603 C 0.45418 0.32165 0.183 0.0
H604 H 0.32725 0.26822 0.16671 0.0
H605 H 0.40394 0.22703 0.23544 0.0
H606 H 0.37655 0.30459 0.12356 0.0
H607 H 0.36449 0.26479 0.09523 0.0
H608 H 0.33217 0.27982 0.112 0.0
H609 H 0.45578 0.21877 0.22431 0.0
H610 H 0.45659 0.21663 0.17941 0.0
H611 H 0.4742 0.255 0.21059 0.0
H612 H 0.46335 0.23301 0.07715 0.0
H613 H 0.49925 0.32893 0.14537 0.0
H614 H 0.38158 0.21105 0.09341 0.0
H615 H 0.41401 0.19394 0.12142 0.0
H616 H 0.41304 0.19468 0.07638 0.0
H617 H 0.42737 0.3269 0.1769 0.0
H618 H 0.474 0.34526 0.18831 0.0
H619 H 0.45932 0.31143 0.20762 0.0
C620 C 0.8906 0.68607 0.83473 0.0
C621 C 0.91108 0.71681 0.83501 0.0
C622 C 0.90531 0.65819 0.83627 0.0
C623 C 0.94115 0.66119 0.83783 0.0
C624 C 0.96202 0.69226 0.83868 0.0
C625 C 0.94684 0.71966 0.8376 0.0
C626 C 0.88247 0.62551 0.83583 0.0
C627 C 0.00039 0.69656 0.84038 0.0
C628 C 0.99855 0.60309 0.87185 0.0
C629 C 1.00012 0.58587 0.84009 0.0
C630 C 0.97718 0.62597 0.87145 0.0
C631 C 0.95738 0.63213 0.83852 0.0
C632 C 0.95718 0.61337 0.80633 0.0
C633 C 0.9784 0.59024 0.8075 0.0
C634 C 0.97763 0.64504 0.90634 0.0
C635 C 0.93663 0.61942 0.77068 0.0
H636 H 0.86292 0.68367 0.83258 0.0
H637 H 0.96308 0.74348 0.83871 0.0
H638 H 0.87951 0.60749 0.81164 0.0
H639 H 0.89542 0.61535 0.85912 0.0
H640 H 0.85562 0.62762 0.83624 0.0
H641 H 0.01274 0.72232 0.84029 0.0
H642 H 0.01601 0.68956 0.86484 0.0
H643 H 0.00232 0.68003 0.81734 0.0
H644 H 0.01493 0.59947 0.89714 0.0
H645 H 0.97948 0.57697 0.78288 0.0
H646 H 0.95028 0.64618 0.90571 0.0
H647 H 0.99301 0.67076 0.9109 0.0
H648 H 0.98991 0.63397 0.92917 0.0
H649 H 0.90905 0.62016 0.7694 0.0
H650 H 0.93575 0.60021 0.7483 0.0
H651 H 0.94933 0.64377 0.76704 0.0
C652 C 0.92952 0.45054 0.35355 0.0
C653 C 0.92843 0.42841 0.37665 0.0
C654 C 0.96129 0.47232 0.35672 0.0
C655 C 0.99314 0.47147 0.38302 0.0
C656 C 0.99213 0.45034 0.40744 0.0
C657 C 0.95973 0.42931 0.4042 0.0
C658 C 0.96106 0.49491 0.33048 0.0
C659 C 0.02554 0.44851 0.43566 0.0
C660 C 0.07159 0.49445 0.35138 0.0
C661 C 0.08543 0.52751 0.36851 0.0
C662 C 0.04324 0.47519 0.35811 0.0
C663 C 0.02764 0.48972 0.38176 0.0
C664 C 0.04277 0.5227 0.4006 0.0
C665 C 0.0719 0.54119 0.394 0.0
C666 C 0.02855 0.4399 0.33812 0.0
C667 C 0.0266 0.53923 0.42557 0.0
H668 H 0.9059 0.44989 0.33175 0.0
H669 H 0.95917 0.41288 0.4227 0.0
H670 H 0.97586 0.52036 0.34451 0.0
H671 H 0.97454 0.48626 0.31178 0.0
H672 H 0.93368 0.49568 0.31476 0.0
H673 H 0.01975 0.43411 0.45532 0.0
H674 H 0.04229 0.43656 0.42287 0.0
H675 H 0.04132 0.47359 0.44996 0.0
H676 H 0.08224 0.48395 0.33172 0.0
H677 H 0.08243 0.56694 0.40689 0.0
H678 H 0.00234 0.43777 0.31791 0.0
H679 H 0.02443 0.42333 0.35651 0.0
H680 H 0.04636 0.43118 0.32434 0.0
H681 H 0.00142 0.54462 0.40982 0.0
H682 H 0.04453 0.56277 0.44225 0.0
H683 H 0.02007 0.52277 0.44321 0.0
C684 C 0.25608 0.42935 0.76027 0.0
C685 C 0.26344 0.40156 0.77405 0.0
C686 C 0.22916 0.44383 0.76636 0.0
C687 C 0.20894 0.42993 0.78641 0.0
C688 C 0.21528 0.40102 0.79908 0.0
C689 C 0.24263 0.3873 0.79293 0.0
C690 C 0.22344 0.47484 0.75274 0.0
C691 C 0.19401 0.38524 0.82016 0.0
C692 C 0.17121 0.48756 0.83834 0.0
C693 C 0.13575 0.48149 0.81632 0.0
C694 C 0.19516 0.47088 0.82887 0.0
C695 C 0.18335 0.44722 0.79673 0.0
C696 C 0.14747 0.44051 0.7746 0.0
C697 C 0.1241 0.45789 0.78456 0.0
C698 C 0.23329 0.47895 0.85308 0.0
C699 C 0.13388 0.41513 0.74036 0.0
H700 H 0.27231 0.44054 0.74588 0.0
H701 H 0.24803 0.36555 0.80322 0.0
H702 H 0.19504 0.47203 0.73743 0.0
H703 H 0.23066 0.49579 0.77554 0.0
H704 H 0.2396 0.48116 0.73548 0.0
H705 H 0.2 0.36122 0.82522 0.0
H706 H 0.19996 0.40194 0.84613 0.0
H707 H 0.16517 0.38127 0.80587 0.0
H708 H 0.18053 0.50585 0.86285 0.0
H709 H 0.09673 0.453 0.76745 0.0
H710 H 0.25127 0.48793 0.83847 0.0
H711 H 0.24045 0.45641 0.86173 0.0
H712 H 0.23821 0.49804 0.8771 0.0
H713 H 0.14841 0.42243 0.72209 0.0
H714 H 0.10501 0.41209 0.72667 0.0
H715 H 0.13885 0.39093 0.74578 0.0
C716 C 0.35117 0.73503 0.2728 0.0
C717 C 0.35187 0.76828 0.28381 0.0
C718 C 0.32786 0.70996 0.28001 0.0
C719 C 0.30433 0.71848 0.29795 0.0
C720 C 0.30491 0.75207 0.30891 0.0
C721 C 0.32881 0.77654 0.30189 0.0
C722 C 0.32827 0.67441 0.26832 0.0
C723 C 0.27978 0.7622 0.32743 0.0
C724 C 0.21843 0.65698 0.28398 0.0
C725 C 0.22546 0.64604 0.31631 0.0
C726 C 0.24405 0.68017 0.27752 0.0
C727 C 0.27781 0.6924 0.30382 0.0
C728 C 0.28541 0.681 0.33625 0.0
C729 C 0.25899 0.65814 0.34227 0.0
C730 C 0.23465 0.69216 0.24287 0.0
C731 C 0.3213 0.69318 0.36469 0.0
H732 H 0.36914 0.72872 0.25896 0.0
H733 H 0.32906 0.80228 0.31 0.0
H734 H 0.33245 0.66193 0.29136 0.0
H735 H 0.30224 0.66121 0.24851 0.0
H736 H 0.34939 0.67198 0.25631 0.0
H737 H 0.28405 0.78942 0.33471 0.0
H738 H 0.25192 0.75195 0.30987 0.0
H739 H 0.28312 0.75199 0.35196 0.0
H740 H 0.19252 0.64788 0.26382 0.0
H741 H 0.26466 0.64959 0.36718 0.0
H742 H 0.25382 0.68794 0.22885 0.0
H743 H 0.23644 0.71912 0.24826 0.0
H744 H 0.20744 0.67965 0.22489 0.0
H745 H 0.34255 0.68942 0.35336 0.0
H746 H 0.3237 0.68043 0.38748 0.0
H747 H 0.32598 0.72005 0.37476 0.0
C748 C 0.87412 0.88711 0.69803 0.0
C749 C 0.87159 0.88017 0.73047 0.0
C750 C 0.8582 0.91098 0.68287 0.0
C751 C 0.83882 0.92799 0.70036 0.0
C752 C 0.83285 0.91849 0.73095 0.0
C753 C 0.8496 0.89482 0.74589 0.0
C754 C 0.86506 0.92017 0.65002 0.0
C755 C 0.81137 0.93527 0.74966 0.0
C756 C 0.85621 0.01692 0.69226 0.0
C757 C 0.82765 0.01679 0.66229 0.0
C758 C 0.85865 0.98868 0.70665 0.0
C759 C 0.83165 0.95956 0.69079 0.0
C760 C 0.80096 0.9602 0.66277 0.0
C761 C 0.79933 0.98896 0.64865 0.0
C762 C 0.89177 0.98929 0.73678 0.0
C763 C 0.77116 0.92994 0.6459 0.0
H764 H 0.89017 0.87507 0.68542 0.0
H765 H 0.84728 0.88946 0.77086 0.0
H766 H 0.84004 0.92167 0.63011 0.0
H767 H 0.88344 0.94486 0.65728 0.0
H768 H 0.87712 0.90221 0.63746 0.0
H769 H 0.802 0.92007 0.76708 0.0
H770 H 0.82808 0.95919 0.76649 0.0
H771 H 0.78807 0.94044 0.73022 0.0
H772 H 0.87783 0.03868 0.70328 0.0
H773 H 0.77713 0.98886 0.62556 0.0
H774 H 0.90755 0.9734 0.72709 0.0
H775 H 0.88469 0.97933 0.75858 0.0
H776 H 0.90882 0.01456 0.74786 0.0
H777 H 0.77833 0.91362 0.62635 0.0
H778 H 0.74608 0.9365 0.63165 0.0
H779 H 0.76649 0.91576 0.6661 0.0
C780 C 0.79585 0.40043 0.2904 0.0
C781 C 0.79661 0.38819 0.32131 0.0
C782 C 0.76363 0.39777 0.26355 0.0
C783 C 0.73137 0.38295 0.26799 0.0
C784 C 0.73182 0.37313 0.30045 0.0
C785 C 0.76453 0.37553 0.32663 0.0
C786 C 0.76441 0.40823 0.22921 0.0
C787 C 0.69795 0.35803 0.30657 0.0
C788 C 0.64747 0.38845 0.19712 0.0
C789 C 0.63933 0.35797 0.1738 0.0
C790 C 0.67641 0.39644 0.22887 0.0
C791 C 0.6981 0.37372 0.23696 0.0
C792 C 0.68941 0.3426 0.21393 0.0
C793 C 0.65993 0.335 0.18284 0.0
C794 C 0.68436 0.42951 0.25321 0.0
C795 C 0.71215 0.31782 0.2213 0.0
H796 H 0.82062 0.40985 0.286 0.0
H797 H 0.76511 0.36618 0.35061 0.0
H798 H 0.75674 0.38602 0.20773 0.0
H799 H 0.74498 0.4236 0.22111 0.0
H800 H 0.79113 0.42235 0.23136 0.0
H801 H 0.70228 0.35708 0.33502 0.0
H802 H 0.6774 0.37217 0.29766 0.0
H803 H 0.68741 0.3325 0.29074 0.0
H804 H 0.63144 0.40621 0.19037 0.0
H805 H 0.6539 0.31147 0.16488 0.0
H806 H 0.70928 0.44516 0.25276 0.0
H807 H 0.68848 0.42639 0.28104 0.0
H808 H 0.66271 0.44271 0.24528 0.0
H809 H 0.73932 0.32842 0.22143 0.0
H810 H 0.70121 0.29443 0.20119 0.0
H811 H 0.71455 0.31207 0.24794 0.0
C812 C 0.34768 0.28459 0.60592 0.0
C813 C 0.35965 0.29892 0.64229 0.0
C814 C 0.3551 0.25463 0.5938 0.0
C815 C 0.37429 0.23814 0.61867 0.0
C816 C 0.38665 0.25245 0.65536 0.0
C817 C 0.37955 0.28283 0.66668 0.0
C818 C 0.34188 0.24034 0.55437 0.0
C819 C 0.4068 0.23538 0.68269 0.0
C820 C 0.35807 0.14603 0.58594 0.0
C821 C 0.38817 0.14373 0.57614 0.0
C822 C 0.354 0.17646 0.60131 0.0
C823 C 0.38029 0.20538 0.6062 0.0
C824 C 0.41123 0.20309 0.59726 0.0
C825 C 0.41499 0.17217 0.58267 0.0
C826 C 0.32102 0.17779 0.61128 0.0
C827 C 0.43952 0.23345 0.60148 0.0
H828 H 0.33184 0.29643 0.58685 0.0
H829 H 0.38962 0.29394 0.69476 0.0
H830 H 0.36416 0.23491 0.54554 0.0
H831 H 0.32207 0.21671 0.54865 0.0
H832 H 0.32936 0.25724 0.53839 0.0
H833 H 0.41484 0.24993 0.7102 0.0
H834 H 0.39009 0.21095 0.68129 0.0
H835 H 0.43096 0.23091 0.67697 0.0
H836 H 0.3374 0.12402 0.58111 0.0
H837 H 0.43815 0.17051 0.57481 0.0
H838 H 0.3045 0.19137 0.59387 0.0
H839 H 0.32833 0.19136 0.63908 0.0
H840 H 0.3047 0.15282 0.60868 0.0
H841 H 0.42832 0.24941 0.58336 0.0
H842 H 0.46295 0.22727 0.59538 0.0
H843 H 0.44849 0.24807 0.62899 0.0
C844 C 0.44996 0.83278 0.1073 0.0
C845 C 0.45016 0.84897 0.14032 0.0
C846 C 0.48003 0.83884 0.09655 0.0
C847 C 0.5113 0.86151 0.11946 0.0
C848 C 0.5114 0.87881 0.15231 0.0
C849 C 0.48081 0.87232 0.16238 0.0
C850 C 0.47877 0.81977 0.06129 0.0
C851 C 0.54418 0.90322 0.17735 0.0
C852 C 0.59217 0.83789 0.10457 0.0
C853 C 0.59869 0.85766 0.08076 0.0
C854 C 0.56557 0.84084 0.11969 0.0
C855 C 0.54464 0.86391 0.11042 0.0
C856 C 0.55295 0.88577 0.08857 0.0
C857 C 0.58015 0.88248 0.07403 0.0
C858 C 0.55798 0.8173 0.14319 0.0
C859 C 0.53132 0.91077 0.07821 0.0
H860 H 0.42663 0.8144 0.09027 0.0
H861 H 0.48099 0.88533 0.18769 0.0
H862 H 0.4881 0.83682 0.04546 0.0
H863 H 0.49682 0.80262 0.06594 0.0
H864 H 0.45163 0.80516 0.04534 0.0
H865 H 0.53873 0.91742 0.1998 0.0
H866 H 0.56494 0.88993 0.18843 0.0
H867 H 0.55516 0.92076 0.1629 0.0
H868 H 0.6068 0.81887 0.11002 0.0
H869 H 0.58507 0.89765 0.05546 0.0
H870 H 0.53266 0.79896 0.12865 0.0
H871 H 0.55489 0.83071 0.16745 0.0
H872 H 0.57934 0.8038 0.15135 0.0
H873 H 0.50531 0.89796 0.05809 0.0
H874 H 0.54483 0.92955 0.06667 0.0
H875 H 0.52596 0.92344 0.1015 0.0
C876 C 0.86984 0.21681 0.42417 0.0
C877 C 0.85251 0.24189 0.41434 0.0
C878 C 0.86261 0.19923 0.4494 0.0
C879 C 0.83827 0.20754 0.46626 0.0
C880 C 0.82091 0.23301 0.45693 0.0
C881 C 0.82788 0.2496 0.43076 0.0
C882 C 0.88143 0.17196 0.4583 0.0
C883 C 0.7954 0.24302 0.47495 0.0
C884 C 0.80445 0.14149 0.51158 0.0
C885 C 0.83003 0.15065 0.54549 0.0
C886 C 0.80557 0.16075 0.48577 0.0
C887 C 0.83234 0.19015 0.49458 0.0
C888 C 0.85638 0.20075 0.52972 0.0
C889 C 0.85527 0.18059 0.5546 0.0
C890 C 0.77989 0.14829 0.44844 0.0
C891 C 0.88467 0.23238 0.54048 0.0
H892 H 0.88955 0.21108 0.41248 0.0
H893 H 0.81386 0.26851 0.42309 0.0
H894 H 0.89917 0.17866 0.48637 0.0
H895 H 0.86181 0.14885 0.45548 0.0
H896 H 0.89762 0.16701 0.44099 0.0
H897 H 0.78399 0.26328 0.4646 0.0
H898 H 0.77336 0.22159 0.47118 0.0
H899 H 0.80926 0.25125 0.50401 0.0
H900 H 0.78508 0.11821 0.50449 0.0
H901 H 0.87487 0.1878 0.58099 0.0
H902 H 0.7944 0.13992 0.43064 0.0
H903 H 0.76805 0.1683 0.43814 0.0
H904 H 0.75816 0.12734 0.44695 0.0
H905 H 0.90534 0.22932 0.52808 0.0
H906 H 0.89768 0.23948 0.56978 0.0
H907 H 0.87317 0.25285 0.53094 0.0
C908 C 0.41124 0.37412 0.83402 0.0
C909 C 0.37486 0.36518 0.8295 0.0
C910 C 0.43689 0.37032 0.86453 0.0
C911 C 0.42597 0.35775 0.89148 0.0
C912 C 0.38935 0.3486 0.88713 0.0
C913 C 0.36424 0.35221 0.8561 0.0
C914 C 0.4757 0.38009 0.86809 0.0
C915 C 0.3767 0.33528 0.91542 0.0
C916 C 0.48899 0.32208 0.95857 0.0
C917 C 0.50293 0.34853 0.98785 0.0
C918 C 0.46428 0.32488 0.92684 0.0
C919 C 0.45289 0.35469 0.92454 0.0
C920 C 0.46697 0.38153 0.95393 0.0
C921 C 0.49201 0.3782 0.98516 0.0
C922 C 0.45023 0.29591 0.89586 0.0
C923 C 0.45518 0.41359 0.95258 0.0
H924 H 0.4198 0.38469 0.81396 0.0
H925 H 0.33621 0.34477 0.85264 0.0
H926 H 0.48964 0.40055 0.89137 0.0
H927 H 0.48836 0.35905 0.87286 0.0
H928 H 0.47971 0.38813 0.84405 0.0
H929 H 0.34729 0.32937 0.90798 0.0
H930 H 0.3862 0.31261 0.92027 0.0
H931 H 0.38799 0.35361 0.94084 0.0
H932 H 0.49743 0.29913 0.96039 0.0
H933 H 0.50252 0.39868 0.00773 0.0
H934 H 0.45534 0.30344 0.87207 0.0
H935 H 0.42106 0.28749 0.88902 0.0
H936 H 0.46252 0.27479 0.90163 0.0
H937 H 0.46058 0.42416 0.93036 0.0
H938 H 0.46878 0.43212 0.97769 0.0
H939 H 0.4261 0.40903 0.94743 0.0
C940 C 0.42593 0.90897 0.32036 0.0
C941 C 0.43363 0.87867 0.32658 0.0
C942 C 0.43121 0.93482 0.34876 0.0
C943 C 0.44433 0.93009 0.38409 0.0
C944 C 0.45613 0.90106 0.39042 0.0
C945 C 0.45065 0.87563 0.36151 0.0
C946 C 0.41881 0.96562 0.34084 0.0
C947 C 0.4709 0.8953 0.42767 0.0
C948 C 0.45577 0.0022 0.45815 0.0
C949 C 0.42226 0.99562 0.46256 0.0
C950 C 0.46411 0.98054 0.43355 0.0
C951 C 0.43833 0.95177 0.41314 0.0
C952 C 0.40515 0.94431 0.41882 0.0
C953 C 0.39755 0.96634 0.44337 0.0
C954 C 0.49978 0.98921 0.42831 0.0
C955 C 0.37699 0.91365 0.39793 0.0
H956 H 0.41274 0.91153 0.29347 0.0
H957 H 0.45729 0.85243 0.36636 0.0
H958 H 0.39289 0.96472 0.34529 0.0
H959 H 0.43788 0.98793 0.35888 0.0
H960 H 0.41536 0.96806 0.31289 0.0
H961 H 0.48561 0.87533 0.42834 0.0
H962 H 0.48887 0.91812 0.44579 0.0
H963 H 0.4487 0.88803 0.43802 0.0
H964 H 0.47497 0.02484 0.47289 0.0
H965 H 0.37175 0.96091 0.44693 0.0
H966 H 0.49641 0.99778 0.40284 0.0
H967 H 0.51138 0.96728 0.42668 0.0
H968 H 0.51882 0.00909 0.45012 0.0
H969 H 0.3683 0.91472 0.36927 0.0
H970 H 0.35331 0.91073 0.40683 0.0
H971 H 0.38796 0.8914 0.40062 0.0
C972 C 0.8053 0.80107 0.85267 0.0
C973 C 0.83594 0.79045 0.86905 0.0
C974 C 0.78239 0.80846 0.87137 0.0
C975 C 0.79046 0.80531 0.90737 0.0
C976 C 0.82172 0.7952 0.92425 0.0
C977 C 0.84403 0.78777 0.90484 0.0
C978 C 0.74913 0.81884 0.85235 0.0
C979 C 0.83134 0.79178 0.96268 0.0
C980 C 0.74423 0.84657 0.96507 0.0
C981 C 0.71802 0.81981 0.96501 0.0
C982 C 0.76798 0.84232 0.94628 0.0
C983 C 0.76516 0.81067 0.92678 0.0
C984 C 0.73835 0.78375 0.92612 0.0
C985 C 0.71524 0.78862 0.94533 0.0
C986 C 0.79641 0.87154 0.94772 0.0
C987 C 0.73424 0.74968 0.90537 0.0
H988 H 0.79884 0.80295 0.82493 0.0
H989 H 0.86799 0.78006 0.91774 0.0
H990 H 0.72541 0.80022 0.85105 0.0
H991 H 0.74798 0.8426 0.8673 0.0
H992 H 0.74759 0.82161 0.82485 0.0
H993 H 0.8575 0.78533 0.97238 0.0
H994 H 0.83207 0.81515 0.97975 0.0
H995 H 0.81078 0.7723 0.9659 0.0
H996 H 0.7466 0.8707 0.98029 0.0
H997 H 0.69493 0.76782 0.94492 0.0
H998 H 0.79427 0.87533 0.92043 0.0
H999 H 0.82302 0.8667 0.95962 0.0
H1000 H 0.79467 0.89462 0.96357 0.0
H1001 H 0.73049 0.75052 0.87702 0.0
H1002 H 0.71136 0.73158 0.9068 0.0
H1003 H 0.75872 0.74071 0.91578 0.0
loop_
_geom_bond_atom_site_label_1
_geom_bond_atom_site_label_2
_geom_bond_distance
_geom_bond_site_symmetry_2
_ccdc_geom_bond_type
H0 C1 0.949 . S
C1 H0 0.949 . S
C1 C2 1.395 . S
C1 C3 1.391 . S
C2 C1 1.395 . S
C2 C5 1.390 . S
C3 C1 1.391 . S
C3 C7 1.387 . S
C3 C8 1.491 . S
H4 C5 0.950 . S
C5 C2 1.390 . S
C5 H4 0.950 . S
C5 C6 1.378 . S
C6 C5 1.378 . S
C6 C7 1.409 . S
C7 C3 1.387 . S
C7 C6 1.409 . S
C7 H9 0.951 . S
C8 C3 1.491 . S
C8 C10 1.382 . S
C8 C12 1.404 . S
H9 C7 0.951 . S
C10 C8 1.382 . S
C10 C11 1.390 . S
C10 H15 0.949 . S
C11 C10 1.390 . S
C11 C16 1.399 . S
C12 C8 1.404 . S
C12 H13 0.950 . S
C12 C14 1.375 . S
H13 C12 0.950 . S
C14 C12 1.375 . S
C14 C16 1.382 . S
C14 H18 0.950 . S
H15 C10 0.949 . S
C16 C11 1.399 . S
C16 C14 1.382 . S
C16 H17 0.952 . S
H17 C16 0.952 . S
H18 C14 0.950 . S
H19 C20 0.949 . S
C20 H19 0.949 . S
C20 C21 1.395 . S
C20 C22 1.391 . S
C21 C20 1.395 . S
C21 C24 1.390 . S
C22 C20 1.391 . S
C22 C26 1.387 . S
C22 C27 1.491 . S
H23 C24 0.950 . S
C24 C21 1.390 . S
C24 H23 0.950 . S
C24 C25 1.378 . S
C25 C24 1.378 . S
C25 C26 1.409 . S
C26 C22 1.387 . S
C26 C25 1.409 . S
C26 H28 0.951 . S
C27 C22 1.491 . S
C27 C29 1.382 . S
C27 C31 1.404 . S
H28 C26 0.951 . S
C29 C27 1.382 . S
C29 C30 1.390 . S
C29 H34 0.949 . S
C30 C29 1.390 . S
C30 C35 1.399 . S
C31 C27 1.404 . S
C31 H32 0.950 . S
C31 C33 1.375 . S
H32 C31 0.950 . S
C33 C31 1.375 . S
C33 C35 1.382 . S
C33 H37 0.950 . S
H34 C29 0.949 . S
C35 C30 1.399 . S
C35 C33 1.382 . S
C35 H36 0.952 . S
H36 C35 0.952 . S
H37 C33 0.950 . S
H38 C39 0.949 . S
C39 H38 0.949 . S
C39 C40 1.395 . S
C39 C41 1.391 . S
C40 C39 1.395 . S
C40 C43 1.390 . S
C41 C39 1.391 . S
C41 C45 1.387 . S
C41 C46 1.491 . S
H42 C43 0.950 . S
C43 C40 1.390 . S
C43 H42 0.950 . S
C43 C44 1.378 . S
C44 C43 1.378 . S
C44 C45 1.409 . S
C45 C41 1.387 . S
C45 C44 1.409 . S
C45 H47 0.951 . S
C46 C41 1.491 . S
C46 C48 1.382 . S
C46 C50 1.404 . S
H47 C45 0.951 . S
C48 C46 1.382 . S
C48 C49 1.390 . S
C48 H53 0.949 . S
C49 C48 1.390 . S
C49 C54 1.399 . S
C50 C46 1.404 . S
C50 H51 0.950 . S
C50 C52 1.375 . S
H51 C50 0.950 . S
C52 C50 1.375 . S
C52 C54 1.382 . S
C52 H56 0.950 . S
H53 C48 0.949 . S
C54 C49 1.399 . S
C54 C52 1.382 . S
C54 H55 0.952 . S
H55 C54 0.952 . S
H56 C52 0.950 . S
H57 C58 0.949 1_554 S
C58 H57 0.949 1_556 S
C58 C59 1.395 . S
C58 C60 1.391 . S
C59 C58 1.395 . S
C59 C62 1.390 . S
C60 C58 1.391 . S
C60 C64 1.387 . S
C60 C65 1.491 1_556 S
H61 C62 0.950 . S
C62 C59 1.390 . S
C62 H61 0.950 . S
C62 C63 1.378 . S
C63 C62 1.378 . S
C63 C64 1.409 . S
C64 C60 1.387 . S
C64 C63 1.409 . S
C64 H66 0.951 . S
C65 C60 1.491 1_554 S
C65 C67 1.382 . S
C65 C69 1.404 . S
H66 C64 0.951 . S
C67 C65 1.382 . S
C67 C68 1.390 . S
C67 H72 0.949 . S
C68 C67 1.390 . S
C68 C73 1.399 . S
C69 C65 1.404 . S
C69 H70 0.950 . S
C69 C71 1.375 . S
H70 C69 0.950 . S
C71 C69 1.375 . S
C71 C73 1.382 . S
C71 H75 0.950 . S
H72 C67 0.949 . S
C73 C68 1.399 . S
C73 C71 1.382 . S
C73 H74 0.952 . S
H74 C73 0.952 . S
H75 C71 0.950 . S
H76 C77 0.949 1_455 S
C77 H76 0.949 1_655 S
C77 C78 1.395 . S
C77 C79 1.391 . S
C78 C77 1.395 . S
C78 C81 1.390 . S
C79 C77 1.391 . S
C79 C83 1.387 . S
C79 C84 1.491 . S
H80 C81 0.950 . S
C81 C78 1.390 . S
C81 H80 0.950 . S
C81 C82 1.378 . S
C82 C81 1.378 . S
C82 C83 1.409 . S
C83 C79 1.387 . S
C83 C82 1.409 . S
C83 H85 0.951 . S
C84 C79 1.491 . S
C84 C86 1.382 . S
C84 C88 1.404 . S
H85 C83 0.951 . S
C86 C84 1.382 . S
C86 C87 1.390 . S
C86 H91 0.949 . S
C87 C86 1.390 . S
C87 C92 1.399 . S
C88 C84 1.404 . S
C88 H89 0.950 . S
C88 C90 1.375 . S
H89 C88 0.950 . S
C90 C88 1.375 . S
C90 C92 1.382 . S
C90 H94 0.950 . S
H91 C86 0.949 . S
C92 C87 1.399 . S
C92 C90 1.382 . S
C92 H93 0.952 . S
H93 C92 0.952 . S
H94 C90 0.950 . S
H95 C96 0.949 . S
C96 H95 0.949 . S
C96 C97 1.395 . S
C96 C98 1.391 . S
C97 C96 1.395 . S
C97 C100 1.390 . S
C98 C96 1.391 . S
C98 C102 1.387 . S
C98 C103 1.491 . S
H99 C100 0.950 . S
C100 C97 1.390 . S
C100 H99 0.950 . S
C100 C101 1.378 . S
C101 C100 1.378 . S
C101 C102 1.409 . S
C102 C98 1.387 . S
C102 C101 1.409 . S
C102 H104 0.951 . S
C103 C98 1.491 . S
C103 C105 1.382 . S
C103 C107 1.404 . S
H104 C102 0.951 . S
C105 C103 1.382 . S
C105 C106 1.390 . S
C105 H110 0.949 . S
C106 C105 1.390 . S
C106 C111 1.399 . S
C107 C103 1.404 . S
C107 H108 0.950 . S
C107 C109 1.375 . S
H108 C107 0.950 . S
C109 C107 1.375 . S
C109 C111 1.382 . S
C109 H113 0.950 . S
H110 C105 0.949 . S
C111 C106 1.399 . S
C111 C109 1.382 . S
C111 H112 0.952 . S
H112 C111 0.952 . S
H113 C109 0.950 . S
H114 C115 0.949 . S
C115 H114 0.949 . S
C115 C116 1.395 . S
C115 C117 1.391 . S
C116 C115 1.395 . S
C116 C119 1.390 . S
C117 C115 1.391 . S
C117 C121 1.387 . S
C117 C122 1.491 . S
H118 C119 0.950 . S
C119 C116 1.390 . S
C119 H118 0.950 . S
C119 C120 1.378 . S
C120 C119 1.378 . S
C120 C121 1.409 . S
C121 C117 1.387 . S
C121 C120 1.409 . S
C121 H123 0.951 . S
C122 C117 1.491 . S
C122 C124 1.382 . S
C122 C126 1.404 . S
H123 C121 0.951 . S
C124 C122 1.382 . S
C124 C125 1.390 . S
C124 H129 0.949 . S
C125 C124 1.390 . S
C125 C130 1.399 . S
C126 C122 1.404 . S
C126 H127 0.950 . S
C126 C128 1.375 . S
H127 C126 0.950 . S
C128 C126 1.375 . S
C128 C130 1.382 . S
C128 H132 0.950 . S
H129 C124 0.949 . S
C130 C125 1.399 . S
C130 C128 1.382 . S
C130 H131 0.952 . S
H131 C130 0.952 . S
H132 C128 0.950 . S
H133 C134 0.949 . S
C134 H133 0.949 . S
C134 C135 1.395 . S
C134 C136 1.391 . S
C135 C134 1.395 . S
C135 C138 1.390 . S
C136 C134 1.391 . S
C136 C140 1.387 . S
C136 C141 1.491 . S
H137 C138 0.950 . S
C138 C135 1.390 . S
C138 H137 0.950 . S
C138 C139 1.378 . S
C139 C138 1.378 . S
C139 C140 1.409 . S
C140 C136 1.387 . S
C140 C139 1.409 . S
C140 H142 0.951 . S
C141 C136 1.491 . S
C141 C143 1.382 . S
C141 C145 1.404 . S
H142 C140 0.951 . S
C143 C141 1.382 . S
C143 C144 1.390 . S
C143 H148 0.949 . S
C144 C143 1.390 . S
C144 C149 1.399 . S
C145 C141 1.404 . S
C145 H146 0.950 . S
C145 C147 1.375 . S
H146 C145 0.950 . S
C147 C145 1.375 . S
C147 C149 1.382 . S
C147 H151 0.950 . S
H148 C143 0.949 . S
C149 C144 1.399 . S
C149 C147 1.382 . S
C149 H150 0.952 . S
H150 C149 0.952 . S
H151 C147 0.950 . S
C152 O154 1.247 1_655 S
C152 O156 1.258 . S
C153 O160 1.247 . S
C153 O161 1.258 . S
O154 C152 1.247 1_455 S
O154 Zn155 2.028 . S
Zn155 O154 2.028 . S
Zn155 O159 2.035 . S
Zn155 O161 2.035 . S
Zn155 O162 2.028 . S
O156 C152 1.258 . S
O156 Zn157 2.035 1_655 S
Zn157 O156 2.035 1_455 S
Zn157 O158 2.028 . S
Zn157 O160 2.028 . S
Zn157 O163 2.035 1_455 S
O158 Zn157 2.028 . S
O158 C164 1.247 . S
O159 Zn155 2.035 . S
O159 C164 1.258 . S
O160 C153 1.247 . S
O160 Zn157 2.028 . S
O161 C153 1.258 . S
O161 Zn155 2.035 . S
O162 Zn155 2.028 . S
O162 C165 1.247 . S
O163 Zn157 2.035 1_655 S
O163 C165 1.258 1_655 S
C164 O158 1.247 . S
C164 O159 1.258 . S
C165 O162 1.247 . S
C165 O163 1.258 1_455 S
C166 O168 1.247 . S
C166 O170 1.258 . S
C167 O174 1.247 . S
C167 O175 1.258 . S
O168 C166 1.247 . S
O168 Zn169 2.028 . S
Zn169 O168 2.028 . S
Zn169 O173 2.035 . S
Zn169 O175 2.035 . S
Zn169 O176 2.028 . S
O170 C166 1.258 . S
O170 Zn171 2.035 . S
Zn171 O170 2.035 . S
Zn171 O172 2.028 . S
Zn171 O174 2.028 . S
Zn171 O177 2.035 . S
O172 Zn171 2.028 . S
O172 C178 1.247 . S
O173 Zn169 2.035 . S
O173 C178 1.258 . S
O174 C167 1.247 . S
O174 Zn171 2.028 . S
O175 C167 1.258 . S
O175 Zn169 2.035 . S
O176 Zn169 2.028 . S
O176 C179 1.247 . S
O177 Zn171 2.035 . S
O177 C179 1.258 . S
C178 O172 1.247 . S
C178 O173 1.258 . S
C179 O176 1.247 . S
C179 O177 1.258 . S
C180 O182 1.247 . S
C180 O184 1.258 . S
C181 O188 1.247 . S
C181 O189 1.258 . S
O182 C180 1.247 . S
O182 Zn183 2.028 1_565 S
Zn183 O182 2.028 1_545 S
Zn183 O187 2.035 . S
Zn183 O189 2.035 . S
Zn183 O190 2.028 1_545 S
O184 C180 1.258 . S
O184 Zn185 2.035 1_565 S
Zn185 O184 2.035 1_545 S
Zn185 O186 2.028 . S
Zn185 O188 2.028 . S
Zn185 O191 2.051 . S
O186 Zn185 2.028 . S
O186 C192 1.247 . S
O187 Zn183 2.035 . S
O187 C192 1.258 . S
O188 C181 1.247 . S
O188 Zn185 2.028 . S
O189 C181 1.258 . S
O189 Zn183 2.035 . S
O190 Zn183 2.028 1_565 S
O190 C193 1.247 . S
O191 Zn185 2.051 . S
O191 C193 1.247 1_545 S
C192 O186 1.247 . S
C192 O187 1.258 . S
C193 O190 1.247 . S
C193 O191 1.247 1_565 S
C194 O196 1.247 . S
C194 O198 1.258 . S
C195 O202 1.247 . S
C195 O203 1.258 . S
O196 C194 1.247 . S
O196 Zn197 2.028 1_554 S
Zn197 O196 2.028 1_556 S
Zn197 O201 2.035 1_556 S
Zn197 O203 2.035 . S
Zn197 O204 2.028 . S
O198 C194 1.258 . S
O198 Zn199 2.035 . S
Zn199 O198 2.035 . S
Zn199 O200 2.028 . S
Zn199 O202 2.028 1_554 S
Zn199 O205 2.035 1_554 S
O200 Zn199 2.028 . S
O200 C206 1.247 . S
O201 Zn197 2.035 1_554 S
O201 C206 1.258 . S
O202 C195 1.247 . S
O202 Zn199 2.028 1_556 S
O203 C195 1.258 . S
O203 Zn197 2.035 . S
O204 Zn197 2.028 . S
O204 C207 1.247 . S
O205 Zn199 2.035 1_556 S
O205 C207 1.258 . S
C206 O200 1.247 . S
C206 O201 1.258 . S
C207 O204 1.247 . S
C207 O205 1.258 . S
C208 O210 1.247 1_455 S
C208 O212 1.258 . S
C209 O216 1.247 1_655 S
C209 O217 1.258 . S
O210 C208 1.247 1_655 S
O210 Zn211 2.028 . S
Zn211 O210 2.028 . S
Zn211 O215 2.035 . S
Zn211 O217 2.035 . S
Zn211 O218 2.028 . S
O212 C208 1.258 . S
O212 Zn213 2.035 . S
Zn213 O212 2.035 . S
Zn213 O214 2.028 . S
Zn213 O216 2.028 . S
Zn213 O219 2.035 . S
O214 Zn213 2.028 . S
O214 C220 1.247 1_455 S
O215 Zn211 2.035 . S
O215 C220 1.258 . S
O216 C209 1.247 1_455 S
O216 Zn213 2.028 . S
O217 C209 1.258 . S
O217 Zn211 2.035 . S
O218 Zn211 2.028 . S
O218 C221 1.276 . S
O219 Zn213 2.035 . S
O219 C221 1.239 1_455 S
C220 O214 1.247 1_655 S
C220 O215 1.258 . S
C221 O218 1.276 . S
C221 O219 1.239 1_655 S
C222 O224 1.247 . S
C222 O226 1.258 . S
C223 O230 1.247 . S
C223 O231 1.258 . S
O224 C222 1.247 . S
O224 Zn225 2.028 . S
Zn225 O224 2.028 . S
Zn225 O229 2.035 . S
Zn225 O231 2.035 . S
Zn225 O232 2.028 . S
O226 C222 1.258 . S
O226 Zn227 2.035 . S
Zn227 O226 2.035 . S
Zn227 O228 2.028 . S
Zn227 O230 2.028 . S
Zn227 O233 2.035 . S
O228 Zn227 2.028 . S
O228 C234 1.247 . S
O229 Zn225 2.035 . S
O229 C234 1.258 . S
O230 C223 1.247 . S
O230 Zn227 2.028 . S
O231 C223 1.258 . S
O231 Zn225 2.035 . S
O232 Zn225 2.028 . S
O232 C235 1.247 . S
O233 Zn227 2.035 . S
O233 C235 1.258 . S
C234 O228 1.247 . S
C234 O229 1.258 . S
C235 O232 1.247 . S
C235 O233 1.258 . S
C236 C237 1.391 . S
C236 C238 1.394 . S
C236 H252 0.931 . S
C237 C236 1.391 . S
C237 C241 1.376 . S
C238 C236 1.394 . S
C238 C239 1.369 . S
C238 C242 1.531 . S
C239 C238 1.369 . S
C239 C240 1.410 . S
C239 C247 1.503 . S
C240 C239 1.410 . S
C240 C241 1.392 . S
C240 C243 1.511 . S
C241 C237 1.376 . S
C241 C240 1.392 . S
C241 H253 0.929 . S
C242 C238 1.531 . S
C242 H254 0.960 . S
C242 H255 0.962 . S
C242 H256 0.960 . S
C243 C240 1.511 . S
C243 H257 0.961 . S
C243 H258 0.961 . S
C243 H259 0.961 . S
C244 C245 1.370 . S
C244 C246 1.363 . S
C244 H260 0.931 . S
C245 C244 1.370 . S
C245 C249 1.408 . S
C246 C244 1.363 . S
C246 C247 1.370 . S
C246 C250 1.524 . S
C247 C239 1.503 . S
C247 C246 1.370 . S
C247 C248 1.403 . S
C248 C247 1.403 . S
C248 C249 1.404 . S
C248 C251 1.539 . S
C249 C245 1.408 . S
C249 C248 1.404 . S
C249 H261 0.930 . S
C250 C246 1.524 . S
C250 H262 0.956 . S
C250 H263 0.961 . S
C250 H264 0.961 . S
C251 C248 1.539 . S
C251 H265 0.958 . S
C251 H266 0.961 . S
C251 H267 0.960 . S
H252 C236 0.931 . S
H253 C241 0.929 . S
H254 C242 0.960 . S
H255 C242 0.962 . S
H256 C242 0.960 . S
H257 C243 0.961 . S
H258 C243 0.961 . S
H259 C243 0.961 . S
H260 C244 0.931 . S
H261 C249 0.930 . S
H262 C250 0.956 . S
H263 C250 0.961 . S
H264 C250 0.961 . S
H265 C251 0.958 . S
H266 C251 0.961 . S
H267 C251 0.960 . S
C268 C269 1.391 . S
C268 C270 1.394 . S
C268 H284 0.931 . S
C269 C268 1.391 . S
C269 C273 1.376 . S
C270 C268 1.394 . S
C270 C271 1.369 . S
C270 C274 1.531 . S
C271 C270 1.369 . S
C271 C272 1.410 . S
C271 C279 1.503 . S
C272 C271 1.410 . S
C272 C273 1.392 . S
C272 C275 1.511 . S
C273 C269 1.376 . S
C273 C272 1.392 . S
C273 H285 0.929 . S
C274 C270 1.531 . S
C274 H286 0.960 . S
C274 H287 0.962 . S
C274 H288 0.960 . S
C275 C272 1.511 . S
C275 H289 0.961 . S
C275 H290 0.961 . S
C275 H291 0.961 . S
C276 C277 1.370 . S
C276 C278 1.363 . S
C276 H292 0.931 . S
C277 C276 1.370 . S
C277 C281 1.408 . S
C278 C276 1.363 . S
C278 C279 1.370 . S
C278 C282 1.524 . S
C279 C271 1.503 . S
C279 C278 1.370 . S
C279 C280 1.403 . S
C280 C279 1.403 . S
C280 C281 1.404 . S
C280 C283 1.539 . S
C281 C277 1.408 . S
C281 C280 1.404 . S
C281 H293 0.930 . S
C282 C278 1.524 . S
C282 H294 0.956 . S
C282 H295 0.961 . S
C282 H296 0.961 . S
C283 C280 1.539 . S
C283 H297 0.958 . S
C283 H298 0.961 . S
C283 H299 0.960 . S
H284 C268 0.931 . S
H285 C273 0.929 . S
H286 C274 0.960 . S
H287 C274 0.962 . S
H288 C274 0.960 . S
H289 C275 0.961 . S
H290 C275 0.961 . S
H291 C275 0.961 . S
H292 C276 0.931 . S
H293 C281 0.930 . S
H294 C282 0.956 . S
H295 C282 0.961 . S
H296 C282 0.961 . S
H297 C283 0.958 . S
H298 C283 0.961 . S
H299 C283 0.960 . S
C300 C301 1.391 . S
C300 C302 1.394 . S
C300 H316 0.931 . S
C301 C300 1.391 . S
C301 C305 1.376 . S
C302 C300 1.394 . S
C302 C303 1.369 . S
C302 C306 1.531 . S
C303 C302 1.369 . S
C303 C304 1.410 . S
C303 C311 1.503 . S
C304 C303 1.410 . S
C304 C305 1.392 . S
C304 C307 1.511 . S
C305 C301 1.376 . S
C305 C304 1.392 . S
C305 H317 0.929 . S
C306 C302 1.531 . S
C306 H318 0.960 . S
C306 H319 0.962 . S
C306 H320 0.960 . S
C307 C304 1.511 . S
C307 H321 0.961 . S
C307 H322 0.961 . S
C307 H323 0.961 . S
C308 C309 1.370 1_455 S
C308 C310 1.350 1_455 S
C308 H324 0.931 . S
C309 C308 1.370 1_655 S
C309 C313 1.408 . S
C310 C308 1.350 1_655 S
C310 C311 1.391 . S
C310 C314 1.516 1_655 S
C311 C303 1.503 . S
C311 C310 1.391 . S
C311 C312 1.403 . S
C312 C311 1.403 . S
C312 C313 1.404 . S
C312 C315 1.539 . S
C313 C309 1.408 . S
C313 C312 1.404 . S
C313 H325 0.930 . S
C314 C310 1.516 1_455 S
C314 H326 0.956 . S
C314 H327 0.961 . S
C314 H328 0.961 . S
C315 C312 1.539 . S
C315 H329 0.958 . S
C315 H330 0.961 . S
C315 H331 0.960 . S
H316 C300 0.931 . S
H317 C305 0.929 . S
H318 C306 0.960 . S
H319 C306 0.962 . S
H320 C306 0.960 . S
H321 C307 0.961 . S
H322 C307 0.961 . S
H323 C307 0.961 . S
H324 C308 0.931 . S
H325 C313 0.930 . S
H326 C314 0.956 . S
H327 C314 0.961 . S
H328 C314 0.961 . S
H329 C315 0.958 . S
H330 C315 0.961 . S
H331 C315 0.960 . S
C332 C333 1.391 . S
C332 C334 1.394 1_655 S
C332 H348 0.931 . S
C333 C332 1.391 . S
C333 C337 1.376 . S
C334 C332 1.394 1_455 S
C334 C335 1.369 . S
C334 C338 1.531 . S
C335 C334 1.369 . S
C335 C336 1.410 1_455 S
C335 C343 1.503 . S
C336 C335 1.410 1_655 S
C336 C337 1.392 . S
C336 C339 1.511 . S
C337 C333 1.376 . S
C337 C336 1.392 . S
C337 H349 0.929 . S
C338 C334 1.531 . S
C338 H350 0.960 . S
C338 H351 0.962 . S
C338 H352 0.960 . S
C339 C336 1.511 . S
C339 H353 0.961 . S
C339 H354 0.961 . S
C339 H355 0.961 . S
C340 C341 1.370 . S
C340 C342 1.363 . S
C340 H356 0.931 . S
C341 C340 1.370 . S
C341 C345 1.408 . S
C342 C340 1.363 . S
C342 C343 1.370 . S
C342 C346 1.524 . S
C343 C335 1.503 . S
C343 C342 1.370 . S
C343 C344 1.403 . S
C344 C343 1.403 . S
C344 C345 1.404 . S
C344 C347 1.539 . S
C345 C341 1.408 . S
C345 C344 1.404 . S
C345 H357 0.930 . S
C346 C342 1.524 . S
C346 H358 0.956 1_556 S
C346 H359 0.961 . S
C346 H360 0.961 1_556 S
C347 C344 1.539 . S
C347 H361 0.958 . S
C347 H362 0.961 . S
C347 H363 0.960 1_455 S
H348 C332 0.931 . S
H349 C337 0.929 . S
H350 C338 0.960 . S
H351 C338 0.962 . S
H352 C338 0.960 . S
H353 C339 0.961 . S
H354 C339 0.961 . S
H355 C339 0.961 . S
H356 C340 0.931 . S
H357 C345 0.930 . S
H358 C346 0.956 1_554 S
H359 C346 0.961 . S
H360 C346 0.961 1_554 S
H361 C347 0.958 . S
H362 C347 0.961 . S
H363 C347 0.960 1_655 S
C364 C365 1.391 . S
C364 C366 1.394 . S
C364 H380 0.931 . S
C365 C364 1.391 . S
C365 C369 1.376 . S
C366 C364 1.394 . S
C366 C367 1.369 . S
C366 C370 1.531 . S
C367 C366 1.369 . S
C367 C368 1.410 . S
C367 C375 1.503 . S
C368 C367 1.410 . S
C368 C369 1.392 . S
C368 C371 1.511 . S
C369 C365 1.376 . S
C369 C368 1.392 . S
C369 H381 0.929 . S
C370 C366 1.531 . S
C370 H382 0.960 . S
C370 H383 0.962 . S
C370 H384 0.960 . S
C371 C368 1.511 . S
C371 H385 0.961 . S
C371 H386 0.961 . S
C371 H387 0.961 . S
C372 C373 1.370 . S
C372 C374 1.363 . S
C372 H388 0.931 . S
C373 C372 1.370 . S
C373 C377 1.408 . S
C374 C372 1.363 . S
C374 C375 1.370 . S
C374 C378 1.524 . S
C375 C367 1.503 . S
C375 C374 1.370 . S
C375 C376 1.403 . S
C376 C375 1.403 . S
C376 C377 1.404 . S
C376 C379 1.539 . S
C377 C373 1.408 . S
C377 C376 1.404 . S
C377 H389 0.930 . S
C378 C374 1.524 . S
C378 H390 0.956 . S
C378 H391 0.961 . S
C378 H392 0.961 . S
C379 C376 1.539 . S
C379 H393 0.958 . S
C379 H394 0.961 . S
C379 H395 0.960 . S
H380 C364 0.931 . S
H381 C369 0.929 . S
H382 C370 0.960 . S
H383 C370 0.962 . S
H384 C370 0.960 . S
H385 C371 0.961 . S
H386 C371 0.961 . S
H387 C371 0.961 . S
H388 C372 0.931 . S
H389 C377 0.930 . S
H390 C378 0.956 . S
H391 C378 0.961 . S
H392 C378 0.961 . S
H393 C379 0.958 . S
H394 C379 0.961 . S
H395 C379 0.960 . S
C396 C397 1.391 . S
C396 C398 1.394 . S
C396 H412 0.931 . S
C397 C396 1.391 . S
C397 C401 1.376 . S
C398 C396 1.394 . S
C398 C399 1.369 . S
C398 C402 1.531 . S
C399 C398 1.369 . S
C399 C400 1.410 . S
C399 C407 1.503 . S
C400 C399 1.410 . S
C400 C401 1.392 . S
C400 C403 1.511 . S
C401 C397 1.376 . S
C401 C400 1.392 . S
C401 H413 0.929 . S
C402 C398 1.531 . S
C402 H414 0.960 . S
C402 H415 0.962 . S
C402 H416 0.960 . S
C403 C400 1.511 . S
C403 H417 0.961 . S
C403 H418 0.961 . S
C403 H419 0.961 . S
C404 C405 1.370 . S
C404 C406 1.363 . S
C404 H420 0.931 . S
C405 C404 1.370 . S
C405 C409 1.408 . S
C406 C404 1.363 . S
C406 C407 1.370 . S
C406 C410 1.524 . S
C407 C399 1.503 . S
C407 C406 1.370 . S
C407 C408 1.403 . S
C408 C407 1.403 . S
C408 C409 1.404 . S
C408 C411 1.539 . S
C409 C405 1.408 . S
C409 C408 1.404 . S
C409 H421 0.930 . S
C410 C406 1.524 . S
C410 H422 0.956 . S
C410 H423 0.961 . S
C410 H424 0.961 . S
C411 C408 1.539 . S
C411 H425 0.958 . S
C411 H426 0.961 . S
C411 H427 0.960 . S
H412 C396 0.931 . S
H413 C401 0.929 . S
H414 C402 0.960 . S
H415 C402 0.962 . S
H416 C402 0.960 . S
H417 C403 0.961 . S
H418 C403 0.961 . S
H419 C403 0.961 . S
H420 C404 0.931 . S
H421 C409 0.930 . S
H422 C410 0.956 . S
H423 C410 0.961 . S
H424 C410 0.961 . S
H425 C411 0.958 . S
H426 C411 0.961 . S
H427 C411 0.960 . S
C428 C429 1.391 . S
C428 C430 1.394 1_565 S
C428 H444 0.931 . S
C429 C428 1.391 . S
C429 C433 1.376 . S
C430 C428 1.394 1_545 S
C430 C431 1.369 . S
C430 C434 1.531 1_655 S
C431 C430 1.369 . S
C431 C432 1.410 1_545 S
C431 C439 1.503 . S
C432 C431 1.410 1_565 S
C432 C433 1.392 . S
C432 C435 1.511 . S
C433 C429 1.376 . S
C433 C432 1.392 . S
C433 H445 0.929 . S
C434 C430 1.531 1_455 S
C434 H446 0.960 . S
C434 H447 0.962 . S
C434 H448 0.960 . S
C435 C432 1.511 . S
C435 H449 0.961 . S
C435 H450 0.961 1_565 S
C435 H451 0.961 1_565 S
C436 C437 1.370 1_455 S
C436 C438 1.363 1_455 S
C436 H452 0.931 . S
C437 C436 1.370 1_655 S
C437 C441 1.408 . S
C438 C436 1.363 1_655 S
C438 C439 1.370 . S
C438 C442 1.524 1_655 S
C439 C431 1.503 . S
C439 C438 1.370 . S
C439 C440 1.403 . S
C440 C439 1.403 . S
C440 C441 1.404 . S
C440 C443 1.539 . S
C441 C437 1.408 . S
C441 C440 1.404 . S
C441 H453 0.930 . S
C442 C438 1.524 1_455 S
C442 H454 0.956 1_545 S
C442 H455 0.961 1_445 S
C442 H456 0.961 . S
C443 C440 1.539 . S
C443 H457 0.958 . S
C443 H458 0.961 . S
C443 H459 0.960 . S
H444 C428 0.931 . S
H445 C433 0.929 . S
H446 C434 0.960 . S
H447 C434 0.962 . S
H448 C434 0.960 . S
H449 C435 0.961 . S
H450 C435 0.961 1_545 S
H451 C435 0.961 1_545 S
H452 C436 0.931 . S
H453 C441 0.930 . S
H454 C442 0.956 1_565 S
H455 C442 0.961 1_665 S
H456 C442 0.961 . S
H457 C443 0.958 . S
H458 C443 0.961 . S
H459 C443 0.960 . S
C460 C461 1.391 . S
C460 C462 1.394 . S
C460 H476 0.931 . S
C461 C460 1.391 . S
C461 C465 1.376 . S
C462 C460 1.394 . S
C462 C463 1.369 . S
C462 C466 1.531 . S
C463 C462 1.369 . S
C463 C464 1.410 . S
C463 C471 1.503 . S
C464 C463 1.410 . S
C464 C465 1.392 . S
C464 C467 1.511 . S
C465 C461 1.376 . S
C465 C464 1.392 . S
C465 H477 0.929 . S
C466 C462 1.531 . S
C466 H478 0.960 . S
C466 H479 0.962 . S
C466 H480 0.960 1_554 S
C467 C464 1.511 . S
C467 H481 0.961 . S
C467 H482 0.961 . S
C467 H483 0.961 . S
C468 C469 1.370 . S
C468 C470 1.363 . S
C468 H484 0.931 . S
C469 C468 1.370 . S
C469 C473 1.408 . S
C470 C468 1.363 . S
C470 C471 1.370 . S
C470 C474 1.524 . S
C471 C463 1.503 . S
C471 C470 1.370 . S
C471 C472 1.403 . S
C472 C471 1.403 . S
C472 C473 1.404 . S
C472 C475 1.539 . S
C473 C469 1.408 . S
C473 C472 1.404 . S
C473 H485 0.930 . S
C474 C470 1.524 . S
C474 H486 0.956 . S
C474 H487 0.961 . S
C474 H488 0.961 . S
C475 C472 1.539 . S
C475 H489 0.958 1_554 S
C475 H490 0.961 . S
C475 H491 0.960 . S
H476 C460 0.931 . S
H477 C465 0.929 . S
H478 C466 0.960 . S
H479 C466 0.962 . S
H480 C466 0.960 1_556 S
H481 C467 0.961 . S
H482 C467 0.961 . S
H483 C467 0.961 . S
H484 C468 0.931 . S
H485 C473 0.930 . S
H486 C474 0.956 . S
H487 C474 0.961 . S
H488 C474 0.961 . S
H489 C475 0.958 1_556 S
H490 C475 0.961 . S
H491 C475 0.960 . S
C492 C493 1.391 . S
C492 C494 1.394 . S
C492 H508 0.931 . S
C493 C492 1.391 . S
C493 C497 1.376 . S
C494 C492 1.394 . S
C494 C495 1.369 . S
C494 C498 1.531 . S
C495 C494 1.369 . S
C495 C496 1.410 . S
C495 C503 1.503 . S
C496 C495 1.410 . S
C496 C497 1.392 . S
C496 C499 1.511 . S
C497 C493 1.376 . S
C497 C496 1.392 . S
C497 H509 0.929 . S
C498 C494 1.531 . S
C498 H510 0.960 . S
C498 H511 0.962 . S
C498 H512 0.960 . S
C499 C496 1.511 . S
C499 H513 0.961 . S
C499 H514 0.961 . S
C499 H515 0.961 . S
C500 C501 1.370 . S
C500 C502 1.363 . S
C500 H516 0.931 . S
C501 C500 1.370 . S
C501 C505 1.408 . S
C502 C500 1.363 . S
C502 C503 1.370 . S
C502 C506 1.524 . S
C503 C495 1.503 . S
C503 C502 1.370 . S
C503 C504 1.403 . S
C504 C503 1.403 . S
C504 C505 1.404 . S
C504 C507 1.539 . S
C505 C501 1.408 . S
C505 C504 1.404 . S
C505 H517 0.930 . S
C506 C502 1.524 . S
C506 H518 0.956 . S
C506 H519 0.961 . S
C506 H520 0.961 . S
C507 C504 1.539 . S
C507 H521 0.958 . S
C507 H522 0.961 . S
C507 H523 0.960 . S
H508 C492 0.931 . S
H509 C497 0.929 . S
H510 C498 0.960 . S
H511 C498 0.962 . S
H512 C498 0.960 . S
H513 C499 0.961 . S
H514 C499 0.961 . S
H515 C499 0.961 . S
H516 C500 0.931 . S
H517 C505 0.930 . S
H518 C506 0.956 . S
H519 C506 0.961 . S
H520 C506 0.961 . S
H521 C507 0.958 . S
H522 C507 0.961 . S
H523 C507 0.960 . S
C524 C525 1.391 . S
C524 C526 1.394 . S
C524 H540 0.931 . S
C525 C524 1.391 . S
C525 C529 1.376 . S
C526 C524 1.394 . S
C526 C527 1.369 . S
C526 C530 1.531 . S
C527 C526 1.369 . S
C527 C528 1.410 . S
C527 C535 1.503 . S
C528 C527 1.410 . S
C528 C529 1.392 . S
C528 C531 1.511 . S
C529 C525 1.376 . S
C529 C528 1.392 . S
C529 H541 0.929 . S
C530 C526 1.531 . S
C530 H542 0.960 . S
C530 H543 0.962 . S
C530 H544 0.960 . S
C531 C528 1.511 . S
C531 H545 0.961 . S
C531 H546 0.961 . S
C531 H547 0.961 . S
C532 C533 1.370 . S
C532 C534 1.363 . S
C532 H548 0.931 . S
C533 C532 1.370 . S
C533 C537 1.408 . S
C534 C532 1.363 . S
C534 C535 1.370 . S
C534 C538 1.524 . S
C535 C527 1.503 . S
C535 C534 1.370 . S
C535 C536 1.403 . S
C536 C535 1.403 . S
C536 C537 1.404 . S
C536 C539 1.539 . S
C537 C533 1.408 . S
C537 C536 1.404 . S
C537 H549 0.930 . S
C538 C534 1.524 . S
C538 H550 0.956 . S
C538 H551 0.961 . S
C538 H552 0.961 . S
C539 C536 1.539 . S
C539 H553 0.958 . S
C539 H554 0.961 . S
C539 H555 0.960 . S
H540 C524 0.931 . S
H541 C529 0.929 . S
H542 C530 0.960 . S
H543 C530 0.962 . S
H544 C530 0.960 . S
H545 C531 0.961 . S
H546 C531 0.961 . S
H547 C531 0.961 . S
H548 C532 0.931 . S
H549 C537 0.930 . S
H550 C538 0.956 . S
H551 C538 0.961 . S
H552 C538 0.961 . S
H553 C539 0.958 . S
H554 C539 0.961 . S
H555 C539 0.960 . S
C556 C557 1.391 . S
C556 C558 1.394 . S
C556 H572 0.931 . S
C557 C556 1.391 . S
C557 C561 1.376 . S
C558 C556 1.394 . S
C558 C559 1.369 . S
C558 C562 1.531 . S
C559 C558 1.369 . S
C559 C560 1.410 . S
C559 C567 1.503 . S
C560 C559 1.410 . S
C560 C561 1.392 . S
C560 C563 1.511 1_655 S
C561 C557 1.376 . S
C561 C560 1.392 . S
C561 H573 0.929 . S
C562 C558 1.531 . S
C562 H574 0.960 . S
C562 H575 0.962 . S
C562 H576 0.960 . S
C563 C560 1.511 1_455 S
C563 H577 0.961 . S
C563 H578 0.961 . S
C563 H579 0.961 . S
C564 C565 1.370 . S
C564 C566 1.363 . S
C564 H580 0.931 . S
C565 C564 1.370 . S
C565 C569 1.408 . S
C566 C564 1.363 . S
C566 C567 1.370 . S
C566 C570 1.524 . S
C567 C559 1.503 . S
C567 C566 1.370 . S
C567 C568 1.403 . S
C568 C567 1.403 . S
C568 C569 1.404 . S
C568 C571 1.539 . S
C569 C565 1.408 . S
C569 C568 1.404 . S
C569 H581 0.930 1_655 S
C570 C566 1.524 . S
C570 H582 0.956 . S
C570 H583 0.961 . S
C570 H584 0.961 . S
C571 C568 1.539 . S
C571 H585 0.958 . S
C571 H586 0.961 1_655 S
C571 H587 0.961 . S
H572 C556 0.931 . S
H573 C561 0.929 . S
H574 C562 0.960 . S
H575 C562 0.962 . S
H576 C562 0.960 . S
H577 C563 0.961 . S
H578 C563 0.961 . S
H579 C563 0.961 . S
H580 C564 0.931 . S
H581 C569 0.930 1_455 S
H582 C570 0.956 . S
H583 C570 0.961 . S
H584 C570 0.961 . S
H585 C571 0.958 . S
H586 C571 0.961 1_455 S
H587 C571 0.961 . S
C588 C589 1.391 . S
C588 C590 1.394 . S
C588 H604 0.931 . S
C589 C588 1.391 . S
C589 C593 1.376 . S
C590 C588 1.394 . S
C590 C591 1.369 . S
C590 C594 1.531 . S
C591 C590 1.369 . S
C591 C592 1.410 . S
C591 C599 1.503 . S
C592 C591 1.410 . S
C592 C593 1.392 . S
C592 C595 1.511 . S
C593 C589 1.376 . S
C593 C592 1.392 . S
C593 H605 0.929 . S
C594 C590 1.531 . S
C594 H606 0.960 . S
C594 H607 0.962 . S
C594 H608 0.960 . S
C595 C592 1.511 . S
C595 H609 0.961 . S
C595 H610 0.961 . S
C595 H611 0.961 . S
C596 C597 1.370 . S
C596 C598 1.363 . S
C596 H612 0.931 . S
C597 C596 1.370 . S
C597 C601 1.408 . S
C598 C596 1.363 . S
C598 C599 1.370 . S
C598 C602 1.524 . S
C599 C591 1.503 . S
C599 C598 1.370 . S
C599 C600 1.403 . S
C600 C599 1.403 . S
C600 C601 1.404 . S
C600 C603 1.539 . S
C601 C597 1.408 . S
C601 C600 1.404 . S
C601 H613 0.930 . S
C602 C598 1.524 . S
C602 H614 0.956 . S
C602 H615 0.961 . S
C602 H616 0.961 . S
C603 C600 1.539 . S
C603 H617 0.958 . S
C603 H618 0.961 . S
C603 H619 0.960 . S
H604 C588 0.931 . S
H605 C593 0.929 . S
H606 C594 0.960 . S
H607 C594 0.962 . S
H608 C594 0.960 . S
H609 C595 0.961 . S
H610 C595 0.961 . S
H611 C595 0.961 . S
H612 C596 0.931 . S
H613 C601 0.930 . S
H614 C602 0.956 . S
H615 C602 0.961 . S
H616 C602 0.961 . S
H617 C603 0.958 . S
H618 C603 0.961 . S
H619 C603 0.960 . S
C620 C621 1.392 1_655 S
C620 C622 1.376 1_655 S
C620 H636 0.947 . S
C621 C620 1.392 1_455 S
C621 C625 1.376 . S
C622 C620 1.376 1_455 S
C622 C623 1.369 . S
C622 C626 1.531 . S
C623 C622 1.369 . S
C623 C624 1.410 . S
C623 C631 1.503 . S
C624 C623 1.410 . S
C624 C625 1.392 . S
C624 C627 1.511 . S
C625 C621 1.376 . S
C625 C624 1.392 . S
C625 H637 0.929 . S
C626 C622 1.531 . S
C626 H638 0.960 . S
C626 H639 0.962 1_455 S
C626 H640 0.960 1_455 S
C627 C624 1.511 . S
C627 H641 0.961 . S
C627 H642 0.961 . S
C627 H643 0.961 . S
C628 C629 1.370 . S
C628 C630 1.363 . S
C628 H644 0.931 . S
C629 C628 1.370 . S
C629 C633 1.408 . S
C630 C628 1.363 . S
C630 C631 1.370 . S
C630 C634 1.524 . S
C631 C623 1.503 . S
C631 C630 1.370 . S
C631 C632 1.403 . S
C632 C631 1.403 . S
C632 C633 1.404 . S
C632 C635 1.539 . S
C633 C629 1.408 . S
C633 C632 1.404 . S
C633 H645 0.930 . S
C634 C630 1.524 . S
C634 H646 0.956 . S
C634 H647 0.961 . S
C634 H648 0.961 . S
C635 C632 1.539 . S
C635 H649 0.958 . S
C635 H650 0.961 . S
C635 H651 0.960 . S
H636 C620 0.947 . S
H637 C625 0.929 . S
H638 C626 0.960 . S
H639 C626 0.962 1_655 S
H640 C626 0.960 1_655 S
H641 C627 0.961 . S
H642 C627 0.961 . S
H643 C627 0.961 . S
H644 C628 0.931 . S
H645 C633 0.930 . S
H646 C634 0.956 . S
H647 C634 0.961 . S
H648 C634 0.961 . S
H649 C635 0.958 . S
H650 C635 0.961 . S
H651 C635 0.960 . S
C652 C653 1.391 . S
C652 C654 1.394 . S
C652 H668 0.931 . S
C653 C652 1.391 . S
C653 C657 1.376 . S
C654 C652 1.394 . S
C654 C655 1.369 . S
C654 C658 1.531 . S
C655 C654 1.369 . S
C655 C656 1.410 . S
C655 C663 1.503 . S
C656 C655 1.410 . S
C656 C657 1.392 . S
C656 C659 1.511 . S
C657 C653 1.376 . S
C657 C656 1.392 . S
C657 H669 0.929 . S
C658 C654 1.531 . S
C658 H670 0.960 . S
C658 H671 0.962 . S
C658 H672 0.960 . S
C659 C656 1.511 . S
C659 H673 0.961 . S
C659 H674 0.961 . S
C659 H675 0.961 . S
C660 C661 1.370 . S
C660 C662 1.363 . S
C660 H676 0.931 . S
C661 C660 1.370 . S
C661 C665 1.408 . S
C662 C660 1.363 . S
C662 C663 1.370 . S
C662 C666 1.524 . S
C663 C655 1.503 . S
C663 C662 1.370 . S
C663 C664 1.403 . S
C664 C663 1.403 . S
C664 C665 1.404 . S
C664 C667 1.539 . S
C665 C661 1.408 . S
C665 C664 1.404 . S
C665 H677 0.930 . S
C666 C662 1.524 . S
C666 H678 0.956 . S
C666 H679 0.961 . S
C666 H680 0.961 . S
C667 C664 1.539 . S
C667 H681 0.958 . S
C667 H682 0.961 . S
C667 H683 0.960 . S
H668 C652 0.931 . S
H669 C657 0.929 . S
H670 C658 0.960 . S
H671 C658 0.962 . S
H672 C658 0.960 . S
H673 C659 0.961 . S
H674 C659 0.961 . S
H675 C659 0.961 . S
H676 C660 0.931 . S
H677 C665 0.930 . S
H678 C666 0.956 . S
H679 C666 0.961 . S
H680 C666 0.961 . S
H681 C667 0.958 . S
H682 C667 0.961 . S
H683 C667 0.960 . S
C684 C685 1.391 . S
C684 C686 1.394 . S
C684 H700 0.931 . S
C685 C684 1.391 . S
C685 C689 1.376 . S
C686 C684 1.394 . S
C686 C687 1.369 . S
C686 C690 1.531 . S
C687 C686 1.369 . S
C687 C688 1.410 . S
C687 C695 1.503 . S
C688 C687 1.410 . S
C688 C689 1.392 . S
C688 C691 1.511 . S
C689 C685 1.376 . S
C689 C688 1.392 . S
C689 H701 0.929 . S
C690 C686 1.531 . S
C690 H702 0.960 . S
C690 H703 0.962 . S
C690 H704 0.960 . S
C691 C688 1.511 . S
C691 H705 0.961 . S
C691 H706 0.961 . S
C691 H707 0.961 . S
C692 C693 1.370 . S
C692 C694 1.363 . S
C692 H708 0.931 . S
C693 C692 1.370 . S
C693 C697 1.408 . S
C694 C692 1.363 . S
C694 C695 1.370 . S
C694 C698 1.524 . S
C695 C687 1.503 . S
C695 C694 1.370 . S
C695 C696 1.403 . S
C696 C695 1.403 . S
C696 C697 1.404 . S
C696 C699 1.539 . S
C697 C693 1.408 . S
C697 C696 1.404 . S
C697 H709 0.930 . S
C698 C694 1.524 . S
C698 H710 0.956 . S
C698 H711 0.961 . S
C698 H712 0.961 . S
C699 C696 1.539 . S
C699 H713 0.958 . S
C699 H714 0.961 . S
C699 H715 0.960 . S
H700 C684 0.931 . S
H701 C689 0.929 . S
H702 C690 0.960 . S
H703 C690 0.962 . S
H704 C690 0.960 . S
H705 C691 0.961 . S
H706 C691 0.961 . S
H707 C691 0.961 . S
H708 C692 0.931 . S
H709 C697 0.930 . S
H710 C698 0.956 . S
H711 C698 0.961 . S
H712 C698 0.961 . S
H713 C699 0.958 . S
H714 C699 0.961 . S
H715 C699 0.960 . S
C716 C717 1.391 . S
C716 C718 1.394 . S
C716 H732 0.931 . S
C717 C716 1.391 . S
C717 C721 1.376 . S
C718 C716 1.394 . S
C718 C719 1.369 . S
C718 C722 1.531 . S
C719 C718 1.369 . S
C719 C720 1.410 . S
C719 C727 1.503 . S
C720 C719 1.410 . S
C720 C721 1.392 . S
C720 C723 1.511 . S
C721 C717 1.376 . S
C721 C720 1.392 . S
C721 H733 0.929 . S
C722 C718 1.531 . S
C722 H734 0.960 . S
C722 H735 0.962 . S
C722 H736 0.960 . S
C723 C720 1.511 . S
C723 H737 0.961 . S
C723 H738 0.961 . S
C723 H739 0.961 . S
C724 C725 1.370 . S
C724 C726 1.363 . S
C724 H740 0.931 . S
C725 C724 1.370 . S
C725 C729 1.408 . S
C726 C724 1.363 . S
C726 C727 1.370 . S
C726 C730 1.524 . S
C727 C719 1.503 . S
C727 C726 1.370 . S
C727 C728 1.403 . S
C728 C727 1.403 . S
C728 C729 1.404 . S
C728 C731 1.539 . S
C729 C725 1.408 . S
C729 C728 1.404 . S
C729 H741 0.930 . S
C730 C726 1.524 . S
C730 H742 0.956 . S
C730 H743 0.961 . S
C730 H744 0.961 . S
C731 C728 1.539 . S
C731 H745 0.958 . S
C731 H746 0.961 . S
C731 H747 0.960 . S
H732 C716 0.931 . S
H733 C721 0.929 . S
H734 C722 0.960 . S
H735 C722 0.962 . S
H736 C722 0.960 . S
H737 C723 0.961 . S
H738 C723 0.961 . S
H739 C723 0.961 . S
H740 C724 0.931 . S
H741 C729 0.930 . S
H742 C730 0.956 . S
H743 C730 0.961 . S
H744 C730 0.961 . S
H745 C731 0.958 . S
H746 C731 0.961 . S
H747 C731 0.960 . S
C748 C749 1.391 1_455 S
C748 C750 1.394 . S
C748 H764 0.931 . S
C749 C748 1.391 1_655 S
C749 C753 1.376 . S
C750 C748 1.394 . S
C750 C751 1.369 1_455 S
C750 C754 1.531 . S
C751 C750 1.369 1_655 S
C751 C752 1.410 . S
C751 C759 1.503 1_565 S
C752 C751 1.410 . S
C752 C753 1.392 . S
C752 C755 1.511 1_565 S
C753 C749 1.376 . S
C753 C752 1.392 . S
C753 H765 0.929 . S
C754 C750 1.531 . S
C754 H766 0.960 . S
C754 H767 0.962 . S
C754 H768 0.960 . S
C755 C752 1.511 1_545 S
C755 H769 0.961 . S
C755 H770 0.961 . S
C755 H771 0.961 . S
C756 C757 1.370 . S
C756 C758 1.363 . S
C756 H772 0.931 . S
C757 C756 1.370 . S
C757 C761 1.408 1_455 S
C758 C756 1.363 . S
C758 C759 1.370 1_455 S
C758 C762 1.524 . S
C759 C751 1.503 1_545 S
C759 C758 1.370 1_655 S
C759 C760 1.403 . S
C760 C759 1.403 . S
C760 C761 1.404 . S
C760 C763 1.539 1_545 S
C761 C757 1.408 1_655 S
C761 C760 1.404 . S
C761 H773 0.930 . S
C762 C758 1.524 . S
C762 H774 0.956 . S
C762 H775 0.961 . S
C762 H776 0.961 . S
C763 C760 1.539 1_565 S
C763 H777 0.958 . S
C763 H778 0.961 1_565 S
C763 H779 0.960 . S
H764 C748 0.931 . S
H765 C753 0.929 . S
H766 C754 0.960 . S
H767 C754 0.962 . S
H768 C754 0.960 . S
H769 C755 0.961 . S
H770 C755 0.961 . S
H771 C755 0.961 . S
H772 C756 0.931 . S
H773 C761 0.930 . S
H774 C762 0.956 . S
H775 C762 0.961 . S
H776 C762 0.961 . S
H777 C763 0.958 . S
H778 C763 0.961 1_545 S
H779 C763 0.960 . S
C780 C781 1.391 . S
C780 C782 1.394 . S
C780 H796 0.931 . S
C781 C780 1.391 . S
C781 C785 1.376 . S
C782 C780 1.394 . S
C782 C783 1.369 . S
C782 C786 1.531 . S
C783 C782 1.369 . S
C783 C784 1.410 . S
C783 C791 1.503 . S
C784 C783 1.410 . S
C784 C785 1.392 . S
C784 C787 1.511 . S
C785 C781 1.376 . S
C785 C784 1.392 . S
C785 H797 0.929 . S
C786 C782 1.531 . S
C786 H798 0.960 . S
C786 H799 0.962 . S
C786 H800 0.960 . S
C787 C784 1.511 . S
C787 H801 0.961 . S
C787 H802 0.961 . S
C787 H803 0.961 . S
C788 C789 1.370 . S
C788 C790 1.363 . S
C788 H804 0.931 . S
C789 C788 1.370 . S
C789 C793 1.408 . S
C790 C788 1.363 . S
C790 C791 1.370 . S
C790 C794 1.524 . S
C791 C783 1.503 . S
C791 C790 1.370 . S
C791 C792 1.403 . S
C792 C791 1.403 . S
C792 C793 1.404 . S
C792 C795 1.539 . S
C793 C789 1.408 . S
C793 C792 1.404 . S
C793 H805 0.930 . S
C794 C790 1.524 . S
C794 H806 0.956 . S
C794 H807 0.961 . S
C794 H808 0.961 . S
C795 C792 1.539 . S
C795 H809 0.958 . S
C795 H810 0.961 . S
C795 H811 0.960 . S
H796 C780 0.931 . S
H797 C785 0.929 . S
H798 C786 0.960 . S
H799 C786 0.962 . S
H800 C786 0.960 . S
H801 C787 0.961 . S
H802 C787 0.961 . S
H803 C787 0.961 . S
H804 C788 0.931 . S
H805 C793 0.930 . S
H806 C794 0.956 . S
H807 C794 0.961 . S
H808 C794 0.961 . S
H809 C795 0.958 . S
H810 C795 0.961 . S
H811 C795 0.960 . S
C812 C813 1.391 . S
C812 C814 1.394 . S
C812 H828 0.931 . S
C813 C812 1.391 . S
C813 C817 1.376 . S
C814 C812 1.394 . S
C814 C815 1.369 . S
C814 C818 1.531 . S
C815 C814 1.369 . S
C815 C816 1.410 . S
C815 C823 1.503 . S
C816 C815 1.410 . S
C816 C817 1.392 . S
C816 C819 1.511 . S
C817 C813 1.376 . S
C817 C816 1.392 . S
C817 H829 0.929 . S
C818 C814 1.531 . S
C818 H830 0.960 . S
C818 H831 0.962 . S
C818 H832 0.960 . S
C819 C816 1.511 . S
C819 H833 0.961 . S
C819 H834 0.961 . S
C819 H835 0.961 . S
C820 C821 1.370 . S
C820 C822 1.363 . S
C820 H836 0.931 . S
C821 C820 1.370 . S
C821 C825 1.408 . S
C822 C820 1.363 . S
C822 C823 1.370 . S
C822 C826 1.524 . S
C823 C815 1.503 . S
C823 C822 1.370 . S
C823 C824 1.403 . S
C824 C823 1.403 . S
C824 C825 1.404 . S
C824 C827 1.539 . S
C825 C821 1.408 . S
C825 C824 1.404 . S
C825 H837 0.930 . S
C826 C822 1.524 . S
C826 H838 0.956 . S
C826 H839 0.961 . S
C826 H840 0.961 . S
C827 C824 1.539 . S
C827 H841 0.958 . S
C827 H842 0.961 . S
C827 H843 0.960 . S
H828 C812 0.931 . S
H829 C817 0.929 . S
H830 C818 0.960 . S
H831 C818 0.962 . S
H832 C818 0.960 . S
H833 C819 0.961 . S
H834 C819 0.961 . S
H835 C819 0.961 . S
H836 C820 0.931 . S
H837 C825 0.930 . S
H838 C826 0.956 . S
H839 C826 0.961 . S
H840 C826 0.961 . S
H841 C827 0.958 . S
H842 C827 0.961 . S
H843 C827 0.960 . S
C844 C845 1.391 . S
C844 C846 1.394 . S
C844 H860 0.931 . S
C845 C844 1.391 . S
C845 C849 1.376 . S
C846 C844 1.394 . S
C846 C847 1.369 . S
C846 C850 1.531 . S
C847 C846 1.369 . S
C847 C848 1.410 . S
C847 C855 1.503 . S
C848 C847 1.410 . S
C848 C849 1.392 . S
C848 C851 1.511 . S
C849 C845 1.376 . S
C849 C848 1.392 . S
C849 H861 0.929 . S
C850 C846 1.531 . S
C850 H862 0.960 1_554 S
C850 H863 0.962 . S
C850 H864 0.960 1_554 S
C851 C848 1.511 . S
C851 H865 0.961 . S
C851 H866 0.961 . S
C851 H867 0.961 . S
C852 C853 1.370 . S
C852 C854 1.363 . S
C852 H868 0.931 . S
C853 C852 1.370 . S
C853 C857 1.408 . S
C854 C852 1.363 . S
C854 C855 1.370 . S
C854 C858 1.524 . S
C855 C847 1.503 . S
C855 C854 1.370 . S
C855 C856 1.403 . S
C856 C855 1.403 . S
C856 C857 1.404 . S
C856 C859 1.539 . S
C857 C853 1.408 . S
C857 C856 1.404 . S
C857 H869 0.939 . S
C858 C854 1.524 . S
C858 H870 0.956 . S
C858 H871 0.961 . S
C858 H872 0.961 . S
C859 C856 1.539 . S
C859 H873 0.958 1_554 S
C859 H874 0.961 . S
C859 H875 0.960 . S
H860 C844 0.931 . S
H861 C849 0.929 . S
H862 C850 0.960 1_556 S
H863 C850 0.962 . S
H864 C850 0.960 1_556 S
H865 C851 0.961 . S
H866 C851 0.961 . S
H867 C851 0.961 . S
H868 C852 0.931 . S
H869 C857 0.939 . S
H870 C858 0.956 . S
H871 C858 0.961 . S
H872 C858 0.961 . S
H873 C859 0.958 1_556 S
H874 C859 0.961 . S
H875 C859 0.960 . S
C876 C877 1.391 . S
C876 C878 1.394 . S
C876 H892 0.931 . S
C877 C876 1.391 . S
C877 C881 1.376 . S
C878 C876 1.394 . S
C878 C879 1.369 . S
C878 C882 1.531 . S
C879 C878 1.369 . S
C879 C880 1.410 . S
C879 C887 1.503 . S
C880 C879 1.410 . S
C880 C881 1.392 . S
C880 C883 1.511 . S
C881 C877 1.376 . S
C881 C880 1.392 . S
C881 H893 0.929 . S
C882 C878 1.531 . S
C882 H894 0.960 . S
C882 H895 0.962 . S
C882 H896 0.960 . S
C883 C880 1.511 . S
C883 H897 0.961 . S
C883 H898 0.961 . S
C883 H899 0.961 . S
C884 C885 1.370 . S
C884 C886 1.363 . S
C884 H900 0.931 . S
C885 C884 1.370 . S
C885 C889 1.408 . S
C886 C884 1.363 . S
C886 C887 1.370 . S
C886 C890 1.524 . S
C887 C879 1.503 . S
C887 C886 1.370 . S
C887 C888 1.403 . S
C888 C887 1.403 . S
C888 C889 1.404 . S
C888 C891 1.539 . S
C889 C885 1.408 . S
C889 C888 1.404 . S
C889 H901 0.930 . S
C890 C886 1.524 . S
C890 H902 0.956 . S
C890 H903 0.961 . S
C890 H904 0.961 . S
C891 C888 1.539 . S
C891 H905 0.958 . S
C891 H906 0.961 . S
C891 H907 0.960 . S
H892 C876 0.931 . S
H893 C881 0.929 . S
H894 C882 0.960 . S
H895 C882 0.962 . S
H896 C882 0.960 . S
H897 C883 0.961 . S
H898 C883 0.961 . S
H899 C883 0.961 . S
H900 C884 0.931 . S
H901 C889 0.930 . S
H902 C890 0.956 . S
H903 C890 0.961 . S
H904 C890 0.961 . S
H905 C891 0.958 . S
H906 C891 0.961 . S
H907 C891 0.960 . S
C908 C909 1.391 . S
C908 C910 1.394 . S
C908 H924 0.931 . S
C909 C908 1.391 . S
C909 C913 1.376 . S
C910 C908 1.394 . S
C910 C911 1.369 . S
C910 C914 1.531 . S
C911 C910 1.369 . S
C911 C912 1.410 . S
C911 C919 1.503 . S
C912 C911 1.410 . S
C912 C913 1.392 . S
C912 C915 1.511 . S
C913 C909 1.376 . S
C913 C912 1.392 . S
C913 H925 0.929 . S
C914 C910 1.531 . S
C914 H926 0.960 . S
C914 H927 0.962 . S
C914 H928 0.960 . S
C915 C912 1.511 . S
C915 H929 0.961 . S
C915 H930 0.961 . S
C915 H931 0.961 . S
C916 C917 1.370 1_556 S
C916 C918 1.363 . S
C916 H932 0.931 . S
C917 C916 1.370 1_554 S
C917 C921 1.408 . S
C918 C916 1.363 . S
C918 C919 1.370 . S
C918 C922 1.524 . S
C919 C911 1.503 . S
C919 C918 1.370 . S
C919 C920 1.403 . S
C920 C919 1.403 . S
C920 C921 1.404 1_556 S
C920 C923 1.539 . S
C921 C917 1.408 . S
C921 C920 1.404 1_554 S
C921 H933 0.930 . S
C922 C918 1.524 . S
C922 H934 0.956 . S
C922 H935 0.961 . S
C922 H936 0.961 . S
C923 C920 1.539 . S
C923 H937 0.958 . S
C923 H938 0.954 1_556 S
C923 H939 0.960 . S
H924 C908 0.931 . S
H925 C913 0.929 . S
H926 C914 0.960 . S
H927 C914 0.962 . S
H928 C914 0.960 . S
H929 C915 0.961 . S
H930 C915 0.961 . S
H931 C915 0.961 . S
H932 C916 0.931 . S
H933 C921 0.930 . S
H934 C922 0.956 . S
H935 C922 0.961 . S
H936 C922 0.961 . S
H937 C923 0.958 . S
H938 C923 0.954 1_554 S
H939 C923 0.960 . S
C940 C941 1.391 . S
C940 C942 1.394 . S
C940 H956 0.931 . S
C941 C940 1.391 . S
C941 C945 1.376 . S
C942 C940 1.394 . S
C942 C943 1.369 . S
C942 C946 1.531 . S
C943 C942 1.369 . S
C943 C944 1.410 . S
C943 C951 1.503 . S
C944 C943 1.410 . S
C944 C945 1.392 . S
C944 C947 1.511 . S
C945 C941 1.376 . S
C945 C944 1.392 . S
C945 H957 0.929 . S
C946 C942 1.531 . S
C946 H958 0.960 . S
C946 H959 0.962 . S
C946 H960 0.960 . S
C947 C944 1.511 . S
C947 H961 0.961 . S
C947 H962 0.961 . S
C947 H963 0.961 . S
C948 C949 1.370 . S
C948 C950 1.363 . S
C948 H964 0.931 . S
C949 C948 1.370 . S
C949 C953 1.408 . S
C950 C948 1.363 . S
C950 C951 1.370 . S
C950 C954 1.524 . S
C951 C943 1.503 . S
C951 C950 1.370 . S
C951 C952 1.403 . S
C952 C951 1.403 . S
C952 C953 1.404 . S
C952 C955 1.539 . S
C953 C949 1.408 . S
C953 C952 1.404 . S
C953 H965 0.930 . S
C954 C950 1.524 . S
C954 H966 0.956 . S
C954 H967 0.961 . S
C954 H968 0.961 . S
C955 C952 1.539 . S
C955 H969 0.958 . S
C955 H970 0.961 . S
C955 H971 0.960 . S
H956 C940 0.931 . S
H957 C945 0.929 . S
H958 C946 0.960 . S
H959 C946 0.962 . S
H960 C946 0.960 . S
H961 C947 0.961 . S
H962 C947 0.961 . S
H963 C947 0.961 . S
H964 C948 0.931 . S
H965 C953 0.930 . S
H966 C954 0.956 . S
H967 C954 0.961 . S
H968 C954 0.961 . S
H969 C955 0.958 . S
H970 C955 0.961 . S
H971 C955 0.960 . S
C972 C973 1.391 . S
C972 C974 1.394 . S
C972 H988 0.931 . S
C973 C972 1.391 . S
C973 C977 1.376 . S
C974 C972 1.394 . S
C974 C975 1.369 . S
C974 C978 1.531 . S
C975 C974 1.369 . S
C975 C976 1.410 . S
C975 C983 1.503 . S
C976 C975 1.410 . S
C976 C977 1.392 . S
C976 C979 1.511 . S
C977 C973 1.376 . S
C977 C976 1.392 . S
C977 H989 0.929 . S
C978 C974 1.531 . S
C978 H990 0.960 . S
C978 H991 0.962 . S
C978 H992 0.960 . S
C979 C976 1.511 . S
C979 H993 0.961 . S
C979 H994 0.961 . S
C979 H995 0.961 . S
C980 C981 1.370 . S
C980 C982 1.363 . S
C980 H996 0.931 1_556 S
C981 C980 1.370 . S
C981 C985 1.408 . S
C982 C980 1.363 . S
C982 C983 1.370 . S
C982 C986 1.524 1_556 S
C983 C975 1.503 . S
C983 C982 1.370 . S
C983 C984 1.403 . S
C984 C983 1.403 . S
C984 C985 1.404 . S
C984 C987 1.539 . S
C985 C981 1.408 . S
C985 C984 1.404 . S
C985 H997 0.930 . S
C986 C982 1.524 1_554 S
C986 H998 0.956 . S
C986 H999 0.961 . S
C986 H1000 0.961 . S
C987 C984 1.539 . S
C987 H1001 0.958 . S
C987 H1002 0.961 . S
C987 H1003 0.960 . S
H988 C972 0.931 . S
H989 C977 0.929 . S
H990 C978 0.960 . S
H991 C978 0.962 . S
H992 C978 0.960 . S
H993 C979 0.961 . S
H994 C979 0.961 . S
H995 C979 0.961 . S
H996 C980 0.931 1_554 S
H997 C985 0.930 . S
H998 C986 0.956 . S
H999 C986 0.961 . S
H1000 C986 0.961 . S
H1001 C987 0.958 . S
H1002 C987 0.961 . S
H1003 C987 0.960 . S
C245 C164 1.480 . S
C237 C11 1.386 . S
C277 C167 1.767 . S
C269 C25 1.733 . S
C309 C165 1.285 1_655 S
C301 C40 1.185 . S
C341 C166 1.343 . S
C333 C59 1.244 . S
C373 C181 1.833 . S
C365 C6 1.809 . S
C405 C195 1.857 . S
C397 C21 1.808 . S
C429 C49 1.484 . S
C437 C221 1.583 . S
C469 C235 1.507 . S
C461 C68 1.376 . S
C501 C180 1.817 . S
C493 C30 1.618 . S
C525 C44 1.634 . S
C533 C194 1.644 . S
C565 C220 1.611 . S
C557 C63 1.581 . S
C597 C234 1.672 . S
C589 C2 1.647 . S
C621 C78 1.773 1_455 S
C629 C179 1.772 . S
C661 C152 1.653 . S
C653 C97 1.591 . S
C685 C120 1.671 . S
C693 C178 1.667 . S
C717 C139 1.593 . S
C725 C153 1.613 . S
C757 C208 1.457 . S
C749 C87 1.387 . S
C789 C222 1.583 . S
C781 C101 1.519 . S
C821 C192 1.598 . S
C813 C125 1.460 . S
C845 C144 1.651 . S
C853 C206 1.695 . S
C885 C209 1.715 . S
C877 C106 1.546 . S
C917 C223 1.616 . S
C909 C116 1.564 . S
C949 C193 1.672 . S
C941 C135 1.621 . S
C973 C82 1.813 . S
C981 C207 1.809 . S
