# Generated by pormake.
# Topology sqc, (4,8)-cn, num edge types: 1
# Building blocks:
#     Node 0, Type 0, BuildingBlock: KUFVIS_clean_linker_0, # of connection points: 4
#     Node 1, Type 0, BuildingBlock: KUFVIS_clean_linker_0, # of connection points: 4
#     Node 2, Type 0, BuildingBlock: KUFVIS_clean_linker_0, # of connection points: 4
#     Node 3, Type 0, BuildingBlock: KUFVIS_clean_linker_0, # of connection points: 4
#     Node 4, Type 0, BuildingBlock: KUFVIS_clean_linker_0, # of connection points: 4
#     Node 5, Type 0, BuildingBlock: KUFVIS_clean_linker_0, # of connection points: 4
#     Node 6, Type 0, BuildingBlock: KUFVIS_clean_linker_0, # of connection points: 4
#     Node 7, Type 0, BuildingBlock: KUFVIS_clean_linker_0, # of connection points: 4
#     Node 8, Type 1, BuildingBlock: TAGTUT_clean_sbu_3, # of connection points: 8
#     Node 9, Type 1, BuildingBlock: TAGTUT_clean_sbu_3, # of connection points: 8
#     Node 10, Type 1, BuildingBlock: TAGTUT_clean_sbu_3, # of connection points: 8
#     Node 11, Type 1, BuildingBlock: TAGTUT_clean_sbu_3, # of connection points: 8
#     Edge 12, Type (0, 1), BuildingBlock: UVAHIK_clean_linker_0, # of connection points: 2
#     Edge 13, Type (0, 1), BuildingBlock: UVAHIK_clean_linker_0, # of connection points: 2
#     Edge 14, Type (0, 1), BuildingBlock: UVAHIK_clean_linker_0, # of connection points: 2
#     Edge 15, Type (0, 1), BuildingBlock: UVAHIK_clean_linker_0, # of connection points: 2
#     Edge 16, Type (0, 1), BuildingBlock: UVAHIK_clean_linker_0, # of connection points: 2
#     Edge 17, Type (0, 1), BuildingBlock: UVAHIK_clean_linker_0, # of connection points: 2
#     Edge 18, Type (0, 1), BuildingBlock: UVAHIK_clean_linker_0, # of connection points: 2
#     Edge 19, Type (0, 1), BuildingBlock: UVAHIK_clean_linker_0, # of connection points: 2
#     Edge 20, Type (0, 1), BuildingBlock: UVAHIK_clean_linker_0, # of connection points: 2
#     Edge 21, Type (0, 1), BuildingBlock: UVAHIK_clean_linker_0, # of connection points: 2
#     Edge 22, Type (0, 1), BuildingBlock: UVAHIK_clean_linker_0, # of connection points: 2
#     Edge 23, Type (0, 1), BuildingBlock: UVAHIK_clean_linker_0, # of connection points: 2
#     Edge 24, Type (0, 1), BuildingBlock: UVAHIK_clean_linker_0, # of connection points: 2
#     Edge 25, Type (0, 1), BuildingBlock: UVAHIK_clean_linker_0, # of connection points: 2
#     Edge 26, Type (0, 1), BuildingBlock: UVAHIK_clean_linker_0, # of connection points: 2
#     Edge 27, Type (0, 1), BuildingBlock: UVAHIK_clean_linker_0, # of connection points: 2
#     Edge 28, Type (0, 1), BuildingBlock: UVAHIK_clean_linker_0, # of connection points: 2
#     Edge 29, Type (0, 1), BuildingBlock: UVAHIK_clean_linker_0, # of connection points: 2
#     Edge 30, Type (0, 1), BuildingBlock: UVAHIK_clean_linker_0, # of connection points: 2
#     Edge 31, Type (0, 1), BuildingBlock: UVAHIK_clean_linker_0, # of connection points: 2
#     Edge 32, Type (0, 1), BuildingBlock: UVAHIK_clean_linker_0, # of connection points: 2
#     Edge 33, Type (0, 1), BuildingBlock: UVAHIK_clean_linker_0, # of connection points: 2
#     Edge 34, Type (0, 1), BuildingBlock: UVAHIK_clean_linker_0, # of connection points: 2
#     Edge 35, Type (0, 1), BuildingBlock: UVAHIK_clean_linker_0, # of connection points: 2
#     Edge 36, Type (0, 1), BuildingBlock: UVAHIK_clean_linker_0, # of connection points: 2
#     Edge 37, Type (0, 1), BuildingBlock: UVAHIK_clean_linker_0, # of connection points: 2
#     Edge 38, Type (0, 1), BuildingBlock: UVAHIK_clean_linker_0, # of connection points: 2
#     Edge 39, Type (0, 1), BuildingBlock: UVAHIK_clean_linker_0, # of connection points: 2
#     Edge 40, Type (0, 1), BuildingBlock: UVAHIK_clean_linker_0, # of connection points: 2
#     Edge 41, Type (0, 1), BuildingBlock: UVAHIK_clean_linker_0, # of connection points: 2
#     Edge 42, Type (0, 1), BuildingBlock: UVAHIK_clean_linker_0, # of connection points: 2
#     Edge 43, Type (0, 1), BuildingBlock: UVAHIK_clean_linker_0, # of connection points: 2
# Relax obj value: 0.178
# Max RMSD: 0.272
# Mean RMSD: 0.223
data_MOF--net-sqc--node1-TAGTUT_clean_sbu_3--node2-KUFVIS_clean_linker_0--edge1-UVAHIK_clean_linker_0
_symmetry_space_group_name_H-M    P1
_symmetry_Int_Tables_number       1
_symmetry_cell_setting            triclinic
loop_
_symmetry_equiv_pos_as_xyz
'x, y, z'
_cell_length_a     31.310633
_cell_length_b     31.347301
_cell_length_c     89.130027
_cell_angle_alpha  90.769766
_cell_angle_beta   90.109636
_cell_angle_gamma 89.844682
loop_
_atom_site_label
_atom_site_type_symbol
_atom_site_fract_x
_atom_site_fract_y
_atom_site_fract_z
_atom_type_partial_charge
H0 H 0.90458 0.98918 0.49924 0.0
H1 H 0.02207 0.03912 0.51643 0.0
H2 H 0.0225 0.93808 0.48267 0.0
H3 H 0.0846 0.96703 0.47636 0.0
H4 H 0.2019 0.98932 0.49973 0.0
H5 H 0.08399 0.00992 0.52293 0.0
C6 C 0.93923 0.98894 0.49933 0.0
C7 C 0.96119 0.961 0.48975 0.0
C8 C 0.96099 0.01662 0.50904 0.0
C9 C 0.00585 0.01657 0.50913 0.0
C10 C 0.0292 0.98861 0.49955 0.0
C11 C 0.00607 0.96075 0.48988 0.0
C12 C 0.07729 0.98856 0.49963 0.0
C13 C 0.1007 0.97602 0.48668 0.0
C14 C 0.14552 0.9762 0.4868 0.0
C15 C 0.16722 0.98897 0.49976 0.0
C16 C 0.14524 0.00137 0.51269 0.0
C17 C 0.10039 0.00115 0.51266 0.0
H18 H 0.32592 0.873 0.75145 0.0
H19 H 0.25307 0.75885 0.75726 0.0
H20 H 0.37958 0.75248 0.738 0.0
H21 H 0.34163 0.70654 0.72232 0.0
H22 H 0.30214 0.58189 0.73539 0.0
H23 H 0.27895 0.68902 0.7649 0.0
C24 C 0.32386 0.8385 0.75069 0.0
C25 C 0.35739 0.815 0.74427 0.0
C26 C 0.2866 0.81844 0.75552 0.0
C27 C 0.28259 0.77403 0.75397 0.0
C28 C 0.31579 0.74985 0.74732 0.0
C29 C 0.35346 0.77065 0.74287 0.0
C30 C 0.31053 0.70354 0.74401 0.0
C31 C 0.32654 0.68618 0.73047 0.0
C32 C 0.32343 0.64248 0.72732 0.0
C33 C 0.3031 0.616 0.73757 0.0
C34 C 0.28682 0.63245 0.7511 0.0
C35 C 0.29067 0.67633 0.75431 0.0
H36 H 0.76624 0.96419 -0.00654 0.0
H37 H 0.6507 0.97864 0.0183 0.0
H38 H 0.65941 0.02498 0.97285 0.0
H39 H 0.6098 0.06798 0.97886 0.0
H40 H 0.48518 0.06134 -0.00208 0.0
H41 H 0.58349 0.98049 0.01488 0.0
C42 C 0.73303 0.97403 -0.00618 0.0
C43 C 0.71564 0.99725 0.98197 0.0
C44 C 0.70893 0.96614 0.00668 0.0
C45 C 0.66739 0.98274 0.00784 0.0
C46 C 0.64823 0.0044 -0.00427 0.0
C47 C 0.67279 0.01006 0.98265 0.0
C48 C 0.60336 0.02153 -0.00326 0.0
C49 C 0.58875 0.05349 0.9869 0.0
C50 C 0.54615 0.06725 0.9871 0.0
C51 C 0.51842 0.05156 -0.00202 0.0
C52 C 0.53226 0.02113 0.00825 0.0
C53 C 0.57422 0.00549 0.00732 0.0
H54 H 0.33677 0.43216 0.23924 0.0
H55 H 0.34453 0.31697 0.26444 0.0
H56 H 0.33533 0.31121 0.21604 0.0
H57 H 0.29552 0.24709 0.22453 0.0
H58 H 0.3541 0.13791 0.24487 0.0
H59 H 0.39472 0.26327 0.25794 0.0
C60 C 0.33716 0.39758 0.23957 0.0
C61 C 0.33528 0.37414 0.22612 0.0
C62 C 0.34047 0.37724 0.25339 0.0
C63 C 0.34212 0.33263 0.2537 0.0
C64 C 0.34045 0.30823 0.2403 0.0
C65 C 0.33621 0.32933 0.22647 0.0
C66 C 0.34496 0.26102 0.24095 0.0
C67 C 0.31906 0.23379 0.23209 0.0
C68 C 0.3219 0.18927 0.23366 0.0
C69 C 0.35185 0.17223 0.24363 0.0
C70 C 0.37788 0.1987 0.25242 0.0
C71 C 0.37437 0.24298 0.25108 0.0
H72 H 0.80868 0.35121 0.25048 0.0
H73 H 0.74769 0.2309 0.25747 0.0
H74 H 0.87393 0.23582 0.23796 0.0
H75 H 0.84347 0.18536 0.22297 0.0
H76 H 0.81053 0.05846 0.23547 0.0
H77 H 0.77658 0.16354 0.26456 0.0
C78 C 0.81004 0.31664 0.24998 0.0
C79 C 0.84549 0.29616 0.24359 0.0
C80 C 0.77527 0.29327 0.25522 0.0
C81 C 0.77551 0.24859 0.25394 0.0
C82 C 0.81069 0.22733 0.24732 0.0
C83 C 0.84606 0.25154 0.24265 0.0
C84 C 0.80972 0.18052 0.24416 0.0
C85 C 0.82881 0.16418 0.23095 0.0
C86 C 0.82933 0.12036 0.22786 0.0
C87 C 0.80911 0.09256 0.23767 0.0
C88 C 0.78986 0.10788 0.25086 0.0
C89 C 0.7905 0.15189 0.25416 0.0
H90 H 0.80166 0.94185 0.75921 0.0
H91 H 0.82347 0.81586 0.77504 0.0
H92 H 0.76625 0.83492 0.73131 0.0
H93 H 0.73539 0.77049 0.73676 0.0
H94 H 0.78269 0.64733 0.74916 0.0
H95 H 0.84941 0.75873 0.76408 0.0
C96 C 0.7986 0.90762 0.75759 0.0
C97 C 0.78039 0.89147 0.74434 0.0
C98 C 0.81535 0.88025 0.76833 0.0
C99 C 0.81211 0.83618 0.76616 0.0
C100 C 0.79444 0.81875 0.75284 0.0
C101 C 0.77905 0.84705 0.74182 0.0
C102 C 0.79257 0.77128 0.7507 0.0
C103 C 0.75955 0.75155 0.74229 0.0
C104 C 0.75638 0.70684 0.74164 0.0
C105 C 0.78601 0.68179 0.74933 0.0
C106 C 0.81889 0.70056 0.75765 0.0
C107 C 0.82279 0.74501 0.75796 0.0
H108 H 0.69424 0.51739 -0.00038 0.0
H109 H 0.58651 0.44201 0.98614 0.0
H110 H 0.57298 0.54228 0.0198 0.0
H111 H 0.5213 0.50101 0.02809 0.0
H112 H 0.4055 0.45378 0.00878 0.0
H113 H 0.5178 0.45898 0.98152 0.0
C114 C 0.66029 0.51083 0.00019 0.0
C115 C 0.63542 0.53327 0.01063 0.0
C116 C 0.64285 0.47847 0.99114 0.0
C117 C 0.59943 0.46804 -0.0072 0.0
C118 C 0.57311 0.49087 0.00308 0.0
C119 C 0.59187 0.52368 0.01193 0.0
C120 C 0.52655 0.48019 0.00469 0.0
C121 C 0.50485 0.48774 0.01842 0.0
C122 C 0.46131 0.47816 0.01985 0.0
C123 C 0.43949 0.4598 0.00775 0.0
C124 C 0.45968 0.4525 -0.00601 0.0
C125 C 0.50298 0.46329 0.9924 0.0
H126 H 0.26083 0.48019 0.49107 0.0
H127 H 0.14498 0.42119 0.50614 0.0
H128 H 0.13987 0.52698 0.4757 0.0
H129 H 0.08234 0.4766 0.46719 0.0
H130 H 0.96591 0.47833 0.49261 0.0
H131 H 0.08644 0.47082 0.5155 0.0
C132 C 0.22625 0.47799 0.49096 0.0
C133 C 0.2026 0.50683 0.48244 0.0
C134 C 0.2058 0.44666 0.4994 0.0
C135 C 0.16102 0.44508 0.49954 0.0
C136 C 0.13696 0.47375 0.49089 0.0
C137 C 0.15805 0.50426 0.48221 0.0
C138 C 0.0898 0.47309 0.49128 0.0
C139 C 0.06606 0.47585 0.47791 0.0
C140 C 0.02134 0.47706 0.47832 0.0
C141 C 0.0005 0.47653 0.49221 0.0
C142 C 0.02376 0.47442 0.50562 0.0
C143 C 0.06839 0.47188 0.50511 0.0
C144 C 0.14922 0.67599 0.13916 0.0
C145 C -0.00027 0.61399 0.14737 0.0
C146 C 0.96923 0.67726 0.10505 0.0
Mg147 Mg 0.17957 0.76234 0.12328 0.0
Mg148 Mg 0.11456 0.84042 0.11401 0.0
O149 O 0.12587 0.78182 0.11293 0.0
Mg150 Mg 0.08584 0.74151 0.12267 0.0
O151 O 0.04974 0.69827 0.13255 0.0
Mg152 Mg 0.06533 0.64739 0.1198 0.0
Mg153 Mg 0.99219 0.70733 0.13699 0.0
C154 C 0.02327 0.8074 0.10404 0.0
O155 O 0.06288 0.791 0.14016 0.0
O156 O 0.21437 0.80949 0.10788 0.0
O157 O 0.99722 0.77 0.14739 0.0
O158 O 0.17726 0.81572 0.1421 0.0
O159 O 0.16847 0.86117 0.10106 0.0
O160 O 0.12475 0.86102 0.13646 0.0
O161 O 0.10633 0.69196 0.10508 0.0
O162 O 0.17603 0.71008 0.10522 0.0
C163 C 0.14511 0.6864 0.1006 0.0
C164 C 0.2055 0.84359 0.10066 0.0
O165 O 0.03188 0.76901 0.10796 0.0
O166 O 0.027 0.60691 0.13686 0.0
O167 O 0.04901 0.83875 0.10614 0.0
O168 O 0.00388 0.65519 0.10483 0.0
O169 O 0.98305 0.6508 0.14978 0.0
O170 O 0.95968 0.70174 0.11608 0.0
O171 O 0.14016 0.71558 0.13713 0.0
O172 O 0.12498 0.64581 0.13436 0.0
C173 C 0.154 0.84835 0.14529 0.0
C174 C 0.02807 0.79683 0.14749 0.0
C175 C 0.65925 0.78199 0.38733 0.0
C176 C 0.70008 0.62245 0.38012 0.0
C177 C 0.62061 0.62798 0.34073 0.0
Mg178 Mg 0.57713 0.83642 0.37702 0.0
Mg179 Mg 0.48468 0.79477 0.36644 0.0
O180 O 0.54392 0.79204 0.36543 0.0
Mg181 Mg 0.57869 0.7404 0.36998 0.0
O182 O 0.61899 0.69262 0.37436 0.0
Mg183 Mg 0.66725 0.70865 0.36071 0.0
Mg184 Mg 0.60338 0.63538 0.37451 0.0
C185 C 0.49483 0.70417 0.35046 0.0
O186 O 0.5338 0.71416 0.38821 0.0
O187 O 0.53633 0.88737 0.36483 0.0
O188 O 0.5469 0.64307 0.38829 0.0
O189 O 0.52755 0.83794 0.39689 0.0
O190 O 0.47635 0.85618 0.35627 0.0
O191 O 0.47012 0.80059 0.38962 0.0
O192 O 0.62418 0.76205 0.35138 0.0
O193 O 0.62316 0.83191 0.35738 0.0
C194 C 0.63707 0.80046 0.34945 0.0
C195 C 0.50097 0.88866 0.35751 0.0
O196 O 0.53479 0.70153 0.35385 0.0
O197 O 0.70723 0.6558 0.37229 0.0
O198 O 0.47095 0.73549 0.35465 0.0
O199 O 0.64713 0.65893 0.34212 0.0
O200 O 0.6622 0.60935 0.38288 0.0
O201 O 0.59777 0.61583 0.35168 0.0
O202 O 0.61818 0.78117 0.38662 0.0
O203 O 0.68265 0.75733 0.37917 0.0
C204 C 0.49062 0.82197 0.39952 0.0
C205 C 0.52574 0.67611 0.39267 0.0
C206 C 0.64063 0.2024 0.64568 0.0
C207 C 0.50214 0.12772 0.64714 0.0
C208 C 0.47839 0.17806 0.60276 0.0
Mg209 Mg 0.673 0.2881 0.63091 0.0
Mg210 Mg 0.61116 0.36006 0.61523 0.0
O211 O 0.62597 0.30242 0.61637 0.0
Mg212 Mg 0.58353 0.26033 0.62366 0.0
O213 O 0.54604 0.21511 0.63146 0.0
Mg214 Mg 0.57221 0.16384 0.62154 0.0
Mg215 Mg 0.48747 0.21764 0.63455 0.0
C216 C 0.53113 0.31926 0.59877 0.0
O217 O 0.54797 0.30897 0.63856 0.0
O218 O 0.71433 0.33571 0.61763 0.0
O219 O 0.48265 0.28223 0.64353 0.0
O220 O 0.65506 0.34331 0.64796 0.0
O221 O 0.67076 0.38317 0.60662 0.0
O222 O 0.60437 0.38344 0.6375 0.0
O223 O 0.61637 0.21071 0.6084 0.0
O224 O 0.68319 0.23298 0.61407 0.0
C225 C 0.65735 0.2073 0.60726 0.0
C226 C 0.70817 0.36843 0.60936 0.0
O227 O 0.53789 0.28276 0.6048 0.0
O228 O 0.53174 0.12195 0.63736 0.0
O229 O 0.55394 0.35227 0.60182 0.0
O230 O 0.5161 0.16186 0.60381 0.0
O231 O 0.48219 0.1632 0.64871 0.0
O232 O 0.46254 0.20216 0.61299 0.0
O233 O 0.62933 0.24064 0.64246 0.0
O234 O 0.62333 0.16974 0.63944 0.0
C235 C 0.62792 0.37406 0.64865 0.0
C236 C 0.5105 0.31212 0.64425 0.0
C237 C 0.15206 0.31461 0.88912 0.0
C238 C 0.23156 0.17035 0.88163 0.0
C239 C 0.14743 0.15773 0.84221 0.0
Mg240 Mg 0.05949 0.34678 0.87786 0.0
Mg241 Mg 0.98051 0.28458 0.86539 0.0
O242 O 0.03899 0.29515 0.86655 0.0
Mg243 Mg 0.08529 0.25434 0.87178 0.0
O244 O 0.13619 0.21851 0.87656 0.0
Mg245 Mg 0.178 0.24542 0.86237 0.0
Mg246 Mg 0.13447 0.15919 0.87615 0.0
C247 C 0.0165 0.19814 0.85111 0.0
O248 O 0.04772 0.21786 0.89003 0.0
O249 O 0.00974 0.38572 0.86463 0.0
O250 O 0.07823 0.15245 0.88975 0.0
O251 O 0.00851 0.33554 0.89677 0.0
O252 O 0.96115 0.34205 0.85407 0.0
O253 O 0.9598 0.28899 0.88813 0.0
O254 O 0.12385 0.28633 0.85328 0.0
O255 O 0.10702 0.35422 0.85889 0.0
C256 C 0.1279 0.32649 0.85118 0.0
C257 C 0.97733 0.37921 0.85608 0.0
O258 O 0.05475 0.20538 0.85567 0.0
O259 O 0.22994 0.20437 0.87378 0.0
O260 O 0.98466 0.22281 0.85401 0.0
O261 O 0.16851 0.19264 0.84356 0.0
O262 O 0.19833 0.14783 0.88422 0.0
O263 O 0.12871 0.14088 0.8533 0.0
O264 O 0.11239 0.30388 0.8884 0.0
O265 O 0.18088 0.2965 0.88096 0.0
C266 C 0.97454 0.31319 0.89854 0.0
C267 C 0.04929 0.1787 0.89425 0.0
C268 C 0.20121 0.9904 0.46775 0.0
C269 C 0.17157 0.96201 0.47387 0.0
C270 C 0.23547 0.97511 0.45922 0.0
C271 C 0.28066 0.87991 0.43979 0.0
H272 H 0.38892 0.9298 0.4519 0.0
C273 C 0.43704 0.8063 0.41916 0.0
C274 C 0.4664 0.83489 0.41302 0.0
C275 C 0.40364 0.82102 0.4282 0.0
C276 C 0.35899 0.91571 0.44832 0.0
H277 H 0.15268 0.8959 0.47519 0.0
H278 H 0.21244 0.86887 0.46012 0.0
H279 H 0.32251 0.95798 0.46235 0.0
H280 H 0.48611 0.90099 0.41253 0.0
H281 H 0.42767 0.92705 0.42834 0.0
H282 H 0.31702 0.83779 0.42571 0.0
C283 C 0.20916 0.903 0.46181 0.0
C284 C 0.32085 0.93199 0.45424 0.0
C285 C 0.17474 0.9184 0.47033 0.0
C286 C 0.46423 0.87812 0.41728 0.0
C287 C 0.43049 0.89305 0.42625 0.0
C288 C 0.31877 0.86368 0.43386 0.0
C289 C 0.24092 0.93106 0.45673 0.0
C290 C 0.28121 0.91436 0.45002 0.0
C291 C 0.39863 0.86487 0.43118 0.0
C292 C 0.35843 0.88132 0.43806 0.0
H293 H 0.19953 0.02416 0.47047 0.0
H294 H 0.2588 0.99764 0.45518 0.0
H295 H 0.25071 0.86586 0.4362 0.0
H296 H 0.43825 0.77288 0.41614 0.0
H297 H 0.38047 0.79824 0.43219 0.0
C298 C 0.40573 0.82788 0.72252 0.0
C299 C 0.39341 0.83797 0.73731 0.0
C300 C 0.43053 0.85638 0.71438 0.0
C301 C 0.43343 0.96874 0.71152 0.0
H302 H 0.52506 0.95274 0.6828 0.0
C303 C 0.48117 0.10419 0.6726 0.0
C304 C 0.49384 0.0936 0.65793 0.0
C305 C 0.47612 0.0725 0.68325 0.0
C306 C 0.49909 0.95757 0.69065 0.0
H307 H 0.40209 0.8827 0.75583 0.0
H308 H 0.44459 0.93295 0.74146 0.0
H309 H 0.50816 0.89579 0.70035 0.0
H310 H 0.51094 0.0417 0.64279 0.0
H311 H 0.49947 0.98581 0.66114 0.0
H312 H 0.42179 0.0287 0.70139 0.0
C313 C 0.43475 0.90324 0.73617 0.0
C314 C 0.48985 0.92515 0.70077 0.0
C315 C 0.41034 0.87462 0.74434 0.0
C316 C 0.50104 0.05065 0.65405 0.0
C317 C 0.49497 0.01872 0.66463 0.0
C318 C 0.44199 0.00062 0.70126 0.0
C319 C 0.44307 0.89536 0.72092 0.0
C320 C 0.45686 0.93056 0.71126 0.0
C321 C 0.48252 0.02927 0.67939 0.0
C322 C 0.4748 0.9955 0.69062 0.0
H323 H 0.39309 0.79997 0.71678 0.0
H324 H 0.43645 0.84975 0.70261 0.0
H325 H 0.40708 0.97321 0.71925 0.0
H326 H 0.47632 0.13717 0.67599 0.0
H327 H 0.46763 0.0821 0.69457 0.0
C328 C 0.53541 0.08103 0.95985 0.0
C329 C 0.52859 0.09353 0.97485 0.0
C330 C 0.51028 0.098 0.94841 0.0
C331 C 0.45462 0.14373 0.9254 0.0
H332 H 0.33614 0.13844 0.93786 0.0
C333 C 0.30805 0.18618 0.88795 0.0
C334 C 0.27206 0.15969 0.88933 0.0
C335 C 0.34382 0.18028 0.8971 0.0
C336 C 0.36907 0.13987 0.93419 0.0
H337 H 0.49391 0.13701 0.9895 0.0
H338 H 0.45034 0.16718 0.96949 0.0
H339 H 0.39238 0.13041 0.95638 0.0
H340 H 0.24682 0.10429 0.90065 0.0
H341 H 0.30924 0.09399 0.9165 0.0
H342 H 0.43067 0.15205 0.90304 0.0
C343 C 0.47432 0.14349 0.96661 0.0
C344 C 0.40135 0.13602 0.94485 0.0
C345 C 0.4993 0.12639 0.97804 0.0
C346 C 0.27374 0.12556 0.89937 0.0
C347 C 0.30939 0.11979 0.90853 0.0
C348 C 0.42214 0.14787 0.9147 0.0
C349 C 0.47802 0.12782 0.95181 0.0
C350 C 0.44449 0.13735 0.94057 0.0
C351 C 0.34418 0.1479 0.90782 0.0
C352 C 0.37907 0.14516 0.91899 0.0
H353 H 0.55762 0.05556 0.95709 0.0
H354 H 0.51381 0.08515 0.93714 0.0
H355 H 0.48761 0.14495 0.9218 0.0
H356 H 0.30796 0.21267 0.88027 0.0
H357 H 0.37023 0.20239 0.89632 0.0
C358 C 0.2726 0.12702 0.23347 0.0
C359 C 0.29321 0.15942 0.22551 0.0
C360 C 0.25214 0.0937 0.22588 0.0
C361 C 0.20867 0.05791 0.18943 0.0
H362 H 0.23882 0.9452 0.20367 0.0
C363 C 0.20522 0.87585 0.16486 0.0
C364 C 0.1643 0.87618 0.15835 0.0
C365 C 0.21766 0.90869 0.17475 0.0
C366 C 0.23013 0.97642 0.19957 0.0
H367 H 0.30619 0.18401 0.20341 0.0
H368 H 0.26988 0.12557 0.19 0.0
H369 H 0.26546 0.00847 0.21691 0.0
H370 H 0.10326 0.90905 0.1582 0.0
H371 H 0.12461 0.96549 0.17553 0.0
H372 H 0.17404 0.02588 0.17192 0.0
C373 C 0.26975 0.12601 0.20215 0.0
C374 C 0.24504 0.01267 0.20721 0.0
C375 C 0.29039 0.15948 0.20979 0.0
C376 C 0.13512 0.90802 0.16287 0.0
C377 C 0.14747 0.94065 0.17271 0.0
C378 C 0.19349 0.02167 0.18186 0.0
C379 C 0.25166 0.09207 0.21014 0.0
C380 C 0.23461 0.05381 0.20219 0.0
C381 C 0.18935 0.94229 0.1783 0.0
C382 C 0.20419 0.98052 0.18681 0.0
H383 H 0.27377 0.12661 0.24562 0.0
H384 H 0.23762 0.06859 0.23234 0.0
H385 H 0.19998 0.08914 0.18534 0.0
H386 H 0.2285 0.85188 0.16159 0.0
H387 H 0.25019 0.90908 0.1789 0.0
C388 C 0.20493 0.99056 0.53072 0.0
C389 C 0.17076 0.01592 0.52577 0.0
C390 C 0.23687 0.00802 0.53981 0.0
C391 C 0.26746 0.09923 0.56392 0.0
H392 H 0.38092 0.07652 0.54818 0.0
C393 C 0.41213 0.18853 0.58769 0.0
C394 C 0.44916 0.16445 0.59053 0.0
C395 C 0.37934 0.17199 0.57878 0.0
C396 C 0.34958 0.08285 0.55284 0.0
H397 H 0.14126 0.0783 0.52736 0.0
H398 H 0.19696 0.10892 0.54358 0.0
H399 H 0.31905 0.04263 0.53649 0.0
H400 H 0.48166 0.10482 0.58559 0.0
H401 H 0.42384 0.07527 0.57029 0.0
H402 H 0.29781 0.13883 0.58043 0.0
C403 C 0.19909 0.07555 0.54035 0.0
C404 C 0.3141 0.06339 0.54615 0.0
C405 C 0.16707 0.05803 0.53117 0.0
C406 C 0.45374 0.12435 0.58349 0.0
C407 C 0.42047 0.1074 0.57474 0.0
C408 C 0.30297 0.11842 0.5707 0.0
C409 C 0.23522 0.05118 0.54419 0.0
C410 C 0.27268 0.07133 0.55162 0.0
C411 C 0.38224 0.13049 0.57272 0.0
C412 C 0.34451 0.11059 0.56523 0.0
H413 H 0.20834 0.95791 0.52674 0.0
H414 H 0.26383 0.98823 0.54288 0.0
H415 H 0.23597 0.1057 0.56844 0.0
H416 H 0.40757 0.2196 0.59292 0.0
H417 H 0.35103 0.19127 0.57708 0.0
C418 C 0.24357 0.84658 0.77696 0.0
C419 C 0.25196 0.84559 0.76153 0.0
C420 C 0.22005 0.88032 0.78327 0.0
C421 C 0.19997 0.99339 0.77577 0.0
H422 H 0.13123 0.98691 0.81174 0.0
C423 C 0.11369 0.10551 0.82465 0.0
C424 C 0.14795 0.13287 0.82803 0.0
C425 C 0.11768 0.07385 0.8136 0.0
C426 C 0.1497 0.98945 0.80154 0.0
H427 H 0.24008 0.87656 0.74038 0.0
H428 H 0.19786 0.9348 0.75128 0.0
H429 H 0.15064 0.92165 0.7983 0.0
H430 H 0.21206 0.15088 0.82172 0.0
H431 H 0.21961 0.095 0.80254 0.0
H432 H 0.19952 0.06117 0.77912 0.0
C433 C 0.21007 0.91028 0.75859 0.0
C434 C 0.16124 0.9519 0.79394 0.0
C435 C 0.23373 0.87675 0.75233 0.0
C436 C 0.18507 0.13037 0.81928 0.0
C437 C 0.18932 0.09826 0.8083 0.0
C438 C 0.18839 0.03096 0.78336 0.0
C439 C 0.20456 0.91349 0.77421 0.0
C440 C 0.18731 0.95334 0.78116 0.0
C441 C 0.15631 0.06848 0.80581 0.0
C442 C 0.16391 0.0294 0.79653 0.0
H443 H 0.25792 0.82316 0.78426 0.0
H444 H 0.21669 0.88193 0.79536 0.0
H445 H 0.22051 0.99573 0.76606 0.0
H446 H 0.08455 0.10711 0.83111 0.0
H447 H 0.09121 0.05225 0.81169 0.0
C448 C 0.47307 0.03235 0.02674 0.0
C449 C 0.5019 0.0045 0.01948 0.0
C450 C 0.44245 0.01659 0.03653 0.0
C451 C 0.41604 0.92699 0.06043 0.0
H452 H 0.29834 0.95852 0.05248 0.0
C453 C 0.27574 0.83945 0.08756 0.0
C454 C 0.23954 0.86331 0.09173 0.0
C455 C 0.30837 0.85807 0.07932 0.0
C456 C 0.33106 0.94995 0.05504 0.0
H457 H 0.52162 0.93832 0.01705 0.0
H458 H 0.46871 0.91101 0.03452 0.0
H459 H 0.3554 0.98924 0.03759 0.0
H460 H 0.20927 0.92553 0.09071 0.0
H461 H 0.26683 0.95846 0.07666 0.0
H462 H 0.39202 0.88818 0.07802 0.0
C463 C 0.47 0.94502 0.03257 0.0
C464 C 0.36366 0.96745 0.04648 0.0
C465 C 0.50034 0.9607 0.02262 0.0
C466 C 0.23663 0.90623 0.08753 0.0
C467 C 0.26956 0.92504 0.07944 0.0
C468 C 0.38349 0.90987 0.06914 0.0
C469 C 0.44042 0.97277 0.03941 0.0
C470 C 0.40634 0.95579 0.04901 0.0
C471 C 0.30579 0.90114 0.07522 0.0
C472 C 0.34057 0.9208 0.06643 0.0
H473 H 0.47397 0.06635 0.02476 0.0
H474 H 0.42023 0.03863 0.04183 0.0
H475 H 0.44883 0.9179 0.06267 0.0
H476 H 0.27873 0.80617 0.09053 0.0
H477 H 0.33536 0.83847 0.07599 0.0
C478 C 0.4328 0.14521 0.25974 0.0
C479 C 0.40574 0.17913 0.26383 0.0
C480 C 0.45112 0.11963 0.2707 0.0
C481 C 0.46784 0.10584 0.31167 0.0
H482 H 0.44762 0.98693 0.30141 0.0
C483 C 0.45188 0.92994 0.34088 0.0
C484 C 0.49001 0.9278 0.34919 0.0
C485 C 0.44384 0.9644 0.33154 0.0
C486 C 0.45324 0.01999 0.30449 0.0
H487 H 0.37915 0.21519 0.28249 0.0
H488 H 0.41075 0.17005 0.30176 0.0
H489 H 0.4343 0.0413 0.28286 0.0
H490 H 0.54854 0.96155 0.35479 0.0
H491 H 0.53441 0.02167 0.33837 0.0
H492 H 0.48583 0.08401 0.33352 0.0
C493 C 0.41823 0.16345 0.2901 0.0
C494 C 0.44628 0.05115 0.29377 0.0
C495 C 0.40015 0.18931 0.27909 0.0
C496 C 0.51889 0.96207 0.34851 0.0
C497 C 0.51078 0.99663 0.33915 0.0
C498 C 0.47504 0.07444 0.32243 0.0
C499 C 0.44229 0.1272 0.28597 0.0
C500 C 0.45323 0.09446 0.29723 0.0
C501 C 0.4737 0.99753 0.33027 0.0
C502 C 0.46725 0.03125 0.31898 0.0
H503 H 0.43784 0.13705 0.24802 0.0
H504 H 0.47036 0.09253 0.26719 0.0
H505 H 0.47353 0.13895 0.31464 0.0
H506 H 0.42869 0.9044 0.34124 0.0
H507 H 0.41455 0.96468 0.32505 0.0
C508 C 0.90102 0.06763 0.51365 0.0
C509 C 0.93544 0.04393 0.51934 0.0
C510 C 0.87044 0.08518 0.52329 0.0
C511 C 0.84674 0.11244 0.56289 0.0
H512 H 0.72929 0.09337 0.55054 0.0
C513 C 0.71074 0.15027 0.60333 0.0
C514 C 0.67711 0.17467 0.59753 0.0
C515 C 0.73932 0.12942 0.59374 0.0
C516 C 0.76186 0.09919 0.5541 0.0
H517 H 0.96643 0.0222 0.53957 0.0
H518 H 0.91304 0.05323 0.55656 0.0
H519 H 0.78761 0.07133 0.53401 0.0
H520 H 0.64505 0.19448 0.57727 0.0
H521 H 0.69529 0.15816 0.56032 0.0
H522 H 0.82118 0.14059 0.58291 0.0
C523 C 0.9097 0.05828 0.54462 0.0
C524 C 0.79532 0.08673 0.54462 0.0
C525 C 0.94042 0.04071 0.53493 0.0
C526 C 0.67037 0.17517 0.58198 0.0
C527 C 0.69935 0.1546 0.57231 0.0
C528 C 0.81334 0.12495 0.57236 0.0
C529 C 0.87359 0.07942 0.53886 0.0
C530 C 0.83816 0.0933 0.54889 0.0
C531 C 0.73527 0.13317 0.57811 0.0
C532 C 0.77047 0.11839 0.5681 0.0
H533 H 0.89667 0.07078 0.50165 0.0
H534 H 0.84362 0.10221 0.51852 0.0
H535 H 0.87931 0.11842 0.56644 0.0
H536 H 0.71654 0.14954 0.6153 0.0
H537 H 0.76588 0.11218 0.59859 0.0
C538 C 0.74505 0.04426 0.25628 0.0
C539 C 0.77246 0.07662 0.26149 0.0
C540 C 0.73419 0.0104 0.26552 0.0
C541 C 0.73456 0.97557 0.30506 0.0
H542 H 0.72841 0.86242 0.28694 0.0
C543 C 0.70448 0.83403 0.34203 0.0
C544 C 0.66809 0.81084 0.33779 0.0
C545 C 0.72515 0.85976 0.33171 0.0
C546 C 0.73011 0.89382 0.29213 0.0
H547 H 0.80921 0.09972 0.2805 0.0
H548 H 0.79065 0.04035 0.29669 0.0
H549 H 0.74573 0.92369 0.27141 0.0
H550 H 0.62689 0.79288 0.31928 0.0
H551 H 0.66311 0.83798 0.30107 0.0
H552 H 0.71885 0.94588 0.32574 0.0
C553 C 0.77695 0.04135 0.28553 0.0
C554 C 0.73968 0.92899 0.28325 0.0
C555 C 0.7875 0.07546 0.27631 0.0
C556 C 0.65541 0.80997 0.3227 0.0
C557 C 0.67598 0.83603 0.31233 0.0
C558 C 0.72537 0.94047 0.31393 0.0
C559 C 0.75085 0.00795 0.28014 0.0
C560 C 0.74163 0.97036 0.2896 0.0
C561 C 0.70936 0.86312 0.31701 0.0
C562 C 0.72283 0.89925 0.30757 0.0
H563 H 0.73293 0.04462 0.24488 0.0
H564 H 0.71315 0.98587 0.26112 0.0
H565 H 0.73505 0.00694 0.3103 0.0
H566 H 0.71449 0.83536 0.35366 0.0
H567 H 0.75138 0.8796 0.33554 0.0
C568 C 0.72836 0.96013 0.03383 0.0
C569 C 0.72867 0.94275 0.01924 0.0
C570 C 0.75167 0.94068 0.04525 0.0
C571 C 0.80887 0.84295 0.05642 0.0
H572 H 0.88861 0.9225 0.07471 0.0
C573 C 0.96487 0.79001 0.08584 0.0
C574 C 0.9817 0.8166 0.09714 0.0
C575 C 0.92759 0.80182 0.07825 0.0
C576 C 0.86601 0.89978 0.07007 0.0
H577 H 0.75102 0.89016 0.00529 0.0
H578 H 0.79178 0.85607 0.02528 0.0
H579 H 0.83294 0.94892 0.05839 0.0
H580 H 0.97155 0.87417 0.11035 0.0
H581 H 0.90549 0.89374 0.09776 0.0
H582 H 0.84223 0.79366 0.06809 0.0
C583 C 0.77356 0.88464 0.02789 0.0
C584 C 0.83411 0.91505 0.06065 0.0
C585 C 0.75063 0.90432 0.01645 0.0
C586 C 0.95949 0.85364 0.10143 0.0
C587 C 0.9218 0.86489 0.09414 0.0
C588 C 0.84055 0.82761 0.06607 0.0
C589 C 0.77531 0.90333 0.04228 0.0
C590 C 0.80563 0.88682 0.05356 0.0
C591 C 0.90615 0.84001 0.08209 0.0
C592 C 0.86994 0.85585 0.07285 0.0
H593 H 0.71182 0.98983 0.03625 0.0
H594 H 0.75237 0.95558 0.05628 0.0
H595 H 0.78715 0.82054 0.0511 0.0
H596 H 0.98158 0.76119 0.0824 0.0
H597 H 0.91673 0.78194 0.06899 0.0
C598 C 0.88325 0.88715 0.78272 0.0
C599 C 0.84004 0.89822 0.78101 0.0
C600 C 0.90923 0.91012 0.79267 0.0
C601 C 0.95428 0.99319 0.80226 0.0
H602 H 0.92393 0.02871 0.84272 0.0
C603 C 0.98977 0.15705 0.82904 0.0
C604 C 0.00784 0.15761 0.84342 0.0
C605 C 0.97799 0.11837 0.82232 0.0
C606 C 0.93316 0.01851 0.83152 0.0
H607 H 0.7892 0.93958 0.78895 0.0
H608 H 0.8344 0.97914 0.8067 0.0
H609 H 0.88457 0.97047 0.8304 0.0
H610 H 0.02812 0.11924 0.86217 0.0
H611 H 0.00568 0.05129 0.8506 0.0
H612 H 0.00087 0.04323 0.803 0.0
C613 C 0.84822 0.95294 0.80029 0.0
C614 C 0.91062 0.98544 0.82449 0.0
C615 C 0.82245 0.93052 0.79014 0.0
C616 C 0.0145 0.11918 0.85098 0.0
C617 C 0.00169 0.08056 0.84442 0.0
C618 C 0.97626 0.02678 0.80918 0.0
C619 C 0.8921 0.94388 0.80125 0.0
C620 C 0.92037 0.97323 0.80968 0.0
C621 C 0.98306 0.07998 0.8301 0.0
C622 C 0.96514 0.04029 0.82372 0.0
H623 H 0.89751 0.86256 0.77567 0.0
H624 H 0.943 0.90266 0.79324 0.0
H625 H 0.96207 0.98458 0.79077 0.0
H626 H 0.9842 0.18654 0.82313 0.0
H627 H 0.96316 0.1186 0.81133 0.0
C628 C 0.90028 0.91156 0.48476 0.0
C629 C 0.93589 0.93377 0.47934 0.0
C630 C 0.87031 0.89413 0.47485 0.0
C631 C 0.85031 0.86326 0.4354 0.0
H632 H 0.73246 0.89062 0.4451 0.0
C633 C 0.71886 0.83153 0.39247 0.0
C634 C 0.68186 0.8113 0.39761 0.0
C635 C 0.74755 0.85007 0.40255 0.0
C636 C 0.76511 0.88237 0.4423 0.0
H637 H 0.96965 0.95267 0.45934 0.0
H638 H 0.91742 0.92159 0.44191 0.0
H639 H 0.78942 0.9112 0.46247 0.0
H640 H 0.64429 0.79666 0.41721 0.0
H641 H 0.69501 0.82867 0.43507 0.0
H642 H 0.82624 0.83406 0.41533 0.0
C643 C 0.91264 0.91781 0.45384 0.0
C644 C 0.79777 0.89407 0.45225 0.0
C645 C 0.94267 0.9354 0.4638 0.0
C646 C 0.6724 0.81258 0.41298 0.0
C647 C 0.70158 0.83072 0.42318 0.0
C648 C 0.8177 0.8514 0.42549 0.0
C649 C 0.87538 0.89834 0.4593 0.0
C650 C 0.84074 0.88473 0.44889 0.0
C651 C 0.74035 0.84809 0.41807 0.0
C652 C 0.7747 0.86107 0.42875 0.0
H653 H 0.89456 0.90949 0.49671 0.0
H654 H 0.84249 0.87842 0.47938 0.0
H655 H 0.883 0.85515 0.43258 0.0
H656 H 0.72677 0.831 0.38064 0.0
H657 H 0.77636 0.86435 0.39819 0.0
C658 C 0.8984 0.11218 0.21426 0.0
C659 C 0.85471 0.10266 0.21529 0.0
C660 C 0.92457 0.08896 0.20443 0.0
C661 C 0.96888 0.00597 0.19478 0.0
H662 H 0.93848 0.96912 0.15445 0.0
C663 C 0.006 0.84052 0.16965 0.0
C664 C 0.02097 0.83826 0.15487 0.0
C665 C 0.99461 0.87985 0.17601 0.0
C666 C 0.9478 0.97964 0.16561 0.0
H667 H 0.80333 0.0641 0.2062 0.0
H668 H 0.8489 0.02395 0.18879 0.0
H669 H 0.90009 0.02882 0.16625 0.0
H670 H 0.03564 0.87443 0.13501 0.0
H671 H 0.01449 0.94334 0.14603 0.0
H672 H 0.01484 0.95516 0.19447 0.0
C673 C 0.86298 0.04915 0.19559 0.0
C674 C 0.92575 0.01357 0.17235 0.0
C675 C 0.83697 0.07188 0.20557 0.0
C676 C 0.02485 0.87573 0.14655 0.0
C677 C 0.01255 0.91494 0.15278 0.0
C678 C 0.99048 0.97166 0.18812 0.0
C679 C 0.90724 0.05642 0.19533 0.0
C680 C 0.93538 0.02628 0.18714 0.0
C681 C 0.99697 0.91723 0.16752 0.0
C682 C 0.97932 0.95754 0.17364 0.0
H683 H 0.9128 0.1356 0.22174 0.0
H684 H 0.95859 0.09517 0.20438 0.0
H685 H 0.97663 0.01489 0.20625 0.0
H686 H 0.00234 0.8118 0.17615 0.0
H687 H 0.98205 0.88077 0.18733 0.0
C688 C 0.77593 0.98662 0.96374 0.0
C689 C 0.74371 0.01277 0.96985 0.0
C690 C 0.80668 0.00375 0.95425 0.0
C691 C 0.8341 0.09819 0.93164 0.0
H692 H 0.95021 0.06699 0.94215 0.0
C693 C 0.98165 0.18776 0.90915 0.0
C694 C 0.01506 0.16164 0.90386 0.0
C695 C 0.94777 0.17018 0.91718 0.0
C696 C 0.91796 0.07577 0.939 0.0
H697 H 0.71734 0.07691 0.97028 0.0
H698 H 0.77078 0.1066 0.95373 0.0
H699 H 0.89074 0.03286 0.95471 0.0
H700 H 0.03944 0.09658 0.90319 0.0
H701 H 0.98067 0.06633 0.91701 0.0
H702 H 0.86162 0.14141 0.91597 0.0
C703 C 0.77212 0.07284 0.95612 0.0
C704 C 0.8839 0.05604 0.94612 0.0
C705 C 0.74142 0.05575 0.9656 0.0
C706 C 0.01439 0.11784 0.90711 0.0
C707 C 0.98071 0.10039 0.91509 0.0
C708 C 0.86827 0.11798 0.92449 0.0
C709 C 0.80578 0.04733 0.95072 0.0
C710 C 0.84161 0.06695 0.94251 0.0
C711 C 0.94686 0.12623 0.92009 0.0
C712 C 0.91053 0.10684 0.92808 0.0
H713 H 0.77811 0.95325 0.96667 0.0
H714 H 0.83183 0.98314 0.94999 0.0
H715 H 0.80182 0.10707 0.92857 0.0
H716 H 0.98145 0.22158 0.90694 0.0
H717 H 0.92232 0.19089 0.92113 0.0
C718 C 0.73712 0.95505 0.73749 0.0
C719 C 0.76531 0.92233 0.73308 0.0
C720 C 0.72904 0.98929 0.72806 0.0
C721 C 0.73919 0.02624 0.68895 0.0
H722 H 0.73042 0.13813 0.70791 0.0
C723 C 0.70953 0.17099 0.65289 0.0
C724 C 0.67271 0.19351 0.65721 0.0
C725 C 0.73028 0.1444 0.66303 0.0
C726 C 0.73292 0.10713 0.70246 0.0
H727 H 0.80607 0.89878 0.71523 0.0
H728 H 0.79216 0.95888 0.69862 0.0
H729 H 0.74474 0.07565 0.72321 0.0
H730 H 0.63088 0.20939 0.67572 0.0
H731 H 0.66734 0.16341 0.6936 0.0
H732 H 0.72685 0.05757 0.66824 0.0
C733 C 0.7759 0.9579 0.70932 0.0
C734 C 0.74079 0.07124 0.71122 0.0
C735 C 0.78375 0.92337 0.71876 0.0
C736 C 0.65983 0.19303 0.67226 0.0
C737 C 0.68052 0.16631 0.68244 0.0
C738 C 0.73158 0.06211 0.68019 0.0
C739 C 0.74929 0.99184 0.71403 0.0
C740 C 0.74326 0.03024 0.7046 0.0
C741 C 0.71426 0.13971 0.67763 0.0
C742 C 0.72777 0.10291 0.68687 0.0
H743 H 0.72248 0.95483 0.7485 0.0
H744 H 0.70745 0.01418 0.73188 0.0
H745 H 0.74042 0.9952 0.68348 0.0
H746 H 0.7197 0.17064 0.64129 0.0
H747 H 0.75677 0.12499 0.65909 0.0
C748 C 0.70258 0.478 0.97255 0.0
C749 C 0.67165 0.45516 0.98056 0.0
C750 C 0.7351 0.45673 0.96484 0.0
C751 C 0.7683 0.36081 0.94584 0.0
H752 H 0.88263 0.3934 0.95828 0.0
C753 C 0.91432 0.29134 0.91515 0.0
C754 C 0.94743 0.32007 0.91198 0.0
C755 C 0.88283 0.3018 0.92566 0.0
C756 C 0.85104 0.38414 0.95454 0.0
H757 H 0.64888 0.3918 0.98577 0.0
H758 H 0.70528 0.35434 0.9716 0.0
H759 H 0.82084 0.42386 0.97118 0.0
H760 H 0.97448 0.38154 0.91796 0.0
H761 H 0.9189 0.40063 0.93582 0.0
H762 H 0.79787 0.32319 0.9286 0.0
C763 C 0.70449 0.38889 0.97169 0.0
C764 C 0.81568 0.40141 0.96201 0.0
C765 C 0.67212 0.4103 0.97968 0.0
C766 C 0.94969 0.35848 0.92022 0.0
C767 C 0.91765 0.36938 0.93053 0.0
C768 C 0.80366 0.34409 0.93815 0.0
C769 C 0.73701 0.41206 0.96465 0.0
C770 C 0.77404 0.3904 0.95758 0.0
C771 C 0.88298 0.34176 0.93303 0.0
C772 C 0.84559 0.35605 0.94224 0.0
H773 H 0.70258 0.51257 0.97272 0.0
H774 H 0.75934 0.47524 0.95923 0.0
H775 H 0.73645 0.35208 0.94218 0.0
H776 H 0.91152 0.2615 0.90898 0.0
H777 H 0.85749 0.27909 0.92757 0.0
C778 C 0.89242 0.36068 0.24291 0.0
C779 C 0.87898 0.322 0.23631 0.0
C780 C 0.91542 0.39005 0.23456 0.0
C781 C 0.97469 0.40967 0.19977 0.0
H782 H 0.90807 0.51409 0.19906 0.0
C783 C 0.99552 0.53639 0.15369 0.0
C784 C 0.98959 0.57939 0.15783 0.0
C785 C 0.98681 0.50405 0.1639 0.0
C786 C 0.92774 0.48565 0.1993 0.0
H787 H 0.88276 0.28202 0.21628 0.0
H788 H 0.92368 0.33316 0.2018 0.0
H789 H 0.8899 0.45886 0.21669 0.0
H790 H 0.97142 0.62236 0.17601 0.0
H791 H 0.95786 0.56649 0.19389 0.0
H792 H 0.01282 0.43668 0.18242 0.0
C793 C 0.91616 0.34073 0.2134 0.0
C794 C 0.91721 0.45395 0.20941 0.0
C795 C 0.8928 0.31144 0.22171 0.0
C796 C 0.9755 0.58947 0.17239 0.0
C797 C 0.96761 0.55733 0.18265 0.0
C798 C 0.98576 0.44182 0.18977 0.0
C799 C 0.92579 0.38104 0.21953 0.0
C800 C 0.94035 0.41559 0.20969 0.0
C801 C 0.9727 0.51417 0.17851 0.0
C802 C 0.96216 0.48011 0.18934 0.0
H803 H 0.88301 0.36928 0.25424 0.0
H804 H 0.92309 0.42076 0.23957 0.0
H805 H 0.99288 0.38022 0.19977 0.0
H806 H 0.0064 0.52772 0.14253 0.0
H807 H 0.9905 0.47118 0.16024 0.0
C808 C 0.95995 0.45462 0.46223 0.0
C809 C 0.99574 0.48082 0.46445 0.0
C810 C 0.93157 0.46243 0.45051 0.0
C811 C 0.91414 0.52448 0.41579 0.0
H812 H 0.79675 0.52551 0.4296 0.0
C813 C 0.77789 0.61708 0.38662 0.0
C814 C 0.73668 0.59935 0.38674 0.0
C815 C 0.81159 0.59701 0.39405 0.0
C816 C 0.82921 0.52464 0.42542 0.0
H817 H 0.03148 0.53406 0.45574 0.0
H818 H 0.98142 0.54829 0.43531 0.0
H819 H 0.85264 0.49951 0.44598 0.0
H820 H 0.69919 0.5453 0.39402 0.0
H821 H 0.75801 0.51011 0.40677 0.0
H822 H 0.89038 0.55082 0.39532 0.0
C823 C 0.97554 0.52136 0.4425 0.0
C824 C 0.86133 0.50968 0.43483 0.0
C825 C 0.00416 0.51331 0.45419 0.0
C826 C 0.73037 0.56016 0.39387 0.0
C827 C 0.76407 0.54002 0.40122 0.0
C828 C 0.88185 0.53949 0.40634 0.0
C829 C 0.93819 0.49687 0.44085 0.0
C830 C 0.9042 0.50973 0.4302 0.0
C831 C 0.80481 0.55871 0.40171 0.0
C832 C 0.83906 0.54007 0.41112 0.0
H833 H 0.95316 0.42895 0.46988 0.0
H834 H 0.9036 0.44239 0.44932 0.0
H835 H 0.94685 0.52462 0.41187 0.0
H836 H 0.78389 0.64722 0.38122 0.0
H837 H 0.84249 0.61245 0.39433 0.0
C838 C 0.69515 0.65675 0.74091 0.0
C839 C 0.72224 0.68463 0.73325 0.0
C840 C 0.67199 0.62573 0.73304 0.0
C841 C 0.6412 0.58623 0.69504 0.0
H842 H 0.66071 0.475 0.71245 0.0
C843 C 0.66001 0.40387 0.67244 0.0
C844 C 0.62658 0.40306 0.66191 0.0
C845 C 0.66265 0.43703 0.68309 0.0
C846 C 0.65488 0.5058 0.70747 0.0
H847 H 0.74415 0.7044 0.71145 0.0
H848 H 0.70365 0.65011 0.69757 0.0
H849 H 0.67965 0.53922 0.72662 0.0
H850 H 0.56803 0.43455 0.65512 0.0
H851 H 0.57187 0.49117 0.67388 0.0
H852 H 0.61843 0.55275 0.67559 0.0
C853 C 0.69988 0.65234 0.70963 0.0
C854 C 0.66523 0.54268 0.71565 0.0
C855 C 0.72298 0.68355 0.71753 0.0
C856 C 0.59424 0.43419 0.66301 0.0
C857 C 0.59666 0.46699 0.67368 0.0
C858 C 0.63074 0.54935 0.68688 0.0
C859 C 0.67576 0.62184 0.71738 0.0
C860 C 0.65931 0.58331 0.70941 0.0
C861 C 0.63176 0.46978 0.68345 0.0
C862 C 0.63828 0.50868 0.69288 0.0
H863 H 0.69429 0.65704 0.75306 0.0
H864 H 0.65302 0.60327 0.7393 0.0
H865 H 0.63603 0.61703 0.68997 0.0
H866 H 0.68549 0.38047 0.67189 0.0
H867 H 0.69024 0.43832 0.69043 0.0
C868 C 0.65668 0.55646 0.03646 0.0
C869 C 0.65716 0.5636 0.02096 0.0
C870 C 0.68657 0.57658 0.04583 0.0
C871 C 0.7698 0.66048 0.04832 0.0
H872 H 0.83002 0.57653 0.07203 0.0
C873 C 0.90195 0.69985 0.09214 0.0
C874 C 0.937 0.67171 0.09298 0.0
C875 C 0.86801 0.69144 0.08237 0.0
C876 C 0.81374 0.60029 0.06538 0.0
H877 H 0.68623 0.60015 0.00325 0.0
H878 H 0.73806 0.63572 0.01962 0.0
H879 H 0.76603 0.55581 0.05821 0.0
H880 H 0.96477 0.61383 0.0836 0.0
H881 H 0.90512 0.59888 0.06661 0.0
H882 H 0.81801 0.70489 0.05549 0.0
C883 C 0.7149 0.61453 0.02457 0.0
C884 C 0.77667 0.58861 0.05767 0.0
C885 C 0.68527 0.59417 0.01519 0.0
C886 C 0.93829 0.6361 0.08325 0.0
C887 C 0.904 0.62738 0.07361 0.0
C888 C 0.80675 0.67233 0.0562 0.0
C889 C 0.71716 0.6044 0.03985 0.0
C890 C 0.75437 0.61846 0.04899 0.0
C891 C 0.86803 0.65437 0.07336 0.0
C892 C 0.82931 0.64219 0.0647 0.0
H893 H 0.63553 0.53283 0.04115 0.0
H894 H 0.68721 0.56867 0.05762 0.0
H895 H 0.7533 0.68413 0.0417 0.0
H896 H 0.89997 0.72772 0.09942 0.0
H897 H 0.84076 0.71281 0.08245 0.0
C898 C 0.71626 0.34557 0.25234 0.0
C899 C 0.73874 0.31721 0.26151 0.0
C900 C 0.69037 0.37728 0.25869 0.0
C901 C 0.67485 0.46077 0.2751 0.0
H902 H 0.61438 0.45187 0.31279 0.0
C903 C 0.65599 0.60049 0.31727 0.0
C904 C 0.62072 0.60082 0.32699 0.0
C905 C 0.66098 0.56762 0.30662 0.0
C906 C 0.63042 0.45501 0.30211 0.0
H907 H 0.75022 0.29774 0.28434 0.0
H908 H 0.70522 0.35335 0.29558 0.0
H909 H 0.637 0.3873 0.29958 0.0
H910 H 0.56114 0.56923 0.33215 0.0
H911 H 0.56889 0.51323 0.31327 0.0
H912 H 0.66868 0.52851 0.27772 0.0
C913 C 0.70685 0.35087 0.28346 0.0
C914 C 0.64385 0.4179 0.29464 0.0
C915 C 0.73255 0.31891 0.27707 0.0
C916 C 0.58873 0.56989 0.32489 0.0
C917 C 0.59344 0.53741 0.31417 0.0
C918 C 0.66131 0.4979 0.28256 0.0
C919 C 0.68692 0.38154 0.27436 0.0
C920 C 0.66714 0.42033 0.28123 0.0
C921 C 0.63057 0.5347 0.3054 0.0
C922 C 0.63982 0.49552 0.29634 0.0
H923 H 0.72092 0.34486 0.24029 0.0
H924 H 0.67479 0.3998 0.25135 0.0
H925 H 0.69315 0.46397 0.26488 0.0
H926 H 0.6813 0.62372 0.31861 0.0
H927 H 0.69009 0.56652 0.30009 0.0
C928 C 0.00725 0.44339 0.53065 0.0
C929 C 0.00079 0.47549 0.52006 0.0
C930 C 0.98056 0.44082 0.54316 0.0
C931 C 0.87073 0.46809 0.55287 0.0
H932 H 0.90134 0.42588 0.59214 0.0
C933 C 0.741 0.42875 0.59541 0.0
C934 C 0.74542 0.38904 0.60238 0.0
C935 C 0.77534 0.44673 0.58784 0.0
C936 C 0.89236 0.43765 0.58121 0.0
H937 H 0.96453 0.53232 0.51481 0.0
H938 H 0.91838 0.52835 0.53676 0.0
H939 H 0.95761 0.44494 0.57444 0.0
H940 H 0.7899 0.33794 0.60743 0.0
H941 H 0.84943 0.36876 0.59386 0.0
H942 H 0.8058 0.45937 0.55924 0.0
C943 C 0.94313 0.50447 0.53524 0.0
C944 C 0.92453 0.44858 0.57111 0.0
C945 C 0.9695 0.5068 0.52271 0.0
C946 C 0.78541 0.36855 0.60215 0.0
C947 C 0.81967 0.38639 0.59447 0.0
C948 C 0.83872 0.45713 0.5629 0.0
C949 C 0.94726 0.47052 0.54527 0.0
C950 C 0.91397 0.46332 0.55675 0.0
C951 C 0.81473 0.42522 0.58696 0.0
C952 C 0.84911 0.44114 0.5771 0.0
H953 H 0.03124 0.41891 0.5288 0.0
H954 H 0.98437 0.41413 0.55064 0.0
H955 H 0.86146 0.47846 0.54178 0.0
H956 H 0.71081 0.44569 0.59558 0.0
H957 H 0.77077 0.4771 0.5824 0.0
C958 C 0.8646 0.63607 0.76153 0.0
C959 C 0.84584 0.67351 0.7673 0.0
C960 C 0.88351 0.60673 0.77116 0.0
C961 C 0.91864 0.59073 0.81075 0.0
H962 H 0.89467 0.4723 0.80097 0.0
C963 C 0.92193 0.41244 0.83948 0.0
C964 C 0.96092 0.41537 0.84724 0.0
C965 C 0.90853 0.44545 0.83017 0.0
C966 C 0.90117 0.50522 0.80399 0.0
H967 H 0.83341 0.71061 0.7875 0.0
H968 H 0.86537 0.65909 0.80438 0.0
H969 H 0.87283 0.52756 0.78377 0.0
H970 H 0.0162 0.45556 0.85142 0.0
H971 H 0.99355 0.51219 0.83494 0.0
H972 H 0.94506 0.56846 0.83134 0.0
C973 C 0.86652 0.65257 0.79243 0.0
C974 C 0.88939 0.53696 0.79396 0.0
C975 C 0.84815 0.68216 0.78277 0.0
C976 C 0.98577 0.45236 0.84572 0.0
C977 C 0.97267 0.48504 0.83628 0.0
C978 C 0.92996 0.559 0.82088 0.0
C979 C 0.88339 0.61393 0.78678 0.0
C980 C 0.89796 0.58014 0.7972 0.0
C981 C 0.9341 0.48186 0.82826 0.0
C982 C 0.92134 0.51582 0.81764 0.0
H983 H 0.86343 0.62891 0.74961 0.0
H984 H 0.89721 0.57786 0.76638 0.0
H985 H 0.92614 0.62357 0.81357 0.0
H986 H 0.90194 0.38448 0.84049 0.0
H987 H 0.87819 0.44229 0.82442 0.0
C988 C 0.40973 0.46314 0.04043 0.0
C989 C 0.43577 0.49243 0.03292 0.0
C990 C 0.37554 0.4775 0.04925 0.0
C991 C 0.295 0.55408 0.04713 0.0
H992 H 0.27433 0.55065 0.08995 0.0
C993 C 0.17426 0.66306 0.07635 0.0
C994 C 0.15688 0.6518 0.0902 0.0
C995 C 0.20162 0.63519 0.06871 0.0
C996 C 0.27897 0.55087 0.07792 0.0
H997 H 0.44822 0.55939 0.02937 0.0
H998 H 0.38799 0.58452 0.04466 0.0
H999 H 0.34002 0.5196 0.07962 0.0
H1000 H 0.15184 0.6018 0.10657 0.0
H1001 H 0.19862 0.55193 0.09294 0.0
H1002 H 0.23423 0.58465 0.04518 0.0
C1003 C 0.39447 0.5506 0.04386 0.0
C1004 C 0.31683 0.53353 0.07208 0.0
C1005 C 0.42909 0.53628 0.03527 0.0
C1006 C 0.16417 0.61071 0.0957 0.0
C1007 C 0.19165 0.5826 0.08804 0.0
C1008 C 0.25691 0.57067 0.05289 0.0
C1009 C 0.36662 0.52126 0.05044 0.0
C1010 C 0.32555 0.53618 0.05671 0.0
C1011 C 0.21238 0.59539 0.07482 0.0
C1012 C 0.24891 0.57055 0.06842 0.0
H1013 H 0.41396 0.42916 0.03856 0.0
H1014 H 0.35426 0.45442 0.05419 0.0
H1015 H 0.30091 0.55571 0.03518 0.0
H1016 H 0.1699 0.69505 0.07212 0.0
H1017 H 0.21715 0.64661 0.0587 0.0
C1018 C 0.28357 0.60325 0.7771 0.0
C1019 C 0.26918 0.60245 0.76217 0.0
C1020 C 0.27219 0.57069 0.78687 0.0
C1021 C 0.23683 0.45847 0.78638 0.0
H1022 H 0.2061 0.4818 0.82777 0.0
C1023 C 0.15111 0.33921 0.82505 0.0
C1024 C 0.15904 0.34279 0.84049 0.0
C1025 C 0.17189 0.36636 0.81511 0.0
C1026 C 0.21545 0.47458 0.81632 0.0
H1027 H 0.22966 0.56857 0.74598 0.0
H1028 H 0.2093 0.51209 0.76309 0.0
H1029 H 0.22459 0.54059 0.81152 0.0
H1030 H 0.19709 0.37393 0.85765 0.0
H1031 H 0.2347 0.42013 0.84031 0.0
H1032 H 0.22697 0.3924 0.79116 0.0
C1033 C 0.23023 0.53719 0.76715 0.0
C1034 C 0.22585 0.50837 0.807 0.0
C1035 C 0.24159 0.56966 0.7574 0.0
C1036 C 0.1907 0.37075 0.84574 0.0
C1037 C 0.21176 0.39747 0.83584 0.0
C1038 C 0.22643 0.42459 0.79572 0.0
C1039 C 0.24617 0.53681 0.78188 0.0
C1040 C 0.23626 0.50076 0.79189 0.0
C1041 C 0.20088 0.39723 0.82054 0.0
C1042 C 0.21539 0.43231 0.81078 0.0
H1043 H 0.3053 0.62785 0.78101 0.0
H1044 H 0.28512 0.57118 0.79815 0.0
H1045 H 0.24545 0.45154 0.77484 0.0
H1046 H 0.12623 0.31825 0.82085 0.0
H1047 H 0.1627 0.36544 0.80339 0.0
C1048 C 0.22429 0.41174 0.5237 0.0
C1049 C 0.23198 0.41689 0.50831 0.0
C1050 C 0.25391 0.39014 0.53261 0.0
C1051 C 0.36862 0.37366 0.53324 0.0
H1052 H 0.34656 0.30438 0.5681 0.0
C1053 C 0.48521 0.36452 0.58239 0.0
C1054 C 0.49567 0.32397 0.58789 0.0
C1055 C 0.4522 0.36939 0.57205 0.0
C1056 C 0.35313 0.32333 0.5583 0.0
H1057 H 0.27405 0.40005 0.48988 0.0
H1058 H 0.32556 0.36215 0.50539 0.0
H1059 H 0.28798 0.32109 0.55076 0.0
H1060 H 0.47975 0.2568 0.5867 0.0
H1061 H 0.42126 0.26558 0.56865 0.0
H1062 H 0.43324 0.37709 0.54093 0.0
C1063 C 0.29728 0.37553 0.51065 0.0
C1064 C 0.31968 0.33307 0.54846 0.0
C1065 C 0.26784 0.39716 0.50178 0.0
C1066 C 0.47209 0.28845 0.58284 0.0
C1067 C 0.4387 0.29341 0.57253 0.0
C1068 C 0.40176 0.36434 0.54311 0.0
C1069 C 0.29153 0.37333 0.52624 0.0
C1070 C 0.32706 0.3588 0.53593 0.0
C1071 C 0.4287 0.33394 0.567 0.0
C1072 C 0.39421 0.33979 0.55587 0.0
H1073 H 0.19689 0.42676 0.52899 0.0
H1074 H 0.24875 0.38913 0.54462 0.0
H1075 H 0.37525 0.39404 0.52381 0.0
H1076 H 0.50248 0.39269 0.58605 0.0
H1077 H 0.44479 0.40108 0.56807 0.0
C1078 C 0.31934 0.4397 0.26942 0.0
C1079 C 0.34521 0.4035 0.26721 0.0
C1080 C 0.32919 0.46954 0.28063 0.0
C1081 C 0.39485 0.49143 0.3143 0.0
H1082 H 0.40199 0.60497 0.29773 0.0
C1083 C 0.4905 0.62725 0.34284 0.0
C1084 C 0.47467 0.66902 0.34187 0.0
C1085 C 0.47068 0.5938 0.33505 0.0
C1086 C 0.39947 0.57372 0.30267 0.0
H1087 H 0.39964 0.36835 0.27569 0.0
H1088 H 0.41684 0.42058 0.29539 0.0
H1089 H 0.37218 0.54721 0.28266 0.0
H1090 H 0.42466 0.70842 0.33241 0.0
H1091 H 0.38975 0.6501 0.3189 0.0
H1092 H 0.4224 0.51802 0.33433 0.0
C1093 C 0.38892 0.42581 0.28846 0.0
C1094 C 0.38238 0.54056 0.29402 0.0
C1095 C 0.37906 0.3959 0.2772 0.0
C1096 C 0.43797 0.67659 0.33321 0.0
C1097 C 0.4181 0.64319 0.32541 0.0
C1098 C 0.41166 0.52477 0.32305 0.0
C1099 C 0.36506 0.4637 0.28986 0.0
C1100 C 0.3802 0.49903 0.29968 0.0
C1101 C 0.43444 0.60142 0.32613 0.0
C1102 C 0.41455 0.56624 0.31726 0.0
H1103 H 0.29261 0.44592 0.26202 0.0
H1104 H 0.30977 0.49808 0.28167 0.0
H1105 H 0.39333 0.45973 0.31896 0.0
H1106 H 0.51766 0.62027 0.34989 0.0
H1107 H 0.48409 0.56205 0.33586 0.0
C1108 C 0.43107 0.45987 0.96782 0.0
C1109 C 0.43324 0.43695 0.98124 0.0
C1110 C 0.39885 0.45103 0.9573 0.0
C1111 C 0.28975 0.40909 0.95607 0.0
H1112 H 0.307 0.39803 0.91319 0.0
C1113 C 0.16635 0.33352 0.91571 0.0
C1114 C 0.16746 0.34489 0.90057 0.0
C1115 C 0.1945 0.35264 0.92598 0.0
C1116 C 0.30131 0.40203 0.9251 0.0
H1117 H 0.40587 0.38473 -0.00636 0.0
H1118 H 0.34993 0.36924 0.97531 0.0
H1119 H 0.36777 0.41298 0.92951 0.0
H1120 H 0.19522 0.38762 0.88447 0.0
H1121 H 0.24258 0.42279 0.90247 0.0
H1122 H 0.22338 0.39819 0.95175 0.0
C1123 C 0.3724 0.39456 0.97304 0.0
C1124 C 0.33632 0.41028 0.93444 0.0
C1125 C 0.40461 0.40316 0.98345 0.0
C1126 C 0.19378 0.37854 0.89613 0.0
C1127 C 0.22137 0.39812 0.90641 0.0
C1128 C 0.25466 0.40126 0.94673 0.0
C1129 C 0.36828 0.41932 0.96011 0.0
C1130 C 0.331 0.41308 0.95004 0.0
C1131 C 0.22388 0.38368 0.92125 0.0
C1132 C 0.26006 0.39693 0.93113 0.0
H1133 H 0.45248 0.48633 0.96591 0.0
H1134 H 0.39647 0.4705 0.94739 0.0
H1135 H 0.28462 0.41194 0.96806 0.0
H1136 H 0.14689 0.307 0.91929 0.0
H1137 H 0.19554 0.34051 0.93729 0.0
C1138 C 0.38862 0.63082 0.71171 0.0
C1139 C 0.34501 0.62321 0.71414 0.0
C1140 C 0.41128 0.60615 0.70125 0.0
C1141 C 0.45109 0.52234 0.6906 0.0
H1142 H 0.40744 0.48166 0.65226 0.0
C1143 C 0.48692 0.35591 0.66613 0.0
C1144 C 0.49791 0.35305 0.65094 0.0
C1145 C 0.47393 0.39493 0.67234 0.0
C1146 C 0.42034 0.49316 0.66284 0.0
H1147 H 0.29007 0.58659 0.70683 0.0
H1148 H 0.32952 0.54367 0.68845 0.0
H1149 H 0.37349 0.54291 0.66474 0.0
H1150 H 0.50381 0.38748 0.63016 0.0
H1151 H 0.47929 0.45577 0.64091 0.0
H1152 H 0.49672 0.47143 0.68902 0.0
C1153 C 0.34626 0.56854 0.69461 0.0
C1154 C 0.40084 0.52799 0.66999 0.0
C1155 C 0.32374 0.59286 0.70517 0.0
C1156 C 0.49554 0.38937 0.64195 0.0
C1157 C 0.48145 0.42816 0.64806 0.0
C1158 C 0.47026 0.48725 0.68353 0.0
C1159 C 0.39054 0.57388 0.69295 0.0
C1160 C 0.41539 0.54222 0.68411 0.0
C1161 C 0.47075 0.43129 0.66333 0.0
C1162 C 0.45433 0.47172 0.66979 0.0
H1163 H 0.40576 0.6539 0.71856 0.0
H1164 H 0.44535 0.61104 0.7001 0.0
H1165 H 0.46274 0.53237 0.70154 0.0
H1166 H 0.48846 0.32803 0.67317 0.0
H1167 H 0.46523 0.39645 0.68409 0.0
C1168 C 0.25148 0.56898 0.48134 0.0
C1169 C 0.22513 0.53953 0.47385 0.0
C1170 C 0.27813 0.59567 0.47321 0.0
C1171 C 0.30694 0.62924 0.4344 0.0
H1172 H 0.42105 0.63151 0.45137 0.0
C1173 C 0.45275 0.6944 0.40205 0.0
C1174 C 0.48987 0.66942 0.40299 0.0
C1175 C 0.41795 0.68639 0.41139 0.0
C1176 C 0.38938 0.63112 0.44646 0.0
H1177 H 0.20384 0.51588 0.45222 0.0
H1178 H 0.25171 0.56119 0.43789 0.0
H1179 H 0.36241 0.60474 0.46617 0.0
H1180 H 0.51981 0.61618 0.4142 0.0
H1181 H 0.45925 0.60192 0.43041 0.0
H1182 H 0.3349 0.65298 0.41429 0.0
C1183 C 0.25118 0.56478 0.44999 0.0
C1184 C 0.3555 0.6164 0.45504 0.0
C1185 C 0.22393 0.53862 0.45815 0.0
C1186 C 0.49167 0.63621 0.41336 0.0
C1187 C 0.4571 0.62832 0.42273 0.0
C1188 C 0.34103 0.64364 0.42575 0.0
C1189 C 0.27963 0.59263 0.45746 0.0
C1190 C 0.314 0.61428 0.44901 0.0
C1191 C 0.41984 0.65334 0.42187 0.0
C1192 C 0.3828 0.64357 0.43156 0.0
H1193 H 0.25243 0.57031 0.49349 0.0
H1194 H 0.29879 0.61749 0.47931 0.0
H1195 H 0.27528 0.62867 0.4295 0.0
H1196 H 0.45025 0.71947 0.39386 0.0
H1197 H 0.38969 0.70619 0.41046 0.0
C1198 C 0.2957 0.39574 0.20306 0.0
C1199 C 0.33254 0.39815 0.21199 0.0
C1200 C 0.2876 0.42702 0.19233 0.0
C1201 C 0.31001 0.54026 0.18727 0.0
H1202 H 0.24904 0.52394 0.14979 0.0
C1203 C 0.21767 0.63789 0.1369 0.0
C1204 C 0.18989 0.66266 0.14578 0.0
C1205 C 0.24705 0.61046 0.14358 0.0
C1206 C 0.26675 0.52917 0.1601 0.0
H1207 H 0.39159 0.43232 0.21593 0.0
H1208 H 0.37791 0.48643 0.19705 0.0
H1209 H 0.27762 0.46219 0.16282 0.0
H1210 H 0.17278 0.68093 0.16845 0.0
H1211 H 0.22449 0.63325 0.18025 0.0
H1212 H 0.29798 0.60715 0.18478 0.0
C1213 C 0.35485 0.46111 0.19848 0.0
C1214 C 0.28269 0.49369 0.16763 0.0
C1215 C 0.36288 0.42996 0.20916 0.0
C1216 C 0.19462 0.66279 0.16141 0.0
C1217 C 0.22403 0.63522 0.16813 0.0
C1218 C 0.29383 0.57574 0.17979 0.0
C1219 C 0.31627 0.46109 0.19042 0.0
C1220 C 0.30382 0.49875 0.18144 0.0
C1221 C 0.24885 0.60709 0.15927 0.0
C1222 C 0.27135 0.57054 0.16625 0.0
H1223 H 0.27168 0.37177 0.20518 0.0
H1224 H 0.25748 0.42621 0.18634 0.0
H1225 H 0.3257 0.54525 0.19799 0.0
H1226 H 0.2141 0.63699 0.1248 0.0
H1227 H 0.26626 0.58977 0.13645 0.0
loop_
_geom_bond_atom_site_label_1
_geom_bond_atom_site_label_2
_geom_bond_distance
_geom_bond_site_symmetry_2
_ccdc_geom_bond_type
H0 C6 0.930 . S
H1 C9 0.931 . S
H2 C11 0.931 . S
H3 C13 0.930 . S
H4 C15 0.930 . S
H5 C17 0.931 . S
C6 H0 0.930 . S
C6 C7 1.380 1_545 S
C6 C8 1.394 . S
C7 C6 1.380 1_565 S
C7 C11 1.382 . S
C8 C6 1.394 . S
C8 C9 1.400 . S
C9 H1 0.931 . S
C9 C8 1.400 . S
C9 C10 1.375 1_645 S
C10 C9 1.375 1_465 S
C10 C11 1.415 1_455 S
C10 C12 1.501 . S
C11 H2 0.931 . S
C11 C7 1.382 . S
C11 C10 1.415 1_655 S
C12 C10 1.501 . S
C12 C13 1.384 . S
C12 C17 1.408 1_565 S
C13 H3 0.930 . S
C13 C12 1.384 . S
C13 C14 1.389 . S
C14 C13 1.389 . S
C14 C15 1.405 . S
C15 H4 0.930 . S
C15 C14 1.405 . S
C15 C16 1.364 1_565 S
C16 C15 1.364 1_545 S
C16 C17 1.400 . S
C17 H5 0.931 . S
C17 C12 1.408 1_545 S
C17 C16 1.400 . S
H18 C24 0.930 . S
H19 C27 0.931 . S
H20 C29 0.931 . S
H21 C31 0.930 . S
H22 C33 0.930 . S
H23 C35 0.931 . S
C24 H18 0.930 . S
C24 C25 1.380 . S
C24 C26 1.394 . S
C25 C24 1.380 . S
C25 C29 1.382 . S
C26 C24 1.394 . S
C26 C27 1.400 . S
C27 H19 0.931 . S
C27 C26 1.400 . S
C27 C28 1.375 . S
C28 C27 1.375 . S
C28 C29 1.415 . S
C28 C30 1.501 . S
C29 H20 0.931 . S
C29 C25 1.382 . S
C29 C28 1.415 . S
C30 C28 1.501 . S
C30 C31 1.384 . S
C30 C35 1.408 . S
C31 H21 0.930 . S
C31 C30 1.384 . S
C31 C32 1.389 . S
C32 C31 1.389 . S
C32 C33 1.405 . S
C33 H22 0.930 . S
C33 C32 1.405 . S
C33 C34 1.364 . S
C34 C33 1.364 . S
C34 C35 1.400 . S
C35 H23 0.931 . S
C35 C30 1.408 . S
C35 C34 1.400 . S
H36 C42 0.930 . S
H37 C45 0.931 . S
H38 C47 0.931 . S
H39 C49 0.930 . S
H40 C51 0.930 . S
H41 C53 0.931 . S
C42 H36 0.930 . S
C42 C43 1.380 1_564 S
C42 C44 1.395 . S
C43 C42 1.380 1_546 S
C43 C47 1.382 . S
C44 C42 1.395 . S
C44 C45 1.400 . S
C45 H37 0.931 . S
C45 C44 1.400 . S
C45 C46 1.375 1_565 S
C46 C45 1.375 1_545 S
C46 C47 1.415 1_554 S
C46 C48 1.501 . S
C47 H38 0.931 . S
C47 C43 1.382 . S
C47 C46 1.415 1_556 S
C48 C46 1.501 . S
C48 C49 1.384 1_554 S
C48 C53 1.408 1_545 S
C49 H39 0.930 . S
C49 C48 1.384 1_556 S
C49 C50 1.389 . S
C50 C49 1.389 . S
C50 C51 1.405 1_556 S
C51 H40 0.930 . S
C51 C50 1.405 1_554 S
C51 C52 1.364 1_545 S
C52 C51 1.364 1_565 S
C52 C53 1.400 . S
C53 H41 0.931 . S
C53 C48 1.408 1_565 S
C53 C52 1.400 . S
H54 C60 0.930 . S
H55 C63 0.931 . S
H56 C65 0.931 . S
H57 C67 0.930 . S
H58 C69 0.930 . S
H59 C71 0.931 . S
C60 H54 0.930 . S
C60 C61 1.380 . S
C60 C62 1.394 . S
C61 C60 1.380 . S
C61 C65 1.382 . S
C62 C60 1.394 . S
C62 C63 1.400 . S
C63 H55 0.931 . S
C63 C62 1.400 . S
C63 C64 1.375 . S
C64 C63 1.375 . S
C64 C65 1.415 . S
C64 C66 1.501 . S
C65 H56 0.931 . S
C65 C61 1.382 . S
C65 C64 1.415 . S
C66 C64 1.501 . S
C66 C67 1.384 . S
C66 C71 1.408 . S
C67 H57 0.930 . S
C67 C66 1.384 . S
C67 C68 1.389 . S
C68 C67 1.389 . S
C68 C69 1.405 . S
C69 H58 0.930 . S
C69 C68 1.405 . S
C69 C70 1.364 . S
C70 C69 1.364 . S
C70 C71 1.400 . S
C71 H59 0.931 . S
C71 C66 1.408 . S
C71 C70 1.400 . S
H72 C78 0.930 . S
H73 C81 0.931 . S
H74 C83 0.931 . S
H75 C85 0.930 . S
H76 C87 0.930 . S
H77 C89 0.931 . S
C78 H72 0.930 . S
C78 C79 1.380 . S
C78 C80 1.394 . S
C79 C78 1.380 . S
C79 C83 1.382 . S
C80 C78 1.394 . S
C80 C81 1.400 . S
C81 H73 0.931 . S
C81 C80 1.400 . S
C81 C82 1.375 . S
C82 C81 1.375 . S
C82 C83 1.415 . S
C82 C84 1.501 . S
C83 H74 0.931 . S
C83 C79 1.382 . S
C83 C82 1.415 . S
C84 C82 1.501 . S
C84 C85 1.384 . S
C84 C89 1.408 . S
C85 H75 0.930 . S
C85 C84 1.384 . S
C85 C86 1.389 . S
C86 C85 1.389 . S
C86 C87 1.405 . S
C87 H76 0.930 . S
C87 C86 1.405 . S
C87 C88 1.364 . S
C88 C87 1.364 . S
C88 C89 1.400 . S
C89 H77 0.931 . S
C89 C84 1.408 . S
C89 C88 1.400 . S
H90 C96 0.930 . S
H91 C99 0.931 . S
H92 C101 0.931 . S
H93 C103 0.930 . S
H94 C105 0.930 . S
H95 C107 0.931 . S
C96 H90 0.930 . S
C96 C97 1.380 . S
C96 C98 1.394 . S
C97 C96 1.380 . S
C97 C101 1.382 . S
C98 C96 1.394 . S
C98 C99 1.400 . S
C99 H91 0.931 . S
C99 C98 1.400 . S
C99 C100 1.375 . S
C100 C99 1.375 . S
C100 C101 1.415 . S
C100 C102 1.501 . S
C101 H92 0.931 . S
C101 C97 1.382 . S
C101 C100 1.415 . S
C102 C100 1.501 . S
C102 C103 1.384 . S
C102 C107 1.408 . S
C103 H93 0.930 . S
C103 C102 1.384 . S
C103 C104 1.389 . S
C104 C103 1.389 . S
C104 C105 1.405 . S
C105 H94 0.930 . S
C105 C104 1.405 . S
C105 C106 1.364 . S
C106 C105 1.364 . S
C106 C107 1.400 . S
C107 H95 0.931 . S
C107 C102 1.408 . S
C107 C106 1.400 . S
H108 C114 0.930 . S
H109 C117 0.931 . S
H110 C119 0.931 . S
H111 C121 0.930 . S
H112 C123 0.930 . S
H113 C125 0.931 . S
C114 H108 0.930 . S
C114 C115 1.380 . S
C114 C116 1.394 1_554 S
C115 C114 1.380 . S
C115 C119 1.382 . S
C116 C114 1.394 1_556 S
C116 C117 1.400 . S
C117 H109 0.931 . S
C117 C116 1.400 . S
C117 C118 1.375 1_556 S
C118 C117 1.375 1_554 S
C118 C119 1.415 . S
C118 C120 1.501 . S
C119 H110 0.931 . S
C119 C115 1.382 . S
C119 C118 1.415 . S
C120 C118 1.501 . S
C120 C121 1.384 . S
C120 C125 1.408 1_554 S
C121 H111 0.930 . S
C121 C120 1.384 . S
C121 C122 1.389 . S
C122 C121 1.389 . S
C122 C123 1.405 . S
C123 H112 0.930 . S
C123 C122 1.405 . S
C123 C124 1.364 1_554 S
C124 C123 1.364 1_556 S
C124 C125 1.400 . S
C125 H113 0.931 . S
C125 C120 1.408 1_556 S
C125 C124 1.400 . S
H126 C132 0.930 . S
H127 C135 0.931 . S
H128 C137 0.931 . S
H129 C139 0.930 . S
H130 C141 0.930 . S
H131 C143 0.931 . S
C132 H126 0.930 . S
C132 C133 1.380 . S
C132 C134 1.394 . S
C133 C132 1.380 . S
C133 C137 1.382 . S
C134 C132 1.394 . S
C134 C135 1.400 . S
C135 H127 0.931 . S
C135 C134 1.400 . S
C135 C136 1.375 . S
C136 C135 1.375 . S
C136 C137 1.415 . S
C136 C138 1.501 . S
C137 H128 0.931 . S
C137 C133 1.382 . S
C137 C136 1.415 . S
C138 C136 1.501 . S
C138 C139 1.384 . S
C138 C143 1.408 . S
C139 H129 0.930 . S
C139 C138 1.384 . S
C139 C140 1.389 . S
C140 C139 1.389 . S
C140 C141 1.405 . S
C141 H130 0.930 . S
C141 C140 1.405 . S
C141 C142 1.364 . S
C142 C141 1.364 . S
C142 C143 1.400 . S
C143 H131 0.931 . S
C143 C138 1.408 . S
C143 C142 1.400 . S
C144 O171 1.312 . S
C144 O172 1.208 . S
C145 O166 1.331 1_655 S
C145 O169 1.244 . S
C146 O168 1.264 1_655 S
C146 O170 1.273 . S
Mg147 O149 1.936 . S
Mg147 O156 2.081 . S
Mg147 O158 2.023 . S
Mg147 O162 2.031 . S
Mg147 O171 2.291 . S
Mg148 O149 1.963 . S
Mg148 O159 1.942 . S
Mg148 O160 1.955 . S
Mg148 O167 1.986 . S
O149 Mg147 1.936 . S
O149 Mg148 1.963 . S
O149 Mg150 1.915 . S
Mg150 O149 1.915 . S
Mg150 O151 1.915 . S
Mg150 O155 2.013 . S
Mg150 O161 2.114 . S
Mg150 O165 2.013 . S
Mg150 O171 2.114 . S
O151 Mg150 1.915 . S
O151 Mg152 1.936 . S
O151 Mg153 1.963 1_455 S
Mg152 O151 1.936 . S
Mg152 O161 2.291 . S
Mg152 O166 2.081 . S
Mg152 O168 2.023 . S
Mg152 O172 2.031 . S
Mg153 O151 1.963 1_655 S
Mg153 O157 1.986 . S
Mg153 O169 1.942 . S
Mg153 O170 1.955 . S
C154 O165 1.191 . S
C154 O167 1.307 . S
O155 Mg150 2.013 . S
O155 C174 1.191 . S
O156 Mg147 2.081 . S
O156 C164 1.331 . S
O157 Mg153 1.986 . S
O157 C174 1.307 1_655 S
O158 Mg147 2.023 . S
O158 C173 1.264 . S
O159 Mg148 1.942 . S
O159 C164 1.244 . S
O160 Mg148 1.955 . S
O160 C173 1.273 . S
O161 Mg150 2.114 . S
O161 Mg152 2.291 . S
O161 C163 1.312 . S
O162 Mg147 2.031 . S
O162 C163 1.208 . S
C163 O161 1.312 . S
C163 O162 1.208 . S
C164 O156 1.331 . S
C164 O159 1.244 . S
O165 Mg150 2.013 . S
O165 C154 1.191 . S
O166 C145 1.331 1_455 S
O166 Mg152 2.081 . S
O167 Mg148 1.986 . S
O167 C154 1.307 . S
O168 C146 1.264 1_455 S
O168 Mg152 2.023 . S
O169 C145 1.244 . S
O169 Mg153 1.942 . S
O170 C146 1.273 . S
O170 Mg153 1.955 . S
O171 C144 1.312 . S
O171 Mg147 2.291 . S
O171 Mg150 2.114 . S
O172 C144 1.208 . S
O172 Mg152 2.031 . S
C173 O158 1.264 . S
C173 O160 1.273 . S
C174 O155 1.191 . S
C174 O157 1.307 1_455 S
C175 O202 1.312 . S
C175 O203 1.208 . S
C176 O197 1.331 . S
C176 O200 1.244 . S
C177 O199 1.264 . S
C177 O201 1.273 . S
Mg178 O180 1.936 . S
Mg178 O187 2.081 . S
Mg178 O189 2.023 . S
Mg178 O193 2.031 . S
Mg178 O202 2.291 . S
Mg179 O180 1.963 . S
Mg179 O190 1.942 . S
Mg179 O191 1.955 . S
Mg179 O198 1.986 . S
O180 Mg178 1.936 . S
O180 Mg179 1.963 . S
O180 Mg181 1.915 . S
Mg181 O180 1.915 . S
Mg181 O182 1.915 . S
Mg181 O186 2.013 . S
Mg181 O192 2.114 . S
Mg181 O196 2.013 . S
Mg181 O202 2.114 . S
O182 Mg181 1.915 . S
O182 Mg183 1.936 . S
O182 Mg184 1.963 . S
Mg183 O182 1.936 . S
Mg183 O192 2.291 . S
Mg183 O197 2.081 . S
Mg183 O199 2.023 . S
Mg183 O203 2.031 . S
Mg184 O182 1.963 . S
Mg184 O188 1.986 . S
Mg184 O200 1.942 . S
Mg184 O201 1.955 . S
C185 O196 1.191 . S
C185 O198 1.307 . S
O186 Mg181 2.013 . S
O186 C205 1.191 . S
O187 Mg178 2.081 . S
O187 C195 1.331 . S
O188 Mg184 1.986 . S
O188 C205 1.307 . S
O189 Mg178 2.023 . S
O189 C204 1.264 . S
O190 Mg179 1.942 . S
O190 C195 1.244 . S
O191 Mg179 1.955 . S
O191 C204 1.273 . S
O192 Mg181 2.114 . S
O192 Mg183 2.291 . S
O192 C194 1.312 . S
O193 Mg178 2.031 . S
O193 C194 1.208 . S
C194 O192 1.312 . S
C194 O193 1.208 . S
C195 O187 1.331 . S
C195 O190 1.244 . S
O196 Mg181 2.013 . S
O196 C185 1.191 . S
O197 C176 1.331 . S
O197 Mg183 2.081 . S
O198 Mg179 1.986 . S
O198 C185 1.307 . S
O199 C177 1.264 . S
O199 Mg183 2.023 . S
O200 C176 1.244 . S
O200 Mg184 1.942 . S
O201 C177 1.273 . S
O201 Mg184 1.955 . S
O202 C175 1.312 . S
O202 Mg178 2.291 . S
O202 Mg181 2.114 . S
O203 C175 1.208 . S
O203 Mg183 2.031 . S
C204 O189 1.264 . S
C204 O191 1.273 . S
C205 O186 1.191 . S
C205 O188 1.307 . S
C206 O233 1.312 . S
C206 O234 1.208 . S
C207 O228 1.331 . S
C207 O231 1.244 . S
C208 O230 1.264 . S
C208 O232 1.273 . S
Mg209 O211 1.936 . S
Mg209 O218 2.081 . S
Mg209 O220 2.023 . S
Mg209 O224 2.031 . S
Mg209 O233 2.291 . S
Mg210 O211 1.963 . S
Mg210 O221 1.942 . S
Mg210 O222 1.955 . S
Mg210 O229 1.986 . S
O211 Mg209 1.936 . S
O211 Mg210 1.963 . S
O211 Mg212 1.915 . S
Mg212 O211 1.915 . S
Mg212 O213 1.915 . S
Mg212 O217 2.013 . S
Mg212 O223 2.114 . S
Mg212 O227 2.013 . S
Mg212 O233 2.114 . S
O213 Mg212 1.915 . S
O213 Mg214 1.936 . S
O213 Mg215 1.963 . S
Mg214 O213 1.936 . S
Mg214 O223 2.291 . S
Mg214 O228 2.081 . S
Mg214 O230 2.023 . S
Mg214 O234 2.031 . S
Mg215 O213 1.963 . S
Mg215 O219 1.986 . S
Mg215 O231 1.942 . S
Mg215 O232 1.955 . S
C216 O227 1.191 . S
C216 O229 1.307 . S
O217 Mg212 2.013 . S
O217 C236 1.191 . S
O218 Mg209 2.081 . S
O218 C226 1.331 . S
O219 Mg215 1.986 . S
O219 C236 1.307 . S
O220 Mg209 2.023 . S
O220 C235 1.264 . S
O221 Mg210 1.942 . S
O221 C226 1.244 . S
O222 Mg210 1.955 . S
O222 C235 1.273 . S
O223 Mg212 2.114 . S
O223 Mg214 2.291 . S
O223 C225 1.312 . S
O224 Mg209 2.031 . S
O224 C225 1.208 . S
C225 O223 1.312 . S
C225 O224 1.208 . S
C226 O218 1.331 . S
C226 O221 1.244 . S
O227 Mg212 2.013 . S
O227 C216 1.191 . S
O228 C207 1.331 . S
O228 Mg214 2.081 . S
O229 Mg210 1.986 . S
O229 C216 1.307 . S
O230 C208 1.264 . S
O230 Mg214 2.023 . S
O231 C207 1.244 . S
O231 Mg215 1.942 . S
O232 C208 1.273 . S
O232 Mg215 1.955 . S
O233 C206 1.312 . S
O233 Mg209 2.291 . S
O233 Mg212 2.114 . S
O234 C206 1.208 . S
O234 Mg214 2.031 . S
C235 O220 1.264 . S
C235 O222 1.273 . S
C236 O217 1.191 . S
C236 O219 1.307 . S
C237 O264 1.312 . S
C237 O265 1.208 . S
C238 O259 1.331 . S
C238 O262 1.244 . S
C239 O261 1.264 . S
C239 O263 1.273 . S
Mg240 O242 1.936 . S
Mg240 O249 2.081 . S
Mg240 O251 2.023 . S
Mg240 O255 2.031 . S
Mg240 O264 2.291 . S
Mg241 O242 1.963 1_655 S
Mg241 O252 1.942 . S
Mg241 O253 1.955 . S
Mg241 O260 1.986 . S
O242 Mg240 1.936 . S
O242 Mg241 1.963 1_455 S
O242 Mg243 1.915 . S
Mg243 O242 1.915 . S
Mg243 O244 1.915 . S
Mg243 O248 2.013 . S
Mg243 O254 2.114 . S
Mg243 O258 2.013 . S
Mg243 O264 2.114 . S
O244 Mg243 1.915 . S
O244 Mg245 1.936 . S
O244 Mg246 1.963 . S
Mg245 O244 1.936 . S
Mg245 O254 2.291 . S
Mg245 O259 2.081 . S
Mg245 O261 2.023 . S
Mg245 O265 2.031 . S
Mg246 O244 1.963 . S
Mg246 O250 1.986 . S
Mg246 O262 1.942 . S
Mg246 O263 1.955 . S
C247 O258 1.191 . S
C247 O260 1.307 1_455 S
O248 Mg243 2.013 . S
O248 C267 1.191 . S
O249 Mg240 2.081 . S
O249 C257 1.331 1_455 S
O250 Mg246 1.986 . S
O250 C267 1.307 . S
O251 Mg240 2.023 . S
O251 C266 1.264 1_455 S
O252 Mg241 1.942 . S
O252 C257 1.244 . S
O253 Mg241 1.955 . S
O253 C266 1.273 . S
O254 Mg243 2.114 . S
O254 Mg245 2.291 . S
O254 C256 1.312 . S
O255 Mg240 2.031 . S
O255 C256 1.208 . S
C256 O254 1.312 . S
C256 O255 1.208 . S
C257 O249 1.331 1_655 S
C257 O252 1.244 . S
O258 Mg243 2.013 . S
O258 C247 1.191 . S
O259 C238 1.331 . S
O259 Mg245 2.081 . S
O260 Mg241 1.986 . S
O260 C247 1.307 1_655 S
O261 C239 1.264 . S
O261 Mg245 2.023 . S
O262 C238 1.244 . S
O262 Mg246 1.942 . S
O263 C239 1.273 . S
O263 Mg246 1.955 . S
O264 C237 1.312 . S
O264 Mg240 2.291 . S
O264 Mg243 2.114 . S
O265 C237 1.208 . S
O265 Mg245 2.031 . S
C266 O251 1.264 1_655 S
C266 O253 1.273 . S
C267 O248 1.191 . S
C267 O250 1.307 . S
C268 C269 1.349 . S
C268 C270 1.327 . S
C268 H293 0.950 1_565 S
C269 C268 1.349 . S
C269 C285 1.349 . S
C270 C268 1.327 . S
C270 C289 1.429 . S
C270 H294 0.950 . S
C271 C288 1.574 . S
C271 C290 1.368 . S
C271 H295 0.949 . S
H272 C276 0.949 . S
C273 C274 1.349 . S
C273 C275 1.327 . S
C273 H296 0.950 . S
C274 C273 1.349 . S
C274 C286 1.349 . S
C275 C273 1.327 . S
C275 C291 1.429 . S
C275 H297 0.950 . S
C276 H272 0.949 . S
C276 C284 1.574 . S
C276 C292 1.368 . S
H277 C285 0.950 . S
H278 C283 0.950 . S
H279 C284 0.949 . S
H280 C286 0.950 . S
H281 C287 0.950 . S
H282 C288 0.949 . S
C283 H278 0.950 . S
C283 C285 1.327 . S
C283 C289 1.429 . S
C284 C276 1.574 . S
C284 H279 0.949 . S
C284 C290 1.368 . S
C285 C269 1.349 . S
C285 H277 0.950 . S
C285 C283 1.327 . S
C286 C274 1.349 . S
C286 H280 0.950 . S
C286 C287 1.327 . S
C287 H281 0.950 . S
C287 C286 1.327 . S
C287 C291 1.429 . S
C288 C271 1.574 . S
C288 H282 0.949 . S
C288 C292 1.368 . S
C289 C270 1.429 . S
C289 C283 1.429 . S
C289 C290 1.523 . S
C290 C271 1.368 . S
C290 C284 1.368 . S
C290 C289 1.523 . S
C291 C275 1.429 . S
C291 C287 1.429 . S
C291 C292 1.523 . S
C292 C276 1.368 . S
C292 C288 1.368 . S
C292 C291 1.523 . S
H293 C268 0.950 1_545 S
H294 C270 0.950 . S
H295 C271 0.949 . S
H296 C273 0.950 . S
H297 C275 0.950 . S
C298 C299 1.349 . S
C298 C300 1.327 . S
C298 H323 0.950 . S
C299 C298 1.349 . S
C299 C315 1.349 . S
C300 C298 1.327 . S
C300 C319 1.429 . S
C300 H324 0.950 . S
C301 C318 1.574 1_565 S
C301 C320 1.368 . S
C301 H325 0.949 . S
H302 C306 0.949 . S
C303 C304 1.349 . S
C303 C305 1.327 . S
C303 H326 0.950 . S
C304 C303 1.349 . S
C304 C316 1.349 . S
C305 C303 1.327 . S
C305 C321 1.429 . S
C305 H327 0.950 . S
C306 H302 0.949 . S
C306 C314 1.574 . S
C306 C322 1.368 . S
H307 C315 0.950 . S
H308 C313 0.950 . S
H309 C314 0.949 . S
H310 C316 0.950 . S
H311 C317 0.950 . S
H312 C318 0.949 . S
C313 H308 0.950 . S
C313 C315 1.327 . S
C313 C319 1.429 . S
C314 C306 1.574 . S
C314 H309 0.949 . S
C314 C320 1.368 . S
C315 C299 1.349 . S
C315 H307 0.950 . S
C315 C313 1.327 . S
C316 C304 1.349 . S
C316 H310 0.950 . S
C316 C317 1.327 . S
C317 H311 0.950 . S
C317 C316 1.327 . S
C317 C321 1.429 . S
C318 C301 1.574 1_545 S
C318 H312 0.949 . S
C318 C322 1.368 1_545 S
C319 C300 1.429 . S
C319 C313 1.429 . S
C319 C320 1.523 . S
C320 C301 1.368 . S
C320 C314 1.368 . S
C320 C319 1.523 . S
C321 C305 1.429 . S
C321 C317 1.429 . S
C321 C322 1.523 1_545 S
C322 C306 1.368 . S
C322 C318 1.368 1_565 S
C322 C321 1.523 1_565 S
H323 C298 0.950 . S
H324 C300 0.950 . S
H325 C301 0.949 . S
H326 C303 0.950 . S
H327 C305 0.950 . S
C328 C329 1.349 . S
C328 C330 1.327 . S
C328 H353 0.950 1_545 S
C329 C328 1.349 . S
C329 C345 1.349 . S
C330 C328 1.327 . S
C330 C349 1.429 . S
C330 H354 0.950 . S
C331 C348 1.574 . S
C331 C350 1.368 . S
C331 H355 0.949 . S
H332 C336 0.949 . S
C333 C334 1.349 . S
C333 C335 1.327 . S
C333 H356 0.950 . S
C334 C333 1.349 . S
C334 C346 1.349 . S
C335 C333 1.327 . S
C335 C351 1.429 . S
C335 H357 0.950 . S
C336 H332 0.949 . S
C336 C344 1.574 . S
C336 C352 1.368 . S
H337 C345 0.950 . S
H338 C343 0.950 . S
H339 C344 0.949 . S
H340 C346 0.950 . S
H341 C347 0.950 . S
H342 C348 0.949 . S
C343 H338 0.950 . S
C343 C345 1.327 . S
C343 C349 1.429 . S
C344 C336 1.574 . S
C344 H339 0.949 . S
C344 C350 1.368 . S
C345 C329 1.349 . S
C345 H337 0.950 . S
C345 C343 1.327 . S
C346 C334 1.349 . S
C346 H340 0.950 . S
C346 C347 1.327 . S
C347 H341 0.950 . S
C347 C346 1.327 . S
C347 C351 1.429 . S
C348 C331 1.574 . S
C348 H342 0.949 . S
C348 C352 1.368 . S
C349 C330 1.429 . S
C349 C343 1.429 . S
C349 C350 1.523 . S
C350 C331 1.368 . S
C350 C344 1.368 . S
C350 C349 1.523 . S
C351 C335 1.429 . S
C351 C347 1.429 . S
C351 C352 1.523 . S
C352 C336 1.368 . S
C352 C348 1.368 . S
C352 C351 1.523 . S
H353 C328 0.950 1_565 S
H354 C330 0.950 . S
H355 C331 0.949 . S
H356 C333 0.950 . S
H357 C335 0.950 . S
C358 C359 1.349 . S
C358 C360 1.327 . S
C358 H383 0.950 . S
C359 C358 1.349 . S
C359 C375 1.349 . S
C360 C358 1.327 . S
C360 C379 1.429 . S
C360 H384 0.950 . S
C361 C378 1.574 . S
C361 C380 1.368 . S
C361 H385 0.949 . S
H362 C366 0.949 . S
C363 C364 1.349 . S
C363 C365 1.327 . S
C363 H386 0.950 . S
C364 C363 1.349 . S
C364 C376 1.349 . S
C365 C363 1.327 . S
C365 C381 1.429 . S
C365 H387 0.950 . S
C366 H362 0.949 . S
C366 C374 1.574 1_565 S
C366 C382 1.368 . S
H367 C375 0.950 . S
H368 C373 0.950 . S
H369 C374 0.949 . S
H370 C376 0.950 . S
H371 C377 0.950 . S
H372 C378 0.949 . S
C373 H368 0.950 . S
C373 C375 1.327 . S
C373 C379 1.429 . S
C374 C366 1.574 1_545 S
C374 H369 0.949 . S
C374 C380 1.368 . S
C375 C359 1.349 . S
C375 H367 0.950 . S
C375 C373 1.327 . S
C376 C364 1.349 . S
C376 H370 0.950 . S
C376 C377 1.327 . S
C377 H371 0.950 . S
C377 C376 1.327 . S
C377 C381 1.429 . S
C378 C361 1.574 . S
C378 H372 0.949 . S
C378 C382 1.368 1_545 S
C379 C360 1.429 . S
C379 C373 1.429 . S
C379 C380 1.523 . S
C380 C361 1.368 . S
C380 C374 1.368 . S
C380 C379 1.523 . S
C381 C365 1.429 . S
C381 C377 1.429 . S
C381 C382 1.523 . S
C382 C366 1.368 . S
C382 C378 1.368 1_565 S
C382 C381 1.523 . S
H383 C358 0.950 . S
H384 C360 0.950 . S
H385 C361 0.949 . S
H386 C363 0.950 . S
H387 C365 0.950 . S
C388 C389 1.349 . S
C388 C390 1.327 . S
C388 H413 0.950 1_545 S
C389 C388 1.349 . S
C389 C405 1.349 . S
C390 C388 1.327 . S
C390 C409 1.429 . S
C390 H414 0.950 . S
C391 C408 1.574 . S
C391 C410 1.368 . S
C391 H415 0.949 . S
H392 C396 0.949 . S
C393 C394 1.349 . S
C393 C395 1.327 . S
C393 H416 0.950 . S
C394 C393 1.349 . S
C394 C406 1.349 . S
C395 C393 1.327 . S
C395 C411 1.429 . S
C395 H417 0.950 . S
C396 H392 0.949 . S
C396 C404 1.574 . S
C396 C412 1.368 . S
H397 C405 0.950 . S
H398 C403 0.950 . S
H399 C404 0.949 . S
H400 C406 0.950 . S
H401 C407 0.950 . S
H402 C408 0.949 . S
C403 H398 0.950 . S
C403 C405 1.327 . S
C403 C409 1.429 . S
C404 C396 1.574 . S
C404 H399 0.949 . S
C404 C410 1.368 . S
C405 C389 1.349 . S
C405 H397 0.950 . S
C405 C403 1.327 . S
C406 C394 1.349 . S
C406 H400 0.950 . S
C406 C407 1.327 . S
C407 H401 0.950 . S
C407 C406 1.327 . S
C407 C411 1.429 . S
C408 C391 1.574 . S
C408 H402 0.949 . S
C408 C412 1.368 . S
C409 C390 1.429 . S
C409 C403 1.429 . S
C409 C410 1.523 . S
C410 C391 1.368 . S
C410 C404 1.368 . S
C410 C409 1.523 . S
C411 C395 1.429 . S
C411 C407 1.429 . S
C411 C412 1.523 . S
C412 C396 1.368 . S
C412 C408 1.368 . S
C412 C411 1.523 . S
H413 C388 0.950 1_565 S
H414 C390 0.950 . S
H415 C391 0.949 . S
H416 C393 0.950 . S
H417 C395 0.950 . S
C418 C419 1.349 . S
C418 C420 1.327 . S
C418 H443 0.950 . S
C419 C418 1.349 . S
C419 C435 1.349 . S
C420 C418 1.327 . S
C420 C439 1.429 . S
C420 H444 0.950 . S
C421 C438 1.574 1_565 S
C421 C440 1.368 . S
C421 H445 0.949 . S
H422 C426 0.949 . S
C423 C424 1.349 . S
C423 C425 1.327 . S
C423 H446 0.950 . S
C424 C423 1.349 . S
C424 C436 1.349 . S
C425 C423 1.327 . S
C425 C441 1.429 . S
C425 H447 0.950 . S
C426 H422 0.949 . S
C426 C434 1.574 . S
C426 C442 1.368 1_565 S
H427 C435 0.950 . S
H428 C433 0.950 . S
H429 C434 0.949 . S
H430 C436 0.950 . S
H431 C437 0.950 . S
H432 C438 0.949 . S
C433 H428 0.950 . S
C433 C435 1.327 . S
C433 C439 1.429 . S
C434 C426 1.574 . S
C434 H429 0.949 . S
C434 C440 1.368 . S
C435 C419 1.349 . S
C435 H427 0.950 . S
C435 C433 1.327 . S
C436 C424 1.349 . S
C436 H430 0.950 . S
C436 C437 1.327 . S
C437 H431 0.950 . S
C437 C436 1.327 . S
C437 C441 1.429 . S
C438 C421 1.574 1_545 S
C438 H432 0.949 . S
C438 C442 1.368 . S
C439 C420 1.429 . S
C439 C433 1.429 . S
C439 C440 1.523 . S
C440 C421 1.368 . S
C440 C434 1.368 . S
C440 C439 1.523 . S
C441 C425 1.429 . S
C441 C437 1.429 . S
C441 C442 1.523 . S
C442 C426 1.368 1_545 S
C442 C438 1.368 . S
C442 C441 1.523 . S
H443 C418 0.950 . S
H444 C420 0.950 . S
H445 C421 0.949 . S
H446 C423 0.950 . S
H447 C425 0.950 . S
C448 C449 1.349 . S
C448 C450 1.327 . S
C448 H473 0.950 1_565 S
C449 C448 1.349 . S
C449 C465 1.349 . S
C450 C448 1.327 . S
C450 C469 1.429 . S
C450 H474 0.950 . S
C451 C468 1.574 . S
C451 C470 1.368 . S
C451 H475 0.949 . S
H452 C456 0.949 . S
C453 C454 1.349 . S
C453 C455 1.327 . S
C453 H476 0.950 . S
C454 C453 1.349 . S
C454 C466 1.349 . S
C455 C453 1.327 . S
C455 C471 1.429 . S
C455 H477 0.950 . S
C456 H452 0.949 . S
C456 C464 1.574 . S
C456 C472 1.368 . S
H457 C465 0.950 . S
H458 C463 0.950 . S
H459 C464 0.949 . S
H460 C466 0.950 . S
H461 C467 0.950 . S
H462 C468 0.949 . S
C463 H458 0.950 . S
C463 C465 1.327 . S
C463 C469 1.429 . S
C464 C456 1.574 . S
C464 H459 0.949 . S
C464 C470 1.368 . S
C465 C449 1.349 . S
C465 H457 0.950 . S
C465 C463 1.327 . S
C466 C454 1.349 . S
C466 H460 0.950 . S
C466 C467 1.327 . S
C467 H461 0.950 . S
C467 C466 1.327 . S
C467 C471 1.429 . S
C468 C451 1.574 . S
C468 H462 0.949 . S
C468 C472 1.368 . S
C469 C450 1.429 . S
C469 C463 1.429 . S
C469 C470 1.523 . S
C470 C451 1.368 . S
C470 C464 1.368 . S
C470 C469 1.523 . S
C471 C455 1.429 . S
C471 C467 1.429 . S
C471 C472 1.523 . S
C472 C456 1.368 . S
C472 C468 1.368 . S
C472 C471 1.523 . S
H473 C448 0.950 1_545 S
H474 C450 0.950 . S
H475 C451 0.949 . S
H476 C453 0.950 . S
H477 C455 0.950 . S
C478 C479 1.349 . S
C478 C480 1.327 . S
C478 H503 0.950 . S
C479 C478 1.349 . S
C479 C495 1.349 . S
C480 C478 1.327 . S
C480 C499 1.429 . S
C480 H504 0.950 . S
C481 C498 1.574 . S
C481 C500 1.368 . S
C481 H505 0.949 . S
H482 C486 0.949 1_565 S
C483 C484 1.349 . S
C483 C485 1.327 . S
C483 H506 0.950 . S
C484 C483 1.349 . S
C484 C496 1.349 . S
C485 C483 1.327 . S
C485 C501 1.429 . S
C485 H507 0.950 . S
C486 H482 0.949 1_545 S
C486 C494 1.574 . S
C486 C502 1.368 . S
H487 C495 0.950 . S
H488 C493 0.950 . S
H489 C494 0.949 . S
H490 C496 0.950 . S
H491 C497 0.950 . S
H492 C498 0.949 . S
C493 H488 0.950 . S
C493 C495 1.327 . S
C493 C499 1.429 . S
C494 C486 1.574 . S
C494 H489 0.949 . S
C494 C500 1.368 . S
C495 C479 1.349 . S
C495 H487 0.950 . S
C495 C493 1.327 . S
C496 C484 1.349 . S
C496 H490 0.950 . S
C496 C497 1.327 . S
C497 H491 0.950 . S
C497 C496 1.327 . S
C497 C501 1.429 . S
C498 C481 1.574 . S
C498 H492 0.949 . S
C498 C502 1.368 . S
C499 C480 1.429 . S
C499 C493 1.429 . S
C499 C500 1.523 . S
C500 C481 1.368 . S
C500 C494 1.368 . S
C500 C499 1.523 . S
C501 C485 1.429 . S
C501 C497 1.429 . S
C501 C502 1.523 1_565 S
C502 C486 1.368 . S
C502 C498 1.368 . S
C502 C501 1.523 1_545 S
H503 C478 0.950 . S
H504 C480 0.950 . S
H505 C481 0.949 . S
H506 C483 0.950 . S
H507 C485 0.950 . S
C508 C509 1.349 . S
C508 C510 1.327 . S
C508 H533 0.950 . S
C509 C508 1.349 . S
C509 C525 1.349 . S
C510 C508 1.327 . S
C510 C529 1.429 . S
C510 H534 0.950 . S
C511 C528 1.574 . S
C511 C530 1.368 . S
C511 H535 0.949 . S
H512 C516 0.949 . S
C513 C514 1.349 . S
C513 C515 1.327 . S
C513 H536 0.950 . S
C514 C513 1.349 . S
C514 C526 1.349 . S
C515 C513 1.327 . S
C515 C531 1.429 . S
C515 H537 0.950 . S
C516 H512 0.949 . S
C516 C524 1.574 . S
C516 C532 1.368 . S
H517 C525 0.950 . S
H518 C523 0.950 . S
H519 C524 0.949 . S
H520 C526 0.950 . S
H521 C527 0.950 . S
H522 C528 0.949 . S
C523 H518 0.950 . S
C523 C525 1.327 . S
C523 C529 1.429 . S
C524 C516 1.574 . S
C524 H519 0.949 . S
C524 C530 1.368 . S
C525 C509 1.349 . S
C525 H517 0.950 . S
C525 C523 1.327 . S
C526 C514 1.349 . S
C526 H520 0.950 . S
C526 C527 1.327 . S
C527 H521 0.950 . S
C527 C526 1.327 . S
C527 C531 1.429 . S
C528 C511 1.574 . S
C528 H522 0.949 . S
C528 C532 1.368 . S
C529 C510 1.429 . S
C529 C523 1.429 . S
C529 C530 1.523 . S
C530 C511 1.368 . S
C530 C524 1.368 . S
C530 C529 1.523 . S
C531 C515 1.429 . S
C531 C527 1.429 . S
C531 C532 1.523 . S
C532 C516 1.368 . S
C532 C528 1.368 . S
C532 C531 1.523 . S
H533 C508 0.950 . S
H534 C510 0.950 . S
H535 C511 0.949 . S
H536 C513 0.950 . S
H537 C515 0.950 . S
C538 C539 1.349 . S
C538 C540 1.327 . S
C538 H563 0.950 . S
C539 C538 1.349 . S
C539 C555 1.349 . S
C540 C538 1.327 . S
C540 C559 1.429 . S
C540 H564 0.950 . S
C541 C558 1.574 . S
C541 C560 1.368 . S
C541 H565 0.949 . S
H542 C546 0.949 . S
C543 C544 1.349 . S
C543 C545 1.327 . S
C543 H566 0.950 . S
C544 C543 1.349 . S
C544 C556 1.349 . S
C545 C543 1.327 . S
C545 C561 1.429 . S
C545 H567 0.950 . S
C546 H542 0.949 . S
C546 C554 1.574 . S
C546 C562 1.368 . S
H547 C555 0.950 . S
H548 C553 0.950 . S
H549 C554 0.949 . S
H550 C556 0.950 . S
H551 C557 0.950 . S
H552 C558 0.949 . S
C553 H548 0.950 . S
C553 C555 1.327 . S
C553 C559 1.429 . S
C554 C546 1.574 . S
C554 H549 0.949 . S
C554 C560 1.368 . S
C555 C539 1.349 . S
C555 H547 0.950 . S
C555 C553 1.327 . S
C556 C544 1.349 . S
C556 H550 0.950 . S
C556 C557 1.327 . S
C557 H551 0.950 . S
C557 C556 1.327 . S
C557 C561 1.429 . S
C558 C541 1.574 . S
C558 H552 0.949 . S
C558 C562 1.368 . S
C559 C540 1.429 . S
C559 C553 1.429 . S
C559 C560 1.523 1_545 S
C560 C541 1.368 . S
C560 C554 1.368 . S
C560 C559 1.523 1_565 S
C561 C545 1.429 . S
C561 C557 1.429 . S
C561 C562 1.523 . S
C562 C546 1.368 . S
C562 C558 1.368 . S
C562 C561 1.523 . S
H563 C538 0.950 . S
H564 C540 0.950 . S
H565 C541 0.949 . S
H566 C543 0.950 . S
H567 C545 0.950 . S
C568 C569 1.349 . S
C568 C570 1.327 . S
C568 H593 0.950 1_565 S
C569 C568 1.349 . S
C569 C585 1.349 . S
C570 C568 1.327 . S
C570 C589 1.429 . S
C570 H594 0.950 . S
C571 C588 1.574 . S
C571 C590 1.368 . S
C571 H595 0.949 . S
H572 C576 0.949 . S
C573 C574 1.346 1_655 S
C573 C575 1.335 . S
C573 H596 0.946 1_655 S
C574 C573 1.346 1_455 S
C574 C586 1.349 1_455 S
C575 C573 1.335 . S
C575 C591 1.429 . S
C575 H597 0.950 . S
C576 H572 0.949 . S
C576 C584 1.574 . S
C576 C592 1.368 . S
H577 C585 0.950 . S
H578 C583 0.950 . S
H579 C584 0.949 . S
H580 C586 0.950 1_455 S
H581 C587 0.950 . S
H582 C588 0.949 . S
C583 H578 0.950 . S
C583 C585 1.327 . S
C583 C589 1.429 . S
C584 C576 1.574 . S
C584 H579 0.949 . S
C584 C590 1.368 . S
C585 C569 1.349 . S
C585 H577 0.950 . S
C585 C583 1.327 . S
C586 C574 1.349 1_655 S
C586 H580 0.950 1_655 S
C586 C587 1.327 . S
C587 H581 0.950 . S
C587 C586 1.327 . S
C587 C591 1.429 . S
C588 C571 1.574 . S
C588 H582 0.949 . S
C588 C592 1.368 . S
C589 C570 1.429 . S
C589 C583 1.429 . S
C589 C590 1.523 . S
C590 C571 1.368 . S
C590 C584 1.368 . S
C590 C589 1.523 . S
C591 C575 1.429 . S
C591 C587 1.429 . S
C591 C592 1.523 . S
C592 C576 1.368 . S
C592 C588 1.368 . S
C592 C591 1.523 . S
H593 C568 0.950 1_545 S
H594 C570 0.950 . S
H595 C571 0.949 . S
H596 C573 0.946 1_455 S
H597 C575 0.950 . S
C598 C599 1.349 . S
C598 C600 1.327 . S
C598 H623 0.950 . S
C599 C598 1.349 . S
C599 C615 1.349 . S
C600 C598 1.327 . S
C600 C619 1.429 . S
C600 H624 0.950 . S
C601 C618 1.574 . S
C601 C620 1.368 . S
C601 H625 0.949 . S
H602 C606 0.949 1_455 S
C603 C604 1.349 1_655 S
C603 C605 1.327 . S
C603 H626 0.950 . S
C604 C603 1.349 1_455 S
C604 C616 1.349 . S
C605 C603 1.327 . S
C605 C621 1.429 . S
C605 H627 0.950 . S
C606 H602 0.949 1_655 S
C606 C614 1.574 . S
C606 C622 1.368 . S
H607 C615 0.950 . S
H608 C613 0.950 1_545 S
H609 C614 0.949 1_565 S
H610 C616 0.950 . S
H611 C617 0.950 . S
H612 C618 0.949 . S
C613 H608 0.950 1_565 S
C613 C615 1.327 . S
C613 C619 1.429 . S
C614 C606 1.574 . S
C614 H609 0.949 1_545 S
C614 C620 1.368 . S
C615 C599 1.349 . S
C615 H607 0.950 . S
C615 C613 1.327 . S
C616 C604 1.349 . S
C616 H610 0.950 . S
C616 C617 1.327 . S
C617 H611 0.950 . S
C617 C616 1.327 . S
C617 C621 1.429 1_455 S
C618 C601 1.574 . S
C618 H612 0.949 . S
C618 C622 1.368 . S
C619 C600 1.429 . S
C619 C613 1.429 . S
C619 C620 1.523 1_565 S
C620 C601 1.368 . S
C620 C614 1.368 . S
C620 C619 1.523 1_545 S
C621 C605 1.429 . S
C621 C617 1.429 1_655 S
C621 C622 1.523 . S
C622 C606 1.368 . S
C622 C618 1.368 . S
C622 C621 1.523 . S
H623 C598 0.950 . S
H624 C600 0.950 . S
H625 C601 0.949 . S
H626 C603 0.950 . S
H627 C605 0.950 . S
C628 C629 1.349 . S
C628 C630 1.327 . S
C628 H653 0.950 . S
C629 C628 1.349 . S
C629 C645 1.349 . S
C630 C628 1.327 . S
C630 C649 1.429 . S
C630 H654 0.950 . S
C631 C648 1.574 . S
C631 C650 1.368 . S
C631 H655 0.949 . S
H632 C636 0.949 . S
C633 C634 1.349 . S
C633 C635 1.327 . S
C633 H656 0.950 . S
C634 C633 1.349 . S
C634 C646 1.349 . S
C635 C633 1.327 . S
C635 C651 1.429 . S
C635 H657 0.950 . S
C636 H632 0.949 . S
C636 C644 1.574 . S
C636 C652 1.368 . S
H637 C645 0.950 . S
H638 C643 0.950 . S
H639 C644 0.949 . S
H640 C646 0.950 . S
H641 C647 0.950 . S
H642 C648 0.949 . S
C643 H638 0.950 . S
C643 C645 1.327 . S
C643 C649 1.429 . S
C644 C636 1.574 . S
C644 H639 0.949 . S
C644 C650 1.368 . S
C645 C629 1.349 . S
C645 H637 0.950 . S
C645 C643 1.327 . S
C646 C634 1.349 . S
C646 H640 0.950 . S
C646 C647 1.327 . S
C647 H641 0.950 . S
C647 C646 1.327 . S
C647 C651 1.429 . S
C648 C631 1.574 . S
C648 H642 0.949 . S
C648 C652 1.368 . S
C649 C630 1.429 . S
C649 C643 1.429 . S
C649 C650 1.523 . S
C650 C631 1.368 . S
C650 C644 1.368 . S
C650 C649 1.523 . S
C651 C635 1.429 . S
C651 C647 1.429 . S
C651 C652 1.523 . S
C652 C636 1.368 . S
C652 C648 1.368 . S
C652 C651 1.523 . S
H653 C628 0.950 . S
H654 C630 0.950 . S
H655 C631 0.949 . S
H656 C633 0.950 . S
H657 C635 0.950 . S
C658 C659 1.349 . S
C658 C660 1.327 . S
C658 H683 0.950 . S
C659 C658 1.349 . S
C659 C675 1.349 . S
C660 C658 1.327 . S
C660 C679 1.429 . S
C660 H684 0.950 . S
C661 C678 1.574 . S
C661 C680 1.368 . S
C661 H685 0.949 . S
H662 C666 0.949 1_455 S
C663 C664 1.349 1_655 S
C663 C665 1.327 . S
C663 H686 0.950 . S
C664 C663 1.349 1_455 S
C664 C676 1.349 . S
C665 C663 1.327 . S
C665 C681 1.429 . S
C665 H687 0.950 . S
C666 H662 0.949 1_655 S
C666 C674 1.574 . S
C666 C682 1.368 . S
H667 C675 0.950 . S
H668 C673 0.950 1_565 S
H669 C674 0.949 1_545 S
H670 C676 0.950 . S
H671 C677 0.950 . S
H672 C678 0.949 . S
C673 H668 0.950 1_545 S
C673 C675 1.327 . S
C673 C679 1.429 . S
C674 C666 1.574 . S
C674 H669 0.949 1_565 S
C674 C680 1.368 . S
C675 C659 1.349 . S
C675 H667 0.950 . S
C675 C673 1.327 . S
C676 C664 1.349 . S
C676 H670 0.950 . S
C676 C677 1.327 . S
C677 H671 0.950 . S
C677 C676 1.327 . S
C677 C681 1.429 1_455 S
C678 C661 1.574 . S
C678 H672 0.949 . S
C678 C682 1.368 . S
C679 C660 1.429 . S
C679 C673 1.429 . S
C679 C680 1.523 1_545 S
C680 C661 1.368 . S
C680 C674 1.368 . S
C680 C679 1.523 1_565 S
C681 C665 1.429 . S
C681 C677 1.429 1_655 S
C681 C682 1.523 . S
C682 C666 1.368 . S
C682 C678 1.368 . S
C682 C681 1.523 . S
H683 C658 0.950 . S
H684 C660 0.950 . S
H685 C661 0.949 . S
H686 C663 0.950 . S
H687 C665 0.950 . S
C688 C689 1.349 . S
C688 C690 1.327 . S
C688 H713 0.950 1_545 S
C689 C688 1.349 . S
C689 C705 1.349 . S
C690 C688 1.327 . S
C690 C709 1.429 . S
C690 H714 0.950 . S
C691 C708 1.574 . S
C691 C710 1.368 . S
C691 H715 0.949 . S
H692 C696 0.949 . S
C693 C694 1.349 1_655 S
C693 C695 1.327 . S
C693 H716 0.950 1_655 S
C694 C693 1.349 1_455 S
C694 C706 1.356 . S
C695 C693 1.327 . S
C695 C711 1.429 . S
C695 H717 0.950 . S
C696 H692 0.949 . S
C696 C704 1.574 . S
C696 C712 1.368 . S
H697 C705 0.950 . S
H698 C703 0.950 . S
H699 C704 0.949 . S
H700 C706 0.960 . S
H701 C707 0.950 . S
H702 C708 0.949 . S
C703 H698 0.950 . S
C703 C705 1.327 . S
C703 C709 1.429 . S
C704 C696 1.574 . S
C704 H699 0.949 . S
C704 C710 1.368 . S
C705 C689 1.349 . S
C705 H697 0.950 . S
C705 C703 1.327 . S
C706 C694 1.356 . S
C706 H700 0.960 . S
C706 C707 1.311 1_455 S
C707 H701 0.950 . S
C707 C706 1.311 1_655 S
C707 C711 1.429 . S
C708 C691 1.574 . S
C708 H702 0.949 . S
C708 C712 1.368 . S
C709 C690 1.429 . S
C709 C703 1.429 . S
C709 C710 1.523 . S
C710 C691 1.368 . S
C710 C704 1.368 . S
C710 C709 1.523 . S
C711 C695 1.429 . S
C711 C707 1.429 . S
C711 C712 1.523 . S
C712 C696 1.368 . S
C712 C708 1.368 . S
C712 C711 1.523 . S
H713 C688 0.950 1_565 S
H714 C690 0.950 . S
H715 C691 0.949 . S
H716 C693 0.950 1_455 S
H717 C695 0.950 . S
C718 C719 1.349 . S
C718 C720 1.327 . S
C718 H743 0.950 . S
C719 C718 1.349 . S
C719 C735 1.349 . S
C720 C718 1.327 . S
C720 C739 1.429 . S
C720 H744 0.950 1_565 S
C721 C738 1.574 . S
C721 C740 1.368 . S
C721 H745 0.949 1_545 S
H722 C726 0.949 . S
C723 C724 1.349 . S
C723 C725 1.327 . S
C723 H746 0.950 . S
C724 C723 1.349 . S
C724 C736 1.349 . S
C725 C723 1.327 . S
C725 C741 1.429 . S
C725 H747 0.950 . S
C726 H722 0.949 . S
C726 C734 1.574 . S
C726 C742 1.368 . S
H727 C735 0.950 . S
H728 C733 0.950 . S
H729 C734 0.949 . S
H730 C736 0.950 . S
H731 C737 0.950 . S
H732 C738 0.949 . S
C733 H728 0.950 . S
C733 C735 1.327 . S
C733 C739 1.429 . S
C734 C726 1.574 . S
C734 H729 0.949 . S
C734 C740 1.368 . S
C735 C719 1.349 . S
C735 H727 0.950 . S
C735 C733 1.327 . S
C736 C724 1.349 . S
C736 H730 0.950 . S
C736 C737 1.327 . S
C737 H731 0.950 . S
C737 C736 1.327 . S
C737 C741 1.429 . S
C738 C721 1.574 . S
C738 H732 0.949 . S
C738 C742 1.368 . S
C739 C720 1.429 . S
C739 C733 1.429 . S
C739 C740 1.523 1_565 S
C740 C721 1.368 . S
C740 C734 1.368 . S
C740 C739 1.523 1_545 S
C741 C725 1.429 . S
C741 C737 1.429 . S
C741 C742 1.523 . S
C742 C726 1.368 . S
C742 C738 1.368 . S
C742 C741 1.523 . S
H743 C718 0.950 . S
H744 C720 0.950 1_545 S
H745 C721 0.949 1_565 S
H746 C723 0.950 . S
H747 C725 0.950 . S
C748 C749 1.349 . S
C748 C750 1.327 . S
C748 H773 0.950 . S
C749 C748 1.349 . S
C749 C765 1.349 . S
C750 C748 1.327 . S
C750 C769 1.429 . S
C750 H774 0.950 . S
C751 C768 1.574 . S
C751 C770 1.368 . S
C751 H775 0.949 . S
H752 C756 0.949 . S
C753 C754 1.349 . S
C753 C755 1.327 . S
C753 H776 0.950 . S
C754 C753 1.349 . S
C754 C766 1.349 . S
C755 C753 1.327 . S
C755 C771 1.429 . S
C755 H777 0.950 . S
C756 H752 0.949 . S
C756 C764 1.574 . S
C756 C772 1.368 . S
H757 C765 0.950 . S
H758 C763 0.950 . S
H759 C764 0.949 . S
H760 C766 0.950 . S
H761 C767 0.950 . S
H762 C768 0.949 . S
C763 H758 0.950 . S
C763 C765 1.327 . S
C763 C769 1.429 . S
C764 C756 1.574 . S
C764 H759 0.949 . S
C764 C770 1.368 . S
C765 C749 1.349 . S
C765 H757 0.950 . S
C765 C763 1.327 . S
C766 C754 1.349 . S
C766 H760 0.950 . S
C766 C767 1.327 . S
C767 H761 0.950 . S
C767 C766 1.327 . S
C767 C771 1.429 . S
C768 C751 1.574 . S
C768 H762 0.949 . S
C768 C772 1.368 . S
C769 C750 1.429 . S
C769 C763 1.429 . S
C769 C770 1.523 . S
C770 C751 1.368 . S
C770 C764 1.368 . S
C770 C769 1.523 . S
C771 C755 1.429 . S
C771 C767 1.429 . S
C771 C772 1.523 . S
C772 C756 1.368 . S
C772 C768 1.368 . S
C772 C771 1.523 . S
H773 C748 0.950 . S
H774 C750 0.950 . S
H775 C751 0.949 . S
H776 C753 0.950 . S
H777 C755 0.950 . S
C778 C779 1.349 . S
C778 C780 1.327 . S
C778 H803 0.950 . S
C779 C778 1.349 . S
C779 C795 1.349 . S
C780 C778 1.327 . S
C780 C799 1.429 . S
C780 H804 0.950 . S
C781 C798 1.574 . S
C781 C800 1.368 . S
C781 H805 0.949 . S
H782 C786 0.949 . S
C783 C784 1.349 . S
C783 C785 1.327 . S
C783 H806 0.950 . S
C784 C783 1.349 . S
C784 C796 1.349 . S
C785 C783 1.327 . S
C785 C801 1.429 . S
C785 H807 0.950 . S
C786 H782 0.949 . S
C786 C794 1.574 . S
C786 C802 1.368 . S
H787 C795 0.950 . S
H788 C793 0.950 . S
H789 C794 0.949 . S
H790 C796 0.950 . S
H791 C797 0.950 . S
H792 C798 0.949 . S
C793 H788 0.950 . S
C793 C795 1.327 . S
C793 C799 1.429 . S
C794 C786 1.574 . S
C794 H789 0.949 . S
C794 C800 1.368 . S
C795 C779 1.349 . S
C795 H787 0.950 . S
C795 C793 1.327 . S
C796 C784 1.349 . S
C796 H790 0.950 . S
C796 C797 1.327 . S
C797 H791 0.950 . S
C797 C796 1.327 . S
C797 C801 1.429 . S
C798 C781 1.574 . S
C798 H792 0.949 . S
C798 C802 1.368 . S
C799 C780 1.429 . S
C799 C793 1.429 . S
C799 C800 1.523 . S
C800 C781 1.368 . S
C800 C794 1.368 . S
C800 C799 1.523 . S
C801 C785 1.429 . S
C801 C797 1.429 . S
C801 C802 1.523 . S
C802 C786 1.368 . S
C802 C798 1.368 . S
C802 C801 1.523 . S
H803 C778 0.950 . S
H804 C780 0.950 . S
H805 C781 0.949 . S
H806 C783 0.950 . S
H807 C785 0.950 . S
C808 C809 1.349 1_655 S
C808 C810 1.327 . S
C808 H833 0.950 . S
C809 C808 1.349 1_455 S
C809 C825 1.349 . S
C810 C808 1.327 . S
C810 C829 1.429 . S
C810 H834 0.950 . S
C811 C828 1.574 . S
C811 C830 1.368 . S
C811 H835 0.949 . S
H812 C816 0.949 . S
C813 C814 1.349 . S
C813 C815 1.327 . S
C813 H836 0.950 . S
C814 C813 1.349 . S
C814 C826 1.349 . S
C815 C813 1.327 . S
C815 C831 1.429 . S
C815 H837 0.950 . S
C816 H812 0.949 . S
C816 C824 1.574 . S
C816 C832 1.368 . S
H817 C825 0.950 . S
H818 C823 0.950 . S
H819 C824 0.949 . S
H820 C826 0.950 . S
H821 C827 0.950 . S
H822 C828 0.949 . S
C823 H818 0.950 . S
C823 C825 1.327 1_655 S
C823 C829 1.429 . S
C824 C816 1.574 . S
C824 H819 0.949 . S
C824 C830 1.368 . S
C825 C809 1.349 . S
C825 H817 0.950 . S
C825 C823 1.327 1_455 S
C826 C814 1.349 . S
C826 H820 0.950 . S
C826 C827 1.327 . S
C827 H821 0.950 . S
C827 C826 1.327 . S
C827 C831 1.429 . S
C828 C811 1.574 . S
C828 H822 0.949 . S
C828 C832 1.368 . S
C829 C810 1.429 . S
C829 C823 1.429 . S
C829 C830 1.523 . S
C830 C811 1.368 . S
C830 C824 1.368 . S
C830 C829 1.523 . S
C831 C815 1.429 . S
C831 C827 1.429 . S
C831 C832 1.523 . S
C832 C816 1.368 . S
C832 C828 1.368 . S
C832 C831 1.523 . S
H833 C808 0.950 . S
H834 C810 0.950 . S
H835 C811 0.949 . S
H836 C813 0.950 . S
H837 C815 0.950 . S
C838 C839 1.349 . S
C838 C840 1.327 . S
C838 H863 0.950 . S
C839 C838 1.349 . S
C839 C855 1.349 . S
C840 C838 1.327 . S
C840 C859 1.429 . S
C840 H864 0.950 . S
C841 C858 1.574 . S
C841 C860 1.368 . S
C841 H865 0.949 . S
H842 C846 0.949 . S
C843 C844 1.349 . S
C843 C845 1.327 . S
C843 H866 0.950 . S
C844 C843 1.349 . S
C844 C856 1.349 . S
C845 C843 1.327 . S
C845 C861 1.429 . S
C845 H867 0.950 . S
C846 H842 0.949 . S
C846 C854 1.574 . S
C846 C862 1.368 . S
H847 C855 0.950 . S
H848 C853 0.950 . S
H849 C854 0.949 . S
H850 C856 0.950 . S
H851 C857 0.950 . S
H852 C858 0.949 . S
C853 H848 0.950 . S
C853 C855 1.327 . S
C853 C859 1.429 . S
C854 C846 1.574 . S
C854 H849 0.949 . S
C854 C860 1.368 . S
C855 C839 1.349 . S
C855 H847 0.950 . S
C855 C853 1.327 . S
C856 C844 1.349 . S
C856 H850 0.950 . S
C856 C857 1.327 . S
C857 H851 0.950 . S
C857 C856 1.327 . S
C857 C861 1.429 . S
C858 C841 1.574 . S
C858 H852 0.949 . S
C858 C862 1.368 . S
C859 C840 1.429 . S
C859 C853 1.429 . S
C859 C860 1.523 . S
C860 C841 1.368 . S
C860 C854 1.368 . S
C860 C859 1.523 . S
C861 C845 1.429 . S
C861 C857 1.429 . S
C861 C862 1.523 . S
C862 C846 1.368 . S
C862 C858 1.368 . S
C862 C861 1.523 . S
H863 C838 0.950 . S
H864 C840 0.950 . S
H865 C841 0.949 . S
H866 C843 0.950 . S
H867 C845 0.950 . S
C868 C869 1.349 . S
C868 C870 1.327 . S
C868 H893 0.950 . S
C869 C868 1.349 . S
C869 C885 1.349 . S
C870 C868 1.327 . S
C870 C889 1.429 . S
C870 H894 0.950 . S
C871 C888 1.574 . S
C871 C890 1.368 . S
C871 H895 0.949 . S
H872 C876 0.949 . S
C873 C874 1.349 . S
C873 C875 1.327 . S
C873 H896 0.950 . S
C874 C873 1.349 . S
C874 C886 1.349 . S
C875 C873 1.327 . S
C875 C891 1.429 . S
C875 H897 0.950 . S
C876 H872 0.949 . S
C876 C884 1.574 . S
C876 C892 1.368 . S
H877 C885 0.950 . S
H878 C883 0.950 . S
H879 C884 0.949 . S
H880 C886 0.950 . S
H881 C887 0.950 . S
H882 C888 0.949 . S
C883 H878 0.950 . S
C883 C885 1.327 . S
C883 C889 1.429 . S
C884 C876 1.574 . S
C884 H879 0.949 . S
C884 C890 1.368 . S
C885 C869 1.349 . S
C885 H877 0.950 . S
C885 C883 1.327 . S
C886 C874 1.349 . S
C886 H880 0.950 . S
C886 C887 1.327 . S
C887 H881 0.950 . S
C887 C886 1.327 . S
C887 C891 1.429 . S
C888 C871 1.574 . S
C888 H882 0.949 . S
C888 C892 1.368 . S
C889 C870 1.429 . S
C889 C883 1.429 . S
C889 C890 1.523 . S
C890 C871 1.368 . S
C890 C884 1.368 . S
C890 C889 1.523 . S
C891 C875 1.429 . S
C891 C887 1.429 . S
C891 C892 1.523 . S
C892 C876 1.368 . S
C892 C888 1.368 . S
C892 C891 1.523 . S
H893 C868 0.950 . S
H894 C870 0.950 . S
H895 C871 0.949 . S
H896 C873 0.950 . S
H897 C875 0.950 . S
C898 C899 1.349 . S
C898 C900 1.327 . S
C898 H923 0.950 . S
C899 C898 1.349 . S
C899 C915 1.349 . S
C900 C898 1.327 . S
C900 C919 1.429 . S
C900 H924 0.950 . S
C901 C918 1.574 . S
C901 C920 1.368 . S
C901 H925 0.949 . S
H902 C906 0.949 . S
C903 C904 1.349 . S
C903 C905 1.327 . S
C903 H926 0.950 . S
C904 C903 1.349 . S
C904 C916 1.349 . S
C905 C903 1.327 . S
C905 C921 1.429 . S
C905 H927 0.950 . S
C906 H902 0.949 . S
C906 C914 1.574 . S
C906 C922 1.368 . S
H907 C915 0.950 . S
H908 C913 0.950 . S
H909 C914 0.949 . S
H910 C916 0.950 . S
H911 C917 0.950 . S
H912 C918 0.949 . S
C913 H908 0.950 . S
C913 C915 1.327 . S
C913 C919 1.429 . S
C914 C906 1.574 . S
C914 H909 0.949 . S
C914 C920 1.368 . S
C915 C899 1.349 . S
C915 H907 0.950 . S
C915 C913 1.327 . S
C916 C904 1.349 . S
C916 H910 0.950 . S
C916 C917 1.327 . S
C917 H911 0.950 . S
C917 C916 1.327 . S
C917 C921 1.429 . S
C918 C901 1.574 . S
C918 H912 0.949 . S
C918 C922 1.368 . S
C919 C900 1.429 . S
C919 C913 1.429 . S
C919 C920 1.523 . S
C920 C901 1.368 . S
C920 C914 1.368 . S
C920 C919 1.523 . S
C921 C905 1.429 . S
C921 C917 1.429 . S
C921 C922 1.523 . S
C922 C906 1.368 . S
C922 C918 1.368 . S
C922 C921 1.523 . S
H923 C898 0.950 . S
H924 C900 0.950 . S
H925 C901 0.949 . S
H926 C903 0.950 . S
H927 C905 0.950 . S
C928 C929 1.349 . S
C928 C930 1.327 1_455 S
C928 H953 0.950 . S
C929 C928 1.349 . S
C929 C945 1.349 1_455 S
C930 C928 1.327 1_655 S
C930 C949 1.429 . S
C930 H954 0.950 . S
C931 C948 1.574 . S
C931 C950 1.368 . S
C931 H955 0.949 . S
H932 C936 0.949 . S
C933 C934 1.349 . S
C933 C935 1.327 . S
C933 H956 0.950 . S
C934 C933 1.349 . S
C934 C946 1.349 . S
C935 C933 1.327 . S
C935 C951 1.429 . S
C935 H957 0.950 . S
C936 H932 0.949 . S
C936 C944 1.574 . S
C936 C952 1.368 . S
H937 C945 0.950 . S
H938 C943 0.950 . S
H939 C944 0.949 . S
H940 C946 0.950 . S
H941 C947 0.950 . S
H942 C948 0.949 . S
C943 H938 0.950 . S
C943 C945 1.327 . S
C943 C949 1.429 . S
C944 C936 1.574 . S
C944 H939 0.949 . S
C944 C950 1.368 . S
C945 C929 1.349 1_655 S
C945 H937 0.950 . S
C945 C943 1.327 . S
C946 C934 1.349 . S
C946 H940 0.950 . S
C946 C947 1.327 . S
C947 H941 0.950 . S
C947 C946 1.327 . S
C947 C951 1.429 . S
C948 C931 1.574 . S
C948 H942 0.949 . S
C948 C952 1.368 . S
C949 C930 1.429 . S
C949 C943 1.429 . S
C949 C950 1.523 . S
C950 C931 1.368 . S
C950 C944 1.368 . S
C950 C949 1.523 . S
C951 C935 1.429 . S
C951 C947 1.429 . S
C951 C952 1.523 . S
C952 C936 1.368 . S
C952 C948 1.368 . S
C952 C951 1.523 . S
H953 C928 0.950 . S
H954 C930 0.950 . S
H955 C931 0.949 . S
H956 C933 0.950 . S
H957 C935 0.950 . S
C958 C959 1.349 . S
C958 C960 1.327 . S
C958 H983 0.950 . S
C959 C958 1.349 . S
C959 C975 1.349 . S
C960 C958 1.327 . S
C960 C979 1.429 . S
C960 H984 0.950 . S
C961 C978 1.574 . S
C961 C980 1.368 . S
C961 H985 0.949 . S
H962 C966 0.949 . S
C963 C964 1.349 . S
C963 C965 1.327 . S
C963 H986 0.950 . S
C964 C963 1.349 . S
C964 C976 1.349 . S
C965 C963 1.327 . S
C965 C981 1.429 . S
C965 H987 0.950 . S
C966 H962 0.949 . S
C966 C974 1.574 . S
C966 C982 1.368 . S
H967 C975 0.950 . S
H968 C973 0.950 . S
H969 C974 0.949 . S
H970 C976 0.950 1_455 S
H971 C977 0.950 . S
H972 C978 0.949 . S
C973 H968 0.950 . S
C973 C975 1.327 . S
C973 C979 1.429 . S
C974 C966 1.574 . S
C974 H969 0.949 . S
C974 C980 1.368 . S
C975 C959 1.349 . S
C975 H967 0.950 . S
C975 C973 1.327 . S
C976 C964 1.349 . S
C976 H970 0.950 1_655 S
C976 C977 1.327 . S
C977 H971 0.950 . S
C977 C976 1.327 . S
C977 C981 1.429 . S
C978 C961 1.574 . S
C978 H972 0.949 . S
C978 C982 1.368 . S
C979 C960 1.429 . S
C979 C973 1.429 . S
C979 C980 1.523 . S
C980 C961 1.368 . S
C980 C974 1.368 . S
C980 C979 1.523 . S
C981 C965 1.429 . S
C981 C977 1.429 . S
C981 C982 1.523 . S
C982 C966 1.368 . S
C982 C978 1.368 . S
C982 C981 1.523 . S
H983 C958 0.950 . S
H984 C960 0.950 . S
H985 C961 0.949 . S
H986 C963 0.950 . S
H987 C965 0.950 . S
C988 C989 1.349 . S
C988 C990 1.327 . S
C988 H1013 0.950 . S
C989 C988 1.349 . S
C989 C1005 1.349 . S
C990 C988 1.327 . S
C990 C1009 1.429 . S
C990 H1014 0.950 . S
C991 C1008 1.574 . S
C991 C1010 1.368 . S
C991 H1015 0.949 . S
H992 C996 0.949 . S
C993 C994 1.349 . S
C993 C995 1.327 . S
C993 H1016 0.950 . S
C994 C993 1.349 . S
C994 C1006 1.349 . S
C995 C993 1.327 . S
C995 C1011 1.429 . S
C995 H1017 0.950 . S
C996 H992 0.949 . S
C996 C1004 1.574 . S
C996 C1012 1.368 . S
H997 C1005 0.950 . S
H998 C1003 0.950 . S
H999 C1004 0.949 . S
H1000 C1006 0.950 . S
H1001 C1007 0.950 . S
H1002 C1008 0.949 . S
C1003 H998 0.950 . S
C1003 C1005 1.327 . S
C1003 C1009 1.429 . S
C1004 C996 1.574 . S
C1004 H999 0.949 . S
C1004 C1010 1.368 . S
C1005 C989 1.349 . S
C1005 H997 0.950 . S
C1005 C1003 1.327 . S
C1006 C994 1.349 . S
C1006 H1000 0.950 . S
C1006 C1007 1.327 . S
C1007 H1001 0.950 . S
C1007 C1006 1.327 . S
C1007 C1011 1.429 . S
C1008 C991 1.574 . S
C1008 H1002 0.949 . S
C1008 C1012 1.368 . S
C1009 C990 1.429 . S
C1009 C1003 1.429 . S
C1009 C1010 1.523 . S
C1010 C991 1.368 . S
C1010 C1004 1.368 . S
C1010 C1009 1.523 . S
C1011 C995 1.429 . S
C1011 C1007 1.429 . S
C1011 C1012 1.523 . S
C1012 C996 1.368 . S
C1012 C1008 1.368 . S
C1012 C1011 1.523 . S
H1013 C988 0.950 . S
H1014 C990 0.950 . S
H1015 C991 0.949 . S
H1016 C993 0.950 . S
H1017 C995 0.950 . S
C1018 C1019 1.349 . S
C1018 C1020 1.327 . S
C1018 H1043 0.950 . S
C1019 C1018 1.349 . S
C1019 C1035 1.349 . S
C1020 C1018 1.327 . S
C1020 C1039 1.429 . S
C1020 H1044 0.950 . S
C1021 C1038 1.574 . S
C1021 C1040 1.368 . S
C1021 H1045 0.949 . S
H1022 C1026 0.949 . S
C1023 C1024 1.349 . S
C1023 C1025 1.327 . S
C1023 H1046 0.950 . S
C1024 C1023 1.349 . S
C1024 C1036 1.349 . S
C1025 C1023 1.327 . S
C1025 C1041 1.429 . S
C1025 H1047 0.950 . S
C1026 H1022 0.949 . S
C1026 C1034 1.574 . S
C1026 C1042 1.368 . S
H1027 C1035 0.950 . S
H1028 C1033 0.950 . S
H1029 C1034 0.949 . S
H1030 C1036 0.950 . S
H1031 C1037 0.950 . S
H1032 C1038 0.949 . S
C1033 H1028 0.950 . S
C1033 C1035 1.327 . S
C1033 C1039 1.429 . S
C1034 C1026 1.574 . S
C1034 H1029 0.949 . S
C1034 C1040 1.368 . S
C1035 C1019 1.349 . S
C1035 H1027 0.950 . S
C1035 C1033 1.327 . S
C1036 C1024 1.349 . S
C1036 H1030 0.950 . S
C1036 C1037 1.327 . S
C1037 H1031 0.950 . S
C1037 C1036 1.327 . S
C1037 C1041 1.429 . S
C1038 C1021 1.574 . S
C1038 H1032 0.949 . S
C1038 C1042 1.368 . S
C1039 C1020 1.429 . S
C1039 C1033 1.429 . S
C1039 C1040 1.523 . S
C1040 C1021 1.368 . S
C1040 C1034 1.368 . S
C1040 C1039 1.523 . S
C1041 C1025 1.429 . S
C1041 C1037 1.429 . S
C1041 C1042 1.523 . S
C1042 C1026 1.368 . S
C1042 C1038 1.368 . S
C1042 C1041 1.523 . S
H1043 C1018 0.950 . S
H1044 C1020 0.950 . S
H1045 C1021 0.949 . S
H1046 C1023 0.950 . S
H1047 C1025 0.950 . S
C1048 C1049 1.349 . S
C1048 C1050 1.327 . S
C1048 H1073 0.950 . S
C1049 C1048 1.349 . S
C1049 C1065 1.349 . S
C1050 C1048 1.327 . S
C1050 C1069 1.429 . S
C1050 H1074 0.950 . S
C1051 C1068 1.574 . S
C1051 C1070 1.368 . S
C1051 H1075 0.949 . S
H1052 C1056 0.949 . S
C1053 C1054 1.349 . S
C1053 C1055 1.327 . S
C1053 H1076 0.950 . S
C1054 C1053 1.349 . S
C1054 C1066 1.349 . S
C1055 C1053 1.327 . S
C1055 C1071 1.429 . S
C1055 H1077 0.950 . S
C1056 H1052 0.949 . S
C1056 C1064 1.574 . S
C1056 C1072 1.368 . S
H1057 C1065 0.950 . S
H1058 C1063 0.950 . S
H1059 C1064 0.949 . S
H1060 C1066 0.950 . S
H1061 C1067 0.950 . S
H1062 C1068 0.949 . S
C1063 H1058 0.950 . S
C1063 C1065 1.327 . S
C1063 C1069 1.429 . S
C1064 C1056 1.574 . S
C1064 H1059 0.949 . S
C1064 C1070 1.368 . S
C1065 C1049 1.349 . S
C1065 H1057 0.950 . S
C1065 C1063 1.327 . S
C1066 C1054 1.349 . S
C1066 H1060 0.950 . S
C1066 C1067 1.327 . S
C1067 H1061 0.950 . S
C1067 C1066 1.327 . S
C1067 C1071 1.429 . S
C1068 C1051 1.574 . S
C1068 H1062 0.949 . S
C1068 C1072 1.368 . S
C1069 C1050 1.429 . S
C1069 C1063 1.429 . S
C1069 C1070 1.523 . S
C1070 C1051 1.368 . S
C1070 C1064 1.368 . S
C1070 C1069 1.523 . S
C1071 C1055 1.429 . S
C1071 C1067 1.429 . S
C1071 C1072 1.523 . S
C1072 C1056 1.368 . S
C1072 C1068 1.368 . S
C1072 C1071 1.523 . S
H1073 C1048 0.950 . S
H1074 C1050 0.950 . S
H1075 C1051 0.949 . S
H1076 C1053 0.950 . S
H1077 C1055 0.950 . S
C1078 C1079 1.349 . S
C1078 C1080 1.327 . S
C1078 H1103 0.950 . S
C1079 C1078 1.349 . S
C1079 C1095 1.349 . S
C1080 C1078 1.327 . S
C1080 C1099 1.429 . S
C1080 H1104 0.950 . S
C1081 C1098 1.574 . S
C1081 C1100 1.368 . S
C1081 H1105 0.949 . S
H1082 C1086 0.949 . S
C1083 C1084 1.349 . S
C1083 C1085 1.327 . S
C1083 H1106 0.950 . S
C1084 C1083 1.349 . S
C1084 C1096 1.349 . S
C1085 C1083 1.327 . S
C1085 C1101 1.429 . S
C1085 H1107 0.950 . S
C1086 H1082 0.949 . S
C1086 C1094 1.574 . S
C1086 C1102 1.368 . S
H1087 C1095 0.950 . S
H1088 C1093 0.950 . S
H1089 C1094 0.949 . S
H1090 C1096 0.950 . S
H1091 C1097 0.950 . S
H1092 C1098 0.949 . S
C1093 H1088 0.950 . S
C1093 C1095 1.327 . S
C1093 C1099 1.429 . S
C1094 C1086 1.574 . S
C1094 H1089 0.949 . S
C1094 C1100 1.368 . S
C1095 C1079 1.349 . S
C1095 H1087 0.950 . S
C1095 C1093 1.327 . S
C1096 C1084 1.349 . S
C1096 H1090 0.950 . S
C1096 C1097 1.327 . S
C1097 H1091 0.950 . S
C1097 C1096 1.327 . S
C1097 C1101 1.429 . S
C1098 C1081 1.574 . S
C1098 H1092 0.949 . S
C1098 C1102 1.368 . S
C1099 C1080 1.429 . S
C1099 C1093 1.429 . S
C1099 C1100 1.523 . S
C1100 C1081 1.368 . S
C1100 C1094 1.368 . S
C1100 C1099 1.523 . S
C1101 C1085 1.429 . S
C1101 C1097 1.429 . S
C1101 C1102 1.523 . S
C1102 C1086 1.368 . S
C1102 C1098 1.368 . S
C1102 C1101 1.523 . S
H1103 C1078 0.950 . S
H1104 C1080 0.950 . S
H1105 C1081 0.949 . S
H1106 C1083 0.950 . S
H1107 C1085 0.950 . S
C1108 C1109 1.349 . S
C1108 C1110 1.327 . S
C1108 H1133 0.950 . S
C1109 C1108 1.349 . S
C1109 C1125 1.349 . S
C1110 C1108 1.327 . S
C1110 C1129 1.429 . S
C1110 H1134 0.950 . S
C1111 C1128 1.574 . S
C1111 C1130 1.368 . S
C1111 H1135 0.949 . S
H1112 C1116 0.949 . S
C1113 C1114 1.349 . S
C1113 C1115 1.327 . S
C1113 H1136 0.950 . S
C1114 C1113 1.349 . S
C1114 C1126 1.349 . S
C1115 C1113 1.327 . S
C1115 C1131 1.429 . S
C1115 H1137 0.950 . S
C1116 H1112 0.949 . S
C1116 C1124 1.574 . S
C1116 C1132 1.368 . S
H1117 C1125 0.940 1_554 S
H1118 C1123 0.950 . S
H1119 C1124 0.949 . S
H1120 C1126 0.950 . S
H1121 C1127 0.950 . S
H1122 C1128 0.949 . S
C1123 H1118 0.950 . S
C1123 C1125 1.327 . S
C1123 C1129 1.429 . S
C1124 C1116 1.574 . S
C1124 H1119 0.949 . S
C1124 C1130 1.368 . S
C1125 C1109 1.349 . S
C1125 H1117 0.940 1_556 S
C1125 C1123 1.327 . S
C1126 C1114 1.349 . S
C1126 H1120 0.950 . S
C1126 C1127 1.327 . S
C1127 H1121 0.950 . S
C1127 C1126 1.327 . S
C1127 C1131 1.429 . S
C1128 C1111 1.574 . S
C1128 H1122 0.949 . S
C1128 C1132 1.368 . S
C1129 C1110 1.429 . S
C1129 C1123 1.429 . S
C1129 C1130 1.523 . S
C1130 C1111 1.368 . S
C1130 C1124 1.368 . S
C1130 C1129 1.523 . S
C1131 C1115 1.429 . S
C1131 C1127 1.429 . S
C1131 C1132 1.523 . S
C1132 C1116 1.368 . S
C1132 C1128 1.368 . S
C1132 C1131 1.523 . S
H1133 C1108 0.950 . S
H1134 C1110 0.950 . S
H1135 C1111 0.949 . S
H1136 C1113 0.950 . S
H1137 C1115 0.950 . S
C1138 C1139 1.349 . S
C1138 C1140 1.327 . S
C1138 H1163 0.950 . S
C1139 C1138 1.349 . S
C1139 C1155 1.349 . S
C1140 C1138 1.327 . S
C1140 C1159 1.429 . S
C1140 H1164 0.950 . S
C1141 C1158 1.574 . S
C1141 C1160 1.368 . S
C1141 H1165 0.949 . S
H1142 C1146 0.949 . S
C1143 C1144 1.349 . S
C1143 C1145 1.327 . S
C1143 H1166 0.950 . S
C1144 C1143 1.349 . S
C1144 C1156 1.349 . S
C1145 C1143 1.327 . S
C1145 C1161 1.429 . S
C1145 H1167 0.950 . S
C1146 H1142 0.949 . S
C1146 C1154 1.574 . S
C1146 C1162 1.368 . S
H1147 C1155 0.950 . S
H1148 C1153 0.950 . S
H1149 C1154 0.949 . S
H1150 C1156 0.950 . S
H1151 C1157 0.950 . S
H1152 C1158 0.949 . S
C1153 H1148 0.950 . S
C1153 C1155 1.327 . S
C1153 C1159 1.429 . S
C1154 C1146 1.574 . S
C1154 H1149 0.949 . S
C1154 C1160 1.368 . S
C1155 C1139 1.349 . S
C1155 H1147 0.950 . S
C1155 C1153 1.327 . S
C1156 C1144 1.349 . S
C1156 H1150 0.950 . S
C1156 C1157 1.327 . S
C1157 H1151 0.950 . S
C1157 C1156 1.327 . S
C1157 C1161 1.429 . S
C1158 C1141 1.574 . S
C1158 H1152 0.949 . S
C1158 C1162 1.368 . S
C1159 C1140 1.429 . S
C1159 C1153 1.429 . S
C1159 C1160 1.523 . S
C1160 C1141 1.368 . S
C1160 C1154 1.368 . S
C1160 C1159 1.523 . S
C1161 C1145 1.429 . S
C1161 C1157 1.429 . S
C1161 C1162 1.523 . S
C1162 C1146 1.368 . S
C1162 C1158 1.368 . S
C1162 C1161 1.523 . S
H1163 C1138 0.950 . S
H1164 C1140 0.950 . S
H1165 C1141 0.949 . S
H1166 C1143 0.950 . S
H1167 C1145 0.950 . S
C1168 C1169 1.349 . S
C1168 C1170 1.327 . S
C1168 H1193 0.950 . S
C1169 C1168 1.349 . S
C1169 C1185 1.349 . S
C1170 C1168 1.327 . S
C1170 C1189 1.429 . S
C1170 H1194 0.950 . S
C1171 C1188 1.574 . S
C1171 C1190 1.368 . S
C1171 H1195 0.949 . S
H1172 C1176 0.949 . S
C1173 C1174 1.349 . S
C1173 C1175 1.327 . S
C1173 H1196 0.950 . S
C1174 C1173 1.349 . S
C1174 C1186 1.349 . S
C1175 C1173 1.327 . S
C1175 C1191 1.429 . S
C1175 H1197 0.950 . S
C1176 H1172 0.949 . S
C1176 C1184 1.574 . S
C1176 C1192 1.368 . S
H1177 C1185 0.950 . S
H1178 C1183 0.950 . S
H1179 C1184 0.949 . S
H1180 C1186 0.950 . S
H1181 C1187 0.950 . S
H1182 C1188 0.949 . S
C1183 H1178 0.950 . S
C1183 C1185 1.327 . S
C1183 C1189 1.429 . S
C1184 C1176 1.574 . S
C1184 H1179 0.949 . S
C1184 C1190 1.368 . S
C1185 C1169 1.349 . S
C1185 H1177 0.950 . S
C1185 C1183 1.327 . S
C1186 C1174 1.349 . S
C1186 H1180 0.950 . S
C1186 C1187 1.327 . S
C1187 H1181 0.950 . S
C1187 C1186 1.327 . S
C1187 C1191 1.429 . S
C1188 C1171 1.574 . S
C1188 H1182 0.949 . S
C1188 C1192 1.368 . S
C1189 C1170 1.429 . S
C1189 C1183 1.429 . S
C1189 C1190 1.523 . S
C1190 C1171 1.368 . S
C1190 C1184 1.368 . S
C1190 C1189 1.523 . S
C1191 C1175 1.429 . S
C1191 C1187 1.429 . S
C1191 C1192 1.523 . S
C1192 C1176 1.368 . S
C1192 C1188 1.368 . S
C1192 C1191 1.523 . S
H1193 C1168 0.950 . S
H1194 C1170 0.950 . S
H1195 C1171 0.949 . S
H1196 C1173 0.950 . S
H1197 C1175 0.950 . S
C1198 C1199 1.349 . S
C1198 C1200 1.327 . S
C1198 H1223 0.950 . S
C1199 C1198 1.349 . S
C1199 C1215 1.349 . S
C1200 C1198 1.327 . S
C1200 C1219 1.429 . S
C1200 H1224 0.950 . S
C1201 C1218 1.574 . S
C1201 C1220 1.368 . S
C1201 H1225 0.949 . S
H1202 C1206 0.949 . S
C1203 C1204 1.349 . S
C1203 C1205 1.327 . S
C1203 H1226 0.950 . S
C1204 C1203 1.349 . S
C1204 C1216 1.349 . S
C1205 C1203 1.327 . S
C1205 C1221 1.429 . S
C1205 H1227 0.950 . S
C1206 H1202 0.949 . S
C1206 C1214 1.574 . S
C1206 C1222 1.368 . S
H1207 C1215 0.950 . S
H1208 C1213 0.950 . S
H1209 C1214 0.949 . S
H1210 C1216 0.950 . S
H1211 C1217 0.950 . S
H1212 C1218 0.949 . S
C1213 H1208 0.950 . S
C1213 C1215 1.327 . S
C1213 C1219 1.429 . S
C1214 C1206 1.574 . S
C1214 H1209 0.949 . S
C1214 C1220 1.368 . S
C1215 C1199 1.349 . S
C1215 H1207 0.950 . S
C1215 C1213 1.327 . S
C1216 C1204 1.349 . S
C1216 H1210 0.950 . S
C1216 C1217 1.327 . S
C1217 H1211 0.950 . S
C1217 C1216 1.327 . S
C1217 C1221 1.429 . S
C1218 C1201 1.574 . S
C1218 H1212 0.949 . S
C1218 C1222 1.368 . S
C1219 C1200 1.429 . S
C1219 C1213 1.429 . S
C1219 C1220 1.523 . S
C1220 C1201 1.368 . S
C1220 C1214 1.368 . S
C1220 C1219 1.523 . S
C1221 C1205 1.429 . S
C1221 C1217 1.429 . S
C1221 C1222 1.523 . S
C1222 C1206 1.368 . S
C1222 C1218 1.368 . S
C1222 C1221 1.523 . S
H1223 C1198 0.950 . S
H1224 C1200 0.950 . S
H1225 C1201 0.949 . S
H1226 C1203 0.950 . S
H1227 C1205 0.950 . S
C274 C204 1.813 . S
C269 C14 1.834 . S
C299 C25 1.747 . S
C304 C207 1.749 . S
C329 C50 1.734 . S
C334 C238 1.729 . S
C364 C173 1.791 . S
C359 C68 1.812 . S
C394 C208 1.811 . S
C389 C16 1.823 . S
C424 C239 1.785 . S
C419 C26 1.807 . S
C454 C164 1.728 . S
C449 C52 1.723 . S
C484 C195 1.748 . S
C479 C70 1.744 . S
C509 C8 1.286 . S
C514 C225 1.203 . S
C539 C88 1.266 . S
C544 C194 1.188 . S
C569 C44 1.184 . S
C574 C154 1.172 . S
C604 C247 1.193 . S
C599 C98 1.206 . S
C634 C175 1.212 . S
C629 C7 1.292 . S
C659 C86 1.215 . S
C664 C174 1.203 . S
C689 C43 1.191 . S
C694 C267 1.181 . S
C724 C206 1.192 . S
C719 C97 1.272 . S
C749 C116 1.826 . S
C754 C266 1.804 . S
C779 C79 1.747 . S
C784 C145 1.749 . S
C809 C140 1.734 . S
C814 C176 1.729 . S
C839 C104 1.813 . S
C844 C235 1.791 . S
C874 C146 1.814 . S
C869 C115 1.828 . S
C899 C80 1.806 . S
C904 C177 1.784 . S
C929 C142 1.724 . S
C934 C226 1.728 . S
C964 C257 1.748 . S
C959 C106 1.744 . S
C989 C122 1.292 . S
C994 C163 1.209 . S
C1019 C34 1.266 . S
C1024 C256 1.188 . S
C1049 C134 1.184 . S
C1054 C216 1.171 . S
C1084 C185 1.193 . S
C1079 C62 1.205 . S
C1114 C237 1.211 . S
C1109 C124 1.290 . S
C1144 C236 1.204 . S
C1139 C32 1.216 . S
C1174 C205 1.181 . S
C1169 C133 1.191 . S
C1204 C144 1.193 . S
C1199 C61 1.272 . S
