# Generated by pormake.
# Topology ptr, (4,4)-cn, num edge types: 1
# Building blocks:
#     Node 0, Type 0, BuildingBlock: GALJAG_clean_sbu_0, # of connection points: 4
#     Node 1, Type 0, BuildingBlock: GALJAG_clean_sbu_0, # of connection points: 4
#     Node 2, Type 0, BuildingBlock: GALJAG_clean_sbu_0, # of connection points: 4
#     Node 3, Type 0, BuildingBlock: GALJAG_clean_sbu_0, # of connection points: 4
#     Node 4, Type 0, BuildingBlock: GALJAG_clean_sbu_0, # of connection points: 4
#     Node 5, Type 0, BuildingBlock: GALJAG_clean_sbu_0, # of connection points: 4
#     Node 6, Type 0, BuildingBlock: GALJAG_clean_sbu_0, # of connection points: 4
#     Node 7, Type 0, BuildingBlock: GALJAG_clean_sbu_0, # of connection points: 4
#     Node 8, Type 0, BuildingBlock: GALJAG_clean_sbu_0, # of connection points: 4
#     Node 9, Type 0, BuildingBlock: GALJAG_clean_sbu_0, # of connection points: 4
#     Node 10, Type 0, BuildingBlock: GALJAG_clean_sbu_0, # of connection points: 4
#     Node 11, Type 0, BuildingBlock: GALJAG_clean_sbu_0, # of connection points: 4
#     Node 12, Type 0, BuildingBlock: GALJAG_clean_sbu_0, # of connection points: 4
#     Node 13, Type 0, BuildingBlock: GALJAG_clean_sbu_0, # of connection points: 4
#     Node 14, Type 0, BuildingBlock: GALJAG_clean_sbu_0, # of connection points: 4
#     Node 15, Type 0, BuildingBlock: GALJAG_clean_sbu_0, # of connection points: 4
#     Node 16, Type 0, BuildingBlock: GALJAG_clean_sbu_0, # of connection points: 4
#     Node 17, Type 0, BuildingBlock: GALJAG_clean_sbu_0, # of connection points: 4
#     Node 18, Type 1, BuildingBlock: MIFKUJ_clean_linker_1, # of connection points: 4
#     Node 19, Type 1, BuildingBlock: MIFKUJ_clean_linker_1, # of connection points: 4
#     Node 20, Type 1, BuildingBlock: MIFKUJ_clean_linker_1, # of connection points: 4
#     Node 21, Type 1, BuildingBlock: MIFKUJ_clean_linker_1, # of connection points: 4
#     Node 22, Type 1, BuildingBlock: MIFKUJ_clean_linker_1, # of connection points: 4
#     Node 23, Type 1, BuildingBlock: MIFKUJ_clean_linker_1, # of connection points: 4
#     Node 24, Type 1, BuildingBlock: MIFKUJ_clean_linker_1, # of connection points: 4
#     Node 25, Type 1, BuildingBlock: MIFKUJ_clean_linker_1, # of connection points: 4
#     Node 26, Type 1, BuildingBlock: MIFKUJ_clean_linker_1, # of connection points: 4
#     Node 27, Type 1, BuildingBlock: MIFKUJ_clean_linker_1, # of connection points: 4
#     Node 28, Type 1, BuildingBlock: MIFKUJ_clean_linker_1, # of connection points: 4
#     Node 29, Type 1, BuildingBlock: MIFKUJ_clean_linker_1, # of connection points: 4
#     Node 30, Type 1, BuildingBlock: MIFKUJ_clean_linker_1, # of connection points: 4
#     Node 31, Type 1, BuildingBlock: MIFKUJ_clean_linker_1, # of connection points: 4
#     Node 32, Type 1, BuildingBlock: MIFKUJ_clean_linker_1, # of connection points: 4
#     Node 33, Type 1, BuildingBlock: MIFKUJ_clean_linker_1, # of connection points: 4
#     Node 34, Type 1, BuildingBlock: MIFKUJ_clean_linker_1, # of connection points: 4
#     Node 35, Type 1, BuildingBlock: MIFKUJ_clean_linker_1, # of connection points: 4
#     Edge 36, Type (0, 1), BuildingBlock: XUDNAN_clean_linker_2, # of connection points: 2
#     Edge 37, Type (0, 1), BuildingBlock: XUDNAN_clean_linker_2, # of connection points: 2
#     Edge 38, Type (0, 1), BuildingBlock: XUDNAN_clean_linker_2, # of connection points: 2
#     Edge 39, Type (0, 1), BuildingBlock: XUDNAN_clean_linker_2, # of connection points: 2
#     Edge 40, Type (0, 1), BuildingBlock: XUDNAN_clean_linker_2, # of connection points: 2
#     Edge 41, Type (0, 1), BuildingBlock: XUDNAN_clean_linker_2, # of connection points: 2
#     Edge 42, Type (0, 1), BuildingBlock: XUDNAN_clean_linker_2, # of connection points: 2
#     Edge 43, Type (0, 1), BuildingBlock: XUDNAN_clean_linker_2, # of connection points: 2
#     Edge 44, Type (0, 1), BuildingBlock: XUDNAN_clean_linker_2, # of connection points: 2
#     Edge 45, Type (0, 1), BuildingBlock: XUDNAN_clean_linker_2, # of connection points: 2
#     Edge 46, Type (0, 1), BuildingBlock: XUDNAN_clean_linker_2, # of connection points: 2
#     Edge 47, Type (0, 1), BuildingBlock: XUDNAN_clean_linker_2, # of connection points: 2
#     Edge 48, Type (0, 1), BuildingBlock: XUDNAN_clean_linker_2, # of connection points: 2
#     Edge 49, Type (0, 1), BuildingBlock: XUDNAN_clean_linker_2, # of connection points: 2
#     Edge 50, Type (0, 1), BuildingBlock: XUDNAN_clean_linker_2, # of connection points: 2
#     Edge 51, Type (0, 1), BuildingBlock: XUDNAN_clean_linker_2, # of connection points: 2
#     Edge 52, Type (0, 1), BuildingBlock: XUDNAN_clean_linker_2, # of connection points: 2
#     Edge 53, Type (0, 1), BuildingBlock: XUDNAN_clean_linker_2, # of connection points: 2
#     Edge 54, Type (0, 1), BuildingBlock: XUDNAN_clean_linker_2, # of connection points: 2
#     Edge 55, Type (0, 1), BuildingBlock: XUDNAN_clean_linker_2, # of connection points: 2
#     Edge 56, Type (0, 1), BuildingBlock: XUDNAN_clean_linker_2, # of connection points: 2
#     Edge 57, Type (0, 1), BuildingBlock: XUDNAN_clean_linker_2, # of connection points: 2
#     Edge 58, Type (0, 1), BuildingBlock: XUDNAN_clean_linker_2, # of connection points: 2
#     Edge 59, Type (0, 1), BuildingBlock: XUDNAN_clean_linker_2, # of connection points: 2
#     Edge 60, Type (0, 1), BuildingBlock: XUDNAN_clean_linker_2, # of connection points: 2
#     Edge 61, Type (0, 1), BuildingBlock: XUDNAN_clean_linker_2, # of connection points: 2
#     Edge 62, Type (0, 1), BuildingBlock: XUDNAN_clean_linker_2, # of connection points: 2
#     Edge 63, Type (0, 1), BuildingBlock: XUDNAN_clean_linker_2, # of connection points: 2
#     Edge 64, Type (0, 1), BuildingBlock: XUDNAN_clean_linker_2, # of connection points: 2
#     Edge 65, Type (0, 1), BuildingBlock: XUDNAN_clean_linker_2, # of connection points: 2
#     Edge 66, Type (0, 1), BuildingBlock: XUDNAN_clean_linker_2, # of connection points: 2
#     Edge 67, Type (0, 1), BuildingBlock: XUDNAN_clean_linker_2, # of connection points: 2
#     Edge 68, Type (0, 1), BuildingBlock: XUDNAN_clean_linker_2, # of connection points: 2
#     Edge 69, Type (0, 1), BuildingBlock: XUDNAN_clean_linker_2, # of connection points: 2
#     Edge 70, Type (0, 1), BuildingBlock: XUDNAN_clean_linker_2, # of connection points: 2
#     Edge 71, Type (0, 1), BuildingBlock: XUDNAN_clean_linker_2, # of connection points: 2
#     Edge 72, Type (0, 1), BuildingBlock: XUDNAN_clean_linker_2, # of connection points: 2
#     Edge 73, Type (0, 1), BuildingBlock: XUDNAN_clean_linker_2, # of connection points: 2
#     Edge 74, Type (0, 1), BuildingBlock: XUDNAN_clean_linker_2, # of connection points: 2
#     Edge 75, Type (0, 1), BuildingBlock: XUDNAN_clean_linker_2, # of connection points: 2
#     Edge 76, Type (0, 1), BuildingBlock: XUDNAN_clean_linker_2, # of connection points: 2
#     Edge 77, Type (0, 1), BuildingBlock: XUDNAN_clean_linker_2, # of connection points: 2
#     Edge 78, Type (0, 1), BuildingBlock: XUDNAN_clean_linker_2, # of connection points: 2
#     Edge 79, Type (0, 1), BuildingBlock: XUDNAN_clean_linker_2, # of connection points: 2
#     Edge 80, Type (0, 1), BuildingBlock: XUDNAN_clean_linker_2, # of connection points: 2
#     Edge 81, Type (0, 1), BuildingBlock: XUDNAN_clean_linker_2, # of connection points: 2
#     Edge 82, Type (0, 1), BuildingBlock: XUDNAN_clean_linker_2, # of connection points: 2
#     Edge 83, Type (0, 1), BuildingBlock: XUDNAN_clean_linker_2, # of connection points: 2
#     Edge 84, Type (0, 1), BuildingBlock: XUDNAN_clean_linker_2, # of connection points: 2
#     Edge 85, Type (0, 1), BuildingBlock: XUDNAN_clean_linker_2, # of connection points: 2
#     Edge 86, Type (0, 1), BuildingBlock: XUDNAN_clean_linker_2, # of connection points: 2
#     Edge 87, Type (0, 1), BuildingBlock: XUDNAN_clean_linker_2, # of connection points: 2
#     Edge 88, Type (0, 1), BuildingBlock: XUDNAN_clean_linker_2, # of connection points: 2
#     Edge 89, Type (0, 1), BuildingBlock: XUDNAN_clean_linker_2, # of connection points: 2
#     Edge 90, Type (0, 1), BuildingBlock: XUDNAN_clean_linker_2, # of connection points: 2
#     Edge 91, Type (0, 1), BuildingBlock: XUDNAN_clean_linker_2, # of connection points: 2
#     Edge 92, Type (0, 1), BuildingBlock: XUDNAN_clean_linker_2, # of connection points: 2
#     Edge 93, Type (0, 1), BuildingBlock: XUDNAN_clean_linker_2, # of connection points: 2
#     Edge 94, Type (0, 1), BuildingBlock: XUDNAN_clean_linker_2, # of connection points: 2
#     Edge 95, Type (0, 1), BuildingBlock: XUDNAN_clean_linker_2, # of connection points: 2
#     Edge 96, Type (0, 1), BuildingBlock: XUDNAN_clean_linker_2, # of connection points: 2
#     Edge 97, Type (0, 1), BuildingBlock: XUDNAN_clean_linker_2, # of connection points: 2
#     Edge 98, Type (0, 1), BuildingBlock: XUDNAN_clean_linker_2, # of connection points: 2
#     Edge 99, Type (0, 1), BuildingBlock: XUDNAN_clean_linker_2, # of connection points: 2
#     Edge 100, Type (0, 1), BuildingBlock: XUDNAN_clean_linker_2, # of connection points: 2
#     Edge 101, Type (0, 1), BuildingBlock: XUDNAN_clean_linker_2, # of connection points: 2
#     Edge 102, Type (0, 1), BuildingBlock: XUDNAN_clean_linker_2, # of connection points: 2
#     Edge 103, Type (0, 1), BuildingBlock: XUDNAN_clean_linker_2, # of connection points: 2
#     Edge 104, Type (0, 1), BuildingBlock: XUDNAN_clean_linker_2, # of connection points: 2
#     Edge 105, Type (0, 1), BuildingBlock: XUDNAN_clean_linker_2, # of connection points: 2
#     Edge 106, Type (0, 1), BuildingBlock: XUDNAN_clean_linker_2, # of connection points: 2
#     Edge 107, Type (0, 1), BuildingBlock: XUDNAN_clean_linker_2, # of connection points: 2
# Relax obj value: 0.053
# Max RMSD: 0.081
# Mean RMSD: 0.075
data_MOF--net-ptr--node1-GALJAG_clean_sbu_0--node2-MIFKUJ_clean_linker_1--edge1-XUDNAN_clean_linker_2
_symmetry_space_group_name_H-M    P1
_symmetry_Int_Tables_number       1
_symmetry_cell_setting            triclinic
loop_
_symmetry_equiv_pos_as_xyz
'x, y, z'
_cell_length_a     88.420075
_cell_length_b     88.485413
_cell_length_c     64.729359
_cell_angle_alpha  90.048573
_cell_angle_beta   89.982004
_cell_angle_gamma 120.08246
loop_
_atom_site_label
_atom_site_type_symbol
_atom_site_fract_x
_atom_site_fract_y
_atom_site_fract_z
_atom_type_partial_charge
In0 In 0.00618 0.36024 0.02057 0.0
O1 O 0.98692 0.35821 0.04562 0.0
O2 O 0.01352 0.37846 0.04811 0.0
C3 C 0.98476 0.33398 0.99505 0.0
C4 C 0.02712 0.3491 0.03674 0.0
C5 C 0.01309 0.38714 0.99512 0.0
O6 O 0.97949 0.33651 0.01219 0.0
O7 O 1.00058 0.34461 0.99105 0.0
O8 O 0.02238 0.37997 0.99509 0.0
O9 O 1.00072 0.38092 0.00797 0.0
C10 C 0.99832 0.37124 0.0557 0.0
O11 O 0.03329 0.36405 0.02865 0.0
O12 O 0.01069 0.33997 0.0363 0.0
In13 In 0.64508 0.64988 0.00864 0.0
O14 O 0.63835 0.62803 0.0327 0.0
O15 O 0.61999 0.63634 0.02655 0.0
C16 C 0.67601 0.65837 0.99108 0.0
C17 C 0.65544 0.67824 0.03276 0.0
C18 C 0.62385 0.63787 0.9754 0.0
O19 O 0.66725 0.64424 1.001 0.0
O20 O 0.66912 0.66787 0.99018 0.0
O21 O 0.62637 0.65125 0.98535 0.0
O22 O 0.63232 0.63085 0.98196 0.0
C23 C 0.62364 0.62652 0.03688 0.0
O24 O 0.64702 0.67615 0.01617 0.0
O25 O 0.65875 0.66624 0.0368 0.0
In26 In 0.35641 0.99808 0.01684 0.0
O27 O 0.35448 0.0226 0.02196 0.0
O28 O 0.34756 0.01081 0.99237 0.0
C29 C 0.38006 0.00634 0.04768 0.0
C30 C 0.37324 0.99176 0.98591 0.0
C31 C 0.32441 0.97258 0.02985 0.0
O32 O 0.37706 0.01738 0.03913 0.0
O33 O 0.37129 0.99106 0.04051 0.0
O34 O 0.32956 0.9738 0.01146 0.0
O35 O 0.3353 0.98427 0.0417 0.0
C36 C 0.34942 0.02312 1.00391 0.0
O37 O 0.36102 0.97974 0.9962 0.0
O38 O 0.37715 0.00698 0.99137 0.0
In39 In 0.99846 0.64605 0.01441 0.0
O40 O 0.01609 0.65084 0.98592 0.0
O41 O 0.99894 0.62474 0.99524 0.0
C42 C 0.01897 0.67753 0.03251 0.0
C43 C 0.97103 0.64479 0.99407 0.0
C44 C 0.99177 0.62585 0.04851 0.0
O45 O 0.02525 0.66904 0.02392 0.0
O46 O 1.00253 0.67031 0.03157 0.0
O47 O 0.98073 0.62933 0.04091 0.0
O48 O 0.00614 0.6326 0.03901 0.0
C49 C 0.01013 0.63479 0.98237 0.0
O50 O 0.97073 0.63149 1.00152 0.0
O51 O 0.98505 0.65896 0.99724 0.0
In52 In 0.35627 0.35249 0.0196 0.0
O53 O 0.3533 0.37033 0.99595 0.0
O54 O 0.37536 0.36703 0.99346 0.0
C55 C 0.32508 0.34194 0.03826 0.0
C56 C 0.35115 0.32168 1.00472 0.0
C57 C 0.38164 0.37015 0.0484 0.0
O58 O 0.33334 0.35638 0.02893 0.0
O59 O 0.3325 0.33293 0.03804 0.0
O60 O 0.3827 0.36068 0.03463 0.0
O61 O 0.36768 0.37068 0.04791 0.0
C62 C 0.36718 0.37411 0.98635 0.0
O63 O 0.35863 0.3281 0.02173 0.0
O64 O 0.34591 0.33068 0.99521 0.0
In65 In 0.65283 0.00312 0.01788 0.0
O66 O 0.64528 0.01324 0.04672 0.0
O67 O 0.6278 0.98755 0.03607 0.0
C68 C 0.68372 0.03043 0.0065 0.0
C69 C 0.66362 0.98081 0.02984 0.0
C70 C 0.6355 0.00488 0.98452 0.0
O71 O 0.676 0.03053 0.02296 0.0
O72 O 0.67598 0.01645 0.99612 0.0
O73 O 0.63719 0.99169 0.98774 0.0
O74 O 0.64206 0.01656 0.99821 0.0
C75 C 0.63092 0.99923 0.04926 0.0
O76 O 0.65068 0.97606 0.01792 0.0
O77 O 0.67106 0.99659 0.0353 0.0
In78 In 0.66883 0.68988 0.35144 0.0
O79 O 0.657 0.69173 0.3827 0.0
O80 O 0.66871 0.71395 0.36318 0.0
C81 C 0.64897 0.65631 0.33914 0.0
C82 C 0.69842 0.69257 0.3672 0.0
C83 C 0.66608 0.70373 0.31545 0.0
O84 O 0.6427 0.66418 0.34915 0.0
O85 O 0.66523 0.66514 0.336 0.0
O86 O 0.68082 0.70739 0.32275 0.0
O87 O 0.65315 0.69311 0.32612 0.0
C88 C 0.66094 0.7074 0.37989 0.0
O89 O 0.69862 0.70191 0.35229 0.0
O90 O 0.68338 0.68196 0.37401 0.0
In91 In 0.31453 0.98011 0.34901 0.0
O92 O 0.31754 0.96999 0.38017 0.0
O93 O 0.29226 0.96537 0.37215 0.0
C94 C 0.34452 0.98393 0.33267 0.0
C95 C 0.31813 0.01135 0.3598 0.0
C96 C 0.29283 0.95763 0.31981 0.0
O97 O 0.33547 0.9726 0.34596 0.0
O98 O 0.33903 0.99421 0.32813 0.0
O99 O 0.29658 0.97343 0.32022 0.0
O100 O 0.29946 0.95339 0.33427 0.0
C101 C 0.30169 0.96334 0.38525 0.0
O102 O 0.30783 1.00192 0.34568 0.0
O103 O 0.3269 0.00527 0.36799 0.0
In104 In 0.02443 0.33819 0.35101 0.0
O105 O 0.03089 0.36648 0.35425 0.0
O106 O 0.01314 0.3509 0.33047 0.0
C107 C 0.04273 0.3331 0.38084 0.0
C108 C 0.04156 0.33765 0.31681 0.0
C109 C 0.99267 0.31923 0.36862 0.0
O110 O 0.04449 0.34799 0.37749 0.0
O111 O 0.03226 0.3212 0.36884 0.0
O112 O 0.99689 0.31366 0.35282 0.0
O113 O 0.00419 0.33416 0.37473 0.0
C114 C 0.02133 0.36565 0.3392 0.0
O115 O 0.02679 0.32472 0.32149 0.0
O116 O 0.04749 0.35015 0.32949 0.0
In117 In 0.67223 0.98208 0.35069 0.0
O118 O 0.67983 0.98378 0.31661 0.0
O119 O 0.67414 0.96073 0.3329 0.0
C120 C 0.6998 0.01278 0.36345 0.0
C121 C 0.64302 0.9813 0.33661 0.0
C122 C 0.66643 0.96296 0.38556 0.0
O123 O 0.70133 1.00206 0.35208 0.0
O124 O 0.68423 0.00835 0.36794 0.0
O125 O 0.6566 0.96874 0.37999 0.0
O126 O 0.67906 0.96674 0.37355 0.0
C127 C 0.67823 0.9688 0.31592 0.0
O128 O 0.64334 0.96789 0.34256 0.0
O129 O 0.65739 0.99541 0.33844 0.0
In130 In 0.02366 0.69074 0.35331 0.0
O131 O 0.02414 0.71175 0.332 0.0
O132 O 0.04276 0.70371 0.32676 0.0
C133 C 0.99587 0.68407 0.37713 0.0
C134 C 0.01331 0.65993 0.33382 0.0
C135 C 0.04849 0.70575 0.3829 0.0
O136 O 0.99887 0.69216 0.36017 0.0
O137 O 0.0066 0.67915 0.38169 0.0
O138 O 0.04302 0.69036 0.37651 0.0
O139 O 0.04178 0.71366 0.374 0.0
C140 C 0.03678 0.71335 0.32123 0.0
O141 O 0.02808 0.66855 0.34234 0.0
O142 O 0.00374 0.66668 0.33547 0.0
In143 In 0.31966 0.33884 0.35 0.0
O144 O 0.313 0.31222 0.36353 0.0
O145 O 0.33964 0.3305 0.35744 0.0
C146 C 0.29788 0.32901 0.31693 0.0
C147 C 0.30586 0.34484 0.38436 0.0
C148 C 0.34751 0.36723 0.33367 0.0
O149 O 0.30158 0.3186 0.32586 0.0
O150 O 0.3051 0.34409 0.32464 0.0
O151 O 0.33683 0.36831 0.34571 0.0
O152 O 0.34438 0.35187 0.33025 0.0
C153 C 0.32866 0.31563 0.36428 0.0
O154 O 0.32195 0.35003 0.38266 0.0
O155 O 0.29691 0.33695 0.36871 0.0
In156 In 0.34164 0.02471 0.68017 0.0
O157 O 0.36916 0.02876 0.67692 0.0
O158 O 0.35402 0.01478 0.70321 0.0
C159 C 0.33731 0.04259 0.64925 0.0
C160 C 0.3423 0.04458 0.71205 0.0
C161 C 0.32094 0.99247 0.66453 0.0
O162 O 0.35176 0.04317 0.65219 0.0
O163 O 0.32543 0.03323 0.66194 0.0
O164 O 0.31573 0.99823 0.67921 0.0
O165 O 0.33635 0.00272 0.65857 0.0
C166 C 0.36833 0.02085 0.69357 0.0
O167 O 0.32977 0.02903 0.70984 0.0
O168 O 0.35388 0.04975 0.69819 0.0
In169 In 0.98531 0.31806 0.68274 0.0
O170 O 0.98349 0.34313 0.68399 0.0
O171 O 0.00425 0.34269 0.70012 0.0
C172 C 0.96613 0.29835 0.65046 0.0
C173 C 0.96415 0.30113 0.71501 0.0
C174 C 0.01523 0.31988 0.67024 0.0
O175 O 0.96978 0.31408 0.65237 0.0
O176 O 0.97183 0.29292 0.66476 0.0
O177 O 0.00675 0.31107 0.68585 0.0
O178 O 0.00885 0.32815 0.66133 0.0
C179 C 0.99669 0.35112 0.69563 0.0
O180 O 0.97832 0.30117 0.71214 0.0
O181 O 0.96089 0.30952 0.70175 0.0
In182 In 0.68175 0.66244 0.68292 0.0
O183 O 0.68429 0.68937 0.67711 0.0
O184 O 0.67055 0.66888 0.6553 0.0
C185 C 0.69887 0.66571 0.71884 0.0
C186 C 0.69983 0.65567 0.65425 0.0
C187 C 0.64888 0.6414 0.69646 0.0
O188 O 0.70196 0.67899 0.70828 0.0
O189 O 0.68757 0.65138 0.71119 0.0
O190 O 0.65797 0.63548 0.68865 0.0
O191 O 0.65625 0.65786 0.69719 0.0
C192 C 0.67588 0.68456 0.66024 0.0
O193 O 0.68447 0.64446 0.65954 0.0
O194 O 0.70617 0.66997 0.66386 0.0
In195 In 0.33445 0.30884 0.68307 0.0
O196 O 0.33713 0.30255 0.64925 0.0
O197 O 0.35434 0.30144 0.67101 0.0
C198 C 0.35326 0.34062 0.70123 0.0
C199 C 0.30669 0.30995 0.66748 0.0
C200 C 0.32498 0.28376 0.71242 0.0
O201 O 0.36024 0.3345 0.68938 0.0
O202 O 0.33702 0.33087 0.70358 0.0
O203 O 0.31737 0.28099 0.6952 0.0
O204 O 0.33727 0.2992 0.71496 0.0
C205 C 0.34916 0.29918 0.65255 0.0
O206 O 0.30522 0.29841 0.68012 0.0
O207 O 0.32225 0.32106 0.66271 0.0
In208 In 0.69409 0.02517 0.68388 0.0
O209 O 0.6902 0.03921 0.65624 0.0
O210 O 0.71464 0.04027 0.65942 0.0
C211 C 0.6636 0.01251 0.70477 0.0
C212 C 0.69479 0.99655 0.67043 0.0
C213 C 0.71401 0.04886 0.71293 0.0
O214 O 0.66614 0.02044 0.68774 0.0
O215 O 0.67605 0.01041 0.71054 0.0
O216 O 0.7142 0.0348 0.71035 0.0
O217 O 0.7042 0.05102 0.70062 0.0
C218 C 0.70539 0.04469 0.64909 0.0
O219 O 0.70654 0.008 0.68185 0.0
O220 O 0.68242 0.99929 0.66622 0.0
In221 In 0.98578 0.66996 0.68272 0.0
O222 O 0.98108 0.64215 0.67854 0.0
O223 O 0.9942 0.65606 0.70565 0.0
C224 C 0.96875 0.67268 0.64941 0.0
C225 C 0.96843 0.67595 0.7132 0.0
C226 C 0.01932 0.69253 0.67231 0.0
O227 O 0.96511 0.65799 0.6567 0.0
O228 O 0.9806 0.68557 0.65899 0.0
O229 O 0.01261 0.69358 0.68908 0.0
O230 O 0.00932 0.67966 0.6611 0.0
C231 C 0.98819 0.64208 0.69544 0.0
O232 O 0.98329 0.68742 0.70683 0.0
O233 O 0.96225 0.66138 0.70424 0.0
H234 H 0.15983 0.35591 0.19575 0.0
H235 H 0.13895 0.35924 0.21709 0.0
H236 H 0.09699 0.31061 0.19324 0.0
H237 H 0.11814 0.30723 0.1719 0.0
H238 H 0.16746 0.32949 0.19707 0.0
H239 H 0.14368 0.35349 0.14768 0.0
H240 H 0.12009 0.35361 0.12798 0.0
H241 H 0.10774 0.30431 0.10017 0.0
H242 H 0.13093 0.30402 0.12034 0.0
H243 H 0.17655 0.30237 0.11959 0.0
H244 H 0.19974 0.30144 0.09995 0.0
H245 H 0.23814 0.34944 0.12908 0.0
H246 H 0.21486 0.35037 0.1486 0.0
H247 H 0.16572 0.32613 0.12059 0.0
H248 H 0.19027 0.30269 0.16681 0.0
H249 H 0.21115 0.29959 0.18836 0.0
H250 H 0.21987 0.34464 0.224 0.0
H251 H 0.20007 0.34845 0.20139 0.0
C252 C 0.14055 0.33142 0.18209 0.0
C253 C 0.14614 0.34597 0.19505 0.0
C254 C 0.13416 0.3479 0.20716 0.0
C255 C 0.11628 0.33524 0.20674 0.0
C256 C 0.11068 0.32054 0.19392 0.0
C257 C 0.12271 0.31867 0.18162 0.0
C258 C 0.15365 0.32949 0.16974 0.0
C259 C 0.16727 0.32902 0.18032 0.0
C260 C 0.15292 0.32818 0.14793 0.0
C261 C 0.1389 0.3286 0.13575 0.0
C262 C 0.13578 0.34264 0.13747 0.0
C263 C 0.12242 0.34279 0.12602 0.0
C264 C 0.11195 0.32892 0.11258 0.0
C265 C 0.11536 0.31507 0.11062 0.0
C266 C 0.12869 0.31493 0.12204 0.0
C267 C 0.19397 0.32634 0.13571 0.0
C268 C 0.18995 0.31274 0.12168 0.0
C269 C 0.20322 0.31217 0.11056 0.0
C270 C 0.22078 0.32534 0.11303 0.0
C271 C 0.22474 0.33917 0.12674 0.0
C272 C 0.21147 0.33964 0.13801 0.0
C273 C 0.17988 0.32663 0.14792 0.0
C274 C 0.16602 0.3267 0.13734 0.0
C275 C 0.18033 0.32745 0.16979 0.0
C276 C 0.19371 0.32597 0.18222 0.0
C277 C 0.19704 0.3122 0.1789 0.0
C278 C 0.2088 0.31026 0.19152 0.0
C279 C 0.21725 0.32181 0.20807 0.0
C280 C 0.21394 0.33565 0.21124 0.0
C281 C 0.20241 0.33774 0.19842 0.0
H282 H 0.69911 0.87065 0.1973 0.0
H283 H 0.69989 0.89359 0.21908 0.0
H284 H 0.65646 0.89056 0.1851 0.0
H285 H 0.65528 0.8671 0.16369 0.0
H286 H 0.67539 0.83846 0.19392 0.0
H287 H 0.69988 0.8872 0.14691 0.0
H288 H 0.70115 0.91072 0.12613 0.0
H289 H 0.65654 0.87298 0.09086 0.0
H290 H 0.65455 0.84969 0.1128 0.0
H291 H 0.65121 0.80186 0.1169 0.0
H292 H 0.65056 0.77694 0.09966 0.0
H293 H 0.6996 0.78984 0.12883 0.0
H294 H 0.69973 0.81425 0.14657 0.0
H295 H 0.67544 0.8376 0.11736 0.0
H296 H 0.65091 0.78931 0.16273 0.0
H297 H 0.64762 0.76517 0.18383 0.0
H298 H 0.69056 0.80144 0.22238 0.0
H299 H 0.6948 0.82537 0.19994 0.0
C300 C 0.67723 0.86718 0.17869 0.0
C301 C 0.6897 0.87485 0.19452 0.0
C302 C 0.69015 0.88796 0.20698 0.0
C303 C 0.67824 0.89383 0.20378 0.0
C304 C 0.6659 0.88637 0.18777 0.0
C305 C 0.66527 0.87302 0.17548 0.0
C306 C 0.6764 0.85255 0.16636 0.0
C307 C 0.67575 0.83846 0.17717 0.0
C308 C 0.67601 0.85216 0.14443 0.0
C309 C 0.67694 0.86663 0.13173 0.0
C310 C 0.69015 0.88401 0.13498 0.0
C311 C 0.69103 0.89746 0.12278 0.0
C312 C 0.67898 0.89385 0.10664 0.0
C313 C 0.66587 0.87639 0.1033 0.0
C314 C 0.66483 0.86298 0.11573 0.0
C315 C 0.6754 0.80976 0.1332 0.0
C316 C 0.66187 0.79936 0.11942 0.0
C317 C 0.66157 0.78515 0.10951 0.0
C318 C 0.67495 0.78121 0.11297 0.0
C319 C 0.68885 0.79216 0.12616 0.0
C320 C 0.68902 0.80622 0.13622 0.0
C321 C 0.67499 0.82393 0.145 0.0
C322 C 0.67525 0.83777 0.13412 0.0
C323 C 0.67496 0.82411 0.16688 0.0
C324 C 0.67329 0.80923 0.17945 0.0
C325 C 0.65999 0.79205 0.17532 0.0
C326 C 0.6579 0.77823 0.18773 0.0
C327 C 0.6687 0.78125 0.20506 0.0
C328 C 0.68213 0.79846 0.20906 0.0
C329 C 0.68444 0.81225 0.19635 0.0
H330 H 0.11274 0.81365 0.16336 0.0
H331 H 0.08945 0.79398 0.18685 0.0
H332 H 0.12715 0.78737 0.22237 0.0
H333 H 0.15004 0.80623 0.19833 0.0
H334 H 0.16198 0.83935 0.19234 0.0
H335 H 0.12743 0.82549 0.11439 0.0
H336 H 0.1033 0.80191 0.09517 0.0
H337 H 0.11102 0.76398 0.12833 0.0
H338 H 0.13526 0.78771 0.14753 0.0
H339 H 0.19413 0.84126 0.11414 0.0
H340 H 0.21797 0.86103 0.09152 0.0
H341 H 0.21751 0.90513 0.11947 0.0
H342 H 0.1934 0.88522 0.14199 0.0
H343 H 0.16219 0.83438 0.11612 0.0
H344 H 0.21027 0.8574 0.16499 0.0
H345 H 0.2336 0.87649 0.18877 0.0
H346 H 0.19961 0.89305 0.21585 0.0
H347 H 0.17647 0.87424 0.1917 0.0
C348 C 0.13315 0.81134 0.17896 0.0
C349 C 0.11589 0.80763 0.17594 0.0
C350 C 0.10262 0.79655 0.18956 0.0
C351 C 0.10638 0.78907 0.20659 0.0
C352 C 0.12364 0.79261 0.20929 0.0
C353 C 0.13682 0.80356 0.19563 0.0
C354 C 0.14771 0.82424 0.16581 0.0
C355 C 0.16202 0.8383 0.17564 0.0
C356 C 0.14772 0.82288 0.14403 0.0
C357 C 0.13305 0.80838 0.13253 0.0
C358 C 0.12394 0.8121 0.11752 0.0
C359 C 0.1101 0.79861 0.10662 0.0
C360 C 0.10521 0.78107 0.11028 0.0
C361 C 0.11454 0.77736 0.12508 0.0
C362 C 0.12829 0.79088 0.13616 0.0
C363 C 0.19192 0.86169 0.12984 0.0
C364 C 0.19911 0.85518 0.11543 0.0
C365 C 0.21274 0.8665 0.10247 0.0
C366 C 0.21956 0.88464 0.10361 0.0
C367 C 0.21263 0.89123 0.11834 0.0
C368 C 0.19886 0.87985 0.13124 0.0
C369 C 0.17677 0.84931 0.14272 0.0
C370 C 0.16219 0.83548 0.13281 0.0
C371 C 0.17657 0.85081 0.1645 0.0
C372 C 0.19161 0.86439 0.17651 0.0
C373 C 0.20799 0.8655 0.17564 0.0
C374 C 0.22127 0.8763 0.1894 0.0
C375 C 0.21841 0.88617 0.20437 0.0
C376 C 0.2023 0.88575 0.20444 0.0
C377 C 0.18903 0.87491 0.19071 0.0
H378 H 0.29357 0.16937 0.85513 0.0
H379 H 0.28922 0.18735 0.82988 0.0
H380 H 0.34521 0.22162 0.82606 0.0
H381 H 0.34928 0.20396 0.85214 0.0
H382 H 0.32017 0.15657 0.84188 0.0
H383 H 0.30669 0.18886 0.89452 0.0
H384 H 0.31134 0.21359 0.91625 0.0
H385 H 0.36325 0.22374 0.93095 0.0
H386 H 0.3586 0.1992 0.9093 0.0
H387 H 0.35694 0.1562 0.91698 0.0
H388 H 0.36033 0.13604 0.9396 0.0
H389 H 0.31296 0.09298 0.91473 0.0
H390 H 0.30943 0.11327 0.89225 0.0
H391 H 0.33467 0.16573 0.91641 0.0
H392 H 0.35372 0.14023 0.86842 0.0
H393 H 0.3585 0.1216 0.84486 0.0
H394 H 0.30857 0.10528 0.81605 0.0
H395 H 0.30339 0.1233 0.84053 0.0
C396 C 0.32172 0.18542 0.85551 0.0
C397 C 0.30485 0.18101 0.84917 0.0
C398 C 0.30243 0.19121 0.83456 0.0
C399 C 0.31687 0.20582 0.8256 0.0
C400 C 0.33376 0.2106 0.8327 0.0
C401 C 0.33614 0.2005 0.84758 0.0
C402 C 0.3243 0.17302 0.8682 0.0
C403 C 0.32297 0.15827 0.85831 0.0
C404 C 0.32915 0.17608 0.88921 0.0
C405 C 0.3323 0.19214 0.90028 0.0
C406 C 0.3192 0.19665 0.90206 0.0
C407 C 0.32185 0.21076 0.91452 0.0
C408 C 0.33758 0.22047 0.92553 0.0
C409 C 0.35087 0.21632 0.923 0.0
C410 C 0.34825 0.20233 0.91056 0.0
C411 C 0.3329 0.13632 0.90289 0.0
C412 C 0.34725 0.14243 0.91636 0.0
C413 C 0.34917 0.13089 0.92931 0.0
C414 C 0.33684 0.11294 0.92905 0.0
C415 C 0.32274 0.10673 0.91516 0.0
C416 C 0.32073 0.11832 0.90229 0.0
C417 C 0.33031 0.14891 0.89024 0.0
C418 C 0.33164 0.16374 0.90005 0.0
C419 C 0.32645 0.14644 0.86883 0.0
C420 C 0.32812 0.13315 0.85643 0.0
C421 C 0.34349 0.13221 0.85755 0.0
C422 C 0.34634 0.12171 0.84381 0.0
C423 C 0.33404 0.11213 0.82833 0.0
C424 C 0.31827 0.11239 0.82784 0.0
C425 C 0.31536 0.12281 0.84174 0.0
H426 H 0.82813 0.13343 0.8421 0.0
H427 H 0.8054 0.11455 0.81769 0.0
H428 H 0.76974 0.12832 0.84622 0.0
H429 H 0.79276 0.14771 0.87005 0.0
H430 H 0.84107 0.16783 0.84172 0.0
H431 H 0.81271 0.12244 0.8945 0.0
H432 H 0.78946 0.10231 0.9178 0.0
H433 H 0.78405 0.14518 0.94099 0.0
H434 H 0.80738 0.16517 0.918 0.0
H435 H 0.85307 0.20813 0.91642 0.0
H436 H 0.87738 0.23415 0.93212 0.0
H437 H 0.91383 0.22128 0.90392 0.0
H438 H 0.88952 0.19556 0.888 0.0
H439 H 0.84071 0.17364 0.91786 0.0
H440 H 0.86343 0.21774 0.86831 0.0
H441 H 0.88274 0.24084 0.84474 0.0
H442 H 0.89371 0.20452 0.81272 0.0
H443 H 0.87496 0.18156 0.83712 0.0
C444 C 0.81219 0.14199 0.85798 0.0
C445 C 0.81531 0.13212 0.84336 0.0
C446 C 0.80224 0.12124 0.82946 0.0
C447 C 0.78578 0.12004 0.82983 0.0
C448 C 0.78237 0.12915 0.84529 0.0
C449 C 0.79546 0.14008 0.85915 0.0
C450 C 0.82701 0.156 0.86979 0.0
C451 C 0.84122 0.16881 0.85844 0.0
C452 C 0.82664 0.15792 0.89148 0.0
C453 C 0.81182 0.14533 0.90452 0.0
C454 C 0.80638 0.12745 0.90447 0.0
C455 C 0.79307 0.11595 0.91779 0.0
C456 C 0.78498 0.12215 0.93143 0.0
C457 C 0.79023 0.14001 0.93105 0.0
C458 C 0.80352 0.15145 0.91782 0.0
C459 C 0.86949 0.20002 0.90082 0.0
C460 C 0.8663 0.21083 0.91383 0.0
C461 C 0.88022 0.22569 0.92283 0.0
C462 C 0.8976 0.22994 0.91911 0.0
C463 C 0.90066 0.21865 0.90675 0.0
C464 C 0.88676 0.20387 0.8977 0.0
C465 C 0.85487 0.18515 0.88978 0.0
C466 C 0.84072 0.17237 0.90119 0.0
C467 C 0.8549 0.18356 0.86802 0.0
C468 C 0.86787 0.19791 0.85469 0.0
C469 C 0.87035 0.21482 0.8566 0.0
C470 C 0.88123 0.22799 0.84289 0.0
C471 C 0.88966 0.22451 0.82669 0.0
C472 C 0.88755 0.2077 0.82512 0.0
C473 C 0.87673 0.19452 0.83896 0.0
H474 H 0.79719 0.6455 0.83706 0.0
H475 H 0.77308 0.64438 0.81722 0.0
H476 H 0.78806 0.69649 0.83765 0.0
H477 H 0.81209 0.69741 0.85799 0.0
H478 H 0.83459 0.67254 0.83326 0.0
H479 H 0.78586 0.64741 0.88248 0.0
H480 H 0.76265 0.64842 0.90206 0.0
H481 H 0.80125 0.69634 0.9312 0.0
H482 H 0.8243 0.69543 0.91129 0.0
H483 H 0.88002 0.69294 0.89873 0.0
H484 H 0.90028 0.68566 0.91551 0.0
H485 H 0.86156 0.63072 0.91048 0.0
H486 H 0.84244 0.63827 0.89179 0.0
H487 H 0.83417 0.66959 0.90981 0.0
H488 H 0.88282 0.69568 0.86245 0.0
H489 H 0.90636 0.69874 0.8403 0.0
H490 H 0.86923 0.65385 0.8049 0.0
H491 H 0.84603 0.64994 0.82855 0.0
C492 C 0.80632 0.67148 0.84906 0.0
C493 C 0.79528 0.65668 0.8373 0.0
C494 C 0.78152 0.65605 0.82602 0.0
C495 C 0.77875 0.67035 0.82595 0.0
C496 C 0.79001 0.68534 0.83742 0.0
C497 C 0.80363 0.68583 0.84907 0.0
C498 C 0.82078 0.67177 0.86096 0.0
C499 C 0.83452 0.67188 0.85 0.0
C500 C 0.82086 0.67142 0.8828 0.0
C501 C 0.80678 0.6715 0.89519 0.0
C502 C 0.78929 0.65817 0.89303 0.0
C503 C 0.77607 0.65866 0.90438 0.0
C504 C 0.7801 0.67251 0.91809 0.0
C505 C 0.79768 0.68562 0.92055 0.0
C506 C 0.81088 0.68508 0.90927 0.0
C507 C 0.86001 0.66612 0.8934 0.0
C508 C 0.87615 0.67934 0.90088 0.0
C509 C 0.88761 0.67509 0.91083 0.0
C510 C 0.88286 0.6575 0.91424 0.0
C511 C 0.86619 0.64438 0.90755 0.0
C512 C 0.85504 0.64865 0.89704 0.0
C513 C 0.84794 0.6702 0.88207 0.0
C514 C 0.83444 0.67059 0.8931 0.0
C515 C 0.84822 0.6713 0.86025 0.0
C516 C 0.86272 0.67225 0.84766 0.0
C517 C 0.87987 0.68602 0.85055 0.0
C518 C 0.89329 0.68802 0.83742 0.0
C519 C 0.88979 0.67666 0.82056 0.0
C520 C 0.87258 0.66272 0.81784 0.0
C521 C 0.85922 0.66053 0.83128 0.0
H522 H 0.82204 0.68833 0.53821 0.0
H523 H 0.79792 0.68262 0.56098 0.0
H524 H 0.76183 0.64326 0.51853 0.0
H525 H 0.78631 0.64822 0.4965 0.0
H526 H 0.83343 0.66789 0.53148 0.0
H527 H 0.8177 0.7 0.48495 0.0
H528 H 0.79888 0.70655 0.46341 0.0
H529 H 0.78131 0.65829 0.43013 0.0
H530 H 0.80053 0.65197 0.45141 0.0
H531 H 0.8513 0.65311 0.45052 0.0
H532 H 0.87715 0.65494 0.43384 0.0
H533 H 0.9106 0.69773 0.47398 0.0
H534 H 0.88493 0.69659 0.48981 0.0
H535 H 0.83828 0.6745 0.45531 0.0
H536 H 0.86212 0.64822 0.5052 0.0
H537 H 0.88601 0.65026 0.52683 0.0
H538 H 0.89142 0.69675 0.55562 0.0
H539 H 0.8677 0.69465 0.53424 0.0
C540 C 0.80608 0.66871 0.51559 0.0
C541 C 0.80892 0.67854 0.5337 0.0
C542 C 0.79501 0.67536 0.54666 0.0
C543 C 0.77782 0.66238 0.54175 0.0
C544 C 0.77489 0.65313 0.52306 0.0
C545 C 0.78889 0.65618 0.5102 0.0
C546 C 0.82126 0.67029 0.50378 0.0
C547 C 0.83451 0.6695 0.51482 0.0
C548 C 0.8227 0.67221 0.48205 0.0
C549 C 0.81045 0.67547 0.46981 0.0
C550 C 0.80972 0.69078 0.4731 0.0
C551 C 0.79905 0.69454 0.46076 0.0
C552 C 0.78869 0.68292 0.44514 0.0
C553 C 0.78912 0.6674 0.44215 0.0
C554 C 0.80009 0.66382 0.45422 0.0
C555 C 0.86612 0.67437 0.47186 0.0
C556 C 0.86419 0.66308 0.4555 0.0
C557 C 0.87892 0.66411 0.44598 0.0
C558 C 0.89577 0.67633 0.45285 0.0
C559 C 0.89771 0.68807 0.46861 0.0
C560 C 0.88304 0.6873 0.47777 0.0
C561 C 0.85052 0.67234 0.48312 0.0
C562 C 0.83707 0.67276 0.47194 0.0
C563 C 0.84919 0.67077 0.50491 0.0
C564 C 0.86322 0.67135 0.51805 0.0
C565 C 0.86846 0.6588 0.51623 0.0
C566 C 0.88201 0.65993 0.52861 0.0
C567 C 0.89061 0.67374 0.54276 0.0
C568 C 0.88515 0.68609 0.54468 0.0
C569 C 0.87154 0.68485 0.53256 0.0
H570 H 0.37922 0.21124 0.51487 0.0
H571 H 0.38469 0.234 0.53999 0.0
H572 H 0.33023 0.21971 0.53684 0.0
H573 H 0.32525 0.19771 0.5107 0.0
H574 H 0.35139 0.17419 0.52324 0.0
H575 H 0.36999 0.22098 0.47476 0.0
H576 H 0.37042 0.24479 0.45538 0.0
H577 H 0.31849 0.20932 0.43242 0.0
H578 H 0.3178 0.18575 0.45279 0.0
H579 H 0.31169 0.13764 0.45055 0.0
H580 H 0.30617 0.11327 0.42804 0.0
H581 H 0.35603 0.11911 0.44549 0.0
H582 H 0.36115 0.14314 0.46853 0.0
H583 H 0.337 0.17111 0.44883 0.0
H584 H 0.31702 0.12477 0.49637 0.0
H585 H 0.31301 0.10115 0.51914 0.0
H586 H 0.36398 0.13473 0.54582 0.0
H587 H 0.36835 0.15795 0.52204 0.0
C588 C 0.35186 0.20285 0.5109 0.0
C589 C 0.36856 0.21328 0.51934 0.0
C590 C 0.37159 0.22617 0.53391 0.0
C591 C 0.35786 0.22861 0.54087 0.0
C592 C 0.34122 0.21845 0.53181 0.0
C593 C 0.33829 0.20577 0.51689 0.0
C594 C 0.34829 0.18776 0.49758 0.0
C595 C 0.34858 0.17359 0.50685 0.0
C596 C 0.34382 0.18682 0.47646 0.0
C597 C 0.34376 0.20157 0.46553 0.0
C598 C 0.35851 0.2184 0.46599 0.0
C599 C 0.35884 0.23197 0.45459 0.0
C600 C 0.34453 0.22899 0.44218 0.0
C601 C 0.32967 0.21218 0.44196 0.0
C602 C 0.32931 0.19863 0.45349 0.0
C603 C 0.3368 0.14222 0.46129 0.0
C604 C 0.3214 0.13363 0.44957 0.0
C605 C 0.31833 0.11973 0.43658 0.0
C606 C 0.3307 0.11421 0.43472 0.0
C607 C 0.34607 0.12277 0.44667 0.0
C608 C 0.34906 0.13659 0.45983 0.0
C609 C 0.34029 0.15746 0.47443 0.0
C610 C 0.33993 0.17167 0.46518 0.0
C611 C 0.34444 0.15834 0.4957 0.0
C612 C 0.34305 0.14319 0.50734 0.0
C613 C 0.32761 0.12689 0.50658 0.0
C614 C 0.32521 0.11344 0.51991 0.0
C615 C 0.33805 0.11608 0.5346 0.0
C616 C 0.35384 0.13213 0.53465 0.0
C617 C 0.35631 0.14551 0.52114 0.0
H618 H 0.78295 0.14671 0.4931 0.0
H619 H 0.75961 0.12492 0.51468 0.0
H620 H 0.79823 0.12631 0.55686 0.0
H621 H 0.82139 0.14694 0.53436 0.0
H622 H 0.83126 0.17788 0.5263 0.0
H623 H 0.79632 0.15806 0.44728 0.0
H624 H 0.77747 0.13198 0.42655 0.0
H625 H 0.79648 0.1029 0.46053 0.0
H626 H 0.81502 0.12885 0.48143 0.0
H627 H 0.87037 0.18923 0.45188 0.0
H628 H 0.89457 0.2138 0.43399 0.0
H629 H 0.87573 0.24769 0.45569 0.0
H630 H 0.85238 0.2233 0.47448 0.0
H631 H 0.83334 0.17453 0.44995 0.0
H632 H 0.8801 0.2007 0.49607 0.0
H633 H 0.90386 0.22065 0.51852 0.0
H634 H 0.86803 0.2309 0.5528 0.0
H635 H 0.84432 0.21145 0.52953 0.0
C636 C 0.80404 0.14842 0.51189 0.0
C637 C 0.78641 0.14197 0.50669 0.0
C638 C 0.77302 0.12968 0.51931 0.0
C639 C 0.7769 0.1238 0.53769 0.0
C640 C 0.79459 0.13019 0.54272 0.0
C641 C 0.80794 0.14224 0.52994 0.0
C642 C 0.81841 0.16239 0.49934 0.0
C643 C 0.83162 0.17715 0.50959 0.0
C644 C 0.81923 0.16133 0.47756 0.0
C645 C 0.80701 0.14535 0.46592 0.0
C646 C 0.79626 0.146 0.45039 0.0
C647 C 0.78547 0.13112 0.43865 0.0
C648 C 0.78558 0.11548 0.44194 0.0
C649 C 0.79622 0.11483 0.45764 0.0
C650 C 0.80674 0.1296 0.46962 0.0
C651 C 0.85973 0.20451 0.46469 0.0
C652 C 0.87148 0.20198 0.45266 0.0
C653 C 0.88527 0.21606 0.44233 0.0
C654 C 0.88735 0.23291 0.4435 0.0
C655 C 0.87498 0.23511 0.45486 0.0
C656 C 0.86146 0.22113 0.4655 0.0
C657 C 0.84593 0.18998 0.47696 0.0
C658 C 0.8328 0.17527 0.46664 0.0
C659 C 0.84558 0.19076 0.49879 0.0
C660 C 0.86038 0.20464 0.5109 0.0
C661 C 0.8774 0.20766 0.50794 0.0
C662 C 0.89097 0.21891 0.52102 0.0
C663 C 0.88782 0.22722 0.53764 0.0
C664 C 0.87094 0.22481 0.54008 0.0
C665 C 0.85734 0.21358 0.52687 0.0
H666 H 0.97357 0.5266 0.2051 0.0
H667 H 0.96998 0.5467 0.18261 0.0
H668 H 0.00938 0.5484 0.14148 0.0
H669 H 0.01379 0.52944 0.16482 0.0
H670 H 0.99218 0.49706 0.1743 0.0
H671 H 0.97734 0.51398 0.25207 0.0
H672 H 0.97656 0.53761 0.27073 0.0
H673 H 0.02111 0.57554 0.2358 0.0
H674 H 0.02181 0.55171 0.21703 0.0
H675 H 0.02995 0.49734 0.24545 0.0
H676 H 0.03484 0.47826 0.26824 0.0
H677 H 0.98326 0.43553 0.25375 0.0
H678 H 0.9786 0.45472 0.2306 0.0
H679 H 0.00449 0.50629 0.24935 0.0
H680 H 0.02066 0.47543 0.19813 0.0
H681 H 0.01738 0.45056 0.17781 0.0
H682 H 0.96544 0.4386 0.1599 0.0
H683 H 0.96864 0.46307 0.1806 0.0
C684 C 0.99418 0.52669 0.18691 0.0
C685 C 0.98176 0.53166 0.19153 0.0
C686 C 0.97951 0.54297 0.17841 0.0
C687 C 0.98937 0.54926 0.16011 0.0
C688 C 1.00177 0.54419 0.15557 0.0
C689 C 0.00419 0.53314 0.16883 0.0
C690 C 0.99627 0.51408 0.20012 0.0
C691 C 0.99494 0.49914 0.19072 0.0
C692 C 0.99941 0.51648 0.22165 0.0
C693 C 0.99955 0.53109 0.23308 0.0
C694 C 0.98698 0.52738 0.24847 0.0
C695 C 0.98649 0.54088 0.25903 0.0
C696 C 0.99872 0.55841 0.25464 0.0
C697 C 0.01158 0.56215 0.23955 0.0
C698 C 0.01194 0.54858 0.22876 0.0
C699 C 0.00394 0.47746 0.23627 0.0
C700 C 0.01972 0.48384 0.24711 0.0
C701 C 0.02245 0.47292 0.26024 0.0
C702 C 0.00939 0.45537 0.26302 0.0
C703 C 0.99367 0.44892 0.25185 0.0
C704 C 0.99097 0.45987 0.23862 0.0
C705 C 1.00093 0.48957 0.22336 0.0
C706 C 1.0019 0.50432 0.23289 0.0
C707 C 0.997 0.48673 0.20204 0.0
C708 C 0.99485 0.47106 0.19099 0.0
C709 C 0.00847 0.46725 0.19011 0.0
C710 C 0.00663 0.45313 0.17834 0.0
C711 C 0.99114 0.44256 0.16722 0.0
C712 C 0.97744 0.44626 0.16849 0.0
C713 C 0.9793 0.46036 0.18019 0.0
H714 H 0.49923 0.45551 0.18701 0.0
H715 H 0.47992 0.43325 0.16244 0.0
H716 H 0.4502 0.45968 0.15583 0.0
H717 H 0.46914 0.48137 0.18144 0.0
H718 H 0.5147 0.49598 0.17175 0.0
H719 H 0.47782 0.45046 0.22191 0.0
H720 H 0.45042 0.43232 0.24001 0.0
H721 H 0.45268 0.47885 0.2648 0.0
H722 H 0.47885 0.49677 0.24485 0.0
H723 H 0.52229 0.53323 0.2506 0.0
H724 H 0.54504 0.55521 0.27252 0.0
H725 H 0.58393 0.54918 0.23879 0.0
H726 H 0.56096 0.52614 0.21818 0.0
H727 H 0.50944 0.50181 0.24711 0.0
H728 H 0.53528 0.54606 0.19823 0.0
H729 H 0.55298 0.56826 0.17275 0.0
H730 H 0.56555 0.53212 0.14329 0.0
H731 H 0.5482 0.51004 0.16926 0.0
C732 C 0.48548 0.46994 0.18615 0.0
C733 C 0.48829 0.45624 0.18059 0.0
C734 C 0.47734 0.44365 0.16633 0.0
C735 C 0.46362 0.44477 0.15677 0.0
C736 C 0.46049 0.45824 0.16295 0.0
C737 C 0.47133 0.4707 0.17755 0.0
C738 C 0.49879 0.48458 0.19865 0.0
C739 C 0.51376 0.49721 0.18832 0.0
C740 C 0.49679 0.48661 0.21997 0.0
C741 C 0.4803 0.47509 0.23144 0.0
C742 C 0.47213 0.45678 0.23067 0.0
C743 C 0.45656 0.44636 0.24151 0.0
C744 C 0.44905 0.45399 0.25388 0.0
C745 C 0.4576 0.47234 0.25503 0.0
C746 C 0.47284 0.48269 0.24381 0.0
C747 C 0.53978 0.52792 0.23258 0.0
C748 C 0.5357 0.53652 0.248 0.0
C749 C 0.54883 0.54933 0.26042 0.0
C750 C 0.56646 0.55409 0.25758 0.0
C751 C 0.57053 0.54572 0.24181 0.0
C752 C 0.55736 0.53268 0.22966 0.0
C753 C 0.52561 0.51347 0.22026 0.0
C754 C 0.51054 0.50073 0.23056 0.0
C755 C 0.5269 0.51195 0.1986 0.0
C756 C 0.54036 0.52633 0.18571 0.0
C757 C 0.54231 0.54306 0.18675 0.0
C758 C 0.55228 0.5557 0.17201 0.0
C759 C 0.56044 0.55185 0.15582 0.0
C760 C 0.55949 0.53551 0.1556 0.0
C761 C 0.54948 0.52284 0.17038 0.0
H762 H 0.54636 0.03305 0.17393 0.0
H763 H 0.56479 0.02808 0.14995 0.0
H764 H 0.54729 0.97754 0.17767 0.0
H765 H 0.52821 0.98218 0.20072 0.0
H766 H 0.51227 0.01513 0.17423 0.0
H767 H 0.55674 0.02475 0.22443 0.0
H768 H 0.57562 0.01706 0.24397 0.0
H769 H 0.52988 0.9734 0.27105 0.0
H770 H 0.51124 0.98033 0.25048 0.0
H771 H 0.474 0.98148 0.24785 0.0
H772 H 0.44793 0.97528 0.26661 0.0
H773 H 0.44927 0.02048 0.2391 0.0
H774 H 0.47674 0.02772 0.22193 0.0
H775 H 0.50479 0.0044 0.24957 0.0
H776 H 0.46169 0.98762 0.19356 0.0
H777 H 0.4413 0.99007 0.17 0.0
H778 H 0.48187 0.04208 0.15322 0.0
H779 H 0.5019 0.03971 0.17713 0.0
C780 C 0.53596 0.00806 0.18927 0.0
C781 C 0.54666 0.02098 0.17498 0.0
C782 C 0.5573 0.01817 0.16137 0.0
C783 C 0.55746 0.00234 0.16174 0.0
C784 C 0.5473 0.98976 0.17669 0.0
C785 C 0.53655 0.99251 0.19014 0.0
C786 C 0.5228 0.00997 0.20158 0.0
C787 C 0.51081 0.01306 0.1908 0.0
C788 C 0.52068 0.0069 0.22316 0.0
C789 C 0.53249 0.00302 0.23569 0.0
C790 C 0.55079 0.01339 0.23439 0.0
C791 C 0.5616 0.0091 0.24581 0.0
C792 C 0.55433 0.99448 0.25901 0.0
C793 C 0.53602 0.98449 0.26071 0.0
C794 C 0.52528 0.98861 0.24911 0.0
C795 C 0.4774 0.00498 0.23314 0.0
C796 C 0.46892 0.99027 0.246 0.0
C797 C 0.45369 0.98654 0.25651 0.0
C798 C 0.44605 0.99707 0.25406 0.0
C799 C 0.45468 0.01202 0.24144 0.0
C800 C 0.4703 0.01604 0.23129 0.0
C801 C 0.49358 0.00834 0.22198 0.0
C802 C 0.50633 0.00657 0.23302 0.0
C803 C 0.49608 0.01195 0.20053 0.0
C804 C 0.48325 0.01359 0.18732 0.0
C805 C 0.46606 0.99965 0.18504 0.0
C806 C 0.45449 1.001 0.17141 0.0
C807 C 0.45992 0.0163 0.15975 0.0
C808 C 0.47713 0.03023 0.16219 0.0
C809 C 0.48865 0.02887 0.17578 0.0
H810 H 0.49106 0.02023 0.86482 0.0
H811 H 0.46738 0.01557 0.88791 0.0
H812 H 0.43136 0.97073 0.85172 0.0
H813 H 0.45542 0.97503 0.82918 0.0
H814 H 0.50334 0.99949 0.86143 0.0
H815 H 0.47738 0.02157 0.81553 0.0
H816 H 0.45695 0.02419 0.79235 0.0
H817 H 0.45512 0.98367 0.75349 0.0
H818 H 0.47488 0.98043 0.77715 0.0
H819 H 0.51873 0.97974 0.78193 0.0
H820 H 0.54369 0.98038 0.76442 0.0
H821 H 0.57913 0.02468 0.80137 0.0
H822 H 0.55429 0.02476 0.81803 0.0
H823 H 0.50641 1.0009 0.785 0.0
H824 H 0.53243 0.979 0.83656 0.0
H825 H 0.55641 0.9821 0.85876 0.0
H826 H 0.56014 0.02844 0.886 0.0
H827 H 0.53666 0.02552 0.86367 0.0
C828 C 0.47509 0.99797 0.84525 0.0
C829 C 0.47803 0.00948 0.86171 0.0
C830 C 0.46439 0.00688 0.87484 0.0
C831 C 0.4474 0.9927 0.87181 0.0
C832 C 0.44431 0.98162 0.85474 0.0
C833 C 0.45803 0.98419 0.84165 0.0
C834 C 0.4902 0.99943 0.83338 0.0
C835 C 0.50401 0.99995 0.84468 0.0
C836 C 0.49101 0.99978 0.81149 0.0
C837 C 0.4776 1.00063 0.79832 0.0
C838 C 0.47222 0.01286 0.80239 0.0
C839 C 0.46063 0.01445 0.78906 0.0
C840 C 0.45453 0.00417 0.77113 0.0
C841 C 0.45974 0.99184 0.76715 0.0
C842 C 0.47104 0.99001 0.78067 0.0
C843 C 0.53456 1.00192 0.80173 0.0
C844 C 0.53185 0.98978 0.78606 0.0
C845 C 0.54607 0.99013 0.77606 0.0
C846 C 0.56322 0.0025 0.78171 0.0
C847 C 0.56597 0.01495 0.79689 0.0
C848 C 0.55178 0.01487 0.80655 0.0
C849 C 0.51937 1.00086 0.8131 0.0
C850 C 0.50552 1.00027 0.80172 0.0
C851 C 0.51859 1.00079 0.83496 0.0
C852 C 0.53288 1.00214 0.84832 0.0
C853 C 0.53852 0.98986 0.84726 0.0
C854 C 0.55211 0.99157 0.86003 0.0
C855 C 0.56028 0.00561 0.87398 0.0
C856 C 0.55436 0.01767 0.87516 0.0
C857 C 0.54083 0.01594 0.86251 0.0
H858 H 0.04555 0.55079 0.84952 0.0
H859 H 0.04762 0.57455 0.871 0.0
H860 H 0.99236 0.55473 0.86274 0.0
H861 H 0.99041 0.53102 0.84105 0.0
H862 H 0.02316 0.51499 0.86014 0.0
H863 H 0.03239 0.55493 0.80427 0.0
H864 H 0.0267 0.57348 0.78133 0.0
H865 H 0.97589 0.5295 0.76684 0.0
H866 H 0.98169 0.51104 0.7897 0.0
H867 H 0.98819 0.47048 0.78721 0.0
H868 H 0.98883 0.44824 0.76575 0.0
H869 H 0.03732 0.45903 0.79476 0.0
H870 H 0.03743 0.48237 0.81463 0.0
H871 H 0.00642 0.50237 0.78648 0.0
H872 H 0.99575 0.46195 0.84142 0.0
H873 H 0.9973 0.44392 0.86927 0.0
H874 H 0.04669 0.48719 0.88889 0.0
H875 H 0.04553 0.50503 0.86075 0.0
C876 C 0.01785 0.5392 0.8436 0.0
C877 C 0.03394 0.55173 0.85206 0.0
C878 C 0.03511 0.56532 0.86428 0.0
C879 C 0.02014 0.56647 0.86859 0.0
C880 C 0.00409 0.5541 0.85977 0.0
C881 C 1.00298 0.54064 0.84727 0.0
C882 C 0.01642 0.52378 0.83264 0.0
C883 C 0.01978 0.51227 0.84391 0.0
C884 C 0.01115 0.51996 0.81179 0.0
C885 C 0.00742 0.53159 0.79885 0.0
C886 C 0.01991 0.54935 0.79641 0.0
C887 C 0.01665 0.55995 0.78325 0.0
C888 C 1.00086 0.55297 0.77215 0.0
C889 C 0.9883 0.53524 0.77487 0.0
C890 C 0.99156 0.52468 0.78802 0.0
C891 C 0.01272 0.47821 0.80274 0.0
C892 C 0.99901 0.46812 0.78893 0.0
C893 C 0.99929 0.45517 0.77676 0.0
C894 C 0.01319 0.45174 0.77826 0.0
C895 C 0.02657 0.46145 0.79268 0.0
C896 C 0.02647 0.47465 0.8045 0.0
C897 C 0.01329 0.49328 0.81394 0.0
C898 C 0.00977 0.50485 0.80273 0.0
C899 C 0.01814 0.49698 0.83505 0.0
C900 C 0.0205 0.48491 0.84896 0.0
C901 C 0.00724 0.46738 0.85118 0.0
C902 C 0.0081 0.45708 0.86709 0.0
C903 C 0.02212 0.46425 0.88108 0.0
C904 C 0.03581 0.48141 0.87817 0.0
C905 C 0.03508 0.4916 0.86217 0.0
H906 H 0.44049 0.47822 0.83095 0.0
H907 H 0.41763 0.45733 0.85392 0.0
H908 H 0.45667 0.45296 0.88943 0.0
H909 H 0.47926 0.47311 0.86581 0.0
H910 H 0.48942 0.5062 0.86023 0.0
H911 H 0.45279 0.49052 0.78422 0.0
H912 H 0.42943 0.46588 0.76529 0.0
H913 H 0.44412 0.43103 0.79383 0.0
H914 H 0.46739 0.45575 0.813 0.0
H915 H 0.5281 0.51607 0.78951 0.0
H916 H 0.55045 0.53785 0.76686 0.0
H917 H 0.53154 0.57337 0.78092 0.0
H918 H 0.50817 0.55075 0.80138 0.0
H919 H 0.4892 0.50297 0.78373 0.0
H920 H 0.52841 0.52015 0.85635 0.0
H921 H 0.54842 0.54363 0.87922 0.0
H922 H 0.52763 0.57578 0.85718 0.0
H923 H 0.50649 0.55151 0.83637 0.0
C924 C 0.46161 0.4771 0.84645 0.0
C925 C 0.44407 0.47242 0.84336 0.0
C926 C 0.43102 0.46065 0.85673 0.0
C927 C 0.43526 0.45345 0.87362 0.0
C928 C 0.45282 0.45798 0.87644 0.0
C929 C 0.46582 0.46965 0.86302 0.0
C930 C 0.47578 0.49077 0.83352 0.0
C931 C 0.48941 0.50536 0.8435 0.0
C932 C 0.47567 0.48994 0.81167 0.0
C933 C 0.46174 0.47493 0.8001 0.0
C934 C 0.451 0.47758 0.78637 0.0
C935 C 0.43764 0.46351 0.77564 0.0
C936 C 0.43498 0.44656 0.77812 0.0
C937 C 0.44597 0.44397 0.79155 0.0
C938 C 0.45917 0.45804 0.80257 0.0
C939 C 0.51686 0.53201 0.79775 0.0
C940 C 0.52886 0.52859 0.78765 0.0
C941 C 0.54176 0.54119 0.77482 0.0
C942 C 0.54309 0.55763 0.77201 0.0
C943 C 0.53095 0.5609 0.78228 0.0
C944 C 0.51778 0.54811 0.79459 0.0
C945 C 0.50271 0.5183 0.81049 0.0
C946 C 0.48917 0.50369 0.80046 0.0
C947 C 0.50276 0.51919 0.83231 0.0
C948 C 0.51638 0.53429 0.84405 0.0
C949 C 0.52836 0.53236 0.85635 0.0
C950 C 0.53991 0.54593 0.86935 0.0
C951 C 0.53986 0.56184 0.87018 0.0
C952 C 0.52802 0.56375 0.85738 0.0
C953 C 0.51618 0.55001 0.84488 0.0
H954 H 0.65042 0.86721 0.54513 0.0
H955 H 0.64904 0.88939 0.52421 0.0
H956 H 0.68212 0.88474 0.47838 0.0
H957 H 0.68462 0.86381 0.50016 0.0
H958 H 0.66035 0.83323 0.50854 0.0
H959 H 0.65277 0.85258 0.58961 0.0
H960 H 0.66017 0.87858 0.61044 0.0
H961 H 0.70709 0.90834 0.5744 0.0
H962 H 0.6995 0.88236 0.55343 0.0
H963 H 0.69209 0.81936 0.57808 0.0
H964 H 0.69151 0.79407 0.59431 0.0
H965 H 0.63782 0.76159 0.57497 0.0
H966 H 0.63861 0.78681 0.55857 0.0
H967 H 0.67304 0.83579 0.58345 0.0
H968 H 0.68256 0.80413 0.52741 0.0
H969 H 0.67769 0.78222 0.50097 0.0
H970 H 0.62845 0.77844 0.48522 0.0
H971 H 0.6334 0.8003 0.51145 0.0
C972 C 0.66778 0.86389 0.5244 0.0
C973 C 0.65785 0.8714 0.53092 0.0
C974 C 0.6568 0.88389 0.51868 0.0
C975 C 0.66534 0.88889 0.49939 0.0
C976 C 0.67558 0.88159 0.4932 0.0
C977 C 0.67687 0.86938 0.5056 0.0
C978 C 0.66745 0.84915 0.53595 0.0
C979 C 0.66319 0.83385 0.52493 0.0
C980 C 0.67096 0.84982 0.55738 0.0
C981 C 0.67558 0.86557 0.56997 0.0
C982 C 0.66464 0.86471 0.58621 0.0
C983 C 0.66881 0.87957 0.59799 0.0
C984 C 0.68419 0.89546 0.59402 0.0
C985 C 0.6952 0.89624 0.57786 0.0
C986 C 0.69087 0.88145 0.56585 0.0
C987 C 0.66549 0.80492 0.56682 0.0
C988 C 0.68017 0.8068 0.57748 0.0
C989 C 0.67979 0.79234 0.58683 0.0
C990 C 0.66468 0.77574 0.58577 0.0
C991 C 0.64981 0.77408 0.5757 0.0
C992 C 0.65021 0.7885 0.56634 0.0
C993 C 0.66622 0.82001 0.55585 0.0
C994 C 0.67032 0.83525 0.56704 0.0
C995 C 0.66254 0.81931 0.53449 0.0
C996 C 0.65839 0.80394 0.52132 0.0
C997 C 0.67051 0.79823 0.51862 0.0
C998 C 0.66771 0.7857 0.50353 0.0
C999 C 0.65279 0.77879 0.49083 0.0
C1000 C 0.6402 0.78374 0.49451 0.0
C1001 C 0.64299 0.7962 0.50954 0.0
H1002 H 0.1684 0.79556 0.51336 0.0
H1003 H 0.14836 0.77212 0.49043 0.0
H1004 H 0.1074 0.78325 0.50595 0.0
H1005 H 0.12769 0.80694 0.52882 0.0
H1006 H 0.17859 0.82985 0.50806 0.0
H1007 H 0.14869 0.78534 0.55945 0.0
H1008 H 0.12584 0.76419 0.58239 0.0
H1009 H 0.11646 0.8047 0.60494 0.0
H1010 H 0.13896 0.82568 0.58172 0.0
H1011 H 0.18964 0.87678 0.57411 0.0
H1012 H 0.21452 0.90064 0.59233 0.0
H1013 H 0.24376 0.87388 0.58396 0.0
H1014 H 0.2193 0.8508 0.56498 0.0
H1015 H 0.17234 0.83689 0.58305 0.0
H1016 H 0.198 0.87967 0.52794 0.0
H1017 H 0.2214 0.90156 0.50605 0.0
H1018 H 0.23853 0.86472 0.49239 0.0
H1019 H 0.215 0.84283 0.5141 0.0
C1020 C 0.14954 0.80296 0.52286 0.0
C1021 C 0.15504 0.79283 0.51201 0.0
C1022 C 0.14354 0.77937 0.49898 0.0
C1023 C 0.12628 0.77582 0.49635 0.0
C1024 C 0.12066 0.78576 0.50754 0.0
C1025 C 0.13218 0.79919 0.52074 0.0
C1026 C 0.16245 0.8183 0.53497 0.0
C1027 C 0.17719 0.83125 0.5245 0.0
C1028 C 0.1604 0.82048 0.5563 0.0
C1029 C 0.14549 0.80713 0.56868 0.0
C1030 C 0.14142 0.78959 0.56893 0.0
C1031 C 0.12842 0.77752 0.58212 0.0
C1032 C 0.11948 0.78284 0.59557 0.0
C1033 C 0.1233 0.80028 0.59496 0.0
C1034 C 0.13613 0.81227 0.58165 0.0
C1035 C 0.20276 0.86218 0.56804 0.0
C1036 C 0.20146 0.87615 0.57627 0.0
C1037 C 0.21566 0.88971 0.5868 0.0
C1038 C 0.23131 0.88936 0.58948 0.0
C1039 C 0.23219 0.87493 0.58176 0.0
C1040 C 0.21815 0.8616 0.57102 0.0
C1041 C 0.18826 0.84811 0.55608 0.0
C1042 C 0.1734 0.83544 0.56655 0.0
C1043 C 0.19001 0.84614 0.53475 0.0
C1044 C 0.20484 0.85968 0.52266 0.0
C1045 C 0.20691 0.87639 0.52037 0.0
C1046 C 0.22018 0.88882 0.50779 0.0
C1047 C 0.23174 0.8848 0.49754 0.0
C1048 C 0.22988 0.86819 0.50024 0.0
C1049 C 0.21643 0.85568 0.51255 0.0
H1050 H 0.1404 0.31042 0.50444 0.0
H1051 H 0.11697 0.30643 0.48137 0.0
H1052 H 0.11776 0.35156 0.50823 0.0
H1053 H 0.14178 0.3558 0.53107 0.0
H1054 H 0.17288 0.33756 0.50513 0.0
H1055 H 0.12689 0.30679 0.55801 0.0
H1056 H 0.10218 0.30164 0.58008 0.0
H1057 H 0.12984 0.35579 0.5987 0.0
H1058 H 0.15472 0.36078 0.57691 0.0
H1059 H 0.20941 0.3588 0.58447 0.0
H1060 H 0.22845 0.35222 0.60584 0.0
H1061 H 0.20945 0.30327 0.57359 0.0
H1062 H 0.19076 0.30996 0.5522 0.0
H1063 H 0.17178 0.33726 0.58172 0.0
H1064 H 0.22127 0.36299 0.53584 0.0
H1065 H 0.24539 0.36595 0.51441 0.0
H1066 H 0.2096 0.31857 0.4819 0.0
H1067 H 0.18555 0.31607 0.50294 0.0
C1068 C 0.14282 0.33336 0.51955 0.0
C1069 C 0.13549 0.31942 0.50548 0.0
C1070 C 0.12197 0.31708 0.49238 0.0
C1071 C 0.1154 0.32862 0.49301 0.0
C1072 C 0.12261 0.34251 0.50729 0.0
C1073 C 0.13619 0.34483 0.52049 0.0
C1074 C 0.15805 0.33622 0.53218 0.0
C1075 C 0.17263 0.33749 0.52189 0.0
C1076 C 0.15803 0.33676 0.554 0.0
C1077 C 0.14256 0.33416 0.56582 0.0
C1078 C 0.12755 0.31757 0.5667 0.0
C1079 C 0.11351 0.31464 0.57935 0.0
C1080 C 0.11415 0.32832 0.5911 0.0
C1081 C 0.12899 0.34506 0.58969 0.0
C1082 C 0.14318 0.34791 0.57733 0.0
C1083 C 0.19877 0.33491 0.56668 0.0
C1084 C 0.20954 0.34677 0.58189 0.0
C1085 C 0.22042 0.34304 0.59399 0.0
C1086 C 0.22032 0.32722 0.59136 0.0
C1087 C 0.20968 0.31551 0.57598 0.0
C1088 C 0.19909 0.31936 0.5637 0.0
C1089 C 0.18631 0.33798 0.55462 0.0
C1090 C 0.17226 0.33784 0.56498 0.0
C1091 C 0.18672 0.3383 0.5328 0.0
C1092 C 0.2016 0.33934 0.52095 0.0
C1093 C 0.21868 0.35317 0.52421 0.0
C1094 C 0.23247 0.3548 0.51197 0.0
C1095 C 0.22947 0.34258 0.49627 0.0
C1096 C 0.21238 0.32846 0.49349 0.0
C1097 C 0.1986 0.32694 0.5056 0.0
H1098 H 0.01997 0.40143 0.07636 0.0
H1099 H 0.96734 0.35682 0.07702 0.0
H1100 H 0.96033 0.36923 0.10739 0.0
H1101 H 0.02552 0.40752 0.13224 0.0
H1102 H 0.03741 0.431 0.13031 0.0
H1103 H 0.0386 0.41794 0.10969 0.0
H1104 H 0.02831 0.43312 0.08357 0.0
H1105 H 0.02713 0.44623 0.10407 0.0
H1106 H 0.00819 0.43307 0.08829 0.0
H1107 H 0.95878 0.38733 0.1367 0.0
H1108 H 0.96243 0.40993 0.16185 0.0
H1109 H 0.0159 0.44298 0.14118 0.0
C1110 C 0.00703 0.39414 0.08305 0.0
C1111 C 0.99421 0.3781 0.07442 0.0
C1112 C 0.97737 0.3691 0.08344 0.0
C1113 C 0.97329 0.37603 0.10071 0.0
C1114 C 0.98621 0.39196 0.10873 0.0
C1115 C 1.00273 0.40091 0.10017 0.0
C1116 C 0.01398 0.41822 0.11094 0.0
C1117 C 0.02981 0.41869 0.12142 0.0
C1118 C 0.01973 0.43356 0.09582 0.0
C1119 C 1.00115 0.41777 0.12676 0.0
C1120 C 0.98525 0.40246 0.12536 0.0
C1121 C 0.97119 0.39933 0.13796 0.0
C1122 C 0.97337 0.4123 0.15212 0.0
C1123 C 0.98945 0.42826 0.15353 0.0
C1124 C 0.00354 0.43084 0.14079 0.0
H1125 H 0.62835 0.60517 0.06449 0.0
H1126 H 0.59195 0.62226 0.04654 0.0
H1127 H 0.5724 0.60526 0.07492 0.0
H1128 H 0.59493 0.56083 0.07928 0.0
H1129 H 0.60722 0.55985 0.10093 0.0
H1130 H 0.61848 0.57309 0.07881 0.0
H1131 H 0.63497 0.60008 0.10261 0.0
H1132 H 0.62368 0.58695 0.12478 0.0
H1133 H 0.62269 0.60639 0.1192 0.0
H1134 H 0.55725 0.58776 0.10551 0.0
H1135 H 0.54611 0.56872 0.13601 0.0
H1136 H 0.59147 0.56194 0.13492 0.0
C1137 C 0.61618 0.60516 0.06646 0.0
C1138 C 0.61171 0.61508 0.05327 0.0
C1139 C 0.59571 0.61481 0.0564 0.0
C1140 C 0.58448 0.6052 0.07252 0.0
C1141 C 0.58934 0.5958 0.08541 0.0
C1142 C 0.60468 0.59551 0.08255 0.0
C1143 C 0.60657 0.58421 0.09886 0.0
C1144 C 0.60681 0.56856 0.08887 0.0
C1145 C 0.62295 0.59506 0.11214 0.0
C1146 C 0.58997 0.57838 0.11129 0.0
C1147 C 0.58033 0.58535 0.10323 0.0
C1148 C 0.56465 0.58219 0.11201 0.0
C1149 C 0.55851 0.57148 0.12946 0.0
C1150 C 0.56798 0.56397 0.138 0.0
C1151 C 0.58394 0.56748 0.12872 0.0
H1152 H 0.39042 0.98541 0.06722 0.0
H1153 H 0.39777 0.03773 0.06744 0.0
H1154 H 0.41816 0.04559 0.09682 0.0
H1155 H 0.39189 0.9809 0.12256 0.0
H1156 H 0.40377 0.9693 0.12115 0.0
H1157 H 0.38948 0.96759 0.10032 0.0
H1158 H 0.41509 0.97792 0.07434 0.0
H1159 H 0.42942 0.97955 0.09507 0.0
H1160 H 0.43505 0.99822 0.07891 0.0
H1161 H 0.4377 0.04783 0.12609 0.0
H1162 H 0.45605 0.04469 0.15249 0.0
H1163 H 0.43672 0.99116 0.13283 0.0
C1164 C 0.39631 0.99851 0.07348 0.0
C1165 C 0.39249 0.01097 0.06507 0.0
C1166 C 0.40051 0.02799 0.07362 0.0
C1167 C 0.41208 0.03256 0.09035 0.0
C1168 C 0.41553 0.01999 0.09833 0.0
C1169 C 0.40797 0.00333 0.09014 0.0
C1170 C 0.41423 0.99243 0.10134 0.0
C1171 C 0.39893 0.97662 0.11197 0.0
C1172 C 0.42403 0.9867 0.08653 0.0
C1173 C 0.42652 0.00557 0.11705 0.0
C1174 C 0.427 0.02135 0.11509 0.0
C1175 C 0.43749 0.03556 0.12773 0.0
C1176 C 0.44794 0.03367 0.14262 0.0
C1177 C 0.44793 0.01771 0.14472 0.0
C1178 C 0.4369 0.00346 0.13183 0.0
H1179 H 0.39906 0.01566 0.96057 0.0
H1180 H 0.36727 0.96001 0.97209 0.0
H1181 H 0.38178 0.95411 0.9431 0.0
H1182 H 0.39922 0.01276 0.90466 0.0
H1183 H 0.42152 0.03024 0.9022 0.0
H1184 H 0.40837 0.03007 0.92355 0.0
H1185 H 0.43165 0.03184 0.9493 0.0
H1186 H 0.44488 0.03206 0.92803 0.0
H1187 H 0.43844 0.01575 0.94796 0.0
H1188 H 0.40039 0.95434 0.91349 0.0
H1189 H 0.42211 0.96063 0.88608 0.0
H1190 H 0.44118 0.01615 0.89308 0.0
C1191 C 0.39513 1.00223 0.95697 0.0
C1192 C 0.38204 0.98828 0.9686 0.0
C1193 C 0.37727 0.9709 0.9634 0.0
C1194 C 0.38541 0.96741 0.94693 0.0
C1195 C 0.39825 0.98146 0.93575 0.0
C1196 C 0.40309 0.99852 0.94055 0.0
C1197 C 0.41748 0.01125 0.92633 0.0
C1198 C 0.41127 0.02169 0.91342 0.0
C1199 C 0.43409 0.02344 0.93864 0.0
C1200 C 0.42013 0.99869 0.91297 0.0
C1201 C 0.40885 0.98157 0.91858 0.0
C1202 C 0.40917 0.96769 0.90883 0.0
C1203 C 0.42149 0.97141 0.89312 0.0
C1204 C 0.43337 0.9889 0.88723 0.0
C1205 C 0.43243 0.00264 0.89723 0.0
H1206 H 0.023 0.3915 0.95429 0.0
H1207 H 0.00877 0.41453 1.00436 0.0
H1208 H 0.01101 0.4375 0.98078 0.0
H1209 H 0.05317 0.43217 0.92715 0.0
H1210 H 0.0458 0.42276 0.90188 0.0
H1211 H 0.04494 0.40919 0.9231 0.0
H1212 H 0.01186 0.38861 0.91656 0.0
H1213 H 0.01259 0.40217 0.89541 0.0
H1214 H 0.99744 0.39749 0.91635 0.0
H1215 H 0.01405 0.45742 0.95207 0.0
H1216 H 0.01613 0.47242 0.9191 0.0
H1217 H 0.0261 0.4355 0.88651 0.0
C1218 C 0.02075 0.40163 0.96029 0.0
C1219 C 0.01601 0.40151 0.98117 0.0
C1220 C 0.01257 0.41457 0.98843 0.0
C1221 C 0.01384 0.42765 0.97518 0.0
C1222 C 0.01826 0.4273 0.9546 0.0
C1223 C 0.02154 0.4146 0.94709 0.0
C1224 C 0.02468 0.41652 0.92392 0.0
C1225 C 0.04325 0.42039 0.91871 0.0
C1226 C 0.01081 0.40023 0.91238 0.0
C1227 C 0.02258 0.43224 0.91963 0.0
C1228 C 0.01912 0.43835 0.93766 0.0
C1229 C 0.01675 0.45277 0.93785 0.0
C1230 C 0.01794 0.46119 0.91912 0.0
C1231 C 0.02122 0.45503 0.90045 0.0
C1232 C 0.02353 0.44035 0.90065 0.0
H1233 H 0.62107 0.6138 0.94675 0.0
H1234 H 0.5974 0.64419 0.96611 0.0
H1235 H 0.57403 0.62902 0.94013 0.0
H1236 H 0.61105 0.61327 0.89121 0.0
H1237 H 0.60709 0.59136 0.88771 0.0
H1238 H 0.62245 0.60538 0.90697 0.0
H1239 H 0.60544 0.58198 0.93495 0.0
H1240 H 0.58994 0.56797 0.91584 0.0
H1241 H 0.58245 0.57407 0.93856 0.0
H1242 H 0.55161 0.60823 0.91496 0.0
H1243 H 0.53304 0.58534 0.89025 0.0
H1244 H 0.57275 0.57028 0.88466 0.0
C1245 C 0.6111 0.61743 0.9453 0.0
C1246 C 0.611 0.63015 0.95843 0.0
C1247 C 0.59776 0.63455 0.95611 0.0
C1248 C 0.58442 0.62597 0.94145 0.0
C1249 C 0.58471 0.61325 0.929 0.0
C1250 C 0.59787 0.60921 0.93051 0.0
C1251 C 0.59499 0.59487 0.91544 0.0
C1252 C 0.60978 0.60163 0.89938 0.0
C1253 C 0.59309 0.57877 0.92689 0.0
C1254 C 0.57788 0.59112 0.90567 0.0
C1255 C 0.57217 0.60184 0.91373 0.0
C1256 C 0.55617 0.60006 0.90813 0.0
C1257 C 0.54574 0.58703 0.89385 0.0
C1258 C 0.5514 0.576 0.88498 0.0
C1259 C 0.56783 0.57829 0.89103 0.0
H1260 H 0.99381 0.60122 0.96829 0.0
H1261 H 0.03696 0.65306 0.95485 0.0
H1262 H 0.04415 0.64142 0.92381 0.0
H1263 H 0.01443 0.57705 0.9523 0.0
H1264 H 0.99474 0.55942 0.9413 0.0
H1265 H 0.9934 0.57191 0.96247 0.0
H1266 H 0.97311 0.57895 0.94069 0.0
H1267 H 0.97447 0.56657 0.9194 0.0
H1268 H 0.98033 0.58904 0.91571 0.0
H1269 H 0.04681 0.62362 0.89449 0.0
H1270 H 0.04428 0.60151 0.86908 0.0
H1271 H 0.99862 0.56179 0.90135 0.0
C1272 C 0.00486 0.61013 0.9589 0.0
C1273 C 0.01493 0.62803 0.96405 0.0
C1274 C 0.02912 0.63929 0.95122 0.0
C1275 C 0.03328 0.63279 0.93357 0.0
C1276 C 0.023 0.61506 0.92889 0.0
C1277 C 0.00903 0.60392 0.94118 0.0
C1278 C 0.9998 0.58549 0.93268 0.0
C1279 C 1.00065 0.57272 0.9481 0.0
C1280 C 0.98081 0.57968 0.92677 0.0
C1281 C 0.01081 0.58789 0.91373 0.0
C1282 C 0.02418 0.60501 0.91182 0.0
C1283 C 0.03633 0.61021 0.8958 0.0
C1284 C 0.03482 0.59758 0.88148 0.0
C1285 C 0.02118 0.57998 0.88315 0.0
C1286 C 0.00899 0.57519 0.89945 0.0
H1287 H 0.39331 0.37923 0.9598 0.0
H1288 H 0.35594 0.39618 0.97264 0.0
H1289 H 0.36824 0.4174 0.94384 0.0
H1290 H 0.42924 0.42038 0.94804 0.0
H1291 H 0.43739 0.41264 0.92749 0.0
H1292 H 0.42498 0.3982 0.94824 0.0
H1293 H 0.40311 0.37595 0.92182 0.0
H1294 H 0.41551 0.39031 0.90095 0.0
H1295 H 0.39254 0.38294 0.90346 0.0
H1296 H 0.38616 0.43819 0.91508 0.0
H1297 H 0.40762 0.45629 0.88846 0.0
H1298 H 0.43225 0.42457 0.89359 0.0
C1299 C 0.3876 0.38731 0.95646 0.0
C1300 C 0.3737 0.38611 0.96846 0.0
C1301 C 0.36657 0.39686 0.96358 0.0
C1302 C 0.37347 0.40894 0.94727 0.0
C1303 C 0.38733 0.40991 0.93586 0.0
C1304 C 0.39419 0.39925 0.94014 0.0
C1305 C 0.40926 0.40303 0.92587 0.0
C1306 C 0.42622 0.40892 0.93815 0.0
C1307 C 0.40483 0.38711 0.91221 0.0
C1308 C 0.41017 0.41786 0.91326 0.0
C1309 C 0.39736 0.42158 0.91913 0.0
C1310 C 0.39608 0.43521 0.91017 0.0
C1311 C 0.40829 0.44537 0.89493 0.0
C1312 C 0.42164 0.44186 0.88877 0.0
C1313 C 0.42235 0.42774 0.89799 0.0
H1314 H 0.60775 0.98011 0.96149 0.0
H1315 H 0.6453 0.03553 0.96559 0.0
H1316 H 0.63181 0.04104 0.93538 0.0
H1317 H 0.6033 0.97745 0.9044 0.0
H1318 H 0.58007 0.96251 0.90526 0.0
H1319 H 0.59389 0.96238 0.92564 0.0
H1320 H 0.57509 0.96712 0.95274 0.0
H1321 H 0.56122 0.96724 0.93247 0.0
H1322 H 0.57167 0.98547 0.95002 0.0
H1323 H 0.6137 0.04109 0.90648 0.0
H1324 H 0.59056 0.036 0.8816 0.0
H1325 H 0.56324 0.98076 0.89669 0.0
C1326 C 0.61328 0.99331 0.95569 0.0
C1327 C 0.62764 0.00741 0.96569 0.0
C1328 C 0.6343 0.02458 0.95809 0.0
C1329 C 0.6268 0.02783 0.94089 0.0
C1330 C 0.61251 0.01377 0.93152 0.0
C1331 C 0.60568 0.99685 0.93866 0.0
C1332 C 0.58922 0.98444 0.92682 0.0
C1333 C 0.59178 0.97089 0.91482 0.0
C1334 C 0.57337 0.97555 0.94138 0.0
C1335 C 0.58776 0.9971 0.91225 0.0
C1336 C 0.60153 0.01389 0.91507 0.0
C1337 C 0.60287 0.02801 0.90407 0.0
C1338 C 0.5896 0.025 0.89006 0.0
C1339 C 0.57503 0.00802 0.8873 0.0
C1340 C 0.57431 0.99384 0.89829 0.0
H1341 H 0.6326 0.023 0.07823 0.0
H1342 H 0.60106 0.96906 0.05837 0.0
H1343 H 0.57971 0.96389 0.0858 0.0
H1344 H 0.62443 0.01467 0.13349 0.0
H1345 H 0.62336 0.0342 0.1382 0.0
H1346 H 0.6367 0.03366 0.11747 0.0
H1347 H 0.62031 0.04262 0.09149 0.0
H1348 H 0.60692 0.04317 0.11212 0.0
H1349 H 0.59683 0.02972 0.08972 0.0
H1350 H 0.56126 0.96459 0.11423 0.0
H1351 H 0.54645 0.97121 0.14196 0.0
H1352 H 0.58982 0.02459 0.14438 0.0
C1353 C 0.62125 0.01009 0.07977 0.0
C1354 C 0.61851 0.99642 0.06617 0.0
C1355 C 0.60345 0.97974 0.06859 0.0
C1356 C 0.59124 0.97664 0.08416 0.0
C1357 C 0.59425 0.99036 0.09723 0.0
C1358 C 0.60885 0.00676 0.09527 0.0
C1359 C 0.60858 0.01929 0.1111 0.0
C1360 C 0.6242 0.02584 0.12595 0.0
C1361 C 0.60813 0.0346 0.10047 0.0
C1362 C 0.59148 0.00739 0.12207 0.0
C1363 C 0.58352 0.99075 0.11384 0.0
C1364 C 0.56744 0.97752 0.12097 0.0
C1365 C 0.55919 0.9814 0.13689 0.0
C1366 C 0.56701 0.99838 0.14561 0.0
C1367 C 0.58344 0.0115 0.13806 0.0
H1368 H 0.01484 0.61979 0.0701 0.0
H1369 H 0.96033 0.60591 0.06785 0.0
H1370 H 0.9539 0.58568 0.09719 0.0
H1371 H 0.00787 0.57768 0.08151 0.0
H1372 H 0.02624 0.58525 0.0988 0.0
H1373 H 0.02665 0.59916 0.07827 0.0
H1374 H 0.03245 0.62342 0.10484 0.0
H1375 H 0.03212 0.6096 0.12546 0.0
H1376 H 0.01771 0.61849 0.12631 0.0
H1377 H 0.95317 0.56553 0.1253 0.0
H1378 H 0.95825 0.54775 0.15061 0.0
H1379 H 0.01365 0.5762 0.13582 0.0
C1380 C 1.00157 0.61259 0.07588 0.0
C1381 C 0.98806 0.61439 0.06669 0.0
C1382 C 0.97088 0.60475 0.0747 0.0
C1383 C 0.96711 0.59323 0.09134 0.0
C1384 C 0.9807 0.59164 0.09994 0.0
C1385 C 0.99762 0.60118 0.09259 0.0
C1386 C 0.00982 0.59691 0.10435 0.0
C1387 C 0.01813 0.5893 0.08987 0.0
C1388 C 0.02385 0.61307 0.11593 0.0
C1389 C 0.99707 0.58325 0.11921 0.0
C1390 C 0.98035 0.5804 0.11645 0.0
C1391 C 0.96627 0.56784 0.12782 0.0
C1392 C 0.96933 0.55788 0.14231 0.0
C1393 C 0.98639 0.56055 0.14545 0.0
C1394 C 1.00041 0.5736 0.13378 0.0
H1395 H 0.3809 0.38781 0.08313 0.0
H1396 H 0.41462 0.37517 0.04736 0.0
H1397 H 0.43891 0.39249 0.0714 0.0
H1398 H 0.4131 0.4318 0.09573 0.0
H1399 H 0.40531 0.431 0.12167 0.0
H1400 H 0.39037 0.41742 0.10184 0.0
H1401 H 0.3815 0.38995 0.12419 0.0
H1402 H 0.39638 0.40345 0.14412 0.0
H1403 H 0.39817 0.38559 0.13345 0.0
H1404 H 0.45983 0.41209 0.09812 0.0
H1405 H 0.47597 0.4318 0.12681 0.0
H1406 H 0.42851 0.43067 0.14695 0.0
C1407 C 0.39339 0.38867 0.08043 0.0
C1408 C 0.3959 0.38017 0.06335 0.0
C1409 C 0.4124 0.38153 0.06035 0.0
C1410 C 0.42629 0.39136 0.07391 0.0
C1411 C 0.42343 0.39963 0.09053 0.0
C1412 C 0.40739 0.3983 0.09398 0.0
C1413 C 0.40788 0.40843 0.11316 0.0
C1414 C 0.40393 0.42303 0.10776 0.0
C1415 C 0.39523 0.39612 0.12971 0.0
C1416 C 0.42677 0.41585 0.11973 0.0
C1417 C 0.43546 0.41059 0.10641 0.0
C1418 C 0.4531 0.41608 0.10885 0.0
C1419 C 0.46213 0.4272 0.12538 0.0
C1420 C 0.45353 0.43266 0.13951 0.0
C1421 C 0.43555 0.42684 0.13651 0.0
H1422 H 0.66201 0.70779 0.42254 0.0
H1423 H 0.6506 0.73031 0.3695 0.0
H1424 H 0.64525 0.74934 0.39255 0.0
H1425 H 0.63097 0.71001 0.45906 0.0
H1426 H 0.64587 0.71634 0.48057 0.0
H1427 H 0.64683 0.70291 0.46024 0.0
H1428 H 0.67959 0.7254 0.45462 0.0
H1429 H 0.67872 0.73893 0.47485 0.0
H1430 H 0.68613 0.74787 0.44941 0.0
H1431 H 0.6425 0.76676 0.4205 0.0
H1432 H 0.64393 0.78303 0.45197 0.0
H1433 H 0.65867 0.75087 0.48765 0.0
C1434 C 0.658 0.71647 0.41593 0.0
C1435 C 0.65644 0.71746 0.39431 0.0
C1436 C 0.65172 0.72932 0.38605 0.0
C1437 C 0.64862 0.74013 0.39901 0.0
C1438 C 0.65053 0.73912 0.42022 0.0
C1439 C 0.65522 0.72771 0.42871 0.0
C1440 C 0.65779 0.73043 0.45192 0.0
C1441 C 0.64457 0.71394 0.46364 0.0
C1442 C 0.67668 0.73599 0.45805 0.0
C1443 C 0.654 0.74524 0.45501 0.0
C1444 C 0.64959 0.7498 0.4365 0.0
C1445 C 0.64578 0.76323 0.43513 0.0
C1446 C 0.64655 0.77234 0.45314 0.0
C1447 C 0.65123 0.76812 0.47233 0.0
C1448 C 0.65501 0.75436 0.47322 0.0
H1449 H 0.26832 0.94902 0.4006 0.0
H1450 H 0.31907 0.95458 0.41326 0.0
H1451 H 0.30703 0.93614 0.4443 0.0
H1452 H 0.25633 0.9498 0.45464 0.0
H1453 H 0.23365 0.93387 0.45043 0.0
H1454 H 0.24648 0.94822 0.42976 0.0
H1455 H 0.23844 0.92142 0.40641 0.0
H1456 H 0.22563 0.90701 0.427 0.0
H1457 H 0.24288 0.90472 0.4153 0.0
H1458 H 0.28899 0.91538 0.47247 0.0
H1459 H 0.26644 0.89482 0.49677 0.0
H1460 H 0.22769 0.90348 0.46649 0.0
C1461 C 0.27694 0.94651 0.41004 0.0
C1462 C 0.29464 0.95323 0.40453 0.0
C1463 C 0.30548 0.9496 0.41722 0.0
C1464 C 0.29876 0.93914 0.43488 0.0
C1465 C 0.28121 0.93253 0.43975 0.0
C1466 C 0.27047 0.93619 0.42781 0.0
C1467 C 0.25199 0.92715 0.43622 0.0
C1468 C 0.24681 0.94056 0.44318 0.0
C1469 C 0.23897 0.91431 0.42029 0.0
C1470 C 0.25395 0.91761 0.45453 0.0
C1471 C 0.27091 0.92088 0.45628 0.0
C1472 C 0.27571 0.91287 0.4714 0.0
C1473 C 0.26283 0.90117 0.48506 0.0
C1474 C 0.2454 0.8977 0.48358 0.0
C1475 C 0.24099 0.90615 0.46819 0.0
H1476 H 0.07042 0.35656 0.4049 0.0
H1477 H 0.03441 0.30119 0.39577 0.0
H1478 H 0.04789 0.29437 0.4249 0.0
H1479 H 0.10767 0.3521 0.41668 0.0
H1480 H 0.11643 0.36924 0.43578 0.0
H1481 H 0.10337 0.36994 0.41486 0.0
H1482 H 0.08248 0.37206 0.44128 0.0
H1483 H 0.09543 0.37123 0.46228 0.0
H1484 H 0.07237 0.35559 0.46101 0.0
H1485 H 0.06504 0.2933 0.45464 0.0
H1486 H 0.08656 0.29791 0.48166 0.0
H1487 H 0.11264 0.35385 0.47096 0.0
C1488 C 0.06536 0.34302 0.40913 0.0
C1489 C 0.05133 0.3294 0.39812 0.0
C1490 C 0.04516 0.31184 0.40395 0.0
C1491 C 0.05266 0.30782 0.42055 0.0
C1492 C 0.06642 0.3215 0.43112 0.0
C1493 C 0.07286 0.33874 0.42558 0.0
C1494 C 0.08837 0.35084 0.43896 0.0
C1495 C 0.10494 0.36113 0.42578 0.0
C1496 C 0.08442 0.36316 0.45163 0.0
C1497 C 0.08967 0.33766 0.45275 0.0
C1498 C 0.07673 0.32085 0.44807 0.0
C1499 C 0.07529 0.3064 0.45841 0.0
C1500 C 0.08763 0.30915 0.47367 0.0
C1501 C 0.10139 0.32622 0.47835 0.0
C1502 C 0.10219 0.34066 0.46793 0.0
H1503 H 0.04516 0.31214 0.29625 0.0
H1504 H 0.05981 0.3668 0.29421 0.0
H1505 H 0.07799 0.37109 0.26351 0.0
H1506 H 0.08709 0.31932 0.28436 0.0
H1507 H 0.07987 0.3 0.26878 0.0
H1508 H 0.06594 0.30035 0.28884 0.0
H1509 H 0.04118 0.2921 0.26215 0.0
H1510 H 0.05505 0.29171 0.24198 0.0
H1511 H 0.04539 0.30536 0.23939 0.0
H1512 H 0.0962 0.3704 0.23515 0.0
H1513 H 0.11468 0.36501 0.21125 0.0
H1514 H 0.08982 0.31111 0.23172 0.0
C1515 C 0.05188 0.32486 0.28895 0.0
C1516 C 0.05098 0.33912 0.2974 0.0
C1517 C 0.06032 0.35572 0.2879 0.0
C1518 C 0.07061 0.35827 0.27041 0.0
C1519 C 0.07157 0.34411 0.26264 0.0
C1520 C 0.06256 0.32773 0.27156 0.0
C1521 C 0.06731 0.31526 0.26116 0.0
C1522 C 0.07554 0.30833 0.27671 0.0
C1523 C 0.05128 0.30021 0.25054 0.0
C1524 C 0.08063 0.32732 0.24539 0.0
C1525 C 0.08264 0.34383 0.24638 0.0
C1526 C 0.09469 0.3575 0.23411 0.0
C1527 C 0.1052 0.35434 0.22067 0.0
C1528 C 0.10375 0.33768 0.21966 0.0
C1529 C 0.09105 0.32391 0.23195 0.0
H1530 H 0.69124 0.73123 0.2925 0.0
H1531 H 0.63543 0.6948 0.29627 0.0
H1532 H 0.63043 0.70962 0.26717 0.0
H1533 H 0.6882 0.76861 0.28199 0.0
H1534 H 0.70613 0.77827 0.26396 0.0
H1535 H 0.70579 0.76395 0.28392 0.0
H1536 H 0.7086 0.74426 0.25635 0.0
H1537 H 0.70909 0.75861 0.23629 0.0
H1538 H 0.69309 0.73566 0.23541 0.0
H1539 H 0.63091 0.72971 0.24028 0.0
H1540 H 0.63693 0.7533 0.21591 0.0
H1541 H 0.69261 0.77637 0.22767 0.0
C1542 C 0.67803 0.7262 0.28691 0.0
C1543 C 0.66373 0.71183 0.29664 0.0
C1544 C 0.64659 0.70577 0.28908 0.0
C1545 C 0.6436 0.71408 0.27252 0.0
C1546 C 0.65788 0.72841 0.26354 0.0
C1547 C 0.67478 0.73437 0.27028 0.0
C1548 C 0.68764 0.75055 0.25837 0.0
C1549 C 0.69752 0.76627 0.27293 0.0
C1550 C 0.70036 0.74705 0.24586 0.0
C1551 C 0.67525 0.75292 0.2443 0.0
C1552 C 0.65817 0.73993 0.24753 0.0
C1553 C 0.64427 0.73976 0.23726 0.0
C1554 C 0.64787 0.75321 0.22327 0.0
C1555 C 0.66529 0.76669 0.21946 0.0
C1556 C 0.67914 0.76637 0.23014 0.0
H1557 H 0.27252 0.96071 0.28918 0.0
H1558 H 0.28997 0.92611 0.31294 0.0
H1559 H 0.27392 0.90503 0.28529 0.0
H1560 H 0.22898 0.92635 0.27563 0.0
H1561 H 0.22765 0.93696 0.25251 0.0
H1562 H 0.24098 0.94984 0.27383 0.0
H1563 H 0.26781 0.9649 0.24952 0.0
H1564 H 0.25456 0.952 0.22815 0.0
H1565 H 0.27421 0.95171 0.2348 0.0
H1566 H 0.25643 0.88769 0.25537 0.0
H1567 H 0.23651 0.87394 0.22597 0.0
H1568 H 0.22925 0.91886 0.22124 0.0
C1569 C 0.27294 0.9487 0.28851 0.0
C1570 C 0.28254 0.94509 0.30323 0.0
C1571 C 0.28269 0.92917 0.30191 0.0
C1572 C 0.27367 0.91711 0.28619 0.0
C1573 C 0.26439 0.92103 0.27191 0.0
C1574 C 0.26377 0.93631 0.27295 0.0
C1575 C 0.25224 0.93686 0.2559 0.0
C1576 C 0.23653 0.93754 0.26502 0.0
C1577 C 0.26284 0.95229 0.24122 0.0
C1578 C 0.24652 0.9195 0.24523 0.0
C1579 C 0.25387 0.91072 0.25467 0.0
C1580 C 0.25062 0.89445 0.24778 0.0
C1581 C 0.23939 0.8868 0.23093 0.0
C1582 C 0.2314 0.89534 0.22113 0.0
C1583 C 0.23512 0.91198 0.2284 0.0
H1584 H 0.67931 0.93855 0.31141 0.0
H1585 H 0.68037 0.98094 0.27658 0.0
H1586 H 0.68072 0.96655 0.24396 0.0
H1587 H 0.70836 0.93211 0.2772 0.0
H1588 H 0.69662 0.90873 0.28048 0.0
H1589 H 0.6969 0.92264 0.30099 0.0
H1590 H 0.66303 0.90592 0.3013 0.0
H1591 H 0.66264 0.89204 0.28072 0.0
H1592 H 0.65134 0.90411 0.27776 0.0
H1593 H 0.67908 0.9465 0.21508 0.0
H1594 H 0.67799 0.92348 0.19225 0.0
H1595 H 0.67911 0.89487 0.24603 0.0
C1596 C 0.67978 0.94488 0.29692 0.0
C1597 C 0.67981 0.96086 0.29651 0.0
C1598 C 0.68042 0.96874 0.27725 0.0
C1599 C 0.68056 0.96063 0.25865 0.0
C1600 C 0.68027 0.94476 0.25958 0.0
C1601 C 0.68011 0.93707 0.27823 0.0
C1602 C 0.67986 0.91999 0.27501 0.0
C1603 C 0.69642 0.92093 0.28395 0.0
C1604 C 0.66323 0.90461 0.28424 0.0
C1605 C 0.6797 0.91916 0.25164 0.0
C1606 C 0.67984 0.93351 0.243 0.0
C1607 C 0.67913 0.93529 0.22167 0.0
C1608 C 0.67842 0.92214 0.20884 0.0
C1609 C 0.67859 0.9075 0.21739 0.0
C1610 C 0.67922 0.90605 0.23907 0.0
H1611 H 0.06237 0.71686 0.2947 0.0
H1612 H 0.02788 0.73731 0.30788 0.0
H1613 H 0.04084 0.758 0.2787 0.0
H1614 H 0.09981 0.75718 0.28187 0.0
H1615 H 0.10689 0.74824 0.26152 0.0
H1616 H 0.09436 0.73464 0.28281 0.0
H1617 H 0.07145 0.71243 0.2572 0.0
H1618 H 0.08392 0.72597 0.23581 0.0
H1619 H 0.06127 0.71979 0.23874 0.0
H1620 H 0.05873 0.77743 0.24898 0.0
H1621 H 0.08003 0.79403 0.22151 0.0
H1622 H 0.10187 0.75987 0.22717 0.0
C1623 C 0.05746 0.72562 0.2914 0.0
C1624 C 0.04413 0.72551 0.30356 0.0
C1625 C 0.03808 0.73718 0.29874 0.0
C1626 C 0.04534 0.74895 0.28219 0.0
C1627 C 0.05854 0.74877 0.27055 0.0
C1628 C 0.06448 0.73735 0.27492 0.0
C1629 C 0.07903 0.73999 0.2604 0.0
C1630 C 0.09602 0.74534 0.27237 0.0
C1631 C 0.07359 0.72357 0.24726 0.0
C1632 C 0.08058 0.75489 0.24737 0.0
C1633 C 0.06861 0.75974 0.25337 0.0
C1634 C 0.06803 0.77361 0.24401 0.0
C1635 C 0.08012 0.78289 0.22829 0.0
C1636 C 0.09266 0.77828 0.22205 0.0
C1637 C 0.09262 0.76389 0.23163 0.0
H1638 H 0.29296 0.3509 0.29186 0.0
H1639 H 0.27525 0.29609 0.30227 0.0
H1640 H 0.25358 0.28814 0.27408 0.0
H1641 H 0.2519 0.34651 0.28214 0.0
H1642 H 0.25949 0.36295 0.26224 0.0
H1643 H 0.27421 0.36425 0.28227 0.0
H1644 H 0.29583 0.36504 0.25466 0.0
H1645 H 0.28121 0.36384 0.23451 0.0
H1646 H 0.28828 0.34796 0.23553 0.0
H1647 H 0.23222 0.28633 0.24664 0.0
H1648 H 0.2138 0.29067 0.22152 0.0
H1649 H 0.247 0.34687 0.22778 0.0
C1650 C 0.28464 0.33722 0.28809 0.0
C1651 C 0.28573 0.32408 0.29925 0.0
C1652 C 0.27465 0.30635 0.29384 0.0
C1653 C 0.26231 0.30172 0.27788 0.0
C1654 C 0.26142 0.31502 0.26735 0.0
C1655 C 0.27245 0.33241 0.27211 0.0
C1656 C 0.26867 0.34422 0.25883 0.0
C1657 C 0.26324 0.35511 0.27217 0.0
C1658 C 0.28444 0.35595 0.24507 0.0
C1659 C 0.25351 0.33075 0.24616 0.0
C1660 C 0.24952 0.31399 0.25124 0.0
C1661 C 0.23542 0.29941 0.2423 0.0
C1662 C 0.22509 0.30203 0.22789 0.0
C1663 C 0.22891 0.31914 0.22244 0.0
C1664 C 0.24351 0.33361 0.23163 0.0
H1665 H 0.27204 0.33693 0.38983 0.0
H1666 H 0.32162 0.35756 0.42185 0.0
H1667 H 0.30769 0.35968 0.45407 0.0
H1668 H 0.25774 0.36397 0.41588 0.0
H1669 H 0.23517 0.34685 0.41645 0.0
H1670 H 0.24927 0.34748 0.39598 0.0
H1671 H 0.24159 0.31586 0.4049 0.0
H1672 H 0.22756 0.31517 0.42549 0.0
H1673 H 0.245 0.31078 0.43085 0.0
H1674 H 0.28775 0.35821 0.48322 0.0
H1675 H 0.26389 0.35434 0.50644 0.0
H1676 H 0.22783 0.33577 0.45462 0.0
C1677 C 0.28001 0.34201 0.40358 0.0
C1678 C 0.29791 0.34708 0.40337 0.0
C1679 C 0.30789 0.35365 0.42168 0.0
C1680 C 0.30008 0.35487 0.44004 0.0
C1681 C 0.28233 0.34958 0.43976 0.0
C1682 C 0.27247 0.34341 0.42195 0.0
C1683 C 0.25365 0.33846 0.4257 0.0
C1684 C 0.24867 0.34987 0.41274 0.0
C1685 C 0.24122 0.31891 0.42149 0.0
C1686 C 0.25437 0.3426 0.44849 0.0
C1687 C 0.27101 0.34899 0.45635 0.0
C1688 C 0.27471 0.35337 0.47716 0.0
C1689 C 0.26107 0.35121 0.49022 0.0
C1690 C 0.24392 0.34476 0.48244 0.0
C1691 C 0.24068 0.34049 0.46122 0.0
H1692 H 0.68892 0.95443 0.40421 0.0
H1693 H 0.63699 0.94773 0.40958 0.0
H1694 H 0.6315 0.92923 0.44049 0.0
H1695 H 0.67798 0.9116 0.41868 0.0
H1696 H 0.69775 0.91823 0.43314 0.0
H1697 H 0.69777 0.93143 0.41199 0.0
H1698 H 0.70937 0.95824 0.43633 0.0
H1699 H 0.70941 0.94512 0.45757 0.0
H1700 H 0.69757 0.95673 0.45968 0.0
H1701 H 0.63103 0.90975 0.46931 0.0
H1702 H 0.63581 0.8916 0.4943 0.0
H1703 H 0.68896 0.91295 0.47168 0.0
C1704 C 0.67642 0.94914 0.41196 0.0
C1705 C 0.66334 0.95244 0.40449 0.0
C1706 C 0.6472 0.94537 0.41509 0.0
C1707 C 0.64397 0.93486 0.43264 0.0
C1708 C 0.65711 0.93177 0.43955 0.0
C1709 C 0.67308 0.93884 0.42964 0.0
C1710 C 0.68494 0.93339 0.44004 0.0
C1711 C 0.68989 0.92304 0.42507 0.0
C1712 C 0.70129 0.94932 0.44894 0.0
C1713 C 0.67302 0.92182 0.45707 0.0
C1714 C 0.65704 0.92105 0.45655 0.0
C1715 C 0.64361 0.91048 0.47009 0.0
C1716 C 0.64654 0.9003 0.4844 0.0
C1717 C 0.66284 0.90081 0.48524 0.0
C1718 C 0.67628 0.91201 0.47148 0.0
H1719 H 0.06017 0.73776 0.40091 0.0
H1720 H 0.06484 0.69128 0.40426 0.0
H1721 H 0.0847 0.70382 0.4342 0.0
H1722 H 0.10484 0.76869 0.41429 0.0
H1723 H 0.09917 0.78233 0.42925 0.0
H1724 H 0.08549 0.7697 0.40802 0.0
H1725 H 0.05879 0.75534 0.43261 0.0
H1726 H 0.07241 0.76782 0.45396 0.0
H1727 H 0.0598 0.74434 0.45556 0.0
H1728 H 0.10401 0.72146 0.46389 0.0
H1729 H 0.12185 0.74313 0.49054 0.0
H1730 H 0.10445 0.77802 0.46782 0.0
C1731 C 0.06544 0.73025 0.40787 0.0
C1732 C 0.061 0.71355 0.40022 0.0
C1733 C 0.0681 0.70411 0.40983 0.0
C1734 C 0.07936 0.71111 0.42687 0.0
C1735 C 0.08335 0.72754 0.43414 0.0
C1736 C 0.07664 0.73701 0.42491 0.0
C1737 C 0.08297 0.75436 0.43571 0.0
C1738 C 0.09376 0.76967 0.42094 0.0
C1739 C 0.06757 0.75553 0.44501 0.0
C1740 C 0.09431 0.75321 0.45244 0.0
C1741 C 0.09435 0.73763 0.45128 0.0
C1742 C 0.10408 0.7337 0.46492 0.0
C1743 C 0.11422 0.74611 0.47997 0.0
C1744 C 0.11454 0.76227 0.4813 0.0
C1745 C 0.10429 0.76571 0.46742 0.0
H1746 H 0.31735 0.04042 0.74109 0.0
H1747 H 0.37123 0.07486 0.7226 0.0
H1748 H 0.37497 0.09486 0.751 0.0
H1749 H 0.30838 0.07459 0.7543 0.0
H1750 H 0.29482 0.06341 0.77626 0.0
H1751 H 0.29633 0.05105 0.75504 0.0
H1752 H 0.30599 0.03477 0.78025 0.0
H1753 H 0.30451 0.04708 0.80156 0.0
H1754 H 0.32463 0.04716 0.79678 0.0
H1755 H 0.3731 0.11157 0.7803 0.0
H1756 H 0.36543 0.12477 0.80886 0.0
H1757 H 0.31267 0.08017 0.80936 0.0
C1758 C 0.32994 0.05211 0.74317 0.0
C1759 C 0.34401 0.05606 0.72962 0.0
C1760 C 0.36024 0.07156 0.73271 0.0
C1761 C 0.36254 0.08301 0.74886 0.0
C1762 C 0.34846 0.07886 0.76184 0.0
C1763 C 0.33245 0.06386 0.75924 0.0
C1764 C 0.31938 0.06303 0.77512 0.0
C1765 C 0.30381 0.06302 0.76455 0.0
C1766 C 0.31327 0.04706 0.78927 0.0
C1767 C 0.33058 0.07994 0.78685 0.0
C1768 C 0.34733 0.08874 0.77894 0.0
C1769 C 0.36007 0.10475 0.7868 0.0
C1770 C 0.3556 0.11208 0.80317 0.0
C1771 C 0.33851 0.10344 0.81162 0.0
C1772 C 0.32584 0.08711 0.80328 0.0
H1773 H 0.96453 0.27733 0.74231 0.0
H1774 H 0.93615 0.30398 0.72643 0.0
H1775 H 0.91488 0.2881 0.75405 0.0
H1776 H 0.9269 0.23589 0.75261 0.0
H1777 H 0.93647 0.23062 0.77401 0.0
H1778 H 0.95022 0.24478 0.75374 0.0
H1779 H 0.96845 0.26871 0.78075 0.0
H1780 H 0.95478 0.25459 0.80112 0.0
H1781 H 0.95759 0.27611 0.79817 0.0
H1782 H 0.8961 0.26883 0.78212 0.0
H1783 H 0.88057 0.2469 0.80917 0.0
H1784 H 0.92078 0.2324 0.80758 0.0
C1785 C 0.95394 0.27993 0.74482 0.0
C1786 C 0.95201 0.29193 0.73226 0.0
C1787 C 0.93788 0.29484 0.73585 0.0
C1788 C 0.92573 0.28591 0.75153 0.0
C1789 C 0.92786 0.27406 0.7635 0.0
C1790 C 0.94157 0.27101 0.76041 0.0
C1791 C 0.94037 0.25708 0.7751 0.0
C1792 C 0.93837 0.24115 0.76315 0.0
C1793 C 0.95624 0.26458 0.78965 0.0
C1794 C 0.92377 0.25272 0.78674 0.0
C1795 C 0.91687 0.26278 0.77984 0.0
C1796 C 0.90145 0.26099 0.78783 0.0
C1797 C 0.89278 0.24855 0.80332 0.0
C1798 C 0.89952 0.23802 0.81072 0.0
C1799 C 0.91526 0.2402 0.80225 0.0
H1800 H 0.73212 0.68998 0.73225 0.0
H1801 H 0.68515 0.64212 0.74964 0.0
H1802 H 0.69977 0.64017 0.78102 0.0
H1803 H 0.76125 0.67613 0.74662 0.0
H1804 H 0.77813 0.69684 0.75647 0.0
H1805 H 0.76339 0.69619 0.73686 0.0
H1806 H 0.7547 0.71439 0.76022 0.0
H1807 H 0.76949 0.71516 0.77991 0.0
H1808 H 0.74679 0.70689 0.78601 0.0
H1809 H 0.71986 0.64116 0.808 0.0
H1810 H 0.7447 0.64527 0.82951 0.0
H1811 H 0.77928 0.6924 0.79557 0.0
C1812 C 0.72483 0.67941 0.74302 0.0
C1813 C 0.70746 0.66628 0.73865 0.0
C1814 C 0.69845 0.65234 0.75274 0.0
C1815 C 0.70662 0.65114 0.77066 0.0
C1816 C 0.72386 0.66398 0.77432 0.0
C1817 C 0.73291 0.67791 0.76101 0.0
C1818 C 0.75184 0.68898 0.76781 0.0
C1819 C 0.76439 0.68956 0.75094 0.0
C1820 C 0.75594 0.70745 0.77385 0.0
C1821 C 0.75205 0.67879 0.78659 0.0
C1822 C 0.73567 0.66453 0.79013 0.0
C1823 C 0.73269 0.65242 0.80562 0.0
C1824 C 0.74686 0.65481 0.8177 0.0
C1825 C 0.76379 0.66919 0.81427 0.0
C1826 C 0.76636 0.68149 0.79873 0.0
H1827 H 0.72932 0.68025 0.63465 0.0
H1828 H 0.69143 0.62479 0.63509 0.0
H1829 H 0.70678 0.62043 0.60569 0.0
H1830 H 0.73321 0.68464 0.57942 0.0
H1831 H 0.75625 0.7004 0.57999 0.0
H1832 H 0.74251 0.69901 0.60131 0.0
H1833 H 0.76256 0.69438 0.62661 0.0
H1834 H 0.77639 0.69584 0.60538 0.0
H1835 H 0.76703 0.67691 0.62192 0.0
H1836 H 0.72683 0.62224 0.57664 0.0
H1837 H 0.74971 0.6299 0.55035 0.0
H1838 H 0.77315 0.68457 0.56758 0.0
C1839 C 0.72431 0.66716 0.62867 0.0
C1840 C 0.70927 0.65282 0.63723 0.0
C1841 C 0.70298 0.63594 0.62879 0.0
C1842 C 0.71159 0.63335 0.61209 0.0
C1843 C 0.72634 0.64782 0.6039 0.0
C1844 C 0.7326 0.66439 0.61188 0.0
C1845 C 0.7485 0.6778 0.60012 0.0
C1846 C 0.74489 0.69125 0.58959 0.0
C1847 C 0.76457 0.68675 0.61436 0.0
C1848 C 0.75036 0.66616 0.58441 0.0
C1849 C 0.73748 0.64892 0.58683 0.0
C1850 C 0.73687 0.63573 0.57447 0.0
C1851 C 0.74987 0.64026 0.5594 0.0
C1852 C 0.76329 0.65788 0.55668 0.0
C1853 C 0.76327 0.67095 0.56928 0.0
H1854 H 0.36068 0.06453 0.61988 0.0
H1855 H 0.30682 0.04163 0.64028 0.0
H1856 H 0.30102 0.0569 0.61233 0.0
H1857 H 0.36655 0.10648 0.60677 0.0
H1858 H 0.37983 0.10943 0.58433 0.0
H1859 H 0.37975 0.09624 0.60554 0.0
H1860 H 0.37092 0.07023 0.58057 0.0
H1861 H 0.37094 0.08335 0.55927 0.0
H1862 H 0.35168 0.06268 0.56474 0.0
H1863 H 0.30108 0.07514 0.58319 0.0
H1864 H 0.3071 0.0958 0.55477 0.0
H1865 H 0.36076 0.10668 0.55213 0.0
C1866 C 0.34767 0.0627 0.61838 0.0
C1867 C 0.33419 0.05188 0.63226 0.0
C1868 C 0.31735 0.04985 0.62985 0.0
C1869 C 0.3139 0.05844 0.61399 0.0
C1870 C 0.32742 0.06902 0.60059 0.0
C1871 C 0.34397 0.07122 0.60257 0.0
C1872 C 0.35621 0.08369 0.58628 0.0
C1873 C 0.37149 0.09992 0.59634 0.0
C1874 C 0.36282 0.07443 0.57186 0.0
C1875 C 0.34396 0.08824 0.57504 0.0
C1876 C 0.32741 0.07954 0.58353 0.0
C1877 C 0.31393 0.08189 0.57623 0.0
C1878 C 0.31747 0.09358 0.55991 0.0
C1879 C 0.33436 0.10279 0.55093 0.0
C1880 C 0.34772 0.09992 0.55862 0.0
H1881 H 0.94292 0.30061 0.62342 0.0
H1882 H 0.96771 0.27014 0.63768 0.0
H1883 H 0.95148 0.24985 0.60943 0.0
H1884 H 0.90079 0.26389 0.61257 0.0
H1885 H 0.89577 0.27412 0.59168 0.0
H1886 H 0.91027 0.28729 0.61206 0.0
H1887 H 0.93421 0.30547 0.58509 0.0
H1888 H 0.91976 0.29237 0.5646 0.0
H1889 H 0.94105 0.29451 0.56708 0.0
H1890 H 0.93227 0.23227 0.58097 0.0
H1891 H 0.91005 0.21752 0.55401 0.0
H1892 H 0.89654 0.25838 0.55757 0.0
C1893 C 0.94505 0.28979 0.62036 0.0
C1894 C 0.95663 0.28699 0.63269 0.0
C1895 C 0.95888 0.27253 0.62847 0.0
C1896 C 0.94977 0.26094 0.6124 0.0
C1897 C 0.93831 0.26387 0.60069 0.0
C1898 C 0.93581 0.27785 0.60441 0.0
C1899 C 0.92193 0.27726 0.59002 0.0
C1900 C 0.90626 0.27554 0.60232 0.0
C1901 C 0.92971 0.29336 0.57585 0.0
C1902 C 0.91702 0.26072 0.57785 0.0
C1903 C 0.92681 0.25338 0.58421 0.0
C1904 C 0.92461 0.23796 0.57568 0.0
C1905 C 0.91201 0.22974 0.56025 0.0
C1906 C 0.90166 0.23686 0.55342 0.0
C1907 C 0.90424 0.2526 0.56242 0.0
H1908 H 0.33722 0.28989 0.61276 0.0
H1909 H 0.37436 0.29015 0.65676 0.0
H1910 H 0.38204 0.27386 0.63193 0.0
H1911 H 0.32117 0.24724 0.59498 0.0
H1912 H 0.31881 0.25168 0.56836 0.0
H1913 H 0.31751 0.26498 0.58855 0.0
H1914 H 0.34234 0.2928 0.57131 0.0
H1915 H 0.34361 0.27959 0.55092 0.0
H1916 H 0.36287 0.29398 0.56561 0.0
H1917 H 0.38338 0.25495 0.60405 0.0
H1918 H 0.37938 0.23584 0.57455 0.0
H1919 H 0.34223 0.24872 0.54757 0.0
C1920 C 0.34725 0.28686 0.61699 0.0
C1921 C 0.35527 0.29138 0.63668 0.0
C1922 C 0.36813 0.28692 0.64174 0.0
C1923 C 0.37257 0.27765 0.62773 0.0
C1924 C 0.36412 0.27303 0.60866 0.0
C1925 C 0.35186 0.27762 0.60316 0.0
C1926 C 0.34408 0.27027 0.5821 0.0
C1927 C 0.32422 0.25781 0.5836 0.0
C1928 C 0.3485 0.28504 0.56657 0.0
C1929 C 0.35357 0.26046 0.57686 0.0
C1930 C 0.36512 0.26231 0.59235 0.0
C1931 C 0.37466 0.25371 0.59161 0.0
C1932 C 0.37236 0.24294 0.57461 0.0
C1933 C 0.36067 0.24085 0.55835 0.0
C1934 C 0.35126 0.2499 0.5596 0.0
H1935 H 0.7352 0.05295 0.62779 0.0
H1936 H 0.69118 0.06178 0.6286 0.0
H1937 H 0.70388 0.08196 0.5989 0.0
H1938 H 0.76783 0.09597 0.61621 0.0
H1939 H 0.7801 0.0898 0.59942 0.0
H1940 H 0.76705 0.0754 0.61989 0.0
H1941 H 0.75043 0.05045 0.5934 0.0
H1942 H 0.7635 0.06476 0.57283 0.0
H1943 H 0.74 0.05401 0.57151 0.0
H1944 H 0.72281 0.10302 0.57086 0.0
H1945 H 0.74552 0.12218 0.54607 0.0
H1946 H 0.77613 0.09788 0.56228 0.0
C1947 C 0.72814 0.059 0.6216 0.0
C1948 C 0.71222 0.05585 0.63051 0.0
C1949 C 0.70336 0.06399 0.62196 0.0
C1950 C 0.71049 0.07547 0.60512 0.0
C1951 C 0.72634 0.07847 0.59686 0.0
C1952 C 0.73494 0.0703 0.6047 0.0
C1953 C 0.75192 0.07592 0.59333 0.0
C1954 C 0.76765 0.0848 0.6081 0.0
C1955 C 0.75142 0.06035 0.5821 0.0
C1956 C 0.75177 0.08885 0.57816 0.0
C1957 C 0.73692 0.09014 0.5804 0.0
C1958 C 0.73434 0.10189 0.56875 0.0
C1959 C 0.74732 0.11266 0.55455 0.0
C1960 C 0.7627 0.11159 0.55196 0.0
C1961 C 0.7647 0.09928 0.56387 0.0
H1962 H 0.93803 0.64848 0.63032 0.0
H1963 H 0.98006 0.70242 0.62729 0.0
H1964 H 0.96572 0.70756 0.59775 0.0
H1965 H 0.92999 0.64198 0.57409 0.0
H1966 H 0.90662 0.62894 0.5771 0.0
H1967 H 0.92087 0.62883 0.59693 0.0
H1968 H 0.90537 0.63787 0.62411 0.0
H1969 H 0.89108 0.63799 0.60439 0.0
H1970 H 0.90391 0.65723 0.61986 0.0
H1971 H 0.94634 0.70773 0.57043 0.0
H1972 H 0.92233 0.70303 0.54704 0.0
H1973 H 0.89228 0.64912 0.5672 0.0
C1974 C 0.9443 0.66127 0.6232 0.0
C1975 C 0.96019 0.67504 0.63105 0.0
C1976 C 0.96789 0.69168 0.62155 0.0
C1977 C 0.95988 0.69472 0.60469 0.0
C1978 C 0.94416 0.681 0.59746 0.0
C1979 C 0.93638 0.66459 0.60634 0.0
C1980 C 0.91887 0.65251 0.59625 0.0
C1981 C 0.91911 0.63715 0.58545 0.0
C1982 C 0.90393 0.64602 0.6121 0.0
C1983 C 0.91792 0.66482 0.58066 0.0
C1984 C 0.93277 0.68113 0.58154 0.0
C1985 C 0.93471 0.69499 0.56944 0.0
C1986 C 0.921 0.69222 0.55628 0.0
C1987 C 0.90551 0.67573 0.55533 0.0
C1988 C 0.9041 0.66177 0.56742 0.0
H1989 H 0.93953 0.65214 0.73488 0.0
H1990 H 0.97611 0.70767 0.72869 0.0
H1991 H 0.9602 0.71381 0.75573 0.0
H1992 H 0.90108 0.65506 0.74339 0.0
H1993 H 0.8919 0.63781 0.76232 0.0
H1994 H 0.90616 0.63771 0.74251 0.0
H1995 H 0.92635 0.63629 0.77051 0.0
H1996 H 0.91212 0.63635 0.79041 0.0
H1997 H 0.93502 0.65262 0.79058 0.0
H1998 H 0.93964 0.71402 0.78212 0.0
H1999 H 0.91667 0.70837 0.8074 0.0
H2000 H 0.89453 0.65249 0.79849 0.0
C2001 C 0.94418 0.66559 0.73924 0.0
C2002 C 0.959 0.67946 0.72965 0.0
C2003 C 0.96478 0.69686 0.73585 0.0
C2004 C 0.95583 0.70048 0.75117 0.0
C2005 C 0.94124 0.68653 0.76029 0.0
C2006 C 0.93552 0.66942 0.75471 0.0
C2007 C 0.9196 0.65685 0.76715 0.0
C2008 C 0.90375 0.64624 0.75299 0.0
C2009 C 0.92351 0.64482 0.78045 0.0
C2010 C 0.91714 0.66959 0.78041 0.0
C2011 C 0.92973 0.68663 0.77612 0.0
C2012 C 0.92986 0.70071 0.78585 0.0
C2013 C 0.91679 0.69733 0.80039 0.0
C2014 C 0.90381 0.67994 0.80533 0.0
C2015 C 0.90412 0.66594 0.79512 0.0
H2016 H 0.3405 0.2864 0.75003 0.0
H2017 H 0.29879 0.24976 0.70997 0.0
H2018 H 0.2914 0.22623 0.73533 0.0
H2019 H 0.35455 0.25718 0.7668 0.0
H2020 H 0.35923 0.26532 0.79292 0.0
H2021 H 0.36071 0.27954 0.77216 0.0
H2022 H 0.33892 0.28621 0.79115 0.0
H2023 H 0.3374 0.27204 0.812 0.0
H2024 H 0.31789 0.26843 0.79886 0.0
H2025 H 0.28953 0.20644 0.76397 0.0
H2026 H 0.29305 0.19157 0.79409 0.0
H2027 H 0.33542 0.24115 0.8164 0.0
C2028 C 0.32971 0.27345 0.74669 0.0
C2029 C 0.32018 0.2699 0.72805 0.0
C2030 C 0.30624 0.25278 0.72417 0.0
C2031 C 0.30194 0.23934 0.73848 0.0
C2032 C 0.31167 0.24324 0.75663 0.0
C2033 C 0.32523 0.25987 0.76083 0.0
C2034 C 0.33391 0.26043 0.78125 0.0
C2035 C 0.35324 0.26594 0.77808 0.0
C2036 C 0.3319 0.27249 0.79673 0.0
C2037 C 0.32323 0.24145 0.78773 0.0
C2038 C 0.31045 0.2318 0.77333 0.0
C2039 C 0.29933 0.2139 0.77551 0.0
C2040 C 0.30136 0.20559 0.79283 0.0
C2041 C 0.31438 0.21516 0.8079 0.0
C2042 C 0.32537 0.23339 0.80524 0.0
H2043 H 0.73629 0.04764 0.74188 0.0
H2044 H 0.71351 0.07868 0.72174 0.0
H2045 H 0.72854 0.09948 0.7501 0.0
H2046 H 0.73369 0.05373 0.79667 0.0
H2047 H 0.75434 0.05526 0.80254 0.0
H2048 H 0.74173 0.04258 0.78069 0.0
H2049 H 0.7682 0.06058 0.75658 0.0
H2050 H 0.7809 0.07324 0.77837 0.0
H2051 H 0.77833 0.08404 0.75619 0.0
H2052 H 0.74581 0.1169 0.78041 0.0
H2053 H 0.76556 0.1308 0.80992 0.0
H2054 H 0.77729 0.08865 0.81104 0.0
C2055 C 0.73452 0.05885 0.74343 0.0
C2056 C 0.72372 0.06154 0.72959 0.0
C2057 C 0.72173 0.07635 0.73212 0.0
C2058 C 0.73017 0.08823 0.74823 0.0
C2059 C 0.74061 0.08516 0.76169 0.0
C2060 C 0.74292 0.07091 0.75945 0.0
C2061 C 0.7551 0.07089 0.77594 0.0
C2062 C 0.74565 0.05465 0.78978 0.0
C2063 C 0.77161 0.07228 0.76618 0.0
C2064 C 0.7593 0.08738 0.78771 0.0
C2065 C 0.75069 0.09532 0.77927 0.0
C2066 C 0.75256 0.11077 0.78725 0.0
C2067 C 0.76371 0.11849 0.80417 0.0
C2068 C 0.7729 0.11078 0.81299 0.0
C2069 C 0.77051 0.09492 0.80465 0.0
H2070 H 0.06203 0.36794 0.04744 0.0
H2071 H 0.01645 0.31592 0.04912 0.0
H2072 H 0.03343 0.30512 0.06781 0.0
H2073 H 0.09454 0.35423 0.04089 0.0
H2074 H 0.11037 0.3712 0.05741 0.0
H2075 H 0.09495 0.37475 0.0431 0.0
H2076 H 0.08471 0.38225 0.07713 0.0
H2077 H 0.10002 0.37863 0.09156 0.0
H2078 H 0.07713 0.36678 0.09812 0.0
H2079 H 0.0547 0.30005 0.08736 0.0
H2080 H 0.07921 0.30096 0.10655 0.0
H2081 H 0.11132 0.35619 0.09259 0.0
C2082 C 0.05572 0.35424 0.05152 0.0
C2083 C 0.03793 0.34274 0.04675 0.0
C2084 C 0.03006 0.32496 0.05259 0.0
C2085 C 0.0396 0.31869 0.0632 0.0
C2086 C 0.05701 0.33036 0.06793 0.0
C2087 C 0.06505 0.34775 0.06228 0.0
C2088 C 0.0838 0.3576 0.06995 0.0
C2089 C 0.09667 0.36487 0.05175 0.0
C2090 C 0.08657 0.37217 0.08509 0.0
C2091 C 0.08493 0.34304 0.0809 0.0
C2092 C 0.06934 0.32744 0.07943 0.0
C2093 C 0.06704 0.31215 0.08848 0.0
C2094 C 0.08108 0.31279 0.09927 0.0
C2095 C 0.09725 0.3286 0.10099 0.0
C2096 C 0.09911 0.34392 0.09167 0.0
H2097 H 0.65101 0.70673 0.02753 0.0
H2098 H 0.67134 0.68338 0.07017 0.0
H2099 H 0.67901 0.70741 0.09479 0.0
H2100 H 0.68396 0.75198 0.03832 0.0
H2101 H 0.66873 0.75983 0.03627 0.0
H2102 H 0.66517 0.74098 0.02165 0.0
H2103 H 0.63433 0.72294 0.03779 0.0
H2104 H 0.63782 0.7417 0.05252 0.0
H2105 H 0.63204 0.72151 0.06551 0.0
H2106 H 0.68323 0.73299 0.11548 0.0
H2107 H 0.68468 0.7592 0.13061 0.0
H2108 H 0.66289 0.76704 0.07417 0.0
C2109 C 0.65717 0.70676 0.042 0.0
C2110 C 0.66058 0.69318 0.04693 0.0
C2111 C 0.66863 0.69365 0.06603 0.0
C2112 C 0.67303 0.70724 0.08014 0.0
C2113 C 0.6694 0.72034 0.07491 0.0
C2114 C 0.66176 0.72032 0.05627 0.0
C2115 C 0.65917 0.73598 0.05463 0.0
C2116 C 0.6699 0.7479 0.03665 0.0
C2117 C 0.63968 0.73018 0.05249 0.0
C2118 C 0.66637 0.74466 0.07534 0.0
C2119 C 0.67218 0.7354 0.08676 0.0
C2120 C 0.67894 0.74051 0.10659 0.0
C2121 C 0.67983 0.75553 0.11499 0.0
C2122 C 0.67412 0.76542 0.10356 0.0
C2123 C 0.66731 0.75981 0.08342 0.0
H2124 H 0.31065 0.96715 0.06904 0.0
H2125 H 0.29936 0.94581 0.0069 0.0
H2126 H 0.27103 0.92152 0.01888 0.0
H2127 H 0.29226 0.92635 0.09555 0.0
H2128 H 0.28344 0.93296 0.11652 0.0
H2129 H 0.30257 0.94902 0.10297 0.0
H2130 H 0.28711 0.96665 0.09494 0.0
H2131 H 0.26791 0.95064 0.10848 0.0
H2132 H 0.26621 0.95604 0.08206 0.0
H2133 H 0.24446 0.89908 0.03771 0.0
H2134 H 0.22113 0.88011 0.06207 0.0
H2135 H 0.24945 0.91592 0.11211 0.0
C2136 C 0.30216 0.95742 0.05793 0.0
C2137 C 0.3072 0.95837 0.03701 0.0
C2138 C 0.29576 0.94536 0.02298 0.0
C2139 C 0.27964 0.93152 0.02964 0.0
C2140 C 0.27511 0.9309 0.05037 0.0
C2141 C 0.28599 0.94352 0.06432 0.0
C2142 C 0.27809 0.93959 0.08582 0.0
C2143 C 0.28979 0.93682 0.10111 0.0
C2144 C 0.27463 0.95409 0.09326 0.0
C2145 C 0.26114 0.92272 0.0818 0.0
C2146 C 0.2597 0.91796 0.06124 0.0
C2147 C 0.24542 0.90269 0.05384 0.0
C2148 C 0.23229 0.89195 0.06782 0.0
C2149 C 0.23347 0.89649 0.089 0.0
C2150 C 0.24808 0.91218 0.09598 0.0
H2151 H 0.34001 0.02795 0.96503 0.0
H2152 H 0.35316 0.05091 0.02633 0.0
H2153 H 0.35045 0.07584 0.01404 0.0
H2154 H 0.36359 0.06766 0.93708 0.0
H2155 H 0.34766 0.06149 0.91671 0.0
H2156 H 0.34974 0.04495 0.93049 0.0
H2157 H 0.31685 0.0294 0.9399 0.0
H2158 H 0.31465 0.04587 0.92609 0.0
H2159 H 0.30817 0.04148 0.95281 0.0
H2160 H 0.34774 0.0989 0.99487 0.0
H2161 H 0.34443 0.1183 0.97022 0.0
H2162 H 0.33288 0.08051 0.92124 0.0
C2163 C 0.34213 0.03814 0.97591 0.0
C2164 C 0.34676 0.03748 0.99667 0.0
C2165 C 0.34956 0.05112 0.01039 0.0
C2166 C 0.34805 0.06534 1.00355 0.0
C2167 C 0.34367 0.0657 0.98296 0.0
C2168 C 0.34065 0.05244 0.96934 0.0
C2169 C 0.33652 0.05627 0.94789 0.0
C2170 C 0.3502 0.05768 0.93212 0.0
C2171 C 0.31794 0.04243 0.94129 0.0
C2172 C 0.33788 0.07383 0.95153 0.0
C2173 C 0.34201 0.07901 0.97189 0.0
C2174 C 0.34444 0.09496 0.97891 0.0
C2175 C 0.34264 0.10594 0.96476 0.0
C2176 C 0.33843 0.10095 0.94381 0.0
C2177 C 0.33592 0.0846 0.9372 0.0
H2178 H 0.9514 0.30634 1.00155 0.0
H2179 H 0.99296 0.32935 0.95598 0.0
H2180 H 0.97505 0.30553 0.93173 0.0
H2181 H 0.93854 0.26165 0.99044 0.0
H2182 H 0.91552 0.25352 0.99413 0.0
H2183 H 0.93134 0.27267 0.00788 0.0
H2184 H 0.91751 0.29017 0.99305 0.0
H2185 H 0.90164 0.27106 0.97925 0.0
H2186 H 0.91524 0.29109 0.96547 0.0
H2187 H 0.95301 0.27941 0.91242 0.0
H2188 H 0.92808 0.25221 0.89921 0.0
H2189 H 0.90084 0.2452 0.95739 0.0
C2190 C 0.95666 0.30639 0.98642 0.0
C2191 C 0.97356 0.31973 0.98063 0.0
C2192 C 0.98005 0.31928 0.96076 0.0
C2193 C 0.96997 0.30581 0.94685 0.0
C2194 C 0.95343 0.29281 0.95303 0.0
C2195 C 0.94678 0.29293 0.97232 0.0
C2196 C 0.9287 0.27712 0.97512 0.0
C2197 C 0.92852 0.26556 0.99295 0.0
C2198 C 0.91496 0.2827 0.97841 0.0
C2199 C 0.92629 0.26815 0.95439 0.0
C2200 C 0.94072 0.27749 0.94191 0.0
C2201 C 0.94165 0.27192 0.92208 0.0
C2202 C 0.92746 0.25635 0.91478 0.0
C2203 C 0.91252 0.24642 0.92729 0.0
C2204 C 0.91199 0.25252 0.94737 0.0
H2205 H 0.69067 0.638 0.98163 0.0
H2206 H 0.69954 0.6908 0.97747 0.0
H2207 H 0.72735 0.70013 0.95936 0.0
H2208 H 0.73627 0.6499 0.98919 0.0
H2209 H 0.73453 0.63231 0.97339 0.0
H2210 H 0.71566 0.62982 0.98706 0.0
H2211 H 0.6984 0.62237 0.95267 0.0
H2212 H 0.71723 0.6249 0.93888 0.0
H2213 H 0.70716 0.63742 0.93132 0.0
H2214 H 0.75371 0.70381 0.94114 0.0
H2215 H 0.777 0.70146 0.92307 0.0
H2216 H 0.75128 0.64626 0.93807 0.0
C2217 C 0.69859 0.65155 0.97709 0.0
C2218 C 0.69299 0.6637 0.98104 0.0
C2219 C 0.70357 0.68126 0.97461 0.0
C2220 C 0.71941 0.68671 0.96434 0.0
C2221 C 0.72449 0.67443 0.96047 0.0
C2222 C 0.71443 0.6572 0.96657 0.0
C2223 C 0.72272 0.64659 0.95972 0.0
C2224 C 0.72759 0.63922 0.97846 0.0
C2225 C 0.71065 0.63196 0.94476 0.0
C2226 C 0.73891 0.66053 0.94876 0.0
C2227 C 0.73969 0.67651 0.94955 0.0
C2228 C 0.75331 0.6914 0.9405 0.0
C2229 C 0.76652 0.68995 0.93036 0.0
C2230 C 0.76603 0.67372 0.92924 0.0
C2231 C 0.75197 0.65882 0.93857 0.0
H2232 H 0.9613 0.66962 0.98851 0.0
H2233 H 0.94821 0.61712 0.97093 0.0
H2234 H 0.92478 0.61498 0.9482 0.0
H2235 H 0.91618 0.66008 0.99061 0.0
H2236 H 0.92126 0.68122 0.98097 0.0
H2237 H 0.93739 0.67887 0.99538 0.0
H2238 H 0.95925 0.69271 0.96508 0.0
H2239 H 0.94314 0.69498 0.95052 0.0
H2240 H 0.95306 0.68327 0.93963 0.0
H2241 H 0.90428 0.61925 0.92571 0.0
H2242 H 0.88536 0.62795 0.90799 0.0
H2243 H 0.90891 0.67631 0.94339 0.0
C2244 C 0.95346 0.6577 0.97985 0.0
C2245 C 0.95659 0.64355 0.98133 0.0
C2246 C 0.94597 0.62807 0.97002 0.0
C2247 C 0.9327 0.62677 0.95701 0.0
C2248 C 0.92998 0.64094 0.95579 0.0
C2249 C 0.93981 0.65599 0.96717 0.0
C2250 C 0.93356 0.66894 0.96367 0.0
C2251 C 0.92669 0.67248 0.98386 0.0
C2252 C 0.94812 0.68598 0.95416 0.0
C2253 C 0.91886 0.65889 0.94835 0.0
C2254 C 0.91721 0.64288 0.94385 0.0
C2255 C 0.90516 0.63159 0.92946 0.0
C2256 C 0.89428 0.63663 0.91961 0.0
C2257 C 0.89512 0.65271 0.92447 0.0
C2258 C 0.90776 0.66397 0.93906 0.0
H2259 H 0.33735 0.30587 0.96725 0.0
H2260 H 0.3608 0.3003 0.02353 0.0
H2261 H 0.35893 0.27345 0.00971 0.0
H2262 H 0.30723 0.25927 0.95898 0.0
H2263 H 0.30979 0.26075 0.9313 0.0
H2264 H 0.31228 0.27923 0.94586 0.0
H2265 H 0.34311 0.29849 0.93016 0.0
H2266 H 0.34073 0.28008 0.91559 0.0
H2267 H 0.35916 0.29173 0.93261 0.0
H2268 H 0.35565 0.24801 0.98963 0.0
H2269 H 0.35083 0.2251 0.9645 0.0
H2270 H 0.32947 0.2467 0.92082 0.0
C2271 C 0.34193 0.29889 0.97672 0.0
C2272 C 0.34919 0.30516 0.99651 0.0
C2273 C 0.35517 0.29574 0.00836 0.0
C2274 C 0.35415 0.28046 1.00065 0.0
C2275 C 0.34708 0.27471 0.98106 0.0
C2276 C 0.34101 0.28356 0.96923 0.0
C2277 C 0.33439 0.27469 0.94844 0.0
C2278 C 0.31476 0.2681 0.94601 0.0
C2279 C 0.34498 0.28698 0.93065 0.0
C2280 C 0.33787 0.25961 0.95039 0.0
C2281 C 0.34517 0.2599 0.96937 0.0
C2282 C 0.34992 0.24762 0.97472 0.0
C2283 C 0.34724 0.23472 0.96028 0.0
C2284 C 0.33988 0.23415 0.94064 0.0
C2285 C 0.335 0.24671 0.93575 0.0
H2286 H 0.69974 0.03484 0.96902 0.0
H2287 H 0.70477 0.06057 0.0278 0.0
H2288 H 0.7318 0.08646 0.01537 0.0
H2289 H 0.74602 0.05175 0.96002 0.0
H2290 H 0.74443 0.05434 0.93263 0.0
H2291 H 0.72598 0.03757 0.94651 0.0
H2292 H 0.7067 0.04995 0.93324 0.0
H2293 H 0.72508 0.06675 0.91933 0.0
H2294 H 0.71356 0.0726 0.93772 0.0
H2295 H 0.7579 0.10969 0.99627 0.0
H2296 H 0.78092 0.1289 0.97178 0.0
H2297 H 0.75827 0.08834 0.92495 0.0
C2298 C 0.70662 0.04585 0.97936 0.0
C2299 C 0.70023 0.04568 0.99943 0.0
C2300 C 0.70947 0.06043 0.01239 0.0
C2301 C 0.72484 0.07517 0.00547 0.0
C2302 C 0.73072 0.07495 0.98554 0.0
C2303 C 0.72189 0.0607 0.97265 0.0
C2304 C 0.73062 0.06403 0.95168 0.0
C2305 C 0.73715 0.05116 0.94747 0.0
C2306 C 0.71826 0.06329 0.93448 0.0
C2307 C 0.74572 0.08244 0.95474 0.0
C2308 C 0.74558 0.08845 0.97441 0.0
C2309 C 0.75811 0.10514 0.98081 0.0
C2310 C 0.77107 0.116 0.96671 0.0
C2311 C 0.77138 0.11022 0.94635 0.0
C2312 C 0.75854 0.09313 0.94043 0.0
H2313 H 0.64319 0.94664 0.04163 0.0
H2314 H 0.69694 0.98866 0.03717 0.0
H2315 H 0.70687 0.9701 0.05407 0.0
H2316 H 0.64735 0.93416 0.09194 0.0
H2317 H 0.63284 0.91108 0.08814 0.0
H2318 H 0.63005 0.92661 0.0731 0.0
H2319 H 0.63237 0.91216 0.03933 0.0
H2320 H 0.63508 0.89651 0.05429 0.0
H2321 H 0.65116 0.90965 0.03517 0.0
H2322 H 0.71086 0.94765 0.07279 0.0
H2323 H 0.70873 0.92341 0.09361 0.0
H2324 H 0.65209 0.89688 0.08902 0.0
C2325 C 0.65706 0.95168 0.04372 0.0
C2326 C 0.66938 0.96891 0.03778 0.0
C2327 C 0.68738 0.9754 0.04143 0.0
C2328 C 0.69312 0.96496 0.05098 0.0
C2329 C 0.68065 0.94815 0.05708 0.0
C2330 C 0.66299 0.94155 0.05372 0.0
C2331 C 0.65226 0.9237 0.06357 0.0
C2332 C 0.6399 0.92391 0.08017 0.0
C2333 C 0.64212 0.90967 0.04711 0.0
C2334 C 0.66663 0.92139 0.07313 0.0
C2335 C 0.68291 0.93554 0.06893 0.0
C2336 C 0.69818 0.93652 0.07625 0.0
C2337 C 0.6968 0.92272 0.08829 0.0
C2338 C 0.68023 0.90819 0.09326 0.0
C2339 C 0.66499 0.9076 0.08539 0.0
H2340 H 0.05332 0.69225 0.04493 0.0
H2341 H 0.00895 0.70056 0.04522 0.0
H2342 H 0.02628 0.72799 0.06469 0.0
H2343 H 0.06751 0.70769 0.09651 0.0
H2344 H 0.09049 0.71795 0.09063 0.0
H2345 H 0.07495 0.69934 0.07585 0.0
H2346 H 0.08655 0.71717 0.04205 0.0
H2347 H 0.10218 0.73581 0.05672 0.0
H2348 H 0.08716 0.73777 0.03964 0.0
H2349 H 0.04822 0.75438 0.08426 0.0
H2350 H 0.07319 0.77772 0.10337 0.0
H2351 H 0.10326 0.75211 0.09152 0.0
C2352 C 0.04733 0.69994 0.04893 0.0
C2353 C 0.02981 0.69432 0.04344 0.0
C2354 C 0.02235 0.70462 0.04921 0.0
C2355 C 0.0321 0.72023 0.06027 0.0
C2356 C 0.04927 0.72534 0.0656 0.0
C2357 C 0.05684 0.7155 0.0602 0.0
C2358 C 0.07538 0.72372 0.06844 0.0
C2359 C 0.07718 0.71144 0.08377 0.0
C2360 C 0.0886 0.72893 0.05065 0.0
C2361 C 0.07702 0.73969 0.0793 0.0
C2362 C 0.06183 0.7404 0.07735 0.0
C2363 C 0.0602 0.75397 0.08587 0.0
C2364 C 0.07447 0.76721 0.09663 0.0
C2365 C 0.09019 0.76677 0.09893 0.0
C2366 C 0.09138 0.75273 0.09019 0.0
H2367 H 0.30945 0.36124 0.04798 0.0
H2368 H 0.3028 0.30935 0.05302 0.0
H2369 H 0.27509 0.29934 0.0718 0.0
H2370 H 0.29349 0.36207 0.0985 0.0
H2371 H 0.28264 0.37381 0.09077 0.0
H2372 H 0.30153 0.37675 0.07675 0.0
H2373 H 0.28374 0.36815 0.04269 0.0
H2374 H 0.2648 0.36522 0.0566 0.0
H2375 H 0.26351 0.34764 0.04118 0.0
H2376 H 0.24831 0.29497 0.09031 0.0
H2377 H 0.22469 0.29679 0.10843 0.0
H2378 H 0.2489 0.35166 0.09235 0.0
C2379 C 0.30207 0.34774 0.05289 0.0
C2380 C 0.30823 0.33604 0.04896 0.0
C2381 C 0.29832 0.31853 0.05584 0.0
C2382 C 0.28255 0.31272 0.06649 0.0
C2383 C 0.27688 0.32459 0.07026 0.0
C2384 C 0.28635 0.34175 0.06374 0.0
C2385 C 0.2776 0.35196 0.07045 0.0
C2386 C 0.28953 0.36704 0.08498 0.0
C2387 C 0.27208 0.35863 0.05161 0.0
C2388 C 0.26182 0.33787 0.08183 0.0
C2389 C 0.26159 0.32215 0.08137 0.0
C2390 C 0.24832 0.3072 0.09074 0.0
C2391 C 0.23491 0.30834 0.10091 0.0
C2392 C 0.23492 0.32434 0.10178 0.0
C2393 C 0.2486 0.33928 0.09209 0.0
H2394 H 0.70086 0.66914 0.39253 0.0
H2395 H 0.73212 0.71925 0.36244 0.0
H2396 H 0.75873 0.72215 0.37887 0.0
H2397 H 0.72396 0.67979 0.44032 0.0
H2398 H 0.72226 0.65875 0.44343 0.0
H2399 H 0.70577 0.66059 0.4292 0.0
H2400 H 0.71093 0.64581 0.39753 0.0
H2401 H 0.72742 0.64388 0.41169 0.0
H2402 H 0.73266 0.65484 0.38706 0.0
H2403 H 0.78164 0.72026 0.40025 0.0
H2404 H 0.79949 0.7127 0.4228 0.0
H2405 H 0.75355 0.66307 0.43727 0.0
C2406 C 0.71332 0.6807 0.38936 0.0
C2407 C 0.71445 0.69403 0.37629 0.0
C2408 C 0.73098 0.70889 0.37238 0.0
C2409 C 0.74614 0.71066 0.38168 0.0
C2410 C 0.74456 0.69734 0.39461 0.0
C2411 C 0.72859 0.68254 0.39824 0.0
C2412 C 0.73047 0.67001 0.41252 0.0
C2413 C 0.71999 0.66712 0.43255 0.0
C2414 C 0.72505 0.65261 0.40154 0.0
C2415 C 0.74996 0.68014 0.41658 0.0
C2416 C 0.75783 0.69593 0.40623 0.0
C2417 C 0.77564 0.70786 0.40825 0.0
C2418 C 0.78565 0.7035 0.42113 0.0
C2419 C 0.77789 0.68729 0.43162 0.0
C2420 C 0.75983 0.67545 0.42921 0.0
H2421 H 0.33335 0.02957 0.39531 0.0
H2422 H 0.30497 0.02998 0.34086 0.0
H2423 H 0.30577 0.05675 0.35362 0.0
H2424 H 0.31129 0.04289 0.43078 0.0
H2425 H 0.33037 0.05602 0.44638 0.0
H2426 H 0.32841 0.03751 0.43242 0.0
H2427 H 0.35808 0.05745 0.41444 0.0
H2428 H 0.36014 0.07603 0.42836 0.0
H2429 H 0.36128 0.07649 0.40055 0.0
H2430 H 0.30954 0.08339 0.37253 0.0
H2431 H 0.31513 0.10733 0.39642 0.0
H2432 H 0.33962 0.08856 0.43959 0.0
C2433 C 0.32747 0.03541 0.38596 0.0
C2434 C 0.31921 0.02779 0.36698 0.0
C2435 C 0.31142 0.03564 0.35538 0.0
C2436 C 0.31183 0.05085 0.3625 0.0
C2437 C 0.31996 0.05796 0.38135 0.0
C2438 C 0.32758 0.05046 0.39296 0.0
C2439 C 0.33486 0.06028 0.41307 0.0
C2440 C 0.32568 0.04847 0.43176 0.0
C2441 C 0.35477 0.06802 0.41416 0.0
C2442 C 0.33016 0.07449 0.41097 0.0
C2443 C 0.32166 0.07298 0.39251 0.0
C2444 C 0.31608 0.08462 0.38709 0.0
C2445 C 0.3192 0.09813 0.40089 0.0
C2446 C 0.3277 0.09986 0.42009 0.0
C2447 C 0.33326 0.08781 0.42503 0.0
H2448 H 0.9666 0.28466 0.36319 0.0
H2449 H 0.98157 0.33069 0.40084 0.0
H2450 H 0.95588 0.31386 0.42292 0.0
H2451 H 0.9189 0.26722 0.36679 0.0
H2452 H 0.91388 0.24483 0.36816 0.0
H2453 H 0.93295 0.26069 0.35428 0.0
H2454 H 0.95232 0.25278 0.37656 0.0
H2455 H 0.93335 0.23701 0.39061 0.0
H2456 H 0.9517 0.25413 0.40431 0.0
H2457 H 0.93049 0.292 0.44275 0.0
H2458 H 0.90532 0.26651 0.4582 0.0
H2459 H 0.90489 0.2343 0.40715 0.0
C2460 C 0.96427 0.29122 0.37587 0.0
C2461 C 0.97613 0.30902 0.38025 0.0
C2462 C 0.97272 0.31709 0.39714 0.0
C2463 C 0.95814 0.30764 0.40981 0.0
C2464 C 0.94693 0.29009 0.40539 0.0
C2465 C 0.94963 0.28193 0.38875 0.0
C2466 C 0.93562 0.26275 0.38795 0.0
C2467 C 0.92469 0.25864 0.36812 0.0
C2468 C 0.94374 0.25098 0.38998 0.0
C2469 C 0.92491 0.26144 0.40694 0.0
C2470 C 0.93174 0.27741 0.4167 0.0
C2471 C 0.92476 0.27948 0.43503 0.0
C2472 C 0.9103 0.26486 0.44361 0.0
C2473 C 0.90271 0.2483 0.4338 0.0
C2474 C 0.91025 0.24668 0.41515 0.0
H2475 H 0.00611 0.3683 0.30357 0.0
H2476 H 0.03457 0.3976 0.35782 0.0
H2477 H 0.03381 0.42346 0.34471 0.0
H2478 H 0.02795 0.40325 0.2677 0.0
H2479 H 0.00879 0.39716 0.25222 0.0
H2480 H 0.01078 0.38073 0.26637 0.0
H2481 H 0.98122 0.37122 0.28454 0.0
H2482 H 0.97913 0.38762 0.27043 0.0
H2483 H 0.97817 0.38723 0.29826 0.0
H2484 H 0.03039 0.44622 0.32539 0.0
H2485 H 0.02506 0.46448 0.30109 0.0
H2486 H 0.99974 0.42063 0.25874 0.0
C2487 C 0.01203 0.38011 0.3128 0.0
C2488 C 0.02031 0.38093 0.33179 0.0
C2489 C 0.02811 0.39668 0.34327 0.0
C2490 C 0.02773 0.41141 0.33596 0.0
C2491 C 0.01957 0.4102 0.3171 0.0
C2492 C 0.01188 0.39496 0.30566 0.0
C2493 C 0.0045 0.39728 0.28555 0.0
C2494 C 0.01355 0.39444 0.26686 0.0
C2495 C 0.98457 0.38512 0.28465 0.0
C2496 C 0.00927 0.41623 0.28743 0.0
C2497 C 0.01788 0.42341 0.30579 0.0
C2498 C 0.02371 0.44075 0.31094 0.0
C2499 C 0.02073 0.45106 0.29694 0.0
C2500 C 0.01209 0.44408 0.27788 0.0
C2501 C 0.00622 0.42636 0.27322 0.0
H2502 H 0.61532 0.64175 0.32526 0.0
H2503 H 0.6585 0.63198 0.3313 0.0
H2504 H 0.64138 0.60389 0.31283 0.0
H2505 H 0.57938 0.59633 0.32937 0.0
H2506 H 0.56647 0.59914 0.30985 0.0
H2507 H 0.58128 0.6174 0.32564 0.0
H2508 H 0.59641 0.63521 0.29268 0.0
H2509 H 0.58172 0.617 0.27681 0.0
H2510 H 0.60501 0.62637 0.27397 0.0
H2511 H 0.61992 0.57736 0.2928 0.0
H2512 H 0.59643 0.55499 0.27125 0.0
H2513 H 0.56835 0.58355 0.27523 0.0
C2514 C 0.62096 0.63346 0.32313 0.0
C2515 C 0.63807 0.6388 0.33001 0.0
C2516 C 0.64532 0.62797 0.32632 0.0
C2517 C 0.6357 0.61201 0.31587 0.0
C2518 C 0.61895 0.60723 0.30893 0.0
C2519 C 0.61168 0.61768 0.31229 0.0
C2520 C 0.59407 0.61024 0.3017 0.0
C2521 C 0.57944 0.6055 0.31759 0.0
C2522 C 0.59433 0.62296 0.28532 0.0
C2523 C 0.59262 0.59403 0.2918 0.0
C2524 C 0.607 0.59243 0.29638 0.0
C2525 C 0.60863 0.57853 0.289 0.0
C2526 C 0.59525 0.56596 0.27653 0.0
C2527 C 0.58047 0.56745 0.2712 0.0
C2528 C 0.57926 0.58175 0.2791 0.0
H2529 H 0.37434 0.01108 0.31497 0.0
H2530 H 0.34637 0.95501 0.32473 0.0
H2531 H 0.36848 0.95244 0.30435 0.0
H2532 H 0.3896 0.0112 0.26313 0.0
H2533 H 0.41098 0.02998 0.26705 0.0
H2534 H 0.3926 0.02767 0.28171 0.0
H2535 H 0.40907 0.03038 0.31584 0.0
H2536 H 0.42754 0.03285 0.30128 0.0
H2537 H 0.41752 0.0159 0.32048 0.0
H2538 H 0.39215 0.95541 0.28153 0.0
H2539 H 0.41882 0.96403 0.26165 0.0
H2540 H 0.43425 0.01871 0.26975 0.0
C2541 C 0.37296 0.99832 0.31277 0.0
C2542 C 0.35863 0.98322 0.32132 0.0
C2543 C 0.35729 0.96674 0.31838 0.0
C2544 C 0.36971 0.96512 0.30671 0.0
C2545 C 0.38362 0.98017 0.29839 0.0
C2546 C 0.38559 0.99651 0.30157 0.0
C2547 C 0.40245 0.01057 0.29182 0.0
C2548 C 0.39868 0.02044 0.27492 0.0
C2549 C 0.41488 0.02317 0.30834 0.0
C2550 C 0.40949 0.99951 0.28261 0.0
C2551 C 0.39819 0.982 0.28633 0.0
C2552 C 0.40134 0.96911 0.27888 0.0
C2553 C 0.4167 0.9742 0.26774 0.0
C2554 C 0.4291 0.99212 0.26453 0.0
C2555 C 0.42519 0.00491 0.27186 0.0
H2556 H 0.63845 0.00821 0.32258 0.0
H2557 H 0.61235 0.95174 0.32787 0.0
H2558 H 0.58702 0.94917 0.30888 0.0
H2559 H 0.59898 0.01149 0.32889 0.0
H2560 H 0.60602 0.02908 0.31055 0.0
H2561 H 0.62197 0.02659 0.32518 0.0
H2562 H 0.63685 0.02561 0.29111 0.0
H2563 H 0.62085 0.02794 0.27639 0.0
H2564 H 0.62409 0.00968 0.27165 0.0
H2565 H 0.56546 0.95242 0.28749 0.0
H2566 H 0.54776 0.96131 0.26716 0.0
H2567 H 0.58672 0.01584 0.27706 0.0
C2568 C 0.62731 0.99533 0.31993 0.0
C2569 C 0.62738 0.98016 0.32672 0.0
C2570 C 0.61259 0.96354 0.32288 0.0
C2571 C 0.59814 0.96193 0.31205 0.0
C2572 C 0.59858 0.97708 0.30529 0.0
C2573 C 0.61266 0.99348 0.30925 0.0
C2574 C 0.60971 0.0076 0.30012 0.0
C2575 C 0.60913 0.01938 0.31721 0.0
C2576 C 0.62371 0.01834 0.28385 0.0
C2577 C 0.5919 0.99653 0.29023 0.0
C2578 C 0.58579 0.97897 0.29336 0.0
C2579 C 0.56995 0.96614 0.28522 0.0
C2580 C 0.55991 0.97137 0.27379 0.0
C2581 C 0.5656 0.98932 0.27071 0.0
C2582 C 0.58193 1.00202 0.27901 0.0
H2583 H 0.03362 0.64625 0.32094 0.0
H2584 H 0.9805 0.63682 0.32019 0.0
H2585 H 0.97111 0.60996 0.29983 0.0
H2586 H 0.03336 0.63196 0.26886 0.0
H2587 H 0.04635 0.62202 0.27467 0.0
H2588 H 0.04889 0.64024 0.2898 0.0
H2589 H 0.04252 0.62195 0.32324 0.0
H2590 H 0.04004 0.60369 0.30822 0.0
H2591 H 0.02268 0.6011 0.3251 0.0
H2592 H 0.9674 0.58414 0.27977 0.0
H2593 H 0.96968 0.56117 0.26071 0.0
H2594 H 0.02535 0.58762 0.27334 0.0
C2595 C 0.01999 0.63844 0.31661 0.0
C2596 C 0.00775 0.64355 0.32223 0.0
C2597 C 0.99008 0.63313 0.31608 0.0
C2598 C 0.98463 0.61786 0.30451 0.0
C2599 C 0.99703 0.61324 0.29907 0.0
C2600 C 0.01435 0.62322 0.30485 0.0
C2601 C 0.02507 0.61549 0.29657 0.0
C2602 C 0.03926 0.62819 0.28158 0.0
C2603 C 0.03304 0.61024 0.31434 0.0
C2604 C 0.01104 0.59958 0.28532 0.0
C2605 C 0.99496 0.59851 0.28705 0.0
C2606 C 0.97993 0.58484 0.27828 0.0
C2607 C 0.98134 0.57183 0.26756 0.0
C2608 C 0.99768 0.57263 0.26556 0.0
C2609 C 0.01273 0.58678 0.27445 0.0
H2610 H 0.37741 0.37037 0.31677 0.0
H2611 H 0.34971 0.39864 0.32686 0.0
H2612 H 0.37243 0.42369 0.30717 0.0
H2613 H 0.42103 0.40835 0.32259 0.0
H2614 H 0.43053 0.40099 0.30322 0.0
H2615 H 0.41204 0.3853 0.31803 0.0
H2616 H 0.39509 0.37159 0.2841 0.0
H2617 H 0.41347 0.38734 0.2692 0.0
H2618 H 0.39226 0.3852 0.26561 0.0
H2619 H 0.39685 0.4446 0.28423 0.0
H2620 H 0.42317 0.46164 0.2632 0.0
H2621 H 0.43685 0.42113 0.27111 0.0
C2622 C 0.37621 0.38189 0.31491 0.0
C2623 C 0.3618 0.3826 0.32323 0.0
C2624 C 0.36069 0.3979 0.32065 0.0
C2625 C 0.37347 0.41213 0.30941 0.0
C2626 C 0.38742 0.41096 0.30118 0.0
C2627 C 0.38905 0.39638 0.30411 0.0
C2628 C 0.40561 0.3987 0.29414 0.0
C2629 C 0.41804 0.39832 0.31047 0.0
C2630 C 0.40135 0.38489 0.27726 0.0
C2631 C 0.41289 0.41677 0.2849 0.0
C2632 C 0.40208 0.4235 0.28897 0.0
C2633 C 0.40563 0.43964 0.28132 0.0
C2634 C 0.42077 0.44931 0.26949 0.0
C2635 C 0.4325 0.44305 0.26568 0.0
C2636 C 0.42829 0.42642 0.27349 0.0
H2637 H 0.30861 0.28599 0.38713 0.0
H2638 H 0.36078 0.31842 0.36227 0.0
H2639 H 0.37028 0.29944 0.37885 0.0
H2640 H 0.3222 0.27861 0.43611 0.0
H2641 H 0.30459 0.25637 0.4384 0.0
H2642 H 0.30155 0.27188 0.42363 0.0
H2643 H 0.29268 0.25155 0.39166 0.0
H2644 H 0.29564 0.23593 0.40636 0.0
H2645 H 0.30721 0.24429 0.38236 0.0
H2646 H 0.3743 0.27738 0.39863 0.0
H2647 H 0.37269 0.2538 0.42041 0.0
H2648 H 0.31821 0.2363 0.43375 0.0
C2649 C 0.32197 0.28896 0.38498 0.0
C2650 C 0.33394 0.30362 0.37331 0.0
C2651 C 0.35138 0.30723 0.3711 0.0
C2652 C 0.3569 0.29652 0.38045 0.0
C2653 C 0.34484 0.28229 0.39204 0.0
C2654 C 0.32774 0.27848 0.39437 0.0
C2655 C 0.3176 0.26275 0.40825 0.0
C2656 C 0.31111 0.26771 0.42775 0.0
C2657 C 0.30239 0.24774 0.39645 0.0
C2658 C 0.33169 0.25836 0.41341 0.0
C2659 C 0.34727 0.26976 0.40382 0.0
C2660 C 0.36219 0.2684 0.40628 0.0
C2661 C 0.36117 0.25503 0.41885 0.0
C2662 C 0.34537 0.2432 0.42899 0.0
C2663 C 0.33045 0.24497 0.42611 0.0
H2664 H 0.70025 0.03911 0.38674 0.0
H2665 H 0.734 0.02176 0.36001 0.0
H2666 H 0.75956 0.04647 0.37656 0.0
H2667 H 0.7313 0.08604 0.38136 0.0
H2668 H 0.72493 0.09148 0.40544 0.0
H2669 H 0.7093 0.07277 0.39085 0.0
H2670 H 0.70366 0.05306 0.42284 0.0
H2671 H 0.71934 0.07168 0.43749 0.0
H2672 H 0.7218 0.05272 0.4351 0.0
H2673 H 0.7811 0.07162 0.39795 0.0
H2674 H 0.7977 0.09714 0.42079 0.0
H2675 H 0.75053 0.09926 0.4326 0.0
C2676 C 0.71305 0.04065 0.38418 0.0
C2677 C 0.71514 0.0285 0.37207 0.0
C2678 C 0.73209 0.03092 0.36915 0.0
C2679 C 0.74669 0.0449 0.37853 0.0
C2680 C 0.74418 0.05649 0.39062 0.0
C2681 C 0.72784 0.05468 0.39328 0.0
C2682 C 0.7288 0.06893 0.40722 0.0
C2683 C 0.72326 0.08049 0.39551 0.0
C2684 C 0.71774 0.06113 0.42682 0.0
C2685 C 0.74817 0.07886 0.41219 0.0
C2686 C 0.75676 0.07138 0.40252 0.0
C2687 C 0.77456 0.07771 0.40544 0.0
C2688 C 0.78385 0.09212 0.4185 0.0
C2689 C 0.77539 0.10015 0.42835 0.0
C2690 C 0.75733 0.09346 0.42505 0.0
H2691 H 0.96689 0.68701 0.36856 0.0
H2692 H 0.99254 0.67486 0.41762 0.0
H2693 H 0.96954 0.67127 0.44201 0.0
H2694 H 0.95266 0.71122 0.3991 0.0
H2695 H 0.93182 0.70271 0.38638 0.0
H2696 H 0.9502 0.7042 0.37255 0.0
H2697 H 0.93228 0.67118 0.36401 0.0
H2698 H 0.91382 0.66959 0.37778 0.0
H2699 H 0.92242 0.65562 0.38471 0.0
H2700 H 0.94498 0.67071 0.46158 0.0
H2701 H 0.9188 0.67096 0.47461 0.0
H2702 H 0.90769 0.68155 0.41278 0.0
C2703 C 0.96759 0.68353 0.38442 0.0
C2704 C 0.98152 0.68126 0.39123 0.0
C2705 C 0.98196 0.67662 0.41206 0.0
C2706 C 0.96899 0.67459 0.42605 0.0
C2707 C 0.9555 0.67701 0.41892 0.0
C2708 C 0.95455 0.68116 0.39857 0.0
C2709 C 0.93846 0.68279 0.39495 0.0
C2710 C 0.9436 0.70133 0.38783 0.0
C2711 C 0.92601 0.66897 0.37944 0.0
C2712 C 0.93069 0.67913 0.41651 0.0
C2713 C 0.94083 0.67596 0.43011 0.0
C2714 C 0.93682 0.67299 0.45106 0.0
C2715 C 0.92201 0.67321 0.45833 0.0
C2716 C 0.91129 0.67616 0.44465 0.0
C2717 C 0.91563 0.67907 0.42346 0.0
H2718 H 0.37352 0.01349 0.73309 0.0
H2719 H 0.39629 0.02407 0.67173 0.0
H2720 H 0.42063 0.02051 0.6848 0.0
H2721 H 0.4144 0.03726 0.7604 0.0
H2722 H 0.40746 0.02216 0.78173 0.0
H2723 H 0.39161 0.025 0.76738 0.0
H2724 H 0.37402 0.99174 0.76005 0.0
H2725 H 0.38982 0.9888 0.77436 0.0
H2726 H 0.38477 0.98126 0.74803 0.0
H2727 H 0.44195 0.01485 0.70444 0.0
H2728 H 0.45994 0.00976 0.72969 0.0
H2729 H 0.42419 0.00462 0.77866 0.0
C2730 C 0.3836 0.01499 0.72239 0.0
C2731 C 0.38299 0.01892 0.70136 0.0
C2732 C 0.39653 0.02104 0.68789 0.0
C2733 C 0.41036 0.01899 0.69517 0.0
C2734 C 0.41056 0.01508 0.71601 0.0
C2735 C 0.39764 0.0133 0.72948 0.0
C2736 C 0.40123 0.00967 0.75128 0.0
C2737 C 0.40383 0.0244 0.76606 0.0
C2738 C 0.38659 0.99181 0.75887 0.0
C2739 C 0.41814 0.00957 0.74797 0.0
C2740 C 0.42321 0.01255 0.72747 0.0
C2741 C 0.43816 0.0126 0.72054 0.0
C2742 C 0.44824 0.00963 0.73495 0.0
C2743 C 0.44345 0.00685 0.75607 0.0
C2744 C 0.42821 0.00687 0.76262 0.0
H2745 H 0.97621 0.3636 0.7112 0.0
H2746 H 0.03007 0.37721 0.70144 0.0
H2747 H 0.04012 0.40518 0.71981 0.0
H2748 H 0.98234 0.40793 0.70797 0.0
H2749 H 0.96721 0.40414 0.72869 0.0
H2750 H 0.96427 0.38625 0.71256 0.0
H2751 H 0.96444 0.36926 0.74505 0.0
H2752 H 0.96748 0.38712 0.76125 0.0
H2753 H 0.98273 0.37927 0.76258 0.0
H2754 H 0.04429 0.43118 0.73997 0.0
H2755 H 0.04256 0.45282 0.76212 0.0
H2756 H 0.98587 0.4209 0.7623 0.0
C2757 C 0.9901 0.37273 0.71249 0.0
C2758 C 1.00243 0.36852 0.70455 0.0
C2759 C 0.02048 0.38039 0.70719 0.0
C2760 C 0.02629 0.39627 0.71759 0.0
C2761 C 0.01384 0.39994 0.7256 0.0
C2762 C 0.99612 0.38848 0.72333 0.0
C2763 C 0.98554 0.3949 0.73504 0.0
C2764 C 0.97417 0.39852 0.72018 0.0
C2765 C 0.97439 0.38186 0.75199 0.0
C2766 C 1.00008 0.41171 0.74427 0.0
C2767 C 0.01627 0.41446 0.73838 0.0
C2768 C 0.03167 0.4291 0.74483 0.0
C2769 C 0.03053 0.44125 0.75768 0.0
C2770 C 0.01409 0.43863 0.7644 0.0
C2771 C 0.99868 0.42356 0.75743 0.0
H2772 H 0.63708 0.61076 0.71749 0.0
H2773 H 0.6213 0.64694 0.69511 0.0
H2774 H 0.59193 0.62855 0.71039 0.0
H2775 H 0.59533 0.57049 0.71185 0.0
H2776 H 0.5976 0.56132 0.73571 0.0
H2777 H 0.61676 0.57639 0.72136 0.0
H2778 H 0.62895 0.5962 0.75369 0.0
H2779 H 0.60986 0.58119 0.76813 0.0
H2780 H 0.61584 0.60384 0.76629 0.0
H2781 H 0.56428 0.60599 0.72766 0.0
H2782 H 0.54121 0.58275 0.7486 0.0
H2783 H 0.57639 0.56336 0.76371 0.0
C2784 C 0.62731 0.6146 0.71555 0.0
C2785 C 0.63123 0.63004 0.70486 0.0
C2786 C 0.61839 0.63504 0.70313 0.0
C2787 C 0.60171 0.62467 0.71169 0.0
C2788 C 0.59825 0.60956 0.7223 0.0
C2789 C 0.61075 0.60466 0.72453 0.0
C2790 C 0.60414 0.58862 0.73811 0.0
C2791 C 0.60341 0.5733 0.72603 0.0
C2792 C 0.61537 0.59272 0.75772 0.0
C2793 C 0.58596 0.58525 0.74312 0.0
C2794 C 0.58274 0.5973 0.73356 0.0
C2795 C 0.56675 0.59663 0.73548 0.0
C2796 C 0.55374 0.58342 0.74768 0.0
C2797 C 0.55687 0.5712 0.75832 0.0
C2798 C 0.57329 0.57222 0.75578 0.0
H2799 H 0.68601 0.71945 0.66596 0.0
H2800 H 0.65796 0.67567 0.62407 0.0
H2801 H 0.65214 0.69418 0.60094 0.0
H2802 H 0.65758 0.73768 0.65935 0.0
H2803 H 0.6751 0.76006 0.66027 0.0
H2804 H 0.67713 0.74341 0.67388 0.0
H2805 H 0.70599 0.75225 0.65439 0.0
H2806 H 0.70403 0.76891 0.6407 0.0
H2807 H 0.70616 0.75253 0.62654 0.0
H2808 H 0.64954 0.71707 0.58201 0.0
H2809 H 0.65009 0.74328 0.56833 0.0
H2810 H 0.67927 0.77265 0.62228 0.0
C2811 C 0.67862 0.71379 0.65194 0.0
C2812 C 0.67244 0.69609 0.64685 0.0
C2813 C 0.66284 0.68917 0.62834 0.0
C2814 C 0.65945 0.69958 0.61506 0.0
C2815 C 0.66572 0.71694 0.62044 0.0
C2816 C 0.67508 0.72406 0.63841 0.0
C2817 C 0.68031 0.74318 0.64033 0.0
C2818 C 0.67203 0.74626 0.6596 0.0
C2819 C 0.70031 0.75491 0.64049 0.0
C2820 C 0.67244 0.74562 0.62063 0.0
C2821 C 0.6641 0.73027 0.60944 0.0
C2822 C 0.65592 0.72915 0.59068 0.0
C2823 C 0.6562 0.74411 0.58311 0.0
C2824 C 0.66455 0.76003 0.59429 0.0
C2825 C 0.67284 0.76073 0.61329 0.0
H2826 H 0.28504 0.97028 0.66711 0.0
H2827 H 0.33192 0.97695 0.63706 0.0
H2828 H 0.3141 0.95101 0.61571 0.0
H2829 H 0.26132 0.92185 0.66702 0.0
H2830 H 0.24047 0.9201 0.6618 0.0
H2831 H 0.25694 0.93857 0.676 0.0
H2832 H 0.255 0.95948 0.64955 0.0
H2833 H 0.23867 0.94109 0.63516 0.0
H2834 H 0.25834 0.95725 0.6225 0.0
H2835 H 0.29168 0.92638 0.59548 0.0
H2836 H 0.26565 0.90263 0.57888 0.0
H2837 H 0.23256 0.91016 0.62246 0.0
C2838 C 0.29152 0.96604 0.65632 0.0
C2839 C 0.30989 0.97565 0.65379 0.0
C2840 C 0.31789 0.96984 0.63929 0.0
C2841 C 0.30788 0.9551 0.62706 0.0
C2842 C 0.28983 0.94617 0.62951 0.0
C2843 C 0.28166 0.95122 0.64389 0.0
C2844 C 0.26193 0.93943 0.64276 0.0
C2845 C 0.25474 0.92939 0.66311 0.0
C2846 C 0.25296 0.94994 0.63716 0.0
C2847 C 0.2604 0.92725 0.62529 0.0
C2848 C 0.27671 0.93145 0.61795 0.0
C2849 C 0.27883 0.9227 0.60135 0.0
C2850 C 0.26389 0.9091 0.5921 0.0
C2851 C 0.24693 0.90415 0.59953 0.0
C2852 C 0.24526 0.91351 0.61635 0.0
H2853 H 0.03811 0.34088 0.64028 0.0
H2854 H 0.02724 0.29806 0.68169 0.0
H2855 H 0.05171 0.29594 0.66636 0.0
H2856 H 0.04905 0.32456 0.5962 0.0
H2857 H 0.06645 0.34551 0.58771 0.0
H2858 H 0.04853 0.34416 0.60243 0.0
H2859 H 0.07025 0.36569 0.62948 0.0
H2860 H 0.08826 0.3672 0.61477 0.0
H2861 H 0.08574 0.36092 0.64159 0.0
H2862 H 0.07592 0.29706 0.64484 0.0
H2863 H 0.09982 0.30294 0.62048 0.0
H2864 H 0.09596 0.34591 0.59412 0.0
C2865 C 0.041 0.33118 0.64625 0.0
C2866 C 0.03077 0.31961 0.66217 0.0
C2867 C 0.03495 0.30709 0.66957 0.0
C2868 C 0.04879 0.30576 0.66092 0.0
C2869 C 0.05846 0.31719 0.64505 0.0
C2870 C 0.05491 0.32981 0.63796 0.0
C2871 C 0.06728 0.34043 0.62069 0.0
C2872 C 0.05722 0.33854 0.60057 0.0
C2873 C 0.07855 0.35971 0.62702 0.0
C2874 C 0.07818 0.33164 0.61896 0.0
C2875 C 0.0728 0.3182 0.63308 0.0
C2876 C 0.08037 0.30767 0.63386 0.0
C2877 C 0.09384 0.31103 0.61992 0.0
C2878 C 0.09974 0.32489 0.60553 0.0
C2879 C 0.09182 0.33536 0.60514 0.0
H2880 H 0.30623 0.33539 0.6435 0.0
H2881 H 0.27247 0.28478 0.67143 0.0
H2882 H 0.24673 0.28426 0.65589 0.0
H2883 H 0.27638 0.35224 0.65037 0.0
H2884 H 0.28213 0.36375 0.6261 0.0
H2885 H 0.29796 0.3604 0.63978 0.0
H2886 H 0.302 0.34555 0.6074 0.0
H2887 H 0.28619 0.34885 0.59363 0.0
H2888 H 0.28318 0.32721 0.59587 0.0
H2889 H 0.22491 0.28834 0.6359 0.0
H2890 H 0.2081 0.29741 0.61377 0.0
H2891 H 0.25556 0.34592 0.59977 0.0
C2892 C 0.2934 0.32425 0.64641 0.0
C2893 C 0.29133 0.3101 0.65864 0.0
C2894 C 0.27435 0.29577 0.66214 0.0
C2895 C 0.25966 0.29535 0.65338 0.0
C2896 C 0.26213 0.30944 0.64131 0.0
C2897 C 0.27854 0.3237 0.63794 0.0
C2898 C 0.27752 0.33706 0.62422 0.0
C2899 C 0.28387 0.35439 0.63582 0.0
C2900 C 0.28783 0.33982 0.60409 0.0
C2901 C 0.25801 0.32796 0.62019 0.0
C2902 C 0.24941 0.31202 0.63018 0.0
C2903 C 0.23147 0.30086 0.62815 0.0
C2904 C 0.22205 0.30608 0.61552 0.0
C2905 C 0.23055 0.32236 0.60519 0.0
C2906 C 0.24874 0.33351 0.60773 0.0
H2907 H 0.66969 0.96838 0.64876 0.0
H2908 H 0.72274 0.99139 0.67196 0.0
H2909 H 0.72567 0.96784 0.65534 0.0
H2910 H 0.65852 0.92297 0.65549 0.0
H2911 H 0.6455 0.91571 0.63231 0.0
H2912 H 0.64745 0.93415 0.64646 0.0
H2913 H 0.65848 0.95309 0.61337 0.0
H2914 H 0.65665 0.93474 0.59915 0.0
H2915 H 0.6772 0.95498 0.59987 0.0
H2916 H 0.72346 0.94282 0.63442 0.0
H2917 H 0.7155 0.91685 0.61274 0.0
H2918 H 0.66353 0.90936 0.60426 0.0
C2919 C 0.68186 0.96837 0.65048 0.0
C2920 C 0.696 0.98173 0.66165 0.0
C2921 C 0.71172 0.98126 0.66354 0.0
C2922 C 0.71352 0.96796 0.65412 0.0
C2923 C 0.69942 0.95511 0.64301 0.0
C2924 C 0.68382 0.95507 0.64135 0.0
C2925 C 0.67069 0.93973 0.62851 0.0
C2926 C 0.65459 0.92741 0.64147 0.0
C2927 C 0.66545 0.94602 0.60907 0.0
C2928 C 0.68142 0.93126 0.62302 0.0
C2929 C 0.69799 0.9404 0.63145 0.0
C2930 C 0.71047 0.93548 0.62789 0.0
C2931 C 0.70588 0.92078 0.61548 0.0
C2932 C 0.6889 0.91108 0.60693 0.0
C2933 C 0.67653 0.91642 0.61083 0.0
H2934 H 0.03447 0.69602 0.63426 0.0
H2935 H 0.04333 0.72057 0.69454 0.0
H2936 H 0.07093 0.74551 0.68193 0.0
H2937 H 0.08088 0.71117 0.62225 0.0
H2938 H 0.07824 0.71456 0.59534 0.0
H2939 H 0.06012 0.69782 0.60971 0.0
H2940 H 0.04124 0.71147 0.59942 0.0
H2941 H 0.05932 0.72832 0.58519 0.0
H2942 H 0.04899 0.73412 0.60523 0.0
H2943 H 0.09594 0.76889 0.66206 0.0
H2944 H 0.11751 0.78877 0.63657 0.0
H2945 H 0.09266 0.7492 0.58905 0.0
C2946 C 0.04243 0.70646 0.64494 0.0
C2947 C 0.03682 0.70632 0.66543 0.0
C2948 C 0.04742 0.72037 0.67882 0.0
C2949 C 0.06312 0.73459 0.67179 0.0
C2950 C 0.06807 0.73453 0.65136 0.0
C2951 C 0.05814 0.72078 0.63815 0.0
C2952 C 0.06594 0.72443 0.61661 0.0
C2953 C 0.07164 0.71121 0.61063 0.0
C2954 C 0.05311 0.7246 0.60068 0.0
C2955 C 0.08159 0.74253 0.61968 0.0
C2956 C 0.0826 0.74806 0.63987 0.0
C2957 C 0.0954 0.76464 0.64626 0.0
C2958 C 0.10751 0.77588 0.63164 0.0
C2959 C 0.10675 0.77052 0.61085 0.0
C2960 C 0.09369 0.75355 0.6049 0.0
H2961 H 1.00174 0.63895 0.73215 0.0
H2962 H 0.97638 0.61054 0.67614 0.0
H2963 H 0.97712 0.58472 0.68949 0.0
H2964 H 0.03042 0.62125 0.73887 0.0
H2965 H 0.02847 0.62029 0.76663 0.0
H2966 H 0.02622 0.63657 0.75246 0.0
H2967 H 0.99586 0.62577 0.76917 0.0
H2968 H 0.99801 0.60945 0.78336 0.0
H2969 H 0.97929 0.60307 0.76696 0.0
H2970 H 0.98029 0.56188 0.70927 0.0
H2971 H 0.98582 0.54381 0.73373 0.0
H2972 H 0.00872 0.5871 0.77707 0.0
C2973 C 0.99642 0.62733 0.72263 0.0
C2974 C 0.98903 0.62675 0.70307 0.0
C2975 C 0.98213 0.61127 0.69115 0.0
C2976 C 0.98249 0.59655 0.6986 0.0
C2977 C 0.9898 0.59754 0.718 0.0
C2978 C 0.99666 0.61254 0.72984 0.0
C2979 C 0.00356 0.61015 0.75028 0.0
C2980 C 0.02334 0.62282 0.75216 0.0
C2981 C 0.99358 0.61223 0.76852 0.0
C2982 C 0.99949 0.59144 0.74813 0.0
C2983 C 0.99156 0.5844 0.72941 0.0
C2984 C 0.98647 0.56726 0.72399 0.0
C2985 C 0.98956 0.55706 0.73807 0.0
C2986 C 0.99765 0.56398 0.75739 0.0
C2987 C 1.00268 0.58145 0.76237 0.0
H2988 H 0.38875 0.35997 0.70836 0.0
H2989 H 0.33992 0.35915 0.71932 0.0
H2990 H 0.35566 0.38648 0.73933 0.0
H2991 H 0.40642 0.37491 0.75867 0.0
H2992 H 0.42861 0.38858 0.75001 0.0
H2993 H 0.4138 0.36957 0.73527 0.0
H2994 H 0.41971 0.38879 0.70275 0.0
H2995 H 0.43461 0.40785 0.71737 0.0
H2996 H 0.41651 0.40735 0.70395 0.0
H2997 H 0.37642 0.41356 0.75848 0.0
H2998 H 0.4009 0.43832 0.77663 0.0
H2999 H 0.43626 0.42117 0.75485 0.0
C3000 C 0.38144 0.36569 0.71476 0.0
C3001 C 0.36313 0.35752 0.71217 0.0
C3002 C 0.35396 0.36522 0.72107 0.0
C3003 C 0.36278 0.38075 0.73244 0.0
C3004 C 0.38079 0.38838 0.73494 0.0
C3005 C 0.39004 0.38112 0.72643 0.0
C3006 C 0.40924 0.39163 0.73225 0.0
C3007 C 0.41484 0.38051 0.7448 0.0
C3008 C 0.42069 0.39937 0.71293 0.0
C3009 C 0.40925 0.40581 0.74547 0.0
C3010 C 0.39273 0.40377 0.7466 0.0
C3011 C 0.38943 0.41531 0.7577 0.0
C3012 C 0.4034 0.42934 0.7679 0.0
C3013 C 0.42042 0.43162 0.76714 0.0
C3014 C 0.42333 0.41964 0.75582 0.0
H3015 H 0.63463 0.0157 0.69663 0.0
H3016 H 0.658 0.99863 0.74338 0.0
H3017 H 0.63427 0.99326 0.7675 0.0
H3018 H 0.62108 0.03812 0.73006 0.0
H3019 H 0.60063 0.03157 0.71717 0.0
H3020 H 0.61878 0.03304 0.70285 0.0
H3021 H 0.59971 1.00089 0.69106 0.0
H3022 H 0.58144 0.99935 0.70522 0.0
H3023 H 0.58876 0.984 0.71016 0.0
H3024 H 0.60988 0.99243 0.7877 0.0
H3025 H 0.58454 0.99375 0.80181 0.0
H3026 H 0.57569 0.00977 0.74193 0.0
C3027 C 0.63457 0.01055 0.71182 0.0
C3028 C 0.64818 0.00757 0.7181 0.0
C3029 C 0.6477 1.00096 0.73817 0.0
C3030 C 0.63429 0.99789 0.75202 0.0
C3031 C 0.62128 1.0013 0.74554 0.0
C3032 C 0.62112 0.00723 0.72584 0.0
C3033 C 0.60571 0.01013 0.72303 0.0
C3034 C 0.61193 0.02936 0.71799 0.0
C3035 C 0.59316 0.99786 0.70638 0.0
C3036 C 0.59749 0.00524 0.74435 0.0
C3037 C 0.60676 1.00024 0.75709 0.0
C3038 C 0.60236 0.99606 0.77781 0.0
C3039 C 0.58803 0.9969 0.78571 0.0
C3040 C 0.57821 1.00171 0.77288 0.0
C3041 C 0.58293 0.00585 0.75192 0.0
loop_
_geom_bond_atom_site_label_1
_geom_bond_atom_site_label_2
_geom_bond_distance
_geom_bond_site_symmetry_2
_ccdc_geom_bond_type
In0 O1 2.269 1_455 S
In0 O2 2.329 . S
In0 O6 2.239 1_455 S
In0 O7 2.332 1_454 S
In0 O8 2.275 1_554 S
In0 O9 2.294 1_454 S
In0 O11 2.338 . S
In0 O12 2.351 . S
O1 In0 2.269 1_655 S
O1 C10 1.223 1_655 S
O2 In0 2.329 . S
O2 C10 1.283 . S
C3 O6 1.252 1_556 S
C3 O7 1.260 . S
C4 O11 1.240 . S
C4 O12 1.252 . S
C5 O8 1.270 . S
C5 O9 1.247 1_455 S
O6 In0 2.239 1_655 S
O6 C3 1.252 1_554 S
O7 In0 2.332 1_656 S
O7 C3 1.260 . S
O8 In0 2.275 1_556 S
O8 C5 1.270 . S
O9 In0 2.294 1_656 S
O9 C5 1.247 1_655 S
C10 O1 1.223 1_455 S
C10 O2 1.283 . S
O11 In0 2.338 . S
O11 C4 1.240 . S
O12 In0 2.351 . S
O12 C4 1.252 . S
In13 O14 2.294 . S
In13 O15 2.326 . S
In13 O19 2.266 . S
In13 O20 2.326 1_554 S
In13 O21 2.266 1_554 S
In13 O22 2.326 1_554 S
In13 O24 2.294 . S
In13 O25 2.326 . S
O14 In13 2.294 . S
O14 C23 1.240 . S
O15 In13 2.326 . S
O15 C23 1.252 . S
C16 O19 1.252 1_556 S
C16 O20 1.260 . S
C17 O24 1.240 . S
C17 O25 1.252 . S
C18 O21 1.252 . S
C18 O22 1.260 . S
O19 In13 2.266 . S
O19 C16 1.252 1_554 S
O20 In13 2.326 1_556 S
O20 C16 1.260 . S
O21 In13 2.266 1_556 S
O21 C18 1.252 . S
O22 In13 2.326 1_556 S
O22 C18 1.260 . S
C23 O14 1.240 . S
C23 O15 1.252 . S
O24 In13 2.294 . S
O24 C17 1.240 . S
O25 In13 2.326 . S
O25 C17 1.252 . S
In26 O27 2.354 . S
In26 O28 2.360 1_554 S
In26 O32 2.278 . S
In26 O33 2.282 1_545 S
In26 O34 2.229 1_545 S
In26 O35 2.334 1_545 S
In26 O37 2.260 1_544 S
In26 O38 2.331 1_554 S
O27 In26 2.354 . S
O27 C36 1.240 1_554 S
O28 In26 2.360 1_556 S
O28 C36 1.252 . S
C29 O32 1.288 . S
C29 O33 1.235 1_545 S
C30 O37 1.217 1_545 S
C30 O38 1.296 . S
C31 O34 1.252 . S
C31 O35 1.260 . S
O32 In26 2.278 . S
O32 C29 1.288 . S
O33 In26 2.282 1_565 S
O33 C29 1.235 1_565 S
O34 In26 2.229 1_565 S
O34 C31 1.252 . S
O35 In26 2.334 1_565 S
O35 C31 1.260 . S
C36 O27 1.240 1_556 S
C36 O28 1.252 . S
O37 In26 2.260 1_566 S
O37 C30 1.217 1_565 S
O38 In26 2.331 1_556 S
O38 C30 1.296 . S
In39 O40 2.293 1_554 S
In39 O41 2.326 1_454 S
In39 O45 2.265 . S
In39 O46 2.326 . S
In39 O47 2.267 1_455 S
In39 O48 2.324 . S
In39 O50 2.296 1_455 S
In39 O51 2.328 1_454 S
O40 In39 2.293 1_556 S
O40 C49 1.239 . S
O41 In39 2.326 1_656 S
O41 C49 1.253 1_655 S
C42 O45 1.252 . S
C42 O46 1.260 . S
C43 O50 1.240 1_556 S
C43 O51 1.252 . S
C44 O47 1.231 1_455 S
C44 O48 1.275 . S
O45 In39 2.265 . S
O45 C42 1.252 . S
O46 In39 2.326 . S
O46 C42 1.260 . S
O47 In39 2.267 1_655 S
O47 C44 1.231 1_655 S
O48 In39 2.324 . S
O48 C44 1.275 . S
C49 O40 1.239 . S
C49 O41 1.253 1_455 S
O50 In39 2.296 1_655 S
O50 C43 1.240 1_554 S
O51 In39 2.328 1_656 S
O51 C43 1.252 . S
In52 O53 2.294 1_554 S
In52 O54 2.326 1_554 S
In52 O58 2.266 . S
In52 O59 2.326 . S
In52 O60 2.266 . S
In52 O61 2.326 . S
In52 O63 2.294 . S
In52 O64 2.326 1_554 S
O53 In52 2.294 1_556 S
O53 C62 1.240 . S
O54 In52 2.326 1_556 S
O54 C62 1.252 . S
C55 O58 1.252 . S
C55 O59 1.260 . S
C56 O63 1.240 1_556 S
C56 O64 1.252 . S
C57 O60 1.252 . S
C57 O61 1.260 . S
O58 In52 2.266 . S
O58 C55 1.252 . S
O59 In52 2.326 . S
O59 C55 1.260 . S
O60 In52 2.266 . S
O60 C57 1.252 . S
O61 In52 2.326 . S
O61 C57 1.260 . S
C62 O53 1.240 . S
C62 O54 1.252 . S
O63 In52 2.294 . S
O63 C56 1.240 1_554 S
O64 In52 2.326 1_556 S
O64 C56 1.252 . S
In65 O66 2.293 . S
In65 O67 2.326 1_545 S
In65 O71 2.265 . S
In65 O72 2.326 1_554 S
In65 O73 2.267 1_544 S
In65 O74 2.324 1_554 S
In65 O76 2.296 1_545 S
In65 O77 2.328 1_545 S
O66 In65 2.293 . S
O66 C75 1.239 . S
O67 In65 2.326 1_565 S
O67 C75 1.255 1_565 S
C68 O71 1.252 1_556 S
C68 O72 1.260 . S
C69 O76 1.240 . S
C69 O77 1.252 . S
C70 O73 1.234 1_545 S
C70 O74 1.273 . S
O71 In65 2.265 . S
O71 C68 1.252 1_554 S
O72 In65 2.326 1_556 S
O72 C68 1.260 . S
O73 In65 2.267 1_566 S
O73 C70 1.234 1_565 S
O74 In65 2.324 1_556 S
O74 C70 1.273 . S
C75 O66 1.239 . S
C75 O67 1.255 1_545 S
O76 In65 2.296 1_565 S
O76 C69 1.240 . S
O77 In65 2.328 1_565 S
O77 C69 1.252 . S
In78 O79 2.294 . S
In78 O80 2.326 . S
In78 O84 2.266 . S
In78 O85 2.326 . S
In78 O86 2.266 . S
In78 O87 2.326 . S
In78 O89 2.294 . S
In78 O90 2.326 . S
O79 In78 2.294 . S
O79 C88 1.240 . S
O80 In78 2.326 . S
O80 C88 1.252 . S
C81 O84 1.252 . S
C81 O85 1.260 . S
C82 O89 1.240 . S
C82 O90 1.252 . S
C83 O86 1.252 . S
C83 O87 1.260 . S
O84 In78 2.266 . S
O84 C81 1.252 . S
O85 In78 2.326 . S
O85 C81 1.260 . S
O86 In78 2.266 . S
O86 C83 1.252 . S
O87 In78 2.326 . S
O87 C83 1.260 . S
C88 O79 1.240 . S
C88 O80 1.252 . S
O89 In78 2.294 . S
O89 C82 1.240 . S
O90 In78 2.326 . S
O90 C82 1.252 . S
In91 O92 2.294 . S
In91 O93 2.326 . S
In91 O97 2.266 . S
In91 O98 2.326 . S
In91 O99 2.266 . S
In91 O100 2.326 . S
In91 O102 2.294 1_565 S
In91 O103 2.326 1_565 S
O92 In91 2.294 . S
O92 C101 1.240 . S
O93 In91 2.326 . S
O93 C101 1.252 . S
C94 O97 1.252 . S
C94 O98 1.260 . S
C95 O102 1.240 . S
C95 O103 1.252 . S
C96 O99 1.252 . S
C96 O100 1.260 . S
O97 In91 2.266 . S
O97 C94 1.252 . S
O98 In91 2.326 . S
O98 C94 1.260 . S
O99 In91 2.266 . S
O99 C96 1.252 . S
O100 In91 2.326 . S
O100 C96 1.260 . S
C101 O92 1.240 . S
C101 O93 1.252 . S
O102 In91 2.294 1_545 S
O102 C95 1.240 . S
O103 In91 2.326 1_545 S
O103 C95 1.252 . S
In104 O105 2.294 . S
In104 O106 2.326 . S
In104 O110 2.266 . S
In104 O111 2.326 . S
In104 O112 2.266 1_455 S
In104 O113 2.326 1_455 S
In104 O115 2.294 . S
In104 O116 2.326 . S
O105 In104 2.294 . S
O105 C114 1.240 . S
O106 In104 2.326 . S
O106 C114 1.252 . S
C107 O110 1.252 . S
C107 O111 1.260 . S
C108 O115 1.240 . S
C108 O116 1.252 . S
C109 O112 1.252 . S
C109 O113 1.260 . S
O110 In104 2.266 . S
O110 C107 1.252 . S
O111 In104 2.326 . S
O111 C107 1.260 . S
O112 In104 2.266 1_655 S
O112 C109 1.252 . S
O113 In104 2.326 1_655 S
O113 C109 1.260 . S
C114 O105 1.240 . S
C114 O106 1.252 . S
O115 In104 2.294 . S
O115 C108 1.240 . S
O116 In104 2.326 . S
O116 C108 1.252 . S
In117 O118 2.294 . S
In117 O119 2.326 . S
In117 O123 2.266 1_565 S
In117 O124 2.326 1_565 S
In117 O125 2.266 . S
In117 O126 2.326 . S
In117 O128 2.294 . S
In117 O129 2.326 . S
O118 In117 2.294 . S
O118 C127 1.240 . S
O119 In117 2.326 . S
O119 C127 1.252 . S
C120 O123 1.252 . S
C120 O124 1.260 . S
C121 O128 1.240 . S
C121 O129 1.252 . S
C122 O125 1.252 . S
C122 O126 1.260 . S
O123 In117 2.266 1_545 S
O123 C120 1.252 . S
O124 In117 2.326 1_545 S
O124 C120 1.260 . S
O125 In117 2.266 . S
O125 C122 1.252 . S
O126 In117 2.326 . S
O126 C122 1.260 . S
C127 O118 1.240 . S
C127 O119 1.252 . S
O128 In117 2.294 . S
O128 C121 1.240 . S
O129 In117 2.326 . S
O129 C121 1.252 . S
In130 O131 2.294 . S
In130 O132 2.326 . S
In130 O136 2.266 1_455 S
In130 O137 2.326 1_455 S
In130 O138 2.266 . S
In130 O139 2.326 . S
In130 O141 2.294 . S
In130 O142 2.326 . S
O131 In130 2.294 . S
O131 C140 1.240 . S
O132 In130 2.326 . S
O132 C140 1.252 . S
C133 O136 1.252 . S
C133 O137 1.260 . S
C134 O141 1.240 . S
C134 O142 1.252 . S
C135 O138 1.252 . S
C135 O139 1.260 . S
O136 In130 2.266 1_655 S
O136 C133 1.252 . S
O137 In130 2.326 1_655 S
O137 C133 1.260 . S
O138 In130 2.266 . S
O138 C135 1.252 . S
O139 In130 2.326 . S
O139 C135 1.260 . S
C140 O131 1.240 . S
C140 O132 1.252 . S
O141 In130 2.294 . S
O141 C134 1.240 . S
O142 In130 2.326 . S
O142 C134 1.252 . S
In143 O144 2.294 . S
In143 O145 2.326 . S
In143 O149 2.266 . S
In143 O150 2.326 . S
In143 O151 2.266 . S
In143 O152 2.326 . S
In143 O154 2.294 . S
In143 O155 2.326 . S
O144 In143 2.294 . S
O144 C153 1.240 . S
O145 In143 2.326 . S
O145 C153 1.252 . S
C146 O149 1.252 . S
C146 O150 1.260 . S
C147 O154 1.240 . S
C147 O155 1.252 . S
C148 O151 1.252 . S
C148 O152 1.260 . S
O149 In143 2.266 . S
O149 C146 1.252 . S
O150 In143 2.326 . S
O150 C146 1.260 . S
O151 In143 2.266 . S
O151 C148 1.252 . S
O152 In143 2.326 . S
O152 C148 1.260 . S
C153 O144 1.240 . S
C153 O145 1.252 . S
O154 In143 2.294 . S
O154 C147 1.240 . S
O155 In143 2.326 . S
O155 C147 1.252 . S
In156 O157 2.294 . S
In156 O158 2.326 . S
In156 O162 2.266 . S
In156 O163 2.326 . S
In156 O164 2.266 1_545 S
In156 O165 2.326 1_545 S
In156 O167 2.294 . S
In156 O168 2.326 . S
O157 In156 2.294 . S
O157 C166 1.240 . S
O158 In156 2.326 . S
O158 C166 1.252 . S
C159 O162 1.252 . S
C159 O163 1.260 . S
C160 O167 1.240 . S
C160 O168 1.252 . S
C161 O164 1.252 . S
C161 O165 1.260 . S
O162 In156 2.266 . S
O162 C159 1.252 . S
O163 In156 2.326 . S
O163 C159 1.260 . S
O164 In156 2.266 1_565 S
O164 C161 1.252 . S
O165 In156 2.326 1_565 S
O165 C161 1.260 . S
C166 O157 1.240 . S
C166 O158 1.252 . S
O167 In156 2.294 . S
O167 C160 1.240 . S
O168 In156 2.326 . S
O168 C160 1.252 . S
In169 O170 2.294 . S
In169 O171 2.326 . S
In169 O175 2.266 . S
In169 O176 2.326 . S
In169 O177 2.266 1_655 S
In169 O178 2.326 1_655 S
In169 O180 2.294 . S
In169 O181 2.326 . S
O170 In169 2.294 . S
O170 C179 1.240 . S
O171 In169 2.326 . S
O171 C179 1.252 . S
C172 O175 1.252 . S
C172 O176 1.260 . S
C173 O180 1.240 . S
C173 O181 1.252 . S
C174 O177 1.252 . S
C174 O178 1.260 . S
O175 In169 2.266 . S
O175 C172 1.252 . S
O176 In169 2.326 . S
O176 C172 1.260 . S
O177 In169 2.266 1_455 S
O177 C174 1.252 . S
O178 In169 2.326 1_455 S
O178 C174 1.260 . S
C179 O170 1.240 . S
C179 O171 1.252 . S
O180 In169 2.294 . S
O180 C173 1.240 . S
O181 In169 2.326 . S
O181 C173 1.252 . S
In182 O183 2.294 . S
In182 O184 2.326 . S
In182 O188 2.266 . S
In182 O189 2.326 . S
In182 O190 2.266 . S
In182 O191 2.326 . S
In182 O193 2.294 . S
In182 O194 2.326 . S
O183 In182 2.294 . S
O183 C192 1.240 . S
O184 In182 2.326 . S
O184 C192 1.252 . S
C185 O188 1.252 . S
C185 O189 1.260 . S
C186 O193 1.240 . S
C186 O194 1.252 . S
C187 O190 1.252 . S
C187 O191 1.260 . S
O188 In182 2.266 . S
O188 C185 1.252 . S
O189 In182 2.326 . S
O189 C185 1.260 . S
O190 In182 2.266 . S
O190 C187 1.252 . S
O191 In182 2.326 . S
O191 C187 1.260 . S
C192 O183 1.240 . S
C192 O184 1.252 . S
O193 In182 2.294 . S
O193 C186 1.240 . S
O194 In182 2.326 . S
O194 C186 1.252 . S
In195 O196 2.294 . S
In195 O197 2.326 . S
In195 O201 2.266 . S
In195 O202 2.326 . S
In195 O203 2.266 . S
In195 O204 2.326 . S
In195 O206 2.294 . S
In195 O207 2.326 . S
O196 In195 2.294 . S
O196 C205 1.240 . S
O197 In195 2.326 . S
O197 C205 1.252 . S
C198 O201 1.252 . S
C198 O202 1.260 . S
C199 O206 1.240 . S
C199 O207 1.252 . S
C200 O203 1.252 . S
C200 O204 1.260 . S
O201 In195 2.266 . S
O201 C198 1.252 . S
O202 In195 2.326 . S
O202 C198 1.260 . S
O203 In195 2.266 . S
O203 C200 1.252 . S
O204 In195 2.326 . S
O204 C200 1.260 . S
C205 O196 1.240 . S
C205 O197 1.252 . S
O206 In195 2.294 . S
O206 C199 1.240 . S
O207 In195 2.326 . S
O207 C199 1.252 . S
In208 O209 2.294 . S
In208 O210 2.326 . S
In208 O214 2.266 . S
In208 O215 2.326 . S
In208 O216 2.266 . S
In208 O217 2.326 . S
In208 O219 2.294 1_545 S
In208 O220 2.326 1_545 S
O209 In208 2.294 . S
O209 C218 1.240 . S
O210 In208 2.326 . S
O210 C218 1.252 . S
C211 O214 1.252 . S
C211 O215 1.260 . S
C212 O219 1.240 . S
C212 O220 1.252 . S
C213 O216 1.252 . S
C213 O217 1.260 . S
O214 In208 2.266 . S
O214 C211 1.252 . S
O215 In208 2.326 . S
O215 C211 1.260 . S
O216 In208 2.266 . S
O216 C213 1.252 . S
O217 In208 2.326 . S
O217 C213 1.260 . S
C218 O209 1.240 . S
C218 O210 1.252 . S
O219 In208 2.294 1_565 S
O219 C212 1.240 . S
O220 In208 2.326 1_565 S
O220 C212 1.252 . S
In221 O222 2.294 . S
In221 O223 2.326 . S
In221 O227 2.266 . S
In221 O228 2.326 . S
In221 O229 2.266 1_655 S
In221 O230 2.326 1_655 S
In221 O232 2.294 . S
In221 O233 2.326 . S
O222 In221 2.294 . S
O222 C231 1.240 . S
O223 In221 2.326 . S
O223 C231 1.252 . S
C224 O227 1.252 . S
C224 O228 1.260 . S
C225 O232 1.240 . S
C225 O233 1.252 . S
C226 O229 1.252 . S
C226 O230 1.260 . S
O227 In221 2.266 . S
O227 C224 1.252 . S
O228 In221 2.326 . S
O228 C224 1.260 . S
O229 In221 2.266 1_455 S
O229 C226 1.252 . S
O230 In221 2.326 1_455 S
O230 C226 1.260 . S
C231 O222 1.240 . S
C231 O223 1.252 . S
O232 In221 2.294 . S
O232 C225 1.240 . S
O233 In221 2.326 . S
O233 C225 1.252 . S
H234 C253 0.949 . S
H235 C254 0.950 . S
H236 C256 0.950 . S
H237 C257 0.950 . S
H238 C259 0.950 . S
H239 C262 0.950 . S
H240 C263 0.950 . S
H241 C265 0.951 . S
H242 C266 0.949 . S
H243 C268 0.949 . S
H244 C269 0.950 . S
H245 C271 0.950 . S
H246 C272 0.950 . S
H247 C274 0.950 . S
H248 C277 0.950 . S
H249 C278 0.950 . S
H250 C280 0.951 . S
H251 C281 0.949 . S
C252 C253 1.376 . S
C252 C257 1.386 . S
C252 C258 1.483 . S
C253 H234 0.949 . S
C253 C252 1.376 . S
C253 C254 1.397 . S
C254 H235 0.950 . S
C254 C253 1.397 . S
C254 C255 1.391 . S
C255 C254 1.391 . S
C255 C256 1.405 . S
C256 H236 0.950 . S
C256 C255 1.405 . S
C256 C257 1.367 . S
C257 H237 0.950 . S
C257 C252 1.386 . S
C257 C256 1.367 . S
C258 C252 1.483 . S
C258 C259 1.382 . S
C258 C260 1.403 . S
C259 H238 0.950 . S
C259 C258 1.382 . S
C259 C275 1.411 . S
C260 C258 1.403 . S
C260 C261 1.489 . S
C260 C274 1.411 . S
C261 C260 1.489 . S
C261 C262 1.383 . S
C261 C266 1.382 . S
C262 H239 0.950 . S
C262 C261 1.383 . S
C262 C263 1.395 . S
C263 H240 0.950 . S
C263 C262 1.395 . S
C263 C264 1.288 . S
C264 C263 1.288 . S
C264 C265 1.392 . S
C265 H241 0.951 . S
C265 C264 1.392 . S
C265 C266 1.392 . S
C266 H242 0.949 . S
C266 C261 1.382 . S
C266 C265 1.392 . S
C267 C268 1.376 . S
C267 C272 1.386 . S
C267 C273 1.483 . S
C268 H243 0.949 . S
C268 C267 1.376 . S
C268 C269 1.397 . S
C269 H244 0.950 . S
C269 C268 1.397 . S
C269 C270 1.391 . S
C270 C269 1.391 . S
C270 C271 1.405 . S
C271 H245 0.950 . S
C271 C270 1.405 . S
C271 C272 1.367 . S
C272 H246 0.950 . S
C272 C267 1.386 . S
C272 C271 1.367 . S
C273 C267 1.483 . S
C273 C274 1.382 . S
C273 C275 1.403 . S
C274 H247 0.950 . S
C274 C260 1.411 . S
C274 C273 1.382 . S
C275 C259 1.411 . S
C275 C273 1.403 . S
C275 C276 1.489 . S
C276 C275 1.489 . S
C276 C277 1.383 . S
C276 C281 1.382 . S
C277 H248 0.950 . S
C277 C276 1.383 . S
C277 C278 1.395 . S
C278 H249 0.950 . S
C278 C277 1.395 . S
C278 C279 1.288 . S
C279 C278 1.288 . S
C279 C280 1.392 . S
C280 H250 0.951 . S
C280 C279 1.392 . S
C280 C281 1.392 . S
C281 H251 0.949 . S
C281 C276 1.382 . S
C281 C280 1.392 . S
H282 C301 0.949 . S
H283 C302 0.950 . S
H284 C304 0.950 . S
H285 C305 0.950 . S
H286 C307 0.950 . S
H287 C310 0.950 . S
H288 C311 0.950 . S
H289 C313 0.951 . S
H290 C314 0.949 . S
H291 C316 0.949 . S
H292 C317 0.950 . S
H293 C319 0.950 . S
H294 C320 0.950 . S
H295 C322 0.950 . S
H296 C325 0.950 . S
H297 C326 0.950 . S
H298 C328 0.951 . S
H299 C329 0.949 . S
C300 C301 1.376 . S
C300 C305 1.386 . S
C300 C306 1.483 . S
C301 H282 0.949 . S
C301 C300 1.376 . S
C301 C302 1.397 . S
C302 H283 0.950 . S
C302 C301 1.397 . S
C302 C303 1.391 . S
C303 C302 1.391 . S
C303 C304 1.405 . S
C304 H284 0.950 . S
C304 C303 1.405 . S
C304 C305 1.367 . S
C305 H285 0.950 . S
C305 C300 1.386 . S
C305 C304 1.367 . S
C306 C300 1.483 . S
C306 C307 1.382 . S
C306 C308 1.403 . S
C307 H286 0.950 . S
C307 C306 1.382 . S
C307 C323 1.411 . S
C308 C306 1.403 . S
C308 C309 1.489 . S
C308 C322 1.411 . S
C309 C308 1.489 . S
C309 C310 1.383 . S
C309 C314 1.382 . S
C310 H287 0.950 . S
C310 C309 1.383 . S
C310 C311 1.395 . S
C311 H288 0.950 . S
C311 C310 1.395 . S
C311 C312 1.288 . S
C312 C311 1.288 . S
C312 C313 1.392 . S
C313 H289 0.951 . S
C313 C312 1.392 . S
C313 C314 1.392 . S
C314 H290 0.949 . S
C314 C309 1.382 . S
C314 C313 1.392 . S
C315 C316 1.376 . S
C315 C320 1.386 . S
C315 C321 1.483 . S
C316 H291 0.949 . S
C316 C315 1.376 . S
C316 C317 1.397 . S
C317 H292 0.950 . S
C317 C316 1.397 . S
C317 C318 1.391 . S
C318 C317 1.391 . S
C318 C319 1.405 . S
C319 H293 0.950 . S
C319 C318 1.405 . S
C319 C320 1.367 . S
C320 H294 0.950 . S
C320 C315 1.386 . S
C320 C319 1.367 . S
C321 C315 1.483 . S
C321 C322 1.382 . S
C321 C323 1.403 . S
C322 H295 0.950 . S
C322 C308 1.411 . S
C322 C321 1.382 . S
C323 C307 1.411 . S
C323 C321 1.403 . S
C323 C324 1.489 . S
C324 C323 1.489 . S
C324 C325 1.383 . S
C324 C329 1.382 . S
C325 H296 0.950 . S
C325 C324 1.383 . S
C325 C326 1.395 . S
C326 H297 0.950 . S
C326 C325 1.395 . S
C326 C327 1.288 . S
C327 C326 1.288 . S
C327 C328 1.392 . S
C328 H298 0.951 . S
C328 C327 1.392 . S
C328 C329 1.392 . S
C329 H299 0.949 . S
C329 C324 1.382 . S
C329 C328 1.392 . S
H330 C349 0.949 . S
H331 C350 0.950 . S
H332 C352 0.950 . S
H333 C353 0.950 . S
H334 C355 0.950 . S
H335 C358 0.950 . S
H336 C359 0.950 . S
H337 C361 0.951 . S
H338 C362 0.949 . S
H339 C364 0.949 . S
H340 C365 0.950 . S
H341 C367 0.950 . S
H342 C368 0.950 . S
H343 C370 0.950 . S
H344 C373 0.950 . S
H345 C374 0.950 . S
H346 C376 0.951 . S
H347 C377 0.949 . S
C348 C349 1.376 . S
C348 C353 1.386 . S
C348 C354 1.483 . S
C349 H330 0.949 . S
C349 C348 1.376 . S
C349 C350 1.397 . S
C350 H331 0.950 . S
C350 C349 1.397 . S
C350 C351 1.391 . S
C351 C350 1.391 . S
C351 C352 1.405 . S
C352 H332 0.950 . S
C352 C351 1.405 . S
C352 C353 1.367 . S
C353 H333 0.950 . S
C353 C348 1.386 . S
C353 C352 1.367 . S
C354 C348 1.483 . S
C354 C355 1.382 . S
C354 C356 1.403 . S
C355 H334 0.950 . S
C355 C354 1.382 . S
C355 C371 1.411 . S
C356 C354 1.403 . S
C356 C357 1.489 . S
C356 C370 1.411 . S
C357 C356 1.489 . S
C357 C358 1.383 . S
C357 C362 1.382 . S
C358 H335 0.950 . S
C358 C357 1.383 . S
C358 C359 1.395 . S
C359 H336 0.950 . S
C359 C358 1.395 . S
C359 C360 1.288 . S
C360 C359 1.288 . S
C360 C361 1.392 . S
C361 H337 0.951 . S
C361 C360 1.392 . S
C361 C362 1.392 . S
C362 H338 0.949 . S
C362 C357 1.382 . S
C362 C361 1.392 . S
C363 C364 1.376 . S
C363 C368 1.386 . S
C363 C369 1.483 . S
C364 H339 0.949 . S
C364 C363 1.376 . S
C364 C365 1.397 . S
C365 H340 0.950 . S
C365 C364 1.397 . S
C365 C366 1.391 . S
C366 C365 1.391 . S
C366 C367 1.405 . S
C367 H341 0.950 . S
C367 C366 1.405 . S
C367 C368 1.367 . S
C368 H342 0.950 . S
C368 C363 1.386 . S
C368 C367 1.367 . S
C369 C363 1.483 . S
C369 C370 1.382 . S
C369 C371 1.403 . S
C370 H343 0.950 . S
C370 C356 1.411 . S
C370 C369 1.382 . S
C371 C355 1.411 . S
C371 C369 1.403 . S
C371 C372 1.489 . S
C372 C371 1.489 . S
C372 C373 1.383 . S
C372 C377 1.382 . S
C373 H344 0.950 . S
C373 C372 1.383 . S
C373 C374 1.395 . S
C374 H345 0.950 . S
C374 C373 1.395 . S
C374 C375 1.288 . S
C375 C374 1.288 . S
C375 C376 1.392 . S
C376 H346 0.951 . S
C376 C375 1.392 . S
C376 C377 1.392 . S
C377 H347 0.949 . S
C377 C372 1.382 . S
C377 C376 1.392 . S
H378 C397 0.949 . S
H379 C398 0.950 . S
H380 C400 0.950 . S
H381 C401 0.950 . S
H382 C403 0.950 . S
H383 C406 0.950 . S
H384 C407 0.950 . S
H385 C409 0.951 . S
H386 C410 0.949 . S
H387 C412 0.949 . S
H388 C413 0.950 . S
H389 C415 0.950 . S
H390 C416 0.950 . S
H391 C418 0.950 . S
H392 C421 0.950 . S
H393 C422 0.950 . S
H394 C424 0.951 . S
H395 C425 0.949 . S
C396 C397 1.376 . S
C396 C401 1.386 . S
C396 C402 1.483 . S
C397 H378 0.949 . S
C397 C396 1.376 . S
C397 C398 1.397 . S
C398 H379 0.950 . S
C398 C397 1.397 . S
C398 C399 1.391 . S
C399 C398 1.391 . S
C399 C400 1.405 . S
C400 H380 0.950 . S
C400 C399 1.405 . S
C400 C401 1.367 . S
C401 H381 0.950 . S
C401 C396 1.386 . S
C401 C400 1.367 . S
C402 C396 1.483 . S
C402 C403 1.382 . S
C402 C404 1.403 . S
C403 H382 0.950 . S
C403 C402 1.382 . S
C403 C419 1.411 . S
C404 C402 1.403 . S
C404 C405 1.489 . S
C404 C418 1.411 . S
C405 C404 1.489 . S
C405 C406 1.383 . S
C405 C410 1.382 . S
C406 H383 0.950 . S
C406 C405 1.383 . S
C406 C407 1.395 . S
C407 H384 0.950 . S
C407 C406 1.395 . S
C407 C408 1.288 . S
C408 C407 1.288 . S
C408 C409 1.392 . S
C409 H385 0.951 . S
C409 C408 1.392 . S
C409 C410 1.392 . S
C410 H386 0.949 . S
C410 C405 1.382 . S
C410 C409 1.392 . S
C411 C412 1.376 . S
C411 C416 1.386 . S
C411 C417 1.483 . S
C412 H387 0.949 . S
C412 C411 1.376 . S
C412 C413 1.397 . S
C413 H388 0.950 . S
C413 C412 1.397 . S
C413 C414 1.391 . S
C414 C413 1.391 . S
C414 C415 1.405 . S
C415 H389 0.950 . S
C415 C414 1.405 . S
C415 C416 1.367 . S
C416 H390 0.950 . S
C416 C411 1.386 . S
C416 C415 1.367 . S
C417 C411 1.483 . S
C417 C418 1.382 . S
C417 C419 1.403 . S
C418 H391 0.950 . S
C418 C404 1.411 . S
C418 C417 1.382 . S
C419 C403 1.411 . S
C419 C417 1.403 . S
C419 C420 1.489 . S
C420 C419 1.489 . S
C420 C421 1.383 . S
C420 C425 1.382 . S
C421 H392 0.950 . S
C421 C420 1.383 . S
C421 C422 1.395 . S
C422 H393 0.950 . S
C422 C421 1.395 . S
C422 C423 1.288 . S
C423 C422 1.288 . S
C423 C424 1.392 . S
C424 H394 0.951 . S
C424 C423 1.392 . S
C424 C425 1.392 . S
C425 H395 0.949 . S
C425 C420 1.382 . S
C425 C424 1.392 . S
H426 C445 0.949 . S
H427 C446 0.950 . S
H428 C448 0.950 . S
H429 C449 0.950 . S
H430 C451 0.950 . S
H431 C454 0.950 . S
H432 C455 0.950 . S
H433 C457 0.951 . S
H434 C458 0.949 . S
H435 C460 0.949 . S
H436 C461 0.950 . S
H437 C463 0.950 . S
H438 C464 0.950 . S
H439 C466 0.950 . S
H440 C469 0.950 . S
H441 C470 0.950 . S
H442 C472 0.951 . S
H443 C473 0.949 . S
C444 C445 1.376 . S
C444 C449 1.386 . S
C444 C450 1.483 . S
C445 H426 0.949 . S
C445 C444 1.376 . S
C445 C446 1.397 . S
C446 H427 0.950 . S
C446 C445 1.397 . S
C446 C447 1.391 . S
C447 C446 1.391 . S
C447 C448 1.405 . S
C448 H428 0.950 . S
C448 C447 1.405 . S
C448 C449 1.367 . S
C449 H429 0.950 . S
C449 C444 1.386 . S
C449 C448 1.367 . S
C450 C444 1.483 . S
C450 C451 1.382 . S
C450 C452 1.403 . S
C451 H430 0.950 . S
C451 C450 1.382 . S
C451 C467 1.411 . S
C452 C450 1.403 . S
C452 C453 1.489 . S
C452 C466 1.411 . S
C453 C452 1.489 . S
C453 C454 1.383 . S
C453 C458 1.382 . S
C454 H431 0.950 . S
C454 C453 1.383 . S
C454 C455 1.395 . S
C455 H432 0.950 . S
C455 C454 1.395 . S
C455 C456 1.288 . S
C456 C455 1.288 . S
C456 C457 1.392 . S
C457 H433 0.951 . S
C457 C456 1.392 . S
C457 C458 1.392 . S
C458 H434 0.949 . S
C458 C453 1.382 . S
C458 C457 1.392 . S
C459 C460 1.376 . S
C459 C464 1.386 . S
C459 C465 1.483 . S
C460 H435 0.949 . S
C460 C459 1.376 . S
C460 C461 1.397 . S
C461 H436 0.950 . S
C461 C460 1.397 . S
C461 C462 1.391 . S
C462 C461 1.391 . S
C462 C463 1.405 . S
C463 H437 0.950 . S
C463 C462 1.405 . S
C463 C464 1.367 . S
C464 H438 0.950 . S
C464 C459 1.386 . S
C464 C463 1.367 . S
C465 C459 1.483 . S
C465 C466 1.382 . S
C465 C467 1.403 . S
C466 H439 0.950 . S
C466 C452 1.411 . S
C466 C465 1.382 . S
C467 C451 1.411 . S
C467 C465 1.403 . S
C467 C468 1.489 . S
C468 C467 1.489 . S
C468 C469 1.383 . S
C468 C473 1.382 . S
C469 H440 0.950 . S
C469 C468 1.383 . S
C469 C470 1.395 . S
C470 H441 0.950 . S
C470 C469 1.395 . S
C470 C471 1.288 . S
C471 C470 1.288 . S
C471 C472 1.392 . S
C472 H442 0.951 . S
C472 C471 1.392 . S
C472 C473 1.392 . S
C473 H443 0.949 . S
C473 C468 1.382 . S
C473 C472 1.392 . S
H474 C493 0.949 . S
H475 C494 0.950 . S
H476 C496 0.950 . S
H477 C497 0.950 . S
H478 C499 0.950 . S
H479 C502 0.950 . S
H480 C503 0.950 . S
H481 C505 0.951 . S
H482 C506 0.949 . S
H483 C508 0.949 . S
H484 C509 0.950 . S
H485 C511 0.950 . S
H486 C512 0.950 . S
H487 C514 0.950 . S
H488 C517 0.950 . S
H489 C518 0.950 . S
H490 C520 0.951 . S
H491 C521 0.949 . S
C492 C493 1.376 . S
C492 C497 1.386 . S
C492 C498 1.483 . S
C493 H474 0.949 . S
C493 C492 1.376 . S
C493 C494 1.397 . S
C494 H475 0.950 . S
C494 C493 1.397 . S
C494 C495 1.391 . S
C495 C494 1.391 . S
C495 C496 1.405 . S
C496 H476 0.950 . S
C496 C495 1.405 . S
C496 C497 1.367 . S
C497 H477 0.950 . S
C497 C492 1.386 . S
C497 C496 1.367 . S
C498 C492 1.483 . S
C498 C499 1.382 . S
C498 C500 1.403 . S
C499 H478 0.950 . S
C499 C498 1.382 . S
C499 C515 1.411 . S
C500 C498 1.403 . S
C500 C501 1.489 . S
C500 C514 1.411 . S
C501 C500 1.489 . S
C501 C502 1.383 . S
C501 C506 1.382 . S
C502 H479 0.950 . S
C502 C501 1.383 . S
C502 C503 1.395 . S
C503 H480 0.950 . S
C503 C502 1.395 . S
C503 C504 1.288 . S
C504 C503 1.288 . S
C504 C505 1.392 . S
C505 H481 0.951 . S
C505 C504 1.392 . S
C505 C506 1.392 . S
C506 H482 0.949 . S
C506 C501 1.382 . S
C506 C505 1.392 . S
C507 C508 1.376 . S
C507 C512 1.386 . S
C507 C513 1.483 . S
C508 H483 0.949 . S
C508 C507 1.376 . S
C508 C509 1.397 . S
C509 H484 0.950 . S
C509 C508 1.397 . S
C509 C510 1.391 . S
C510 C509 1.391 . S
C510 C511 1.405 . S
C511 H485 0.950 . S
C511 C510 1.405 . S
C511 C512 1.367 . S
C512 H486 0.950 . S
C512 C507 1.386 . S
C512 C511 1.367 . S
C513 C507 1.483 . S
C513 C514 1.382 . S
C513 C515 1.403 . S
C514 H487 0.950 . S
C514 C500 1.411 . S
C514 C513 1.382 . S
C515 C499 1.411 . S
C515 C513 1.403 . S
C515 C516 1.489 . S
C516 C515 1.489 . S
C516 C517 1.383 . S
C516 C521 1.382 . S
C517 H488 0.950 . S
C517 C516 1.383 . S
C517 C518 1.395 . S
C518 H489 0.950 . S
C518 C517 1.395 . S
C518 C519 1.288 . S
C519 C518 1.288 . S
C519 C520 1.392 . S
C520 H490 0.951 . S
C520 C519 1.392 . S
C520 C521 1.392 . S
C521 H491 0.949 . S
C521 C516 1.382 . S
C521 C520 1.392 . S
H522 C541 0.949 . S
H523 C542 0.950 . S
H524 C544 0.950 . S
H525 C545 0.950 . S
H526 C547 0.950 . S
H527 C550 0.950 . S
H528 C551 0.950 . S
H529 C553 0.951 . S
H530 C554 0.949 . S
H531 C556 0.949 . S
H532 C557 0.950 . S
H533 C559 0.950 . S
H534 C560 0.950 . S
H535 C562 0.950 . S
H536 C565 0.950 . S
H537 C566 0.950 . S
H538 C568 0.951 . S
H539 C569 0.949 . S
C540 C541 1.376 . S
C540 C545 1.386 . S
C540 C546 1.483 . S
C541 H522 0.949 . S
C541 C540 1.376 . S
C541 C542 1.397 . S
C542 H523 0.950 . S
C542 C541 1.397 . S
C542 C543 1.391 . S
C543 C542 1.391 . S
C543 C544 1.405 . S
C544 H524 0.950 . S
C544 C543 1.405 . S
C544 C545 1.367 . S
C545 H525 0.950 . S
C545 C540 1.386 . S
C545 C544 1.367 . S
C546 C540 1.483 . S
C546 C547 1.382 . S
C546 C548 1.403 . S
C547 H526 0.950 . S
C547 C546 1.382 . S
C547 C563 1.411 . S
C548 C546 1.403 . S
C548 C549 1.489 . S
C548 C562 1.411 . S
C549 C548 1.489 . S
C549 C550 1.383 . S
C549 C554 1.382 . S
C550 H527 0.950 . S
C550 C549 1.383 . S
C550 C551 1.395 . S
C551 H528 0.950 . S
C551 C550 1.395 . S
C551 C552 1.288 . S
C552 C551 1.288 . S
C552 C553 1.392 . S
C553 H529 0.951 . S
C553 C552 1.392 . S
C553 C554 1.392 . S
C554 H530 0.949 . S
C554 C549 1.382 . S
C554 C553 1.392 . S
C555 C556 1.376 . S
C555 C560 1.386 . S
C555 C561 1.483 . S
C556 H531 0.949 . S
C556 C555 1.376 . S
C556 C557 1.397 . S
C557 H532 0.950 . S
C557 C556 1.397 . S
C557 C558 1.391 . S
C558 C557 1.391 . S
C558 C559 1.405 . S
C559 H533 0.950 . S
C559 C558 1.405 . S
C559 C560 1.367 . S
C560 H534 0.950 . S
C560 C555 1.386 . S
C560 C559 1.367 . S
C561 C555 1.483 . S
C561 C562 1.382 . S
C561 C563 1.403 . S
C562 H535 0.950 . S
C562 C548 1.411 . S
C562 C561 1.382 . S
C563 C547 1.411 . S
C563 C561 1.403 . S
C563 C564 1.489 . S
C564 C563 1.489 . S
C564 C565 1.383 . S
C564 C569 1.382 . S
C565 H536 0.950 . S
C565 C564 1.383 . S
C565 C566 1.395 . S
C566 H537 0.950 . S
C566 C565 1.395 . S
C566 C567 1.288 . S
C567 C566 1.288 . S
C567 C568 1.392 . S
C568 H538 0.951 . S
C568 C567 1.392 . S
C568 C569 1.392 . S
C569 H539 0.949 . S
C569 C564 1.382 . S
C569 C568 1.392 . S
H570 C589 0.949 . S
H571 C590 0.950 . S
H572 C592 0.950 . S
H573 C593 0.950 . S
H574 C595 0.950 . S
H575 C598 0.950 . S
H576 C599 0.950 . S
H577 C601 0.951 . S
H578 C602 0.949 . S
H579 C604 0.949 . S
H580 C605 0.950 . S
H581 C607 0.950 . S
H582 C608 0.950 . S
H583 C610 0.950 . S
H584 C613 0.950 . S
H585 C614 0.950 . S
H586 C616 0.951 . S
H587 C617 0.949 . S
C588 C589 1.376 . S
C588 C593 1.386 . S
C588 C594 1.483 . S
C589 H570 0.949 . S
C589 C588 1.376 . S
C589 C590 1.397 . S
C590 H571 0.950 . S
C590 C589 1.397 . S
C590 C591 1.391 . S
C591 C590 1.391 . S
C591 C592 1.405 . S
C592 H572 0.950 . S
C592 C591 1.405 . S
C592 C593 1.367 . S
C593 H573 0.950 . S
C593 C588 1.386 . S
C593 C592 1.367 . S
C594 C588 1.483 . S
C594 C595 1.382 . S
C594 C596 1.403 . S
C595 H574 0.950 . S
C595 C594 1.382 . S
C595 C611 1.411 . S
C596 C594 1.403 . S
C596 C597 1.489 . S
C596 C610 1.411 . S
C597 C596 1.489 . S
C597 C598 1.383 . S
C597 C602 1.382 . S
C598 H575 0.950 . S
C598 C597 1.383 . S
C598 C599 1.395 . S
C599 H576 0.950 . S
C599 C598 1.395 . S
C599 C600 1.288 . S
C600 C599 1.288 . S
C600 C601 1.392 . S
C601 H577 0.951 . S
C601 C600 1.392 . S
C601 C602 1.392 . S
C602 H578 0.949 . S
C602 C597 1.382 . S
C602 C601 1.392 . S
C603 C604 1.376 . S
C603 C608 1.386 . S
C603 C609 1.483 . S
C604 H579 0.949 . S
C604 C603 1.376 . S
C604 C605 1.397 . S
C605 H580 0.950 . S
C605 C604 1.397 . S
C605 C606 1.391 . S
C606 C605 1.391 . S
C606 C607 1.405 . S
C607 H581 0.950 . S
C607 C606 1.405 . S
C607 C608 1.367 . S
C608 H582 0.950 . S
C608 C603 1.386 . S
C608 C607 1.367 . S
C609 C603 1.483 . S
C609 C610 1.382 . S
C609 C611 1.403 . S
C610 H583 0.950 . S
C610 C596 1.411 . S
C610 C609 1.382 . S
C611 C595 1.411 . S
C611 C609 1.403 . S
C611 C612 1.489 . S
C612 C611 1.489 . S
C612 C613 1.383 . S
C612 C617 1.382 . S
C613 H584 0.950 . S
C613 C612 1.383 . S
C613 C614 1.395 . S
C614 H585 0.950 . S
C614 C613 1.395 . S
C614 C615 1.288 . S
C615 C614 1.288 . S
C615 C616 1.392 . S
C616 H586 0.951 . S
C616 C615 1.392 . S
C616 C617 1.392 . S
C617 H587 0.949 . S
C617 C612 1.382 . S
C617 C616 1.392 . S
H618 C637 0.949 . S
H619 C638 0.950 . S
H620 C640 0.950 . S
H621 C641 0.950 . S
H622 C643 0.950 . S
H623 C646 0.950 . S
H624 C647 0.950 . S
H625 C649 0.951 . S
H626 C650 0.949 . S
H627 C652 0.949 . S
H628 C653 0.950 . S
H629 C655 0.950 . S
H630 C656 0.950 . S
H631 C658 0.950 . S
H632 C661 0.950 . S
H633 C662 0.950 . S
H634 C664 0.951 . S
H635 C665 0.949 . S
C636 C637 1.376 . S
C636 C641 1.386 . S
C636 C642 1.483 . S
C637 H618 0.949 . S
C637 C636 1.376 . S
C637 C638 1.397 . S
C638 H619 0.950 . S
C638 C637 1.397 . S
C638 C639 1.391 . S
C639 C638 1.391 . S
C639 C640 1.405 . S
C640 H620 0.950 . S
C640 C639 1.405 . S
C640 C641 1.367 . S
C641 H621 0.950 . S
C641 C636 1.386 . S
C641 C640 1.367 . S
C642 C636 1.483 . S
C642 C643 1.382 . S
C642 C644 1.403 . S
C643 H622 0.950 . S
C643 C642 1.382 . S
C643 C659 1.411 . S
C644 C642 1.403 . S
C644 C645 1.489 . S
C644 C658 1.411 . S
C645 C644 1.489 . S
C645 C646 1.383 . S
C645 C650 1.382 . S
C646 H623 0.950 . S
C646 C645 1.383 . S
C646 C647 1.395 . S
C647 H624 0.950 . S
C647 C646 1.395 . S
C647 C648 1.288 . S
C648 C647 1.288 . S
C648 C649 1.392 . S
C649 H625 0.951 . S
C649 C648 1.392 . S
C649 C650 1.392 . S
C650 H626 0.949 . S
C650 C645 1.382 . S
C650 C649 1.392 . S
C651 C652 1.376 . S
C651 C656 1.386 . S
C651 C657 1.483 . S
C652 H627 0.949 . S
C652 C651 1.376 . S
C652 C653 1.397 . S
C653 H628 0.950 . S
C653 C652 1.397 . S
C653 C654 1.391 . S
C654 C653 1.391 . S
C654 C655 1.405 . S
C655 H629 0.950 . S
C655 C654 1.405 . S
C655 C656 1.367 . S
C656 H630 0.950 . S
C656 C651 1.386 . S
C656 C655 1.367 . S
C657 C651 1.483 . S
C657 C658 1.382 . S
C657 C659 1.403 . S
C658 H631 0.950 . S
C658 C644 1.411 . S
C658 C657 1.382 . S
C659 C643 1.411 . S
C659 C657 1.403 . S
C659 C660 1.489 . S
C660 C659 1.489 . S
C660 C661 1.383 . S
C660 C665 1.382 . S
C661 H632 0.950 . S
C661 C660 1.383 . S
C661 C662 1.395 . S
C662 H633 0.950 . S
C662 C661 1.395 . S
C662 C663 1.288 . S
C663 C662 1.288 . S
C663 C664 1.392 . S
C664 H634 0.951 . S
C664 C663 1.392 . S
C664 C665 1.392 . S
C665 H635 0.949 . S
C665 C660 1.382 . S
C665 C664 1.392 . S
H666 C685 0.949 . S
H667 C686 0.950 . S
H668 C688 0.950 . S
H669 C689 0.950 . S
H670 C691 0.950 . S
H671 C694 0.950 . S
H672 C695 0.950 . S
H673 C697 0.951 . S
H674 C698 0.949 . S
H675 C700 0.949 . S
H676 C701 0.950 . S
H677 C703 0.950 . S
H678 C704 0.950 . S
H679 C706 0.950 . S
H680 C709 0.950 . S
H681 C710 0.950 . S
H682 C712 0.951 . S
H683 C713 0.949 . S
C684 C685 1.376 . S
C684 C689 1.386 1_655 S
C684 C690 1.483 . S
C685 H666 0.949 . S
C685 C684 1.376 . S
C685 C686 1.397 . S
C686 H667 0.950 . S
C686 C685 1.397 . S
C686 C687 1.391 . S
C687 C686 1.391 . S
C687 C688 1.405 1_655 S
C688 H668 0.950 . S
C688 C687 1.405 1_455 S
C688 C689 1.367 . S
C689 H669 0.950 . S
C689 C684 1.386 1_455 S
C689 C688 1.367 . S
C690 C684 1.483 . S
C690 C691 1.382 . S
C690 C692 1.403 1_655 S
C691 H670 0.950 . S
C691 C690 1.382 . S
C691 C707 1.411 . S
C692 C690 1.403 1_455 S
C692 C693 1.489 . S
C692 C706 1.411 . S
C693 C692 1.489 . S
C693 C694 1.383 1_455 S
C693 C698 1.382 . S
C694 H671 0.950 . S
C694 C693 1.383 1_655 S
C694 C695 1.395 . S
C695 H672 0.950 . S
C695 C694 1.395 . S
C695 C696 1.288 1_655 S
C696 C695 1.288 1_455 S
C696 C697 1.392 . S
C697 H673 0.951 . S
C697 C696 1.392 . S
C697 C698 1.392 . S
C698 H674 0.949 . S
C698 C693 1.382 . S
C698 C697 1.392 . S
C699 C700 1.376 . S
C699 C704 1.386 1_455 S
C699 C705 1.483 . S
C700 H675 0.949 . S
C700 C699 1.376 . S
C700 C701 1.397 . S
C701 H676 0.950 . S
C701 C700 1.397 . S
C701 C702 1.391 . S
C702 C701 1.391 . S
C702 C703 1.405 1_455 S
C703 H677 0.950 . S
C703 C702 1.405 1_655 S
C703 C704 1.367 . S
C704 H678 0.950 . S
C704 C699 1.386 1_655 S
C704 C703 1.367 . S
C705 C699 1.483 . S
C705 C706 1.382 . S
C705 C707 1.403 1_455 S
C706 H679 0.950 . S
C706 C692 1.411 . S
C706 C705 1.382 . S
C707 C691 1.411 . S
C707 C705 1.403 1_655 S
C707 C708 1.489 . S
C708 C707 1.489 . S
C708 C709 1.383 1_655 S
C708 C713 1.382 . S
C709 H680 0.950 . S
C709 C708 1.383 1_455 S
C709 C710 1.395 . S
C710 H681 0.950 . S
C710 C709 1.395 . S
C710 C711 1.288 1_455 S
C711 C710 1.288 1_655 S
C711 C712 1.392 . S
C712 H682 0.951 . S
C712 C711 1.392 . S
C712 C713 1.392 . S
C713 H683 0.949 . S
C713 C708 1.382 . S
C713 C712 1.392 . S
H714 C733 0.949 . S
H715 C734 0.950 . S
H716 C736 0.950 . S
H717 C737 0.950 . S
H718 C739 0.950 . S
H719 C742 0.950 . S
H720 C743 0.950 . S
H721 C745 0.951 . S
H722 C746 0.949 . S
H723 C748 0.949 . S
H724 C749 0.950 . S
H725 C751 0.950 . S
H726 C752 0.950 . S
H727 C754 0.950 . S
H728 C757 0.950 . S
H729 C758 0.950 . S
H730 C760 0.951 . S
H731 C761 0.949 . S
C732 C733 1.376 . S
C732 C737 1.386 . S
C732 C738 1.483 . S
C733 H714 0.949 . S
C733 C732 1.376 . S
C733 C734 1.397 . S
C734 H715 0.950 . S
C734 C733 1.397 . S
C734 C735 1.391 . S
C735 C734 1.391 . S
C735 C736 1.405 . S
C736 H716 0.950 . S
C736 C735 1.405 . S
C736 C737 1.367 . S
C737 H717 0.950 . S
C737 C732 1.386 . S
C737 C736 1.367 . S
C738 C732 1.483 . S
C738 C739 1.382 . S
C738 C740 1.403 . S
C739 H718 0.950 . S
C739 C738 1.382 . S
C739 C755 1.411 . S
C740 C738 1.403 . S
C740 C741 1.489 . S
C740 C754 1.411 . S
C741 C740 1.489 . S
C741 C742 1.383 . S
C741 C746 1.382 . S
C742 H719 0.950 . S
C742 C741 1.383 . S
C742 C743 1.395 . S
C743 H720 0.950 . S
C743 C742 1.395 . S
C743 C744 1.288 . S
C744 C743 1.288 . S
C744 C745 1.392 . S
C745 H721 0.951 . S
C745 C744 1.392 . S
C745 C746 1.392 . S
C746 H722 0.949 . S
C746 C741 1.382 . S
C746 C745 1.392 . S
C747 C748 1.376 . S
C747 C752 1.386 . S
C747 C753 1.483 . S
C748 H723 0.949 . S
C748 C747 1.376 . S
C748 C749 1.397 . S
C749 H724 0.950 . S
C749 C748 1.397 . S
C749 C750 1.391 . S
C750 C749 1.391 . S
C750 C751 1.405 . S
C751 H725 0.950 . S
C751 C750 1.405 . S
C751 C752 1.367 . S
C752 H726 0.950 . S
C752 C747 1.386 . S
C752 C751 1.367 . S
C753 C747 1.483 . S
C753 C754 1.382 . S
C753 C755 1.403 . S
C754 H727 0.950 . S
C754 C740 1.411 . S
C754 C753 1.382 . S
C755 C739 1.411 . S
C755 C753 1.403 . S
C755 C756 1.489 . S
C756 C755 1.489 . S
C756 C757 1.383 . S
C756 C761 1.382 . S
C757 H728 0.950 . S
C757 C756 1.383 . S
C757 C758 1.395 . S
C758 H729 0.950 . S
C758 C757 1.395 . S
C758 C759 1.288 . S
C759 C758 1.288 . S
C759 C760 1.392 . S
C760 H730 0.951 . S
C760 C759 1.392 . S
C760 C761 1.392 . S
C761 H731 0.949 . S
C761 C756 1.382 . S
C761 C760 1.392 . S
H762 C781 0.949 . S
H763 C782 0.950 . S
H764 C784 0.950 . S
H765 C785 0.950 . S
H766 C787 0.950 . S
H767 C790 0.950 . S
H768 C791 0.950 . S
H769 C793 0.951 . S
H770 C794 0.949 . S
H771 C796 0.949 . S
H772 C797 0.950 . S
H773 C799 0.950 . S
H774 C800 0.950 . S
H775 C802 0.950 . S
H776 C805 0.950 . S
H777 C806 0.950 . S
H778 C808 0.951 . S
H779 C809 0.949 . S
C780 C781 1.376 . S
C780 C785 1.386 1_545 S
C780 C786 1.483 . S
C781 H762 0.949 . S
C781 C780 1.376 . S
C781 C782 1.397 . S
C782 H763 0.950 . S
C782 C781 1.397 . S
C782 C783 1.391 . S
C783 C782 1.391 . S
C783 C784 1.405 1_545 S
C784 H764 0.950 . S
C784 C783 1.405 1_565 S
C784 C785 1.367 . S
C785 H765 0.950 . S
C785 C780 1.386 1_565 S
C785 C784 1.367 . S
C786 C780 1.483 . S
C786 C787 1.382 . S
C786 C788 1.403 1_545 S
C787 H766 0.950 . S
C787 C786 1.382 . S
C787 C803 1.411 . S
C788 C786 1.403 1_565 S
C788 C789 1.489 . S
C788 C802 1.411 . S
C789 C788 1.489 . S
C789 C790 1.383 1_565 S
C789 C794 1.382 . S
C790 H767 0.950 . S
C790 C789 1.383 1_545 S
C790 C791 1.395 . S
C791 H768 0.950 . S
C791 C790 1.395 . S
C791 C792 1.288 1_545 S
C792 C791 1.288 1_565 S
C792 C793 1.392 . S
C793 H769 0.951 . S
C793 C792 1.392 . S
C793 C794 1.392 . S
C794 H770 0.949 . S
C794 C789 1.382 . S
C794 C793 1.392 . S
C795 C796 1.376 . S
C795 C800 1.386 1_565 S
C795 C801 1.483 . S
C796 H771 0.949 . S
C796 C795 1.376 . S
C796 C797 1.397 . S
C797 H772 0.950 . S
C797 C796 1.397 . S
C797 C798 1.391 . S
C798 C797 1.391 . S
C798 C799 1.405 1_565 S
C799 H773 0.950 . S
C799 C798 1.405 1_545 S
C799 C800 1.367 . S
C800 H774 0.950 . S
C800 C795 1.386 1_545 S
C800 C799 1.367 . S
C801 C795 1.483 . S
C801 C802 1.382 . S
C801 C803 1.403 1_565 S
C802 H775 0.950 . S
C802 C788 1.411 . S
C802 C801 1.382 . S
C803 C787 1.411 . S
C803 C801 1.403 1_545 S
C803 C804 1.489 . S
C804 C803 1.489 . S
C804 C805 1.383 1_545 S
C804 C809 1.382 . S
C805 H776 0.950 . S
C805 C804 1.383 1_565 S
C805 C806 1.395 . S
C806 H777 0.950 . S
C806 C805 1.395 . S
C806 C807 1.288 1_565 S
C807 C806 1.288 1_545 S
C807 C808 1.392 . S
C808 H778 0.951 . S
C808 C807 1.392 . S
C808 C809 1.392 . S
C809 H779 0.949 . S
C809 C804 1.382 . S
C809 C808 1.392 . S
H810 C829 0.949 . S
H811 C830 0.950 . S
H812 C832 0.950 . S
H813 C833 0.950 . S
H814 C835 0.950 . S
H815 C838 0.950 . S
H816 C839 0.950 . S
H817 C841 0.951 . S
H818 C842 0.949 . S
H819 C844 0.949 . S
H820 C845 0.950 . S
H821 C847 0.950 . S
H822 C848 0.950 . S
H823 C850 0.950 . S
H824 C853 0.950 . S
H825 C854 0.950 . S
H826 C856 0.951 . S
H827 C857 0.949 . S
C828 C829 1.382 . S
C828 C833 1.383 1_545 S
C828 C834 1.505 . S
C829 H810 0.949 . S
C829 C828 1.382 . S
C829 C830 1.397 . S
C830 H811 0.950 . S
C830 C829 1.397 . S
C830 C831 1.391 1_545 S
C831 C830 1.391 1_565 S
C831 C832 1.405 . S
C832 H812 0.950 . S
C832 C831 1.405 . S
C832 C833 1.367 . S
C833 H813 0.950 . S
C833 C828 1.383 1_565 S
C833 C832 1.367 . S
C834 C828 1.505 . S
C834 C835 1.359 . S
C834 C836 1.398 1_545 S
C835 H814 0.950 . S
C835 C834 1.359 . S
C835 C851 1.444 . S
C836 C834 1.398 1_565 S
C836 C837 1.484 . S
C836 C850 1.435 . S
C837 C836 1.484 . S
C837 C838 1.348 1_565 S
C837 C842 1.401 . S
C838 H815 0.950 . S
C838 C837 1.348 1_545 S
C838 C839 1.395 . S
C839 H816 0.950 . S
C839 C838 1.395 . S
C839 C840 1.288 . S
C840 C839 1.288 . S
C840 C841 1.392 1_545 S
C841 H817 0.951 . S
C841 C840 1.392 1_565 S
C841 C842 1.392 . S
C842 H818 0.949 . S
C842 C837 1.401 . S
C842 C841 1.392 . S
C843 C844 1.369 . S
C843 C848 1.389 1_565 S
C843 C849 1.505 . S
C844 H819 0.949 . S
C844 C843 1.369 . S
C844 C845 1.397 . S
C845 H820 0.950 . S
C845 C844 1.397 . S
C845 C846 1.391 1_565 S
C846 C845 1.391 1_545 S
C846 C847 1.405 . S
C847 H821 0.950 . S
C847 C846 1.405 . S
C847 C848 1.367 . S
C848 H822 0.950 . S
C848 C843 1.389 1_545 S
C848 C847 1.367 . S
C849 C843 1.505 . S
C849 C850 1.365 . S
C849 C851 1.398 1_565 S
C850 H823 0.950 . S
C850 C836 1.435 . S
C850 C849 1.365 . S
C851 C835 1.444 . S
C851 C849 1.398 1_545 S
C851 C852 1.484 . S
C852 C851 1.484 . S
C852 C853 1.332 1_545 S
C852 C857 1.410 . S
C853 H824 0.950 . S
C853 C852 1.332 1_565 S
C853 C854 1.395 . S
C854 H825 0.950 . S
C854 C853 1.395 . S
C854 C855 1.288 . S
C855 C854 1.288 . S
C855 C856 1.392 1_565 S
C856 H826 0.951 . S
C856 C855 1.392 1_545 S
C856 C857 1.392 . S
C857 H827 0.949 . S
C857 C852 1.410 . S
C857 C856 1.392 . S
H858 C877 0.949 . S
H859 C878 0.950 . S
H860 C880 0.950 . S
H861 C881 0.950 . S
H862 C883 0.950 . S
H863 C886 0.950 . S
H864 C887 0.950 . S
H865 C889 0.951 . S
H866 C890 0.949 . S
H867 C892 0.949 . S
H868 C893 0.950 . S
H869 C895 0.950 . S
H870 C896 0.950 . S
H871 C898 0.950 . S
H872 C901 0.950 . S
H873 C902 0.950 . S
H874 C904 0.951 . S
H875 C905 0.949 . S
C876 C877 1.376 . S
C876 C881 1.386 1_455 S
C876 C882 1.483 . S
C877 H858 0.949 . S
C877 C876 1.376 . S
C877 C878 1.397 . S
C878 H859 0.950 . S
C878 C877 1.397 . S
C878 C879 1.391 . S
C879 C878 1.391 . S
C879 C880 1.405 1_455 S
C880 H860 0.950 . S
C880 C879 1.405 1_655 S
C880 C881 1.367 . S
C881 H861 0.950 . S
C881 C876 1.386 1_655 S
C881 C880 1.367 . S
C882 C876 1.483 . S
C882 C883 1.382 . S
C882 C884 1.403 1_455 S
C883 H862 0.950 . S
C883 C882 1.382 . S
C883 C899 1.411 . S
C884 C882 1.403 1_655 S
C884 C885 1.489 . S
C884 C898 1.411 . S
C885 C884 1.489 . S
C885 C886 1.383 1_655 S
C885 C890 1.382 . S
C886 H863 0.950 . S
C886 C885 1.383 1_455 S
C886 C887 1.395 . S
C887 H864 0.950 . S
C887 C886 1.395 . S
C887 C888 1.288 1_455 S
C888 C887 1.288 1_655 S
C888 C889 1.392 . S
C889 H865 0.951 . S
C889 C888 1.392 . S
C889 C890 1.392 . S
C890 H866 0.949 . S
C890 C885 1.382 . S
C890 C889 1.392 . S
C891 C892 1.376 . S
C891 C896 1.386 1_655 S
C891 C897 1.483 . S
C892 H867 0.949 . S
C892 C891 1.376 . S
C892 C893 1.397 . S
C893 H868 0.950 . S
C893 C892 1.397 . S
C893 C894 1.391 . S
C894 C893 1.391 . S
C894 C895 1.405 1_655 S
C895 H869 0.950 . S
C895 C894 1.405 1_455 S
C895 C896 1.367 . S
C896 H870 0.950 . S
C896 C891 1.386 1_455 S
C896 C895 1.367 . S
C897 C891 1.483 . S
C897 C898 1.382 . S
C897 C899 1.403 1_655 S
C898 H871 0.950 . S
C898 C884 1.411 . S
C898 C897 1.382 . S
C899 C883 1.411 . S
C899 C897 1.403 1_455 S
C899 C900 1.489 . S
C900 C899 1.489 . S
C900 C901 1.383 1_455 S
C900 C905 1.382 . S
C901 H872 0.950 . S
C901 C900 1.383 1_655 S
C901 C902 1.395 . S
C902 H873 0.950 . S
C902 C901 1.395 . S
C902 C903 1.288 1_655 S
C903 C902 1.288 1_455 S
C903 C904 1.392 . S
C904 H874 0.951 . S
C904 C903 1.392 . S
C904 C905 1.392 . S
C905 H875 0.949 . S
C905 C900 1.382 . S
C905 C904 1.392 . S
H906 C925 0.949 . S
H907 C926 0.950 . S
H908 C928 0.950 . S
H909 C929 0.950 . S
H910 C931 0.950 . S
H911 C934 0.950 . S
H912 C935 0.950 . S
H913 C937 0.951 . S
H914 C938 0.949 . S
H915 C940 0.949 . S
H916 C941 0.950 . S
H917 C943 0.950 . S
H918 C944 0.950 . S
H919 C946 0.950 . S
H920 C949 0.950 . S
H921 C950 0.950 . S
H922 C952 0.951 . S
H923 C953 0.949 . S
C924 C925 1.376 . S
C924 C929 1.386 . S
C924 C930 1.483 . S
C925 H906 0.949 . S
C925 C924 1.376 . S
C925 C926 1.397 . S
C926 H907 0.950 . S
C926 C925 1.397 . S
C926 C927 1.391 . S
C927 C926 1.391 . S
C927 C928 1.405 . S
C928 H908 0.950 . S
C928 C927 1.405 . S
C928 C929 1.367 . S
C929 H909 0.950 . S
C929 C924 1.386 . S
C929 C928 1.367 . S
C930 C924 1.483 . S
C930 C931 1.382 . S
C930 C932 1.403 . S
C931 H910 0.950 . S
C931 C930 1.382 . S
C931 C947 1.411 . S
C932 C930 1.403 . S
C932 C933 1.489 . S
C932 C946 1.411 . S
C933 C932 1.489 . S
C933 C934 1.383 . S
C933 C938 1.382 . S
C934 H911 0.950 . S
C934 C933 1.383 . S
C934 C935 1.395 . S
C935 H912 0.950 . S
C935 C934 1.395 . S
C935 C936 1.288 . S
C936 C935 1.288 . S
C936 C937 1.392 . S
C937 H913 0.951 . S
C937 C936 1.392 . S
C937 C938 1.392 . S
C938 H914 0.949 . S
C938 C933 1.382 . S
C938 C937 1.392 . S
C939 C940 1.376 . S
C939 C944 1.386 . S
C939 C945 1.483 . S
C940 H915 0.949 . S
C940 C939 1.376 . S
C940 C941 1.397 . S
C941 H916 0.950 . S
C941 C940 1.397 . S
C941 C942 1.391 . S
C942 C941 1.391 . S
C942 C943 1.405 . S
C943 H917 0.950 . S
C943 C942 1.405 . S
C943 C944 1.367 . S
C944 H918 0.950 . S
C944 C939 1.386 . S
C944 C943 1.367 . S
C945 C939 1.483 . S
C945 C946 1.382 . S
C945 C947 1.403 . S
C946 H919 0.950 . S
C946 C932 1.411 . S
C946 C945 1.382 . S
C947 C931 1.411 . S
C947 C945 1.403 . S
C947 C948 1.489 . S
C948 C947 1.489 . S
C948 C949 1.383 . S
C948 C953 1.382 . S
C949 H920 0.950 . S
C949 C948 1.383 . S
C949 C950 1.395 . S
C950 H921 0.950 . S
C950 C949 1.395 . S
C950 C951 1.288 . S
C951 C950 1.288 . S
C951 C952 1.392 . S
C952 H922 0.951 . S
C952 C951 1.392 . S
C952 C953 1.392 . S
C953 H923 0.949 . S
C953 C948 1.382 . S
C953 C952 1.392 . S
H954 C973 0.949 . S
H955 C974 0.950 . S
H956 C976 0.950 . S
H957 C977 0.950 . S
H958 C979 0.950 . S
H959 C982 0.950 . S
H960 C983 0.950 . S
H961 C985 0.951 . S
H962 C986 0.949 . S
H963 C988 0.949 . S
H964 C989 0.950 . S
H965 C991 0.950 . S
H966 C992 0.950 . S
H967 C994 0.950 . S
H968 C997 0.950 . S
H969 C998 0.950 . S
H970 C1000 0.951 . S
H971 C1001 0.949 . S
C972 C973 1.376 . S
C972 C977 1.386 . S
C972 C978 1.483 . S
C973 H954 0.949 . S
C973 C972 1.376 . S
C973 C974 1.397 . S
C974 H955 0.950 . S
C974 C973 1.397 . S
C974 C975 1.391 . S
C975 C974 1.391 . S
C975 C976 1.405 . S
C976 H956 0.950 . S
C976 C975 1.405 . S
C976 C977 1.367 . S
C977 H957 0.950 . S
C977 C972 1.386 . S
C977 C976 1.367 . S
C978 C972 1.483 . S
C978 C979 1.382 . S
C978 C980 1.403 . S
C979 H958 0.950 . S
C979 C978 1.382 . S
C979 C995 1.411 . S
C980 C978 1.403 . S
C980 C981 1.489 . S
C980 C994 1.411 . S
C981 C980 1.489 . S
C981 C982 1.383 . S
C981 C986 1.382 . S
C982 H959 0.950 . S
C982 C981 1.383 . S
C982 C983 1.395 . S
C983 H960 0.950 . S
C983 C982 1.395 . S
C983 C984 1.288 . S
C984 C983 1.288 . S
C984 C985 1.392 . S
C985 H961 0.951 . S
C985 C984 1.392 . S
C985 C986 1.392 . S
C986 H962 0.949 . S
C986 C981 1.382 . S
C986 C985 1.392 . S
C987 C988 1.376 . S
C987 C992 1.386 . S
C987 C993 1.483 . S
C988 H963 0.949 . S
C988 C987 1.376 . S
C988 C989 1.397 . S
C989 H964 0.950 . S
C989 C988 1.397 . S
C989 C990 1.391 . S
C990 C989 1.391 . S
C990 C991 1.405 . S
C991 H965 0.950 . S
C991 C990 1.405 . S
C991 C992 1.367 . S
C992 H966 0.950 . S
C992 C987 1.386 . S
C992 C991 1.367 . S
C993 C987 1.483 . S
C993 C994 1.382 . S
C993 C995 1.403 . S
C994 H967 0.950 . S
C994 C980 1.411 . S
C994 C993 1.382 . S
C995 C979 1.411 . S
C995 C993 1.403 . S
C995 C996 1.489 . S
C996 C995 1.489 . S
C996 C997 1.383 . S
C996 C1001 1.382 . S
C997 H968 0.950 . S
C997 C996 1.383 . S
C997 C998 1.395 . S
C998 H969 0.950 . S
C998 C997 1.395 . S
C998 C999 1.288 . S
C999 C998 1.288 . S
C999 C1000 1.392 . S
C1000 H970 0.951 . S
C1000 C999 1.392 . S
C1000 C1001 1.392 . S
C1001 H971 0.949 . S
C1001 C996 1.382 . S
C1001 C1000 1.392 . S
H1002 C1021 0.949 . S
H1003 C1022 0.950 . S
H1004 C1024 0.950 . S
H1005 C1025 0.950 . S
H1006 C1027 0.950 . S
H1007 C1030 0.950 . S
H1008 C1031 0.950 . S
H1009 C1033 0.951 . S
H1010 C1034 0.949 . S
H1011 C1036 0.949 . S
H1012 C1037 0.950 . S
H1013 C1039 0.950 . S
H1014 C1040 0.950 . S
H1015 C1042 0.950 . S
H1016 C1045 0.950 . S
H1017 C1046 0.950 . S
H1018 C1048 0.951 . S
H1019 C1049 0.949 . S
C1020 C1021 1.376 . S
C1020 C1025 1.386 . S
C1020 C1026 1.483 . S
C1021 H1002 0.949 . S
C1021 C1020 1.376 . S
C1021 C1022 1.397 . S
C1022 H1003 0.950 . S
C1022 C1021 1.397 . S
C1022 C1023 1.391 . S
C1023 C1022 1.391 . S
C1023 C1024 1.405 . S
C1024 H1004 0.950 . S
C1024 C1023 1.405 . S
C1024 C1025 1.367 . S
C1025 H1005 0.950 . S
C1025 C1020 1.386 . S
C1025 C1024 1.367 . S
C1026 C1020 1.483 . S
C1026 C1027 1.382 . S
C1026 C1028 1.403 . S
C1027 H1006 0.950 . S
C1027 C1026 1.382 . S
C1027 C1043 1.411 . S
C1028 C1026 1.403 . S
C1028 C1029 1.489 . S
C1028 C1042 1.411 . S
C1029 C1028 1.489 . S
C1029 C1030 1.383 . S
C1029 C1034 1.382 . S
C1030 H1007 0.950 . S
C1030 C1029 1.383 . S
C1030 C1031 1.395 . S
C1031 H1008 0.950 . S
C1031 C1030 1.395 . S
C1031 C1032 1.288 . S
C1032 C1031 1.288 . S
C1032 C1033 1.392 . S
C1033 H1009 0.951 . S
C1033 C1032 1.392 . S
C1033 C1034 1.392 . S
C1034 H1010 0.949 . S
C1034 C1029 1.382 . S
C1034 C1033 1.392 . S
C1035 C1036 1.376 . S
C1035 C1040 1.386 . S
C1035 C1041 1.483 . S
C1036 H1011 0.949 . S
C1036 C1035 1.376 . S
C1036 C1037 1.397 . S
C1037 H1012 0.950 . S
C1037 C1036 1.397 . S
C1037 C1038 1.391 . S
C1038 C1037 1.391 . S
C1038 C1039 1.405 . S
C1039 H1013 0.950 . S
C1039 C1038 1.405 . S
C1039 C1040 1.367 . S
C1040 H1014 0.950 . S
C1040 C1035 1.386 . S
C1040 C1039 1.367 . S
C1041 C1035 1.483 . S
C1041 C1042 1.382 . S
C1041 C1043 1.403 . S
C1042 H1015 0.950 . S
C1042 C1028 1.411 . S
C1042 C1041 1.382 . S
C1043 C1027 1.411 . S
C1043 C1041 1.403 . S
C1043 C1044 1.489 . S
C1044 C1043 1.489 . S
C1044 C1045 1.383 . S
C1044 C1049 1.382 . S
C1045 H1016 0.950 . S
C1045 C1044 1.383 . S
C1045 C1046 1.395 . S
C1046 H1017 0.950 . S
C1046 C1045 1.395 . S
C1046 C1047 1.288 . S
C1047 C1046 1.288 . S
C1047 C1048 1.392 . S
C1048 H1018 0.951 . S
C1048 C1047 1.392 . S
C1048 C1049 1.392 . S
C1049 H1019 0.949 . S
C1049 C1044 1.382 . S
C1049 C1048 1.392 . S
H1050 C1069 0.949 . S
H1051 C1070 0.950 . S
H1052 C1072 0.950 . S
H1053 C1073 0.950 . S
H1054 C1075 0.950 . S
H1055 C1078 0.950 . S
H1056 C1079 0.950 . S
H1057 C1081 0.951 . S
H1058 C1082 0.949 . S
H1059 C1084 0.949 . S
H1060 C1085 0.950 . S
H1061 C1087 0.950 . S
H1062 C1088 0.950 . S
H1063 C1090 0.950 . S
H1064 C1093 0.950 . S
H1065 C1094 0.950 . S
H1066 C1096 0.951 . S
H1067 C1097 0.949 . S
C1068 C1069 1.376 . S
C1068 C1073 1.386 . S
C1068 C1074 1.483 . S
C1069 H1050 0.949 . S
C1069 C1068 1.376 . S
C1069 C1070 1.397 . S
C1070 H1051 0.950 . S
C1070 C1069 1.397 . S
C1070 C1071 1.391 . S
C1071 C1070 1.391 . S
C1071 C1072 1.405 . S
C1072 H1052 0.950 . S
C1072 C1071 1.405 . S
C1072 C1073 1.367 . S
C1073 H1053 0.950 . S
C1073 C1068 1.386 . S
C1073 C1072 1.367 . S
C1074 C1068 1.483 . S
C1074 C1075 1.382 . S
C1074 C1076 1.403 . S
C1075 H1054 0.950 . S
C1075 C1074 1.382 . S
C1075 C1091 1.411 . S
C1076 C1074 1.403 . S
C1076 C1077 1.489 . S
C1076 C1090 1.411 . S
C1077 C1076 1.489 . S
C1077 C1078 1.383 . S
C1077 C1082 1.382 . S
C1078 H1055 0.950 . S
C1078 C1077 1.383 . S
C1078 C1079 1.395 . S
C1079 H1056 0.950 . S
C1079 C1078 1.395 . S
C1079 C1080 1.288 . S
C1080 C1079 1.288 . S
C1080 C1081 1.392 . S
C1081 H1057 0.951 . S
C1081 C1080 1.392 . S
C1081 C1082 1.392 . S
C1082 H1058 0.949 . S
C1082 C1077 1.382 . S
C1082 C1081 1.392 . S
C1083 C1084 1.376 . S
C1083 C1088 1.386 . S
C1083 C1089 1.483 . S
C1084 H1059 0.949 . S
C1084 C1083 1.376 . S
C1084 C1085 1.397 . S
C1085 H1060 0.950 . S
C1085 C1084 1.397 . S
C1085 C1086 1.391 . S
C1086 C1085 1.391 . S
C1086 C1087 1.405 . S
C1087 H1061 0.950 . S
C1087 C1086 1.405 . S
C1087 C1088 1.367 . S
C1088 H1062 0.950 . S
C1088 C1083 1.386 . S
C1088 C1087 1.367 . S
C1089 C1083 1.483 . S
C1089 C1090 1.382 . S
C1089 C1091 1.403 . S
C1090 H1063 0.950 . S
C1090 C1076 1.411 . S
C1090 C1089 1.382 . S
C1091 C1075 1.411 . S
C1091 C1089 1.403 . S
C1091 C1092 1.489 . S
C1092 C1091 1.489 . S
C1092 C1093 1.383 . S
C1092 C1097 1.382 . S
C1093 H1064 0.950 . S
C1093 C1092 1.383 . S
C1093 C1094 1.395 . S
C1094 H1065 0.950 . S
C1094 C1093 1.395 . S
C1094 C1095 1.288 . S
C1095 C1094 1.288 . S
C1095 C1096 1.392 . S
C1096 H1066 0.951 . S
C1096 C1095 1.392 . S
C1096 C1097 1.392 . S
C1097 H1067 0.949 . S
C1097 C1092 1.382 . S
C1097 C1096 1.392 . S
H1098 C1110 0.930 . S
H1099 C1112 0.930 . S
H1100 C1113 0.930 . S
H1101 C1117 0.959 . S
H1102 C1117 0.959 . S
H1103 C1117 0.961 . S
H1104 C1118 0.960 . S
H1105 C1118 0.961 . S
H1106 C1118 0.959 . S
H1107 C1121 0.929 . S
H1108 C1122 0.931 . S
H1109 C1124 0.930 . S
C1110 H1098 0.930 . S
C1110 C1111 1.399 1_455 S
C1110 C1115 1.399 . S
C1111 C1110 1.399 1_655 S
C1111 C1112 1.376 . S
C1112 H1099 0.930 . S
C1112 C1111 1.376 . S
C1112 C1113 1.388 . S
C1113 H1100 0.930 . S
C1113 C1112 1.388 . S
C1113 C1114 1.390 . S
C1114 C1113 1.390 . S
C1114 C1115 1.394 1_655 S
C1114 C1120 1.465 . S
C1115 C1110 1.399 . S
C1115 C1114 1.394 1_455 S
C1115 C1116 1.516 . S
C1116 C1115 1.516 . S
C1116 C1117 1.502 . S
C1116 C1118 1.561 . S
C1116 C1119 1.526 . S
C1117 H1101 0.959 . S
C1117 H1102 0.959 . S
C1117 H1103 0.961 . S
C1117 C1116 1.502 . S
C1118 H1104 0.960 . S
C1118 H1105 0.961 . S
C1118 H1106 0.959 . S
C1118 C1116 1.561 . S
C1119 C1116 1.526 . S
C1119 C1120 1.396 1_455 S
C1119 C1124 1.390 . S
C1120 C1114 1.465 . S
C1120 C1119 1.396 1_655 S
C1120 C1121 1.399 . S
C1121 H1107 0.929 . S
C1121 C1120 1.399 . S
C1121 C1122 1.385 . S
C1122 H1108 0.931 . S
C1122 C1121 1.385 . S
C1122 C1123 1.389 . S
C1123 C1122 1.389 . S
C1123 C1124 1.387 1_655 S
C1124 H1109 0.930 . S
C1124 C1119 1.390 . S
C1124 C1123 1.387 1_455 S
H1125 C1137 0.930 . S
H1126 C1139 0.930 . S
H1127 C1140 0.930 . S
H1128 C1144 0.959 . S
H1129 C1144 0.959 . S
H1130 C1144 0.961 . S
H1131 C1145 0.960 . S
H1132 C1145 0.961 . S
H1133 C1145 0.959 . S
H1134 C1148 0.929 . S
H1135 C1149 0.931 . S
H1136 C1151 0.930 . S
C1137 H1125 0.930 . S
C1137 C1138 1.399 . S
C1137 C1142 1.399 . S
C1138 C1137 1.399 . S
C1138 C1139 1.376 . S
C1139 H1126 0.930 . S
C1139 C1138 1.376 . S
C1139 C1140 1.388 . S
C1140 H1127 0.930 . S
C1140 C1139 1.388 . S
C1140 C1141 1.390 . S
C1141 C1140 1.390 . S
C1141 C1142 1.394 . S
C1141 C1147 1.465 . S
C1142 C1137 1.399 . S
C1142 C1141 1.394 . S
C1142 C1143 1.516 . S
C1143 C1142 1.516 . S
C1143 C1144 1.502 . S
C1143 C1145 1.561 . S
C1143 C1146 1.526 . S
C1144 H1128 0.959 . S
C1144 H1129 0.959 . S
C1144 H1130 0.961 . S
C1144 C1143 1.502 . S
C1145 H1131 0.960 . S
C1145 H1132 0.961 . S
C1145 H1133 0.959 . S
C1145 C1143 1.561 . S
C1146 C1143 1.526 . S
C1146 C1147 1.396 . S
C1146 C1151 1.390 . S
C1147 C1141 1.465 . S
C1147 C1146 1.396 . S
C1147 C1148 1.399 . S
C1148 H1134 0.929 . S
C1148 C1147 1.399 . S
C1148 C1149 1.385 . S
C1149 H1135 0.931 . S
C1149 C1148 1.385 . S
C1149 C1150 1.389 . S
C1150 C1149 1.389 . S
C1150 C1151 1.387 . S
C1151 H1136 0.930 . S
C1151 C1146 1.390 . S
C1151 C1150 1.387 . S
H1152 C1164 0.930 . S
H1153 C1166 0.930 . S
H1154 C1167 0.930 . S
H1155 C1171 0.959 . S
H1156 C1171 0.959 . S
H1157 C1171 0.961 . S
H1158 C1172 0.960 . S
H1159 C1172 0.961 . S
H1160 C1172 0.959 . S
H1161 C1175 0.929 . S
H1162 C1176 0.931 . S
H1163 C1178 0.930 . S
C1164 H1152 0.930 . S
C1164 C1165 1.399 1_565 S
C1164 C1169 1.399 . S
C1165 C1164 1.399 1_545 S
C1165 C1166 1.376 . S
C1166 H1153 0.930 . S
C1166 C1165 1.376 . S
C1166 C1167 1.388 . S
C1167 H1154 0.930 . S
C1167 C1166 1.388 . S
C1167 C1168 1.390 . S
C1168 C1167 1.390 . S
C1168 C1169 1.394 1_545 S
C1168 C1174 1.465 . S
C1169 C1164 1.399 . S
C1169 C1168 1.394 1_565 S
C1169 C1170 1.516 . S
C1170 C1169 1.516 . S
C1170 C1171 1.502 . S
C1170 C1172 1.561 . S
C1170 C1173 1.526 . S
C1171 H1155 0.959 . S
C1171 H1156 0.959 . S
C1171 H1157 0.961 . S
C1171 C1170 1.502 . S
C1172 H1158 0.960 . S
C1172 H1159 0.961 . S
C1172 H1160 0.959 . S
C1172 C1170 1.561 . S
C1173 C1170 1.526 . S
C1173 C1174 1.396 1_565 S
C1173 C1178 1.390 . S
C1174 C1168 1.465 . S
C1174 C1173 1.396 1_545 S
C1174 C1175 1.399 . S
C1175 H1161 0.929 . S
C1175 C1174 1.399 . S
C1175 C1176 1.385 . S
C1176 H1162 0.931 . S
C1176 C1175 1.385 . S
C1176 C1177 1.389 . S
C1177 C1176 1.389 . S
C1177 C1178 1.387 1_545 S
C1178 H1163 0.930 . S
C1178 C1173 1.390 . S
C1178 C1177 1.387 1_565 S
H1179 C1191 0.930 . S
H1180 C1193 0.930 . S
H1181 C1194 0.930 . S
H1182 C1198 0.959 . S
H1183 C1198 0.959 . S
H1184 C1198 0.961 . S
H1185 C1199 0.960 . S
H1186 C1199 0.961 . S
H1187 C1199 0.959 . S
H1188 C1202 0.929 . S
H1189 C1203 0.931 . S
H1190 C1205 0.930 . S
C1191 H1179 0.930 . S
C1191 C1192 1.399 1_545 S
C1191 C1196 1.399 . S
C1192 C1191 1.399 1_565 S
C1192 C1193 1.376 . S
C1193 H1180 0.930 . S
C1193 C1192 1.376 . S
C1193 C1194 1.388 . S
C1194 H1181 0.930 . S
C1194 C1193 1.388 . S
C1194 C1195 1.390 . S
C1195 C1194 1.390 . S
C1195 C1196 1.394 1_565 S
C1195 C1201 1.465 . S
C1196 C1191 1.399 . S
C1196 C1195 1.394 1_545 S
C1196 C1197 1.516 . S
C1197 C1196 1.516 . S
C1197 C1198 1.502 . S
C1197 C1199 1.561 . S
C1197 C1200 1.526 . S
C1198 H1182 0.959 . S
C1198 H1183 0.959 . S
C1198 H1184 0.961 . S
C1198 C1197 1.502 . S
C1199 H1185 0.960 . S
C1199 H1186 0.961 . S
C1199 H1187 0.959 . S
C1199 C1197 1.561 . S
C1200 C1197 1.526 . S
C1200 C1201 1.396 1_545 S
C1200 C1205 1.390 . S
C1201 C1195 1.465 . S
C1201 C1200 1.396 1_565 S
C1201 C1202 1.399 . S
C1202 H1188 0.929 . S
C1202 C1201 1.399 . S
C1202 C1203 1.385 . S
C1203 H1189 0.931 . S
C1203 C1202 1.385 . S
C1203 C1204 1.389 . S
C1204 C1203 1.389 . S
C1204 C1205 1.387 1_565 S
C1205 H1190 0.930 . S
C1205 C1200 1.390 . S
C1205 C1204 1.387 1_545 S
H1206 C1218 0.930 . S
H1207 C1220 0.930 . S
H1208 C1221 0.930 . S
H1209 C1225 0.959 . S
H1210 C1225 0.959 . S
H1211 C1225 0.961 . S
H1212 C1226 0.960 . S
H1213 C1226 0.961 . S
H1214 C1226 0.959 . S
H1215 C1229 0.929 . S
H1216 C1230 0.900 . S
H1217 C1232 0.930 . S
C1218 H1206 0.930 . S
C1218 C1219 1.400 1_455 S
C1218 C1223 1.399 . S
C1219 C1218 1.400 1_655 S
C1219 C1220 1.371 . S
C1220 H1207 0.930 . S
C1220 C1219 1.371 . S
C1220 C1221 1.388 . S
C1221 H1208 0.930 . S
C1221 C1220 1.388 . S
C1221 C1222 1.390 . S
C1222 C1221 1.390 . S
C1222 C1223 1.394 1_655 S
C1222 C1228 1.452 . S
C1223 C1218 1.399 . S
C1223 C1222 1.394 1_455 S
C1223 C1224 1.516 . S
C1224 C1223 1.516 . S
C1224 C1225 1.502 . S
C1224 C1226 1.561 1_455 S
C1224 C1227 1.526 . S
C1225 H1209 0.959 . S
C1225 H1210 0.959 . S
C1225 H1211 0.961 . S
C1225 C1224 1.502 . S
C1226 H1212 0.960 . S
C1226 H1213 0.961 . S
C1226 H1214 0.959 . S
C1226 C1224 1.561 1_655 S
C1227 C1224 1.526 . S
C1227 C1228 1.382 1_455 S
C1227 C1232 1.390 . S
C1228 C1222 1.452 . S
C1228 C1227 1.382 1_655 S
C1228 C1229 1.423 . S
C1229 H1215 0.929 . S
C1229 C1228 1.423 . S
C1229 C1230 1.383 . S
C1230 H1216 0.900 . S
C1230 C1229 1.383 . S
C1230 C1231 1.386 1_655 S
C1231 C1230 1.386 1_455 S
C1231 C1232 1.387 . S
C1232 H1217 0.930 . S
C1232 C1227 1.390 . S
C1232 C1231 1.387 . S
H1233 C1245 0.930 . S
H1234 C1247 0.930 . S
H1235 C1248 0.930 . S
H1236 C1252 0.959 . S
H1237 C1252 0.959 . S
H1238 C1252 0.961 . S
H1239 C1253 0.960 . S
H1240 C1253 0.961 . S
H1241 C1253 0.959 . S
H1242 C1256 0.929 . S
H1243 C1257 0.931 . S
H1244 C1259 0.930 . S
C1245 H1233 0.930 . S
C1245 C1246 1.399 . S
C1245 C1250 1.399 . S
C1246 C1245 1.399 . S
C1246 C1247 1.376 . S
C1247 H1234 0.930 . S
C1247 C1246 1.376 . S
C1247 C1248 1.388 . S
C1248 H1235 0.930 . S
C1248 C1247 1.388 . S
C1248 C1249 1.390 . S
C1249 C1248 1.390 . S
C1249 C1250 1.394 . S
C1249 C1255 1.465 . S
C1250 C1245 1.399 . S
C1250 C1249 1.394 . S
C1250 C1251 1.516 . S
C1251 C1250 1.516 . S
C1251 C1252 1.502 . S
C1251 C1253 1.561 . S
C1251 C1254 1.526 . S
C1252 H1236 0.959 . S
C1252 H1237 0.959 . S
C1252 H1238 0.961 . S
C1252 C1251 1.502 . S
C1253 H1239 0.960 . S
C1253 H1240 0.961 . S
C1253 H1241 0.959 . S
C1253 C1251 1.561 . S
C1254 C1251 1.526 . S
C1254 C1255 1.396 . S
C1254 C1259 1.390 . S
C1255 C1249 1.465 . S
C1255 C1254 1.396 . S
C1255 C1256 1.399 . S
C1256 H1242 0.929 . S
C1256 C1255 1.399 . S
C1256 C1257 1.385 . S
C1257 H1243 0.931 . S
C1257 C1256 1.385 . S
C1257 C1258 1.389 . S
C1258 C1257 1.389 . S
C1258 C1259 1.387 . S
C1259 H1244 0.930 . S
C1259 C1254 1.390 . S
C1259 C1258 1.387 . S
H1260 C1272 0.930 . S
H1261 C1274 0.930 . S
H1262 C1275 0.930 . S
H1263 C1279 0.959 . S
H1264 C1279 0.959 . S
H1265 C1279 0.961 . S
H1266 C1280 0.960 . S
H1267 C1280 0.961 . S
H1268 C1280 0.959 . S
H1269 C1283 0.929 . S
H1270 C1284 0.931 . S
H1271 C1286 0.930 . S
C1272 H1260 0.930 . S
C1272 C1273 1.399 1_655 S
C1272 C1277 1.399 . S
C1273 C1272 1.399 1_455 S
C1273 C1274 1.376 . S
C1274 H1261 0.930 . S
C1274 C1273 1.376 . S
C1274 C1275 1.388 . S
C1275 H1262 0.930 . S
C1275 C1274 1.388 . S
C1275 C1276 1.390 . S
C1276 C1275 1.390 . S
C1276 C1277 1.394 1_455 S
C1276 C1282 1.465 . S
C1277 C1272 1.399 . S
C1277 C1276 1.394 1_655 S
C1277 C1278 1.516 . S
C1278 C1277 1.516 . S
C1278 C1279 1.502 . S
C1278 C1280 1.561 . S
C1278 C1281 1.526 . S
C1279 H1263 0.959 . S
C1279 H1264 0.959 . S
C1279 H1265 0.961 . S
C1279 C1278 1.502 . S
C1280 H1266 0.960 . S
C1280 H1267 0.961 . S
C1280 H1268 0.959 . S
C1280 C1278 1.561 . S
C1281 C1278 1.526 . S
C1281 C1282 1.396 1_655 S
C1281 C1286 1.390 . S
C1282 C1276 1.465 . S
C1282 C1281 1.396 1_455 S
C1282 C1283 1.399 . S
C1283 H1269 0.929 . S
C1283 C1282 1.399 . S
C1283 C1284 1.385 . S
C1284 H1270 0.931 . S
C1284 C1283 1.385 . S
C1284 C1285 1.389 . S
C1285 C1284 1.389 . S
C1285 C1286 1.387 1_455 S
C1286 H1271 0.930 . S
C1286 C1281 1.390 . S
C1286 C1285 1.387 1_655 S
H1287 C1299 0.930 . S
H1288 C1301 0.930 . S
H1289 C1302 0.930 . S
H1290 C1306 0.959 . S
H1291 C1306 0.959 . S
H1292 C1306 0.961 . S
H1293 C1307 0.960 . S
H1294 C1307 0.961 . S
H1295 C1307 0.959 . S
H1296 C1310 0.929 . S
H1297 C1311 0.931 . S
H1298 C1313 0.930 . S
C1299 H1287 0.930 . S
C1299 C1300 1.399 . S
C1299 C1304 1.399 . S
C1300 C1299 1.399 . S
C1300 C1301 1.376 . S
C1301 H1288 0.930 . S
C1301 C1300 1.376 . S
C1301 C1302 1.388 . S
C1302 H1289 0.930 . S
C1302 C1301 1.388 . S
C1302 C1303 1.390 . S
C1303 C1302 1.390 . S
C1303 C1304 1.394 . S
C1303 C1309 1.465 . S
C1304 C1299 1.399 . S
C1304 C1303 1.394 . S
C1304 C1305 1.516 . S
C1305 C1304 1.516 . S
C1305 C1306 1.502 . S
C1305 C1307 1.561 . S
C1305 C1308 1.526 . S
C1306 H1290 0.959 . S
C1306 H1291 0.959 . S
C1306 H1292 0.961 . S
C1306 C1305 1.502 . S
C1307 H1293 0.960 . S
C1307 H1294 0.961 . S
C1307 H1295 0.959 . S
C1307 C1305 1.561 . S
C1308 C1305 1.526 . S
C1308 C1309 1.396 . S
C1308 C1313 1.390 . S
C1309 C1303 1.465 . S
C1309 C1308 1.396 . S
C1309 C1310 1.399 . S
C1310 H1296 0.929 . S
C1310 C1309 1.399 . S
C1310 C1311 1.385 . S
C1311 H1297 0.931 . S
C1311 C1310 1.385 . S
C1311 C1312 1.389 . S
C1312 C1311 1.389 . S
C1312 C1313 1.387 . S
C1313 H1298 0.930 . S
C1313 C1308 1.390 . S
C1313 C1312 1.387 . S
H1314 C1326 0.930 . S
H1315 C1328 0.930 . S
H1316 C1329 0.930 . S
H1317 C1333 0.959 . S
H1318 C1333 0.959 . S
H1319 C1333 0.961 . S
H1320 C1334 0.960 . S
H1321 C1334 0.961 . S
H1322 C1334 0.959 . S
H1323 C1337 0.929 . S
H1324 C1338 0.931 . S
H1325 C1340 0.930 . S
C1326 H1314 0.930 . S
C1326 C1327 1.364 1_565 S
C1326 C1331 1.399 . S
C1327 C1326 1.364 1_545 S
C1327 C1328 1.449 . S
C1328 H1315 0.930 . S
C1328 C1327 1.449 . S
C1328 C1329 1.388 . S
C1329 H1316 0.930 . S
C1329 C1328 1.388 . S
C1329 C1330 1.390 . S
C1330 C1329 1.390 . S
C1330 C1331 1.394 1_545 S
C1330 C1336 1.465 . S
C1331 C1326 1.399 . S
C1331 C1330 1.394 1_565 S
C1331 C1332 1.516 . S
C1332 C1331 1.516 . S
C1332 C1333 1.502 . S
C1332 C1334 1.561 . S
C1332 C1335 1.526 . S
C1333 H1317 0.959 . S
C1333 H1318 0.959 . S
C1333 H1319 0.961 . S
C1333 C1332 1.502 . S
C1334 H1320 0.960 . S
C1334 H1321 0.961 . S
C1334 H1322 0.959 . S
C1334 C1332 1.561 . S
C1335 C1332 1.526 . S
C1335 C1336 1.396 1_565 S
C1335 C1340 1.390 . S
C1336 C1330 1.465 . S
C1336 C1335 1.396 1_545 S
C1336 C1337 1.399 . S
C1337 H1323 0.929 . S
C1337 C1336 1.399 . S
C1337 C1338 1.385 . S
C1338 H1324 0.931 . S
C1338 C1337 1.385 . S
C1338 C1339 1.389 1_545 S
C1339 C1338 1.389 1_565 S
C1339 C1340 1.387 . S
C1340 H1325 0.930 . S
C1340 C1335 1.390 . S
C1340 C1339 1.387 . S
H1341 C1353 0.930 . S
H1342 C1355 0.930 . S
H1343 C1356 0.930 . S
H1344 C1360 0.959 . S
H1345 C1360 0.959 . S
H1346 C1360 0.961 . S
H1347 C1361 0.960 . S
H1348 C1361 0.961 . S
H1349 C1361 0.959 . S
H1350 C1364 0.929 . S
H1351 C1365 0.931 . S
H1352 C1367 0.930 . S
C1353 H1341 0.930 . S
C1353 C1354 1.389 1_545 S
C1353 C1358 1.399 . S
C1354 C1353 1.389 1_565 S
C1354 C1355 1.382 . S
C1355 H1342 0.930 . S
C1355 C1354 1.382 . S
C1355 C1356 1.388 . S
C1356 H1343 0.930 . S
C1356 C1355 1.388 . S
C1356 C1357 1.390 . S
C1357 C1356 1.390 . S
C1357 C1358 1.394 1_565 S
C1357 C1363 1.465 . S
C1358 C1353 1.399 . S
C1358 C1357 1.394 1_545 S
C1358 C1359 1.516 . S
C1359 C1358 1.516 . S
C1359 C1360 1.502 . S
C1359 C1361 1.561 . S
C1359 C1362 1.526 . S
C1360 H1344 0.959 . S
C1360 H1345 0.959 . S
C1360 H1346 0.961 . S
C1360 C1359 1.502 . S
C1361 H1347 0.960 . S
C1361 H1348 0.961 . S
C1361 H1349 0.959 . S
C1361 C1359 1.561 . S
C1362 C1359 1.526 . S
C1362 C1363 1.396 1_545 S
C1362 C1367 1.390 . S
C1363 C1357 1.465 . S
C1363 C1362 1.396 1_565 S
C1363 C1364 1.399 . S
C1364 H1350 0.929 . S
C1364 C1363 1.399 . S
C1364 C1365 1.385 . S
C1365 H1351 0.931 . S
C1365 C1364 1.385 . S
C1365 C1366 1.389 1_565 S
C1366 C1365 1.389 1_545 S
C1366 C1367 1.387 . S
C1367 H1352 0.930 . S
C1367 C1362 1.390 . S
C1367 C1366 1.387 . S
H1368 C1380 0.930 . S
H1369 C1382 0.930 . S
H1370 C1383 0.930 . S
H1371 C1387 0.959 . S
H1372 C1387 0.959 . S
H1373 C1387 0.961 . S
H1374 C1388 0.960 . S
H1375 C1388 0.970 . S
H1376 C1388 0.959 . S
H1377 C1391 0.929 . S
H1378 C1392 0.931 . S
H1379 C1394 0.930 . S
C1380 H1368 0.930 . S
C1380 C1381 1.399 1_455 S
C1380 C1385 1.399 . S
C1381 C1380 1.399 1_655 S
C1381 C1382 1.376 . S
C1382 H1369 0.930 . S
C1382 C1381 1.376 . S
C1382 C1383 1.388 . S
C1383 H1370 0.930 . S
C1383 C1382 1.388 . S
C1383 C1384 1.390 . S
C1384 C1383 1.390 . S
C1384 C1385 1.394 1_655 S
C1384 C1390 1.465 . S
C1385 C1380 1.399 . S
C1385 C1384 1.394 1_455 S
C1385 C1386 1.516 . S
C1386 C1385 1.516 . S
C1386 C1387 1.502 . S
C1386 C1388 1.561 1_455 S
C1386 C1389 1.512 . S
C1387 H1371 0.959 . S
C1387 H1372 0.959 . S
C1387 H1373 0.961 . S
C1387 C1386 1.502 . S
C1388 H1374 0.960 . S
C1388 H1375 0.970 . S
C1388 H1376 0.959 . S
C1388 C1386 1.561 1_655 S
C1389 C1386 1.512 . S
C1389 C1390 1.380 1_455 S
C1389 C1394 1.420 . S
C1390 C1384 1.465 . S
C1390 C1389 1.380 1_655 S
C1390 C1391 1.399 . S
C1391 H1377 0.929 . S
C1391 C1390 1.399 . S
C1391 C1392 1.385 . S
C1392 H1378 0.931 . S
C1392 C1391 1.385 . S
C1392 C1393 1.389 . S
C1393 C1392 1.389 . S
C1393 C1394 1.387 1_655 S
C1394 H1379 0.930 . S
C1394 C1389 1.420 . S
C1394 C1393 1.387 1_455 S
H1395 C1407 0.930 . S
H1396 C1409 0.930 . S
H1397 C1410 0.930 . S
H1398 C1414 0.959 . S
H1399 C1414 0.959 . S
H1400 C1414 0.961 . S
H1401 C1415 0.960 . S
H1402 C1415 0.961 . S
H1403 C1415 0.959 . S
H1404 C1418 0.929 . S
H1405 C1419 0.931 . S
H1406 C1421 0.930 . S
C1407 H1395 0.930 . S
C1407 C1408 1.399 . S
C1407 C1412 1.399 . S
C1408 C1407 1.399 . S
C1408 C1409 1.376 . S
C1409 H1396 0.930 . S
C1409 C1408 1.376 . S
C1409 C1410 1.388 . S
C1410 H1397 0.930 . S
C1410 C1409 1.388 . S
C1410 C1411 1.390 . S
C1411 C1410 1.390 . S
C1411 C1412 1.394 . S
C1411 C1417 1.465 . S
C1412 C1407 1.399 . S
C1412 C1411 1.394 . S
C1412 C1413 1.516 . S
C1413 C1412 1.516 . S
C1413 C1414 1.502 . S
C1413 C1415 1.561 . S
C1413 C1416 1.526 . S
C1414 H1398 0.959 . S
C1414 H1399 0.959 . S
C1414 H1400 0.961 . S
C1414 C1413 1.502 . S
C1415 H1401 0.960 . S
C1415 H1402 0.961 . S
C1415 H1403 0.959 . S
C1415 C1413 1.561 . S
C1416 C1413 1.526 . S
C1416 C1417 1.396 . S
C1416 C1421 1.390 . S
C1417 C1411 1.465 . S
C1417 C1416 1.396 . S
C1417 C1418 1.399 . S
C1418 H1404 0.929 . S
C1418 C1417 1.399 . S
C1418 C1419 1.385 . S
C1419 H1405 0.931 . S
C1419 C1418 1.385 . S
C1419 C1420 1.389 . S
C1420 C1419 1.389 . S
C1420 C1421 1.387 . S
C1421 H1406 0.930 . S
C1421 C1416 1.390 . S
C1421 C1420 1.387 . S
H1422 C1434 0.930 . S
H1423 C1436 0.930 . S
H1424 C1437 0.930 . S
H1425 C1441 0.959 . S
H1426 C1441 0.959 . S
H1427 C1441 0.961 . S
H1428 C1442 0.960 . S
H1429 C1442 0.961 . S
H1430 C1442 0.959 . S
H1431 C1445 0.929 . S
H1432 C1446 0.931 . S
H1433 C1448 0.930 . S
C1434 H1422 0.930 . S
C1434 C1435 1.399 . S
C1434 C1439 1.399 . S
C1435 C1434 1.399 . S
C1435 C1436 1.376 . S
C1436 H1423 0.930 . S
C1436 C1435 1.376 . S
C1436 C1437 1.388 . S
C1437 H1424 0.930 . S
C1437 C1436 1.388 . S
C1437 C1438 1.390 . S
C1438 C1437 1.390 . S
C1438 C1439 1.394 . S
C1438 C1444 1.465 . S
C1439 C1434 1.399 . S
C1439 C1438 1.394 . S
C1439 C1440 1.516 . S
C1440 C1439 1.516 . S
C1440 C1441 1.502 . S
C1440 C1442 1.561 . S
C1440 C1443 1.526 . S
C1441 H1425 0.959 . S
C1441 H1426 0.959 . S
C1441 H1427 0.961 . S
C1441 C1440 1.502 . S
C1442 H1428 0.960 . S
C1442 H1429 0.961 . S
C1442 H1430 0.959 . S
C1442 C1440 1.561 . S
C1443 C1440 1.526 . S
C1443 C1444 1.396 . S
C1443 C1448 1.390 . S
C1444 C1438 1.465 . S
C1444 C1443 1.396 . S
C1444 C1445 1.399 . S
C1445 H1431 0.929 . S
C1445 C1444 1.399 . S
C1445 C1446 1.385 . S
C1446 H1432 0.931 . S
C1446 C1445 1.385 . S
C1446 C1447 1.389 . S
C1447 C1446 1.389 . S
C1447 C1448 1.387 . S
C1448 H1433 0.930 . S
C1448 C1443 1.390 . S
C1448 C1447 1.387 . S
H1449 C1461 0.930 . S
H1450 C1463 0.930 . S
H1451 C1464 0.930 . S
H1452 C1468 0.959 . S
H1453 C1468 0.959 . S
H1454 C1468 0.961 . S
H1455 C1469 0.960 . S
H1456 C1469 0.961 . S
H1457 C1469 0.959 . S
H1458 C1472 0.929 . S
H1459 C1473 0.931 . S
H1460 C1475 0.930 . S
C1461 H1449 0.930 . S
C1461 C1462 1.399 . S
C1461 C1466 1.399 . S
C1462 C1461 1.399 . S
C1462 C1463 1.376 . S
C1463 H1450 0.930 . S
C1463 C1462 1.376 . S
C1463 C1464 1.388 . S
C1464 H1451 0.930 . S
C1464 C1463 1.388 . S
C1464 C1465 1.390 . S
C1465 C1464 1.390 . S
C1465 C1466 1.394 . S
C1465 C1471 1.465 . S
C1466 C1461 1.399 . S
C1466 C1465 1.394 . S
C1466 C1467 1.516 . S
C1467 C1466 1.516 . S
C1467 C1468 1.502 . S
C1467 C1469 1.561 . S
C1467 C1470 1.526 . S
C1468 H1452 0.959 . S
C1468 H1453 0.959 . S
C1468 H1454 0.961 . S
C1468 C1467 1.502 . S
C1469 H1455 0.960 . S
C1469 H1456 0.961 . S
C1469 H1457 0.959 . S
C1469 C1467 1.561 . S
C1470 C1467 1.526 . S
C1470 C1471 1.396 . S
C1470 C1475 1.390 . S
C1471 C1465 1.465 . S
C1471 C1470 1.396 . S
C1471 C1472 1.399 . S
C1472 H1458 0.929 . S
C1472 C1471 1.399 . S
C1472 C1473 1.385 . S
C1473 H1459 0.931 . S
C1473 C1472 1.385 . S
C1473 C1474 1.389 . S
C1474 C1473 1.389 . S
C1474 C1475 1.387 . S
C1475 H1460 0.930 . S
C1475 C1470 1.390 . S
C1475 C1474 1.387 . S
H1476 C1488 0.930 . S
H1477 C1490 0.930 . S
H1478 C1491 0.930 . S
H1479 C1495 0.959 . S
H1480 C1495 0.959 . S
H1481 C1495 0.961 . S
H1482 C1496 0.960 . S
H1483 C1496 0.961 . S
H1484 C1496 0.959 . S
H1485 C1499 0.929 . S
H1486 C1500 0.931 . S
H1487 C1502 0.930 . S
C1488 H1476 0.930 . S
C1488 C1489 1.399 . S
C1488 C1493 1.399 . S
C1489 C1488 1.399 . S
C1489 C1490 1.376 . S
C1490 H1477 0.930 . S
C1490 C1489 1.376 . S
C1490 C1491 1.388 . S
C1491 H1478 0.930 . S
C1491 C1490 1.388 . S
C1491 C1492 1.390 . S
C1492 C1491 1.390 . S
C1492 C1493 1.394 . S
C1492 C1498 1.465 . S
C1493 C1488 1.399 . S
C1493 C1492 1.394 . S
C1493 C1494 1.516 . S
C1494 C1493 1.516 . S
C1494 C1495 1.502 . S
C1494 C1496 1.561 . S
C1494 C1497 1.526 . S
C1495 H1479 0.959 . S
C1495 H1480 0.959 . S
C1495 H1481 0.961 . S
C1495 C1494 1.502 . S
C1496 H1482 0.960 . S
C1496 H1483 0.961 . S
C1496 H1484 0.959 . S
C1496 C1494 1.561 . S
C1497 C1494 1.526 . S
C1497 C1498 1.396 . S
C1497 C1502 1.390 . S
C1498 C1492 1.465 . S
C1498 C1497 1.396 . S
C1498 C1499 1.399 . S
C1499 H1485 0.929 . S
C1499 C1498 1.399 . S
C1499 C1500 1.385 . S
C1500 H1486 0.931 . S
C1500 C1499 1.385 . S
C1500 C1501 1.389 . S
C1501 C1500 1.389 . S
C1501 C1502 1.387 . S
C1502 H1487 0.930 . S
C1502 C1497 1.390 . S
C1502 C1501 1.387 . S
H1503 C1515 0.930 . S
H1504 C1517 0.930 . S
H1505 C1518 0.930 . S
H1506 C1522 0.959 . S
H1507 C1522 0.959 . S
H1508 C1522 0.961 . S
H1509 C1523 0.960 . S
H1510 C1523 0.961 . S
H1511 C1523 0.959 . S
H1512 C1526 0.929 . S
H1513 C1527 0.931 . S
H1514 C1529 0.930 . S
C1515 H1503 0.930 . S
C1515 C1516 1.399 . S
C1515 C1520 1.399 . S
C1516 C1515 1.399 . S
C1516 C1517 1.376 . S
C1517 H1504 0.930 . S
C1517 C1516 1.376 . S
C1517 C1518 1.388 . S
C1518 H1505 0.930 . S
C1518 C1517 1.388 . S
C1518 C1519 1.390 . S
C1519 C1518 1.390 . S
C1519 C1520 1.394 . S
C1519 C1525 1.465 . S
C1520 C1515 1.399 . S
C1520 C1519 1.394 . S
C1520 C1521 1.516 . S
C1521 C1520 1.516 . S
C1521 C1522 1.502 . S
C1521 C1523 1.561 . S
C1521 C1524 1.526 . S
C1522 H1506 0.959 . S
C1522 H1507 0.959 . S
C1522 H1508 0.961 . S
C1522 C1521 1.502 . S
C1523 H1509 0.960 . S
C1523 H1510 0.961 . S
C1523 H1511 0.959 . S
C1523 C1521 1.561 . S
C1524 C1521 1.526 . S
C1524 C1525 1.396 . S
C1524 C1529 1.390 . S
C1525 C1519 1.465 . S
C1525 C1524 1.396 . S
C1525 C1526 1.399 . S
C1526 H1512 0.929 . S
C1526 C1525 1.399 . S
C1526 C1527 1.385 . S
C1527 H1513 0.931 . S
C1527 C1526 1.385 . S
C1527 C1528 1.389 . S
C1528 C1527 1.389 . S
C1528 C1529 1.387 . S
C1529 H1514 0.930 . S
C1529 C1524 1.390 . S
C1529 C1528 1.387 . S
H1530 C1542 0.930 . S
H1531 C1544 0.930 . S
H1532 C1545 0.930 . S
H1533 C1549 0.959 . S
H1534 C1549 0.959 . S
H1535 C1549 0.961 . S
H1536 C1550 0.960 . S
H1537 C1550 0.961 . S
H1538 C1550 0.959 . S
H1539 C1553 0.929 . S
H1540 C1554 0.931 . S
H1541 C1556 0.930 . S
C1542 H1530 0.930 . S
C1542 C1543 1.399 . S
C1542 C1547 1.399 . S
C1543 C1542 1.399 . S
C1543 C1544 1.376 . S
C1544 H1531 0.930 . S
C1544 C1543 1.376 . S
C1544 C1545 1.388 . S
C1545 H1532 0.930 . S
C1545 C1544 1.388 . S
C1545 C1546 1.390 . S
C1546 C1545 1.390 . S
C1546 C1547 1.394 . S
C1546 C1552 1.465 . S
C1547 C1542 1.399 . S
C1547 C1546 1.394 . S
C1547 C1548 1.516 . S
C1548 C1547 1.516 . S
C1548 C1549 1.502 . S
C1548 C1550 1.561 . S
C1548 C1551 1.526 . S
C1549 H1533 0.959 . S
C1549 H1534 0.959 . S
C1549 H1535 0.961 . S
C1549 C1548 1.502 . S
C1550 H1536 0.960 . S
C1550 H1537 0.961 . S
C1550 H1538 0.959 . S
C1550 C1548 1.561 . S
C1551 C1548 1.526 . S
C1551 C1552 1.396 . S
C1551 C1556 1.390 . S
C1552 C1546 1.465 . S
C1552 C1551 1.396 . S
C1552 C1553 1.399 . S
C1553 H1539 0.929 . S
C1553 C1552 1.399 . S
C1553 C1554 1.385 . S
C1554 H1540 0.931 . S
C1554 C1553 1.385 . S
C1554 C1555 1.389 . S
C1555 C1554 1.389 . S
C1555 C1556 1.387 . S
C1556 H1541 0.930 . S
C1556 C1551 1.390 . S
C1556 C1555 1.387 . S
H1557 C1569 0.930 . S
H1558 C1571 0.930 . S
H1559 C1572 0.930 . S
H1560 C1576 0.959 . S
H1561 C1576 0.959 . S
H1562 C1576 0.961 . S
H1563 C1577 0.960 . S
H1564 C1577 0.961 . S
H1565 C1577 0.959 . S
H1566 C1580 0.929 . S
H1567 C1581 0.931 . S
H1568 C1583 0.930 . S
C1569 H1557 0.930 . S
C1569 C1570 1.399 . S
C1569 C1574 1.399 . S
C1570 C1569 1.399 . S
C1570 C1571 1.376 . S
C1571 H1558 0.930 . S
C1571 C1570 1.376 . S
C1571 C1572 1.388 . S
C1572 H1559 0.930 . S
C1572 C1571 1.388 . S
C1572 C1573 1.390 . S
C1573 C1572 1.390 . S
C1573 C1574 1.394 . S
C1573 C1579 1.465 . S
C1574 C1569 1.399 . S
C1574 C1573 1.394 . S
C1574 C1575 1.516 . S
C1575 C1574 1.516 . S
C1575 C1576 1.502 . S
C1575 C1577 1.561 . S
C1575 C1578 1.526 . S
C1576 H1560 0.959 . S
C1576 H1561 0.959 . S
C1576 H1562 0.961 . S
C1576 C1575 1.502 . S
C1577 H1563 0.960 . S
C1577 H1564 0.961 . S
C1577 H1565 0.959 . S
C1577 C1575 1.561 . S
C1578 C1575 1.526 . S
C1578 C1579 1.396 . S
C1578 C1583 1.390 . S
C1579 C1573 1.465 . S
C1579 C1578 1.396 . S
C1579 C1580 1.399 . S
C1580 H1566 0.929 . S
C1580 C1579 1.399 . S
C1580 C1581 1.385 . S
C1581 H1567 0.931 . S
C1581 C1580 1.385 . S
C1581 C1582 1.389 . S
C1582 C1581 1.389 . S
C1582 C1583 1.387 . S
C1583 H1568 0.930 . S
C1583 C1578 1.390 . S
C1583 C1582 1.387 . S
H1584 C1596 0.930 . S
H1585 C1598 0.930 . S
H1586 C1599 0.930 . S
H1587 C1603 0.959 . S
H1588 C1603 0.959 . S
H1589 C1603 0.961 . S
H1590 C1604 0.960 . S
H1591 C1604 0.961 . S
H1592 C1604 0.959 . S
H1593 C1607 0.929 . S
H1594 C1608 0.931 . S
H1595 C1610 0.930 . S
C1596 H1584 0.930 . S
C1596 C1597 1.399 . S
C1596 C1601 1.399 . S
C1597 C1596 1.399 . S
C1597 C1598 1.376 . S
C1598 H1585 0.930 . S
C1598 C1597 1.376 . S
C1598 C1599 1.388 . S
C1599 H1586 0.930 . S
C1599 C1598 1.388 . S
C1599 C1600 1.390 . S
C1600 C1599 1.390 . S
C1600 C1601 1.394 . S
C1600 C1606 1.465 . S
C1601 C1596 1.399 . S
C1601 C1600 1.394 . S
C1601 C1602 1.516 . S
C1602 C1601 1.516 . S
C1602 C1603 1.502 . S
C1602 C1604 1.561 . S
C1602 C1605 1.526 . S
C1603 H1587 0.959 . S
C1603 H1588 0.959 . S
C1603 H1589 0.961 . S
C1603 C1602 1.502 . S
C1604 H1590 0.960 . S
C1604 H1591 0.961 . S
C1604 H1592 0.959 . S
C1604 C1602 1.561 . S
C1605 C1602 1.526 . S
C1605 C1606 1.396 . S
C1605 C1610 1.390 . S
C1606 C1600 1.465 . S
C1606 C1605 1.396 . S
C1606 C1607 1.399 . S
C1607 H1593 0.929 . S
C1607 C1606 1.399 . S
C1607 C1608 1.385 . S
C1608 H1594 0.931 . S
C1608 C1607 1.385 . S
C1608 C1609 1.389 . S
C1609 C1608 1.389 . S
C1609 C1610 1.387 . S
C1610 H1595 0.930 . S
C1610 C1605 1.390 . S
C1610 C1609 1.387 . S
H1611 C1623 0.930 . S
H1612 C1625 0.930 . S
H1613 C1626 0.930 . S
H1614 C1630 0.959 . S
H1615 C1630 0.959 . S
H1616 C1630 0.961 . S
H1617 C1631 0.960 . S
H1618 C1631 0.961 . S
H1619 C1631 0.959 . S
H1620 C1634 0.929 . S
H1621 C1635 0.931 . S
H1622 C1637 0.930 . S
C1623 H1611 0.930 . S
C1623 C1624 1.399 . S
C1623 C1628 1.399 . S
C1624 C1623 1.399 . S
C1624 C1625 1.376 . S
C1625 H1612 0.930 . S
C1625 C1624 1.376 . S
C1625 C1626 1.388 . S
C1626 H1613 0.930 . S
C1626 C1625 1.388 . S
C1626 C1627 1.390 . S
C1627 C1626 1.390 . S
C1627 C1628 1.394 . S
C1627 C1633 1.465 . S
C1628 C1623 1.399 . S
C1628 C1627 1.394 . S
C1628 C1629 1.516 . S
C1629 C1628 1.516 . S
C1629 C1630 1.502 . S
C1629 C1631 1.561 . S
C1629 C1632 1.526 . S
C1630 H1614 0.959 . S
C1630 H1615 0.959 . S
C1630 H1616 0.961 . S
C1630 C1629 1.502 . S
C1631 H1617 0.960 . S
C1631 H1618 0.961 . S
C1631 H1619 0.959 . S
C1631 C1629 1.561 . S
C1632 C1629 1.526 . S
C1632 C1633 1.396 . S
C1632 C1637 1.390 . S
C1633 C1627 1.465 . S
C1633 C1632 1.396 . S
C1633 C1634 1.399 . S
C1634 H1620 0.929 . S
C1634 C1633 1.399 . S
C1634 C1635 1.385 . S
C1635 H1621 0.931 . S
C1635 C1634 1.385 . S
C1635 C1636 1.389 . S
C1636 C1635 1.389 . S
C1636 C1637 1.387 . S
C1637 H1622 0.930 . S
C1637 C1632 1.390 . S
C1637 C1636 1.387 . S
H1638 C1650 0.930 . S
H1639 C1652 0.930 . S
H1640 C1653 0.930 . S
H1641 C1657 0.959 . S
H1642 C1657 0.959 . S
H1643 C1657 0.961 . S
H1644 C1658 0.960 . S
H1645 C1658 0.961 . S
H1646 C1658 0.959 . S
H1647 C1661 0.929 . S
H1648 C1662 0.931 . S
H1649 C1664 0.930 . S
C1650 H1638 0.930 . S
C1650 C1651 1.399 . S
C1650 C1655 1.399 . S
C1651 C1650 1.399 . S
C1651 C1652 1.376 . S
C1652 H1639 0.930 . S
C1652 C1651 1.376 . S
C1652 C1653 1.388 . S
C1653 H1640 0.930 . S
C1653 C1652 1.388 . S
C1653 C1654 1.390 . S
C1654 C1653 1.390 . S
C1654 C1655 1.394 . S
C1654 C1660 1.465 . S
C1655 C1650 1.399 . S
C1655 C1654 1.394 . S
C1655 C1656 1.516 . S
C1656 C1655 1.516 . S
C1656 C1657 1.502 . S
C1656 C1658 1.561 . S
C1656 C1659 1.526 . S
C1657 H1641 0.959 . S
C1657 H1642 0.959 . S
C1657 H1643 0.961 . S
C1657 C1656 1.502 . S
C1658 H1644 0.960 . S
C1658 H1645 0.961 . S
C1658 H1646 0.959 . S
C1658 C1656 1.561 . S
C1659 C1656 1.526 . S
C1659 C1660 1.396 . S
C1659 C1664 1.390 . S
C1660 C1654 1.465 . S
C1660 C1659 1.396 . S
C1660 C1661 1.399 . S
C1661 H1647 0.929 . S
C1661 C1660 1.399 . S
C1661 C1662 1.385 . S
C1662 H1648 0.931 . S
C1662 C1661 1.385 . S
C1662 C1663 1.389 . S
C1663 C1662 1.389 . S
C1663 C1664 1.387 . S
C1664 H1649 0.930 . S
C1664 C1659 1.390 . S
C1664 C1663 1.387 . S
H1665 C1677 0.930 . S
H1666 C1679 0.930 . S
H1667 C1680 0.930 . S
H1668 C1684 0.959 . S
H1669 C1684 0.959 . S
H1670 C1684 0.961 . S
H1671 C1685 0.960 . S
H1672 C1685 0.961 . S
H1673 C1685 0.959 . S
H1674 C1688 0.929 . S
H1675 C1689 0.931 . S
H1676 C1691 0.930 . S
C1677 H1665 0.930 . S
C1677 C1678 1.399 . S
C1677 C1682 1.399 . S
C1678 C1677 1.399 . S
C1678 C1679 1.376 . S
C1679 H1666 0.930 . S
C1679 C1678 1.376 . S
C1679 C1680 1.388 . S
C1680 H1667 0.930 . S
C1680 C1679 1.388 . S
C1680 C1681 1.390 . S
C1681 C1680 1.390 . S
C1681 C1682 1.394 . S
C1681 C1687 1.465 . S
C1682 C1677 1.399 . S
C1682 C1681 1.394 . S
C1682 C1683 1.516 . S
C1683 C1682 1.516 . S
C1683 C1684 1.502 . S
C1683 C1685 1.561 . S
C1683 C1686 1.526 . S
C1684 H1668 0.959 . S
C1684 H1669 0.959 . S
C1684 H1670 0.961 . S
C1684 C1683 1.502 . S
C1685 H1671 0.960 . S
C1685 H1672 0.961 . S
C1685 H1673 0.959 . S
C1685 C1683 1.561 . S
C1686 C1683 1.526 . S
C1686 C1687 1.396 . S
C1686 C1691 1.390 . S
C1687 C1681 1.465 . S
C1687 C1686 1.396 . S
C1687 C1688 1.399 . S
C1688 H1674 0.929 . S
C1688 C1687 1.399 . S
C1688 C1689 1.385 . S
C1689 H1675 0.931 . S
C1689 C1688 1.385 . S
C1689 C1690 1.389 . S
C1690 C1689 1.389 . S
C1690 C1691 1.387 . S
C1691 H1676 0.930 . S
C1691 C1686 1.390 . S
C1691 C1690 1.387 . S
H1692 C1704 0.930 . S
H1693 C1706 0.930 . S
H1694 C1707 0.930 . S
H1695 C1711 0.959 . S
H1696 C1711 0.959 . S
H1697 C1711 0.961 . S
H1698 C1712 0.960 . S
H1699 C1712 0.961 . S
H1700 C1712 0.959 . S
H1701 C1715 0.929 . S
H1702 C1716 0.931 . S
H1703 C1718 0.930 . S
C1704 H1692 0.930 . S
C1704 C1705 1.399 . S
C1704 C1709 1.399 . S
C1705 C1704 1.399 . S
C1705 C1706 1.376 . S
C1706 H1693 0.930 . S
C1706 C1705 1.376 . S
C1706 C1707 1.388 . S
C1707 H1694 0.930 . S
C1707 C1706 1.388 . S
C1707 C1708 1.390 . S
C1708 C1707 1.390 . S
C1708 C1709 1.394 . S
C1708 C1714 1.465 . S
C1709 C1704 1.399 . S
C1709 C1708 1.394 . S
C1709 C1710 1.516 . S
C1710 C1709 1.516 . S
C1710 C1711 1.502 . S
C1710 C1712 1.561 . S
C1710 C1713 1.526 . S
C1711 H1695 0.959 . S
C1711 H1696 0.959 . S
C1711 H1697 0.961 . S
C1711 C1710 1.502 . S
C1712 H1698 0.960 . S
C1712 H1699 0.961 . S
C1712 H1700 0.959 . S
C1712 C1710 1.561 . S
C1713 C1710 1.526 . S
C1713 C1714 1.396 . S
C1713 C1718 1.390 . S
C1714 C1708 1.465 . S
C1714 C1713 1.396 . S
C1714 C1715 1.399 . S
C1715 H1701 0.929 . S
C1715 C1714 1.399 . S
C1715 C1716 1.385 . S
C1716 H1702 0.931 . S
C1716 C1715 1.385 . S
C1716 C1717 1.389 . S
C1717 C1716 1.389 . S
C1717 C1718 1.387 . S
C1718 H1703 0.930 . S
C1718 C1713 1.390 . S
C1718 C1717 1.387 . S
H1719 C1731 0.930 . S
H1720 C1733 0.930 . S
H1721 C1734 0.930 . S
H1722 C1738 0.959 . S
H1723 C1738 0.959 . S
H1724 C1738 0.961 . S
H1725 C1739 0.960 . S
H1726 C1739 0.961 . S
H1727 C1739 0.959 . S
H1728 C1742 0.929 . S
H1729 C1743 0.931 . S
H1730 C1745 0.930 . S
C1731 H1719 0.930 . S
C1731 C1732 1.399 . S
C1731 C1736 1.399 . S
C1732 C1731 1.399 . S
C1732 C1733 1.376 . S
C1733 H1720 0.930 . S
C1733 C1732 1.376 . S
C1733 C1734 1.388 . S
C1734 H1721 0.930 . S
C1734 C1733 1.388 . S
C1734 C1735 1.390 . S
C1735 C1734 1.390 . S
C1735 C1736 1.394 . S
C1735 C1741 1.465 . S
C1736 C1731 1.399 . S
C1736 C1735 1.394 . S
C1736 C1737 1.516 . S
C1737 C1736 1.516 . S
C1737 C1738 1.502 . S
C1737 C1739 1.561 . S
C1737 C1740 1.526 . S
C1738 H1722 0.959 . S
C1738 H1723 0.959 . S
C1738 H1724 0.961 . S
C1738 C1737 1.502 . S
C1739 H1725 0.960 . S
C1739 H1726 0.961 . S
C1739 H1727 0.959 . S
C1739 C1737 1.561 . S
C1740 C1737 1.526 . S
C1740 C1741 1.396 . S
C1740 C1745 1.390 . S
C1741 C1735 1.465 . S
C1741 C1740 1.396 . S
C1741 C1742 1.399 . S
C1742 H1728 0.929 . S
C1742 C1741 1.399 . S
C1742 C1743 1.385 . S
C1743 H1729 0.931 . S
C1743 C1742 1.385 . S
C1743 C1744 1.389 . S
C1744 C1743 1.389 . S
C1744 C1745 1.387 . S
C1745 H1730 0.930 . S
C1745 C1740 1.390 . S
C1745 C1744 1.387 . S
H1746 C1758 0.930 . S
H1747 C1760 0.930 . S
H1748 C1761 0.930 . S
H1749 C1765 0.959 . S
H1750 C1765 0.959 . S
H1751 C1765 0.961 . S
H1752 C1766 0.960 . S
H1753 C1766 0.961 . S
H1754 C1766 0.959 . S
H1755 C1769 0.929 . S
H1756 C1770 0.931 . S
H1757 C1772 0.930 . S
C1758 H1746 0.930 . S
C1758 C1759 1.399 . S
C1758 C1763 1.399 . S
C1759 C1758 1.399 . S
C1759 C1760 1.376 . S
C1760 H1747 0.930 . S
C1760 C1759 1.376 . S
C1760 C1761 1.388 . S
C1761 H1748 0.930 . S
C1761 C1760 1.388 . S
C1761 C1762 1.390 . S
C1762 C1761 1.390 . S
C1762 C1763 1.394 . S
C1762 C1768 1.465 . S
C1763 C1758 1.399 . S
C1763 C1762 1.394 . S
C1763 C1764 1.516 . S
C1764 C1763 1.516 . S
C1764 C1765 1.502 . S
C1764 C1766 1.561 . S
C1764 C1767 1.526 . S
C1765 H1749 0.959 . S
C1765 H1750 0.959 . S
C1765 H1751 0.961 . S
C1765 C1764 1.502 . S
C1766 H1752 0.960 . S
C1766 H1753 0.961 . S
C1766 H1754 0.959 . S
C1766 C1764 1.561 . S
C1767 C1764 1.526 . S
C1767 C1768 1.396 . S
C1767 C1772 1.390 . S
C1768 C1762 1.465 . S
C1768 C1767 1.396 . S
C1768 C1769 1.399 . S
C1769 H1755 0.929 . S
C1769 C1768 1.399 . S
C1769 C1770 1.385 . S
C1770 H1756 0.931 . S
C1770 C1769 1.385 . S
C1770 C1771 1.389 . S
C1771 C1770 1.389 . S
C1771 C1772 1.387 . S
C1772 H1757 0.930 . S
C1772 C1767 1.390 . S
C1772 C1771 1.387 . S
H1773 C1785 0.930 . S
H1774 C1787 0.930 . S
H1775 C1788 0.930 . S
H1776 C1792 0.959 . S
H1777 C1792 0.959 . S
H1778 C1792 0.961 . S
H1779 C1793 0.960 . S
H1780 C1793 0.961 . S
H1781 C1793 0.959 . S
H1782 C1796 0.929 . S
H1783 C1797 0.931 . S
H1784 C1799 0.930 . S
C1785 H1773 0.930 . S
C1785 C1786 1.399 . S
C1785 C1790 1.399 . S
C1786 C1785 1.399 . S
C1786 C1787 1.376 . S
C1787 H1774 0.930 . S
C1787 C1786 1.376 . S
C1787 C1788 1.388 . S
C1788 H1775 0.930 . S
C1788 C1787 1.388 . S
C1788 C1789 1.390 . S
C1789 C1788 1.390 . S
C1789 C1790 1.394 . S
C1789 C1795 1.465 . S
C1790 C1785 1.399 . S
C1790 C1789 1.394 . S
C1790 C1791 1.516 . S
C1791 C1790 1.516 . S
C1791 C1792 1.502 . S
C1791 C1793 1.561 . S
C1791 C1794 1.526 . S
C1792 H1776 0.959 . S
C1792 H1777 0.959 . S
C1792 H1778 0.961 . S
C1792 C1791 1.502 . S
C1793 H1779 0.960 . S
C1793 H1780 0.961 . S
C1793 H1781 0.959 . S
C1793 C1791 1.561 . S
C1794 C1791 1.526 . S
C1794 C1795 1.396 . S
C1794 C1799 1.390 . S
C1795 C1789 1.465 . S
C1795 C1794 1.396 . S
C1795 C1796 1.399 . S
C1796 H1782 0.929 . S
C1796 C1795 1.399 . S
C1796 C1797 1.385 . S
C1797 H1783 0.931 . S
C1797 C1796 1.385 . S
C1797 C1798 1.389 . S
C1798 C1797 1.389 . S
C1798 C1799 1.387 . S
C1799 H1784 0.930 . S
C1799 C1794 1.390 . S
C1799 C1798 1.387 . S
H1800 C1812 0.930 . S
H1801 C1814 0.930 . S
H1802 C1815 0.930 . S
H1803 C1819 0.959 . S
H1804 C1819 0.959 . S
H1805 C1819 0.961 . S
H1806 C1820 0.960 . S
H1807 C1820 0.961 . S
H1808 C1820 0.959 . S
H1809 C1823 0.929 . S
H1810 C1824 0.931 . S
H1811 C1826 0.930 . S
C1812 H1800 0.930 . S
C1812 C1813 1.399 . S
C1812 C1817 1.399 . S
C1813 C1812 1.399 . S
C1813 C1814 1.376 . S
C1814 H1801 0.930 . S
C1814 C1813 1.376 . S
C1814 C1815 1.388 . S
C1815 H1802 0.930 . S
C1815 C1814 1.388 . S
C1815 C1816 1.390 . S
C1816 C1815 1.390 . S
C1816 C1817 1.394 . S
C1816 C1822 1.465 . S
C1817 C1812 1.399 . S
C1817 C1816 1.394 . S
C1817 C1818 1.516 . S
C1818 C1817 1.516 . S
C1818 C1819 1.502 . S
C1818 C1820 1.561 . S
C1818 C1821 1.526 . S
C1819 H1803 0.959 . S
C1819 H1804 0.959 . S
C1819 H1805 0.961 . S
C1819 C1818 1.502 . S
C1820 H1806 0.960 . S
C1820 H1807 0.961 . S
C1820 H1808 0.959 . S
C1820 C1818 1.561 . S
C1821 C1818 1.526 . S
C1821 C1822 1.396 . S
C1821 C1826 1.390 . S
C1822 C1816 1.465 . S
C1822 C1821 1.396 . S
C1822 C1823 1.399 . S
C1823 H1809 0.929 . S
C1823 C1822 1.399 . S
C1823 C1824 1.385 . S
C1824 H1810 0.931 . S
C1824 C1823 1.385 . S
C1824 C1825 1.389 . S
C1825 C1824 1.389 . S
C1825 C1826 1.387 . S
C1826 H1811 0.930 . S
C1826 C1821 1.390 . S
C1826 C1825 1.387 . S
H1827 C1839 0.930 . S
H1828 C1841 0.930 . S
H1829 C1842 0.930 . S
H1830 C1846 0.959 . S
H1831 C1846 0.959 . S
H1832 C1846 0.961 . S
H1833 C1847 0.960 . S
H1834 C1847 0.961 . S
H1835 C1847 0.959 . S
H1836 C1850 0.929 . S
H1837 C1851 0.931 . S
H1838 C1853 0.930 . S
C1839 H1827 0.930 . S
C1839 C1840 1.399 . S
C1839 C1844 1.399 . S
C1840 C1839 1.399 . S
C1840 C1841 1.376 . S
C1841 H1828 0.930 . S
C1841 C1840 1.376 . S
C1841 C1842 1.388 . S
C1842 H1829 0.930 . S
C1842 C1841 1.388 . S
C1842 C1843 1.390 . S
C1843 C1842 1.390 . S
C1843 C1844 1.394 . S
C1843 C1849 1.465 . S
C1844 C1839 1.399 . S
C1844 C1843 1.394 . S
C1844 C1845 1.516 . S
C1845 C1844 1.516 . S
C1845 C1846 1.502 . S
C1845 C1847 1.561 . S
C1845 C1848 1.526 . S
C1846 H1830 0.959 . S
C1846 H1831 0.959 . S
C1846 H1832 0.961 . S
C1846 C1845 1.502 . S
C1847 H1833 0.960 . S
C1847 H1834 0.961 . S
C1847 H1835 0.959 . S
C1847 C1845 1.561 . S
C1848 C1845 1.526 . S
C1848 C1849 1.396 . S
C1848 C1853 1.390 . S
C1849 C1843 1.465 . S
C1849 C1848 1.396 . S
C1849 C1850 1.399 . S
C1850 H1836 0.929 . S
C1850 C1849 1.399 . S
C1850 C1851 1.385 . S
C1851 H1837 0.931 . S
C1851 C1850 1.385 . S
C1851 C1852 1.389 . S
C1852 C1851 1.389 . S
C1852 C1853 1.387 . S
C1853 H1838 0.930 . S
C1853 C1848 1.390 . S
C1853 C1852 1.387 . S
H1854 C1866 0.930 . S
H1855 C1868 0.930 . S
H1856 C1869 0.930 . S
H1857 C1873 0.959 . S
H1858 C1873 0.959 . S
H1859 C1873 0.961 . S
H1860 C1874 0.960 . S
H1861 C1874 0.961 . S
H1862 C1874 0.959 . S
H1863 C1877 0.929 . S
H1864 C1878 0.931 . S
H1865 C1880 0.930 . S
C1866 H1854 0.930 . S
C1866 C1867 1.399 . S
C1866 C1871 1.399 . S
C1867 C1866 1.399 . S
C1867 C1868 1.376 . S
C1868 H1855 0.930 . S
C1868 C1867 1.376 . S
C1868 C1869 1.388 . S
C1869 H1856 0.930 . S
C1869 C1868 1.388 . S
C1869 C1870 1.390 . S
C1870 C1869 1.390 . S
C1870 C1871 1.394 . S
C1870 C1876 1.465 . S
C1871 C1866 1.399 . S
C1871 C1870 1.394 . S
C1871 C1872 1.516 . S
C1872 C1871 1.516 . S
C1872 C1873 1.502 . S
C1872 C1874 1.561 . S
C1872 C1875 1.526 . S
C1873 H1857 0.959 . S
C1873 H1858 0.959 . S
C1873 H1859 0.961 . S
C1873 C1872 1.502 . S
C1874 H1860 0.960 . S
C1874 H1861 0.961 . S
C1874 H1862 0.959 . S
C1874 C1872 1.561 . S
C1875 C1872 1.526 . S
C1875 C1876 1.396 . S
C1875 C1880 1.390 . S
C1876 C1870 1.465 . S
C1876 C1875 1.396 . S
C1876 C1877 1.399 . S
C1877 H1863 0.929 . S
C1877 C1876 1.399 . S
C1877 C1878 1.385 . S
C1878 H1864 0.931 . S
C1878 C1877 1.385 . S
C1878 C1879 1.389 . S
C1879 C1878 1.389 . S
C1879 C1880 1.387 . S
C1880 H1865 0.930 . S
C1880 C1875 1.390 . S
C1880 C1879 1.387 . S
H1881 C1893 0.930 . S
H1882 C1895 0.930 . S
H1883 C1896 0.930 . S
H1884 C1900 0.959 . S
H1885 C1900 0.959 . S
H1886 C1900 0.961 . S
H1887 C1901 0.960 . S
H1888 C1901 0.961 . S
H1889 C1901 0.959 . S
H1890 C1904 0.929 . S
H1891 C1905 0.931 . S
H1892 C1907 0.930 . S
C1893 H1881 0.930 . S
C1893 C1894 1.399 . S
C1893 C1898 1.399 . S
C1894 C1893 1.399 . S
C1894 C1895 1.376 . S
C1895 H1882 0.930 . S
C1895 C1894 1.376 . S
C1895 C1896 1.388 . S
C1896 H1883 0.930 . S
C1896 C1895 1.388 . S
C1896 C1897 1.390 . S
C1897 C1896 1.390 . S
C1897 C1898 1.394 . S
C1897 C1903 1.465 . S
C1898 C1893 1.399 . S
C1898 C1897 1.394 . S
C1898 C1899 1.516 . S
C1899 C1898 1.516 . S
C1899 C1900 1.502 . S
C1899 C1901 1.561 . S
C1899 C1902 1.526 . S
C1900 H1884 0.959 . S
C1900 H1885 0.959 . S
C1900 H1886 0.961 . S
C1900 C1899 1.502 . S
C1901 H1887 0.960 . S
C1901 H1888 0.961 . S
C1901 H1889 0.959 . S
C1901 C1899 1.561 . S
C1902 C1899 1.526 . S
C1902 C1903 1.396 . S
C1902 C1907 1.390 . S
C1903 C1897 1.465 . S
C1903 C1902 1.396 . S
C1903 C1904 1.399 . S
C1904 H1890 0.929 . S
C1904 C1903 1.399 . S
C1904 C1905 1.385 . S
C1905 H1891 0.931 . S
C1905 C1904 1.385 . S
C1905 C1906 1.389 . S
C1906 C1905 1.389 . S
C1906 C1907 1.387 . S
C1907 H1892 0.930 . S
C1907 C1902 1.390 . S
C1907 C1906 1.387 . S
H1908 C1920 0.930 . S
H1909 C1922 0.930 . S
H1910 C1923 0.930 . S
H1911 C1927 0.959 . S
H1912 C1927 0.959 . S
H1913 C1927 0.961 . S
H1914 C1928 0.960 . S
H1915 C1928 0.961 . S
H1916 C1928 0.959 . S
H1917 C1931 0.929 . S
H1918 C1932 0.931 . S
H1919 C1934 0.930 . S
C1920 H1908 0.930 . S
C1920 C1921 1.399 . S
C1920 C1925 1.399 . S
C1921 C1920 1.399 . S
C1921 C1922 1.376 . S
C1922 H1909 0.930 . S
C1922 C1921 1.376 . S
C1922 C1923 1.388 . S
C1923 H1910 0.930 . S
C1923 C1922 1.388 . S
C1923 C1924 1.390 . S
C1924 C1923 1.390 . S
C1924 C1925 1.394 . S
C1924 C1930 1.465 . S
C1925 C1920 1.399 . S
C1925 C1924 1.394 . S
C1925 C1926 1.516 . S
C1926 C1925 1.516 . S
C1926 C1927 1.502 . S
C1926 C1928 1.561 . S
C1926 C1929 1.526 . S
C1927 H1911 0.959 . S
C1927 H1912 0.959 . S
C1927 H1913 0.961 . S
C1927 C1926 1.502 . S
C1928 H1914 0.960 . S
C1928 H1915 0.961 . S
C1928 H1916 0.959 . S
C1928 C1926 1.561 . S
C1929 C1926 1.526 . S
C1929 C1930 1.396 . S
C1929 C1934 1.390 . S
C1930 C1924 1.465 . S
C1930 C1929 1.396 . S
C1930 C1931 1.399 . S
C1931 H1917 0.929 . S
C1931 C1930 1.399 . S
C1931 C1932 1.385 . S
C1932 H1918 0.931 . S
C1932 C1931 1.385 . S
C1932 C1933 1.389 . S
C1933 C1932 1.389 . S
C1933 C1934 1.387 . S
C1934 H1919 0.930 . S
C1934 C1929 1.390 . S
C1934 C1933 1.387 . S
H1935 C1947 0.930 . S
H1936 C1949 0.930 . S
H1937 C1950 0.930 . S
H1938 C1954 0.959 . S
H1939 C1954 0.959 . S
H1940 C1954 0.961 . S
H1941 C1955 0.960 . S
H1942 C1955 0.961 . S
H1943 C1955 0.959 . S
H1944 C1958 0.929 . S
H1945 C1959 0.931 . S
H1946 C1961 0.930 . S
C1947 H1935 0.930 . S
C1947 C1948 1.399 . S
C1947 C1952 1.399 . S
C1948 C1947 1.399 . S
C1948 C1949 1.376 . S
C1949 H1936 0.930 . S
C1949 C1948 1.376 . S
C1949 C1950 1.388 . S
C1950 H1937 0.930 . S
C1950 C1949 1.388 . S
C1950 C1951 1.390 . S
C1951 C1950 1.390 . S
C1951 C1952 1.394 . S
C1951 C1957 1.465 . S
C1952 C1947 1.399 . S
C1952 C1951 1.394 . S
C1952 C1953 1.516 . S
C1953 C1952 1.516 . S
C1953 C1954 1.502 . S
C1953 C1955 1.561 . S
C1953 C1956 1.526 . S
C1954 H1938 0.959 . S
C1954 H1939 0.959 . S
C1954 H1940 0.961 . S
C1954 C1953 1.502 . S
C1955 H1941 0.960 . S
C1955 H1942 0.961 . S
C1955 H1943 0.959 . S
C1955 C1953 1.561 . S
C1956 C1953 1.526 . S
C1956 C1957 1.396 . S
C1956 C1961 1.390 . S
C1957 C1951 1.465 . S
C1957 C1956 1.396 . S
C1957 C1958 1.399 . S
C1958 H1944 0.929 . S
C1958 C1957 1.399 . S
C1958 C1959 1.385 . S
C1959 H1945 0.931 . S
C1959 C1958 1.385 . S
C1959 C1960 1.389 . S
C1960 C1959 1.389 . S
C1960 C1961 1.387 . S
C1961 H1946 0.930 . S
C1961 C1956 1.390 . S
C1961 C1960 1.387 . S
H1962 C1974 0.930 . S
H1963 C1976 0.930 . S
H1964 C1977 0.930 . S
H1965 C1981 0.959 . S
H1966 C1981 0.959 . S
H1967 C1981 0.961 . S
H1968 C1982 0.960 . S
H1969 C1982 0.961 . S
H1970 C1982 0.959 . S
H1971 C1985 0.929 . S
H1972 C1986 0.931 . S
H1973 C1988 0.930 . S
C1974 H1962 0.930 . S
C1974 C1975 1.399 . S
C1974 C1979 1.399 . S
C1975 C1974 1.399 . S
C1975 C1976 1.376 . S
C1976 H1963 0.930 . S
C1976 C1975 1.376 . S
C1976 C1977 1.388 . S
C1977 H1964 0.930 . S
C1977 C1976 1.388 . S
C1977 C1978 1.390 . S
C1978 C1977 1.390 . S
C1978 C1979 1.394 . S
C1978 C1984 1.465 . S
C1979 C1974 1.399 . S
C1979 C1978 1.394 . S
C1979 C1980 1.516 . S
C1980 C1979 1.516 . S
C1980 C1981 1.502 . S
C1980 C1982 1.561 . S
C1980 C1983 1.526 . S
C1981 H1965 0.959 . S
C1981 H1966 0.959 . S
C1981 H1967 0.961 . S
C1981 C1980 1.502 . S
C1982 H1968 0.960 . S
C1982 H1969 0.961 . S
C1982 H1970 0.959 . S
C1982 C1980 1.561 . S
C1983 C1980 1.526 . S
C1983 C1984 1.396 . S
C1983 C1988 1.390 . S
C1984 C1978 1.465 . S
C1984 C1983 1.396 . S
C1984 C1985 1.399 . S
C1985 H1971 0.929 . S
C1985 C1984 1.399 . S
C1985 C1986 1.385 . S
C1986 H1972 0.931 . S
C1986 C1985 1.385 . S
C1986 C1987 1.389 . S
C1987 C1986 1.389 . S
C1987 C1988 1.387 . S
C1988 H1973 0.930 . S
C1988 C1983 1.390 . S
C1988 C1987 1.387 . S
H1989 C2001 0.930 . S
H1990 C2003 0.930 . S
H1991 C2004 0.930 . S
H1992 C2008 0.959 . S
H1993 C2008 0.959 . S
H1994 C2008 0.961 . S
H1995 C2009 0.960 . S
H1996 C2009 0.961 . S
H1997 C2009 0.959 . S
H1998 C2012 0.929 . S
H1999 C2013 0.931 . S
H2000 C2015 0.930 . S
C2001 H1989 0.930 . S
C2001 C2002 1.399 . S
C2001 C2006 1.399 . S
C2002 C2001 1.399 . S
C2002 C2003 1.376 . S
C2003 H1990 0.930 . S
C2003 C2002 1.376 . S
C2003 C2004 1.388 . S
C2004 H1991 0.930 . S
C2004 C2003 1.388 . S
C2004 C2005 1.390 . S
C2005 C2004 1.390 . S
C2005 C2006 1.394 . S
C2005 C2011 1.465 . S
C2006 C2001 1.399 . S
C2006 C2005 1.394 . S
C2006 C2007 1.516 . S
C2007 C2006 1.516 . S
C2007 C2008 1.502 . S
C2007 C2009 1.561 . S
C2007 C2010 1.526 . S
C2008 H1992 0.959 . S
C2008 H1993 0.959 . S
C2008 H1994 0.961 . S
C2008 C2007 1.502 . S
C2009 H1995 0.960 . S
C2009 H1996 0.961 . S
C2009 H1997 0.959 . S
C2009 C2007 1.561 . S
C2010 C2007 1.526 . S
C2010 C2011 1.396 . S
C2010 C2015 1.390 . S
C2011 C2005 1.465 . S
C2011 C2010 1.396 . S
C2011 C2012 1.399 . S
C2012 H1998 0.929 . S
C2012 C2011 1.399 . S
C2012 C2013 1.385 . S
C2013 H1999 0.931 . S
C2013 C2012 1.385 . S
C2013 C2014 1.389 . S
C2014 C2013 1.389 . S
C2014 C2015 1.387 . S
C2015 H2000 0.930 . S
C2015 C2010 1.390 . S
C2015 C2014 1.387 . S
H2016 C2028 0.930 . S
H2017 C2030 0.930 . S
H2018 C2031 0.930 . S
H2019 C2035 0.959 . S
H2020 C2035 0.959 . S
H2021 C2035 0.961 . S
H2022 C2036 0.960 . S
H2023 C2036 0.961 . S
H2024 C2036 0.959 . S
H2025 C2039 0.929 . S
H2026 C2040 0.931 . S
H2027 C2042 0.930 . S
C2028 H2016 0.930 . S
C2028 C2029 1.399 . S
C2028 C2033 1.399 . S
C2029 C2028 1.399 . S
C2029 C2030 1.376 . S
C2030 H2017 0.930 . S
C2030 C2029 1.376 . S
C2030 C2031 1.388 . S
C2031 H2018 0.930 . S
C2031 C2030 1.388 . S
C2031 C2032 1.390 . S
C2032 C2031 1.390 . S
C2032 C2033 1.394 . S
C2032 C2038 1.465 . S
C2033 C2028 1.399 . S
C2033 C2032 1.394 . S
C2033 C2034 1.516 . S
C2034 C2033 1.516 . S
C2034 C2035 1.502 . S
C2034 C2036 1.561 . S
C2034 C2037 1.526 . S
C2035 H2019 0.959 . S
C2035 H2020 0.959 . S
C2035 H2021 0.961 . S
C2035 C2034 1.502 . S
C2036 H2022 0.960 . S
C2036 H2023 0.961 . S
C2036 H2024 0.959 . S
C2036 C2034 1.561 . S
C2037 C2034 1.526 . S
C2037 C2038 1.396 . S
C2037 C2042 1.390 . S
C2038 C2032 1.465 . S
C2038 C2037 1.396 . S
C2038 C2039 1.399 . S
C2039 H2025 0.929 . S
C2039 C2038 1.399 . S
C2039 C2040 1.385 . S
C2040 H2026 0.931 . S
C2040 C2039 1.385 . S
C2040 C2041 1.389 . S
C2041 C2040 1.389 . S
C2041 C2042 1.387 . S
C2042 H2027 0.930 . S
C2042 C2037 1.390 . S
C2042 C2041 1.387 . S
H2043 C2055 0.930 . S
H2044 C2057 0.930 . S
H2045 C2058 0.930 . S
H2046 C2062 0.959 . S
H2047 C2062 0.959 . S
H2048 C2062 0.961 . S
H2049 C2063 0.960 . S
H2050 C2063 0.961 . S
H2051 C2063 0.959 . S
H2052 C2066 0.929 . S
H2053 C2067 0.931 . S
H2054 C2069 0.930 . S
C2055 H2043 0.930 . S
C2055 C2056 1.399 . S
C2055 C2060 1.399 . S
C2056 C2055 1.399 . S
C2056 C2057 1.376 . S
C2057 H2044 0.930 . S
C2057 C2056 1.376 . S
C2057 C2058 1.388 . S
C2058 H2045 0.930 . S
C2058 C2057 1.388 . S
C2058 C2059 1.390 . S
C2059 C2058 1.390 . S
C2059 C2060 1.394 . S
C2059 C2065 1.465 . S
C2060 C2055 1.399 . S
C2060 C2059 1.394 . S
C2060 C2061 1.516 . S
C2061 C2060 1.516 . S
C2061 C2062 1.502 . S
C2061 C2063 1.561 . S
C2061 C2064 1.526 . S
C2062 H2046 0.959 . S
C2062 H2047 0.959 . S
C2062 H2048 0.961 . S
C2062 C2061 1.502 . S
C2063 H2049 0.960 . S
C2063 H2050 0.961 . S
C2063 H2051 0.959 . S
C2063 C2061 1.561 . S
C2064 C2061 1.526 . S
C2064 C2065 1.396 . S
C2064 C2069 1.390 . S
C2065 C2059 1.465 . S
C2065 C2064 1.396 . S
C2065 C2066 1.399 . S
C2066 H2052 0.929 . S
C2066 C2065 1.399 . S
C2066 C2067 1.385 . S
C2067 H2053 0.931 . S
C2067 C2066 1.385 . S
C2067 C2068 1.389 . S
C2068 C2067 1.389 . S
C2068 C2069 1.387 . S
C2069 H2054 0.930 . S
C2069 C2064 1.390 . S
C2069 C2068 1.387 . S
H2070 C2082 0.930 . S
H2071 C2084 0.930 . S
H2072 C2085 0.930 . S
H2073 C2089 0.959 . S
H2074 C2089 0.959 . S
H2075 C2089 0.961 . S
H2076 C2090 0.960 . S
H2077 C2090 0.961 . S
H2078 C2090 0.959 . S
H2079 C2093 0.929 . S
H2080 C2094 0.931 . S
H2081 C2096 0.930 . S
C2082 H2070 0.930 . S
C2082 C2083 1.399 . S
C2082 C2087 1.399 . S
C2083 C2082 1.399 . S
C2083 C2084 1.376 . S
C2084 H2071 0.930 . S
C2084 C2083 1.376 . S
C2084 C2085 1.388 . S
C2085 H2072 0.930 . S
C2085 C2084 1.388 . S
C2085 C2086 1.390 . S
C2086 C2085 1.390 . S
C2086 C2087 1.394 . S
C2086 C2092 1.465 . S
C2087 C2082 1.399 . S
C2087 C2086 1.394 . S
C2087 C2088 1.516 . S
C2088 C2087 1.516 . S
C2088 C2089 1.502 . S
C2088 C2090 1.561 . S
C2088 C2091 1.526 . S
C2089 H2073 0.959 . S
C2089 H2074 0.959 . S
C2089 H2075 0.961 . S
C2089 C2088 1.502 . S
C2090 H2076 0.960 . S
C2090 H2077 0.961 . S
C2090 H2078 0.959 . S
C2090 C2088 1.561 . S
C2091 C2088 1.526 . S
C2091 C2092 1.396 . S
C2091 C2096 1.390 . S
C2092 C2086 1.465 . S
C2092 C2091 1.396 . S
C2092 C2093 1.399 . S
C2093 H2079 0.929 . S
C2093 C2092 1.399 . S
C2093 C2094 1.385 . S
C2094 H2080 0.931 . S
C2094 C2093 1.385 . S
C2094 C2095 1.389 . S
C2095 C2094 1.389 . S
C2095 C2096 1.387 . S
C2096 H2081 0.930 . S
C2096 C2091 1.390 . S
C2096 C2095 1.387 . S
H2097 C2109 0.930 . S
H2098 C2111 0.930 . S
H2099 C2112 0.930 . S
H2100 C2116 0.959 . S
H2101 C2116 0.959 . S
H2102 C2116 0.961 . S
H2103 C2117 0.960 . S
H2104 C2117 0.961 . S
H2105 C2117 0.959 . S
H2106 C2120 0.929 . S
H2107 C2121 0.931 . S
H2108 C2123 0.930 . S
C2109 H2097 0.930 . S
C2109 C2110 1.399 . S
C2109 C2114 1.399 . S
C2110 C2109 1.399 . S
C2110 C2111 1.376 . S
C2111 H2098 0.930 . S
C2111 C2110 1.376 . S
C2111 C2112 1.388 . S
C2112 H2099 0.930 . S
C2112 C2111 1.388 . S
C2112 C2113 1.390 . S
C2113 C2112 1.390 . S
C2113 C2114 1.394 . S
C2113 C2119 1.465 . S
C2114 C2109 1.399 . S
C2114 C2113 1.394 . S
C2114 C2115 1.516 . S
C2115 C2114 1.516 . S
C2115 C2116 1.502 . S
C2115 C2117 1.561 . S
C2115 C2118 1.526 . S
C2116 H2100 0.959 . S
C2116 H2101 0.959 . S
C2116 H2102 0.961 . S
C2116 C2115 1.502 . S
C2117 H2103 0.960 . S
C2117 H2104 0.961 . S
C2117 H2105 0.959 . S
C2117 C2115 1.561 . S
C2118 C2115 1.526 . S
C2118 C2119 1.396 . S
C2118 C2123 1.390 . S
C2119 C2113 1.465 . S
C2119 C2118 1.396 . S
C2119 C2120 1.399 . S
C2120 H2106 0.929 . S
C2120 C2119 1.399 . S
C2120 C2121 1.385 . S
C2121 H2107 0.931 . S
C2121 C2120 1.385 . S
C2121 C2122 1.389 . S
C2122 C2121 1.389 . S
C2122 C2123 1.387 . S
C2123 H2108 0.930 . S
C2123 C2118 1.390 . S
C2123 C2122 1.387 . S
H2124 C2136 0.930 . S
H2125 C2138 0.930 . S
H2126 C2139 0.930 . S
H2127 C2143 0.959 . S
H2128 C2143 0.959 . S
H2129 C2143 0.961 . S
H2130 C2144 0.960 . S
H2131 C2144 0.961 . S
H2132 C2144 0.959 . S
H2133 C2147 0.929 . S
H2134 C2148 0.931 . S
H2135 C2150 0.930 . S
C2136 H2124 0.930 . S
C2136 C2137 1.399 . S
C2136 C2141 1.399 . S
C2137 C2136 1.399 . S
C2137 C2138 1.376 . S
C2138 H2125 0.930 . S
C2138 C2137 1.376 . S
C2138 C2139 1.388 . S
C2139 H2126 0.930 . S
C2139 C2138 1.388 . S
C2139 C2140 1.390 . S
C2140 C2139 1.390 . S
C2140 C2141 1.394 . S
C2140 C2146 1.465 . S
C2141 C2136 1.399 . S
C2141 C2140 1.394 . S
C2141 C2142 1.516 . S
C2142 C2141 1.516 . S
C2142 C2143 1.502 . S
C2142 C2144 1.561 . S
C2142 C2145 1.526 . S
C2143 H2127 0.959 . S
C2143 H2128 0.959 . S
C2143 H2129 0.961 . S
C2143 C2142 1.502 . S
C2144 H2130 0.960 . S
C2144 H2131 0.961 . S
C2144 H2132 0.959 . S
C2144 C2142 1.561 . S
C2145 C2142 1.526 . S
C2145 C2146 1.396 . S
C2145 C2150 1.390 . S
C2146 C2140 1.465 . S
C2146 C2145 1.396 . S
C2146 C2147 1.399 . S
C2147 H2133 0.929 . S
C2147 C2146 1.399 . S
C2147 C2148 1.385 . S
C2148 H2134 0.931 . S
C2148 C2147 1.385 . S
C2148 C2149 1.389 . S
C2149 C2148 1.389 . S
C2149 C2150 1.387 . S
C2150 H2135 0.930 . S
C2150 C2145 1.390 . S
C2150 C2149 1.387 . S
H2151 C2163 0.930 . S
H2152 C2165 0.930 1_554 S
H2153 C2166 0.919 1_554 S
H2154 C2170 0.959 . S
H2155 C2170 0.959 . S
H2156 C2170 0.961 . S
H2157 C2171 0.960 . S
H2158 C2171 0.961 . S
H2159 C2171 0.959 . S
H2160 C2174 0.929 . S
H2161 C2175 0.931 . S
H2162 C2177 0.930 . S
C2163 H2151 0.930 . S
C2163 C2164 1.399 . S
C2163 C2168 1.399 . S
C2164 C2163 1.399 . S
C2164 C2165 1.376 . S
C2165 H2152 0.930 1_556 S
C2165 C2164 1.376 . S
C2165 C2166 1.388 . S
C2166 H2153 0.919 1_556 S
C2166 C2165 1.388 . S
C2166 C2167 1.390 . S
C2167 C2166 1.390 . S
C2167 C2168 1.394 . S
C2167 C2173 1.465 . S
C2168 C2163 1.399 . S
C2168 C2167 1.394 . S
C2168 C2169 1.516 . S
C2169 C2168 1.516 . S
C2169 C2170 1.502 . S
C2169 C2171 1.561 . S
C2169 C2172 1.526 . S
C2170 H2154 0.959 . S
C2170 H2155 0.959 . S
C2170 H2156 0.961 . S
C2170 C2169 1.502 . S
C2171 H2157 0.960 . S
C2171 H2158 0.961 . S
C2171 H2159 0.959 . S
C2171 C2169 1.561 . S
C2172 C2169 1.526 . S
C2172 C2173 1.396 . S
C2172 C2177 1.390 . S
C2173 C2167 1.465 . S
C2173 C2172 1.396 . S
C2173 C2174 1.399 . S
C2174 H2160 0.929 . S
C2174 C2173 1.399 . S
C2174 C2175 1.385 . S
C2175 H2161 0.931 . S
C2175 C2174 1.385 . S
C2175 C2176 1.389 . S
C2176 C2175 1.389 . S
C2176 C2177 1.387 . S
C2177 H2162 0.930 . S
C2177 C2172 1.390 . S
C2177 C2176 1.387 . S
H2178 C2190 0.930 1_554 S
H2179 C2192 0.930 . S
H2180 C2193 0.930 . S
H2181 C2197 0.959 . S
H2182 C2197 0.959 . S
H2183 C2197 0.961 1_554 S
H2184 C2198 0.960 1_554 S
H2185 C2198 0.961 . S
H2186 C2198 0.959 . S
H2187 C2201 0.929 . S
H2188 C2202 0.931 . S
H2189 C2204 0.930 . S
C2190 H2178 0.930 1_556 S
C2190 C2191 1.399 . S
C2190 C2195 1.399 . S
C2191 C2190 1.399 . S
C2191 C2192 1.376 . S
C2192 H2179 0.930 . S
C2192 C2191 1.376 . S
C2192 C2193 1.388 . S
C2193 H2180 0.930 . S
C2193 C2192 1.388 . S
C2193 C2194 1.390 . S
C2194 C2193 1.390 . S
C2194 C2195 1.394 . S
C2194 C2200 1.465 . S
C2195 C2190 1.399 . S
C2195 C2194 1.394 . S
C2195 C2196 1.516 . S
C2196 C2195 1.516 . S
C2196 C2197 1.502 . S
C2196 C2198 1.561 . S
C2196 C2199 1.526 . S
C2197 H2181 0.959 . S
C2197 H2182 0.959 . S
C2197 H2183 0.961 1_556 S
C2197 C2196 1.502 . S
C2198 H2184 0.960 1_556 S
C2198 H2185 0.961 . S
C2198 H2186 0.959 . S
C2198 C2196 1.561 . S
C2199 C2196 1.526 . S
C2199 C2200 1.396 . S
C2199 C2204 1.390 . S
C2200 C2194 1.465 . S
C2200 C2199 1.396 . S
C2200 C2201 1.399 . S
C2201 H2187 0.929 . S
C2201 C2200 1.399 . S
C2201 C2202 1.385 . S
C2202 H2188 0.931 . S
C2202 C2201 1.385 . S
C2202 C2203 1.389 . S
C2203 C2202 1.389 . S
C2203 C2204 1.387 . S
C2204 H2189 0.930 . S
C2204 C2199 1.390 . S
C2204 C2203 1.387 . S
H2205 C2217 0.930 . S
H2206 C2219 0.930 . S
H2207 C2220 0.930 . S
H2208 C2224 0.959 . S
H2209 C2224 0.959 . S
H2210 C2224 0.961 . S
H2211 C2225 0.960 . S
H2212 C2225 0.961 . S
H2213 C2225 0.959 . S
H2214 C2228 0.929 . S
H2215 C2229 0.931 . S
H2216 C2231 0.930 . S
C2217 H2205 0.930 . S
C2217 C2218 1.399 . S
C2217 C2222 1.399 . S
C2218 C2217 1.399 . S
C2218 C2219 1.376 . S
C2219 H2206 0.930 . S
C2219 C2218 1.376 . S
C2219 C2220 1.388 . S
C2220 H2207 0.930 . S
C2220 C2219 1.388 . S
C2220 C2221 1.390 . S
C2221 C2220 1.390 . S
C2221 C2222 1.394 . S
C2221 C2227 1.465 . S
C2222 C2217 1.399 . S
C2222 C2221 1.394 . S
C2222 C2223 1.516 . S
C2223 C2222 1.516 . S
C2223 C2224 1.502 . S
C2223 C2225 1.561 . S
C2223 C2226 1.526 . S
C2224 H2208 0.959 . S
C2224 H2209 0.959 . S
C2224 H2210 0.961 . S
C2224 C2223 1.502 . S
C2225 H2211 0.960 . S
C2225 H2212 0.961 . S
C2225 H2213 0.959 . S
C2225 C2223 1.561 . S
C2226 C2223 1.526 . S
C2226 C2227 1.396 . S
C2226 C2231 1.390 . S
C2227 C2221 1.465 . S
C2227 C2226 1.396 . S
C2227 C2228 1.399 . S
C2228 H2214 0.929 . S
C2228 C2227 1.399 . S
C2228 C2229 1.385 . S
C2229 H2215 0.931 . S
C2229 C2228 1.385 . S
C2229 C2230 1.389 . S
C2230 C2229 1.389 . S
C2230 C2231 1.387 . S
C2231 H2216 0.930 . S
C2231 C2226 1.390 . S
C2231 C2230 1.387 . S
H2232 C2244 0.930 . S
H2233 C2246 0.930 . S
H2234 C2247 0.930 . S
H2235 C2251 0.959 . S
H2236 C2251 0.959 . S
H2237 C2251 0.961 . S
H2238 C2252 0.960 . S
H2239 C2252 0.961 . S
H2240 C2252 0.959 . S
H2241 C2255 0.929 . S
H2242 C2256 0.931 . S
H2243 C2258 0.930 . S
C2244 H2232 0.930 . S
C2244 C2245 1.399 . S
C2244 C2249 1.399 . S
C2245 C2244 1.399 . S
C2245 C2246 1.376 . S
C2246 H2233 0.930 . S
C2246 C2245 1.376 . S
C2246 C2247 1.388 . S
C2247 H2234 0.930 . S
C2247 C2246 1.388 . S
C2247 C2248 1.390 . S
C2248 C2247 1.390 . S
C2248 C2249 1.394 . S
C2248 C2254 1.465 . S
C2249 C2244 1.399 . S
C2249 C2248 1.394 . S
C2249 C2250 1.516 . S
C2250 C2249 1.516 . S
C2250 C2251 1.502 . S
C2250 C2252 1.561 . S
C2250 C2253 1.526 . S
C2251 H2235 0.959 . S
C2251 H2236 0.959 . S
C2251 H2237 0.961 . S
C2251 C2250 1.502 . S
C2252 H2238 0.960 . S
C2252 H2239 0.961 . S
C2252 H2240 0.959 . S
C2252 C2250 1.561 . S
C2253 C2250 1.526 . S
C2253 C2254 1.396 . S
C2253 C2258 1.390 . S
C2254 C2248 1.465 . S
C2254 C2253 1.396 . S
C2254 C2255 1.399 . S
C2255 H2241 0.929 . S
C2255 C2254 1.399 . S
C2255 C2256 1.385 . S
C2256 H2242 0.931 . S
C2256 C2255 1.385 . S
C2256 C2257 1.389 . S
C2257 C2256 1.389 . S
C2257 C2258 1.387 . S
C2258 H2243 0.930 . S
C2258 C2253 1.390 . S
C2258 C2257 1.387 . S
H2259 C2271 0.930 . S
H2260 C2273 0.930 1_554 S
H2261 C2274 0.930 . S
H2262 C2278 0.959 . S
H2263 C2278 0.959 . S
H2264 C2278 0.961 . S
H2265 C2279 0.960 . S
H2266 C2279 0.961 . S
H2267 C2279 0.959 . S
H2268 C2282 0.929 . S
H2269 C2283 0.931 . S
H2270 C2285 0.930 . S
C2271 H2259 0.930 . S
C2271 C2272 1.399 . S
C2271 C2276 1.399 . S
C2272 C2271 1.399 . S
C2272 C2273 1.376 . S
C2273 H2260 0.930 1_556 S
C2273 C2272 1.376 . S
C2273 C2274 1.388 . S
C2274 H2261 0.930 . S
C2274 C2273 1.388 . S
C2274 C2275 1.390 . S
C2275 C2274 1.390 . S
C2275 C2276 1.394 . S
C2275 C2281 1.465 . S
C2276 C2271 1.399 . S
C2276 C2275 1.394 . S
C2276 C2277 1.516 . S
C2277 C2276 1.516 . S
C2277 C2278 1.502 . S
C2277 C2279 1.561 . S
C2277 C2280 1.526 . S
C2278 H2262 0.959 . S
C2278 H2263 0.959 . S
C2278 H2264 0.961 . S
C2278 C2277 1.502 . S
C2279 H2265 0.960 . S
C2279 H2266 0.961 . S
C2279 H2267 0.959 . S
C2279 C2277 1.561 . S
C2280 C2277 1.526 . S
C2280 C2281 1.396 . S
C2280 C2285 1.390 . S
C2281 C2275 1.465 . S
C2281 C2280 1.396 . S
C2281 C2282 1.399 . S
C2282 H2268 0.929 . S
C2282 C2281 1.399 . S
C2282 C2283 1.385 . S
C2283 H2269 0.931 . S
C2283 C2282 1.385 . S
C2283 C2284 1.389 . S
C2284 C2283 1.389 . S
C2284 C2285 1.387 . S
C2285 H2270 0.930 . S
C2285 C2280 1.390 . S
C2285 C2284 1.387 . S
H2286 C2298 0.930 . S
H2287 C2300 0.930 1_554 S
H2288 C2301 0.930 . S
H2289 C2305 0.959 . S
H2290 C2305 0.959 . S
H2291 C2305 0.961 . S
H2292 C2306 0.960 . S
H2293 C2306 0.961 . S
H2294 C2306 0.959 . S
H2295 C2309 0.929 . S
H2296 C2310 0.931 . S
H2297 C2312 0.930 . S
C2298 H2286 0.930 . S
C2298 C2299 1.399 . S
C2298 C2303 1.399 . S
C2299 C2298 1.399 . S
C2299 C2300 1.376 . S
C2300 H2287 0.930 1_556 S
C2300 C2299 1.376 . S
C2300 C2301 1.388 . S
C2301 H2288 0.930 . S
C2301 C2300 1.388 . S
C2301 C2302 1.390 . S
C2302 C2301 1.390 . S
C2302 C2303 1.394 . S
C2302 C2308 1.465 . S
C2303 C2298 1.399 . S
C2303 C2302 1.394 . S
C2303 C2304 1.516 . S
C2304 C2303 1.516 . S
C2304 C2305 1.502 . S
C2304 C2306 1.561 . S
C2304 C2307 1.526 . S
C2305 H2289 0.959 . S
C2305 H2290 0.959 . S
C2305 H2291 0.961 . S
C2305 C2304 1.502 . S
C2306 H2292 0.960 . S
C2306 H2293 0.961 . S
C2306 H2294 0.959 . S
C2306 C2304 1.561 . S
C2307 C2304 1.526 . S
C2307 C2308 1.396 . S
C2307 C2312 1.390 . S
C2308 C2302 1.465 . S
C2308 C2307 1.396 . S
C2308 C2309 1.399 . S
C2309 H2295 0.929 . S
C2309 C2308 1.399 . S
C2309 C2310 1.385 . S
C2310 H2296 0.931 . S
C2310 C2309 1.385 . S
C2310 C2311 1.389 . S
C2311 C2310 1.389 . S
C2311 C2312 1.387 . S
C2312 H2297 0.930 . S
C2312 C2307 1.390 . S
C2312 C2311 1.387 . S
H2313 C2325 0.930 . S
H2314 C2327 0.930 . S
H2315 C2328 0.930 . S
H2316 C2332 0.959 . S
H2317 C2332 0.959 . S
H2318 C2332 0.961 . S
H2319 C2333 0.960 . S
H2320 C2333 0.961 . S
H2321 C2333 0.959 . S
H2322 C2336 0.929 . S
H2323 C2337 0.931 . S
H2324 C2339 0.930 . S
C2325 H2313 0.930 . S
C2325 C2326 1.399 . S
C2325 C2330 1.399 . S
C2326 C2325 1.399 . S
C2326 C2327 1.376 . S
C2327 H2314 0.930 . S
C2327 C2326 1.376 . S
C2327 C2328 1.388 . S
C2328 H2315 0.930 . S
C2328 C2327 1.388 . S
C2328 C2329 1.390 . S
C2329 C2328 1.390 . S
C2329 C2330 1.394 . S
C2329 C2335 1.465 . S
C2330 C2325 1.399 . S
C2330 C2329 1.394 . S
C2330 C2331 1.516 . S
C2331 C2330 1.516 . S
C2331 C2332 1.502 . S
C2331 C2333 1.561 . S
C2331 C2334 1.526 . S
C2332 H2316 0.959 . S
C2332 H2317 0.959 . S
C2332 H2318 0.961 . S
C2332 C2331 1.502 . S
C2333 H2319 0.960 . S
C2333 H2320 0.961 . S
C2333 H2321 0.959 . S
C2333 C2331 1.561 . S
C2334 C2331 1.526 . S
C2334 C2335 1.396 . S
C2334 C2339 1.390 . S
C2335 C2329 1.465 . S
C2335 C2334 1.396 . S
C2335 C2336 1.399 . S
C2336 H2322 0.929 . S
C2336 C2335 1.399 . S
C2336 C2337 1.385 . S
C2337 H2323 0.931 . S
C2337 C2336 1.385 . S
C2337 C2338 1.389 . S
C2338 C2337 1.389 . S
C2338 C2339 1.387 . S
C2339 H2324 0.930 . S
C2339 C2334 1.390 . S
C2339 C2338 1.387 . S
H2340 C2352 0.930 . S
H2341 C2354 0.930 . S
H2342 C2355 0.930 . S
H2343 C2359 0.959 . S
H2344 C2359 0.959 . S
H2345 C2359 0.961 . S
H2346 C2360 0.960 . S
H2347 C2360 0.961 . S
H2348 C2360 0.959 . S
H2349 C2363 0.929 . S
H2350 C2364 0.931 . S
H2351 C2366 0.930 . S
C2352 H2340 0.930 . S
C2352 C2353 1.399 . S
C2352 C2357 1.399 . S
C2353 C2352 1.399 . S
C2353 C2354 1.376 . S
C2354 H2341 0.930 . S
C2354 C2353 1.376 . S
C2354 C2355 1.388 . S
C2355 H2342 0.930 . S
C2355 C2354 1.388 . S
C2355 C2356 1.390 . S
C2356 C2355 1.390 . S
C2356 C2357 1.394 . S
C2356 C2362 1.465 . S
C2357 C2352 1.399 . S
C2357 C2356 1.394 . S
C2357 C2358 1.516 . S
C2358 C2357 1.516 . S
C2358 C2359 1.502 . S
C2358 C2360 1.561 . S
C2358 C2361 1.526 . S
C2359 H2343 0.959 . S
C2359 H2344 0.959 . S
C2359 H2345 0.961 . S
C2359 C2358 1.502 . S
C2360 H2346 0.960 . S
C2360 H2347 0.961 . S
C2360 H2348 0.959 . S
C2360 C2358 1.561 . S
C2361 C2358 1.526 . S
C2361 C2362 1.396 . S
C2361 C2366 1.390 . S
C2362 C2356 1.465 . S
C2362 C2361 1.396 . S
C2362 C2363 1.399 . S
C2363 H2349 0.929 . S
C2363 C2362 1.399 . S
C2363 C2364 1.385 . S
C2364 H2350 0.931 . S
C2364 C2363 1.385 . S
C2364 C2365 1.389 . S
C2365 C2364 1.389 . S
C2365 C2366 1.387 . S
C2366 H2351 0.930 . S
C2366 C2361 1.390 . S
C2366 C2365 1.387 . S
H2367 C2379 0.930 . S
H2368 C2381 0.930 . S
H2369 C2382 0.930 . S
H2370 C2386 0.959 . S
H2371 C2386 0.959 . S
H2372 C2386 0.961 . S
H2373 C2387 0.960 . S
H2374 C2387 0.961 . S
H2375 C2387 0.959 . S
H2376 C2390 0.929 . S
H2377 C2391 0.931 . S
H2378 C2393 0.930 . S
C2379 H2367 0.930 . S
C2379 C2380 1.399 . S
C2379 C2384 1.399 . S
C2380 C2379 1.399 . S
C2380 C2381 1.376 . S
C2381 H2368 0.930 . S
C2381 C2380 1.376 . S
C2381 C2382 1.388 . S
C2382 H2369 0.930 . S
C2382 C2381 1.388 . S
C2382 C2383 1.390 . S
C2383 C2382 1.390 . S
C2383 C2384 1.394 . S
C2383 C2389 1.465 . S
C2384 C2379 1.399 . S
C2384 C2383 1.394 . S
C2384 C2385 1.516 . S
C2385 C2384 1.516 . S
C2385 C2386 1.502 . S
C2385 C2387 1.561 . S
C2385 C2388 1.526 . S
C2386 H2370 0.959 . S
C2386 H2371 0.959 . S
C2386 H2372 0.961 . S
C2386 C2385 1.502 . S
C2387 H2373 0.960 . S
C2387 H2374 0.961 . S
C2387 H2375 0.959 . S
C2387 C2385 1.561 . S
C2388 C2385 1.526 . S
C2388 C2389 1.396 . S
C2388 C2393 1.390 . S
C2389 C2383 1.465 . S
C2389 C2388 1.396 . S
C2389 C2390 1.399 . S
C2390 H2376 0.929 . S
C2390 C2389 1.399 . S
C2390 C2391 1.385 . S
C2391 H2377 0.931 . S
C2391 C2390 1.385 . S
C2391 C2392 1.389 . S
C2392 C2391 1.389 . S
C2392 C2393 1.387 . S
C2393 H2378 0.930 . S
C2393 C2388 1.390 . S
C2393 C2392 1.387 . S
H2394 C2406 0.930 . S
H2395 C2408 0.930 . S
H2396 C2409 0.930 . S
H2397 C2413 0.959 . S
H2398 C2413 0.959 . S
H2399 C2413 0.961 . S
H2400 C2414 0.960 . S
H2401 C2414 0.961 . S
H2402 C2414 0.959 . S
H2403 C2417 0.929 . S
H2404 C2418 0.931 . S
H2405 C2420 0.930 . S
C2406 H2394 0.930 . S
C2406 C2407 1.399 . S
C2406 C2411 1.399 . S
C2407 C2406 1.399 . S
C2407 C2408 1.376 . S
C2408 H2395 0.930 . S
C2408 C2407 1.376 . S
C2408 C2409 1.388 . S
C2409 H2396 0.930 . S
C2409 C2408 1.388 . S
C2409 C2410 1.390 . S
C2410 C2409 1.390 . S
C2410 C2411 1.394 . S
C2410 C2416 1.465 . S
C2411 C2406 1.399 . S
C2411 C2410 1.394 . S
C2411 C2412 1.516 . S
C2412 C2411 1.516 . S
C2412 C2413 1.502 . S
C2412 C2414 1.561 . S
C2412 C2415 1.526 . S
C2413 H2397 0.959 . S
C2413 H2398 0.959 . S
C2413 H2399 0.961 . S
C2413 C2412 1.502 . S
C2414 H2400 0.960 . S
C2414 H2401 0.961 . S
C2414 H2402 0.959 . S
C2414 C2412 1.561 . S
C2415 C2412 1.526 . S
C2415 C2416 1.396 . S
C2415 C2420 1.390 . S
C2416 C2410 1.465 . S
C2416 C2415 1.396 . S
C2416 C2417 1.399 . S
C2417 H2403 0.929 . S
C2417 C2416 1.399 . S
C2417 C2418 1.385 . S
C2418 H2404 0.931 . S
C2418 C2417 1.385 . S
C2418 C2419 1.389 . S
C2419 C2418 1.389 . S
C2419 C2420 1.387 . S
C2420 H2405 0.930 . S
C2420 C2415 1.390 . S
C2420 C2419 1.387 . S
H2421 C2433 0.930 . S
H2422 C2435 0.930 . S
H2423 C2436 0.930 . S
H2424 C2440 0.959 . S
H2425 C2440 0.959 . S
H2426 C2440 0.961 . S
H2427 C2441 0.960 . S
H2428 C2441 0.961 . S
H2429 C2441 0.959 . S
H2430 C2444 0.929 . S
H2431 C2445 0.931 . S
H2432 C2447 0.930 . S
C2433 H2421 0.930 . S
C2433 C2434 1.399 . S
C2433 C2438 1.399 . S
C2434 C2433 1.399 . S
C2434 C2435 1.376 . S
C2435 H2422 0.930 . S
C2435 C2434 1.376 . S
C2435 C2436 1.388 . S
C2436 H2423 0.930 . S
C2436 C2435 1.388 . S
C2436 C2437 1.390 . S
C2437 C2436 1.390 . S
C2437 C2438 1.394 . S
C2437 C2443 1.465 . S
C2438 C2433 1.399 . S
C2438 C2437 1.394 . S
C2438 C2439 1.516 . S
C2439 C2438 1.516 . S
C2439 C2440 1.502 . S
C2439 C2441 1.561 . S
C2439 C2442 1.526 . S
C2440 H2424 0.959 . S
C2440 H2425 0.959 . S
C2440 H2426 0.961 . S
C2440 C2439 1.502 . S
C2441 H2427 0.960 . S
C2441 H2428 0.961 . S
C2441 H2429 0.959 . S
C2441 C2439 1.561 . S
C2442 C2439 1.526 . S
C2442 C2443 1.396 . S
C2442 C2447 1.390 . S
C2443 C2437 1.465 . S
C2443 C2442 1.396 . S
C2443 C2444 1.399 . S
C2444 H2430 0.929 . S
C2444 C2443 1.399 . S
C2444 C2445 1.385 . S
C2445 H2431 0.931 . S
C2445 C2444 1.385 . S
C2445 C2446 1.389 . S
C2446 C2445 1.389 . S
C2446 C2447 1.387 . S
C2447 H2432 0.930 . S
C2447 C2442 1.390 . S
C2447 C2446 1.387 . S
H2448 C2460 0.930 . S
H2449 C2462 0.930 . S
H2450 C2463 0.930 . S
H2451 C2467 0.959 . S
H2452 C2467 0.959 . S
H2453 C2467 0.961 . S
H2454 C2468 0.960 . S
H2455 C2468 0.961 . S
H2456 C2468 0.959 . S
H2457 C2471 0.929 . S
H2458 C2472 0.931 . S
H2459 C2474 0.930 . S
C2460 H2448 0.930 . S
C2460 C2461 1.399 . S
C2460 C2465 1.399 . S
C2461 C2460 1.399 . S
C2461 C2462 1.376 . S
C2462 H2449 0.930 . S
C2462 C2461 1.376 . S
C2462 C2463 1.388 . S
C2463 H2450 0.930 . S
C2463 C2462 1.388 . S
C2463 C2464 1.390 . S
C2464 C2463 1.390 . S
C2464 C2465 1.394 . S
C2464 C2470 1.465 . S
C2465 C2460 1.399 . S
C2465 C2464 1.394 . S
C2465 C2466 1.516 . S
C2466 C2465 1.516 . S
C2466 C2467 1.502 . S
C2466 C2468 1.561 . S
C2466 C2469 1.526 . S
C2467 H2451 0.959 . S
C2467 H2452 0.959 . S
C2467 H2453 0.961 . S
C2467 C2466 1.502 . S
C2468 H2454 0.960 . S
C2468 H2455 0.961 . S
C2468 H2456 0.959 . S
C2468 C2466 1.561 . S
C2469 C2466 1.526 . S
C2469 C2470 1.396 . S
C2469 C2474 1.390 . S
C2470 C2464 1.465 . S
C2470 C2469 1.396 . S
C2470 C2471 1.399 . S
C2471 H2457 0.929 . S
C2471 C2470 1.399 . S
C2471 C2472 1.385 . S
C2472 H2458 0.931 . S
C2472 C2471 1.385 . S
C2472 C2473 1.389 . S
C2473 C2472 1.389 . S
C2473 C2474 1.387 . S
C2474 H2459 0.930 . S
C2474 C2469 1.390 . S
C2474 C2473 1.387 . S
H2475 C2487 0.930 . S
H2476 C2489 0.930 . S
H2477 C2490 0.930 . S
H2478 C2494 0.959 . S
H2479 C2494 0.959 . S
H2480 C2494 0.961 . S
H2481 C2495 0.960 . S
H2482 C2495 0.961 . S
H2483 C2495 0.959 . S
H2484 C2498 0.929 . S
H2485 C2499 0.931 . S
H2486 C2501 0.930 . S
C2487 H2475 0.930 . S
C2487 C2488 1.399 . S
C2487 C2492 1.399 . S
C2488 C2487 1.399 . S
C2488 C2489 1.376 . S
C2489 H2476 0.930 . S
C2489 C2488 1.376 . S
C2489 C2490 1.388 . S
C2490 H2477 0.930 . S
C2490 C2489 1.388 . S
C2490 C2491 1.390 . S
C2491 C2490 1.390 . S
C2491 C2492 1.394 . S
C2491 C2497 1.465 . S
C2492 C2487 1.399 . S
C2492 C2491 1.394 . S
C2492 C2493 1.516 . S
C2493 C2492 1.516 . S
C2493 C2494 1.502 . S
C2493 C2495 1.561 1_455 S
C2493 C2496 1.526 . S
C2494 H2478 0.959 . S
C2494 H2479 0.959 . S
C2494 H2480 0.961 . S
C2494 C2493 1.502 . S
C2495 H2481 0.960 . S
C2495 H2482 0.961 . S
C2495 H2483 0.959 . S
C2495 C2493 1.561 1_655 S
C2496 C2493 1.526 . S
C2496 C2497 1.396 . S
C2496 C2501 1.390 . S
C2497 C2491 1.465 . S
C2497 C2496 1.396 . S
C2497 C2498 1.399 . S
C2498 H2484 0.929 . S
C2498 C2497 1.399 . S
C2498 C2499 1.385 . S
C2499 H2485 0.931 . S
C2499 C2498 1.385 . S
C2499 C2500 1.389 . S
C2500 C2499 1.389 . S
C2500 C2501 1.387 . S
C2501 H2486 0.930 . S
C2501 C2496 1.390 . S
C2501 C2500 1.387 . S
H2502 C2514 0.930 . S
H2503 C2516 0.930 . S
H2504 C2517 0.930 . S
H2505 C2521 0.959 . S
H2506 C2521 0.959 . S
H2507 C2521 0.961 . S
H2508 C2522 0.960 . S
H2509 C2522 0.961 . S
H2510 C2522 0.959 . S
H2511 C2525 0.929 . S
H2512 C2526 0.931 . S
H2513 C2528 0.930 . S
C2514 H2502 0.930 . S
C2514 C2515 1.399 . S
C2514 C2519 1.399 . S
C2515 C2514 1.399 . S
C2515 C2516 1.376 . S
C2516 H2503 0.930 . S
C2516 C2515 1.376 . S
C2516 C2517 1.388 . S
C2517 H2504 0.930 . S
C2517 C2516 1.388 . S
C2517 C2518 1.390 . S
C2518 C2517 1.390 . S
C2518 C2519 1.394 . S
C2518 C2524 1.465 . S
C2519 C2514 1.399 . S
C2519 C2518 1.394 . S
C2519 C2520 1.516 . S
C2520 C2519 1.516 . S
C2520 C2521 1.502 . S
C2520 C2522 1.561 . S
C2520 C2523 1.526 . S
C2521 H2505 0.959 . S
C2521 H2506 0.959 . S
C2521 H2507 0.961 . S
C2521 C2520 1.502 . S
C2522 H2508 0.960 . S
C2522 H2509 0.961 . S
C2522 H2510 0.959 . S
C2522 C2520 1.561 . S
C2523 C2520 1.526 . S
C2523 C2524 1.396 . S
C2523 C2528 1.390 . S
C2524 C2518 1.465 . S
C2524 C2523 1.396 . S
C2524 C2525 1.399 . S
C2525 H2511 0.929 . S
C2525 C2524 1.399 . S
C2525 C2526 1.385 . S
C2526 H2512 0.931 . S
C2526 C2525 1.385 . S
C2526 C2527 1.389 . S
C2527 C2526 1.389 . S
C2527 C2528 1.387 . S
C2528 H2513 0.930 . S
C2528 C2523 1.390 . S
C2528 C2527 1.387 . S
H2529 C2541 0.930 . S
H2530 C2543 0.930 . S
H2531 C2544 0.930 . S
H2532 C2548 0.959 . S
H2533 C2548 0.959 . S
H2534 C2548 0.961 . S
H2535 C2549 0.960 . S
H2536 C2549 0.961 . S
H2537 C2549 0.959 . S
H2538 C2552 0.929 . S
H2539 C2553 0.931 . S
H2540 C2555 0.930 . S
C2541 H2529 0.930 . S
C2541 C2542 1.399 1_545 S
C2541 C2546 1.408 . S
C2542 C2541 1.399 1_565 S
C2542 C2543 1.376 . S
C2543 H2530 0.930 . S
C2543 C2542 1.376 . S
C2543 C2544 1.388 . S
C2544 H2531 0.930 . S
C2544 C2543 1.388 . S
C2544 C2545 1.390 . S
C2545 C2544 1.390 . S
C2545 C2546 1.378 1_565 S
C2545 C2551 1.465 . S
C2546 C2541 1.408 . S
C2546 C2545 1.378 1_545 S
C2546 C2547 1.520 . S
C2547 C2546 1.520 . S
C2547 C2548 1.502 . S
C2547 C2549 1.561 . S
C2547 C2550 1.526 . S
C2548 H2532 0.959 . S
C2548 H2533 0.959 . S
C2548 H2534 0.961 . S
C2548 C2547 1.502 . S
C2549 H2535 0.960 . S
C2549 H2536 0.961 . S
C2549 H2537 0.959 . S
C2549 C2547 1.561 . S
C2550 C2547 1.526 . S
C2550 C2551 1.396 1_545 S
C2550 C2555 1.390 . S
C2551 C2545 1.465 . S
C2551 C2550 1.396 1_565 S
C2551 C2552 1.399 . S
C2552 H2538 0.929 . S
C2552 C2551 1.399 . S
C2552 C2553 1.385 . S
C2553 H2539 0.931 . S
C2553 C2552 1.385 . S
C2553 C2554 1.389 . S
C2554 C2553 1.389 . S
C2554 C2555 1.387 1_565 S
C2555 H2540 0.930 . S
C2555 C2550 1.390 . S
C2555 C2554 1.387 1_545 S
H2556 C2568 0.930 . S
H2557 C2570 0.930 . S
H2558 C2571 0.930 . S
H2559 C2575 0.959 . S
H2560 C2575 0.959 . S
H2561 C2575 0.961 . S
H2562 C2576 0.960 . S
H2563 C2576 0.961 . S
H2564 C2576 0.959 . S
H2565 C2579 0.929 . S
H2566 C2580 0.931 . S
H2567 C2582 0.930 . S
C2568 H2556 0.930 . S
C2568 C2569 1.399 1_545 S
C2568 C2573 1.399 1_545 S
C2569 C2568 1.399 1_565 S
C2569 C2570 1.376 . S
C2570 H2557 0.930 . S
C2570 C2569 1.376 . S
C2570 C2571 1.388 . S
C2571 H2558 0.930 . S
C2571 C2570 1.388 . S
C2571 C2572 1.390 . S
C2572 C2571 1.390 . S
C2572 C2573 1.395 . S
C2572 C2578 1.465 . S
C2573 C2568 1.399 1_565 S
C2573 C2572 1.395 . S
C2573 C2574 1.515 1_565 S
C2574 C2573 1.515 1_545 S
C2574 C2575 1.502 . S
C2574 C2576 1.561 . S
C2574 C2577 1.526 . S
C2575 H2559 0.959 . S
C2575 H2560 0.959 . S
C2575 H2561 0.961 . S
C2575 C2574 1.502 . S
C2576 H2562 0.960 . S
C2576 H2563 0.961 . S
C2576 H2564 0.959 . S
C2576 C2574 1.561 . S
C2577 C2574 1.526 . S
C2577 C2578 1.396 1_545 S
C2577 C2582 1.390 . S
C2578 C2572 1.465 . S
C2578 C2577 1.396 1_565 S
C2578 C2579 1.399 . S
C2579 H2565 0.929 . S
C2579 C2578 1.399 . S
C2579 C2580 1.385 . S
C2580 H2566 0.931 . S
C2580 C2579 1.385 . S
C2580 C2581 1.389 . S
C2581 C2580 1.389 . S
C2581 C2582 1.387 1_565 S
C2582 H2567 0.930 . S
C2582 C2577 1.390 . S
C2582 C2581 1.387 1_545 S
H2583 C2595 0.930 . S
H2584 C2597 0.882 1_655 S
H2585 C2598 0.930 . S
H2586 C2602 0.959 . S
H2587 C2602 0.959 . S
H2588 C2602 0.961 . S
H2589 C2603 0.960 . S
H2590 C2603 0.961 . S
H2591 C2603 0.959 1_655 S
H2592 C2606 0.929 . S
H2593 C2607 0.931 . S
H2594 C2609 0.930 . S
C2595 H2583 0.930 . S
C2595 C2596 1.399 . S
C2595 C2600 1.399 . S
C2596 C2595 1.399 . S
C2596 C2597 1.411 . S
C2597 H2584 0.882 1_455 S
C2597 C2596 1.411 . S
C2597 C2598 1.406 1_455 S
C2598 H2585 0.930 . S
C2598 C2597 1.406 1_655 S
C2598 C2599 1.390 1_655 S
C2599 C2598 1.390 1_455 S
C2599 C2600 1.394 . S
C2599 C2605 1.465 . S
C2600 C2595 1.399 . S
C2600 C2599 1.394 . S
C2600 C2601 1.516 . S
C2601 C2600 1.516 . S
C2601 C2602 1.502 . S
C2601 C2603 1.561 . S
C2601 C2604 1.526 . S
C2602 H2586 0.959 . S
C2602 H2587 0.959 . S
C2602 H2588 0.961 . S
C2602 C2601 1.502 . S
C2603 H2589 0.960 . S
C2603 H2590 0.961 . S
C2603 H2591 0.959 1_455 S
C2603 C2601 1.561 . S
C2604 C2601 1.526 . S
C2604 C2605 1.396 . S
C2604 C2609 1.390 . S
C2605 C2599 1.465 . S
C2605 C2604 1.396 . S
C2605 C2606 1.399 1_455 S
C2606 H2592 0.929 . S
C2606 C2605 1.399 1_655 S
C2606 C2607 1.385 . S
C2607 H2593 0.931 . S
C2607 C2606 1.385 . S
C2607 C2608 1.389 1_655 S
C2608 C2607 1.389 1_455 S
C2608 C2609 1.387 . S
C2609 H2594 0.930 . S
C2609 C2604 1.390 . S
C2609 C2608 1.387 . S
H2610 C2622 0.930 . S
H2611 C2624 0.930 . S
H2612 C2625 0.930 . S
H2613 C2629 0.959 . S
H2614 C2629 0.959 . S
H2615 C2629 0.961 . S
H2616 C2630 0.960 . S
H2617 C2630 0.961 . S
H2618 C2630 0.959 . S
H2619 C2633 0.929 . S
H2620 C2634 0.931 . S
H2621 C2636 0.930 . S
C2622 H2610 0.930 . S
C2622 C2623 1.399 . S
C2622 C2627 1.399 . S
C2623 C2622 1.399 . S
C2623 C2624 1.376 . S
C2624 H2611 0.930 . S
C2624 C2623 1.376 . S
C2624 C2625 1.388 . S
C2625 H2612 0.930 . S
C2625 C2624 1.388 . S
C2625 C2626 1.390 . S
C2626 C2625 1.390 . S
C2626 C2627 1.394 . S
C2626 C2632 1.465 . S
C2627 C2622 1.399 . S
C2627 C2626 1.394 . S
C2627 C2628 1.516 . S
C2628 C2627 1.516 . S
C2628 C2629 1.502 . S
C2628 C2630 1.561 . S
C2628 C2631 1.526 . S
C2629 H2613 0.959 . S
C2629 H2614 0.959 . S
C2629 H2615 0.961 . S
C2629 C2628 1.502 . S
C2630 H2616 0.960 . S
C2630 H2617 0.961 . S
C2630 H2618 0.959 . S
C2630 C2628 1.561 . S
C2631 C2628 1.526 . S
C2631 C2632 1.396 . S
C2631 C2636 1.390 . S
C2632 C2626 1.465 . S
C2632 C2631 1.396 . S
C2632 C2633 1.399 . S
C2633 H2619 0.929 . S
C2633 C2632 1.399 . S
C2633 C2634 1.385 . S
C2634 H2620 0.931 . S
C2634 C2633 1.385 . S
C2634 C2635 1.389 . S
C2635 C2634 1.389 . S
C2635 C2636 1.387 . S
C2636 H2621 0.930 . S
C2636 C2631 1.390 . S
C2636 C2635 1.387 . S
H2637 C2649 0.930 . S
H2638 C2651 0.930 . S
H2639 C2652 0.930 . S
H2640 C2656 0.959 . S
H2641 C2656 0.959 . S
H2642 C2656 0.961 . S
H2643 C2657 0.960 . S
H2644 C2657 0.961 . S
H2645 C2657 0.959 . S
H2646 C2660 0.929 . S
H2647 C2661 0.931 . S
H2648 C2663 0.930 . S
C2649 H2637 0.930 . S
C2649 C2650 1.399 . S
C2649 C2654 1.399 . S
C2650 C2649 1.399 . S
C2650 C2651 1.376 . S
C2651 H2638 0.930 . S
C2651 C2650 1.376 . S
C2651 C2652 1.388 . S
C2652 H2639 0.930 . S
C2652 C2651 1.388 . S
C2652 C2653 1.390 . S
C2653 C2652 1.390 . S
C2653 C2654 1.394 . S
C2653 C2659 1.465 . S
C2654 C2649 1.399 . S
C2654 C2653 1.394 . S
C2654 C2655 1.516 . S
C2655 C2654 1.516 . S
C2655 C2656 1.502 . S
C2655 C2657 1.561 . S
C2655 C2658 1.526 . S
C2656 H2640 0.959 . S
C2656 H2641 0.959 . S
C2656 H2642 0.961 . S
C2656 C2655 1.502 . S
C2657 H2643 0.960 . S
C2657 H2644 0.961 . S
C2657 H2645 0.959 . S
C2657 C2655 1.561 . S
C2658 C2655 1.526 . S
C2658 C2659 1.396 . S
C2658 C2663 1.390 . S
C2659 C2653 1.465 . S
C2659 C2658 1.396 . S
C2659 C2660 1.399 . S
C2660 H2646 0.929 . S
C2660 C2659 1.399 . S
C2660 C2661 1.385 . S
C2661 H2647 0.931 . S
C2661 C2660 1.385 . S
C2661 C2662 1.389 . S
C2662 C2661 1.389 . S
C2662 C2663 1.387 . S
C2663 H2648 0.930 . S
C2663 C2658 1.390 . S
C2663 C2662 1.387 . S
H2664 C2676 0.930 . S
H2665 C2678 0.930 . S
H2666 C2679 0.930 . S
H2667 C2683 0.959 . S
H2668 C2683 0.959 . S
H2669 C2683 0.961 . S
H2670 C2684 0.960 . S
H2671 C2684 0.961 . S
H2672 C2684 0.959 . S
H2673 C2687 0.929 . S
H2674 C2688 0.931 . S
H2675 C2690 0.930 . S
C2676 H2664 0.930 . S
C2676 C2677 1.399 . S
C2676 C2681 1.399 . S
C2677 C2676 1.399 . S
C2677 C2678 1.376 . S
C2678 H2665 0.930 . S
C2678 C2677 1.376 . S
C2678 C2679 1.388 . S
C2679 H2666 0.930 . S
C2679 C2678 1.388 . S
C2679 C2680 1.390 . S
C2680 C2679 1.390 . S
C2680 C2681 1.394 . S
C2680 C2686 1.465 . S
C2681 C2676 1.399 . S
C2681 C2680 1.394 . S
C2681 C2682 1.516 . S
C2682 C2681 1.516 . S
C2682 C2683 1.502 . S
C2682 C2684 1.561 . S
C2682 C2685 1.526 . S
C2683 H2667 0.959 . S
C2683 H2668 0.959 . S
C2683 H2669 0.961 . S
C2683 C2682 1.502 . S
C2684 H2670 0.960 . S
C2684 H2671 0.961 . S
C2684 H2672 0.959 . S
C2684 C2682 1.561 . S
C2685 C2682 1.526 . S
C2685 C2686 1.396 . S
C2685 C2690 1.390 . S
C2686 C2680 1.465 . S
C2686 C2685 1.396 . S
C2686 C2687 1.399 . S
C2687 H2673 0.929 . S
C2687 C2686 1.399 . S
C2687 C2688 1.385 . S
C2688 H2674 0.931 . S
C2688 C2687 1.385 . S
C2688 C2689 1.389 . S
C2689 C2688 1.389 . S
C2689 C2690 1.387 . S
C2690 H2675 0.930 . S
C2690 C2685 1.390 . S
C2690 C2689 1.387 . S
H2691 C2703 0.930 . S
H2692 C2705 0.930 . S
H2693 C2706 0.930 . S
H2694 C2710 0.959 . S
H2695 C2710 0.959 . S
H2696 C2710 0.961 . S
H2697 C2711 0.960 . S
H2698 C2711 0.961 . S
H2699 C2711 0.959 . S
H2700 C2714 0.929 . S
H2701 C2715 0.931 . S
H2702 C2717 0.930 . S
C2703 H2691 0.930 . S
C2703 C2704 1.399 . S
C2703 C2708 1.399 . S
C2704 C2703 1.399 . S
C2704 C2705 1.376 . S
C2705 H2692 0.930 . S
C2705 C2704 1.376 . S
C2705 C2706 1.388 . S
C2706 H2693 0.930 . S
C2706 C2705 1.388 . S
C2706 C2707 1.390 . S
C2707 C2706 1.390 . S
C2707 C2708 1.394 . S
C2707 C2713 1.465 . S
C2708 C2703 1.399 . S
C2708 C2707 1.394 . S
C2708 C2709 1.516 . S
C2709 C2708 1.516 . S
C2709 C2710 1.502 . S
C2709 C2711 1.561 . S
C2709 C2712 1.526 . S
C2710 H2694 0.959 . S
C2710 H2695 0.959 . S
C2710 H2696 0.961 . S
C2710 C2709 1.502 . S
C2711 H2697 0.960 . S
C2711 H2698 0.961 . S
C2711 H2699 0.959 . S
C2711 C2709 1.561 . S
C2712 C2709 1.526 . S
C2712 C2713 1.396 . S
C2712 C2717 1.390 . S
C2713 C2707 1.465 . S
C2713 C2712 1.396 . S
C2713 C2714 1.399 . S
C2714 H2700 0.929 . S
C2714 C2713 1.399 . S
C2714 C2715 1.385 . S
C2715 H2701 0.931 . S
C2715 C2714 1.385 . S
C2715 C2716 1.389 . S
C2716 C2715 1.389 . S
C2716 C2717 1.387 . S
C2717 H2702 0.930 . S
C2717 C2712 1.390 . S
C2717 C2716 1.387 . S
H2718 C2730 0.930 1_565 S
H2719 C2732 0.930 . S
H2720 C2733 0.930 . S
H2721 C2737 0.959 1_545 S
H2722 C2737 0.959 . S
H2723 C2737 0.961 . S
H2724 C2738 0.960 . S
H2725 C2738 0.961 . S
H2726 C2738 0.959 . S
H2727 C2741 0.929 . S
H2728 C2742 0.931 . S
H2729 C2744 0.930 . S
C2730 H2718 0.930 1_545 S
C2730 C2731 1.399 . S
C2730 C2735 1.399 . S
C2731 C2730 1.399 . S
C2731 C2732 1.376 . S
C2732 H2719 0.930 . S
C2732 C2731 1.376 . S
C2732 C2733 1.388 . S
C2733 H2720 0.930 . S
C2733 C2732 1.388 . S
C2733 C2734 1.390 . S
C2734 C2733 1.390 . S
C2734 C2735 1.394 . S
C2734 C2740 1.465 . S
C2735 C2730 1.399 . S
C2735 C2734 1.394 . S
C2735 C2736 1.516 1_545 S
C2736 C2735 1.516 1_565 S
C2736 C2737 1.502 . S
C2736 C2738 1.561 . S
C2736 C2739 1.526 . S
C2737 H2721 0.959 1_565 S
C2737 H2722 0.959 . S
C2737 H2723 0.961 . S
C2737 C2736 1.502 . S
C2738 H2724 0.960 . S
C2738 H2725 0.961 . S
C2738 H2726 0.959 . S
C2738 C2736 1.561 . S
C2739 C2736 1.526 . S
C2739 C2740 1.396 1_565 S
C2739 C2744 1.390 . S
C2740 C2734 1.465 . S
C2740 C2739 1.396 1_545 S
C2740 C2741 1.399 . S
C2741 H2727 0.929 . S
C2741 C2740 1.399 . S
C2741 C2742 1.385 . S
C2742 H2728 0.931 . S
C2742 C2741 1.385 . S
C2742 C2743 1.389 . S
C2743 C2742 1.389 . S
C2743 C2744 1.387 1_545 S
C2744 H2729 0.930 . S
C2744 C2739 1.390 . S
C2744 C2743 1.387 1_565 S
H2745 C2757 0.930 . S
H2746 C2759 0.930 . S
H2747 C2760 0.930 . S
H2748 C2764 0.959 . S
H2749 C2764 0.959 . S
H2750 C2764 0.961 . S
H2751 C2765 0.960 . S
H2752 C2765 0.961 . S
H2753 C2765 0.959 . S
H2754 C2768 0.929 . S
H2755 C2769 0.931 . S
H2756 C2771 0.930 . S
C2757 H2745 0.930 . S
C2757 C2758 1.399 . S
C2757 C2762 1.399 . S
C2758 C2757 1.399 . S
C2758 C2759 1.376 1_655 S
C2759 H2746 0.930 . S
C2759 C2758 1.376 1_455 S
C2759 C2760 1.388 . S
C2760 H2747 0.930 . S
C2760 C2759 1.388 . S
C2760 C2761 1.390 . S
C2761 C2760 1.390 . S
C2761 C2762 1.394 1_455 S
C2761 C2767 1.465 . S
C2762 C2757 1.399 . S
C2762 C2761 1.394 1_655 S
C2762 C2763 1.516 . S
C2763 C2762 1.516 . S
C2763 C2764 1.502 . S
C2763 C2765 1.561 . S
C2763 C2766 1.526 . S
C2764 H2748 0.959 . S
C2764 H2749 0.959 . S
C2764 H2750 0.961 . S
C2764 C2763 1.502 . S
C2765 H2751 0.960 . S
C2765 H2752 0.961 . S
C2765 H2753 0.959 . S
C2765 C2763 1.561 . S
C2766 C2763 1.526 . S
C2766 C2767 1.396 1_655 S
C2766 C2771 1.390 . S
C2767 C2761 1.465 . S
C2767 C2766 1.396 1_455 S
C2767 C2768 1.399 . S
C2768 H2754 0.929 . S
C2768 C2767 1.399 . S
C2768 C2769 1.385 . S
C2769 H2755 0.931 . S
C2769 C2768 1.385 . S
C2769 C2770 1.389 1_455 S
C2770 C2769 1.389 1_655 S
C2770 C2771 1.387 . S
C2771 H2756 0.930 . S
C2771 C2766 1.390 . S
C2771 C2770 1.387 . S
H2772 C2784 0.930 . S
H2773 C2786 0.930 . S
H2774 C2787 0.930 . S
H2775 C2791 0.959 . S
H2776 C2791 0.959 . S
H2777 C2791 0.961 . S
H2778 C2792 0.960 . S
H2779 C2792 0.961 . S
H2780 C2792 0.959 . S
H2781 C2795 0.929 . S
H2782 C2796 0.931 . S
H2783 C2798 0.930 . S
C2784 H2772 0.930 . S
C2784 C2785 1.399 . S
C2784 C2789 1.399 . S
C2785 C2784 1.399 . S
C2785 C2786 1.376 . S
C2786 H2773 0.930 . S
C2786 C2785 1.376 . S
C2786 C2787 1.388 . S
C2787 H2774 0.930 . S
C2787 C2786 1.388 . S
C2787 C2788 1.390 . S
C2788 C2787 1.390 . S
C2788 C2789 1.394 . S
C2788 C2794 1.465 . S
C2789 C2784 1.399 . S
C2789 C2788 1.394 . S
C2789 C2790 1.516 . S
C2790 C2789 1.516 . S
C2790 C2791 1.502 . S
C2790 C2792 1.561 . S
C2790 C2793 1.526 . S
C2791 H2775 0.959 . S
C2791 H2776 0.959 . S
C2791 H2777 0.961 . S
C2791 C2790 1.502 . S
C2792 H2778 0.960 . S
C2792 H2779 0.961 . S
C2792 H2780 0.959 . S
C2792 C2790 1.561 . S
C2793 C2790 1.526 . S
C2793 C2794 1.396 . S
C2793 C2798 1.390 . S
C2794 C2788 1.465 . S
C2794 C2793 1.396 . S
C2794 C2795 1.399 . S
C2795 H2781 0.929 . S
C2795 C2794 1.399 . S
C2795 C2796 1.385 . S
C2796 H2782 0.931 . S
C2796 C2795 1.385 . S
C2796 C2797 1.389 . S
C2797 C2796 1.389 . S
C2797 C2798 1.387 . S
C2798 H2783 0.930 . S
C2798 C2793 1.390 . S
C2798 C2797 1.387 . S
H2799 C2811 0.930 . S
H2800 C2813 0.930 . S
H2801 C2814 0.930 . S
H2802 C2818 0.959 . S
H2803 C2818 0.959 . S
H2804 C2818 0.961 . S
H2805 C2819 0.960 . S
H2806 C2819 0.961 . S
H2807 C2819 0.959 . S
H2808 C2822 0.929 . S
H2809 C2823 0.931 . S
H2810 C2825 0.930 . S
C2811 H2799 0.930 . S
C2811 C2812 1.399 . S
C2811 C2816 1.399 . S
C2812 C2811 1.399 . S
C2812 C2813 1.376 . S
C2813 H2800 0.930 . S
C2813 C2812 1.376 . S
C2813 C2814 1.388 . S
C2814 H2801 0.930 . S
C2814 C2813 1.388 . S
C2814 C2815 1.390 . S
C2815 C2814 1.390 . S
C2815 C2816 1.394 . S
C2815 C2821 1.465 . S
C2816 C2811 1.399 . S
C2816 C2815 1.394 . S
C2816 C2817 1.516 . S
C2817 C2816 1.516 . S
C2817 C2818 1.502 . S
C2817 C2819 1.561 . S
C2817 C2820 1.526 . S
C2818 H2802 0.959 . S
C2818 H2803 0.959 . S
C2818 H2804 0.961 . S
C2818 C2817 1.502 . S
C2819 H2805 0.960 . S
C2819 H2806 0.961 . S
C2819 H2807 0.959 . S
C2819 C2817 1.561 . S
C2820 C2817 1.526 . S
C2820 C2821 1.396 . S
C2820 C2825 1.390 . S
C2821 C2815 1.465 . S
C2821 C2820 1.396 . S
C2821 C2822 1.399 . S
C2822 H2808 0.929 . S
C2822 C2821 1.399 . S
C2822 C2823 1.385 . S
C2823 H2809 0.931 . S
C2823 C2822 1.385 . S
C2823 C2824 1.389 . S
C2824 C2823 1.389 . S
C2824 C2825 1.387 . S
C2825 H2810 0.930 . S
C2825 C2820 1.390 . S
C2825 C2824 1.387 . S
H2826 C2838 0.930 . S
H2827 C2840 0.930 . S
H2828 C2841 0.930 . S
H2829 C2845 0.959 . S
H2830 C2845 0.959 . S
H2831 C2845 0.961 . S
H2832 C2846 0.960 . S
H2833 C2846 0.961 . S
H2834 C2846 0.959 . S
H2835 C2849 0.929 . S
H2836 C2850 0.931 . S
H2837 C2852 0.930 . S
C2838 H2826 0.930 . S
C2838 C2839 1.399 . S
C2838 C2843 1.399 . S
C2839 C2838 1.399 . S
C2839 C2840 1.376 . S
C2840 H2827 0.930 . S
C2840 C2839 1.376 . S
C2840 C2841 1.388 . S
C2841 H2828 0.930 . S
C2841 C2840 1.388 . S
C2841 C2842 1.390 . S
C2842 C2841 1.390 . S
C2842 C2843 1.394 . S
C2842 C2848 1.465 . S
C2843 C2838 1.399 . S
C2843 C2842 1.394 . S
C2843 C2844 1.516 . S
C2844 C2843 1.516 . S
C2844 C2845 1.502 . S
C2844 C2846 1.561 . S
C2844 C2847 1.526 . S
C2845 H2829 0.959 . S
C2845 H2830 0.959 . S
C2845 H2831 0.961 . S
C2845 C2844 1.502 . S
C2846 H2832 0.960 . S
C2846 H2833 0.961 . S
C2846 H2834 0.959 . S
C2846 C2844 1.561 . S
C2847 C2844 1.526 . S
C2847 C2848 1.396 . S
C2847 C2852 1.390 . S
C2848 C2842 1.465 . S
C2848 C2847 1.396 . S
C2848 C2849 1.399 . S
C2849 H2835 0.929 . S
C2849 C2848 1.399 . S
C2849 C2850 1.385 . S
C2850 H2836 0.931 . S
C2850 C2849 1.385 . S
C2850 C2851 1.389 . S
C2851 C2850 1.389 . S
C2851 C2852 1.387 . S
C2852 H2837 0.930 . S
C2852 C2847 1.390 . S
C2852 C2851 1.387 . S
H2853 C2865 0.930 . S
H2854 C2867 0.930 . S
H2855 C2868 0.930 . S
H2856 C2872 0.959 . S
H2857 C2872 0.959 . S
H2858 C2872 0.961 . S
H2859 C2873 0.960 . S
H2860 C2873 0.961 . S
H2861 C2873 0.959 . S
H2862 C2876 0.929 . S
H2863 C2877 0.931 . S
H2864 C2879 0.930 . S
C2865 H2853 0.930 . S
C2865 C2866 1.399 . S
C2865 C2870 1.399 . S
C2866 C2865 1.399 . S
C2866 C2867 1.376 . S
C2867 H2854 0.930 . S
C2867 C2866 1.376 . S
C2867 C2868 1.388 . S
C2868 H2855 0.930 . S
C2868 C2867 1.388 . S
C2868 C2869 1.390 . S
C2869 C2868 1.390 . S
C2869 C2870 1.394 . S
C2869 C2875 1.465 . S
C2870 C2865 1.399 . S
C2870 C2869 1.394 . S
C2870 C2871 1.516 . S
C2871 C2870 1.516 . S
C2871 C2872 1.502 . S
C2871 C2873 1.561 . S
C2871 C2874 1.526 . S
C2872 H2856 0.959 . S
C2872 H2857 0.959 . S
C2872 H2858 0.961 . S
C2872 C2871 1.502 . S
C2873 H2859 0.960 . S
C2873 H2860 0.961 . S
C2873 H2861 0.959 . S
C2873 C2871 1.561 . S
C2874 C2871 1.526 . S
C2874 C2875 1.396 . S
C2874 C2879 1.390 . S
C2875 C2869 1.465 . S
C2875 C2874 1.396 . S
C2875 C2876 1.399 . S
C2876 H2862 0.929 . S
C2876 C2875 1.399 . S
C2876 C2877 1.385 . S
C2877 H2863 0.931 . S
C2877 C2876 1.385 . S
C2877 C2878 1.389 . S
C2878 C2877 1.389 . S
C2878 C2879 1.387 . S
C2879 H2864 0.930 . S
C2879 C2874 1.390 . S
C2879 C2878 1.387 . S
H2880 C2892 0.930 . S
H2881 C2894 0.930 . S
H2882 C2895 0.930 . S
H2883 C2899 0.959 . S
H2884 C2899 0.959 . S
H2885 C2899 0.961 . S
H2886 C2900 0.960 . S
H2887 C2900 0.961 . S
H2888 C2900 0.959 . S
H2889 C2903 0.929 . S
H2890 C2904 0.931 . S
H2891 C2906 0.930 . S
C2892 H2880 0.930 . S
C2892 C2893 1.399 . S
C2892 C2897 1.399 . S
C2893 C2892 1.399 . S
C2893 C2894 1.376 . S
C2894 H2881 0.930 . S
C2894 C2893 1.376 . S
C2894 C2895 1.388 . S
C2895 H2882 0.930 . S
C2895 C2894 1.388 . S
C2895 C2896 1.390 . S
C2896 C2895 1.390 . S
C2896 C2897 1.394 . S
C2896 C2902 1.465 . S
C2897 C2892 1.399 . S
C2897 C2896 1.394 . S
C2897 C2898 1.516 . S
C2898 C2897 1.516 . S
C2898 C2899 1.502 . S
C2898 C2900 1.561 . S
C2898 C2901 1.526 . S
C2899 H2883 0.959 . S
C2899 H2884 0.959 . S
C2899 H2885 0.961 . S
C2899 C2898 1.502 . S
C2900 H2886 0.960 . S
C2900 H2887 0.961 . S
C2900 H2888 0.959 . S
C2900 C2898 1.561 . S
C2901 C2898 1.526 . S
C2901 C2902 1.396 . S
C2901 C2906 1.390 . S
C2902 C2896 1.465 . S
C2902 C2901 1.396 . S
C2902 C2903 1.399 . S
C2903 H2889 0.929 . S
C2903 C2902 1.399 . S
C2903 C2904 1.385 . S
C2904 H2890 0.931 . S
C2904 C2903 1.385 . S
C2904 C2905 1.389 . S
C2905 C2904 1.389 . S
C2905 C2906 1.387 . S
C2906 H2891 0.930 . S
C2906 C2901 1.390 . S
C2906 C2905 1.387 . S
H2907 C2919 0.930 . S
H2908 C2921 0.930 . S
H2909 C2922 0.930 . S
H2910 C2926 0.959 . S
H2911 C2926 0.959 . S
H2912 C2926 0.961 . S
H2913 C2927 0.960 . S
H2914 C2927 0.961 . S
H2915 C2927 0.959 . S
H2916 C2930 0.929 . S
H2917 C2931 0.931 . S
H2918 C2933 0.930 . S
C2919 H2907 0.930 . S
C2919 C2920 1.399 . S
C2919 C2924 1.399 . S
C2920 C2919 1.399 . S
C2920 C2921 1.376 . S
C2921 H2908 0.930 . S
C2921 C2920 1.376 . S
C2921 C2922 1.388 . S
C2922 H2909 0.930 . S
C2922 C2921 1.388 . S
C2922 C2923 1.390 . S
C2923 C2922 1.390 . S
C2923 C2924 1.394 . S
C2923 C2929 1.465 . S
C2924 C2919 1.399 . S
C2924 C2923 1.394 . S
C2924 C2925 1.516 . S
C2925 C2924 1.516 . S
C2925 C2926 1.502 . S
C2925 C2927 1.561 . S
C2925 C2928 1.526 . S
C2926 H2910 0.959 . S
C2926 H2911 0.959 . S
C2926 H2912 0.961 . S
C2926 C2925 1.502 . S
C2927 H2913 0.960 . S
C2927 H2914 0.961 . S
C2927 H2915 0.959 . S
C2927 C2925 1.561 . S
C2928 C2925 1.526 . S
C2928 C2929 1.396 . S
C2928 C2933 1.390 . S
C2929 C2923 1.465 . S
C2929 C2928 1.396 . S
C2929 C2930 1.399 . S
C2930 H2916 0.929 . S
C2930 C2929 1.399 . S
C2930 C2931 1.385 . S
C2931 H2917 0.931 . S
C2931 C2930 1.385 . S
C2931 C2932 1.389 . S
C2932 C2931 1.389 . S
C2932 C2933 1.387 . S
C2933 H2918 0.930 . S
C2933 C2928 1.390 . S
C2933 C2932 1.387 . S
H2934 C2946 0.930 . S
H2935 C2948 0.930 . S
H2936 C2949 0.930 . S
H2937 C2953 0.959 . S
H2938 C2953 0.959 . S
H2939 C2953 0.961 . S
H2940 C2954 0.960 . S
H2941 C2954 0.961 . S
H2942 C2954 0.959 . S
H2943 C2957 0.929 . S
H2944 C2958 0.931 . S
H2945 C2960 0.930 . S
C2946 H2934 0.930 . S
C2946 C2947 1.399 . S
C2946 C2951 1.399 . S
C2947 C2946 1.399 . S
C2947 C2948 1.376 . S
C2948 H2935 0.930 . S
C2948 C2947 1.376 . S
C2948 C2949 1.388 . S
C2949 H2936 0.930 . S
C2949 C2948 1.388 . S
C2949 C2950 1.390 . S
C2950 C2949 1.390 . S
C2950 C2951 1.394 . S
C2950 C2956 1.465 . S
C2951 C2946 1.399 . S
C2951 C2950 1.394 . S
C2951 C2952 1.516 . S
C2952 C2951 1.516 . S
C2952 C2953 1.502 . S
C2952 C2954 1.561 . S
C2952 C2955 1.526 . S
C2953 H2937 0.959 . S
C2953 H2938 0.959 . S
C2953 H2939 0.961 . S
C2953 C2952 1.502 . S
C2954 H2940 0.960 . S
C2954 H2941 0.961 . S
C2954 H2942 0.959 . S
C2954 C2952 1.561 . S
C2955 C2952 1.526 . S
C2955 C2956 1.396 . S
C2955 C2960 1.390 . S
C2956 C2950 1.465 . S
C2956 C2955 1.396 . S
C2956 C2957 1.399 . S
C2957 H2943 0.929 . S
C2957 C2956 1.399 . S
C2957 C2958 1.385 . S
C2958 H2944 0.931 . S
C2958 C2957 1.385 . S
C2958 C2959 1.389 . S
C2959 C2958 1.389 . S
C2959 C2960 1.387 . S
C2960 H2945 0.930 . S
C2960 C2955 1.390 . S
C2960 C2959 1.387 . S
H2961 C2973 0.930 . S
H2962 C2975 0.930 . S
H2963 C2976 0.930 . S
H2964 C2980 0.959 . S
H2965 C2980 0.959 . S
H2966 C2980 0.961 . S
H2967 C2981 0.960 . S
H2968 C2981 0.961 . S
H2969 C2981 0.959 . S
H2970 C2984 0.929 . S
H2971 C2985 0.931 . S
H2972 C2987 0.914 1_455 S
C2973 H2961 0.930 . S
C2973 C2974 1.399 . S
C2973 C2978 1.399 . S
C2974 C2973 1.399 . S
C2974 C2975 1.376 . S
C2975 H2962 0.930 . S
C2975 C2974 1.376 . S
C2975 C2976 1.388 . S
C2976 H2963 0.930 . S
C2976 C2975 1.388 . S
C2976 C2977 1.390 . S
C2977 C2976 1.390 . S
C2977 C2978 1.394 . S
C2977 C2983 1.465 . S
C2978 C2973 1.399 . S
C2978 C2977 1.394 . S
C2978 C2979 1.516 . S
C2979 C2978 1.516 . S
C2979 C2980 1.502 1_655 S
C2979 C2981 1.561 . S
C2979 C2982 1.526 . S
C2980 H2964 0.959 . S
C2980 H2965 0.959 . S
C2980 H2966 0.961 . S
C2980 C2979 1.502 1_455 S
C2981 H2967 0.960 . S
C2981 H2968 0.961 . S
C2981 H2969 0.959 . S
C2981 C2979 1.561 . S
C2982 C2979 1.526 . S
C2982 C2983 1.396 . S
C2982 C2987 1.427 . S
C2983 C2977 1.465 . S
C2983 C2982 1.396 . S
C2983 C2984 1.399 . S
C2984 H2970 0.929 . S
C2984 C2983 1.399 . S
C2984 C2985 1.385 . S
C2985 H2971 0.931 . S
C2985 C2984 1.385 . S
C2985 C2986 1.389 . S
C2986 C2985 1.389 . S
C2986 C2987 1.370 . S
C2987 H2972 0.914 1_655 S
C2987 C2982 1.427 . S
C2987 C2986 1.370 . S
H2988 C3000 0.930 . S
H2989 C3002 0.930 . S
H2990 C3003 0.930 . S
H2991 C3007 0.959 . S
H2992 C3007 0.959 . S
H2993 C3007 0.961 . S
H2994 C3008 0.960 . S
H2995 C3008 0.961 . S
H2996 C3008 0.959 . S
H2997 C3011 0.929 . S
H2998 C3012 0.931 . S
H2999 C3014 0.930 . S
C3000 H2988 0.930 . S
C3000 C3001 1.399 . S
C3000 C3005 1.399 . S
C3001 C3000 1.399 . S
C3001 C3002 1.376 . S
C3002 H2989 0.930 . S
C3002 C3001 1.376 . S
C3002 C3003 1.388 . S
C3003 H2990 0.930 . S
C3003 C3002 1.388 . S
C3003 C3004 1.390 . S
C3004 C3003 1.390 . S
C3004 C3005 1.394 . S
C3004 C3010 1.465 . S
C3005 C3000 1.399 . S
C3005 C3004 1.394 . S
C3005 C3006 1.516 . S
C3006 C3005 1.516 . S
C3006 C3007 1.502 . S
C3006 C3008 1.561 . S
C3006 C3009 1.526 . S
C3007 H2991 0.959 . S
C3007 H2992 0.959 . S
C3007 H2993 0.961 . S
C3007 C3006 1.502 . S
C3008 H2994 0.960 . S
C3008 H2995 0.961 . S
C3008 H2996 0.959 . S
C3008 C3006 1.561 . S
C3009 C3006 1.526 . S
C3009 C3010 1.396 . S
C3009 C3014 1.390 . S
C3010 C3004 1.465 . S
C3010 C3009 1.396 . S
C3010 C3011 1.399 . S
C3011 H2997 0.929 . S
C3011 C3010 1.399 . S
C3011 C3012 1.385 . S
C3012 H2998 0.931 . S
C3012 C3011 1.385 . S
C3012 C3013 1.389 . S
C3013 C3012 1.389 . S
C3013 C3014 1.387 . S
C3014 H2999 0.930 . S
C3014 C3009 1.390 . S
C3014 C3013 1.387 . S
H3015 C3027 0.930 . S
H3016 C3029 0.930 . S
H3017 C3030 0.930 . S
H3018 C3034 0.959 . S
H3019 C3034 0.959 . S
H3020 C3034 0.961 . S
H3021 C3035 0.960 . S
H3022 C3035 0.961 . S
H3023 C3035 0.959 . S
H3024 C3038 0.929 . S
H3025 C3039 0.931 . S
H3026 C3041 0.930 . S
C3027 H3015 0.930 . S
C3027 C3028 1.399 . S
C3027 C3032 1.399 . S
C3028 C3027 1.399 . S
C3028 C3029 1.376 . S
C3029 H3016 0.930 . S
C3029 C3028 1.376 . S
C3029 C3030 1.388 . S
C3030 H3017 0.930 . S
C3030 C3029 1.388 . S
C3030 C3031 1.390 . S
C3031 C3030 1.390 . S
C3031 C3032 1.394 . S
C3031 C3037 1.465 . S
C3032 C3027 1.399 . S
C3032 C3031 1.394 . S
C3032 C3033 1.516 . S
C3033 C3032 1.516 . S
C3033 C3034 1.502 . S
C3033 C3035 1.561 1_545 S
C3033 C3036 1.526 . S
C3034 H3018 0.959 . S
C3034 H3019 0.959 . S
C3034 H3020 0.961 . S
C3034 C3033 1.502 . S
C3035 H3021 0.960 . S
C3035 H3022 0.961 . S
C3035 H3023 0.959 . S
C3035 C3033 1.561 1_565 S
C3036 C3033 1.526 . S
C3036 C3037 1.396 . S
C3036 C3041 1.390 . S
C3037 C3031 1.465 . S
C3037 C3036 1.396 . S
C3037 C3038 1.399 . S
C3038 H3024 0.929 . S
C3038 C3037 1.399 . S
C3038 C3039 1.385 . S
C3039 H3025 0.931 . S
C3039 C3038 1.385 . S
C3039 C3040 1.389 . S
C3040 C3039 1.389 . S
C3040 C3041 1.387 . S
C3041 H3026 0.930 . S
C3041 C3036 1.390 . S
C3041 C3040 1.387 . S
C1111 C10 1.579 1_655 S
C1123 C711 1.574 . S
C1138 C23 1.622 . S
C1150 C759 1.611 . S
C1177 C807 1.575 . S
C1165 C29 1.588 . S
C1192 C30 1.575 1_565 S
C1204 C831 1.602 . S
C1219 C5 1.593 1_655 S
C1231 C903 1.583 . S
C1246 C18 1.617 . S
C1258 C951 1.600 . S
C1273 C49 1.604 . S
C1285 C879 1.598 . S
C1312 C927 1.615 . S
C1300 C62 1.619 . S
C1339 C855 1.561 . S
C1327 C70 1.577 . S
C1354 C75 1.595 1_565 S
C1366 C783 1.580 . S
C1393 C687 1.604 . S
C1381 C44 1.614 1_655 S
C1408 C57 1.622 . S
C1420 C735 1.620 . S
C1435 C88 1.644 . S
C1447 C999 1.620 . S
C1462 C101 1.644 . S
C1474 C1047 1.643 . S
C1501 C1071 1.624 . S
C1489 C107 1.647 . S
C1516 C108 1.631 . S
C1528 C255 1.604 . S
C1543 C83 1.637 . S
C1555 C327 1.618 . S
C1570 C96 1.638 . S
C1582 C375 1.623 . S
C1597 C127 1.632 . S
C1609 C303 1.632 . S
C1624 C140 1.632 . S
C1636 C351 1.628 . S
C1663 C279 1.626 . S
C1651 C146 1.635 . S
C1690 C1095 1.629 . S
C1678 C147 1.650 . S
C1717 C975 1.640 . S
C1705 C122 1.640 . S
C1744 C1023 1.653 . S
C1732 C135 1.658 . S
C1759 C160 1.626 . S
C1771 C423 1.604 . S
C1786 C173 1.628 . S
C1798 C471 1.602 . S
C1813 C185 1.643 . S
C1825 C495 1.621 . S
C1840 C186 1.643 . S
C1852 C543 1.629 . S
C1879 C615 1.646 . S
C1867 C159 1.652 . S
C1906 C663 1.632 . S
C1894 C172 1.650 . S
C1933 C591 1.638 . S
C1921 C205 1.645 . S
C1960 C639 1.639 . S
C1948 C218 1.643 . S
C1975 C224 1.634 . S
C1987 C567 1.586 . S
C2014 C519 1.618 . S
C2002 C225 1.625 . S
C2029 C200 1.640 . S
C2041 C399 1.639 . S
C2068 C447 1.625 . S
C2056 C213 1.635 . S
C2095 C264 1.505 . S
C2083 C4 1.507 . S
C2110 C17 1.487 . S
C2122 C318 1.469 . S
C2149 C366 1.515 . S
C2137 C31 1.516 . S
C2176 C414 1.520 . S
C2164 C36 1.518 . S
C2203 C462 1.489 . S
C2191 C3 1.515 . S
C2230 C504 1.489 . S
C2218 C16 1.495 . S
C2245 C43 1.512 . S
C2257 C510 1.509 . S
C2272 C56 1.487 . S
C2284 C408 1.470 . S
C2299 C68 1.510 . S
C2311 C456 1.504 . S
C2326 C69 1.517 . S
C2338 C312 1.525 . S
C2365 C360 1.505 . S
C2353 C42 1.513 . S
C2380 C55 1.500 . S
C2392 C270 1.502 . S
C2419 C552 1.514 . S
C2407 C82 1.505 . S
C2434 C95 1.528 . S
C2446 C606 1.530 . S
C2461 C109 1.539 . S
C2473 C654 1.527 . S
C2500 C702 1.496 . S
C2488 C114 1.486 . S
C2515 C81 1.522 . S
C2527 C750 1.523 . S
C2542 C94 1.481 . S
C2554 C798 1.479 . S
C2569 C121 1.478 . S
C2581 C792 1.460 . S
C2596 C134 1.485 . S
C2608 C696 1.481 . S
C2635 C744 1.480 . S
C2623 C148 1.510 . S
C2650 C153 1.515 . S
C2662 C600 1.514 . S
C2677 C120 1.536 . S
C2689 C648 1.515 . S
C2716 C558 1.513 . S
C2704 C133 1.532 . S
C2743 C840 1.493 . S
C2731 C166 1.478 . S
C2758 C179 1.486 . S
C2770 C894 1.484 . S
C2785 C187 1.520 . S
C2797 C942 1.521 . S
C2824 C990 1.489 . S
C2812 C192 1.510 . S
C2851 C1038 1.511 . S
C2839 C161 1.537 . S
C2866 C174 1.526 . S
C2878 C1080 1.531 . S
C2893 C199 1.511 . S
C2905 C1086 1.500 . S
C2920 C212 1.518 . S
C2932 C984 1.505 . S
C2959 C1032 1.506 . S
C2947 C226 1.529 . S
C2986 C888 1.472 . S
C2974 C231 1.469 . S
C3013 C936 1.510 . S
C3001 C198 1.523 . S
C3028 C211 1.492 . S
C3040 C846 1.478 . S
