# Generated by pormake.
# Topology cml, (3,6)-cn, num edge types: 1
# Building blocks:
#     Node 0, Type 0, BuildingBlock: INOVEN_clean_linker_0, # of connection points: 3
#     Node 1, Type 0, BuildingBlock: INOVEN_clean_linker_0, # of connection points: 3
#     Node 2, Type 0, BuildingBlock: INOVEN_clean_linker_0, # of connection points: 3
#     Node 3, Type 0, BuildingBlock: INOVEN_clean_linker_0, # of connection points: 3
#     Node 4, Type 0, BuildingBlock: INOVEN_clean_linker_0, # of connection points: 3
#     Node 5, Type 0, BuildingBlock: INOVEN_clean_linker_0, # of connection points: 3
#     Node 6, Type 0, BuildingBlock: INOVEN_clean_linker_0, # of connection points: 3
#     Node 7, Type 0, BuildingBlock: INOVEN_clean_linker_0, # of connection points: 3
#     Node 8, Type 1, BuildingBlock: IZENUY_clean_sbu_0, # of connection points: 6
#     Node 9, Type 1, BuildingBlock: IZENUY_clean_sbu_0, # of connection points: 6
#     Node 10, Type 1, BuildingBlock: IZENUY_clean_sbu_0, # of connection points: 6
#     Node 11, Type 1, BuildingBlock: IZENUY_clean_sbu_0, # of connection points: 6
#     Edge 12, Type (0, 1), BuildingBlock: AJUNOK_clean_linker_0, # of connection points: 2
#     Edge 13, Type (0, 1), BuildingBlock: AJUNOK_clean_linker_0, # of connection points: 2
#     Edge 14, Type (0, 1), BuildingBlock: AJUNOK_clean_linker_0, # of connection points: 2
#     Edge 15, Type (0, 1), BuildingBlock: AJUNOK_clean_linker_0, # of connection points: 2
#     Edge 16, Type (0, 1), BuildingBlock: AJUNOK_clean_linker_0, # of connection points: 2
#     Edge 17, Type (0, 1), BuildingBlock: AJUNOK_clean_linker_0, # of connection points: 2
#     Edge 18, Type (0, 1), BuildingBlock: AJUNOK_clean_linker_0, # of connection points: 2
#     Edge 19, Type (0, 1), BuildingBlock: AJUNOK_clean_linker_0, # of connection points: 2
#     Edge 20, Type (0, 1), BuildingBlock: AJUNOK_clean_linker_0, # of connection points: 2
#     Edge 21, Type (0, 1), BuildingBlock: AJUNOK_clean_linker_0, # of connection points: 2
#     Edge 22, Type (0, 1), BuildingBlock: AJUNOK_clean_linker_0, # of connection points: 2
#     Edge 23, Type (0, 1), BuildingBlock: AJUNOK_clean_linker_0, # of connection points: 2
#     Edge 24, Type (0, 1), BuildingBlock: AJUNOK_clean_linker_0, # of connection points: 2
#     Edge 25, Type (0, 1), BuildingBlock: AJUNOK_clean_linker_0, # of connection points: 2
#     Edge 26, Type (0, 1), BuildingBlock: AJUNOK_clean_linker_0, # of connection points: 2
#     Edge 27, Type (0, 1), BuildingBlock: AJUNOK_clean_linker_0, # of connection points: 2
#     Edge 28, Type (0, 1), BuildingBlock: AJUNOK_clean_linker_0, # of connection points: 2
#     Edge 29, Type (0, 1), BuildingBlock: AJUNOK_clean_linker_0, # of connection points: 2
#     Edge 30, Type (0, 1), BuildingBlock: AJUNOK_clean_linker_0, # of connection points: 2
#     Edge 31, Type (0, 1), BuildingBlock: AJUNOK_clean_linker_0, # of connection points: 2
#     Edge 32, Type (0, 1), BuildingBlock: AJUNOK_clean_linker_0, # of connection points: 2
#     Edge 33, Type (0, 1), BuildingBlock: AJUNOK_clean_linker_0, # of connection points: 2
#     Edge 34, Type (0, 1), BuildingBlock: AJUNOK_clean_linker_0, # of connection points: 2
#     Edge 35, Type (0, 1), BuildingBlock: AJUNOK_clean_linker_0, # of connection points: 2
# Relax obj value: 0.004
# Max RMSD: 0.061
# Mean RMSD: 0.049
data_MOF--net-cml--node1-IZENUY_clean_sbu_0--node2-INOVEN_clean_linker_0--edge1-AJUNOK_clean_linker_0
_symmetry_space_group_name_H-M    P1
_symmetry_Int_Tables_number       1
_symmetry_cell_setting            triclinic
loop_
_symmetry_equiv_pos_as_xyz
'x, y, z'
_cell_length_a     27.004405
_cell_length_b     30.025268
_cell_length_c     26.724373
_cell_angle_alpha  89.301084
_cell_angle_beta   90.724592
_cell_angle_gamma 91.070526
loop_
_atom_site_label
_atom_site_type_symbol
_atom_site_fract_x
_atom_site_fract_y
_atom_site_fract_z
_atom_type_partial_charge
H0 H 0.29317 0.3428 0.08209 0.0
H1 H 0.39577 0.45138 0.05697 0.0
H2 H 0.29755 0.40898 0.93814 0.0
N3 N 0.25251 0.34264 0.99314 0.0
N4 N 0.23531 0.34165 0.94967 0.0
C5 C 0.30841 0.36864 0.05778 0.0
C6 C 0.34617 0.39699 0.07551 0.0
C7 C 0.29027 0.37299 0.0087 0.0
C8 C 0.31062 0.40595 0.97649 0.0
C9 C 0.34927 0.43405 0.99377 0.0
C10 C 0.36595 0.42981 0.04351 0.0
H11 H 0.75383 0.67975 0.58603 0.0
H12 H 0.66112 0.56373 0.56403 0.0
H13 H 0.76401 0.60497 0.45015 0.0
N14 N 0.79916 0.67795 0.4995 0.0
N15 N 0.81461 0.67874 0.45568 0.0
C16 C 0.74232 0.6516 0.56339 0.0
C17 C 0.7061 0.6215 0.58109 0.0
C18 C 0.76336 0.64599 0.51626 0.0
C19 C 0.74778 0.60967 0.48651 0.0
C20 C 0.71093 0.57957 0.50367 0.0
C21 C 0.69075 0.58573 0.55114 0.0
H22 H 0.75667 0.3491 0.06761 0.0
H23 H 0.65997 0.46126 0.06039 0.0
H24 H 0.74768 0.42943 0.93313 0.0
N25 N 0.79077 0.35883 0.97221 0.0
N26 N 0.80802 0.32411 0.99127 0.0
C27 C 0.74162 0.37719 0.04709 0.0
C28 C 0.7072 0.40474 0.0703 0.0
C29 C 0.75649 0.38609 0.99739 0.0
C30 C 0.73664 0.4228 0.9714 0.0
C31 C 0.70249 0.45067 0.99424 0.0
C32 C 0.68808 0.44119 0.04348 0.0
H33 H 0.30529 0.60885 0.42026 0.0
H34 H 0.40175 0.57596 0.54397 0.0
H35 H 0.2979 0.68181 0.55735 0.0
N36 N 0.26135 0.67517 0.46254 0.0
N37 N 0.24295 0.70761 0.48362 0.0
C38 C 0.31876 0.61472 0.45803 0.0
C39 C 0.356 0.58815 0.47878 0.0
C40 C 0.29823 0.64882 0.48577 0.0
C41 C 0.31445 0.65607 0.53537 0.0
C42 C 0.35154 0.62952 0.55682 0.0
C43 C 0.37218 0.59582 0.52811 0.0
H44 H 0.78642 0.84351 0.0848 0.0
H45 H 0.89089 0.95102 0.06091 0.0
H46 H 0.79764 0.90666 0.93936 0.0
N47 N 0.74878 0.84245 0.99326 0.0
N48 N 0.73538 0.8413 0.94845 0.0
C49 C 0.80271 0.86875 0.06042 0.0
C50 C 0.84002 0.89744 0.07882 0.0
C51 C 0.78659 0.87222 0.01041 0.0
C52 C 0.80892 0.90424 0.97834 0.0
C53 C 0.8471 0.93227 0.99638 0.0
C54 C 0.86147 0.9293 0.04681 0.0
H55 H 0.24424 0.19347 0.58192 0.0
H56 H 0.14897 0.07916 0.56128 0.0
H57 H 0.23939 0.12702 0.43974 0.0
N58 N 0.28416 0.19423 0.49269 0.0
N59 N 0.303 0.1924 0.45039 0.0
C60 C 0.23008 0.16685 0.55839 0.0
C61 C 0.19492 0.13636 0.57725 0.0
C62 C 0.24739 0.16309 0.50937 0.0
C63 C 0.22772 0.12911 0.47824 0.0
C64 C 0.19157 0.09886 0.49665 0.0
C65 C 0.17657 0.10234 0.54653 0.0
H66 H 0.24886 0.84468 0.07882 0.0
H67 H 0.15389 0.95659 0.05703 0.0
H68 H 0.24986 0.91683 0.9387 0.0
N69 N 0.28745 0.84499 0.99026 0.0
N70 N 0.30632 0.84569 0.94787 0.0
C71 C 0.23497 0.87153 0.05542 0.0
C72 C 0.19937 0.90018 0.07397 0.0
C73 C 0.25301 0.87683 0.00676 0.0
C74 C 0.23585 0.9123 0.97624 0.0
C75 C 0.20046 0.94191 0.99469 0.0
C76 C 0.18257 0.9352 0.04339 0.0
H77 H 0.7927 0.09651 0.43874 0.0
H78 H 0.88851 0.06844 0.56434 0.0
H79 H 0.78738 0.17738 0.56998 0.0
N80 N 0.75243 0.1668 0.47456 0.0
N81 N 0.73554 0.20152 0.49203 0.0
C82 C 0.80599 0.10385 0.47625 0.0
C83 C 0.84317 0.07818 0.49843 0.0
C84 C 0.78663 0.14002 0.50114 0.0
C85 C 0.80281 0.14968 0.55022 0.0
C86 C 0.83895 0.12327 0.57373 0.0
C87 C 0.85903 0.08771 0.54737 0.0
Fe88 Fe 0.02645 0.83256 0.31409 0.0
Fe89 Fe 0.02283 0.88091 0.41464 0.0
O90 O 0.0251 0.8826 0.34841 0.0
Fe91 Fe 0.0255 0.93466 0.31674 0.0
O92 O 0.96814 0.9208 0.28433 0.0
O93 O 0.98932 0.85389 0.26122 0.0
O94 O 0.96879 0.81268 0.34082 0.0
C95 C 0.96077 0.80759 0.38683 0.0
C96 C 0.0906 0.88372 0.25881 0.0
O97 O 0.98752 0.8279 0.41883 0.0
C98 C 0.08704 0.95513 0.39441 0.0
O99 O 0.06373 0.80279 0.36128 0.0
O100 O 0.08131 0.85282 0.41869 0.0
O101 O 0.0626 0.91654 0.26418 0.0
O102 O 0.08418 0.84842 0.28407 0.0
C103 C 0.95808 0.94732 0.39547 0.0
O104 O 0.05763 0.93369 0.42288 0.0
O105 O 0.08302 0.95202 0.34753 0.0
C106 C 0.09074 0.81689 0.39712 0.0
O107 O 0.96404 0.90919 0.4147 0.0
O108 O 0.98809 0.96248 0.36322 0.0
C109 C 0.96074 0.88685 0.25775 0.0
Fe110 Fe 0.01946 0.14486 0.91379 0.0
Fe111 Fe 0.01502 0.09427 0.81501 0.0
O112 O 0.01558 0.14532 0.84752 0.0
Fe113 Fe 1.0129 0.19652 0.81362 0.0
O114 O 0.07135 0.21581 0.84024 0.0
O115 O 0.05553 0.19704 0.9181 0.0
O116 O 0.07818 0.1154 0.91393 0.0
C117 C 0.08403 0.078 0.89372 0.0
C118 C 0.95161 0.21105 0.89801 0.0
O119 O 0.05357 0.06447 0.86073 0.0
C120 C 0.94743 0.14631 0.75855 0.0
O121 O 0.98417 0.09244 0.9212 0.0
O122 O 0.95844 0.07548 0.84527 0.0
O123 O 0.97698 0.22529 0.86128 0.0
O124 O 0.96126 0.17409 0.91879 0.0
C125 C 0.07754 0.14427 0.75632 0.0
O126 O 0.97656 0.11403 0.76297 0.0
O127 O 0.95424 0.18121 0.7837 0.0
C128 C 0.95478 0.07162 0.89208 0.0
O129 O 0.07153 0.10969 0.78297 0.0
O130 O 0.04858 0.17681 0.76018 0.0
C131 C 0.08149 0.21813 0.88628 0.0
Fe132 Fe 0.53021 0.32849 0.3106 0.0
Fe133 Fe 0.52732 0.37911 0.4096 0.0
O134 O 0.53044 0.37961 0.34337 0.0
Fe135 Fe 0.53402 0.43085 0.30997 0.0
O136 O 0.49766 0.41073 0.25652 0.0
O137 O 0.47363 0.34245 0.27687 0.0
O138 O 0.49126 0.29816 0.35586 0.0
C139 C 0.46054 0.31219 0.3871 0.0
C140 C 0.59804 0.38222 0.25478 0.0
O141 O 0.46803 0.34911 0.40833 0.0
C142 C 0.59624 0.44636 0.39471 0.0
O143 O 0.58687 0.31151 0.3424 0.0
O144 O 0.56156 0.32769 0.4177 0.0
O145 O 0.59216 0.41619 0.28127 0.0
O146 O 0.56866 0.34911 0.25879 0.0
C147 C 0.46738 0.45196 0.3819 0.0
O148 O 0.58627 0.40929 0.41561 0.0
O149 O 0.5706 0.45995 0.35787 0.0
C150 C 0.59203 0.3093 0.38941 0.0
O151 O 0.4927 0.43043 0.41365 0.0
O152 O 0.4763 0.44985 0.33581 0.0
C153 C 0.46743 0.37823 0.25245 0.0
Fe154 Fe 0.5154 0.65164 0.90748 0.0
Fe155 Fe 0.51413 0.59558 0.81242 0.0
O156 O 0.5146 0.64836 0.84128 0.0
Fe157 Fe 0.51502 0.6977 0.80402 0.0
O158 O 0.57278 0.7168 0.83212 0.0
O159 O 0.55217 0.70371 0.91007 0.0
O160 O 0.57353 0.62182 0.91232 0.0
C161 C 0.58003 0.58346 0.89487 0.0
C162 C 0.45005 0.71782 0.88366 0.0
O163 O 0.55084 0.56809 0.86161 0.0
C164 C 0.45083 0.64646 0.74886 0.0
O165 O 0.47921 0.59984 0.91711 0.0
O166 O 0.45613 0.57917 0.84169 0.0
O167 O 0.47787 0.72977 0.8478 0.0
O168 O 0.45749 0.68168 0.90714 0.0
C169 C 0.58007 0.64099 0.75296 0.0
O170 O 0.47785 0.6132 0.75757 0.0
O171 O 0.45743 0.68219 0.77252 0.0
C172 C 0.45089 0.57738 0.88845 0.0
O173 O 0.57201 0.60809 0.78159 0.0
O174 O 0.55227 0.67453 0.75367 0.0
C175 C 0.58044 0.72216 0.87823 0.0
C176 C 0.17999 0.3105 0.88615 0.0
C177 C 0.1976 0.31024 0.93569 0.0
C178 C 0.14284 0.28041 0.87028 0.0
C179 C 0.12166 0.24892 0.90364 0.0
H180 H 0.19514 0.33437 0.85946 0.0
H181 H 0.13034 0.28222 0.83165 0.0
S182 S 0.15621 0.2332 0.03765 0.0
N183 N 0.19194 0.27491 0.01823 0.0
N184 N 0.1224 0.21852 0.98852 0.0
C185 C 0.1394 0.248 0.95342 0.0
C186 C 0.17728 0.27857 0.96951 0.0
C187 C 0.8737 0.74116 0.47202 0.0
C188 C 0.85033 0.7109 0.43905 0.0
C189 C 0.90912 0.77235 0.45472 0.0
C190 C 0.92234 0.7747 0.40384 0.0
H191 H 0.86487 0.74067 0.51143 0.0
H192 H 0.92619 0.79482 0.48154 0.0
S193 S 0.87075 0.7025 0.30299 0.0
N194 N 0.84223 0.68496 0.35406 0.0
N195 N 0.90828 0.74352 0.32086 0.0
C196 C 0.89869 0.74464 0.37064 0.0
C197 C 0.86294 0.71279 0.38849 0.0
C198 C 0.85871 0.25777 0.98971 0.0
C199 C 0.84253 0.29694 0.96595 0.0
C200 C 0.89316 0.22992 0.96728 0.0
C201 C 0.91328 0.24023 0.91999 0.0
H202 H 0.84464 0.24873 0.0263 0.0
H203 H 0.90457 0.20037 0.98766 0.0
S204 S 0.88169 0.33859 0.8407 0.0
N205 N 0.8483 0.34426 0.89146 0.0
N206 N 0.91284 0.2923 0.84939 0.0
C207 C 0.89683 0.27925 0.8954 0.0
C208 C 0.86158 0.30753 0.91825 0.0
C209 C 0.18738 0.76983 0.48644 0.0
C210 C 0.20603 0.73396 0.46005 0.0
C211 C 0.15058 0.79682 0.46562 0.0
C212 C 0.13081 0.78866 0.41749 0.0
H213 H 0.20136 0.77689 0.52374 0.0
H214 H 0.13711 0.82389 0.48781 0.0
S215 S 0.16896 0.6997 0.33145 0.0
N216 N 0.20335 0.69223 0.38224 0.0
N217 N 0.13417 0.74288 0.34308 0.0
C218 C 0.14971 0.75306 0.39024 0.0
C219 C 0.18734 0.72566 0.41145 0.0
C220 C 0.6708 0.7836 0.96454 0.0
C221 C 0.69743 0.81157 0.9314 0.0
C222 C 0.63318 0.75482 0.94688 0.0
C223 C 0.62086 0.75278 0.89551 0.0
H224 H 0.67884 0.78398 0.00433 0.0
H225 H 0.61375 0.73394 0.97384 0.0
S226 S 0.68065 0.81957 0.79412 0.0
N227 N 0.70962 0.83571 0.84578 0.0
N228 N 0.63922 0.78164 0.81191 0.0
C229 C 0.64769 0.78056 0.86215 0.0
C230 C 0.68579 0.80993 0.88035 0.0
C231 C 0.35677 0.25917 0.46453 0.0
C232 C 0.3404 0.22335 0.4345 0.0
C233 C 0.3949 0.28837 0.44857 0.0
C234 C 0.41838 0.28257 0.40235 0.0
H235 H 0.34038 0.26454 0.50068 0.0
H236 H 0.40671 0.31508 0.47312 0.0
S237 S 0.38644 0.19523 0.30932 0.0
N238 N 0.34855 0.18488 0.35625 0.0
N239 N 0.4202 0.23917 0.32593 0.0
C240 C 0.4014 0.24732 0.3718 0.0
C241 C 0.36246 0.21794 0.388 0.0
C242 C 0.36604 0.81865 0.88819 0.0
C243 C 0.34032 0.81248 0.93306 0.0
C244 C 0.40088 0.78776 0.8724 0.0
C245 C 0.41127 0.74897 0.90073 0.0
H246 H 0.3595 0.84806 0.86537 0.0
H247 H 0.41996 0.79459 0.83766 0.0
S248 S 0.35167 0.71565 0.02045 0.0
N249 N 0.32614 0.76353 0.00518 0.0
N250 N 0.39117 0.70556 0.97554 0.0
C251 C 0.38483 0.74185 0.94539 0.0
C252 C 0.34953 0.7735 0.9616 0.0
C253 C 0.67699 0.26139 0.48928 0.0
C254 C 0.70206 0.22829 0.46413 0.0
C255 C 0.64209 0.28769 0.46444 0.0
C256 C 0.63124 0.28212 0.4131 0.0
H257 H 0.68393 0.26641 0.52885 0.0
H258 H 0.6233 0.3125 0.48591 0.0
S259 S 0.69018 0.20198 0.32879 0.0
N260 N 0.71618 0.19261 0.38408 0.0
N261 N 0.65054 0.24233 0.33724 0.0
C262 C 0.65741 0.24999 0.38689 0.0
C263 C 0.69282 0.2229 0.41239 0.0
C264 C 0.34765 0.50031 0.93503 0.0
C265 C 0.37449 0.46701 0.96049 0.0
C266 C 0.3723 0.53569 0.91 0.0
C267 C 0.4243 0.53872 0.91024 0.0
H268 H 0.30757 0.50004 0.9363 0.0
H269 H 0.35071 0.56155 0.89206 0.0
S270 S 0.51128 0.45711 0.96548 0.0
N271 N 0.45575 0.43692 0.97925 0.0
N272 N 0.5016 0.5038 0.93394 0.0
C273 C 0.45128 0.50456 0.93339 0.0
C274 C 0.42648 0.46853 0.95804 0.0
C275 C 0.68073 0.50075 0.49214 0.0
C276 C 0.68994 0.5435 0.47156 0.0
C277 C 0.65275 0.46855 0.466 0.0
C278 C 0.6327 0.47783 0.41821 0.0
H279 H 0.69368 0.49268 0.52964 0.0
H280 H 0.645 0.4369 0.48445 0.0
S281 S 0.65083 0.58318 0.34541 0.0
N282 N 0.67987 0.59228 0.39911 0.0
N283 N 0.62862 0.5317 0.34929 0.0
C284 C 0.64457 0.51949 0.39585 0.0
C285 C 0.67286 0.5523 0.42263 0.0
C286 C 0.65474 0.47905 0.91982 0.0
C287 C 0.67815 0.48757 0.96604 0.0
C288 C 0.62489 0.51102 0.89629 0.0
C289 C 0.61714 0.55296 0.91793 0.0
H290 H 0.65755 0.44665 0.90281 0.0
H291 H 0.60642 0.50206 0.86153 0.0
S292 S 0.6756 0.59363 0.03576 0.0
N293 N 0.69576 0.54235 0.03035 0.0
N294 N 0.63948 0.60243 0.98644 0.0
C295 C 0.64275 0.56279 0.96281 0.0
C296 C 0.67314 0.53011 0.9868 0.0
C297 C 0.38478 0.51007 0.47206 0.0
C298 C 0.37845 0.55215 0.44958 0.0
C299 C 0.41119 0.477 0.4483 0.0
C300 C 0.43213 0.48456 0.40095 0.0
H301 H 0.37034 0.50302 0.50903 0.0
H302 H 0.41662 0.44566 0.46798 0.0
S303 S 0.42336 0.58808 0.32448 0.0
N304 N 0.39318 0.59903 0.37615 0.0
N305 N 0.44225 0.53631 0.33095 0.0
C306 C 0.42369 0.52557 0.37665 0.0
C307 C 0.39701 0.55952 0.40112 0.0
C308 C 0.84876 0.99714 0.9361 0.0
C309 C 0.87409 0.96386 0.96312 0.0
C310 C 0.87493 0.03147 0.91102 0.0
C311 C 0.92694 0.03338 0.91277 0.0
H312 H 0.80866 0.99775 0.9363 0.0
H313 H 0.85452 0.05758 0.89209 0.0
S314 S 1.01034 0.95082 0.97179 0.0
N315 N 0.95395 0.93221 0.98479 0.0
N316 N 1.00276 0.99713 0.93889 0.0
C317 C 0.95249 0.99902 0.93718 0.0
C318 C 0.92613 0.96407 0.96204 0.0
C319 C 0.1145 0.05923 0.46779 0.0
C320 C 0.1663 0.06486 0.46453 0.0
C321 C 0.08955 0.02389 0.44437 0.0
C322 C 0.11505 0.99323 0.41559 0.0
H323 H 0.09302 0.0818 0.48978 0.0
H324 H 0.04984 0.02035 0.44911 0.0
S325 S 0.24977 0.99429 0.39144 0.0
N326 N 0.24195 0.03736 0.42829 0.0
N327 N 0.19413 0.97176 0.38218 0.0
C328 C 0.16626 0.99953 0.40942 0.0
C329 C 0.1921 0.03524 0.43426 0.0
C330 C 0.17325 0.02121 0.98473 0.0
C331 C 0.17909 0.97878 0.96368 0.0
C332 C 0.14483 0.05408 0.96071 0.0
C333 C 0.12084 0.04591 0.91458 0.0
H334 H 0.18922 0.02848 0.02118 0.0
H335 H 0.13984 0.08534 0.97966 0.0
S336 S 0.12889 0.94196 0.84091 0.0
N337 N 0.16153 0.93166 0.89225 0.0
N338 N 0.10923 0.99337 0.84637 0.0
C339 C 0.12915 1.00459 0.89156 0.0
C340 C 0.158 0.97112 0.91619 0.0
C341 C 0.87633 1.0012 0.49096 0.0
C342 C 0.86787 0.04338 0.46941 0.0
C343 C 0.90325 0.96918 0.46567 0.0
C344 C 0.92296 0.97834 0.41803 0.0
H345 H 0.8628 0.99319 0.52805 0.0
H346 H 0.91027 0.93774 0.48452 0.0
S347 S 0.90841 0.08295 0.34403 0.0
N348 N 0.87981 0.09213 0.39701 0.0
N349 N 0.92895 0.03166 0.34883 0.0
C350 C 0.91276 0.01974 0.39517 0.0
C351 C 0.88564 0.05234 0.42102 0.0
C352 C 0.38722 0.34877 0.14015 0.0
C353 C 0.36836 0.39053 0.12594 0.0
C354 C 0.41687 0.34402 0.18333 0.0
C355 C 0.42874 0.38101 0.21322 0.0
H356 H 0.38151 0.32022 0.1162 0.0
H357 H 0.43303 0.31196 0.19154 0.0
S358 S 0.38079 0.49534 0.19723 0.0
N359 N 0.35768 0.46776 0.14894 0.0
N360 N 0.41389 0.45909 0.2296 0.0
C361 C 0.40694 0.42203 0.20144 0.0
C362 C 0.37661 0.42674 0.15788 0.0
C363 C 0.65488 0.66807 0.63653 0.0
C364 C 0.6809 0.62869 0.62909 0.0
C365 C 0.62387 0.67247 0.67781 0.0
C366 C 0.61788 0.63765 0.71325 0.0
H367 H 0.65661 0.69481 0.60897 0.0
H368 H 0.60315 0.70283 0.68088 0.0
S369 S 0.68386 0.53 0.71357 0.0
N370 N 0.70282 0.55606 0.66234 0.0
N371 N 0.64517 0.56407 0.74031 0.0
C372 C 0.64634 0.59912 0.70763 0.0
C373 C 0.6776 0.59468 0.66542 0.0
C374 C 0.68465 0.43018 0.15589 0.0
C375 C 0.68808 0.39524 0.12148 0.0
C376 C 0.65801 0.42489 0.20036 0.0
C377 C 0.63338 0.38444 0.21226 0.0
H378 H 0.70099 0.46257 0.14731 0.0
H379 H 0.65484 0.45351 0.22432 0.0
S380 S 0.63588 0.28093 0.13734 0.0
N381 N 0.66815 0.31773 0.10419 0.0
N382 N 0.61878 0.30724 0.188 0.0
C383 C 0.63947 0.34825 0.17975 0.0
C384 C 0.66665 0.35375 0.13438 0.0
C385 C 0.3758 0.59936 0.64097 0.0
C386 C 0.36967 0.63643 0.60895 0.0
C387 C 0.39945 0.60354 0.68759 0.0
C388 C 0.41763 0.64503 0.70434 0.0
H389 H 0.36364 0.56649 0.62915 0.0
H390 H 0.40508 0.57368 0.70997 0.0
S391 S 0.40812 0.75301 0.63613 0.0
N392 N 0.38159 0.71643 0.5982 0.0
N393 N 0.42529 0.7245 0.68645 0.0
C394 C 0.40915 0.68289 0.67406 0.0
C395 C 0.38535 0.67854 0.62621 0.0
C396 C 0.88529 0.85282 0.14313 0.0
C397 C 0.86099 0.89222 0.12984 0.0
C398 C 0.91564 0.85072 0.18599 0.0
C399 C 0.92271 0.88798 0.2171 0.0
H400 H 0.8833 0.82434 0.11861 0.0
H401 H 0.93533 0.8202 0.19348 0.0
S402 S 0.86061 0.99688 0.20179 0.0
N403 N 0.84121 0.96756 0.15324 0.0
N404 N 0.89766 0.9639 0.2342 0.0
C405 C 0.8954 0.92653 0.20599 0.0
C406 C 0.86476 0.92859 0.1622 0.0
C407 C 0.14662 0.17932 0.63866 0.0
C408 C 0.17358 0.14122 0.62759 0.0
C409 C 0.11735 0.18078 0.68158 0.0
C410 C 0.11405 0.14417 0.71506 0.0
H411 H 0.14594 0.20719 0.61253 0.0
H412 H 0.09562 0.21019 0.68736 0.0
S413 S 0.18377 0.03899 0.70582 0.0
N414 N 0.19951 0.06798 0.6554 0.0
N415 N 0.14521 0.0705 0.73643 0.0
C416 C 0.14374 0.10703 0.70592 0.0
C417 C 0.17325 0.10559 0.66207 0.0
C418 C 0.1715 0.93029 0.15566 0.0
C419 C 0.17804 0.89337 0.12465 0.0
C420 C 0.14544 0.92624 0.20047 0.0
C421 C 0.12537 0.885 0.21645 0.0
H422 H 0.18537 0.96295 0.14443 0.0
H423 H 0.13967 0.95597 0.22206 0.0
S424 S 0.13412 0.77752 0.15044 0.0
N425 N 0.16356 0.81378 0.114 0.0
N426 N 0.11578 0.80598 0.19911 0.0
C427 C 0.13392 0.84727 0.18733 0.0
C428 C 0.15998 0.85149 0.14123 0.0
C429 C 0.86305 0.09749 0.65952 0.0
C430 C 0.85786 0.13286 0.625 0.0
C431 C 0.88912 0.10322 0.70459 0.0
C432 C 0.91063 0.14464 0.7172 0.0
H433 H 0.84877 0.06453 0.65057 0.0
H434 H 0.89443 0.0744 0.72876 0.0
S435 S 0.90419 0.2489 0.64188 0.0
N436 N 0.87371 0.21157 0.60791 0.0
N437 N 0.92204 0.2225 0.69342 0.0
C438 C 0.90274 0.18114 0.68484 0.0
C439 C 0.87648 0.17521 0.6385 0.0
loop_
_geom_bond_atom_site_label_1
_geom_bond_atom_site_label_2
_geom_bond_distance
_geom_bond_site_symmetry_2
_ccdc_geom_bond_type
H0 C5 0.929 . S
H1 C10 0.931 . S
H2 C8 0.930 . S
N3 N4 1.234 . S
N3 C7 1.453 1_556 S
N4 N3 1.234 . S
C5 H0 0.929 . S
C5 C6 1.373 . S
C5 C7 1.368 . S
C6 C5 1.373 . S
C6 C10 1.397 . S
C7 N3 1.453 1_554 S
C7 C5 1.368 . S
C7 C8 1.373 1_554 S
C8 H2 0.930 . S
C8 C7 1.373 1_556 S
C8 C9 1.371 . S
C9 C8 1.371 . S
C9 C10 1.383 1_556 S
C10 H1 0.931 . S
C10 C6 1.397 . S
C10 C9 1.383 1_554 S
H11 C16 0.929 . S
H12 C21 0.931 . S
H13 C19 0.930 . S
N14 N15 1.234 . S
N14 C18 1.453 . S
N15 N14 1.234 . S
C16 H11 0.929 . S
C16 C17 1.373 . S
C16 C18 1.368 . S
C17 C16 1.373 . S
C17 C21 1.397 . S
C18 N14 1.453 . S
C18 C16 1.368 . S
C18 C19 1.373 . S
C19 H13 0.930 . S
C19 C18 1.373 . S
C19 C20 1.371 . S
C20 C19 1.371 . S
C20 C21 1.383 . S
C21 H12 0.931 . S
C21 C17 1.397 . S
C21 C20 1.383 . S
H22 C27 0.929 . S
H23 C32 0.931 . S
H24 C30 0.930 . S
N25 N26 1.234 1_554 S
N25 C29 1.453 . S
N26 N25 1.234 1_556 S
C27 H22 0.929 . S
C27 C28 1.373 . S
C27 C29 1.368 . S
C28 C27 1.373 . S
C28 C32 1.397 . S
C29 N25 1.453 . S
C29 C27 1.368 . S
C29 C30 1.373 1_554 S
C30 H24 0.930 . S
C30 C29 1.373 1_556 S
C30 C31 1.371 . S
C31 C30 1.371 . S
C31 C32 1.383 1_556 S
C32 H23 0.931 . S
C32 C28 1.397 . S
C32 C31 1.383 1_554 S
H33 C38 0.929 . S
H34 C43 0.931 . S
H35 C41 0.930 . S
N36 N37 1.234 . S
N36 C40 1.453 . S
N37 N36 1.234 . S
C38 H33 0.929 . S
C38 C39 1.373 . S
C38 C40 1.368 . S
C39 C38 1.373 . S
C39 C43 1.397 . S
C40 N36 1.453 . S
C40 C38 1.368 . S
C40 C41 1.373 . S
C41 H35 0.930 . S
C41 C40 1.373 . S
C41 C42 1.371 . S
C42 C41 1.371 . S
C42 C43 1.383 . S
C43 H34 0.931 . S
C43 C39 1.397 . S
C43 C42 1.383 . S
H44 C49 0.929 . S
H45 C54 0.931 . S
H46 C52 0.930 . S
N47 N48 1.234 . S
N47 C51 1.453 1_556 S
N48 N47 1.234 . S
C49 H44 0.929 . S
C49 C50 1.373 . S
C49 C51 1.368 . S
C50 C49 1.373 . S
C50 C54 1.397 . S
C51 N47 1.453 1_554 S
C51 C49 1.368 . S
C51 C52 1.373 1_554 S
C52 H46 0.930 . S
C52 C51 1.373 1_556 S
C52 C53 1.371 . S
C53 C52 1.371 . S
C53 C54 1.383 1_556 S
C54 H45 0.931 . S
C54 C50 1.397 . S
C54 C53 1.383 1_554 S
H55 C60 0.929 . S
H56 C65 0.931 . S
H57 C63 0.930 . S
N58 N59 1.234 . S
N58 C62 1.453 . S
N59 N58 1.234 . S
C60 H55 0.929 . S
C60 C61 1.373 . S
C60 C62 1.368 . S
C61 C60 1.373 . S
C61 C65 1.397 . S
C62 N58 1.453 . S
C62 C60 1.368 . S
C62 C63 1.373 . S
C63 H57 0.930 . S
C63 C62 1.373 . S
C63 C64 1.371 . S
C64 C63 1.371 . S
C64 C65 1.383 . S
C65 H56 0.931 . S
C65 C61 1.397 . S
C65 C64 1.383 . S
H66 C71 0.929 . S
H67 C76 0.931 . S
H68 C74 0.930 . S
N69 N70 1.234 1_554 S
N69 C73 1.453 . S
N70 N69 1.234 1_556 S
C71 H66 0.929 . S
C71 C72 1.373 . S
C71 C73 1.368 . S
C72 C71 1.373 . S
C72 C76 1.397 . S
C73 N69 1.453 . S
C73 C71 1.368 . S
C73 C74 1.373 1_554 S
C74 H68 0.930 . S
C74 C73 1.373 1_556 S
C74 C75 1.371 . S
C75 C74 1.371 . S
C75 C76 1.383 1_556 S
C76 H67 0.931 . S
C76 C72 1.397 . S
C76 C75 1.383 1_554 S
H77 C82 0.929 . S
H78 C87 0.931 . S
H79 C85 0.930 . S
N80 N81 1.234 . S
N80 C84 1.453 . S
N81 N80 1.234 . S
C82 H77 0.929 . S
C82 C83 1.373 . S
C82 C84 1.368 . S
C83 C82 1.373 . S
C83 C87 1.397 . S
C84 N80 1.453 . S
C84 C82 1.368 . S
C84 C85 1.373 . S
C85 H79 0.930 . S
C85 C84 1.373 . S
C85 C86 1.371 . S
C86 C85 1.371 . S
C86 C87 1.383 . S
C87 H78 0.931 . S
C87 C83 1.397 . S
C87 C86 1.383 . S
Fe88 O90 1.918 . S
Fe88 O93 1.997 1_455 S
Fe88 O94 2.002 1_455 S
Fe88 O99 1.976 . S
Fe88 O102 1.996 . S
Fe89 O90 1.918 . S
Fe89 O97 1.997 1_455 S
Fe89 O100 1.996 . S
Fe89 O104 1.976 . S
Fe89 O107 2.002 1_455 S
O90 Fe88 1.918 . S
O90 Fe89 1.918 . S
O90 Fe91 1.918 . S
Fe91 O90 1.918 . S
Fe91 O92 2.002 1_455 S
Fe91 O101 1.976 . S
Fe91 O105 1.996 . S
Fe91 O108 1.997 1_455 S
O92 Fe91 2.002 1_655 S
O92 C109 1.295 . S
O93 Fe88 1.997 1_655 S
O93 C109 1.235 . S
O94 Fe88 2.002 1_655 S
O94 C95 1.295 . S
C95 O94 1.295 . S
C95 O97 1.235 . S
C96 O101 1.287 . S
C96 O102 1.255 . S
O97 Fe89 1.997 1_655 S
O97 C95 1.235 . S
C98 O104 1.287 . S
C98 O105 1.255 . S
O99 Fe88 1.976 . S
O99 C106 1.287 . S
O100 Fe89 1.996 . S
O100 C106 1.255 . S
O101 Fe91 1.976 . S
O101 C96 1.287 . S
O102 Fe88 1.996 . S
O102 C96 1.255 . S
C103 O107 1.295 . S
C103 O108 1.235 . S
O104 Fe89 1.976 . S
O104 C98 1.287 . S
O105 Fe91 1.996 . S
O105 C98 1.255 . S
C106 O99 1.287 . S
C106 O100 1.255 . S
O107 Fe89 2.002 1_655 S
O107 C103 1.295 . S
O108 Fe91 1.997 1_655 S
O108 C103 1.235 . S
C109 O92 1.295 . S
C109 O93 1.235 . S
Fe110 O112 1.918 . S
Fe110 O115 1.992 1_655 S
Fe110 O116 1.997 1_655 S
Fe110 O121 1.981 . S
Fe110 O124 2.001 . S
Fe111 O112 1.918 . S
Fe111 O119 1.997 1_655 S
Fe111 O122 1.996 . S
Fe111 O126 1.976 . S
Fe111 O129 2.002 1_655 S
O112 Fe110 1.918 . S
O112 Fe111 1.918 . S
O112 Fe113 1.918 . S
Fe113 O112 1.918 . S
Fe113 O114 1.991 1_655 S
Fe113 O123 1.988 . S
Fe113 O127 2.007 . S
Fe113 O130 1.984 1_655 S
O114 Fe113 1.991 1_455 S
O114 C131 1.295 . S
O115 Fe110 1.992 1_455 S
O115 C131 1.235 . S
O116 Fe110 1.997 1_455 S
O116 C117 1.295 . S
C117 O116 1.295 . S
C117 O119 1.235 . S
C118 O123 1.287 . S
C118 O124 1.255 . S
O119 Fe111 1.997 1_455 S
O119 C117 1.235 . S
C120 O126 1.287 . S
C120 O127 1.255 . S
O121 Fe110 1.981 . S
O121 C128 1.287 . S
O122 Fe111 1.996 . S
O122 C128 1.255 . S
O123 Fe113 1.988 . S
O123 C118 1.287 . S
O124 Fe110 2.001 . S
O124 C118 1.255 . S
C125 O129 1.295 . S
C125 O130 1.235 . S
O126 Fe111 1.976 . S
O126 C120 1.287 . S
O127 Fe113 2.007 . S
O127 C120 1.255 . S
C128 O121 1.287 . S
C128 O122 1.255 . S
O129 Fe111 2.002 1_455 S
O129 C125 1.295 . S
O130 Fe113 1.984 1_455 S
O130 C125 1.235 . S
C131 O114 1.295 . S
C131 O115 1.235 . S
Fe132 O134 1.918 . S
Fe132 O137 1.997 . S
Fe132 O138 2.002 . S
Fe132 O143 1.976 . S
Fe132 O146 1.996 . S
Fe133 O134 1.918 . S
Fe133 O141 1.997 . S
Fe133 O144 1.996 . S
Fe133 O148 1.976 . S
Fe133 O151 2.002 . S
O134 Fe132 1.918 . S
O134 Fe133 1.918 . S
O134 Fe135 1.918 . S
Fe135 O134 1.918 . S
Fe135 O136 2.002 . S
Fe135 O145 1.976 . S
Fe135 O149 1.996 . S
Fe135 O152 1.997 . S
O136 Fe135 2.002 . S
O136 C153 1.295 . S
O137 Fe132 1.997 . S
O137 C153 1.235 . S
O138 Fe132 2.002 . S
O138 C139 1.295 . S
C139 O138 1.295 . S
C139 O141 1.235 . S
C140 O145 1.287 . S
C140 O146 1.255 . S
O141 Fe133 1.997 . S
O141 C139 1.235 . S
C142 O148 1.287 . S
C142 O149 1.255 . S
O143 Fe132 1.976 . S
O143 C150 1.287 . S
O144 Fe133 1.996 . S
O144 C150 1.255 . S
O145 Fe135 1.976 . S
O145 C140 1.287 . S
O146 Fe132 1.996 . S
O146 C140 1.255 . S
C147 O151 1.295 . S
C147 O152 1.235 . S
O148 Fe133 1.976 . S
O148 C142 1.287 . S
O149 Fe135 1.996 . S
O149 C142 1.255 . S
C150 O143 1.287 . S
C150 O144 1.255 . S
O151 Fe133 2.002 . S
O151 C147 1.295 . S
O152 Fe135 1.997 . S
O152 C147 1.235 . S
C153 O136 1.295 . S
C153 O137 1.235 . S
Fe154 O156 1.918 . S
Fe154 O159 1.997 . S
Fe154 O160 2.002 . S
Fe154 O165 1.976 . S
Fe154 O168 1.996 . S
Fe155 O156 1.918 . S
Fe155 O163 1.997 . S
Fe155 O166 1.996 . S
Fe155 O170 1.976 . S
Fe155 O173 2.002 . S
O156 Fe154 1.918 . S
O156 Fe155 1.918 . S
O156 Fe157 1.918 . S
Fe157 O156 1.918 . S
Fe157 O158 2.002 . S
Fe157 O167 1.976 . S
Fe157 O171 1.996 . S
Fe157 O174 1.997 . S
O158 Fe157 2.002 . S
O158 C175 1.295 . S
O159 Fe154 1.997 . S
O159 C175 1.235 . S
O160 Fe154 2.002 . S
O160 C161 1.295 . S
C161 O160 1.295 . S
C161 O163 1.235 . S
C162 O167 1.287 . S
C162 O168 1.255 . S
O163 Fe155 1.997 . S
O163 C161 1.235 . S
C164 O170 1.287 . S
C164 O171 1.255 . S
O165 Fe154 1.976 . S
O165 C172 1.287 . S
O166 Fe155 1.996 . S
O166 C172 1.255 . S
O167 Fe157 1.976 . S
O167 C162 1.287 . S
O168 Fe154 1.996 . S
O168 C162 1.255 . S
C169 O173 1.295 . S
C169 O174 1.235 . S
O170 Fe155 1.976 . S
O170 C164 1.287 . S
O171 Fe157 1.996 . S
O171 C164 1.255 . S
C172 O165 1.287 . S
C172 O166 1.255 . S
O173 Fe155 2.002 . S
O173 C169 1.295 . S
O174 Fe157 1.997 . S
O174 C169 1.235 . S
C175 O158 1.295 . S
C175 O159 1.235 . S
C176 C177 1.369 . S
C176 C178 1.419 . S
C176 H180 0.930 . S
C177 C176 1.369 . S
C177 C186 1.429 . S
C178 C176 1.419 . S
C178 C179 1.363 . S
C178 H181 0.929 . S
C179 C178 1.363 . S
C179 C185 1.428 . S
H180 C176 0.930 . S
H181 C178 0.929 . S
S182 N183 1.613 . S
S182 N184 1.610 . S
N183 S182 1.613 . S
N183 C186 1.350 . S
N184 S182 1.610 . S
N184 C185 1.351 . S
C185 C179 1.428 . S
C185 N184 1.351 . S
C185 C186 1.434 . S
C186 C177 1.429 . S
C186 N183 1.350 . S
C186 C185 1.434 . S
C187 C188 1.369 . S
C187 C189 1.419 . S
C187 H191 0.930 . S
C188 C187 1.369 . S
C188 C197 1.429 . S
C189 C187 1.419 . S
C189 C190 1.363 . S
C189 H192 0.929 . S
C190 C189 1.363 . S
C190 C196 1.428 . S
H191 C187 0.930 . S
H192 C189 0.929 . S
S193 N194 1.613 . S
S193 N195 1.610 . S
N194 S193 1.613 . S
N194 C197 1.350 . S
N195 S193 1.610 . S
N195 C196 1.351 . S
C196 C190 1.428 . S
C196 N195 1.351 . S
C196 C197 1.434 . S
C197 C188 1.429 . S
C197 N194 1.350 . S
C197 C196 1.434 . S
C198 C199 1.369 . S
C198 C200 1.419 . S
C198 H202 0.930 . S
C199 C198 1.369 . S
C199 C208 1.429 . S
C200 C198 1.419 . S
C200 C201 1.363 . S
C200 H203 0.929 . S
C201 C200 1.363 . S
C201 C207 1.428 . S
H202 C198 0.930 . S
H203 C200 0.929 . S
S204 N205 1.613 . S
S204 N206 1.610 . S
N205 S204 1.613 . S
N205 C208 1.350 . S
N206 S204 1.610 . S
N206 C207 1.351 . S
C207 C201 1.428 . S
C207 N206 1.351 . S
C207 C208 1.434 . S
C208 C199 1.429 . S
C208 N205 1.350 . S
C208 C207 1.434 . S
C209 C210 1.369 . S
C209 C211 1.419 . S
C209 H213 0.930 . S
C210 C209 1.369 . S
C210 C219 1.429 . S
C211 C209 1.419 . S
C211 C212 1.363 . S
C211 H214 0.929 . S
C212 C211 1.363 . S
C212 C218 1.428 . S
H213 C209 0.930 . S
H214 C211 0.929 . S
S215 N216 1.613 . S
S215 N217 1.610 . S
N216 S215 1.613 . S
N216 C219 1.350 . S
N217 S215 1.610 . S
N217 C218 1.351 . S
C218 C212 1.428 . S
C218 N217 1.351 . S
C218 C219 1.434 . S
C219 C210 1.429 . S
C219 N216 1.350 . S
C219 C218 1.434 . S
C220 C221 1.369 . S
C220 C222 1.419 . S
C220 H224 0.930 1_556 S
C221 C220 1.369 . S
C221 C230 1.429 . S
C222 C220 1.419 . S
C222 C223 1.363 . S
C222 H225 0.929 . S
C223 C222 1.363 . S
C223 C229 1.428 . S
H224 C220 0.930 1_554 S
H225 C222 0.929 . S
S226 N227 1.613 . S
S226 N228 1.610 . S
N227 S226 1.613 . S
N227 C230 1.350 . S
N228 S226 1.610 . S
N228 C229 1.351 . S
C229 C223 1.428 . S
C229 N228 1.351 . S
C229 C230 1.434 . S
C230 C221 1.429 . S
C230 N227 1.350 . S
C230 C229 1.434 . S
C231 C232 1.369 . S
C231 C233 1.419 . S
C231 H235 0.930 . S
C232 C231 1.369 . S
C232 C241 1.429 . S
C233 C231 1.419 . S
C233 C234 1.363 . S
C233 H236 0.929 . S
C234 C233 1.363 . S
C234 C240 1.428 . S
H235 C231 0.930 . S
H236 C233 0.929 . S
S237 N238 1.613 . S
S237 N239 1.610 . S
N238 S237 1.613 . S
N238 C241 1.350 . S
N239 S237 1.610 . S
N239 C240 1.351 . S
C240 C234 1.428 . S
C240 N239 1.351 . S
C240 C241 1.434 . S
C241 C232 1.429 . S
C241 N238 1.350 . S
C241 C240 1.434 . S
C242 C243 1.369 . S
C242 C244 1.419 . S
C242 H246 0.930 . S
C243 C242 1.369 . S
C243 C252 1.429 . S
C244 C242 1.419 . S
C244 C245 1.363 . S
C244 H247 0.929 . S
C245 C244 1.363 . S
C245 C251 1.428 . S
H246 C242 0.930 . S
H247 C244 0.929 . S
S248 N249 1.613 . S
S248 N250 1.610 . S
N249 S248 1.613 . S
N249 C252 1.350 . S
N250 S248 1.610 . S
N250 C251 1.351 . S
C251 C245 1.428 . S
C251 N250 1.351 . S
C251 C252 1.434 . S
C252 C243 1.429 . S
C252 N249 1.350 . S
C252 C251 1.434 . S
C253 C254 1.369 . S
C253 C255 1.419 . S
C253 H257 0.930 . S
C254 C253 1.369 . S
C254 C263 1.429 . S
C255 C253 1.419 . S
C255 C256 1.363 . S
C255 H258 0.929 . S
C256 C255 1.363 . S
C256 C262 1.428 . S
H257 C253 0.930 . S
H258 C255 0.929 . S
S259 N260 1.613 . S
S259 N261 1.610 . S
N260 S259 1.613 . S
N260 C263 1.350 . S
N261 S259 1.610 . S
N261 C262 1.351 . S
C262 C256 1.428 . S
C262 N261 1.351 . S
C262 C263 1.434 . S
C263 C254 1.429 . S
C263 N260 1.350 . S
C263 C262 1.434 . S
C264 C265 1.369 . S
C264 C266 1.419 . S
C264 H268 0.930 . S
C265 C264 1.369 . S
C265 C274 1.429 . S
C266 C264 1.419 . S
C266 C267 1.363 . S
C266 H269 0.929 . S
C267 C266 1.363 . S
C267 C273 1.428 . S
H268 C264 0.930 . S
H269 C266 0.929 . S
S270 N271 1.613 . S
S270 N272 1.610 1_554 S
N271 S270 1.613 . S
N271 C274 1.350 1_554 S
N272 S270 1.610 1_556 S
N272 C273 1.351 . S
C273 C267 1.428 . S
C273 N272 1.351 . S
C273 C274 1.434 . S
C274 C265 1.429 . S
C274 N271 1.350 1_556 S
C274 C273 1.434 . S
C275 C276 1.369 . S
C275 C277 1.419 . S
C275 H279 0.930 . S
C276 C275 1.369 . S
C276 C285 1.429 . S
C277 C275 1.419 . S
C277 C278 1.363 . S
C277 H280 0.929 . S
C278 C277 1.363 . S
C278 C284 1.428 . S
H279 C275 0.930 . S
H280 C277 0.929 . S
S281 N282 1.613 . S
S281 N283 1.610 . S
N282 S281 1.613 . S
N282 C285 1.350 . S
N283 S281 1.610 . S
N283 C284 1.351 . S
C284 C278 1.428 . S
C284 N283 1.351 . S
C284 C285 1.434 . S
C285 C276 1.429 . S
C285 N282 1.350 . S
C285 C284 1.434 . S
C286 C287 1.369 . S
C286 C288 1.419 . S
C286 H290 0.930 . S
C287 C286 1.369 . S
C287 C296 1.429 . S
C288 C286 1.419 . S
C288 C289 1.363 . S
C288 H291 0.929 . S
C289 C288 1.363 . S
C289 C295 1.428 . S
H290 C286 0.930 . S
H291 C288 0.929 . S
S292 N293 1.613 . S
S292 N294 1.610 . S
N293 S292 1.613 . S
N293 C296 1.350 . S
N294 S292 1.610 . S
N294 C295 1.351 . S
C295 C289 1.428 . S
C295 N294 1.351 . S
C295 C296 1.434 . S
C296 C287 1.429 . S
C296 N293 1.350 . S
C296 C295 1.434 . S
C297 C298 1.369 . S
C297 C299 1.419 . S
C297 H301 0.930 . S
C298 C297 1.369 . S
C298 C307 1.429 . S
C299 C297 1.419 . S
C299 C300 1.363 . S
C299 H302 0.929 . S
C300 C299 1.363 . S
C300 C306 1.428 . S
H301 C297 0.930 . S
H302 C299 0.929 . S
S303 N304 1.613 . S
S303 N305 1.610 . S
N304 S303 1.613 . S
N304 C307 1.350 . S
N305 S303 1.610 . S
N305 C306 1.351 . S
C306 C300 1.428 . S
C306 N305 1.351 . S
C306 C307 1.434 . S
C307 C298 1.429 . S
C307 N304 1.350 . S
C307 C306 1.434 . S
C308 C309 1.369 . S
C308 C310 1.419 1_565 S
C308 H312 0.930 . S
C309 C308 1.369 . S
C309 C318 1.429 . S
C310 C308 1.419 1_545 S
C310 C311 1.363 . S
C310 H313 0.929 . S
C311 C310 1.363 . S
C311 C317 1.431 . S
H312 C308 0.930 . S
H313 C310 0.929 . S
S314 N315 1.613 . S
S314 N316 1.610 1_564 S
N315 S314 1.613 . S
N315 C318 1.350 1_554 S
N316 S314 1.610 1_546 S
N316 C317 1.353 . S
C317 C311 1.431 . S
C317 N316 1.353 . S
C317 C318 1.429 1_545 S
C318 C309 1.429 . S
C318 N315 1.350 1_556 S
C318 C317 1.429 1_565 S
C319 C320 1.369 . S
C319 C321 1.419 . S
C319 H323 0.930 . S
C320 C319 1.369 . S
C320 C329 1.429 . S
C321 C319 1.419 . S
C321 C322 1.363 1_545 S
C321 H324 0.929 1_545 S
C322 C321 1.363 1_565 S
C322 C328 1.428 . S
H323 C319 0.930 . S
H324 C321 0.929 1_565 S
S325 N326 1.613 . S
S325 N327 1.610 1_545 S
N326 S325 1.613 . S
N326 C329 1.350 . S
N327 S325 1.610 1_565 S
N327 C328 1.351 . S
C328 C322 1.428 . S
C328 N327 1.351 . S
C328 C329 1.434 1_565 S
C329 C320 1.429 . S
C329 N326 1.350 . S
C329 C328 1.434 1_545 S
C330 C331 1.369 1_545 S
C330 C332 1.419 . S
C330 H334 0.930 . S
C331 C330 1.369 1_565 S
C331 C340 1.429 . S
C332 C330 1.419 . S
C332 C333 1.363 . S
C332 H335 0.929 . S
C333 C332 1.363 . S
C333 C339 1.428 1_545 S
H334 C330 0.930 . S
H335 C332 0.929 . S
S336 N337 1.613 . S
S336 N338 1.610 . S
N337 S336 1.613 . S
N337 C340 1.350 . S
N338 S336 1.610 . S
N338 C339 1.351 . S
C339 C333 1.428 1_565 S
C339 N338 1.351 . S
C339 C340 1.434 . S
C340 C331 1.429 . S
C340 N337 1.350 . S
C340 C339 1.434 . S
C341 C342 1.369 1_565 S
C341 C343 1.419 . S
C341 H345 0.930 . S
C342 C341 1.369 1_545 S
C342 C351 1.429 . S
C343 C341 1.419 . S
C343 C344 1.363 . S
C343 H346 0.929 . S
C344 C343 1.363 . S
C344 C350 1.428 1_565 S
H345 C341 0.930 . S
H346 C343 0.929 . S
S347 N348 1.613 . S
S347 N349 1.610 . S
N348 S347 1.613 . S
N348 C351 1.350 . S
N349 S347 1.610 . S
N349 C350 1.351 . S
C350 C344 1.428 1_545 S
C350 N349 1.351 . S
C350 C351 1.434 . S
C351 C342 1.429 . S
C351 N348 1.350 . S
C351 C350 1.434 . S
C352 C353 1.369 . S
C352 C354 1.419 . S
C352 H356 0.930 . S
C353 C352 1.369 . S
C353 C362 1.429 . S
C354 C352 1.419 . S
C354 C355 1.363 . S
C354 H357 0.929 . S
C355 C354 1.363 . S
C355 C361 1.428 . S
H356 C352 0.930 . S
H357 C354 0.929 . S
S358 N359 1.613 . S
S358 N360 1.610 . S
N359 S358 1.613 . S
N359 C362 1.350 . S
N360 S358 1.610 . S
N360 C361 1.351 . S
C361 C355 1.428 . S
C361 N360 1.351 . S
C361 C362 1.434 . S
C362 C353 1.429 . S
C362 N359 1.350 . S
C362 C361 1.434 . S
C363 C364 1.369 . S
C363 C365 1.419 . S
C363 H367 0.930 . S
C364 C363 1.369 . S
C364 C373 1.429 . S
C365 C363 1.419 . S
C365 C366 1.363 . S
C365 H368 0.929 . S
C366 C365 1.363 . S
C366 C372 1.428 . S
H367 C363 0.930 . S
H368 C365 0.929 . S
S369 N370 1.613 . S
S369 N371 1.610 . S
N370 S369 1.613 . S
N370 C373 1.350 . S
N371 S369 1.610 . S
N371 C372 1.351 . S
C372 C366 1.428 . S
C372 N371 1.351 . S
C372 C373 1.434 . S
C373 C364 1.429 . S
C373 N370 1.350 . S
C373 C372 1.434 . S
C374 C375 1.369 . S
C374 C376 1.419 . S
C374 H378 0.930 . S
C375 C374 1.369 . S
C375 C384 1.429 . S
C376 C374 1.419 . S
C376 C377 1.363 . S
C376 H379 0.929 . S
C377 C376 1.363 . S
C377 C383 1.428 . S
H378 C374 0.930 . S
H379 C376 0.929 . S
S380 N381 1.613 . S
S380 N382 1.610 . S
N381 S380 1.613 . S
N381 C384 1.350 . S
N382 S380 1.610 . S
N382 C383 1.351 . S
C383 C377 1.428 . S
C383 N382 1.351 . S
C383 C384 1.434 . S
C384 C375 1.429 . S
C384 N381 1.350 . S
C384 C383 1.434 . S
C385 C386 1.369 . S
C385 C387 1.419 . S
C385 H389 0.930 . S
C386 C385 1.369 . S
C386 C395 1.429 . S
C387 C385 1.419 . S
C387 C388 1.363 . S
C387 H390 0.929 . S
C388 C387 1.363 . S
C388 C394 1.428 . S
H389 C385 0.930 . S
H390 C387 0.929 . S
S391 N392 1.613 . S
S391 N393 1.610 . S
N392 S391 1.613 . S
N392 C395 1.350 . S
N393 S391 1.610 . S
N393 C394 1.351 . S
C394 C388 1.428 . S
C394 N393 1.351 . S
C394 C395 1.434 . S
C395 C386 1.429 . S
C395 N392 1.350 . S
C395 C394 1.434 . S
C396 C397 1.369 . S
C396 C398 1.419 . S
C396 H400 0.930 . S
C397 C396 1.369 . S
C397 C406 1.429 . S
C398 C396 1.419 . S
C398 C399 1.363 . S
C398 H401 0.929 . S
C399 C398 1.363 . S
C399 C405 1.428 . S
H400 C396 0.930 . S
H401 C398 0.929 . S
S402 N403 1.613 . S
S402 N404 1.610 . S
N403 S402 1.613 . S
N403 C406 1.350 . S
N404 S402 1.610 . S
N404 C405 1.351 . S
C405 C399 1.428 . S
C405 N404 1.351 . S
C405 C406 1.434 . S
C406 C397 1.429 . S
C406 N403 1.350 . S
C406 C405 1.434 . S
C407 C408 1.369 . S
C407 C409 1.419 . S
C407 H411 0.930 . S
C408 C407 1.369 . S
C408 C417 1.429 . S
C409 C407 1.419 . S
C409 C410 1.363 . S
C409 H412 0.929 . S
C410 C409 1.363 . S
C410 C416 1.428 . S
H411 C407 0.930 . S
H412 C409 0.929 . S
S413 N414 1.613 . S
S413 N415 1.610 . S
N414 S413 1.613 . S
N414 C417 1.350 . S
N415 S413 1.610 . S
N415 C416 1.351 . S
C416 C410 1.428 . S
C416 N415 1.351 . S
C416 C417 1.434 . S
C417 C408 1.429 . S
C417 N414 1.350 . S
C417 C416 1.434 . S
C418 C419 1.369 . S
C418 C420 1.419 . S
C418 H422 0.930 . S
C419 C418 1.369 . S
C419 C428 1.429 . S
C420 C418 1.419 . S
C420 C421 1.363 . S
C420 H423 0.929 . S
C421 C420 1.363 . S
C421 C427 1.428 . S
H422 C418 0.930 . S
H423 C420 0.929 . S
S424 N425 1.613 . S
S424 N426 1.610 . S
N425 S424 1.613 . S
N425 C428 1.350 . S
N426 S424 1.610 . S
N426 C427 1.351 . S
C427 C421 1.428 . S
C427 N426 1.351 . S
C427 C428 1.434 . S
C428 C419 1.429 . S
C428 N425 1.350 . S
C428 C427 1.434 . S
C429 C430 1.369 . S
C429 C431 1.419 . S
C429 H433 0.930 . S
C430 C429 1.369 . S
C430 C439 1.429 . S
C431 C429 1.419 . S
C431 C432 1.363 . S
C431 H434 0.929 . S
C432 C431 1.363 . S
C432 C438 1.428 . S
H433 C429 0.930 . S
H434 C431 0.929 . S
S435 N436 1.613 . S
S435 N437 1.610 . S
N436 S435 1.613 . S
N436 C439 1.350 . S
N437 S435 1.610 . S
N437 C438 1.351 . S
C438 C432 1.428 . S
C438 N437 1.351 . S
C438 C439 1.434 . S
C439 C430 1.429 . S
C439 N436 1.350 . S
C439 C438 1.434 . S
C177 N4 1.540 . S
C179 C131 1.525 . S
C190 C95 1.527 . S
C188 N15 1.538 . S
C201 C118 1.597 . S
C199 N26 1.590 . S
C212 C106 1.488 . S
C210 N37 1.481 . S
C223 C175 1.526 . S
C221 N48 1.537 . S
C234 C139 1.527 . S
C232 N59 1.538 . S
C243 N70 1.588 . S
C245 C162 1.599 . S
C256 C150 1.487 . S
C254 N81 1.483 . S
C265 C9 1.500 . S
C267 C172 1.543 . S
C278 C142 1.519 . S
C276 C20 1.477 . S
C287 C31 1.572 . S
C289 C161 1.606 . S
C298 C39 1.449 . S
C300 C147 1.468 . S
C311 C128 1.543 . S
C309 C53 1.501 . S
C320 C64 1.483 . S
C322 C98 1.520 . S
C333 C117 1.606 . S
C331 C75 1.575 . S
C344 C103 1.468 . S
C342 C83 1.448 . S
C355 C153 1.521 . S
C353 C6 1.513 . S
C366 C169 1.516 . S
C364 C17 1.503 . S
C375 C28 1.498 . S
C377 C140 1.505 . S
C388 C164 1.504 . S
C386 C42 1.463 . S
C399 C109 1.523 . S
C397 C50 1.515 . S
C408 C61 1.502 . S
C410 C125 1.516 . S
C419 C72 1.501 . S
C421 C96 1.506 . S
C430 C86 1.464 . S
C432 C120 1.504 . S
