# Generated by pormake.
# Topology pyr, (3,6)-cn, num edge types: 1
# Building blocks:
#     Node 0, Type 0, BuildingBlock: PAMTOO_clean_linker_0, # of connection points: 3
#     Node 1, Type 0, BuildingBlock: PAMTOO_clean_linker_0, # of connection points: 3
#     Node 2, Type 0, BuildingBlock: PAMTOO_clean_linker_0, # of connection points: 3
#     Node 3, Type 0, BuildingBlock: PAMTOO_clean_linker_0, # of connection points: 3
#     Node 4, Type 0, BuildingBlock: PAMTOO_clean_linker_0, # of connection points: 3
#     Node 5, Type 0, BuildingBlock: PAMTOO_clean_linker_0, # of connection points: 3
#     Node 6, Type 0, BuildingBlock: PAMTOO_clean_linker_0, # of connection points: 3
#     Node 7, Type 0, BuildingBlock: PAMTOO_clean_linker_0, # of connection points: 3
#     Node 8, Type 1, BuildingBlock: FUNLAD_clean_sbu_0, # of connection points: 6
#     Node 9, Type 1, BuildingBlock: FUNLAD_clean_sbu_0, # of connection points: 6
#     Node 10, Type 1, BuildingBlock: FUNLAD_clean_sbu_0, # of connection points: 6
#     Node 11, Type 1, BuildingBlock: FUNLAD_clean_sbu_0, # of connection points: 6
#     Edge 12, Type (0, 1), BuildingBlock: XIVTED_clean_linker_0, # of connection points: 2
#     Edge 13, Type (0, 1), BuildingBlock: XIVTED_clean_linker_0, # of connection points: 2
#     Edge 14, Type (0, 1), BuildingBlock: XIVTED_clean_linker_0, # of connection points: 2
#     Edge 15, Type (0, 1), BuildingBlock: XIVTED_clean_linker_0, # of connection points: 2
#     Edge 16, Type (0, 1), BuildingBlock: XIVTED_clean_linker_0, # of connection points: 2
#     Edge 17, Type (0, 1), BuildingBlock: XIVTED_clean_linker_0, # of connection points: 2
#     Edge 18, Type (0, 1), BuildingBlock: XIVTED_clean_linker_0, # of connection points: 2
#     Edge 19, Type (0, 1), BuildingBlock: XIVTED_clean_linker_0, # of connection points: 2
#     Edge 20, Type (0, 1), BuildingBlock: XIVTED_clean_linker_0, # of connection points: 2
#     Edge 21, Type (0, 1), BuildingBlock: XIVTED_clean_linker_0, # of connection points: 2
#     Edge 22, Type (0, 1), BuildingBlock: XIVTED_clean_linker_0, # of connection points: 2
#     Edge 23, Type (0, 1), BuildingBlock: XIVTED_clean_linker_0, # of connection points: 2
#     Edge 24, Type (0, 1), BuildingBlock: XIVTED_clean_linker_0, # of connection points: 2
#     Edge 25, Type (0, 1), BuildingBlock: XIVTED_clean_linker_0, # of connection points: 2
#     Edge 26, Type (0, 1), BuildingBlock: XIVTED_clean_linker_0, # of connection points: 2
#     Edge 27, Type (0, 1), BuildingBlock: XIVTED_clean_linker_0, # of connection points: 2
#     Edge 28, Type (0, 1), BuildingBlock: XIVTED_clean_linker_0, # of connection points: 2
#     Edge 29, Type (0, 1), BuildingBlock: XIVTED_clean_linker_0, # of connection points: 2
#     Edge 30, Type (0, 1), BuildingBlock: XIVTED_clean_linker_0, # of connection points: 2
#     Edge 31, Type (0, 1), BuildingBlock: XIVTED_clean_linker_0, # of connection points: 2
#     Edge 32, Type (0, 1), BuildingBlock: XIVTED_clean_linker_0, # of connection points: 2
#     Edge 33, Type (0, 1), BuildingBlock: XIVTED_clean_linker_0, # of connection points: 2
#     Edge 34, Type (0, 1), BuildingBlock: XIVTED_clean_linker_0, # of connection points: 2
#     Edge 35, Type (0, 1), BuildingBlock: XIVTED_clean_linker_0, # of connection points: 2
# Relax obj value: 0.186
# Max RMSD: 0.214
# Mean RMSD: 0.136
data_MOF--net-pry--node1-FUNLAD_clean_sbu_0--node2-PAMTOO_clean_linker_0--edge1-XIVTED_clean_linker_0
_symmetry_space_group_name_H-M    P1
_symmetry_Int_Tables_number       1
_symmetry_cell_setting            triclinic
loop_
_symmetry_equiv_pos_as_xyz
'x, y, z'
_cell_length_a     34.403934
_cell_length_b     38.065995
_cell_length_c     37.892636
_cell_angle_alpha  89.762139
_cell_angle_beta   90.935508
_cell_angle_gamma 88.564706
loop_
_atom_site_label
_atom_site_type_symbol
_atom_site_fract_x
_atom_site_fract_y
_atom_site_fract_z
_atom_type_partial_charge
H0 H 0.14224 0.22538 0.27081 0.0
H1 H 0.22885 0.14168 0.26327 0.0
H2 H 0.22787 0.22604 0.18862 0.0
H3 H 0.24212 0.15689 0.15812 0.0
C4 C 0.25874 0.14395 0.18024 0.0
O5 O 0.26254 0.16728 0.2079 0.0
H6 H 0.24191 0.12097 0.18896 0.0
C7 C 0.16727 0.2136 0.25803 0.0
C8 C 0.18249 0.22994 0.22766 0.0
C9 C 0.18336 0.18126 0.27106 0.0
C10 C 0.21545 0.166 0.2536 0.0
C11 C 0.23118 0.18209 0.22396 0.0
C12 C 0.21485 0.21384 0.21129 0.0
H13 H 0.3703 0.94457 0.75149 0.0
H14 H 0.3755 0.86492 0.67075 0.0
H15 H 0.46017 0.86334 0.75453 0.0
H16 H 0.49189 0.83963 0.68453 0.0
C17 C 0.46397 0.83164 0.67214 0.0
O18 O 0.43553 0.83119 0.69754 0.0
H19 H 0.45588 0.85139 0.65136 0.0
C20 C 0.38437 0.92172 0.7399 0.0
C21 C 0.41747 0.90621 0.757 0.0
C22 C 0.36834 0.9069 0.70888 0.0
C23 C 0.38654 0.87659 0.69481 0.0
C24 C 0.41942 0.86102 0.71118 0.0
C25 C 0.43468 0.87571 0.74219 0.0
H26 H 0.71665 0.41041 0.02712 0.0
H27 H 0.62648 0.44695 0.95472 0.0
H28 H 0.71767 0.51556 0.98522 0.0
H29 H 0.6302 0.55434 0.95579 0.0
C30 C 0.62363 0.52783 0.94543 0.0
O31 O 0.65744 0.50777 0.94408 0.0
H32 H 0.60201 0.51573 0.96304 0.0
C33 C 0.70277 0.43135 1.01164 0.0
C34 C 0.72093 0.46385 1.00913 0.0
C35 C 0.66829 0.42498 0.99256 0.0
C36 C 0.65219 0.45162 0.97075 0.0
C37 C 0.66957 0.4844 0.9689 0.0
C38 C 0.70334 0.49076 0.98858 0.0
H39 H 0.89268 0.64837 0.48852 0.0
H40 H 0.92914 0.54192 0.51322 0.0
H41 H 1.01445 0.62067 0.49946 0.0
H42 H 0.99785 0.50576 0.49281 0.0
C43 C 0.01653 0.52904 0.49048 0.0
O44 O 1.0036 0.55469 0.51358 0.0
H45 H 0.04633 0.52028 0.49887 0.0
C46 C 0.91565 0.62875 0.49292 0.0
C47 C 0.95464 0.63896 0.49311 0.0
C48 C 0.90594 0.59385 0.50012 0.0
C49 C 0.93588 0.56894 0.50726 0.0
C50 C 0.97486 0.57859 0.50613 0.0
C51 C 0.9842 0.61339 0.4988 0.0
H52 H 0.88328 0.93654 0.85006 0.0
H53 H 0.89843 0.86101 0.93466 0.0
H54 H 0.97798 0.86003 0.84888 0.0
H55 H 0.95478 0.78695 0.87692 0.0
C56 C 0.94893 0.79495 0.90458 0.0
O57 O 0.95962 0.82956 0.90902 0.0
H58 H 0.91711 0.79271 0.90864 0.0
C59 C 0.89947 0.91489 0.86238 0.0
C60 C 0.93262 0.90072 0.84541 0.0
C61 C 0.88622 0.90062 0.8944 0.0
C62 C 0.90717 0.87192 0.90965 0.0
C63 C 0.9398 0.857 0.89319 0.0
C64 C 0.95234 0.87134 0.86107 0.0
H65 H 0.75969 0.11626 0.34428 0.0
H66 H 0.66738 0.19424 0.33073 0.0
H67 H 0.74269 0.19818 0.42142 0.0
H68 H 0.65828 0.20858 0.4322 0.0
C69 C 0.65243 0.22778 0.41038 0.0
O70 O 0.68419 0.22888 0.3885 0.0
H71 H 0.62682 0.21856 0.39506 0.0
C72 C 0.74355 0.13899 0.35381 0.0
C73 C 0.75557 0.1553 0.38554 0.0
C74 C 0.71183 0.15278 0.33346 0.0
C75 C 0.69195 0.18318 0.34559 0.0
C76 C 0.70316 0.19936 0.37726 0.0
C77 C 0.73475 0.18543 0.39693 0.0
H78 H 0.42435 0.63867 0.12688 0.0
H79 H 0.45773 0.53069 0.10787 0.0
H80 H 0.54435 0.60961 0.11007 0.0
H81 H 0.58266 0.52107 0.12022 0.0
C82 C 0.55105 0.52096 0.12577 0.0
O83 O 0.53176 0.54283 0.10152 0.0
H84 H 0.54145 0.49362 0.12152 0.0
C85 C 0.44668 0.61862 0.12259 0.0
C86 C 0.48552 0.62849 0.11925 0.0
C87 C 0.43613 0.58347 0.11847 0.0
C88 C 0.46516 0.55794 0.11147 0.0
C89 C 0.5041 0.5674 0.10916 0.0
C90 C 0.51429 0.60252 0.11322 0.0
H91 H 0.1631 0.4122 0.68626 0.0
H92 H 0.1587 0.52357 0.66637 0.0
H93 H 0.16703 0.45145 0.57988 0.0
H94 H 0.19029 0.55894 0.61844 0.0
C95 C 0.18867 0.54304 0.59392 0.0
O96 O 0.16097 0.51767 0.59752 0.0
H97 H 0.17875 0.56154 0.57268 0.0
C98 C 0.16487 0.43418 0.66811 0.0
C99 C 0.16623 0.42765 0.63178 0.0
C100 C 0.16242 0.46857 0.68112 0.0
C101 C 0.16131 0.49677 0.65704 0.0
C102 C 0.16399 0.49057 0.62067 0.0
C103 C 0.16653 0.45606 0.60808 0.0
C104 C 0.09271 0.05885 0.49257 0.0
N105 N 0.07506 0.10879 0.58852 0.0
C106 C 0.11264 0.11836 0.58487 0.0
C107 C 0.12371 0.15238 0.59247 0.0
C108 C 0.0958 0.17723 0.60346 0.0
C109 C 0.05731 0.16667 0.60789 0.0
C110 C 0.04751 0.13196 0.60037 0.0
Zn111 Zn 0.06207 0.0607 0.56845 0.0
C112 C 0.98776 0.06112 0.52711 0.0
N113 N 0.04322 0.96155 0.5206 0.0
C114 C 0.07141 0.93965 0.50765 0.0
C115 C 1.006 0.9509 0.52369 0.0
C116 C 0.99613 0.91684 0.51484 0.0
C117 C 0.02497 0.89288 0.50358 0.0
C118 C 0.06288 0.90491 0.49899 0.0
Zn119 Zn 0.05523 1.00958 0.54145 0.0
O120 O 0.08868 0.07695 0.52044 0.0
C121 C 0.12958 1.00882 0.58246 0.0
O122 O 0.08184 0.02705 0.49287 0.0
H123 H 0.98405 0.96836 0.53449 0.0
H124 H 0.13394 0.10012 0.57429 0.0
H125 H 0.10086 0.94861 0.5055 0.0
O126 O 0.11658 0.03955 0.58933 0.0
O127 O 0.10997 0.98964 0.56174 0.0
H128 H 0.01772 0.12396 0.60266 0.0
O129 O 0.02886 0.99305 0.59053 0.0
O130 O 0.03481 0.04407 0.61644 0.0
O131 O 1.00067 0.03016 0.52124 0.0
O132 O 1.00741 0.08093 0.54725 0.0
C133 C 0.0243 1.0122 0.61778 0.0
H134 H 0.1535 0.15959 0.58802 0.0
H135 H 0.03499 0.18517 0.61641 0.0
H136 H 0.96632 0.90906 0.51798 0.0
H137 H 0.08607 0.88731 0.49052 0.0
C138 C 0.64635 1.00074 1.01337 0.0
N139 N 0.59094 0.10065 1.00899 0.0
C140 C 0.62685 0.11365 1.01519 0.0
C141 C 0.63365 0.14904 1.00936 0.0
C142 C 0.60324 0.17123 0.99696 0.0
C143 C 0.56725 0.15673 0.98827 0.0
C144 C 0.56161 0.12105 0.99472 0.0
Zn145 Zn 0.58069 0.05217 0.02885 0.0
C146 C 0.53786 1.00599 0.97994 0.0
N147 N 0.56199 0.95247 0.07542 0.0
C148 C 0.59124 0.93084 0.08788 0.0
C149 C 0.52474 0.9415 0.07324 0.0
C150 C 0.51586 0.9073 0.0826 0.0
C151 C 0.54568 0.88368 0.09359 0.0
C152 C 0.5837 0.89607 0.09709 0.0
Zn153 Zn 0.57272 1.00084 0.05505 0.0
O154 O 0.6345 0.03222 1.00765 0.0
C155 C 0.61479 0.04737 0.10419 0.0
O156 O 0.62616 0.98113 0.03283 0.0
H157 H 0.50192 0.95892 0.06299 0.0
H158 H 0.64971 0.097 0.02661 0.0
H159 H 0.62067 0.94013 0.0894 0.0
O160 O 0.60966 0.06709 0.07723 0.0
O161 O 0.60288 0.01598 0.10279 0.0
H162 H 0.53325 0.11012 0.99019 0.0
O163 O 0.51955 0.02146 0.07704 0.0
O164 O 0.52704 0.0717 0.05008 0.0
O165 O 0.54247 0.98617 1.00695 0.0
O166 O 0.55112 0.03691 0.98112 0.0
C167 C 0.50735 0.05265 0.07042 0.0
H168 H 0.66195 0.15928 1.01591 0.0
H169 H 0.54312 0.17317 0.97874 0.0
H170 H 0.48597 0.89921 0.08026 0.0
H171 H 0.60764 0.87874 0.10527 0.0
C172 C 0.56541 0.46176 0.51238 0.0
N173 N 0.56603 0.5088 0.6136 0.0
C174 C 0.55097 0.48163 0.63194 0.0
C175 C 0.55694 0.47909 0.66856 0.0
C176 C 0.57846 0.50483 0.68623 0.0
C177 C 0.59437 0.53189 0.66625 0.0
C178 C 0.58793 0.53329 0.63002 0.0
Zn179 Zn 0.55247 0.51967 0.56199 0.0
C180 C 0.62184 0.54744 0.52503 0.0
N181 N 0.52556 0.55177 0.45658 0.0
C182 C 0.50553 0.52806 0.43721 0.0
C183 C 0.54015 0.58097 0.44139 0.0
C184 C 0.53644 0.58626 0.40494 0.0
C185 C 0.51765 0.56119 0.38402 0.0
C186 C 0.50124 0.53225 0.40081 0.0
Zn187 Zn 0.53841 0.53935 0.50793 0.0
O188 O 0.56717 0.46736 0.54549 0.0
C189 C 0.46907 0.5114 0.54499 0.0
O190 O 0.5541 0.48671 0.49188 0.0
H191 H 0.556 0.59946 0.45732 0.0
H192 H 0.53334 0.46262 0.61839 0.0
H193 H 0.49439 0.50491 0.44978 0.0
O194 O 0.49396 0.50588 0.56969 0.0
O195 O 0.47996 0.52464 0.51602 0.0
H196 H 0.59909 0.55508 0.61526 0.0
O197 O 0.52327 0.59185 0.52483 0.0
O198 O 0.53768 0.57219 0.5779 0.0
O199 O 0.59701 0.5539 0.50053 0.0
O200 O 0.61079 0.53342 0.55348 0.0
C201 C 0.52616 0.59734 0.55788 0.0
H202 H 0.54437 0.45761 0.68288 0.0
H203 H 0.61029 0.55287 0.67856 0.0
H204 H 0.54909 0.6092 0.39319 0.0
H205 H 0.48704 0.51193 0.38583 0.0
C206 C 0.05422 0.59376 0.05636 0.0
N207 N 0.05154 0.55481 0.16149 0.0
C208 C 0.06632 0.58401 0.17676 0.0
C209 C 0.05893 0.59148 0.21222 0.0
C210 C 0.0359 0.56878 0.23187 0.0
C211 C 0.02012 0.53953 0.21497 0.0
C212 C 0.02845 0.53295 0.17977 0.0
Zn213 Zn 0.06634 0.53926 0.11186 0.0
C214 C 0.99762 0.50844 0.07386 0.0
N215 N 0.09573 0.50122 1.01022 0.0
C216 C 0.11686 0.5251 0.99245 0.0
C217 C 0.08347 0.47137 0.99431 0.0
C218 C 0.09147 0.46533 0.95867 0.0
C219 C 0.11164 0.49058 0.93955 0.0
C220 C 0.12498 0.52037 0.957 0.0
Zn221 Zn 0.08041 0.51571 0.05997 0.0
O222 O 0.05158 0.59113 0.0898 0.0
C223 C 0.14956 0.54573 0.09763 0.0
O224 O 0.06555 0.5669 0.03918 0.0
H225 H 0.0666 0.45282 1.00892 0.0
H226 H 0.08472 0.60096 0.16175 0.0
H227 H 0.12649 0.54862 1.00546 0.0
O228 O 0.12509 0.5539 0.12118 0.0
O229 O 0.13797 0.53035 0.06991 0.0
H230 H 0.01748 0.50958 0.16739 0.0
O231 O 0.09472 0.46478 0.08106 0.0
O232 O 0.08118 0.48681 0.13292 0.0
O233 O 0.02275 0.50062 0.0508 0.0
O234 O 1.00805 0.52448 0.10166 0.0
C235 C 0.09229 0.46066 0.11432 0.0
H236 H 0.07154 0.61439 0.22426 0.0
H237 H 1.00291 0.5209 0.22922 0.0
H238 H 0.08076 0.44201 0.94588 0.0
H239 H 0.14109 0.54013 0.94318 0.0
H240 H 0.1709 0.11066 0.28037 0.0
H241 H 0.11262 0.12755 0.48393 0.0
H242 H 0.15943 0.20975 0.33441 0.0
H243 H 0.10567 0.03035 0.42626 0.0
H244 H 0.13275 0.15714 0.43026 0.0
H245 H 0.1495 0.0805 0.33355 0.0
C246 C 0.16389 0.12617 0.30341 0.0
C247 C 0.16729 0.16298 0.30273 0.0
C248 C 0.12691 0.12934 0.42923 0.0
C249 C 0.1426 0.12823 0.36422 0.0
C250 C 0.11552 0.11224 0.46004 0.0
C251 C 0.10737 0.07616 0.45991 0.0
C252 C 0.13056 0.11044 0.39766 0.0
C253 C 0.11166 0.05809 0.42784 0.0
C254 C 0.15151 0.10884 0.33381 0.0
C255 C 0.1571 0.18147 0.33342 0.0
N256 N 0.12297 0.07536 0.39813 0.0
N257 N 0.14555 0.16394 0.36285 0.0
H258 H 0.44388 0.87091 0.81656 0.0
H259 H 0.51754 0.04203 0.9187 0.0
H260 H 0.42824 0.97582 0.7744 0.0
H261 H 0.51362 0.93909 0.96636 0.0
H262 H 0.4871 0.01855 0.865 0.0
H263 H 0.47186 0.89544 0.87052 0.0
C264 C 0.44645 0.89913 0.81852 0.0
C265 C 0.43373 0.92122 0.79058 0.0
C266 C 0.49279 1.00113 0.88725 0.0
C267 C 0.46588 0.94973 0.85289 0.0
C268 C 0.51024 1.01453 0.91797 0.0
C269 C 0.51829 0.99258 0.94729 0.0
C270 C 0.48353 0.96537 0.88552 0.0
C271 C 0.50804 0.95712 0.94459 0.0
C272 C 0.46227 0.91318 0.84954 0.0
C273 C 0.43733 0.95769 0.79519 0.0
N274 N 0.49145 0.94469 0.91436 0.0
N275 N 0.45323 0.97074 0.82555 0.0
H276 H 0.64748 0.57085 0.89308 0.0
H277 H 0.52495 0.48709 0.73633 0.0
H278 H 0.56743 0.48817 0.9135 0.0
H279 H 0.64192 0.52403 0.72553 0.0
H280 H 0.53093 0.49514 0.80043 0.0
H281 H 0.63411 0.56495 0.82976 0.0
C282 C 0.62613 0.55226 0.88418 0.0
C283 C 0.60799 0.53039 0.90835 0.0
C284 C 0.55516 0.50137 0.78382 0.0
C285 C 0.59342 0.52276 0.83626 0.0
C286 C 0.552 0.49647 0.74733 0.0
C287 C 0.58282 0.50529 0.72532 0.0
C288 C 0.58907 0.5157 0.79816 0.0
C289 C 0.61698 0.51776 0.74118 0.0
C290 C 0.61894 0.54854 0.84815 0.0
C291 C 0.58139 0.50592 0.89557 0.0
N292 N 0.61899 0.52295 0.77651 0.0
N293 N 0.5749 0.50266 0.86024 0.0
H294 H 0.95838 0.52583 0.44051 0.0
H295 H 0.09029 0.58702 0.28182 0.0
H296 H 0.07513 0.56195 0.45547 0.0
H297 H 0.96961 0.56044 0.26977 0.0
H298 H 0.08358 0.58453 0.34593 0.0
H299 H 0.96014 0.54393 0.37858 0.0
C300 C 0.98438 0.53763 0.43058 0.0
C301 C 0.01702 0.54166 0.45264 0.0
C302 C 0.05843 0.57971 0.32926 0.0
C303 C 0.01939 0.56254 0.38199 0.0
C304 C 0.06216 0.58139 0.29264 0.0
C305 C 0.0306 0.57343 0.27038 0.0
C306 C 0.02293 0.56984 0.34369 0.0
C307 C 0.99494 0.566 0.28592 0.0
C308 C 0.98539 0.5481 0.39533 0.0
C309 C 0.04973 0.55778 0.43893 0.0
N310 N 0.99221 0.56397 0.32156 0.0
N311 N 0.05031 0.56725 0.40429 0.0
H312 H 0.29962 0.08259 0.19618 0.0
H313 H 0.47243 0.11789 0.06125 0.0
H314 H 0.30724 0.17745 0.1346 0.0
H315 H 0.46011 0.0203 0.11785 0.0
H316 H 0.41396 0.14125 0.08975 0.0
H317 H 0.36064 0.06086 0.17058 0.0
C318 C 0.31435 0.09892 0.1774 0.0
C319 C 0.29816 0.13166 0.16713 0.0
C320 C 0.42402 0.11472 0.09595 0.0
C321 C 0.36807 0.10701 0.1376 0.0
C322 C 0.45744 0.10131 0.07962 0.0
C323 C 0.47131 0.06696 0.08701 0.0
C324 C 0.40417 0.09377 0.12004 0.0
C325 C 0.45056 0.04685 0.11118 0.0
C326 C 0.34912 0.08648 0.16269 0.0
C327 C 0.31862 0.15192 0.14296 0.0
N328 N 0.41816 0.06052 0.12677 0.0
N329 N 0.35233 0.13921 0.12886 0.0
H330 H 0.30821 0.87209 0.67678 0.0
H331 H 0.18214 0.04459 0.62332 0.0
H332 H 0.34566 0.97689 0.70059 0.0
H333 H 0.15999 0.94136 0.58215 0.0
H334 H 0.23995 0.02055 0.65446 0.0
H335 H 0.2517 0.89712 0.6453 0.0
C336 C 0.30483 0.90042 0.67526 0.0
C337 C 0.33239 0.9223 0.69119 0.0
C338 C 0.22253 1.00319 0.63851 0.0
C339 C 0.2666 0.95131 0.65535 0.0
C340 C 0.18947 0.0169 0.62067 0.0
C341 C 0.16602 0.99501 0.59996 0.0
C342 C 0.23218 0.9672 0.636 0.0
C343 C 0.17712 0.95932 0.59765 0.0
C344 C 0.27227 0.9147 0.65732 0.0
C345 C 0.32531 0.95884 0.68902 0.0
N346 N 0.20917 0.94657 0.61553 0.0
N347 N 0.29324 0.97216 0.67144 0.0
H348 H 0.78274 0.41862 1.00224 0.0
H349 H 0.93409 0.53592 0.10747 0.0
H350 H 0.74994 0.51857 0.04766 0.0
H351 H 0.96746 0.46181 0.02682 0.0
H352 H 0.86567 0.52341 0.09522 0.0
H353 H 0.84993 0.42747 1.02123 0.0
C354 C 0.78961 0.44218 1.01676 0.0
C355 C 0.76079 0.46788 1.02355 0.0
C356 C 0.88805 0.50986 0.08035 0.0
C357 C 0.83761 0.47829 0.04496 0.0
C358 C 0.92704 0.51684 0.08738 0.0
C359 C 0.95644 0.49997 0.06798 0.0
C360 C 0.87853 0.48544 0.05418 0.0
C361 C 0.94569 0.47556 0.04221 0.0
C362 C 0.82799 0.44734 0.02727 0.0
C363 C 0.7714 0.49822 0.04185 0.0
N364 N 0.90758 0.46896 0.03611 0.0
N365 N 0.80907 0.50262 0.05199 0.0
H366 H 0.87167 0.55344 0.55016 0.0
H367 H 0.65636 0.57899 0.46863 0.0
H368 H 0.84578 0.61296 0.45512 0.0
H369 H 0.6823 0.53208 0.57055 0.0
H370 H 0.72584 0.58878 0.46113 0.0
H371 H 0.8026 0.54139 0.55542 0.0
C372 C 0.85149 0.56363 0.53017 0.0
C373 C 0.86449 0.58429 0.5022 0.0
C374 C 0.71626 0.57639 0.48513 0.0
C375 C 0.78525 0.57103 0.5083 0.0
C376 C 0.67661 0.57084 0.48945 0.0
C377 C 0.66346 0.55474 0.52028 0.0
C378 C 0.74293 0.56559 0.51175 0.0
C379 C 0.69105 0.54465 0.54636 0.0
C380 C 0.81201 0.55701 0.53334 0.0
C381 C 0.83693 0.59724 0.47733 0.0
N382 N 0.72941 0.55017 0.54146 0.0
N383 N 0.79861 0.59044 0.48099 0.0
H384 H 0.15381 0.28922 0.26209 0.0
H385 H 0.11565 0.39921 0.08223 0.0
H386 H 0.17114 0.24749 0.1577 0.0
H387 H 0.09378 0.44271 0.18516 0.0
H388 H 0.13473 0.34326 0.11006 0.0
H389 H 0.12984 0.34481 0.23533 0.0
C390 C 0.15232 0.29152 0.23361 0.0
C391 C 0.16505 0.26345 0.21228 0.0
C392 C 0.12569 0.36495 0.12667 0.0
C393 C 0.13783 0.32743 0.18133 0.0
C394 C 0.11474 0.39706 0.11071 0.0
C395 C 0.10305 0.42601 0.13124 0.0
C396 C 0.12518 0.36136 0.16365 0.0
C397 C 0.10256 0.42126 0.16815 0.0
C398 C 0.13883 0.32343 0.21832 0.0
C399 C 0.16254 0.2684 0.17543 0.0
N400 N 0.11353 0.38973 0.1831 0.0
N401 N 0.14947 0.29956 0.1613 0.0
H402 H 0.63896 0.38703 0.93709 0.0
H403 H 0.63251 0.2109 0.0498 0.0
H404 H 0.65953 0.38205 0.04972 0.0
H405 H 0.58462 0.21873 0.94408 0.0
H406 H 0.64266 0.27396 0.04955 0.0
H407 H 0.61766 0.32623 0.93845 0.0
C408 C 0.63839 0.37338 0.96219 0.0
C409 C 0.65138 0.38955 0.99333 0.0
C410 C 0.62976 0.26205 0.0264 0.0
C411 C 0.6278 0.31988 0.99488 0.0
C412 C 0.62428 0.22601 0.02644 0.0
C413 C 0.60824 0.20964 0.99671 0.0
C414 C 0.61949 0.28196 0.99628 0.0
C415 C 0.59723 0.23047 0.96744 0.0
C416 C 0.62644 0.33861 0.96289 0.0
C417 C 0.6505 0.37041 0.02499 0.0
N418 N 0.60344 0.26563 0.96778 0.0
N419 N 0.63928 0.33651 0.02489 0.0
H420 H 0.91835 0.69293 0.52711 0.0
H421 H 0.05139 0.84519 0.45389 0.0
H422 H 1.01269 0.67086 0.45617 0.0
H423 H 0.97814 0.85413 0.54508 0.0
H424 H 0.03438 0.783 0.449 0.0
H425 H 0.93522 0.75446 0.52732 0.0
C426 C 0.94235 0.70113 0.51115 0.0
C427 C 0.96399 0.67673 0.49141 0.0
C428 C 0.02206 0.79878 0.46995 0.0
C429 C 0.98412 0.74739 0.49214 0.0
C430 C 0.03182 0.83417 0.47284 0.0
C431 C 0.01572 0.85515 0.49961 0.0
C432 C 0.99597 0.78448 0.49392 0.0
C433 C 0.99044 0.83945 0.52337 0.0
C434 C 0.95226 0.73628 0.51157 0.0
C435 C 0.9954 0.68885 0.47189 0.0
N436 N 0.9813 0.80525 0.51985 0.0
N437 N 1.00457 0.72345 0.47271 0.0
H438 H 0.48987 0.77025 0.70404 0.0
H439 H 0.49714 0.65759 0.5248 0.0
H440 H 0.45207 0.81161 0.60285 0.0
H441 H 0.53137 0.61648 0.62729 0.0
H442 H 0.4798 0.71395 0.55249 0.0
H443 H 0.50389 0.71324 0.67633 0.0
C444 C 0.48422 0.76716 0.67603 0.0
C445 C 0.46973 0.79563 0.65576 0.0
C446 C 0.49108 0.69256 0.5689 0.0
C447 C 0.48611 0.73058 0.62358 0.0
C448 C 0.50108 0.66037 0.55306 0.0
C449 C 0.51582 0.63212 0.57364 0.0
C450 C 0.4959 0.69664 0.60562 0.0
C451 C 0.52015 0.63738 0.61023 0.0
C452 C 0.49234 0.73469 0.66014 0.0
C453 C 0.46316 0.79032 0.61948 0.0
N454 N 0.51031 0.66886 0.62493 0.0
N455 N 0.47151 0.75854 0.60455 0.0
H456 H 0.96058 0.8675 0.78577 0.0
H457 H 1.00524 0.04561 0.68006 0.0
H458 H 0.93626 0.97092 0.82727 0.0
H459 H 1.00875 0.94302 0.63215 0.0
H460 H 0.98294 0.01883 0.73496 0.0
H461 H 0.98189 0.8945 0.7307 0.0
C462 C 0.95989 0.89588 0.78349 0.0
C463 C 0.9464 0.9168 0.81151 0.0
C464 C 0.98846 1.00217 0.71241 0.0
C465 C 0.97087 0.94814 0.74795 0.0
C466 C 1.00121 0.01749 0.68095 0.0
C467 C 1.00891 0.9967 0.65113 0.0
C468 C 0.98365 0.96559 0.71449 0.0
C469 C 1.00314 0.96029 0.65421 0.0
C470 C 0.97186 0.91132 0.75183 0.0
C471 C 0.94588 0.95353 0.80646 0.0
N472 N 0.99112 0.94599 0.68518 0.0
N473 N 0.95799 0.96791 0.77556 0.0
H474 H 0.70585 0.08217 0.31816 0.0
H475 H 0.6373 0.11483 0.11662 0.0
H476 H 0.69012 0.18481 0.27065 0.0
H477 H 0.632 1.01355 0.16761 0.0
H478 H 0.66229 0.13962 0.17153 0.0
H479 H 0.68452 0.0556 0.26238 0.0
C480 C 0.69816 0.09916 0.296 0.0
C481 C 0.6997 0.13591 0.29937 0.0
C482 C 0.65579 0.11194 0.17079 0.0
C483 C 0.67513 0.1055 0.23518 0.0
C484 C 0.64159 0.09765 0.13928 0.0
C485 C 0.63235 0.06192 0.13727 0.0
C486 C 0.66117 0.09048 0.20084 0.0
C487 C 0.63862 0.04119 0.16779 0.0
C488 C 0.68576 0.08393 0.26417 0.0
C489 C 0.68895 0.15644 0.26966 0.0
N490 N 0.65258 0.05574 0.19822 0.0
N491 N 0.67727 0.14102 0.23899 0.0
H492 H 0.59353 0.56568 0.16718 0.0
H493 H 0.46006 0.54363 0.33659 0.0
H494 H 0.49254 0.50109 0.16932 0.0
H495 H 0.57687 0.58249 0.34193 0.0
H496 H 0.46578 0.53818 0.27265 0.0
H497 H 0.58226 0.58188 0.22893 0.0
C498 C 0.56912 0.55484 0.18084 0.0
C499 C 0.54449 0.53134 0.16374 0.0
C500 C 0.49 0.54821 0.28783 0.0
C501 C 0.53089 0.5502 0.23364 0.0
C502 C 0.4868 0.55128 0.32434 0.0
C503 C 0.51822 0.56308 0.34483 0.0
C504 C 0.52479 0.55715 0.2716 0.0
C505 C 0.55179 0.57344 0.32731 0.0
C506 C 0.56259 0.56416 0.21588 0.0
C507 C 0.5126 0.5187 0.18202 0.0
N508 N 0.55431 0.56993 0.29175 0.0
N509 N 0.50679 0.52816 0.21607 0.0
H510 H 0.1996 0.43292 0.73541 0.0
H511 H 0.0942 0.53916 0.88867 0.0
H512 H 0.11523 0.51672 0.71476 0.0
H513 H 0.14316 0.43467 0.90371 0.0
H514 H 0.10819 0.53533 0.82571 0.0
H515 H 0.18655 0.4377 0.79837 0.0
C516 C 0.17838 0.45239 0.74409 0.0
C517 C 0.15817 0.47421 0.71964 0.0
C518 C 0.11574 0.51319 0.84273 0.0
C519 C 0.14356 0.48004 0.79173 0.0
C520 C 0.10785 0.51537 0.87857 0.0
C521 C 0.11767 0.48718 0.90123 0.0
C522 C 0.13406 0.48278 0.82953 0.0
C523 C 0.135 0.45685 0.88696 0.0
C524 C 0.17099 0.45506 0.78002 0.0
C525 C 0.13174 0.49954 0.73257 0.0
N526 N 0.14297 0.45553 0.85195 0.0
N527 N 0.12513 0.5017 0.76775 0.0
H528 H 0.82987 0.86504 0.92997 0.0
H529 H 0.69857 0.03635 0.97323 0.0
H530 H 0.86041 0.96993 0.899 0.0
H531 H 0.67674 0.93315 1.01484 0.0
H532 H 0.75664 1.01249 0.9444 0.0
H533 H 0.7728 0.88937 0.95952 0.0
C534 C 0.82486 0.89323 0.92951 0.0
C535 C 0.85051 0.91535 0.91194 0.0
C536 C 0.73922 0.99506 0.9599 0.0
C537 C 0.78418 0.94352 0.94559 0.0
C538 C 0.70598 1.00868 0.97642 0.0
C539 C 0.68254 0.98679 0.99661 0.0
C540 C 0.74923 0.95915 0.9633 0.0
C541 C 0.69382 0.95112 0.99966 0.0
C542 C 0.79197 0.90711 0.9463 0.0
C543 C 0.8415 0.95165 0.91175 0.0
N544 N 0.72616 0.93847 0.98316 0.0
N545 N 0.80924 0.96452 0.92826 0.0
H546 H 0.8109 0.19265 0.42187 0.0
H547 H 0.93607 0.0236 0.48742 0.0
H548 H 0.77938 0.08625 0.39772 0.0
H549 H 0.95722 0.12876 0.52383 0.0
H550 H 0.8796 0.04603 0.45354 0.0
H551 H 0.86539 0.16985 0.45786 0.0
C552 C 0.81514 0.16446 0.42425 0.0
C553 C 0.78997 0.14144 0.40671 0.0
C554 C 0.89643 0.06421 0.46906 0.0
C555 C 0.85333 0.11503 0.44782 0.0
C556 C 0.92874 0.05141 0.48851 0.0
C557 C 0.95161 0.07429 0.50863 0.0
C558 C 0.88682 0.1003 0.46935 0.0
C559 C 0.9405 0.11008 0.50886 0.0
C560 C 0.84654 0.15145 0.44477 0.0
C561 C 0.79798 0.10515 0.41031 0.0
N562 N 0.90911 0.12196 0.48941 0.0
N563 N 0.82884 0.09314 0.43039 0.0
H564 H 0.39787 0.54069 0.07261 0.0
H565 H 0.187 0.57787 0.15324 0.0
H566 H 0.37942 0.60612 0.16387 0.0
H567 H 0.20793 0.52728 0.05327 0.0
H568 H 0.25739 0.58503 0.16083 0.0
H569 H 0.32826 0.53053 0.06925 0.0
C570 C 0.37923 0.55251 0.09228 0.0
C571 C 0.39447 0.57436 0.11849 0.0
C572 C 0.24642 0.57242 0.13726 0.0
C573 C 0.31447 0.56341 0.11442 0.0
C574 C 0.2063 0.5684 0.13288 0.0
C575 C 0.19152 0.55201 0.10256 0.0
C576 C 0.27177 0.55973 0.11123 0.0
C577 C 0.21789 0.54013 0.07707 0.0
C578 C 0.33939 0.547 0.09015 0.0
C579 C 0.36877 0.58943 0.14296 0.0
N580 N 0.25661 0.54416 0.08204 0.0
N581 N 0.32997 0.58378 0.14027 0.0
H582 H 0.21945 0.52996 0.52863 0.0
H583 H 0.43414 0.49213 0.60641 0.0
H584 H 0.24721 0.52146 0.63965 0.0
H585 H 0.40863 0.5178 0.49724 0.0
H586 H 0.36439 0.49078 0.61744 0.0
H587 H 0.28697 0.51332 0.51526 0.0
C588 C 0.23977 0.52413 0.55012 0.0
C589 C 0.22826 0.5278 0.58524 0.0
C590 C 0.37406 0.49631 0.59098 0.0
C591 C 0.3052 0.50881 0.57035 0.0
C592 C 0.41391 0.497 0.58463 0.0
C593 C 0.42729 0.50558 0.55094 0.0
C594 C 0.34737 0.5042 0.56346 0.0
C595 C 0.39966 0.51148 0.52372 0.0
C596 C 0.27823 0.51473 0.54255 0.0
C597 C 0.25531 0.51945 0.61223 0.0
N598 N 0.36104 0.511 0.53066 0.0
N599 N 0.29269 0.51075 0.60425 0.0
H600 H 0.93799 0.7863 0.97629 0.0
H601 H 0.07024 0.60975 0.98791 0.0
H602 H 1.00737 0.74607 0.89123 0.0
H603 H 1.01267 0.65305 0.07879 0.0
H604 H 0.04879 0.66095 0.95345 0.0
H605 H 0.96637 0.74013 1.01538 0.0
C606 C 0.95965 0.76809 0.96602 0.0
C607 C 0.97023 0.77005 0.93038 0.0
C608 C 0.04093 0.65956 0.98096 0.0
C609 C 1.00251 0.71675 0.97481 0.0
C610 C 0.05321 0.63014 1.0008 0.0
C611 C 0.04326 0.62678 0.0365 0.0
C612 C 0.01801 0.68616 0.99651 0.0
C613 C 0.02118 0.65441 0.05146 0.0
C614 C 0.97571 0.74163 0.98828 0.0
C615 C 0.99828 0.74562 0.91843 0.0
N616 N 1.00905 0.68273 0.03137 0.0
N617 N 1.01308 0.71998 0.9404 0.0
H618 H 0.54624 0.66183 0.15219 0.0
H619 H 0.49646 0.84378 0.05446 0.0
H620 H 0.44684 0.68066 0.08314 0.0
H621 H 0.57641 0.83708 0.14347 0.0
H622 H 0.48193 0.78235 0.06254 0.0
H623 H 0.56182 0.72442 0.14738 0.0
C624 C 0.5277 0.67915 0.13616 0.0
C625 C 0.49506 0.66618 0.11823 0.0
C626 C 0.5025 0.79426 0.08051 0.0
C627 C 0.51273 0.7372 0.11245 0.0
C628 C 0.51066 0.82953 0.07606 0.0
C629 C 0.53726 0.84593 0.09869 0.0
C630 C 0.52133 0.7748 0.10755 0.0
C631 C 0.55577 0.82552 0.12536 0.0
C632 C 0.53648 0.71476 0.13355 0.0
C633 C 0.4719 0.68963 0.09787 0.0
N634 N 0.54745 0.79093 0.12908 0.0
N635 N 0.48128 0.72388 0.09544 0.0
H636 H 0.1135 0.40284 0.58408 0.0
H637 H 0.1604 0.20221 0.63677 0.0
H638 H 0.20826 0.36948 0.65323 0.0
H639 H 0.05717 0.23635 0.57882 0.0
H640 H 0.18178 0.26285 0.63827 0.0
H641 H 0.09729 0.34119 0.57501 0.0
C642 C 0.13152 0.38245 0.59656 0.0
C643 C 0.16215 0.39111 0.61952 0.0
C644 C 0.1544 0.25715 0.62528 0.0
C645 C 0.14326 0.32085 0.61008 0.0
C646 C 0.14216 0.22256 0.62449 0.0
C647 C 0.10691 0.2143 0.60773 0.0
C648 C 0.13133 0.28375 0.60906 0.0
C649 C 0.08428 0.24168 0.59243 0.0
C650 C 0.12196 0.34733 0.59178 0.0
C651 C 0.18425 0.36379 0.63549 0.0
N652 N 0.09694 0.27522 0.59335 0.0
N653 N 0.17416 0.32989 0.63073 0.0
H654 H 0.66431 0.25169 0.47828 0.0
H655 H 0.56163 0.4408 0.44328 0.0
H656 H 0.61869 0.2854 0.37682 0.0
H657 H 0.59837 0.40397 0.54669 0.0
H658 H 0.58462 0.38517 0.41824 0.0
H659 H 0.64374 0.30841 0.50325 0.0
C660 C 0.65017 0.27118 0.46122 0.0
C661 C 0.64292 0.26376 0.42547 0.0
C662 C 0.58763 0.38916 0.44642 0.0
C663 C 0.61912 0.32883 0.45388 0.0
C664 C 0.57442 0.42099 0.46082 0.0
C665 C 0.57791 0.42722 0.49728 0.0
C666 C 0.60473 0.36314 0.46848 0.0
C667 C 0.59487 0.40041 0.5185 0.0
C668 C 0.63829 0.30352 0.4755 0.0
C669 C 0.62467 0.29004 0.40453 0.0
N670 N 0.60767 0.36965 0.50381 0.0
N671 N 0.61327 0.32128 0.41903 0.0
loop_
_geom_bond_atom_site_label_1
_geom_bond_atom_site_label_2
_geom_bond_distance
_geom_bond_site_symmetry_2
_ccdc_geom_bond_type
H0 C7 0.929 . S
H1 C10 0.930 . S
H2 C12 0.929 . S
H3 C4 0.969 . S
C4 H3 0.969 . S
C4 O5 1.550 . S
C4 H6 0.973 . S
O5 C4 1.550 . S
O5 C11 1.412 . S
H6 C4 0.973 . S
C7 H0 0.929 . S
C7 C8 1.400 . S
C7 C9 1.364 . S
C8 C7 1.400 . S
C8 C12 1.377 . S
C9 C7 1.364 . S
C9 C10 1.374 . S
C10 H1 0.930 . S
C10 C9 1.374 . S
C10 C11 1.383 . S
C11 O5 1.412 . S
C11 C10 1.383 . S
C11 C12 1.394 . S
C12 H2 0.929 . S
C12 C8 1.377 . S
C12 C11 1.394 . S
H13 C20 0.929 . S
H14 C23 0.930 . S
H15 C25 0.929 . S
H16 C17 0.969 . S
C17 H16 0.969 . S
C17 O18 1.550 . S
C17 H19 0.973 . S
O18 C17 1.550 . S
O18 C24 1.412 . S
H19 C17 0.973 . S
C20 H13 0.929 . S
C20 C21 1.400 . S
C20 C22 1.364 . S
C21 C20 1.400 . S
C21 C25 1.377 . S
C22 C20 1.364 . S
C22 C23 1.374 . S
C23 H14 0.930 . S
C23 C22 1.374 . S
C23 C24 1.383 . S
C24 O18 1.412 . S
C24 C23 1.383 . S
C24 C25 1.394 . S
C25 H15 0.929 . S
C25 C21 1.377 . S
C25 C24 1.394 . S
H26 C33 0.929 . S
H27 C36 0.930 . S
H28 C38 0.929 . S
H29 C30 0.969 . S
C30 H29 0.969 . S
C30 O31 1.550 . S
C30 H32 0.973 . S
O31 C30 1.550 . S
O31 C37 1.412 . S
H32 C30 0.973 . S
C33 H26 0.929 . S
C33 C34 1.400 . S
C33 C35 1.364 . S
C34 C33 1.400 . S
C34 C38 1.377 . S
C35 C33 1.364 . S
C35 C36 1.374 . S
C36 H27 0.930 . S
C36 C35 1.374 . S
C36 C37 1.383 . S
C37 O31 1.412 . S
C37 C36 1.383 . S
C37 C38 1.394 . S
C38 H28 0.929 . S
C38 C34 1.377 . S
C38 C37 1.394 . S
H39 C46 0.929 . S
H40 C49 0.930 . S
H41 C51 0.929 . S
H42 C43 0.969 . S
C43 H42 0.969 . S
C43 O44 1.550 . S
C43 H45 0.973 . S
O44 C43 1.550 . S
O44 C50 1.412 . S
H45 C43 0.973 . S
C46 H39 0.929 . S
C46 C47 1.400 . S
C46 C48 1.364 . S
C47 C46 1.400 . S
C47 C51 1.377 . S
C48 C46 1.364 . S
C48 C49 1.374 . S
C49 H40 0.930 . S
C49 C48 1.374 . S
C49 C50 1.383 . S
C50 O44 1.412 . S
C50 C49 1.383 . S
C50 C51 1.394 . S
C51 H41 0.929 . S
C51 C47 1.377 . S
C51 C50 1.394 . S
H52 C59 0.929 . S
H53 C62 0.930 . S
H54 C64 0.929 . S
H55 C56 0.969 . S
C56 H55 0.969 . S
C56 O57 1.550 . S
C56 H58 0.973 . S
O57 C56 1.550 . S
O57 C63 1.412 . S
H58 C56 0.973 . S
C59 H52 0.929 . S
C59 C60 1.400 . S
C59 C61 1.364 . S
C60 C59 1.400 . S
C60 C64 1.377 . S
C61 C59 1.364 . S
C61 C62 1.374 . S
C62 H53 0.930 . S
C62 C61 1.374 . S
C62 C63 1.383 . S
C63 O57 1.412 . S
C63 C62 1.383 . S
C63 C64 1.394 . S
C64 H54 0.929 . S
C64 C60 1.377 . S
C64 C63 1.394 . S
H65 C72 0.929 . S
H66 C75 0.930 . S
H67 C77 0.929 . S
H68 C69 0.969 . S
C69 H68 0.969 . S
C69 O70 1.550 . S
C69 H71 0.973 . S
O70 C69 1.550 . S
O70 C76 1.412 . S
H71 C69 0.973 . S
C72 H65 0.929 . S
C72 C73 1.400 . S
C72 C74 1.364 . S
C73 C72 1.400 . S
C73 C77 1.377 . S
C74 C72 1.364 . S
C74 C75 1.374 . S
C75 H66 0.930 . S
C75 C74 1.374 . S
C75 C76 1.383 . S
C76 O70 1.412 . S
C76 C75 1.383 . S
C76 C77 1.394 . S
C77 H67 0.929 . S
C77 C73 1.377 . S
C77 C76 1.394 . S
H78 C85 0.929 . S
H79 C88 0.930 . S
H80 C90 0.929 . S
H81 C82 0.969 . S
C82 H81 0.969 . S
C82 O83 1.550 . S
C82 H84 0.973 . S
O83 C82 1.550 . S
O83 C89 1.412 . S
H84 C82 0.973 . S
C85 H78 0.929 . S
C85 C86 1.400 . S
C85 C87 1.364 . S
C86 C85 1.400 . S
C86 C90 1.377 . S
C87 C85 1.364 . S
C87 C88 1.374 . S
C88 H79 0.930 . S
C88 C87 1.374 . S
C88 C89 1.383 . S
C89 O83 1.412 . S
C89 C88 1.383 . S
C89 C90 1.394 . S
C90 H80 0.929 . S
C90 C86 1.377 . S
C90 C89 1.394 . S
H91 C98 0.929 . S
H92 C101 0.930 . S
H93 C103 0.929 . S
H94 C95 0.969 . S
C95 H94 0.969 . S
C95 O96 1.550 . S
C95 H97 0.973 . S
O96 C95 1.550 . S
O96 C102 1.412 . S
H97 C95 0.973 . S
C98 H91 0.929 . S
C98 C99 1.400 . S
C98 C100 1.364 . S
C99 C98 1.400 . S
C99 C103 1.377 . S
C100 C98 1.364 . S
C100 C101 1.374 . S
C101 H92 0.930 . S
C101 C100 1.374 . S
C101 C102 1.383 . S
C102 O96 1.412 . S
C102 C101 1.383 . S
C102 C103 1.394 . S
C103 H93 0.929 . S
C103 C99 1.377 . S
C103 C102 1.394 . S
C104 O120 1.251 . S
C104 O122 1.254 . S
N105 C106 1.333 . S
N105 C110 1.307 . S
N105 Zn111 2.020 . S
C106 N105 1.333 . S
C106 C107 1.379 . S
C106 H124 0.952 . S
C107 C106 1.379 . S
C107 C108 1.390 . S
C107 H134 0.949 . S
C108 C107 1.390 . S
C108 C109 1.357 . S
C109 C108 1.357 . S
C109 C110 1.370 . S
C109 H135 0.950 . S
C110 N105 1.307 . S
C110 C109 1.370 . S
C110 H128 0.948 . S
Zn111 N105 2.020 . S
Zn111 O120 2.039 . S
Zn111 O126 2.034 . S
Zn111 O130 2.025 . S
Zn111 O132 2.024 1_455 S
C112 O131 1.246 . S
C112 O132 1.249 . S
N113 C114 1.306 1_655 S
N113 C115 1.334 . S
N113 Zn119 2.019 1_655 S
C114 N113 1.306 1_455 S
C114 C118 1.370 . S
C114 H125 0.948 . S
C115 N113 1.334 . S
C115 C116 1.379 . S
C115 H123 0.952 . S
C116 C115 1.379 . S
C116 C117 1.390 . S
C116 H136 0.949 . S
C117 C116 1.390 . S
C117 C118 1.357 1_655 S
C118 C114 1.370 . S
C118 C117 1.357 1_455 S
C118 H137 0.950 . S
Zn119 N113 2.019 1_455 S
Zn119 O122 2.025 1_565 S
Zn119 O127 2.024 . S
Zn119 O129 2.039 . S
Zn119 O131 2.034 1_465 S
O120 C104 1.251 . S
O120 Zn111 2.039 . S
C121 O126 1.246 . S
C121 O127 1.249 1_545 S
O122 C104 1.254 . S
O122 Zn119 2.025 1_545 S
H123 C115 0.952 . S
H124 C106 0.952 . S
H125 C114 0.948 . S
O126 Zn111 2.034 . S
O126 C121 1.246 . S
O127 Zn119 2.024 . S
O127 C121 1.249 1_565 S
H128 C110 0.948 . S
O129 Zn119 2.039 . S
O129 C133 1.251 1_565 S
O130 Zn111 2.025 . S
O130 C133 1.254 . S
O131 C112 1.246 . S
O131 Zn119 2.034 1_645 S
O132 Zn111 2.024 1_655 S
O132 C112 1.249 . S
C133 O129 1.251 1_545 S
C133 O130 1.254 . S
H134 C107 0.949 . S
H135 C109 0.950 . S
H136 C116 0.949 . S
H137 C118 0.950 . S
C138 O154 1.255 1_565 S
C138 O156 1.254 . S
N139 C140 1.333 . S
N139 C144 1.307 . S
N139 Zn145 2.020 1_556 S
C140 N139 1.333 . S
C140 C141 1.379 . S
C140 H158 0.952 1_556 S
C141 C140 1.379 . S
C141 C142 1.390 . S
C141 H168 0.949 . S
C142 C141 1.390 . S
C142 C143 1.357 . S
C143 C142 1.357 . S
C143 C144 1.370 . S
C143 H169 0.950 . S
C144 N139 1.307 . S
C144 C143 1.370 . S
C144 H162 0.948 . S
Zn145 N139 2.020 1_554 S
Zn145 O154 2.045 . S
Zn145 O160 2.034 . S
Zn145 O164 2.025 . S
Zn145 O166 2.024 1_554 S
C146 O165 1.224 1_545 S
C146 O166 1.280 . S
N147 C148 1.307 . S
N147 C149 1.333 . S
N147 Zn153 2.020 . S
C148 N147 1.307 . S
C148 C152 1.370 . S
C148 H159 0.948 . S
C149 N147 1.333 . S
C149 C150 1.379 . S
C149 H157 0.952 . S
C150 C149 1.379 . S
C150 C151 1.390 . S
C150 H170 0.949 . S
C151 C150 1.390 . S
C151 C152 1.357 . S
C152 C148 1.370 . S
C152 C151 1.357 . S
C152 H171 0.950 . S
Zn153 N147 2.020 . S
Zn153 O156 2.025 . S
Zn153 O161 2.019 1_565 S
Zn153 O163 2.039 1_565 S
Zn153 O165 2.034 1_554 S
O154 C138 1.255 1_545 S
O154 Zn145 2.045 . S
C155 O160 1.246 . S
C155 O161 1.264 . S
O156 C138 1.254 . S
O156 Zn153 2.025 . S
H157 C149 0.952 . S
H158 C140 0.952 1_554 S
H159 C148 0.948 . S
O160 Zn145 2.034 . S
O160 C155 1.246 . S
O161 Zn153 2.019 1_545 S
O161 C155 1.264 . S
H162 C144 0.948 . S
O163 Zn153 2.039 1_545 S
O163 C167 1.251 . S
O164 Zn145 2.025 . S
O164 C167 1.254 . S
O165 C146 1.224 1_565 S
O165 Zn153 2.034 1_556 S
O166 Zn145 2.024 1_556 S
O166 C146 1.280 . S
C167 O163 1.251 . S
C167 O164 1.254 . S
H168 C141 0.949 . S
H169 C143 0.950 . S
H170 C150 0.949 . S
H171 C152 0.950 . S
C172 O188 1.251 . S
C172 O190 1.254 . S
N173 C174 1.333 . S
N173 C178 1.307 . S
N173 Zn179 2.020 . S
C174 N173 1.333 . S
C174 C175 1.379 . S
C174 H192 0.952 . S
C175 C174 1.379 . S
C175 C176 1.390 . S
C175 H202 0.949 . S
C176 C175 1.390 . S
C176 C177 1.357 . S
C177 C176 1.357 . S
C177 C178 1.370 . S
C177 H203 0.950 . S
C178 N173 1.307 . S
C178 C177 1.370 . S
C178 H196 0.948 . S
Zn179 N173 2.020 . S
Zn179 O188 2.039 . S
Zn179 O194 2.034 . S
Zn179 O198 2.025 . S
Zn179 O200 2.024 . S
C180 O199 1.246 . S
C180 O200 1.249 . S
N181 C182 1.307 . S
N181 C183 1.333 . S
N181 Zn187 2.020 . S
C182 N181 1.307 . S
C182 C186 1.370 . S
C182 H193 0.948 . S
C183 N181 1.333 . S
C183 C184 1.379 . S
C183 H191 0.952 . S
C184 C183 1.379 . S
C184 C185 1.390 . S
C184 H204 0.949 . S
C185 C184 1.390 . S
C185 C186 1.357 . S
C186 C182 1.370 . S
C186 C185 1.357 . S
C186 H205 0.950 . S
Zn187 N181 2.020 . S
Zn187 O190 2.025 . S
Zn187 O195 2.024 . S
Zn187 O197 2.039 . S
Zn187 O199 2.034 . S
O188 C172 1.251 . S
O188 Zn179 2.039 . S
C189 O194 1.246 . S
C189 O195 1.249 . S
O190 C172 1.254 . S
O190 Zn187 2.025 . S
H191 C183 0.952 . S
H192 C174 0.952 . S
H193 C182 0.948 . S
O194 Zn179 2.034 . S
O194 C189 1.246 . S
O195 Zn187 2.024 . S
O195 C189 1.249 . S
H196 C178 0.948 . S
O197 Zn187 2.039 . S
O197 C201 1.251 . S
O198 Zn179 2.025 . S
O198 C201 1.254 . S
O199 C180 1.246 . S
O199 Zn187 2.034 . S
O200 Zn179 2.024 . S
O200 C180 1.249 . S
C201 O197 1.251 . S
C201 O198 1.254 . S
H202 C175 0.949 . S
H203 C177 0.950 . S
H204 C184 0.949 . S
H205 C186 0.950 . S
C206 O222 1.251 . S
C206 O224 1.254 1_554 S
N207 C208 1.333 . S
N207 C212 1.307 . S
N207 Zn213 2.020 . S
C208 N207 1.333 . S
C208 C209 1.379 . S
C208 H226 0.952 . S
C209 C208 1.379 . S
C209 C210 1.390 1_455 S
C209 H236 0.949 . S
C210 C209 1.390 1_655 S
C210 C211 1.357 . S
C211 C210 1.357 . S
C211 C212 1.370 1_655 S
C211 H237 0.950 . S
C212 N207 1.307 . S
C212 C211 1.370 1_455 S
C212 H230 0.948 . S
Zn213 N207 2.020 . S
Zn213 O222 2.039 . S
Zn213 O228 2.034 . S
Zn213 O232 2.025 . S
Zn213 O234 2.024 1_455 S
C214 O233 1.246 1_654 S
C214 O234 1.249 . S
N215 C216 1.307 . S
N215 C217 1.333 . S
N215 Zn221 2.020 . S
C216 N215 1.307 . S
C216 C220 1.370 . S
C216 H227 0.948 . S
C217 N215 1.333 . S
C217 C218 1.379 . S
C217 H225 0.952 . S
C218 C217 1.379 . S
C218 C219 1.390 . S
C218 H238 0.949 . S
C219 C218 1.390 . S
C219 C220 1.357 . S
C220 C216 1.370 . S
C220 C219 1.357 . S
C220 H239 0.950 . S
Zn221 N215 2.020 . S
Zn221 O224 2.025 . S
Zn221 O229 2.024 1_556 S
Zn221 O231 2.039 1_556 S
Zn221 O233 2.034 . S
O222 C206 1.251 . S
O222 Zn213 2.039 . S
C223 O228 1.246 . S
C223 O229 1.249 . S
O224 C206 1.254 1_556 S
O224 Zn221 2.025 . S
H225 C217 0.952 . S
H226 C208 0.952 . S
H227 C216 0.948 . S
O228 Zn213 2.034 . S
O228 C223 1.246 . S
O229 Zn221 2.024 1_554 S
O229 C223 1.249 . S
H230 C212 0.948 . S
O231 Zn221 2.039 1_554 S
O231 C235 1.251 . S
O232 Zn213 2.025 . S
O232 C235 1.254 . S
O233 C214 1.246 1_456 S
O233 Zn221 2.034 . S
O234 Zn213 2.024 1_655 S
O234 C214 1.249 . S
C235 O231 1.251 . S
C235 O232 1.254 . S
H236 C209 0.949 . S
H237 C211 0.950 . S
H238 C218 0.949 . S
H239 C220 0.950 . S
H240 C246 0.930 . S
H241 C250 0.930 . S
H242 C255 0.929 . S
H243 C253 0.929 . S
H244 C248 0.929 . S
H245 C254 0.929 . S
C246 H240 0.930 . S
C246 C247 1.367 . S
C246 C254 1.378 . S
C247 C246 1.367 . S
C247 C255 1.433 . S
C248 H244 0.929 . S
C248 C250 1.378 . S
C248 C252 1.350 . S
C249 C252 1.463 . S
C249 C254 1.350 . S
C249 N257 1.427 . S
C250 H241 0.930 . S
C250 C248 1.378 . S
C250 C251 1.367 . S
C251 C250 1.367 . S
C251 C253 1.433 . S
C252 C248 1.350 . S
C252 C249 1.463 . S
C252 N256 1.427 . S
C253 H243 0.929 . S
C253 C251 1.433 . S
C253 N256 1.384 . S
C254 H245 0.929 . S
C254 C246 1.378 . S
C254 C249 1.350 . S
C255 H242 0.929 . S
C255 C247 1.433 . S
C255 N257 1.384 . S
N256 C252 1.427 . S
N256 C253 1.384 . S
N257 C249 1.427 . S
N257 C255 1.384 . S
H258 C264 0.930 . S
H259 C268 0.930 . S
H260 C273 0.929 . S
H261 C271 0.929 . S
H262 C266 0.929 1_545 S
H263 C272 0.929 . S
C264 H258 0.930 . S
C264 C265 1.367 . S
C264 C272 1.378 . S
C265 C264 1.367 . S
C265 C273 1.433 . S
C266 H262 0.929 1_565 S
C266 C268 1.378 1_565 S
C266 C270 1.349 . S
C267 C270 1.463 . S
C267 C272 1.350 . S
C267 N275 1.427 . S
C268 H259 0.930 . S
C268 C266 1.378 1_545 S
C268 C269 1.367 1_545 S
C269 C268 1.367 1_565 S
C269 C271 1.433 . S
C270 C266 1.349 . S
C270 C267 1.463 . S
C270 N274 1.427 . S
C271 H261 0.929 . S
C271 C269 1.433 . S
C271 N274 1.384 . S
C272 H263 0.929 . S
C272 C264 1.378 . S
C272 C267 1.350 . S
C273 H260 0.929 . S
C273 C265 1.433 . S
C273 N275 1.384 . S
N274 C270 1.427 . S
N274 C271 1.384 . S
N275 C267 1.427 . S
N275 C273 1.384 . S
H276 C282 0.930 . S
H277 C286 0.930 . S
H278 C291 0.929 . S
H279 C289 0.929 . S
H280 C284 0.929 . S
H281 C290 0.929 . S
C282 H276 0.930 . S
C282 C283 1.367 . S
C282 C290 1.378 . S
C283 C282 1.367 . S
C283 C291 1.433 . S
C284 H280 0.929 . S
C284 C286 1.378 . S
C284 C288 1.350 . S
C285 C288 1.463 . S
C285 C290 1.350 . S
C285 N293 1.427 . S
C286 H277 0.930 . S
C286 C284 1.378 . S
C286 C287 1.367 . S
C287 C286 1.367 . S
C287 C289 1.433 . S
C288 C284 1.350 . S
C288 C285 1.463 . S
C288 N292 1.427 . S
C289 H279 0.929 . S
C289 C287 1.433 . S
C289 N292 1.384 . S
C290 H281 0.929 . S
C290 C282 1.378 . S
C290 C285 1.350 . S
C291 H278 0.929 . S
C291 C283 1.433 . S
C291 N293 1.384 . S
N292 C288 1.427 . S
N292 C289 1.384 . S
N293 C285 1.427 . S
N293 C291 1.384 . S
H294 C300 0.930 . S
H295 C304 0.930 . S
H296 C309 0.929 1_455 S
H297 C307 0.929 . S
H298 C302 0.929 . S
H299 C308 0.929 . S
C300 H294 0.930 . S
C300 C301 1.367 . S
C300 C308 1.378 . S
C301 C300 1.367 . S
C301 C309 1.433 . S
C302 H298 0.929 . S
C302 C304 1.378 . S
C302 C306 1.350 1_455 S
C303 C306 1.463 . S
C303 C308 1.350 . S
C303 N311 1.427 . S
C304 H295 0.930 . S
C304 C302 1.378 . S
C304 C305 1.367 1_455 S
C305 C304 1.367 1_655 S
C305 C307 1.433 . S
C306 C302 1.350 1_655 S
C306 C303 1.463 . S
C306 N310 1.427 . S
C307 H297 0.929 . S
C307 C305 1.433 . S
C307 N310 1.384 . S
C308 H299 0.929 . S
C308 C300 1.378 . S
C308 C303 1.350 . S
C309 H296 0.929 1_655 S
C309 C301 1.433 . S
C309 N311 1.384 . S
N310 C306 1.427 . S
N310 C307 1.384 . S
N311 C303 1.427 . S
N311 C309 1.384 . S
H312 C318 0.930 . S
H313 C322 0.930 . S
H314 C327 0.929 . S
H315 C325 0.929 . S
H316 C320 0.929 . S
H317 C326 0.929 . S
C318 H312 0.930 . S
C318 C319 1.367 . S
C318 C326 1.378 . S
C319 C318 1.367 . S
C319 C327 1.433 . S
C320 H316 0.929 . S
C320 C322 1.378 . S
C320 C324 1.350 . S
C321 C324 1.463 . S
C321 C326 1.350 . S
C321 N329 1.427 . S
C322 H313 0.930 . S
C322 C320 1.378 . S
C322 C323 1.367 . S
C323 C322 1.367 . S
C323 C325 1.433 . S
C324 C320 1.350 . S
C324 C321 1.463 . S
C324 N328 1.427 . S
C325 H315 0.929 . S
C325 C323 1.433 . S
C325 N328 1.384 . S
C326 H317 0.929 . S
C326 C318 1.378 . S
C326 C321 1.350 . S
C327 H314 0.929 . S
C327 C319 1.433 . S
C327 N329 1.384 . S
N328 C324 1.427 . S
N328 C325 1.384 . S
N329 C321 1.427 . S
N329 C327 1.384 . S
H330 C336 0.930 . S
H331 C340 0.930 . S
H332 C345 0.929 . S
H333 C343 0.929 . S
H334 C338 0.929 . S
H335 C344 0.929 . S
C336 H330 0.930 . S
C336 C337 1.367 . S
C336 C344 1.378 . S
C337 C336 1.367 . S
C337 C345 1.433 . S
C338 H334 0.929 . S
C338 C340 1.378 . S
C338 C342 1.350 1_545 S
C339 C342 1.463 . S
C339 C344 1.350 . S
C339 N347 1.427 . S
C340 H331 0.930 . S
C340 C338 1.378 . S
C340 C341 1.367 1_545 S
C341 C340 1.367 1_565 S
C341 C343 1.433 . S
C342 C338 1.350 1_565 S
C342 C339 1.463 . S
C342 N346 1.427 . S
C343 H333 0.929 . S
C343 C341 1.433 . S
C343 N346 1.384 . S
C344 H335 0.929 . S
C344 C336 1.378 . S
C344 C339 1.350 . S
C345 H332 0.929 . S
C345 C337 1.433 . S
C345 N347 1.384 . S
N346 C342 1.427 . S
N346 C343 1.384 . S
N347 C339 1.427 . S
N347 C345 1.384 . S
H348 C354 0.930 . S
H349 C358 0.930 . S
H350 C363 0.929 1_554 S
H351 C361 0.929 . S
H352 C356 0.929 . S
H353 C362 0.929 . S
C354 H348 0.930 . S
C354 C355 1.367 . S
C354 C362 1.378 . S
C355 C354 1.367 . S
C355 C363 1.433 . S
C356 H352 0.929 . S
C356 C358 1.378 . S
C356 C360 1.350 1_554 S
C357 C360 1.463 . S
C357 C362 1.350 . S
C357 N365 1.427 . S
C358 H349 0.930 . S
C358 C356 1.378 . S
C358 C359 1.367 . S
C359 C358 1.367 . S
C359 C361 1.433 1_554 S
C360 C356 1.350 1_556 S
C360 C357 1.463 . S
C360 N364 1.427 . S
C361 H351 0.929 . S
C361 C359 1.433 1_556 S
C361 N364 1.384 . S
C362 H353 0.929 . S
C362 C354 1.378 . S
C362 C357 1.350 . S
C363 H350 0.929 1_556 S
C363 C355 1.433 . S
C363 N365 1.384 . S
N364 C360 1.427 . S
N364 C361 1.384 . S
N365 C357 1.427 . S
N365 C363 1.384 . S
H366 C372 0.930 . S
H367 C376 0.930 . S
H368 C381 0.929 . S
H369 C379 0.929 . S
H370 C374 0.929 . S
H371 C380 0.929 . S
C372 H366 0.930 . S
C372 C373 1.367 . S
C372 C380 1.378 . S
C373 C372 1.367 . S
C373 C381 1.433 . S
C374 H370 0.929 . S
C374 C376 1.378 . S
C374 C378 1.350 . S
C375 C378 1.463 . S
C375 C380 1.350 . S
C375 N383 1.427 . S
C376 H367 0.930 . S
C376 C374 1.378 . S
C376 C377 1.367 . S
C377 C376 1.367 . S
C377 C379 1.433 . S
C378 C374 1.350 . S
C378 C375 1.463 . S
C378 N382 1.427 . S
C379 H369 0.929 . S
C379 C377 1.433 . S
C379 N382 1.384 . S
C380 H371 0.929 . S
C380 C372 1.378 . S
C380 C375 1.350 . S
C381 H368 0.929 . S
C381 C373 1.433 . S
C381 N383 1.384 . S
N382 C378 1.427 . S
N382 C379 1.384 . S
N383 C375 1.427 . S
N383 C381 1.384 . S
H384 C390 0.930 . S
H385 C394 0.930 . S
H386 C399 0.929 . S
H387 C397 0.929 . S
H388 C392 0.929 . S
H389 C398 0.929 . S
C390 H384 0.930 . S
C390 C391 1.367 . S
C390 C398 1.378 . S
C391 C390 1.367 . S
C391 C399 1.433 . S
C392 H388 0.929 . S
C392 C394 1.378 . S
C392 C396 1.350 . S
C393 C396 1.463 . S
C393 C398 1.350 . S
C393 N401 1.427 . S
C394 H385 0.930 . S
C394 C392 1.378 . S
C394 C395 1.367 . S
C395 C394 1.367 . S
C395 C397 1.433 . S
C396 C392 1.350 . S
C396 C393 1.463 . S
C396 N400 1.427 . S
C397 H387 0.929 . S
C397 C395 1.433 . S
C397 N400 1.384 . S
C398 H389 0.929 . S
C398 C390 1.378 . S
C398 C393 1.350 . S
C399 H386 0.929 . S
C399 C391 1.433 . S
C399 N401 1.384 . S
N400 C396 1.427 . S
N400 C397 1.384 . S
N401 C393 1.427 . S
N401 C399 1.384 . S
H402 C408 0.930 . S
H403 C412 0.918 1_554 S
H404 C417 0.929 1_554 S
H405 C415 0.929 . S
H406 C410 0.929 1_554 S
H407 C416 0.929 . S
C408 H402 0.930 . S
C408 C409 1.367 . S
C408 C416 1.378 . S
C409 C408 1.367 . S
C409 C417 1.433 . S
C410 H406 0.929 1_556 S
C410 C412 1.379 . S
C410 C414 1.350 . S
C411 C414 1.463 . S
C411 C416 1.350 . S
C411 N419 1.427 . S
C412 H403 0.918 1_556 S
C412 C410 1.379 . S
C412 C413 1.378 . S
C413 C412 1.378 . S
C413 C415 1.433 . S
C414 C410 1.350 . S
C414 C411 1.463 . S
C414 N418 1.427 . S
C415 H405 0.929 . S
C415 C413 1.433 . S
C415 N418 1.384 . S
C416 H407 0.929 . S
C416 C408 1.378 . S
C416 C411 1.350 . S
C417 H404 0.929 1_556 S
C417 C409 1.433 . S
C417 N419 1.384 . S
N418 C414 1.427 . S
N418 C415 1.384 . S
N419 C411 1.427 . S
N419 C417 1.384 . S
H420 C426 0.930 . S
H421 C430 0.930 . S
H422 C435 0.929 . S
H423 C433 0.929 . S
H424 C428 0.929 . S
H425 C434 0.929 . S
C426 H420 0.930 . S
C426 C427 1.367 . S
C426 C434 1.378 . S
C427 C426 1.367 . S
C427 C435 1.433 . S
C428 H424 0.929 . S
C428 C430 1.378 . S
C428 C432 1.350 . S
C429 C432 1.463 . S
C429 C434 1.350 . S
C429 N437 1.427 . S
C430 H421 0.930 . S
C430 C428 1.378 . S
C430 C431 1.367 . S
C431 C430 1.367 . S
C431 C433 1.433 . S
C432 C428 1.350 . S
C432 C429 1.463 . S
C432 N436 1.427 . S
C433 H423 0.929 . S
C433 C431 1.433 . S
C433 N436 1.384 . S
C434 H425 0.929 . S
C434 C426 1.378 . S
C434 C429 1.350 . S
C435 H422 0.929 . S
C435 C427 1.433 . S
C435 N437 1.384 . S
N436 C432 1.427 . S
N436 C433 1.384 . S
N437 C429 1.427 . S
N437 C435 1.384 . S
H438 C444 0.930 . S
H439 C448 0.930 . S
H440 C453 0.929 . S
H441 C451 0.929 . S
H442 C446 0.929 . S
H443 C452 0.929 . S
C444 H438 0.930 . S
C444 C445 1.367 . S
C444 C452 1.378 . S
C445 C444 1.367 . S
C445 C453 1.433 . S
C446 H442 0.929 . S
C446 C448 1.378 . S
C446 C450 1.350 . S
C447 C450 1.463 . S
C447 C452 1.350 . S
C447 N455 1.427 . S
C448 H439 0.930 . S
C448 C446 1.378 . S
C448 C449 1.367 . S
C449 C448 1.367 . S
C449 C451 1.433 . S
C450 C446 1.350 . S
C450 C447 1.463 . S
C450 N454 1.427 . S
C451 H441 0.929 . S
C451 C449 1.433 . S
C451 N454 1.384 . S
C452 H443 0.929 . S
C452 C444 1.378 . S
C452 C447 1.350 . S
C453 H440 0.929 . S
C453 C445 1.433 . S
C453 N455 1.384 . S
N454 C450 1.427 . S
N454 C451 1.384 . S
N455 C447 1.427 . S
N455 C453 1.384 . S
H456 C462 0.930 1_455 S
H457 C466 0.930 1_545 S
H458 C471 0.929 . S
H459 C469 0.929 . S
H460 C464 0.929 . S
H461 C470 0.929 1_455 S
C462 H456 0.930 1_655 S
C462 C463 1.367 . S
C462 C470 1.378 . S
C463 C462 1.367 . S
C463 C471 1.433 . S
C464 H460 0.929 . S
C464 C466 1.378 . S
C464 C468 1.350 . S
C465 C468 1.463 . S
C465 C470 1.350 . S
C465 N473 1.427 . S
C466 H457 0.930 1_565 S
C466 C464 1.378 . S
C466 C467 1.367 . S
C467 C466 1.367 . S
C467 C469 1.433 1_655 S
C468 C464 1.350 . S
C468 C465 1.463 . S
C468 N472 1.427 1_655 S
C469 H459 0.929 . S
C469 C467 1.433 1_455 S
C469 N472 1.384 . S
C470 H461 0.929 1_655 S
C470 C462 1.378 . S
C470 C465 1.350 . S
C471 H458 0.929 . S
C471 C463 1.433 . S
C471 N473 1.384 . S
N472 C468 1.427 1_455 S
N472 C469 1.384 . S
N473 C465 1.427 . S
N473 C471 1.384 . S
H474 C480 0.930 . S
H475 C484 0.930 . S
H476 C489 0.929 . S
H477 C487 0.929 . S
H478 C482 0.929 . S
H479 C488 0.929 . S
C480 H474 0.930 . S
C480 C481 1.367 . S
C480 C488 1.378 . S
C481 C480 1.367 . S
C481 C489 1.433 . S
C482 H478 0.929 . S
C482 C484 1.378 . S
C482 C486 1.350 . S
C483 C486 1.463 . S
C483 C488 1.350 . S
C483 N491 1.427 . S
C484 H475 0.930 . S
C484 C482 1.378 . S
C484 C485 1.367 . S
C485 C484 1.367 . S
C485 C487 1.433 . S
C486 C482 1.350 . S
C486 C483 1.463 . S
C486 N490 1.427 . S
C487 H477 0.929 . S
C487 C485 1.433 . S
C487 N490 1.384 . S
C488 H479 0.929 . S
C488 C480 1.378 . S
C488 C483 1.350 . S
C489 H476 0.929 . S
C489 C481 1.433 . S
C489 N491 1.384 . S
N490 C486 1.427 . S
N490 C487 1.384 . S
N491 C483 1.427 . S
N491 C489 1.384 . S
H492 C498 0.930 . S
H493 C502 0.930 . S
H494 C507 0.929 . S
H495 C505 0.929 . S
H496 C500 0.929 . S
H497 C506 0.929 . S
C498 H492 0.930 . S
C498 C499 1.367 . S
C498 C506 1.378 . S
C499 C498 1.367 . S
C499 C507 1.433 . S
C500 H496 0.929 . S
C500 C502 1.378 . S
C500 C504 1.350 . S
C501 C504 1.463 . S
C501 C506 1.350 . S
C501 N509 1.427 . S
C502 H493 0.930 . S
C502 C500 1.378 . S
C502 C503 1.367 . S
C503 C502 1.367 . S
C503 C505 1.433 . S
C504 C500 1.350 . S
C504 C501 1.463 . S
C504 N508 1.427 . S
C505 H495 0.929 . S
C505 C503 1.433 . S
C505 N508 1.384 . S
C506 H497 0.929 . S
C506 C498 1.378 . S
C506 C501 1.350 . S
C507 H494 0.929 . S
C507 C499 1.433 . S
C507 N509 1.384 . S
N508 C504 1.427 . S
N508 C505 1.384 . S
N509 C501 1.427 . S
N509 C507 1.384 . S
H510 C516 0.930 . S
H511 C520 0.930 . S
H512 C525 0.929 . S
H513 C523 0.929 . S
H514 C518 0.929 . S
H515 C524 0.929 . S
C516 H510 0.930 . S
C516 C517 1.367 . S
C516 C524 1.378 . S
C517 C516 1.367 . S
C517 C525 1.433 . S
C518 H514 0.929 . S
C518 C520 1.378 . S
C518 C522 1.350 . S
C519 C522 1.463 . S
C519 C524 1.350 . S
C519 N527 1.427 . S
C520 H511 0.930 . S
C520 C518 1.378 . S
C520 C521 1.367 . S
C521 C520 1.367 . S
C521 C523 1.433 . S
C522 C518 1.350 . S
C522 C519 1.463 . S
C522 N526 1.427 . S
C523 H513 0.929 . S
C523 C521 1.433 . S
C523 N526 1.384 . S
C524 H515 0.929 . S
C524 C516 1.378 . S
C524 C519 1.350 . S
C525 H512 0.929 . S
C525 C517 1.433 . S
C525 N527 1.384 . S
N526 C522 1.427 . S
N526 C523 1.384 . S
N527 C519 1.427 . S
N527 C525 1.384 . S
H528 C534 0.930 . S
H529 C538 0.930 . S
H530 C543 0.929 . S
H531 C541 0.929 1_554 S
H532 C536 0.929 1_545 S
H533 C542 0.929 . S
C534 H528 0.930 . S
C534 C535 1.367 . S
C534 C542 1.378 . S
C535 C534 1.367 . S
C535 C543 1.433 . S
C536 H532 0.929 1_565 S
C536 C538 1.378 1_565 S
C536 C540 1.350 . S
C537 C540 1.463 . S
C537 C542 1.350 . S
C537 N545 1.427 . S
C538 H529 0.930 . S
C538 C536 1.378 1_545 S
C538 C539 1.367 1_545 S
C539 C538 1.367 1_565 S
C539 C541 1.433 . S
C540 C536 1.350 . S
C540 C537 1.463 . S
C540 N544 1.427 . S
C541 H531 0.929 1_556 S
C541 C539 1.433 . S
C541 N544 1.384 . S
C542 H533 0.929 . S
C542 C534 1.378 . S
C542 C537 1.350 . S
C543 H530 0.929 . S
C543 C535 1.433 . S
C543 N545 1.384 . S
N544 C540 1.427 . S
N544 C541 1.384 . S
N545 C537 1.427 . S
N545 C543 1.384 . S
H546 C552 0.930 . S
H547 C556 0.930 . S
H548 C561 0.929 . S
H549 C559 0.929 . S
H550 C554 0.929 . S
H551 C560 0.929 . S
C552 H546 0.930 . S
C552 C553 1.367 . S
C552 C560 1.378 . S
C553 C552 1.367 . S
C553 C561 1.433 . S
C554 H550 0.929 . S
C554 C556 1.378 . S
C554 C558 1.350 . S
C555 C558 1.463 . S
C555 C560 1.350 . S
C555 N563 1.427 . S
C556 H547 0.930 . S
C556 C554 1.378 . S
C556 C557 1.367 . S
C557 C556 1.367 . S
C557 C559 1.433 . S
C558 C554 1.350 . S
C558 C555 1.463 . S
C558 N562 1.427 . S
C559 H549 0.929 . S
C559 C557 1.433 . S
C559 N562 1.384 . S
C560 H551 0.929 . S
C560 C552 1.378 . S
C560 C555 1.350 . S
C561 H548 0.929 . S
C561 C553 1.433 . S
C561 N563 1.384 . S
N562 C558 1.427 . S
N562 C559 1.384 . S
N563 C555 1.427 . S
N563 C561 1.384 . S
H564 C570 0.930 . S
H565 C574 0.930 . S
H566 C579 0.929 . S
H567 C577 0.929 . S
H568 C572 0.929 . S
H569 C578 0.929 . S
C570 H564 0.930 . S
C570 C571 1.367 . S
C570 C578 1.378 . S
C571 C570 1.367 . S
C571 C579 1.433 . S
C572 H568 0.929 . S
C572 C574 1.378 . S
C572 C576 1.350 . S
C573 C576 1.463 . S
C573 C578 1.350 . S
C573 N581 1.427 . S
C574 H565 0.930 . S
C574 C572 1.378 . S
C574 C575 1.367 . S
C575 C574 1.367 . S
C575 C577 1.433 . S
C576 C572 1.350 . S
C576 C573 1.463 . S
C576 N580 1.427 . S
C577 H567 0.929 . S
C577 C575 1.433 . S
C577 N580 1.384 . S
C578 H569 0.929 . S
C578 C570 1.378 . S
C578 C573 1.350 . S
C579 H566 0.929 . S
C579 C571 1.433 . S
C579 N581 1.384 . S
N580 C576 1.427 . S
N580 C577 1.384 . S
N581 C573 1.427 . S
N581 C579 1.384 . S
H582 C588 0.930 . S
H583 C592 0.930 . S
H584 C597 0.929 . S
H585 C595 0.929 . S
H586 C590 0.929 . S
H587 C596 0.929 . S
C588 H582 0.930 . S
C588 C589 1.367 . S
C588 C596 1.378 . S
C589 C588 1.367 . S
C589 C597 1.433 . S
C590 H586 0.929 . S
C590 C592 1.378 . S
C590 C594 1.350 . S
C591 C594 1.463 . S
C591 C596 1.350 . S
C591 N599 1.427 . S
C592 H583 0.930 . S
C592 C590 1.378 . S
C592 C593 1.367 . S
C593 C592 1.367 . S
C593 C595 1.433 . S
C594 C590 1.350 . S
C594 C591 1.463 . S
C594 N598 1.427 . S
C595 H585 0.929 . S
C595 C593 1.433 . S
C595 N598 1.384 . S
C596 H587 0.929 . S
C596 C588 1.378 . S
C596 C591 1.350 . S
C597 H584 0.929 . S
C597 C589 1.433 . S
C597 N599 1.384 . S
N598 C594 1.427 . S
N598 C595 1.384 . S
N599 C591 1.427 . S
N599 C597 1.384 . S
H600 C606 0.930 1_554 S
H601 C610 0.930 . S
H602 C615 0.929 . S
H603 C613 0.929 1_655 S
H604 C608 0.929 . S
H605 C614 0.929 1_554 S
C606 H600 0.930 1_556 S
C606 C607 1.367 . S
C606 C614 1.378 . S
C607 C606 1.367 . S
C607 C615 1.433 . S
C608 H604 0.929 . S
C608 C610 1.378 . S
C608 C612 1.350 . S
C609 C612 1.463 1_655 S
C609 C614 1.350 . S
C609 N617 1.423 1_655 S
C610 H601 0.930 . S
C610 C608 1.378 . S
C610 C611 1.367 . S
C611 C610 1.367 . S
C611 C613 1.433 1_556 S
C612 C608 1.350 . S
C612 C609 1.463 1_455 S
C612 N616 1.427 1_456 S
C613 H603 0.929 1_455 S
C613 C611 1.433 1_554 S
C613 N616 1.384 1_455 S
C614 H605 0.929 1_556 S
C614 C606 1.378 . S
C614 C609 1.350 . S
C615 H602 0.929 . S
C615 C607 1.433 . S
C615 N617 1.378 1_655 S
N616 C612 1.427 1_654 S
N616 C613 1.384 1_655 S
N617 C609 1.423 1_455 S
N617 C615 1.378 1_455 S
H618 C624 0.930 . S
H619 C628 0.930 . S
H620 C633 0.929 . S
H621 C631 0.929 . S
H622 C626 0.929 . S
H623 C632 0.929 . S
C624 H618 0.930 . S
C624 C625 1.367 . S
C624 C632 1.378 . S
C625 C624 1.367 . S
C625 C633 1.433 . S
C626 H622 0.929 . S
C626 C628 1.378 . S
C626 C630 1.350 . S
C627 C630 1.463 . S
C627 C632 1.350 . S
C627 N635 1.427 . S
C628 H619 0.930 . S
C628 C626 1.378 . S
C628 C629 1.367 . S
C629 C628 1.367 . S
C629 C631 1.433 . S
C630 C626 1.350 . S
C630 C627 1.463 . S
C630 N634 1.427 . S
C631 H621 0.929 . S
C631 C629 1.433 . S
C631 N634 1.384 . S
C632 H623 0.929 . S
C632 C624 1.378 . S
C632 C627 1.350 . S
C633 H620 0.929 . S
C633 C625 1.433 . S
C633 N635 1.384 . S
N634 C630 1.427 . S
N634 C631 1.384 . S
N635 C627 1.427 . S
N635 C633 1.384 . S
H636 C642 0.930 . S
H637 C646 0.930 . S
H638 C651 0.929 . S
H639 C649 0.929 . S
H640 C644 0.929 . S
H641 C650 0.929 . S
C642 H636 0.930 . S
C642 C643 1.367 . S
C642 C650 1.378 . S
C643 C642 1.367 . S
C643 C651 1.433 . S
C644 H640 0.929 . S
C644 C646 1.378 . S
C644 C648 1.350 . S
C645 C648 1.463 . S
C645 C650 1.350 . S
C645 N653 1.427 . S
C646 H637 0.930 . S
C646 C644 1.378 . S
C646 C647 1.367 . S
C647 C646 1.367 . S
C647 C649 1.433 . S
C648 C644 1.350 . S
C648 C645 1.463 . S
C648 N652 1.427 . S
C649 H639 0.929 . S
C649 C647 1.433 . S
C649 N652 1.384 . S
C650 H641 0.929 . S
C650 C642 1.378 . S
C650 C645 1.350 . S
C651 H638 0.929 . S
C651 C643 1.433 . S
C651 N653 1.384 . S
N652 C648 1.427 . S
N652 C649 1.384 . S
N653 C645 1.427 . S
N653 C651 1.384 . S
H654 C660 0.930 . S
H655 C664 0.930 . S
H656 C669 0.929 . S
H657 C667 0.929 . S
H658 C662 0.929 . S
H659 C668 0.929 . S
C660 H654 0.930 . S
C660 C661 1.367 . S
C660 C668 1.378 . S
C661 C660 1.367 . S
C661 C669 1.433 . S
C662 H658 0.929 . S
C662 C664 1.378 . S
C662 C666 1.350 . S
C663 C666 1.463 . S
C663 C668 1.350 . S
C663 N671 1.427 . S
C664 H655 0.930 . S
C664 C662 1.378 . S
C664 C665 1.367 . S
C665 C664 1.367 . S
C665 C667 1.433 . S
C666 C662 1.350 . S
C666 C663 1.463 . S
C666 N670 1.427 . S
C667 H657 0.929 . S
C667 C665 1.433 . S
C667 N670 1.384 . S
C668 H659 0.929 . S
C668 C660 1.378 . S
C668 C663 1.350 . S
C669 H656 0.929 . S
C669 C661 1.433 . S
C669 N671 1.384 . S
N670 C666 1.427 . S
N670 C667 1.384 . S
N671 C663 1.427 . S
N671 C669 1.384 . S
C247 C9 2.754 . S
C251 C104 2.765 . S
C265 C21 2.236 . S
C269 C146 2.237 1_565 S
C287 C176 0.735 . S
C283 C30 0.746 . S
C301 C43 0.781 . S
C305 C210 0.807 . S
C323 C167 1.762 . S
C319 C4 1.746 . S
C341 C121 2.328 1_565 S
C337 C22 2.321 . S
C359 C214 0.957 . S
C355 C34 0.943 . S
C377 C180 1.170 . S
C373 C48 1.155 . S
C391 C8 2.279 . S
C395 C235 2.292 . S
C413 C142 1.172 . S
C409 C35 1.171 . S
C427 C47 1.150 . S
C431 C117 1.162 . S
C445 C17 1.932 . S
C449 C201 1.960 . S
C467 C133 2.339 1_665 S
C463 C60 2.327 . S
C481 C74 2.554 . S
C485 C155 2.568 . S
C499 C82 0.625 . S
C503 C185 0.645 . S
C517 C100 1.249 . S
C521 C219 1.266 . S
C535 C61 2.158 . S
C539 C138 2.175 1_556 S
C557 C112 1.938 . S
C553 C73 1.921 . S
C575 C223 1.445 . S
C571 C87 1.448 . S
C593 C189 0.860 . S
C589 C95 0.849 . S
C607 C56 2.200 . S
C611 C206 2.314 1_556 S
C629 C151 1.201 . S
C625 C86 1.184 . S
C647 C108 1.057 . S
C643 C99 1.052 . S
C661 C69 2.062 . S
C665 C172 2.079 . S
