# Generated by pormake.
# Topology eea, (3,6)-cn, num edge types: 1
# Building blocks:
#     Node 0, Type 0, BuildingBlock: BETDIP_clean_linker_0, # of connection points: 3
#     Node 1, Type 0, BuildingBlock: BETDIP_clean_linker_0, # of connection points: 3
#     Node 2, Type 0, BuildingBlock: BETDIP_clean_linker_0, # of connection points: 3
#     Node 3, Type 0, BuildingBlock: BETDIP_clean_linker_0, # of connection points: 3
#     Node 4, Type 0, BuildingBlock: BETDIP_clean_linker_0, # of connection points: 3
#     Node 5, Type 0, BuildingBlock: BETDIP_clean_linker_0, # of connection points: 3
#     Node 6, Type 0, BuildingBlock: BETDIP_clean_linker_0, # of connection points: 3
#     Node 7, Type 0, BuildingBlock: BETDIP_clean_linker_0, # of connection points: 3
#     Node 8, Type 0, BuildingBlock: BETDIP_clean_linker_0, # of connection points: 3
#     Node 9, Type 0, BuildingBlock: BETDIP_clean_linker_0, # of connection points: 3
#     Node 10, Type 0, BuildingBlock: BETDIP_clean_linker_0, # of connection points: 3
#     Node 11, Type 0, BuildingBlock: BETDIP_clean_linker_0, # of connection points: 3
#     Node 12, Type 0, BuildingBlock: BETDIP_clean_linker_0, # of connection points: 3
#     Node 13, Type 0, BuildingBlock: BETDIP_clean_linker_0, # of connection points: 3
#     Node 14, Type 0, BuildingBlock: BETDIP_clean_linker_0, # of connection points: 3
#     Node 15, Type 0, BuildingBlock: BETDIP_clean_linker_0, # of connection points: 3
#     Node 16, Type 0, BuildingBlock: BETDIP_clean_linker_0, # of connection points: 3
#     Node 17, Type 0, BuildingBlock: BETDIP_clean_linker_0, # of connection points: 3
#     Node 18, Type 1, BuildingBlock: KUMJIN_clean_sbu_0, # of connection points: 6
#     Node 19, Type 1, BuildingBlock: KUMJIN_clean_sbu_0, # of connection points: 6
#     Node 20, Type 1, BuildingBlock: KUMJIN_clean_sbu_0, # of connection points: 6
#     Node 21, Type 1, BuildingBlock: KUMJIN_clean_sbu_0, # of connection points: 6
#     Node 22, Type 1, BuildingBlock: KUMJIN_clean_sbu_0, # of connection points: 6
#     Node 23, Type 1, BuildingBlock: KUMJIN_clean_sbu_0, # of connection points: 6
#     Node 24, Type 1, BuildingBlock: KUMJIN_clean_sbu_0, # of connection points: 6
#     Node 25, Type 1, BuildingBlock: KUMJIN_clean_sbu_0, # of connection points: 6
#     Node 26, Type 1, BuildingBlock: KUMJIN_clean_sbu_0, # of connection points: 6
#     Edge 27, Type (0, 1), BuildingBlock: EZIPEK_clean_linker_0, # of connection points: 2
#     Edge 28, Type (0, 1), BuildingBlock: EZIPEK_clean_linker_0, # of connection points: 2
#     Edge 29, Type (0, 1), BuildingBlock: EZIPEK_clean_linker_0, # of connection points: 2
#     Edge 30, Type (0, 1), BuildingBlock: EZIPEK_clean_linker_0, # of connection points: 2
#     Edge 31, Type (0, 1), BuildingBlock: EZIPEK_clean_linker_0, # of connection points: 2
#     Edge 32, Type (0, 1), BuildingBlock: EZIPEK_clean_linker_0, # of connection points: 2
#     Edge 33, Type (0, 1), BuildingBlock: EZIPEK_clean_linker_0, # of connection points: 2
#     Edge 34, Type (0, 1), BuildingBlock: EZIPEK_clean_linker_0, # of connection points: 2
#     Edge 35, Type (0, 1), BuildingBlock: EZIPEK_clean_linker_0, # of connection points: 2
#     Edge 36, Type (0, 1), BuildingBlock: EZIPEK_clean_linker_0, # of connection points: 2
#     Edge 37, Type (0, 1), BuildingBlock: EZIPEK_clean_linker_0, # of connection points: 2
#     Edge 38, Type (0, 1), BuildingBlock: EZIPEK_clean_linker_0, # of connection points: 2
#     Edge 39, Type (0, 1), BuildingBlock: EZIPEK_clean_linker_0, # of connection points: 2
#     Edge 40, Type (0, 1), BuildingBlock: EZIPEK_clean_linker_0, # of connection points: 2
#     Edge 41, Type (0, 1), BuildingBlock: EZIPEK_clean_linker_0, # of connection points: 2
#     Edge 42, Type (0, 1), BuildingBlock: EZIPEK_clean_linker_0, # of connection points: 2
#     Edge 43, Type (0, 1), BuildingBlock: EZIPEK_clean_linker_0, # of connection points: 2
#     Edge 44, Type (0, 1), BuildingBlock: EZIPEK_clean_linker_0, # of connection points: 2
#     Edge 45, Type (0, 1), BuildingBlock: EZIPEK_clean_linker_0, # of connection points: 2
#     Edge 46, Type (0, 1), BuildingBlock: EZIPEK_clean_linker_0, # of connection points: 2
#     Edge 47, Type (0, 1), BuildingBlock: EZIPEK_clean_linker_0, # of connection points: 2
#     Edge 48, Type (0, 1), BuildingBlock: EZIPEK_clean_linker_0, # of connection points: 2
#     Edge 49, Type (0, 1), BuildingBlock: EZIPEK_clean_linker_0, # of connection points: 2
#     Edge 50, Type (0, 1), BuildingBlock: EZIPEK_clean_linker_0, # of connection points: 2
#     Edge 51, Type (0, 1), BuildingBlock: EZIPEK_clean_linker_0, # of connection points: 2
#     Edge 52, Type (0, 1), BuildingBlock: EZIPEK_clean_linker_0, # of connection points: 2
#     Edge 53, Type (0, 1), BuildingBlock: EZIPEK_clean_linker_0, # of connection points: 2
#     Edge 54, Type (0, 1), BuildingBlock: EZIPEK_clean_linker_0, # of connection points: 2
#     Edge 55, Type (0, 1), BuildingBlock: EZIPEK_clean_linker_0, # of connection points: 2
#     Edge 56, Type (0, 1), BuildingBlock: EZIPEK_clean_linker_0, # of connection points: 2
#     Edge 57, Type (0, 1), BuildingBlock: EZIPEK_clean_linker_0, # of connection points: 2
#     Edge 58, Type (0, 1), BuildingBlock: EZIPEK_clean_linker_0, # of connection points: 2
#     Edge 59, Type (0, 1), BuildingBlock: EZIPEK_clean_linker_0, # of connection points: 2
#     Edge 60, Type (0, 1), BuildingBlock: EZIPEK_clean_linker_0, # of connection points: 2
#     Edge 61, Type (0, 1), BuildingBlock: EZIPEK_clean_linker_0, # of connection points: 2
#     Edge 62, Type (0, 1), BuildingBlock: EZIPEK_clean_linker_0, # of connection points: 2
#     Edge 63, Type (0, 1), BuildingBlock: EZIPEK_clean_linker_0, # of connection points: 2
#     Edge 64, Type (0, 1), BuildingBlock: EZIPEK_clean_linker_0, # of connection points: 2
#     Edge 65, Type (0, 1), BuildingBlock: EZIPEK_clean_linker_0, # of connection points: 2
#     Edge 66, Type (0, 1), BuildingBlock: EZIPEK_clean_linker_0, # of connection points: 2
#     Edge 67, Type (0, 1), BuildingBlock: EZIPEK_clean_linker_0, # of connection points: 2
#     Edge 68, Type (0, 1), BuildingBlock: EZIPEK_clean_linker_0, # of connection points: 2
#     Edge 69, Type (0, 1), BuildingBlock: EZIPEK_clean_linker_0, # of connection points: 2
#     Edge 70, Type (0, 1), BuildingBlock: EZIPEK_clean_linker_0, # of connection points: 2
#     Edge 71, Type (0, 1), BuildingBlock: EZIPEK_clean_linker_0, # of connection points: 2
#     Edge 72, Type (0, 1), BuildingBlock: EZIPEK_clean_linker_0, # of connection points: 2
#     Edge 73, Type (0, 1), BuildingBlock: EZIPEK_clean_linker_0, # of connection points: 2
#     Edge 74, Type (0, 1), BuildingBlock: EZIPEK_clean_linker_0, # of connection points: 2
#     Edge 75, Type (0, 1), BuildingBlock: EZIPEK_clean_linker_0, # of connection points: 2
#     Edge 76, Type (0, 1), BuildingBlock: EZIPEK_clean_linker_0, # of connection points: 2
#     Edge 77, Type (0, 1), BuildingBlock: EZIPEK_clean_linker_0, # of connection points: 2
#     Edge 78, Type (0, 1), BuildingBlock: EZIPEK_clean_linker_0, # of connection points: 2
#     Edge 79, Type (0, 1), BuildingBlock: EZIPEK_clean_linker_0, # of connection points: 2
#     Edge 80, Type (0, 1), BuildingBlock: EZIPEK_clean_linker_0, # of connection points: 2
# Relax obj value: 0.026
# Max RMSD: 0.187
# Mean RMSD: 0.132
data_MOF--net-eea--node1-KUMJIN_clean_sbu_0--node2-BETDIP_clean_linker_0--edge1-EZIPEK_clean_linker_0
_symmetry_space_group_name_H-M    P1
_symmetry_Int_Tables_number       1
_symmetry_cell_setting            triclinic
loop_
_symmetry_equiv_pos_as_xyz
'x, y, z'
_cell_length_a     39.5695
_cell_length_b     40.92361
_cell_length_c     52.456359
_cell_angle_alpha  90.140357
_cell_angle_beta   89.912209
_cell_angle_gamma 120.13221
loop_
_atom_site_label
_atom_site_type_symbol
_atom_site_fract_x
_atom_site_fract_y
_atom_site_fract_z
_atom_type_partial_charge
H0 H 0.21166 0.09724 0.3651 0.0
H1 H 0.23663 0.15681 0.43681 0.0
H2 H 0.24682 0.05788 0.4303 0.0
H3 H 0.24505 0.20446 0.41265 0.0
C4 C 0.22489 0.19221 0.39682 0.0
C5 C 0.2197 0.09983 0.38506 0.0
C6 C 0.22782 0.07343 0.39619 0.0
C7 C 0.22235 0.12984 0.3995 0.0
C8 C 0.23396 0.13373 0.42524 0.0
C9 C 0.24336 0.10811 0.43617 0.0
C10 C 0.23918 0.07748 0.42184 0.0
N11 N 0.21323 0.1555 0.38752 0.0
H12 H 0.92405 0.11777 0.36449 0.0
H13 H 0.8655 0.07135 0.43593 0.0
H14 H 0.94711 0.19018 0.42944 0.0
H15 H 0.8169 0.03001 0.40905 0.0
C16 C 0.83316 0.02456 0.39461 0.0
C17 C 0.91854 0.12153 0.38422 0.0
C18 C 0.93931 0.15752 0.39553 0.0
C19 C 0.89097 0.09032 0.39837 0.0
C20 C 0.88524 0.09524 0.42433 0.0
C21 C 0.90471 0.13143 0.43542 0.0
C22 C 0.93149 0.1623 0.42083 0.0
N23 N 0.86994 0.05444 0.38611 0.0
H24 H 0.89364 0.80661 0.36253 0.0
H25 H 0.93971 0.78463 0.43088 0.0
H26 H 0.81933 0.75554 0.42758 0.0
H27 H 0.99795 0.83123 0.41368 0.0
C28 C 0.99412 0.82117 0.39413 0.0
C29 C 0.88967 0.79608 0.38188 0.0
C30 C 0.85296 0.78177 0.39382 0.0
C31 C 0.92143 0.79725 0.39497 0.0
C32 C 0.91592 0.78418 0.42044 0.0
C33 C 0.87889 0.76823 0.43218 0.0
C34 C 0.8478 0.76727 0.41862 0.0
N35 N 0.95765 0.80967 0.38177 0.0
H36 H 0.0994 0.20617 0.66518 0.0
H37 H 0.16454 0.22709 0.59506 0.0
H38 H 0.06428 0.24138 0.59793 0.0
H39 H 0.18108 0.18602 0.61279 0.0
C40 C 0.18531 0.1937 0.63285 0.0
C41 C 0.10366 0.21403 0.64523 0.0
C42 C 0.07781 0.22324 0.63307 0.0
C43 C 0.13441 0.21402 0.63165 0.0
C44 C 0.1402 0.22523 0.60571 0.0
C45 C 0.11492 0.2352 0.59351 0.0
C46 C 0.08377 0.23374 0.60729 0.0
N47 N 0.15946 0.20383 0.64486 0.0
H48 H 0.77721 0.88239 0.66804 0.0
H49 H 0.74797 0.91856 0.59847 0.0
H50 H 0.77268 0.82834 0.59659 0.0
H51 H 0.74405 0.95997 0.62151 0.0
C52 C 0.76015 0.96438 0.63907 0.0
C53 C 0.77297 0.88013 0.64756 0.0
C54 C 0.77616 0.85228 0.63394 0.0
C55 C 0.765 0.90561 0.63488 0.0
C56 C 0.75665 0.90098 0.60853 0.0
C57 C 0.75857 0.87257 0.5948 0.0
C58 C 0.7706 0.84993 0.60735 0.0
N59 N 0.76719 0.93621 0.6491 0.0
H60 H 0.11022 0.90686 0.66134 0.0
H61 H 0.06641 0.84019 0.59276 0.0
H62 H 0.17893 0.94053 0.59258 0.0
H63 H 0.03416 0.79338 0.62202 0.0
C64 C 0.02462 0.80703 0.63571 0.0
C65 C 0.11381 0.90221 0.64141 0.0
C66 C 0.14788 0.92811 0.62836 0.0
C67 C 0.08423 0.87039 0.62882 0.0
C68 C 0.08905 0.86423 0.60296 0.0
C69 C 0.12375 0.88881 0.59015 0.0
C70 C 0.15241 0.92114 0.6027 0.0
N71 N 0.04962 0.84555 0.64238 0.0
H72 H 0.88157 0.42781 0.69712 0.0
H73 H 0.90069 0.49261 0.76596 0.0
H74 H 0.91554 0.39586 0.76631 0.0
H75 H 0.91652 0.53972 0.73719 0.0
C76 C 0.89441 0.52536 0.72262 0.0
C77 C 0.88926 0.43255 0.71715 0.0
C78 C 0.89719 0.40753 0.73044 0.0
C79 C 0.89069 0.46341 0.72968 0.0
C80 C 0.90034 0.46941 0.75577 0.0
C81 C 0.91085 0.44595 0.76877 0.0
C82 C 0.90832 0.41461 0.75614 0.0
N83 N 0.88159 0.48749 0.71564 0.0
H84 H 0.58536 0.46294 0.6975 0.0
H85 H 0.52279 0.41417 0.76745 0.0
H86 H 0.61148 0.53108 0.76519 0.0
H87 H 0.47594 0.37465 0.74129 0.0
C88 C 0.49076 0.37022 0.7254 0.0
C89 C 0.57958 0.46583 0.71733 0.0
C90 C 0.60193 0.50075 0.72982 0.0
C91 C 0.55009 0.43451 0.7304 0.0
C92 C 0.5439 0.43817 0.7565 0.0
C93 C 0.56534 0.47312 0.7689 0.0
C94 C 0.59425 0.50427 0.75547 0.0
N95 N 0.52798 0.39958 0.71712 0.0
H96 H 0.56058 0.13537 0.69455 0.0
H97 H 0.60481 0.11565 0.76463 0.0
H98 H 0.48529 0.08895 0.75965 0.0
H99 H 0.66348 0.15544 0.7472 0.0
C100 C 0.66005 0.14892 0.72696 0.0
C101 C 0.55625 0.12597 0.71419 0.0
C102 C 0.51958 0.11309 0.72579 0.0
C103 C 0.58762 0.12754 0.72794 0.0
C104 C 0.5815 0.11531 0.75368 0.0
C105 C 0.54428 0.10046 0.76513 0.0
C106 C 0.51383 0.09982 0.75096 0.0
N107 N 0.62399 0.13983 0.71496 0.0
H108 H 0.76191 0.53613 0.99668 0.0
H109 H 0.82227 0.54844 0.92563 0.0
H110 H 0.72906 0.57302 0.92923 0.0
H111 H 0.86953 0.55229 0.95002 0.0
C112 C 0.8563 0.53594 0.96711 0.0
C113 C 0.76634 0.54381 0.97669 0.0
C114 C 0.74105 0.55358 0.96435 0.0
C115 C 0.79615 0.54219 0.96315 0.0
C116 C 0.80075 0.55095 0.93686 0.0
C117 C 0.77774 0.56368 0.92474 0.0
C118 C 0.74782 0.56455 0.93865 0.0
N119 N 0.82001 0.53063 0.97634 0.0
H120 H 0.45346 0.22083 0.99758 0.0
H121 H 0.43303 0.2621 0.92703 0.0
H122 H 0.4301 0.15607 0.92862 0.0
H123 H 0.42032 0.2979 0.95303 0.0
C124 C 0.43906 0.3037 0.9695 0.0
C125 C 0.44757 0.21765 0.97728 0.0
C126 C 0.4431 0.18569 0.96453 0.0
C127 C 0.44429 0.24551 0.96405 0.0
C128 C 0.43587 0.24106 0.93772 0.0
C129 C 0.42988 0.20831 0.92512 0.0
C130 C 0.4347 0.18138 0.9384 0.0
N131 N 0.45031 0.27773 0.97787 0.0
H132 H 0.77681 0.23418 0.9963 0.0
H133 H 0.74828 0.17018 0.92665 0.0
H134 H 0.8451 0.28427 0.92883 0.0
H135 H 0.6856 0.17335 0.944 0.0
C136 C 0.68596 0.16032 0.96198 0.0
C137 C 0.78235 0.23236 0.97625 0.0
C138 C 0.81411 0.26268 0.96415 0.0
C139 C 0.75732 0.19992 0.96229 0.0
C140 C 0.76623 0.19646 0.93677 0.0
C141 C 0.79849 0.22661 0.92454 0.0
C142 C 0.82046 0.26054 0.93804 0.0
N143 N 0.72242 0.17158 0.97375 0.0
H144 H 0.55321 0.76723 0.02909 0.0
H145 H 0.57052 0.83109 0.09806 0.0
H146 H 0.58557 0.73432 0.09847 0.0
H147 H 0.59088 0.87914 0.06836 0.0
C148 C 0.56881 0.86552 0.05366 0.0
C149 C 0.56027 0.77163 0.04922 0.0
C150 C 0.56813 0.7466 0.06253 0.0
C151 C 0.56153 0.80234 0.06173 0.0
C152 C 0.57027 0.80789 0.08794 0.0
C153 C 0.5804 0.7842 0.10104 0.0
C154 C 0.57843 0.75316 0.08834 0.0
N155 N 0.55363 0.82701 0.04744 0.0
H156 H 0.24167 0.79 0.02949 0.0
H157 H 0.18418 0.753 0.10128 0.0
H158 H 0.29364 0.85685 0.09605 0.0
H159 H 0.15318 0.69753 0.08575 0.0
C160 C 0.15469 0.69849 0.06513 0.0
C161 C 0.2412 0.79383 0.04992 0.0
C162 C 0.27136 0.82621 0.06156 0.0
C163 C 0.21099 0.76592 0.06458 0.0
C164 C 0.2102 0.77176 0.09103 0.0
C165 C 0.24155 0.80266 0.10372 0.0
C166 C 0.27101 0.83057 0.0881 0.0
N167 N 0.18265 0.73193 0.05229 0.0
H168 H 0.22432 0.47005 0.03162 0.0
H169 H 0.26553 0.44343 0.10018 0.0
H170 H 0.15151 0.43198 0.09842 0.0
H171 H 0.32436 0.49625 0.08402 0.0
C172 C 0.32286 0.48761 0.06425 0.0
C173 C 0.22013 0.46142 0.05142 0.0
C174 C 0.18466 0.45176 0.06368 0.0
C175 C 0.25025 0.46008 0.06471 0.0
C176 C 0.24367 0.44701 0.09018 0.0
C177 C 0.20783 0.43641 0.10232 0.0
C178 C 0.17921 0.44023 0.08919 0.0
N179 N 0.28593 0.46999 0.05174 0.0
H180 H 0.41961 0.85197 0.31954 0.0
H181 H 0.50142 0.89726 0.25709 0.0
H182 H 0.40264 0.91371 0.25936 0.0
H183 H 0.51626 0.85239 0.27136 0.0
C184 C 0.51688 0.85624 0.29188 0.0
C185 C 0.42933 0.86821 0.30208 0.0
C186 C 0.40691 0.88269 0.29118 0.0
C187 C 0.46413 0.8741 0.2905 0.0
C188 C 0.47533 0.89297 0.26674 0.0
C189 C 0.45245 0.90638 0.25524 0.0
C190 C 0.41972 0.90275 0.26815 0.0
N191 N 0.48733 0.8615 0.30352 0.0
H192 H 0.12454 0.55623 0.3289 0.0
H193 H 0.10408 0.59627 0.25773 0.0
H194 H 0.10049 0.49012 0.26049 0.0
H195 H 0.09913 0.63785 0.28119 0.0
C196 C 0.11432 0.64119 0.29903 0.0
C197 C 0.1184 0.55263 0.30863 0.0
C198 C 0.11373 0.52036 0.2962 0.0
C199 C 0.11526 0.58038 0.29506 0.0
C200 C 0.10673 0.57542 0.26877 0.0
C201 C 0.10083 0.54257 0.25647 0.0
C202 C 0.10515 0.51558 0.27008 0.0
N203 N 0.12168 0.61302 0.30853 0.0
H204 H 0.4379 0.57691 0.32438 0.0
H205 H 0.40393 0.51203 0.25463 0.0
H206 H 0.52016 0.60649 0.26298 0.0
H207 H 0.3583 0.46651 0.27919 0.0
C208 C 0.35154 0.47993 0.29465 0.0
C209 C 0.44487 0.57166 0.30536 0.0
C210 C 0.48214 0.59572 0.29511 0.0
C211 C 0.41651 0.54086 0.29124 0.0
C212 C 0.4256 0.53469 0.26629 0.0
C213 C 0.4633 0.55785 0.25624 0.0
C214 C 0.49119 0.58833 0.27074 0.0
N215 N 0.37921 0.51732 0.30261 0.0
Eu216 Eu 0.46169 0.98743 0.97913 0.0
C217 C 0.54109 0.08921 0.07858 0.0
C218 C 0.6032 0.09099 0.08167 0.0
C219 C 0.5936 0.13726 0.10461 0.0
C220 C 0.56436 0.07365 0.07249 0.0
C221 C 0.55573 0.1213 0.09462 0.0
C222 C 0.61727 0.12219 0.09814 0.0
C223 C 0.49456 0.12015 0.08983 0.0
N224 N 0.505 0.07422 0.06792 0.0
C225 C 0.48119 0.08842 0.07417 0.0
C226 C 0.53204 0.13677 0.10003 0.0
Eu227 Eu 0.48203 0.01591 0.0461 0.0
N228 N 0.55062 0.0444 0.05549 0.0
C229 C 0.57549 0.03294 0.04619 0.0
C230 C 0.62757 0.07774 0.07313 0.0
C231 C 0.61383 0.04905 0.05503 0.0
H232 H 0.4514 0.07507 0.06743 0.0
H233 H 0.63296 0.0395 0.04761 0.0
H234 H 0.64686 0.13554 0.10544 0.0
H235 H 0.47568 0.13143 0.09432 0.0
H236 H 0.56695 0.01196 0.03145 0.0
H237 H 0.3121 0.95927 0.99257 0.0
H238 H 0.65752 0.09044 0.07968 0.0
H239 H 0.49264 0.93244 0.95264 0.0
H240 H 0.38355 0.99423 0.99747 0.0
H241 H 0.4651 0.86942 0.9328 0.0
H242 H 0.60516 0.16177 0.117 0.0
H243 H 0.27942 0.89605 0.97245 0.0
H244 H 0.28507 0.84367 0.95184 0.0
H245 H 0.54232 0.16138 0.11222 0.0
H246 H 0.3265 0.81887 0.93623 0.0
N247 N 0.39213 0.95316 0.97845 0.0
C248 C 0.37 0.96773 0.98741 0.0
C249 C 0.311 0.91184 0.97393 0.0
C250 C 0.33364 0.89675 0.96502 0.0
C251 C 0.32931 0.94756 0.98515 0.0
C252 C 0.37469 0.91846 0.96746 0.0
H253 H 0.39346 0.82808 0.92926 0.0
N254 N 0.43721 0.92588 0.96192 0.0
C255 C 0.44582 0.8787 0.94033 0.0
C256 C 0.39792 0.90438 0.95897 0.0
C257 C 0.4613 0.9142 0.95183 0.0
C258 C 0.4054 0.85552 0.93829 0.0
C259 C 0.38089 0.86839 0.94739 0.0
O260 O 0.49179 0.99619 0.94254 0.0
O261 O 0.50471 0.03422 1.00561 0.0
O262 O 0.45978 0.05249 0.02687 0.0
O263 O 0.45823 0.04067 0.98323 0.0
O264 O 0.52657 0.01098 0.98032 0.0
O265 O 0.44599 0.0098 0.94587 0.0
O266 O 0.437 0.00784 0.07387 0.0
O267 O 0.43458 0.97948 0.01778 0.0
O268 O 0.48224 0.94989 0.9977 0.0
O269 O 0.50137 0.97332 0.03931 0.0
O270 O 0.43822 0.95446 0.0509 0.0
O271 O 0.48611 0.00038 0.08552 0.0
C272 C 0.53638 0.0386 0.99607 0.0
C273 C 0.46302 -1e-05 0.90373 0.0
C274 C 0.47905 0.01814 0.85884 0.0
C275 C 0.48629 0.02681 0.88503 0.0
C276 C 0.44843 0.98229 0.85171 0.0
C277 C 0.43264 0.96451 0.8961 0.0
C278 C 0.42544 0.95578 0.87019 0.0
C279 C 0.45514 0.05948 1.0027 0.0
C280 C 0.47203 0.00925 0.93098 0.0
C281 C 0.34009 0.8466 0.945 0.0
C282 C 0.31651 0.86074 0.95383 0.0
C283 C 0.419 0.94857 0.03018 0.0
C284 C 0.43795 0.99042 0.11852 0.0
C285 C 0.45388 0.97699 0.13717 0.0
C286 C 0.43779 0.96814 0.16197 0.0
C287 C 0.40608 0.97309 0.16795 0.0
C288 C 0.40611 0.99494 0.12512 0.0
C289 C 0.39041 0.98639 0.14966 0.0
C290 C 0.49761 0.95041 0.0203 0.0
C291 C 0.45392 -0.00031 0.09222 0.0
H292 H 0.51006 0.05423 0.89075 0.0
H293 H 0.44243 0.97479 0.83174 0.0
H294 H 0.4147 0.94354 0.91012 0.0
H295 H 0.40204 0.92825 0.86439 0.0
H296 H 0.47831 0.97311 0.13246 0.0
H297 H 0.39326 0.96639 0.18684 0.0
H298 H 0.39329 0.00518 0.11132 0.0
H299 H 0.36586 0.98997 0.15451 0.0
Eu300 Eu 0.02498 0.48051 0.98078 0.0
C301 C 0.89821 0.44296 0.05993 0.0
C302 C 0.89783 0.50122 0.06697 0.0
C303 C 0.83678 0.44151 0.06771 0.0
C304 C 0.91817 0.48198 0.06104 0.0
C305 C 0.85755 0.42229 0.06461 0.0
C306 C 0.85692 0.481 0.06887 0.0
C307 C 0.86209 0.36585 0.06795 0.0
N308 N 0.91922 0.42523 0.05763 0.0
C309 C 0.90228 0.38757 0.06359 0.0
C310 C 0.83941 0.38313 0.06777 0.0
Eu311 Eu 0.98684 0.46403 0.04716 0.0
N312 N 0.95783 0.5006 0.05993 0.0
C313 C 0.97865 0.53718 0.06845 0.0
C314 C 0.91929 0.5397 0.07284 0.0
C315 C 0.95983 0.55738 0.07451 0.0
H316 H 0.91957 0.37383 0.06356 0.0
H317 H 0.97668 0.58661 0.08048 0.0
H318 H 0.84085 0.49544 0.07287 0.0
H319 H 0.84868 0.33582 0.07146 0.0
H320 H 0.00989 0.55146 0.07083 0.0
H321 H 0.05617 0.36411 0.9826 0.0
H322 H 0.90479 0.5554 0.07765 0.0
H323 H 0.07907 0.56689 0.95615 0.0
H324 H 0.01943 0.39628 0.99147 0.0
H325 H 0.14371 0.60657 0.93628 0.0
H326 H 0.80546 0.4261 0.07079 0.0
H327 H 0.12217 0.39958 0.96369 0.0
H328 H 0.17585 0.46043 0.94589 0.0
H329 H 0.80831 0.36633 0.07142 0.0
H330 H 0.19994 0.52652 0.93365 0.0
N331 N 0.06172 0.44888 0.97585 0.0
C332 C 0.04676 0.41161 0.98168 0.0
C333 C 0.10545 0.41359 0.96685 0.0
C334 C 0.12063 0.45158 0.96052 0.0
C335 C 0.06816 0.39344 0.97731 0.0
C336 C 0.09762 0.4685 0.96509 0.0
H337 H 0.18818 0.58116 0.92997 0.0
N338 N 0.08762 0.52023 0.96237 0.0
C339 C 0.13506 0.57826 0.94256 0.0
C340 C 0.11108 0.50544 0.95822 0.0
C341 C 0.0986 0.5558 0.95401 0.0
C342 C 0.16004 0.56382 0.939 0.0
C343 C 0.14803 0.52685 0.94659 0.0
O344 O 0.01411 0.50134 0.94518 0.0
O345 O 0.97772 0.47612 0.00693 0.0
O346 O 0.94453 0.41417 0.02311 0.0
O347 O 0.97564 0.41943 0.98452 0.0
O348 O 1.0007 0.51984 0.98086 0.0
O349 O 0.99202 0.44154 0.95001 0.0
O350 O 0.98701 0.42879 0.07754 0.0
O351 O 0.03634 0.47236 0.02157 0.0
O352 O 0.06123 0.53706 1.0007 0.0
O353 O 0.03385 0.52587 0.04176 0.0
O354 O 0.01642 0.42907 0.04732 0.0
O355 O 0.0138 0.48971 0.08449 0.0
C356 C 0.97495 0.50383 0.99857 0.0
C357 C 0.00524 0.46537 0.90818 0.0
C358 C 0.98873 0.46112 0.86324 0.0
C359 C 0.98037 0.46439 0.88879 0.0
C360 C 0.02241 0.45941 0.85722 0.0
C361 C 0.03869 0.46346 0.90199 0.0
C362 C 0.04724 0.46059 0.87654 0.0
C363 C 0.94628 0.40086 1.00054 0.0
C364 C 0.9955 0.46806 0.93469 0.0
C365 C 0.17144 0.5105 0.94249 0.0
C366 C 0.15774 0.4729 0.94944 0.0
C367 C 0.0431 0.44751 0.03061 0.0
C368 C 0.01483 0.44949 0.1193 0.0
C369 C 0.03222 0.47847 0.13762 0.0
C370 C 0.04043 0.47032 0.16212 0.0
C371 C 0.03162 0.4335 0.16812 0.0
C372 C 0.00629 0.41272 0.12574 0.0
C373 C 0.0147 0.40488 0.14998 0.0
C374 C 0.05878 0.54815 0.02405 0.0
C375 C 0.00534 0.45666 0.09345 0.0
H376 H 0.95455 0.466 0.89351 0.0
H377 H 0.02942 0.4572 0.83755 0.0
H378 H 0.05802 0.46407 0.91677 0.0
H379 H 0.07313 0.45922 0.87178 0.0
H380 H 0.03896 0.50693 0.13307 0.0
H381 H 0.03773 0.42693 0.18696 0.0
H382 H 0.99304 0.38983 0.11205 0.0
H383 H 0.00793 0.3765 0.15473 0.0
Eu384 Eu 0.55073 0.52946 0.04637 0.0
C385 C 0.46401 0.55293 0.95214 0.0
C386 C 0.40096 0.49519 0.95237 0.0
C387 C 0.40884 0.54998 0.92943 0.0
C388 C 0.44088 0.51531 0.95941 0.0
C389 C 0.44805 0.57048 0.93705 0.0
C390 C 0.38535 0.51251 0.93712 0.0
C391 C 0.51078 0.6277 0.93773 0.0
N392 N 0.50162 0.57272 0.96037 0.0
C393 C 0.52537 0.60936 0.95261 0.0
C394 C 0.4719 0.60825 0.92999 0.0
Eu395 Eu 0.52598 0.53715 0.98108 0.0
N396 N 0.45646 0.49932 0.97475 0.0
C397 C 0.43266 0.46366 0.98424 0.0
C398 C 0.37737 0.45849 0.96144 0.0
C399 C 0.3932 0.4429 0.97766 0.0
H400 H 0.55588 0.62484 0.95789 0.0
H401 H 0.37491 0.41482 0.98532 0.0
H402 H 0.3549 0.4973 0.93148 0.0
H403 H 0.52968 0.65678 0.93205 0.0
H404 H 0.44294 0.45068 0.99752 0.0
H405 H 0.69955 0.64696 0.03159 0.0
H406 H 0.34665 0.4423 0.95653 0.0
H407 H 0.52102 0.44393 0.07164 0.0
H408 H 0.62801 0.61168 0.02687 0.0
H409 H 0.54942 0.40885 0.09191 0.0
H410 H 0.39624 0.56302 0.91781 0.0
H411 H 0.73304 0.61677 0.05227 0.0
H412 H 0.7283 0.55993 0.07374 0.0
H413 H 0.46066 0.62257 0.91841 0.0
H414 H 0.68761 0.49509 0.08969 0.0
N415 N 0.62031 0.56289 0.04615 0.0
C416 C 0.64198 0.59878 0.03696 0.0
C417 C 0.70147 0.60145 0.05072 0.0
C418 C 0.67928 0.56455 0.05992 0.0
C419 C 0.68269 0.61865 0.03918 0.0
C420 C 0.63822 0.54582 0.05738 0.0
H421 H 0.6211 0.43852 0.09631 0.0
N422 N 0.57613 0.49218 0.06308 0.0
C423 C 0.56838 0.43696 0.08451 0.0
C424 C 0.61542 0.50933 0.06612 0.0
C425 C 0.55244 0.45679 0.07275 0.0
C426 C 0.60881 0.45384 0.08704 0.0
C427 C 0.63289 0.49054 0.07796 0.0
O428 O 0.526 0.50936 0.08402 0.0
O429 O 0.50491 0.53307 0.02223 0.0
O430 O 0.54867 0.59565 0.99988 0.0
O431 O 0.55386 0.58615 0.04311 0.0
O432 O 0.48606 0.48883 0.04746 0.0
O433 O 0.56503 0.56902 0.07837 0.0
O434 O 0.56947 0.57259 0.95292 0.0
O435 O 0.57583 0.5479 0.0075 0.0
O436 O 0.52883 0.4716 0.02746 0.0
O437 O 0.50774 0.47593 0.98645 0.0
O438 O 0.57002 0.5185 0.97437 0.0
O439 O 0.51861 0.51845 0.94106 0.0
C440 C 0.4743 0.50641 0.03284 0.0
C441 C 0.55478 0.54543 0.12095 0.0
C442 C 0.53935 0.54665 0.16582 0.0
C443 C 0.52985 0.54566 0.13997 0.0
C444 C 0.57382 0.54685 0.17249 0.0
C445 C 0.58912 0.54571 0.1278 0.0
C446 C 0.59853 0.5464 0.15355 0.0
C447 C 0.55504 0.6076 0.02397 0.0
C448 C 0.54264 0.54269 0.09433 0.0
C449 C 0.6737 0.50904 0.08061 0.0
C450 C 0.69685 0.54596 0.07157 0.0
C451 C 0.59086 0.53211 0.99446 0.0
C452 C 0.56531 0.55702 0.90785 0.0
C453 C 0.55481 0.52771 0.88991 0.0
C454 C 0.5683 0.53642 0.86458 0.0
C455 C 0.59189 0.57431 0.85737 0.0
C456 C 0.58912 0.59472 0.90018 0.0
C457 C 0.60219 0.60324 0.87507 0.0
C458 C 0.51255 0.45692 1.00505 0.0
C459 C 0.55069 0.54908 0.93431 0.0
H460 H 0.50296 0.54491 0.1347 0.0
H461 H 0.58152 0.54733 0.19235 0.0
H462 H 0.60834 0.54509 0.11334 0.0
H463 H 0.62497 0.54644 0.15887 0.0
H464 H 0.53645 0.49846 0.89551 0.0
H465 H 0.60237 0.58146 0.83794 0.0
H466 H 0.5972 0.61772 0.91352 0.0
H467 H 0.62029 0.63238 0.86928 0.0
Eu468 Eu 0.13288 0.32007 0.31575 0.0
C469 C 0.20166 0.42481 0.41568 0.0
C470 C 0.26114 0.42328 0.42397 0.0
C471 C 0.25125 0.47134 0.44404 0.0
C472 C 0.22406 0.40777 0.41224 0.0
C473 C 0.21532 0.45707 0.4314 0.0
C474 C 0.27408 0.45445 0.44036 0.0
C475 C 0.15703 0.45911 0.42102 0.0
N476 N 0.1676 0.41113 0.40257 0.0
C477 C 0.1445 0.42692 0.40589 0.0
C478 C 0.19264 0.47433 0.43379 0.0
Eu479 Eu 0.14486 0.3517 0.3825 0.0
N480 N 0.21183 0.3792 0.39495 0.0
C481 C 0.23649 0.36641 0.38774 0.0
C482 C 0.28522 0.40858 0.41767 0.0
C483 C 0.27311 0.38053 0.39912 0.0
H484 H 0.11571 0.41407 0.39746 0.0
H485 H 0.29216 0.36998 0.39335 0.0
H486 H 0.30232 0.46652 0.44961 0.0
H487 H 0.13879 0.47168 0.42325 0.0
H488 H 0.22897 0.34585 0.37284 0.0
H489 H 0.98118 0.29042 0.31253 0.0
H490 H 0.3139 0.41984 0.42616 0.0
H491 H 0.16875 0.26452 0.29636 0.0
H492 H 0.05028 0.32548 0.32399 0.0
H493 H 0.14497 0.20109 0.27819 0.0
H494 H 0.26205 0.49593 0.45628 0.0
H495 H 0.95318 0.22712 0.29304 0.0
H496 H 0.96311 0.17506 0.27696 0.0
H497 H 0.2022 0.49919 0.44562 0.0
H498 H 0.00727 0.1505 0.26819 0.0
N499 N 0.06377 0.28528 0.30868 0.0
C500 C 0.03969 0.29946 0.31376 0.0
C501 C 0.98418 0.24319 0.29719 0.0
C502 C 0.00858 0.22842 0.29217 0.0
C503 C 0.99988 0.27895 0.308 0.0
C504 C 0.04883 0.2505 0.29801 0.0
H505 H 0.07474 0.15981 0.26876 0.0
N506 N 0.11216 0.25841 0.29917 0.0
C507 C 0.1245 0.21052 0.28261 0.0
C508 C 0.07369 0.23665 0.29314 0.0
C509 C 0.13775 0.24623 0.29331 0.0
C510 C 0.08491 0.1874 0.27719 0.0
C511 C 0.05898 0.2004 0.28224 0.0
O512 O 0.1741 0.33558 0.28448 0.0
O513 O 0.17009 0.36872 0.3427 0.0
O514 O 0.13356 0.39281 0.3594 0.0
O515 O 0.11823 0.36721 0.31838 0.0
O516 O 0.19849 0.3497 0.31985 0.0
O517 O 0.1212 0.33748 0.2783 0.0
O518 O 0.10578 0.34519 0.41357 0.0
O519 O 0.10761 0.30465 0.35541 0.0
O520 O 0.15402 0.28539 0.33666 0.0
O521 O 0.16144 0.30636 0.37895 0.0
O522 O 0.07936 0.32266 0.37968 0.0
O523 O 0.14533 0.32271 0.41828 0.0
C524 C 0.20401 0.37659 0.33528 0.0
C525 C 0.15513 0.33241 0.24139 0.0
C526 C 0.17032 0.35198 0.19671 0.0
C527 C 0.16096 0.35818 0.22163 0.0
C528 C 0.17285 0.31949 0.19183 0.0
C529 C 0.15704 0.29988 0.23562 0.0
C530 C 0.16572 0.29346 0.21105 0.0
C531 C 0.1218 0.39249 0.33557 0.0
C532 C 0.15375 0.34267 0.26831 0.0
C533 C 0.01902 0.17836 0.27654 0.0
C534 C 0.99388 0.19234 0.2815 0.0
C535 C 0.07402 0.29731 0.36306 0.0
C536 C 0.10106 0.31507 0.45435 0.0
C537 C 0.11702 0.30117 0.47272 0.0
C538 C 0.10009 0.29081 0.49738 0.0
C539 C 0.06735 0.29413 0.50322 0.0
C540 C 0.06817 0.31793 0.46104 0.0
C541 C 0.05154 0.30751 0.4852 0.0
C542 C 0.16342 0.28491 0.36077 0.0
C543 C 0.11823 0.32797 0.42846 0.0
H544 H 0.15965 0.38349 0.22577 0.0
H545 H 0.18011 0.31412 0.17294 0.0
H546 H 0.15333 0.28003 0.25022 0.0
H547 H 0.1677 0.26852 0.207 0.0
H548 H 0.14245 0.29889 0.46811 0.0
H549 H 0.054 0.28637 0.52194 0.0
H550 H 0.05515 0.32843 0.44757 0.0
H551 H 0.0263 0.30999 0.49001 0.0
Eu552 Eu 0.69023 0.80757 0.31273 0.0
C553 C 0.56807 0.76738 0.3963 0.0
C554 C 0.55568 0.81957 0.39794 0.0
C555 C 0.503 0.75583 0.40652 0.0
C556 C 0.58108 0.8054 0.3931 0.0
C557 C 0.52926 0.7424 0.40396 0.0
C558 C 0.51622 0.79441 0.40356 0.0
C559 C 0.54687 0.69429 0.41 0.0
N560 N 0.59448 0.75555 0.39438 0.0
C561 C 0.58517 0.72026 0.40271 0.0
C562 C 0.51858 0.70518 0.41012 0.0
Eu563 Eu 0.65772 0.8005 0.37903 0.0
N564 N 0.61959 0.82905 0.38829 0.0
C565 C 0.63537 0.86711 0.39147 0.0
C566 C 0.57124 0.8587 0.39873 0.0
C567 C 0.61147 0.88252 0.39634 0.0
H568 H 0.60697 0.71171 0.4023 0.0
H569 H 0.62415 0.9128 0.39817 0.0
H570 H 0.49618 0.80473 0.4069 0.0
H571 H 0.53919 0.66593 0.41554 0.0
H572 H 0.66645 0.88606 0.39014 0.0
H573 H 0.70726 0.68391 0.29641 0.0
H574 H 0.5528 0.87072 0.40256 0.0
H575 H 0.74903 0.89372 0.28769 0.0
H576 H 0.67131 0.71721 0.30351 0.0
H577 H 0.81828 0.93356 0.27495 0.0
H578 H 0.47291 0.73697 0.41201 0.0
H579 H 0.7792 0.7197 0.29235 0.0
H580 H 0.84062 0.78246 0.28839 0.0
H581 H 0.48902 0.68512 0.41602 0.0
H582 H 0.87115 0.85111 0.28235 0.0
N583 N 0.72208 0.77214 0.30481 0.0
C584 C 0.70261 0.73365 0.30239 0.0
C585 C 0.7635 0.73469 0.29569 0.0
C586 C 0.78303 0.77416 0.29618 0.0
C587 C 0.72294 0.71442 0.29791 0.0
C588 C 0.76108 0.7923 0.30023 0.0
H589 H 0.86274 0.90751 0.2764 0.0
N590 N 0.75492 0.84632 0.29722 0.0
C591 C 0.80745 0.90478 0.28113 0.0
C592 C 0.77812 0.83075 0.29644 0.0
C593 C 0.76829 0.88212 0.28816 0.0
C594 C 0.8325 0.89003 0.28212 0.0
C595 C 0.81769 0.85227 0.28909 0.0
O596 O 0.67954 0.8304 0.27813 0.0
O597 O 0.64585 0.80929 0.33863 0.0
O598 O 0.60898 0.75115 0.35808 0.0
O599 O 0.64066 0.74718 0.32194 0.0
O600 O 0.6697 0.8503 0.31125 0.0
O601 O 0.65916 0.77049 0.28068 0.0
O602 O 0.67208 0.78165 0.4142 0.0
O603 O 0.70296 0.80077 0.35313 0.0
O604 O 0.73725 0.85897 0.33337 0.0
O605 O 0.70241 0.86222 0.36817 0.0
O606 O 0.68151 0.75986 0.38022 0.0
O607 O 0.68602 0.83972 0.41073 0.0
C608 C 0.64377 0.83675 0.32906 0.0
C609 C 0.67341 0.79814 0.23987 0.0
C610 C 0.65826 0.79737 0.19498 0.0
C611 C 0.64859 0.79761 0.22065 0.0
C612 C 0.69334 0.79845 0.1887 0.0
C613 C 0.70836 0.79922 0.23348 0.0
C614 C 0.71827 0.79943 0.2079 0.0
C615 C 0.61008 0.7332 0.33754 0.0
C616 C 0.66233 0.79796 0.26642 0.0
C617 C 0.84055 0.83493 0.28754 0.0
C618 C 0.82319 0.79585 0.29102 0.0
C619 C 0.70762 0.77484 0.36258 0.0
C620 C 0.67045 0.81264 0.45161 0.0
C621 C 0.69664 0.82686 0.4722 0.0
C622 C 0.68261 0.82643 0.4969 0.0
C623 C 0.64227 0.81122 0.50076 0.0
C624 C 0.63031 0.79727 0.45591 0.0
C625 C 0.61631 0.79647 0.48039 0.0
C626 C 0.73309 0.87752 0.35258 0.0
C627 C 0.68515 0.814 0.42576 0.0
H628 H 0.62173 0.79718 0.22559 0.0
H629 H 0.70139 0.79861 0.16893 0.0
H630 H 0.72786 0.7999 0.2482 0.0
H631 H 0.74528 0.80034 0.20294 0.0
H632 H 0.72763 0.83807 0.46908 0.0
H633 H 0.63083 0.81018 0.51971 0.0
H634 H 0.60977 0.78594 0.44041 0.0
H635 H 0.58526 0.78435 0.48359 0.0
Eu636 Eu 0.21768 0.86082 0.38001 0.0
C637 C 0.13787 0.9014 0.29796 0.0
C638 C 0.07182 0.84795 0.2983 0.0
C639 C 0.08283 0.91057 0.2889 0.0
C640 C 0.11241 0.86318 0.30191 0.0
C641 C 0.12331 0.92515 0.29043 0.0
C642 C 0.05712 0.87203 0.29286 0.0
C643 C 0.18975 0.97491 0.28323 0.0
N644 N 0.17695 0.9149 0.29963 0.0
C645 C 0.20279 0.95031 0.2906 0.0
C646 C 0.14987 0.96253 0.28368 0.0
Eu647 Eu 0.19615 0.87121 0.31357 0.0
N648 N 0.12742 0.84037 0.30675 0.0
C649 C 0.10394 0.80199 0.30491 0.0
C650 C 0.04737 0.80874 0.29867 0.0
C651 C 0.06371 0.78569 0.30109 0.0
H652 H 0.23375 0.96001 0.29016 0.0
H653 H 0.0453 0.75527 0.30024 0.0
H654 H 0.02601 0.86084 0.29048 0.0
H655 H 0.21046 0.00333 0.27713 0.0
H656 H 0.11563 0.78334 0.30629 0.0
H657 H 0.3677 0.97905 0.36769 0.0
H658 H 0.01614 0.79599 0.29583 0.0
H659 H 0.18894 0.77669 0.40709 0.0
H660 H 0.29829 0.93984 0.35702 0.0
H661 H 0.21542 0.74731 0.43577 0.0
H662 H 0.07116 0.92855 0.28362 0.0
H663 H 0.397 0.95852 0.40107 0.0
H664 H 0.38949 0.90823 0.43159 0.0
H665 H 0.1398 0.98158 0.27783 0.0
H666 H 0.34856 0.84448 0.44924 0.0
N667 N 0.28709 0.89733 0.3845 0.0
C668 C 0.31024 0.93025 0.37173 0.0
C669 C 0.36621 0.9412 0.39664 0.0
C670 C 0.34303 0.90655 0.40878 0.0
C671 C 0.34985 0.95275 0.3777 0.0
C672 C 0.30306 0.88507 0.40227 0.0
H673 H 0.28413 0.78384 0.4502 0.0
N674 N 0.24274 0.82843 0.40382 0.0
C675 C 0.23409 0.77589 0.42907 0.0
C676 C 0.28024 0.8491 0.41194 0.0
C677 C 0.21936 0.79242 0.41248 0.0
C678 C 0.27279 0.79668 0.43731 0.0
C679 C 0.29642 0.83376 0.42876 0.0
O680 O 0.18365 0.83923 0.41519 0.0
O681 O 0.17399 0.86377 0.35379 0.0
O682 O 0.21193 0.92614 0.33398 0.0
O683 O 0.23243 0.92162 0.37461 0.0
O684 O 0.15267 0.82025 0.38001 0.0
O685 O 0.22125 0.89945 0.40998 0.0
O686 O 0.2308 0.89416 0.27909 0.0
O687 O 0.2357 0.86048 0.33886 0.0
O688 O 0.20186 0.80434 0.36232 0.0
O689 O 0.17856 0.80946 0.32218 0.0
O690 O 0.26246 0.90084 0.3116 0.0
O691 O 0.17888 0.83824 0.27794 0.0
C692 C 0.14267 0.83616 0.36278 0.0
C693 C 0.20848 0.87674 0.45236 0.0
C694 C 0.19181 0.87794 0.49696 0.0
C695 C 0.18103 0.87228 0.4711 0.0
C696 C 0.22966 0.88664 0.50398 0.0
C697 C 0.24649 0.88651 0.45971 0.0
C698 C 0.2568 0.89085 0.48541 0.0
C699 C 0.22541 0.9402 0.35683 0.0
C700 C 0.19741 0.87262 0.42531 0.0
C701 C 0.33569 0.85568 0.43621 0.0
C702 C 0.35895 0.89203 0.42625 0.0
C703 C 0.26847 0.88076 0.32797 0.0
C704 C 0.20339 0.8708 0.2382 0.0
C705 C 0.21321 0.85184 0.21993 0.0
C706 C 0.21347 0.85974 0.19392 0.0
C707 C 0.20362 0.88669 0.18619 0.0
C708 C 0.19328 0.89748 0.2303 0.0
C709 C 0.19339 0.90533 0.20434 0.0
C710 C 0.18347 0.78968 0.34052 0.0
C711 C 0.20811 0.86475 0.2652 0.0
H712 H 0.15176 0.86534 0.46561 0.0
H713 H 0.23833 0.89077 0.52384 0.0
H714 H 0.26841 0.89149 0.44565 0.0
H715 H 0.28612 0.89813 0.49093 0.0
H716 H 0.22136 0.83138 0.2259 0.0
H717 H 0.20392 0.89327 0.16617 0.0
H718 H 0.18588 0.91256 0.24409 0.0
H719 H 0.18591 0.92618 0.19829 0.0
Eu720 Eu 0.79742 0.652 0.6454 0.0
C721 C 0.86349 0.75194 0.74956 0.0
C722 C 0.92488 0.75469 0.75898 0.0
C723 C 0.90894 0.79832 0.77982 0.0
C724 C 0.88857 0.7378 0.74618 0.0
C725 C 0.87353 0.78245 0.76635 0.0
C726 C 0.93455 0.78449 0.77613 0.0
C727 C 0.8126 0.77929 0.75553 0.0
N728 N 0.82977 0.73653 0.73594 0.0
C729 C 0.8037 0.74884 0.73932 0.0
C730 C 0.8477 0.7962 0.76909 0.0
Eu731 Eu 0.81385 0.68088 0.71304 0.0
N732 N 0.87914 0.71002 0.7286 0.0
C733 C 0.90557 0.69898 0.72235 0.0
C734 C 0.95114 0.74226 0.75337 0.0
C735 C 0.94165 0.7147 0.73471 0.0
H736 H 0.77579 0.73477 0.72965 0.0
H737 H 0.9623 0.70575 0.72965 0.0
H738 H 0.96219 0.79761 0.7862 0.0
H739 H 0.79211 0.78926 0.7579 0.0
H740 H 0.89989 0.67869 0.70749 0.0
H741 H 0.64934 0.63125 0.64096 0.0
H742 H 0.97935 0.75465 0.76269 0.0
H743 H 0.82923 0.5972 0.61921 0.0
H744 H 0.72038 0.66712 0.64657 0.0
H745 H 0.80207 0.53232 0.60241 0.0
H746 H 0.91705 0.82166 0.79287 0.0
H747 H 0.61628 0.56337 0.62996 0.0
H748 H 0.62171 0.50691 0.61785 0.0
H749 H 0.85441 0.81961 0.78179 0.0
H750 H 0.66327 0.47996 0.60724 0.0
N751 N 0.72842 0.62014 0.63932 0.0
C752 C 0.70685 0.63767 0.6416 0.0
C753 C 0.64773 0.57907 0.6323 0.0
C754 C 0.67014 0.56183 0.62831 0.0
C755 C 0.66629 0.61737 0.63843 0.0
C756 C 0.71103 0.58351 0.63169 0.0
H757 H 0.73048 0.48939 0.60096 0.0
N758 N 0.77366 0.59025 0.62857 0.0
C759 C 0.78266 0.54184 0.60932 0.0
C760 C 0.73435 0.56819 0.62598 0.0
C761 C 0.79792 0.57845 0.61894 0.0
C762 C 0.74226 0.51772 0.60851 0.0
C763 C 0.71752 0.531 0.61642 0.0
O764 O 0.83363 0.66543 0.61094 0.0
O765 O 0.83847 0.69595 0.67324 0.0
O766 O 0.81583 0.73071 0.69197 0.0
O767 O 0.78852 0.70263 0.65312 0.0
O768 O 0.86295 0.67772 0.64678 0.0
O769 O 0.7836 0.67298 0.6111 0.0
O770 O 0.77034 0.66027 0.74345 0.0
O771 O 0.7729 0.63737 0.6851 0.0
O772 O 0.81511 0.6131 0.66396 0.0
O773 O 0.83329 0.63859 0.70497 0.0
O774 O 0.74954 0.66055 0.70928 0.0
O775 O 0.81793 0.6487 0.74526 0.0
C776 C 0.87123 0.70258 0.66452 0.0
C777 C 0.80612 0.66565 0.57071 0.0
C778 C 0.82095 0.68385 0.52584 0.0
C779 C 0.82781 0.69302 0.55197 0.0
C780 C 0.79261 0.64692 0.51882 0.0
C781 C 0.77789 0.62907 0.56321 0.0
C782 C 0.77132 0.61979 0.53737 0.0
C783 C 0.80164 0.73168 0.66924 0.0
C784 C 0.81288 0.67603 0.59788 0.0
C785 C 0.67673 0.50873 0.61424 0.0
C786 C 0.65307 0.52409 0.62026 0.0
C787 C 0.74088 0.63414 0.69265 0.0
C788 C 0.79113 0.65437 0.78475 0.0
C789 C 0.79036 0.62811 0.80254 0.0
C790 C 0.79153 0.63543 0.82897 0.0
C791 C 0.79418 0.66924 0.83731 0.0
C792 C 0.79316 0.68766 0.79382 0.0
C793 C 0.79503 0.69515 0.81984 0.0
C794 C 0.82989 0.61478 0.68679 0.0
C795 C 0.78757 0.64614 0.757 0.0
H796 H 0.84973 0.72136 0.55763 0.0
H797 H 0.78698 0.6391 0.49887 0.0
H798 H 0.76088 0.60778 0.57729 0.0
H799 H 0.74955 0.59147 0.53167 0.0
H800 H 0.78826 0.60203 0.79596 0.0
H801 H 0.79523 0.6754 0.8575 0.0
H802 H 0.79258 0.70773 0.78091 0.0
H803 H 0.79665 0.72096 0.82649 0.0
Eu804 Eu 0.36272 0.14848 0.64777 0.0
C805 C 0.23315 0.09147 0.73142 0.0
C806 C 0.21702 0.14118 0.73457 0.0
C807 C 0.16742 0.07633 0.74347 0.0
C808 C 0.24402 0.12915 0.72888 0.0
C809 C 0.19504 0.06486 0.73951 0.0
C810 C 0.17839 0.11443 0.74098 0.0
C811 C 0.21549 0.01838 0.74205 0.0
N812 N 0.26056 0.08125 0.72772 0.0
C813 C 0.25292 0.04578 0.73416 0.0
C814 C 0.18623 0.02778 0.74432 0.0
Eu815 Eu 0.32276 0.12902 0.71318 0.0
N816 N 0.28184 0.15448 0.72333 0.0
C817 C 0.29532 0.19232 0.72617 0.0
C818 C 0.23015 0.17989 0.73511 0.0
C819 C 0.26971 0.20555 0.73163 0.0
H820 H 0.27554 0.03847 0.73228 0.0
H821 H 0.28062 0.23559 0.73326 0.0
H822 H 0.15722 0.12315 0.7451 0.0
H823 H 0.20924 0.99005 0.74641 0.0
H824 H 0.32585 0.21292 0.72462 0.0
H825 H 0.38414 0.02593 0.64158 0.0
H826 H 0.2104 0.19025 0.7395 0.0
H827 H 0.42261 0.23631 0.62628 0.0
H828 H 0.34885 0.05909 0.65123 0.0
H829 H 0.491 0.27623 0.61242 0.0
H830 H 0.13789 0.0562 0.74938 0.0
H831 H 0.45397 0.06205 0.62995 0.0
H832 H 0.51318 0.12436 0.62072 0.0
H833 H 0.15731 0.00656 0.75059 0.0
H834 H 0.54264 0.19261 0.61364 0.0
N835 N 0.39598 0.11376 0.64218 0.0
C836 C 0.37816 0.07534 0.64431 0.0
C837 C 0.43804 0.07682 0.63325 0.0
C838 C 0.45638 0.11608 0.63108 0.0
C839 C 0.3986 0.05633 0.63955 0.0
C840 C 0.43424 0.13401 0.63542 0.0
H841 H 0.5346 0.24928 0.61027 0.0
N842 N 0.42824 0.18857 0.63426 0.0
C843 C 0.48036 0.24729 0.61814 0.0
C844 C 0.4509 0.17252 0.63157 0.0
C845 C 0.44178 0.22481 0.62632 0.0
C846 C 0.50482 0.23197 0.61693 0.0
C847 C 0.48999 0.19395 0.62309 0.0
O848 O 0.33869 0.16656 0.61762 0.0
O849 O 0.31472 0.14341 0.67339 0.0
O850 O 0.27894 0.07899 0.68965 0.0
O851 O 0.31064 0.08808 0.65063 0.0
O852 O 0.339 0.18841 0.64848 0.0
O853 O 0.35294 0.12345 0.60899 0.0
O854 O 0.35009 0.11372 0.74314 0.0
O855 O 0.37096 0.13535 0.68761 0.0
O856 O 0.40333 0.20164 0.67062 0.0
O857 O 0.36516 0.19258 0.70685 0.0
O858 O 0.34785 0.08987 0.71188 0.0
O859 O 0.33766 0.15848 0.75028 0.0
C860 C 0.31217 0.17156 0.66554 0.0
C861 C 0.34881 0.16029 0.57458 0.0
C862 C 0.32765 0.15789 0.53066 0.0
C863 C 0.32483 0.13967 0.55394 0.0
C864 C 0.35531 0.19645 0.528 0.0
C865 C 0.37665 0.19867 0.57129 0.0
C866 C 0.37996 0.21653 0.54812 0.0
C867 C 0.28084 0.06791 0.6662 0.0
C868 C 0.33889 0.14406 0.60034 0.0
C869 C 0.51254 0.17651 0.61994 0.0
C870 C 0.49575 0.13765 0.62391 0.0
C871 C 0.37548 0.10847 0.69556 0.0
C872 C 0.3425 0.12496 0.78603 0.0
C873 C 0.36329 0.15032 0.80579 0.0
C874 C 0.35928 0.13733 0.83096 0.0
C875 C 0.33395 0.09896 0.83633 0.0
C876 C 0.31714 0.08662 0.7917 0.0
C877 C 0.31289 0.07379 0.81676 0.0
C878 C 0.39561 0.21413 0.69203 0.0
C879 C 0.35149 0.13807 0.75953 0.0
H880 H 0.30291 0.11014 0.55629 0.0
H881 H 0.35789 0.21095 0.51021 0.0
H882 H 0.39451 0.21542 0.58697 0.0
H883 H 0.40104 0.24628 0.54595 0.0
H884 H 0.38323 0.17986 0.80158 0.0
H885 H 0.33049 0.08858 0.85569 0.0
H886 H 0.30143 0.06641 0.77675 0.0
H887 H 0.29357 0.04419 0.82099 0.0
Eu888 Eu 0.88332 0.18854 0.71295 0.0
C889 C 0.81074 0.24269 0.62925 0.0
C890 C 0.74357 0.19212 0.62546 0.0
C891 C 0.75976 0.25692 0.61823 0.0
C892 C 0.78318 0.20477 0.63112 0.0
C893 C 0.79948 0.26901 0.62189 0.0
C894 C 0.73182 0.2185 0.62003 0.0
C895 C 0.86785 0.31637 0.61903 0.0
N896 N 0.84893 0.25343 0.63257 0.0
C897 C 0.87756 0.28919 0.62612 0.0
C898 C 0.82861 0.30642 0.61738 0.0
Eu899 Eu 0.86296 0.20637 0.64684 0.0
N900 N 0.79566 0.17993 0.63572 0.0
C901 C 0.77074 0.14214 0.63162 0.0
C902 C 0.71736 0.1533 0.62382 0.0
C903 C 0.73131 0.12828 0.62611 0.0
H904 H 0.90797 0.29694 0.62751 0.0
H905 H 0.71176 0.09825 0.62353 0.0
H906 H 0.70148 0.2093 0.61601 0.0
H907 H 0.8906 0.34495 0.6148 0.0
H908 H 0.78055 0.12195 0.63226 0.0
H909 H 0.03273 0.30993 0.71535 0.0
H910 H 0.68681 0.14247 0.6194 0.0
H911 H 0.85165 0.10198 0.73658 0.0
H912 H 0.96282 0.27635 0.70613 0.0
H913 H 0.87791 0.06222 0.75181 0.0
H914 H 0.75051 0.27681 0.61295 0.0
H915 H 0.06465 0.27449 0.7295 0.0
H916 H 0.05853 0.21268 0.7416 0.0
H917 H 0.82113 0.32745 0.61171 0.0
H918 H 0.01661 0.14496 0.75053 0.0
N919 N 0.95284 0.22253 0.71777 0.0
C920 C 0.97519 0.26064 0.71409 0.0
C921 C 0.03336 0.25966 0.72631 0.0
C922 C 0.01066 0.22067 0.72994 0.0
C923 C 0.01543 0.27978 0.71859 0.0
C924 C 0.96992 0.20271 0.72566 0.0
H925 H 0.94938 0.08868 0.75439 0.0
N926 N 0.90721 0.14896 0.72771 0.0
C927 C 0.89758 0.09079 0.74547 0.0
C928 C 0.94642 0.16468 0.73052 0.0
C929 C 0.88273 0.11315 0.73636 0.0
C930 C 0.9379 0.10584 0.74694 0.0
C931 C 0.96288 0.14348 0.74003 0.0
O932 O 0.84562 0.16501 0.74599 0.0
O933 O 0.84117 0.194 0.68705 0.0
O934 O 0.87323 0.25732 0.67015 0.0
O935 O 0.89458 0.24875 0.70961 0.0
O936 O 0.81759 0.15177 0.71387 0.0
O937 O 0.89494 0.22195 0.74804 0.0
O938 O 0.90436 0.22606 0.61535 0.0
O939 O 0.90401 0.19908 0.67253 0.0
O940 O 0.86448 0.13365 0.69152 0.0
O941 O 0.83741 0.14327 0.65464 0.0
O942 O 0.92892 0.24255 0.64668 0.0
O943 O 0.85086 0.17255 0.6119 0.0
C944 C 0.80896 0.16764 0.69588 0.0
C945 C 0.86843 0.18885 0.78694 0.0
C946 C 0.85126 0.19233 0.83109 0.0
C947 C 0.85209 0.20197 0.80532 0.0
C948 C 0.86711 0.16969 0.83822 0.0
C949 C 0.88474 0.16689 0.79446 0.0
C950 C 0.88392 0.15727 0.82003 0.0
C951 C 0.88668 0.26885 0.69349 0.0
C952 C 0.86468 0.19523 0.75991 0.0
C953 C 0.00349 0.16084 0.74337 0.0
C954 C 0.02734 0.1994 0.73835 0.0
C955 C 0.93666 0.2243 0.66352 0.0
C956 C 0.88179 0.20533 0.57377 0.0
C957 C 0.88661 0.18324 0.55518 0.0
C958 C 0.88827 0.19246 0.52928 0.0
C959 C 0.88533 0.22394 0.52209 0.0
C960 C 0.87862 0.23661 0.5663 0.0
C961 C 0.88054 0.2459 0.54055 0.0
C962 C 0.8431 0.12125 0.67047 0.0
C963 C 0.88324 0.19708 0.60083 0.0
H964 H 0.8398 0.21929 0.79962 0.0
H965 H 0.86704 0.16218 0.85802 0.0
H966 H 0.89755 0.15675 0.78058 0.0
H967 H 0.89629 0.1401 0.82576 0.0
H968 H 0.88919 0.15909 0.56079 0.0
H969 H 0.88652 0.23133 0.50216 0.0
H970 H 0.87519 0.25411 0.58032 0.0
H971 H 0.87835 0.27018 0.53489 0.0
C972 C 0.33327 0.84906 0.0359 0.0
C973 C 0.30455 0.8561 0.04654 0.0
C974 C 0.34808 0.92427 0.04092 0.0
C975 C 0.37714 0.91758 0.03017 0.0
N976 N 0.39407 0.87302 0.01295 0.0
N977 N 0.27993 0.89869 0.05222 0.0
C978 C 0.36835 0.87973 0.02597 0.0
C979 C 0.31047 0.89322 0.04661 0.0
N980 N 0.32857 0.81361 0.03708 0.0
N981 N 0.35692 0.96016 0.04706 0.0
H982 H 0.25197 0.87634 0.05628 0.0
H983 H 0.2813 0.92466 0.05034 0.0
H984 H 0.38305 0.984 0.04189 0.0
H985 H 0.33898 0.96619 0.05828 0.0
H986 H 0.35046 0.80754 0.03258 0.0
H987 H 0.30369 0.79028 0.04436 0.0
H988 H 0.38754 0.84653 0.00622 0.0
H989 H 0.421 0.89466 0.00699 0.0
C990 C 0.15169 0.48483 0.04428 0.0
C991 C 0.15144 0.45099 0.04982 0.0
C992 C 0.08189 0.41442 0.03876 0.0
C993 C 0.08192 0.44843 0.0325 0.0
N994 N 0.12252 0.51388 0.02018 0.0
N995 N 0.12017 0.38367 0.04463 0.0
C996 C 0.11852 0.48302 0.03245 0.0
C997 C 0.11771 0.4158 0.04459 0.0
N998 N 0.18307 0.51886 0.05099 0.0
N999 N 0.0477 0.38056 0.03941 0.0
H1000 H 0.14635 0.38408 0.04806 0.0
H1001 H 0.09761 0.3575 0.03854 0.0
H1002 H 0.02119 0.37667 0.03268 0.0
H1003 H 0.04544 0.35631 0.0475 0.0
H1004 H 0.18271 0.54414 0.05024 0.0
H1005 H 0.2083 0.52149 0.05922 0.0
H1006 H 0.14913 0.53878 0.01777 0.0
H1007 H 0.10046 0.51213 0.00898 0.0
C1008 C 0.59912 0.70872 0.05008 0.0
C1009 C 0.56629 0.71359 0.04954 0.0
C1010 C 0.53094 0.65498 0.02545 0.0
C1011 C 0.56064 0.64581 0.03083 0.0
N1012 N 0.61836 0.66277 0.05683 0.0
N1013 N 0.49716 0.68612 0.04152 0.0
C1014 C 0.59365 0.67235 0.04544 0.0
C1015 C 0.53108 0.68534 0.03852 0.0
N1016 N 0.63534 0.73844 0.05555 0.0
N1017 N 0.50246 0.63526 0.00803 0.0
H1018 H 0.49537 0.70691 0.05195 0.0
H1019 H 0.47002 0.6638 0.03596 0.0
H1020 H 0.50187 0.61408 0.99722 0.0
H1021 H 0.48256 0.64332 1.00211 0.0
H1022 H 0.6606 0.73654 0.05422 0.0
H1023 H 0.64042 0.76577 0.05858 0.0
H1024 H 0.64117 0.68116 0.06872 0.0
H1025 H 0.61238 0.63526 0.05832 0.0
C1026 C 0.88121 0.29807 0.98113 0.0
C1027 C 0.84437 0.29517 0.9788 0.0
C1028 C 0.87264 0.36027 0.99407 0.0
C1029 C 0.91101 0.36506 0.99174 0.0
N1030 N 0.94896 0.33945 0.9728 0.0
N1031 N 0.8044 0.32392 0.98136 0.0
C1032 C 0.91473 0.33423 0.98261 0.0
C1033 C 0.83973 0.32627 0.98509 0.0
N1034 N 0.88428 0.26631 0.98084 0.0
N1035 N 0.86736 0.38827 1.00399 0.0
H1036 H 0.77957 0.299 0.97566 0.0
H1037 H 0.80025 0.34708 0.98244 0.0
H1038 H 0.89007 0.41526 0.00811 0.0
H1039 H 0.84008 0.38422 0.00911 0.0
H1040 H 0.91059 0.26698 0.98423 0.0
H1041 H 0.85978 0.23925 0.97999 0.0
H1042 H 0.95205 0.31746 0.96532 0.0
H1043 H 0.97086 0.3657 0.96684 0.0
C1044 C 0.70021 0.58198 0.97844 0.0
C1045 C 0.70577 0.55033 0.97746 0.0
C1046 C 0.64145 0.51195 0.99734 0.0
C1047 C 0.63278 0.5414 0.99375 0.0
N1048 N 0.65385 0.604 0.97746 0.0
N1049 N 0.67774 0.48282 0.98227 0.0
C1050 C 0.66226 0.57642 0.98346 0.0
C1051 C 0.67562 0.51478 0.9863 0.0
N1052 N 0.73131 0.61746 0.97483 0.0
N1053 N 0.61677 0.48076 0.01105 0.0
H1054 H 0.70088 0.48266 0.97293 0.0
H1055 H 0.65448 0.45574 0.98579 0.0
H1056 H 0.59062 0.47682 0.01824 0.0
H1057 H 0.62391 0.46069 0.01702 0.0
H1058 H 0.72972 0.64187 0.97763 0.0
H1059 H 0.75957 0.62247 0.97169 0.0
H1060 H 0.67263 0.62789 0.96691 0.0
H1061 H 0.62736 0.60219 0.98199 0.0
C1062 C 0.47906 0.16106 0.99058 0.0
C1063 C 0.44443 0.15501 0.97855 0.0
C1064 C 0.41754 0.08726 0.98115 0.0
C1065 C 0.44994 0.09242 0.9962 0.0
N1066 N 0.50818 0.13691 0.01948 0.0
N1067 N 0.37585 0.1127 0.97092 0.0
C1068 C 0.47935 0.13013 1.00258 0.0
C1069 C 0.41187 0.11821 0.9771 0.0
N1070 N 0.51245 0.19553 0.98928 0.0
N1071 N 0.394 0.05436 0.96855 0.0
H1072 H 0.3707 0.13508 0.96811 0.0
H1073 H 0.35069 0.08611 0.97143 0.0
H1074 H 0.40094 0.03337 0.96622 0.0
H1075 H 0.37159 0.05092 0.95641 0.0
H1076 H 0.53957 0.20008 0.99529 0.0
H1077 H 0.51398 0.21871 0.97999 0.0
H1078 H 0.52759 0.16372 0.02663 0.0
H1079 H 0.51028 0.11552 0.0282 0.0
C1080 C 0.63579 0.13112 0.99769 0.0
C1081 C 0.648 0.13017 0.97224 0.0
C1082 C 0.58146 0.08187 0.96211 0.0
C1083 C 0.57152 0.07605 0.98815 0.0
N1084 N 0.58016 0.11254 0.02516 0.0
N1085 N 0.63176 0.10054 0.93058 0.0
C1086 C 0.59639 0.10515 1.00494 0.0
C1087 C 0.62069 0.10416 0.95461 0.0
N1088 N 0.66105 0.15689 0.01487 0.0
N1089 N 0.55271 0.073 0.94484 0.0
H1090 H 0.66066 0.11553 0.92426 0.0
H1091 H 0.61248 0.07982 0.91794 0.0
H1092 H 0.52543 0.06736 0.95138 0.0
H1093 H 0.55806 0.07916 0.92547 0.0
H1094 H 0.65482 0.15535 0.03429 0.0
H1095 H 0.68874 0.17878 0.01004 0.0
H1096 H 0.5946 0.13671 0.03645 0.0
H1097 H 0.55033 0.09603 0.02805 0.0
C1098 C 0.90682 0.54461 0.99929 0.0
C1099 C 0.87891 0.52144 0.98096 0.0
C1100 C 0.90856 0.48128 0.97877 0.0
C1101 C 0.9383 0.50581 0.99627 0.0
N1102 N 0.97123 0.56704 0.01656 0.0
N1103 N 0.84724 0.46357 0.95722 0.0
C1104 C 0.93857 0.53886 1.00511 0.0
C1105 C 0.87788 0.48835 0.97207 0.0
N1106 N 0.90302 0.57232 0.01117 0.0
N1107 N 0.91215 0.45396 0.96612 0.0
H1108 H 0.82475 0.46845 0.95186 0.0
H1109 H 0.84206 0.43683 0.95214 0.0
H1110 H 0.93401 0.44784 0.97008 0.0
H1111 H 0.89504 0.43875 0.95063 0.0
H1112 H 0.9201 0.58765 0.02668 0.0
H1113 H 0.88014 0.57725 0.00713 0.0
H1114 H 0.97532 0.5938 0.02028 0.0
H1115 H 0.99565 0.56471 0.0207 0.0
C1116 C 0.44844 0.34953 1.00411 0.0
C1117 C 0.4596 0.34213 0.98012 0.0
C1118 C 0.51313 0.40719 0.97754 0.0
C1119 C 0.49846 0.41641 0.99952 0.0
N1120 N 0.45047 0.39623 0.03328 0.0
N1121 N 0.50099 0.36338 0.94296 0.0
C1122 C 0.46601 0.38744 0.01296 0.0
C1123 C 0.49152 0.3708 0.96654 0.0
N1124 N 0.42103 0.32031 0.01842 0.0
N1125 N 0.54862 0.4328 0.96776 0.0
H1126 H 0.48695 0.33655 0.93468 0.0
H1127 H 0.52091 0.38426 0.93078 0.0
H1128 H 0.56589 0.45897 0.97603 0.0
H1129 H 0.56296 0.42666 0.95351 0.0
H1130 H 0.41487 0.32324 0.03731 0.0
H1131 H 0.40631 0.29238 0.012 0.0
H1132 H 0.42364 0.37742 0.04147 0.0
H1133 H 0.46339 0.423 0.04127 0.0
C1134 C 0.10882 0.65542 0.03102 0.0
C1135 C 0.13422 0.66144 0.05177 0.0
C1136 C 0.11224 0.59374 0.05309 0.0
C1137 C 0.08723 0.58759 0.03193 0.0
N1138 N 0.06798 0.6139 0.99738 0.0
N1139 N 0.16779 0.63865 0.07813 0.0
C1140 C 0.08781 0.61889 0.01966 0.0
C1141 C 0.13815 0.63123 0.0615 0.0
N1142 N 0.10263 0.68386 0.02324 0.0
N1143 N 0.11107 0.56376 0.06542 0.0
H1144 H 0.188 0.66589 0.08422 0.0
H1145 H 0.17491 0.61852 0.08388 0.0
H1146 H 0.09511 0.536 0.05893 0.0
H1147 H 0.12434 0.56608 0.08298 0.0
H1148 H 0.08089 0.67998 0.01038 0.0
H1149 H 0.11703 0.71087 0.03119 0.0
H1150 H 0.07144 0.63617 0.98598 0.0
H1151 H 0.05009 0.58761 0.98919 0.0
C1152 C 0.37734 0.51063 0.03096 0.0
C1153 C 0.35879 0.48951 0.05328 0.0
C1154 C 0.41865 0.48967 0.06421 0.0
C1155 C 0.43624 0.50583 0.04031 0.0
N1156 N 0.43782 0.54745 0.0079 0.0
N1157 N 0.35972 0.45185 0.08817 0.0
C1158 C 0.41685 0.52032 0.02526 0.0
C1159 C 0.37866 0.47638 0.06864 0.0
N1160 N 0.35733 0.52131 0.01506 0.0
N1161 N 0.44176 0.49452 0.08463 0.0
H1162 H 0.33012 0.44108 0.09204 0.0
H1163 H 0.37265 0.4394 0.09868 0.0
H1164 H 0.4706 0.51605 0.0841 0.0
H1165 H 0.43118 0.48529 0.10299 0.0
H1166 H 0.36719 0.53241 0.99694 0.0
H1167 H 0.32942 0.51644 0.01916 0.0
H1168 H 0.42782 0.5634 0.99856 0.0
H1169 H 0.46688 0.55604 1.00481 0.0
C1170 C 0.52079 0.88704 0.05914 0.0
C1171 C 0.54895 0.885 0.04376 0.0
C1172 C 0.54114 0.92283 0.01081 0.0
C1173 C 0.5113 0.9233 0.0257 0.0
N1174 N 0.46398 0.89395 0.05946 0.0
N1175 N 0.57976 0.89294 1.00281 0.0
C1176 C 0.49858 0.90192 0.04858 0.0
C1177 C 0.55693 0.90009 0.0188 0.0
N1178 N 0.51512 0.87475 0.08384 0.0
N1179 N 0.55631 0.94576 0.99007 0.0
H1180 H 0.59302 0.87758 0.0084 0.0
H1181 H 0.58295 0.89965 0.98348 0.0
H1182 H 0.54608 0.9631 0.98355 0.0
H1183 H 0.58116 0.94977 0.98046 0.0
H1184 H 0.49802 0.87965 0.09669 0.0
H1185 H 0.52991 0.86234 0.0921 0.0
H1186 H 0.45172 0.87607 0.07506 0.0
H1187 H 0.44492 0.90061 0.05052 0.0
C1188 C 0.96686 0.22214 0.37625 0.0
C1189 C 0.97104 0.19053 0.3818 0.0
C1190 C 0.03758 0.2245 0.36497 0.0
C1191 C 0.03677 0.25899 0.36439 0.0
N1192 N 0.99819 0.28961 0.37013 0.0
N1193 N 0.01283 0.16355 0.38488 0.0
C1194 C 1.00055 0.2574 0.37006 0.0
C1195 C 0.00693 0.19211 0.37693 0.0
N1196 N 0.93049 0.21828 0.37662 0.0
N1197 N 0.06681 0.22177 0.35356 0.0
H1198 H 0.99145 0.13923 0.3939 0.0
H1199 H 0.04019 0.16562 0.38461 0.0
H1200 H 0.08808 0.24375 0.34332 0.0
H1201 H 0.0667 0.19642 0.35121 0.0
H1202 H 0.92476 0.23909 0.37023 0.0
H1203 H 0.90537 0.19275 0.38097 0.0
H1204 H 0.97464 0.29095 0.37785 0.0
H1205 H 0.0202 0.3155 0.36333 0.0
C1206 C 0.81282 0.81318 0.38791 0.0
C1207 C 0.81951 0.78326 0.38156 0.0
C1208 C 0.75389 0.74829 0.36253 0.0
C1209 C 0.74734 0.7789 0.36764 0.0
N1210 N 0.76658 0.83468 0.39327 0.0
N1211 N 0.79988 0.72561 0.3587 0.0
C1212 C 0.77602 0.8101 0.38224 0.0
C1213 C 0.79113 0.75193 0.3675 0.0
N1214 N 0.84208 0.84495 0.39927 0.0
N1215 N 0.72331 0.71414 0.35544 0.0
H1216 H 0.82661 0.72724 0.36234 0.0
H1217 H 0.78226 0.7043 0.3459 0.0
H1218 H 0.69542 0.70985 0.35274 0.0
H1219 H 0.72474 0.68945 0.35443 0.0
H1220 H 0.84094 0.86949 0.40237 0.0
H1221 H 0.86916 0.84799 0.40385 0.0
H1222 H 0.7831 0.85398 0.40743 0.0
H1223 H 0.74061 0.8341 0.38973 0.0
C1224 C 0.26282 0.04194 0.37937 0.0
C1225 C 0.22776 0.04285 0.38094 0.0
C1226 C 0.1929 0.98009 0.36136 0.0
C1227 C 0.22681 0.97634 0.36438 0.0
N1228 N 0.29137 0.0029 0.38345 0.0
N1229 N 0.15801 0.01164 0.37522 0.0
C1230 C 0.26113 0.00706 0.37527 0.0
C1231 C 0.19247 0.01193 0.37197 0.0
N1232 N 0.29787 0.07451 0.38223 0.0
N1233 N 0.1602 0.95263 0.34956 0.0
H1234 H 0.15628 0.03417 0.38303 0.0
H1235 H 0.13069 0.98801 0.37194 0.0
H1236 H 0.15555 0.92585 0.34566 0.0
H1237 H 0.13763 0.95671 0.34329 0.0
H1238 H 0.32464 0.07592 0.37929 0.0
H1239 H 0.29986 0.10076 0.3845 0.0
H1240 H 0.31508 0.0237 0.39363 0.0
H1241 H 0.29025 0.97728 0.38362 0.0
C1242 C 0.54662 0.62923 0.31814 0.0
C1243 C 0.5124 0.62893 0.30969 0.0
C1244 C 0.53784 0.69301 0.32678 0.0
C1245 C 0.57481 0.69589 0.33105 0.0
N1246 N 0.61293 0.66528 0.33416 0.0
N1247 N 0.47675 0.66182 0.30355 0.0
C1248 C 0.57869 0.66345 0.32764 0.0
C1249 C 0.50811 0.66094 0.31369 0.0
N1250 N 0.54778 0.59637 0.31776 0.0
N1251 N 0.53055 0.72045 0.33529 0.0
H1252 H 0.45442 0.63925 0.29359 0.0
H1253 H 0.47448 0.68609 0.30308 0.0
H1254 H 0.55133 0.74545 0.34381 0.0
H1255 H 0.50266 0.7171 0.3357 0.0
H1256 H 0.57041 0.5935 0.32536 0.0
H1257 H 0.5244 0.57075 0.31149 0.0
H1258 H 0.62048 0.64516 0.32911 0.0
H1259 H 0.63421 0.68783 0.34461 0.0
C1260 C 0.33446 0.85888 0.28586 0.0
C1261 C 0.36799 0.87426 0.30199 0.0
C1262 C 0.32469 0.86816 0.33719 0.0
C1263 C 0.29696 0.86752 0.32029 0.0
N1264 N 0.26804 0.84517 0.27942 0.0
N1265 N 0.39326 0.89455 0.34489 0.0
C1266 C 0.29994 0.85835 0.29457 0.0
C1267 C 0.36275 0.87928 0.32824 0.0
N1268 N 0.33467 0.84224 0.26325 0.0
N1269 N 0.31216 0.84869 0.35921 0.0
H1270 H 0.42226 0.90621 0.33914 0.0
H1271 H 0.38922 0.89838 0.3641 0.0
H1272 H 0.28226 0.83276 0.36291 0.0
H1273 H 0.33068 0.84421 0.37102 0.0
H1274 H 0.31061 0.82852 0.25125 0.0
H1275 H 0.35788 0.83862 0.25765 0.0
H1276 H 0.26854 0.84266 0.2597 0.0
H1277 H 0.24065 0.83455 0.28775 0.0
C1278 C 0.08181 0.45357 0.31011 0.0
C1279 C 0.11528 0.48988 0.3104 0.0
C1280 C 0.15236 0.46341 0.33017 0.0
C1281 C 0.12007 0.42619 0.32617 0.0
N1282 N 0.06113 0.38907 0.30119 0.0
N1283 N 0.18448 0.52939 0.31782 0.0
C1284 C 0.08644 0.42186 0.31326 0.0
C1285 C 0.1511 0.49504 0.32002 0.0
N1286 N 0.04579 0.44927 0.30566 0.0
N1287 N 0.18521 0.46864 0.34225 0.0
H1288 H 0.18494 0.55314 0.31028 0.0
H1289 H 0.21227 0.53378 0.32168 0.0
H1290 H 0.19062 0.44673 0.34566 0.0
H1291 H 0.20679 0.49473 0.34919 0.0
H1292 H 0.02011 0.4232 0.3071 0.0
H1293 H 0.04149 0.47226 0.30331 0.0
H1294 H 0.03685 0.38552 0.29106 0.0
H1295 H 0.06903 0.36934 0.29619 0.0
C1296 C 0.30659 0.45498 0.33283 0.0
C1297 C 0.31165 0.4596 0.30604 0.0
C1298 C 0.24021 0.42549 0.30117 0.0
C1299 C 0.23604 0.4156 0.32728 0.0
N1300 N 0.26221 0.44871 0.36593 0.0
N1301 N 0.28266 0.45147 0.26433 0.0
C1302 C 0.26836 0.43736 0.34306 0.0
C1303 C 0.27821 0.4458 0.29006 0.0
N1304 N 0.33777 0.46615 0.34872 0.0
N1305 N 0.20787 0.41892 0.28795 0.0
H1306 H 0.30976 0.46805 0.25564 0.0
H1307 H 0.2596 0.43833 0.2515 0.0
H1308 H 0.18093 0.40771 0.29703 0.0
H1309 H 0.20837 0.42831 0.26945 0.0
H1310 H 0.33423 0.46044 0.36823 0.0
H1311 H 0.36642 0.47783 0.3422 0.0
H1312 H 0.28486 0.4684 0.37741 0.0
H1313 H 0.23432 0.44336 0.37047 0.0
C1314 C 0.5737 0.87598 0.32237 0.0
C1315 C 0.54391 0.84787 0.30692 0.0
C1316 C 0.57594 0.8097 0.30948 0.0
C1317 C 0.60658 0.83794 0.32479 0.0
N1318 N 0.63837 0.90192 0.34041 0.0
N1319 N 0.51065 0.78375 0.29201 0.0
C1320 C 0.60604 0.8719 0.33012 0.0
C1321 C 0.54324 0.81344 0.30251 0.0
N1322 N 0.57118 0.90674 0.32973 0.0
N1323 N 0.58001 0.78138 0.29888 0.0
H1324 H 0.48611 0.7855 0.28694 0.0
H1325 H 0.50633 0.7565 0.29087 0.0
H1326 H 0.60363 0.77779 0.3025 0.0
H1327 H 0.56161 0.76326 0.28476 0.0
H1328 H 0.589 0.92581 0.34363 0.0
H1329 H 0.54913 0.91164 0.32351 0.0
H1330 H 0.64289 0.92923 0.34133 0.0
H1331 H 0.66182 0.89969 0.34703 0.0
C1332 C 0.16783 0.7081 0.30033 0.0
C1333 C 0.1337 0.67836 0.31153 0.0
C1334 C 0.1377 0.71985 0.34654 0.0
C1335 C 0.17085 0.74987 0.33454 0.0
N1336 N 0.22637 0.76816 0.30763 0.0
N1337 N 0.09002 0.65267 0.34743 0.0
C1338 C 0.18858 0.74268 0.31361 0.0
C1339 C 0.11998 0.68314 0.33548 0.0
N1340 N 0.18034 0.70345 0.27701 0.0
N1341 N 0.12278 0.72666 0.36806 0.0
H1342 H 0.07512 0.62584 0.3392 0.0
H1343 H 0.08109 0.65322 0.36601 0.0
H1344 H 0.13671 0.75254 0.37744 0.0
H1345 H 0.09612 0.7074 0.37619 0.0
H1346 H 0.20272 0.72566 0.26687 0.0
H1347 H 0.16661 0.67798 0.26697 0.0
H1348 H 0.24239 0.76353 0.29376 0.0
H1349 H 0.2429 0.79175 0.3191 0.0
C1350 C 0.82394 0.96183 0.38002 0.0
C1351 C 0.81181 0.98914 0.37951 0.0
C1352 C 0.75616 0.94698 0.35261 0.0
C1353 C 0.76417 0.91757 0.35715 0.0
N1354 N 0.81532 0.90291 0.36302 0.0
N1355 N 0.76675 0.0085 0.36479 0.0
C1356 C 0.80103 0.92663 0.36724 0.0
C1357 C 0.77817 0.98206 0.36546 0.0
N1358 N 0.85586 0.9685 0.39405 0.0
N1359 N 0.7305 0.94266 0.33383 0.0
H1360 H 0.78326 0.03541 0.37272 0.0
H1361 H 0.73988 0.00297 0.35754 0.0
H1362 H 0.71747 0.91854 0.3224 0.0
H1363 H 0.7258 0.96422 0.32764 0.0
H1364 H 0.86325 0.94788 0.3978 0.0
H1365 H 0.87357 0.99403 0.40342 0.0
H1366 H 0.84388 0.90995 0.36727 0.0
H1367 H 0.80014 0.87812 0.35244 0.0
C1368 C 0.03139 0.79529 0.3697 0.0
C1369 C 0.02999 0.82644 0.38047 0.0
C1370 C 0.10162 0.86451 0.37821 0.0
C1371 C 0.10373 0.83432 0.36614 0.0
N1372 N 0.07053 0.76756 0.35697 0.0
N1373 N 0.06272 0.89327 0.38839 0.0
C1374 C 0.06839 0.79884 0.36342 0.0
C1375 C 0.06479 0.86178 0.38249 0.0
N1376 N 0.99734 0.7622 0.36542 0.0
N1377 N 0.13415 0.89372 0.38898 0.0
H1378 H 0.03622 0.89246 0.39136 0.0
H1379 H 0.08688 0.92049 0.38757 0.0
H1380 H 0.16143 0.89608 0.38808 0.0
H1381 H 0.13335 0.91373 0.40091 0.0
H1382 H 0.99554 0.73998 0.35466 0.0
H1383 H 0.97011 0.75774 0.37106 0.0
H1384 H 0.04729 0.73998 0.35824 0.0
H1385 H 0.09645 0.76904 0.35128 0.0
C1386 C 0.21937 0.23149 0.3625 0.0
C1387 C 0.20691 0.21329 0.38638 0.0
C1388 C 0.16043 0.23574 0.39055 0.0
C1389 C 0.1768 0.25844 0.36846 0.0
N1390 N 0.22741 0.28314 0.33615 0.0
N1391 N 0.16878 0.20078 0.42475 0.0
C1392 C 0.20745 0.25743 0.35491 0.0
C1393 C 0.1784 0.21623 0.4009 0.0
N1394 N 0.2431 0.22453 0.34723 0.0
N1395 N 0.1269 0.23163 0.40114 0.0
H1396 H 0.18004 0.18481 0.43258 0.0
H1397 H 0.15177 0.20602 0.43745 0.0
H1398 H 0.11223 0.24482 0.39403 0.0
H1399 H 0.11144 0.21224 0.41549 0.0
H1400 H 0.24931 0.23359 0.32838 0.0
H1401 H 0.25404 0.20713 0.35268 0.0
H1402 H 0.25254 0.28611 0.32755 0.0
H1403 H 0.22162 0.30433 0.33094 0.0
C1404 C 0.63341 0.56576 0.71003 0.0
C1405 C 0.63538 0.53324 0.71673 0.0
C1406 C 0.70081 0.56192 0.69816 0.0
C1407 C 0.70237 0.59743 0.69578 0.0
N1408 N 0.6682 0.63244 0.6997 0.0
N1409 N 0.67398 0.50306 0.72118 0.0
C1410 C 0.66792 0.599 0.70168 0.0
C1411 C 0.66984 0.53204 0.71184 0.0
N1412 N 0.59833 0.56464 0.71123 0.0
N1413 N 0.72773 0.55559 0.68663 0.0
H1414 H 0.65224 0.48054 0.73149 0.0
H1415 H 0.70048 0.50335 0.72081 0.0
H1416 H 0.7493 0.57536 0.67517 0.0
H1417 H 0.72538 0.52908 0.68562 0.0
H1418 H 0.59386 0.5859 0.70412 0.0
H1419 H 0.57271 0.54082 0.71735 0.0
H1420 H 0.64634 0.63674 0.70716 0.0
H1421 H 0.69098 0.65647 0.69126 0.0
C1422 C 0.45325 0.07866 0.70498 0.0
C1423 C 0.48628 0.11332 0.71231 0.0
C1424 C 0.44837 0.14529 0.70703 0.0
C1425 C 0.4146 0.11063 0.69964 0.0
N1426 N 0.38341 0.04249 0.69759 0.0
N1427 N 0.51824 0.1811 0.71455 0.0
C1428 C 0.41676 0.07681 0.70011 0.0
C1429 C 0.48486 0.1471 0.71104 0.0
N1430 N 0.45735 0.04768 0.7018 0.0
N1431 N 0.44439 0.17507 0.71443 0.0
H1432 H 0.54506 0.18361 0.7191 0.0
H1433 H 0.52013 0.20692 0.71066 0.0
H1434 H 0.41717 0.17202 0.71739 0.0
H1435 H 0.46683 0.2001 0.72204 0.0
H1436 H 0.43608 0.02248 0.69363 0.0
H1437 H 0.48381 0.0485 0.70499 0.0
H1438 H 0.38204 0.01684 0.70114 0.0
H1439 H 0.35625 0.03938 0.69332 0.0
C1440 C 0.85853 0.34415 0.70859 0.0
C1441 C 0.89469 0.3739 0.71776 0.0
C1442 C 0.92184 0.3323 0.71652 0.0
C1443 C 0.88835 0.30418 0.70324 0.0
N1444 N 0.82409 0.28526 0.68573 0.0
N1445 N 0.964 0.3993 0.72274 0.0
C1446 C 0.85678 0.311 0.69852 0.0
C1447 C 0.92753 0.36906 0.71873 0.0
N1448 N 0.82517 0.34607 0.71121 0.0
N1449 N 0.94618 0.3238 0.72957 0.0
H1450 H 0.96921 0.42691 0.72412 0.0
H1451 H 0.98914 0.39713 0.72186 0.0
H1452 H 0.93804 0.29647 0.73487 0.0
H1453 H 0.97011 0.34387 0.73997 0.0
H1454 H 0.79734 0.32333 0.7076 0.0
H1455 H 0.8246 0.36904 0.71933 0.0
H1456 H 0.8036 0.29168 0.67848 0.0
H1457 H 0.81744 0.25776 0.68188 0.0
C1458 C 0.21847 0.96817 0.63959 0.0
C1459 C 0.18013 0.96213 0.64123 0.0
C1460 C 0.20685 0.02469 0.66129 0.0
C1461 C 0.2458 0.03261 0.65597 0.0
N1462 N 0.28316 0.01501 0.62781 0.0
N1463 N 0.13851 0.98851 0.6493 0.0
C1464 C 0.2504 0.00533 0.64177 0.0
C1465 C 0.17431 0.99124 0.65119 0.0
N1466 N 0.22457 0.93867 0.63504 0.0
N1467 N 0.20042 0.04972 0.67467 0.0
H1468 H 0.11427 0.96543 0.64115 0.0
H1469 H 0.13369 0.01071 0.65357 0.0
H1470 H 0.22192 0.07743 0.6784 0.0
H1471 H 0.17328 0.04252 0.68242 0.0
H1472 H 0.25241 0.94178 0.63529 0.0
H1473 H 0.20167 0.91076 0.63386 0.0
H1474 H 0.28637 0.9955 0.61677 0.0
H1475 H 0.30266 0.04266 0.6226 0.0
C1476 C 0.04574 0.25711 0.65263 0.0
C1477 C 0.04423 0.22265 0.64682 0.0
C1478 C 0.97398 0.18802 0.65645 0.0
C1479 C 0.97429 0.22281 0.66091 0.0
N1480 N 0.01134 0.29132 0.65933 0.0
N1481 N 0.00984 0.15495 0.6495 0.0
C1482 C 0.01059 0.25755 0.65815 0.0
C1483 C 0.00938 0.18809 0.65104 0.0
N1484 N 0.08136 0.28946 0.6538 0.0
N1485 N 0.93952 0.15509 0.65387 0.0
H1486 H 0.03431 0.1535 0.64388 0.0
H1487 H 0.98713 0.12917 0.65597 0.0
H1488 H 0.91305 0.1538 0.65504 0.0
H1489 H 0.9368 0.12987 0.64729 0.0
H1490 H 0.08556 0.31497 0.66098 0.0
H1491 H 0.10746 0.28981 0.65005 0.0
H1492 H 0.03526 0.31692 0.65377 0.0
H1493 H 0.98751 0.29399 0.6647 0.0
C1494 C 0.75811 0.78526 0.63984 0.0
C1495 C 0.7822 0.82323 0.64706 0.0
C1496 C 0.82035 0.80276 0.67258 0.0
C1497 C 0.79974 0.76609 0.66076 0.0
N1498 N 0.76904 0.73958 0.62003 0.0
N1499 N 0.84288 0.86946 0.66683 0.0
C1500 C 0.77369 0.76145 0.64073 0.0
C1501 C 0.8151 0.83257 0.66278 0.0
N1502 N 0.72138 0.77231 0.63079 0.0
N1503 N 0.84623 0.81046 0.69191 0.0
H1504 H 0.84153 0.89202 0.65879 0.0
H1505 H 0.86925 0.87751 0.67603 0.0
H1506 H 0.85734 0.79328 0.69683 0.0
H1507 H 0.85662 0.83461 0.70323 0.0
H1508 H 0.70779 0.78835 0.63269 0.0
H1509 H 0.70363 0.74428 0.62499 0.0
H1510 H 0.75029 0.73657 0.60506 0.0
H1511 H 0.7906 0.73324 0.6153 0.0
C1512 C 0.95327 0.77277 0.62487 0.0
C1513 C 0.98313 0.78708 0.64369 0.0
C1514 C 0.93284 0.76428 0.67666 0.0
C1515 C 0.9048 0.74153 0.65857 0.0
N1516 N 0.88412 0.74714 0.61709 0.0
N1517 N 1.00074 0.79737 0.68846 0.0
C1518 C 0.91367 0.7524 0.63284 0.0
C1519 C 0.97285 0.78363 0.66989 0.0
N1520 N 0.96254 0.77829 0.59955 0.0
N1521 N 0.92085 0.77436 0.69783 0.0
H1522 H 0.03058 0.81073 0.68457 0.0
H1523 H 0.99362 0.79269 0.70778 0.0
H1524 H 0.89129 0.76492 0.7002 0.0
H1525 H 0.94003 0.79544 0.71029 0.0
H1526 H 0.94196 0.76483 0.58516 0.0
H1527 H 0.99106 0.79506 0.59293 0.0
H1528 H 0.88825 0.75711 0.59844 0.0
H1529 H 0.85618 0.73746 0.62446 0.0
C1530 C 0.24432 0.21338 0.66164 0.0
C1531 C 0.21261 0.18507 0.6474 0.0
C1532 C 0.24319 0.1456 0.64827 0.0
C1533 C 0.2754 0.17367 0.66263 0.0
N1534 N 0.31049 0.23836 0.67719 0.0
N1535 N 0.17625 0.12007 0.63431 0.0
C1536 C 0.27667 0.20848 0.66808 0.0
C1537 C 0.2103 0.14985 0.64318 0.0
N1538 N 0.24364 0.24504 0.66912 0.0
N1539 N 0.24603 0.1175 0.63621 0.0
H1540 H 0.15151 0.12218 0.63054 0.0
H1541 H 0.17126 0.09254 0.63346 0.0
H1542 H 0.27107 0.1155 0.63666 0.0
H1543 H 0.22547 0.09892 0.62318 0.0
H1544 H 0.26298 0.26428 0.68238 0.0
H1545 H 0.22176 0.25065 0.66377 0.0
H1546 H 0.31571 0.26591 0.67821 0.0
H1547 H 0.33467 0.2362 0.68241 0.0
C1548 C 0.81409 0.03043 0.63304 0.0
C1549 C 0.78358 0.0035 0.64844 0.0
C1550 C 0.79666 0.05203 0.6804 0.0
C1551 C 0.82423 0.08029 0.66356 0.0
N1552 N 0.85488 0.09576 0.6217 0.0
N1553 N 0.74291 0.98781 0.68565 0.0
C1554 C 0.83176 0.06933 0.63928 0.0
C1555 C 0.77439 0.01394 0.67197 0.0
N1556 N 0.82721 0.01867 0.61281 0.0
N1557 N 0.79084 0.06139 0.70429 0.0
H1558 H 0.72648 0.95946 0.68033 0.0
H1559 H 0.73122 0.99453 0.70124 0.0
H1560 H 0.80219 0.08897 0.71031 0.0
H1561 H 0.77612 0.04172 0.71863 0.0
H1562 H 0.8526 0.0365 0.60274 0.0
H1563 H 0.81495 0.99032 0.60763 0.0
H1564 H 0.85656 0.08925 0.6027 0.0
H1565 H 0.87036 0.12455 0.62526 0.0
C1566 C 0.45241 0.32342 0.69086 0.0
C1567 C 0.47225 0.33156 0.71444 0.0
C1568 C 0.4402 0.26416 0.72439 0.0
C1569 C 0.42185 0.25489 0.69987 0.0
N1570 N 0.41161 0.27721 0.65951 0.0
N1571 N 0.4935 0.31044 0.75035 0.0
C1572 C 0.42884 0.28502 0.6829 0.0
C1573 C 0.46881 0.30211 0.73006 0.0
N1574 N 0.45428 0.35236 0.67675 0.0
N1575 N 0.42922 0.23756 0.74306 0.0
H1576 H 0.51487 0.33805 0.75496 0.0
H1577 H 0.49564 0.28991 0.76079 0.0
H1578 H 0.40775 0.20965 0.74089 0.0
H1579 H 0.4385 0.2441 0.76192 0.0
H1580 H 0.43667 0.34857 0.66103 0.0
H1581 H 0.47227 0.38071 0.68162 0.0
H1582 H 0.42005 0.29682 0.64481 0.0
H1583 H 0.38928 0.25063 0.65452 0.0
C1584 C 0.7313 0.19163 0.71793 0.0
C1585 C 0.69646 0.15745 0.71249 0.0
C1586 C 0.73539 0.13334 0.69141 0.0
C1587 C 0.77071 0.16707 0.69793 0.0
N1588 N 0.80032 0.2215 0.72587 0.0
N1589 N 0.66453 0.09926 0.68864 0.0
C1590 C 0.76823 0.19481 0.71306 0.0
C1591 C 0.69825 0.12955 0.69736 0.0
N1592 N 0.7291 0.22148 0.72771 0.0
N1593 N 0.73727 0.10309 0.68203 0.0
H1594 H 0.63688 0.09438 0.69349 0.0
H1595 H 0.66394 0.08069 0.67481 0.0
H1596 H 0.7635 0.10436 0.67744 0.0
H1597 H 0.71319 0.07603 0.68026 0.0
H1598 H 0.75333 0.24851 0.72954 0.0
H1599 H 0.70248 0.22018 0.73128 0.0
H1600 H 0.79932 0.23953 0.73952 0.0
H1601 H 0.82721 0.22295 0.72511 0.0
C1602 C 0.88836 0.56413 0.68842 0.0
C1603 C 0.87483 0.54459 0.71175 0.0
C1604 C 0.82619 0.56453 0.7156 0.0
C1605 C 0.84251 0.58746 0.69352 0.0
N1606 N 0.89144 0.61211 0.66024 0.0
N1607 N 0.82908 0.52163 0.74654 0.0
C1608 C 0.87374 0.58758 0.67998 0.0
C1609 C 0.84306 0.54338 0.72505 0.0
N1610 N 0.91495 0.5599 0.67422 0.0
N1611 N 0.79487 0.5635 0.72756 0.0
H1612 H 0.84059 0.50546 0.75361 0.0
H1613 H 0.80593 0.51878 0.75755 0.0
H1614 H 0.78107 0.57771 0.72082 0.0
H1615 H 0.78163 0.54843 0.74402 0.0
H1616 H 0.92259 0.56966 0.65561 0.0
H1617 H 0.92722 0.54385 0.68025 0.0
H1618 H 0.91747 0.61717 0.65184 0.0
H1619 H 0.88182 0.62972 0.65322 0.0
C1620 C 0.44222 0.89834 0.20784 0.0
C1621 C 0.4604 0.92275 0.22895 0.0
C1622 C 0.47704 0.97768 0.20175 0.0
C1623 C 0.45271 0.95298 0.18227 0.0
N1624 N 0.41389 0.89006 0.16552 0.0
N1625 N 0.49759 0.9855 0.24614 0.0
C1626 C 0.43652 0.91335 0.18475 0.0
C1627 C 0.47922 0.9625 0.22577 0.0
N1628 N 0.42995 0.86074 0.21013 0.0
N1629 N 0.49773 0.01565 0.19715 0.0
H1630 H 0.5012 0.97514 0.26347 0.0
H1631 H 0.5081 0.01446 0.2463 0.0
H1632 H 0.4965 0.02716 0.17967 0.0
H1633 H 0.51836 0.03536 0.20961 0.0
H1634 H 0.41944 0.84168 0.19501 0.0
H1635 H 0.43321 0.849 0.22691 0.0
H1636 H 0.39715 0.86081 0.16704 0.0
H1637 H 0.41064 0.90028 0.14804 0.0
C1638 C 0.04596 0.51641 0.22496 0.0
C1639 C 0.08668 0.53409 0.2298 0.0
C1640 C 0.09824 0.51895 0.18664 0.0
C1641 C 0.05733 0.49943 0.18239 0.0
N1642 N 0.99357 0.48835 0.19382 0.0
N1643 N 0.15241 0.56095 0.21407 0.0
C1644 C 0.03168 0.50141 0.20033 0.0
C1645 C 0.11316 0.53844 0.2101 0.0
N1646 N 0.02078 0.51182 0.24433 0.0
N1647 N 0.1224 0.51715 0.16875 0.0
H1648 H 0.16381 0.57537 0.23119 0.0
H1649 H 0.17339 0.56785 0.19993 0.0
H1650 H 0.11233 0.50444 0.15097 0.0
H1651 H 0.15195 0.52689 0.17173 0.0
H1652 H 0.99056 0.49503 0.24292 0.0
H1653 H 0.03013 0.52315 0.26251 0.0
H1654 H 0.97404 0.49194 0.20513 0.0
H1655 H 0.98242 0.47689 0.17591 0.0
C1656 C 0.48777 0.57991 0.21186 0.0
C1657 C 0.47468 0.55096 0.2305 0.0
C1658 C 0.49265 0.51457 0.20194 0.0
C1659 C 0.51306 0.54676 0.18616 0.0
N1660 N 0.53168 0.61131 0.17652 0.0
N1661 N 0.46751 0.49133 0.24412 0.0
C1662 C 0.51064 0.57966 0.19099 0.0
C1663 C 0.47724 0.51808 0.22563 0.0
N1664 N 0.47804 0.60746 0.21409 0.0
N1665 N 0.48779 0.48059 0.19416 0.0
H1666 H 0.45711 0.493 0.26203 0.0
H1667 H 0.47289 0.46898 0.24245 0.0
H1668 H 0.49851 0.47715 0.17678 0.0
H1669 H 0.46978 0.45531 0.20363 0.0
H1670 H 0.48374 0.62746 0.19999 0.0
H1671 H 0.46067 0.60787 0.22895 0.0
H1672 H 0.53448 0.63736 0.181 0.0
H1673 H 0.54882 0.61238 0.16107 0.0
C1674 C 0.90657 0.42628 0.81443 0.0
C1675 C 0.92592 0.45421 0.79538 0.0
C1676 C 0.9779 0.49219 0.82587 0.0
C1677 C 0.96328 0.46067 0.84233 0.0
N1678 N 0.91357 0.39682 0.85251 0.0
N1679 N 0.98267 0.51308 0.78239 0.0
C1680 C 0.92717 0.42759 0.83694 0.0
C1681 C 0.96196 0.48744 0.80104 0.0
N1682 N 0.86856 0.39866 0.81092 0.0
N1683 N 0.00724 0.52656 0.83397 0.0
H1684 H 0.9734 0.51026 0.76355 0.0
H1685 H 0.01095 0.53555 0.7851 0.0
H1686 H 0.0193 0.53075 0.8522 0.0
H1687 H 0.01652 0.5514 0.82369 0.0
H1688 H 0.85183 0.37935 0.82501 0.0
H1689 H 0.85264 0.39757 0.79477 0.0
H1690 H 0.88978 0.37052 0.84792 0.0
H1691 H 0.92763 0.39685 0.86932 0.0
C1692 C 0.527 0.48273 0.80352 0.0
C1693 C 0.55866 0.47752 0.79633 0.0
C1694 C 0.58646 0.49567 0.8393 0.0
C1695 C 0.55876 0.50689 0.84484 0.0
N1696 N 0.49612 0.50053 0.83677 0.0
N1697 N 0.61577 0.47407 0.80756 0.0
C1698 C 0.52664 0.49664 0.8284 0.0
C1699 C 0.5871 0.48168 0.81454 0.0
N1700 N 0.49891 0.47678 0.78599 0.0
N1701 N 0.61178 0.49831 0.85795 0.0
H1702 H 0.61564 0.46189 0.79003 0.0
H1703 H 0.6401 0.48049 0.81865 0.0
H1704 H 0.61155 0.50855 0.87615 0.0
H1705 H 0.63056 0.48757 0.85627 0.0
H1706 H 0.47695 0.48326 0.78896 0.0
H1707 H 0.49805 0.46617 0.76777 0.0
H1708 H 0.47021 0.49131 0.82677 0.0
H1709 H 0.49559 0.51053 0.855 0.0
C1710 C 0.53943 0.05277 0.79836 0.0
C1711 C 0.53577 0.0846 0.79181 0.0
C1712 C 0.49982 0.0769 0.8319 0.0
C1713 C 0.50378 0.0453 0.83835 0.0
N1714 N 0.53872 0.01191 0.83208 0.0
N1715 N 0.52345 0.13364 0.80631 0.0
C1716 C 0.52755 0.03632 0.82302 0.0
C1717 C 0.51956 0.09886 0.80996 0.0
N1718 N 0.55138 0.03623 0.78059 0.0
N1719 N 0.47575 0.08492 0.84591 0.0
H1720 H 0.53867 0.15075 0.79084 0.0
H1721 H 0.51525 0.14701 0.81985 0.0
H1722 H 0.46123 0.06986 0.86222 0.0
H1723 H 0.46811 0.10479 0.84038 0.0
H1724 H 0.55064 0.01075 0.7837 0.0
H1725 H 0.55847 0.04574 0.7619 0.0
H1726 H 0.5592 0.00711 0.8229 0.0
H1727 H 0.53065 -0.00029 0.85014 0.0
C1728 C 0.10275 0.22348 0.54619 0.0
C1729 C 0.12134 0.24931 0.56656 0.0
C1730 C 0.13989 0.3024 0.53706 0.0
C1731 C 0.11545 0.27663 0.5181 0.0
N1732 N 0.07513 0.21278 0.50345 0.0
N1733 N 0.15924 0.31335 0.58167 0.0
C1734 C 0.09798 0.23712 0.52217 0.0
C1735 C 0.14105 0.28884 0.56192 0.0
N1736 N 0.08934 0.18592 0.55002 0.0
N1737 N 0.16156 0.33992 0.5312 0.0
H1738 H 0.16211 0.30438 0.59973 0.0
H1739 H 0.17009 0.34232 0.58061 0.0
H1740 H 0.16098 0.35027 0.51315 0.0
H1741 H 0.18242 0.36022 0.54327 0.0
H1742 H 0.07836 0.16571 0.5356 0.0
H1743 H 0.09205 0.17531 0.56749 0.0
H1744 H 0.05765 0.18374 0.50591 0.0
H1745 H 0.07267 0.22204 0.4854 0.0
C1746 C 0.75651 0.88829 0.54793 0.0
C1747 C 0.74211 0.86216 0.56849 0.0
C1748 C 0.70046 0.81204 0.53888 0.0
C1749 C 0.70876 0.83888 0.51951 0.0
N1750 N 0.74217 0.90427 0.50632 0.0
N1751 N 0.68938 0.80272 0.58381 0.0
C1752 C 0.73641 0.87762 0.52407 0.0
C1753 C 0.71124 0.82482 0.56405 0.0
N1754 N 0.7893 0.92279 0.55103 0.0
N1755 N 0.6812 0.77433 0.53341 0.0
H1756 H 0.69177 0.81384 0.60203 0.0
H1757 H 0.66512 0.77587 0.58122 0.0
H1758 H 0.67346 0.76409 0.51482 0.0
H1759 H 0.67699 0.75402 0.54698 0.0
H1760 H 0.8028 0.94163 0.53604 0.0
H1761 H 0.8049 0.93109 0.56809 0.0
H1762 H 0.75883 0.93319 0.50984 0.0
H1763 H 0.72797 0.89754 0.48875 0.0
C1764 C 0.13762 0.90632 0.54397 0.0
C1765 C 0.13162 0.8805 0.56385 0.0
C1766 C 0.15038 0.8453 0.53482 0.0
C1767 C 0.16435 0.87549 0.51724 0.0
N1768 N 0.17216 0.93569 0.50488 0.0
N1769 N 0.13502 0.8263 0.57883 0.0
C1770 C 0.15759 0.90601 0.52149 0.0
C1771 C 0.13795 0.8497 0.55934 0.0
N1772 N 0.12419 0.93105 0.54669 0.0
N1773 N 0.14944 0.8126 0.52805 0.0
H1774 H 0.12713 0.82889 0.59735 0.0
H1775 H 0.14362 0.80615 0.57716 0.0
H1776 H 0.15838 0.8088 0.5101 0.0
H1777 H 0.13615 0.7882 0.53912 0.0
H1778 H 0.12459 0.94836 0.53203 0.0
H1779 H 0.10909 0.93151 0.56291 0.0
H1780 H 0.17223 0.96074 0.50857 0.0
H1781 H 0.18645 0.93629 0.48803 0.0
C1782 C 0.5759 0.76343 0.14638 0.0
C1783 C 0.59501 0.79207 0.12774 0.0
C1784 C 0.64665 0.82939 0.15852 0.0
C1785 C 0.63262 0.79721 0.17431 0.0
N1786 N 0.58368 0.73256 0.18338 0.0
N1787 N 0.65143 0.85173 0.11549 0.0
C1788 C 0.59675 0.76405 0.16857 0.0
C1789 C 0.63078 0.82536 0.13376 0.0
N1790 N 0.53799 0.73567 0.14269 0.0
N1791 N 0.67537 0.8637 0.16718 0.0
H1792 H 0.64243 0.84947 0.09662 0.0
H1793 H 0.67956 0.87433 0.1185 0.0
H1794 H 0.68731 0.86738 0.18541 0.0
H1795 H 0.68411 0.88884 0.15739 0.0
H1796 H 0.52144 0.71574 0.15652 0.0
H1797 H 0.52196 0.73507 0.12672 0.0
H1798 H 0.55993 0.70643 0.17845 0.0
H1799 H 0.59814 0.7318 0.19976 0.0
C1800 C 0.20804 0.78555 0.14763 0.0
C1801 C 0.2412 0.80854 0.13244 0.0
C1802 C 0.26337 0.85806 0.1649 0.0
C1803 C 0.2247 0.84014 0.17477 0.0
N1804 N 0.16076 0.78408 0.17741 0.0
N1805 N 0.30986 0.84952 0.13975 0.0
C1806 C 0.19728 0.80279 0.16698 0.0
C1807 C 0.27225 0.84011 0.14487 0.0
N1808 N 0.19098 0.74722 0.14639 0.0
N1809 N 0.2912 0.89232 0.17418 0.0
H1810 H 0.31616 0.83322 0.12738 0.0
H1811 H 0.33384 0.87014 0.14978 0.0
H1812 H 0.28613 0.90545 0.1896 0.0
H1813 H 0.3186 0.90829 0.16578 0.0
H1814 H 0.16883 0.72909 0.15876 0.0
H1815 H 0.20299 0.73436 0.13527 0.0
H1816 H 0.13886 0.75816 0.17039 0.0
H1817 H 0.15177 0.79552 0.1919 0.0
C1818 C 0.1663 0.37886 0.12888 0.0
C1819 C 0.19761 0.41675 0.12754 0.0
C1820 C 0.20941 0.4149 0.1734 0.0
C1821 C 0.17644 0.37775 0.17476 0.0
N1822 N 0.11651 0.33032 0.15539 0.0
N1823 N 0.24281 0.47384 0.14976 0.0
C1824 C 0.15251 0.36186 0.15299 0.0
C1825 C 0.21726 0.43581 0.15023 0.0
N1826 N 0.15111 0.35816 0.10712 0.0
N1827 N 0.23433 0.42954 0.19362 0.0
H1828 H 0.2491 0.48985 0.13316 0.0
H1829 H 0.25496 0.48989 0.16618 0.0
H1830 H 0.22992 0.41501 0.21068 0.0
H1831 H 0.26087 0.45484 0.19277 0.0
H1832 H 0.13068 0.32936 0.10726 0.0
H1833 H 0.16213 0.36856 0.08903 0.0
H1834 H 0.09648 0.31941 0.14045 0.0
H1835 H 0.1052 0.31769 0.17301 0.0
C1836 C 0.82048 0.6067 0.889 0.0
C1837 C 0.78408 0.57596 0.89735 0.0
C1838 C 0.75389 0.57808 0.8569 0.0
C1839 C 0.79018 0.60876 0.84881 0.0
N1840 N 0.85999 0.64319 0.85302 0.0
N1841 N 0.72034 0.52482 0.88558 0.0
C1842 C 0.8242 0.61965 0.86345 0.0
C1843 C 0.75214 0.55911 0.88002 0.0
N1844 N 0.85053 0.62572 0.9058 0.0
N1845 N 0.72076 0.56834 0.8433 0.0
H1846 H 0.71874 0.50973 0.90199 0.0
H1847 H 0.69767 0.50972 0.87272 0.0
H1848 H 0.72108 0.58084 0.82593 0.0
H1849 H 0.69284 0.54954 0.85004 0.0
H1850 H 0.87611 0.65056 0.90113 0.0
H1851 H 0.84872 0.61912 0.92509 0.0
H1852 H 0.88615 0.6495 0.86187 0.0
H1853 H 0.86317 0.65301 0.83432 0.0
C1854 C 0.43838 0.19825 0.87903 0.0
C1855 C 0.41442 0.19934 0.89874 0.0
C1856 C 0.35817 0.17146 0.86999 0.0
C1857 C 0.38023 0.1637 0.85225 0.0
N1858 N 0.44129 0.16855 0.83965 0.0
N1859 N 0.35046 0.1842 0.91394 0.0
C1860 C 0.42059 0.17734 0.85645 0.0
C1861 C 0.37413 0.18582 0.89438 0.0
N1862 N 0.47802 0.21707 0.8821 0.0
N1863 N 0.32187 0.16495 0.86346 0.0
H1864 H 0.36067 0.19435 0.93221 0.0
H1865 H 0.32011 0.17017 0.91258 0.0
H1866 H 0.30945 0.15451 0.84561 0.0
H1867 H 0.30586 0.17338 0.87469 0.0
H1868 H 0.49747 0.22019 0.86763 0.0
H1869 H 0.49156 0.2326 0.89852 0.0
H1870 H 0.46959 0.17406 0.84311 0.0
H1871 H 0.4293 0.15349 0.82285 0.0
C1872 C 0.85172 0.23259 0.89474 0.0
C1873 C 0.81182 0.22185 0.89869 0.0
C1874 C 0.79702 0.19517 0.85537 0.0
C1875 C 0.83732 0.20809 0.85149 0.0
N1876 N 0.9035 0.25209 0.86377 0.0
N1877 N 0.74934 0.20352 0.8793 0.0
C1878 C 0.86478 0.23161 0.86987 0.0
C1879 C 0.78522 0.20644 0.87789 0.0
N1880 N 0.87655 0.24025 0.9148 0.0
N1881 N 0.76996 0.17116 0.83823 0.0
H1882 H 0.74063 0.21332 0.89493 0.0
H1883 H 0.73012 0.19521 0.86392 0.0
H1884 H 0.77761 0.16272 0.82146 0.0
H1885 H 0.73997 0.15777 0.84156 0.0
H1886 H 0.90514 0.24578 0.91257 0.0
H1887 H 0.86719 0.23577 0.93366 0.0
H1888 H 0.9243 0.27205 0.87612 0.0
H1889 H 0.91377 0.25205 0.84542 0.0
C1890 C 0.24182 0.11063 0.48415 0.0
C1891 C 0.2632 0.11643 0.46126 0.0
C1892 C 0.3228 0.13638 0.48584 0.0
C1893 C 0.30326 0.13736 0.50819 0.0
N1894 N 0.24412 0.1275 0.52873 0.0
N1895 N 0.32549 0.14083 0.43999 0.0
C1896 C 0.26253 0.12454 0.50754 0.0
C1897 C 0.30407 0.13067 0.462 0.0
N1898 N 0.20191 0.0917 0.48351 0.0
N1899 N 0.35938 0.14094 0.48749 0.0
H1900 H 0.31324 0.13859 0.42205 0.0
H1901 H 0.35592 0.15511 0.43977 0.0
H1902 H 0.37362 0.14445 0.50488 0.0
H1903 H 0.37366 0.13718 0.47203 0.0
H1904 H 0.18458 0.08324 0.49984 0.0
H1905 H 0.18612 0.08163 0.46659 0.0
H1906 H 0.21553 0.12234 0.5286 0.0
H1907 H 0.25822 0.13764 0.54614 0.0
C1908 C 0.86099 0.13199 0.4705 0.0
C1909 C 0.89806 0.13812 0.46244 0.0
C1910 C 0.92823 0.17441 0.5014 0.0
C1911 C 0.89126 0.16856 0.50913 0.0
N1912 N 0.82127 0.1318 0.50581 0.0
N1913 N 0.96374 0.15439 0.4738 0.0
C1914 C 0.85721 0.14371 0.4953 0.0
C1915 C 0.93065 0.15571 0.4792 0.0
N1916 N 0.83015 0.11787 0.45397 0.0
N1917 N 0.96111 0.19907 0.51453 0.0
H1918 H 0.96586 0.14005 0.45795 0.0
H1919 H 0.98735 0.16412 0.48624 0.0
H1920 H 0.96018 0.21242 0.53127 0.0
H1921 H 0.98931 0.20793 0.50804 0.0
H1922 H 0.80388 0.11683 0.45815 0.0
H1923 H 0.83161 0.11022 0.43524 0.0
H1924 H 0.7954 0.11075 0.4977 0.0
H1925 H 0.81776 0.14018 0.52396 0.0
C1926 C 0.85451 0.76435 0.47735 0.0
C1927 C 0.87154 0.75178 0.45862 0.0
C1928 C 0.8683 0.70501 0.48934 0.0
C1929 C 0.84355 0.71181 0.50529 0.0
N1930 N 0.81116 0.74735 0.5138 0.0
N1931 N 0.89028 0.70595 0.44626 0.0
C1932 C 0.8365 0.74169 0.49933 0.0
C1933 C 0.87793 0.72137 0.4646 0.0
N1934 N 0.85604 0.79821 0.47429 0.0
N1935 N 0.88245 0.68268 0.49786 0.0
H1936 H 0.8953 0.71503 0.4274 0.0
H1937 H 0.89167 0.68148 0.44915 0.0
H1938 H 0.8761 0.67065 0.51602 0.0
H1939 H 0.90366 0.67963 0.48808 0.0
H1940 H 0.84708 0.81035 0.48828 0.0
H1941 H 0.87012 0.81599 0.45886 0.0
H1942 H 0.80148 0.76584 0.5086 0.0
H1943 H 0.79759 0.7316 0.53008 0.0
loop_
_geom_bond_atom_site_label_1
_geom_bond_atom_site_label_2
_geom_bond_distance
_geom_bond_site_symmetry_2
_ccdc_geom_bond_type
H0 C5 0.930 . S
H1 C8 0.930 . S
H2 C10 0.930 . S
H3 C4 1.016 . S
C4 H3 1.016 . S
C4 N11 1.286 . S
C5 H0 0.930 . S
C5 C6 1.397 . S
C5 C7 1.361 . S
C6 C5 1.397 . S
C6 C10 1.390 . S
C7 C5 1.361 . S
C7 C8 1.393 . S
C7 N11 1.413 . S
C8 H1 0.930 . S
C8 C7 1.393 . S
C8 C9 1.399 . S
C9 C8 1.399 . S
C9 C10 1.381 . S
C10 H2 0.930 . S
C10 C6 1.390 . S
C10 C9 1.381 . S
N11 C4 1.286 . S
N11 C7 1.413 . S
H12 C17 0.930 . S
H13 C20 0.930 . S
H14 C22 0.930 . S
H15 C16 1.016 . S
C16 H15 1.016 . S
C16 N23 1.286 . S
C17 H12 0.930 . S
C17 C18 1.397 . S
C17 C19 1.361 . S
C18 C17 1.397 . S
C18 C22 1.390 . S
C19 C17 1.361 . S
C19 C20 1.393 . S
C19 N23 1.413 . S
C20 H13 0.930 . S
C20 C19 1.393 . S
C20 C21 1.399 . S
C21 C20 1.399 . S
C21 C22 1.381 . S
C22 H14 0.930 . S
C22 C18 1.390 . S
C22 C21 1.381 . S
N23 C16 1.286 . S
N23 C19 1.413 . S
H24 C29 0.930 . S
H25 C32 0.930 . S
H26 C34 0.930 . S
H27 C28 1.016 . S
C28 H27 1.016 . S
C28 N35 1.286 . S
C29 H24 0.930 . S
C29 C30 1.397 . S
C29 C31 1.361 . S
C30 C29 1.397 . S
C30 C34 1.390 . S
C31 C29 1.361 . S
C31 C32 1.393 . S
C31 N35 1.413 . S
C32 H25 0.930 . S
C32 C31 1.393 . S
C32 C33 1.399 . S
C33 C32 1.399 . S
C33 C34 1.381 . S
C34 H26 0.930 . S
C34 C30 1.390 . S
C34 C33 1.381 . S
N35 C28 1.286 . S
N35 C31 1.413 . S
H36 C41 0.930 . S
H37 C44 0.930 . S
H38 C46 0.930 . S
H39 C40 1.016 . S
C40 H39 1.016 . S
C40 N47 1.286 . S
C41 H36 0.930 . S
C41 C42 1.397 . S
C41 C43 1.361 . S
C42 C41 1.397 . S
C42 C46 1.390 . S
C43 C41 1.361 . S
C43 C44 1.393 . S
C43 N47 1.413 . S
C44 H37 0.930 . S
C44 C43 1.393 . S
C44 C45 1.399 . S
C45 C44 1.399 . S
C45 C46 1.381 . S
C46 H38 0.930 . S
C46 C42 1.390 . S
C46 C45 1.381 . S
N47 C40 1.286 . S
N47 C43 1.413 . S
H48 C53 0.930 . S
H49 C56 0.930 . S
H50 C58 0.930 . S
H51 C52 1.016 . S
C52 H51 1.016 . S
C52 N59 1.286 . S
C53 H48 0.930 . S
C53 C54 1.397 . S
C53 C55 1.361 . S
C54 C53 1.397 . S
C54 C58 1.390 . S
C55 C53 1.361 . S
C55 C56 1.393 . S
C55 N59 1.413 . S
C56 H49 0.930 . S
C56 C55 1.393 . S
C56 C57 1.399 . S
C57 C56 1.399 . S
C57 C58 1.381 . S
C58 H50 0.930 . S
C58 C54 1.390 . S
C58 C57 1.381 . S
N59 C52 1.286 . S
N59 C55 1.413 . S
H60 C65 0.930 . S
H61 C68 0.930 . S
H62 C70 0.930 . S
H63 C64 1.016 . S
C64 H63 1.016 . S
C64 N71 1.286 . S
C65 H60 0.930 . S
C65 C66 1.397 . S
C65 C67 1.361 . S
C66 C65 1.397 . S
C66 C70 1.390 . S
C67 C65 1.361 . S
C67 C68 1.393 . S
C67 N71 1.413 . S
C68 H61 0.930 . S
C68 C67 1.393 . S
C68 C69 1.399 . S
C69 C68 1.399 . S
C69 C70 1.381 . S
C70 H62 0.930 . S
C70 C66 1.390 . S
C70 C69 1.381 . S
N71 C64 1.286 . S
N71 C67 1.413 . S
H72 C77 0.930 . S
H73 C80 0.930 . S
H74 C82 0.930 . S
H75 C76 1.016 . S
C76 H75 1.016 . S
C76 N83 1.286 . S
C77 H72 0.930 . S
C77 C78 1.397 . S
C77 C79 1.361 . S
C78 C77 1.397 . S
C78 C82 1.390 . S
C79 C77 1.361 . S
C79 C80 1.393 . S
C79 N83 1.413 . S
C80 H73 0.930 . S
C80 C79 1.393 . S
C80 C81 1.399 . S
C81 C80 1.399 . S
C81 C82 1.381 . S
C82 H74 0.930 . S
C82 C78 1.390 . S
C82 C81 1.381 . S
N83 C76 1.286 . S
N83 C79 1.413 . S
H84 C89 0.930 . S
H85 C92 0.930 . S
H86 C94 0.930 . S
H87 C88 1.016 . S
C88 H87 1.016 . S
C88 N95 1.286 . S
C89 H84 0.930 . S
C89 C90 1.397 . S
C89 C91 1.361 . S
C90 C89 1.397 . S
C90 C94 1.390 . S
C91 C89 1.361 . S
C91 C92 1.393 . S
C91 N95 1.413 . S
C92 H85 0.930 . S
C92 C91 1.393 . S
C92 C93 1.399 . S
C93 C92 1.399 . S
C93 C94 1.381 . S
C94 H86 0.930 . S
C94 C90 1.390 . S
C94 C93 1.381 . S
N95 C88 1.286 . S
N95 C91 1.413 . S
H96 C101 0.930 . S
H97 C104 0.930 . S
H98 C106 0.930 . S
H99 C100 1.016 . S
C100 H99 1.016 . S
C100 N107 1.286 . S
C101 H96 0.930 . S
C101 C102 1.397 . S
C101 C103 1.361 . S
C102 C101 1.397 . S
C102 C106 1.390 . S
C103 C101 1.361 . S
C103 C104 1.393 . S
C103 N107 1.413 . S
C104 H97 0.930 . S
C104 C103 1.393 . S
C104 C105 1.399 . S
C105 C104 1.399 . S
C105 C106 1.381 . S
C106 H98 0.930 . S
C106 C102 1.390 . S
C106 C105 1.381 . S
N107 C100 1.286 . S
N107 C103 1.413 . S
H108 C113 0.930 . S
H109 C116 0.930 . S
H110 C118 0.930 . S
H111 C112 1.016 . S
C112 H111 1.016 . S
C112 N119 1.286 . S
C113 H108 0.930 . S
C113 C114 1.397 . S
C113 C115 1.361 . S
C114 C113 1.397 . S
C114 C118 1.390 . S
C115 C113 1.361 . S
C115 C116 1.393 . S
C115 N119 1.413 . S
C116 H109 0.930 . S
C116 C115 1.393 . S
C116 C117 1.399 . S
C117 C116 1.399 . S
C117 C118 1.381 . S
C118 H110 0.930 . S
C118 C114 1.390 . S
C118 C117 1.381 . S
N119 C112 1.286 . S
N119 C115 1.413 . S
H120 C125 0.930 . S
H121 C128 0.930 . S
H122 C130 0.930 . S
H123 C124 1.016 . S
C124 H123 1.016 . S
C124 N131 1.286 . S
C125 H120 0.930 . S
C125 C126 1.397 . S
C125 C127 1.361 . S
C126 C125 1.397 . S
C126 C130 1.390 . S
C127 C125 1.361 . S
C127 C128 1.393 . S
C127 N131 1.413 . S
C128 H121 0.930 . S
C128 C127 1.393 . S
C128 C129 1.399 . S
C129 C128 1.399 . S
C129 C130 1.381 . S
C130 H122 0.930 . S
C130 C126 1.390 . S
C130 C129 1.381 . S
N131 C124 1.286 . S
N131 C127 1.413 . S
H132 C137 0.930 . S
H133 C140 0.930 . S
H134 C142 0.930 . S
H135 C136 1.016 . S
C136 H135 1.016 . S
C136 N143 1.286 . S
C137 H132 0.930 . S
C137 C138 1.397 . S
C137 C139 1.361 . S
C138 C137 1.397 . S
C138 C142 1.390 . S
C139 C137 1.361 . S
C139 C140 1.393 . S
C139 N143 1.413 . S
C140 H133 0.930 . S
C140 C139 1.393 . S
C140 C141 1.399 . S
C141 C140 1.399 . S
C141 C142 1.381 . S
C142 H134 0.930 . S
C142 C138 1.390 . S
C142 C141 1.381 . S
N143 C136 1.286 . S
N143 C139 1.413 . S
H144 C149 0.930 . S
H145 C152 0.930 . S
H146 C154 0.930 . S
H147 C148 1.016 . S
C148 H147 1.016 . S
C148 N155 1.286 . S
C149 H144 0.930 . S
C149 C150 1.397 . S
C149 C151 1.361 . S
C150 C149 1.397 . S
C150 C154 1.390 . S
C151 C149 1.361 . S
C151 C152 1.393 . S
C151 N155 1.413 . S
C152 H145 0.930 . S
C152 C151 1.393 . S
C152 C153 1.399 . S
C153 C152 1.399 . S
C153 C154 1.381 . S
C154 H146 0.930 . S
C154 C150 1.390 . S
C154 C153 1.381 . S
N155 C148 1.286 . S
N155 C151 1.413 . S
H156 C161 0.930 . S
H157 C164 0.930 . S
H158 C166 0.930 . S
H159 C160 1.016 . S
C160 H159 1.016 . S
C160 N167 1.286 . S
C161 H156 0.930 . S
C161 C162 1.397 . S
C161 C163 1.361 . S
C162 C161 1.397 . S
C162 C166 1.390 . S
C163 C161 1.361 . S
C163 C164 1.393 . S
C163 N167 1.413 . S
C164 H157 0.930 . S
C164 C163 1.393 . S
C164 C165 1.399 . S
C165 C164 1.399 . S
C165 C166 1.381 . S
C166 H158 0.930 . S
C166 C162 1.390 . S
C166 C165 1.381 . S
N167 C160 1.286 . S
N167 C163 1.413 . S
H168 C173 0.930 . S
H169 C176 0.930 . S
H170 C178 0.930 . S
H171 C172 1.016 . S
C172 H171 1.016 . S
C172 N179 1.286 . S
C173 H168 0.930 . S
C173 C174 1.397 . S
C173 C175 1.361 . S
C174 C173 1.397 . S
C174 C178 1.390 . S
C175 C173 1.361 . S
C175 C176 1.393 . S
C175 N179 1.413 . S
C176 H169 0.930 . S
C176 C175 1.393 . S
C176 C177 1.399 . S
C177 C176 1.399 . S
C177 C178 1.381 . S
C178 H170 0.930 . S
C178 C174 1.390 . S
C178 C177 1.381 . S
N179 C172 1.286 . S
N179 C175 1.413 . S
H180 C185 0.930 . S
H181 C188 0.930 . S
H182 C190 0.930 . S
H183 C184 1.016 . S
C184 H183 1.016 . S
C184 N191 1.286 . S
C185 H180 0.930 . S
C185 C186 1.397 . S
C185 C187 1.361 . S
C186 C185 1.397 . S
C186 C190 1.390 . S
C187 C185 1.361 . S
C187 C188 1.393 . S
C187 N191 1.413 . S
C188 H181 0.930 . S
C188 C187 1.393 . S
C188 C189 1.399 . S
C189 C188 1.399 . S
C189 C190 1.381 . S
C190 H182 0.930 . S
C190 C186 1.390 . S
C190 C189 1.381 . S
N191 C184 1.286 . S
N191 C187 1.413 . S
H192 C197 0.930 . S
H193 C200 0.930 . S
H194 C202 0.930 . S
H195 C196 1.016 . S
C196 H195 1.016 . S
C196 N203 1.286 . S
C197 H192 0.930 . S
C197 C198 1.397 . S
C197 C199 1.361 . S
C198 C197 1.397 . S
C198 C202 1.390 . S
C199 C197 1.361 . S
C199 C200 1.393 . S
C199 N203 1.413 . S
C200 H193 0.930 . S
C200 C199 1.393 . S
C200 C201 1.399 . S
C201 C200 1.399 . S
C201 C202 1.381 . S
C202 H194 0.930 . S
C202 C198 1.390 . S
C202 C201 1.381 . S
N203 C196 1.286 . S
N203 C199 1.413 . S
H204 C209 0.930 . S
H205 C212 0.930 . S
H206 C214 0.930 . S
H207 C208 1.016 . S
C208 H207 1.016 . S
C208 N215 1.286 . S
C209 H204 0.930 . S
C209 C210 1.397 . S
C209 C211 1.361 . S
C210 C209 1.397 . S
C210 C214 1.390 . S
C211 C209 1.361 . S
C211 C212 1.393 . S
C211 N215 1.413 . S
C212 H205 0.930 . S
C212 C211 1.393 . S
C212 C213 1.399 . S
C213 C212 1.399 . S
C213 C214 1.381 . S
C214 H206 0.930 . S
C214 C210 1.390 . S
C214 C213 1.381 . S
N215 C208 1.286 . S
N215 C211 1.413 . S
Eu216 N247 2.657 . S
Eu216 N254 2.609 . S
Eu216 O260 2.558 . S
Eu216 O261 2.612 1_566 S
Eu216 O263 2.339 1_565 S
Eu216 O264 2.563 1_565 S
Eu216 O265 2.419 1_565 S
Eu216 O267 2.380 1_556 S
Eu216 O268 2.432 . S
Eu216 C280 2.848 . S
C217 C220 1.429 . S
C217 C221 1.411 . S
C217 N224 1.377 . S
C218 C220 1.420 . S
C218 C222 1.423 . S
C218 C230 1.392 . S
C219 C221 1.420 . S
C219 C222 1.351 . S
C219 H242 0.931 . S
C220 C217 1.429 . S
C220 C218 1.420 . S
C220 N228 1.362 . S
C221 C217 1.411 . S
C221 C219 1.420 . S
C221 C226 1.395 . S
C222 C218 1.423 . S
C222 C219 1.351 . S
C222 H234 0.930 . S
C223 C225 1.400 . S
C223 C226 1.386 . S
C223 H235 0.930 . S
N224 C217 1.377 . S
N224 C225 1.321 . S
N224 Eu227 2.609 . S
C225 C223 1.400 . S
C225 N224 1.321 . S
C225 H232 0.930 . S
C226 C221 1.395 . S
C226 C223 1.386 . S
C226 H245 0.930 . S
Eu227 N224 2.609 . S
Eu227 N228 2.657 . S
Eu227 O261 2.380 . S
Eu227 O262 2.432 . S
Eu227 O266 2.558 . S
Eu227 O267 2.612 1_545 S
Eu227 O269 2.339 1_545 S
Eu227 O270 2.563 1_545 S
Eu227 O271 2.419 1_545 S
Eu227 C291 2.848 . S
N228 C220 1.362 . S
N228 Eu227 2.657 . S
N228 C229 1.334 . S
C229 N228 1.334 . S
C229 C231 1.413 . S
C229 H236 0.929 . S
C230 C218 1.392 . S
C230 C231 1.367 . S
C230 H238 0.930 . S
C231 C229 1.413 . S
C231 C230 1.367 . S
C231 H233 0.930 . S
H232 C225 0.930 . S
H233 C231 0.930 . S
H234 C222 0.930 . S
H235 C223 0.930 . S
H236 C229 0.929 . S
H237 C251 0.930 . S
H238 C230 0.930 . S
H239 C257 0.930 . S
H240 C248 0.929 . S
H241 C255 0.930 . S
H242 C219 0.931 . S
H243 C249 0.930 . S
H244 C282 0.930 . S
H245 C226 0.930 . S
H246 C281 0.931 . S
N247 Eu216 2.657 . S
N247 C248 1.334 . S
N247 C252 1.362 . S
C248 H240 0.929 . S
C248 N247 1.334 . S
C248 C251 1.413 . S
C249 H243 0.930 . S
C249 C250 1.392 . S
C249 C251 1.367 . S
C250 C249 1.392 . S
C250 C252 1.420 . S
C250 C282 1.423 . S
C251 H237 0.930 . S
C251 C248 1.413 . S
C251 C249 1.367 . S
C252 N247 1.362 . S
C252 C250 1.420 . S
C252 C256 1.429 . S
H253 C258 0.930 . S
N254 Eu216 2.609 . S
N254 C256 1.377 . S
N254 C257 1.321 . S
C255 H241 0.930 . S
C255 C257 1.400 . S
C255 C258 1.386 . S
C256 C252 1.429 . S
C256 N254 1.377 . S
C256 C259 1.411 . S
C257 H239 0.930 . S
C257 N254 1.321 . S
C257 C255 1.400 . S
C258 H253 0.930 . S
C258 C255 1.386 . S
C258 C259 1.395 . S
C259 C256 1.411 . S
C259 C258 1.395 . S
C259 C281 1.420 . S
O260 Eu216 2.558 . S
O260 C280 1.257 . S
O261 Eu216 2.612 1_544 S
O261 Eu227 2.380 . S
O261 C272 1.276 1_554 S
O262 Eu227 2.432 . S
O262 C279 1.264 1_554 S
O263 Eu216 2.339 1_545 S
O263 C279 1.254 . S
O264 Eu216 2.563 1_545 S
O264 C272 1.235 . S
O265 Eu216 2.419 1_545 S
O265 C280 1.249 1_545 S
O266 Eu227 2.558 . S
O266 C291 1.257 . S
O267 Eu216 2.380 1_554 S
O267 Eu227 2.612 1_565 S
O267 C283 1.276 . S
O268 Eu216 2.432 . S
O268 C290 1.264 1_556 S
O269 Eu227 2.339 1_565 S
O269 C290 1.254 . S
O270 Eu227 2.563 1_565 S
O270 C283 1.235 . S
O271 Eu227 2.419 1_565 S
O271 C291 1.249 1_565 S
C272 O261 1.276 1_556 S
C272 O264 1.235 . S
C273 C275 1.393 . S
C273 C277 1.395 1_545 S
C273 C280 1.492 1_545 S
C274 C275 1.392 . S
C274 C276 1.386 . S
C275 C273 1.393 . S
C275 C274 1.392 . S
C275 H292 0.930 . S
C276 C274 1.386 . S
C276 C278 1.395 1_545 S
C276 H293 0.930 . S
C277 C273 1.395 1_565 S
C277 C278 1.379 . S
C277 H294 0.930 . S
C278 C276 1.395 1_565 S
C278 C277 1.379 . S
C278 H295 0.930 . S
C279 O262 1.264 1_556 S
C279 O263 1.254 . S
C280 Eu216 2.848 . S
C280 O260 1.257 . S
C280 O265 1.249 1_565 S
C280 C273 1.492 1_565 S
C281 H246 0.931 . S
C281 C259 1.420 . S
C281 C282 1.351 . S
C282 H244 0.930 . S
C282 C250 1.423 . S
C282 C281 1.351 . S
C283 O267 1.276 . S
C283 O270 1.235 . S
C284 C285 1.393 1_545 S
C284 C288 1.395 . S
C284 C291 1.492 . S
C285 C284 1.393 1_565 S
C285 C286 1.392 . S
C285 H296 0.930 . S
C286 C285 1.392 . S
C286 C287 1.386 . S
C287 C286 1.386 . S
C287 C289 1.395 1_565 S
C287 H297 0.930 . S
C288 C284 1.395 . S
C288 C289 1.379 . S
C288 H298 0.930 . S
C289 C287 1.395 1_545 S
C289 C288 1.379 . S
C289 H299 0.930 . S
C290 O268 1.264 1_554 S
C290 O269 1.254 . S
C291 Eu227 2.848 . S
C291 O266 1.257 . S
C291 O271 1.249 1_545 S
C291 C284 1.492 . S
H292 C275 0.930 . S
H293 C276 0.930 . S
H294 C277 0.930 . S
H295 C278 0.930 . S
H296 C285 0.930 . S
H297 C287 0.930 . S
H298 C288 0.930 . S
H299 C289 0.930 . S
Eu300 N331 2.657 . S
Eu300 N338 2.609 . S
Eu300 O344 2.558 . S
Eu300 O345 2.612 1_456 S
Eu300 O347 2.339 1_455 S
Eu300 O348 2.563 1_455 S
Eu300 O349 2.419 1_455 S
Eu300 O351 2.380 1_556 S
Eu300 O352 2.432 . S
Eu300 C364 2.848 . S
C301 C304 1.429 . S
C301 C305 1.411 . S
C301 N308 1.377 . S
C302 C304 1.420 . S
C302 C306 1.423 . S
C302 C314 1.392 . S
C303 C305 1.420 . S
C303 C306 1.351 . S
C303 H326 0.931 . S
C304 C301 1.429 . S
C304 C302 1.420 . S
C304 N312 1.362 . S
C305 C301 1.411 . S
C305 C303 1.420 . S
C305 C310 1.395 . S
C306 C302 1.423 . S
C306 C303 1.351 . S
C306 H318 0.930 . S
C307 C309 1.400 . S
C307 C310 1.386 . S
C307 H319 0.930 . S
N308 C301 1.377 . S
N308 C309 1.321 . S
N308 Eu311 2.609 . S
C309 C307 1.400 . S
C309 N308 1.321 . S
C309 H316 0.930 . S
C310 C305 1.395 . S
C310 C307 1.386 . S
C310 H329 0.930 . S
Eu311 N308 2.609 . S
Eu311 N312 2.657 . S
Eu311 O345 2.380 . S
Eu311 O346 2.432 . S
Eu311 O350 2.558 . S
Eu311 O351 2.612 1_655 S
Eu311 O353 2.339 1_655 S
Eu311 O354 2.563 1_655 S
Eu311 O355 2.419 1_655 S
Eu311 C375 2.848 . S
N312 C304 1.362 . S
N312 Eu311 2.657 . S
N312 C313 1.334 . S
C313 N312 1.334 . S
C313 C315 1.413 . S
C313 H320 0.929 . S
C314 C302 1.392 . S
C314 C315 1.367 . S
C314 H322 0.930 . S
C315 C313 1.413 . S
C315 C314 1.367 . S
C315 H317 0.930 . S
H316 C309 0.930 . S
H317 C315 0.930 . S
H318 C306 0.930 . S
H319 C307 0.930 . S
H320 C313 0.929 . S
H321 C335 0.930 . S
H322 C314 0.930 . S
H323 C341 0.930 . S
H324 C332 0.929 . S
H325 C339 0.930 . S
H326 C303 0.931 . S
H327 C333 0.930 . S
H328 C366 0.930 . S
H329 C310 0.930 . S
H330 C365 0.931 . S
N331 Eu300 2.657 . S
N331 C332 1.334 . S
N331 C336 1.362 . S
C332 H324 0.929 . S
C332 N331 1.334 . S
C332 C335 1.413 . S
C333 H327 0.930 . S
C333 C334 1.392 . S
C333 C335 1.367 . S
C334 C333 1.392 . S
C334 C336 1.420 . S
C334 C366 1.423 . S
C335 H321 0.930 . S
C335 C332 1.413 . S
C335 C333 1.367 . S
C336 N331 1.362 . S
C336 C334 1.420 . S
C336 C340 1.429 . S
H337 C342 0.930 . S
N338 Eu300 2.609 . S
N338 C340 1.377 . S
N338 C341 1.321 . S
C339 H325 0.930 . S
C339 C341 1.400 . S
C339 C342 1.386 . S
C340 C336 1.429 . S
C340 N338 1.377 . S
C340 C343 1.411 . S
C341 H323 0.930 . S
C341 N338 1.321 . S
C341 C339 1.400 . S
C342 H337 0.930 . S
C342 C339 1.386 . S
C342 C343 1.395 . S
C343 C340 1.411 . S
C343 C342 1.395 . S
C343 C365 1.420 . S
O344 Eu300 2.558 . S
O344 C364 1.257 . S
O345 Eu300 2.612 1_654 S
O345 Eu311 2.380 . S
O345 C356 1.276 1_554 S
O346 Eu311 2.432 . S
O346 C363 1.264 1_554 S
O347 Eu300 2.339 1_655 S
O347 C363 1.254 . S
O348 Eu300 2.563 1_655 S
O348 C356 1.235 . S
O349 Eu300 2.419 1_655 S
O349 C364 1.249 1_655 S
O350 Eu311 2.558 . S
O350 C375 1.257 . S
O351 Eu300 2.380 1_554 S
O351 Eu311 2.612 1_455 S
O351 C367 1.276 . S
O352 Eu300 2.432 . S
O352 C374 1.264 1_556 S
O353 Eu311 2.339 1_455 S
O353 C374 1.254 . S
O354 Eu311 2.563 1_455 S
O354 C367 1.235 . S
O355 Eu311 2.419 1_455 S
O355 C375 1.249 1_455 S
C356 O345 1.276 1_556 S
C356 O348 1.235 . S
C357 C359 1.393 1_455 S
C357 C361 1.395 . S
C357 C364 1.492 . S
C358 C359 1.392 . S
C358 C360 1.386 . S
C359 C357 1.393 1_655 S
C359 C358 1.392 . S
C359 H376 0.930 . S
C360 C358 1.386 . S
C360 C362 1.395 1_655 S
C360 H377 0.930 . S
C361 C357 1.395 . S
C361 C362 1.379 . S
C361 H378 0.930 . S
C362 C360 1.395 1_455 S
C362 C361 1.379 . S
C362 H379 0.930 . S
C363 O346 1.264 1_556 S
C363 O347 1.254 . S
C364 Eu300 2.848 . S
C364 O344 1.257 . S
C364 O349 1.249 1_455 S
C364 C357 1.492 . S
C365 H330 0.931 . S
C365 C343 1.420 . S
C365 C366 1.351 . S
C366 H328 0.930 . S
C366 C334 1.423 . S
C366 C365 1.351 . S
C367 O351 1.276 . S
C367 O354 1.235 . S
C368 C369 1.393 . S
C368 C372 1.395 1_455 S
C368 C375 1.492 1_455 S
C369 C368 1.393 . S
C369 C370 1.392 . S
C369 H380 0.930 . S
C370 C369 1.392 . S
C370 C371 1.386 . S
C371 C370 1.386 . S
C371 C373 1.395 1_455 S
C371 H381 0.930 . S
C372 C368 1.395 1_655 S
C372 C373 1.379 . S
C372 H382 0.930 . S
C373 C371 1.395 1_655 S
C373 C372 1.379 . S
C373 H383 0.930 . S
C374 O352 1.264 1_554 S
C374 O353 1.254 . S
C375 Eu311 2.848 . S
C375 O350 1.257 . S
C375 O355 1.249 1_655 S
C375 C368 1.492 1_655 S
H376 C359 0.930 . S
H377 C360 0.930 . S
H378 C361 0.930 . S
H379 C362 0.930 . S
H380 C369 0.930 . S
H381 C371 0.930 . S
H382 C372 0.930 . S
H383 C373 0.930 . S
Eu384 N415 2.657 . S
Eu384 N422 2.609 . S
Eu384 O428 2.558 . S
Eu384 O429 2.612 . S
Eu384 O431 2.339 . S
Eu384 O432 2.563 . S
Eu384 O433 2.419 . S
Eu384 O435 2.380 . S
Eu384 O436 2.432 . S
Eu384 C448 2.848 . S
C385 C388 1.429 . S
C385 C389 1.411 . S
C385 N392 1.377 . S
C386 C388 1.420 . S
C386 C390 1.423 . S
C386 C398 1.392 . S
C387 C389 1.420 . S
C387 C390 1.351 . S
C387 H410 0.931 . S
C388 C385 1.429 . S
C388 C386 1.420 . S
C388 N396 1.362 . S
C389 C385 1.411 . S
C389 C387 1.420 . S
C389 C394 1.395 . S
C390 C386 1.423 . S
C390 C387 1.351 . S
C390 H402 0.930 . S
C391 C393 1.400 . S
C391 C394 1.386 . S
C391 H403 0.930 . S
N392 C385 1.377 . S
N392 C393 1.321 . S
N392 Eu395 2.609 . S
C393 C391 1.400 . S
C393 N392 1.321 . S
C393 H400 0.930 . S
C394 C389 1.395 . S
C394 C391 1.386 . S
C394 H413 0.930 . S
Eu395 N392 2.609 . S
Eu395 N396 2.657 . S
Eu395 O429 2.380 1_556 S
Eu395 O430 2.432 . S
Eu395 O434 2.558 . S
Eu395 O435 2.612 1_556 S
Eu395 O437 2.339 . S
Eu395 O438 2.563 . S
Eu395 O439 2.419 . S
Eu395 C459 2.848 . S
N396 C388 1.362 . S
N396 Eu395 2.657 . S
N396 C397 1.334 . S
C397 N396 1.334 . S
C397 C399 1.413 . S
C397 H404 0.929 . S
C398 C386 1.392 . S
C398 C399 1.367 . S
C398 H406 0.930 . S
C399 C397 1.413 . S
C399 C398 1.367 . S
C399 H401 0.930 . S
H400 C393 0.930 . S
H401 C399 0.930 . S
H402 C390 0.930 . S
H403 C391 0.930 . S
H404 C397 0.929 . S
H405 C419 0.930 . S
H406 C398 0.930 . S
H407 C425 0.930 . S
H408 C416 0.929 . S
H409 C423 0.930 . S
H410 C387 0.931 . S
H411 C417 0.930 . S
H412 C450 0.930 . S
H413 C394 0.930 . S
H414 C449 0.931 . S
N415 Eu384 2.657 . S
N415 C416 1.334 . S
N415 C420 1.362 . S
C416 H408 0.929 . S
C416 N415 1.334 . S
C416 C419 1.413 . S
C417 H411 0.930 . S
C417 C418 1.392 . S
C417 C419 1.367 . S
C418 C417 1.392 . S
C418 C420 1.420 . S
C418 C450 1.423 . S
C419 H405 0.930 . S
C419 C416 1.413 . S
C419 C417 1.367 . S
C420 N415 1.362 . S
C420 C418 1.420 . S
C420 C424 1.429 . S
H421 C426 0.930 . S
N422 Eu384 2.609 . S
N422 C424 1.377 . S
N422 C425 1.321 . S
C423 H409 0.930 . S
C423 C425 1.400 . S
C423 C426 1.386 . S
C424 C420 1.429 . S
C424 N422 1.377 . S
C424 C427 1.411 . S
C425 H407 0.930 . S
C425 N422 1.321 . S
C425 C423 1.400 . S
C426 H421 0.930 . S
C426 C423 1.386 . S
C426 C427 1.395 . S
C427 C424 1.411 . S
C427 C426 1.395 . S
C427 C449 1.420 . S
O428 Eu384 2.558 . S
O428 C448 1.257 . S
O429 Eu384 2.612 . S
O429 Eu395 2.380 1_554 S
O429 C440 1.276 . S
O430 Eu395 2.432 . S
O430 C447 1.264 1_556 S
O431 Eu384 2.339 . S
O431 C447 1.254 . S
O432 Eu384 2.563 . S
O432 C440 1.235 . S
O433 Eu384 2.419 . S
O433 C448 1.249 . S
O434 Eu395 2.558 . S
O434 C459 1.257 . S
O435 Eu384 2.380 . S
O435 Eu395 2.612 1_554 S
O435 C451 1.276 1_554 S
O436 Eu384 2.432 . S
O436 C458 1.264 1_554 S
O437 Eu395 2.339 . S
O437 C458 1.254 . S
O438 Eu395 2.563 . S
O438 C451 1.235 . S
O439 Eu395 2.419 . S
O439 C459 1.249 . S
C440 O429 1.276 . S
C440 O432 1.235 . S
C441 C443 1.393 . S
C441 C445 1.395 . S
C441 C448 1.492 . S
C442 C443 1.392 . S
C442 C444 1.386 . S
C443 C441 1.393 . S
C443 C442 1.392 . S
C443 H460 0.930 . S
C444 C442 1.386 . S
C444 C446 1.395 . S
C444 H461 0.930 . S
C445 C441 1.395 . S
C445 C446 1.379 . S
C445 H462 0.930 . S
C446 C444 1.395 . S
C446 C445 1.379 . S
C446 H463 0.930 . S
C447 O430 1.264 1_554 S
C447 O431 1.254 . S
C448 Eu384 2.848 . S
C448 O428 1.257 . S
C448 O433 1.249 . S
C448 C441 1.492 . S
C449 H414 0.931 . S
C449 C427 1.420 . S
C449 C450 1.351 . S
C450 H412 0.930 . S
C450 C418 1.423 . S
C450 C449 1.351 . S
C451 O435 1.276 1_556 S
C451 O438 1.235 . S
C452 C453 1.393 . S
C452 C456 1.395 . S
C452 C459 1.492 . S
C453 C452 1.393 . S
C453 C454 1.392 . S
C453 H464 0.930 . S
C454 C453 1.392 . S
C454 C455 1.386 . S
C455 C454 1.386 . S
C455 C457 1.395 . S
C455 H465 0.930 . S
C456 C452 1.395 . S
C456 C457 1.379 . S
C456 H466 0.930 . S
C457 C455 1.395 . S
C457 C456 1.379 . S
C457 H467 0.930 . S
C458 O436 1.264 1_556 S
C458 O437 1.254 . S
C459 Eu395 2.848 . S
C459 O434 1.257 . S
C459 O439 1.249 . S
C459 C452 1.492 . S
H460 C443 0.930 . S
H461 C444 0.930 . S
H462 C445 0.930 . S
H463 C446 0.930 . S
H464 C453 0.930 . S
H465 C455 0.930 . S
H466 C456 0.930 . S
H467 C457 0.930 . S
Eu468 N499 2.657 . S
Eu468 N506 2.609 . S
Eu468 O512 2.558 . S
Eu468 O513 2.612 . S
Eu468 O515 2.339 . S
Eu468 O516 2.563 . S
Eu468 O517 2.419 . S
Eu468 O519 2.380 . S
Eu468 O520 2.432 . S
Eu468 C532 2.848 . S
C469 C472 1.429 . S
C469 C473 1.411 . S
C469 N476 1.377 . S
C470 C472 1.420 . S
C470 C474 1.423 . S
C470 C482 1.392 . S
C471 C473 1.420 . S
C471 C474 1.351 . S
C471 H494 0.931 . S
C472 C469 1.429 . S
C472 C470 1.420 . S
C472 N480 1.362 . S
C473 C469 1.411 . S
C473 C471 1.420 . S
C473 C478 1.395 . S
C474 C470 1.423 . S
C474 C471 1.351 . S
C474 H486 0.930 . S
C475 C477 1.400 . S
C475 C478 1.386 . S
C475 H487 0.930 . S
N476 C469 1.377 . S
N476 C477 1.321 . S
N476 Eu479 2.609 . S
C477 C475 1.400 . S
C477 N476 1.321 . S
C477 H484 0.930 . S
C478 C473 1.395 . S
C478 C475 1.386 . S
C478 H497 0.930 . S
Eu479 N476 2.609 . S
Eu479 N480 2.657 . S
Eu479 O513 2.380 . S
Eu479 O514 2.432 . S
Eu479 O518 2.558 . S
Eu479 O519 2.612 . S
Eu479 O521 2.339 . S
Eu479 O522 2.563 . S
Eu479 O523 2.419 . S
Eu479 C543 2.848 . S
N480 C472 1.362 . S
N480 Eu479 2.657 . S
N480 C481 1.334 . S
C481 N480 1.334 . S
C481 C483 1.413 . S
C481 H488 0.929 . S
C482 C470 1.392 . S
C482 C483 1.367 . S
C482 H490 0.930 . S
C483 C481 1.413 . S
C483 C482 1.367 . S
C483 H485 0.930 . S
H484 C477 0.930 . S
H485 C483 0.930 . S
H486 C474 0.930 . S
H487 C475 0.930 . S
H488 C481 0.929 . S
H489 C503 0.930 . S
H490 C482 0.930 . S
H491 C509 0.930 . S
H492 C500 0.929 . S
H493 C507 0.930 . S
H494 C471 0.931 . S
H495 C501 0.930 . S
H496 C534 0.930 . S
H497 C478 0.930 . S
H498 C533 0.931 . S
N499 Eu468 2.657 . S
N499 C500 1.334 . S
N499 C504 1.362 . S
C500 H492 0.929 . S
C500 N499 1.334 . S
C500 C503 1.413 1_455 S
C501 H495 0.930 . S
C501 C502 1.392 . S
C501 C503 1.367 . S
C502 C501 1.392 . S
C502 C504 1.420 1_655 S
C502 C534 1.423 . S
C503 H489 0.930 . S
C503 C500 1.413 1_655 S
C503 C501 1.367 . S
C504 N499 1.362 . S
C504 C502 1.420 1_455 S
C504 C508 1.429 . S
H505 C510 0.930 . S
N506 Eu468 2.609 . S
N506 C508 1.377 . S
N506 C509 1.321 . S
C507 H493 0.930 . S
C507 C509 1.400 . S
C507 C510 1.386 . S
C508 C504 1.429 . S
C508 N506 1.377 . S
C508 C511 1.411 . S
C509 H491 0.930 . S
C509 N506 1.321 . S
C509 C507 1.400 . S
C510 H505 0.930 . S
C510 C507 1.386 . S
C510 C511 1.395 . S
C511 C508 1.411 . S
C511 C510 1.395 . S
C511 C533 1.420 1_455 S
O512 Eu468 2.558 . S
O512 C532 1.257 . S
O513 Eu468 2.612 . S
O513 Eu479 2.380 . S
O513 C524 1.276 . S
O514 Eu479 2.432 . S
O514 C531 1.264 . S
O515 Eu468 2.339 . S
O515 C531 1.254 . S
O516 Eu468 2.563 . S
O516 C524 1.235 . S
O517 Eu468 2.419 . S
O517 C532 1.249 . S
O518 Eu479 2.558 . S
O518 C543 1.257 . S
O519 Eu468 2.380 . S
O519 Eu479 2.612 . S
O519 C535 1.276 . S
O520 Eu468 2.432 . S
O520 C542 1.264 . S
O521 Eu479 2.339 . S
O521 C542 1.254 . S
O522 Eu479 2.563 . S
O522 C535 1.235 . S
O523 Eu479 2.419 . S
O523 C543 1.249 . S
C524 O513 1.276 . S
C524 O516 1.235 . S
C525 C527 1.393 . S
C525 C529 1.395 . S
C525 C532 1.492 . S
C526 C527 1.392 . S
C526 C528 1.386 . S
C527 C525 1.393 . S
C527 C526 1.392 . S
C527 H544 0.930 . S
C528 C526 1.386 . S
C528 C530 1.395 . S
C528 H545 0.930 . S
C529 C525 1.395 . S
C529 C530 1.379 . S
C529 H546 0.930 . S
C530 C528 1.395 . S
C530 C529 1.379 . S
C530 H547 0.930 . S
C531 O514 1.264 . S
C531 O515 1.254 . S
C532 Eu468 2.848 . S
C532 O512 1.257 . S
C532 O517 1.249 . S
C532 C525 1.492 . S
C533 H498 0.931 . S
C533 C511 1.420 1_655 S
C533 C534 1.351 . S
C534 H496 0.930 . S
C534 C502 1.423 . S
C534 C533 1.351 . S
C535 O519 1.276 . S
C535 O522 1.235 . S
C536 C537 1.393 . S
C536 C540 1.395 . S
C536 C543 1.492 . S
C537 C536 1.393 . S
C537 C538 1.392 . S
C537 H548 0.930 . S
C538 C537 1.392 . S
C538 C539 1.386 . S
C539 C538 1.386 . S
C539 C541 1.395 . S
C539 H549 0.930 . S
C540 C536 1.395 . S
C540 C541 1.379 . S
C540 H550 0.930 . S
C541 C539 1.395 . S
C541 C540 1.379 . S
C541 H551 0.930 . S
C542 O520 1.264 . S
C542 O521 1.254 . S
C543 Eu479 2.848 . S
C543 O518 1.257 . S
C543 O523 1.249 . S
C543 C536 1.492 . S
H544 C527 0.930 . S
H545 C528 0.930 . S
H546 C529 0.930 . S
H547 C530 0.930 . S
H548 C537 0.930 . S
H549 C539 0.930 . S
H550 C540 0.930 . S
H551 C541 0.930 . S
Eu552 N583 2.657 . S
Eu552 N590 2.609 . S
Eu552 O596 2.558 . S
Eu552 O597 2.612 . S
Eu552 O599 2.339 . S
Eu552 O600 2.563 . S
Eu552 O601 2.419 . S
Eu552 O603 2.380 . S
Eu552 O604 2.432 . S
Eu552 C616 2.848 . S
C553 C556 1.429 . S
C553 C557 1.411 . S
C553 N560 1.377 . S
C554 C556 1.420 . S
C554 C558 1.423 . S
C554 C566 1.392 . S
C555 C557 1.420 . S
C555 C558 1.351 . S
C555 H578 0.931 . S
C556 C553 1.429 . S
C556 C554 1.420 . S
C556 N564 1.362 . S
C557 C553 1.411 . S
C557 C555 1.420 . S
C557 C562 1.395 . S
C558 C554 1.423 . S
C558 C555 1.351 . S
C558 H570 0.930 . S
C559 C561 1.400 . S
C559 C562 1.386 . S
C559 H571 0.930 . S
N560 C553 1.377 . S
N560 C561 1.321 . S
N560 Eu563 2.609 . S
C561 C559 1.400 . S
C561 N560 1.321 . S
C561 H568 0.930 . S
C562 C557 1.395 . S
C562 C559 1.386 . S
C562 H581 0.930 . S
Eu563 N560 2.609 . S
Eu563 N564 2.657 . S
Eu563 O597 2.380 . S
Eu563 O598 2.432 . S
Eu563 O602 2.558 . S
Eu563 O603 2.612 . S
Eu563 O605 2.339 . S
Eu563 O606 2.563 . S
Eu563 O607 2.419 . S
Eu563 C627 2.848 . S
N564 C556 1.362 . S
N564 Eu563 2.657 . S
N564 C565 1.334 . S
C565 N564 1.334 . S
C565 C567 1.413 . S
C565 H572 0.929 . S
C566 C554 1.392 . S
C566 C567 1.367 . S
C566 H574 0.930 . S
C567 C565 1.413 . S
C567 C566 1.367 . S
C567 H569 0.930 . S
H568 C561 0.930 . S
H569 C567 0.930 . S
H570 C558 0.930 . S
H571 C559 0.930 . S
H572 C565 0.929 . S
H573 C587 0.930 . S
H574 C566 0.930 . S
H575 C593 0.930 . S
H576 C584 0.929 . S
H577 C591 0.930 . S
H578 C555 0.931 . S
H579 C585 0.930 . S
H580 C618 0.930 . S
H581 C562 0.930 . S
H582 C617 0.931 . S
N583 Eu552 2.657 . S
N583 C584 1.334 . S
N583 C588 1.362 . S
C584 H576 0.929 . S
C584 N583 1.334 . S
C584 C587 1.413 . S
C585 H579 0.930 . S
C585 C586 1.392 . S
C585 C587 1.367 . S
C586 C585 1.392 . S
C586 C588 1.420 . S
C586 C618 1.423 . S
C587 H573 0.930 . S
C587 C584 1.413 . S
C587 C585 1.367 . S
C588 N583 1.362 . S
C588 C586 1.420 . S
C588 C592 1.429 . S
H589 C594 0.930 . S
N590 Eu552 2.609 . S
N590 C592 1.377 . S
N590 C593 1.321 . S
C591 H577 0.930 . S
C591 C593 1.400 . S
C591 C594 1.386 . S
C592 C588 1.429 . S
C592 N590 1.377 . S
C592 C595 1.411 . S
C593 H575 0.930 . S
C593 N590 1.321 . S
C593 C591 1.400 . S
C594 H589 0.930 . S
C594 C591 1.386 . S
C594 C595 1.395 . S
C595 C592 1.411 . S
C595 C594 1.395 . S
C595 C617 1.420 . S
O596 Eu552 2.558 . S
O596 C616 1.257 . S
O597 Eu552 2.612 . S
O597 Eu563 2.380 . S
O597 C608 1.276 . S
O598 Eu563 2.432 . S
O598 C615 1.264 . S
O599 Eu552 2.339 . S
O599 C615 1.254 . S
O600 Eu552 2.563 . S
O600 C608 1.235 . S
O601 Eu552 2.419 . S
O601 C616 1.249 . S
O602 Eu563 2.558 . S
O602 C627 1.257 . S
O603 Eu552 2.380 . S
O603 Eu563 2.612 . S
O603 C619 1.276 . S
O604 Eu552 2.432 . S
O604 C626 1.264 . S
O605 Eu563 2.339 . S
O605 C626 1.254 . S
O606 Eu563 2.563 . S
O606 C619 1.235 . S
O607 Eu563 2.419 . S
O607 C627 1.249 . S
C608 O597 1.276 . S
C608 O600 1.235 . S
C609 C611 1.393 . S
C609 C613 1.395 . S
C609 C616 1.492 . S
C610 C611 1.392 . S
C610 C612 1.386 . S
C611 C609 1.393 . S
C611 C610 1.392 . S
C611 H628 0.930 . S
C612 C610 1.386 . S
C612 C614 1.395 . S
C612 H629 0.930 . S
C613 C609 1.395 . S
C613 C614 1.379 . S
C613 H630 0.930 . S
C614 C612 1.395 . S
C614 C613 1.379 . S
C614 H631 0.930 . S
C615 O598 1.264 . S
C615 O599 1.254 . S
C616 Eu552 2.848 . S
C616 O596 1.257 . S
C616 O601 1.249 . S
C616 C609 1.492 . S
C617 H582 0.931 . S
C617 C595 1.420 . S
C617 C618 1.351 . S
C618 H580 0.930 . S
C618 C586 1.423 . S
C618 C617 1.351 . S
C619 O603 1.276 . S
C619 O606 1.235 . S
C620 C621 1.393 . S
C620 C624 1.395 . S
C620 C627 1.492 . S
C621 C620 1.393 . S
C621 C622 1.392 . S
C621 H632 0.930 . S
C622 C621 1.392 . S
C622 C623 1.386 . S
C623 C622 1.386 . S
C623 C625 1.395 . S
C623 H633 0.930 . S
C624 C620 1.395 . S
C624 C625 1.379 . S
C624 H634 0.930 . S
C625 C623 1.395 . S
C625 C624 1.379 . S
C625 H635 0.930 . S
C626 O604 1.264 . S
C626 O605 1.254 . S
C627 Eu563 2.848 . S
C627 O602 1.257 . S
C627 O607 1.249 . S
C627 C620 1.492 . S
H628 C611 0.930 . S
H629 C612 0.930 . S
H630 C613 0.930 . S
H631 C614 0.930 . S
H632 C621 0.930 . S
H633 C623 0.930 . S
H634 C624 0.930 . S
H635 C625 0.930 . S
Eu636 N667 2.657 . S
Eu636 N674 2.609 . S
Eu636 O680 2.558 . S
Eu636 O681 2.612 . S
Eu636 O683 2.339 . S
Eu636 O684 2.563 . S
Eu636 O685 2.419 . S
Eu636 O687 2.380 . S
Eu636 O688 2.432 . S
Eu636 C700 2.848 . S
C637 C640 1.429 . S
C637 C641 1.411 . S
C637 N644 1.377 . S
C638 C640 1.420 . S
C638 C642 1.423 . S
C638 C650 1.392 . S
C639 C641 1.420 . S
C639 C642 1.351 . S
C639 H662 0.931 . S
C640 C637 1.429 . S
C640 C638 1.420 . S
C640 N648 1.362 . S
C641 C637 1.411 . S
C641 C639 1.420 . S
C641 C646 1.395 . S
C642 C638 1.423 . S
C642 C639 1.351 . S
C642 H654 0.930 . S
C643 C645 1.400 . S
C643 C646 1.386 . S
C643 H655 0.901 1_565 S
N644 C637 1.377 . S
N644 C645 1.321 . S
N644 Eu647 2.609 . S
C645 C643 1.400 . S
C645 N644 1.321 . S
C645 H652 0.930 . S
C646 C641 1.395 . S
C646 C643 1.386 . S
C646 H665 0.930 . S
Eu647 N644 2.609 . S
Eu647 N648 2.657 . S
Eu647 O681 2.380 . S
Eu647 O682 2.432 . S
Eu647 O686 2.558 . S
Eu647 O687 2.612 . S
Eu647 O689 2.339 . S
Eu647 O690 2.563 . S
Eu647 O691 2.419 . S
Eu647 C711 2.848 . S
N648 C640 1.362 . S
N648 Eu647 2.657 . S
N648 C649 1.334 . S
C649 N648 1.334 . S
C649 C651 1.413 . S
C649 H656 0.929 . S
C650 C638 1.392 . S
C650 C651 1.367 . S
C650 H658 0.930 . S
C651 C649 1.413 . S
C651 C650 1.367 . S
C651 H653 0.930 . S
H652 C645 0.930 . S
H653 C651 0.930 . S
H654 C642 0.930 . S
H655 C643 0.901 1_545 S
H656 C649 0.929 . S
H657 C671 0.930 . S
H658 C650 0.930 . S
H659 C677 0.930 . S
H660 C668 0.929 . S
H661 C675 0.930 . S
H662 C639 0.931 . S
H663 C669 0.930 . S
H664 C702 0.930 . S
H665 C646 0.930 . S
H666 C701 0.931 . S
N667 Eu636 2.657 . S
N667 C668 1.334 . S
N667 C672 1.362 . S
C668 H660 0.929 . S
C668 N667 1.334 . S
C668 C671 1.413 . S
C669 H663 0.930 . S
C669 C670 1.392 . S
C669 C671 1.367 . S
C670 C669 1.392 . S
C670 C672 1.420 . S
C670 C702 1.423 . S
C671 H657 0.930 . S
C671 C668 1.413 . S
C671 C669 1.367 . S
C672 N667 1.362 . S
C672 C670 1.420 . S
C672 C676 1.429 . S
H673 C678 0.930 . S
N674 Eu636 2.609 . S
N674 C676 1.377 . S
N674 C677 1.321 . S
C675 H661 0.930 . S
C675 C677 1.400 . S
C675 C678 1.386 . S
C676 C672 1.429 . S
C676 N674 1.377 . S
C676 C679 1.411 . S
C677 H659 0.930 . S
C677 N674 1.321 . S
C677 C675 1.400 . S
C678 H673 0.930 . S
C678 C675 1.386 . S
C678 C679 1.395 . S
C679 C676 1.411 . S
C679 C678 1.395 . S
C679 C701 1.420 . S
O680 Eu636 2.558 . S
O680 C700 1.257 . S
O681 Eu636 2.612 . S
O681 Eu647 2.380 . S
O681 C692 1.276 . S
O682 Eu647 2.432 . S
O682 C699 1.264 . S
O683 Eu636 2.339 . S
O683 C699 1.254 . S
O684 Eu636 2.563 . S
O684 C692 1.235 . S
O685 Eu636 2.419 . S
O685 C700 1.249 . S
O686 Eu647 2.558 . S
O686 C711 1.257 . S
O687 Eu636 2.380 . S
O687 Eu647 2.612 . S
O687 C703 1.276 . S
O688 Eu636 2.432 . S
O688 C710 1.264 . S
O689 Eu647 2.339 . S
O689 C710 1.254 . S
O690 Eu647 2.563 . S
O690 C703 1.235 . S
O691 Eu647 2.419 . S
O691 C711 1.249 . S
C692 O681 1.276 . S
C692 O684 1.235 . S
C693 C695 1.393 . S
C693 C697 1.395 . S
C693 C700 1.492 . S
C694 C695 1.392 . S
C694 C696 1.386 . S
C695 C693 1.393 . S
C695 C694 1.392 . S
C695 H712 0.930 . S
C696 C694 1.386 . S
C696 C698 1.395 . S
C696 H713 0.930 . S
C697 C693 1.395 . S
C697 C698 1.379 . S
C697 H714 0.930 . S
C698 C696 1.395 . S
C698 C697 1.379 . S
C698 H715 0.930 . S
C699 O682 1.264 . S
C699 O683 1.254 . S
C700 Eu636 2.848 . S
C700 O680 1.257 . S
C700 O685 1.249 . S
C700 C693 1.492 . S
C701 H666 0.931 . S
C701 C679 1.420 . S
C701 C702 1.351 . S
C702 H664 0.930 . S
C702 C670 1.423 . S
C702 C701 1.351 . S
C703 O687 1.276 . S
C703 O690 1.235 . S
C704 C705 1.393 . S
C704 C708 1.395 . S
C704 C711 1.492 . S
C705 C704 1.393 . S
C705 C706 1.392 . S
C705 H716 0.930 . S
C706 C705 1.392 . S
C706 C707 1.386 . S
C707 C706 1.386 . S
C707 C709 1.395 . S
C707 H717 0.930 . S
C708 C704 1.395 . S
C708 C709 1.379 . S
C708 H718 0.930 . S
C709 C707 1.395 . S
C709 C708 1.379 . S
C709 H719 0.930 . S
C710 O688 1.264 . S
C710 O689 1.254 . S
C711 Eu647 2.848 . S
C711 O686 1.257 . S
C711 O691 1.249 . S
C711 C704 1.492 . S
H712 C695 0.930 . S
H713 C696 0.930 . S
H714 C697 0.930 . S
H715 C698 0.930 . S
H716 C705 0.930 . S
H717 C707 0.930 . S
H718 C708 0.930 . S
H719 C709 0.930 . S
Eu720 N751 2.657 . S
Eu720 N758 2.609 . S
Eu720 O764 2.558 . S
Eu720 O765 2.612 . S
Eu720 O767 2.339 . S
Eu720 O768 2.563 . S
Eu720 O769 2.419 . S
Eu720 O771 2.380 . S
Eu720 O772 2.432 . S
Eu720 C784 2.848 . S
C721 C724 1.429 . S
C721 C725 1.411 . S
C721 N728 1.377 . S
C722 C724 1.420 . S
C722 C726 1.423 . S
C722 C734 1.392 . S
C723 C725 1.420 . S
C723 C726 1.351 . S
C723 H746 0.931 . S
C724 C721 1.429 . S
C724 C722 1.420 . S
C724 N732 1.362 . S
C725 C721 1.411 . S
C725 C723 1.420 . S
C725 C730 1.395 . S
C726 C722 1.423 . S
C726 C723 1.351 . S
C726 H738 0.930 . S
C727 C729 1.400 . S
C727 C730 1.386 . S
C727 H739 0.930 . S
N728 C721 1.377 . S
N728 C729 1.321 . S
N728 Eu731 2.609 . S
C729 C727 1.400 . S
C729 N728 1.321 . S
C729 H736 0.930 . S
C730 C725 1.395 . S
C730 C727 1.386 . S
C730 H749 0.930 . S
Eu731 N728 2.609 . S
Eu731 N732 2.657 . S
Eu731 O765 2.380 . S
Eu731 O766 2.432 . S
Eu731 O770 2.558 . S
Eu731 O771 2.612 . S
Eu731 O773 2.339 . S
Eu731 O774 2.563 . S
Eu731 O775 2.419 . S
Eu731 C795 2.848 . S
N732 C724 1.362 . S
N732 Eu731 2.657 . S
N732 C733 1.334 . S
C733 N732 1.334 . S
C733 C735 1.413 . S
C733 H740 0.929 . S
C734 C722 1.392 . S
C734 C735 1.367 . S
C734 H742 0.930 . S
C735 C733 1.413 . S
C735 C734 1.367 . S
C735 H737 0.930 . S
H736 C729 0.930 . S
H737 C735 0.930 . S
H738 C726 0.930 . S
H739 C727 0.930 . S
H740 C733 0.929 . S
H741 C755 0.930 . S
H742 C734 0.930 . S
H743 C761 0.930 . S
H744 C752 0.929 . S
H745 C759 0.930 . S
H746 C723 0.931 . S
H747 C753 0.930 . S
H748 C786 0.930 . S
H749 C730 0.930 . S
H750 C785 0.931 . S
N751 Eu720 2.657 . S
N751 C752 1.334 . S
N751 C756 1.362 . S
C752 H744 0.929 . S
C752 N751 1.334 . S
C752 C755 1.413 . S
C753 H747 0.930 . S
C753 C754 1.392 . S
C753 C755 1.367 . S
C754 C753 1.392 . S
C754 C756 1.420 . S
C754 C786 1.423 . S
C755 H741 0.930 . S
C755 C752 1.413 . S
C755 C753 1.367 . S
C756 N751 1.362 . S
C756 C754 1.420 . S
C756 C760 1.429 . S
H757 C762 0.930 . S
N758 Eu720 2.609 . S
N758 C760 1.377 . S
N758 C761 1.321 . S
C759 H745 0.930 . S
C759 C761 1.400 . S
C759 C762 1.386 . S
C760 C756 1.429 . S
C760 N758 1.377 . S
C760 C763 1.411 . S
C761 H743 0.930 . S
C761 N758 1.321 . S
C761 C759 1.400 . S
C762 H757 0.930 . S
C762 C759 1.386 . S
C762 C763 1.395 . S
C763 C760 1.411 . S
C763 C762 1.395 . S
C763 C785 1.420 . S
O764 Eu720 2.558 . S
O764 C784 1.257 . S
O765 Eu720 2.612 . S
O765 Eu731 2.380 . S
O765 C776 1.276 . S
O766 Eu731 2.432 . S
O766 C783 1.264 . S
O767 Eu720 2.339 . S
O767 C783 1.254 . S
O768 Eu720 2.563 . S
O768 C776 1.235 . S
O769 Eu720 2.419 . S
O769 C784 1.249 . S
O770 Eu731 2.558 . S
O770 C795 1.257 . S
O771 Eu720 2.380 . S
O771 Eu731 2.612 . S
O771 C787 1.276 . S
O772 Eu720 2.432 . S
O772 C794 1.264 . S
O773 Eu731 2.339 . S
O773 C794 1.254 . S
O774 Eu731 2.563 . S
O774 C787 1.235 . S
O775 Eu731 2.419 . S
O775 C795 1.249 . S
C776 O765 1.276 . S
C776 O768 1.235 . S
C777 C779 1.393 . S
C777 C781 1.395 . S
C777 C784 1.492 . S
C778 C779 1.392 . S
C778 C780 1.386 . S
C779 C777 1.393 . S
C779 C778 1.392 . S
C779 H796 0.930 . S
C780 C778 1.386 . S
C780 C782 1.395 . S
C780 H797 0.930 . S
C781 C777 1.395 . S
C781 C782 1.379 . S
C781 H798 0.930 . S
C782 C780 1.395 . S
C782 C781 1.379 . S
C782 H799 0.930 . S
C783 O766 1.264 . S
C783 O767 1.254 . S
C784 Eu720 2.848 . S
C784 O764 1.257 . S
C784 O769 1.249 . S
C784 C777 1.492 . S
C785 H750 0.931 . S
C785 C763 1.420 . S
C785 C786 1.351 . S
C786 H748 0.930 . S
C786 C754 1.423 . S
C786 C785 1.351 . S
C787 O771 1.276 . S
C787 O774 1.235 . S
C788 C789 1.393 . S
C788 C792 1.395 . S
C788 C795 1.492 . S
C789 C788 1.393 . S
C789 C790 1.392 . S
C789 H800 0.930 . S
C790 C789 1.392 . S
C790 C791 1.386 . S
C791 C790 1.386 . S
C791 C793 1.395 . S
C791 H801 0.930 . S
C792 C788 1.395 . S
C792 C793 1.379 . S
C792 H802 0.930 . S
C793 C791 1.395 . S
C793 C792 1.379 . S
C793 H803 0.930 . S
C794 O772 1.264 . S
C794 O773 1.254 . S
C795 Eu731 2.848 . S
C795 O770 1.257 . S
C795 O775 1.249 . S
C795 C788 1.492 . S
H796 C779 0.930 . S
H797 C780 0.930 . S
H798 C781 0.930 . S
H799 C782 0.930 . S
H800 C789 0.930 . S
H801 C791 0.930 . S
H802 C792 0.930 . S
H803 C793 0.930 . S
Eu804 N835 2.657 . S
Eu804 N842 2.609 . S
Eu804 O848 2.558 . S
Eu804 O849 2.612 . S
Eu804 O851 2.339 . S
Eu804 O852 2.563 . S
Eu804 O853 2.419 . S
Eu804 O855 2.380 . S
Eu804 O856 2.432 . S
Eu804 C868 2.848 . S
C805 C808 1.429 . S
C805 C809 1.411 . S
C805 N812 1.377 . S
C806 C808 1.420 . S
C806 C810 1.423 . S
C806 C818 1.392 . S
C807 C809 1.420 . S
C807 C810 1.351 . S
C807 H830 0.931 . S
C808 C805 1.429 . S
C808 C806 1.420 . S
C808 N816 1.362 . S
C809 C805 1.411 . S
C809 C807 1.420 . S
C809 C814 1.395 . S
C810 C806 1.423 . S
C810 C807 1.351 . S
C810 H822 0.930 . S
C811 C813 1.400 . S
C811 C814 1.386 . S
C811 H823 0.930 . S
N812 C805 1.377 . S
N812 C813 1.321 . S
N812 Eu815 2.609 . S
C813 C811 1.400 . S
C813 N812 1.321 . S
C813 H820 0.930 . S
C814 C809 1.395 . S
C814 C811 1.386 . S
C814 H833 0.930 . S
Eu815 N812 2.609 . S
Eu815 N816 2.657 . S
Eu815 O849 2.380 . S
Eu815 O850 2.432 . S
Eu815 O854 2.558 . S
Eu815 O855 2.612 . S
Eu815 O857 2.339 . S
Eu815 O858 2.563 . S
Eu815 O859 2.419 . S
Eu815 C879 2.848 . S
N816 C808 1.362 . S
N816 Eu815 2.657 . S
N816 C817 1.334 . S
C817 N816 1.334 . S
C817 C819 1.413 . S
C817 H824 0.929 . S
C818 C806 1.392 . S
C818 C819 1.367 . S
C818 H826 0.930 . S
C819 C817 1.413 . S
C819 C818 1.367 . S
C819 H821 0.930 . S
H820 C813 0.930 . S
H821 C819 0.930 . S
H822 C810 0.930 . S
H823 C811 0.930 . S
H824 C817 0.929 . S
H825 C839 0.930 . S
H826 C818 0.930 . S
H827 C845 0.930 . S
H828 C836 0.929 . S
H829 C843 0.930 . S
H830 C807 0.931 . S
H831 C837 0.930 . S
H832 C870 0.930 . S
H833 C814 0.930 . S
H834 C869 0.931 . S
N835 Eu804 2.657 . S
N835 C836 1.334 . S
N835 C840 1.362 . S
C836 H828 0.929 . S
C836 N835 1.334 . S
C836 C839 1.413 . S
C837 H831 0.930 . S
C837 C838 1.392 . S
C837 C839 1.367 . S
C838 C837 1.392 . S
C838 C840 1.420 . S
C838 C870 1.423 . S
C839 H825 0.930 . S
C839 C836 1.413 . S
C839 C837 1.367 . S
C840 N835 1.362 . S
C840 C838 1.420 . S
C840 C844 1.429 . S
H841 C846 0.930 . S
N842 Eu804 2.609 . S
N842 C844 1.377 . S
N842 C845 1.321 . S
C843 H829 0.930 . S
C843 C845 1.400 . S
C843 C846 1.386 . S
C844 C840 1.429 . S
C844 N842 1.377 . S
C844 C847 1.411 . S
C845 H827 0.930 . S
C845 N842 1.321 . S
C845 C843 1.400 . S
C846 H841 0.930 . S
C846 C843 1.386 . S
C846 C847 1.395 . S
C847 C844 1.411 . S
C847 C846 1.395 . S
C847 C869 1.420 . S
O848 Eu804 2.558 . S
O848 C868 1.257 . S
O849 Eu804 2.612 . S
O849 Eu815 2.380 . S
O849 C860 1.276 . S
O850 Eu815 2.432 . S
O850 C867 1.264 . S
O851 Eu804 2.339 . S
O851 C867 1.254 . S
O852 Eu804 2.563 . S
O852 C860 1.235 . S
O853 Eu804 2.419 . S
O853 C868 1.249 . S
O854 Eu815 2.558 . S
O854 C879 1.257 . S
O855 Eu804 2.380 . S
O855 Eu815 2.612 . S
O855 C871 1.276 . S
O856 Eu804 2.432 . S
O856 C878 1.264 . S
O857 Eu815 2.339 . S
O857 C878 1.254 . S
O858 Eu815 2.563 . S
O858 C871 1.235 . S
O859 Eu815 2.419 . S
O859 C879 1.249 . S
C860 O849 1.276 . S
C860 O852 1.235 . S
C861 C863 1.393 . S
C861 C865 1.395 . S
C861 C868 1.492 . S
C862 C863 1.392 . S
C862 C864 1.386 . S
C863 C861 1.393 . S
C863 C862 1.392 . S
C863 H880 0.930 . S
C864 C862 1.386 . S
C864 C866 1.395 . S
C864 H881 0.930 . S
C865 C861 1.395 . S
C865 C866 1.379 . S
C865 H882 0.930 . S
C866 C864 1.395 . S
C866 C865 1.379 . S
C866 H883 0.930 . S
C867 O850 1.264 . S
C867 O851 1.254 . S
C868 Eu804 2.848 . S
C868 O848 1.257 . S
C868 O853 1.249 . S
C868 C861 1.492 . S
C869 H834 0.931 . S
C869 C847 1.420 . S
C869 C870 1.351 . S
C870 H832 0.930 . S
C870 C838 1.423 . S
C870 C869 1.351 . S
C871 O855 1.276 . S
C871 O858 1.235 . S
C872 C873 1.393 . S
C872 C876 1.395 . S
C872 C879 1.492 . S
C873 C872 1.393 . S
C873 C874 1.392 . S
C873 H884 0.930 . S
C874 C873 1.392 . S
C874 C875 1.386 . S
C875 C874 1.386 . S
C875 C877 1.395 . S
C875 H885 0.930 . S
C876 C872 1.395 . S
C876 C877 1.379 . S
C876 H886 0.930 . S
C877 C875 1.395 . S
C877 C876 1.379 . S
C877 H887 0.930 . S
C878 O856 1.264 . S
C878 O857 1.254 . S
C879 Eu815 2.848 . S
C879 O854 1.257 . S
C879 O859 1.249 . S
C879 C872 1.492 . S
H880 C863 0.930 . S
H881 C864 0.930 . S
H882 C865 0.930 . S
H883 C866 0.930 . S
H884 C873 0.930 . S
H885 C875 0.930 . S
H886 C876 0.930 . S
H887 C877 0.930 . S
Eu888 N919 2.657 . S
Eu888 N926 2.609 . S
Eu888 O932 2.558 . S
Eu888 O933 2.612 . S
Eu888 O935 2.339 . S
Eu888 O936 2.563 . S
Eu888 O937 2.419 . S
Eu888 O939 2.380 . S
Eu888 O940 2.432 . S
Eu888 C952 2.848 . S
C889 C892 1.429 . S
C889 C893 1.411 . S
C889 N896 1.377 . S
C890 C892 1.420 . S
C890 C894 1.423 . S
C890 C902 1.392 . S
C891 C893 1.420 . S
C891 C894 1.351 . S
C891 H914 0.931 . S
C892 C889 1.429 . S
C892 C890 1.420 . S
C892 N900 1.362 . S
C893 C889 1.411 . S
C893 C891 1.420 . S
C893 C898 1.395 . S
C894 C890 1.423 . S
C894 C891 1.351 . S
C894 H906 0.930 . S
C895 C897 1.400 . S
C895 C898 1.386 . S
C895 H907 0.930 . S
N896 C889 1.377 . S
N896 C897 1.321 . S
N896 Eu899 2.609 . S
C897 C895 1.400 . S
C897 N896 1.321 . S
C897 H904 0.930 . S
C898 C893 1.395 . S
C898 C895 1.386 . S
C898 H917 0.930 . S
Eu899 N896 2.609 . S
Eu899 N900 2.657 . S
Eu899 O933 2.380 . S
Eu899 O934 2.432 . S
Eu899 O938 2.558 . S
Eu899 O939 2.612 . S
Eu899 O941 2.339 . S
Eu899 O942 2.563 . S
Eu899 O943 2.419 . S
Eu899 C963 2.848 . S
N900 C892 1.362 . S
N900 Eu899 2.657 . S
N900 C901 1.334 . S
C901 N900 1.334 . S
C901 C903 1.413 . S
C901 H908 0.929 . S
C902 C890 1.392 . S
C902 C903 1.367 . S
C902 H910 0.930 . S
C903 C901 1.413 . S
C903 C902 1.367 . S
C903 H905 0.930 . S
H904 C897 0.930 . S
H905 C903 0.930 . S
H906 C894 0.930 . S
H907 C895 0.930 . S
H908 C901 0.929 . S
H909 C923 0.930 . S
H910 C902 0.930 . S
H911 C929 0.930 . S
H912 C920 0.929 . S
H913 C927 0.930 . S
H914 C891 0.931 . S
H915 C921 0.930 . S
H916 C954 0.930 . S
H917 C898 0.930 . S
H918 C953 0.931 . S
N919 Eu888 2.657 . S
N919 C920 1.334 . S
N919 C924 1.362 . S
C920 H912 0.929 . S
C920 N919 1.334 . S
C920 C923 1.413 1_655 S
C921 H915 0.930 . S
C921 C922 1.392 . S
C921 C923 1.367 . S
C922 C921 1.392 . S
C922 C924 1.420 1_455 S
C922 C954 1.423 . S
C923 H909 0.930 . S
C923 C920 1.413 1_455 S
C923 C921 1.367 . S
C924 N919 1.362 . S
C924 C922 1.420 1_655 S
C924 C928 1.429 . S
H925 C930 0.930 . S
N926 Eu888 2.609 . S
N926 C928 1.377 . S
N926 C929 1.321 . S
C927 H913 0.930 . S
C927 C929 1.400 . S
C927 C930 1.386 . S
C928 C924 1.429 . S
C928 N926 1.377 . S
C928 C931 1.411 . S
C929 H911 0.930 . S
C929 N926 1.321 . S
C929 C927 1.400 . S
C930 H925 0.930 . S
C930 C927 1.386 . S
C930 C931 1.395 . S
C931 C928 1.411 . S
C931 C930 1.395 . S
C931 C953 1.420 1_655 S
O932 Eu888 2.558 . S
O932 C952 1.257 . S
O933 Eu888 2.612 . S
O933 Eu899 2.380 . S
O933 C944 1.276 . S
O934 Eu899 2.432 . S
O934 C951 1.264 . S
O935 Eu888 2.339 . S
O935 C951 1.254 . S
O936 Eu888 2.563 . S
O936 C944 1.235 . S
O937 Eu888 2.419 . S
O937 C952 1.249 . S
O938 Eu899 2.558 . S
O938 C963 1.257 . S
O939 Eu888 2.380 . S
O939 Eu899 2.612 . S
O939 C955 1.276 . S
O940 Eu888 2.432 . S
O940 C962 1.264 . S
O941 Eu899 2.339 . S
O941 C962 1.254 . S
O942 Eu899 2.563 . S
O942 C955 1.235 . S
O943 Eu899 2.419 . S
O943 C963 1.249 . S
C944 O933 1.276 . S
C944 O936 1.235 . S
C945 C947 1.393 . S
C945 C949 1.395 . S
C945 C952 1.492 . S
C946 C947 1.392 . S
C946 C948 1.386 . S
C947 C945 1.393 . S
C947 C946 1.392 . S
C947 H964 0.930 . S
C948 C946 1.386 . S
C948 C950 1.395 . S
C948 H965 0.930 . S
C949 C945 1.395 . S
C949 C950 1.379 . S
C949 H966 0.930 . S
C950 C948 1.395 . S
C950 C949 1.379 . S
C950 H967 0.930 . S
C951 O934 1.264 . S
C951 O935 1.254 . S
C952 Eu888 2.848 . S
C952 O932 1.257 . S
C952 O937 1.249 . S
C952 C945 1.492 . S
C953 H918 0.931 . S
C953 C931 1.420 1_455 S
C953 C954 1.351 . S
C954 H916 0.930 . S
C954 C922 1.423 . S
C954 C953 1.351 . S
C955 O939 1.276 . S
C955 O942 1.235 . S
C956 C957 1.393 . S
C956 C960 1.395 . S
C956 C963 1.492 . S
C957 C956 1.393 . S
C957 C958 1.392 . S
C957 H968 0.930 . S
C958 C957 1.392 . S
C958 C959 1.386 . S
C959 C958 1.386 . S
C959 C961 1.395 . S
C959 H969 0.930 . S
C960 C956 1.395 . S
C960 C961 1.379 . S
C960 H970 0.930 . S
C961 C959 1.395 . S
C961 C960 1.379 . S
C961 H971 0.930 . S
C962 O940 1.264 . S
C962 O941 1.254 . S
C963 Eu899 2.848 . S
C963 O938 1.257 . S
C963 O943 1.249 . S
C963 C956 1.492 . S
H964 C947 0.930 . S
H965 C948 0.930 . S
H966 C949 0.930 . S
H967 C950 0.930 . S
H968 C957 0.930 . S
H969 C959 0.930 . S
H970 C960 0.930 . S
H971 C961 0.930 . S
C972 C973 1.363 . S
C972 C978 1.379 . S
C972 N980 1.356 . S
C973 C972 1.363 . S
C973 C979 1.363 . S
C974 C975 1.363 . S
C974 C979 1.379 . S
C974 N981 1.356 . S
C975 C974 1.363 . S
C975 C978 1.363 . S
N976 C978 1.356 1_556 S
N976 H988 0.984 . S
N976 H989 0.985 . S
N977 C979 1.356 . S
N977 H982 0.984 . S
N977 H983 0.985 . S
C978 C972 1.379 . S
C978 C975 1.363 . S
C978 N976 1.356 1_554 S
C979 C973 1.363 . S
C979 C974 1.379 . S
C979 N977 1.356 . S
N980 C972 1.356 . S
N980 H986 0.984 1_554 S
N980 H987 0.984 . S
N981 C974 1.356 . S
N981 H984 0.984 . S
N981 H985 0.985 . S
H982 N977 0.984 . S
H983 N977 0.985 . S
H984 N981 0.984 . S
H985 N981 0.985 . S
H986 N980 0.984 1_556 S
H987 N980 0.984 . S
H988 N976 0.984 . S
H989 N976 0.985 . S
C990 C991 1.363 . S
C990 C996 1.379 . S
C990 N998 1.356 . S
C991 C990 1.363 . S
C991 C997 1.363 . S
C992 C993 1.363 . S
C992 C997 1.379 . S
C992 N999 1.356 . S
C993 C992 1.363 . S
C993 C996 1.363 . S
N994 C996 1.356 . S
N994 H1006 0.984 . S
N994 H1007 0.985 . S
N995 C997 1.356 . S
N995 H1000 0.984 . S
N995 H1001 0.985 . S
C996 C990 1.379 . S
C996 C993 1.363 . S
C996 N994 1.356 . S
C997 C991 1.363 . S
C997 C992 1.379 . S
C997 N995 1.356 . S
N998 C990 1.356 . S
N998 H1004 0.984 . S
N998 H1005 0.984 . S
N999 C992 1.356 . S
N999 H1002 0.984 . S
N999 H1003 0.985 . S
H1000 N995 0.984 . S
H1001 N995 0.985 . S
H1002 N999 0.984 . S
H1003 N999 0.985 . S
H1004 N998 0.984 . S
H1005 N998 0.984 . S
H1006 N994 0.984 . S
H1007 N994 0.985 . S
C1008 C1009 1.363 . S
C1008 C1014 1.379 . S
C1008 N1016 1.356 . S
C1009 C1008 1.363 . S
C1009 C1015 1.363 . S
C1010 C1011 1.363 . S
C1010 C1015 1.379 . S
C1010 N1017 1.356 . S
C1011 C1010 1.363 . S
C1011 C1014 1.363 . S
N1012 C1014 1.356 . S
N1012 H1024 0.984 . S
N1012 H1025 0.985 . S
N1013 C1015 1.356 . S
N1013 H1018 0.984 . S
N1013 H1019 0.985 . S
C1014 C1008 1.379 . S
C1014 C1011 1.363 . S
C1014 N1012 1.356 . S
C1015 C1009 1.363 . S
C1015 C1010 1.379 . S
C1015 N1013 1.356 . S
N1016 C1008 1.356 . S
N1016 H1022 0.984 . S
N1016 H1023 0.984 . S
N1017 C1010 1.356 . S
N1017 H1020 0.984 1_554 S
N1017 H1021 0.985 1_554 S
H1018 N1013 0.984 . S
H1019 N1013 0.985 . S
H1020 N1017 0.984 1_556 S
H1021 N1017 0.985 1_556 S
H1022 N1016 0.984 . S
H1023 N1016 0.984 . S
H1024 N1012 0.984 . S
H1025 N1012 0.985 . S
C1026 C1027 1.363 . S
C1026 C1032 1.379 . S
C1026 N1034 1.356 . S
C1027 C1026 1.363 . S
C1027 C1033 1.363 . S
C1028 C1029 1.363 . S
C1028 C1033 1.379 . S
C1028 N1035 1.356 1_556 S
C1029 C1028 1.363 . S
C1029 C1032 1.363 . S
N1030 C1032 1.356 . S
N1030 H1042 0.984 . S
N1030 H1043 0.985 . S
N1031 C1033 1.356 . S
N1031 H1036 0.984 . S
N1031 H1037 0.985 . S
C1032 C1026 1.379 . S
C1032 C1029 1.363 . S
C1032 N1030 1.356 . S
C1033 C1027 1.363 . S
C1033 C1028 1.379 . S
C1033 N1031 1.356 . S
N1034 C1026 1.356 . S
N1034 H1040 0.984 . S
N1034 H1041 0.984 . S
N1035 C1028 1.356 1_554 S
N1035 H1038 0.984 . S
N1035 H1039 0.985 . S
H1036 N1031 0.984 . S
H1037 N1031 0.985 . S
H1038 N1035 0.984 . S
H1039 N1035 0.985 . S
H1040 N1034 0.984 . S
H1041 N1034 0.984 . S
H1042 N1030 0.984 . S
H1043 N1030 0.985 . S
C1044 C1045 1.363 . S
C1044 C1050 1.379 . S
C1044 N1052 1.356 . S
C1045 C1044 1.363 . S
C1045 C1051 1.363 . S
C1046 C1047 1.364 . S
C1046 C1051 1.380 . S
C1046 N1053 1.354 1_556 S
C1047 C1046 1.364 . S
C1047 C1050 1.363 . S
N1048 C1050 1.356 . S
N1048 H1060 0.984 . S
N1048 H1061 0.985 . S
N1049 C1051 1.369 . S
N1049 H1054 1.008 . S
N1049 H1055 0.950 1_556 S
C1050 C1044 1.379 . S
C1050 C1047 1.363 . S
C1050 N1048 1.356 . S
C1051 C1045 1.363 . S
C1051 C1046 1.380 . S
C1051 N1049 1.369 . S
N1052 C1044 1.356 . S
N1052 H1058 0.984 . S
N1052 H1059 0.984 . S
N1053 C1046 1.354 1_554 S
N1053 H1056 0.984 . S
N1053 H1057 0.985 . S
H1054 N1049 1.008 . S
H1055 N1049 0.950 1_554 S
H1056 N1053 0.984 . S
H1057 N1053 0.985 . S
H1058 N1052 0.984 . S
H1059 N1052 0.984 . S
H1060 N1048 0.984 . S
H1061 N1048 0.985 . S
C1062 C1063 1.363 . S
C1062 C1068 1.384 . S
C1062 N1070 1.356 . S
C1063 C1062 1.363 . S
C1063 C1069 1.363 . S
C1064 C1065 1.363 . S
C1064 C1069 1.379 . S
C1064 N1071 1.356 . S
C1065 C1064 1.363 . S
C1065 C1068 1.371 . S
N1066 C1068 1.344 1_554 S
N1066 H1078 0.984 . S
N1066 H1079 0.985 . S
N1067 C1069 1.356 . S
N1067 H1072 0.984 . S
N1067 H1073 0.985 . S
C1068 C1062 1.384 . S
C1068 C1065 1.371 . S
C1068 N1066 1.344 1_556 S
C1069 C1063 1.363 . S
C1069 C1064 1.379 . S
C1069 N1067 1.356 . S
N1070 C1062 1.356 . S
N1070 H1076 0.984 1_556 S
N1070 H1077 0.984 . S
N1071 C1064 1.356 . S
N1071 H1074 0.984 . S
N1071 H1075 0.985 . S
H1072 N1067 0.984 . S
H1073 N1067 0.985 . S
H1074 N1071 0.984 . S
H1075 N1071 0.985 . S
H1076 N1070 0.984 1_554 S
H1077 N1070 0.984 . S
H1078 N1066 0.984 . S
H1079 N1066 0.985 . S
C1080 C1081 1.357 1_554 S
C1080 C1086 1.380 . S
C1080 N1088 1.359 . S
C1081 C1080 1.357 1_556 S
C1081 C1087 1.363 . S
C1082 C1083 1.363 . S
C1082 C1087 1.379 . S
C1082 N1089 1.356 . S
C1083 C1082 1.363 . S
C1083 C1086 1.363 1_556 S
N1084 C1086 1.356 . S
N1084 H1096 0.984 . S
N1084 H1097 0.985 . S
N1085 C1087 1.356 . S
N1085 H1090 0.984 . S
N1085 H1091 0.985 . S
C1086 C1080 1.380 . S
C1086 C1083 1.363 1_554 S
C1086 N1084 1.356 . S
C1087 C1081 1.363 . S
C1087 C1082 1.379 . S
C1087 N1085 1.356 . S
N1088 C1080 1.359 . S
N1088 H1094 0.984 . S
N1088 H1095 0.984 . S
N1089 C1082 1.356 . S
N1089 H1092 0.984 . S
N1089 H1093 0.985 . S
H1090 N1085 0.984 . S
H1091 N1085 0.985 . S
H1092 N1089 0.984 . S
H1093 N1089 0.985 . S
H1094 N1088 0.984 . S
H1095 N1088 0.984 . S
H1096 N1084 0.984 . S
H1097 N1084 0.985 . S
C1098 C1099 1.363 . S
C1098 C1104 1.373 1_556 S
C1098 N1106 1.356 1_556 S
C1099 C1098 1.363 . S
C1099 C1105 1.363 . S
C1100 C1101 1.363 . S
C1100 C1105 1.379 . S
C1100 N1107 1.356 . S
C1101 C1100 1.363 . S
C1101 C1104 1.347 1_556 S
N1102 C1104 1.376 . S
N1102 H1114 0.984 . S
N1102 H1115 0.985 . S
N1103 C1105 1.356 . S
N1103 H1108 0.984 . S
N1103 H1109 0.985 . S
C1104 C1098 1.373 1_554 S
C1104 C1101 1.347 1_554 S
C1104 N1102 1.376 . S
C1105 C1099 1.363 . S
C1105 C1100 1.379 . S
C1105 N1103 1.356 . S
N1106 C1098 1.356 1_554 S
N1106 H1112 0.984 . S
N1106 H1113 0.984 1_554 S
N1107 C1100 1.356 . S
N1107 H1110 0.984 . S
N1107 H1111 0.985 . S
H1108 N1103 0.984 . S
H1109 N1103 0.985 . S
H1110 N1107 0.984 . S
H1111 N1107 0.985 . S
H1112 N1106 0.984 . S
H1113 N1106 0.984 1_556 S
H1114 N1102 0.984 . S
H1115 N1102 0.985 . S
C1116 C1117 1.371 . S
C1116 C1122 1.377 1_556 S
C1116 N1124 1.352 1_556 S
C1117 C1116 1.371 . S
C1117 C1123 1.363 . S
C1118 C1119 1.363 . S
C1118 C1123 1.379 . S
C1118 N1125 1.356 . S
C1119 C1118 1.363 . S
C1119 C1122 1.363 1_556 S
N1120 C1122 1.356 . S
N1120 H1132 0.984 . S
N1120 H1133 0.985 . S
N1121 C1123 1.356 . S
N1121 H1126 0.984 . S
N1121 H1127 0.985 . S
C1122 C1116 1.377 1_554 S
C1122 C1119 1.363 1_554 S
C1122 N1120 1.356 . S
C1123 C1117 1.363 . S
C1123 C1118 1.379 . S
C1123 N1121 1.356 . S
N1124 C1116 1.352 1_554 S
N1124 H1130 0.984 . S
N1124 H1131 0.984 . S
N1125 C1118 1.356 . S
N1125 H1128 0.984 . S
N1125 H1129 0.985 . S
H1126 N1121 0.984 . S
H1127 N1121 0.985 . S
H1128 N1125 0.984 . S
H1129 N1125 0.985 . S
H1130 N1124 0.984 . S
H1131 N1124 0.984 . S
H1132 N1120 0.984 . S
H1133 N1120 0.985 . S
C1134 C1135 1.363 . S
C1134 C1140 1.379 . S
C1134 N1142 1.356 . S
C1135 C1134 1.363 . S
C1135 C1141 1.363 . S
C1136 C1137 1.363 . S
C1136 C1141 1.379 . S
C1136 N1143 1.356 . S
C1137 C1136 1.363 . S
C1137 C1140 1.363 . S
N1138 C1140 1.356 1_556 S
N1138 H1150 0.984 . S
N1138 H1151 0.985 . S
N1139 C1141 1.356 . S
N1139 H1144 0.984 . S
N1139 H1145 0.985 . S
C1140 C1134 1.379 . S
C1140 C1137 1.363 . S
C1140 N1138 1.356 1_554 S
C1141 C1135 1.363 . S
C1141 C1136 1.379 . S
C1141 N1139 1.356 . S
N1142 C1134 1.356 . S
N1142 H1148 0.984 1_554 S
N1142 H1149 0.984 . S
N1143 C1136 1.356 . S
N1143 H1146 0.984 . S
N1143 H1147 0.985 . S
H1144 N1139 0.984 . S
H1145 N1139 0.985 . S
H1146 N1143 0.984 . S
H1147 N1143 0.985 . S
H1148 N1142 0.984 1_556 S
H1149 N1142 0.984 . S
H1150 N1138 0.984 . S
H1151 N1138 0.985 . S
C1152 C1153 1.363 . S
C1152 C1158 1.379 . S
C1152 N1160 1.356 . S
C1153 C1152 1.363 . S
C1153 C1159 1.363 . S
C1154 C1155 1.363 . S
C1154 C1159 1.379 . S
C1154 N1161 1.356 . S
C1155 C1154 1.363 . S
C1155 C1158 1.363 . S
N1156 C1158 1.356 1_556 S
N1156 H1168 0.984 . S
N1156 H1169 0.985 . S
N1157 C1159 1.356 . S
N1157 H1162 0.984 . S
N1157 H1163 0.985 . S
C1158 C1152 1.379 . S
C1158 C1155 1.363 . S
C1158 N1156 1.356 1_554 S
C1159 C1153 1.363 . S
C1159 C1154 1.379 . S
C1159 N1157 1.356 . S
N1160 C1152 1.356 . S
N1160 H1166 0.984 1_554 S
N1160 H1167 0.984 . S
N1161 C1154 1.356 . S
N1161 H1164 0.984 . S
N1161 H1165 0.985 . S
H1162 N1157 0.984 . S
H1163 N1157 0.985 . S
H1164 N1161 0.984 . S
H1165 N1161 0.985 . S
H1166 N1160 0.984 1_556 S
H1167 N1160 0.984 . S
H1168 N1156 0.984 . S
H1169 N1156 0.985 . S
C1170 C1171 1.363 . S
C1170 C1176 1.379 . S
C1170 N1178 1.356 . S
C1171 C1170 1.363 . S
C1171 C1177 1.363 . S
C1172 C1173 1.363 . S
C1172 C1177 1.379 . S
C1172 N1179 1.356 1_554 S
C1173 C1172 1.363 . S
C1173 C1176 1.363 . S
N1174 C1176 1.356 . S
N1174 H1186 0.984 . S
N1174 H1187 0.985 . S
N1175 C1177 1.355 1_556 S
N1175 H1180 0.983 1_556 S
N1175 H1181 0.987 . S
C1176 C1170 1.379 . S
C1176 C1173 1.363 . S
C1176 N1174 1.356 . S
C1177 C1171 1.363 . S
C1177 C1172 1.379 . S
C1177 N1175 1.355 1_554 S
N1178 C1170 1.356 . S
N1178 H1184 0.984 . S
N1178 H1185 0.984 . S
N1179 C1172 1.356 1_556 S
N1179 H1182 0.984 . S
N1179 H1183 0.985 . S
H1180 N1175 0.983 1_554 S
H1181 N1175 0.987 . S
H1182 N1179 0.984 . S
H1183 N1179 0.985 . S
H1184 N1178 0.984 . S
H1185 N1178 0.984 . S
H1186 N1174 0.984 . S
H1187 N1174 0.985 . S
C1188 C1189 1.363 . S
C1188 C1194 1.379 1_655 S
C1188 N1196 1.356 . S
C1189 C1188 1.363 . S
C1189 C1195 1.363 . S
C1190 C1191 1.363 . S
C1190 C1195 1.379 1_455 S
C1190 N1197 1.356 . S
C1191 C1190 1.363 . S
C1191 C1194 1.363 . S
N1192 C1194 1.356 . S
N1192 H1204 0.984 . S
N1192 H1205 0.985 . S
N1193 C1195 1.356 . S
N1193 H1198 0.984 . S
N1193 H1199 0.985 . S
C1194 C1188 1.379 1_455 S
C1194 C1191 1.363 . S
C1194 N1192 1.356 . S
C1195 C1189 1.363 . S
C1195 C1190 1.379 1_655 S
C1195 N1193 1.356 . S
N1196 C1188 1.356 . S
N1196 H1202 0.984 . S
N1196 H1203 0.984 . S
N1197 C1190 1.356 . S
N1197 H1200 0.984 . S
N1197 H1201 0.985 . S
H1198 N1193 0.984 . S
H1199 N1193 0.985 . S
H1200 N1197 0.984 . S
H1201 N1197 0.985 . S
H1202 N1196 0.984 . S
H1203 N1196 0.984 . S
H1204 N1192 0.984 . S
H1205 N1192 0.985 . S
C1206 C1207 1.363 . S
C1206 C1212 1.379 . S
C1206 N1214 1.356 . S
C1207 C1206 1.363 . S
C1207 C1213 1.363 . S
C1208 C1209 1.363 . S
C1208 C1213 1.379 . S
C1208 N1215 1.356 . S
C1209 C1208 1.363 . S
C1209 C1212 1.363 . S
N1210 C1212 1.356 . S
N1210 H1222 0.984 . S
N1210 H1223 0.985 . S
N1211 C1213 1.356 . S
N1211 H1216 0.984 . S
N1211 H1217 0.985 . S
C1212 C1206 1.379 . S
C1212 C1209 1.363 . S
C1212 N1210 1.356 . S
C1213 C1207 1.363 . S
C1213 C1208 1.379 . S
C1213 N1211 1.356 . S
N1214 C1206 1.356 . S
N1214 H1220 0.984 . S
N1214 H1221 0.984 . S
N1215 C1208 1.356 . S
N1215 H1218 0.984 . S
N1215 H1219 0.985 . S
H1216 N1211 0.984 . S
H1217 N1211 0.985 . S
H1218 N1215 0.984 . S
H1219 N1215 0.985 . S
H1220 N1214 0.984 . S
H1221 N1214 0.984 . S
H1222 N1210 0.984 . S
H1223 N1210 0.985 . S
C1224 C1225 1.363 . S
C1224 C1230 1.379 1_545 S
C1224 N1232 1.356 . S
C1225 C1224 1.363 . S
C1225 C1231 1.363 . S
C1226 C1227 1.363 . S
C1226 C1231 1.379 1_565 S
C1226 N1233 1.356 . S
C1227 C1226 1.363 . S
C1227 C1230 1.363 . S
N1228 C1230 1.356 . S
N1228 H1240 0.984 . S
N1228 H1241 0.985 . S
N1229 C1231 1.356 . S
N1229 H1234 0.984 . S
N1229 H1235 0.985 . S
C1230 C1224 1.379 1_565 S
C1230 C1227 1.363 . S
C1230 N1228 1.356 . S
C1231 C1225 1.363 . S
C1231 C1226 1.379 1_545 S
C1231 N1229 1.356 . S
N1232 C1224 1.356 . S
N1232 H1238 0.984 . S
N1232 H1239 0.984 . S
N1233 C1226 1.356 . S
N1233 H1236 0.984 . S
N1233 H1237 0.985 . S
H1234 N1229 0.984 . S
H1235 N1229 0.985 . S
H1236 N1233 0.984 . S
H1237 N1233 0.985 . S
H1238 N1232 0.984 . S
H1239 N1232 0.984 . S
H1240 N1228 0.984 . S
H1241 N1228 0.985 . S
C1242 C1243 1.363 . S
C1242 C1248 1.379 . S
C1242 N1250 1.356 . S
C1243 C1242 1.363 . S
C1243 C1249 1.363 . S
C1244 C1245 1.363 . S
C1244 C1249 1.379 . S
C1244 N1251 1.356 . S
C1245 C1244 1.363 . S
C1245 C1248 1.363 . S
N1246 C1248 1.356 . S
N1246 H1258 0.984 . S
N1246 H1259 0.985 . S
N1247 C1249 1.356 . S
N1247 H1252 0.984 . S
N1247 H1253 0.985 . S
C1248 C1242 1.379 . S
C1248 C1245 1.363 . S
C1248 N1246 1.356 . S
C1249 C1243 1.363 . S
C1249 C1244 1.379 . S
C1249 N1247 1.356 . S
N1250 C1242 1.356 . S
N1250 H1256 0.984 . S
N1250 H1257 0.984 . S
N1251 C1244 1.356 . S
N1251 H1254 0.984 . S
N1251 H1255 0.985 . S
H1252 N1247 0.984 . S
H1253 N1247 0.985 . S
H1254 N1251 0.984 . S
H1255 N1251 0.985 . S
H1256 N1250 0.984 . S
H1257 N1250 0.984 . S
H1258 N1246 0.984 . S
H1259 N1246 0.985 . S
C1260 C1261 1.363 . S
C1260 C1266 1.379 . S
C1260 N1268 1.356 . S
C1261 C1260 1.363 . S
C1261 C1267 1.363 . S
C1262 C1263 1.363 . S
C1262 C1267 1.379 . S
C1262 N1269 1.356 . S
C1263 C1262 1.363 . S
C1263 C1266 1.363 . S
N1264 C1266 1.356 . S
N1264 H1276 0.984 . S
N1264 H1277 0.985 . S
N1265 C1267 1.356 . S
N1265 H1270 0.984 . S
N1265 H1271 0.985 . S
C1266 C1260 1.379 . S
C1266 C1263 1.363 . S
C1266 N1264 1.356 . S
C1267 C1261 1.363 . S
C1267 C1262 1.379 . S
C1267 N1265 1.356 . S
N1268 C1260 1.356 . S
N1268 H1274 0.984 . S
N1268 H1275 0.984 . S
N1269 C1262 1.356 . S
N1269 H1272 0.984 . S
N1269 H1273 0.985 . S
H1270 N1265 0.984 . S
H1271 N1265 0.985 . S
H1272 N1269 0.984 . S
H1273 N1269 0.985 . S
H1274 N1268 0.984 . S
H1275 N1268 0.984 . S
H1276 N1264 0.984 . S
H1277 N1264 0.985 . S
C1278 C1279 1.363 . S
C1278 C1284 1.379 . S
C1278 N1286 1.356 . S
C1279 C1278 1.363 . S
C1279 C1285 1.363 . S
C1280 C1281 1.363 . S
C1280 C1285 1.379 . S
C1280 N1287 1.356 . S
C1281 C1280 1.363 . S
C1281 C1284 1.363 . S
N1282 C1284 1.356 . S
N1282 H1294 0.984 . S
N1282 H1295 0.985 . S
N1283 C1285 1.356 . S
N1283 H1288 0.984 . S
N1283 H1289 0.985 . S
C1284 C1278 1.379 . S
C1284 C1281 1.363 . S
C1284 N1282 1.356 . S
C1285 C1279 1.363 . S
C1285 C1280 1.379 . S
C1285 N1283 1.356 . S
N1286 C1278 1.356 . S
N1286 H1292 0.984 . S
N1286 H1293 0.984 . S
N1287 C1280 1.356 . S
N1287 H1290 0.984 . S
N1287 H1291 0.985 . S
H1288 N1283 0.984 . S
H1289 N1283 0.985 . S
H1290 N1287 0.984 . S
H1291 N1287 0.985 . S
H1292 N1286 0.984 . S
H1293 N1286 0.984 . S
H1294 N1282 0.984 . S
H1295 N1282 0.985 . S
C1296 C1297 1.363 . S
C1296 C1302 1.379 . S
C1296 N1304 1.356 . S
C1297 C1296 1.363 . S
C1297 C1303 1.363 . S
C1298 C1299 1.363 . S
C1298 C1303 1.379 . S
C1298 N1305 1.356 . S
C1299 C1298 1.363 . S
C1299 C1302 1.363 . S
N1300 C1302 1.356 . S
N1300 H1312 0.984 . S
N1300 H1313 0.985 . S
N1301 C1303 1.356 . S
N1301 H1306 0.984 . S
N1301 H1307 0.985 . S
C1302 C1296 1.379 . S
C1302 C1299 1.363 . S
C1302 N1300 1.356 . S
C1303 C1297 1.363 . S
C1303 C1298 1.379 . S
C1303 N1301 1.356 . S
N1304 C1296 1.356 . S
N1304 H1310 0.984 . S
N1304 H1311 0.984 . S
N1305 C1298 1.356 . S
N1305 H1308 0.984 . S
N1305 H1309 0.985 . S
H1306 N1301 0.984 . S
H1307 N1301 0.985 . S
H1308 N1305 0.984 . S
H1309 N1305 0.985 . S
H1310 N1304 0.984 . S
H1311 N1304 0.984 . S
H1312 N1300 0.984 . S
H1313 N1300 0.985 . S
C1314 C1315 1.363 . S
C1314 C1320 1.379 . S
C1314 N1322 1.356 . S
C1315 C1314 1.363 . S
C1315 C1321 1.363 . S
C1316 C1317 1.363 . S
C1316 C1321 1.379 . S
C1316 N1323 1.356 . S
C1317 C1316 1.363 . S
C1317 C1320 1.363 . S
N1318 C1320 1.356 . S
N1318 H1330 0.984 . S
N1318 H1331 0.985 . S
N1319 C1321 1.356 . S
N1319 H1324 0.984 . S
N1319 H1325 0.985 . S
C1320 C1314 1.379 . S
C1320 C1317 1.363 . S
C1320 N1318 1.356 . S
C1321 C1315 1.363 . S
C1321 C1316 1.379 . S
C1321 N1319 1.356 . S
N1322 C1314 1.356 . S
N1322 H1328 0.984 . S
N1322 H1329 0.984 . S
N1323 C1316 1.356 . S
N1323 H1326 0.984 . S
N1323 H1327 0.985 . S
H1324 N1319 0.984 . S
H1325 N1319 0.985 . S
H1326 N1323 0.984 . S
H1327 N1323 0.985 . S
H1328 N1322 0.984 . S
H1329 N1322 0.984 . S
H1330 N1318 0.984 . S
H1331 N1318 0.985 . S
C1332 C1333 1.363 . S
C1332 C1338 1.379 . S
C1332 N1340 1.356 . S
C1333 C1332 1.363 . S
C1333 C1339 1.363 . S
C1334 C1335 1.363 . S
C1334 C1339 1.379 . S
C1334 N1341 1.356 . S
C1335 C1334 1.363 . S
C1335 C1338 1.363 . S
N1336 C1338 1.356 . S
N1336 H1348 0.984 . S
N1336 H1349 0.985 . S
N1337 C1339 1.356 . S
N1337 H1342 0.984 . S
N1337 H1343 0.985 . S
C1338 C1332 1.379 . S
C1338 C1335 1.363 . S
C1338 N1336 1.356 . S
C1339 C1333 1.363 . S
C1339 C1334 1.379 . S
C1339 N1337 1.356 . S
N1340 C1332 1.356 . S
N1340 H1346 0.984 . S
N1340 H1347 0.984 . S
N1341 C1334 1.356 . S
N1341 H1344 0.984 . S
N1341 H1345 0.985 . S
H1342 N1337 0.984 . S
H1343 N1337 0.985 . S
H1344 N1341 0.984 . S
H1345 N1341 0.985 . S
H1346 N1340 0.984 . S
H1347 N1340 0.984 . S
H1348 N1336 0.984 . S
H1349 N1336 0.985 . S
C1350 C1351 1.363 . S
C1350 C1356 1.379 . S
C1350 N1358 1.356 . S
C1351 C1350 1.363 . S
C1351 C1357 1.363 . S
C1352 C1353 1.363 . S
C1352 C1357 1.379 . S
C1352 N1359 1.356 . S
C1353 C1352 1.363 . S
C1353 C1356 1.363 . S
N1354 C1356 1.356 . S
N1354 H1366 0.984 . S
N1354 H1367 0.985 . S
N1355 C1357 1.356 1_545 S
N1355 H1360 0.984 . S
N1355 H1361 0.985 . S
C1356 C1350 1.379 . S
C1356 C1353 1.363 . S
C1356 N1354 1.356 . S
C1357 C1351 1.363 . S
C1357 C1352 1.379 . S
C1357 N1355 1.356 1_565 S
N1358 C1350 1.356 . S
N1358 H1364 0.984 . S
N1358 H1365 0.984 1_565 S
N1359 C1352 1.356 . S
N1359 H1362 0.984 . S
N1359 H1363 0.985 . S
H1360 N1355 0.984 . S
H1361 N1355 0.985 . S
H1362 N1359 0.984 . S
H1363 N1359 0.985 . S
H1364 N1358 0.984 . S
H1365 N1358 0.984 1_545 S
H1366 N1354 0.984 . S
H1367 N1354 0.985 . S
C1368 C1369 1.363 . S
C1368 C1374 1.379 . S
C1368 N1376 1.356 . S
C1369 C1368 1.363 . S
C1369 C1375 1.363 . S
C1370 C1371 1.363 . S
C1370 C1375 1.379 . S
C1370 N1377 1.356 . S
C1371 C1370 1.363 . S
C1371 C1374 1.363 . S
N1372 C1374 1.356 . S
N1372 H1384 0.984 . S
N1372 H1385 0.985 . S
N1373 C1375 1.356 . S
N1373 H1378 0.984 . S
N1373 H1379 0.985 . S
C1374 C1368 1.379 . S
C1374 C1371 1.363 . S
C1374 N1372 1.356 . S
C1375 C1369 1.363 . S
C1375 C1370 1.379 . S
C1375 N1373 1.356 . S
N1376 C1368 1.356 . S
N1376 H1382 0.984 . S
N1376 H1383 0.984 1_455 S
N1377 C1370 1.356 . S
N1377 H1380 0.984 . S
N1377 H1381 0.985 . S
H1378 N1373 0.984 . S
H1379 N1373 0.985 . S
H1380 N1377 0.984 . S
H1381 N1377 0.985 . S
H1382 N1376 0.984 . S
H1383 N1376 0.984 1_655 S
H1384 N1372 0.984 . S
H1385 N1372 0.985 . S
C1386 C1387 1.363 . S
C1386 C1392 1.379 . S
C1386 N1394 1.356 . S
C1387 C1386 1.363 . S
C1387 C1393 1.363 . S
C1388 C1389 1.363 . S
C1388 C1393 1.379 . S
C1388 N1395 1.356 . S
C1389 C1388 1.363 . S
C1389 C1392 1.363 . S
N1390 C1392 1.356 . S
N1390 H1402 0.984 . S
N1390 H1403 0.985 . S
N1391 C1393 1.356 . S
N1391 H1396 0.984 . S
N1391 H1397 0.985 . S
C1392 C1386 1.379 . S
C1392 C1389 1.363 . S
C1392 N1390 1.356 . S
C1393 C1387 1.363 . S
C1393 C1388 1.379 . S
C1393 N1391 1.356 . S
N1394 C1386 1.356 . S
N1394 H1400 0.984 . S
N1394 H1401 0.984 . S
N1395 C1388 1.356 . S
N1395 H1398 0.984 . S
N1395 H1399 0.985 . S
H1396 N1391 0.984 . S
H1397 N1391 0.985 . S
H1398 N1395 0.984 . S
H1399 N1395 0.985 . S
H1400 N1394 0.984 . S
H1401 N1394 0.984 . S
H1402 N1390 0.984 . S
H1403 N1390 0.985 . S
C1404 C1405 1.363 . S
C1404 C1410 1.379 . S
C1404 N1412 1.356 . S
C1405 C1404 1.363 . S
C1405 C1411 1.363 . S
C1406 C1407 1.363 . S
C1406 C1411 1.379 . S
C1406 N1413 1.356 . S
C1407 C1406 1.363 . S
C1407 C1410 1.363 . S
N1408 C1410 1.356 . S
N1408 H1420 0.984 . S
N1408 H1421 0.985 . S
N1409 C1411 1.356 . S
N1409 H1414 0.984 . S
N1409 H1415 0.985 . S
C1410 C1404 1.379 . S
C1410 C1407 1.363 . S
C1410 N1408 1.356 . S
C1411 C1405 1.363 . S
C1411 C1406 1.379 . S
C1411 N1409 1.356 . S
N1412 C1404 1.356 . S
N1412 H1418 0.984 . S
N1412 H1419 0.984 . S
N1413 C1406 1.356 . S
N1413 H1416 0.984 . S
N1413 H1417 0.985 . S
H1414 N1409 0.984 . S
H1415 N1409 0.985 . S
H1416 N1413 0.984 . S
H1417 N1413 0.985 . S
H1418 N1412 0.984 . S
H1419 N1412 0.984 . S
H1420 N1408 0.984 . S
H1421 N1408 0.985 . S
C1422 C1423 1.363 . S
C1422 C1428 1.379 . S
C1422 N1430 1.356 . S
C1423 C1422 1.363 . S
C1423 C1429 1.363 . S
C1424 C1425 1.363 . S
C1424 C1429 1.379 . S
C1424 N1431 1.356 . S
C1425 C1424 1.363 . S
C1425 C1428 1.363 . S
N1426 C1428 1.356 . S
N1426 H1438 0.984 . S
N1426 H1439 0.985 . S
N1427 C1429 1.356 . S
N1427 H1432 0.984 . S
N1427 H1433 0.985 . S
C1428 C1422 1.379 . S
C1428 C1425 1.363 . S
C1428 N1426 1.356 . S
C1429 C1423 1.363 . S
C1429 C1424 1.379 . S
C1429 N1427 1.356 . S
N1430 C1422 1.356 . S
N1430 H1436 0.984 . S
N1430 H1437 0.984 . S
N1431 C1424 1.356 . S
N1431 H1434 0.984 . S
N1431 H1435 0.985 . S
H1432 N1427 0.984 . S
H1433 N1427 0.985 . S
H1434 N1431 0.984 . S
H1435 N1431 0.985 . S
H1436 N1430 0.984 . S
H1437 N1430 0.984 . S
H1438 N1426 0.984 . S
H1439 N1426 0.985 . S
C1440 C1441 1.363 . S
C1440 C1446 1.379 . S
C1440 N1448 1.356 . S
C1441 C1440 1.363 . S
C1441 C1447 1.363 . S
C1442 C1443 1.363 . S
C1442 C1447 1.379 . S
C1442 N1449 1.356 . S
C1443 C1442 1.363 . S
C1443 C1446 1.363 . S
N1444 C1446 1.356 . S
N1444 H1456 0.984 . S
N1444 H1457 0.985 . S
N1445 C1447 1.356 . S
N1445 H1450 0.984 . S
N1445 H1451 0.985 . S
C1446 C1440 1.379 . S
C1446 C1443 1.363 . S
C1446 N1444 1.356 . S
C1447 C1441 1.363 . S
C1447 C1442 1.379 . S
C1447 N1445 1.356 . S
N1448 C1440 1.356 . S
N1448 H1454 0.984 . S
N1448 H1455 0.984 . S
N1449 C1442 1.356 . S
N1449 H1452 0.984 . S
N1449 H1453 0.985 . S
H1450 N1445 0.984 . S
H1451 N1445 0.985 . S
H1452 N1449 0.984 . S
H1453 N1449 0.985 . S
H1454 N1448 0.984 . S
H1455 N1448 0.984 . S
H1456 N1444 0.984 . S
H1457 N1444 0.985 . S
C1458 C1459 1.363 . S
C1458 C1464 1.379 1_565 S
C1458 N1466 1.356 . S
C1459 C1458 1.363 . S
C1459 C1465 1.363 . S
C1460 C1461 1.363 . S
C1460 C1465 1.379 1_545 S
C1460 N1467 1.356 . S
C1461 C1460 1.363 . S
C1461 C1464 1.363 . S
N1462 C1464 1.356 . S
N1462 H1474 0.984 . S
N1462 H1475 0.985 . S
N1463 C1465 1.356 . S
N1463 H1468 0.984 . S
N1463 H1469 0.985 . S
C1464 C1458 1.379 1_545 S
C1464 C1461 1.363 . S
C1464 N1462 1.356 . S
C1465 C1459 1.363 . S
C1465 C1460 1.379 1_565 S
C1465 N1463 1.356 . S
N1466 C1458 1.356 . S
N1466 H1472 0.984 . S
N1466 H1473 0.984 . S
N1467 C1460 1.356 . S
N1467 H1470 0.984 . S
N1467 H1471 0.985 . S
H1468 N1463 0.984 . S
H1469 N1463 0.985 . S
H1470 N1467 0.984 . S
H1471 N1467 0.985 . S
H1472 N1466 0.984 . S
H1473 N1466 0.984 . S
H1474 N1462 0.984 . S
H1475 N1462 0.985 . S
C1476 C1477 1.363 . S
C1476 C1482 1.379 . S
C1476 N1484 1.356 . S
C1477 C1476 1.363 . S
C1477 C1483 1.363 1_455 S
C1478 C1479 1.363 . S
C1478 C1483 1.379 . S
C1478 N1485 1.356 . S
C1479 C1478 1.363 . S
C1479 C1482 1.363 1_655 S
N1480 C1482 1.356 . S
N1480 H1492 0.984 . S
N1480 H1493 0.985 1_455 S
N1481 C1483 1.340 1_455 S
N1481 H1486 1.014 . S
N1481 H1487 0.972 1_455 S
C1482 C1476 1.379 . S
C1482 C1479 1.363 1_455 S
C1482 N1480 1.356 . S
C1483 C1477 1.363 1_655 S
C1483 C1478 1.379 . S
C1483 N1481 1.340 1_655 S
N1484 C1476 1.356 . S
N1484 H1490 0.984 . S
N1484 H1491 0.984 . S
N1485 C1478 1.356 . S
N1485 H1488 0.984 . S
N1485 H1489 0.985 . S
H1486 N1481 1.014 . S
H1487 N1481 0.972 1_655 S
H1488 N1485 0.984 . S
H1489 N1485 0.985 . S
H1490 N1484 0.984 . S
H1491 N1484 0.984 . S
H1492 N1480 0.984 . S
H1493 N1480 0.985 1_655 S
C1494 C1495 1.363 . S
C1494 C1500 1.379 . S
C1494 N1502 1.356 . S
C1495 C1494 1.363 . S
C1495 C1501 1.363 . S
C1496 C1497 1.363 . S
C1496 C1501 1.379 . S
C1496 N1503 1.356 . S
C1497 C1496 1.363 . S
C1497 C1500 1.363 . S
N1498 C1500 1.356 . S
N1498 H1510 0.984 . S
N1498 H1511 0.985 . S
N1499 C1501 1.356 . S
N1499 H1504 0.984 . S
N1499 H1505 0.985 . S
C1500 C1494 1.379 . S
C1500 C1497 1.363 . S
C1500 N1498 1.356 . S
C1501 C1495 1.363 . S
C1501 C1496 1.379 . S
C1501 N1499 1.356 . S
N1502 C1494 1.356 . S
N1502 H1508 0.984 . S
N1502 H1509 0.984 . S
N1503 C1496 1.356 . S
N1503 H1506 0.984 . S
N1503 H1507 0.985 . S
H1504 N1499 0.984 . S
H1505 N1499 0.985 . S
H1506 N1503 0.984 . S
H1507 N1503 0.985 . S
H1508 N1502 0.984 . S
H1509 N1502 0.984 . S
H1510 N1498 0.984 . S
H1511 N1498 0.985 . S
C1512 C1513 1.363 . S
C1512 C1518 1.379 . S
C1512 N1520 1.356 . S
C1513 C1512 1.363 . S
C1513 C1519 1.363 . S
C1514 C1515 1.363 . S
C1514 C1519 1.379 . S
C1514 N1521 1.356 . S
C1515 C1514 1.363 . S
C1515 C1518 1.363 . S
N1516 C1518 1.356 . S
N1516 H1528 0.984 . S
N1516 H1529 0.985 . S
N1517 C1519 1.356 1_455 S
N1517 H1522 0.984 . S
N1517 H1523 0.985 . S
C1518 C1512 1.379 . S
C1518 C1515 1.363 . S
C1518 N1516 1.356 . S
C1519 C1513 1.363 . S
C1519 C1514 1.379 . S
C1519 N1517 1.356 1_655 S
N1520 C1512 1.356 . S
N1520 H1526 0.984 . S
N1520 H1527 0.995 . S
N1521 C1514 1.356 . S
N1521 H1524 0.984 . S
N1521 H1525 0.985 . S
H1522 N1517 0.984 . S
H1523 N1517 0.985 . S
H1524 N1521 0.984 . S
H1525 N1521 0.985 . S
H1526 N1520 0.984 . S
H1527 N1520 0.995 . S
H1528 N1516 0.984 . S
H1529 N1516 0.985 . S
C1530 C1531 1.363 . S
C1530 C1536 1.379 . S
C1530 N1538 1.356 . S
C1531 C1530 1.363 . S
C1531 C1537 1.363 . S
C1532 C1533 1.363 . S
C1532 C1537 1.379 . S
C1532 N1539 1.356 . S
C1533 C1532 1.363 . S
C1533 C1536 1.363 . S
N1534 C1536 1.356 . S
N1534 H1546 0.984 . S
N1534 H1547 0.985 . S
N1535 C1537 1.356 . S
N1535 H1540 0.984 . S
N1535 H1541 0.985 . S
C1536 C1530 1.379 . S
C1536 C1533 1.363 . S
C1536 N1534 1.356 . S
C1537 C1531 1.363 . S
C1537 C1532 1.379 . S
C1537 N1535 1.356 . S
N1538 C1530 1.356 . S
N1538 H1544 0.984 . S
N1538 H1545 0.984 . S
N1539 C1532 1.356 . S
N1539 H1542 0.984 . S
N1539 H1543 0.985 . S
H1540 N1535 0.984 . S
H1541 N1535 0.985 . S
H1542 N1539 0.984 . S
H1543 N1539 0.985 . S
H1544 N1538 0.984 . S
H1545 N1538 0.984 . S
H1546 N1534 0.984 . S
H1547 N1534 0.985 . S
C1548 C1549 1.363 . S
C1548 C1554 1.379 . S
C1548 N1556 1.356 . S
C1549 C1548 1.363 . S
C1549 C1555 1.363 . S
C1550 C1551 1.363 . S
C1550 C1555 1.379 . S
C1550 N1557 1.356 . S
C1551 C1550 1.363 . S
C1551 C1554 1.363 . S
N1552 C1554 1.356 . S
N1552 H1564 0.984 . S
N1552 H1565 0.985 . S
N1553 C1555 1.355 1_565 S
N1553 H1558 0.987 . S
N1553 H1559 0.983 1_565 S
C1554 C1548 1.379 . S
C1554 C1551 1.363 . S
C1554 N1552 1.356 . S
C1555 C1549 1.363 . S
C1555 C1550 1.379 . S
C1555 N1553 1.355 1_545 S
N1556 C1548 1.356 . S
N1556 H1562 0.984 . S
N1556 H1563 0.984 1_545 S
N1557 C1550 1.356 . S
N1557 H1560 0.984 . S
N1557 H1561 0.985 . S
H1558 N1553 0.987 . S
H1559 N1553 0.983 1_545 S
H1560 N1557 0.984 . S
H1561 N1557 0.985 . S
H1562 N1556 0.984 . S
H1563 N1556 0.984 1_565 S
H1564 N1552 0.984 . S
H1565 N1552 0.985 . S
C1566 C1567 1.363 . S
C1566 C1572 1.379 . S
C1566 N1574 1.356 . S
C1567 C1566 1.363 . S
C1567 C1573 1.363 . S
C1568 C1569 1.363 . S
C1568 C1573 1.379 . S
C1568 N1575 1.356 . S
C1569 C1568 1.363 . S
C1569 C1572 1.363 . S
N1570 C1572 1.356 . S
N1570 H1582 0.984 . S
N1570 H1583 0.985 . S
N1571 C1573 1.356 . S
N1571 H1576 0.984 . S
N1571 H1577 0.985 . S
C1572 C1566 1.379 . S
C1572 C1569 1.363 . S
C1572 N1570 1.356 . S
C1573 C1567 1.363 . S
C1573 C1568 1.379 . S
C1573 N1571 1.356 . S
N1574 C1566 1.356 . S
N1574 H1580 0.984 . S
N1574 H1581 0.984 . S
N1575 C1568 1.356 . S
N1575 H1578 0.984 . S
N1575 H1579 0.985 . S
H1576 N1571 0.984 . S
H1577 N1571 0.985 . S
H1578 N1575 0.984 . S
H1579 N1575 0.985 . S
H1580 N1574 0.984 . S
H1581 N1574 0.984 . S
H1582 N1570 0.984 . S
H1583 N1570 0.985 . S
C1584 C1585 1.363 . S
C1584 C1590 1.379 . S
C1584 N1592 1.356 . S
C1585 C1584 1.363 . S
C1585 C1591 1.363 . S
C1586 C1587 1.363 . S
C1586 C1591 1.379 . S
C1586 N1593 1.356 . S
C1587 C1586 1.363 . S
C1587 C1590 1.363 . S
N1588 C1590 1.356 . S
N1588 H1600 0.984 . S
N1588 H1601 0.985 . S
N1589 C1591 1.356 . S
N1589 H1594 0.984 . S
N1589 H1595 0.985 . S
C1590 C1584 1.379 . S
C1590 C1587 1.363 . S
C1590 N1588 1.356 . S
C1591 C1585 1.363 . S
C1591 C1586 1.379 . S
C1591 N1589 1.356 . S
N1592 C1584 1.356 . S
N1592 H1598 0.984 . S
N1592 H1599 0.984 . S
N1593 C1586 1.356 . S
N1593 H1596 0.984 . S
N1593 H1597 0.985 . S
H1594 N1589 0.984 . S
H1595 N1589 0.985 . S
H1596 N1593 0.984 . S
H1597 N1593 0.985 . S
H1598 N1592 0.984 . S
H1599 N1592 0.984 . S
H1600 N1588 0.984 . S
H1601 N1588 0.985 . S
C1602 C1603 1.363 . S
C1602 C1608 1.379 . S
C1602 N1610 1.356 . S
C1603 C1602 1.363 . S
C1603 C1609 1.363 . S
C1604 C1605 1.363 . S
C1604 C1609 1.379 . S
C1604 N1611 1.356 . S
C1605 C1604 1.363 . S
C1605 C1608 1.363 . S
N1606 C1608 1.356 . S
N1606 H1618 0.984 . S
N1606 H1619 0.985 . S
N1607 C1609 1.356 . S
N1607 H1612 0.984 . S
N1607 H1613 0.985 . S
C1608 C1602 1.379 . S
C1608 C1605 1.363 . S
C1608 N1606 1.356 . S
C1609 C1603 1.363 . S
C1609 C1604 1.379 . S
C1609 N1607 1.356 . S
N1610 C1602 1.356 . S
N1610 H1616 0.984 . S
N1610 H1617 0.984 . S
N1611 C1604 1.356 . S
N1611 H1614 0.984 . S
N1611 H1615 0.985 . S
H1612 N1607 0.984 . S
H1613 N1607 0.985 . S
H1614 N1611 0.984 . S
H1615 N1611 0.985 . S
H1616 N1610 0.984 . S
H1617 N1610 0.984 . S
H1618 N1606 0.984 . S
H1619 N1606 0.985 . S
C1620 C1621 1.363 . S
C1620 C1626 1.379 . S
C1620 N1628 1.356 . S
C1621 C1620 1.363 . S
C1621 C1627 1.363 . S
C1622 C1623 1.363 . S
C1622 C1627 1.379 . S
C1622 N1629 1.356 . S
C1623 C1622 1.363 . S
C1623 C1626 1.363 . S
N1624 C1626 1.356 . S
N1624 H1636 0.984 . S
N1624 H1637 0.985 . S
N1625 C1627 1.356 . S
N1625 H1630 0.984 . S
N1625 H1631 0.985 . S
C1626 C1620 1.379 . S
C1626 C1623 1.363 . S
C1626 N1624 1.356 . S
C1627 C1621 1.363 . S
C1627 C1622 1.379 . S
C1627 N1625 1.356 . S
N1628 C1620 1.356 . S
N1628 H1634 0.984 . S
N1628 H1635 0.984 . S
N1629 C1622 1.356 . S
N1629 H1632 0.984 . S
N1629 H1633 0.985 1_565 S
H1630 N1625 0.984 . S
H1631 N1625 0.985 . S
H1632 N1629 0.984 . S
H1633 N1629 0.985 1_545 S
H1634 N1628 0.984 . S
H1635 N1628 0.984 . S
H1636 N1624 0.984 . S
H1637 N1624 0.985 . S
C1638 C1639 1.363 . S
C1638 C1644 1.379 . S
C1638 N1646 1.356 . S
C1639 C1638 1.363 . S
C1639 C1645 1.363 . S
C1640 C1641 1.363 . S
C1640 C1645 1.379 . S
C1640 N1647 1.356 . S
C1641 C1640 1.363 . S
C1641 C1644 1.363 . S
N1642 C1644 1.356 . S
N1642 H1654 0.984 1_455 S
N1642 H1655 0.985 . S
N1643 C1645 1.356 . S
N1643 H1648 0.984 . S
N1643 H1649 0.985 . S
C1644 C1638 1.379 . S
C1644 C1641 1.363 . S
C1644 N1642 1.356 . S
C1645 C1639 1.363 . S
C1645 C1640 1.379 . S
C1645 N1643 1.356 . S
N1646 C1638 1.356 . S
N1646 H1652 0.984 . S
N1646 H1653 0.984 . S
N1647 C1640 1.356 . S
N1647 H1650 0.984 . S
N1647 H1651 0.985 . S
H1648 N1643 0.984 . S
H1649 N1643 0.985 . S
H1650 N1647 0.984 . S
H1651 N1647 0.985 . S
H1652 N1646 0.984 . S
H1653 N1646 0.984 . S
H1654 N1642 0.984 1_655 S
H1655 N1642 0.985 . S
C1656 C1657 1.363 . S
C1656 C1662 1.379 . S
C1656 N1664 1.356 . S
C1657 C1656 1.363 . S
C1657 C1663 1.363 . S
C1658 C1659 1.363 . S
C1658 C1663 1.379 . S
C1658 N1665 1.356 . S
C1659 C1658 1.363 . S
C1659 C1662 1.363 . S
N1660 C1662 1.356 . S
N1660 H1672 0.984 . S
N1660 H1673 0.985 . S
N1661 C1663 1.356 . S
N1661 H1666 0.984 . S
N1661 H1667 0.985 . S
C1662 C1656 1.379 . S
C1662 C1659 1.363 . S
C1662 N1660 1.356 . S
C1663 C1657 1.363 . S
C1663 C1658 1.379 . S
C1663 N1661 1.356 . S
N1664 C1656 1.356 . S
N1664 H1670 0.984 . S
N1664 H1671 0.984 . S
N1665 C1658 1.356 . S
N1665 H1668 0.984 . S
N1665 H1669 0.985 . S
H1666 N1661 0.984 . S
H1667 N1661 0.985 . S
H1668 N1665 0.984 . S
H1669 N1665 0.985 . S
H1670 N1664 0.984 . S
H1671 N1664 0.984 . S
H1672 N1660 0.984 . S
H1673 N1660 0.985 . S
C1674 C1675 1.363 . S
C1674 C1680 1.379 . S
C1674 N1682 1.356 . S
C1675 C1674 1.363 . S
C1675 C1681 1.363 . S
C1676 C1677 1.363 . S
C1676 C1681 1.379 . S
C1676 N1683 1.356 . S
C1677 C1676 1.363 . S
C1677 C1680 1.363 . S
N1678 C1680 1.356 . S
N1678 H1690 0.984 . S
N1678 H1691 0.985 . S
N1679 C1681 1.356 . S
N1679 H1684 0.984 . S
N1679 H1685 0.985 . S
C1680 C1674 1.379 . S
C1680 C1677 1.363 . S
C1680 N1678 1.356 . S
C1681 C1675 1.363 . S
C1681 C1676 1.379 . S
C1681 N1679 1.356 . S
N1682 C1674 1.356 . S
N1682 H1688 0.984 . S
N1682 H1689 0.984 . S
N1683 C1676 1.356 . S
N1683 H1686 0.984 . S
N1683 H1687 0.985 1_655 S
H1684 N1679 0.984 . S
H1685 N1679 0.985 . S
H1686 N1683 0.984 . S
H1687 N1683 0.985 1_455 S
H1688 N1682 0.984 . S
H1689 N1682 0.984 . S
H1690 N1678 0.984 . S
H1691 N1678 0.985 . S
C1692 C1693 1.363 . S
C1692 C1698 1.379 . S
C1692 N1700 1.356 . S
C1693 C1692 1.363 . S
C1693 C1699 1.363 . S
C1694 C1695 1.363 . S
C1694 C1699 1.379 . S
C1694 N1701 1.356 . S
C1695 C1694 1.363 . S
C1695 C1698 1.363 . S
N1696 C1698 1.356 . S
N1696 H1708 0.984 . S
N1696 H1709 0.985 . S
N1697 C1699 1.356 . S
N1697 H1702 0.984 . S
N1697 H1703 0.985 . S
C1698 C1692 1.379 . S
C1698 C1695 1.363 . S
C1698 N1696 1.356 . S
C1699 C1693 1.363 . S
C1699 C1694 1.379 . S
C1699 N1697 1.356 . S
N1700 C1692 1.356 . S
N1700 H1706 0.984 . S
N1700 H1707 0.984 . S
N1701 C1694 1.356 . S
N1701 H1704 0.984 . S
N1701 H1705 0.985 . S
H1702 N1697 0.984 . S
H1703 N1697 0.985 . S
H1704 N1701 0.984 . S
H1705 N1701 0.985 . S
H1706 N1700 0.984 . S
H1707 N1700 0.984 . S
H1708 N1696 0.984 . S
H1709 N1696 0.985 . S
C1710 C1711 1.363 . S
C1710 C1716 1.379 . S
C1710 N1718 1.356 . S
C1711 C1710 1.363 . S
C1711 C1717 1.363 . S
C1712 C1713 1.363 . S
C1712 C1717 1.379 . S
C1712 N1719 1.356 . S
C1713 C1712 1.363 . S
C1713 C1716 1.363 . S
N1714 C1716 1.356 . S
N1714 H1726 0.984 . S
N1714 H1727 0.985 . S
N1715 C1717 1.356 . S
N1715 H1720 0.984 . S
N1715 H1721 0.985 . S
C1716 C1710 1.379 . S
C1716 C1713 1.363 . S
C1716 N1714 1.356 . S
C1717 C1711 1.363 . S
C1717 C1712 1.379 . S
C1717 N1715 1.356 . S
N1718 C1710 1.356 . S
N1718 H1724 0.984 . S
N1718 H1725 0.984 . S
N1719 C1712 1.356 . S
N1719 H1722 0.984 . S
N1719 H1723 0.985 . S
H1720 N1715 0.984 . S
H1721 N1715 0.985 . S
H1722 N1719 0.984 . S
H1723 N1719 0.985 . S
H1724 N1718 0.984 . S
H1725 N1718 0.984 . S
H1726 N1714 0.984 . S
H1727 N1714 0.985 . S
C1728 C1729 1.363 . S
C1728 C1734 1.379 . S
C1728 N1736 1.356 . S
C1729 C1728 1.363 . S
C1729 C1735 1.363 . S
C1730 C1731 1.363 . S
C1730 C1735 1.379 . S
C1730 N1737 1.356 . S
C1731 C1730 1.363 . S
C1731 C1734 1.363 . S
N1732 C1734 1.356 . S
N1732 H1744 0.984 . S
N1732 H1745 0.985 . S
N1733 C1735 1.356 . S
N1733 H1738 0.984 . S
N1733 H1739 0.985 . S
C1734 C1728 1.379 . S
C1734 C1731 1.363 . S
C1734 N1732 1.356 . S
C1735 C1729 1.363 . S
C1735 C1730 1.379 . S
C1735 N1733 1.356 . S
N1736 C1728 1.356 . S
N1736 H1742 0.984 . S
N1736 H1743 0.984 . S
N1737 C1730 1.356 . S
N1737 H1740 0.984 . S
N1737 H1741 0.985 . S
H1738 N1733 0.984 . S
H1739 N1733 0.985 . S
H1740 N1737 0.984 . S
H1741 N1737 0.985 . S
H1742 N1736 0.984 . S
H1743 N1736 0.984 . S
H1744 N1732 0.984 . S
H1745 N1732 0.985 . S
C1746 C1747 1.363 . S
C1746 C1752 1.379 . S
C1746 N1754 1.356 . S
C1747 C1746 1.363 . S
C1747 C1753 1.363 . S
C1748 C1749 1.363 . S
C1748 C1753 1.379 . S
C1748 N1755 1.356 . S
C1749 C1748 1.363 . S
C1749 C1752 1.363 . S
N1750 C1752 1.356 . S
N1750 H1762 0.984 . S
N1750 H1763 0.985 . S
N1751 C1753 1.356 . S
N1751 H1756 0.984 . S
N1751 H1757 0.985 . S
C1752 C1746 1.379 . S
C1752 C1749 1.363 . S
C1752 N1750 1.356 . S
C1753 C1747 1.363 . S
C1753 C1748 1.379 . S
C1753 N1751 1.356 . S
N1754 C1746 1.356 . S
N1754 H1760 0.984 . S
N1754 H1761 0.984 . S
N1755 C1748 1.356 . S
N1755 H1758 0.984 . S
N1755 H1759 0.985 . S
H1756 N1751 0.984 . S
H1757 N1751 0.985 . S
H1758 N1755 0.984 . S
H1759 N1755 0.985 . S
H1760 N1754 0.984 . S
H1761 N1754 0.984 . S
H1762 N1750 0.984 . S
H1763 N1750 0.985 . S
C1764 C1765 1.363 . S
C1764 C1770 1.379 . S
C1764 N1772 1.356 . S
C1765 C1764 1.363 . S
C1765 C1771 1.363 . S
C1766 C1767 1.363 . S
C1766 C1771 1.379 . S
C1766 N1773 1.356 . S
C1767 C1766 1.363 . S
C1767 C1770 1.363 . S
N1768 C1770 1.356 . S
N1768 H1780 0.984 . S
N1768 H1781 0.985 . S
N1769 C1771 1.356 . S
N1769 H1774 0.984 . S
N1769 H1775 0.985 . S
C1770 C1764 1.379 . S
C1770 C1767 1.363 . S
C1770 N1768 1.356 . S
C1771 C1765 1.363 . S
C1771 C1766 1.379 . S
C1771 N1769 1.356 . S
N1772 C1764 1.356 . S
N1772 H1778 0.984 . S
N1772 H1779 0.984 . S
N1773 C1766 1.356 . S
N1773 H1776 0.984 . S
N1773 H1777 0.985 . S
H1774 N1769 0.984 . S
H1775 N1769 0.985 . S
H1776 N1773 0.984 . S
H1777 N1773 0.985 . S
H1778 N1772 0.984 . S
H1779 N1772 0.984 . S
H1780 N1768 0.984 . S
H1781 N1768 0.985 . S
C1782 C1783 1.363 . S
C1782 C1788 1.379 . S
C1782 N1790 1.356 . S
C1783 C1782 1.363 . S
C1783 C1789 1.363 . S
C1784 C1785 1.363 . S
C1784 C1789 1.379 . S
C1784 N1791 1.356 . S
C1785 C1784 1.363 . S
C1785 C1788 1.363 . S
N1786 C1788 1.356 . S
N1786 H1798 0.984 . S
N1786 H1799 0.985 . S
N1787 C1789 1.356 . S
N1787 H1792 0.984 . S
N1787 H1793 0.985 . S
C1788 C1782 1.379 . S
C1788 C1785 1.363 . S
C1788 N1786 1.356 . S
C1789 C1783 1.363 . S
C1789 C1784 1.379 . S
C1789 N1787 1.356 . S
N1790 C1782 1.356 . S
N1790 H1796 0.984 . S
N1790 H1797 0.984 . S
N1791 C1784 1.356 . S
N1791 H1794 0.984 . S
N1791 H1795 0.985 . S
H1792 N1787 0.984 . S
H1793 N1787 0.985 . S
H1794 N1791 0.984 . S
H1795 N1791 0.985 . S
H1796 N1790 0.984 . S
H1797 N1790 0.984 . S
H1798 N1786 0.984 . S
H1799 N1786 0.985 . S
C1800 C1801 1.363 . S
C1800 C1806 1.379 . S
C1800 N1808 1.356 . S
C1801 C1800 1.363 . S
C1801 C1807 1.363 . S
C1802 C1803 1.363 . S
C1802 C1807 1.379 . S
C1802 N1809 1.356 . S
C1803 C1802 1.363 . S
C1803 C1806 1.363 . S
N1804 C1806 1.356 . S
N1804 H1816 0.984 . S
N1804 H1817 0.985 . S
N1805 C1807 1.356 . S
N1805 H1810 0.984 . S
N1805 H1811 0.985 . S
C1806 C1800 1.379 . S
C1806 C1803 1.363 . S
C1806 N1804 1.356 . S
C1807 C1801 1.363 . S
C1807 C1802 1.379 . S
C1807 N1805 1.356 . S
N1808 C1800 1.356 . S
N1808 H1814 0.984 . S
N1808 H1815 0.984 . S
N1809 C1802 1.356 . S
N1809 H1812 0.984 . S
N1809 H1813 0.985 . S
H1810 N1805 0.984 . S
H1811 N1805 0.985 . S
H1812 N1809 0.984 . S
H1813 N1809 0.985 . S
H1814 N1808 0.984 . S
H1815 N1808 0.984 . S
H1816 N1804 0.984 . S
H1817 N1804 0.985 . S
C1818 C1819 1.363 . S
C1818 C1824 1.379 . S
C1818 N1826 1.356 . S
C1819 C1818 1.363 . S
C1819 C1825 1.363 . S
C1820 C1821 1.363 . S
C1820 C1825 1.379 . S
C1820 N1827 1.356 . S
C1821 C1820 1.363 . S
C1821 C1824 1.363 . S
N1822 C1824 1.356 . S
N1822 H1834 0.984 . S
N1822 H1835 0.985 . S
N1823 C1825 1.356 . S
N1823 H1828 0.984 . S
N1823 H1829 0.985 . S
C1824 C1818 1.379 . S
C1824 C1821 1.363 . S
C1824 N1822 1.356 . S
C1825 C1819 1.363 . S
C1825 C1820 1.379 . S
C1825 N1823 1.356 . S
N1826 C1818 1.356 . S
N1826 H1832 0.984 . S
N1826 H1833 0.984 . S
N1827 C1820 1.356 . S
N1827 H1830 0.984 . S
N1827 H1831 0.985 . S
H1828 N1823 0.984 . S
H1829 N1823 0.985 . S
H1830 N1827 0.984 . S
H1831 N1827 0.985 . S
H1832 N1826 0.984 . S
H1833 N1826 0.984 . S
H1834 N1822 0.984 . S
H1835 N1822 0.985 . S
C1836 C1837 1.363 . S
C1836 C1842 1.379 . S
C1836 N1844 1.356 . S
C1837 C1836 1.363 . S
C1837 C1843 1.363 . S
C1838 C1839 1.363 . S
C1838 C1843 1.379 . S
C1838 N1845 1.356 . S
C1839 C1838 1.363 . S
C1839 C1842 1.363 . S
N1840 C1842 1.356 . S
N1840 H1852 0.984 . S
N1840 H1853 0.985 . S
N1841 C1843 1.356 . S
N1841 H1846 0.984 . S
N1841 H1847 0.985 . S
C1842 C1836 1.379 . S
C1842 C1839 1.363 . S
C1842 N1840 1.356 . S
C1843 C1837 1.363 . S
C1843 C1838 1.379 . S
C1843 N1841 1.356 . S
N1844 C1836 1.356 . S
N1844 H1850 0.984 . S
N1844 H1851 0.984 . S
N1845 C1838 1.356 . S
N1845 H1848 0.984 . S
N1845 H1849 0.985 . S
H1846 N1841 0.984 . S
H1847 N1841 0.985 . S
H1848 N1845 0.984 . S
H1849 N1845 0.985 . S
H1850 N1844 0.984 . S
H1851 N1844 0.984 . S
H1852 N1840 0.984 . S
H1853 N1840 0.985 . S
C1854 C1855 1.363 . S
C1854 C1860 1.379 . S
C1854 N1862 1.356 . S
C1855 C1854 1.363 . S
C1855 C1861 1.363 . S
C1856 C1857 1.363 . S
C1856 C1861 1.379 . S
C1856 N1863 1.356 . S
C1857 C1856 1.363 . S
C1857 C1860 1.363 . S
N1858 C1860 1.356 . S
N1858 H1870 0.984 . S
N1858 H1871 0.985 . S
N1859 C1861 1.356 . S
N1859 H1864 0.984 . S
N1859 H1865 0.985 . S
C1860 C1854 1.379 . S
C1860 C1857 1.363 . S
C1860 N1858 1.356 . S
C1861 C1855 1.363 . S
C1861 C1856 1.379 . S
C1861 N1859 1.356 . S
N1862 C1854 1.356 . S
N1862 H1868 0.984 . S
N1862 H1869 0.984 . S
N1863 C1856 1.356 . S
N1863 H1866 0.984 . S
N1863 H1867 0.985 . S
H1864 N1859 0.984 . S
H1865 N1859 0.985 . S
H1866 N1863 0.984 . S
H1867 N1863 0.985 . S
H1868 N1862 0.984 . S
H1869 N1862 0.984 . S
H1870 N1858 0.984 . S
H1871 N1858 0.985 . S
C1872 C1873 1.363 . S
C1872 C1878 1.379 . S
C1872 N1880 1.356 . S
C1873 C1872 1.363 . S
C1873 C1879 1.363 . S
C1874 C1875 1.363 . S
C1874 C1879 1.379 . S
C1874 N1881 1.356 . S
C1875 C1874 1.363 . S
C1875 C1878 1.363 . S
N1876 C1878 1.356 . S
N1876 H1888 0.984 . S
N1876 H1889 0.985 . S
N1877 C1879 1.356 . S
N1877 H1882 0.984 . S
N1877 H1883 0.985 . S
C1878 C1872 1.379 . S
C1878 C1875 1.363 . S
C1878 N1876 1.356 . S
C1879 C1873 1.363 . S
C1879 C1874 1.379 . S
C1879 N1877 1.356 . S
N1880 C1872 1.356 . S
N1880 H1886 0.984 . S
N1880 H1887 0.984 . S
N1881 C1874 1.356 . S
N1881 H1884 0.984 . S
N1881 H1885 0.985 . S
H1882 N1877 0.984 . S
H1883 N1877 0.985 . S
H1884 N1881 0.984 . S
H1885 N1881 0.985 . S
H1886 N1880 0.984 . S
H1887 N1880 0.984 . S
H1888 N1876 0.984 . S
H1889 N1876 0.985 . S
C1890 C1891 1.363 . S
C1890 C1896 1.379 . S
C1890 N1898 1.356 . S
C1891 C1890 1.363 . S
C1891 C1897 1.363 . S
C1892 C1893 1.363 . S
C1892 C1897 1.379 . S
C1892 N1899 1.356 . S
C1893 C1892 1.363 . S
C1893 C1896 1.363 . S
N1894 C1896 1.356 . S
N1894 H1906 0.984 . S
N1894 H1907 0.985 . S
N1895 C1897 1.356 . S
N1895 H1900 0.984 . S
N1895 H1901 0.985 . S
C1896 C1890 1.379 . S
C1896 C1893 1.363 . S
C1896 N1894 1.356 . S
C1897 C1891 1.363 . S
C1897 C1892 1.379 . S
C1897 N1895 1.356 . S
N1898 C1890 1.356 . S
N1898 H1904 0.984 . S
N1898 H1905 0.984 . S
N1899 C1892 1.356 . S
N1899 H1902 0.984 . S
N1899 H1903 0.985 . S
H1900 N1895 0.984 . S
H1901 N1895 0.985 . S
H1902 N1899 0.984 . S
H1903 N1899 0.985 . S
H1904 N1898 0.984 . S
H1905 N1898 0.984 . S
H1906 N1894 0.984 . S
H1907 N1894 0.985 . S
C1908 C1909 1.363 . S
C1908 C1914 1.379 . S
C1908 N1916 1.356 . S
C1909 C1908 1.363 . S
C1909 C1915 1.363 . S
C1910 C1911 1.363 . S
C1910 C1915 1.379 . S
C1910 N1917 1.356 . S
C1911 C1910 1.363 . S
C1911 C1914 1.363 . S
N1912 C1914 1.356 . S
N1912 H1924 0.984 . S
N1912 H1925 0.985 . S
N1913 C1915 1.356 . S
N1913 H1918 0.984 . S
N1913 H1919 0.985 . S
C1914 C1908 1.379 . S
C1914 C1911 1.363 . S
C1914 N1912 1.356 . S
C1915 C1909 1.363 . S
C1915 C1910 1.379 . S
C1915 N1913 1.356 . S
N1916 C1908 1.356 . S
N1916 H1922 0.984 . S
N1916 H1923 0.984 . S
N1917 C1910 1.356 . S
N1917 H1920 0.984 . S
N1917 H1921 0.985 . S
H1918 N1913 0.984 . S
H1919 N1913 0.985 . S
H1920 N1917 0.984 . S
H1921 N1917 0.985 . S
H1922 N1916 0.984 . S
H1923 N1916 0.984 . S
H1924 N1912 0.984 . S
H1925 N1912 0.985 . S
C1926 C1927 1.363 . S
C1926 C1932 1.379 . S
C1926 N1934 1.356 . S
C1927 C1926 1.363 . S
C1927 C1933 1.363 . S
C1928 C1929 1.363 . S
C1928 C1933 1.379 . S
C1928 N1935 1.356 . S
C1929 C1928 1.363 . S
C1929 C1932 1.363 . S
N1930 C1932 1.356 . S
N1930 H1942 0.984 . S
N1930 H1943 0.985 . S
N1931 C1933 1.356 . S
N1931 H1936 0.984 . S
N1931 H1937 0.985 . S
C1932 C1926 1.379 . S
C1932 C1929 1.363 . S
C1932 N1930 1.356 . S
C1933 C1927 1.363 . S
C1933 C1928 1.379 . S
C1933 N1931 1.356 . S
N1934 C1926 1.356 . S
N1934 H1940 0.984 . S
N1934 H1941 0.984 . S
N1935 C1928 1.356 . S
N1935 H1938 0.984 . S
N1935 H1939 0.985 . S
H1936 N1931 0.984 . S
H1937 N1931 0.985 . S
H1938 N1935 0.984 . S
H1939 N1935 0.985 . S
H1940 N1934 0.984 . S
H1941 N1934 0.984 . S
H1942 N1930 0.984 . S
H1943 N1930 0.985 . S
C973 C162 1.474 . S
C975 C283 1.420 . S
C991 C174 1.498 . S
C993 C367 1.450 . S
C1009 C150 1.470 . S
C1011 C447 1.470 . S
C1027 C138 1.459 . S
C1029 C363 1.463 . S
C1047 C451 1.409 . S
C1045 C114 1.465 . S
C1063 C126 1.437 . S
C1065 C279 1.437 . S
C1083 C272 1.462 . S
C1081 C136 1.508 . S
C1101 C356 1.485 . S
C1099 C112 1.528 . S
C1117 C124 1.521 . S
C1119 C458 1.483 . S
C1135 C160 1.499 . S
C1137 C374 1.461 . S
C1153 C172 1.488 . S
C1155 C440 1.438 . S
C1173 C290 1.442 . S
C1171 C148 1.482 . S
C1191 C535 1.420 . S
C1189 C18 1.474 . S
C1207 C30 1.498 . S
C1209 C619 1.450 . S
C1225 C6 1.470 . S
C1227 C699 1.470 . S
C1243 C210 1.459 . S
C1245 C615 1.463 . S
C1261 C186 1.465 . S
C1263 C703 1.409 . S
C1279 C198 1.437 . S
C1281 C531 1.437 . S
C1297 C208 1.508 . S
C1299 C524 1.462 . S
C1315 C184 1.528 . S
C1317 C608 1.485 . S
C1335 C710 1.483 . S
C1333 C196 1.521 . S
C1351 C16 1.499 1_565 S
C1353 C626 1.461 . S
C1371 C692 1.438 . S
C1369 C28 1.488 1_455 S
C1387 C4 1.482 . S
C1389 C542 1.442 . S
C1407 C787 1.420 . S
C1405 C90 1.474 . S
C1423 C102 1.498 . S
C1425 C871 1.450 . S
C1443 C951 1.470 . S
C1441 C78 1.470 . S
C1461 C867 1.463 . S
C1459 C66 1.459 . S
C1479 C955 1.410 . S
C1477 C42 1.465 . S
C1495 C54 1.437 . S
C1497 C783 1.437 . S
C1513 C64 1.508 1_655 S
C1515 C776 1.462 . S
C1531 C40 1.528 . S
C1533 C860 1.485 . S
C1551 C962 1.483 . S
C1549 C52 1.521 1_545 S
C1567 C88 1.499 . S
C1569 C878 1.461 . S
C1585 C100 1.488 . S
C1587 C944 1.438 . S
C1603 C76 1.482 . S
C1605 C794 1.442 . S
C1621 C189 1.583 . S
C1623 C286 1.482 . S
C1641 C370 1.490 . S
C1639 C201 1.626 . S
C1657 C213 1.579 . S
C1659 C442 1.390 . S
C1675 C81 1.591 . S
C1677 C358 1.384 . S
C1693 C93 1.591 . S
C1695 C454 1.466 . S
C1713 C274 1.380 . S
C1711 C105 1.548 . S
C1729 C45 1.583 . S
C1731 C538 1.482 . S
C1747 C57 1.626 . S
C1749 C622 1.490 . S
C1765 C69 1.580 . S
C1767 C694 1.390 . S
C1783 C153 1.591 . S
C1785 C610 1.384 . S
C1803 C706 1.466 . S
C1801 C165 1.591 . S
C1819 C177 1.548 . S
C1821 C526 1.380 . S
C1837 C117 1.583 . S
C1839 C790 1.482 . S
C1855 C129 1.626 . S
C1857 C874 1.490 . S
C1875 C946 1.390 . S
C1873 C141 1.579 . S
C1891 C9 1.591 . S
C1893 C862 1.384 . S
C1909 C21 1.591 . S
C1911 C958 1.466 . S
C1927 C33 1.548 . S
C1929 C778 1.380 . S
