# Generated by pormake.
# Topology ctn, (3,4)-cn, num edge types: 1
# Building blocks:
#     Node 0, Type 0, BuildingBlock: PAMTOO_clean_linker_0, # of connection points: 3
#     Node 1, Type 0, BuildingBlock: PAMTOO_clean_linker_0, # of connection points: 3
#     Node 2, Type 0, BuildingBlock: PAMTOO_clean_linker_0, # of connection points: 3
#     Node 3, Type 0, BuildingBlock: PAMTOO_clean_linker_0, # of connection points: 3
#     Node 4, Type 0, BuildingBlock: PAMTOO_clean_linker_0, # of connection points: 3
#     Node 5, Type 0, BuildingBlock: PAMTOO_clean_linker_0, # of connection points: 3
#     Node 6, Type 0, BuildingBlock: PAMTOO_clean_linker_0, # of connection points: 3
#     Node 7, Type 0, BuildingBlock: PAMTOO_clean_linker_0, # of connection points: 3
#     Node 8, Type 0, BuildingBlock: PAMTOO_clean_linker_0, # of connection points: 3
#     Node 9, Type 0, BuildingBlock: PAMTOO_clean_linker_0, # of connection points: 3
#     Node 10, Type 0, BuildingBlock: PAMTOO_clean_linker_0, # of connection points: 3
#     Node 11, Type 0, BuildingBlock: PAMTOO_clean_linker_0, # of connection points: 3
#     Node 12, Type 0, BuildingBlock: PAMTOO_clean_linker_0, # of connection points: 3
#     Node 13, Type 0, BuildingBlock: PAMTOO_clean_linker_0, # of connection points: 3
#     Node 14, Type 0, BuildingBlock: PAMTOO_clean_linker_0, # of connection points: 3
#     Node 15, Type 0, BuildingBlock: PAMTOO_clean_linker_0, # of connection points: 3
#     Node 16, Type 1, BuildingBlock: QUQFOY_clean_sbu_1, # of connection points: 4
#     Node 17, Type 1, BuildingBlock: QUQFOY_clean_sbu_1, # of connection points: 4
#     Node 18, Type 1, BuildingBlock: QUQFOY_clean_sbu_1, # of connection points: 4
#     Node 19, Type 1, BuildingBlock: QUQFOY_clean_sbu_1, # of connection points: 4
#     Node 20, Type 1, BuildingBlock: QUQFOY_clean_sbu_1, # of connection points: 4
#     Node 21, Type 1, BuildingBlock: QUQFOY_clean_sbu_1, # of connection points: 4
#     Node 22, Type 1, BuildingBlock: QUQFOY_clean_sbu_1, # of connection points: 4
#     Node 23, Type 1, BuildingBlock: QUQFOY_clean_sbu_1, # of connection points: 4
#     Node 24, Type 1, BuildingBlock: QUQFOY_clean_sbu_1, # of connection points: 4
#     Node 25, Type 1, BuildingBlock: QUQFOY_clean_sbu_1, # of connection points: 4
#     Node 26, Type 1, BuildingBlock: QUQFOY_clean_sbu_1, # of connection points: 4
#     Node 27, Type 1, BuildingBlock: QUQFOY_clean_sbu_1, # of connection points: 4
#     Edge 28, Type (0, 1), BuildingBlock: CIFDUS_clean_linker_0, # of connection points: 2
#     Edge 29, Type (0, 1), BuildingBlock: CIFDUS_clean_linker_0, # of connection points: 2
#     Edge 30, Type (0, 1), BuildingBlock: CIFDUS_clean_linker_0, # of connection points: 2
#     Edge 31, Type (0, 1), BuildingBlock: CIFDUS_clean_linker_0, # of connection points: 2
#     Edge 32, Type (0, 1), BuildingBlock: CIFDUS_clean_linker_0, # of connection points: 2
#     Edge 33, Type (0, 1), BuildingBlock: CIFDUS_clean_linker_0, # of connection points: 2
#     Edge 34, Type (0, 1), BuildingBlock: CIFDUS_clean_linker_0, # of connection points: 2
#     Edge 35, Type (0, 1), BuildingBlock: CIFDUS_clean_linker_0, # of connection points: 2
#     Edge 36, Type (0, 1), BuildingBlock: CIFDUS_clean_linker_0, # of connection points: 2
#     Edge 37, Type (0, 1), BuildingBlock: CIFDUS_clean_linker_0, # of connection points: 2
#     Edge 38, Type (0, 1), BuildingBlock: CIFDUS_clean_linker_0, # of connection points: 2
#     Edge 39, Type (0, 1), BuildingBlock: CIFDUS_clean_linker_0, # of connection points: 2
#     Edge 40, Type (0, 1), BuildingBlock: CIFDUS_clean_linker_0, # of connection points: 2
#     Edge 41, Type (0, 1), BuildingBlock: CIFDUS_clean_linker_0, # of connection points: 2
#     Edge 42, Type (0, 1), BuildingBlock: CIFDUS_clean_linker_0, # of connection points: 2
#     Edge 43, Type (0, 1), BuildingBlock: CIFDUS_clean_linker_0, # of connection points: 2
#     Edge 44, Type (0, 1), BuildingBlock: CIFDUS_clean_linker_0, # of connection points: 2
#     Edge 45, Type (0, 1), BuildingBlock: CIFDUS_clean_linker_0, # of connection points: 2
#     Edge 46, Type (0, 1), BuildingBlock: CIFDUS_clean_linker_0, # of connection points: 2
#     Edge 47, Type (0, 1), BuildingBlock: CIFDUS_clean_linker_0, # of connection points: 2
#     Edge 48, Type (0, 1), BuildingBlock: CIFDUS_clean_linker_0, # of connection points: 2
#     Edge 49, Type (0, 1), BuildingBlock: CIFDUS_clean_linker_0, # of connection points: 2
#     Edge 50, Type (0, 1), BuildingBlock: CIFDUS_clean_linker_0, # of connection points: 2
#     Edge 51, Type (0, 1), BuildingBlock: CIFDUS_clean_linker_0, # of connection points: 2
#     Edge 52, Type (0, 1), BuildingBlock: CIFDUS_clean_linker_0, # of connection points: 2
#     Edge 53, Type (0, 1), BuildingBlock: CIFDUS_clean_linker_0, # of connection points: 2
#     Edge 54, Type (0, 1), BuildingBlock: CIFDUS_clean_linker_0, # of connection points: 2
#     Edge 55, Type (0, 1), BuildingBlock: CIFDUS_clean_linker_0, # of connection points: 2
#     Edge 56, Type (0, 1), BuildingBlock: CIFDUS_clean_linker_0, # of connection points: 2
#     Edge 57, Type (0, 1), BuildingBlock: CIFDUS_clean_linker_0, # of connection points: 2
#     Edge 58, Type (0, 1), BuildingBlock: CIFDUS_clean_linker_0, # of connection points: 2
#     Edge 59, Type (0, 1), BuildingBlock: CIFDUS_clean_linker_0, # of connection points: 2
#     Edge 60, Type (0, 1), BuildingBlock: CIFDUS_clean_linker_0, # of connection points: 2
#     Edge 61, Type (0, 1), BuildingBlock: CIFDUS_clean_linker_0, # of connection points: 2
#     Edge 62, Type (0, 1), BuildingBlock: CIFDUS_clean_linker_0, # of connection points: 2
#     Edge 63, Type (0, 1), BuildingBlock: CIFDUS_clean_linker_0, # of connection points: 2
#     Edge 64, Type (0, 1), BuildingBlock: CIFDUS_clean_linker_0, # of connection points: 2
#     Edge 65, Type (0, 1), BuildingBlock: CIFDUS_clean_linker_0, # of connection points: 2
#     Edge 66, Type (0, 1), BuildingBlock: CIFDUS_clean_linker_0, # of connection points: 2
#     Edge 67, Type (0, 1), BuildingBlock: CIFDUS_clean_linker_0, # of connection points: 2
#     Edge 68, Type (0, 1), BuildingBlock: CIFDUS_clean_linker_0, # of connection points: 2
#     Edge 69, Type (0, 1), BuildingBlock: CIFDUS_clean_linker_0, # of connection points: 2
#     Edge 70, Type (0, 1), BuildingBlock: CIFDUS_clean_linker_0, # of connection points: 2
#     Edge 71, Type (0, 1), BuildingBlock: CIFDUS_clean_linker_0, # of connection points: 2
#     Edge 72, Type (0, 1), BuildingBlock: CIFDUS_clean_linker_0, # of connection points: 2
#     Edge 73, Type (0, 1), BuildingBlock: CIFDUS_clean_linker_0, # of connection points: 2
#     Edge 74, Type (0, 1), BuildingBlock: CIFDUS_clean_linker_0, # of connection points: 2
#     Edge 75, Type (0, 1), BuildingBlock: CIFDUS_clean_linker_0, # of connection points: 2
# Relax obj value: 0.093
# Max RMSD: 0.210
# Mean RMSD: 0.143
data_MOF--net-ctn--node1-QUQFOY_clean_sbu_1--node2-PAMTOO_clean_linker_0--edge1-CIFDUS_clean_linker_0
_symmetry_space_group_name_H-M    P1
_symmetry_Int_Tables_number       1
_symmetry_cell_setting            triclinic
loop_
_symmetry_equiv_pos_as_xyz
'x, y, z'
_cell_length_a     47.315742
_cell_length_b     47.462475
_cell_length_c     48.274503
_cell_angle_alpha  87.416246
_cell_angle_beta   92.707746
_cell_angle_gamma 102.97799
loop_
_atom_site_label
_atom_site_type_symbol
_atom_site_fract_x
_atom_site_fract_y
_atom_site_fract_z
_atom_type_partial_charge
H0 H 0.01131 0.11843 0.0493 0.0
H1 H 0.06428 0.05585 0.06207 0.0
H2 H 0.07574 0.11346 0.99066 0.0
H3 H 0.07115 0.05051 0.97968 0.0
C4 C 0.08167 0.04438 -0.00055 0.0
O5 O 0.09055 0.06841 0.01546 0.0
H6 H 0.06524 0.02774 0.01053 0.0
C7 C 0.02894 0.10928 0.04312 0.0
C8 C 0.04335 0.11996 0.01864 0.0
C9 C 0.03652 0.08663 0.05947 0.0
C10 C 0.05787 0.07336 0.05005 0.0
C11 C 0.07119 0.08248 0.02488 0.0
C12 C 0.06437 0.10603 0.0095 0.0
H13 H 0.29622 0.69679 0.26921 0.0
H14 H 0.23479 0.70061 0.20128 0.0
H15 H 0.31084 0.76836 0.20932 0.0
H16 H 0.25615 0.78685 0.20105 0.0
C17 C 0.24566 0.77138 0.18498 0.0
O18 O 0.26187 0.75094 0.18186 0.0
H19 H 0.22366 0.76023 0.19171 0.0
C20 C 0.28998 0.70741 0.25035 0.0
C21 C 0.3075 0.73387 0.24097 0.0
C22 C 0.26395 0.6948 0.23605 0.0
C23 C 0.25472 0.70973 0.21277 0.0
C24 C 0.27133 0.73649 0.20383 0.0
C25 C 0.29789 0.74816 0.21739 0.0
H26 H 0.94287 0.52117 0.11294 0.0
H27 H 0.9288 0.49425 0.02845 0.0
H28 H 0.98136 0.45386 0.08457 0.0
H29 H 0.00321 0.46605 0.03101 0.0
C30 C 0.98282 0.46102 0.01794 0.0
O31 O 0.95905 0.45462 0.03449 0.0
H32 H 0.98162 0.48031 0.00434 0.0
C33 C 0.9465 0.50752 0.09671 0.0
C34 C 0.96378 0.48713 0.1025 0.0
C35 C 0.9341 0.51074 0.06999 0.0
C36 C 0.93858 0.49272 0.04905 0.0
C37 C 0.95532 0.47217 0.05461 0.0
C38 C 0.96786 0.46943 0.08111 0.0
H39 H 0.72043 0.86063 0.27839 0.0
H40 H 0.69909 0.77713 0.24192 0.0
H41 H 0.78215 0.83335 0.22868 0.0
H42 H 0.75317 0.81077 0.17974 0.0
C43 C 0.74095 0.78911 0.18717 0.0
O44 O 0.74726 0.78499 0.21506 0.0
H45 H 0.71739 0.78866 0.1839 0.0
C46 C 0.72671 0.84443 0.2664 0.0
C47 C 0.75404 0.85047 0.25442 0.0
C48 C 0.70692 0.81789 0.26245 0.0
C49 C 0.71451 0.79725 0.24606 0.0
C50 C 0.74143 0.80323 0.23358 0.0
C51 C 0.76135 0.82935 0.23834 0.0
H52 H 0.09861 0.99469 0.53386 0.0
H53 H 0.03414 0.97741 0.46659 0.0
H54 H 0.11135 0.04345 0.45654 0.0
H55 H 0.06635 0.06306 0.4307 0.0
C56 C 0.04885 0.04303 0.43075 0.0
O57 O 0.0611 0.01921 0.43403 0.0
H58 H 0.03468 0.04359 0.44843 0.0
C59 C 0.09105 -0.0012 0.51284 0.0
C60 C 0.10819 0.02047 0.49632 0.0
C61 C 0.06442 0.98246 0.50227 0.0
C62 C 0.05461 0.98933 0.47532 0.0
C63 C 0.07142 0.01146 0.4591 0.0
C64 C 0.09849 0.02636 0.46929 0.0
H65 H 0.17235 0.80079 0.78422 0.0
H66 H 0.19248 0.72911 0.74363 0.0
H67 H 0.24602 0.76673 0.81261 0.0
H68 H 0.27801 0.75169 0.76886 0.0
C69 C 0.26328 0.73123 0.76211 0.0
O70 O 0.23776 0.72627 0.77617 0.0
H71 H 0.25819 0.73324 0.73947 0.0
C72 C 0.18658 0.78615 0.78176 0.0
C73 C 0.21032 0.78684 0.80045 0.0
C74 C 0.17972 0.7653 0.76134 0.0
C75 C 0.19755 0.74551 0.75912 0.0
C76 C 0.22161 0.74631 0.7774 0.0
C77 C 0.22775 0.76672 0.79819 0.0
H78 H 0.93744 0.58536 0.52949 0.0
H79 H 0.98233 0.53278 0.48554 0.0
H80 H 0.03062 0.60047 0.53639 0.0
H81 H 0.0721 0.58834 0.49589 0.0
C82 C 0.05247 0.57616 0.48454 0.0
O83 O 0.03437 0.55942 0.50348 0.0
H84 H 0.04207 0.59266 0.47363 0.0
C85 C 0.95757 0.58009 0.524 0.0
C86 C 0.98409 0.59611 0.53463 0.0
C87 C 0.95671 0.55708 0.50657 0.0
C88 C 0.98271 0.55042 0.49915 0.0
C89 C 0.00926 0.56588 0.51028 0.0
C90 C 0.0099 0.58837 0.5283 0.0
H91 H 0.76186 0.83422 0.87271 0.0
H92 H 0.81716 0.796 0.82448 0.0
H93 H 0.77478 0.85924 0.78655 0.0
H94 H 0.78498 0.81326 0.74533 0.0
C95 C 0.80038 0.80536 0.76021 0.0
O96 O 0.81085 0.82611 0.77946 0.0
H97 H 0.78835 0.78491 0.77039 0.0
C98 C 0.77167 0.83209 0.85332 0.0
C99 C 0.76565 0.84877 0.82981 0.0
C100 C 0.79017 0.81271 0.85183 0.0
C101 C 0.8031 0.81085 0.82654 0.0
C102 C 0.79744 0.82753 0.80323 0.0
C103 C 0.77862 0.84621 0.80475 0.0
H104 H 0.25254 0.3286 0.3717 0.0
H105 H 0.32231 0.30041 0.33424 0.0
H106 H 0.27134 0.3495 0.2859 0.0
H107 H 0.28502 0.30285 0.2544 0.0
C108 C 0.30397 0.2992 0.26746 0.0
O109 O 0.31287 0.32168 0.28526 0.0
H110 H 0.29702 0.27831 0.27936 0.0
C111 C 0.26573 0.32769 0.35418 0.0
C112 C 0.25958 0.34136 0.3288 0.0
C113 C 0.28814 0.3123 0.35665 0.0
C114 C 0.30438 0.31119 0.33315 0.0
C115 C 0.29779 0.32399 0.30777 0.0
C116 C 0.27565 0.33912 0.30563 0.0
H117 H 0.46694 0.02588 0.60503 0.0
H118 H 0.45092 0.98828 0.52441 0.0
H119 H 0.50201 0.95292 0.58567 0.0
H120 H 0.52414 0.9551 0.53165 0.0
C121 C 0.50387 0.95365 0.51862 0.0
O122 O 0.48031 0.94896 0.53536 0.0
H123 H 0.50541 0.97447 0.50655 0.0
C124 C 0.46964 0.00995 0.59063 0.0
C125 C 0.48712 0.99018 0.59862 0.0
C126 C 0.45567 0.00918 0.56405 0.0
C127 C 0.46021 0.98881 0.54536 0.0
C128 C 0.47682 0.96878 0.55333 0.0
C129 C 0.48972 0.96911 0.5799 0.0
H130 H 0.20448 0.36496 0.78278 0.0
H131 H 0.18147 0.28444 0.74094 0.0
H132 H 0.26375 0.34179 0.72723 0.0
H133 H 0.23379 0.32305 0.67799 0.0
C134 C 0.22086 0.30131 0.68435 0.0
O135 O 0.2281 0.29474 0.71154 0.0
H136 H 0.19748 0.30209 0.68257 0.0
C137 C 0.21023 0.34977 0.76916 0.0
C138 C 0.23693 0.35685 0.75597 0.0
C139 C 0.19036 0.32346 0.76436 0.0
C140 C 0.19708 0.30424 0.74578 0.0
C141 C 0.2233 0.31132 0.73208 0.0
C142 C 0.24345 0.33702 0.73782 0.0
H143 H 0.78022 0.20386 0.76753 0.0
H144 H 0.72366 0.22067 0.69931 0.0
H145 H 0.80647 0.278 0.71199 0.0
H146 H 0.7588 0.30557 0.696 0.0
C147 C 0.7473 0.29013 0.68032 0.0
O148 O 0.75957 0.26637 0.68022 0.0
H149 H 0.72412 0.28287 0.68569 0.0
C150 C 0.77583 0.21724 0.7498 0.0
C151 C 0.79691 0.24192 0.74191 0.0
C152 C 0.74916 0.20946 0.73484 0.0
C153 C 0.7437 0.22661 0.71162 0.0
C154 C 0.76444 0.25108 0.7035 0.0
C155 C 0.79085 0.25878 0.71858 0.0
H156 H 0.50827 0.63048 0.55523 0.0
H157 H 0.55997 0.56958 0.58219 0.0
H158 H 0.56537 0.60531 0.49898 0.0
H159 H 0.55741 0.54126 0.50791 0.0
C160 C 0.57418 0.54167 0.52497 0.0
O161 O 0.58358 0.56938 0.53442 0.0
H162 H 0.56408 0.52708 0.54221 0.0
C163 C 0.52426 0.61821 0.55114 0.0
C164 C 0.53597 0.62054 0.52467 0.0
C165 C 0.53252 0.59987 0.57218 0.0
C166 C 0.55306 0.58381 0.5664 0.0
C167 C 0.56471 0.58576 0.54004 0.0
C168 C 0.55641 0.60427 0.51935 0.0
H169 H 0.5901 0.4655 0.03056 0.0
H170 H 0.51452 0.44912 0.97481 0.0
H171 H 0.58847 0.5156 0.95432 0.0
H172 H 0.53753 0.53405 0.94647 0.0
C173 C 0.52149 0.51401 0.94071 0.0
O174 O 0.53525 0.49131 0.9398 0.0
H175 H 0.50471 0.50881 0.9567 0.0
C176 C 0.57897 0.46978 0.01124 0.0
C177 C 0.59299 0.49179 0.99294 0.0
C178 C 0.55067 0.45381 0.00503 0.0
C179 C 0.53631 0.46082 0.98029 0.0
C180 C 0.54994 0.48318 0.96231 0.0
C181 C 0.57839 0.49809 0.96829 0.0
H182 H 0.68833 0.29248 0.30163 0.0
H183 H 0.71354 0.22953 0.25247 0.0
H184 H 0.7693 0.26696 0.32008 0.0
H185 H 0.8015 0.25598 0.27338 0.0
C186 C 0.78543 0.23779 0.26401 0.0
O187 O 0.76195 0.22951 0.28081 0.0
H188 H 0.77797 0.24511 0.24325 0.0
C189 C 0.70431 0.28049 0.29667 0.0
C190 C 0.72979 0.28269 0.31341 0.0
C191 C 0.69822 0.26144 0.27468 0.0
C192 C 0.7181 0.24465 0.26913 0.0
C193 C 0.74373 0.24688 0.28538 0.0
C194 C 0.74952 0.26575 0.30749 0.0
H195 H 0.43148 0.09234 0.00669 0.0
H196 H 0.47976 0.03205 0.98019 0.0
H197 H 0.52174 0.10242 0.03078 0.0
H198 H 0.57222 0.06839 0.00276 0.0
C199 C 0.55226 0.07028 0.99042 0.0
O200 O 0.52851 0.05709 0.00547 0.0
H201 H 0.55351 0.09394 0.98734 0.0
C202 C 0.45185 0.08575 0.00525 0.0
C203 C 0.47666 0.10098 0.01955 0.0
C204 C 0.45252 0.06051 0.99143 0.0
C205 C 0.47885 0.05154 0.99063 0.0
C206 C 0.50373 0.0668 0.00469 0.0
C207 C 0.50248 0.09115 0.01947 0.0
O208 O 0.24396 0.86613 0.96322 0.0
Cd209 Cd 0.25974 0.88877 0.99804 0.0
Cd210 Cd 0.23988 0.93247 0.96519 0.0
O211 O 0.23053 0.90023 0.93648 0.0
O212 O 0.2763 0.85941 0.02004 0.0
O213 O 0.24143 0.87782 0.03537 0.0
C214 C 0.2591 0.86079 0.03948 0.0
C215 C 0.20361 0.95463 0.97887 0.0
C216 C 0.23386 0.87443 0.94019 0.0
C217 C 0.30262 0.94508 0.98239 0.0
O218 O 0.28255 0.95468 0.96939 0.0
O219 O 0.29715 0.92036 0.99467 0.0
O220 O 0.21602 0.96156 0.95551 0.0
O221 O 0.21165 0.93472 0.99444 0.0
O222 O 0.16015 0.5345 0.29767 0.0
Cd223 Cd 0.13864 0.49729 0.31822 0.0
Cd224 Cd 0.08769 0.5117 0.28515 0.0
O225 O 0.12158 0.54605 0.27672 0.0
O226 O 0.17043 0.48429 0.34028 0.0
O227 O 0.14396 0.45793 0.3079 0.0
C228 C 0.16471 0.46088 0.32664 0.0
C229 C 0.0535 0.50626 0.24774 0.0
C230 C 0.14866 0.55178 0.28248 0.0
C231 C 0.08517 0.50552 0.34762 0.0
O232 O 0.07187 0.50783 0.32442 0.0
O233 O 0.11109 0.50202 0.34878 0.0
O234 O 0.05714 0.52748 0.26409 0.0
O235 O 0.06825 0.48678 0.25335 0.0
O236 O 0.76839 0.69021 0.99671 0.0
Cd237 Cd 0.76651 0.66104 0.03008 0.0
Cd238 Cd 0.8025 0.64194 0.99483 0.0
O239 O 0.80573 0.68205 0.97525 0.0
O240 O 0.73737 0.6735 0.05222 0.0
O241 O 0.78237 0.67615 0.06778 0.0
C242 C 0.75689 0.68046 0.07161 0.0
C243 C 0.84221 0.62304 0.00946 0.0
C244 C 0.78678 0.69686 0.9778 0.0
C245 C 0.74512 0.60362 0.0039 0.0
O246 O 0.76518 0.61101 0.9867 0.0
O247 O 0.74458 0.61896 0.02466 0.0
O248 O 0.83514 0.62547 0.98346 0.0
O249 O 0.82763 0.63298 0.02723 0.0
O250 O 0.94776 0.04665 0.27884 0.0
Cd251 Cd 0.92536 0.04304 0.2408 0.0
Cd252 Cd 0.88353 0.06279 0.27193 0.0
O253 O 0.91646 0.06427 0.30148 0.0
O254 O 0.95323 0.03575 0.21369 0.0
O255 O 0.93492 0.07479 0.21136 0.0
C256 C 0.9514 0.05985 0.20116 0.0
C257 C 0.85893 0.10053 0.27304 0.0
C258 C 0.94027 0.05622 0.3009 0.0
C259 C 0.86577 0.00396 0.24687 0.0
O260 O 0.85925 0.02241 0.26226 0.0
O261 O 0.89025 0.00874 0.23572 0.0
O262 O 0.85586 0.08005 0.29179 0.0
O263 O 0.87579 0.09949 0.25302 0.0
O264 O 0.30072 0.20835 0.50231 0.0
Cd265 Cd 0.29007 0.18355 0.53831 0.0
Cd266 Cd 0.32638 0.1517 0.5127 0.0
O267 O 0.33066 0.1855 0.4836 0.0
O268 O 0.26406 0.20497 0.5553 0.0
O269 O 0.30484 0.19897 0.57616 0.0
C270 C 0.28168 0.20902 0.57655 0.0
C271 C 0.36496 0.13036 0.52683 0.0
C272 C 0.31718 0.20593 0.48287 0.0
C273 C 0.26387 0.12236 0.52147 0.0
O274 O 0.28762 0.12191 0.51058 0.0
O275 O 0.26123 0.14414 0.5346 0.0
O276 O 0.35301 0.12722 0.50231 0.0
O277 O 0.35637 0.14739 0.54307 0.0
O278 O 0.43373 0.54525 0.7874 0.0
Cd279 Cd 0.41363 0.54385 0.74828 0.0
Cd280 Cd 0.37377 0.56609 0.77864 0.0
O281 O 0.40499 0.5664 0.80983 0.0
O282 O 0.44111 0.52988 0.72505 0.0
O283 O 0.43008 0.57239 0.71749 0.0
C284 C 0.44411 0.5536 0.7104 0.0
C285 C 0.35387 0.60675 0.77022 0.0
C286 C 0.42722 0.55557 0.8095 0.0
C287 C 0.35216 0.50829 0.75352 0.0
O288 O 0.34726 0.52641 0.77021 0.0
O289 O 0.37619 0.51249 0.74161 0.0
O290 O 0.34753 0.58987 0.79178 0.0
O291 O 0.37206 0.6008 0.75345 0.0
O292 O 0.74399 0.3854 0.45627 0.0
Cd293 Cd 0.75158 0.40495 0.49424 0.0
Cd294 Cd 0.73761 0.44944 0.46257 0.0
O295 O 0.73065 0.42054 0.4311 0.0
O296 O 0.76167 0.37421 0.51959 0.0
O297 O 0.72417 0.39342 0.52583 0.0
C298 C 0.74031 0.37596 0.53445 0.0
C299 C 0.69977 0.46566 0.48089 0.0
C300 C 0.73555 0.39525 0.43314 0.0
C301 C 0.7964 0.46176 0.48839 0.0
O302 O 0.77976 0.4713 0.47077 0.0
O303 O 0.78833 0.43705 0.50028 0.0
O304 O 0.71151 0.47713 0.45821 0.0
O305 O 0.7094 0.44459 0.49294 0.0
O306 O 0.66027 0.03561 0.79646 0.0
Cd307 Cd 0.63658 0.99735 0.8135 0.0
Cd308 Cd 0.59056 0.02273 0.78958 0.0
O309 O 0.62497 0.05669 0.78159 0.0
O310 O 0.66797 0.9792 0.82995 0.0
O311 O 0.63764 0.95929 0.79657 0.0
C312 C 0.65955 0.95832 0.81328 0.0
C313 C 0.55803 0.01016 0.75205 0.0
C314 C 0.65184 0.05719 0.78523 0.0
C315 C 0.58967 0.00774 0.85065 0.0
O316 O 0.57674 0.01693 0.82964 0.0
O317 O 0.61303 -0.00074 0.84808 0.0
O318 O 0.55712 0.03176 0.76696 0.0
O319 O 0.57683 0.99489 0.75907 0.0
O320 O 0.98161 0.31594 0.91844 0.0
Cd321 Cd 0.97488 0.27766 0.89781 0.0
Cd322 Cd 0.99521 0.31316 0.85458 0.0
O323 O 0.99512 0.34499 0.8823 0.0
O324 O 0.97226 0.24734 0.92803 0.0
O325 O 0.00589 0.25472 0.89646 0.0
C326 C 0.99469 0.24061 0.91829 0.0
C327 C 0.03757 0.3176 0.83041 0.0
C328 C 0.98923 0.34134 0.90778 0.0
C329 C 0.93529 0.27585 0.84716 0.0
O330 O 0.95615 0.29354 0.83583 0.0
O331 O 0.93793 0.26705 0.87225 0.0
O332 O 0.01956 0.33387 0.82432 0.0
O333 O 0.03126 0.29817 0.85013 0.0
O334 O 0.49235 0.81492 0.40776 0.0
Cd335 Cd 0.49136 0.77744 0.38672 0.0
Cd336 Cd 0.51023 0.81726 0.34509 0.0
O337 O 0.50955 0.84676 0.37462 0.0
O338 O 0.48277 0.74626 0.41603 0.0
O339 O 0.52397 0.75659 0.39412 0.0
C340 C 0.50791 0.74106 0.41258 0.0
C341 C 0.55332 0.82007 0.32284 0.0
C342 C 0.50093 0.84104 0.39917 0.0
C343 C 0.45441 0.77597 0.33343 0.0
O344 O 0.47169 0.79894 0.3251 0.0
O345 O 0.45918 0.76362 0.35654 0.0
O346 O 0.53684 0.83787 0.31651 0.0
O347 O 0.54512 0.80028 0.34191 0.0
O348 O 0.95009 0.78149 0.67866 0.0
Cd349 Cd 0.98546 0.77146 0.66088 0.0
Cd350 Cd 0.96858 0.80062 0.6158 0.0
O351 O 0.93666 0.80494 0.64164 0.0
O352 O 0.01006 0.75775 0.69071 0.0
O353 O 0.02536 0.79722 0.66442 0.0
C354 C 0.03082 0.77911 0.68361 0.0
C355 C 0.99576 0.84222 0.59477 0.0
C356 C 0.93282 0.79555 0.66654 0.0
C357 C 0.97067 0.73948 0.60762 0.0
O358 O 0.96484 0.76225 0.59624 0.0
O359 O 0.97883 0.73893 0.63302 0.0
O360 O 0.96951 0.83128 0.58626 0.0
O361 O 0.00668 0.82944 0.61547 0.0
O362 O 0.46396 0.26352 0.20273 0.0
Cd363 Cd 0.49818 0.25603 0.18135 0.0
Cd364 Cd 0.47305 0.28155 0.13818 0.0
O365 O 0.44397 0.2846 0.16777 0.0
O366 O 0.5254 0.24369 0.2094 0.0
O367 O 0.53727 0.28367 0.18306 0.0
C368 C 0.54471 0.26607 0.20174 0.0
C369 C 0.4961 0.32264 0.11341 0.0
C370 C 0.44408 0.27567 0.19299 0.0
C371 C 0.47944 0.22171 0.12979 0.0
O372 O 0.46987 0.24292 0.11929 0.0
O373 O 0.49108 0.22294 0.15406 0.0
O374 O 0.46919 0.31069 0.10822 0.0
O375 O 0.50984 0.31158 0.13332 0.0
H376 H 0.2197 0.77473 0.85504 0.0
H377 H 0.2113 0.84461 0.79727 0.0
H378 H 0.21638 0.87772 0.83552 0.0
H379 H 0.22342 0.88677 0.88541 0.0
H380 H 0.23187 0.81653 0.94299 0.0
H381 H 0.2264 0.78364 0.90481 0.0
C382 C 0.21938 0.7973 0.85083 0.0
C383 C 0.21535 0.80729 0.82342 0.0
C384 C 0.22203 0.81609 0.8729 0.0
C385 C 0.21434 0.83644 0.81826 0.0
C386 C 0.21721 0.85535 0.8401 0.0
C387 C 0.2238 0.86422 0.88964 0.0
C388 C 0.22803 0.8542 0.91706 0.0
C389 C 0.22093 0.84538 0.86753 0.0
C390 C 0.22867 0.8249 0.9221 0.0
C391 C 0.22564 0.80604 0.90027 0.0
H392 H 0.02075 0.55406 0.43907 0.0
H393 H 0.10222 0.55597 0.48355 0.0
H394 H 0.11794 0.53009 0.4465 0.0
H395 H 0.11071 0.51239 0.39926 0.0
H396 H 0.02987 0.5123 0.35375 0.0
H397 H 0.01146 0.53146 0.39357 0.0
C398 C 0.04179 0.54848 0.44063 0.0
C399 C 0.06066 0.55741 0.46346 0.0
C400 C 0.05079 0.53404 0.41909 0.0
C401 C 0.08765 0.5497 0.46579 0.0
C402 C 0.09659 0.53494 0.44466 0.0
C403 C 0.08885 0.51602 0.39817 0.0
C404 C 0.0719 0.51129 0.37336 0.0
C405 C 0.07869 0.52779 0.42085 0.0
C406 C 0.04354 0.51599 0.37246 0.0
C407 C 0.03301 0.52709 0.39519 0.0
H408 H 0.75171 0.78703 0.89082 0.0
H409 H 0.84046 0.7955 0.86788 0.0
H410 H 0.84741 0.76068 0.90479 0.0
H411 H 0.82768 0.72619 0.94256 0.0
H412 H 0.74 0.72062 0.96718 0.0
H413 H 0.73367 0.75653 0.93118 0.0
C414 C 0.77282 0.78186 0.89417 0.0
C415 C 0.79534 0.79373 0.87617 0.0
C416 C 0.77693 0.76225 0.91583 0.0
C417 C 0.82239 0.78623 0.88083 0.0
C418 C 0.82651 0.76642 0.90212 0.0
C419 C 0.80727 0.733 0.94014 0.0
C420 C 0.78431 0.72054 0.95742 0.0
C421 C 0.80379 0.75396 0.91949 0.0
C422 C 0.75808 0.72984 0.95421 0.0
C423 C 0.75436 0.75033 0.93354 0.0
H424 H -0.00021 0.06259 0.42084 0.0
H425 H 0.06023 0.02423 0.38003 0.0
H426 H 0.03246 0.02553 0.33604 0.0
H427 H 0.99055 0.0372 0.30942 0.0
H428 H 0.93087 0.07651 0.35078 0.0
H429 H 0.95886 0.07531 0.39421 0.0
C430 C 0.00665 0.05423 0.40234 0.0
C431 C 0.03139 0.04246 0.40381 0.0
C432 C 0.99083 0.05539 0.37719 0.0
C433 C 0.04072 0.03261 0.37955 0.0
C434 C 0.02496 0.03352 0.35439 0.0
C435 C 0.98374 0.04563 0.32789 0.0
C436 C 0.95855 0.05684 0.32675 0.0
C437 C -9e-05 0.0448 0.35299 0.0
C438 C 0.9501 0.06769 0.35095 0.0
C439 C 0.96606 0.06698 0.37589 0.0
H440 H 0.27241 0.28602 0.67788 0.0
H441 H 0.18337 0.26903 0.64712 0.0
H442 H 0.19433 0.23822 0.61186 0.0
H443 H 0.22955 0.21852 0.58811 0.0
H444 H 0.31876 0.23445 0.61837 0.0
H445 H 0.30744 0.26309 0.6557 0.0
C446 C 0.25542 0.27512 0.66369 0.0
C447 C 0.22712 0.27959 0.66512 0.0
C448 C 0.26194 0.25751 0.64332 0.0
C449 C 0.20525 0.26572 0.6465 0.0
C450 C 0.21153 0.24822 0.62628 0.0
C451 C 0.24655 0.22818 0.60291 0.0
C452 C 0.27502 0.22469 0.60032 0.0
C453 C 0.23986 0.24438 0.62422 0.0
C454 C 0.29669 0.23693 0.61991 0.0
C455 C 0.29023 0.25333 0.64119 0.0
H456 H 0.51535 0.55048 0.60391 0.0
H457 H 0.51792 0.64204 0.6021 0.0
H458 H 0.49068 0.63595 0.64445 0.0
H459 H 0.46463 0.60427 0.68136 0.0
H460 H 0.46454 0.51323 0.68413 0.0
H461 H 0.49271 0.51965 0.64244 0.0
C462 C 0.51051 0.56925 0.61301 0.0
C463 C 0.5185 0.59662 0.59954 0.0
C464 C 0.49514 0.56569 0.63759 0.0
C465 C 0.51156 0.62057 0.6116 0.0
C466 C 0.49608 0.61716 0.63595 0.0
C467 C 0.47087 0.58589 0.67286 0.0
C468 C 0.46231 0.5583 0.68576 0.0
C469 C 0.4874 0.58975 0.64894 0.0
C470 C 0.47081 0.53473 0.67464 0.0
C471 C 0.48691 0.53834 0.65074 0.0
H472 H 0.70666 0.31324 0.6506 0.0
H473 H 0.79452 0.30229 0.64788 0.0
H474 H 0.79942 0.32661 0.60212 0.0
H475 H 0.77901 0.35105 0.56321 0.0
H476 H 0.69224 0.36506 0.56632 0.0
H477 H 0.68648 0.33931 0.61161 0.0
C478 C 0.72676 0.31608 0.63984 0.0
C479 C 0.74993 0.30532 0.65217 0.0
C480 C 0.72957 0.33053 0.61369 0.0
C481 C 0.77619 0.3098 0.63845 0.0
C482 C 0.77901 0.32375 0.61236 0.0
C483 C 0.75871 0.34829 0.57366 0.0
C484 C 0.73597 0.35968 0.56132 0.0
C485 C 0.75583 0.33409 0.59978 0.0
C486 C 0.71002 0.35637 0.57536 0.0
C487 C 0.70675 0.3417 0.60125 0.0
H488 H 0.47008 0.00404 0.64901 0.0
H489 H 0.54117 0.97988 0.6101 0.0
H490 H 0.56747 0.9805 0.65456 0.0
H491 H 0.57166 0.98991 0.70423 0.0
H492 H 0.50368 0.01964 0.74242 0.0
H493 H 0.47499 0.01507 0.6986 0.0
C494 C 0.49144 -0.00079 0.65011 0.0
C495 C 0.50327 0.99155 0.62605 0.0
C496 C 0.50708 0.00055 0.67574 0.0
C497 C 0.53097 0.98508 0.62822 0.0
C498 C 0.54625 0.98565 0.65368 0.0
C499 C 0.55037 0.99497 0.70301 0.0
C500 C 0.5396 0.00475 0.72649 0.0
C501 C 0.53458 0.9934 0.67755 0.0
C502 C 0.51231 0.01191 0.72456 0.0
C503 C 0.49597 0.0094 0.69952 0.0
H504 H 0.80726 0.23649 0.79794 0.0
H505 H 0.85078 0.26472 0.72155 0.0
H506 H 0.89708 0.27778 0.74731 0.0
H507 H 0.92538 0.28105 0.79143 0.0
H508 H 0.8824 0.24988 0.8674 0.0
H509 H 0.83587 0.23722 0.84166 0.0
C510 C 0.82686 0.24506 0.78677 0.0
C511 C 0.82528 0.2497 0.75774 0.0
C512 C 0.85362 0.25181 0.80162 0.0
C513 C 0.85104 0.26143 0.74389 0.0
C514 C 0.87766 0.26867 0.75859 0.0
C515 C 0.90586 0.27141 0.80237 0.0
C516 C 0.90739 0.26654 0.83133 0.0
C517 C 0.8792 0.26399 0.78744 0.0
C518 C 0.88189 0.2538 0.84512 0.0
C519 C 0.85524 0.24666 0.83043 0.0
H520 H 0.50971 0.9564 0.46258 0.0
H521 H 0.49258 0.89575 0.53217 0.0
H522 H 0.48926 0.85537 0.5014 0.0
H523 H 0.49212 0.83754 0.45478 0.0
H524 H 0.51075 0.89873 0.38548 0.0
H525 H 0.51252 0.93863 0.41604 0.0
C526 C 0.50504 0.93431 0.47091 0.0
C527 C 0.50091 0.92892 0.49945 0.0
C528 C 0.50351 0.91134 0.45318 0.0
C529 C 0.49539 0.90028 0.51015 0.0
C530 C 0.49359 0.87726 0.4926 0.0
C531 C 0.49644 0.85959 0.44633 0.0
C532 C 0.50129 0.86506 0.41785 0.0
C533 C 0.49769 0.88254 0.46408 0.0
C534 C 0.50701 0.89382 0.40731 0.0
C535 C 0.50802 0.91671 0.42477 0.0
H536 H 0.15195 0.35778 0.7638 0.0
H537 H 0.16507 0.27469 0.79404 0.0
H538 H 0.11871 0.26519 0.81732 0.0
H539 H 0.07495 0.28134 0.82988 0.0
H540 H 0.06175 0.36399 0.79776 0.0
H541 H 0.10763 0.37287 0.77448 0.0
C542 C 0.14464 0.33764 0.77557 0.0
C543 C 0.16189 0.31707 0.77752 0.0
C544 C 0.11799 0.33229 0.78856 0.0
C545 C 0.15204 0.2908 0.79232 0.0
C546 C 0.12564 0.28544 0.80567 0.0
C547 C 0.08214 0.30124 0.81775 0.0
C548 C 0.06501 0.32201 0.81568 0.0
C549 C 0.1085 0.30613 0.80408 0.0
C550 C 0.07447 0.34761 0.79968 0.0
C551 C 0.10075 0.35277 0.78638 0.0
H552 H 0.56899 0.65768 0.48761 0.0
H553 H 0.48062 0.62581 0.51214 0.0
H554 H 0.4643 0.65966 0.47912 0.0
H555 H 0.47516 0.69966 0.44498 0.0
H556 H 0.56298 0.7315 0.41909 0.0
H557 H 0.57941 0.69597 0.4506 0.0
C558 C 0.54613 0.65789 0.48543 0.0
C559 C 0.52614 0.63954 0.50268 0.0
C560 C 0.53679 0.67742 0.46623 0.0
C561 C 0.49657 0.64015 0.49963 0.0
C562 C 0.48717 0.6594 0.48064 0.0
C563 C 0.49791 0.6988 0.44611 0.0
C564 C 0.51786 0.71837 0.42991 0.0
C565 C 0.50713 0.67842 0.46418 0.0
C566 C 0.54718 0.7167 0.43139 0.0
C567 C 0.55659 0.69644 0.44945 0.0
H568 H 0.82158 0.82884 0.71091 0.0
H569 H 0.83619 0.76983 0.77764 0.0
H570 H 0.87896 0.76188 0.75506 0.0
H571 H 0.91204 0.77182 0.71617 0.0
H572 H 0.89681 0.83086 0.64932 0.0
H573 H 0.8545 0.83869 0.67207 0.0
C574 C 0.83402 0.81403 0.72027 0.0
C575 C 0.82557 0.79942 0.74548 0.0
C576 C 0.85851 0.8097 0.70723 0.0
C577 C 0.84213 0.78081 0.75789 0.0
C578 C 0.86658 0.7764 0.74508 0.0
C579 C 0.89953 0.78647 0.70663 0.0
C580 C 0.90765 0.8007 0.68107 0.0
C581 C 0.87499 0.79074 0.71972 0.0
C582 C 0.89107 0.81953 0.66895 0.0
C583 C 0.86682 0.82405 0.68193 0.0
H584 H 0.08488 0.94437 0.53749 0.0
H585 H 0.00516 0.9655 0.50512 0.0
H586 H 0.97713 0.92393 0.5307 0.0
H587 H 0.97516 0.88119 0.56166 0.0
H588 H 0.05463 0.86188 0.5965 0.0
H589 H 0.08287 0.90376 0.57108 0.0
C590 C 0.06138 0.94031 0.53637 0.0
C591 C 0.04726 0.95806 0.51913 0.0
C592 C 0.04533 0.91673 0.55163 0.0
C593 C 0.01672 0.95194 0.51767 0.0
C594 C 0.00062 0.92827 0.53248 0.0
C595 C 0.99867 0.88619 0.56374 0.0
C596 C 0.01282 0.86838 0.58073 0.0
C597 C 0.0147 0.91041 0.54934 0.0
C598 C 0.04325 0.8753 0.58353 0.0
C599 C 0.0594 0.89916 0.56894 0.0
H600 H 0.1594 0.8084 0.73366 0.0
H601 H 0.13824 0.71644 0.75199 0.0
H602 H 0.0902 0.71275 0.72964 0.0
H603 H 0.05339 0.73599 0.70719 0.0
H604 H 0.07456 0.82764 0.68733 0.0
H605 H 0.12338 0.83127 0.70832 0.0
C606 C 0.1443 0.78755 0.73253 0.0
C607 C 0.1523 0.76273 0.74448 0.0
C608 C 0.11666 0.78563 0.71977 0.0
C609 C 0.1327 0.73578 0.74267 0.0
C610 C 0.10514 0.73371 0.73015 0.0
C611 C 0.06866 0.75679 0.70756 0.0
C612 C 0.06031 0.78161 0.69616 0.0
C613 C 0.09674 0.75855 0.71908 0.0
C614 C 0.08048 0.80829 0.69619 0.0
C615 C 0.10836 0.81034 0.70812 0.0
H616 H 0.95673 0.63962 0.52284 0.0
H617 H 0.01277 0.60892 0.58444 0.0
H618 H 0.01277 0.65031 0.61294 0.0
H619 H 0.99683 0.69505 0.62012 0.0
H620 H 0.94216 0.7267 0.55765 0.0
H621 H 0.94136 0.68481 0.52971 0.0
C622 C 0.96878 0.64196 0.54261 0.0
C623 C 0.9846 0.62129 0.5517 0.0
C624 C 0.96883 0.66583 0.55867 0.0
C625 C 0.00057 0.62471 0.57704 0.0
C626 C 0.00045 0.64825 0.59334 0.0
C627 C 0.98456 0.69269 0.60048 0.0
C628 C 0.96941 0.71383 0.59103 0.0
C629 C 0.98462 0.66889 0.58435 0.0
C630 C 0.95398 0.7107 0.56536 0.0
C631 C 0.95352 0.68678 0.54939 0.0
H632 H 0.78926 0.88218 0.21561 0.0
H633 H 0.76386 0.88404 0.30019 0.0
H634 H 0.79431 0.93251 0.30438 0.0
H635 H 0.8288 0.97414 0.28439 0.0
H636 H 0.85795 0.97039 0.20163 0.0
H637 H 0.82565 0.92263 0.19649 0.0
C638 C 0.79071 0.89287 0.23516 0.0
C639 C 0.77405 0.87935 0.25748 0.0
C640 C 0.80888 0.92047 0.23773 0.0
C641 C 0.77592 0.89401 0.28244 0.0
C642 C 0.79349 0.92171 0.28495 0.0
C643 C 0.82785 0.96293 0.26516 0.0
C644 C 0.84541 0.97578 0.2433 0.0
C645 C 0.80998 0.93518 0.26271 0.0
C646 C 0.8445 0.96087 0.21869 0.0
C647 C 0.8261 0.9336 0.21577 0.0
H648 H 0.79164 0.19526 0.30262 0.0
H649 H 0.81328 0.22564 0.21913 0.0
H650 H 0.83832 0.18629 0.21431 0.0
H651 H 0.8538 0.1429 0.23396 0.0
H652 H 0.83036 0.11219 0.31713 0.0
H653 H 0.80603 0.15171 0.32178 0.0
C654 C 0.80149 0.19304 0.28324 0.0
C655 C 0.79996 0.21287 0.26098 0.0
C656 C 0.81554 0.17026 0.28055 0.0
C657 C 0.81366 0.21024 0.23633 0.0
C658 C 0.82802 0.18781 0.2336 0.0
C659 C 0.84334 0.14488 0.25306 0.0
C660 C 0.84394 0.12458 0.27514 0.0
C661 C 0.82904 0.16761 0.25557 0.0
C662 C 0.83019 0.12741 0.29975 0.0
C663 C 0.81628 0.15006 0.30248 0.0
H664 H 0.43467 0.00342 0.00291 0.0
H665 H 0.40789 0.07537 0.96019 0.0
H666 H 0.35899 0.04545 0.95231 0.0
H667 H 0.32299 -5e-05 0.96116 0.0
H668 H 0.35037 0.92895 0.00558 0.0
H669 H 0.39989 0.95739 0.00907 0.0
C670 C 0.41835 0.01232 0.99121 0.0
C671 C 0.42482 0.04145 0.98203 0.0
C672 C 0.39026 0.9953 0.98747 0.0
C673 C 0.4033 0.05294 0.96746 0.0
C674 C 0.37537 0.0359 0.96308 0.0
C675 C 0.33982 0.99065 0.97147 0.0
C676 C 0.33281 0.96244 0.98333 0.0
C677 C 0.3684 0.00725 0.97364 0.0
C678 C 0.35498 0.95069 0.99648 0.0
C679 C 0.3834 0.96691 0.99844 0.0
H680 H 0.25251 0.38258 0.36328 0.0
H681 H 0.21672 0.33964 0.28852 0.0
H682 H 0.18295 0.37179 0.28191 0.0
H683 H 0.16556 0.41407 0.29599 0.0
H684 H 0.20296 0.45793 0.36995 0.0
H685 H 0.23384 0.42343 0.37835 0.0
C686 C 0.23697 0.37998 0.34582 0.0
C687 C 0.23711 0.35882 0.32642 0.0
C688 C 0.21801 0.39888 0.34188 0.0
C689 C 0.21715 0.35594 0.30363 0.0
C690 C 0.19784 0.3743 0.29985 0.0
C691 C 0.18029 0.41591 0.31405 0.0
C692 C 0.18201 0.43865 0.33221 0.0
C693 C 0.1984 0.39619 0.31859 0.0
C694 C 0.2013 0.44077 0.3555 0.0
C695 C 0.21899 0.42101 0.36037 0.0
H696 H 0.16116 0.02516 0.47604 0.0
H697 H 0.11669 0.05451 0.54105 0.0
H698 H 0.16182 0.0877 0.5561 0.0
H699 H 0.2129 0.11087 0.54815 0.0
H700 H 0.25746 0.08024 0.48366 0.0
H701 H 0.21343 0.04471 0.47125 0.0
C702 C 0.16158 0.03865 0.49369 0.0
C703 C 0.1359 0.03777 0.50736 0.0
C704 C 0.18751 0.05742 0.50222 0.0
C705 C 0.13642 0.05498 0.53034 0.0
C706 C 0.16211 0.07397 0.53882 0.0
C707 C 0.21305 0.09622 0.53158 0.0
C708 C 0.23832 0.09847 0.51663 0.0
C709 C 0.18765 0.07577 0.52454 0.0
C710 C 0.23829 0.07906 0.49546 0.0
C711 C 0.21308 0.05879 0.48824 0.0
H712 H 0.7586 0.1568 0.75195 0.0
H713 H 0.69036 0.20311 0.73636 0.0
H714 H 0.65422 0.15993 0.74988 0.0
H715 H 0.6421 0.10933 0.76678 0.0
H716 H 0.71062 0.06358 0.78389 0.0
H717 H 0.74658 0.10647 0.76954 0.0
C718 C 0.73586 0.15758 0.75182 0.0
C719 C 0.72724 0.18319 0.74319 0.0
C720 C 0.71525 0.13281 0.75995 0.0
C721 C 0.69758 0.18359 0.7426 0.0
C722 C 0.67691 0.15897 0.75048 0.0
C723 C 0.66488 0.10869 0.76734 0.0
C724 C 0.67359 0.08323 0.7764 0.0
C725 C 0.68551 0.13347 0.75922 0.0
C726 C 0.70326 0.08287 0.77708 0.0
C727 C 0.72388 0.10739 0.76884 0.0
H728 H 0.45967 0.06581 0.57835 0.0
H729 H 0.40619 0.99691 0.5311 0.0
H730 H 0.37548 0.02897 0.51419 0.0
H731 H 0.36318 0.07614 0.5126 0.0
H732 H 0.41172 0.14383 0.56373 0.0
H733 H 0.44466 0.11254 0.57972 0.0
C734 C 0.44111 0.0576 0.56468 0.0
C735 C 0.43595 0.02895 0.55557 0.0
C736 C 0.42259 0.07598 0.55566 0.0
C737 C 0.41163 0.01902 0.53775 0.0
C738 C 0.39373 0.03729 0.5282 0.0
C739 C 0.38112 0.08414 0.5271 0.0
C740 C 0.38541 0.11235 0.53662 0.0
C741 C 0.39913 0.0658 0.53683 0.0
C742 C 0.4082 0.12221 0.55597 0.0
C743 C 0.42695 0.10431 0.5651 0.0
H744 H 0.5985 0.49745 0.54548 0.0
H745 H 0.6056 0.56288 0.47976 0.0
H746 H 0.64512 0.54536 0.46026 0.0
H747 H 0.67692 0.51087 0.46154 0.0
H748 H 0.66964 0.44518 0.52727 0.0
H749 H 0.63085 0.46327 0.54709 0.0
C750 C 0.60882 0.50788 0.52695 0.0
C751 C 0.59924 0.53137 0.51397 0.0
C752 C 0.63134 0.49756 0.51582 0.0
C753 C 0.61273 0.54477 0.49001 0.0
C754 C 0.63522 0.53472 0.47888 0.0
C755 C 0.66686 0.50047 0.48019 0.0
C756 C 0.67616 0.47662 0.49283 0.0
C757 C 0.64458 0.51101 0.49152 0.0
C758 C 0.6629 0.46352 0.51706 0.0
C759 C 0.64072 0.47387 0.52844 0.0
H760 H 0.71902 0.33644 0.31693 0.0
H761 H 0.75087 0.27053 0.36531 0.0
H762 H 0.75551 0.29953 0.40645 0.0
H763 H 0.74904 0.34279 0.42904 0.0
H764 H 0.71597 0.40814 0.3809 0.0
H765 H 0.71264 0.37975 0.33949 0.0
C766 C 0.72685 0.32833 0.3365 0.0
C767 C 0.73456 0.30129 0.33796 0.0
C768 C 0.72894 0.34484 0.36021 0.0
C769 C 0.74517 0.29141 0.36342 0.0
C770 C 0.74756 0.30786 0.38705 0.0
C771 C 0.741 0.35083 0.40954 0.0
C772 C 0.73266 0.37755 0.40819 0.0
C773 C 0.73925 0.33447 0.38574 0.0
C774 C 0.72246 0.38763 0.38263 0.0
C775 C 0.72062 0.37145 0.35888 0.0
H776 H 0.57912 0.02793 0.97705 0.0
H777 H 0.52325 0.08184 0.94254 0.0
H778 H 0.52644 0.06384 0.89626 0.0
H779 H 0.54991 0.03735 0.86518 0.0
H780 H 0.60781 0.98516 0.89962 0.0
H781 H 0.59874 0.99754 0.9464 0.0
C782 C 0.56745 0.03543 0.95937 0.0
C783 C 0.55152 0.05658 0.96285 0.0
C784 C 0.56988 0.02541 0.93287 0.0
C785 C 0.53601 0.06588 0.94006 0.0
C786 C 0.53786 0.05562 0.91369 0.0
C787 C 0.56011 0.02819 0.88291 0.0
C788 C 0.5798 0.01063 0.87884 0.0
C789 C 0.55544 0.03604 0.90973 0.0
C790 C 0.59278 -0.00104 0.90212 0.0
C791 C 0.58769 0.0061 0.9289 0.0
H792 H 0.30801 0.2623 0.36356 0.0
H793 H 0.2823 0.32741 0.41032 0.0
H794 H 0.28991 0.30087 0.45337 0.0
H795 H 0.30245 0.25833 0.47779 0.0
H796 H 0.33218 0.19592 0.43098 0.0
H797 H 0.32577 0.22324 0.38802 0.0
C798 C 0.30471 0.27132 0.38306 0.0
C799 C 0.29426 0.29692 0.38329 0.0
C800 C 0.31015 0.25654 0.40789 0.0
C801 C 0.28954 0.30745 0.40911 0.0
C802 C 0.29423 0.29244 0.4339 0.0
C803 C 0.30789 0.25091 0.45822 0.0
C804 C 0.31762 0.22499 0.45763 0.0
C805 C 0.30427 0.26681 0.43352 0.0
C806 C 0.32478 0.21582 0.43211 0.0
C807 C 0.32089 0.23132 0.40747 0.0
H808 H 0.47865 0.54265 0.93123 0.0
H809 H 0.53416 0.50011 0.88807 0.0
H810 H 0.5109 0.51063 0.84374 0.0
H811 H 0.47365 0.53051 0.81743 0.0
H812 H 0.41864 0.5738 0.86072 0.0
H813 H 0.44309 0.5647 0.90469 0.0
C814 C 0.48545 0.53553 0.91208 0.0
C815 C 0.50733 0.51977 0.91303 0.0
C816 C 0.47223 0.54196 0.88668 0.0
C817 C 0.51673 0.51149 0.88805 0.0
C818 C 0.50356 0.51767 0.86265 0.0
C819 C 0.46714 0.53819 0.83642 0.0
C820 C 0.44418 0.55269 0.83569 0.0
C821 C 0.48112 0.53268 0.86175 0.0
C822 C 0.43616 0.56253 0.86058 0.0
C823 C 0.45006 0.55725 0.8858 0.0
H824 H 0.70502 0.74464 0.16079 0.0
H825 H 0.7955 0.78328 0.17626 0.0
H826 H 0.80908 0.7505 0.14397 0.0
H827 H 0.79462 0.71441 0.10757 0.0
H828 H 0.7036 0.678 0.09101 0.0
H829 H 0.69081 0.70606 0.12758 0.0
C830 C 0.72771 0.74556 0.15733 0.0
C831 C 0.74927 0.76643 0.17049 0.0
C832 C 0.73521 0.72718 0.13838 0.0
C833 C 0.77861 0.76739 0.1661 0.0
C834 C 0.78632 0.74876 0.14761 0.0
C835 C 0.77205 0.71228 0.11235 0.0
C836 C 0.75009 0.69437 0.09646 0.0
C837 C 0.76475 0.72907 0.13306 0.0
C838 C 0.72091 0.69187 0.10277 0.0
C839 C 0.71354 0.70792 0.12367 0.0
H840 H 0.01821 0.11999 0.09661 0.0
H841 H 0.02167 0.03152 0.08271 0.0
H842 H 0.99713 0.01594 0.12587 0.0
H843 H 0.97314 0.02705 0.16678 0.0
H844 H 0.96566 0.11466 0.17833 0.0
H845 H 0.99259 0.13079 0.13633 0.0
C846 C 0.01325 0.09719 0.10266 0.0
C847 C 0.02188 0.07703 0.08615 0.0
C848 C 0.99819 0.08817 0.12703 0.0
C849 C 0.01584 0.04771 0.09503 0.0
C850 C 0.00151 0.03869 0.11964 0.0
C851 C 0.97748 0.0497 0.16014 0.0
C852 C 0.96753 0.06967 0.17569 0.0
C853 C 0.99245 0.0587 0.13571 0.0
C854 C 0.97303 0.09887 0.16668 0.0
C855 C 0.98848 0.1081 0.14272 0.0
H856 H 0.2857 0.78617 0.14466 0.0
H857 H 0.20119 0.79611 0.16617 0.0
H858 H 0.19779 0.82539 0.12351 0.0
H859 H 0.21893 0.84778 0.07973 0.0
H860 H 0.30274 0.83555 0.05804 0.0
H861 H 0.30617 0.80733 0.10093 0.0
C862 C 0.26635 0.79437 0.13982 0.0
C863 C 0.24335 0.78832 0.15811 0.0
C864 C 0.26444 0.81081 0.11521 0.0
C865 C 0.21886 0.79996 0.15202 0.0
C866 C 0.21696 0.81675 0.12772 0.0
C867 C 0.23791 0.83893 0.08446 0.0
C868 C 0.26051 0.84375 0.06571 0.0
C869 C 0.23961 0.82225 0.10908 0.0
C870 C 0.28494 0.83205 0.07203 0.0
C871 C 0.28699 0.81593 0.0966 0.0
H872 H 0.98566 0.53088 0.13768 0.0
H873 H 0.97522 0.43867 0.13048 0.0
H874 H 0.00222 0.43623 0.17449 0.0
H875 H 0.02986 0.46065 0.21487 0.0
H876 H 0.03573 0.55198 0.22321 0.0
H877 H 0.00858 0.55405 0.17941 0.0
C878 C 0.98853 0.51003 0.14587 0.0
C879 C 0.97844 0.48508 0.13039 0.0
C880 C 0.00326 0.50856 0.1716 0.0
C881 C 0.98324 0.45847 0.14142 0.0
C882 C 0.99851 0.45695 0.16679 0.0
C883 C 0.02497 0.4809 0.20714 0.0
C884 C 0.03492 0.50611 0.22223 0.0
C885 C 0.00886 0.48193 0.18197 0.0
C886 C 0.02826 0.5322 0.21209 0.0
C887 C 0.01282 0.53347 0.18695 0.0
H888 H 0.34521 0.70506 0.26819 0.0
H889 H 0.33322 0.79138 0.24789 0.0
H890 H 0.37869 0.81178 0.27265 0.0
H891 H 0.42096 0.80527 0.30191 0.0
H892 H 0.42931 0.71913 0.32718 0.0
H893 H 0.38564 0.69851 0.2993 0.0
C894 C 0.35209 0.72835 0.2695 0.0
C895 C 0.3355 0.74649 0.256 0.0
C896 C 0.37761 0.74001 0.28487 0.0
C897 C 0.34559 0.77669 0.25746 0.0
C898 C 0.37153 0.78846 0.27192 0.0
C899 C 0.41323 0.78199 0.30114 0.0
C900 C 0.4283 0.76368 0.31635 0.0
C901 C 0.38761 0.77034 0.28584 0.0
C902 C 0.41794 0.73359 0.31563 0.0
C903 C 0.39305 0.72182 0.29968 0.0
H904 H 0.9921 0.46049 0.9626 0.0
H905 H 0.9763 0.40446 0.03563 0.0
H906 H 0.97733 0.36253 0.00826 0.0
H907 H 0.98189 0.34183 0.96341 0.0
H908 H -0.00121 0.39821 0.89047 0.0
H909 H 0.9983 0.43995 0.91797 0.0
C910 C 0.98876 0.43905 0.97242 0.0
C911 C 0.98342 0.43537 0.00089 0.0
C912 C 0.98966 0.41516 0.95661 0.0
C913 C 0.97983 0.40763 0.01359 0.0
C914 C 0.98052 0.38373 0.99798 0.0
C915 C 0.98553 0.36324 0.9535 0.0
C916 C 0.99025 0.36678 0.92486 0.0
C917 C 0.98525 0.38722 0.96944 0.0
C918 C 0.9951 0.39477 0.91246 0.0
C919 C 0.99477 0.4187 0.92816 0.0
H920 H 0.66964 0.85354 0.25855 0.0
H921 H 0.67902 0.77049 0.29263 0.0
H922 H 0.63196 0.76342 0.3143 0.0
H923 H 0.5889 0.78189 0.32472 0.0
H924 H 0.57992 0.86482 0.28944 0.0
H925 H 0.62615 0.87097 0.26724 0.0
C926 C 0.66138 0.83393 0.2708 0.0
C927 C 0.67781 0.8127 0.27429 0.0
C928 C 0.63446 0.83006 0.28305 0.0
C929 C 0.66666 0.78711 0.28968 0.0
C930 C 0.63987 0.78315 0.30215 0.0
C931 C 0.59707 0.80127 0.31215 0.0
C932 C 0.58103 0.82293 0.30889 0.0
C933 C 0.62369 0.80463 0.29918 0.0
C934 C 0.59179 0.84781 0.29232 0.0
C935 C 0.61827 0.85139 0.27962 0.0
H936 H 0.04232 0.13206 0.96212 0.0
H937 H 0.02906 0.16684 0.04054 0.0
H938 H 0.01242 0.20636 0.01639 0.0
H939 H -0.00021 0.23042 0.97324 0.0
H940 H 0.01783 0.1999 0.89473 0.0
H941 H 0.03508 0.15977 0.91867 0.0
C942 C 0.03628 0.14848 0.97401 0.0
C943 C 0.03617 0.14569 0.00325 0.0
C944 C 0.02756 0.172 0.95996 0.0
C945 C 0.02829 0.16749 0.01807 0.0
C946 C 0.01901 0.1904 0.00429 0.0
C947 C 0.00762 0.21501 0.96141 0.0
C948 C 0.00723 0.21774 0.93235 0.0
C949 C 0.01809 0.19261 0.97529 0.0
C950 C 0.01792 0.19808 0.91719 0.0
C951 C 0.02767 0.17514 0.93086 0.0
H952 H 0.35042 0.27638 0.28204 0.0
H953 H 0.31295 0.31891 0.21369 0.0
H954 H 0.35329 0.31593 0.18481 0.0
H955 H 0.39861 0.30045 0.17889 0.0
H956 H 0.43634 0.25791 0.24739 0.0
H957 H 0.39653 0.26169 0.27635 0.0
C958 C 0.35118 0.28485 0.26077 0.0
C959 C 0.32867 0.29735 0.24972 0.0
C960 C 0.37441 0.28309 0.24439 0.0
C961 C 0.32992 0.30881 0.22238 0.0
C962 C 0.35296 0.30715 0.20594 0.0
C963 C 0.39822 0.29204 0.20017 0.0
C964 C 0.42044 0.27884 0.21087 0.0
C965 C 0.37523 0.2942 0.21669 0.0
C966 C 0.41954 0.26815 0.23855 0.0
C967 C 0.39676 0.27027 0.25515 0.0
H968 H 0.57541 0.4167 0.03797 0.0
H969 H 0.49281 0.43829 0.01685 0.0
H970 H 0.46888 0.39966 0.04825 0.0
H971 H 0.47121 0.35966 0.0817 0.0
H972 H 0.5542 0.34099 0.10598 0.0
H973 H 0.57831 0.37946 0.07409 0.0
C974 C 0.55226 0.41346 0.04051 0.0
C975 C 0.53606 0.43046 0.02468 0.0
C976 C 0.53869 0.39187 0.0594 0.0
C977 C 0.5059 0.42523 0.02806 0.0
C978 C 0.49216 0.4033 0.04631 0.0
C979 C 0.4946 0.36413 0.0801 0.0
C980 C 0.51091 0.34745 0.09602 0.0
C981 C 0.50832 0.38645 0.062 0.0
C982 C 0.5412 0.35363 0.09399 0.0
C983 C 0.55497 0.3755 0.07566 0.0
H984 H 0.67339 0.3032 0.25042 0.0
H985 H 0.65958 0.21088 0.26494 0.0
H986 H 0.61074 0.2043 0.24367 0.0
H987 H 0.57138 0.22491 0.22282 0.0
H988 H 0.58534 0.31692 0.20611 0.0
H989 H 0.63476 0.32365 0.22651 0.0
C990 C 0.65967 0.28167 0.2487 0.0
C991 C 0.66993 0.25754 0.25922 0.0
C992 C 0.63167 0.27807 0.23634 0.0
C993 C 0.65218 0.22971 0.25674 0.0
C994 C 0.62422 0.22597 0.24479 0.0
C995 C 0.58523 0.24645 0.2237 0.0
C996 C 0.5747 0.27045 0.21339 0.0
C997 C 0.61364 0.25001 0.23487 0.0
C998 C 0.59301 0.29816 0.21408 0.0
C999 C 0.6212 0.30199 0.22573 0.0
H1000 H 0.49437 0.1092 0.07314 0.0
H1001 H 0.45412 0.14757 0.00371 0.0
H1002 H 0.45023 0.18797 0.03205 0.0
H1003 H 0.45918 0.21264 0.07637 0.0
H1004 H 0.49909 0.17347 0.1458 0.0
H1005 H 0.50207 0.13304 0.11765 0.0
C1006 C 0.485 0.12657 0.06419 0.0
C1007 C 0.47484 0.1257 0.03639 0.0
C1008 C 0.48261 0.14944 0.08062 0.0
C1009 C 0.46212 0.14792 0.02512 0.0
C1010 C 0.45991 0.17096 0.04129 0.0
C1011 C 0.46835 0.19516 0.08542 0.0
C1012 C 0.47896 0.19619 0.11315 0.0
C1013 C 0.47013 0.17195 0.06907 0.0
C1014 C 0.49076 0.17332 0.12452 0.0
C1015 C 0.49257 0.15019 0.10841 0.0
H1016 H 0.27048 0.39091 0.7174 0.0
H1017 H 0.24883 0.38759 0.80362 0.0
H1018 H 0.28051 0.43524 0.80967 0.0
H1019 H 0.31558 0.47733 0.7909 0.0
H1020 H 0.34094 0.47816 0.70618 0.0
H1021 H 0.30688 0.43173 0.69924 0.0
C1022 C 0.27299 0.40026 0.73769 0.0
C1023 C 0.25714 0.38549 0.75999 0.0
C1024 C 0.2919 0.4273 0.74128 0.0
C1025 C 0.2603 0.39852 0.78591 0.0
C1026 C 0.27858 0.42575 0.78947 0.0
C1027 C 0.31338 0.46742 0.77086 0.0
C1028 C 0.33045 0.48115 0.74899 0.0
C1029 C 0.2945 0.44032 0.76731 0.0
C1030 C 0.32791 0.46793 0.72328 0.0
C1031 C 0.30851 0.44142 0.71932 0.0
H1032 H 0.29753 0.71064 0.72783 0.0
H1033 H 0.2652 0.69861 0.81055 0.0
H1034 H 0.29054 0.65953 0.82027 0.0
H1035 H 0.32117 0.62823 0.80507 0.0
H1036 H 0.35522 0.64112 0.72296 0.0
H1037 H 0.33009 0.68047 0.71323 0.0
C1038 C 0.2959 0.69926 0.74788 0.0
C1039 C 0.27867 0.7068 0.76807 0.0
C1040 C 0.31093 0.67707 0.75347 0.0
C1041 C 0.27754 0.69261 0.79434 0.0
C1042 C 0.29217 0.67037 0.79996 0.0
C1043 C 0.32317 0.63965 0.78504 0.0
C1044 C 0.33995 0.6316 0.76472 0.0
C1045 C 0.30876 0.66229 0.77964 0.0
C1046 C 0.34247 0.64685 0.73898 0.0
C1047 C 0.32803 0.66931 0.73338 0.0
H1048 H 0.91694 0.52569 0.53977 0.0
H1049 H 0.93328 0.54934 0.45389 0.0
H1050 H 0.88395 0.52305 0.44041 0.0
H1051 H 0.83585 0.4938 0.45368 0.0
H1052 H 0.82172 0.46781 0.53959 0.0
H1053 H 0.87042 0.49483 0.55267 0.0
C1054 C 0.90963 0.52487 0.5181 0.0
C1055 C 0.92832 0.5393 0.49778 0.0
C1056 C 0.88164 0.5096 0.51066 0.0
C1057 C 0.91904 0.53813 0.46975 0.0
C1058 C 0.89089 0.52331 0.46213 0.0
C1059 C 0.8435 0.49434 0.47523 0.0
C1060 C 0.82532 0.47924 0.49574 0.0
C1061 C 0.8719 0.50915 0.48247 0.0
C1062 C 0.83545 0.47944 0.52354 0.0
C1063 C 0.86324 0.49479 0.53101 0.0
H1064 H 0.72184 0.85654 0.79361 0.0
H1065 H 0.76679 0.88764 0.86993 0.0
H1066 H 0.73716 0.92345 0.87197 0.0
H1067 H 0.69997 0.94716 0.85123 0.0
H1068 H 0.65446 0.91627 0.77508 0.0
H1069 H 0.68285 0.87913 0.77378 0.0
C1070 C 0.72512 0.8712 0.81066 0.0
C1071 C 0.74655 0.8695 0.83155 0.0
C1072 C 0.70799 0.89178 0.81169 0.0
C1073 C 0.7503 0.88834 0.85373 0.0
C1074 C 0.73347 0.90892 0.85482 0.0
C1075 C 0.69615 0.93225 0.83436 0.0
C1076 C 0.67525 0.93461 0.81317 0.0
C1077 C 0.71246 0.911 0.8338 0.0
C1078 C 0.67042 0.91494 0.79164 0.0
C1079 C 0.6867 0.89375 0.79085 0.0
H1080 H 0.63944 0.50824 0.9601 0.0
H1081 H 0.61129 0.51571 0.04265 0.0
H1082 H 0.65732 0.54883 0.05413 0.0
H1083 H 0.70355 0.57868 0.03955 0.0
H1084 H 0.73177 0.57253 0.95673 0.0
H1085 H 0.68778 0.53566 0.94657 0.0
C1086 C 0.64351 0.51706 0.98062 0.0
C1087 C 0.62199 0.50969 0.00045 0.0
C1088 C 0.66992 0.53636 0.98698 0.0
C1089 C 0.62762 0.52088 0.0271 0.0
C1090 C 0.65384 0.53995 0.03362 0.0
C1091 C 0.70026 0.56911 0.01934 0.0
C1092 C 0.72074 0.57861 -0.00118 0.0
C1093 C 0.67487 0.54826 0.01356 0.0
C1094 C 0.7163 0.56569 0.97287 0.0
C1095 C 0.69109 0.54471 0.967 0.0
H1096 H 0.20502 0.67732 0.23685 0.0
H1097 H 0.28368 0.64763 0.25662 0.0
H1098 H 0.25519 0.60103 0.27316 0.0
H1099 H 0.2078 0.56852 0.28193 0.0
H1100 H 0.1294 0.59781 0.25958 0.0
H1101 H 0.158 0.64439 0.24356 0.0
C1102 C 0.216 0.66057 0.24438 0.0
C1103 C 0.24649 0.66616 0.24557 0.0
C1104 C 0.19952 0.63361 0.25334 0.0
C1105 C 0.26025 0.64422 0.25591 0.0
C1106 C 0.24397 0.61743 0.2652 0.0
C1107 C 0.19699 0.58509 0.27352 0.0
C1108 C 0.1665 0.57963 0.27205 0.0
C1109 C 0.21358 0.6119 0.26407 0.0
C1110 C 0.15284 0.60131 0.26092 0.0
C1111 C 0.16916 0.62805 0.25179 0.0
H1112 H 0.93443 0.54579 0.02365 0.0
H1113 H 0.89433 0.5257 0.10274 0.0
H1114 H 0.86485 0.56124 0.09232 0.0
H1115 H 0.84801 0.5957 0.05942 0.0
H1116 H 0.8858 0.61312 0.97911 0.0
H1117 H 0.91854 0.58099 0.99132 0.0
C1118 C 0.91911 0.54901 0.03856 0.0
C1119 C 0.91658 0.53292 0.0639 0.0
C1120 C 0.90179 0.56908 0.03222 0.0
C1121 C 0.89701 0.53792 0.08319 0.0
C1122 C 0.87999 0.55816 0.07719 0.0
C1123 C 0.86377 0.59284 0.04479 0.0
C1124 C 0.86454 0.60682 0.01843 0.0
C1125 C 0.88197 0.57365 0.05164 0.0
C1126 C 0.88478 0.60259 -0.00046 0.0
C1127 C 0.90343 0.58414 0.00646 0.0
H1128 H 0.10138 0.00096 0.0278 0.0
H1129 H 0.11926 0.06037 0.95739 0.0
H1130 H 0.15885 0.03829 0.94505 0.0
H1131 H 0.18692 0.00081 0.95321 0.0
H1132 H 0.16928 0.94132 0.02381 0.0
H1133 H 0.13101 0.96457 0.03711 0.0
C1134 C 0.11407 0.00905 0.00983 0.0
C1135 C 0.10721 0.03189 0.9932 0.0
C1136 C 0.13666 0.99611 0.00282 0.0
C1137 C 0.12401 0.04257 0.97023 0.0
C1138 C 0.14656 0.02992 0.96318 0.0
C1139 C 0.17474 0.99291 0.97153 0.0
C1140 C 0.18086 0.96918 0.98737 0.0
C1141 C 0.15282 0.00643 0.9791 0.0
C1142 C 0.16499 0.95945 0.01118 0.0
C1143 C 0.14309 0.97275 0.01882 0.0
loop_
_geom_bond_atom_site_label_1
_geom_bond_atom_site_label_2
_geom_bond_distance
_geom_bond_site_symmetry_2
_ccdc_geom_bond_type
H0 C7 0.929 . S
H1 C10 0.930 . S
H2 C12 0.929 . S
H3 C4 0.969 . S
C4 H3 0.969 . S
C4 O5 1.550 . S
C4 H6 0.973 . S
O5 C4 1.550 . S
O5 C11 1.412 . S
H6 C4 0.973 . S
C7 H0 0.929 . S
C7 C8 1.400 . S
C7 C9 1.364 . S
C8 C7 1.400 . S
C8 C12 1.377 . S
C9 C7 1.364 . S
C9 C10 1.374 . S
C10 H1 0.930 . S
C10 C9 1.374 . S
C10 C11 1.383 . S
C11 O5 1.412 . S
C11 C10 1.383 . S
C11 C12 1.394 . S
C12 H2 0.929 . S
C12 C8 1.377 . S
C12 C11 1.394 . S
H13 C20 0.929 . S
H14 C23 0.930 . S
H15 C25 0.929 . S
H16 C17 0.969 . S
C17 H16 0.969 . S
C17 O18 1.550 . S
C17 H19 0.973 . S
O18 C17 1.550 . S
O18 C24 1.412 . S
H19 C17 0.973 . S
C20 H13 0.929 . S
C20 C21 1.400 . S
C20 C22 1.364 . S
C21 C20 1.400 . S
C21 C25 1.377 . S
C22 C20 1.364 . S
C22 C23 1.374 . S
C23 H14 0.930 . S
C23 C22 1.374 . S
C23 C24 1.383 . S
C24 O18 1.412 . S
C24 C23 1.383 . S
C24 C25 1.394 . S
C25 H15 0.929 . S
C25 C21 1.377 . S
C25 C24 1.394 . S
H26 C33 0.929 . S
H27 C36 0.930 . S
H28 C38 0.929 . S
H29 C30 0.969 . S
C30 H29 0.969 . S
C30 O31 1.550 . S
C30 H32 0.973 . S
O31 C30 1.550 . S
O31 C37 1.412 . S
H32 C30 0.973 . S
C33 H26 0.929 . S
C33 C34 1.400 . S
C33 C35 1.364 . S
C34 C33 1.400 . S
C34 C38 1.377 . S
C35 C33 1.364 . S
C35 C36 1.374 . S
C36 H27 0.930 . S
C36 C35 1.374 . S
C36 C37 1.383 . S
C37 O31 1.412 . S
C37 C36 1.383 . S
C37 C38 1.394 . S
C38 H28 0.929 . S
C38 C34 1.377 . S
C38 C37 1.394 . S
H39 C46 0.929 . S
H40 C49 0.930 . S
H41 C51 0.929 . S
H42 C43 0.969 . S
C43 H42 0.969 . S
C43 O44 1.550 . S
C43 H45 0.973 . S
O44 C43 1.550 . S
O44 C50 1.412 . S
H45 C43 0.973 . S
C46 H39 0.929 . S
C46 C47 1.400 . S
C46 C48 1.364 . S
C47 C46 1.400 . S
C47 C51 1.377 . S
C48 C46 1.364 . S
C48 C49 1.374 . S
C49 H40 0.930 . S
C49 C48 1.374 . S
C49 C50 1.383 . S
C50 O44 1.412 . S
C50 C49 1.383 . S
C50 C51 1.394 . S
C51 H41 0.929 . S
C51 C47 1.377 . S
C51 C50 1.394 . S
H52 C59 0.929 . S
H53 C62 0.930 . S
H54 C64 0.929 1_545 S
H55 C56 0.969 . S
C56 H55 0.969 . S
C56 O57 1.550 . S
C56 H58 0.973 . S
O57 C56 1.550 . S
O57 C63 1.412 . S
H58 C56 0.973 . S
C59 H52 0.929 . S
C59 C60 1.400 . S
C59 C61 1.364 . S
C60 C59 1.400 . S
C60 C64 1.377 . S
C61 C59 1.364 . S
C61 C62 1.374 . S
C62 H53 0.930 . S
C62 C61 1.374 . S
C62 C63 1.383 . S
C63 O57 1.412 . S
C63 C62 1.383 . S
C63 C64 1.394 . S
C64 H54 0.929 1_565 S
C64 C60 1.377 . S
C64 C63 1.394 . S
H65 C72 0.929 . S
H66 C75 0.930 . S
H67 C77 0.929 . S
H68 C69 0.969 . S
C69 H68 0.969 . S
C69 O70 1.550 . S
C69 H71 0.973 . S
O70 C69 1.550 . S
O70 C76 1.412 . S
H71 C69 0.973 . S
C72 H65 0.929 . S
C72 C73 1.400 . S
C72 C74 1.364 . S
C73 C72 1.400 . S
C73 C77 1.377 . S
C74 C72 1.364 . S
C74 C75 1.374 . S
C75 H66 0.930 . S
C75 C74 1.374 . S
C75 C76 1.383 . S
C76 O70 1.412 . S
C76 C75 1.383 . S
C76 C77 1.394 . S
C77 H67 0.929 . S
C77 C73 1.377 . S
C77 C76 1.394 . S
H78 C85 0.929 . S
H79 C88 0.930 . S
H80 C90 0.929 . S
H81 C82 0.969 . S
C82 H81 0.969 . S
C82 O83 1.550 . S
C82 H84 0.973 . S
O83 C82 1.550 . S
O83 C89 1.412 . S
H84 C82 0.973 . S
C85 H78 0.929 . S
C85 C86 1.400 . S
C85 C87 1.364 . S
C86 C85 1.400 . S
C86 C90 1.377 . S
C87 C85 1.364 . S
C87 C88 1.374 . S
C88 H79 0.930 . S
C88 C87 1.374 . S
C88 C89 1.383 . S
C89 O83 1.412 . S
C89 C88 1.383 . S
C89 C90 1.394 . S
C90 H80 0.929 . S
C90 C86 1.377 . S
C90 C89 1.394 . S
H91 C98 0.929 . S
H92 C101 0.930 . S
H93 C103 0.929 . S
H94 C95 0.969 . S
C95 H94 0.969 . S
C95 O96 1.550 . S
C95 H97 0.973 . S
O96 C95 1.550 . S
O96 C102 1.412 . S
H97 C95 0.973 . S
C98 H91 0.929 . S
C98 C99 1.400 . S
C98 C100 1.364 . S
C99 C98 1.400 . S
C99 C103 1.377 . S
C100 C98 1.364 . S
C100 C101 1.374 . S
C101 H92 0.930 . S
C101 C100 1.374 . S
C101 C102 1.383 . S
C102 O96 1.412 . S
C102 C101 1.383 . S
C102 C103 1.394 . S
C103 H93 0.929 . S
C103 C99 1.377 . S
C103 C102 1.394 . S
H104 C111 0.929 . S
H105 C114 0.930 . S
H106 C116 0.929 . S
H107 C108 0.969 . S
C108 H107 0.969 . S
C108 O109 1.550 . S
C108 H110 0.973 . S
O109 C108 1.550 . S
O109 C115 1.412 . S
H110 C108 0.973 . S
C111 H104 0.929 . S
C111 C112 1.400 . S
C111 C113 1.364 . S
C112 C111 1.400 . S
C112 C116 1.377 . S
C113 C111 1.364 . S
C113 C114 1.374 . S
C114 H105 0.930 . S
C114 C113 1.374 . S
C114 C115 1.383 . S
C115 O109 1.412 . S
C115 C114 1.383 . S
C115 C116 1.394 . S
C116 H106 0.929 . S
C116 C112 1.377 . S
C116 C115 1.394 . S
H117 C124 0.929 . S
H118 C127 0.930 . S
H119 C129 0.929 . S
H120 C121 0.969 . S
C121 H120 0.969 . S
C121 O122 1.550 . S
C121 H123 0.973 . S
O122 C121 1.550 . S
O122 C128 1.412 . S
H123 C121 0.973 . S
C124 H117 0.929 . S
C124 C125 1.400 . S
C124 C126 1.364 . S
C125 C124 1.400 . S
C125 C129 1.377 . S
C126 C124 1.364 . S
C126 C127 1.374 . S
C127 H118 0.930 . S
C127 C126 1.374 . S
C127 C128 1.383 . S
C128 O122 1.412 . S
C128 C127 1.383 . S
C128 C129 1.394 . S
C129 H119 0.929 . S
C129 C125 1.377 . S
C129 C128 1.394 . S
H130 C137 0.929 . S
H131 C140 0.930 . S
H132 C142 0.929 . S
H133 C134 0.969 . S
C134 H133 0.969 . S
C134 O135 1.550 . S
C134 H136 0.973 . S
O135 C134 1.550 . S
O135 C141 1.412 . S
H136 C134 0.973 . S
C137 H130 0.929 . S
C137 C138 1.400 . S
C137 C139 1.364 . S
C138 C137 1.400 . S
C138 C142 1.377 . S
C139 C137 1.364 . S
C139 C140 1.374 . S
C140 H131 0.930 . S
C140 C139 1.374 . S
C140 C141 1.383 . S
C141 O135 1.412 . S
C141 C140 1.383 . S
C141 C142 1.394 . S
C142 H132 0.929 . S
C142 C138 1.377 . S
C142 C141 1.394 . S
H143 C150 0.929 . S
H144 C153 0.930 . S
H145 C155 0.929 . S
H146 C147 0.969 . S
C147 H146 0.969 . S
C147 O148 1.550 . S
C147 H149 0.973 . S
O148 C147 1.550 . S
O148 C154 1.412 . S
H149 C147 0.973 . S
C150 H143 0.929 . S
C150 C151 1.400 . S
C150 C152 1.364 . S
C151 C150 1.400 . S
C151 C155 1.377 . S
C152 C150 1.364 . S
C152 C153 1.374 . S
C153 H144 0.930 . S
C153 C152 1.374 . S
C153 C154 1.383 . S
C154 O148 1.412 . S
C154 C153 1.383 . S
C154 C155 1.394 . S
C155 H145 0.929 . S
C155 C151 1.377 . S
C155 C154 1.394 . S
H156 C163 0.929 . S
H157 C166 0.930 . S
H158 C168 0.929 . S
H159 C160 0.969 . S
C160 H159 0.969 . S
C160 O161 1.550 . S
C160 H162 0.973 . S
O161 C160 1.550 . S
O161 C167 1.412 . S
H162 C160 0.973 . S
C163 H156 0.929 . S
C163 C164 1.400 . S
C163 C165 1.364 . S
C164 C163 1.400 . S
C164 C168 1.377 . S
C165 C163 1.364 . S
C165 C166 1.374 . S
C166 H157 0.930 . S
C166 C165 1.374 . S
C166 C167 1.383 . S
C167 O161 1.412 . S
C167 C166 1.383 . S
C167 C168 1.394 . S
C168 H158 0.929 . S
C168 C164 1.377 . S
C168 C167 1.394 . S
H169 C176 0.929 . S
H170 C179 0.930 . S
H171 C181 0.929 . S
H172 C173 0.969 . S
C173 H172 0.969 . S
C173 O174 1.550 . S
C173 H175 0.973 . S
O174 C173 1.550 . S
O174 C180 1.412 . S
H175 C173 0.973 . S
C176 H169 0.929 . S
C176 C177 1.400 . S
C176 C178 1.364 . S
C177 C176 1.400 . S
C177 C181 1.377 . S
C178 C176 1.364 . S
C178 C179 1.374 . S
C179 H170 0.930 . S
C179 C178 1.374 . S
C179 C180 1.383 . S
C180 O174 1.412 . S
C180 C179 1.383 . S
C180 C181 1.394 . S
C181 H171 0.929 . S
C181 C177 1.377 . S
C181 C180 1.394 . S
H182 C189 0.929 . S
H183 C192 0.930 . S
H184 C194 0.929 . S
H185 C186 0.969 . S
C186 H185 0.969 . S
C186 O187 1.550 . S
C186 H188 0.973 . S
O187 C186 1.550 . S
O187 C193 1.412 . S
H188 C186 0.973 . S
C189 H182 0.929 . S
C189 C190 1.400 . S
C189 C191 1.364 . S
C190 C189 1.400 . S
C190 C194 1.377 . S
C191 C189 1.364 . S
C191 C192 1.374 . S
C192 H183 0.930 . S
C192 C191 1.374 . S
C192 C193 1.383 . S
C193 O187 1.412 . S
C193 C192 1.383 . S
C193 C194 1.394 . S
C194 H184 0.929 . S
C194 C190 1.377 . S
C194 C193 1.394 . S
H195 C202 0.929 . S
H196 C205 0.930 . S
H197 C207 0.929 . S
H198 C199 0.969 . S
C199 H198 0.969 . S
C199 O200 1.550 . S
C199 H201 0.973 . S
O200 C199 1.550 . S
O200 C206 1.412 . S
H201 C199 0.973 . S
C202 H195 0.929 . S
C202 C203 1.400 . S
C202 C204 1.364 . S
C203 C202 1.400 . S
C203 C207 1.377 . S
C204 C202 1.364 . S
C204 C205 1.374 . S
C205 H196 0.930 . S
C205 C204 1.374 . S
C205 C206 1.383 . S
C206 O200 1.412 . S
C206 C205 1.383 . S
C206 C207 1.394 . S
C207 H197 0.929 . S
C207 C203 1.377 . S
C207 C206 1.394 . S
O208 Cd209 2.223 1_556 S
O208 C216 1.315 . S
Cd209 O208 2.223 1_554 S
Cd209 O212 2.297 . S
Cd209 O213 2.439 . S
Cd209 O219 2.240 . S
Cd210 O211 2.239 . S
Cd210 O218 2.207 1_554 S
Cd210 O220 2.308 . S
Cd210 O221 2.470 . S
O211 Cd210 2.239 . S
O211 C216 1.279 1_554 S
O212 Cd209 2.297 . S
O212 C214 1.247 . S
O213 Cd209 2.439 . S
O213 C214 1.208 . S
C214 O212 1.247 . S
C214 O213 1.208 . S
C215 O220 1.247 . S
C215 O221 1.208 . S
C216 O208 1.315 . S
C216 O211 1.279 1_556 S
C217 O218 1.315 . S
C217 O219 1.279 1_556 S
O218 Cd210 2.207 1_556 S
O218 C217 1.315 . S
O219 Cd209 2.240 . S
O219 C217 1.279 1_554 S
O220 Cd210 2.308 . S
O220 C215 1.247 . S
O221 Cd210 2.470 . S
O221 C215 1.208 . S
O222 Cd223 2.223 . S
O222 C230 1.315 . S
Cd223 O222 2.223 . S
Cd223 O226 2.297 . S
Cd223 O227 2.439 . S
Cd223 O233 2.240 . S
Cd224 O225 2.240 . S
Cd224 O232 2.223 . S
Cd224 O234 2.297 . S
Cd224 O235 2.439 . S
O225 Cd224 2.240 . S
O225 C230 1.279 . S
O226 Cd223 2.297 . S
O226 C228 1.247 . S
O227 Cd223 2.439 . S
O227 C228 1.208 . S
C228 O226 1.247 . S
C228 O227 1.208 . S
C229 O234 1.247 . S
C229 O235 1.208 . S
C230 O222 1.315 . S
C230 O225 1.279 . S
C231 O232 1.315 . S
C231 O233 1.279 . S
O232 Cd224 2.223 . S
O232 C231 1.315 . S
O233 Cd223 2.240 . S
O233 C231 1.279 . S
O234 Cd224 2.297 . S
O234 C229 1.247 . S
O235 Cd224 2.439 . S
O235 C229 1.208 . S
O236 Cd237 2.223 1_556 S
O236 C244 1.315 . S
Cd237 O236 2.223 1_554 S
Cd237 O240 2.297 . S
Cd237 O241 2.439 . S
Cd237 O247 2.240 . S
Cd238 O239 2.240 . S
Cd238 O246 2.223 1_554 S
Cd238 O248 2.297 . S
Cd238 O249 2.439 . S
O239 Cd238 2.240 . S
O239 C244 1.256 1_554 S
O240 Cd237 2.297 . S
O240 C242 1.247 . S
O241 Cd237 2.439 . S
O241 C242 1.208 . S
C242 O240 1.247 . S
C242 O241 1.208 . S
C243 O248 1.247 . S
C243 O249 1.208 . S
C244 O236 1.315 . S
C244 O239 1.256 1_556 S
C245 O246 1.315 . S
C245 O247 1.279 1_556 S
O246 Cd238 2.223 1_556 S
O246 C245 1.315 . S
O247 Cd237 2.240 . S
O247 C245 1.279 1_554 S
O248 Cd238 2.297 . S
O248 C243 1.247 . S
O249 Cd238 2.439 . S
O249 C243 1.208 . S
O250 Cd251 2.223 . S
O250 C258 1.315 . S
Cd251 O250 2.223 . S
Cd251 O254 2.297 . S
Cd251 O255 2.439 . S
Cd251 O261 2.240 . S
Cd252 O253 2.240 . S
Cd252 O260 2.223 . S
Cd252 O262 2.297 . S
Cd252 O263 2.439 . S
O253 Cd252 2.240 . S
O253 C258 1.279 . S
O254 Cd251 2.297 . S
O254 C256 1.247 . S
O255 Cd251 2.439 . S
O255 C256 1.208 . S
C256 O254 1.247 . S
C256 O255 1.208 . S
C257 O262 1.247 . S
C257 O263 1.208 . S
C258 O250 1.315 . S
C258 O253 1.279 . S
C259 O260 1.315 . S
C259 O261 1.279 . S
O260 Cd252 2.223 . S
O260 C259 1.315 . S
O261 Cd251 2.240 . S
O261 C259 1.279 . S
O262 Cd252 2.297 . S
O262 C257 1.247 . S
O263 Cd252 2.439 . S
O263 C257 1.208 . S
O264 Cd265 2.223 . S
O264 C272 1.315 . S
Cd265 O264 2.223 . S
Cd265 O268 2.297 . S
Cd265 O269 2.439 . S
Cd265 O275 2.240 . S
Cd266 O267 2.240 . S
Cd266 O274 2.223 . S
Cd266 O276 2.297 . S
Cd266 O277 2.439 . S
O267 Cd266 2.240 . S
O267 C272 1.279 . S
O268 Cd265 2.297 . S
O268 C270 1.247 . S
O269 Cd265 2.439 . S
O269 C270 1.208 . S
C270 O268 1.247 . S
C270 O269 1.208 . S
C271 O276 1.247 . S
C271 O277 1.208 . S
C272 O264 1.315 . S
C272 O267 1.279 . S
C273 O274 1.315 . S
C273 O275 1.279 . S
O274 Cd266 2.223 . S
O274 C273 1.315 . S
O275 Cd265 2.240 . S
O275 C273 1.279 . S
O276 Cd266 2.297 . S
O276 C271 1.247 . S
O277 Cd266 2.439 . S
O277 C271 1.208 . S
O278 Cd279 2.223 . S
O278 C286 1.315 . S
Cd279 O278 2.223 . S
Cd279 O282 2.297 . S
Cd279 O283 2.439 . S
Cd279 O289 2.240 . S
Cd280 O281 2.240 . S
Cd280 O288 2.223 . S
Cd280 O290 2.297 . S
Cd280 O291 2.439 . S
O281 Cd280 2.240 . S
O281 C286 1.279 . S
O282 Cd279 2.297 . S
O282 C284 1.247 . S
O283 Cd279 2.439 . S
O283 C284 1.208 . S
C284 O282 1.247 . S
C284 O283 1.208 . S
C285 O290 1.247 . S
C285 O291 1.208 . S
C286 O278 1.315 . S
C286 O281 1.279 . S
C287 O288 1.315 . S
C287 O289 1.279 . S
O288 Cd280 2.223 . S
O288 C287 1.315 . S
O289 Cd279 2.240 . S
O289 C287 1.279 . S
O290 Cd280 2.297 . S
O290 C285 1.247 . S
O291 Cd280 2.439 . S
O291 C285 1.208 . S
O292 Cd293 2.223 . S
O292 C300 1.315 . S
Cd293 O292 2.223 . S
Cd293 O296 2.297 . S
Cd293 O297 2.439 . S
Cd293 O303 2.240 . S
Cd294 O295 2.240 . S
Cd294 O302 2.223 . S
Cd294 O304 2.297 . S
Cd294 O305 2.439 . S
O295 Cd294 2.240 . S
O295 C300 1.279 . S
O296 Cd293 2.297 . S
O296 C298 1.247 . S
O297 Cd293 2.439 . S
O297 C298 1.208 . S
C298 O296 1.247 . S
C298 O297 1.208 . S
C299 O304 1.247 . S
C299 O305 1.208 . S
C300 O292 1.315 . S
C300 O295 1.279 . S
C301 O302 1.315 . S
C301 O303 1.279 . S
O302 Cd294 2.223 . S
O302 C301 1.315 . S
O303 Cd293 2.240 . S
O303 C301 1.279 . S
O304 Cd294 2.297 . S
O304 C299 1.247 . S
O305 Cd294 2.439 . S
O305 C299 1.208 . S
O306 Cd307 2.223 1_545 S
O306 C314 1.315 . S
Cd307 O306 2.223 1_565 S
Cd307 O310 2.297 . S
Cd307 O311 2.439 . S
Cd307 O317 2.240 1_565 S
Cd308 O309 2.240 . S
Cd308 O316 2.223 . S
Cd308 O318 2.297 . S
Cd308 O319 2.439 1_545 S
O309 Cd308 2.240 . S
O309 C314 1.279 . S
O310 Cd307 2.297 . S
O310 C312 1.247 . S
O311 Cd307 2.439 . S
O311 C312 1.208 . S
C312 O310 1.247 . S
C312 O311 1.208 . S
C313 O318 1.247 1_565 S
C313 O319 1.208 . S
C314 O306 1.315 . S
C314 O309 1.279 . S
C315 O316 1.315 . S
C315 O317 1.279 . S
O316 Cd308 2.223 . S
O316 C315 1.315 . S
O317 Cd307 2.240 1_545 S
O317 C315 1.279 . S
O318 Cd308 2.297 . S
O318 C313 1.247 1_545 S
O319 Cd308 2.439 1_565 S
O319 C313 1.208 . S
O320 Cd321 2.223 . S
O320 C328 1.315 . S
Cd321 O320 2.223 . S
Cd321 O324 2.297 . S
Cd321 O325 2.439 1_655 S
Cd321 O331 2.240 . S
Cd322 O323 2.240 . S
Cd322 O330 2.223 1_455 S
Cd322 O332 2.297 . S
Cd322 O333 2.439 . S
O323 Cd322 2.240 . S
O323 C328 1.279 1_455 S
O324 Cd321 2.297 . S
O324 C326 1.247 1_655 S
O325 Cd321 2.439 1_455 S
O325 C326 1.208 . S
C326 O324 1.247 1_455 S
C326 O325 1.208 . S
C327 O332 1.247 . S
C327 O333 1.208 . S
C328 O320 1.315 . S
C328 O323 1.279 1_655 S
C329 O330 1.315 . S
C329 O331 1.279 . S
O330 Cd322 2.223 1_655 S
O330 C329 1.315 . S
O331 Cd321 2.240 . S
O331 C329 1.279 . S
O332 Cd322 2.297 . S
O332 C327 1.247 . S
O333 Cd322 2.439 . S
O333 C327 1.208 . S
O334 Cd335 2.223 . S
O334 C342 1.315 . S
Cd335 O334 2.223 . S
Cd335 O338 2.297 . S
Cd335 O339 2.439 . S
Cd335 O345 2.240 . S
Cd336 O337 2.240 . S
Cd336 O344 2.223 . S
Cd336 O346 2.297 . S
Cd336 O347 2.439 . S
O337 Cd336 2.240 . S
O337 C342 1.279 . S
O338 Cd335 2.297 . S
O338 C340 1.247 . S
O339 Cd335 2.439 . S
O339 C340 1.208 . S
C340 O338 1.247 . S
C340 O339 1.208 . S
C341 O346 1.247 . S
C341 O347 1.208 . S
C342 O334 1.315 . S
C342 O337 1.279 . S
C343 O344 1.315 . S
C343 O345 1.279 . S
O344 Cd336 2.223 . S
O344 C343 1.315 . S
O345 Cd335 2.240 . S
O345 C343 1.279 . S
O346 Cd336 2.297 . S
O346 C341 1.247 . S
O347 Cd336 2.439 . S
O347 C341 1.208 . S
O348 Cd349 2.223 1_655 S
O348 C356 1.315 . S
Cd349 O348 2.223 1_455 S
Cd349 O352 2.297 . S
Cd349 O353 2.439 . S
Cd349 O359 2.240 . S
Cd350 O351 2.239 . S
Cd350 O358 2.223 1_455 S
Cd350 O360 2.297 . S
Cd350 O361 2.439 . S
O351 Cd350 2.239 . S
O351 C356 1.266 1_455 S
O352 Cd349 2.297 . S
O352 C354 1.247 . S
O353 Cd349 2.439 . S
O353 C354 1.208 . S
C354 O352 1.247 . S
C354 O353 1.208 . S
C355 O360 1.247 . S
C355 O361 1.208 . S
C356 O348 1.315 . S
C356 O351 1.266 1_655 S
C357 O358 1.315 . S
C357 O359 1.279 1_655 S
O358 Cd350 2.223 1_655 S
O358 C357 1.315 . S
O359 Cd349 2.240 . S
O359 C357 1.279 1_455 S
O360 Cd350 2.297 . S
O360 C355 1.247 . S
O361 Cd350 2.439 . S
O361 C355 1.208 . S
O362 Cd363 2.223 . S
O362 C370 1.315 . S
Cd363 O362 2.223 . S
Cd363 O366 2.297 . S
Cd363 O367 2.439 . S
Cd363 O373 2.240 . S
Cd364 O365 2.240 . S
Cd364 O372 2.223 . S
Cd364 O374 2.297 . S
Cd364 O375 2.439 . S
O365 Cd364 2.240 . S
O365 C370 1.279 . S
O366 Cd363 2.297 . S
O366 C368 1.247 . S
O367 Cd363 2.439 . S
O367 C368 1.208 . S
C368 O366 1.247 . S
C368 O367 1.208 . S
C369 O374 1.247 . S
C369 O375 1.208 . S
C370 O362 1.315 . S
C370 O365 1.279 . S
C371 O372 1.315 . S
C371 O373 1.279 . S
O372 Cd364 2.223 . S
O372 C371 1.315 . S
O373 Cd363 2.240 . S
O373 C371 1.279 . S
O374 Cd364 2.297 . S
O374 C369 1.247 . S
O375 Cd364 2.439 . S
O375 C369 1.208 . S
H376 C382 0.930 . S
H377 C385 0.930 . S
H378 C386 0.930 . S
H379 C387 0.930 . S
H380 C390 0.930 . S
H381 C391 0.930 . S
C382 H376 0.930 . S
C382 C383 1.355 . S
C382 C384 1.415 . S
C383 C382 1.355 . S
C383 C385 1.419 . S
C384 C382 1.415 . S
C384 C389 1.425 . S
C384 C391 1.409 . S
C385 H377 0.930 . S
C385 C383 1.419 . S
C385 C386 1.362 . S
C386 H378 0.930 . S
C386 C385 1.362 . S
C386 C389 1.409 . S
C387 H379 0.930 . S
C387 C388 1.355 . S
C387 C389 1.415 . S
C388 C387 1.355 . S
C388 C390 1.419 . S
C389 C384 1.425 . S
C389 C386 1.409 . S
C389 C387 1.415 . S
C390 H380 0.930 . S
C390 C388 1.419 . S
C390 C391 1.362 . S
C391 H381 0.930 . S
C391 C384 1.409 . S
C391 C390 1.362 . S
H392 C398 0.930 . S
H393 C401 0.930 . S
H394 C402 0.930 . S
H395 C403 0.930 . S
H396 C406 0.930 . S
H397 C407 0.930 1_655 S
C398 H392 0.930 . S
C398 C399 1.350 . S
C398 C400 1.415 1_655 S
C399 C398 1.350 . S
C399 C401 1.389 1_655 S
C400 C398 1.415 1_455 S
C400 C405 1.425 . S
C400 C407 1.409 . S
C401 H393 0.930 . S
C401 C399 1.389 1_455 S
C401 C402 1.362 . S
C402 H394 0.930 . S
C402 C401 1.362 . S
C402 C405 1.409 . S
C403 H395 0.930 . S
C403 C404 1.355 . S
C403 C405 1.415 . S
C404 C403 1.355 . S
C404 C406 1.419 . S
C405 C400 1.425 . S
C405 C402 1.409 . S
C405 C403 1.415 . S
C406 H396 0.930 . S
C406 C404 1.419 . S
C406 C407 1.362 . S
C407 H397 0.930 1_455 S
C407 C400 1.409 . S
C407 C406 1.362 . S
H408 C414 0.930 . S
H409 C417 0.930 . S
H410 C418 0.930 . S
H411 C419 0.930 . S
H412 C422 0.930 . S
H413 C423 0.930 . S
C414 H408 0.930 . S
C414 C415 1.355 . S
C414 C416 1.415 . S
C415 C414 1.355 . S
C415 C417 1.419 . S
C416 C414 1.415 . S
C416 C421 1.425 . S
C416 C423 1.409 . S
C417 H409 0.930 . S
C417 C415 1.419 . S
C417 C418 1.362 . S
C418 H410 0.930 . S
C418 C417 1.362 . S
C418 C421 1.409 . S
C419 H411 0.930 . S
C419 C420 1.355 . S
C419 C421 1.415 . S
C420 C419 1.355 . S
C420 C422 1.419 . S
C421 C416 1.425 . S
C421 C418 1.409 . S
C421 C419 1.415 . S
C422 H412 0.930 . S
C422 C420 1.419 . S
C422 C423 1.362 . S
C423 H413 0.930 . S
C423 C416 1.409 . S
C423 C422 1.362 . S
H424 C430 0.930 . S
H425 C433 0.930 . S
H426 C434 0.930 . S
H427 C435 0.930 . S
H428 C438 0.930 . S
H429 C439 0.930 . S
C430 H424 0.930 . S
C430 C431 1.355 1_655 S
C430 C432 1.415 . S
C431 C430 1.355 1_455 S
C431 C433 1.419 1_565 S
C432 C430 1.415 . S
C432 C437 1.425 1_565 S
C432 C439 1.409 . S
C433 H425 0.930 . S
C433 C431 1.419 1_545 S
C433 C434 1.362 . S
C434 H426 0.930 . S
C434 C433 1.362 . S
C434 C437 1.409 1_455 S
C435 H427 0.930 . S
C435 C436 1.355 . S
C435 C437 1.415 . S
C436 C435 1.355 . S
C436 C438 1.419 1_545 S
C437 C432 1.425 1_545 S
C437 C434 1.409 1_655 S
C437 C435 1.415 . S
C438 H428 0.930 . S
C438 C436 1.419 1_565 S
C438 C439 1.362 . S
C439 H429 0.930 . S
C439 C432 1.409 . S
C439 C438 1.362 . S
H440 C446 0.930 . S
H441 C449 0.930 . S
H442 C450 0.930 . S
H443 C451 0.930 . S
H444 C454 0.930 . S
H445 C455 0.930 . S
C446 H440 0.930 . S
C446 C447 1.355 . S
C446 C448 1.415 . S
C447 C446 1.355 . S
C447 C449 1.419 . S
C448 C446 1.415 . S
C448 C453 1.425 . S
C448 C455 1.409 . S
C449 H441 0.930 . S
C449 C447 1.419 . S
C449 C450 1.362 . S
C450 H442 0.930 . S
C450 C449 1.362 . S
C450 C453 1.409 . S
C451 H443 0.930 . S
C451 C452 1.355 . S
C451 C453 1.415 . S
C452 C451 1.355 . S
C452 C454 1.419 . S
C453 C448 1.425 . S
C453 C450 1.409 . S
C453 C451 1.415 . S
C454 H444 0.930 . S
C454 C452 1.419 . S
C454 C455 1.362 . S
C455 H445 0.930 . S
C455 C448 1.409 . S
C455 C454 1.362 . S
H456 C462 0.930 . S
H457 C465 0.930 . S
H458 C466 0.930 . S
H459 C467 0.930 . S
H460 C470 0.930 . S
H461 C471 0.930 . S
C462 H456 0.930 . S
C462 C463 1.355 . S
C462 C464 1.415 . S
C463 C462 1.355 . S
C463 C465 1.419 . S
C464 C462 1.415 . S
C464 C469 1.425 . S
C464 C471 1.409 . S
C465 H457 0.930 . S
C465 C463 1.419 . S
C465 C466 1.362 . S
C466 H458 0.930 . S
C466 C465 1.362 . S
C466 C469 1.409 . S
C467 H459 0.930 . S
C467 C468 1.355 . S
C467 C469 1.415 . S
C468 C467 1.355 . S
C468 C470 1.419 . S
C469 C464 1.425 . S
C469 C466 1.409 . S
C469 C467 1.415 . S
C470 H460 0.930 . S
C470 C468 1.419 . S
C470 C471 1.362 . S
C471 H461 0.930 . S
C471 C464 1.409 . S
C471 C470 1.362 . S
H472 C478 0.930 . S
H473 C481 0.930 . S
H474 C482 0.930 . S
H475 C483 0.930 . S
H476 C486 0.930 . S
H477 C487 0.930 . S
C478 H472 0.930 . S
C478 C479 1.355 . S
C478 C480 1.415 . S
C479 C478 1.355 . S
C479 C481 1.419 . S
C480 C478 1.415 . S
C480 C485 1.425 . S
C480 C487 1.409 . S
C481 H473 0.930 . S
C481 C479 1.419 . S
C481 C482 1.362 . S
C482 H474 0.930 . S
C482 C481 1.362 . S
C482 C485 1.409 . S
C483 H475 0.930 . S
C483 C484 1.355 . S
C483 C485 1.415 . S
C484 C483 1.355 . S
C484 C486 1.419 . S
C485 C480 1.425 . S
C485 C482 1.409 . S
C485 C483 1.415 . S
C486 H476 0.930 . S
C486 C484 1.419 . S
C486 C487 1.362 . S
C487 H477 0.930 . S
C487 C480 1.409 . S
C487 C486 1.362 . S
H488 C494 0.930 . S
H489 C497 0.930 . S
H490 C498 0.930 . S
H491 C499 0.930 . S
H492 C502 0.930 . S
H493 C503 0.930 . S
C494 H488 0.930 . S
C494 C495 1.355 . S
C494 C496 1.415 . S
C495 C494 1.355 . S
C495 C497 1.419 . S
C496 C494 1.415 . S
C496 C501 1.425 . S
C496 C503 1.409 . S
C497 H489 0.930 . S
C497 C495 1.419 . S
C497 C498 1.362 . S
C498 H490 0.930 . S
C498 C497 1.362 . S
C498 C501 1.409 . S
C499 H491 0.930 . S
C499 C500 1.355 . S
C499 C501 1.415 . S
C500 C499 1.355 . S
C500 C502 1.419 . S
C501 C496 1.425 . S
C501 C498 1.409 . S
C501 C499 1.415 . S
C502 H492 0.930 . S
C502 C500 1.419 . S
C502 C503 1.362 . S
C503 H493 0.930 . S
C503 C496 1.409 . S
C503 C502 1.362 . S
H504 C510 0.930 . S
H505 C513 0.930 . S
H506 C514 0.930 . S
H507 C515 0.930 . S
H508 C518 0.930 . S
H509 C519 0.930 . S
C510 H504 0.930 . S
C510 C511 1.355 . S
C510 C512 1.415 . S
C511 C510 1.355 . S
C511 C513 1.419 . S
C512 C510 1.415 . S
C512 C517 1.425 . S
C512 C519 1.409 . S
C513 H505 0.930 . S
C513 C511 1.419 . S
C513 C514 1.362 . S
C514 H506 0.930 . S
C514 C513 1.362 . S
C514 C517 1.409 . S
C515 H507 0.930 . S
C515 C516 1.355 . S
C515 C517 1.415 . S
C516 C515 1.355 . S
C516 C518 1.419 . S
C517 C512 1.425 . S
C517 C514 1.409 . S
C517 C515 1.415 . S
C518 H508 0.930 . S
C518 C516 1.419 . S
C518 C519 1.362 . S
C519 H509 0.930 . S
C519 C512 1.409 . S
C519 C518 1.362 . S
H520 C526 0.930 . S
H521 C529 0.930 . S
H522 C530 0.930 . S
H523 C531 0.930 . S
H524 C534 0.930 . S
H525 C535 0.930 . S
C526 H520 0.930 . S
C526 C527 1.355 . S
C526 C528 1.415 . S
C527 C526 1.355 . S
C527 C529 1.419 . S
C528 C526 1.415 . S
C528 C533 1.425 . S
C528 C535 1.409 . S
C529 H521 0.930 . S
C529 C527 1.419 . S
C529 C530 1.362 . S
C530 H522 0.930 . S
C530 C529 1.362 . S
C530 C533 1.409 . S
C531 H523 0.930 . S
C531 C532 1.355 . S
C531 C533 1.415 . S
C532 C531 1.355 . S
C532 C534 1.419 . S
C533 C528 1.425 . S
C533 C530 1.409 . S
C533 C531 1.415 . S
C534 H524 0.930 . S
C534 C532 1.419 . S
C534 C535 1.362 . S
C535 H525 0.930 . S
C535 C528 1.409 . S
C535 C534 1.362 . S
H536 C542 0.930 . S
H537 C545 0.930 . S
H538 C546 0.930 . S
H539 C547 0.930 . S
H540 C550 0.930 . S
H541 C551 0.930 . S
C542 H536 0.930 . S
C542 C543 1.355 . S
C542 C544 1.415 . S
C543 C542 1.355 . S
C543 C545 1.419 . S
C544 C542 1.415 . S
C544 C549 1.425 . S
C544 C551 1.409 . S
C545 H537 0.930 . S
C545 C543 1.419 . S
C545 C546 1.362 . S
C546 H538 0.930 . S
C546 C545 1.362 . S
C546 C549 1.409 . S
C547 H539 0.930 . S
C547 C548 1.355 . S
C547 C549 1.415 . S
C548 C547 1.355 . S
C548 C550 1.419 . S
C549 C544 1.425 . S
C549 C546 1.409 . S
C549 C547 1.415 . S
C550 H540 0.930 . S
C550 C548 1.419 . S
C550 C551 1.362 . S
C551 H541 0.930 . S
C551 C544 1.409 . S
C551 C550 1.362 . S
H552 C558 0.930 . S
H553 C561 0.930 . S
H554 C562 0.930 . S
H555 C563 0.930 . S
H556 C566 0.930 . S
H557 C567 0.930 . S
C558 H552 0.930 . S
C558 C559 1.355 . S
C558 C560 1.415 . S
C559 C558 1.355 . S
C559 C561 1.419 . S
C560 C558 1.415 . S
C560 C565 1.425 . S
C560 C567 1.409 . S
C561 H553 0.930 . S
C561 C559 1.419 . S
C561 C562 1.362 . S
C562 H554 0.930 . S
C562 C561 1.362 . S
C562 C565 1.409 . S
C563 H555 0.930 . S
C563 C564 1.355 . S
C563 C565 1.415 . S
C564 C563 1.355 . S
C564 C566 1.419 . S
C565 C560 1.425 . S
C565 C562 1.409 . S
C565 C563 1.415 . S
C566 H556 0.930 . S
C566 C564 1.419 . S
C566 C567 1.362 . S
C567 H557 0.930 . S
C567 C560 1.409 . S
C567 C566 1.362 . S
H568 C574 0.930 . S
H569 C577 0.930 . S
H570 C578 0.930 . S
H571 C579 0.930 . S
H572 C582 0.930 . S
H573 C583 0.930 . S
C574 H568 0.930 . S
C574 C575 1.355 . S
C574 C576 1.415 . S
C575 C574 1.355 . S
C575 C577 1.419 . S
C576 C574 1.415 . S
C576 C581 1.425 . S
C576 C583 1.409 . S
C577 H569 0.930 . S
C577 C575 1.419 . S
C577 C578 1.362 . S
C578 H570 0.930 . S
C578 C577 1.362 . S
C578 C581 1.409 . S
C579 H571 0.930 . S
C579 C580 1.355 . S
C579 C581 1.415 . S
C580 C579 1.355 . S
C580 C582 1.419 . S
C581 C576 1.425 . S
C581 C578 1.409 . S
C581 C579 1.415 . S
C582 H572 0.930 . S
C582 C580 1.419 . S
C582 C583 1.362 . S
C583 H573 0.930 . S
C583 C576 1.409 . S
C583 C582 1.362 . S
H584 C590 0.930 . S
H585 C593 0.930 . S
H586 C594 0.930 . S
H587 C595 0.930 . S
H588 C598 0.930 . S
H589 C599 0.930 . S
C590 H584 0.930 . S
C590 C591 1.355 . S
C590 C592 1.415 . S
C591 C590 1.355 . S
C591 C593 1.419 . S
C592 C590 1.415 . S
C592 C597 1.425 . S
C592 C599 1.409 . S
C593 H585 0.930 . S
C593 C591 1.419 . S
C593 C594 1.362 . S
C594 H586 0.930 . S
C594 C593 1.362 . S
C594 C597 1.409 . S
C595 H587 0.930 . S
C595 C596 1.355 . S
C595 C597 1.415 . S
C596 C595 1.355 . S
C596 C598 1.419 . S
C597 C592 1.425 . S
C597 C594 1.409 . S
C597 C595 1.415 . S
C598 H588 0.930 . S
C598 C596 1.419 . S
C598 C599 1.362 . S
C599 H589 0.930 . S
C599 C592 1.409 . S
C599 C598 1.362 . S
H600 C606 0.930 . S
H601 C609 0.930 . S
H602 C610 0.930 . S
H603 C611 0.930 . S
H604 C614 0.930 . S
H605 C615 0.930 . S
C606 H600 0.930 . S
C606 C607 1.355 . S
C606 C608 1.415 . S
C607 C606 1.355 . S
C607 C609 1.419 . S
C608 C606 1.415 . S
C608 C613 1.425 . S
C608 C615 1.409 . S
C609 H601 0.930 . S
C609 C607 1.419 . S
C609 C610 1.362 . S
C610 H602 0.930 . S
C610 C609 1.362 . S
C610 C613 1.409 . S
C611 H603 0.930 . S
C611 C612 1.355 . S
C611 C613 1.415 . S
C612 C611 1.355 . S
C612 C614 1.419 . S
C613 C608 1.425 . S
C613 C610 1.409 . S
C613 C611 1.415 . S
C614 H604 0.930 . S
C614 C612 1.419 . S
C614 C615 1.362 . S
C615 H605 0.930 . S
C615 C608 1.409 . S
C615 C614 1.362 . S
H616 C622 0.930 . S
H617 C625 0.930 . S
H618 C626 0.930 . S
H619 C627 0.930 . S
H620 C630 0.930 . S
H621 C631 0.946 . S
C622 H616 0.930 . S
C622 C623 1.355 . S
C622 C624 1.415 . S
C623 C622 1.355 . S
C623 C625 1.419 . S
C624 C622 1.415 . S
C624 C629 1.425 . S
C624 C631 1.396 1_655 S
C625 H617 0.930 . S
C625 C623 1.419 . S
C625 C626 1.362 . S
C626 H618 0.930 . S
C626 C625 1.362 . S
C626 C629 1.409 . S
C627 H619 0.930 . S
C627 C628 1.355 . S
C627 C629 1.415 . S
C628 C627 1.355 . S
C628 C630 1.419 1_655 S
C629 C624 1.425 . S
C629 C626 1.409 . S
C629 C627 1.415 . S
C630 H620 0.930 . S
C630 C628 1.419 1_455 S
C630 C631 1.361 . S
C631 H621 0.946 . S
C631 C624 1.396 1_455 S
C631 C630 1.361 . S
H632 C638 0.930 . S
H633 C641 0.930 . S
H634 C642 0.930 . S
H635 C643 0.930 . S
H636 C646 0.930 1_545 S
H637 C647 0.930 . S
C638 H632 0.930 . S
C638 C639 1.355 . S
C638 C640 1.415 . S
C639 C638 1.355 . S
C639 C641 1.419 . S
C640 C638 1.415 . S
C640 C645 1.425 . S
C640 C647 1.409 . S
C641 H633 0.930 . S
C641 C639 1.419 . S
C641 C642 1.362 . S
C642 H634 0.930 . S
C642 C641 1.362 . S
C642 C645 1.409 . S
C643 H635 0.930 . S
C643 C644 1.355 . S
C643 C645 1.415 . S
C644 C643 1.355 . S
C644 C646 1.419 . S
C645 C640 1.425 . S
C645 C642 1.409 . S
C645 C643 1.415 . S
C646 H636 0.930 1_565 S
C646 C644 1.419 . S
C646 C647 1.362 . S
C647 H637 0.930 . S
C647 C640 1.409 . S
C647 C646 1.362 . S
H648 C654 0.930 . S
H649 C657 0.930 . S
H650 C658 0.930 . S
H651 C659 0.930 . S
H652 C662 0.930 . S
H653 C663 0.930 . S
C654 H648 0.930 . S
C654 C655 1.355 . S
C654 C656 1.415 . S
C655 C654 1.355 . S
C655 C657 1.419 . S
C656 C654 1.415 . S
C656 C661 1.425 . S
C656 C663 1.409 . S
C657 H649 0.930 . S
C657 C655 1.419 . S
C657 C658 1.362 . S
C658 H650 0.930 . S
C658 C657 1.362 . S
C658 C661 1.409 . S
C659 H651 0.930 . S
C659 C660 1.355 . S
C659 C661 1.415 . S
C660 C659 1.355 . S
C660 C662 1.419 . S
C661 C656 1.425 . S
C661 C658 1.409 . S
C661 C659 1.415 . S
C662 H652 0.930 . S
C662 C660 1.419 . S
C662 C663 1.362 . S
C663 H653 0.930 . S
C663 C656 1.409 . S
C663 C662 1.362 . S
H664 C670 0.930 . S
H665 C673 0.930 . S
H666 C674 0.930 . S
H667 C675 0.930 . S
H668 C678 0.930 . S
H669 C679 0.930 1_554 S
C670 H664 0.930 . S
C670 C671 1.355 . S
C670 C672 1.415 . S
C671 C670 1.355 . S
C671 C673 1.419 . S
C672 C670 1.415 . S
C672 C677 1.425 . S
C672 C679 1.409 . S
C673 H665 0.930 . S
C673 C671 1.419 . S
C673 C674 1.362 . S
C674 H666 0.930 . S
C674 C673 1.362 . S
C674 C677 1.409 . S
C675 H667 0.930 . S
C675 C676 1.355 1_545 S
C675 C677 1.415 . S
C676 C675 1.355 1_565 S
C676 C678 1.419 1_556 S
C677 C672 1.425 . S
C677 C674 1.409 . S
C677 C675 1.415 . S
C678 H668 0.930 . S
C678 C676 1.419 1_554 S
C678 C679 1.362 1_564 S
C679 H669 0.930 1_556 S
C679 C672 1.409 . S
C679 C678 1.362 1_546 S
H680 C686 0.930 . S
H681 C689 0.930 . S
H682 C690 0.930 . S
H683 C691 0.930 . S
H684 C694 0.930 . S
H685 C695 0.930 . S
C686 H680 0.930 . S
C686 C687 1.355 . S
C686 C688 1.415 . S
C687 C686 1.355 . S
C687 C689 1.419 . S
C688 C686 1.415 . S
C688 C693 1.425 . S
C688 C695 1.409 . S
C689 H681 0.930 . S
C689 C687 1.419 . S
C689 C690 1.362 . S
C690 H682 0.930 . S
C690 C689 1.362 . S
C690 C693 1.409 . S
C691 H683 0.930 . S
C691 C692 1.355 . S
C691 C693 1.415 . S
C692 C691 1.355 . S
C692 C694 1.419 . S
C693 C688 1.425 . S
C693 C690 1.409 . S
C693 C691 1.415 . S
C694 H684 0.930 . S
C694 C692 1.419 . S
C694 C695 1.362 . S
C695 H685 0.930 . S
C695 C688 1.409 . S
C695 C694 1.362 . S
H696 C702 0.930 1_565 S
H697 C705 0.930 . S
H698 C706 0.930 . S
H699 C707 0.930 . S
H700 C710 0.930 . S
H701 C711 0.930 . S
C702 H696 0.930 1_545 S
C702 C703 1.355 . S
C702 C704 1.415 . S
C703 C702 1.355 . S
C703 C705 1.419 . S
C704 C702 1.415 . S
C704 C709 1.425 . S
C704 C711 1.409 . S
C705 H697 0.930 . S
C705 C703 1.419 . S
C705 C706 1.362 . S
C706 H698 0.930 . S
C706 C705 1.362 . S
C706 C709 1.409 . S
C707 H699 0.930 . S
C707 C708 1.355 . S
C707 C709 1.415 . S
C708 C707 1.355 . S
C708 C710 1.419 . S
C709 C704 1.425 . S
C709 C706 1.409 . S
C709 C707 1.415 . S
C710 H700 0.930 . S
C710 C708 1.419 . S
C710 C711 1.362 . S
C711 H701 0.930 . S
C711 C704 1.409 . S
C711 C710 1.362 . S
H712 C718 0.930 . S
H713 C721 0.930 . S
H714 C722 0.930 . S
H715 C723 0.930 . S
H716 C726 0.930 . S
H717 C727 0.930 . S
C718 H712 0.930 . S
C718 C719 1.355 . S
C718 C720 1.415 . S
C719 C718 1.355 . S
C719 C721 1.419 . S
C720 C718 1.415 . S
C720 C725 1.425 . S
C720 C727 1.409 . S
C721 H713 0.930 . S
C721 C719 1.419 . S
C721 C722 1.362 . S
C722 H714 0.930 . S
C722 C721 1.362 . S
C722 C725 1.409 . S
C723 H715 0.930 . S
C723 C724 1.355 . S
C723 C725 1.415 . S
C724 C723 1.355 . S
C724 C726 1.419 . S
C725 C720 1.425 . S
C725 C722 1.409 . S
C725 C723 1.415 . S
C726 H716 0.930 . S
C726 C724 1.419 . S
C726 C727 1.362 . S
C727 H717 0.930 . S
C727 C720 1.409 . S
C727 C726 1.362 . S
H728 C734 0.930 . S
H729 C737 0.930 . S
H730 C738 0.930 . S
H731 C739 0.930 . S
H732 C742 0.930 . S
H733 C743 0.930 . S
C734 H728 0.930 . S
C734 C735 1.355 . S
C734 C736 1.415 1_565 S
C735 C734 1.355 . S
C735 C737 1.419 . S
C736 C734 1.415 1_545 S
C736 C741 1.425 . S
C736 C743 1.409 . S
C737 H729 0.930 . S
C737 C735 1.419 . S
C737 C738 1.362 . S
C738 H730 0.930 . S
C738 C737 1.362 . S
C738 C741 1.409 1_565 S
C739 H731 0.930 . S
C739 C740 1.355 . S
C739 C741 1.415 . S
C740 C739 1.355 . S
C740 C742 1.419 . S
C741 C736 1.425 . S
C741 C738 1.409 1_545 S
C741 C739 1.415 . S
C742 H732 0.930 . S
C742 C740 1.419 . S
C742 C743 1.362 . S
C743 H733 0.930 . S
C743 C736 1.409 . S
C743 C742 1.362 . S
H744 C750 0.930 . S
H745 C753 0.930 . S
H746 C754 0.930 . S
H747 C755 0.930 . S
H748 C758 0.930 . S
H749 C759 0.930 . S
C750 H744 0.930 . S
C750 C751 1.355 . S
C750 C752 1.415 . S
C751 C750 1.355 . S
C751 C753 1.419 . S
C752 C750 1.415 . S
C752 C757 1.425 . S
C752 C759 1.409 . S
C753 H745 0.930 . S
C753 C751 1.419 . S
C753 C754 1.362 . S
C754 H746 0.930 . S
C754 C753 1.362 . S
C754 C757 1.409 . S
C755 H747 0.930 . S
C755 C756 1.355 . S
C755 C757 1.415 . S
C756 C755 1.355 . S
C756 C758 1.419 . S
C757 C752 1.425 . S
C757 C754 1.409 . S
C757 C755 1.415 . S
C758 H748 0.930 . S
C758 C756 1.419 . S
C758 C759 1.362 . S
C759 H749 0.930 . S
C759 C752 1.409 . S
C759 C758 1.362 . S
H760 C766 0.930 . S
H761 C769 0.930 . S
H762 C770 0.930 . S
H763 C771 0.930 . S
H764 C774 0.930 . S
H765 C775 0.930 . S
C766 H760 0.930 . S
C766 C767 1.355 . S
C766 C768 1.415 . S
C767 C766 1.355 . S
C767 C769 1.419 . S
C768 C766 1.415 . S
C768 C773 1.425 . S
C768 C775 1.409 . S
C769 H761 0.930 . S
C769 C767 1.419 . S
C769 C770 1.362 . S
C770 H762 0.930 . S
C770 C769 1.362 . S
C770 C773 1.409 . S
C771 H763 0.930 . S
C771 C772 1.355 . S
C771 C773 1.415 . S
C772 C771 1.355 . S
C772 C774 1.419 . S
C773 C768 1.425 . S
C773 C770 1.409 . S
C773 C771 1.415 . S
C774 H764 0.930 . S
C774 C772 1.419 . S
C774 C775 1.362 . S
C775 H765 0.930 . S
C775 C768 1.409 . S
C775 C774 1.362 . S
H776 C782 0.930 . S
H777 C785 0.930 . S
H778 C786 0.930 . S
H779 C787 0.930 . S
H780 C790 0.930 . S
H781 C791 0.930 . S
C782 H776 0.930 . S
C782 C783 1.355 . S
C782 C784 1.415 . S
C783 C782 1.355 . S
C783 C785 1.419 . S
C784 C782 1.415 . S
C784 C789 1.425 . S
C784 C791 1.409 . S
C785 H777 0.930 . S
C785 C783 1.419 . S
C785 C786 1.362 . S
C786 H778 0.930 . S
C786 C785 1.362 . S
C786 C789 1.409 . S
C787 H779 0.930 . S
C787 C788 1.355 . S
C787 C789 1.415 . S
C788 C787 1.355 . S
C788 C790 1.419 . S
C789 C784 1.425 . S
C789 C786 1.409 . S
C789 C787 1.415 . S
C790 H780 0.930 . S
C790 C788 1.419 . S
C790 C791 1.362 . S
C791 H781 0.930 . S
C791 C784 1.409 . S
C791 C790 1.362 . S
H792 C798 0.930 . S
H793 C801 0.930 . S
H794 C802 0.930 . S
H795 C803 0.930 . S
H796 C806 0.930 . S
H797 C807 0.930 . S
C798 H792 0.930 . S
C798 C799 1.355 . S
C798 C800 1.415 . S
C799 C798 1.355 . S
C799 C801 1.419 . S
C800 C798 1.415 . S
C800 C805 1.425 . S
C800 C807 1.409 . S
C801 H793 0.930 . S
C801 C799 1.419 . S
C801 C802 1.362 . S
C802 H794 0.930 . S
C802 C801 1.362 . S
C802 C805 1.409 . S
C803 H795 0.930 . S
C803 C804 1.355 . S
C803 C805 1.415 . S
C804 C803 1.355 . S
C804 C806 1.419 . S
C805 C800 1.425 . S
C805 C802 1.409 . S
C805 C803 1.415 . S
C806 H796 0.930 . S
C806 C804 1.419 . S
C806 C807 1.362 . S
C807 H797 0.930 . S
C807 C800 1.409 . S
C807 C806 1.362 . S
H808 C814 0.930 . S
H809 C817 0.930 . S
H810 C818 0.930 . S
H811 C819 0.930 . S
H812 C822 0.930 . S
H813 C823 0.930 . S
C814 H808 0.930 . S
C814 C815 1.355 . S
C814 C816 1.415 . S
C815 C814 1.355 . S
C815 C817 1.419 . S
C816 C814 1.415 . S
C816 C821 1.425 . S
C816 C823 1.409 . S
C817 H809 0.930 . S
C817 C815 1.419 . S
C817 C818 1.362 . S
C818 H810 0.930 . S
C818 C817 1.362 . S
C818 C821 1.409 . S
C819 H811 0.930 . S
C819 C820 1.355 . S
C819 C821 1.415 . S
C820 C819 1.355 . S
C820 C822 1.419 . S
C821 C816 1.425 . S
C821 C818 1.409 . S
C821 C819 1.415 . S
C822 H812 0.930 . S
C822 C820 1.419 . S
C822 C823 1.362 . S
C823 H813 0.930 . S
C823 C816 1.409 . S
C823 C822 1.362 . S
H824 C830 0.930 . S
H825 C833 0.930 . S
H826 C834 0.930 . S
H827 C835 0.930 . S
H828 C838 0.930 . S
H829 C839 0.930 . S
C830 H824 0.930 . S
C830 C831 1.355 . S
C830 C832 1.415 . S
C831 C830 1.355 . S
C831 C833 1.419 . S
C832 C830 1.415 . S
C832 C837 1.425 . S
C832 C839 1.409 . S
C833 H825 0.930 . S
C833 C831 1.419 . S
C833 C834 1.362 . S
C834 H826 0.930 . S
C834 C833 1.362 . S
C834 C837 1.409 . S
C835 H827 0.930 . S
C835 C836 1.355 . S
C835 C837 1.415 . S
C836 C835 1.355 . S
C836 C838 1.419 . S
C837 C832 1.425 . S
C837 C834 1.409 . S
C837 C835 1.415 . S
C838 H828 0.930 . S
C838 C836 1.419 . S
C838 C839 1.362 . S
C839 H829 0.930 . S
C839 C832 1.409 . S
C839 C838 1.362 . S
H840 C846 0.930 . S
H841 C849 0.930 . S
H842 C850 0.906 1_655 S
H843 C851 0.930 . S
H844 C854 0.930 1_655 S
H845 C855 0.930 . S
C846 H840 0.930 . S
C846 C847 1.355 . S
C846 C848 1.415 . S
C847 C846 1.355 . S
C847 C849 1.419 . S
C848 C846 1.415 . S
C848 C853 1.425 . S
C848 C855 1.409 . S
C849 H841 0.930 . S
C849 C847 1.419 . S
C849 C850 1.362 . S
C850 H842 0.906 1_455 S
C850 C849 1.362 . S
C850 C853 1.409 . S
C851 H843 0.930 . S
C851 C852 1.355 . S
C851 C853 1.415 1_655 S
C852 C851 1.355 . S
C852 C854 1.419 1_655 S
C853 C848 1.425 . S
C853 C850 1.409 . S
C853 C851 1.415 1_455 S
C854 H844 0.930 1_455 S
C854 C852 1.419 1_455 S
C854 C855 1.362 . S
C855 H845 0.930 . S
C855 C848 1.409 . S
C855 C854 1.362 . S
H856 C862 0.930 . S
H857 C865 0.930 . S
H858 C866 0.930 . S
H859 C867 0.930 . S
H860 C870 0.930 . S
H861 C871 0.930 . S
C862 H856 0.930 . S
C862 C863 1.355 . S
C862 C864 1.415 . S
C863 C862 1.355 . S
C863 C865 1.419 . S
C864 C862 1.415 . S
C864 C869 1.425 . S
C864 C871 1.409 . S
C865 H857 0.930 . S
C865 C863 1.419 . S
C865 C866 1.362 . S
C866 H858 0.930 . S
C866 C865 1.362 . S
C866 C869 1.409 . S
C867 H859 0.930 . S
C867 C868 1.355 . S
C867 C869 1.415 . S
C868 C867 1.355 . S
C868 C870 1.419 . S
C869 C864 1.425 . S
C869 C866 1.409 . S
C869 C867 1.415 . S
C870 H860 0.930 . S
C870 C868 1.419 . S
C870 C871 1.362 . S
C871 H861 0.930 . S
C871 C864 1.409 . S
C871 C870 1.362 . S
H872 C878 0.930 . S
H873 C881 0.930 . S
H874 C882 0.930 . S
H875 C883 0.930 . S
H876 C886 0.930 . S
H877 C887 0.925 1_655 S
C878 H872 0.930 . S
C878 C879 1.355 . S
C878 C880 1.415 . S
C879 C878 1.355 . S
C879 C881 1.419 . S
C880 C878 1.415 . S
C880 C885 1.425 . S
C880 C887 1.406 1_655 S
C881 H873 0.930 . S
C881 C879 1.419 . S
C881 C882 1.362 . S
C882 H874 0.930 . S
C882 C881 1.362 . S
C882 C885 1.409 . S
C883 H875 0.930 . S
C883 C884 1.355 . S
C883 C885 1.415 1_455 S
C884 C883 1.355 . S
C884 C886 1.419 . S
C885 C880 1.425 . S
C885 C882 1.409 . S
C885 C883 1.415 1_655 S
C886 H876 0.930 . S
C886 C884 1.419 . S
C886 C887 1.371 . S
C887 H877 0.925 1_455 S
C887 C880 1.406 1_455 S
C887 C886 1.371 . S
H888 C894 0.930 . S
H889 C897 0.930 . S
H890 C898 0.930 . S
H891 C899 0.930 . S
H892 C902 0.930 . S
H893 C903 0.930 . S
C894 H888 0.930 . S
C894 C895 1.355 . S
C894 C896 1.415 . S
C895 C894 1.355 . S
C895 C897 1.419 . S
C896 C894 1.415 . S
C896 C901 1.425 . S
C896 C903 1.409 . S
C897 H889 0.930 . S
C897 C895 1.419 . S
C897 C898 1.362 . S
C898 H890 0.930 . S
C898 C897 1.362 . S
C898 C901 1.409 . S
C899 H891 0.930 . S
C899 C900 1.355 . S
C899 C901 1.415 . S
C900 C899 1.355 . S
C900 C902 1.419 . S
C901 C896 1.425 . S
C901 C898 1.409 . S
C901 C899 1.415 . S
C902 H892 0.930 . S
C902 C900 1.419 . S
C902 C903 1.362 . S
C903 H893 0.930 . S
C903 C896 1.409 . S
C903 C902 1.362 . S
H904 C910 0.930 . S
H905 C913 0.930 . S
H906 C914 0.930 . S
H907 C915 0.930 . S
H908 C918 0.930 . S
H909 C919 0.930 . S
C910 H904 0.930 . S
C910 C911 1.355 . S
C910 C912 1.415 . S
C911 C910 1.355 . S
C911 C913 1.394 1_554 S
C912 C910 1.415 . S
C912 C917 1.425 1_554 S
C912 C919 1.409 . S
C913 H905 0.930 . S
C913 C911 1.394 1_556 S
C913 C914 1.388 . S
C914 H906 0.930 . S
C914 C913 1.388 . S
C914 C917 1.409 . S
C915 H907 0.930 . S
C915 C916 1.355 . S
C915 C917 1.415 . S
C916 C915 1.355 . S
C916 C918 1.419 . S
C917 C912 1.425 1_556 S
C917 C914 1.409 . S
C917 C915 1.415 . S
C918 H908 0.930 . S
C918 C916 1.419 . S
C918 C919 1.362 1_556 S
C919 H909 0.930 . S
C919 C912 1.409 . S
C919 C918 1.362 1_554 S
H920 C926 0.930 . S
H921 C929 0.930 . S
H922 C930 0.930 . S
H923 C931 0.930 . S
H924 C934 0.930 . S
H925 C935 0.930 . S
C926 H920 0.930 . S
C926 C927 1.355 . S
C926 C928 1.415 . S
C927 C926 1.355 . S
C927 C929 1.419 . S
C928 C926 1.415 . S
C928 C933 1.425 . S
C928 C935 1.409 . S
C929 H921 0.930 . S
C929 C927 1.419 . S
C929 C930 1.362 . S
C930 H922 0.930 . S
C930 C929 1.362 . S
C930 C933 1.409 . S
C931 H923 0.930 . S
C931 C932 1.355 . S
C931 C933 1.415 . S
C932 C931 1.355 . S
C932 C934 1.419 . S
C933 C928 1.425 . S
C933 C930 1.409 . S
C933 C931 1.415 . S
C934 H924 0.930 . S
C934 C932 1.419 . S
C934 C935 1.362 . S
C935 H925 0.930 . S
C935 C928 1.409 . S
C935 C934 1.362 . S
H936 C942 0.930 . S
H937 C945 0.930 . S
H938 C946 0.930 . S
H939 C947 0.928 1_554 S
H940 C950 0.930 . S
H941 C951 0.930 . S
C942 H936 0.930 . S
C942 C943 1.355 . S
C942 C944 1.415 . S
C943 C942 1.355 . S
C943 C945 1.419 . S
C944 C942 1.415 . S
C944 C949 1.425 . S
C944 C951 1.409 1_554 S
C945 H937 0.930 . S
C945 C943 1.419 . S
C945 C946 1.362 . S
C946 H938 0.930 . S
C946 C945 1.362 . S
C946 C949 1.409 . S
C947 H939 0.928 1_556 S
C947 C948 1.359 . S
C947 C949 1.412 1_556 S
C948 C947 1.359 . S
C948 C950 1.419 . S
C949 C944 1.425 . S
C949 C946 1.409 . S
C949 C947 1.412 1_554 S
C950 H940 0.930 . S
C950 C948 1.419 . S
C950 C951 1.362 . S
C951 H941 0.930 . S
C951 C944 1.409 1_556 S
C951 C950 1.362 . S
H952 C958 0.930 . S
H953 C961 0.930 . S
H954 C962 0.930 . S
H955 C963 0.930 . S
H956 C966 0.930 . S
H957 C967 0.930 . S
C958 H952 0.930 . S
C958 C959 1.355 . S
C958 C960 1.415 . S
C959 C958 1.355 . S
C959 C961 1.419 . S
C960 C958 1.415 . S
C960 C965 1.425 . S
C960 C967 1.409 . S
C961 H953 0.930 . S
C961 C959 1.419 . S
C961 C962 1.362 . S
C962 H954 0.930 . S
C962 C961 1.362 . S
C962 C965 1.409 . S
C963 H955 0.930 . S
C963 C964 1.355 . S
C963 C965 1.415 . S
C964 C963 1.355 . S
C964 C966 1.419 . S
C965 C960 1.425 . S
C965 C962 1.409 . S
C965 C963 1.415 . S
C966 H956 0.930 . S
C966 C964 1.419 . S
C966 C967 1.362 . S
C967 H957 0.930 . S
C967 C960 1.409 . S
C967 C966 1.362 . S
H968 C974 0.930 . S
H969 C977 0.930 . S
H970 C978 0.930 . S
H971 C979 0.930 . S
H972 C982 0.930 . S
H973 C983 0.930 . S
C974 H968 0.930 . S
C974 C975 1.355 . S
C974 C976 1.415 . S
C975 C974 1.355 . S
C975 C977 1.419 . S
C976 C974 1.415 . S
C976 C981 1.425 1_556 S
C976 C983 1.409 1_556 S
C977 H969 0.930 . S
C977 C975 1.419 . S
C977 C978 1.362 . S
C978 H970 0.930 . S
C978 C977 1.362 . S
C978 C981 1.409 1_556 S
C979 H971 0.930 . S
C979 C980 1.355 . S
C979 C981 1.415 . S
C980 C979 1.355 . S
C980 C982 1.419 . S
C981 C976 1.425 1_554 S
C981 C978 1.409 1_554 S
C981 C979 1.415 . S
C982 H972 0.930 . S
C982 C980 1.419 . S
C982 C983 1.362 . S
C983 H973 0.930 . S
C983 C976 1.409 1_554 S
C983 C982 1.362 . S
H984 C990 0.930 . S
H985 C993 0.930 . S
H986 C994 0.930 . S
H987 C995 0.930 . S
H988 C998 0.930 . S
H989 C999 0.930 . S
C990 H984 0.930 . S
C990 C991 1.355 . S
C990 C992 1.415 . S
C991 C990 1.355 . S
C991 C993 1.419 . S
C992 C990 1.415 . S
C992 C997 1.425 . S
C992 C999 1.409 . S
C993 H985 0.930 . S
C993 C991 1.419 . S
C993 C994 1.362 . S
C994 H986 0.930 . S
C994 C993 1.362 . S
C994 C997 1.409 . S
C995 H987 0.930 . S
C995 C996 1.355 . S
C995 C997 1.415 . S
C996 C995 1.355 . S
C996 C998 1.419 . S
C997 C992 1.425 . S
C997 C994 1.409 . S
C997 C995 1.415 . S
C998 H988 0.930 . S
C998 C996 1.419 . S
C998 C999 1.362 . S
C999 H989 0.930 . S
C999 C992 1.409 . S
C999 C998 1.362 . S
H1000 C1006 0.915 1_556 S
H1001 C1009 0.930 . S
H1002 C1010 0.930 . S
H1003 C1011 0.930 . S
H1004 C1014 0.930 . S
H1005 C1015 0.930 . S
C1006 H1000 0.915 1_554 S
C1006 C1007 1.349 1_554 S
C1006 C1008 1.434 . S
C1007 C1006 1.349 1_556 S
C1007 C1009 1.419 1_556 S
C1008 C1006 1.434 . S
C1008 C1013 1.425 . S
C1008 C1015 1.409 . S
C1009 H1001 0.930 . S
C1009 C1007 1.419 1_554 S
C1009 C1010 1.362 . S
C1010 H1002 0.930 . S
C1010 C1009 1.362 . S
C1010 C1013 1.409 . S
C1011 H1003 0.930 . S
C1011 C1012 1.355 . S
C1011 C1013 1.415 . S
C1012 C1011 1.355 . S
C1012 C1014 1.419 . S
C1013 C1008 1.425 . S
C1013 C1010 1.409 . S
C1013 C1011 1.415 . S
C1014 H1004 0.930 . S
C1014 C1012 1.419 . S
C1014 C1015 1.362 . S
C1015 H1005 0.930 . S
C1015 C1008 1.409 . S
C1015 C1014 1.362 . S
H1016 C1022 0.930 . S
H1017 C1025 0.930 . S
H1018 C1026 0.930 . S
H1019 C1027 0.930 . S
H1020 C1030 0.930 . S
H1021 C1031 0.930 . S
C1022 H1016 0.930 . S
C1022 C1023 1.355 . S
C1022 C1024 1.415 . S
C1023 C1022 1.355 . S
C1023 C1025 1.419 . S
C1024 C1022 1.415 . S
C1024 C1029 1.425 . S
C1024 C1031 1.409 . S
C1025 H1017 0.930 . S
C1025 C1023 1.419 . S
C1025 C1026 1.362 . S
C1026 H1018 0.930 . S
C1026 C1025 1.362 . S
C1026 C1029 1.409 . S
C1027 H1019 0.930 . S
C1027 C1028 1.355 . S
C1027 C1029 1.415 . S
C1028 C1027 1.355 . S
C1028 C1030 1.419 . S
C1029 C1024 1.425 . S
C1029 C1026 1.409 . S
C1029 C1027 1.415 . S
C1030 H1020 0.930 . S
C1030 C1028 1.419 . S
C1030 C1031 1.362 . S
C1031 H1021 0.930 . S
C1031 C1024 1.409 . S
C1031 C1030 1.362 . S
H1032 C1038 0.930 . S
H1033 C1041 0.930 . S
H1034 C1042 0.930 . S
H1035 C1043 0.930 . S
H1036 C1046 0.930 . S
H1037 C1047 0.930 . S
C1038 H1032 0.930 . S
C1038 C1039 1.355 . S
C1038 C1040 1.415 . S
C1039 C1038 1.355 . S
C1039 C1041 1.419 . S
C1040 C1038 1.415 . S
C1040 C1045 1.425 . S
C1040 C1047 1.409 . S
C1041 H1033 0.930 . S
C1041 C1039 1.419 . S
C1041 C1042 1.362 . S
C1042 H1034 0.930 . S
C1042 C1041 1.362 . S
C1042 C1045 1.409 . S
C1043 H1035 0.930 . S
C1043 C1044 1.355 . S
C1043 C1045 1.415 . S
C1044 C1043 1.355 . S
C1044 C1046 1.419 . S
C1045 C1040 1.425 . S
C1045 C1042 1.409 . S
C1045 C1043 1.415 . S
C1046 H1036 0.930 . S
C1046 C1044 1.419 . S
C1046 C1047 1.362 . S
C1047 H1037 0.930 . S
C1047 C1040 1.409 . S
C1047 C1046 1.362 . S
H1048 C1054 0.930 . S
H1049 C1057 0.930 . S
H1050 C1058 0.930 . S
H1051 C1059 0.930 . S
H1052 C1062 0.930 . S
H1053 C1063 0.930 . S
C1054 H1048 0.930 . S
C1054 C1055 1.355 . S
C1054 C1056 1.415 . S
C1055 C1054 1.355 . S
C1055 C1057 1.419 . S
C1056 C1054 1.415 . S
C1056 C1061 1.425 . S
C1056 C1063 1.409 . S
C1057 H1049 0.930 . S
C1057 C1055 1.419 . S
C1057 C1058 1.362 . S
C1058 H1050 0.930 . S
C1058 C1057 1.362 . S
C1058 C1061 1.409 . S
C1059 H1051 0.930 . S
C1059 C1060 1.355 . S
C1059 C1061 1.415 . S
C1060 C1059 1.355 . S
C1060 C1062 1.419 . S
C1061 C1056 1.425 . S
C1061 C1058 1.409 . S
C1061 C1059 1.415 . S
C1062 H1052 0.930 . S
C1062 C1060 1.419 . S
C1062 C1063 1.362 . S
C1063 H1053 0.930 . S
C1063 C1056 1.409 . S
C1063 C1062 1.362 . S
H1064 C1070 0.930 . S
H1065 C1073 0.930 . S
H1066 C1074 0.930 . S
H1067 C1075 0.930 . S
H1068 C1078 0.930 . S
H1069 C1079 0.930 . S
C1070 H1064 0.930 . S
C1070 C1071 1.355 . S
C1070 C1072 1.415 . S
C1071 C1070 1.355 . S
C1071 C1073 1.419 . S
C1072 C1070 1.415 . S
C1072 C1077 1.425 . S
C1072 C1079 1.409 . S
C1073 H1065 0.930 . S
C1073 C1071 1.419 . S
C1073 C1074 1.362 . S
C1074 H1066 0.930 . S
C1074 C1073 1.362 . S
C1074 C1077 1.409 . S
C1075 H1067 0.930 . S
C1075 C1076 1.355 . S
C1075 C1077 1.415 . S
C1076 C1075 1.355 . S
C1076 C1078 1.419 . S
C1077 C1072 1.425 . S
C1077 C1074 1.409 . S
C1077 C1075 1.415 . S
C1078 H1068 0.930 . S
C1078 C1076 1.419 . S
C1078 C1079 1.362 . S
C1079 H1069 0.930 . S
C1079 C1072 1.409 . S
C1079 C1078 1.362 . S
H1080 C1086 0.930 . S
H1081 C1089 0.930 . S
H1082 C1090 0.930 . S
H1083 C1091 0.930 1_554 S
H1084 C1094 0.930 . S
H1085 C1095 0.930 . S
C1086 H1080 0.930 . S
C1086 C1087 1.355 . S
C1086 C1088 1.415 . S
C1087 C1086 1.355 . S
C1087 C1089 1.419 . S
C1088 C1086 1.415 . S
C1088 C1093 1.425 . S
C1088 C1095 1.409 . S
C1089 H1081 0.930 . S
C1089 C1087 1.419 . S
C1089 C1090 1.362 . S
C1090 H1082 0.930 . S
C1090 C1089 1.362 . S
C1090 C1093 1.409 . S
C1091 H1083 0.930 1_556 S
C1091 C1092 1.355 . S
C1091 C1093 1.415 . S
C1092 C1091 1.355 . S
C1092 C1094 1.419 . S
C1093 C1088 1.425 . S
C1093 C1090 1.409 . S
C1093 C1091 1.415 . S
C1094 H1084 0.930 . S
C1094 C1092 1.419 . S
C1094 C1095 1.362 . S
C1095 H1085 0.930 . S
C1095 C1088 1.409 . S
C1095 C1094 1.362 . S
H1096 C1102 0.930 . S
H1097 C1105 0.930 . S
H1098 C1106 0.930 . S
H1099 C1107 0.930 . S
H1100 C1110 0.930 . S
H1101 C1111 0.930 . S
C1102 H1096 0.930 . S
C1102 C1103 1.355 . S
C1102 C1104 1.415 . S
C1103 C1102 1.355 . S
C1103 C1105 1.419 . S
C1104 C1102 1.415 . S
C1104 C1109 1.425 . S
C1104 C1111 1.409 . S
C1105 H1097 0.930 . S
C1105 C1103 1.419 . S
C1105 C1106 1.362 . S
C1106 H1098 0.930 . S
C1106 C1105 1.362 . S
C1106 C1109 1.409 . S
C1107 H1099 0.930 . S
C1107 C1108 1.355 . S
C1107 C1109 1.415 . S
C1108 C1107 1.355 . S
C1108 C1110 1.419 . S
C1109 C1104 1.425 . S
C1109 C1106 1.409 . S
C1109 C1107 1.415 . S
C1110 H1100 0.930 . S
C1110 C1108 1.419 . S
C1110 C1111 1.362 . S
C1111 H1101 0.930 . S
C1111 C1104 1.409 . S
C1111 C1110 1.362 . S
H1112 C1118 0.930 . S
H1113 C1121 0.930 . S
H1114 C1122 0.930 . S
H1115 C1123 0.930 . S
H1116 C1126 0.930 . S
H1117 C1127 0.930 . S
C1118 H1112 0.930 . S
C1118 C1119 1.355 . S
C1118 C1120 1.415 . S
C1119 C1118 1.355 . S
C1119 C1121 1.419 . S
C1120 C1118 1.415 . S
C1120 C1125 1.425 . S
C1120 C1127 1.409 . S
C1121 H1113 0.930 . S
C1121 C1119 1.419 . S
C1121 C1122 1.362 . S
C1122 H1114 0.930 . S
C1122 C1121 1.362 . S
C1122 C1125 1.409 . S
C1123 H1115 0.930 . S
C1123 C1124 1.355 . S
C1123 C1125 1.415 . S
C1124 C1123 1.355 . S
C1124 C1126 1.419 . S
C1125 C1120 1.425 . S
C1125 C1122 1.409 . S
C1125 C1123 1.415 . S
C1126 H1116 0.930 . S
C1126 C1124 1.419 . S
C1126 C1127 1.362 . S
C1127 H1117 0.930 . S
C1127 C1120 1.409 . S
C1127 C1126 1.362 . S
H1128 C1134 0.930 . S
H1129 C1137 0.930 . S
H1130 C1138 0.930 . S
H1131 C1139 0.930 . S
H1132 C1142 0.930 . S
H1133 C1143 0.930 . S
C1134 H1128 0.930 . S
C1134 C1135 1.355 . S
C1134 C1136 1.415 . S
C1135 C1134 1.355 . S
C1135 C1137 1.419 . S
C1136 C1134 1.415 . S
C1136 C1141 1.425 . S
C1136 C1143 1.409 . S
C1137 H1129 0.930 . S
C1137 C1135 1.419 . S
C1137 C1138 1.362 . S
C1138 H1130 0.930 . S
C1138 C1137 1.362 . S
C1138 C1141 1.409 . S
C1139 H1131 0.930 . S
C1139 C1140 1.355 . S
C1139 C1141 1.415 . S
C1140 C1139 1.355 . S
C1140 C1142 1.419 1_545 S
C1141 C1136 1.425 . S
C1141 C1138 1.409 . S
C1141 C1139 1.415 . S
C1142 H1132 0.930 . S
C1142 C1140 1.419 1_565 S
C1142 C1143 1.362 1_565 S
C1143 H1133 0.930 . S
C1143 C1136 1.409 . S
C1143 C1142 1.362 1_545 S
C388 C216 1.714 . S
C383 C73 1.748 . S
C404 C231 1.459 . S
C399 C82 1.571 . S
C415 C100 1.977 . S
C420 C244 1.938 . S
C436 C258 1.463 . S
C431 C56 1.409 . S
C452 C270 1.486 . S
C447 C134 1.531 . S
C468 C284 1.423 . S
C463 C165 1.462 . S
C479 C147 1.461 . S
C484 C298 1.459 . S
C500 C313 1.714 . S
C495 C125 1.730 . S
C511 C151 1.440 . S
C516 C329 1.447 . S
C532 C342 1.458 . S
C527 C121 1.407 . S
C543 C139 1.730 . S
C548 C327 1.727 . S
C564 C340 1.315 . S
C559 C164 1.270 . S
C575 C95 1.593 . S
C580 C356 1.664 . S
C591 C61 1.453 . S
C596 C355 1.496 . S
C607 C74 1.685 . S
C612 C354 1.602 . S
C623 C86 1.856 . S
C628 C357 1.800 . S
C639 C47 1.612 . S
C644 C259 1.613 1_565 S
C655 C186 1.308 . S
C660 C257 1.341 . S
C676 C217 1.460 . S
C671 C204 1.478 . S
C692 C228 1.965 . S
C687 C112 1.985 . S
C703 C60 1.392 1_545 S
C708 C273 1.407 . S
C724 C314 1.753 . S
C719 C152 1.760 . S
C740 C271 1.769 . S
C735 C126 1.797 . S
C756 C299 1.352 . S
C751 C160 1.279 . S
C772 C300 1.743 . S
C767 C190 1.744 . S
C783 C199 1.496 . S
C788 C315 1.516 . S
C799 C113 1.967 . S
C804 C272 1.968 . S
C820 C286 1.415 . S
C815 C173 1.337 . S
C831 C43 1.552 . S
C836 C242 1.415 . S
C852 C256 1.476 . S
C847 C9 1.442 . S
C868 C214 1.394 . S
C863 C17 1.399 . S
C884 C229 1.673 . S
C879 C34 1.743 . S
C895 C21 1.443 . S
C900 C343 1.441 . S
C911 C30 1.364 . S
C916 C328 1.426 . S
C927 C48 1.736 . S
C932 C341 1.710 . S
C943 C8 1.285 . S
C948 C326 1.312 . S
C964 C370 1.634 . S
C959 C108 1.600 . S
C980 C369 1.506 . S
C975 C178 1.474 . S
C996 C368 1.610 . S
C991 C191 1.686 . S
C1007 C203 1.858 . S
C1012 C371 1.803 . S
C1023 C138 1.610 . S
C1028 C287 1.608 . S
C1044 C285 1.362 . S
C1039 C69 1.337 . S
C1060 C301 1.445 . S
C1055 C87 1.474 . S
C1076 C312 1.961 . S
C1071 C99 1.972 . S
C1087 C177 1.409 . S
C1092 C245 1.430 . S
C1108 C230 1.763 . S
C1103 C22 1.738 . S
C1119 C35 1.769 . S
C1124 C243 1.728 . S
C1140 C215 1.351 1_545 S
C1135 C4 1.282 . S
