# Generated by pormake.
# Topology pts, (4,4)-cn, num edge types: 1
# Building blocks:
#     Node 0, Type 0, BuildingBlock: KUFVIS_clean_linker_0, # of connection points: 4
#     Node 1, Type 0, BuildingBlock: KUFVIS_clean_linker_0, # of connection points: 4
#     Node 2, Type 1, BuildingBlock: UXUYUI_clean_sbu_0, # of connection points: 4
#     Node 3, Type 1, BuildingBlock: UXUYUI_clean_sbu_0, # of connection points: 4
#     Edge 4, Type (0, 1), BuildingBlock: EZIPEK_clean_linker_0, # of connection points: 2
#     Edge 5, Type (0, 1), BuildingBlock: EZIPEK_clean_linker_0, # of connection points: 2
#     Edge 6, Type (0, 1), BuildingBlock: EZIPEK_clean_linker_0, # of connection points: 2
#     Edge 7, Type (0, 1), BuildingBlock: EZIPEK_clean_linker_0, # of connection points: 2
#     Edge 8, Type (0, 1), BuildingBlock: EZIPEK_clean_linker_0, # of connection points: 2
#     Edge 9, Type (0, 1), BuildingBlock: EZIPEK_clean_linker_0, # of connection points: 2
#     Edge 10, Type (0, 1), BuildingBlock: EZIPEK_clean_linker_0, # of connection points: 2
#     Edge 11, Type (0, 1), BuildingBlock: EZIPEK_clean_linker_0, # of connection points: 2
# Relax obj value: 0.008
# Max RMSD: 0.067
# Mean RMSD: 0.060
data_MOF--net-pts--node1-UXUYUI_clean_sbu_0--node2-KUFVIS_clean_linker_0--edge1-EZIPEK_clean_linker_0
_symmetry_space_group_name_H-M    P1
_symmetry_Int_Tables_number       1
_symmetry_cell_setting            triclinic
loop_
_symmetry_equiv_pos_as_xyz
'x, y, z'
_cell_length_a     24.53905
_cell_length_b     24.604755
_cell_length_c     33.230981
_cell_angle_alpha  90.388193
_cell_angle_beta   89.933304
_cell_angle_gamma 89.992401
loop_
_atom_site_label
_atom_site_type_symbol
_atom_site_fract_x
_atom_site_fract_y
_atom_site_fract_z
_atom_type_partial_charge
H0 H 0.34446 0.02868 -0.00471 0.0
H1 H 0.49463 0.05092 0.9324 0.0
H2 H 0.49398 1.0061 0.05871 0.0
H3 H 0.57417 0.04413 0.06011 0.0
H4 H 0.72435 0.02844 -0.00412 0.0
H5 H 0.5747 1.01264 0.93127 0.0
C6 C 0.38871 0.02864 -0.00463 0.0
C7 C 0.41659 1.01859 0.03103 0.0
C8 C 0.41696 0.03862 0.95981 0.0
C9 C 0.47411 0.04031 0.96005 0.0
C10 C 0.50369 0.02851 -0.00443 0.0
C11 C 0.47375 1.01677 0.03099 0.0
C12 C 0.56506 0.02844 -0.00433 0.0
C13 C 0.59467 0.03651 0.03182 0.0
C14 C 0.65183 0.03533 0.03185 0.0
C15 C 0.68011 0.02845 -0.00418 0.0
C16 C 0.65213 1.02153 0.95972 0.0
C17 C 0.59496 1.02032 0.9596 0.0
H18 H 0.03867 0.71757 0.49405 0.0
H19 H 0.06168 0.56924 0.55833 0.0
H20 H 1.0159 0.56637 0.43219 0.0
H21 H 0.06099 0.4878 0.43272 0.0
H22 H 0.03844 0.33948 0.49712 0.0
H23 H 1.01658 0.49069 0.5592 0.0
C24 C 0.03851 0.67346 0.49451 0.0
C25 C 0.02838 0.6446 0.45908 0.0
C26 C 0.04895 0.64633 0.53041 0.0
C27 C 0.05071 0.5893 0.53062 0.0
C28 C 0.03841 0.559 0.4954 0.0
C29 C 1.02639 0.58766 0.45971 0.0
C30 C 0.03838 0.49805 0.49582 0.0
C31 C 0.05028 0.46775 0.46051 0.0
C32 C 0.04848 0.41073 0.46072 0.0
C33 C 0.03833 0.3836 0.49668 0.0
C34 C 0.02858 0.41245 0.53218 0.0
C35 C 0.02672 0.4694 0.5316 0.0
Li36 Li 0.0381 0.07462 0.2738 0.0
Li37 Li 0.02807 0.97872 0.27406 0.0
Li38 Li 0.08418 1.02456 0.22068 0.0
Li39 Li 0.98123 0.03071 0.22457 0.0
C40 C 0.13096 0.04707 0.30575 0.0
N41 N 0.19731 0.10426 0.35822 0.0
C42 C 0.11567 0.05397 0.34601 0.0
C43 C 0.18022 0.06901 0.29227 0.0
C44 C 0.14965 0.08315 0.37202 0.0
C45 C 0.21318 0.09777 0.31926 0.0
C46 C 0.9417 1.00446 0.31139 0.0
C47 C 0.87944 0.93197 0.32791 0.0
N48 N 0.88804 0.94174 0.36772 0.0
C49 C 0.94987 1.01376 0.35251 0.0
C50 C 0.90605 0.9633 0.29901 0.0
C51 C 0.92232 0.98169 0.38049 0.0
C52 C 1.00636 0.15589 0.33027 0.0
N53 N 0.04558 0.14142 0.30336 0.0
C54 C 0.09421 0.22407 0.31603 0.0
C55 C 0.08862 0.17467 0.29555 0.0
C56 C 0.05546 0.23876 0.34514 0.0
C57 C 1.01085 0.20441 0.35197 0.0
H58 H 0.97135 0.13006 0.33464 0.0
H59 H 0.11847 0.16295 0.27319 0.0
C60 C 1.01135 0.86604 0.28354 0.0
N61 N 1.02515 0.91232 0.30377 0.0
C62 C 1.0084 0.81649 0.30364 0.0
C63 C 0.03426 0.86294 0.36506 0.0
C64 C 0.03709 0.91151 0.34371 0.0
C65 C 1.01976 0.81493 0.34486 0.0
H66 H 1.00296 0.86745 0.25172 0.0
H67 H 0.04857 0.94852 0.35908 0.0
C68 C 1.02522 0.14196 0.21041 0.0
N69 N 1.00354 0.25183 0.20484 0.0
C70 C 0.97445 0.16236 0.22222 0.0
C71 C 0.06491 0.17737 0.19564 0.0
C72 C 0.96432 0.21805 0.21923 0.0
C73 C 0.05315 0.2328 0.19306 0.0
C74 C 1.00678 0.94288 0.18068 0.0
C75 C 0.03437 0.94737 0.14402 0.0
C76 C 0.95674 0.91572 0.182 0.0
C77 C 1.0111 0.92526 0.10922 0.0
C78 C 0.93475 0.8943 0.14653 0.0
N79 N 0.96215 0.89949 0.11117 0.0
C80 C 0.18693 0.98317 0.20092 0.0
C81 C 0.15496 0.05049 0.15588 0.0
C82 C 0.23592 0.97875 0.17973 0.0
N83 N 0.14798 1.01885 0.18885 0.0
C84 C 0.20313 0.04704 0.13359 0.0
C85 C 0.24413 1.01088 0.14561 0.0
H86 H 0.18014 0.95874 0.2274 0.0
H87 H 0.12312 0.07826 0.14694 0.0
C88 C 0.8678 0.04359 0.21307 0.0
N89 N 0.91626 0.03825 0.19347 0.0
C90 C 0.81917 0.04654 0.19144 0.0
C91 C 0.87136 0.04069 0.12977 0.0
C92 C 0.91901 0.03854 0.15259 0.0
C93 C 0.82085 0.04393 0.14936 0.0
H94 H 0.86682 0.04536 0.24554 0.0
H95 H 0.95815 0.03612 0.13774 0.0
O96 O 0.09765 1.01957 0.27959 0.0
O97 O 0.9694 0.03445 0.2834 0.0
O98 O 0.03647 0.08781 0.21429 0.0
O99 O 0.02872 0.96482 0.21503 0.0
H100 H 0.0774 0.03812 0.35686 0.0
H101 H 0.19259 0.06463 0.26119 0.0
H102 H 0.13799 0.08928 0.40312 0.0
H103 H 0.25124 0.1152 0.30916 0.0
H104 H 0.85209 0.89976 0.31868 0.0
H105 H 0.97792 0.04463 0.36287 0.0
H106 H 0.89949 0.95512 0.26742 0.0
H107 H 0.92855 0.98827 0.41237 0.0
H108 H 0.12866 0.25018 0.30971 0.0
H109 H 0.9798 0.21515 0.37382 0.0
H110 H 0.99764 0.77981 0.28728 0.0
H111 H 0.0437 0.86266 0.39689 0.0
H112 H 0.94357 0.13563 0.23426 0.0
H113 H 0.10461 0.16232 0.18679 0.0
H114 H 0.92535 0.23447 0.22852 0.0
H115 H 0.08355 0.26073 0.18188 0.0
H116 H 0.07318 0.96789 0.14232 0.0
H117 H 0.93473 0.91174 0.21 0.0
H118 H 0.03192 0.92869 0.08064 0.0
H119 H 0.89583 0.87367 0.1471 0.0
H120 H 0.267 0.95066 0.18972 0.0
H121 H 0.2085 0.07234 0.10734 0.0
H122 H 0.78068 0.04977 0.20725 0.0
H123 H 0.87375 0.03932 0.09722 0.0
Li124 Li 0.9822 0.02618 0.76692 0.0
Li125 Li 0.08528 0.03243 0.7703 0.0
Li126 Li 0.02876 0.0782 0.7171 0.0
Li127 Li 0.03904 0.9823 0.71753 0.0
C128 C 1.00808 0.11447 0.81047 0.0
N129 N 0.96409 0.15879 0.87997 0.0
C130 C 0.03575 0.10998 0.84705 0.0
C131 C 0.95829 0.1421 0.80922 0.0
C132 C 1.01281 0.13257 0.88185 0.0
C133 C 0.93663 0.16399 0.84468 0.0
C134 C 0.02739 0.91486 0.78079 0.0
C135 C 0.0573 0.82432 0.79717 0.0
N136 N 1.00778 0.80458 0.78595 0.0
C137 C 0.97673 0.89373 0.76957 0.0
C138 C 0.06802 0.87998 0.7948 0.0
C139 C 0.96764 0.83783 0.77233 0.0
C140 C 0.86894 1.01249 0.77867 0.0
N141 N 0.91729 1.01874 0.79821 0.0
C142 C 0.8722 1.01715 0.86194 0.0
C143 C 0.91991 1.01934 0.83908 0.0
C144 C 0.82179 1.01296 0.84239 0.0
C145 C 0.82028 1.00948 0.80034 0.0
H146 H 0.86808 1.01005 0.74622 0.0
H147 H 0.95897 1.02241 0.85391 0.0
C148 C 0.1883 0.07357 0.78954 0.0
N149 N 0.14919 0.0382 0.80188 0.0
C150 C 0.23729 0.07801 0.81065 0.0
C151 C 0.20419 1.01037 0.85723 0.0
C152 C 0.15603 1.00689 0.83502 0.0
C153 C 0.24533 0.04624 0.84496 0.0
H154 H 0.18162 0.09775 0.76293 0.0
H155 H 0.12406 0.97936 0.84418 0.0
C156 C 0.94178 0.05204 0.68046 0.0
N157 N 0.88644 0.11416 0.62474 0.0
C158 C 0.94886 0.0424 0.63926 0.0
C159 C 0.90634 0.09321 0.69324 0.0
C160 C 0.92048 0.07418 0.61159 0.0
C161 C 0.87887 0.12423 0.66464 0.0
C162 C 0.13131 1.0104 0.68463 0.0
C163 C 0.11508 1.00349 0.64461 0.0
C164 C 0.18113 0.98892 0.69731 0.0
C165 C 0.14871 0.97475 0.61802 0.0
C166 C 0.2137 0.96059 0.66976 0.0
N167 N 0.19692 0.95409 0.63103 0.0
C168 C 1.01331 0.19107 0.70786 0.0
C169 C 0.03589 0.14516 0.64713 0.0
C170 C 1.01041 0.24067 0.68781 0.0
N171 N 1.02554 0.14456 0.68734 0.0
C172 C 0.03305 0.19377 0.62584 0.0
C173 C 1.02021 0.24203 0.64635 0.0
H174 H 1.00621 0.18983 0.73986 0.0
H175 H 0.04617 0.10797 0.63152 0.0
C176 C 1.00695 0.90071 0.66151 0.0
N177 N 0.04658 0.91552 0.68792 0.0
C178 C 1.01143 0.85224 0.63975 0.0
C179 C 0.09568 0.83328 0.67461 0.0
C180 C 0.09008 0.88265 0.69516 0.0
C181 C 0.05648 0.81827 0.64601 0.0
H182 H 0.97163 0.92626 0.65759 0.0
H183 H 0.12031 0.89465 0.71711 0.0
O184 O 0.02972 0.09213 0.77612 0.0
O185 O 0.03758 0.96924 0.77711 0.0
O186 O 0.97023 1.02229 0.70813 0.0
O187 O 0.09839 0.03748 0.71135 0.0
H188 H 0.07438 0.08912 0.84869 0.0
H189 H 0.93628 0.14618 0.78127 0.0
H190 H 0.0337 0.12915 0.91037 0.0
H191 H 0.89792 0.18502 0.84417 0.0
H192 H 0.08844 0.79679 0.80775 0.0
H193 H 0.94509 0.92008 0.75818 0.0
H194 H 0.10764 0.89561 0.8032 0.0
H195 H 0.92877 0.82085 0.76348 0.0
H196 H 0.87448 1.01919 0.89447 0.0
H197 H 0.78188 1.00548 0.78456 0.0
H198 H 0.26849 0.10586 0.80046 0.0
H199 H 0.20942 0.98534 0.88364 0.0
H200 H 0.97668 1.01147 0.62859 0.0
H201 H 0.90053 0.10155 0.72489 0.0
H202 H 0.92586 0.06734 0.57964 0.0
H203 H 0.85166 0.15644 0.67417 0.0
H204 H 0.07636 1.01897 0.6344 0.0
H205 H 0.19424 0.99334 0.7282 0.0
H206 H 0.13633 0.96861 0.58708 0.0
H207 H 0.2522 0.94352 0.67922 0.0
H208 H 1.00097 0.27753 0.7044 0.0
H209 H 0.04127 0.19388 0.59381 0.0
H210 H 0.98004 0.84124 0.6183 0.0
H211 H 0.1305 0.80748 0.68048 0.0
C212 C 0.3527 0.96243 0.07154 0.0
C213 C 0.38383 1.01062 0.06807 0.0
C214 C 0.33311 0.0513 0.1242 0.0
C215 C 0.29571 1.00741 0.12234 0.0
N216 N 0.2679 0.9216 0.0933 0.0
N217 N 0.40381 0.10207 0.09004 0.0
C218 C 0.30541 0.96251 0.09625 0.0
C219 C 0.37479 0.05509 0.09463 0.0
N220 N 0.36834 0.91693 0.05075 0.0
N221 N 0.32877 0.08909 0.15437 0.0
H222 H 0.43569 0.10588 0.06948 0.0
H223 H 0.39439 0.1382 0.10499 0.0
H224 H 0.29864 0.08724 0.17651 0.0
H225 H 0.35774 0.11921 0.15965 0.0
H226 H 0.35034 0.87899 0.05452 0.0
H227 H 0.40298 0.91619 0.03247 0.0
H228 H 0.26962 0.89101 0.07154 0.0
H229 H 0.23269 0.92014 0.11085 0.0
C230 C 0.06897 0.36908 0.59282 0.0
C231 C 1.02194 0.381 0.56977 0.0
C232 C 0.97005 0.3117 0.60611 0.0
C233 C 1.01922 0.29412 0.62425 0.0
N234 N 0.11527 0.30551 0.63669 0.0
N235 N 0.92707 0.36723 0.55488 0.0
C236 C 0.0685 0.3233 0.61868 0.0
C237 C 0.97193 0.35394 0.57711 0.0
N238 N 0.11413 0.40129 0.58942 0.0
N239 N 0.92188 0.28763 0.61656 0.0
H240 H 0.92675 0.39995 0.53505 0.0
H241 H 0.89088 0.34523 0.55493 0.0
H242 H 0.91953 0.25585 0.63711 0.0
H243 H 0.88385 0.30129 0.60721 0.0
H244 H 0.14828 0.39806 0.60776 0.0
H245 H 0.11587 0.43453 0.57017 0.0
H246 H 0.1539 0.32057 0.63026 0.0
H247 H 0.11593 0.27346 0.65707 0.0
C248 C 0.70162 0.99064 0.08821 0.0
C249 C 0.68398 0.03922 0.06951 0.0
C250 C 0.75049 0.09232 0.10816 0.0
C251 C 0.76984 0.04341 0.12547 0.0
N252 N 0.75803 0.94798 0.13902 0.0
N253 N 0.68194 0.13677 0.06699 0.0
C254 C 0.74319 0.99318 0.11793 0.0
C255 C 0.70521 0.09036 0.08147 0.0
N256 N 0.68041 0.94188 0.07588 0.0
N257 N 0.77682 0.14017 0.1162 0.0
H258 H 0.64891 0.13611 0.04724 0.0
H259 H 0.69219 0.17573 0.07667 0.0
H260 H 0.80857 0.14327 0.13695 0.0
H261 H 0.76905 0.17641 0.10133 0.0
H262 H 0.69593 0.90429 0.08426 0.0
H263 H 0.64805 0.9389 0.05564 0.0
H264 H 0.73685 0.91138 0.13805 0.0
H265 H 0.78973 0.94789 0.15989 0.0
C266 C 0.10436 0.71474 0.5678 0.0
C267 C 0.0586 0.67967 0.56716 0.0
C268 C 1.02246 0.72558 0.62711 0.0
C269 C 0.06191 0.76717 0.62227 0.0
N270 N 0.13872 0.80377 0.58573 0.0
N271 N 0.97191 0.65272 0.59514 0.0
C272 C 0.10312 0.76205 0.59246 0.0
C273 C 1.01742 0.68463 0.59699 0.0
N274 N 0.14857 0.70297 0.54429 0.0
N275 N 0.99 0.72531 0.66055 0.0
H276 H 0.96673 0.6219 0.57382 0.0
H277 H 0.93768 0.65915 0.61311 0.0
H278 H 0.99326 0.75456 0.68332 0.0
H279 H 0.96387 0.69338 0.66757 0.0
H280 H 0.18514 0.72435 0.54594 0.0
H281 H 0.15031 0.66826 0.52607 0.0
H282 H 0.16548 0.80458 0.5614 0.0
H283 H 0.13864 0.83978 0.60242 0.0
C284 C 0.3537 0.09485 0.91892 0.0
C285 C 0.38458 0.04654 0.92264 0.0
C286 C 0.33411 1.00572 0.86654 0.0
C287 C 0.29686 0.04976 0.86818 0.0
N288 N 0.26925 0.13593 0.89679 0.0
N289 N 0.40443 0.95491 0.90099 0.0
C290 C 0.30659 0.09482 0.8941 0.0
C291 C 0.37558 1.00195 0.8962 0.0
N292 N 0.36937 0.14039 0.93961 0.0
N293 N 0.3298 0.96774 0.8365 0.0
H294 H 0.43617 0.95112 0.92161 0.0
H295 H 0.395 0.91872 0.88614 0.0
H296 H 0.29981 0.96957 0.81431 0.0
H297 H 0.35867 0.93745 0.83138 0.0
H298 H 0.35156 0.17839 0.93567 0.0
H299 H 0.40387 0.14109 0.95797 0.0
H300 H 0.27095 0.16667 0.91843 0.0
H301 H 0.23419 0.13745 0.87914 0.0
C302 C 0.10379 0.34257 0.42288 0.0
C303 C 0.05783 0.3774 0.42391 0.0
C304 C 1.02112 0.33125 0.36433 0.0
C305 C 0.06091 0.28991 0.36879 0.0
N306 N 0.13852 0.2538 0.40455 0.0
N307 N 0.97067 0.40396 0.3967 0.0
C308 C 0.10252 0.29528 0.39821 0.0
C309 C 1.01629 0.37222 0.39446 0.0
N310 N 0.1482 0.35457 0.44604 0.0
N311 N 0.98815 0.33126 0.33121 0.0
H312 H 0.96568 0.43482 0.41801 0.0
H313 H 0.93622 0.39736 0.37905 0.0
H314 H 0.99122 0.30198 0.30844 0.0
H315 H 0.9617 0.36301 0.32443 0.0
H316 H 0.18489 0.33341 0.44407 0.0
H317 H 0.14996 0.38927 0.46426 0.0
H318 H 0.16564 0.25312 0.42862 0.0
H319 H 0.13849 0.21784 0.3878 0.0
C320 C 0.70162 0.06583 0.90296 0.0
C321 C 0.68457 1.0174 0.92216 0.0
C322 C 0.75202 0.96446 0.88415 0.0
C323 C 0.77071 1.01327 0.86628 0.0
N324 N 0.75752 0.1082 0.85161 0.0
N325 N 0.68385 0.9199 0.92569 0.0
C326 C 0.7433 0.06326 0.87325 0.0
C327 C 0.70657 0.96633 0.91077 0.0
N328 N 0.67979 0.11455 0.9148 0.0
N329 N 0.77909 0.91684 0.87671 0.0
H330 H 0.65068 0.9205 0.94537 0.0
H331 H 0.69469 0.8809 0.91643 0.0
H332 H 0.81099 0.91375 0.85603 0.0
H333 H 0.77181 0.88085 0.89203 0.0
H334 H 0.69488 0.15217 0.90602 0.0
H335 H 0.6474 0.11753 0.93507 0.0
H336 H 0.73575 0.14448 0.85215 0.0
H337 H 0.78927 0.10831 0.83073 0.0
C338 C 0.97154 0.70381 0.4149 0.0
C339 C 1.02134 0.67606 0.42153 0.0
C340 C 0.06749 0.73293 0.37181 0.0
C341 C 1.01853 0.76287 0.36701 0.0
N342 N 0.92153 0.77097 0.37628 0.0
N343 N 0.11279 0.65445 0.40058 0.0
C344 C 0.96957 0.74609 0.38593 0.0
C345 C 0.06797 0.68724 0.39777 0.0
N346 N 0.92701 0.69111 0.43775 0.0
N347 N 0.11401 0.7499 0.35295 0.0
H348 H 0.1146 0.62131 0.41991 0.0
H349 H 0.14654 0.65713 0.38174 0.0
H350 H 0.11457 0.78183 0.33245 0.0
H351 H 0.15258 0.73426 0.35872 0.0
H352 H 0.89111 0.71358 0.43822 0.0
H353 H 0.92669 0.65835 0.45755 0.0
H354 H 0.88354 0.75798 0.38625 0.0
H355 H 0.91915 0.80283 0.3558 0.0
loop_
_geom_bond_atom_site_label_1
_geom_bond_atom_site_label_2
_geom_bond_distance
_geom_bond_site_symmetry_2
_ccdc_geom_bond_type
H0 C6 0.929 1_565 S
H1 C9 0.931 . S
H2 C11 0.930 1_565 S
H3 C13 0.930 . S
H4 C15 0.930 . S
H5 C17 0.928 1_565 S
C6 H0 0.929 1_545 S
C6 C7 1.380 1_545 S
C6 C8 1.394 1_554 S
C7 C6 1.380 1_565 S
C7 C11 1.382 1_565 S
C8 C6 1.394 1_556 S
C8 C9 1.400 . S
C9 H1 0.931 . S
C9 C8 1.400 . S
C9 C10 1.375 1_556 S
C10 C9 1.375 1_554 S
C10 C11 1.417 . S
C10 C12 1.501 . S
C11 H2 0.930 1_545 S
C11 C7 1.382 1_545 S
C11 C10 1.417 . S
C12 C10 1.501 . S
C12 C13 1.384 . S
C12 C17 1.411 1_554 S
C13 H3 0.930 . S
C13 C12 1.384 . S
C13 C14 1.389 . S
C14 C13 1.389 . S
C14 C15 1.405 . S
C15 H4 0.930 . S
C15 C14 1.405 . S
C15 C16 1.366 1_554 S
C16 C15 1.366 1_556 S
C16 C17 1.400 . S
C17 H5 0.928 1_545 S
C17 C12 1.411 1_556 S
C17 C16 1.400 . S
H18 C24 0.930 . S
H19 C27 0.931 . S
H20 C29 0.931 . S
H21 C31 0.930 . S
H22 C33 0.930 . S
H23 C35 0.931 . S
C24 H18 0.930 . S
C24 C25 1.380 . S
C24 C26 1.394 1_455 S
C25 C24 1.380 . S
C25 C29 1.382 . S
C26 C24 1.394 1_655 S
C26 C27 1.400 . S
C27 H19 0.931 . S
C27 C26 1.400 . S
C27 C28 1.375 1_655 S
C28 C27 1.375 1_455 S
C28 C29 1.415 . S
C28 C30 1.501 . S
C29 H20 0.931 . S
C29 C25 1.382 . S
C29 C28 1.415 . S
C30 C28 1.501 . S
C30 C31 1.384 1_455 S
C30 C35 1.408 . S
C31 H21 0.930 . S
C31 C30 1.384 1_655 S
C31 C32 1.389 . S
C32 C31 1.389 . S
C32 C33 1.405 1_655 S
C33 H22 0.930 . S
C33 C32 1.405 1_455 S
C33 C34 1.364 . S
C34 C33 1.364 . S
C34 C35 1.400 . S
C35 H23 0.931 . S
C35 C30 1.408 . S
C35 C34 1.400 . S
Li36 N53 1.990 . S
Li36 O96 1.956 . S
Li36 O97 1.970 1_455 S
Li36 O98 1.961 . S
Li37 N61 1.990 1_455 S
Li37 O96 1.970 1_565 S
Li37 O97 1.956 1_465 S
Li37 O99 1.961 . S
Li38 N83 1.990 . S
Li38 O96 1.961 . S
Li38 O98 1.956 . S
Li38 O99 1.970 1_545 S
Li39 N89 1.989 1_545 S
Li39 O97 1.962 . S
Li39 O98 1.986 1_655 S
Li39 O99 1.942 1_645 S
C40 C42 1.348 1_545 S
C40 C43 1.356 . S
C40 O96 1.325 . S
N41 C44 1.314 1_545 S
N41 C45 1.279 . S
C42 C40 1.348 1_565 S
C42 C44 1.353 . S
C42 H100 0.929 . S
C43 C40 1.356 . S
C43 C45 1.358 . S
C43 H101 0.930 . S
C44 N41 1.314 1_565 S
C44 C42 1.353 . S
C44 H102 0.930 . S
C45 N41 1.279 . S
C45 C43 1.358 . S
C45 H103 0.930 . S
C46 C49 1.348 . S
C46 C50 1.356 1_545 S
C46 O97 1.325 . S
C47 N48 1.279 . S
C47 C50 1.358 . S
C47 H104 0.930 . S
N48 C47 1.279 . S
N48 C51 1.314 1_565 S
C49 C46 1.348 . S
C49 C51 1.353 . S
C49 H105 0.929 . S
C50 C46 1.356 1_565 S
C50 C47 1.358 . S
C50 H106 0.930 . S
C51 N48 1.314 1_545 S
C51 C49 1.353 . S
C51 H107 0.930 . S
C52 N53 1.314 1_655 S
C52 C57 1.353 . S
C52 H58 0.930 . S
N53 Li36 1.990 . S
N53 C52 1.314 1_455 S
N53 C55 1.279 . S
C54 C55 1.358 . S
C54 C56 1.356 . S
C54 H108 0.930 . S
C55 N53 1.279 . S
C55 C54 1.358 . S
C55 H59 0.930 . S
C56 C54 1.356 . S
C56 C57 1.348 1_455 S
C57 C52 1.353 . S
C57 C56 1.348 1_655 S
C57 H109 0.929 . S
H58 C52 0.930 . S
H59 C55 0.930 . S
C60 N61 1.315 1_455 S
C60 C62 1.353 . S
C60 H66 0.930 . S
N61 Li37 1.990 1_655 S
N61 C60 1.315 1_655 S
N61 C64 1.279 . S
C62 C60 1.353 . S
C62 C65 1.348 . S
C62 H110 0.929 . S
C63 C64 1.358 . S
C63 C65 1.356 1_655 S
C63 H111 0.930 . S
C64 N61 1.279 . S
C64 C63 1.358 . S
C64 H67 0.930 . S
C65 C62 1.348 . S
C65 C63 1.356 1_455 S
H66 C60 0.930 . S
H67 C64 0.930 . S
C68 C70 1.348 1_455 S
C68 C71 1.356 . S
C68 O98 1.325 . S
N69 C72 1.314 1_455 S
N69 C73 1.279 . S
C70 C68 1.348 1_655 S
C70 C72 1.353 . S
C70 H112 0.929 . S
C71 C68 1.356 . S
C71 C73 1.358 . S
C71 H113 0.930 . S
C72 N69 1.314 1_655 S
C72 C70 1.353 . S
C72 H114 0.930 . S
C73 N69 1.279 . S
C73 C71 1.358 . S
C73 H115 0.930 . S
C74 C75 1.348 . S
C74 C76 1.356 1_455 S
C74 O99 1.325 . S
C75 C74 1.348 . S
C75 C77 1.353 . S
C75 H116 0.929 . S
C76 C74 1.356 1_655 S
C76 C78 1.358 . S
C76 H117 0.930 . S
C77 C75 1.353 . S
C77 N79 1.313 . S
C77 H118 0.930 . S
C78 C76 1.358 . S
C78 N79 1.280 1_655 S
C78 H119 0.930 . S
N79 C77 1.313 . S
N79 C78 1.280 1_455 S
C80 C82 1.353 . S
C80 N83 1.314 1_565 S
C80 H86 0.930 . S
C81 N83 1.279 . S
C81 C84 1.358 . S
C81 H87 0.930 . S
C82 C80 1.353 . S
C82 C85 1.348 1_565 S
C82 H120 0.929 . S
N83 Li38 1.990 . S
N83 C80 1.314 1_545 S
N83 C81 1.279 . S
C84 C81 1.358 . S
C84 C85 1.356 . S
C84 H121 0.930 . S
C85 C82 1.348 1_545 S
C85 C84 1.356 . S
H86 C80 0.930 . S
H87 C81 0.930 . S
C88 N89 1.314 1_545 S
C88 C90 1.353 . S
C88 H94 0.930 . S
N89 Li39 1.989 1_565 S
N89 C88 1.314 1_565 S
N89 C92 1.279 . S
C90 C88 1.353 . S
C90 C93 1.348 . S
C90 H122 0.929 . S
C91 C92 1.358 . S
C91 C93 1.356 1_565 S
C91 H123 0.930 . S
C92 N89 1.279 . S
C92 C91 1.358 . S
C92 H95 0.930 . S
C93 C90 1.348 . S
C93 C91 1.356 1_545 S
H94 C88 0.930 . S
H95 C92 0.930 . S
O96 Li36 1.956 . S
O96 Li37 1.970 1_545 S
O96 Li38 1.961 . S
O96 C40 1.325 . S
O97 Li36 1.970 1_655 S
O97 Li37 1.956 1_645 S
O97 Li39 1.962 . S
O97 C46 1.325 . S
O98 Li36 1.961 . S
O98 Li38 1.956 . S
O98 Li39 1.986 1_455 S
O98 C68 1.325 . S
O99 Li37 1.961 . S
O99 Li38 1.970 1_565 S
O99 Li39 1.942 1_465 S
O99 C74 1.325 . S
H100 C42 0.929 . S
H101 C43 0.930 . S
H102 C44 0.930 . S
H103 C45 0.930 . S
H104 C47 0.930 . S
H105 C49 0.929 . S
H106 C50 0.930 . S
H107 C51 0.930 . S
H108 C54 0.930 . S
H109 C57 0.929 . S
H110 C62 0.929 . S
H111 C63 0.930 . S
H112 C70 0.929 . S
H113 C71 0.930 . S
H114 C72 0.930 . S
H115 C73 0.930 . S
H116 C75 0.929 . S
H117 C76 0.930 . S
H118 C77 0.930 . S
H119 C78 0.930 . S
H120 C82 0.929 . S
H121 C84 0.930 . S
H122 C90 0.929 . S
H123 C91 0.930 . S
Li124 N141 1.990 . S
Li124 O184 1.956 1_655 S
Li124 O185 1.970 1_645 S
Li124 O186 1.961 . S
Li125 N149 1.990 1_545 S
Li125 O184 1.970 . S
Li125 O185 1.956 1_545 S
Li125 O187 1.961 . S
Li126 N171 1.990 1_455 S
Li126 O184 1.961 . S
Li126 O186 1.956 1_455 S
Li126 O187 1.970 . S
Li127 N177 1.990 . S
Li127 O185 1.961 . S
Li127 O186 1.970 1_465 S
Li127 O187 1.956 1_565 S
C128 C130 1.348 . S
C128 C131 1.356 1_455 S
C128 O184 1.325 . S
N129 C132 1.311 1_655 S
N129 C133 1.282 . S
C130 C128 1.348 . S
C130 C132 1.353 . S
C130 H188 0.929 . S
C131 C128 1.356 1_655 S
C131 C133 1.358 . S
C131 H189 0.930 . S
C132 N129 1.311 1_455 S
C132 C130 1.353 . S
C132 H190 0.930 . S
C133 N129 1.282 . S
C133 C131 1.358 . S
C133 H191 0.930 . S
C134 C137 1.348 1_455 S
C134 C138 1.356 . S
C134 O185 1.325 . S
C135 N136 1.279 . S
C135 C138 1.358 . S
C135 H192 0.930 . S
N136 C135 1.279 . S
N136 C139 1.314 1_455 S
C137 C134 1.348 1_655 S
C137 C139 1.353 . S
C137 H193 0.929 . S
C138 C134 1.356 . S
C138 C135 1.358 . S
C138 H194 0.930 . S
C139 N136 1.314 1_655 S
C139 C137 1.353 . S
C139 H195 0.930 . S
C140 N141 1.314 1_565 S
C140 C145 1.353 . S
C140 H146 0.930 . S
N141 Li124 1.990 . S
N141 C140 1.314 1_545 S
N141 C143 1.279 . S
C142 C143 1.358 . S
C142 C144 1.356 . S
C142 H196 0.930 . S
C143 N141 1.279 . S
C143 C142 1.358 . S
C143 H147 0.930 . S
C144 C142 1.356 . S
C144 C145 1.348 1_545 S
C145 C140 1.353 . S
C145 C144 1.348 1_565 S
C145 H197 0.929 . S
H146 C140 0.930 . S
H147 C143 0.930 . S
C148 N149 1.314 1_545 S
C148 C150 1.353 . S
C148 H154 0.930 . S
N149 Li125 1.990 1_565 S
N149 C148 1.314 1_565 S
N149 C152 1.279 . S
C150 C148 1.353 . S
C150 C153 1.348 . S
C150 H198 0.929 . S
C151 C152 1.358 . S
C151 C153 1.356 1_565 S
C151 H199 0.930 . S
C152 N149 1.279 . S
C152 C151 1.358 . S
C152 H155 0.930 . S
C153 C150 1.348 . S
C153 C151 1.356 1_545 S
H154 C148 0.930 . S
H155 C152 0.930 . S
C156 C158 1.348 1_545 S
C156 C159 1.356 . S
C156 O186 1.325 . S
N157 C160 1.314 1_545 S
N157 C161 1.279 . S
C158 C156 1.348 1_565 S
C158 C160 1.353 . S
C158 H200 0.929 . S
C159 C156 1.356 . S
C159 C161 1.358 . S
C159 H201 0.930 . S
C160 N157 1.314 1_565 S
C160 C158 1.353 . S
C160 H202 0.930 . S
C161 N157 1.279 . S
C161 C159 1.358 . S
C161 H203 0.930 . S
C162 C163 1.348 . S
C162 C164 1.356 1_545 S
C162 O187 1.325 . S
C163 C162 1.348 . S
C163 C165 1.353 . S
C163 H204 0.929 . S
C164 C162 1.356 1_565 S
C164 C166 1.358 . S
C164 H205 0.930 . S
C165 C163 1.353 . S
C165 N167 1.314 1_545 S
C165 H206 0.930 . S
C166 C164 1.358 . S
C166 N167 1.279 . S
C166 H207 0.930 . S
N167 C165 1.314 1_565 S
N167 C166 1.279 . S
C168 C170 1.353 . S
C168 N171 1.313 1_455 S
C168 H174 0.930 . S
C169 N171 1.281 . S
C169 C172 1.358 . S
C169 H175 0.930 . S
C170 C168 1.353 . S
C170 C173 1.348 . S
C170 H208 0.929 . S
N171 Li126 1.990 1_655 S
N171 C168 1.313 1_655 S
N171 C169 1.281 . S
C172 C169 1.358 . S
C172 C173 1.356 1_655 S
C172 H209 0.930 . S
C173 C170 1.348 . S
C173 C172 1.356 1_455 S
H174 C168 0.930 . S
H175 C169 0.930 . S
C176 N177 1.314 1_655 S
C176 C178 1.353 . S
C176 H182 0.930 . S
N177 Li127 1.990 . S
N177 C176 1.314 1_455 S
N177 C180 1.279 . S
C178 C176 1.353 . S
C178 C181 1.348 1_655 S
C178 H210 0.929 . S
C179 C180 1.358 . S
C179 C181 1.356 . S
C179 H211 0.930 . S
C180 N177 1.279 . S
C180 C179 1.358 . S
C180 H183 0.930 . S
C181 C178 1.348 1_455 S
C181 C179 1.356 . S
H182 C176 0.930 . S
H183 C180 0.930 . S
O184 Li124 1.956 1_455 S
O184 Li125 1.970 . S
O184 Li126 1.961 . S
O184 C128 1.325 . S
O185 Li124 1.970 1_465 S
O185 Li125 1.956 1_565 S
O185 Li127 1.961 . S
O185 C134 1.325 . S
O186 Li124 1.961 . S
O186 Li126 1.956 1_655 S
O186 Li127 1.970 1_645 S
O186 C156 1.325 . S
O187 Li125 1.961 . S
O187 Li126 1.970 . S
O187 Li127 1.956 1_545 S
O187 C162 1.325 . S
H188 C130 0.929 . S
H189 C131 0.930 . S
H190 C132 0.930 . S
H191 C133 0.930 . S
H192 C135 0.930 . S
H193 C137 0.929 . S
H194 C138 0.930 . S
H195 C139 0.930 . S
H196 C142 0.930 . S
H197 C145 0.929 . S
H198 C150 0.929 . S
H199 C151 0.930 . S
H200 C158 0.929 . S
H201 C159 0.930 . S
H202 C160 0.930 . S
H203 C161 0.930 . S
H204 C163 0.929 . S
H205 C164 0.930 . S
H206 C165 0.930 . S
H207 C166 0.930 . S
H208 C170 0.929 . S
H209 C172 0.930 . S
H210 C178 0.929 . S
H211 C179 0.930 . S
C212 C213 1.363 . S
C212 C218 1.379 . S
C212 N220 1.356 . S
C213 C212 1.363 . S
C213 C219 1.363 1_565 S
C214 C215 1.378 . S
C214 C219 1.379 . S
C214 N221 1.356 . S
C215 C214 1.378 . S
C215 C218 1.348 1_545 S
N216 C218 1.356 . S
N216 H228 0.984 . S
N216 H229 0.985 . S
N217 C219 1.356 . S
N217 H222 0.984 . S
N217 H223 0.985 . S
C218 C212 1.379 . S
C218 C215 1.348 1_565 S
C218 N216 1.356 . S
C219 C213 1.363 1_545 S
C219 C214 1.379 . S
C219 N217 1.356 . S
N220 C212 1.356 . S
N220 H226 0.984 . S
N220 H227 0.984 . S
N221 C214 1.356 . S
N221 H224 0.984 . S
N221 H225 0.985 . S
H222 N217 0.984 . S
H223 N217 0.985 . S
H224 N221 0.984 . S
H225 N221 0.985 . S
H226 N220 0.984 . S
H227 N220 0.984 . S
H228 N216 0.984 . S
H229 N216 0.985 . S
C230 C231 1.363 . S
C230 C236 1.379 . S
C230 N238 1.356 . S
C231 C230 1.363 . S
C231 C237 1.363 . S
C232 C233 1.363 . S
C232 C237 1.379 . S
C232 N239 1.356 . S
C233 C232 1.363 . S
C233 C236 1.363 . S
N234 C236 1.356 . S
N234 H246 0.984 . S
N234 H247 0.985 . S
N235 C237 1.356 . S
N235 H240 0.984 . S
N235 H241 0.985 . S
C236 C230 1.379 . S
C236 C233 1.363 . S
C236 N234 1.356 . S
C237 C231 1.363 . S
C237 C232 1.379 . S
C237 N235 1.356 . S
N238 C230 1.356 . S
N238 H244 0.984 . S
N238 H245 0.984 . S
N239 C232 1.356 . S
N239 H242 0.984 . S
N239 H243 0.985 . S
H240 N235 0.984 . S
H241 N235 0.985 . S
H242 N239 0.984 . S
H243 N239 0.985 . S
H244 N238 0.984 . S
H245 N238 0.984 . S
H246 N234 0.984 . S
H247 N234 0.985 . S
C248 C249 1.363 1_565 S
C248 C254 1.379 . S
C248 N256 1.356 . S
C249 C248 1.363 1_545 S
C249 C255 1.363 . S
C250 C251 1.363 . S
C250 C255 1.379 . S
C250 N257 1.356 . S
C251 C250 1.363 . S
C251 C254 1.363 1_545 S
N252 C254 1.356 . S
N252 H264 0.984 . S
N252 H265 0.985 . S
N253 C255 1.356 . S
N253 H258 0.984 . S
N253 H259 0.985 . S
C254 C248 1.379 . S
C254 C251 1.363 1_565 S
C254 N252 1.356 . S
C255 C249 1.363 . S
C255 C250 1.379 . S
C255 N253 1.356 . S
N256 C248 1.356 . S
N256 H262 0.984 . S
N256 H263 0.984 . S
N257 C250 1.356 . S
N257 H260 0.984 . S
N257 H261 0.985 . S
H258 N253 0.984 . S
H259 N253 0.985 . S
H260 N257 0.984 . S
H261 N257 0.985 . S
H262 N256 0.984 . S
H263 N256 0.984 . S
H264 N252 0.984 . S
H265 N252 0.985 . S
C266 C267 1.363 1_455 S
C266 C272 1.379 . S
C266 N274 1.356 . S
C267 C266 1.363 1_655 S
C267 C273 1.363 . S
C268 C269 1.363 1_655 S
C268 C273 1.379 . S
C268 N275 1.356 . S
C269 C268 1.363 1_455 S
C269 C272 1.363 . S
N270 C272 1.356 . S
N270 H282 0.984 . S
N270 H283 0.985 . S
N271 C273 1.356 . S
N271 H276 0.984 . S
N271 H277 0.985 . S
C272 C266 1.379 . S
C272 C269 1.363 . S
C272 N270 1.356 . S
C273 C267 1.363 . S
C273 C268 1.379 . S
C273 N271 1.356 . S
N274 C266 1.356 . S
N274 H280 0.984 . S
N274 H281 0.984 . S
N275 C268 1.356 . S
N275 H278 0.984 . S
N275 H279 0.985 . S
H276 N271 0.984 . S
H277 N271 0.985 . S
H278 N275 0.984 . S
H279 N275 0.985 . S
H280 N274 0.984 . S
H281 N274 0.984 . S
H282 N270 0.984 . S
H283 N270 0.985 . S
C284 C285 1.363 . S
C284 C290 1.379 . S
C284 N292 1.356 . S
C285 C284 1.363 . S
C285 C291 1.363 1_545 S
C286 C287 1.363 1_565 S
C286 C291 1.379 . S
C286 N293 1.356 . S
C287 C286 1.363 1_545 S
C287 C290 1.363 . S
N288 C290 1.356 . S
N288 H300 0.984 . S
N288 H301 0.985 . S
N289 C291 1.356 . S
N289 H294 0.984 . S
N289 H295 0.985 . S
C290 C284 1.379 . S
C290 C287 1.363 . S
C290 N288 1.356 . S
C291 C285 1.363 1_565 S
C291 C286 1.379 . S
C291 N289 1.356 . S
N292 C284 1.356 . S
N292 H298 0.984 . S
N292 H299 0.984 . S
N293 C286 1.356 . S
N293 H296 0.984 . S
N293 H297 0.985 . S
H294 N289 0.984 . S
H295 N289 0.985 . S
H296 N293 0.984 . S
H297 N293 0.985 . S
H298 N292 0.984 . S
H299 N292 0.984 . S
H300 N288 0.984 . S
H301 N288 0.985 . S
C302 C303 1.364 1_455 S
C302 C308 1.379 . S
C302 N310 1.356 . S
C303 C302 1.364 1_655 S
C303 C309 1.362 . S
C304 C305 1.363 1_655 S
C304 C309 1.379 . S
C304 N311 1.356 . S
C305 C304 1.363 1_455 S
C305 C308 1.363 . S
N306 C308 1.356 . S
N306 H318 0.984 . S
N306 H319 0.985 . S
N307 C309 1.356 . S
N307 H312 0.984 . S
N307 H313 0.985 . S
C308 C302 1.379 . S
C308 C305 1.363 . S
C308 N306 1.356 . S
C309 C303 1.362 . S
C309 C304 1.379 . S
C309 N307 1.356 . S
N310 C302 1.356 . S
N310 H316 0.984 . S
N310 H317 0.984 . S
N311 C304 1.356 . S
N311 H314 0.984 . S
N311 H315 0.985 . S
H312 N307 0.984 . S
H313 N307 0.985 . S
H314 N311 0.984 . S
H315 N311 0.985 . S
H316 N310 0.984 . S
H317 N310 0.984 . S
H318 N306 0.984 . S
H319 N306 0.985 . S
C320 C321 1.363 1_545 S
C320 C326 1.379 . S
C320 N328 1.356 . S
C321 C320 1.363 1_565 S
C321 C327 1.363 . S
C322 C323 1.363 1_565 S
C322 C327 1.379 . S
C322 N329 1.356 . S
C323 C322 1.363 1_545 S
C323 C326 1.363 . S
N324 C326 1.356 . S
N324 H336 0.984 . S
N324 H337 0.985 . S
N325 C327 1.356 . S
N325 H330 0.984 . S
N325 H331 0.985 . S
C326 C320 1.379 . S
C326 C323 1.363 . S
C326 N324 1.356 . S
C327 C321 1.363 . S
C327 C322 1.379 . S
C327 N325 1.356 . S
N328 C320 1.356 . S
N328 H334 0.984 . S
N328 H335 0.984 . S
N329 C322 1.356 . S
N329 H332 0.984 . S
N329 H333 0.985 . S
H330 N325 0.984 . S
H331 N325 0.985 . S
H332 N329 0.984 . S
H333 N329 0.985 . S
H334 N328 0.984 . S
H335 N328 0.984 . S
H336 N324 0.984 . S
H337 N324 0.985 . S
C338 C339 1.363 1_655 S
C338 C344 1.379 . S
C338 N346 1.356 . S
C339 C338 1.363 1_455 S
C339 C345 1.363 . S
C340 C341 1.363 . S
C340 C345 1.379 . S
C340 N347 1.356 . S
C341 C340 1.363 . S
C341 C344 1.363 1_455 S
N342 C344 1.356 . S
N342 H354 0.984 . S
N342 H355 0.985 . S
N343 C345 1.356 . S
N343 H348 0.984 . S
N343 H349 0.985 . S
C344 C338 1.379 . S
C344 C341 1.363 1_655 S
C344 N342 1.356 . S
C345 C339 1.363 . S
C345 C340 1.379 . S
C345 N343 1.356 . S
N346 C338 1.356 . S
N346 H352 0.984 . S
N346 H353 0.984 . S
N347 C340 1.356 . S
N347 H350 0.984 . S
N347 H351 0.985 . S
H348 N343 0.984 . S
H349 N343 0.985 . S
H350 N347 0.984 . S
H351 N347 0.985 . S
H352 N346 0.984 . S
H353 N346 0.984 . S
H354 N342 0.984 . S
H355 N342 0.985 . S
C215 C85 1.546 . S
C213 C7 1.485 . S
C233 C173 1.541 . S
C231 C34 1.481 . S
C251 C93 1.547 . S
C249 C14 1.493 . S
C269 C181 1.539 . S
C267 C26 1.486 . S
C287 C153 1.538 . S
C285 C8 1.486 . S
C305 C56 1.547 . S
C303 C32 1.492 . S
C323 C144 1.541 . S
C321 C16 1.481 1_565 S
C339 C25 1.485 . S
C341 C65 1.545 . S
