# Generated by pormake.
# Topology anh, (6,3)-cn, num edge types: 1
# Building blocks:
#     Node 0, Type 0, BuildingBlock: PAMTOO_clean_sbu_0, # of connection points: 6
#     Node 1, Type 0, BuildingBlock: PAMTOO_clean_sbu_0, # of connection points: 6
#     Node 2, Type 0, BuildingBlock: PAMTOO_clean_sbu_0, # of connection points: 6
#     Node 3, Type 1, BuildingBlock: KAKCAD_clean_linker_0, # of connection points: 3
#     Node 4, Type 1, BuildingBlock: KAKCAD_clean_linker_0, # of connection points: 3
#     Node 5, Type 1, BuildingBlock: KAKCAD_clean_linker_0, # of connection points: 3
#     Node 6, Type 1, BuildingBlock: KAKCAD_clean_linker_0, # of connection points: 3
#     Node 7, Type 1, BuildingBlock: KAKCAD_clean_linker_0, # of connection points: 3
#     Node 8, Type 1, BuildingBlock: KAKCAD_clean_linker_0, # of connection points: 3
#     Edge 9, Type (0, 1), BuildingBlock: XIVTED_clean_linker_0, # of connection points: 2
#     Edge 10, Type (0, 1), BuildingBlock: XIVTED_clean_linker_0, # of connection points: 2
#     Edge 11, Type (0, 1), BuildingBlock: XIVTED_clean_linker_0, # of connection points: 2
#     Edge 12, Type (0, 1), BuildingBlock: XIVTED_clean_linker_0, # of connection points: 2
#     Edge 13, Type (0, 1), BuildingBlock: XIVTED_clean_linker_0, # of connection points: 2
#     Edge 14, Type (0, 1), BuildingBlock: XIVTED_clean_linker_0, # of connection points: 2
#     Edge 15, Type (0, 1), BuildingBlock: XIVTED_clean_linker_0, # of connection points: 2
#     Edge 16, Type (0, 1), BuildingBlock: XIVTED_clean_linker_0, # of connection points: 2
#     Edge 17, Type (0, 1), BuildingBlock: XIVTED_clean_linker_0, # of connection points: 2
#     Edge 18, Type (0, 1), BuildingBlock: XIVTED_clean_linker_0, # of connection points: 2
#     Edge 19, Type (0, 1), BuildingBlock: XIVTED_clean_linker_0, # of connection points: 2
#     Edge 20, Type (0, 1), BuildingBlock: XIVTED_clean_linker_0, # of connection points: 2
#     Edge 21, Type (0, 1), BuildingBlock: XIVTED_clean_linker_0, # of connection points: 2
#     Edge 22, Type (0, 1), BuildingBlock: XIVTED_clean_linker_0, # of connection points: 2
#     Edge 23, Type (0, 1), BuildingBlock: XIVTED_clean_linker_0, # of connection points: 2
#     Edge 24, Type (0, 1), BuildingBlock: XIVTED_clean_linker_0, # of connection points: 2
#     Edge 25, Type (0, 1), BuildingBlock: XIVTED_clean_linker_0, # of connection points: 2
#     Edge 26, Type (0, 1), BuildingBlock: XIVTED_clean_linker_0, # of connection points: 2
# Relax obj value: 0.179
# Max RMSD: 0.195
# Mean RMSD: 0.155
data_MOF--net-anh--node1-PAMTOO_clean_sbu_0--node2-KAKCAD_clean_linker_0--edge1-XIVTED_clean_linker_0
_symmetry_space_group_name_H-M    P1
_symmetry_Int_Tables_number       1
_symmetry_cell_setting            triclinic
loop_
_symmetry_equiv_pos_as_xyz
'x, y, z'
_cell_length_a     36.584837
_cell_length_b     35.770586
_cell_length_c     67.084409
_cell_angle_alpha  90.225128
_cell_angle_beta   94.476531
_cell_angle_gamma 105.25798
loop_
_atom_site_label
_atom_site_type_symbol
_atom_site_fract_x
_atom_site_fract_y
_atom_site_fract_z
_atom_type_partial_charge
Dy0 Dy 0.07031 0.59861 0.1484 0.0
Dy1 Dy 1.04468 0.50352 0.13983 0.0
C2 C 1.05521 0.56335 0.10508 0.0
O3 O 1.0078 0.58255 0.15281 0.0
O4 O 0.98985 0.52101 0.13849 0.0
O5 O 0.09329 0.65482 0.13624 0.0
O6 O 0.07741 0.65023 0.16677 0.0
O7 O 1.03839 0.51334 0.17213 0.0
O8 O 0.08268 0.57192 0.17711 0.0
O9 O 0.10824 0.51722 0.14564 0.0
O10 O 0.12442 0.58353 0.14223 0.0
O11 O 1.04568 0.44544 0.14795 0.0
O12 O 1.01255 0.45477 0.12113 0.0
C13 C 0.98137 0.55142 0.1461 0.0
O14 O 1.04384 0.58546 0.11743 0.0
O15 O 0.06425 0.53212 0.11148 0.0
C16 C 0.13065 0.70063 0.1596 0.0
C17 C 0.2021 0.75346 0.16947 0.0
C18 C 0.17157 0.76623 0.16051 0.0
C19 C 0.13619 0.74003 0.15564 0.0
C20 C 0.16082 0.6876 0.16859 0.0
C21 C 0.1962 0.7138 0.17355 0.0
C22 C 0.09411 0.67312 0.15317 0.0
C23 C 0.06116 0.54016 0.18404 0.0
C24 C 0.13387 0.55049 0.144 0.0
C25 C 0.98662 0.40047 0.14004 0.0
C26 C 0.92253 0.34506 0.15234 0.0
C27 C 0.93204 0.38353 0.15985 0.0
C28 C 0.96371 0.41096 0.15372 0.0
C29 C 0.97734 0.36233 0.13244 0.0
C30 C 0.94556 0.33483 0.13852 0.0
C31 C 1.01995 0.42941 0.13367 0.0
H32 H 0.17519 0.79637 0.15684 0.0
H33 H 0.11331 0.75045 0.14847 0.0
H34 H 0.15708 0.65714 0.1716 0.0
H35 H 0.21886 0.70299 0.18065 0.0
H36 H 0.91537 0.39237 0.17071 0.0
H37 H 0.97047 0.44037 0.15974 0.0
H38 H 0.99461 0.35382 0.12177 0.0
H39 H 0.93882 0.30567 0.13222 0.0
Dy40 Dy 0.55043 0.01351 0.51935 0.0
Dy41 Dy 0.64396 0.03804 0.52342 0.0
C42 C 0.59721 0.02181 0.561 0.0
O43 O 0.56642 0.07699 0.51395 0.0
O44 O 0.62734 0.0929 0.5289 0.0
O45 O 0.4985 0.98915 0.53326 0.0
O46 O 0.49633 0.01075 0.50318 0.0
O47 O 0.62481 0.05026 0.49233 0.0
O48 O 0.56917 0.0025 0.48951 0.0
O49 O 0.62856 0.97425 0.51682 0.0
O50 O 0.56571 0.95749 0.52385 0.0
O51 O 0.69761 0.03922 0.51183 0.0
O52 O 0.69635 0.06634 0.54064 0.0
C53 C 0.59713 0.10285 0.5213 0.0
O54 O 0.57146 0.03475 0.55061 0.0
O55 O 0.62408 0.01216 0.55207 0.0
C56 C 0.44834 0.95575 0.51079 0.0
C57 C 0.39376 0.8854 0.50033 0.0
C58 C 0.38388 0.91502 0.5108 0.0
C59 C 0.41097 0.94991 0.51597 0.0
C60 C 0.45847 0.92644 0.50034 0.0
C61 C 0.43138 0.8916 0.4951 0.0
C62 C 0.47698 0.99165 0.51717 0.0
C63 C 0.59705 0.02668 0.48127 0.0
C64 C 0.59695 0.94811 0.52007 0.0
C65 C 0.74319 0.09782 0.52006 0.0
C66 C 0.79266 0.16645 0.50759 0.0
C67 C 0.75318 0.15894 0.50303 0.0
C68 C 0.72866 0.12493 0.50925 0.0
C69 C 0.78242 0.10524 0.52485 0.0
C70 C 0.80703 0.13939 0.51869 0.0
C71 C 0.71722 0.06202 0.52634 0.0
H72 H 0.35537 0.91102 0.51535 0.0
H73 H 0.40287 0.97214 0.52424 0.0
H74 H 0.48737 0.93045 0.49636 0.0
H75 H 0.43986 0.86965 0.48682 0.0
H76 H 0.74121 0.17947 0.49476 0.0
H77 H 0.69833 0.11972 0.50557 0.0
H78 H 0.79399 0.08456 0.53324 0.0
H79 H 0.83733 0.14424 0.52226 0.0
Dy80 Dy 0.58565 0.45532 0.84164 0.0
Dy81 Dy 0.49269 0.43145 0.83883 0.0
C82 C 0.53698 0.4491 0.80026 0.0
O83 O 0.56981 0.50986 0.83339 0.0
O84 O 0.51057 0.4956 0.8452 0.0
O85 O 0.64042 0.48436 0.85634 0.0
O86 O 0.63707 0.45179 0.82878 0.0
O87 O 0.51141 0.42214 0.87046 0.0
O88 O 0.56887 0.46727 0.87178 0.0
O89 O 0.50998 0.37697 0.8333 0.0
O90 O 0.56868 0.39351 0.85061 0.0
O91 O 0.4398 0.42546 0.85213 0.0
O92 O 0.4394 0.40737 0.82123 0.0
C93 C 0.54057 0.52079 0.83915 0.0
O94 O 0.56405 0.43735 0.81009 0.0
O95 O 0.50987 0.45712 0.80966 0.0
C96 C 0.68523 0.50984 0.83351 0.0
C97 C 0.73636 0.57653 0.82022 0.0
C98 C 0.69726 0.57381 0.81924 0.0
C99 C 0.67187 0.54061 0.82573 0.0
C100 C 0.72397 0.51181 0.8339 0.0
C101 C 0.74938 0.54487 0.82724 0.0
C102 C 0.65897 0.47639 0.84181 0.0
C103 C 0.54019 0.44603 0.8807 0.0
C104 C 0.53916 0.36718 0.84238 0.0
C105 C 0.394 0.43959 0.82909 0.0
C106 C 0.34578 0.48695 0.81776 0.0
C107 C 0.38219 0.50314 0.82729 0.0
C108 C 0.40606 0.47973 0.83278 0.0
C109 C 0.35809 0.42321 0.81925 0.0
C110 C 0.33409 0.44672 0.81361 0.0
C111 C 0.41946 0.41535 0.83516 0.0
H112 H 0.68643 0.59763 0.8138 0.0
H113 H 0.64192 0.5393 0.82513 0.0
H114 H 0.73468 0.48824 0.83981 0.0
H115 H 0.77942 0.54634 0.82846 0.0
H116 H 0.39195 0.53378 0.83112 0.0
H117 H 0.43379 0.49295 0.84025 0.0
H118 H 0.34855 0.3923 0.81605 0.0
H119 H 0.30638 0.4334 0.8061 0.0
C120 C 0.60724 0.07494 0.32201 0.0
C121 C 0.59955 0.03922 0.33168 0.0
C122 C 0.60564 0.07617 0.30113 0.0
C123 C 0.59634 0.04172 0.28946 0.0
C124 C 0.58942 0.00607 0.29917 0.0
C125 C 0.59097 0.00483 0.32002 0.0
C126 C 0.5926 0.04279 0.26726 0.0
C127 C 0.61876 0.07019 0.25692 0.0
C128 C 0.61497 0.07139 0.23591 0.0
C129 C 0.58434 0.04477 0.22523 0.0
C130 C 0.558 0.01713 0.23537 0.0
C131 C 0.56237 0.01643 0.25633 0.0
C132 C 0.52516 0.9893 0.2244 0.0
C133 C 0.50159 0.00217 0.20998 0.0
C134 C 0.51564 0.94999 0.22939 0.0
C135 C 0.48255 0.92433 0.22068 0.0
C136 C 0.45807 0.93745 0.20688 0.0
C137 C 0.64346 0.1001 0.22524 0.0
C138 C 0.65673 0.13868 0.2324 0.0
C139 C 0.65853 0.08891 0.20823 0.0
C140 C 0.68686 0.11549 0.19889 0.0
C141 C 0.70056 0.15392 0.20625 0.0
C142 C 0.68487 0.16528 0.223 0.0
C143 C 0.46824 0.97652 0.20138 0.0
H144 H 0.61352 0.10194 0.33055 0.0
H145 H 0.61068 0.10409 0.29411 0.0
H146 H 0.58286 0.97902 0.29063 0.0
H147 H 0.58561 0.97688 0.32701 0.0
H148 H 0.64271 0.09001 0.26523 0.0
H149 H 0.54141 0.99593 0.2642 0.0
H150 H 0.58097 0.04554 0.20905 0.0
H151 H 0.50816 0.03236 0.20594 0.0
H152 H 0.53347 0.93923 0.24035 0.0
H153 H 0.47541 0.89452 0.22537 0.0
H154 H 0.64542 0.14829 0.24536 0.0
H155 H 0.64909 0.05934 0.20243 0.0
H156 H 0.45012 0.98738 0.19064 0.0
H157 H 0.69498 0.19455 0.22917 0.0
H158 H 0.69808 0.10592 0.18589 0.0
C159 C 0.54472 0.51953 0.64322 0.0
C160 C 0.56791 0.50077 0.65491 0.0
C161 C 0.55009 0.52621 0.62299 0.0
C162 C 0.57836 0.51377 0.614 0.0
C163 C 0.60203 0.49583 0.62568 0.0
C164 C 0.59711 0.48971 0.64593 0.0
C165 C 0.58214 0.51767 0.59229 0.0
C166 C 0.58681 0.55366 0.58327 0.0
C167 C 0.59113 0.55731 0.56264 0.0
C168 C 0.59009 0.52409 0.55097 0.0
C169 C 0.58482 0.48774 0.55992 0.0
C170 C 0.58114 0.48495 0.58055 0.0
C171 C 0.58348 0.45205 0.54831 0.0
C172 C 0.55284 0.41918 0.54969 0.0
C173 C 0.61477 0.44878 0.53825 0.0
C174 C 0.61635 0.41262 0.53078 0.0
C175 C 0.58644 0.37927 0.53307 0.0
C176 C 0.59632 0.596 0.55362 0.0
C177 C 0.57346 0.60125 0.53659 0.0
C178 C 0.62237 0.62855 0.56297 0.0
C179 C 0.62464 0.6657 0.55591 0.0
C180 C 0.6007 0.67126 0.5394 0.0
C181 C 0.57545 0.63857 0.52963 0.0
C182 C 0.55421 0.38325 0.54209 0.0
H183 H 0.52168 0.52808 0.64951 0.0
H184 H 0.53133 0.53988 0.6142 0.0
H185 H 0.62434 0.48643 0.61909 0.0
H186 H 0.61623 0.47619 0.65451 0.0
H187 H 0.58722 0.57892 0.59236 0.0
H188 H 0.57743 0.45704 0.58754 0.0
H189 H 0.59333 0.52647 0.53507 0.0
H190 H 0.52844 0.421 0.55745 0.0
H191 H 0.63886 0.4737 0.53716 0.0
H192 H 0.6414 0.41054 0.52373 0.0
H193 H 0.55302 0.57668 0.52915 0.0
H194 H 0.64052 0.62531 0.57605 0.0
H195 H 0.53085 0.3582 0.5443 0.0
H196 H 0.55688 0.6419 0.51676 0.0
H197 H 0.64415 0.69022 0.5639 0.0
C198 C 0.13069 0.69361 0.96277 0.0
C199 C 0.09627 0.66962 0.96846 0.0
C200 C 0.13258 0.70984 0.9438 0.0
C201 C 0.09988 0.70303 0.93043 0.0
C202 C 0.06543 0.6794 0.93625 0.0
C203 C 0.0637 0.66265 0.95502 0.0
C204 C 0.10166 0.71823 0.90994 0.0
C205 C 0.12743 0.70976 0.89738 0.0
C206 C 0.12459 0.71722 0.87686 0.0
C207 C 0.09618 0.73421 0.86909 0.0
C208 C 0.07022 0.74327 0.88148 0.0
C209 C 0.07404 0.73611 0.90206 0.0
C210 C 1.03583 0.75383 0.87237 0.0
C211 C 1.0367 0.77385 0.85426 0.0
C212 C 1.00051 0.73913 0.8803 0.0
C213 C 0.96698 0.74167 0.86976 0.0
C214 C 0.9677 0.75819 0.85081 0.0
C215 C 0.14761 0.70204 0.86322 0.0
C216 C 0.18637 0.70572 0.86835 0.0
C217 C 0.13003 0.68068 0.84582 0.0
C218 C 0.15028 0.6618 0.83434 0.0
C219 C 0.18853 0.66386 0.84003 0.0
C220 C 0.20668 0.68689 0.85683 0.0
C221 C 1.00288 0.77543 0.84341 0.0
H222 H 0.15621 0.69934 0.97288 0.0
H223 H 0.1595 0.72776 0.93957 0.0
H224 H 1.03993 0.67321 0.9261 0.0
H225 H 1.03676 0.64457 0.95913 0.0
H226 H 0.14768 0.69444 0.90328 0.0
H227 H 1.05446 0.74276 0.91195 0.0
H228 H 0.09305 0.7381 0.85312 0.0
H229 H 0.06335 0.78656 0.84791 0.0
H230 H 0.99808 0.72286 0.89391 0.0
H231 H 0.94023 0.72752 0.87569 0.0
H232 H 0.20067 0.72219 0.88162 0.0
H233 H 0.10007 0.67689 0.84158 0.0
H234 H 1.00412 0.78845 0.82884 0.0
H235 H 0.23604 0.68873 0.86171 0.0
H236 H 0.13566 0.64451 0.82139 0.0
C237 C 1.03874 0.52141 0.34364 0.0
C238 C 0.06873 0.51715 0.33277 0.0
C239 C 1.04173 0.52016 0.3645 0.0
C240 C 0.07509 0.5155 0.37479 0.0
C241 C 0.1051 0.51126 0.36393 0.0
C242 C 0.10177 0.51164 0.34304 0.0
C243 C 0.07881 0.51584 0.39686 0.0
C244 C 1.05173 0.48998 0.40731 0.0
C245 C 1.05484 0.49037 0.42831 0.0
C246 C 0.08503 0.51765 0.43883 0.0
C247 C 0.11204 0.5442 0.4285 0.0
C248 C 0.109 0.54267 0.40749 0.0
C249 C 0.14227 0.57494 0.43946 0.0
C250 C 0.13344 0.5966 0.45503 0.0
C251 C 0.17957 0.58456 0.43356 0.0
C252 C 0.20712 0.61604 0.44256 0.0
C253 C 0.19789 0.63867 0.45758 0.0
C254 C 1.02681 0.46172 0.43911 0.0
C255 C 0.98782 0.45395 0.43319 0.0
C256 C 1.03895 0.44057 0.45468 0.0
C257 C 1.01271 0.41114 0.46364 0.0
C258 C 0.97378 0.40245 0.45727 0.0
C259 C 0.96158 0.42474 0.44222 0.0
C260 C 0.16094 0.62821 0.46397 0.0
H261 H 1.01299 0.52562 0.33598 0.0
H262 H 1.01834 0.52365 0.37262 0.0
H263 H 0.13102 0.50753 0.37161 0.0
H264 H 0.12531 0.50855 0.33492 0.0
H265 H 1.02872 0.46887 0.39903 0.0
H266 H 0.12924 0.5634 0.39932 0.0
H267 H 0.0873 0.51842 0.45504 0.0
H268 H 0.10488 0.59005 0.4598 0.0
H269 H 0.18727 0.56814 0.42172 0.0
H270 H 0.23526 0.62352 0.43722 0.0
H271 H 0.97763 0.47028 0.42144 0.0
H272 H 0.06889 0.44576 0.45942 0.0
H273 H 0.15312 0.64484 0.47567 0.0
H274 H 0.93173 0.4194 0.43726 0.0
H275 H 1.02314 0.39429 0.47504 0.0
C276 C 0.55312 0.93988 0.71385 0.0
C277 C 0.57675 0.97446 0.70732 0.0
C278 C 0.54885 0.93417 0.73424 0.0
C279 C 0.56863 0.96272 0.74855 0.0
C280 C 0.59306 0.9969 0.74191 0.0
C281 C 0.59677 0.00284 0.72152 0.0
C282 C 0.56317 0.95744 0.77026 0.0
C283 C 0.55782 0.9208 0.77881 0.0
C284 C 0.55236 0.91579 0.79926 0.0
C285 C 0.55261 0.94817 0.81137 0.0
C286 C 0.55816 0.98506 0.803 0.0
C287 C 0.56306 0.98925 0.78253 0.0
C288 C 0.55843 0.01998 0.81504 0.0
C289 C 0.52605 0.02257 0.8243 0.0
C290 C 0.58922 0.05304 0.81469 0.0
C291 C 0.58701 0.08854 0.8225 0.0
C292 C 0.55375 0.09192 0.83068 0.0
C293 C 0.54722 0.87651 0.80764 0.0
C294 C 0.52122 0.84445 0.79783 0.0
C295 C 0.57035 0.87024 0.82433 0.0
C296 C 0.56869 0.83245 0.8305 0.0
C297 C 0.54345 0.80029 0.82028 0.0
C298 C 0.5192 0.80682 0.80413 0.0
C299 C 0.52364 0.05831 0.83197 0.0
H300 H 0.53717 0.91767 0.70314 0.0
H301 H 0.52936 0.90776 0.73872 0.0
H302 H 0.60951 0.01914 0.75245 0.0
H303 H 0.61559 0.02954 0.71685 0.0
H304 H 0.55882 0.89612 0.76966 0.0
H305 H 0.56595 0.01752 0.77609 0.0
H306 H 0.54854 0.94472 0.82715 0.0
H307 H 0.50182 0.99752 0.82458 0.0
H308 H 0.61442 0.05176 0.80753 0.0
H309 H 0.61058 0.1138 0.82106 0.0
H310 H 0.50296 0.84848 0.78496 0.0
H311 H 0.59079 0.89442 0.83208 0.0
H312 H 0.49778 0.05989 0.83835 0.0
H313 H 0.49967 0.78273 0.79584 0.0
H314 H 0.58751 0.82836 0.84309 0.0
C315 C 0.54591 0.47141 0.0412 0.0
C316 C 0.53359 0.49589 0.02743 0.0
C317 C 0.54876 0.47977 0.06171 0.0
C318 C 0.53888 0.51248 0.06885 0.0
C319 C 0.52553 0.53636 0.05512 0.0
C320 C 0.52317 0.52829 0.03458 0.0
C321 C 0.54374 0.52234 0.09054 0.0
C322 C 0.57797 0.52295 0.10155 0.0
C323 C 0.58365 0.53242 0.1221 0.0
C324 C 0.55362 0.54116 0.13182 0.0
C325 C 0.51867 0.54049 0.12076 0.0
C326 C 0.51448 0.53138 0.10017 0.0
C327 C 0.48517 0.54816 0.12981 0.0
C328 C 0.4647 0.52214 0.14318 0.0
C329 C 0.46897 0.57698 0.12179 0.0
C330 C 0.43261 0.57871 0.12623 0.0
C331 C 0.41099 0.55142 0.13873 0.0
C332 C 0.62174 0.53313 0.13234 0.0
C333 C 0.63696 0.5014 0.12959 0.0
C334 C 0.64588 0.56733 0.14126 0.0
C335 C 0.68478 0.57031 0.14619 0.0
C336 C 0.70054 0.53916 0.14232 0.0
C337 C 0.67558 0.50435 0.13441 0.0
C338 C 0.42804 0.52368 0.14756 0.0
H339 H 0.55437 0.44641 0.03609 0.0
H340 H 0.55888 0.46075 0.07202 0.0
H341 H 0.5179 0.56185 0.06024 0.0
H342 H 0.51333 0.54748 0.02427 0.0
H343 H 0.60088 0.51687 0.09388 0.0
H344 H 0.48779 0.53036 0.09163 0.0
H345 H 0.55734 0.54826 0.14768 0.0
H346 H 0.47607 0.49916 0.14931 0.0
H347 H 0.48375 0.59705 0.11118 0.0
H348 H 0.42067 0.60025 0.11891 0.0
H349 H 0.61925 0.47471 0.1226 0.0
H350 H 0.63522 0.59248 0.14334 0.0
H351 H 0.41268 0.50247 0.15747 0.0
H352 H 0.68607 0.47973 0.13085 0.0
H353 H 0.70263 0.59743 0.15259 0.0
H354 H 0.19622 0.6135 0.14312 0.0
H355 H 0.34913 0.48807 0.14139 0.0
H356 H 0.16602 0.48861 0.14499 0.0
H357 H 0.37908 0.61311 0.14189 0.0
H358 H 0.2825 0.48759 0.14347 0.0
H359 H 0.26311 0.61373 0.14298 0.0
C360 C 0.20351 0.58605 0.14348 0.0
C361 C 0.17502 0.55095 0.14401 0.0
C362 C 0.30366 0.51515 0.14321 0.0
C363 C 0.25234 0.55108 0.14388 0.0
C364 C 0.34195 0.5155 0.14218 0.0
C365 C 0.37027 0.55071 0.14143 0.0
C366 C 0.29317 0.55026 0.14349 0.0
C367 C 0.35854 0.58517 0.14213 0.0
C368 C 0.24191 0.58624 0.14344 0.0
C369 C 0.18671 0.51643 0.14456 0.0
N370 N 0.32113 0.58405 0.14307 0.0
N371 N 0.22427 0.51738 0.14444 0.0
H372 H 0.78955 0.19824 0.47073 0.0
H373 H 0.97113 0.37814 0.49616 0.0
H374 H 0.85497 0.21557 0.52797 0.0
H375 H 0.91384 0.35016 0.43712 0.0
H376 H 0.92679 0.32123 0.50883 0.0
H377 H 0.83246 0.25676 0.45895 0.0
C378 C 0.81284 0.21453 0.48087 0.0
C379 C 0.81867 0.20204 0.50038 0.0
C380 C 0.92391 0.32766 0.49311 0.0
C381 C 0.8682 0.26898 0.48693 0.0
C382 C 0.94929 0.36006 0.48585 0.0
C383 C 0.94624 0.36904 0.46553 0.0
C384 C 0.89523 0.3041 0.47997 0.0
C385 C 0.91699 0.34484 0.45295 0.0
C386 C 0.83748 0.24783 0.4741 0.0
C387 C 0.84968 0.22396 0.51276 0.0
N388 N 0.89271 0.31352 0.46037 0.0
N389 N 0.87328 0.25643 0.50584 0.0
H390 H 0.48154 0.55366 0.84334 0.0
H391 H 0.60504 0.77116 0.82853 0.0
H392 H 0.60047 0.58311 0.8327 0.0
H393 H 0.48241 0.73736 0.82376 0.0
H394 H 0.60484 0.70366 0.83464 0.0
H395 H 0.48233 0.62193 0.84043 0.0
C396 C 0.50786 0.5744 0.84045 0.0
C397 C 0.54091 0.56238 0.83812 0.0
C398 C 0.57798 0.71104 0.83234 0.0
C399 C 0.54208 0.64091 0.83494 0.0
C400 C 0.57807 0.74963 0.82903 0.0
C401 C 0.54368 0.75995 0.82559 0.0
C402 C 0.54325 0.68251 0.83242 0.0
C403 C 0.50958 0.73066 0.82613 0.0
C404 C 0.50826 0.61344 0.83876 0.0
C405 C 0.57421 0.59084 0.83446 0.0
N406 N 0.51023 0.69333 0.82947 0.0
N407 N 0.57394 0.62871 0.83301 0.0
H408 H 0.91989 0.48762 0.14381 0.0
H409 H 0.76066 0.60415 0.13824 0.0
H410 H 0.94862 0.61226 0.15011 0.0
H411 H 0.73798 0.48323 0.153 0.0
H412 H 0.82874 0.60817 0.1405 0.0
H413 H 0.85267 0.48566 0.14444 0.0
C414 C 0.91215 0.51466 0.1453 0.0
C415 C 0.94026 0.5502 0.14688 0.0
C416 C 0.8088 0.58083 0.14333 0.0
C417 C 0.86262 0.54809 0.14747 0.0
C418 C 0.76972 0.57849 0.1422 0.0
C419 C 0.7428 0.54316 0.14527 0.0
C420 C 0.82143 0.54754 0.14734 0.0
C421 C 0.75702 0.51095 0.14998 0.0
C422 C 0.87362 0.51347 0.14575 0.0
C423 C 0.92813 0.58417 0.14891 0.0
N424 N 0.79502 0.51386 0.15068 0.0
N425 N 0.89032 0.58231 0.14898 0.0
H426 H 0.40325 0.8117 0.50101 0.0
H427 H 0.18604 0.70967 0.46474 0.0
H428 H 0.31851 0.87415 0.48743 0.0
H429 H 0.27391 0.64914 0.46853 0.0
H430 H 0.23325 0.7692 0.47623 0.0
H431 H 0.35551 0.75106 0.49172 0.0
C432 C 0.37468 0.81274 0.49598 0.0
C433 C 0.36497 0.8482 0.49495 0.0
C434 C 0.24222 0.74289 0.47462 0.0
C435 C 0.31002 0.77873 0.4846 0.0
C436 C 0.21521 0.7088 0.46822 0.0
C437 C 0.22605 0.67436 0.46568 0.0
C438 C 0.2804 0.74261 0.47858 0.0
C439 C 0.2644 0.67513 0.47009 0.0
C440 C 0.34739 0.77805 0.4908 0.0
C441 C 0.32726 0.84755 0.48871 0.0
N442 N 0.29021 0.70873 0.47632 0.0
N443 N 0.30121 0.81341 0.48377 0.0
H444 H 0.48269 0.30407 0.82782 0.0
H445 H 0.6065 0.15254 0.85046 0.0
H446 H 0.59562 0.3354 0.8579 0.0
H447 H 0.49184 0.12071 0.82267 0.0
H448 H 0.60169 0.21887 0.85518 0.0
H449 H 0.48427 0.23626 0.82746 0.0
C450 C 0.5078 0.29675 0.83442 0.0
C451 C 0.53916 0.32567 0.84281 0.0
C452 C 0.57744 0.19731 0.84821 0.0
C453 C 0.54115 0.24777 0.84242 0.0
C454 C 0.5802 0.15942 0.84548 0.0
C455 C 0.5496 0.13097 0.83606 0.0
C456 C 0.54392 0.20703 0.84136 0.0
C457 C 0.51605 0.14151 0.83016 0.0
C458 C 0.50864 0.25792 0.83424 0.0
C459 C 0.57081 0.31422 0.8512 0.0
N460 N 0.51424 0.17871 0.83274 0.0
N461 N 0.57106 0.27625 0.8507 0.0
H462 H 0.53572 0.88469 0.5212 0.0
H463 H 0.662 0.7338 0.53585 0.0
H464 H 0.65775 0.91666 0.51944 0.0
H465 H 0.53938 0.69993 0.52943 0.0
H466 H 0.66107 0.80069 0.52905 0.0
H467 H 0.53643 0.81676 0.52344 0.0
C468 C 0.56269 0.87748 0.52122 0.0
C469 C 0.59678 0.90658 0.52026 0.0
C470 C 0.63436 0.77859 0.52896 0.0
C471 C 0.59775 0.82863 0.52288 0.0
C472 C 0.63488 0.7404 0.5329 0.0
C473 C 0.60071 0.71121 0.5333 0.0
C474 C 0.5994 0.78783 0.52556 0.0
C475 C 0.56641 0.72139 0.52913 0.0
C476 C 0.56303 0.8386 0.52245 0.0
C477 C 0.63077 0.89531 0.52018 0.0
N478 N 0.56663 0.75887 0.52561 0.0
N479 N 0.63041 0.85729 0.52163 0.0
H480 H 0.73676 0.64969 0.83228 0.0
H481 H 0.95417 0.72577 0.81331 0.0
H482 H 0.79932 0.58743 0.79902 0.0
H483 H 0.89957 0.77034 0.85916 0.0
H484 H 0.89172 0.69121 0.79773 0.0
H485 H 0.78961 0.70792 0.83178 0.0
C486 C 0.76117 0.64854 0.82437 0.0
C487 C 0.76409 0.61347 0.81606 0.0
C488 C 0.89336 0.70956 0.81083 0.0
C489 C 0.82469 0.67982 0.81565 0.0
C490 C 0.92899 0.72963 0.81962 0.0
C491 C 0.93189 0.75023 0.83777 0.0
C492 C 0.86064 0.71016 0.82033 0.0
C493 C 0.89841 0.75411 0.84536 0.0
C494 C 0.79138 0.68177 0.82417 0.0
C495 C 0.79639 0.61367 0.80605 0.0
N496 N 0.8641 0.7335 0.83685 0.0
N497 N 0.82575 0.64618 0.80641 0.0
H498 H 0.21778 0.82836 0.18408 0.0
H499 H 0.44343 0.8617 0.19385 0.0
H500 H 0.27294 0.74234 0.16591 0.0
H501 H 0.38831 0.95251 0.20296 0.0
H502 H 0.38135 0.81712 0.18402 0.0
H503 H 0.28004 0.87384 0.19154 0.0
C504 C 0.24293 0.81905 0.18152 0.0
C505 C 0.23995 0.78134 0.17432 0.0
C506 C 0.38285 0.84686 0.18804 0.0
C507 C 0.31158 0.83333 0.18314 0.0
C508 C 0.41827 0.87228 0.19371 0.0
C509 C 0.42107 0.91088 0.19927 0.0
C510 C 0.3499 0.86 0.18809 0.0
C511 C 0.38755 0.92313 0.1986 0.0
C512 C 0.27854 0.84505 0.18587 0.0
C513 C 0.27373 0.77084 0.17171 0.0
N514 N 0.35338 0.89772 0.19326 0.0
N515 N 0.30808 0.79664 0.17614 0.0
H516 H 0.65598 0.16591 0.53357 0.0
H517 H 0.53179 0.31841 0.51482 0.0
H518 H 0.53919 0.13486 0.50869 0.0
H519 H 0.64851 0.35017 0.53964 0.0
H520 H 0.53554 0.25175 0.51025 0.0
H521 H 0.6552 0.23404 0.53399 0.0
C522 C 0.63016 0.17334 0.52818 0.0
C523 C 0.59749 0.14444 0.52122 0.0
C524 C 0.56046 0.27333 0.51655 0.0
C525 C 0.59649 0.22259 0.52161 0.0
C526 C 0.55831 0.31142 0.51918 0.0
C527 C 0.58981 0.33995 0.52773 0.0
C528 C 0.5943 0.26349 0.52261 0.0
C529 C 0.6236 0.32927 0.53283 0.0
C530 C 0.62979 0.21232 0.52838 0.0
C531 C 0.56501 0.156 0.51428 0.0
N532 N 0.62484 0.29186 0.53036 0.0
N533 N 0.56531 0.19408 0.51473 0.0
H534 H 0.36236 0.56185 0.80468 0.0
H535 H 0.16012 0.58785 0.82845 0.0
H536 H 0.26915 0.46903 0.82182 0.0
H537 H 0.26181 0.68239 0.82904 0.0
H538 H 0.19531 0.54412 0.81656 0.0
H539 H 0.3212 0.60574 0.80444 0.0
C540 C 0.33315 0.55055 0.80818 0.0
C541 C 0.31946 0.51183 0.81372 0.0
C542 C 0.20978 0.57455 0.81901 0.0
C543 C 0.27219 0.56179 0.81314 0.0
C544 C 0.18966 0.59962 0.82565 0.0
C545 C 0.2082 0.63877 0.82993 0.0
C546 C 0.2487 0.5887 0.81661 0.0
C547 C 0.24663 0.65226 0.82624 0.0
C548 C 0.30968 0.57561 0.80795 0.0
C549 C 0.28103 0.49857 0.81748 0.0
N550 N 0.26575 0.62717 0.81997 0.0
N551 N 0.25888 0.52364 0.81736 0.0
H552 H 0.91574 0.26833 0.16042 0.0
H553 H 0.7072 0.23057 0.19832 0.0
H554 H 0.85268 0.35484 0.15976 0.0
H555 H 0.76537 0.14099 0.19302 0.0
H556 H 0.76033 0.27661 0.18438 0.0
H557 H 0.86092 0.22125 0.1722 0.0
C558 C 0.89029 0.27741 0.16258 0.0
C559 C 0.889 0.31577 0.1591 0.0
C560 C 0.76142 0.24685 0.18618 0.0
C561 C 0.82613 0.26194 0.17292 0.0
C562 C 0.73116 0.22058 0.19424 0.0
C563 C 0.73182 0.18184 0.1969 0.0
C564 C 0.7928 0.23444 0.18084 0.0
C565 C 0.76342 0.17044 0.19106 0.0
C566 C 0.85903 0.25051 0.16943 0.0
C567 C 0.85533 0.32585 0.16252 0.0
N568 N 0.79269 0.19664 0.18341 0.0
N569 N 0.82535 0.29918 0.16928 0.0
H570 H 0.06151 0.52076 0.07178 0.0
H571 H 0.12108 0.70684 0.00447 0.0
H572 H 0.06381 0.63638 0.09162 0.0
H573 H 0.06556 0.5941 0.97805 0.0
H574 H 0.11255 0.67946 0.03773 0.0
H575 H 0.07387 0.54544 0.03804 0.0
C576 C 0.06454 0.5512 0.06904 0.0
C577 C 0.06135 0.5765 0.08446 0.0
C578 C 0.10241 0.66069 0.02464 0.0
C579 C 0.07627 0.60482 0.04633 0.0
C580 C 0.1075 0.67622 0.00571 0.0
C581 C 0.09382 0.65269 0.98857 0.0
C582 C 0.08402 0.62124 0.02643 0.0
C583 C 0.07616 0.61322 0.99096 0.0
C584 C 0.07155 0.5652 0.04985 0.0
C585 C 0.06564 0.61572 0.08015 0.0
N586 N 0.07179 0.59863 0.00958 0.0
N587 N 0.07314 0.62869 0.06156 0.0
H588 H 0.5454 0.98157 0.45323 0.0
H589 H 0.65007 0.08563 0.35978 0.0
H590 H 0.64874 0.07457 0.45897 0.0
H591 H 0.54945 0.98949 0.35408 0.0
H592 H 0.64946 0.08276 0.39616 0.0
H593 H 0.546 0.9845 0.41687 0.0
C594 C 0.56823 0.0026 0.44687 0.0
C595 C 0.59706 0.02786 0.45921 0.0
C596 C 0.62754 0.06225 0.38695 0.0
C597 C 0.59789 0.0314 0.41754 0.0
C598 C 0.62776 0.06402 0.36617 0.0
C599 C 0.5998 0.03773 0.35383 0.0
C600 C 0.59908 0.03408 0.39551 0.0
C601 C 0.57187 0.01 0.36299 0.0
C602 C 0.56856 0.00425 0.42609 0.0
C603 C 0.62592 0.0545 0.45008 0.0
N604 N 0.5722 0.00895 0.38324 0.0
N605 N 0.62556 0.05558 0.42982 0.0
H606 H 0.50122 0.49346 0.77678 0.0
H607 H 0.5755 0.43661 0.67544 0.0
H608 H 0.57622 0.41868 0.77442 0.0
H609 H 0.54454 0.54404 0.68307 0.0
H610 H 0.56639 0.42315 0.71053 0.0
H611 H 0.50691 0.5055 0.74103 0.0
C612 C 0.5186 0.47933 0.76871 0.0
C613 C 0.53833 0.45507 0.77855 0.0
C614 C 0.56163 0.44967 0.70449 0.0
C615 C 0.54473 0.46855 0.73782 0.0
C616 C 0.56708 0.45759 0.68446 0.0
C617 C 0.56128 0.49184 0.67621 0.0
C618 C 0.5497 0.47581 0.71638 0.0
C619 C 0.54908 0.51714 0.68864 0.0
C620 C 0.52199 0.4864 0.74838 0.0
C621 C 0.56065 0.43771 0.76743 0.0
N622 N 0.54366 0.50859 0.70811 0.0
N623 N 0.56314 0.44468 0.74763 0.0
H624 H 0.55905 0.05503 0.58641 0.0
H625 H 0.59243 0.9267 0.6792 0.0
H626 H 0.62987 0.9759 0.58492 0.0
H627 H 0.56865 0.03759 0.68651 0.0
H628 H 0.59814 0.93886 0.64344 0.0
H629 H 0.55438 0.04391 0.62228 0.0
C630 C 0.57363 0.03537 0.59363 0.0
C631 C 0.59496 0.01643 0.58272 0.0
C632 C 0.59176 0.96053 0.65291 0.0
C633 C 0.58929 0.00323 0.62353 0.0
C634 C 0.5883 0.95352 0.67322 0.0
C635 C 0.58016 0.98125 0.68573 0.0
C636 C 0.58632 0.99517 0.64503 0.0
C637 C 0.57527 0.01565 0.67733 0.0
C638 C 0.57104 0.02915 0.61407 0.0
C639 C 0.61333 0.99129 0.59281 0.0
N640 N 0.57816 0.02155 0.65745 0.0
N641 N 0.60982 0.98517 0.61263 0.0
H642 H 0.49372 0.39954 0.90613 0.0
H643 H 0.56199 0.54776 -0.00084 0.0
H644 H 0.58418 0.50491 0.90492 0.0
H645 H 0.50475 0.42729 0.00629 0.0
H646 H 0.56342 0.53489 0.96343 0.0
H647 H 0.49121 0.41113 0.94201 0.0
C648 C 0.51311 0.425 0.9134 0.0
C649 C 0.53925 0.45125 0.90252 0.0
C650 C 0.55053 0.51126 0.97281 0.0
C651 C 0.53614 0.46488 0.94336 0.0
C652 C 0.54944 0.51866 0.99314 0.0
C653 C 0.53321 0.48853 0.00565 0.0
C654 C 0.53488 0.47355 0.96486 0.0
C655 C 0.51777 0.45124 -0.00286 0.0
C656 C 0.51169 0.43155 0.93385 0.0
C657 C 0.56371 0.48377 0.91271 0.0
N658 N 0.51883 0.44479 0.97723 0.0
N659 N 0.56136 0.48979 0.9325 0.0
H660 H 1.04226 0.47257 0.20455 0.0
H661 H 1.05373 0.57574 0.31067 0.0
H662 H 0.08105 0.59683 0.21314 0.0
H663 H 0.07789 0.46468 0.30515 0.0
H664 H 1.05126 0.58078 0.27415 0.0
H665 H 1.04334 0.46591 0.24102 0.0
C666 C 1.05092 0.49839 0.2141 0.0
C667 C 0.06174 0.53529 0.20587 0.0
C668 C 1.05704 0.55531 0.28096 0.0
C669 C 0.06237 0.52788 0.2473 0.0
C670 C 0.05824 0.55235 0.3017 0.0
C671 C 0.06609 0.5198 0.31078 0.0
C672 C 0.06296 0.52515 0.26926 0.0
C673 C 0.07198 0.49031 0.2986 0.0
C674 C 1.05165 0.49455 0.23483 0.0
C675 C 0.07278 0.56782 0.21889 0.0
N676 N 0.07004 0.49353 0.27838 0.0
N677 N 0.07251 0.56338 0.23896 0.0
loop_
_geom_bond_atom_site_label_1
_geom_bond_atom_site_label_2
_geom_bond_distance
_geom_bond_site_symmetry_2
_ccdc_geom_bond_type
Dy0 O3 2.307 1_455 S
Dy0 O5 2.395 . S
Dy0 O6 2.379 . S
Dy0 O8 2.339 . S
Dy0 O10 2.298 . S
Dy0 O14 2.275 . S
Dy0 C22 2.738 . S
Dy1 O4 2.298 . S
Dy1 O7 2.275 1_655 S
Dy1 O9 2.307 1_655 S
Dy1 O11 2.395 . S
Dy1 O12 2.379 . S
Dy1 O15 2.339 . S
Dy1 C31 2.738 . S
C2 O14 1.254 . S
C2 O15 1.257 1_455 S
O3 Dy0 2.307 1_655 S
O3 C13 1.266 . S
O4 Dy1 2.298 . S
O4 C13 1.236 . S
O5 Dy0 2.395 . S
O5 C22 1.255 . S
O6 Dy0 2.379 . S
O6 C22 1.249 . S
O7 Dy1 2.275 1_455 S
O7 C23 1.254 . S
O8 Dy0 2.339 . S
O8 C23 1.257 . S
O9 Dy1 2.307 1_455 S
O9 C24 1.266 . S
O10 Dy0 2.298 . S
O10 C24 1.236 . S
O11 Dy1 2.395 . S
O11 C31 1.255 . S
O12 Dy1 2.379 . S
O12 C31 1.249 . S
C13 O3 1.266 . S
C13 O4 1.236 . S
O14 Dy0 2.275 . S
O14 C2 1.254 . S
O15 Dy1 2.339 . S
O15 C2 1.257 1_655 S
C16 C19 1.344 . S
C16 C20 1.328 . S
C16 C22 1.516 . S
C17 C18 1.304 . S
C17 C21 1.323 . S
C18 C17 1.304 . S
C18 C19 1.371 . S
C18 H32 0.930 . S
C19 C16 1.344 . S
C19 C18 1.371 . S
C19 H33 0.931 . S
C20 C16 1.328 . S
C20 C21 1.433 . S
C20 H34 0.931 . S
C21 C17 1.323 . S
C21 C20 1.433 . S
C21 H35 0.933 . S
C22 Dy0 2.738 . S
C22 O5 1.255 . S
C22 O6 1.249 . S
C22 C16 1.516 . S
C23 O7 1.254 . S
C23 O8 1.257 . S
C24 O9 1.266 . S
C24 O10 1.236 . S
C25 C28 1.344 . S
C25 C29 1.328 . S
C25 C31 1.516 . S
C26 C27 1.304 . S
C26 C30 1.323 . S
C27 C26 1.304 . S
C27 C28 1.371 . S
C27 H36 0.930 . S
C28 C25 1.344 . S
C28 C27 1.371 . S
C28 H37 0.931 . S
C29 C25 1.328 . S
C29 C30 1.433 . S
C29 H38 0.931 . S
C30 C26 1.323 . S
C30 C29 1.433 . S
C30 H39 0.933 . S
C31 Dy1 2.738 . S
C31 O11 1.255 . S
C31 O12 1.249 . S
C31 C25 1.516 . S
H32 C18 0.930 . S
H33 C19 0.931 . S
H34 C20 0.931 . S
H35 C21 0.933 . S
H36 C27 0.930 . S
H37 C28 0.931 . S
H38 C29 0.931 . S
H39 C30 0.933 . S
Dy40 O43 2.307 . S
Dy40 O45 2.395 1_545 S
Dy40 O46 2.379 1_545 S
Dy40 O48 2.339 . S
Dy40 O50 2.298 1_545 S
Dy40 O54 2.275 . S
Dy40 C62 2.738 1_545 S
Dy41 O44 2.298 . S
Dy41 O47 2.275 . S
Dy41 O49 2.307 1_545 S
Dy41 O51 2.395 . S
Dy41 O52 2.379 . S
Dy41 O55 2.339 . S
Dy41 C71 2.738 . S
C42 O54 1.254 . S
C42 O55 1.257 . S
O43 Dy40 2.307 . S
O43 C53 1.266 . S
O44 Dy41 2.298 . S
O44 C53 1.236 . S
O45 Dy40 2.395 1_565 S
O45 C62 1.255 . S
O46 Dy40 2.379 1_565 S
O46 C62 1.249 . S
O47 Dy41 2.275 . S
O47 C63 1.254 . S
O48 Dy40 2.339 . S
O48 C63 1.257 . S
O49 Dy41 2.307 1_565 S
O49 C64 1.266 . S
O50 Dy40 2.298 1_565 S
O50 C64 1.236 . S
O51 Dy41 2.395 . S
O51 C71 1.255 . S
O52 Dy41 2.379 . S
O52 C71 1.249 . S
C53 O43 1.266 . S
C53 O44 1.236 . S
O54 Dy40 2.275 . S
O54 C42 1.254 . S
O55 Dy41 2.339 . S
O55 C42 1.257 . S
C56 C59 1.344 . S
C56 C60 1.328 . S
C56 C62 1.516 . S
C57 C58 1.304 . S
C57 C61 1.323 . S
C58 C57 1.304 . S
C58 C59 1.371 . S
C58 H72 0.930 . S
C59 C56 1.344 . S
C59 C58 1.371 . S
C59 H73 0.931 . S
C60 C56 1.328 . S
C60 C61 1.433 . S
C60 H74 0.931 . S
C61 C57 1.323 . S
C61 C60 1.433 . S
C61 H75 0.933 . S
C62 Dy40 2.738 1_565 S
C62 O45 1.255 . S
C62 O46 1.249 . S
C62 C56 1.516 . S
C63 O47 1.254 . S
C63 O48 1.257 . S
C64 O49 1.266 . S
C64 O50 1.236 . S
C65 C68 1.344 . S
C65 C69 1.328 . S
C65 C71 1.516 . S
C66 C67 1.304 . S
C66 C70 1.323 . S
C67 C66 1.304 . S
C67 C68 1.371 . S
C67 H76 0.930 . S
C68 C65 1.344 . S
C68 C67 1.371 . S
C68 H77 0.931 . S
C69 C65 1.328 . S
C69 C70 1.433 . S
C69 H78 0.931 . S
C70 C66 1.323 . S
C70 C69 1.433 . S
C70 H79 0.933 . S
C71 Dy41 2.738 . S
C71 O51 1.255 . S
C71 O52 1.249 . S
C71 C65 1.516 . S
H72 C58 0.930 . S
H73 C59 0.931 . S
H74 C60 0.931 . S
H75 C61 0.933 . S
H76 C67 0.930 . S
H77 C68 0.931 . S
H78 C69 0.931 . S
H79 C70 0.933 . S
Dy80 O83 2.307 . S
Dy80 O85 2.395 . S
Dy80 O86 2.379 . S
Dy80 O88 2.339 . S
Dy80 O90 2.298 . S
Dy80 O94 2.275 . S
Dy80 C102 2.738 . S
Dy81 O84 2.298 . S
Dy81 O87 2.275 . S
Dy81 O89 2.307 . S
Dy81 O91 2.395 . S
Dy81 O92 2.379 . S
Dy81 O95 2.339 . S
Dy81 C111 2.738 . S
C82 O94 1.254 . S
C82 O95 1.257 . S
O83 Dy80 2.307 . S
O83 C93 1.266 . S
O84 Dy81 2.298 . S
O84 C93 1.236 . S
O85 Dy80 2.395 . S
O85 C102 1.255 . S
O86 Dy80 2.379 . S
O86 C102 1.249 . S
O87 Dy81 2.275 . S
O87 C103 1.254 . S
O88 Dy80 2.339 . S
O88 C103 1.257 . S
O89 Dy81 2.307 . S
O89 C104 1.266 . S
O90 Dy80 2.298 . S
O90 C104 1.236 . S
O91 Dy81 2.395 . S
O91 C111 1.255 . S
O92 Dy81 2.379 . S
O92 C111 1.249 . S
C93 O83 1.266 . S
C93 O84 1.236 . S
O94 Dy80 2.275 . S
O94 C82 1.254 . S
O95 Dy81 2.339 . S
O95 C82 1.257 . S
C96 C99 1.344 . S
C96 C100 1.328 . S
C96 C102 1.516 . S
C97 C98 1.304 . S
C97 C101 1.323 . S
C98 C97 1.304 . S
C98 C99 1.371 . S
C98 H112 0.930 . S
C99 C96 1.344 . S
C99 C98 1.371 . S
C99 H113 0.931 . S
C100 C96 1.328 . S
C100 C101 1.433 . S
C100 H114 0.931 . S
C101 C97 1.323 . S
C101 C100 1.433 . S
C101 H115 0.933 . S
C102 Dy80 2.738 . S
C102 O85 1.255 . S
C102 O86 1.249 . S
C102 C96 1.516 . S
C103 O87 1.254 . S
C103 O88 1.257 . S
C104 O89 1.266 . S
C104 O90 1.236 . S
C105 C108 1.344 . S
C105 C109 1.328 . S
C105 C111 1.516 . S
C106 C107 1.304 . S
C106 C110 1.323 . S
C107 C106 1.304 . S
C107 C108 1.371 . S
C107 H116 0.930 . S
C108 C105 1.344 . S
C108 C107 1.371 . S
C108 H117 0.931 . S
C109 C105 1.328 . S
C109 C110 1.433 . S
C109 H118 0.931 . S
C110 C106 1.323 . S
C110 C109 1.433 . S
C110 H119 0.933 . S
C111 Dy81 2.738 . S
C111 O91 1.255 . S
C111 O92 1.249 . S
C111 C105 1.516 . S
H112 C98 0.930 . S
H113 C99 0.931 . S
H114 C100 0.931 . S
H115 C101 0.933 . S
H116 C107 0.930 . S
H117 C108 0.931 . S
H118 C109 0.931 . S
H119 C110 0.933 . S
C120 C121 1.386 . S
C120 C122 1.397 . S
C120 H144 0.931 . S
C121 C120 1.386 . S
C121 C125 1.397 . S
C122 C120 1.397 . S
C122 C123 1.384 . S
C122 H145 0.930 . S
C123 C122 1.384 . S
C123 C124 1.377 . S
C123 C126 1.481 . S
C124 C123 1.377 . S
C124 C125 1.389 . S
C124 H146 0.919 1_545 S
C125 C121 1.397 . S
C125 C124 1.389 . S
C125 H147 0.931 1_545 S
C126 C123 1.481 . S
C126 C127 1.387 . S
C126 C131 1.390 . S
C127 C126 1.387 . S
C127 C128 1.401 . S
C127 H148 0.930 . S
C128 C127 1.401 . S
C128 C129 1.376 . S
C128 C137 1.511 . S
C129 C128 1.376 . S
C129 C130 1.392 . S
C129 H150 0.931 . S
C130 C129 1.392 . S
C130 C131 1.361 . S
C130 C132 1.498 . S
C131 C126 1.390 . S
C131 C130 1.361 . S
C131 H149 0.931 . S
C132 C130 1.498 . S
C132 C133 1.370 . S
C132 C134 1.368 1_545 S
C133 C132 1.370 . S
C133 C143 1.386 1_545 S
C133 H151 0.931 . S
C134 C132 1.368 1_565 S
C134 C135 1.409 . S
C134 H152 0.929 . S
C135 C134 1.409 . S
C135 C136 1.380 . S
C135 H153 0.930 . S
C136 C135 1.380 . S
C136 C143 1.357 . S
C137 C128 1.511 . S
C137 C138 1.341 . S
C137 C139 1.371 . S
C138 C137 1.341 . S
C138 C142 1.394 . S
C138 H154 0.930 . S
C139 C137 1.371 . S
C139 C140 1.392 . S
C139 H155 0.931 . S
C140 C139 1.392 . S
C140 C141 1.331 . S
C140 H158 0.932 . S
C141 C140 1.331 . S
C141 C142 1.336 . S
C142 C138 1.394 . S
C142 C141 1.336 . S
C142 H157 0.929 . S
C143 C133 1.386 1_565 S
C143 C136 1.357 . S
C143 H156 0.928 . S
H144 C120 0.931 . S
H145 C122 0.930 . S
H146 C124 0.919 1_565 S
H147 C125 0.931 1_565 S
H148 C127 0.930 . S
H149 C131 0.931 . S
H150 C129 0.931 . S
H151 C133 0.931 . S
H152 C134 0.929 . S
H153 C135 0.930 . S
H154 C138 0.930 . S
H155 C139 0.931 . S
H156 C143 0.928 . S
H157 C142 0.929 . S
H158 C140 0.932 . S
C159 C160 1.386 . S
C159 C161 1.397 . S
C159 H183 0.931 . S
C160 C159 1.386 . S
C160 C164 1.397 . S
C161 C159 1.397 . S
C161 C162 1.384 . S
C161 H184 0.930 . S
C162 C161 1.384 . S
C162 C163 1.377 . S
C162 C165 1.481 . S
C163 C162 1.377 . S
C163 C164 1.389 . S
C163 H185 0.929 . S
C164 C160 1.397 . S
C164 C163 1.389 . S
C164 H186 0.931 . S
C165 C162 1.481 . S
C165 C166 1.387 . S
C165 C170 1.390 . S
C166 C165 1.387 . S
C166 C167 1.401 . S
C166 H187 0.930 . S
C167 C166 1.401 . S
C167 C168 1.376 . S
C167 C176 1.511 . S
C168 C167 1.376 . S
C168 C169 1.392 . S
C168 H189 0.931 . S
C169 C168 1.392 . S
C169 C170 1.361 . S
C169 C171 1.500 . S
C170 C165 1.390 . S
C170 C169 1.361 . S
C170 H188 0.931 . S
C171 C169 1.500 . S
C171 C172 1.371 . S
C171 C173 1.365 . S
C172 C171 1.371 . S
C172 C182 1.386 . S
C172 H190 0.931 . S
C173 C171 1.365 . S
C173 C174 1.409 . S
C173 H191 0.929 . S
C174 C173 1.409 . S
C174 C175 1.380 . S
C174 H192 0.930 . S
C175 C174 1.380 . S
C175 C182 1.357 . S
C176 C167 1.511 . S
C176 C177 1.341 . S
C176 C178 1.371 . S
C177 C176 1.341 . S
C177 C181 1.394 . S
C177 H193 0.930 . S
C178 C176 1.371 . S
C178 C179 1.392 . S
C178 H194 0.931 . S
C179 C178 1.392 . S
C179 C180 1.331 . S
C179 H197 0.932 . S
C180 C179 1.331 . S
C180 C181 1.336 . S
C181 C177 1.394 . S
C181 C180 1.336 . S
C181 H196 0.929 . S
C182 C172 1.386 . S
C182 C175 1.357 . S
C182 H195 0.928 . S
H183 C159 0.931 . S
H184 C161 0.930 . S
H185 C163 0.929 . S
H186 C164 0.931 . S
H187 C166 0.930 . S
H188 C170 0.931 . S
H189 C168 0.931 . S
H190 C172 0.931 . S
H191 C173 0.929 . S
H192 C174 0.930 . S
H193 C177 0.930 . S
H194 C178 0.931 . S
H195 C182 0.928 . S
H196 C181 0.929 . S
H197 C179 0.932 . S
C198 C199 1.386 . S
C198 C200 1.397 . S
C198 H222 0.931 . S
C199 C198 1.386 . S
C199 C203 1.392 1_455 S
C200 C198 1.397 . S
C200 C201 1.384 . S
C200 H223 0.930 . S
C201 C200 1.384 . S
C201 C202 1.377 1_455 S
C201 C204 1.481 . S
C202 C201 1.377 1_655 S
C202 C203 1.389 . S
C202 H224 0.929 . S
C203 C199 1.392 1_655 S
C203 C202 1.389 . S
C203 H225 0.937 . S
C204 C201 1.481 . S
C204 C205 1.387 . S
C204 C209 1.390 1_455 S
C205 C204 1.387 . S
C205 C206 1.401 . S
C205 H226 0.930 . S
C206 C205 1.401 . S
C206 C207 1.376 . S
C206 C215 1.511 . S
C207 C206 1.376 . S
C207 C208 1.392 1_455 S
C207 H228 0.931 . S
C208 C207 1.392 1_655 S
C208 C209 1.361 . S
C208 C210 1.500 . S
C209 C204 1.390 1_655 S
C209 C208 1.361 . S
C209 H227 0.931 . S
C210 C208 1.500 . S
C210 C211 1.371 . S
C210 C212 1.365 . S
C211 C210 1.371 . S
C211 C221 1.386 . S
C211 H229 0.931 . S
C212 C210 1.365 . S
C212 C213 1.409 . S
C212 H230 0.929 . S
C213 C212 1.409 . S
C213 C214 1.380 . S
C213 H231 0.930 . S
C214 C213 1.380 . S
C214 C221 1.357 . S
C215 C206 1.511 . S
C215 C216 1.341 . S
C215 C217 1.371 . S
C216 C215 1.341 . S
C216 C220 1.394 . S
C216 H232 0.930 . S
C217 C215 1.371 . S
C217 C218 1.392 . S
C217 H233 0.931 . S
C218 C217 1.392 . S
C218 C219 1.331 . S
C218 H236 0.932 . S
C219 C218 1.331 . S
C219 C220 1.336 . S
C220 C216 1.394 . S
C220 C219 1.336 . S
C220 H235 0.929 . S
C221 C211 1.386 . S
C221 C214 1.357 . S
C221 H234 0.928 . S
H222 C198 0.931 . S
H223 C200 0.930 . S
H224 C202 0.929 . S
H225 C203 0.937 . S
H226 C205 0.930 . S
H227 C209 0.931 . S
H228 C207 0.931 . S
H229 C211 0.931 . S
H230 C212 0.929 . S
H231 C213 0.930 . S
H232 C216 0.930 . S
H233 C217 0.931 . S
H234 C221 0.928 . S
H235 C220 0.929 . S
H236 C218 0.932 . S
C237 C238 1.386 . S
C237 C239 1.397 . S
C237 H261 0.931 . S
C238 C237 1.386 . S
C238 C242 1.397 1_655 S
C239 C237 1.397 . S
C239 C240 1.384 1_655 S
C239 H262 0.930 . S
C240 C239 1.384 1_455 S
C240 C241 1.377 . S
C240 C243 1.481 . S
C241 C240 1.377 . S
C241 C242 1.389 . S
C241 H263 0.929 . S
C242 C238 1.397 1_455 S
C242 C241 1.389 . S
C242 H264 0.931 . S
C243 C240 1.481 . S
C243 C244 1.387 1_455 S
C243 C248 1.390 . S
C244 C243 1.387 1_655 S
C244 C245 1.401 . S
C244 H265 0.930 . S
C245 C244 1.401 . S
C245 C246 1.376 1_655 S
C245 C254 1.511 . S
C246 C245 1.376 1_455 S
C246 C247 1.392 . S
C246 H267 0.931 . S
C247 C246 1.392 . S
C247 C248 1.361 . S
C247 C249 1.500 . S
C248 C243 1.390 . S
C248 C247 1.361 . S
C248 H266 0.931 . S
C249 C247 1.500 . S
C249 C250 1.371 . S
C249 C251 1.365 . S
C250 C249 1.371 . S
C250 C260 1.386 . S
C250 H268 0.931 . S
C251 C249 1.365 . S
C251 C252 1.409 . S
C251 H269 0.929 . S
C252 C251 1.409 . S
C252 C253 1.380 . S
C252 H270 0.930 . S
C253 C252 1.380 . S
C253 C260 1.357 . S
C254 C245 1.511 . S
C254 C255 1.341 . S
C254 C256 1.371 . S
C255 C254 1.341 . S
C255 C259 1.394 . S
C255 H271 0.930 . S
C256 C254 1.371 . S
C256 C257 1.392 . S
C256 H272 0.931 . S
C257 C256 1.392 . S
C257 C258 1.331 . S
C257 H275 0.932 . S
C258 C257 1.331 . S
C258 C259 1.336 . S
C259 C255 1.394 . S
C259 C258 1.336 . S
C259 H274 0.929 . S
C260 C250 1.386 . S
C260 C253 1.357 . S
C260 H273 0.928 . S
H261 C237 0.931 . S
H262 C239 0.930 . S
H263 C241 0.929 . S
H264 C242 0.931 . S
H265 C244 0.930 . S
H266 C248 0.931 . S
H267 C246 0.931 . S
H268 C250 0.931 . S
H269 C251 0.929 . S
H270 C252 0.930 . S
H271 C255 0.930 . S
H272 C256 0.931 . S
H273 C260 0.928 . S
H274 C259 0.929 . S
H275 C257 0.932 . S
C276 C277 1.386 1_565 S
C276 C278 1.397 . S
C276 H300 0.931 . S
C277 C276 1.386 1_545 S
C277 C281 1.397 . S
C278 C276 1.397 . S
C278 C279 1.384 1_565 S
C278 H301 0.930 . S
C279 C278 1.384 1_545 S
C279 C280 1.377 . S
C279 C282 1.481 . S
C280 C279 1.377 . S
C280 C281 1.389 . S
C280 H302 0.929 . S
C281 C277 1.397 . S
C281 C280 1.389 . S
C281 H303 0.931 . S
C282 C279 1.481 . S
C282 C283 1.387 1_545 S
C282 C287 1.390 . S
C283 C282 1.387 1_565 S
C283 C284 1.401 . S
C283 H304 0.930 . S
C284 C283 1.401 . S
C284 C285 1.376 1_565 S
C284 C293 1.511 . S
C285 C284 1.376 1_545 S
C285 C286 1.392 . S
C285 H306 0.931 . S
C286 C285 1.392 . S
C286 C287 1.361 . S
C286 C288 1.500 . S
C287 C282 1.390 . S
C287 C286 1.361 . S
C287 H305 0.931 . S
C288 C286 1.500 . S
C288 C289 1.371 . S
C288 C290 1.365 . S
C289 C288 1.371 . S
C289 C299 1.386 . S
C289 H307 0.931 . S
C290 C288 1.365 . S
C290 C291 1.409 . S
C290 H308 0.929 . S
C291 C290 1.409 . S
C291 C292 1.380 . S
C291 H309 0.930 . S
C292 C291 1.380 . S
C292 C299 1.357 . S
C293 C284 1.511 . S
C293 C294 1.341 . S
C293 C295 1.371 . S
C294 C293 1.341 . S
C294 C298 1.394 . S
C294 H310 0.930 . S
C295 C293 1.371 . S
C295 C296 1.392 . S
C295 H311 0.931 . S
C296 C295 1.392 . S
C296 C297 1.331 . S
C296 H314 0.932 . S
C297 C296 1.331 . S
C297 C298 1.336 . S
C298 C294 1.394 . S
C298 C297 1.336 . S
C298 H313 0.929 . S
C299 C289 1.386 . S
C299 C292 1.357 . S
C299 H312 0.928 . S
H300 C276 0.931 . S
H301 C278 0.930 . S
H302 C280 0.929 . S
H303 C281 0.931 . S
H304 C283 0.930 . S
H305 C287 0.931 . S
H306 C285 0.931 . S
H307 C289 0.931 . S
H308 C290 0.929 . S
H309 C291 0.930 . S
H310 C294 0.930 . S
H311 C295 0.931 . S
H312 C299 0.928 . S
H313 C298 0.929 . S
H314 C296 0.932 . S
C315 C316 1.386 . S
C315 C317 1.397 . S
C315 H339 0.931 . S
C316 C315 1.386 . S
C316 C320 1.397 . S
C317 C315 1.397 . S
C317 C318 1.384 . S
C317 H340 0.930 . S
C318 C317 1.384 . S
C318 C319 1.377 . S
C318 C321 1.481 . S
C319 C318 1.377 . S
C319 C320 1.389 . S
C319 H341 0.929 . S
C320 C316 1.397 . S
C320 C319 1.389 . S
C320 H342 0.931 . S
C321 C318 1.481 . S
C321 C322 1.387 . S
C321 C326 1.390 . S
C322 C321 1.387 . S
C322 C323 1.401 . S
C322 H343 0.930 . S
C323 C322 1.401 . S
C323 C324 1.376 . S
C323 C332 1.511 . S
C324 C323 1.376 . S
C324 C325 1.392 . S
C324 H345 0.931 . S
C325 C324 1.392 . S
C325 C326 1.361 . S
C325 C327 1.500 . S
C326 C321 1.390 . S
C326 C325 1.361 . S
C326 H344 0.931 . S
C327 C325 1.500 . S
C327 C328 1.371 . S
C327 C329 1.365 . S
C328 C327 1.371 . S
C328 C338 1.386 . S
C328 H346 0.931 . S
C329 C327 1.365 . S
C329 C330 1.409 . S
C329 H347 0.929 . S
C330 C329 1.409 . S
C330 C331 1.380 . S
C330 H348 0.930 . S
C331 C330 1.380 . S
C331 C338 1.357 . S
C332 C323 1.511 . S
C332 C333 1.341 . S
C332 C334 1.371 . S
C333 C332 1.341 . S
C333 C337 1.394 . S
C333 H349 0.930 . S
C334 C332 1.371 . S
C334 C335 1.392 . S
C334 H350 0.931 . S
C335 C334 1.392 . S
C335 C336 1.331 . S
C335 H353 0.932 . S
C336 C335 1.331 . S
C336 C337 1.336 . S
C337 C333 1.394 . S
C337 C336 1.336 . S
C337 H352 0.929 . S
C338 C328 1.386 . S
C338 C331 1.357 . S
C338 H351 0.928 . S
H339 C315 0.931 . S
H340 C317 0.930 . S
H341 C319 0.929 . S
H342 C320 0.931 . S
H343 C322 0.930 . S
H344 C326 0.931 . S
H345 C324 0.931 . S
H346 C328 0.931 . S
H347 C329 0.929 . S
H348 C330 0.930 . S
H349 C333 0.930 . S
H350 C334 0.931 . S
H351 C338 0.928 . S
H352 C337 0.929 . S
H353 C335 0.932 . S
H354 C360 0.930 . S
H355 C364 0.930 . S
H356 C369 0.929 . S
H357 C367 0.929 . S
H358 C362 0.929 . S
H359 C368 0.929 . S
C360 H354 0.930 . S
C360 C361 1.367 . S
C360 C368 1.378 . S
C361 C360 1.367 . S
C361 C369 1.433 . S
C362 H358 0.929 . S
C362 C364 1.378 . S
C362 C366 1.350 . S
C363 C366 1.463 . S
C363 C368 1.350 . S
C363 N371 1.427 . S
C364 H355 0.930 . S
C364 C362 1.378 . S
C364 C365 1.367 . S
C365 C364 1.367 . S
C365 C367 1.433 . S
C366 C362 1.350 . S
C366 C363 1.463 . S
C366 N370 1.427 . S
C367 H357 0.929 . S
C367 C365 1.433 . S
C367 N370 1.384 . S
C368 H359 0.929 . S
C368 C360 1.378 . S
C368 C363 1.350 . S
C369 H356 0.929 . S
C369 C361 1.433 . S
C369 N371 1.384 . S
N370 C366 1.427 . S
N370 C367 1.384 . S
N371 C363 1.427 . S
N371 C369 1.384 . S
H372 C378 0.930 . S
H373 C382 0.930 . S
H374 C387 0.929 . S
H375 C385 0.929 . S
H376 C380 0.929 . S
H377 C386 0.929 . S
C378 H372 0.930 . S
C378 C379 1.367 . S
C378 C386 1.378 . S
C379 C378 1.367 . S
C379 C387 1.433 . S
C380 H376 0.929 . S
C380 C382 1.378 . S
C380 C384 1.350 . S
C381 C384 1.463 . S
C381 C386 1.350 . S
C381 N389 1.427 . S
C382 H373 0.930 . S
C382 C380 1.378 . S
C382 C383 1.367 . S
C383 C382 1.367 . S
C383 C385 1.433 . S
C384 C380 1.350 . S
C384 C381 1.463 . S
C384 N388 1.427 . S
C385 H375 0.929 . S
C385 C383 1.433 . S
C385 N388 1.384 . S
C386 H377 0.929 . S
C386 C378 1.378 . S
C386 C381 1.350 . S
C387 H374 0.929 . S
C387 C379 1.433 . S
C387 N389 1.384 . S
N388 C384 1.427 . S
N388 C385 1.384 . S
N389 C381 1.427 . S
N389 C387 1.384 . S
H390 C396 0.930 . S
H391 C400 0.930 . S
H392 C405 0.929 . S
H393 C403 0.929 . S
H394 C398 0.929 . S
H395 C404 0.929 . S
C396 H390 0.930 . S
C396 C397 1.367 . S
C396 C404 1.378 . S
C397 C396 1.367 . S
C397 C405 1.433 . S
C398 H394 0.929 . S
C398 C400 1.378 . S
C398 C402 1.350 . S
C399 C402 1.463 . S
C399 C404 1.350 . S
C399 N407 1.427 . S
C400 H391 0.930 . S
C400 C398 1.378 . S
C400 C401 1.367 . S
C401 C400 1.367 . S
C401 C403 1.433 . S
C402 C398 1.350 . S
C402 C399 1.463 . S
C402 N406 1.427 . S
C403 H393 0.929 . S
C403 C401 1.433 . S
C403 N406 1.384 . S
C404 H395 0.929 . S
C404 C396 1.378 . S
C404 C399 1.350 . S
C405 H392 0.929 . S
C405 C397 1.433 . S
C405 N407 1.384 . S
N406 C402 1.427 . S
N406 C403 1.384 . S
N407 C399 1.427 . S
N407 C405 1.384 . S
H408 C414 0.930 . S
H409 C418 0.930 . S
H410 C423 0.929 . S
H411 C421 0.929 . S
H412 C416 0.929 . S
H413 C422 0.929 . S
C414 H408 0.930 . S
C414 C415 1.367 . S
C414 C422 1.378 . S
C415 C414 1.367 . S
C415 C423 1.433 . S
C416 H412 0.929 . S
C416 C418 1.378 . S
C416 C420 1.350 . S
C417 C420 1.463 . S
C417 C422 1.350 . S
C417 N425 1.427 . S
C418 H409 0.930 . S
C418 C416 1.378 . S
C418 C419 1.367 . S
C419 C418 1.367 . S
C419 C421 1.433 . S
C420 C416 1.350 . S
C420 C417 1.463 . S
C420 N424 1.427 . S
C421 H411 0.929 . S
C421 C419 1.433 . S
C421 N424 1.384 . S
C422 H413 0.929 . S
C422 C414 1.378 . S
C422 C417 1.350 . S
C423 H410 0.929 . S
C423 C415 1.433 . S
C423 N425 1.384 . S
N424 C420 1.427 . S
N424 C421 1.384 . S
N425 C417 1.427 . S
N425 C423 1.384 . S
H426 C432 0.930 . S
H427 C436 0.930 . S
H428 C441 0.929 . S
H429 C439 0.929 . S
H430 C434 0.929 . S
H431 C440 0.929 . S
C432 H426 0.930 . S
C432 C433 1.367 . S
C432 C440 1.378 . S
C433 C432 1.367 . S
C433 C441 1.433 . S
C434 H430 0.929 . S
C434 C436 1.378 . S
C434 C438 1.350 . S
C435 C438 1.463 . S
C435 C440 1.350 . S
C435 N443 1.427 . S
C436 H427 0.930 . S
C436 C434 1.378 . S
C436 C437 1.367 . S
C437 C436 1.367 . S
C437 C439 1.433 . S
C438 C434 1.350 . S
C438 C435 1.463 . S
C438 N442 1.427 . S
C439 H429 0.929 . S
C439 C437 1.433 . S
C439 N442 1.384 . S
C440 H431 0.929 . S
C440 C432 1.378 . S
C440 C435 1.350 . S
C441 H428 0.929 . S
C441 C433 1.433 . S
C441 N443 1.384 . S
N442 C438 1.427 . S
N442 C439 1.384 . S
N443 C435 1.427 . S
N443 C441 1.384 . S
H444 C450 0.930 . S
H445 C454 0.930 . S
H446 C459 0.929 . S
H447 C457 0.929 . S
H448 C452 0.929 . S
H449 C458 0.929 . S
C450 H444 0.930 . S
C450 C451 1.367 . S
C450 C458 1.378 . S
C451 C450 1.367 . S
C451 C459 1.433 . S
C452 H448 0.929 . S
C452 C454 1.378 . S
C452 C456 1.350 . S
C453 C456 1.463 . S
C453 C458 1.350 . S
C453 N461 1.427 . S
C454 H445 0.930 . S
C454 C452 1.378 . S
C454 C455 1.367 . S
C455 C454 1.367 . S
C455 C457 1.433 . S
C456 C452 1.350 . S
C456 C453 1.463 . S
C456 N460 1.427 . S
C457 H447 0.929 . S
C457 C455 1.433 . S
C457 N460 1.384 . S
C458 H449 0.929 . S
C458 C450 1.378 . S
C458 C453 1.350 . S
C459 H446 0.929 . S
C459 C451 1.433 . S
C459 N461 1.384 . S
N460 C456 1.427 . S
N460 C457 1.384 . S
N461 C453 1.427 . S
N461 C459 1.384 . S
H462 C468 0.930 . S
H463 C472 0.930 . S
H464 C477 0.929 . S
H465 C475 0.929 . S
H466 C470 0.929 . S
H467 C476 0.929 . S
C468 H462 0.930 . S
C468 C469 1.367 . S
C468 C476 1.378 . S
C469 C468 1.367 . S
C469 C477 1.433 . S
C470 H466 0.929 . S
C470 C472 1.378 . S
C470 C474 1.350 . S
C471 C474 1.463 . S
C471 C476 1.350 . S
C471 N479 1.427 . S
C472 H463 0.930 . S
C472 C470 1.378 . S
C472 C473 1.367 . S
C473 C472 1.367 . S
C473 C475 1.433 . S
C474 C470 1.350 . S
C474 C471 1.463 . S
C474 N478 1.427 . S
C475 H465 0.929 . S
C475 C473 1.433 . S
C475 N478 1.384 . S
C476 H467 0.929 . S
C476 C468 1.378 . S
C476 C471 1.350 . S
C477 H464 0.929 . S
C477 C469 1.433 . S
C477 N479 1.384 . S
N478 C474 1.427 . S
N478 C475 1.384 . S
N479 C471 1.427 . S
N479 C477 1.384 . S
H480 C486 0.930 . S
H481 C490 0.930 . S
H482 C495 0.929 . S
H483 C493 0.929 . S
H484 C488 0.929 . S
H485 C494 0.929 . S
C486 H480 0.930 . S
C486 C487 1.367 . S
C486 C494 1.378 . S
C487 C486 1.367 . S
C487 C495 1.433 . S
C488 H484 0.929 . S
C488 C490 1.378 . S
C488 C492 1.350 . S
C489 C492 1.463 . S
C489 C494 1.350 . S
C489 N497 1.427 . S
C490 H481 0.930 . S
C490 C488 1.378 . S
C490 C491 1.367 . S
C491 C490 1.367 . S
C491 C493 1.433 . S
C492 C488 1.350 . S
C492 C489 1.463 . S
C492 N496 1.427 . S
C493 H483 0.929 . S
C493 C491 1.433 . S
C493 N496 1.384 . S
C494 H485 0.929 . S
C494 C486 1.378 . S
C494 C489 1.350 . S
C495 H482 0.929 . S
C495 C487 1.433 . S
C495 N497 1.384 . S
N496 C492 1.427 . S
N496 C493 1.384 . S
N497 C489 1.427 . S
N497 C495 1.384 . S
H498 C504 0.930 . S
H499 C508 0.930 . S
H500 C513 0.929 . S
H501 C511 0.929 . S
H502 C506 0.929 . S
H503 C512 0.929 . S
C504 H498 0.930 . S
C504 C505 1.367 . S
C504 C512 1.378 . S
C505 C504 1.367 . S
C505 C513 1.433 . S
C506 H502 0.929 . S
C506 C508 1.378 . S
C506 C510 1.350 . S
C507 C510 1.463 . S
C507 C512 1.350 . S
C507 N515 1.427 . S
C508 H499 0.930 . S
C508 C506 1.378 . S
C508 C509 1.367 . S
C509 C508 1.367 . S
C509 C511 1.433 . S
C510 C506 1.350 . S
C510 C507 1.463 . S
C510 N514 1.427 . S
C511 H501 0.929 . S
C511 C509 1.433 . S
C511 N514 1.384 . S
C512 H503 0.929 . S
C512 C504 1.378 . S
C512 C507 1.350 . S
C513 H500 0.929 . S
C513 C505 1.433 . S
C513 N515 1.384 . S
N514 C510 1.427 . S
N514 C511 1.384 . S
N515 C507 1.427 . S
N515 C513 1.384 . S
H516 C522 0.930 . S
H517 C526 0.930 . S
H518 C531 0.929 . S
H519 C529 0.929 . S
H520 C524 0.929 . S
H521 C530 0.929 . S
C522 H516 0.930 . S
C522 C523 1.367 . S
C522 C530 1.378 . S
C523 C522 1.367 . S
C523 C531 1.433 . S
C524 H520 0.929 . S
C524 C526 1.378 . S
C524 C528 1.350 . S
C525 C528 1.463 . S
C525 C530 1.350 . S
C525 N533 1.427 . S
C526 H517 0.930 . S
C526 C524 1.378 . S
C526 C527 1.367 . S
C527 C526 1.367 . S
C527 C529 1.433 . S
C528 C524 1.350 . S
C528 C525 1.463 . S
C528 N532 1.427 . S
C529 H519 0.929 . S
C529 C527 1.433 . S
C529 N532 1.384 . S
C530 H521 0.929 . S
C530 C522 1.378 . S
C530 C525 1.350 . S
C531 H518 0.929 . S
C531 C523 1.433 . S
C531 N533 1.384 . S
N532 C528 1.427 . S
N532 C529 1.384 . S
N533 C525 1.427 . S
N533 C531 1.384 . S
H534 C540 0.930 . S
H535 C544 0.930 . S
H536 C549 0.929 . S
H537 C547 0.929 . S
H538 C542 0.929 . S
H539 C548 0.929 . S
C540 H534 0.930 . S
C540 C541 1.367 . S
C540 C548 1.378 . S
C541 C540 1.367 . S
C541 C549 1.433 . S
C542 H538 0.929 . S
C542 C544 1.378 . S
C542 C546 1.350 . S
C543 C546 1.463 . S
C543 C548 1.350 . S
C543 N551 1.427 . S
C544 H535 0.930 . S
C544 C542 1.378 . S
C544 C545 1.367 . S
C545 C544 1.367 . S
C545 C547 1.433 . S
C546 C542 1.350 . S
C546 C543 1.463 . S
C546 N550 1.427 . S
C547 H537 0.929 . S
C547 C545 1.433 . S
C547 N550 1.384 . S
C548 H539 0.929 . S
C548 C540 1.378 . S
C548 C543 1.350 . S
C549 H536 0.929 . S
C549 C541 1.433 . S
C549 N551 1.384 . S
N550 C546 1.427 . S
N550 C547 1.384 . S
N551 C543 1.427 . S
N551 C549 1.384 . S
H552 C558 0.930 . S
H553 C562 0.930 . S
H554 C567 0.929 . S
H555 C565 0.929 . S
H556 C560 0.929 . S
H557 C566 0.929 . S
C558 H552 0.930 . S
C558 C559 1.367 . S
C558 C566 1.378 . S
C559 C558 1.367 . S
C559 C567 1.433 . S
C560 H556 0.929 . S
C560 C562 1.378 . S
C560 C564 1.350 . S
C561 C564 1.463 . S
C561 C566 1.350 . S
C561 N569 1.427 . S
C562 H553 0.930 . S
C562 C560 1.378 . S
C562 C563 1.367 . S
C563 C562 1.367 . S
C563 C565 1.433 . S
C564 C560 1.350 . S
C564 C561 1.463 . S
C564 N568 1.427 . S
C565 H555 0.929 . S
C565 C563 1.433 . S
C565 N568 1.384 . S
C566 H557 0.929 . S
C566 C558 1.378 . S
C566 C561 1.350 . S
C567 H554 0.929 . S
C567 C559 1.433 . S
C567 N569 1.384 . S
N568 C564 1.427 . S
N568 C565 1.384 . S
N569 C561 1.427 . S
N569 C567 1.384 . S
H570 C576 0.930 . S
H571 C580 0.930 . S
H572 C585 0.929 . S
H573 C583 0.929 1_655 S
H574 C578 0.929 . S
H575 C584 0.929 . S
C576 H570 0.930 . S
C576 C577 1.367 1_655 S
C576 C584 1.378 . S
C577 C576 1.367 1_455 S
C577 C585 1.433 . S
C578 H574 0.929 . S
C578 C580 1.378 . S
C578 C582 1.350 . S
C579 C582 1.463 . S
C579 C584 1.350 1_455 S
C579 N587 1.427 . S
C580 H571 0.930 . S
C580 C578 1.378 . S
C580 C581 1.367 . S
C581 C580 1.367 . S
C581 C583 1.433 . S
C582 C578 1.350 . S
C582 C579 1.463 . S
C582 N586 1.427 . S
C583 H573 0.929 1_455 S
C583 C581 1.433 . S
C583 N586 1.384 . S
C584 H575 0.929 . S
C584 C576 1.378 . S
C584 C579 1.350 1_655 S
C585 H572 0.929 . S
C585 C577 1.433 . S
C585 N587 1.384 . S
N586 C582 1.427 . S
N586 C583 1.384 . S
N587 C579 1.427 . S
N587 C585 1.384 . S
H588 C594 0.930 1_565 S
H589 C598 0.930 . S
H590 C603 0.929 . S
H591 C601 0.929 1_565 S
H592 C596 0.929 . S
H593 C602 0.929 1_565 S
C594 H588 0.930 1_545 S
C594 C595 1.367 . S
C594 C602 1.378 . S
C595 C594 1.367 . S
C595 C603 1.433 . S
C596 H592 0.929 . S
C596 C598 1.378 . S
C596 C600 1.350 . S
C597 C600 1.463 . S
C597 C602 1.350 . S
C597 N605 1.427 . S
C598 H589 0.930 . S
C598 C596 1.378 . S
C598 C599 1.367 . S
C599 C598 1.367 . S
C599 C601 1.433 . S
C600 C596 1.350 . S
C600 C597 1.463 . S
C600 N604 1.427 . S
C601 H591 0.929 1_545 S
C601 C599 1.433 . S
C601 N604 1.384 . S
C602 H593 0.929 1_545 S
C602 C594 1.378 . S
C602 C597 1.350 . S
C603 H590 0.929 . S
C603 C595 1.433 . S
C603 N605 1.384 . S
N604 C600 1.427 . S
N604 C601 1.384 . S
N605 C597 1.427 . S
N605 C603 1.384 . S
H606 C612 0.930 . S
H607 C616 0.930 . S
H608 C621 0.929 . S
H609 C619 0.929 . S
H610 C614 0.929 . S
H611 C620 0.929 . S
C612 H606 0.930 . S
C612 C613 1.367 . S
C612 C620 1.378 . S
C613 C612 1.367 . S
C613 C621 1.433 . S
C614 H610 0.929 . S
C614 C616 1.378 . S
C614 C618 1.350 . S
C615 C618 1.463 . S
C615 C620 1.350 . S
C615 N623 1.427 . S
C616 H607 0.930 . S
C616 C614 1.378 . S
C616 C617 1.367 . S
C617 C616 1.367 . S
C617 C619 1.433 . S
C618 C614 1.350 . S
C618 C615 1.463 . S
C618 N622 1.427 . S
C619 H609 0.929 . S
C619 C617 1.433 . S
C619 N622 1.384 . S
C620 H611 0.929 . S
C620 C612 1.378 . S
C620 C615 1.350 . S
C621 H608 0.929 . S
C621 C613 1.433 . S
C621 N623 1.384 . S
N622 C618 1.427 . S
N622 C619 1.384 . S
N623 C615 1.427 . S
N623 C621 1.384 . S
H624 C630 0.930 . S
H625 C634 0.930 . S
H626 C639 0.929 . S
H627 C637 0.929 . S
H628 C632 0.929 . S
H629 C638 0.929 . S
C630 H624 0.930 . S
C630 C631 1.367 . S
C630 C638 1.378 . S
C631 C630 1.367 . S
C631 C639 1.433 1_545 S
C632 H628 0.929 . S
C632 C634 1.378 . S
C632 C636 1.350 1_565 S
C633 C636 1.463 . S
C633 C638 1.350 . S
C633 N641 1.427 1_545 S
C634 H625 0.930 . S
C634 C632 1.378 . S
C634 C635 1.367 1_565 S
C635 C634 1.367 1_545 S
C635 C637 1.433 . S
C636 C632 1.350 1_545 S
C636 C633 1.463 . S
C636 N640 1.427 . S
C637 H627 0.929 . S
C637 C635 1.433 . S
C637 N640 1.384 . S
C638 H629 0.929 . S
C638 C630 1.378 . S
C638 C633 1.350 . S
C639 H626 0.929 . S
C639 C631 1.433 1_565 S
C639 N641 1.384 . S
N640 C636 1.427 . S
N640 C637 1.384 . S
N641 C633 1.427 1_565 S
N641 C639 1.384 . S
H642 C648 0.930 . S
H643 C652 0.930 . S
H644 C657 0.929 . S
H645 C655 0.929 . S
H646 C650 0.929 . S
H647 C656 0.929 . S
C648 H642 0.930 . S
C648 C649 1.367 . S
C648 C656 1.378 . S
C649 C648 1.367 . S
C649 C657 1.433 . S
C650 H646 0.929 . S
C650 C652 1.378 . S
C650 C654 1.350 . S
C651 C654 1.463 . S
C651 C656 1.350 . S
C651 N659 1.427 . S
C652 H643 0.930 . S
C652 C650 1.378 . S
C652 C653 1.367 . S
C653 C652 1.367 . S
C653 C655 1.433 . S
C654 C650 1.350 . S
C654 C651 1.463 . S
C654 N658 1.427 . S
C655 H645 0.929 . S
C655 C653 1.433 . S
C655 N658 1.384 . S
C656 H647 0.929 . S
C656 C648 1.378 . S
C656 C651 1.350 . S
C657 H644 0.929 . S
C657 C649 1.433 . S
C657 N659 1.384 . S
N658 C654 1.427 . S
N658 C655 1.384 . S
N659 C651 1.427 . S
N659 C657 1.384 . S
H660 C666 0.930 1_655 S
H661 C670 0.926 . S
H662 C675 0.929 . S
H663 C673 0.929 . S
H664 C668 0.929 . S
H665 C674 0.929 . S
C666 H660 0.930 1_455 S
C666 C667 1.367 . S
C666 C674 1.378 1_455 S
C667 C666 1.367 . S
C667 C675 1.433 . S
C668 H664 0.929 . S
C668 C670 1.380 . S
C668 C672 1.353 1_455 S
C669 C672 1.457 1_455 S
C669 C674 1.360 1_455 S
C669 N677 1.422 . S
C670 H661 0.926 . S
C670 C668 1.380 . S
C670 C671 1.370 1_455 S
C671 C670 1.370 1_655 S
C671 C673 1.433 . S
C672 C668 1.353 1_655 S
C672 C669 1.457 1_655 S
C672 N676 1.426 . S
C673 H663 0.929 . S
C673 C671 1.433 . S
C673 N676 1.384 . S
C674 H665 0.929 . S
C674 C666 1.378 1_655 S
C674 C669 1.360 1_655 S
C675 H662 0.929 . S
C675 C667 1.433 . S
C675 N677 1.384 . S
N676 C672 1.426 . S
N676 C673 1.384 . S
N677 C669 1.422 . S
N677 C675 1.384 . S
C361 C24 2.956 . S
C365 C331 2.915 . S
C379 C66 1.125 . S
C383 C258 1.160 . S
C397 C93 1.852 . S
C401 C297 1.805 . S
C415 C13 3.083 . S
C419 C336 3.028 . S
C437 C253 1.283 . S
C433 C57 1.285 . S
C455 C292 1.932 . S
C451 C104 1.981 . S
C469 C64 1.975 . S
C473 C180 1.923 . S
C487 C97 0.531 . S
C491 C214 0.539 . S
C505 C17 1.292 . S
C509 C136 1.296 . S
C527 C175 1.807 . S
C523 C53 1.848 . S
C545 C219 0.155 . S
C541 C106 0.386 . S
C559 C26 1.156 . S
C563 C141 1.172 . S
C581 C199 1.084 1_554 S
C577 C2 1.062 . S
C595 C63 1.454 . S
C599 C121 1.502 . S
C613 C82 1.366 . S
C617 C160 1.387 . S
C635 C277 1.404 . S
C631 C42 1.381 . S
C653 C316 1.793 1_556 S
C649 C103 1.744 . S
C667 C23 1.481 . S
C671 C238 1.508 . S
