# Generated by pormake.
# Topology tsx, (6,3)-cn, num edge types: 1
# Building blocks:
#     Node 0, Type 0, BuildingBlock: MIDCAF_clean_sbu_0, # of connection points: 6
#     Node 1, Type 0, BuildingBlock: MIDCAF_clean_sbu_0, # of connection points: 6
#     Node 2, Type 1, BuildingBlock: KAKCAD_clean_linker_0, # of connection points: 3
#     Node 3, Type 1, BuildingBlock: KAKCAD_clean_linker_0, # of connection points: 3
#     Node 4, Type 1, BuildingBlock: KAKCAD_clean_linker_0, # of connection points: 3
#     Node 5, Type 1, BuildingBlock: KAKCAD_clean_linker_0, # of connection points: 3
#     Edge 6, Type (0, 1), BuildingBlock: OJICUG_clean_linker_0, # of connection points: 2
#     Edge 7, Type (0, 1), BuildingBlock: OJICUG_clean_linker_0, # of connection points: 2
#     Edge 8, Type (0, 1), BuildingBlock: OJICUG_clean_linker_0, # of connection points: 2
#     Edge 9, Type (0, 1), BuildingBlock: OJICUG_clean_linker_0, # of connection points: 2
#     Edge 10, Type (0, 1), BuildingBlock: OJICUG_clean_linker_0, # of connection points: 2
#     Edge 11, Type (0, 1), BuildingBlock: OJICUG_clean_linker_0, # of connection points: 2
#     Edge 12, Type (0, 1), BuildingBlock: OJICUG_clean_linker_0, # of connection points: 2
#     Edge 13, Type (0, 1), BuildingBlock: OJICUG_clean_linker_0, # of connection points: 2
#     Edge 14, Type (0, 1), BuildingBlock: OJICUG_clean_linker_0, # of connection points: 2
#     Edge 15, Type (0, 1), BuildingBlock: OJICUG_clean_linker_0, # of connection points: 2
#     Edge 16, Type (0, 1), BuildingBlock: OJICUG_clean_linker_0, # of connection points: 2
#     Edge 17, Type (0, 1), BuildingBlock: OJICUG_clean_linker_0, # of connection points: 2
# Relax obj value: 0.118
# Max RMSD: 0.182
# Mean RMSD: 0.113
data_MOF--net-tsx--node1-MIDCAF_clean_sbu_0--node2-KAKCAD_clean_linker_0--edge1-OJICUG_clean_linker_0
_symmetry_space_group_name_H-M    P1
_symmetry_Int_Tables_number       1
_symmetry_cell_setting            triclinic
loop_
_symmetry_equiv_pos_as_xyz
'x, y, z'
_cell_length_a     18.151221
_cell_length_b     19.433874
_cell_length_c     36.647805
_cell_angle_alpha  88.58424
_cell_angle_beta   98.913307
_cell_angle_gamma 88.726138
loop_
_atom_site_label
_atom_site_type_symbol
_atom_site_fract_x
_atom_site_fract_y
_atom_site_fract_z
_atom_type_partial_charge
Zn0 Zn 0.88354 0.02804 0.9658 0.0
Zn1 Zn 0.06935 0.94008 0.05183 0.0
Zn2 Zn 0.99637 0.00551 0.01033 0.0
C3 C 0.13321 0.07197 0.04626 0.0
C4 C 0.10355 0.88566 0.99548 0.0
O5 O 0.92231 0.9291 0.02485 0.0
O6 O 0.82364 0.95128 0.98305 0.0
C7 C 0.92698 0.15054 0.00811 0.0
O8 O 0.06243 0.08627 0.03985 0.0
O9 O 0.15394 0.00914 0.04978 0.0
O10 O 0.07853 0.85561 0.02196 0.0
O11 O 0.0852 0.94937 0.98773 0.0
O12 O 0.87814 0.12513 0.98405 0.0
O13 O 0.98288 0.11332 0.02401 0.0
O14 O 0.04039 -0.00251 0.95898 0.0
O15 O 0.93331 0.01075 0.92144 0.0
C16 C 1.00317 -7e-05 0.92625 0.0
O17 O 1.00315 0.06057 0.06317 0.0
O18 O 1.00315 0.95835 0.09039 0.0
C19 C 0.85644 0.91472 0.01 0.0
C20 C 0.99485 0.02321 0.09179 0.0
Zn21 Zn 0.57092 0.43137 0.55299 0.0
Zn22 Zn 0.38646 0.52169 0.46853 0.0
Zn23 Zn 0.49847 0.49565 0.51102 0.0
C24 C 0.50738 0.50419 0.42792 0.0
C25 C 0.42504 0.64028 0.51222 0.0
O26 O 0.50557 0.55134 0.5636 0.0
O27 O 0.5051 0.45007 0.59166 0.0
C28 C 0.60382 0.37473 0.49688 0.0
O29 O 0.54317 0.48836 0.46005 0.0
O30 O 0.43894 0.5215 0.42408 0.0
O31 O 0.37259 0.61408 0.49055 0.0
O32 O 0.48457 0.60431 0.52453 0.0
O33 O 0.5779 0.34637 0.52354 0.0
O34 O 0.58667 0.43843 0.48829 0.0
O35 O 0.56405 0.577 0.54002 0.0
O36 O 0.65578 0.50015 0.55003 0.0
C37 C 0.63488 0.56293 0.54622 0.0
O38 O 0.42455 0.41972 0.52568 0.0
O39 O 0.32996 0.43816 0.48114 0.0
C40 C 0.49687 0.51497 0.59245 0.0
C41 C 0.36083 0.40296 0.50906 0.0
C42 C 0.08273 0.0312 0.26665 0.0
C43 C 0.05804 0.0896 0.24422 0.0
C44 C 0.10202 0.03638 0.30487 0.0
C45 C 0.09686 0.1001 0.32164 0.0
C46 C 0.07613 0.15921 0.29901 0.0
C47 C 0.05723 0.15406 0.26064 0.0
C48 C 0.1029 0.10304 0.36254 0.0
C49 C 0.15832 0.06501 0.38641 0.0
C50 C 0.15649 0.06066 0.42473 0.0
C51 C 0.09921 0.09581 0.43912 0.0
C52 C 0.04373 0.13366 0.41551 0.0
C53 C 0.0465 0.1376 0.37754 0.0
C54 C 0.97886 0.1648 0.42945 0.0
C55 C 0.90638 0.14812 0.41328 0.0
C56 C 0.98838 0.21374 0.45718 0.0
C57 C 0.92618 0.24739 0.46756 0.0
C58 C 0.85365 0.23155 0.45084 0.0
C59 C 0.20887 0.01277 0.44882 0.0
C60 C 0.18086 0.96165 0.47023 0.0
C61 C 0.28607 0.01421 0.44857 0.0
C62 C 0.33399 0.9638 0.46819 0.0
C63 C 0.30559 0.90958 0.48778 0.0
C64 C 0.22831 0.9105 0.48917 0.0
C65 C 0.84436 0.18084 0.42404 0.0
H66 H 0.08542 0.98095 0.25469 0.0
H67 H 0.11709 0.98982 0.32145 0.0
H68 H 0.07211 0.20915 0.31115 0.0
H69 H 0.03885 0.19997 0.24407 0.0
H70 H 0.20088 0.03633 0.375 0.0
H71 H 1.00219 0.16527 0.35937 0.0
H72 H 0.09605 0.0914 0.46838 0.0
H73 H 0.89779 0.11016 0.39197 0.0
H74 H 0.0438 0.22737 0.46995 0.0
H75 H 0.93468 0.28585 0.48859 0.0
H76 H 0.12147 0.959 0.47074 0.0
H77 H 0.30919 0.05367 0.43263 0.0
H78 H 0.78913 0.16781 0.41069 0.0
H79 H 0.20313 0.86962 0.50312 0.0
H80 H 0.39308 0.96644 0.46706 0.0
C81 C 0.12705 0.01419 0.7723 0.0
C82 C 0.12125 0.95311 0.79268 0.0
C83 C 0.12675 0.0125 0.73424 0.0
C84 C 0.1217 0.94949 0.71594 0.0
C85 C 0.12321 0.88796 0.73713 0.0
C86 C 0.12222 0.88981 0.77512 0.0
C87 C 0.10601 0.9489 0.67486 0.0
C88 C 0.1361 -0.00148 0.65351 0.0
C89 C 0.11231 0.00556 0.61521 0.0
C90 C 0.06085 0.95913 0.59767 0.0
C91 C 0.03224 0.90724 0.61854 0.0
C92 C 0.05446 0.90321 0.65702 0.0
C93 C 0.97664 0.85824 0.60127 0.0
C94 C 0.91257 0.88126 0.57706 0.0
C95 C 0.98451 0.7882 0.61178 0.0
C96 C 0.92859 0.7425 0.59953 0.0
C97 C 0.86331 0.76546 0.57622 0.0
C98 C 0.13949 0.06405 0.5947 0.0
C99 C 0.14387 0.12923 0.61058 0.0
C100 C 0.16546 0.05506 0.56087 0.0
C101 C 0.19909 0.10949 0.54442 0.0
C102 C 0.20733 0.1732 0.56176 0.0
C103 C 0.17784 0.18299 0.59443 0.0
C104 C 0.85618 0.83527 0.56475 0.0
H105 H 0.12534 0.06366 0.7852 0.0
H106 H 0.12489 0.06104 0.71894 0.0
H107 H 0.12133 0.83847 0.72412 0.0
H108 H 0.11799 0.84204 0.79045 0.0
H109 H 0.17736 0.03296 0.66691 0.0
H110 H 0.02854 0.86619 0.67327 0.0
H111 H 0.04232 0.96399 0.56813 0.0
H112 H 0.90485 0.93514 0.56877 0.0
H113 H 0.03345 0.76894 0.63026 0.0
H114 H 0.93568 0.68939 0.60935 0.0
H115 H 0.12245 0.1383 0.63609 0.0
H116 H 0.16266 0.00539 0.54805 0.0
H117 H 0.80689 0.8544 0.54653 0.0
H118 H 0.18213 0.23213 0.60784 0.0
H119 H 0.22136 0.10104 0.51909 0.0
C120 C 0.57993 0.53193 0.76732 0.0
C121 C 0.55689 0.5892 0.74372 0.0
C122 C 0.59964 0.53969 0.80533 0.0
C123 C 0.59676 0.60495 0.8207 0.0
C124 C 0.57743 0.66276 0.79689 0.0
C125 C 0.5579 0.65499 0.75876 0.0
C126 C 0.60476 0.61142 0.86147 0.0
C127 C 0.6594 0.57326 0.88556 0.0
C128 C 0.65952 0.57277 0.92397 0.0
C129 C 0.60529 0.61223 0.93833 0.0
C130 C 0.55099 0.65173 0.9146 0.0
C131 C 0.55137 0.65044 0.87632 0.0
C132 C 0.48987 0.69043 0.92869 0.0
C133 C 0.45601 0.66331 0.95771 0.0
C134 C 0.46057 0.75234 0.9109 0.0
C135 C 0.39661 0.78398 0.92024 0.0
C136 C 0.36109 0.75581 0.94843 0.0
C137 C 0.71163 0.52535 0.94838 0.0
C138 C 0.68353 0.47419 0.9697 0.0
C139 C 0.78874 0.52657 0.9479 0.0
C140 C 0.8365 0.47563 0.96706 0.0
C141 C 0.80798 0.42108 0.98632 0.0
C142 C 0.7309 0.42244 0.9882 0.0
C143 C 0.39278 0.69588 0.96764 0.0
H144 H 0.58136 0.48067 0.75646 0.0
H145 H 0.61361 0.49409 0.82285 0.0
H146 H 0.57528 0.71384 0.80793 0.0
H147 H 0.5408 0.70008 0.74129 0.0
H148 H 0.69994 0.5416 0.87434 0.0
H149 H 0.50687 0.67664 0.85763 0.0
H150 H 0.60526 0.6116 0.96789 0.0
H151 H 0.4766 0.61563 0.97199 0.0
H152 H 0.48605 0.77575 0.88897 0.0
H153 H 0.37409 0.82962 0.90451 0.0
H154 H 0.62416 0.47195 0.97037 0.0
H155 H 0.8118 0.56603 0.93193 0.0
H156 H 0.36849 0.67353 0.99022 0.0
H157 H 0.70585 0.38138 0.0021 0.0
H158 H 0.89551 0.47786 0.96563 0.0
C159 C 0.62944 0.53445 0.26779 0.0
C160 C 0.61907 0.47739 0.29045 0.0
C161 C 0.63059 0.52677 0.23025 0.0
C162 C 0.62308 0.46146 0.21449 0.0
C163 C 0.62002 0.40346 0.23792 0.0
C164 C 0.61765 0.41138 0.27555 0.0
C165 C 0.60983 0.45591 0.17357 0.0
C166 C 0.64188 0.50273 0.15144 0.0
C167 C 0.61697 0.50941 0.1133 0.0
C168 C 0.56432 0.46349 0.09634 0.0
C169 C 0.53505 0.41294 0.11786 0.0
C170 C 0.55724 0.41042 0.1564 0.0
C171 C 0.47815 0.36449 0.10126 0.0
C172 C 0.41447 0.38783 0.07687 0.0
C173 C 0.48458 0.29477 0.11251 0.0
C174 C 0.42783 0.24968 0.10062 0.0
C175 C 0.36311 0.27294 0.07698 0.0
C176 C 0.64245 0.56874 0.09286 0.0
C177 C 0.64412 0.63385 0.10882 0.0
C178 C 0.6701 0.56079 0.05942 0.0
C179 C 0.70284 0.61639 0.04346 0.0
C180 C 0.70832 0.6801 0.06092 0.0
C181 C 0.67721 0.68871 0.09319 0.0
C182 C 0.35721 0.34245 0.06495 0.0
H183 H 0.63218 0.58583 0.27866 0.0
H184 H 0.63236 0.57299 0.21335 0.0
H185 H 0.61597 0.35223 0.22693 0.0
H186 H 0.60977 0.36632 0.29236 0.0
H187 H 0.68435 0.53669 0.16419 0.0
H188 H 0.53012 0.37524 0.17314 0.0
H189 H 0.54513 0.46801 0.06685 0.0
H190 H 0.4078 0.44151 0.06804 0.0
H191 H 0.53315 0.27531 0.13119 0.0
H192 H 0.43392 0.19677 0.11086 0.0
H193 H 0.62153 0.64191 0.13412 0.0
H194 H 0.66936 0.51113 0.04665 0.0
H195 H 0.30832 0.36177 0.04649 0.0
H196 H 0.67961 0.73778 0.1067 0.0
H197 H 0.72655 0.60898 0.01844 0.0
C198 C 0.26478 0.10769 0.05089 0.0
C199 C 0.18978 0.12578 0.0519 0.0
H200 H 0.37735 0.14021 0.05665 0.0
C201 C 0.17088 0.19439 0.05846 0.0
H202 H 0.28106 0.05559 0.04512 0.0
C203 C 0.22679 0.24322 0.0655 0.0
C204 C 0.30225 0.22418 0.0658 0.0
H205 H 0.1134 0.20984 0.05914 0.0
H206 H 0.21124 0.29514 0.07193 0.0
C207 C 0.32013 0.15625 0.05755 0.0
C208 C 0.17282 0.77982 0.98069 0.0
C209 C 0.16287 0.85171 0.97852 0.0
H210 H 0.24141 0.69299 0.97181 0.0
C211 C 0.21603 0.89166 0.96439 0.0
H212 H 0.13254 0.74777 0.99141 0.0
C213 C 0.27985 0.86065 0.95443 0.0
C214 C 0.29137 0.78869 0.9576 0.0
H215 H 0.21051 0.94732 0.96297 0.0
H216 H 0.32135 0.89367 0.94558 0.0
C217 C 0.23592 0.7486 0.96998 0.0
C218 C 0.84251 0.82506 0.05833 0.0
C219 C 0.81948 0.85383 0.0228 0.0
H220 H 0.82462 0.74717 0.09817 0.0
C221 C 0.76158 0.82305 0.99917 0.0
H222 H 0.8871 0.8475 0.07703 0.0
C223 C 0.72697 0.76484 0.01099 0.0
C224 C 0.74875 0.73748 0.04686 0.0
H225 H 0.74327 0.84371 0.97144 0.0
H226 H 0.68199 0.74234 0.99253 0.0
C227 C 0.80693 0.76777 0.07037 0.0
C228 C 0.87011 0.25 0.03571 0.0
C229 C 0.92045 0.22497 0.0135 0.0
H230 H 0.79771 0.33327 0.04608 0.0
C231 C 0.94384 0.2694 0.98712 0.0
H232 H 0.85025 0.21613 0.0558 0.0
C233 C 0.91171 0.33544 0.98033 0.0
C234 C 0.85561 0.35881 1.00005 0.0
H235 H 0.98123 0.25053 0.96902 0.0
H236 H 0.92626 0.36521 0.95728 0.0
C237 C 0.83881 0.3167 0.02945 0.0
C238 C 0.76617 0.59944 0.5503 0.0
C239 C 0.69114 0.61703 0.55155 0.0
H240 H 0.87842 0.63277 0.55568 0.0
C241 C 0.67181 0.68552 0.55812 0.0
H242 H 0.78272 0.54741 0.54452 0.0
C243 C 0.72732 0.73472 0.56499 0.0
C244 C 0.80285 0.71624 0.56507 0.0
H245 H 0.61429 0.70059 0.55898 0.0
H246 H 0.7114 0.78649 0.57149 0.0
C247 C 0.82116 0.64841 0.55675 0.0
C248 C 0.72353 0.37542 0.47154 0.0
C249 C 0.66326 0.33856 0.48111 0.0
H250 H 0.83141 0.37018 0.45469 0.0
C251 C 0.66521 0.2664 0.47988 0.0
H252 H 0.72395 0.43105 0.47288 0.0
C253 C 0.72656 0.23166 0.46944 0.0
C254 C 0.78768 0.26843 0.46081 0.0
H255 H 0.61983 0.23682 0.48758 0.0
H256 H 0.72717 0.17593 0.46912 0.0
C257 C 0.78532 0.34065 0.46162 0.0
C258 C 0.26646 0.31061 0.49818 0.0
C259 C 0.32327 0.34248 0.52196 0.0
H260 H 0.18614 0.23052 0.49199 0.0
C261 C 0.3438 0.31608 0.55817 0.0
H262 H 0.25003 0.32949 0.46997 0.0
C263 C 0.30669 0.2603 0.57075 0.0
C264 C 0.24925 0.22912 0.54719 0.0
H265 H 0.38746 0.3394 0.57705 0.0
H266 H 0.32264 0.24161 0.59904 0.0
C267 C 0.23024 0.25385 0.5106 0.0
C268 C 0.4444 0.75911 0.49199 0.0
C269 C 0.41875 0.7147 0.51771 0.0
H270 H 0.4281 0.85443 0.46158 0.0
C271 C 0.3663 0.73981 0.53874 0.0
H272 H 0.48355 0.74021 0.4748 0.0
C273 C 0.3351 0.80636 0.53182 0.0
C274 C 0.35361 0.84812 0.50267 0.0
H275 H 0.34487 0.70604 0.55837 0.0
H276 H 0.29264 0.82294 0.54765 0.0
C277 C 0.41193 0.8249 0.48432 0.0
C278 C 0.96585 0.01266 0.1555 0.0
C279 C 0.99423 0.05235 0.12858 0.0
H280 H 0.96324 0.99388 0.21296 0.0
C281 C 0.03552 0.11076 0.13946 0.0
H282 H 0.93352 0.96756 0.14786 0.0
C283 C 0.05354 0.1254 0.1771 0.0
C284 C 0.03051 0.08175 0.20419 0.0
H285 H 0.05876 0.14181 0.1193 0.0
H286 H 0.08928 0.16813 0.18506 0.0
C287 C 0.98369 0.0272 0.19282 0.0
C288 C 1.00064 0.94228 0.86675 0.0
C289 C 0.0391 0.98255 0.89432 0.0
H290 H 0.99828 0.89987 0.81341 0.0
C291 C 0.10955 0.00721 0.89023 0.0
H292 H 0.9466 0.922 0.86956 0.0
C293 C 0.13879 -0.00464 0.85766 0.0
C294 C 0.09883 0.95683 0.82958 0.0
H295 H 0.14013 0.03817 0.91134 0.0
H296 H 0.19137 0.01766 0.85394 0.0
C297 C 0.03056 0.92894 0.83487 0.0
C298 C 0.53636 0.60465 0.63891 0.0
C299 C 0.49567 0.54558 0.62878 0.0
H300 H 0.58902 0.66443 0.68369 0.0
C301 C 0.46687 0.50723 0.65606 0.0
H302 H 0.55981 0.63472 0.61844 0.0
C303 C 0.48367 0.52389 0.69312 0.0
C304 C 0.53006 0.5791 0.70384 0.0
H305 H 0.4349 0.4617 0.64895 0.0
H306 H 0.46277 0.49171 0.7136 0.0
C307 C 0.55355 0.62127 0.67627 0.0
C308 C 0.51955 0.54729 0.36512 0.0
C309 C 0.54363 0.5012 0.39479 0.0
H310 H 0.52446 0.57572 0.30911 0.0
C311 C 0.59719 0.44975 0.39106 0.0
H312 H 0.47811 0.58737 0.36729 0.0
C313 C 0.62441 0.44304 0.35758 0.0
C314 C 0.59856 0.48812 0.3275 0.0
H315 H 0.615 0.41266 0.41322 0.0
H316 H 0.66417 0.40177 0.35496 0.0
C317 C 0.54677 0.54096 0.3319 0.0
loop_
_geom_bond_atom_site_label_1
_geom_bond_atom_site_label_2
_geom_bond_distance
_geom_bond_site_symmetry_2
_ccdc_geom_bond_type
Zn0 O6 1.920 1_545 S
Zn0 O12 1.898 . S
Zn0 O15 1.905 1_545 S
Zn1 O9 1.905 . S
Zn1 O10 1.898 1_545 S
Zn1 O18 1.920 1_545 S
Zn2 O5 2.080 1_445 S
Zn2 O8 2.114 . S
Zn2 O11 2.120 1_545 S
Zn2 O13 2.120 1_455 S
Zn2 O14 2.114 1_554 S
Zn2 O17 2.080 . S
C3 O8 1.166 . S
C3 O9 1.182 . S
C4 O10 1.167 . S
C4 O11 1.299 . S
O5 Zn2 2.080 1_665 S
O5 C19 1.305 . S
O6 Zn0 1.920 1_565 S
O6 C19 1.234 1_556 S
C7 O12 1.167 . S
C7 O13 1.299 1_556 S
O8 Zn2 2.114 . S
O8 C3 1.166 . S
O9 Zn1 1.905 . S
O9 C3 1.182 . S
O10 Zn1 1.898 1_565 S
O10 C4 1.167 . S
O11 Zn2 2.120 1_565 S
O11 C4 1.299 . S
O12 Zn0 1.898 . S
O12 C7 1.167 . S
O13 Zn2 2.120 1_655 S
O13 C7 1.299 1_554 S
O14 Zn2 2.114 1_556 S
O14 C16 1.166 1_445 S
O15 Zn0 1.905 1_565 S
O15 C16 1.182 . S
C16 O14 1.166 1_665 S
C16 O15 1.182 . S
O17 Zn2 2.080 . S
O17 C20 1.305 1_545 S
O18 Zn1 1.920 1_565 S
O18 C20 1.234 . S
C19 O5 1.305 . S
C19 O6 1.234 1_554 S
C20 O17 1.305 1_565 S
C20 O18 1.234 . S
Zn21 O27 1.920 . S
Zn21 O33 1.898 . S
Zn21 O36 1.905 . S
Zn22 O30 1.905 . S
Zn22 O31 1.898 . S
Zn22 O39 1.920 . S
Zn23 O26 2.080 . S
Zn23 O29 2.114 . S
Zn23 O32 2.120 . S
Zn23 O34 2.120 . S
Zn23 O35 2.114 . S
Zn23 O38 2.080 . S
C24 O29 1.166 . S
C24 O30 1.182 . S
C25 O31 1.167 . S
C25 O32 1.299 . S
O26 Zn23 2.080 . S
O26 C40 1.305 . S
O27 Zn21 1.920 . S
O27 C40 1.234 . S
C28 O33 1.167 . S
C28 O34 1.299 . S
O29 Zn23 2.114 . S
O29 C24 1.166 . S
O30 Zn22 1.905 . S
O30 C24 1.182 . S
O31 Zn22 1.898 . S
O31 C25 1.167 . S
O32 Zn23 2.120 . S
O32 C25 1.299 . S
O33 Zn21 1.898 . S
O33 C28 1.167 . S
O34 Zn23 2.120 . S
O34 C28 1.299 . S
O35 Zn23 2.114 . S
O35 C37 1.166 . S
O36 Zn21 1.905 . S
O36 C37 1.182 . S
C37 O35 1.166 . S
C37 O36 1.182 . S
O38 Zn23 2.080 . S
O38 C41 1.305 . S
O39 Zn22 1.920 . S
O39 C41 1.234 . S
C40 O26 1.305 . S
C40 O27 1.234 . S
C41 O38 1.305 . S
C41 O39 1.234 . S
C42 C43 1.386 1_565 S
C42 C44 1.397 . S
C42 H66 0.931 . S
C43 C42 1.386 1_545 S
C43 C47 1.397 . S
C44 C42 1.397 . S
C44 C45 1.384 1_565 S
C44 H67 0.930 . S
C45 C44 1.384 1_545 S
C45 C46 1.377 . S
C45 C48 1.481 . S
C46 C45 1.377 . S
C46 C47 1.389 . S
C46 H68 0.929 . S
C47 C43 1.397 . S
C47 C46 1.389 . S
C47 H69 0.931 . S
C48 C45 1.481 . S
C48 C49 1.387 1_545 S
C48 C53 1.390 . S
C49 C48 1.387 1_565 S
C49 C50 1.401 . S
C49 H70 0.930 . S
C50 C49 1.401 . S
C50 C51 1.376 1_565 S
C50 C59 1.511 . S
C51 C50 1.376 1_545 S
C51 C52 1.392 . S
C51 H72 0.931 . S
C52 C51 1.392 . S
C52 C53 1.361 . S
C52 C54 1.500 1_455 S
C53 C48 1.390 . S
C53 C52 1.361 . S
C53 H71 0.932 1_455 S
C54 C52 1.500 1_655 S
C54 C55 1.371 . S
C54 C56 1.365 . S
C55 C54 1.371 . S
C55 C65 1.386 . S
C55 H73 0.931 . S
C56 C54 1.365 . S
C56 C57 1.409 . S
C56 H74 0.929 . S
C57 C56 1.409 . S
C57 C58 1.380 . S
C57 H75 0.930 . S
C58 C57 1.380 . S
C58 C65 1.357 . S
C59 C50 1.511 . S
C59 C60 1.341 . S
C59 C61 1.371 . S
C60 C59 1.341 . S
C60 C64 1.394 . S
C60 H76 0.930 . S
C61 C59 1.371 . S
C61 C62 1.392 . S
C61 H77 0.931 . S
C62 C61 1.392 . S
C62 C63 1.331 . S
C62 H80 0.932 . S
C63 C62 1.331 . S
C63 C64 1.336 . S
C64 C60 1.394 . S
C64 C63 1.336 . S
C64 H79 0.929 . S
C65 C55 1.386 . S
C65 C58 1.357 . S
C65 H78 0.928 . S
H66 C42 0.931 . S
H67 C44 0.930 . S
H68 C46 0.929 . S
H69 C47 0.931 . S
H70 C49 0.930 . S
H71 C53 0.932 1_655 S
H72 C51 0.931 . S
H73 C55 0.931 . S
H74 C56 0.929 . S
H75 C57 0.930 . S
H76 C60 0.930 . S
H77 C61 0.931 . S
H78 C65 0.928 . S
H79 C64 0.929 . S
H80 C62 0.932 . S
C81 C82 1.386 . S
C81 C83 1.397 . S
C81 H105 0.931 . S
C82 C81 1.386 . S
C82 C86 1.397 1_545 S
C83 C81 1.397 . S
C83 C84 1.384 . S
C83 H106 0.930 . S
C84 C83 1.384 . S
C84 C85 1.377 1_545 S
C84 C87 1.481 . S
C85 C84 1.377 1_565 S
C85 C86 1.389 . S
C85 H107 0.929 . S
C86 C82 1.397 1_565 S
C86 C85 1.389 . S
C86 H108 0.931 . S
C87 C84 1.481 . S
C87 C88 1.387 . S
C87 C92 1.390 1_445 S
C88 C87 1.387 . S
C88 C89 1.401 . S
C88 H109 0.930 . S
C89 C88 1.401 . S
C89 C90 1.367 1_455 S
C89 C98 1.511 . S
C90 C89 1.367 1_655 S
C90 C91 1.402 1_545 S
C90 H111 0.931 . S
C91 C90 1.402 1_565 S
C91 C92 1.361 . S
C91 C93 1.500 . S
C92 C87 1.390 1_665 S
C92 C91 1.361 . S
C92 H110 0.931 . S
C93 C91 1.500 . S
C93 C94 1.371 . S
C93 C95 1.365 . S
C94 C93 1.371 . S
C94 C104 1.386 . S
C94 H112 0.931 . S
C95 C93 1.365 . S
C95 C96 1.409 . S
C95 H113 0.929 . S
C96 C95 1.409 . S
C96 C97 1.380 . S
C96 H114 0.930 . S
C97 C96 1.380 . S
C97 C104 1.357 . S
C98 C89 1.511 . S
C98 C99 1.341 . S
C98 C100 1.371 . S
C99 C98 1.341 . S
C99 C103 1.394 . S
C99 H115 0.930 . S
C100 C98 1.371 . S
C100 C101 1.392 . S
C100 H116 0.931 . S
C101 C100 1.392 . S
C101 C102 1.331 . S
C101 H119 0.932 . S
C102 C101 1.331 . S
C102 C103 1.336 . S
C103 C99 1.394 . S
C103 C102 1.336 . S
C103 H118 0.929 . S
C104 C94 1.386 . S
C104 C97 1.357 . S
C104 H117 0.928 . S
H105 C81 0.931 . S
H106 C83 0.930 . S
H107 C85 0.929 . S
H108 C86 0.931 . S
H109 C88 0.930 . S
H110 C92 0.931 . S
H111 C90 0.931 . S
H112 C94 0.931 . S
H113 C95 0.929 . S
H114 C96 0.930 . S
H115 C99 0.930 . S
H116 C100 0.931 . S
H117 C104 0.928 . S
H118 C103 0.929 . S
H119 C101 0.932 . S
C120 C121 1.386 . S
C120 C122 1.397 . S
C120 H144 0.931 . S
C121 C120 1.386 . S
C121 C125 1.397 . S
C122 C120 1.397 . S
C122 C123 1.384 . S
C122 H145 0.930 . S
C123 C122 1.384 . S
C123 C124 1.377 . S
C123 C126 1.481 . S
C124 C123 1.377 . S
C124 C125 1.389 . S
C124 H146 0.929 . S
C125 C121 1.397 . S
C125 C124 1.389 . S
C125 H147 0.931 . S
C126 C123 1.481 . S
C126 C127 1.387 . S
C126 C131 1.390 . S
C127 C126 1.387 . S
C127 C128 1.401 . S
C127 H148 0.930 . S
C128 C127 1.401 . S
C128 C129 1.376 . S
C128 C137 1.511 . S
C129 C128 1.376 . S
C129 C130 1.392 . S
C129 H150 0.931 . S
C130 C129 1.392 . S
C130 C131 1.361 . S
C130 C132 1.500 . S
C131 C126 1.390 . S
C131 C130 1.361 . S
C131 H149 0.931 . S
C132 C130 1.500 . S
C132 C133 1.371 . S
C132 C134 1.365 . S
C133 C132 1.371 . S
C133 C143 1.386 . S
C133 H151 0.931 . S
C134 C132 1.365 . S
C134 C135 1.409 . S
C134 H152 0.929 . S
C135 C134 1.409 . S
C135 C136 1.380 . S
C135 H153 0.930 . S
C136 C135 1.380 . S
C136 C143 1.357 . S
C137 C128 1.511 . S
C137 C138 1.341 . S
C137 C139 1.371 . S
C138 C137 1.341 . S
C138 C142 1.394 . S
C138 H154 0.930 . S
C139 C137 1.371 . S
C139 C140 1.392 1_556 S
C139 H155 0.931 . S
C140 C139 1.392 1_554 S
C140 C141 1.331 1_554 S
C140 H158 0.932 . S
C141 C140 1.331 1_556 S
C141 C142 1.336 . S
C142 C138 1.394 . S
C142 C141 1.336 . S
C142 H157 0.929 . S
C143 C133 1.386 . S
C143 C136 1.357 . S
C143 H156 0.928 1_556 S
H144 C120 0.931 . S
H145 C122 0.930 . S
H146 C124 0.929 . S
H147 C125 0.931 . S
H148 C127 0.930 . S
H149 C131 0.931 . S
H150 C129 0.931 . S
H151 C133 0.931 . S
H152 C134 0.929 . S
H153 C135 0.930 . S
H154 C138 0.930 . S
H155 C139 0.931 . S
H156 C143 0.928 1_554 S
H157 C142 0.929 . S
H158 C140 0.932 . S
C159 C160 1.386 . S
C159 C161 1.397 . S
C159 H183 0.931 . S
C160 C159 1.386 . S
C160 C164 1.397 . S
C161 C159 1.397 . S
C161 C162 1.384 . S
C161 H184 0.930 . S
C162 C161 1.384 . S
C162 C163 1.377 . S
C162 C165 1.481 . S
C163 C162 1.377 . S
C163 C164 1.389 . S
C163 H185 0.929 . S
C164 C160 1.397 . S
C164 C163 1.389 . S
C164 H186 0.931 . S
C165 C162 1.481 . S
C165 C166 1.387 . S
C165 C170 1.390 . S
C166 C165 1.387 . S
C166 C167 1.401 . S
C166 H187 0.930 . S
C167 C166 1.401 . S
C167 C168 1.376 . S
C167 C176 1.511 . S
C168 C167 1.376 . S
C168 C169 1.392 . S
C168 H189 0.931 . S
C169 C168 1.392 . S
C169 C170 1.361 . S
C169 C171 1.500 . S
C170 C165 1.390 . S
C170 C169 1.361 . S
C170 H188 0.931 . S
C171 C169 1.500 . S
C171 C172 1.371 . S
C171 C173 1.365 . S
C172 C171 1.371 . S
C172 C182 1.386 . S
C172 H190 0.931 . S
C173 C171 1.365 . S
C173 C174 1.409 . S
C173 H191 0.929 . S
C174 C173 1.409 . S
C174 C175 1.380 . S
C174 H192 0.930 . S
C175 C174 1.380 . S
C175 C182 1.357 . S
C176 C167 1.511 . S
C176 C177 1.341 . S
C176 C178 1.371 . S
C177 C176 1.341 . S
C177 C181 1.394 . S
C177 H193 0.930 . S
C178 C176 1.371 . S
C178 C179 1.392 . S
C178 H194 0.931 . S
C179 C178 1.392 . S
C179 C180 1.331 . S
C179 H197 0.932 . S
C180 C179 1.331 . S
C180 C181 1.336 . S
C181 C177 1.394 . S
C181 C180 1.336 . S
C181 H196 0.929 . S
C182 C172 1.386 . S
C182 C175 1.357 . S
C182 H195 0.928 . S
H183 C159 0.931 . S
H184 C161 0.930 . S
H185 C163 0.929 . S
H186 C164 0.931 . S
H187 C166 0.930 . S
H188 C170 0.931 . S
H189 C168 0.931 . S
H190 C172 0.931 . S
H191 C173 0.929 . S
H192 C174 0.930 . S
H193 C177 0.930 . S
H194 C178 0.931 . S
H195 C182 0.928 . S
H196 C181 0.929 . S
H197 C179 0.932 . S
C198 C199 1.387 1_556 S
C198 H202 0.950 . S
C198 C207 1.390 1_556 S
C199 C198 1.387 1_554 S
C199 C201 1.387 . S
H200 C207 0.934 1_556 S
C201 C199 1.387 . S
C201 C203 1.390 . S
C201 H205 0.950 . S
H202 C198 0.950 . S
C203 C201 1.390 . S
C203 C204 1.387 . S
C203 H206 0.950 . S
C204 C203 1.387 . S
C204 C207 1.404 . S
H205 C201 0.950 . S
H206 C203 0.950 . S
C207 C198 1.390 1_554 S
C207 H200 0.934 1_554 S
C207 C204 1.404 . S
C208 C209 1.387 1_554 S
C208 H212 0.950 . S
C208 C217 1.390 . S
C209 C208 1.387 1_556 S
C209 C211 1.387 . S
H210 C217 0.950 . S
C211 C209 1.387 . S
C211 C213 1.390 . S
C211 H215 0.950 . S
H212 C208 0.950 . S
C213 C211 1.390 . S
C213 C214 1.387 . S
C213 H216 0.950 . S
C214 C213 1.387 . S
C214 C217 1.387 1_556 S
H215 C211 0.950 . S
H216 C213 0.950 . S
C217 C208 1.390 . S
C217 H210 0.950 . S
C217 C214 1.387 1_554 S
C218 C219 1.387 . S
C218 H222 0.950 . S
C218 C227 1.390 . S
C219 C218 1.387 . S
C219 C221 1.387 . S
H220 C227 0.950 . S
C221 C219 1.387 . S
C221 C223 1.390 . S
C221 H225 0.950 1_554 S
H222 C218 0.950 . S
C223 C221 1.390 . S
C223 C224 1.387 . S
C223 H226 0.950 1_554 S
C224 C223 1.387 . S
C224 C227 1.387 . S
H225 C221 0.950 1_556 S
H226 C223 0.950 1_556 S
C227 C218 1.390 . S
C227 H220 0.950 . S
C227 C224 1.387 . S
C228 C229 1.387 . S
C228 H232 0.950 . S
C228 C237 1.390 . S
C229 C228 1.387 . S
C229 C231 1.387 1_554 S
H230 C237 0.950 . S
C231 C229 1.387 1_556 S
C231 C233 1.390 . S
C231 H235 0.950 . S
H232 C228 0.950 . S
C233 C231 1.390 . S
C233 C234 1.387 . S
C233 H236 0.950 . S
C234 C233 1.387 . S
C234 C237 1.387 1_556 S
H235 C231 0.950 . S
H236 C233 0.950 . S
C237 C228 1.390 . S
C237 H230 0.950 . S
C237 C234 1.387 1_554 S
C238 C239 1.387 . S
C238 H242 0.950 . S
C238 C247 1.390 . S
C239 C238 1.387 . S
C239 C241 1.387 . S
H240 C247 0.950 . S
C241 C239 1.387 . S
C241 C243 1.390 . S
C241 H245 0.950 . S
H242 C238 0.950 . S
C243 C241 1.390 . S
C243 C244 1.387 . S
C243 H246 0.950 . S
C244 C243 1.387 . S
C244 C247 1.387 . S
H245 C241 0.950 . S
H246 C243 0.950 . S
C247 C238 1.390 . S
C247 H240 0.950 . S
C247 C244 1.387 . S
C248 C249 1.387 . S
C248 H252 0.950 . S
C248 C257 1.390 . S
C249 C248 1.387 . S
C249 C251 1.387 . S
H250 C257 0.950 . S
C251 C249 1.387 . S
C251 C253 1.390 . S
C251 H255 0.950 . S
H252 C248 0.950 . S
C253 C251 1.390 . S
C253 C254 1.387 . S
C253 H256 0.950 . S
C254 C253 1.387 . S
C254 C257 1.387 . S
H255 C251 0.950 . S
H256 C253 0.950 . S
C257 C248 1.390 . S
C257 H250 0.950 . S
C257 C254 1.387 . S
C258 C259 1.387 . S
C258 H262 0.950 . S
C258 C267 1.390 . S
C259 C258 1.387 . S
C259 C261 1.387 . S
H260 C267 0.950 . S
C261 C259 1.387 . S
C261 C263 1.390 . S
C261 H265 0.950 . S
H262 C258 0.950 . S
C263 C261 1.390 . S
C263 C264 1.387 . S
C263 H266 0.950 . S
C264 C263 1.387 . S
C264 C267 1.387 . S
H265 C261 0.950 . S
H266 C263 0.950 . S
C267 C258 1.390 . S
C267 H260 0.950 . S
C267 C264 1.387 . S
C268 C269 1.387 . S
C268 H272 0.950 . S
C268 C277 1.390 . S
C269 C268 1.387 . S
C269 C271 1.387 . S
H270 C277 0.950 . S
C271 C269 1.387 . S
C271 C273 1.390 . S
C271 H275 0.950 . S
H272 C268 0.950 . S
C273 C271 1.390 . S
C273 C274 1.387 . S
C273 H276 0.950 . S
C274 C273 1.387 . S
C274 C277 1.387 . S
H275 C271 0.950 . S
H276 C273 0.950 . S
C277 C268 1.390 . S
C277 H270 0.950 . S
C277 C274 1.387 . S
C278 C279 1.387 1_655 S
C278 H282 0.950 . S
C278 C287 1.390 1_565 S
C279 C278 1.387 1_455 S
C279 C281 1.387 1_565 S
H280 C287 0.950 . S
C281 C279 1.387 1_545 S
C281 C283 1.390 . S
C281 H285 0.950 . S
H282 C278 0.950 . S
C283 C281 1.390 . S
C283 C284 1.387 . S
C283 H286 0.950 . S
C284 C283 1.387 . S
C284 C287 1.387 1_455 S
H285 C281 0.950 . S
H286 C283 0.950 . S
C287 C278 1.390 1_545 S
C287 H280 0.950 . S
C287 C284 1.387 1_655 S
C288 C289 1.387 1_655 S
C288 H292 0.950 . S
C288 C297 1.390 1_565 S
C289 C288 1.387 1_455 S
C289 C291 1.387 . S
H290 C297 0.950 . S
C291 C289 1.387 . S
C291 C293 1.390 1_565 S
C291 H295 0.950 . S
H292 C288 0.950 . S
C293 C291 1.390 1_545 S
C293 C294 1.387 . S
C293 H296 0.950 . S
C294 C293 1.387 . S
C294 C297 1.387 1_455 S
H295 C291 0.950 . S
H296 C293 0.950 . S
C297 C288 1.390 1_545 S
C297 H290 0.950 . S
C297 C294 1.387 1_655 S
C298 C299 1.387 . S
C298 H302 0.950 . S
C298 C307 1.390 . S
C299 C298 1.387 . S
C299 C301 1.387 . S
H300 C307 0.950 . S
C301 C299 1.387 . S
C301 C303 1.390 . S
C301 H305 0.950 . S
H302 C298 0.950 . S
C303 C301 1.390 . S
C303 C304 1.387 . S
C303 H306 0.950 . S
C304 C303 1.387 . S
C304 C307 1.387 . S
H305 C301 0.950 . S
H306 C303 0.950 . S
C307 C298 1.390 . S
C307 H300 0.950 . S
C307 C304 1.387 . S
C308 C309 1.387 . S
C308 H312 0.950 . S
C308 C317 1.390 . S
C309 C308 1.387 . S
C309 C311 1.387 . S
H310 C317 0.950 . S
C311 C309 1.387 . S
C311 C313 1.390 . S
C311 H315 0.950 . S
H312 C308 0.950 . S
C313 C311 1.390 . S
C313 C314 1.387 . S
C313 H316 0.950 . S
C314 C313 1.387 . S
C314 C317 1.387 . S
H315 C311 0.950 . S
H316 C313 0.950 . S
C317 C308 1.390 . S
C317 H310 0.950 . S
C317 C314 1.387 . S
C204 C175 1.332 . S
C199 C3 1.241 . S
C209 C4 1.490 1_556 S
C214 C136 1.618 . S
C219 C19 1.519 . S
C224 C180 1.635 . S
C229 C7 1.245 1_554 S
C234 C141 1.340 . S
C239 C37 1.241 . S
C244 C97 1.332 . S
C249 C28 1.493 . S
C254 C58 1.619 . S
C264 C102 1.635 . S
C259 C41 1.517 . S
C274 C63 1.339 . S
C269 C25 1.250 . S
C279 C20 1.322 . S
C284 C43 1.505 . S
C289 C16 1.363 1_455 S
C294 C82 1.549 . S
C304 C121 1.506 . S
C299 C40 1.320 . S
C309 C24 1.361 . S
C314 C160 1.549 . S
