# Generated by pormake.
# Topology bwt, (3,3)-cn, num edge types: 1
# Building blocks:
#     Node 0, Type 0, BuildingBlock: OLANEW_clean_sbu_2, # of connection points: 3
#     Node 1, Type 0, BuildingBlock: OLANEW_clean_sbu_2, # of connection points: 3
#     Node 2, Type 0, BuildingBlock: OLANEW_clean_sbu_2, # of connection points: 3
#     Node 3, Type 0, BuildingBlock: OLANEW_clean_sbu_2, # of connection points: 3
#     Node 4, Type 0, BuildingBlock: OLANEW_clean_sbu_2, # of connection points: 3
#     Node 5, Type 0, BuildingBlock: OLANEW_clean_sbu_2, # of connection points: 3
#     Node 6, Type 0, BuildingBlock: OLANEW_clean_sbu_2, # of connection points: 3
#     Node 7, Type 0, BuildingBlock: OLANEW_clean_sbu_2, # of connection points: 3
#     Node 8, Type 0, BuildingBlock: OLANEW_clean_sbu_2, # of connection points: 3
#     Node 9, Type 0, BuildingBlock: OLANEW_clean_sbu_2, # of connection points: 3
#     Node 10, Type 0, BuildingBlock: OLANEW_clean_sbu_2, # of connection points: 3
#     Node 11, Type 0, BuildingBlock: OLANEW_clean_sbu_2, # of connection points: 3
#     Node 12, Type 0, BuildingBlock: OLANEW_clean_sbu_2, # of connection points: 3
#     Node 13, Type 0, BuildingBlock: OLANEW_clean_sbu_2, # of connection points: 3
#     Node 14, Type 0, BuildingBlock: OLANEW_clean_sbu_2, # of connection points: 3
#     Node 15, Type 0, BuildingBlock: OLANEW_clean_sbu_2, # of connection points: 3
#     Node 16, Type 0, BuildingBlock: OLANEW_clean_sbu_2, # of connection points: 3
#     Node 17, Type 0, BuildingBlock: OLANEW_clean_sbu_2, # of connection points: 3
#     Node 18, Type 0, BuildingBlock: OLANEW_clean_sbu_2, # of connection points: 3
#     Node 19, Type 0, BuildingBlock: OLANEW_clean_sbu_2, # of connection points: 3
#     Node 20, Type 0, BuildingBlock: OLANEW_clean_sbu_2, # of connection points: 3
#     Node 21, Type 0, BuildingBlock: OLANEW_clean_sbu_2, # of connection points: 3
#     Node 22, Type 0, BuildingBlock: OLANEW_clean_sbu_2, # of connection points: 3
#     Node 23, Type 0, BuildingBlock: OLANEW_clean_sbu_2, # of connection points: 3
#     Node 24, Type 1, BuildingBlock: BELTOD_clean_linker_0, # of connection points: 3
#     Node 25, Type 1, BuildingBlock: BELTOD_clean_linker_0, # of connection points: 3
#     Node 26, Type 1, BuildingBlock: BELTOD_clean_linker_0, # of connection points: 3
#     Node 27, Type 1, BuildingBlock: BELTOD_clean_linker_0, # of connection points: 3
#     Node 28, Type 1, BuildingBlock: BELTOD_clean_linker_0, # of connection points: 3
#     Node 29, Type 1, BuildingBlock: BELTOD_clean_linker_0, # of connection points: 3
#     Node 30, Type 1, BuildingBlock: BELTOD_clean_linker_0, # of connection points: 3
#     Node 31, Type 1, BuildingBlock: BELTOD_clean_linker_0, # of connection points: 3
#     Node 32, Type 1, BuildingBlock: BELTOD_clean_linker_0, # of connection points: 3
#     Node 33, Type 1, BuildingBlock: BELTOD_clean_linker_0, # of connection points: 3
#     Node 34, Type 1, BuildingBlock: BELTOD_clean_linker_0, # of connection points: 3
#     Node 35, Type 1, BuildingBlock: BELTOD_clean_linker_0, # of connection points: 3
#     Node 36, Type 1, BuildingBlock: BELTOD_clean_linker_0, # of connection points: 3
#     Node 37, Type 1, BuildingBlock: BELTOD_clean_linker_0, # of connection points: 3
#     Node 38, Type 1, BuildingBlock: BELTOD_clean_linker_0, # of connection points: 3
#     Node 39, Type 1, BuildingBlock: BELTOD_clean_linker_0, # of connection points: 3
#     Node 40, Type 1, BuildingBlock: BELTOD_clean_linker_0, # of connection points: 3
#     Node 41, Type 1, BuildingBlock: BELTOD_clean_linker_0, # of connection points: 3
#     Node 42, Type 1, BuildingBlock: BELTOD_clean_linker_0, # of connection points: 3
#     Node 43, Type 1, BuildingBlock: BELTOD_clean_linker_0, # of connection points: 3
#     Node 44, Type 1, BuildingBlock: BELTOD_clean_linker_0, # of connection points: 3
#     Node 45, Type 1, BuildingBlock: BELTOD_clean_linker_0, # of connection points: 3
#     Node 46, Type 1, BuildingBlock: BELTOD_clean_linker_0, # of connection points: 3
#     Node 47, Type 1, BuildingBlock: BELTOD_clean_linker_0, # of connection points: 3
#     Edge 48, Type (0, 1), BuildingBlock: OJICUG_clean_linker_0, # of connection points: 2
#     Edge 49, Type (0, 1), BuildingBlock: OJICUG_clean_linker_0, # of connection points: 2
#     Edge 50, Type (0, 1), BuildingBlock: OJICUG_clean_linker_0, # of connection points: 2
#     Edge 51, Type (0, 1), BuildingBlock: OJICUG_clean_linker_0, # of connection points: 2
#     Edge 52, Type (0, 1), BuildingBlock: OJICUG_clean_linker_0, # of connection points: 2
#     Edge 53, Type (0, 1), BuildingBlock: OJICUG_clean_linker_0, # of connection points: 2
#     Edge 54, Type (0, 1), BuildingBlock: OJICUG_clean_linker_0, # of connection points: 2
#     Edge 55, Type (0, 1), BuildingBlock: OJICUG_clean_linker_0, # of connection points: 2
#     Edge 56, Type (0, 1), BuildingBlock: OJICUG_clean_linker_0, # of connection points: 2
#     Edge 57, Type (0, 1), BuildingBlock: OJICUG_clean_linker_0, # of connection points: 2
#     Edge 58, Type (0, 1), BuildingBlock: OJICUG_clean_linker_0, # of connection points: 2
#     Edge 59, Type (0, 1), BuildingBlock: OJICUG_clean_linker_0, # of connection points: 2
#     Edge 60, Type (0, 1), BuildingBlock: OJICUG_clean_linker_0, # of connection points: 2
#     Edge 61, Type (0, 1), BuildingBlock: OJICUG_clean_linker_0, # of connection points: 2
#     Edge 62, Type (0, 1), BuildingBlock: OJICUG_clean_linker_0, # of connection points: 2
#     Edge 63, Type (0, 1), BuildingBlock: OJICUG_clean_linker_0, # of connection points: 2
#     Edge 64, Type (0, 1), BuildingBlock: OJICUG_clean_linker_0, # of connection points: 2
#     Edge 65, Type (0, 1), BuildingBlock: OJICUG_clean_linker_0, # of connection points: 2
#     Edge 66, Type (0, 1), BuildingBlock: OJICUG_clean_linker_0, # of connection points: 2
#     Edge 67, Type (0, 1), BuildingBlock: OJICUG_clean_linker_0, # of connection points: 2
#     Edge 68, Type (0, 1), BuildingBlock: OJICUG_clean_linker_0, # of connection points: 2
#     Edge 69, Type (0, 1), BuildingBlock: OJICUG_clean_linker_0, # of connection points: 2
#     Edge 70, Type (0, 1), BuildingBlock: OJICUG_clean_linker_0, # of connection points: 2
#     Edge 71, Type (0, 1), BuildingBlock: OJICUG_clean_linker_0, # of connection points: 2
#     Edge 72, Type (0, 1), BuildingBlock: OJICUG_clean_linker_0, # of connection points: 2
#     Edge 73, Type (0, 1), BuildingBlock: OJICUG_clean_linker_0, # of connection points: 2
#     Edge 74, Type (0, 1), BuildingBlock: OJICUG_clean_linker_0, # of connection points: 2
#     Edge 75, Type (0, 1), BuildingBlock: OJICUG_clean_linker_0, # of connection points: 2
#     Edge 76, Type (0, 1), BuildingBlock: OJICUG_clean_linker_0, # of connection points: 2
#     Edge 77, Type (0, 1), BuildingBlock: OJICUG_clean_linker_0, # of connection points: 2
#     Edge 78, Type (0, 1), BuildingBlock: OJICUG_clean_linker_0, # of connection points: 2
#     Edge 79, Type (0, 1), BuildingBlock: OJICUG_clean_linker_0, # of connection points: 2
#     Edge 80, Type (0, 1), BuildingBlock: OJICUG_clean_linker_0, # of connection points: 2
#     Edge 81, Type (0, 1), BuildingBlock: OJICUG_clean_linker_0, # of connection points: 2
#     Edge 82, Type (0, 1), BuildingBlock: OJICUG_clean_linker_0, # of connection points: 2
#     Edge 83, Type (0, 1), BuildingBlock: OJICUG_clean_linker_0, # of connection points: 2
#     Edge 84, Type (0, 1), BuildingBlock: OJICUG_clean_linker_0, # of connection points: 2
#     Edge 85, Type (0, 1), BuildingBlock: OJICUG_clean_linker_0, # of connection points: 2
#     Edge 86, Type (0, 1), BuildingBlock: OJICUG_clean_linker_0, # of connection points: 2
#     Edge 87, Type (0, 1), BuildingBlock: OJICUG_clean_linker_0, # of connection points: 2
#     Edge 88, Type (0, 1), BuildingBlock: OJICUG_clean_linker_0, # of connection points: 2
#     Edge 89, Type (0, 1), BuildingBlock: OJICUG_clean_linker_0, # of connection points: 2
#     Edge 90, Type (0, 1), BuildingBlock: OJICUG_clean_linker_0, # of connection points: 2
#     Edge 91, Type (0, 1), BuildingBlock: OJICUG_clean_linker_0, # of connection points: 2
#     Edge 92, Type (0, 1), BuildingBlock: OJICUG_clean_linker_0, # of connection points: 2
#     Edge 93, Type (0, 1), BuildingBlock: OJICUG_clean_linker_0, # of connection points: 2
#     Edge 94, Type (0, 1), BuildingBlock: OJICUG_clean_linker_0, # of connection points: 2
#     Edge 95, Type (0, 1), BuildingBlock: OJICUG_clean_linker_0, # of connection points: 2
#     Edge 96, Type (0, 1), BuildingBlock: OJICUG_clean_linker_0, # of connection points: 2
#     Edge 97, Type (0, 1), BuildingBlock: OJICUG_clean_linker_0, # of connection points: 2
#     Edge 98, Type (0, 1), BuildingBlock: OJICUG_clean_linker_0, # of connection points: 2
#     Edge 99, Type (0, 1), BuildingBlock: OJICUG_clean_linker_0, # of connection points: 2
#     Edge 100, Type (0, 1), BuildingBlock: OJICUG_clean_linker_0, # of connection points: 2
#     Edge 101, Type (0, 1), BuildingBlock: OJICUG_clean_linker_0, # of connection points: 2
#     Edge 102, Type (0, 1), BuildingBlock: OJICUG_clean_linker_0, # of connection points: 2
#     Edge 103, Type (0, 1), BuildingBlock: OJICUG_clean_linker_0, # of connection points: 2
#     Edge 104, Type (0, 1), BuildingBlock: OJICUG_clean_linker_0, # of connection points: 2
#     Edge 105, Type (0, 1), BuildingBlock: OJICUG_clean_linker_0, # of connection points: 2
#     Edge 106, Type (0, 1), BuildingBlock: OJICUG_clean_linker_0, # of connection points: 2
#     Edge 107, Type (0, 1), BuildingBlock: OJICUG_clean_linker_0, # of connection points: 2
#     Edge 108, Type (0, 1), BuildingBlock: OJICUG_clean_linker_0, # of connection points: 2
#     Edge 109, Type (0, 1), BuildingBlock: OJICUG_clean_linker_0, # of connection points: 2
#     Edge 110, Type (0, 1), BuildingBlock: OJICUG_clean_linker_0, # of connection points: 2
#     Edge 111, Type (0, 1), BuildingBlock: OJICUG_clean_linker_0, # of connection points: 2
#     Edge 112, Type (0, 1), BuildingBlock: OJICUG_clean_linker_0, # of connection points: 2
#     Edge 113, Type (0, 1), BuildingBlock: OJICUG_clean_linker_0, # of connection points: 2
#     Edge 114, Type (0, 1), BuildingBlock: OJICUG_clean_linker_0, # of connection points: 2
#     Edge 115, Type (0, 1), BuildingBlock: OJICUG_clean_linker_0, # of connection points: 2
#     Edge 116, Type (0, 1), BuildingBlock: OJICUG_clean_linker_0, # of connection points: 2
#     Edge 117, Type (0, 1), BuildingBlock: OJICUG_clean_linker_0, # of connection points: 2
#     Edge 118, Type (0, 1), BuildingBlock: OJICUG_clean_linker_0, # of connection points: 2
#     Edge 119, Type (0, 1), BuildingBlock: OJICUG_clean_linker_0, # of connection points: 2
# Relax obj value: 0.125
# Max RMSD: 0.130
# Mean RMSD: 0.086
data_MOF--net-bwt--node1-OLANEW_clean_sbu_2--node2-BELTOD_clean_linker_0--edge1-OJICUG_clean_linker_0
_symmetry_space_group_name_H-M    P1
_symmetry_Int_Tables_number       1
_symmetry_cell_setting            triclinic
loop_
_symmetry_equiv_pos_as_xyz
'x, y, z'
_cell_length_a     51.150329
_cell_length_b     51.170492
_cell_length_c     51.128616
_cell_angle_alpha  93.411082
_cell_angle_beta   93.366084
_cell_angle_gamma 93.387254
loop_
_atom_site_label
_atom_site_type_symbol
_atom_site_fract_x
_atom_site_fract_y
_atom_site_fract_z
_atom_type_partial_charge
O0 O 0.25839 0.62097 0.32481 0.0
Cd1 Cd 0.23179 0.63087 0.28585 0.0
O2 O 0.29313 0.61838 0.3017 0.0
Cd3 Cd 0.33396 0.60858 0.2996 0.0
O4 O 0.37265 0.59743 0.31323 0.0
C5 C 0.37434 0.57906 0.3288 0.0
O6 O 0.35273 0.5665 0.33522 0.0
C7 C 0.2826 0.61717 0.32356 0.0
C8 C 0.18137 0.60765 0.28769 0.0
O9 O 0.19924 0.59553 0.27633 0.0
O10 O 0.18727 0.63094 0.29777 0.0
O11 O 0.19919 0.41308 0.67023 0.0
Cd12 Cd 0.20097 0.39906 0.62365 0.0
O13 O 0.21221 0.37536 0.68275 0.0
Cd14 Cd 0.19634 0.35729 0.64509 0.0
O15 O 0.15403 0.36049 0.64487 0.0
C16 C 0.14237 0.34744 0.66162 0.0
O17 O 0.15561 0.33071 0.67477 0.0
C18 C 0.20731 0.39905 0.68841 0.0
C19 C 0.25353 0.40525 0.61221 0.0
O20 O 0.23772 0.42323 0.6078 0.0
O21 O 0.24419 0.38388 0.62091 0.0
O22 O 0.76252 0.98393 0.63156 0.0
Cd23 Cd 0.76765 0.98844 0.6795 0.0
O24 O 0.79414 0.95696 0.62754 0.0
Cd25 Cd 0.81166 0.96811 0.66681 0.0
O26 O 0.84686 0.99252 0.68034 0.0
C27 C 0.84649 0.01701 0.6775 0.0
O28 O 0.82435 0.02654 0.66936 0.0
C29 C 0.77519 0.9686 0.61728 0.0
C30 C 0.72208 0.00759 0.69877 0.0
O31 O 0.742 0.02308 0.69521 0.0
O32 O 0.72388 0.98295 0.69374 0.0
O33 O 0.74677 0.03209 0.31155 0.0
Cd34 Cd 0.76803 0.02884 0.35516 0.0
O35 O 0.72174 0.99675 0.31724 0.0
Cd36 Cd 0.68747 0.97067 0.30384 0.0
O37 O 0.65038 0.95425 0.28438 0.0
C38 C 0.63905 0.96769 0.26746 0.0
O39 O 0.64961 0.99087 0.26292 0.0
C40 C 0.72902 0.01487 0.30281 0.0
C41 C 0.81768 0.01054 0.34944 0.0
O42 O 0.7976 0.99457 0.35068 0.0
O43 O 0.81432 0.03519 0.35145 0.0
O44 O 0.33774 0.27167 0.61179 0.0
Cd45 Cd 0.29706 0.24905 0.62339 0.0
O46 O 0.31753 0.30584 0.59894 0.0
Cd47 Cd 0.31815 0.34293 0.57979 0.0
O48 O 0.33361 0.3789 0.56391 0.0
C49 C 0.31889 0.39378 0.55162 0.0
O50 O 0.29362 0.38731 0.54828 0.0
C51 C 0.33859 0.29409 0.60233 0.0
C52 C 0.29576 0.19742 0.60241 0.0
O53 O 0.28548 0.21535 0.58949 0.0
O54 O 0.30604 0.2038 0.62555 0.0
O55 O 0.30552 0.75453 0.04273 0.0
Cd56 Cd 0.3501 0.77408 0.04147 0.0
O57 O 0.31522 0.72244 0.01539 0.0
Cd58 Cd 0.30715 0.68535 0.99185 0.0
O59 O 0.28907 0.65132 0.96833 0.0
C60 C 0.29622 0.62834 0.97175 0.0
O61 O 0.31524 0.62518 0.98946 0.0
C62 C 0.29835 0.73373 0.02871 0.0
C63 C 0.34675 0.82286 0.02054 0.0
O64 O 0.34868 0.80209 0.00566 0.0
O65 O 0.34732 0.82066 0.0454 0.0
O66 O 0.71246 0.2007 0.42954 0.0
Cd67 Cd 0.66689 0.20824 0.4162 0.0
O68 O 0.72745 0.21289 0.39242 0.0
Cd69 Cd 0.68809 0.20455 0.37407 0.0
O70 O 0.67516 0.16338 0.37549 0.0
C71 C 0.68432 0.14723 0.3591 0.0
O72 O 0.69743 0.15645 0.33994 0.0
C73 C 0.73176 0.20651 0.41588 0.0
C74 C 0.66153 0.26198 0.42403 0.0
O75 O 0.65629 0.24633 0.44194 0.0
O76 O 0.66831 0.25206 0.40202 0.0
O77 O 0.67633 0.74168 0.91722 0.0
Cd78 Cd 0.71935 0.72407 0.91303 0.0
O79 O 0.69389 0.77526 0.9422 0.0
Cd80 Cd 0.69227 0.81282 0.96474 0.0
O81 O 0.68224 0.84781 0.98761 0.0
C82 C 0.67375 0.84567 0.01031 0.0
O83 O 0.67165 0.82236 0.01975 0.0
C84 C 0.67361 0.76257 0.93124 0.0
C85 C 0.7218 0.67998 0.94235 0.0
O86 O 0.72924 0.70289 0.95257 0.0
O87 O 0.71381 0.67785 0.91804 0.0
O88 O 0.57205 0.32676 0.31161 0.0
Cd89 Cd 0.5816 0.28286 0.29457 0.0
O90 O 0.61406 0.33537 0.3214 0.0
Cd91 Cd 0.61547 0.2953 0.3335 0.0
O92 O 0.60166 0.29528 0.37335 0.0
C93 C 0.60862 0.31648 0.3869 0.0
O94 O 0.62426 0.33388 0.37668 0.0
C95 C 0.59115 0.34339 0.31797 0.0
C96 C 0.57892 0.28196 0.23972 0.0
O97 O 0.55915 0.27416 0.25214 0.0
O98 O 0.6002 0.28964 0.25319 0.0
O99 O 0.04197 0.31796 0.76372 0.0
Cd100 Cd 0.03474 0.36062 0.78527 0.0
O101 O 0.00174 0.31829 0.74634 0.0
Cd102 Cd 0.97174 0.3009 0.71721 0.0
O103 O 0.95688 0.27827 0.68131 0.0
C104 C 0.97386 0.26906 0.66669 0.0
O105 O 0.99887 0.27386 0.67376 0.0
C106 C 0.02286 0.30666 0.7496 0.0
C107 C 0.01065 0.35186 0.83169 0.0
O108 O 0.99696 0.35333 0.81007 0.0
O109 O 0.03566 0.35531 0.83143 0.0
O110 O 0.36347 0.72642 0.24027 0.0
Cd111 Cd 0.33833 0.68798 0.25385 0.0
O112 O 0.35834 0.71369 0.19838 0.0
Cd113 Cd 0.36311 0.72121 0.15716 0.0
O114 O 0.37832 0.73839 0.1226 0.0
C115 C 0.40145 0.73372 0.11671 0.0
O116 O 0.41484 0.71792 0.1309 0.0
C117 C 0.36794 0.73016 0.21656 0.0
C118 C 0.35775 0.67781 0.30402 0.0
O119 O 0.36664 0.66658 0.28359 0.0
O120 O 0.3391 0.69318 0.3007 0.0
O121 O 0.95666 0.62968 0.76489 0.0
Cd122 Cd 0.95113 0.67676 0.76377 0.0
O123 O 0.99902 0.6354 0.77548 0.0
Cd124 Cd 0.99828 0.67612 0.79045 0.0
O125 O 0.01138 0.69211 0.82987 0.0
C126 C 0.99922 0.68244 0.84837 0.0
O127 O 0.97839 0.66646 0.84232 0.0
C128 C 0.97896 0.62024 0.76835 0.0
C129 C 0.97401 0.69367 0.71903 0.0
O130 O 0.98648 0.69656 0.74159 0.0
O131 O 0.9504 0.6836 0.71773 0.0
O132 O 0.73846 0.35713 0.6775 0.0
Cd133 Cd 0.74703 0.33698 0.71895 0.0
O134 O 0.70499 0.3774 0.69179 0.0
Cd135 Cd 0.6707 0.40076 0.68761 0.0
O136 O 0.63351 0.41945 0.6878 0.0
C137 C 0.62249 0.42859 0.66766 0.0
O138 O 0.63409 0.42746 0.6454 0.0
C139 C 0.72027 0.37258 0.67361 0.0
C140 C 0.7996 0.34854 0.73506 0.0
O141 O 0.79249 0.32822 0.71987 0.0
O142 O 0.78174 0.363 0.74321 0.0
O143 O 0.72545 0.66256 0.24697 0.0
Cd144 Cd 0.7301 0.68553 0.29039 0.0
O145 O 0.75465 0.63634 0.26115 0.0
Cd146 Cd 0.78169 0.60486 0.25872 0.0
O147 O 0.81446 0.57983 0.2637 0.0
C148 C 0.83428 0.58277 0.25005 0.0
O149 O 0.83419 0.6003 0.23228 0.0
C150 C 0.73855 0.64252 0.24298 0.0
C151 C 0.6969 0.65855 0.3222 0.0
O152 O 0.68919 0.67818 0.31004 0.0
O153 O 0.72061 0.65231 0.32002 0.0
O154 O 0.30298 0.07378 0.29596 0.0
Cd155 Cd 0.30098 0.07862 0.24868 0.0
O156 O 0.26513 0.05107 0.29254 0.0
Cd157 Cd 0.23073 0.03 0.30664 0.0
O158 O 0.19245 0.01046 0.312 0.0
C159 C 0.17252 0.0241 0.31308 0.0
O160 O 0.17575 0.04966 0.3119 0.0
C161 C 0.28506 0.06076 0.30667 0.0
C162 C 0.33366 0.04346 0.22549 0.0
O163 O 0.34244 0.0666 0.23388 0.0
O164 O 0.30929 0.03713 0.22759 0.0
O165 O 0.23177 0.97273 0.72669 0.0
Cd166 Cd 0.22052 0.97761 0.68023 0.0
O167 O 0.26949 0.9946 0.72356 0.0
Cd168 Cd 0.30853 0.01127 0.73775 0.0
O169 O 0.34854 0.02899 0.7439 0.0
C170 C 0.36812 0.01489 0.74257 0.0
O171 O 0.36397 0.98936 0.73828 0.0
C172 C 0.25337 0.98272 0.73748 0.0
C173 C 0.17796 0.00887 0.67392 0.0
O174 O 0.17451 0.98391 0.67464 0.0
O175 O 0.20156 0.01902 0.67603 0.0
O176 O 0.63724 0.73221 0.35208 0.0
Cd177 Cd 0.67424 0.74007 0.325 0.0
O178 O 0.65863 0.70444 0.3748 0.0
Cd179 Cd 0.66241 0.67423 0.40292 0.0
O180 O 0.66907 0.64155 0.42731 0.0
C181 C 0.65038 0.6271 0.43511 0.0
O182 O 0.62604 0.63219 0.42868 0.0
C183 C 0.63811 0.71681 0.37066 0.0
C184 C 0.69603 0.79057 0.33829 0.0
O185 O 0.67709 0.78641 0.32071 0.0
O186 O 0.7051 0.77074 0.34911 0.0
O187 O 0.7156 0.21446 0.96289 0.0
Cd188 Cd 0.66986 0.19746 0.96137 0.0
O189 O 0.70954 0.24729 0.99106 0.0
Cd190 Cd 0.72094 0.28441 0.01348 0.0
O191 O 0.72376 0.32462 0.0309 0.0
C192 C 0.72907 0.34334 0.01644 0.0
O193 O 0.73365 0.3378 0.99177 0.0
C194 C 0.72474 0.23469 0.97686 0.0
C195 C 0.66174 0.16107 0.99884 0.0
O196 O 0.67081 0.1544 0.97674 0.0
O197 O 0.65644 0.18504 0.00328 0.0
O198 O 0.28429 0.73404 0.65381 0.0
Cd199 Cd 0.33054 0.73904 0.6691 0.0
O200 O 0.2879 0.77071 0.63402 0.0
Cd201 Cd 0.27551 0.80325 0.61133 0.0
O202 O 0.27331 0.83934 0.59081 0.0
C203 C 0.28759 0.84224 0.57155 0.0
O204 O 0.30218 0.82312 0.5643 0.0
C205 C 0.27408 0.75038 0.63915 0.0
C206 C 0.35677 0.70589 0.63592 0.0
O207 O 0.34735 0.69775 0.65687 0.0
O208 O 0.35473 0.73004 0.63124 0.0
O209 O 0.33359 0.30596 0.04604 0.0
Cd210 Cd 0.28606 0.29972 0.048 0.0
O211 O 0.33354 0.26596 0.02858 0.0
Cd212 Cd 0.34783 0.22879 0.0137 0.0
O213 O 0.34396 0.18714 0.00107 0.0
C214 C 0.32436 0.17442 0.00938 0.0
O215 O 0.30897 0.18686 0.0249 0.0
C216 C 0.34621 0.28739 0.03645 0.0
C217 C 0.26107 0.3319 0.01369 0.0
O218 O 0.26681 0.33966 0.03775 0.0
O219 O 0.26686 0.30877 0.00598 0.0
O220 O 0.34059 0.64778 0.76182 0.0
Cd221 Cd 0.32088 0.68801 0.77639 0.0
O222 O 0.36593 0.66963 0.7365 0.0
Cd223 Cd 0.39342 0.67252 0.7055 0.0
O224 O 0.41574 0.67779 0.67098 0.0
C225 C 0.42323 0.6586 0.65697 0.0
O226 O 0.41789 0.63457 0.6637 0.0
C227 C 0.3585 0.64803 0.74563 0.0
C228 C 0.35454 0.71735 0.81328 0.0
O229 O 0.33895 0.69879 0.82009 0.0
O230 O 0.35407 0.72227 0.78897 0.0
O231 O 0.96574 0.72455 0.2436 0.0
Cd232 Cd 0.96827 0.67828 0.23009 0.0
O233 O 0.99092 0.7203 0.27907 0.0
Cd234 Cd 0.01133 0.73298 0.31695 0.0
O235 O 0.03063 0.73459 0.35636 0.0
C236 C 0.01833 0.74089 0.37646 0.0
O237 O 0.99399 0.74755 0.37322 0.0
C238 C 0.97788 0.73477 0.26446 0.0
C239 C 0.99844 0.67337 0.18656 0.0
O240 O 0.97368 0.67598 0.18383 0.0
O241 O 0.00891 0.67276 0.2099 0.0
O242 O 0.58767 0.30274 0.79613 0.0
Cd243 Cd 0.59934 0.34951 0.79486 0.0
O244 O 0.61478 0.29536 0.82948 0.0
Cd245 Cd 0.63363 0.26972 0.85668 0.0
O246 O 0.65694 0.24111 0.87608 0.0
C247 C 0.65834 0.23594 0.90014 0.0
O248 O 0.67502 0.21895 0.90781 0.0
C249 C 0.59772 0.28684 0.8114 0.0
C250 C 0.5862 0.36278 0.74378 0.0
O251 O 0.60928 0.35589 0.75017 0.0
O252 O 0.56979 0.36425 0.76174 0.0
O253 O 0.06226 0.30327 0.30445 0.0
Cd254 Cd 0.06991 0.25665 0.30474 0.0
O255 O 0.04219 0.29763 0.26531 0.0
Cd256 Cd 0.02262 0.30885 0.22877 0.0
O257 O 0.00511 0.30854 0.1887 0.0
C258 C 0.00497 0.2869 0.17511 0.0
O259 O 0.01511 0.2668 0.18588 0.0
C260 C 0.04991 0.31273 0.28528 0.0
C261 C 0.04074 0.23412 0.34293 0.0
O262 O 0.06417 0.24396 0.3485 0.0
O263 O 0.03129 0.23455 0.31919 0.0
P264 P 0.39593 0.57003 0.48774 0.0
H265 H 0.40943 0.57143 0.54398 0.0
H266 H 0.40417 0.60393 0.57992 0.0
H267 H 0.37424 0.6568 0.52408 0.0
H268 H 0.38042 0.62463 0.48834 0.0
H269 H 0.41177 0.51602 0.48066 0.0
H270 H 0.39384 0.47432 0.49546 0.0
H271 H 0.33349 0.51505 0.53362 0.0
H272 H 0.3515 0.55653 0.51889 0.0
H273 H 0.40851 0.5789 0.43345 0.0
H274 H 0.3402 0.57806 0.47906 0.0
O275 O 0.42715 0.56768 0.48061 0.0
H276 H 0.38171 0.58998 0.39499 0.0
H277 H 0.31338 0.58947 0.44094 0.0
C278 C 0.39457 0.59529 0.5136 0.0
C279 C 0.4019 0.59011 0.53952 0.0
C280 C 0.39872 0.60866 0.56006 0.0
C281 C 0.3884 0.63287 0.55499 0.0
C282 C 0.38231 0.63843 0.52877 0.0
C283 C 0.38558 0.61988 0.50825 0.0
C284 C 0.38311 0.53937 0.49888 0.0
C285 C 0.39478 0.51596 0.49233 0.0
C286 C 0.38456 0.49218 0.50084 0.0
C287 C 0.36227 0.49143 0.51572 0.0
C288 C 0.35051 0.51495 0.52198 0.0
C289 C 0.36085 0.53869 0.51363 0.0
C290 C 0.37629 0.57745 0.45906 0.0
C291 C 0.38774 0.58102 0.43519 0.0
C292 C 0.3724 0.58751 0.41324 0.0
C293 C 0.34533 0.59052 0.41483 0.0
C294 C 0.33402 0.58685 0.43886 0.0
C295 C 0.34937 0.58036 0.46073 0.0
P296 P 0.19158 0.4633 0.88308 0.0
H297 H 0.17254 0.4476 0.9329 0.0
H298 H 0.18714 0.41579 0.96373 0.0
H299 H 0.24757 0.39439 0.91233 0.0
H300 H 0.23284 0.42607 0.88167 0.0
H301 H 0.17619 0.51461 0.90317 0.0
H302 H 0.20156 0.55369 0.92239 0.0
H303 H 0.27346 0.51664 0.90747 0.0
H304 H 0.24784 0.4774 0.88853 0.0
H305 H 0.17938 0.41403 0.85252 0.0
H306 H 0.21488 0.49041 0.83983 0.0
O307 O 0.15957 0.46721 0.88492 0.0
H308 H 0.18547 0.39961 0.80704 0.0
H309 H 0.22146 0.47599 0.79432 0.0
C310 C 0.20116 0.43864 0.90471 0.0
C311 C 0.18869 0.43577 0.92814 0.0
C312 C 0.19717 0.41776 0.94582 0.0
C313 C 0.21836 0.40244 0.94034 0.0
C314 C 0.23086 0.40552 0.91685 0.0
C315 C 0.22247 0.42363 0.89931 0.0
C316 C 0.21017 0.49316 0.8944 0.0
C317 C 0.1974 0.51499 0.90375 0.0
C318 C 0.21195 0.53738 0.91465 0.0
C319 C 0.23954 0.53826 0.91651 0.0
C320 C 0.25224 0.51647 0.90661 0.0
C321 C 0.23765 0.49411 0.89565 0.0
C322 C 0.19715 0.45307 0.84969 0.0
C323 C 0.1888 0.42759 0.84 0.0
C324 C 0.19242 0.41934 0.81402 0.0
C325 C 0.20422 0.43656 0.79712 0.0
C326 C 0.21227 0.46227 0.80683 0.0
C327 C 0.20868 0.47048 0.83291 0.0
P328 P 0.75942 0.97731 0.41496 0.0
H329 H 0.78774 0.93593 0.38951 0.0
H330 H 0.77364 0.89226 0.36976 0.0
H331 H 0.69355 0.90581 0.38641 0.0
H332 H 0.70782 0.94943 0.40628 0.0
H333 H 0.75148 0.0282 0.44063 0.0
H334 H 0.72759 0.06548 0.42694 0.0
H335 H 0.69807 0.02067 0.35605 0.0
H336 H 0.7228 0.9836 0.36945 0.0
H337 H 0.80239 0.97049 0.45362 0.0
H338 H 0.71845 0.97512 0.45249 0.0
O339 O 0.78953 0.98604 0.40641 0.0
H340 H 0.80402 0.96601 0.5009 0.0
H341 H 0.71976 0.96999 0.49987 0.0
C342 C 0.74871 0.94606 0.39883 0.0
C343 C 0.76712 0.92961 0.38866 0.0
C344 C 0.75908 0.90463 0.37753 0.0
C345 C 0.73249 0.89574 0.37642 0.0
C346 C 0.7141 0.91233 0.38663 0.0
C347 C 0.72222 0.93719 0.398 0.0
C348 C 0.73852 0.00295 0.40633 0.0
C349 C 0.73946 0.02618 0.42238 0.0
C350 C 0.72569 0.04744 0.41458 0.0
C351 C 0.71092 0.04593 0.3904 0.0
C352 C 0.70949 0.02238 0.37464 0.0
C353 C 0.72339 0.00113 0.38244 0.0
C354 C 0.76037 0.97365 0.44972 0.0
C355 C 0.78428 0.9705 0.46358 0.0
C356 C 0.78513 0.96765 0.49059 0.0
C357 C 0.762 0.96765 0.5042 0.0
C358 C 0.73796 0.97027 0.49006 0.0
C359 C 0.73716 0.97313 0.46299 0.0
P360 P 0.62615 0.01126 0.12178 0.0
H361 H 0.59175 0.04256 0.09039 0.0
H362 H 0.60059 0.07975 0.06346 0.0
H363 H 0.68306 0.0802 0.08697 0.0
H364 H 0.67406 0.0435 0.11451 0.0
H365 H 0.60348 0.95726 0.11712 0.0
H366 H 0.61363 0.91819 0.09061 0.0
H367 H 0.67588 0.96334 0.0569 0.0
H368 H 0.66518 0.00218 0.08278 0.0
H369 H 0.62008 0.03836 0.17254 0.0
H370 H 0.67622 0.98946 0.13765 0.0
O371 O 0.59462 0.00878 0.1286 0.0
H372 H 0.64622 0.04079 0.2144 0.0
H373 H 0.70251 0.99204 0.17922 0.0
C374 C 0.63222 0.04045 0.10459 0.0
C375 C 0.61165 0.051 0.0902 0.0
C376 C 0.61669 0.07221 0.07484 0.0
C377 C 0.64248 0.08272 0.07321 0.0
C378 C 0.66302 0.07235 0.08792 0.0
C379 C 0.65788 0.0515 0.10369 0.0
C380 C 0.63313 0.9828 0.10151 0.0
C381 C 0.61909 0.95877 0.10377 0.0
C382 C 0.62509 0.9364 0.08877 0.0
C383 C 0.64548 0.93764 0.07146 0.0
C384 C 0.65968 0.96177 0.06956 0.0
C385 C 0.65359 0.98408 0.08446 0.0
C386 C 0.6459 0.01328 0.15219 0.0
C387 C 0.63805 0.02819 0.17389 0.0
C388 C 0.65312 0.02977 0.1977 0.0
C389 C 0.67638 0.01653 0.2001 0.0
C390 C 0.68449 0.00214 0.17806 0.0
C391 C 0.66945 0.00065 0.15427 0.0
P392 P 0.51499 0.38139 0.55193 0.0
H393 H 0.5076 0.41004 0.6007 0.0
H394 H 0.52544 0.40697 0.6454 0.0
H395 H 0.57724 0.34887 0.6182 0.0
H396 H 0.55945 0.35242 0.57322 0.0
H397 H 0.53711 0.40576 0.50751 0.0
H398 H 0.55917 0.38904 0.46998 0.0
H399 H 0.55426 0.31135 0.49905 0.0
H400 H 0.5307 0.32821 0.53619 0.0
H401 H 0.46043 0.39324 0.53968 0.0
H402 H 0.50173 0.33047 0.57245 0.0
O403 O 0.50892 0.4124 0.54661 0.0
H404 H 0.41872 0.37209 0.55058 0.0
H405 H 0.46011 0.30922 0.58337 0.0
C406 C 0.53245 0.38182 0.58356 0.0
C407 C 0.52328 0.39713 0.60425 0.0
C408 C 0.53334 0.39514 0.62991 0.0
C409 C 0.5528 0.37769 0.63558 0.0
C410 C 0.56253 0.36282 0.61461 0.0
C411 C 0.55232 0.36477 0.5888 0.0
C412 C 0.53228 0.3683 0.5248 0.0
C413 C 0.5407 0.38511 0.50593 0.0
C414 C 0.55363 0.37549 0.48446 0.0
C415 C 0.55891 0.34882 0.48151 0.0
C416 C 0.55039 0.33194 0.50051 0.0
C417 C 0.53707 0.3416 0.52191 0.0
C418 C 0.48419 0.36341 0.55523 0.0
C419 C 0.46053 0.3747 0.54883 0.0
C420 C 0.4367 0.3627 0.55526 0.0
C421 C 0.43616 0.33912 0.56805 0.0
C422 C 0.45985 0.32727 0.57334 0.0
C423 C 0.48367 0.33937 0.56704 0.0
P424 P 0.10565 0.65415 0.02063 0.0
H425 H 0.10356 0.62505 0.06795 0.0
H426 H 0.0791 0.63022 0.10742 0.0
H427 H 0.04699 0.69998 0.07847 0.0
H428 H 0.07147 0.69467 0.03905 0.0
H429 H 0.06763 0.6233 0.98507 0.0
H430 H 0.04028 0.63387 0.94697 0.0
H431 H 0.06953 0.71497 0.95821 0.0
H432 H 0.09699 0.70416 0.99656 0.0
H433 H 0.14482 0.66641 0.06425 0.0
H434 H 0.13738 0.67826 0.98143 0.0
O435 O 0.11093 0.62234 0.01639 0.0
H436 H 0.18985 0.68516 0.06645 0.0
H437 H 0.18148 0.6989 0.98375 0.0
C438 C 0.08888 0.65914 0.05032 0.0
C439 C 0.09128 0.64147 0.07011 0.0
C440 C 0.07742 0.64454 0.09274 0.0
C441 C 0.06092 0.66537 0.09592 0.0
C442 C 0.05919 0.68348 0.07635 0.0
C443 C 0.07322 0.68049 0.05382 0.0
C444 C 0.08493 0.66277 0.99313 0.0
C445 C 0.0682 0.64336 0.97937 0.0
C446 C 0.05235 0.6495 0.95773 0.0
C447 C 0.05281 0.67526 0.94951 0.0
C448 C 0.06901 0.69489 0.96388 0.0
C449 C 0.08473 0.68873 0.98572 0.0
C450 C 0.13735 0.67171 0.02288 0.0
C451 C 0.15258 0.67381 0.04669 0.0
C452 C 0.1784 0.68467 0.04792 0.0
C453 C 0.18952 0.69372 0.0253 0.0
C454 C 0.17392 0.69184 0.00154 0.0
C455 C 0.14834 0.68048 0.00027 0.0
P456 P 0.92027 0.17006 0.48606 0.0
H457 H 0.93143 0.14657 0.43514 0.0
H458 H 0.96065 0.16018 0.40157 0.0
H459 H 0.98799 0.22875 0.45133 0.0
H460 H 0.959 0.21484 0.48486 0.0
H461 H 0.95561 0.15745 0.52975 0.0
H462 H 0.96781 0.17951 0.57291 0.0
H463 H 0.91675 0.24121 0.5548 0.0
H464 H 0.9044 0.21887 0.51198 0.0
H465 H 0.90116 0.21178 0.45439 0.0
H466 H 0.86824 0.14588 0.49289 0.0
O467 O 0.92058 0.13771 0.4886 0.0
H468 H 0.85717 0.22234 0.43886 0.0
H469 H 0.82419 0.15594 0.477 0.0
C470 C 0.94341 0.17942 0.46263 0.0
C471 C 0.94399 0.16434 0.43892 0.0
C472 C 0.96053 0.17226 0.41968 0.0
C473 C 0.97669 0.19552 0.42381 0.0
C474 C 0.97611 0.21052 0.44772 0.0
C475 C 0.95949 0.2026 0.46692 0.0
C476 C 0.9287 0.18623 0.51792 0.0
C477 C 0.94689 0.17561 0.53521 0.0
C478 C 0.95398 0.18834 0.55978 0.0
C479 C 0.9431 0.21203 0.56737 0.0
C480 C 0.92508 0.22273 0.54978 0.0
C481 C 0.91805 0.21 0.52522 0.0
C482 C 0.88794 0.17772 0.47433 0.0
C483 C 0.88447 0.19941 0.45927 0.0
C484 C 0.8593 0.20541 0.45036 0.0
C485 C 0.83714 0.18992 0.45656 0.0
C486 C 0.84078 0.16844 0.47208 0.0
C487 C 0.86596 0.1625 0.48098 0.0
P488 P 0.48268 0.8154 0.95604 0.0
H489 H 0.43938 0.83375 0.92314 0.0
H490 H 0.40938 0.81134 0.88857 0.0
H491 H 0.45059 0.74062 0.8957 0.0
H492 H 0.48085 0.7632 0.92963 0.0
H493 H 0.45394 0.83868 0.99877 0.0
H494 H 0.43527 0.8204 0.03723 0.0
H495 H 0.4638 0.74497 0.01467 0.0
H496 H 0.48293 0.76354 0.97685 0.0
H497 H 0.51529 0.81634 0.9113 0.0
H498 H 0.5245 0.79947 0.99283 0.0
O499 O 0.48086 0.84789 0.95694 0.0
H500 H 0.56056 0.80573 0.90533 0.0
H501 H 0.5691 0.78732 0.98678 0.0
C502 C 0.46241 0.80016 0.92879 0.0
C503 C 0.44222 0.81357 0.91693 0.0
C504 C 0.42511 0.80078 0.89725 0.0
C505 C 0.42767 0.77426 0.88963 0.0
C506 C 0.44809 0.76101 0.9014 0.0
C507 C 0.46539 0.77391 0.92073 0.0
C508 C 0.47016 0.80256 0.98517 0.0
C509 C 0.45641 0.8183 0.00229 0.0
C510 C 0.44555 0.80775 0.02415 0.0
C511 C 0.44814 0.78124 0.02911 0.0
C512 C 0.46184 0.76557 0.01174 0.0
C513 C 0.47265 0.77612 0.98996 0.0
C514 C 0.5163 0.80802 0.95229 0.0
C515 C 0.527 0.81007 0.92785 0.0
C516 C 0.55285 0.8038 0.92444 0.0
C517 C 0.56852 0.79531 0.94547 0.0
C518 C 0.55781 0.79397 0.97015 0.0
C519 C 0.53206 0.80057 0.97358 0.0
P520 P 0.55939 0.5297 0.39586 0.0
H521 H 0.6143 0.54233 0.4122 0.0
H522 H 0.64741 0.57387 0.39787 0.0
H523 H 0.59006 0.59995 0.34122 0.0
H524 H 0.55732 0.56853 0.35571 0.0
H525 H 0.53192 0.57755 0.40407 0.0
H526 H 0.48787 0.58981 0.3899 0.0
H527 H 0.47013 0.51174 0.35413 0.0
H528 H 0.51407 0.49974 0.36768 0.0
H529 H 0.58651 0.51314 0.34901 0.0
H530 H 0.54584 0.47659 0.41022 0.0
O531 O 0.56246 0.529 0.42847 0.0
H532 H 0.59394 0.4699 0.32878 0.0
H533 H 0.55278 0.43324 0.38967 0.0
C534 C 0.58312 0.55388 0.38584 0.0
C535 C 0.60882 0.55525 0.39706 0.0
C536 C 0.62776 0.57317 0.38867 0.0
C537 C 0.62131 0.59001 0.36882 0.0
C538 C 0.59556 0.58804 0.35722 0.0
C539 C 0.57673 0.57001 0.3655 0.0
C540 C 0.52646 0.53789 0.38664 0.0
C541 C 0.51852 0.56309 0.39318 0.0
C542 C 0.49344 0.57008 0.38508 0.0
C543 C 0.47571 0.55171 0.37089 0.0
C544 C 0.4834 0.5262 0.36518 0.0
C545 C 0.50861 0.51938 0.37288 0.0
C546 C 0.56603 0.49803 0.38143 0.0
C547 C 0.57938 0.49585 0.35826 0.0
C548 C 0.58358 0.47116 0.34665 0.0
C549 C 0.5739 0.44833 0.35768 0.0
C550 C 0.56029 0.45059 0.38071 0.0
C551 C 0.5565 0.47527 0.39255 0.0
P552 P 0.01908 0.12494 0.64822 0.0
H553 H 0.03143 0.07454 0.62481 0.0
H554 H 0.06866 0.04721 0.63097 0.0
H555 H 0.10437 0.1045 0.68992 0.0
H556 H 0.06731 0.13189 0.68332 0.0
H557 H 0.96478 0.12512 0.62749 0.0
H558 H 0.92446 0.10096 0.6377 0.0
H559 H 0.96771 0.06291 0.69829 0.0
H560 H 0.00811 0.08671 0.68737 0.0
H561 H 0.03906 0.17739 0.63626 0.0
H562 H 0.00823 0.14014 0.70243 0.0
O563 O 0.01651 0.13075 0.61642 0.0
H564 H 0.04232 0.21978 0.66153 0.0
H565 H 0.01153 0.18233 0.72777 0.0
C566 C 0.04666 0.10524 0.65349 0.0
C567 C 0.04732 0.08119 0.63903 0.0
C568 C 0.06852 0.06552 0.64271 0.0
C569 C 0.0895 0.07367 0.66095 0.0
C570 C 0.08869 0.09782 0.67549 0.0
C571 C 0.06742 0.11346 0.67181 0.0
C572 C 0.98947 0.10721 0.65623 0.0
C573 C 0.96558 0.11147 0.64287 0.0
C574 C 0.94248 0.09784 0.64897 0.0
C575 C 0.94281 0.0799 0.66881 0.0
C576 C 0.9668 0.07622 0.68261 0.0
C577 C 0.98992 0.08982 0.67641 0.0
C578 C 0.0228 0.15578 0.66728 0.0
C579 C 0.03306 0.17833 0.65624 0.0
C580 C 0.03512 0.20248 0.67075 0.0
C581 C 0.02698 0.20439 0.69655 0.0
C582 C 0.01756 0.18153 0.7078 0.0
C583 C 0.01564 0.1574 0.69332 0.0
P584 P 0.46197 0.90387 0.16751 0.0
H585 H 0.46072 0.95933 0.15849 0.0
H586 H 0.43016 0.99267 0.16976 0.0
H587 H 0.38205 0.93435 0.20589 0.0
H588 H 0.41202 0.9012 0.19386 0.0
H589 H 0.51609 0.90529 0.15152 0.0
H590 H 0.5582 0.91986 0.17476 0.0
H591 H 0.5182 0.93833 0.24492 0.0
H592 H 0.47606 0.92464 0.22139 0.0
H593 H 0.43715 0.85833 0.13628 0.0
H594 H 0.45997 0.87908 0.21778 0.0
O595 O 0.46563 0.90329 0.13526 0.0
H596 H 0.41688 0.81661 0.14831 0.0
H597 H 0.43971 0.83751 0.22989 0.0
C598 C 0.43871 0.92779 0.17528 0.0
C599 C 0.44346 0.95375 0.16867 0.0
C600 C 0.42606 0.9728 0.17529 0.0
C601 C 0.40362 0.96621 0.18875 0.0
C602 C 0.39889 0.94006 0.19517 0.0
C603 C 0.41624 0.92104 0.18846 0.0
C604 C 0.49297 0.91389 0.18475 0.0
C605 C 0.51635 0.91254 0.17187 0.0
C606 C 0.54037 0.92087 0.18512 0.0
C607 C 0.54136 0.93012 0.2116 0.0
C608 C 0.51794 0.93105 0.22457 0.0
C609 C 0.49391 0.92322 0.21115 0.0
C610 C 0.45043 0.87171 0.17607 0.0
C611 C 0.43827 0.85374 0.15669 0.0
C612 C 0.42668 0.82989 0.16359 0.0
C613 C 0.42667 0.82386 0.19006 0.0
C614 C 0.43926 0.84173 0.20937 0.0
C615 C 0.45108 0.86542 0.20241 0.0
P616 P 0.99398 0.41844 0.76684 0.0
H617 H 0.95504 0.40442 0.80394 0.0
H618 H 0.9096 0.38605 0.79807 0.0
H619 H 0.9152 0.38209 0.71397 0.0
H620 H 0.96048 0.40055 0.71995 0.0
H621 H 0.03934 0.44221 0.74271 0.0
H622 H 0.07085 0.42412 0.71362 0.0
H623 H 0.02703 0.34902 0.70921 0.0
H624 H 0.99581 0.36724 0.73878 0.0
H625 H 0.01577 0.46284 0.80166 0.0
H626 H 0.96836 0.4508 0.72887 0.0
O627 O 0.00691 0.41173 0.79622 0.0
H628 H 0.01252 0.51016 0.8004 0.0
H629 H 0.96515 0.49824 0.72737 0.0
C630 C 0.96127 0.40328 0.7624 0.0
C631 C 0.94656 0.39931 0.78426 0.0
C632 C 0.92059 0.38897 0.78089 0.0
C633 C 0.90896 0.38246 0.75557 0.0
C634 C 0.92381 0.38647 0.73372 0.0
C635 C 0.94967 0.39704 0.73711 0.0
C636 C 0.01496 0.40616 0.74251 0.0
C637 C 0.03619 0.422 0.73508 0.0
C638 C 0.05416 0.41164 0.71836 0.0
C639 C 0.05137 0.38513 0.70904 0.0
C640 C 0.02979 0.36945 0.71621 0.0
C641 C 0.01185 0.37987 0.73293 0.0
C642 C 0.99196 0.45331 0.76557 0.0
C643 C 0.00465 0.47037 0.78539 0.0
C644 C 0.00293 0.49745 0.78455 0.0
C645 C 0.98851 0.50794 0.76381 0.0
C646 C 0.97608 0.49073 0.74378 0.0
C647 C 0.97794 0.46364 0.7446 0.0
P648 P 0.71246 0.45123 0.49132 0.0
H649 H 0.73111 0.41662 0.4498 0.0
H650 H 0.71479 0.37352 0.43113 0.0
H651 H 0.64468 0.37956 0.4738 0.0
H652 H 0.66134 0.42282 0.49257 0.0
H653 H 0.71936 0.50222 0.51927 0.0
H654 H 0.70203 0.54464 0.51064 0.0
H655 H 0.65131 0.5076 0.44686 0.0
H656 H 0.6689 0.46521 0.45542 0.0
H657 H 0.75207 0.42477 0.5208 0.0
H658 H 0.67718 0.45586 0.53437 0.0
O659 O 0.7427 0.45751 0.48173 0.0
H660 H 0.75326 0.40699 0.56405 0.0
H661 H 0.67795 0.43765 0.57765 0.0
C662 C 0.69741 0.42291 0.47254 0.0
C663 C 0.7119 0.40902 0.4546 0.0
C664 C 0.70245 0.38432 0.44383 0.0
C665 C 0.67838 0.37296 0.45097 0.0
C666 C 0.66332 0.38761 0.46799 0.0
C667 C 0.67276 0.41241 0.47863 0.0
C668 C 0.69527 0.4806 0.48813 0.0
C669 C 0.70405 0.50312 0.50384 0.0
C670 C 0.69423 0.52733 0.49885 0.0
C671 C 0.6754 0.52935 0.47807 0.0
C672 C 0.66561 0.5065 0.4632 0.0
C673 C 0.67568 0.48228 0.46805 0.0
C674 C 0.71485 0.44213 0.52469 0.0
C675 C 0.73609 0.42817 0.53332 0.0
C676 C 0.73657 0.41772 0.55791 0.0
C677 C 0.71561 0.42077 0.5742 0.0
C678 C 0.69451 0.43522 0.56567 0.0
C679 C 0.69407 0.44568 0.54099 0.0
P680 P 0.68574 0.5334 0.06828 0.0
H681 H 0.66067 0.54653 0.01831 0.0
H682 H 0.67208 0.57924 0.98734 0.0
H683 H 0.74522 0.59959 0.0327 0.0
H684 H 0.73335 0.56716 0.06389 0.0
H685 H 0.66797 0.48237 0.08479 0.0
H686 H 0.68147 0.43812 0.07484 0.0
H687 H 0.74571 0.47007 0.03283 0.0
H688 H 0.73161 0.51427 0.04237 0.0
H689 H 0.66318 0.57522 0.0981 0.0
H690 H 0.73014 0.52841 0.10685 0.0
O691 O 0.65304 0.52946 0.06584 0.0
H692 H 0.67731 0.60065 0.13884 0.0
H693 H 0.74473 0.55412 0.1477 0.0
C694 C 0.6959 0.55485 0.04366 0.0
C695 C 0.67924 0.55789 0.02147 0.0
C696 C 0.6859 0.57649 0.00366 0.0
C697 C 0.70946 0.59224 0.00768 0.0
C698 C 0.72671 0.58814 0.02931 0.0
C699 C 0.71999 0.56955 0.04711 0.0
C700 C 0.69842 0.5015 0.06384 0.0
C701 C 0.68509 0.47984 0.07362 0.0
C702 C 0.69298 0.45454 0.06807 0.0
C703 C 0.71456 0.45047 0.05279 0.0
C704 C 0.72871 0.47246 0.0442 0.0
C705 C 0.72073 0.49778 0.04973 0.0
C706 C 0.69531 0.54962 0.09981 0.0
C707 C 0.68079 0.57022 0.10901 0.0
C708 C 0.68908 0.58496 0.13214 0.0
C709 C 0.71224 0.57952 0.14642 0.0
C710 C 0.72668 0.55863 0.13725 0.0
C711 C 0.71835 0.54389 0.11397 0.0
P712 P 0.33144 0.02358 0.50077 0.0
H713 H 0.36176 0.05882 0.54003 0.0
H714 H 0.35089 0.09795 0.56572 0.0
H715 H 0.27081 0.08761 0.53307 0.0
H716 H 0.28196 0.04845 0.50718 0.0
H717 H 0.31962 0.97253 0.47268 0.0
H718 H 0.30547 0.92961 0.48721 0.0
H719 H 0.30014 0.96418 0.56581 0.0
H720 H 0.31352 0.00707 0.55092 0.0
H721 H 0.3593 0.04855 0.46004 0.0
H722 H 0.28201 0.01294 0.46856 0.0
O723 O 0.36393 0.02156 0.50331 0.0
H724 H 0.34654 0.05802 0.41506 0.0
H725 H 0.26878 0.02288 0.42357 0.0
C726 C 0.32275 0.05099 0.52142 0.0
C727 C 0.34183 0.06484 0.5385 0.0
C728 C 0.33552 0.08712 0.55334 0.0
C729 C 0.31 0.09594 0.55135 0.0
C730 C 0.29072 0.0815 0.53476 0.0
C731 C 0.29705 0.05911 0.52001 0.0
C732 C 0.317 0.99309 0.51056 0.0
C733 C 0.31471 0.97097 0.49287 0.0
C734 C 0.3069 0.94638 0.50129 0.0
C735 C 0.30169 0.94341 0.5277 0.0
C736 C 0.30352 0.9658 0.54524 0.0
C737 C 0.31124 0.99039 0.53676 0.0
C738 C 0.32179 0.02952 0.46737 0.0
C739 C 0.33958 0.04266 0.45215 0.0
C740 C 0.33214 0.04833 0.42652 0.0
C741 C 0.3066 0.04124 0.41571 0.0
C742 C 0.28869 0.0283 0.43119 0.0
C743 C 0.2962 0.02263 0.45689 0.0
P744 P 0.26736 0.98305 0.94072 0.0
H745 H 0.26635 0.96037 0.99129 0.0
H746 H 0.28914 0.92486 0.01039 0.0
H747 H 0.33428 0.91737 0.94173 0.0
H748 H 0.3108 0.95249 0.92246 0.0
H749 H 0.24021 0.03087 0.9481 0.0
H750 H 0.25465 0.07544 0.96457 0.0
H751 H 0.33396 0.05172 0.97639 0.0
H752 H 0.3193 0.00701 0.95957 0.0
H753 H 0.22958 0.95964 0.89973 0.0
H754 H 0.30555 0.00144 0.90424 0.0
O755 O 0.23649 0.97768 0.94899 0.0
H756 H 0.22833 0.9585 0.85203 0.0
H757 H 0.30508 0.99942 0.8563 0.0
C758 C 0.28646 0.95866 0.95526 0.0
C759 C 0.28125 0.95115 0.98041 0.0
C760 C 0.29451 0.93099 0.99141 0.0
C761 C 0.31348 0.91811 0.97753 0.0
C762 C 0.31947 0.92655 0.95275 0.0
C763 C 0.30609 0.94671 0.94172 0.0
C764 C 0.27857 0.01558 0.95323 0.0
C765 C 0.26067 0.0352 0.95443 0.0
C766 C 0.26894 0.06065 0.9639 0.0
C767 C 0.29539 0.06702 0.97209 0.0
C768 C 0.31347 0.0474 0.97021 0.0
C769 C 0.3051 0.02184 0.96081 0.0
C770 C 0.26747 0.98098 0.90549 0.0
C771 C 0.24612 0.96841 0.89042 0.0
C772 C 0.24558 0.96753 0.86305 0.0
C773 C 0.26661 0.97889 0.85019 0.0
C774 C 0.28834 0.99088 0.86548 0.0
C775 C 0.28871 0.99196 0.89291 0.0
P776 P 0.47036 0.70854 0.47389 0.0
H777 H 0.41349 0.69757 0.46894 0.0
H778 H 0.38348 0.68288 0.43119 0.0
H779 H 0.45019 0.66905 0.38507 0.0
H780 H 0.47945 0.68185 0.42282 0.0
H781 H 0.49534 0.72618 0.52446 0.0
H782 H 0.48959 0.71226 0.56872 0.0
H783 H 0.43936 0.64589 0.53642 0.0
H784 H 0.44527 0.65989 0.49221 0.0
H785 H 0.49505 0.74752 0.44296 0.0
H786 H 0.51586 0.67605 0.47729 0.0
O787 O 0.45959 0.73853 0.47843 0.0
H788 H 0.53534 0.74855 0.41975 0.0
H789 H 0.55645 0.67688 0.45383 0.0
C790 C 0.44872 0.69128 0.44868 0.0
C791 C 0.42151 0.69058 0.45086 0.0
C792 C 0.4044 0.68244 0.42914 0.0
C793 C 0.4143 0.67535 0.40474 0.0
C794 C 0.44161 0.67416 0.40339 0.0
C795 C 0.45859 0.68187 0.42515 0.0
C796 C 0.47039 0.69435 0.50518 0.0
C797 C 0.48345 0.70837 0.52692 0.0
C798 C 0.48 0.70048 0.55221 0.0
C799 C 0.46337 0.67838 0.55617 0.0
C800 C 0.45199 0.66318 0.53411 0.0
C801 C 0.45534 0.6712 0.50876 0.0
C802 C 0.50277 0.71201 0.46224 0.0
C803 C 0.50866 0.73241 0.44605 0.0
C804 C 0.53152 0.73279 0.43252 0.0
C805 C 0.54887 0.71265 0.43478 0.0
C806 C 0.54348 0.69273 0.45187 0.0
C807 C 0.52041 0.6923 0.46536 0.0
P808 P 0.92742 0.25804 0.98231 0.0
H809 H 0.97964 0.26273 0.96336 0.0
H810 H 0.99904 0.28866 0.93011 0.0
H811 H 0.92696 0.32801 0.91985 0.0
H812 H 0.90751 0.30147 0.95277 0.0
H813 H 0.92153 0.22925 0.02873 0.0
H814 H 0.93874 0.23698 0.07428 0.0
H815 H 0.9763 0.31081 0.05543 0.0
H816 H 0.95852 0.30311 0.00989 0.0
H817 H 0.88772 0.22334 0.95252 0.0
H818 H 0.88974 0.29204 0.00583 0.0
O819 O 0.93618 0.22793 0.97388 0.0
H820 H 0.84001 0.22083 0.95043 0.0
H821 H 0.84166 0.29035 0.00312 0.0
C822 C 0.94206 0.27987 0.96021 0.0
C823 C 0.96811 0.27711 0.9541 0.0
C824 C 0.97923 0.29213 0.93521 0.0
C825 C 0.96451 0.31036 0.92216 0.0
C826 C 0.93869 0.31386 0.92921 0.0
C827 C 0.92757 0.29875 0.94814 0.0
C828 C 0.93908 0.26539 0.01593 0.0
C829 C 0.93339 0.24715 0.03445 0.0
C830 C 0.94335 0.25154 0.06043 0.0
C831 C 0.95918 0.27435 0.0684 0.0
C832 C 0.96411 0.29309 0.04992 0.0
C833 C 0.9541 0.28863 0.02384 0.0
C834 C 0.89219 0.25758 0.9797 0.0
C835 C 0.87784 0.23803 0.96365 0.0
C836 C 0.85047 0.23681 0.96226 0.0
C837 C 0.83687 0.25539 0.97663 0.0
C838 C 0.85145 0.27548 0.99213 0.0
C839 C 0.87891 0.27655 0.99363 0.0
P840 P 0.08763 0.68971 0.55971 0.0
H841 H 0.03126 0.69819 0.5609 0.0
H842 H 0.00273 0.70484 0.59716 0.0
H843 H 0.0699 0.70312 0.6524 0.0
H844 H 0.09809 0.69784 0.61637 0.0
H845 H 0.09134 0.66904 0.50611 0.0
H846 H 0.07689 0.68408 0.46363 0.0
H847 H 0.04899 0.75359 0.50226 0.0
H848 H 0.06341 0.73814 0.54498 0.0
H849 H 0.13184 0.66314 0.58182 0.0
H850 H 0.11611 0.74129 0.56066 0.0
O851 O 0.08583 0.65702 0.55591 0.0
H852 H 0.1753 0.67904 0.60033 0.0
H853 H 0.15982 0.75742 0.57928 0.0
C854 C 0.06696 0.69833 0.58581 0.0
C855 C 0.03989 0.70009 0.58082 0.0
C856 C 0.02355 0.70355 0.60163 0.0
C857 C 0.03395 0.70468 0.62784 0.0
C858 C 0.06116 0.70311 0.6326 0.0
C859 C 0.07742 0.69994 0.61185 0.0
C860 C 0.07778 0.70212 0.52868 0.0
C861 C 0.0821 0.68751 0.50547 0.0
C862 C 0.07404 0.69628 0.48115 0.0
C863 C 0.06168 0.72001 0.47954 0.0
C864 C 0.05811 0.73505 0.50288 0.0
C865 C 0.06633 0.72626 0.52727 0.0
C866 C 0.12094 0.70096 0.56946 0.0
C867 C 0.13792 0.68365 0.58072 0.0
C868 C 0.16265 0.69282 0.59157 0.0
C869 C 0.17086 0.71951 0.59141 0.0
C870 C 0.15406 0.73673 0.5795 0.0
C871 C 0.12915 0.72753 0.56881 0.0
P872 P 0.54806 0.32038 0.04351 0.0
H873 H 0.59643 0.30709 0.07263 0.0
H874 H 0.60528 0.29463 0.11771 0.0
H875 H 0.5232 0.30018 0.13175 0.0
H876 H 0.51449 0.3116 0.087 0.0
H877 H 0.56063 0.33579 0.99182 0.0
H878 H 0.58565 0.31594 0.95726 0.0
H879 H 0.59922 0.25047 0.00475 0.0
H880 H 0.57367 0.27014 0.03903 0.0
H881 H 0.50533 0.35577 0.03989 0.0
H882 H 0.51472 0.27267 0.02979 0.0
O883 O 0.55622 0.35251 0.0448 0.0
H884 H 0.45776 0.34768 0.03584 0.0
H885 H 0.46693 0.26431 0.02622 0.0
C886 C 0.55465 0.30932 0.076 0.0
C887 C 0.58029 0.305 0.08529 0.0
C888 C 0.58535 0.29816 0.11117 0.0
C889 C 0.56489 0.29603 0.12836 0.0
C890 C 0.53934 0.3008 0.11896 0.0
C891 C 0.53432 0.30745 0.09318 0.0
C892 C 0.56603 0.30485 0.0183 0.0
C893 C 0.56902 0.31716 0.9948 0.0
C894 C 0.58315 0.30575 0.97501 0.0
C895 C 0.59462 0.28183 0.97847 0.0
C896 C 0.59097 0.26916 0.00179 0.0
C897 C 0.57647 0.28043 0.02142 0.0
C898 C 0.51351 0.31482 0.03488 0.0
C899 C 0.49716 0.3358 0.03626 0.0
C900 C 0.46993 0.33111 0.03423 0.0
C901 C 0.45856 0.30532 0.03104 0.0
C902 C 0.47506 0.2844 0.02847 0.0
C903 C 0.50235 0.28913 0.03047 0.0
P904 P 0.42974 0.46943 0.68716 0.0
H905 H 0.41934 0.41875 0.65761 0.0
H906 H 0.38156 0.4009 0.6292 0.0
H907 H 0.35057 0.47787 0.63115 0.0
H908 H 0.38867 0.49549 0.65757 0.0
H909 H 0.47677 0.4876 0.71838 0.0
H910 H 0.52322 0.48251 0.71269 0.0
H911 H 0.5039 0.447 0.63459 0.0
H912 H 0.45742 0.45236 0.64041 0.0
H913 H 0.39704 0.48561 0.72924 0.0
H914 H 0.44331 0.5228 0.67246 0.0
O915 O 0.42606 0.44835 0.71055 0.0
H916 H 0.38158 0.52793 0.74361 0.0
H917 H 0.42721 0.56532 0.6861 0.0
C918 C 0.40668 0.45834 0.66017 0.0
C919 C 0.40479 0.43187 0.65106 0.0
C920 C 0.38298 0.42165 0.63503 0.0
C921 C 0.36243 0.43768 0.62835 0.0
C922 C 0.3658 0.46472 0.63559 0.0
C923 C 0.38773 0.47492 0.65117 0.0
C924 C 0.46369 0.47018 0.67993 0.0
C925 C 0.4826 0.47913 0.69984 0.0
C926 C 0.50914 0.47602 0.69664 0.0
C927 C 0.51728 0.46369 0.67345 0.0
C928 C 0.49834 0.45632 0.6528 0.0
C929 C 0.47169 0.45935 0.6561 0.0
C930 C 0.42167 0.50119 0.70014 0.0
C931 C 0.40418 0.50299 0.72012 0.0
C932 C 0.39507 0.52719 0.72808 0.0
C933 C 0.40296 0.55002 0.71586 0.0
C934 C 0.42098 0.54819 0.69615 0.0
C935 C 0.43022 0.52393 0.68833 0.0
P936 P 0.98511 0.93792 0.27691 0.0
H937 H 0.95767 0.98549 0.27034 0.0
H938 H 0.9201 0.00326 0.29089 0.0
H939 H 0.91864 0.93977 0.34301 0.0
H940 H 0.95607 0.92191 0.32206 0.0
H941 H 0.03692 0.92271 0.26502 0.0
H942 H 0.08093 0.94221 0.27712 0.0
H943 H 0.04822 0.0009 0.32773 0.0
H944 H 0.00411 0.98152 0.31503 0.0
H945 H 0.95909 0.89704 0.24076 0.0
H946 H 0.00452 0.90163 0.3148 0.0
O947 O 0.98166 0.94558 0.24567 0.0
H948 H 0.95631 0.84935 0.24044 0.0
H949 H 0.00105 0.85372 0.31521 0.0
C950 C 0.95924 0.95208 0.29425 0.0
C951 C 0.94935 0.97547 0.28628 0.0
C952 C 0.92799 0.98573 0.29821 0.0
C953 C 0.91623 0.97281 0.31847 0.0
C954 C 0.92698 0.94993 0.32716 0.0
C955 C 0.94842 0.93973 0.31523 0.0
C956 C 0.01731 0.95052 0.28927 0.0
C957 C 0.03927 0.93952 0.27906 0.0
C958 C 0.06445 0.95064 0.28611 0.0
C959 C 0.06815 0.97313 0.30344 0.0
C960 C 0.04604 0.98374 0.31414 0.0
C961 C 0.0208 0.97257 0.30703 0.0
C962 C 0.98244 0.90277 0.27753 0.0
C963 C 0.96838 0.88773 0.25704 0.0
C964 C 0.96656 0.86042 0.25705 0.0
C965 C 0.97847 0.8476 0.27782 0.0
C966 C 0.99201 0.86289 0.29871 0.0
C967 C 0.99395 0.89026 0.29856 0.0
P968 P 0.5533 0.10303 0.72264 0.0
H969 H 0.56676 0.06 0.68721 0.0
H970 H 0.60572 0.03457 0.68524 0.0
H971 H 0.63604 0.07187 0.75975 0.0
H972 H 0.59687 0.09693 0.76182 0.0
H973 H 0.50018 0.1151 0.70737 0.0
H974 H 0.45723 0.09455 0.7147 0.0
H975 H 0.49448 0.03706 0.76035 0.0
H976 H 0.53763 0.05768 0.75253 0.0
H977 H 0.59809 0.14068 0.72608 0.0
H978 H 0.52632 0.1296 0.76547 0.0
O979 O 0.55101 0.11266 0.69202 0.0
H980 H 0.60869 0.18194 0.75209 0.0
H981 H 0.53674 0.17104 0.79143 0.0
C982 C 0.57927 0.08082 0.72428 0.0
C983 C 0.58157 0.06232 0.70335 0.0
C984 C 0.60378 0.04774 0.7023 0.0
C985 C 0.62408 0.05155 0.72217 0.0
C986 C 0.62089 0.06889 0.74396 0.0
C987 C 0.59851 0.08323 0.74513 0.0
C988 C 0.52201 0.0876 0.72899 0.0
C989 C 0.4991 0.09803 0.71891 0.0
C990 C 0.47454 0.0864 0.72335 0.0
C991 C 0.4724 0.06414 0.73812 0.0
C992 C 0.49548 0.05399 0.74862 0.0
C993 C 0.52013 0.06576 0.74421 0.0
C994 C 0.56149 0.13207 0.74385 0.0
C995 C 0.58479 0.14699 0.74058 0.0
C996 C 0.59089 0.17047 0.75557 0.0
C997 C 0.57359 0.17965 0.77388 0.0
C998 C 0.55039 0.16445 0.77741 0.0
C999 C 0.54444 0.14075 0.76257 0.0
P1000 P 0.00543 0.50659 0.32001 0.0
H1001 H 0.04171 0.54313 0.35265 0.0
H1002 H 0.08205 0.56791 0.34354 0.0
H1003 H 0.07304 0.5376 0.26258 0.0
H1004 H 0.03272 0.51261 0.27196 0.0
H1005 H 0.95399 0.48016 0.30569 0.0
H1006 H 0.91341 0.49533 0.28573 0.0
H1007 H 0.95306 0.57093 0.27676 0.0
H1008 H 0.99349 0.55551 0.29624 0.0
H1009 H 0.02691 0.467 0.35203 0.0
H1010 H 0.99857 0.47236 0.27155 0.0
O1011 O 0.00022 0.51085 0.35185 0.0
H1012 H 0.03774 0.42185 0.34218 0.0
H1013 H 0.00989 0.42715 0.26131 0.0
C1014 C 0.03436 0.52593 0.313 0.0
C1015 C 0.04833 0.5419 0.33291 0.0
C1016 C 0.07132 0.55619 0.32764 0.0
C1017 C 0.08075 0.5547 0.30233 0.0
C1018 C 0.06644 0.53891 0.28233 0.0
C1019 C 0.04339 0.52469 0.28763 0.0
C1020 C 0.97689 0.51649 0.30188 0.0
C1021 C 0.95406 0.49979 0.29885 0.0
C1022 C 0.93083 0.50856 0.28766 0.0
C1023 C 0.93001 0.53433 0.27959 0.0
C1024 C 0.95312 0.55083 0.28228 0.0
C1025 C 0.97629 0.54203 0.29348 0.0
C1026 C 0.01141 0.47277 0.31267 0.0
C1027 C 0.02282 0.45835 0.33226 0.0
C1028 C 0.02928 0.43262 0.32651 0.0
C1029 C 0.02476 0.42091 0.30092 0.0
C1030 C 0.01333 0.43549 0.28127 0.0
C1031 C 0.00686 0.46131 0.28709 0.0
C1032 C 0.14873 0.56923 0.27884 0.0
C1033 C 0.15502 0.59477 0.28998 0.0
H1034 H 0.12042 0.53652 0.27413 0.0
C1035 C 0.13622 0.60748 0.3042 0.0
H1036 H 0.16278 0.55889 0.26777 0.0
C1037 C 0.11193 0.59467 0.30778 0.0
C1038 C 0.10587 0.56892 0.29715 0.0
H1039 H 0.14041 0.62719 0.31295 0.0
H1040 H 0.09791 0.60491 0.31898 0.0
C1041 C 0.1244 0.55646 0.28235 0.0
C1042 C 0.29213 0.43323 0.59982 0.0
C1043 C 0.28214 0.41032 0.61049 0.0
H1044 H 0.32573 0.4591 0.59551 0.0
C1045 C 0.29972 0.39403 0.6226 0.0
H1046 H 0.27914 0.4459 0.58981 0.0
C1047 C 0.32635 0.4019 0.6265 0.0
C1048 C 0.33608 0.42611 0.61803 0.0
H1049 H 0.29268 0.3761 0.63083 0.0
H1050 H 0.33874 0.38987 0.63798 0.0
C1051 C 0.31885 0.4409 0.60331 0.0
C1052 C 0.69679 0.04431 0.71667 0.0
C1053 C 0.69733 0.01802 0.7072 0.0
H1054 H 0.67319 0.07538 0.72905 0.0
C1055 C 0.67375 0.00224 0.70451 0.0
H1056 H 0.71462 0.05695 0.71902 0.0
C1057 C 0.64997 0.01286 0.71011 0.0
C1058 C 0.64937 0.03935 0.71888 0.0
H1059 H 0.67353 0.98189 0.69726 0.0
H1060 H 0.63199 0.00047 0.7072 0.0
C1061 C 0.67308 0.05482 0.72259 0.0
C1062 C 0.8652 0.01854 0.34121 0.0
C1063 C 0.8437 0.00083 0.34431 0.0
H1064 H 0.90513 0.02358 0.33109 0.0
C1065 C 0.8469 0.97378 0.34089 0.0
H1066 H 0.86343 0.03951 0.34387 0.0
C1067 C 0.87077 0.96467 0.33345 0.0
C1068 C 0.89195 0.98241 0.32926 0.0
H1069 H 0.83074 0.95962 0.34319 0.0
H1070 H 0.87226 0.94374 0.32993 0.0
C1071 C 0.88906 0.00943 0.33376 0.0
C1072 C 0.28615 0.1639 0.56482 0.0
C1073 C 0.29709 0.17054 0.59039 0.0
H1074 H 0.28174 0.13517 0.53245 0.0
C1075 C 0.31068 0.15173 0.60372 0.0
H1076 H 0.27555 0.17793 0.55402 0.0
C1077 C 0.31416 0.12719 0.59137 0.0
C1078 C 0.30405 0.12089 0.56545 0.0
H1079 H 0.31924 0.15618 0.62348 0.0
H1080 H 0.3251 0.11326 0.60198 0.0
C1081 C 0.28957 0.13932 0.5525 0.0
C1082 C 0.33978 0.8709 0.0257 0.0
C1083 C 0.34185 0.84822 0.00925 0.0
H1084 H 0.32987 0.91098 0.02856 0.0
C1085 C 0.33702 0.8495 0.98203 0.0
H1086 H 0.34359 0.87063 0.04675 0.0
C1087 C 0.32887 0.87254 0.97163 0.0
C1088 C 0.32549 0.89487 0.98821 0.0
H1089 H 0.33845 0.83238 0.9688 0.0
H1090 H 0.324 0.8724 0.95072 0.0
C1091 C 0.33175 0.89398 0.01529 0.0
C1092 C 0.65551 0.30139 0.45397 0.0
C1093 C 0.66207 0.29074 0.42943 0.0
H1094 H 0.65569 0.33558 0.4801 0.0
C1095 C 0.67147 0.30774 0.41103 0.0
H1096 H 0.64811 0.28885 0.46856 0.0
C1097 C 0.67558 0.33463 0.41755 0.0
C1098 C 0.67047 0.34512 0.44265 0.0
H1099 H 0.67648 0.30019 0.39184 0.0
H1100 H 0.68332 0.34713 0.40309 0.0
C1101 C 0.65972 0.32827 0.46053 0.0
C1102 C 0.72817 0.65988 0.98554 0.0
C1103 C 0.72108 0.65693 0.95851 0.0
H1104 H 0.72985 0.64189 0.02223 0.0
C1105 C 0.71187 0.63205 0.94742 0.0
H1106 H 0.73531 0.67878 0.99471 0.0
C1107 C 0.7089 0.6108 0.9632 0.0
C1108 C 0.71509 0.61398 0.99041 0.0
H1109 H 0.70637 0.62908 0.92662 0.0
H1110 H 0.70143 0.59196 0.95414 0.0
C1111 C 0.72519 0.63866 0.00131 0.0
C1112 C 0.55471 0.2716 0.19599 0.0
C1113 C 0.57676 0.28332 0.21081 0.0
H1114 H 0.53413 0.2656 0.15831 0.0
C1115 C 0.59596 0.29755 0.19794 0.0
H1116 H 0.5397 0.26026 0.20526 0.0
C1117 C 0.59258 0.301 0.17102 0.0
C1118 C 0.57001 0.2901 0.15634 0.0
H1119 H 0.61318 0.30686 0.20883 0.0
H1120 H 0.60716 0.3131 0.16199 0.0
C1121 C 0.55146 0.2748 0.16907 0.0
C1122 C 0.97121 0.33713 0.85507 0.0
C1123 C 0.99816 0.34451 0.85582 0.0
H1124 H 0.93951 0.32034 0.87529 0.0
C1125 C 0.01342 0.3429 0.87937 0.0
H1126 H 0.95889 0.33816 0.83723 0.0
C1127 C 0.00225 0.33293 0.90129 0.0
C1128 C 0.97559 0.32423 0.90015 0.0
H1129 H 0.0342 0.34866 0.88067 0.0
H1130 H 0.01467 0.33151 0.91899 0.0
C1131 C 0.96005 0.32705 0.87697 0.0
C1132 C 0.36237 0.68963 0.35235 0.0
C1133 C 0.36983 0.6745 0.33053 0.0
H1134 H 0.37061 0.70205 0.39269 0.0
C1135 C 0.38996 0.65731 0.33406 0.0
H1136 H 0.34685 0.70302 0.35032 0.0
C1137 C 0.4031 0.65607 0.35864 0.0
C1138 C 0.39691 0.67254 0.38015 0.0
H1139 H 0.39613 0.64538 0.31763 0.0
H1140 H 0.41873 0.64282 0.36054 0.0
C1141 C 0.37585 0.68879 0.37683 0.0
C1142 C 0.0109 0.71537 0.69669 0.0
C1143 C 0.98727 0.6998 0.69501 0.0
H1144 H 0.04358 0.73017 0.67662 0.0
C1145 C 0.97761 0.68826 0.67045 0.0
H1146 H 0.01867 0.72478 0.71531 0.0
C1147 C 0.99219 0.6908 0.64835 0.0
C1148 C 0.01657 0.70527 0.65025 0.0
H1149 H 0.95946 0.67608 0.66856 0.0
H1150 H 0.98492 0.68026 0.63014 0.0
C1151 C 0.02526 0.71829 0.67452 0.0
C1152 C 0.84718 0.34287 0.72895 0.0
C1153 C 0.82768 0.35584 0.74189 0.0
H1154 H 0.88822 0.34111 0.72322 0.0
C1155 C 0.83525 0.37675 0.76038 0.0
H1156 H 0.842 0.32669 0.7146 0.0
C1157 C 0.86172 0.38491 0.76537 0.0
C1158 C 0.88112 0.37249 0.75179 0.0
H1159 H 0.8207 0.38713 0.77068 0.0
H1160 H 0.86694 0.4015 0.77923 0.0
C1161 C 0.87362 0.3512 0.73376 0.0
C1162 C 0.6858 0.61856 0.34624 0.0
C1163 C 0.67845 0.64245 0.33678 0.0
H1164 H 0.67354 0.58304 0.36315 0.0
C1165 C 0.65273 0.64986 0.33971 0.0
H1166 H 0.70546 0.61224 0.34421 0.0
C1167 C 0.63453 0.63337 0.35115 0.0
C1168 C 0.64146 0.60881 0.35939 0.0
H1169 H 0.64645 0.66816 0.33265 0.0
H1170 H 0.61487 0.63972 0.35309 0.0
C1171 C 0.66749 0.60186 0.35728 0.0
C1172 C 0.34136 0.99933 0.20444 0.0
C1173 C 0.35135 0.02428 0.21459 0.0
H1174 H 0.3499 0.96166 0.18781 0.0
C1175 C 0.37854 0.03039 0.21516 0.0
H1176 H 0.3205 0.99405 0.20359 0.0
C1177 C 0.39544 0.01172 0.20637 0.0
C1178 C 0.38552 0.98654 0.19672 0.0
H1179 H 0.38688 0.04942 0.22293 0.0
H1180 H 0.41635 0.0168 0.20786 0.0
C1181 C 0.35825 0.9807 0.19555 0.0
C1182 C 0.12957 0.01407 0.66823 0.0
C1183 C 0.15535 0.02546 0.67078 0.0
H1184 H 0.08861 0.02035 0.66348 0.0
C1185 C 0.15932 0.05284 0.67034 0.0
H1186 H 0.12582 0.99305 0.66859 0.0
C1187 C 0.13797 0.06849 0.66731 0.0
C1188 C 0.11218 0.0571 0.66462 0.0
H1189 H 0.17893 0.06224 0.67223 0.0
H1190 H 0.14171 0.08949 0.66666 0.0
C1191 C 0.10824 0.02971 0.66517 0.0
C1192 C 0.69298 0.83924 0.33866 0.0
C1193 C 0.70634 0.81756 0.34668 0.0
H1194 H 0.69082 0.881 0.3418 0.0
C1195 C 0.72895 0.82188 0.36373 0.0
H1196 H 0.67549 0.83656 0.32555 0.0
C1197 C 0.73777 0.84733 0.37291 0.0
C1198 C 0.72401 0.86893 0.36544 0.0
H1199 H 0.73968 0.80559 0.37026 0.0
H1200 H 0.75495 0.85005 0.38645 0.0
C1201 C 0.70165 0.86466 0.34806 0.0
C1202 C 0.67071 0.1183 0.01759 0.0
C1203 C 0.65739 0.14153 0.0185 0.0
H1204 H 0.67667 0.08166 0.0346 0.0
C1205 C 0.63959 0.14567 0.03804 0.0
H1206 H 0.68461 0.11464 0.0028 0.0
C1207 C 0.63476 0.12659 0.05595 0.0
C1208 C 0.64811 0.10339 0.05497 0.0
H1209 H 0.629 0.16338 0.03914 0.0
H1210 H 0.62066 0.12996 0.0706 0.0
C1211 C 0.66631 0.09952 0.03583 0.0
C1212 C 0.37888 0.69663 0.59421 0.0
C1213 C 0.36771 0.68747 0.61667 0.0
H1214 H 0.39493 0.68664 0.55747 0.0
C1215 C 0.36518 0.66033 0.61955 0.0
H1216 H 0.38134 0.71745 0.59153 0.0
C1217 C 0.3726 0.64268 0.59988 0.0
C1218 C 0.38286 0.65175 0.57691 0.0
H1219 H 0.35665 0.65263 0.63662 0.0
H1220 H 0.36932 0.62188 0.60228 0.0
C1221 C 0.38646 0.67896 0.57458 0.0
C1222 C 0.24154 0.37431 0.004 0.0
C1223 C 0.24885 0.3494 0.99516 0.0
H1224 H 0.22625 0.41061 0.9936 0.0
C1225 C 0.24512 0.3417 0.96829 0.0
H1226 H 0.24415 0.38083 0.02459 0.0
C1227 C 0.23487 0.35877 0.95056 0.0
C1228 C 0.22798 0.38384 0.95934 0.0
H1229 H 0.25049 0.32262 0.96084 0.0
H1230 H 0.23236 0.35235 0.92994 0.0
C1231 C 0.23115 0.39132 0.98628 0.0
C1232 C 0.3784 0.7224 0.85751 0.0
C1233 C 0.37286 0.73231 0.83289 0.0
H1234 H 0.40029 0.7279 0.89465 0.0
C1235 C 0.38524 0.75638 0.82714 0.0
H1236 H 0.36922 0.70388 0.8625 0.0
C1237 C 0.40279 0.77028 0.84571 0.0
C1238 C 0.40862 0.76008 0.87012 0.0
H1239 H 0.38129 0.76453 0.80834 0.0
H1240 H 0.41216 0.78875 0.84084 0.0
C1241 C 0.39627 0.73604 0.87586 0.0
C1242 C 0.00337 0.67502 0.13822 0.0
C1243 C 0.01449 0.67137 0.16344 0.0
H1244 H 0.00932 0.67597 0.09718 0.0
C1245 C 0.0411 0.66597 0.16634 0.0
H1246 H 0.98293 0.67923 0.13531 0.0
C1247 C 0.05621 0.6641 0.14446 0.0
C1248 C 0.04509 0.6678 0.11926 0.0
H1249 H 0.05027 0.66311 0.18551 0.0
H1250 H 0.07669 0.66001 0.1473 0.0
C1251 C 0.01853 0.67335 0.11639 0.0
C1252 C 0.59613 0.36612 0.69648 0.0
C1253 C 0.57822 0.36766 0.71628 0.0
H1254 H 0.60238 0.36849 0.65561 0.0
C1255 C 0.55212 0.37269 0.70938 0.0
H1256 H 0.61642 0.3623 0.70117 0.0
C1257 C 0.54398 0.37579 0.68329 0.0
C1258 C 0.5618 0.37429 0.66337 0.0
H1259 H 0.53775 0.37378 0.72408 0.0
H1260 H 0.5235 0.37889 0.67877 0.0
C1261 C 0.58801 0.36942 0.67031 0.0
C1262 C 0.99921 0.2123 0.35707 0.0
C1263 C 0.0248 0.22326 0.36346 0.0
H1264 H 0.96393 0.19519 0.37111 0.0
C1265 C 0.03471 0.22441 0.38977 0.0
H1266 H 0.99096 0.21117 0.33701 0.0
C1267 C 0.01922 0.21519 0.40931 0.0
C1268 C 0.99351 0.20452 0.40297 0.0
H1269 H 0.05437 0.23269 0.39534 0.0
H1270 H 0.0274 0.21634 0.4294 0.0
C1271 C 0.98376 0.20301 0.3766 0.0
C1272 C 0.28802 0.593 0.36438 0.0
C1273 C 0.29824 0.61081 0.34722 0.0
H1274 H 0.29516 0.57195 0.39876 0.0
C1275 C 0.32359 0.62249 0.35277 0.0
H1276 H 0.26844 0.58379 0.36052 0.0
C1277 C 0.33881 0.61604 0.37475 0.0
C1278 C 0.32897 0.59767 0.39164 0.0
H1279 H 0.33151 0.63678 0.34017 0.0
H1280 H 0.35822 0.62557 0.3786 0.0
C1281 C 0.30331 0.58633 0.38629 0.0
C1282 C 0.20212 0.43521 0.72271 0.0
C1283 C 0.20902 0.40954 0.71615 0.0
H1284 H 0.19501 0.4638 0.75336 0.0
C1285 C 0.21594 0.39345 0.73647 0.0
H1286 H 0.19666 0.44813 0.70755 0.0
C1287 C 0.21507 0.40248 0.76272 0.0
C1288 C 0.20729 0.42782 0.76928 0.0
H1289 H 0.22147 0.37362 0.73214 0.0
H1290 H 0.22023 0.38949 0.77792 0.0
C1291 C 0.20128 0.44425 0.74898 0.0
C1292 C 0.75139 0.98192 0.57637 0.0
C1293 C 0.76948 0.96608 0.58847 0.0
H1294 H 0.73508 0.99508 0.54033 0.0
C1295 C 0.78355 0.94925 0.5726 0.0
H1296 H 0.74024 0.99513 0.588 0.0
C1297 C 0.78045 0.9491 0.54526 0.0
C1298 C 0.76326 0.96582 0.53315 0.0
H1299 H 0.7975 0.93663 0.58126 0.0
H1300 H 0.79184 0.93616 0.53361 0.0
C1301 C 0.74834 0.98182 0.54901 0.0
C1302 C 0.7129 0.99282 0.2598 0.0
C1303 C 0.71675 0.01586 0.27618 0.0
H1304 H 0.69721 0.975 0.22287 0.0
C1305 C 0.70871 0.03956 0.26694 0.0
H1306 H 0.71934 0.97439 0.26642 0.0
C1307 C 0.6959 0.03995 0.24203 0.0
C1308 C 0.69145 0.01672 0.22581 0.0
H1309 H 0.7117 0.0576 0.27924 0.0
H1310 H 0.68939 0.05837 0.23548 0.0
C1311 C 0.70054 0.99325 0.23478 0.0
C1312 C 0.38159 0.28948 0.58241 0.0
C1313 C 0.36372 0.30562 0.59413 0.0
H1314 H 0.41827 0.28746 0.56443 0.0
C1315 C 0.37009 0.3327 0.59785 0.0
H1316 H 0.37719 0.2685 0.57945 0.0
C1317 C 0.39346 0.34358 0.58913 0.0
C1318 C 0.41114 0.32752 0.57688 0.0
H1319 H 0.35724 0.34545 0.6079 0.0
H1320 H 0.39792 0.36452 0.59242 0.0
C1321 C 0.40506 0.30032 0.57381 0.0
C1322 C 0.25882 0.70975 0.00522 0.0
C1323 C 0.27071 0.72323 0.02795 0.0
H1324 H 0.22462 0.68896 0.98684 0.0
C1325 C 0.25553 0.72774 0.04961 0.0
H1326 H 0.26937 0.70733 0.98763 0.0
C1327 C 0.2292 0.71839 0.04875 0.0
C1328 C 0.21746 0.70417 0.02622 0.0
H1329 H 0.26401 0.73852 0.06726 0.0
H1330 H 0.21803 0.7226 0.06567 0.0
C1331 C 0.23272 0.69995 0.0045 0.0
C1332 C 0.76366 0.19748 0.45284 0.0
C1333 C 0.75896 0.20424 0.4268 0.0
H1334 H 0.79198 0.18813 0.48276 0.0
C1335 C 0.78034 0.20743 0.41098 0.0
H1336 H 0.74767 0.19501 0.46563 0.0
C1337 C 0.80576 0.20324 0.42077 0.0
C1338 C 0.81037 0.19582 0.44661 0.0
H1339 H 0.77741 0.21254 0.39081 0.0
H1340 H 0.82169 0.20507 0.40781 0.0
C1341 C 0.78906 0.19335 0.46263 0.0
C1342 C 0.64093 0.78444 0.95838 0.0
C1343 C 0.64705 0.77168 0.93466 0.0
H1344 H 0.61187 0.80279 0.98013 0.0
C1345 C 0.62717 0.76648 0.91459 0.0
H1346 H 0.65537 0.78744 0.97475 0.0
C1347 C 0.6018 0.77429 0.91801 0.0
C1348 C 0.59572 0.78752 0.94161 0.0
H1349 H 0.63122 0.75629 0.89623 0.0
H1350 H 0.58686 0.76947 0.90231 0.0
C1351 C 0.61569 0.79259 0.96171 0.0
C1352 C 0.60744 0.39007 0.32922 0.0
C1353 C 0.58638 0.37105 0.3251 0.0
H1354 H 0.61988 0.42961 0.34263 0.0
C1355 C 0.56098 0.37814 0.33033 0.0
H1356 H 0.62724 0.38519 0.32543 0.0
C1357 C 0.55689 0.40338 0.34054 0.0
C1358 C 0.57804 0.42215 0.34532 0.0
H1359 H 0.54437 0.36391 0.3275 0.0
H1360 H 0.53722 0.40818 0.34499 0.0
C1361 C 0.60326 0.41547 0.33905 0.0
C1362 C 0.00374 0.26159 0.73726 0.0
C1363 C 0.02488 0.2803 0.73698 0.0
H1364 H 0.98779 0.22309 0.72456 0.0
C1365 C 0.04744 0.27362 0.72439 0.0
H1366 H 0.98633 0.26617 0.74727 0.0
C1367 C 0.04833 0.24885 0.71134 0.0
C1368 C 0.02687 0.23029 0.71118 0.0
H1369 H 0.06404 0.28774 0.72408 0.0
H1370 H 0.06574 0.24421 0.70138 0.0
C1371 C 0.00471 0.23685 0.72453 0.0
C1372 C 0.40118 0.75278 0.19024 0.0
C1373 C 0.38364 0.75388 0.21033 0.0
H1374 H 0.42847 0.77408 0.16791 0.0
C1375 C 0.38146 0.7778 0.22472 0.0
H1376 H 0.4043 0.73431 0.17986 0.0
C1377 C 0.39576 0.80044 0.21838 0.0
C1378 C 0.41254 0.79956 0.19757 0.0
H1379 H 0.36829 0.77911 0.24051 0.0
H1380 H 0.39318 0.81878 0.22935 0.0
C1381 C 0.41526 0.77545 0.18367 0.0
C1382 C 0.00597 0.58113 0.77105 0.0
C1383 C 0.98158 0.59154 0.76543 0.0
H1384 H 0.02732 0.54667 0.77466 0.0
C1385 C 0.95967 0.5742 0.75808 0.0
H1386 H 0.0233 0.59389 0.77666 0.0
C1387 C 0.96201 0.54706 0.757 0.0
C1388 C 0.98627 0.5367 0.76335 0.0
H1389 H 0.94059 0.58156 0.75362 0.0
H1390 H 0.94465 0.53418 0.75194 0.0
C1391 C 0.00828 0.55405 0.77007 0.0
C1392 C 0.70872 0.40994 0.64637 0.0
C1393 C 0.71729 0.38448 0.64808 0.0
H1394 H 0.7016 0.4415 0.62166 0.0
C1395 C 0.72476 0.37091 0.62532 0.0
H1396 H 0.70386 0.42129 0.66374 0.0
C1397 C 0.72379 0.38257 0.60133 0.0
C1398 C 0.71552 0.40815 0.59959 0.0
H1399 H 0.73148 0.35127 0.62607 0.0
H1400 H 0.72953 0.3715 0.5841 0.0
C1401 C 0.7077 0.42162 0.62231 0.0
C1402 C 0.72577 0.63836 0.195 0.0
C1403 C 0.73436 0.62661 0.21783 0.0
H1404 H 0.71271 0.63281 0.15443 0.0
C1405 C 0.73673 0.59935 0.21675 0.0
H1406 H 0.72372 0.65932 0.19526 0.0
C1407 C 0.73031 0.5841 0.19337 0.0
C1408 C 0.72114 0.59579 0.1707 0.0
H1409 H 0.74227 0.58956 0.23422 0.0
H1410 H 0.73151 0.56303 0.19335 0.0
C1411 C 0.71934 0.62315 0.17168 0.0
C1412 C 0.27878 0.03314 0.34497 0.0
C1413 C 0.28809 0.0567 0.33502 0.0
H1414 H 0.27751 0.00966 0.37823 0.0
C1415 C 0.30241 0.07561 0.35203 0.0
H1416 H 0.26851 0.01781 0.33216 0.0
C1417 C 0.30768 0.07092 0.37838 0.0
C1418 C 0.299 0.04707 0.38826 0.0
H1419 H 0.30984 0.09395 0.34487 0.0
H1420 H 0.31882 0.08591 0.39097 0.0
C1421 C 0.28412 0.0284 0.37136 0.0
C1422 C 0.2499 0.95857 0.77819 0.0
C1423 C 0.25906 0.98083 0.7659 0.0
H1424 H 0.24602 0.94 0.81423 0.0
C1425 C 0.27188 0.00194 0.78127 0.0
H1426 H 0.23998 0.942 0.76674 0.0
C1427 C 0.27492 0.00106 0.80855 0.0
C1428 C 0.26532 0.97897 0.82102 0.0
H1429 H 0.27842 0.01966 0.77239 0.0
H1430 H 0.28388 0.01814 0.81991 0.0
C1431 C 0.25321 0.95753 0.80541 0.0
C1432 C 0.61843 0.70844 0.41352 0.0
C1433 C 0.61526 0.71355 0.38684 0.0
H1434 H 0.59981 0.70404 0.44969 0.0
C1435 C 0.59006 0.71749 0.37598 0.0
H1436 H 0.6377 0.70643 0.42276 0.0
C1437 C 0.56853 0.71667 0.39149 0.0
C1438 C 0.5717 0.71196 0.41825 0.0
H1439 H 0.58701 0.72148 0.35549 0.0
H1440 H 0.54935 0.71986 0.38254 0.0
C1441 C 0.59679 0.70741 0.42905 0.0
C1442 C 0.76574 0.23892 0.95309 0.0
C1443 C 0.75279 0.24302 0.97629 0.0
H1444 H 0.80219 0.24064 0.93469 0.0
C1445 C 0.76733 0.253 0.99922 0.0
H1446 H 0.75494 0.23136 0.9351 0.0
C1447 C 0.79453 0.25789 0.99916 0.0
C1448 C 0.80769 0.25299 0.97612 0.0
H1449 H 0.75793 0.25572 0.01753 0.0
H1450 H 0.80534 0.26436 0.01747 0.0
C1451 C 0.79283 0.24409 0.95293 0.0
C1452 C 0.23883 0.75358 0.60328 0.0
C1453 C 0.24686 0.74488 0.62788 0.0
H1454 H 0.20841 0.75239 0.57241 0.0
C1455 C 0.22932 0.72865 0.64074 0.0
H1456 H 0.2522 0.76514 0.59232 0.0
C1457 C 0.20449 0.72094 0.62912 0.0
C1458 C 0.19661 0.72923 0.60432 0.0
H1459 H 0.23496 0.72156 0.65968 0.0
H1460 H 0.19148 0.70828 0.63947 0.0
C1461 C 0.21385 0.746 0.5917 0.0
C1462 C 0.38848 0.2768 0.01648 0.0
C1463 C 0.37502 0.29104 0.0352 0.0
H1464 H 0.42546 0.2703 0.00022 0.0
C1465 C 0.3892 0.30996 0.05233 0.0
H1466 H 0.37803 0.26276 0.00239 0.0
C1467 C 0.41622 0.31449 0.05091 0.0
C1468 C 0.42976 0.30032 0.03219 0.0
H1469 H 0.37942 0.32126 0.067 0.0
H1470 H 0.42657 0.32893 0.06473 0.0
C1471 C 0.41563 0.2813 0.01506 0.0
C1472 C 0.39649 0.62275 0.73198 0.0
C1473 C 0.36987 0.62328 0.73723 0.0
H1474 H 0.42796 0.5992 0.72145 0.0
C1475 C 0.35427 0.59968 0.73545 0.0
H1476 H 0.40921 0.64051 0.73415 0.0
C1477 C 0.36497 0.57602 0.72828 0.0
C1478 C 0.39164 0.57537 0.72307 0.0
H1479 H 0.33368 0.59953 0.73941 0.0
H1480 H 0.35223 0.55825 0.72661 0.0
C1481 C 0.40726 0.59905 0.7249 0.0
C1482 C 0.95478 0.77624 0.26332 0.0
C1483 C 0.97713 0.7632 0.27083 0.0
H1484 H 0.93727 0.81295 0.26055 0.0
C1485 C 0.9994 0.7779 0.2822 0.0
H1486 H 0.93732 0.76534 0.25455 0.0
C1487 C 0.99958 0.80525 0.28525 0.0
C1488 C 0.97745 0.81844 0.27704 0.0
H1489 H 0.01717 0.76844 0.28745 0.0
H1490 H 0.01748 0.81609 0.29295 0.0
C1491 C 0.95484 0.80353 0.2666 0.0
C1492 C 0.56508 0.25002 0.79697 0.0
C1493 C 0.5907 0.25854 0.80635 0.0
H1494 H 0.5395 0.21824 0.77967 0.0
C1495 C 0.61014 0.2403 0.80733 0.0
H1496 H 0.5498 0.26378 0.79582 0.0
C1497 C 0.60429 0.21425 0.79798 0.0
C1498 C 0.5789 0.20599 0.78754 0.0
H1499 H 0.63022 0.24647 0.8137 0.0
H1500 H 0.61986 0.20079 0.79803 0.0
C1501 C 0.55917 0.22395 0.78785 0.0
C1502 C 0.02134 0.34952 0.27515 0.0
C1503 C 0.04449 0.3408 0.2869 0.0
H1504 H 0.99679 0.38167 0.27055 0.0
C1505 C 0.06162 0.35884 0.30222 0.0
H1506 H 0.00732 0.33592 0.264 0.0
C1507 C 0.05556 0.38496 0.3061 0.0
C1508 C 0.03207 0.39361 0.29497 0.0
H1509 H 0.07963 0.35267 0.31149 0.0
H1510 H 0.0692 0.39835 0.31805 0.0
C1511 C 0.01521 0.37571 0.27909 0.0
C1512 C 0.42298 0.58802 0.33614 0.0
C1513 C 0.40022 0.5723 0.33999 0.0
H1514 H 0.46467 0.59398 0.3433 0.0
C1515 C 0.4024 0.55016 0.3548 0.0
H1516 H 0.422 0.60517 0.3248 0.0
C1517 C 0.42689 0.5436 0.36509 0.0
C1518 C 0.44961 0.55928 0.36113 0.0
H1519 H 0.38522 0.53773 0.35824 0.0
H1520 H 0.42811 0.52629 0.3762 0.0
C1521 C 0.4474 0.5817 0.34681 0.0
C1522 C 0.10584 0.378 0.6624 0.0
C1523 C 0.11646 0.35472 0.67012 0.0
H1524 H 0.07675 0.40583 0.66855 0.0
C1525 C 0.10367 0.34012 0.68858 0.0
H1526 H 0.11519 0.38971 0.6482 0.0
C1527 C 0.0817 0.34938 0.70024 0.0
C1528 C 0.07211 0.37351 0.69378 0.0
H1529 H 0.11129 0.32206 0.69489 0.0
H1530 H 0.07312 0.33831 0.71536 0.0
C1531 C 0.08395 0.38736 0.6742 0.0
C1532 C 0.87076 0.06073 0.67558 0.0
C1533 C 0.87126 0.03372 0.67904 0.0
H1534 H 0.89291 0.0966 0.67024 0.0
C1535 C 0.89565 0.0225 0.68145 0.0
H1536 H 0.85232 0.07005 0.67388 0.0
C1537 C 0.91893 0.03767 0.67902 0.0
C1538 C 0.91836 0.06444 0.67427 0.0
H1539 H 0.89674 0.00174 0.68408 0.0
H1540 H 0.93727 0.02812 0.6797 0.0
C1541 C 0.89403 0.07592 0.67329 0.0
C1542 C 0.60688 0.96735 0.2287 0.0
C1543 C 0.61435 0.95756 0.25296 0.0
H1544 H 0.578 0.96597 0.19641 0.0
C1545 C 0.5979 0.9383 0.26328 0.0
H1546 H 0.61926 0.9821 0.2202 0.0
C1547 C 0.57414 0.92941 0.24986 0.0
C1548 C 0.5667 0.9392 0.22561 0.0
H1549 H 0.60317 0.93045 0.28196 0.0
H1550 H 0.56162 0.91476 0.25832 0.0
C1551 C 0.58339 0.95805 0.21503 0.0
C1552 C 0.35727 0.42469 0.54431 0.0
C1553 C 0.33003 0.41853 0.54203 0.0
H1554 H 0.38878 0.45257 0.53781 0.0
C1555 C 0.31351 0.4365 0.531 0.0
H1556 H 0.37053 0.41136 0.55289 0.0
C1557 C 0.32399 0.46013 0.52249 0.0
C1558 C 0.35122 0.46624 0.52465 0.0
H1559 H 0.29245 0.43242 0.5291 0.0
H1560 H 0.31078 0.47353 0.51395 0.0
C1561 C 0.36775 0.44825 0.5356 0.0
C1562 C 0.26126 0.6087 0.93874 0.0
C1563 C 0.28251 0.60539 0.95671 0.0
H1564 H 0.23127 0.59018 0.91172 0.0
C1565 C 0.2901 0.5799 0.96064 0.0
H1566 H 0.25495 0.62808 0.93517 0.0
C1567 C 0.27646 0.55817 0.94724 0.0
C1568 C 0.2549 0.56145 0.92963 0.0
H1569 H 0.30636 0.57665 0.97435 0.0
H1570 H 0.28239 0.53875 0.9512 0.0
C1571 C 0.24759 0.58698 0.92538 0.0
C1572 C 0.69675 0.10164 0.3474 0.0
C1573 C 0.68583 0.11939 0.36508 0.0
H1574 H 0.71316 0.0644 0.34156 0.0
C1575 C 0.67986 0.11124 0.38995 0.0
H1576 H 0.70146 0.10727 0.32805 0.0
C1577 C 0.68668 0.08669 0.39773 0.0
C1578 C 0.69933 0.06971 0.3807 0.0
H1579 H 0.67135 0.12438 0.40402 0.0
H1580 H 0.68299 0.08139 0.41744 0.0
C1581 C 0.70336 0.07701 0.3551 0.0
C1582 C 0.66623 0.89363 0.0149 0.0
C1583 C 0.66624 0.86909 0.02585 0.0
H1584 H 0.65915 0.9343 0.02043 0.0
C1585 C 0.65895 0.86714 0.05179 0.0
H1586 H 0.67156 0.89579 0.99492 0.0
C1587 C 0.65206 0.8893 0.06653 0.0
C1588 C 0.6522 0.9139 0.05564 0.0
H1589 H 0.6588 0.84853 0.06083 0.0
H1590 H 0.64709 0.88722 0.08663 0.0
C1591 C 0.65924 0.91576 0.02959 0.0
C1592 C 0.57856 0.30632 0.42283 0.0
C1593 C 0.59752 0.32308 0.41243 0.0
H1594 H 0.55117 0.30133 0.4526 0.0
C1595 C 0.60478 0.34742 0.42583 0.0
H1596 H 0.57249 0.28745 0.41293 0.0
C1597 C 0.59291 0.35519 0.44862 0.0
C1598 C 0.57314 0.33904 0.45857 0.0
H1599 H 0.61936 0.36085 0.41848 0.0
H1600 H 0.59902 0.37417 0.45823 0.0
C1601 C 0.56644 0.31424 0.44567 0.0
C1602 C 0.93933 0.25125 0.63233 0.0
C1603 C 0.96577 0.2537 0.64179 0.0
H1604 H 0.91142 0.23598 0.60154 0.0
C1605 C 0.98458 0.24168 0.62699 0.0
H1606 H 0.92435 0.26018 0.64331 0.0
C1607 C 0.97719 0.22786 0.60306 0.0
C1608 C 0.95082 0.22583 0.59332 0.0
H1609 H 0.00511 0.24312 0.63377 0.0
H1610 H 0.99223 0.21928 0.59189 0.0
C1611 C 0.93195 0.23752 0.60832 0.0
C1612 C 0.39993 0.76445 0.08026 0.0
C1613 C 0.41341 0.74623 0.09454 0.0
H1614 H 0.40025 0.78971 0.04833 0.0
C1615 C 0.43863 0.74019 0.08761 0.0
H1616 H 0.38053 0.76966 0.08523 0.0
C1617 C 0.44998 0.75179 0.06663 0.0
C1618 C 0.43639 0.76973 0.05206 0.0
H1619 H 0.44966 0.7264 0.09834 0.0
H1620 H 0.46952 0.7468 0.0619 0.0
C1621 C 0.41131 0.7761 0.05925 0.0
C1622 C 0.99871 0.67166 0.8954 0.0
C1623 C 0.01101 0.68482 0.87564 0.0
H1624 H 0.00213 0.65868 0.93441 0.0
C1625 C 0.03594 0.69762 0.88156 0.0
H1626 H 0.97941 0.66181 0.89161 0.0
C1627 C 0.049 0.69574 0.90614 0.0
C1628 C 0.0374 0.68099 0.92523 0.0
H1629 H 0.04593 0.708 0.86681 0.0
H1630 H 0.06876 0.70458 0.90964 0.0
C1631 C 0.01177 0.66974 0.9199 0.0
C1632 C 0.58335 0.44902 0.64719 0.0
C1633 C 0.59616 0.43894 0.66915 0.0
H1634 H 0.54853 0.46527 0.63138 0.0
C1635 C 0.58319 0.43798 0.69257 0.0
H1636 H 0.59278 0.44997 0.62883 0.0
C1637 C 0.55787 0.44642 0.69392 0.0
C1638 C 0.54489 0.45635 0.67198 0.0
H1639 H 0.59234 0.43011 0.7098 0.0
H1640 H 0.54819 0.4444 0.71203 0.0
C1641 C 0.55797 0.45771 0.64862 0.0
C1642 C 0.85864 0.5508 0.27588 0.0
C1643 C 0.85804 0.56842 0.25582 0.0
H1644 H 0.88181 0.5264 0.2992 0.0
C1645 C 0.88083 0.57329 0.24234 0.0
H1646 H 0.84143 0.54659 0.28664 0.0
C1647 C 0.90399 0.56156 0.24945 0.0
C1648 C 0.90484 0.54468 0.27016 0.0
H1649 H 0.881 0.58664 0.22668 0.0
H1650 H 0.92134 0.56599 0.23897 0.0
C1651 C 0.88177 0.53907 0.28297 0.0
C1652 C 0.14221 0.98383 0.31395 0.0
C1653 C 0.14583 0.01122 0.31331 0.0
H1654 H 0.11485 0.95035 0.31196 0.0
C1655 C 0.12364 0.0261 0.31145 0.0
H1656 H 0.15888 0.9718 0.31559 0.0
C1657 C 0.09841 0.01379 0.30919 0.0
C1658 C 0.09479 0.98632 0.3088 0.0
H1659 H 0.12572 0.04725 0.31093 0.0
H1660 H 0.08181 0.02579 0.30666 0.0
C1661 C 0.11697 0.97152 0.31175 0.0
C1662 C 0.39949 0.05464 0.74747 0.0
C1663 C 0.39513 0.02726 0.74377 0.0
H1664 H 0.42732 0.08769 0.74912 0.0
C1665 C 0.41671 0.01196 0.74001 0.0
H1666 H 0.38335 0.06701 0.75064 0.0
C1667 C 0.44194 0.02386 0.73901 0.0
C1668 C 0.44613 0.05131 0.74174 0.0
H1669 H 0.41406 0.99081 0.73714 0.0
H1670 H 0.458 0.01159 0.73513 0.0
C1671 C 0.42468 0.06652 0.74648 0.0
C1672 C 0.63609 0.58489 0.45433 0.0
C1673 C 0.65625 0.60341 0.44908 0.0
H1674 H 0.62637 0.54655 0.46731 0.0
C1675 C 0.68241 0.59822 0.45566 0.0
H1676 H 0.61572 0.58838 0.44962 0.0
C1677 C 0.68839 0.57458 0.4661 0.0
C1678 C 0.66838 0.55547 0.46999 0.0
H1679 H 0.69841 0.6121 0.45203 0.0
H1680 H 0.70881 0.57078 0.47007 0.0
C1681 C 0.64214 0.56095 0.46437 0.0
C1682 C 0.73105 0.39149 0.00971 0.0
C1683 C 0.72787 0.37096 0.02655 0.0
H1684 H 0.72911 0.43251 0.00466 0.0
C1685 C 0.7222 0.37703 0.05271 0.0
H1686 H 0.73544 0.38752 0.98944 0.0
C1687 C 0.71882 0.40294 0.06154 0.0
C1688 C 0.72099 0.42337 0.0444 0.0
H1689 H 0.71982 0.36171 0.06627 0.0
H1690 H 0.71415 0.40693 0.08172 0.0
C1691 C 0.72761 0.41736 0.0185 0.0
C1692 C 0.27463 0.8884 0.5671 0.0
C1693 C 0.28945 0.86749 0.55886 0.0
H1694 H 0.26647 0.92864 0.56339 0.0
C1695 C 0.3071 0.87133 0.53918 0.0
H1696 H 0.26075 0.88605 0.58212 0.0
C1697 C 0.3105 0.89575 0.52861 0.0
C1698 C 0.29627 0.91692 0.53738 0.0
H1699 H 0.31884 0.85566 0.53239 0.0
H1700 H 0.325 0.89825 0.51421 0.0
C1701 C 0.278 0.91285 0.55647 0.0
C1702 C 0.33385 0.13293 0.98375 0.0
C1703 C 0.31799 0.1465 0.0008 0.0
H1704 H 0.33911 0.09712 0.96121 0.0
C1705 C 0.29533 0.13337 0.00909 0.0
H1706 H 0.35145 0.14249 0.97702 0.0
C1707 C 0.28832 0.10749 1.00009 0.0
C1708 C 0.30382 0.09406 0.98261 0.0
H1709 H 0.28273 0.14316 0.02233 0.0
H1710 H 0.27068 0.09797 0.0068 0.0
C1711 C 0.32686 0.10692 0.9748 0.0
C1712 C 0.44226 0.64245 0.61521 0.0
C1713 C 0.43587 0.6634 0.63224 0.0
H1714 H 0.45637 0.63068 0.57789 0.0
C1715 C 0.4404 0.68917 0.62479 0.0
H1716 H 0.43905 0.62235 0.62039 0.0
C1717 C 0.45014 0.6939 0.60051 0.0
C1718 C 0.45573 0.67299 0.58303 0.0
H1719 H 0.43562 0.70578 0.63736 0.0
H1720 H 0.4522 0.71399 0.59499 0.0
C1721 C 0.45207 0.6472 0.59082 0.0
C1722 C 0.05599 0.72978 0.40652 0.0
C1723 C 0.03044 0.73829 0.40315 0.0
H1724 H 0.08606 0.71785 0.43331 0.0
C1725 C 0.01608 0.74281 0.42543 0.0
H1726 H 0.06769 0.72632 0.38982 0.0
C1727 C 0.02661 0.73784 0.45039 0.0
C1728 C 0.05171 0.72822 0.45359 0.0
H1729 H 0.99637 0.74943 0.42354 0.0
H1730 H 0.01465 0.7405 0.46702 0.0
C1731 C 0.06649 0.72481 0.43144 0.0
C1732 C 0.65117 0.25122 0.94622 0.0
C1733 C 0.64219 0.24881 0.91964 0.0
H1734 H 0.64319 0.26342 0.98559 0.0
C1735 C 0.61742 0.25757 0.91242 0.0
H1736 H 0.6703 0.24501 0.9523 0.0
C1737 C 0.602 0.26851 0.93147 0.0
C1738 C 0.61089 0.27048 0.95812 0.0
H1739 H 0.60957 0.25527 0.89227 0.0
H1740 H 0.58285 0.27487 0.92546 0.0
C1741 C 0.63566 0.26177 0.96527 0.0
C1742 C 0.99287 0.25974 0.13344 0.0
C1743 C 0.99346 0.2841 0.14775 0.0
H1744 H 0.98195 0.23773 0.09722 0.0
C1745 C 0.98293 0.30547 0.13566 0.0
H1746 H 0.0009 0.24289 0.14207 0.0
C1747 C 0.97193 0.30245 0.10984 0.0
C1748 C 0.97113 0.27798 0.09567 0.0
H1749 H 0.9831 0.32451 0.14615 0.0
H1750 H 0.96368 0.31916 0.10113 0.0
C1751 C 0.98184 0.25673 0.10775 0.0
loop_
_geom_bond_atom_site_label_1
_geom_bond_atom_site_label_2
_geom_bond_distance
_geom_bond_site_symmetry_2
_ccdc_geom_bond_type
O0 Cd1 2.300 . S
O0 C7 1.275 . S
Cd1 O0 2.300 . S
Cd1 O9 2.381 . S
Cd1 O10 2.378 . S
O2 Cd3 2.385 . S
O2 C7 1.255 . S
Cd3 O2 2.385 . S
Cd3 O4 2.317 . S
O4 Cd3 2.317 . S
O4 C5 1.232 . S
C5 O4 1.232 . S
C5 O6 1.218 . S
O6 C5 1.218 . S
C7 O0 1.275 . S
C7 O2 1.255 . S
C8 O9 1.258 . S
C8 O10 1.256 . S
O9 Cd1 2.381 . S
O9 C8 1.258 . S
O10 Cd1 2.378 . S
O10 C8 1.256 . S
O11 Cd12 2.300 . S
O11 C18 1.275 . S
Cd12 O11 2.300 . S
Cd12 O20 2.381 . S
Cd12 O21 2.378 . S
O13 Cd14 2.385 . S
O13 C18 1.255 . S
Cd14 O13 2.385 . S
Cd14 O15 2.317 . S
O15 Cd14 2.317 . S
O15 C16 1.232 . S
C16 O15 1.232 . S
C16 O17 1.218 . S
O17 C16 1.218 . S
C18 O11 1.275 . S
C18 O13 1.255 . S
C19 O20 1.258 . S
C19 O21 1.256 . S
O20 Cd12 2.381 . S
O20 C19 1.258 . S
O21 Cd12 2.378 . S
O21 C19 1.256 . S
O22 Cd23 2.300 . S
O22 C29 1.275 . S
Cd23 O22 2.300 . S
Cd23 O31 2.381 1_565 S
Cd23 O32 2.378 . S
O24 Cd25 2.385 . S
O24 C29 1.255 . S
Cd25 O24 2.385 . S
Cd25 O26 2.317 . S
O26 Cd25 2.317 . S
O26 C27 1.232 . S
C27 O26 1.232 . S
C27 O28 1.218 . S
O28 C27 1.218 . S
C29 O22 1.275 . S
C29 O24 1.255 . S
C30 O31 1.258 . S
C30 O32 1.256 1_545 S
O31 Cd23 2.381 1_545 S
O31 C30 1.258 . S
O32 Cd23 2.378 . S
O32 C30 1.256 1_565 S
O33 Cd34 2.300 . S
O33 C40 1.275 . S
Cd34 O33 2.300 . S
Cd34 O42 2.381 1_545 S
Cd34 O43 2.378 . S
O35 Cd36 2.385 . S
O35 C40 1.255 . S
Cd36 O35 2.385 . S
Cd36 O37 2.317 . S
O37 Cd36 2.317 . S
O37 C38 1.232 . S
C38 O37 1.232 . S
C38 O39 1.218 . S
O39 C38 1.218 . S
C40 O33 1.275 . S
C40 O35 1.255 . S
C41 O42 1.258 . S
C41 O43 1.256 1_565 S
O42 Cd34 2.381 1_565 S
O42 C41 1.258 . S
O43 Cd34 2.378 . S
O43 C41 1.256 1_545 S
O44 Cd45 2.300 . S
O44 C51 1.275 . S
Cd45 O44 2.300 . S
Cd45 O53 2.381 . S
Cd45 O54 2.378 . S
O46 Cd47 2.385 . S
O46 C51 1.255 . S
Cd47 O46 2.385 . S
Cd47 O48 2.317 . S
O48 Cd47 2.317 . S
O48 C49 1.232 . S
C49 O48 1.232 . S
C49 O50 1.218 . S
O50 C49 1.218 . S
C51 O44 1.275 . S
C51 O46 1.255 . S
C52 O53 1.258 . S
C52 O54 1.256 . S
O53 Cd45 2.381 . S
O53 C52 1.258 . S
O54 Cd45 2.378 . S
O54 C52 1.256 . S
O55 Cd56 2.300 . S
O55 C62 1.275 . S
Cd56 O55 2.300 . S
Cd56 O64 2.381 1_554 S
Cd56 O65 2.378 . S
O57 Cd58 2.385 . S
O57 C62 1.255 . S
Cd58 O57 2.385 . S
Cd58 O59 2.317 . S
O59 Cd58 2.317 . S
O59 C60 1.232 . S
C60 O59 1.232 . S
C60 O61 1.218 . S
O61 C60 1.218 . S
C62 O55 1.275 . S
C62 O57 1.255 . S
C63 O64 1.258 . S
C63 O65 1.256 1_556 S
O64 Cd56 2.381 1_556 S
O64 C63 1.258 . S
O65 Cd56 2.378 . S
O65 C63 1.256 1_554 S
O66 Cd67 2.300 . S
O66 C73 1.275 . S
Cd67 O66 2.300 . S
Cd67 O75 2.381 . S
Cd67 O76 2.378 . S
O68 Cd69 2.385 . S
O68 C73 1.255 . S
Cd69 O68 2.385 . S
Cd69 O70 2.317 . S
O70 Cd69 2.317 . S
O70 C71 1.232 . S
C71 O70 1.232 . S
C71 O72 1.218 . S
O72 C71 1.218 . S
C73 O66 1.275 . S
C73 O68 1.255 . S
C74 O75 1.258 . S
C74 O76 1.256 . S
O75 Cd67 2.381 . S
O75 C74 1.258 . S
O76 Cd67 2.378 . S
O76 C74 1.256 . S
O77 Cd78 2.300 . S
O77 C84 1.275 . S
Cd78 O77 2.300 . S
Cd78 O86 2.381 1_556 S
Cd78 O87 2.378 . S
O79 Cd80 2.385 . S
O79 C84 1.255 . S
Cd80 O79 2.385 . S
Cd80 O81 2.317 . S
O81 Cd80 2.317 . S
O81 C82 1.232 . S
C82 O81 1.232 . S
C82 O83 1.218 . S
O83 C82 1.218 . S
C84 O77 1.275 . S
C84 O79 1.255 . S
C85 O86 1.258 . S
C85 O87 1.256 1_554 S
O86 Cd78 2.381 1_554 S
O86 C85 1.258 . S
O87 Cd78 2.378 . S
O87 C85 1.256 1_556 S
O88 Cd89 2.300 . S
O88 C95 1.275 . S
Cd89 O88 2.300 . S
Cd89 O97 2.381 . S
Cd89 O98 2.378 . S
O90 Cd91 2.385 . S
O90 C95 1.255 . S
Cd91 O90 2.385 . S
Cd91 O92 2.317 . S
O92 Cd91 2.317 . S
O92 C93 1.232 . S
C93 O92 1.232 . S
C93 O94 1.218 . S
O94 C93 1.218 . S
C95 O88 1.275 . S
C95 O90 1.255 . S
C96 O97 1.258 . S
C96 O98 1.256 . S
O97 Cd89 2.381 . S
O97 C96 1.258 . S
O98 Cd89 2.378 . S
O98 C96 1.256 . S
O99 Cd100 2.300 . S
O99 C106 1.275 . S
Cd100 O99 2.300 . S
Cd100 O108 2.381 1_455 S
Cd100 O109 2.378 . S
O101 Cd102 2.385 . S
O101 C106 1.255 . S
Cd102 O101 2.385 . S
Cd102 O103 2.317 . S
O103 Cd102 2.317 . S
O103 C104 1.232 . S
C104 O103 1.232 . S
C104 O105 1.218 . S
O105 C104 1.218 . S
C106 O99 1.275 . S
C106 O101 1.255 . S
C107 O108 1.258 . S
C107 O109 1.256 1_655 S
O108 Cd100 2.381 1_655 S
O108 C107 1.258 . S
O109 Cd100 2.378 . S
O109 C107 1.256 1_455 S
O110 Cd111 2.300 . S
O110 C117 1.275 . S
Cd111 O110 2.300 . S
Cd111 O119 2.381 . S
Cd111 O120 2.378 . S
O112 Cd113 2.385 . S
O112 C117 1.255 . S
Cd113 O112 2.385 . S
Cd113 O114 2.317 . S
O114 Cd113 2.317 . S
O114 C115 1.232 . S
C115 O114 1.232 . S
C115 O116 1.218 . S
O116 C115 1.218 . S
C117 O110 1.275 . S
C117 O112 1.255 . S
C118 O119 1.258 . S
C118 O120 1.256 . S
O119 Cd111 2.381 . S
O119 C118 1.258 . S
O120 Cd111 2.378 . S
O120 C118 1.256 . S
O121 Cd122 2.300 . S
O121 C128 1.275 . S
Cd122 O121 2.300 . S
Cd122 O130 2.381 1_655 S
Cd122 O131 2.378 . S
O123 Cd124 2.385 . S
O123 C128 1.255 . S
Cd124 O123 2.385 . S
Cd124 O125 2.317 . S
O125 Cd124 2.317 . S
O125 C126 1.232 . S
C126 O125 1.232 . S
C126 O127 1.218 . S
O127 C126 1.218 . S
C128 O121 1.275 . S
C128 O123 1.255 . S
C129 O130 1.258 . S
C129 O131 1.256 1_455 S
O130 Cd122 2.381 1_455 S
O130 C129 1.258 . S
O131 Cd122 2.378 . S
O131 C129 1.256 1_655 S
O132 Cd133 2.300 . S
O132 C139 1.275 . S
Cd133 O132 2.300 . S
Cd133 O141 2.381 . S
Cd133 O142 2.378 . S
O134 Cd135 2.385 . S
O134 C139 1.255 . S
Cd135 O134 2.385 . S
Cd135 O136 2.317 . S
O136 Cd135 2.317 . S
O136 C137 1.232 . S
C137 O136 1.232 . S
C137 O138 1.218 . S
O138 C137 1.218 . S
C139 O132 1.275 . S
C139 O134 1.255 . S
C140 O141 1.258 . S
C140 O142 1.256 . S
O141 Cd133 2.381 . S
O141 C140 1.258 . S
O142 Cd133 2.378 . S
O142 C140 1.256 . S
O143 Cd144 2.300 . S
O143 C150 1.275 . S
Cd144 O143 2.300 . S
Cd144 O152 2.381 . S
Cd144 O153 2.378 . S
O145 Cd146 2.385 . S
O145 C150 1.255 . S
Cd146 O145 2.385 . S
Cd146 O147 2.317 . S
O147 Cd146 2.317 . S
O147 C148 1.232 . S
C148 O147 1.232 . S
C148 O149 1.218 . S
O149 C148 1.218 . S
C150 O143 1.275 . S
C150 O145 1.255 . S
C151 O152 1.258 . S
C151 O153 1.256 . S
O152 Cd144 2.381 . S
O152 C151 1.258 . S
O153 Cd144 2.378 . S
O153 C151 1.256 . S
O154 Cd155 2.300 1_545 S
O154 C161 1.275 . S
Cd155 O154 2.300 1_565 S
Cd155 O163 2.381 1_565 S
Cd155 O164 2.378 . S
O156 Cd157 2.385 . S
O156 C161 1.255 1_565 S
Cd157 O156 2.385 . S
Cd157 O158 2.317 . S
O158 Cd157 2.317 . S
O158 C159 1.232 . S
C159 O158 1.232 . S
C159 O160 1.218 . S
O160 C159 1.218 . S
C161 O154 1.275 . S
C161 O156 1.255 1_545 S
C162 O163 1.258 1_565 S
C162 O164 1.256 . S
O163 Cd155 2.381 1_545 S
O163 C162 1.258 1_545 S
O164 Cd155 2.378 . S
O164 C162 1.256 . S
O165 Cd166 2.300 1_565 S
O165 C172 1.275 . S
Cd166 O165 2.300 1_545 S
Cd166 O174 2.381 1_545 S
Cd166 O175 2.378 . S
O167 Cd168 2.385 . S
O167 C172 1.255 1_545 S
Cd168 O167 2.385 . S
Cd168 O169 2.317 . S
O169 Cd168 2.317 . S
O169 C170 1.232 . S
C170 O169 1.232 . S
C170 O171 1.218 . S
O171 C170 1.218 . S
C172 O165 1.275 . S
C172 O167 1.255 1_565 S
C173 O174 1.258 1_545 S
C173 O175 1.256 . S
O174 Cd166 2.381 1_565 S
O174 C173 1.258 1_565 S
O175 Cd166 2.378 . S
O175 C173 1.256 . S
O176 Cd177 2.300 . S
O176 C183 1.275 . S
Cd177 O176 2.300 . S
Cd177 O185 2.381 . S
Cd177 O186 2.378 . S
O178 Cd179 2.385 . S
O178 C183 1.255 . S
Cd179 O178 2.385 . S
Cd179 O180 2.317 . S
O180 Cd179 2.317 . S
O180 C181 1.232 . S
C181 O180 1.232 . S
C181 O182 1.218 . S
O182 C181 1.218 . S
C183 O176 1.275 . S
C183 O178 1.255 . S
C184 O185 1.258 . S
C184 O186 1.256 . S
O185 Cd177 2.381 . S
O185 C184 1.258 . S
O186 Cd177 2.378 . S
O186 C184 1.256 . S
O187 Cd188 2.300 1_556 S
O187 C194 1.275 . S
Cd188 O187 2.300 1_554 S
Cd188 O196 2.381 1_554 S
Cd188 O197 2.378 . S
O189 Cd190 2.385 . S
O189 C194 1.255 1_554 S
Cd190 O189 2.385 . S
Cd190 O191 2.317 . S
O191 Cd190 2.317 . S
O191 C192 1.232 . S
C192 O191 1.232 . S
C192 O193 1.218 . S
O193 C192 1.218 . S
C194 O187 1.275 . S
C194 O189 1.255 1_556 S
C195 O196 1.258 1_554 S
C195 O197 1.256 . S
O196 Cd188 2.381 1_556 S
O196 C195 1.258 1_556 S
O197 Cd188 2.378 . S
O197 C195 1.256 . S
O198 Cd199 2.300 . S
O198 C205 1.275 . S
Cd199 O198 2.300 . S
Cd199 O207 2.381 . S
Cd199 O208 2.378 . S
O200 Cd201 2.385 . S
O200 C205 1.255 . S
Cd201 O200 2.385 . S
Cd201 O202 2.317 . S
O202 Cd201 2.317 . S
O202 C203 1.232 . S
C203 O202 1.232 . S
C203 O204 1.218 . S
O204 C203 1.218 . S
C205 O198 1.275 . S
C205 O200 1.255 . S
C206 O207 1.258 . S
C206 O208 1.256 . S
O207 Cd199 2.381 . S
O207 C206 1.258 . S
O208 Cd199 2.378 . S
O208 C206 1.256 . S
O209 Cd210 2.300 1_554 S
O209 C216 1.275 . S
Cd210 O209 2.300 1_556 S
Cd210 O218 2.381 1_556 S
Cd210 O219 2.378 . S
O211 Cd212 2.385 . S
O211 C216 1.255 1_556 S
Cd212 O211 2.385 . S
Cd212 O213 2.317 . S
O213 Cd212 2.317 . S
O213 C214 1.232 . S
C214 O213 1.232 . S
C214 O215 1.218 . S
O215 C214 1.218 . S
C216 O209 1.275 . S
C216 O211 1.255 1_554 S
C217 O218 1.258 1_556 S
C217 O219 1.256 . S
O218 Cd210 2.381 1_554 S
O218 C217 1.258 1_554 S
O219 Cd210 2.378 . S
O219 C217 1.256 . S
O220 Cd221 2.300 . S
O220 C227 1.275 . S
Cd221 O220 2.300 . S
Cd221 O229 2.381 . S
Cd221 O230 2.378 . S
O222 Cd223 2.385 . S
O222 C227 1.255 . S
Cd223 O222 2.385 . S
Cd223 O224 2.317 . S
O224 Cd223 2.317 . S
O224 C225 1.232 . S
C225 O224 1.232 . S
C225 O226 1.218 . S
O226 C225 1.218 . S
C227 O220 1.275 . S
C227 O222 1.255 . S
C228 O229 1.258 . S
C228 O230 1.256 . S
O229 Cd221 2.381 . S
O229 C228 1.258 . S
O230 Cd221 2.378 . S
O230 C228 1.256 . S
O231 Cd232 2.300 1_655 S
O231 C238 1.275 . S
Cd232 O231 2.300 1_455 S
Cd232 O240 2.381 1_455 S
Cd232 O241 2.378 . S
O233 Cd234 2.385 . S
O233 C238 1.255 1_455 S
Cd234 O233 2.385 . S
Cd234 O235 2.317 . S
O235 Cd234 2.317 . S
O235 C236 1.232 . S
C236 O235 1.232 . S
C236 O237 1.218 . S
O237 C236 1.218 . S
C238 O231 1.275 . S
C238 O233 1.255 1_655 S
C239 O240 1.258 1_455 S
C239 O241 1.256 . S
O240 Cd232 2.381 1_655 S
O240 C239 1.258 1_655 S
O241 Cd232 2.378 . S
O241 C239 1.256 . S
O242 Cd243 2.300 . S
O242 C249 1.275 . S
Cd243 O242 2.300 . S
Cd243 O251 2.381 . S
Cd243 O252 2.378 . S
O244 Cd245 2.385 . S
O244 C249 1.255 . S
Cd245 O244 2.385 . S
Cd245 O246 2.317 . S
O246 Cd245 2.317 . S
O246 C247 1.232 . S
C247 O246 1.232 . S
C247 O248 1.218 . S
O248 C247 1.218 . S
C249 O242 1.275 . S
C249 O244 1.255 . S
C250 O251 1.258 . S
C250 O252 1.256 . S
O251 Cd243 2.381 . S
O251 C250 1.258 . S
O252 Cd243 2.378 . S
O252 C250 1.256 . S
O253 Cd254 2.300 1_455 S
O253 C260 1.275 . S
Cd254 O253 2.300 1_655 S
Cd254 O262 2.381 1_655 S
Cd254 O263 2.378 . S
O255 Cd256 2.385 . S
O255 C260 1.255 1_655 S
Cd256 O255 2.385 . S
Cd256 O257 2.317 . S
O257 Cd256 2.317 . S
O257 C258 1.232 . S
C258 O257 1.232 . S
C258 O259 1.218 . S
O259 C258 1.218 . S
C260 O253 1.275 . S
C260 O255 1.255 1_455 S
C261 O262 1.258 1_655 S
C261 O263 1.256 . S
O262 Cd254 2.381 1_455 S
O262 C261 1.258 1_455 S
O263 Cd254 2.378 . S
O263 C261 1.256 . S
P264 O275 1.490 . S
P264 C278 1.812 . S
P264 C284 1.803 . S
P264 C290 1.819 . S
H265 C279 0.941 . S
H266 C280 0.939 . S
H267 C282 0.940 . S
H268 C283 0.940 . S
H269 C285 0.939 . S
H270 C286 0.942 . S
H271 C288 0.940 . S
H272 C289 0.939 . S
H273 C291 0.941 . S
H274 C295 0.939 . S
O275 P264 1.490 . S
H276 C292 0.939 . S
H277 C294 0.940 . S
C278 P264 1.812 . S
C278 C279 1.389 . S
C278 C283 1.391 . S
C279 H265 0.941 . S
C279 C278 1.389 . S
C279 C280 1.397 . S
C280 H266 0.939 . S
C280 C279 1.397 . S
C280 C281 1.378 . S
C281 C280 1.378 . S
C281 C282 1.378 . S
C282 H267 0.940 . S
C282 C281 1.378 . S
C282 C283 1.396 . S
C283 H268 0.940 . S
C283 C278 1.391 . S
C283 C282 1.396 . S
C284 P264 1.803 . S
C284 C285 1.378 . S
C284 C289 1.400 . S
C285 H269 0.939 . S
C285 C284 1.378 . S
C285 C286 1.361 . S
C286 H270 0.942 . S
C286 C285 1.361 . S
C286 C287 1.369 . S
C287 C286 1.369 . S
C287 C288 1.404 . S
C288 H271 0.940 . S
C288 C287 1.404 . S
C288 C289 1.389 . S
C289 H272 0.939 . S
C289 C284 1.400 . S
C289 C288 1.389 . S
C290 P264 1.819 . S
C290 C291 1.391 . S
C290 C295 1.391 . S
C291 H273 0.941 . S
C291 C290 1.391 . S
C291 C292 1.396 . S
C292 H276 0.939 . S
C292 C291 1.396 . S
C292 C293 1.397 . S
C293 C292 1.397 . S
C293 C294 1.385 . S
C294 H277 0.940 . S
C294 C293 1.385 . S
C294 C295 1.388 . S
C295 H274 0.939 . S
C295 C290 1.391 . S
C295 C294 1.388 . S
P296 O307 1.490 . S
P296 C310 1.812 . S
P296 C316 1.803 . S
P296 C322 1.819 . S
H297 C311 0.941 . S
H298 C312 0.939 . S
H299 C314 0.940 . S
H300 C315 0.940 . S
H301 C317 0.939 . S
H302 C318 0.942 . S
H303 C320 0.940 . S
H304 C321 0.939 . S
H305 C323 0.941 . S
H306 C327 0.939 . S
O307 P296 1.490 . S
H308 C324 0.939 . S
H309 C326 0.940 . S
C310 P296 1.812 . S
C310 C311 1.389 . S
C310 C315 1.391 . S
C311 H297 0.941 . S
C311 C310 1.389 . S
C311 C312 1.397 . S
C312 H298 0.939 . S
C312 C311 1.397 . S
C312 C313 1.378 . S
C313 C312 1.378 . S
C313 C314 1.378 . S
C314 H299 0.940 . S
C314 C313 1.378 . S
C314 C315 1.396 . S
C315 H300 0.940 . S
C315 C310 1.391 . S
C315 C314 1.396 . S
C316 P296 1.803 . S
C316 C317 1.378 . S
C316 C321 1.400 . S
C317 H301 0.939 . S
C317 C316 1.378 . S
C317 C318 1.361 . S
C318 H302 0.942 . S
C318 C317 1.361 . S
C318 C319 1.369 . S
C319 C318 1.369 . S
C319 C320 1.404 . S
C320 H303 0.940 . S
C320 C319 1.404 . S
C320 C321 1.389 . S
C321 H304 0.939 . S
C321 C316 1.400 . S
C321 C320 1.389 . S
C322 P296 1.819 . S
C322 C323 1.391 . S
C322 C327 1.391 . S
C323 H305 0.941 . S
C323 C322 1.391 . S
C323 C324 1.396 . S
C324 H308 0.939 . S
C324 C323 1.396 . S
C324 C325 1.397 . S
C325 C324 1.397 . S
C325 C326 1.385 . S
C326 H309 0.940 . S
C326 C325 1.385 . S
C326 C327 1.388 . S
C327 H306 0.939 . S
C327 C322 1.391 . S
C327 C326 1.388 . S
P328 O339 1.490 . S
P328 C342 1.812 1_545 S
P328 C348 1.803 . S
P328 C354 1.819 . S
H329 C343 0.941 . S
H330 C344 0.939 . S
H331 C346 0.940 . S
H332 C347 0.940 . S
H333 C349 0.939 . S
H334 C350 0.942 . S
H335 C352 0.940 . S
H336 C353 0.939 . S
H337 C355 0.941 . S
H338 C359 0.939 . S
O339 P328 1.490 . S
H340 C356 0.939 . S
H341 C358 0.940 . S
C342 P328 1.812 1_565 S
C342 C343 1.389 . S
C342 C347 1.391 . S
C343 H329 0.941 . S
C343 C342 1.389 . S
C343 C344 1.397 . S
C344 H330 0.939 . S
C344 C343 1.397 . S
C344 C345 1.378 . S
C345 C344 1.378 . S
C345 C346 1.378 . S
C346 H331 0.940 . S
C346 C345 1.378 . S
C346 C347 1.396 . S
C347 H332 0.940 . S
C347 C342 1.391 . S
C347 C346 1.396 . S
C348 P328 1.803 . S
C348 C349 1.378 . S
C348 C353 1.400 . S
C349 H333 0.939 . S
C349 C348 1.378 . S
C349 C350 1.361 . S
C350 H334 0.942 . S
C350 C349 1.361 . S
C350 C351 1.369 . S
C351 C350 1.369 . S
C351 C352 1.404 . S
C352 H335 0.940 . S
C352 C351 1.404 . S
C352 C353 1.389 . S
C353 H336 0.939 . S
C353 C348 1.400 . S
C353 C352 1.389 . S
C354 P328 1.819 . S
C354 C355 1.391 1_545 S
C354 C359 1.391 . S
C355 H337 0.941 . S
C355 C354 1.391 1_565 S
C355 C356 1.396 . S
C356 H340 0.939 . S
C356 C355 1.396 . S
C356 C357 1.397 1_565 S
C357 C356 1.397 1_545 S
C357 C358 1.385 . S
C358 H341 0.940 . S
C358 C357 1.385 . S
C358 C359 1.388 . S
C359 H338 0.939 . S
C359 C354 1.391 . S
C359 C358 1.388 . S
P360 O371 1.490 . S
P360 C374 1.812 1_565 S
P360 C380 1.803 . S
P360 C386 1.819 . S
H361 C375 0.941 . S
H362 C376 0.939 . S
H363 C378 0.940 . S
H364 C379 0.940 . S
H365 C381 0.939 . S
H366 C382 0.942 . S
H367 C384 0.940 . S
H368 C385 0.939 . S
H369 C387 0.941 . S
H370 C391 0.939 . S
O371 P360 1.490 . S
H372 C388 0.939 . S
H373 C390 0.940 . S
C374 P360 1.812 1_545 S
C374 C375 1.389 . S
C374 C379 1.391 . S
C375 H361 0.941 . S
C375 C374 1.389 . S
C375 C376 1.397 . S
C376 H362 0.939 . S
C376 C375 1.397 . S
C376 C377 1.378 . S
C377 C376 1.378 . S
C377 C378 1.378 . S
C378 H363 0.940 . S
C378 C377 1.378 . S
C378 C379 1.396 . S
C379 H364 0.940 . S
C379 C374 1.391 . S
C379 C378 1.396 . S
C380 P360 1.803 . S
C380 C381 1.378 . S
C380 C385 1.400 . S
C381 H365 0.939 . S
C381 C380 1.378 . S
C381 C382 1.361 . S
C382 H366 0.942 . S
C382 C381 1.361 . S
C382 C383 1.369 . S
C383 C382 1.369 . S
C383 C384 1.404 . S
C384 H367 0.940 . S
C384 C383 1.404 . S
C384 C385 1.389 . S
C385 H368 0.939 . S
C385 C380 1.400 . S
C385 C384 1.389 . S
C386 P360 1.819 . S
C386 C387 1.391 1_565 S
C386 C391 1.391 . S
C387 H369 0.941 . S
C387 C386 1.391 1_545 S
C387 C388 1.396 . S
C388 H372 0.939 . S
C388 C387 1.396 . S
C388 C389 1.397 . S
C389 C388 1.397 . S
C389 C390 1.385 1_545 S
C390 H373 0.940 . S
C390 C389 1.385 1_565 S
C390 C391 1.388 . S
C391 H370 0.939 . S
C391 C386 1.391 . S
C391 C390 1.388 . S
P392 O403 1.490 . S
P392 C406 1.812 . S
P392 C412 1.803 . S
P392 C418 1.819 . S
H393 C407 0.941 . S
H394 C408 0.939 . S
H395 C410 0.940 . S
H396 C411 0.940 . S
H397 C413 0.939 . S
H398 C414 0.942 . S
H399 C416 0.940 . S
H400 C417 0.939 . S
H401 C419 0.941 . S
H402 C423 0.939 . S
O403 P392 1.490 . S
H404 C420 0.939 . S
H405 C422 0.940 . S
C406 P392 1.812 . S
C406 C407 1.389 . S
C406 C411 1.391 . S
C407 H393 0.941 . S
C407 C406 1.389 . S
C407 C408 1.397 . S
C408 H394 0.939 . S
C408 C407 1.397 . S
C408 C409 1.378 . S
C409 C408 1.378 . S
C409 C410 1.378 . S
C410 H395 0.940 . S
C410 C409 1.378 . S
C410 C411 1.396 . S
C411 H396 0.940 . S
C411 C406 1.391 . S
C411 C410 1.396 . S
C412 P392 1.803 . S
C412 C413 1.378 . S
C412 C417 1.400 . S
C413 H397 0.939 . S
C413 C412 1.378 . S
C413 C414 1.361 . S
C414 H398 0.942 . S
C414 C413 1.361 . S
C414 C415 1.369 . S
C415 C414 1.369 . S
C415 C416 1.404 . S
C416 H399 0.940 . S
C416 C415 1.404 . S
C416 C417 1.389 . S
C417 H400 0.939 . S
C417 C412 1.400 . S
C417 C416 1.389 . S
C418 P392 1.819 . S
C418 C419 1.391 . S
C418 C423 1.391 . S
C419 H401 0.941 . S
C419 C418 1.391 . S
C419 C420 1.396 . S
C420 H404 0.939 . S
C420 C419 1.396 . S
C420 C421 1.397 . S
C421 C420 1.397 . S
C421 C422 1.385 . S
C422 H405 0.940 . S
C422 C421 1.385 . S
C422 C423 1.388 . S
C423 H402 0.939 . S
C423 C418 1.391 . S
C423 C422 1.388 . S
P424 O435 1.490 . S
P424 C438 1.812 1_556 S
P424 C444 1.803 . S
P424 C450 1.819 . S
H425 C439 0.941 . S
H426 C440 0.939 . S
H427 C442 0.940 . S
H428 C443 0.940 . S
H429 C445 0.939 . S
H430 C446 0.942 . S
H431 C448 0.940 . S
H432 C449 0.939 . S
H433 C451 0.941 . S
H434 C455 0.939 . S
O435 P424 1.490 . S
H436 C452 0.939 . S
H437 C454 0.940 . S
C438 P424 1.812 1_554 S
C438 C439 1.389 . S
C438 C443 1.391 . S
C439 H425 0.941 . S
C439 C438 1.389 . S
C439 C440 1.397 . S
C440 H426 0.939 . S
C440 C439 1.397 . S
C440 C441 1.378 . S
C441 C440 1.378 . S
C441 C442 1.378 . S
C442 H427 0.940 . S
C442 C441 1.378 . S
C442 C443 1.396 . S
C443 H428 0.940 . S
C443 C438 1.391 . S
C443 C442 1.396 . S
C444 P424 1.803 . S
C444 C445 1.378 . S
C444 C449 1.400 . S
C445 H429 0.939 . S
C445 C444 1.378 . S
C445 C446 1.361 . S
C446 H430 0.942 . S
C446 C445 1.361 . S
C446 C447 1.369 . S
C447 C446 1.369 . S
C447 C448 1.404 . S
C448 H431 0.940 . S
C448 C447 1.404 . S
C448 C449 1.389 . S
C449 H432 0.939 . S
C449 C444 1.400 . S
C449 C448 1.389 . S
C450 P424 1.819 . S
C450 C451 1.391 1_556 S
C450 C455 1.391 . S
C451 H433 0.941 . S
C451 C450 1.391 1_554 S
C451 C452 1.396 . S
C452 H436 0.939 . S
C452 C451 1.396 . S
C452 C453 1.397 . S
C453 C452 1.397 . S
C453 C454 1.385 1_554 S
C454 H437 0.940 . S
C454 C453 1.385 1_556 S
C454 C455 1.388 . S
C455 H434 0.939 . S
C455 C450 1.391 . S
C455 C454 1.388 . S
P456 O467 1.490 . S
P456 C470 1.812 . S
P456 C476 1.803 . S
P456 C482 1.819 . S
H457 C471 0.941 . S
H458 C472 0.939 . S
H459 C474 0.940 . S
H460 C475 0.940 . S
H461 C477 0.939 . S
H462 C478 0.942 . S
H463 C480 0.940 . S
H464 C481 0.939 . S
H465 C483 0.941 . S
H466 C487 0.939 . S
O467 P456 1.490 . S
H468 C484 0.939 . S
H469 C486 0.940 . S
C470 P456 1.812 . S
C470 C471 1.389 . S
C470 C475 1.391 . S
C471 H457 0.941 . S
C471 C470 1.389 . S
C471 C472 1.397 . S
C472 H458 0.939 . S
C472 C471 1.397 . S
C472 C473 1.378 . S
C473 C472 1.378 . S
C473 C474 1.378 . S
C474 H459 0.940 . S
C474 C473 1.378 . S
C474 C475 1.396 . S
C475 H460 0.940 . S
C475 C470 1.391 . S
C475 C474 1.396 . S
C476 P456 1.803 . S
C476 C477 1.378 . S
C476 C481 1.400 . S
C477 H461 0.939 . S
C477 C476 1.378 . S
C477 C478 1.361 . S
C478 H462 0.942 . S
C478 C477 1.361 . S
C478 C479 1.369 . S
C479 C478 1.369 . S
C479 C480 1.404 . S
C480 H463 0.940 . S
C480 C479 1.404 . S
C480 C481 1.389 . S
C481 H464 0.939 . S
C481 C476 1.400 . S
C481 C480 1.389 . S
C482 P456 1.819 . S
C482 C483 1.391 . S
C482 C487 1.391 . S
C483 H465 0.941 . S
C483 C482 1.391 . S
C483 C484 1.396 . S
C484 H468 0.939 . S
C484 C483 1.396 . S
C484 C485 1.397 . S
C485 C484 1.397 . S
C485 C486 1.385 . S
C486 H469 0.940 . S
C486 C485 1.385 . S
C486 C487 1.388 . S
C487 H466 0.939 . S
C487 C482 1.391 . S
C487 C486 1.388 . S
P488 O499 1.490 . S
P488 C502 1.812 1_554 S
P488 C508 1.803 . S
P488 C514 1.819 . S
H489 C503 0.941 . S
H490 C504 0.939 . S
H491 C506 0.940 . S
H492 C507 0.940 . S
H493 C509 0.939 . S
H494 C510 0.942 . S
H495 C512 0.940 . S
H496 C513 0.939 . S
H497 C515 0.941 . S
H498 C519 0.939 . S
O499 P488 1.490 . S
H500 C516 0.939 . S
H501 C518 0.940 . S
C502 P488 1.812 1_556 S
C502 C503 1.389 . S
C502 C507 1.391 . S
C503 H489 0.941 . S
C503 C502 1.389 . S
C503 C504 1.397 . S
C504 H490 0.939 . S
C504 C503 1.397 . S
C504 C505 1.378 . S
C505 C504 1.378 . S
C505 C506 1.378 . S
C506 H491 0.940 . S
C506 C505 1.378 . S
C506 C507 1.396 . S
C507 H492 0.940 . S
C507 C502 1.391 . S
C507 C506 1.396 . S
C508 P488 1.803 . S
C508 C509 1.378 . S
C508 C513 1.400 . S
C509 H493 0.939 . S
C509 C508 1.378 . S
C509 C510 1.361 . S
C510 H494 0.942 . S
C510 C509 1.361 . S
C510 C511 1.369 . S
C511 C510 1.369 . S
C511 C512 1.404 . S
C512 H495 0.940 . S
C512 C511 1.404 . S
C512 C513 1.389 . S
C513 H496 0.939 . S
C513 C508 1.400 . S
C513 C512 1.389 . S
C514 P488 1.819 . S
C514 C515 1.391 1_554 S
C514 C519 1.391 . S
C515 H497 0.941 . S
C515 C514 1.391 1_556 S
C515 C516 1.396 . S
C516 H500 0.939 . S
C516 C515 1.396 . S
C516 C517 1.397 1_556 S
C517 C516 1.397 1_554 S
C517 C518 1.385 . S
C518 H501 0.940 . S
C518 C517 1.385 . S
C518 C519 1.388 . S
C519 H498 0.939 . S
C519 C514 1.391 . S
C519 C518 1.388 . S
P520 O531 1.490 . S
P520 C534 1.812 . S
P520 C540 1.803 . S
P520 C546 1.819 . S
H521 C535 0.941 . S
H522 C536 0.939 . S
H523 C538 0.940 . S
H524 C539 0.940 . S
H525 C541 0.939 . S
H526 C542 0.942 . S
H527 C544 0.940 . S
H528 C545 0.939 . S
H529 C547 0.941 . S
H530 C551 0.939 . S
O531 P520 1.490 . S
H532 C548 0.939 . S
H533 C550 0.940 . S
C534 P520 1.812 . S
C534 C535 1.389 . S
C534 C539 1.391 . S
C535 H521 0.941 . S
C535 C534 1.389 . S
C535 C536 1.397 . S
C536 H522 0.939 . S
C536 C535 1.397 . S
C536 C537 1.378 . S
C537 C536 1.378 . S
C537 C538 1.378 . S
C538 H523 0.940 . S
C538 C537 1.378 . S
C538 C539 1.396 . S
C539 H524 0.940 . S
C539 C534 1.391 . S
C539 C538 1.396 . S
C540 P520 1.803 . S
C540 C541 1.378 . S
C540 C545 1.400 . S
C541 H525 0.939 . S
C541 C540 1.378 . S
C541 C542 1.361 . S
C542 H526 0.942 . S
C542 C541 1.361 . S
C542 C543 1.369 . S
C543 C542 1.369 . S
C543 C544 1.404 . S
C544 H527 0.940 . S
C544 C543 1.404 . S
C544 C545 1.389 . S
C545 H528 0.939 . S
C545 C540 1.400 . S
C545 C544 1.389 . S
C546 P520 1.819 . S
C546 C547 1.391 . S
C546 C551 1.391 . S
C547 H529 0.941 . S
C547 C546 1.391 . S
C547 C548 1.396 . S
C548 H532 0.939 . S
C548 C547 1.396 . S
C548 C549 1.397 . S
C549 C548 1.397 . S
C549 C550 1.385 . S
C550 H533 0.940 . S
C550 C549 1.385 . S
C550 C551 1.388 . S
C551 H530 0.939 . S
C551 C546 1.391 . S
C551 C550 1.388 . S
P552 O563 1.490 . S
P552 C566 1.812 1_655 S
P552 C572 1.803 . S
P552 C578 1.819 . S
H553 C567 0.941 . S
H554 C568 0.939 . S
H555 C570 0.940 . S
H556 C571 0.940 . S
H557 C573 0.939 . S
H558 C574 0.942 . S
H559 C576 0.940 . S
H560 C577 0.939 . S
H561 C579 0.941 . S
H562 C583 0.939 . S
O563 P552 1.490 . S
H564 C580 0.939 . S
H565 C582 0.940 . S
C566 P552 1.812 1_455 S
C566 C567 1.389 . S
C566 C571 1.391 . S
C567 H553 0.941 . S
C567 C566 1.389 . S
C567 C568 1.397 . S
C568 H554 0.939 . S
C568 C567 1.397 . S
C568 C569 1.378 . S
C569 C568 1.378 . S
C569 C570 1.378 . S
C570 H555 0.940 . S
C570 C569 1.378 . S
C570 C571 1.396 . S
C571 H556 0.940 . S
C571 C566 1.391 . S
C571 C570 1.396 . S
C572 P552 1.803 . S
C572 C573 1.378 . S
C572 C577 1.400 . S
C573 H557 0.939 . S
C573 C572 1.378 . S
C573 C574 1.361 . S
C574 H558 0.942 . S
C574 C573 1.361 . S
C574 C575 1.369 . S
C575 C574 1.369 . S
C575 C576 1.404 . S
C576 H559 0.940 . S
C576 C575 1.404 . S
C576 C577 1.389 . S
C577 H560 0.939 . S
C577 C572 1.400 . S
C577 C576 1.389 . S
C578 P552 1.819 . S
C578 C579 1.391 1_655 S
C578 C583 1.391 . S
C579 H561 0.941 . S
C579 C578 1.391 1_455 S
C579 C580 1.396 . S
C580 H564 0.939 . S
C580 C579 1.396 . S
C580 C581 1.397 . S
C581 C580 1.397 . S
C581 C582 1.385 1_455 S
C582 H565 0.940 . S
C582 C581 1.385 1_655 S
C582 C583 1.388 . S
C583 H562 0.939 . S
C583 C578 1.391 . S
C583 C582 1.388 . S
P584 O595 1.490 . S
P584 C598 1.812 . S
P584 C604 1.803 . S
P584 C610 1.819 . S
H585 C599 0.941 . S
H586 C600 0.939 . S
H587 C602 0.940 . S
H588 C603 0.940 . S
H589 C605 0.939 . S
H590 C606 0.942 . S
H591 C608 0.940 . S
H592 C609 0.939 . S
H593 C611 0.941 . S
H594 C615 0.939 . S
O595 P584 1.490 . S
H596 C612 0.939 . S
H597 C614 0.940 . S
C598 P584 1.812 . S
C598 C599 1.389 . S
C598 C603 1.391 . S
C599 H585 0.941 . S
C599 C598 1.389 . S
C599 C600 1.397 . S
C600 H586 0.939 . S
C600 C599 1.397 . S
C600 C601 1.378 . S
C601 C600 1.378 . S
C601 C602 1.378 . S
C602 H587 0.940 . S
C602 C601 1.378 . S
C602 C603 1.396 . S
C603 H588 0.940 . S
C603 C598 1.391 . S
C603 C602 1.396 . S
C604 P584 1.803 . S
C604 C605 1.378 . S
C604 C609 1.400 . S
C605 H589 0.939 . S
C605 C604 1.378 . S
C605 C606 1.361 . S
C606 H590 0.942 . S
C606 C605 1.361 . S
C606 C607 1.369 . S
C607 C606 1.369 . S
C607 C608 1.404 . S
C608 H591 0.940 . S
C608 C607 1.404 . S
C608 C609 1.389 . S
C609 H592 0.939 . S
C609 C604 1.400 . S
C609 C608 1.389 . S
C610 P584 1.819 . S
C610 C611 1.391 . S
C610 C615 1.391 . S
C611 H593 0.941 . S
C611 C610 1.391 . S
C611 C612 1.396 . S
C612 H596 0.939 . S
C612 C611 1.396 . S
C612 C613 1.397 . S
C613 C612 1.397 . S
C613 C614 1.385 . S
C614 H597 0.940 . S
C614 C613 1.385 . S
C614 C615 1.388 . S
C615 H594 0.939 . S
C615 C610 1.391 . S
C615 C614 1.388 . S
P616 O627 1.490 . S
P616 C630 1.812 1_455 S
P616 C636 1.803 . S
P616 C642 1.819 . S
H617 C631 0.941 . S
H618 C632 0.939 . S
H619 C634 0.940 . S
H620 C635 0.940 . S
H621 C637 0.939 . S
H622 C638 0.942 . S
H623 C640 0.940 . S
H624 C641 0.939 . S
H625 C643 0.941 . S
H626 C647 0.939 . S
O627 P616 1.490 . S
H628 C644 0.939 . S
H629 C646 0.940 . S
C630 P616 1.812 1_655 S
C630 C631 1.389 . S
C630 C635 1.391 . S
C631 H617 0.941 . S
C631 C630 1.389 . S
C631 C632 1.397 . S
C632 H618 0.939 . S
C632 C631 1.397 . S
C632 C633 1.378 . S
C633 C632 1.378 . S
C633 C634 1.378 . S
C634 H619 0.940 . S
C634 C633 1.378 . S
C634 C635 1.396 . S
C635 H620 0.940 . S
C635 C630 1.391 . S
C635 C634 1.396 . S
C636 P616 1.803 . S
C636 C637 1.378 . S
C636 C641 1.400 . S
C637 H621 0.939 . S
C637 C636 1.378 . S
C637 C638 1.361 . S
C638 H622 0.942 . S
C638 C637 1.361 . S
C638 C639 1.369 . S
C639 C638 1.369 . S
C639 C640 1.404 . S
C640 H623 0.940 . S
C640 C639 1.404 . S
C640 C641 1.389 . S
C641 H624 0.939 . S
C641 C636 1.400 . S
C641 C640 1.389 . S
C642 P616 1.819 . S
C642 C643 1.391 1_455 S
C642 C647 1.391 . S
C643 H625 0.941 . S
C643 C642 1.391 1_655 S
C643 C644 1.396 . S
C644 H628 0.939 . S
C644 C643 1.396 . S
C644 C645 1.397 1_655 S
C645 C644 1.397 1_455 S
C645 C646 1.385 . S
C646 H629 0.940 . S
C646 C645 1.385 . S
C646 C647 1.388 . S
C647 H626 0.939 . S
C647 C642 1.391 . S
C647 C646 1.388 . S
P648 O659 1.490 . S
P648 C662 1.812 . S
P648 C668 1.803 . S
P648 C674 1.819 . S
H649 C663 0.941 . S
H650 C664 0.939 . S
H651 C666 0.940 . S
H652 C667 0.940 . S
H653 C669 0.939 . S
H654 C670 0.942 . S
H655 C672 0.940 . S
H656 C673 0.939 . S
H657 C675 0.941 . S
H658 C679 0.939 . S
O659 P648 1.490 . S
H660 C676 0.939 . S
H661 C678 0.940 . S
C662 P648 1.812 . S
C662 C663 1.389 . S
C662 C667 1.391 . S
C663 H649 0.941 . S
C663 C662 1.389 . S
C663 C664 1.397 . S
C664 H650 0.939 . S
C664 C663 1.397 . S
C664 C665 1.378 . S
C665 C664 1.378 . S
C665 C666 1.378 . S
C666 H651 0.940 . S
C666 C665 1.378 . S
C666 C667 1.396 . S
C667 H652 0.940 . S
C667 C662 1.391 . S
C667 C666 1.396 . S
C668 P648 1.803 . S
C668 C669 1.378 . S
C668 C673 1.400 . S
C669 H653 0.939 . S
C669 C668 1.378 . S
C669 C670 1.361 . S
C670 H654 0.942 . S
C670 C669 1.361 . S
C670 C671 1.369 . S
C671 C670 1.369 . S
C671 C672 1.404 . S
C672 H655 0.940 . S
C672 C671 1.404 . S
C672 C673 1.389 . S
C673 H656 0.939 . S
C673 C668 1.400 . S
C673 C672 1.389 . S
C674 P648 1.819 . S
C674 C675 1.391 . S
C674 C679 1.391 . S
C675 H657 0.941 . S
C675 C674 1.391 . S
C675 C676 1.396 . S
C676 H660 0.939 . S
C676 C675 1.396 . S
C676 C677 1.397 . S
C677 C676 1.397 . S
C677 C678 1.385 . S
C678 H661 0.940 . S
C678 C677 1.385 . S
C678 C679 1.388 . S
C679 H658 0.939 . S
C679 C674 1.391 . S
C679 C678 1.388 . S
P680 O691 1.490 . S
P680 C694 1.812 . S
P680 C700 1.803 . S
P680 C706 1.819 . S
H681 C695 0.941 . S
H682 C696 0.939 . S
H683 C698 0.940 . S
H684 C699 0.940 . S
H685 C701 0.939 . S
H686 C702 0.942 . S
H687 C704 0.940 . S
H688 C705 0.939 . S
H689 C707 0.941 . S
H690 C711 0.939 . S
O691 P680 1.490 . S
H692 C708 0.939 . S
H693 C710 0.940 . S
C694 P680 1.812 . S
C694 C695 1.389 . S
C694 C699 1.391 . S
C695 H681 0.941 . S
C695 C694 1.389 . S
C695 C696 1.397 . S
C696 H682 0.939 . S
C696 C695 1.397 . S
C696 C697 1.378 . S
C697 C696 1.378 . S
C697 C698 1.378 . S
C698 H683 0.940 . S
C698 C697 1.378 . S
C698 C699 1.396 . S
C699 H684 0.940 . S
C699 C694 1.391 . S
C699 C698 1.396 . S
C700 P680 1.803 . S
C700 C701 1.378 . S
C700 C705 1.400 . S
C701 H685 0.939 . S
C701 C700 1.378 . S
C701 C702 1.361 . S
C702 H686 0.942 . S
C702 C701 1.361 . S
C702 C703 1.369 . S
C703 C702 1.369 . S
C703 C704 1.404 . S
C704 H687 0.940 . S
C704 C703 1.404 . S
C704 C705 1.389 . S
C705 H688 0.939 . S
C705 C700 1.400 . S
C705 C704 1.389 . S
C706 P680 1.819 . S
C706 C707 1.391 . S
C706 C711 1.391 . S
C707 H689 0.941 . S
C707 C706 1.391 . S
C707 C708 1.396 . S
C708 H692 0.939 . S
C708 C707 1.396 . S
C708 C709 1.397 . S
C709 C708 1.397 . S
C709 C710 1.385 . S
C710 H693 0.940 . S
C710 C709 1.385 . S
C710 C711 1.388 . S
C711 H690 0.939 . S
C711 C706 1.391 . S
C711 C710 1.388 . S
P712 O723 1.491 . S
P712 C726 1.775 1_565 S
P712 C732 1.837 . S
P712 C738 1.820 . S
H713 C727 0.941 . S
H714 C728 0.939 . S
H715 C730 0.940 . S
H716 C731 0.940 . S
H717 C733 0.939 . S
H718 C734 0.942 . S
H719 C736 0.940 . S
H720 C737 0.939 . S
H721 C739 0.941 . S
H722 C743 0.939 . S
O723 P712 1.491 . S
H724 C740 0.939 . S
H725 C742 0.940 . S
C726 P712 1.775 1_545 S
C726 C727 1.389 . S
C726 C731 1.391 . S
C727 H713 0.941 . S
C727 C726 1.389 . S
C727 C728 1.397 . S
C728 H714 0.939 . S
C728 C727 1.397 . S
C728 C729 1.378 . S
C729 C728 1.378 . S
C729 C730 1.378 . S
C730 H715 0.940 . S
C730 C729 1.378 . S
C730 C731 1.396 . S
C731 H716 0.940 . S
C731 C726 1.391 . S
C731 C730 1.396 . S
C732 P712 1.837 . S
C732 C733 1.378 . S
C732 C737 1.400 . S
C733 H717 0.939 . S
C733 C732 1.378 . S
C733 C734 1.361 . S
C734 H718 0.942 . S
C734 C733 1.361 . S
C734 C735 1.369 . S
C735 C734 1.369 . S
C735 C736 1.404 . S
C736 H719 0.940 . S
C736 C735 1.404 . S
C736 C737 1.389 . S
C737 H720 0.939 . S
C737 C732 1.400 . S
C737 C736 1.389 . S
C738 P712 1.820 . S
C738 C739 1.391 1_565 S
C738 C743 1.391 . S
C739 H721 0.941 . S
C739 C738 1.391 1_545 S
C739 C740 1.396 . S
C740 H724 0.939 . S
C740 C739 1.396 . S
C740 C741 1.397 1_545 S
C741 C740 1.397 1_565 S
C741 C742 1.385 . S
C742 H725 0.940 . S
C742 C741 1.385 . S
C742 C743 1.388 . S
C743 H722 0.939 . S
C743 C738 1.391 . S
C743 C742 1.388 . S
P744 O755 1.490 . S
P744 C758 1.814 . S
P744 C764 1.801 1_565 S
P744 C770 1.818 1_565 S
H745 C759 0.941 . S
H746 C760 0.939 . S
H747 C762 0.940 . S
H748 C763 0.940 . S
H749 C765 0.939 . S
H750 C766 0.942 . S
H751 C768 0.940 . S
H752 C769 0.939 . S
H753 C771 0.941 . S
H754 C775 0.939 . S
O755 P744 1.490 . S
H756 C772 0.939 . S
H757 C774 0.940 . S
C758 P744 1.814 . S
C758 C759 1.389 . S
C758 C763 1.391 . S
C759 H745 0.941 . S
C759 C758 1.389 . S
C759 C760 1.397 . S
C760 H746 0.939 . S
C760 C759 1.397 . S
C760 C761 1.378 . S
C761 C760 1.378 . S
C761 C762 1.378 . S
C762 H747 0.940 . S
C762 C761 1.378 . S
C762 C763 1.396 . S
C763 H748 0.940 . S
C763 C758 1.391 . S
C763 C762 1.396 . S
C764 P744 1.801 1_545 S
C764 C765 1.378 . S
C764 C769 1.400 . S
C765 H749 0.939 . S
C765 C764 1.378 . S
C765 C766 1.361 . S
C766 H750 0.942 . S
C766 C765 1.361 . S
C766 C767 1.369 . S
C767 C766 1.369 . S
C767 C768 1.404 . S
C768 H751 0.940 . S
C768 C767 1.404 . S
C768 C769 1.389 . S
C769 H752 0.939 . S
C769 C764 1.400 . S
C769 C768 1.389 . S
C770 P744 1.818 1_545 S
C770 C771 1.387 1_545 S
C770 C775 1.396 . S
C771 H753 0.941 . S
C771 C770 1.387 1_565 S
C771 C772 1.396 . S
C772 H756 0.939 . S
C772 C771 1.396 . S
C772 C773 1.397 . S
C773 C772 1.397 . S
C773 C774 1.385 1_565 S
C774 H757 0.940 . S
C774 C773 1.385 1_545 S
C774 C775 1.388 . S
C775 H754 0.939 . S
C775 C770 1.396 . S
C775 C774 1.388 . S
P776 O787 1.490 . S
P776 C790 1.812 . S
P776 C796 1.803 . S
P776 C802 1.819 . S
H777 C791 0.941 . S
H778 C792 0.939 . S
H779 C794 0.940 . S
H780 C795 0.940 . S
H781 C797 0.939 . S
H782 C798 0.942 . S
H783 C800 0.940 . S
H784 C801 0.939 . S
H785 C803 0.941 . S
H786 C807 0.939 . S
O787 P776 1.490 . S
H788 C804 0.939 . S
H789 C806 0.940 . S
C790 P776 1.812 . S
C790 C791 1.389 . S
C790 C795 1.391 . S
C791 H777 0.941 . S
C791 C790 1.389 . S
C791 C792 1.397 . S
C792 H778 0.939 . S
C792 C791 1.397 . S
C792 C793 1.378 . S
C793 C792 1.378 . S
C793 C794 1.378 . S
C794 H779 0.940 . S
C794 C793 1.378 . S
C794 C795 1.396 . S
C795 H780 0.940 . S
C795 C790 1.391 . S
C795 C794 1.396 . S
C796 P776 1.803 . S
C796 C797 1.378 . S
C796 C801 1.400 . S
C797 H781 0.939 . S
C797 C796 1.378 . S
C797 C798 1.361 . S
C798 H782 0.942 . S
C798 C797 1.361 . S
C798 C799 1.369 . S
C799 C798 1.369 . S
C799 C800 1.404 . S
C800 H783 0.940 . S
C800 C799 1.404 . S
C800 C801 1.389 . S
C801 H784 0.939 . S
C801 C796 1.400 . S
C801 C800 1.389 . S
C802 P776 1.819 . S
C802 C803 1.391 . S
C802 C807 1.391 . S
C803 H785 0.941 . S
C803 C802 1.391 . S
C803 C804 1.396 . S
C804 H788 0.939 . S
C804 C803 1.396 . S
C804 C805 1.397 . S
C805 C804 1.397 . S
C805 C806 1.385 . S
C806 H789 0.940 . S
C806 C805 1.385 . S
C806 C807 1.388 . S
C807 H786 0.939 . S
C807 C802 1.391 . S
C807 C806 1.388 . S
P808 O819 1.490 . S
P808 C822 1.814 . S
P808 C828 1.801 1_556 S
P808 C834 1.818 1_556 S
H809 C823 0.941 . S
H810 C824 0.939 . S
H811 C826 0.940 . S
H812 C827 0.940 . S
H813 C829 0.939 . S
H814 C830 0.942 . S
H815 C832 0.940 . S
H816 C833 0.939 . S
H817 C835 0.941 . S
H818 C839 0.939 . S
O819 P808 1.490 . S
H820 C836 0.939 . S
H821 C838 0.940 . S
C822 P808 1.814 . S
C822 C823 1.389 . S
C822 C827 1.391 . S
C823 H809 0.941 . S
C823 C822 1.389 . S
C823 C824 1.397 . S
C824 H810 0.939 . S
C824 C823 1.397 . S
C824 C825 1.378 . S
C825 C824 1.378 . S
C825 C826 1.378 . S
C826 H811 0.940 . S
C826 C825 1.378 . S
C826 C827 1.396 . S
C827 H812 0.940 . S
C827 C822 1.391 . S
C827 C826 1.396 . S
C828 P808 1.801 1_554 S
C828 C829 1.378 . S
C828 C833 1.400 . S
C829 H813 0.939 . S
C829 C828 1.378 . S
C829 C830 1.361 . S
C830 H814 0.942 . S
C830 C829 1.361 . S
C830 C831 1.369 . S
C831 C830 1.369 . S
C831 C832 1.404 . S
C832 H815 0.940 . S
C832 C831 1.404 . S
C832 C833 1.389 . S
C833 H816 0.939 . S
C833 C828 1.400 . S
C833 C832 1.389 . S
C834 P808 1.818 1_554 S
C834 C835 1.387 1_554 S
C834 C839 1.396 . S
C835 H817 0.941 . S
C835 C834 1.387 1_556 S
C835 C836 1.396 . S
C836 H820 0.939 . S
C836 C835 1.396 . S
C836 C837 1.397 . S
C837 C836 1.397 . S
C837 C838 1.385 1_556 S
C838 H821 0.940 . S
C838 C837 1.385 1_554 S
C838 C839 1.388 . S
C839 H818 0.939 . S
C839 C834 1.396 . S
C839 C838 1.388 . S
P840 O851 1.490 . S
P840 C854 1.812 . S
P840 C860 1.803 . S
P840 C866 1.819 . S
H841 C855 0.941 . S
H842 C856 0.939 . S
H843 C858 0.940 . S
H844 C859 0.940 . S
H845 C861 0.939 . S
H846 C862 0.942 . S
H847 C864 0.940 . S
H848 C865 0.939 . S
H849 C867 0.941 . S
H850 C871 0.939 . S
O851 P840 1.490 . S
H852 C868 0.939 . S
H853 C870 0.940 . S
C854 P840 1.812 . S
C854 C855 1.389 . S
C854 C859 1.391 . S
C855 H841 0.941 . S
C855 C854 1.389 . S
C855 C856 1.397 . S
C856 H842 0.939 . S
C856 C855 1.397 . S
C856 C857 1.378 . S
C857 C856 1.378 . S
C857 C858 1.378 . S
C858 H843 0.940 . S
C858 C857 1.378 . S
C858 C859 1.396 . S
C859 H844 0.940 . S
C859 C854 1.391 . S
C859 C858 1.396 . S
C860 P840 1.803 . S
C860 C861 1.378 . S
C860 C865 1.400 . S
C861 H845 0.939 . S
C861 C860 1.378 . S
C861 C862 1.361 . S
C862 H846 0.942 . S
C862 C861 1.361 . S
C862 C863 1.369 . S
C863 C862 1.369 . S
C863 C864 1.404 . S
C864 H847 0.940 . S
C864 C863 1.404 . S
C864 C865 1.389 . S
C865 H848 0.939 . S
C865 C860 1.400 . S
C865 C864 1.389 . S
C866 P840 1.819 . S
C866 C867 1.391 . S
C866 C871 1.391 . S
C867 H849 0.941 . S
C867 C866 1.391 . S
C867 C868 1.396 . S
C868 H852 0.939 . S
C868 C867 1.396 . S
C868 C869 1.397 . S
C869 C868 1.397 . S
C869 C870 1.385 . S
C870 H853 0.940 . S
C870 C869 1.385 . S
C870 C871 1.388 . S
C871 H850 0.939 . S
C871 C866 1.391 . S
C871 C870 1.388 . S
P872 O883 1.491 . S
P872 C886 1.775 1_556 S
P872 C892 1.837 . S
P872 C898 1.820 . S
H873 C887 0.941 . S
H874 C888 0.939 . S
H875 C890 0.940 . S
H876 C891 0.940 . S
H877 C893 0.939 . S
H878 C894 0.942 . S
H879 C896 0.940 . S
H880 C897 0.939 . S
H881 C899 0.941 . S
H882 C903 0.939 . S
O883 P872 1.491 . S
H884 C900 0.939 . S
H885 C902 0.940 . S
C886 P872 1.775 1_554 S
C886 C887 1.389 . S
C886 C891 1.391 . S
C887 H873 0.941 . S
C887 C886 1.389 . S
C887 C888 1.397 . S
C888 H874 0.939 . S
C888 C887 1.397 . S
C888 C889 1.378 . S
C889 C888 1.378 . S
C889 C890 1.378 . S
C890 H875 0.940 . S
C890 C889 1.378 . S
C890 C891 1.396 . S
C891 H876 0.940 . S
C891 C886 1.391 . S
C891 C890 1.396 . S
C892 P872 1.837 . S
C892 C893 1.378 . S
C892 C897 1.400 . S
C893 H877 0.939 . S
C893 C892 1.378 . S
C893 C894 1.361 . S
C894 H878 0.942 . S
C894 C893 1.361 . S
C894 C895 1.369 . S
C895 C894 1.369 . S
C895 C896 1.404 . S
C896 H879 0.940 . S
C896 C895 1.404 . S
C896 C897 1.389 . S
C897 H880 0.939 . S
C897 C892 1.400 . S
C897 C896 1.389 . S
C898 P872 1.820 . S
C898 C899 1.391 1_556 S
C898 C903 1.391 . S
C899 H881 0.941 . S
C899 C898 1.391 1_554 S
C899 C900 1.396 . S
C900 H884 0.939 . S
C900 C899 1.396 . S
C900 C901 1.397 1_554 S
C901 C900 1.397 1_556 S
C901 C902 1.385 . S
C902 H885 0.940 . S
C902 C901 1.385 . S
C902 C903 1.388 . S
C903 H882 0.939 . S
C903 C898 1.391 . S
C903 C902 1.388 . S
P904 O915 1.490 . S
P904 C918 1.812 . S
P904 C924 1.803 . S
P904 C930 1.819 . S
H905 C919 0.941 . S
H906 C920 0.939 . S
H907 C922 0.940 . S
H908 C923 0.940 . S
H909 C925 0.939 . S
H910 C926 0.942 . S
H911 C928 0.940 . S
H912 C929 0.939 . S
H913 C931 0.941 . S
H914 C935 0.939 . S
O915 P904 1.490 . S
H916 C932 0.939 . S
H917 C934 0.940 . S
C918 P904 1.812 . S
C918 C919 1.389 . S
C918 C923 1.391 . S
C919 H905 0.941 . S
C919 C918 1.389 . S
C919 C920 1.397 . S
C920 H906 0.939 . S
C920 C919 1.397 . S
C920 C921 1.378 . S
C921 C920 1.378 . S
C921 C922 1.378 . S
C922 H907 0.940 . S
C922 C921 1.378 . S
C922 C923 1.396 . S
C923 H908 0.940 . S
C923 C918 1.391 . S
C923 C922 1.396 . S
C924 P904 1.803 . S
C924 C925 1.378 . S
C924 C929 1.400 . S
C925 H909 0.939 . S
C925 C924 1.378 . S
C925 C926 1.361 . S
C926 H910 0.942 . S
C926 C925 1.361 . S
C926 C927 1.369 . S
C927 C926 1.369 . S
C927 C928 1.404 . S
C928 H911 0.940 . S
C928 C927 1.404 . S
C928 C929 1.389 . S
C929 H912 0.939 . S
C929 C924 1.400 . S
C929 C928 1.389 . S
C930 P904 1.819 . S
C930 C931 1.391 . S
C930 C935 1.391 . S
C931 H913 0.941 . S
C931 C930 1.391 . S
C931 C932 1.396 . S
C932 H916 0.939 . S
C932 C931 1.396 . S
C932 C933 1.397 . S
C933 C932 1.397 . S
C933 C934 1.385 . S
C934 H917 0.940 . S
C934 C933 1.385 . S
C934 C935 1.388 . S
C935 H914 0.939 . S
C935 C930 1.391 . S
C935 C934 1.388 . S
P936 O947 1.490 . S
P936 C950 1.814 . S
P936 C956 1.801 1_655 S
P936 C962 1.818 1_655 S
H937 C951 0.941 . S
H938 C952 0.939 . S
H939 C954 0.940 . S
H940 C955 0.940 . S
H941 C957 0.939 . S
H942 C958 0.942 . S
H943 C960 0.940 . S
H944 C961 0.939 . S
H945 C963 0.941 . S
H946 C967 0.939 . S
O947 P936 1.490 . S
H948 C964 0.939 . S
H949 C966 0.940 . S
C950 P936 1.814 . S
C950 C951 1.389 . S
C950 C955 1.391 . S
C951 H937 0.941 . S
C951 C950 1.389 . S
C951 C952 1.397 . S
C952 H938 0.939 . S
C952 C951 1.397 . S
C952 C953 1.378 . S
C953 C952 1.378 . S
C953 C954 1.378 . S
C954 H939 0.940 . S
C954 C953 1.378 . S
C954 C955 1.396 . S
C955 H940 0.940 . S
C955 C950 1.391 . S
C955 C954 1.396 . S
C956 P936 1.801 1_455 S
C956 C957 1.378 . S
C956 C961 1.400 . S
C957 H941 0.939 . S
C957 C956 1.378 . S
C957 C958 1.361 . S
C958 H942 0.942 . S
C958 C957 1.361 . S
C958 C959 1.369 . S
C959 C958 1.369 . S
C959 C960 1.404 . S
C960 H943 0.940 . S
C960 C959 1.404 . S
C960 C961 1.389 . S
C961 H944 0.939 . S
C961 C956 1.400 . S
C961 C960 1.389 . S
C962 P936 1.818 1_455 S
C962 C963 1.387 1_455 S
C962 C967 1.396 . S
C963 H945 0.941 . S
C963 C962 1.387 1_655 S
C963 C964 1.396 . S
C964 H948 0.939 . S
C964 C963 1.396 . S
C964 C965 1.397 . S
C965 C964 1.397 . S
C965 C966 1.385 1_655 S
C966 H949 0.940 . S
C966 C965 1.385 1_455 S
C966 C967 1.388 . S
C967 H946 0.939 . S
C967 C962 1.396 . S
C967 C966 1.388 . S
P968 O979 1.490 . S
P968 C982 1.812 . S
P968 C988 1.803 . S
P968 C994 1.819 . S
H969 C983 0.941 . S
H970 C984 0.939 . S
H971 C986 0.940 . S
H972 C987 0.940 . S
H973 C989 0.939 . S
H974 C990 0.942 . S
H975 C992 0.940 . S
H976 C993 0.939 . S
H977 C995 0.941 . S
H978 C999 0.939 . S
O979 P968 1.490 . S
H980 C996 0.939 . S
H981 C998 0.940 . S
C982 P968 1.812 . S
C982 C983 1.389 . S
C982 C987 1.391 . S
C983 H969 0.941 . S
C983 C982 1.389 . S
C983 C984 1.397 . S
C984 H970 0.939 . S
C984 C983 1.397 . S
C984 C985 1.378 . S
C985 C984 1.378 . S
C985 C986 1.378 . S
C986 H971 0.940 . S
C986 C985 1.378 . S
C986 C987 1.396 . S
C987 H972 0.940 . S
C987 C982 1.391 . S
C987 C986 1.396 . S
C988 P968 1.803 . S
C988 C989 1.378 . S
C988 C993 1.400 . S
C989 H973 0.939 . S
C989 C988 1.378 . S
C989 C990 1.361 . S
C990 H974 0.942 . S
C990 C989 1.361 . S
C990 C991 1.369 . S
C991 C990 1.369 . S
C991 C992 1.404 . S
C992 H975 0.940 . S
C992 C991 1.404 . S
C992 C993 1.389 . S
C993 H976 0.939 . S
C993 C988 1.400 . S
C993 C992 1.389 . S
C994 P968 1.819 . S
C994 C995 1.391 . S
C994 C999 1.391 . S
C995 H977 0.941 . S
C995 C994 1.391 . S
C995 C996 1.396 . S
C996 H980 0.939 . S
C996 C995 1.396 . S
C996 C997 1.397 . S
C997 C996 1.397 . S
C997 C998 1.385 . S
C998 H981 0.940 . S
C998 C997 1.385 . S
C998 C999 1.388 . S
C999 H978 0.939 . S
C999 C994 1.391 . S
C999 C998 1.388 . S
P1000 O1011 1.491 . S
P1000 C1014 1.775 1_655 S
P1000 C1020 1.837 . S
P1000 C1026 1.820 . S
H1001 C1015 0.941 . S
H1002 C1016 0.939 . S
H1003 C1018 0.940 . S
H1004 C1019 0.940 . S
H1005 C1021 0.939 . S
H1006 C1022 0.942 . S
H1007 C1024 0.940 . S
H1008 C1025 0.939 . S
H1009 C1027 0.941 . S
H1010 C1031 0.939 . S
O1011 P1000 1.491 . S
H1012 C1028 0.939 . S
H1013 C1030 0.940 . S
C1014 P1000 1.775 1_455 S
C1014 C1015 1.389 . S
C1014 C1019 1.391 . S
C1015 H1001 0.941 . S
C1015 C1014 1.389 . S
C1015 C1016 1.397 . S
C1016 H1002 0.939 . S
C1016 C1015 1.397 . S
C1016 C1017 1.378 . S
C1017 C1016 1.378 . S
C1017 C1018 1.378 . S
C1018 H1003 0.940 . S
C1018 C1017 1.378 . S
C1018 C1019 1.396 . S
C1019 H1004 0.940 . S
C1019 C1014 1.391 . S
C1019 C1018 1.396 . S
C1020 P1000 1.837 . S
C1020 C1021 1.378 . S
C1020 C1025 1.400 . S
C1021 H1005 0.939 . S
C1021 C1020 1.378 . S
C1021 C1022 1.361 . S
C1022 H1006 0.942 . S
C1022 C1021 1.361 . S
C1022 C1023 1.369 . S
C1023 C1022 1.369 . S
C1023 C1024 1.404 . S
C1024 H1007 0.940 . S
C1024 C1023 1.404 . S
C1024 C1025 1.389 . S
C1025 H1008 0.939 . S
C1025 C1020 1.400 . S
C1025 C1024 1.389 . S
C1026 P1000 1.820 . S
C1026 C1027 1.391 1_655 S
C1026 C1031 1.391 . S
C1027 H1009 0.941 . S
C1027 C1026 1.391 1_455 S
C1027 C1028 1.396 . S
C1028 H1012 0.939 . S
C1028 C1027 1.396 . S
C1028 C1029 1.397 1_455 S
C1029 C1028 1.397 1_655 S
C1029 C1030 1.385 . S
C1030 H1013 0.940 . S
C1030 C1029 1.385 . S
C1030 C1031 1.388 . S
C1031 H1010 0.939 . S
C1031 C1026 1.391 . S
C1031 C1030 1.388 . S
C1032 C1033 1.387 . S
C1032 H1036 0.950 . S
C1032 C1041 1.390 . S
C1033 C1032 1.387 . S
C1033 C1035 1.387 . S
H1034 C1041 0.950 . S
C1035 C1033 1.387 . S
C1035 C1037 1.390 . S
C1035 H1039 0.950 . S
H1036 C1032 0.950 . S
C1037 C1035 1.390 . S
C1037 C1038 1.387 . S
C1037 H1040 0.950 . S
C1038 C1037 1.387 . S
C1038 C1041 1.387 . S
H1039 C1035 0.950 . S
H1040 C1037 0.950 . S
C1041 C1032 1.390 . S
C1041 H1034 0.950 . S
C1041 C1038 1.387 . S
C1042 C1043 1.387 . S
C1042 H1046 0.950 . S
C1042 C1051 1.390 . S
C1043 C1042 1.387 . S
C1043 C1045 1.387 . S
H1044 C1051 0.950 . S
C1045 C1043 1.387 . S
C1045 C1047 1.390 . S
C1045 H1049 0.950 . S
H1046 C1042 0.950 . S
C1047 C1045 1.390 . S
C1047 C1048 1.387 . S
C1047 H1050 0.950 . S
C1048 C1047 1.387 . S
C1048 C1051 1.387 . S
H1049 C1045 0.950 . S
H1050 C1047 0.950 . S
C1051 C1042 1.390 . S
C1051 H1044 0.950 . S
C1051 C1048 1.387 . S
C1052 C1053 1.387 . S
C1052 H1056 0.950 . S
C1052 C1061 1.390 . S
C1053 C1052 1.387 . S
C1053 C1055 1.387 . S
H1054 C1061 0.950 . S
C1055 C1053 1.387 . S
C1055 C1057 1.390 . S
C1055 H1059 0.950 1_545 S
H1056 C1052 0.950 . S
C1057 C1055 1.390 . S
C1057 C1058 1.387 . S
C1057 H1060 0.933 1_545 S
C1058 C1057 1.387 . S
C1058 C1061 1.387 . S
H1059 C1055 0.950 1_565 S
H1060 C1057 0.933 1_565 S
C1061 C1052 1.390 . S
C1061 H1054 0.950 . S
C1061 C1058 1.387 . S
C1062 C1063 1.367 1_545 S
C1062 H1066 0.981 . S
C1062 C1071 1.380 1_545 S
C1063 C1062 1.367 1_565 S
C1063 C1065 1.387 . S
H1064 C1071 0.950 1_545 S
C1065 C1063 1.387 . S
C1065 C1067 1.390 . S
C1065 H1069 0.950 . S
H1066 C1062 0.981 . S
C1067 C1065 1.390 . S
C1067 C1068 1.387 . S
C1067 H1070 0.950 . S
C1068 C1067 1.387 . S
C1068 C1071 1.387 . S
H1069 C1065 0.950 . S
H1070 C1067 0.950 . S
C1071 C1062 1.380 1_565 S
C1071 H1064 0.950 1_565 S
C1071 C1068 1.387 . S
C1072 C1073 1.387 . S
C1072 H1076 0.950 . S
C1072 C1081 1.390 . S
C1073 C1072 1.387 . S
C1073 C1075 1.387 . S
H1074 C1081 0.950 . S
C1075 C1073 1.387 . S
C1075 C1077 1.390 . S
C1075 H1079 0.950 . S
H1076 C1072 0.950 . S
C1077 C1075 1.390 . S
C1077 C1078 1.387 . S
C1077 H1080 0.950 . S
C1078 C1077 1.387 . S
C1078 C1081 1.387 . S
H1079 C1075 0.950 . S
H1080 C1077 0.950 . S
C1081 C1072 1.390 . S
C1081 H1074 0.950 . S
C1081 C1078 1.387 . S
C1082 C1083 1.387 . S
C1082 H1086 0.950 1_556 S
C1082 C1091 1.390 . S
C1083 C1082 1.387 . S
C1083 C1085 1.387 . S
H1084 C1091 0.939 1_554 S
C1085 C1083 1.387 . S
C1085 C1087 1.390 . S
C1085 H1089 0.950 . S
H1086 C1082 0.950 1_554 S
C1087 C1085 1.390 . S
C1087 C1088 1.387 . S
C1087 H1090 0.950 . S
C1088 C1087 1.387 . S
C1088 C1091 1.387 . S
H1089 C1085 0.950 . S
H1090 C1087 0.950 . S
C1091 C1082 1.390 . S
C1091 H1084 0.939 1_556 S
C1091 C1088 1.387 . S
C1092 C1093 1.387 . S
C1092 H1096 0.950 . S
C1092 C1101 1.390 . S
C1093 C1092 1.387 . S
C1093 C1095 1.387 . S
H1094 C1101 0.950 . S
C1095 C1093 1.387 . S
C1095 C1097 1.390 . S
C1095 H1099 0.950 . S
H1096 C1092 0.950 . S
C1097 C1095 1.390 . S
C1097 C1098 1.387 . S
C1097 H1100 0.950 . S
C1098 C1097 1.387 . S
C1098 C1101 1.387 . S
H1099 C1095 0.950 . S
H1100 C1097 0.950 . S
C1101 C1092 1.390 . S
C1101 H1094 0.950 . S
C1101 C1098 1.387 . S
C1102 C1103 1.387 . S
C1102 H1106 0.950 . S
C1102 C1111 1.390 . S
C1103 C1102 1.387 . S
C1103 C1105 1.387 1_554 S
H1104 C1111 0.950 . S
C1105 C1103 1.387 1_556 S
C1105 C1107 1.390 . S
C1105 H1109 0.950 . S
H1106 C1102 0.950 . S
C1107 C1105 1.390 . S
C1107 C1108 1.387 1_556 S
C1107 H1110 0.950 . S
C1108 C1107 1.387 1_554 S
C1108 C1111 1.387 . S
H1109 C1105 0.950 . S
H1110 C1107 0.950 . S
C1111 C1102 1.390 . S
C1111 H1104 0.950 . S
C1111 C1108 1.387 . S
C1112 C1113 1.387 . S
C1112 H1116 0.950 . S
C1112 C1121 1.390 . S
C1113 C1112 1.387 . S
C1113 C1115 1.387 . S
H1114 C1121 0.950 . S
C1115 C1113 1.387 . S
C1115 C1117 1.390 . S
C1115 H1119 0.950 . S
H1116 C1112 0.950 . S
C1117 C1115 1.390 . S
C1117 C1118 1.387 . S
C1117 H1120 0.950 . S
C1118 C1117 1.387 . S
C1118 C1121 1.387 . S
H1119 C1115 0.950 . S
H1120 C1117 0.950 . S
C1121 C1112 1.390 . S
C1121 H1114 0.950 . S
C1121 C1118 1.387 . S
C1122 C1123 1.387 . S
C1122 H1126 0.950 . S
C1122 C1131 1.390 . S
C1123 C1122 1.387 . S
C1123 C1125 1.387 . S
H1124 C1131 0.950 . S
C1125 C1123 1.387 . S
C1125 C1127 1.390 . S
C1125 H1129 0.950 . S
H1126 C1122 0.950 . S
C1127 C1125 1.390 . S
C1127 C1128 1.387 . S
C1127 H1130 0.950 . S
C1128 C1127 1.387 . S
C1128 C1131 1.387 . S
H1129 C1125 0.950 . S
H1130 C1127 0.950 . S
C1131 C1122 1.390 . S
C1131 H1124 0.950 . S
C1131 C1128 1.387 . S
C1132 C1133 1.387 . S
C1132 H1136 0.950 . S
C1132 C1141 1.390 . S
C1133 C1132 1.387 . S
C1133 C1135 1.387 . S
H1134 C1141 0.950 . S
C1135 C1133 1.387 . S
C1135 C1137 1.390 . S
C1135 H1139 0.950 . S
H1136 C1132 0.950 . S
C1137 C1135 1.390 . S
C1137 C1138 1.387 . S
C1137 H1140 0.950 . S
C1138 C1137 1.387 . S
C1138 C1141 1.387 . S
H1139 C1135 0.950 . S
H1140 C1137 0.950 . S
C1141 C1132 1.390 . S
C1141 H1134 0.950 . S
C1141 C1138 1.387 . S
C1142 C1143 1.387 . S
C1142 H1146 0.950 . S
C1142 C1151 1.390 . S
C1143 C1142 1.387 . S
C1143 C1145 1.387 . S
H1144 C1151 0.950 . S
C1145 C1143 1.387 . S
C1145 C1147 1.390 . S
C1145 H1149 0.950 . S
H1146 C1142 0.950 . S
C1147 C1145 1.390 . S
C1147 C1148 1.387 . S
C1147 H1150 0.950 . S
C1148 C1147 1.387 . S
C1148 C1151 1.387 . S
H1149 C1145 0.950 . S
H1150 C1147 0.950 . S
C1151 C1142 1.390 . S
C1151 H1144 0.950 . S
C1151 C1148 1.387 . S
C1152 C1153 1.387 . S
C1152 H1156 0.950 . S
C1152 C1161 1.390 . S
C1153 C1152 1.387 . S
C1153 C1155 1.387 . S
H1154 C1161 0.950 . S
C1155 C1153 1.387 . S
C1155 C1157 1.390 . S
C1155 H1159 0.950 . S
H1156 C1152 0.950 . S
C1157 C1155 1.390 . S
C1157 C1158 1.387 . S
C1157 H1160 0.950 . S
C1158 C1157 1.387 . S
C1158 C1161 1.387 . S
H1159 C1155 0.950 . S
H1160 C1157 0.950 . S
C1161 C1152 1.390 . S
C1161 H1154 0.950 . S
C1161 C1158 1.387 . S
C1162 C1163 1.387 . S
C1162 H1166 0.950 . S
C1162 C1171 1.390 . S
C1163 C1162 1.387 . S
C1163 C1165 1.387 . S
H1164 C1171 0.950 . S
C1165 C1163 1.387 . S
C1165 C1167 1.390 . S
C1165 H1169 0.950 . S
H1166 C1162 0.950 . S
C1167 C1165 1.390 . S
C1167 C1168 1.387 . S
C1167 H1170 0.950 . S
C1168 C1167 1.387 . S
C1168 C1171 1.387 . S
H1169 C1165 0.950 . S
H1170 C1167 0.950 . S
C1171 C1162 1.390 . S
C1171 H1164 0.950 . S
C1171 C1168 1.387 . S
C1172 C1173 1.387 . S
C1172 H1176 0.950 . S
C1172 C1181 1.390 . S
C1173 C1172 1.387 . S
C1173 C1175 1.387 . S
H1174 C1181 0.950 . S
C1175 C1173 1.387 . S
C1175 C1177 1.390 . S
C1175 H1179 0.950 1_565 S
H1176 C1172 0.950 . S
C1177 C1175 1.390 . S
C1177 C1178 1.387 . S
C1177 H1180 0.950 1_565 S
C1178 C1177 1.387 . S
C1178 C1181 1.387 . S
H1179 C1175 0.950 1_545 S
H1180 C1177 0.950 1_545 S
C1181 C1172 1.390 . S
C1181 H1174 0.950 . S
C1181 C1178 1.387 . S
C1182 C1183 1.387 . S
C1182 H1186 0.950 1_545 S
C1182 C1191 1.390 . S
C1183 C1182 1.387 . S
C1183 C1185 1.387 . S
H1184 C1191 0.950 . S
C1185 C1183 1.387 . S
C1185 C1187 1.390 . S
C1185 H1189 0.950 . S
H1186 C1182 0.950 1_565 S
C1187 C1185 1.390 . S
C1187 C1188 1.387 . S
C1187 H1190 0.950 . S
C1188 C1187 1.387 . S
C1188 C1191 1.387 . S
H1189 C1185 0.950 . S
H1190 C1187 0.950 . S
C1191 C1182 1.390 . S
C1191 H1184 0.950 . S
C1191 C1188 1.387 . S
C1192 C1193 1.387 . S
C1192 H1196 0.950 . S
C1192 C1201 1.390 . S
C1193 C1192 1.387 . S
C1193 C1195 1.387 . S
H1194 C1201 0.950 . S
C1195 C1193 1.387 . S
C1195 C1197 1.390 . S
C1195 H1199 0.950 . S
H1196 C1192 0.950 . S
C1197 C1195 1.390 . S
C1197 C1198 1.387 . S
C1197 H1200 0.950 . S
C1198 C1197 1.387 . S
C1198 C1201 1.387 . S
H1199 C1195 0.950 . S
H1200 C1197 0.950 . S
C1201 C1192 1.390 . S
C1201 H1194 0.950 . S
C1201 C1198 1.387 . S
C1202 C1203 1.387 . S
C1202 H1206 0.950 . S
C1202 C1211 1.390 . S
C1203 C1202 1.387 . S
C1203 C1205 1.387 . S
H1204 C1211 0.950 . S
C1205 C1203 1.387 . S
C1205 C1207 1.390 . S
C1205 H1209 0.955 . S
H1206 C1202 0.950 . S
C1207 C1205 1.390 . S
C1207 C1208 1.387 . S
C1207 H1210 0.950 . S
C1208 C1207 1.387 . S
C1208 C1211 1.387 . S
H1209 C1205 0.955 . S
H1210 C1207 0.950 . S
C1211 C1202 1.390 . S
C1211 H1204 0.950 . S
C1211 C1208 1.387 . S
C1212 C1213 1.387 . S
C1212 H1216 0.950 . S
C1212 C1221 1.390 . S
C1213 C1212 1.387 . S
C1213 C1215 1.387 . S
H1214 C1221 0.950 . S
C1215 C1213 1.387 . S
C1215 C1217 1.390 . S
C1215 H1219 0.950 . S
H1216 C1212 0.950 . S
C1217 C1215 1.390 . S
C1217 C1218 1.387 . S
C1217 H1220 0.950 . S
C1218 C1217 1.387 . S
C1218 C1221 1.387 . S
H1219 C1215 0.950 . S
H1220 C1217 0.950 . S
C1221 C1212 1.390 . S
C1221 H1214 0.950 . S
C1221 C1218 1.387 . S
C1222 C1223 1.387 1_554 S
C1222 H1226 0.950 . S
C1222 C1231 1.390 . S
C1223 C1222 1.387 1_556 S
C1223 C1225 1.387 . S
H1224 C1231 0.950 . S
C1225 C1223 1.387 . S
C1225 C1227 1.390 . S
C1225 H1229 0.950 . S
H1226 C1222 0.950 . S
C1227 C1225 1.390 . S
C1227 C1228 1.387 . S
C1227 H1230 0.950 . S
C1228 C1227 1.387 . S
C1228 C1231 1.387 1_556 S
H1229 C1225 0.950 . S
H1230 C1227 0.950 . S
C1231 C1222 1.390 . S
C1231 H1224 0.950 . S
C1231 C1228 1.387 1_554 S
C1232 C1233 1.387 . S
C1232 H1236 0.950 . S
C1232 C1241 1.390 . S
C1233 C1232 1.387 . S
C1233 C1235 1.387 . S
H1234 C1241 0.950 . S
C1235 C1233 1.387 . S
C1235 C1237 1.390 . S
C1235 H1239 0.950 . S
H1236 C1232 0.950 . S
C1237 C1235 1.390 . S
C1237 C1238 1.387 . S
C1237 H1240 0.950 . S
C1238 C1237 1.387 . S
C1238 C1241 1.387 . S
H1239 C1235 0.950 . S
H1240 C1237 0.950 . S
C1241 C1232 1.390 . S
C1241 H1234 0.950 . S
C1241 C1238 1.387 . S
C1242 C1243 1.387 . S
C1242 H1246 0.950 . S
C1242 C1251 1.390 . S
C1243 C1242 1.387 . S
C1243 C1245 1.387 . S
H1244 C1251 0.950 . S
C1245 C1243 1.387 . S
C1245 C1247 1.390 . S
C1245 H1249 0.950 . S
H1246 C1242 0.950 . S
C1247 C1245 1.390 . S
C1247 C1248 1.387 . S
C1247 H1250 0.950 . S
C1248 C1247 1.387 . S
C1248 C1251 1.387 . S
H1249 C1245 0.950 . S
H1250 C1247 0.950 . S
C1251 C1242 1.390 . S
C1251 H1244 0.950 . S
C1251 C1248 1.387 . S
C1252 C1253 1.387 . S
C1252 H1256 0.950 . S
C1252 C1261 1.390 . S
C1253 C1252 1.387 . S
C1253 C1255 1.387 . S
H1254 C1261 0.950 . S
C1255 C1253 1.387 . S
C1255 C1257 1.390 . S
C1255 H1259 0.950 . S
H1256 C1252 0.950 . S
C1257 C1255 1.390 . S
C1257 C1258 1.387 . S
C1257 H1260 0.950 . S
C1258 C1257 1.387 . S
C1258 C1261 1.387 . S
H1259 C1255 0.950 . S
H1260 C1257 0.950 . S
C1261 C1252 1.390 . S
C1261 H1254 0.950 . S
C1261 C1258 1.387 . S
C1262 C1263 1.387 . S
C1262 H1266 0.950 . S
C1262 C1271 1.390 . S
C1263 C1262 1.387 . S
C1263 C1265 1.387 . S
H1264 C1271 0.950 . S
C1265 C1263 1.387 . S
C1265 C1267 1.390 . S
C1265 H1269 0.950 . S
H1266 C1262 0.950 . S
C1267 C1265 1.390 . S
C1267 C1268 1.387 . S
C1267 H1270 0.950 . S
C1268 C1267 1.387 . S
C1268 C1271 1.387 . S
H1269 C1265 0.950 . S
H1270 C1267 0.950 . S
C1271 C1262 1.390 . S
C1271 H1264 0.950 . S
C1271 C1268 1.387 . S
C1272 C1273 1.387 . S
C1272 H1276 0.950 . S
C1272 C1281 1.390 . S
C1273 C1272 1.387 . S
C1273 C1275 1.387 . S
H1274 C1281 0.950 . S
C1275 C1273 1.387 . S
C1275 C1277 1.390 . S
C1275 H1279 0.950 . S
H1276 C1272 0.950 . S
C1277 C1275 1.390 . S
C1277 C1278 1.387 . S
C1277 H1280 0.950 . S
C1278 C1277 1.387 . S
C1278 C1281 1.387 . S
H1279 C1275 0.950 . S
H1280 C1277 0.950 . S
C1281 C1272 1.390 . S
C1281 H1274 0.950 . S
C1281 C1278 1.387 . S
C1282 C1283 1.387 . S
C1282 H1286 0.950 . S
C1282 C1291 1.390 . S
C1283 C1282 1.387 . S
C1283 C1285 1.387 . S
H1284 C1291 0.950 . S
C1285 C1283 1.387 . S
C1285 C1287 1.390 . S
C1285 H1289 0.950 . S
H1286 C1282 0.950 . S
C1287 C1285 1.390 . S
C1287 C1288 1.387 . S
C1287 H1290 0.950 . S
C1288 C1287 1.387 . S
C1288 C1291 1.387 . S
H1289 C1285 0.950 . S
H1290 C1287 0.950 . S
C1291 C1282 1.390 . S
C1291 H1284 0.950 . S
C1291 C1288 1.387 . S
C1292 C1293 1.387 1_545 S
C1292 H1296 0.950 . S
C1292 C1301 1.390 . S
C1293 C1292 1.387 1_565 S
C1293 C1295 1.387 . S
H1294 C1301 0.950 . S
C1295 C1293 1.387 . S
C1295 C1297 1.390 . S
C1295 H1299 0.950 . S
H1296 C1292 0.950 . S
C1297 C1295 1.390 . S
C1297 C1298 1.387 1_565 S
C1297 H1300 0.950 . S
C1298 C1297 1.387 1_545 S
C1298 C1301 1.387 . S
H1299 C1295 0.950 . S
H1300 C1297 0.950 . S
C1301 C1292 1.390 . S
C1301 H1294 0.950 . S
C1301 C1298 1.387 . S
C1302 C1303 1.387 1_565 S
C1302 H1306 0.950 . S
C1302 C1311 1.390 . S
C1303 C1302 1.387 1_545 S
C1303 C1305 1.387 . S
H1304 C1311 0.950 . S
C1305 C1303 1.387 . S
C1305 C1307 1.390 . S
C1305 H1309 0.950 . S
H1306 C1302 0.950 . S
C1307 C1305 1.390 . S
C1307 C1308 1.387 . S
C1307 H1310 0.950 . S
C1308 C1307 1.387 . S
C1308 C1311 1.387 1_545 S
H1309 C1305 0.950 . S
H1310 C1307 0.950 . S
C1311 C1302 1.390 . S
C1311 H1304 0.950 . S
C1311 C1308 1.387 1_565 S
C1312 C1313 1.387 . S
C1312 H1316 0.950 . S
C1312 C1321 1.390 . S
C1313 C1312 1.387 . S
C1313 C1315 1.387 . S
H1314 C1321 0.950 . S
C1315 C1313 1.387 . S
C1315 C1317 1.390 . S
C1315 H1319 0.950 . S
H1316 C1312 0.950 . S
C1317 C1315 1.390 . S
C1317 C1318 1.387 . S
C1317 H1320 0.950 . S
C1318 C1317 1.387 . S
C1318 C1321 1.387 . S
H1319 C1315 0.950 . S
H1320 C1317 0.950 . S
C1321 C1312 1.390 . S
C1321 H1314 0.950 . S
C1321 C1318 1.387 . S
C1322 C1323 1.387 1_556 S
C1322 H1326 0.950 . S
C1322 C1331 1.390 . S
C1323 C1322 1.387 1_554 S
C1323 C1325 1.387 . S
H1324 C1331 0.950 . S
C1325 C1323 1.387 . S
C1325 C1327 1.390 . S
C1325 H1329 0.950 . S
H1326 C1322 0.950 . S
C1327 C1325 1.390 . S
C1327 C1328 1.387 . S
C1327 H1330 0.950 . S
C1328 C1327 1.387 . S
C1328 C1331 1.387 1_554 S
H1329 C1325 0.950 . S
H1330 C1327 0.950 . S
C1331 C1322 1.390 . S
C1331 H1324 0.950 . S
C1331 C1328 1.387 1_556 S
C1332 C1333 1.387 . S
C1332 H1336 0.950 . S
C1332 C1341 1.390 . S
C1333 C1332 1.387 . S
C1333 C1335 1.387 . S
H1334 C1341 0.950 . S
C1335 C1333 1.387 . S
C1335 C1337 1.390 . S
C1335 H1339 0.950 . S
H1336 C1332 0.950 . S
C1337 C1335 1.390 . S
C1337 C1338 1.387 . S
C1337 H1340 0.950 . S
C1338 C1337 1.387 . S
C1338 C1341 1.387 . S
H1339 C1335 0.950 . S
H1340 C1337 0.950 . S
C1341 C1332 1.390 . S
C1341 H1334 0.950 . S
C1341 C1338 1.387 . S
C1342 C1343 1.387 . S
C1342 H1346 0.950 . S
C1342 C1351 1.390 . S
C1343 C1342 1.387 . S
C1343 C1345 1.387 . S
H1344 C1351 0.950 . S
C1345 C1343 1.387 . S
C1345 C1347 1.390 1_556 S
C1345 H1349 0.950 . S
H1346 C1342 0.950 . S
C1347 C1345 1.390 1_554 S
C1347 C1348 1.387 . S
C1347 H1350 0.950 . S
C1348 C1347 1.387 . S
C1348 C1351 1.387 1_554 S
H1349 C1345 0.950 . S
H1350 C1347 0.950 . S
C1351 C1342 1.390 . S
C1351 H1344 0.950 . S
C1351 C1348 1.387 1_556 S
C1352 C1353 1.387 . S
C1352 H1356 0.950 . S
C1352 C1361 1.390 . S
C1353 C1352 1.387 . S
C1353 C1355 1.387 . S
H1354 C1361 0.950 . S
C1355 C1353 1.387 . S
C1355 C1357 1.390 . S
C1355 H1359 0.950 . S
H1356 C1352 0.950 . S
C1357 C1355 1.390 . S
C1357 C1358 1.387 . S
C1357 H1360 0.950 . S
C1358 C1357 1.387 . S
C1358 C1361 1.387 . S
H1359 C1355 0.950 . S
H1360 C1357 0.950 . S
C1361 C1352 1.390 . S
C1361 H1354 0.950 . S
C1361 C1358 1.387 . S
C1362 C1363 1.387 1_655 S
C1362 H1366 0.950 . S
C1362 C1371 1.390 . S
C1363 C1362 1.387 1_455 S
C1363 C1365 1.387 . S
H1364 C1371 0.950 . S
C1365 C1363 1.387 . S
C1365 C1367 1.390 . S
C1365 H1369 0.950 . S
H1366 C1362 0.950 . S
C1367 C1365 1.390 . S
C1367 C1368 1.387 . S
C1367 H1370 0.950 . S
C1368 C1367 1.387 . S
C1368 C1371 1.387 1_455 S
H1369 C1365 0.950 . S
H1370 C1367 0.950 . S
C1371 C1362 1.390 . S
C1371 H1364 0.950 . S
C1371 C1368 1.387 1_655 S
C1372 C1373 1.387 . S
C1372 H1376 0.950 . S
C1372 C1381 1.390 . S
C1373 C1372 1.387 . S
C1373 C1375 1.387 . S
H1374 C1381 0.950 . S
C1375 C1373 1.387 . S
C1375 C1377 1.390 . S
C1375 H1379 0.950 . S
H1376 C1372 0.950 . S
C1377 C1375 1.390 . S
C1377 C1378 1.387 . S
C1377 H1380 0.950 . S
C1378 C1377 1.387 . S
C1378 C1381 1.387 . S
H1379 C1375 0.950 . S
H1380 C1377 0.950 . S
C1381 C1372 1.390 . S
C1381 H1374 0.950 . S
C1381 C1378 1.387 . S
C1382 C1383 1.387 . S
C1382 H1386 0.950 . S
C1382 C1391 1.390 1_655 S
C1383 C1382 1.387 . S
C1383 C1385 1.387 . S
H1384 C1391 0.950 . S
C1385 C1383 1.387 . S
C1385 C1387 1.390 . S
C1385 H1389 0.950 . S
H1386 C1382 0.950 . S
C1387 C1385 1.390 . S
C1387 C1388 1.387 1_655 S
C1387 H1390 0.950 . S
C1388 C1387 1.387 1_455 S
C1388 C1391 1.387 . S
H1389 C1385 0.950 . S
H1390 C1387 0.950 . S
C1391 C1382 1.390 1_455 S
C1391 H1384 0.950 . S
C1391 C1388 1.387 . S
C1392 C1393 1.387 . S
C1392 H1396 0.950 . S
C1392 C1401 1.390 . S
C1393 C1392 1.387 . S
C1393 C1395 1.387 . S
H1394 C1401 0.950 . S
C1395 C1393 1.387 . S
C1395 C1397 1.390 . S
C1395 H1399 0.950 . S
H1396 C1392 0.950 . S
C1397 C1395 1.390 . S
C1397 C1398 1.387 . S
C1397 H1400 0.950 . S
C1398 C1397 1.387 . S
C1398 C1401 1.387 . S
H1399 C1395 0.950 . S
H1400 C1397 0.950 . S
C1401 C1392 1.390 . S
C1401 H1394 0.950 . S
C1401 C1398 1.387 . S
C1402 C1403 1.387 . S
C1402 H1406 0.950 . S
C1402 C1411 1.390 . S
C1403 C1402 1.387 . S
C1403 C1405 1.387 . S
H1404 C1411 0.950 . S
C1405 C1403 1.387 . S
C1405 C1407 1.390 . S
C1405 H1409 0.950 . S
H1406 C1402 0.950 . S
C1407 C1405 1.390 . S
C1407 C1408 1.387 . S
C1407 H1410 0.950 . S
C1408 C1407 1.387 . S
C1408 C1411 1.387 . S
H1409 C1405 0.950 . S
H1410 C1407 0.950 . S
C1411 C1402 1.390 . S
C1411 H1404 0.950 . S
C1411 C1408 1.387 . S
C1412 C1413 1.387 1_565 S
C1412 H1416 0.950 . S
C1412 C1421 1.390 . S
C1413 C1412 1.387 1_545 S
C1413 C1415 1.387 . S
H1414 C1421 0.950 . S
C1415 C1413 1.387 . S
C1415 C1417 1.390 . S
C1415 H1419 0.950 . S
H1416 C1412 0.950 . S
C1417 C1415 1.390 . S
C1417 C1418 1.387 1_545 S
C1417 H1420 0.950 . S
C1418 C1417 1.387 1_565 S
C1418 C1421 1.387 . S
H1419 C1415 0.950 . S
H1420 C1417 0.950 . S
C1421 C1412 1.390 . S
C1421 H1414 0.950 . S
C1421 C1418 1.387 . S
C1422 C1423 1.387 . S
C1422 H1426 0.950 . S
C1422 C1431 1.390 . S
C1423 C1422 1.387 . S
C1423 C1425 1.369 1_565 S
H1424 C1431 0.950 . S
C1425 C1423 1.369 1_545 S
C1425 C1427 1.395 . S
C1425 H1429 0.964 . S
H1426 C1422 0.950 . S
C1427 C1425 1.395 . S
C1427 C1428 1.387 1_545 S
C1427 H1430 0.950 . S
C1428 C1427 1.387 1_565 S
C1428 C1431 1.387 . S
H1429 C1425 0.964 . S
H1430 C1427 0.950 . S
C1431 C1422 1.390 . S
C1431 H1424 0.950 . S
C1431 C1428 1.387 . S
C1432 C1433 1.387 . S
C1432 H1436 0.950 . S
C1432 C1441 1.390 . S
C1433 C1432 1.387 . S
C1433 C1435 1.387 . S
H1434 C1441 0.950 . S
C1435 C1433 1.387 . S
C1435 C1437 1.390 . S
C1435 H1439 0.950 . S
H1436 C1432 0.950 . S
C1437 C1435 1.390 . S
C1437 C1438 1.387 . S
C1437 H1440 0.950 . S
C1438 C1437 1.387 . S
C1438 C1441 1.387 . S
H1439 C1435 0.950 . S
H1440 C1437 0.950 . S
C1441 C1432 1.390 . S
C1441 H1434 0.950 . S
C1441 C1438 1.387 . S
C1442 C1443 1.387 . S
C1442 H1446 0.950 . S
C1442 C1451 1.390 . S
C1443 C1442 1.387 . S
C1443 C1445 1.387 1_556 S
H1444 C1451 0.950 . S
C1445 C1443 1.387 1_554 S
C1445 C1447 1.390 . S
C1445 H1449 0.950 . S
H1446 C1442 0.950 . S
C1447 C1445 1.390 . S
C1447 C1448 1.387 1_554 S
C1447 H1450 0.950 . S
C1448 C1447 1.387 1_556 S
C1448 C1451 1.387 . S
H1449 C1445 0.950 . S
H1450 C1447 0.950 . S
C1451 C1442 1.390 . S
C1451 H1444 0.950 . S
C1451 C1448 1.387 . S
C1452 C1453 1.387 . S
C1452 H1456 0.950 . S
C1452 C1461 1.390 . S
C1453 C1452 1.387 . S
C1453 C1455 1.387 . S
H1454 C1461 0.950 . S
C1455 C1453 1.387 . S
C1455 C1457 1.390 . S
C1455 H1459 0.950 . S
H1456 C1452 0.950 . S
C1457 C1455 1.390 . S
C1457 C1458 1.387 . S
C1457 H1460 0.950 . S
C1458 C1457 1.387 . S
C1458 C1461 1.387 . S
H1459 C1455 0.950 . S
H1460 C1457 0.950 . S
C1461 C1452 1.390 . S
C1461 H1454 0.950 . S
C1461 C1458 1.387 . S
C1462 C1463 1.387 1_556 S
C1462 H1466 0.950 . S
C1462 C1471 1.390 . S
C1463 C1462 1.387 1_554 S
C1463 C1465 1.387 . S
H1464 C1471 0.950 . S
C1465 C1463 1.387 . S
C1465 C1467 1.390 . S
C1465 H1469 0.950 . S
H1466 C1462 0.950 . S
C1467 C1465 1.390 . S
C1467 C1468 1.387 1_554 S
C1467 H1470 0.950 . S
C1468 C1467 1.387 1_556 S
C1468 C1471 1.387 . S
H1469 C1465 0.950 . S
H1470 C1467 0.950 . S
C1471 C1462 1.390 . S
C1471 H1464 0.950 . S
C1471 C1468 1.387 . S
C1472 C1473 1.387 . S
C1472 H1476 0.950 . S
C1472 C1481 1.390 . S
C1473 C1472 1.387 . S
C1473 C1475 1.387 . S
H1474 C1481 0.950 . S
C1475 C1473 1.387 . S
C1475 C1477 1.390 . S
C1475 H1479 0.950 . S
H1476 C1472 0.950 . S
C1477 C1475 1.390 . S
C1477 C1478 1.387 . S
C1477 H1480 0.950 . S
C1478 C1477 1.387 . S
C1478 C1481 1.387 . S
H1479 C1475 0.950 . S
H1480 C1477 0.950 . S
C1481 C1472 1.390 . S
C1481 H1474 0.950 . S
C1481 C1478 1.387 . S
C1482 C1483 1.387 . S
C1482 H1486 0.950 . S
C1482 C1491 1.390 . S
C1483 C1482 1.387 . S
C1483 C1485 1.387 . S
H1484 C1491 0.950 . S
C1485 C1483 1.387 . S
C1485 C1487 1.390 . S
C1485 H1489 0.950 . S
H1486 C1482 0.950 . S
C1487 C1485 1.390 . S
C1487 C1488 1.387 . S
C1487 H1490 0.950 1_655 S
C1488 C1487 1.387 . S
C1488 C1491 1.387 . S
H1489 C1485 0.950 . S
H1490 C1487 0.950 1_455 S
C1491 C1482 1.390 . S
C1491 H1484 0.950 . S
C1491 C1488 1.387 . S
C1492 C1493 1.387 . S
C1492 H1496 0.950 . S
C1492 C1501 1.390 . S
C1493 C1492 1.387 . S
C1493 C1495 1.387 . S
H1494 C1501 0.950 . S
C1495 C1493 1.387 . S
C1495 C1497 1.390 . S
C1495 H1499 0.950 . S
H1496 C1492 0.950 . S
C1497 C1495 1.390 . S
C1497 C1498 1.387 . S
C1497 H1500 0.950 . S
C1498 C1497 1.387 . S
C1498 C1501 1.387 . S
H1499 C1495 0.950 . S
H1500 C1497 0.950 . S
C1501 C1492 1.390 . S
C1501 H1494 0.950 . S
C1501 C1498 1.387 . S
C1502 C1503 1.387 . S
C1502 H1506 0.950 . S
C1502 C1511 1.390 . S
C1503 C1502 1.387 . S
C1503 C1505 1.387 . S
H1504 C1511 0.950 . S
C1505 C1503 1.387 . S
C1505 C1507 1.390 1_455 S
C1505 H1509 0.950 . S
H1506 C1502 0.950 . S
C1507 C1505 1.390 1_655 S
C1507 C1508 1.387 . S
C1507 H1510 0.950 . S
C1508 C1507 1.387 . S
C1508 C1511 1.387 1_655 S
H1509 C1505 0.950 . S
H1510 C1507 0.950 . S
C1511 C1502 1.390 . S
C1511 H1504 0.950 . S
C1511 C1508 1.387 1_455 S
C1512 C1513 1.387 . S
C1512 H1516 0.950 . S
C1512 C1521 1.390 . S
C1513 C1512 1.387 . S
C1513 C1515 1.387 . S
H1514 C1521 0.950 . S
C1515 C1513 1.387 . S
C1515 C1517 1.390 . S
C1515 H1519 0.950 . S
H1516 C1512 0.950 . S
C1517 C1515 1.390 . S
C1517 C1518 1.387 . S
C1517 H1520 0.950 . S
C1518 C1517 1.387 . S
C1518 C1521 1.387 . S
H1519 C1515 0.950 . S
H1520 C1517 0.950 . S
C1521 C1512 1.390 . S
C1521 H1514 0.950 . S
C1521 C1518 1.387 . S
C1522 C1523 1.387 . S
C1522 H1526 0.950 . S
C1522 C1531 1.390 . S
C1523 C1522 1.387 . S
C1523 C1525 1.387 . S
H1524 C1531 0.950 . S
C1525 C1523 1.387 . S
C1525 C1527 1.390 . S
C1525 H1529 0.950 . S
H1526 C1522 0.950 . S
C1527 C1525 1.390 . S
C1527 C1528 1.387 . S
C1527 H1530 0.950 . S
C1528 C1527 1.387 . S
C1528 C1531 1.387 . S
H1529 C1525 0.950 . S
H1530 C1527 0.950 . S
C1531 C1522 1.390 . S
C1531 H1524 0.950 . S
C1531 C1528 1.387 . S
C1532 C1533 1.387 . S
C1532 H1536 0.950 . S
C1532 C1541 1.390 . S
C1533 C1532 1.387 . S
C1533 C1535 1.387 1_545 S
H1534 C1541 0.950 . S
C1535 C1533 1.387 1_565 S
C1535 C1537 1.390 . S
C1535 H1539 0.950 . S
H1536 C1532 0.950 . S
C1537 C1535 1.390 . S
C1537 C1538 1.387 1_565 S
C1537 H1540 0.950 . S
C1538 C1537 1.387 1_545 S
C1538 C1541 1.387 . S
H1539 C1535 0.950 . S
H1540 C1537 0.950 . S
C1541 C1532 1.390 . S
C1541 H1534 0.950 . S
C1541 C1538 1.387 . S
C1542 C1543 1.382 1_545 S
C1542 H1546 0.957 . S
C1542 C1551 1.389 1_545 S
C1543 C1542 1.382 1_565 S
C1543 C1545 1.387 . S
H1544 C1551 0.950 1_545 S
C1545 C1543 1.387 . S
C1545 C1547 1.390 . S
C1545 H1549 0.950 . S
H1546 C1542 0.957 . S
C1547 C1545 1.390 . S
C1547 C1548 1.387 . S
C1547 H1550 0.950 . S
C1548 C1547 1.387 . S
C1548 C1551 1.387 . S
H1549 C1545 0.950 . S
H1550 C1547 0.950 . S
C1551 C1542 1.389 1_565 S
C1551 H1544 0.950 1_565 S
C1551 C1548 1.387 . S
C1552 C1553 1.387 . S
C1552 H1556 0.950 . S
C1552 C1561 1.390 . S
C1553 C1552 1.387 . S
C1553 C1555 1.387 . S
H1554 C1561 0.950 . S
C1555 C1553 1.387 . S
C1555 C1557 1.390 . S
C1555 H1559 0.950 . S
H1556 C1552 0.950 . S
C1557 C1555 1.390 . S
C1557 C1558 1.387 . S
C1557 H1560 0.950 . S
C1558 C1557 1.387 . S
C1558 C1561 1.387 . S
H1559 C1555 0.950 . S
H1560 C1557 0.950 . S
C1561 C1552 1.390 . S
C1561 H1554 0.950 . S
C1561 C1558 1.387 . S
C1562 C1563 1.387 . S
C1562 H1566 0.950 . S
C1562 C1571 1.390 . S
C1563 C1562 1.387 . S
C1563 C1565 1.364 1_556 S
H1564 C1571 0.950 . S
C1565 C1563 1.364 1_554 S
C1565 C1567 1.385 1_554 S
C1565 H1569 0.978 . S
H1566 C1562 0.950 . S
C1567 C1565 1.385 1_556 S
C1567 C1568 1.387 . S
C1567 H1570 0.950 1_556 S
C1568 C1567 1.387 . S
C1568 C1571 1.387 . S
H1569 C1565 0.978 . S
H1570 C1567 0.950 1_554 S
C1571 C1562 1.390 . S
C1571 H1564 0.950 . S
C1571 C1568 1.387 . S
C1572 C1573 1.387 . S
C1572 H1576 0.950 . S
C1572 C1581 1.390 . S
C1573 C1572 1.387 . S
C1573 C1575 1.387 . S
H1574 C1581 0.950 . S
C1575 C1573 1.387 . S
C1575 C1577 1.390 . S
C1575 H1579 0.950 . S
H1576 C1572 0.950 . S
C1577 C1575 1.390 . S
C1577 C1578 1.387 . S
C1577 H1580 0.950 . S
C1578 C1577 1.387 . S
C1578 C1581 1.387 . S
H1579 C1575 0.950 . S
H1580 C1577 0.950 . S
C1581 C1572 1.390 . S
C1581 H1574 0.950 . S
C1581 C1578 1.387 . S
C1582 C1583 1.387 1_556 S
C1582 H1586 0.950 . S
C1582 C1591 1.390 . S
C1583 C1582 1.387 1_554 S
C1583 C1585 1.387 . S
H1584 C1591 0.950 . S
C1585 C1583 1.387 . S
C1585 C1587 1.390 . S
C1585 H1589 0.950 . S
H1586 C1582 0.950 . S
C1587 C1585 1.390 . S
C1587 C1588 1.387 . S
C1587 H1590 0.950 . S
C1588 C1587 1.387 . S
C1588 C1591 1.387 1_554 S
H1589 C1585 0.950 . S
H1590 C1587 0.950 . S
C1591 C1582 1.390 . S
C1591 H1584 0.950 . S
C1591 C1588 1.387 1_556 S
C1592 C1593 1.387 . S
C1592 H1596 0.950 . S
C1592 C1601 1.390 . S
C1593 C1592 1.387 . S
C1593 C1595 1.387 . S
H1594 C1601 0.950 . S
C1595 C1593 1.387 . S
C1595 C1597 1.390 . S
C1595 H1599 0.950 . S
H1596 C1592 0.950 . S
C1597 C1595 1.390 . S
C1597 C1598 1.387 . S
C1597 H1600 0.950 . S
C1598 C1597 1.387 . S
C1598 C1601 1.387 . S
H1599 C1595 0.950 . S
H1600 C1597 0.950 . S
C1601 C1592 1.390 . S
C1601 H1594 0.950 . S
C1601 C1598 1.387 . S
C1602 C1603 1.387 . S
C1602 H1606 0.950 . S
C1602 C1611 1.390 . S
C1603 C1602 1.387 . S
C1603 C1605 1.408 . S
H1604 C1611 0.950 . S
C1605 C1603 1.408 . S
C1605 C1607 1.395 . S
C1605 H1609 0.925 1_655 S
H1606 C1602 0.950 . S
C1607 C1605 1.395 . S
C1607 C1608 1.387 . S
C1607 H1610 0.950 1_655 S
C1608 C1607 1.387 . S
C1608 C1611 1.387 . S
H1609 C1605 0.925 1_455 S
H1610 C1607 0.950 1_455 S
C1611 C1602 1.390 . S
C1611 H1604 0.950 . S
C1611 C1608 1.387 . S
C1612 C1613 1.387 . S
C1612 H1616 0.950 . S
C1612 C1621 1.390 . S
C1613 C1612 1.387 . S
C1613 C1615 1.387 . S
H1614 C1621 0.950 . S
C1615 C1613 1.387 . S
C1615 C1617 1.390 . S
C1615 H1619 0.950 . S
H1616 C1612 0.950 . S
C1617 C1615 1.390 . S
C1617 C1618 1.387 . S
C1617 H1620 0.950 . S
C1618 C1617 1.387 . S
C1618 C1621 1.387 . S
H1619 C1615 0.950 . S
H1620 C1617 0.950 . S
C1621 C1612 1.390 . S
C1621 H1614 0.950 . S
C1621 C1618 1.387 . S
C1622 C1623 1.387 . S
C1622 H1626 0.950 . S
C1622 C1631 1.390 . S
C1623 C1622 1.387 . S
C1623 C1625 1.387 . S
H1624 C1631 0.950 . S
C1625 C1623 1.387 . S
C1625 C1627 1.390 . S
C1625 H1629 0.950 . S
H1626 C1622 0.950 . S
C1627 C1625 1.390 . S
C1627 C1628 1.387 . S
C1627 H1630 0.950 . S
C1628 C1627 1.387 . S
C1628 C1631 1.387 . S
H1629 C1625 0.950 . S
H1630 C1627 0.950 . S
C1631 C1622 1.390 . S
C1631 H1624 0.950 . S
C1631 C1628 1.387 . S
C1632 C1633 1.387 . S
C1632 H1636 0.950 . S
C1632 C1641 1.390 . S
C1633 C1632 1.387 . S
C1633 C1635 1.387 . S
H1634 C1641 0.950 . S
C1635 C1633 1.387 . S
C1635 C1637 1.390 . S
C1635 H1639 0.950 . S
H1636 C1632 0.950 . S
C1637 C1635 1.390 . S
C1637 C1638 1.387 . S
C1637 H1640 0.950 . S
C1638 C1637 1.387 . S
C1638 C1641 1.387 . S
H1639 C1635 0.950 . S
H1640 C1637 0.950 . S
C1641 C1632 1.390 . S
C1641 H1634 0.950 . S
C1641 C1638 1.387 . S
C1642 C1643 1.387 . S
C1642 H1646 0.950 . S
C1642 C1651 1.390 . S
C1643 C1642 1.387 . S
C1643 C1645 1.387 . S
H1644 C1651 0.950 . S
C1645 C1643 1.387 . S
C1645 C1647 1.390 . S
C1645 H1649 0.950 . S
H1646 C1642 0.950 . S
C1647 C1645 1.390 . S
C1647 C1648 1.387 . S
C1647 H1650 0.950 . S
C1648 C1647 1.387 . S
C1648 C1651 1.387 . S
H1649 C1645 0.950 . S
H1650 C1647 0.950 . S
C1651 C1642 1.390 . S
C1651 H1644 0.950 . S
C1651 C1648 1.387 . S
C1652 C1653 1.387 . S
C1652 H1656 0.950 . S
C1652 C1661 1.390 . S
C1653 C1652 1.387 . S
C1653 C1655 1.387 1_565 S
H1654 C1661 0.950 . S
C1655 C1653 1.387 1_545 S
C1655 C1657 1.390 . S
C1655 H1659 0.950 . S
H1656 C1652 0.950 . S
C1657 C1655 1.390 . S
C1657 C1658 1.387 1_545 S
C1657 H1660 0.950 . S
C1658 C1657 1.387 1_565 S
C1658 C1661 1.387 . S
H1659 C1655 0.950 . S
H1660 C1657 0.950 . S
C1661 C1652 1.390 . S
C1661 H1654 0.950 . S
C1661 C1658 1.387 . S
C1662 C1663 1.387 . S
C1662 H1666 0.950 . S
C1662 C1671 1.390 . S
C1663 C1662 1.387 . S
C1663 C1665 1.387 1_545 S
H1664 C1671 0.950 . S
C1665 C1663 1.387 1_565 S
C1665 C1667 1.390 1_565 S
C1665 H1669 0.950 . S
H1666 C1662 0.950 . S
C1667 C1665 1.390 1_545 S
C1667 C1668 1.387 . S
C1667 H1670 0.950 1_545 S
C1668 C1667 1.387 . S
C1668 C1671 1.387 . S
H1669 C1665 0.950 . S
H1670 C1667 0.950 1_565 S
C1671 C1662 1.390 . S
C1671 H1664 0.950 . S
C1671 C1668 1.387 . S
C1672 C1673 1.387 . S
C1672 H1676 0.950 . S
C1672 C1681 1.390 . S
C1673 C1672 1.387 . S
C1673 C1675 1.387 . S
H1674 C1681 0.950 . S
C1675 C1673 1.387 . S
C1675 C1677 1.390 . S
C1675 H1679 0.950 . S
H1676 C1672 0.950 . S
C1677 C1675 1.390 . S
C1677 C1678 1.387 . S
C1677 H1680 0.950 . S
C1678 C1677 1.387 . S
C1678 C1681 1.387 . S
H1679 C1675 0.950 . S
H1680 C1677 0.950 . S
C1681 C1672 1.390 . S
C1681 H1674 0.950 . S
C1681 C1678 1.387 . S
C1682 C1683 1.387 1_556 S
C1682 H1686 0.950 . S
C1682 C1691 1.390 1_556 S
C1683 C1682 1.387 1_554 S
C1683 C1685 1.387 . S
H1684 C1691 0.950 1_556 S
C1685 C1683 1.387 . S
C1685 C1687 1.390 . S
C1685 H1689 0.950 . S
H1686 C1682 0.950 . S
C1687 C1685 1.390 . S
C1687 C1688 1.387 . S
C1687 H1690 0.950 . S
C1688 C1687 1.387 . S
C1688 C1691 1.387 . S
H1689 C1685 0.950 . S
H1690 C1687 0.950 . S
C1691 C1682 1.390 1_554 S
C1691 H1684 0.950 1_554 S
C1691 C1688 1.387 . S
C1692 C1693 1.387 . S
C1692 H1696 0.950 . S
C1692 C1701 1.390 . S
C1693 C1692 1.387 . S
C1693 C1695 1.387 . S
H1694 C1701 0.950 . S
C1695 C1693 1.387 . S
C1695 C1697 1.390 . S
C1695 H1699 0.950 . S
H1696 C1692 0.950 . S
C1697 C1695 1.390 . S
C1697 C1698 1.387 . S
C1697 H1700 0.950 . S
C1698 C1697 1.387 . S
C1698 C1701 1.387 . S
H1699 C1695 0.950 . S
H1700 C1697 0.950 . S
C1701 C1692 1.390 . S
C1701 H1694 0.950 . S
C1701 C1698 1.387 . S
C1702 C1703 1.387 . S
C1702 H1706 0.950 . S
C1702 C1711 1.390 . S
C1703 C1702 1.387 . S
C1703 C1705 1.387 1_556 S
H1704 C1711 0.950 . S
C1705 C1703 1.387 1_554 S
C1705 C1707 1.390 . S
C1705 H1709 0.950 . S
H1706 C1702 0.950 . S
C1707 C1705 1.390 . S
C1707 C1708 1.387 1_554 S
C1707 H1710 0.950 . S
C1708 C1707 1.387 1_556 S
C1708 C1711 1.387 . S
H1709 C1705 0.950 . S
H1710 C1707 0.950 . S
C1711 C1702 1.390 . S
C1711 H1704 0.950 . S
C1711 C1708 1.387 . S
C1712 C1713 1.387 . S
C1712 H1716 0.950 . S
C1712 C1721 1.390 . S
C1713 C1712 1.387 . S
C1713 C1715 1.387 . S
H1714 C1721 0.950 . S
C1715 C1713 1.387 . S
C1715 C1717 1.390 . S
C1715 H1719 0.950 . S
H1716 C1712 0.950 . S
C1717 C1715 1.390 . S
C1717 C1718 1.387 . S
C1717 H1720 0.950 . S
C1718 C1717 1.387 . S
C1718 C1721 1.387 . S
H1719 C1715 0.950 . S
H1720 C1717 0.950 . S
C1721 C1712 1.390 . S
C1721 H1714 0.950 . S
C1721 C1718 1.387 . S
C1722 C1723 1.387 . S
C1722 H1726 0.950 . S
C1722 C1731 1.390 . S
C1723 C1722 1.387 . S
C1723 C1725 1.387 1_455 S
H1724 C1731 0.950 . S
C1725 C1723 1.387 1_655 S
C1725 C1727 1.390 1_655 S
C1725 H1729 0.950 . S
H1726 C1722 0.950 . S
C1727 C1725 1.390 1_455 S
C1727 C1728 1.387 . S
C1727 H1730 0.950 1_455 S
C1728 C1727 1.387 . S
C1728 C1731 1.387 . S
H1729 C1725 0.950 . S
H1730 C1727 0.950 1_655 S
C1731 C1722 1.390 . S
C1731 H1724 0.950 . S
C1731 C1728 1.387 . S
C1732 C1733 1.387 . S
C1732 H1736 0.950 . S
C1732 C1741 1.390 . S
C1733 C1732 1.387 . S
C1733 C1735 1.387 . S
H1734 C1741 0.950 . S
C1735 C1733 1.387 . S
C1735 C1737 1.390 . S
C1735 H1739 0.950 . S
H1736 C1732 0.950 . S
C1737 C1735 1.390 . S
C1737 C1738 1.387 . S
C1737 H1740 0.950 . S
C1738 C1737 1.387 . S
C1738 C1741 1.387 . S
H1739 C1735 0.950 . S
H1740 C1737 0.950 . S
C1741 C1732 1.390 . S
C1741 H1734 0.950 . S
C1741 C1738 1.387 . S
C1742 C1743 1.387 1_455 S
C1742 H1746 0.950 . S
C1742 C1751 1.390 . S
C1743 C1742 1.387 1_655 S
C1743 C1745 1.387 . S
H1744 C1751 0.950 . S
C1745 C1743 1.387 . S
C1745 C1747 1.390 . S
C1745 H1749 0.950 . S
H1746 C1742 0.950 . S
C1747 C1745 1.390 . S
C1747 C1748 1.387 . S
C1747 H1750 0.950 . S
C1748 C1747 1.387 . S
C1748 C1751 1.387 1_655 S
H1749 C1745 0.950 . S
H1750 C1747 0.950 . S
C1751 C1742 1.390 . S
C1751 H1744 0.950 . S
C1751 C1748 1.387 1_455 S
C1038 C1017 1.784 . S
C1033 C8 1.792 . S
C1048 C921 1.632 . S
C1043 C19 1.575 . S
C1058 C985 1.470 . S
C1053 C30 1.486 . S
C1068 C953 1.932 . S
C1063 C41 1.892 . S
C1078 C729 1.783 . S
C1073 C52 1.792 . S
C1083 C63 1.888 . S
C1088 C761 1.935 . S
C1098 C665 1.632 . S
C1093 C74 1.575 . S
C1103 C85 1.487 . S
C1108 C697 1.467 . S
C1118 C889 1.783 . S
C1113 C96 1.791 . S
C1123 C107 1.890 . S
C1128 C825 1.935 . S
C1133 C118 1.574 . S
C1138 C793 1.633 . S
C1148 C857 1.469 . S
C1143 C129 1.484 . S
C1158 C633 1.791 . S
C1153 C140 1.766 . S
C1163 C151 1.519 . S
C1168 C537 1.594 . S
C1178 C601 1.485 . S
C1173 C162 1.454 . S
C1183 C173 1.826 . S
C1188 C569 1.903 . S
C1198 C345 1.792 . S
C1193 C184 1.767 . S
C1208 C377 1.898 . S
C1203 C195 1.830 . S
C1213 C206 1.520 . S
C1218 C281 1.592 . S
C1223 C217 1.458 . S
C1228 C313 1.484 . S
C1233 C228 1.762 . S
C1238 C505 1.796 . S
C1243 C239 1.826 . S
C1248 C441 1.902 . S
C1258 C409 1.593 . S
C1253 C250 1.522 . S
C1263 C261 1.456 . S
C1268 C473 1.484 . S
C1278 C293 1.372 . S
C1273 C7 1.394 . S
C1288 C325 1.441 . S
C1283 C18 1.457 . S
C1293 C29 1.361 . S
C1298 C357 1.358 . S
C1303 C40 1.154 . S
C1308 C389 1.159 . S
C1318 C421 1.372 . S
C1313 C51 1.395 . S
C1323 C62 1.155 . S
C1328 C453 1.159 . S
C1338 C485 1.441 . S
C1333 C73 1.458 . S
C1348 C517 1.358 . S
C1343 C84 1.361 . S
C1358 C549 1.371 . S
C1353 C95 1.394 . S
C1363 C106 1.155 . S
C1368 C581 1.160 . S
C1373 C117 1.455 . S
C1378 C613 1.438 . S
C1383 C128 1.361 . S
C1388 C645 1.358 . S
C1393 C139 1.261 . S
C1398 C677 1.303 . S
C1403 C150 1.254 . S
C1408 C709 1.331 . S
C1413 C161 1.228 . S
C1418 C741 1.263 . S
C1423 C172 1.053 . S
C1428 C773 1.098 . S
C1433 C183 1.260 . S
C1438 C805 1.303 . S
C1448 C837 1.098 . S
C1443 C194 1.057 . S
C1458 C869 1.329 . S
C1453 C205 1.259 . S
C1468 C901 1.264 . S
C1463 C216 1.224 . S
C1478 C933 1.303 . S
C1473 C227 1.260 . S
C1483 C238 1.059 . S
C1488 C965 1.097 . S
C1493 C249 1.254 . S
C1498 C997 1.329 . S
C1503 C260 1.224 . S
C1508 C1029 1.265 . S
C1513 C5 1.489 . S
C1518 C543 1.787 . S
C1528 C639 1.774 . S
C1523 C16 1.491 . S
C1533 C27 1.327 1_545 S
C1538 C575 1.535 . S
C1548 C607 2.116 . S
C1543 C38 1.838 1_565 S
C1553 C49 1.489 . S
C1558 C287 1.787 . S
C1563 C60 1.839 1_556 S
C1568 C319 2.114 . S
C1573 C71 1.499 . S
C1578 C351 1.770 . S
C1583 C82 1.328 1_554 S
C1588 C383 1.535 . S
C1598 C415 1.787 . S
C1593 C93 1.492 . S
C1608 C479 2.116 . S
C1603 C104 1.838 1_655 S
C1613 C115 1.496 . S
C1618 C511 1.770 . S
C1623 C126 1.325 1_455 S
C1628 C447 1.534 . S
C1638 C927 1.645 . S
C1633 C137 1.302 . S
C1648 C1023 1.601 . S
C1643 C148 1.175 . S
C1653 C159 1.128 . S
C1658 C959 1.406 . S
C1668 C991 1.912 . S
C1663 C170 1.441 . S
C1673 C181 1.302 . S
C1678 C671 1.646 . S
C1683 C192 1.435 . S
C1688 C703 1.908 . S
C1693 C203 1.177 . S
C1698 C735 1.598 . S
C1708 C767 1.413 . S
C1703 C214 1.123 . S
C1718 C799 1.646 . S
C1713 C225 1.303 . S
C1728 C863 1.913 . S
C1723 C236 1.441 . S
C1733 C247 1.177 . S
C1738 C895 1.594 . S
C1748 C831 1.409 . S
C1743 C258 1.119 . S
