# Generated by pormake.
# Topology pyr, (3,6)-cn, num edge types: 1
# Building blocks:
#     Node 0, Type 0, BuildingBlock: PAMTOO_clean_linker_0, # of connection points: 3
#     Node 1, Type 0, BuildingBlock: PAMTOO_clean_linker_0, # of connection points: 3
#     Node 2, Type 0, BuildingBlock: PAMTOO_clean_linker_0, # of connection points: 3
#     Node 3, Type 0, BuildingBlock: PAMTOO_clean_linker_0, # of connection points: 3
#     Node 4, Type 0, BuildingBlock: PAMTOO_clean_linker_0, # of connection points: 3
#     Node 5, Type 0, BuildingBlock: PAMTOO_clean_linker_0, # of connection points: 3
#     Node 6, Type 0, BuildingBlock: PAMTOO_clean_linker_0, # of connection points: 3
#     Node 7, Type 0, BuildingBlock: PAMTOO_clean_linker_0, # of connection points: 3
#     Node 8, Type 1, BuildingBlock: PAMTUU_clean_sbu_0, # of connection points: 6
#     Node 9, Type 1, BuildingBlock: PAMTUU_clean_sbu_0, # of connection points: 6
#     Node 10, Type 1, BuildingBlock: PAMTUU_clean_sbu_0, # of connection points: 6
#     Node 11, Type 1, BuildingBlock: PAMTUU_clean_sbu_0, # of connection points: 6
#     Edge 12, Type (0, 1), None
#     Edge 13, Type (0, 1), None
#     Edge 14, Type (0, 1), None
#     Edge 15, Type (0, 1), None
#     Edge 16, Type (0, 1), None
#     Edge 17, Type (0, 1), None
#     Edge 18, Type (0, 1), None
#     Edge 19, Type (0, 1), None
#     Edge 20, Type (0, 1), None
#     Edge 21, Type (0, 1), None
#     Edge 22, Type (0, 1), None
#     Edge 23, Type (0, 1), None
#     Edge 24, Type (0, 1), None
#     Edge 25, Type (0, 1), None
#     Edge 26, Type (0, 1), None
#     Edge 27, Type (0, 1), None
#     Edge 28, Type (0, 1), None
#     Edge 29, Type (0, 1), None
#     Edge 30, Type (0, 1), None
#     Edge 31, Type (0, 1), None
#     Edge 32, Type (0, 1), None
#     Edge 33, Type (0, 1), None
#     Edge 34, Type (0, 1), None
#     Edge 35, Type (0, 1), None
# Relax obj value: 0.510
# Max RMSD: 0.292
# Mean RMSD: 0.165
data_MOF--net-pyr--node1-PAMTUU_clean_sbu_0--node2-PAMTOO_clean_linker_0--edge1-none
_symmetry_space_group_name_H-M    P1
_symmetry_Int_Tables_number       1
_symmetry_cell_setting            triclinic
loop_
_symmetry_equiv_pos_as_xyz
'x, y, z'
_cell_length_a     17.521652
_cell_length_b     16.74028
_cell_length_c     16.003598
_cell_angle_alpha  92.260491
_cell_angle_beta   87.843173
_cell_angle_gamma 109.19765
loop_
_atom_site_label
_atom_site_type_symbol
_atom_site_fract_x
_atom_site_fract_y
_atom_site_fract_z
_atom_type_partial_charge
H0 H 0.31954 0.34661 0.47187 0.0
H1 H 0.5623 0.34533 0.48503 0.0
H2 H 0.48853 0.44078 0.26727 0.0
H3 H 0.6753 0.35812 0.40662 0.0
C4 C 0.6594 0.36762 0.34216 0.0
O5 O 0.61235 0.42002 0.3431 0.0
H6 H 0.71713 0.4003 0.30837 0.0
C7 C 0.37977 0.36088 0.44392 0.0
C8 C 0.39582 0.39378 0.36353 0.0
C9 C 0.44058 0.34521 0.48808 0.0
C10 C 0.5171 0.3617 0.452 0.0
C11 C 0.53545 0.39799 0.37366 0.0
C12 C 0.47451 0.41331 0.32845 0.0
H13 H 1.00571 1.06011 0.99077 0.0
H14 H 0.99985 0.93066 0.75267 0.0
H15 H 0.1788 0.93406 0.92692 0.0
H16 H 0.20094 0.9751 0.72643 0.0
C17 C 0.1856 0.90553 0.72961 0.0
O18 O 0.12051 0.8731 0.78491 0.0
H19 H 0.16677 0.87851 0.66619 0.0
C20 C 1.02707 1.01899 0.9489 0.0
C21 C 0.09681 1.00088 0.96867 0.0
C22 C 0.99782 1.0038 0.86757 0.0
C23 C 1.02461 0.9482 0.81401 0.0
C24 C 0.08967 0.92203 0.83671 0.0
C25 C 0.12616 0.95043 0.91275 0.0
H26 H 0.80564 0.39954 0.16033 0.0
H27 H 0.62599 0.39793 0.98171 0.0
H28 H 0.83688 0.61825 1.01111 0.0
H29 H 0.70748 0.66995 0.95488 0.0
C30 C 0.66764 0.61243 0.92261 0.0
O31 O 0.70629 0.55039 0.9193 0.0
H32 H 0.6113 0.58877 0.96149 0.0
C33 C 0.78446 0.43072 1.11256 0.0
C34 C 0.82984 0.51499 1.0931 0.0
C35 C 0.71026 0.38743 1.07406 0.0
C36 C 0.6823 0.43041 1.01239 0.0
C37 C 0.72783 0.51397 0.98781 0.0
C38 C 0.80114 0.55513 1.02968 0.0
H39 H 0.8273 0.94173 0.67199 0.0
H40 H 0.82319 0.71212 0.53618 0.0
H41 H 1.02889 0.93682 0.50936 0.0
H42 H 0.90454 0.77129 0.35137 0.0
C43 C 0.93162 0.73068 0.38503 0.0
O44 O 0.96519 0.77395 0.45925 0.0
H45 H 0.88224 0.67214 0.40245 0.0
C46 C 0.85495 0.9081 0.62775 0.0
C47 C 0.93334 0.95043 0.59358 0.0
C48 C 0.81354 0.82194 0.60822 0.0
C49 C 0.85247 0.77854 0.55146 0.0
C50 C 0.92855 0.81926 0.51235 0.0
C51 C 0.96895 0.90545 0.5353 0.0
H52 H 0.53451 1.08307 0.89191 0.0
H53 H 0.65086 0.95889 1.05061 0.0
H54 H 0.72147 0.98592 0.79428 0.0
H55 H 0.73263 0.83016 0.86244 0.0
C56 C 0.74539 0.8523 0.92839 0.0
O57 O 0.7511 0.93643 0.93631 0.0
H58 H 0.69501 0.81457 0.96968 0.0
C59 C 0.57594 1.04822 0.8992 0.0
C60 C 0.62289 1.03425 0.83061 0.0
C61 C 0.58581 1.02254 0.97881 0.0
C62 C 0.6404 0.9778 0.98927 0.0
C63 C 0.68868 0.96476 0.92243 0.0
C64 C 0.67973 0.99247 0.84359 0.0
H65 H 0.08811 0.23753 0.44005 0.0
H66 H 0.9455 0.39944 0.40293 0.0
H67 H 0.12476 0.46397 0.58952 0.0
H68 H 0.99712 0.58146 0.61699 0.0
C69 C 0.97479 0.51518 0.59223 0.0
O70 O 1.01649 0.51127 0.51778 0.0
H71 H 0.98848 0.47612 0.64065 0.0
C72 C 0.07596 0.29638 0.45228 0.0
C73 C 0.1079 0.345 0.52332 0.0
C74 C 1.0164 0.3147 0.40774 0.0
C75 C 0.99504 0.38665 0.43183 0.0
C76 C 1.03774 0.44297 0.49377 0.0
C77 C 0.09825 0.42463 0.53567 0.0
H78 H 0.32674 0.90821 0.21757 0.0
H79 H 0.29526 0.70189 0.3835 0.0
H80 H 0.50982 0.92018 0.39622 0.0
H81 H 0.5268 0.73757 0.42109 0.0
C82 C 0.47322 0.71452 0.46393 0.0
O83 O 0.43127 0.77335 0.46616 0.0
H84 H 0.43376 0.65311 0.43757 0.0
C85 C 0.34865 0.88022 0.26736 0.0
C86 C 0.42454 0.92566 0.30316 0.0
C87 C 0.30084 0.79873 0.2941 0.0
C88 C 0.33102 0.76302 0.36 0.0
C89 C 0.40679 0.80564 0.39712 0.0
C90 C 0.45269 0.8867 0.3675 0.0
H91 H 1.03423 0.40923 0.95018 0.0
H92 H 0.24427 0.63523 0.97081 0.0
H93 H 0.2386 0.44731 0.77982 0.0
H94 H 0.3729 0.49436 0.85286 0.0
C95 C 0.39053 0.56322 0.84084 0.0
O96 O 0.32322 0.58989 0.83998 0.0
H97 H 0.42998 0.59789 0.89226 0.0
C98 C 0.09432 0.44691 0.92928 0.0
C99 C 0.13327 0.41504 0.8624 0.0
C100 C 0.13334 0.52722 0.96991 0.0
C101 C 0.21283 0.57409 0.94201 0.0
C102 C 0.24971 0.54419 0.87282 0.0
C103 C 0.20892 0.46704 0.83356 0.0
Tb104 Tb 0.1288 0.173 0.71901 0.0
Tb105 Tb 0.95665 0.20438 0.71682 0.0
C106 C 0.97858 1.03924 0.62529 0.0
C107 C 0.34119 0.21289 0.70449 0.0
C108 C 0.42262 0.30758 0.57047 0.0
C109 C 0.42922 0.22752 0.58228 0.0
C110 C 0.38859 0.1801 0.64979 0.0
C111 C 0.34816 0.29886 0.70123 0.0
C112 C 0.38773 0.34571 0.6334 0.0
C113 C 0.2642 1.15449 0.73444 0.0
O114 O 0.13368 0.2361 0.60226 0.0
O115 O 0.04968 0.30461 0.65469 0.0
O116 O 1.02059 0.28774 0.82065 0.0
O117 O 0.14863 0.30228 0.76949 0.0
O118 O 0.88682 0.24151 0.63261 0.0
O119 O 0.85486 0.23038 0.76535 0.0
O120 O 0.93391 1.08518 0.78381 0.0
O121 O 0.05783 1.14403 0.83209 0.0
O122 O 0.04761 1.05371 0.66358 0.0
O123 O 0.94087 1.09599 0.62842 0.0
C124 C 0.10297 0.29703 0.59867 0.0
O125 O 0.22731 0.18251 0.795 0.0
O126 O 0.2155 1.12014 0.67385 0.0
C127 C 0.099 0.32973 0.81852 0.0
C128 C 0.74966 0.19988 0.67253 0.0
C129 C 0.62655 1.07911 0.75136 0.0
C130 C 0.62876 0.16401 0.75823 0.0
C131 C 0.69229 0.22532 0.71924 0.0
C132 C 0.72904 1.11602 0.64214 0.0
C133 C 0.66464 1.05484 0.68044 0.0
C134 C 0.83378 0.24482 0.69102 0.0
C135 C 0.99103 1.08107 0.83225 0.0
H136 H 0.45749 0.19802 0.53459 0.0
H137 H 0.38413 1.11405 0.65166 0.0
H138 H 0.31317 0.32617 0.7436 0.0
H139 H 0.38441 0.40856 0.62603 0.0
H140 H 0.5952 0.18588 0.8068 0.0
H141 H 0.70576 0.29048 0.74067 0.0
H142 H 0.77082 1.09555 0.60219 0.0
H143 H 0.65893 0.9892 0.66775 0.0
Tb144 Tb 0.6467 1.12748 0.20709 0.0
Tb145 Tb 0.49004 0.17727 0.16483 0.0
C146 C 0.55205 1.05511 1.05334 0.0
C147 C 0.8506 1.13769 0.24691 0.0
C148 C 0.96848 0.25302 0.34498 0.0
C149 C 0.9461 0.16549 0.35812 0.0
C150 C 0.8879 1.10823 0.30891 0.0
C151 C 0.87831 0.22382 0.22813 0.0
C152 C 0.93696 0.28102 0.27671 0.0
C153 C 0.76998 1.08539 0.22198 0.0
O154 O 0.69287 0.24721 1.13375 0.0
O155 O 0.58059 0.28595 1.11102 0.0
O156 O 0.55249 0.26887 0.26102 0.0
O157 O 0.66463 0.23343 0.292 0.0
O158 O 0.41264 0.21188 1.08875 0.0
O159 O 0.38544 0.19228 0.22113 0.0
O160 O 0.44388 1.04776 0.21437 0.0
O161 O 0.55122 1.04707 0.29037 0.0
O162 O 0.56981 1.03414 1.12493 0.0
O163 O 0.52548 1.1197 1.05063 0.0
C164 C 0.65886 0.3011 1.10494 0.0
O165 O 0.71556 1.07936 0.28152 0.0
O166 O 0.74602 1.10105 0.1498 0.0
C167 C 0.62121 0.28357 0.299 0.0
C168 C 0.27898 1.1509 1.12864 0.0
C169 C 0.1483 1.04795 1.03765 0.0
C170 C 0.15874 1.13456 1.05217 0.0
C171 C 0.22409 0.18582 1.09736 0.0
C172 C 0.26409 1.06364 1.12261 0.0
C173 C 0.19957 1.01259 1.07706 0.0
C174 C 0.3593 0.20568 0.14945 0.0
C175 C 0.47474 1.01206 0.27037 0.0
H176 H 0.96768 1.14122 0.4108 0.0
H177 H 0.86606 1.04211 0.32509 0.0
H178 H 0.84953 0.24814 0.18112 0.0
H179 H 0.95308 0.34763 0.26424 0.0
H180 H 0.12207 0.16506 1.02168 0.0
H181 H 0.23571 0.25357 1.10128 0.0
H182 H 0.30675 1.03613 1.14591 0.0
H183 H 0.19534 0.94724 1.06657 0.0
Tb184 Tb 0.59116 0.59047 0.64995 0.0
Tb185 Tb 0.55884 0.75509 0.73522 0.0
C186 C 0.50433 0.69894 0.54956 0.0
C187 C 0.71826 0.47139 0.57574 0.0
C188 C 0.88471 0.49145 0.58168 0.0
C189 C 0.85261 0.51096 0.50912 0.0
C190 C 0.77019 0.50084 0.50612 0.0
C191 C 0.75011 0.44858 0.64685 0.0
C192 C 0.83231 0.45836 0.64969 0.0
C193 C 0.63524 0.47673 0.57845 0.0
O194 O 0.69884 0.69556 0.61907 0.0
O195 O 0.68902 0.81041 0.69738 0.0
O196 O 0.60428 0.6951 0.83759 0.0
O197 O 0.65826 0.60327 0.76616 0.0
O198 O 0.54278 0.8739 0.73528 0.0
O199 O 0.49543 0.79097 0.837 0.0
O200 O 0.44802 0.65016 0.72131 0.0
O201 O 0.49357 0.54364 0.74359 0.0
O202 O 0.50651 0.62245 0.56621 0.0
O203 O 0.53624 0.76288 0.60174 0.0
C204 C 0.72985 0.77473 0.64469 0.0
O205 O 0.59638 0.4665 0.65045 0.0
O206 O 0.62629 0.5394 0.5389 0.0
C207 C 0.6438 0.63899 0.83706 0.0
C208 C 0.41147 0.86444 0.78711 0.0
C209 C 0.26064 0.88595 0.75463 0.0
C210 C 0.31137 0.93532 0.81675 0.0
C211 C 0.38458 0.923 0.83428 0.0
C212 C 0.36069 0.81448 0.72527 0.0
C213 C 0.28589 0.82453 0.7098 0.0
C214 C 0.49313 0.85786 0.7998 0.0
C215 C 0.43898 0.58029 0.75919 0.0
H216 H 0.89171 0.53724 0.45606 0.0
H217 H 0.74789 0.52009 0.45075 0.0
H218 H 0.7125 0.4275 0.7022 0.0
H219 H 0.85568 0.44376 0.70678 0.0
H220 H 0.29569 0.98534 0.85031 0.0
H221 H 0.4205 0.96055 0.88393 0.0
H222 H 0.37954 0.76873 0.68772 0.0
H223 H 0.24904 0.78625 0.66063 0.0
Tb224 Tb 0.06856 0.71889 1.1408 0.0
Tb225 Tb 0.07063 0.58104 0.22618 0.0
C226 C 0.08674 0.56078 1.0368 0.0
C227 C 0.96762 0.81841 1.00632 0.0
C228 C 0.8228 0.84054 0.95527 0.0
C229 C 0.86295 0.79648 0.90331 0.0
C230 C 0.93432 0.78516 0.92877 0.0
C231 C 0.92586 0.86028 1.05927 0.0
C232 C 0.85433 0.8711 1.034 0.0
C233 C 0.04562 0.80992 1.03146 0.0
O234 O 0.94154 0.64201 1.1284 0.0
O235 O 0.94895 0.51946 0.17534 0.0
O236 O 0.99412 0.6269 0.31843 0.0
O237 O 1.02179 0.75522 0.26051 0.0
O238 O 0.09378 0.46831 0.18962 0.0
O239 O 0.09369 0.50832 0.31892 0.0
O240 O 0.17722 0.67585 0.28163 0.0
O241 O 0.19122 0.78089 0.19136 0.0
O242 O 0.12295 0.61956 1.09414 0.0
O243 O 0.11951 0.61708 1.09669 0.0
C244 C 0.9093 0.5602 1.13538 0.0
O245 O 0.07015 0.83837 1.10632 0.0
O246 O 0.057 0.73796 1.0129 0.0
C247 C 0.99038 0.70498 0.32276 0.0
C248 C 0.1878 0.4404 0.27605 0.0
C249 C 0.32943 0.40947 0.32001 0.0
C250 C 0.25853 0.34181 0.30316 0.0
C251 C 0.18855 0.35722 0.28023 0.0
C252 C 0.26009 0.50799 0.28734 0.0
C253 C 0.33061 0.49258 0.30893 0.0
C254 C 0.11056 0.45556 0.2653 0.0
C255 C 0.21988 0.75053 0.25377 0.0
H256 H 0.83929 0.77108 0.84275 0.0
H257 H 0.96437 0.7518 0.88701 0.0
H258 H 0.94898 0.88605 1.11987 0.0
H259 H 0.82385 0.90406 1.07574 0.0
H260 H 0.25635 0.27715 0.31144 0.0
H261 H 0.13403 0.30415 0.2697 0.0
H262 H 0.26131 0.57264 0.28273 0.0
H263 H 0.38453 0.54561 0.32196 0.0
loop_
_geom_bond_atom_site_label_1
_geom_bond_atom_site_label_2
_geom_bond_distance
_geom_bond_site_symmetry_2
_ccdc_geom_bond_type
H0 C7 0.929 . S
H1 C10 0.930 . S
H2 C12 0.929 . S
H3 C4 0.969 . S
C4 H3 0.969 . S
C4 O5 1.550 . S
C4 H6 0.973 . S
O5 C4 1.550 . S
O5 C11 1.412 . S
H6 C4 0.973 . S
C7 H0 0.929 . S
C7 C8 1.400 . S
C7 C9 1.364 . S
C8 C7 1.400 . S
C8 C12 1.377 . S
C9 C7 1.364 . S
C9 C10 1.374 . S
C10 H1 0.930 . S
C10 C9 1.374 . S
C10 C11 1.383 . S
C11 O5 1.412 . S
C11 C10 1.383 . S
C11 C12 1.394 . S
C12 H2 0.929 . S
C12 C8 1.377 . S
C12 C11 1.394 . S
H13 C20 0.929 . S
H14 C23 0.929 1_655 S
H15 C25 0.929 . S
H16 C17 0.969 . S
C17 H16 0.969 . S
C17 O18 1.550 . S
C17 H19 0.973 . S
O18 C17 1.550 . S
O18 C24 1.412 . S
H19 C17 0.973 . S
C20 H13 0.929 . S
C20 C21 1.400 . S
C20 C22 1.364 1_455 S
C21 C20 1.400 . S
C21 C25 1.377 . S
C22 C20 1.364 1_655 S
C22 C23 1.374 1_655 S
C23 H14 0.929 1_455 S
C23 C22 1.374 1_455 S
C23 C24 1.383 . S
C24 O18 1.412 . S
C24 C23 1.383 . S
C24 C25 1.394 . S
C25 H15 0.929 . S
C25 C21 1.377 . S
C25 C24 1.394 . S
H26 C33 0.929 . S
H27 C36 0.930 . S
H28 C38 0.929 . S
H29 C30 0.969 . S
C30 H29 0.969 . S
C30 O31 1.550 . S
C30 H32 0.973 . S
O31 C30 1.550 . S
O31 C37 1.412 . S
H32 C30 0.973 . S
C33 H26 0.929 . S
C33 C34 1.400 . S
C33 C35 1.364 . S
C34 C33 1.400 . S
C34 C38 1.377 . S
C35 C33 1.364 . S
C35 C36 1.374 . S
C36 H27 0.930 . S
C36 C35 1.374 . S
C36 C37 1.383 . S
C37 O31 1.412 . S
C37 C36 1.383 . S
C37 C38 1.394 . S
C38 H28 0.929 . S
C38 C34 1.377 . S
C38 C37 1.394 . S
H39 C46 0.929 . S
H40 C49 0.930 . S
H41 C51 0.929 1_455 S
H42 C43 0.969 . S
C43 H42 0.969 . S
C43 O44 1.550 . S
C43 H45 0.973 . S
O44 C43 1.550 . S
O44 C50 1.412 . S
H45 C43 0.973 . S
C46 H39 0.929 . S
C46 C47 1.400 . S
C46 C48 1.364 . S
C47 C46 1.400 . S
C47 C51 1.377 . S
C48 C46 1.364 . S
C48 C49 1.374 . S
C49 H40 0.930 . S
C49 C48 1.374 . S
C49 C50 1.383 . S
C50 O44 1.412 . S
C50 C49 1.383 . S
C50 C51 1.394 . S
C51 H41 0.929 1_655 S
C51 C47 1.377 . S
C51 C50 1.394 . S
H52 C59 0.929 . S
H53 C62 0.930 . S
H54 C64 0.929 . S
H55 C56 0.969 . S
C56 H55 0.969 . S
C56 O57 1.550 . S
C56 H58 0.973 1_556 S
O57 C56 1.550 . S
O57 C63 1.412 . S
H58 C56 0.973 1_554 S
C59 H52 0.929 . S
C59 C60 1.400 . S
C59 C61 1.364 . S
C60 C59 1.400 . S
C60 C64 1.377 . S
C61 C59 1.364 . S
C61 C62 1.374 . S
C62 H53 0.930 . S
C62 C61 1.374 . S
C62 C63 1.383 . S
C63 O57 1.412 . S
C63 C62 1.383 . S
C63 C64 1.394 . S
C64 H54 0.929 . S
C64 C60 1.377 . S
C64 C63 1.394 . S
H65 C72 0.929 . S
H66 C75 0.930 . S
H67 C77 0.929 . S
H68 C69 0.969 . S
C69 H68 0.969 . S
C69 O70 1.550 1_655 S
C69 H71 0.973 . S
O70 C69 1.550 1_455 S
O70 C76 1.412 1_455 S
H71 C69 0.973 . S
C72 H65 0.929 . S
C72 C73 1.400 . S
C72 C74 1.364 1_455 S
C73 C72 1.400 . S
C73 C77 1.377 . S
C74 C72 1.364 1_655 S
C74 C75 1.374 . S
C75 H66 0.930 . S
C75 C74 1.374 . S
C75 C76 1.383 . S
C76 O70 1.412 1_655 S
C76 C75 1.383 . S
C76 C77 1.394 1_655 S
C77 H67 0.929 . S
C77 C73 1.377 . S
C77 C76 1.394 1_455 S
H78 C85 0.929 . S
H79 C88 0.930 . S
H80 C90 0.929 . S
H81 C82 0.969 . S
C82 H81 0.969 . S
C82 O83 1.550 . S
C82 H84 0.973 . S
O83 C82 1.550 . S
O83 C89 1.412 . S
H84 C82 0.973 . S
C85 H78 0.929 . S
C85 C86 1.400 . S
C85 C87 1.364 . S
C86 C85 1.400 . S
C86 C90 1.377 . S
C87 C85 1.364 . S
C87 C88 1.374 . S
C88 H79 0.930 . S
C88 C87 1.374 . S
C88 C89 1.383 . S
C89 O83 1.412 . S
C89 C88 1.383 . S
C89 C90 1.394 . S
C90 H80 0.929 . S
C90 C86 1.377 . S
C90 C89 1.394 . S
H91 C98 0.929 1_655 S
H92 C101 0.930 . S
H93 C103 0.929 . S
H94 C95 0.969 . S
C95 H94 0.969 . S
C95 O96 1.550 . S
C95 H97 0.973 . S
O96 C95 1.550 . S
O96 C102 1.412 . S
H97 C95 0.973 . S
C98 H91 0.929 1_455 S
C98 C99 1.400 . S
C98 C100 1.364 . S
C99 C98 1.400 . S
C99 C103 1.377 . S
C100 C98 1.364 . S
C100 C101 1.374 . S
C101 H92 0.930 . S
C101 C100 1.374 . S
C101 C102 1.383 . S
C102 O96 1.412 . S
C102 C101 1.383 . S
C102 C103 1.394 . S
C103 H93 0.929 . S
C103 C99 1.377 . S
C103 C102 1.394 . S
Tb104 C113 2.764 . S
Tb104 O114 2.325 . S
Tb104 O117 2.303 . S
Tb104 O121 2.322 1_545 S
Tb104 O122 2.349 1_545 S
Tb104 O125 2.415 . S
Tb104 O126 2.399 . S
Tb105 O115 2.322 . S
Tb105 O116 2.349 . S
Tb105 O118 2.415 1_545 S
Tb105 O119 2.399 . S
Tb105 O120 2.325 1_545 S
Tb105 O123 2.303 1_545 S
Tb105 C134 2.764 1_545 S
C106 O122 1.261 1_655 S
C106 O123 1.257 . S
C107 C110 1.358 . S
C107 C111 1.332 . S
C107 C113 1.504 . S
C108 C109 1.373 . S
C108 C112 1.308 . S
C109 C108 1.373 . S
C109 C110 1.429 . S
C109 H136 0.932 . S
C110 C107 1.358 . S
C110 C109 1.429 . S
C110 H137 0.930 . S
C111 C107 1.332 . S
C111 C112 1.394 . S
C111 H138 0.932 . S
C112 C108 1.308 . S
C112 C111 1.394 . S
C112 H139 0.929 . S
C113 Tb104 2.764 . S
C113 C107 1.504 . S
C113 O125 1.239 . S
C113 O126 1.263 . S
O114 Tb104 2.325 . S
O114 C124 1.236 1_455 S
O115 Tb105 2.322 . S
O115 C124 1.257 . S
O116 Tb105 2.349 . S
O116 C127 1.261 1_655 S
O117 Tb104 2.303 . S
O117 C127 1.257 . S
O118 Tb105 2.415 1_565 S
O118 C134 1.239 . S
O119 Tb105 2.399 . S
O119 C134 1.263 1_545 S
O120 Tb105 2.325 1_565 S
O120 C135 1.236 1_655 S
O121 Tb104 2.322 1_565 S
O121 C135 1.257 . S
O122 Tb104 2.349 1_565 S
O122 C106 1.261 1_455 S
O123 Tb105 2.303 1_565 S
O123 C106 1.257 . S
C124 O114 1.236 1_655 S
C124 O115 1.257 . S
O125 Tb104 2.415 . S
O125 C113 1.239 . S
O126 Tb104 2.399 . S
O126 C113 1.263 . S
C127 O116 1.261 1_455 S
C127 O117 1.257 . S
C128 C131 1.358 . S
C128 C132 1.332 . S
C128 C134 1.504 . S
C129 C130 1.373 . S
C129 C133 1.308 . S
C130 C129 1.373 . S
C130 C131 1.429 . S
C130 H140 0.932 . S
C131 C128 1.358 . S
C131 C130 1.429 . S
C131 H141 0.930 . S
C132 C128 1.332 . S
C132 C133 1.394 . S
C132 H142 0.932 . S
C133 C129 1.308 . S
C133 C132 1.394 . S
C133 H143 0.929 . S
C134 Tb105 2.764 1_565 S
C134 O118 1.239 . S
C134 O119 1.263 1_565 S
C134 C128 1.504 . S
C135 O120 1.236 1_455 S
C135 O121 1.257 . S
H136 C109 0.932 . S
H137 C110 0.930 . S
H138 C111 0.932 . S
H139 C112 0.929 . S
H140 C130 0.932 . S
H141 C131 0.930 . S
H142 C132 0.932 . S
H143 C133 0.929 . S
Tb144 C153 2.764 . S
Tb144 O154 2.325 1_554 S
Tb144 O157 2.303 . S
Tb144 O161 2.322 1_545 S
Tb144 O162 2.349 1_544 S
Tb144 O165 2.415 . S
Tb144 O166 2.399 . S
Tb145 O155 2.322 . S
Tb145 O156 2.349 1_556 S
Tb145 O158 2.415 1_545 S
Tb145 O159 2.399 1_545 S
Tb145 O160 2.325 1_546 S
Tb145 O163 2.303 1_545 S
Tb145 C174 2.764 1_545 S
C146 O162 1.261 . S
C146 O163 1.257 . S
C147 C150 1.358 . S
C147 C151 1.332 . S
C147 C153 1.504 . S
C148 C149 1.373 1_655 S
C148 C152 1.310 . S
C149 C148 1.373 1_455 S
C149 C150 1.429 1_455 S
C149 H176 0.932 . S
C150 C147 1.358 . S
C150 C149 1.429 1_655 S
C150 H177 0.930 . S
C151 C147 1.332 . S
C151 C152 1.394 . S
C151 H178 0.932 . S
C152 C148 1.310 . S
C152 C151 1.394 . S
C152 H179 0.929 . S
C153 Tb144 2.764 . S
C153 C147 1.504 . S
C153 O165 1.239 . S
C153 O166 1.263 . S
O154 Tb144 2.325 1_556 S
O154 C164 1.236 . S
O155 Tb145 2.322 . S
O155 C164 1.257 . S
O156 Tb145 2.349 1_554 S
O156 C167 1.261 . S
O157 Tb144 2.303 . S
O157 C167 1.257 . S
O158 Tb145 2.415 1_565 S
O158 C174 1.239 . S
O159 Tb145 2.399 1_565 S
O159 C174 1.263 . S
O160 Tb145 2.325 1_564 S
O160 C175 1.236 . S
O161 Tb144 2.322 1_565 S
O161 C175 1.257 . S
O162 Tb144 2.349 1_566 S
O162 C146 1.261 . S
O163 Tb145 2.303 1_565 S
O163 C146 1.257 . S
C164 O154 1.236 . S
C164 O155 1.257 . S
O165 Tb144 2.415 . S
O165 C153 1.239 . S
O166 Tb144 2.399 . S
O166 C153 1.263 . S
C167 O156 1.261 . S
C167 O157 1.257 . S
C168 C171 1.358 . S
C168 C172 1.332 . S
C168 C174 1.504 . S
C169 C170 1.373 . S
C169 C173 1.308 . S
C170 C169 1.373 . S
C170 C171 1.429 . S
C170 H180 0.932 . S
C171 C168 1.358 . S
C171 C170 1.429 . S
C171 H181 0.930 . S
C172 C168 1.332 . S
C172 C173 1.394 . S
C172 H182 0.932 . S
C173 C169 1.308 . S
C173 C172 1.394 . S
C173 H183 0.929 . S
C174 Tb145 2.764 1_565 S
C174 O158 1.239 . S
C174 O159 1.263 . S
C174 C168 1.504 . S
C175 O160 1.236 . S
C175 O161 1.257 . S
H176 C149 0.932 . S
H177 C150 0.930 . S
H178 C151 0.932 . S
H179 C152 0.929 . S
H180 C170 0.932 . S
H181 C171 0.930 . S
H182 C172 0.932 . S
H183 C173 0.929 . S
Tb184 C193 2.764 . S
Tb184 O194 2.325 . S
Tb184 O197 2.303 . S
Tb184 O201 2.322 . S
Tb184 O202 2.349 . S
Tb184 O205 2.415 . S
Tb184 O206 2.399 . S
Tb185 O195 2.322 . S
Tb185 O196 2.349 . S
Tb185 O198 2.415 . S
Tb185 O199 2.399 . S
Tb185 O200 2.325 . S
Tb185 O203 2.303 . S
Tb185 C214 2.764 . S
C186 O202 1.261 . S
C186 O203 1.257 . S
C187 C190 1.358 . S
C187 C191 1.332 . S
C187 C193 1.504 . S
C188 C189 1.373 . S
C188 C192 1.308 . S
C189 C188 1.373 . S
C189 C190 1.429 . S
C189 H216 0.932 . S
C190 C187 1.358 . S
C190 C189 1.429 . S
C190 H217 0.930 . S
C191 C187 1.332 . S
C191 C192 1.394 . S
C191 H218 0.932 . S
C192 C188 1.308 . S
C192 C191 1.394 . S
C192 H219 0.929 . S
C193 Tb184 2.764 . S
C193 C187 1.504 . S
C193 O205 1.239 . S
C193 O206 1.263 . S
O194 Tb184 2.325 . S
O194 C204 1.236 . S
O195 Tb185 2.322 . S
O195 C204 1.257 . S
O196 Tb185 2.349 . S
O196 C207 1.261 . S
O197 Tb184 2.303 . S
O197 C207 1.257 . S
O198 Tb185 2.415 . S
O198 C214 1.239 . S
O199 Tb185 2.399 . S
O199 C214 1.263 . S
O200 Tb185 2.325 . S
O200 C215 1.236 . S
O201 Tb184 2.322 . S
O201 C215 1.257 . S
O202 Tb184 2.349 . S
O202 C186 1.261 . S
O203 Tb185 2.303 . S
O203 C186 1.257 . S
C204 O194 1.236 . S
C204 O195 1.257 . S
O205 Tb184 2.415 . S
O205 C193 1.239 . S
O206 Tb184 2.399 . S
O206 C193 1.263 . S
C207 O196 1.261 . S
C207 O197 1.257 . S
C208 C211 1.358 . S
C208 C212 1.332 . S
C208 C214 1.504 . S
C209 C210 1.373 . S
C209 C213 1.308 . S
C210 C209 1.373 . S
C210 C211 1.429 . S
C210 H220 0.932 . S
C211 C208 1.358 . S
C211 C210 1.429 . S
C211 H221 0.930 . S
C212 C208 1.332 . S
C212 C213 1.394 . S
C212 H222 0.932 . S
C213 C209 1.308 . S
C213 C212 1.394 . S
C213 H223 0.929 . S
C214 Tb185 2.764 . S
C214 O198 1.239 . S
C214 O199 1.263 . S
C214 C208 1.504 . S
C215 O200 1.236 . S
C215 O201 1.257 . S
H216 C189 0.932 . S
H217 C190 0.930 . S
H218 C191 0.932 . S
H219 C192 0.929 . S
H220 C210 0.932 . S
H221 C211 0.930 . S
H222 C212 0.932 . S
H223 C213 0.929 . S
Tb224 C233 2.764 1_554 S
Tb224 O234 2.325 . S
Tb224 O237 2.303 . S
Tb224 O241 2.322 1_655 S
Tb224 O242 2.349 1_654 S
Tb224 O245 2.415 . S
Tb224 O246 2.399 1_554 S
Tb225 O235 2.322 1_455 S
Tb225 O236 2.349 1_455 S
Tb225 O238 2.415 . S
Tb225 O239 2.399 . S
Tb225 O240 2.325 . S
Tb225 O243 2.303 . S
Tb225 C254 2.764 . S
C226 O242 1.261 . S
C226 O243 1.257 1_556 S
C227 C230 1.358 . S
C227 C231 1.332 . S
C227 C233 1.504 . S
C228 C229 1.373 . S
C228 C232 1.308 . S
C229 C228 1.373 . S
C229 C230 1.429 . S
C229 H256 0.932 . S
C230 C227 1.358 . S
C230 C229 1.429 . S
C230 H257 0.930 . S
C231 C227 1.332 . S
C231 C232 1.394 . S
C231 H258 0.932 1_556 S
C232 C228 1.308 . S
C232 C231 1.394 . S
C232 H259 0.929 . S
C233 Tb224 2.764 1_556 S
C233 C227 1.504 . S
C233 O245 1.239 1_556 S
C233 O246 1.263 . S
O234 Tb224 2.325 . S
O234 C244 1.236 . S
O235 Tb225 2.322 1_655 S
O235 C244 1.257 . S
O236 Tb225 2.349 1_655 S
O236 C247 1.261 . S
O237 Tb224 2.303 . S
O237 C247 1.257 . S
O238 Tb225 2.415 . S
O238 C254 1.239 . S
O239 Tb225 2.399 . S
O239 C254 1.263 . S
O240 Tb225 2.325 . S
O240 C255 1.236 . S
O241 Tb224 2.322 1_455 S
O241 C255 1.257 . S
O242 Tb224 2.349 1_456 S
O242 C226 1.261 . S
O243 Tb225 2.303 . S
O243 C226 1.257 1_554 S
C244 O234 1.236 . S
C244 O235 1.257 . S
O245 Tb224 2.415 . S
O245 C233 1.239 1_554 S
O246 Tb224 2.399 1_556 S
O246 C233 1.263 . S
C247 O236 1.261 . S
C247 O237 1.257 . S
C248 C251 1.358 . S
C248 C252 1.332 . S
C248 C254 1.504 . S
C249 C250 1.373 . S
C249 C253 1.308 . S
C250 C249 1.373 . S
C250 C251 1.429 . S
C250 H260 0.932 . S
C251 C248 1.358 . S
C251 C250 1.429 . S
C251 H261 0.930 . S
C252 C248 1.332 . S
C252 C253 1.394 . S
C252 H262 0.932 . S
C253 C249 1.308 . S
C253 C252 1.394 . S
C253 H263 0.929 . S
C254 Tb225 2.764 . S
C254 O238 1.239 . S
C254 O239 1.263 . S
C254 C248 1.504 . S
C255 O240 1.236 . S
C255 O241 1.257 . S
H256 C229 0.932 . S
H257 C230 0.930 . S
H258 C231 0.932 1_554 S
H259 C232 0.929 . S
H260 C250 0.932 . S
H261 C251 0.930 . S
H262 C252 0.932 . S
H263 C253 0.929 . S
C9 C108 1.410 . S
C21 C169 1.774 . S
C207 C30 3.494 . S
C43 C247 3.430 . S
C167 C4 2.323 . S
C135 C22 2.880 1_455 S
C244 C34 2.245 1_554 S
C204 C48 2.644 . S
C8 C249 2.633 . S
C164 C35 3.638 . S
C47 C106 3.789 . S
C17 C209 2.794 . S
C129 C60 1.123 . S
C74 C148 1.846 . S
C82 C186 2.976 . S
C100 C226 4.471 . S
C61 C146 2.534 . S
C124 C73 2.454 1_655 S
C255 C87 2.834 . S
C215 C95 2.479 . S
C56 C228 2.382 . S
C175 C86 3.736 . S
C127 C99 3.746 . S
C69 C188 1.705 . S
