# Generated by pormake.
# Topology pyr, (3,6)-cn, num edge types: 1
# Building blocks:
#     Node 0, Type 0, BuildingBlock: BELTOD_clean_linker_0, # of connection points: 3
#     Node 1, Type 0, BuildingBlock: BELTOD_clean_linker_0, # of connection points: 3
#     Node 2, Type 0, BuildingBlock: BELTOD_clean_linker_0, # of connection points: 3
#     Node 3, Type 0, BuildingBlock: BELTOD_clean_linker_0, # of connection points: 3
#     Node 4, Type 0, BuildingBlock: BELTOD_clean_linker_0, # of connection points: 3
#     Node 5, Type 0, BuildingBlock: BELTOD_clean_linker_0, # of connection points: 3
#     Node 6, Type 0, BuildingBlock: BELTOD_clean_linker_0, # of connection points: 3
#     Node 7, Type 0, BuildingBlock: BELTOD_clean_linker_0, # of connection points: 3
#     Node 8, Type 1, BuildingBlock: VOLQOD_clean_sbu_1, # of connection points: 6
#     Node 9, Type 1, BuildingBlock: VOLQOD_clean_sbu_1, # of connection points: 6
#     Node 10, Type 1, BuildingBlock: VOLQOD_clean_sbu_1, # of connection points: 6
#     Node 11, Type 1, BuildingBlock: VOLQOD_clean_sbu_1, # of connection points: 6
#     Edge 12, Type (0, 1), BuildingBlock: EZIPEK_clean_linker_0, # of connection points: 2
#     Edge 13, Type (0, 1), BuildingBlock: EZIPEK_clean_linker_0, # of connection points: 2
#     Edge 14, Type (0, 1), BuildingBlock: EZIPEK_clean_linker_0, # of connection points: 2
#     Edge 15, Type (0, 1), BuildingBlock: EZIPEK_clean_linker_0, # of connection points: 2
#     Edge 16, Type (0, 1), BuildingBlock: EZIPEK_clean_linker_0, # of connection points: 2
#     Edge 17, Type (0, 1), BuildingBlock: EZIPEK_clean_linker_0, # of connection points: 2
#     Edge 18, Type (0, 1), BuildingBlock: EZIPEK_clean_linker_0, # of connection points: 2
#     Edge 19, Type (0, 1), BuildingBlock: EZIPEK_clean_linker_0, # of connection points: 2
#     Edge 20, Type (0, 1), BuildingBlock: EZIPEK_clean_linker_0, # of connection points: 2
#     Edge 21, Type (0, 1), BuildingBlock: EZIPEK_clean_linker_0, # of connection points: 2
#     Edge 22, Type (0, 1), BuildingBlock: EZIPEK_clean_linker_0, # of connection points: 2
#     Edge 23, Type (0, 1), BuildingBlock: EZIPEK_clean_linker_0, # of connection points: 2
#     Edge 24, Type (0, 1), BuildingBlock: EZIPEK_clean_linker_0, # of connection points: 2
#     Edge 25, Type (0, 1), BuildingBlock: EZIPEK_clean_linker_0, # of connection points: 2
#     Edge 26, Type (0, 1), BuildingBlock: EZIPEK_clean_linker_0, # of connection points: 2
#     Edge 27, Type (0, 1), BuildingBlock: EZIPEK_clean_linker_0, # of connection points: 2
#     Edge 28, Type (0, 1), BuildingBlock: EZIPEK_clean_linker_0, # of connection points: 2
#     Edge 29, Type (0, 1), BuildingBlock: EZIPEK_clean_linker_0, # of connection points: 2
#     Edge 30, Type (0, 1), BuildingBlock: EZIPEK_clean_linker_0, # of connection points: 2
#     Edge 31, Type (0, 1), BuildingBlock: EZIPEK_clean_linker_0, # of connection points: 2
#     Edge 32, Type (0, 1), BuildingBlock: EZIPEK_clean_linker_0, # of connection points: 2
#     Edge 33, Type (0, 1), BuildingBlock: EZIPEK_clean_linker_0, # of connection points: 2
#     Edge 34, Type (0, 1), BuildingBlock: EZIPEK_clean_linker_0, # of connection points: 2
#     Edge 35, Type (0, 1), BuildingBlock: EZIPEK_clean_linker_0, # of connection points: 2
# Relax obj value: 0.036
# Max RMSD: 0.117
# Mean RMSD: 0.050
data_MOF--net-pry--node1-VOLQOD_clean_sbu_1--node2-BELTOD_clean_linker_0--edge1-EZIPEK_clean_linker_0
_symmetry_space_group_name_H-M    P1
_symmetry_Int_Tables_number       1
_symmetry_cell_setting            triclinic
loop_
_symmetry_equiv_pos_as_xyz
'x, y, z'
_cell_length_a     32.615508
_cell_length_b     32.918966
_cell_length_c     32.463504
_cell_angle_alpha  89.86026
_cell_angle_beta   90.291345
_cell_angle_gamma 89.843655
loop_
_atom_site_label
_atom_site_type_symbol
_atom_site_fract_x
_atom_site_fract_y
_atom_site_fract_z
_atom_type_partial_charge
P0 P 0.16854 0.16522 0.18597 0.0
H1 H 0.22556 0.18504 0.12146 0.0
H2 H 0.27283 0.14319 0.08125 0.0
H3 H 0.21688 0.03476 0.12977 0.0
H4 H 0.16942 0.07662 0.1702 0.0
H5 H 0.17382 0.25358 0.18424 0.0
H6 H 0.13337 0.30594 0.14957 0.0
H7 H 0.05649 0.21381 0.09528 0.0
H8 H 0.09883 0.16074 0.12841 0.0
H9 H 0.19387 0.11107 0.25156 0.0
H10 H 0.07928 0.15669 0.20259 0.0
O11 O 0.20523 0.18868 0.21283 0.0
H12 H 0.15676 0.07823 0.30797 0.0
H13 H 0.04234 0.1229 0.25825 0.0
C14 C 0.19443 0.13393 0.14911 0.0
C15 C 0.2226 0.15228 0.12254 0.0
C16 C 0.24944 0.12849 0.09954 0.0
C17 C 0.24823 0.08606 0.10274 0.0
C18 C 0.21793 0.06752 0.12684 0.0
C19 C 0.19111 0.09143 0.15006 0.0
C20 C 0.13883 0.2033 0.15945 0.0
C21 C 0.14854 0.24438 0.1647 0.0
C22 C 0.12549 0.27432 0.14489 0.0
C23 C 0.09191 0.26371 0.12002 0.0
C24 C 0.08236 0.22252 0.11432 0.0
C25 C 0.10627 0.19241 0.13333 0.0
C26 C 0.1395 0.1365 0.22292 0.0
C27 C 0.16075 0.11344 0.25248 0.0
C28 C 0.13966 0.09467 0.28455 0.0
C29 C 0.09694 0.09846 0.28728 0.0
C30 C 0.07536 0.11977 0.25655 0.0
C31 C 0.09656 0.13898 0.2247 0.0
P32 P 0.42153 0.91037 0.58735 0.0
H33 H 0.49401 0.93324 0.63554 0.0
H34 H 0.50424 0.94591 0.70952 0.0
H35 H 0.37715 0.91797 0.7318 0.0
H36 H 0.36689 0.90512 0.65816 0.0
H37 H 0.47822 0.8587 0.54102 0.0
H38 H 0.47868 0.78554 0.52667 0.0
H39 H 0.3694 0.77075 0.59942 0.0
H40 H 0.36941 0.84372 0.61457 0.0
H41 H 0.3784 0.98511 0.60855 0.0
H42 H 0.35574 0.87922 0.53361 0.0
O43 O 0.45724 0.93432 0.55991 0.0
H44 H 0.30671 0.00631 0.59913 0.0
H45 H 0.2841 0.89989 0.52528 0.0
C46 C 0.42956 0.91899 0.64139 0.0
C47 C 0.46837 0.9299 0.65632 0.0
C48 C 0.47423 0.93701 0.69836 0.0
C49 C 0.44135 0.93301 0.72578 0.0
C50 C 0.40276 0.92127 0.71094 0.0
C51 C 0.39698 0.91403 0.669 0.0
C52 C 0.42368 0.85654 0.57867 0.0
C53 C 0.45458 0.83973 0.55419 0.0
C54 C 0.45481 0.79811 0.54596 0.0
C55 C 0.42403 0.77297 0.56198 0.0
C56 C 0.3934 0.78975 0.58691 0.0
C57 C 0.39352 0.83125 0.59558 0.0
C58 C 0.37189 0.92982 0.57315 0.0
C59 C 0.35819 0.96668 0.5898 0.0
C60 C 0.31745 0.97875 0.58449 0.0
C61 C 0.29022 0.95412 0.56227 0.0
C62 C 0.30472 0.91888 0.54299 0.0
C63 C 0.34552 0.90703 0.54801 0.0
P64 P 0.65905 0.33172 0.83176 0.0
H65 H 0.73762 0.36791 0.813 0.0
H66 H 0.78796 0.40456 0.85495 0.0
H67 H 0.70803 0.39624 0.96004 0.0
H68 H 0.6573 0.35947 0.9179 0.0
H69 H 0.68198 0.25752 0.87371 0.0
H70 H 0.64219 0.2056 0.90992 0.0
H71 H 0.53266 0.27791 0.89479 0.0
H72 H 0.5726 0.33028 0.85874 0.0
H73 H 0.65213 0.4209 0.82373 0.0
H74 H 0.59637 0.31399 0.77109 0.0
O75 O 0.68649 0.30367 0.79913 0.0
H76 H 0.61636 0.46342 0.77281 0.0
H77 H 0.56041 0.35672 0.72044 0.0
C78 C 0.69435 0.36022 0.86271 0.0
C79 C 0.73084 0.37399 0.84502 0.0
C80 C 0.75938 0.39504 0.86878 0.0
C81 C 0.75155 0.40287 0.91041 0.0
C82 C 0.71438 0.39037 0.92788 0.0
C83 C 0.68571 0.36927 0.90398 0.0
C84 C 0.63002 0.29715 0.86284 0.0
C85 C 0.64952 0.26248 0.87861 0.0
C86 C 0.62695 0.23301 0.89932 0.0
C87 C 0.58463 0.23805 0.90474 0.0
C88 C 0.56535 0.27371 0.89081 0.0
C89 C 0.58807 0.30334 0.87009 0.0
C90 C 0.62694 0.36424 0.80098 0.0
C91 C 0.63156 0.40662 0.80194 0.0
C92 C 0.6111 0.43094 0.77306 0.0
C93 C 0.58592 0.41301 0.7431 0.0
C94 C 0.57961 0.37092 0.74359 0.0
C95 C 0.60011 0.34666 0.77234 0.0
P96 P 0.82565 0.70892 0.34992 0.0
H97 H 0.83607 0.79279 0.37521 0.0
H98 H 0.88385 0.8255 0.42289 0.0
H99 H 0.93919 0.70939 0.45068 0.0
H100 H 0.89094 0.67629 0.40269 0.0
H101 H 0.79712 0.6364 0.30718 0.0
H102 H 0.83006 0.59082 0.25791 0.0
H103 H 0.94174 0.6601 0.26721 0.0
H104 H 0.90915 0.70539 0.31733 0.0
H105 H 0.74338 0.7328 0.37495 0.0
H106 H 0.82448 0.63016 0.39147 0.0
O107 O 0.80356 0.74417 0.32011 0.0
H108 H 0.688 0.69486 0.40823 0.0
H109 H 0.76865 0.59175 0.42357 0.0
C110 C 0.8607 0.73237 0.38495 0.0
C111 C 0.85849 0.7743 0.39136 0.0
C112 C 0.88555 0.79289 0.4186 0.0
C113 C 0.91491 0.76972 0.43988 0.0
C114 C 0.91668 0.72755 0.43425 0.0
C115 C 0.88939 0.70887 0.40695 0.0
C116 C 0.85113 0.67349 0.31686 0.0
C117 C 0.82905 0.64115 0.29967 0.0
C118 C 0.84773 0.61517 0.2716 0.0
C119 C 0.88834 0.62196 0.25959 0.0
C120 C 0.91056 0.65416 0.27684 0.0
C121 C 0.89195 0.67994 0.30526 0.0
C122 C 0.78735 0.68362 0.37961 0.0
C123 C 0.74932 0.70229 0.38603 0.0
C124 C 0.71791 0.68082 0.40513 0.0
C125 C 0.72434 0.64049 0.41773 0.0
C126 C 0.76326 0.62281 0.4138 0.0
C127 C 0.79486 0.64458 0.39532 0.0
P128 P 0.92315 0.92906 0.96184 0.0
H129 H 0.87021 0.94918 0.03091 0.0
H130 H 0.79564 0.95908 0.03612 0.0
H131 H 0.78374 0.94377 0.90473 0.0
H132 H 0.85793 0.93369 0.89942 0.0
H133 H 0.98549 0.88282 0.00742 0.0
H134 H 0.9957 0.80938 0.01755 0.0
H135 H 0.88372 0.7856 0.95082 0.0
H136 H 0.87332 0.85861 0.94082 0.0
H137 H 0.92747 0.00263 0.91219 0.0
H138 H 0.95901 0.87586 0.89827 0.0
O139 O 0.9496 0.95713 0.99537 0.0
H140 H 0.94485 0.01446 0.83948 0.0
H141 H 0.97586 0.88781 0.82613 0.0
C142 C 0.86966 0.94179 0.96471 0.0
C143 C 0.85165 0.94875 0.00316 0.0
C144 C 0.80927 0.95413 0.00618 0.0
C145 C 0.78454 0.95225 0.97076 0.0
C146 C 0.80255 0.94557 0.93227 0.0
C147 C 0.84487 0.94016 0.92928 0.0
C148 C 0.9282 0.87611 0.97421 0.0
C149 C 0.96274 0.86185 0.99572 0.0
C150 C 0.96866 0.82014 0.00133 0.0
C151 C 0.94033 0.79247 0.98498 0.0
C152 C 0.90566 0.80672 0.96379 0.0
C153 C 0.89966 0.84833 0.95837 0.0
C154 C 0.9417 0.93844 0.91063 0.0
C155 C 0.93867 0.97759 0.89379 0.0
C156 C 0.94844 0.98432 0.85248 0.0
C157 C 0.96137 0.95189 0.82776 0.0
C158 C 0.96583 0.91306 0.84494 0.0
C159 C 0.95611 0.90635 0.88616 0.0
P160 P 0.66992 0.15208 0.34626 0.0
H161 H 0.66886 0.1821 0.43181 0.0
H162 H 0.62912 0.23615 0.46456 0.0
H163 H 0.56014 0.25346 0.35216 0.0
H164 H 0.59873 0.1982 0.31979 0.0
H165 H 0.75809 0.13897 0.34665 0.0
H166 H 0.80419 0.10368 0.39427 0.0
H167 H 0.70084 0.06516 0.46679 0.0
H168 H 0.65412 0.10047 0.41849 0.0
H169 H 0.6793 0.12859 0.26052 0.0
H170 H 0.59758 0.1015 0.36102 0.0
O171 O 0.69891 0.18169 0.3165 0.0
H172 H 0.63695 0.0877 0.21424 0.0
H173 H 0.55528 0.05974 0.31438 0.0
C174 C 0.63614 0.18554 0.37358 0.0
C175 C 0.64419 0.19629 0.41462 0.0
C176 C 0.62168 0.22727 0.4333 0.0
C177 C 0.59186 0.24872 0.41067 0.0
C178 C 0.58289 0.23704 0.37012 0.0
C179 C 0.60487 0.20557 0.35172 0.0
C180 C 0.70282 0.12296 0.3796 0.0
C181 C 0.74512 0.12277 0.37252 0.0
C182 C 0.77142 0.10253 0.39955 0.0
C183 C 0.75577 0.08204 0.4339 0.0
C184 C 0.71328 0.08081 0.44028 0.0
C185 C 0.68681 0.10095 0.41292 0.0
C186 C 0.64104 0.11857 0.3139 0.0
C187 C 0.65246 0.11359 0.27271 0.0
C188 C 0.62846 0.09019 0.24636 0.0
C189 C 0.59302 0.07114 0.261 0.0
C190 C 0.58256 0.07441 0.30273 0.0
C191 C 0.60655 0.09817 0.32914 0.0
P192 P 0.41589 0.5739 0.0688 0.0
H193 H 0.35373 0.62495 0.02651 0.0
H194 H 0.2795 0.6172 0.01873 0.0
H195 H 0.287 0.49755 0.07269 0.0
H196 H 0.3613 0.50567 0.08172 0.0
H197 H 0.4804 0.61166 0.01882 0.0
H198 H 0.50004 0.683 0.00812 0.0
H199 H 0.40468 0.72118 0.09111 0.0
H200 H 0.38534 0.65018 0.10225 0.0
H201 H 0.48228 0.53613 0.11665 0.0
H202 H 0.36325 0.58891 0.13958 0.0
O203 O 0.44484 0.5425 0.04097 0.0
H204 H 0.49076 0.52317 0.19094 0.0
H205 H 0.37204 0.57635 0.21347 0.0
C206 C 0.36289 0.56617 0.05558 0.0
C207 C 0.33964 0.59703 0.03673 0.0
C208 C 0.2973 0.59263 0.03212 0.0
C209 C 0.27794 0.55704 0.04562 0.0
C210 C 0.30151 0.52533 0.06241 0.0
C211 C 0.34377 0.5299 0.06735 0.0
C212 C 0.43125 0.62574 0.06112 0.0
C213 C 0.46382 0.63532 0.03483 0.0
C214 C 0.47508 0.67585 0.02877 0.0
C215 C 0.45363 0.70701 0.0488 0.0
C216 C 0.42145 0.69737 0.07546 0.0
C217 C 0.41052 0.65694 0.0818 0.0
C218 C 0.42191 0.56285 0.12266 0.0
C219 C 0.45795 0.54463 0.13753 0.0
C220 C 0.46283 0.53734 0.17972 0.0
C221 C 0.43188 0.54872 0.20727 0.0
C222 C 0.39606 0.56729 0.19244 0.0
C223 C 0.39113 0.57437 0.15037 0.0
P224 P 0.17694 0.34059 0.70785 0.0
H225 H 0.18567 0.25659 0.68311 0.0
H226 H 0.13697 0.20709 0.65506 0.0
H227 H 0.04013 0.29633 0.66096 0.0
H228 H 0.08873 0.34604 0.68881 0.0
H229 H 0.25805 0.37573 0.70384 0.0
H230 H 0.29714 0.40603 0.6474 0.0
H231 H 0.19609 0.38497 0.56399 0.0
H232 H 0.15676 0.35448 0.62057 0.0
H233 H 0.15041 0.34465 0.79251 0.0
H234 H 0.14321 0.42016 0.68377 0.0
O235 O 0.20959 0.31679 0.73954 0.0
H236 H 0.1082 0.39369 0.8299 0.0
H237 H 0.10061 0.46929 0.72141 0.0
C238 C 0.14059 0.30454 0.68881 0.0
C239 C 0.15393 0.26542 0.67868 0.0
C240 C 0.12632 0.23736 0.66262 0.0
C241 C 0.08523 0.24833 0.6562 0.0
C242 C 0.07182 0.28758 0.66593 0.0
C243 C 0.09952 0.31571 0.68196 0.0
C244 C 0.20507 0.3621 0.66604 0.0
C245 C 0.2444 0.37731 0.67339 0.0
C246 C 0.26656 0.39463 0.64136 0.0
C247 C 0.24945 0.39718 0.60175 0.0
C248 C 0.20971 0.38275 0.59442 0.0
C249 C 0.1875 0.36532 0.62658 0.0
C250 C 0.15065 0.37935 0.73584 0.0
C251 C 0.14039 0.37211 0.77696 0.0
C252 C 0.11618 0.39984 0.79812 0.0
C253 C 0.10164 0.43489 0.77824 0.0
C254 C 0.11193 0.4424 0.73708 0.0
C255 C 0.13636 0.41458 0.71587 0.0
O256 O 0.98249 0.088 0.59483 0.0
Zn257 Zn 0.96549 0.03097 0.58173 0.0
O258 O 0.00564 0.00502 0.54585 0.0
Zn259 Zn 0.97878 0.98761 0.49552 0.0
Zn260 Zn 0.04841 0.04306 0.53131 0.0
Zn261 Zn 0.03021 0.95883 0.57472 0.0
O262 O 0.97765 0.92702 0.4936 0.0
O263 O 0.01086 0.90637 0.55016 0.0
O264 O 0.90954 0.03385 0.55581 0.0
O265 O 0.92085 0.00809 0.49362 0.0
O266 O 0.00605 0.00957 0.4445 0.0
O267 O 0.04873 0.05516 0.47102 0.0
O268 O 0.10395 0.02055 0.54369 0.0
O269 O 0.96285 0.00315 0.63655 0.0
O270 O 0.09166 0.95974 0.57079 0.0
O271 O 0.01471 0.95903 0.63461 0.0
C272 C 0.01441 0.10828 0.58605 0.0
C273 C 0.9907 0.899 0.51739 0.0
C274 C 0.03215 0.03792 0.44018 0.0
C275 C 0.89737 0.02514 0.5196 0.0
C276 C 0.1164 0.98684 0.55826 0.0
C277 C 0.98609 0.97707 0.65388 0.0
O278 O 0.04211 0.09452 0.56246 0.0
O279 O 0.48468 0.07432 0.96043 0.0
Zn280 Zn 0.4606 0.01933 0.97311 0.0
O281 O 0.49902 0.98689 0.00594 0.0
Zn282 Zn 0.52215 0.94405 0.97179 0.0
Zn283 Zn 0.54305 0.02154 0.02559 0.0
Zn284 Zn 0.47075 0.96334 0.05321 0.0
O285 O 0.50607 0.88924 0.99343 0.0
O286 O 0.47048 0.9023 0.05034 0.0
O287 O 0.44973 0.99321 0.91801 0.0
O288 O 0.5003 0.94782 0.91405 0.0
O289 O 0.58392 0.94642 0.9701 0.0
O290 O 0.59783 -0.00099 0.01064 0.0
O291 O 0.5421 0.02691 0.08663 0.0
O292 O 0.40767 0.02785 0.00375 0.0
O293 O 0.49644 0.98106 0.10706 0.0
O294 O 0.41282 0.98396 0.05584 0.0
C295 C 0.51626 0.09282 0.97382 0.0
C296 C 0.48582 0.87746 0.02463 0.0
C297 C 0.60941 0.96982 0.98793 0.0
C298 C 0.47033 0.96704 0.8979 0.0
C299 C 0.52346 0.00782 0.11496 0.0
C300 C 0.3929 0.01077 0.03563 0.0
O301 O 0.54062 0.07667 -0.0002 0.0
O302 O 0.52584 0.51762 0.58022 0.0
Zn303 Zn 0.51151 0.54162 0.52507 0.0
O304 O 0.48268 0.50312 0.48978 0.0
Zn305 Zn 0.51706 0.48917 0.4432 0.0
Zn306 Zn 0.47178 0.45375 0.52086 0.0
Zn307 Zn 0.43132 0.52773 0.47011 0.0
O308 O 0.4895 0.50336 0.39009 0.0
O309 O 0.43022 0.53177 0.40812 0.0
O310 O 0.56343 0.5602 0.49887 0.0
O311 O 0.56935 0.52043 0.44399 0.0
O312 O 0.53065 0.43008 0.44191 0.0
O313 O 0.49594 0.40391 0.4943 0.0
O314 O 0.41146 0.44633 0.52718 0.0
O315 O 0.47861 0.59185 0.53334 0.0
O316 O 0.38296 0.49495 0.48857 0.0
O317 O 0.42373 0.58421 0.49326 0.0
C318 C 0.51821 0.48308 0.59599 0.0
C319 C 0.4557 0.52043 0.38086 0.0
C320 C 0.51955 0.39983 0.46351 0.0
C321 C 0.58279 0.54853 0.46716 0.0
C322 C 0.38009 0.46436 0.51241 0.0
C323 C 0.44522 0.60523 0.51814 0.0
O324 O 0.49755 0.4563 0.57691 0.0
O325 O 0.94362 0.50728 0.10516 0.0
Zn326 Zn 0.95768 0.47828 0.05298 0.0
O327 O 0.99283 0.51243 0.01936 0.0
Zn328 Zn 0.96109 0.53416 0.97312 0.0
Zn329 Zn 0.01485 0.55709 0.0516 0.0
Zn330 Zn 0.03788 0.47989 -0.00032 0.0
O331 O 0.99041 0.52401 0.91984 0.0
O332 O 0.03693 0.47758 0.93843 0.0
O333 O 0.90567 0.46497 0.0229 0.0
O334 O 0.90702 0.50542 0.9679 0.0
O335 O 0.9522 0.59447 0.97857 0.0
O336 O -0.0023 0.61032 0.02724 0.0
O337 O 0.07668 0.55715 0.05453 0.0
O338 O 0.98483 0.42508 0.06683 0.0
O339 O 0.09161 0.5047 0.01437 0.0
O340 O 0.03879 0.42445 0.02535 0.0
C341 C 0.9601 0.5374 0.12326 0.0
C342 C 0.0185 0.49863 0.9111 0.0
C343 C 0.97119 0.62057 0.00031 0.0
C344 C 0.88976 0.4782 0.9896 0.0
C345 C 0.10268 0.53445 0.03659 0.0
C346 C 0.01666 0.40767 0.05269 0.0
O347 O 0.98948 0.55738 0.10752 0.0
C348 C 0.0734 0.03984 0.33055 0.0
C349 C 0.07549 0.08239 0.32402 0.0
C350 C 0.03961 0.09394 0.38897 0.0
C351 C 0.04348 0.05205 0.39849 0.0
N352 N 0.06895 0.98539 0.38055 0.0
N353 N 0.06606 0.15058 0.34991 0.0
C354 C 0.06129 0.02486 0.36972 0.0
C355 C 0.05981 0.1097 0.35386 0.0
N356 N 0.08257 0.01382 0.29916 0.0
N357 N 0.01589 0.11853 0.41303 0.0
H358 H 0.08137 0.16359 0.32507 0.0
H359 H 0.05932 0.17131 0.37312 0.0
H360 H -0.00024 0.10779 0.4385 0.0
H361 H 0.00879 0.14847 0.40527 0.0
H362 H 0.07772 0.9826 0.30082 0.0
H363 H 0.09138 0.0239 0.27003 0.0
H364 H 0.08602 0.96556 0.36243 0.0
H365 H 0.06142 0.97325 0.4092 0.0
C366 C 0.44894 0.90956 0.799 0.0
C367 C 0.44709 0.9419 0.77012 0.0
C368 C 0.46093 0.99103 0.82489 0.0
C369 C 0.45991 0.95898 0.85426 0.0
N370 N 0.44409 0.88921 0.87055 0.0
N371 N 0.44285 0.01379 0.75614 0.0
C372 C 0.45136 0.9186 0.84167 0.0
C373 C 0.4505 0.98279 0.78325 0.0
N374 N 0.44967 0.87023 0.78558 0.0
N375 N 0.47386 0.02889 0.83621 0.0
H376 H 0.43526 0.00897 0.72528 0.0
H377 H 0.44043 0.04408 0.76503 0.0
H378 H 0.48206 0.03634 0.86628 0.0
H379 H 0.47987 0.05203 0.81517 0.0
H380 H 0.45555 0.84556 0.80489 0.0
H381 H 0.44781 0.86238 0.75451 0.0
H382 H 0.43366 0.86022 0.86326 0.0
H383 H 0.44455 0.89497 0.90212 0.0
C384 C 0.52896 0.451 0.70802 0.0
C385 C 0.57013 0.43718 0.70796 0.0
C386 C 0.57933 0.46279 0.63769 0.0
C387 C 0.5368 0.4719 0.63595 0.0
N388 N 0.47046 0.47496 0.66812 0.0
N389 N 0.63446 0.42723 0.67293 0.0
C390 C 0.51143 0.46636 0.67089 0.0
C391 C 0.59553 0.44289 0.67305 0.0
N392 N 0.50699 0.44976 0.74377 0.0
N393 N 0.60414 0.47266 0.60532 0.0
H394 H 0.64796 0.41336 0.69855 0.0
H395 H 0.65271 0.42556 0.6468 0.0
H396 H 0.59324 0.4849 0.57773 0.0
H397 H 0.63601 0.47138 0.60664 0.0
H398 H 0.47804 0.46261 0.74717 0.0
H399 H 0.51913 0.43838 0.77129 0.0
H400 H 0.44923 0.46732 0.69064 0.0
H401 H 0.45718 0.48845 0.64214 0.0
C402 C 0.89169 0.60612 0.18471 0.0
C403 C 0.90587 0.59832 0.22533 0.0
C404 C 0.95567 0.54896 0.1993 0.0
C405 C 0.93953 0.55502 0.15916 0.0
N406 N 0.88706 0.5828 0.11434 0.0
N407 N 0.94644 0.55844 0.27283 0.0
C408 C 0.90578 0.58141 0.15214 0.0
C409 C 0.9365 0.56855 0.23314 0.0
N410 N 0.86639 0.63851 0.17691 0.0
N411 N 0.98963 0.5251 0.20482 0.0
H412 H 0.93302 0.57243 0.29824 0.0
H413 H 0.96558 0.53426 0.28068 0.0
H414 H 0.00319 0.50898 0.18079 0.0
H415 H 0.00568 0.52298 0.23254 0.0
H416 H 0.85907 0.64852 0.14731 0.0
H417 H 0.85565 0.6579 0.19983 0.0
H418 H 0.8595 0.59798 0.10887 0.0
H419 H 0.89719 0.56623 0.089 0.0
C420 C 0.31885 0.05852 0.11133 0.0
C421 C 0.28308 0.06211 0.08661 0.0
C422 C 0.31736 0.02602 0.03042 0.0
C423 C 0.35449 0.02689 0.05342 0.0
N424 N 0.39244 0.05093 0.11275 0.0
N425 N 0.24815 0.05241 0.02191 0.0
C426 C 0.35571 0.04467 0.09324 0.0
C427 C 0.2822 0.04658 0.04592 0.0
N428 N 0.31763 0.06842 0.15222 0.0
N429 N 0.3155 0.00461 0.99444 0.0
H430 H 0.22147 0.06603 0.03296 0.0
H431 H 0.2471 0.04597 0.99054 0.0
H432 H 0.34066 0.98902 0.9825 0.0
H433 H 0.28843 -0.0005 0.97817 0.0
H434 H 0.34141 0.06193 0.17276 0.0
H435 H 0.29151 0.07984 0.16658 0.0
H436 H 0.39554 0.06801 0.13954 0.0
H437 H 0.42057 0.04264 0.10023 0.0
C438 C 0.2223 0.95812 0.59769 0.0
C439 C 0.24587 0.96359 0.56145 0.0
C440 C 0.18374 0.98 0.52233 0.0
C441 C 0.16088 0.97866 0.55943 0.0
N442 N 0.15955 0.97426 0.63366 0.0
N443 N 0.25067 0.98644 0.49103 0.0
C444 C 0.18044 0.96987 0.59752 0.0
C445 C 0.22706 0.97655 0.52423 0.0
N446 N 0.23946 0.94035 0.6318 0.0
N447 N 0.16397 0.98269 0.48515 0.0
H448 H 0.28259 0.98436 0.49138 0.0
H449 H 0.23893 0.00013 0.4645 0.0
H450 H 0.13214 0.98413 0.48226 0.0
H451 H 0.17883 0.97952 0.45702 0.0
H452 H 0.22251 0.93164 0.65743 0.0
H453 H 0.26998 0.93088 0.63316 0.0
H454 H 0.17358 0.97248 0.66251 0.0
H455 H 0.12896 0.9835 0.63494 0.0
C456 C 0.81774 0.39734 0.94854 0.0
C457 C 0.78402 0.42163 0.93594 0.0
C458 C 0.81653 0.48172 0.96599 0.0
C459 C 0.85249 0.45841 0.97338 0.0
N460 N 0.88989 0.39533 0.96562 0.0
N461 N 0.75168 0.48726 0.9294 0.0
C462 C 0.85373 0.41643 0.96343 0.0
C463 C 0.78333 0.46394 0.944 0.0
N464 N 0.81521 0.35593 0.94645 0.0
N465 N 0.81383 0.52044 0.98089 0.0
H466 H 0.72637 0.47503 0.9141 0.0
H467 H 0.75167 0.51888 0.93009 0.0
H468 H 0.83752 0.53417 -0.00256 0.0
H469 H 0.787 0.53764 0.98004 0.0
H470 H 0.83714 0.33652 0.95922 0.0
H471 H 0.78929 0.34087 0.93541 0.0
H472 H 0.89346 0.36598 0.95426 0.0
H473 H 0.9175 0.40822 0.97516 0.0
C474 C 0.65843 0.60596 0.4012 0.0
C475 C 0.68912 0.61551 0.43066 0.0
C476 C 0.65294 0.57574 0.48271 0.0
C477 C 0.61981 0.57086 0.45465 0.0
N478 N 0.58713 0.58995 0.39027 0.0
N479 N 0.71323 0.61473 0.50104 0.0
C480 C 0.62143 0.58825 0.41466 0.0
C481 C 0.6858 0.60184 0.47195 0.0
N482 N 0.66498 0.61283 0.3602 0.0
N483 N 0.65373 0.5544 0.51888 0.0
H484 H 0.73764 0.63397 0.49421 0.0
H485 H 0.70976 0.60914 0.53242 0.0
H486 H 0.63066 0.5342 0.52732 0.0
H487 H 0.679 0.55377 0.53861 0.0
H488 H 0.64514 0.60257 0.33724 0.0
H489 H 0.69218 0.62498 0.34881 0.0
H490 H 0.58597 0.60604 0.3626 0.0
H491 H 0.55855 0.57926 0.39953 0.0
C492 C 0.04645 0.32415 0.12863 0.0
C493 C 0.06622 0.29652 0.10182 0.0
C494 C 0.04224 0.33647 0.04275 0.0
C495 C 0.02996 0.36797 0.06988 0.0
N496 N 0.02767 0.39409 0.13967 0.0
N497 N 0.08713 0.27875 0.03283 0.0
C498 C 0.0335 0.36237 0.11319 0.0
C499 C 0.06498 0.30302 0.05861 0.0
N500 N 0.04013 0.31386 0.1689 0.0
N501 N 0.03147 0.33807 0.00205 0.0
H502 H 0.1048 0.25431 0.04316 0.0
H503 H 0.09072 0.28504 0.00159 0.0
H504 H 0.01345 0.36139 0.9897 0.0
H505 H 0.03655 0.31416 0.98172 0.0
H506 H 0.02258 0.3315 0.18882 0.0
H507 H 0.04866 0.28566 0.18103 0.0
H508 H 0.03408 0.39211 0.1711 0.0
H509 H 0.02091 0.42358 0.1301 0.0
C510 C 0.55244 0.17025 0.89542 0.0
C511 C 0.56049 0.20381 0.92142 0.0
C512 C 0.53051 0.16733 0.97979 0.0
C513 C 0.52811 0.13193 0.95508 0.0
N514 N 0.54319 0.09761 0.89115 0.0
N515 N 0.55968 0.23456 0.98867 0.0
C516 C 0.54031 0.13287 0.91319 0.0
C517 C 0.54986 0.20263 0.9637 0.0
N518 N 0.55648 0.17417 0.8537 0.0
N519 N 0.51379 0.16725 0.01831 0.0
H520 H 0.57283 0.26126 0.97757 0.0
H521 H 0.55707 0.23375 0.02061 0.0
H522 H 0.49939 0.1418 0.0308 0.0
H523 H 0.51109 0.19313 0.03647 0.0
H524 H 0.54702 0.15199 0.83291 0.0
H525 H 0.56562 0.20117 0.83961 0.0
H526 H 0.55618 0.09599 0.86196 0.0
H527 H 0.53632 0.06917 0.90345 0.0
C528 C 0.93061 0.80211 0.50699 0.0
C529 C 0.94395 0.79102 0.46718 0.0
C530 C -0.00013 0.83999 0.47125 0.0
C531 C 0.98094 0.85687 0.50639 0.0
N532 N 0.93076 0.85342 0.56053 0.0
N533 N 0.99301 0.79537 0.41223 0.0
C534 C 0.94767 0.83709 0.52583 0.0
C535 C 0.97984 0.80807 0.44998 0.0
N536 N 0.901 0.77962 0.52592 0.0
N537 N 0.03661 0.85508 0.45825 0.0
H538 H 0.97973 0.77089 0.39682 0.0
H539 H 0.01602 0.80966 0.39556 0.0
H540 H 0.05167 0.87847 0.47381 0.0
H541 H 0.05375 0.84244 0.43455 0.0
H542 H 0.89177 0.78407 0.55622 0.0
H543 H 0.88812 0.75398 0.51218 0.0
H544 H 0.90352 0.84334 0.57354 0.0
H545 H 0.94331 0.87842 0.57566 0.0
C546 C 0.43233 0.69963 0.58235 0.0
C547 C 0.42358 0.72914 0.55164 0.0
C548 C 0.42549 0.67676 0.49834 0.0
C549 C 0.43239 0.6469 0.52931 0.0
N550 N 0.43047 0.62847 0.60124 0.0
N551 N 0.40028 0.74434 0.48267 0.0
C552 C 0.43196 0.65792 0.57153 0.0
C553 C 0.41631 0.71718 0.51033 0.0
N554 N 0.44297 0.71137 0.62132 0.0
N555 N 0.43041 0.66751 0.45762 0.0
H556 H 0.39278 0.77414 0.49058 0.0
H557 H 0.39059 0.73612 0.45322 0.0
H558 H 0.4385 0.63874 0.44709 0.0
H559 H 0.43017 0.68939 0.43438 0.0
H560 H 0.45401 0.69121 0.64357 0.0
H561 H 0.4442 0.74168 0.63046 0.0
H562 H 0.42637 0.63481 0.63238 0.0
H563 H 0.42888 0.59758 0.59425 0.0
C564 C 0.93663 0.94739 0.75488 0.0
C565 C 0.96812 0.95798 0.78317 0.0
C566 C 0.01089 0.98254 0.72667 0.0
C567 C 0.98068 0.96909 0.6982 0.0
N568 N 0.9181 0.93284 0.68402 0.0
N569 N 0.03739 0.97979 0.79655 0.0
C570 C 0.94441 0.94987 0.71197 0.0
C571 C 0.00595 0.97385 0.76922 0.0
N572 N 0.89894 0.93602 0.76909 0.0
N573 N 0.04335 0.00515 0.71324 0.0
H574 H 0.03456 0.97448 0.82811 0.0
H575 H 0.06714 0.98696 0.78768 0.0
H576 H 0.04813 0.01218 0.68229 0.0
H577 H 0.06377 0.01975 0.73297 0.0
H578 H 0.87339 0.93233 0.75012 0.0
H579 H 0.89218 0.93334 0.80035 0.0
H580 H 0.89339 0.91464 0.69224 0.0
H581 H 0.92297 0.93396 0.65229 0.0
C582 C 0.57555 0.0098 0.21908 0.0
C583 C 0.56613 0.0501 0.23113 0.0
C584 C 0.52092 0.05879 0.1715 0.0
C585 C 0.53224 0.01937 0.15798 0.0
N586 N 0.5622 0.95379 0.17226 0.0
N587 N 0.52253 0.10903 0.22609 0.0
C588 C 0.5566 0.9935 0.18319 0.0
C589 C 0.53607 0.07318 0.2098 0.0
N590 N 0.60411 0.98809 0.24093 0.0
N591 N 0.4972 0.08308 0.14673 0.0
H592 H 0.53369 0.12067 0.2538 0.0
H593 H 0.49797 0.12563 0.2142 0.0
H594 H 0.48414 0.07294 0.11925 0.0
H595 H 0.49193 0.11379 0.15214 0.0
H596 H 0.61622 0.9604 0.23145 0.0
H597 H 0.61696 -0.0013 0.26837 0.0
H598 H 0.57668 0.93232 0.1909 0.0
H599 H 0.54973 0.94136 0.14549 0.0
C600 C 0.45378 0.5729 0.27696 0.0
C601 C 0.43705 0.54169 0.252 0.0
C602 C 0.43199 0.49654 0.31183 0.0
C603 C 0.44684 0.52841 0.33708 0.0
N604 N 0.46714 0.59824 0.34589 0.0
N605 N 0.4049 0.47617 0.24526 0.0
C606 C 0.45622 0.56708 0.32029 0.0
C607 C 0.4246 0.50413 0.26933 0.0
N608 N 0.46841 0.60756 0.25899 0.0
N609 N 0.42581 0.45881 0.32842 0.0
H610 H 0.39996 0.48027 0.21375 0.0
H611 H 0.39097 0.45014 0.25679 0.0
H612 H 0.4291 0.45265 0.35981 0.0
H613 H 0.41971 0.43303 0.31098 0.0
H614 H 0.48513 0.62956 0.27468 0.0
H615 H 0.46627 0.61326 0.22742 0.0
H616 H 0.47016 0.62826 0.33629 0.0
H617 H 0.47051 0.59473 0.37768 0.0
C618 C 0.09265 0.49444 0.82465 0.0
C619 C 0.07481 0.46266 0.80141 0.0
C620 C 0.01242 0.46555 0.84253 0.0
C621 C 0.03206 0.49414 0.86834 0.0
N622 N 0.08347 0.5454 0.87788 0.0
N623 N 0.01477 0.4265 0.77912 0.0
C624 C 0.06971 0.51207 0.85702 0.0
C625 C 0.03335 0.45141 0.80712 0.0
N626 N 0.13226 0.50572 0.81739 0.0
N627 N 0.97506 0.4503 0.85342 0.0
H628 H 0.02995 0.41585 0.75304 0.0
H629 H 0.98377 0.41914 0.77973 0.0
H630 H 0.95858 0.46141 0.87849 0.0
H631 H 0.96094 0.42603 0.83864 0.0
H632 H 0.14883 0.52525 0.83631 0.0
H633 H 0.14921 0.49421 0.79286 0.0
H634 H 0.10936 0.56186 0.86958 0.0
H635 H 0.06663 0.55871 0.90158 0.0
C636 C 0.71604 0.92274 0.9882 0.0
C637 C 0.73947 0.9562 0.97405 0.0
C638 C 0.67674 0.99576 0.96294 0.0
C639 C 0.6538 0.96403 0.98138 0.0
N640 N 0.6518 0.89964 0.01704 0.0
N641 N 0.74345 0.02638 0.95304 0.0
C642 C 0.67343 0.92799 0.99532 0.0
C643 C 0.72019 0.99325 0.96276 0.0
N644 N 0.73439 0.88574 0.99393 0.0
N645 N 0.6569 0.02758 0.94429 0.0
H646 H 0.77542 0.0256 0.95219 0.0
H647 H 0.73133 0.05544 0.94907 0.0
H648 H 0.62502 0.03011 0.94311 0.0
H649 H 0.67177 0.04946 0.92666 0.0
H650 H 0.71815 0.85919 -0.00017 0.0
H651 H 0.76566 0.88082 0.98939 0.0
H652 H 0.66542 0.87501 0.03199 0.0
H653 H 0.62055 0.90242 0.02311 0.0
C654 C 0.79574 0.02325 0.46321 0.0
C655 C 0.78503 0.06496 0.46433 0.0
C656 C 0.84523 0.08002 0.50654 0.0
C657 C 0.85615 0.03818 0.50567 0.0
N658 N 0.83656 0.96876 0.49298 0.0
N659 N 0.79166 0.13028 0.49674 0.0
C660 C 0.82958 0.00934 0.48718 0.0
C661 C 0.80706 0.09231 0.48959 0.0
N662 N 0.77483 -0.00257 0.43784 0.0
N663 N 0.87249 0.10853 0.52025 0.0
H664 H 0.7637 0.14013 0.48444 0.0
H665 H 0.8044 0.15028 0.51805 0.0
H666 H 0.90166 0.10159 0.53142 0.0
H667 H 0.86766 0.13967 0.51699 0.0
H668 H 0.78423 0.96777 0.43193 0.0
H669 H 0.74916 0.00648 0.42081 0.0
H670 H 0.81633 0.94626 0.4833 0.0
H671 H 0.86075 0.95778 0.51104 0.0
C672 C 0.21306 0.54938 0.00458 0.0
C673 C 0.23272 0.55341 0.04337 0.0
C674 C 0.16697 0.54456 0.07841 0.0
C675 C 0.14695 0.54361 0.03953 0.0
N676 N 0.14963 0.55521 0.96608 0.0
N677 N 0.22771 0.5639 0.11675 0.0
C678 C 0.16963 0.549 0.0027 0.0
C679 C 0.20945 0.55378 0.0802 0.0
N680 N 0.23583 0.54445 0.96969 0.0
N681 N 0.14605 0.53468 0.1134 0.0
H682 H 0.25872 0.57121 0.11926 0.0
H683 H 0.21138 0.56874 0.1438 0.0
H684 H 0.11505 0.52704 0.11342 0.0
H685 H 0.16026 0.53052 0.14191 0.0
H686 H 0.22305 0.53694 0.94124 0.0
H687 H 0.26781 0.54426 0.9698 0.0
H688 H 0.16456 0.56317 0.93896 0.0
H689 H 0.11776 0.55666 0.96367 0.0
C690 C 0.29846 0.39047 0.54319 0.0
C691 C 0.27398 0.41557 0.56858 0.0
C692 C 0.31368 0.47532 0.5494 0.0
C693 C 0.33941 0.44995 0.52531 0.0
N694 N 0.34951 0.38696 0.48919 0.0
N695 N 0.24935 0.48219 0.58598 0.0
C696 C 0.32936 0.40861 0.51876 0.0
C697 C 0.27846 0.45825 0.568 0.0
N698 N 0.29365 0.34925 0.54424 0.0
N699 N 0.3245 0.51465 0.55736 0.0
H700 H 0.22338 0.4701 0.60007 0.0
H701 H 0.24885 0.51373 0.5834 0.0
H702 H 0.35028 0.52856 0.5449 0.0
H703 H 0.30951 0.53284 0.57876 0.0
H704 H 0.31383 0.32897 0.53036 0.0
H705 H 0.27039 0.33511 0.56085 0.0
H706 H 0.34138 0.35763 0.48048 0.0
H707 H 0.37199 0.39991 0.47056 0.0
C708 C 0.96937 0.72783 0.95707 0.0
C709 C 0.94763 0.74827 0.98863 0.0
C710 C 0.94133 0.68497 0.0278 0.0
C711 C 0.96153 0.66412 0.9954 0.0
N712 N 0.99115 0.6637 0.92745 0.0
N713 N 0.90813 0.74682 0.05112 0.0
C714 C 0.97432 0.68496 0.95938 0.0
C715 C 0.93226 0.72698 0.02323 0.0
N716 N 0.98631 0.7497 0.92558 0.0
N717 N 0.93126 0.66462 0.06312 0.0
H718 H 0.90185 0.77787 0.04936 0.0
H719 H 0.89206 0.73234 0.07451 0.0
H720 H 0.93505 0.63336 0.06666 0.0
H721 H 0.92111 0.67875 0.08984 0.0
H722 H 0.0064 0.73758 0.90404 0.0
H723 H 0.98241 0.78101 0.92229 0.0
H724 H -0.00321 0.6761 0.89853 0.0
H725 H -0.00255 0.63266 0.92889 0.0
C726 C 0.49075 0.77062 0.06876 0.0
C727 C 0.46395 0.75012 0.04126 0.0
C728 C 0.45025 0.81358 0.00407 0.0
C729 C 0.47863 0.83362 0.03023 0.0
N730 N 0.53058 0.83118 0.08323 0.0
N731 N 0.42257 0.74972 0.97948 0.0
C732 C 0.5002 0.81214 0.06147 0.0
C733 C 0.4451 0.77091 0.00782 0.0
N734 N 0.50643 0.75052 0.10225 0.0
N735 N 0.42694 0.83568 0.97689 0.0
H736 H 0.41687 0.71865 0.982 0.0
H737 H 0.41193 0.76214 0.95191 0.0
H738 H 0.42978 0.86705 0.97338 0.0
H739 H 0.4026 0.8237 0.96006 0.0
H740 H 0.52218 0.76478 0.12611 0.0
H741 H 0.50162 0.71963 0.10756 0.0
H742 H 0.55049 0.81622 0.10335 0.0
H743 H 0.53801 0.8617 0.07893 0.0
C744 C 0.04882 0.21631 0.59662 0.0
C745 C 0.05664 0.21785 0.63955 0.0
C746 C 0.02833 0.14995 0.64889 0.0
C747 C 0.02154 0.14785 0.6057 0.0
N748 N 0.01404 0.18196 0.54042 0.0
N749 N 0.04327 0.19268 0.70779 0.0
C750 C 0.02797 0.1822 0.58021 0.0
C751 C 0.04252 0.18685 0.66613 0.0
N752 N 0.06323 0.24632 0.57141 0.0
N753 N 0.02442 0.11603 0.67298 0.0
H754 H 0.05385 0.21951 0.72115 0.0
H755 H 0.02985 0.17276 0.72871 0.0
H756 H 0.01439 0.0881 0.66185 0.0
H757 H 0.03395 0.11468 0.70362 0.0
H758 H 0.06285 0.24451 0.5394 0.0
H759 H 0.0777 0.27231 0.58258 0.0
H760 H 0.01466 0.20728 0.52117 0.0
H761 H -0.00175 0.1573 0.52792 0.0
C762 C 0.59812 0.32095 0.43394 0.0
C763 C 0.57322 0.28621 0.42763 0.0
C764 C 0.51202 0.32589 0.44496 0.0
C765 C 0.53747 0.35963 0.45417 0.0
N766 N 0.60528 0.38536 0.46868 0.0
N767 N 0.50789 0.25298 0.43511 0.0
C768 C 0.58072 0.35594 0.45213 0.0
C769 C 0.53053 0.28784 0.43568 0.0
N770 N 0.63787 0.32141 0.42072 0.0
N771 N 0.4704 0.33057 0.44304 0.0
H772 H 0.52063 0.22461 0.42864 0.0
H773 H 0.47749 0.25165 0.44469 0.0
H774 H 0.45566 0.35805 0.44904 0.0
H775 H 0.4507 0.30814 0.43214 0.0
H776 H 0.6558 0.34756 0.42069 0.0
H777 H 0.65177 0.29692 0.40597 0.0
H778 H 0.63696 0.38218 0.47157 0.0
H779 H 0.59369 0.41092 0.48363 0.0
loop_
_geom_bond_atom_site_label_1
_geom_bond_atom_site_label_2
_geom_bond_distance
_geom_bond_site_symmetry_2
_ccdc_geom_bond_type
P0 O11 1.490 . S
P0 C14 1.812 . S
P0 C20 1.803 . S
P0 C26 1.819 . S
H1 C15 0.941 . S
H2 C16 0.939 . S
H3 C18 0.940 . S
H4 C19 0.940 . S
H5 C21 0.939 . S
H6 C22 0.942 . S
H7 C24 0.940 . S
H8 C25 0.939 . S
H9 C27 0.941 . S
H10 C31 0.939 . S
O11 P0 1.490 . S
H12 C28 0.939 . S
H13 C30 0.940 . S
C14 P0 1.812 . S
C14 C15 1.389 . S
C14 C19 1.391 . S
C15 H1 0.941 . S
C15 C14 1.389 . S
C15 C16 1.397 . S
C16 H2 0.939 . S
C16 C15 1.397 . S
C16 C17 1.378 . S
C17 C16 1.378 . S
C17 C18 1.378 . S
C18 H3 0.940 . S
C18 C17 1.378 . S
C18 C19 1.396 . S
C19 H4 0.940 . S
C19 C14 1.391 . S
C19 C18 1.396 . S
C20 P0 1.803 . S
C20 C21 1.378 . S
C20 C25 1.400 . S
C21 H5 0.939 . S
C21 C20 1.378 . S
C21 C22 1.361 . S
C22 H6 0.942 . S
C22 C21 1.361 . S
C22 C23 1.369 . S
C23 C22 1.369 . S
C23 C24 1.404 . S
C24 H7 0.940 . S
C24 C23 1.404 . S
C24 C25 1.389 . S
C25 H8 0.939 . S
C25 C20 1.400 . S
C25 C24 1.389 . S
C26 P0 1.819 . S
C26 C27 1.391 . S
C26 C31 1.391 . S
C27 H9 0.941 . S
C27 C26 1.391 . S
C27 C28 1.396 . S
C28 H12 0.939 . S
C28 C27 1.396 . S
C28 C29 1.397 . S
C29 C28 1.397 . S
C29 C30 1.385 . S
C30 H13 0.940 . S
C30 C29 1.385 . S
C30 C31 1.388 . S
C31 H10 0.939 . S
C31 C26 1.391 . S
C31 C30 1.388 . S
P32 O43 1.490 . S
P32 C46 1.812 . S
P32 C52 1.803 . S
P32 C58 1.819 . S
H33 C47 0.941 . S
H34 C48 0.939 . S
H35 C50 0.940 . S
H36 C51 0.940 . S
H37 C53 0.939 . S
H38 C54 0.942 . S
H39 C56 0.940 . S
H40 C57 0.939 . S
H41 C59 0.941 . S
H42 C63 0.939 . S
O43 P32 1.490 . S
H44 C60 0.939 . S
H45 C62 0.940 . S
C46 P32 1.812 . S
C46 C47 1.389 . S
C46 C51 1.391 . S
C47 H33 0.941 . S
C47 C46 1.389 . S
C47 C48 1.397 . S
C48 H34 0.939 . S
C48 C47 1.397 . S
C48 C49 1.378 . S
C49 C48 1.378 . S
C49 C50 1.378 . S
C50 H35 0.940 . S
C50 C49 1.378 . S
C50 C51 1.396 . S
C51 H36 0.940 . S
C51 C46 1.391 . S
C51 C50 1.396 . S
C52 P32 1.803 . S
C52 C53 1.378 . S
C52 C57 1.400 . S
C53 H37 0.939 . S
C53 C52 1.378 . S
C53 C54 1.361 . S
C54 H38 0.942 . S
C54 C53 1.361 . S
C54 C55 1.369 . S
C55 C54 1.369 . S
C55 C56 1.404 . S
C56 H39 0.940 . S
C56 C55 1.404 . S
C56 C57 1.389 . S
C57 H40 0.939 . S
C57 C52 1.400 . S
C57 C56 1.389 . S
C58 P32 1.819 . S
C58 C59 1.391 . S
C58 C63 1.391 . S
C59 H41 0.941 . S
C59 C58 1.391 . S
C59 C60 1.396 . S
C60 H44 0.939 . S
C60 C59 1.396 . S
C60 C61 1.397 . S
C61 C60 1.397 . S
C61 C62 1.385 . S
C62 H45 0.940 . S
C62 C61 1.385 . S
C62 C63 1.388 . S
C63 H42 0.939 . S
C63 C58 1.391 . S
C63 C62 1.388 . S
P64 O75 1.490 . S
P64 C78 1.812 . S
P64 C84 1.803 . S
P64 C90 1.819 . S
H65 C79 0.941 . S
H66 C80 0.939 . S
H67 C82 0.940 . S
H68 C83 0.940 . S
H69 C85 0.939 . S
H70 C86 0.942 . S
H71 C88 0.940 . S
H72 C89 0.939 . S
H73 C91 0.941 . S
H74 C95 0.939 . S
O75 P64 1.490 . S
H76 C92 0.939 . S
H77 C94 0.940 . S
C78 P64 1.812 . S
C78 C79 1.389 . S
C78 C83 1.391 . S
C79 H65 0.941 . S
C79 C78 1.389 . S
C79 C80 1.397 . S
C80 H66 0.939 . S
C80 C79 1.397 . S
C80 C81 1.378 . S
C81 C80 1.378 . S
C81 C82 1.378 . S
C82 H67 0.940 . S
C82 C81 1.378 . S
C82 C83 1.396 . S
C83 H68 0.940 . S
C83 C78 1.391 . S
C83 C82 1.396 . S
C84 P64 1.803 . S
C84 C85 1.378 . S
C84 C89 1.400 . S
C85 H69 0.939 . S
C85 C84 1.378 . S
C85 C86 1.361 . S
C86 H70 0.942 . S
C86 C85 1.361 . S
C86 C87 1.369 . S
C87 C86 1.369 . S
C87 C88 1.404 . S
C88 H71 0.940 . S
C88 C87 1.404 . S
C88 C89 1.389 . S
C89 H72 0.939 . S
C89 C84 1.400 . S
C89 C88 1.389 . S
C90 P64 1.819 . S
C90 C91 1.391 . S
C90 C95 1.391 . S
C91 H73 0.941 . S
C91 C90 1.391 . S
C91 C92 1.396 . S
C92 H76 0.939 . S
C92 C91 1.396 . S
C92 C93 1.397 . S
C93 C92 1.397 . S
C93 C94 1.385 . S
C94 H77 0.940 . S
C94 C93 1.385 . S
C94 C95 1.388 . S
C95 H74 0.939 . S
C95 C90 1.391 . S
C95 C94 1.388 . S
P96 O107 1.490 . S
P96 C110 1.812 . S
P96 C116 1.803 . S
P96 C122 1.819 . S
H97 C111 0.941 . S
H98 C112 0.939 . S
H99 C114 0.940 . S
H100 C115 0.940 . S
H101 C117 0.939 . S
H102 C118 0.942 . S
H103 C120 0.940 . S
H104 C121 0.939 . S
H105 C123 0.941 . S
H106 C127 0.939 . S
O107 P96 1.490 . S
H108 C124 0.939 . S
H109 C126 0.940 . S
C110 P96 1.812 . S
C110 C111 1.389 . S
C110 C115 1.391 . S
C111 H97 0.941 . S
C111 C110 1.389 . S
C111 C112 1.397 . S
C112 H98 0.939 . S
C112 C111 1.397 . S
C112 C113 1.378 . S
C113 C112 1.378 . S
C113 C114 1.378 . S
C114 H99 0.940 . S
C114 C113 1.378 . S
C114 C115 1.396 . S
C115 H100 0.940 . S
C115 C110 1.391 . S
C115 C114 1.396 . S
C116 P96 1.803 . S
C116 C117 1.378 . S
C116 C121 1.400 . S
C117 H101 0.939 . S
C117 C116 1.378 . S
C117 C118 1.361 . S
C118 H102 0.942 . S
C118 C117 1.361 . S
C118 C119 1.369 . S
C119 C118 1.369 . S
C119 C120 1.404 . S
C120 H103 0.940 . S
C120 C119 1.404 . S
C120 C121 1.389 . S
C121 H104 0.939 . S
C121 C116 1.400 . S
C121 C120 1.389 . S
C122 P96 1.819 . S
C122 C123 1.391 . S
C122 C127 1.391 . S
C123 H105 0.941 . S
C123 C122 1.391 . S
C123 C124 1.396 . S
C124 H108 0.939 . S
C124 C123 1.396 . S
C124 C125 1.397 . S
C125 C124 1.397 . S
C125 C126 1.385 . S
C126 H109 0.940 . S
C126 C125 1.385 . S
C126 C127 1.388 . S
C127 H106 0.939 . S
C127 C122 1.391 . S
C127 C126 1.388 . S
P128 O139 1.490 . S
P128 C142 1.812 . S
P128 C148 1.803 . S
P128 C154 1.819 . S
H129 C143 0.941 . S
H130 C144 0.938 1_545 S
H131 C146 0.940 . S
H132 C147 0.940 . S
H133 C149 0.937 . S
H134 C150 0.942 1_455 S
H135 C152 0.940 . S
H136 C153 0.939 . S
H137 C155 0.941 . S
H138 C159 0.939 . S
O139 P128 1.490 . S
H140 C156 0.939 . S
H141 C158 0.940 . S
C142 P128 1.812 . S
C142 C143 1.389 1_556 S
C142 C147 1.391 . S
C143 H129 0.941 . S
C143 C142 1.389 1_554 S
C143 C144 1.397 . S
C144 H130 0.938 1_565 S
C144 C143 1.397 . S
C144 C145 1.378 1_554 S
C145 C144 1.378 1_556 S
C145 C146 1.378 . S
C146 H131 0.940 . S
C146 C145 1.378 . S
C146 C147 1.396 . S
C147 H132 0.940 . S
C147 C142 1.391 . S
C147 C146 1.396 . S
C148 P128 1.803 . S
C148 C149 1.378 . S
C148 C153 1.400 . S
C149 H133 0.937 . S
C149 C148 1.378 . S
C149 C150 1.361 . S
C150 H134 0.942 1_655 S
C150 C149 1.361 . S
C150 C151 1.369 . S
C151 C150 1.369 . S
C151 C152 1.404 . S
C152 H135 0.940 . S
C152 C151 1.404 . S
C152 C153 1.389 . S
C153 H136 0.939 . S
C153 C148 1.400 . S
C153 C152 1.389 . S
C154 P128 1.819 . S
C154 C155 1.391 1_565 S
C154 C159 1.391 . S
C155 H137 0.941 . S
C155 C154 1.391 1_545 S
C155 C156 1.396 . S
C156 H140 0.939 . S
C156 C155 1.396 . S
C156 C157 1.397 1_545 S
C157 C156 1.397 1_565 S
C157 C158 1.385 . S
C158 H141 0.940 . S
C158 C157 1.385 . S
C158 C159 1.388 . S
C159 H138 0.939 . S
C159 C154 1.391 . S
C159 C158 1.388 . S
P160 O171 1.490 . S
P160 C174 1.812 . S
P160 C180 1.803 . S
P160 C186 1.819 . S
H161 C175 0.941 . S
H162 C176 0.939 . S
H163 C178 0.940 . S
H164 C179 0.940 . S
H165 C181 0.939 . S
H166 C182 0.942 . S
H167 C184 0.940 . S
H168 C185 0.939 . S
H169 C187 0.941 . S
H170 C191 0.939 . S
O171 P160 1.490 . S
H172 C188 0.939 . S
H173 C190 0.938 . S
C174 P160 1.812 . S
C174 C175 1.389 . S
C174 C179 1.391 . S
C175 H161 0.941 . S
C175 C174 1.389 . S
C175 C176 1.397 . S
C176 H162 0.939 . S
C176 C175 1.397 . S
C176 C177 1.378 . S
C177 C176 1.378 . S
C177 C178 1.378 . S
C178 H163 0.940 . S
C178 C177 1.378 . S
C178 C179 1.396 . S
C179 H164 0.940 . S
C179 C174 1.391 . S
C179 C178 1.396 . S
C180 P160 1.803 . S
C180 C181 1.378 . S
C180 C185 1.400 . S
C181 H165 0.939 . S
C181 C180 1.378 . S
C181 C182 1.361 . S
C182 H166 0.942 . S
C182 C181 1.361 . S
C182 C183 1.369 . S
C183 C182 1.369 . S
C183 C184 1.404 . S
C184 H167 0.940 . S
C184 C183 1.404 . S
C184 C185 1.389 . S
C185 H168 0.939 . S
C185 C180 1.400 . S
C185 C184 1.389 . S
C186 P160 1.819 . S
C186 C187 1.391 . S
C186 C191 1.391 . S
C187 H169 0.941 . S
C187 C186 1.391 . S
C187 C188 1.396 . S
C188 H172 0.939 . S
C188 C187 1.396 . S
C188 C189 1.397 . S
C189 C188 1.397 . S
C189 C190 1.385 . S
C190 H173 0.938 . S
C190 C189 1.385 . S
C190 C191 1.388 . S
C191 H170 0.939 . S
C191 C186 1.391 . S
C191 C190 1.388 . S
P192 O203 1.490 . S
P192 C206 1.812 . S
P192 C212 1.803 . S
P192 C218 1.819 . S
H193 C207 0.941 . S
H194 C208 0.939 1_556 S
H195 C210 0.940 . S
H196 C211 0.940 . S
H197 C213 0.939 . S
H198 C214 0.942 . S
H199 C216 0.940 . S
H200 C217 0.939 . S
H201 C219 0.941 . S
H202 C223 0.939 . S
O203 P192 1.490 . S
H204 C220 0.939 . S
H205 C222 0.940 . S
C206 P192 1.812 . S
C206 C207 1.389 . S
C206 C211 1.391 . S
C207 H193 0.941 . S
C207 C206 1.389 . S
C207 C208 1.397 . S
C208 H194 0.939 1_554 S
C208 C207 1.397 . S
C208 C209 1.378 . S
C209 C208 1.378 . S
C209 C210 1.378 . S
C210 H195 0.940 . S
C210 C209 1.378 . S
C210 C211 1.396 . S
C211 H196 0.940 . S
C211 C206 1.391 . S
C211 C210 1.396 . S
C212 P192 1.803 . S
C212 C213 1.378 . S
C212 C217 1.400 . S
C213 H197 0.939 . S
C213 C212 1.378 . S
C213 C214 1.361 . S
C214 H198 0.942 . S
C214 C213 1.361 . S
C214 C215 1.369 . S
C215 C214 1.369 . S
C215 C216 1.404 . S
C216 H199 0.940 . S
C216 C215 1.404 . S
C216 C217 1.389 . S
C217 H200 0.939 . S
C217 C212 1.400 . S
C217 C216 1.389 . S
C218 P192 1.819 . S
C218 C219 1.391 . S
C218 C223 1.391 . S
C219 H201 0.941 . S
C219 C218 1.391 . S
C219 C220 1.396 . S
C220 H204 0.939 . S
C220 C219 1.396 . S
C220 C221 1.397 . S
C221 C220 1.397 . S
C221 C222 1.385 . S
C222 H205 0.940 . S
C222 C221 1.385 . S
C222 C223 1.388 . S
C223 H202 0.939 . S
C223 C218 1.391 . S
C223 C222 1.388 . S
P224 O235 1.490 . S
P224 C238 1.812 . S
P224 C244 1.803 . S
P224 C250 1.819 . S
H225 C239 0.941 . S
H226 C240 0.939 . S
H227 C242 0.940 . S
H228 C243 0.940 . S
H229 C245 0.939 . S
H230 C246 0.942 . S
H231 C248 0.940 . S
H232 C249 0.939 . S
H233 C251 0.941 . S
H234 C255 0.939 . S
O235 P224 1.490 . S
H236 C252 0.939 . S
H237 C254 0.940 . S
C238 P224 1.812 . S
C238 C239 1.389 . S
C238 C243 1.391 . S
C239 H225 0.941 . S
C239 C238 1.389 . S
C239 C240 1.397 . S
C240 H226 0.939 . S
C240 C239 1.397 . S
C240 C241 1.378 . S
C241 C240 1.378 . S
C241 C242 1.378 . S
C242 H227 0.940 . S
C242 C241 1.378 . S
C242 C243 1.396 . S
C243 H228 0.940 . S
C243 C238 1.391 . S
C243 C242 1.396 . S
C244 P224 1.803 . S
C244 C245 1.378 . S
C244 C249 1.400 . S
C245 H229 0.939 . S
C245 C244 1.378 . S
C245 C246 1.361 . S
C246 H230 0.942 . S
C246 C245 1.361 . S
C246 C247 1.369 . S
C247 C246 1.369 . S
C247 C248 1.404 . S
C248 H231 0.940 . S
C248 C247 1.404 . S
C248 C249 1.389 . S
C249 H232 0.939 . S
C249 C244 1.400 . S
C249 C248 1.389 . S
C250 P224 1.819 . S
C250 C251 1.391 . S
C250 C255 1.391 . S
C251 H233 0.941 . S
C251 C250 1.391 . S
C251 C252 1.396 . S
C252 H236 0.939 . S
C252 C251 1.396 . S
C252 C253 1.397 . S
C253 C252 1.397 . S
C253 C254 1.385 . S
C254 H237 0.940 . S
C254 C253 1.385 . S
C254 C255 1.388 . S
C255 H234 0.939 . S
C255 C250 1.391 . S
C255 C254 1.388 . S
O256 Zn257 1.953 . S
O256 C272 1.225 1_655 S
Zn257 O256 1.953 . S
Zn257 O258 1.949 1_655 S
Zn257 O264 1.919 . S
Zn257 O269 1.924 . S
O258 Zn257 1.949 1_455 S
O258 Zn259 1.923 1_445 S
O258 Zn260 1.950 . S
O258 Zn261 1.945 1_545 S
Zn259 O258 1.923 1_665 S
Zn259 O262 1.933 . S
Zn259 O265 1.941 1_565 S
Zn259 O266 1.965 1_665 S
Zn260 O258 1.950 . S
Zn260 O267 1.938 . S
Zn260 O268 1.906 1_545 S
Zn260 O278 1.953 . S
Zn261 O258 1.945 1_565 S
Zn261 O263 1.932 1_455 S
Zn261 O270 1.977 . S
Zn261 O271 1.910 1_455 S
O262 Zn259 1.933 . S
O262 C273 1.226 . S
O263 Zn261 1.932 1_655 S
O263 C273 1.307 . S
O264 Zn257 1.919 . S
O264 C275 1.253 . S
O265 Zn259 1.941 1_545 S
O265 C275 1.283 . S
O266 Zn259 1.965 1_445 S
O266 C274 1.303 . S
O267 Zn260 1.938 . S
O267 C274 1.247 . S
O268 Zn260 1.906 1_565 S
O268 C276 1.304 . S
O269 Zn257 1.924 . S
O269 C277 1.311 1_545 S
O270 Zn261 1.977 . S
O270 C276 1.272 . S
O271 Zn261 1.910 1_655 S
O271 C277 1.231 . S
C272 O256 1.225 1_455 S
C272 O278 1.298 . S
C273 O262 1.226 . S
C273 O263 1.307 . S
C274 O266 1.303 . S
C274 O267 1.247 . S
C275 O264 1.253 . S
C275 O265 1.283 . S
C276 O268 1.304 . S
C276 O270 1.272 . S
C277 O269 1.311 1_565 S
C277 O271 1.231 . S
O278 Zn260 1.953 . S
O278 C272 1.298 . S
O279 Zn280 1.953 . S
O279 C295 1.225 . S
Zn280 O279 1.953 . S
Zn280 O281 1.949 1_556 S
Zn280 O287 1.919 . S
Zn280 O292 1.924 1_556 S
O281 Zn280 1.949 1_554 S
O281 Zn282 1.923 1_545 S
O281 Zn283 1.950 . S
O281 Zn284 1.945 1_545 S
Zn282 O281 1.923 1_565 S
Zn282 O285 1.933 . S
Zn282 O288 1.941 1_554 S
Zn282 O289 1.965 1_554 S
Zn283 O281 1.950 . S
Zn283 O290 1.938 . S
Zn283 O291 1.906 . S
Zn283 O301 1.953 . S
Zn284 O281 1.945 1_565 S
Zn284 O286 1.932 . S
Zn284 O293 1.977 1_565 S
Zn284 O294 1.910 1_565 S
O285 Zn282 1.933 . S
O285 C296 1.226 . S
O286 Zn284 1.932 . S
O286 C296 1.307 . S
O287 Zn280 1.919 . S
O287 C298 1.253 1_545 S
O288 Zn282 1.941 1_556 S
O288 C298 1.283 . S
O289 Zn282 1.965 1_556 S
O289 C297 1.303 . S
O290 Zn283 1.938 . S
O290 C297 1.247 1_544 S
O291 Zn283 1.906 . S
O291 C299 1.304 . S
O292 Zn280 1.924 1_554 S
O292 C300 1.311 . S
O293 Zn284 1.977 1_545 S
O293 C299 1.272 . S
O294 Zn284 1.910 1_545 S
O294 C300 1.231 . S
C295 O279 1.225 . S
C295 O301 1.298 1_556 S
C296 O285 1.226 . S
C296 O286 1.307 . S
C297 O289 1.303 . S
C297 O290 1.247 1_566 S
C298 O287 1.253 1_565 S
C298 O288 1.283 . S
C299 O291 1.304 . S
C299 O293 1.272 . S
C300 O292 1.311 . S
C300 O294 1.231 . S
O301 Zn283 1.953 . S
O301 C295 1.298 1_554 S
O302 Zn303 1.953 . S
O302 C318 1.225 . S
Zn303 O302 1.953 . S
Zn303 O304 1.949 . S
Zn303 O310 1.919 . S
Zn303 O315 1.924 . S
O304 Zn303 1.949 . S
O304 Zn305 1.923 . S
O304 Zn306 1.950 . S
O304 Zn307 1.945 . S
Zn305 O304 1.923 . S
Zn305 O308 1.933 . S
Zn305 O311 1.941 . S
Zn305 O312 1.965 . S
Zn306 O304 1.950 . S
Zn306 O313 1.938 . S
Zn306 O314 1.906 . S
Zn306 O324 1.953 . S
Zn307 O304 1.945 . S
Zn307 O309 1.932 . S
Zn307 O316 1.977 . S
Zn307 O317 1.910 . S
O308 Zn305 1.933 . S
O308 C319 1.226 . S
O309 Zn307 1.932 . S
O309 C319 1.307 . S
O310 Zn303 1.919 . S
O310 C321 1.253 . S
O311 Zn305 1.941 . S
O311 C321 1.283 . S
O312 Zn305 1.965 . S
O312 C320 1.303 . S
O313 Zn306 1.938 . S
O313 C320 1.247 . S
O314 Zn306 1.906 . S
O314 C322 1.304 . S
O315 Zn303 1.924 . S
O315 C323 1.311 . S
O316 Zn307 1.977 . S
O316 C322 1.272 . S
O317 Zn307 1.910 . S
O317 C323 1.231 . S
C318 O302 1.225 . S
C318 O324 1.298 . S
C319 O308 1.226 . S
C319 O309 1.307 . S
C320 O312 1.303 . S
C320 O313 1.247 . S
C321 O310 1.253 . S
C321 O311 1.283 . S
C322 O314 1.304 . S
C322 O316 1.272 . S
C323 O315 1.311 . S
C323 O317 1.231 . S
O324 Zn306 1.953 . S
O324 C318 1.298 . S
O325 Zn326 1.953 . S
O325 C341 1.225 . S
Zn326 O325 1.953 . S
Zn326 O327 1.949 1_655 S
Zn326 O333 1.919 . S
Zn326 O338 1.924 . S
O327 Zn326 1.949 1_455 S
O327 Zn328 1.923 1_454 S
O327 Zn329 1.950 . S
O327 Zn330 1.945 1_554 S
Zn328 O327 1.923 1_656 S
Zn328 O331 1.933 1_655 S
Zn328 O334 1.941 . S
Zn328 O335 1.965 . S
Zn329 O327 1.950 . S
Zn329 O336 1.938 . S
Zn329 O337 1.906 . S
Zn329 O347 1.953 . S
Zn330 O327 1.945 1_556 S
Zn330 O332 1.932 . S
Zn330 O339 1.977 1_556 S
Zn330 O340 1.910 1_556 S
O331 Zn328 1.933 1_455 S
O331 C342 1.226 . S
O332 Zn330 1.932 . S
O332 C342 1.307 . S
O333 Zn326 1.919 . S
O333 C344 1.253 1_554 S
O334 Zn328 1.941 . S
O334 C344 1.283 . S
O335 Zn328 1.965 . S
O335 C343 1.303 . S
O336 Zn329 1.938 . S
O336 C343 1.247 1_454 S
O337 Zn329 1.906 . S
O337 C345 1.304 . S
O338 Zn326 1.924 . S
O338 C346 1.311 1_655 S
O339 Zn330 1.977 1_554 S
O339 C345 1.272 . S
O340 Zn330 1.910 1_554 S
O340 C346 1.231 . S
C341 O325 1.225 . S
C341 O347 1.298 1_655 S
C342 O331 1.226 . S
C342 O332 1.307 . S
C343 O335 1.303 . S
C343 O336 1.247 1_656 S
C344 O333 1.253 1_556 S
C344 O334 1.283 . S
C345 O337 1.304 . S
C345 O339 1.272 . S
C346 O338 1.311 1_455 S
C346 O340 1.231 . S
O347 Zn329 1.953 . S
O347 C341 1.298 1_455 S
C348 C349 1.363 . S
C348 C354 1.379 . S
C348 N356 1.356 . S
C349 C348 1.363 . S
C349 C355 1.363 . S
C350 C351 1.363 . S
C350 C355 1.379 . S
C350 N357 1.356 . S
C351 C350 1.363 . S
C351 C354 1.363 . S
N352 C354 1.356 . S
N352 H364 0.984 1_545 S
N352 H365 0.985 . S
N353 C355 1.356 . S
N353 H358 0.984 . S
N353 H359 0.985 . S
C354 C348 1.379 . S
C354 C351 1.363 . S
C354 N352 1.356 . S
C355 C349 1.363 . S
C355 C350 1.379 . S
C355 N353 1.356 . S
N356 C348 1.356 . S
N356 H362 0.984 . S
N356 H363 0.984 . S
N357 C350 1.356 . S
N357 H360 0.984 . S
N357 H361 0.985 . S
H358 N353 0.984 . S
H359 N353 0.985 . S
H360 N357 0.984 . S
H361 N357 0.985 . S
H362 N356 0.984 . S
H363 N356 0.984 . S
H364 N352 0.984 1_565 S
H365 N352 0.985 . S
C366 C367 1.363 . S
C366 C372 1.379 . S
C366 N374 1.356 . S
C367 C366 1.363 . S
C367 C373 1.363 . S
C368 C369 1.363 . S
C368 C373 1.379 . S
C368 N375 1.356 1_565 S
C369 C368 1.363 . S
C369 C372 1.363 . S
N370 C372 1.356 . S
N370 H382 0.984 . S
N370 H383 0.985 . S
N371 C373 1.356 . S
N371 H376 0.984 . S
N371 H377 0.985 . S
C372 C366 1.379 . S
C372 C369 1.363 . S
C372 N370 1.356 . S
C373 C367 1.363 . S
C373 C368 1.379 . S
C373 N371 1.356 . S
N374 C366 1.356 . S
N374 H380 0.984 . S
N374 H381 0.984 . S
N375 C368 1.356 1_545 S
N375 H378 0.984 . S
N375 H379 0.985 . S
H376 N371 0.984 . S
H377 N371 0.985 . S
H378 N375 0.984 . S
H379 N375 0.985 . S
H380 N374 0.984 . S
H381 N374 0.984 . S
H382 N370 0.984 . S
H383 N370 0.985 . S
C384 C385 1.363 . S
C384 C390 1.379 . S
C384 N392 1.356 . S
C385 C384 1.363 . S
C385 C391 1.363 . S
C386 C387 1.363 . S
C386 C391 1.379 . S
C386 N393 1.356 . S
C387 C386 1.363 . S
C387 C390 1.363 . S
N388 C390 1.356 . S
N388 H400 0.984 . S
N388 H401 0.985 . S
N389 C391 1.356 . S
N389 H394 0.984 . S
N389 H395 0.985 . S
C390 C384 1.379 . S
C390 C387 1.363 . S
C390 N388 1.356 . S
C391 C385 1.363 . S
C391 C386 1.379 . S
C391 N389 1.356 . S
N392 C384 1.356 . S
N392 H398 0.984 . S
N392 H399 0.984 . S
N393 C386 1.356 . S
N393 H396 0.984 . S
N393 H397 0.985 . S
H394 N389 0.984 . S
H395 N389 0.985 . S
H396 N393 0.984 . S
H397 N393 0.985 . S
H398 N392 0.984 . S
H399 N392 0.984 . S
H400 N388 0.984 . S
H401 N388 0.985 . S
C402 C403 1.363 . S
C402 C408 1.379 . S
C402 N410 1.356 . S
C403 C402 1.363 . S
C403 C409 1.363 . S
C404 C405 1.363 . S
C404 C409 1.379 . S
C404 N411 1.356 1_655 S
C405 C404 1.363 . S
C405 C408 1.363 . S
N406 C408 1.356 . S
N406 H418 0.984 . S
N406 H419 0.985 . S
N407 C409 1.356 . S
N407 H412 0.984 . S
N407 H413 0.985 1_655 S
C408 C402 1.379 . S
C408 C405 1.363 . S
C408 N406 1.356 . S
C409 C403 1.363 . S
C409 C404 1.379 . S
C409 N407 1.356 . S
N410 C402 1.356 . S
N410 H416 0.984 . S
N410 H417 0.984 . S
N411 C404 1.356 1_455 S
N411 H414 0.985 . S
N411 H415 0.985 . S
H412 N407 0.984 . S
H413 N407 0.985 1_455 S
H414 N411 0.985 . S
H415 N411 0.985 . S
H416 N410 0.984 . S
H417 N410 0.984 . S
H418 N406 0.984 . S
H419 N406 0.985 . S
C420 C421 1.363 . S
C420 C426 1.379 . S
C420 N428 1.356 . S
C421 C420 1.363 . S
C421 C427 1.363 . S
C422 C423 1.363 . S
C422 C427 1.379 . S
C422 N429 1.356 . S
C423 C422 1.363 . S
C423 C426 1.363 . S
N424 C426 1.356 . S
N424 H436 0.984 . S
N424 H437 0.985 . S
N425 C427 1.356 . S
N425 H430 0.984 . S
N425 H431 0.985 . S
C426 C420 1.379 . S
C426 C423 1.363 . S
C426 N424 1.356 . S
C427 C421 1.363 . S
C427 C422 1.379 . S
C427 N425 1.356 . S
N428 C420 1.356 . S
N428 H434 0.984 . S
N428 H435 0.984 . S
N429 C422 1.356 . S
N429 H432 0.984 . S
N429 H433 0.985 1_554 S
H430 N425 0.984 . S
H431 N425 0.985 . S
H432 N429 0.984 . S
H433 N429 0.985 1_556 S
H434 N428 0.984 . S
H435 N428 0.984 . S
H436 N424 0.984 . S
H437 N424 0.985 . S
C438 C439 1.363 . S
C438 C444 1.379 . S
C438 N446 1.356 . S
C439 C438 1.363 . S
C439 C445 1.363 . S
C440 C441 1.363 . S
C440 C445 1.379 . S
C440 N447 1.356 . S
C441 C440 1.363 . S
C441 C444 1.363 . S
N442 C444 1.356 . S
N442 H454 0.984 . S
N442 H455 0.985 . S
N443 C445 1.356 . S
N443 H448 0.984 . S
N443 H449 0.985 . S
C444 C438 1.379 . S
C444 C441 1.363 . S
C444 N442 1.356 . S
C445 C439 1.363 . S
C445 C440 1.379 . S
C445 N443 1.356 . S
N446 C438 1.356 . S
N446 H452 0.984 . S
N446 H453 0.984 . S
N447 C440 1.356 . S
N447 H450 0.984 . S
N447 H451 0.985 . S
H448 N443 0.984 . S
H449 N443 0.985 . S
H450 N447 0.984 . S
H451 N447 0.985 . S
H452 N446 0.984 . S
H453 N446 0.984 . S
H454 N442 0.984 . S
H455 N442 0.985 . S
C456 C457 1.363 . S
C456 C462 1.379 . S
C456 N464 1.356 . S
C457 C456 1.363 . S
C457 C463 1.363 . S
C458 C459 1.363 . S
C458 C463 1.379 . S
C458 N465 1.356 . S
C459 C458 1.363 . S
C459 C462 1.363 . S
N460 C462 1.356 1_554 S
N460 H472 0.984 . S
N460 H473 0.985 . S
N461 C463 1.356 . S
N461 H466 0.984 . S
N461 H467 0.985 . S
C462 C456 1.379 . S
C462 C459 1.363 . S
C462 N460 1.356 1_556 S
C463 C457 1.363 . S
C463 C458 1.379 . S
C463 N461 1.356 . S
N464 C456 1.356 . S
N464 H470 0.984 1_556 S
N464 H471 0.984 . S
N465 C458 1.356 . S
N465 H468 0.984 . S
N465 H469 0.985 . S
H466 N461 0.984 . S
H467 N461 0.985 . S
H468 N465 0.984 . S
H469 N465 0.985 . S
H470 N464 0.984 1_554 S
H471 N464 0.984 . S
H472 N460 0.984 . S
H473 N460 0.985 . S
C474 C475 1.363 . S
C474 C480 1.379 . S
C474 N482 1.356 . S
C475 C474 1.363 . S
C475 C481 1.363 . S
C476 C477 1.363 . S
C476 C481 1.379 . S
C476 N483 1.356 . S
C477 C476 1.363 . S
C477 C480 1.363 . S
N478 C480 1.356 . S
N478 H490 0.984 . S
N478 H491 0.985 . S
N479 C481 1.356 . S
N479 H484 0.984 . S
N479 H485 0.985 . S
C480 C474 1.379 . S
C480 C477 1.363 . S
C480 N478 1.356 . S
C481 C475 1.363 . S
C481 C476 1.379 . S
C481 N479 1.356 . S
N482 C474 1.356 . S
N482 H488 0.984 . S
N482 H489 0.984 . S
N483 C476 1.356 . S
N483 H486 0.984 . S
N483 H487 0.985 . S
H484 N479 0.984 . S
H485 N479 0.985 . S
H486 N483 0.984 . S
H487 N483 0.985 . S
H488 N482 0.984 . S
H489 N482 0.984 . S
H490 N478 0.984 . S
H491 N478 0.985 . S
C492 C493 1.363 . S
C492 C498 1.379 . S
C492 N500 1.356 . S
C493 C492 1.363 . S
C493 C499 1.363 . S
C494 C495 1.363 . S
C494 C499 1.379 . S
C494 N501 1.356 . S
C495 C494 1.363 . S
C495 C498 1.363 . S
N496 C498 1.349 1_655 S
N496 H508 0.990 . S
N496 H509 0.986 . S
N497 C499 1.356 . S
N497 H502 0.984 . S
N497 H503 0.985 . S
C498 C492 1.379 . S
C498 C495 1.363 . S
C498 N496 1.349 1_455 S
C499 C493 1.363 . S
C499 C494 1.379 . S
C499 N497 1.356 . S
N500 C492 1.356 . S
N500 H506 0.984 . S
N500 H507 0.984 . S
N501 C494 1.356 . S
N501 H504 0.984 . S
N501 H505 0.985 1_554 S
H502 N497 0.984 . S
H503 N497 0.985 . S
H504 N501 0.984 . S
H505 N501 0.985 1_556 S
H506 N500 0.984 . S
H507 N500 0.984 . S
H508 N496 0.990 . S
H509 N496 0.986 . S
C510 C511 1.363 . S
C510 C516 1.379 . S
C510 N518 1.356 . S
C511 C510 1.363 . S
C511 C517 1.363 . S
C512 C513 1.363 1_554 S
C512 C517 1.379 1_554 S
C512 N519 1.356 . S
C513 C512 1.363 1_556 S
C513 C516 1.363 . S
N514 C516 1.356 . S
N514 H526 0.984 . S
N514 H527 0.985 . S
N515 C517 1.356 1_554 S
N515 H520 0.984 1_554 S
N515 H521 0.985 . S
C516 C510 1.379 . S
C516 C513 1.363 . S
C516 N514 1.356 . S
C517 C511 1.363 . S
C517 C512 1.379 1_556 S
C517 N515 1.356 1_556 S
N518 C510 1.356 . S
N518 H524 0.984 . S
N518 H525 0.984 . S
N519 C512 1.356 . S
N519 H522 0.984 . S
N519 H523 0.985 . S
H520 N515 0.984 1_556 S
H521 N515 0.985 . S
H522 N519 0.984 . S
H523 N519 0.985 . S
H524 N518 0.984 . S
H525 N518 0.984 . S
H526 N514 0.984 . S
H527 N514 0.985 . S
C528 C529 1.363 . S
C528 C534 1.379 . S
C528 N536 1.356 . S
C529 C528 1.363 . S
C529 C535 1.363 . S
C530 C531 1.363 . S
C530 C535 1.379 . S
C530 N537 1.356 1_655 S
C531 C530 1.363 . S
C531 C534 1.363 . S
N532 C534 1.356 . S
N532 H544 0.984 . S
N532 H545 0.985 . S
N533 C535 1.356 . S
N533 H538 0.984 . S
N533 H539 0.985 . S
C534 C528 1.379 . S
C534 C531 1.363 . S
C534 N532 1.356 . S
C535 C529 1.363 . S
C535 C530 1.379 . S
C535 N533 1.356 . S
N536 C528 1.356 . S
N536 H542 0.984 . S
N536 H543 0.984 . S
N537 C530 1.356 1_455 S
N537 H540 0.984 . S
N537 H541 0.985 . S
H538 N533 0.984 . S
H539 N533 0.985 . S
H540 N537 0.984 . S
H541 N537 0.985 . S
H542 N536 0.984 . S
H543 N536 0.984 . S
H544 N532 0.984 . S
H545 N532 0.985 . S
C546 C547 1.363 . S
C546 C552 1.379 . S
C546 N554 1.356 . S
C547 C546 1.363 . S
C547 C553 1.363 . S
C548 C549 1.363 . S
C548 C553 1.379 . S
C548 N555 1.356 . S
C549 C548 1.363 . S
C549 C552 1.363 . S
N550 C552 1.356 . S
N550 H562 0.984 . S
N550 H563 0.985 . S
N551 C553 1.356 . S
N551 H556 0.984 . S
N551 H557 0.985 . S
C552 C546 1.379 . S
C552 C549 1.363 . S
C552 N550 1.356 . S
C553 C547 1.363 . S
C553 C548 1.379 . S
C553 N551 1.356 . S
N554 C546 1.356 . S
N554 H560 0.984 . S
N554 H561 0.984 . S
N555 C548 1.356 . S
N555 H558 0.984 . S
N555 H559 0.985 . S
H556 N551 0.984 . S
H557 N551 0.985 . S
H558 N555 0.984 . S
H559 N555 0.985 . S
H560 N554 0.984 . S
H561 N554 0.984 . S
H562 N550 0.984 . S
H563 N550 0.985 . S
C564 C565 1.363 . S
C564 C570 1.379 . S
C564 N572 1.356 . S
C565 C564 1.363 . S
C565 C571 1.363 1_565 S
C566 C567 1.363 1_545 S
C566 C571 1.379 . S
C566 N573 1.356 1_655 S
C567 C566 1.363 1_565 S
C567 C570 1.363 . S
N568 C570 1.356 . S
N568 H580 0.984 . S
N568 H581 0.985 . S
N569 C571 1.356 1_455 S
N569 H574 0.984 1_455 S
N569 H575 0.985 . S
C570 C564 1.379 . S
C570 C567 1.363 . S
C570 N568 1.356 . S
C571 C565 1.363 1_545 S
C571 C566 1.379 . S
C571 N569 1.356 1_655 S
N572 C564 1.356 . S
N572 H578 0.984 . S
N572 H579 0.984 . S
N573 C566 1.356 1_455 S
N573 H576 0.984 . S
N573 H577 0.985 . S
H574 N569 0.984 1_655 S
H575 N569 0.985 . S
H576 N573 0.984 . S
H577 N573 0.985 . S
H578 N572 0.984 . S
H579 N572 0.984 . S
H580 N568 0.984 . S
H581 N568 0.985 . S
C582 C583 1.366 . S
C582 C588 1.378 1_545 S
C582 N590 1.354 1_545 S
C583 C582 1.366 . S
C583 C589 1.363 . S
C584 C585 1.363 . S
C584 C589 1.379 . S
C584 N591 1.356 . S
C585 C584 1.363 . S
C585 C588 1.363 1_545 S
N586 C588 1.356 . S
N586 H598 0.984 . S
N586 H599 0.985 . S
N587 C589 1.356 . S
N587 H592 0.984 . S
N587 H593 0.985 . S
C588 C582 1.378 1_565 S
C588 C585 1.363 1_565 S
C588 N586 1.356 . S
C589 C583 1.363 . S
C589 C584 1.379 . S
C589 N587 1.356 . S
N590 C582 1.354 1_565 S
N590 H596 0.984 . S
N590 H597 0.984 . S
N591 C584 1.356 . S
N591 H594 0.984 . S
N591 H595 0.985 . S
H592 N587 0.984 . S
H593 N587 0.985 . S
H594 N591 0.984 . S
H595 N591 0.985 . S
H596 N590 0.984 . S
H597 N590 0.984 . S
H598 N586 0.984 . S
H599 N586 0.985 . S
C600 C601 1.363 . S
C600 C606 1.379 . S
C600 N608 1.356 . S
C601 C600 1.363 . S
C601 C607 1.363 . S
C602 C603 1.363 . S
C602 C607 1.379 . S
C602 N609 1.356 . S
C603 C602 1.363 . S
C603 C606 1.363 . S
N604 C606 1.356 . S
N604 H616 0.984 . S
N604 H617 0.985 . S
N605 C607 1.356 . S
N605 H610 0.984 . S
N605 H611 0.985 . S
C606 C600 1.379 . S
C606 C603 1.363 . S
C606 N604 1.356 . S
C607 C601 1.363 . S
C607 C602 1.379 . S
C607 N605 1.356 . S
N608 C600 1.356 . S
N608 H614 0.984 . S
N608 H615 0.984 . S
N609 C602 1.356 . S
N609 H612 0.984 . S
N609 H613 0.985 . S
H610 N605 0.984 . S
H611 N605 0.985 . S
H612 N609 0.984 . S
H613 N609 0.985 . S
H614 N608 0.984 . S
H615 N608 0.984 . S
H616 N604 0.984 . S
H617 N604 0.985 . S
C618 C619 1.363 . S
C618 C624 1.379 . S
C618 N626 1.356 . S
C619 C618 1.363 . S
C619 C625 1.363 . S
C620 C621 1.363 . S
C620 C625 1.379 . S
C620 N627 1.356 . S
C621 C620 1.363 . S
C621 C624 1.363 . S
N622 C624 1.356 . S
N622 H634 0.984 . S
N622 H635 0.985 . S
N623 C625 1.356 . S
N623 H628 0.984 . S
N623 H629 0.985 . S
C624 C618 1.379 . S
C624 C621 1.363 . S
C624 N622 1.356 . S
C625 C619 1.363 . S
C625 C620 1.379 . S
C625 N623 1.356 . S
N626 C618 1.356 . S
N626 H632 0.984 . S
N626 H633 0.984 . S
N627 C620 1.356 . S
N627 H630 0.984 . S
N627 H631 0.985 1_455 S
H628 N623 0.984 . S
H629 N623 0.985 . S
H630 N627 0.984 . S
H631 N627 0.985 1_655 S
H632 N626 0.984 . S
H633 N626 0.984 . S
H634 N622 0.984 . S
H635 N622 0.985 . S
C636 C637 1.363 . S
C636 C642 1.379 . S
C636 N644 1.356 . S
C637 C636 1.363 . S
C637 C643 1.363 1_565 S
C638 C639 1.363 1_545 S
C638 C643 1.379 . S
C638 N645 1.356 1_556 S
C639 C638 1.363 1_565 S
C639 C642 1.363 . S
N640 C642 1.356 . S
N640 H652 0.984 . S
N640 H653 0.985 . S
N641 C643 1.356 1_554 S
N641 H646 0.984 . S
N641 H647 0.985 . S
C642 C636 1.379 . S
C642 C639 1.363 . S
C642 N640 1.356 . S
C643 C637 1.363 1_545 S
C643 C638 1.379 . S
C643 N641 1.356 1_556 S
N644 C636 1.356 . S
N644 H650 0.984 . S
N644 H651 0.984 . S
N645 C638 1.356 1_554 S
N645 H648 0.984 . S
N645 H649 0.985 . S
H646 N641 0.984 . S
H647 N641 0.985 . S
H648 N645 0.984 . S
H649 N645 0.985 . S
H650 N644 0.984 . S
H651 N644 0.984 . S
H652 N640 0.984 . S
H653 N640 0.985 . S
C654 C655 1.363 1_565 S
C654 C660 1.379 . S
C654 N662 1.356 . S
C655 C654 1.363 1_545 S
C655 C661 1.363 . S
C656 C657 1.363 . S
C656 C661 1.379 . S
C656 N663 1.356 . S
C657 C656 1.363 . S
C657 C660 1.363 1_545 S
N658 C660 1.356 . S
N658 H670 0.984 . S
N658 H671 0.985 . S
N659 C661 1.356 . S
N659 H664 0.984 . S
N659 H665 0.985 . S
C660 C654 1.379 . S
C660 C657 1.363 1_565 S
C660 N658 1.356 . S
C661 C655 1.363 . S
C661 C656 1.379 . S
C661 N659 1.356 . S
N662 C654 1.356 . S
N662 H668 0.984 . S
N662 H669 0.984 . S
N663 C656 1.356 . S
N663 H666 0.984 . S
N663 H667 0.985 . S
H664 N659 0.984 . S
H665 N659 0.985 . S
H666 N663 0.984 . S
H667 N663 0.985 . S
H668 N662 0.984 . S
H669 N662 0.984 . S
H670 N658 0.984 . S
H671 N658 0.985 . S
C672 C673 1.363 . S
C672 C678 1.379 . S
C672 N680 1.356 . S
C673 C672 1.363 . S
C673 C679 1.363 . S
C674 C675 1.363 . S
C674 C679 1.379 . S
C674 N681 1.356 . S
C675 C674 1.363 . S
C675 C678 1.363 . S
N676 C678 1.356 1_556 S
N676 H688 0.984 . S
N676 H689 0.985 . S
N677 C679 1.356 . S
N677 H682 0.984 . S
N677 H683 0.985 . S
C678 C672 1.379 . S
C678 C675 1.363 . S
C678 N676 1.356 1_554 S
C679 C673 1.363 . S
C679 C674 1.379 . S
C679 N677 1.356 . S
N680 C672 1.356 . S
N680 H686 0.984 1_554 S
N680 H687 0.984 . S
N681 C674 1.356 . S
N681 H684 0.984 . S
N681 H685 0.985 . S
H682 N677 0.984 . S
H683 N677 0.985 . S
H684 N681 0.984 . S
H685 N681 0.985 . S
H686 N680 0.984 1_556 S
H687 N680 0.984 . S
H688 N676 0.984 . S
H689 N676 0.985 . S
C690 C691 1.363 . S
C690 C696 1.379 . S
C690 N698 1.356 . S
C691 C690 1.363 . S
C691 C697 1.363 . S
C692 C693 1.363 . S
C692 C697 1.379 . S
C692 N699 1.356 . S
C693 C692 1.363 . S
C693 C696 1.363 . S
N694 C696 1.356 . S
N694 H706 0.984 . S
N694 H707 0.985 . S
N695 C697 1.356 . S
N695 H700 0.984 . S
N695 H701 0.985 . S
C696 C690 1.379 . S
C696 C693 1.363 . S
C696 N694 1.356 . S
C697 C691 1.363 . S
C697 C692 1.379 . S
C697 N695 1.356 . S
N698 C690 1.356 . S
N698 H704 0.984 . S
N698 H705 0.984 . S
N699 C692 1.356 . S
N699 H702 0.984 . S
N699 H703 0.985 . S
H700 N695 0.984 . S
H701 N695 0.985 . S
H702 N699 0.984 . S
H703 N699 0.985 . S
H704 N698 0.984 . S
H705 N698 0.984 . S
H706 N694 0.984 . S
H707 N694 0.985 . S
C708 C709 1.363 . S
C708 C714 1.379 . S
C708 N716 1.356 . S
C709 C708 1.363 . S
C709 C715 1.363 1_556 S
C710 C711 1.363 1_554 S
C710 C715 1.379 . S
C710 N717 1.356 1_655 S
C711 C710 1.363 1_556 S
C711 C714 1.363 . S
N712 C714 1.356 . S
N712 H724 0.984 . S
N712 H725 0.985 . S
N713 C715 1.356 1_455 S
N713 H718 0.984 1_455 S
N713 H719 0.985 . S
C714 C708 1.379 . S
C714 C711 1.363 . S
C714 N712 1.356 . S
C715 C709 1.363 1_554 S
C715 C710 1.379 . S
C715 N713 1.356 1_655 S
N716 C708 1.356 . S
N716 H722 0.984 . S
N716 H723 0.984 . S
N717 C710 1.356 1_455 S
N717 H720 0.984 1_455 S
N717 H721 0.985 . S
H718 N713 0.984 1_655 S
H719 N713 0.985 . S
H720 N717 0.984 1_655 S
H721 N717 0.985 . S
H722 N716 0.984 . S
H723 N716 0.984 . S
H724 N712 0.984 . S
H725 N712 0.985 . S
C726 C727 1.363 . S
C726 C732 1.379 . S
C726 N734 1.356 . S
C727 C726 1.363 . S
C727 C733 1.363 . S
C728 C729 1.363 . S
C728 C733 1.379 . S
C728 N735 1.356 . S
C729 C728 1.363 . S
C729 C732 1.363 . S
N730 C732 1.356 . S
N730 H742 0.984 . S
N730 H743 0.985 . S
N731 C733 1.356 1_556 S
N731 H736 0.984 1_556 S
N731 H737 0.985 . S
C732 C726 1.379 . S
C732 C729 1.363 . S
C732 N730 1.356 . S
C733 C727 1.363 . S
C733 C728 1.379 . S
C733 N731 1.356 1_554 S
N734 C726 1.356 . S
N734 H740 0.984 . S
N734 H741 0.984 . S
N735 C728 1.356 . S
N735 H738 0.984 . S
N735 H739 0.985 1_554 S
H736 N731 0.984 1_554 S
H737 N731 0.985 . S
H738 N735 0.984 . S
H739 N735 0.985 1_556 S
H740 N734 0.984 . S
H741 N734 0.984 . S
H742 N730 0.984 . S
H743 N730 0.985 . S
C744 C745 1.363 . S
C744 C750 1.379 . S
C744 N752 1.356 . S
C745 C744 1.363 . S
C745 C751 1.363 . S
C746 C747 1.363 . S
C746 C751 1.379 . S
C746 N753 1.356 . S
C747 C746 1.363 . S
C747 C750 1.363 . S
N748 C750 1.356 1_655 S
N748 H760 0.984 . S
N748 H761 0.986 . S
N749 C751 1.356 . S
N749 H754 0.984 . S
N749 H755 0.985 . S
C750 C744 1.379 . S
C750 C747 1.363 . S
C750 N748 1.356 1_455 S
C751 C745 1.363 . S
C751 C746 1.379 . S
C751 N749 1.356 . S
N752 C744 1.356 . S
N752 H758 0.984 1_455 S
N752 H759 0.984 . S
N753 C746 1.356 . S
N753 H756 0.984 . S
N753 H757 0.985 . S
H754 N749 0.984 . S
H755 N749 0.985 . S
H756 N753 0.984 . S
H757 N753 0.985 . S
H758 N752 0.984 1_655 S
H759 N752 0.984 . S
H760 N748 0.984 . S
H761 N748 0.986 . S
C762 C763 1.363 . S
C762 C768 1.379 . S
C762 N770 1.356 . S
C763 C762 1.363 . S
C763 C769 1.363 . S
C764 C765 1.363 . S
C764 C769 1.379 . S
C764 N771 1.356 . S
C765 C764 1.363 . S
C765 C768 1.363 . S
N766 C768 1.356 . S
N766 H778 0.984 . S
N766 H779 0.985 . S
N767 C769 1.356 . S
N767 H772 0.984 . S
N767 H773 0.985 . S
C768 C762 1.379 . S
C768 C765 1.363 . S
C768 N766 1.356 . S
C769 C763 1.363 . S
C769 C764 1.379 . S
C769 N767 1.356 . S
N770 C762 1.356 . S
N770 H776 0.984 . S
N770 H777 0.984 . S
N771 C764 1.356 . S
N771 H774 0.984 . S
N771 H775 0.985 . S
H772 N767 0.984 . S
H773 N767 0.985 . S
H774 N771 0.984 . S
H775 N771 0.985 . S
H776 N770 0.984 . S
H777 N770 0.984 . S
H778 N766 0.984 . S
H779 N766 0.985 . S
C349 C29 1.551 . S
C351 C274 1.610 . S
C367 C49 1.565 . S
C369 C298 1.518 . S
C387 C318 1.496 . S
C385 C93 1.384 . S
C403 C119 1.347 . S
C405 C341 1.447 . S
C423 C300 1.615 . S
C421 C17 1.607 . S
C441 C276 1.642 . S
C439 C61 1.691 . S
C459 C344 1.546 . S
C457 C81 1.509 . S
C477 C321 1.585 . S
C475 C125 1.526 . S
C493 C23 1.372 . S
C495 C346 1.386 . S
C513 C295 1.602 . S
C511 C87 1.506 . S
C529 C113 1.549 . S
C531 C273 1.644 . S
C547 C55 1.449 . S
C549 C323 1.395 . S
C567 C277 1.680 . S
C565 C157 1.683 . S
C583 C189 1.504 . S
C585 C299 1.639 . S
C601 C221 1.771 . S
C603 C319 1.757 . S
C619 C253 1.602 . S
C621 C342 1.768 . S
C637 C145 1.688 . S
C639 C297 1.622 . S
C657 C275 1.628 . S
C655 C183 1.449 . S
C675 C345 1.541 . S
C673 C209 1.590 . S
C693 C322 1.530 . S
C691 C247 1.458 . S
C709 C151 1.884 . S
C711 C343 1.805 . S
C729 C296 1.615 . S
C727 C215 1.643 . S
C747 C272 1.644 . S
C745 C241 1.504 . S
C763 C177 1.716 . S
C765 C320 1.810 . S
