# Generated by pormake.
# Topology anh, (6,3)-cn, num edge types: 1
# Building blocks:
#     Node 0, Type 0, BuildingBlock: PAMTUU_clean_sbu_0, # of connection points: 6
#     Node 1, Type 0, BuildingBlock: PAMTUU_clean_sbu_0, # of connection points: 6
#     Node 2, Type 0, BuildingBlock: PAMTUU_clean_sbu_0, # of connection points: 6
#     Node 3, Type 1, BuildingBlock: ESEHIV_clean_linker_0, # of connection points: 3
#     Node 4, Type 1, BuildingBlock: ESEHIV_clean_linker_0, # of connection points: 3
#     Node 5, Type 1, BuildingBlock: ESEHIV_clean_linker_0, # of connection points: 3
#     Node 6, Type 1, BuildingBlock: ESEHIV_clean_linker_0, # of connection points: 3
#     Node 7, Type 1, BuildingBlock: ESEHIV_clean_linker_0, # of connection points: 3
#     Node 8, Type 1, BuildingBlock: ESEHIV_clean_linker_0, # of connection points: 3
#     Edge 9, Type (0, 1), BuildingBlock: EZIPEK_clean_linker_0, # of connection points: 2
#     Edge 10, Type (0, 1), BuildingBlock: EZIPEK_clean_linker_0, # of connection points: 2
#     Edge 11, Type (0, 1), BuildingBlock: EZIPEK_clean_linker_0, # of connection points: 2
#     Edge 12, Type (0, 1), BuildingBlock: EZIPEK_clean_linker_0, # of connection points: 2
#     Edge 13, Type (0, 1), BuildingBlock: EZIPEK_clean_linker_0, # of connection points: 2
#     Edge 14, Type (0, 1), BuildingBlock: EZIPEK_clean_linker_0, # of connection points: 2
#     Edge 15, Type (0, 1), BuildingBlock: EZIPEK_clean_linker_0, # of connection points: 2
#     Edge 16, Type (0, 1), BuildingBlock: EZIPEK_clean_linker_0, # of connection points: 2
#     Edge 17, Type (0, 1), BuildingBlock: EZIPEK_clean_linker_0, # of connection points: 2
#     Edge 18, Type (0, 1), BuildingBlock: EZIPEK_clean_linker_0, # of connection points: 2
#     Edge 19, Type (0, 1), BuildingBlock: EZIPEK_clean_linker_0, # of connection points: 2
#     Edge 20, Type (0, 1), BuildingBlock: EZIPEK_clean_linker_0, # of connection points: 2
#     Edge 21, Type (0, 1), BuildingBlock: EZIPEK_clean_linker_0, # of connection points: 2
#     Edge 22, Type (0, 1), BuildingBlock: EZIPEK_clean_linker_0, # of connection points: 2
#     Edge 23, Type (0, 1), BuildingBlock: EZIPEK_clean_linker_0, # of connection points: 2
#     Edge 24, Type (0, 1), BuildingBlock: EZIPEK_clean_linker_0, # of connection points: 2
#     Edge 25, Type (0, 1), BuildingBlock: EZIPEK_clean_linker_0, # of connection points: 2
#     Edge 26, Type (0, 1), BuildingBlock: EZIPEK_clean_linker_0, # of connection points: 2
# Relax obj value: 0.457
# Max RMSD: 0.223
# Mean RMSD: 0.181
data_MOF--net-anh--node1-PAMTUU_clean_sbu_0--node2-ESEHIV_clean_linker_0--edge1-EZIPEK_clean_linker_0
_symmetry_space_group_name_H-M    P1
_symmetry_Int_Tables_number       1
_symmetry_cell_setting            triclinic
loop_
_symmetry_equiv_pos_as_xyz
'x, y, z'
_cell_length_a     20.618827
_cell_length_b     20.716966
_cell_length_c     37.595512
_cell_angle_alpha  91.559404
_cell_angle_beta   91.511072
_cell_angle_gamma 119.41895
loop_
_atom_site_label
_atom_site_type_symbol
_atom_site_fract_x
_atom_site_fract_y
_atom_site_fract_z
_atom_type_partial_charge
Tb0 Tb 0.16121 0.74498 0.17453 0.0
Tb1 Tb 0.25172 0.662 0.18487 0.0
C2 C 0.20443 0.6816 0.10571 0.0
C3 C 1.01011 0.79013 0.17831 0.0
C4 C 0.85593 0.71197 0.18686 0.0
C5 C 0.88408 0.73972 0.15375 0.0
C6 C 0.96052 0.77913 0.14959 0.0
C7 C 0.98215 0.76869 0.21235 0.0
C8 C 0.90514 0.73076 0.2167 0.0
C9 C 1.0879 0.81265 0.1707 0.0
O10 O 1.0638 0.62672 0.17858 0.0
O11 O 1.13149 0.56943 0.19088 0.0
O12 O 0.26542 0.72845 0.23267 0.0
O13 O 1.14907 0.70775 0.22838 0.0
O14 O 0.26606 0.59333 0.22036 0.0
O15 O 0.32962 0.62806 0.17295 0.0
O16 O 0.34902 0.78047 0.1854 0.0
O17 O 0.28198 0.84129 0.18186 0.0
O18 O 0.17918 0.7238 0.11917 0.0
O19 O 0.23192 0.64982 0.12653 0.0
C20 C 1.06437 0.56451 0.18713 0.0
O21 O 1.13319 0.82133 0.19758 0.0
O22 O 1.09516 0.77551 0.14405 0.0
C23 C 0.20802 0.72409 0.24827 0.0
C24 C 0.28941 0.50702 0.19032 0.0
C25 C 0.2609 0.37186 0.15728 0.0
C26 C 0.32853 0.41707 0.17712 0.0
C27 C 0.34278 0.48442 0.19318 0.0
C28 C 0.21838 0.45797 0.17499 0.0
C29 C 0.20385 0.39025 0.15901 0.0
C30 C 0.31079 0.58416 0.19963 0.0
C31 C 0.34894 0.84516 0.18567 0.0
H32 H 0.84679 0.72683 0.13052 0.0
H33 H 0.98075 0.79597 0.12323 0.0
H34 H 1.01922 0.77722 0.23511 0.0
H35 H 0.88409 0.71108 0.24261 0.0
H36 H 0.37396 0.405 0.17704 0.0
H37 H 0.39749 0.52122 0.20543 0.0
H38 H 0.17586 0.47408 0.17314 0.0
H39 H 1.15043 0.35588 0.14522 0.0
Tb40 Tb 0.61408 0.15249 0.5086 0.0
Tb41 Tb 0.79027 0.23921 0.51496 0.0
C42 C 0.70882 0.20046 0.43794 0.0
C43 C 0.41704 1.00639 0.51344 0.0
C44 C 0.3313 0.85329 0.52205 0.0
C45 C 0.32266 0.88447 0.49085 0.0
C46 C 0.36483 0.96047 0.48668 0.0
C47 C 0.42089 0.97637 0.54607 0.0
C48 C 0.37696 0.90009 0.55059 0.0
C49 C 0.47356 1.0814 0.50429 0.0
O50 O 0.6371 1.05525 0.51275 0.0
O51 O 0.76402 0.11933 0.51972 0.0
O52 O 0.75343 0.24618 0.56717 0.0
O53 O 0.6425 0.14014 0.56295 0.0
O54 O 0.88423 0.2484 0.54275 0.0
O55 O 0.89569 0.32149 0.50057 0.0
O56 O 0.76702 0.33606 0.5195 0.0
O57 O 0.63949 0.27225 0.51791 0.0
O58 O 0.64554 0.18106 0.45326 0.0
O59 O 0.76967 0.21735 0.45716 0.0
C60 C 0.70093 1.05403 0.51882 0.0
O61 O 0.51212 0.12899 0.53038 0.0
O62 O 0.51569 1.08285 0.47873 0.0
C63 C 0.69988 0.18995 0.58213 0.0
C64 C 0.98153 0.27927 0.50427 0.0
C65 C 1.07587 0.26364 0.45648 0.0
C66 C 1.10467 0.32223 0.48286 0.0
C67 C 1.05757 0.33031 0.50624 0.0
C68 C 0.95426 0.21525 0.48181 0.0
C69 C 1.00141 0.20698 0.45839 0.0
C70 C 0.92984 0.29774 0.52172 0.0
C71 C 0.70289 0.33753 0.52125 0.0
H72 H 0.28709 0.84927 0.46865 0.0
H73 H 0.36073 0.98257 0.46143 0.0
H74 H 0.46084 1.01077 0.56716 0.0
H75 H 0.38352 0.87688 0.57501 0.0
H76 H 0.16184 0.36667 0.48317 0.0
H77 H 1.07956 0.37948 0.52384 0.0
H78 H 0.89547 0.17449 0.48047 0.0
H79 H 0.9777 0.15969 0.43968 0.0
Tb80 Tb 0.63397 0.55782 0.83315 0.0
Tb81 Tb 0.71979 0.72859 0.85348 0.0
C82 C 0.68819 0.67313 0.77168 0.0
C83 C 0.58687 0.36298 0.82831 0.0
C84 C 0.65444 0.27849 0.8459 0.0
C85 C 0.63225 0.27988 0.81043 0.0
C86 C 0.59829 0.32146 0.80173 0.0
C87 C 0.60349 0.35668 0.86421 0.0
C88 C 0.63608 0.31355 0.87302 0.0
C89 C 0.56955 0.42071 0.81752 0.0
O90 O 0.75341 0.57836 0.84084 0.0
O91 O 0.81348 0.7014 0.85734 0.0
O92 O 0.66443 0.67142 0.90079 0.0
O93 O 0.67107 0.56773 0.88827 0.0
O94 O 0.79726 0.8115 0.88956 0.0
O95 O 0.74466 0.83835 0.84641 0.0
O96 O 0.60077 0.70706 0.85112 0.0
O97 O 0.53896 0.58022 0.84728 0.0
O98 O 0.63846 0.60786 0.78205 0.0
O99 O 0.73223 0.72558 0.79538 0.0
C100 C 0.81692 0.63938 0.85176 0.0
O101 O 0.54786 0.45032 0.84215 0.0
O102 O 0.61902 0.47083 0.79795 0.0
C103 C 0.66321 0.61121 0.91132 0.0
C104 C 0.87091 0.91989 0.85939 0.0
C105 C 0.98781 1.02013 0.81886 0.0
C106 C 0.94716 1.04411 0.83989 0.0
C107 C 0.88876 0.99417 0.85971 0.0
C108 C 0.91745 0.89789 0.84254 0.0
C109 C 0.97618 0.94802 0.82275 0.0
C110 C 0.79796 0.86425 0.87119 0.0
C111 C 0.5363 0.64341 0.85179 0.0
H112 H 0.64555 0.25251 0.78917 0.0
H113 H 0.58587 0.32545 0.77394 0.0
H114 H 0.59562 0.38839 0.88525 0.0
H115 H 0.65212 0.31223 0.90055 0.0
H116 H 0.95504 1.0995 0.83822 0.0
H117 H 0.85384 1.01224 0.87281 0.0
H118 H 0.90516 0.84075 0.84243 0.0
H119 H 1.00832 0.92847 0.80834 0.0
H120 H 0.61048 0.10586 0.27536 0.0
H121 H 0.81294 0.31431 0.27821 0.0
H122 H 0.70849 0.20221 0.17598 0.0
C123 C 0.65336 0.14942 0.26054 0.0
C124 C 0.64667 0.14346 0.22286 0.0
C125 C 0.71256 0.20966 0.28013 0.0
C126 C 0.76953 0.26861 0.26204 0.0
C127 C 0.7738 0.26991 0.22427 0.0
C128 C 0.70958 0.20499 0.20477 0.0
H129 H 0.69774 0.80096 0.61171 0.0
H130 H 0.70187 0.59622 0.61117 0.0
H131 H 0.70536 0.69706 0.51092 0.0
C132 C 0.6997 0.75712 0.59621 0.0
C133 C 0.70296 0.76159 0.55852 0.0
C134 C 0.70024 0.69887 0.61491 0.0
C135 C 0.70189 0.63992 0.59594 0.0
C136 C 0.70207 0.63429 0.5583 0.0
C137 C 0.70367 0.69763 0.53965 0.0
H138 H 1.0793 0.6433 0.94462 0.0
H139 H 0.28785 0.64528 0.94391 0.0
H140 H 0.17725 0.6434 0.84358 0.0
C141 C 1.12262 0.64294 0.92904 0.0
C142 C 1.1158 0.64226 0.89127 0.0
C143 C 0.18434 0.64551 0.9478 0.0
C144 C 0.24172 0.64384 0.92869 0.0
C145 C 0.24313 0.64298 0.89097 0.0
C146 C 0.17824 0.64225 0.87233 0.0
H147 H 0.19082 0.51572 0.34854 0.0
H148 H 0.234 0.69853 0.42043 0.0
H149 H 0.19924 0.49339 0.46206 0.0
C150 C 0.1983 0.53882 0.37554 0.0
C151 C 0.19187 0.4952 0.4045 0.0
C152 C 0.21073 0.61109 0.38147 0.0
C153 C 0.22236 0.64175 0.41613 0.0
C154 C 0.2205 0.60022 0.44521 0.0
C155 C 0.2029 0.5262 0.43945 0.0
H156 H 0.74613 0.21049 0.75411 0.0
H157 H 0.89673 0.16692 0.69457 0.0
H158 H 0.90011 0.16113 0.80918 0.0
C159 C 0.79168 0.19837 0.75352 0.0
C160 C 0.82273 0.18998 0.78538 0.0
C161 C 0.81747 0.18915 0.72086 0.0
C162 C 0.8765 0.1737 0.71995 0.0
C163 C 0.90547 0.16165 0.75171 0.0
C164 C 0.8784 0.17022 0.78443 0.0
H165 H 0.46935 0.4304 0.03261 0.0
H166 H 0.6841 0.57885 0.08309 0.0
H167 H 0.49581 0.4554 0.14685 0.0
C168 C 0.5049 0.4549 0.05649 0.0
C169 C 0.47414 0.43495 0.08986 0.0
C170 C 0.58006 0.509 0.05378 0.0
C171 C 0.62565 0.53815 0.0849 0.0
C172 C 0.59506 0.51957 0.11841 0.0
C173 C 0.51943 0.46839 0.12086 0.0
C174 C 0.26589 0.35574 0.09406 0.0
C175 C 0.2608 0.32365 0.12701 0.0
C176 C 0.37342 0.31895 0.11458 0.0
C177 C 0.3939 0.38142 0.09328 0.0
N178 N 0.35328 0.45618 0.06027 0.0
N179 N 0.28691 0.24019 0.15831 0.0
C180 C 0.33773 0.3976 0.08094 0.0
C181 C 0.30514 0.2901 0.1324 0.0
N182 N 0.20445 0.35215 0.07781 0.0
N183 N 0.42062 0.29097 0.11889 0.0
H184 H 0.23773 0.22291 0.17178 0.0
H185 H 0.31967 0.21742 0.16646 0.0
H186 H 0.47035 0.31201 0.1056 0.0
H187 H 0.40841 0.24464 0.13345 0.0
H188 H 0.20558 0.3737 0.05293 0.0
H189 H 1.15177 0.32046 0.08791 0.0
H190 H 0.31381 0.47218 0.05395 0.0
H191 H 0.40621 0.49234 0.05183 0.0
C192 C 1.07768 0.28713 0.39384 0.0
C193 C 1.11501 0.27469 0.42236 0.0
C194 C 0.22334 0.39427 0.41342 0.0
C195 C 0.17321 0.41671 0.39914 0.0
N196 N 1.05197 0.37965 0.37035 0.0
N197 N 0.23416 0.29575 0.44293 0.0
C198 C 1.10065 0.36157 0.38639 0.0
C199 C 0.193 0.3203 0.42489 0.0
N200 N 1.01862 0.22894 0.37618 0.0
N201 N 0.29743 0.4446 0.41775 0.0
H202 H 0.20862 0.24221 0.45244 0.0
H203 H 0.29151 0.3268 0.44796 0.0
H204 H 0.31924 0.49846 0.40897 0.0
H205 H 0.33708 0.43246 0.42838 0.0
H206 H 0.99082 0.23535 0.35415 0.0
H207 H 1.00374 0.17438 0.38169 0.0
H208 H 0.99639 0.34053 0.36418 0.0
H209 H 1.06547 0.43373 0.36504 0.0
C210 C 1.0598 0.14013 0.79113 0.0
C211 C 1.02341 1.06219 0.7868 0.0
C212 C 0.93999 1.06202 0.74049 0.0
C213 C 0.96118 0.13601 0.75199 0.0
N214 N 1.05879 0.25359 0.77637 0.0
N215 N 0.9766 0.96715 0.74008 0.0
C216 C 1.02872 0.1785 0.7727 0.0
C217 C 0.981 1.02995 0.75486 0.0
N218 N 1.11608 0.17404 0.81649 0.0
N219 N 0.87799 1.02034 0.71889 0.0
H220 H 1.00902 0.94547 0.75032 0.0
H221 H 0.9482 0.9428 0.71579 0.0
H222 H 0.84567 1.04098 0.70767 0.0
H223 H 0.85671 0.96369 0.71357 0.0
H224 H 1.14223 0.23033 0.82374 0.0
H225 H 1.13557 0.1434 0.83034 0.0
H226 H 1.1085 0.28838 0.79065 0.0
H227 H 1.03521 0.28105 0.76288 0.0
C228 C 0.75265 0.5805 0.18556 0.0
C229 C 0.77548 0.65735 0.18781 0.0
C230 C 0.65883 0.63386 0.15819 0.0
C231 C 0.64256 0.55997 0.15042 0.0
N232 N 0.65582 0.45569 0.16667 0.0
N233 N 0.74174 0.75261 0.18908 0.0
C234 C 0.68308 0.53062 0.16797 0.0
C235 C 0.72458 0.68205 0.17889 0.0
N236 N 0.79993 0.55652 0.19757 0.0
N237 N 0.61374 0.65842 0.14385 0.0
H238 H 0.79043 0.78769 0.20425 0.0
H239 H 0.70605 0.77413 0.18513 0.0
H240 H 0.56373 0.62285 0.12978 0.0
H241 H 0.62606 0.71353 0.14523 0.0
H242 H 0.78994 0.50252 0.19383 0.0
H243 H 0.85041 0.5911 0.21131 0.0
H244 H 0.67889 0.42954 0.18139 0.0
H245 H 0.60552 0.41886 0.15318 0.0
C246 C 0.3476 0.7427 0.51181 0.0
C247 C 0.30038 0.77171 0.52124 0.0
C248 C 0.19157 0.65983 0.49608 0.0
C249 C 0.24048 0.63809 0.48104 0.0
N250 N 0.35768 0.63974 0.48536 0.0
N251 N 0.17815 0.74935 0.53413 0.0
C252 C 0.31601 0.67261 0.49316 0.0
C253 C 0.22207 0.72625 0.51787 0.0
N254 N 0.42298 0.78506 0.5176 0.0
N255 N 1.11712 0.6194 0.48723 0.0
H256 H 0.20123 0.7984 0.54999 0.0
H257 H 1.12032 0.71827 0.53413 0.0
H258 H 1.09467 0.56945 0.47212 0.0
H259 H 1.0782 0.63501 0.49437 0.0
H260 H 0.46103 0.77159 0.50707 0.0
H261 H 0.44827 0.83533 0.5323 0.0
H262 H 0.41181 0.65894 0.49554 0.0
H263 H 0.33531 0.58879 0.47127 0.0
C264 C 0.78265 0.29696 0.85228 0.0
C265 C 0.70475 0.24774 0.85248 0.0
C266 C 0.71996 0.14686 0.82716 0.0
C267 C 0.79336 0.20022 0.81921 0.0
N268 N 0.9035 0.31605 0.83467 0.0
N269 N 0.60375 0.12333 0.85329 0.0
C270 C 0.82814 0.27181 0.83605 0.0
C271 C 0.67543 0.17102 0.84508 0.0
N272 N 0.81121 0.36874 0.86477 0.0
N273 N 0.69235 1.07499 0.81507 0.0
H274 H 0.57175 0.14229 0.86636 0.0
H275 H 0.57781 1.066 0.84927 0.0
H276 H 0.72597 1.05733 0.8026 0.0
H277 H 0.63756 1.03331 0.81745 0.0
H278 H 0.86637 0.40977 0.8629 0.0
H279 H 0.77908 0.38748 0.87767 0.0
H280 H 0.93383 0.36803 0.84758 0.0
H281 H 0.93681 0.2978 0.82245 0.0
C282 C 0.65605 0.9071 0.50735 0.0
C283 C 0.70288 0.97779 0.52643 0.0
C284 C 0.7605 0.90856 0.55789 0.0
C285 C 0.70722 0.83608 0.54283 0.0
N286 N 0.60105 0.77058 0.50237 0.0
N287 N 0.79234 1.03511 0.57603 0.0
C288 C 0.65441 0.83719 0.51721 0.0
C289 C 0.75315 0.97498 0.5531 0.0
N290 N 0.61435 0.90675 0.47847 0.0
N291 N 0.82195 0.91545 0.57608 0.0
H292 H 0.78813 1.08307 0.57524 0.0
H293 H 0.82221 1.03416 0.59861 0.0
H294 H 0.83164 0.87089 0.5789 0.0
H295 H 0.8673 0.96645 0.58445 0.0
H296 H 0.58412 0.86112 0.46097 0.0
H297 H 0.61546 0.95471 0.46996 0.0
H298 H 0.55847 0.7638 0.48464 0.0
H299 H 0.59768 0.72058 0.50905 0.0
C300 C 0.91875 0.59405 0.84013 0.0
C301 C 0.89489 0.6396 0.85961 0.0
C302 C 1.02394 0.69799 0.89062 0.0
C303 C 1.0435 0.64549 0.87553 0.0
N304 N 0.99848 0.53632 0.83697 0.0
N305 N 0.92682 0.72179 0.91187 0.0
C306 C 0.98751 0.59174 0.8505 0.0
C307 C 0.94857 0.68801 0.88696 0.0
N308 N 0.87748 0.55449 0.8104 0.0
N309 N 1.07877 0.76038 0.90815 0.0
H310 H 0.87213 0.71125 0.91328 0.0
H311 H 0.96044 0.7519 0.93414 0.0
H312 H 1.1341 0.77203 0.91005 0.0
H313 H 1.07103 0.80427 0.91679 0.0
H314 H 0.89418 0.52626 0.79287 0.0
H315 H 0.83041 0.55633 0.80115 0.0
H316 H 0.95848 0.4913 0.82136 0.0
H317 H 1.04606 0.53284 0.84356 0.0
C318 C 0.49693 0.93971 0.17821 0.0
C319 C 0.42597 0.92441 0.1921 0.0
C320 C 0.49854 1.05955 0.21638 0.0
C321 C 0.57078 1.07163 0.20659 0.0
N322 N 0.63423 1.01183 0.18129 0.0
N323 N 0.37071 0.97463 0.23223 0.0
C324 C 0.56804 1.00823 0.18829 0.0
C325 C 0.43043 0.98627 0.21299 0.0
N326 N 0.49688 0.89002 0.15365 0.0
N327 N 0.49403 0.11974 0.2287 0.0
H328 H 0.32245 0.92338 0.23275 0.0
H329 H 0.37234 1.0133 0.25105 0.0
H330 H 0.5404 0.17286 0.23107 0.0
H331 H 0.44364 0.11854 0.23266 0.0
H332 H 0.54347 0.89977 0.13961 0.0
H333 H 0.44822 0.8427 0.1444 0.0
H334 H 0.63858 0.96615 0.17231 0.0
H335 H 0.68526 1.0597 0.18704 0.0
C336 C 0.7543 0.48482 0.51384 0.0
C337 C 0.70143 0.41471 0.52813 0.0
C338 C 0.64005 0.48727 0.55229 0.0
C339 C 0.69818 0.55884 0.54242 0.0
N340 N 0.81804 0.62139 0.51691 0.0
N341 N 0.60217 0.36102 0.56916 0.0
C342 C 0.75705 0.55579 0.52398 0.0
C343 C 0.64646 0.41966 0.54931 0.0
N344 N 0.80073 0.48412 0.48885 0.0
N345 N 0.57609 0.48284 0.56421 0.0
H346 H 0.60701 0.31342 0.57027 0.0
H347 H 0.56712 0.36331 0.58801 0.0
H348 H 0.56812 0.52881 0.56599 0.0
H349 H 0.52831 0.43266 0.56831 0.0
H350 H 0.83509 0.5303 0.47464 0.0
H351 H 0.79882 0.43544 0.47943 0.0
H352 H 0.86696 0.62515 0.50772 0.0
H353 H 0.82138 0.67243 0.52288 0.0
C354 C 0.45714 0.69776 0.88368 0.0
C355 C 0.45948 0.64387 0.85939 0.0
C356 C 0.31749 0.58891 0.85319 0.0
C357 C 0.31693 0.64701 0.87489 0.0
N358 N 0.3962 0.76805 0.90244 0.0
N359 N 0.3855 0.54597 0.81545 0.0
C360 C 0.38997 0.70448 0.88734 0.0
C361 C 0.38754 0.59171 0.84276 0.0
N362 N 0.51802 0.74043 0.90579 0.0
N363 N 0.25055 0.52869 0.84321 0.0
H364 H 0.43341 0.54767 0.8061 0.0
H365 H 0.33759 0.51219 0.79967 0.0
H366 H 0.19999 0.52537 0.84936 0.0
H367 H 0.2454 0.48032 0.83129 0.0
H368 H 0.51784 0.77485 0.92648 0.0
H369 H 0.5653 0.73446 0.90669 0.0
H370 H 0.44733 0.81521 0.90884 0.0
H371 H 0.35049 0.77643 0.90459 0.0
C372 C 0.9185 0.45805 0.17367 0.0
C373 C 0.98842 0.48705 0.1944 0.0
C374 C 0.92118 0.36477 0.22606 0.0
C375 C 0.84825 0.34056 0.20945 0.0
N376 N 0.78226 0.37451 0.16714 0.0
N377 N 1.04249 0.46639 0.24753 0.0
C378 C 0.84892 0.39041 0.18307 0.0
C379 C 0.98533 0.43934 0.22235 0.0
N380 N 0.91851 0.49363 0.14367 0.0
N381 N 0.93126 0.31452 0.2447 0.0
H382 H 1.08715 0.52036 0.24794 0.0
H383 H 1.04072 0.4386 0.27051 0.0
H384 H 0.88932 0.2595 0.24628 0.0
H385 H 0.98335 0.32476 0.25454 0.0
H386 H 0.87398 0.47332 0.12502 0.0
H387 H 0.96611 0.54006 0.13557 0.0
H388 H 0.77544 0.40917 0.14976 0.0
H389 H 0.73232 0.32844 0.17332 0.0
C390 C 0.15832 0.59955 0.04799 0.0
C391 C 0.20252 0.67111 0.06528 0.0
C392 C 0.23784 0.72483 0.00576 0.0
C393 C 0.19095 0.65393 0.98847 0.0
N394 N 1.10341 0.52429 0.99284 0.0
N395 N 0.28394 0.80234 0.06065 0.0
C396 C 1.15064 0.59144 0.00962 0.0
C397 C 0.24213 0.73375 0.04404 0.0
N398 N 1.12339 0.53904 0.06835 0.0
N399 N 0.27935 0.78383 0.98536 0.0
H400 H 0.29437 0.81039 0.08816 0.0
H401 H 0.30698 0.85196 0.04767 0.0
H402 H 0.27439 0.78076 0.95762 0.0
H403 H 0.3211 0.83532 0.9954 0.0
H404 H 1.09734 0.48441 0.05832 0.0
H405 H 1.12297 0.54293 0.09603 0.0
H406 H 1.06592 0.47758 0.00575 0.0
H407 H 1.09896 0.51575 0.96521 0.0
C408 C 0.68469 0.24644 0.37896 0.0
C409 C 0.71172 0.20449 0.39747 0.0
C410 C 0.74899 0.17533 0.33946 0.0
C411 C 0.71455 0.21027 0.32077 0.0
N412 N 0.641 0.27128 0.32291 0.0
N413 N 0.7591 0.11882 0.39369 0.0
C414 C 0.67987 0.24345 0.34065 0.0
C415 C 0.74154 0.16663 0.37723 0.0
N416 N 0.66724 0.29262 0.39794 0.0
N417 N 0.78991 0.15107 0.32114 0.0
H418 H 0.75227 0.10873 0.42072 0.0
H419 H 0.77358 1.08369 0.38001 0.0
H420 H 0.79501 0.15466 0.29363 0.0
H421 H 0.82374 0.13323 0.33349 0.0
H422 H 0.65479 0.33042 0.3862 0.0
H423 H 0.67259 0.29882 0.42565 0.0
H424 H 0.60696 0.28808 0.33545 0.0
H425 H 0.63828 0.2724 0.29519 0.0
C426 C 0.62737 0.66804 0.71064 0.0
C427 C 0.69318 0.68683 0.73188 0.0
C428 C 0.76504 0.72613 0.67699 0.0
C429 C 0.69807 0.69836 0.65546 0.0
N430 N 0.56399 0.63488 0.65198 0.0
N431 N 0.82423 0.72456 0.73353 0.0
C432 C 0.62888 0.66717 0.67243 0.0
C433 C 0.76208 0.71415 0.71459 0.0
N434 N 0.56368 0.6542 0.72702 0.0
N435 N 0.83197 0.76493 0.66153 0.0
H436 H 0.82452 0.7146 0.76054 0.0
H437 H 0.87392 0.73652 0.72186 0.0
H438 H 0.83625 0.77345 0.63426 0.0
H439 H 0.88259 0.79405 0.67604 0.0
H440 H 0.516 0.64748 0.71338 0.0
H441 H 0.5609 0.65728 0.75463 0.0
H442 H 0.51174 0.60323 0.66235 0.0
H443 H 0.56268 0.63498 0.62422 0.0
C444 C 0.74307 0.24965 0.64261 0.0
C445 C 0.70889 0.18311 0.62096 0.0
C446 C 0.72747 0.11773 0.67018 0.0
C447 C 0.77647 0.18717 0.68764 0.0
N448 N 0.83228 0.32041 0.69092 0.0
N449 N 0.66609 1.05066 0.61507 0.0
C450 C 0.784 0.25355 0.67425 0.0
C451 C 0.69887 0.11577 0.63515 0.0
N452 N 0.7352 0.30865 0.63299 0.0
N453 N 0.70713 1.05364 0.6874 0.0
H454 H 0.63981 1.04321 0.59021 0.0
H455 H 0.66817 1.0036 0.62246 0.0
H456 H 0.72684 1.05296 0.71316 0.0
H457 H 0.66517 1.00178 0.67769 0.0
H458 H 0.75355 0.35667 0.64911 0.0
H459 H 0.70277 0.30591 0.61059 0.0
H460 H 0.84597 0.3711 0.68014 0.0
H461 H 0.863 0.32534 0.71433 0.0
C462 C 0.59784 0.5111 0.95449 0.0
C463 C 0.64492 0.58728 0.94841 0.0
C464 C 0.64495 0.6148 0.01202 0.0
C465 C 0.60894 0.53746 0.01829 0.0
N466 N 0.57372 0.41424 0.99469 0.0
N467 N 0.72911 0.70999 0.9742 0.0
C468 C 0.59338 0.48633 0.98929 0.0
C469 C 0.67366 0.63891 0.97801 0.0
N470 N 0.55142 0.46342 0.92797 0.0
N471 N 0.64777 0.66493 0.03723 0.0
H472 H 0.75476 0.72862 0.95021 0.0
H473 H 0.75519 0.74741 0.99589 0.0
H474 H 0.62161 0.64975 0.06132 0.0
H475 H 0.66843 0.72079 0.03226 0.0
H476 H 0.51291 0.40818 0.9322 0.0
H477 H 0.5434 0.48235 0.90383 0.0
H478 H 0.56612 0.3768 0.9737 0.0
H479 H 0.57337 0.39478 0.02004 0.0
C480 C 1.13892 0.67706 0.30457 0.0
C481 C 0.20665 0.72017 0.28771 0.0
C482 C 0.27743 0.70966 0.33816 0.0
C483 C 0.2094 0.65442 0.35126 0.0
N484 N 1.07484 0.58839 0.34953 0.0
N485 N 0.33714 0.80742 0.29652 0.0
C486 C 1.13979 0.63966 0.33551 0.0
C487 C 0.27519 0.74623 0.30725 0.0
N488 N 1.0754 0.67608 0.29247 0.0
N489 N 0.34392 0.72371 0.3539 0.0
H490 H 0.33465 0.83717 0.27505 0.0
H491 H 0.38808 0.83328 0.31089 0.0
H492 H 0.34775 0.69826 0.37681 0.0
H493 H 0.39531 0.75714 0.34314 0.0
H494 H 1.02477 0.64883 0.30476 0.0
H495 H 1.076 0.71158 0.27322 0.0
H496 H 1.02265 0.568 0.33672 0.0
H497 H 1.07335 0.56329 0.37341 0.0
loop_
_geom_bond_atom_site_label_1
_geom_bond_atom_site_label_2
_geom_bond_distance
_geom_bond_site_symmetry_2
_ccdc_geom_bond_type
Tb0 C9 2.764 . S
Tb0 O10 2.325 . S
Tb0 O13 2.303 1_655 S
Tb0 O17 2.322 1_655 S
Tb0 O18 2.349 1_655 S
Tb0 O21 2.415 . S
Tb0 O22 2.399 . S
Tb1 O11 2.322 1_455 S
Tb1 O12 2.349 . S
Tb1 O14 2.415 . S
Tb1 O15 2.399 . S
Tb1 O16 2.325 . S
Tb1 O19 2.303 . S
Tb1 C30 2.764 . S
C2 O18 1.261 . S
C2 O19 1.257 . S
C3 C6 1.358 . S
C3 C7 1.332 . S
C3 C9 1.504 . S
C4 C5 1.373 . S
C4 C8 1.308 . S
C5 C4 1.373 . S
C5 C6 1.429 . S
C5 H32 0.932 . S
C6 C3 1.358 . S
C6 C5 1.429 . S
C6 H33 0.930 . S
C7 C3 1.332 . S
C7 C8 1.394 . S
C7 H34 0.932 . S
C8 C4 1.308 . S
C8 C7 1.394 . S
C8 H35 0.929 . S
C9 Tb0 2.764 . S
C9 C3 1.504 . S
C9 O21 1.239 . S
C9 O22 1.263 . S
O10 Tb0 2.325 . S
O10 C20 1.236 . S
O11 Tb1 2.322 1_655 S
O11 C20 1.257 . S
O12 Tb1 2.349 . S
O12 C23 1.261 . S
O13 Tb0 2.303 1_455 S
O13 C23 1.257 . S
O14 Tb1 2.415 . S
O14 C30 1.239 . S
O15 Tb1 2.399 . S
O15 C30 1.263 . S
O16 Tb1 2.325 . S
O16 C31 1.236 . S
O17 Tb0 2.322 1_455 S
O17 C31 1.257 . S
O18 Tb0 2.349 1_455 S
O18 C2 1.261 . S
O19 Tb1 2.303 . S
O19 C2 1.257 . S
C20 O10 1.236 . S
C20 O11 1.257 . S
O21 Tb0 2.415 . S
O21 C9 1.239 . S
O22 Tb0 2.399 . S
O22 C9 1.263 . S
C23 O12 1.261 . S
C23 O13 1.257 . S
C24 C27 1.358 . S
C24 C28 1.332 . S
C24 C30 1.504 . S
C25 C26 1.373 . S
C25 C29 1.308 . S
C26 C25 1.373 . S
C26 C27 1.429 . S
C26 H36 0.932 . S
C27 C24 1.358 . S
C27 C26 1.429 . S
C27 H37 0.930 . S
C28 C24 1.332 . S
C28 C29 1.394 . S
C28 H38 0.932 . S
C29 C25 1.308 . S
C29 C28 1.394 . S
C29 H39 0.929 . S
C30 Tb1 2.764 . S
C30 O14 1.239 . S
C30 O15 1.263 . S
C30 C24 1.504 . S
C31 O16 1.236 . S
C31 O17 1.257 . S
H32 C5 0.932 . S
H33 C6 0.930 . S
H34 C7 0.932 . S
H35 C8 0.929 . S
H36 C26 0.932 . S
H37 C27 0.930 . S
H38 C28 0.932 . S
H39 C29 0.929 . S
Tb40 C49 2.764 . S
Tb40 O50 2.325 . S
Tb40 O53 2.303 1_565 S
Tb40 O57 2.322 1_565 S
Tb40 O58 2.349 1_565 S
Tb40 O61 2.415 . S
Tb40 O62 2.399 . S
Tb41 O51 2.322 1_545 S
Tb41 O52 2.349 . S
Tb41 O54 2.415 . S
Tb41 O55 2.399 . S
Tb41 O56 2.325 . S
Tb41 O59 2.303 . S
Tb41 C70 2.764 . S
C42 O58 1.261 . S
C42 O59 1.257 . S
C43 C46 1.358 . S
C43 C47 1.332 . S
C43 C49 1.504 . S
C44 C45 1.373 . S
C44 C48 1.308 . S
C45 C44 1.373 . S
C45 C46 1.429 . S
C45 H72 0.932 . S
C46 C43 1.358 . S
C46 C45 1.429 . S
C46 H73 0.930 . S
C47 C43 1.332 . S
C47 C48 1.394 . S
C47 H74 0.932 . S
C48 C44 1.308 . S
C48 C47 1.394 . S
C48 H75 0.929 . S
C49 Tb40 2.764 . S
C49 C43 1.504 . S
C49 O61 1.239 . S
C49 O62 1.263 . S
O50 Tb40 2.325 . S
O50 C60 1.236 . S
O51 Tb41 2.322 1_565 S
O51 C60 1.257 . S
O52 Tb41 2.349 . S
O52 C63 1.261 . S
O53 Tb40 2.303 1_545 S
O53 C63 1.257 . S
O54 Tb41 2.415 . S
O54 C70 1.239 . S
O55 Tb41 2.399 . S
O55 C70 1.263 . S
O56 Tb41 2.325 . S
O56 C71 1.236 . S
O57 Tb40 2.322 1_545 S
O57 C71 1.257 . S
O58 Tb40 2.349 1_545 S
O58 C42 1.261 . S
O59 Tb41 2.303 . S
O59 C42 1.257 . S
C60 O50 1.236 . S
C60 O51 1.257 . S
O61 Tb40 2.415 . S
O61 C49 1.239 . S
O62 Tb40 2.399 . S
O62 C49 1.263 . S
C63 O52 1.261 . S
C63 O53 1.257 . S
C64 C67 1.358 . S
C64 C68 1.332 . S
C64 C70 1.504 . S
C65 C66 1.373 . S
C65 C69 1.308 . S
C66 C65 1.373 . S
C66 C67 1.429 . S
C66 H76 0.932 . S
C67 C64 1.358 . S
C67 C66 1.429 . S
C67 H77 0.930 . S
C68 C64 1.332 . S
C68 C69 1.394 . S
C68 H78 0.932 . S
C69 C65 1.308 . S
C69 C68 1.394 . S
C69 H79 0.929 . S
C70 Tb41 2.764 . S
C70 O54 1.239 . S
C70 O55 1.263 . S
C70 C64 1.504 . S
C71 O56 1.236 . S
C71 O57 1.257 . S
H72 C45 0.932 . S
H73 C46 0.930 . S
H74 C47 0.932 . S
H75 C48 0.929 . S
H76 C66 0.932 . S
H77 C67 0.930 . S
H78 C68 0.932 . S
H79 C69 0.929 . S
Tb80 C89 2.764 . S
Tb80 O90 2.325 . S
Tb80 O93 2.303 . S
Tb80 O97 2.322 . S
Tb80 O98 2.349 . S
Tb80 O101 2.415 . S
Tb80 O102 2.399 . S
Tb81 O91 2.322 . S
Tb81 O92 2.349 . S
Tb81 O94 2.415 . S
Tb81 O95 2.399 . S
Tb81 O96 2.325 . S
Tb81 O99 2.303 . S
Tb81 C110 2.764 . S
C82 O98 1.261 . S
C82 O99 1.257 . S
C83 C86 1.358 . S
C83 C87 1.332 . S
C83 C89 1.504 . S
C84 C85 1.373 . S
C84 C88 1.308 . S
C85 C84 1.373 . S
C85 C86 1.429 . S
C85 H112 0.932 . S
C86 C83 1.358 . S
C86 C85 1.429 . S
C86 H113 0.930 . S
C87 C83 1.332 . S
C87 C88 1.394 . S
C87 H114 0.932 . S
C88 C84 1.308 . S
C88 C87 1.394 . S
C88 H115 0.929 . S
C89 Tb80 2.764 . S
C89 C83 1.504 . S
C89 O101 1.239 . S
C89 O102 1.263 . S
O90 Tb80 2.325 . S
O90 C100 1.236 . S
O91 Tb81 2.322 . S
O91 C100 1.257 . S
O92 Tb81 2.349 . S
O92 C103 1.261 . S
O93 Tb80 2.303 . S
O93 C103 1.257 . S
O94 Tb81 2.415 . S
O94 C110 1.239 . S
O95 Tb81 2.399 . S
O95 C110 1.263 . S
O96 Tb81 2.325 . S
O96 C111 1.236 . S
O97 Tb80 2.322 . S
O97 C111 1.257 . S
O98 Tb80 2.349 . S
O98 C82 1.261 . S
O99 Tb81 2.303 . S
O99 C82 1.257 . S
C100 O90 1.236 . S
C100 O91 1.257 . S
O101 Tb80 2.415 . S
O101 C89 1.239 . S
O102 Tb80 2.399 . S
O102 C89 1.263 . S
C103 O92 1.261 . S
C103 O93 1.257 . S
C104 C107 1.358 . S
C104 C108 1.332 . S
C104 C110 1.504 . S
C105 C106 1.373 . S
C105 C109 1.308 . S
C106 C105 1.373 . S
C106 C107 1.429 . S
C106 H116 0.932 . S
C107 C104 1.358 . S
C107 C106 1.429 . S
C107 H117 0.930 . S
C108 C104 1.332 . S
C108 C109 1.394 . S
C108 H118 0.932 . S
C109 C105 1.308 . S
C109 C108 1.394 . S
C109 H119 0.929 . S
C110 Tb81 2.764 . S
C110 O94 1.239 . S
C110 O95 1.263 . S
C110 C104 1.504 . S
C111 O96 1.236 . S
C111 O97 1.257 . S
H112 C85 0.932 . S
H113 C86 0.930 . S
H114 C87 0.932 . S
H115 C88 0.929 . S
H116 C106 0.932 . S
H117 C107 0.930 . S
H118 C108 0.932 . S
H119 C109 0.929 . S
H120 C123 0.931 . S
H121 C126 0.928 . S
H122 C128 0.930 . S
C123 H120 0.931 . S
C123 C124 1.413 . S
C123 C125 1.360 1_565 S
C124 C123 1.413 . S
C124 C128 1.429 1_565 S
C125 C123 1.360 1_545 S
C125 C126 1.372 . S
C126 H121 0.928 . S
C126 C125 1.372 . S
C126 C127 1.404 . S
C127 C126 1.404 . S
C127 C128 1.391 . S
C128 H122 0.930 . S
C128 C124 1.429 1_545 S
C128 C127 1.391 . S
H129 C132 0.931 . S
H130 C135 0.928 . S
H131 C137 0.930 . S
C132 H129 0.931 . S
C132 C133 1.413 . S
C132 C134 1.360 . S
C133 C132 1.413 . S
C133 C137 1.429 . S
C134 C132 1.360 . S
C134 C135 1.372 . S
C135 H130 0.928 . S
C135 C134 1.372 . S
C135 C136 1.404 . S
C136 C135 1.404 . S
C136 C137 1.391 . S
C137 H131 0.930 . S
C137 C133 1.429 . S
C137 C136 1.391 . S
H138 C141 0.931 1_655 S
H139 C144 0.928 . S
H140 C146 0.930 . S
C141 H138 0.931 1_455 S
C141 C142 1.413 . S
C141 C143 1.360 . S
C142 C141 1.413 . S
C142 C146 1.429 . S
C143 C141 1.360 . S
C143 C144 1.372 . S
C144 H139 0.928 . S
C144 C143 1.372 . S
C144 C145 1.404 . S
C145 C144 1.404 . S
C145 C146 1.391 . S
C146 H140 0.930 . S
C146 C142 1.429 . S
C146 C145 1.391 . S
H147 C150 0.931 . S
H148 C153 0.928 . S
H149 C155 0.930 . S
C150 H147 0.931 . S
C150 C151 1.413 . S
C150 C152 1.360 1_655 S
C151 C150 1.413 . S
C151 C155 1.429 1_655 S
C152 C150 1.360 1_455 S
C152 C153 1.372 . S
C153 H148 0.928 . S
C153 C152 1.372 . S
C153 C154 1.404 . S
C154 C153 1.404 . S
C154 C155 1.391 . S
C155 H149 0.930 . S
C155 C151 1.429 1_455 S
C155 C154 1.391 . S
H156 C159 0.931 . S
H157 C162 0.928 . S
H158 C164 0.930 . S
C159 H156 0.931 . S
C159 C160 1.413 . S
C159 C161 1.369 . S
C160 C159 1.413 . S
C160 C164 1.429 . S
C161 C159 1.369 . S
C161 C162 1.362 1_545 S
C162 H157 0.928 . S
C162 C161 1.362 1_565 S
C162 C163 1.404 . S
C163 C162 1.404 . S
C163 C164 1.391 1_565 S
C164 H158 0.930 . S
C164 C160 1.429 . S
C164 C163 1.391 1_545 S
H165 C168 0.931 . S
H166 C171 0.928 . S
H167 C173 0.930 . S
C168 H165 0.931 . S
C168 C169 1.413 . S
C168 C170 1.360 . S
C169 C168 1.413 . S
C169 C173 1.429 . S
C170 C168 1.360 . S
C170 C171 1.372 . S
C171 H166 0.928 . S
C171 C170 1.372 . S
C171 C172 1.404 . S
C172 C171 1.404 . S
C172 C173 1.391 . S
C173 H167 0.930 . S
C173 C169 1.429 . S
C173 C172 1.391 . S
C174 C175 1.363 . S
C174 C180 1.379 . S
C174 N182 1.356 . S
C175 C174 1.363 . S
C175 C181 1.363 . S
C176 C177 1.363 . S
C176 C181 1.379 . S
C176 N183 1.356 . S
C177 C176 1.363 . S
C177 C180 1.363 . S
N178 C180 1.356 . S
N178 H190 0.984 . S
N178 H191 0.985 . S
N179 C181 1.356 . S
N179 H184 0.984 . S
N179 H185 0.985 . S
C180 C174 1.379 . S
C180 C177 1.363 . S
C180 N178 1.356 . S
C181 C175 1.363 . S
C181 C176 1.379 . S
C181 N179 1.356 . S
N182 C174 1.356 . S
N182 H188 0.984 . S
N182 H189 0.984 . S
N183 C176 1.356 . S
N183 H186 0.984 . S
N183 H187 0.985 . S
H184 N179 0.984 . S
H185 N179 0.985 . S
H186 N183 0.984 . S
H187 N183 0.985 . S
H188 N182 0.984 . S
H189 N182 0.984 . S
H190 N178 0.984 . S
H191 N178 0.985 . S
C192 C193 1.363 . S
C192 C198 1.379 . S
C192 N200 1.356 . S
C193 C192 1.363 . S
C193 C199 1.363 . S
C194 C195 1.363 . S
C194 C199 1.379 . S
C194 N201 1.356 1_655 S
C195 C194 1.363 . S
C195 C198 1.363 . S
N196 C198 1.356 . S
N196 H208 0.984 . S
N196 H209 0.985 . S
N197 C199 1.356 1_455 S
N197 H202 0.984 1_455 S
N197 H203 0.985 . S
C198 C192 1.379 . S
C198 C195 1.363 . S
C198 N196 1.356 . S
C199 C193 1.363 . S
C199 C194 1.379 . S
C199 N197 1.356 1_655 S
N200 C192 1.356 . S
N200 H206 0.984 . S
N200 H207 0.984 . S
N201 C194 1.356 1_455 S
N201 H204 0.984 . S
N201 H205 0.985 . S
H202 N197 0.984 1_655 S
H203 N197 0.985 . S
H204 N201 0.984 . S
H205 N201 0.985 . S
H206 N200 0.984 . S
H207 N200 0.984 . S
H208 N196 0.984 . S
H209 N196 0.985 . S
C210 C211 1.363 . S
C210 C216 1.379 . S
C210 N218 1.356 . S
C211 C210 1.363 . S
C211 C217 1.363 . S
C212 C213 1.363 . S
C212 C217 1.379 . S
C212 N219 1.356 . S
C213 C212 1.363 . S
C213 C216 1.363 . S
N214 C216 1.356 . S
N214 H226 0.984 . S
N214 H227 0.985 . S
N215 C217 1.356 . S
N215 H220 0.984 . S
N215 H221 0.985 1_565 S
C216 C210 1.379 . S
C216 C213 1.363 . S
C216 N214 1.356 . S
C217 C211 1.363 . S
C217 C212 1.379 . S
C217 N215 1.356 . S
N218 C210 1.356 . S
N218 H224 0.984 . S
N218 H225 0.984 . S
N219 C212 1.356 . S
N219 H222 0.984 . S
N219 H223 0.985 1_565 S
H220 N215 0.984 . S
H221 N215 0.985 1_545 S
H222 N219 0.984 . S
H223 N219 0.985 1_545 S
H224 N218 0.984 . S
H225 N218 0.984 . S
H226 N214 0.984 . S
H227 N214 0.985 . S
C228 C229 1.363 . S
C228 C234 1.379 . S
C228 N236 1.356 . S
C229 C228 1.363 . S
C229 C235 1.363 . S
C230 C231 1.363 . S
C230 C235 1.379 . S
C230 N237 1.356 . S
C231 C230 1.363 . S
C231 C234 1.363 . S
N232 C234 1.356 . S
N232 H244 0.984 . S
N232 H245 0.985 . S
N233 C235 1.356 . S
N233 H238 0.984 . S
N233 H239 0.985 . S
C234 C228 1.379 . S
C234 C231 1.363 . S
C234 N232 1.356 . S
C235 C229 1.363 . S
C235 C230 1.379 . S
C235 N233 1.356 . S
N236 C228 1.356 . S
N236 H242 0.984 . S
N236 H243 0.984 . S
N237 C230 1.356 . S
N237 H240 0.984 . S
N237 H241 0.985 . S
H238 N233 0.984 . S
H239 N233 0.985 . S
H240 N237 0.984 . S
H241 N237 0.985 . S
H242 N236 0.984 . S
H243 N236 0.984 . S
H244 N232 0.984 . S
H245 N232 0.985 . S
C246 C247 1.363 . S
C246 C252 1.379 . S
C246 N254 1.356 . S
C247 C246 1.363 . S
C247 C253 1.363 . S
C248 C249 1.363 . S
C248 C253 1.379 . S
C248 N255 1.356 . S
C249 C248 1.363 . S
C249 C252 1.363 . S
N250 C252 1.356 . S
N250 H262 0.984 . S
N250 H263 0.985 . S
N251 C253 1.356 . S
N251 H256 0.984 . S
N251 H257 0.985 . S
C252 C246 1.379 . S
C252 C249 1.363 . S
C252 N250 1.356 . S
C253 C247 1.363 . S
C253 C248 1.379 . S
C253 N251 1.356 . S
N254 C246 1.356 . S
N254 H260 0.984 . S
N254 H261 0.984 . S
N255 C248 1.356 . S
N255 H258 0.984 . S
N255 H259 0.985 . S
H256 N251 0.984 . S
H257 N251 0.985 . S
H258 N255 0.984 . S
H259 N255 0.985 . S
H260 N254 0.984 . S
H261 N254 0.984 . S
H262 N250 0.984 . S
H263 N250 0.985 . S
C264 C265 1.363 . S
C264 C270 1.379 . S
C264 N272 1.356 . S
C265 C264 1.363 . S
C265 C271 1.363 . S
C266 C267 1.363 . S
C266 C271 1.379 . S
C266 N273 1.356 . S
C267 C266 1.363 . S
C267 C270 1.363 . S
N268 C270 1.356 . S
N268 H280 0.984 . S
N268 H281 0.985 . S
N269 C271 1.356 . S
N269 H274 0.984 . S
N269 H275 0.985 . S
C270 C264 1.379 . S
C270 C267 1.363 . S
C270 N268 1.356 . S
C271 C265 1.363 . S
C271 C266 1.379 . S
C271 N269 1.356 . S
N272 C264 1.356 . S
N272 H278 0.984 . S
N272 H279 0.984 . S
N273 C266 1.356 . S
N273 H276 0.984 . S
N273 H277 0.985 . S
H274 N269 0.984 . S
H275 N269 0.985 . S
H276 N273 0.984 . S
H277 N273 0.985 . S
H278 N272 0.984 . S
H279 N272 0.984 . S
H280 N268 0.984 . S
H281 N268 0.985 . S
C282 C283 1.363 . S
C282 C288 1.379 . S
C282 N290 1.356 . S
C283 C282 1.363 . S
C283 C289 1.363 . S
C284 C285 1.363 . S
C284 C289 1.379 . S
C284 N291 1.356 . S
C285 C284 1.363 . S
C285 C288 1.363 . S
N286 C288 1.356 . S
N286 H298 0.984 . S
N286 H299 0.985 . S
N287 C289 1.356 . S
N287 H292 0.984 . S
N287 H293 0.985 . S
C288 C282 1.379 . S
C288 C285 1.363 . S
C288 N286 1.356 . S
C289 C283 1.363 . S
C289 C284 1.379 . S
C289 N287 1.356 . S
N290 C282 1.356 . S
N290 H296 0.984 . S
N290 H297 0.984 . S
N291 C284 1.356 . S
N291 H294 0.984 . S
N291 H295 0.985 . S
H292 N287 0.984 . S
H293 N287 0.985 . S
H294 N291 0.984 . S
H295 N291 0.985 . S
H296 N290 0.984 . S
H297 N290 0.984 . S
H298 N286 0.984 . S
H299 N286 0.985 . S
C300 C301 1.363 . S
C300 C306 1.379 . S
C300 N308 1.356 . S
C301 C300 1.363 . S
C301 C307 1.363 . S
C302 C303 1.363 . S
C302 C307 1.379 . S
C302 N309 1.356 . S
C303 C302 1.363 . S
C303 C306 1.363 . S
N304 C306 1.356 . S
N304 H316 0.984 . S
N304 H317 0.985 . S
N305 C307 1.356 . S
N305 H310 0.984 . S
N305 H311 0.985 . S
C306 C300 1.379 . S
C306 C303 1.363 . S
C306 N304 1.356 . S
C307 C301 1.363 . S
C307 C302 1.379 . S
C307 N305 1.356 . S
N308 C300 1.356 . S
N308 H314 0.984 . S
N308 H315 0.984 . S
N309 C302 1.356 . S
N309 H312 0.984 . S
N309 H313 0.985 . S
H310 N305 0.984 . S
H311 N305 0.985 . S
H312 N309 0.984 . S
H313 N309 0.985 . S
H314 N308 0.984 . S
H315 N308 0.984 . S
H316 N304 0.984 . S
H317 N304 0.985 . S
C318 C319 1.363 . S
C318 C324 1.379 . S
C318 N326 1.356 . S
C319 C318 1.363 . S
C319 C325 1.363 . S
C320 C321 1.363 . S
C320 C325 1.379 . S
C320 N327 1.356 . S
C321 C320 1.363 . S
C321 C324 1.363 . S
N322 C324 1.356 . S
N322 H334 0.984 . S
N322 H335 0.985 . S
N323 C325 1.356 . S
N323 H328 0.984 . S
N323 H329 0.985 . S
C324 C318 1.379 . S
C324 C321 1.363 . S
C324 N322 1.356 . S
C325 C319 1.363 . S
C325 C320 1.379 . S
C325 N323 1.356 . S
N326 C318 1.356 . S
N326 H332 0.984 . S
N326 H333 0.984 . S
N327 C320 1.356 . S
N327 H330 0.984 . S
N327 H331 0.985 . S
H328 N323 0.984 . S
H329 N323 0.985 . S
H330 N327 0.984 . S
H331 N327 0.985 . S
H332 N326 0.984 . S
H333 N326 0.984 . S
H334 N322 0.984 . S
H335 N322 0.985 . S
C336 C337 1.363 . S
C336 C342 1.379 . S
C336 N344 1.356 . S
C337 C336 1.363 . S
C337 C343 1.363 . S
C338 C339 1.363 . S
C338 C343 1.379 . S
C338 N345 1.356 . S
C339 C338 1.363 . S
C339 C342 1.363 . S
N340 C342 1.356 . S
N340 H352 0.984 . S
N340 H353 0.985 . S
N341 C343 1.356 . S
N341 H346 0.984 . S
N341 H347 0.985 . S
C342 C336 1.379 . S
C342 C339 1.363 . S
C342 N340 1.356 . S
C343 C337 1.363 . S
C343 C338 1.379 . S
C343 N341 1.356 . S
N344 C336 1.356 . S
N344 H350 0.984 . S
N344 H351 0.984 . S
N345 C338 1.356 . S
N345 H348 0.984 . S
N345 H349 0.985 . S
H346 N341 0.984 . S
H347 N341 0.985 . S
H348 N345 0.984 . S
H349 N345 0.985 . S
H350 N344 0.984 . S
H351 N344 0.984 . S
H352 N340 0.984 . S
H353 N340 0.985 . S
C354 C355 1.363 . S
C354 C360 1.379 . S
C354 N362 1.356 . S
C355 C354 1.363 . S
C355 C361 1.363 . S
C356 C357 1.363 . S
C356 C361 1.379 . S
C356 N363 1.356 . S
C357 C356 1.363 . S
C357 C360 1.363 . S
N358 C360 1.356 . S
N358 H370 0.984 . S
N358 H371 0.985 . S
N359 C361 1.356 . S
N359 H364 0.984 . S
N359 H365 0.985 . S
C360 C354 1.379 . S
C360 C357 1.363 . S
C360 N358 1.356 . S
C361 C355 1.363 . S
C361 C356 1.379 . S
C361 N359 1.356 . S
N362 C354 1.356 . S
N362 H368 0.984 . S
N362 H369 0.984 . S
N363 C356 1.356 . S
N363 H366 0.984 . S
N363 H367 0.985 . S
H364 N359 0.984 . S
H365 N359 0.985 . S
H366 N363 0.984 . S
H367 N363 0.985 . S
H368 N362 0.984 . S
H369 N362 0.984 . S
H370 N358 0.984 . S
H371 N358 0.985 . S
C372 C373 1.363 . S
C372 C378 1.379 . S
C372 N380 1.356 . S
C373 C372 1.363 . S
C373 C379 1.363 . S
C374 C375 1.363 . S
C374 C379 1.379 . S
C374 N381 1.356 . S
C375 C374 1.363 . S
C375 C378 1.363 . S
N376 C378 1.356 . S
N376 H388 0.984 . S
N376 H389 0.985 . S
N377 C379 1.356 . S
N377 H382 0.984 . S
N377 H383 0.985 . S
C378 C372 1.379 . S
C378 C375 1.363 . S
C378 N376 1.356 . S
C379 C373 1.363 . S
C379 C374 1.379 . S
C379 N377 1.356 . S
N380 C372 1.356 . S
N380 H386 0.984 . S
N380 H387 0.984 . S
N381 C374 1.356 . S
N381 H384 0.984 . S
N381 H385 0.985 . S
H382 N377 0.984 . S
H383 N377 0.985 . S
H384 N381 0.984 . S
H385 N381 0.985 . S
H386 N380 0.984 . S
H387 N380 0.984 . S
H388 N376 0.984 . S
H389 N376 0.985 . S
C390 C391 1.363 . S
C390 C396 1.379 . S
C390 N398 1.356 . S
C391 C390 1.363 . S
C391 C397 1.363 . S
C392 C393 1.363 1_554 S
C392 C397 1.379 . S
C392 N399 1.356 1_554 S
C393 C392 1.363 1_556 S
C393 C396 1.363 1_556 S
N394 C396 1.356 1_556 S
N394 H406 0.984 . S
N394 H407 0.985 . S
N395 C397 1.356 . S
N395 H400 0.984 . S
N395 H401 0.985 . S
C396 C390 1.379 . S
C396 C393 1.363 1_554 S
C396 N394 1.356 1_554 S
C397 C391 1.363 . S
C397 C392 1.379 . S
C397 N395 1.356 . S
N398 C390 1.356 . S
N398 H404 0.984 . S
N398 H405 0.984 . S
N399 C392 1.356 1_556 S
N399 H402 0.984 . S
N399 H403 0.985 1_556 S
H400 N395 0.984 . S
H401 N395 0.985 . S
H402 N399 0.984 . S
H403 N399 0.985 1_554 S
H404 N398 0.984 . S
H405 N398 0.984 . S
H406 N394 0.984 . S
H407 N394 0.985 . S
C408 C409 1.363 . S
C408 C414 1.379 . S
C408 N416 1.356 . S
C409 C408 1.363 . S
C409 C415 1.363 . S
C410 C411 1.363 . S
C410 C415 1.379 . S
C410 N417 1.356 1_545 S
C411 C410 1.363 . S
C411 C414 1.363 . S
N412 C414 1.356 . S
N412 H424 0.984 . S
N412 H425 0.985 . S
N413 C415 1.356 1_565 S
N413 H418 0.984 . S
N413 H419 0.985 . S
C414 C408 1.379 . S
C414 C411 1.363 . S
C414 N412 1.356 . S
C415 C409 1.363 . S
C415 C410 1.379 . S
C415 N413 1.356 1_545 S
N416 C408 1.356 . S
N416 H422 0.984 . S
N416 H423 0.984 . S
N417 C410 1.356 1_565 S
N417 H420 0.984 . S
N417 H421 0.985 . S
H418 N413 0.984 . S
H419 N413 0.985 . S
H420 N417 0.984 . S
H421 N417 0.985 . S
H422 N416 0.984 . S
H423 N416 0.984 . S
H424 N412 0.984 . S
H425 N412 0.985 . S
C426 C427 1.363 . S
C426 C432 1.379 . S
C426 N434 1.356 . S
C427 C426 1.363 . S
C427 C433 1.363 . S
C428 C429 1.363 . S
C428 C433 1.379 . S
C428 N435 1.356 . S
C429 C428 1.363 . S
C429 C432 1.363 . S
N430 C432 1.356 . S
N430 H442 0.984 . S
N430 H443 0.985 . S
N431 C433 1.356 . S
N431 H436 0.984 . S
N431 H437 0.985 . S
C432 C426 1.379 . S
C432 C429 1.363 . S
C432 N430 1.356 . S
C433 C427 1.363 . S
C433 C428 1.379 . S
C433 N431 1.356 . S
N434 C426 1.356 . S
N434 H440 0.984 . S
N434 H441 0.984 . S
N435 C428 1.356 . S
N435 H438 0.984 . S
N435 H439 0.985 . S
H436 N431 0.984 . S
H437 N431 0.985 . S
H438 N435 0.984 . S
H439 N435 0.985 . S
H440 N434 0.984 . S
H441 N434 0.984 . S
H442 N430 0.984 . S
H443 N430 0.985 . S
C444 C445 1.363 . S
C444 C450 1.379 . S
C444 N452 1.356 . S
C445 C444 1.363 . S
C445 C451 1.363 1_545 S
C446 C447 1.363 1_565 S
C446 C451 1.379 . S
C446 N453 1.356 . S
C447 C446 1.363 1_545 S
C447 C450 1.363 . S
N448 C450 1.356 . S
N448 H460 0.984 . S
N448 H461 0.985 . S
N449 C451 1.356 . S
N449 H454 0.984 . S
N449 H455 0.985 . S
C450 C444 1.379 . S
C450 C447 1.363 . S
C450 N448 1.356 . S
C451 C445 1.363 1_565 S
C451 C446 1.379 . S
C451 N449 1.356 . S
N452 C444 1.356 . S
N452 H458 0.984 . S
N452 H459 0.984 . S
N453 C446 1.356 . S
N453 H456 0.984 . S
N453 H457 0.985 . S
H454 N449 0.984 . S
H455 N449 0.985 . S
H456 N453 0.984 . S
H457 N453 0.985 . S
H458 N452 0.984 . S
H459 N452 0.984 . S
H460 N448 0.984 . S
H461 N448 0.985 . S
C462 C463 1.363 . S
C462 C468 1.379 . S
C462 N470 1.356 . S
C463 C462 1.363 . S
C463 C469 1.363 . S
C464 C465 1.363 . S
C464 C469 1.379 1_554 S
C464 N471 1.356 . S
C465 C464 1.363 . S
C465 C468 1.363 1_554 S
N466 C468 1.356 . S
N466 H478 0.984 . S
N466 H479 0.985 1_556 S
N467 C469 1.356 . S
N467 H472 0.984 . S
N467 H473 0.985 . S
C468 C462 1.379 . S
C468 C465 1.363 1_556 S
C468 N466 1.356 . S
C469 C463 1.363 . S
C469 C464 1.379 1_556 S
C469 N467 1.356 . S
N470 C462 1.356 . S
N470 H476 0.984 . S
N470 H477 0.984 . S
N471 C464 1.356 . S
N471 H474 0.984 . S
N471 H475 0.985 . S
H472 N467 0.984 . S
H473 N467 0.985 . S
H474 N471 0.984 . S
H475 N471 0.985 . S
H476 N470 0.984 . S
H477 N470 0.984 . S
H478 N466 0.984 . S
H479 N466 0.985 1_554 S
C480 C481 1.363 1_655 S
C480 C486 1.379 . S
C480 N488 1.356 . S
C481 C480 1.363 1_455 S
C481 C487 1.363 . S
C482 C483 1.363 . S
C482 C487 1.379 . S
C482 N489 1.356 . S
C483 C482 1.363 . S
C483 C486 1.363 1_455 S
N484 C486 1.356 . S
N484 H496 0.984 . S
N484 H497 0.985 . S
N485 C487 1.356 . S
N485 H490 0.984 . S
N485 H491 0.985 . S
C486 C480 1.379 . S
C486 C483 1.363 1_655 S
C486 N484 1.356 . S
C487 C481 1.363 . S
C487 C482 1.379 . S
C487 N485 1.356 . S
N488 C480 1.356 . S
N488 H494 0.984 . S
N488 H495 0.984 . S
N489 C482 1.356 . S
N489 H492 0.984 . S
N489 H493 0.985 . S
H490 N485 0.984 . S
H491 N485 0.985 . S
H492 N489 0.984 . S
H493 N489 0.985 . S
H494 N488 0.984 . S
H495 N488 0.984 . S
H496 N484 0.984 . S
H497 N484 0.985 . S
C175 C25 0.974 . S
C177 C169 1.070 . S
C193 C65 0.948 . S
C195 C151 1.086 . S
C211 C105 1.039 . S
C213 C163 1.229 . S
C229 C4 1.046 . S
C231 C172 1.210 . S
C249 C154 1.053 . S
C247 C44 0.956 . S
C267 C160 1.068 . S
C265 C84 0.982 . S
C283 C60 2.946 . S
C285 C133 2.917 . S
C301 C100 3.026 . S
C303 C142 2.984 1_655 S
C319 C31 3.022 . S
C321 C124 2.998 . S
C339 C136 3.015 . S
C337 C71 3.034 . S
C357 C145 2.953 . S
C355 C111 2.949 . S
C373 C20 2.959 . S
C375 C127 2.927 . S
C393 C143 1.845 . S
C391 C2 1.767 . S
C409 C42 1.781 . S
C411 C125 1.840 . S
C427 C82 1.773 . S
C429 C134 1.843 . S
C447 C161 0.890 . S
C445 C63 0.897 . S
C465 C170 0.972 . S
C463 C103 0.985 . S
C481 C23 0.860 . S
C483 C152 0.856 . S
