# Generated by pormake.
# Topology anh, (6,3)-cn, num edge types: 1
# Building blocks:
#     Node 0, Type 0, BuildingBlock: BETDEL_clean_sbu_0, # of connection points: 6
#     Node 1, Type 0, BuildingBlock: BETDEL_clean_sbu_0, # of connection points: 6
#     Node 2, Type 0, BuildingBlock: BETDEL_clean_sbu_0, # of connection points: 6
#     Node 3, Type 1, BuildingBlock: BELTOD_clean_linker_0, # of connection points: 3
#     Node 4, Type 1, BuildingBlock: BELTOD_clean_linker_0, # of connection points: 3
#     Node 5, Type 1, BuildingBlock: BELTOD_clean_linker_0, # of connection points: 3
#     Node 6, Type 1, BuildingBlock: BELTOD_clean_linker_0, # of connection points: 3
#     Node 7, Type 1, BuildingBlock: BELTOD_clean_linker_0, # of connection points: 3
#     Node 8, Type 1, BuildingBlock: BELTOD_clean_linker_0, # of connection points: 3
#     Edge 9, Type (0, 1), BuildingBlock: KIFKEQ_clean_linker_1, # of connection points: 2
#     Edge 10, Type (0, 1), BuildingBlock: KIFKEQ_clean_linker_1, # of connection points: 2
#     Edge 11, Type (0, 1), BuildingBlock: KIFKEQ_clean_linker_1, # of connection points: 2
#     Edge 12, Type (0, 1), BuildingBlock: KIFKEQ_clean_linker_1, # of connection points: 2
#     Edge 13, Type (0, 1), BuildingBlock: KIFKEQ_clean_linker_1, # of connection points: 2
#     Edge 14, Type (0, 1), BuildingBlock: KIFKEQ_clean_linker_1, # of connection points: 2
#     Edge 15, Type (0, 1), BuildingBlock: KIFKEQ_clean_linker_1, # of connection points: 2
#     Edge 16, Type (0, 1), BuildingBlock: KIFKEQ_clean_linker_1, # of connection points: 2
#     Edge 17, Type (0, 1), BuildingBlock: KIFKEQ_clean_linker_1, # of connection points: 2
#     Edge 18, Type (0, 1), BuildingBlock: KIFKEQ_clean_linker_1, # of connection points: 2
#     Edge 19, Type (0, 1), BuildingBlock: KIFKEQ_clean_linker_1, # of connection points: 2
#     Edge 20, Type (0, 1), BuildingBlock: KIFKEQ_clean_linker_1, # of connection points: 2
#     Edge 21, Type (0, 1), BuildingBlock: KIFKEQ_clean_linker_1, # of connection points: 2
#     Edge 22, Type (0, 1), BuildingBlock: KIFKEQ_clean_linker_1, # of connection points: 2
#     Edge 23, Type (0, 1), BuildingBlock: KIFKEQ_clean_linker_1, # of connection points: 2
#     Edge 24, Type (0, 1), BuildingBlock: KIFKEQ_clean_linker_1, # of connection points: 2
#     Edge 25, Type (0, 1), BuildingBlock: KIFKEQ_clean_linker_1, # of connection points: 2
#     Edge 26, Type (0, 1), BuildingBlock: KIFKEQ_clean_linker_1, # of connection points: 2
# Relax obj value: 0.131
# Max RMSD: 0.159
# Mean RMSD: 0.124
data_MOF--net-anh--node1-BETDEL_clean_sbu_0--node2-BELTOD_clean_linker_0--edge1-KIFKEQ_clean_linker_1
_symmetry_space_group_name_H-M    P1
_symmetry_Int_Tables_number       1
_symmetry_cell_setting            triclinic
loop_
_symmetry_equiv_pos_as_xyz
'x, y, z'
_cell_length_a     34.031895
_cell_length_b     34.113028
_cell_length_c     59.998838
_cell_angle_alpha  90.12291
_cell_angle_beta   90.131524
_cell_angle_gamma 119.9143
loop_
_atom_site_label
_atom_site_type_symbol
_atom_site_fract_x
_atom_site_fract_y
_atom_site_fract_z
_atom_type_partial_charge
Dy0 Dy 0.0518 0.49278 0.1634 0.0
C1 C 0.94053 0.57308 0.18685 0.0
C2 C 0.11221 0.46561 0.15251 0.0
Dy3 Dy 0.99595 0.54372 0.17036 0.0
O4 O 0.10605 0.4767 0.17235 0.0
O5 O 0.08488 0.4689 0.13838 0.0
O6 O 0.02471 0.4584 0.19596 0.0
O7 O 0.03639 0.5246 0.19125 0.0
C8 C 0.02081 0.49139 0.20442 0.0
C9 C 1.00636 0.53245 0.12655 0.0
O10 O 0.06645 0.6016 0.17621 0.0
O11 O 0.10577 0.56667 0.16264 0.0
O12 O 0.9714 0.59371 0.17172 0.0
O13 O 0.94155 0.5374 0.19368 0.0
O14 O 0.98425 0.55178 0.13374 0.0
O15 O 0.02023 0.52078 0.1432 0.0
O16 O 0.98155 0.43568 0.15609 0.0
O17 O 0.94301 0.46976 0.17159 0.0
C18 C 0.10464 0.60302 0.16996 0.0
C19 C 0.94375 0.43381 0.16344 0.0
Dy20 Dy 0.47166 0.03353 0.49756 0.0
C21 C 0.66344 0.14241 0.52026 0.0
C22 C 0.38417 0.9737 0.48604 0.0
Dy23 Dy 0.57857 0.09001 0.50331 0.0
O24 O 0.39872 0.98745 0.50613 0.0
O25 O 0.41748 0.99329 0.472 0.0
O26 O 0.46579 0.05682 0.5319 0.0
O27 O 0.52077 0.0476 0.52406 0.0
C28 C 0.50396 0.06104 0.5388 0.0
C29 C 0.55605 0.08229 0.45974 0.0
O30 O 0.56689 0.01974 0.50798 0.0
O31 O 0.49051 0.97846 0.49763 0.0
O32 O 0.65172 0.10918 0.50627 0.0
O33 O 0.62832 0.14609 0.52546 0.0
O34 O 0.59752 0.10408 0.467 0.0
O35 O 0.53018 0.06688 0.47627 0.0
O36 O 0.48385 0.10361 0.49107 0.0
O37 O 0.55609 0.14156 0.50703 0.0
C38 C 0.52956 0.98082 0.50326 0.0
C39 C 0.51936 0.14105 0.49899 0.0
Dy40 Dy 0.58669 0.59954 0.82784 0.0
C41 C 0.50425 0.40204 0.84793 0.0
C42 C 0.61947 0.68417 0.81111 0.0
Dy43 Dy 0.53664 0.4883 0.83344 0.0
O44 O 0.63686 0.67396 0.82791 0.0
O45 O 0.58467 0.64792 0.80316 0.0
O46 O 0.58948 0.61378 0.86514 0.0
O47 O 0.55972 0.54873 0.85293 0.0
C48 C 0.56881 0.5712 0.87059 0.0
C49 C 0.55611 0.51603 0.79052 0.0
O50 O 0.47854 0.50157 0.83842 0.0
O51 O 0.51248 0.57778 0.82717 0.0
O52 O 0.4857 0.4142 0.83244 0.0
O53 O 0.53973 0.43747 0.85603 0.0
O54 O 0.53748 0.47397 0.7965 0.0
O55 O 0.56289 0.53915 0.80786 0.0
O56 O 0.64503 0.58612 0.82484 0.0
O57 O 0.61062 0.51153 0.83818 0.0
C58 C 0.4767 0.53881 0.83345 0.0
C59 C 0.64695 0.55008 0.83204 0.0
P60 P 0.5485 0.99742 0.22079 0.0
H61 H 0.52194 0.92323 0.18919 0.0
H62 H 0.44818 0.86265 0.17666 0.0
H63 H 0.38327 0.9281 0.2095 0.0
H64 H 0.45771 0.98954 0.22141 0.0
H65 H 0.63208 0.02198 0.19638 0.0
H66 H 0.69254 0.0936 0.18233 0.0
H67 H 0.61242 0.15649 0.19717 0.0
H68 H 0.55183 0.08415 0.21161 0.0
H69 H 0.47964 0.94641 0.25467 0.0
H70 H 0.60004 0.07745 0.24939 0.0
O71 O 0.57414 0.96706 0.22461 0.0
H72 H 0.47275 0.96124 0.29393 0.0
H73 H 0.59286 0.09264 0.28833 0.0
C74 C 0.49537 0.96043 0.20671 0.0
C75 C 0.49197 0.92512 0.19332 0.0
C76 C 0.44956 0.89012 0.18635 0.0
C77 C 0.40942 0.88958 0.19259 0.0
C78 C 0.41328 0.92711 0.20444 0.0
C79 C 0.45592 0.96234 0.21132 0.0
C80 C 0.58748 0.04765 0.20535 0.0
C81 C 0.62695 0.05084 0.19628 0.0
C82 C 0.66169 0.09206 0.18813 0.0
C83 C 0.65787 0.13127 0.18884 0.0
C84 C 0.61699 0.12728 0.19672 0.0
C85 C 0.58203 0.0858 0.20476 0.0
C86 C 0.53928 0.01151 0.24866 0.0
C87 C 0.50371 0.979 0.26167 0.0
C88 C 0.49985 0.98742 0.28419 0.0
C89 C 0.53217 0.02816 0.29428 0.0
C90 C 0.56748 0.0608 0.28112 0.0
C91 C 0.57124 0.05237 0.25865 0.0
P92 P 0.58163 0.58353 0.54824 0.0
H93 H 0.59035 0.55225 0.5042 0.0
H94 H 0.56829 0.47686 0.49001 0.0
H95 H 0.48817 0.41789 0.54916 0.0
H96 H 0.5085 0.49317 0.56258 0.0
H97 H 0.63997 0.6795 0.54049 0.0
H98 H 0.62591 0.74085 0.53173 0.0
H99 H 0.48237 0.6458 0.52692 0.0
H100 H 0.49703 0.58351 0.53552 0.0
H101 H 0.59899 0.52938 0.57965 0.0
H102 H 0.55331 0.62669 0.58291 0.0
O103 O 0.63647 0.60248 0.54334 0.0
H104 H 0.59445 0.5224 0.6202 0.0
H105 H 0.54934 0.62023 0.62361 0.0
C106 C 0.55194 0.52864 0.53467 0.0
C107 C 0.56677 0.52302 0.51375 0.0
C108 C 0.55463 0.47973 0.50582 0.0
C109 C 0.52755 0.44099 0.51872 0.0
C110 C 0.50921 0.44664 0.53871 0.0
C111 C 0.52106 0.48999 0.54651 0.0
C112 C 0.56968 0.62663 0.53825 0.0
C113 C 0.60546 0.6714 0.53713 0.0
C114 C 0.5973 0.70675 0.53237 0.0
C115 C 0.55295 0.69849 0.52884 0.0
C116 C 0.51698 0.65335 0.52942 0.0
C117 C 0.52527 0.6177 0.53428 0.0
C118 C 0.57575 0.57788 0.57816 0.0
C119 C 0.58759 0.54895 0.58908 0.0
C120 C 0.585 0.545 0.61225 0.0
C121 C 0.5713 0.57061 0.62506 0.0
C122 C 0.56012 0.6002 0.61415 0.0
C123 C 0.56213 0.60366 0.59085 0.0
P124 P 0.08748 0.58998 0.8872 0.0
H125 H 0.13724 0.61241 0.8453 0.0
H126 H 0.19275 0.59399 0.83051 0.0
H127 H 0.16218 0.49869 0.88427 0.0
H128 H 0.10386 0.51409 0.89734 0.0
H129 H 0.06373 0.65244 0.86573 0.0
H130 H 0.99253 0.64433 0.85252 0.0
H131 H 0.92589 0.50078 0.86552 0.0
H132 H 0.9984 0.50912 0.87804 0.0
H133 H 0.14539 0.58686 0.92232 0.0
H134 H 1.00756 0.55936 0.91659 0.0
O135 O 0.12365 0.64558 0.88808 0.0
H136 H 0.13322 0.56631 0.96163 0.0
H137 H 0.99573 0.54077 0.9559 0.0
C138 C 0.11727 0.56576 0.87284 0.0
C139 C 0.14156 0.58649 0.85345 0.0
C140 C 0.1741 0.57645 0.84527 0.0
C141 C 0.18389 0.54606 0.8566 0.0
C142 C 0.1564 0.52247 0.87495 0.0
C143 C 0.12303 0.53171 0.88272 0.0
C144 C 0.03649 0.58144 0.87314 0.0
C145 C 0.03411 0.61899 0.86542 0.0
C146 C 0.99299 0.61437 0.85806 0.0
C147 C 0.95288 0.57207 0.8584 0.0
C148 C 0.95591 0.53393 0.86494 0.0
C149 C 0.9974 0.53858 0.87212 0.0
C150 C 0.07686 0.57267 0.91609 0.0
C151 C 0.11225 0.57571 0.9294 0.0
C152 C 0.1054 0.56451 0.95202 0.0
C153 C 0.06326 0.55127 0.96203 0.0
C154 C 0.02819 0.54937 0.94871 0.0
C155 C 0.03498 0.56009 0.92604 0.0
P156 P 0.07816 0.50877 0.44335 0.0
H157 H 0.15702 0.56674 0.47093 0.0
H158 H 0.19325 0.6468 0.48074 0.0
H159 H 0.08416 0.65565 0.44862 0.0
H160 H 0.04806 0.57528 0.4388 0.0
H161 H 0.04609 0.41386 0.45216 0.0
H162 H 0.98329 0.35686 0.47397 0.0
H163 H 0.95036 0.4581 0.49556 0.0
H164 H 0.01225 0.51446 0.47295 0.0
H165 H 0.11308 0.57252 0.4065 0.0
H166 H 1.00164 0.43759 0.41767 0.0
O167 O 0.12003 0.49672 0.44261 0.0
H168 H 0.08937 0.56843 0.36772 0.0
H169 H 0.97853 0.43304 0.37864 0.0
C170 C 0.10052 0.5655 0.4537 0.0
C171 C 0.14059 0.58574 0.46625 0.0
C172 C 0.16111 0.63146 0.47196 0.0
C173 C 0.14174 0.6576 0.46524 0.0
C174 C 0.10018 0.63649 0.45371 0.0
C175 C 0.07952 0.59064 0.44816 0.0
C176 C 0.03412 0.46844 0.46112 0.0
C177 C 0.02564 0.42386 0.4618 0.0
C178 C 0.98985 0.39135 0.47443 0.0
C179 C 0.96182 0.40286 0.48668 0.0
C180 C 0.97096 0.44792 0.48618 0.0
C181 C 1.00659 0.48033 0.47336 0.0
C182 C 0.05848 0.50584 0.41518 0.0
C183 C 0.08305 0.5423 0.40074 0.0
C184 C 0.06949 0.53999 0.37859 0.0
C185 C 0.03185 0.50063 0.37031 0.0
C186 C 1.00755 0.46387 0.38469 0.0
C187 C 0.02071 0.4665 0.407 0.0
P188 P 0.66579 0.12865 0.77024 0.0
H189 H 0.69454 0.2064 0.79978 0.0
H190 H 0.65346 0.23373 0.82153 0.0
H191 H 0.52748 0.11185 0.80556 0.0
H192 H 0.56894 0.08745 0.78165 0.0
H193 H 0.73134 0.09859 0.76373 0.0
H194 H 0.72843 0.02658 0.76983 0.0
H195 H 0.59715 0.97414 0.80076 0.0
H196 H 0.59965 0.04539 0.79396 0.0
H197 H 0.60489 0.15546 0.74826 0.0
H198 H 0.68097 0.09011 0.72992 0.0
O199 O 0.71962 0.17046 0.76954 0.0
H200 H 0.57818 0.14849 0.70986 0.0
H201 H 0.65487 0.0838 0.69153 0.0
C202 C 0.63503 0.1445 0.78929 0.0
C203 C 0.65812 0.1853 0.80108 0.0
C204 C 0.63431 0.20069 0.81387 0.0
C205 C 0.58669 0.1751 0.81564 0.0
C206 C 0.5639 0.1331 0.80448 0.0
C207 C 0.58775 0.11843 0.79113 0.0
C208 C 0.66575 0.0777 0.77833 0.0
C209 C 0.70214 0.07178 0.77207 0.0
C210 C 0.7005 0.03053 0.77563 0.0
C211 C 0.66238 0.99434 0.78564 0.0
C212 C 0.62664 1.00094 0.79258 0.0
C213 C 0.62819 0.04209 0.78882 0.0
C214 C 0.64384 0.12193 0.74226 0.0
C215 C 0.61528 0.13887 0.73619 0.0
C216 C 0.60015 0.13512 0.71418 0.0
C217 C 0.61435 0.11548 0.69778 0.0
C218 C 0.64352 0.09925 0.70383 0.0
C219 C 0.65813 0.10248 0.72586 0.0
P220 P 0.5093 0.42043 0.1035 0.0
H221 H 0.52305 0.42789 0.15157 0.0
H222 H 0.59126 0.46796 0.17494 0.0
H223 H 0.67143 0.52881 0.11615 0.0
H224 H 0.60409 0.48764 0.09291 0.0
H225 H 0.4143 0.35089 0.10846 0.0
H226 H 0.34607 0.35491 0.11674 0.0
H227 H 0.42804 0.4995 0.1258 0.0
H228 H 0.49627 0.49515 0.11764 0.0
H229 H 0.49249 0.36978 0.06174 0.0
H230 H 0.54061 0.50776 0.08196 0.0
O231 O 0.49936 0.36744 0.1054 0.0
H232 H 0.49834 0.39182 0.02269 0.0
H233 H 0.54837 0.53056 0.04298 0.0
C234 C 0.55819 0.45549 0.12054 0.0
C235 C 0.55519 0.45054 0.14378 0.0
C236 C 0.59405 0.47334 0.15709 0.0
C237 C 0.63638 0.50188 0.14733 0.0
C238 C 0.63902 0.50779 0.12412 0.0
C239 C 0.60039 0.48425 0.11081 0.0
C240 C 0.46033 0.42263 0.11281 0.0
C241 C 0.4177 0.38331 0.11268 0.0
C242 C 0.37872 0.38566 0.11737 0.0
C243 C 0.38175 0.42753 0.12186 0.0
C244 C 0.42467 0.46683 0.1222 0.0
C245 C 0.46366 0.46435 0.11772 0.0
C246 C 0.51703 0.43732 0.07472 0.0
C247 C 0.50506 0.40499 0.05777 0.0
C248 C 0.50856 0.4177 0.0354 0.0
C249 C 0.52399 0.46304 0.02961 0.0
C250 C 0.53578 0.49526 0.04677 0.0
C251 C 0.53184 0.48239 0.06909 0.0
H252 H 0.14315 0.46 0.11125 0.0
H253 H 0.16176 0.44707 0.18151 0.0
H254 H 0.20682 0.44781 0.10286 0.0
H255 H 0.22493 0.43483 0.1732 0.0
H256 H 0.3096 0.37366 0.14835 0.0
H257 H 0.24113 0.37848 0.15452 0.0
H258 H 0.29168 0.49254 0.10993 0.0
H259 H 0.35991 0.48742 0.10357 0.0
C260 C 0.16051 0.45403 0.12483 0.0
C261 C 0.14769 0.45449 0.147 0.0
C262 C 0.19703 0.44735 0.12007 0.0
C263 C 0.22082 0.44043 0.1374 0.0
C264 C 0.20698 0.43962 0.1595 0.0
C265 C 0.17095 0.44682 0.16425 0.0
C266 C 0.30588 0.39952 0.13976 0.0
C267 C 0.34015 0.43031 0.12558 0.0
C268 C 0.26686 0.40242 0.14337 0.0
C269 C 0.26109 0.43584 0.13268 0.0
C270 C 0.29502 0.46617 0.11822 0.0
C271 C 0.33427 0.46357 0.11479 0.0
H272 H 0.73998 0.14158 0.50821 0.0
H273 H 0.69324 0.22348 0.54106 0.0
H274 H 0.81627 0.20679 0.50632 0.0
H275 H 0.76975 0.28883 0.5393 0.0
H276 H 0.87759 0.39403 0.48968 0.0
H277 H 0.80933 0.3314 0.50514 0.0
H278 H 0.88533 0.26709 0.52548 0.0
H279 H 0.95435 0.33058 0.5104 0.0
C280 C 0.74639 0.17319 0.51567 0.0
C281 C 0.71072 0.17773 0.5245 0.0
C282 C 0.79012 0.21054 0.51466 0.0
C283 C 0.7988 0.25309 0.52236 0.0
C284 C 0.76385 0.25658 0.53293 0.0
C285 C 0.72016 0.21914 0.53407 0.0
C286 C 0.88023 0.36733 0.49802 0.0
C287 C 0.92151 0.36728 0.49861 0.0
C288 C 0.84098 0.33133 0.50692 0.0
C289 C 0.84195 0.29426 0.5165 0.0
C290 C 0.88352 0.29504 0.51801 0.0
C291 C 0.92294 0.33128 0.50926 0.0
H292 H 0.58767 0.71038 0.77585 0.0
H293 H 0.67984 0.76245 0.83179 0.0
H294 H 0.60187 0.78645 0.76776 0.0
H295 H 0.69286 0.8382 0.82433 0.0
H296 H 0.72979 0.97593 0.79695 0.0
H297 H 0.72422 0.90211 0.8002 0.0
H298 H 0.58145 0.83733 0.78409 0.0
H299 H 0.58762 0.91088 0.77955 0.0
C300 C 0.61128 0.73823 0.78628 0.0
C301 C 0.63251 0.73063 0.80449 0.0
C302 C 0.61913 0.78174 0.7818 0.0
C303 C 0.64804 0.81843 0.79558 0.0
C304 C 0.67073 0.81092 0.81324 0.0
C305 C 0.66316 0.76747 0.81758 0.0
C306 C 0.69736 0.94593 0.7938 0.0
C307 C 0.65912 0.94942 0.78808 0.0
C308 C 0.69406 0.90356 0.79589 0.0
C309 C 0.6524 0.86368 0.79239 0.0
C310 C 0.61426 0.86726 0.78657 0.0
C311 C 0.61762 0.90953 0.78436 0.0
H312 H 0.91785 0.62478 0.16165 0.0
H313 H 0.87296 0.53361 0.21761 0.0
H314 H 0.84289 0.61548 0.1579 0.0
H315 H 0.79809 0.52642 0.21499 0.0
H316 H 0.66361 0.45734 0.17505 0.0
H317 H 0.73842 0.48516 0.19102 0.0
H318 H 0.77913 0.61927 0.16642 0.0
H319 H 0.70449 0.59004 0.14924 0.0
C320 C 0.89235 0.60426 0.1738 0.0
C321 C 0.90088 0.57919 0.18963 0.0
C322 C 0.84909 0.59897 0.17173 0.0
C323 C 0.81359 0.5691 0.18576 0.0
C324 C 0.82396 0.54839 0.20335 0.0
C325 C 0.86706 0.55295 0.20509 0.0
C326 C 0.6883 0.49297 0.17353 0.0
C327 C 0.67855 0.52146 0.16075 0.0
C328 C 0.73134 0.5092 0.18283 0.0
C329 C 0.76552 0.5546 0.17988 0.0
C330 C 0.75429 0.58389 0.16858 0.0
C331 C 0.71145 0.56733 0.15886 0.0
H332 H 0.3124 0.93269 0.51397 0.0
H333 H 0.35524 0.92631 0.44705 0.0
H334 H 0.24428 0.85932 0.50865 0.0
H335 H 0.28761 0.85236 0.44182 0.0
H336 H 0.15494 0.72346 0.43542 0.0
H337 H 0.20499 0.805 0.43954 0.0
H338 H 0.23685 0.78482 0.50681 0.0
H339 H 0.18592 0.70375 0.5029 0.0
C340 C 0.30672 0.91595 0.49796 0.0
C341 C 0.33921 0.93477 0.481 0.0
C342 C 0.26788 0.87384 0.49496 0.0
C343 C 0.26093 0.84966 0.47497 0.0
C344 C 0.2918 0.8702 0.45739 0.0
C345 C 0.33062 0.91249 0.46037 0.0
C346 C 0.17173 0.73665 0.45128 0.0
C347 C 0.1668 0.70724 0.46881 0.0
C348 C 0.2007 0.78327 0.45355 0.0
C349 C 0.2251 0.80138 0.47343 0.0
C350 C 0.21822 0.7721 0.49134 0.0
C351 C 0.18942 0.72556 0.48904 0.0
H352 H 0.46222 0.33331 0.8184 0.0
H353 H 0.5304 0.36726 0.88209 0.0
H354 H 0.47102 0.26766 0.81574 0.0
H355 H 0.53568 0.29861 0.88073 0.0
H356 H 0.61403 0.23358 0.85159 0.0
H357 H 0.58163 0.27828 0.86405 0.0
H358 H 0.46477 0.20028 0.82164 0.0
H359 H 0.50045 0.16012 0.80675 0.0
C360 C 0.47728 0.32543 0.83237 0.0
C361 C 0.49648 0.35575 0.85022 0.0
C362 C 0.48223 0.28729 0.83096 0.0
C363 C 0.50544 0.27786 0.84772 0.0
C364 C 0.51946 0.3055 0.86696 0.0
C365 C 0.51581 0.34455 0.86799 0.0
C366 C 0.58172 0.22625 0.8446 0.0
C367 C 0.56121 0.19434 0.82732 0.0
C368 C 0.56228 0.25139 0.85225 0.0
C369 C 0.52078 0.24427 0.84347 0.0
C370 C 0.49766 0.20848 0.82819 0.0
C371 C 0.51792 0.18449 0.81991 0.0
H372 H 0.45935 0.89269 0.49987 0.0
H373 H 0.60352 0.97169 0.51218 0.0
H374 H 0.46215 0.82327 0.50602 0.0
H375 H 0.6064 0.90272 0.5178 0.0
H376 H 0.59151 0.77843 0.55166 0.0
H377 H 0.58394 0.84454 0.54494 0.0
H378 H 0.48898 0.77383 0.49159 0.0
H379 H 0.49635 0.70695 0.49856 0.0
C380 C 0.49171 0.89536 0.5037 0.0
C381 C 0.53114 0.93806 0.50568 0.0
C382 C 0.49333 0.85543 0.50714 0.0
C383 C 0.53441 0.85717 0.51267 0.0
C384 C 0.57392 0.89988 0.51409 0.0
C385 C 0.57231 0.93963 0.5107 0.0
C386 C 0.56912 0.77691 0.53841 0.0
C387 C 0.54508 0.73748 0.52544 0.0
C388 C 0.56484 0.81501 0.5345 0.0
C389 C 0.53645 0.81508 0.51744 0.0
C390 C 0.51108 0.77508 0.50491 0.0
C391 C 0.51529 0.7367 0.5089 0.0
H392 H 0.66497 0.48238 0.84268 0.0
H393 H 0.73167 0.62425 0.82579 0.0
H394 H 0.73839 0.48757 0.84778 0.0
H395 H 0.80526 0.62918 0.83063 0.0
H396 H 0.92443 0.63229 0.86889 0.0
H397 H 0.85195 0.62705 0.86087 0.0
H398 H 0.80603 0.49826 0.82842 0.0
H399 H 0.87913 0.50369 0.83622 0.0
C400 C 0.69523 0.51469 0.83987 0.0
C401 C 0.69211 0.55297 0.83389 0.0
C402 C 0.73748 0.51755 0.84268 0.0
C403 C 0.77794 0.55881 0.83969 0.0
C404 C 0.77487 0.59695 0.83336 0.0
C405 C 0.73256 0.59405 0.83044 0.0
C406 C 0.89932 0.60312 0.85969 0.0
C407 C 0.90813 0.56857 0.85308 0.0
C408 C 0.85754 0.60012 0.85511 0.0
C409 C 0.823 0.56234 0.8439 0.0
C410 C 0.83162 0.52767 0.8373 0.0
C411 C 0.87361 0.53076 0.8418 0.0
H412 H 0.18883 0.62088 0.15642 0.0
H413 H 0.12034 0.68419 0.1878 0.0
H414 H 0.26088 0.69048 0.16062 0.0
H415 H 0.19298 0.75384 0.19249 0.0
H416 H 0.32894 0.88513 0.18017 0.0
H417 H 0.25515 0.81747 0.1738 0.0
H418 H 0.31346 0.73359 0.18928 0.0
H419 H 0.38663 0.80068 0.19553 0.0
C420 C 0.18901 0.64959 0.16427 0.0
C421 C 0.14848 0.64655 0.17186 0.0
C422 C 0.2306 0.68962 0.16681 0.0
C423 C 0.23313 0.72795 0.17711 0.0
C424 C 0.19248 0.72528 0.1843 0.0
C425 C 0.15074 0.68514 0.18172 0.0
C426 C 0.32596 0.85224 0.18225 0.0
C427 C 0.36412 0.84862 0.18814 0.0
C428 C 0.28356 0.81335 0.17863 0.0
C429 C 0.27814 0.76979 0.18085 0.0
C430 C 0.31629 0.76635 0.18687 0.0
C431 C 0.3585 0.80505 0.19045 0.0
H432 H 0.44914 0.1565 0.48808 0.0
H433 H 0.58739 0.22414 0.51215 0.0
H434 H 0.44855 0.22797 0.4907 0.0
H435 H 0.58643 0.29443 0.51512 0.0
H436 H 0.59097 0.42427 0.49973 0.0
H437 H 0.58637 0.35211 0.49264 0.0
H438 H 0.44969 0.28246 0.51808 0.0
H439 H 0.45343 0.35516 0.52426 0.0
C440 C 0.4794 0.18646 0.49386 0.0
C441 C 0.51833 0.1843 0.49981 0.0
C442 C 0.47897 0.22742 0.4955 0.0
C443 C 0.51755 0.26725 0.50299 0.0
C444 C 0.55634 0.26487 0.50886 0.0
C445 C 0.55674 0.22419 0.50729 0.0
C446 C 0.55939 0.39375 0.50335 0.0
C447 C 0.52257 0.396 0.51261 0.0
C448 C 0.55702 0.35213 0.49958 0.0
C449 C 0.51788 0.31122 0.50506 0.0
C450 C 0.48037 0.31318 0.51358 0.0
C451 C 0.48271 0.355 0.51735 0.0
H452 H 0.39028 0.46598 0.83001 0.0
H453 H 0.46371 0.60971 0.84261 0.0
H454 H 0.31867 0.46583 0.83332 0.0
H455 H 0.39294 0.60945 0.84736 0.0
H456 H 0.26456 0.61062 0.83809 0.0
H457 H 0.33175 0.60634 0.8304 0.0
H458 H 0.26656 0.47005 0.85617 0.0
H459 H 0.19723 0.47252 0.86158 0.0
C460 C 0.39109 0.49748 0.83369 0.0
C461 C 0.43275 0.5379 0.83585 0.0
C462 C 0.34994 0.49744 0.83575 0.0
C463 C 0.34936 0.53771 0.84048 0.0
C464 C 0.39135 0.57788 0.84303 0.0
C465 C 0.43228 0.57804 0.84049 0.0
C466 C 0.26362 0.57906 0.84155 0.0
C467 C 0.22464 0.54196 0.85058 0.0
C468 C 0.30305 0.57698 0.83759 0.0
C469 C 0.30561 0.53817 0.84305 0.0
C470 C 0.26636 0.5006 0.85158 0.0
C471 C 0.22646 0.50232 0.85508 0.0
H472 H 0.93081 0.34826 0.15608 0.0
H473 H 0.85851 0.41845 0.17269 0.0
H474 H 0.86103 0.27588 0.16078 0.0
H475 H 0.78894 0.34654 0.17684 0.0
H476 H 0.68777 0.21288 0.20984 0.0
H477 H 0.75528 0.28493 0.20206 0.0
H478 H 0.78648 0.22434 0.14657 0.0
H479 H 0.71883 0.15197 0.15449 0.0
C480 C 0.89999 0.34837 0.16041 0.0
C481 C 0.90062 0.38943 0.16412 0.0
C482 C 0.8598 0.30675 0.16305 0.0
C483 C 0.8191 0.30505 0.16942 0.0
C484 C 0.8196 0.34622 0.17242 0.0
C485 C 0.85967 0.38767 0.16986 0.0
C486 C 0.7085 0.21497 0.19573 0.0
C487 C 0.69752 0.17634 0.18281 0.0
C488 C 0.74746 0.25648 0.19125 0.0
C489 C 0.77671 0.2608 0.17365 0.0
C490 C 0.76535 0.22234 0.16049 0.0
C491 C 0.72637 0.18075 0.165 0.0
H492 H 0.07432 0.52233 0.10781 0.0
H493 H 0.95528 0.53116 0.09191 0.0
H494 H 0.08909 0.52068 0.06777 0.0
H495 H 0.96949 0.52898 0.05226 0.0
H496 H 0.98651 0.48696 0.9831 0.0
H497 H 0.9727 0.47593 0.02307 0.0
H498 H 0.11041 0.58049 0.03627 0.0
H499 H 0.12406 0.59291 0.99635 0.0
C500 C 0.05092 0.52298 0.09577 0.0
C501 C 0.01363 0.52671 0.10284 0.0
C502 C 0.05949 0.52237 0.07294 0.0
C503 C 0.03031 0.52454 0.05694 0.0
C504 C 0.99224 0.52672 0.06418 0.0
C505 C 0.98424 0.52819 0.08686 0.0
C506 C 0.0139 0.50777 0.99446 0.0
C507 C 0.05625 0.54127 0.98637 0.0
C508 C 1.00603 0.50116 0.01736 0.0
C509 C 0.04045 0.52743 0.03275 0.0
C510 C 0.08341 0.5594 0.02477 0.0
C511 C 0.09117 0.56643 0.00185 0.0
H512 H 0.60435 0.13904 0.42696 0.0
H513 H 0.48173 0.01251 0.43872 0.0
H514 H 0.59398 0.12655 0.38702 0.0
H515 H 0.47177 0.9989 0.39826 0.0
H516 H 0.45868 0.00911 0.3208 0.0
H517 H 0.45876 0.02277 0.36099 0.0
H518 H 0.60353 0.07587 0.36289 0.0
H519 H 0.60345 0.06269 0.32317 0.0
C520 C 0.5748 0.10865 0.42091 0.0
C521 C 0.54399 0.0766 0.43587 0.0
C522 C 0.56904 0.10128 0.39801 0.0
C523 C 0.53269 0.06118 0.3894 0.0
C524 C 0.50017 0.03014 0.40434 0.0
C525 C 0.50574 0.03789 0.42747 0.0
C526 C 0.49043 0.02362 0.32989 0.0
C527 C 0.5312 0.03554 0.3187 0.0
C528 C 0.49045 0.03137 0.35289 0.0
C529 C 0.53124 0.05114 0.36512 0.0
C530 C 0.57165 0.06186 0.35393 0.0
C531 C 0.57165 0.0543 0.33109 0.0
H532 H 0.57673 0.47647 0.75743 0.0
H533 H 0.55553 0.58866 0.77102 0.0
H534 H 0.58268 0.49322 0.71785 0.0
H535 H 0.55992 0.60499 0.73099 0.0
H536 H 0.60461 0.63792 0.65672 0.0
H537 H 0.60509 0.62935 0.69726 0.0
H538 H 0.53119 0.48401 0.6892 0.0
H539 H 0.532 0.49277 0.649 0.0
C540 C 0.57375 0.50509 0.75188 0.0
C541 C 0.56589 0.53143 0.76722 0.0
C542 C 0.57666 0.51445 0.72915 0.0
C543 C 0.57076 0.54986 0.72108 0.0
C544 C 0.56481 0.57757 0.73659 0.0
C545 C 0.56252 0.56846 0.75952 0.0
C546 C 0.58826 0.60422 0.66373 0.0
C547 C 0.56876 0.56599 0.64971 0.0
C548 C 0.58848 0.59929 0.68694 0.0
C549 C 0.56891 0.55599 0.69655 0.0
C550 C 0.54788 0.51791 0.68243 0.0
C551 C 0.54807 0.52285 0.65935 0.0
H552 H 0.57539 0.05746 0.55675 0.0
H553 H 0.47364 0.09365 0.57207 0.0
H554 H 0.60257 0.0735 0.59505 0.0
H555 H 0.50196 0.11164 0.61033 0.0
H556 H 0.52823 0.08433 0.68239 0.0
H557 H 0.5028 0.07466 0.64368 0.0
H558 H 0.64153 0.1311 0.62172 0.0
H559 H 0.66644 0.13918 0.66041 0.0
C560 C 0.55925 0.06946 0.5683 0.0
C561 C 0.52225 0.07405 0.56156 0.0
C562 C 0.57502 0.079 0.59024 0.0
C563 C 0.55446 0.09384 0.60588 0.0
C564 C 0.5181 0.09953 0.59887 0.0
C565 C 0.50205 0.08955 0.57694 0.0
C566 C 0.5532 0.09494 0.66923 0.0
C567 C 0.59921 0.11214 0.67434 0.0
C568 C 0.53873 0.08962 0.64704 0.0
C569 C 0.57007 0.1019 0.6295 0.0
C570 C 0.61631 0.12036 0.63474 0.0
C571 C 0.63065 0.12515 0.6569 0.0
H572 H 0.52264 0.48304 0.88408 0.0
H573 H 0.59364 0.62019 0.90878 0.0
H574 H 0.50995 0.45479 0.92244 0.0
H575 H 0.58028 0.59227 0.947 0.0
H576 H 0.50442 0.52485 0.01123 0.0
H577 H 0.51334 0.54958 0.97259 0.0
H578 H 0.55907 0.45609 0.95519 0.0
H579 H 0.55153 0.43211 0.99399 0.0
C580 C 0.53582 0.50701 0.8977 0.0
C581 C 0.55972 0.55364 0.89352 0.0
C582 C 0.52844 0.49094 0.91961 0.0
C583 C 0.5442 0.52138 0.93767 0.0
C584 C 0.56742 0.56805 0.93341 0.0
C585 C 0.57522 0.58401 0.91155 0.0
C586 C 0.51685 0.50983 -0.00073 0.0
C587 C 0.52761 0.47672 0.00583 0.0
C588 C 0.52172 0.52388 0.97711 0.0
C589 C 0.53699 0.50482 0.96093 0.0
C590 C 0.54677 0.471 0.96729 0.0
C591 C 0.54235 0.45724 0.98952 0.0
H592 H 0.96852 0.4207 0.23111 0.0
H593 H 0.05158 0.56607 0.23098 0.0
H594 H 0.9611 0.42158 0.27145 0.0
H595 H 0.04689 0.56719 0.2715 0.0
H596 H 0.02025 0.56057 0.34495 0.0
H597 H 1.00748 0.55757 0.30474 0.0
H598 H 1.00769 0.43092 0.30158 0.0
H599 H 0.01819 0.43322 0.34169 0.0
C600 C 0.98493 0.45289 0.2398 0.0
C601 C 0.01097 0.49325 0.2281 0.0
C602 C 0.9811 0.45345 0.26293 0.0
C603 C 1.00425 0.49434 0.27493 0.0
C604 C 0.02826 0.53504 0.26294 0.0
C605 C 0.03119 0.5345 0.2397 0.0
C606 C 0.01689 0.53188 0.33557 0.0
C607 C 0.02013 0.49709 0.34635 0.0
C608 C 1.00984 0.53022 0.31253 0.0
C609 C 1.00667 0.49409 0.29974 0.0
C610 C 1.0089 0.45883 0.31078 0.0
C611 C 0.01518 0.46016 0.33381 0.0
loop_
_geom_bond_atom_site_label_1
_geom_bond_atom_site_label_2
_geom_bond_distance
_geom_bond_site_symmetry_2
_ccdc_geom_bond_type
Dy0 O4 2.398 . S
Dy0 O5 2.491 . S
Dy0 O6 2.403 . S
Dy0 O7 2.664 . S
Dy0 O11 2.326 . S
Dy0 O15 2.310 . S
Dy0 O16 2.351 1_455 S
C1 O12 1.185 . S
C1 O13 1.355 . S
C2 O4 1.185 . S
C2 O5 1.355 . S
Dy3 O7 2.319 . S
Dy3 O10 2.364 . S
Dy3 O12 2.382 1_455 S
Dy3 O13 2.478 1_455 S
Dy3 O14 2.406 . S
Dy3 O15 2.678 . S
Dy3 O17 2.325 1_455 S
O4 Dy0 2.398 . S
O4 C2 1.185 . S
O5 Dy0 2.491 . S
O5 C2 1.355 . S
O6 Dy0 2.403 . S
O6 C8 1.254 . S
O7 Dy0 2.664 . S
O7 Dy3 2.319 . S
O7 C8 1.268 . S
C8 O6 1.254 . S
C8 O7 1.268 . S
C9 O14 1.254 . S
C9 O15 1.268 . S
O10 Dy3 2.364 . S
O10 C18 1.249 . S
O11 Dy0 2.326 . S
O11 C18 1.267 . S
O12 C1 1.185 . S
O12 Dy3 2.382 1_655 S
O13 C1 1.355 . S
O13 Dy3 2.478 1_655 S
O14 Dy3 2.406 . S
O14 C9 1.254 . S
O15 Dy0 2.310 . S
O15 Dy3 2.678 . S
O15 C9 1.268 . S
O16 Dy0 2.351 1_655 S
O16 C19 1.249 . S
O17 Dy3 2.325 1_655 S
O17 C19 1.267 . S
C18 O10 1.249 . S
C18 O11 1.267 . S
C19 O16 1.249 . S
C19 O17 1.267 . S
Dy20 O24 2.384 1_545 S
Dy20 O25 2.475 1_545 S
Dy20 O26 2.403 . S
Dy20 O27 2.667 . S
Dy20 O31 2.305 1_545 S
Dy20 O35 2.307 . S
Dy20 O36 2.374 . S
C21 O32 1.185 . S
C21 O33 1.355 . S
C22 O24 1.185 . S
C22 O25 1.355 . S
Dy23 O27 2.310 . S
Dy23 O30 2.351 1_545 S
Dy23 O32 2.398 . S
Dy23 O33 2.491 . S
Dy23 O34 2.403 . S
Dy23 O35 2.664 . S
Dy23 O37 2.326 . S
O24 Dy20 2.384 1_565 S
O24 C22 1.185 . S
O25 Dy20 2.475 1_565 S
O25 C22 1.355 . S
O26 Dy20 2.403 . S
O26 C28 1.254 . S
O27 Dy20 2.667 . S
O27 Dy23 2.310 . S
O27 C28 1.268 . S
C28 O26 1.254 . S
C28 O27 1.268 . S
C29 O34 1.254 . S
C29 O35 1.268 . S
O30 Dy23 2.351 1_565 S
O30 C38 1.249 . S
O31 Dy20 2.305 1_565 S
O31 C38 1.267 . S
O32 C21 1.185 . S
O32 Dy23 2.398 . S
O33 C21 1.355 . S
O33 Dy23 2.491 . S
O34 Dy23 2.403 . S
O34 C29 1.254 . S
O35 Dy20 2.307 . S
O35 Dy23 2.664 . S
O35 C29 1.268 . S
O36 Dy20 2.374 . S
O36 C39 1.249 . S
O37 Dy23 2.326 . S
O37 C39 1.267 . S
C38 O30 1.249 . S
C38 O31 1.267 . S
C39 O36 1.249 . S
C39 O37 1.267 . S
Dy40 O44 2.398 . S
Dy40 O45 2.491 . S
Dy40 O46 2.403 . S
Dy40 O47 2.664 . S
Dy40 O51 2.326 . S
Dy40 O55 2.310 . S
Dy40 O56 2.351 . S
C41 O52 1.185 . S
C41 O53 1.355 . S
C42 O44 1.185 . S
C42 O45 1.355 . S
Dy43 O47 2.310 . S
Dy43 O50 2.351 . S
Dy43 O52 2.398 . S
Dy43 O53 2.491 . S
Dy43 O54 2.403 . S
Dy43 O55 2.664 . S
Dy43 O57 2.326 . S
O44 Dy40 2.398 . S
O44 C42 1.185 . S
O45 Dy40 2.491 . S
O45 C42 1.355 . S
O46 Dy40 2.403 . S
O46 C48 1.254 . S
O47 Dy40 2.664 . S
O47 Dy43 2.310 . S
O47 C48 1.268 . S
C48 O46 1.254 . S
C48 O47 1.268 . S
C49 O54 1.254 . S
C49 O55 1.268 . S
O50 Dy43 2.351 . S
O50 C58 1.249 . S
O51 Dy40 2.326 . S
O51 C58 1.267 . S
O52 C41 1.185 . S
O52 Dy43 2.398 . S
O53 C41 1.355 . S
O53 Dy43 2.491 . S
O54 Dy43 2.403 . S
O54 C49 1.254 . S
O55 Dy40 2.310 . S
O55 Dy43 2.664 . S
O55 C49 1.268 . S
O56 Dy40 2.351 . S
O56 C59 1.249 . S
O57 Dy43 2.326 . S
O57 C59 1.267 . S
C58 O50 1.249 . S
C58 O51 1.267 . S
C59 O56 1.249 . S
C59 O57 1.267 . S
P60 O71 1.490 . S
P60 C74 1.812 . S
P60 C80 1.803 1_565 S
P60 C86 1.819 . S
H61 C75 0.941 . S
H62 C76 0.939 . S
H63 C78 0.940 . S
H64 C79 0.940 . S
H65 C81 0.939 . S
H66 C82 0.942 . S
H67 C84 0.940 . S
H68 C85 0.939 . S
H69 C87 0.941 . S
H70 C91 0.939 . S
O71 P60 1.490 . S
H72 C88 0.939 . S
H73 C90 0.940 . S
C74 P60 1.812 . S
C74 C75 1.389 . S
C74 C79 1.391 . S
C75 H61 0.941 . S
C75 C74 1.389 . S
C75 C76 1.397 . S
C76 H62 0.939 . S
C76 C75 1.397 . S
C76 C77 1.378 . S
C77 C76 1.378 . S
C77 C78 1.378 . S
C78 H63 0.940 . S
C78 C77 1.378 . S
C78 C79 1.396 . S
C79 H64 0.940 . S
C79 C74 1.391 . S
C79 C78 1.396 . S
C80 P60 1.803 1_545 S
C80 C81 1.378 . S
C80 C85 1.400 . S
C81 H65 0.939 . S
C81 C80 1.378 . S
C81 C82 1.361 . S
C82 H66 0.942 . S
C82 C81 1.361 . S
C82 C83 1.369 . S
C83 C82 1.369 . S
C83 C84 1.404 . S
C84 H67 0.940 . S
C84 C83 1.404 . S
C84 C85 1.389 . S
C85 H68 0.939 . S
C85 C80 1.400 . S
C85 C84 1.389 . S
C86 P60 1.819 . S
C86 C87 1.391 . S
C86 C91 1.391 1_565 S
C87 H69 0.941 . S
C87 C86 1.391 . S
C87 C88 1.396 . S
C88 H72 0.939 . S
C88 C87 1.396 . S
C88 C89 1.397 1_565 S
C89 C88 1.397 1_545 S
C89 C90 1.385 . S
C90 H73 0.940 . S
C90 C89 1.385 . S
C90 C91 1.388 . S
C91 H70 0.939 . S
C91 C86 1.391 1_545 S
C91 C90 1.388 . S
P92 O103 1.490 . S
P92 C106 1.812 . S
P92 C112 1.803 . S
P92 C118 1.819 . S
H93 C107 0.941 . S
H94 C108 0.939 . S
H95 C110 0.940 . S
H96 C111 0.940 . S
H97 C113 0.939 . S
H98 C114 0.942 . S
H99 C116 0.940 . S
H100 C117 0.939 . S
H101 C119 0.941 . S
H102 C123 0.939 . S
O103 P92 1.490 . S
H104 C120 0.939 . S
H105 C122 0.940 . S
C106 P92 1.812 . S
C106 C107 1.389 . S
C106 C111 1.391 . S
C107 H93 0.941 . S
C107 C106 1.389 . S
C107 C108 1.397 . S
C108 H94 0.939 . S
C108 C107 1.397 . S
C108 C109 1.378 . S
C109 C108 1.378 . S
C109 C110 1.378 . S
C110 H95 0.940 . S
C110 C109 1.378 . S
C110 C111 1.396 . S
C111 H96 0.940 . S
C111 C106 1.391 . S
C111 C110 1.396 . S
C112 P92 1.803 . S
C112 C113 1.378 . S
C112 C117 1.400 . S
C113 H97 0.939 . S
C113 C112 1.378 . S
C113 C114 1.361 . S
C114 H98 0.942 . S
C114 C113 1.361 . S
C114 C115 1.369 . S
C115 C114 1.369 . S
C115 C116 1.404 . S
C116 H99 0.940 . S
C116 C115 1.404 . S
C116 C117 1.389 . S
C117 H100 0.939 . S
C117 C112 1.400 . S
C117 C116 1.389 . S
C118 P92 1.819 . S
C118 C119 1.391 . S
C118 C123 1.391 . S
C119 H101 0.941 . S
C119 C118 1.391 . S
C119 C120 1.396 . S
C120 H104 0.939 . S
C120 C119 1.396 . S
C120 C121 1.397 . S
C121 C120 1.397 . S
C121 C122 1.385 . S
C122 H105 0.940 . S
C122 C121 1.385 . S
C122 C123 1.388 . S
C123 H102 0.939 . S
C123 C118 1.391 . S
C123 C122 1.388 . S
P124 O135 1.490 . S
P124 C138 1.812 . S
P124 C144 1.803 . S
P124 C150 1.819 . S
H125 C139 0.941 . S
H126 C140 0.939 . S
H127 C142 0.940 . S
H128 C143 0.940 . S
H129 C145 0.939 . S
H130 C146 0.942 . S
H131 C148 0.940 . S
H132 C149 0.939 . S
H133 C151 0.941 . S
H134 C155 0.939 . S
O135 P124 1.490 . S
H136 C152 0.939 . S
H137 C154 0.940 1_655 S
C138 P124 1.812 . S
C138 C139 1.389 . S
C138 C143 1.391 . S
C139 H125 0.941 . S
C139 C138 1.389 . S
C139 C140 1.397 . S
C140 H126 0.939 . S
C140 C139 1.397 . S
C140 C141 1.378 . S
C141 C140 1.378 . S
C141 C142 1.378 . S
C142 H127 0.940 . S
C142 C141 1.378 . S
C142 C143 1.396 . S
C143 H128 0.940 . S
C143 C138 1.391 . S
C143 C142 1.396 . S
C144 P124 1.803 . S
C144 C145 1.378 . S
C144 C149 1.400 . S
C145 H129 0.939 . S
C145 C144 1.378 . S
C145 C146 1.361 1_455 S
C146 H130 0.942 . S
C146 C145 1.361 1_655 S
C146 C147 1.369 . S
C147 C146 1.369 . S
C147 C148 1.404 . S
C148 H131 0.940 . S
C148 C147 1.404 . S
C148 C149 1.389 1_655 S
C149 H132 0.939 . S
C149 C144 1.400 . S
C149 C148 1.389 1_455 S
C150 P124 1.819 . S
C150 C151 1.391 . S
C150 C155 1.391 . S
C151 H133 0.941 . S
C151 C150 1.391 . S
C151 C152 1.396 . S
C152 H136 0.939 . S
C152 C151 1.396 . S
C152 C153 1.397 . S
C153 C152 1.397 . S
C153 C154 1.385 . S
C154 H137 0.940 1_455 S
C154 C153 1.385 . S
C154 C155 1.388 . S
C155 H134 0.939 . S
C155 C150 1.391 . S
C155 C154 1.388 . S
P156 O167 1.490 . S
P156 C170 1.812 . S
P156 C176 1.803 1_455 S
P156 C182 1.819 . S
H157 C171 0.941 . S
H158 C172 0.939 . S
H159 C174 0.940 . S
H160 C175 0.940 . S
H161 C177 0.939 . S
H162 C178 0.942 . S
H163 C180 0.940 . S
H164 C181 0.939 . S
H165 C183 0.941 . S
H166 C187 0.939 . S
O167 P156 1.490 . S
H168 C184 0.939 . S
H169 C186 0.940 . S
C170 P156 1.812 . S
C170 C171 1.389 . S
C170 C175 1.391 . S
C171 H157 0.941 . S
C171 C170 1.389 . S
C171 C172 1.397 . S
C172 H158 0.939 . S
C172 C171 1.397 . S
C172 C173 1.378 . S
C173 C172 1.378 . S
C173 C174 1.378 . S
C174 H159 0.940 . S
C174 C173 1.378 . S
C174 C175 1.396 . S
C175 H160 0.940 . S
C175 C170 1.391 . S
C175 C174 1.396 . S
C176 P156 1.803 1_655 S
C176 C177 1.378 . S
C176 C181 1.400 . S
C177 H161 0.939 . S
C177 C176 1.378 . S
C177 C178 1.361 . S
C178 H162 0.942 . S
C178 C177 1.361 . S
C178 C179 1.369 . S
C179 C178 1.369 . S
C179 C180 1.404 . S
C180 H163 0.940 . S
C180 C179 1.404 . S
C180 C181 1.389 . S
C181 H164 0.939 . S
C181 C176 1.400 . S
C181 C180 1.389 . S
C182 P156 1.819 . S
C182 C183 1.391 . S
C182 C187 1.391 1_455 S
C183 H165 0.941 . S
C183 C182 1.391 . S
C183 C184 1.396 . S
C184 H168 0.939 . S
C184 C183 1.396 . S
C184 C185 1.397 . S
C185 C184 1.397 . S
C185 C186 1.385 1_455 S
C186 H169 0.940 . S
C186 C185 1.385 1_655 S
C186 C187 1.388 . S
C187 H166 0.939 . S
C187 C182 1.391 1_655 S
C187 C186 1.388 . S
P188 O199 1.490 . S
P188 C202 1.812 . S
P188 C208 1.803 . S
P188 C214 1.819 . S
H189 C203 0.941 . S
H190 C204 0.939 . S
H191 C206 0.940 . S
H192 C207 0.940 . S
H193 C209 0.939 . S
H194 C210 0.942 . S
H195 C212 0.940 . S
H196 C213 0.939 . S
H197 C215 0.941 . S
H198 C219 0.939 . S
O199 P188 1.490 . S
H200 C216 0.939 . S
H201 C218 0.940 1_565 S
C202 P188 1.812 . S
C202 C203 1.389 . S
C202 C207 1.391 . S
C203 H189 0.941 . S
C203 C202 1.389 . S
C203 C204 1.397 . S
C204 H190 0.939 . S
C204 C203 1.397 . S
C204 C205 1.378 . S
C205 C204 1.378 . S
C205 C206 1.378 . S
C206 H191 0.940 . S
C206 C205 1.378 . S
C206 C207 1.396 . S
C207 H192 0.940 . S
C207 C202 1.391 . S
C207 C206 1.396 . S
C208 P188 1.803 . S
C208 C209 1.378 . S
C208 C213 1.400 . S
C209 H193 0.939 . S
C209 C208 1.378 . S
C209 C210 1.361 1_545 S
C210 H194 0.942 . S
C210 C209 1.361 1_565 S
C210 C211 1.369 . S
C211 C210 1.369 . S
C211 C212 1.404 . S
C212 H195 0.940 . S
C212 C211 1.404 . S
C212 C213 1.389 1_565 S
C213 H196 0.939 . S
C213 C208 1.400 . S
C213 C212 1.389 1_545 S
C214 P188 1.819 . S
C214 C215 1.391 . S
C214 C219 1.391 . S
C215 H197 0.941 . S
C215 C214 1.391 . S
C215 C216 1.396 . S
C216 H200 0.939 . S
C216 C215 1.396 . S
C216 C217 1.397 . S
C217 C216 1.397 . S
C217 C218 1.385 . S
C218 H201 0.940 1_545 S
C218 C217 1.385 . S
C218 C219 1.388 . S
C219 H198 0.939 . S
C219 C214 1.391 . S
C219 C218 1.388 . S
P220 O231 1.490 . S
P220 C234 1.812 . S
P220 C240 1.803 . S
P220 C246 1.819 . S
H221 C235 0.941 . S
H222 C236 0.939 . S
H223 C238 0.940 . S
H224 C239 0.940 . S
H225 C241 0.939 . S
H226 C242 0.942 . S
H227 C244 0.940 . S
H228 C245 0.939 . S
H229 C247 0.941 . S
H230 C251 0.939 . S
O231 P220 1.490 . S
H232 C248 0.939 . S
H233 C250 0.940 . S
C234 P220 1.812 . S
C234 C235 1.389 . S
C234 C239 1.391 . S
C235 H221 0.941 . S
C235 C234 1.389 . S
C235 C236 1.397 . S
C236 H222 0.939 . S
C236 C235 1.397 . S
C236 C237 1.378 . S
C237 C236 1.378 . S
C237 C238 1.378 . S
C238 H223 0.940 . S
C238 C237 1.378 . S
C238 C239 1.396 . S
C239 H224 0.940 . S
C239 C234 1.391 . S
C239 C238 1.396 . S
C240 P220 1.803 . S
C240 C241 1.378 . S
C240 C245 1.400 . S
C241 H225 0.939 . S
C241 C240 1.378 . S
C241 C242 1.361 . S
C242 H226 0.942 . S
C242 C241 1.361 . S
C242 C243 1.369 . S
C243 C242 1.369 . S
C243 C244 1.404 . S
C244 H227 0.940 . S
C244 C243 1.404 . S
C244 C245 1.389 . S
C245 H228 0.939 . S
C245 C240 1.400 . S
C245 C244 1.389 . S
C246 P220 1.819 . S
C246 C247 1.391 . S
C246 C251 1.391 . S
C247 H229 0.941 . S
C247 C246 1.391 . S
C247 C248 1.396 . S
C248 H232 0.939 . S
C248 C247 1.396 . S
C248 C249 1.397 . S
C249 C248 1.397 . S
C249 C250 1.385 . S
C250 H233 0.940 . S
C250 C249 1.385 . S
C250 C251 1.388 . S
C251 H230 0.939 . S
C251 C246 1.391 . S
C251 C250 1.388 . S
H252 C260 0.950 . S
H253 C265 0.950 . S
H254 C262 0.950 . S
H255 C264 0.950 . S
H256 C266 0.950 . S
H257 C268 0.950 . S
H258 C270 0.950 . S
H259 C271 0.950 . S
C260 H252 0.950 . S
C260 C261 1.386 . S
C260 C262 1.391 . S
C261 C260 1.386 . S
C261 C265 1.393 . S
C262 H254 0.950 . S
C262 C260 1.391 . S
C262 C263 1.400 . S
C263 C262 1.400 . S
C263 C264 1.398 . S
C263 C269 1.491 . S
C264 H255 0.950 . S
C264 C263 1.398 . S
C264 C265 1.391 . S
C265 H253 0.950 . S
C265 C261 1.393 . S
C265 C264 1.391 . S
C266 H256 0.950 . S
C266 C267 1.386 . S
C266 C268 1.391 . S
C267 C266 1.386 . S
C267 C271 1.393 . S
C268 H257 0.950 . S
C268 C266 1.391 . S
C268 C269 1.400 . S
C269 C263 1.491 . S
C269 C268 1.400 . S
C269 C270 1.398 . S
C270 H258 0.950 . S
C270 C269 1.398 . S
C270 C271 1.391 . S
C271 H259 0.950 . S
C271 C267 1.393 . S
C271 C270 1.391 . S
H272 C280 0.950 . S
H273 C285 0.950 . S
H274 C282 0.950 . S
H275 C284 0.950 . S
H276 C286 0.950 . S
H277 C288 0.950 . S
H278 C290 0.950 . S
H279 C291 0.950 . S
C280 H272 0.950 . S
C280 C281 1.386 . S
C280 C282 1.391 . S
C281 C280 1.386 . S
C281 C285 1.393 . S
C282 H274 0.950 . S
C282 C280 1.391 . S
C282 C283 1.400 . S
C283 C282 1.400 . S
C283 C284 1.398 . S
C283 C289 1.491 . S
C284 H275 0.950 . S
C284 C283 1.398 . S
C284 C285 1.391 . S
C285 H273 0.950 . S
C285 C281 1.393 . S
C285 C284 1.391 . S
C286 H276 0.950 . S
C286 C287 1.386 . S
C286 C288 1.391 . S
C287 C286 1.386 . S
C287 C291 1.393 . S
C288 H277 0.950 . S
C288 C286 1.391 . S
C288 C289 1.400 . S
C289 C283 1.491 . S
C289 C288 1.400 . S
C289 C290 1.398 . S
C290 H278 0.950 . S
C290 C289 1.398 . S
C290 C291 1.391 . S
C291 H279 0.950 . S
C291 C287 1.393 . S
C291 C290 1.391 . S
H292 C300 0.950 . S
H293 C305 0.950 . S
H294 C302 0.950 . S
H295 C304 0.950 . S
H296 C306 0.950 . S
H297 C308 0.950 . S
H298 C310 0.950 . S
H299 C311 0.950 . S
C300 H292 0.950 . S
C300 C301 1.386 . S
C300 C302 1.391 . S
C301 C300 1.386 . S
C301 C305 1.393 . S
C302 H294 0.950 . S
C302 C300 1.391 . S
C302 C303 1.400 . S
C303 C302 1.400 . S
C303 C304 1.398 . S
C303 C309 1.491 . S
C304 H295 0.950 . S
C304 C303 1.398 . S
C304 C305 1.391 . S
C305 H293 0.950 . S
C305 C301 1.393 . S
C305 C304 1.391 . S
C306 H296 0.950 . S
C306 C307 1.386 . S
C306 C308 1.391 . S
C307 C306 1.386 . S
C307 C311 1.393 . S
C308 H297 0.950 . S
C308 C306 1.391 . S
C308 C309 1.400 . S
C309 C303 1.491 . S
C309 C308 1.400 . S
C309 C310 1.398 . S
C310 H298 0.950 . S
C310 C309 1.398 . S
C310 C311 1.391 . S
C311 H299 0.950 . S
C311 C307 1.393 . S
C311 C310 1.391 . S
H312 C320 0.950 . S
H313 C325 0.950 . S
H314 C322 0.950 . S
H315 C324 0.950 . S
H316 C326 0.950 . S
H317 C328 0.950 . S
H318 C330 0.950 . S
H319 C331 0.950 . S
C320 H312 0.950 . S
C320 C321 1.386 . S
C320 C322 1.391 . S
C321 C320 1.386 . S
C321 C325 1.393 . S
C322 H314 0.950 . S
C322 C320 1.391 . S
C322 C323 1.400 . S
C323 C322 1.400 . S
C323 C324 1.398 . S
C323 C329 1.491 . S
C324 H315 0.950 . S
C324 C323 1.398 . S
C324 C325 1.391 . S
C325 H313 0.950 . S
C325 C321 1.393 . S
C325 C324 1.391 . S
C326 H316 0.950 . S
C326 C327 1.386 . S
C326 C328 1.391 . S
C327 C326 1.386 . S
C327 C331 1.393 . S
C328 H317 0.950 . S
C328 C326 1.391 . S
C328 C329 1.400 . S
C329 C323 1.491 . S
C329 C328 1.400 . S
C329 C330 1.398 . S
C330 H318 0.950 . S
C330 C329 1.398 . S
C330 C331 1.391 . S
C331 H319 0.950 . S
C331 C327 1.393 . S
C331 C330 1.391 . S
H332 C340 0.950 . S
H333 C345 0.950 . S
H334 C342 0.950 . S
H335 C344 0.950 . S
H336 C346 0.950 . S
H337 C348 0.950 . S
H338 C350 0.950 . S
H339 C351 0.950 . S
C340 H332 0.950 . S
C340 C341 1.386 . S
C340 C342 1.391 . S
C341 C340 1.386 . S
C341 C345 1.393 . S
C342 H334 0.950 . S
C342 C340 1.391 . S
C342 C343 1.400 . S
C343 C342 1.400 . S
C343 C344 1.398 . S
C343 C349 1.491 . S
C344 H335 0.950 . S
C344 C343 1.398 . S
C344 C345 1.391 . S
C345 H333 0.950 . S
C345 C341 1.393 . S
C345 C344 1.391 . S
C346 H336 0.950 . S
C346 C347 1.386 . S
C346 C348 1.391 . S
C347 C346 1.386 . S
C347 C351 1.393 . S
C348 H337 0.950 . S
C348 C346 1.391 . S
C348 C349 1.400 . S
C349 C343 1.491 . S
C349 C348 1.400 . S
C349 C350 1.398 . S
C350 H338 0.950 . S
C350 C349 1.398 . S
C350 C351 1.391 . S
C351 H339 0.950 . S
C351 C347 1.393 . S
C351 C350 1.391 . S
H352 C360 0.950 . S
H353 C365 0.950 . S
H354 C362 0.950 . S
H355 C364 0.950 . S
H356 C366 0.950 . S
H357 C368 0.950 . S
H358 C370 0.950 . S
H359 C371 0.950 . S
C360 H352 0.950 . S
C360 C361 1.386 . S
C360 C362 1.391 . S
C361 C360 1.386 . S
C361 C365 1.393 . S
C362 H354 0.950 . S
C362 C360 1.391 . S
C362 C363 1.400 . S
C363 C362 1.400 . S
C363 C364 1.398 . S
C363 C369 1.491 . S
C364 H355 0.950 . S
C364 C363 1.398 . S
C364 C365 1.391 . S
C365 H353 0.950 . S
C365 C361 1.393 . S
C365 C364 1.391 . S
C366 H356 0.950 . S
C366 C367 1.386 . S
C366 C368 1.391 . S
C367 C366 1.386 . S
C367 C371 1.393 . S
C368 H357 0.950 . S
C368 C366 1.391 . S
C368 C369 1.400 . S
C369 C363 1.491 . S
C369 C368 1.400 . S
C369 C370 1.398 . S
C370 H358 0.950 . S
C370 C369 1.398 . S
C370 C371 1.391 . S
C371 H359 0.950 . S
C371 C367 1.393 . S
C371 C370 1.391 . S
H372 C380 0.950 . S
H373 C385 0.950 . S
H374 C382 0.950 . S
H375 C384 0.950 . S
H376 C386 0.950 . S
H377 C388 0.950 . S
H378 C390 0.950 . S
H379 C391 0.950 . S
C380 H372 0.950 . S
C380 C381 1.386 . S
C380 C382 1.391 . S
C381 C380 1.386 . S
C381 C385 1.393 . S
C382 H374 0.950 . S
C382 C380 1.391 . S
C382 C383 1.400 . S
C383 C382 1.400 . S
C383 C384 1.398 . S
C383 C389 1.491 . S
C384 H375 0.950 . S
C384 C383 1.398 . S
C384 C385 1.391 . S
C385 H373 0.950 . S
C385 C381 1.393 . S
C385 C384 1.391 . S
C386 H376 0.950 . S
C386 C387 1.386 . S
C386 C388 1.391 . S
C387 C386 1.386 . S
C387 C391 1.393 . S
C388 H377 0.950 . S
C388 C386 1.391 . S
C388 C389 1.400 . S
C389 C383 1.491 . S
C389 C388 1.400 . S
C389 C390 1.398 . S
C390 H378 0.950 . S
C390 C389 1.398 . S
C390 C391 1.391 . S
C391 H379 0.950 . S
C391 C387 1.393 . S
C391 C390 1.391 . S
H392 C400 0.950 . S
H393 C405 0.950 . S
H394 C402 0.950 . S
H395 C404 0.950 . S
H396 C406 0.950 . S
H397 C408 0.950 . S
H398 C410 0.950 . S
H399 C411 0.950 . S
C400 H392 0.950 . S
C400 C401 1.386 . S
C400 C402 1.391 . S
C401 C400 1.386 . S
C401 C405 1.393 . S
C402 H394 0.950 . S
C402 C400 1.391 . S
C402 C403 1.400 . S
C403 C402 1.400 . S
C403 C404 1.398 . S
C403 C409 1.491 . S
C404 H395 0.950 . S
C404 C403 1.398 . S
C404 C405 1.391 . S
C405 H393 0.950 . S
C405 C401 1.393 . S
C405 C404 1.391 . S
C406 H396 0.950 . S
C406 C407 1.386 . S
C406 C408 1.391 . S
C407 C406 1.386 . S
C407 C411 1.393 . S
C408 H397 0.950 . S
C408 C406 1.391 . S
C408 C409 1.400 . S
C409 C403 1.491 . S
C409 C408 1.400 . S
C409 C410 1.398 . S
C410 H398 0.950 . S
C410 C409 1.398 . S
C410 C411 1.391 . S
C411 H399 0.950 . S
C411 C407 1.393 . S
C411 C410 1.391 . S
H412 C420 0.950 . S
H413 C425 0.950 . S
H414 C422 0.950 . S
H415 C424 0.950 . S
H416 C426 0.950 . S
H417 C428 0.950 . S
H418 C430 0.950 . S
H419 C431 0.950 . S
C420 H412 0.950 . S
C420 C421 1.386 . S
C420 C422 1.391 . S
C421 C420 1.386 . S
C421 C425 1.393 . S
C422 H414 0.950 . S
C422 C420 1.391 . S
C422 C423 1.400 . S
C423 C422 1.400 . S
C423 C424 1.398 . S
C423 C429 1.491 . S
C424 H415 0.950 . S
C424 C423 1.398 . S
C424 C425 1.391 . S
C425 H413 0.950 . S
C425 C421 1.393 . S
C425 C424 1.391 . S
C426 H416 0.950 . S
C426 C427 1.386 . S
C426 C428 1.391 . S
C427 C426 1.386 . S
C427 C431 1.393 . S
C428 H417 0.950 . S
C428 C426 1.391 . S
C428 C429 1.400 . S
C429 C423 1.491 . S
C429 C428 1.400 . S
C429 C430 1.398 . S
C430 H418 0.950 . S
C430 C429 1.398 . S
C430 C431 1.391 . S
C431 H419 0.950 . S
C431 C427 1.393 . S
C431 C430 1.391 . S
H432 C440 0.950 . S
H433 C445 0.950 . S
H434 C442 0.950 . S
H435 C444 0.950 . S
H436 C446 0.950 . S
H437 C448 0.950 . S
H438 C450 0.950 . S
H439 C451 0.950 . S
C440 H432 0.950 . S
C440 C441 1.386 . S
C440 C442 1.391 . S
C441 C440 1.386 . S
C441 C445 1.393 . S
C442 H434 0.950 . S
C442 C440 1.391 . S
C442 C443 1.400 . S
C443 C442 1.400 . S
C443 C444 1.398 . S
C443 C449 1.491 . S
C444 H435 0.950 . S
C444 C443 1.398 . S
C444 C445 1.391 . S
C445 H433 0.950 . S
C445 C441 1.393 . S
C445 C444 1.391 . S
C446 H436 0.950 . S
C446 C447 1.386 . S
C446 C448 1.391 . S
C447 C446 1.386 . S
C447 C451 1.393 . S
C448 H437 0.950 . S
C448 C446 1.391 . S
C448 C449 1.400 . S
C449 C443 1.491 . S
C449 C448 1.400 . S
C449 C450 1.398 . S
C450 H438 0.950 . S
C450 C449 1.398 . S
C450 C451 1.391 . S
C451 H439 0.950 . S
C451 C447 1.393 . S
C451 C450 1.391 . S
H452 C460 0.950 . S
H453 C465 0.950 . S
H454 C462 0.950 . S
H455 C464 0.950 . S
H456 C466 0.950 . S
H457 C468 0.950 . S
H458 C470 0.950 . S
H459 C471 0.950 . S
C460 H452 0.950 . S
C460 C461 1.386 . S
C460 C462 1.391 . S
C461 C460 1.386 . S
C461 C465 1.393 . S
C462 H454 0.950 . S
C462 C460 1.391 . S
C462 C463 1.400 . S
C463 C462 1.400 . S
C463 C464 1.398 . S
C463 C469 1.491 . S
C464 H455 0.950 . S
C464 C463 1.398 . S
C464 C465 1.391 . S
C465 H453 0.950 . S
C465 C461 1.393 . S
C465 C464 1.391 . S
C466 H456 0.950 . S
C466 C467 1.386 . S
C466 C468 1.391 . S
C467 C466 1.386 . S
C467 C471 1.393 . S
C468 H457 0.950 . S
C468 C466 1.391 . S
C468 C469 1.400 . S
C469 C463 1.491 . S
C469 C468 1.400 . S
C469 C470 1.398 . S
C470 H458 0.950 . S
C470 C469 1.398 . S
C470 C471 1.391 . S
C471 H459 0.950 . S
C471 C467 1.393 . S
C471 C470 1.391 . S
H472 C480 0.950 . S
H473 C485 0.950 . S
H474 C482 0.950 . S
H475 C484 0.950 . S
H476 C486 0.950 . S
H477 C488 0.950 . S
H478 C490 0.950 . S
H479 C491 0.950 . S
C480 H472 0.950 . S
C480 C481 1.386 . S
C480 C482 1.391 . S
C481 C480 1.386 . S
C481 C485 1.393 . S
C482 H474 0.950 . S
C482 C480 1.391 . S
C482 C483 1.400 . S
C483 C482 1.400 . S
C483 C484 1.398 . S
C483 C489 1.491 . S
C484 H475 0.950 . S
C484 C483 1.398 . S
C484 C485 1.391 . S
C485 H473 0.950 . S
C485 C481 1.393 . S
C485 C484 1.391 . S
C486 H476 0.950 . S
C486 C487 1.386 . S
C486 C488 1.391 . S
C487 C486 1.386 . S
C487 C491 1.393 . S
C488 H477 0.950 . S
C488 C486 1.391 . S
C488 C489 1.400 . S
C489 C483 1.491 . S
C489 C488 1.400 . S
C489 C490 1.398 . S
C490 H478 0.950 . S
C490 C489 1.398 . S
C490 C491 1.391 . S
C491 H479 0.950 . S
C491 C487 1.393 . S
C491 C490 1.391 . S
H492 C500 0.950 . S
H493 C505 0.950 1_655 S
H494 C502 0.950 . S
H495 C504 0.950 1_655 S
H496 C506 0.950 1_655 S
H497 C508 0.950 1_655 S
H498 C510 0.950 . S
H499 C511 0.950 . S
C500 H492 0.950 . S
C500 C501 1.386 . S
C500 C502 1.391 . S
C501 C500 1.386 . S
C501 C505 1.393 . S
C502 H494 0.950 . S
C502 C500 1.391 . S
C502 C503 1.400 . S
C503 C502 1.400 . S
C503 C504 1.398 . S
C503 C509 1.491 . S
C504 H495 0.950 1_455 S
C504 C503 1.398 . S
C504 C505 1.391 . S
C505 H493 0.950 1_455 S
C505 C501 1.393 . S
C505 C504 1.391 . S
C506 H496 0.950 1_455 S
C506 C507 1.386 . S
C506 C508 1.391 1_556 S
C507 C506 1.386 . S
C507 C511 1.393 . S
C508 H497 0.950 1_455 S
C508 C506 1.391 1_554 S
C508 C509 1.400 . S
C509 C503 1.491 . S
C509 C508 1.400 . S
C509 C510 1.398 . S
C510 H498 0.950 . S
C510 C509 1.398 . S
C510 C511 1.391 1_554 S
C511 H499 0.950 . S
C511 C507 1.393 . S
C511 C510 1.391 1_556 S
H512 C520 0.950 . S
H513 C525 0.950 . S
H514 C522 0.950 . S
H515 C524 0.950 . S
H516 C526 0.950 . S
H517 C528 0.950 . S
H518 C530 0.950 . S
H519 C531 0.950 . S
C520 H512 0.950 . S
C520 C521 1.386 . S
C520 C522 1.391 . S
C521 C520 1.386 . S
C521 C525 1.393 1_545 S
C522 H514 0.950 . S
C522 C520 1.391 . S
C522 C523 1.400 . S
C523 C522 1.400 . S
C523 C524 1.398 1_545 S
C523 C529 1.491 . S
C524 H515 0.950 . S
C524 C523 1.398 1_565 S
C524 C525 1.391 . S
C525 H513 0.950 . S
C525 C521 1.393 1_565 S
C525 C524 1.391 . S
C526 H516 0.950 . S
C526 C527 1.386 1_565 S
C526 C528 1.391 . S
C527 C526 1.386 1_545 S
C527 C531 1.393 . S
C528 H517 0.950 . S
C528 C526 1.391 . S
C528 C529 1.400 1_565 S
C529 C523 1.491 . S
C529 C528 1.400 1_545 S
C529 C530 1.398 . S
C530 H518 0.950 . S
C530 C529 1.398 . S
C530 C531 1.391 . S
C531 H519 0.950 . S
C531 C527 1.393 . S
C531 C530 1.391 . S
H532 C540 0.950 . S
H533 C545 0.950 . S
H534 C542 0.950 . S
H535 C544 0.950 . S
H536 C546 0.950 . S
H537 C548 0.950 . S
H538 C550 0.950 . S
H539 C551 0.950 . S
C540 H532 0.950 . S
C540 C541 1.386 . S
C540 C542 1.391 . S
C541 C540 1.386 . S
C541 C545 1.393 . S
C542 H534 0.950 . S
C542 C540 1.391 . S
C542 C543 1.400 . S
C543 C542 1.400 . S
C543 C544 1.398 . S
C543 C549 1.491 . S
C544 H535 0.950 . S
C544 C543 1.398 . S
C544 C545 1.391 . S
C545 H533 0.950 . S
C545 C541 1.393 . S
C545 C544 1.391 . S
C546 H536 0.950 . S
C546 C547 1.386 . S
C546 C548 1.391 . S
C547 C546 1.386 . S
C547 C551 1.393 . S
C548 H537 0.950 . S
C548 C546 1.391 . S
C548 C549 1.400 . S
C549 C543 1.491 . S
C549 C548 1.400 . S
C549 C550 1.398 . S
C550 H538 0.950 . S
C550 C549 1.398 . S
C550 C551 1.391 . S
C551 H539 0.950 . S
C551 C547 1.393 . S
C551 C550 1.391 . S
H552 C560 0.950 1_565 S
H553 C565 0.950 . S
H554 C562 0.950 1_565 S
H555 C564 0.950 . S
H556 C566 0.950 . S
H557 C568 0.950 . S
H558 C570 0.950 1_565 S
H559 C571 0.950 1_565 S
C560 H552 0.950 1_545 S
C560 C561 1.386 . S
C560 C562 1.391 . S
C561 C560 1.386 . S
C561 C565 1.393 . S
C562 H554 0.950 1_545 S
C562 C560 1.391 . S
C562 C563 1.400 . S
C563 C562 1.400 . S
C563 C564 1.398 . S
C563 C569 1.491 . S
C564 H555 0.950 . S
C564 C563 1.398 . S
C564 C565 1.391 . S
C565 H553 0.950 . S
C565 C561 1.393 . S
C565 C564 1.391 . S
C566 H556 0.950 . S
C566 C567 1.386 . S
C566 C568 1.391 . S
C567 C566 1.386 . S
C567 C571 1.393 . S
C568 H557 0.950 . S
C568 C566 1.391 . S
C568 C569 1.400 . S
C569 C563 1.491 . S
C569 C568 1.400 . S
C569 C570 1.398 . S
C570 H558 0.950 1_545 S
C570 C569 1.398 . S
C570 C571 1.391 . S
C571 H559 0.950 1_545 S
C571 C567 1.393 . S
C571 C570 1.391 . S
H572 C580 0.950 . S
H573 C585 0.950 . S
H574 C582 0.950 . S
H575 C584 0.950 . S
H576 C586 0.950 . S
H577 C588 0.950 . S
H578 C590 0.950 . S
H579 C591 0.950 . S
C580 H572 0.950 . S
C580 C581 1.386 . S
C580 C582 1.391 . S
C581 C580 1.386 . S
C581 C585 1.393 . S
C582 H574 0.950 . S
C582 C580 1.391 . S
C582 C583 1.400 . S
C583 C582 1.400 . S
C583 C584 1.398 . S
C583 C589 1.491 . S
C584 H575 0.950 . S
C584 C583 1.398 . S
C584 C585 1.391 . S
C585 H573 0.950 . S
C585 C581 1.393 . S
C585 C584 1.391 . S
C586 H576 0.950 . S
C586 C587 1.386 . S
C586 C588 1.391 1_554 S
C587 C586 1.386 . S
C587 C591 1.393 . S
C588 H577 0.950 . S
C588 C586 1.391 1_556 S
C588 C589 1.400 . S
C589 C583 1.491 . S
C589 C588 1.400 . S
C589 C590 1.398 . S
C590 H578 0.950 . S
C590 C589 1.398 . S
C590 C591 1.391 1_556 S
C591 H579 0.950 . S
C591 C587 1.393 . S
C591 C590 1.391 1_554 S
H592 C600 0.950 . S
H593 C605 0.950 . S
H594 C602 0.950 . S
H595 C604 0.950 . S
H596 C606 0.950 . S
H597 C608 0.950 . S
H598 C610 0.950 . S
H599 C611 0.950 . S
C600 H592 0.950 . S
C600 C601 1.386 1_655 S
C600 C602 1.391 . S
C601 C600 1.386 1_455 S
C601 C605 1.393 . S
C602 H594 0.950 . S
C602 C600 1.391 . S
C602 C603 1.400 1_655 S
C603 C602 1.400 1_455 S
C603 C604 1.398 . S
C603 C609 1.491 . S
C604 H595 0.950 . S
C604 C603 1.398 . S
C604 C605 1.391 . S
C605 H593 0.950 . S
C605 C601 1.393 . S
C605 C604 1.391 . S
C606 H596 0.950 . S
C606 C607 1.386 . S
C606 C608 1.391 . S
C607 C606 1.386 . S
C607 C611 1.393 1_455 S
C608 H597 0.950 . S
C608 C606 1.391 . S
C608 C609 1.400 . S
C609 C603 1.491 . S
C609 C608 1.400 . S
C609 C610 1.398 1_455 S
C610 H598 0.950 . S
C610 C609 1.398 1_655 S
C610 C611 1.391 . S
C611 H599 0.950 . S
C611 C607 1.393 1_655 S
C611 C610 1.391 . S
C261 C2 1.054 . S
C267 C243 1.016 . S
C281 C21 0.998 . S
C287 C179 1.014 . S
C301 C42 1.075 . S
C307 C211 1.041 . S
C321 C1 1.004 . S
C327 C237 1.020 . S
C347 C173 1.026 . S
C341 C22 1.034 . S
C367 C205 0.992 . S
C361 C41 0.999 . S
C381 C38 1.869 . S
C387 C115 1.838 . S
C401 C59 1.911 . S
C407 C147 1.859 . S
C421 C18 1.851 . S
C427 C77 1.809 . S
C447 C109 1.876 . S
C441 C39 1.919 . S
C467 C141 1.847 . S
C461 C58 1.866 . S
C481 C19 1.942 . S
C487 C83 1.887 . S
C507 C153 1.530 . S
C501 C9 1.521 . S
C521 C29 1.501 . S
C527 C89 1.553 . S
C541 C49 1.496 . S
C547 C121 1.524 . S
C567 C217 1.382 . S
C561 C28 1.379 . S
C587 C249 1.356 . S
C581 C48 1.352 . S
C601 C8 1.353 . S
C607 C185 1.368 . S
