# Generated by pormake.
# Topology eea, (3,6)-cn, num edge types: 1
# Building blocks:
#     Node 0, Type 0, BuildingBlock: KAKCAD_clean_linker_0, # of connection points: 3
#     Node 1, Type 0, BuildingBlock: KAKCAD_clean_linker_0, # of connection points: 3
#     Node 2, Type 0, BuildingBlock: KAKCAD_clean_linker_0, # of connection points: 3
#     Node 3, Type 0, BuildingBlock: KAKCAD_clean_linker_0, # of connection points: 3
#     Node 4, Type 0, BuildingBlock: KAKCAD_clean_linker_0, # of connection points: 3
#     Node 5, Type 0, BuildingBlock: KAKCAD_clean_linker_0, # of connection points: 3
#     Node 6, Type 0, BuildingBlock: KAKCAD_clean_linker_0, # of connection points: 3
#     Node 7, Type 0, BuildingBlock: KAKCAD_clean_linker_0, # of connection points: 3
#     Node 8, Type 0, BuildingBlock: KAKCAD_clean_linker_0, # of connection points: 3
#     Node 9, Type 0, BuildingBlock: KAKCAD_clean_linker_0, # of connection points: 3
#     Node 10, Type 0, BuildingBlock: KAKCAD_clean_linker_0, # of connection points: 3
#     Node 11, Type 0, BuildingBlock: KAKCAD_clean_linker_0, # of connection points: 3
#     Node 12, Type 0, BuildingBlock: KAKCAD_clean_linker_0, # of connection points: 3
#     Node 13, Type 0, BuildingBlock: KAKCAD_clean_linker_0, # of connection points: 3
#     Node 14, Type 0, BuildingBlock: KAKCAD_clean_linker_0, # of connection points: 3
#     Node 15, Type 0, BuildingBlock: KAKCAD_clean_linker_0, # of connection points: 3
#     Node 16, Type 0, BuildingBlock: KAKCAD_clean_linker_0, # of connection points: 3
#     Node 17, Type 0, BuildingBlock: KAKCAD_clean_linker_0, # of connection points: 3
#     Node 18, Type 1, BuildingBlock: NUHQIS_clean_sbu_0, # of connection points: 6
#     Node 19, Type 1, BuildingBlock: NUHQIS_clean_sbu_0, # of connection points: 6
#     Node 20, Type 1, BuildingBlock: NUHQIS_clean_sbu_0, # of connection points: 6
#     Node 21, Type 1, BuildingBlock: NUHQIS_clean_sbu_0, # of connection points: 6
#     Node 22, Type 1, BuildingBlock: NUHQIS_clean_sbu_0, # of connection points: 6
#     Node 23, Type 1, BuildingBlock: NUHQIS_clean_sbu_0, # of connection points: 6
#     Node 24, Type 1, BuildingBlock: NUHQIS_clean_sbu_0, # of connection points: 6
#     Node 25, Type 1, BuildingBlock: NUHQIS_clean_sbu_0, # of connection points: 6
#     Node 26, Type 1, BuildingBlock: NUHQIS_clean_sbu_0, # of connection points: 6
#     Edge 27, Type (0, 1), BuildingBlock: EZIPEK_clean_linker_0, # of connection points: 2
#     Edge 28, Type (0, 1), BuildingBlock: EZIPEK_clean_linker_0, # of connection points: 2
#     Edge 29, Type (0, 1), BuildingBlock: EZIPEK_clean_linker_0, # of connection points: 2
#     Edge 30, Type (0, 1), BuildingBlock: EZIPEK_clean_linker_0, # of connection points: 2
#     Edge 31, Type (0, 1), BuildingBlock: EZIPEK_clean_linker_0, # of connection points: 2
#     Edge 32, Type (0, 1), BuildingBlock: EZIPEK_clean_linker_0, # of connection points: 2
#     Edge 33, Type (0, 1), BuildingBlock: EZIPEK_clean_linker_0, # of connection points: 2
#     Edge 34, Type (0, 1), BuildingBlock: EZIPEK_clean_linker_0, # of connection points: 2
#     Edge 35, Type (0, 1), BuildingBlock: EZIPEK_clean_linker_0, # of connection points: 2
#     Edge 36, Type (0, 1), BuildingBlock: EZIPEK_clean_linker_0, # of connection points: 2
#     Edge 37, Type (0, 1), BuildingBlock: EZIPEK_clean_linker_0, # of connection points: 2
#     Edge 38, Type (0, 1), BuildingBlock: EZIPEK_clean_linker_0, # of connection points: 2
#     Edge 39, Type (0, 1), BuildingBlock: EZIPEK_clean_linker_0, # of connection points: 2
#     Edge 40, Type (0, 1), BuildingBlock: EZIPEK_clean_linker_0, # of connection points: 2
#     Edge 41, Type (0, 1), BuildingBlock: EZIPEK_clean_linker_0, # of connection points: 2
#     Edge 42, Type (0, 1), BuildingBlock: EZIPEK_clean_linker_0, # of connection points: 2
#     Edge 43, Type (0, 1), BuildingBlock: EZIPEK_clean_linker_0, # of connection points: 2
#     Edge 44, Type (0, 1), BuildingBlock: EZIPEK_clean_linker_0, # of connection points: 2
#     Edge 45, Type (0, 1), BuildingBlock: EZIPEK_clean_linker_0, # of connection points: 2
#     Edge 46, Type (0, 1), BuildingBlock: EZIPEK_clean_linker_0, # of connection points: 2
#     Edge 47, Type (0, 1), BuildingBlock: EZIPEK_clean_linker_0, # of connection points: 2
#     Edge 48, Type (0, 1), BuildingBlock: EZIPEK_clean_linker_0, # of connection points: 2
#     Edge 49, Type (0, 1), BuildingBlock: EZIPEK_clean_linker_0, # of connection points: 2
#     Edge 50, Type (0, 1), BuildingBlock: EZIPEK_clean_linker_0, # of connection points: 2
#     Edge 51, Type (0, 1), BuildingBlock: EZIPEK_clean_linker_0, # of connection points: 2
#     Edge 52, Type (0, 1), BuildingBlock: EZIPEK_clean_linker_0, # of connection points: 2
#     Edge 53, Type (0, 1), BuildingBlock: EZIPEK_clean_linker_0, # of connection points: 2
#     Edge 54, Type (0, 1), BuildingBlock: EZIPEK_clean_linker_0, # of connection points: 2
#     Edge 55, Type (0, 1), BuildingBlock: EZIPEK_clean_linker_0, # of connection points: 2
#     Edge 56, Type (0, 1), BuildingBlock: EZIPEK_clean_linker_0, # of connection points: 2
#     Edge 57, Type (0, 1), BuildingBlock: EZIPEK_clean_linker_0, # of connection points: 2
#     Edge 58, Type (0, 1), BuildingBlock: EZIPEK_clean_linker_0, # of connection points: 2
#     Edge 59, Type (0, 1), BuildingBlock: EZIPEK_clean_linker_0, # of connection points: 2
#     Edge 60, Type (0, 1), BuildingBlock: EZIPEK_clean_linker_0, # of connection points: 2
#     Edge 61, Type (0, 1), BuildingBlock: EZIPEK_clean_linker_0, # of connection points: 2
#     Edge 62, Type (0, 1), BuildingBlock: EZIPEK_clean_linker_0, # of connection points: 2
#     Edge 63, Type (0, 1), BuildingBlock: EZIPEK_clean_linker_0, # of connection points: 2
#     Edge 64, Type (0, 1), BuildingBlock: EZIPEK_clean_linker_0, # of connection points: 2
#     Edge 65, Type (0, 1), BuildingBlock: EZIPEK_clean_linker_0, # of connection points: 2
#     Edge 66, Type (0, 1), BuildingBlock: EZIPEK_clean_linker_0, # of connection points: 2
#     Edge 67, Type (0, 1), BuildingBlock: EZIPEK_clean_linker_0, # of connection points: 2
#     Edge 68, Type (0, 1), BuildingBlock: EZIPEK_clean_linker_0, # of connection points: 2
#     Edge 69, Type (0, 1), BuildingBlock: EZIPEK_clean_linker_0, # of connection points: 2
#     Edge 70, Type (0, 1), BuildingBlock: EZIPEK_clean_linker_0, # of connection points: 2
#     Edge 71, Type (0, 1), BuildingBlock: EZIPEK_clean_linker_0, # of connection points: 2
#     Edge 72, Type (0, 1), BuildingBlock: EZIPEK_clean_linker_0, # of connection points: 2
#     Edge 73, Type (0, 1), BuildingBlock: EZIPEK_clean_linker_0, # of connection points: 2
#     Edge 74, Type (0, 1), BuildingBlock: EZIPEK_clean_linker_0, # of connection points: 2
#     Edge 75, Type (0, 1), BuildingBlock: EZIPEK_clean_linker_0, # of connection points: 2
#     Edge 76, Type (0, 1), BuildingBlock: EZIPEK_clean_linker_0, # of connection points: 2
#     Edge 77, Type (0, 1), BuildingBlock: EZIPEK_clean_linker_0, # of connection points: 2
#     Edge 78, Type (0, 1), BuildingBlock: EZIPEK_clean_linker_0, # of connection points: 2
#     Edge 79, Type (0, 1), BuildingBlock: EZIPEK_clean_linker_0, # of connection points: 2
#     Edge 80, Type (0, 1), BuildingBlock: EZIPEK_clean_linker_0, # of connection points: 2
# Relax obj value: 0.034
# Max RMSD: 0.131
# Mean RMSD: 0.087
data_MOF--net-eea--node1-NUHQIS_clean_sbu_0--node2-KAKCAD_clean_linker_0--edge1-EZIPEK_clean_linker_0
_symmetry_space_group_name_H-M    P1
_symmetry_Int_Tables_number       1
_symmetry_cell_setting            triclinic
loop_
_symmetry_equiv_pos_as_xyz
'x, y, z'
_cell_length_a     49.03857
_cell_length_b     48.83513
_cell_length_c     73.086546
_cell_angle_alpha  93.41203
_cell_angle_beta   93.240221
_cell_angle_gamma 119.91089
loop_
_atom_site_label
_atom_site_type_symbol
_atom_site_fract_x
_atom_site_fract_y
_atom_site_fract_z
_atom_type_partial_charge
C0 C 0.29991 0.19094 0.49471 0.0
C1 C 0.32109 0.18373 0.50382 0.0
C2 C 0.29274 0.18409 0.47568 0.0
C3 C 0.30701 0.17031 0.46533 0.0
C4 C 0.32872 0.16365 0.47454 0.0
C5 C 0.33564 0.17024 0.49366 0.0
C6 C 0.29807 0.16176 0.44516 0.0
C7 C 0.2917 0.18131 0.43445 0.0
C8 C 0.27946 0.17164 0.41589 0.0
C9 C 0.2748 0.14266 0.40787 0.0
C10 C 0.28086 0.12284 0.41833 0.0
C11 C 0.2929 0.1326 0.43687 0.0
C12 C 0.271 0.09047 0.41028 0.0
C13 C 0.23997 0.07092 0.40198 0.0
C14 C 0.29209 0.07889 0.41081 0.0
C15 C 0.28231 0.04826 0.40284 0.0
C16 C 0.25121 0.02884 0.39465 0.0
C17 C 0.26828 0.18996 0.4055 0.0
C18 C 0.28506 0.22336 0.40765 0.0
C19 C 0.23938 0.17393 0.39423 0.0
C20 C 0.22718 0.19085 0.38572 0.0
C21 C 0.2434 0.22404 0.38851 0.0
C22 C 0.27263 0.24027 0.39927 0.0
C23 C 0.2301 0.04027 0.39431 0.0
H24 H 0.28843 0.20128 0.50241 0.0
H25 H 0.27537 0.18887 0.46917 0.0
H26 H 0.34032 0.15331 0.46697 0.0
H27 H 0.35215 0.16466 0.50056 0.0
H28 H 0.29499 0.2035 0.4408 0.0
H29 H 0.29623 0.11654 0.44509 0.0
H30 H 0.26551 0.13495 0.39353 0.0
H31 H 0.22323 0.07928 0.40161 0.0
H32 H 0.31611 0.09365 0.41714 0.0
H33 H 0.29878 0.03958 0.40318 0.0
H34 H 0.30753 0.23639 0.41604 0.0
H35 H 0.2255 0.14824 0.39254 0.0
H36 H 0.20602 0.02544 0.38807 0.0
H37 H 0.28541 0.26597 0.4015 0.0
H38 H 0.20451 0.17805 0.3775 0.0
C39 C 0.89255 0.19335 0.49407 0.0
C40 C 0.88221 0.17052 0.50673 0.0
C41 C 0.89825 0.18596 0.4764 0.0
C42 C 0.8936 0.15561 0.47119 0.0
C43 C 0.88466 0.13341 0.48429 0.0
C44 C 0.87892 0.14078 0.50187 0.0
C45 C 0.89551 0.14602 0.45183 0.0
C46 C 0.92015 0.16628 0.44172 0.0
C47 C 0.92123 0.15685 0.4233 0.0
C48 C 0.89733 0.12693 0.4151 0.0
C49 C 0.87267 0.10649 0.42502 0.0
C50 C 0.87189 0.11627 0.4433 0.0
C51 C 0.84788 0.07469 0.41642 0.0
C52 C 0.8339 0.07089 0.39842 0.0
C53 C 0.83808 0.04787 0.4262 0.0
C54 C 0.81493 0.01785 0.4181 0.0
C55 C 0.80113 0.01423 0.40015 0.0
C56 C 0.94764 0.17755 0.41263 0.0
C57 C 0.97914 0.19282 0.4206 0.0
C58 C 0.9416 0.18089 0.39408 0.0
C59 C 0.9665 0.19858 0.38363 0.0
C60 C 0.99785 0.21319 0.39154 0.0
C61 C 0.00405 0.21043 0.4101 0.0
C62 C 0.81061 0.04086 0.39036 0.0
H63 H 0.8951 0.21642 0.49765 0.0
H64 H 0.90491 0.20346 0.46658 0.0
H65 H 0.8814 0.11003 0.4808 0.0
H66 H 0.87106 0.12297 0.51154 0.0
H67 H 0.93847 0.18928 0.44818 0.0
H68 H 0.85233 0.10086 0.45081 0.0
H69 H 0.89846 0.11908 0.40112 0.0
H70 H 0.84077 0.09118 0.39064 0.0
H71 H 0.84869 0.05003 0.44001 0.0
H72 H 0.80791 0.99741 0.42575 0.0
H73 H 0.98456 0.19041 0.43478 0.0
H74 H 0.91758 0.16968 0.38762 0.0
H75 H 0.80014 0.03832 0.37646 0.0
H76 H 0.02818 0.22161 0.41639 0.0
H77 H 0.96138 0.20062 0.36932 0.0
C78 C 0.89921 0.73603 0.50188 0.0
C79 C 0.86804 0.71386 0.50486 0.0
C80 C 0.90592 0.74902 0.48501 0.0
C81 C 0.88158 0.73989 0.47074 0.0
C82 C 0.8505 0.71701 0.4737 0.0
C83 C 0.8438 0.70431 0.4906 0.0
C84 C 0.88818 0.75487 0.45309 0.0
C85 C 0.91592 0.76204 0.44477 0.0
C86 C 0.92219 0.77652 0.42818 0.0
C87 C 0.90002 0.78358 0.41996 0.0
C88 C 0.87192 0.77599 0.42783 0.0
C89 C 0.86649 0.76209 0.44448 0.0
C90 C 0.84789 0.78204 0.41856 0.0
C91 C 0.85698 0.81053 0.41059 0.0
C92 C 0.81552 0.75916 0.41759 0.0
C93 C 0.7928 0.76469 0.40898 0.0
C94 C 0.80198 0.79318 0.40116 0.0
C95 C 0.9515 0.78388 0.41924 0.0
C96 C 0.98033 0.79365 0.42986 0.0
C97 C 0.95095 0.7815 0.39989 0.0
C98 C 0.97843 0.78928 0.39145 0.0
C99 C 0.00704 0.79898 0.40209 0.0
C100 C 0.00773 0.80085 0.42137 0.0
C101 C 0.83419 0.81606 0.40198 0.0
H102 H 0.91824 0.74362 0.51274 0.0
H103 H 0.93004 0.76676 0.48331 0.0
H104 H 0.83124 0.70888 0.46295 0.0
H105 H 0.81964 0.68705 0.49259 0.0
H106 H 0.93218 0.75552 0.45097 0.0
H107 H 0.84545 0.75744 0.45095 0.0
H108 H 0.90442 0.79482 0.40727 0.0
H109 H 0.88165 0.82876 0.41125 0.0
H110 H 0.80776 0.73679 0.42335 0.0
H111 H 0.76801 0.74679 0.40845 0.0
H112 H 0.98192 0.79622 0.44476 0.0
H113 H 0.92921 0.77331 0.39116 0.0
H114 H 0.84164 0.83824 0.39605 0.0
H115 H 0.02958 0.80822 0.42982 0.0
H116 H 0.97732 0.78744 0.37655 0.0
C117 C 0.14408 0.26841 0.52967 0.0
C118 C 0.13621 0.29157 0.52585 0.0
C119 C 0.13862 0.2555 0.54658 0.0
C120 C 0.12531 0.26558 0.56015 0.0
C121 C 0.11707 0.28855 0.55614 0.0
C122 C 0.12243 0.30137 0.53916 0.0
C123 C 0.12053 0.2524 0.57842 0.0
C124 C 0.14324 0.24641 0.58699 0.0
C125 C 0.13865 0.2329 0.6038 0.0
C126 C 0.11113 0.22567 0.61222 0.0
C127 C 0.08831 0.23187 0.60416 0.0
C128 C 0.09323 0.24532 0.58726 0.0
C129 C 0.05945 0.22413 0.61354 0.0
C130 C 0.04304 0.19521 0.62136 0.0
C131 C 0.04863 0.24589 0.61527 0.0
C132 C 0.02229 0.23904 0.62481 0.0
C133 C 0.00616 0.21021 0.63263 0.0
C134 C 0.16247 0.22609 0.61258 0.0
C135 C 0.15284 0.19672 0.61957 0.0
C136 C 0.19491 0.24888 0.61414 0.0
C137 C 0.21717 0.24249 0.62265 0.0
C138 C 0.20739 0.2131 0.62952 0.0
C139 C 0.17512 0.19024 0.62788 0.0
C140 C 0.01659 0.18828 0.63074 0.0
H141 H 0.15457 0.2604 0.51955 0.0
H142 H 0.1447 0.23743 0.54897 0.0
H143 H 0.10705 0.29711 0.56627 0.0
H144 H 0.11618 0.31923 0.53646 0.0
H145 H 0.16454 0.25207 0.58053 0.0
H146 H 0.07531 0.24934 0.58074 0.0
H147 H 0.10783 0.21588 0.62538 0.0
H148 H 0.05054 0.1778 0.6201 0.0
H149 H 0.06088 0.26846 0.60955 0.0
H150 H 0.01442 0.25617 0.62606 0.0
H151 H 0.12806 0.17861 0.61841 0.0
H152 H 0.20301 0.2718 0.60903 0.0
H153 H 0.00425 0.1658 0.63656 0.0
H154 H 0.1672 0.16742 0.63309 0.0
H155 H 0.24202 0.26039 0.62382 0.0
C156 C 0.66052 0.80494 0.542 0.0
C157 C 0.67223 0.8284 0.52975 0.0
C158 C 0.67335 0.81215 0.56042 0.0
C159 C 0.69786 0.84299 0.56682 0.0
C160 C 0.70943 0.86633 0.55441 0.0
C161 C 0.69672 0.85909 0.53606 0.0
C162 C 0.71183 0.85109 0.58627 0.0
C163 C 0.71994 0.83096 0.59506 0.0
C164 C 0.73603 0.84025 0.61284 0.0
C165 C 0.74356 0.86967 0.6219 0.0
C166 C 0.73516 0.88984 0.61344 0.0
C167 C 0.71896 0.88014 0.59571 0.0
C168 C 0.74484 0.92171 0.62272 0.0
C169 C 0.74449 0.9262 0.64189 0.0
C170 C 0.7557 0.94817 0.61252 0.0
C171 C 0.76628 0.97839 0.6213 0.0
C172 C 0.76656 0.98278 0.64044 0.0
C173 C 0.74661 0.82013 0.62163 0.0
C174 C 0.72576 0.78741 0.62189 0.0
C175 C 0.77785 0.83367 0.62978 0.0
C176 C 0.7881 0.81483 0.63793 0.0
C177 C 0.76723 0.78225 0.63818 0.0
C178 C 0.73597 0.76861 0.63021 0.0
C179 C 0.75548 0.95653 0.65069 0.0
H180 H 0.64153 0.78113 0.53728 0.0
H181 H 0.66388 0.79377 0.56969 0.0
H182 H 0.72865 0.89014 0.55884 0.0
H183 H 0.70606 0.8774 0.52673 0.0
H184 H 0.71518 0.80882 0.58775 0.0
H185 H 0.71195 0.8953 0.58914 0.0
H186 H 0.75659 0.8771 0.63544 0.0
H187 H 0.73584 0.90631 0.65011 0.0
H188 H 0.75686 0.94573 0.5978 0.0
H189 H 0.77492 0.9985 0.61323 0.0
H190 H 0.70154 0.77647 0.61579 0.0
H191 H 0.79451 0.85875 0.62958 0.0
H192 H 0.75554 0.95959 0.6655 0.0
H193 H 0.71968 0.7434 0.63025 0.0
H194 H 0.81236 0.82558 0.64393 0.0
C195 C 0.09623 0.81488 0.52651 0.0
C196 C 0.1262 0.82028 0.5228 0.0
C197 C 0.09102 0.82214 0.54433 0.0
C198 C 0.1158 0.83512 0.55863 0.0
C199 C 0.14534 0.83906 0.55496 0.0
C200 C 0.15047 0.83168 0.5372 0.0
C201 C 0.11185 0.84728 0.5768 0.0
C202 C 0.08477 0.82946 0.58593 0.0
C203 C 0.08081 0.84187 0.60286 0.0
C204 C 0.10394 0.87277 0.61021 0.0
C205 C 0.13115 0.89048 0.60137 0.0
C206 C 0.13511 0.87761 0.5848 0.0
C207 C 0.15559 0.92253 0.60948 0.0
C208 C 0.14793 0.9464 0.6127 0.0
C209 C 0.18661 0.92926 0.61423 0.0
C210 C 0.20952 0.95929 0.62249 0.0
C211 C 0.20187 0.98319 0.62572 0.0
C212 C 0.05301 0.82269 0.61311 0.0
C213 C 0.02277 0.80264 0.60376 0.0
C214 C 0.05657 0.82451 0.6325 0.0
C215 C 0.03058 0.80712 0.64226 0.0
C216 C 0.0006 0.78719 0.63286 0.0
C217 C 0.99682 0.78495 0.61356 0.0
C218 C 0.17102 0.97665 0.62056 0.0
H219 H 0.0773 0.80617 0.51548 0.0
H220 H 0.06811 0.81908 0.54672 0.0
H221 H 0.16475 0.84866 0.56575 0.0
H222 H 0.17372 0.83594 0.53455 0.0
H223 H 0.06728 0.80569 0.58006 0.0
H224 H 0.15593 0.89177 0.57784 0.0
H225 H 0.101 0.88314 0.62294 0.0
H226 H 0.12415 0.94166 0.60903 0.0
H227 H 0.1929 0.91108 0.61189 0.0
H228 H 0.23317 0.96389 0.62644 0.0
H229 H 0.01904 0.80092 0.58889 0.0
H230 H 0.07954 0.83914 0.64017 0.0
H231 H 0.16473 0.99483 0.62292 0.0
H232 H 0.97374 0.76965 0.60611 0.0
H233 H 0.03389 0.80891 0.65716 0.0
C234 C 0.97063 0.52736 0.82596 0.0
C235 C 0.99032 0.51843 0.83517 0.0
C236 C 0.96344 0.52057 0.80696 0.0
C237 C 0.97629 0.50519 0.79669 0.0
C238 C 0.99645 0.49664 0.80598 0.0
C239 C 0.00333 0.50314 0.82512 0.0
C240 C 0.96731 0.49708 0.77651 0.0
C241 C 0.96233 0.51772 0.76607 0.0
C242 C 0.94846 0.50826 0.74782 0.0
C243 C 0.94143 0.47854 0.73957 0.0
C244 C 0.94742 0.45811 0.74952 0.0
C245 C 0.96043 0.46748 0.76797 0.0
C246 C 0.93719 0.42579 0.74115 0.0
C247 C 0.90615 0.40647 0.7328 0.0
C248 C 0.95805 0.41393 0.74162 0.0
C249 C 0.94801 0.3832 0.73375 0.0
C250 C 0.91686 0.36391 0.72564 0.0
C251 C 0.93811 0.52785 0.73816 0.0
C252 C 0.92368 0.54224 0.74775 0.0
C253 C 0.94079 0.53086 0.71921 0.0
C254 C 0.9289 0.5476 0.71005 0.0
C255 C 0.91433 0.56157 0.71975 0.0
C256 C 0.91201 0.55905 0.73863 0.0
C257 C 0.896 0.37567 0.7252 0.0
H258 H 0.96033 0.53908 0.83357 0.0
H259 H 0.94717 0.52677 0.80041 0.0
H260 H 0.00689 0.48497 0.79848 0.0
H261 H 0.01868 0.4962 0.8321 0.0
H262 H 0.96832 0.54094 0.77237 0.0
H263 H 0.96325 0.45086 0.77592 0.0
H264 H 0.93013 0.47068 0.72559 0.0
H265 H 0.88956 0.41501 0.73246 0.0
H266 H 0.9821 0.4285 0.74796 0.0
H267 H 0.96429 0.37429 0.73419 0.0
H268 H 0.92059 0.53979 0.76224 0.0
H269 H 0.95195 0.5202 0.7115 0.0
H270 H 0.87186 0.36092 0.71903 0.0
H271 H 0.90067 0.56966 0.74622 0.0
H272 H 0.93087 0.54953 0.69544 0.0
C273 C 0.52037 0.50211 0.8224 0.0
C274 C 0.54507 0.51158 0.83632 0.0
C275 C 0.52392 0.4946 0.80428 0.0
C276 C 0.55231 0.49655 0.79979 0.0
C277 C 0.57754 0.50743 0.81366 0.0
C278 C 0.57388 0.51476 0.83183 0.0
C279 C 0.5546 0.4848 0.78106 0.0
C280 C 0.58146 0.50213 0.77172 0.0
C281 C 0.58395 0.49009 0.7543 0.0
C282 C 0.55928 0.46038 0.74636 0.0
C283 C 0.53236 0.44267 0.75555 0.0
C284 C 0.53015 0.45524 0.77282 0.0
C285 C 0.50715 0.41058 0.74743 0.0
C286 C 0.49745 0.40453 0.72841 0.0
C287 C 0.49321 0.38548 0.75859 0.0
C288 C 0.47045 0.355 0.75088 0.0
C289 C 0.46137 0.34902 0.73188 0.0
C290 C 0.61243 0.50816 0.74445 0.0
C291 C 0.62569 0.54104 0.74363 0.0
C292 C 0.62633 0.49249 0.73556 0.0
C293 C 0.65281 0.5093 0.72604 0.0
C294 C 0.66585 0.54202 0.72523 0.0
C295 C 0.65217 0.55782 0.73406 0.0
C296 C 0.47481 0.37398 0.7207 0.0
H297 H 0.49798 0.49952 0.82568 0.0
H298 H 0.50421 0.48658 0.79384 0.0
H299 H 0.59957 0.5089 0.81062 0.0
H300 H 0.59311 0.52191 0.84249 0.0
H301 H 0.60053 0.52481 0.77809 0.0
H302 H 0.5095 0.44172 0.78003 0.0
H303 H 0.56124 0.45084 0.73305 0.0
H304 H 0.50738 0.4234 0.71948 0.0
H305 H 0.50044 0.38917 0.77322 0.0
H306 H 0.46036 0.33591 0.75967 0.0
H307 H 0.61535 0.55369 0.75017 0.0
H308 H 0.61694 0.46728 0.73615 0.0
H309 H 0.46798 0.36971 0.706 0.0
H310 H 0.66209 0.58314 0.73359 0.0
H311 H 0.66329 0.49685 0.7194 0.0
C312 C 0.56908 0.07407 0.83713 0.0
C313 C 0.53855 0.04984 0.83975 0.0
C314 C 0.57542 0.08686 0.82017 0.0
C315 C 0.55131 0.07567 0.80554 0.0
C316 C 0.52093 0.05085 0.80816 0.0
C317 C 0.51464 0.0381 0.82509 0.0
C318 C 0.55736 0.09074 0.78791 0.0
C319 C 0.5856 0.09942 0.77976 0.0
C320 C 0.59164 0.11445 0.76333 0.0
C321 C 0.56908 0.12127 0.75541 0.0
C322 C 0.54052 0.11196 0.76305 0.0
C323 C 0.53479 0.09673 0.77922 0.0
C324 C 0.51625 0.11747 0.75386 0.0
C325 C 0.52285 0.14841 0.75142 0.0
C326 C 0.48643 0.09164 0.74723 0.0
C327 C 0.4637 0.09663 0.73805 0.0
C328 C 0.47014 0.1276 0.73575 0.0
C329 C 0.6208 0.12217 0.75407 0.0
C330 C 0.64982 0.13143 0.76433 0.0
C331 C 0.61972 0.1201 0.73469 0.0
C332 C 0.64678 0.12753 0.72588 0.0
C333 C 0.67554 0.13658 0.73614 0.0
C334 C 0.67684 0.13832 0.75545 0.0
C335 C 0.49984 0.15347 0.74265 0.0
H336 H 0.58783 0.08339 0.8483 0.0
H337 H 0.59897 0.10611 0.8187 0.0
H338 H 0.50194 0.04131 0.79713 0.0
H339 H 0.49099 0.01929 0.82684 0.0
H340 H 0.60237 0.09353 0.78594 0.0
H341 H 0.51295 0.0903 0.78527 0.0
H342 H 0.57338 0.13347 0.74306 0.0
H343 H 0.5457 0.16865 0.75646 0.0
H344 H 0.48093 0.06757 0.74889 0.0
H345 H 0.44102 0.07635 0.7328 0.0
H346 H 0.65184 0.13372 0.77924 0.0
H347 H 0.59782 0.11228 0.7262 0.0
H348 H 0.50527 0.17754 0.74106 0.0
H349 H 0.69882 0.14521 0.76363 0.0
H350 H 0.6452 0.12581 0.71097 0.0
C351 C 0.80495 0.60073 0.86023 0.0
C352 C 0.79307 0.62097 0.85674 0.0
C353 C 0.8009 0.58707 0.87693 0.0
C354 C 0.78514 0.59361 0.89059 0.0
C355 C 0.77332 0.61397 0.88694 0.0
C356 C 0.7771 0.62733 0.87019 0.0
C357 C 0.78138 0.57967 0.90864 0.0
C358 C 0.80562 0.57587 0.91717 0.0
C359 C 0.80252 0.56303 0.93419 0.0
C360 C 0.77486 0.55456 0.94286 0.0
C361 C 0.7503 0.55826 0.93478 0.0
C362 C 0.75372 0.57051 0.91754 0.0
C363 C 0.72137 0.54963 0.94452 0.0
C364 C 0.70936 0.52401 0.95547 0.0
C365 C 0.70599 0.56744 0.94342 0.0
C366 C 0.67957 0.55994 0.95302 0.0
C367 C 0.66817 0.53478 0.96417 0.0
C368 C 0.82791 0.55811 0.94291 0.0
C369 C 0.84482 0.54806 0.93209 0.0
C370 C 0.83469 0.56231 0.96221 0.0
C371 C 0.85682 0.55557 0.97046 0.0
C372 C 0.87318 0.54505 0.95963 0.0
C373 C 0.86738 0.54184 0.94037 0.0
C374 C 0.68335 0.51694 0.96533 0.0
H375 H 0.81724 0.59543 0.84999 0.0
H376 H 0.8099 0.57115 0.87905 0.0
H377 H 0.76156 0.6201 0.89715 0.0
H378 H 0.76784 0.64297 0.86777 0.0
H379 H 0.82735 0.58369 0.91077 0.0
H380 H 0.73452 0.57234 0.91084 0.0
H381 H 0.77246 0.545 0.95603 0.0
H382 H 0.71989 0.50917 0.95641 0.0
H383 H 0.71467 0.58762 0.93543 0.0
H384 H 0.66821 0.57402 0.95192 0.0
H385 H 0.84009 0.54418 0.91724 0.0
H386 H 0.82284 0.57074 0.97103 0.0
H387 H 0.67487 0.49733 0.97377 0.0
H388 H 0.87979 0.53378 0.93176 0.0
H389 H 0.86109 0.55841 0.98534 0.0
C390 C 0.31962 0.12641 0.87463 0.0
C391 C 0.32828 0.15109 0.86328 0.0
C392 C 0.33072 0.13331 0.89334 0.0
C393 C 0.35034 0.16498 0.90092 0.0
C394 C 0.35859 0.18954 0.88945 0.0
C395 C 0.34765 0.18264 0.87081 0.0
C396 C 0.3635 0.17279 0.92051 0.0
C397 C 0.37711 0.1563 0.92833 0.0
C398 C 0.39314 0.16626 0.94612 0.0
C399 C 0.39578 0.19326 0.9559 0.0
C400 C 0.38234 0.21017 0.94832 0.0
C401 C 0.36518 0.19884 0.93084 0.0
C402 C 0.38918 0.24128 0.95774 0.0
C403 C 0.39633 0.24809 0.97702 0.0
C404 C 0.39169 0.26569 0.94731 0.0
C405 C 0.40233 0.2961 0.95576 0.0
C406 C 0.4121 0.30329 0.97467 0.0
C407 C 0.4082 0.14927 0.95431 0.0
C408 C 0.39307 0.11594 0.95172 0.0
C409 C 0.43752 0.16623 0.96514 0.0
C410 C 0.45085 0.15022 0.97363 0.0
C411 C 0.43552 0.11702 0.97111 0.0
C412 C 0.40673 0.09998 0.95995 0.0
C413 C 0.40841 0.27894 0.98532 0.0
H414 H 0.30458 0.10192 0.86895 0.0
H415 H 0.32393 0.11396 0.90188 0.0
H416 H 0.37414 0.21413 0.8948 0.0
H417 H 0.35458 0.2019 0.86218 0.0
H418 H 0.37654 0.13669 0.92022 0.0
H419 H 0.35366 0.21071 0.92491 0.0
H420 H 0.40913 0.2015 0.9693 0.0
H421 H 0.39361 0.22992 0.98574 0.0
H422 H 0.38712 0.26208 0.93247 0.0
H423 H 0.40487 0.31459 0.94732 0.0
H424 H 0.37036 0.10212 0.94364 0.0
H425 H 0.45029 0.19193 0.96706 0.0
H426 H 0.41554 0.28398 1.0 0.0
H427 H 0.3946 0.07429 0.95789 0.0
H428 H 0.47316 0.16371 0.98214 0.0
C429 C 0.75744 0.13619 0.86273 0.0
C430 C 0.78675 0.14686 0.85573 0.0
C431 C 0.75592 0.14623 0.88076 0.0
C432 C 0.78376 0.16651 0.89239 0.0
C433 C 0.81313 0.17604 0.88547 0.0
C434 C 0.81458 0.1666 0.86728 0.0
C435 C 0.7821 0.17873 0.91131 0.0
C436 C 0.75695 0.16017 0.92169 0.0
C437 C 0.75394 0.17261 0.93883 0.0
C438 C 0.77683 0.20369 0.94584 0.0
C439 C 0.80245 0.22207 0.93599 0.0
C440 C 0.80496 0.20971 0.91878 0.0
C441 C 0.82652 0.25446 0.94368 0.0
C442 C 0.81894 0.27861 0.94504 0.0
C443 C 0.85688 0.2611 0.95017 0.0
C444 C 0.87923 0.29144 0.95834 0.0
C445 C 0.87167 0.31564 0.95977 0.0
C446 C 0.72642 0.15357 0.9492 0.0
C447 C 0.71613 0.12146 0.95116 0.0
C448 C 0.70995 0.16737 0.95699 0.0
C449 C 0.68346 0.14934 0.96626 0.0
C450 C 0.67315 0.1173 0.96802 0.0
C451 C 0.68973 0.10349 0.96056 0.0
C452 C 0.84149 0.30912 0.95284 0.0
H453 H 0.73569 0.12084 0.85402 0.0
H454 H 0.73284 0.13876 0.88532 0.0
H455 H 0.83511 0.19095 0.89404 0.0
H456 H 0.83744 0.1748 0.86216 0.0
H457 H 0.7393 0.13615 0.91633 0.0
H458 H 0.82427 0.22483 0.91106 0.0
H459 H 0.77505 0.21348 0.95913 0.0
H460 H 0.79558 0.27382 0.94008 0.0
H461 H 0.86302 0.24264 0.94926 0.0
H462 H 0.90235 0.29602 0.96366 0.0
H463 H 0.72852 0.11029 0.94545 0.0
H464 H 0.7171 0.19194 0.95553 0.0
H465 H 0.83527 0.32752 0.95381 0.0
H466 H 0.68191 0.07871 0.96176 0.0
H467 H 0.67072 0.16023 0.97184 0.0
C468 C 0.62583 0.83934 0.1606 0.0
C469 C 0.65087 0.83485 0.16653 0.0
C470 C 0.61525 0.83423 0.14189 0.0
C471 C 0.62956 0.82449 0.12886 0.0
C472 C 0.6554 0.82113 0.13486 0.0
C473 C 0.66596 0.82626 0.15356 0.0
C474 C 0.61601 0.81547 0.10933 0.0
C475 C 0.60547 0.8336 0.10024 0.0
C476 C 0.59018 0.82347 0.08223 0.0
C477 C 0.5855 0.79491 0.0734 0.0
C478 C 0.59595 0.77678 0.08231 0.0
C479 C 0.61147 0.78722 0.10012 0.0
C480 C 0.58823 0.74554 0.07358 0.0
C481 C 0.55656 0.72114 0.07061 0.0
C482 C 0.6122 0.73983 0.0684 0.0
C483 C 0.60445 0.70998 0.06008 0.0
C484 C 0.57274 0.68543 0.05733 0.0
C485 C 0.57823 0.84207 0.07279 0.0
C486 C 0.54872 0.8265 0.06214 0.0
C487 C 0.5962 0.87542 0.07427 0.0
C488 C 0.58484 0.8928 0.06535 0.0
C489 C 0.55544 0.8771 0.05477 0.0
C490 C 0.53751 0.84388 0.05314 0.0
C491 C 0.54888 0.69119 0.06271 0.0
H492 H 0.61391 0.84587 0.17051 0.0
H493 H 0.59505 0.83662 0.13773 0.0
H494 H 0.66709 0.81398 0.12512 0.0
H495 H 0.68538 0.82278 0.15799 0.0
H496 H 0.60862 0.85525 0.10735 0.0
H497 H 0.61848 0.7724 0.10712 0.0
H498 H 0.57371 0.78663 0.05954 0.0
H499 H 0.53783 0.7252 0.07463 0.0
H500 H 0.63676 0.75851 0.07062 0.0
H501 H 0.6231 0.70592 0.05592 0.0
H502 H 0.53404 0.80089 0.06096 0.0
H503 H 0.61917 0.88809 0.08215 0.0
H504 H 0.52431 0.67249 0.06068 0.0
H505 H 0.51469 0.83148 0.04507 0.0
H506 H 0.59895 0.91848 0.0667 0.0
C507 C 0.21933 0.8621 0.15972 0.0
C508 C 0.20775 0.83897 0.17218 0.0
C509 C 0.2253 0.85467 0.14213 0.0
C510 C 0.21977 0.824 0.1368 0.0
C511 C 0.2092 0.80134 0.14966 0.0
C512 C 0.20313 0.80873 0.16714 0.0
C513 C 0.22353 0.8149 0.11772 0.0
C514 C 0.24942 0.83543 0.10851 0.0
C515 C 0.25291 0.82617 0.09058 0.0
C516 C 0.2304 0.7959 0.08205 0.0
C517 C 0.20419 0.7752 0.09095 0.0
C518 C 0.20083 0.78519 0.10867 0.0
C519 C 0.18048 0.74305 0.0819 0.0
C520 C 0.1721 0.73807 0.06274 0.0
C521 C 0.16602 0.717 0.09238 0.0
C522 C 0.14358 0.68693 0.08397 0.0
C523 C 0.13557 0.6821 0.06487 0.0
C524 C 0.28021 0.84769 0.08071 0.0
C525 C 0.31093 0.86484 0.08985 0.0
C526 C 0.27577 0.85054 0.06186 0.0
C527 C 0.3015 0.8697 0.05232 0.0
C528 C 0.3321 0.88631 0.06144 0.0
C529 C 0.33667 0.88396 0.08028 0.0
C530 C 0.15007 0.70783 0.0543 0.0
H531 H 0.22295 0.88556 0.16345 0.0
H532 H 0.23323 0.87256 0.13253 0.0
H533 H 0.20528 0.77771 0.14613 0.0
H534 H 0.19435 0.7907 0.17666 0.0
H535 H 0.26688 0.85853 0.11529 0.0
H536 H 0.18012 0.76995 0.1154 0.0
H537 H 0.23383 0.78818 0.06861 0.0
H538 H 0.18227 0.75755 0.05424 0.0
H539 H 0.17228 0.71967 0.10708 0.0
H540 H 0.13271 0.66729 0.09233 0.0
H541 H 0.31518 0.86292 0.1043 0.0
H542 H 0.25236 0.83798 0.05449 0.0
H543 H 0.14413 0.70451 0.03952 0.0
H544 H 0.3602 0.8967 0.08751 0.0
H545 H 0.29759 0.87145 0.03781 0.0
C546 C 0.23576 0.40627 0.16824 0.0
C547 C 0.20513 0.3829 0.17137 0.0
C548 C 0.24163 0.41878 0.15119 0.0
C549 C 0.21698 0.40809 0.13692 0.0
C550 C 0.18647 0.38413 0.14006 0.0
C551 C 0.18061 0.37177 0.15711 0.0
C552 C 0.22269 0.42258 0.11907 0.0
C553 C 0.25064 0.43072 0.11069 0.0
C554 C 0.25607 0.44474 0.09394 0.0
C555 C 0.23334 0.45113 0.08587 0.0
C556 C 0.20523 0.44266 0.09384 0.0
C557 C 0.20001 0.42841 0.11035 0.0
C558 C 0.18097 0.44817 0.08467 0.0
C559 C 0.18778 0.47912 0.08206 0.0
C560 C 0.15103 0.42239 0.07821 0.0
C561 C 0.12836 0.42745 0.06901 0.0
C562 C 0.13502 0.45842 0.06653 0.0
C563 C 0.28481 0.45188 0.08449 0.0
C564 C 0.31455 0.46388 0.09454 0.0
C565 C 0.28261 0.44671 0.06515 0.0
C566 C 0.30935 0.4536 0.05611 0.0
C567 C 0.33889 0.46556 0.06617 0.0
C568 C 0.34133 0.47061 0.08546 0.0
C569 C 0.16484 0.48423 0.07326 0.0
H570 H 0.25499 0.41512 0.17909 0.0
H571 H 0.26532 0.43739 0.14935 0.0
H572 H 0.16702 0.37486 0.12933 0.0
H573 H 0.15686 0.35359 0.15923 0.0
H574 H 0.26767 0.4252 0.1169 0.0
H575 H 0.17847 0.42261 0.11659 0.0
H576 H 0.23725 0.4624 0.07318 0.0
H577 H 0.21074 0.49931 0.08697 0.0
H578 H 0.1454 0.39833 0.08002 0.0
H579 H 0.10557 0.40722 0.06387 0.0
H580 H 0.31723 0.46844 0.1094 0.0
H581 H 0.26009 0.4369 0.05694 0.0
H582 H 0.17044 0.50831 0.07153 0.0
H583 H 0.36395 0.47976 0.09346 0.0
H584 H 0.30697 0.44932 0.04124 0.0
C585 C 0.47659 0.93243 0.19451 0.0
C586 C 0.46974 0.95626 0.19064 0.0
C587 C 0.46998 0.91912 0.21125 0.0
C588 C 0.45656 0.92951 0.22458 0.0
C589 C 0.44916 0.95302 0.22047 0.0
C590 C 0.45566 0.96623 0.20364 0.0
C591 C 0.45125 0.91636 0.24281 0.0
C592 C 0.47372 0.9103 0.25157 0.0
C593 C 0.46899 0.8971 0.26847 0.0
C594 C 0.44138 0.89013 0.27674 0.0
C595 C 0.41877 0.8964 0.26843 0.0
C596 C 0.42393 0.90965 0.25149 0.0
C597 C 0.3898 0.88888 0.27756 0.0
C598 C 0.37254 0.85961 0.28488 0.0
C599 C 0.37976 0.91122 0.27956 0.0
C600 C 0.35336 0.90462 0.28895 0.0
C601 C 0.33636 0.87544 0.2963 0.0
C602 C 0.49286 0.89046 0.27742 0.0
C603 C 0.50777 0.87772 0.26681 0.0
C604 C 0.50086 0.89667 0.29661 0.0
C605 C 0.52305 0.89013 0.30499 0.0
C606 C 0.53772 0.87736 0.29433 0.0
C607 C 0.53003 0.87129 0.27519 0.0
C608 C 0.34596 0.8529 0.29408 0.0
H609 H 0.48727 0.92428 0.1846 0.0
H610 H 0.47541 0.90064 0.21374 0.0
H611 H 0.43907 0.96177 0.23044 0.0
H612 H 0.45018 0.98459 0.20086 0.0
H613 H 0.49538 0.91652 0.24539 0.0
H614 H 0.40621 0.91382 0.24482 0.0
H615 H 0.43741 0.87977 0.28973 0.0
H616 H 0.37951 0.84181 0.28341 0.0
H617 H 0.39272 0.93404 0.2742 0.0
H618 H 0.34615 0.92223 0.29049 0.0
H619 H 0.50189 0.87225 0.25204 0.0
H620 H 0.49018 0.90687 0.30516 0.0
H621 H 0.33297 0.83019 0.29957 0.0
H622 H 0.54108 0.86132 0.26678 0.0
H623 H 0.52878 0.89498 0.31979 0.0
C624 C 0.99823 0.47481 0.20808 0.0
C625 C 0.01199 0.49889 0.19635 0.0
C626 C 0.00933 0.4808 0.22677 0.0
C627 C 0.03415 0.51101 0.23393 0.0
C628 C 0.04791 0.53493 0.22203 0.0
C629 C 0.0369 0.52891 0.2034 0.0
C630 C 0.04596 0.51781 0.25373 0.0
C631 C 0.05247 0.4967 0.26265 0.0
C632 C 0.06644 0.50464 0.28092 0.0
C633 C 0.07292 0.53337 0.2904 0.0
C634 C 0.06664 0.55472 0.28169 0.0
C635 C 0.05288 0.54662 0.2634 0.0
C636 C 0.07677 0.58648 0.29117 0.0
C637 C 0.1063 0.60364 0.30171 0.0
C638 C 0.05784 0.60046 0.28914 0.0
C639 C 0.06851 0.6312 0.29721 0.0
C640 C 0.09815 0.64825 0.30747 0.0
C641 C 0.07694 0.48446 0.28965 0.0
C642 C 0.05685 0.45141 0.28883 0.0
C643 C 0.10768 0.49838 0.29862 0.0
C644 C 0.11826 0.47964 0.30649 0.0
C645 C 0.09822 0.44674 0.30563 0.0
C646 C 0.06739 0.43265 0.29689 0.0
C647 C 0.11682 0.63421 0.30985 0.0
H648 H 0.97891 0.45151 0.20278 0.0
H649 H 0.99825 0.462 0.23566 0.0
H650 H 0.06744 0.55826 0.22708 0.0
H651 H 0.0478 0.54766 0.19446 0.0
H652 H 0.04835 0.47499 0.25508 0.0
H653 H 0.04845 0.56322 0.25645 0.0
H654 H 0.08334 0.5393 0.30458 0.0
H655 H 0.12171 0.59381 0.30327 0.0
H656 H 0.03486 0.58771 0.28126 0.0
H657 H 0.05385 0.64182 0.29532 0.0
H658 H 0.03304 0.44018 0.28205 0.0
H659 H 0.12379 0.52375 0.29922 0.0
H660 H 0.13981 0.6472 0.31772 0.0
H661 H 0.05175 0.40719 0.2961 0.0
H662 H 0.14218 0.49073 0.31311 0.0
C663 C 0.41627 0.47897 0.19259 0.0
C664 C 0.44535 0.48714 0.18588 0.0
C665 C 0.41515 0.48821 0.21089 0.0
C666 C 0.44311 0.50547 0.2229 0.0
C667 C 0.47214 0.51299 0.21613 0.0
C668 C 0.47324 0.50407 0.19778 0.0
C669 C 0.44216 0.51613 0.24229 0.0
C670 C 0.41738 0.49672 0.25264 0.0
C671 C 0.41648 0.50688 0.27092 0.0
C672 C 0.44103 0.53658 0.27892 0.0
C673 C 0.46582 0.55623 0.26882 0.0
C674 C 0.46608 0.54605 0.25052 0.0
C675 C 0.49114 0.58774 0.27736 0.0
C676 C 0.49958 0.61509 0.26832 0.0
C677 C 0.50654 0.59071 0.2948 0.0
C678 C 0.52979 0.62053 0.30312 0.0
C679 C 0.53761 0.64782 0.29424 0.0
C680 C 0.38956 0.48706 0.28157 0.0
C681 C 0.35832 0.47125 0.27313 0.0
C682 C 0.39476 0.48467 0.30042 0.0
C683 C 0.36934 0.46711 0.31059 0.0
C684 C 0.33829 0.45166 0.3021 0.0
C685 C 0.33294 0.4537 0.28331 0.0
C686 C 0.52251 0.64497 0.27677 0.0
H687 H 0.39448 0.4658 0.18357 0.0
H688 H 0.39244 0.48233 0.21551 0.0
H689 H 0.49407 0.52564 0.22502 0.0
H690 H 0.49585 0.51029 0.19285 0.0
H691 H 0.39906 0.47341 0.24659 0.0
H692 H 0.48502 0.5616 0.2427 0.0
H693 H 0.44035 0.545 0.29285 0.0
H694 H 0.48788 0.61342 0.25494 0.0
H695 H 0.50058 0.56994 0.30197 0.0
H696 H 0.54124 0.62244 0.31663 0.0
H697 H 0.35344 0.47293 0.25873 0.0
H698 H 0.41853 0.49621 0.30729 0.0
H699 H 0.52827 0.66589 0.2698 0.0
H700 H 0.30906 0.44177 0.27655 0.0
H701 H 0.37385 0.46548 0.32505 0.0
Tb702 Tb 0.48805 0.98274 0.99346 0.0
Eu703 Eu 0.51549 0.02255 0.03532 0.0
C704 C 0.51487 0.95791 0.02377 0.0
C705 C 0.44499 0.96406 0.02642 0.0
C706 C 0.48249 0.97058 0.94275 0.0
C707 C 0.52497 0.99918 0.92343 0.0
C708 C 0.51484 0.98631 0.94002 0.0
C709 C 0.46056 0.96796 0.92853 0.0
C710 C 0.47073 0.98099 0.91198 0.0
C711 C 0.50298 0.99673 0.90935 0.0
C712 C 0.47143 0.95806 0.96051 0.0
O713 O 0.49298 0.02904 0.99164 0.0
O714 O 0.48639 0.04054 0.02132 0.0
O715 O 0.55107 0.05233 0.01631 0.0
O716 O 0.53927 0.01159 0.99402 0.0
C717 C 0.4848 0.04382 1.0037 0.0
O718 O 0.51145 0.0499 0.0586 0.0
O719 O 0.54863 0.03833 0.06024 0.0
O720 O 0.53142 0.98679 0.0321 0.0
O721 O 0.49214 0.94984 1.01058 0.0
O722 O 0.44641 0.9672 1.00866 0.0
O723 O 0.47008 0.97825 0.03841 0.0
C724 C 0.55791 0.04076 1.0017 0.0
O725 O 0.49116 0.9548 0.97162 0.0
O726 O 0.45713 0.97044 0.96932 0.0
C727 C 0.52364 0.03656 0.08752 0.0
C728 C 0.50551 0.01146 0.12152 0.0
C729 C 0.48529 0.01738 0.11024 0.0
C730 C 0.49421 0.02975 0.0934 0.0
C731 C 0.54405 0.03109 0.09903 0.0
C732 C 0.53501 0.01854 0.11584 0.0
C733 C 0.53285 0.04864 0.06936 0.0
H734 H 0.54996 0.01135 0.92164 0.0
H735 H 0.5324 0.98902 0.95077 0.0
H736 H 0.43557 0.95611 0.93032 0.0
H737 H 0.45347 0.97893 0.90124 0.0
H738 H 0.46247 0.01214 0.11443 0.0
H739 H 0.47787 0.0337 0.08495 0.0
H740 H 0.5669 0.03623 0.09495 0.0
H741 H 0.55096 0.0142 0.1244 0.0
Tb742 Tb 0.02141 0.50715 0.99551 0.0
Eu743 Eu 0.98119 0.48957 0.03157 0.0
C744 C 0.04393 0.55676 0.03 0.0
C745 C 0.04214 0.48287 0.0297 0.0
C746 C 0.0404 0.52186 0.94799 0.0
C747 C 0.05239 0.54514 0.91911 0.0
C748 C 0.06241 0.54173 0.93666 0.0
C749 C 0.0085 0.504 0.94123 0.0
C750 C 0.99852 0.50725 0.92366 0.0
C751 C 0.01982 0.53002 0.91272 0.0
C752 C 0.05052 0.52103 0.96708 0.0
O753 O 0.97686 0.46424 0.98637 0.0
O754 O 0.96717 0.44405 0.0142 0.0
O755 O 0.94976 0.49285 1.0093 0.0
O756 O 0.98924 0.52602 0.99247 0.0
C757 C 0.96251 0.44023 0.99617 0.0
O758 O 0.95734 0.45593 0.05144 0.0
O759 O 0.95693 0.50015 0.05258 0.0
O760 O 0.01503 0.54263 0.03493 0.0
O761 O 0.05262 0.54331 0.01739 0.0
O762 O 0.03738 0.48045 1.01162 0.0
O763 O 0.02713 0.49234 0.04034 0.0
C764 C 0.95984 0.51267 0.99667 0.0
O765 O 0.05015 0.54189 0.97887 0.0
O766 O 0.0381 0.49306 0.9731 0.0
C767 C 0.95811 0.479 0.08054 0.0
C768 C 0.97381 0.48434 0.11856 0.0
C769 C 0.94222 0.46559 0.11107 0.0
C770 C 0.93442 0.46297 0.09212 0.0
C771 C 0.98971 0.49786 0.08802 0.0
C772 C 0.99751 0.50058 0.10697 0.0
C773 C 0.94991 0.47459 0.06061 0.0
H774 H 0.07068 0.55948 0.91066 0.0
H775 H 0.08739 0.55482 0.94142 0.0
H776 H 0.99118 0.48753 0.94957 0.0
H777 H 0.97404 0.49113 0.91895 0.0
H778 H 0.92373 0.4529 0.11987 0.0
H779 H 0.90997 0.44814 0.08648 0.0
H780 H 0.00828 0.51014 0.07918 0.0
H781 H 0.02199 0.51507 0.1126 0.0
Tb782 Tb 0.51319 0.48917 0.03413 0.0
Eu783 Eu 0.48976 0.50333 0.99424 0.0
C784 C 0.4737 0.43512 1.00344 0.0
C785 C 0.55668 0.50609 1.00133 0.0
C786 C 0.51174 0.47768 0.0829 0.0
C787 C 0.49607 0.45684 0.1122 0.0
C788 C 0.5127 0.45971 0.09681 0.0
C789 C 0.49548 0.49424 0.08508 0.0
C790 C 0.47901 0.4915 0.10048 0.0
C791 C 0.4765 0.47047 0.11371 0.0
C792 C 0.52571 0.47747 0.06564 0.0
O793 O 0.51677 0.53533 0.03791 0.0
O794 O 0.52794 0.54962 1.00888 0.0
O795 O 0.45689 0.50517 0.01403 0.0
O796 O 0.46375 0.47573 0.03543 0.0
C797 C 0.52882 0.55716 0.02647 0.0
O798 O 0.487 0.53486 0.97513 0.0
O799 O 0.46477 0.4845 0.96683 0.0
O800 O 0.46103 0.45142 0.99761 0.0
O801 O 0.50012 0.44866 0.0143 0.0
O802 O 0.55547 0.50804 0.01931 0.0
O803 O 0.53222 0.49854 0.98948 0.0
C804 C 0.44828 0.48885 0.0284 0.0
O805 O 0.50624 0.4557 0.05276 0.0
O806 O 0.54214 0.5049 0.05924 0.0
C807 C 0.48691 0.51846 0.94398 0.0
C808 C 0.51139 0.52218 0.90979 0.0
C809 C 0.47935 0.51245 0.91057 0.0
C810 C 0.46719 0.51064 0.92758 0.0
C811 C 0.51919 0.52899 0.94322 0.0
C812 C 0.53141 0.531 0.92619 0.0
C813 C 0.47291 0.51236 0.96158 0.0
H814 H 0.4992 0.44407 0.1229 0.0
H815 H 0.5261 0.44762 0.0957 0.0
H816 H 0.49531 0.50922 0.07476 0.0
H817 H 0.46893 0.50661 0.10176 0.0
H818 H 0.46361 0.50544 0.89802 0.0
H819 H 0.44218 0.50215 0.92793 0.0
H820 H 0.53467 0.5347 0.95576 0.0
H821 H 0.55616 0.53834 0.92578 0.0
Tb822 Tb 0.15884 0.31471 0.32676 0.0
Eu823 Eu 0.17857 0.35443 0.36906 0.0
C824 C 0.18701 0.29465 0.36057 0.0
C825 C 0.1107 0.2894 0.3567 0.0
C826 C 0.15784 0.30512 0.27577 0.0
C827 C 0.19437 0.32367 0.25204 0.0
C828 C 0.18616 0.31063 0.26879 0.0
C829 C 0.13782 0.31274 0.26547 0.0
C830 C 0.14603 0.3257 0.24869 0.0
C831 C 0.17434 0.33124 0.24185 0.0
C832 C 0.14931 0.29133 0.29361 0.0
O833 O 0.13612 0.34312 0.32793 0.0
O834 O 0.16994 0.38399 0.34972 0.0
O835 O 0.22338 0.37222 0.35494 0.0
O836 O 0.20007 0.361 0.32528 0.0
C837 C 0.14804 0.3722 0.33571 0.0
O838 O 0.16757 0.37807 0.39137 0.0
O839 O 0.20996 0.37482 0.39461 0.0
O840 O 0.17991 0.31027 0.3727 0.0
O841 O 0.18452 0.29675 0.34273 0.0
O842 O 0.12076 0.28218 0.34187 0.0
O843 O 0.12707 0.31679 0.36693 0.0
C844 C 0.22514 0.37536 0.33725 0.0
O845 O 0.17258 0.29545 0.30514 0.0
O846 O 0.12871 0.29542 0.30205 0.0
C847 C 0.18228 0.3692 0.42121 0.0
C848 C 0.16608 0.34483 0.45564 0.0
C849 C 0.19492 0.35123 0.44923 0.0
C850 C 0.203 0.3634 0.43223 0.0
C851 C 0.15356 0.36316 0.42785 0.0
C852 C 0.14555 0.35107 0.44488 0.0
C853 C 0.19054 0.38118 0.40287 0.0
H854 H 0.21629 0.32774 0.24697 0.0
H855 H 0.20204 0.30487 0.27627 0.0
H856 H 0.11578 0.30867 0.27036 0.0
H857 H 0.13026 0.33136 0.24099 0.0
H858 H 0.21114 0.34671 0.45737 0.0
H859 H 0.22542 0.36803 0.42766 0.0
H860 H 0.13713 0.36756 0.41984 0.0
H861 H 0.12324 0.34642 0.44964 0.0
Tb862 Tb 0.68652 0.8392 0.32983 0.0
Eu863 Eu 0.64396 0.82073 0.36621 0.0
C864 C 0.7084 0.8894 0.36524 0.0
C865 C 0.70785 0.81751 0.36635 0.0
C866 C 0.70572 0.84659 0.28163 0.0
C867 C 0.71904 0.85249 0.25011 0.0
C868 C 0.72801 0.85414 0.26881 0.0
C869 C 0.67435 0.83735 0.27562 0.0
C870 C 0.66539 0.83574 0.25693 0.0
C871 C 0.68771 0.84333 0.2441 0.0
C872 C 0.7154 0.84903 0.30125 0.0
O873 O 0.64196 0.79558 0.32145 0.0
O874 O 0.63095 0.77542 0.34929 0.0
O875 O 0.61612 0.82884 0.34375 0.0
O876 O 0.65465 0.85739 0.32485 0.0
C877 C 0.62737 0.77167 0.3313 0.0
O878 O 0.61607 0.78627 0.38485 0.0
O879 O 0.61943 0.83229 0.38658 0.0
O880 O 0.68331 0.87121 0.37356 0.0
O881 O 0.7141 0.88092 0.34917 0.0
O882 O 0.70914 0.82155 0.34866 0.0
O883 O 0.68666 0.81859 0.37604 0.0
C884 C 0.62639 0.84706 0.33031 0.0
O885 O 0.71411 0.87102 0.3115 0.0
O886 O 0.70337 0.82234 0.30872 0.0
C887 C 0.61742 0.80911 0.41417 0.0
C888 C 0.63179 0.81267 0.45226 0.0
C889 C 0.60047 0.79376 0.44431 0.0
C890 C 0.59333 0.79203 0.42534 0.0
C891 C 0.64874 0.82803 0.42212 0.0
C892 C 0.65587 0.82987 0.44108 0.0
C893 C 0.61007 0.8059 0.39418 0.0
H894 H 0.73646 0.85834 0.24032 0.0
H895 H 0.75231 0.86138 0.27328 0.0
H896 H 0.65689 0.83152 0.2854 0.0
H897 H 0.64111 0.82859 0.25246 0.0
H898 H 0.5817 0.78029 0.45279 0.0
H899 H 0.56909 0.77712 0.41935 0.0
H900 H 0.66766 0.84111 0.41363 0.0
H901 H 0.68015 0.84448 0.44703 0.0
Tb902 Tb 0.18683 0.83341 0.36852 0.0
Eu903 Eu 0.15905 0.84733 0.32964 0.0
C904 C 0.14705 0.77819 0.33753 0.0
C905 C 0.22631 0.85049 0.33405 0.0
C906 C 0.19266 0.81881 0.41704 0.0
C907 C 0.14657 0.80028 0.4342 0.0
C908 C 0.15967 0.80341 0.4174 0.0
C909 C 0.21229 0.83036 0.43366 0.0
C910 C 0.19921 0.82742 0.45044 0.0
C911 C 0.16633 0.81283 0.45077 0.0
C912 C 0.20687 0.82638 0.39953 0.0
O913 O 0.2122 0.88386 0.36561 0.0
O914 O 0.17232 0.88799 0.35097 0.0
O915 O 0.11819 0.8296 0.34678 0.0
O916 O 0.14354 0.83282 0.37523 0.0
C917 C 0.19832 0.90017 0.3621 0.0
O918 O 0.165 0.88048 0.30937 0.0
O919 O 0.12535 0.83225 0.30522 0.0
O920 O 0.15368 0.79878 0.32531 0.0
O921 O 0.15269 0.78685 0.35527 0.0
O922 O 0.21812 0.83359 0.34826 0.0
O923 O 0.21018 0.86309 0.32738 0.0
C924 C 0.11848 0.82791 0.36465 0.0
O925 O 0.19408 0.80415 0.38582 0.0
O926 O 0.21241 0.85357 0.39441 0.0
C927 C 0.15007 0.85593 0.27905 0.0
C928 C 0.16962 0.85334 0.24386 0.0
C929 C 0.16293 0.87716 0.2495 0.0
C930 C 0.15324 0.87846 0.26701 0.0
C931 C 0.15664 0.83201 0.27333 0.0
C932 C 0.16635 0.83073 0.25585 0.0
C933 C 0.14193 0.85875 0.29787 0.0
H934 H 0.12116 0.78917 0.43426 0.0
H935 H 0.14414 0.79477 0.40469 0.0
H936 H 0.23777 0.84267 0.43362 0.0
H937 H 0.21473 0.83736 0.46313 0.0
H938 H 0.16537 0.89477 0.24037 0.0
H939 H 0.14855 0.89724 0.27125 0.0
H940 H 0.15454 0.81449 0.28243 0.0
H941 H 0.17144 0.81221 0.25169 0.0
Tb942 Tb 0.82347 0.64722 0.65973 0.0
Eu943 Eu 0.84437 0.68673 0.70202 0.0
C944 C 0.85737 0.63034 0.69129 0.0
C945 C 0.77873 0.62109 0.69115 0.0
C946 C 0.81841 0.63518 0.60872 0.0
C947 C 0.8517 0.64849 0.5834 0.0
C948 C 0.84352 0.6355 0.60013 0.0
C949 C 0.80127 0.64767 0.59999 0.0
C950 C 0.80931 0.66042 0.58314 0.0
C951 C 0.83467 0.66103 0.57477 0.0
C952 C 0.8108 0.62224 0.6268 0.0
O953 O 0.80066 0.67555 0.66152 0.0
O954 O 0.83502 0.71642 0.68309 0.0
O955 O 0.8884 0.70854 0.68715 0.0
O956 O 0.8648 0.69308 0.65725 0.0
C957 C 0.81312 0.70483 0.66909 0.0
O958 O 0.83508 0.71185 0.72426 0.0
O959 O 0.87422 0.70337 0.72823 0.0
O960 O 0.84875 0.64357 0.70405 0.0
O961 O 0.85438 0.63357 0.67375 0.0
O962 O 0.78975 0.6137 0.67683 0.0
O963 O 0.79297 0.64953 0.70012 0.0
C964 C 0.88951 0.7101 0.66929 0.0
O965 O 0.83466 0.62624 0.63773 0.0
O966 O 0.79138 0.62748 0.6358 0.0
C967 C 0.84532 0.69965 0.75366 0.0
C968 C 0.82088 0.67639 0.78751 0.0
C969 C 0.84793 0.70685 0.787 0.0
C970 C 0.85928 0.71857 0.77033 0.0
C971 C 0.82126 0.66812 0.75398 0.0
C972 C 0.8099 0.65643 0.77065 0.0
C973 C 0.85642 0.7125 0.73607 0.0
H974 H 0.87129 0.64871 0.57713 0.0
H975 H 0.85705 0.62589 0.60643 0.0
H976 H 0.78176 0.64776 0.60618 0.0
H977 H 0.79587 0.66996 0.57665 0.0
H978 H 0.8613 0.72199 0.79934 0.0
H979 H 0.8792 0.74244 0.77051 0.0
H980 H 0.81136 0.65242 0.74132 0.0
H981 H 0.7929 0.63142 0.76999 0.0
Tb982 Tb 0.35515 0.17265 0.6636 0.0
Eu983 Eu 0.31275 0.15239 0.69887 0.0
C984 C 0.37369 0.2216 0.69848 0.0
C985 C 0.3758 0.14955 0.69837 0.0
C986 C 0.37502 0.18683 0.61621 0.0
C987 C 0.38499 0.21338 0.58832 0.0
C988 C 0.39561 0.21032 0.60582 0.0
C989 C 0.34432 0.16508 0.60842 0.0
C990 C 0.33376 0.16811 0.59095 0.0
C991 C 0.35288 0.19416 0.58111 0.0
C992 C 0.38503 0.1864 0.63546 0.0
O993 O 0.30995 0.13089 0.6537 0.0
O994 O 0.30137 0.10851 0.68071 0.0
O995 O 0.2835 0.15917 0.67671 0.0
O996 O 0.32383 0.19217 0.66019 0.0
C997 C 0.29584 0.10594 0.6628 0.0
O998 O 0.28814 0.11642 0.71745 0.0
O999 O 0.28558 0.1595 0.71934 0.0
O1000 O 0.34523 0.20532 0.70385 0.0
O1001 O 0.3838 0.21002 0.68556 0.0
O1002 O 0.37142 0.14676 0.68026 0.0
O1003 O 0.35964 0.15803 0.70863 0.0
C1004 C 0.29461 0.17985 0.66453 0.0
O1005 O 0.38441 0.20734 0.64706 0.0
O1006 O 0.37292 0.15864 0.64172 0.0
C1007 C 0.28456 0.13586 0.74669 0.0
C1008 C 0.29602 0.13804 0.78491 0.0
C1009 C 0.26633 0.11584 0.77582 0.0
C1010 C 0.26062 0.11481 0.75678 0.0
C1011 C 0.31429 0.15803 0.75575 0.0
C1012 C 0.31995 0.15919 0.7748 0.0
C1013 C 0.27871 0.13333 0.72663 0.0
H1014 H 0.40257 0.23077 0.58063 0.0
H1015 H 0.4199 0.22656 0.6113 0.0
H1016 H 0.32829 0.14579 0.61588 0.0
H1017 H 0.31056 0.14939 0.58538 0.0
H1018 H 0.2477 0.09931 0.78346 0.0
H1019 H 0.23765 0.09739 0.74991 0.0
H1020 H 0.33312 0.17418 0.74807 0.0
H1021 H 0.34302 0.17636 0.78166 0.0
Tb1022 Tb 0.85338 0.16742 0.70323 0.0
Eu1023 Eu 0.82719 0.17979 0.66325 0.0
C1024 C 0.81559 0.11155 0.67226 0.0
C1025 C 0.89498 0.18394 0.66956 0.0
C1026 C 0.8527 0.15254 0.75166 0.0
C1027 C 0.84077 0.12784 0.78024 0.0
C1028 C 0.85787 0.13554 0.76478 0.0
C1029 C 0.83107 0.16275 0.75457 0.0
C1030 C 0.81417 0.15525 0.76999 0.0
C1031 C 0.81681 0.13563 0.78266 0.0
C1032 C 0.8699 0.15997 0.73508 0.0
O1033 O 0.879 0.21786 0.70017 0.0
O1034 O 0.84004 0.22138 0.68378 0.0
O1035 O 0.78543 0.16247 0.67976 0.0
O1036 O 0.81032 0.16821 0.70872 0.0
C1037 C 0.8655 0.23403 0.69541 0.0
O1038 O 0.83358 0.21227 0.64249 0.0
O1039 O 0.79458 0.1637 0.63825 0.0
O1040 O 0.82312 0.13173 0.65979 0.0
O1041 O 0.81954 0.12063 0.68991 0.0
O1042 O 0.8867 0.16817 0.68423 0.0
O1043 O 0.87844 0.19527 0.66176 0.0
C1044 C 0.78535 0.16232 0.69772 0.0
O1045 O 0.85807 0.13769 0.72141 0.0
O1046 O 0.87768 0.18747 0.72944 0.0
C1047 C 0.82036 0.18722 0.61233 0.0
C1048 C 0.84153 0.18444 0.57769 0.0
C1049 C 0.83196 0.20649 0.58224 0.0
C1050 C 0.82147 0.20789 0.5995 0.0
C1051 C 0.82988 0.16511 0.60773 0.0
C1052 C 0.8404 0.16373 0.59052 0.0
C1053 C 0.81116 0.19014 0.63084 0.0
H1054 H 0.84748 0.1166 0.7904 0.0
H1055 H 0.87542 0.12849 0.76319 0.0
H1056 H 0.82749 0.17707 0.74504 0.0
H1057 H 0.79995 0.16611 0.77189 0.0
H1058 H 0.83269 0.2226 0.57246 0.0
H1059 H 0.81449 0.22528 0.60288 0.0
H1060 H 0.82935 0.14905 0.61748 0.0
H1061 H 0.84769 0.14657 0.58719 0.0
C1062 C 0.37366 0.93965 0.05357 0.0
C1063 C 0.35957 0.90616 0.05124 0.0
C1064 C 0.39792 0.91069 0.02967 0.0
C1065 C 0.41409 0.94423 0.03361 0.0
N1066 N 0.41929 0.99093 0.05052 0.0
N1067 N 0.35977 0.8594 0.03884 0.0
C1068 C 0.40247 0.9588 0.04589 0.0
C1069 C 0.37193 0.89152 0.03963 0.0
N1070 N 0.35895 0.9531 0.0627 0.0
N1071 N 0.40757 0.89712 0.01656 0.0
H1072 H 0.34064 0.84455 0.04585 0.0
H1073 H 0.36999 0.84765 0.03242 0.0
H1074 H 0.42744 0.9101 1.00964 0.0
H1075 H 0.39468 0.87321 1.01156 0.0
H1076 H 0.36607 0.97711 0.06315 0.0
H1077 H 0.33787 0.93979 0.06858 0.0
H1078 H 0.41437 0.0024 0.06119 0.0
H1079 H 0.43946 0.00617 0.04442 0.0
C1080 C 0.11718 0.4787 0.04016 0.0
C1081 C 0.11084 0.46386 0.05675 0.0
C1082 C 0.05749 0.45648 0.0535 0.0
C1083 C 0.06549 0.47537 0.03848 0.0
N1084 N 0.10634 0.51072 0.02037 0.0
N1085 N 0.077 0.44463 0.0813 0.0
C1086 C 0.09625 0.48817 0.03252 0.0
C1087 C 0.08155 0.45443 0.06404 0.0
N1088 N 0.14268 0.483 0.03136 0.0
N1089 N 0.02674 0.43938 0.05731 0.0
H1090 H 0.09435 0.44371 0.08972 0.0
H1091 H 0.05725 0.44058 0.08793 0.0
H1092 H 0.00809 0.4387 0.0493 0.0
H1093 H 0.01937 0.42306 0.06708 0.0
H1094 H 0.14653 0.49087 0.01829 0.0
H1095 H 0.15812 0.47558 0.0362 0.0
H1096 H 0.12965 0.52298 0.01712 0.0
H1097 H 0.09264 0.5198 0.01512 0.0
C1098 C 0.54485 0.64193 0.03158 0.0
C1099 C 0.56406 0.65357 0.04862 0.0
C1100 C 0.56511 0.60404 0.04892 0.0
C1101 C 0.54198 0.59078 0.0335 0.0
N1102 N 0.50496 0.59543 1.01244 0.0
N1103 N 0.58827 0.64367 0.07521 0.0
C1104 C 0.53059 0.60927 0.02533 0.0
C1105 C 0.57318 0.63414 0.05777 0.0
N1106 N 0.54062 0.66216 0.02122 0.0
N1107 N 0.58007 0.5884 0.05477 0.0
H1108 H 0.59404 0.66525 0.08239 0.0
H1109 H 0.5924 0.62886 0.08318 0.0
H1110 H 0.5756 0.56681 0.0482 0.0
H1111 H 0.59922 0.59843 0.06487 0.0
H1112 H 0.52928 0.65539 1.00788 0.0
H1113 H 0.55129 0.68646 0.02518 0.0
H1114 H 0.49389 0.6074 1.00749 0.0
H1115 H 0.49258 0.5712 1.00813 0.0
C1116 C 0.88841 0.35904 0.9855 0.0
C1117 C 0.89505 0.34763 0.96903 0.0
C1118 C 0.94755 0.39533 0.97164 0.0
C1119 C 0.93932 0.4084 0.98677 0.0
N1120 N 0.8984 0.40537 1.00502 0.0
N1121 N 0.92843 0.35798 0.94426 0.0
C1122 C 0.90875 0.39103 0.99287 0.0
C1123 C 0.92391 0.36668 0.96143 0.0
N1124 N 0.86329 0.33913 0.9945 0.0
N1125 N 0.97819 0.40931 0.96751 0.0
H1126 H 0.91141 0.33749 0.93618 0.0
H1127 H 0.94775 0.37266 0.93735 0.0
H1128 H 0.99657 0.42936 0.97523 0.0
H1129 H 0.9859 0.39903 0.9577 0.0
H1130 H 0.85939 0.34555 1.00753 0.0
H1131 H 0.84826 0.31522 0.98987 0.0
H1132 H 0.87517 0.39449 1.00844 0.0
H1133 H 0.91178 0.42924 1.01009 0.0
C1134 C 0.64197 0.54921 0.9888 0.0
C1135 C 0.64024 0.527 0.97462 0.0
C1136 C 0.58681 0.48884 0.98177 0.0
C1137 C 0.58669 0.51264 0.99378 0.0
N1138 N 0.6131 0.5672 1.00709 0.0
N1139 N 0.60854 0.4774 0.95546 0.0
C1140 C 0.61406 0.5433 0.99696 0.0
C1141 C 0.61198 0.49722 0.97053 0.0
N1142 N 0.67043 0.57547 0.99489 0.0
N1143 N 0.56343 0.45794 0.98165 0.0
H1144 H 0.626 0.48298 0.9465 0.0
H1145 H 0.58722 0.45689 0.95085 0.0
H1146 H 0.54586 0.45092 0.99064 0.0
H1147 H 0.56364 0.4391 0.97431 0.0
H1148 H 0.67365 0.59078 1.00641 0.0
H1149 H 0.69148 0.5803 0.98954 0.0
H1150 H 0.63116 0.59084 1.00808 0.0
H1151 H 0.59323 0.56394 1.01332 0.0
C1152 C 0.47829 0.1032 0.97557 0.0
C1153 C 0.44929 0.09993 0.98045 0.0
C1154 C 0.44323 0.05941 1.0006 0.0
C1155 C 0.47352 0.06471 0.99696 0.0
N1156 N 0.5232 0.09741 0.9847 0.0
N1157 N 0.40824 0.08092 1.00108 0.0
C1158 C 0.4921 0.08838 0.98555 0.0
C1159 C 0.43303 0.07992 0.99409 0.0
N1160 N 0.49201 0.11929 0.96094 0.0
N1161 N 0.42334 0.03373 1.00926 0.0
H1162 H 0.40041 0.0961 0.99689 0.0
H1163 H 0.3976 0.06908 1.01232 0.0
H1164 H 0.42917 0.01712 0.01346 0.0
H1165 H 0.39984 0.0271 1.01055 0.0
H1166 H 0.51139 0.11949 0.95564 0.0
H1167 H 0.4823 0.12995 0.95298 0.0
H1168 H 0.53857 0.11651 0.97786 0.0
H1169 H 0.53446 0.08803 0.99251 0.0
C1170 C 0.61429 0.08272 0.96588 0.0
C1171 C 0.64379 0.09773 0.97679 0.0
C1172 C 0.61729 0.0737 1.00384 0.0
C1173 C 0.58755 0.06097 0.99332 0.0
N1174 N 0.55747 0.05767 0.96505 0.0
N1175 N 0.67369 0.11137 1.00651 0.0
C1176 C 0.58596 0.06657 0.97451 0.0
C1177 C 0.64538 0.0944 0.9959 0.0
N1178 N 0.61337 0.08337 0.94717 0.0
N1179 N 0.61885 0.06472 0.02106 0.0
H1180 H 0.69487 0.126 1.00105 0.0
H1181 H 0.67587 0.11281 0.02083 0.0
H1182 H 0.59891 0.04908 0.02722 0.0
H1183 H 0.63997 0.07046 0.02863 0.0
H1184 H 0.59292 0.06966 0.93824 0.0
H1185 H 0.63355 0.09575 0.94035 0.0
H1186 H 0.55513 0.06453 0.9521 0.0
H1187 H 0.53604 0.04559 0.97068 0.0
C1188 C 0.88891 0.50468 0.96717 0.0
C1189 C 0.89581 0.53672 0.96861 0.0
C1190 C 0.94192 0.55159 0.99047 0.0
C1191 C 0.93745 0.52067 0.98717 0.0
N1192 N 0.90875 0.46849 0.97047 0.0
N1193 N 0.93247 0.59185 0.97894 0.0
C1194 C 0.91152 0.49739 0.97495 0.0
C1195 C 0.92345 0.56056 0.97945 0.0
N1196 N 0.86015 0.48099 0.95915 0.0
N1197 N 0.96241 0.57174 1.00491 0.0
H1198 H 0.91987 0.59942 0.97076 0.0
H1199 H 0.95403 0.6103 0.98522 0.0
H1200 H 0.97406 0.5647 0.01421 0.0
H1201 H 0.96472 0.59368 1.00897 0.0
H1202 H 0.85252 0.45695 0.95949 0.0
H1203 H 0.84263 0.48516 0.95366 0.0
H1204 H 0.89245 0.45194 0.96006 0.0
H1205 H 0.9244 0.46201 0.97615 0.0
C1206 C 0.45632 0.35956 0.97555 0.0
C1207 C 0.42856 0.33685 0.98288 0.0
C1208 C 0.43407 0.37823 1.00591 0.0
C1209 C 0.45871 0.4013 0.99672 0.0
N1210 N 0.48828 0.41456 0.97016 0.0
N1211 N 0.38755 0.32585 1.00301 0.0
C1212 C 0.46841 0.39221 0.98075 0.0
C1213 C 0.41645 0.34646 0.99758 0.0
N1214 N 0.47188 0.35003 0.96419 0.0
N1215 N 0.42778 0.38653 0.02266 0.0
H1216 H 0.37334 0.30273 0.99677 0.0
H1217 H 0.37639 0.3327 1.01245 0.0
H1218 H 0.44052 0.40961 0.02919 0.0
H1219 H 0.41195 0.37002 0.03074 0.0
H1220 H 0.49374 0.36581 0.95986 0.0
H1221 H 0.46482 0.32622 0.96081 0.0
H1222 H 0.49364 0.40877 0.95742 0.0
H1223 H 0.49691 0.43878 0.97325 0.0
C1224 C 0.11919 0.62503 0.05596 0.0
C1225 C 0.11216 0.64993 0.0559 0.0
C1226 C 0.06281 0.61475 0.03658 0.0
C1227 C 0.06761 0.58881 0.03885 0.0
N1228 N 0.09854 0.5683 0.05299 0.0
N1229 N 0.07432 0.66678 0.04907 0.0
C1230 C 0.09533 0.59365 0.04918 0.0
C1231 C 0.08305 0.6443 0.04708 0.0
N1232 N 0.14897 0.6315 0.0618 0.0
N1233 N 0.04017 0.61177 0.02356 0.0
H1234 H 0.08821 0.68855 0.05696 0.0
H1235 H 0.05195 0.66252 0.04434 0.0
H1236 H 0.027 0.59127 0.01451 0.0
H1237 H 0.03736 0.63074 0.02024 0.0
H1238 H 0.15627 0.61485 0.06033 0.0
H1239 H 0.16735 0.6543 0.06647 0.0
H1240 H 0.11667 0.57019 0.06208 0.0
H1241 H 0.08154 0.54497 0.04837 0.0
C1242 C 0.39103 0.50374 0.05478 0.0
C1243 C 0.36704 0.472 0.05637 0.0
C1244 C 0.39365 0.45229 0.03663 0.0
C1245 C 0.41941 0.48369 0.0368 0.0
N1246 N 0.44476 0.5392 0.04796 0.0
N1247 N 0.34817 0.41584 0.05146 0.0
C1248 C 0.41867 0.50946 0.04635 0.0
C1249 C 0.3691 0.44619 0.04803 0.0
N1250 N 0.38699 0.52839 0.06082 0.0
N1251 N 0.39203 0.42847 0.02498 0.0
H1252 H 0.33001 0.41038 0.05989 0.0
H1253 H 0.35059 0.39642 0.04736 0.0
H1254 H 0.40897 0.43243 0.01588 0.0
H1255 H 0.37241 0.40565 0.02293 0.0
H1256 H 0.40196 0.55179 0.05826 0.0
H1257 H 0.36715 0.52515 0.06711 0.0
H1258 H 0.44702 0.55816 0.05654 0.0
H1259 H 0.46522 0.54445 0.04177 0.0
C1260 C 0.55705 0.91127 0.03008 0.0
C1261 C 0.54316 0.89561 0.04565 0.0
C1262 C 0.50565 0.91481 0.04356 0.0
C1263 C 0.52235 0.9339 0.02972 0.0
N1264 N 0.56499 0.95229 1.0103 0.0
N1265 N 0.5069 0.8854 0.0688 0.0
C1266 C 0.54831 0.93261 0.02305 0.0
C1267 C 0.51799 0.89795 0.05276 0.0
N1268 N 0.57796 0.90506 0.02178 0.0
N1269 N 0.47788 0.91259 0.04779 0.0
H1270 H 0.51546 0.87306 0.07607 0.0
H1271 H 0.4911 0.88949 0.07575 0.0
H1272 H 0.46817 0.92455 0.04123 0.0
H1273 H 0.46298 0.8966 0.05643 0.0
H1274 H 0.5865 0.91323 1.00932 0.0
H1275 H 0.58478 0.88943 0.02655 0.0
H1276 H 0.5864 0.95528 1.00653 0.0
H1277 H 0.5583 0.9671 1.0042 0.0
C1278 C 0.04056 0.21635 0.37286 0.0
C1279 C 0.02439 0.23107 0.3803 0.0
C1280 C 0.05883 0.27948 0.36636 0.0
C1281 C 0.07863 0.26703 0.36196 0.0
N1282 N 0.0881 0.22282 0.3607 0.0
N1283 N 0.01883 0.27724 0.38518 0.0
C1284 C 0.06921 0.23504 0.36482 0.0
C1285 C 0.03356 0.26275 0.37723 0.0
N1286 N 0.0282 0.18437 0.37325 0.0
N1287 N 0.0636 0.30685 0.35954 0.0
H1288 H 0.9998 0.26558 0.39298 0.0
H1289 H 0.02696 0.30143 0.3852 0.0
H1290 H 0.08084 0.31871 0.35067 0.0
H1291 H 0.04834 0.31573 0.36091 0.0
H1292 H 0.03679 0.17146 0.36629 0.0
H1293 H 0.00753 0.1701 0.37927 0.0
H1294 H 0.08472 0.20142 0.36488 0.0
H1295 H 0.1084 0.2347 0.35399 0.0
C1296 C 0.7699 0.82028 0.40179 0.0
C1297 C 0.77768 0.79925 0.39239 0.0
C1298 C 0.73624 0.78658 0.36755 0.0
C1299 C 0.73124 0.81067 0.37572 0.0
N1300 N 0.74676 0.85374 0.39966 0.0
N1301 N 0.77178 0.76587 0.36504 0.0
C1302 C 0.74889 0.82835 0.39264 0.0
C1303 C 0.76188 0.78342 0.37487 0.0
N1304 N 0.7819 0.83189 0.41968 0.0
N1305 N 0.71545 0.76552 0.35343 0.0
H1306 H 0.79037 0.76283 0.36999 0.0
H1307 H 0.76341 0.75667 0.35136 0.0
H1308 H 0.69527 0.76575 0.34836 0.0
H1309 H 0.71621 0.74565 0.34816 0.0
H1310 H 0.77421 0.84429 0.42796 0.0
H1311 H 0.79756 0.82674 0.42683 0.0
H1312 H 0.76191 0.86966 0.41066 0.0
H1313 H 0.73194 0.86088 0.39359 0.0
C1314 C 0.2294 0.97115 0.39795 0.0
C1315 C 0.24019 0.99619 0.38644 0.0
C1316 C 0.22659 0.95844 0.35915 0.0
C1317 C 0.21304 0.93321 0.37046 0.0
N1318 N 0.19862 0.91453 0.4002 0.0
N1319 N 0.24755 0.01448 0.35619 0.0
C1320 C 0.21389 0.93927 0.38978 0.0
C1321 C 0.23841 0.99007 0.36705 0.0
N1322 N 0.23412 0.97792 0.41668 0.0
N1323 N 0.22927 0.95222 0.34105 0.0
H1324 H 0.25804 0.0382 0.36154 0.0
H1325 H 0.24322 0.01121 0.3419 0.0
H1326 H 0.22098 0.92932 0.33482 0.0
H1327 H 0.2419 0.96974 0.33252 0.0
H1328 H 0.23021 0.96115 0.42588 0.0
H1329 H 0.24411 0.00091 0.42318 0.0
H1330 H 0.19507 0.91726 0.41394 0.0
H1331 H 0.1872 0.89082 0.39478 0.0
C1332 C 0.59263 0.6949 0.29957 0.0
C1333 C 0.56068 0.67963 0.30364 0.0
C1334 C 0.57205 0.72558 0.32495 0.0
C1335 C 0.60448 0.73992 0.32186 0.0
N1336 N 0.6468 0.73659 0.30863 0.0
N1337 N 0.52018 0.67817 0.32151 0.0
C1338 C 0.6151 0.72422 0.30974 0.0
C1339 C 0.55048 0.69431 0.31675 0.0
N1340 N 0.60139 0.68147 0.28586 0.0
N1341 N 0.56157 0.74238 0.33504 0.0
H1342 H 0.50309 0.65596 0.31509 0.0
H1343 H 0.51241 0.68577 0.33264 0.0
H1344 H 0.57647 0.76529 0.34138 0.0
H1345 H 0.53778 0.73483 0.33591 0.0
H1346 H 0.62333 0.69308 0.28071 0.0
H1347 H 0.58593 0.65933 0.2787 0.0
H1348 H 0.65634 0.72468 0.30161 0.0
H1349 H 0.66398 0.75778 0.31606 0.0
C1350 C 0.3112 0.87386 0.32562 0.0
C1351 C 0.3081 0.86827 0.30612 0.0
C1352 C 0.25092 0.84705 0.30536 0.0
C1353 C 0.25439 0.85533 0.3247 0.0
N1354 N 0.28867 0.88167 0.35277 0.0
N1355 N 0.27606 0.85325 0.27705 0.0
C1356 C 0.28473 0.86988 0.33476 0.0
C1357 C 0.27825 0.85596 0.29588 0.0
N1358 N 0.33946 0.88286 0.33542 0.0
N1359 N 0.2214 0.82952 0.2961 0.0
H1360 H 0.29523 0.85815 0.26958 0.0
H1361 H 0.25583 0.84834 0.26878 0.0
H1362 H 0.20072 0.82223 0.30245 0.0
H1363 H 0.21718 0.81965 0.2825 0.0
H1364 H 0.34227 0.88366 0.34971 0.0
H1365 H 0.35972 0.88736 0.3292 0.0
H1366 H 0.31069 0.89564 0.36023 0.0
H1367 H 0.27015 0.88 0.35988 0.0
C1368 C 0.12428 0.41425 0.30179 0.0
C1369 C 0.11023 0.42702 0.31335 0.0
C1370 C 0.11956 0.40253 0.33947 0.0
C1371 C 0.13592 0.39196 0.32828 0.0
N1372 N 0.1582 0.39158 0.29969 0.0
N1373 N 0.09748 0.43697 0.34349 0.0
C1374 C 0.13937 0.39875 0.30965 0.0
C1375 C 0.10878 0.42226 0.3323 0.0
N1376 N 0.12284 0.41663 0.28324 0.0
N1377 N 0.113 0.39246 0.35659 0.0
H1378 H 0.0881 0.45049 0.33858 0.0
H1379 H 0.09928 0.43757 0.35779 0.0
H1380 H 0.12037 0.37789 0.36232 0.0
H1381 H 0.09806 0.39632 0.36455 0.0
H1382 H 0.12922 0.40456 0.27377 0.0
H1383 H 0.11304 0.42887 0.27704 0.0
H1384 H 0.16447 0.39897 0.28674 0.0
H1385 H 0.16992 0.38048 0.30497 0.0
C1386 C 0.29701 0.39896 0.3107 0.0
C1387 C 0.31118 0.43245 0.3127 0.0
C1388 C 0.27235 0.42864 0.33376 0.0
C1389 C 0.25615 0.39506 0.33011 0.0
N1390 N 0.25121 0.34797 0.31386 0.0
N1391 N 0.31166 0.47969 0.32477 0.0
C1392 C 0.26802 0.38015 0.31826 0.0
C1393 C 0.29886 0.44749 0.32402 0.0
N1394 N 0.31177 0.38518 0.30196 0.0
N1395 N 0.26217 0.4425 0.34637 0.0
H1396 H 0.33132 0.49424 0.31805 0.0
H1397 H 0.30172 0.4919 0.33101 0.0
H1398 H 0.24188 0.42965 0.35299 0.0
H1399 H 0.27484 0.46649 0.35119 0.0
H1400 H 0.30461 0.36119 0.30181 0.0
H1401 H 0.33296 0.39822 0.29614 0.0
H1402 H 0.25623 0.33622 0.30341 0.0
H1403 H 0.23096 0.33298 0.31994 0.0
C1404 C 0.5916 0.89467 0.31008 0.0
C1405 C 0.56085 0.8698 0.30325 0.0
C1406 C 0.57519 0.83043 0.31155 0.0
C1407 C 0.60453 0.85518 0.32038 0.0
N1408 N 0.63937 0.91092 0.33007 0.0
N1409 N 0.52144 0.81408 0.30009 0.0
C1410 C 0.61248 0.88738 0.32014 0.0
C1411 C 0.55208 0.83767 0.30472 0.0
N1412 N 0.60116 0.92516 0.30649 0.0
N1413 N 0.56997 0.80019 0.30889 0.0
H1414 H 0.50375 0.81839 0.29504 0.0
H1415 H 0.51297 0.79063 0.30278 0.0
H1416 H 0.58696 0.7943 0.31291 0.0
H1417 H 0.5503 0.78175 0.30098 0.0
H1418 H 0.62437 0.94379 0.30934 0.0
H1419 H 0.5865 0.93142 0.29922 0.0
H1420 H 0.64453 0.93437 0.3322 0.0
H1421 H 0.65545 0.90665 0.33744 0.0
C1422 C 0.09771 0.68741 0.33109 0.0
C1423 C 0.11029 0.68129 0.3154 0.0
C1424 C 0.15057 0.73735 0.31713 0.0
C1425 C 0.1352 0.74442 0.33097 0.0
N1426 N 0.09219 0.72587 0.35042 0.0
N1427 N 0.14528 0.70099 0.29145 0.0
C1428 C 0.1083 0.71936 0.33786 0.0
C1429 C 0.13568 0.70645 0.30778 0.0
N1430 N 0.07644 0.66271 0.33989 0.0
N1431 N 0.18039 0.75955 0.31377 0.0
H1432 H 0.1348 0.6786 0.28407 0.0
H1433 H 0.16158 0.7192 0.28442 0.0
H1434 H 0.19333 0.78143 0.32166 0.0
H1435 H 0.19373 0.75476 0.3049 0.0
H1436 H 0.06921 0.66573 0.35261 0.0
H1437 H 0.06802 0.63898 0.33529 0.0
H1438 H 0.07014 0.70892 0.35394 0.0
H1439 H 0.0997 0.74853 0.35656 0.0
C1440 C 0.7447 0.97191 0.39124 0.0
C1441 C 0.77732 0.98224 0.39138 0.0
C1442 C 0.76471 0.93061 0.37631 0.0
C1443 C 0.73205 0.92122 0.37452 0.0
N1444 N 0.69173 0.93566 0.37707 0.0
N1445 N 0.81894 0.97389 0.38156 0.0
C1446 C 0.72218 0.94254 0.38119 0.0
C1447 C 0.78749 0.9623 0.38318 0.0
N1448 N 0.73521 0.98995 0.40095 0.0
N1449 N 0.77403 0.90899 0.37224 0.0
H1450 H 0.83646 0.99681 0.38676 0.0
H1451 H 0.82747 0.96178 0.37374 0.0
H1452 H 0.75841 0.88537 0.36737 0.0
H1453 H 0.797 0.91359 0.37538 0.0
H1454 H 0.71171 0.98198 0.40312 0.0
H1455 H 0.75107 0.01195 0.40815 0.0
H1456 H 0.6842 0.95188 0.3798 0.0
H1457 H 0.67455 0.91492 0.36931 0.0
C1458 C 0.03677 0.78266 0.38136 0.0
C1459 C 0.03606 0.80672 0.39283 0.0
C1460 C 0.08992 0.84498 0.38606 0.0
C1461 C 0.08949 0.82136 0.37351 0.0
N1462 N 0.05878 0.77036 0.35554 0.0
N1463 N 0.0595 0.8623 0.4034 0.0
C1464 C 0.06177 0.79102 0.37 0.0
C1465 C 0.06206 0.83833 0.39454 0.0
N1466 N 0.01415 0.75154 0.3818 0.0
N1467 N 0.11673 0.87404 0.38956 0.0
H1468 H 0.03928 0.85854 0.4094 0.0
H1469 H 0.07624 0.88625 0.40345 0.0
H1470 H 0.13624 0.88103 0.38208 0.0
H1471 H 0.1201 0.89074 0.40031 0.0
H1472 H 0.01539 0.73275 0.37519 0.0
H1473 H 0.99588 0.74429 0.39032 0.0
H1474 H 0.03778 0.74925 0.35131 0.0
H1475 H 0.07606 0.77567 0.34653 0.0
C1476 C 0.24179 0.26109 0.36676 0.0
C1477 C 0.22869 0.24172 0.38115 0.0
C1478 C 0.18629 0.25441 0.38083 0.0
C1479 C 0.20107 0.2761 0.36758 0.0
N1480 N 0.24819 0.3069 0.35243 0.0
N1481 N 0.19253 0.22505 0.40466 0.0
C1482 C 0.23025 0.28128 0.36168 0.0
C1483 C 0.20204 0.23977 0.38898 0.0
N1484 N 0.26499 0.25999 0.3578 0.0
N1485 N 0.15693 0.24712 0.38538 0.0
H1486 H 0.20368 0.21436 0.41124 0.0
H1487 H 0.17551 0.22603 0.41213 0.0
H1488 H 0.14472 0.25776 0.38018 0.0
H1489 H 0.14355 0.22862 0.39319 0.0
H1490 H 0.27306 0.27128 0.34597 0.0
H1491 H 0.2741 0.24545 0.36118 0.0
H1492 H 0.27092 0.31326 0.34924 0.0
H1493 H 0.24214 0.32411 0.35005 0.0
C1494 C 0.69169 0.5682 0.69754 0.0
C1495 C 0.69453 0.56 0.71558 0.0
C1496 C 0.7518 0.58478 0.71496 0.0
C1497 C 0.74945 0.59664 0.69807 0.0
N1498 N 0.71782 0.60183 0.67359 0.0
N1499 N 0.72732 0.56349 0.74254 0.0
C1500 C 0.71953 0.58872 0.68932 0.0
C1501 C 0.7246 0.56898 0.72457 0.0
N1502 N 0.66242 0.55598 0.6882 0.0
N1503 N 0.77994 0.5879 0.72155 0.0
H1504 H 0.70789 0.55166 0.75002 0.0
H1505 H 0.74892 0.57288 0.75048 0.0
H1506 H 0.79996 0.59834 0.71443 0.0
H1507 H 0.7826 0.57727 0.73293 0.0
H1508 H 0.65882 0.55839 0.67436 0.0
H1509 H 0.64157 0.54125 0.69393 0.0
H1510 H 0.6971 0.6001 0.66773 0.0
H1511 H 0.73766 0.61614 0.66692 0.0
C1512 C 0.41635 0.12286 0.7332 0.0
C1513 C 0.44583 0.13291 0.72601 0.0
C1514 C 0.43066 0.15677 0.70176 0.0
C1515 C 0.39972 0.14318 0.70754 0.0
N1516 N 0.36124 0.10652 0.72625 0.0
N1517 N 0.4779 0.15299 0.7008 0.0
C1518 C 0.392 0.12429 0.72257 0.0
C1519 C 0.45207 0.14795 0.70948 0.0
N1520 N 0.41186 0.11297 0.75044 0.0
N1521 N 0.44038 0.17936 0.68964 0.0
H1522 H 0.4937 0.14605 0.70568 0.0
H1523 H 0.48175 0.16102 0.68777 0.0
H1524 H 0.42624 0.18793 0.68432 0.0
H1525 H 0.4637 0.19216 0.68649 0.0
H1526 H 0.3919 0.10844 0.757 0.0
H1527 H 0.4294 0.11247 0.75892 0.0
H1528 H 0.35415 0.09018 0.73601 0.0
H1529 H 0.3424 0.10529 0.71815 0.0
C1530 C 0.89494 0.30652 0.72996 0.0
C1531 C 0.9055 0.33088 0.71798 0.0
C1532 C 0.89293 0.292 0.69144 0.0
C1533 C 0.87971 0.26738 0.70319 0.0
N1534 N 0.86485 0.25019 0.73317 0.0
N1535 N 0.91258 0.34747 0.68734 0.0
C1536 C 0.88005 0.27436 0.72237 0.0
C1537 C 0.90394 0.32381 0.6987 0.0
N1538 N 0.89932 0.3142 0.74862 0.0
N1539 N 0.89616 0.28507 0.67356 0.0
H1540 H 0.92235 0.37132 0.69223 0.0
H1541 H 0.9084 0.34339 0.67305 0.0
H1542 H 0.88863 0.26206 0.66783 0.0
H1543 H 0.9086 0.30223 0.66479 0.0
H1544 H 0.8957 0.29803 0.75818 0.0
H1545 H 0.90871 0.33737 0.75472 0.0
H1546 H 0.8609 0.25353 0.74674 0.0
H1547 H 0.8538 0.22631 0.72816 0.0
C1548 C 0.22121 0.02528 0.65245 0.0
C1549 C 0.22596 0.01484 0.63503 0.0
C1550 C 0.27819 0.06272 0.63669 0.0
C1551 C 0.27172 0.07484 0.65299 0.0
N1552 N 0.2329 0.07067 0.67342 0.0
N1553 N 0.25611 0.0269 0.60867 0.0
C1554 C 0.24204 0.057 0.66007 0.0
C1555 C 0.25362 0.03455 0.62655 0.0
N1556 N 0.19746 0.00472 0.66206 0.0
N1557 N 0.30808 0.07705 0.63132 0.0
H1558 H 0.23831 0.0068 0.60065 0.0
H1559 H 0.2744 0.04213 0.60129 0.0
H1560 H 0.32719 0.09668 0.63888 0.0
H1561 H 0.31459 0.06738 0.62049 0.0
H1562 H 0.19509 0.01046 0.67562 0.0
H1563 H 0.18219 0.98094 0.65726 0.0
H1564 H 0.21025 0.05939 0.67773 0.0
H1565 H 0.24645 0.09446 0.67864 0.0
C1566 C 0.94751 0.18753 0.63223 0.0
C1567 C 0.9777 0.20253 0.64239 0.0
C1568 C 0.95393 0.20549 0.67066 0.0
C1569 C 0.92344 0.18854 0.66072 0.0
N1570 N 0.89074 0.15795 0.63284 0.0
N1571 N 0.00957 0.22162 0.67161 0.0
C1572 C 0.92013 0.17806 0.64171 0.0
C1573 C 0.98085 0.21013 0.66174 0.0
N1574 N 0.94504 0.1829 0.61342 0.0
N1575 N 0.95744 0.21873 0.68827 0.0
H1576 H 0.03 0.2264 0.66548 0.0
H1577 H 0.01274 0.22421 0.68595 0.0
H1578 H 0.93847 0.21629 0.69521 0.0
H1579 H 0.97931 0.23436 0.6955 0.0
H1580 H 0.92425 0.17587 0.60508 0.0
H1581 H 0.96437 0.18839 0.60599 0.0
H1582 H 0.88689 0.14669 0.61962 0.0
H1583 H 0.87009 0.15002 0.6393 0.0
C1584 C 0.79094 0.7475 0.63463 0.0
C1585 C 0.77865 0.76221 0.64617 0.0
C1586 C 0.78709 0.73769 0.67258 0.0
C1587 C 0.80182 0.72515 0.66138 0.0
N1588 N 0.82239 0.72212 0.63251 0.0
N1589 N 0.76841 0.77507 0.67643 0.0
C1590 C 0.80491 0.73104 0.64258 0.0
C1591 C 0.77779 0.75847 0.66526 0.0
N1592 N 0.78884 0.7489 0.61599 0.0
N1593 N 0.78052 0.72846 0.68986 0.0
H1594 H 0.76027 0.78956 0.67144 0.0
H1595 H 0.77076 0.77628 0.69074 0.0
H1596 H 0.78642 0.71283 0.6956 0.0
H1597 H 0.7668 0.73404 0.69794 0.0
H1598 H 0.79375 0.73543 0.60661 0.0
H1599 H 0.77988 0.76178 0.60968 0.0
H1600 H 0.82853 0.72888 0.61944 0.0
H1601 H 0.83317 0.71014 0.63777 0.0
C1602 C 0.96796 0.73899 0.64907 0.0
C1603 C 0.97313 0.76831 0.64329 0.0
C1604 C 0.92652 0.7619 0.65771 0.0
C1605 C 0.91983 0.73138 0.66203 0.0
N1606 N 0.9322 0.68938 0.66097 0.0
N1607 N 0.95722 0.80749 0.64099 0.0
C1608 C 0.94016 0.71961 0.65761 0.0
C1609 C 0.95241 0.77979 0.64737 0.0
N1610 N 0.9898 0.72984 0.6465 0.0
N1611 N 0.90834 0.77389 0.66382 0.0
H1612 H 0.97669 0.82189 0.63408 0.0
H1613 H 0.94121 0.81553 0.64161 0.0
H1614 H 0.88916 0.76123 0.67133 0.0
H1615 H 0.91344 0.79708 0.66273 0.0
H1616 H 0.98948 0.71071 0.65226 0.0
H1617 H 0.00963 0.74257 0.63948 0.0
H1618 H 0.94362 0.67773 0.65607 0.0
H1619 H 0.91282 0.67503 0.66793 0.0
C1620 C 0.2461 0.19382 0.62738 0.0
C1621 C 0.23094 0.20604 0.63841 0.0
C1622 C 0.26053 0.2047 0.66627 0.0
C1623 C 0.2734 0.18965 0.65542 0.0
N1624 N 0.27549 0.16606 0.62593 0.0
N1625 N 0.221 0.22053 0.66836 0.0
C1626 C 0.26561 0.1834 0.63601 0.0
C1627 C 0.2374 0.21076 0.65787 0.0
N1628 N 0.24198 0.19237 0.60861 0.0
N1629 N 0.2714 0.21442 0.68447 0.0
H1630 H 0.20497 0.22661 0.6627 0.0
H1631 H 0.22169 0.22069 0.68263 0.0
H1632 H 0.28841 0.21059 0.69112 0.0
H1633 H 0.26567 0.22864 0.69266 0.0
H1634 H 0.25517 0.18728 0.59981 0.0
H1635 H 0.22686 0.19852 0.60176 0.0
H1636 H 0.26774 0.15758 0.61213 0.0
H1637 H 0.28958 0.1578 0.63169 0.0
C1638 C 0.8125 0.03711 0.65056 0.0
C1639 C 0.7796 0.01519 0.64983 0.0
C1640 C 0.77241 0.05431 0.66812 0.0
C1641 C 0.80408 0.07774 0.66621 0.0
N1642 N 0.85497 0.0918 0.65597 0.0
N1643 N 0.72725 0.00389 0.65574 0.0
C1644 C 0.82432 0.06924 0.65747 0.0
C1645 C 0.75926 0.02397 0.6581 0.0
N1646 N 0.83257 0.02689 0.64535 0.0
N1647 N 0.75506 0.06068 0.67979 0.0
H1648 H 0.71661 0.98155 0.6483 0.0
H1649 H 0.71112 0.01052 0.65972 0.0
H1650 H 0.7643 0.08214 0.68795 0.0
H1651 H 0.73282 0.04353 0.68296 0.0
H1652 H 0.8571 0.04091 0.6473 0.0
H1653 H 0.82482 0.00338 0.64055 0.0
H1654 H 0.86962 0.08827 0.64757 0.0
H1655 H 0.86548 0.11465 0.66268 0.0
C1656 C 0.44816 0.29322 0.7224 0.0
C1657 C 0.43859 0.31626 0.72358 0.0
C1658 C 0.38716 0.27782 0.70709 0.0
C1659 C 0.39561 0.25395 0.70756 0.0
N1660 N 0.4317 0.2374 0.71908 0.0
N1661 N 0.39727 0.32925 0.72006 0.0
C1662 C 0.42546 0.26121 0.71617 0.0
C1663 C 0.40754 0.30819 0.71682 0.0
N1664 N 0.47916 0.3021 0.72667 0.0
N1665 N 0.3605 0.27206 0.6966 0.0
H1666 H 0.41157 0.35174 0.72713 0.0
H1667 H 0.37384 0.3234 0.71718 0.0
H1668 H 0.34546 0.25048 0.68878 0.0
H1669 H 0.35491 0.28959 0.69422 0.0
H1670 H 0.48809 0.28699 0.72412 0.0
H1671 H 0.49663 0.32539 0.73118 0.0
H1672 H 0.4518 0.24097 0.72695 0.0
H1673 H 0.41533 0.21354 0.71525 0.0
C1674 C 0.70379 0.11913 0.71486 0.0
C1675 C 0.70401 0.14363 0.72643 0.0
C1676 C 0.75757 0.18104 0.71878 0.0
C1677 C 0.75636 0.15689 0.7063 0.0
N1678 N 0.72434 0.10572 0.68869 0.0
N1679 N 0.72856 0.19939 0.73676 0.0
C1680 C 0.72824 0.12681 0.70314 0.0
C1681 C 0.73029 0.17503 0.72775 0.0
N1682 N 0.68083 0.08823 0.71557 0.0
N1683 N 0.7846 0.21 0.72177 0.0
H1684 H 0.70883 0.19606 0.74319 0.0
H1685 H 0.74547 0.22323 0.73659 0.0
H1686 H 0.80348 0.21662 0.7138 0.0
H1687 H 0.78873 0.22705 0.73248 0.0
H1688 H 0.68143 0.06909 0.70891 0.0
H1689 H 0.66294 0.08147 0.72433 0.0
H1690 H 0.70305 0.08477 0.68474 0.0
H1691 H 0.74108 0.11061 0.67937 0.0
C1692 C 0.91933 0.61207 0.71051 0.0
C1693 C 0.90085 0.57865 0.71028 0.0
C1694 C 0.85525 0.57881 0.69491 0.0
C1695 C 0.87267 0.61247 0.69705 0.0
N1696 N 0.92033 0.66175 0.70776 0.0
N1697 N 0.85112 0.52974 0.7035 0.0
C1698 C 0.90452 0.62931 0.70503 0.0
C1699 C 0.86881 0.56181 0.70266 0.0
N1700 N 0.9511 0.62716 0.71575 0.0
N1701 N 0.8258 0.5632 0.68545 0.0
H1702 H 0.86059 0.51634 0.70848 0.0
H1703 H 0.82673 0.51655 0.70027 0.0
H1704 H 0.81464 0.5749 0.68021 0.0
H1705 H 0.81318 0.53882 0.68169 0.0
H1706 H 0.9666 0.65101 0.71443 0.0
H1707 H 0.96258 0.6152 0.72009 0.0
H1708 H 0.94219 0.67531 0.71544 0.0
H1709 H 0.91076 0.67532 0.70327 0.0
C1710 C 0.50374 0.00241 0.17303 0.0
C1711 C 0.47793 0.97101 0.173 0.0
C1712 C 0.47157 0.96539 0.13918 0.0
C1713 C 0.49567 0.99762 0.13927 0.0
N1714 N 0.53053 0.04864 0.15626 0.0
N1715 N 0.43343 0.92465 0.15635 0.0
C1716 C 0.51056 0.01668 0.15621 0.0
C1717 C 0.46069 0.95308 0.15614 0.0
N1718 N 0.52254 0.01817 0.189 0.0
N1719 N 0.45989 0.94618 0.12295 0.0
H1720 H 0.42465 0.91499 0.16851 0.0
H1721 H 0.41804 0.91206 0.14461 0.0
H1722 H 0.46738 0.95421 0.11025 0.0
H1723 H 0.44483 0.92171 0.12221 0.0
H1724 H 0.54372 0.03964 0.18949 0.0
H1725 H 0.51845 0.00856 0.2016 0.0
H1726 H 0.53942 0.0643 0.16823 0.0
H1727 H 0.53601 0.05998 0.14423 0.0
C1728 C 0.98193 0.50629 0.17018 0.0
C1729 C 1.00026 0.49307 0.17659 0.0
C1730 C 0.99737 0.47046 0.14524 0.0
C1731 C 0.9822 0.48672 0.13861 0.0
N1732 N 0.96368 0.5236 0.14422 0.0
N1733 N 0.02908 0.46602 0.17026 0.0
C1734 C 0.97535 0.50553 0.15094 0.0
C1735 C 0.0089 0.47596 0.16414 0.0
N1736 N 0.97026 0.51896 0.18253 0.0
N1737 N 1.00002 0.44917 0.13354 0.0
H1738 H 0.0378 0.46932 0.18405 0.0
H1739 H 0.03912 0.45668 0.16151 0.0
H1740 H 0.99188 0.44456 0.11958 0.0
H1741 H 0.0078 0.4341 0.13794 0.0
H1742 H 0.95403 0.52595 0.17876 0.0
H1743 H 0.97462 0.5199 0.19676 0.0
H1744 H 0.96155 0.54049 0.15242 0.0
H1745 H 0.9585 0.52366 0.13019 0.0
C1746 C 0.45237 0.45247 0.16193 0.0
C1747 C 0.44661 0.47775 0.16637 0.0
C1748 C 0.4418 0.48344 0.13353 0.0
C1749 C 0.45694 0.46568 0.13001 0.0
N1750 N 0.44998 0.41546 0.13747 0.0
N1751 N 0.43462 0.51705 0.15589 0.0
C1752 C 0.45469 0.44471 0.14324 0.0
C1753 C 0.44059 0.49296 0.15201 0.0
N1754 N 0.45596 0.43612 0.17548 0.0
N1755 N 0.424 0.48641 0.11964 0.0
H1756 H 0.43374 0.52508 0.16927 0.0
H1757 H 0.43298 0.5305 0.14578 0.0
H1758 H 0.41953 0.47414 0.10661 0.0
H1759 H 0.41019 0.49682 0.12181 0.0
H1760 H 0.46382 0.42004 0.17321 0.0
H1761 H 0.45259 0.43982 0.18918 0.0
H1762 H 0.44523 0.39785 0.14622 0.0
H1763 H 0.44667 0.40765 0.12347 0.0
C1764 C 0.02571 0.55112 0.86358 0.0
C1765 C 0.99667 0.5249 0.85545 0.0
C1766 C 0.97753 0.51586 0.88584 0.0
C1767 C 0.00899 0.53519 0.89397 0.0
N1768 N 0.05241 0.58734 0.89109 0.0
N1769 N 0.94398 0.48216 0.85906 0.0
C1770 C 0.03052 0.55782 0.88305 0.0
C1771 C 0.97216 0.50733 0.86662 0.0
N1772 N 0.04871 0.5694 0.85284 0.0
N1773 N 0.95291 0.51048 0.89575 0.0
H1774 H 0.93904 0.47475 0.84498 0.0
H1775 H 0.92667 0.46725 0.86711 0.0
H1776 H 0.95672 0.52192 0.90897 0.0
H1777 H 0.92948 0.49881 0.88995 0.0
H1778 H 0.07152 0.58654 0.85828 0.0
H1779 H 0.04553 0.56618 0.83848 0.0
H1780 H 0.06693 0.60599 0.88368 0.0
H1781 H 0.05288 0.59401 0.90501 0.0
C1782 C 0.54427 0.54506 0.86351 0.0
C1783 C 0.53958 0.51549 0.85582 0.0
C1784 C 0.52176 0.49232 0.88474 0.0
C1785 C 0.52323 0.52083 0.89171 0.0
N1786 N 0.53402 0.57385 0.88787 0.0
N1787 N 0.52174 0.46012 0.85815 0.0
C1788 C 0.53417 0.54718 0.88117 0.0
C1789 C 0.52796 0.48893 0.86623 0.0
N1790 N 0.55878 0.57114 0.85399 0.0
N1791 N 0.51473 0.46862 0.89592 0.0
H1792 H 0.52692 0.45685 0.84483 0.0
H1793 H 0.50962 0.43896 0.86413 0.0
H1794 H 0.50908 0.46981 0.90938 0.0
H1795 H 0.51675 0.44878 0.89243 0.0
H1796 H 0.56583 0.59411 0.85947 0.0
H1797 H 0.56597 0.57017 0.84091 0.0
H1798 H 0.53822 0.59255 0.88013 0.0
H1799 H 0.52791 0.57661 0.90101 0.0
C1800 C 0.52689 0.05458 0.87255 0.0
C1801 C 0.53125 0.037 0.85796 0.0
C1802 C 0.51646 0.9927 0.87694 0.0
C1803 C 0.51372 0.01094 0.89182 0.0
N1804 N 0.52134 0.06093 0.90509 0.0
N1805 N 0.53558 0.99191 0.84709 0.0
C1806 C 0.52051 0.04245 0.89001 0.0
C1807 C 0.52758 0.00676 0.8604 0.0
N1808 N 0.52759 0.08227 0.86948 0.0
N1809 N 0.50767 0.96166 0.87848 0.0
H1810 H 0.5437 0.00148 0.8348 0.0
H1811 H 0.53667 0.97145 0.84878 0.0
H1812 H 0.50037 0.95087 0.89056 0.0
H1813 H 0.50555 0.94596 0.86748 0.0
H1814 H 0.52105 0.09435 0.87883 0.0
H1815 H 0.53245 0.09207 0.85695 0.0
H1816 H 0.52959 0.08516 0.90523 0.0
H1817 H 0.51606 0.05262 0.91799 0.0
C1818 C 0.12464 0.28724 0.49141 0.0
C1819 C 0.14286 0.30575 0.50794 0.0
C1820 C 0.1733 0.35109 0.49036 0.0
C1821 C 0.15745 0.33152 0.47368 0.0
N1822 N 0.12117 0.27963 0.45807 0.0
N1823 N 0.18772 0.35376 0.52297 0.0
C1824 C 0.13389 0.29921 0.47413 0.0
C1825 C 0.16803 0.33732 0.50738 0.0
N1826 N 0.09798 0.25855 0.49225 0.0
N1827 N 0.19278 0.38303 0.48997 0.0
H1828 H 0.18475 0.34455 0.53569 0.0
H1829 H 0.20854 0.37544 0.523 0.0
H1830 H 0.19718 0.39397 0.47779 0.0
H1831 H 0.20233 0.39906 0.50178 0.0
H1832 H 0.08186 0.24545 0.48087 0.0
H1833 H 0.09042 0.24908 0.50465 0.0
H1834 H 0.10654 0.25512 0.45761 0.0
H1835 H 0.1273 0.28746 0.44516 0.0
C1836 C 0.63954 0.8334 0.50406 0.0
C1837 C 0.65902 0.82128 0.51018 0.0
C1838 C 0.65561 0.79866 0.47874 0.0
C1839 C 0.63965 0.8143 0.47232 0.0
N1840 N 0.61946 0.84966 0.47838 0.0
N1841 N 0.68879 0.79541 0.50336 0.0
C1842 C 0.63223 0.83238 0.48486 0.0
C1843 C 0.66778 0.80452 0.49755 0.0
N1844 N 0.62761 0.8454 0.51664 0.0
N1845 N 0.65852 0.7777 0.46691 0.0
H1846 H 0.69801 0.79899 0.51707 0.0
H1847 H 0.69892 0.78646 0.49442 0.0
H1848 H 0.64985 0.77281 0.45303 0.0
H1849 H 0.66699 0.7631 0.47116 0.0
H1850 H 0.61069 0.85162 0.51311 0.0
H1851 H 0.63248 0.84646 0.53083 0.0
H1852 H 0.61687 0.86611 0.48671 0.0
H1853 H 0.61368 0.84949 0.4644 0.0
C1854 C 0.14165 0.84211 0.49249 0.0
C1855 C 0.13325 0.81671 0.5036 0.0
C1856 C 0.14541 0.78796 0.47977 0.0
C1857 C 0.15295 0.81297 0.46847 0.0
N1858 N 0.15304 0.861 0.46235 0.0
N1859 N 0.12183 0.7634 0.50704 0.0
C1860 C 0.14936 0.83914 0.4743 0.0
C1861 C 0.13349 0.78894 0.49697 0.0
N1862 N 0.14356 0.86963 0.49963 0.0
N1863 N 0.15049 0.76377 0.47423 0.0
H1864 H 0.11324 0.76357 0.51976 0.0
H1865 H 0.11836 0.74128 0.50226 0.0
H1866 H 0.15809 0.76176 0.46143 0.0
H1867 H 0.14896 0.74669 0.48263 0.0
H1868 H 0.15325 0.8904 0.49312 0.0
H1869 H 0.13742 0.87254 0.51273 0.0
H1870 H 0.14723 0.87856 0.46496 0.0
H1871 H 0.15965 0.8602 0.44909 0.0
C1872 C 0.64958 0.80902 0.19528 0.0
C1873 C 0.66008 0.83723 0.18646 0.0
C1874 C 0.68618 0.86945 0.21583 0.0
C1875 C 0.67813 0.84128 0.22425 0.0
N1876 N 0.65641 0.78455 0.2217 0.0
N1877 N 0.69165 0.89419 0.18741 0.0
C1878 C 0.66096 0.8111 0.2139 0.0
C1879 C 0.6793 0.86747 0.19648 0.0
N1880 N 0.62798 0.78032 0.18601 0.0
N1881 N 0.69956 0.89794 0.22643 0.0
H1882 H 0.68675 0.89362 0.17327 0.0
H1883 H 0.70861 0.9166 0.19357 0.0
H1884 H 0.70512 0.90031 0.24063 0.0
H1885 H 0.70285 0.9188 0.22144 0.0
H1886 H 0.61674 0.75936 0.19229 0.0
H1887 H 0.6192 0.77777 0.17229 0.0
H1888 H 0.64721 0.76239 0.21428 0.0
H1889 H 0.66423 0.78507 0.23536 0.0
C1890 C 0.16722 0.83796 0.19191 0.0
C1891 C 0.19889 0.84559 0.19031 0.0
C1892 C 0.21227 0.86248 0.22344 0.0
C1893 C 0.17992 0.85181 0.2253 0.0
N1894 N 0.12576 0.82604 0.21197 0.0
N1895 N 0.25123 0.86256 0.20433 0.0
C1896 C 0.15716 0.83882 0.20969 0.0
C1897 C 0.2214 0.85728 0.20602 0.0
N1898 N 0.14688 0.83022 0.17638 0.0
N1899 N 0.23429 0.87819 0.23827 0.0
H1900 H 0.25904 0.86012 0.19167 0.0
H1901 H 0.26767 0.86746 0.21549 0.0
H1902 H 0.22838 0.88218 0.25126 0.0
H1903 H 0.25858 0.88939 0.23747 0.0
H1904 H 0.12457 0.82783 0.17646 0.0
H1905 H 0.15319 0.82861 0.16314 0.0
H1906 H 0.10768 0.8129 0.20147 0.0
H1907 H 0.11745 0.82646 0.22475 0.0
C1908 C 0.19803 0.38915 0.20499 0.0
C1909 C 0.19844 0.37012 0.18965 0.0
C1910 C 0.18083 0.32497 0.20818 0.0
C1911 C 0.18292 0.34473 0.22389 0.0
N1912 N 0.19889 0.397 0.23816 0.0
N1913 N 0.19591 0.32187 0.17742 0.0
C1914 C 0.19309 0.37726 0.22256 0.0
C1915 C 0.19147 0.33856 0.19148 0.0
N1916 N 0.20117 0.41812 0.20265 0.0
N1917 N 0.16761 0.29299 0.20902 0.0
H1918 H 0.20382 0.33109 0.16503 0.0
H1919 H 0.1945 0.30007 0.17864 0.0
H1920 H 0.15948 0.28212 0.22098 0.0
H1921 H 0.16222 0.27688 0.19752 0.0
H1922 H 0.19756 0.43153 0.21281 0.0
H1923 H 0.20477 0.42767 0.19002 0.0
H1924 H 0.20961 0.42157 0.23834 0.0
H1925 H 0.19549 0.38916 0.25125 0.0
C1926 C 0.81832 0.66903 0.83909 0.0
C1927 C 0.79741 0.6359 0.83909 0.0
C1928 C 0.7808 0.63339 0.80639 0.0
C1929 C 0.80686 0.66444 0.8056 0.0
N1930 N 0.82754 0.71473 0.82378 0.0
N1931 N 0.75701 0.58629 0.82262 0.0
C1932 C 0.81957 0.68361 0.82269 0.0
C1933 C 0.77808 0.61796 0.8227 0.0
N1934 N 0.8375 0.68667 0.85458 0.0
N1935 N 0.75589 0.62114 0.7931 0.0
H1936 H 0.75301 0.57441 0.83445 0.0
H1937 H 0.74499 0.57158 0.81054 0.0
H1938 H 0.75454 0.63482 0.78302 0.0
H1939 H 0.73492 0.59983 0.7937 0.0
H1940 H 0.85509 0.71037 0.85456 0.0
H1941 H 0.83762 0.67699 0.8669 0.0
H1942 H 0.83427 0.7291 0.83622 0.0
H1943 H 0.82263 0.72442 0.81256 0.0
C1944 C 0.2944 0.15156 0.83656 0.0
C1945 C 0.3175 0.14433 0.84334 0.0
C1946 C 0.32222 0.12782 0.81194 0.0
C1947 C 0.30229 0.13897 0.80507 0.0
N1948 N 0.27231 0.1651 0.81051 0.0
N1949 N 0.35644 0.12919 0.83765 0.0
C1950 C 0.28897 0.15168 0.81729 0.0
C1951 C 0.33214 0.13324 0.83109 0.0
N1952 N 0.27731 0.15778 0.84856 0.0
N1953 N 0.33109 0.11146 0.80021 0.0
H1954 H 0.36429 0.13268 0.85161 0.0
H1955 H 0.37045 0.12475 0.82916 0.0
H1956 H 0.32421 0.107 0.78608 0.0
H1957 H 0.34287 0.09989 0.80466 0.0
H1958 H 0.25794 0.16005 0.84436 0.0
H1959 H 0.28067 0.15779 0.86279 0.0
H1960 H 0.26508 0.1779 0.81881 0.0
H1961 H 0.26786 0.16573 0.79647 0.0
C1962 C 0.79958 0.11672 0.83174 0.0
C1963 C 0.78824 0.13779 0.83617 0.0
C1964 C 0.77786 0.13936 0.80328 0.0
C1965 C 0.79805 0.12726 0.79945 0.0
N1966 N 0.80303 0.08289 0.80746 0.0
N1967 N 0.76604 0.16932 0.82552 0.0
C1968 C 0.80201 0.10951 0.81294 0.0
C1969 C 0.77678 0.14883 0.82177 0.0
N1970 N 0.8082 0.10378 0.84538 0.0
N1971 N 0.75632 0.13722 0.7898 0.0
H1972 H 0.76567 0.17789 0.83886 0.0
H1973 H 0.76007 0.17981 0.81519 0.0
H1974 H 0.75321 0.12533 0.77681 0.0
H1975 H 0.73911 0.1432 0.79233 0.0
H1976 H 0.82009 0.09139 0.84306 0.0
H1977 H 0.8047 0.10667 0.85914 0.0
H1978 H 0.80301 0.06714 0.81648 0.0
H1979 H 0.79955 0.07455 0.79355 0.0
C1980 C 0.35537 0.21717 0.5324 0.0
C1981 C 0.32734 0.18986 0.52413 0.0
C1982 C 0.30935 0.17759 0.55462 0.0
C1983 C 0.34058 0.19878 0.56262 0.0
N1984 N 0.37964 0.25316 0.56014 0.0
N1985 N 0.27648 0.14405 0.52757 0.0
C1986 C 0.36025 0.22311 0.5519 0.0
C1987 C 0.30378 0.1702 0.53527 0.0
N1988 N 0.37736 0.23732 0.52175 0.0
N1989 N 0.28462 0.16869 0.56504 0.0
H1990 H 0.27144 0.13752 0.5134 0.0
H1991 H 0.26012 0.12761 0.53548 0.0
H1992 H 0.28807 0.1784 0.57867 0.0
H1993 H 0.26105 0.15555 0.55952 0.0
H1994 H 0.39963 0.25559 0.52726 0.0
H1995 H 0.37401 0.23461 0.50739 0.0
H1996 H 0.39246 0.27263 0.55285 0.0
H1997 H 0.37918 0.25902 0.57406 0.0
C1998 C 0.89499 0.19064 0.54036 0.0
C1999 C 0.87247 0.17659 0.52467 0.0
C2000 C 0.82966 0.16708 0.54379 0.0
C2001 C 0.85232 0.18259 0.55932 0.0
N2002 N 0.90671 0.21347 0.57223 0.0
N2003 N 0.81944 0.15629 0.51055 0.0
C2004 C 0.88509 0.19566 0.55756 0.0
C2005 C 0.84011 0.16634 0.52612 0.0
N2006 N 0.92562 0.19833 0.53888 0.0
N2007 N 0.7981 0.1519 0.54606 0.0
H2008 H 0.82607 0.1548 0.49738 0.0
H2009 H 0.79635 0.15186 0.51046 0.0
H2010 H 0.78947 0.15208 0.55876 0.0
H2011 H 0.78045 0.13706 0.5357 0.0
H2012 H 0.94244 0.20522 0.55013 0.0
H2013 H 0.93386 0.19592 0.52637 0.0
H2014 H 0.93099 0.22635 0.5714 0.0
H2015 H 0.90026 0.21738 0.58506 0.0
C2016 C 0.8501 0.66808 0.52422 0.0
C2017 C 0.86047 0.70066 0.52295 0.0
C2018 C 0.85709 0.70794 0.5561 0.0
C2019 C 0.84344 0.67472 0.5569 0.0
N2020 N 0.82168 0.62228 0.54103 0.0
N2021 N 0.86861 0.75054 0.53696 0.0
C2022 C 0.83849 0.65451 0.54075 0.0
C2023 C 0.86258 0.72035 0.53871 0.0
N2024 N 0.85225 0.65031 0.5098 0.0
N2025 N 0.86577 0.72777 0.57201 0.0
H2026 H 0.87247 0.76045 0.52444 0.0
H2027 H 0.86701 0.76475 0.54755 0.0
H2028 H 0.86238 0.71964 0.58503 0.0
H2029 H 0.8789 0.75242 0.57242 0.0
H2030 H 0.84817 0.62737 0.51063 0.0
H2031 H 0.86101 0.65951 0.49754 0.0
H2032 H 0.81443 0.60637 0.52922 0.0
H2033 H 0.8124 0.61139 0.5528 0.0
loop_
_geom_bond_atom_site_label_1
_geom_bond_atom_site_label_2
_geom_bond_distance
_geom_bond_site_symmetry_2
_ccdc_geom_bond_type
C0 C1 1.386 . S
C0 C2 1.397 . S
C0 H24 0.931 . S
C1 C0 1.386 . S
C1 C5 1.397 . S
C2 C0 1.397 . S
C2 C3 1.384 . S
C2 H25 0.930 . S
C3 C2 1.384 . S
C3 C4 1.377 . S
C3 C6 1.481 . S
C4 C3 1.377 . S
C4 C5 1.389 . S
C4 H26 0.929 . S
C5 C1 1.397 . S
C5 C4 1.389 . S
C5 H27 0.931 . S
C6 C3 1.481 . S
C6 C7 1.387 . S
C6 C11 1.390 . S
C7 C6 1.387 . S
C7 C8 1.401 . S
C7 H28 0.930 . S
C8 C7 1.401 . S
C8 C9 1.376 . S
C8 C17 1.511 . S
C9 C8 1.376 . S
C9 C10 1.392 . S
C9 H30 0.931 . S
C10 C9 1.392 . S
C10 C11 1.361 . S
C10 C12 1.500 . S
C11 C6 1.390 . S
C11 C10 1.361 . S
C11 H29 0.931 . S
C12 C10 1.500 . S
C12 C13 1.371 . S
C12 C14 1.365 . S
C13 C12 1.371 . S
C13 C23 1.386 . S
C13 H31 0.931 . S
C14 C12 1.365 . S
C14 C15 1.409 . S
C14 H32 0.929 . S
C15 C14 1.409 . S
C15 C16 1.380 . S
C15 H33 0.930 . S
C16 C15 1.380 . S
C16 C23 1.357 . S
C17 C8 1.511 . S
C17 C18 1.341 . S
C17 C19 1.371 . S
C18 C17 1.341 . S
C18 C22 1.394 . S
C18 H34 0.930 . S
C19 C17 1.371 . S
C19 C20 1.392 . S
C19 H35 0.931 . S
C20 C19 1.392 . S
C20 C21 1.331 . S
C20 H38 0.932 . S
C21 C20 1.331 . S
C21 C22 1.336 . S
C22 C18 1.394 . S
C22 C21 1.336 . S
C22 H37 0.929 . S
C23 C13 1.386 . S
C23 C16 1.357 . S
C23 H36 0.928 . S
H24 C0 0.931 . S
H25 C2 0.930 . S
H26 C4 0.929 . S
H27 C5 0.931 . S
H28 C7 0.930 . S
H29 C11 0.931 . S
H30 C9 0.931 . S
H31 C13 0.931 . S
H32 C14 0.929 . S
H33 C15 0.930 . S
H34 C18 0.930 . S
H35 C19 0.931 . S
H36 C23 0.928 . S
H37 C22 0.929 . S
H38 C20 0.932 . S
C39 C40 1.386 . S
C39 C41 1.397 . S
C39 H63 0.931 . S
C40 C39 1.386 . S
C40 C44 1.397 . S
C41 C39 1.397 . S
C41 C42 1.384 . S
C41 H64 0.930 . S
C42 C41 1.384 . S
C42 C43 1.377 . S
C42 C45 1.481 . S
C43 C42 1.377 . S
C43 C44 1.389 . S
C43 H65 0.929 . S
C44 C40 1.397 . S
C44 C43 1.389 . S
C44 H66 0.931 . S
C45 C42 1.481 . S
C45 C46 1.387 . S
C45 C50 1.390 . S
C46 C45 1.387 . S
C46 C47 1.401 . S
C46 H67 0.930 . S
C47 C46 1.401 . S
C47 C48 1.376 . S
C47 C56 1.511 . S
C48 C47 1.376 . S
C48 C49 1.392 . S
C48 H69 0.931 . S
C49 C48 1.392 . S
C49 C50 1.361 . S
C49 C51 1.500 . S
C50 C45 1.390 . S
C50 C49 1.361 . S
C50 H68 0.931 . S
C51 C49 1.500 . S
C51 C52 1.371 . S
C51 C53 1.365 . S
C52 C51 1.371 . S
C52 C62 1.386 . S
C52 H70 0.931 . S
C53 C51 1.365 . S
C53 C54 1.409 . S
C53 H71 0.929 . S
C54 C53 1.409 . S
C54 C55 1.380 . S
C54 H72 0.930 . S
C55 C54 1.380 . S
C55 C62 1.357 . S
C56 C47 1.511 . S
C56 C57 1.341 . S
C56 C58 1.371 . S
C57 C56 1.341 . S
C57 C61 1.394 . S
C57 H73 0.930 . S
C58 C56 1.371 . S
C58 C59 1.392 . S
C58 H74 0.931 . S
C59 C58 1.392 . S
C59 C60 1.331 . S
C59 H77 0.932 . S
C60 C59 1.331 . S
C60 C61 1.336 . S
C61 C57 1.394 . S
C61 C60 1.336 . S
C61 H76 0.929 . S
C62 C52 1.386 . S
C62 C55 1.357 . S
C62 H75 0.928 . S
H63 C39 0.931 . S
H64 C41 0.930 . S
H65 C43 0.929 . S
H66 C44 0.931 . S
H67 C46 0.930 . S
H68 C50 0.931 . S
H69 C48 0.931 . S
H70 C52 0.931 . S
H71 C53 0.929 . S
H72 C54 0.930 . S
H73 C57 0.930 . S
H74 C58 0.931 . S
H75 C62 0.928 . S
H76 C61 0.929 . S
H77 C59 0.932 . S
C78 C79 1.386 . S
C78 C80 1.397 . S
C78 H102 0.931 . S
C79 C78 1.386 . S
C79 C83 1.397 . S
C80 C78 1.397 . S
C80 C81 1.384 . S
C80 H103 0.930 . S
C81 C80 1.384 . S
C81 C82 1.377 . S
C81 C84 1.481 . S
C82 C81 1.377 . S
C82 C83 1.389 . S
C82 H104 0.929 . S
C83 C79 1.397 . S
C83 C82 1.389 . S
C83 H105 0.931 . S
C84 C81 1.481 . S
C84 C85 1.387 . S
C84 C89 1.390 . S
C85 C84 1.387 . S
C85 C86 1.401 . S
C85 H106 0.930 . S
C86 C85 1.401 . S
C86 C87 1.376 . S
C86 C95 1.511 . S
C87 C86 1.376 . S
C87 C88 1.392 . S
C87 H108 0.931 . S
C88 C87 1.392 . S
C88 C89 1.361 . S
C88 C90 1.500 . S
C89 C84 1.390 . S
C89 C88 1.361 . S
C89 H107 0.931 . S
C90 C88 1.500 . S
C90 C91 1.371 . S
C90 C92 1.365 . S
C91 C90 1.371 . S
C91 C101 1.386 . S
C91 H109 0.931 . S
C92 C90 1.365 . S
C92 C93 1.409 . S
C92 H110 0.929 . S
C93 C92 1.409 . S
C93 C94 1.380 . S
C93 H111 0.930 . S
C94 C93 1.380 . S
C94 C101 1.357 . S
C95 C86 1.511 . S
C95 C96 1.341 . S
C95 C97 1.371 . S
C96 C95 1.341 . S
C96 C100 1.394 . S
C96 H112 0.930 . S
C97 C95 1.371 . S
C97 C98 1.392 . S
C97 H113 0.931 . S
C98 C97 1.392 . S
C98 C99 1.331 . S
C98 H116 0.932 . S
C99 C98 1.331 . S
C99 C100 1.336 . S
C100 C96 1.394 . S
C100 C99 1.336 . S
C100 H115 0.929 1_655 S
C101 C91 1.386 . S
C101 C94 1.357 . S
C101 H114 0.928 . S
H102 C78 0.931 . S
H103 C80 0.930 . S
H104 C82 0.929 . S
H105 C83 0.931 . S
H106 C85 0.930 . S
H107 C89 0.931 . S
H108 C87 0.931 . S
H109 C91 0.931 . S
H110 C92 0.929 . S
H111 C93 0.930 . S
H112 C96 0.930 . S
H113 C97 0.931 . S
H114 C101 0.928 . S
H115 C100 0.929 1_455 S
H116 C98 0.932 . S
C117 C118 1.386 . S
C117 C119 1.397 . S
C117 H141 0.931 . S
C118 C117 1.386 . S
C118 C122 1.397 . S
C119 C117 1.397 . S
C119 C120 1.384 . S
C119 H142 0.930 . S
C120 C119 1.384 . S
C120 C121 1.377 . S
C120 C123 1.481 . S
C121 C120 1.377 . S
C121 C122 1.389 . S
C121 H143 0.929 . S
C122 C118 1.397 . S
C122 C121 1.389 . S
C122 H144 0.931 . S
C123 C120 1.481 . S
C123 C124 1.387 . S
C123 C128 1.390 . S
C124 C123 1.387 . S
C124 C125 1.401 . S
C124 H145 0.930 . S
C125 C124 1.401 . S
C125 C126 1.376 . S
C125 C134 1.511 . S
C126 C125 1.376 . S
C126 C127 1.392 . S
C126 H147 0.931 . S
C127 C126 1.392 . S
C127 C128 1.361 . S
C127 C129 1.500 . S
C128 C123 1.390 . S
C128 C127 1.361 . S
C128 H146 0.931 . S
C129 C127 1.500 . S
C129 C130 1.371 . S
C129 C131 1.365 . S
C130 C129 1.371 . S
C130 C140 1.386 . S
C130 H148 0.931 . S
C131 C129 1.365 . S
C131 C132 1.409 . S
C131 H149 0.929 . S
C132 C131 1.409 . S
C132 C133 1.380 . S
C132 H150 0.930 . S
C133 C132 1.380 . S
C133 C140 1.357 . S
C134 C125 1.511 . S
C134 C135 1.341 . S
C134 C136 1.371 . S
C135 C134 1.341 . S
C135 C139 1.394 . S
C135 H151 0.930 . S
C136 C134 1.371 . S
C136 C137 1.392 . S
C136 H152 0.931 . S
C137 C136 1.392 . S
C137 C138 1.331 . S
C137 H155 0.932 . S
C138 C137 1.331 . S
C138 C139 1.336 . S
C139 C135 1.394 . S
C139 C138 1.336 . S
C139 H154 0.929 . S
C140 C130 1.386 . S
C140 C133 1.357 . S
C140 H153 0.928 . S
H141 C117 0.931 . S
H142 C119 0.930 . S
H143 C121 0.929 . S
H144 C122 0.931 . S
H145 C124 0.930 . S
H146 C128 0.931 . S
H147 C126 0.931 . S
H148 C130 0.931 . S
H149 C131 0.929 . S
H150 C132 0.930 . S
H151 C135 0.930 . S
H152 C136 0.931 . S
H153 C140 0.928 . S
H154 C139 0.929 . S
H155 C137 0.932 . S
C156 C157 1.386 . S
C156 C158 1.397 . S
C156 H180 0.931 . S
C157 C156 1.386 . S
C157 C161 1.397 . S
C158 C156 1.397 . S
C158 C159 1.384 . S
C158 H181 0.930 . S
C159 C158 1.384 . S
C159 C160 1.377 . S
C159 C162 1.481 . S
C160 C159 1.377 . S
C160 C161 1.389 . S
C160 H182 0.929 . S
C161 C157 1.397 . S
C161 C160 1.389 . S
C161 H183 0.931 . S
C162 C159 1.481 . S
C162 C163 1.387 . S
C162 C167 1.390 . S
C163 C162 1.387 . S
C163 C164 1.401 . S
C163 H184 0.930 . S
C164 C163 1.401 . S
C164 C165 1.376 . S
C164 C173 1.511 . S
C165 C164 1.376 . S
C165 C166 1.392 . S
C165 H186 0.931 . S
C166 C165 1.392 . S
C166 C167 1.361 . S
C166 C168 1.500 . S
C167 C162 1.390 . S
C167 C166 1.361 . S
C167 H185 0.931 . S
C168 C166 1.500 . S
C168 C169 1.371 . S
C168 C170 1.365 . S
C169 C168 1.371 . S
C169 C179 1.386 . S
C169 H187 0.931 . S
C170 C168 1.365 . S
C170 C171 1.409 . S
C170 H188 0.929 . S
C171 C170 1.409 . S
C171 C172 1.380 . S
C171 H189 0.930 . S
C172 C171 1.380 . S
C172 C179 1.357 . S
C173 C164 1.511 . S
C173 C174 1.341 . S
C173 C175 1.371 . S
C174 C173 1.341 . S
C174 C178 1.394 . S
C174 H190 0.930 . S
C175 C173 1.371 . S
C175 C176 1.392 . S
C175 H191 0.931 . S
C176 C175 1.392 . S
C176 C177 1.331 . S
C176 H194 0.932 . S
C177 C176 1.331 . S
C177 C178 1.336 . S
C178 C174 1.394 . S
C178 C177 1.336 . S
C178 H193 0.929 . S
C179 C169 1.386 . S
C179 C172 1.357 . S
C179 H192 0.928 . S
H180 C156 0.931 . S
H181 C158 0.930 . S
H182 C160 0.929 . S
H183 C161 0.931 . S
H184 C163 0.930 . S
H185 C167 0.931 . S
H186 C165 0.931 . S
H187 C169 0.931 . S
H188 C170 0.929 . S
H189 C171 0.930 . S
H190 C174 0.930 . S
H191 C175 0.931 . S
H192 C179 0.928 . S
H193 C178 0.929 . S
H194 C176 0.932 . S
C195 C196 1.386 . S
C195 C197 1.397 . S
C195 H219 0.931 . S
C196 C195 1.386 . S
C196 C200 1.397 . S
C197 C195 1.397 . S
C197 C198 1.384 . S
C197 H220 0.930 . S
C198 C197 1.384 . S
C198 C199 1.377 . S
C198 C201 1.481 . S
C199 C198 1.377 . S
C199 C200 1.389 . S
C199 H221 0.929 . S
C200 C196 1.397 . S
C200 C199 1.389 . S
C200 H222 0.931 . S
C201 C198 1.481 . S
C201 C202 1.387 . S
C201 C206 1.390 . S
C202 C201 1.387 . S
C202 C203 1.401 . S
C202 H223 0.930 . S
C203 C202 1.401 . S
C203 C204 1.376 . S
C203 C212 1.511 . S
C204 C203 1.376 . S
C204 C205 1.392 . S
C204 H225 0.931 . S
C205 C204 1.392 . S
C205 C206 1.361 . S
C205 C207 1.500 . S
C206 C201 1.390 . S
C206 C205 1.361 . S
C206 H224 0.931 . S
C207 C205 1.500 . S
C207 C208 1.371 . S
C207 C209 1.365 . S
C208 C207 1.371 . S
C208 C218 1.386 . S
C208 H226 0.931 . S
C209 C207 1.365 . S
C209 C210 1.409 . S
C209 H227 0.929 . S
C210 C209 1.409 . S
C210 C211 1.380 . S
C210 H228 0.930 . S
C211 C210 1.380 . S
C211 C218 1.357 . S
C212 C203 1.511 . S
C212 C213 1.341 . S
C212 C214 1.371 . S
C213 C212 1.341 . S
C213 C217 1.394 . S
C213 H229 0.930 . S
C214 C212 1.371 . S
C214 C215 1.392 . S
C214 H230 0.931 . S
C215 C214 1.392 . S
C215 C216 1.331 . S
C215 H233 0.932 . S
C216 C215 1.331 . S
C216 C217 1.336 . S
C217 C213 1.394 . S
C217 C216 1.336 . S
C217 H232 0.929 . S
C218 C208 1.386 . S
C218 C211 1.357 . S
C218 H231 0.928 . S
H219 C195 0.931 . S
H220 C197 0.930 . S
H221 C199 0.929 . S
H222 C200 0.931 . S
H223 C202 0.930 . S
H224 C206 0.931 . S
H225 C204 0.931 . S
H226 C208 0.931 . S
H227 C209 0.929 . S
H228 C210 0.930 . S
H229 C213 0.930 . S
H230 C214 0.931 . S
H231 C218 0.928 . S
H232 C217 0.929 . S
H233 C215 0.932 . S
C234 C235 1.386 . S
C234 C236 1.397 . S
C234 H258 0.931 . S
C235 C234 1.386 . S
C235 C239 1.397 1_655 S
C236 C234 1.397 . S
C236 C237 1.384 . S
C236 H259 0.930 . S
C237 C236 1.384 . S
C237 C238 1.377 1_655 S
C237 C240 1.481 . S
C238 C237 1.377 1_455 S
C238 C239 1.389 . S
C238 H260 0.929 . S
C239 C235 1.397 1_455 S
C239 C238 1.389 . S
C239 H261 0.931 . S
C240 C237 1.481 . S
C240 C241 1.387 . S
C240 C245 1.390 . S
C241 C240 1.387 . S
C241 C242 1.401 . S
C241 H262 0.930 . S
C242 C241 1.401 . S
C242 C243 1.376 . S
C242 C251 1.511 . S
C243 C242 1.376 . S
C243 C244 1.392 . S
C243 H264 0.931 . S
C244 C243 1.392 . S
C244 C245 1.361 . S
C244 C246 1.500 . S
C245 C240 1.390 . S
C245 C244 1.361 . S
C245 H263 0.931 . S
C246 C244 1.500 . S
C246 C247 1.371 . S
C246 C248 1.365 . S
C247 C246 1.371 . S
C247 C257 1.386 . S
C247 H265 0.931 . S
C248 C246 1.365 . S
C248 C249 1.409 . S
C248 H266 0.929 . S
C249 C248 1.409 . S
C249 C250 1.380 . S
C249 H267 0.930 . S
C250 C249 1.380 . S
C250 C257 1.357 . S
C251 C242 1.511 . S
C251 C252 1.341 . S
C251 C253 1.371 . S
C252 C251 1.341 . S
C252 C256 1.394 . S
C252 H268 0.930 . S
C253 C251 1.371 . S
C253 C254 1.392 . S
C253 H269 0.931 . S
C254 C253 1.392 . S
C254 C255 1.331 . S
C254 H272 0.932 . S
C255 C254 1.331 . S
C255 C256 1.336 . S
C256 C252 1.394 . S
C256 C255 1.336 . S
C256 H271 0.929 . S
C257 C247 1.386 . S
C257 C250 1.357 . S
C257 H270 0.928 . S
H258 C234 0.931 . S
H259 C236 0.930 . S
H260 C238 0.929 . S
H261 C239 0.931 . S
H262 C241 0.930 . S
H263 C245 0.931 . S
H264 C243 0.931 . S
H265 C247 0.931 . S
H266 C248 0.929 . S
H267 C249 0.930 . S
H268 C252 0.930 . S
H269 C253 0.931 . S
H270 C257 0.928 . S
H271 C256 0.929 . S
H272 C254 0.932 . S
C273 C274 1.386 . S
C273 C275 1.397 . S
C273 H297 0.931 . S
C274 C273 1.386 . S
C274 C278 1.397 . S
C275 C273 1.397 . S
C275 C276 1.384 . S
C275 H298 0.930 . S
C276 C275 1.384 . S
C276 C277 1.377 . S
C276 C279 1.481 . S
C277 C276 1.377 . S
C277 C278 1.389 . S
C277 H299 0.929 . S
C278 C274 1.397 . S
C278 C277 1.389 . S
C278 H300 0.931 . S
C279 C276 1.481 . S
C279 C280 1.387 . S
C279 C284 1.390 . S
C280 C279 1.387 . S
C280 C281 1.401 . S
C280 H301 0.930 . S
C281 C280 1.401 . S
C281 C282 1.376 . S
C281 C290 1.511 . S
C282 C281 1.376 . S
C282 C283 1.392 . S
C282 H303 0.931 . S
C283 C282 1.392 . S
C283 C284 1.361 . S
C283 C285 1.500 . S
C284 C279 1.390 . S
C284 C283 1.361 . S
C284 H302 0.931 . S
C285 C283 1.500 . S
C285 C286 1.371 . S
C285 C287 1.365 . S
C286 C285 1.371 . S
C286 C296 1.386 . S
C286 H304 0.931 . S
C287 C285 1.365 . S
C287 C288 1.409 . S
C287 H305 0.929 . S
C288 C287 1.409 . S
C288 C289 1.380 . S
C288 H306 0.930 . S
C289 C288 1.380 . S
C289 C296 1.357 . S
C290 C281 1.511 . S
C290 C291 1.341 . S
C290 C292 1.371 . S
C291 C290 1.341 . S
C291 C295 1.394 . S
C291 H307 0.930 . S
C292 C290 1.371 . S
C292 C293 1.392 . S
C292 H308 0.931 . S
C293 C292 1.392 . S
C293 C294 1.331 . S
C293 H311 0.932 . S
C294 C293 1.331 . S
C294 C295 1.336 . S
C295 C291 1.394 . S
C295 C294 1.336 . S
C295 H310 0.929 . S
C296 C286 1.386 . S
C296 C289 1.357 . S
C296 H309 0.928 . S
H297 C273 0.931 . S
H298 C275 0.930 . S
H299 C277 0.929 . S
H300 C278 0.931 . S
H301 C280 0.930 . S
H302 C284 0.931 . S
H303 C282 0.931 . S
H304 C286 0.931 . S
H305 C287 0.929 . S
H306 C288 0.930 . S
H307 C291 0.930 . S
H308 C292 0.931 . S
H309 C296 0.928 . S
H310 C295 0.929 . S
H311 C293 0.932 . S
C312 C313 1.386 . S
C312 C314 1.397 . S
C312 H336 0.931 . S
C313 C312 1.386 . S
C313 C317 1.397 . S
C314 C312 1.397 . S
C314 C315 1.384 . S
C314 H337 0.930 . S
C315 C314 1.384 . S
C315 C316 1.377 . S
C315 C318 1.481 . S
C316 C315 1.377 . S
C316 C317 1.389 . S
C316 H338 0.929 . S
C317 C313 1.397 . S
C317 C316 1.389 . S
C317 H339 0.931 . S
C318 C315 1.481 . S
C318 C319 1.387 . S
C318 C323 1.390 . S
C319 C318 1.387 . S
C319 C320 1.401 . S
C319 H340 0.930 . S
C320 C319 1.401 . S
C320 C321 1.376 . S
C320 C329 1.511 . S
C321 C320 1.376 . S
C321 C322 1.392 . S
C321 H342 0.931 . S
C322 C321 1.392 . S
C322 C323 1.361 . S
C322 C324 1.500 . S
C323 C318 1.390 . S
C323 C322 1.361 . S
C323 H341 0.931 . S
C324 C322 1.500 . S
C324 C325 1.371 . S
C324 C326 1.365 . S
C325 C324 1.371 . S
C325 C335 1.386 . S
C325 H343 0.931 . S
C326 C324 1.365 . S
C326 C327 1.409 . S
C326 H344 0.929 . S
C327 C326 1.409 . S
C327 C328 1.380 . S
C327 H345 0.930 . S
C328 C327 1.380 . S
C328 C335 1.357 . S
C329 C320 1.511 . S
C329 C330 1.341 . S
C329 C331 1.371 . S
C330 C329 1.341 . S
C330 C334 1.394 . S
C330 H346 0.930 . S
C331 C329 1.371 . S
C331 C332 1.392 . S
C331 H347 0.931 . S
C332 C331 1.392 . S
C332 C333 1.331 . S
C332 H350 0.932 . S
C333 C332 1.331 . S
C333 C334 1.336 . S
C334 C330 1.394 . S
C334 C333 1.336 . S
C334 H349 0.929 . S
C335 C325 1.386 . S
C335 C328 1.357 . S
C335 H348 0.928 . S
H336 C312 0.931 . S
H337 C314 0.930 . S
H338 C316 0.929 . S
H339 C317 0.931 . S
H340 C319 0.930 . S
H341 C323 0.931 . S
H342 C321 0.931 . S
H343 C325 0.931 . S
H344 C326 0.929 . S
H345 C327 0.930 . S
H346 C330 0.930 . S
H347 C331 0.931 . S
H348 C335 0.928 . S
H349 C334 0.929 . S
H350 C332 0.932 . S
C351 C352 1.386 . S
C351 C353 1.397 . S
C351 H375 0.931 . S
C352 C351 1.386 . S
C352 C356 1.397 . S
C353 C351 1.397 . S
C353 C354 1.384 . S
C353 H376 0.930 . S
C354 C353 1.384 . S
C354 C355 1.377 . S
C354 C357 1.481 . S
C355 C354 1.377 . S
C355 C356 1.389 . S
C355 H377 0.929 . S
C356 C352 1.397 . S
C356 C355 1.389 . S
C356 H378 0.931 . S
C357 C354 1.481 . S
C357 C358 1.387 . S
C357 C362 1.390 . S
C358 C357 1.387 . S
C358 C359 1.401 . S
C358 H379 0.930 . S
C359 C358 1.401 . S
C359 C360 1.376 . S
C359 C368 1.511 . S
C360 C359 1.376 . S
C360 C361 1.392 . S
C360 H381 0.931 . S
C361 C360 1.392 . S
C361 C362 1.361 . S
C361 C363 1.500 . S
C362 C357 1.390 . S
C362 C361 1.361 . S
C362 H380 0.931 . S
C363 C361 1.500 . S
C363 C364 1.371 . S
C363 C365 1.365 . S
C364 C363 1.371 . S
C364 C374 1.386 . S
C364 H382 0.931 . S
C365 C363 1.365 . S
C365 C366 1.409 . S
C365 H383 0.929 . S
C366 C365 1.409 . S
C366 C367 1.380 . S
C366 H384 0.930 . S
C367 C366 1.380 . S
C367 C374 1.357 . S
C368 C359 1.511 . S
C368 C369 1.341 . S
C368 C370 1.371 . S
C369 C368 1.341 . S
C369 C373 1.394 . S
C369 H385 0.930 . S
C370 C368 1.371 . S
C370 C371 1.392 . S
C370 H386 0.931 . S
C371 C370 1.392 . S
C371 C372 1.331 . S
C371 H389 0.932 . S
C372 C371 1.331 . S
C372 C373 1.336 . S
C373 C369 1.394 . S
C373 C372 1.336 . S
C373 H388 0.929 . S
C374 C364 1.386 . S
C374 C367 1.357 . S
C374 H387 0.928 . S
H375 C351 0.931 . S
H376 C353 0.930 . S
H377 C355 0.929 . S
H378 C356 0.931 . S
H379 C358 0.930 . S
H380 C362 0.931 . S
H381 C360 0.931 . S
H382 C364 0.931 . S
H383 C365 0.929 . S
H384 C366 0.930 . S
H385 C369 0.930 . S
H386 C370 0.931 . S
H387 C374 0.928 . S
H388 C373 0.929 . S
H389 C371 0.932 . S
C390 C391 1.386 . S
C390 C392 1.397 . S
C390 H414 0.931 . S
C391 C390 1.386 . S
C391 C395 1.397 . S
C392 C390 1.397 . S
C392 C393 1.384 . S
C392 H415 0.930 . S
C393 C392 1.384 . S
C393 C394 1.377 . S
C393 C396 1.481 . S
C394 C393 1.377 . S
C394 C395 1.389 . S
C394 H416 0.929 . S
C395 C391 1.397 . S
C395 C394 1.389 . S
C395 H417 0.931 . S
C396 C393 1.481 . S
C396 C397 1.387 . S
C396 C401 1.390 . S
C397 C396 1.387 . S
C397 C398 1.401 . S
C397 H418 0.930 . S
C398 C397 1.401 . S
C398 C399 1.376 . S
C398 C407 1.511 . S
C399 C398 1.376 . S
C399 C400 1.392 . S
C399 H420 0.931 . S
C400 C399 1.392 . S
C400 C401 1.361 . S
C400 C402 1.500 . S
C401 C396 1.390 . S
C401 C400 1.361 . S
C401 H419 0.931 . S
C402 C400 1.500 . S
C402 C403 1.371 . S
C402 C404 1.365 . S
C403 C402 1.371 . S
C403 C413 1.386 . S
C403 H421 0.931 . S
C404 C402 1.365 . S
C404 C405 1.409 . S
C404 H422 0.929 . S
C405 C404 1.409 . S
C405 C406 1.380 . S
C405 H423 0.930 . S
C406 C405 1.380 . S
C406 C413 1.357 . S
C407 C398 1.511 . S
C407 C408 1.341 . S
C407 C409 1.371 . S
C408 C407 1.341 . S
C408 C412 1.394 . S
C408 H424 0.930 . S
C409 C407 1.371 . S
C409 C410 1.392 . S
C409 H425 0.931 . S
C410 C409 1.392 . S
C410 C411 1.331 . S
C410 H428 0.932 . S
C411 C410 1.331 . S
C411 C412 1.336 . S
C412 C408 1.394 . S
C412 C411 1.336 . S
C412 H427 0.929 . S
C413 C403 1.386 . S
C413 C406 1.357 . S
C413 H426 0.906 1_556 S
H414 C390 0.931 . S
H415 C392 0.930 . S
H416 C394 0.929 . S
H417 C395 0.931 . S
H418 C397 0.930 . S
H419 C401 0.931 . S
H420 C399 0.931 . S
H421 C403 0.931 . S
H422 C404 0.929 . S
H423 C405 0.930 . S
H424 C408 0.930 . S
H425 C409 0.931 . S
H426 C413 0.906 1_554 S
H427 C412 0.929 . S
H428 C410 0.932 . S
C429 C430 1.386 . S
C429 C431 1.397 . S
C429 H453 0.931 . S
C430 C429 1.386 . S
C430 C434 1.397 . S
C431 C429 1.397 . S
C431 C432 1.384 . S
C431 H454 0.930 . S
C432 C431 1.384 . S
C432 C433 1.377 . S
C432 C435 1.481 . S
C433 C432 1.377 . S
C433 C434 1.389 . S
C433 H455 0.929 . S
C434 C430 1.397 . S
C434 C433 1.389 . S
C434 H456 0.931 . S
C435 C432 1.481 . S
C435 C436 1.387 . S
C435 C440 1.390 . S
C436 C435 1.387 . S
C436 C437 1.401 . S
C436 H457 0.930 . S
C437 C436 1.401 . S
C437 C438 1.376 . S
C437 C446 1.511 . S
C438 C437 1.376 . S
C438 C439 1.392 . S
C438 H459 0.931 . S
C439 C438 1.392 . S
C439 C440 1.361 . S
C439 C441 1.500 . S
C440 C435 1.390 . S
C440 C439 1.361 . S
C440 H458 0.931 . S
C441 C439 1.500 . S
C441 C442 1.371 . S
C441 C443 1.365 . S
C442 C441 1.371 . S
C442 C452 1.386 . S
C442 H460 0.931 . S
C443 C441 1.365 . S
C443 C444 1.409 . S
C443 H461 0.929 . S
C444 C443 1.409 . S
C444 C445 1.380 . S
C444 H462 0.930 . S
C445 C444 1.380 . S
C445 C452 1.357 . S
C446 C437 1.511 . S
C446 C447 1.341 . S
C446 C448 1.371 . S
C447 C446 1.341 . S
C447 C451 1.394 . S
C447 H463 0.930 . S
C448 C446 1.371 . S
C448 C449 1.392 . S
C448 H464 0.931 . S
C449 C448 1.392 . S
C449 C450 1.331 . S
C449 H467 0.932 . S
C450 C449 1.331 . S
C450 C451 1.336 . S
C451 C447 1.394 . S
C451 C450 1.336 . S
C451 H466 0.929 . S
C452 C442 1.386 . S
C452 C445 1.357 . S
C452 H465 0.928 . S
H453 C429 0.931 . S
H454 C431 0.930 . S
H455 C433 0.929 . S
H456 C434 0.931 . S
H457 C436 0.930 . S
H458 C440 0.931 . S
H459 C438 0.931 . S
H460 C442 0.931 . S
H461 C443 0.929 . S
H462 C444 0.930 . S
H463 C447 0.930 . S
H464 C448 0.931 . S
H465 C452 0.928 . S
H466 C451 0.929 . S
H467 C449 0.932 . S
C468 C469 1.386 . S
C468 C470 1.397 . S
C468 H492 0.931 . S
C469 C468 1.386 . S
C469 C473 1.397 . S
C470 C468 1.397 . S
C470 C471 1.384 . S
C470 H493 0.930 . S
C471 C470 1.384 . S
C471 C472 1.377 . S
C471 C474 1.481 . S
C472 C471 1.377 . S
C472 C473 1.389 . S
C472 H494 0.929 . S
C473 C469 1.397 . S
C473 C472 1.389 . S
C473 H495 0.931 . S
C474 C471 1.481 . S
C474 C475 1.387 . S
C474 C479 1.390 . S
C475 C474 1.387 . S
C475 C476 1.401 . S
C475 H496 0.930 . S
C476 C475 1.401 . S
C476 C477 1.376 . S
C476 C485 1.511 . S
C477 C476 1.376 . S
C477 C478 1.392 . S
C477 H498 0.931 . S
C478 C477 1.392 . S
C478 C479 1.361 . S
C478 C480 1.500 . S
C479 C474 1.390 . S
C479 C478 1.361 . S
C479 H497 0.931 . S
C480 C478 1.500 . S
C480 C481 1.371 . S
C480 C482 1.365 . S
C481 C480 1.371 . S
C481 C491 1.386 . S
C481 H499 0.931 . S
C482 C480 1.365 . S
C482 C483 1.409 . S
C482 H500 0.929 . S
C483 C482 1.409 . S
C483 C484 1.380 . S
C483 H501 0.930 . S
C484 C483 1.380 . S
C484 C491 1.357 . S
C485 C476 1.511 . S
C485 C486 1.341 . S
C485 C487 1.371 . S
C486 C485 1.341 . S
C486 C490 1.394 . S
C486 H502 0.930 . S
C487 C485 1.371 . S
C487 C488 1.392 . S
C487 H503 0.931 . S
C488 C487 1.392 . S
C488 C489 1.331 . S
C488 H506 0.932 . S
C489 C488 1.331 . S
C489 C490 1.336 . S
C490 C486 1.394 . S
C490 C489 1.336 . S
C490 H505 0.929 . S
C491 C481 1.386 . S
C491 C484 1.357 . S
C491 H504 0.928 . S
H492 C468 0.931 . S
H493 C470 0.930 . S
H494 C472 0.929 . S
H495 C473 0.931 . S
H496 C475 0.930 . S
H497 C479 0.931 . S
H498 C477 0.931 . S
H499 C481 0.931 . S
H500 C482 0.929 . S
H501 C483 0.930 . S
H502 C486 0.930 . S
H503 C487 0.931 . S
H504 C491 0.928 . S
H505 C490 0.929 . S
H506 C488 0.932 . S
C507 C508 1.386 . S
C507 C509 1.397 . S
C507 H531 0.931 . S
C508 C507 1.386 . S
C508 C512 1.397 . S
C509 C507 1.397 . S
C509 C510 1.384 . S
C509 H532 0.930 . S
C510 C509 1.384 . S
C510 C511 1.377 . S
C510 C513 1.481 . S
C511 C510 1.377 . S
C511 C512 1.389 . S
C511 H533 0.929 . S
C512 C508 1.397 . S
C512 C511 1.389 . S
C512 H534 0.931 . S
C513 C510 1.481 . S
C513 C514 1.387 . S
C513 C518 1.390 . S
C514 C513 1.387 . S
C514 C515 1.401 . S
C514 H535 0.930 . S
C515 C514 1.401 . S
C515 C516 1.376 . S
C515 C524 1.511 . S
C516 C515 1.376 . S
C516 C517 1.392 . S
C516 H537 0.931 . S
C517 C516 1.392 . S
C517 C518 1.361 . S
C517 C519 1.500 . S
C518 C513 1.390 . S
C518 C517 1.361 . S
C518 H536 0.931 . S
C519 C517 1.500 . S
C519 C520 1.371 . S
C519 C521 1.365 . S
C520 C519 1.371 . S
C520 C530 1.386 . S
C520 H538 0.931 . S
C521 C519 1.365 . S
C521 C522 1.409 . S
C521 H539 0.929 . S
C522 C521 1.409 . S
C522 C523 1.380 . S
C522 H540 0.930 . S
C523 C522 1.380 . S
C523 C530 1.357 . S
C524 C515 1.511 . S
C524 C525 1.341 . S
C524 C526 1.371 . S
C525 C524 1.341 . S
C525 C529 1.394 . S
C525 H541 0.930 . S
C526 C524 1.371 . S
C526 C527 1.392 . S
C526 H542 0.931 . S
C527 C526 1.392 . S
C527 C528 1.331 . S
C527 H545 0.932 . S
C528 C527 1.331 . S
C528 C529 1.336 . S
C529 C525 1.394 . S
C529 C528 1.336 . S
C529 H544 0.929 . S
C530 C520 1.386 . S
C530 C523 1.357 . S
C530 H543 0.928 . S
H531 C507 0.931 . S
H532 C509 0.930 . S
H533 C511 0.929 . S
H534 C512 0.931 . S
H535 C514 0.930 . S
H536 C518 0.931 . S
H537 C516 0.931 . S
H538 C520 0.931 . S
H539 C521 0.929 . S
H540 C522 0.930 . S
H541 C525 0.930 . S
H542 C526 0.931 . S
H543 C530 0.928 . S
H544 C529 0.929 . S
H545 C527 0.932 . S
C546 C547 1.386 . S
C546 C548 1.397 . S
C546 H570 0.931 . S
C547 C546 1.386 . S
C547 C551 1.397 . S
C548 C546 1.397 . S
C548 C549 1.384 . S
C548 H571 0.930 . S
C549 C548 1.384 . S
C549 C550 1.377 . S
C549 C552 1.481 . S
C550 C549 1.377 . S
C550 C551 1.389 . S
C550 H572 0.929 . S
C551 C547 1.397 . S
C551 C550 1.389 . S
C551 H573 0.931 . S
C552 C549 1.481 . S
C552 C553 1.387 . S
C552 C557 1.390 . S
C553 C552 1.387 . S
C553 C554 1.401 . S
C553 H574 0.930 . S
C554 C553 1.401 . S
C554 C555 1.376 . S
C554 C563 1.511 . S
C555 C554 1.376 . S
C555 C556 1.392 . S
C555 H576 0.931 . S
C556 C555 1.392 . S
C556 C557 1.361 . S
C556 C558 1.500 . S
C557 C552 1.390 . S
C557 C556 1.361 . S
C557 H575 0.931 . S
C558 C556 1.500 . S
C558 C559 1.371 . S
C558 C560 1.365 . S
C559 C558 1.371 . S
C559 C569 1.386 . S
C559 H577 0.931 . S
C560 C558 1.365 . S
C560 C561 1.409 . S
C560 H578 0.929 . S
C561 C560 1.409 . S
C561 C562 1.380 . S
C561 H579 0.930 . S
C562 C561 1.380 . S
C562 C569 1.357 . S
C563 C554 1.511 . S
C563 C564 1.341 . S
C563 C565 1.371 . S
C564 C563 1.341 . S
C564 C568 1.394 . S
C564 H580 0.930 . S
C565 C563 1.371 . S
C565 C566 1.392 . S
C565 H581 0.931 . S
C566 C565 1.392 . S
C566 C567 1.331 . S
C566 H584 0.932 . S
C567 C566 1.331 . S
C567 C568 1.336 . S
C568 C564 1.394 . S
C568 C567 1.336 . S
C568 H583 0.929 . S
C569 C559 1.386 . S
C569 C562 1.357 . S
C569 H582 0.928 . S
H570 C546 0.931 . S
H571 C548 0.930 . S
H572 C550 0.929 . S
H573 C551 0.931 . S
H574 C553 0.930 . S
H575 C557 0.931 . S
H576 C555 0.931 . S
H577 C559 0.931 . S
H578 C560 0.929 . S
H579 C561 0.930 . S
H580 C564 0.930 . S
H581 C565 0.931 . S
H582 C569 0.928 . S
H583 C568 0.929 . S
H584 C566 0.932 . S
C585 C586 1.386 . S
C585 C587 1.397 . S
C585 H609 0.931 . S
C586 C585 1.386 . S
C586 C590 1.397 . S
C587 C585 1.397 . S
C587 C588 1.384 . S
C587 H610 0.930 . S
C588 C587 1.384 . S
C588 C589 1.377 . S
C588 C591 1.481 . S
C589 C588 1.377 . S
C589 C590 1.389 . S
C589 H611 0.929 . S
C590 C586 1.397 . S
C590 C589 1.389 . S
C590 H612 0.931 . S
C591 C588 1.481 . S
C591 C592 1.387 . S
C591 C596 1.390 . S
C592 C591 1.387 . S
C592 C593 1.401 . S
C592 H613 0.930 . S
C593 C592 1.401 . S
C593 C594 1.376 . S
C593 C602 1.511 . S
C594 C593 1.376 . S
C594 C595 1.392 . S
C594 H615 0.931 . S
C595 C594 1.392 . S
C595 C596 1.361 . S
C595 C597 1.500 . S
C596 C591 1.390 . S
C596 C595 1.361 . S
C596 H614 0.931 . S
C597 C595 1.500 . S
C597 C598 1.371 . S
C597 C599 1.365 . S
C598 C597 1.371 . S
C598 C608 1.386 . S
C598 H616 0.931 . S
C599 C597 1.365 . S
C599 C600 1.409 . S
C599 H617 0.929 . S
C600 C599 1.409 . S
C600 C601 1.380 . S
C600 H618 0.930 . S
C601 C600 1.380 . S
C601 C608 1.357 . S
C602 C593 1.511 . S
C602 C603 1.341 . S
C602 C604 1.371 . S
C603 C602 1.341 . S
C603 C607 1.394 . S
C603 H619 0.930 . S
C604 C602 1.371 . S
C604 C605 1.392 . S
C604 H620 0.931 . S
C605 C604 1.392 . S
C605 C606 1.331 . S
C605 H623 0.932 . S
C606 C605 1.331 . S
C606 C607 1.336 . S
C607 C603 1.394 . S
C607 C606 1.336 . S
C607 H622 0.929 . S
C608 C598 1.386 . S
C608 C601 1.357 . S
C608 H621 0.928 . S
H609 C585 0.931 . S
H610 C587 0.930 . S
H611 C589 0.929 . S
H612 C590 0.931 . S
H613 C592 0.930 . S
H614 C596 0.931 . S
H615 C594 0.931 . S
H616 C598 0.931 . S
H617 C599 0.929 . S
H618 C600 0.930 . S
H619 C603 0.930 . S
H620 C604 0.931 . S
H621 C608 0.928 . S
H622 C607 0.929 . S
H623 C605 0.932 . S
C624 C625 1.386 1_655 S
C624 C626 1.397 . S
C624 H648 0.931 . S
C625 C624 1.386 1_455 S
C625 C629 1.397 . S
C626 C624 1.397 . S
C626 C627 1.384 1_655 S
C626 H649 0.930 . S
C627 C626 1.384 1_455 S
C627 C628 1.377 . S
C627 C630 1.481 . S
C628 C627 1.377 . S
C628 C629 1.389 . S
C628 H650 0.929 . S
C629 C625 1.397 . S
C629 C628 1.389 . S
C629 H651 0.931 . S
C630 C627 1.481 . S
C630 C631 1.387 . S
C630 C635 1.390 . S
C631 C630 1.387 . S
C631 C632 1.401 . S
C631 H652 0.930 . S
C632 C631 1.401 . S
C632 C633 1.376 . S
C632 C641 1.511 . S
C633 C632 1.376 . S
C633 C634 1.392 . S
C633 H654 0.931 . S
C634 C633 1.392 . S
C634 C635 1.361 . S
C634 C636 1.500 . S
C635 C630 1.390 . S
C635 C634 1.361 . S
C635 H653 0.931 . S
C636 C634 1.500 . S
C636 C637 1.371 . S
C636 C638 1.365 . S
C637 C636 1.371 . S
C637 C647 1.386 . S
C637 H655 0.931 . S
C638 C636 1.365 . S
C638 C639 1.409 . S
C638 H656 0.929 . S
C639 C638 1.409 . S
C639 C640 1.380 . S
C639 H657 0.930 . S
C640 C639 1.380 . S
C640 C647 1.357 . S
C641 C632 1.511 . S
C641 C642 1.341 . S
C641 C643 1.371 . S
C642 C641 1.341 . S
C642 C646 1.394 . S
C642 H658 0.930 . S
C643 C641 1.371 . S
C643 C644 1.392 . S
C643 H659 0.931 . S
C644 C643 1.392 . S
C644 C645 1.331 . S
C644 H662 0.932 . S
C645 C644 1.331 . S
C645 C646 1.336 . S
C646 C642 1.394 . S
C646 C645 1.336 . S
C646 H661 0.929 . S
C647 C637 1.386 . S
C647 C640 1.357 . S
C647 H660 0.928 . S
H648 C624 0.931 . S
H649 C626 0.930 . S
H650 C628 0.929 . S
H651 C629 0.931 . S
H652 C631 0.930 . S
H653 C635 0.931 . S
H654 C633 0.931 . S
H655 C637 0.931 . S
H656 C638 0.929 . S
H657 C639 0.930 . S
H658 C642 0.930 . S
H659 C643 0.931 . S
H660 C647 0.928 . S
H661 C646 0.929 . S
H662 C644 0.932 . S
C663 C664 1.386 . S
C663 C665 1.397 . S
C663 H687 0.931 . S
C664 C663 1.386 . S
C664 C668 1.397 . S
C665 C663 1.397 . S
C665 C666 1.384 . S
C665 H688 0.930 . S
C666 C665 1.384 . S
C666 C667 1.377 . S
C666 C669 1.481 . S
C667 C666 1.377 . S
C667 C668 1.389 . S
C667 H689 0.929 . S
C668 C664 1.397 . S
C668 C667 1.389 . S
C668 H690 0.931 . S
C669 C666 1.481 . S
C669 C670 1.387 . S
C669 C674 1.390 . S
C670 C669 1.387 . S
C670 C671 1.401 . S
C670 H691 0.930 . S
C671 C670 1.401 . S
C671 C672 1.376 . S
C671 C680 1.511 . S
C672 C671 1.376 . S
C672 C673 1.392 . S
C672 H693 0.931 . S
C673 C672 1.392 . S
C673 C674 1.361 . S
C673 C675 1.500 . S
C674 C669 1.390 . S
C674 C673 1.361 . S
C674 H692 0.931 . S
C675 C673 1.500 . S
C675 C676 1.371 . S
C675 C677 1.365 . S
C676 C675 1.371 . S
C676 C686 1.386 . S
C676 H694 0.931 . S
C677 C675 1.365 . S
C677 C678 1.409 . S
C677 H695 0.929 . S
C678 C677 1.409 . S
C678 C679 1.380 . S
C678 H696 0.930 . S
C679 C678 1.380 . S
C679 C686 1.357 . S
C680 C671 1.511 . S
C680 C681 1.341 . S
C680 C682 1.371 . S
C681 C680 1.341 . S
C681 C685 1.394 . S
C681 H697 0.930 . S
C682 C680 1.371 . S
C682 C683 1.392 . S
C682 H698 0.931 . S
C683 C682 1.392 . S
C683 C684 1.331 . S
C683 H701 0.932 . S
C684 C683 1.331 . S
C684 C685 1.336 . S
C685 C681 1.394 . S
C685 C684 1.336 . S
C685 H700 0.929 . S
C686 C676 1.386 . S
C686 C679 1.357 . S
C686 H699 0.928 . S
H687 C663 0.931 . S
H688 C665 0.930 . S
H689 C667 0.929 . S
H690 C668 0.931 . S
H691 C670 0.930 . S
H692 C674 0.931 . S
H693 C672 0.931 . S
H694 C676 0.931 . S
H695 C677 0.929 . S
H696 C678 0.930 . S
H697 C681 0.930 . S
H698 C682 0.931 . S
H699 C686 0.928 . S
H700 C685 0.929 . S
H701 C683 0.932 . S
Tb702 C712 2.825 . S
Tb702 O713 2.347 1_565 S
Tb702 O716 2.366 1_565 S
Tb702 O721 2.418 . S
Tb702 O722 2.384 . S
Tb702 O725 2.479 . S
Tb702 O726 2.467 1_565 S
Eu703 O714 2.418 . S
Eu703 O715 2.384 . S
Eu703 O718 2.479 . S
Eu703 O719 2.481 . S
Eu703 O720 2.347 1_545 S
Eu703 O723 2.366 1_545 S
Eu703 C733 2.825 . S
C704 O720 1.259 . S
C704 O721 1.265 1_554 S
C705 O722 1.255 1_554 S
C705 O723 1.265 . S
C706 C708 1.380 . S
C706 C709 1.374 1_565 S
C706 C712 1.507 . S
C707 C708 1.384 . S
C707 C711 1.387 1_565 S
C707 H734 0.930 . S
C708 C706 1.380 . S
C708 C707 1.384 . S
C708 H735 0.931 . S
C709 C706 1.374 1_545 S
C709 C710 1.390 . S
C709 H736 0.930 . S
C710 C709 1.390 . S
C710 C711 1.391 . S
C710 H737 0.930 . S
C711 C707 1.387 1_545 S
C711 C710 1.391 . S
C712 Tb702 2.825 . S
C712 C706 1.507 . S
C712 O725 1.238 . S
C712 O726 1.241 1_565 S
O713 Tb702 2.347 1_545 S
O713 C717 1.259 . S
O714 Eu703 2.418 . S
O714 C717 1.265 1_554 S
O715 Eu703 2.384 . S
O715 C724 1.255 1_554 S
O716 Tb702 2.366 1_545 S
O716 C724 1.265 . S
C717 O713 1.259 . S
C717 O714 1.265 1_556 S
O718 Eu703 2.479 . S
O718 C733 1.238 . S
O719 Eu703 2.481 . S
O719 C733 1.262 . S
O720 Eu703 2.347 1_565 S
O720 C704 1.259 . S
O721 Tb702 2.418 . S
O721 C704 1.265 1_556 S
O722 Tb702 2.384 . S
O722 C705 1.255 1_556 S
O723 Eu703 2.366 1_565 S
O723 C705 1.265 . S
C724 O715 1.255 1_556 S
C724 O716 1.265 . S
O725 Tb702 2.479 . S
O725 C712 1.238 . S
O726 Tb702 2.467 1_545 S
O726 C712 1.241 1_545 S
C727 C730 1.380 . S
C727 C731 1.374 1_545 S
C727 C733 1.507 . S
C728 C729 1.387 1_565 S
C728 C732 1.391 . S
C729 C728 1.387 1_545 S
C729 C730 1.384 . S
C729 H738 0.930 . S
C730 C727 1.380 . S
C730 C729 1.384 . S
C730 H739 0.931 . S
C731 C727 1.374 1_565 S
C731 C732 1.390 . S
C731 H740 0.930 . S
C732 C728 1.391 . S
C732 C731 1.390 . S
C732 H741 0.930 . S
C733 Eu703 2.825 . S
C733 O718 1.238 . S
C733 O719 1.262 . S
C733 C727 1.507 . S
H734 C707 0.930 . S
H735 C708 0.931 . S
H736 C709 0.930 . S
H737 C710 0.930 . S
H738 C729 0.930 . S
H739 C730 0.931 . S
H740 C731 0.930 . S
H741 C732 0.930 . S
Tb742 C752 2.825 . S
Tb742 O753 2.347 1_455 S
Tb742 O756 2.366 1_455 S
Tb742 O761 2.418 . S
Tb742 O762 2.384 1_556 S
Tb742 O765 2.479 . S
Tb742 O766 2.471 1_455 S
Eu743 O754 2.418 . S
Eu743 O755 2.384 1_554 S
Eu743 O758 2.479 . S
Eu743 O759 2.471 1_655 S
Eu743 O760 2.347 1_655 S
Eu743 O763 2.366 1_655 S
Eu743 C773 2.825 . S
C744 O760 1.259 . S
C744 O761 1.265 1_554 S
C745 O762 1.255 . S
C745 O763 1.265 . S
C746 C748 1.380 . S
C746 C749 1.374 1_455 S
C746 C752 1.507 . S
C747 C748 1.384 . S
C747 C751 1.387 1_455 S
C747 H774 0.930 . S
C748 C746 1.380 . S
C748 C747 1.384 . S
C748 H775 0.931 . S
C749 C746 1.374 1_655 S
C749 C750 1.390 . S
C749 H776 0.930 . S
C750 C749 1.390 . S
C750 C751 1.391 . S
C750 H777 0.930 . S
C751 C747 1.387 1_655 S
C751 C750 1.391 . S
C752 Tb742 2.825 . S
C752 C746 1.507 . S
C752 O765 1.238 . S
C752 O766 1.247 1_455 S
O753 Tb742 2.347 1_655 S
O753 C757 1.259 . S
O754 Eu743 2.418 . S
O754 C757 1.265 1_554 S
O755 Eu743 2.384 1_556 S
O755 C764 1.255 . S
O756 Tb742 2.366 1_655 S
O756 C764 1.265 . S
C757 O753 1.259 . S
C757 O754 1.265 1_556 S
O758 Eu743 2.479 . S
O758 C773 1.238 . S
O759 Eu743 2.471 1_455 S
O759 C773 1.247 1_455 S
O760 Eu743 2.347 1_455 S
O760 C744 1.259 . S
O761 Tb742 2.418 . S
O761 C744 1.265 1_556 S
O762 Tb742 2.384 1_554 S
O762 C745 1.255 . S
O763 Eu743 2.366 1_455 S
O763 C745 1.265 . S
C764 O755 1.255 . S
C764 O756 1.265 . S
O765 Tb742 2.479 . S
O765 C752 1.238 . S
O766 Tb742 2.471 1_655 S
O766 C752 1.247 1_655 S
C767 C770 1.380 . S
C767 C771 1.374 1_655 S
C767 C773 1.507 . S
C768 C769 1.387 1_455 S
C768 C772 1.391 . S
C769 C768 1.387 1_655 S
C769 C770 1.384 . S
C769 H778 0.930 . S
C770 C767 1.380 . S
C770 C769 1.384 . S
C770 H779 0.931 . S
C771 C767 1.374 1_455 S
C771 C772 1.390 . S
C771 H780 0.930 . S
C772 C768 1.391 . S
C772 C771 1.390 . S
C772 H781 0.930 . S
C773 Eu743 2.825 . S
C773 O758 1.238 . S
C773 O759 1.247 1_655 S
C773 C767 1.507 . S
H774 C747 0.930 . S
H775 C748 0.931 . S
H776 C749 0.930 . S
H777 C750 0.930 . S
H778 C769 0.930 . S
H779 C770 0.931 . S
H780 C771 0.930 . S
H781 C772 0.930 . S
Tb782 C792 2.825 . S
Tb782 O793 2.347 . S
Tb782 O796 2.366 . S
Tb782 O801 2.418 . S
Tb782 O802 2.418 . S
Tb782 O805 2.479 . S
Tb782 O806 2.471 . S
Eu783 O794 2.418 . S
Eu783 O795 2.384 1_556 S
Eu783 O798 2.479 . S
Eu783 O799 2.471 . S
Eu783 O800 2.347 . S
Eu783 O803 2.366 . S
Eu783 C813 2.825 . S
C784 O800 1.259 . S
C784 O801 1.265 1_556 S
C785 O802 1.216 1_556 S
C785 O803 1.265 . S
C786 C788 1.380 . S
C786 C789 1.374 . S
C786 C792 1.507 . S
C787 C788 1.384 . S
C787 C791 1.387 . S
C787 H814 0.930 . S
C788 C786 1.380 . S
C788 C787 1.384 . S
C788 H815 0.931 . S
C789 C786 1.374 . S
C789 C790 1.390 . S
C789 H816 0.930 . S
C790 C789 1.390 . S
C790 C791 1.391 . S
C790 H817 0.930 . S
C791 C787 1.387 . S
C791 C790 1.391 . S
C792 Tb782 2.825 . S
C792 C786 1.507 . S
C792 O805 1.238 . S
C792 O806 1.247 . S
O793 Tb782 2.347 . S
O793 C797 1.259 . S
O794 Eu783 2.418 . S
O794 C797 1.265 1_556 S
O795 Eu783 2.384 1_554 S
O795 C804 1.255 . S
O796 Tb782 2.366 . S
O796 C804 1.265 . S
C797 O793 1.259 . S
C797 O794 1.265 1_554 S
O798 Eu783 2.479 . S
O798 C813 1.238 . S
O799 Eu783 2.471 . S
O799 C813 1.247 . S
O800 Eu783 2.347 . S
O800 C784 1.259 . S
O801 Tb782 2.418 . S
O801 C784 1.265 1_554 S
O802 Tb782 2.418 . S
O802 C785 1.216 1_554 S
O803 Eu783 2.366 . S
O803 C785 1.265 . S
C804 O795 1.255 . S
C804 O796 1.265 . S
O805 Tb782 2.479 . S
O805 C792 1.238 . S
O806 Tb782 2.471 . S
O806 C792 1.247 . S
C807 C810 1.380 . S
C807 C811 1.374 . S
C807 C813 1.507 . S
C808 C809 1.387 . S
C808 C812 1.391 . S
C809 C808 1.387 . S
C809 C810 1.384 . S
C809 H818 0.930 . S
C810 C807 1.380 . S
C810 C809 1.384 . S
C810 H819 0.931 . S
C811 C807 1.374 . S
C811 C812 1.390 . S
C811 H820 0.930 . S
C812 C808 1.391 . S
C812 C811 1.390 . S
C812 H821 0.930 . S
C813 Eu783 2.825 . S
C813 O798 1.238 . S
C813 O799 1.247 . S
C813 C807 1.507 . S
H814 C787 0.930 . S
H815 C788 0.931 . S
H816 C789 0.930 . S
H817 C790 0.930 . S
H818 C809 0.930 . S
H819 C810 0.931 . S
H820 C811 0.930 . S
H821 C812 0.930 . S
Tb822 C832 2.825 . S
Tb822 O833 2.347 . S
Tb822 O836 2.366 . S
Tb822 O841 2.418 . S
Tb822 O842 2.384 . S
Tb822 O845 2.479 . S
Tb822 O846 2.471 . S
Eu823 O834 2.418 . S
Eu823 O835 2.384 . S
Eu823 O838 2.479 . S
Eu823 O839 2.471 . S
Eu823 O840 2.347 . S
Eu823 O843 2.366 . S
Eu823 C853 2.825 . S
C824 O840 1.259 . S
C824 O841 1.265 . S
C825 O842 1.255 . S
C825 O843 1.265 . S
C826 C828 1.380 . S
C826 C829 1.374 . S
C826 C832 1.507 . S
C827 C828 1.384 . S
C827 C831 1.387 . S
C827 H854 0.930 . S
C828 C826 1.380 . S
C828 C827 1.384 . S
C828 H855 0.931 . S
C829 C826 1.374 . S
C829 C830 1.390 . S
C829 H856 0.930 . S
C830 C829 1.390 . S
C830 C831 1.391 . S
C830 H857 0.930 . S
C831 C827 1.387 . S
C831 C830 1.391 . S
C832 Tb822 2.825 . S
C832 C826 1.507 . S
C832 O845 1.238 . S
C832 O846 1.247 . S
O833 Tb822 2.347 . S
O833 C837 1.259 . S
O834 Eu823 2.418 . S
O834 C837 1.265 . S
O835 Eu823 2.384 . S
O835 C844 1.255 . S
O836 Tb822 2.366 . S
O836 C844 1.265 . S
C837 O833 1.259 . S
C837 O834 1.265 . S
O838 Eu823 2.479 . S
O838 C853 1.238 . S
O839 Eu823 2.471 . S
O839 C853 1.247 . S
O840 Eu823 2.347 . S
O840 C824 1.259 . S
O841 Tb822 2.418 . S
O841 C824 1.265 . S
O842 Tb822 2.384 . S
O842 C825 1.255 . S
O843 Eu823 2.366 . S
O843 C825 1.265 . S
C844 O835 1.255 . S
C844 O836 1.265 . S
O845 Tb822 2.479 . S
O845 C832 1.238 . S
O846 Tb822 2.471 . S
O846 C832 1.247 . S
C847 C850 1.380 . S
C847 C851 1.374 . S
C847 C853 1.507 . S
C848 C849 1.387 . S
C848 C852 1.391 . S
C849 C848 1.387 . S
C849 C850 1.384 . S
C849 H858 0.930 . S
C850 C847 1.380 . S
C850 C849 1.384 . S
C850 H859 0.931 . S
C851 C847 1.374 . S
C851 C852 1.390 . S
C851 H860 0.930 . S
C852 C848 1.391 . S
C852 C851 1.390 . S
C852 H861 0.930 . S
C853 Eu823 2.825 . S
C853 O838 1.238 . S
C853 O839 1.247 . S
C853 C847 1.507 . S
H854 C827 0.930 . S
H855 C828 0.931 . S
H856 C829 0.930 . S
H857 C830 0.930 . S
H858 C849 0.930 . S
H859 C850 0.931 . S
H860 C851 0.930 . S
H861 C852 0.930 . S
Tb862 C872 2.825 . S
Tb862 O873 2.347 . S
Tb862 O876 2.366 . S
Tb862 O881 2.418 . S
Tb862 O882 2.384 . S
Tb862 O885 2.479 . S
Tb862 O886 2.471 . S
Eu863 O874 2.418 . S
Eu863 O875 2.384 . S
Eu863 O878 2.479 . S
Eu863 O879 2.471 . S
Eu863 O880 2.347 . S
Eu863 O883 2.366 . S
Eu863 C893 2.825 . S
C864 O880 1.259 . S
C864 O881 1.265 . S
C865 O882 1.255 . S
C865 O883 1.265 . S
C866 C868 1.380 . S
C866 C869 1.374 . S
C866 C872 1.507 . S
C867 C868 1.384 . S
C867 C871 1.387 . S
C867 H894 0.930 . S
C868 C866 1.380 . S
C868 C867 1.384 . S
C868 H895 0.931 . S
C869 C866 1.374 . S
C869 C870 1.390 . S
C869 H896 0.930 . S
C870 C869 1.390 . S
C870 C871 1.391 . S
C870 H897 0.930 . S
C871 C867 1.387 . S
C871 C870 1.391 . S
C872 Tb862 2.825 . S
C872 C866 1.507 . S
C872 O885 1.238 . S
C872 O886 1.247 . S
O873 Tb862 2.347 . S
O873 C877 1.259 . S
O874 Eu863 2.418 . S
O874 C877 1.265 . S
O875 Eu863 2.384 . S
O875 C884 1.255 . S
O876 Tb862 2.366 . S
O876 C884 1.265 . S
C877 O873 1.259 . S
C877 O874 1.265 . S
O878 Eu863 2.479 . S
O878 C893 1.238 . S
O879 Eu863 2.471 . S
O879 C893 1.247 . S
O880 Eu863 2.347 . S
O880 C864 1.259 . S
O881 Tb862 2.418 . S
O881 C864 1.265 . S
O882 Tb862 2.384 . S
O882 C865 1.255 . S
O883 Eu863 2.366 . S
O883 C865 1.265 . S
C884 O875 1.255 . S
C884 O876 1.265 . S
O885 Tb862 2.479 . S
O885 C872 1.238 . S
O886 Tb862 2.471 . S
O886 C872 1.247 . S
C887 C890 1.380 . S
C887 C891 1.374 . S
C887 C893 1.507 . S
C888 C889 1.387 . S
C888 C892 1.391 . S
C889 C888 1.387 . S
C889 C890 1.384 . S
C889 H898 0.930 . S
C890 C887 1.380 . S
C890 C889 1.384 . S
C890 H899 0.931 . S
C891 C887 1.374 . S
C891 C892 1.390 . S
C891 H900 0.930 . S
C892 C888 1.391 . S
C892 C891 1.390 . S
C892 H901 0.930 . S
C893 Eu863 2.825 . S
C893 O878 1.238 . S
C893 O879 1.247 . S
C893 C887 1.507 . S
H894 C867 0.930 . S
H895 C868 0.931 . S
H896 C869 0.930 . S
H897 C870 0.930 . S
H898 C889 0.930 . S
H899 C890 0.931 . S
H900 C891 0.930 . S
H901 C892 0.930 . S
Tb902 C912 2.825 . S
Tb902 O913 2.347 . S
Tb902 O916 2.366 . S
Tb902 O921 2.418 . S
Tb902 O922 2.384 . S
Tb902 O925 2.479 . S
Tb902 O926 2.471 . S
Eu903 O914 2.418 . S
Eu903 O915 2.384 . S
Eu903 O918 2.479 . S
Eu903 O919 2.471 . S
Eu903 O920 2.347 . S
Eu903 O923 2.366 . S
Eu903 C933 2.825 . S
C904 O920 1.259 . S
C904 O921 1.265 . S
C905 O922 1.255 . S
C905 O923 1.265 . S
C906 C908 1.380 . S
C906 C909 1.374 . S
C906 C912 1.507 . S
C907 C908 1.384 . S
C907 C911 1.387 . S
C907 H934 0.930 . S
C908 C906 1.380 . S
C908 C907 1.384 . S
C908 H935 0.931 . S
C909 C906 1.374 . S
C909 C910 1.390 . S
C909 H936 0.930 . S
C910 C909 1.390 . S
C910 C911 1.391 . S
C910 H937 0.930 . S
C911 C907 1.387 . S
C911 C910 1.391 . S
C912 Tb902 2.825 . S
C912 C906 1.507 . S
C912 O925 1.238 . S
C912 O926 1.247 . S
O913 Tb902 2.347 . S
O913 C917 1.259 . S
O914 Eu903 2.418 . S
O914 C917 1.265 . S
O915 Eu903 2.384 . S
O915 C924 1.255 . S
O916 Tb902 2.366 . S
O916 C924 1.265 . S
C917 O913 1.259 . S
C917 O914 1.265 . S
O918 Eu903 2.479 . S
O918 C933 1.238 . S
O919 Eu903 2.471 . S
O919 C933 1.247 . S
O920 Eu903 2.347 . S
O920 C904 1.259 . S
O921 Tb902 2.418 . S
O921 C904 1.265 . S
O922 Tb902 2.384 . S
O922 C905 1.255 . S
O923 Eu903 2.366 . S
O923 C905 1.265 . S
C924 O915 1.255 . S
C924 O916 1.265 . S
O925 Tb902 2.479 . S
O925 C912 1.238 . S
O926 Tb902 2.471 . S
O926 C912 1.247 . S
C927 C930 1.380 . S
C927 C931 1.374 . S
C927 C933 1.507 . S
C928 C929 1.387 . S
C928 C932 1.391 . S
C929 C928 1.387 . S
C929 C930 1.384 . S
C929 H938 0.930 . S
C930 C927 1.380 . S
C930 C929 1.384 . S
C930 H939 0.931 . S
C931 C927 1.374 . S
C931 C932 1.390 . S
C931 H940 0.930 . S
C932 C928 1.391 . S
C932 C931 1.390 . S
C932 H941 0.930 . S
C933 Eu903 2.825 . S
C933 O918 1.238 . S
C933 O919 1.247 . S
C933 C927 1.507 . S
H934 C907 0.930 . S
H935 C908 0.931 . S
H936 C909 0.930 . S
H937 C910 0.930 . S
H938 C929 0.930 . S
H939 C930 0.931 . S
H940 C931 0.930 . S
H941 C932 0.930 . S
Tb942 C952 2.825 . S
Tb942 O953 2.347 . S
Tb942 O956 2.366 . S
Tb942 O961 2.418 . S
Tb942 O962 2.384 . S
Tb942 O965 2.479 . S
Tb942 O966 2.471 . S
Eu943 O954 2.418 . S
Eu943 O955 2.384 . S
Eu943 O958 2.479 . S
Eu943 O959 2.471 . S
Eu943 O960 2.347 . S
Eu943 O963 2.366 . S
Eu943 C973 2.825 . S
C944 O960 1.259 . S
C944 O961 1.265 . S
C945 O962 1.255 . S
C945 O963 1.265 . S
C946 C948 1.380 . S
C946 C949 1.374 . S
C946 C952 1.507 . S
C947 C948 1.384 . S
C947 C951 1.387 . S
C947 H974 0.930 . S
C948 C946 1.380 . S
C948 C947 1.384 . S
C948 H975 0.931 . S
C949 C946 1.374 . S
C949 C950 1.390 . S
C949 H976 0.930 . S
C950 C949 1.390 . S
C950 C951 1.391 . S
C950 H977 0.930 . S
C951 C947 1.387 . S
C951 C950 1.391 . S
C952 Tb942 2.825 . S
C952 C946 1.507 . S
C952 O965 1.238 . S
C952 O966 1.247 . S
O953 Tb942 2.347 . S
O953 C957 1.259 . S
O954 Eu943 2.418 . S
O954 C957 1.265 . S
O955 Eu943 2.384 . S
O955 C964 1.255 . S
O956 Tb942 2.366 . S
O956 C964 1.265 . S
C957 O953 1.259 . S
C957 O954 1.265 . S
O958 Eu943 2.479 . S
O958 C973 1.238 . S
O959 Eu943 2.471 . S
O959 C973 1.247 . S
O960 Eu943 2.347 . S
O960 C944 1.259 . S
O961 Tb942 2.418 . S
O961 C944 1.265 . S
O962 Tb942 2.384 . S
O962 C945 1.255 . S
O963 Eu943 2.366 . S
O963 C945 1.265 . S
C964 O955 1.255 . S
C964 O956 1.265 . S
O965 Tb942 2.479 . S
O965 C952 1.238 . S
O966 Tb942 2.471 . S
O966 C952 1.247 . S
C967 C970 1.380 . S
C967 C971 1.374 . S
C967 C973 1.507 . S
C968 C969 1.387 . S
C968 C972 1.391 . S
C969 C968 1.387 . S
C969 C970 1.384 . S
C969 H978 0.930 . S
C970 C967 1.380 . S
C970 C969 1.384 . S
C970 H979 0.931 . S
C971 C967 1.374 . S
C971 C972 1.390 . S
C971 H980 0.930 . S
C972 C968 1.391 . S
C972 C971 1.390 . S
C972 H981 0.930 . S
C973 Eu943 2.825 . S
C973 O958 1.238 . S
C973 O959 1.247 . S
C973 C967 1.507 . S
H974 C947 0.930 . S
H975 C948 0.931 . S
H976 C949 0.930 . S
H977 C950 0.930 . S
H978 C969 0.930 . S
H979 C970 0.931 . S
H980 C971 0.930 . S
H981 C972 0.930 . S
Tb982 C992 2.825 . S
Tb982 O993 2.347 . S
Tb982 O996 2.366 . S
Tb982 O1001 2.418 . S
Tb982 O1002 2.384 . S
Tb982 O1005 2.479 . S
Tb982 O1006 2.471 . S
Eu983 O994 2.418 . S
Eu983 O995 2.384 . S
Eu983 O998 2.479 . S
Eu983 O999 2.471 . S
Eu983 O1000 2.347 . S
Eu983 O1003 2.366 . S
Eu983 C1013 2.825 . S
C984 O1000 1.259 . S
C984 O1001 1.265 . S
C985 O1002 1.255 . S
C985 O1003 1.265 . S
C986 C988 1.380 . S
C986 C989 1.374 . S
C986 C992 1.507 . S
C987 C988 1.384 . S
C987 C991 1.387 . S
C987 H1014 0.930 . S
C988 C986 1.380 . S
C988 C987 1.384 . S
C988 H1015 0.931 . S
C989 C986 1.374 . S
C989 C990 1.390 . S
C989 H1016 0.930 . S
C990 C989 1.390 . S
C990 C991 1.391 . S
C990 H1017 0.930 . S
C991 C987 1.387 . S
C991 C990 1.391 . S
C992 Tb982 2.825 . S
C992 C986 1.507 . S
C992 O1005 1.238 . S
C992 O1006 1.247 . S
O993 Tb982 2.347 . S
O993 C997 1.259 . S
O994 Eu983 2.418 . S
O994 C997 1.265 . S
O995 Eu983 2.384 . S
O995 C1004 1.255 . S
O996 Tb982 2.366 . S
O996 C1004 1.265 . S
C997 O993 1.259 . S
C997 O994 1.265 . S
O998 Eu983 2.479 . S
O998 C1013 1.238 . S
O999 Eu983 2.471 . S
O999 C1013 1.247 . S
O1000 Eu983 2.347 . S
O1000 C984 1.259 . S
O1001 Tb982 2.418 . S
O1001 C984 1.265 . S
O1002 Tb982 2.384 . S
O1002 C985 1.255 . S
O1003 Eu983 2.366 . S
O1003 C985 1.265 . S
C1004 O995 1.255 . S
C1004 O996 1.265 . S
O1005 Tb982 2.479 . S
O1005 C992 1.238 . S
O1006 Tb982 2.471 . S
O1006 C992 1.247 . S
C1007 C1010 1.380 . S
C1007 C1011 1.374 . S
C1007 C1013 1.507 . S
C1008 C1009 1.387 . S
C1008 C1012 1.391 . S
C1009 C1008 1.387 . S
C1009 C1010 1.384 . S
C1009 H1018 0.930 . S
C1010 C1007 1.380 . S
C1010 C1009 1.384 . S
C1010 H1019 0.931 . S
C1011 C1007 1.374 . S
C1011 C1012 1.390 . S
C1011 H1020 0.930 . S
C1012 C1008 1.391 . S
C1012 C1011 1.390 . S
C1012 H1021 0.930 . S
C1013 Eu983 2.825 . S
C1013 O998 1.238 . S
C1013 O999 1.247 . S
C1013 C1007 1.507 . S
H1014 C987 0.930 . S
H1015 C988 0.931 . S
H1016 C989 0.930 . S
H1017 C990 0.930 . S
H1018 C1009 0.930 . S
H1019 C1010 0.931 . S
H1020 C1011 0.930 . S
H1021 C1012 0.930 . S
Tb1022 C1032 2.825 . S
Tb1022 O1033 2.347 . S
Tb1022 O1036 2.366 . S
Tb1022 O1041 2.418 . S
Tb1022 O1042 2.384 . S
Tb1022 O1045 2.479 . S
Tb1022 O1046 2.471 . S
Eu1023 O1034 2.418 . S
Eu1023 O1035 2.384 . S
Eu1023 O1038 2.479 . S
Eu1023 O1039 2.471 . S
Eu1023 O1040 2.347 . S
Eu1023 O1043 2.366 . S
Eu1023 C1053 2.825 . S
C1024 O1040 1.259 . S
C1024 O1041 1.265 . S
C1025 O1042 1.255 . S
C1025 O1043 1.265 . S
C1026 C1028 1.380 . S
C1026 C1029 1.374 . S
C1026 C1032 1.507 . S
C1027 C1028 1.384 . S
C1027 C1031 1.387 . S
C1027 H1054 0.930 . S
C1028 C1026 1.380 . S
C1028 C1027 1.384 . S
C1028 H1055 0.931 . S
C1029 C1026 1.374 . S
C1029 C1030 1.390 . S
C1029 H1056 0.930 . S
C1030 C1029 1.390 . S
C1030 C1031 1.391 . S
C1030 H1057 0.930 . S
C1031 C1027 1.387 . S
C1031 C1030 1.391 . S
C1032 Tb1022 2.825 . S
C1032 C1026 1.507 . S
C1032 O1045 1.238 . S
C1032 O1046 1.247 . S
O1033 Tb1022 2.347 . S
O1033 C1037 1.259 . S
O1034 Eu1023 2.418 . S
O1034 C1037 1.265 . S
O1035 Eu1023 2.384 . S
O1035 C1044 1.255 . S
O1036 Tb1022 2.366 . S
O1036 C1044 1.265 . S
C1037 O1033 1.259 . S
C1037 O1034 1.265 . S
O1038 Eu1023 2.479 . S
O1038 C1053 1.238 . S
O1039 Eu1023 2.471 . S
O1039 C1053 1.247 . S
O1040 Eu1023 2.347 . S
O1040 C1024 1.259 . S
O1041 Tb1022 2.418 . S
O1041 C1024 1.265 . S
O1042 Tb1022 2.384 . S
O1042 C1025 1.255 . S
O1043 Eu1023 2.366 . S
O1043 C1025 1.265 . S
C1044 O1035 1.255 . S
C1044 O1036 1.265 . S
O1045 Tb1022 2.479 . S
O1045 C1032 1.238 . S
O1046 Tb1022 2.471 . S
O1046 C1032 1.247 . S
C1047 C1050 1.380 . S
C1047 C1051 1.374 . S
C1047 C1053 1.507 . S
C1048 C1049 1.387 . S
C1048 C1052 1.391 . S
C1049 C1048 1.387 . S
C1049 C1050 1.384 . S
C1049 H1058 0.930 . S
C1050 C1047 1.380 . S
C1050 C1049 1.384 . S
C1050 H1059 0.931 . S
C1051 C1047 1.374 . S
C1051 C1052 1.390 . S
C1051 H1060 0.930 . S
C1052 C1048 1.391 . S
C1052 C1051 1.390 . S
C1052 H1061 0.930 . S
C1053 Eu1023 2.825 . S
C1053 O1038 1.238 . S
C1053 O1039 1.247 . S
C1053 C1047 1.507 . S
H1054 C1027 0.930 . S
H1055 C1028 0.931 . S
H1056 C1029 0.930 . S
H1057 C1030 0.930 . S
H1058 C1049 0.930 . S
H1059 C1050 0.931 . S
H1060 C1051 0.930 . S
H1061 C1052 0.930 . S
C1062 C1063 1.363 . S
C1062 C1068 1.379 . S
C1062 N1070 1.356 . S
C1063 C1062 1.363 . S
C1063 C1069 1.363 . S
C1064 C1065 1.363 . S
C1064 C1069 1.379 . S
C1064 N1071 1.356 . S
C1065 C1064 1.363 . S
C1065 C1068 1.363 . S
N1066 C1068 1.356 . S
N1066 H1078 0.984 1_565 S
N1066 H1079 0.985 . S
N1067 C1069 1.356 . S
N1067 H1072 0.984 . S
N1067 H1073 0.985 . S
C1068 C1062 1.379 . S
C1068 C1065 1.363 . S
C1068 N1066 1.356 . S
C1069 C1063 1.363 . S
C1069 C1064 1.379 . S
C1069 N1067 1.356 . S
N1070 C1062 1.356 . S
N1070 H1076 0.984 . S
N1070 H1077 0.984 . S
N1071 C1064 1.356 . S
N1071 H1074 0.984 . S
N1071 H1075 0.985 . S
H1072 N1067 0.984 . S
H1073 N1067 0.985 . S
H1074 N1071 0.984 . S
H1075 N1071 0.985 . S
H1076 N1070 0.984 . S
H1077 N1070 0.984 . S
H1078 N1066 0.984 1_545 S
H1079 N1066 0.985 . S
C1080 C1081 1.363 . S
C1080 C1086 1.379 . S
C1080 N1088 1.356 . S
C1081 C1080 1.363 . S
C1081 C1087 1.363 . S
C1082 C1083 1.363 . S
C1082 C1087 1.379 . S
C1082 N1089 1.356 . S
C1083 C1082 1.363 . S
C1083 C1086 1.363 . S
N1084 C1086 1.356 . S
N1084 H1096 0.984 1_554 S
N1084 H1097 0.985 . S
N1085 C1087 1.356 . S
N1085 H1090 0.984 . S
N1085 H1091 0.985 . S
C1086 C1080 1.379 . S
C1086 C1083 1.363 . S
C1086 N1084 1.356 . S
C1087 C1081 1.363 . S
C1087 C1082 1.379 . S
C1087 N1085 1.356 . S
N1088 C1080 1.356 . S
N1088 H1094 1.036 . S
N1088 H1095 0.984 . S
N1089 C1082 1.356 . S
N1089 H1092 0.984 . S
N1089 H1093 0.985 . S
H1090 N1085 0.984 . S
H1091 N1085 0.985 . S
H1092 N1089 0.984 . S
H1093 N1089 0.985 . S
H1094 N1088 1.036 . S
H1095 N1088 0.984 . S
H1096 N1084 0.984 1_556 S
H1097 N1084 0.985 . S
C1098 C1099 1.363 . S
C1098 C1104 1.379 . S
C1098 N1106 1.356 1_554 S
C1099 C1098 1.363 . S
C1099 C1105 1.363 . S
C1100 C1101 1.363 . S
C1100 C1105 1.379 . S
C1100 N1107 1.356 . S
C1101 C1100 1.363 . S
C1101 C1104 1.363 . S
N1102 C1104 1.356 1_556 S
N1102 H1114 0.984 . S
N1102 H1115 0.985 . S
N1103 C1105 1.356 . S
N1103 H1108 0.984 . S
N1103 H1109 0.985 . S
C1104 C1098 1.379 . S
C1104 C1101 1.363 . S
C1104 N1102 1.356 1_554 S
C1105 C1099 1.363 . S
C1105 C1100 1.379 . S
C1105 N1103 1.356 . S
N1106 C1098 1.356 1_556 S
N1106 H1112 0.984 . S
N1106 H1113 0.984 . S
N1107 C1100 1.356 . S
N1107 H1110 0.984 . S
N1107 H1111 0.985 . S
H1108 N1103 0.984 . S
H1109 N1103 0.985 . S
H1110 N1107 0.984 . S
H1111 N1107 0.985 . S
H1112 N1106 0.984 . S
H1113 N1106 0.984 . S
H1114 N1102 0.984 . S
H1115 N1102 0.985 . S
C1116 C1117 1.363 . S
C1116 C1122 1.379 . S
C1116 N1124 1.356 1_556 S
C1117 C1116 1.363 . S
C1117 C1123 1.363 . S
C1118 C1119 1.363 . S
C1118 C1123 1.379 . S
C1118 N1125 1.356 . S
C1119 C1118 1.363 . S
C1119 C1122 1.363 . S
N1120 C1122 1.356 1_554 S
N1120 H1132 0.984 . S
N1120 H1133 0.985 . S
N1121 C1123 1.356 . S
N1121 H1126 0.984 . S
N1121 H1127 0.985 . S
C1122 C1116 1.379 . S
C1122 C1119 1.363 . S
C1122 N1120 1.356 1_556 S
C1123 C1117 1.363 . S
C1123 C1118 1.379 . S
C1123 N1121 1.356 . S
N1124 C1116 1.356 1_554 S
N1124 H1130 0.984 . S
N1124 H1131 0.984 1_554 S
N1125 C1118 1.356 . S
N1125 H1128 0.984 . S
N1125 H1129 0.985 . S
H1126 N1121 0.984 . S
H1127 N1121 0.985 . S
H1128 N1125 0.984 . S
H1129 N1125 0.985 . S
H1130 N1124 0.984 . S
H1131 N1124 0.984 1_556 S
H1132 N1120 0.984 . S
H1133 N1120 0.985 . S
C1134 C1135 1.363 . S
C1134 C1140 1.379 . S
C1134 N1142 1.356 . S
C1135 C1134 1.363 . S
C1135 C1141 1.363 . S
C1136 C1137 1.363 . S
C1136 C1141 1.379 . S
C1136 N1143 1.356 . S
C1137 C1136 1.363 . S
C1137 C1140 1.363 . S
N1138 C1140 1.356 1_554 S
N1138 H1150 0.984 . S
N1138 H1151 0.985 . S
N1139 C1141 1.356 . S
N1139 H1144 0.984 . S
N1139 H1145 0.985 . S
C1140 C1134 1.379 . S
C1140 C1137 1.363 . S
C1140 N1138 1.356 1_556 S
C1141 C1135 1.363 . S
C1141 C1136 1.379 . S
C1141 N1139 1.356 . S
N1142 C1134 1.356 . S
N1142 H1148 0.984 . S
N1142 H1149 0.984 . S
N1143 C1136 1.356 . S
N1143 H1146 0.984 . S
N1143 H1147 0.985 . S
H1144 N1139 0.984 . S
H1145 N1139 0.985 . S
H1146 N1143 0.984 . S
H1147 N1143 0.985 . S
H1148 N1142 0.984 . S
H1149 N1142 0.984 . S
H1150 N1138 0.984 . S
H1151 N1138 0.985 . S
C1152 C1153 1.363 . S
C1152 C1158 1.379 . S
C1152 N1160 1.356 . S
C1153 C1152 1.363 . S
C1153 C1159 1.407 . S
C1154 C1155 1.363 1_554 S
C1154 C1159 1.372 1_554 S
C1154 N1161 1.356 . S
C1155 C1154 1.363 1_556 S
C1155 C1158 1.363 . S
N1156 C1158 1.356 . S
N1156 H1168 0.984 . S
N1156 H1169 0.985 . S
N1157 C1159 1.331 1_554 S
N1157 H1162 0.984 . S
N1157 H1163 0.985 . S
C1158 C1152 1.379 . S
C1158 C1155 1.363 . S
C1158 N1156 1.356 . S
C1159 C1153 1.407 . S
C1159 C1154 1.372 1_556 S
C1159 N1157 1.331 1_556 S
N1160 C1152 1.356 . S
N1160 H1166 0.984 . S
N1160 H1167 0.984 . S
N1161 C1154 1.356 . S
N1161 H1164 0.984 . S
N1161 H1165 0.985 . S
H1162 N1157 0.984 . S
H1163 N1157 0.985 . S
H1164 N1161 0.984 . S
H1165 N1161 0.985 . S
H1166 N1160 0.984 . S
H1167 N1160 0.984 . S
H1168 N1156 0.984 . S
H1169 N1156 0.985 . S
C1170 C1171 1.363 . S
C1170 C1176 1.379 . S
C1170 N1178 1.356 . S
C1171 C1170 1.363 . S
C1171 C1177 1.363 . S
C1172 C1173 1.363 . S
C1172 C1177 1.379 . S
C1172 N1179 1.356 1_556 S
C1173 C1172 1.363 . S
C1173 C1176 1.363 . S
N1174 C1176 1.356 . S
N1174 H1186 0.984 . S
N1174 H1187 0.985 . S
N1175 C1177 1.356 . S
N1175 H1180 0.984 . S
N1175 H1181 0.985 1_556 S
C1176 C1170 1.379 . S
C1176 C1173 1.363 . S
C1176 N1174 1.356 . S
C1177 C1171 1.363 . S
C1177 C1172 1.379 . S
C1177 N1175 1.356 . S
N1178 C1170 1.356 . S
N1178 H1184 0.984 . S
N1178 H1185 0.984 . S
N1179 C1172 1.356 1_554 S
N1179 H1182 0.984 . S
N1179 H1183 0.985 . S
H1180 N1175 0.984 . S
H1181 N1175 0.985 1_554 S
H1182 N1179 0.984 . S
H1183 N1179 0.985 . S
H1184 N1178 0.984 . S
H1185 N1178 0.984 . S
H1186 N1174 0.984 . S
H1187 N1174 0.985 . S
C1188 C1189 1.363 . S
C1188 C1194 1.379 . S
C1188 N1196 1.356 . S
C1189 C1188 1.363 . S
C1189 C1195 1.363 . S
C1190 C1191 1.363 . S
C1190 C1195 1.379 . S
C1190 N1197 1.356 1_556 S
C1191 C1190 1.363 . S
C1191 C1194 1.363 . S
N1192 C1194 1.356 . S
N1192 H1204 0.984 . S
N1192 H1205 0.985 . S
N1193 C1195 1.356 . S
N1193 H1198 0.984 . S
N1193 H1199 0.985 1_556 S
C1194 C1188 1.379 . S
C1194 C1191 1.363 . S
C1194 N1192 1.356 . S
C1195 C1189 1.363 . S
C1195 C1190 1.379 . S
C1195 N1193 1.356 . S
N1196 C1188 1.356 . S
N1196 H1202 0.984 . S
N1196 H1203 0.984 . S
N1197 C1190 1.356 1_554 S
N1197 H1200 0.984 . S
N1197 H1201 0.985 . S
H1198 N1193 0.984 . S
H1199 N1193 0.985 1_554 S
H1200 N1197 0.984 . S
H1201 N1197 0.985 . S
H1202 N1196 0.984 . S
H1203 N1196 0.984 . S
H1204 N1192 0.984 . S
H1205 N1192 0.985 . S
C1206 C1207 1.363 . S
C1206 C1212 1.379 . S
C1206 N1214 1.356 . S
C1207 C1206 1.363 . S
C1207 C1213 1.386 . S
C1208 C1209 1.344 1_554 S
C1208 C1213 1.384 1_554 S
C1208 N1215 1.370 . S
C1209 C1208 1.344 1_556 S
C1209 C1212 1.363 . S
N1210 C1212 1.356 . S
N1210 H1222 0.984 . S
N1210 H1223 0.985 . S
N1211 C1213 1.336 1_554 S
N1211 H1216 0.984 . S
N1211 H1217 0.985 . S
C1212 C1206 1.379 . S
C1212 C1209 1.363 . S
C1212 N1210 1.356 . S
C1213 C1207 1.386 . S
C1213 C1208 1.384 1_556 S
C1213 N1211 1.336 1_556 S
N1214 C1206 1.356 . S
N1214 H1220 0.984 . S
N1214 H1221 0.984 . S
N1215 C1208 1.370 . S
N1215 H1218 0.984 . S
N1215 H1219 0.985 . S
H1216 N1211 0.984 . S
H1217 N1211 0.985 . S
H1218 N1215 0.984 . S
H1219 N1215 0.985 . S
H1220 N1214 0.984 . S
H1221 N1214 0.984 . S
H1222 N1210 0.984 . S
H1223 N1210 0.985 . S
C1224 C1225 1.363 . S
C1224 C1230 1.379 . S
C1224 N1232 1.356 . S
C1225 C1224 1.363 . S
C1225 C1231 1.363 . S
C1226 C1227 1.363 . S
C1226 C1231 1.379 . S
C1226 N1233 1.356 1_554 S
C1227 C1226 1.363 . S
C1227 C1230 1.363 . S
N1228 C1230 1.356 . S
N1228 H1240 0.984 . S
N1228 H1241 0.985 . S
N1229 C1231 1.385 . S
N1229 H1234 1.001 . S
N1229 H1235 0.943 1_554 S
C1230 C1224 1.379 . S
C1230 C1227 1.363 . S
C1230 N1228 1.356 . S
C1231 C1225 1.363 . S
C1231 C1226 1.379 . S
C1231 N1229 1.385 . S
N1232 C1224 1.356 . S
N1232 H1238 0.984 . S
N1232 H1239 0.984 . S
N1233 C1226 1.356 1_556 S
N1233 H1236 0.984 . S
N1233 H1237 0.985 . S
H1234 N1229 1.001 . S
H1235 N1229 0.943 1_556 S
H1236 N1233 0.984 . S
H1237 N1233 0.985 . S
H1238 N1232 0.984 . S
H1239 N1232 0.984 . S
H1240 N1228 0.984 . S
H1241 N1228 0.985 . S
C1242 C1243 1.363 . S
C1242 C1248 1.379 . S
C1242 N1250 1.356 . S
C1243 C1242 1.363 . S
C1243 C1249 1.363 . S
C1244 C1245 1.363 . S
C1244 C1249 1.379 . S
C1244 N1251 1.356 . S
C1245 C1244 1.363 . S
C1245 C1248 1.363 . S
N1246 C1248 1.356 . S
N1246 H1258 0.984 . S
N1246 H1259 0.985 . S
N1247 C1249 1.356 . S
N1247 H1252 0.984 . S
N1247 H1253 0.985 . S
C1248 C1242 1.379 . S
C1248 C1245 1.363 . S
C1248 N1246 1.356 . S
C1249 C1243 1.363 . S
C1249 C1244 1.379 . S
C1249 N1247 1.356 . S
N1250 C1242 1.356 . S
N1250 H1256 0.984 . S
N1250 H1257 0.984 . S
N1251 C1244 1.356 . S
N1251 H1254 0.984 . S
N1251 H1255 0.985 . S
H1252 N1247 0.984 . S
H1253 N1247 0.985 . S
H1254 N1251 0.984 . S
H1255 N1251 0.985 . S
H1256 N1250 0.984 . S
H1257 N1250 0.984 . S
H1258 N1246 0.984 . S
H1259 N1246 0.985 . S
C1260 C1261 1.363 . S
C1260 C1266 1.384 . S
C1260 N1268 1.356 1_554 S
C1261 C1260 1.363 . S
C1261 C1267 1.363 . S
C1262 C1263 1.363 . S
C1262 C1267 1.379 . S
C1262 N1269 1.356 . S
C1263 C1262 1.363 . S
C1263 C1266 1.386 . S
N1264 C1266 1.333 1_556 S
N1264 H1276 0.984 . S
N1264 H1277 0.985 . S
N1265 C1267 1.356 . S
N1265 H1270 0.984 . S
N1265 H1271 0.985 . S
C1266 C1260 1.384 . S
C1266 C1263 1.386 . S
C1266 N1264 1.333 1_554 S
C1267 C1261 1.363 . S
C1267 C1262 1.379 . S
C1267 N1265 1.356 . S
N1268 C1260 1.356 1_556 S
N1268 H1274 0.984 . S
N1268 H1275 0.984 1_556 S
N1269 C1262 1.356 . S
N1269 H1272 0.984 . S
N1269 H1273 0.985 . S
H1270 N1265 0.984 . S
H1271 N1265 0.985 . S
H1272 N1269 0.984 . S
H1273 N1269 0.985 . S
H1274 N1268 0.984 . S
H1275 N1268 0.984 1_554 S
H1276 N1264 0.984 . S
H1277 N1264 0.985 . S
C1278 C1279 1.363 . S
C1278 C1284 1.379 . S
C1278 N1286 1.356 1_455 S
C1279 C1278 1.363 . S
C1279 C1285 1.363 . S
C1280 C1281 1.363 . S
C1280 C1285 1.379 . S
C1280 N1287 1.356 . S
C1281 C1280 1.363 . S
C1281 C1284 1.363 . S
N1282 C1284 1.356 . S
N1282 H1294 0.984 . S
N1282 H1295 0.985 . S
N1283 C1285 1.356 . S
N1283 H1288 0.984 1_455 S
N1283 H1289 0.985 . S
C1284 C1278 1.379 . S
C1284 C1281 1.363 . S
C1284 N1282 1.356 . S
C1285 C1279 1.363 . S
C1285 C1280 1.379 . S
C1285 N1283 1.356 . S
N1286 C1278 1.356 1_655 S
N1286 H1292 0.984 . S
N1286 H1293 0.984 . S
N1287 C1280 1.356 . S
N1287 H1290 0.984 . S
N1287 H1291 0.985 . S
H1288 N1283 0.984 1_655 S
H1289 N1283 0.985 . S
H1290 N1287 0.984 . S
H1291 N1287 0.985 . S
H1292 N1286 0.984 . S
H1293 N1286 0.984 . S
H1294 N1282 0.984 . S
H1295 N1282 0.985 . S
C1296 C1297 1.363 . S
C1296 C1302 1.379 . S
C1296 N1304 1.356 . S
C1297 C1296 1.363 . S
C1297 C1303 1.363 . S
C1298 C1299 1.363 . S
C1298 C1303 1.379 . S
C1298 N1305 1.356 . S
C1299 C1298 1.363 . S
C1299 C1302 1.363 . S
N1300 C1302 1.356 . S
N1300 H1312 0.984 . S
N1300 H1313 0.985 . S
N1301 C1303 1.356 . S
N1301 H1306 0.984 . S
N1301 H1307 0.985 . S
C1302 C1296 1.379 . S
C1302 C1299 1.363 . S
C1302 N1300 1.356 . S
C1303 C1297 1.363 . S
C1303 C1298 1.379 . S
C1303 N1301 1.356 . S
N1304 C1296 1.356 . S
N1304 H1310 0.984 . S
N1304 H1311 0.984 . S
N1305 C1298 1.356 . S
N1305 H1308 0.984 . S
N1305 H1309 0.985 . S
H1306 N1301 0.984 . S
H1307 N1301 0.985 . S
H1308 N1305 0.984 . S
H1309 N1305 0.985 . S
H1310 N1304 0.984 . S
H1311 N1304 0.984 . S
H1312 N1300 0.984 . S
H1313 N1300 0.985 . S
C1314 C1315 1.363 1_565 S
C1314 C1320 1.379 . S
C1314 N1322 1.356 1_565 S
C1315 C1314 1.363 1_545 S
C1315 C1321 1.363 1_545 S
C1316 C1317 1.363 . S
C1316 C1321 1.379 . S
C1316 N1323 1.356 . S
C1317 C1316 1.363 . S
C1317 C1320 1.363 . S
N1318 C1320 1.356 . S
N1318 H1330 0.984 . S
N1318 H1331 0.985 . S
N1319 C1321 1.356 1_545 S
N1319 H1324 0.984 . S
N1319 H1325 0.985 . S
C1320 C1314 1.379 . S
C1320 C1317 1.363 . S
C1320 N1318 1.356 . S
C1321 C1315 1.363 1_565 S
C1321 C1316 1.379 . S
C1321 N1319 1.356 1_565 S
N1322 C1314 1.356 1_545 S
N1322 H1328 0.984 . S
N1322 H1329 0.984 . S
N1323 C1316 1.356 . S
N1323 H1326 0.984 . S
N1323 H1327 0.985 . S
H1324 N1319 0.984 . S
H1325 N1319 0.985 . S
H1326 N1323 0.984 . S
H1327 N1323 0.985 . S
H1328 N1322 0.984 . S
H1329 N1322 0.984 . S
H1330 N1318 0.984 . S
H1331 N1318 0.985 . S
C1332 C1333 1.363 . S
C1332 C1338 1.379 . S
C1332 N1340 1.356 . S
C1333 C1332 1.363 . S
C1333 C1339 1.363 . S
C1334 C1335 1.363 . S
C1334 C1339 1.379 . S
C1334 N1341 1.356 . S
C1335 C1334 1.363 . S
C1335 C1338 1.363 . S
N1336 C1338 1.356 . S
N1336 H1348 0.984 . S
N1336 H1349 0.985 . S
N1337 C1339 1.356 . S
N1337 H1342 0.984 . S
N1337 H1343 0.985 . S
C1338 C1332 1.379 . S
C1338 C1335 1.363 . S
C1338 N1336 1.356 . S
C1339 C1333 1.363 . S
C1339 C1334 1.379 . S
C1339 N1337 1.356 . S
N1340 C1332 1.356 . S
N1340 H1346 0.984 . S
N1340 H1347 0.984 . S
N1341 C1334 1.356 . S
N1341 H1344 0.984 . S
N1341 H1345 0.985 . S
H1342 N1337 0.984 . S
H1343 N1337 0.985 . S
H1344 N1341 0.984 . S
H1345 N1341 0.985 . S
H1346 N1340 0.984 . S
H1347 N1340 0.984 . S
H1348 N1336 0.984 . S
H1349 N1336 0.985 . S
C1350 C1351 1.363 . S
C1350 C1356 1.379 . S
C1350 N1358 1.356 . S
C1351 C1350 1.363 . S
C1351 C1357 1.363 . S
C1352 C1353 1.363 . S
C1352 C1357 1.379 . S
C1352 N1359 1.356 . S
C1353 C1352 1.363 . S
C1353 C1356 1.363 . S
N1354 C1356 1.356 . S
N1354 H1366 0.984 . S
N1354 H1367 0.985 . S
N1355 C1357 1.356 . S
N1355 H1360 0.984 . S
N1355 H1361 0.985 . S
C1356 C1350 1.379 . S
C1356 C1353 1.363 . S
C1356 N1354 1.356 . S
C1357 C1351 1.363 . S
C1357 C1352 1.379 . S
C1357 N1355 1.356 . S
N1358 C1350 1.356 . S
N1358 H1364 0.984 . S
N1358 H1365 0.984 . S
N1359 C1352 1.356 . S
N1359 H1362 0.984 . S
N1359 H1363 0.985 . S
H1360 N1355 0.984 . S
H1361 N1355 0.985 . S
H1362 N1359 0.984 . S
H1363 N1359 0.985 . S
H1364 N1358 0.984 . S
H1365 N1358 0.984 . S
H1366 N1354 0.984 . S
H1367 N1354 0.985 . S
C1368 C1369 1.363 . S
C1368 C1374 1.379 . S
C1368 N1376 1.356 . S
C1369 C1368 1.363 . S
C1369 C1375 1.363 . S
C1370 C1371 1.363 . S
C1370 C1375 1.379 . S
C1370 N1377 1.356 . S
C1371 C1370 1.363 . S
C1371 C1374 1.363 . S
N1372 C1374 1.356 . S
N1372 H1384 0.984 . S
N1372 H1385 0.985 . S
N1373 C1375 1.356 . S
N1373 H1378 0.984 . S
N1373 H1379 0.985 . S
C1374 C1368 1.379 . S
C1374 C1371 1.363 . S
C1374 N1372 1.356 . S
C1375 C1369 1.363 . S
C1375 C1370 1.379 . S
C1375 N1373 1.356 . S
N1376 C1368 1.356 . S
N1376 H1382 0.984 . S
N1376 H1383 0.984 . S
N1377 C1370 1.356 . S
N1377 H1380 0.984 . S
N1377 H1381 0.985 . S
H1378 N1373 0.984 . S
H1379 N1373 0.985 . S
H1380 N1377 0.984 . S
H1381 N1377 0.985 . S
H1382 N1376 0.984 . S
H1383 N1376 0.984 . S
H1384 N1372 0.984 . S
H1385 N1372 0.985 . S
C1386 C1387 1.363 . S
C1386 C1392 1.379 . S
C1386 N1394 1.356 . S
C1387 C1386 1.363 . S
C1387 C1393 1.363 . S
C1388 C1389 1.363 . S
C1388 C1393 1.379 . S
C1388 N1395 1.356 . S
C1389 C1388 1.363 . S
C1389 C1392 1.363 . S
N1390 C1392 1.356 . S
N1390 H1402 0.984 . S
N1390 H1403 0.985 . S
N1391 C1393 1.356 . S
N1391 H1396 0.984 . S
N1391 H1397 0.985 . S
C1392 C1386 1.379 . S
C1392 C1389 1.363 . S
C1392 N1390 1.356 . S
C1393 C1387 1.363 . S
C1393 C1388 1.379 . S
C1393 N1391 1.356 . S
N1394 C1386 1.356 . S
N1394 H1400 0.984 . S
N1394 H1401 0.984 . S
N1395 C1388 1.356 . S
N1395 H1398 0.984 . S
N1395 H1399 0.985 . S
H1396 N1391 0.984 . S
H1397 N1391 0.985 . S
H1398 N1395 0.984 . S
H1399 N1395 0.985 . S
H1400 N1394 0.984 . S
H1401 N1394 0.984 . S
H1402 N1390 0.984 . S
H1403 N1390 0.985 . S
C1404 C1405 1.363 . S
C1404 C1410 1.379 . S
C1404 N1412 1.356 . S
C1405 C1404 1.363 . S
C1405 C1411 1.363 . S
C1406 C1407 1.363 . S
C1406 C1411 1.379 . S
C1406 N1413 1.356 . S
C1407 C1406 1.363 . S
C1407 C1410 1.363 . S
N1408 C1410 1.356 . S
N1408 H1420 0.984 . S
N1408 H1421 0.985 . S
N1409 C1411 1.356 . S
N1409 H1414 0.984 . S
N1409 H1415 0.985 . S
C1410 C1404 1.379 . S
C1410 C1407 1.363 . S
C1410 N1408 1.356 . S
C1411 C1405 1.363 . S
C1411 C1406 1.379 . S
C1411 N1409 1.356 . S
N1412 C1404 1.356 . S
N1412 H1418 0.984 . S
N1412 H1419 0.984 . S
N1413 C1406 1.356 . S
N1413 H1416 0.984 . S
N1413 H1417 0.985 . S
H1414 N1409 0.984 . S
H1415 N1409 0.985 . S
H1416 N1413 0.984 . S
H1417 N1413 0.985 . S
H1418 N1412 0.984 . S
H1419 N1412 0.984 . S
H1420 N1408 0.984 . S
H1421 N1408 0.985 . S
C1422 C1423 1.363 . S
C1422 C1428 1.379 . S
C1422 N1430 1.356 . S
C1423 C1422 1.363 . S
C1423 C1429 1.363 . S
C1424 C1425 1.363 . S
C1424 C1429 1.379 . S
C1424 N1431 1.356 . S
C1425 C1424 1.363 . S
C1425 C1428 1.363 . S
N1426 C1428 1.356 . S
N1426 H1438 0.984 . S
N1426 H1439 0.985 . S
N1427 C1429 1.356 . S
N1427 H1432 0.984 . S
N1427 H1433 0.985 . S
C1428 C1422 1.379 . S
C1428 C1425 1.363 . S
C1428 N1426 1.356 . S
C1429 C1423 1.363 . S
C1429 C1424 1.379 . S
C1429 N1427 1.356 . S
N1430 C1422 1.356 . S
N1430 H1436 0.984 . S
N1430 H1437 0.984 . S
N1431 C1424 1.356 . S
N1431 H1434 0.984 . S
N1431 H1435 0.985 . S
H1432 N1427 0.984 . S
H1433 N1427 0.985 . S
H1434 N1431 0.984 . S
H1435 N1431 0.985 . S
H1436 N1430 0.984 . S
H1437 N1430 0.984 . S
H1438 N1426 0.984 . S
H1439 N1426 0.985 . S
C1440 C1441 1.363 . S
C1440 C1446 1.379 . S
C1440 N1448 1.356 1_565 S
C1441 C1440 1.363 . S
C1441 C1447 1.363 . S
C1442 C1443 1.363 . S
C1442 C1447 1.379 . S
C1442 N1449 1.356 . S
C1443 C1442 1.363 . S
C1443 C1446 1.363 . S
N1444 C1446 1.356 . S
N1444 H1456 0.984 . S
N1444 H1457 0.985 . S
N1445 C1447 1.356 1_545 S
N1445 H1450 0.984 . S
N1445 H1451 0.985 . S
C1446 C1440 1.379 . S
C1446 C1443 1.363 . S
C1446 N1444 1.356 . S
C1447 C1441 1.363 . S
C1447 C1442 1.379 . S
C1447 N1445 1.356 1_565 S
N1448 C1440 1.356 1_545 S
N1448 H1454 0.984 1_545 S
N1448 H1455 0.984 . S
N1449 C1442 1.356 . S
N1449 H1452 0.984 . S
N1449 H1453 0.985 . S
H1450 N1445 0.984 . S
H1451 N1445 0.985 . S
H1452 N1449 0.984 . S
H1453 N1449 0.985 . S
H1454 N1448 0.984 1_565 S
H1455 N1448 0.984 . S
H1456 N1444 0.984 . S
H1457 N1444 0.985 . S
C1458 C1459 1.363 . S
C1458 C1464 1.379 . S
C1458 N1466 1.356 . S
C1459 C1458 1.363 . S
C1459 C1465 1.363 . S
C1460 C1461 1.363 . S
C1460 C1465 1.379 . S
C1460 N1467 1.356 . S
C1461 C1460 1.363 . S
C1461 C1464 1.363 . S
N1462 C1464 1.356 . S
N1462 H1474 0.984 . S
N1462 H1475 0.985 . S
N1463 C1465 1.356 . S
N1463 H1468 0.984 . S
N1463 H1469 0.985 . S
C1464 C1458 1.379 . S
C1464 C1461 1.363 . S
C1464 N1462 1.356 . S
C1465 C1459 1.363 . S
C1465 C1460 1.379 . S
C1465 N1463 1.356 . S
N1466 C1458 1.356 . S
N1466 H1472 0.984 . S
N1466 H1473 0.984 1_455 S
N1467 C1460 1.356 . S
N1467 H1470 0.984 . S
N1467 H1471 0.985 . S
H1468 N1463 0.984 . S
H1469 N1463 0.985 . S
H1470 N1467 0.984 . S
H1471 N1467 0.985 . S
H1472 N1466 0.984 . S
H1473 N1466 0.984 1_655 S
H1474 N1462 0.984 . S
H1475 N1462 0.985 . S
C1476 C1477 1.363 . S
C1476 C1482 1.379 . S
C1476 N1484 1.356 . S
C1477 C1476 1.363 . S
C1477 C1483 1.363 . S
C1478 C1479 1.363 . S
C1478 C1483 1.379 . S
C1478 N1485 1.356 . S
C1479 C1478 1.363 . S
C1479 C1482 1.363 . S
N1480 C1482 1.356 . S
N1480 H1492 0.984 . S
N1480 H1493 0.985 . S
N1481 C1483 1.356 . S
N1481 H1486 0.984 . S
N1481 H1487 0.985 . S
C1482 C1476 1.379 . S
C1482 C1479 1.363 . S
C1482 N1480 1.356 . S
C1483 C1477 1.363 . S
C1483 C1478 1.379 . S
C1483 N1481 1.356 . S
N1484 C1476 1.356 . S
N1484 H1490 0.984 . S
N1484 H1491 0.984 . S
N1485 C1478 1.356 . S
N1485 H1488 0.984 . S
N1485 H1489 0.985 . S
H1486 N1481 0.984 . S
H1487 N1481 0.985 . S
H1488 N1485 0.984 . S
H1489 N1485 0.985 . S
H1490 N1484 0.984 . S
H1491 N1484 0.984 . S
H1492 N1480 0.984 . S
H1493 N1480 0.985 . S
C1494 C1495 1.363 . S
C1494 C1500 1.379 . S
C1494 N1502 1.356 . S
C1495 C1494 1.363 . S
C1495 C1501 1.363 . S
C1496 C1497 1.363 . S
C1496 C1501 1.379 . S
C1496 N1503 1.356 . S
C1497 C1496 1.363 . S
C1497 C1500 1.363 . S
N1498 C1500 1.356 . S
N1498 H1510 0.984 . S
N1498 H1511 0.985 . S
N1499 C1501 1.356 . S
N1499 H1504 0.984 . S
N1499 H1505 0.985 . S
C1500 C1494 1.379 . S
C1500 C1497 1.363 . S
C1500 N1498 1.356 . S
C1501 C1495 1.363 . S
C1501 C1496 1.379 . S
C1501 N1499 1.356 . S
N1502 C1494 1.356 . S
N1502 H1508 0.984 . S
N1502 H1509 0.984 . S
N1503 C1496 1.356 . S
N1503 H1506 0.984 . S
N1503 H1507 0.985 . S
H1504 N1499 0.984 . S
H1505 N1499 0.985 . S
H1506 N1503 0.984 . S
H1507 N1503 0.985 . S
H1508 N1502 0.984 . S
H1509 N1502 0.984 . S
H1510 N1498 0.984 . S
H1511 N1498 0.985 . S
C1512 C1513 1.363 . S
C1512 C1518 1.379 . S
C1512 N1520 1.356 . S
C1513 C1512 1.363 . S
C1513 C1519 1.363 . S
C1514 C1515 1.363 . S
C1514 C1519 1.379 . S
C1514 N1521 1.356 . S
C1515 C1514 1.363 . S
C1515 C1518 1.363 . S
N1516 C1518 1.356 . S
N1516 H1528 0.984 . S
N1516 H1529 0.985 . S
N1517 C1519 1.356 . S
N1517 H1522 0.984 . S
N1517 H1523 0.985 . S
C1518 C1512 1.379 . S
C1518 C1515 1.363 . S
C1518 N1516 1.356 . S
C1519 C1513 1.363 . S
C1519 C1514 1.379 . S
C1519 N1517 1.356 . S
N1520 C1512 1.356 . S
N1520 H1526 0.984 . S
N1520 H1527 0.984 . S
N1521 C1514 1.356 . S
N1521 H1524 0.984 . S
N1521 H1525 0.985 . S
H1522 N1517 0.984 . S
H1523 N1517 0.985 . S
H1524 N1521 0.984 . S
H1525 N1521 0.985 . S
H1526 N1520 0.984 . S
H1527 N1520 0.984 . S
H1528 N1516 0.984 . S
H1529 N1516 0.985 . S
C1530 C1531 1.363 . S
C1530 C1536 1.379 . S
C1530 N1538 1.356 . S
C1531 C1530 1.363 . S
C1531 C1537 1.363 . S
C1532 C1533 1.363 . S
C1532 C1537 1.379 . S
C1532 N1539 1.356 . S
C1533 C1532 1.363 . S
C1533 C1536 1.363 . S
N1534 C1536 1.356 . S
N1534 H1546 0.984 . S
N1534 H1547 0.985 . S
N1535 C1537 1.356 . S
N1535 H1540 0.984 . S
N1535 H1541 0.985 . S
C1536 C1530 1.379 . S
C1536 C1533 1.363 . S
C1536 N1534 1.356 . S
C1537 C1531 1.363 . S
C1537 C1532 1.379 . S
C1537 N1535 1.356 . S
N1538 C1530 1.356 . S
N1538 H1544 0.984 . S
N1538 H1545 0.984 . S
N1539 C1532 1.356 . S
N1539 H1542 0.984 . S
N1539 H1543 0.985 . S
H1540 N1535 0.984 . S
H1541 N1535 0.985 . S
H1542 N1539 0.984 . S
H1543 N1539 0.985 . S
H1544 N1538 0.984 . S
H1545 N1538 0.984 . S
H1546 N1534 0.984 . S
H1547 N1534 0.985 . S
C1548 C1549 1.363 . S
C1548 C1554 1.379 . S
C1548 N1556 1.356 1_545 S
C1549 C1548 1.363 . S
C1549 C1555 1.363 . S
C1550 C1551 1.363 . S
C1550 C1555 1.379 . S
C1550 N1557 1.356 . S
C1551 C1550 1.363 . S
C1551 C1554 1.363 . S
N1552 C1554 1.356 . S
N1552 H1564 0.984 . S
N1552 H1565 0.985 . S
N1553 C1555 1.331 1_565 S
N1553 H1558 1.011 . S
N1553 H1559 0.983 1_565 S
C1554 C1548 1.379 . S
C1554 C1551 1.363 . S
C1554 N1552 1.356 . S
C1555 C1549 1.363 . S
C1555 C1550 1.379 . S
C1555 N1553 1.331 1_545 S
N1556 C1548 1.356 1_565 S
N1556 H1562 0.984 . S
N1556 H1563 0.984 . S
N1557 C1550 1.356 . S
N1557 H1560 0.984 . S
N1557 H1561 0.985 . S
H1558 N1553 1.011 . S
H1559 N1553 0.983 1_545 S
H1560 N1557 0.984 . S
H1561 N1557 0.985 . S
H1562 N1556 0.984 . S
H1563 N1556 0.984 . S
H1564 N1552 0.984 . S
H1565 N1552 0.985 . S
C1566 C1567 1.363 . S
C1566 C1572 1.379 . S
C1566 N1574 1.356 . S
C1567 C1566 1.363 . S
C1567 C1573 1.363 . S
C1568 C1569 1.363 . S
C1568 C1573 1.379 . S
C1568 N1575 1.356 . S
C1569 C1568 1.363 . S
C1569 C1572 1.363 . S
N1570 C1572 1.356 . S
N1570 H1582 0.984 . S
N1570 H1583 0.985 . S
N1571 C1573 1.356 1_455 S
N1571 H1576 0.984 . S
N1571 H1577 0.985 . S
C1572 C1566 1.379 . S
C1572 C1569 1.363 . S
C1572 N1570 1.356 . S
C1573 C1567 1.363 . S
C1573 C1568 1.379 . S
C1573 N1571 1.356 1_655 S
N1574 C1566 1.356 . S
N1574 H1580 0.984 . S
N1574 H1581 0.984 . S
N1575 C1568 1.356 . S
N1575 H1578 0.984 . S
N1575 H1579 0.985 . S
H1576 N1571 0.984 . S
H1577 N1571 0.985 . S
H1578 N1575 0.984 . S
H1579 N1575 0.985 . S
H1580 N1574 0.984 . S
H1581 N1574 0.984 . S
H1582 N1570 0.984 . S
H1583 N1570 0.985 . S
C1584 C1585 1.363 . S
C1584 C1590 1.379 . S
C1584 N1592 1.356 . S
C1585 C1584 1.363 . S
C1585 C1591 1.363 . S
C1586 C1587 1.363 . S
C1586 C1591 1.379 . S
C1586 N1593 1.356 . S
C1587 C1586 1.363 . S
C1587 C1590 1.363 . S
N1588 C1590 1.356 . S
N1588 H1600 0.984 . S
N1588 H1601 0.985 . S
N1589 C1591 1.356 . S
N1589 H1594 0.984 . S
N1589 H1595 0.985 . S
C1590 C1584 1.379 . S
C1590 C1587 1.363 . S
C1590 N1588 1.356 . S
C1591 C1585 1.363 . S
C1591 C1586 1.379 . S
C1591 N1589 1.356 . S
N1592 C1584 1.356 . S
N1592 H1598 0.984 . S
N1592 H1599 0.984 . S
N1593 C1586 1.356 . S
N1593 H1596 0.984 . S
N1593 H1597 0.985 . S
H1594 N1589 0.984 . S
H1595 N1589 0.985 . S
H1596 N1593 0.984 . S
H1597 N1593 0.985 . S
H1598 N1592 0.984 . S
H1599 N1592 0.984 . S
H1600 N1588 0.984 . S
H1601 N1588 0.985 . S
C1602 C1603 1.363 . S
C1602 C1608 1.379 . S
C1602 N1610 1.356 . S
C1603 C1602 1.363 . S
C1603 C1609 1.363 . S
C1604 C1605 1.363 . S
C1604 C1609 1.379 . S
C1604 N1611 1.356 . S
C1605 C1604 1.363 . S
C1605 C1608 1.363 . S
N1606 C1608 1.356 . S
N1606 H1618 0.984 . S
N1606 H1619 0.985 . S
N1607 C1609 1.356 1_455 S
N1607 H1612 0.984 . S
N1607 H1613 0.985 . S
C1608 C1602 1.379 . S
C1608 C1605 1.363 . S
C1608 N1606 1.356 . S
C1609 C1603 1.363 . S
C1609 C1604 1.379 . S
C1609 N1607 1.356 1_655 S
N1610 C1602 1.356 . S
N1610 H1616 0.984 . S
N1610 H1617 0.984 . S
N1611 C1604 1.356 . S
N1611 H1614 0.984 . S
N1611 H1615 0.985 . S
H1612 N1607 0.984 . S
H1613 N1607 0.985 . S
H1614 N1611 0.984 . S
H1615 N1611 0.985 . S
H1616 N1610 0.984 . S
H1617 N1610 0.984 . S
H1618 N1606 0.984 . S
H1619 N1606 0.985 . S
C1620 C1621 1.363 . S
C1620 C1626 1.379 . S
C1620 N1628 1.356 . S
C1621 C1620 1.363 . S
C1621 C1627 1.363 . S
C1622 C1623 1.363 . S
C1622 C1627 1.379 . S
C1622 N1629 1.356 . S
C1623 C1622 1.363 . S
C1623 C1626 1.363 . S
N1624 C1626 1.356 . S
N1624 H1636 0.984 . S
N1624 H1637 0.985 . S
N1625 C1627 1.356 . S
N1625 H1630 0.984 . S
N1625 H1631 0.985 . S
C1626 C1620 1.379 . S
C1626 C1623 1.363 . S
C1626 N1624 1.356 . S
C1627 C1621 1.363 . S
C1627 C1622 1.379 . S
C1627 N1625 1.356 . S
N1628 C1620 1.356 . S
N1628 H1634 0.984 . S
N1628 H1635 0.984 . S
N1629 C1622 1.356 . S
N1629 H1632 0.984 . S
N1629 H1633 0.985 . S
H1630 N1625 0.984 . S
H1631 N1625 0.985 . S
H1632 N1629 0.984 . S
H1633 N1629 0.985 . S
H1634 N1628 0.984 . S
H1635 N1628 0.984 . S
H1636 N1624 0.984 . S
H1637 N1624 0.985 . S
C1638 C1639 1.363 1_545 S
C1638 C1644 1.379 . S
C1638 N1646 1.356 1_545 S
C1639 C1638 1.363 1_565 S
C1639 C1645 1.363 1_565 S
C1640 C1641 1.363 . S
C1640 C1645 1.379 . S
C1640 N1647 1.356 . S
C1641 C1640 1.363 . S
C1641 C1644 1.363 . S
N1642 C1644 1.356 . S
N1642 H1654 0.984 . S
N1642 H1655 0.985 . S
N1643 C1645 1.356 1_565 S
N1643 H1648 0.984 . S
N1643 H1649 0.985 1_565 S
C1644 C1638 1.379 . S
C1644 C1641 1.363 . S
C1644 N1642 1.356 . S
C1645 C1639 1.363 1_545 S
C1645 C1640 1.379 . S
C1645 N1643 1.356 1_545 S
N1646 C1638 1.356 1_565 S
N1646 H1652 0.984 . S
N1646 H1653 0.984 . S
N1647 C1640 1.356 . S
N1647 H1650 0.984 . S
N1647 H1651 0.985 . S
H1648 N1643 0.984 . S
H1649 N1643 0.985 1_545 S
H1650 N1647 0.984 . S
H1651 N1647 0.985 . S
H1652 N1646 0.984 . S
H1653 N1646 0.984 . S
H1654 N1642 0.984 . S
H1655 N1642 0.985 . S
C1656 C1657 1.363 . S
C1656 C1662 1.379 . S
C1656 N1664 1.356 . S
C1657 C1656 1.363 . S
C1657 C1663 1.363 . S
C1658 C1659 1.363 . S
C1658 C1663 1.379 . S
C1658 N1665 1.356 . S
C1659 C1658 1.363 . S
C1659 C1662 1.363 . S
N1660 C1662 1.356 . S
N1660 H1672 0.984 . S
N1660 H1673 0.985 . S
N1661 C1663 1.356 . S
N1661 H1666 0.984 . S
N1661 H1667 0.985 . S
C1662 C1656 1.379 . S
C1662 C1659 1.363 . S
C1662 N1660 1.356 . S
C1663 C1657 1.363 . S
C1663 C1658 1.379 . S
C1663 N1661 1.356 . S
N1664 C1656 1.356 . S
N1664 H1670 0.984 . S
N1664 H1671 0.984 . S
N1665 C1658 1.356 . S
N1665 H1668 0.984 . S
N1665 H1669 0.985 . S
H1666 N1661 0.984 . S
H1667 N1661 0.985 . S
H1668 N1665 0.984 . S
H1669 N1665 0.985 . S
H1670 N1664 0.984 . S
H1671 N1664 0.984 . S
H1672 N1660 0.984 . S
H1673 N1660 0.985 . S
C1674 C1675 1.363 . S
C1674 C1680 1.379 . S
C1674 N1682 1.356 . S
C1675 C1674 1.363 . S
C1675 C1681 1.363 . S
C1676 C1677 1.363 . S
C1676 C1681 1.379 . S
C1676 N1683 1.356 . S
C1677 C1676 1.363 . S
C1677 C1680 1.363 . S
N1678 C1680 1.356 . S
N1678 H1690 0.984 . S
N1678 H1691 0.985 . S
N1679 C1681 1.356 . S
N1679 H1684 0.984 . S
N1679 H1685 0.985 . S
C1680 C1674 1.379 . S
C1680 C1677 1.363 . S
C1680 N1678 1.356 . S
C1681 C1675 1.363 . S
C1681 C1676 1.379 . S
C1681 N1679 1.356 . S
N1682 C1674 1.356 . S
N1682 H1688 0.984 . S
N1682 H1689 0.984 . S
N1683 C1676 1.356 . S
N1683 H1686 0.984 . S
N1683 H1687 0.985 . S
H1684 N1679 0.984 . S
H1685 N1679 0.985 . S
H1686 N1683 0.984 . S
H1687 N1683 0.985 . S
H1688 N1682 0.984 . S
H1689 N1682 0.984 . S
H1690 N1678 0.984 . S
H1691 N1678 0.985 . S
C1692 C1693 1.363 . S
C1692 C1698 1.379 . S
C1692 N1700 1.356 . S
C1693 C1692 1.363 . S
C1693 C1699 1.363 . S
C1694 C1695 1.363 . S
C1694 C1699 1.379 . S
C1694 N1701 1.356 . S
C1695 C1694 1.363 . S
C1695 C1698 1.363 . S
N1696 C1698 1.356 . S
N1696 H1708 0.984 . S
N1696 H1709 0.985 . S
N1697 C1699 1.356 . S
N1697 H1702 0.984 . S
N1697 H1703 0.985 . S
C1698 C1692 1.379 . S
C1698 C1695 1.363 . S
C1698 N1696 1.356 . S
C1699 C1693 1.363 . S
C1699 C1694 1.379 . S
C1699 N1697 1.356 . S
N1700 C1692 1.356 . S
N1700 H1706 0.984 . S
N1700 H1707 0.984 . S
N1701 C1694 1.356 . S
N1701 H1704 0.984 . S
N1701 H1705 0.985 . S
H1702 N1697 0.984 . S
H1703 N1697 0.985 . S
H1704 N1701 0.984 . S
H1705 N1701 0.985 . S
H1706 N1700 0.984 . S
H1707 N1700 0.984 . S
H1708 N1696 0.984 . S
H1709 N1696 0.985 . S
C1710 C1711 1.363 1_545 S
C1710 C1716 1.379 . S
C1710 N1718 1.356 . S
C1711 C1710 1.363 1_565 S
C1711 C1717 1.363 . S
C1712 C1713 1.363 . S
C1712 C1717 1.379 . S
C1712 N1719 1.356 . S
C1713 C1712 1.363 . S
C1713 C1716 1.363 1_565 S
N1714 C1716 1.356 . S
N1714 H1726 0.984 . S
N1714 H1727 0.985 . S
N1715 C1717 1.356 . S
N1715 H1720 0.984 . S
N1715 H1721 0.985 . S
C1716 C1710 1.379 . S
C1716 C1713 1.363 1_545 S
C1716 N1714 1.356 . S
C1717 C1711 1.363 . S
C1717 C1712 1.379 . S
C1717 N1715 1.356 . S
N1718 C1710 1.356 . S
N1718 H1724 0.984 . S
N1718 H1725 0.984 . S
N1719 C1712 1.356 . S
N1719 H1722 0.984 . S
N1719 H1723 0.985 . S
H1720 N1715 0.984 . S
H1721 N1715 0.985 . S
H1722 N1719 0.984 . S
H1723 N1719 0.985 . S
H1724 N1718 0.984 . S
H1725 N1718 0.984 . S
H1726 N1714 0.984 . S
H1727 N1714 0.985 . S
C1728 C1729 1.363 . S
C1728 C1734 1.379 . S
C1728 N1736 1.356 1_455 S
C1729 C1728 1.363 . S
C1729 C1735 1.363 . S
C1730 C1731 1.363 . S
C1730 C1735 1.379 . S
C1730 N1737 1.356 . S
C1731 C1730 1.363 . S
C1731 C1734 1.363 . S
N1732 C1734 1.356 . S
N1732 H1744 0.984 . S
N1732 H1745 0.985 . S
N1733 C1735 1.356 . S
N1733 H1738 0.984 . S
N1733 H1739 0.985 . S
C1734 C1728 1.379 . S
C1734 C1731 1.363 . S
C1734 N1732 1.356 . S
C1735 C1729 1.363 . S
C1735 C1730 1.379 . S
C1735 N1733 1.356 . S
N1736 C1728 1.356 1_655 S
N1736 H1742 0.984 . S
N1736 H1743 0.984 . S
N1737 C1730 1.356 . S
N1737 H1740 0.984 . S
N1737 H1741 0.985 . S
H1738 N1733 0.984 . S
H1739 N1733 0.985 . S
H1740 N1737 0.984 . S
H1741 N1737 0.985 . S
H1742 N1736 0.984 . S
H1743 N1736 0.984 . S
H1744 N1732 0.984 . S
H1745 N1732 0.985 . S
C1746 C1747 1.363 . S
C1746 C1752 1.379 . S
C1746 N1754 1.356 . S
C1747 C1746 1.363 . S
C1747 C1753 1.363 . S
C1748 C1749 1.363 . S
C1748 C1753 1.379 . S
C1748 N1755 1.356 . S
C1749 C1748 1.363 . S
C1749 C1752 1.363 . S
N1750 C1752 1.356 . S
N1750 H1762 0.984 . S
N1750 H1763 0.985 . S
N1751 C1753 1.356 . S
N1751 H1756 0.984 . S
N1751 H1757 0.985 . S
C1752 C1746 1.379 . S
C1752 C1749 1.363 . S
C1752 N1750 1.356 . S
C1753 C1747 1.363 . S
C1753 C1748 1.379 . S
C1753 N1751 1.356 . S
N1754 C1746 1.356 . S
N1754 H1760 0.984 . S
N1754 H1761 0.984 . S
N1755 C1748 1.356 . S
N1755 H1758 0.984 . S
N1755 H1759 0.985 . S
H1756 N1751 0.984 . S
H1757 N1751 0.985 . S
H1758 N1755 0.984 . S
H1759 N1755 0.985 . S
H1760 N1754 0.984 . S
H1761 N1754 0.984 . S
H1762 N1750 0.984 . S
H1763 N1750 0.985 . S
C1764 C1765 1.363 1_455 S
C1764 C1770 1.379 . S
C1764 N1772 1.356 . S
C1765 C1764 1.363 1_655 S
C1765 C1771 1.363 . S
C1766 C1767 1.363 . S
C1766 C1771 1.379 . S
C1766 N1773 1.356 . S
C1767 C1766 1.363 . S
C1767 C1770 1.363 1_655 S
N1768 C1770 1.356 . S
N1768 H1780 0.984 . S
N1768 H1781 0.985 . S
N1769 C1771 1.356 . S
N1769 H1774 0.984 . S
N1769 H1775 0.985 . S
C1770 C1764 1.379 . S
C1770 C1767 1.363 1_455 S
C1770 N1768 1.356 . S
C1771 C1765 1.363 . S
C1771 C1766 1.379 . S
C1771 N1769 1.356 . S
N1772 C1764 1.356 . S
N1772 H1778 0.984 . S
N1772 H1779 0.984 . S
N1773 C1766 1.356 . S
N1773 H1776 0.984 . S
N1773 H1777 0.985 . S
H1774 N1769 0.984 . S
H1775 N1769 0.985 . S
H1776 N1773 0.984 . S
H1777 N1773 0.985 . S
H1778 N1772 0.984 . S
H1779 N1772 0.984 . S
H1780 N1768 0.984 . S
H1781 N1768 0.985 . S
C1782 C1783 1.363 . S
C1782 C1788 1.379 . S
C1782 N1790 1.356 . S
C1783 C1782 1.363 . S
C1783 C1789 1.363 . S
C1784 C1785 1.363 . S
C1784 C1789 1.379 . S
C1784 N1791 1.356 . S
C1785 C1784 1.363 . S
C1785 C1788 1.363 . S
N1786 C1788 1.356 . S
N1786 H1798 0.984 . S
N1786 H1799 0.985 . S
N1787 C1789 1.356 . S
N1787 H1792 0.984 . S
N1787 H1793 0.985 . S
C1788 C1782 1.379 . S
C1788 C1785 1.363 . S
C1788 N1786 1.356 . S
C1789 C1783 1.363 . S
C1789 C1784 1.379 . S
C1789 N1787 1.356 . S
N1790 C1782 1.356 . S
N1790 H1796 0.984 . S
N1790 H1797 0.984 . S
N1791 C1784 1.356 . S
N1791 H1794 0.984 . S
N1791 H1795 0.985 . S
H1792 N1787 0.984 . S
H1793 N1787 0.985 . S
H1794 N1791 0.984 . S
H1795 N1791 0.985 . S
H1796 N1790 0.984 . S
H1797 N1790 0.984 . S
H1798 N1786 0.984 . S
H1799 N1786 0.985 . S
C1800 C1801 1.363 . S
C1800 C1806 1.379 . S
C1800 N1808 1.356 . S
C1801 C1800 1.363 . S
C1801 C1807 1.363 . S
C1802 C1803 1.363 1_565 S
C1802 C1807 1.379 1_565 S
C1802 N1809 1.356 . S
C1803 C1802 1.363 1_545 S
C1803 C1806 1.363 . S
N1804 C1806 1.356 . S
N1804 H1816 0.984 . S
N1804 H1817 0.985 . S
N1805 C1807 1.356 1_565 S
N1805 H1810 0.984 1_565 S
N1805 H1811 0.985 . S
C1806 C1800 1.379 . S
C1806 C1803 1.363 . S
C1806 N1804 1.356 . S
C1807 C1801 1.363 . S
C1807 C1802 1.379 1_545 S
C1807 N1805 1.356 1_545 S
N1808 C1800 1.356 . S
N1808 H1814 0.984 . S
N1808 H1815 0.984 . S
N1809 C1802 1.356 . S
N1809 H1812 0.984 . S
N1809 H1813 0.985 . S
H1810 N1805 0.984 1_545 S
H1811 N1805 0.985 . S
H1812 N1809 0.984 . S
H1813 N1809 0.985 . S
H1814 N1808 0.984 . S
H1815 N1808 0.984 . S
H1816 N1804 0.984 . S
H1817 N1804 0.985 . S
C1818 C1819 1.363 . S
C1818 C1824 1.379 . S
C1818 N1826 1.356 . S
C1819 C1818 1.363 . S
C1819 C1825 1.363 . S
C1820 C1821 1.363 . S
C1820 C1825 1.379 . S
C1820 N1827 1.356 . S
C1821 C1820 1.363 . S
C1821 C1824 1.363 . S
N1822 C1824 1.356 . S
N1822 H1834 0.984 . S
N1822 H1835 0.985 . S
N1823 C1825 1.356 . S
N1823 H1828 0.984 . S
N1823 H1829 0.985 . S
C1824 C1818 1.379 . S
C1824 C1821 1.363 . S
C1824 N1822 1.356 . S
C1825 C1819 1.363 . S
C1825 C1820 1.379 . S
C1825 N1823 1.356 . S
N1826 C1818 1.356 . S
N1826 H1832 0.984 . S
N1826 H1833 0.984 . S
N1827 C1820 1.356 . S
N1827 H1830 0.984 . S
N1827 H1831 0.985 . S
H1828 N1823 0.984 . S
H1829 N1823 0.985 . S
H1830 N1827 0.984 . S
H1831 N1827 0.985 . S
H1832 N1826 0.984 . S
H1833 N1826 0.984 . S
H1834 N1822 0.984 . S
H1835 N1822 0.985 . S
C1836 C1837 1.363 . S
C1836 C1842 1.379 . S
C1836 N1844 1.356 . S
C1837 C1836 1.363 . S
C1837 C1843 1.363 . S
C1838 C1839 1.363 . S
C1838 C1843 1.379 . S
C1838 N1845 1.356 . S
C1839 C1838 1.363 . S
C1839 C1842 1.363 . S
N1840 C1842 1.356 . S
N1840 H1852 0.984 . S
N1840 H1853 0.985 . S
N1841 C1843 1.356 . S
N1841 H1846 0.984 . S
N1841 H1847 0.985 . S
C1842 C1836 1.379 . S
C1842 C1839 1.363 . S
C1842 N1840 1.356 . S
C1843 C1837 1.363 . S
C1843 C1838 1.379 . S
C1843 N1841 1.356 . S
N1844 C1836 1.356 . S
N1844 H1850 0.984 . S
N1844 H1851 0.984 . S
N1845 C1838 1.356 . S
N1845 H1848 0.984 . S
N1845 H1849 0.985 . S
H1846 N1841 0.984 . S
H1847 N1841 0.985 . S
H1848 N1845 0.984 . S
H1849 N1845 0.985 . S
H1850 N1844 0.984 . S
H1851 N1844 0.984 . S
H1852 N1840 0.984 . S
H1853 N1840 0.985 . S
C1854 C1855 1.363 . S
C1854 C1860 1.379 . S
C1854 N1862 1.356 . S
C1855 C1854 1.363 . S
C1855 C1861 1.363 . S
C1856 C1857 1.363 . S
C1856 C1861 1.379 . S
C1856 N1863 1.356 . S
C1857 C1856 1.363 . S
C1857 C1860 1.363 . S
N1858 C1860 1.356 . S
N1858 H1870 0.984 . S
N1858 H1871 0.985 . S
N1859 C1861 1.356 . S
N1859 H1864 0.984 . S
N1859 H1865 0.985 . S
C1860 C1854 1.379 . S
C1860 C1857 1.363 . S
C1860 N1858 1.356 . S
C1861 C1855 1.363 . S
C1861 C1856 1.379 . S
C1861 N1859 1.356 . S
N1862 C1854 1.356 . S
N1862 H1868 0.984 . S
N1862 H1869 0.984 . S
N1863 C1856 1.356 . S
N1863 H1866 0.984 . S
N1863 H1867 0.985 . S
H1864 N1859 0.984 . S
H1865 N1859 0.985 . S
H1866 N1863 0.984 . S
H1867 N1863 0.985 . S
H1868 N1862 0.984 . S
H1869 N1862 0.984 . S
H1870 N1858 0.984 . S
H1871 N1858 0.985 . S
C1872 C1873 1.363 . S
C1872 C1878 1.379 . S
C1872 N1880 1.356 . S
C1873 C1872 1.363 . S
C1873 C1879 1.363 . S
C1874 C1875 1.363 . S
C1874 C1879 1.379 . S
C1874 N1881 1.356 . S
C1875 C1874 1.363 . S
C1875 C1878 1.363 . S
N1876 C1878 1.356 . S
N1876 H1888 0.984 . S
N1876 H1889 0.985 . S
N1877 C1879 1.356 . S
N1877 H1882 0.984 . S
N1877 H1883 0.985 . S
C1878 C1872 1.379 . S
C1878 C1875 1.363 . S
C1878 N1876 1.356 . S
C1879 C1873 1.363 . S
C1879 C1874 1.379 . S
C1879 N1877 1.356 . S
N1880 C1872 1.356 . S
N1880 H1886 0.984 . S
N1880 H1887 0.984 . S
N1881 C1874 1.356 . S
N1881 H1884 0.984 . S
N1881 H1885 0.985 . S
H1882 N1877 0.984 . S
H1883 N1877 0.985 . S
H1884 N1881 0.984 . S
H1885 N1881 0.985 . S
H1886 N1880 0.984 . S
H1887 N1880 0.984 . S
H1888 N1876 0.984 . S
H1889 N1876 0.985 . S
C1890 C1891 1.363 . S
C1890 C1896 1.379 . S
C1890 N1898 1.356 . S
C1891 C1890 1.363 . S
C1891 C1897 1.363 . S
C1892 C1893 1.363 . S
C1892 C1897 1.379 . S
C1892 N1899 1.356 . S
C1893 C1892 1.363 . S
C1893 C1896 1.363 . S
N1894 C1896 1.356 . S
N1894 H1906 0.984 . S
N1894 H1907 0.985 . S
N1895 C1897 1.356 . S
N1895 H1900 0.984 . S
N1895 H1901 0.985 . S
C1896 C1890 1.379 . S
C1896 C1893 1.363 . S
C1896 N1894 1.356 . S
C1897 C1891 1.363 . S
C1897 C1892 1.379 . S
C1897 N1895 1.356 . S
N1898 C1890 1.356 . S
N1898 H1904 0.984 . S
N1898 H1905 0.984 . S
N1899 C1892 1.356 . S
N1899 H1902 0.984 . S
N1899 H1903 0.985 . S
H1900 N1895 0.984 . S
H1901 N1895 0.985 . S
H1902 N1899 0.984 . S
H1903 N1899 0.985 . S
H1904 N1898 0.984 . S
H1905 N1898 0.984 . S
H1906 N1894 0.984 . S
H1907 N1894 0.985 . S
C1908 C1909 1.363 . S
C1908 C1914 1.379 . S
C1908 N1916 1.356 . S
C1909 C1908 1.363 . S
C1909 C1915 1.363 . S
C1910 C1911 1.363 . S
C1910 C1915 1.379 . S
C1910 N1917 1.356 . S
C1911 C1910 1.363 . S
C1911 C1914 1.363 . S
N1912 C1914 1.356 . S
N1912 H1924 0.984 . S
N1912 H1925 0.985 . S
N1913 C1915 1.356 . S
N1913 H1918 0.984 . S
N1913 H1919 0.985 . S
C1914 C1908 1.379 . S
C1914 C1911 1.363 . S
C1914 N1912 1.356 . S
C1915 C1909 1.363 . S
C1915 C1910 1.379 . S
C1915 N1913 1.356 . S
N1916 C1908 1.356 . S
N1916 H1922 0.984 . S
N1916 H1923 0.984 . S
N1917 C1910 1.356 . S
N1917 H1920 0.984 . S
N1917 H1921 0.985 . S
H1918 N1913 0.984 . S
H1919 N1913 0.985 . S
H1920 N1917 0.984 . S
H1921 N1917 0.985 . S
H1922 N1916 0.984 . S
H1923 N1916 0.984 . S
H1924 N1912 0.984 . S
H1925 N1912 0.985 . S
C1926 C1927 1.363 . S
C1926 C1932 1.379 . S
C1926 N1934 1.356 . S
C1927 C1926 1.363 . S
C1927 C1933 1.363 . S
C1928 C1929 1.363 . S
C1928 C1933 1.379 . S
C1928 N1935 1.356 . S
C1929 C1928 1.363 . S
C1929 C1932 1.363 . S
N1930 C1932 1.356 . S
N1930 H1942 0.984 . S
N1930 H1943 0.985 . S
N1931 C1933 1.356 . S
N1931 H1936 0.984 . S
N1931 H1937 0.985 . S
C1932 C1926 1.379 . S
C1932 C1929 1.363 . S
C1932 N1930 1.356 . S
C1933 C1927 1.363 . S
C1933 C1928 1.379 . S
C1933 N1931 1.356 . S
N1934 C1926 1.356 . S
N1934 H1940 0.984 . S
N1934 H1941 0.984 . S
N1935 C1928 1.356 . S
N1935 H1938 0.984 . S
N1935 H1939 0.985 . S
H1936 N1931 0.984 . S
H1937 N1931 0.985 . S
H1938 N1935 0.984 . S
H1939 N1935 0.985 . S
H1940 N1934 0.984 . S
H1941 N1934 0.984 . S
H1942 N1930 0.984 . S
H1943 N1930 0.985 . S
C1944 C1945 1.363 . S
C1944 C1950 1.379 . S
C1944 N1952 1.356 . S
C1945 C1944 1.363 . S
C1945 C1951 1.363 . S
C1946 C1947 1.363 . S
C1946 C1951 1.379 . S
C1946 N1953 1.356 . S
C1947 C1946 1.363 . S
C1947 C1950 1.363 . S
N1948 C1950 1.356 . S
N1948 H1960 0.984 . S
N1948 H1961 0.985 . S
N1949 C1951 1.356 . S
N1949 H1954 0.984 . S
N1949 H1955 0.985 . S
C1950 C1944 1.379 . S
C1950 C1947 1.363 . S
C1950 N1948 1.356 . S
C1951 C1945 1.363 . S
C1951 C1946 1.379 . S
C1951 N1949 1.356 . S
N1952 C1944 1.356 . S
N1952 H1958 0.984 . S
N1952 H1959 0.984 . S
N1953 C1946 1.356 . S
N1953 H1956 0.984 . S
N1953 H1957 0.985 . S
H1954 N1949 0.984 . S
H1955 N1949 0.985 . S
H1956 N1953 0.984 . S
H1957 N1953 0.985 . S
H1958 N1952 0.984 . S
H1959 N1952 0.984 . S
H1960 N1948 0.984 . S
H1961 N1948 0.985 . S
C1962 C1963 1.363 . S
C1962 C1968 1.379 . S
C1962 N1970 1.356 . S
C1963 C1962 1.363 . S
C1963 C1969 1.363 . S
C1964 C1965 1.363 . S
C1964 C1969 1.379 . S
C1964 N1971 1.356 . S
C1965 C1964 1.363 . S
C1965 C1968 1.363 . S
N1966 C1968 1.356 . S
N1966 H1978 0.984 . S
N1966 H1979 0.985 . S
N1967 C1969 1.356 . S
N1967 H1972 0.984 . S
N1967 H1973 0.985 . S
C1968 C1962 1.379 . S
C1968 C1965 1.363 . S
C1968 N1966 1.356 . S
C1969 C1963 1.363 . S
C1969 C1964 1.379 . S
C1969 N1967 1.356 . S
N1970 C1962 1.356 . S
N1970 H1976 0.984 . S
N1970 H1977 0.984 . S
N1971 C1964 1.356 . S
N1971 H1974 0.984 . S
N1971 H1975 0.985 . S
H1972 N1967 0.984 . S
H1973 N1967 0.985 . S
H1974 N1971 0.984 . S
H1975 N1971 0.985 . S
H1976 N1970 0.984 . S
H1977 N1970 0.984 . S
H1978 N1966 0.984 . S
H1979 N1966 0.985 . S
C1980 C1981 1.363 . S
C1980 C1986 1.379 . S
C1980 N1988 1.356 . S
C1981 C1980 1.363 . S
C1981 C1987 1.363 . S
C1982 C1983 1.363 . S
C1982 C1987 1.379 . S
C1982 N1989 1.356 . S
C1983 C1982 1.363 . S
C1983 C1986 1.363 . S
N1984 C1986 1.356 . S
N1984 H1996 0.984 . S
N1984 H1997 0.985 . S
N1985 C1987 1.356 . S
N1985 H1990 0.984 . S
N1985 H1991 0.985 . S
C1986 C1980 1.379 . S
C1986 C1983 1.363 . S
C1986 N1984 1.356 . S
C1987 C1981 1.363 . S
C1987 C1982 1.379 . S
C1987 N1985 1.356 . S
N1988 C1980 1.356 . S
N1988 H1994 0.984 . S
N1988 H1995 0.984 . S
N1989 C1982 1.356 . S
N1989 H1992 0.984 . S
N1989 H1993 0.985 . S
H1990 N1985 0.984 . S
H1991 N1985 0.985 . S
H1992 N1989 0.984 . S
H1993 N1989 0.985 . S
H1994 N1988 0.984 . S
H1995 N1988 0.984 . S
H1996 N1984 0.984 . S
H1997 N1984 0.985 . S
C1998 C1999 1.363 . S
C1998 C2004 1.379 . S
C1998 N2006 1.356 . S
C1999 C1998 1.363 . S
C1999 C2005 1.363 . S
C2000 C2001 1.363 . S
C2000 C2005 1.379 . S
C2000 N2007 1.356 . S
C2001 C2000 1.363 . S
C2001 C2004 1.363 . S
N2002 C2004 1.356 . S
N2002 H2014 0.984 . S
N2002 H2015 0.985 . S
N2003 C2005 1.356 . S
N2003 H2008 0.984 . S
N2003 H2009 0.985 . S
C2004 C1998 1.379 . S
C2004 C2001 1.363 . S
C2004 N2002 1.356 . S
C2005 C1999 1.363 . S
C2005 C2000 1.379 . S
C2005 N2003 1.356 . S
N2006 C1998 1.356 . S
N2006 H2012 0.984 . S
N2006 H2013 0.984 . S
N2007 C2000 1.356 . S
N2007 H2010 0.984 . S
N2007 H2011 0.985 . S
H2008 N2003 0.984 . S
H2009 N2003 0.985 . S
H2010 N2007 0.984 . S
H2011 N2007 0.985 . S
H2012 N2006 0.984 . S
H2013 N2006 0.984 . S
H2014 N2002 0.984 . S
H2015 N2002 0.985 . S
C2016 C2017 1.363 . S
C2016 C2022 1.379 . S
C2016 N2024 1.356 . S
C2017 C2016 1.363 . S
C2017 C2023 1.363 . S
C2018 C2019 1.363 . S
C2018 C2023 1.379 . S
C2018 N2025 1.356 . S
C2019 C2018 1.363 . S
C2019 C2022 1.363 . S
N2020 C2022 1.356 . S
N2020 H2032 0.984 . S
N2020 H2033 0.985 . S
N2021 C2023 1.356 . S
N2021 H2026 0.984 . S
N2021 H2027 0.985 . S
C2022 C2016 1.379 . S
C2022 C2019 1.363 . S
C2022 N2020 1.356 . S
C2023 C2017 1.363 . S
C2023 C2018 1.379 . S
C2023 N2021 1.356 . S
N2024 C2016 1.356 . S
N2024 H2030 0.984 . S
N2024 H2031 0.984 . S
N2025 C2018 1.356 . S
N2025 H2028 0.984 . S
N2025 H2029 0.985 . S
H2026 N2021 0.984 . S
H2027 N2021 0.985 . S
H2028 N2025 0.984 . S
H2029 N2025 0.985 . S
H2030 N2024 0.984 . S
H2031 N2024 0.984 . S
H2032 N2020 0.984 . S
H2033 N2020 0.985 . S
C1063 C528 1.719 . S
C1065 C705 1.743 . S
C1081 C562 1.797 . S
C1083 C745 1.804 . S
C1099 C484 1.793 . S
C1101 C797 1.827 . S
C1117 C445 1.625 . S
C1119 C757 1.639 . S
C1137 C785 1.555 . S
C1135 C367 1.537 . S
C1153 C411 1.530 . S
C1155 C717 1.574 . S
C1173 C724 1.760 . S
C1171 C450 1.715 . S
C1191 C764 1.788 . S
C1189 C372 1.773 . S
C1207 C406 1.788 . S
C1209 C784 1.828 . S
C1225 C523 1.621 . S
C1227 C744 1.639 . S
C1243 C567 1.510 . S
C1245 C804 1.536 . S
C1263 C704 1.592 . S
C1261 C489 1.524 . S
C1281 C825 1.743 . S
C1279 C60 1.719 1_455 S
C1297 C94 1.797 . S
C1299 C865 1.804 . S
C1315 C16 1.793 . S
C1317 C917 1.827 . S
C1333 C679 1.625 . S
C1335 C877 1.639 . S
C1351 C601 1.537 . S
C1353 C905 1.554 . S
C1369 C645 1.530 . S
C1371 C837 1.574 . S
C1387 C684 1.715 . S
C1389 C844 1.760 . S
C1405 C606 1.773 . S
C1407 C884 1.788 . S
C1425 C904 1.829 . S
C1423 C640 1.789 . S
C1441 C55 1.621 1_565 S
C1443 C864 1.639 . S
C1461 C924 1.536 . S
C1459 C99 1.510 1_455 S
C1477 C21 1.524 . S
C1479 C824 1.592 . S
C1497 C945 1.744 . S
C1495 C294 1.719 . S
C1513 C328 1.797 . S
C1515 C985 1.804 . S
C1533 C1037 1.827 . S
C1531 C250 1.793 . S
C1551 C997 1.639 . S
C1549 C211 1.625 1_545 S
C1569 C1025 1.554 . S
C1567 C133 1.537 1_655 S
C1585 C177 1.530 . S
C1587 C957 1.574 . S
C1603 C216 1.715 1_655 S
C1605 C964 1.760 . S
C1621 C138 1.773 . S
C1623 C1004 1.788 . S
C1641 C1024 1.829 . S
C1639 C172 1.789 . S
C1657 C289 1.621 . S
C1659 C984 1.639 . S
C1675 C333 1.510 . S
C1677 C1044 1.536 . S
C1693 C255 1.524 . S
C1695 C944 1.592 . S
C1711 C586 1.410 . S
C1713 C728 1.392 . S
C1731 C768 1.817 . S
C1729 C625 1.833 . S
C1747 C664 1.572 . S
C1749 C791 1.579 . S
C1765 C235 1.834 . S
C1767 C751 1.827 . S
C1783 C274 1.565 . S
C1785 C808 1.566 . S
C1803 C711 1.391 . S
C1801 C313 1.407 . S
C1819 C118 1.410 . S
C1821 C848 1.392 . S
C1837 C157 1.833 . S
C1839 C888 1.817 . S
C1855 C196 1.572 . S
C1857 C911 1.579 . S
C1873 C469 1.834 . S
C1875 C871 1.827 . S
C1893 C928 1.566 . S
C1891 C508 1.565 . S
C1909 C547 1.407 . S
C1911 C831 1.391 . S
C1927 C352 1.409 . S
C1929 C968 1.392 . S
C1945 C391 1.833 . S
C1947 C1008 1.817 . S
C1965 C1031 1.579 . S
C1963 C430 1.572 . S
C1981 C1 1.834 . S
C1983 C991 1.827 . S
C1999 C40 1.565 . S
C2001 C1048 1.566 . S
C2017 C79 1.407 . S
C2019 C951 1.391 . S
