# Generated by pormake.
# Topology zzz, (3,6)-cn, num edge types: 1
# Building blocks:
#     Node 0, Type 0, BuildingBlock: MIDCAF_clean_linker_0, # of connection points: 3
#     Node 1, Type 0, BuildingBlock: MIDCAF_clean_linker_0, # of connection points: 3
#     Node 2, Type 0, BuildingBlock: MIDCAF_clean_linker_0, # of connection points: 3
#     Node 3, Type 0, BuildingBlock: MIDCAF_clean_linker_0, # of connection points: 3
#     Node 4, Type 0, BuildingBlock: MIDCAF_clean_linker_0, # of connection points: 3
#     Node 5, Type 0, BuildingBlock: MIDCAF_clean_linker_0, # of connection points: 3
#     Node 6, Type 0, BuildingBlock: MIDCAF_clean_linker_0, # of connection points: 3
#     Node 7, Type 0, BuildingBlock: MIDCAF_clean_linker_0, # of connection points: 3
#     Node 8, Type 1, BuildingBlock: FUNLAD_clean_sbu_0, # of connection points: 6
#     Node 9, Type 1, BuildingBlock: FUNLAD_clean_sbu_0, # of connection points: 6
#     Node 10, Type 1, BuildingBlock: FUNLAD_clean_sbu_0, # of connection points: 6
#     Node 11, Type 1, BuildingBlock: FUNLAD_clean_sbu_0, # of connection points: 6
#     Edge 12, Type (0, 1), None
#     Edge 13, Type (0, 1), None
#     Edge 14, Type (0, 1), None
#     Edge 15, Type (0, 1), None
#     Edge 16, Type (0, 1), None
#     Edge 17, Type (0, 1), None
#     Edge 18, Type (0, 1), None
#     Edge 19, Type (0, 1), None
#     Edge 20, Type (0, 1), None
#     Edge 21, Type (0, 1), None
#     Edge 22, Type (0, 1), None
#     Edge 23, Type (0, 1), None
#     Edge 24, Type (0, 1), None
#     Edge 25, Type (0, 1), None
#     Edge 26, Type (0, 1), None
#     Edge 27, Type (0, 1), None
#     Edge 28, Type (0, 1), None
#     Edge 29, Type (0, 1), None
#     Edge 30, Type (0, 1), None
#     Edge 31, Type (0, 1), None
#     Edge 32, Type (0, 1), None
#     Edge 33, Type (0, 1), None
#     Edge 34, Type (0, 1), None
#     Edge 35, Type (0, 1), None
# Relax obj value: 0.255
# Max RMSD: 0.256
# Mean RMSD: 0.198
data_MOF--net-zzz--node1-FUNLAD_clean_sbu_0--node2-MIDCAF_clean_linker_0--edge1-none
_symmetry_space_group_name_H-M    P1
_symmetry_Int_Tables_number       1
_symmetry_cell_setting            triclinic
loop_
_symmetry_equiv_pos_as_xyz
'x, y, z'
_cell_length_a     31.66449
_cell_length_b     37.497665
_cell_length_c     12.782575
_cell_angle_alpha  83.866657
_cell_angle_beta   82.992864
_cell_angle_gamma 92.747168
loop_
_atom_site_label
_atom_site_type_symbol
_atom_site_fract_x
_atom_site_fract_y
_atom_site_fract_z
_atom_type_partial_charge
C0 C 0.90193 0.44002 0.66878 0.0
C1 C 0.91531 0.47646 0.66301 0.0
C2 C 0.89633 0.5018 0.59739 0.0
C3 C 0.86877 0.4902 0.52787 0.0
H4 H 0.74754 0.47966 0.31878 0.0
H5 H 0.69166 0.49402 0.20631 0.0
H6 H 0.7429 0.42159 0.9888 0.0
H7 H 0.79651 0.4063 0.10121 0.0
H8 H 0.89197 0.38238 0.09178 0.0
H9 H 0.94937 0.39717 0.94566 0.0
H10 H 0.02147 0.45355 0.14876 0.0
H11 H 0.96533 0.43771 0.29619 0.0
H12 H 0.86827 0.39995 0.59861 0.0
H13 H 0.91602 0.42 0.71909 0.0
H14 H 0.90645 0.53004 0.59108 0.0
H15 H 0.85893 0.5097 0.46825 0.0
N16 N 0.81649 0.44603 0.37637 0.0
N17 N 0.84784 0.42053 0.22765 0.0
N18 N 0.88602 0.42588 0.37 0.0
C19 C 0.81382 0.43517 0.27835 0.0
C20 C 0.88405 0.41595 0.27224 0.0
C21 C 0.85255 0.44035 0.42316 0.0
C22 C 0.77673 0.44192 0.21933 0.0
C23 C 0.74628 0.46642 0.24789 0.0
C24 C 0.71461 0.47496 0.18267 0.0
C25 C 0.71277 0.45907 0.08797 0.0
C26 C 0.74271 0.43403 0.06149 0.0
C27 C 0.7739 0.42546 0.12621 0.0
C28 C 0.92355 0.40996 0.20418 0.0
C29 C 0.92114 0.39606 0.10705 0.0
C30 C 0.95409 0.40428 0.02359 0.0
C31 C 0.98919 0.42684 0.03658 0.0
C32 C 0.99453 0.43603 0.13769 0.0
C33 C 0.96218 0.42701 0.22189 0.0
C34 C 0.85981 0.45327 0.52455 0.0
C35 C 0.87418 0.42856 0.6007 0.0
C36 C 0.90768 0.86625 0.42986 0.0
C37 C 0.92755 0.85835 0.52111 0.0
C38 C 0.93835 0.82283 0.54791 0.0
C39 C 0.93763 0.79794 0.47411 0.0
H40 H 0.04886 0.71592 0.12775 0.0
H41 H 0.05003 0.65802 0.05688 0.0
H42 H 0.91264 0.65198 0.08124 0.0
H43 H 0.91138 0.70988 0.15583 0.0
H44 H 0.0406 0.81788 0.93805 0.0
H45 H 0.06367 0.87353 0.82465 0.0
H46 H 0.0653 0.93021 0.10121 0.0
H47 H 0.04201 0.87462 0.21463 0.0
H48 H 0.89772 0.85001 0.27919 0.0
H49 H 0.89853 0.89322 0.40765 0.0
H50 H 0.95267 0.81578 0.61951 0.0
H51 H 0.95264 0.77285 0.48918 0.0
N52 N 0.95199 0.76277 0.25832 0.0
N53 N 1.00936 0.77919 0.12272 0.0
N54 N 0.98197 0.82196 0.22765 0.0
C55 C 0.9804 0.75382 0.17762 0.0
C56 C 1.01043 0.81332 0.14844 0.0
C57 C 0.95271 0.79723 0.28228 0.0
C58 C 0.98005 0.71713 0.14718 0.0
C59 C 0.01889 0.70191 0.11973 0.0
C60 C 0.01955 0.66884 0.07957 0.0
C61 C 0.98142 0.65077 0.06378 0.0
C62 C 0.94238 0.66557 0.09296 0.0
C63 C 0.94167 0.69839 0.13598 0.0
C64 C 0.0383 0.84229 0.08461 0.0
C65 C 0.0477 0.84182 0.97478 0.0
C66 C 0.06086 0.87372 0.90995 0.0
C67 C 0.06519 0.90624 0.95442 0.0
C68 C 0.06196 0.90557 0.06492 0.0
C69 C 0.04829 0.87378 0.1297 0.0
C70 C 0.92635 0.80867 0.37344 0.0
C71 C 0.90683 0.8413 0.35646 0.0
C72 C 0.67093 0.97012 0.51631 0.0
C73 C 0.65153 -0.0002 0.55579 0.0
C74 C 0.67198 0.03416 0.52683 0.0
C75 C 0.70851 0.03924 0.45242 0.0
H76 H 0.87718 0.02887 0.2113 0.0
H77 H 0.94709 0.02351 0.10807 0.0
H78 H 0.88443 0.9745 0.87251 0.0
H79 H 0.81561 0.98035 0.97392 0.0
H80 H 0.73313 0.02179 0.91337 0.0
H81 H 0.67145 0.01734 0.8176 0.0
H82 H 0.59375 0.06152 0.06729 0.0
H83 H 0.65539 0.06606 0.16471 0.0
H84 H 0.71872 0.95261 0.40171 0.0
H85 H 0.65625 0.94325 0.53829 0.0
H86 H 0.65855 0.05752 0.55782 0.0
H87 H 0.72093 0.06647 0.42425 0.0
N88 N 0.78515 0.00916 0.25563 0.0
N89 N 0.77083 0.02692 0.08126 0.0
N90 N 0.719 0.03122 0.22413 0.0
C91 C 0.79828 0.01431 0.14847 0.0
C92 C 0.73132 0.03577 0.11879 0.0
C93 C 0.74504 0.01798 0.29289 0.0
C94 C 0.84095 0.00508 0.10065 0.0
C95 C 0.87867 0.01624 0.13872 0.0
C96 C 0.91861 0.01345 0.07901 0.0
C97 C 0.92146 -0.001 0.98104 0.0
C98 C 0.88368 0.98603 0.94686 0.0
C99 C 0.8441 0.98927 0.00532 0.0
C100 C 0.6989 0.04356 0.04749 0.0
C101 C 0.70345 0.03181 0.9464 0.0
C102 C 0.66818 0.02907 0.8919 0.0
C103 C 0.62828 0.03867 0.93678 0.0
C104 C 0.62445 0.05398 0.0321 0.0
C105 C 0.65968 0.05645 0.08738 0.0
C106 C 0.72528 0.01021 0.40393 0.0
C107 C 0.70736 0.97535 0.44015 0.0
C108 C 0.51257 0.55528 0.0995 0.0
C109 C 0.50109 0.56396 -0.00204 0.0
C110 C 0.49519 0.59987 0.96249 0.0
C111 C 0.50501 0.62718 0.02373 0.0
H112 H 0.59384 0.73225 0.98835 0.0
H113 H 0.59513 0.79303 0.89996 0.0
H114 H 0.53186 0.82745 0.18879 0.0
H115 H 0.5343 0.76693 0.27849 0.0
H116 H 0.5386 0.67072 0.51931 0.0
H117 H 0.53842 0.62413 0.66832 0.0
H118 H 0.64041 0.57449 0.49369 0.0
H119 H 0.64003 0.62082 0.34379 0.0
H120 H 0.53255 0.57465 0.23715 0.0
H121 H 0.51761 0.5277 0.12779 0.0
H122 H 0.48703 0.60711 0.88339 0.0
H123 H 0.50306 0.65487 0.99147 0.0
N124 N 0.54205 0.68209 0.13701 0.0
N125 N 0.57572 0.69777 0.28207 0.0
N126 N 0.55514 0.63758 0.26899 0.0
C127 C 0.56027 0.70753 0.18865 0.0
C128 C 0.57372 0.6624 0.32093 0.0
C129 C 0.53875 0.64704 0.17799 0.0
C130 C 0.56408 0.74514 0.13997 0.0
C131 C 0.58091 0.75313 0.03295 0.0
C132 C 0.58104 0.78799 0.98201 0.0
C133 C 0.5629 0.81557 0.03583 0.0
C134 C 0.54677 0.80743 0.14426 0.0
C135 C 0.54791 0.77267 0.19607 0.0
C136 C 0.58936 0.64931 0.42061 0.0
C137 C 0.56298 0.65141 0.51568 0.0
C138 C 0.5627 0.62456 0.60053 0.0
C139 C 0.58924 0.59573 0.59162 0.0
C140 C 0.62009 0.59669 0.50285 0.0
C141 C 0.61994 0.62329 0.41729 0.0
C142 C 0.52042 0.61872 0.12151 0.0
C143 C 0.52168 0.58235 0.1613 0.0
C144 C 0.16503 0.55761 0.87416 0.0
C145 C 0.15378 0.52097 0.8736 0.0
C146 C 0.17518 0.49537 0.93223 0.0
C147 C 0.20307 0.50651 0.0016 0.0
H148 H 0.34195 0.57241 0.20972 0.0
H149 H 0.39834 0.56176 0.32155 0.0
H150 H 0.30905 0.49411 0.5515 0.0
H151 H 0.25265 0.50717 0.44244 0.0
H152 H 0.18456 0.60572 0.4592 0.0
H153 H 0.1251 0.59408 0.60134 0.0
H154 H 0.04869 0.5477 0.38753 0.0
H155 H 0.10702 0.56064 0.24397 0.0
H156 H 0.19726 0.59707 0.94971 0.0
H157 H 0.14922 0.57786 0.8289 0.0
H158 H 0.16686 0.46696 0.9334 0.0
H159 H 0.21505 0.48642 0.05592 0.0
N160 N 0.25418 0.54488 0.15987 0.0
N161 N 0.22483 0.5667 0.31726 0.0
N162 N 0.18688 0.56923 0.17181 0.0
C163 C 0.2574 0.55191 0.26138 0.0
C164 C 0.18954 0.57564 0.27286 0.0
C165 C 0.21885 0.55425 0.11454 0.0
C166 C 0.29327 0.54039 0.3174 0.0
C167 C 0.33488 0.55483 0.28342 0.0
C168 C 0.36712 0.54862 0.34803 0.0
C169 C 0.35854 0.52719 0.44709 0.0
C170 C 0.31698 0.51154 0.47789 0.0
C171 C 0.2847 0.51849 0.41455 0.0
C172 C 0.15084 0.58307 0.34162 0.0
C173 C 0.15426 0.59502 0.44089 0.0
C174 C 0.12012 0.58871 0.52194 0.0
C175 C 0.08279 0.56981 0.50464 0.0
C176 C 0.07721 0.5626 0.40183 0.0
C177 C 0.11086 0.56983 0.31997 0.0
C178 C 0.20979 0.54325 0.01201 0.0
C179 C 0.19291 0.56864 0.94243 0.0
C180 C 0.1653 0.13136 0.10543 0.0
C181 C 0.14538 0.13908 0.01418 0.0
C182 C 0.13431 0.17451 0.98724 0.0
C183 C 0.13483 0.19946 0.06091 0.0
H184 H 0.02261 0.28115 0.40465 0.0
H185 H 0.02056 0.33888 0.47644 0.0
H186 H 0.15783 0.3455 0.45666 0.0
H187 H 0.15999 0.28777 0.38119 0.0
H188 H 0.03235 0.17916 0.59735 0.0
H189 H 1.00978 0.12342 0.71083 0.0
H190 H 1.00808 0.06674 0.43426 0.0
H191 H 0.03089 0.12242 0.32078 0.0
H192 H 0.17515 0.14779 0.25596 0.0
H193 H 0.17466 0.10447 0.12774 0.0
H194 H 0.11994 0.18142 0.91563 0.0
H195 H 0.11962 0.22445 0.04573 0.0
N196 N 0.12006 0.23474 0.27646 0.0
N197 N 0.06284 0.21802 0.41224 0.0
N198 N 0.0907 0.17535 0.30758 0.0
C199 C 0.09153 0.24355 0.35713 0.0
C200 C 0.06213 0.18387 0.38676 0.0
C201 C 0.11972 0.20025 0.25274 0.0
C202 C 0.09144 0.28026 0.38744 0.0
C203 C 0.05238 0.29527 0.4138 0.0
C204 C 0.05122 0.32825 0.45451 0.0
C205 C 0.08905 0.34642 0.47196 0.0
C206 C 0.12831 0.33184 0.44371 0.0
C207 C 0.12954 0.29912 0.40015 0.0
C208 C 0.03456 0.15476 0.45078 0.0
C209 C 0.02534 0.15518 0.56067 0.0
C210 C 1.01248 0.12324 0.62554 0.0
C211 C 1.00826 0.09071 0.58104 0.0
C212 C 1.01134 0.09138 0.47056 0.0
C213 C 0.02472 0.12323 0.40574 0.0
C214 C 0.14619 0.18889 0.16159 0.0
C215 C 0.16596 0.15638 0.17868 0.0
C216 C 0.40139 0.96259 0.00772 0.0
C217 C 0.42193 0.99692 0.97888 0.0
C218 C 0.40261 0.02661 0.01848 0.0
C219 C 0.36618 0.02142 0.09465 0.0
H220 H 0.19626 0.96803 0.32378 0.0
H221 H 0.12641 0.97342 0.42725 0.0
H222 H 0.18926 0.02248 0.66243 0.0
H223 H 0.25802 0.01661 0.56078 0.0
H224 H 0.34033 0.97485 0.62145 0.0
H225 H 0.40202 0.97923 0.71724 0.0
H226 H 0.47973 0.93525 0.46717 0.0
H227 H 0.41809 0.93077 0.36975 0.0
H228 H 0.35238 0.93033 0.11022 0.0
H229 H 0.41476 0.93922 0.97663 0.0
H230 H 0.41736 0.05347 -0.00341 0.0
H231 H 0.35489 0.04417 0.13318 0.0
N232 N 0.28834 0.98772 0.27912 0.0
N233 N 0.30267 0.96993 0.45347 0.0
N234 N 0.35445 0.96557 0.31054 0.0
C235 C 0.27523 0.98259 0.38629 0.0
C236 C 0.34215 0.96102 0.41589 0.0
C237 C 0.32843 0.97885 0.24181 0.0
C238 C 0.23259 0.99186 0.43421 0.0
C239 C 0.19483 0.98069 0.39632 0.0
C240 C 0.15492 0.98349 0.45618 0.0
C241 C 0.15214 -0.00204 0.55412 0.0
C242 C 0.18995 0.01094 0.58811 0.0
C243 C 0.2295 0.00769 0.5295 0.0
C244 C 0.37458 0.95318 0.48714 0.0
C245 C 0.37001 0.96485 0.58833 0.0
C246 C 0.40528 0.96755 0.64286 0.0
C247 C 0.44519 0.95799 0.59788 0.0
C248 C 0.44903 0.94275 0.50244 0.0
C249 C 0.41379 0.94032 0.44715 0.0
C250 C 0.34818 0.98658 0.13075 0.0
C251 C 0.36486 0.95754 0.08213 0.0
C252 C 0.56391 0.44073 0.43062 0.0
C253 C 0.57557 0.43198 0.53192 0.0
C254 C 0.58132 0.39604 0.56735 0.0
C255 C 0.5712 0.36877 0.50621 0.0
H256 H 0.48063 0.26445 0.54254 0.0
H257 H 0.47888 0.20377 0.63197 0.0
H258 H 0.54237 0.16861 0.34448 0.0
H259 H 0.54042 0.22903 0.25373 0.0
H260 H 0.53765 0.32566 0.01141 0.0
H261 H 0.53806 0.37219 0.86222 0.0
H262 H 0.43555 0.42172 0.03531 0.0
H263 H 0.43572 0.37544 0.18548 0.0
H264 H 0.54343 0.42147 0.29339 0.0
H265 H 0.55888 0.46833 0.40257 0.0
H266 H 0.58953 0.38876 0.64638 0.0
H267 H 0.57305 0.34106 0.53841 0.0
N268 N 0.53326 0.31408 0.39375 0.0
N269 N 0.49952 0.29852 0.24869 0.0
N270 N 0.52084 0.35861 0.2611 0.0
C271 C 0.51478 0.28873 0.34235 0.0
C272 C 0.50199 0.33387 0.20935 0.0
C273 C 0.53703 0.34909 0.35235 0.0
C274 C 0.51052 0.25117 0.3915 0.0
C275 C 0.49349 0.24342 0.49844 0.0
C276 C 0.49309 0.20863 0.54998 0.0
C277 C 0.51117 0.18087 0.49685 0.0
C278 C 0.52749 0.18877 0.38847 0.0
C279 C 0.52663 0.22347 0.33606 0.0
C280 C 0.4866 0.34699 0.10938 0.0
C281 C 0.51322 0.34493 0.01466 0.0
C282 C 0.51363 0.37175 0.92969 0.0
C283 C 0.48699 0.40054 0.93811 0.0
C284 C 0.45595 0.39956 0.02651 0.0
C285 C 0.45598 0.37298 0.11222 0.0
C286 C 0.55564 0.37732 0.40866 0.0
C287 C 0.5545 0.41371 0.36896 0.0
C288 C 0.0619 0.94033 0.88835 0.0
N289 N 0.98918 0.94603 0.63987 0.0
C290 C 1.0112 0.91715 0.61561 0.0
C291 C 0.99087 0.88788 0.5805 0.0
C292 C 0.94733 0.88814 0.56928 0.0
C293 C 0.92541 0.91866 0.59196 0.0
C294 C 0.94705 0.94743 0.62834 0.0
Zn295 Zn 0.02036 0.98282 0.71405 0.0
C296 C 0.9628 -0.00129 0.91135 0.0
N297 N 0.08437 0.05104 0.89553 0.0
C298 C 0.12651 0.04986 0.90699 0.0
C299 C 0.06214 0.0798 0.91993 0.0
C300 C 0.08225 0.10916 0.95505 0.0
C301 C 0.12581 0.10913 0.96616 0.0
C302 C 0.14796 0.07873 0.94341 0.0
Zn303 Zn 0.05328 0.01417 0.8213 0.0
O304 O 0.04092 0.93962 0.81012 0.0
C305 C 0.11082 -0.00174 0.62394 0.0
O306 O 0.07315 0.97039 0.91714 0.0
H307 H 0.02878 0.08042 0.90974 0.0
H308 H 0.04454 0.91637 0.62586 0.0
H309 H 0.1437 0.02688 0.8859 0.0
O310 O 0.07696 0.98251 0.60261 0.0
O311 O 0.10942 0.01319 0.70912 0.0
H312 H 0.93004 0.97051 0.64932 0.0
O313 O 0.03268 0.05737 0.72523 0.0
O314 O 1.00049 0.02657 0.61821 0.0
O315 O 0.99665 0.01444 0.93278 0.0
O316 O 0.96423 0.98381 0.82613 0.0
C317 C 1.01169 0.05663 0.64702 0.0
H318 H 1.00943 0.86549 0.56026 0.0
H319 H 0.89199 0.9201 0.58248 0.0
H320 H 0.06352 0.13144 0.97534 0.0
H321 H 0.1814 0.07747 0.95282 0.0
C322 C 0.48271 0.96937 0.64405 0.0
N323 N 0.52254 0.07672 0.66323 0.0
C324 C 0.5193 0.07989 0.55744 0.0
C325 C 0.5145 0.11338 0.50222 0.0
C326 C 0.51423 0.1444 0.55519 0.0
C327 C 0.51791 0.1402 0.66459 0.0
C328 C 0.52147 0.10605 0.7173 0.0
Zn329 Zn 0.53121 0.0269 0.73954 0.0
C330 C 0.46366 0.00073 0.91015 0.0
N331 N 0.55098 0.9199 0.87113 0.0
C332 C 0.5521 0.89067 0.81663 0.0
C333 C 0.55429 0.91657 0.97688 0.0
C334 C 0.55924 0.88303 0.03161 0.0
C335 C 0.55959 0.85211 0.97814 0.0
C336 C 0.5558 0.85648 0.86881 0.0
Zn337 Zn 0.54225 0.96975 0.7951 0.0
O338 O 0.49054 0.00282 0.64529 0.0
C339 C 0.6098 0.99595 0.62451 0.0
O340 O 0.50205 0.9468 0.69848 0.0
H341 H 0.55287 0.93997 0.0195 0.0
H342 H 0.52072 0.05642 0.51515 0.0
H343 H 0.54946 0.89373 0.73266 0.0
O344 O 0.58708 0.02303 0.62952 0.0
O345 O 0.5974 0.9668 0.68295 0.0
H346 H 0.52408 0.10312 0.80129 0.0
O347 O 0.58291 0.99383 0.88943 0.0
O348 O 0.57143 0.04986 0.83613 0.0
O349 O 0.48636 0.97363 0.90514 0.0
O350 O 0.47609 0.02987 0.8517 0.0
C351 C 0.59076 0.02728 0.89061 0.0
H352 H 0.51101 0.11469 0.41878 0.0
H353 H 0.51897 0.16303 0.70945 0.0
H354 H 0.5628 0.88159 0.11502 0.0
H355 H 0.55478 0.83373 0.82358 0.0
C356 C 0.56888 0.45786 0.60913 0.0
N357 N 0.45616 0.51053 0.64995 0.0
C358 C 0.46671 0.51639 0.54266 0.0
C359 C 0.43544 0.5214 0.47556 0.0
C360 C 0.39245 0.52149 0.51834 0.0
C361 C 0.38248 0.5162 0.62989 0.0
C362 C 0.41489 0.51045 0.69434 0.0
Zn363 Zn 0.50627 0.50208 0.73715 0.0
C364 C 0.50072 0.43499 0.87403 0.0
N365 N 0.62088 0.48504 0.87637 0.0
C366 C 0.63273 0.4507 0.89247 0.0
C367 C 0.63811 0.51153 0.92611 0.0
C368 C 0.66808 0.50375 -0.00383 0.0
C369 C 0.68034 0.46834 0.01556 0.0
C370 C 0.66221 0.44173 0.96211 0.0
Zn371 Zn 0.5702 0.49407 0.79212 0.0
O372 O 0.53255 0.47082 0.62093 0.0
C373 C 0.5755 0.56126 0.65541 0.0
O374 O 0.59554 0.46356 0.67283 0.0
H375 H 0.62791 0.5386 0.9134 0.0
H376 H 0.49968 0.51705 0.50815 0.0
H377 H 0.61829 0.42985 0.85373 0.0
O378 O 0.53732 0.5494 0.65493 0.0
O379 O 0.6006 0.54268 0.70619 0.0
H380 H 0.40709 0.50611 0.77969 0.0
O381 O 0.54347 0.52395 0.91162 0.0
O382 O 0.4817 0.53355 0.85426 0.0
O383 O 0.53913 0.4465 0.87282 0.0
O384 O 0.47542 0.45394 0.82504 0.0
C385 C 0.50764 0.53798 0.92083 0.0
H386 H 0.44515 0.52474 0.39077 0.0
H387 H 0.35007 0.51686 0.66763 0.0
H388 H 0.68157 0.52526 0.0343 0.0
H389 H 0.67 0.41394 0.97545 0.0
C390 C 0.05929 0.54693 0.59437 0.0
N391 N 0.06893 0.43579 0.64402 0.0
C392 C 0.0547 0.43564 0.54776 0.0
C393 C 0.06287 0.40739 0.48737 0.0
C394 C 0.08648 0.37932 0.52563 0.0
C395 C 0.10302 0.38106 0.62208 0.0
C396 C 0.09353 0.40968 0.68092 0.0
Zn397 Zn 0.04825 0.47474 0.73424 0.0
C398 C 0.11407 0.51089 0.83142 0.0
N399 N 1.00032 0.56091 0.89349 0.0
C400 C 0.97599 0.58716 0.8562 0.0
C401 C 1.01453 0.56106 0.98978 0.0
C402 C 1.00668 0.58947 0.04971 0.0
C403 C 0.98342 0.6177 0.01095 0.0
C404 C 0.96682 0.61595 0.91459 0.0
Zn405 Zn 0.02091 0.52193 0.80342 0.0
O406 O 0.06596 0.51367 0.60206 0.0
C407 C 0.95504 0.48606 0.70578 0.0
O408 O 0.03952 0.56023 0.67187 0.0
H409 H 0.03352 0.5398 0.01847 0.0
H410 H 0.03552 0.45681 0.51934 0.0
H411 H 0.96512 0.5865 0.77939 0.0
O412 O 0.98648 0.46669 0.68913 0.0
O413 O 0.95933 0.5138 0.75354 0.0
H414 H 0.10443 0.41035 0.75769 0.0
O415 O 1.00343 0.48294 0.93612 0.0
O416 O 0.02995 0.43647 0.8659 0.0
O417 O 0.08245 0.53002 0.8483 0.0
O418 O 0.10995 0.48306 0.78395 0.0
C419 C 1.01052 0.44974 0.94389 0.0
H420 H 0.0497 0.40686 0.41313 0.0
H421 H 0.121 0.35956 0.65427 0.0
H422 H 0.0199 0.59003 0.12388 0.0
H423 H 0.94911 0.63758 0.88204 0.0
loop_
_geom_bond_atom_site_label_1
_geom_bond_atom_site_label_2
_geom_bond_distance
_geom_bond_site_symmetry_2
_ccdc_geom_bond_type
C0 C1 1.384 . S
C0 H13 0.947 . S
C0 C35 1.382 . S
C1 C0 1.384 . S
C1 C2 1.378 . S
C2 C1 1.378 . S
C2 C3 1.378 . S
C2 H14 0.952 . S
C3 C2 1.378 . S
C3 H15 0.950 . S
C3 C34 1.383 . S
H4 C23 0.947 . S
H5 C24 0.946 . S
H6 C26 0.953 1_556 S
H7 C27 0.945 . S
H8 C29 0.952 . S
H9 C30 0.949 . S
H10 C32 0.950 1_455 S
H11 C33 0.948 . S
H12 C35 0.951 . S
H13 C0 0.947 . S
H14 C2 0.952 . S
H15 C3 0.950 . S
N16 C19 1.382 . S
N16 C21 1.363 . S
N17 C19 1.371 . S
N17 C20 1.372 . S
N18 C20 1.361 . S
N18 C21 1.377 . S
C19 N16 1.382 . S
C19 N17 1.371 . S
C19 C22 1.480 . S
C20 N17 1.372 . S
C20 N18 1.361 . S
C20 C28 1.457 . S
C21 N16 1.363 . S
C21 N18 1.377 . S
C21 C34 1.479 . S
C22 C19 1.480 . S
C22 C23 1.383 . S
C22 C27 1.385 . S
C23 H4 0.947 . S
C23 C22 1.383 . S
C23 C24 1.388 . S
C24 H5 0.946 . S
C24 C23 1.388 . S
C24 C25 1.384 . S
C25 C24 1.384 . S
C25 C26 1.377 . S
C26 H6 0.953 1_554 S
C26 C25 1.377 . S
C26 C27 1.369 . S
C27 H7 0.945 . S
C27 C22 1.385 . S
C27 C26 1.369 . S
C28 C20 1.457 . S
C28 C29 1.372 1_554 S
C28 C33 1.364 . S
C29 H8 0.952 . S
C29 C28 1.372 1_556 S
C29 C30 1.389 . S
C30 H9 0.949 . S
C30 C29 1.389 . S
C30 C31 1.387 . S
C31 C30 1.387 . S
C31 C32 1.372 1_556 S
C32 H10 0.950 1_655 S
C32 C31 1.372 1_554 S
C32 C33 1.379 . S
C33 H11 0.948 . S
C33 C28 1.364 . S
C33 C32 1.379 . S
C34 C3 1.383 . S
C34 C21 1.479 . S
C34 C35 1.398 . S
C35 C0 1.382 . S
C35 H12 0.951 . S
C35 C34 1.398 . S
C36 C37 1.384 . S
C36 H49 0.947 . S
C36 C71 1.382 . S
C37 C36 1.384 . S
C37 C38 1.378 . S
C38 C37 1.378 . S
C38 C39 1.378 . S
C38 H50 0.952 . S
C39 C38 1.378 . S
C39 H51 0.950 . S
C39 C70 1.383 . S
H40 C59 0.947 . S
H41 C60 0.946 . S
H42 C62 0.953 . S
H43 C63 0.945 . S
H44 C65 0.952 . S
H45 C66 0.949 . S
H46 C68 0.950 . S
H47 C69 0.948 . S
H48 C71 0.951 . S
H49 C36 0.947 . S
H50 C38 0.952 . S
H51 C39 0.950 . S
N52 C55 1.382 1_554 S
N52 C57 1.363 . S
N53 C55 1.371 . S
N53 C56 1.372 . S
N54 C56 1.361 1_554 S
N54 C57 1.377 . S
C55 N52 1.382 1_556 S
C55 N53 1.371 . S
C55 C58 1.480 . S
C56 N53 1.372 . S
C56 N54 1.361 1_556 S
C56 C64 1.457 . S
C57 N52 1.363 . S
C57 N54 1.377 . S
C57 C70 1.479 . S
C58 C55 1.480 . S
C58 C59 1.383 1_556 S
C58 C63 1.385 . S
C59 H40 0.947 . S
C59 C58 1.383 1_554 S
C59 C60 1.388 . S
C60 H41 0.946 . S
C60 C59 1.388 . S
C60 C61 1.384 1_554 S
C61 C60 1.384 1_556 S
C61 C62 1.377 . S
C62 H42 0.953 . S
C62 C61 1.377 . S
C62 C63 1.369 . S
C63 H43 0.945 . S
C63 C58 1.385 . S
C63 C62 1.369 . S
C64 C56 1.457 . S
C64 C65 1.372 . S
C64 C69 1.364 . S
C65 H44 0.952 . S
C65 C64 1.372 . S
C65 C66 1.389 . S
C66 H45 0.949 . S
C66 C65 1.389 . S
C66 C67 1.387 . S
C67 C66 1.387 . S
C67 C68 1.372 . S
C68 H46 0.950 . S
C68 C67 1.372 . S
C68 C69 1.379 . S
C69 H47 0.948 . S
C69 C64 1.364 . S
C69 C68 1.379 . S
C70 C39 1.383 . S
C70 C57 1.479 . S
C70 C71 1.398 . S
C71 C36 1.382 . S
C71 H48 0.951 . S
C71 C70 1.398 . S
C72 C73 1.383 1_565 S
C72 H85 0.947 . S
C72 C107 1.383 1_565 S
C73 C72 1.383 1_545 S
C73 C74 1.378 . S
C74 C73 1.378 . S
C74 C75 1.378 . S
C74 H86 0.952 . S
C75 C74 1.378 . S
C75 H87 0.950 . S
C75 C106 1.383 . S
H76 C95 0.947 . S
H77 C96 0.951 . S
H78 C98 0.953 . S
H79 C99 0.945 . S
H80 C101 0.947 1_565 S
H81 C102 0.949 . S
H82 C104 0.950 . S
H83 C105 0.948 . S
H84 C107 0.951 1_565 S
H85 C72 0.947 . S
H86 C74 0.952 . S
H87 C75 0.950 . S
N88 C91 1.382 . S
N88 C93 1.363 . S
N89 C91 1.371 . S
N89 C92 1.372 . S
N90 C92 1.361 . S
N90 C93 1.377 . S
C91 N88 1.382 . S
C91 N89 1.371 . S
C91 C94 1.480 . S
C92 N89 1.372 . S
C92 N90 1.361 . S
C92 C100 1.457 1_554 S
C93 N88 1.363 . S
C93 N90 1.377 . S
C93 C106 1.479 . S
C94 C91 1.480 . S
C94 C95 1.383 . S
C94 C99 1.385 1_554 S
C95 H76 0.947 . S
C95 C94 1.383 . S
C95 C96 1.384 1_545 S
C96 H77 0.951 . S
C96 C95 1.384 1_565 S
C96 C97 1.384 1_565 S
C97 C96 1.384 1_545 S
C97 C98 1.377 1_554 S
C98 H78 0.953 . S
C98 C97 1.377 1_556 S
C98 C99 1.369 . S
C99 H79 0.945 . S
C99 C94 1.385 1_556 S
C99 C98 1.369 . S
C100 C92 1.457 1_556 S
C100 C101 1.380 . S
C100 C105 1.364 1_556 S
C101 H80 0.947 1_545 S
C101 C100 1.380 . S
C101 C102 1.386 1_545 S
C102 H81 0.949 . S
C102 C101 1.386 1_565 S
C102 C103 1.387 1_565 S
C103 C102 1.387 1_545 S
C103 C104 1.372 . S
C104 H82 0.950 . S
C104 C103 1.372 . S
C104 C105 1.379 1_556 S
C105 H83 0.948 . S
C105 C100 1.364 1_554 S
C105 C104 1.379 1_554 S
C106 C75 1.383 . S
C106 C93 1.479 . S
C106 C107 1.398 . S
C107 C72 1.383 1_545 S
C107 H84 0.951 1_545 S
C107 C106 1.398 . S
C108 C109 1.384 . S
C108 H121 0.947 . S
C108 C143 1.382 1_556 S
C109 C108 1.384 . S
C109 C110 1.378 . S
C110 C109 1.378 . S
C110 C111 1.378 . S
C110 H122 0.952 . S
C111 C110 1.378 . S
C111 H123 0.950 . S
C111 C142 1.383 . S
H112 C131 0.947 . S
H113 C132 0.946 . S
H114 C134 0.953 . S
H115 C135 0.945 . S
H116 C137 0.952 . S
H117 C138 0.949 . S
H118 C140 0.950 . S
H119 C141 0.948 . S
H120 C143 0.951 . S
H121 C108 0.947 . S
H122 C110 0.952 . S
H123 C111 0.950 . S
N124 C127 1.382 . S
N124 C129 1.363 . S
N125 C127 1.371 . S
N125 C128 1.372 . S
N126 C128 1.361 . S
N126 C129 1.377 . S
C127 N124 1.382 . S
C127 N125 1.371 . S
C127 C130 1.480 . S
C128 N125 1.372 . S
C128 N126 1.361 . S
C128 C136 1.457 . S
C129 N124 1.363 . S
C129 N126 1.377 . S
C129 C142 1.479 1_554 S
C130 C127 1.480 . S
C130 C131 1.383 1_554 S
C130 C135 1.385 . S
C131 H112 0.947 . S
C131 C130 1.383 1_556 S
C131 C132 1.388 . S
C132 H113 0.946 . S
C132 C131 1.388 . S
C132 C133 1.384 1_556 S
C133 C132 1.384 1_554 S
C133 C134 1.377 . S
C134 H114 0.953 . S
C134 C133 1.377 . S
C134 C135 1.369 . S
C135 H115 0.945 . S
C135 C130 1.385 . S
C135 C134 1.369 . S
C136 C128 1.457 . S
C136 C137 1.372 . S
C136 C141 1.364 . S
C137 H116 0.952 . S
C137 C136 1.372 . S
C137 C138 1.389 . S
C138 H117 0.949 . S
C138 C137 1.389 . S
C138 C139 1.387 . S
C139 C138 1.387 . S
C139 C140 1.372 . S
C140 H118 0.950 . S
C140 C139 1.372 . S
C140 C141 1.379 . S
C141 H119 0.948 . S
C141 C136 1.364 . S
C141 C140 1.379 . S
C142 C111 1.383 . S
C142 C129 1.479 1_556 S
C142 C143 1.398 1_556 S
C143 C108 1.382 1_554 S
C143 H120 0.951 . S
C143 C142 1.398 1_554 S
C144 C145 1.384 . S
C144 H157 0.947 . S
C144 C179 1.382 1_556 S
C145 C144 1.384 . S
C145 C146 1.378 . S
C146 C145 1.378 . S
C146 C147 1.378 1_556 S
C146 H158 0.952 . S
C147 C146 1.378 1_554 S
C147 H159 0.950 . S
C147 C178 1.383 . S
H148 C167 0.947 . S
H149 C168 0.946 . S
H150 C170 0.953 . S
H151 C171 0.945 . S
H152 C173 0.952 . S
H153 C174 0.949 . S
H154 C176 0.950 . S
H155 C177 0.948 . S
H156 C179 0.951 . S
H157 C144 0.947 . S
H158 C146 0.952 . S
H159 C147 0.950 . S
N160 C163 1.382 . S
N160 C165 1.363 . S
N161 C163 1.371 . S
N161 C164 1.372 . S
N162 C164 1.361 . S
N162 C165 1.377 . S
C163 N160 1.382 . S
C163 N161 1.371 . S
C163 C166 1.480 . S
C164 N161 1.372 . S
C164 N162 1.361 . S
C164 C172 1.457 . S
C165 N160 1.363 . S
C165 N162 1.377 . S
C165 C178 1.479 . S
C166 C163 1.480 . S
C166 C167 1.383 . S
C166 C171 1.385 . S
C167 H148 0.947 . S
C167 C166 1.383 . S
C167 C168 1.388 . S
C168 H149 0.946 . S
C168 C167 1.388 . S
C168 C169 1.384 . S
C169 C168 1.384 . S
C169 C170 1.377 . S
C170 H150 0.953 . S
C170 C169 1.377 . S
C170 C171 1.369 . S
C171 H151 0.945 . S
C171 C166 1.385 . S
C171 C170 1.369 . S
C172 C164 1.457 . S
C172 C173 1.372 . S
C172 C177 1.364 . S
C173 H152 0.952 . S
C173 C172 1.372 . S
C173 C174 1.389 . S
C174 H153 0.949 . S
C174 C173 1.389 . S
C174 C175 1.387 . S
C175 C174 1.387 . S
C175 C176 1.372 . S
C176 H154 0.950 . S
C176 C175 1.372 . S
C176 C177 1.379 . S
C177 H155 0.948 . S
C177 C172 1.364 . S
C177 C176 1.379 . S
C178 C147 1.383 . S
C178 C165 1.479 . S
C178 C179 1.398 . S
C179 C144 1.382 1_554 S
C179 H156 0.951 . S
C179 C178 1.398 . S
C180 C181 1.384 . S
C180 H193 0.947 . S
C180 C215 1.382 . S
C181 C180 1.384 . S
C181 C182 1.378 . S
C182 C181 1.378 . S
C182 C183 1.378 . S
C182 H194 0.952 . S
C183 C182 1.378 . S
C183 H195 0.950 . S
C183 C214 1.383 . S
H184 C203 0.947 . S
H185 C204 0.946 . S
H186 C206 0.953 . S
H187 C207 0.945 . S
H188 C209 0.952 . S
H189 C210 0.949 . S
H190 C212 0.950 . S
H191 C213 0.948 . S
H192 C215 0.951 . S
H193 C180 0.947 . S
H194 C182 0.952 . S
H195 C183 0.950 . S
N196 C199 1.382 . S
N196 C201 1.363 . S
N197 C199 1.371 . S
N197 C200 1.372 . S
N198 C200 1.361 . S
N198 C201 1.377 . S
C199 N196 1.382 . S
C199 N197 1.371 . S
C199 C202 1.480 . S
C200 N197 1.372 . S
C200 N198 1.361 . S
C200 C208 1.457 . S
C201 N196 1.363 . S
C201 N198 1.377 . S
C201 C214 1.479 . S
C202 C199 1.480 . S
C202 C203 1.383 . S
C202 C207 1.385 . S
C203 H184 0.947 . S
C203 C202 1.383 . S
C203 C204 1.388 . S
C204 H185 0.946 . S
C204 C203 1.388 . S
C204 C205 1.384 . S
C205 C204 1.384 . S
C205 C206 1.377 . S
C206 H186 0.953 . S
C206 C205 1.377 . S
C206 C207 1.369 . S
C207 H187 0.945 . S
C207 C202 1.385 . S
C207 C206 1.369 . S
C208 C200 1.457 . S
C208 C209 1.372 . S
C208 C213 1.364 . S
C209 H188 0.952 . S
C209 C208 1.372 . S
C209 C210 1.389 . S
C210 H189 0.949 . S
C210 C209 1.389 . S
C210 C211 1.387 . S
C211 C210 1.387 . S
C211 C212 1.372 . S
C212 H190 0.950 . S
C212 C211 1.372 . S
C212 C213 1.379 . S
C213 H191 0.948 . S
C213 C208 1.364 . S
C213 C212 1.379 . S
C214 C183 1.383 . S
C214 C201 1.479 . S
C214 C215 1.398 . S
C215 C180 1.382 . S
C215 H192 0.951 . S
C215 C214 1.398 . S
C216 C217 1.384 1_564 S
C216 H229 0.947 . S
C216 C251 1.381 1_565 S
C217 C216 1.384 1_546 S
C217 C218 1.378 1_556 S
C218 C217 1.378 1_554 S
C218 C219 1.378 . S
C218 H230 0.952 1_554 S
C219 C218 1.378 . S
C219 H231 0.950 . S
C219 C250 1.383 . S
H220 C239 0.947 . S
H221 C240 0.951 . S
H222 C242 0.953 . S
H223 C243 0.945 . S
H224 C245 0.950 1_565 S
H225 C246 0.949 . S
H226 C248 0.950 . S
H227 C249 0.948 . S
H228 C251 0.951 1_565 S
H229 C216 0.947 . S
H230 C218 0.952 1_556 S
H231 C219 0.950 . S
N232 C235 1.382 . S
N232 C237 1.363 . S
N233 C235 1.371 . S
N233 C236 1.372 . S
N234 C236 1.361 . S
N234 C237 1.377 . S
C235 N232 1.382 . S
C235 N233 1.371 . S
C235 C238 1.480 . S
C236 N233 1.372 . S
C236 N234 1.361 . S
C236 C244 1.457 . S
C237 N232 1.363 . S
C237 N234 1.377 . S
C237 C250 1.479 . S
C238 C235 1.480 . S
C238 C239 1.383 . S
C238 C243 1.385 . S
C239 H220 0.947 . S
C239 C238 1.383 . S
C239 C240 1.388 1_545 S
C240 H221 0.951 . S
C240 C239 1.388 1_565 S
C240 C241 1.380 1_565 S
C241 C240 1.380 1_545 S
C241 C242 1.377 . S
C242 H222 0.953 . S
C242 C241 1.377 . S
C242 C243 1.369 . S
C243 H223 0.945 . S
C243 C238 1.385 . S
C243 C242 1.369 . S
C244 C236 1.457 . S
C244 C245 1.375 . S
C244 C249 1.364 . S
C245 H224 0.950 1_545 S
C245 C244 1.375 . S
C245 C246 1.388 1_545 S
C246 H225 0.949 . S
C246 C245 1.388 1_565 S
C246 C247 1.387 1_565 S
C247 C246 1.387 1_545 S
C247 C248 1.372 . S
C248 H226 0.950 . S
C248 C247 1.372 . S
C248 C249 1.379 . S
C249 H227 0.948 . S
C249 C244 1.364 . S
C249 C248 1.379 . S
C250 C219 1.383 . S
C250 C237 1.479 . S
C250 C251 1.400 . S
C251 C216 1.381 1_545 S
C251 H228 0.951 1_545 S
C251 C250 1.400 . S
C252 C253 1.384 . S
C252 H265 0.947 . S
C252 C287 1.382 . S
C253 C252 1.384 . S
C253 C254 1.378 . S
C254 C253 1.378 . S
C254 C255 1.378 . S
C254 H266 0.952 . S
C255 C254 1.378 . S
C255 H267 0.950 . S
C255 C286 1.383 . S
H256 C275 0.947 . S
H257 C276 0.946 . S
H258 C278 0.953 . S
H259 C279 0.945 . S
H260 C281 0.952 . S
H261 C282 0.949 . S
H262 C284 0.950 . S
H263 C285 0.948 . S
H264 C287 0.951 . S
H265 C252 0.947 . S
H266 C254 0.952 . S
H267 C255 0.950 . S
N268 C271 1.382 . S
N268 C273 1.363 . S
N269 C271 1.371 . S
N269 C272 1.372 . S
N270 C272 1.361 . S
N270 C273 1.377 . S
C271 N268 1.382 . S
C271 N269 1.371 . S
C271 C274 1.480 . S
C272 N269 1.372 . S
C272 N270 1.361 . S
C272 C280 1.457 . S
C273 N268 1.363 . S
C273 N270 1.377 . S
C273 C286 1.479 . S
C274 C271 1.480 . S
C274 C275 1.383 . S
C274 C279 1.385 . S
C275 H256 0.947 . S
C275 C274 1.383 . S
C275 C276 1.388 . S
C276 H257 0.946 . S
C276 C275 1.388 . S
C276 C277 1.384 . S
C277 C276 1.384 . S
C277 C278 1.377 . S
C278 H258 0.953 . S
C278 C277 1.377 . S
C278 C279 1.369 . S
C279 H259 0.945 . S
C279 C274 1.385 . S
C279 C278 1.369 . S
C280 C272 1.457 . S
C280 C281 1.372 . S
C280 C285 1.364 . S
C281 H260 0.952 . S
C281 C280 1.372 . S
C281 C282 1.389 1_554 S
C282 H261 0.949 . S
C282 C281 1.389 1_556 S
C282 C283 1.387 . S
C283 C282 1.387 . S
C283 C284 1.372 1_556 S
C284 H262 0.950 . S
C284 C283 1.372 1_554 S
C284 C285 1.379 . S
C285 H263 0.948 . S
C285 C280 1.364 . S
C285 C284 1.379 . S
C286 C255 1.383 . S
C286 C273 1.479 . S
C286 C287 1.398 . S
C287 C252 1.382 . S
C287 H264 0.951 . S
C287 C286 1.398 . S
C288 O304 1.251 1_455 S
C288 O306 1.254 . S
N289 C290 1.333 . S
N289 C294 1.307 . S
N289 Zn295 2.020 1_655 S
C290 N289 1.333 . S
C290 C291 1.379 . S
C290 H308 0.952 . S
C291 C290 1.379 . S
C291 C292 1.390 . S
C291 H318 0.949 . S
C292 C291 1.390 . S
C292 C293 1.357 . S
C293 C292 1.357 . S
C293 C294 1.370 . S
C293 H319 0.950 . S
C294 N289 1.307 . S
C294 C293 1.370 . S
C294 H312 0.948 1_565 S
Zn295 N289 2.020 1_455 S
Zn295 O304 2.039 1_455 S
Zn295 O310 2.034 . S
Zn295 O314 2.025 1_565 S
Zn295 O316 2.024 1_465 S
C296 O315 1.246 . S
C296 O316 1.249 . S
N297 C298 1.307 . S
N297 C299 1.333 . S
N297 Zn303 2.020 1_554 S
C298 N297 1.307 . S
C298 C302 1.370 . S
C298 H309 0.948 1_545 S
C299 N297 1.333 . S
C299 C300 1.379 . S
C299 H307 0.952 1_554 S
C300 C299 1.379 . S
C300 C301 1.390 . S
C300 H320 0.949 . S
C301 C300 1.390 . S
C301 C302 1.357 . S
C302 C298 1.370 . S
C302 C301 1.357 . S
C302 H321 0.950 . S
Zn303 N297 2.020 1_556 S
Zn303 O306 2.025 1_545 S
Zn303 O311 2.024 1_545 S
Zn303 O313 2.039 . S
Zn303 O315 2.034 1_455 S
O304 C288 1.251 1_655 S
O304 Zn295 2.039 1_655 S
C305 O310 1.246 . S
C305 O311 1.249 . S
O306 C288 1.254 . S
O306 Zn303 2.025 1_565 S
H307 C299 0.952 1_556 S
H308 C290 0.952 . S
H309 C298 0.948 1_565 S
O310 Zn295 2.034 . S
O310 C305 1.246 . S
O311 Zn303 2.024 1_565 S
O311 C305 1.249 . S
H312 C294 0.948 1_545 S
O313 Zn303 2.039 . S
O313 C317 1.251 . S
O314 Zn295 2.025 1_545 S
O314 C317 1.254 . S
O315 C296 1.246 . S
O315 Zn303 2.034 1_655 S
O316 Zn295 2.024 1_645 S
O316 C296 1.249 . S
C317 O313 1.251 . S
C317 O314 1.254 . S
H318 C291 0.949 . S
H319 C293 0.950 . S
H320 C300 0.949 . S
H321 C302 0.950 . S
C322 O338 1.251 1_565 S
C322 O340 1.254 . S
N323 C324 1.333 . S
N323 C328 1.307 . S
N323 Zn329 2.020 . S
C324 N323 1.333 . S
C324 C325 1.379 . S
C324 H342 0.952 . S
C325 C324 1.379 . S
C325 C326 1.390 . S
C325 H352 0.949 . S
C326 C325 1.390 . S
C326 C327 1.357 . S
C327 C326 1.357 . S
C327 C328 1.370 . S
C327 H353 0.950 . S
C328 N323 1.307 . S
C328 C327 1.370 . S
C328 H346 0.948 . S
Zn329 N323 2.020 . S
Zn329 O338 2.039 . S
Zn329 O344 2.034 . S
Zn329 O348 2.025 . S
Zn329 O350 2.024 . S
C330 O349 1.246 1_545 S
C330 O350 1.249 . S
N331 C332 1.307 . S
N331 C333 1.333 . S
N331 Zn337 2.020 . S
C332 N331 1.307 . S
C332 C336 1.370 . S
C332 H343 0.948 . S
C333 N331 1.333 . S
C333 C334 1.379 . S
C333 H341 0.952 . S
C334 C333 1.379 . S
C334 C335 1.390 . S
C334 H354 0.949 1_556 S
C335 C334 1.390 . S
C335 C336 1.357 . S
C336 C332 1.370 . S
C336 C335 1.357 . S
C336 H355 0.950 . S
Zn337 N331 2.020 . S
Zn337 O340 2.025 . S
Zn337 O345 2.024 . S
Zn337 O347 2.039 . S
Zn337 O349 2.034 . S
O338 C322 1.251 1_545 S
O338 Zn329 2.039 . S
C339 O344 1.246 1_565 S
C339 O345 1.249 . S
O340 C322 1.254 . S
O340 Zn337 2.025 . S
H341 C333 0.952 . S
H342 C324 0.952 . S
H343 C332 0.948 . S
O344 Zn329 2.034 . S
O344 C339 1.246 1_545 S
O345 Zn337 2.024 . S
O345 C339 1.249 . S
H346 C328 0.948 . S
O347 Zn337 2.039 . S
O347 C351 1.251 1_565 S
O348 Zn329 2.025 . S
O348 C351 1.254 . S
O349 C330 1.246 1_565 S
O349 Zn337 2.034 . S
O350 Zn329 2.024 . S
O350 C330 1.249 . S
C351 O347 1.251 1_545 S
C351 O348 1.254 . S
H352 C325 0.949 . S
H353 C327 0.950 . S
H354 C334 0.949 1_554 S
H355 C336 0.950 . S
C356 O372 1.251 . S
C356 O374 1.254 . S
N357 C358 1.333 . S
N357 C362 1.307 . S
N357 Zn363 2.020 . S
C358 N357 1.333 . S
C358 C359 1.379 . S
C358 H376 0.952 . S
C359 C358 1.379 . S
C359 C360 1.390 . S
C359 H386 0.949 . S
C360 C359 1.390 . S
C360 C361 1.357 . S
C361 C360 1.357 . S
C361 C362 1.370 . S
C361 H387 0.950 . S
C362 N357 1.307 . S
C362 C361 1.370 . S
C362 H380 0.948 . S
Zn363 N357 2.020 . S
Zn363 O372 2.039 . S
Zn363 O378 2.034 . S
Zn363 O382 2.025 . S
Zn363 O384 2.024 . S
C364 O383 1.246 . S
C364 O384 1.249 . S
N365 C366 1.307 . S
N365 C367 1.333 . S
N365 Zn371 2.020 . S
C366 N365 1.307 . S
C366 C370 1.370 . S
C366 H377 0.948 . S
C367 N365 1.333 . S
C367 C368 1.379 . S
C367 H375 0.952 . S
C368 C367 1.379 . S
C368 C369 1.390 . S
C368 H388 0.949 1_556 S
C369 C368 1.390 . S
C369 C370 1.357 . S
C370 C366 1.370 . S
C370 C369 1.357 . S
C370 H389 0.950 . S
Zn371 N365 2.020 . S
Zn371 O374 2.025 . S
Zn371 O379 2.024 . S
Zn371 O381 2.039 . S
Zn371 O383 2.034 . S
O372 C356 1.251 . S
O372 Zn363 2.039 . S
C373 O378 1.246 . S
C373 O379 1.249 . S
O374 C356 1.254 . S
O374 Zn371 2.025 . S
H375 C367 0.952 . S
H376 C358 0.952 . S
H377 C366 0.948 . S
O378 Zn363 2.034 . S
O378 C373 1.246 . S
O379 Zn371 2.024 . S
O379 C373 1.249 . S
H380 C362 0.948 . S
O381 Zn371 2.039 . S
O381 C385 1.251 . S
O382 Zn363 2.025 . S
O382 C385 1.254 . S
O383 C364 1.246 . S
O383 Zn371 2.034 . S
O384 Zn363 2.024 . S
O384 C364 1.249 . S
C385 O381 1.251 . S
C385 O382 1.254 . S
H386 C359 0.949 . S
H387 C361 0.950 . S
H388 C368 0.949 1_554 S
H389 C370 0.950 . S
C390 O406 1.251 . S
C390 O408 1.254 . S
N391 C392 1.333 . S
N391 C396 1.307 . S
N391 Zn397 2.020 . S
C392 N391 1.333 . S
C392 C393 1.379 . S
C392 H410 0.952 . S
C393 C392 1.379 . S
C393 C394 1.390 . S
C393 H420 0.949 . S
C394 C393 1.390 . S
C394 C395 1.357 . S
C395 C394 1.357 . S
C395 C396 1.370 . S
C395 H421 0.950 . S
C396 N391 1.307 . S
C396 C395 1.370 . S
C396 H414 0.948 . S
Zn397 N391 2.020 . S
Zn397 O406 2.039 . S
Zn397 O412 2.034 1_455 S
Zn397 O416 2.025 1_455 S
Zn397 O418 2.024 . S
C398 O417 1.246 . S
C398 O418 1.249 . S
N399 C400 1.307 . S
N399 C401 1.333 . S
N399 Zn405 2.020 1_655 S
C400 N399 1.307 . S
C400 C404 1.370 . S
C400 H411 0.948 1_655 S
C401 N399 1.333 . S
C401 C402 1.379 . S
C401 H409 0.952 . S
C402 C401 1.379 . S
C402 C403 1.390 . S
C402 H422 0.949 . S
C403 C402 1.390 . S
C403 C404 1.357 . S
C404 C400 1.370 . S
C404 C403 1.357 . S
C404 H423 0.950 . S
Zn405 N399 2.020 1_455 S
Zn405 O408 2.025 . S
Zn405 O413 2.024 1_455 S
Zn405 O415 2.039 1_455 S
Zn405 O417 2.034 . S
O406 C390 1.251 . S
O406 Zn397 2.039 . S
C407 O412 1.246 . S
C407 O413 1.249 . S
O408 C390 1.254 . S
O408 Zn405 2.025 . S
H409 C401 0.952 . S
H410 C392 0.952 . S
H411 C400 0.948 1_455 S
O412 Zn397 2.034 1_655 S
O412 C407 1.246 . S
O413 Zn405 2.024 1_655 S
O413 C407 1.249 . S
H414 C396 0.948 . S
O415 Zn405 2.039 1_655 S
O415 C419 1.251 . S
O416 Zn397 2.025 1_655 S
O416 C419 1.254 . S
O417 C398 1.246 . S
O417 Zn405 2.034 . S
O418 Zn397 2.024 . S
O418 C398 1.249 . S
C419 O415 1.251 . S
C419 O416 1.254 . S
H420 C393 0.949 . S
H421 C395 0.950 . S
H422 C402 0.949 . S
H423 C404 0.950 . S
C241 C305 2.693 1_545 S
C326 C277 2.495 . S
C360 C169 3.097 . S
C394 C205 2.276 . S
C296 C97 2.652 1_556 S
C133 C335 2.625 1_554 S
C25 C369 3.137 1_554 S
C61 C403 2.123 . S
C317 C211 3.904 . S
C322 C247 1.361 1_565 S
C356 C253 1.752 . S
C175 C390 0.988 . S
C67 C288 3.762 1_655 S
C351 C103 1.309 . S
C385 C109 1.901 . S
C31 C419 1.172 . S
C181 C301 3.156 . S
C217 C330 3.299 . S
C364 C283 2.629 . S
C398 C145 2.993 . S
C37 C292 3.094 . S
C339 C73 3.305 1_565 S
C373 C139 2.698 . S
C1 C407 3.072 . S
